# generated using pymatgen
data_HfZrAlGa2
_symmetry_space_group_name_H-M   'P 1'
_cell_length_a   8.44687909
_cell_length_b   7.49348826
_cell_length_c   5.41782512
_cell_angle_alpha   79.30704612
_cell_angle_beta   60.87335259
_cell_angle_gamma   39.16660463
_symmetry_Int_Tables_number   1
_chemical_formula_structural   HfZrAlGa2
_chemical_formula_sum   'Hf2 Zr2 Al2 Ga4'
_cell_volume   177.39349309
_cell_formula_units_Z   2
loop_
 _symmetry_equiv_pos_site_id
 _symmetry_equiv_pos_as_xyz
  1  'x, y, z'
loop_
 _atom_site_type_symbol
 _atom_site_label
 _atom_site_symmetry_multiplicity
 _atom_site_fract_x
 _atom_site_fract_y
 _atom_site_fract_z
 _atom_site_occupancy
  Hf  Hf0  1  0.75968148  0.13610494  0.88625239  1
  Hf  Hf1  1  0.21796118  0.88625239  0.13610494  1
  Zr  Zr0  1  0.36031892  0.03737856  0.48795452  1
  Zr  Zr1  1  0.11434800  0.48795452  0.03737856  1
  Al  Al0  1  0.65910031  0.84089969  0.84089969  1
  Al  Al1  1  0.39491919  0.60508081  0.60508081  1
  Ga  Ga0  1  0.79811643  0.43813588  0.06073000  1
  Ga  Ga1  1  0.70301669  0.06073000  0.43813588  1
  Ga  Ga2  1  0.19436340  0.54997060  0.44749561  1
  Ga  Ga3  1  0.80817139  0.44749561  0.54997060  1
loop_
_geom_bond_atom_site_label_1
_geom_bond_atom_site_label_2
_geom_bond_distance
_geom_bond_site_symmetry_2
Al0 Ga1 2.537401 1_565
Al0 Ga0 2.537402 1_556
Al0 Ga3 2.607050 1_555
Al0 Ga2 2.607056 1_655
Al0 Zr1 2.892633 1_566
Al0 Zr0 2.892633 1_566
Al0 Hf0 2.999139 1_565
Al0 Hf1 2.999140 1_556
Al0 Zr0 3.175697 1_565
Al0 Zr1 3.175697 1_656
Al1 Ga2 2.528435 1_555
Al1 Ga3 2.528443 1_555
Al1 Ga0 2.616594 1_555
Al1 Ga1 2.616597 1_555
Al1 Hf1 2.851361 1_556
Al1 Hf0 2.851361 1_465
Al1 Zr0 2.988572 1_565
Al1 Zr1 2.988572 1_556
Al1 Hf0 3.155381 1_555
Al1 Hf1 3.155381 1_555
Ga0 Ga3 2.708376 1_555
Ga0 Ga3 2.716243 1_554
Ga0 Hf1 2.808485 1_645
Ga0 Zr0 2.863315 1_654
Ga0 Hf0 2.890224 1_554
Ga0 Zr1 2.913808 1_655
Ga0 Hf1 2.915767 1_555
Ga0 Zr0 2.995325 1_565
Ga1 Ga2 2.708367 1_555
Ga1 Ga2 2.716250 1_645
Ga1 Hf0 2.808483 1_554
Ga1 Zr1 2.863312 1_645
Ga1 Hf1 2.890232 1_645
Ga1 Zr0 2.913800 1_555
Ga1 Hf0 2.915773 1_555
Ga1 Zr1 2.995323 1_556
Ga2 Zr1 2.818150 1_555
Ga2 Hf0 2.840288 1_554
Ga2 Hf1 2.847774 1_555
Ga2 Zr0 2.899059 1_555
Ga2 Zr1 2.952895 1_556
Ga2 Hf0 2.965566 1_465
Ga3 Zr0 2.818144 1_655
Ga3 Hf1 2.840291 1_645
Ga3 Hf0 2.847778 1_555
Ga3 Zr1 2.899055 1_655
Ga3 Zr0 2.952896 1_565
Ga3 Hf1 2.965569 1_556
