# generated using pymatgen
data_Hf6Al16CoPt6
_symmetry_space_group_name_H-M   'P 1'
_cell_length_a   8.66334352
_cell_length_b   8.64798200
_cell_length_c   8.64798357
_cell_angle_alpha   60.21693632
_cell_angle_beta   59.94122487
_cell_angle_gamma   59.94122603
_symmetry_Int_Tables_number   1
_chemical_formula_structural   Hf6Al16CoPt6
_chemical_formula_sum   'Hf6 Al16 Co1 Pt6'
_cell_volume   458.47903002
_cell_formula_units_Z   1
loop_
 _symmetry_equiv_pos_site_id
 _symmetry_equiv_pos_as_xyz
  1  'x, y, z'
loop_
 _atom_site_type_symbol
 _atom_site_label
 _atom_site_symmetry_multiplicity
 _atom_site_fract_x
 _atom_site_fract_y
 _atom_site_fract_z
 _atom_site_occupancy
  Hf  Hf0  1  0.68253646  0.68121579  0.31878421  1
  Hf  Hf1  1  0.31746354  0.68121579  0.31878421  1
  Hf  Hf2  1  0.68323863  0.31676137  0.31676137  1
  Hf  Hf3  1  0.31746354  0.31878421  0.68121579  1
  Hf  Hf4  1  0.68253646  0.31878421  0.68121579  1
  Hf  Hf5  1  0.31676137  0.68323863  0.68323863  1
  Al  Al0  1  0.88476824  0.86849646  0.36196705  1
  Al  Al1  1  0.88476824  0.36196705  0.86849646  1
  Al  Al2  1  0.36178711  0.87816117  0.87816117  1
  Al  Al3  1  0.88188855  0.87816117  0.87816117  1
  Al  Al4  1  0.11523176  0.13150354  0.63803295  1
  Al  Al5  1  0.11523176  0.63803295  0.13150354  1
  Al  Al6  1  0.63821289  0.12183883  0.12183883  1
  Al  Al7  1  0.11811145  0.12183883  0.12183883  1
  Al  Al8  1  0.66548912  0.66398546  0.00503729  1
  Al  Al9  1  0.66548912  0.00503729  0.66398546  1
  Al  Al10  1  0.00560531  0.65948009  0.65948009  1
  Al  Al11  1  0.67543450  0.65948009  0.65948009  1
  Al  Al12  1  0.33451088  0.33601454  0.99496271  1
  Al  Al13  1  0.33451088  0.99496271  0.33601454  1
  Al  Al14  1  0.99439469  0.34051991  0.34051991  1
  Al  Al15  1  0.32456550  0.34051991  0.34051991  1
  Co  Co0  1  0.00000000  0.50000000  0.50000000  1
  Pt  Pt0  1  0.00000000  0.00000000  0.00000000  1
  Pt  Pt1  1  0.00000000  0.00000000  0.50000000  1
  Pt  Pt2  1  0.50000000  0.00000000  0.50000000  1
  Pt  Pt3  1  0.50000000  0.50000000  0.00000000  1
  Pt  Pt4  1  0.00000000  0.50000000  0.00000000  1
  Pt  Pt5  1  0.50000000  0.00000000  0.00000000  1
loop_
_geom_bond_atom_site_label_1
_geom_bond_atom_site_label_2
_geom_bond_distance
_geom_bond_site_symmetry_2
Hf0 Hf4 3.144574 1_555
Hf0 Hf2 3.157470 1_555
Hf0 Hf5 3.157470 1_555
Hf0 Pt2 3.162104 1_565
Hf0 Pt4 3.162104 1_655
Hf0 Hf1 3.162752 1_555
Hf0 Pt5 3.186035 1_565
Hf1 Hf3 3.144574 1_555
Hf1 Hf2 3.157470 1_555
Hf1 Hf5 3.157471 1_555
Hf1 Pt1 3.162104 1_565
Hf1 Pt3 3.162104 1_555
Hf1 Pt5 3.186034 1_565
Hf2 Hf3 3.157470 1_555
Hf2 Hf4 3.157471 1_555
Hf2 Pt2 3.171601 1_555
Hf2 Pt4 3.171601 1_655
Hf2 Pt1 3.171601 1_655
Hf2 Pt3 3.171601 1_555
Hf3 Hf5 3.157470 1_555
Hf3 Pt2 3.162104 1_555
Hf3 Pt4 3.162104 1_556
Hf3 Hf4 3.162752 1_555
Hf3 Pt5 3.186035 1_556
Hf4 Hf5 3.157470 1_555
Hf4 Pt1 3.162104 1_655
Hf4 Pt3 3.162104 1_556
Hf4 Pt5 3.186034 1_556
Hf5 Pt2 3.171601 1_565
Hf5 Pt4 3.171601 1_556
Hf5 Pt1 3.171601 1_565
Hf5 Pt3 3.171601 1_556
Al0 Pt0 2.561034 1_665
Al0 Co0 2.608574 1_655
Al0 Al11 2.676830 1_555
Al0 Al10 2.676830 1_655
Al0 Pt2 2.719293 1_565
Al0 Pt1 2.719293 1_665
Al0 Al9 2.769666 1_565
Al0 Al5 2.811450 1_655
Al0 Al6 2.985055 1_565
Al0 Al7 2.985066 1_665
Al0 Hf0 3.151343 1_555
Al0 Hf1 3.151343 1_655
Al0 Hf2 3.259903 1_565
Al1 Pt0 2.561034 1_656
Al1 Co0 2.608574 1_655
Al1 Al10 2.676830 1_655
Al1 Al11 2.676830 1_555
Al1 Pt3 2.719293 1_556
Al1 Pt4 2.719293 1_656
Al1 Al8 2.769666 1_556
Al1 Al4 2.811450 1_655
Al1 Al6 2.985054 1_556
Al1 Al7 2.985067 1_656
Al1 Hf3 3.151343 1_655
Al1 Hf4 3.151343 1_555
Al1 Hf2 3.259903 1_556
Al2 Pt0 2.555461 1_566
Al2 Pt3 2.675234 1_556
Al2 Pt2 2.675235 1_565
Al2 Pt5 2.699037 1_566
Al2 Al9 2.747405 1_565
Al2 Al8 2.747405 1_556
Al2 Al7 2.972651 1_566
Al2 Al5 2.985054 1_556
Al2 Al4 2.985055 1_565
Al2 Hf5 3.158408 1_555
Al2 Hf3 3.210949 1_565
Al2 Hf1 3.210950 1_556
Al3 Pt0 2.555475 1_666
Al3 Pt4 2.675234 1_656
Al3 Pt1 2.675234 1_665
Al3 Pt5 2.699022 1_566
Al3 Al8 2.747383 1_556
Al3 Al9 2.747384 1_565
Al3 Al6 2.972651 1_566
Al3 Al4 2.985066 1_665
Al3 Al5 2.985067 1_656
Al3 Hf5 3.158419 1_655
Al3 Hf4 3.210946 1_565
Al3 Hf0 3.210946 1_556
Al4 Pt0 2.561034 1_556
Al4 Co0 2.608574 1_555
Al4 Pt2 2.719293 1_555
Al4 Pt1 2.719293 1_555
Al4 Hf3 3.151343 1_555
Al4 Hf4 3.151343 1_455
Al4 Hf5 3.259903 1_545
Al5 Pt0 2.561034 1_565
Al5 Co0 2.608574 1_555
Al5 Pt3 2.719293 1_555
Al5 Pt4 2.719293 1_555
Al5 Hf0 3.151343 1_455
Al5 Hf1 3.151343 1_555
Al5 Hf5 3.259903 1_554
Al6 Pt0 2.555461 1_655
Al6 Pt3 2.675234 1_555
Al6 Pt2 2.675235 1_555
Al6 Pt5 2.699037 1_555
Al6 Hf2 3.158408 1_555
Al6 Hf0 3.210949 1_545
Al6 Hf4 3.210950 1_554
Al7 Pt0 2.555475 1_555
Al7 Pt4 2.675234 1_555
Al7 Pt1 2.675234 1_555
Al7 Pt5 2.699022 1_555
Al7 Hf2 3.158419 1_455
Al7 Hf1 3.210946 1_545
Al7 Hf3 3.210946 1_554
Al8 Pt4 2.495833 1_655
Al8 Pt3 2.495840 1_555
Al8 Pt5 2.502927 1_565
Al8 Hf2 2.866813 1_555
Al8 Hf0 2.868974 1_555
Al8 Hf1 2.868978 1_555
Al8 Al9 2.959076 1_564
Al9 Pt1 2.495833 1_655
Al9 Pt2 2.495841 1_555
Al9 Pt5 2.502927 1_556
Al9 Hf2 2.866813 1_555
Al9 Hf4 2.868973 1_555
Al9 Hf3 2.868978 1_555
Al10 Co0 2.414638 1_555
Al10 Pt1 2.542731 1_565
Al10 Pt4 2.542731 1_556
Al10 Al3 2.791693 1_455
Al10 Hf3 2.828390 1_555
Al10 Hf1 2.828390 1_555
Al10 Al11 2.860383 1_455
Al10 Hf5 2.915920 1_555
Al10 Al9 2.965410 1_465
Al10 Al8 2.965410 1_456
Al11 Co0 2.414638 1_655
Al11 Pt2 2.542731 1_565
Al11 Pt3 2.542731 1_556
Al11 Al2 2.791698 1_555
Al11 Hf4 2.828390 1_555
Al11 Hf0 2.828390 1_555
Al11 Hf5 2.915920 1_555
Al11 Al9 2.965414 1_565
Al11 Al8 2.965415 1_556
Al12 Pt4 2.495833 1_556
Al12 Pt3 2.495840 1_556
Al12 Pt5 2.502927 1_556
Al12 Al7 2.747383 1_556
Al12 Al6 2.747405 1_556
Al12 Al5 2.769666 1_556
Al12 Hf5 2.866813 1_555
Al12 Hf3 2.868974 1_555
Al12 Hf4 2.868978 1_555
Al12 Al13 2.959076 1_546
Al12 Al14 2.965410 1_456
Al12 Al15 2.965415 1_556
Al13 Pt1 2.495833 1_565
Al13 Pt2 2.495841 1_565
Al13 Pt5 2.502927 1_565
Al13 Al7 2.747384 1_565
Al13 Al6 2.747405 1_565
Al13 Al4 2.769666 1_565
Al13 Hf5 2.866813 1_555
Al13 Hf1 2.868973 1_555
Al13 Hf0 2.868978 1_555
Al13 Al14 2.965410 1_465
Al13 Al15 2.965414 1_565
Al14 Co0 2.414638 1_655
Al14 Pt1 2.542731 1_655
Al14 Pt4 2.542731 1_655
Al14 Al5 2.676830 1_655
Al14 Al4 2.676830 1_655
Al14 Al7 2.791693 1_655
Al14 Hf0 2.828390 1_555
Al14 Hf4 2.828390 1_555
Al14 Al15 2.860383 1_655
Al14 Hf2 2.915920 1_555
Al15 Co0 2.414638 1_555
Al15 Pt2 2.542731 1_555
Al15 Pt3 2.542731 1_555
Al15 Al4 2.676830 1_555
Al15 Al5 2.676830 1_555
Al15 Al6 2.791698 1_555
Al15 Hf1 2.828390 1_555
Al15 Hf3 2.828390 1_555
Al15 Hf2 2.915920 1_555
Co0 Hf1 3.167998 1_555
Co0 Hf4 3.167998 1_455
Co0 Hf3 3.167998 1_555
Co0 Hf0 3.167998 1_455
