# generated using pymatgen
data_Ti10Ge5AsC
_symmetry_space_group_name_H-M   'P 1'
_cell_length_a   7.51856020
_cell_length_b   7.52975684
_cell_length_c   5.21048174
_cell_angle_alpha   90.18317782
_cell_angle_beta   89.90827377
_cell_angle_gamma   120.04926713
_symmetry_Int_Tables_number   1
_chemical_formula_structural   Ti10Ge5AsC
_chemical_formula_sum   'Ti10 Ge5 As1 C1'
_cell_volume   255.33250396
_cell_formula_units_Z   1
loop_
 _symmetry_equiv_pos_site_id
 _symmetry_equiv_pos_as_xyz
  1  'x, y, z'
loop_
 _atom_site_type_symbol
 _atom_site_label
 _atom_site_symmetry_multiplicity
 _atom_site_fract_x
 _atom_site_fract_y
 _atom_site_fract_z
 _atom_site_occupancy
  Ti  Ti0  1  0.00000000  0.76243752  0.26093652  1
  Ti  Ti1  1  0.23820894  0.23684721  0.25971394  1
  Ti  Ti2  1  0.76179106  0.99863827  0.25971394  1
  Ti  Ti3  1  1.00000000  0.23962540  0.73878316  1
  Ti  Ti4  1  0.76234101  0.76346461  0.74086426  1
  Ti  Ti5  1  0.23765899  0.00112359  0.74086426  1
  Ti  Ti6  1  0.33160510  0.66526917  0.99975765  1
  Ti  Ti7  1  0.66839490  0.33366307  0.99975765  1
  Ti  Ti8  1  0.66817833  0.33328828  0.50002371  1
  Ti  Ti9  1  0.33182167  0.66511095  0.50002371  1
  Ge  Ge0  1  0.60170358  0.60162829  0.24667836  1
  Ge  Ge1  1  0.39829642  0.99992470  0.24667836  1
  Ge  Ge2  1  1.00000000  0.60662865  0.75276931  1
  Ge  Ge3  1  0.39894821  0.39799830  0.75382800  1
  Ge  Ge4  1  0.60105179  0.99905009  0.75382800  1
  As  As0  1  0.00000000  0.39467748  0.24535218  1
  C  C0  1  1.00000000  0.00062342  0.50042700  1
loop_
_geom_bond_atom_site_label_1
_geom_bond_atom_site_label_2
_geom_bond_distance
_geom_bond_site_symmetry_2
Ge0 Ti2 2.604856 1_555
Ge0 Ti0 2.609235 1_655
Ge0 Ti7 2.640537 1_554
Ge0 Ti6 2.644949 1_554
Ge0 Ti9 2.654645 1_555
Ge0 Ti8 2.665598 1_555
Ge0 Ti1 2.738772 1_555
Ge0 Ti4 2.844281 1_555
Ge0 Ti4 2.902771 1_554
Ge1 Ti1 2.604855 1_565
Ge1 Ti0 2.609235 1_555
Ge1 Ti6 2.640531 1_554
Ge1 Ti7 2.644945 1_564
Ge1 Ti8 2.654642 1_565
Ge1 Ti9 2.665592 1_555
Ge1 Ti2 2.738771 1_555
Ge1 Ti5 2.844281 1_565
Ge1 Ti5 2.902771 1_564
Ge2 Ti4 2.589485 1_555
Ge2 Ti5 2.589485 1_665
Ge2 Ti6 2.640321 1_655
Ge2 Ti7 2.640323 1_555
Ge2 Ti9 2.654295 1_655
Ge2 Ti8 2.654297 1_555
Ge2 Ti3 2.764173 1_555
Ge2 Ti0 2.821877 1_655
Ge2 Ti0 2.892640 1_656
Ge3 Ti5 2.602914 1_555
Ge3 Ti3 2.615951 1_455
Ge3 Ti6 2.636360 1_555
Ge3 Ti7 2.641190 1_555
Ge3 Ti8 2.656845 1_555
Ge3 Ti9 2.661694 1_555
Ge3 Ti4 2.740984 1_555
Ge3 Ti1 2.843011 1_555
Ge3 Ti1 2.902167 1_556
Ge4 Ti4 2.602913 1_555
Ge4 Ti3 2.615951 1_565
Ge4 Ti7 2.636353 1_565
Ge4 Ti6 2.641186 1_555
Ge4 Ti9 2.656841 1_555
Ge4 Ti8 2.661688 1_565
Ge4 Ti5 2.740984 1_565
Ge4 Ti2 2.843011 1_555
Ge4 Ti2 2.902167 1_556
As0 Ti1 2.599656 1_555
As0 Ti2 2.599656 1_445
As0 Ti7 2.631339 1_454
As0 Ti6 2.631341 1_554
As0 Ti8 2.652737 1_455
As0 Ti9 2.652740 1_555
As0 Ti0 2.770074 1_555
As0 Ti3 2.827078 1_455
As0 Ti3 2.882734 1_454
C0 Ti0 2.181610 1_645
C0 Ti2 2.182022 1_545
C0 Ti1 2.182022 1_655
C0 Ti5 2.182372 1_655
C0 Ti4 2.182373 1_545
C0 Ti3 2.183302 1_555
