# generated using pymatgen
data_Ta3Bi2Sb3O16
_symmetry_space_group_name_H-M   'P 1'
_cell_length_a   4.93697979
_cell_length_b   5.59438536
_cell_length_c   11.82054980
_cell_angle_alpha   90.00000000
_cell_angle_beta   89.79417764
_cell_angle_gamma   90.00000000
_symmetry_Int_Tables_number   1
_chemical_formula_structural   Ta3Bi2Sb3O16
_chemical_formula_sum   'Ta3 Bi2 Sb3 O16'
_cell_volume   326.47400170
_cell_formula_units_Z   1
loop_
 _symmetry_equiv_pos_site_id
 _symmetry_equiv_pos_as_xyz
  1  'x, y, z'
loop_
 _atom_site_type_symbol
 _atom_site_label
 _atom_site_symmetry_multiplicity
 _atom_site_fract_x
 _atom_site_fract_y
 _atom_site_fract_z
 _atom_site_occupancy
  Ta  Ta0  1  0.75000000  0.12119941  0.25000000  1
  Ta  Ta1  1  0.25000000  0.87686076  0.75000000  1
  Ta  Ta2  1  0.75000000  0.37475307  0.75000000  1
  Bi  Bi0  1  0.73614522  0.74815344  0.49733214  1
  Bi  Bi1  1  0.76385478  0.74815344  0.00266786  1
  Sb  Sb0  1  0.30452440  0.24506367  0.50197862  1
  Sb  Sb1  1  0.19547560  0.24506367  0.99802138  1
  Sb  Sb2  1  0.25000000  0.61468954  0.25000000  1
  O  O0  1  0.41039007  0.57593142  0.40474300  1
  O  O1  1  0.50875558  0.65167088  0.80663691  1
  O  O2  1  0.00753734  0.15015093  0.69765179  1
  O  O3  1  0.91506978  0.08713361  0.09653860  1
  O  O4  1  0.00336174  0.35649984  0.30221027  1
  O  O5  1  0.58493022  0.08713361  0.40346140  1
  O  O6  1  0.08960993  0.57593142  0.09525700  1
  O  O7  1  0.50652029  0.85271627  0.19176975  1
  O  O8  1  0.41889094  0.92684627  0.59669841  1
  O  O9  1  0.99347971  0.85271627  0.30823025  1
  O  O10  1  0.49663826  0.35649984  0.19778973  1
  O  O11  1  0.08110906  0.92684627  0.90330159  1
  O  O12  1  0.91694657  0.41208278  0.90420222  1
  O  O13  1  0.49246266  0.15015093  0.80234821  1
  O  O14  1  0.99124442  0.65167088  0.69336309  1
  O  O15  1  0.58305343  0.41208278  0.59579778  1
loop_
_geom_bond_atom_site_label_1
_geom_bond_atom_site_label_2
_geom_bond_distance
_geom_bond_site_symmetry_2
Bi0 O0 2.173757 1_555
Bi0 O8 2.195214 1_555
Bi0 O5 2.321805 1_565
Bi0 O15 2.335475 1_555
Bi0 O9 2.632936 1_555
Bi0 O14 2.695892 1_555
Bi1 O6 2.173757 1_655
Bi1 O11 2.195214 1_654
Bi1 O3 2.321805 1_565
Bi1 O12 2.335475 1_554
Bi1 O7 2.632936 1_555
Bi1 O1 2.695892 1_554
O0 Sb2 2.007540 1_555
O0 Sb0 2.239672 1_555
O1 Ta1 1.916605 1_555
O1 Ta2 2.064213 1_555
O2 Ta2 1.890149 1_455
O2 Ta1 2.039267 1_545
O3 Ta0 1.995100 1_555
O3 Sb1 2.010373 1_654
O4 Ta0 1.919333 1_455
O4 Sb2 1.986070 1_555
O5 Ta0 1.995100 1_555
O5 Sb0 2.010373 1_555
O6 Sb2 2.007540 1_555
O6 Sb1 2.239672 1_554
O7 Sb2 1.960756 1_555
O7 Ta0 2.044665 1_565
O8 Ta1 2.011547 1_555
O8 Sb0 2.178568 1_565
O9 Sb2 1.960756 1_655
O9 Ta0 2.044665 1_565
O10 Ta0 1.919333 1_555
O10 Sb2 1.986070 1_555
O11 Ta1 2.011547 1_555
O11 Sb1 2.178568 1_565
O12 Sb1 2.001187 1_655
O12 Ta2 2.013993 1_555
O13 Ta2 1.890149 1_555
O13 Ta1 2.039267 1_545
O14 Ta1 1.916605 1_655
O14 Ta2 2.064213 1_555
O15 Sb0 2.001187 1_555
O15 Ta2 2.013993 1_555
