# generated using pymatgen
data_CaTaGaO5
_symmetry_space_group_name_H-M   'P 1'
_cell_length_a   5.66426874
_cell_length_b   5.66426885
_cell_length_c   7.42686342
_cell_angle_alpha   75.91849206
_cell_angle_beta   75.91849468
_cell_angle_gamma   106.72098898
_symmetry_Int_Tables_number   1
_chemical_formula_structural   CaTaGaO5
_chemical_formula_sum   'Ca2 Ta2 Ga2 O10'
_cell_volume   208.38092288
_cell_formula_units_Z   2
loop_
 _symmetry_equiv_pos_site_id
 _symmetry_equiv_pos_as_xyz
  1  'x, y, z'
loop_
 _atom_site_type_symbol
 _atom_site_label
 _atom_site_symmetry_multiplicity
 _atom_site_fract_x
 _atom_site_fract_y
 _atom_site_fract_z
 _atom_site_occupancy
  Ca  Ca0  1  0.32985219  0.67014781  0.25000000  1
  Ca  Ca1  1  0.67014781  0.32985219  0.75000000  1
  Ta  Ta0  1  0.00000000  0.00000000  0.50000000  1
  Ta  Ta1  1  0.00000000  0.00000000  0.00000000  1
  Ga  Ga0  1  0.68371055  0.31628945  0.25000000  1
  Ga  Ga1  1  0.31628945  0.68371055  0.75000000  1
  O  O0  1  0.07100151  0.92899849  0.25000000  1
  O  O1  1  0.92899849  0.07100151  0.75000000  1
  O  O2  1  0.30734862  0.90302595  0.89549609  1
  O  O3  1  0.09697405  0.69265138  0.60450391  1
  O  O4  1  0.69265138  0.09697405  0.10450391  1
  O  O5  1  0.90302595  0.30734862  0.39549609  1
  O  O6  1  0.74619299  0.64005588  0.08060350  1
  O  O7  1  0.35994412  0.25380701  0.41939650  1
  O  O8  1  0.25380701  0.35994412  0.91939650  1
  O  O9  1  0.64005588  0.74619299  0.58060350  1
loop_
_geom_bond_atom_site_label_1
_geom_bond_atom_site_label_2
_geom_bond_distance
_geom_bond_site_symmetry_2
Ca0 O0 2.352976 1_555
Ca0 O5 2.454604 1_455
Ca0 O4 2.454604 1_565
Ca0 O7 2.462761 1_555
Ca0 O6 2.462761 1_555
Ca0 O2 2.694113 1_554
Ca0 O3 2.694113 1_555
Ca1 O1 2.352976 1_555
Ca1 O3 2.454604 1_655
Ca1 O2 2.454604 1_545
Ca1 O9 2.462761 1_555
Ca1 O8 2.462761 1_555
Ca1 O4 2.694113 1_556
Ca1 O5 2.694113 1_555
Ga0 O6 1.832591 1_555
Ga0 O7 1.832591 1_555
Ga0 O5 1.837444 1_555
Ga0 O4 1.837444 1_555
Ga1 O8 1.832591 1_555
Ga1 O9 1.832591 1_555
Ga1 O3 1.837444 1_555
Ga1 O2 1.837444 1_555
O0 Ta1 1.965693 1_565
O0 Ta0 1.965693 1_565
O1 Ta1 1.965693 1_656
O1 Ta0 1.965693 1_655
O2 Ta1 2.008748 1_566
O3 Ta0 2.008748 1_565
O4 Ta1 2.008748 1_655
O5 Ta0 2.008748 1_655
O6 Ta1 1.970444 1_665
O7 Ta0 1.970444 1_555
O8 Ta1 1.970444 1_556
O9 Ta0 1.970444 1_665
