# generated using pymatgen
data_P2AuIO8
_symmetry_space_group_name_H-M   'P 1'
_cell_length_a   4.84544677
_cell_length_b   5.03475773
_cell_length_c   8.00314657
_cell_angle_alpha   83.59557294
_cell_angle_beta   83.94079402
_cell_angle_gamma   75.20032558
_symmetry_Int_Tables_number   1
_chemical_formula_structural   P2AuIO8
_chemical_formula_sum   'P2 Au1 I1 O8'
_cell_volume   186.98238827
_cell_formula_units_Z   1
loop_
 _symmetry_equiv_pos_site_id
 _symmetry_equiv_pos_as_xyz
  1  'x, y, z'
loop_
 _atom_site_type_symbol
 _atom_site_label
 _atom_site_symmetry_multiplicity
 _atom_site_fract_x
 _atom_site_fract_y
 _atom_site_fract_z
 _atom_site_occupancy
  P  P0  1  0.07114868  0.92823222  0.76114739  1
  P  P1  1  0.92885132  0.07176778  0.23885261  1
  Au  Au0  1  0.50000000  0.00000000  0.00000000  1
  I  I0  1  0.00000000  0.50000000  0.50000000  1
  O  O0  1  0.24059770  0.80430672  0.91607070  1
  O  O1  1  0.19536355  0.76475273  0.60646092  1
  O  O2  1  0.75940230  0.19569328  0.08392930  1
  O  O3  1  0.80463645  0.23524727  0.39353908  1
  O  O4  1  0.76186147  0.89660013  0.79686813  1
  O  O5  1  0.09169361  0.22813001  0.72255888  1
  O  O6  1  0.23813853  0.10339987  0.20313187  1
  O  O7  1  0.90830639  0.77186999  0.27744112  1
loop_
_geom_bond_atom_site_label_1
_geom_bond_atom_site_label_2
_geom_bond_distance
_geom_bond_site_symmetry_2
Au0 O6 1.984873 1_555
Au0 O4 1.984873 1_544
Au0 O2 1.990059 1_555
Au0 O0 1.990059 1_544
I0 O1 2.113555 1_555
I0 O3 2.113555 1_455
I0 O7 2.134489 1_455
I0 O5 2.134489 1_555
O0 P0 1.543155 1_555
O1 P0 1.545716 1_555
O2 P1 1.543155 1_555
O3 P1 1.545716 1_555
O4 P0 1.540885 1_655
O5 P0 1.533426 1_545
O6 P1 1.540885 1_455
O7 P1 1.533426 1_565
