# generated using pymatgen
data_LiSc(Sn4Os)2
_symmetry_space_group_name_H-M   'P 1'
_cell_length_a   7.42361072
_cell_length_b   7.42360996
_cell_length_c   7.42361005
_cell_angle_alpha   126.33275642
_cell_angle_beta   126.33275109
_cell_angle_gamma   79.34192542
_symmetry_Int_Tables_number   1
_chemical_formula_structural   LiSc(Sn4Os)2
_chemical_formula_sum   'Li1 Sc1 Sn8 Os2'
_cell_volume   256.66437014
_cell_formula_units_Z   1
loop_
 _symmetry_equiv_pos_site_id
 _symmetry_equiv_pos_as_xyz
  1  'x, y, z'
loop_
 _atom_site_type_symbol
 _atom_site_label
 _atom_site_symmetry_multiplicity
 _atom_site_fract_x
 _atom_site_fract_y
 _atom_site_fract_z
 _atom_site_occupancy
  Li  Li0  1  0.00000000  0.00000000  0.00000000  1
  Sc  Sc0  1  0.50000000  0.50000000  0.00000000  1
  Sn  Sn0  1  0.71124930  0.52184039  0.50919383  1
  Sn  Sn1  1  0.52184039  0.01264656  0.81059209  1
  Sn  Sn2  1  0.20205447  0.71124930  0.18940791  1
  Sn  Sn3  1  0.79794553  0.28875070  0.81059209  1
  Sn  Sn4  1  0.47815961  0.98735344  0.18940791  1
  Sn  Sn5  1  0.28875070  0.47815961  0.49080617  1
  Sn  Sn6  1  0.98735344  0.79794553  0.50919383  1
  Sn  Sn7  1  0.01264656  0.20205447  0.49080617  1
  Os  Os0  1  0.25194550  0.25194550  0.00000000  1
  Os  Os1  1  0.74805450  0.74805450  0.00000000  1
loop_
_geom_bond_atom_site_label_1
_geom_bond_atom_site_label_2
_geom_bond_distance
_geom_bond_site_symmetry_2
Li0 Os0 2.879296 1_555
Li0 Os1 2.879296 1_445
Li0 Sn3 2.950410 1_454
Li0 Sn2 2.950410 1_545
Li0 Sn5 2.950415 1_555
Li0 Sn0 2.950415 1_444
Li0 Sn7 2.950417 1_555
Li0 Sn6 2.950417 1_444
Li0 Sn4 2.950417 1_545
Li0 Sn1 2.950417 1_454
Sc0 Sn0 3.019588 1_555
Sc0 Sn5 3.019588 1_554
Sc0 Sn1 3.019590 1_554
Sc0 Sn4 3.019590 1_555
Sc0 Sn6 3.019590 1_555
Sc0 Sn7 3.019590 1_554
Sc0 Sn3 3.019591 1_554
Sc0 Sn2 3.019591 1_555
Sn0 Sn7 2.945119 1_655
Sn0 Sn5 3.126921 1_555
Sn0 Sn6 3.155393 1_555
Sn0 Sn4 3.299086 1_545
Sn0 Sn3 3.299093 1_555
Sn1 Sn2 2.945123 1_545
Sn1 Sn4 3.126906 1_546
Sn1 Sn3 3.155393 1_555
Sn1 Sn6 3.299084 1_445
Sn1 Sn5 3.299086 1_545
Sn2 Sn3 3.126915 1_454
Sn2 Sn4 3.155393 1_555
Sn2 Sn6 3.299087 1_455
Sn2 Sn5 3.299093 1_555
Sn3 Sn4 2.945123 1_545
Sn3 Sn7 3.299087 1_655
Sn4 Sn7 3.299084 1_665
Sn5 Sn6 2.945119 1_455
Sn5 Sn7 3.155393 1_555
Sn6 Sn7 3.126906 1_665
Os0 Sn3 2.812467 1_454
Os0 Sn6 2.812468 1_444
Os0 Sn4 2.812468 1_545
Os0 Sn5 2.812472 1_555
Os0 Sc0 2.834829 1_555
Os0 Sn7 2.865164 1_554
Os0 Sn1 2.865164 1_554
Os0 Sn0 2.865168 1_555
Os0 Sn2 2.865170 1_555
Os1 Sn2 2.812467 1_655
Os1 Sn7 2.812468 1_665
Os1 Sn1 2.812468 1_564
Os1 Sn0 2.812472 1_554
Os1 Sc0 2.834829 1_555
Os1 Sn6 2.865164 1_555
Os1 Sn4 2.865164 1_555
Os1 Sn5 2.865168 1_554
Os1 Sn3 2.865170 1_554
