# generated using pymatgen
data_YAlO3
_symmetry_space_group_name_H-M   'P 1'
_cell_length_a   5.17603105
_cell_length_b   5.31735851
_cell_length_c   7.37249317
_cell_angle_alpha   90.00000000
_cell_angle_beta   90.00000000
_cell_angle_gamma   90.00000000
_symmetry_Int_Tables_number   1
_chemical_formula_structural   YAlO3
_chemical_formula_sum   'Y4 Al4 O12'
_cell_volume   202.91174903
_cell_formula_units_Z   4
loop_
 _symmetry_equiv_pos_site_id
 _symmetry_equiv_pos_as_xyz
  1  'x, y, z'
loop_
 _atom_site_type_symbol
 _atom_site_label
 _atom_site_symmetry_multiplicity
 _atom_site_fract_x
 _atom_site_fract_y
 _atom_site_fract_z
 _atom_site_occupancy
  Y  Y0  1  0.01185074  0.94765401  0.75000000  1
  Y  Y1  1  0.51185074  0.55234599  0.25000000  1
  Y  Y2  1  0.48814926  0.44765401  0.75000000  1
  Y  Y3  1  0.98814926  0.05234599  0.25000000  1
  Al  Al0  1  0.00000000  0.50000000  0.00000000  1
  Al  Al1  1  0.50000000  -0.00000000  0.00000000  1
  Al  Al2  1  0.50000000  -0.00000000  0.50000000  1
  Al  Al3  1  0.00000000  0.50000000  0.50000000  1
  O  O0  1  0.70632899  0.29344831  0.45608442  1
  O  O1  1  0.20632899  0.20655169  0.54391558  1
  O  O2  1  0.79367101  0.79344831  0.04391558  1
  O  O3  1  0.29367101  0.70655169  0.95608442  1
  O  O4  1  0.29367101  0.70655169  0.54391558  1
  O  O5  1  0.79367101  0.79344831  0.45608442  1
  O  O6  1  0.20632899  0.20655169  0.95608442  1
  O  O7  1  0.70632899  0.29344831  0.04391558  1
  O  O8  1  0.08318942  0.47872403  0.25000000  1
  O  O9  1  0.58318942  0.02127597  0.75000000  1
  O  O10  1  0.41681058  0.97872403  0.25000000  1
  O  O11  1  0.91681058  0.52127597  0.75000000  1
loop_
_geom_bond_atom_site_label_1
_geom_bond_atom_site_label_2
_geom_bond_distance
_geom_bond_site_symmetry_2
Al0 O11 1.896131 1_454
Al0 O8 1.896131 1_555
Al0 O7 1.903066 1_455
Al0 O3 1.903066 1_554
Al0 O2 1.918366 1_455
Al0 O6 1.918366 1_554
Al1 O9 1.896131 1_554
Al1 O10 1.896131 1_545
Al1 O6 1.903066 1_554
Al1 O2 1.903066 1_545
Al1 O3 1.918366 1_544
Al1 O7 1.918366 1_555
Al2 O9 1.896131 1_555
Al2 O10 1.896131 1_545
Al2 O1 1.903066 1_555
Al2 O5 1.903066 1_545
Al2 O4 1.918366 1_545
Al2 O0 1.918366 1_555
Al3 O11 1.896131 1_455
Al3 O8 1.896131 1_555
Al3 O0 1.903066 1_455
Al3 O4 1.903066 1_555
Al3 O5 1.918366 1_455
Al3 O1 1.918366 1_555
O0 Y1 2.284055 1_555
O0 Y3 2.465740 1_555
O0 Y2 2.577419 1_555
O1 Y0 2.284055 1_545
O1 Y2 2.465740 1_555
O1 Y3 2.577419 1_455
O2 Y3 2.284055 1_565
O2 Y1 2.465740 1_555
O2 Y0 2.577419 1_654
O3 Y2 2.284055 1_555
O3 Y0 2.465740 1_555
O3 Y1 2.577419 1_556
O4 Y2 2.284055 1_555
O4 Y0 2.465740 1_555
O4 Y1 2.577419 1_555
O5 Y3 2.284055 1_565
O5 Y1 2.465740 1_555
O5 Y0 2.577419 1_655
O6 Y0 2.284055 1_545
O6 Y2 2.465740 1_555
O6 Y3 2.577419 1_456
O7 Y1 2.284055 1_555
O7 Y3 2.465740 1_555
O7 Y2 2.577419 1_554
O8 Y1 2.253035 1_555
O8 Y3 2.319960 1_455
O9 Y0 2.253035 1_645
O9 Y2 2.319960 1_555
O10 Y3 2.253035 1_465
O10 Y1 2.319960 1_555
O11 Y2 2.253035 1_555
O11 Y0 2.319960 1_655
