# generated using pymatgen
data_CeIr3
_symmetry_space_group_name_H-M   'P 1'
_cell_length_a   9.33193492
_cell_length_b   9.33193395
_cell_length_c   9.33193418
_cell_angle_alpha   32.97988664
_cell_angle_beta   32.97988583
_cell_angle_gamma   32.97988939
_symmetry_Int_Tables_number   1
_chemical_formula_structural   CeIr3
_chemical_formula_sum   'Ce3 Ir9'
_cell_volume   214.28740855
_cell_formula_units_Z   3
loop_
 _symmetry_equiv_pos_site_id
 _symmetry_equiv_pos_as_xyz
  1  'x, y, z'
loop_
 _atom_site_type_symbol
 _atom_site_label
 _atom_site_symmetry_multiplicity
 _atom_site_fract_x
 _atom_site_fract_y
 _atom_site_fract_z
 _atom_site_occupancy
  Ce  Ce0  1  0.00000000  0.00000000  0.00000000  1
  Ce  Ce1  1  0.13844160  0.13844160  0.13844160  1
  Ce  Ce2  1  0.86155840  0.86155840  0.86155840  1
  Ir  Ir0  1  0.50000000  0.50000000  0.50000000  1
  Ir  Ir1  1  0.33326127  0.33326127  0.33326127  1
  Ir  Ir2  1  0.66673873  0.66673873  0.66673873  1
  Ir  Ir3  1  0.08145977  0.58277880  0.58277880  1
  Ir  Ir4  1  0.58277880  0.58277880  0.08145977  1
  Ir  Ir5  1  0.58277880  0.08145977  0.58277880  1
  Ir  Ir6  1  0.41722120  0.91854023  0.41722120  1
  Ir  Ir7  1  0.91854023  0.41722120  0.41722120  1
  Ir  Ir8  1  0.41722120  0.41722120  0.91854023  1
loop_
_geom_bond_atom_site_label_1
_geom_bond_atom_site_label_2
_geom_bond_distance
_geom_bond_site_symmetry_2
Ce0 Ir1 3.058620 1_554
Ce0 Ir2 3.058620 1_445
Ce0 Ir2 3.058620 1_454
Ce0 Ir1 3.058620 1_545
Ce0 Ir2 3.058620 1_544
Ce0 Ir1 3.058620 1_455
Ce0 Ir5 3.429179 1_455
Ce0 Ir6 3.429179 1_544
Ce0 Ir3 3.429179 1_554
Ce0 Ir7 3.429179 1_445
Ce0 Ir4 3.429179 1_455
Ce0 Ir8 3.429179 1_544
Ce0 Ir3 3.429179 1_545
Ce0 Ir7 3.429179 1_454
Ce0 Ir5 3.429179 1_554
Ce0 Ir6 3.429179 1_445
Ce0 Ir4 3.429179 1_545
Ce0 Ir8 3.429179 1_454
Ce1 Ir5 3.036159 1_554
Ce1 Ir3 3.036159 1_545
Ce1 Ir4 3.036159 1_545
Ce1 Ir3 3.036159 1_554
Ce1 Ir5 3.036160 1_455
Ce1 Ir4 3.036160 1_455
Ce1 Ir0 3.148407 1_554
Ce1 Ir0 3.148407 1_455
Ce1 Ir0 3.148407 1_545
Ce1 Ir7 3.344946 1_455
Ce1 Ir8 3.344946 1_554
Ce1 Ir6 3.344946 1_545
Ce2 Ir6 3.036159 1_556
Ce2 Ir7 3.036159 1_565
Ce2 Ir8 3.036159 1_565
Ce2 Ir7 3.036159 1_556
Ce2 Ir6 3.036160 1_655
Ce2 Ir8 3.036160 1_655
Ce2 Ir0 3.148407 1_556
Ce2 Ir0 3.148407 1_655
Ce2 Ir0 3.148407 1_565
Ce2 Ir3 3.344946 1_655
Ce2 Ir4 3.344946 1_556
Ce2 Ir5 3.344946 1_565
Ir0 Ir6 2.706634 1_555
Ir0 Ir5 2.706634 1_555
Ir0 Ir8 2.706634 1_555
Ir0 Ir4 2.706634 1_555
Ir0 Ir7 2.706635 1_555
Ir0 Ir3 2.706635 1_555
Ir1 Ir6 2.657264 1_545
Ir1 Ir8 2.657264 1_554
Ir1 Ir7 2.657265 1_455
Ir1 Ir3 2.665021 1_555
Ir1 Ir4 2.665021 1_555
Ir1 Ir5 2.665021 1_555
Ir1 Ir2 3.058622 1_554
Ir1 Ir2 3.058622 1_545
Ir1 Ir2 3.058622 1_455
Ir2 Ir5 2.657264 1_565
Ir2 Ir4 2.657264 1_556
Ir2 Ir3 2.657265 1_655
Ir2 Ir7 2.665021 1_555
Ir2 Ir8 2.665021 1_555
Ir2 Ir6 2.665021 1_555
Ir3 Ir4 2.641854 1_456
Ir3 Ir5 2.641854 1_465
Ir3 Ir4 2.655830 1_555
Ir3 Ir5 2.655830 1_555
Ir4 Ir5 2.641854 1_564
Ir4 Ir5 2.655830 1_555
Ir6 Ir8 2.641854 1_564
Ir6 Ir7 2.641854 1_465
Ir6 Ir8 2.655830 1_555
Ir6 Ir7 2.655830 1_555
Ir7 Ir8 2.641854 1_654
Ir7 Ir8 2.655830 1_555
