# generated using pymatgen
data_Ba2HgBi3Pt2
_symmetry_space_group_name_H-M   'P 1'
_cell_length_a   10.05727636
_cell_length_b   10.05727578
_cell_length_c   5.00306083
_cell_angle_alpha   90.00000000
_cell_angle_beta   90.00000000
_cell_angle_gamma   151.22769205
_symmetry_Int_Tables_number   1
_chemical_formula_structural   Ba2HgBi3Pt2
_chemical_formula_sum   'Ba2 Hg1 Bi3 Pt2'
_cell_volume   243.57882595
_cell_formula_units_Z   1
loop_
 _symmetry_equiv_pos_site_id
 _symmetry_equiv_pos_as_xyz
  1  'x, y, z'
loop_
 _atom_site_type_symbol
 _atom_site_label
 _atom_site_symmetry_multiplicity
 _atom_site_fract_x
 _atom_site_fract_y
 _atom_site_fract_z
 _atom_site_occupancy
  Ba  Ba0  1  0.38870363  0.61129637  0.25000000  1
  Ba  Ba1  1  0.60980675  0.39019325  0.75000000  1
  Hg  Hg0  1  0.04613138  0.95386862  0.25000000  1
  Bi  Bi0  1  0.95712469  0.04287531  0.75000000  1
  Bi  Bi1  1  0.24865668  0.75134332  0.75000000  1
  Bi  Bi2  1  0.74961536  0.25038464  0.25000000  1
  Pt  Pt0  1  0.81479197  0.18520803  0.75000000  1
  Pt  Pt1  1  0.18516954  0.81483046  0.25000000  1
loop_
_geom_bond_atom_site_label_1
_geom_bond_atom_site_label_2
_geom_bond_distance
_geom_bond_site_symmetry_2
Ba0 Bi2 3.686175 1_565
Ba0 Bi2 3.686176 1_455
Ba0 Bi1 3.701782 1_554
Ba0 Bi1 3.701782 1_555
Ba0 Bi0 3.778725 1_454
Ba0 Bi0 3.778725 1_455
Ba0 Bi0 3.778726 1_564
Ba0 Bi0 3.778726 1_565
Ba0 Pt0 3.817779 1_565
Ba0 Pt0 3.817779 1_564
Ba0 Pt0 3.817779 1_455
Ba0 Pt0 3.817779 1_454
Ba0 Hg0 3.956291 1_545
Ba0 Hg0 3.956292 1_655
Ba0 Pt1 3.965622 1_555
Ba1 Bi1 3.682763 1_545
Ba1 Bi1 3.682763 1_655
Ba1 Bi2 3.698360 1_555
Ba1 Bi2 3.698360 1_556
Ba1 Hg0 3.747104 1_655
Ba1 Hg0 3.747104 1_656
Ba1 Hg0 3.747104 1_546
Ba1 Hg0 3.747104 1_545
Ba1 Pt1 3.828533 1_546
Ba1 Pt1 3.828533 1_545
Ba1 Pt1 3.828533 1_655
Ba1 Pt1 3.828533 1_656
Ba1 Bi0 3.885043 1_565
Ba1 Bi0 3.885044 1_455
Hg0 Pt1 2.708995 1_555
Bi0 Pt0 2.773186 1_555
Bi0 Hg0 3.043858 1_645
Bi0 Hg0 3.043858 1_646
Bi1 Pt1 2.790655 1_555
Bi1 Pt1 2.790655 1_556
Bi1 Pt0 2.811468 1_455
Bi1 Pt0 2.811468 1_565
Bi2 Pt1 2.796534 1_655
Bi2 Pt1 2.796535 1_545
Bi2 Pt0 2.805401 1_554
Bi2 Pt0 2.805401 1_555
