# generated using pymatgen
data_K6ScGaF12
_symmetry_space_group_name_H-M   'P 1'
_cell_length_a   6.32864753
_cell_length_b   6.06176865
_cell_length_c   10.54830018
_cell_angle_alpha   55.28338516
_cell_angle_beta   89.92211954
_cell_angle_gamma   89.79694283
_symmetry_Int_Tables_number   1
_chemical_formula_structural   K6ScGaF12
_chemical_formula_sum   'K6 Sc1 Ga1 F12'
_cell_volume   332.62168697
_cell_formula_units_Z   1
loop_
 _symmetry_equiv_pos_site_id
 _symmetry_equiv_pos_as_xyz
  1  'x, y, z'
loop_
 _atom_site_type_symbol
 _atom_site_label
 _atom_site_symmetry_multiplicity
 _atom_site_fract_x
 _atom_site_fract_y
 _atom_site_fract_z
 _atom_site_occupancy
  K  K0  1  0.50000000  0.50000000  0.00000000  1
  K  K1  1  0.00000000  0.50000000  0.50000000  1
  K  K2  1  0.05123899  0.72387505  0.76091398  1
  K  K3  1  0.94876101  0.27612495  0.23908602  1
  K  K4  1  0.55478384  0.26090657  0.75671241  1
  K  K5  1  0.44521616  0.73909343  0.24328759  1
  Sc  Sc0  1  0.50000000  0.00000000  0.50000000  1
  Ga  Ga0  1  0.00000000  0.00000000  0.00000000  1
  F  F0  1  0.76418969  0.76852573  0.56838132  1
  F  F1  1  0.23581031  0.23147427  0.43161868  1
  F  F2  1  0.24715970  0.22016354  0.94732902  1
  F  F3  1  0.75284030  0.77983646  0.05267098  1
  F  F4  1  0.45089166  0.88539923  0.71933183  1
  F  F5  1  0.54910834  0.11460077  0.28066817  1
  F  F6  1  0.96417300  0.12177314  0.79048602  1
  F  F7  1  0.03582700  0.87822686  0.20951398  1
  F  F8  1  0.32821214  0.68168129  0.54668339  1
  F  F9  1  0.67178786  0.31831871  0.45331661  1
  F  F10  1  0.82695282  0.29055261  0.96321235  1
  F  F11  1  0.17304718  0.70944739  0.03678765  1
loop_
_geom_bond_atom_site_label_1
_geom_bond_atom_site_label_2
_geom_bond_distance
_geom_bond_site_symmetry_2
F0 Sc0 2.029382 1_565
F0 K1 2.591170 1_655
F0 K2 2.622665 1_655
F0 K4 2.868825 1_555
F1 Sc0 2.029382 1_555
F1 K1 2.591170 1_555
F1 K3 2.622665 1_455
F1 K5 2.868825 1_555
F2 Ga0 1.924663 1_556
F2 K0 2.615665 1_556
F2 K4 2.705767 1_555
F2 K2 2.805008 1_555
F2 K5 3.071833 1_546
F3 Ga0 1.924663 1_665
F3 K0 2.615665 1_555
F3 K5 2.705767 1_555
F3 K3 2.805008 1_555
F3 K4 3.071833 1_564
F4 Sc0 2.025026 1_565
F4 K0 2.537447 1_556
F4 K4 2.608192 1_565
F4 K2 2.659623 1_555
F5 Sc0 2.025026 1_555
F5 K0 2.537447 1_555
F5 K5 2.608192 1_545
F5 K3 2.659623 1_555
F6 Ga0 1.903280 1_656
F6 K1 2.587805 1_655
F6 K2 2.658118 1_645
F6 K4 2.682475 1_555
F7 Ga0 1.903280 1_565
F7 K1 2.587805 1_555
F7 K3 2.658118 1_465
F7 K5 2.682475 1_555
F8 Sc0 2.019614 1_565
F8 K1 2.531125 1_555
F8 K4 2.648822 1_555
F8 K2 2.981426 1_555
F8 K5 3.104540 1_555
F9 Sc0 2.019614 1_555
F9 K1 2.531125 1_655
F9 K5 2.648822 1_555
F9 K3 2.981426 1_555
F9 K4 3.104540 1_555
F10 Ga0 1.913373 1_656
F10 K0 2.565999 1_556
F10 K2 2.664888 1_655
F10 K4 2.863929 1_555
F10 K3 2.964074 1_556
F11 Ga0 1.913373 1_565
F11 K0 2.565999 1_555
F11 K3 2.664888 1_455
F11 K5 2.863929 1_555
F11 K2 2.964074 1_554
