# generated using pymatgen
data_Ba2SrMnGa2F14
_symmetry_space_group_name_H-M   'P 1'
_cell_length_a   7.43188876
_cell_length_b   7.43188863
_cell_length_c   15.11306887
_cell_angle_alpha   87.89574226
_cell_angle_beta   87.89574127
_cell_angle_gamma   42.65405323
_symmetry_Int_Tables_number   1
_chemical_formula_structural   Ba2SrMnGa2F14
_chemical_formula_sum   'Ba4 Sr2 Mn2 Ga4 F28'
_cell_volume   565.15509041
_cell_formula_units_Z   2
loop_
 _symmetry_equiv_pos_site_id
 _symmetry_equiv_pos_as_xyz
  1  'x, y, z'
loop_
 _atom_site_type_symbol
 _atom_site_label
 _atom_site_symmetry_multiplicity
 _atom_site_fract_x
 _atom_site_fract_y
 _atom_site_fract_z
 _atom_site_occupancy
  Ba  Ba0  1  0.65653770  0.73276644  0.88304766  1
  Ba  Ba1  1  0.34346230  0.26723356  0.11695234  1
  Ba  Ba2  1  0.26723356  0.34346230  0.61695234  1
  Ba  Ba3  1  0.73276644  0.65653770  0.38304766  1
  Sr  Sr0  1  0.94186941  0.05813059  0.75000000  1
  Sr  Sr1  1  0.05813059  0.94186941  0.25000000  1
  Mn  Mn0  1  0.00000000  0.00000000  0.50000000  1
  Mn  Mn1  1  0.00000000  0.00000000  0.00000000  1
  Ga  Ga0  1  0.61465138  0.62588002  0.62162752  1
  Ga  Ga1  1  0.38534862  0.37411998  0.37837248  1
  Ga  Ga2  1  0.37411998  0.38534862  0.87837248  1
  Ga  Ga3  1  0.62588002  0.61465138  0.12162752  1
  F  F0  1  0.55134556  0.43217112  0.65790776  1
  F  F1  1  0.44865444  0.56782888  0.34209224  1
  F  F2  1  0.56782888  0.44865444  0.84209224  1
  F  F3  1  0.43217112  0.55134556  0.15790776  1
  F  F4  1  0.68021071  0.07846778  0.94456136  1
  F  F5  1  0.31978929  0.92153222  0.05543864  1
  F  F6  1  0.92153222  0.31978929  0.55543864  1
  F  F7  1  0.07846778  0.68021071  0.44456136  1
  F  F8  1  0.52875817  0.14433635  0.78056787  1
  F  F9  1  0.47124183  0.85566365  0.21943213  1
  F  F10  1  0.85566365  0.47124183  0.71943213  1
  F  F11  1  0.14433635  0.52875817  0.28056787  1
  F  F12  1  0.70694098  0.78936129  0.57622687  1
  F  F13  1  0.29305902  0.21063871  0.42377313  1
  F  F14  1  0.21063871  0.29305902  0.92377313  1
  F  F15  1  0.78936129  0.70694098  0.07622687  1
  F  F16  1  0.34452065  0.92387908  0.69185454  1
  F  F17  1  0.65547935  0.07612092  0.30814546  1
  F  F18  1  0.07612092  0.65547935  0.80814546  1
  F  F19  1  0.92387908  0.34452065  0.19185454  1
  F  F20  1  0.40852050  0.75685478  0.51796004  1
  F  F21  1  0.59147950  0.24314522  0.48203996  1
  F  F22  1  0.24314522  0.59147950  0.98203996  1
  F  F23  1  0.75685478  0.40852050  0.01796004  1
  F  F24  1  0.85092221  0.01173446  0.11800818  1
  F  F25  1  0.14907779  0.98826554  0.88199182  1
  F  F26  1  0.98826554  0.14907779  0.38199182  1
  F  F27  1  0.01173446  0.85092221  0.61800818  1
loop_
_geom_bond_atom_site_label_1
_geom_bond_atom_site_label_2
_geom_bond_distance
_geom_bond_site_symmetry_2
Ba0 F25 2.701440 1_555
Ba0 F2 2.729409 1_555
Ba0 F23 2.761928 1_556
Ba0 F10 2.817000 1_555
Ba0 F8 2.853767 1_565
Ba0 F14 2.874013 1_655
Ba0 F4 2.889355 1_565
Ba0 F14 2.905320 1_565
Ba0 F18 2.913600 1_655
Ba0 F15 3.070298 1_556
Ba0 F5 3.105576 1_556
Ba0 F16 3.330154 1_555
Ba1 F24 2.701440 1_555
Ba1 F3 2.729409 1_555
Ba1 F22 2.761928 1_554
Ba1 F11 2.817000 1_555
Ba1 F9 2.853767 1_545
Ba1 F15 2.874013 1_455
Ba1 F5 2.889355 1_545
Ba1 F15 2.905320 1_545
Ba1 F19 2.913600 1_455
Ba1 F14 3.070298 1_554
Ba1 F4 3.105576 1_554
Ba1 F17 3.330154 1_555
Ba2 F27 2.701440 1_555
Ba2 F0 2.729409 1_555
Ba2 F21 2.761928 1_555
Ba2 F8 2.817000 1_555
Ba2 F10 2.853767 1_455
Ba2 F12 2.874013 1_545
Ba2 F6 2.889355 1_455
Ba2 F12 2.905320 1_455
Ba2 F16 2.913600 1_545
Ba2 F13 3.070298 1_555
Ba2 F7 3.105576 1_555
Ba2 F18 3.330153 1_555
Ba3 F26 2.701440 1_555
Ba3 F1 2.729409 1_555
Ba3 F20 2.761928 1_555
Ba3 F9 2.817000 1_555
Ba3 F11 2.853767 1_655
Ba3 F13 2.874013 1_565
Ba3 F7 2.889355 1_655
Ba3 F13 2.905320 1_655
Ba3 F17 2.913600 1_565
Ba3 F12 3.070298 1_555
Ba3 F6 3.105576 1_555
Ba3 F19 3.330153 1_555
F0 Ga0 1.874532 1_555
F0 Sr0 2.496650 1_555
F1 Ga1 1.874532 1_555
F1 Sr1 2.496650 1_555
F2 Ga2 1.874532 1_555
F2 Sr0 2.496649 1_555
F3 Ga3 1.874532 1_555
F3 Sr1 2.496649 1_555
F4 Ga2 1.935262 1_555
F4 Mn1 2.182243 1_656
F5 Ga3 1.935262 1_555
F5 Mn1 2.182243 1_565
F6 Ga0 1.935262 1_555
F6 Mn0 2.182243 1_655
F7 Ga1 1.935262 1_555
F7 Mn0 2.182243 1_565
F8 Ga2 1.937971 1_555
F8 Sr0 2.659754 1_555
F9 Ga3 1.937971 1_555
F9 Sr1 2.659754 1_555
F10 Ga0 1.937971 1_555
F10 Sr0 2.659754 1_555
F11 Ga1 1.937971 1_555
F11 Sr1 2.659754 1_555
F12 Ga0 1.883449 1_555
F13 Ga1 1.883449 1_555
F14 Ga2 1.883449 1_555
F15 Ga3 1.883449 1_555
F16 Ga0 1.880930 1_555
F16 Sr0 2.490396 1_465
F17 Ga1 1.880930 1_555
F17 Sr1 2.490396 1_645
F18 Ga2 1.880930 1_555
F18 Sr0 2.490396 1_465
F19 Ga3 1.880930 1_555
F19 Sr1 2.490396 1_645
F20 Ga0 1.902592 1_555
F20 Mn0 2.124015 1_565
F21 Ga1 1.902592 1_555
F21 Mn0 2.124015 1_655
F22 Ga2 1.902592 1_555
F22 Mn1 2.124015 1_566
F23 Ga3 1.902592 1_555
F23 Mn1 2.124015 1_655
F24 Mn1 2.034713 1_655
F24 Sr1 2.365096 1_645
F25 Mn1 2.034713 1_566
F25 Sr0 2.365096 1_465
F26 Mn0 2.034713 1_655
F26 Sr1 2.365096 1_645
F27 Mn0 2.034713 1_565
F27 Sr0 2.365096 1_465
