# generated using pymatgen
data_Zr2Ga4NiRh
_symmetry_space_group_name_H-M   'P 1'
_cell_length_a   5.24613611
_cell_length_b   5.24613672
_cell_length_c   6.37042876
_cell_angle_alpha   90.00000000
_cell_angle_beta   90.00000000
_cell_angle_gamma   133.54051763
_symmetry_Int_Tables_number   1
_chemical_formula_structural   Zr2Ga4NiRh
_chemical_formula_sum   'Zr2 Ga4 Ni1 Rh1'
_cell_volume   127.09204812
_cell_formula_units_Z   1
loop_
 _symmetry_equiv_pos_site_id
 _symmetry_equiv_pos_as_xyz
  1  'x, y, z'
loop_
 _atom_site_type_symbol
 _atom_site_label
 _atom_site_symmetry_multiplicity
 _atom_site_fract_x
 _atom_site_fract_y
 _atom_site_fract_z
 _atom_site_occupancy
  Zr  Zr0  1  0.57996371  0.42003629  0.25000000  1
  Zr  Zr1  1  0.42356436  0.57643564  0.75000000  1
  Ga  Ga0  1  0.86734343  0.13265657  0.04285534  1
  Ga  Ga1  1  0.13109514  0.86890486  0.94512531  1
  Ga  Ga2  1  0.13109514  0.86890486  0.55487469  1
  Ga  Ga3  1  0.86734343  0.13265657  0.45714466  1
  Ni  Ni0  1  0.70355321  0.29644679  0.75000000  1
  Rh  Rh0  1  0.29604359  0.70395641  0.25000000  1
loop_
_geom_bond_atom_site_label_1
_geom_bond_atom_site_label_2
_geom_bond_distance
_geom_bond_site_symmetry_2
Ga0 Ni0 2.444264 1_554
Ga0 Rh0 2.548611 1_545
Ga0 Rh0 2.548611 1_655
Ga0 Ga1 2.618109 1_644
Ga0 Ga3 2.639201 1_555
Ga0 Zr1 2.838281 1_654
Ga0 Zr1 2.838281 1_544
Ga0 Zr0 3.069005 1_555
Ga0 Zr0 3.197717 1_655
Ga0 Zr0 3.197717 1_545
Ga1 Ga2 2.486064 1_555
Ga1 Rh0 2.510254 1_556
Ga1 Ni0 2.512903 1_565
Ga1 Ni0 2.512903 1_455
Ga1 Zr0 2.880382 1_456
Ga1 Zr0 2.880382 1_566
Ga1 Zr1 3.081707 1_555
Ga1 Zr1 3.135345 1_455
Ga1 Zr1 3.135346 1_565
Ga2 Rh0 2.510254 1_555
Ga2 Ni0 2.512903 1_565
Ga2 Ni0 2.512903 1_455
Ga2 Ga3 2.618109 1_465
Ga2 Zr0 2.880382 1_455
Ga2 Zr0 2.880382 1_565
Ga2 Zr1 3.081707 1_555
Ga2 Zr1 3.135345 1_455
Ga2 Zr1 3.135346 1_565
Ga3 Ni0 2.444264 1_555
Ga3 Rh0 2.548611 1_545
Ga3 Rh0 2.548611 1_655
Ga3 Zr1 2.838281 1_655
Ga3 Zr1 2.838281 1_545
Ga3 Zr0 3.069005 1_555
Ga3 Zr0 3.197717 1_655
Ga3 Zr0 3.197717 1_545
Ni0 Zr1 2.699561 1_555
Ni0 Zr1 2.963325 1_655
Ni0 Zr1 2.963326 1_545
Rh0 Zr0 2.737465 1_555
Rh0 Zr0 2.936311 1_455
Rh0 Zr0 2.936312 1_565
