# generated using pymatgen
data_CaY6RuI12
_symmetry_space_group_name_H-M   'P 1'
_cell_length_a   9.72188880
_cell_length_b   9.72188781
_cell_length_c   9.72188842
_cell_angle_alpha   106.95048909
_cell_angle_beta   106.95049798
_cell_angle_gamma   106.95049844
_symmetry_Int_Tables_number   1
_chemical_formula_structural   CaY6RuI12
_chemical_formula_sum   'Ca1 Y6 Ru1 I12'
_cell_volume   766.27093765
_cell_formula_units_Z   1
loop_
 _symmetry_equiv_pos_site_id
 _symmetry_equiv_pos_as_xyz
  1  'x, y, z'
loop_
 _atom_site_type_symbol
 _atom_site_label
 _atom_site_symmetry_multiplicity
 _atom_site_fract_x
 _atom_site_fract_y
 _atom_site_fract_z
 _atom_site_occupancy
  Ca  Ca0  1  0.50000000  0.50000000  0.50000000  1
  Y  Y0  1  0.70014522  0.97553572  0.90373454  1
  Y  Y1  1  0.97553572  0.90373454  0.70014522  1
  Y  Y2  1  0.09626546  0.29985478  0.02446428  1
  Y  Y3  1  0.29985478  0.02446428  0.09626546  1
  Y  Y4  1  0.90373454  0.70014522  0.97553572  1
  Y  Y5  1  0.02446428  0.09626546  0.29985478  1
  Ru  Ru0  1  0.00000000  0.00000000  0.00000000  1
  I  I0  1  0.07368197  0.22663328  0.67776406  1
  I  I1  1  0.38064867  0.14950724  0.45926264  1
  I  I2  1  0.61935133  0.85049276  0.54073736  1
  I  I3  1  0.22663328  0.67776406  0.07368197  1
  I  I4  1  0.77336672  0.32223594  0.92631803  1
  I  I5  1  0.67776406  0.07368197  0.22663328  1
  I  I6  1  0.54073736  0.61935133  0.85049276  1
  I  I7  1  0.85049276  0.54073736  0.61935133  1
  I  I8  1  0.92631803  0.77336672  0.32223594  1
  I  I9  1  0.32223594  0.92631803  0.77336672  1
  I  I10  1  0.45926264  0.38064867  0.14950724  1
  I  I11  1  0.14950724  0.45926264  0.38064867  1
loop_
_geom_bond_atom_site_label_1
_geom_bond_atom_site_label_2
_geom_bond_distance
_geom_bond_site_symmetry_2
Ca0 I2 3.123091 1_555
Ca0 I1 3.123091 1_555
Ca0 I7 3.123092 1_555
Ca0 I11 3.123092 1_555
Ca0 I6 3.123092 1_555
Ca0 I10 3.123092 1_555
Ru0 Y2 2.702904 1_555
Ru0 Y4 2.702904 1_444
Ru0 Y3 2.702904 1_555
Ru0 Y0 2.702904 1_444
Ru0 Y5 2.702904 1_555
Ru0 Y1 2.702904 1_444
I0 Y1 3.095975 1_445
I0 Y2 3.161341 1_556
I0 Y5 3.352566 1_555
I1 Y3 3.142322 1_555
I1 Y5 3.165208 1_555
I2 Y0 3.142322 1_555
I2 Y1 3.165208 1_555
I3 Y4 3.095976 1_454
I3 Y3 3.161341 1_565
I3 Y2 3.352566 1_555
I4 Y2 3.095976 1_656
I4 Y0 3.161341 1_545
I4 Y4 3.352566 1_555
I5 Y0 3.095976 1_544
I5 Y5 3.161341 1_655
I5 Y3 3.352566 1_555
I6 Y4 3.142322 1_555
I6 Y0 3.165208 1_555
I7 Y1 3.142322 1_555
I7 Y4 3.165208 1_555
I8 Y5 3.095975 1_665
I8 Y4 3.161341 1_554
I8 Y1 3.352566 1_555
I9 Y3 3.095976 1_566
I9 Y1 3.161341 1_455
I9 Y0 3.352566 1_555
I10 Y2 3.142322 1_555
I10 Y3 3.165208 1_555
I11 Y5 3.142322 1_555
I11 Y2 3.165208 1_555
