# generated using pymatgen
data_Ti3Zn3Pt2Au
_symmetry_space_group_name_H-M   'P 1'
_cell_length_a   14.84061434
_cell_length_b   14.84061463
_cell_length_c   5.81141718
_cell_angle_alpha   90.00000000
_cell_angle_beta   90.00000000
_cell_angle_gamma   120.00000367
_symmetry_Int_Tables_number   1
_chemical_formula_structural   Ti3Zn3Pt2Au
_chemical_formula_sum   'Ti24 Zn24 Pt16 Au8'
_cell_volume   1108.45083849
_cell_formula_units_Z   8
loop_
 _symmetry_equiv_pos_site_id
 _symmetry_equiv_pos_as_xyz
  1  'x, y, z'
loop_
 _atom_site_type_symbol
 _atom_site_label
 _atom_site_symmetry_multiplicity
 _atom_site_fract_x
 _atom_site_fract_y
 _atom_site_fract_z
 _atom_site_occupancy
  Ti  Ti0_0  1  0.19118740  0.00000000  0.00000000  1
  Ti  Ti0_1  1  0.19118740  0.00000000  0.50000000  1
  Ti  Ti0_2  1  0.19118740  0.50000000  0.00000000  1
  Ti  Ti0_3  1  0.19118740  0.50000000  0.50000000  1
  Ti  Ti0_4  1  0.69118740  0.00000000  0.00000000  1
  Ti  Ti0_5  1  0.69118740  0.00000000  0.50000000  1
  Ti  Ti0_6  1  0.69118740  0.50000000  0.00000000  1
  Ti  Ti0_7  1  0.69118740  0.50000000  0.50000000  1
  Ti  Ti1_0  1  0.00000000  0.19118740  0.00000000  1
  Ti  Ti1_1  1  0.00000000  0.19118740  0.50000000  1
  Ti  Ti1_2  1  0.00000000  0.69118740  0.00000000  1
  Ti  Ti1_3  1  0.00000000  0.69118740  0.50000000  1
  Ti  Ti1_4  1  0.50000000  0.19118740  0.00000000  1
  Ti  Ti1_5  1  0.50000000  0.19118740  0.50000000  1
  Ti  Ti1_6  1  0.50000000  0.69118740  0.00000000  1
  Ti  Ti1_7  1  0.50000000  0.69118740  0.50000000  1
  Ti  Ti2_0  1  0.30881260  0.30881260  0.00000000  1
  Ti  Ti2_1  1  0.30881260  0.30881260  0.50000000  1
  Ti  Ti2_2  1  0.30881260  0.80881260  0.00000000  1
  Ti  Ti2_3  1  0.30881260  0.80881260  0.50000000  1
  Ti  Ti2_4  1  0.80881260  0.30881260  0.00000000  1
  Ti  Ti2_5  1  0.80881260  0.30881260  0.50000000  1
  Ti  Ti2_6  1  0.80881260  0.80881260  0.00000000  1
  Ti  Ti2_7  1  0.80881260  0.80881260  0.50000000  1
  Zn  Zn0_0  1  0.35292101  0.00000000  0.25000000  1
  Zn  Zn0_1  1  0.35292101  0.00000000  0.75000000  1
  Zn  Zn0_2  1  0.35292101  0.50000000  0.25000000  1
  Zn  Zn0_3  1  0.35292101  0.50000000  0.75000000  1
  Zn  Zn0_4  1  0.85292101  0.00000000  0.25000000  1
  Zn  Zn0_5  1  0.85292101  0.00000000  0.75000000  1
  Zn  Zn0_6  1  0.85292101  0.50000000  0.25000000  1
  Zn  Zn0_7  1  0.85292101  0.50000000  0.75000000  1
  Zn  Zn1_0  1  0.14707899  0.14707899  0.25000000  1
  Zn  Zn1_1  1  0.14707899  0.14707899  0.75000000  1
  Zn  Zn1_2  1  0.14707899  0.64707899  0.25000000  1
  Zn  Zn1_3  1  0.14707899  0.64707899  0.75000000  1
  Zn  Zn1_4  1  0.64707899  0.14707899  0.25000000  1
  Zn  Zn1_5  1  0.64707899  0.14707899  0.75000000  1
  Zn  Zn1_6  1  0.64707899  0.64707899  0.25000000  1
  Zn  Zn1_7  1  0.64707899  0.64707899  0.75000000  1
  Zn  Zn2_0  1  0.00000000  0.35292051  0.25000000  1
  Zn  Zn2_1  1  0.00000000  0.35292051  0.75000000  1
  Zn  Zn2_2  1  0.00000000  0.85292051  0.25000000  1
  Zn  Zn2_3  1  0.00000000  0.85292051  0.75000000  1
  Zn  Zn2_4  1  0.50000000  0.35292051  0.25000000  1
  Zn  Zn2_5  1  0.50000000  0.35292051  0.75000000  1
  Zn  Zn2_6  1  0.50000000  0.85292051  0.25000000  1
  Zn  Zn2_7  1  0.50000000  0.85292051  0.75000000  1
  Pt  Pt0_0  1  0.33333300  0.16666650  0.25000000  1
  Pt  Pt0_1  1  0.33333300  0.16666650  0.75000000  1
  Pt  Pt0_2  1  0.33333300  0.66666650  0.25000000  1
  Pt  Pt0_3  1  0.33333300  0.66666650  0.75000000  1
  Pt  Pt0_4  1  0.83333300  0.16666650  0.25000000  1
  Pt  Pt0_5  1  0.83333300  0.16666650  0.75000000  1
  Pt  Pt0_6  1  0.83333300  0.66666650  0.25000000  1
  Pt  Pt0_7  1  0.83333300  0.66666650  0.75000000  1
  Pt  Pt1_0  1  0.16666650  0.33333300  0.25000000  1
  Pt  Pt1_1  1  0.16666650  0.33333300  0.75000000  1
  Pt  Pt1_2  1  0.16666650  0.83333300  0.25000000  1
  Pt  Pt1_3  1  0.16666650  0.83333300  0.75000000  1
  Pt  Pt1_4  1  0.66666650  0.33333300  0.25000000  1
  Pt  Pt1_5  1  0.66666650  0.33333300  0.75000000  1
  Pt  Pt1_6  1  0.66666650  0.83333300  0.25000000  1
  Pt  Pt1_7  1  0.66666650  0.83333300  0.75000000  1
  Au  Au0_0  1  0.00000000  0.00000000  0.00000000  1
  Au  Au0_1  1  0.00000000  0.00000000  0.50000000  1
  Au  Au0_2  1  0.00000000  0.50000000  0.00000000  1
  Au  Au0_3  1  0.00000000  0.50000000  0.50000000  1
  Au  Au0_4  1  0.50000000  0.00000000  0.00000000  1
  Au  Au0_5  1  0.50000000  0.00000000  0.50000000  1
  Au  Au0_6  1  0.50000000  0.50000000  0.00000000  1
  Au  Au0_7  1  0.50000000  0.50000000  0.50000000  1
loop_
_geom_bond_atom_site_label_1
_geom_bond_atom_site_label_2
_geom_bond_distance
_geom_bond_site_symmetry_2
Ti0_0 Zn0_0 2.805686 1_555
Ti0_0 Zn0_1 2.805686 1_554
Ti0_0 Ti0_1 2.905709 1_554
Ti0_0 Ti0_1 2.905709 1_555
Ti0_0 Zn1_0 2.955074 1_555
Ti0_0 Zn1_1 2.955074 1_554
Ti0_0 Zn2_2 2.955076 1_545
Ti0_0 Zn2_3 2.955076 1_544
Ti0_1 Zn0_0 2.805686 1_555
Ti0_1 Zn0_1 2.805686 1_555
Ti0_1 Zn1_0 2.955074 1_555
Ti0_1 Zn1_1 2.955074 1_555
Ti0_1 Zn2_2 2.955076 1_545
Ti0_1 Zn2_3 2.955076 1_545
Ti0_2 Zn0_2 2.805686 1_555
Ti0_2 Zn0_3 2.805686 1_554
Ti0_2 Ti0_3 2.905709 1_555
Ti0_2 Ti0_3 2.905709 1_554
Ti0_2 Zn1_3 2.955074 1_554
Ti0_2 Zn1_2 2.955074 1_555
Ti0_2 Zn2_0 2.955076 1_555
Ti0_2 Zn2_1 2.955076 1_554
Ti0_3 Zn0_2 2.805686 1_555
Ti0_3 Zn0_3 2.805686 1_555
Ti0_3 Zn1_3 2.955074 1_555
Ti0_3 Zn1_2 2.955074 1_555
Ti0_3 Zn2_0 2.955076 1_555
Ti0_3 Zn2_1 2.955076 1_555
Ti0_4 Zn0_5 2.805686 1_554
Ti0_4 Zn0_4 2.805686 1_555
Ti0_4 Ti0_5 2.905709 1_555
Ti0_4 Ti0_5 2.905709 1_554
Ti0_4 Zn1_5 2.955074 1_554
Ti0_4 Zn1_4 2.955074 1_555
Ti0_4 Zn2_6 2.955076 1_545
Ti0_4 Zn2_7 2.955076 1_544
Ti0_5 Zn0_4 2.805686 1_555
Ti0_5 Zn0_5 2.805686 1_555
Ti0_5 Zn1_4 2.955074 1_555
Ti0_5 Zn1_5 2.955074 1_555
Ti0_5 Zn2_7 2.955076 1_545
Ti0_5 Zn2_6 2.955076 1_545
Ti0_6 Zn0_6 2.805686 1_555
Ti0_6 Zn0_7 2.805686 1_554
Ti0_6 Ti0_7 2.905709 1_554
Ti0_6 Ti0_7 2.905709 1_555
Ti0_6 Zn1_6 2.955074 1_555
Ti0_6 Zn1_7 2.955074 1_554
Ti0_6 Zn2_4 2.955076 1_555
Ti0_6 Zn2_5 2.955076 1_554
Ti0_7 Zn0_6 2.805686 1_555
Ti0_7 Zn0_7 2.805686 1_555
Ti0_7 Zn1_6 2.955074 1_555
Ti0_7 Zn1_7 2.955074 1_555
Ti0_7 Zn2_4 2.955076 1_555
Ti0_7 Zn2_5 2.955076 1_555
Ti1_0 Zn2_0 2.805679 1_555
Ti1_0 Zn2_1 2.805679 1_554
Ti1_0 Ti1_1 2.905709 1_554
Ti1_0 Ti1_1 2.905709 1_555
Ti1_0 Zn0_4 2.955074 1_455
Ti1_0 Zn0_5 2.955074 1_454
Ti1_0 Zn1_0 2.955074 1_555
Ti1_0 Zn1_1 2.955074 1_554
Ti1_1 Zn2_1 2.805679 1_555
Ti1_1 Zn2_0 2.805679 1_555
Ti1_1 Zn0_4 2.955074 1_455
Ti1_1 Zn0_5 2.955074 1_455
Ti1_1 Zn1_0 2.955074 1_555
Ti1_1 Zn1_1 2.955074 1_555
Ti1_2 Zn2_3 2.805679 1_554
Ti1_2 Zn2_2 2.805679 1_555
Ti1_2 Ti1_3 2.905709 1_554
Ti1_2 Ti1_3 2.905709 1_555
Ti1_2 Zn0_7 2.955074 1_454
Ti1_2 Zn0_6 2.955074 1_455
Ti1_2 Zn1_3 2.955074 1_554
Ti1_2 Zn1_2 2.955074 1_555
Ti1_3 Zn2_3 2.805679 1_555
Ti1_3 Zn2_2 2.805679 1_555
Ti1_3 Zn0_6 2.955074 1_455
Ti1_3 Zn0_7 2.955074 1_455
Ti1_3 Zn1_3 2.955074 1_555
Ti1_3 Zn1_2 2.955074 1_555
Ti1_4 Zn2_4 2.805679 1_555
Ti1_4 Zn2_5 2.805679 1_554
Ti1_4 Ti1_5 2.905709 1_554
Ti1_4 Ti1_5 2.905709 1_555
Ti1_4 Zn0_1 2.955074 1_554
Ti1_4 Zn0_0 2.955074 1_555
Ti1_4 Zn1_4 2.955074 1_555
Ti1_4 Zn1_5 2.955074 1_554
Ti1_5 Zn2_4 2.805679 1_555
Ti1_5 Zn2_5 2.805679 1_555
Ti1_5 Zn0_1 2.955074 1_555
Ti1_5 Zn0_0 2.955074 1_555
Ti1_5 Zn1_5 2.955074 1_555
Ti1_5 Zn1_4 2.955074 1_555
Ti1_6 Zn2_7 2.805679 1_554
Ti1_6 Zn2_6 2.805679 1_555
Ti1_6 Ti1_7 2.905709 1_555
Ti1_6 Ti1_7 2.905709 1_554
Ti1_6 Zn0_2 2.955074 1_555
Ti1_6 Zn0_3 2.955074 1_554
Ti1_6 Zn1_6 2.955074 1_555
Ti1_6 Zn1_7 2.955074 1_554
Ti1_7 Zn2_7 2.805679 1_555
Ti1_7 Zn2_6 2.805679 1_555
Ti1_7 Zn0_3 2.955074 1_555
Ti1_7 Zn0_2 2.955074 1_555
Ti1_7 Zn1_7 2.955074 1_555
Ti1_7 Zn1_6 2.955074 1_555
Ti2_0 Zn1_1 2.805685 1_554
Ti2_0 Zn1_0 2.805685 1_555
Ti2_0 Ti2_1 2.905709 1_554
Ti2_0 Ti2_1 2.905709 1_555
Ti2_0 Zn0_3 2.955074 1_554
Ti2_0 Zn0_2 2.955074 1_555
Ti2_0 Zn2_5 2.955076 1_554
Ti2_0 Zn2_4 2.955076 1_555
Ti2_1 Zn1_1 2.805685 1_555
Ti2_1 Zn1_0 2.805685 1_555
Ti2_1 Zn0_3 2.955074 1_555
Ti2_1 Zn0_2 2.955074 1_555
Ti2_1 Zn2_5 2.955076 1_555
Ti2_1 Zn2_4 2.955076 1_555
Ti2_2 Zn1_2 2.805685 1_555
Ti2_2 Zn1_3 2.805685 1_554
Ti2_2 Ti2_3 2.905709 1_555
Ti2_2 Ti2_3 2.905709 1_554
Ti2_2 Zn0_0 2.955074 1_565
Ti2_2 Zn0_1 2.955074 1_564
Ti2_2 Zn2_6 2.955076 1_555
Ti2_2 Zn2_7 2.955076 1_554
Ti2_3 Zn1_2 2.805685 1_555
Ti2_3 Zn1_3 2.805685 1_555
Ti2_3 Zn0_0 2.955074 1_565
Ti2_3 Zn0_1 2.955074 1_565
Ti2_3 Zn2_7 2.955076 1_555
Ti2_3 Zn2_6 2.955076 1_555
Ti2_4 Zn1_4 2.805685 1_555
Ti2_4 Zn1_5 2.805685 1_554
Ti2_4 Ti2_5 2.905709 1_555
Ti2_4 Ti2_5 2.905709 1_554
Ti2_4 Zn0_6 2.955074 1_555
Ti2_4 Zn0_7 2.955074 1_554
Ti2_4 Zn2_1 2.955076 1_654
Ti2_4 Zn2_0 2.955076 1_655
Ti2_5 Zn1_4 2.805685 1_555
Ti2_5 Zn1_5 2.805685 1_555
Ti2_5 Zn0_6 2.955074 1_555
Ti2_5 Zn0_7 2.955074 1_555
Ti2_5 Zn2_1 2.955076 1_655
Ti2_5 Zn2_0 2.955076 1_655
Ti2_6 Zn1_7 2.805685 1_554
Ti2_6 Zn1_6 2.805685 1_555
Ti2_6 Ti2_7 2.905709 1_554
Ti2_6 Ti2_7 2.905709 1_555
Ti2_6 Zn0_4 2.955074 1_565
Ti2_6 Zn0_5 2.955074 1_564
Ti2_6 Zn2_3 2.955076 1_654
Ti2_6 Zn2_2 2.955076 1_655
Ti2_7 Zn1_6 2.805685 1_555
Ti2_7 Zn1_7 2.805685 1_555
Ti2_7 Zn0_5 2.955074 1_565
Ti2_7 Zn0_4 2.955074 1_565
Ti2_7 Zn2_3 2.955076 1_655
Ti2_7 Zn2_2 2.955076 1_655
Pt0_0 Zn1_0 2.630851 1_555
Pt0_0 Zn2_4 2.630854 1_555
Pt0_0 Zn0_0 2.630855 1_555
Pt0_0 Ti0_1 2.731481 1_555
Pt0_0 Ti0_0 2.731481 1_555
Pt0_0 Ti2_0 2.731484 1_555
Pt0_0 Ti2_1 2.731484 1_555
Pt0_0 Ti1_5 2.731487 1_555
Pt0_0 Ti1_4 2.731487 1_555
Pt0_1 Zn1_1 2.630851 1_555
Pt0_1 Zn2_5 2.630854 1_555
Pt0_1 Zn0_1 2.630855 1_555
Pt0_1 Ti0_1 2.731481 1_555
Pt0_1 Ti0_0 2.731481 1_556
Pt0_1 Ti2_0 2.731484 1_556
Pt0_1 Ti2_1 2.731484 1_555
Pt0_1 Ti1_5 2.731487 1_555
Pt0_1 Ti1_4 2.731487 1_556
Pt0_2 Zn1_2 2.630851 1_555
Pt0_2 Zn2_6 2.630854 1_555
Pt0_2 Zn0_2 2.630855 1_555
Pt0_2 Ti0_3 2.731481 1_555
Pt0_2 Ti0_2 2.731481 1_555
Pt0_2 Ti2_2 2.731484 1_555
Pt0_2 Ti2_3 2.731484 1_555
Pt0_2 Ti1_6 2.731487 1_555
Pt0_2 Ti1_7 2.731487 1_555
Pt0_3 Zn1_3 2.630851 1_555
Pt0_3 Zn2_7 2.630854 1_555
Pt0_3 Zn0_3 2.630855 1_555
Pt0_3 Ti0_3 2.731481 1_555
Pt0_3 Ti0_2 2.731481 1_556
Pt0_3 Ti2_2 2.731484 1_556
Pt0_3 Ti2_3 2.731484 1_555
Pt0_3 Ti1_6 2.731487 1_556
Pt0_3 Ti1_7 2.731487 1_555
Pt0_4 Zn1_4 2.630851 1_555
Pt0_4 Zn2_0 2.630854 1_655
Pt0_4 Zn0_4 2.630855 1_555
Pt0_4 Ti0_5 2.731481 1_555
Pt0_4 Ti0_4 2.731481 1_555
Pt0_4 Ti2_4 2.731484 1_555
Pt0_4 Ti2_5 2.731484 1_555
Pt0_4 Ti1_0 2.731487 1_655
Pt0_4 Ti1_1 2.731487 1_655
Pt0_5 Zn1_5 2.630851 1_555
Pt0_5 Zn2_1 2.630854 1_655
Pt0_5 Zn0_5 2.630855 1_555
Pt0_5 Ti0_5 2.731481 1_555
Pt0_5 Ti0_4 2.731481 1_556
Pt0_5 Ti2_4 2.731484 1_556
Pt0_5 Ti2_5 2.731484 1_555
Pt0_5 Ti1_0 2.731487 1_656
Pt0_5 Ti1_1 2.731487 1_655
Pt0_6 Zn1_6 2.630851 1_555
Pt0_6 Zn2_2 2.630854 1_655
Pt0_6 Zn0_6 2.630855 1_555
Pt0_6 Ti0_7 2.731481 1_555
Pt0_6 Ti0_6 2.731481 1_555
Pt0_6 Ti2_7 2.731484 1_555
Pt0_6 Ti2_6 2.731484 1_555
Pt0_6 Ti1_2 2.731487 1_655
Pt0_6 Ti1_3 2.731487 1_655
Pt0_7 Zn1_7 2.630851 1_555
Pt0_7 Zn2_3 2.630854 1_655
Pt0_7 Zn0_7 2.630855 1_555
Pt0_7 Ti0_7 2.731481 1_555
Pt0_7 Ti0_6 2.731481 1_556
Pt0_7 Ti2_6 2.731484 1_556
Pt0_7 Ti2_7 2.731484 1_555
Pt0_7 Ti1_2 2.731487 1_656
Pt0_7 Ti1_3 2.731487 1_655
Pt1_0 Zn2_0 2.630851 1_555
Pt1_0 Zn1_0 2.630851 1_555
Pt1_0 Zn0_2 2.630858 1_555
Pt1_0 Ti1_0 2.731481 1_555
Pt1_0 Ti1_1 2.731481 1_555
Pt1_0 Ti2_0 2.731484 1_555
Pt1_0 Ti2_1 2.731484 1_555
Pt1_0 Ti0_2 2.731487 1_555
Pt1_0 Ti0_3 2.731487 1_555
Pt1_1 Zn2_1 2.630851 1_555
Pt1_1 Zn1_1 2.630851 1_555
Pt1_1 Zn0_3 2.630858 1_555
Pt1_1 Ti1_0 2.731481 1_556
Pt1_1 Ti1_1 2.731481 1_555
Pt1_1 Ti2_0 2.731484 1_556
Pt1_1 Ti2_1 2.731484 1_555
Pt1_1 Ti0_2 2.731487 1_556
Pt1_1 Ti0_3 2.731487 1_555
Pt1_2 Zn2_2 2.630851 1_555
Pt1_2 Zn1_2 2.630851 1_555
Pt1_2 Zn0_0 2.630858 1_565
Pt1_2 Ti1_2 2.731481 1_555
Pt1_2 Ti1_3 2.731481 1_555
Pt1_2 Ti2_2 2.731484 1_555
Pt1_2 Ti2_3 2.731484 1_555
Pt1_2 Ti0_0 2.731487 1_565
Pt1_2 Ti0_1 2.731487 1_565
Pt1_3 Zn2_3 2.630851 1_555
Pt1_3 Zn1_3 2.630851 1_555
Pt1_3 Zn0_1 2.630858 1_565
Pt1_3 Ti1_2 2.731481 1_556
Pt1_3 Ti1_3 2.731481 1_555
Pt1_3 Ti2_2 2.731484 1_556
Pt1_3 Ti2_3 2.731484 1_555
Pt1_3 Ti0_0 2.731487 1_566
Pt1_3 Ti0_1 2.731487 1_565
Pt1_4 Zn2_4 2.630851 1_555
Pt1_4 Zn1_4 2.630851 1_555
Pt1_4 Zn0_6 2.630858 1_555
Pt1_4 Ti1_5 2.731481 1_555
Pt1_4 Ti1_4 2.731481 1_555
Pt1_4 Ti2_5 2.731484 1_555
Pt1_4 Ti2_4 2.731484 1_555
Pt1_4 Ti0_7 2.731487 1_555
Pt1_4 Ti0_6 2.731487 1_555
Pt1_5 Zn2_5 2.630851 1_555
Pt1_5 Zn1_5 2.630851 1_555
Pt1_5 Zn0_7 2.630858 1_555
Pt1_5 Ti1_4 2.731481 1_556
Pt1_5 Ti1_5 2.731481 1_555
Pt1_5 Ti2_5 2.731484 1_555
Pt1_5 Ti2_4 2.731484 1_556
Pt1_5 Ti0_7 2.731487 1_555
Pt1_5 Ti0_6 2.731487 1_556
Pt1_6 Zn2_6 2.630851 1_555
Pt1_6 Zn1_6 2.630851 1_555
Pt1_6 Zn0_4 2.630858 1_565
Pt1_6 Ti1_6 2.731481 1_555
Pt1_6 Ti1_7 2.731481 1_555
Pt1_6 Ti2_6 2.731484 1_555
Pt1_6 Ti2_7 2.731484 1_555
Pt1_6 Ti0_4 2.731487 1_565
Pt1_6 Ti0_5 2.731487 1_565
Pt1_7 Zn2_7 2.630851 1_555
Pt1_7 Zn1_7 2.630851 1_555
Pt1_7 Zn0_5 2.630858 1_565
Pt1_7 Ti1_6 2.731481 1_556
Pt1_7 Ti1_7 2.731481 1_555
Pt1_7 Ti2_6 2.731484 1_556
Pt1_7 Ti2_7 2.731484 1_555
Pt1_7 Ti0_4 2.731487 1_566
Pt1_7 Ti0_5 2.731487 1_565
Au0_0 Zn1_0 2.622051 1_555
Au0_0 Zn1_1 2.622051 1_554
Au0_0 Zn0_4 2.622051 1_455
Au0_0 Zn0_5 2.622051 1_454
Au0_0 Zn2_2 2.622057 1_545
Au0_0 Zn2_3 2.622057 1_544
Au0_0 Ti2_6 2.837338 1_445
Au0_0 Ti0_0 2.837338 1_555
Au0_0 Ti1_0 2.837339 1_555
Au0_1 Zn1_0 2.622051 1_555
Au0_1 Zn1_1 2.622051 1_555
Au0_1 Zn0_4 2.622051 1_455
Au0_1 Zn0_5 2.622051 1_455
Au0_1 Zn2_2 2.622057 1_545
Au0_1 Zn2_3 2.622057 1_545
Au0_1 Ti2_7 2.837338 1_445
Au0_1 Ti0_1 2.837338 1_555
Au0_1 Ti1_1 2.837339 1_555
Au0_2 Zn1_2 2.622051 1_555
Au0_2 Zn1_3 2.622051 1_554
Au0_2 Zn0_6 2.622051 1_455
Au0_2 Zn0_7 2.622051 1_454
Au0_2 Zn2_1 2.622057 1_554
Au0_2 Zn2_0 2.622057 1_555
Au0_2 Ti2_4 2.837338 1_455
Au0_2 Ti0_2 2.837338 1_555
Au0_2 Ti1_2 2.837339 1_555
Au0_3 Zn1_2 2.622051 1_555
Au0_3 Zn1_3 2.622051 1_555
Au0_3 Zn0_6 2.622051 1_455
Au0_3 Zn0_7 2.622051 1_455
Au0_3 Zn2_1 2.622057 1_555
Au0_3 Zn2_0 2.622057 1_555
Au0_3 Ti2_5 2.837338 1_455
Au0_3 Ti0_3 2.837338 1_555
Au0_3 Ti1_3 2.837339 1_555
Au0_4 Zn1_4 2.622051 1_555
Au0_4 Zn1_5 2.622051 1_554
Au0_4 Zn0_1 2.622051 1_554
Au0_4 Zn0_0 2.622051 1_555
Au0_4 Zn2_6 2.622057 1_545
Au0_4 Zn2_7 2.622057 1_544
Au0_4 Ti2_2 2.837338 1_545
Au0_4 Ti0_4 2.837338 1_555
Au0_4 Ti1_4 2.837339 1_555
Au0_5 Zn1_4 2.622051 1_555
Au0_5 Zn1_5 2.622051 1_555
Au0_5 Zn0_1 2.622051 1_555
Au0_5 Zn0_0 2.622051 1_555
Au0_5 Zn2_7 2.622057 1_545
Au0_5 Zn2_6 2.622057 1_545
Au0_5 Ti2_3 2.837338 1_545
Au0_5 Ti0_5 2.837338 1_555
Au0_5 Ti1_5 2.837339 1_555
Au0_6 Zn1_7 2.622051 1_554
Au0_6 Zn1_6 2.622051 1_555
Au0_6 Zn0_3 2.622051 1_554
Au0_6 Zn0_2 2.622051 1_555
Au0_6 Zn2_5 2.622057 1_554
Au0_6 Zn2_4 2.622057 1_555
Au0_6 Ti2_0 2.837338 1_555
Au0_6 Ti0_6 2.837338 1_555
Au0_6 Ti1_6 2.837339 1_555
Au0_7 Zn1_7 2.622051 1_555
Au0_7 Zn1_6 2.622051 1_555
Au0_7 Zn0_2 2.622051 1_555
Au0_7 Zn0_3 2.622051 1_555
Au0_7 Zn2_5 2.622057 1_555
Au0_7 Zn2_4 2.622057 1_555
Au0_7 Ti2_1 2.837338 1_555
Au0_7 Ti0_7 2.837338 1_555
Au0_7 Ti1_7 2.837339 1_555
