# generated using pymatgen
data_HoNiSn
_symmetry_space_group_name_H-M   'P 1'
_cell_length_a   4.41781827
_cell_length_b   7.06425538
_cell_length_c   7.64254649
_cell_angle_alpha   90.00000000
_cell_angle_beta   90.00000000
_cell_angle_gamma   90.00000000
_symmetry_Int_Tables_number   1
_chemical_formula_structural   HoNiSn
_chemical_formula_sum   'Ho4 Ni4 Sn4'
_cell_volume   238.51314950
_cell_formula_units_Z   4
loop_
 _symmetry_equiv_pos_site_id
 _symmetry_equiv_pos_as_xyz
  1  'x, y, z'
loop_
 _atom_site_type_symbol
 _atom_site_label
 _atom_site_symmetry_multiplicity
 _atom_site_fract_x
 _atom_site_fract_y
 _atom_site_fract_z
 _atom_site_occupancy
  Ho  Ho0  1  0.25000000  0.48684846  0.79924938  1
  Ho  Ho1  1  0.75000000  0.51315154  0.20074962  1
  Ho  Ho2  1  0.25000000  0.98684846  0.70075062  1
  Ho  Ho3  1  0.75000000  0.01315154  0.29925038  1
  Ni  Ni0  1  0.75000000  0.29623027  0.58742119  1
  Ni  Ni1  1  0.25000000  0.20376973  0.08742119  1
  Ni  Ni2  1  0.75000000  0.79623027  0.91257881  1
  Ni  Ni3  1  0.25000000  0.70376973  0.41257881  1
  Sn  Sn0  1  0.25000000  0.31235000  0.41492186  1
  Sn  Sn1  1  0.75000000  0.18765000  0.91492186  1
  Sn  Sn2  1  0.25000000  0.81235000  0.08507814  1
  Sn  Sn3  1  0.75000000  0.68765000  0.58507814  1
loop_
_geom_bond_atom_site_label_1
_geom_bond_atom_site_label_2
_geom_bond_distance
_geom_bond_site_symmetry_2
Ho0 Ni1 2.974791 1_556
Ho0 Ni0 3.051787 1_455
Ho0 Ni0 3.051787 1_555
Ho0 Sn3 3.093642 1_455
Ho0 Sn3 3.093642 1_555
Ho0 Sn2 3.171628 1_556
Ho0 Sn1 3.182477 1_555
Ho0 Sn1 3.182477 1_455
Ho0 Sn0 3.185426 1_555
Ho0 Ni2 3.225847 1_455
Ho0 Ni2 3.225847 1_555
Ho0 Ni3 3.328830 1_555
Ho0 Ho2 3.611455 1_545
Ho0 Ho2 3.611455 1_555
Ho0 Ho1 3.785420 1_556
Ho0 Ho1 3.785420 1_456
Ho1 Ni2 2.974785 1_554
Ho1 Ni3 3.051791 1_655
Ho1 Ni3 3.051791 1_555
Ho1 Sn0 3.093646 1_655
Ho1 Sn0 3.093646 1_555
Ho1 Sn1 3.171623 1_554
Ho1 Sn2 3.182475 1_655
Ho1 Sn2 3.182475 1_555
Ho1 Sn3 3.185433 1_555
Ho1 Ni1 3.225845 1_655
Ho1 Ni1 3.225845 1_555
Ho1 Ni0 3.328837 1_555
Ho1 Ho3 3.611458 1_555
Ho1 Ho3 3.611458 1_565
Ho2 Ni3 2.974791 1_555
Ho2 Ni2 3.051787 1_555
Ho2 Ni2 3.051787 1_455
Ho2 Sn1 3.093642 1_565
Ho2 Sn1 3.093642 1_465
Ho2 Sn0 3.171628 1_565
Ho2 Sn3 3.182477 1_455
Ho2 Sn3 3.182477 1_555
Ho2 Sn2 3.185426 1_556
Ho2 Ni0 3.225847 1_465
Ho2 Ni0 3.225847 1_565
Ho2 Ni1 3.328830 1_566
Ho2 Ho3 3.785420 1_565
Ho2 Ho3 3.785420 1_465
Ho3 Ni0 2.974785 1_555
Ho3 Ni1 3.051791 1_555
Ho3 Ni1 3.051791 1_655
Ho3 Sn2 3.093646 1_645
Ho3 Sn2 3.093646 1_545
Ho3 Sn3 3.171623 1_545
Ho3 Sn0 3.182475 1_655
Ho3 Sn0 3.182475 1_555
Ho3 Sn1 3.185433 1_554
Ho3 Ni3 3.225845 1_545
Ho3 Ni3 3.225845 1_645
Ho3 Ni2 3.328837 1_544
Ni0 Sn0 2.574928 1_655
Ni0 Sn0 2.574928 1_555
Ni0 Sn1 2.617834 1_555
Ni0 Sn3 2.765147 1_555
Ni1 Sn1 2.574928 1_454
Ni1 Sn1 2.574928 1_554
Ni1 Sn0 2.617834 1_555
Ni1 Sn2 2.765147 1_545
Ni2 Sn2 2.574928 1_656
Ni2 Sn2 2.574928 1_556
Ni2 Sn3 2.617834 1_555
Ni2 Sn1 2.765147 1_565
Ni3 Sn3 2.574928 1_555
Ni3 Sn3 2.574928 1_455
Ni3 Sn2 2.617834 1_555
Ni3 Sn0 2.765147 1_555
