# generated using pymatgen
data_RbBa19(Bi2As)4
_symmetry_space_group_name_H-M   'P 1'
_cell_length_a   9.28065298
_cell_length_b   10.52798814
_cell_length_c   14.21122560
_cell_angle_alpha   90.09132059
_cell_angle_beta   90.36759726
_cell_angle_gamma   90.19612515
_symmetry_Int_Tables_number   1
_chemical_formula_structural   RbBa19(Bi2As)4
_chemical_formula_sum   'Rb1 Ba19 Bi8 As4'
_cell_volume   1388.49207456
_cell_formula_units_Z   1
loop_
 _symmetry_equiv_pos_site_id
 _symmetry_equiv_pos_as_xyz
  1  'x, y, z'
loop_
 _atom_site_type_symbol
 _atom_site_label
 _atom_site_symmetry_multiplicity
 _atom_site_fract_x
 _atom_site_fract_y
 _atom_site_fract_z
 _atom_site_occupancy
  Rb  Rb0  1  0.68359762  0.53515031  0.57671445  1
  Ba  Ba0  1  0.05822802  0.74640434  0.49886409  1
  Ba  Ba1  1  0.94863724  0.26114665  0.50086632  1
  Ba  Ba2  1  0.54465956  0.24771604  0.99905612  1
  Ba  Ba3  1  0.45481899  0.75084590  0.00120560  1
  Ba  Ba4  1  0.85775021  0.74629395  0.80709093  1
  Ba  Ba5  1  0.14207338  0.25192321  0.19950100  1
  Ba  Ba6  1  0.35797667  0.25083489  0.69837391  1
  Ba  Ba7  1  0.63996317  0.74909939  0.29811087  1
  Ba  Ba8  1  0.32984657  0.46506041  0.42560764  1
  Ba  Ba9  1  0.18680647  0.46712744  0.92511612  1
  Ba  Ba10  1  0.30944443  0.03810821  0.42115206  1
  Ba  Ba11  1  0.81522708  0.53075480  0.07626100  1
  Ba  Ba12  1  0.68031815  0.97042324  0.57147940  1
  Ba  Ba13  1  0.81790928  0.96690661  0.07857604  1
  Ba  Ba14  1  0.18158291  0.03176478  0.92166599  1
  Ba  Ba15  1  0.33703829  0.74840989  0.71040804  1
  Ba  Ba16  1  0.66853003  0.24719544  0.28790735  1
  Ba  Ba17  1  0.83032562  0.25425959  0.78801667  1
  Ba  Ba18  1  0.16937242  0.74870277  0.21283610  1
  Bi  Bi0  1  0.56490348  0.50883214  0.83502907  1
  Bi  Bi1  1  0.43581963  0.48998125  0.17316397  1
  Bi  Bi2  1  0.07064077  0.49538498  0.67469609  1
  Bi  Bi3  1  0.43334102  0.00941680  0.17125853  1
  Bi  Bi4  1  0.93977949  0.50963561  0.32476525  1
  Bi  Bi5  1  0.56576984  0.99030049  0.82534622  1
  Bi  Bi6  1  0.93158234  0.98925760  0.33057679  1
  Bi  Bi7  1  0.05478342  0.00305125  0.67104190  1
  As  As0  1  0.06816586  0.74943506  0.99155368  1
  As  As1  1  0.93185529  0.24820336  0.01012428  1
  As  As2  1  0.56511760  0.24014445  0.50881494  1
  As  As3  1  0.42413515  0.75822716  0.48481959  1
loop_
_geom_bond_atom_site_label_1
_geom_bond_atom_site_label_2
_geom_bond_distance
_geom_bond_site_symmetry_2
Ba0 Bi2 3.641520 1_555
Ba0 Bi7 3.642709 1_565
Ba0 Bi4 3.670164 1_455
Ba0 Bi6 3.693516 1_455
Ba1 Bi4 3.624010 1_555
Ba1 Bi2 3.659455 1_655
Ba1 Bi6 3.747673 1_545
Ba1 Bi7 3.769765 1_655
Ba2 Bi0 3.612290 1_555
Ba2 Bi3 3.658489 1_556
Ba2 Bi5 3.669537 1_545
Ba2 Bi1 3.698294 1_556
Ba3 Bi0 3.625230 1_554
Ba3 Bi3 3.644098 1_565
Ba3 Bi1 3.683634 1_555
Ba3 Bi5 3.700920 1_554
Ba4 Bi0 3.710066 1_555
Ba4 Bi5 3.750192 1_555
Ba4 Bi7 3.796977 1_665
Ba4 Bi2 3.806457 1_655
Ba5 Bi1 3.717893 1_555
Ba5 Bi3 3.747583 1_555
Ba5 Bi4 3.757319 1_455
Ba5 Bi6 3.867713 1_445
Ba6 Bi2 3.727096 1_555
Ba6 Bi5 3.808645 1_545
Ba6 Bi0 3.838857 1_555
Ba6 Bi7 3.847874 1_555
Ba7 Bi6 3.723398 1_555
Ba7 Bi1 3.753709 1_555
Ba7 Bi4 3.778768 1_555
Ba7 Bi3 3.800701 1_565
Ba8 Bi1 3.735373 1_555
Ba8 Bi4 3.914863 1_455
Ba9 Bi2 3.724515 1_555
Ba9 Bi0 3.767452 1_555
Ba9 Bi1 4.208761 1_556
Ba10 Bi3 3.751855 1_555
Ba10 Bi6 3.761205 1_445
Ba11 Bi4 3.716091 1_555
Ba11 Bi1 3.812210 1_555
Ba11 Bi0 4.134556 1_554
Ba12 Bi7 3.758287 1_665
Ba12 Bi5 3.773353 1_555
Ba12 Bi6 4.159205 1_555
Ba13 Bi6 3.733728 1_555
Ba13 Bi3 3.839608 1_565
Ba13 Bi5 4.287861 1_554
Ba14 Bi7 3.755274 1_555
Ba14 Bi5 3.853368 1_545
Ba14 Bi3 4.242157 1_556
Ba15 Bi2 3.660684 1_555
Ba15 Bi5 3.683035 1_555
Ba15 Bi0 3.738071 1_555
Ba15 Bi7 3.794190 1_565
Ba16 Bi3 3.698900 1_555
Ba16 Bi6 3.705884 1_545
Ba16 Bi1 3.723249 1_555
Ba16 Bi4 3.765151 1_555
Ba17 Bi0 3.709165 1_555
Ba17 Bi5 3.742592 1_545
Ba17 Bi2 3.745970 1_655
Ba17 Bi7 3.763703 1_655
Ba18 Bi4 3.663968 1_455
Ba18 Bi3 3.723205 1_565
Ba18 Bi1 3.729732 1_555
Ba18 Bi6 3.762432 1_455
Bi0 Rb0 3.849577 1_555
Bi2 Rb0 3.868422 1_455
Bi4 Rb0 4.319189 1_555
As0 Ba4 3.258842 1_455
As0 Ba18 3.276218 1_556
As0 Ba14 3.306163 1_565
As0 Ba9 3.311214 1_555
As0 Ba13 3.497119 1_456
As0 Ba11 3.502584 1_456
As0 Ba3 3.590114 1_556
As1 Ba17 3.289044 1_554
As1 Ba13 3.291802 1_545
As1 Ba11 3.306048 1_555
As1 Ba5 3.313988 1_655
As1 Ba14 3.494059 1_654
As1 Ba9 3.518293 1_654
As1 Ba2 3.595848 1_554
As2 Ba12 3.164837 1_545
As2 Ba16 3.289551 1_555
As2 Ba6 3.321472 1_555
As2 Ba10 3.409634 1_555
As2 Rb0 3.426327 1_555
As2 Ba8 3.432782 1_555
As2 Ba1 3.567942 1_555
As3 Ba10 3.263676 1_565
As3 Ba8 3.311163 1_555
As3 Ba15 3.312931 1_555
As3 Ba7 3.336220 1_555
As3 Ba0 3.404858 1_555
As3 Ba12 3.475264 1_555
As3 Rb0 3.609388 1_555
