# generated using pymatgen
data_Ti5Ga2Bi
_symmetry_space_group_name_H-M   'P 1'
_cell_length_a   5.18289473
_cell_length_b   7.72418278
_cell_length_c   7.84389114
_cell_angle_alpha   83.63619895
_cell_angle_beta   70.70830582
_cell_angle_gamma   70.39718984
_symmetry_Int_Tables_number   1
_chemical_formula_structural   Ti5Ga2Bi
_chemical_formula_sum   'Ti10 Ga4 Bi2'
_cell_volume   279.20857059
_cell_formula_units_Z   2
loop_
 _symmetry_equiv_pos_site_id
 _symmetry_equiv_pos_as_xyz
  1  'x, y, z'
loop_
 _atom_site_type_symbol
 _atom_site_label
 _atom_site_symmetry_multiplicity
 _atom_site_fract_x
 _atom_site_fract_y
 _atom_site_fract_z
 _atom_site_occupancy
  Ti  Ti0  1  0.71285554  0.87474147  0.69954846  1
  Ti  Ti1  1  0.28714446  0.12525853  0.30045154  1
  Ti  Ti2  1  0.77577748  0.28852312  0.15992292  1
  Ti  Ti3  1  0.22422252  0.71147688  0.84007708  1
  Ti  Ti4  1  0.56429960  0.71147688  0.15992292  1
  Ti  Ti5  1  0.43570040  0.28852312  0.84007708  1
  Ti  Ti6  1  0.08759600  0.12525853  0.69954846  1
  Ti  Ti7  1  0.91240400  0.87474147  0.30045154  1
  Ti  Ti8  1  0.73834457  0.50000000  0.50000000  1
  Ti  Ti9  1  0.26165543  0.50000000  0.50000000  1
  Ga  Ga0  1  0.33915573  0.82168955  0.50000000  1
  Ga  Ga1  1  0.66084427  0.17831045  0.50000000  1
  Ga  Ga2  1  0.25000000  0.00000000  0.00000000  1
  Ga  Ga3  1  0.75000000  0.00000000  0.00000000  1
  Bi  Bi0  1  0.16645689  0.50000000  0.16708522  1
  Bi  Bi1  1  0.83354311  0.50000000  0.83291478  1
loop_
_geom_bond_atom_site_label_1
_geom_bond_atom_site_label_2
_geom_bond_distance
_geom_bond_site_symmetry_2
Ti0 Ti7 2.954693 1_555
Ti0 Ti3 3.034687 1_655
Ti0 Ti3 3.034696 1_555
Ti0 Ti6 3.168357 1_665
Ti0 Ti6 3.168366 1_565
Ti0 Ti5 3.185566 1_565
Ti0 Ti9 3.384835 1_655
Ti0 Ti8 3.384837 1_555
Ti1 Ti6 2.954693 1_555
Ti1 Ti2 3.034687 1_455
Ti1 Ti2 3.034696 1_555
Ti1 Ti7 3.168357 1_445
Ti1 Ti7 3.168366 1_545
Ti1 Ti4 3.185566 1_545
Ti1 Ti8 3.384835 1_455
Ti1 Ti9 3.384837 1_555
Ti2 Ti4 3.077622 1_555
Ti2 Ti7 3.185565 1_545
Ti3 Ti5 3.077622 1_555
Ti3 Ti6 3.185565 1_565
Ti4 Ti7 3.034688 1_455
Ti4 Ti7 3.034696 1_555
Ti5 Ti6 3.034688 1_655
Ti5 Ti6 3.034696 1_555
Ti6 Ti8 3.384835 1_455
Ti6 Ti9 3.384837 1_555
Ti7 Ti9 3.384835 1_655
Ti7 Ti8 3.384837 1_555
Ti8 Ti9 2.470630 1_555
Ti8 Ti9 2.712265 1_655
Ga0 Ti3 2.642380 1_555
Ga0 Ti4 2.642380 1_555
Ga0 Ti8 2.646737 1_555
Ga0 Ti9 2.646739 1_555
Ga0 Ti1 2.657419 1_565
Ga0 Ti6 2.657419 1_565
Ga0 Ti0 3.007852 1_555
Ga0 Ti7 3.007852 1_455
Ga0 Ti7 3.007852 1_555
Ga0 Ti0 3.007852 1_455
Ga1 Ti2 2.642380 1_555
Ga1 Ti5 2.642380 1_555
Ga1 Ti9 2.646737 1_555
Ga1 Ti8 2.646739 1_555
Ga1 Ti0 2.657419 1_545
Ga1 Ti7 2.657419 1_545
Ga1 Ti1 3.007852 1_555
Ga1 Ti6 3.007852 1_655
Ga1 Ti6 3.007852 1_555
Ga1 Ti1 3.007852 1_655
Ga2 Ga3 2.591447 1_555
Ga2 Ga3 2.591447 1_455
Ga2 Ti1 2.730838 1_555
Ga2 Ti7 2.730838 1_445
Ga2 Ti6 2.730840 1_554
Ga2 Ti0 2.730841 1_544
Ga2 Ti4 2.736483 1_545
Ga2 Ti2 2.736484 1_455
Ga2 Ti3 2.736486 1_544
Ga2 Ti5 2.736486 1_554
Ga3 Ti0 2.730838 1_544
Ga3 Ti6 2.730838 1_654
Ga3 Ti7 2.730840 1_545
Ga3 Ti1 2.730841 1_555
Ga3 Ti5 2.736483 1_554
Ga3 Ti3 2.736484 1_644
Ga3 Ti2 2.736486 1_555
Ga3 Ti4 2.736486 1_545
Bi0 Ti8 2.813169 1_455
Bi0 Ti9 2.813171 1_555
Bi0 Ti3 2.868644 1_554
Bi0 Ti5 2.868645 1_554
Bi0 Ti1 2.900063 1_555
Bi0 Ti7 2.900063 1_455
Bi0 Ti2 3.014353 1_455
Bi0 Ti4 3.014357 1_555
Bi0 Ti4 3.014358 1_455
Bi0 Ti2 3.014362 1_555
Bi1 Ti9 2.813169 1_655
Bi1 Ti8 2.813171 1_555
Bi1 Ti2 2.868644 1_556
Bi1 Ti4 2.868645 1_556
Bi1 Ti0 2.900063 1_555
Bi1 Ti6 2.900063 1_655
Bi1 Ti3 3.014353 1_655
Bi1 Ti5 3.014357 1_555
Bi1 Ti5 3.014358 1_655
Bi1 Ti3 3.014362 1_555
