# generated using pymatgen
data_CdAgIr2O7
_symmetry_space_group_name_H-M   'P 1'
_cell_length_a   7.19465666
_cell_length_b   7.15891440
_cell_length_c   7.15891473
_cell_angle_alpha   59.57965090
_cell_angle_beta   59.83470401
_cell_angle_gamma   59.83470475
_symmetry_Int_Tables_number   1
_chemical_formula_structural   CdAgIr2O7
_chemical_formula_sum   'Cd2 Ag2 Ir4 O14'
_cell_volume   259.24360237
_cell_formula_units_Z   2
loop_
 _symmetry_equiv_pos_site_id
 _symmetry_equiv_pos_as_xyz
  1  'x, y, z'
loop_
 _atom_site_type_symbol
 _atom_site_label
 _atom_site_symmetry_multiplicity
 _atom_site_fract_x
 _atom_site_fract_y
 _atom_site_fract_z
 _atom_site_occupancy
  Cd  Cd0  1  0.62500000  0.12500000  0.12500000  1
  Cd  Cd1  1  0.12500000  0.12500000  0.12500000  1
  Ag  Ag0  1  0.12500000  0.62500000  0.12500000  1
  Ag  Ag1  1  0.12500000  0.12500000  0.62500000  1
  Ir  Ir0  1  0.12500000  0.62500000  0.62500000  1
  Ir  Ir1  1  0.62500000  0.12500000  0.62500000  1
  Ir  Ir2  1  0.62500000  0.62500000  0.12500000  1
  Ir  Ir3  1  0.62500000  0.62500000  0.62500000  1
  O  O0  1  0.70098351  0.70149191  0.29835211  1
  O  O1  1  0.29917246  0.29835211  0.70149191  1
  O  O2  1  0.70098351  0.29835211  0.70149191  1
  O  O3  1  0.29917246  0.70149191  0.29835211  1
  O  O4  1  0.30319579  0.69680421  0.69680421  1
  O  O5  1  0.70436093  0.29563907  0.29563907  1
  O  O6  1  0.54901649  0.54850809  0.95164789  1
  O  O7  1  0.95082754  0.95164789  0.54850809  1
  O  O8  1  0.54901649  0.95164789  0.54850809  1
  O  O9  1  0.95082754  0.54850809  0.95164789  1
  O  O10  1  0.94680421  0.55319579  0.55319579  1
  O  O11  1  0.54563907  0.95436093  0.95436093  1
  O  O12  1  0.23818026  0.26181974  0.26181974  1
  O  O13  1  0.01181974  0.98818026  0.98818026  1
loop_
_geom_bond_atom_site_label_1
_geom_bond_atom_site_label_2
_geom_bond_distance
_geom_bond_site_symmetry_2
Cd0 O13 2.270797 1_644
Cd0 O12 2.270797 1_555
Cd0 O5 2.494743 1_555
Cd0 O11 2.494743 1_544
Cd0 O6 2.497388 1_554
Cd0 O0 2.497388 1_545
Cd0 O2 2.497388 1_554
Cd0 O8 2.497388 1_545
Cd1 O12 2.270797 1_555
Cd1 O13 2.270797 1_544
Cd1 O5 2.494743 1_455
Cd1 O11 2.494743 1_544
Cd1 O9 2.497388 1_454
Cd1 O3 2.497388 1_545
Cd1 O7 2.497388 1_445
Cd1 O1 2.497388 1_554
Ag0 O13 2.115956 1_554
Ag0 O12 2.115956 1_555
Ag0 O6 2.520115 1_554
Ag0 O0 2.520115 1_455
Ag0 O3 2.520115 1_555
Ag0 O9 2.520115 1_454
Ag0 O10 2.534091 1_455
Ag0 O4 2.534091 1_554
Ag1 O13 2.115956 1_545
Ag1 O12 2.115956 1_555
Ag1 O2 2.520115 1_455
Ag1 O8 2.520115 1_545
Ag1 O1 2.520115 1_555
Ag1 O7 2.520115 1_445
Ag1 O10 2.534091 1_455
Ag1 O4 2.534091 1_545
Ir0 O4 1.940199 1_555
Ir0 O10 1.940199 1_455
Ir0 O7 1.945861 1_455
Ir0 O1 1.945861 1_555
Ir0 O9 1.945861 1_455
Ir0 O3 1.945861 1_555
Ir1 O11 1.951650 1_545
Ir1 O5 1.951650 1_555
Ir1 O1 1.951845 1_555
Ir1 O7 1.951845 1_545
Ir1 O2 1.951845 1_555
Ir1 O8 1.951845 1_545
Ir2 O11 1.951650 1_554
Ir2 O5 1.951650 1_555
Ir2 O9 1.951845 1_554
Ir2 O3 1.951845 1_555
Ir2 O0 1.951845 1_555
Ir2 O6 1.951845 1_554
Ir3 O10 1.940199 1_555
Ir3 O4 1.940199 1_555
Ir3 O8 1.945861 1_555
Ir3 O2 1.945861 1_555
Ir3 O6 1.945861 1_555
Ir3 O0 1.945861 1_555
