# generated using pymatgen
data_TiZn2O4
_symmetry_space_group_name_H-M   'P 1'
_cell_length_a   6.09000532
_cell_length_b   6.09000532
_cell_length_c   6.09000532
_cell_angle_alpha   121.27945305
_cell_angle_beta   120.71817339
_cell_angle_gamma   88.27924738
_symmetry_Int_Tables_number   1
_chemical_formula_structural   TiZn2O4
_chemical_formula_sum   'Ti2 Zn4 O8'
_cell_volume   157.21913000
_cell_formula_units_Z   2
loop_
 _symmetry_equiv_pos_site_id
 _symmetry_equiv_pos_as_xyz
  1  'x, y, z'
loop_
 _atom_site_type_symbol
 _atom_site_label
 _atom_site_symmetry_multiplicity
 _atom_site_fract_x
 _atom_site_fract_y
 _atom_site_fract_z
 _atom_site_occupancy
  Ti  Ti0  1  0.50000000  0.50000000  0.00000000  1
  Ti  Ti1  1  0.00000000  0.50000000  0.50000000  1
  Zn  Zn0  1  0.88895500  0.13895500  0.75000000  1
  Zn  Zn1  1  0.50000000  0.50000000  0.50000000  1
  Zn  Zn2  1  0.50000000  0.00000000  0.00000000  1
  Zn  Zn3  1  0.11104500  0.86104500  0.25000000  1
  O  O0  1  0.28896100  0.27527700  0.01368400  1
  O  O1  1  0.76159300  0.27527700  0.48631600  1
  O  O2  1  0.75409000  0.28105400  0.02696400  1
  O  O3  1  0.75409000  0.72712500  0.47303600  1
  O  O4  1  0.24591000  0.27287500  0.52696400  1
  O  O5  1  0.24591000  0.71894600  0.97303600  1
  O  O6  1  0.23840700  0.72472300  0.51368400  1
  O  O7  1  0.71103900  0.72472300  0.98631600  1
loop_
_geom_bond_atom_site_label_1
_geom_bond_atom_site_label_2
_geom_bond_distance
_geom_bond_site_symmetry_2
O0 Ti0 1.966015 1_555
O0 Zn0 1.985647 1_454
O0 Zn1 2.074645 1_555
O0 Zn2 2.074645 1_555
O1 Ti1 1.966015 1_655
O1 Zn0 1.985647 1_555
O1 Zn2 2.074645 1_555
O1 Zn1 2.074645 1_555
O2 Ti1 2.010773 1_655
O2 Ti0 2.010773 1_555
O2 Zn0 2.031096 1_554
O2 Zn2 2.226811 1_555
O3 Ti1 2.010768 1_655
O3 Ti0 2.010773 1_555
O3 Zn0 2.031101 1_565
O3 Zn1 2.226806 1_555
O4 Ti1 2.010768 1_555
O4 Ti0 2.010773 1_556
O4 Zn3 2.031101 1_545
O4 Zn1 2.226806 1_555
O5 Ti1 2.010773 1_555
O5 Ti0 2.010773 1_556
O5 Zn3 2.031096 1_556
O5 Zn2 2.226811 1_566
O6 Ti1 1.966015 1_555
O6 Zn3 1.985647 1_555
O6 Zn2 2.074645 1_566
O6 Zn1 2.074645 1_555
O7 Ti0 1.966015 1_556
O7 Zn3 1.985647 1_656
O7 Zn2 2.074645 1_566
O7 Zn1 2.074645 1_555
