# generated using pymatgen
data_CsK(HgSb)2
_symmetry_space_group_name_H-M   'P 1'
_cell_length_a   4.87686953
_cell_length_b   4.87686891
_cell_length_c   10.95947960
_cell_angle_alpha   90.00000000
_cell_angle_beta   90.00000000
_cell_angle_gamma   120.00001070
_symmetry_Int_Tables_number   1
_chemical_formula_structural   CsK(HgSb)2
_chemical_formula_sum   'Cs1 K1 Hg2 Sb2'
_cell_volume   225.73699326
_cell_formula_units_Z   1
loop_
 _symmetry_equiv_pos_site_id
 _symmetry_equiv_pos_as_xyz
  1  'x, y, z'
loop_
 _atom_site_type_symbol
 _atom_site_label
 _atom_site_symmetry_multiplicity
 _atom_site_fract_x
 _atom_site_fract_y
 _atom_site_fract_z
 _atom_site_occupancy
  Cs  Cs0  1  0.00000000  0.00000000  0.50000000  1
  K  K0  1  0.00000000  0.00000000  0.00000000  1
  Hg  Hg0  1  0.66666700  0.33333300  0.22413047  1
  Hg  Hg1  1  0.33333300  0.66666700  0.77586953  1
  Sb  Sb0  1  0.33333300  0.66666700  0.23328384  1
  Sb  Sb1  1  0.66666700  0.33333300  0.76671616  1
loop_
_geom_bond_atom_site_label_1
_geom_bond_atom_site_label_2
_geom_bond_distance
_geom_bond_site_symmetry_2
Cs0 Sb0 4.058605 1_545
Cs0 Sb1 4.058605 1_455
Cs0 Sb0 4.058608 1_555
Cs0 Sb1 4.058608 1_445
Cs0 Sb1 4.058608 1_555
Cs0 Sb0 4.058608 1_445
Cs0 Hg1 4.131441 1_545
Cs0 Hg0 4.131441 1_455
Cs0 Hg1 4.131443 1_555
Cs0 Hg0 4.131443 1_445
Cs0 Hg1 4.131443 1_445
Cs0 Hg0 4.131443 1_555
K0 Sb0 3.803222 1_545
K0 Sb1 3.803222 1_454
K0 Sb0 3.803224 1_555
K0 Sb1 3.803224 1_444
K0 Sb1 3.803225 1_554
K0 Sb0 3.803225 1_445
Hg0 Sb0 2.817445 1_545
Hg0 Sb0 2.817445 1_655
Hg0 Sb0 2.817454 1_555
Hg0 K0 3.736523 1_655
Hg0 K0 3.736526 1_665
Hg0 K0 3.736526 1_555
Hg1 Sb1 2.817445 1_565
Hg1 Sb1 2.817445 1_455
Hg1 Sb1 2.817454 1_555
Hg1 K0 3.736523 1_566
Hg1 K0 3.736526 1_556
Hg1 K0 3.736526 1_666
