# generated using pymatgen
data_KAlPt3O8
_symmetry_space_group_name_H-M   'P 1'
_cell_length_a   7.10141196
_cell_length_b   7.10141227
_cell_length_c   10.34866287
_cell_angle_alpha   45.12308648
_cell_angle_beta   45.12308262
_cell_angle_gamma   25.01756907
_symmetry_Int_Tables_number   1
_chemical_formula_structural   KAlPt3O8
_chemical_formula_sum   'K1 Al1 Pt3 O8'
_cell_volume   152.53151305
_cell_formula_units_Z   1
loop_
 _symmetry_equiv_pos_site_id
 _symmetry_equiv_pos_as_xyz
  1  'x, y, z'
loop_
 _atom_site_type_symbol
 _atom_site_label
 _atom_site_symmetry_multiplicity
 _atom_site_fract_x
 _atom_site_fract_y
 _atom_site_fract_z
 _atom_site_occupancy
  K  K0  1  0.49557344  0.49557344  0.99479202  1
  Al  Al0  1  0.34561181  0.34561181  0.81287363  1
  Pt  Pt0  1  0.65734060  0.65734060  0.17327671  1
  Pt  Pt1  1  0.16986709  0.16986709  0.47343581  1
  Pt  Pt2  1  0.82554397  0.82554397  0.53531639  1
  O  O0  1  0.14766197  0.14766197  0.05530884  1
  O  O1  1  0.85631409  0.85631409  0.92508064  1
  O  O2  1  0.18536073  0.18536073  0.65538361  1
  O  O3  1  0.81124317  0.81124317  0.34754182  1
  O  O4  1  0.53802786  0.53802786  0.60830342  1
  O  O5  1  0.45594288  0.45594288  0.42628037  1
  O  O6  1  0.19703060  0.19703060  0.25544307  1
  O  O7  1  0.81448381  0.81448381  0.73696467  1
loop_
_geom_bond_atom_site_label_1
_geom_bond_atom_site_label_2
_geom_bond_distance
_geom_bond_site_symmetry_2
K0 O2 2.875258 1_655
K0 O2 2.875259 1_565
K0 O6 2.875992 1_556
K0 O1 2.937383 1_455
K0 O1 2.937383 1_545
K0 O3 2.955950 1_456
K0 O3 2.955951 1_546
K0 O0 3.018948 1_656
K0 O0 3.018948 1_566
K0 O7 3.101294 1_555
Al0 O4 1.853527 1_555
Al0 O7 1.912905 1_455
Al0 O7 1.912905 1_545
Al0 O0 1.968273 1_556
Al0 O1 1.996293 1_455
Al0 O1 1.996293 1_545
O0 Pt0 2.027542 1_455
O0 Pt0 2.027542 1_545
O1 Pt0 1.991404 1_556
O2 Pt1 2.043584 1_555
O2 Pt2 2.048573 1_545
O2 Pt2 2.048573 1_455
O3 Pt1 2.052836 1_565
O3 Pt1 2.052837 1_655
O3 Pt2 2.091024 1_555
O4 Pt1 1.991841 1_655
O4 Pt1 1.991841 1_565
O5 Pt2 1.989728 1_455
O5 Pt2 1.989729 1_545
O5 Pt0 2.021069 1_555
O6 Pt1 2.000725 1_555
O6 Pt0 2.016936 1_455
O6 Pt0 2.016936 1_545
O7 Pt2 1.978793 1_555
