# generated using pymatgen
data_Mn10SiB4P
_symmetry_space_group_name_H-M   'P 1'
_cell_length_a   6.50493766
_cell_length_b   6.50493872
_cell_length_c   6.50493792
_cell_angle_alpha   129.43413263
_cell_angle_beta   129.43414367
_cell_angle_gamma   74.31302510
_symmetry_Int_Tables_number   1
_chemical_formula_structural   Mn10SiB4P
_chemical_formula_sum   'Mn10 Si1 B4 P1'
_cell_volume   160.05799219
_cell_formula_units_Z   1
loop_
 _symmetry_equiv_pos_site_id
 _symmetry_equiv_pos_as_xyz
  1  'x, y, z'
loop_
 _atom_site_type_symbol
 _atom_site_label
 _atom_site_symmetry_multiplicity
 _atom_site_fract_x
 _atom_site_fract_y
 _atom_site_fract_z
 _atom_site_occupancy
  Mn  Mn0  1  0.19492258  0.68968754  0.16007644  1
  Mn  Mn1  1  0.46515387  0.97038990  0.16007644  1
  Mn  Mn2  1  0.99823088  0.99823088  0.00000000  1
  Mn  Mn3  1  0.50176912  0.50176912  1.00000000  1
  Mn  Mn4  1  0.52961010  0.03484613  0.83992356  1
  Mn  Mn5  1  0.03484613  0.19492258  0.50523504  1
  Mn  Mn6  1  0.68968754  0.52961010  0.49476496  1
  Mn  Mn7  1  0.97038990  0.81031246  0.50523504  1
  Mn  Mn8  1  0.30507742  0.46515387  0.49476496  1
  Mn  Mn9  1  0.81031246  0.30507742  0.83992356  1
  Si  Si0  1  0.75000000  0.75000000  0.00000000  1
  B  B0  1  0.88175127  0.38175127  0.26350153  1
  B  B1  1  0.38175127  0.11824873  0.50000000  1
  B  B2  1  0.61824873  0.88175127  0.50000000  1
  B  B3  1  0.11824873  0.61824873  0.73649847  1
  P  P0  1  0.25000000  0.25000000  0.00000000  1
loop_
_geom_bond_atom_site_label_1
_geom_bond_atom_site_label_2
_geom_bond_distance
_geom_bond_site_symmetry_2
Mn0 P0 2.351461 1_555
Mn0 Si0 2.385579 1_455
Mn1 P0 2.351454 1_565
Mn1 Si0 2.385580 1_555
Mn2 Si0 2.573837 1_555
Mn2 P0 2.610524 1_665
Mn3 Si0 2.573837 1_556
Mn3 P0 2.610524 1_556
Mn4 P0 2.351454 1_556
Mn4 Si0 2.385580 1_546
Mn5 P0 2.351460 1_556
Mn5 Si0 2.385579 1_445
Mn6 P0 2.351458 1_555
Mn6 Si0 2.385578 1_556
Mn7 P0 2.351459 1_666
Mn7 Si0 2.385577 1_555
Mn8 P0 2.351460 1_555
Mn8 Si0 2.385579 1_556
Mn9 P0 2.351460 1_656
Mn9 Si0 2.385579 1_556
B0 B3 1.858379 1_655
B0 Mn8 2.156100 1_655
B0 Mn6 2.156108 1_555
B0 Mn7 2.173757 1_555
B0 Mn5 2.173763 1_655
B0 Mn9 2.193066 1_554
B0 Mn4 2.193076 1_554
B0 Mn3 2.220653 1_554
B0 Mn2 2.220654 1_545
B1 B2 1.858372 1_545
B1 Mn4 2.156103 1_555
B1 Mn1 2.156104 1_545
B1 Mn9 2.173757 1_555
B1 Mn0 2.173758 1_545
B1 Mn5 2.193072 1_555
B1 Mn8 2.193072 1_555
B1 Mn2 2.220655 1_445
B1 Mn3 2.220656 1_555
B2 Mn0 2.156101 1_555
B2 Mn9 2.156102 1_565
B2 Mn1 2.173762 1_555
B2 Mn4 2.173763 1_565
B2 Mn7 2.193078 1_555
B2 Mn6 2.193079 1_555
B2 Mn2 2.220655 1_556
B2 Mn3 2.220656 1_554
B3 Mn5 2.156100 1_555
B3 Mn7 2.156108 1_455
B3 Mn6 2.173756 1_455
B3 Mn8 2.173763 1_555
B3 Mn0 2.193066 1_556
B3 Mn1 2.193076 1_556
B3 Mn3 2.220653 1_555
B3 Mn2 2.220654 1_456
