# generated using pymatgen
data_Ba4Sr(SnAs3)2
_symmetry_space_group_name_H-M   'P 1'
_cell_length_a   4.37927407
_cell_length_b   13.00203864
_cell_length_c   14.92713084
_cell_angle_alpha   90.00000000
_cell_angle_beta   90.00000000
_cell_angle_gamma   90.00000000
_symmetry_Int_Tables_number   1
_chemical_formula_structural   Ba4Sr(SnAs3)2
_chemical_formula_sum   'Ba8 Sr2 Sn4 As12'
_cell_volume   849.94322679
_cell_formula_units_Z   2
loop_
 _symmetry_equiv_pos_site_id
 _symmetry_equiv_pos_as_xyz
  1  'x, y, z'
loop_
 _atom_site_type_symbol
 _atom_site_label
 _atom_site_symmetry_multiplicity
 _atom_site_fract_x
 _atom_site_fract_y
 _atom_site_fract_z
 _atom_site_occupancy
  Ba  Ba0  1  0.00000000  0.62066745  0.25844465  1
  Ba  Ba1  1  0.00000000  0.37933255  0.74155535  1
  Ba  Ba2  1  0.00000000  0.12066745  0.24155535  1
  Ba  Ba3  1  0.00000000  0.87933255  0.75844465  1
  Ba  Ba4  1  0.00000000  0.86956807  0.43036359  1
  Ba  Ba5  1  0.00000000  0.13043193  0.56963641  1
  Ba  Ba6  1  0.00000000  0.36956807  0.06963641  1
  Ba  Ba7  1  0.00000000  0.63043193  0.93036359  1
  Sr  Sr0  1  0.00000000  0.50000000  0.50000000  1
  Sr  Sr1  1  0.00000000  0.00000000  0.00000000  1
  Sn  Sn0  1  0.50000000  0.78610641  0.09995064  1
  Sn  Sn1  1  0.50000000  0.21389359  0.90004936  1
  Sn  Sn2  1  0.50000000  0.28610641  0.40004936  1
  Sn  Sn3  1  0.50000000  0.71389359  0.59995064  1
  As  As0  1  0.50000000  0.58411099  0.09942249  1
  As  As1  1  0.50000000  0.41588901  0.90057751  1
  As  As2  1  0.50000000  0.08411099  0.40057751  1
  As  As3  1  0.50000000  0.91588901  0.59942249  1
  As  As4  1  0.50000000  0.66348868  0.42936963  1
  As  As5  1  0.50000000  0.33651132  0.57063037  1
  As  As6  1  0.50000000  0.16348868  0.07063037  1
  As  As7  1  0.50000000  0.83651132  0.92936963  1
  As  As8  1  0.00000000  0.86549893  0.18586409  1
  As  As9  1  0.00000000  0.13450107  0.81413591  1
  As  As10  1  0.00000000  0.36549893  0.31413591  1
  As  As11  1  0.00000000  0.63450107  0.68586409  1
loop_
_geom_bond_atom_site_label_1
_geom_bond_atom_site_label_2
_geom_bond_distance
_geom_bond_site_symmetry_2
As0 Sn0 2.626364 1_555
As0 Ba0 3.264214 1_655
As0 Ba0 3.264214 1_555
As0 Ba7 3.394939 1_654
As0 Ba7 3.394939 1_554
As0 Ba6 3.574001 1_655
As0 Ba6 3.574001 1_555
As1 Sn1 2.626364 1_555
As1 Ba1 3.264214 1_655
As1 Ba1 3.264214 1_555
As1 Ba6 3.394939 1_556
As1 Ba6 3.394939 1_656
As1 Ba7 3.574001 1_555
As1 Ba7 3.574001 1_655
As2 Sn2 2.626364 1_555
As2 Ba2 3.264214 1_555
As2 Ba2 3.264214 1_655
As2 Ba5 3.394939 1_555
As2 Ba5 3.394939 1_655
As2 Ba4 3.574001 1_645
As2 Ba4 3.574001 1_545
As3 Sn3 2.626364 1_555
As3 Ba3 3.264214 1_555
As3 Ba3 3.264214 1_655
As3 Ba4 3.394939 1_655
As3 Ba4 3.394939 1_555
As3 Ba5 3.574001 1_665
As3 Ba5 3.574001 1_565
As4 Sn3 2.629272 1_555
As4 Sr0 3.228718 1_555
As4 Sr0 3.228718 1_655
As4 Ba0 3.407967 1_655
As4 Ba0 3.407967 1_555
As4 Ba4 3.460375 1_655
As4 Ba4 3.460375 1_555
As5 Sn2 2.629272 1_555
As5 Sr0 3.228718 1_555
As5 Sr0 3.228718 1_655
As5 Ba1 3.407967 1_655
As5 Ba1 3.407967 1_555
As5 Ba5 3.460375 1_555
As5 Ba5 3.460375 1_655
As6 Sn1 2.629272 1_554
As6 Sr1 3.228718 1_555
As6 Sr1 3.228718 1_655
As6 Ba2 3.407967 1_655
As6 Ba2 3.407967 1_555
As6 Ba6 3.460375 1_555
As6 Ba6 3.460375 1_655
As7 Sn0 2.629272 1_556
As7 Sr1 3.228718 1_566
As7 Sr1 3.228718 1_666
As7 Ba3 3.407967 1_555
As7 Ba3 3.407967 1_655
As7 Ba7 3.460375 1_555
As7 Ba7 3.460375 1_655
As8 Sn0 2.739477 1_555
As8 Sn0 2.739477 1_455
As8 Sr1 3.279581 1_565
As8 Ba0 3.362625 1_555
As8 Ba2 3.420275 1_565
As8 Ba4 3.650059 1_555
As9 Sn1 2.739477 1_455
As9 Sn1 2.739477 1_555
As9 Sr1 3.279581 1_556
As9 Ba1 3.362625 1_555
As9 Ba3 3.420275 1_545
As9 Ba5 3.650059 1_555
As10 Sn2 2.739477 1_455
As10 Sn2 2.739477 1_555
As10 Sr0 3.279581 1_555
As10 Ba2 3.362625 1_555
As10 Ba0 3.420275 1_555
As10 Ba6 3.650059 1_555
As11 Sn3 2.739477 1_555
As11 Sn3 2.739477 1_455
As11 Sr0 3.279581 1_555
As11 Ba3 3.362625 1_555
As11 Ba1 3.420275 1_555
As11 Ba7 3.650059 1_555
