# generated using pymatgen
data_Hf4ZnAs
_symmetry_space_group_name_H-M   'P 1'
_cell_length_a   5.34438880
_cell_length_b   5.34438883
_cell_length_c   5.34438882
_cell_angle_alpha   104.22478889
_cell_angle_beta   104.22478203
_cell_angle_gamma   120.56706407
_symmetry_Int_Tables_number   1
_chemical_formula_structural   Hf4ZnAs
_chemical_formula_sum   'Hf4 Zn1 As1'
_cell_volume   114.15082397
_cell_formula_units_Z   1
loop_
 _symmetry_equiv_pos_site_id
 _symmetry_equiv_pos_as_xyz
  1  'x, y, z'
loop_
 _atom_site_type_symbol
 _atom_site_label
 _atom_site_symmetry_multiplicity
 _atom_site_fract_x
 _atom_site_fract_y
 _atom_site_fract_z
 _atom_site_occupancy
  Hf  Hf0  1  0.65416661  0.84583339  0.50000000  1
  Hf  Hf1  1  0.84583339  0.34583339  0.19166578  1
  Hf  Hf2  1  0.34583339  0.15416661  0.50000000  1
  Hf  Hf3  1  0.15416661  0.65416661  0.80833422  1
  Zn  Zn0  1  0.25000000  0.25000000  0.00000000  1
  As  As0  1  0.75000000  0.75000000  0.00000000  1
loop_
_geom_bond_atom_site_label_1
_geom_bond_atom_site_label_2
_geom_bond_distance
_geom_bond_site_symmetry_2
Hf0 Zn0 2.816392 1_555
Hf0 Zn0 2.816392 1_666
Hf1 Zn0 2.816389 1_655
Hf1 Zn0 2.816392 1_555
Hf2 Zn0 2.816392 1_556
Hf2 Zn0 2.816392 1_555
Hf3 Zn0 2.816389 1_556
Hf3 Zn0 2.816392 1_566
As0 Zn0 2.649258 1_665
As0 Zn0 2.649258 1_555
As0 Hf3 2.816389 1_654
As0 Hf1 2.816389 1_555
As0 Hf1 2.816392 1_565
As0 Hf3 2.816392 1_554
As0 Hf2 2.816392 1_554
As0 Hf0 2.816392 1_555
As0 Hf2 2.816392 1_665
As0 Hf0 2.816392 1_554
