# generated using pymatgen
data_YZrRh6C
_symmetry_space_group_name_H-M   'P 1'
_cell_length_a   5.70805984
_cell_length_b   5.70806027
_cell_length_c   5.70806015
_cell_angle_alpha   60.00000636
_cell_angle_beta   60.00000383
_cell_angle_gamma   60.00000183
_symmetry_Int_Tables_number   1
_chemical_formula_structural   YZrRh6C
_chemical_formula_sum   'Y1 Zr1 Rh6 C1'
_cell_volume   131.50753889
_cell_formula_units_Z   1
loop_
 _symmetry_equiv_pos_site_id
 _symmetry_equiv_pos_as_xyz
  1  'x, y, z'
loop_
 _atom_site_type_symbol
 _atom_site_label
 _atom_site_symmetry_multiplicity
 _atom_site_fract_x
 _atom_site_fract_y
 _atom_site_fract_z
 _atom_site_occupancy
  Y  Y0  1  0.25000000  0.25000000  0.25000000  1
  Zr  Zr0  1  0.75000000  0.75000000  0.75000000  1
  Rh  Rh0  1  0.75393029  0.75393029  0.24606871  1
  Rh  Rh1  1  0.75393029  0.24606871  0.24606871  1
  Rh  Rh2  1  0.24606871  0.75393029  0.24606871  1
  Rh  Rh3  1  0.24606871  0.24606871  0.75393029  1
  Rh  Rh4  1  0.75393029  0.24606871  0.75393029  1
  Rh  Rh5  1  0.24606871  0.75393029  0.75393029  1
  C  C0  1  0.50000000  0.50000000  0.50000000  1
loop_
_geom_bond_atom_site_label_1
_geom_bond_atom_site_label_2
_geom_bond_distance
_geom_bond_site_symmetry_2
Rh0 Zr0 2.854201 1_554
Rh0 Y0 2.854206 1_565
Rh0 Y0 2.854206 1_655
Rh0 Zr0 2.854212 1_555
Rh1 Y0 2.854201 1_555
Rh1 Zr0 2.854207 1_545
Rh1 Zr0 2.854207 1_554
Rh1 Y0 2.854212 1_655
Rh2 Y0 2.854201 1_555
Rh2 Zr0 2.854207 1_554
Rh2 Zr0 2.854207 1_455
Rh2 Y0 2.854212 1_565
Rh3 Y0 2.854201 1_555
Rh3 Zr0 2.854207 1_545
Rh3 Zr0 2.854207 1_455
Rh3 Y0 2.854212 1_556
Rh4 Zr0 2.854201 1_545
Rh4 Y0 2.854207 1_556
Rh4 Y0 2.854207 1_655
Rh4 Zr0 2.854212 1_555
Rh5 Zr0 2.854201 1_455
Rh5 Y0 2.854207 1_565
Rh5 Y0 2.854207 1_556
Rh5 Zr0 2.854212 1_555
C0 Rh5 2.049831 1_555
C0 Rh4 2.049831 1_555
C0 Rh0 2.049831 1_555
C0 Rh2 2.049839 1_555
C0 Rh1 2.049839 1_555
C0 Rh3 2.049839 1_555
