# generated using pymatgen
data_Y3Lu5(AlIr)2
_symmetry_space_group_name_H-M   'P 1'
_cell_length_a   9.38757166
_cell_length_b   9.38757208
_cell_length_c   9.38757281
_cell_angle_alpha   60.00000435
_cell_angle_beta   60.00000286
_cell_angle_gamma   60.00000139
_symmetry_Int_Tables_number   1
_chemical_formula_structural   Y3Lu5(AlIr)2
_chemical_formula_sum   'Y6 Lu10 Al4 Ir4'
_cell_volume   584.98522697
_cell_formula_units_Z   2
loop_
 _symmetry_equiv_pos_site_id
 _symmetry_equiv_pos_as_xyz
  1  'x, y, z'
loop_
 _atom_site_type_symbol
 _atom_site_label
 _atom_site_symmetry_multiplicity
 _atom_site_fract_x
 _atom_site_fract_y
 _atom_site_fract_z
 _atom_site_occupancy
  Y  Y0  1  0.94075357  0.55924643  0.55924643  1
  Y  Y1  1  0.55924643  0.94075357  0.94075357  1
  Y  Y2  1  0.55924643  0.94075357  0.55924643  1
  Y  Y3  1  0.94075357  0.55924643  0.94075357  1
  Y  Y4  1  0.55924643  0.55924643  0.94075357  1
  Y  Y5  1  0.94075357  0.94075357  0.55924643  1
  Lu  Lu0  1  0.35067004  0.35067004  0.35067004  1
  Lu  Lu1  1  0.35067004  0.35067004  0.94798988  1
  Lu  Lu2  1  0.35067004  0.94798988  0.35067004  1
  Lu  Lu3  1  0.94798988  0.35067004  0.35067004  1
  Lu  Lu4  1  0.80614822  0.19385178  0.19385178  1
  Lu  Lu5  1  0.19385178  0.80614822  0.80614822  1
  Lu  Lu6  1  0.19385178  0.80614822  0.19385178  1
  Lu  Lu7  1  0.80614822  0.19385178  0.80614822  1
  Lu  Lu8  1  0.19385178  0.19385178  0.80614822  1
  Lu  Lu9  1  0.80614822  0.80614822  0.19385178  1
  Al  Al0  1  0.57725074  0.57725074  0.57725074  1
  Al  Al1  1  0.57725074  0.57725074  0.26824879  1
  Al  Al2  1  0.57725074  0.26824879  0.57725074  1
  Al  Al3  1  0.26824879  0.57725074  0.57725074  1
  Ir  Ir0  1  0.14057213  0.14057213  0.14057213  1
  Ir  Ir1  1  0.14057213  0.14057213  0.57828261  1
  Ir  Ir2  1  0.14057213  0.57828261  0.14057213  1
  Ir  Ir3  1  0.57828261  0.14057213  0.14057213  1
loop_
_geom_bond_atom_site_label_1
_geom_bond_atom_site_label_2
_geom_bond_distance
_geom_bond_site_symmetry_2
Y0 Y2 3.581426 1_555
Y0 Y5 3.581426 1_555
Y0 Y4 3.581426 1_555
Y0 Y3 3.581426 1_555
Y1 Y3 3.581426 1_555
Y1 Y4 3.581426 1_555
Y1 Y5 3.581426 1_555
Y1 Y2 3.581426 1_555
Y2 Y5 3.581426 1_555
Y2 Y4 3.581426 1_555
Y3 Y4 3.581426 1_555
Y3 Y5 3.581426 1_555
Lu0 Y0 3.352639 1_455
Lu0 Y2 3.352639 1_545
Lu0 Y4 3.352639 1_554
Lu1 Y3 3.352639 1_455
Lu1 Y4 3.352639 1_555
Lu1 Y1 3.352639 1_545
Lu2 Y5 3.352639 1_455
Lu2 Y2 3.352639 1_555
Lu2 Y1 3.352639 1_554
Lu3 Y0 3.352639 1_555
Lu3 Y5 3.352639 1_545
Lu3 Y3 3.352639 1_554
Lu4 Y3 3.491439 1_554
Lu4 Y4 3.491439 1_554
Lu4 Y2 3.491439 1_545
Lu4 Y5 3.491439 1_545
Lu5 Y3 3.491439 1_455
Lu5 Y4 3.491439 1_555
Lu5 Y2 3.491439 1_555
Lu5 Y5 3.491439 1_455
Lu6 Y1 3.491439 1_554
Lu6 Y4 3.491439 1_554
Lu6 Y0 3.491439 1_455
Lu6 Y5 3.491439 1_455
Lu7 Y1 3.491439 1_545
Lu7 Y4 3.491439 1_555
Lu7 Y5 3.491439 1_545
Lu7 Y0 3.491439 1_555
Lu8 Y1 3.491439 1_545
Lu8 Y3 3.491439 1_455
Lu8 Y2 3.491439 1_545
Lu8 Y0 3.491439 1_455
Lu9 Y1 3.491439 1_554
Lu9 Y3 3.491439 1_554
Lu9 Y2 3.491439 1_555
Lu9 Y0 3.491439 1_555
Al0 Al3 2.900778 1_555
Al0 Al2 2.900778 1_555
Al0 Al1 2.900778 1_555
Al0 Y0 3.252188 1_555
Al0 Y2 3.252188 1_555
Al0 Y4 3.252188 1_555
Al0 Lu3 3.298490 1_555
Al0 Lu2 3.298490 1_555
Al0 Lu1 3.298490 1_555
Al0 Lu5 3.367232 1_555
Al0 Lu7 3.367232 1_555
Al0 Lu9 3.367233 1_555
Al1 Al3 2.900778 1_555
Al1 Al2 2.900778 1_555
Al1 Y3 3.252192 1_554
Al1 Y1 3.252193 1_554
Al1 Y4 3.252198 1_554
Al1 Lu3 3.298486 1_555
Al1 Lu2 3.298486 1_555
Al1 Lu0 3.298494 1_555
Al1 Lu9 3.367228 1_555
Al1 Lu6 3.367236 1_555
Al1 Lu4 3.367236 1_555
Al2 Al3 2.900778 1_555
Al2 Y5 3.252192 1_545
Al2 Y1 3.252193 1_545
Al2 Y2 3.252197 1_545
Al2 Lu3 3.298486 1_555
Al2 Lu1 3.298486 1_555
Al2 Lu0 3.298494 1_555
Al2 Lu7 3.367228 1_555
Al2 Lu8 3.367236 1_555
Al2 Lu4 3.367237 1_555
Al3 Y5 3.252192 1_455
Al3 Y3 3.252192 1_455
Al3 Y0 3.252197 1_455
Al3 Lu2 3.298486 1_555
Al3 Lu1 3.298486 1_555
Al3 Lu0 3.298494 1_555
Al3 Lu5 3.367228 1_555
Al3 Lu8 3.367236 1_555
Al3 Lu6 3.367237 1_555
Ir0 Lu4 2.732405 1_455
Ir0 Lu6 2.732405 1_545
Ir0 Lu8 2.732405 1_554
Ir0 Lu1 2.794109 1_554
Ir0 Lu2 2.794109 1_545
Ir0 Lu3 2.794109 1_455
Ir0 Y1 3.355355 1_544
Ir0 Y3 3.355355 1_454
Ir0 Y5 3.355355 1_445
Ir1 Lu7 2.732408 1_455
Ir1 Lu5 2.732408 1_545
Ir1 Lu8 2.732414 1_555
Ir1 Lu2 2.794102 1_545
Ir1 Lu3 2.794102 1_455
Ir1 Lu0 2.794108 1_555
Ir1 Y5 3.355349 1_445
Ir1 Y2 3.355357 1_545
Ir1 Y0 3.355357 1_455
Ir2 Lu9 2.732408 1_455
Ir2 Lu5 2.732408 1_554
Ir2 Lu6 2.732414 1_555
Ir2 Lu3 2.794102 1_455
Ir2 Lu1 2.794102 1_554
Ir2 Lu0 2.794109 1_555
Ir2 Y3 3.355349 1_454
Ir2 Y4 3.355357 1_554
Ir2 Y0 3.355357 1_455
Ir3 Lu9 2.732408 1_545
Ir3 Lu7 2.732408 1_554
Ir3 Lu4 2.732414 1_555
Ir3 Lu2 2.794102 1_545
Ir3 Lu1 2.794102 1_554
Ir3 Lu0 2.794108 1_555
Ir3 Y1 3.355349 1_544
Ir3 Y4 3.355357 1_554
Ir3 Y2 3.355357 1_545
