# generated using pymatgen
data_K2Ba(NbBr3)6
_symmetry_space_group_name_H-M   'P 1'
_cell_length_a   10.94387864
_cell_length_b   10.94387879
_cell_length_c   10.94387939
_cell_angle_alpha   54.57805982
_cell_angle_beta   54.57806044
_cell_angle_gamma   54.57805599
_symmetry_Int_Tables_number   1
_chemical_formula_structural   K2Ba(NbBr3)6
_chemical_formula_sum   'K2 Ba1 Nb6 Br18'
_cell_volume   809.70826828
_cell_formula_units_Z   1
loop_
 _symmetry_equiv_pos_site_id
 _symmetry_equiv_pos_as_xyz
  1  'x, y, z'
loop_
 _atom_site_type_symbol
 _atom_site_label
 _atom_site_symmetry_multiplicity
 _atom_site_fract_x
 _atom_site_fract_y
 _atom_site_fract_z
 _atom_site_occupancy
  K  K0  1  0.22062505  0.22062505  0.22062505  1
  K  K1  1  0.77937495  0.77937495  0.77937495  1
  Ba  Ba0  1  0.50000000  0.50000000  0.50000000  1
  Nb  Nb0  1  0.93591607  0.79711790  0.13699440  1
  Nb  Nb1  1  0.06408393  0.20288210  0.86300560  1
  Nb  Nb2  1  0.13699440  0.93591607  0.79711790  1
  Nb  Nb3  1  0.86300560  0.06408393  0.20288210  1
  Nb  Nb4  1  0.79711790  0.13699440  0.93591607  1
  Nb  Nb5  1  0.20288210  0.86300560  0.06408393  1
  Br  Br0  1  0.14352550  0.48508008  0.67883205  1
  Br  Br1  1  0.91832451  0.08711023  0.67288174  1
  Br  Br2  1  0.32711826  0.08167549  0.91288977  1
  Br  Br3  1  0.67288174  0.91832451  0.08711023  1
  Br  Br4  1  0.58467114  0.24902367  0.16803342  1
  Br  Br5  1  0.08711023  0.67288174  0.91832451  1
  Br  Br6  1  0.67883205  0.14352550  0.48508008  1
  Br  Br7  1  0.75097633  0.83196658  0.41532886  1
  Br  Br8  1  0.41532886  0.75097633  0.83196658  1
  Br  Br9  1  0.32116795  0.85647450  0.51491992  1
  Br  Br10  1  0.24902367  0.16803342  0.58467114  1
  Br  Br11  1  0.83196658  0.41532886  0.75097633  1
  Br  Br12  1  0.08167549  0.91288977  0.32711826  1
  Br  Br13  1  0.51491992  0.32116795  0.85647450  1
  Br  Br14  1  0.16803342  0.58467114  0.24902367  1
  Br  Br15  1  0.91288977  0.32711826  0.08167549  1
  Br  Br16  1  0.85647450  0.51491992  0.32116795  1
  Br  Br17  1  0.48508008  0.67883205  0.14352550  1
loop_
_geom_bond_atom_site_label_1
_geom_bond_atom_site_label_2
_geom_bond_distance
_geom_bond_site_symmetry_2
Ba0 Br9 3.254821 1_555
Ba0 Br6 3.254821 1_555
Ba0 Br16 3.254821 1_555
Ba0 Br0 3.254821 1_555
Ba0 Br13 3.254822 1_555
Ba0 Br17 3.254822 1_555
Br0 Nb1 2.867349 1_555
Br0 K1 3.407663 1_455
Br1 Nb2 2.624332 1_645
Br1 Nb4 2.626785 1_555
Br1 K1 3.787499 1_545
Br1 K0 3.976989 1_655
Br2 Nb5 2.624333 1_546
Br2 Nb1 2.626784 1_555
Br2 K0 3.787499 1_556
Br2 K1 3.976988 1_545
Br3 Nb4 2.624333 1_564
Br3 Nb0 2.626784 1_555
Br3 K1 3.787499 1_554
Br3 K0 3.976988 1_565
Br4 Nb4 2.611776 1_554
Br4 Nb3 2.612603 1_555
Br4 K0 3.856242 1_555
Br5 Nb0 2.624333 1_456
Br5 Nb2 2.626784 1_555
Br5 K1 3.787499 1_455
Br5 K0 3.976988 1_556
Br6 Nb3 2.867349 1_555
Br6 K1 3.407664 1_545
Br7 Nb3 2.611776 1_565
Br7 Nb0 2.612603 1_555
Br7 K1 3.856243 1_555
Br8 Nb5 2.611776 1_556
Br8 Nb2 2.612603 1_555
Br8 K1 3.856242 1_555
Br9 Nb2 2.867349 1_555
Br9 K0 3.407664 1_565
Br10 Nb2 2.611776 1_545
Br10 Nb1 2.612603 1_555
Br10 K0 3.856243 1_555
Br11 Nb1 2.611776 1_655
Br11 Nb4 2.612603 1_555
Br11 K1 3.856242 1_555
Br12 Nb3 2.624332 1_465
Br12 Nb5 2.626785 1_555
Br12 K0 3.787499 1_565
Br12 K1 3.976989 1_455
Br13 Nb4 2.867349 1_555
Br13 K0 3.407664 1_556
Br14 Nb0 2.611776 1_455
Br14 Nb5 2.612603 1_555
Br14 K0 3.856242 1_555
Br15 Nb1 2.624333 1_654
Br15 Nb3 2.626784 1_555
Br15 K0 3.787499 1_655
Br15 K1 3.976988 1_554
Br16 Nb0 2.867349 1_555
Br16 K0 3.407663 1_655
Br17 Nb5 2.867349 1_555
Br17 K1 3.407664 1_554
