# generated using pymatgen
data_Lu4Zn(SiIr)6
_symmetry_space_group_name_H-M   'P 1'
_cell_length_a   7.05569894
_cell_length_b   7.05569880
_cell_length_c   7.05569983
_cell_angle_alpha   109.69244111
_cell_angle_beta   109.69244033
_cell_angle_gamma   109.02967762
_symmetry_Int_Tables_number   1
_chemical_formula_structural   Lu4Zn(SiIr)6
_chemical_formula_sum   'Lu4 Zn1 Si6 Ir6'
_cell_volume   270.38274314
_cell_formula_units_Z   1
loop_
 _symmetry_equiv_pos_site_id
 _symmetry_equiv_pos_as_xyz
  1  'x, y, z'
loop_
 _atom_site_type_symbol
 _atom_site_label
 _atom_site_symmetry_multiplicity
 _atom_site_fract_x
 _atom_site_fract_y
 _atom_site_fract_z
 _atom_site_occupancy
  Lu  Lu0  1  0.00289449  0.99710551  0.50000000  1
  Lu  Lu1  1  0.00289449  0.50289449  0.00578899  1
  Lu  Lu2  1  0.49710551  0.99710551  0.99421101  1
  Lu  Lu3  1  0.49710551  0.50289449  0.50000000  1
  Zn  Zn0  1  0.75000000  0.25000000  0.50000000  1
  Si  Si0  1  0.67310887  0.67310887  1.00000000  1
  Si  Si1  1  0.30811170  0.99159163  0.31652007  1
  Si  Si2  1  0.00840837  0.32492943  0.31652007  1
  Si  Si3  1  0.32689113  0.32689113  0.00000000  1
  Si  Si4  1  0.67507057  0.99159163  0.68347993  1
  Si  Si5  1  0.00840837  0.69188830  0.68347993  1
  Ir  Ir0  1  0.74735951  0.49135267  0.25600684  1
  Ir  Ir1  1  0.50864733  0.25264049  0.74399316  1
  Ir  Ir2  1  0.23534584  0.49135267  0.74399316  1
  Ir  Ir3  1  0.25000000  0.75000000  0.50000000  1
  Ir  Ir4  1  0.50864733  0.76465416  0.25600684  1
  Ir  Ir5  1  0.00000000  0.00000000  0.00000000  1
loop_
_geom_bond_atom_site_label_1
_geom_bond_atom_site_label_2
_geom_bond_distance
_geom_bond_site_symmetry_2
Lu0 Si5 2.866126 1_555
Lu0 Si1 2.866126 1_555
Lu0 Zn0 2.905866 1_465
Lu0 Si3 2.941038 1_566
Lu0 Si0 2.941038 1_454
Lu0 Si2 3.003474 1_565
Lu0 Si4 3.003474 1_455
Lu1 Si2 2.866121 1_555
Lu1 Si1 2.866126 1_555
Lu1 Zn0 2.905867 1_454
Lu1 Si3 2.941037 1_555
Lu1 Si0 2.941037 1_454
Lu1 Si5 3.003467 1_554
Lu1 Si4 3.003468 1_444
Lu2 Si4 2.866121 1_555
Lu2 Si5 2.866126 1_555
Lu2 Zn0 2.905867 1_566
Lu2 Si3 2.941037 1_566
Lu2 Si0 2.941037 1_555
Lu2 Si1 3.003467 1_556
Lu2 Si2 3.003468 1_666
Lu3 Si4 2.866127 1_555
Lu3 Si2 2.866127 1_555
Lu3 Zn0 2.905866 1_555
Lu3 Si3 2.941038 1_555
Lu3 Si0 2.941038 1_555
Lu3 Si1 3.003467 1_545
Lu3 Si5 3.003467 1_655
Si1 Zn0 2.589032 1_565
Si2 Zn0 2.589033 1_455
Si4 Zn0 2.589033 1_565
Si5 Zn0 2.589032 1_455
Ir0 Si3 2.478210 1_555
Ir0 Si2 2.484336 1_655
Ir0 Si5 2.484342 1_655
Ir0 Si0 2.557990 1_554
Ir0 Zn0 2.799784 1_555
Ir0 Lu2 2.852368 1_544
Ir0 Lu3 2.852368 1_555
Ir0 Lu0 2.919003 1_655
Ir0 Lu1 2.919003 1_655
Ir1 Si0 2.478210 1_555
Ir1 Si4 2.484336 1_545
Ir1 Si1 2.484342 1_545
Ir1 Si3 2.557990 1_556
Ir1 Zn0 2.799784 1_555
Ir1 Lu1 2.852368 1_656
Ir1 Lu3 2.852368 1_555
Ir1 Lu0 2.919003 1_545
Ir1 Lu2 2.919003 1_545
Ir2 Si3 2.478210 1_556
Ir2 Si5 2.484342 1_555
Ir2 Si2 2.484343 1_555
Ir2 Si0 2.557990 1_555
Ir2 Zn0 2.799784 1_455
Ir2 Lu0 2.852368 1_545
Ir2 Lu1 2.852368 1_556
Ir2 Lu2 2.919003 1_555
Ir2 Lu3 2.919003 1_555
Ir3 Si2 2.477669 1_555
Ir3 Si4 2.477669 1_555
Ir3 Si1 2.477675 1_555
Ir3 Si5 2.477675 1_555
Ir3 Lu3 2.839348 1_555
Ir3 Lu0 2.839348 1_555
Ir3 Lu2 2.839349 1_555
Ir3 Lu1 2.839349 1_555
Ir4 Si0 2.478210 1_554
Ir4 Si1 2.484342 1_555
Ir4 Si4 2.484343 1_555
Ir4 Si3 2.557990 1_555
Ir4 Zn0 2.799784 1_565
Ir4 Lu0 2.852368 1_655
Ir4 Lu2 2.852368 1_554
Ir4 Lu1 2.919003 1_555
Ir4 Lu3 2.919003 1_555
Ir5 Si5 2.572636 1_544
Ir5 Si1 2.572636 1_545
Ir5 Si2 2.572640 1_555
Ir5 Si4 2.572640 1_444
Ir5 Si0 2.677747 1_444
Ir5 Si3 2.677747 1_555
