# generated using pymatgen
data_Nb4Cu2C
_symmetry_space_group_name_H-M   'P 1'
_cell_length_a   8.33182674
_cell_length_b   8.33182713
_cell_length_c   8.33182568
_cell_angle_alpha   59.99999787
_cell_angle_beta   59.99999634
_cell_angle_gamma   60.00000136
_symmetry_Int_Tables_number   1
_chemical_formula_structural   Nb4Cu2C
_chemical_formula_sum   'Nb16 Cu8 C4'
_cell_volume   408.98336483
_cell_formula_units_Z   4
loop_
 _symmetry_equiv_pos_site_id
 _symmetry_equiv_pos_as_xyz
  1  'x, y, z'
loop_
 _atom_site_type_symbol
 _atom_site_label
 _atom_site_symmetry_multiplicity
 _atom_site_fract_x
 _atom_site_fract_y
 _atom_site_fract_z
 _atom_site_occupancy
  Nb  Nb0  1  0.12500000  0.62500000  0.62500000  1
  Nb  Nb1  1  0.62500000  0.12500000  0.62500000  1
  Nb  Nb2  1  0.62500000  0.62500000  0.12500000  1
  Nb  Nb3  1  0.62500000  0.62500000  0.62500000  1
  Nb  Nb4  1  0.81546023  0.81546023  0.18453977  1
  Nb  Nb5  1  0.18453977  0.18453977  0.81546023  1
  Nb  Nb6  1  0.81546023  0.18453977  0.81546023  1
  Nb  Nb7  1  0.18453977  0.81546023  0.18453977  1
  Nb  Nb8  1  0.18453977  0.81546023  0.81546023  1
  Nb  Nb9  1  0.81546023  0.18453977  0.18453977  1
  Nb  Nb10  1  0.43453977  0.43453977  0.06546023  1
  Nb  Nb11  1  0.06546023  0.06546023  0.43453977  1
  Nb  Nb12  1  0.43453977  0.06546023  0.43453977  1
  Nb  Nb13  1  0.06546023  0.43453977  0.06546023  1
  Nb  Nb14  1  0.06546023  0.43453977  0.43453977  1
  Nb  Nb15  1  0.43453977  0.06546023  0.06546023  1
  Cu  Cu0  1  0.74635863  0.41788046  0.41788046  1
  Cu  Cu1  1  0.41788046  0.74635863  0.41788046  1
  Cu  Cu2  1  0.41788046  0.41788046  0.74635863  1
  Cu  Cu3  1  0.41788046  0.41788046  0.41788046  1
  Cu  Cu4  1  0.50364137  0.83211954  0.83211954  1
  Cu  Cu5  1  0.83211954  0.50364137  0.83211954  1
  Cu  Cu6  1  0.83211954  0.83211954  0.50364137  1
  Cu  Cu7  1  0.83211954  0.83211954  0.83211954  1
  C  C0  1  0.62500000  0.12500000  0.12500000  1
  C  C1  1  0.12500000  0.62500000  0.12500000  1
  C  C2  1  0.12500000  0.12500000  0.62500000  1
  C  C3  1  0.12500000  0.12500000  0.12500000  1
loop_
_geom_bond_atom_site_label_1
_geom_bond_atom_site_label_2
_geom_bond_distance
_geom_bond_site_symmetry_2
Cu0 Nb2 2.542940 1_555
Cu0 Nb3 2.542940 1_555
Cu0 Nb1 2.542940 1_555
Cu0 Cu2 2.736823 1_555
Cu0 Cu3 2.736823 1_555
Cu0 Cu1 2.736823 1_555
Cu0 Nb13 2.804380 1_655
Cu0 Nb14 2.804380 1_655
Cu0 Nb11 2.804380 1_655
Cu0 Nb6 3.071159 1_555
Cu0 Nb9 3.071159 1_555
Cu0 Nb4 3.071160 1_555
Cu1 Nb2 2.542940 1_555
Cu1 Nb3 2.542940 1_555
Cu1 Nb0 2.542940 1_555
Cu1 Cu2 2.736823 1_555
Cu1 Cu3 2.736823 1_555
Cu1 Nb15 2.804380 1_565
Cu1 Nb11 2.804380 1_565
Cu1 Nb12 2.804380 1_565
Cu1 Nb8 3.071159 1_555
Cu1 Nb7 3.071159 1_555
Cu1 Nb4 3.071159 1_555
Cu2 Nb0 2.542940 1_555
Cu2 Nb3 2.542940 1_555
Cu2 Nb1 2.542941 1_555
Cu2 Cu3 2.736823 1_555
Cu2 Nb10 2.804380 1_556
Cu2 Nb13 2.804380 1_556
Cu2 Nb15 2.804380 1_556
Cu2 Nb6 3.071160 1_555
Cu2 Nb5 3.071160 1_555
Cu2 Nb8 3.071160 1_555
Cu3 Nb2 2.542940 1_555
Cu3 Nb0 2.542940 1_555
Cu3 Nb1 2.542940 1_555
Cu3 Nb10 2.804380 1_555
Cu3 Nb14 2.804380 1_555
Cu3 Nb12 2.804380 1_555
Cu3 Nb5 3.071159 1_555
Cu3 Nb9 3.071159 1_555
Cu3 Nb7 3.071160 1_555
Cu4 Nb2 2.542940 1_556
Cu4 Nb3 2.542940 1_555
Cu4 Nb1 2.542940 1_565
Cu4 Cu6 2.736823 1_555
Cu4 Cu7 2.736823 1_555
Cu4 Cu5 2.736823 1_555
Cu4 Nb7 2.804380 1_556
Cu4 Nb8 2.804380 1_555
Cu4 Nb5 2.804380 1_565
Cu4 Nb12 3.071159 1_565
Cu4 Nb15 3.071159 1_566
Cu4 Nb10 3.071160 1_556
Cu5 Nb2 2.542940 1_556
Cu5 Nb3 2.542940 1_555
Cu5 Nb0 2.542940 1_655
Cu5 Cu6 2.736823 1_555
Cu5 Cu7 2.736823 1_555
Cu5 Nb9 2.804380 1_556
Cu5 Nb5 2.804380 1_655
Cu5 Nb6 2.804380 1_555
Cu5 Nb14 3.071159 1_655
Cu5 Nb13 3.071159 1_656
Cu5 Nb10 3.071159 1_556
Cu6 Nb0 2.542940 1_655
Cu6 Nb3 2.542940 1_555
Cu6 Nb1 2.542941 1_565
Cu6 Cu7 2.736823 1_555
Cu6 Nb4 2.804380 1_555
Cu6 Nb7 2.804380 1_655
Cu6 Nb9 2.804380 1_565
Cu6 Nb12 3.071160 1_565
Cu6 Nb11 3.071160 1_665
Cu6 Nb14 3.071160 1_655
Cu7 Nb2 2.542940 1_556
Cu7 Nb0 2.542940 1_655
Cu7 Nb1 2.542940 1_565
Cu7 Nb4 2.804380 1_556
Cu7 Nb8 2.804380 1_655
Cu7 Nb6 2.804380 1_565
Cu7 Nb11 3.071159 1_665
Cu7 Nb15 3.071159 1_566
Cu7 Nb13 3.071160 1_656
C0 Nb12 2.197928 1_555
C0 Nb6 2.197928 1_554
C0 Nb9 2.197928 1_555
C0 Nb15 2.197928 1_555
C0 Nb10 2.197929 1_555
C0 Nb4 2.197929 1_545
C1 Nb14 2.197928 1_555
C1 Nb8 2.197928 1_554
C1 Nb7 2.197928 1_555
C1 Nb13 2.197928 1_555
C1 Nb4 2.197928 1_455
C1 Nb10 2.197928 1_555
C2 Nb5 2.197928 1_555
C2 Nb11 2.197928 1_555
C2 Nb12 2.197928 1_555
C2 Nb6 2.197928 1_455
C2 Nb14 2.197928 1_555
C2 Nb8 2.197928 1_545
C3 Nb11 2.197928 1_555
C3 Nb5 2.197928 1_554
C3 Nb15 2.197928 1_555
C3 Nb9 2.197928 1_455
C3 Nb13 2.197929 1_555
C3 Nb7 2.197929 1_545
