# generated using pymatgen
data_Ti3Al2CuN
_symmetry_space_group_name_H-M   'P 1'
_cell_length_a   8.07058439
_cell_length_b   8.07058432
_cell_length_c   8.07058376
_cell_angle_alpha   59.99999418
_cell_angle_beta   59.99999450
_cell_angle_gamma   59.99999135
_symmetry_Int_Tables_number   1
_chemical_formula_structural   Ti3Al2CuN
_chemical_formula_sum   'Ti12 Al8 Cu4 N4'
_cell_volume   371.70623706
_cell_formula_units_Z   4
loop_
 _symmetry_equiv_pos_site_id
 _symmetry_equiv_pos_as_xyz
  1  'x, y, z'
loop_
 _atom_site_type_symbol
 _atom_site_label
 _atom_site_symmetry_multiplicity
 _atom_site_fract_x
 _atom_site_fract_y
 _atom_site_fract_z
 _atom_site_occupancy
  Ti  Ti0  1  0.80561412  0.44438688  0.44438688  1
  Ti  Ti1  1  0.44438688  0.80561412  0.80561412  1
  Ti  Ti2  1  0.44438688  0.80561412  0.44438688  1
  Ti  Ti3  1  0.44438688  0.44438688  0.80561412  1
  Ti  Ti4  1  0.80561412  0.44438688  0.80561412  1
  Ti  Ti5  1  0.80561412  0.80561412  0.44438688  1
  Ti  Ti6  1  0.55561412  0.19438588  0.55561412  1
  Ti  Ti7  1  0.19438588  0.55561412  0.19438588  1
  Ti  Ti8  1  0.19438588  0.55561412  0.55561412  1
  Ti  Ti9  1  0.55561412  0.55561412  0.19438588  1
  Ti  Ti10  1  0.55561412  0.19438588  0.19438588  1
  Ti  Ti11  1  0.19438588  0.19438588  0.55561412  1
  Al  Al0  1  0.20836277  0.20836277  0.20836277  1
  Al  Al1  1  0.20836277  0.20836277  0.87491370  1
  Al  Al2  1  0.87491370  0.20836277  0.20836277  1
  Al  Al3  1  0.20836277  0.87491370  0.20836277  1
  Al  Al4  1  0.79163823  0.79163823  0.79163823  1
  Al  Al5  1  0.79163823  0.79163823  0.12508630  1
  Al  Al6  1  0.79163823  0.12508630  0.79163823  1
  Al  Al7  1  0.12508630  0.79163823  0.79163823  1
  Cu  Cu0  1  0.00000000  0.00000000  0.00000000  1
  Cu  Cu1  1  0.00000000  0.00000000  0.50000000  1
  Cu  Cu2  1  0.50000000  0.00000000  0.00000000  1
  Cu  Cu3  1  0.00000000  0.50000000  0.00000000  1
  N  N0  1  0.50000000  0.50000000  0.50000000  1
  N  N1  1  0.50000000  0.50000000  0.00000000  1
  N  N2  1  0.00000000  0.50000000  0.50000000  1
  N  N3  1  0.50000000  0.00000000  0.50000000  1
loop_
_geom_bond_atom_site_label_1
_geom_bond_atom_site_label_2
_geom_bond_distance
_geom_bond_site_symmetry_2
Al0 Cu3 2.471295 1_555
Al0 Cu2 2.471295 1_555
Al0 Cu1 2.471296 1_555
Al0 Al1 2.691129 1_554
Al0 Al3 2.691129 1_545
Al0 Al2 2.691129 1_455
Al0 Ti11 2.694446 1_555
Al0 Ti7 2.694446 1_555
Al0 Ti10 2.694446 1_555
Al0 Ti2 3.011224 1_545
Al0 Ti0 3.011224 1_455
Al0 Ti3 3.011224 1_554
Al1 Cu3 2.471287 1_556
Al1 Cu2 2.471287 1_556
Al1 Cu0 2.471300 1_556
Al1 Al3 2.691128 1_546
Al1 Al2 2.691128 1_456
Al1 Ti8 2.694453 1_555
Al1 Ti6 2.694453 1_555
Al1 Ti11 2.694462 1_555
Al1 Ti1 3.011224 1_545
Al1 Ti4 3.011224 1_455
Al1 Ti3 3.011224 1_555
Al2 Cu1 2.471287 1_655
Al2 Cu3 2.471287 1_655
Al2 Cu0 2.471300 1_655
Al2 Al3 2.691128 1_645
Al2 Ti9 2.694453 1_555
Al2 Ti6 2.694453 1_555
Al2 Ti10 2.694462 1_555
Al2 Ti4 3.011224 1_554
Al2 Ti5 3.011224 1_545
Al2 Ti0 3.011224 1_555
Al3 Cu1 2.471287 1_565
Al3 Cu2 2.471287 1_565
Al3 Cu0 2.471300 1_565
Al3 Ti9 2.694453 1_555
Al3 Ti8 2.694453 1_555
Al3 Ti7 2.694462 1_555
Al3 Ti1 3.011224 1_554
Al3 Ti5 3.011224 1_455
Al3 Ti2 3.011224 1_555
Al4 Cu3 2.471289 1_656
Al4 Cu2 2.471289 1_566
Al4 Cu1 2.471289 1_665
Al4 Al5 2.691121 1_556
Al4 Al6 2.691121 1_565
Al4 Al7 2.691121 1_655
Al4 Ti5 2.694453 1_555
Al4 Ti4 2.694454 1_555
Al4 Ti1 2.694454 1_555
Al4 Ti6 3.011220 1_565
Al4 Ti8 3.011220 1_655
Al4 Ti9 3.011220 1_556
Al5 Cu0 2.471287 1_665
Al5 Cu3 2.471293 1_655
Al5 Cu2 2.471293 1_565
Al5 Al6 2.691120 1_564
Al5 Al7 2.691120 1_654
Al5 Ti0 2.694457 1_555
Al5 Ti2 2.694457 1_555
Al5 Ti5 2.694462 1_555
Al5 Ti10 3.011217 1_565
Al5 Ti7 3.011217 1_655
Al5 Ti9 3.011224 1_555
Al6 Cu0 2.471287 1_656
Al6 Cu1 2.471293 1_655
Al6 Cu2 2.471293 1_556
Al6 Al7 2.691120 1_645
Al6 Ti3 2.694457 1_555
Al6 Ti0 2.694457 1_555
Al6 Ti4 2.694462 1_555
Al6 Ti10 3.011217 1_556
Al6 Ti11 3.011217 1_655
Al6 Ti6 3.011224 1_555
Al7 Cu0 2.471287 1_566
Al7 Cu1 2.471293 1_565
Al7 Cu3 2.471293 1_556
Al7 Ti3 2.694457 1_555
Al7 Ti2 2.694457 1_555
Al7 Ti1 2.694462 1_555
Al7 Ti7 3.011217 1_556
Al7 Ti11 3.011217 1_565
Al7 Ti8 3.011224 1_555
Cu0 Ti11 2.998868 1_554
Cu0 Ti7 2.998868 1_545
Cu0 Ti10 2.998868 1_455
Cu0 Ti5 2.998873 1_445
Cu0 Ti4 2.998873 1_454
Cu0 Ti1 2.998873 1_544
Cu1 Ti5 2.998863 1_445
Cu1 Ti8 2.998868 1_545
Cu1 Ti6 2.998868 1_455
Cu1 Ti11 2.998868 1_555
Cu1 Ti0 2.998876 1_455
Cu1 Ti2 2.998876 1_545
Cu2 Ti1 2.998863 1_544
Cu2 Ti6 2.998868 1_554
Cu2 Ti9 2.998868 1_545
Cu2 Ti10 2.998868 1_555
Cu2 Ti2 2.998876 1_545
Cu2 Ti3 2.998876 1_554
Cu3 Ti4 2.998863 1_454
Cu3 Ti8 2.998868 1_554
Cu3 Ti9 2.998868 1_455
Cu3 Ti7 2.998868 1_555
Cu3 Ti0 2.998876 1_455
Cu3 Ti3 2.998876 1_554
N0 Ti9 2.115137 1_555
N0 Ti6 2.115138 1_555
N0 Ti8 2.115138 1_555
N0 Ti3 2.115142 1_555
N0 Ti2 2.115142 1_555
N0 Ti0 2.115142 1_555
N1 Ti3 2.115127 1_554
N1 Ti10 2.115138 1_555
N1 Ti1 2.115138 1_554
N1 Ti7 2.115138 1_555
N1 Ti4 2.115138 1_554
N1 Ti9 2.115138 1_555
N2 Ti0 2.115127 1_455
N2 Ti7 2.115137 1_555
N2 Ti4 2.115137 1_455
N2 Ti11 2.115137 1_555
N2 Ti5 2.115137 1_455
N2 Ti8 2.115138 1_555
N3 Ti2 2.115127 1_545
N3 Ti10 2.115137 1_555
N3 Ti1 2.115137 1_545
N3 Ti11 2.115137 1_555
N3 Ti5 2.115137 1_545
N3 Ti6 2.115138 1_555
