# generated using pymatgen
data_Tm3Ga5
_symmetry_space_group_name_H-M   'P 1'
_cell_length_a   6.00450280
_cell_length_b   9.48572251
_cell_length_c   11.25817268
_cell_angle_alpha   90.00000000
_cell_angle_beta   90.00000000
_cell_angle_gamma   90.00000000
_symmetry_Int_Tables_number   1
_chemical_formula_structural   Tm3Ga5
_chemical_formula_sum   'Tm12 Ga20'
_cell_volume   641.23227465
_cell_formula_units_Z   4
loop_
 _symmetry_equiv_pos_site_id
 _symmetry_equiv_pos_as_xyz
  1  'x, y, z'
loop_
 _atom_site_type_symbol
 _atom_site_label
 _atom_site_symmetry_multiplicity
 _atom_site_fract_x
 _atom_site_fract_y
 _atom_site_fract_z
 _atom_site_occupancy
  Tm  Tm0  1  0.34881697  0.75000000  0.92440048  1
  Tm  Tm1  1  0.84881697  0.25000000  0.57559952  1
  Tm  Tm2  1  0.65118303  0.25000000  0.07559952  1
  Tm  Tm3  1  0.15118303  0.75000000  0.42440048  1
  Tm  Tm4  1  0.88972665  0.01007645  0.85178010  1
  Tm  Tm5  1  0.38972665  0.98992355  0.64821990  1
  Tm  Tm6  1  0.11027435  0.51007645  0.14821990  1
  Tm  Tm7  1  0.61027335  0.48992355  0.35178010  1
  Tm  Tm8  1  0.11027435  0.98992355  0.14821990  1
  Tm  Tm9  1  0.61027335  0.01007645  0.35178010  1
  Tm  Tm10  1  0.88972665  0.48992355  0.85178010  1
  Tm  Tm11  1  0.38972665  0.51007645  0.64821990  1
  Ga  Ga0  1  0.62666995  0.75000000  0.49453695  1
  Ga  Ga1  1  0.12666995  0.25000000  0.00546305  1
  Ga  Ga2  1  0.37333005  0.25000000  0.50546305  1
  Ga  Ga3  1  0.87333005  0.75000000  0.99453695  1
  Ga  Ga4  1  0.67574316  0.75000000  0.74759502  1
  Ga  Ga5  1  0.17574316  0.25000000  0.75240498  1
  Ga  Ga6  1  0.32425684  0.25000000  0.25240498  1
  Ga  Ga7  1  0.82425684  0.75000000  0.24759502  1
  Ga  Ga8  1  0.10166835  0.75000000  0.69921345  1
  Ga  Ga9  1  0.60166835  0.25000000  0.80078655  1
  Ga  Ga10  1  0.89833165  0.25000000  0.30078655  1
  Ga  Ga11  1  0.39833165  0.75000000  0.19921345  1
  Ga  Ga12  1  0.87355498  0.94676563  0.59057927  1
  Ga  Ga13  1  0.37355498  0.05323437  0.90942073  1
  Ga  Ga14  1  0.12644502  0.44676563  0.40942073  1
  Ga  Ga15  1  0.62644502  0.55323437  0.09057927  1
  Ga  Ga16  1  0.12644502  0.05323437  0.40942073  1
  Ga  Ga17  1  0.62644502  0.94676563  0.09057927  1
  Ga  Ga18  1  0.87355498  0.55323437  0.59057927  1
  Ga  Ga19  1  0.37355498  0.44676563  0.90942073  1
loop_
_geom_bond_atom_site_label_1
_geom_bond_atom_site_label_2
_geom_bond_distance
_geom_bond_site_symmetry_2
Ga0 Ga12 2.617325 1_555
Ga0 Ga18 2.617325 1_555
Ga0 Ga4 2.864169 1_555
Ga0 Tm9 2.945994 1_565
Ga0 Tm7 2.945994 1_555
Ga0 Tm3 2.962240 1_555
Ga0 Ga7 3.022683 1_555
Ga0 Tm5 3.193304 1_555
Ga0 Tm11 3.193304 1_555
Ga0 Tm3 3.246915 1_655
Ga1 Ga13 2.617325 1_554
Ga1 Ga19 2.617325 1_554
Ga1 Ga5 2.864169 1_554
Ga1 Tm8 2.945993 1_545
Ga1 Tm6 2.945993 1_555
Ga1 Tm2 2.962240 1_455
Ga1 Ga6 3.022683 1_555
Ga1 Tm10 3.193304 1_454
Ga1 Tm4 3.193304 1_454
Ga1 Tm2 3.246915 1_555
Ga2 Ga6 2.864169 1_555
Ga2 Tm11 2.945994 1_555
Ga2 Tm5 2.945994 1_545
Ga2 Tm1 2.962240 1_555
Ga2 Ga5 3.022683 1_555
Ga2 Tm7 3.193304 1_555
Ga2 Tm9 3.193304 1_555
Ga2 Tm1 3.246915 1_455
Ga3 Ga7 2.864169 1_556
Ga3 Tm4 2.945994 1_565
Ga3 Tm10 2.945994 1_555
Ga3 Tm0 2.962240 1_655
Ga3 Ga4 3.022683 1_555
Ga3 Tm8 3.193307 1_656
Ga3 Tm6 3.193307 1_656
Ga3 Tm0 3.246915 1_555
Ga4 Ga8 2.614829 1_655
Ga4 Tm0 2.795639 1_555
Ga4 Tm4 3.018742 1_565
Ga4 Tm10 3.018742 1_555
Ga4 Tm5 3.062773 1_555
Ga4 Tm11 3.062773 1_555
Ga5 Ga9 2.614829 1_555
Ga5 Tm1 2.795639 1_455
Ga5 Tm11 3.018742 1_555
Ga5 Tm5 3.018742 1_545
Ga5 Tm4 3.062773 1_455
Ga5 Tm10 3.062773 1_455
Ga6 Tm2 2.795639 1_555
Ga6 Tm8 3.018739 1_545
Ga6 Tm6 3.018739 1_555
Ga6 Tm7 3.062773 1_555
Ga6 Tm9 3.062773 1_555
Ga7 Tm3 2.795639 1_655
Ga7 Tm9 3.018742 1_565
Ga7 Tm7 3.018742 1_555
Ga7 Tm6 3.062776 1_655
Ga7 Tm8 3.062776 1_655
Ga8 Tm5 2.915604 1_555
Ga8 Tm11 2.915604 1_555
Ga8 Tm0 2.937598 1_555
Ga8 Tm3 3.108144 1_555
Ga8 Tm4 3.264338 1_465
Ga8 Tm10 3.264338 1_455
Ga9 Tm10 2.915604 1_555
Ga9 Tm4 2.915604 1_555
Ga9 Tm1 2.937598 1_555
Ga9 Tm2 3.108144 1_556
Ga9 Tm11 3.264338 1_555
Ga9 Tm5 3.264338 1_545
Ga10 Ga6 2.614829 1_655
Ga10 Ga16 2.618314 1_655
Ga10 Ga14 2.618314 1_655
Ga10 Tm7 2.915604 1_555
Ga10 Tm9 2.915604 1_555
Ga10 Tm2 2.937598 1_555
Ga10 Tm1 3.108144 1_555
Ga10 Tm8 3.264340 1_645
Ga10 Tm6 3.264340 1_655
Ga11 Ga7 2.614829 1_555
Ga11 Ga15 2.618314 1_555
Ga11 Ga17 2.618314 1_555
Ga11 Tm8 2.915601 1_555
Ga11 Tm6 2.915601 1_555
Ga11 Tm3 2.937598 1_555
Ga11 Tm0 3.108144 1_554
Ga11 Tm9 3.264338 1_565
Ga11 Tm7 3.264338 1_555
Ga12 Ga8 2.618314 1_655
Ga12 Ga16 2.735939 1_665
Ga12 Ga4 2.831831 1_555
Ga12 Tm1 2.885163 1_565
Ga12 Tm4 3.002911 1_565
Ga12 Tm5 3.004761 1_555
Ga12 Tm3 3.124547 1_655
Ga12 Tm9 3.176090 1_565
Ga12 Tm5 3.192914 1_655
Ga13 Ga9 2.618314 1_555
Ga13 Ga17 2.735939 1_546
Ga13 Ga5 2.831831 1_555
Ga13 Tm0 2.885163 1_545
Ga13 Tm5 3.002911 1_545
Ga13 Tm4 3.004761 1_455
Ga13 Tm2 3.124547 1_556
Ga13 Tm8 3.176087 1_546
Ga13 Tm4 3.192914 1_555
Ga14 Ga2 2.617325 1_555
Ga14 Ga18 2.735939 1_455
Ga14 Ga6 2.831831 1_555
Ga14 Tm3 2.885163 1_555
Ga14 Tm6 3.002911 1_555
Ga14 Tm7 3.004761 1_555
Ga14 Tm1 3.124547 1_455
Ga14 Tm11 3.176090 1_555
Ga14 Tm7 3.192914 1_455
Ga15 Ga3 2.617325 1_554
Ga15 Ga19 2.735939 1_554
Ga15 Ga7 2.831831 1_555
Ga15 Tm2 2.885163 1_555
Ga15 Tm7 3.002911 1_555
Ga15 Tm6 3.004767 1_655
Ga15 Tm0 3.124547 1_554
Ga15 Tm10 3.176090 1_554
Ga15 Tm6 3.192908 1_555
Ga16 Ga2 2.617325 1_555
Ga16 Ga6 2.831831 1_555
Ga16 Tm3 2.885163 1_545
Ga16 Tm8 3.002911 1_545
Ga16 Tm9 3.004761 1_555
Ga16 Tm1 3.124547 1_455
Ga16 Tm5 3.176090 1_545
Ga16 Tm9 3.192914 1_455
Ga17 Ga3 2.617325 1_554
Ga17 Ga7 2.831831 1_555
Ga17 Tm2 2.885163 1_565
Ga17 Tm9 3.002911 1_565
Ga17 Tm8 3.004767 1_655
Ga17 Tm0 3.124547 1_554
Ga17 Tm4 3.176090 1_564
Ga17 Tm8 3.192908 1_555
Ga18 Ga8 2.618314 1_655
Ga18 Ga4 2.831831 1_555
Ga18 Tm1 2.885163 1_555
Ga18 Tm10 3.002911 1_555
Ga18 Tm11 3.004761 1_555
Ga18 Tm3 3.124547 1_655
Ga18 Tm7 3.176090 1_555
Ga18 Tm11 3.192914 1_655
Ga19 Ga9 2.618314 1_555
Ga19 Ga5 2.831831 1_555
Ga19 Tm0 2.885163 1_555
Ga19 Tm11 3.002911 1_555
Ga19 Tm10 3.004761 1_455
Ga19 Tm2 3.124547 1_556
Ga19 Tm6 3.176087 1_556
Ga19 Tm10 3.192914 1_555
