# generated using pymatgen
data_Dy11Sn10
_symmetry_space_group_name_H-M   'P 1'
_cell_length_a   11.58625094
_cell_length_b   11.58609749
_cell_length_c   11.82352011
_cell_angle_alpha   119.34010178
_cell_angle_beta   119.33836362
_cell_angle_gamma   90.00000489
_symmetry_Int_Tables_number   1
_chemical_formula_structural   Dy11Sn10
_chemical_formula_sum   'Dy22 Sn20'
_cell_volume   1144.35777884
_cell_formula_units_Z   2
loop_
 _symmetry_equiv_pos_site_id
 _symmetry_equiv_pos_as_xyz
  1  'x, y, z'
loop_
 _atom_site_type_symbol
 _atom_site_label
 _atom_site_symmetry_multiplicity
 _atom_site_fract_x
 _atom_site_fract_y
 _atom_site_fract_z
 _atom_site_occupancy
  Dy  Dy0  1  0.27132331  0.60143498  0.20285871  1
  Dy  Dy1  1  0.39857224  0.06845838  0.79714449  1
  Dy  Dy2  1  0.93153540  0.60143498  0.20285871  1
  Dy  Dy3  1  0.60142776  0.93154162  0.20285551  1
  Dy  Dy4  1  0.60142652  0.27134058  0.20285104  1
  Dy  Dy5  1  0.72867669  0.39856502  0.79714129  1
  Dy  Dy6  1  0.06846460  0.39856502  0.79714129  1
  Dy  Dy7  1  0.39857348  0.72865942  0.79714896  1
  Dy  Dy8  1  0.18912074  0.93741483  0.37824249  1
  Dy  Dy9  1  0.55914348  0.81084342  0.62171613  1
  Dy  Dy10  1  0.06257265  0.81084342  0.62171613  1
  Dy  Dy11  1  0.81087926  0.06258517  0.62175751  1
  Dy  Dy12  1  0.81088580  0.55917752  0.62177160  1
  Dy  Dy13  1  0.44085652  0.18915658  0.37828387  1
  Dy  Dy14  1  0.93742735  0.18915658  0.37828387  1
  Dy  Dy15  1  0.18911420  0.44082248  0.37822840  1
  Dy  Dy16  1  0.82558036  0.82557547  -0.00000432  1
  Dy  Dy17  1  0.17441532  0.82557547  -0.00000432  1
  Dy  Dy18  1  0.82558468  0.17442453  0.00000432  1
  Dy  Dy19  1  0.17441964  0.17442453  0.00000432  1
  Dy  Dy20  1  0.66455756  0.66455577  0.32911611  1
  Dy  Dy21  1  0.33544244  0.33544423  0.67088389  1
  Sn  Sn0  1  0.11748742  0.11752209  0.64676524  1
  Sn  Sn1  1  0.47069970  0.47074499  0.35325427  1
  Sn  Sn2  1  0.88251258  0.88247791  0.35323476  1
  Sn  Sn3  1  0.47072218  0.88247791  0.35323476  1
  Sn  Sn4  1  0.88255457  0.47074499  0.35325427  1
  Sn  Sn5  1  0.52927782  0.11752209  0.64676524  1
  Sn  Sn6  1  0.11744543  0.52925501  0.64674573  1
  Sn  Sn7  1  0.52930030  0.52925501  0.64674573  1
  Sn  Sn8  1  0.64520212  -0.00000000  -0.00000000  1
  Sn  Sn9  1  0.99997443  0.64515285  0.99994886  1
  Sn  Sn10  1  0.00002557  0.35484715  0.00005114  1
  Sn  Sn11  1  0.35479788  0.00000000  0.00000000  1
  Sn  Sn12  1  0.62830191  0.62827176  0.00002406  1
  Sn  Sn13  1  0.37172115  0.62827176  0.00002406  1
  Sn  Sn14  1  0.62827885  0.37172824  0.99997594  1
  Sn  Sn15  1  0.37169809  0.37172824  0.99997594  1
  Sn  Sn16  1  0.88572733  0.88572580  0.77145467  1
  Sn  Sn17  1  0.11427267  0.11427420  0.22854533  1
  Sn  Sn18  1  0.75002199  0.25002169  0.50004498  1
  Sn  Sn19  1  0.24997801  0.74997831  0.49995502  1
loop_
_geom_bond_atom_site_label_1
_geom_bond_atom_site_label_2
_geom_bond_distance
_geom_bond_site_symmetry_2
Dy0 Sn3 3.066372 1_555
Dy0 Sn1 3.066654 1_555
Dy0 Sn10 3.113362 1_555
Dy0 Sn9 3.113861 1_454
Dy0 Sn19 3.207669 1_555
Dy0 Sn13 3.265842 1_555
Dy0 Sn15 3.266055 1_554
Dy1 Sn0 3.067067 1_555
Dy1 Sn5 3.067067 1_555
Dy1 Sn11 3.113733 1_556
Dy1 Sn8 3.113733 1_556
Dy1 Sn19 3.208151 1_545
Dy1 Sn15 3.266234 1_555
Dy1 Sn14 3.266239 1_555
Dy2 Sn2 3.066373 1_555
Dy2 Sn4 3.066654 1_555
Dy2 Sn10 3.113362 1_655
Dy2 Sn9 3.113861 1_554
Dy2 Sn19 3.207676 1_655
Dy2 Sn12 3.265850 1_555
Dy2 Sn14 3.266046 1_554
Dy3 Sn2 3.067067 1_555
Dy3 Sn3 3.067067 1_555
Dy3 Sn8 3.113733 1_565
Dy3 Sn11 3.113733 1_565
Dy3 Sn18 3.208151 1_565
Dy3 Sn12 3.266234 1_555
Dy3 Sn13 3.266239 1_555
Dy4 Sn4 3.067104 1_555
Dy4 Sn1 3.067122 1_555
Dy4 Sn8 3.113818 1_555
Dy4 Sn11 3.113830 1_555
Dy4 Sn18 3.208540 1_555
Dy4 Sn14 3.266304 1_554
Dy4 Sn15 3.266309 1_554
Dy5 Sn5 3.066372 1_555
Dy5 Sn7 3.066654 1_555
Dy5 Sn9 3.113362 1_555
Dy5 Sn10 3.113861 1_656
Dy5 Sn18 3.207669 1_555
Dy5 Sn14 3.265842 1_555
Dy5 Sn12 3.266055 1_556
Dy6 Sn0 3.066373 1_555
Dy6 Sn6 3.066654 1_555
Dy6 Sn9 3.113362 1_455
Dy6 Sn10 3.113861 1_556
Dy6 Sn18 3.207676 1_455
Dy6 Sn15 3.265850 1_555
Dy6 Sn13 3.266046 1_556
Dy7 Sn6 3.067104 1_555
Dy7 Sn7 3.067122 1_555
Dy7 Sn11 3.113818 1_566
Dy7 Sn8 3.113830 1_566
Dy7 Sn19 3.208540 1_555
Dy7 Sn13 3.266304 1_556
Dy7 Sn12 3.266309 1_556
Dy8 Sn19 3.058183 1_555
Dy8 Sn17 3.183352 1_565
Dy8 Sn0 3.348553 1_565
Dy8 Sn5 3.348561 1_565
Dy8 Sn9 3.438994 1_454
Dy8 Sn2 3.449442 1_455
Dy8 Sn3 3.449453 1_555
Dy9 Sn19 3.058228 1_555
Dy9 Sn16 3.183546 1_555
Dy9 Sn1 3.347786 1_555
Dy9 Sn3 3.348171 1_555
Dy9 Sn8 3.438844 1_566
Dy9 Sn7 3.449284 1_555
Dy9 Sn5 3.449911 1_565
Dy10 Sn19 3.058240 1_555
Dy10 Sn16 3.183546 1_455
Dy10 Sn4 3.347786 1_455
Dy10 Sn2 3.348171 1_455
Dy10 Sn11 3.438844 1_566
Dy10 Sn6 3.449284 1_555
Dy10 Sn0 3.449911 1_565
Dy11 Sn18 3.058183 1_555
Dy11 Sn16 3.183352 1_545
Dy11 Sn2 3.348553 1_545
Dy11 Sn3 3.348561 1_545
Dy11 Sn10 3.438994 1_656
Dy11 Sn0 3.449442 1_655
Dy11 Sn5 3.449453 1_555
Dy12 Sn18 3.058131 1_555
Dy12 Sn16 3.183184 1_555
Dy12 Sn1 3.348788 1_555
Dy12 Sn4 3.348788 1_555
Dy12 Sn9 3.438158 1_555
Dy12 Sn7 3.449025 1_555
Dy12 Sn6 3.449025 1_655
Dy13 Sn18 3.058228 1_555
Dy13 Sn17 3.183546 1_555
Dy13 Sn7 3.347786 1_555
Dy13 Sn5 3.348171 1_555
Dy13 Sn11 3.438844 1_555
Dy13 Sn1 3.449284 1_555
Dy13 Sn3 3.449911 1_545
Dy14 Sn18 3.058240 1_555
Dy14 Sn17 3.183546 1_655
Dy14 Sn6 3.347786 1_655
Dy14 Sn0 3.348171 1_655
Dy14 Sn8 3.438844 1_555
Dy14 Sn4 3.449284 1_555
Dy14 Sn2 3.449911 1_545
Dy15 Sn19 3.058131 1_555
Dy15 Sn17 3.183184 1_555
Dy15 Sn7 3.348788 1_555
Dy15 Sn6 3.348788 1_555
Dy15 Sn10 3.438158 1_555
Dy15 Sn1 3.449025 1_555
Dy15 Sn4 3.449025 1_455
Dy16 Sn8 2.907190 1_565
Dy16 Sn9 2.907306 1_554
Dy16 Sn12 3.232911 1_555
Dy16 Sn17 3.458821 1_665
Dy16 Sn16 3.458863 1_554
Dy16 Sn7 3.593488 1_554
Dy16 Sn2 3.593758 1_555
Dy17 Sn11 2.907190 1_565
Dy17 Sn9 2.907306 1_454
Dy17 Sn13 3.232903 1_555
Dy17 Sn17 3.458821 1_565
Dy17 Sn16 3.458863 1_454
Dy17 Sn6 3.593488 1_554
Dy17 Sn3 3.593757 1_555
Dy18 Sn8 2.907190 1_555
Dy18 Sn10 2.907306 1_655
Dy18 Sn14 3.232903 1_554
Dy18 Sn16 3.458821 1_544
Dy18 Sn17 3.458863 1_655
Dy18 Sn4 3.593488 1_555
Dy18 Sn5 3.593757 1_554
Dy19 Sn11 2.907190 1_555
Dy19 Sn10 2.907306 1_555
Dy19 Sn15 3.232911 1_554
Dy19 Sn16 3.458821 1_444
Dy19 Sn17 3.458863 1_555
Dy19 Sn1 3.593488 1_555
Dy19 Sn0 3.593758 1_554
Dy20 Sn3 3.379644 1_555
Dy20 Sn2 3.379652 1_555
Dy20 Sn1 3.380070 1_555
Dy20 Sn4 3.380078 1_555
Dy20 Sn13 3.505505 1_555
Dy20 Sn12 3.505506 1_555
Dy20 Sn15 3.505697 1_554
Dy20 Sn14 3.505708 1_554
Dy20 Sn16 3.770826 1_555
Dy21 Sn5 3.379644 1_555
Dy21 Sn0 3.379652 1_555
Dy21 Sn7 3.380070 1_555
Dy21 Sn6 3.380078 1_555
Dy21 Sn14 3.505505 1_555
Dy21 Sn15 3.505506 1_555
Dy21 Sn12 3.505697 1_556
Dy21 Sn13 3.505708 1_556
Dy21 Sn17 3.770826 1_555
Sn0 Sn2 2.889948 1_445
Sn0 Sn15 3.268473 1_555
Sn1 Sn7 2.889300 1_555
Sn1 Sn15 3.269252 1_554
Sn3 Sn5 2.889948 1_565
Sn4 Sn6 2.889300 1_655
Sn12 Sn14 2.972059 1_554
Sn12 Sn13 2.972809 1_555
Sn12 Sn2 3.268473 1_555
Sn12 Sn7 3.269252 1_554
Sn13 Sn15 2.972059 1_554
Sn13 Sn3 3.268470 1_555
Sn13 Sn6 3.269249 1_554
Sn14 Sn15 2.972809 1_555
Sn14 Sn5 3.268470 1_555
Sn14 Sn4 3.269249 1_556
