# generated using pymatgen
data_Rb2CaHgSb2
_symmetry_space_group_name_H-M   'P 1'
_cell_length_a   5.04425630
_cell_length_b   5.04425630
_cell_length_c   8.71984678
_cell_angle_alpha   90.00000000
_cell_angle_beta   90.00000000
_cell_angle_gamma   90.00000000
_symmetry_Int_Tables_number   1
_chemical_formula_structural   Rb2CaHgSb2
_chemical_formula_sum   'Rb2 Ca1 Hg1 Sb2'
_cell_volume   221.87232982
_cell_formula_units_Z   1
loop_
 _symmetry_equiv_pos_site_id
 _symmetry_equiv_pos_as_xyz
  1  'x, y, z'
loop_
 _atom_site_type_symbol
 _atom_site_label
 _atom_site_symmetry_multiplicity
 _atom_site_fract_x
 _atom_site_fract_y
 _atom_site_fract_z
 _atom_site_occupancy
  Rb  Rb0  1  0.50000000  0.00000000  0.64932849  1
  Rb  Rb1  1  0.00000000  0.50000000  0.35067151  1
  Ca  Ca0  1  0.00000000  0.00000000  0.00000000  1
  Hg  Hg0  1  0.50000000  0.50000000  0.00000000  1
  Sb  Sb0  1  0.00000000  0.50000000  0.79662113  1
  Sb  Sb1  1  0.50000000  0.00000000  0.20337887  1
loop_
_geom_bond_atom_site_label_1
_geom_bond_atom_site_label_2
_geom_bond_distance
_geom_bond_site_symmetry_2
Rb0 Sb0 3.791024 1_545
Rb0 Sb0 3.791024 1_655
Rb0 Sb0 3.791024 1_645
Rb0 Sb0 3.791024 1_555
Rb0 Sb1 3.888612 1_555
Rb1 Sb1 3.791024 1_455
Rb1 Sb1 3.791024 1_565
Rb1 Sb1 3.791024 1_465
Rb1 Sb1 3.791024 1_555
Rb1 Sb0 3.888612 1_555
Ca0 Sb1 3.083212 1_555
Ca0 Sb1 3.083212 1_455
Ca0 Sb0 3.083212 1_554
Ca0 Sb0 3.083212 1_544
Ca0 Hg0 3.566828 1_445
Ca0 Hg0 3.566828 1_545
Ca0 Hg0 3.566828 1_455
Ca0 Hg0 3.566828 1_555
Hg0 Sb1 3.083212 1_565
Hg0 Sb1 3.083212 1_555
Hg0 Sb0 3.083212 1_654
Hg0 Sb0 3.083212 1_554
Hg0 Rb1 3.963746 1_555
Hg0 Rb1 3.963746 1_655
Hg0 Rb0 3.963746 1_564
Hg0 Rb0 3.963746 1_554
