# generated using pymatgen
data_Cs2LiVSe4
_symmetry_space_group_name_H-M   'P 1'
_cell_length_a   14.52349296
_cell_length_b   13.01057280
_cell_length_c   7.77149411
_cell_angle_alpha   84.68298095
_cell_angle_beta   63.12247043
_cell_angle_gamma   32.19454409
_symmetry_Int_Tables_number   1
_chemical_formula_structural   Cs2LiVSe4
_chemical_formula_sum   'Cs4 Li2 V2 Se8'
_cell_volume   552.99438568
_cell_formula_units_Z   2
loop_
 _symmetry_equiv_pos_site_id
 _symmetry_equiv_pos_as_xyz
  1  'x, y, z'
loop_
 _atom_site_type_symbol
 _atom_site_label
 _atom_site_symmetry_multiplicity
 _atom_site_fract_x
 _atom_site_fract_y
 _atom_site_fract_z
 _atom_site_occupancy
  Cs  Cs0  1  0.67822108  0.67822108  0.32177892  1
  Cs  Cs1  1  0.92822108  0.92822108  0.57177892  1
  Cs  Cs2  1  0.57177892  0.57177892  0.92822108  1
  Cs  Cs3  1  0.32177892  0.32177892  0.67822108  1
  Li  Li0  1  0.00000000  0.00000000  0.00000000  1
  Li  Li1  1  0.25000000  0.25000000  0.25000000  1
  V  V0  1  0.50000000  0.50000000  0.50000000  1
  V  V1  1  0.75000000  0.75000000  0.75000000  1
  Se  Se0  1  0.92843728  0.67504139  0.38852947  1
  Se  Se1  1  0.32156272  0.57495861  0.86147053  1
  Se  Se2  1  0.67504139  0.92843728  0.00799086  1
  Se  Se3  1  0.86147053  0.24200914  0.32156272  1
  Se  Se4  1  0.57495861  0.32156272  0.24200914  1
  Se  Se5  1  0.24200914  0.86147053  0.57495861  1
  Se  Se6  1  0.38852947  0.00799086  0.92843728  1
  Se  Se7  1  0.00799086  0.38852947  0.67504139  1
loop_
_geom_bond_atom_site_label_1
_geom_bond_atom_site_label_2
_geom_bond_distance
_geom_bond_site_symmetry_2
Cs0 Se6 3.687762 1_565
Cs0 Se7 3.687769 1_654
Cs0 Se5 3.704917 1_555
Cs0 Se3 3.704919 1_555
Cs0 Se0 3.863022 1_555
Cs0 Se2 3.863027 1_555
Cs0 Se6 3.997770 1_654
Cs0 Se7 3.997772 1_565
Cs1 Se1 3.687766 1_565
Cs1 Se4 3.687768 1_655
Cs1 Se2 3.704927 1_556
Cs1 Se0 3.704931 1_555
Cs1 Se3 3.863033 1_565
Cs1 Se5 3.863037 1_655
Cs1 Se1 3.997770 1_654
Cs1 Se4 3.997776 1_566
Cs2 Se3 3.687762 1_555
Cs2 Se5 3.687769 1_556
Cs2 Se7 3.704917 1_655
Cs2 Se6 3.704919 1_565
Cs2 Se1 3.863022 1_555
Cs2 Se4 3.863027 1_556
Cs2 Se3 3.997770 1_466
Cs2 Se5 3.997772 1_645
Cs3 Se0 3.687766 1_545
Cs3 Se2 3.687768 1_456
Cs3 Se4 3.704927 1_555
Cs3 Se1 3.704931 1_555
Cs3 Se6 3.863033 1_555
Cs3 Se7 3.863037 1_555
Cs3 Se0 3.997770 1_456
Cs3 Se2 3.997776 1_545
Li0 Se4 2.529346 1_455
Li0 Se1 2.529347 1_544
Li0 Se5 2.529350 1_544
Li0 Se3 2.529356 1_455
Li1 Se2 2.529346 1_545
Li1 Se0 2.529347 1_455
Li1 Se7 2.529350 1_555
Li1 Se6 2.529356 1_554
Se0 V1 2.281738 1_555
Se1 V0 2.281738 1_555
Se2 V1 2.281732 1_554
Se3 V0 2.281743 1_555
Se4 V0 2.281732 1_555
Se5 V0 2.281741 1_555
Se6 V1 2.281743 1_545
Se7 V1 2.281741 1_455
