# generated using pymatgen
data_Lu16Al3CdCo4
_symmetry_space_group_name_H-M   'P 1'
_cell_length_a   9.17227557
_cell_length_b   9.15360151
_cell_length_c   9.15360136
_cell_angle_alpha   60.00000056
_cell_angle_beta   60.06732557
_cell_angle_gamma   60.06732694
_symmetry_Int_Tables_number   1
_chemical_formula_structural   Lu16Al3CdCo4
_chemical_formula_sum   'Lu16 Al3 Cd1 Co4'
_cell_volume   543.98547059
_cell_formula_units_Z   1
loop_
 _symmetry_equiv_pos_site_id
 _symmetry_equiv_pos_as_xyz
  1  'x, y, z'
loop_
 _atom_site_type_symbol
 _atom_site_label
 _atom_site_symmetry_multiplicity
 _atom_site_fract_x
 _atom_site_fract_y
 _atom_site_fract_z
 _atom_site_occupancy
  Lu  Lu0  1  0.59947907  0.59709826  0.59709826  1
  Lu  Lu1  1  0.59947907  0.59709826  0.20632542  1
  Lu  Lu2  1  0.59947907  0.20632542  0.59709826  1
  Lu  Lu3  1  0.20281490  0.59906203  0.59906203  1
  Lu  Lu4  1  0.05765442  0.44214154  0.44214154  1
  Lu  Lu5  1  0.44136648  0.05977302  0.05977302  1
  Lu  Lu6  1  0.44136648  0.05977302  0.43908647  1
  Lu  Lu7  1  0.05765442  0.44214154  0.05806151  1
  Lu  Lu8  1  0.44136648  0.43908647  0.05977302  1
  Lu  Lu9  1  0.05765442  0.05806151  0.44214154  1
  Lu  Lu10  1  0.18786586  0.81086543  0.81086543  1
  Lu  Lu11  1  0.81180876  0.18829786  0.18829786  1
  Lu  Lu12  1  0.81180876  0.18829786  0.81159553  1
  Lu  Lu13  1  0.18786586  0.81086543  0.19040229  1
  Lu  Lu14  1  0.81180876  0.81159553  0.18829786  1
  Lu  Lu15  1  0.18786586  0.19040229  0.81086543  1
  Al  Al0  1  0.83069499  0.82760757  0.82760757  1
  Al  Al1  1  0.83069499  0.82760757  0.51409087  1
  Al  Al2  1  0.83069499  0.51409087  0.82760757  1
  Cd  Cd0  1  0.51319569  0.82893510  0.82893510  1
  Co  Co0  1  0.38926682  0.39093934  0.39093934  1
  Co  Co1  1  0.38926682  0.39093934  0.82885350  1
  Co  Co2  1  0.38926682  0.82885350  0.39093934  1
  Co  Co3  1  0.82957924  0.39014025  0.39014025  1
loop_
_geom_bond_atom_site_label_1
_geom_bond_atom_site_label_2
_geom_bond_distance
_geom_bond_site_symmetry_2
Lu0 Lu14 3.293414 1_555
Lu0 Lu12 3.293414 1_555
Lu1 Lu14 3.293409 1_555
Lu1 Lu11 3.293417 1_555
Lu10 Lu14 3.455617 1_456
Lu10 Lu12 3.455617 1_465
Lu11 Lu2 3.293417 1_555
Lu11 Lu7 3.417785 1_655
Lu11 Lu9 3.417785 1_655
Lu11 Lu6 3.421014 1_555
Lu11 Lu8 3.421014 1_555
Lu11 Lu12 3.448183 1_554
Lu11 Lu14 3.448183 1_545
Lu11 Lu15 3.455617 1_654
Lu11 Lu13 3.455617 1_645
Lu12 Lu2 3.293409 1_555
Lu12 Lu4 3.417788 1_655
Lu12 Lu9 3.417793 1_655
Lu12 Lu8 3.421010 1_556
Lu12 Lu5 3.421014 1_556
Lu12 Lu14 3.448183 1_546
Lu12 Lu15 3.455612 1_655
Lu13 Lu14 3.455612 1_455
Lu14 Lu4 3.417788 1_655
Lu14 Lu7 3.417793 1_655
Lu14 Lu6 3.421010 1_565
Lu14 Lu5 3.421014 1_565
Al0 Al1 2.869807 1_555
Al0 Al2 2.869807 1_555
Al0 Cd0 2.900115 1_555
Al0 Lu10 3.130657 1_655
Al0 Lu14 3.150049 1_556
Al0 Lu12 3.150049 1_565
Al0 Lu3 3.244630 1_655
Al0 Lu1 3.283512 1_556
Al0 Lu2 3.283512 1_565
Al0 Lu9 3.292758 1_665
Al0 Lu7 3.292758 1_656
Al0 Lu5 3.339759 1_566
Al1 Al2 2.869807 1_555
Al1 Cd0 2.900115 1_555
Al1 Lu13 3.130665 1_655
Al1 Lu11 3.150053 1_565
Al1 Lu14 3.150058 1_555
Al1 Lu3 3.244630 1_655
Al1 Lu0 3.283512 1_555
Al1 Lu2 3.283512 1_565
Al1 Lu9 3.292750 1_665
Al1 Lu4 3.292766 1_655
Al1 Lu6 3.339767 1_565
Al2 Cd0 2.900115 1_555
Al2 Lu15 3.130665 1_655
Al2 Lu11 3.150053 1_556
Al2 Lu12 3.150058 1_555
Al2 Lu3 3.244629 1_655
Al2 Lu0 3.283512 1_555
Al2 Lu1 3.283512 1_556
Al2 Lu7 3.292750 1_656
Al2 Lu4 3.292766 1_655
Al2 Lu8 3.339767 1_556
Cd0 Lu13 3.157764 1_556
Cd0 Lu15 3.157764 1_565
Cd0 Lu10 3.157774 1_555
Cd0 Lu0 3.283999 1_555
Cd0 Lu1 3.283999 1_556
Cd0 Lu2 3.283999 1_565
Cd0 Lu5 3.324120 1_566
Cd0 Lu6 3.324136 1_565
Cd0 Lu8 3.324136 1_556
Co0 Lu8 2.653358 1_555
Co0 Lu6 2.653358 1_555
Co0 Lu4 2.658051 1_555
Co0 Lu3 2.703673 1_555
Co0 Lu1 2.706475 1_555
Co0 Lu2 2.706475 1_555
Co0 Lu15 3.286196 1_555
Co0 Lu13 3.286196 1_555
Co0 Lu11 3.315734 1_555
Co1 Lu8 2.653358 1_556
Co1 Lu5 2.653358 1_556
Co1 Lu7 2.658051 1_556
Co1 Lu3 2.703659 1_555
Co1 Lu2 2.706462 1_555
Co1 Lu0 2.706474 1_555
Co1 Lu15 3.286196 1_555
Co1 Lu10 3.286196 1_555
Co1 Lu12 3.315737 1_555
Co2 Lu5 2.653358 1_565
Co2 Lu6 2.653358 1_565
Co2 Lu9 2.658051 1_565
Co2 Lu3 2.703659 1_555
Co2 Lu1 2.706462 1_555
Co2 Lu0 2.706474 1_555
Co2 Lu13 3.286196 1_555
Co2 Lu10 3.286196 1_555
Co2 Lu14 3.315737 1_555
Co3 Lu4 2.653969 1_655
Co3 Lu7 2.653975 1_655
Co3 Lu9 2.653975 1_655
Co3 Lu2 2.690826 1_555
Co3 Lu1 2.690826 1_555
Co3 Lu0 2.690833 1_555
Co3 Lu12 3.296718 1_555
Co3 Lu11 3.296718 1_555
Co3 Lu14 3.296718 1_555
