# generated using pymatgen
data_Nb2SnO6
_symmetry_space_group_name_H-M   'P 1'
_cell_length_a   4.92971756
_cell_length_b   5.62897132
_cell_length_c   8.97164736
_cell_angle_alpha   91.40233330
_cell_angle_beta   105.94645179
_cell_angle_gamma   90.00000521
_symmetry_Int_Tables_number   1
_chemical_formula_structural   Nb2SnO6
_chemical_formula_sum   'Nb4 Sn2 O12'
_cell_volume   239.29871615
_cell_formula_units_Z   2
loop_
 _symmetry_equiv_pos_site_id
 _symmetry_equiv_pos_as_xyz
  1  'x, y, z'
loop_
 _atom_site_type_symbol
 _atom_site_label
 _atom_site_symmetry_multiplicity
 _atom_site_fract_x
 _atom_site_fract_y
 _atom_site_fract_z
 _atom_site_occupancy
  Nb  Nb0  1  0.41028449  0.17448039  0.33925574  1
  Nb  Nb1  1  0.07102776  0.32551961  0.66074426  1
  Nb  Nb2  1  0.58971551  0.82551961  0.66074426  1
  Nb  Nb3  1  0.92897224  0.67448039  0.33925574  1
  Sn  Sn0  1  0.77369147  0.25000000  -0.00000000  1
  Sn  Sn1  1  0.22630853  0.75000000  0.00000000  1
  O  O0  1  0.71898503  0.14837977  0.56134447  1
  O  O1  1  0.15764056  0.35162023  0.43865553  1
  O  O2  1  0.28101497  0.85162023  0.43865553  1
  O  O3  1  0.84235944  0.64837977  0.56134447  1
  O  O4  1  0.60305539  0.42762383  0.28515119  1
  O  O5  1  0.31790519  0.07237617  0.71484881  1
  O  O6  1  0.99333827  0.59066582  0.14432563  1
  O  O7  1  0.84901163  0.90933418  0.85567437  1
  O  O8  1  0.00666173  0.40933418  0.85567437  1
  O  O9  1  0.15098837  0.09066582  0.14432563  1
  O  O10  1  0.68209481  0.92762383  0.28515119  1
  O  O11  1  0.39694461  0.57237617  0.71484881  1
loop_
_geom_bond_atom_site_label_1
_geom_bond_atom_site_label_2
_geom_bond_distance
_geom_bond_site_symmetry_2
Nb0 O4 1.859158 1_555
Nb0 O9 1.909517 1_555
Nb0 O1 1.976729 1_555
Nb0 O10 2.070339 1_545
Nb0 O0 2.157717 1_555
Nb0 O2 2.212646 1_545
Nb1 O5 1.859164 1_555
Nb1 O8 1.909517 1_555
Nb1 O0 1.976725 1_455
Nb1 O11 2.070346 1_555
Nb1 O1 2.157720 1_555
Nb1 O3 2.212644 1_455
Nb2 O11 1.859158 1_555
Nb2 O7 1.909517 1_555
Nb2 O3 1.976729 1_555
Nb2 O5 2.070339 1_565
Nb2 O2 2.157717 1_555
Nb2 O0 2.212646 1_565
Nb3 O10 1.859164 1_555
Nb3 O6 1.909517 1_555
Nb3 O2 1.976725 1_655
Nb3 O4 2.070346 1_555
Nb3 O3 2.157720 1_555
Nb3 O1 2.212644 1_655
O6 Sn1 2.161939 1_655
O6 Sn0 2.373671 1_555
O7 Sn1 2.161943 1_656
O7 Sn0 2.373669 1_566
O8 Sn0 2.161939 1_456
O8 Sn1 2.373671 1_556
O9 Sn0 2.161943 1_455
O9 Sn1 2.373669 1_545
