# generated using pymatgen
data_K5BaNbP4
_symmetry_space_group_name_H-M   'P 1'
_cell_length_a   10.21034862
_cell_length_b   10.21034835
_cell_length_c   7.97875272
_cell_angle_alpha   89.28593457
_cell_angle_beta   89.28593456
_cell_angle_gamma   120.30267235
_symmetry_Int_Tables_number   1
_chemical_formula_structural   K5BaNbP4
_chemical_formula_sum   'K10 Ba2 Nb2 P8'
_cell_volume   717.92307821
_cell_formula_units_Z   2
loop_
 _symmetry_equiv_pos_site_id
 _symmetry_equiv_pos_as_xyz
  1  'x, y, z'
loop_
 _atom_site_type_symbol
 _atom_site_label
 _atom_site_symmetry_multiplicity
 _atom_site_fract_x
 _atom_site_fract_y
 _atom_site_fract_z
 _atom_site_occupancy
  K  K0  1  0.46608830  0.52595424  0.50232202  1
  K  K1  1  0.05950205  0.52672263  0.50159159  1
  K  K2  1  0.52595424  0.46608830  0.00232202  1
  K  K3  1  0.52672263  0.05950205  0.00159159  1
  K  K4  1  0.86487858  0.14297776  0.67545102  1
  K  K5  1  0.29389335  0.15425937  0.70367080  1
  K  K6  1  0.85432489  0.71492818  0.66197878  1
  K  K7  1  0.14297776  0.86487858  0.17545102  1
  K  K8  1  0.71492818  0.85432489  0.16197878  1
  K  K9  1  0.15425937  0.29389335  0.20367080  1
  Ba  Ba0  1  0.46416443  0.93295301  0.49415026  1
  Ba  Ba1  1  0.93295301  0.46416443  0.99415026  1
  Nb  Nb0  1  0.66805349  0.33425655  0.39379175  1
  Nb  Nb1  1  0.33425655  0.66805349  0.89379175  1
  P  P0  1  0.67660053  0.33382700  0.69614481  1
  P  P1  1  0.33382700  0.67660053  0.19614481  1
  P  P2  1  0.79404583  0.20066152  0.29157860  1
  P  P3  1  0.40546567  0.19720648  0.31152874  1
  P  P4  1  0.79881395  0.59042219  0.28208163  1
  P  P5  1  0.20066152  0.79404583  0.79157860  1
  P  P6  1  0.59042219  0.79881395  0.78208163  1
  P  P7  1  0.19720648  0.40546567  0.81152874  1
loop_
_geom_bond_atom_site_label_1
_geom_bond_atom_site_label_2
_geom_bond_distance
_geom_bond_site_symmetry_2
K0 P6 3.318479 1_555
K0 P7 3.388849 1_555
K0 P3 3.467225 1_555
K0 P1 3.498874 1_555
K0 P4 3.553618 1_555
K1 P5 3.339355 1_555
K1 P7 3.375202 1_555
K1 P1 3.396761 1_555
K1 P2 3.519084 1_455
K1 P4 3.522781 1_455
K2 P4 3.318479 1_555
K2 P3 3.388849 1_555
K2 P7 3.467226 1_554
K2 P0 3.498874 1_554
K2 P6 3.553618 1_554
K3 P2 3.339355 1_555
K3 P3 3.375202 1_555
K3 P0 3.396761 1_554
K3 P5 3.519084 1_544
K3 P6 3.522781 1_544
K4 P2 3.269699 1_555
K4 P6 3.294518 1_545
K4 P7 3.295850 1_655
K4 P0 3.361603 1_555
K5 P3 3.263789 1_555
K5 P7 3.298933 1_555
K5 P5 3.363195 1_545
K5 P0 3.375780 1_555
K6 P4 3.246025 1_555
K6 P6 3.346264 1_555
K6 P0 3.368104 1_555
K6 P5 3.384656 1_655
K7 P5 3.269699 1_554
K7 P4 3.294518 1_455
K7 P3 3.295850 1_565
K7 P1 3.361603 1_555
K8 P6 3.246025 1_554
K8 P4 3.346264 1_555
K8 P1 3.368104 1_555
K8 P2 3.384656 1_565
K9 P7 3.263789 1_554
K9 P3 3.298933 1_555
K9 P2 3.363195 1_455
K9 P1 3.375780 1_555
Ba0 P6 3.254622 1_555
Ba0 P5 3.284509 1_555
Ba0 P1 3.315787 1_555
Ba0 P3 3.364194 1_565
Ba0 P2 3.448482 1_565
Ba1 P4 3.254622 1_556
Ba1 P2 3.284509 1_556
Ba1 P0 3.315787 1_555
Ba1 P7 3.364194 1_655
Ba1 P5 3.448482 1_655
Nb0 P4 2.409626 1_555
Nb0 P0 2.415094 1_555
Nb0 P3 2.420333 1_555
Nb0 P2 2.439874 1_555
Nb1 P6 2.409626 1_555
Nb1 P1 2.415094 1_556
Nb1 P7 2.420333 1_555
Nb1 P5 2.439874 1_555
