# generated using pymatgen
data_Ti2GaH
_symmetry_space_group_name_H-M   'P 1'
_cell_length_a   5.13929192
_cell_length_b   5.13929250
_cell_length_c   5.13929299
_cell_angle_alpha   104.48495575
_cell_angle_beta   104.48495304
_cell_angle_gamma   119.98335555
_symmetry_Int_Tables_number   1
_chemical_formula_structural   Ti2GaH
_chemical_formula_sum   'Ti4 Ga2 H2'
_cell_volume   101.81404098
_cell_formula_units_Z   2
loop_
 _symmetry_equiv_pos_site_id
 _symmetry_equiv_pos_as_xyz
  1  'x, y, z'
loop_
 _atom_site_type_symbol
 _atom_site_label
 _atom_site_symmetry_multiplicity
 _atom_site_fract_x
 _atom_site_fract_y
 _atom_site_fract_z
 _atom_site_occupancy
  Ti  Ti0  1  0.15776959  0.65776959  0.81554119  1
  Ti  Ti1  1  0.84223041  0.34223041  0.18445881  1
  Ti  Ti2  1  0.34223041  0.15776959  0.50000000  1
  Ti  Ti3  1  0.65776959  0.84223041  0.50000000  1
  Ga  Ga0  1  0.25000000  0.25000000  0.00000000  1
  Ga  Ga1  1  0.75000000  0.75000000  0.00000000  1
  H  H0  1  0.75000000  0.25000000  0.50000000  1
  H  H1  1  0.25000000  0.75000000  0.50000000  1
loop_
_geom_bond_atom_site_label_1
_geom_bond_atom_site_label_2
_geom_bond_distance
_geom_bond_site_symmetry_2
Ga0 Ga1 2.570293 1_555
Ga0 Ga1 2.570293 1_445
Ga0 Ti1 2.697585 1_455
Ga0 Ti0 2.697585 1_554
Ga0 Ti1 2.697590 1_555
Ga0 Ti0 2.697590 1_544
Ga0 Ti3 2.697591 1_444
Ga0 Ti2 2.697591 1_554
Ga0 Ti2 2.697591 1_555
Ga0 Ti3 2.697591 1_555
Ga1 Ti0 2.697585 1_654
Ga1 Ti1 2.697585 1_555
Ga1 Ti0 2.697590 1_554
Ga1 Ti1 2.697590 1_565
Ga1 Ti2 2.697591 1_665
Ga1 Ti3 2.697591 1_555
Ga1 Ti3 2.697591 1_554
Ga1 Ti2 2.697591 1_554
H0 Ti2 1.903569 1_555
H0 Ti3 1.903570 1_545
H0 Ti0 1.903573 1_655
H0 Ti1 1.903580 1_555
H1 Ti3 1.903569 1_555
H1 Ti2 1.903570 1_565
H1 Ti1 1.903573 1_455
H1 Ti0 1.903580 1_555
