# generated using pymatgen
data_Mg10(Fe3O8)3
_symmetry_space_group_name_H-M   'P 1'
_cell_length_a   5.96831300
_cell_length_b   6.10961102
_cell_length_c   14.70439077
_cell_angle_alpha   90.83527386
_cell_angle_beta   90.38924468
_cell_angle_gamma   118.76055502
_symmetry_Int_Tables_number   1
_chemical_formula_structural   Mg10(Fe3O8)3
_chemical_formula_sum   'Mg10 Fe9 O24'
_cell_volume   469.92928055
_cell_formula_units_Z   1
loop_
 _symmetry_equiv_pos_site_id
 _symmetry_equiv_pos_as_xyz
  1  'x, y, z'
loop_
 _atom_site_type_symbol
 _atom_site_label
 _atom_site_symmetry_multiplicity
 _atom_site_fract_x
 _atom_site_fract_y
 _atom_site_fract_z
 _atom_site_occupancy
  Mg  Mg0  1  0.83442200  0.16601700  0.79200900  1
  Mg  Mg1  1  0.66567900  0.33568800  0.95785800  1
  Mg  Mg2  1  0.33390200  0.64993200  0.67250900  1
  Mg  Mg3  1  0.15914200  0.81401200  0.46458100  1
  Mg  Mg4  1  0.99976400  0.99765600  0.62711200  1
  Mg  Mg5  1  0.83366100  0.65844700  0.29086200  1
  Mg  Mg6  1  0.62775700  0.24198600  0.34290500  1
  Mg  Mg7  1  0.33362600  0.66643900  0.29277800  1
  Mg  Mg8  1  0.50872300  0.51780100  0.11742400  1
  Mg  Mg9  1  0.00771700  0.51650100  0.11658700  1
  Fe  Fe0  1  0.99693400  0.99130100  0.00359000  1
  Fe  Fe1  1  0.33432300  0.68423300  0.91361700  1
  Fe  Fe2  1  0.83640600  0.67390100  0.79043200  1
  Fe  Fe3  1  0.65795900  0.33377000  0.58061000  1
  Fe  Fe4  1  0.15942400  0.32683500  0.45494200  1
  Fe  Fe5  1  0.32858700  0.16602300  0.79013700  1
  Fe  Fe6  1  0.04024200  0.08773400  0.23955000  1
  Fe  Fe7  1  0.64686800  0.80791900  0.46496000  1
  Fe  Fe8  1  0.51080900  0.02086000  0.12586100  1
  O  O0  1  0.98371700  0.50211200  0.87046000  1
  O  O1  1  0.50886300  0.49789600  0.86898100  1
  O  O2  1  0.66688000  0.33611000  0.71376900  1
  O  O3  1  0.50269600  0.02516600  0.87031300  1
  O  O4  1  0.31191100  0.15489200  0.53565500  1
  O  O5  1  0.16072900  0.29953500  0.71537300  1
  O  O6  1  0.83755500  0.15288900  0.53611000  1
  O  O7  1  0.15665000  0.84148800  0.71619300  1
  O  O8  1  0.99505200  0.99315700  0.37310600  1
  O  O9  1  0.00073700  0.99709300  0.87075400  1
  O  O10  1  0.83484500  0.67772500  0.54000400  1
  O  O11  1  0.69448800  0.83608400  0.71555900  1
  O  O12  1  0.67759800  0.84908300  0.21102600  1
  O  O13  1  0.46827700  0.92454200  0.38866400  1
  O  O14  1  0.17105500  0.85150700  0.21203600  1
  O  O15  1  0.50209100  0.49486000  0.37438400  1
  O  O16  1  0.34560900  0.69656400  0.04507000  1
  O  O17  1  0.32466800  0.63653400  0.53542800  1
  O  O18  1  0.99813900  0.48889000  0.37316500  1
  O  O19  1  0.20184700  0.40222800  0.19787600  1
  O  O20  1  0.82563600  0.65587100  0.04064000  1
  O  O21  1  0.82415800  0.17489100  0.04577800  1
  O  O22  1  0.67450200  0.34375800  0.20612800  1
  O  O23  1  0.34968500  0.17673500  0.04687100  1
loop_
_geom_bond_atom_site_label_1
_geom_bond_atom_site_label_2
_geom_bond_distance
_geom_bond_site_symmetry_2
Mg0 O5 2.062989 1_655
Mg0 O11 2.079822 1_545
Mg0 O9 2.096715 1_645
Mg0 O3 2.099147 1_555
Mg0 O2 2.102999 1_555
Mg0 O0 2.120721 1_555
Mg1 O20 2.082661 1_556
Mg1 O3 2.082908 1_555
Mg1 O21 2.108486 1_556
Mg1 O1 2.116540 1_555
Mg1 O0 2.121883 1_555
Mg1 O23 2.126316 1_556
Mg2 O11 1.982641 1_555
Mg2 O5 1.991849 1_555
Mg2 O17 2.015464 1_555
Mg2 O7 2.019940 1_555
Mg3 O13 1.989287 1_555
Mg3 O10 2.043214 1_455
Mg3 O17 2.070451 1_555
Mg3 O4 2.087403 1_565
Mg3 O18 2.178019 1_455
Mg3 O8 2.241163 1_455
Mg4 O5 2.053572 1_665
Mg4 O11 2.079519 1_555
Mg4 O7 2.093412 1_655
Mg4 O10 2.118629 1_555
Mg4 O6 2.128445 1_565
Mg4 O4 2.133452 1_665
Mg5 O22 2.075536 1_555
Mg5 O18 2.121418 1_555
Mg5 O14 2.139061 1_655
Mg5 O8 2.142130 1_555
Mg5 O15 2.142166 1_555
Mg5 O12 2.161299 1_555
Mg6 O13 1.841339 1_545
Mg6 O18 2.029349 1_555
Mg6 O15 2.064609 1_555
Mg6 O22 2.094427 1_555
Mg7 O13 1.954665 1_555
Mg7 O19 1.967066 1_555
Mg7 O18 2.136005 1_455
Mg7 O15 2.141095 1_555
Mg7 O14 2.169954 1_555
Mg7 O12 2.184714 1_555
Mg8 O19 2.015408 1_555
Mg8 O20 2.021213 1_555
Mg8 O16 2.077371 1_555
Mg8 O23 2.083180 1_555
Mg8 O22 2.201422 1_555
Mg8 O12 2.223436 1_555
Mg9 O19 2.010606 1_555
Mg9 O20 2.013660 1_455
Mg9 O16 2.076209 1_555
Mg9 O21 2.088337 1_455
Mg9 O22 2.204266 1_455
Mg9 O14 2.255439 1_555
Fe0 O20 1.888328 1_555
Fe0 O23 1.945886 1_665
Fe0 O21 1.951342 1_565
Fe0 O9 1.954197 1_654
Fe1 O16 1.932759 1_556
Fe1 O0 1.933979 1_455
Fe1 O3 1.946058 1_565
Fe1 O1 1.985128 1_555
Fe2 O11 1.933431 1_555
Fe2 O7 2.017646 1_655
Fe2 O0 2.041882 1_555
Fe2 O9 2.075692 1_655
Fe2 O1 2.087090 1_555
Fe2 O2 2.112091 1_555
Fe3 O4 1.919699 1_555
Fe3 O10 1.948674 1_555
Fe3 O2 1.958041 1_555
Fe3 O6 1.981596 1_555
Fe4 O17 2.019066 1_555
Fe4 O4 2.069321 1_555
Fe4 O18 2.070980 1_455
Fe4 O6 2.085133 1_455
Fe4 O8 2.134103 1_445
Fe4 O15 2.165103 1_555
Fe5 O5 1.917081 1_555
Fe5 O3 2.020838 1_555
Fe5 O7 2.032411 1_545
Fe5 O9 2.103088 1_545
Fe5 O1 2.104314 1_555
Fe5 O2 2.112628 1_555
Fe6 O19 1.804630 1_555
Fe6 O12 1.979746 1_445
Fe6 O14 1.981867 1_545
Fe6 O8 2.038059 1_445
Fe7 O13 1.907963 1_555
Fe7 O10 1.994136 1_555
Fe7 O17 1.997261 1_555
Fe7 O6 2.107894 1_565
Fe7 O15 2.120967 1_555
Fe7 O8 2.289763 1_555
Fe8 O23 2.019684 1_555
Fe8 O21 2.034313 1_555
Fe8 O22 2.073921 1_555
Fe8 O16 2.084385 1_545
Fe8 O12 2.165020 1_545
Fe8 O14 2.200498 1_545
