# generated using pymatgen
data_Hf3Zr3FeBr15
_symmetry_space_group_name_H-M   'P 1'
_cell_length_a   9.29461705
_cell_length_b   9.29459554
_cell_length_c   9.29461706
_cell_angle_alpha   110.25857786
_cell_angle_beta   108.90050571
_cell_angle_gamma   109.25775154
_symmetry_Int_Tables_number   1
_chemical_formula_structural   Hf3Zr3FeBr15
_chemical_formula_sum   'Hf3 Zr3 Fe1 Br15'
_cell_volume   618.02394754
_cell_formula_units_Z   1
loop_
 _symmetry_equiv_pos_site_id
 _symmetry_equiv_pos_as_xyz
  1  'x, y, z'
loop_
 _atom_site_type_symbol
 _atom_site_label
 _atom_site_symmetry_multiplicity
 _atom_site_fract_x
 _atom_site_fract_y
 _atom_site_fract_z
 _atom_site_occupancy
  Hf  Hf0  1  0.23257397  0.23268128  0.99989269  1
  Hf  Hf1  1  0.76721241  0.76731872  0.99989369  1
  Hf  Hf2  1  0.76894767  0.00000000  0.76894767  1
  Zr  Zr0  1  0.99982086  0.77661811  0.77643897  1
  Zr  Zr1  1  0.99982086  0.22338189  0.22320275  1
  Zr  Zr2  1  0.23214199  1.00000000  0.23214199  1
  Fe  Fe0  1  0.00177467  1.00000000  0.00177467  1
  Br  Br0  1  0.74910672  0.50240861  0.75221077  1
  Br  Br1  1  0.49812286  0.50000000  0.99812286  1
  Br  Br2  1  0.99797864  0.50000000  0.49797864  1
  Br  Br3  1  0.50753560  0.00000000  0.50753560  1
  Br  Br4  1  0.24980216  0.00310305  0.75221077  1
  Br  Br5  1  0.00127354  0.24810558  0.75316696  1
  Br  Br6  1  0.74910672  0.99689695  0.24670012  1
  Br  Br7  1  0.50506238  0.75189442  0.75316696  1
  Br  Br8  1  0.99460598  0.74876450  0.24584148  1
  Br  Br9  1  0.24794254  0.25009983  0.49804337  1
  Br  Br10  1  0.75117486  0.24710539  0.99828026  1
  Br  Br11  1  0.49707699  0.25123550  0.24584148  1
  Br  Br12  1  0.24980216  0.49759139  0.24669912  1
  Br  Br13  1  0.75117386  0.75289461  0.50406947  1
  Br  Br14  1  0.24794254  0.74990017  0.99784271  1
loop_
_geom_bond_atom_site_label_1
_geom_bond_atom_site_label_2
_geom_bond_distance
_geom_bond_site_symmetry_2
Fe0 Zr0 2.374185 1_454
Fe0 Zr1 2.374185 1_465
Fe0 Zr2 2.489801 1_555
Fe0 Hf1 2.503906 1_454
Fe0 Hf0 2.503906 1_564
Fe0 Hf2 2.516385 1_464
Br0 Hf1 2.634564 1_555
Br0 Zr0 2.705840 1_555
Br1 Hf0 2.876612 1_555
Br1 Hf1 2.876612 1_555
Br2 Zr0 2.939950 1_555
Br2 Zr1 2.939950 1_555
Br3 Hf2 2.825331 1_555
Br3 Zr2 2.976443 1_545
Br4 Hf0 2.634570 1_555
Br4 Zr0 2.705837 1_445
Br5 Hf0 2.671757 1_555
Br5 Hf2 2.675248 1_455
Br6 Hf1 2.634581 1_554
Br6 Zr1 2.705849 1_565
Br7 Hf1 2.671767 1_555
Br7 Hf2 2.675237 1_565
Br8 Hf1 2.665681 1_554
Br8 Zr2 2.707532 1_655
Br9 Zr2 2.663533 1_545
Br9 Zr1 2.696687 1_455
Br10 Hf2 2.633238 1_555
Br10 Zr1 2.699158 1_556
Br11 Hf0 2.665692 1_554
Br11 Zr2 2.707532 1_545
Br12 Hf0 2.634569 1_554
Br12 Zr1 2.705835 1_455
Br13 Hf2 2.633233 1_565
Br13 Zr0 2.699162 1_555
Br14 Zr2 2.663528 1_556
Br14 Zr0 2.696681 1_455
