# generated using pymatgen
data_Rb3ZrIr2O9
_symmetry_space_group_name_H-M   'P 1'
_cell_length_a   5.87777247
_cell_length_b   5.87777283
_cell_length_c   14.32238254
_cell_angle_alpha   90.00000440
_cell_angle_beta   90.00003435
_cell_angle_gamma   59.99999805
_symmetry_Int_Tables_number   1
_chemical_formula_structural   Rb3ZrIr2O9
_chemical_formula_sum   'Rb6 Zr2 Ir4 O18'
_cell_volume   428.52035810
_cell_formula_units_Z   2
loop_
 _symmetry_equiv_pos_site_id
 _symmetry_equiv_pos_as_xyz
  1  'x, y, z'
loop_
 _atom_site_type_symbol
 _atom_site_label
 _atom_site_symmetry_multiplicity
 _atom_site_fract_x
 _atom_site_fract_y
 _atom_site_fract_z
 _atom_site_occupancy
  Rb  Rb0  1  0.33333300  0.33333300  0.10109335  1
  Rb  Rb1  1  0.00000000  1.00000000  0.24990710  1
  Rb  Rb2  1  0.33333300  0.33333400  0.39881929  1
  Rb  Rb3  1  0.66666700  0.66666700  0.60108922  1
  Rb  Rb4  1  1.00000000  0.00000100  0.75008852  1
  Rb  Rb5  1  0.66666500  0.66666800  0.89904870  1
  Zr  Zr0  1  1.00000000  0.00000000  0.00003211  1
  Zr  Zr1  1  0.00000000  1.00000000  0.49999361  1
  Ir  Ir0  1  0.66666700  0.66666700  0.15201446  1
  Ir  Ir1  1  0.66666600  0.66666700  0.34786567  1
  Ir  Ir2  1  0.33333400  0.33333300  0.65211701  1
  Ir  Ir3  1  0.33333300  0.33333400  0.84800089  1
  O  O0  1  0.34525184  0.82737408  0.08011082  1
  O  O1  1  0.82737408  0.82737408  0.08011082  1
  O  O2  1  0.82737508  0.34525084  0.08011082  1
  O  O3  1  0.52769282  0.52769182  0.24991980  1
  O  O4  1  0.94461535  0.52769182  0.24991980  1
  O  O5  1  0.52769182  0.94461635  0.24991980  1
  O  O6  1  0.82737896  0.34524207  0.41981498  1
  O  O7  1  0.34524207  0.82737896  0.41981498  1
  O  O8  1  0.82737896  0.82737896  0.41981498  1
  O  O9  1  0.17266677  0.17266677  0.58011424  1
  O  O10  1  0.65466746  0.17266677  0.58011424  1
  O  O11  1  0.17266677  0.65466746  0.58011424  1
  O  O12  1  0.47224885  0.05550329  0.75006326  1
  O  O13  1  0.05550329  0.47224885  0.75006326  1
  O  O14  1  0.47224785  0.47224885  0.75006326  1
  O  O15  1  0.17266892  0.65466016  0.91995527  1
  O  O16  1  0.17266992  0.17267092  0.91995527  1
  O  O17  1  0.65465916  0.17267092  0.91995627  1
loop_
_geom_bond_atom_site_label_1
_geom_bond_atom_site_label_2
_geom_bond_distance
_geom_bond_site_symmetry_2
Ir0 O1 1.933225 1_555
Ir0 O0 1.933229 1_555
Ir0 O2 1.933234 1_555
Ir0 O4 1.991994 1_555
Ir0 O5 1.991999 1_555
Ir0 O3 1.991999 1_555
Ir1 O7 1.933616 1_555
Ir1 O8 1.933619 1_555
Ir1 O6 1.933620 1_555
Ir1 O3 1.992403 1_555
Ir1 O5 1.992407 1_555
Ir1 O4 1.992408 1_555
Ir2 O9 1.933634 1_555
Ir2 O10 1.933635 1_555
Ir2 O11 1.933638 1_555
Ir2 O14 1.991978 1_555
Ir2 O12 1.991979 1_555
Ir2 O13 1.991983 1_555
Ir3 O15 1.933233 1_555
Ir3 O16 1.933233 1_555
Ir3 O17 1.933240 1_555
Ir3 O13 1.991891 1_555
Ir3 O14 1.991892 1_555
Ir3 O12 1.991896 1_555
O0 Zr0 2.098570 1_465
O0 Rb0 2.954831 1_565
O0 Rb0 2.954837 1_555
O0 Rb1 3.000443 1_555
O0 Rb5 3.066218 1_554
O1 Zr0 2.098572 1_565
O1 Rb0 2.954834 1_655
O1 Rb0 2.954834 1_565
O1 Rb1 3.000442 1_655
O1 Rb5 3.066222 1_554
O2 Zr0 2.098567 1_555
O2 Rb0 2.954828 1_655
O2 Rb0 2.954840 1_555
O2 Rb1 3.000439 1_645
O2 Rb5 3.066228 1_554
O3 Rb0 2.908390 1_555
O3 Rb2 2.909154 1_555
O3 Rb1 2.952375 1_645
O3 Rb1 2.952381 1_555
O4 Rb0 2.908388 1_655
O4 Rb2 2.909153 1_655
O4 Rb1 2.952375 1_645
O4 Rb1 2.952381 1_655
O5 Rb0 2.908383 1_565
O5 Rb2 2.909154 1_565
O5 Rb1 2.952377 1_555
O5 Rb1 2.952377 1_655
O6 Zr1 2.099312 1_645
O6 Rb2 2.954852 1_555
O6 Rb2 2.954852 1_655
O6 Rb1 3.001709 1_645
O6 Rb3 3.068819 1_555
O7 Zr1 2.099312 1_555
O7 Rb2 2.954850 1_555
O7 Rb2 2.954856 1_565
O7 Rb1 3.001708 1_555
O7 Rb3 3.068818 1_555
O8 Zr1 2.099312 1_655
O8 Rb2 2.954850 1_655
O8 Rb2 2.954855 1_565
O8 Rb1 3.001710 1_655
O8 Rb3 3.068817 1_555
O9 Zr1 2.099247 1_545
O9 Rb3 2.954832 1_545
O9 Rb3 2.954832 1_455
O9 Rb4 3.002750 1_455
O9 Rb2 3.068822 1_555
O10 Zr1 2.099244 1_645
O10 Rb3 2.954832 1_555
O10 Rb3 2.954832 1_545
O10 Rb4 3.002749 1_555
O10 Rb2 3.068823 1_555
O11 Zr1 2.099243 1_555
O11 Rb3 2.954832 1_555
O11 Rb3 2.954832 1_455
O11 Rb4 3.002753 1_465
O11 Rb2 3.068822 1_555
O12 Rb3 2.910348 1_545
O12 Rb5 2.910463 1_545
O12 Rb4 2.952435 1_555
O12 Rb4 2.952435 1_455
O13 Rb3 2.910346 1_455
O13 Rb5 2.910475 1_455
O13 Rb4 2.952433 1_455
O13 Rb4 2.952438 1_465
O14 Rb3 2.910351 1_555
O14 Rb5 2.910466 1_555
O14 Rb4 2.952436 1_555
O14 Rb4 2.952436 1_465
O15 Zr0 2.098932 1_466
O15 Rb5 2.954733 1_455
O15 Rb5 2.954733 1_555
O15 Rb4 3.001526 1_465
O15 Rb0 3.066904 1_556
O16 Zr0 2.098936 1_456
O16 Rb5 2.954727 1_545
O16 Rb5 2.954739 1_455
O16 Rb4 3.001522 1_455
O16 Rb0 3.066898 1_556
O17 Zr0 2.098927 1_556
O17 Rb5 2.954735 1_545
O17 Rb5 2.954735 1_555
O17 Rb4 3.001538 1_555
O17 Rb0 3.066890 1_556
