# generated using pymatgen
data_Cs2Ir(WO4)3
_symmetry_space_group_name_H-M   'P 1'
_cell_length_a   7.38910384
_cell_length_b   7.42769195
_cell_length_c   7.21930175
_cell_angle_alpha   90.00002503
_cell_angle_beta   59.18918294
_cell_angle_gamma   120.17558144
_symmetry_Int_Tables_number   1
_chemical_formula_structural   Cs2Ir(WO4)3
_chemical_formula_sum   'Cs2 Ir1 W3 O12'
_cell_volume   275.93461710
_cell_formula_units_Z   1
loop_
 _symmetry_equiv_pos_site_id
 _symmetry_equiv_pos_as_xyz
  1  'x, y, z'
loop_
 _atom_site_type_symbol
 _atom_site_label
 _atom_site_symmetry_multiplicity
 _atom_site_fract_x
 _atom_site_fract_y
 _atom_site_fract_z
 _atom_site_occupancy
  Cs  Cs0  1  0.25325474  0.11684033  0.11866692  1
  Cs  Cs1  1  0.74674951  0.86355737  0.88132104  1
  Ir  Ir0  1  0.00001332  0.51701630  0.99998759  1
  W  W0  1  0.49405533  0.98016362  0.48599447  1
  W  W1  1  0.50594299  0.48605700  0.51400809  1
  W  W2  1  0.99998526  0.47735847  0.50000051  1
  O  O0  1  0.62421985  0.81770584  0.43489880  1
  O  O1  1  0.87395982  0.45200403  0.80909183  1
  O  O2  1  0.25373861  0.84160393  0.80768698  1
  O  O3  1  0.24999935  0.44184653  0.43795767  1
  O  O4  1  0.25365536  0.45370329  0.80313354  1
  O  O5  1  0.25762579  0.81324793  0.42638724  1
  O  O6  1  0.37579058  0.19349317  0.56511413  1
  O  O7  1  0.12603352  0.57801167  0.19091192  1
  O  O8  1  0.74637860  0.20007313  0.19684021  1
  O  O9  1  0.74236983  0.55560998  0.57361534  1
  O  O10  1  0.74622335  0.58785361  0.19233213  1
  O  O11  1  0.75000220  0.19185479  0.56205058  1
loop_
_geom_bond_atom_site_label_1
_geom_bond_atom_site_label_2
_geom_bond_distance
_geom_bond_site_symmetry_2
Cs0 O2 3.036260 1_544
Cs0 O5 3.188719 1_545
Cs0 O1 3.201397 1_554
Cs0 O0 3.240417 1_445
Cs0 O3 3.338121 1_555
Cs0 O4 3.381598 1_554
Cs1 O10 3.036120 1_556
Cs1 O9 3.188557 1_555
Cs1 O7 3.201472 1_556
Cs1 O6 3.240450 1_665
Cs1 O11 3.338228 1_565
Cs1 O8 3.381815 1_566
Ir0 O1 1.965396 1_455
Ir0 O7 1.965418 1_556
Ir0 O8 1.977435 1_456
Ir0 O4 1.977606 1_555
Ir0 O2 2.011104 1_555
Ir0 O10 2.011484 1_456
O0 W0 1.822229 1_555
O0 W1 2.117219 1_555
O1 W2 1.891275 1_555
O2 W0 1.882578 1_555
O3 W2 1.823521 1_455
O3 W1 2.103622 1_555
O4 W1 1.858293 1_555
O5 W0 1.834940 1_555
O5 W2 2.078432 1_455
O6 W1 1.821765 1_555
O6 W0 2.116930 1_545
O7 W2 1.891174 1_455
O8 W0 1.858293 1_545
O9 W1 1.834892 1_555
O9 W2 2.078386 1_555
O10 W1 1.882448 1_555
O11 W2 1.823231 1_555
O11 W0 2.103530 1_545
