# generated using pymatgen
data_Zn3GaP7N12
_symmetry_space_group_name_H-M   'P 1'
_cell_length_a   7.07786669
_cell_length_b   7.05608409
_cell_length_c   7.07786721
_cell_angle_alpha   109.40888858
_cell_angle_beta   109.53347974
_cell_angle_gamma   109.40889789
_symmetry_Int_Tables_number   1
_chemical_formula_structural   Zn3GaP7N12
_chemical_formula_sum   'Zn3 Ga1 P7 N12'
_cell_volume   272.32035775
_cell_formula_units_Z   1
loop_
 _symmetry_equiv_pos_site_id
 _symmetry_equiv_pos_as_xyz
  1  'x, y, z'
loop_
 _atom_site_type_symbol
 _atom_site_label
 _atom_site_symmetry_multiplicity
 _atom_site_fract_x
 _atom_site_fract_y
 _atom_site_fract_z
 _atom_site_occupancy
  Zn  Zn0  1  0.67714760  0.67891038  0.67714760  1
  Zn  Zn1  1  0.32285240  0.00176278  0.00000000  1
  Zn  Zn2  1  1.00000000  0.00176278  0.32285240  1
  Ga  Ga0  1  0.00000000  0.33307687  0.00000000  1
  P  P0  1  0.75092485  0.24908051  0.49911636  1
  P  P1  1  0.25180850  0.74996415  0.50088364  1
  P  P2  1  0.50088364  0.74996415  0.25180850  1
  P  P3  1  0.49911636  0.24908051  0.75092485  1
  P  P4  1  0.74819150  0.49815666  0.24907515  1
  P  P5  1  0.24907515  0.49815666  0.74819150  1
  P  P6  1  0.00000000  0.00749904  0.00000000  1
  N  N0  1  0.55548866  0.26764979  0.00000000  1
  N  N1  1  0.44908384  0.44855495  0.72148324  1
  N  N2  1  0.00000000  0.26764979  0.55548866  1
  N  N3  1  0.27239940  0.99947211  0.55091616  1
  N  N4  1  0.72148324  0.44855495  0.44908384  1
  N  N5  1  0.00000000  0.55033746  0.26608911  1
  N  N6  1  0.55091616  0.99947211  0.27239940  1
  N  N7  1  0.44451134  0.71216113  0.44451134  1
  N  N8  1  0.26608911  0.55033746  0.00000000  1
  N  N9  1  0.73391089  0.28424834  0.73391089  1
  N  N10  1  0.72760060  0.72707271  0.27851676  1
  N  N11  1  0.27851676  0.72707271  0.72760060  1
loop_
_geom_bond_atom_site_label_1
_geom_bond_atom_site_label_2
_geom_bond_distance
_geom_bond_site_symmetry_2
Ga0 N8 1.994551 1_555
Ga0 N9 1.994551 1_454
Ga0 N5 1.994551 1_555
Ga0 P6 2.297305 1_555
P6 Zn0 2.298873 1_444
P6 Zn1 2.298874 1_555
P6 Zn2 2.298874 1_455
N0 P3 1.620376 1_554
N0 P4 1.620378 1_555
N0 Zn1 2.043995 1_555
N1 P5 1.620656 1_555
N1 P3 1.620728 1_555
N1 Zn0 2.068821 1_555
N2 P0 1.620376 1_455
N2 P5 1.620378 1_555
N2 Zn2 2.043995 1_455
N3 P3 1.620649 1_565
N3 P1 1.620735 1_555
N3 Zn2 2.068817 1_465
N4 P4 1.620656 1_555
N4 P0 1.620728 1_555
N4 Zn0 2.068822 1_555
N5 P1 1.648459 1_555
N5 P4 1.648460 1_455
N6 P0 1.620650 1_565
N6 P2 1.620735 1_555
N6 Zn1 2.068818 1_565
N7 P1 1.620376 1_555
N7 P2 1.620376 1_555
N7 Zn0 2.043995 1_555
N8 P2 1.648459 1_555
N8 P5 1.648460 1_554
N9 P3 1.648459 1_555
N9 P0 1.648459 1_555
N10 P2 1.620650 1_555
N10 P4 1.620728 1_555
N10 Zn2 2.068817 1_565
N11 P1 1.620650 1_555
N11 P5 1.620728 1_555
N11 Zn1 2.068818 1_566
