# generated using pymatgen
data_Na2Sr3Sb4
_symmetry_space_group_name_H-M   'P 1'
_cell_length_a   7.98648978
_cell_length_b   8.88370487
_cell_length_c   18.76556437
_cell_angle_alpha   61.83452447
_cell_angle_beta   90.00000000
_cell_angle_gamma   90.00000000
_symmetry_Int_Tables_number   1
_chemical_formula_structural   Na2Sr3Sb4
_chemical_formula_sum   'Na8 Sr12 Sb16'
_cell_volume   1173.75479710
_cell_formula_units_Z   4
loop_
 _symmetry_equiv_pos_site_id
 _symmetry_equiv_pos_as_xyz
  1  'x, y, z'
loop_
 _atom_site_type_symbol
 _atom_site_label
 _atom_site_symmetry_multiplicity
 _atom_site_fract_x
 _atom_site_fract_y
 _atom_site_fract_z
 _atom_site_occupancy
  Na  Na0  1  0.64581895  0.76533247  0.24650811  1
  Na  Na1  1  0.14581895  0.23466753  0.25349189  1
  Na  Na2  1  0.35418105  0.23466753  0.75349189  1
  Na  Na3  1  0.85418105  0.76533247  0.74650811  1
  Na  Na4  1  0.81705620  0.28918024  0.37500043  1
  Na  Na5  1  0.31705620  0.71081976  0.12499957  1
  Na  Na6  1  0.18294380  0.71081976  0.62499957  1
  Na  Na7  1  0.68294380  0.28918024  0.87500043  1
  Sr  Sr0  1  0.98991575  0.78939243  0.40460078  1
  Sr  Sr1  1  0.48991575  0.21060757  0.09539922  1
  Sr  Sr2  1  0.01054312  0.90702457  0.90277164  1
  Sr  Sr3  1  0.51054312  0.09297543  0.59722836  1
  Sr  Sr4  1  0.01008425  0.21060757  0.59539922  1
  Sr  Sr5  1  0.51008425  0.78939243  0.90460078  1
  Sr  Sr6  1  0.98945688  0.09297543  0.09722836  1
  Sr  Sr7  1  0.48945688  0.90702457  0.40277164  1
  Sr  Sr8  1  0.17545246  0.45467746  0.87082860  1
  Sr  Sr9  1  0.67545246  0.54532254  0.62917140  1
  Sr  Sr10  1  0.82454754  0.54532254  0.12917140  1
  Sr  Sr11  1  0.32454754  0.45467746  0.37082860  1
  Sb  Sb0  1  0.51461122  0.33940750  0.24756309  1
  Sb  Sb1  1  0.01461122  0.66059250  0.25243691  1
  Sb  Sb2  1  0.48538878  0.66059250  0.75243691  1
  Sb  Sb3  1  0.98538878  0.33940750  0.74756309  1
  Sb  Sb4  1  0.77318704  0.11190363  0.24958245  1
  Sb  Sb5  1  0.27318704  0.88809637  0.25041755  1
  Sb  Sb6  1  0.22681296  0.88809637  0.75041755  1
  Sb  Sb7  1  0.72681296  0.11190363  0.74958245  1
  Sb  Sb8  1  0.66258652  0.50329632  0.46045652  1
  Sb  Sb9  1  0.16258652  0.49670368  0.03954348  1
  Sb  Sb10  1  0.33996193  0.07158438  0.96158563  1
  Sb  Sb11  1  0.83996193  0.92841562  0.53841437  1
  Sb  Sb12  1  0.33741348  0.49670368  0.53954348  1
  Sb  Sb13  1  0.83741348  0.50329632  0.96045652  1
  Sb  Sb14  1  0.66003807  0.92841562  0.03841437  1
  Sb  Sb15  1  0.16003807  0.07158438  0.46158563  1
loop_
_geom_bond_atom_site_label_1
_geom_bond_atom_site_label_2
_geom_bond_distance
_geom_bond_site_symmetry_2
Na0 Sb1 3.074989 1_655
Na0 Sb5 3.182298 1_555
Na0 Sb4 3.268790 1_565
Na0 Sb14 3.466983 1_555
Na0 Sb8 3.568326 1_555
Na1 Sb0 3.074989 1_555
Na1 Sb4 3.182298 1_455
Na1 Sb5 3.268790 1_545
Na1 Sb15 3.466983 1_555
Na1 Sb9 3.568326 1_555
Na2 Sb3 3.074989 1_455
Na2 Sb7 3.182298 1_555
Na2 Sb6 3.268790 1_545
Na2 Sb10 3.466983 1_555
Na2 Sb12 3.568326 1_555
Na3 Sb2 3.074989 1_555
Na3 Sb6 3.182298 1_655
Na3 Sb7 3.268790 1_565
Na3 Sb11 3.466983 1_555
Na3 Sb13 3.568326 1_555
Na4 Sb11 3.229657 1_545
Na4 Sb8 3.254438 1_555
Na4 Sb0 3.277989 1_555
Na4 Sb15 3.303783 1_655
Na4 Sb1 3.391449 1_655
Na4 Sb4 3.411925 1_555
Na5 Sb10 3.229657 1_564
Na5 Sb9 3.254438 1_555
Na5 Sb1 3.277989 1_555
Na5 Sb14 3.303783 1_555
Na5 Sb0 3.391449 1_555
Na5 Sb5 3.411925 1_555
Na6 Sb15 3.229657 1_565
Na6 Sb12 3.254438 1_555
Na6 Sb2 3.277989 1_555
Na6 Sb11 3.303783 1_455
Na6 Sb3 3.391449 1_455
Na6 Sb6 3.411925 1_555
Na7 Sb14 3.229657 1_546
Na7 Sb13 3.254438 1_555
Na7 Sb3 3.277989 1_555
Na7 Sb10 3.303783 1_555
Na7 Sb2 3.391449 1_555
Na7 Sb7 3.411925 1_555
Sb0 Sb4 2.877252 1_555
Sb0 Sr10 3.251559 1_555
Sb0 Sr11 3.307504 1_555
Sb0 Sr1 3.547689 1_555
Sb0 Sr7 3.566003 1_545
Sb1 Sb5 2.877252 1_555
Sb1 Sr11 3.251559 1_555
Sb1 Sr10 3.307504 1_455
Sb1 Sr0 3.547689 1_455
Sb1 Sr6 3.566003 1_465
Sb2 Sb6 2.877252 1_555
Sb2 Sr8 3.251559 1_555
Sb2 Sr9 3.307504 1_555
Sb2 Sr5 3.547689 1_555
Sb2 Sr3 3.566003 1_565
Sb3 Sb7 2.877252 1_555
Sb3 Sr9 3.251559 1_555
Sb3 Sr8 3.307504 1_655
Sb3 Sr4 3.547689 1_655
Sb3 Sr2 3.566003 1_645
Sb4 Sr6 3.411658 1_555
Sb4 Sr7 3.431024 1_545
Sb4 Sr0 3.434958 1_545
Sb4 Sr1 3.444328 1_555
Sb4 Sr10 3.447598 1_555
Sb5 Sr7 3.411658 1_555
Sb5 Sr6 3.431024 1_465
Sb5 Sr1 3.434958 1_565
Sb5 Sr0 3.444328 1_455
Sb5 Sr11 3.447598 1_555
Sb6 Sr2 3.411658 1_555
Sb6 Sr3 3.431024 1_565
Sb6 Sr4 3.434958 1_565
Sb6 Sr5 3.444328 1_555
Sb6 Sr8 3.447598 1_555
Sb7 Sr3 3.411658 1_555
Sb7 Sr2 3.431024 1_645
Sb7 Sr5 3.434958 1_545
Sb7 Sr4 3.444328 1_655
Sb7 Sr9 3.447598 1_555
Sb8 Sr11 3.315089 1_555
Sb8 Sr9 3.359997 1_555
Sb8 Sr0 3.446378 1_555
Sb8 Sr7 3.504592 1_555
Sb8 Sr3 3.537946 1_555
Sb8 Sr4 3.828788 1_655
Sb9 Sr10 3.315089 1_455
Sb9 Sr8 3.359997 1_554
Sb9 Sr1 3.446378 1_555
Sb9 Sr6 3.504592 1_455
Sb9 Sr2 3.537946 1_554
Sb9 Sr5 3.828788 1_554
Sb10 Sb14 2.915435 1_546
Sb10 Sr8 3.276787 1_555
Sb10 Sr2 3.435123 1_545
Sb10 Sr5 3.435823 1_545
Sb10 Sr1 3.491832 1_556
Sb10 Sr6 3.848114 1_456
Sb11 Sb15 2.915435 1_665
Sb11 Sr9 3.276787 1_555
Sb11 Sr3 3.435123 1_565
Sb11 Sr4 3.435823 1_665
Sb11 Sr0 3.491832 1_555
Sb11 Sr7 3.848114 1_555
Sb12 Sb8 2.977973 1_555
Sb12 Sr9 3.315089 1_555
Sb12 Sr11 3.359997 1_555
Sb12 Sr4 3.446378 1_555
Sb12 Sr3 3.504592 1_555
Sb12 Sr7 3.537946 1_555
Sb12 Sr0 3.828788 1_455
Sb13 Sb9 2.977973 1_656
Sb13 Sr8 3.315089 1_655
Sb13 Sr10 3.359997 1_556
Sb13 Sr5 3.446378 1_555
Sb13 Sr2 3.504592 1_655
Sb13 Sr6 3.537946 1_556
Sb13 Sr1 3.828788 1_556
Sb14 Sr10 3.276787 1_555
Sb14 Sr6 3.435123 1_565
Sb14 Sr1 3.435823 1_565
Sb14 Sr5 3.491832 1_554
Sb14 Sr2 3.848114 1_654
Sb15 Sr11 3.276787 1_555
Sb15 Sr7 3.435123 1_545
Sb15 Sr0 3.435823 1_445
Sb15 Sr4 3.491832 1_555
Sb15 Sr3 3.848114 1_555
