# generated using pymatgen
data_Zr4Ta5NbN12
_symmetry_space_group_name_H-M   'P 1'
_cell_length_a   5.31056599
_cell_length_b   5.31056524
_cell_length_c   10.62030366
_cell_angle_alpha   90.00000000
_cell_angle_beta   90.00000000
_cell_angle_gamma   120.13158496
_symmetry_Int_Tables_number   1
_chemical_formula_structural   Zr4Ta5NbN12
_chemical_formula_sum   'Zr4 Ta5 Nb1 N12'
_cell_volume   259.04293295
_cell_formula_units_Z   1
loop_
 _symmetry_equiv_pos_site_id
 _symmetry_equiv_pos_as_xyz
  1  'x, y, z'
loop_
 _atom_site_type_symbol
 _atom_site_label
 _atom_site_symmetry_multiplicity
 _atom_site_fract_x
 _atom_site_fract_y
 _atom_site_fract_z
 _atom_site_occupancy
  Zr  Zr0  1  0.66681489  0.33466580  0.99982104  1
  Zr  Zr1  1  0.33466580  0.66681489  0.99982104  1
  Zr  Zr2  1  0.33466580  0.66681489  0.50017896  1
  Zr  Zr3  1  0.66681489  0.33466580  0.50017896  1
  Ta  Ta0  1  0.31870508  0.99939069  0.75000000  1
  Ta  Ta1  1  0.99939069  0.31870508  0.75000000  1
  Ta  Ta2  1  0.31880366  0.31880366  0.25000000  1
  Ta  Ta3  1  0.68180979  0.00059761  0.25000000  1
  Ta  Ta4  1  0.00059761  0.68180979  0.25000000  1
  Nb  Nb0  1  0.67942763  0.67942763  0.75000000  1
  N  N0  1  0.65590490  0.65590490  0.37146187  1
  N  N1  1  0.34589079  0.00034284  0.37144499  1
  N  N2  1  0.00034284  0.34589079  0.37144499  1
  N  N3  1  0.33874700  0.33874700  0.62710885  1
  N  N4  1  0.65402513  0.00424241  0.62788188  1
  N  N5  1  0.00424241  0.65402513  0.62788188  1
  N  N6  1  0.33874700  0.33874700  0.87289115  1
  N  N7  1  0.65402513  0.00424241  0.87211812  1
  N  N8  1  0.00424241  0.65402513  0.87211812  1
  N  N9  1  0.65590490  0.65590490  0.12853813  1
  N  N10  1  0.34589079  0.00034284  0.12855501  1
  N  N11  1  0.00034284  0.34589079  0.12855501  1
loop_
_geom_bond_atom_site_label_1
_geom_bond_atom_site_label_2
_geom_bond_distance
_geom_bond_site_symmetry_2
N0 Ta3 2.186523 1_565
N0 Ta4 2.186523 1_655
N0 Ta2 2.203650 1_555
N0 Zr3 2.209439 1_555
N0 Zr2 2.209440 1_555
N1 Ta4 2.184783 1_545
N1 Ta2 2.188300 1_555
N1 Ta3 2.200793 1_555
N1 Zr3 2.210910 1_555
N1 Zr2 2.214497 1_545
N2 Ta3 2.184783 1_455
N2 Ta2 2.188300 1_555
N2 Ta4 2.200793 1_555
N2 Zr2 2.210910 1_555
N2 Zr3 2.214497 1_455
N3 Ta0 2.184028 1_545
N3 Ta1 2.184028 1_455
N3 Zr2 2.211544 1_555
N3 Zr3 2.211544 1_555
N3 Nb0 2.227916 1_555
N4 Ta1 2.181666 1_555
N4 Zr3 2.191677 1_555
N4 Ta0 2.192639 1_545
N4 Zr2 2.208076 1_545
N4 Nb0 2.215695 1_545
N5 Ta0 2.181666 1_555
N5 Zr2 2.191677 1_555
N5 Ta1 2.192638 1_455
N5 Zr3 2.208076 1_455
N5 Nb0 2.215696 1_455
N6 Ta0 2.184028 1_545
N6 Ta1 2.184028 1_455
N6 Zr1 2.211544 1_555
N6 Zr0 2.211544 1_555
N6 Nb0 2.227916 1_555
N7 Ta1 2.181666 1_555
N7 Zr0 2.191677 1_555
N7 Ta0 2.192639 1_545
N7 Zr1 2.208076 1_545
N7 Nb0 2.215695 1_545
N8 Ta0 2.181666 1_555
N8 Zr1 2.191677 1_555
N8 Ta1 2.192638 1_455
N8 Zr0 2.208076 1_455
N8 Nb0 2.215696 1_455
N9 Ta3 2.186523 1_565
N9 Ta4 2.186523 1_655
N9 Ta2 2.203650 1_555
N9 Zr0 2.209439 1_554
N9 Zr1 2.209440 1_554
N10 Ta4 2.184783 1_545
N10 Ta2 2.188300 1_555
N10 Ta3 2.200793 1_555
N10 Zr0 2.210910 1_554
N10 Zr1 2.214497 1_544
N11 Ta3 2.184783 1_455
N11 Ta2 2.188300 1_555
N11 Ta4 2.200793 1_555
N11 Zr1 2.210910 1_554
N11 Zr0 2.214497 1_454
