# generated using pymatgen
data_K6Te4Pb
_symmetry_space_group_name_H-M   'P 1'
_cell_length_a   11.42760232
_cell_length_b   11.42760227
_cell_length_c   8.45154875
_cell_angle_alpha   90.00000000
_cell_angle_beta   90.00000000
_cell_angle_gamma   120.00000585
_symmetry_Int_Tables_number   1
_chemical_formula_structural   K6Te4Pb
_chemical_formula_sum   'K12 Te8 Pb2'
_cell_volume   955.82226410
_cell_formula_units_Z   2
loop_
 _symmetry_equiv_pos_site_id
 _symmetry_equiv_pos_as_xyz
  1  'x, y, z'
loop_
 _atom_site_type_symbol
 _atom_site_label
 _atom_site_symmetry_multiplicity
 _atom_site_fract_x
 _atom_site_fract_y
 _atom_site_fract_z
 _atom_site_occupancy
  K  K0  1  0.47342328  0.94684555  0.97113490  1
  K  K1  1  0.52657672  0.47342328  0.47113490  1
  K  K2  1  0.94684555  0.47342328  0.47113490  1
  K  K3  1  0.05315445  0.52657672  0.97113490  1
  K  K4  1  0.47342328  0.52657672  0.97113490  1
  K  K5  1  0.52657672  0.05315445  0.47113490  1
  K  K6  1  0.70276905  0.85138403  0.29917775  1
  K  K7  1  0.85138403  0.70276905  0.79917775  1
  K  K8  1  0.85138403  0.14861597  0.79917775  1
  K  K9  1  0.14861597  0.85138403  0.29917775  1
  K  K10  1  0.14861597  0.29723095  0.29917775  1
  K  K11  1  0.29723095  0.14861597  0.79917775  1
  Te  Te0  1  0.63456578  0.81728389  0.70830115  1
  Te  Te1  1  0.81728389  0.63456578  0.20830115  1
  Te  Te2  1  0.81728389  0.18271611  0.20830115  1
  Te  Te3  1  0.18271611  0.81728389  0.70830115  1
  Te  Te4  1  0.18271611  0.36543422  0.70830115  1
  Te  Te5  1  0.36543422  0.18271611  0.20830115  1
  Te  Te6  1  0.33333300  0.66666700  0.23046836  1
  Te  Te7  1  0.66666700  0.33333300  0.73046836  1
  Pb  Pb0  1  0.33333300  0.66666700  0.59920922  1
  Pb  Pb1  1  0.66666700  0.33333300  0.09920922  1
loop_
_geom_bond_atom_site_label_1
_geom_bond_atom_site_label_2
_geom_bond_distance
_geom_bond_site_symmetry_2
K0 Te6 3.534451 1_556
K0 Te0 3.639229 1_555
K0 Te3 3.639253 1_555
K0 Pb1 3.975120 1_566
K0 Te5 4.016502 1_566
K0 Te2 4.016509 1_566
K1 Te7 3.534467 1_555
K1 Te5 3.639251 1_555
K1 Te1 3.639251 1_555
K1 Pb0 3.975120 1_555
K1 Te0 4.016511 1_555
K1 Te4 4.016511 1_555
K2 Te7 3.534451 1_555
K2 Te1 3.639229 1_555
K2 Te2 3.639253 1_555
K2 Pb0 3.975120 1_655
K2 Te4 4.016502 1_655
K2 Te3 4.016509 1_655
K3 Te6 3.534451 1_556
K3 Te4 3.639229 1_555
K3 Te3 3.639253 1_555
K3 Pb1 3.975120 1_456
K3 Te1 4.016502 1_456
K3 Te2 4.016509 1_456
K4 Te6 3.534467 1_556
K4 Te0 3.639251 1_555
K4 Te4 3.639251 1_555
K4 Pb1 3.975120 1_556
K4 Te5 4.016511 1_556
K4 Te1 4.016511 1_556
K5 Te7 3.534451 1_555
K5 Te5 3.639229 1_555
K5 Te2 3.639253 1_555
K5 Pb0 3.975120 1_545
K5 Te0 4.016502 1_545
K5 Te3 4.016509 1_545
K6 Te2 3.418158 1_565
K6 Te1 3.418169 1_555
K6 Te0 3.522992 1_555
K6 Te6 3.701987 1_555
K7 Te3 3.418158 1_655
K7 Te0 3.418169 1_555
K7 Te1 3.522992 1_556
K7 Te7 3.701987 1_555
K8 Te0 3.418160 1_545
K8 Te4 3.418160 1_655
K8 Te2 3.522986 1_556
K8 Te7 3.701968 1_555
K9 Te5 3.418160 1_565
K9 Te1 3.418160 1_455
K9 Te3 3.522986 1_555
K9 Te6 3.701968 1_555
K10 Te2 3.418158 1_455
K10 Te5 3.418169 1_555
K10 Te4 3.522992 1_555
K10 Te6 3.701987 1_555
K11 Te3 3.418158 1_545
K11 Te4 3.418169 1_555
K11 Te5 3.522992 1_556
K11 Te7 3.701987 1_555
Pb0 Te6 3.116431 1_555
Pb0 Te4 3.120497 1_555
Pb0 Te0 3.120497 1_555
Pb0 Te3 3.120507 1_555
Pb1 Te7 3.116431 1_554
Pb1 Te1 3.120497 1_555
Pb1 Te5 3.120497 1_555
Pb1 Te2 3.120507 1_555
