# generated using pymatgen
data_NaCa2Hg2Sb3
_symmetry_space_group_name_H-M   'P 1'
_cell_length_a   4.67913778
_cell_length_b   12.29262367
_cell_length_c   15.88331412
_cell_angle_alpha   90.00000000
_cell_angle_beta   90.00000000
_cell_angle_gamma   90.00000000
_symmetry_Int_Tables_number   1
_chemical_formula_structural   NaCa2Hg2Sb3
_chemical_formula_sum   'Na4 Ca8 Hg8 Sb12'
_cell_volume   913.59043634
_cell_formula_units_Z   4
loop_
 _symmetry_equiv_pos_site_id
 _symmetry_equiv_pos_as_xyz
  1  'x, y, z'
loop_
 _atom_site_type_symbol
 _atom_site_label
 _atom_site_symmetry_multiplicity
 _atom_site_fract_x
 _atom_site_fract_y
 _atom_site_fract_z
 _atom_site_occupancy
  Na  Na0  1  0.75000000  0.10009037  0.05032519  1
  Na  Na1  1  0.75000000  0.60009037  0.44967481  1
  Na  Na2  1  0.25000000  0.89990963  0.94967481  1
  Na  Na3  1  0.25000000  0.39990963  0.55032519  1
  Ca  Ca0  1  0.75000000  0.39069355  0.92695416  1
  Ca  Ca1  1  0.75000000  0.89069355  0.57304584  1
  Ca  Ca2  1  0.25000000  0.60930645  0.07304584  1
  Ca  Ca3  1  0.25000000  0.10930645  0.42695416  1
  Ca  Ca4  1  0.75000000  0.13542176  0.77824076  1
  Ca  Ca5  1  0.75000000  0.63542176  0.72175924  1
  Ca  Ca6  1  0.25000000  0.86457824  0.22175924  1
  Ca  Ca7  1  0.25000000  0.36457824  0.27824076  1
  Hg  Hg0  1  0.75000000  0.19417941  0.57425715  1
  Hg  Hg1  1  0.75000000  0.69417941  0.92574285  1
  Hg  Hg2  1  0.25000000  0.80582059  0.42574285  1
  Hg  Hg3  1  0.25000000  0.30582059  0.07425715  1
  Hg  Hg4  1  0.75000000  0.15517383  0.28492541  1
  Hg  Hg5  1  0.75000000  0.65517383  0.21507459  1
  Hg  Hg6  1  0.25000000  0.84482617  0.71507459  1
  Hg  Hg7  1  0.25000000  0.34482617  0.78492541  1
  Sb  Sb0  1  0.75000000  0.42961967  0.12872390  1
  Sb  Sb1  1  0.75000000  0.92961967  0.37127610  1
  Sb  Sb2  1  0.25000000  0.57038033  0.87127610  1
  Sb  Sb3  1  0.25000000  0.07038033  0.62872390  1
  Sb  Sb4  1  0.75000000  0.38025134  0.69133954  1
  Sb  Sb5  1  0.75000000  0.88025134  0.80866046  1
  Sb  Sb6  1  0.25000000  0.61974866  0.30866046  1
  Sb  Sb7  1  0.25000000  0.11974866  0.19133954  1
  Sb  Sb8  1  0.75000000  0.81431173  0.08002803  1
  Sb  Sb9  1  0.75000000  0.31431173  0.41997197  1
  Sb  Sb10  1  0.25000000  0.18568827  0.91997197  1
  Sb  Sb11  1  0.25000000  0.68568827  0.58002803  1
loop_
_geom_bond_atom_site_label_1
_geom_bond_atom_site_label_2
_geom_bond_distance
_geom_bond_site_symmetry_2
Na0 Sb7 3.247856 1_655
Na0 Sb7 3.247856 1_555
Na0 Sb10 3.296586 1_654
Na0 Sb10 3.296586 1_554
Na0 Sb8 3.544507 1_545
Na1 Sb6 3.247856 1_555
Na1 Sb6 3.247856 1_655
Na1 Sb11 3.296586 1_555
Na1 Sb11 3.296586 1_655
Na1 Sb9 3.544507 1_555
Na2 Sb5 3.247856 1_455
Na2 Sb5 3.247856 1_555
Na2 Sb8 3.296586 1_456
Na2 Sb8 3.296586 1_556
Na2 Sb10 3.544507 1_565
Na3 Sb4 3.247856 1_455
Na3 Sb4 3.247856 1_555
Na3 Sb9 3.296586 1_455
Na3 Sb9 3.296586 1_555
Na3 Sb11 3.544507 1_555
Ca0 Sb0 3.240298 1_556
Ca0 Hg7 3.298563 1_655
Ca0 Hg7 3.298563 1_555
Ca0 Sb2 3.336848 1_655
Ca0 Sb2 3.336848 1_555
Ca0 Sb10 3.440428 1_555
Ca0 Sb10 3.440428 1_655
Ca0 Hg3 3.469307 1_556
Ca0 Hg3 3.469307 1_656
Ca0 Hg1 3.730687 1_555
Ca0 Sb4 3.744542 1_555
Ca1 Sb1 3.240298 1_555
Ca1 Hg6 3.298563 1_555
Ca1 Hg6 3.298563 1_655
Ca1 Sb3 3.336848 1_565
Ca1 Sb3 3.336848 1_665
Ca1 Sb11 3.440428 1_655
Ca1 Sb11 3.440428 1_555
Ca1 Hg2 3.469307 1_555
Ca1 Hg2 3.469307 1_655
Ca1 Hg0 3.730687 1_565
Ca1 Sb5 3.744542 1_555
Ca2 Sb2 3.240298 1_554
Ca2 Hg5 3.298563 1_455
Ca2 Hg5 3.298563 1_555
Ca2 Sb0 3.336848 1_455
Ca2 Sb0 3.336848 1_555
Ca2 Sb8 3.440428 1_455
Ca2 Sb8 3.440428 1_555
Ca2 Hg1 3.469307 1_554
Ca2 Hg1 3.469307 1_454
Ca2 Hg3 3.730687 1_555
Ca2 Sb6 3.744542 1_555
Ca3 Sb3 3.240298 1_555
Ca3 Hg4 3.298563 1_555
Ca3 Hg4 3.298563 1_455
Ca3 Sb1 3.336848 1_445
Ca3 Sb1 3.336848 1_545
Ca3 Sb9 3.440428 1_455
Ca3 Sb9 3.440428 1_555
Ca3 Hg0 3.469307 1_455
Ca3 Hg0 3.469307 1_555
Ca3 Hg2 3.730687 1_545
Ca3 Sb7 3.744542 1_555
Ca4 Sb5 3.173708 1_545
Ca4 Sb10 3.305014 1_655
Ca4 Sb10 3.305014 1_555
Ca4 Sb4 3.311020 1_555
Ca4 Hg0 3.319470 1_555
Ca4 Sb3 3.428209 1_655
Ca4 Sb3 3.428209 1_555
Ca4 Hg7 3.480086 1_655
Ca4 Hg7 3.480086 1_555
Ca5 Sb4 3.173708 1_555
Ca5 Sb11 3.305014 1_555
Ca5 Sb11 3.305014 1_655
Ca5 Sb5 3.311020 1_555
Ca5 Hg1 3.319470 1_555
Ca5 Sb2 3.428209 1_555
Ca5 Sb2 3.428209 1_655
Ca5 Hg6 3.480086 1_555
Ca5 Hg6 3.480086 1_655
Ca6 Sb7 3.173708 1_565
Ca6 Sb8 3.305014 1_455
Ca6 Sb8 3.305014 1_555
Ca6 Sb6 3.311020 1_555
Ca6 Hg2 3.319470 1_555
Ca6 Sb1 3.428209 1_455
Ca6 Sb1 3.428209 1_555
Ca6 Hg5 3.480086 1_455
Ca6 Hg5 3.480086 1_555
Ca7 Sb6 3.173708 1_555
Ca7 Sb9 3.305014 1_455
Ca7 Sb9 3.305014 1_555
Ca7 Sb7 3.311020 1_555
Ca7 Hg3 3.319470 1_555
Ca7 Sb0 3.428209 1_455
Ca7 Sb0 3.428209 1_555
Ca7 Hg4 3.480086 1_455
Ca7 Hg4 3.480086 1_555
Hg0 Sb9 2.861120 1_555
Hg0 Sb3 2.921973 1_655
Hg0 Sb3 2.921973 1_555
Hg0 Sb4 2.947901 1_555
Hg0 Na3 3.466083 1_555
Hg0 Na3 3.466083 1_655
Hg1 Sb8 2.861120 1_556
Hg1 Sb2 2.921973 1_555
Hg1 Sb2 2.921973 1_655
Hg1 Sb5 2.947901 1_555
Hg1 Na2 3.466083 1_555
Hg1 Na2 3.466083 1_655
Hg2 Sb11 2.861120 1_555
Hg2 Sb1 2.921973 1_455
Hg2 Sb1 2.921973 1_555
Hg2 Sb6 2.947901 1_555
Hg2 Na1 3.466083 1_555
Hg2 Na1 3.466083 1_455
Hg3 Sb10 2.861120 1_554
Hg3 Sb0 2.921973 1_455
Hg3 Sb0 2.921973 1_555
Hg3 Sb7 2.947901 1_555
Hg3 Na0 3.466083 1_455
Hg3 Na0 3.466083 1_555
Hg4 Sb7 2.805844 1_655
Hg4 Sb7 2.805844 1_555
Hg4 Sb9 2.903063 1_555
Hg4 Sb1 3.093333 1_545
Hg5 Sb6 2.805844 1_655
Hg5 Sb6 2.805844 1_555
Hg5 Sb8 2.903063 1_555
Hg5 Sb0 3.093333 1_555
Hg6 Sb5 2.805844 1_455
Hg6 Sb5 2.805844 1_555
Hg6 Sb11 2.903063 1_555
Hg6 Sb3 3.093333 1_565
Hg7 Sb4 2.805844 1_455
Hg7 Sb4 2.805844 1_555
Hg7 Sb10 2.903063 1_555
Hg7 Sb2 3.093333 1_555
