# generated using pymatgen
data_Cs2CrCuS4
_symmetry_space_group_name_H-M   'P 1'
_cell_length_a   14.11111535
_cell_length_b   12.57834426
_cell_length_c   7.49344382
_cell_angle_alpha   85.36200905
_cell_angle_beta   62.68032797
_cell_angle_gamma   31.95765847
_symmetry_Int_Tables_number   1
_chemical_formula_structural   Cs2CrCuS4
_chemical_formula_sum   'Cs4 Cr2 Cu2 S8'
_cell_volume   472.01726709
_cell_formula_units_Z   2
loop_
 _symmetry_equiv_pos_site_id
 _symmetry_equiv_pos_as_xyz
  1  'x, y, z'
loop_
 _atom_site_type_symbol
 _atom_site_label
 _atom_site_symmetry_multiplicity
 _atom_site_fract_x
 _atom_site_fract_y
 _atom_site_fract_z
 _atom_site_occupancy
  Cs  Cs0  1  0.67719257  0.67719257  0.32280743  1
  Cs  Cs1  1  0.32280743  0.32280743  0.67719257  1
  Cs  Cs2  1  0.92719257  0.92719257  0.57280743  1
  Cs  Cs3  1  0.57280743  0.57280743  0.92719257  1
  Cr  Cr0  1  0.75000000  0.75000000  0.75000000  1
  Cr  Cr1  1  0.50000000  0.50000000  0.50000000  1
  Cu  Cu0  1  0.00000000  0.00000000  0.00000000  1
  Cu  Cu1  1  0.25000000  0.25000000  0.25000000  1
  S  S0  1  0.38170700  0.01914127  0.94238279  1
  S  S1  1  0.65676994  0.94238279  0.01914127  1
  S  S2  1  0.94238279  0.65676994  0.38170700  1
  S  S3  1  0.01914127  0.38170700  0.65676994  1
  S  S4  1  0.23085873  0.86829300  0.59323006  1
  S  S5  1  0.59323006  0.30761721  0.23085873  1
  S  S6  1  0.30761721  0.59323006  0.86829300  1
  S  S7  1  0.86829300  0.23085873  0.30761721  1
loop_
_geom_bond_atom_site_label_1
_geom_bond_atom_site_label_2
_geom_bond_distance
_geom_bond_site_symmetry_2
Cs0 S3 3.531096 1_654
Cs0 S0 3.531103 1_565
Cs0 S7 3.596582 1_555
Cs0 S4 3.596584 1_555
Cs0 S3 3.693459 1_565
Cs0 S0 3.693461 1_654
Cs0 S1 3.759097 1_555
Cs0 S2 3.759101 1_555
Cs1 S1 3.531096 1_456
Cs1 S2 3.531099 1_545
Cs1 S6 3.596571 1_555
Cs1 S5 3.596574 1_555
Cs1 S1 3.693455 1_545
Cs1 S2 3.693462 1_456
Cs1 S3 3.759087 1_555
Cs1 S0 3.759091 1_555
Cs2 S5 3.531096 1_655
Cs2 S6 3.531099 1_565
Cs2 S2 3.596571 1_555
Cs2 S1 3.596574 1_556
Cs2 S5 3.693455 1_566
Cs2 S6 3.693462 1_654
Cs2 S4 3.759087 1_655
Cs2 S7 3.759091 1_565
Cs3 S4 3.531096 1_556
Cs3 S7 3.531103 1_555
Cs3 S0 3.596582 1_565
Cs3 S3 3.596584 1_655
Cs3 S4 3.693459 1_645
Cs3 S7 3.693461 1_466
Cs3 S5 3.759097 1_556
Cs3 S6 3.759101 1_555
Cr0 S0 2.146074 1_565
Cr0 S3 2.146076 1_655
Cr0 S2 2.146080 1_555
Cr0 S1 2.146085 1_556
Cr1 S7 2.146074 1_555
Cr1 S4 2.146076 1_555
Cr1 S6 2.146080 1_555
Cr1 S5 2.146085 1_555
Cu0 S7 2.278622 1_455
Cu0 S4 2.278628 1_544
Cu0 S6 2.278630 1_544
Cu0 S5 2.278633 1_455
Cu1 S0 2.278622 1_554
Cu1 S3 2.278628 1_555
Cu1 S2 2.278630 1_455
Cu1 S1 2.278633 1_545
