# generated using pymatgen
data_YSc(SnPd)2
_symmetry_space_group_name_H-M   'P 1'
_cell_length_a   7.52580890
_cell_length_b   7.52580855
_cell_length_c   7.58098667
_cell_angle_alpha   90.00000000
_cell_angle_beta   90.00000000
_cell_angle_gamma   119.99998885
_symmetry_Int_Tables_number   1
_chemical_formula_structural   YSc(SnPd)2
_chemical_formula_sum   'Y3 Sc3 Sn6 Pd6'
_cell_volume   371.84570164
_cell_formula_units_Z   3
loop_
 _symmetry_equiv_pos_site_id
 _symmetry_equiv_pos_as_xyz
  1  'x, y, z'
loop_
 _atom_site_type_symbol
 _atom_site_label
 _atom_site_symmetry_multiplicity
 _atom_site_fract_x
 _atom_site_fract_y
 _atom_site_fract_z
 _atom_site_occupancy
  Y  Y0  1  0.40246417  0.00023182  0.25000000  1
  Y  Y1  1  0.59776765  0.59753583  0.25000000  1
  Y  Y2  1  0.99976818  0.40223235  0.25000000  1
  Sc  Sc0  1  0.39112874  0.99917483  0.75000000  1
  Sc  Sc1  1  0.60804609  0.60887126  0.75000000  1
  Sc  Sc2  1  0.00082517  0.39195391  0.75000000  1
  Sn  Sn0  1  0.73172468  0.00041233  0.99055301  1
  Sn  Sn1  1  0.26868766  0.26827532  0.50944699  1
  Sn  Sn2  1  0.99958767  0.73131234  0.50944699  1
  Sn  Sn3  1  0.99958767  0.73131234  0.99055301  1
  Sn  Sn4  1  0.26868766  0.26827532  0.99055301  1
  Sn  Sn5  1  0.73172468  0.00041233  0.50944699  1
  Pd  Pd0  1  0.33333300  0.66666700  0.96569643  1
  Pd  Pd1  1  0.33333300  0.66666700  0.53430357  1
  Pd  Pd2  1  0.66666700  0.33333300  0.96339943  1
  Pd  Pd3  1  0.66666700  0.33333300  0.53660057  1
  Pd  Pd4  1  0.00000000  0.00000000  0.25000000  1
  Pd  Pd5  1  0.00000000  0.00000000  0.75000000  1
loop_
_geom_bond_atom_site_label_1
_geom_bond_atom_site_label_2
_geom_bond_distance
_geom_bond_site_symmetry_2
Sc0 Sn0 3.141996 1_565
Sc0 Sn5 3.141996 1_565
Sc0 Sn3 3.183097 1_455
Sc0 Sn2 3.183097 1_455
Sc0 Sn4 3.184700 1_565
Sc0 Sn1 3.184700 1_565
Sc1 Sn4 3.141996 1_555
Sc1 Sn1 3.141996 1_555
Sc1 Sn0 3.183096 1_565
Sc1 Sn5 3.183096 1_565
Sc1 Sn3 3.184700 1_555
Sc1 Sn2 3.184700 1_555
Sc2 Sn3 3.141996 1_455
Sc2 Sn2 3.141996 1_455
Sc2 Sn4 3.183096 1_555
Sc2 Sn1 3.183096 1_555
Sc2 Sn0 3.184700 1_455
Sc2 Sn5 3.184700 1_455
Sn0 Y0 3.163137 1_556
Sn0 Y2 3.313962 1_556
Sn0 Y1 3.319805 1_546
Sn1 Y1 3.163137 1_555
Sn1 Y0 3.313961 1_555
Sn1 Y2 3.319805 1_455
Sn2 Y2 3.163137 1_555
Sn2 Y1 3.313962 1_555
Sn2 Y0 3.319805 1_665
Sn3 Y2 3.163137 1_556
Sn3 Y1 3.313962 1_556
Sn3 Y0 3.319805 1_666
Sn4 Y1 3.163137 1_556
Sn4 Y0 3.313961 1_556
Sn4 Y2 3.319805 1_456
Sn5 Y0 3.163137 1_555
Sn5 Y2 3.313962 1_555
Sn5 Y1 3.319805 1_545
Pd0 Sn3 2.793353 1_455
Pd0 Sn0 2.793358 1_565
Pd0 Sn4 2.793360 1_555
Pd0 Sc0 2.834883 1_555
Pd0 Sc2 2.834885 1_555
Pd0 Sc1 2.834889 1_555
Pd0 Y0 3.148299 1_566
Pd0 Y2 3.148301 1_456
Pd0 Y1 3.148304 1_556
Pd1 Sn2 2.793353 1_455
Pd1 Sn5 2.793358 1_565
Pd1 Sn1 2.793360 1_555
Pd1 Sc0 2.834883 1_555
Pd1 Sc2 2.834885 1_555
Pd1 Sc1 2.834889 1_555
Pd1 Y0 3.148299 1_565
Pd1 Y2 3.148301 1_455
Pd1 Y1 3.148304 1_555
Pd2 Sn0 2.790400 1_555
Pd2 Sn3 2.790405 1_555
Pd2 Sn4 2.790407 1_555
Pd2 Sc2 2.833134 1_655
Pd2 Sc0 2.833137 1_545
Pd2 Sc1 2.833140 1_555
Pd2 Y2 3.158167 1_556
Pd2 Y0 3.158169 1_556
Pd2 Y1 3.158172 1_556
Pd3 Sn5 2.790400 1_555
Pd3 Sn2 2.790405 1_555
Pd3 Sn1 2.790407 1_555
Pd3 Sc2 2.833134 1_655
Pd3 Sc0 2.833137 1_545
Pd3 Sc1 2.833140 1_555
Pd3 Y2 3.158167 1_555
Pd3 Y0 3.158169 1_555
Pd3 Y1 3.158172 1_555
Pd4 Sn2 2.819777 1_445
Pd4 Sn3 2.819777 1_444
Pd4 Sn5 2.819778 1_455
Pd4 Sn0 2.819778 1_454
Pd4 Sn1 2.819778 1_555
Pd4 Sn4 2.819778 1_554
Pd4 Y2 3.027996 1_455
Pd4 Y0 3.027997 1_555
Pd4 Y1 3.027997 1_445
Pd5 Sn3 2.721803 1_445
Pd5 Sn2 2.721803 1_445
Pd5 Sn0 2.721803 1_455
Pd5 Sn5 2.721803 1_455
Pd5 Sn4 2.721804 1_555
Pd5 Sn1 2.721804 1_555
Pd5 Sc2 2.946670 1_555
Pd5 Sc0 2.946670 1_545
Pd5 Sc1 2.946671 1_445
