# generated using pymatgen
data_Cs3IrRhBr9
_symmetry_space_group_name_H-M   'P 1'
_cell_length_a   7.57915950
_cell_length_b   7.57915900
_cell_length_c   19.29198500
_cell_angle_alpha   90.00000000
_cell_angle_beta   90.00000000
_cell_angle_gamma   119.99998988
_symmetry_Int_Tables_number   1
_chemical_formula_structural   Cs3IrRhBr9
_chemical_formula_sum   'Cs6 Ir2 Rh2 Br18'
_cell_volume   959.73129416
_cell_formula_units_Z   2
loop_
 _symmetry_equiv_pos_site_id
 _symmetry_equiv_pos_as_xyz
  1  'x, y, z'
loop_
 _atom_site_type_symbol
 _atom_site_label
 _atom_site_symmetry_multiplicity
 _atom_site_fract_x
 _atom_site_fract_y
 _atom_site_fract_z
 _atom_site_occupancy
  Cs  Cs0  1  0.66666700  0.33333300  0.93168505  1
  Cs  Cs1  1  0.33333300  0.66666700  0.43168505  1
  Cs  Cs2  1  0.66666700  0.33333300  0.56942311  1
  Cs  Cs3  1  0.33333300  0.66666700  0.06942311  1
  Cs  Cs4  1  0.00000000  0.00000000  0.74973197  1
  Cs  Cs5  1  0.00000000  0.00000000  0.24973197  1
  Ir  Ir0  1  0.33333300  0.66666700  0.66585706  1
  Ir  Ir1  1  0.66666700  0.33333300  0.16585706  1
  Rh  Rh0  1  0.66666700  0.33333300  0.33485667  1
  Rh  Rh1  1  0.33333300  0.66666700  0.83485667  1
  Br  Br0  1  0.82206106  0.64412111  0.40644880  1
  Br  Br1  1  0.17793894  0.35587889  0.90644880  1
  Br  Br2  1  0.17793894  0.82206106  0.90644880  1
  Br  Br3  1  0.17716366  0.35432831  0.59343589  1
  Br  Br4  1  0.64412111  0.82206106  0.90644880  1
  Br  Br5  1  0.35587889  0.17793894  0.40644880  1
  Br  Br6  1  0.03406566  0.51703233  0.74959769  1
  Br  Br7  1  0.82206106  0.17793894  0.40644880  1
  Br  Br8  1  0.51703233  0.03406566  0.24959769  1
  Br  Br9  1  0.48296767  0.51703233  0.74959769  1
  Br  Br10  1  0.51703233  0.48296767  0.24959769  1
  Br  Br11  1  0.96593434  0.48296767  0.24959769  1
  Br  Br12  1  0.35432831  0.17716366  0.09343589  1
  Br  Br13  1  0.48296767  0.96593434  0.74959769  1
  Br  Br14  1  0.82283634  0.64567169  0.09343589  1
  Br  Br15  1  0.17716366  0.82283634  0.59343589  1
  Br  Br16  1  0.64567169  0.82283634  0.59343589  1
  Br  Br17  1  0.82283634  0.17716366  0.09343589  1
loop_
_geom_bond_atom_site_label_1
_geom_bond_atom_site_label_2
_geom_bond_distance
_geom_bond_site_symmetry_2
Br0 Rh0 2.463517 1_555
Br0 Cs2 3.747890 1_555
Br0 Cs5 3.820633 1_665
Br0 Cs1 3.823583 1_655
Br0 Cs1 3.823598 1_555
Br1 Rh1 2.463517 1_555
Br1 Cs3 3.747890 1_556
Br1 Cs4 3.820633 1_555
Br1 Cs0 3.823583 1_455
Br1 Cs0 3.823598 1_555
Br2 Rh1 2.463517 1_555
Br2 Cs3 3.747890 1_556
Br2 Cs4 3.820629 1_565
Br2 Cs0 3.823590 1_565
Br2 Cs0 3.823590 1_455
Br3 Ir0 2.480923 1_555
Br3 Cs1 3.733690 1_555
Br3 Cs4 3.807989 1_555
Br3 Cs2 3.820269 1_455
Br3 Cs2 3.820284 1_555
Br4 Rh1 2.463517 1_555
Br4 Cs3 3.747890 1_556
Br4 Cs4 3.820633 1_665
Br4 Cs0 3.823583 1_565
Br4 Cs0 3.823598 1_555
Br5 Rh0 2.463517 1_555
Br5 Cs2 3.747890 1_555
Br5 Cs5 3.820633 1_555
Br5 Cs1 3.823583 1_545
Br5 Cs1 3.823598 1_555
Br6 Ir0 2.543314 1_555
Br6 Rh1 2.562020 1_555
Br6 Cs4 3.796167 1_555
Br6 Cs4 3.796175 1_565
Br6 Cs2 4.230537 1_455
Br6 Cs0 4.260908 1_455
Br7 Rh0 2.463517 1_555
Br7 Cs2 3.747890 1_555
Br7 Cs5 3.820629 1_655
Br7 Cs1 3.823590 1_545
Br7 Cs1 3.823590 1_655
Br8 Ir1 2.543314 1_555
Br8 Rh0 2.562020 1_555
Br8 Cs5 3.796168 1_555
Br8 Cs5 3.796175 1_655
Br8 Cs3 4.230537 1_545
Br8 Cs1 4.260908 1_545
Br9 Ir0 2.543324 1_555
Br9 Rh1 2.562030 1_555
Br9 Cs4 3.796171 1_555
Br9 Cs4 3.796172 1_665
Br9 Cs2 4.230537 1_555
Br9 Cs0 4.260908 1_555
Br10 Ir1 2.543324 1_555
Br10 Rh0 2.562030 1_555
Br10 Cs5 3.796171 1_665
Br10 Cs5 3.796172 1_555
Br10 Cs3 4.230537 1_555
Br10 Cs1 4.260908 1_555
Br11 Ir1 2.543314 1_555
Br11 Rh0 2.562020 1_555
Br11 Cs5 3.796167 1_665
Br11 Cs5 3.796175 1_655
Br11 Cs3 4.230537 1_655
Br11 Cs1 4.260908 1_655
Br12 Ir1 2.480923 1_555
Br12 Cs0 3.733691 1_554
Br12 Cs5 3.807989 1_555
Br12 Cs3 3.820268 1_545
Br12 Cs3 3.820283 1_555
Br13 Ir0 2.543314 1_555
Br13 Rh1 2.562020 1_555
Br13 Cs4 3.796168 1_665
Br13 Cs4 3.796175 1_565
Br13 Cs2 4.230537 1_565
Br13 Cs0 4.260908 1_565
Br14 Ir1 2.480923 1_555
Br14 Cs0 3.733690 1_554
Br14 Cs5 3.807989 1_665
Br14 Cs3 3.820269 1_655
Br14 Cs3 3.820284 1_555
Br15 Ir0 2.480923 1_555
Br15 Cs1 3.733690 1_555
Br15 Cs4 3.807985 1_565
Br15 Cs2 3.820276 1_565
Br15 Cs2 3.820276 1_455
Br16 Ir0 2.480923 1_555
Br16 Cs1 3.733691 1_555
Br16 Cs4 3.807989 1_665
Br16 Cs2 3.820268 1_565
Br16 Cs2 3.820283 1_555
Br17 Ir1 2.480923 1_555
Br17 Cs0 3.733690 1_554
Br17 Cs5 3.807985 1_655
Br17 Cs3 3.820276 1_545
Br17 Cs3 3.820276 1_655
