# generated using pymatgen
data_Be2GaSiRh4
_symmetry_space_group_name_H-M   'P 1'
_cell_length_a   7.04083562
_cell_length_b   7.04083534
_cell_length_c   7.04083557
_cell_angle_alpha   33.51530783
_cell_angle_beta   33.51531300
_cell_angle_gamma   33.51530956
_symmetry_Int_Tables_number   1
_chemical_formula_structural   Be2GaSiRh4
_chemical_formula_sum   'Be2 Ga1 Si1 Rh4'
_cell_volume   94.77965022
_cell_formula_units_Z   1
loop_
 _symmetry_equiv_pos_site_id
 _symmetry_equiv_pos_as_xyz
  1  'x, y, z'
loop_
 _atom_site_type_symbol
 _atom_site_label
 _atom_site_symmetry_multiplicity
 _atom_site_fract_x
 _atom_site_fract_y
 _atom_site_fract_z
 _atom_site_occupancy
  Be  Be0  1  0.25087605  0.25087605  0.25087605  1
  Be  Be1  1  0.74912395  0.74912395  0.74912395  1
  Ga  Ga0  1  0.00000000  0.00000000  0.00000000  1
  Si  Si0  1  0.50000000  0.50000000  0.50000000  1
  Rh  Rh0  1  0.87217184  0.87217184  0.87217184  1
  Rh  Rh1  1  0.37830627  0.37830627  0.37830627  1
  Rh  Rh2  1  0.12782816  0.12782816  0.12782816  1
  Rh  Rh3  1  0.62169373  0.62169373  0.62169373  1
loop_
_geom_bond_atom_site_label_1
_geom_bond_atom_site_label_2
_geom_bond_distance
_geom_bond_site_symmetry_2
Be0 Rh2 2.450808 1_555
Be0 Rh3 2.460116 1_545
Be0 Rh3 2.460116 1_554
Be0 Rh3 2.460116 1_455
Be0 Rh0 2.512249 1_454
Be0 Rh0 2.512249 1_445
Be0 Rh0 2.512249 1_544
Be0 Rh1 2.538093 1_555
Be1 Rh0 2.450808 1_555
Be1 Rh1 2.460116 1_565
Be1 Rh1 2.460116 1_556
Be1 Rh1 2.460116 1_655
Be1 Rh2 2.512249 1_656
Be1 Rh2 2.512249 1_665
Be1 Rh2 2.512249 1_566
Be1 Rh3 2.538093 1_555
Ga0 Rh1 2.509409 1_545
Ga0 Rh3 2.509409 1_454
Ga0 Rh1 2.509409 1_554
Ga0 Rh3 2.509409 1_445
Ga0 Rh1 2.509409 1_455
Ga0 Rh3 2.509409 1_544
Ga0 Rh2 2.546019 1_555
Ga0 Rh0 2.546019 1_444
Rh0 Si0 2.468435 1_565
Rh0 Si0 2.468435 1_556
Rh0 Si0 2.468435 1_655
Rh1 Si0 2.423837 1_555
Rh2 Si0 2.468435 1_545
Rh2 Si0 2.468435 1_554
Rh2 Si0 2.468435 1_455
Rh3 Si0 2.423837 1_555
