# generated using pymatgen
data_NiSbS
_symmetry_space_group_name_H-M   'P 1'
_cell_length_a   5.92869820
_cell_length_b   5.92869923
_cell_length_c   5.92869820
_cell_angle_alpha   90.00097395
_cell_angle_beta   89.99906606
_cell_angle_gamma   89.99904615
_symmetry_Int_Tables_number   1
_chemical_formula_structural   NiSbS
_chemical_formula_sum   'Ni4 Sb4 S4'
_cell_volume   208.39059031
_cell_formula_units_Z   4
loop_
 _symmetry_equiv_pos_site_id
 _symmetry_equiv_pos_as_xyz
  1  'x, y, z'
loop_
 _atom_site_type_symbol
 _atom_site_label
 _atom_site_symmetry_multiplicity
 _atom_site_fract_x
 _atom_site_fract_y
 _atom_site_fract_z
 _atom_site_occupancy
  Ni  Ni0  1  0.51652462  0.48347538  0.98347538  1
  Ni  Ni1  1  0.48346217  0.98345509  0.51655225  1
  Ni  Ni2  1  0.01654391  0.01655125  0.01653683  1
  Ni  Ni3  1  0.98344775  0.51653783  0.48345509  1
  Sb  Sb0  1  0.62778893  0.87213174  0.12780076  1
  Sb  Sb1  1  0.12786726  0.62780076  0.87221107  1
  Sb  Sb2  1  0.37219924  0.37221207  0.37213174  1
  Sb  Sb3  1  0.87217370  0.12782730  0.62782730  1
  S  S0  1  0.38078444  0.11921269  0.88079048  1
  S  S1  1  0.88078731  0.38079148  0.11921656  1
  S  S2  1  0.11921013  0.88078887  0.38078887  1
  S  S3  1  0.61920952  0.61921556  0.61921269  1
loop_
_geom_bond_atom_site_label_1
_geom_bond_atom_site_label_2
_geom_bond_distance
_geom_bond_site_symmetry_2
Ni0 S0 2.383733 1_555
Ni0 S1 2.383733 1_556
Ni0 S3 2.383734 1_555
Ni0 Sb2 2.544947 1_556
Ni0 Sb0 2.544948 1_556
Ni0 Sb1 2.544953 1_555
Ni1 S3 2.383581 1_555
Ni1 S0 2.383595 1_565
Ni1 S2 2.383705 1_555
Ni1 Sb3 2.545372 1_565
Ni1 Sb0 2.545525 1_555
Ni1 Sb2 2.545682 1_565
Ni2 S0 2.383585 1_554
Ni2 S1 2.383607 1_455
Ni2 S2 2.383704 1_545
Ni2 Sb3 2.545359 1_454
Ni2 Sb1 2.545518 1_544
Ni2 Sb0 2.545671 1_445
Ni3 S1 2.383572 1_555
Ni3 S3 2.383595 1_555
Ni3 S2 2.383699 1_655
Ni3 Sb3 2.545366 1_555
Ni3 Sb2 2.545523 1_655
Ni3 Sb1 2.545674 1_655
S0 Sb0 2.536737 1_546
S1 Sb1 2.536734 1_654
S2 Sb3 2.536741 1_465
S3 Sb2 2.536733 1_555
