# generated using pymatgen
data_V5Te7Se
_symmetry_space_group_name_H-M   'P 1'
_cell_length_a   7.41014592
_cell_length_b   7.41014611
_cell_length_c   8.97505584
_cell_angle_alpha   54.65460002
_cell_angle_beta   54.65459784
_cell_angle_gamma   64.07398976
_symmetry_Int_Tables_number   1
_chemical_formula_structural   V5Te7Se
_chemical_formula_sum   'V5 Te7 Se1'
_cell_volume   323.97342249
_cell_formula_units_Z   1
loop_
 _symmetry_equiv_pos_site_id
 _symmetry_equiv_pos_as_xyz
  1  'x, y, z'
loop_
 _atom_site_type_symbol
 _atom_site_label
 _atom_site_symmetry_multiplicity
 _atom_site_fract_x
 _atom_site_fract_y
 _atom_site_fract_z
 _atom_site_occupancy
  V  V0  1  0.99983017  0.99983017  0.00174318  1
  V  V1  1  0.71862712  0.71862712  0.04559730  1
  V  V2  1  0.28966658  0.28966658  0.94428275  1
  V  V3  1  0.70887081  0.29093720  0.50541529  1
  V  V4  1  0.29093720  0.70887081  0.50541529  1
  Te  Te0  1  0.54132393  0.04429630  0.16760053  1
  Te  Te1  1  0.45989236  0.95555404  0.83242374  1
  Te  Te2  1  0.95555404  0.45989236  0.83242374  1
  Te  Te3  1  0.04429630  0.54132393  0.16760053  1
  Te  Te4  1  0.98919506  0.98919506  0.31940607  1
  Te  Te5  1  0.01511878  0.01511878  0.67989365  1
  Te  Te6  1  0.43205249  0.43205249  0.34435244  1
  Se  Se0  1  0.55463415  0.55463415  0.65384449  1
loop_
_geom_bond_atom_site_label_1
_geom_bond_atom_site_label_2
_geom_bond_distance
_geom_bond_site_symmetry_2
Te0 V1 2.714658 1_545
Te0 V0 2.757718 1_545
Te0 V4 2.760017 1_545
Te0 V2 2.818484 1_554
Te1 V2 2.721864 1_565
Te1 V3 2.738476 1_565
Te1 V0 2.764754 1_456
Te1 V1 2.798771 1_556
Te2 V2 2.721864 1_655
Te2 V4 2.738476 1_655
Te2 V0 2.764754 1_546
Te2 V1 2.798771 1_556
Te3 V1 2.714658 1_455
Te3 V0 2.757718 1_455
Te3 V3 2.760017 1_455
Te3 V2 2.818484 1_554
Te4 V0 2.761588 1_555
Te4 V2 2.870286 1_664
Te4 V3 2.889062 1_565
Te4 V4 2.889062 1_655
Te5 V0 2.761111 1_446
Te5 V1 2.821525 1_446
Te5 V4 2.851713 1_545
Te5 V3 2.851713 1_455
Te6 V1 2.641179 1_555
Te6 V3 2.682719 1_555
Te6 V4 2.682719 1_555
Se0 V2 2.456162 1_555
Se0 V4 2.489278 1_555
Se0 V3 2.489278 1_555
