# generated using pymatgen
data_Cs2Ir3RhSe8
_symmetry_space_group_name_H-M   'P 1'
_cell_length_a   6.61558612
_cell_length_b   7.12933906
_cell_length_c   16.89869114
_cell_angle_alpha   90.00000000
_cell_angle_beta   90.00000000
_cell_angle_gamma   90.00000000
_symmetry_Int_Tables_number   1
_chemical_formula_structural   Cs2Ir3RhSe8
_chemical_formula_sum   'Cs4 Ir6 Rh2 Se16'
_cell_volume   797.02265416
_cell_formula_units_Z   2
loop_
 _symmetry_equiv_pos_site_id
 _symmetry_equiv_pos_as_xyz
  1  'x, y, z'
loop_
 _atom_site_type_symbol
 _atom_site_label
 _atom_site_symmetry_multiplicity
 _atom_site_fract_x
 _atom_site_fract_y
 _atom_site_fract_z
 _atom_site_occupancy
  Cs  Cs0  1  0.39519568  0.00000000  0.00000000  1
  Cs  Cs1  1  0.61781819  0.50000000  0.50000000  1
  Cs  Cs2  1  0.03776949  0.00000000  0.50000000  1
  Cs  Cs3  1  0.00001141  0.50000000  0.00000000  1
  Ir  Ir0  1  0.00202393  0.00000000  0.25294825  1
  Ir  Ir1  1  0.00202393  0.00000000  0.74705175  1
  Ir  Ir2  1  0.49787984  0.27276253  0.25288812  1
  Ir  Ir3  1  0.49787984  0.72723747  0.74711188  1
  Ir  Ir4  1  0.49787984  0.72723747  0.25288812  1
  Ir  Ir5  1  0.49787984  0.27276253  0.74711188  1
  Rh  Rh0  1  0.99344483  0.50000000  0.24842860  1
  Rh  Rh1  1  0.99344483  0.50000000  0.75157140  1
  Se  Se0  1  0.82580819  0.25546527  0.33004525  1
  Se  Se1  1  0.82580819  0.74453473  0.66995475  1
  Se  Se2  1  0.17379252  0.74868192  0.17321018  1
  Se  Se3  1  0.17379252  0.25131808  0.82678982  1
  Se  Se4  1  0.17379252  0.25131808  0.17321018  1
  Se  Se5  1  0.17379252  0.74868192  0.82678982  1
  Se  Se6  1  0.82580819  0.74453473  0.33004525  1
  Se  Se7  1  0.82580819  0.25546527  0.66995475  1
  Se  Se8  1  0.66991887  0.00000000  0.18288142  1
  Se  Se9  1  0.66991887  0.00000000  0.81711858  1
  Se  Se10  1  0.29586681  0.50000000  0.33254427  1
  Se  Se11  1  0.29586681  0.50000000  0.66745573  1
  Se  Se12  1  0.33606234  0.00000000  0.32285650  1
  Se  Se13  1  0.33606234  0.00000000  0.67714350  1
  Se  Se14  1  0.68232676  0.50000000  0.16799396  1
  Se  Se15  1  0.68232676  0.50000000  0.83200604  1
loop_
_geom_bond_atom_site_label_1
_geom_bond_atom_site_label_2
_geom_bond_distance
_geom_bond_site_symmetry_2
Cs0 Se8 3.585257 1_555
Cs0 Se9 3.585257 1_554
Cs0 Se4 3.731375 1_555
Cs0 Se2 3.731375 1_545
Cs0 Se3 3.731375 1_554
Cs0 Se5 3.731375 1_544
Cs1 Se10 3.541770 1_555
Cs1 Se11 3.541770 1_555
Cs1 Se1 3.630580 1_555
Cs1 Se7 3.630580 1_555
Cs1 Se6 3.630580 1_555
Cs1 Se0 3.630580 1_555
Cs2 Se13 3.585420 1_555
Cs2 Se12 3.585420 1_555
Cs2 Se7 3.678571 1_455
Cs2 Se1 3.678571 1_445
Cs2 Se0 3.678571 1_455
Cs2 Se6 3.678571 1_445
Cs3 Se14 3.532173 1_455
Cs3 Se15 3.532173 1_454
Cs3 Se2 3.610057 1_555
Cs3 Se4 3.610057 1_555
Cs3 Se5 3.610057 1_554
Cs3 Se3 3.610057 1_554
Ir0 Se8 2.495808 1_455
Ir0 Se12 2.505811 1_555
Ir0 Se4 2.513417 1_555
Ir0 Se2 2.513417 1_545
Ir0 Se0 2.524586 1_455
Ir0 Se6 2.524586 1_445
Ir1 Se9 2.495808 1_455
Ir1 Se13 2.505811 1_555
Ir1 Se3 2.513417 1_555
Ir1 Se5 2.513417 1_545
Ir1 Se7 2.524586 1_455
Ir1 Se1 2.524586 1_445
Ir2 Se14 2.484270 1_555
Ir2 Se10 2.494509 1_555
Ir2 Se12 2.515065 1_555
Ir2 Se0 2.534109 1_555
Ir2 Se4 2.536368 1_555
Ir2 Se8 2.544884 1_555
Ir3 Se15 2.484270 1_555
Ir3 Se11 2.494509 1_555
Ir3 Se13 2.515065 1_565
Ir3 Se1 2.534109 1_555
Ir3 Se5 2.536368 1_555
Ir3 Se9 2.544884 1_565
Ir4 Se14 2.484270 1_555
Ir4 Se10 2.494509 1_555
Ir4 Se12 2.515065 1_565
Ir4 Se6 2.534109 1_555
Ir4 Se2 2.536368 1_555
Ir4 Se8 2.544884 1_565
Ir5 Se15 2.484270 1_555
Ir5 Se11 2.494509 1_555
Ir5 Se13 2.515065 1_555
Ir5 Se7 2.534109 1_555
Ir5 Se3 2.536368 1_555
Ir5 Se9 2.544884 1_555
Rh0 Se10 2.454241 1_655
Rh0 Se14 2.466544 1_555
Rh0 Se6 2.484248 1_555
Rh0 Se0 2.484248 1_555
Rh0 Se2 2.486461 1_655
Rh0 Se4 2.486461 1_655
Rh1 Se11 2.454241 1_655
Rh1 Se15 2.466544 1_555
Rh1 Se1 2.484248 1_555
Rh1 Se7 2.484248 1_555
Rh1 Se5 2.486461 1_655
Rh1 Se3 2.486461 1_655
