# generated using pymatgen
data_Cs3RbSrI6
_symmetry_space_group_name_H-M   'P 1'
_cell_length_a   10.46387048
_cell_length_b   10.46387175
_cell_length_c   10.46387115
_cell_angle_alpha   90.22311866
_cell_angle_beta   90.22310806
_cell_angle_gamma   90.22311109
_symmetry_Int_Tables_number   1
_chemical_formula_structural   Cs3RbSrI6
_chemical_formula_sum   'Cs6 Rb2 Sr2 I12'
_cell_volume   1145.69031633
_cell_formula_units_Z   2
loop_
 _symmetry_equiv_pos_site_id
 _symmetry_equiv_pos_as_xyz
  1  'x, y, z'
loop_
 _atom_site_type_symbol
 _atom_site_label
 _atom_site_symmetry_multiplicity
 _atom_site_fract_x
 _atom_site_fract_y
 _atom_site_fract_z
 _atom_site_occupancy
  Cs  Cs0  1  0.37144795  0.12855205  0.75000000  1
  Cs  Cs1  1  0.12855205  0.75000000  0.37144795  1
  Cs  Cs2  1  0.75000000  0.37144795  0.12855205  1
  Cs  Cs3  1  0.62855205  0.87144795  0.25000000  1
  Cs  Cs4  1  0.25000000  0.62855205  0.87144795  1
  Cs  Cs5  1  0.87144795  0.25000000  0.62855205  1
  Rb  Rb0  1  0.25000000  0.25000000  0.25000000  1
  Rb  Rb1  1  0.75000000  0.75000000  0.75000000  1
  Sr  Sr0  1  0.00000000  0.00000000  0.00000000  1
  Sr  Sr1  1  0.50000000  0.50000000  0.50000000  1
  I  I0  1  0.94512309  0.07781116  0.29950763  1
  I  I1  1  0.07781116  0.29950763  0.94512309  1
  I  I2  1  0.29950763  0.94512309  0.07781116  1
  I  I3  1  0.57781116  0.44512309  0.79950763  1
  I  I4  1  0.79950763  0.57781116  0.44512309  1
  I  I5  1  0.44512309  0.79950763  0.57781116  1
  I  I6  1  0.20049237  0.42218884  0.55487691  1
  I  I7  1  0.42218884  0.55487691  0.20049237  1
  I  I8  1  0.55487691  0.20049237  0.42218884  1
  I  I9  1  0.92218884  0.70049237  0.05487691  1
  I  I10  1  0.05487691  0.92218884  0.70049237  1
  I  I11  1  0.70049237  0.05487691  0.92218884  1
loop_
_geom_bond_atom_site_label_1
_geom_bond_atom_site_label_2
_geom_bond_distance
_geom_bond_site_symmetry_2
Cs0 I5 3.959626 1_545
Cs0 I11 3.959626 1_555
Cs0 I10 3.978247 1_545
Cs0 I3 3.978248 1_555
Cs0 I8 4.009601 1_555
Cs0 I2 4.009601 1_546
Cs0 I1 4.107636 1_555
Cs0 I6 4.107637 1_555
Cs1 I10 3.959626 1_555
Cs1 I4 3.959626 1_455
Cs1 I5 3.978247 1_555
Cs1 I9 3.978248 1_455
Cs1 I0 4.009601 1_465
Cs1 I6 4.009602 1_555
Cs1 I7 4.107636 1_555
Cs1 I2 4.107636 1_555
Cs2 I3 3.959626 1_554
Cs2 I9 3.959626 1_555
Cs2 I4 3.978247 1_555
Cs2 I11 3.978248 1_554
Cs2 I1 4.009601 1_654
Cs2 I7 4.009601 1_555
Cs2 I8 4.107636 1_555
Cs2 I0 4.107636 1_555
Cs3 I8 3.959626 1_565
Cs3 I2 3.959626 1_555
Cs3 I0 3.978247 1_565
Cs3 I7 3.978248 1_555
Cs3 I5 4.009601 1_555
Cs3 I11 4.009601 1_564
Cs3 I9 4.107636 1_555
Cs3 I4 4.107637 1_555
Cs4 I7 3.959626 1_556
Cs4 I1 3.959626 1_555
Cs4 I6 3.978247 1_555
Cs4 I2 3.978248 1_556
Cs4 I9 4.009601 1_456
Cs4 I3 4.009601 1_555
Cs4 I5 4.107636 1_555
Cs4 I10 4.107636 1_555
Cs5 I0 3.959626 1_555
Cs5 I6 3.959626 1_655
Cs5 I8 3.978247 1_555
Cs5 I1 3.978248 1_655
Cs5 I10 4.009601 1_645
Cs5 I4 4.009602 1_555
Cs5 I3 4.107636 1_555
Cs5 I11 4.107636 1_555
I0 Sr0 3.288231 1_655
I0 Rb0 3.696947 1_655
I1 Sr0 3.288231 1_556
I1 Rb0 3.696947 1_556
I2 Sr0 3.288231 1_565
I2 Rb0 3.696947 1_565
I3 Sr1 3.288231 1_555
I3 Rb1 3.696947 1_555
I4 Sr1 3.288231 1_555
I4 Rb1 3.696947 1_555
I5 Sr1 3.288231 1_555
I5 Rb1 3.696947 1_555
I6 Sr1 3.288231 1_555
I6 Rb0 3.696947 1_555
I7 Sr1 3.288231 1_555
I7 Rb0 3.696947 1_555
I8 Sr1 3.288231 1_555
I8 Rb0 3.696947 1_555
I9 Sr0 3.288231 1_665
I9 Rb1 3.696947 1_554
I10 Sr0 3.288231 1_566
I10 Rb1 3.696947 1_455
I11 Sr0 3.288231 1_656
I11 Rb1 3.696947 1_545
