# generated using pymatgen
data_ReTc3Se8
_symmetry_space_group_name_H-M   'P 1'
_cell_length_a   6.63449004
_cell_length_b   6.75532983
_cell_length_c   7.06612616
_cell_angle_alpha   92.16765175
_cell_angle_beta   104.28531041
_cell_angle_gamma   118.89577704
_symmetry_Int_Tables_number   1
_chemical_formula_structural   ReTc3Se8
_chemical_formula_sum   'Re1 Tc3 Se8'
_cell_volume   264.04577195
_cell_formula_units_Z   1
loop_
 _symmetry_equiv_pos_site_id
 _symmetry_equiv_pos_as_xyz
  1  'x, y, z'
loop_
 _atom_site_type_symbol
 _atom_site_label
 _atom_site_symmetry_multiplicity
 _atom_site_fract_x
 _atom_site_fract_y
 _atom_site_fract_z
 _atom_site_occupancy
  Re  Re0  1  0.51175899  0.70775242  0.50302673  1
  Tc  Tc0  1  0.06435405  0.31516742  0.49176097  1
  Tc  Tc1  1  0.93557190  0.68515060  0.50759296  1
  Tc  Tc2  1  0.48815464  0.29097007  0.49751985  1
  Se  Se0  1  0.25355897  0.38141948  0.22441172  1
  Se  Se1  1  0.74748754  0.61793320  0.77585672  1
  Se  Se2  1  0.72736942  0.34362990  0.25558700  1
  Se  Se3  1  0.27310069  0.65760411  0.74510912  1
  Se  Se4  1  0.22404712  0.11054211  0.70958754  1
  Se  Se5  1  0.77428508  0.88990774  0.28868667  1
  Se  Se6  1  0.75260403  0.13553703  0.68705219  1
  Se  Se7  1  0.24770759  0.86438593  0.31380655  1
loop_
_geom_bond_atom_site_label_1
_geom_bond_atom_site_label_2
_geom_bond_distance
_geom_bond_site_symmetry_2
Re0 Se0 2.455175 1_555
Re0 Se1 2.459332 1_555
Re0 Se5 2.492625 1_555
Re0 Se3 2.531805 1_555
Re0 Se7 2.592064 1_555
Re0 Se6 2.612077 1_565
Se0 Tc0 2.456848 1_555
Se0 Tc2 2.458857 1_555
Se1 Tc2 2.456769 1_555
Se1 Tc1 2.457923 1_555
Se2 Tc1 2.407714 1_555
Se2 Tc2 2.531232 1_555
Se2 Tc0 2.533548 1_655
Se3 Tc0 2.416827 1_555
Se3 Tc1 2.537243 1_455
Se4 Tc2 2.484210 1_555
Se4 Tc0 2.484743 1_555
Se4 Tc1 2.642816 1_445
Se5 Tc1 2.495267 1_555
Se5 Tc0 2.645339 1_665
Se6 Tc2 2.588728 1_555
Se6 Tc0 2.600821 1_655
Se7 Tc1 2.594441 1_455
Se7 Tc2 2.605104 1_565
