# generated using pymatgen
data_Ba10Ga
_symmetry_space_group_name_H-M   'P 1'
_cell_length_a   15.43702492
_cell_length_b   15.43702492
_cell_length_c   15.43702492
_cell_angle_alpha   60.00000000
_cell_angle_beta   60.00000000
_cell_angle_gamma   60.00000000
_symmetry_Int_Tables_number   1
_chemical_formula_structural   Ba10Ga
_chemical_formula_sum   'Ba40 Ga4'
_cell_volume   2601.21241193
_cell_formula_units_Z   4
loop_
 _symmetry_equiv_pos_site_id
 _symmetry_equiv_pos_as_xyz
  1  'x, y, z'
loop_
 _atom_site_type_symbol
 _atom_site_label
 _atom_site_symmetry_multiplicity
 _atom_site_fract_x
 _atom_site_fract_y
 _atom_site_fract_z
 _atom_site_occupancy
  Ba  Ba0  1  0.61814200  0.61814200  0.88185800  1
  Ba  Ba1  1  0.36814200  0.63185800  0.63185800  1
  Ba  Ba2  1  0.63185800  0.36814200  0.36814200  1
  Ba  Ba3  1  0.36814200  0.36814200  0.63185800  1
  Ba  Ba4  1  0.36814200  0.63185800  0.36814200  1
  Ba  Ba5  1  0.63185800  0.36814200  0.63185800  1
  Ba  Ba6  1  0.88185800  0.61814200  0.88185800  1
  Ba  Ba7  1  0.88185800  0.61814200  0.61814200  1
  Ba  Ba8  1  0.61814200  0.88185800  0.88185800  1
  Ba  Ba9  1  0.61814200  0.88185800  0.61814200  1
  Ba  Ba10  1  0.63185800  0.63185800  0.36814200  1
  Ba  Ba11  1  0.88185800  0.88185800  0.61814200  1
  Ba  Ba12  1  0.79186100  0.07054500  0.34573200  1
  Ba  Ba13  1  0.45813900  0.45813900  0.17945500  1
  Ba  Ba14  1  0.17945500  0.90426800  0.45813900  1
  Ba  Ba15  1  0.45813900  0.90426800  0.45813900  1
  Ba  Ba16  1  0.90426800  0.45813900  0.17945500  1
  Ba  Ba17  1  0.90426800  0.45813900  0.45813900  1
  Ba  Ba18  1  0.17945500  0.45813900  0.45813900  1
  Ba  Ba19  1  0.34573200  0.07054500  0.79186100  1
  Ba  Ba20  1  0.79186100  0.07054500  0.79186100  1
  Ba  Ba21  1  0.07054500  0.79186100  0.34573200  1
  Ba  Ba22  1  0.79186100  0.79186100  0.34573200  1
  Ba  Ba23  1  0.07054500  0.34573200  0.79186100  1
  Ba  Ba24  1  0.34573200  0.79186100  0.07054500  1
  Ba  Ba25  1  0.79186100  0.79186100  0.07054500  1
  Ba  Ba26  1  0.79186100  0.34573200  0.79186100  1
  Ba  Ba27  1  0.17945500  0.45813900  0.90426800  1
  Ba  Ba28  1  0.45813900  0.45813900  0.90426800  1
  Ba  Ba29  1  0.45813900  0.90426800  0.17945500  1
  Ba  Ba30  1  0.45813900  0.17945500  0.90426800  1
  Ba  Ba31  1  0.90426800  0.17945500  0.45813900  1
  Ba  Ba32  1  0.45813900  0.17945500  0.45813900  1
  Ba  Ba33  1  0.34573200  0.79186100  0.79186100  1
  Ba  Ba34  1  0.07054500  0.79186100  0.79186100  1
  Ba  Ba35  1  0.79186100  0.34573200  0.07054500  1
  Ba  Ba36  1  0.12500000  0.12500000  0.12500000  1
  Ba  Ba37  1  0.62500000  0.12500000  0.12500000  1
  Ba  Ba38  1  0.12500000  0.12500000  0.62500000  1
  Ba  Ba39  1  0.12500000  0.62500000  0.12500000  1
  Ga  Ga0  1  0.62500000  0.62500000  0.62500000  1
  Ga  Ga1  1  0.12500000  0.62500000  0.62500000  1
  Ga  Ga2  1  0.62500000  0.62500000  0.12500000  1
  Ga  Ga3  1  0.62500000  0.12500000  0.62500000  1
loop_
_geom_bond_atom_site_label_1
_geom_bond_atom_site_label_2
_geom_bond_distance
_geom_bond_site_symmetry_2
Ba0 Ga0 3.862159 1_555
Ba0 Ga2 3.862159 1_556
Ba0 Ba8 4.070990 1_555
Ba0 Ba9 4.070990 1_555
Ba0 Ba6 4.070990 1_555
Ba0 Ba7 4.070990 1_555
Ba0 Ba28 4.088153 1_555
Ba0 Ba13 4.088161 1_556
Ba0 Ba35 4.200567 1_556
Ba0 Ba24 4.200567 1_556
Ba0 Ba26 4.200575 1_555
Ba0 Ba33 4.200575 1_555
Ba1 Ga1 3.862159 1_555
Ba1 Ga0 3.862159 1_555
Ba1 Ba5 4.070990 1_555
Ba1 Ba3 4.070990 1_555
Ba1 Ba10 4.070990 1_555
Ba1 Ba4 4.070990 1_555
Ba1 Ba33 4.088153 1_555
Ba1 Ba34 4.088161 1_555
Ba1 Ba27 4.200567 1_555
Ba1 Ba14 4.200567 1_555
Ba1 Ba28 4.200575 1_555
Ba1 Ba15 4.200575 1_555
Ba2 Ga2 3.862159 1_555
Ba2 Ga3 3.862159 1_555
Ba2 Ba5 4.070990 1_555
Ba2 Ba3 4.070990 1_555
Ba2 Ba4 4.070990 1_555
Ba2 Ba35 4.088166 1_555
Ba2 Ba32 4.200562 1_555
Ba2 Ba31 4.200574 1_555
Ba3 Ga1 3.862159 1_555
Ba3 Ga3 3.862159 1_555
Ba3 Ba5 4.070990 1_555
Ba3 Ba4 4.070990 1_555
Ba3 Ba32 4.200562 1_555
Ba3 Ba30 4.200574 1_555
Ba4 Ga1 3.862159 1_555
Ba4 Ga2 3.862159 1_555
Ba5 Ga3 3.862159 1_555
Ba5 Ga0 3.862159 1_555
Ba6 Ga1 3.862159 1_655
Ba6 Ga2 3.862159 1_556
Ba6 Ba8 4.070990 1_555
Ba6 Ba7 4.070990 1_555
Ba7 Ga0 3.862159 1_555
Ba7 Ga1 3.862159 1_655
Ba7 Ba9 4.070990 1_555
Ba8 Ga3 3.862159 1_565
Ba8 Ga2 3.862159 1_556
Ba8 Ba9 4.070990 1_555
Ba9 Ga0 3.862159 1_555
Ba9 Ga3 3.862159 1_565
Ba10 Ga2 3.862159 1_555
Ba10 Ga0 3.862159 1_555
Ba10 Ba5 4.070990 1_555
Ba10 Ba2 4.070990 1_555
Ba10 Ba4 4.070990 1_555
Ba10 Ba22 4.088153 1_555
Ba10 Ba25 4.088161 1_555
Ba10 Ba29 4.200567 1_555
Ba10 Ba16 4.200567 1_555
Ba10 Ba17 4.200575 1_555
Ba10 Ba15 4.200575 1_555
Ba11 Ga3 3.862159 1_565
Ba11 Ga1 3.862159 1_655
Ba11 Ba8 4.070990 1_555
Ba11 Ba9 4.070990 1_555
Ba11 Ba6 4.070990 1_555
Ba11 Ba7 4.070990 1_555
Ba11 Ba31 4.088166 1_565
Ba11 Ba14 4.088166 1_655
Ba11 Ba34 4.200562 1_655
Ba11 Ba20 4.200562 1_565
Ba11 Ba12 4.200574 1_565
Ba11 Ba21 4.200574 1_655
Ba12 Ga3 4.034966 1_555
Ba12 Ba2 4.088166 1_555
Ba12 Ba9 4.200567 1_545
Ba12 Ba32 4.206440 1_555
Ba12 Ba31 4.206466 1_555
Ba12 Ba35 4.248069 1_555
Ba12 Ba22 4.302052 1_545
Ba12 Ba21 4.302052 1_645
Ba12 Ba37 4.764411 1_555
Ba12 Ba36 4.764423 1_655
Ba13 Ga2 4.034953 1_555
Ba13 Ba2 4.200562 1_555
Ba13 Ba4 4.200562 1_555
Ba13 Ba35 4.206440 1_555
Ba13 Ba24 4.206440 1_555
Ba13 Ba28 4.248069 1_554
Ba13 Ba18 4.302052 1_555
Ba13 Ba32 4.302052 1_555
Ba13 Ba39 4.764424 1_555
Ba13 Ba37 4.764424 1_555
Ba14 Ga1 4.034966 1_555
Ba14 Ba4 4.200574 1_555
Ba14 Ba34 4.206440 1_555
Ba14 Ba21 4.206466 1_555
Ba14 Ba31 4.248069 1_465
Ba14 Ba15 4.302052 1_555
Ba14 Ba29 4.302052 1_555
Ba14 Ba38 4.764411 1_565
Ba14 Ba36 4.764423 1_565
Ba15 Ga0 4.034960 1_555
Ba15 Ba9 4.088153 1_555
Ba15 Ba22 4.206440 1_555
Ba15 Ba33 4.206440 1_555
Ba15 Ba32 4.248069 1_565
Ba15 Ba29 4.302052 1_555
Ba15 Ba37 4.764418 1_565
Ba15 Ba38 4.764418 1_565
Ba16 Ga2 4.034966 1_555
Ba16 Ba6 4.088166 1_554
Ba16 Ba2 4.200574 1_555
Ba16 Ba25 4.206440 1_555
Ba16 Ba35 4.206466 1_555
Ba16 Ba27 4.248069 1_654
Ba16 Ba17 4.302052 1_555
Ba16 Ba31 4.302052 1_555
Ba16 Ba39 4.764411 1_655
Ba16 Ba36 4.764423 1_655
Ba17 Ga0 4.034960 1_555
Ba17 Ba7 4.088153 1_555
Ba17 Ba5 4.200575 1_555
Ba17 Ba22 4.206440 1_555
Ba17 Ba26 4.206440 1_555
Ba17 Ba18 4.248069 1_655
Ba17 Ba31 4.302052 1_555
Ba17 Ba38 4.764418 1_655
Ba17 Ba39 4.764418 1_655
Ba18 Ga1 4.034953 1_555
Ba18 Ba7 4.088161 1_455
Ba18 Ba4 4.200562 1_555
Ba18 Ba3 4.200562 1_555
Ba18 Ba23 4.206440 1_555
Ba18 Ba21 4.206440 1_555
Ba18 Ba32 4.302052 1_555
Ba18 Ba38 4.764424 1_555
Ba18 Ba39 4.764424 1_555
Ba19 Ga3 4.034966 1_555
Ba19 Ba3 4.088166 1_555
Ba19 Ba9 4.200567 1_545
Ba19 Ba8 4.200574 1_545
Ba19 Ba32 4.206440 1_555
Ba19 Ba30 4.206466 1_555
Ba19 Ba23 4.248069 1_555
Ba19 Ba33 4.302052 1_545
Ba19 Ba24 4.302052 1_546
Ba19 Ba38 4.764411 1_555
Ba19 Ba36 4.764423 1_556
Ba20 Ga3 4.034953 1_555
Ba20 Ba5 4.088161 1_555
Ba20 Ba8 4.200562 1_545
Ba20 Ba31 4.206440 1_555
Ba20 Ba30 4.206440 1_555
Ba20 Ba26 4.248069 1_555
Ba20 Ba25 4.302052 1_546
Ba20 Ba34 4.302052 1_645
Ba20 Ba38 4.764424 1_655
Ba20 Ba37 4.764424 1_556
Ba21 Ga1 4.034966 1_555
Ba21 Ba4 4.088166 1_555
Ba21 Ba7 4.200567 1_455
Ba21 Ba24 4.248069 1_555
Ba21 Ba22 4.302052 1_455
Ba21 Ba39 4.764411 1_555
Ba21 Ba36 4.764423 1_565
Ba22 Ga0 4.034960 1_555
Ba22 Ba7 4.200575 1_555
Ba22 Ba9 4.200575 1_555
Ba22 Ba25 4.248069 1_555
Ba22 Ba39 4.764418 1_655
Ba22 Ba37 4.764418 1_565
Ba23 Ga1 4.034966 1_555
Ba23 Ba3 4.088166 1_555
Ba23 Ba7 4.200567 1_455
Ba23 Ba6 4.200574 1_455
Ba23 Ba27 4.206466 1_555
Ba23 Ba26 4.302052 1_455
Ba23 Ba35 4.302052 1_456
Ba23 Ba38 4.764411 1_555
Ba23 Ba36 4.764423 1_556
Ba24 Ga2 4.034966 1_555
Ba24 Ba4 4.088166 1_555
Ba24 Ba8 4.200574 1_554
Ba24 Ba29 4.206466 1_555
Ba24 Ba33 4.302052 1_554
Ba24 Ba39 4.764411 1_555
Ba24 Ba36 4.764423 1_565
Ba25 Ga2 4.034953 1_555
Ba25 Ba6 4.200562 1_554
Ba25 Ba8 4.200562 1_554
Ba25 Ba29 4.206440 1_555
Ba25 Ba34 4.302052 1_654
Ba25 Ba37 4.764424 1_565
Ba25 Ba39 4.764424 1_655
Ba26 Ga0 4.034960 1_555
Ba26 Ba5 4.088153 1_555
Ba26 Ba7 4.200575 1_555
Ba26 Ba28 4.206440 1_555
Ba26 Ba35 4.302052 1_556
Ba26 Ba38 4.764418 1_655
Ba26 Ba37 4.764418 1_556
Ba27 Ga1 4.034966 1_555
Ba27 Ba6 4.088166 1_455
Ba27 Ba3 4.200574 1_555
Ba27 Ba34 4.206440 1_555
Ba27 Ba28 4.302052 1_555
Ba27 Ba30 4.302052 1_555
Ba27 Ba39 4.764411 1_556
Ba27 Ba36 4.764423 1_556
Ba28 Ga0 4.034960 1_555
Ba28 Ba5 4.200575 1_555
Ba28 Ba33 4.206440 1_555
Ba28 Ba30 4.302052 1_555
Ba28 Ba39 4.764418 1_556
Ba28 Ba37 4.764418 1_556
Ba29 Ga2 4.034966 1_555
Ba29 Ba8 4.088166 1_554
Ba29 Ba4 4.200574 1_555
Ba29 Ba30 4.248069 1_564
Ba29 Ba37 4.764411 1_565
Ba29 Ba36 4.764423 1_565
Ba30 Ga3 4.034966 1_555
Ba30 Ba8 4.088166 1_545
Ba30 Ba5 4.200567 1_555
Ba30 Ba37 4.764411 1_556
Ba30 Ba36 4.764423 1_556
Ba31 Ga3 4.034966 1_555
Ba31 Ba5 4.200567 1_555
Ba31 Ba38 4.764411 1_655
Ba31 Ba36 4.764423 1_655
Ba32 Ga3 4.034953 1_555
Ba32 Ba9 4.088161 1_545
Ba32 Ba38 4.764424 1_555
Ba32 Ba37 4.764424 1_555
Ba33 Ga0 4.034960 1_555
Ba33 Ba9 4.200575 1_555
Ba33 Ba34 4.248069 1_555
Ba33 Ba39 4.764418 1_556
Ba33 Ba38 4.764418 1_565
Ba34 Ga1 4.034953 1_555
Ba34 Ba6 4.200562 1_455
Ba34 Ba39 4.764424 1_556
Ba34 Ba38 4.764424 1_565
Ba35 Ga2 4.034966 1_555
Ba35 Ba6 4.200574 1_554
Ba35 Ba37 4.764411 1_555
Ba35 Ba36 4.764423 1_655
