# generated using pymatgen
data_MgNbPdPt5
_symmetry_space_group_name_H-M   'P 1'
_cell_length_a   5.58375069
_cell_length_b   5.58849604
_cell_length_c   5.58374977
_cell_angle_alpha   59.97189570
_cell_angle_beta   59.93509686
_cell_angle_gamma   59.97189106
_symmetry_Int_Tables_number   1
_chemical_formula_structural   MgNbPdPt5
_chemical_formula_sum   'Mg1 Nb1 Pd1 Pt5'
_cell_volume   123.09317918
_cell_formula_units_Z   1
loop_
 _symmetry_equiv_pos_site_id
 _symmetry_equiv_pos_as_xyz
  1  'x, y, z'
loop_
 _atom_site_type_symbol
 _atom_site_label
 _atom_site_symmetry_multiplicity
 _atom_site_fract_x
 _atom_site_fract_y
 _atom_site_fract_z
 _atom_site_occupancy
  Mg  Mg0  1  0.50000000  0.50000000  0.50000000  1
  Nb  Nb0  1  0.00000000  0.00000000  0.00000000  1
  Pd  Pd0  1  0.00000000  0.50000000  0.00000000  1
  Pt  Pt0  1  0.00000000  0.00000000  0.50000000  1
  Pt  Pt1  1  0.50000000  0.00000000  0.50000000  1
  Pt  Pt2  1  0.00000000  0.50000000  0.50000000  1
  Pt  Pt3  1  0.50000000  0.50000000  0.00000000  1
  Pt  Pt4  1  0.50000000  0.00000000  0.00000000  1
loop_
_geom_bond_atom_site_label_1
_geom_bond_atom_site_label_2
_geom_bond_distance
_geom_bond_site_symmetry_2
Mg0 Pd0 2.789136 1_655
Mg0 Pd0 2.789136 1_556
Mg0 Pt3 2.791875 1_555
Mg0 Pt3 2.791875 1_556
Mg0 Pt2 2.791875 1_555
Mg0 Pt2 2.791875 1_655
Mg0 Pt4 2.791876 1_565
Mg0 Pt4 2.791876 1_556
Mg0 Pt0 2.791876 1_655
Mg0 Pt0 2.791876 1_565
Mg0 Pt1 2.794248 1_565
Mg0 Pt1 2.794248 1_555
Nb0 Pt1 2.789136 1_554
Nb0 Pt1 2.789136 1_455
Nb0 Pt0 2.791875 1_555
Nb0 Pt0 2.791875 1_554
Nb0 Pt4 2.791875 1_455
Nb0 Pt4 2.791875 1_555
Nb0 Pt2 2.791876 1_554
Nb0 Pt2 2.791876 1_545
Nb0 Pt3 2.791876 1_545
Nb0 Pt3 2.791876 1_455
Nb0 Pd0 2.794248 1_555
Nb0 Pd0 2.794248 1_545
Pd0 Pt2 2.791875 1_554
Pd0 Pt2 2.791875 1_555
Pd0 Pt3 2.791875 1_455
Pd0 Pt3 2.791875 1_555
Pd0 Pt0 2.791876 1_555
Pd0 Pt0 2.791876 1_564
Pd0 Pt4 2.791876 1_555
Pd0 Pt4 2.791876 1_465
Pt0 Pt4 2.789136 1_555
Pt0 Pt4 2.789136 1_456
Pt0 Pt1 2.791875 1_455
Pt0 Pt1 2.791875 1_555
Pt0 Pt2 2.794248 1_555
Pt0 Pt2 2.794248 1_545
Pt1 Pt4 2.791875 1_555
Pt1 Pt4 2.791875 1_556
Pt1 Pt3 2.791876 1_555
Pt1 Pt3 2.791876 1_546
Pt1 Pt2 2.791876 1_645
Pt1 Pt2 2.791876 1_555
Pt2 Pt3 2.789136 1_456
Pt2 Pt3 2.789136 1_555
Pt3 Pt4 2.794248 1_555
Pt3 Pt4 2.794248 1_565
