# generated using pymatgen
data_Sc5As2Ru
_symmetry_space_group_name_H-M   'P 1'
_cell_length_a   5.85415807
_cell_length_b   7.77806248
_cell_length_c   7.95247660
_cell_angle_alpha   119.27711231
_cell_angle_beta   90.00000000
_cell_angle_gamma   90.00000000
_symmetry_Int_Tables_number   1
_chemical_formula_structural   Sc5As2Ru
_chemical_formula_sum   'Sc10 As4 Ru2'
_cell_volume   315.85413485
_cell_formula_units_Z   2
loop_
 _symmetry_equiv_pos_site_id
 _symmetry_equiv_pos_as_xyz
  1  'x, y, z'
loop_
 _atom_site_type_symbol
 _atom_site_label
 _atom_site_symmetry_multiplicity
 _atom_site_fract_x
 _atom_site_fract_y
 _atom_site_fract_z
 _atom_site_occupancy
  Sc  Sc0  1  0.00000000  0.66269017  0.32537835  1
  Sc  Sc1  1  0.00000000  0.33730983  0.67462165  1
  Sc  Sc2  1  0.50000000  0.33730983  0.67462165  1
  Sc  Sc3  1  0.50000000  0.66269017  0.32537835  1
  Sc  Sc4  1  0.75000000  0.74324973  0.76813126  1
  Sc  Sc5  1  0.25000000  0.25675027  0.23186874  1
  Sc  Sc6  1  0.75000000  0.97511947  0.23186874  1
  Sc  Sc7  1  0.25000000  0.02488053  0.76813126  1
  Sc  Sc8  1  0.75000000  0.25091243  0.00000000  1
  Sc  Sc9  1  0.25000000  0.74908757  1.00000000  1
  As  As0  1  0.75000000  0.37803447  0.38772486  1
  As  As1  1  0.25000000  0.62196553  0.61227514  1
  As  As2  1  0.75000000  0.99030961  0.61227514  1
  As  As3  1  0.25000000  0.00969039  0.38772486  1
  Ru  Ru0  1  0.75000000  0.59083754  1.00000000  1
  Ru  Ru1  1  0.25000000  0.40916246  0.00000000  1
loop_
_geom_bond_atom_site_label_1
_geom_bond_atom_site_label_2
_geom_bond_distance
_geom_bond_site_symmetry_2
As0 Sc8 2.739157 1_555
As0 Sc6 2.749261 1_545
As0 Sc2 2.855618 1_555
As0 Sc1 2.855618 1_655
As0 Sc0 2.891982 1_655
As0 Sc3 2.891982 1_555
As0 Sc4 2.969179 1_555
As0 Sc5 3.138525 1_555
As0 Sc5 3.138525 1_655
As1 Sc9 2.739157 1_555
As1 Sc7 2.749261 1_565
As1 Sc0 2.855618 1_555
As1 Sc3 2.855618 1_555
As1 Sc2 2.891982 1_555
As1 Sc1 2.891982 1_555
As1 Sc5 2.969179 1_555
As1 Sc4 3.138525 1_455
As1 Sc4 3.138525 1_555
As2 Sc8 2.739157 1_566
As2 Sc4 2.749269 1_555
As2 Sc3 2.855610 1_555
As2 Sc0 2.855610 1_655
As2 Sc2 2.891969 1_565
As2 Sc1 2.891969 1_665
As2 Sc6 2.969183 1_555
As2 Sc7 3.138526 1_665
As2 Sc7 3.138526 1_565
As3 Sc9 2.739157 1_544
As3 Sc5 2.749269 1_555
As3 Sc1 2.855610 1_555
As3 Sc2 2.855610 1_555
As3 Sc3 2.891969 1_545
As3 Sc0 2.891969 1_545
As3 Sc7 2.969183 1_555
As3 Sc6 3.138526 1_445
As3 Sc6 3.138526 1_545
Ru0 Sc4 2.635035 1_555
Ru0 Sc6 2.635041 1_556
Ru0 Sc8 2.643959 1_556
Ru0 Sc3 2.781253 1_556
Ru0 Sc0 2.781253 1_656
Ru0 Sc2 2.781257 1_555
Ru0 Sc1 2.781257 1_655
Ru0 Sc9 3.175351 1_655
Ru0 Sc9 3.175351 1_555
Ru1 Sc5 2.635035 1_555
Ru1 Sc7 2.635041 1_554
Ru1 Sc9 2.643959 1_554
Ru1 Sc1 2.781253 1_554
Ru1 Sc2 2.781253 1_554
Ru1 Sc3 2.781257 1_555
Ru1 Sc0 2.781257 1_555
Ru1 Sc8 3.175351 1_555
Ru1 Sc8 3.175351 1_455
