# generated using pymatgen
data_AlCdIO6
_symmetry_space_group_name_H-M   'P 1'
_cell_length_a   4.99729535
_cell_length_b   4.99729808
_cell_length_c   4.88062157
_cell_angle_alpha   90.00000000
_cell_angle_beta   90.00000000
_cell_angle_gamma   120.00001373
_symmetry_Int_Tables_number   1
_chemical_formula_structural   AlCdIO6
_chemical_formula_sum   'Al1 Cd1 I1 O6'
_cell_volume   105.55431204
_cell_formula_units_Z   1
loop_
 _symmetry_equiv_pos_site_id
 _symmetry_equiv_pos_as_xyz
  1  'x, y, z'
loop_
 _atom_site_type_symbol
 _atom_site_label
 _atom_site_symmetry_multiplicity
 _atom_site_fract_x
 _atom_site_fract_y
 _atom_site_fract_z
 _atom_site_occupancy
  Al  Al0  1  0.66666700  0.33333300  0.50000000  1
  Cd  Cd0  1  0.33333300  0.66666700  0.00000000  1
  I  I0  1  0.00000000  0.00000000  0.50000000  1
  O  O0  1  0.32988405  0.03701769  0.71298496  1
  O  O1  1  0.96298231  0.67011595  0.28701504  1
  O  O2  1  0.32988405  0.29286536  0.28701504  1
  O  O3  1  0.70713464  0.03701769  0.28701504  1
  O  O4  1  0.96298231  0.29286536  0.71298496  1
  O  O5  1  0.70713464  0.67011595  0.71298496  1
loop_
_geom_bond_atom_site_label_1
_geom_bond_atom_site_label_2
_geom_bond_distance
_geom_bond_site_symmetry_2
Al0 O2 1.900948 1_555
Al0 O0 1.900948 1_555
Al0 O4 1.900949 1_555
Al0 O1 1.900949 1_555
Al0 O3 1.900949 1_555
Al0 O5 1.900949 1_555
Cd0 O1 2.328036 1_455
Cd0 O0 2.328037 1_564
Cd0 O3 2.328040 1_565
Cd0 O4 2.328040 1_454
Cd0 O5 2.328044 1_554
Cd0 O2 2.328045 1_555
I0 O3 1.878151 1_455
I0 O4 1.878151 1_455
I0 O2 1.878153 1_555
I0 O5 1.878153 1_445
I0 O0 1.878155 1_555
I0 O1 1.878155 1_445
