# generated using pymatgen
data_Rb4NaAlSe4
_symmetry_space_group_name_H-M   'P 1'
_cell_length_a   8.49711359
_cell_length_b   8.49711339
_cell_length_c   8.49711007
_cell_angle_alpha   132.03507147
_cell_angle_beta   129.54659858
_cell_angle_gamma   72.16418015
_symmetry_Int_Tables_number   1
_chemical_formula_structural   Rb4NaAlSe4
_chemical_formula_sum   'Rb4 Na1 Al1 Se4'
_cell_volume   343.56425018
_cell_formula_units_Z   1
loop_
 _symmetry_equiv_pos_site_id
 _symmetry_equiv_pos_as_xyz
  1  'x, y, z'
loop_
 _atom_site_type_symbol
 _atom_site_label
 _atom_site_symmetry_multiplicity
 _atom_site_fract_x
 _atom_site_fract_y
 _atom_site_fract_z
 _atom_site_occupancy
  Rb  Rb0  1  0.81016416  0.65750161  0.17457545  1
  Rb  Rb1  1  0.18983684  0.36441130  0.84733845  1
  Rb  Rb2  1  0.51707285  0.84249839  0.65266155  1
  Rb  Rb3  1  0.48292515  0.13558870  0.32542455  1
  Na  Na0  1  0.00000000  0.75000000  0.75000000  1
  Al  Al0  1  0.00000000  0.25000000  0.25000000  1
  Se  Se0  1  0.29027936  0.55927375  0.64511842  1
  Se  Se1  1  0.08584468  0.94072625  0.23100461  1
  Se  Se2  1  0.91415532  0.14516094  0.85488158  1
  Se  Se3  1  0.70972164  0.35484006  0.26899539  1
loop_
_geom_bond_atom_site_label_1
_geom_bond_atom_site_label_2
_geom_bond_distance
_geom_bond_site_symmetry_2
Rb0 Se2 3.460558 1_554
Rb0 Se1 3.462172 1_655
Rb0 Se0 3.517586 1_554
Rb0 Se3 3.600781 1_555
Rb0 Se0 3.864970 1_655
Rb0 Se2 3.876573 1_565
Rb1 Se1 3.460563 1_545
Rb1 Se2 3.462166 1_455
Rb1 Se3 3.517584 1_556
Rb1 Se0 3.600788 1_555
Rb1 Se3 3.864974 1_455
Rb1 Se1 3.876576 1_556
Rb2 Se3 3.460563 1_566
Rb2 Se0 3.462166 1_555
Rb2 Se1 3.517584 1_555
Rb2 Se2 3.600789 1_565
Rb2 Se1 3.864974 1_656
Rb2 Se3 3.876576 1_555
Rb3 Se0 3.460552 1_555
Rb3 Se3 3.462179 1_555
Rb3 Se2 3.517588 1_555
Rb3 Se1 3.600773 1_545
Rb3 Se2 3.864965 1_454
Rb3 Se0 3.876574 1_544
Na0 Se1 2.814376 1_556
Na0 Se3 2.814376 1_455
Na0 Se2 2.814386 1_465
Na0 Se0 2.814386 1_555
Al0 Se1 2.423180 1_545
Al0 Se3 2.423180 1_455
Al0 Se2 2.423182 1_454
Al0 Se0 2.423182 1_555
