# generated using pymatgen
data_LiNdS2
_symmetry_space_group_name_H-M   'P 1'
_cell_length_a   6.93491691
_cell_length_b   6.93491691
_cell_length_c   6.93491691
_cell_angle_alpha   132.05137859
_cell_angle_beta   132.05137859
_cell_angle_gamma   70.14789209
_symmetry_Int_Tables_number   1
_chemical_formula_structural   LiNdS2
_chemical_formula_sum   'Li2 Nd2 S4'
_cell_volume   180.26302663
_cell_formula_units_Z   2
loop_
 _symmetry_equiv_pos_site_id
 _symmetry_equiv_pos_as_xyz
  1  'x, y, z'
loop_
 _atom_site_type_symbol
 _atom_site_label
 _atom_site_symmetry_multiplicity
 _atom_site_fract_x
 _atom_site_fract_y
 _atom_site_fract_z
 _atom_site_occupancy
  Li  Li0  1  0.50000000  0.50000000  0.00000000  1
  Li  Li1  1  0.25000000  0.75000000  0.50000000  1
  Nd  Nd0  1  0.00000000  0.00000000  0.00000000  1
  Nd  Nd1  1  0.75000000  0.25000000  0.50000000  1
  S  S0  1  0.75056400  0.75056400  0.00000000  1
  S  S1  1  0.24943600  0.24943600  0.00000000  1
  S  S2  1  0.99943600  0.49943600  0.50000000  1
  S  S3  1  0.50056400  0.00056400  0.50000000  1
loop_
_geom_bond_atom_site_label_1
_geom_bond_atom_site_label_2
_geom_bond_distance
_geom_bond_site_symmetry_2
Li0 S3 2.817851 1_565
Li0 S2 2.817851 1_555
Li0 S2 2.817851 1_454
Li0 S3 2.817851 1_554
Li0 S1 2.844209 1_555
Li0 S0 2.844209 1_555
Li1 S0 2.817851 1_455
Li1 S1 2.817851 1_566
Li1 S0 2.817851 1_556
Li1 S1 2.817851 1_555
Li1 S3 2.844209 1_565
Li1 S2 2.844209 1_455
Nd0 S3 2.817851 1_454
Nd0 S2 2.817851 1_444
Nd0 S2 2.817851 1_455
Nd0 S3 2.817851 1_555
Nd0 S0 2.831404 1_445
Nd0 S1 2.831404 1_555
Nd1 S0 2.817851 1_556
Nd1 S1 2.817851 1_555
Nd1 S0 2.817851 1_545
Nd1 S1 2.817851 1_656
Nd1 S2 2.831404 1_555
Nd1 S3 2.831404 1_555
