# generated using pymatgen
data_AlGa(SeBr7)2
_symmetry_space_group_name_H-M   'P 1'
_cell_length_a   6.73505514
_cell_length_b   7.28399970
_cell_length_c   13.54067391
_cell_angle_alpha   76.80803675
_cell_angle_beta   90.03799446
_cell_angle_gamma   89.95523287
_symmetry_Int_Tables_number   1
_chemical_formula_structural   AlGa(SeBr7)2
_chemical_formula_sum   'Al1 Ga1 Se2 Br14'
_cell_volume   646.75008897
_cell_formula_units_Z   1
loop_
 _symmetry_equiv_pos_site_id
 _symmetry_equiv_pos_as_xyz
  1  'x, y, z'
loop_
 _atom_site_type_symbol
 _atom_site_label
 _atom_site_symmetry_multiplicity
 _atom_site_fract_x
 _atom_site_fract_y
 _atom_site_fract_z
 _atom_site_occupancy
  Al  Al0  1  0.00367874  0.67952867  0.15913722  1
  Ga  Ga0  1  0.99775967  0.68057031  0.65924961  1
  Se  Se0  1  0.59766597  0.01145863  0.50694623  1
  Se  Se1  1  0.40258135  0.01259877  0.00657749  1
  Br  Br0  1  0.38392727  0.95484232  0.38118668  1
  Br  Br1  1  0.42440714  0.24516314  0.56520883  1
  Br  Br2  1  0.16792678  0.20573847  0.90299851  1
  Br  Br3  1  0.83026396  0.20473090  0.40272624  1
  Br  Br4  1  0.08824343  0.97378088  0.18654251  1
  Br  Br5  1  0.57467042  0.24629260  0.06529754  1
  Br  Br6  1  0.12962603  0.66712187  0.00143041  1
  Br  Br7  1  0.86895247  0.66758388  0.49956545  1
  Br  Br8  1  0.66435837  0.64416234  0.16532012  1
  Br  Br9  1  0.34128289  0.64411615  0.66631721  1
  Br  Br10  1  0.15519841  0.44886470  0.28127132  1
  Br  Br11  1  0.84313455  0.44752911  0.78284370  1
  Br  Br12  1  0.61607342  0.95763804  0.88032876  1
  Br  Br13  1  0.91025015  0.97887423  0.68684818  1
loop_
_geom_bond_atom_site_label_1
_geom_bond_atom_site_label_2
_geom_bond_distance
_geom_bond_site_symmetry_2
Al0 Br8 2.299453 1_455
Al0 Br10 2.307848 1_555
Al0 Br6 2.319107 1_555
Al0 Br4 2.328222 1_555
Br0 Se0 2.336732 1_565
Br1 Se0 2.343712 1_555
Br2 Se1 2.353074 1_556
Br3 Se0 2.350979 1_555
Br5 Se1 2.343659 1_555
Br7 Ga0 2.351124 1_555
Br9 Ga0 2.328042 1_455
Br11 Ga0 2.339905 1_555
Br12 Se1 2.337704 1_566
Br13 Ga0 2.361608 1_555
