# generated using pymatgen
data_Re3O8
_symmetry_space_group_name_H-M   'P 1'
_cell_length_a   5.59633710
_cell_length_b   5.59633710
_cell_length_c   4.75098026
_cell_angle_alpha   86.84653395
_cell_angle_beta   86.84653395
_cell_angle_gamma   59.72756017
_symmetry_Int_Tables_number   1
_chemical_formula_structural   Re3O8
_chemical_formula_sum   'Re3 O8'
_cell_volume   128.24700733
_cell_formula_units_Z   1
loop_
 _symmetry_equiv_pos_site_id
 _symmetry_equiv_pos_as_xyz
  1  'x, y, z'
loop_
 _atom_site_type_symbol
 _atom_site_label
 _atom_site_symmetry_multiplicity
 _atom_site_fract_x
 _atom_site_fract_y
 _atom_site_fract_z
 _atom_site_occupancy
  Re  Re0  1  0.00000000  0.00000000  0.00000000  1
  Re  Re1  1  0.50000000  0.00000000  0.50000000  1
  Re  Re2  1  0.00000000  0.50000000  0.50000000  1
  O  O0  1  0.15372000  0.15372000  0.26155100  1
  O  O1  1  0.13042500  0.67211200  0.22864800  1
  O  O2  1  0.65582600  0.65582600  0.29341300  1
  O  O3  1  0.67211200  0.13042500  0.22864800  1
  O  O4  1  0.32788800  0.86957500  0.77135200  1
  O  O5  1  0.34417400  0.34417400  0.70658700  1
  O  O6  1  0.86957500  0.32788800  0.77135200  1
  O  O7  1  0.84628000  0.84628000  0.73844900  1
loop_
_geom_bond_atom_site_label_1
_geom_bond_atom_site_label_2
_geom_bond_distance
_geom_bond_site_symmetry_2
O0 Re0 2.001402 1_555
O0 Re2 2.057278 1_555
O0 Re1 2.057278 1_555
O1 Re2 1.895043 1_555
O1 Re0 1.896706 1_565
O2 Re1 1.963173 1_565
O2 Re2 1.963173 1_655
O3 Re1 1.895043 1_555
O3 Re0 1.896706 1_655
O4 Re1 1.895043 1_565
O4 Re0 1.896706 1_566
O5 Re2 1.963173 1_555
O5 Re1 1.963173 1_555
O6 Re2 1.895043 1_655
O6 Re0 1.896706 1_656
O7 Re0 2.001402 1_666
O7 Re1 2.057278 1_565
O7 Re2 2.057278 1_655
