# generated using pymatgen
data_HfTi(SiTc)2
_symmetry_space_group_name_H-M   'P 1'
_cell_length_a   7.60441025
_cell_length_b   7.60716380
_cell_length_c   7.60440931
_cell_angle_alpha   126.49930151
_cell_angle_beta   128.60432035
_cell_angle_gamma   77.35630028
_symmetry_Int_Tables_number   1
_chemical_formula_structural   HfTi(SiTc)2
_chemical_formula_sum   'Hf3 Ti3 Si6 Tc6'
_cell_volume   268.10676552
_cell_formula_units_Z   3
loop_
 _symmetry_equiv_pos_site_id
 _symmetry_equiv_pos_as_xyz
  1  'x, y, z'
loop_
 _atom_site_type_symbol
 _atom_site_label
 _atom_site_symmetry_multiplicity
 _atom_site_fract_x
 _atom_site_fract_y
 _atom_site_fract_z
 _atom_site_occupancy
  Hf  Hf0  1  0.24512696  0.89471273  0.14958577  1
  Hf  Hf1  1  0.95410011  0.50246548  0.04836336  1
  Hf  Hf2  1  0.04889312  0.08819585  0.53930274  1
  Ti  Ti0  1  0.44720115  0.48816244  0.54096228  1
  Ti  Ti1  1  0.75599384  0.90581330  0.64981946  1
  Ti  Ti2  1  0.54856989  0.10270861  0.05413772  1
  Si  Si0  1  0.75043681  0.50070119  0.25026638  1
  Si  Si1  1  0.17182250  0.16346111  0.00168615  1
  Si  Si2  1  0.66177396  0.16346111  0.49163661  1
  Si  Si3  1  0.35623043  0.82980488  0.51960713  1
  Si  Si4  1  0.24996068  0.49363430  0.74367362  1
  Si  Si5  1  0.81019875  0.82980488  0.97357545  1
  Tc  Tc0  1  0.50404459  0.23864822  0.74262385  1
  Tc  Tc1  1  0.99602438  0.23864822  0.23460463  1
  Tc  Tc2  1  0.86555040  0.49627429  0.62017335  1
  Tc  Tc3  1  0.62467478  0.75472055  0.12142284  1
  Tc  Tc4  1  0.37609993  0.49627429  0.13072289  1
  Tc  Tc5  1  0.13329771  0.75472055  0.63004677  1
loop_
_geom_bond_atom_site_label_1
_geom_bond_atom_site_label_2
_geom_bond_distance
_geom_bond_site_symmetry_2
Hf0 Si2 2.685026 1_565
Hf0 Si1 2.685028 1_565
Hf0 Si5 2.716363 1_454
Hf0 Si3 2.716367 1_555
Hf0 Si4 2.779758 1_554
Hf0 Tc0 2.863210 1_565
Hf0 Tc1 2.863211 1_465
Hf0 Tc4 2.922145 1_555
Hf0 Tc2 2.922149 1_454
Hf0 Tc5 2.943592 1_554
Hf0 Tc3 2.943600 1_555
Hf1 Si2 2.700541 1_554
Hf1 Si1 2.700542 1_655
Hf1 Si5 2.727058 1_554
Hf1 Si3 2.727070 1_655
Hf1 Si0 2.785135 1_555
Hf1 Tc2 2.855420 1_554
Hf1 Tc4 2.855424 1_655
Hf1 Tc3 2.937771 1_555
Hf1 Tc5 2.937784 1_655
Hf1 Tc0 2.944947 1_554
Hf1 Tc1 2.944960 1_555
Hf2 Si1 2.702352 1_556
Hf2 Si2 2.702353 1_455
Hf2 Si5 2.724645 1_444
Hf2 Si3 2.724650 1_545
Hf2 Si4 2.768147 1_555
Hf2 Tc3 2.853148 1_445
Hf2 Tc5 2.853153 1_545
Hf2 Tc1 2.937883 1_455
Hf2 Tc0 2.937890 1_555
Hf2 Tc4 2.977066 1_556
Hf2 Tc2 2.977070 1_455
Si0 Tc2 2.388938 1_555
Si0 Tc4 2.388952 1_555
Si0 Tc1 2.416857 1_555
Si0 Tc0 2.416865 1_554
Si0 Tc5 2.425404 1_655
Si0 Tc3 2.425414 1_555
Si0 Ti1 2.736492 1_555
Si0 Ti2 2.748285 1_555
Si1 Tc4 2.578756 1_555
Si1 Tc5 2.579286 1_544
Si1 Tc1 2.581921 1_455
Si1 Ti2 2.606579 1_555
Si1 Ti0 2.607971 1_555
Si1 Ti1 2.629858 1_444
Si2 Tc2 2.578751 1_555
Si2 Tc3 2.579286 1_545
Si2 Tc0 2.581921 1_555
Si2 Ti2 2.606571 1_555
Si2 Ti0 2.607963 1_555
Si2 Ti1 2.629868 1_545
Si3 Tc4 2.582511 1_555
Si3 Tc5 2.583932 1_555
Si3 Tc0 2.586401 1_565
Si3 Ti0 2.614229 1_555
Si3 Ti2 2.615951 1_566
Si3 Ti1 2.624556 1_555
Si4 Tc5 2.406654 1_555
Si4 Tc3 2.406658 1_556
Si4 Tc1 2.419897 1_455
Si4 Tc0 2.419903 1_555
Si4 Tc4 2.449175 1_556
Si4 Tc2 2.449180 1_455
Si4 Ti0 2.721982 1_555
Si5 Tc2 2.582511 1_555
Si5 Tc3 2.583925 1_556
Si5 Tc1 2.586399 1_566
Si5 Ti0 2.614228 1_555
Si5 Ti2 2.615960 1_566
Si5 Ti1 2.624559 1_555
Tc0 Ti1 2.831508 1_545
Tc0 Ti0 2.901316 1_555
Tc0 Ti2 2.925007 1_556
Tc1 Ti1 2.831512 1_544
Tc1 Ti0 2.901322 1_655
Tc1 Ti2 2.925008 1_555
Tc2 Ti0 2.852676 1_555
Tc2 Ti2 2.860552 1_555
Tc2 Ti1 2.951848 1_555
Tc3 Ti2 2.859289 1_565
Tc3 Ti1 2.909455 1_555
Tc3 Ti0 2.921204 1_554
Tc4 Ti0 2.852683 1_555
Tc4 Ti2 2.860553 1_555
Tc4 Ti1 2.951851 1_555
Tc5 Ti2 2.859286 1_566
Tc5 Ti1 2.909453 1_455
Tc5 Ti0 2.921211 1_555
