# generated using pymatgen
data_LiScH6Ru
_symmetry_space_group_name_H-M   'P 1'
_cell_length_a   6.64677988
_cell_length_b   6.64677988
_cell_length_c   6.64677988
_cell_angle_alpha   90.00000000
_cell_angle_beta   90.00000000
_cell_angle_gamma   90.00000000
_symmetry_Int_Tables_number   1
_chemical_formula_structural   LiScH6Ru
_chemical_formula_sum   'Li4 Sc4 H24 Ru4'
_cell_volume   293.65262678
_cell_formula_units_Z   4
loop_
 _symmetry_equiv_pos_site_id
 _symmetry_equiv_pos_as_xyz
  1  'x, y, z'
loop_
 _atom_site_type_symbol
 _atom_site_label
 _atom_site_symmetry_multiplicity
 _atom_site_fract_x
 _atom_site_fract_y
 _atom_site_fract_z
 _atom_site_occupancy
  Li  Li0  1  0.00000000  0.00000000  0.50000000  1
  Li  Li1  1  0.00000000  0.50000000  0.00000000  1
  Li  Li2  1  0.50000000  0.00000000  0.00000000  1
  Li  Li3  1  0.00000000  0.00000000  0.00000000  1
  Sc  Sc0  1  0.50000000  0.50000000  0.50000000  1
  Sc  Sc1  1  0.00000000  0.50000000  0.50000000  1
  Sc  Sc2  1  0.50000000  0.00000000  0.50000000  1
  Sc  Sc3  1  0.50000000  0.50000000  0.00000000  1
  H  H0  1  0.74839910  0.74839910  0.51644055  1
  H  H1  1  0.25160090  0.25160090  0.51644055  1
  H  H2  1  0.01073942  0.74164691  0.74164691  1
  H  H3  1  0.25835309  0.98926058  0.74164691  1
  H  H4  1  0.74164691  0.01073942  0.74164691  1
  H  H5  1  0.98926058  0.25835309  0.74164691  1
  H  H6  1  0.74839910  0.51644055  0.74839910  1
  H  H7  1  0.51644055  0.74839910  0.74839910  1
  H  H8  1  0.48355945  0.25160090  0.74839910  1
  H  H9  1  0.25160090  0.48355945  0.74839910  1
  H  H10  1  0.25835309  0.74164691  0.98926058  1
  H  H11  1  0.74164691  0.25835309  0.98926058  1
  H  H12  1  0.74164691  0.74164691  0.01073942  1
  H  H13  1  0.25835309  0.25835309  0.01073942  1
  H  H14  1  0.25160090  0.51644055  0.25160090  1
  H  H15  1  0.48355945  0.74839910  0.25160090  1
  H  H16  1  0.51644055  0.25160090  0.25160090  1
  H  H17  1  0.74839910  0.48355945  0.25160090  1
  H  H18  1  0.98926058  0.74164691  0.25835309  1
  H  H19  1  0.74164691  0.98926058  0.25835309  1
  H  H20  1  0.25835309  0.01073942  0.25835309  1
  H  H21  1  0.01073942  0.25835309  0.25835309  1
  H  H22  1  0.25160090  0.74839910  0.48355945  1
  H  H23  1  0.74839910  0.25160090  0.48355945  1
  Ru  Ru0  1  0.26351858  0.73648142  0.73648142  1
  Ru  Ru1  1  0.73648142  0.26351858  0.73648142  1
  Ru  Ru2  1  0.73648142  0.73648142  0.26351858  1
  Ru  Ru3  1  0.26351858  0.26351858  0.26351858  1
loop_
_geom_bond_atom_site_label_1
_geom_bond_atom_site_label_2
_geom_bond_distance
_geom_bond_site_symmetry_2
H0 Ru2 1.684845 1_555
H0 Sc0 2.337499 1_555
H0 Sc1 2.352579 1_655
H0 Sc2 2.352579 1_565
H0 Li0 2.367563 1_665
H1 Ru3 1.684845 1_555
H1 Sc0 2.337499 1_555
H1 Sc1 2.352579 1_555
H1 Sc2 2.352579 1_555
H1 Li0 2.367563 1_555
H2 Ru0 1.680869 1_555
H2 Sc1 2.272594 1_555
H2 Li0 2.352386 1_565
H2 Li1 2.352386 1_556
H3 Ru0 1.680869 1_555
H3 Sc2 2.272594 1_565
H3 Li0 2.352386 1_565
H3 Li2 2.352386 1_566
H4 Ru1 1.680869 1_555
H4 Sc2 2.272594 1_555
H4 Li2 2.352386 1_556
H4 Li0 2.352386 1_655
H5 Ru1 1.680869 1_555
H5 Sc1 2.272594 1_655
H5 Li0 2.352386 1_655
H5 Li1 2.352386 1_656
H6 Ru1 1.684845 1_555
H6 Sc0 2.337499 1_555
H6 Sc3 2.352579 1_556
H6 Sc1 2.352579 1_655
H6 Li1 2.367563 1_656
H7 Ru0 1.684845 1_555
H7 Sc0 2.337499 1_555
H7 Sc3 2.352579 1_556
H7 Sc2 2.352579 1_565
H7 Li2 2.367563 1_566
H8 Ru1 1.684845 1_555
H8 Sc0 2.337499 1_555
H8 Sc3 2.352579 1_556
H8 Sc2 2.352579 1_555
H8 Li2 2.367563 1_556
H9 Ru0 1.684845 1_555
H9 Sc0 2.337499 1_555
H9 Sc3 2.352579 1_556
H9 Sc1 2.352579 1_555
H9 Li1 2.367563 1_556
H10 Ru0 1.680869 1_555
H10 Sc3 2.272594 1_556
H10 Li1 2.352386 1_556
H10 Li2 2.352386 1_566
H11 Ru1 1.680869 1_555
H11 Sc3 2.272594 1_556
H11 Li2 2.352386 1_556
H11 Li1 2.352386 1_656
H12 Ru2 1.680869 1_555
H12 Sc3 2.272594 1_555
H12 Li2 2.352386 1_565
H12 Li1 2.352386 1_655
H13 Ru3 1.680869 1_555
H13 Sc3 2.272594 1_555
H13 Li2 2.352386 1_555
H13 Li1 2.352386 1_555
H14 Ru3 1.684845 1_555
H14 Sc0 2.337499 1_555
H14 Sc1 2.352579 1_555
H14 Sc3 2.352579 1_555
H14 Li1 2.367563 1_555
H15 Ru2 1.684845 1_555
H15 Sc0 2.337499 1_555
H15 Sc2 2.352579 1_565
H15 Sc3 2.352579 1_555
H15 Li2 2.367563 1_565
H16 Ru3 1.684845 1_555
H16 Sc0 2.337499 1_555
H16 Sc3 2.352579 1_555
H16 Sc2 2.352579 1_555
H16 Li2 2.367563 1_555
H17 Ru2 1.684845 1_555
H17 Sc0 2.337499 1_555
H17 Sc1 2.352579 1_655
H17 Sc3 2.352579 1_555
H17 Li1 2.367563 1_655
H18 Ru2 1.680869 1_555
H18 Sc1 2.272594 1_655
H18 Li1 2.352386 1_655
H18 Li0 2.352386 1_665
H19 Ru2 1.680869 1_555
H19 Sc2 2.272594 1_565
H19 Li2 2.352386 1_565
H19 Li0 2.352386 1_665
H20 Ru3 1.680869 1_555
H20 Sc2 2.272594 1_555
H20 Li2 2.352386 1_555
H20 Li0 2.352386 1_555
H21 Ru3 1.680869 1_555
H21 Sc1 2.272594 1_555
H21 Li1 2.352386 1_555
H21 Li0 2.352386 1_555
H22 Ru0 1.684845 1_555
H22 Sc0 2.337499 1_555
H22 Sc2 2.352579 1_565
H22 Sc1 2.352579 1_555
H22 Li0 2.367563 1_565
H23 Ru1 1.684845 1_555
H23 Sc0 2.337499 1_555
H23 Sc1 2.352579 1_655
H23 Sc2 2.352579 1_555
H23 Li0 2.367563 1_655
