# generated using pymatgen
data_Na2Hf3OF12
_symmetry_space_group_name_H-M   'P 1'
_cell_length_a   9.76236439
_cell_length_b   9.76236413
_cell_length_c   9.76236455
_cell_angle_alpha   45.39453193
_cell_angle_beta   45.39453736
_cell_angle_gamma   45.39453258
_symmetry_Int_Tables_number   1
_chemical_formula_structural   Na2Hf3OF12
_chemical_formula_sum   'Na4 Hf6 O2 F24'
_cell_volume   429.60199212
_cell_formula_units_Z   2
loop_
 _symmetry_equiv_pos_site_id
 _symmetry_equiv_pos_as_xyz
  1  'x, y, z'
loop_
 _atom_site_type_symbol
 _atom_site_label
 _atom_site_symmetry_multiplicity
 _atom_site_fract_x
 _atom_site_fract_y
 _atom_site_fract_z
 _atom_site_occupancy
  Na  Na0  1  0.00000000  0.00000000  0.00000000  1
  Na  Na1  1  0.50000000  0.50000000  0.50000000  1
  Na  Na2  1  0.13752605  0.13752605  0.13752605  1
  Na  Na3  1  0.86247395  0.86247395  0.86247395  1
  Hf  Hf0  1  0.58293483  0.58293483  0.03740964  1
  Hf  Hf1  1  0.03740964  0.58293483  0.58293483  1
  Hf  Hf2  1  0.58293483  0.03740964  0.58293483  1
  Hf  Hf3  1  0.41706517  0.96259036  0.41706517  1
  Hf  Hf4  1  0.96259036  0.41706517  0.41706517  1
  Hf  Hf5  1  0.41706517  0.41706517  0.96259036  1
  O  O0  1  0.71751261  0.71751261  0.71751261  1
  O  O1  1  0.28248739  0.28248739  0.28248739  1
  F  F0  1  0.69538737  0.69538737  0.36295023  1
  F  F1  1  0.36295023  0.69538737  0.69538737  1
  F  F2  1  0.69538737  0.36295023  0.69538737  1
  F  F3  1  0.30461263  0.63704977  0.30461263  1
  F  F4  1  0.30461263  0.30461263  0.63704977  1
  F  F5  1  0.63704977  0.30461263  0.30461263  1
  F  F6  1  0.92495645  0.92495645  0.39969755  1
  F  F7  1  0.39969755  0.92495645  0.92495645  1
  F  F8  1  0.65374730  0.34625270  1.00000000  1
  F  F9  1  0.34625270  0.00000000  0.65374730  1
  F  F10  1  0.00000000  0.65374730  0.34625270  1
  F  F11  1  0.34625270  0.65374730  0.00000000  1
  F  F12  1  0.65374730  1.00000000  0.34625270  1
  F  F13  1  1.00000000  0.34625270  0.65374730  1
  F  F14  1  0.91015566  0.33147929  0.33147929  1
  F  F15  1  0.33147929  0.33147929  0.91015566  1
  F  F16  1  0.33147929  0.91015566  0.33147929  1
  F  F17  1  0.66852071  0.08984434  0.66852071  1
  F  F18  1  0.08984434  0.66852071  0.66852071  1
  F  F19  1  0.66852071  0.66852071  0.08984434  1
  F  F20  1  0.60030245  0.07504355  0.07504355  1
  F  F21  1  0.07504355  0.07504355  0.60030245  1
  F  F22  1  0.07504355  0.60030245  0.07504355  1
  F  F23  1  0.92495645  0.39969755  0.92495645  1
loop_
_geom_bond_atom_site_label_1
_geom_bond_atom_site_label_2
_geom_bond_distance
_geom_bond_site_symmetry_2
Hf0 O0 2.025949 1_554
Hf1 O0 2.025949 1_455
Hf2 O0 2.025948 1_545
Hf3 O1 2.025948 1_565
Hf4 O1 2.025949 1_655
Hf5 O1 2.025949 1_556
F0 Hf4 2.105092 1_555
F0 Hf3 2.105092 1_555
F0 Na1 2.647305 1_555
F1 Hf5 2.105092 1_555
F1 Hf3 2.105092 1_555
F1 Na1 2.647305 1_555
F2 Hf4 2.105092 1_555
F2 Hf5 2.105092 1_555
F2 Na1 2.647305 1_555
F3 Hf1 2.105092 1_555
F3 Hf0 2.105092 1_555
F3 Na1 2.647305 1_555
F4 Hf1 2.105092 1_555
F4 Hf2 2.105092 1_555
F4 Na1 2.647305 1_555
F5 Hf0 2.105092 1_555
F5 Hf2 2.105092 1_555
F5 Na1 2.647305 1_555
F6 Hf1 2.185222 1_655
F6 Hf2 2.185223 1_565
F6 Na2 2.508533 1_665
F7 Hf0 2.185222 1_556
F7 Hf2 2.185223 1_565
F7 Na2 2.508533 1_566
F8 Hf0 2.130088 1_556
F8 Hf5 2.130088 1_555
F8 Na0 2.608616 1_656
F9 Hf2 2.130088 1_555
F9 Hf3 2.130088 1_545
F9 Na0 2.608617 1_556
F10 Hf4 2.130088 1_455
F10 Hf1 2.130088 1_555
F10 Na0 2.608616 1_565
F11 Hf5 2.130088 1_554
F11 Hf0 2.130088 1_555
F11 Na0 2.608616 1_565
F12 Hf3 2.130088 1_555
F12 Hf2 2.130088 1_565
F12 Na0 2.608617 1_665
F13 Hf1 2.130088 1_655
F13 Hf4 2.130088 1_555
F13 Na0 2.608616 1_656
F14 Hf4 1.959588 1_555
F14 Na2 2.308041 1_655
F14 Na1 2.596898 1_555
F15 Hf5 1.959588 1_555
F15 Na2 2.308041 1_556
F15 Na1 2.596898 1_555
F16 Hf3 1.959588 1_555
F16 Na2 2.308041 1_565
F16 Na1 2.596897 1_555
F17 Hf2 1.959588 1_555
F17 Na3 2.308041 1_545
F17 Na1 2.596897 1_555
F18 Hf1 1.959588 1_555
F18 Na3 2.308041 1_455
F18 Na1 2.596898 1_555
F19 Hf0 1.959588 1_555
F19 Na3 2.308041 1_554
F19 Na1 2.596898 1_555
F20 Hf5 2.185222 1_554
F20 Hf3 2.185223 1_545
F20 Na3 2.508533 1_544
F21 Hf4 2.185222 1_455
F21 Hf3 2.185223 1_545
F21 Na3 2.508533 1_445
F22 Hf5 2.185223 1_554
F22 Hf4 2.185223 1_455
F22 Na3 2.508533 1_454
F23 Hf0 2.185223 1_556
F23 Hf1 2.185223 1_655
F23 Na2 2.508533 1_656
