# generated using pymatgen
data_Ca2Al(SiPd2)3
_symmetry_space_group_name_H-M   'P 1'
_cell_length_a   6.73596487
_cell_length_b   6.73765707
_cell_length_c   6.73881407
_cell_angle_alpha   129.61077956
_cell_angle_beta   115.22755130
_cell_angle_gamma   86.36214351
_symmetry_Int_Tables_number   1
_chemical_formula_structural   Ca2Al(SiPd2)3
_chemical_formula_sum   'Ca2 Al1 Si3 Pd6'
_cell_volume   203.40105689
_cell_formula_units_Z   1
loop_
 _symmetry_equiv_pos_site_id
 _symmetry_equiv_pos_as_xyz
  1  'x, y, z'
loop_
 _atom_site_type_symbol
 _atom_site_label
 _atom_site_symmetry_multiplicity
 _atom_site_fract_x
 _atom_site_fract_y
 _atom_site_fract_z
 _atom_site_occupancy
  Ca  Ca0  1  0.00007840  0.97489280  0.97458262  1
  Ca  Ca1  1  0.50134970  0.05457201  0.55290066  1
  Al  Al0  1  0.35004203  0.40692526  0.05697641  1
  Si  Si0  1  0.81050845  0.24162965  0.43104331  1
  Si  Si1  1  0.64711130  0.70552018  0.05890276  1
  Si  Si2  1  0.19328458  0.62395229  0.43045045  1
  Pd  Pd0  1  0.95095251  0.50385643  0.95451163  1
  Pd  Pd1  1  0.54916206  0.50351988  0.55285915  1
  Pd  Pd2  1  0.03829708  0.99681573  0.53905259  1
  Pd  Pd3  1  0.78996687  0.48784211  0.27669631  1
  Pd  Pd4  1  0.21151997  0.48847783  0.69867695  1
  Pd  Pd5  1  0.45772606  0.99699583  0.95834815  1
loop_
_geom_bond_atom_site_label_1
_geom_bond_atom_site_label_2
_geom_bond_distance
_geom_bond_site_symmetry_2
Ca0 Pd1 3.121796 1_455
Ca0 Pd0 3.122148 1_455
Ca0 Pd5 3.147013 1_555
Ca0 Pd2 3.147023 1_555
Ca0 Pd4 3.181378 1_555
Ca0 Pd3 3.182087 1_455
Ca0 Si0 3.214046 1_466
Ca0 Si2 3.230931 1_566
Ca0 Pd3 3.309948 1_466
Ca0 Pd4 3.314078 1_566
Ca1 Pd1 3.062395 1_555
Ca1 Pd0 3.064283 1_555
Ca1 Si2 3.107492 1_545
Ca1 Si0 3.116084 1_555
Ca1 Pd2 3.122269 1_545
Ca1 Pd5 3.122871 1_545
Ca1 Si1 3.176003 1_545
Ca1 Si1 3.232588 1_556
Ca1 Pd4 3.251426 1_555
Ca1 Pd3 3.251554 1_556
Al0 Pd5 2.532247 1_544
Al0 Pd2 2.533288 1_544
Al0 Pd3 2.589661 1_555
Al0 Pd4 2.590105 1_554
Al0 Pd0 2.626775 1_454
Al0 Pd1 2.627966 1_555
Al0 Si2 2.638931 1_555
Al0 Si1 2.916719 1_555
Al0 Ca1 3.211565 1_565
Al0 Ca1 3.251864 1_554
Al0 Ca0 3.468825 1_544
Si0 Si1 2.673712 1_545
Pd0 Si0 2.424941 1_555
Pd0 Si2 2.449782 1_656
Pd0 Si1 2.487060 1_556
Pd1 Si0 2.424283 1_555
Pd1 Si2 2.450795 1_555
Pd1 Si1 2.488876 1_556
Pd2 Si0 2.421275 1_465
Pd2 Si2 2.431221 1_555
Pd2 Si1 2.560370 1_455
Pd3 Si0 2.429257 1_555
Pd3 Si2 2.449544 1_655
Pd3 Si1 2.567658 1_555
Pd4 Si0 2.430597 1_455
Pd4 Si2 2.452702 1_555
Pd4 Si1 2.566469 1_556
Pd5 Si0 2.420760 1_566
Pd5 Si2 2.431167 1_555
Pd5 Si1 2.566207 1_556
