# generated using pymatgen
data_Nd2SmS4
_symmetry_space_group_name_H-M   'P 1'
_cell_length_a   7.40124099
_cell_length_b   7.40124099
_cell_length_c   7.40124099
_cell_angle_alpha   109.49830575
_cell_angle_beta   109.49830575
_cell_angle_gamma   109.41706397
_symmetry_Int_Tables_number   1
_chemical_formula_structural   Nd2SmS4
_chemical_formula_sum   'Nd4 Sm2 S8'
_cell_volume   312.09833678
_cell_formula_units_Z   2
loop_
 _symmetry_equiv_pos_site_id
 _symmetry_equiv_pos_as_xyz
  1  'x, y, z'
loop_
 _atom_site_type_symbol
 _atom_site_label
 _atom_site_symmetry_multiplicity
 _atom_site_fract_x
 _atom_site_fract_y
 _atom_site_fract_z
 _atom_site_occupancy
  Nd  Nd0  1  0.49993200  0.12500000  0.87493200  1
  Nd  Nd1  1  0.25006800  0.62500000  0.12506800  1
  Nd  Nd2  1  0.37500000  0.50006800  0.62506800  1
  Nd  Nd3  1  0.87500000  0.74993200  0.37493200  1
  Sm  Sm0  1  0.00000000  0.00000000  0.00000000  1
  Sm  Sm1  1  0.75000000  0.25000000  0.50000000  1
  S  S0  1  0.62762100  0.87809600  0.10279900  1
  S  S1  1  0.62809600  0.87762100  0.60279900  1
  S  S2  1  0.47517800  0.37237900  0.25047500  1
  S  S3  1  0.27482200  0.02529700  0.39720100  1
  S  S4  1  0.12190400  0.22470300  0.74952500  1
  S  S5  1  0.97470300  0.37190400  0.24952500  1
  S  S6  1  0.77529700  0.52482200  0.89720100  1
  S  S7  1  0.12237900  0.72517800  0.75047500  1
loop_
_geom_bond_atom_site_label_1
_geom_bond_atom_site_label_2
_geom_bond_distance
_geom_bond_site_symmetry_2
Nd0 S1 2.876997 1_545
Nd0 S2 2.876997 1_556
Nd0 S6 2.894448 1_555
Nd0 S7 2.894448 1_545
Nd0 S5 3.036183 1_556
Nd0 S0 3.036183 1_546
Nd0 S4 3.054590 1_555
Nd0 S3 3.054590 1_555
Nd1 S3 2.876997 1_565
Nd1 S4 2.876997 1_554
Nd1 S0 2.894448 1_555
Nd1 S5 2.894448 1_455
Nd1 S7 3.036183 1_554
Nd1 S6 3.036183 1_454
Nd1 S1 3.054590 1_555
Nd1 S2 3.054590 1_555
Nd2 S6 2.876997 1_555
Nd2 S5 2.876997 1_455
Nd2 S1 2.894448 1_555
Nd2 S4 2.894448 1_555
Nd2 S2 3.036183 1_555
Nd2 S3 3.036183 1_555
Nd2 S0 3.054590 1_556
Nd2 S7 3.054590 1_555
Nd3 S7 2.876997 1_655
Nd3 S0 2.876997 1_555
Nd3 S2 2.894448 1_555
Nd3 S3 2.894448 1_665
Nd3 S4 3.036183 1_665
Nd3 S1 3.036183 1_555
Nd3 S5 3.054590 1_555
Nd3 S6 3.054590 1_554
S0 Sm1 2.863959 1_565
S0 Sm0 3.032090 1_665
S1 Sm0 2.863959 1_666
S1 Sm1 3.032090 1_565
S2 Sm1 2.863959 1_555
S2 Sm0 3.032090 1_555
S3 Sm0 2.863959 1_555
S3 Sm1 3.032090 1_555
S4 Sm1 2.863959 1_455
S4 Sm0 3.032090 1_556
S5 Sm0 2.863959 1_655
S5 Sm1 3.032090 1_555
S6 Sm1 2.863959 1_555
S6 Sm0 3.032090 1_666
S7 Sm0 2.863959 1_566
S7 Sm1 3.032090 1_455
