# generated using pymatgen
data_Rb2Ag(TeO4)3
_symmetry_space_group_name_H-M   'P 1'
_cell_length_a   7.11019097
_cell_length_b   7.11019088
_cell_length_c   7.29809334
_cell_angle_alpha   60.57063357
_cell_angle_beta   60.57063605
_cell_angle_gamma   60.75173712
_symmetry_Int_Tables_number   1
_chemical_formula_structural   Rb2Ag(TeO4)3
_chemical_formula_sum   'Rb2 Ag1 Te3 O12'
_cell_volume   264.60521542
_cell_formula_units_Z   1
loop_
 _symmetry_equiv_pos_site_id
 _symmetry_equiv_pos_as_xyz
  1  'x, y, z'
loop_
 _atom_site_type_symbol
 _atom_site_label
 _atom_site_symmetry_multiplicity
 _atom_site_fract_x
 _atom_site_fract_y
 _atom_site_fract_z
 _atom_site_occupancy
  Rb  Rb0  1  0.12028980  0.12694600  0.62316981  1
  Rb  Rb1  1  0.87305400  0.87971020  0.37683019  1
  Ag  Ag0  1  0.49743146  0.50256854  0.00000000  1
  Te  Te0  1  0.49737072  0.00256834  0.99998900  1
  Te  Te1  1  0.99743166  0.50262928  0.00001100  1
  Te  Te2  1  0.49733149  0.50266851  0.50000000  1
  O  O0  1  0.81775623  0.82296127  0.93898500  1
  O  O1  1  0.40916219  0.41417663  0.36058800  1
  O  O2  1  0.42831271  0.84016561  0.91128759  1
  O  O3  1  0.81673270  0.41913325  0.31105924  1
  O  O4  1  0.83499277  0.43331813  0.91150348  1
  O  O5  1  0.41385951  0.82196934  0.31103670  1
  O  O6  1  0.17703873  0.18224377  0.06101500  1
  O  O7  1  0.58582337  0.59083781  0.63941200  1
  O  O8  1  0.56668187  0.16500723  0.08849652  1
  O  O9  1  0.17803066  0.58614049  0.68896330  1
  O  O10  1  0.15983439  0.57168729  0.08871241  1
  O  O11  1  0.58086675  0.18326730  0.68894076  1
loop_
_geom_bond_atom_site_label_1
_geom_bond_atom_site_label_2
_geom_bond_distance
_geom_bond_site_symmetry_2
Ag0 O8 2.013588 1_555
Ag0 O4 2.013588 1_554
Ag0 O2 2.013762 1_554
Ag0 O10 2.013762 1_555
Ag0 O1 2.202571 1_555
Ag0 O7 2.202571 1_554
O0 Te1 1.933114 1_556
O0 Te0 1.933304 1_565
O0 Rb0 3.063768 1_665
O1 Te2 1.861563 1_555
O1 Rb0 2.906363 1_555
O2 Te0 1.895919 1_565
O2 Rb0 3.053510 1_565
O3 Te1 1.926450 1_555
O3 Te2 1.954745 1_555
O3 Rb0 3.156293 1_655
O4 Te1 1.896369 1_556
O4 Rb0 3.046307 1_655
O5 Te0 1.926283 1_564
O5 Te2 1.954279 1_555
O5 Rb0 3.163358 1_565
O6 Te0 1.933114 1_554
O6 Te1 1.933304 1_455
O6 Rb1 3.063768 1_445
O7 Te2 1.861563 1_555
O7 Rb1 2.906363 1_555
O8 Te0 1.896369 1_554
O8 Rb1 3.046307 1_545
O9 Te1 1.926283 1_456
O9 Te2 1.954279 1_555
O9 Rb1 3.163358 1_455
O10 Te1 1.895919 1_455
O10 Rb1 3.053510 1_455
O11 Te0 1.926450 1_555
O11 Te2 1.954745 1_555
O11 Rb1 3.156293 1_545
