# generated using pymatgen
data_Cs(RhO2)6
_symmetry_space_group_name_H-M   'P 1'
_cell_length_a   8.52956913
_cell_length_b   8.52956833
_cell_length_c   8.52956785
_cell_angle_alpha   107.15103301
_cell_angle_beta   107.15102647
_cell_angle_gamma   114.21847797
_symmetry_Int_Tables_number   1
_chemical_formula_structural   Cs(RhO2)6
_chemical_formula_sum   'Cs2 Rh12 O24'
_cell_volume   475.22381908
_cell_formula_units_Z   2
loop_
 _symmetry_equiv_pos_site_id
 _symmetry_equiv_pos_as_xyz
  1  'x, y, z'
loop_
 _atom_site_type_symbol
 _atom_site_label
 _atom_site_symmetry_multiplicity
 _atom_site_fract_x
 _atom_site_fract_y
 _atom_site_fract_z
 _atom_site_occupancy
  Cs  Cs0  1  0.30081884  0.30081884  0.00000000  1
  Cs  Cs1  1  0.69918116  0.69918116  1.00000000  1
  Rh  Rh0  1  0.66409508  0.85002479  0.51411987  1
  Rh  Rh1  1  0.48350336  0.99794474  0.81444378  1
  Rh  Rh2  1  0.81649904  0.33094142  0.81444378  1
  Rh  Rh3  1  0.51649664  0.00205526  0.18555622  1
  Rh  Rh4  1  0.66905858  0.48350336  0.48555762  1
  Rh  Rh5  1  0.33590492  0.14997521  0.48588013  1
  Rh  Rh6  1  0.33094142  0.51649664  0.51444238  1
  Rh  Rh7  1  0.99794474  0.18350096  0.51444238  1
  Rh  Rh8  1  0.14997521  0.66409508  0.81407030  1
  Rh  Rh9  1  0.18350096  0.66905858  0.18555622  1
  Rh  Rh10  1  0.85002479  0.33590492  0.18592970  1
  Rh  Rh11  1  0.00205526  0.81649904  0.48555762  1
  O  O0  1  0.65643239  0.04296768  0.69940006  1
  O  O1  1  0.32176320  0.95904403  0.94965232  1
  O  O2  1  0.65452700  0.29582973  0.95035673  1
  O  O3  1  0.70993907  0.00920723  0.38480803  1
  O  O4  1  0.62439919  0.32513004  0.61519197  1
  O  O5  1  0.29006093  0.99079277  0.61519197  1
  O  O6  1  0.67823580  0.04095597  0.05034768  1
  O  O7  1  0.34356761  0.95703232  0.30059994  1
  O  O8  1  0.67486996  0.29006093  0.29926916  1
  O  O9  1  0.29582973  0.34547300  0.64130273  1
  O  O10  1  0.95904403  0.00939171  0.63727982  1
  O  O11  1  0.62788912  0.67823680  0.63727982  1
  O  O12  1  0.04095597  0.99060829  0.36272018  1
  O  O13  1  0.70417027  0.65452700  0.35869727  1
  O  O14  1  0.37211088  0.32176420  0.36272018  1
  O  O15  1  0.99079277  0.37560081  0.70073084  1
  O  O16  1  0.32513004  0.70993907  0.70073084  1
  O  O17  1  0.99060829  0.62788912  0.94965232  1
  O  O18  1  0.37560081  0.67486996  0.38480803  1
  O  O19  1  0.04296768  0.34356761  0.38653529  1
  O  O20  1  0.95703232  0.65643239  0.61346471  1
  O  O21  1  0.00939171  0.37211088  0.05034768  1
  O  O22  1  0.34547300  0.70417027  0.04964327  1
  O  O23  1  0.00920723  0.62439919  0.29926916  1
loop_
_geom_bond_atom_site_label_1
_geom_bond_atom_site_label_2
_geom_bond_distance
_geom_bond_site_symmetry_2
Cs0 O1 2.906689 1_544
Cs0 O21 2.906690 1_555
Cs0 O10 2.906693 1_454
Cs0 O14 2.906695 1_555
Cs0 O13 3.182988 1_555
Cs0 O9 3.182988 1_554
Cs0 O22 3.182988 1_555
Cs0 O2 3.182989 1_554
Cs1 O17 2.906690 1_555
Cs1 O12 2.906693 1_656
Cs1 O6 2.906694 1_566
Cs1 O11 2.906698 1_555
Cs1 O9 3.182988 1_555
Cs1 O13 3.182988 1_556
Cs1 O2 3.182988 1_555
Cs1 O22 3.182989 1_556
O0 Rh0 1.955875 1_545
O0 Rh1 1.974131 1_545
O0 Rh2 1.974138 1_555
O1 Rh3 2.008928 1_566
O1 Rh8 2.018392 1_555
O1 Rh1 2.032693 1_555
O2 Rh10 2.021390 1_556
O2 Rh1 2.037696 1_545
O2 Rh2 2.037697 1_555
O3 Rh3 1.953708 1_555
O3 Rh7 1.974760 1_555
O3 Rh0 1.978632 1_545
O4 Rh2 1.953698 1_555
O4 Rh4 1.974773 1_555
O4 Rh5 1.978632 1_555
O5 Rh1 1.953708 1_555
O5 Rh11 1.974760 1_555
O5 Rh5 1.978632 1_565
O6 Rh1 2.008924 1_544
O6 Rh10 2.018393 1_555
O6 Rh3 2.032687 1_555
O7 Rh5 1.955875 1_565
O7 Rh3 1.974131 1_565
O7 Rh9 1.974138 1_555
O8 Rh4 1.953708 1_555
O8 Rh3 1.974760 1_555
O8 Rh10 1.978632 1_555
O9 Rh5 2.021390 1_555
O9 Rh6 2.037690 1_555
O9 Rh7 2.037697 1_455
O10 Rh11 2.008928 1_645
O10 Rh0 2.018393 1_545
O10 Rh7 2.032680 1_555
O11 Rh4 2.008922 1_555
O11 Rh0 2.018386 1_555
O11 Rh6 2.032687 1_555
O12 Rh7 2.008928 1_465
O12 Rh5 2.018393 1_565
O12 Rh11 2.032680 1_555
O13 Rh0 2.021390 1_555
O13 Rh4 2.037690 1_555
O13 Rh11 2.037697 1_655
O14 Rh6 2.008916 1_555
O14 Rh5 2.018393 1_555
O14 Rh4 2.032687 1_555
O15 Rh7 1.953697 1_555
O15 Rh2 1.974767 1_555
O15 Rh8 1.978632 1_655
O16 Rh6 1.953708 1_555
O16 Rh1 1.974760 1_555
O16 Rh8 1.978632 1_555
O17 Rh9 2.008932 1_656
O17 Rh8 2.018393 1_655
O17 Rh2 2.032686 1_555
O18 Rh9 1.953698 1_555
O18 Rh6 1.974773 1_555
O18 Rh0 1.978632 1_555
O19 Rh10 1.955875 1_455
O19 Rh6 1.974138 1_555
O19 Rh7 1.974138 1_455
O20 Rh8 1.955875 1_655
O20 Rh4 1.974138 1_555
O20 Rh11 1.974138 1_655
O21 Rh2 2.008932 1_454
O21 Rh10 2.018393 1_455
O21 Rh9 2.032686 1_555
O22 Rh8 2.021390 1_554
O22 Rh3 2.037696 1_565
O22 Rh9 2.037697 1_555
O23 Rh11 1.953697 1_555
O23 Rh9 1.974767 1_555
O23 Rh10 1.978632 1_455
