# generated using pymatgen
data_Cd5Cu2
_symmetry_space_group_name_H-M   'P 1'
_cell_length_a   8.17154785
_cell_length_b   8.17154788
_cell_length_c   8.85299169
_cell_angle_alpha   90.00000000
_cell_angle_beta   90.00000000
_cell_angle_gamma   119.99999580
_symmetry_Int_Tables_number   1
_chemical_formula_structural   Cd5Cu2
_chemical_formula_sum   'Cd20 Cu8'
_cell_volume   511.95214198
_cell_formula_units_Z   4
loop_
 _symmetry_equiv_pos_site_id
 _symmetry_equiv_pos_as_xyz
  1  'x, y, z'
loop_
 _atom_site_type_symbol
 _atom_site_label
 _atom_site_symmetry_multiplicity
 _atom_site_fract_x
 _atom_site_fract_y
 _atom_site_fract_z
 _atom_site_occupancy
  Cd  Cd0  1  0.20405150  0.40810399  0.95857062  1
  Cd  Cd1  1  0.79594850  0.20405150  0.45857062  1
  Cd  Cd2  1  0.40810399  0.20405150  0.45857062  1
  Cd  Cd3  1  0.59189601  0.79594850  0.95857062  1
  Cd  Cd4  1  0.20405150  0.79594850  0.95857062  1
  Cd  Cd5  1  0.79594850  0.59189601  0.04142938  1
  Cd  Cd6  1  0.79594850  0.20405150  0.04142938  1
  Cd  Cd7  1  0.79594850  0.59189601  0.45857062  1
  Cd  Cd8  1  0.40810399  0.20405150  0.04142938  1
  Cd  Cd9  1  0.59189601  0.79594850  0.54142938  1
  Cd  Cd10  1  0.20405150  0.40810399  0.54142938  1
  Cd  Cd11  1  0.20405150  0.79594850  0.54142938  1
  Cd  Cd12  1  0.53745532  0.07490965  0.75000000  1
  Cd  Cd13  1  0.46254468  0.53745532  0.25000000  1
  Cd  Cd14  1  0.07490965  0.53745532  0.25000000  1
  Cd  Cd15  1  0.92509035  0.46254468  0.75000000  1
  Cd  Cd16  1  0.53745532  0.46254468  0.75000000  1
  Cd  Cd17  1  0.46254468  0.92509035  0.25000000  1
  Cd  Cd18  1  0.00000000  -0.00000000  0.50000000  1
  Cd  Cd19  1  0.00000000  -0.00000000  -0.00000000  1
  Cu  Cu0  1  0.88985101  0.77970102  0.75000000  1
  Cu  Cu1  1  0.11014899  0.88985101  0.25000000  1
  Cu  Cu2  1  0.77970102  0.88985101  0.25000000  1
  Cu  Cu3  1  0.22029898  0.11014899  0.75000000  1
  Cu  Cu4  1  0.88985101  0.11014899  0.75000000  1
  Cu  Cu5  1  0.11014899  0.22029898  0.25000000  1
  Cu  Cu6  1  0.66666700  0.33333300  0.25000000  1
  Cu  Cu7  1  0.33333300  0.66666700  0.75000000  1
loop_
_geom_bond_atom_site_label_1
_geom_bond_atom_site_label_2
_geom_bond_distance
_geom_bond_site_symmetry_2
Cd0 Cu7 2.599538 1_555
Cd0 Cu5 2.902222 1_556
Cd0 Cd19 2.911254 1_556
Cd0 Cd6 2.979753 1_456
Cd0 Cd8 2.979766 1_556
Cd0 Cu4 3.111001 1_455
Cd0 Cu3 3.111008 1_555
Cd0 Cd15 3.133334 1_455
Cd0 Cd16 3.133347 1_555
Cd0 Cd14 3.162726 1_556
Cd0 Cd13 3.162726 1_556
Cd0 Cd4 3.169290 1_555
Cd0 Cd3 3.169290 1_555
Cd1 Cu6 2.599538 1_555
Cd1 Cu4 2.902222 1_555
Cd1 Cd18 2.911247 1_655
Cd1 Cd10 2.979753 1_655
Cd1 Cd9 2.979753 1_545
Cd1 Cu5 3.110995 1_655
Cd1 Cu2 3.110995 1_545
Cd1 Cd17 3.133342 1_545
Cd1 Cd14 3.133342 1_655
Cd1 Cd12 3.162726 1_555
Cd1 Cd15 3.162726 1_555
Cd1 Cd2 3.169290 1_555
Cd1 Cd7 3.169290 1_555
Cd2 Cu6 2.599538 1_555
Cd2 Cu3 2.902222 1_555
Cd2 Cu1 3.111001 1_545
Cd2 Cu5 3.111008 1_555
Cd2 Cd7 3.169290 1_555
Cd3 Cu7 2.599538 1_555
Cd3 Cu2 2.902222 1_556
Cd3 Cd6 2.979753 1_566
Cd3 Cd5 2.979766 1_556
Cd3 Cu4 3.111001 1_565
Cd3 Cu0 3.111008 1_555
Cd3 Cd4 3.169290 1_555
Cd4 Cu7 2.599538 1_555
Cd4 Cu1 2.902222 1_556
Cd4 Cd5 2.979753 1_456
Cd4 Cd8 2.979753 1_566
Cd4 Cu0 3.110995 1_455
Cd4 Cu3 3.110995 1_565
Cd5 Cu6 2.599538 1_555
Cd5 Cu0 2.902222 1_554
Cd5 Cu1 3.111001 1_655
Cd5 Cu2 3.111008 1_555
Cd5 Cd6 3.169290 1_555
Cd5 Cd8 3.169290 1_555
Cd6 Cu6 2.599538 1_555
Cd6 Cu4 2.902222 1_554
Cd6 Cu5 3.110995 1_655
Cd6 Cu2 3.110995 1_545
Cd6 Cd8 3.169290 1_555
Cd7 Cu6 2.599538 1_555
Cd7 Cu0 2.902222 1_555
Cd7 Cd9 2.979766 1_555
Cd7 Cu1 3.111001 1_655
Cd7 Cu2 3.111008 1_555
Cd8 Cu6 2.599538 1_555
Cd8 Cu3 2.902222 1_554
Cd8 Cu1 3.111001 1_545
Cd8 Cu5 3.111008 1_555
Cd9 Cu7 2.599538 1_555
Cd9 Cu2 2.902222 1_555
Cd9 Cu4 3.111001 1_565
Cd9 Cu0 3.111008 1_555
Cd10 Cu7 2.599538 1_555
Cd10 Cu5 2.902222 1_555
Cd10 Cd18 2.911254 1_555
Cd10 Cd2 2.979766 1_555
Cd10 Cu4 3.111001 1_455
Cd10 Cu3 3.111008 1_555
Cd10 Cd15 3.133334 1_455
Cd10 Cd16 3.133347 1_555
Cd10 Cd14 3.162726 1_555
Cd10 Cd13 3.162726 1_555
Cd10 Cd11 3.169290 1_555
Cd10 Cd9 3.169290 1_555
Cd11 Cu7 2.599538 1_555
Cd11 Cu1 2.902222 1_555
Cd11 Cd18 2.911247 1_565
Cd11 Cd7 2.979753 1_455
Cd11 Cd2 2.979753 1_565
Cd11 Cu0 3.110995 1_455
Cd11 Cu3 3.110995 1_565
Cd11 Cd12 3.133342 1_565
Cd11 Cd15 3.133342 1_455
Cd11 Cd17 3.162726 1_555
Cd11 Cd14 3.162726 1_555
Cd11 Cd9 3.169290 1_555
Cd12 Cu3 2.746981 1_555
Cd12 Cu4 2.746982 1_555
Cd12 Cu7 2.889039 1_545
Cd12 Cd3 3.133334 1_545
Cd12 Cd9 3.133334 1_545
Cd12 Cd4 3.133342 1_545
Cd12 Cd2 3.162726 1_555
Cd12 Cd8 3.162726 1_556
Cd12 Cd6 3.162726 1_556
Cd13 Cu5 2.746982 1_555
Cd13 Cu2 2.746982 1_555
Cd13 Cu6 2.889053 1_555
Cd13 Cd7 3.133347 1_555
Cd13 Cd5 3.133347 1_555
Cd13 Cd2 3.133347 1_555
Cd13 Cd8 3.133347 1_555
Cd13 Cd9 3.162726 1_555
Cd13 Cd3 3.162726 1_554
Cd14 Cu5 2.746981 1_555
Cd14 Cu1 2.746982 1_555
Cd14 Cu6 2.889039 1_455
Cd14 Cd7 3.133334 1_455
Cd14 Cd5 3.133334 1_455
Cd14 Cd6 3.133342 1_455
Cd14 Cd4 3.162726 1_554
Cd15 Cu0 2.746981 1_555
Cd15 Cu4 2.746982 1_555
Cd15 Cu7 2.889039 1_655
Cd15 Cd4 3.133342 1_655
Cd15 Cd7 3.162726 1_555
Cd15 Cd5 3.162726 1_556
Cd15 Cd6 3.162726 1_556
Cd16 Cu0 2.746982 1_555
Cd16 Cu3 2.746982 1_555
Cd16 Cu7 2.889053 1_555
Cd16 Cd3 3.133347 1_555
Cd16 Cd9 3.133347 1_555
Cd16 Cd7 3.162726 1_555
Cd16 Cd5 3.162726 1_556
Cd16 Cd2 3.162726 1_555
Cd16 Cd8 3.162726 1_556
Cd17 Cu2 2.746981 1_555
Cd17 Cu1 2.746982 1_555
Cd17 Cu6 2.889039 1_565
Cd17 Cd8 3.133334 1_565
Cd17 Cd2 3.133334 1_565
Cd17 Cd6 3.133342 1_565
Cd17 Cd9 3.162726 1_555
Cd17 Cd3 3.162726 1_554
Cd17 Cd4 3.162726 1_554
Cd18 Cu4 2.707202 1_455
Cd18 Cu1 2.707202 1_545
Cd18 Cu2 2.707206 1_445
Cd18 Cu3 2.707206 1_555
Cd18 Cu0 2.707206 1_445
Cd18 Cu5 2.707206 1_555
Cd18 Cd9 2.911254 1_445
Cd18 Cd2 2.911254 1_555
Cd18 Cd7 2.911254 1_445
Cd19 Cu4 2.707202 1_454
Cd19 Cu1 2.707202 1_545
Cd19 Cu2 2.707206 1_445
Cd19 Cu3 2.707206 1_554
Cd19 Cu5 2.707206 1_555
Cd19 Cu0 2.707206 1_444
Cd19 Cd6 2.911247 1_455
Cd19 Cd4 2.911247 1_544
Cd19 Cd3 2.911254 1_444
Cd19 Cd8 2.911254 1_555
Cd19 Cd5 2.911254 1_445
Cu0 Cu4 2.700271 1_565
Cu0 Cu3 2.700272 1_665
Cu1 Cu2 2.700271 1_455
Cu1 Cu5 2.700271 1_565
Cu2 Cu5 2.700272 1_665
Cu3 Cu4 2.700271 1_455
