# generated using pymatgen
data_Li3SiHgPt3
_symmetry_space_group_name_H-M   'P 1'
_cell_length_a   6.86728931
_cell_length_b   6.86728821
_cell_length_c   6.86728875
_cell_angle_alpha   62.16756866
_cell_angle_beta   62.16757170
_cell_angle_gamma   62.16757367
_symmetry_Int_Tables_number   1
_chemical_formula_structural   Li3SiHgPt3
_chemical_formula_sum   'Li6 Si2 Hg2 Pt6'
_cell_volume   240.09212993
_cell_formula_units_Z   2
loop_
 _symmetry_equiv_pos_site_id
 _symmetry_equiv_pos_as_xyz
  1  'x, y, z'
loop_
 _atom_site_type_symbol
 _atom_site_label
 _atom_site_symmetry_multiplicity
 _atom_site_fract_x
 _atom_site_fract_y
 _atom_site_fract_z
 _atom_site_occupancy
  Li  Li0  1  0.55825939  0.84448544  0.34040388  1
  Li  Li1  1  0.34040388  0.55825939  0.84448544  1
  Li  Li2  1  0.84448544  0.34040388  0.55825939  1
  Li  Li3  1  0.65959612  0.15551456  0.44174061  1
  Li  Li4  1  0.15551456  0.44174061  0.65959612  1
  Li  Li5  1  0.44174061  0.65959612  0.15551456  1
  Si  Si0  1  0.89608704  0.89608704  0.89608704  1
  Si  Si1  1  0.10391296  0.10391296  0.10391296  1
  Hg  Hg0  1  0.29115603  0.29115603  0.29115603  1
  Hg  Hg1  1  0.70884397  0.70884397  0.70884397  1
  Pt  Pt0  1  0.89417348  0.50000000  0.10582652  1
  Pt  Pt1  1  0.10582652  0.89417348  0.50000000  1
  Pt  Pt2  1  0.50000000  0.10582652  0.89417348  1
  Pt  Pt3  1  0.24597812  1.00000000  0.75402188  1
  Pt  Pt4  1  0.75402188  0.24597812  0.00000000  1
  Pt  Pt5  1  0.00000000  0.75402188  0.24597812  1
loop_
_geom_bond_atom_site_label_1
_geom_bond_atom_site_label_2
_geom_bond_distance
_geom_bond_site_symmetry_2
Li0 Pt5 2.605471 1_655
Li0 Pt1 2.674047 1_555
Li0 Li5 2.695773 1_555
Li0 Si0 2.822403 1_554
Li0 Pt2 2.847879 1_564
Li0 Pt0 2.916444 1_555
Li0 Li3 2.959547 1_565
Li0 Pt3 2.968772 1_555
Li0 Pt4 3.063014 1_565
Li0 Li1 3.105051 1_555
Li0 Li2 3.105051 1_555
Li1 Pt3 2.605471 1_555
Li1 Pt2 2.674047 1_555
Li1 Li4 2.695773 1_555
Li1 Si0 2.822403 1_455
Li1 Pt0 2.847879 1_456
Li1 Pt1 2.916444 1_555
Li1 Li5 2.959547 1_556
Li1 Pt4 2.968773 1_556
Li1 Pt5 3.063014 1_556
Li1 Li2 3.105052 1_555
Li2 Pt4 2.605471 1_556
Li2 Pt0 2.674047 1_555
Li2 Li3 2.695773 1_555
Li2 Si0 2.822403 1_545
Li2 Pt1 2.847879 1_645
Li2 Pt2 2.916444 1_555
Li2 Li4 2.959547 1_655
Li2 Pt5 2.968772 1_655
Li2 Pt3 3.063014 1_645
Li3 Pt4 2.605471 1_555
Li3 Pt2 2.674047 1_555
Li3 Si1 2.822403 1_655
Li3 Pt1 2.847879 1_645
Li3 Pt0 2.916443 1_555
Li3 Pt3 2.968773 1_545
Li3 Pt5 3.063014 1_645
Li3 Li5 3.105051 1_555
Li3 Li4 3.105052 1_555
Li4 Pt3 2.605471 1_545
Li4 Pt1 2.674047 1_555
Li4 Si1 2.822403 1_556
Li4 Pt0 2.847879 1_456
Li4 Pt2 2.916444 1_555
Li4 Pt5 2.968772 1_555
Li4 Pt4 3.063014 1_456
Li4 Li5 3.105052 1_555
Li5 Pt5 2.605471 1_555
Li5 Pt0 2.674047 1_555
Li5 Si1 2.822403 1_565
Li5 Pt2 2.847879 1_564
Li5 Pt1 2.916444 1_555
Li5 Pt4 2.968772 1_555
Li5 Pt3 3.063014 1_554
Hg0 Li1 2.691596 1_554
Hg0 Li0 2.691596 1_545
Hg0 Li2 2.691596 1_455
Hg0 Li5 2.771618 1_555
Hg0 Li4 2.771618 1_555
Hg0 Li3 2.771618 1_555
Hg0 Pt1 2.998888 1_545
Hg0 Pt2 2.998888 1_554
Hg0 Pt0 2.998888 1_455
Hg1 Li3 2.691596 1_565
Hg1 Li5 2.691596 1_556
Hg1 Li4 2.691596 1_655
Hg1 Li2 2.771618 1_555
Hg1 Li0 2.771618 1_555
Hg1 Li1 2.771618 1_555
Hg1 Pt2 2.998888 1_565
Hg1 Pt0 2.998888 1_556
Hg1 Pt1 2.998888 1_655
Pt0 Si0 2.414697 1_554
Pt0 Si1 2.414697 1_655
Pt0 Pt5 2.811097 1_655
Pt0 Pt4 2.811097 1_555
Pt1 Si1 2.414697 1_565
Pt1 Si0 2.414698 1_455
Pt1 Pt5 2.811097 1_555
Pt1 Pt3 2.811097 1_555
Pt2 Si1 2.414698 1_556
Pt2 Si0 2.414698 1_545
Pt2 Pt4 2.811097 1_556
Pt2 Pt3 2.811097 1_545
Pt3 Si1 2.448787 1_566
Pt3 Si0 2.448787 1_455
Pt4 Si0 2.448786 1_544
Pt4 Si1 2.448787 1_655
Pt5 Si1 2.448786 1_565
Pt5 Si0 2.448787 1_454
