# generated using pymatgen
data_CrOs3Pb4O13
_symmetry_space_group_name_H-M   'P 1'
_cell_length_a   7.28372048
_cell_length_b   7.28372086
_cell_length_c   7.28371946
_cell_angle_alpha   60.12877628
_cell_angle_beta   60.12878359
_cell_angle_gamma   60.12877780
_symmetry_Int_Tables_number   1
_chemical_formula_structural   CrOs3Pb4O13
_chemical_formula_sum   'Cr1 Os3 Pb4 O13'
_cell_volume   274.03745709
_cell_formula_units_Z   1
loop_
 _symmetry_equiv_pos_site_id
 _symmetry_equiv_pos_as_xyz
  1  'x, y, z'
loop_
 _atom_site_type_symbol
 _atom_site_label
 _atom_site_symmetry_multiplicity
 _atom_site_fract_x
 _atom_site_fract_y
 _atom_site_fract_z
 _atom_site_occupancy
  Cr  Cr0  1  0.50009534  0.50009534  0.50009534  1
  Os  Os0  1  0.00055191  0.50060862  0.50060862  1
  Os  Os1  1  0.50060862  0.50060862  0.00055191  1
  Os  Os2  1  0.50060862  0.00055191  0.50060862  1
  Pb  Pb0  1  0.99866002  0.99866002  0.99866002  1
  Pb  Pb1  1  0.50782465  0.00039636  0.00039636  1
  Pb  Pb2  1  0.00039636  0.00039636  0.50782465  1
  Pb  Pb3  1  0.00039636  0.50782465  0.00039636  1
  O  O0  1  0.82960368  0.42391764  0.42391764  1
  O  O1  1  0.42429169  0.81810659  0.81810659  1
  O  O2  1  0.42391764  0.42391764  0.82960368  1
  O  O3  1  0.81810659  0.81810659  0.42429169  1
  O  O4  1  0.81810659  0.42429169  0.81810659  1
  O  O5  1  0.42391764  0.82960368  0.42391764  1
  O  O6  1  0.17723854  0.56990569  0.56990569  1
  O  O7  1  0.57502703  0.18050090  0.18050090  1
  O  O8  1  0.56990569  0.56990569  0.17723854  1
  O  O9  1  0.18050090  0.18050090  0.57502703  1
  O  O10  1  0.18050090  0.57502703  0.18050090  1
  O  O11  1  0.56990569  0.17723854  0.56990569  1
  O  O12  1  0.12483756  0.12483756  0.12483756  1
loop_
_geom_bond_atom_site_label_1
_geom_bond_atom_site_label_2
_geom_bond_distance
_geom_bond_site_symmetry_2
Cr0 O8 1.980530 1_555
Cr0 O6 1.980530 1_555
Cr0 O11 1.980530 1_555
Cr0 O2 2.007394 1_555
Cr0 O0 2.007395 1_555
Cr0 O5 2.007395 1_555
O0 Os0 1.967456 1_655
O0 Pb3 2.548315 1_655
O0 Pb2 2.548315 1_655
O1 Os2 1.953728 1_565
O1 Os1 1.953728 1_556
O1 Pb0 2.582736 1_455
O1 Pb1 2.694708 1_566
O2 Os1 1.967456 1_556
O2 Pb1 2.548315 1_556
O2 Pb3 2.548315 1_556
O3 Os0 1.953728 1_655
O3 Os2 1.953728 1_565
O3 Pb0 2.582735 1_554
O3 Pb2 2.694708 1_665
O4 Os0 1.953728 1_655
O4 Os1 1.953728 1_556
O4 Pb0 2.582735 1_545
O4 Pb3 2.694708 1_656
O5 Os2 1.967456 1_565
O5 Pb1 2.548315 1_565
O5 Pb2 2.548315 1_565
O6 Os0 1.927064 1_555
O6 Pb3 2.615369 1_556
O6 Pb2 2.615370 1_565
O7 Os2 1.962827 1_555
O7 Os1 1.962828 1_555
O7 Pb0 2.575874 1_544
O7 Pb1 2.583569 1_555
O8 Os1 1.927064 1_555
O8 Pb1 2.615370 1_565
O8 Pb3 2.615370 1_655
O9 Os0 1.962828 1_555
O9 Os2 1.962828 1_555
O9 Pb0 2.575874 1_445
O9 Pb2 2.583569 1_555
O10 Os0 1.962828 1_555
O10 Os1 1.962828 1_555
O10 Pb0 2.575874 1_454
O10 Pb3 2.583569 1_555
O11 Os2 1.927064 1_555
O11 Pb1 2.615369 1_556
O11 Pb2 2.615370 1_655
O12 Pb0 2.248990 1_444
O12 Pb2 2.281656 1_555
O12 Pb3 2.281656 1_555
O12 Pb1 2.281656 1_555
