# generated using pymatgen
data_Mg2Zr6(Al2Pd)7
_symmetry_space_group_name_H-M   'P 1'
_cell_length_a   8.79296407
_cell_length_b   8.79414253
_cell_length_c   8.79414314
_cell_angle_alpha   59.97301733
_cell_angle_beta   60.00443551
_cell_angle_gamma   60.00443574
_symmetry_Int_Tables_number   1
_chemical_formula_structural   Mg2Zr6(Al2Pd)7
_chemical_formula_sum   'Mg2 Zr6 Al14 Pd7'
_cell_volume   480.78154907
_cell_formula_units_Z   1
loop_
 _symmetry_equiv_pos_site_id
 _symmetry_equiv_pos_as_xyz
  1  'x, y, z'
loop_
 _atom_site_type_symbol
 _atom_site_label
 _atom_site_symmetry_multiplicity
 _atom_site_fract_x
 _atom_site_fract_y
 _atom_site_fract_z
 _atom_site_occupancy
  Mg  Mg0  1  0.88123862  0.88403712  0.35348665  1
  Mg  Mg1  1  0.88123862  0.35348665  0.88403712  1
  Zr  Zr0  1  0.68449898  0.68489177  0.31411047  1
  Zr  Zr1  1  0.31649979  0.68489177  0.31411047  1
  Zr  Zr2  1  0.68096721  0.31903279  0.31903279  1
  Zr  Zr3  1  0.31649979  0.31411047  0.68489177  1
  Zr  Zr4  1  0.68449898  0.31411047  0.68489177  1
  Zr  Zr5  1  0.31182400  0.68817600  0.68817600  1
  Al  Al0  1  0.36156677  0.87989221  0.87989221  1
  Al  Al1  1  0.87865080  0.87989221  0.87989221  1
  Al  Al2  1  0.12056874  0.12179983  0.63706170  1
  Al  Al3  1  0.12056874  0.63706170  0.12179983  1
  Al  Al4  1  0.63897375  0.11996529  0.11996529  1
  Al  Al5  1  0.12109367  0.11996529  0.11996529  1
  Al  Al6  1  0.66628802  0.66577620  0.00164777  1
  Al  Al7  1  0.66628802  0.00164777  0.66577620  1
  Al  Al8  1  0.00174266  0.66578182  0.66578182  1
  Al  Al9  1  0.66669270  0.66578182  0.66578182  1
  Al  Al10  1  0.33369803  0.33348783  0.99911612  1
  Al  Al11  1  0.33369803  0.99911612  0.33348783  1
  Al  Al12  1  0.99824544  0.33359599  0.33359599  1
  Al  Al13  1  0.33456258  0.33359599  0.33359599  1
  Pd  Pd0  1  0.00893496  0.99106504  0.99106504  1
  Pd  Pd1  1  0.00018019  0.00073732  0.50508375  1
  Pd  Pd2  1  0.49399874  0.00073732  0.50508375  1
  Pd  Pd3  1  0.00210498  0.49789502  0.49789502  1
  Pd  Pd4  1  0.49399874  0.50508375  0.00073732  1
  Pd  Pd5  1  0.00018019  0.50508375  0.00073732  1
  Pd  Pd6  1  0.50069829  0.99930171  0.99930171  1
loop_
_geom_bond_atom_site_label_1
_geom_bond_atom_site_label_2
_geom_bond_distance
_geom_bond_site_symmetry_2
Mg0 Pd0 2.604038 1_654
Mg0 Pd3 2.774646 1_655
Mg0 Pd1 2.785855 1_665
Mg0 Pd2 2.785862 1_565
Mg0 Zr0 3.227193 1_555
Mg0 Zr1 3.227193 1_655
Mg0 Zr2 3.234895 1_565
Mg1 Pd0 2.604038 1_645
Mg1 Pd3 2.774646 1_655
Mg1 Pd5 2.785855 1_656
Mg1 Pd4 2.785862 1_556
Mg1 Zr4 3.227193 1_555
Mg1 Zr3 3.227193 1_655
Mg1 Zr2 3.234896 1_556
Zr0 Zr2 3.211507 1_555
Zr0 Zr1 3.235804 1_555
Zr0 Zr4 3.259374 1_555
Zr0 Zr5 3.283687 1_555
Zr1 Zr2 3.211502 1_555
Zr1 Zr3 3.259374 1_555
Zr1 Zr5 3.283682 1_555
Zr2 Zr3 3.211502 1_555
Zr2 Zr4 3.211507 1_555
Zr3 Zr4 3.235804 1_555
Zr3 Zr5 3.283682 1_555
Zr4 Zr5 3.283687 1_555
Al0 Pd0 2.533858 1_555
Al0 Pd4 2.691408 1_556
Al0 Pd2 2.691409 1_565
Al0 Pd6 2.715643 1_555
Al0 Al7 2.770818 1_565
Al0 Al6 2.770818 1_556
Al0 Al9 2.781200 1_555
Al0 Al5 2.986551 1_566
Al0 Al3 3.007833 1_556
Al0 Al2 3.007833 1_565
Al0 Zr5 3.193096 1_555
Al0 Zr3 3.208132 1_565
Al0 Zr1 3.208132 1_556
Al1 Pd0 2.533843 1_655
Al1 Pd5 2.691409 1_656
Al1 Pd1 2.691409 1_665
Al1 Pd6 2.715657 1_555
Al1 Al6 2.770832 1_556
Al1 Al7 2.770832 1_565
Al1 Al8 2.781207 1_655
Al1 Al4 2.986551 1_566
Al1 Al2 3.007814 1_665
Al1 Al3 3.007814 1_656
Al1 Zr5 3.193084 1_655
Al1 Zr4 3.208134 1_565
Al1 Zr0 3.208134 1_556
Al2 Pd0 2.543208 1_545
Al2 Pd1 2.681989 1_555
Al2 Pd2 2.681997 1_555
Al2 Pd3 2.701997 1_555
Al2 Mg1 2.978077 1_455
Al2 Zr5 3.193754 1_545
Al2 Zr4 3.217895 1_455
Al2 Zr3 3.217910 1_555
Al3 Pd0 2.543207 1_554
Al3 Pd5 2.681989 1_555
Al3 Pd4 2.681997 1_555
Al3 Pd3 2.701997 1_555
Al3 Mg0 2.978077 1_455
Al3 Zr5 3.193755 1_554
Al3 Zr0 3.217895 1_455
Al3 Zr1 3.217910 1_555
Al4 Pd0 2.657860 1_644
Al4 Pd6 2.727129 1_544
Al4 Pd4 2.767741 1_555
Al4 Pd2 2.767742 1_555
Al4 Mg1 2.958137 1_554
Al4 Mg0 2.958138 1_545
Al4 Zr0 3.213794 1_545
Al4 Zr4 3.213795 1_554
Al4 Zr2 3.259692 1_555
Al5 Pd0 2.657845 1_544
Al5 Pd6 2.727144 1_544
Al5 Pd5 2.767742 1_555
Al5 Pd1 2.767742 1_555
Al5 Mg0 2.958118 1_445
Al5 Mg1 2.958119 1_454
Al5 Zr1 3.213800 1_545
Al5 Zr3 3.213800 1_554
Al5 Zr2 3.259681 1_455
Al6 Pd6 2.534317 1_554
Al6 Pd4 2.540882 1_555
Al6 Pd5 2.540882 1_655
Al6 Mg1 2.807583 1_554
Al6 Zr1 2.921245 1_555
Al6 Zr0 2.921250 1_555
Al6 Zr2 2.924735 1_555
Al6 Al8 2.951847 1_654
Al6 Al9 2.951851 1_554
Al6 Al7 2.952498 1_564
Al7 Pd6 2.534317 1_545
Al7 Pd2 2.540882 1_555
Al7 Pd1 2.540882 1_655
Al7 Mg0 2.807583 1_545
Al7 Zr3 2.921245 1_555
Al7 Zr4 2.921250 1_555
Al7 Zr2 2.924736 1_555
Al7 Al8 2.951847 1_645
Al7 Al9 2.951851 1_545
Al8 Pd1 2.546944 1_565
Al8 Pd5 2.546944 1_556
Al8 Pd3 2.555745 1_555
Al8 Mg1 2.819541 1_455
Al8 Mg0 2.819541 1_455
Al8 Zr5 2.936689 1_555
Al8 Zr3 2.939264 1_555
Al8 Zr1 2.939264 1_555
Al8 Al9 2.946082 1_455
Al9 Pd2 2.546941 1_565
Al9 Pd4 2.546941 1_556
Al9 Pd3 2.555751 1_655
Al9 Mg0 2.819550 1_555
Al9 Mg1 2.819550 1_555
Al9 Zr5 2.936680 1_555
Al9 Zr4 2.939256 1_555
Al9 Zr0 2.939256 1_555
Al10 Pd4 2.536238 1_556
Al10 Pd5 2.536238 1_556
Al10 Pd6 2.544787 1_545
Al10 Al3 2.767999 1_556
Al10 Al4 2.770591 1_556
Al10 Al5 2.770606 1_556
Al10 Zr3 2.933051 1_555
Al10 Zr4 2.933056 1_555
Al10 Zr5 2.938249 1_555
Al10 Al11 2.939313 1_546
Al10 Al13 2.945748 1_556
Al10 Al12 2.945748 1_456
Al11 Pd2 2.536238 1_565
Al11 Pd1 2.536238 1_565
Al11 Pd6 2.544787 1_554
Al11 Al2 2.767999 1_565
Al11 Al4 2.770591 1_565
Al11 Al5 2.770606 1_565
Al11 Zr1 2.933051 1_555
Al11 Zr0 2.933056 1_555
Al11 Zr5 2.938249 1_555
Al11 Al13 2.945748 1_565
Al11 Al12 2.945748 1_465
Al12 Pd3 2.522667 1_655
Al12 Pd1 2.530006 1_655
Al12 Pd5 2.530007 1_655
Al12 Al3 2.764119 1_655
Al12 Al2 2.764119 1_655
Al12 Al5 2.774895 1_655
Al12 Zr2 2.923489 1_555
Al12 Zr0 2.933499 1_555
Al12 Zr4 2.933499 1_555
Al12 Al13 2.957224 1_655
Al13 Pd3 2.522667 1_555
Al13 Pd2 2.530007 1_555
Al13 Pd4 2.530007 1_555
Al13 Al2 2.764124 1_555
Al13 Al3 2.764124 1_555
Al13 Al4 2.774890 1_555
Al13 Zr2 2.923489 1_555
Al13 Zr1 2.933503 1_555
Al13 Zr3 2.933503 1_555
Pd1 Zr5 3.179317 1_545
Pd1 Zr4 3.181830 1_455
Pd1 Zr2 3.247007 1_455
Pd1 Zr1 3.247337 1_545
Pd2 Zr5 3.179317 1_545
Pd2 Zr3 3.181832 1_555
Pd2 Zr2 3.247007 1_555
Pd2 Zr0 3.247336 1_545
Pd3 Zr4 3.221298 1_455
Pd3 Zr0 3.221298 1_455
Pd3 Zr1 3.221306 1_555
Pd3 Zr3 3.221306 1_555
Pd4 Zr5 3.179317 1_554
Pd4 Zr1 3.181832 1_555
Pd4 Zr2 3.247007 1_555
Pd4 Zr4 3.247336 1_554
Pd5 Zr5 3.179317 1_554
Pd5 Zr0 3.181830 1_455
Pd5 Zr2 3.247007 1_455
Pd5 Zr3 3.247338 1_554
Pd6 Zr1 3.204074 1_556
Pd6 Zr3 3.204074 1_565
Pd6 Zr4 3.204079 1_565
Pd6 Zr0 3.204079 1_556
