# generated using pymatgen
data_Na2S2O5
_symmetry_space_group_name_H-M   'P 1'
_cell_length_a   5.52025000
_cell_length_b   9.31636900
_cell_length_c   23.22801898
_cell_angle_alpha   72.06893657
_cell_angle_beta   90.00000000
_cell_angle_gamma   90.00000000
_symmetry_Int_Tables_number   1
_chemical_formula_structural   Na2S2O5
_chemical_formula_sum   'Na16 S16 O40'
_cell_volume   1136.56259425
_cell_formula_units_Z   8
loop_
 _symmetry_equiv_pos_site_id
 _symmetry_equiv_pos_as_xyz
  1  'x, y, z'
loop_
 _atom_site_type_symbol
 _atom_site_label
 _atom_site_symmetry_multiplicity
 _atom_site_fract_x
 _atom_site_fract_y
 _atom_site_fract_z
 _atom_site_occupancy
  Na  Na0  1  0.23113500  0.34619100  0.23360400  1
  Na  Na1  1  0.73113500  0.65380900  0.26639600  1
  Na  Na2  1  0.76886500  0.65380900  0.76639600  1
  Na  Na3  1  0.26886500  0.34619100  0.73360400  1
  Na  Na4  1  0.26653900  0.91742100  0.81600900  1
  Na  Na5  1  0.76653900  0.08257900  0.68399100  1
  Na  Na6  1  0.73346100  0.08257900  0.18399100  1
  Na  Na7  1  0.23346100  0.91742100  0.31600900  1
  Na  Na8  1  0.27453500  0.42079800  0.06940600  1
  Na  Na9  1  0.77453500  0.57920200  0.43059400  1
  Na  Na10  1  0.72546500  0.57920200  0.93059400  1
  Na  Na11  1  0.22546500  0.42079800  0.56940600  1
  Na  Na12  1  0.31752200  0.84444700  0.98481800  1
  Na  Na13  1  0.81752200  0.15555300  0.51518200  1
  Na  Na14  1  0.68247800  0.15555300  0.01518200  1
  Na  Na15  1  0.18247800  0.84444700  0.48481800  1
  S  S0  1  0.76115100  0.17607800  0.81046200  1
  S  S1  1  0.26115100  0.82392200  0.68953800  1
  S  S2  1  0.23884900  0.82392200  0.18953800  1
  S  S3  1  0.73884900  0.17607800  0.31046200  1
  S  S4  1  0.76687700  0.47633500  0.14945900  1
  S  S5  1  0.26687700  0.52366500  0.35054100  1
  S  S6  1  0.23312300  0.52366500  0.85054100  1
  S  S7  1  0.73312300  0.47633500  0.64945900  1
  S  S8  1  0.79908500  0.67996800  0.06111400  1
  S  S9  1  0.29908500  0.32003200  0.43888600  1
  S  S10  1  0.20091500  0.32003200  0.93888600  1
  S  S11  1  0.70091500  0.67996800  0.56111400  1
  S  S12  1  0.77703600  0.96824900  0.89719100  1
  S  S13  1  0.27703600  0.03175100  0.60280900  1
  S  S14  1  0.22296400  0.03175100  0.10280900  1
  S  S15  1  0.72296400  0.96824900  0.39719100  1
  O  O0  1  0.89593400  0.63505000  0.52420600  1
  O  O1  1  0.39593400  0.36495000  0.97579400  1
  O  O2  1  0.10406600  0.36495000  0.47579400  1
  O  O3  1  0.60406600  0.63505000  0.02420600  1
  O  O4  1  0.99575300  0.44008500  0.65486400  1
  O  O5  1  0.49575300  0.55991500  0.84513600  1
  O  O6  1  0.00424700  0.55991500  0.34513600  1
  O  O7  1  0.50424700  0.44008500  0.15486400  1
  O  O8  1  0.63814400  0.51997600  0.70156500  1
  O  O9  1  0.13814400  0.48002400  0.79843500  1
  O  O10  1  0.36185600  0.48002400  0.29843500  1
  O  O11  1  0.86185600  0.51997600  0.20156500  1
  O  O12  1  0.53696500  0.13561600  0.27431900  1
  O  O13  1  0.03696500  0.86438400  0.22568100  1
  O  O14  1  0.46303500  0.86438400  0.72568100  1
  O  O15  1  0.96303500  0.13561600  0.77431900  1
  O  O16  1  0.87569900  0.84920900  0.38449900  1
  O  O17  1  0.37569900  0.15079100  0.11550100  1
  O  O18  1  0.12430100  0.15079100  0.61550100  1
  O  O19  1  0.62430100  0.84920900  0.88449900  1
  O  O20  1  0.82418600  0.01184800  0.44867900  1
  O  O21  1  0.32418600  0.98815200  0.05132100  1
  O  O22  1  0.17581400  0.98815200  0.55132100  1
  O  O23  1  0.67581400  0.01184800  0.94867900  1
  O  O24  1  0.46323700  0.92583100  0.40554300  1
  O  O25  1  0.96323700  0.07416900  0.09445700  1
  O  O26  1  0.53676300  0.07416900  0.59445700  1
  O  O27  1  0.03676300  0.92583100  0.90554300  1
  O  O28  1  0.98065800  0.14546000  0.28648600  1
  O  O29  1  0.48065800  0.85454000  0.21351400  1
  O  O30  1  0.01934200  0.85454000  0.71351400  1
  O  O31  1  0.51934200  0.14546000  0.78648600  1
  O  O32  1  0.45400700  0.64916300  0.54033100  1
  O  O33  1  0.95400700  0.35083700  0.95966900  1
  O  O34  1  0.54599300  0.35083700  0.45966900  1
  O  O35  1  0.04599300  0.64916300  0.04033100  1
  O  O36  1  0.58495100  0.35213300  0.63953600  1
  O  O37  1  0.08495100  0.64786700  0.86046400  1
  O  O38  1  0.41504900  0.64786700  0.36046400  1
  O  O39  1  0.91504900  0.35213300  0.13953600  1
loop_
_geom_bond_atom_site_label_1
_geom_bond_atom_site_label_2
_geom_bond_distance
_geom_bond_site_symmetry_2
Na0 O7 2.323404 1_555
Na0 O10 2.345033 1_555
Na0 O28 2.345945 1_455
Na0 O12 2.539852 1_555
Na0 O11 2.566860 1_455
Na0 O39 2.783425 1_455
Na1 O6 2.323404 1_655
Na1 O11 2.345033 1_555
Na1 O29 2.345945 1_555
Na1 O13 2.539852 1_655
Na1 O10 2.566860 1_555
Na1 O38 2.783425 1_555
Na2 O5 2.323404 1_555
Na2 O8 2.345033 1_555
Na2 O30 2.345945 1_655
Na2 O14 2.539852 1_555
Na2 O9 2.566860 1_655
Na2 O37 2.783425 1_655
Na3 O4 2.323404 1_455
Na3 O9 2.345033 1_555
Na3 O31 2.345945 1_555
Na3 O15 2.539852 1_455
Na3 O8 2.566860 1_555
Na3 O36 2.783425 1_555
Na4 O31 2.456459 1_565
Na4 O27 2.457744 1_555
Na4 O19 2.492514 1_555
Na4 O14 2.541905 1_555
Na4 O15 2.581647 1_465
Na4 O37 2.604003 1_555
Na4 O30 2.955008 1_555
Na5 O30 2.456459 1_645
Na5 O26 2.457744 1_555
Na5 O18 2.492514 1_655
Na5 O15 2.541905 1_555
Na5 O14 2.581647 1_545
Na5 O36 2.604003 1_555
Na5 O31 2.955008 1_555
Na6 O29 2.456459 1_545
Na6 O25 2.457744 1_555
Na6 O17 2.492514 1_555
Na6 O12 2.541905 1_555
Na6 O13 2.581647 1_645
Na6 O39 2.604003 1_555
Na6 O28 2.955008 1_555
Na7 O28 2.456459 1_465
Na7 O24 2.457744 1_555
Na7 O16 2.492514 1_455
Na7 O13 2.541905 1_555
Na7 O12 2.581647 1_565
Na7 O38 2.604003 1_555
Na7 O29 2.955008 1_555
Na8 O35 2.385253 1_555
Na8 O7 2.408362 1_555
Na8 O17 2.475383 1_555
Na8 O1 2.478820 1_554
Na8 O39 2.521747 1_455
Na8 O3 2.665563 1_555
Na9 O34 2.385253 1_555
Na9 O6 2.408362 1_655
Na9 O16 2.475383 1_555
Na9 O0 2.478820 1_555
Na9 O38 2.521747 1_555
Na9 O2 2.665563 1_655
Na10 O33 2.385253 1_555
Na10 O5 2.408362 1_555
Na10 O19 2.475383 1_555
Na10 O3 2.478820 1_556
Na10 O37 2.521747 1_655
Na10 O1 2.665563 1_555
Na11 O32 2.385253 1_555
Na11 O4 2.408362 1_455
Na11 O18 2.475383 1_555
Na11 O2 2.478820 1_555
Na11 O36 2.521747 1_555
Na11 O0 2.665563 1_455
Na12 O21 2.335249 1_556
Na12 O27 2.346917 1_555
Na12 O35 2.403103 1_556
Na12 O3 2.458827 1_556
Na12 O23 2.498547 1_565
Na12 O19 2.869866 1_555
Na13 O20 2.335249 1_555
Na13 O26 2.346917 1_555
Na13 O34 2.403103 1_555
Na13 O2 2.458827 1_655
Na13 O22 2.498547 1_645
Na13 O18 2.869866 1_655
Na14 O23 2.335249 1_554
Na14 O25 2.346917 1_555
Na14 O33 2.403103 1_554
Na14 O1 2.458827 1_554
Na14 O21 2.498547 1_545
Na14 O17 2.869866 1_555
Na15 O22 2.335249 1_555
Na15 O24 2.346917 1_555
Na15 O32 2.403103 1_555
Na15 O0 2.458827 1_455
Na15 O20 2.498547 1_465
Na15 O16 2.869866 1_455
O0 S11 1.513259 1_555
O1 S10 1.513259 1_555
O2 S9 1.513259 1_555
O3 S8 1.513259 1_555
O4 S7 1.485120 1_555
O5 S6 1.485120 1_555
O6 S5 1.485120 1_555
O7 S4 1.485120 1_555
O8 S7 1.485959 1_555
O9 S6 1.485959 1_555
O10 S5 1.485959 1_555
O11 S4 1.485959 1_555
O12 S3 1.511215 1_555
O13 S2 1.511215 1_555
O14 S1 1.511215 1_555
O15 S0 1.511215 1_555
O16 S15 1.492995 1_555
O17 S14 1.492995 1_555
O18 S13 1.492995 1_555
O19 S12 1.492995 1_555
O20 S15 1.485483 1_545
O21 S14 1.485483 1_565
O22 S13 1.485483 1_565
O23 S12 1.485483 1_545
O24 S15 1.484001 1_555
O25 S14 1.484001 1_655
O26 S13 1.484001 1_555
O27 S12 1.484001 1_455
O28 S3 1.507034 1_555
O29 S2 1.507034 1_555
O30 S1 1.507034 1_555
O31 S0 1.507034 1_555
O32 S11 1.502821 1_555
O33 S10 1.502821 1_655
O34 S9 1.502821 1_555
O35 S8 1.502821 1_455
O36 S7 1.491741 1_555
O37 S6 1.491741 1_555
O38 S5 1.491741 1_555
O39 S4 1.491741 1_555
