# generated using pymatgen
data_Y6Zn4Pd11Pt2
_symmetry_space_group_name_H-M   'P 1'
_cell_length_a   8.20429083
_cell_length_b   8.20429063
_cell_length_c   8.19010219
_cell_angle_alpha   109.44941823
_cell_angle_beta   109.44942208
_cell_angle_gamma   109.58485686
_symmetry_Int_Tables_number   1
_chemical_formula_structural   Y6Zn4Pd11Pt2
_chemical_formula_sum   'Y6 Zn4 Pd11 Pt2'
_cell_volume   424.00693968
_cell_formula_units_Z   1
loop_
 _symmetry_equiv_pos_site_id
 _symmetry_equiv_pos_as_xyz
  1  'x, y, z'
loop_
 _atom_site_type_symbol
 _atom_site_label
 _atom_site_symmetry_multiplicity
 _atom_site_fract_x
 _atom_site_fract_y
 _atom_site_fract_z
 _atom_site_occupancy
  Y  Y0  1  0.69770767  0.69770767  0.99845751  1
  Y  Y1  1  0.29981936  0.00188679  0.30170515  1
  Y  Y2  1  0.00188679  0.29981936  0.30170515  1
  Y  Y3  1  0.30075085  0.30075085  0.99845751  1
  Y  Y4  1  0.69985361  0.00022421  0.70007781  1
  Y  Y5  1  0.00022421  0.69985361  0.70007781  1
  Zn  Zn0  1  0.99902316  0.99902316  0.49944707  1
  Zn  Zn1  1  0.00028344  0.50028344  0.00056789  1
  Zn  Zn2  1  0.50028344  0.00028344  0.00056789  1
  Zn  Zn3  1  0.50042391  0.50042391  0.49944707  1
  Pd  Pd0  1  0.66669509  0.99999633  0.33286727  1
  Pd  Pd1  1  0.99999633  0.66669509  0.33286727  1
  Pd  Pd2  1  0.66834449  0.33201369  0.00035917  1
  Pd  Pd3  1  0.33287093  0.66617418  0.33286727  1
  Pd  Pd4  1  0.99951052  0.33286273  0.66774393  1
  Pd  Pd5  1  0.33201369  0.66834449  0.00035917  1
  Pd  Pd6  1  0.33286273  0.99951052  0.66774393  1
  Pd  Pd7  1  0.66617418  0.33287093  0.33286727  1
  Pd  Pd8  1  0.66799654  0.66799654  0.33599207  1
  Pd  Pd9  1  0.66823341  0.33487921  0.66774393  1
  Pd  Pd10  1  0.33487921  0.66823341  0.66774393  1
  Pt  Pt0  1  0.33056095  0.33056095  0.66112390  1
  Pt  Pt1  1  0.99960550  0.99960550  0.99921100  1
loop_
_geom_bond_atom_site_label_1
_geom_bond_atom_site_label_2
_geom_bond_distance
_geom_bond_site_symmetry_2
Y0 Zn3 3.372809 1_555
Y0 Zn0 3.383991 1_556
Y0 Zn2 3.387016 1_566
Y0 Zn1 3.387016 1_656
Y1 Zn3 3.370693 1_555
Y1 Zn0 3.370700 1_445
Y1 Zn2 3.388532 1_555
Y1 Zn1 3.388546 1_545
Y2 Zn3 3.370693 1_555
Y2 Zn0 3.370700 1_445
Y2 Zn1 3.388532 1_555
Y2 Zn2 3.388546 1_455
Y3 Zn0 3.372810 1_445
Y3 Zn3 3.383993 1_556
Y3 Zn2 3.387019 1_556
Y3 Zn1 3.387019 1_556
Y4 Zn3 3.378744 1_545
Y4 Zn0 3.378744 1_545
Y4 Zn1 3.379461 1_656
Y4 Zn2 3.379468 1_556
Y5 Zn3 3.378744 1_455
Y5 Zn0 3.378744 1_455
Y5 Zn2 3.379461 1_566
Y5 Zn1 3.379468 1_556
Pd0 Zn2 2.608234 1_565
Pd0 Zn0 2.615327 1_555
Pd0 Pd5 2.726954 1_555
Pd0 Pd4 2.731597 1_565
Pd0 Pd7 2.732435 1_565
Pd0 Pd8 2.736004 1_555
Pd0 Y4 2.927469 1_565
Pd0 Y1 2.940673 1_565
Pd0 Pd3 3.158037 1_555
Pd0 Pd9 3.163311 1_565
Pd0 Y2 3.166854 1_665
Pd0 Y0 3.174963 1_554
Pd1 Zn1 2.608234 1_655
Pd1 Zn0 2.615327 1_555
Pd1 Pd2 2.726954 1_555
Pd1 Pd6 2.731597 1_655
Pd1 Pd3 2.732436 1_655
Pd1 Pd8 2.736004 1_555
Pd1 Y5 2.927469 1_655
Pd1 Y2 2.940673 1_655
Pd1 Pd7 3.158037 1_555
Pd1 Pd10 3.163311 1_655
Pd1 Y1 3.166854 1_665
Pd1 Y0 3.174963 1_554
Pd2 Zn2 2.607147 1_555
Pd2 Zn1 2.607147 1_655
Pd2 Pd7 2.726943 1_555
Pd2 Pd6 2.731771 1_544
Pd2 Pd9 2.731771 1_554
Pd2 Y3 2.934081 1_554
Pd2 Y0 2.934093 1_554
Pd2 Y4 3.156245 1_554
Pd2 Y2 3.173387 1_655
Pd2 Pd8 3.181040 1_555
Pd2 Pt0 3.198077 1_554
Pd3 Zn1 2.608234 1_555
Pd3 Zn3 2.615341 1_555
Pd3 Pd5 2.726943 1_555
Pd3 Pd8 2.736015 1_555
Pd3 Y4 2.927465 1_565
Pd3 Y1 2.940662 1_565
Pd3 Pd6 3.163311 1_555
Pd3 Y2 3.166855 1_555
Pd3 Y3 3.174973 1_554
Pd4 Zn1 2.608886 1_656
Pd4 Zn0 2.622299 1_545
Pd4 Pd9 2.723484 1_555
Pd4 Pd5 2.731771 1_656
Pd4 Pt0 2.740786 1_655
Pd4 Y2 2.926172 1_655
Pd4 Y5 2.931184 1_655
Pd4 Y3 3.157166 1_655
Pd4 Y4 3.158937 1_555
Pd4 Pd7 3.163311 1_555
Pd5 Zn2 2.607147 1_565
Pd5 Zn1 2.607147 1_555
Pd5 Y3 2.934081 1_554
Pd5 Y0 2.934093 1_554
Pd5 Y5 3.156245 1_554
Pd5 Y1 3.173387 1_565
Pd5 Pd8 3.181040 1_555
Pd5 Pt0 3.198077 1_554
Pd6 Zn2 2.608886 1_566
Pd6 Zn0 2.622299 1_455
Pd6 Pt0 2.740786 1_565
Pd6 Y1 2.926172 1_565
Pd6 Y4 2.931184 1_565
Pd6 Y3 3.157166 1_565
Pd6 Y5 3.158937 1_555
Pd6 Pd9 3.172667 1_565
Pd7 Zn2 2.608234 1_555
Pd7 Zn3 2.615341 1_555
Pd7 Pd9 2.731608 1_555
Pd7 Pd8 2.736015 1_555
Pd7 Y5 2.927465 1_655
Pd7 Y2 2.940662 1_655
Pd7 Y1 3.166855 1_555
Pd7 Y3 3.174973 1_554
Pd8 Zn0 2.599333 1_555
Pd8 Zn3 2.599341 1_555
Pd8 Y3 2.935754 1_554
Pd8 Y0 2.935754 1_554
Pd8 Y5 3.159139 1_655
Pd8 Y4 3.159139 1_565
Pd9 Zn1 2.608880 1_656
Pd9 Zn3 2.622313 1_555
Pd9 Pt0 2.740802 1_555
Pd9 Y1 2.926163 1_555
Pd9 Y4 2.931168 1_555
Pd9 Y0 3.157177 1_555
Pd9 Y5 3.158947 1_655
Pd10 Zn2 2.608880 1_566
Pd10 Zn3 2.622314 1_555
Pd10 Pd6 2.723484 1_555
Pd10 Pd3 2.731608 1_555
Pd10 Pd5 2.731771 1_556
Pd10 Pt0 2.740802 1_555
Pd10 Y2 2.926163 1_555
Pd10 Y5 2.931168 1_555
Pd10 Y0 3.157177 1_555
Pd10 Y4 3.158947 1_565
Pd10 Pd4 3.172667 1_455
Pt0 Zn0 2.606404 1_445
Pt0 Zn3 2.606422 1_555
Pt0 Y3 2.934713 1_555
Pt0 Y0 2.934731 1_555
Pt0 Y2 3.124686 1_555
Pt0 Y1 3.124686 1_555
Pt1 Y4 2.838030 1_565
Pt1 Y5 2.838031 1_655
Pt1 Y1 2.842404 1_666
Pt1 Y2 2.842404 1_666
Pt1 Y0 2.852457 1_555
Pt1 Y3 2.852466 1_665
