# generated using pymatgen
data_Y(SiRh)2
_symmetry_space_group_name_H-M   'P 1'
_cell_length_a   4.04126240
_cell_length_b   4.04126208
_cell_length_c   5.74089016
_cell_angle_alpha   110.60797231
_cell_angle_beta   110.60797170
_cell_angle_gamma   89.99999186
_symmetry_Int_Tables_number   1
_chemical_formula_structural   Y(SiRh)2
_chemical_formula_sum   'Y1 Si2 Rh2'
_cell_volume   81.31845082
_cell_formula_units_Z   1
loop_
 _symmetry_equiv_pos_site_id
 _symmetry_equiv_pos_as_xyz
  1  'x, y, z'
loop_
 _atom_site_type_symbol
 _atom_site_label
 _atom_site_symmetry_multiplicity
 _atom_site_fract_x
 _atom_site_fract_y
 _atom_site_fract_z
 _atom_site_occupancy
  Y  Y0  1  0.00000000  0.00000000  0.00000000  1
  Si  Si0  1  0.62237412  0.62237412  0.24474925  1
  Si  Si1  1  0.37762588  0.37762588  0.75525075  1
  Rh  Rh0  1  0.75000000  0.25000000  0.50000000  1
  Rh  Rh1  1  0.25000000  0.75000000  0.50000000  1
loop_
_geom_bond_atom_site_label_1
_geom_bond_atom_site_label_2
_geom_bond_distance
_geom_bond_site_symmetry_2
Si0 Si1 2.437285 1_554
Si0 Y0 3.106602 1_555
Si0 Y0 3.106604 1_655
Si0 Y0 3.106604 1_565
Si0 Y0 3.106607 1_665
Si1 Y0 3.106602 1_666
Si1 Y0 3.106604 1_566
Si1 Y0 3.106604 1_656
Si1 Y0 3.106607 1_556
Rh0 Si0 2.387092 1_555
Rh0 Si1 2.387092 1_555
Rh0 Si0 2.387095 1_545
Rh0 Si1 2.387095 1_655
Rh0 Y0 3.206388 1_666
Rh0 Y0 3.206389 1_555
Rh0 Y0 3.206389 1_656
Rh0 Y0 3.206389 1_655
Rh1 Si1 2.387092 1_555
Rh1 Si0 2.387092 1_555
Rh1 Si1 2.387095 1_565
Rh1 Si0 2.387095 1_455
Rh1 Y0 3.206388 1_555
Rh1 Y0 3.206389 1_666
Rh1 Y0 3.206389 1_565
Rh1 Y0 3.206389 1_566
