# generated using pymatgen
data_K2Si3PtO9
_symmetry_space_group_name_H-M   'P 1'
_cell_length_a   7.57933421
_cell_length_b   7.57933467
_cell_length_c   7.57933393
_cell_angle_alpha   82.47013853
_cell_angle_beta   82.47013595
_cell_angle_gamma   82.47013709
_symmetry_Int_Tables_number   1
_chemical_formula_structural   K2Si3PtO9
_chemical_formula_sum   'K4 Si6 Pt2 O18'
_cell_volume   425.04602219
_cell_formula_units_Z   2
loop_
 _symmetry_equiv_pos_site_id
 _symmetry_equiv_pos_as_xyz
  1  'x, y, z'
loop_
 _atom_site_type_symbol
 _atom_site_label
 _atom_site_symmetry_multiplicity
 _atom_site_fract_x
 _atom_site_fract_y
 _atom_site_fract_z
 _atom_site_occupancy
  K  K0  1  0.22094690  0.77828541  0.98906295  1
  K  K1  1  0.77828541  0.98906295  0.22094690  1
  K  K2  1  0.98906295  0.22094690  0.77828541  1
  K  K3  1  0.49894885  0.49894885  0.49894885  1
  Si  Si0  1  0.89247866  0.51190765  0.09787004  1
  Si  Si1  1  0.09787004  0.89247866  0.51190765  1
  Si  Si2  1  0.51190765  0.09787004  0.89247866  1
  Si  Si3  1  0.01885306  0.54312656  0.44211733  1
  Si  Si4  1  0.44211733  0.01885306  0.54312656  1
  Si  Si5  1  0.54312656  0.44211733  0.01885306  1
  Pt  Pt0  1  0.22343182  0.22343182  0.22343182  1
  Pt  Pt1  1  0.73889228  0.73889228  0.73889228  1
  O  O0  1  0.31370194  0.10320865  0.00213729  1
  O  O1  1  0.48669255  0.15397192  0.67960217  1
  O  O2  1  0.67960217  0.48669255  0.15397192  1
  O  O3  1  0.24402721  0.95723059  0.62408703  1
  O  O4  1  0.95723059  0.62408703  0.24402721  1
  O  O5  1  0.58682572  0.84225540  0.54117429  1
  O  O6  1  0.62995656  0.90587062  0.92057752  1
  O  O7  1  0.90587062  0.92057752  0.62995656  1
  O  O8  1  0.54117429  0.58682572  0.84225540  1
  O  O9  1  0.62408703  0.24402721  0.95723059  1
  O  O10  1  0.92057752  0.62995656  0.90587062  1
  O  O11  1  0.84225540  0.54117429  0.58682572  1
  O  O12  1  0.15397192  0.67960217  0.48669255  1
  O  O13  1  0.44436556  0.12223568  0.34246980  1
  O  O14  1  0.34246980  0.44436556  0.12223568  1
  O  O15  1  0.10320865  0.00213729  0.31370194  1
  O  O16  1  0.12223568  0.34246980  0.44436556  1
  O  O17  1  0.00213729  0.31370194  0.10320865  1
loop_
_geom_bond_atom_site_label_1
_geom_bond_atom_site_label_2
_geom_bond_distance
_geom_bond_site_symmetry_2
K0 O0 2.665509 1_566
K0 O14 2.689936 1_556
K0 O8 2.833209 1_555
K0 O10 2.842040 1_455
K0 O4 2.846660 1_456
K0 O3 2.911088 1_555
K0 O15 3.138644 1_566
K1 O15 2.665508 1_665
K1 O13 2.689936 1_565
K1 O5 2.833209 1_555
K1 O6 2.842040 1_554
K1 O9 2.846660 1_564
K1 O4 2.911088 1_555
K1 O17 3.138645 1_665
K2 O17 2.665508 1_656
K2 O16 2.689936 1_655
K2 O11 2.833209 1_555
K2 O7 2.842040 1_545
K2 O3 2.846660 1_645
K2 O9 2.911088 1_555
K2 O0 3.138644 1_656
K3 O2 2.795010 1_555
K3 O12 2.795010 1_555
K3 O1 2.795010 1_555
K3 O8 2.836366 1_555
K3 O11 2.836366 1_555
K3 O5 2.836366 1_555
O0 Si2 1.617059 1_554
O0 Pt0 2.011974 1_555
O1 Si4 1.640983 1_555
O1 Si2 1.643259 1_555
O2 Si5 1.640983 1_555
O2 Si0 1.643259 1_555
O3 Si1 1.640014 1_555
O3 Si4 1.648050 1_565
O4 Si0 1.640014 1_555
O4 Si3 1.648050 1_655
O5 Si4 1.615834 1_565
O5 Pt1 2.023907 1_555
O6 Si2 1.609677 1_565
O6 Pt1 2.016086 1_555
O7 Si1 1.609677 1_655
O7 Pt1 2.016086 1_555
O8 Si5 1.615834 1_556
O8 Pt1 2.023907 1_555
O9 Si2 1.640014 1_555
O9 Si5 1.648050 1_556
O10 Si0 1.609677 1_556
O10 Pt1 2.016086 1_555
O11 Si3 1.615834 1_655
O11 Pt1 2.023907 1_555
O12 Si3 1.640983 1_555
O12 Si1 1.643259 1_555
O13 Si4 1.616052 1_555
O13 Pt0 2.020975 1_555
O14 Si5 1.616052 1_555
O14 Pt0 2.020975 1_555
O15 Si1 1.617059 1_545
O15 Pt0 2.011974 1_555
O16 Si3 1.616052 1_555
O16 Pt0 2.020975 1_555
O17 Si0 1.617059 1_455
O17 Pt0 2.011974 1_555
