# generated using pymatgen
data_Ca3BSbO3
_symmetry_space_group_name_H-M   'P 1'
_cell_length_a   5.14194551
_cell_length_b   5.14194501
_cell_length_c   12.79529578
_cell_angle_alpha   90.00000000
_cell_angle_beta   90.00000000
_cell_angle_gamma   119.99999693
_symmetry_Int_Tables_number   1
_chemical_formula_structural   Ca3BSbO3
_chemical_formula_sum   'Ca6 B2 Sb2 O6'
_cell_volume   292.97858182
_cell_formula_units_Z   2
loop_
 _symmetry_equiv_pos_site_id
 _symmetry_equiv_pos_as_xyz
  1  'x, y, z'
loop_
 _atom_site_type_symbol
 _atom_site_label
 _atom_site_symmetry_multiplicity
 _atom_site_fract_x
 _atom_site_fract_y
 _atom_site_fract_z
 _atom_site_occupancy
  Ca  Ca0  1  0.33333300  0.66666700  0.38674818  1
  Ca  Ca1  1  0.00000000  0.00000000  0.25000000  1
  Ca  Ca2  1  0.00000000  0.00000000  0.75000000  1
  Ca  Ca3  1  0.66666700  0.33333300  0.88674818  1
  Ca  Ca4  1  0.66666700  0.33333300  0.61325182  1
  Ca  Ca5  1  0.33333300  0.66666700  0.11325182  1
  B  B0  1  0.33333300  0.66666700  0.75000000  1
  B  B1  1  0.66666700  0.33333300  0.25000000  1
  Sb  Sb0  1  0.00000000  0.00000000  0.00000000  1
  Sb  Sb1  1  0.00000000  0.00000000  0.50000000  1
  O  O0  1  0.51217387  0.48782613  0.25000000  1
  O  O1  1  0.97565426  0.48782613  0.25000000  1
  O  O2  1  0.48782613  0.97565426  0.75000000  1
  O  O3  1  0.51217387  0.02434574  0.25000000  1
  O  O4  1  0.02434574  0.51217387  0.75000000  1
  O  O5  1  0.48782613  0.51217387  0.75000000  1
loop_
_geom_bond_atom_site_label_1
_geom_bond_atom_site_label_2
_geom_bond_distance
_geom_bond_site_symmetry_2
Ca0 O3 2.366107 1_565
Ca0 O1 2.366107 1_455
Ca0 O0 2.366116 1_555
Ca0 Sb1 3.303490 1_565
Ca0 Sb1 3.303494 1_555
Ca0 Sb1 3.303494 1_665
Ca1 O1 2.573252 1_455
Ca1 O3 2.573252 1_455
Ca1 O0 2.573258 1_445
Ca1 O0 2.573258 1_555
Ca1 O1 2.573262 1_445
Ca1 O3 2.573263 1_555
Ca1 Sb0 3.198824 1_555
Ca1 Sb1 3.198824 1_555
Ca2 O4 2.573252 1_545
Ca2 O2 2.573252 1_545
Ca2 O5 2.573258 1_555
Ca2 O5 2.573258 1_445
Ca2 O4 2.573262 1_555
Ca2 O2 2.573263 1_445
Ca2 Sb0 3.198824 1_556
Ca2 Sb1 3.198824 1_555
Ca3 O2 2.366107 1_545
Ca3 O4 2.366107 1_655
Ca3 O5 2.366116 1_555
Ca3 Sb0 3.303490 1_656
Ca3 Sb0 3.303494 1_666
Ca3 Sb0 3.303494 1_556
Ca4 O2 2.366107 1_545
Ca4 O4 2.366107 1_655
Ca4 O5 2.366116 1_555
Ca4 Sb1 3.303490 1_655
Ca4 Sb1 3.303494 1_665
Ca4 Sb1 3.303494 1_555
Ca5 O3 2.366107 1_565
Ca5 O1 2.366107 1_455
Ca5 O0 2.366116 1_555
Ca5 Sb0 3.303490 1_565
Ca5 Sb0 3.303494 1_555
Ca5 Sb0 3.303494 1_665
B0 O5 1.375933 1_555
B0 O2 1.375937 1_555
B0 O4 1.375937 1_555
B1 O0 1.375933 1_555
B1 O3 1.375937 1_555
B1 O1 1.375937 1_555
