# generated using pymatgen
data_Sc5InSb2
_symmetry_space_group_name_H-M   'P 1'
_cell_length_a   8.41542039
_cell_length_b   8.41542140
_cell_length_c   6.05162352
_cell_angle_alpha   90.00000000
_cell_angle_beta   90.00000000
_cell_angle_gamma   119.64691499
_symmetry_Int_Tables_number   1
_chemical_formula_structural   Sc5InSb2
_chemical_formula_sum   'Sc10 In2 Sb4'
_cell_volume   372.46754194
_cell_formula_units_Z   2
loop_
 _symmetry_equiv_pos_site_id
 _symmetry_equiv_pos_as_xyz
  1  'x, y, z'
loop_
 _atom_site_type_symbol
 _atom_site_label
 _atom_site_symmetry_multiplicity
 _atom_site_fract_x
 _atom_site_fract_y
 _atom_site_fract_z
 _atom_site_occupancy
  Sc  Sc0  1  0.66721294  0.33208843  0.99974239  1
  Sc  Sc1  1  0.33208843  0.66721394  0.99974239  1
  Sc  Sc2  1  0.76512614  0.00621755  0.25000000  1
  Sc  Sc3  1  0.23891817  0.23891717  0.25000000  1
  Sc  Sc4  1  0.00621755  0.76512714  0.25000000  1
  Sc  Sc5  1  0.66721294  0.33208843  0.50025861  1
  Sc  Sc6  1  0.33208843  0.66721394  0.50025861  1
  Sc  Sc7  1  0.23667303  0.99650541  0.75000000  1
  Sc  Sc8  1  0.99650541  0.23667303  0.75000000  1
  Sc  Sc9  1  0.75671873  0.75671873  0.75000000  1
  In  In0  1  0.39496692  0.00100700  0.25000000  1
  In  In1  1  0.00100700  0.39496592  0.25000000  1
  Sb  Sb0  1  0.61310669  0.61310669  0.25000000  1
  Sb  Sb1  1  0.60630782  0.99857865  0.75000000  1
  Sb  Sb2  1  0.38727316  0.38727316  0.75000000  1
  Sb  Sb3  1  0.99857865  0.60630782  0.75000000  1
loop_
_geom_bond_atom_site_label_1
_geom_bond_atom_site_label_2
_geom_bond_distance
_geom_bond_site_symmetry_2
In0 Sc4 2.866779 1_545
In0 Sc3 2.886883 1_555
In0 Sc0 2.998391 1_554
In0 Sc5 2.998394 1_555
In0 Sc1 2.998941 1_544
In0 Sc6 2.998944 1_545
In0 Sc2 3.093590 1_555
In0 Sc7 3.298721 1_544
In0 Sc7 3.298721 1_545
In1 Sc2 2.866773 1_455
In1 Sc3 2.886890 1_555
In1 Sc1 2.998396 1_554
In1 Sc6 2.998399 1_555
In1 Sc0 2.998950 1_454
In1 Sc5 2.998953 1_455
In1 Sc4 3.093607 1_555
In1 Sc8 3.298718 1_454
In1 Sc8 3.298718 1_455
Sb0 Sc4 2.897209 1_655
Sb0 Sc2 2.897211 1_565
Sb0 Sc0 3.026367 1_554
Sb0 Sc5 3.026370 1_555
Sb0 Sc1 3.026372 1_554
Sb0 Sc6 3.026375 1_555
Sb0 Sc3 3.165749 1_555
Sb0 Sc9 3.260638 1_554
Sb0 Sc9 3.260638 1_555
Sb1 Sc8 2.878918 1_565
Sb1 Sc9 2.879858 1_555
Sb1 Sc5 3.000144 1_565
Sb1 Sc0 3.000147 1_565
Sb1 Sc6 3.003221 1_555
Sb1 Sc1 3.003224 1_555
Sb1 Sc7 3.102039 1_555
Sb1 Sc2 3.295598 1_566
Sb1 Sc2 3.295598 1_565
Sb2 Sc8 2.880477 1_455
Sb2 Sc7 2.880477 1_545
Sb2 Sc5 3.021922 1_555
Sb2 Sc0 3.021925 1_555
Sb2 Sc6 3.021929 1_555
Sb2 Sc1 3.021932 1_555
Sb2 Sc9 3.125618 1_555
Sb2 Sc3 3.275804 1_556
Sb2 Sc3 3.275804 1_555
Sb3 Sc7 2.878918 1_655
Sb3 Sc9 2.879858 1_555
Sb3 Sc6 3.000141 1_655
Sb3 Sc1 3.000144 1_655
Sb3 Sc5 3.003226 1_555
Sb3 Sc0 3.003229 1_555
Sb3 Sc8 3.102039 1_555
Sb3 Sc4 3.295601 1_656
Sb3 Sc4 3.295601 1_655
