# generated using pymatgen
data_HoZn3
_symmetry_space_group_name_H-M   'P 1'
_cell_length_a   4.31014171
_cell_length_b   6.60292788
_cell_length_c   9.97370709
_cell_angle_alpha   90.00000000
_cell_angle_beta   90.00000000
_cell_angle_gamma   90.00000000
_symmetry_Int_Tables_number   1
_chemical_formula_structural   HoZn3
_chemical_formula_sum   'Ho4 Zn12'
_cell_volume   283.84726412
_cell_formula_units_Z   4
loop_
 _symmetry_equiv_pos_site_id
 _symmetry_equiv_pos_as_xyz
  1  'x, y, z'
loop_
 _atom_site_type_symbol
 _atom_site_label
 _atom_site_symmetry_multiplicity
 _atom_site_fract_x
 _atom_site_fract_y
 _atom_site_fract_z
 _atom_site_occupancy
  Ho  Ho0  1  0.25000000  0.77826518  0.16113519  1
  Ho  Ho1  1  0.75000000  0.22173482  0.83886481  1
  Ho  Ho2  1  0.25000000  0.27826518  0.33886481  1
  Ho  Ho3  1  0.75000000  0.72173482  0.66113519  1
  Zn  Zn0  1  0.25000000  0.03751331  0.60612909  1
  Zn  Zn1  1  0.75000000  0.96248669  0.39387091  1
  Zn  Zn2  1  0.25000000  0.53751331  0.89387091  1
  Zn  Zn3  1  0.75000000  0.46248669  0.10612909  1
  Zn  Zn4  1  0.75000000  0.77781137  0.95573623  1
  Zn  Zn5  1  0.25000000  0.22218863  0.04426377  1
  Zn  Zn6  1  0.75000000  0.27781137  0.54426377  1
  Zn  Zn7  1  0.25000000  0.72218863  0.45573623  1
  Zn  Zn8  1  0.75000000  0.08094805  0.14526165  1
  Zn  Zn9  1  0.25000000  0.91905195  0.85473835  1
  Zn  Zn10  1  0.75000000  0.58094805  0.35473835  1
  Zn  Zn11  1  0.25000000  0.41905195  0.64526165  1
loop_
_geom_bond_atom_site_label_1
_geom_bond_atom_site_label_2
_geom_bond_distance
_geom_bond_site_symmetry_2
Ho0 Zn8 2.943428 1_465
Ho0 Zn8 2.943428 1_565
Ho0 Zn7 2.961503 1_555
Ho0 Zn4 2.973391 1_554
Ho0 Zn4 2.973391 1_454
Ho0 Zn3 3.048409 1_455
Ho0 Zn3 3.048409 1_555
Ho0 Zn2 3.103635 1_554
Ho0 Zn5 3.154460 1_565
Ho0 Zn10 3.173379 1_455
Ho0 Zn10 3.173379 1_555
Ho0 Zn9 3.194177 1_554
Ho0 Zn1 3.392950 1_555
Ho0 Zn1 3.392950 1_455
Ho1 Zn9 2.943428 1_645
Ho1 Zn9 2.943428 1_545
Ho1 Zn6 2.961503 1_555
Ho1 Zn5 2.973391 1_656
Ho1 Zn5 2.973391 1_556
Ho1 Zn2 3.048409 1_555
Ho1 Zn2 3.048409 1_655
Ho1 Zn3 3.103635 1_556
Ho1 Zn4 3.154460 1_545
Ho1 Zn11 3.173379 1_555
Ho1 Zn11 3.173379 1_655
Ho1 Zn8 3.194177 1_556
Ho1 Zn0 3.392950 1_555
Ho1 Zn0 3.392950 1_655
Ho2 Zn10 2.943428 1_455
Ho2 Zn10 2.943428 1_555
Ho2 Zn5 2.961503 1_555
Ho2 Zn6 2.973391 1_555
Ho2 Zn6 2.973391 1_455
Ho2 Zn1 3.048409 1_445
Ho2 Zn1 3.048409 1_545
Ho2 Zn0 3.103635 1_555
Ho2 Zn7 3.154460 1_555
Ho2 Zn8 3.173379 1_455
Ho2 Zn8 3.173379 1_555
Ho2 Zn11 3.194177 1_555
Ho2 Zn3 3.392950 1_555
Ho2 Zn3 3.392950 1_455
Ho3 Zn11 2.943428 1_655
Ho3 Zn11 2.943428 1_555
Ho3 Zn4 2.961503 1_555
Ho3 Zn7 2.973391 1_655
Ho3 Zn7 2.973391 1_555
Ho3 Zn0 3.048409 1_565
Ho3 Zn0 3.048409 1_665
Ho3 Zn1 3.103635 1_555
Ho3 Zn6 3.154460 1_555
Ho3 Zn9 3.173379 1_655
Ho3 Zn9 3.173379 1_555
Ho3 Zn10 3.194177 1_555
Ho3 Zn2 3.392950 1_555
Ho3 Zn2 3.392950 1_655
Zn0 Zn11 2.549326 1_555
Zn0 Zn7 2.566110 1_545
Zn0 Zn9 2.600004 1_545
Zn0 Zn6 2.746375 1_555
Zn0 Zn6 2.746375 1_455
Zn0 Zn1 3.061281 1_445
Zn0 Zn1 3.061281 1_545
Zn1 Zn10 2.549326 1_555
Zn1 Zn6 2.566110 1_565
Zn1 Zn8 2.600004 1_565
Zn1 Zn7 2.746375 1_555
Zn1 Zn7 2.746375 1_655
Zn2 Zn9 2.549326 1_555
Zn2 Zn5 2.566110 1_556
Zn2 Zn4 2.746375 1_455
Zn2 Zn4 2.746375 1_555
Zn2 Zn3 3.061281 1_556
Zn2 Zn3 3.061281 1_456
Zn3 Zn8 2.549326 1_555
Zn3 Zn4 2.566110 1_554
Zn3 Zn5 2.746375 1_655
Zn3 Zn5 2.746375 1_555
Zn4 Zn9 2.555147 1_655
Zn4 Zn9 2.555147 1_555
Zn4 Zn8 2.753087 1_566
Zn5 Zn8 2.555147 1_555
Zn5 Zn8 2.555147 1_455
Zn5 Zn9 2.753087 1_544
Zn10 Zn7 2.555147 1_555
Zn10 Zn7 2.555147 1_655
Zn10 Zn3 2.600004 1_555
Zn10 Zn6 2.753087 1_555
Zn11 Zn6 2.555147 1_555
Zn11 Zn6 2.555147 1_455
Zn11 Zn2 2.600004 1_555
Zn11 Zn7 2.753087 1_555
