# generated using pymatgen
data_LiTi5(TcAs)6
_symmetry_space_group_name_H-M   'P 1'
_cell_length_a   7.50057945
_cell_length_b   7.55525820
_cell_length_c   7.50058043
_cell_angle_alpha   126.92900419
_cell_angle_beta   124.79617563
_cell_angle_gamma   79.94515130
_symmetry_Int_Tables_number   1
_chemical_formula_structural   LiTi5(TcAs)6
_chemical_formula_sum   'Li1 Ti5 Tc6 As6'
_cell_volume   269.69636131
_cell_formula_units_Z   1
loop_
 _symmetry_equiv_pos_site_id
 _symmetry_equiv_pos_as_xyz
  1  'x, y, z'
loop_
 _atom_site_type_symbol
 _atom_site_label
 _atom_site_symmetry_multiplicity
 _atom_site_fract_x
 _atom_site_fract_y
 _atom_site_fract_z
 _atom_site_occupancy
  Li  Li0  1  0.46272719  0.24617467  0.28344648  1
  Ti  Ti0  1  0.54123639  0.82595280  0.78471641  1
  Ti  Ti1  1  0.75223134  0.65622823  0.40399590  1
  Ti  Ti2  1  0.24932497  0.65141254  0.90208756  1
  Ti  Ti3  1  0.05442106  0.84785578  0.29343472  1
  Ti  Ti4  1  0.94443484  0.24476015  0.80032430  1
  Tc  Tc0  1  0.65634864  0.50457918  0.90868064  1
  Tc  Tc1  1  0.33585279  0.24793455  0.83554715  1
  Tc  Tc2  1  0.91238839  0.24793455  0.41208176  1
  Tc  Tc3  1  0.09589854  0.50457918  0.34823153  1
  Tc  Tc4  1  0.98584117  0.98959955  0.97964927  1
  Tc  Tc5  1  0.50994928  0.98959955  0.50375739  1
  As  As0  1  0.83047325  0.57349166  0.74188555  1
  As  As1  1  0.16969892  0.91832285  0.75028487  1
  As  As2  1  0.66803798  0.91832285  0.24862493  1
  As  As3  1  0.33160611  0.57349166  0.24301840  1
  As  As4  1  0.27535917  0.26426984  0.48891167  1
  As  As5  1  0.72416797  0.23588643  0.01171946  1
loop_
_geom_bond_atom_site_label_1
_geom_bond_atom_site_label_2
_geom_bond_distance
_geom_bond_site_symmetry_2
Li0 Tc1 2.931298 1_554
Li0 Tc2 2.931309 1_555
Li0 Tc4 3.091163 1_444
Li0 Tc5 3.091164 1_545
Tc0 Ti1 2.784893 1_556
Tc0 Ti4 2.790903 1_555
Tc0 Ti3 2.800963 1_656
Tc0 Ti2 3.043752 1_555
Tc1 Ti3 2.790846 1_545
Tc1 Ti2 2.795277 1_555
Tc1 Ti4 2.796674 1_455
Tc2 Ti3 2.790843 1_645
Tc2 Ti2 2.795274 1_655
Tc2 Ti4 2.796675 1_555
Tc3 Ti1 2.784893 1_455
Tc3 Ti4 2.790913 1_454
Tc3 Ti3 2.800968 1_555
Tc3 Ti2 3.043745 1_555
Tc4 Ti1 2.809840 1_555
Tc4 Ti4 2.837612 1_565
Tc4 Ti3 2.899203 1_656
Tc4 Ti0 2.913735 1_555
Tc4 Ti2 2.921541 1_655
Tc5 Ti1 2.809840 1_555
Tc5 Ti4 2.837612 1_565
Tc5 Ti3 2.899198 1_555
Tc5 Ti0 2.913739 1_555
Tc5 Ti2 2.921537 1_554
As0 Tc0 2.535142 1_555
As0 Tc2 2.538159 1_555
As0 Tc4 2.567519 1_555
As0 Li0 2.624166 1_555
As0 Ti0 2.657459 1_555
As0 Ti2 2.673494 1_655
As0 Ti3 2.685673 1_656
As0 Ti4 2.688968 1_555
As0 Ti1 2.690029 1_555
As1 Tc1 2.534573 1_565
As1 Tc4 2.546872 1_455
As1 Tc3 2.558006 1_555
As1 Li0 2.631518 1_566
As1 Ti0 2.652502 1_555
As1 Ti1 2.678529 1_455
As1 Ti4 2.689746 1_465
As1 Ti2 2.698542 1_555
As1 Ti3 2.712917 1_555
As2 Tc2 2.534581 1_565
As2 Tc5 2.546865 1_555
As2 Tc0 2.558010 1_554
As2 Li0 2.631523 1_565
As2 Ti0 2.652510 1_554
As2 Ti1 2.678520 1_555
As2 Ti4 2.689738 1_565
As2 Ti2 2.698541 1_554
As2 Ti3 2.712920 1_655
As3 Tc3 2.535148 1_555
As3 Tc1 2.538154 1_554
As3 Tc5 2.567518 1_555
As3 Li0 2.624161 1_555
As3 Ti0 2.657459 1_555
As3 Ti2 2.673495 1_554
As3 Ti3 2.685673 1_555
As3 Ti4 2.688972 1_454
As3 Ti1 2.690024 1_555
As4 Tc2 2.449600 1_455
As4 Tc1 2.449604 1_555
As4 Tc0 2.459545 1_555
As4 Tc3 2.459547 1_555
As4 Tc5 2.488768 1_545
As4 Tc4 2.488778 1_444
As4 Li0 2.553506 1_555
As4 Ti2 2.792209 1_555
As4 Ti3 2.880694 1_545
As5 Tc2 2.428355 1_555
As5 Tc1 2.428361 1_554
As5 Tc3 2.460309 1_655
As5 Tc0 2.460315 1_554
As5 Tc4 2.469457 1_544
As5 Tc5 2.469466 1_544
As5 Ti0 2.618168 1_544
As5 Ti1 2.661819 1_555
As5 Ti4 2.899019 1_554
