# generated using pymatgen
data_Sc22Tc5Sn2Os
_symmetry_space_group_name_H-M   'P 1'
_cell_length_a   9.52543299
_cell_length_b   9.74191875
_cell_length_c   9.74191840
_cell_angle_alpha   58.53517457
_cell_angle_beta   60.73241407
_cell_angle_gamma   60.73241814
_symmetry_Int_Tables_number   1
_chemical_formula_structural   Sc22Tc5Sn2Os
_chemical_formula_sum   'Sc22 Tc5 Sn2 Os1'
_cell_volume   638.61467125
_cell_formula_units_Z   1
loop_
 _symmetry_equiv_pos_site_id
 _symmetry_equiv_pos_as_xyz
  1  'x, y, z'
loop_
 _atom_site_type_symbol
 _atom_site_label
 _atom_site_symmetry_multiplicity
 _atom_site_fract_x
 _atom_site_fract_y
 _atom_site_fract_z
 _atom_site_occupancy
  Sc  Sc0  1  0.86277462  0.83278698  0.83278698  1
  Sc  Sc1  1  0.52834758  0.16721302  0.16721302  1
  Sc  Sc2  1  0.16721302  0.13722538  0.52834758  1
  Sc  Sc3  1  0.16721302  0.52834758  0.13722538  1
  Sc  Sc4  1  0.83278698  0.86277462  0.47165242  1
  Sc  Sc5  1  0.83278698  0.47165242  0.86277462  1
  Sc  Sc6  1  0.47165242  0.83278698  0.83278698  1
  Sc  Sc7  1  0.13722538  0.16721302  0.16721302  1
  Sc  Sc8  1  0.19392719  0.80607281  0.19392719  1
  Sc  Sc9  1  0.19616521  0.80383479  0.80383479  1
  Sc  Sc10  1  0.80383479  0.19616521  0.19616521  1
  Sc  Sc11  1  0.80607281  0.80607281  0.19392719  1
  Sc  Sc12  1  0.19392719  0.19392719  0.80607281  1
  Sc  Sc13  1  0.80607281  0.19392719  0.80607281  1
  Sc  Sc14  1  0.39585422  0.37953085  0.37953085  1
  Sc  Sc15  1  0.15491692  0.62046915  0.62046915  1
  Sc  Sc16  1  0.62046915  0.15491692  0.60414578  1
  Sc  Sc17  1  0.62046915  0.60414578  0.15491692  1
  Sc  Sc18  1  0.37953085  0.84508308  0.39585422  1
  Sc  Sc19  1  0.37953085  0.39585422  0.84508308  1
  Sc  Sc20  1  0.84508308  0.37953085  0.37953085  1
  Sc  Sc21  1  0.60414578  0.62046915  0.62046915  1
  Tc  Tc0  1  0.50000000  0.50000000  0.00000000  1
  Tc  Tc1  1  0.00000000  0.00000000  0.50000000  1
  Tc  Tc2  1  0.50000000  0.00000000  0.50000000  1
  Tc  Tc3  1  0.00000000  0.50000000  0.00000000  1
  Tc  Tc4  1  0.00000000  0.00000000  0.00000000  1
  Sn  Sn0  1  0.00000000  0.50000000  0.50000000  1
  Sn  Sn1  1  0.50000000  0.00000000  0.00000000  1
  Os  Os0  1  0.50000000  0.50000000  0.50000000  1
loop_
_geom_bond_atom_site_label_1
_geom_bond_atom_site_label_2
_geom_bond_distance
_geom_bond_site_symmetry_2
Sc0 Tc1 2.701450 1_665
Sc0 Tc3 2.701450 1_656
Sc0 Sn1 3.001738 1_566
Sc1 Tc2 2.701452 1_555
Sc1 Tc0 2.701452 1_555
Sc1 Sn1 3.001732 1_555
Sc2 Tc1 2.701444 1_555
Sc2 Tc2 2.701452 1_555
Sc2 Sn0 3.001741 1_555
Sc3 Tc3 2.701444 1_555
Sc3 Tc0 2.701452 1_555
Sc3 Sn0 3.001740 1_555
Sc4 Tc1 2.701444 1_665
Sc4 Tc2 2.701452 1_565
Sc4 Sn0 3.001741 1_655
Sc5 Tc3 2.701444 1_656
Sc5 Tc0 2.701452 1_556
Sc5 Sn0 3.001740 1_655
Sc6 Tc2 2.701452 1_565
Sc6 Tc0 2.701452 1_556
Sc6 Sn1 3.001732 1_566
Sc7 Tc1 2.701450 1_555
Sc7 Tc3 2.701450 1_555
Sc7 Sn1 3.001738 1_555
Sc8 Tc4 2.612393 1_565
Sc8 Sn1 3.451420 1_565
Sc8 Sn0 3.451420 1_555
Sc9 Tc4 2.761349 1_566
Sc10 Tc4 2.761349 1_655
Sc11 Tc4 2.612393 1_665
Sc11 Sn1 3.451420 1_565
Sc11 Sn0 3.451420 1_655
Sc12 Tc4 2.612393 1_556
Sc12 Sn1 3.451420 1_556
Sc12 Sn0 3.451420 1_555
Sc13 Tc4 2.612393 1_656
Sc13 Sn1 3.451420 1_556
Sc13 Sn0 3.451420 1_655
Sc14 Tc0 3.008983 1_555
Sc14 Tc2 3.008984 1_555
Sc14 Sn0 3.123576 1_555
Sc15 Tc3 3.008984 1_556
Sc15 Tc1 3.008984 1_565
Sc15 Sn0 3.123584 1_555
Sc16 Tc1 3.008984 1_655
Sc16 Tc2 3.008992 1_555
Sc16 Sn1 3.123576 1_556
Sc17 Tc3 3.008984 1_655
Sc17 Tc0 3.008992 1_555
Sc17 Sn1 3.123576 1_565
Sc18 Tc1 3.008984 1_565
Sc18 Tc2 3.008992 1_565
Sc18 Sn1 3.123576 1_565
Sc19 Tc3 3.008984 1_556
Sc19 Tc0 3.008992 1_556
Sc19 Sn1 3.123576 1_556
Sc20 Tc3 3.008984 1_655
Sc20 Tc1 3.008984 1_655
Sc20 Sn0 3.123584 1_655
Sc21 Tc0 3.008983 1_556
Sc21 Tc2 3.008984 1_565
Sc21 Sn0 3.123576 1_655
Os0 Sc19 2.730091 1_555
Os0 Sc17 2.730091 1_555
Os0 Sc18 2.730091 1_555
Os0 Sc16 2.730091 1_555
Os0 Sc20 2.730091 1_555
Os0 Sc15 2.730091 1_555
Os0 Sc21 2.730099 1_555
Os0 Sc14 2.730099 1_555
