# generated using pymatgen
data_Ta3Al2IrC
_symmetry_space_group_name_H-M   'P 1'
_cell_length_a   8.27127065
_cell_length_b   8.27127065
_cell_length_c   8.27130528
_cell_angle_alpha   60.00022408
_cell_angle_beta   60.00022409
_cell_angle_gamma   60.00021471
_symmetry_Int_Tables_number   1
_chemical_formula_structural   Ta3Al2IrC
_chemical_formula_sum   'Ta12 Al8 Ir4 C4'
_cell_volume   400.13421819
_cell_formula_units_Z   4
loop_
 _symmetry_equiv_pos_site_id
 _symmetry_equiv_pos_as_xyz
  1  'x, y, z'
loop_
 _atom_site_type_symbol
 _atom_site_label
 _atom_site_symmetry_multiplicity
 _atom_site_fract_x
 _atom_site_fract_y
 _atom_site_fract_z
 _atom_site_occupancy
  Ta  Ta0  1  0.56336624  0.93662792  0.56336686  1
  Ta  Ta1  1  0.31337208  0.68663376  0.68663314  1
  Ta  Ta2  1  0.68663610  0.31335545  0.31337060  1
  Ta  Ta3  1  0.31335545  0.68663610  0.31337060  1
  Ta  Ta4  1  0.68663531  0.68663531  0.31337533  1
  Ta  Ta5  1  0.31336708  0.31336708  0.68663429  1
  Ta  Ta6  1  0.56336469  0.56336469  0.93662467  1
  Ta  Ta7  1  0.93662792  0.56336624  0.56336686  1
  Ta  Ta8  1  0.56336390  0.93664455  0.93662940  1
  Ta  Ta9  1  0.93663292  0.93663292  0.56336571  1
  Ta  Ta10  1  0.68663376  0.31337208  0.68663314  1
  Ta  Ta11  1  0.93664455  0.56336390  0.93662940  1
  Al  Al0  1  0.91694144  0.91694144  0.91694091  1
  Al  Al1  1  0.00082440  0.33305880  0.33305943  1
  Al  Al2  1  0.33305880  0.00082440  0.33305943  1
  Al  Al3  1  0.33305840  0.33305840  0.00082601  1
  Al  Al4  1  0.91694120  0.24917560  0.91694057  1
  Al  Al5  1  0.91694160  0.91694160  0.24917399  1
  Al  Al6  1  0.24917560  0.91694120  0.91694057  1
  Al  Al7  1  0.33305856  0.33305856  0.33305909  1
  Ir  Ir0  1  0.12500000  0.12500000  0.12500000  1
  Ir  Ir1  1  0.62500000  0.12500000  0.12500000  1
  Ir  Ir2  1  0.12500000  0.62500000  0.12500000  1
  Ir  Ir3  1  0.12500000  0.12500000  0.62500000  1
  C  C0  1  0.62500000  0.62500000  0.62500000  1
  C  C1  1  0.12500000  0.62500000  0.62500000  1
  C  C2  1  0.62500000  0.12500000  0.62500000  1
  C  C3  1  0.62500000  0.62500000  0.12500000  1
loop_
_geom_bond_atom_site_label_1
_geom_bond_atom_site_label_2
_geom_bond_distance
_geom_bond_site_symmetry_2
Al0 Ir3 2.530708 1_665
Al0 Ir2 2.530712 1_656
Al0 Ir1 2.530712 1_566
Al1 Ir2 2.530702 1_555
Al1 Ir3 2.530705 1_555
Al1 Ir0 2.530713 1_555
Al2 Ir1 2.530702 1_555
Al2 Ir3 2.530705 1_555
Al2 Ir0 2.530713 1_555
Al3 Ir2 2.530699 1_555
Al3 Ir1 2.530699 1_555
Al3 Ir0 2.530700 1_555
Al4 Ir1 2.530702 1_556
Al4 Ir3 2.530705 1_655
Al4 Ir0 2.530713 1_656
Al5 Ir2 2.530699 1_655
Al5 Ir1 2.530699 1_565
Al5 Ir0 2.530700 1_665
Al6 Ir2 2.530702 1_556
Al6 Ir3 2.530705 1_565
Al6 Ir0 2.530713 1_566
Al7 Ir3 2.530708 1_555
Al7 Ir2 2.530712 1_555
Al7 Ir1 2.530712 1_555
Ir0 Ta11 3.021705 1_454
Ir0 Ta3 3.021705 1_545
Ir0 Ta8 3.021705 1_544
Ir0 Ta2 3.021705 1_455
Ir0 Ta5 3.021737 1_554
Ir0 Ta9 3.021737 1_445
Ir1 Ta2 3.021686 1_555
Ir1 Ta8 3.021686 1_544
Ir1 Ta4 3.021711 1_545
Ir1 Ta6 3.021711 1_554
Ir1 Ta0 3.021742 1_545
Ir1 Ta10 3.021742 1_554
Ir2 Ta3 3.021686 1_555
Ir2 Ta11 3.021686 1_454
Ir2 Ta4 3.021711 1_455
Ir2 Ta6 3.021711 1_554
Ir2 Ta7 3.021742 1_455
Ir2 Ta1 3.021742 1_554
Ir3 Ta7 3.021725 1_455
Ir3 Ta1 3.021725 1_545
Ir3 Ta0 3.021725 1_545
Ir3 Ta10 3.021725 1_455
Ir3 Ta5 3.021729 1_555
Ir3 Ta9 3.021729 1_445
C0 Ta4 2.189832 1_555
C0 Ta6 2.189832 1_555
C0 Ta0 2.189854 1_555
C0 Ta10 2.189854 1_555
C0 Ta7 2.189854 1_555
C0 Ta1 2.189854 1_555
C1 Ta11 2.189863 1_455
C1 Ta3 2.189863 1_555
C1 Ta9 2.189899 1_455
C1 Ta5 2.189899 1_555
C1 Ta1 2.189936 1_555
C1 Ta7 2.189936 1_455
C2 Ta8 2.189863 1_545
C2 Ta2 2.189863 1_555
C2 Ta9 2.189899 1_545
C2 Ta5 2.189899 1_555
C2 Ta10 2.189936 1_555
C2 Ta0 2.189936 1_545
C3 Ta2 2.189975 1_555
C3 Ta8 2.189975 1_554
C3 Ta3 2.189975 1_555
C3 Ta11 2.189975 1_554
C3 Ta6 2.189987 1_554
C3 Ta4 2.189987 1_555
