# generated using pymatgen
data_Na(HfTe2)4
_symmetry_space_group_name_H-M   'P 1'
_cell_length_a   8.71052669
_cell_length_b   8.71052772
_cell_length_c   10.41255078
_cell_angle_alpha   48.58471372
_cell_angle_beta   48.58470431
_cell_angle_gamma   54.83594972
_symmetry_Int_Tables_number   1
_chemical_formula_structural   Na(HfTe2)4
_chemical_formula_sum   'Na1 Hf4 Te8'
_cell_volume   430.66879692
_cell_formula_units_Z   1
loop_
 _symmetry_equiv_pos_site_id
 _symmetry_equiv_pos_as_xyz
  1  'x, y, z'
loop_
 _atom_site_type_symbol
 _atom_site_label
 _atom_site_symmetry_multiplicity
 _atom_site_fract_x
 _atom_site_fract_y
 _atom_site_fract_z
 _atom_site_occupancy
  Na  Na0  1  0.00000000  0.00000000  0.00000000  1
  Hf  Hf0  1  0.24895236  0.24895236  0.00398907  1
  Hf  Hf1  1  0.75104764  0.75104764  0.99601093  1
  Hf  Hf2  1  0.24450745  0.75549255  0.50000000  1
  Hf  Hf3  1  0.75549255  0.24450745  0.50000000  1
  Te  Te0  1  0.30736852  0.30736852  0.66524648  1
  Te  Te1  1  0.80221322  0.80221322  0.66747383  1
  Te  Te2  1  0.30519046  0.80142989  0.16865328  1
  Te  Te3  1  0.80142989  0.30519046  0.16865328  1
  Te  Te4  1  0.19857011  0.69480954  0.83134672  1
  Te  Te5  1  0.69480954  0.19857011  0.83134672  1
  Te  Te6  1  0.19778678  0.19778678  0.33252617  1
  Te  Te7  1  0.69263148  0.69263148  0.33475352  1
loop_
_geom_bond_atom_site_label_1
_geom_bond_atom_site_label_2
_geom_bond_distance
_geom_bond_site_symmetry_2
Na0 Te2 3.162925 1_545
Na0 Te5 3.162925 1_454
Na0 Te3 3.162926 1_455
Na0 Te4 3.162926 1_544
Na0 Te0 3.170014 1_554
Na0 Te7 3.170014 1_445
Hf0 Te6 2.880005 1_555
Hf0 Te5 2.889785 1_554
Hf0 Te4 2.889786 1_554
Hf0 Te3 2.905924 1_455
Hf0 Te2 2.905924 1_545
Hf0 Te0 2.916850 1_554
Hf1 Te1 2.880005 1_555
Hf1 Te2 2.889785 1_556
Hf1 Te3 2.889786 1_556
Hf1 Te4 2.905924 1_655
Hf1 Te5 2.905924 1_565
Hf1 Te7 2.916850 1_556
Hf2 Te1 2.879880 1_455
Hf2 Te6 2.879881 1_565
Hf2 Te2 2.889201 1_555
Hf2 Te4 2.889201 1_555
Hf2 Te7 2.897529 1_555
Hf2 Te0 2.897530 1_555
Hf3 Te6 2.879880 1_655
Hf3 Te1 2.879881 1_545
Hf3 Te5 2.889201 1_555
Hf3 Te3 2.889201 1_555
Hf3 Te0 2.897529 1_555
Hf3 Te7 2.897530 1_555
