# generated using pymatgen
data_Mn3Cu2NiS8
_symmetry_space_group_name_H-M   'P 1'
_cell_length_a   6.90461121
_cell_length_b   6.90461109
_cell_length_c   6.90461069
_cell_angle_alpha   59.94328799
_cell_angle_beta   59.94328401
_cell_angle_gamma   59.94327927
_symmetry_Int_Tables_number   1
_chemical_formula_structural   Mn3Cu2NiS8
_chemical_formula_sum   'Mn3 Cu2 Ni1 S8'
_cell_volume   232.45753677
_cell_formula_units_Z   1
loop_
 _symmetry_equiv_pos_site_id
 _symmetry_equiv_pos_as_xyz
  1  'x, y, z'
loop_
 _atom_site_type_symbol
 _atom_site_label
 _atom_site_symmetry_multiplicity
 _atom_site_fract_x
 _atom_site_fract_y
 _atom_site_fract_z
 _atom_site_occupancy
  Mn  Mn0  1  0.00000000  0.50000000  0.50000000  1
  Mn  Mn1  1  0.50000000  0.50000000  0.00000000  1
  Mn  Mn2  1  0.50000000  0.00000000  0.50000000  1
  Cu  Cu0  1  0.12098579  0.12098579  0.12098579  1
  Cu  Cu1  1  0.87901421  0.87901421  0.87901421  1
  Ni  Ni0  1  0.50000000  0.50000000  0.50000000  1
  S  S0  1  0.25576123  0.25576123  0.25576123  1
  S  S1  1  0.72209415  0.25892859  0.25892859  1
  S  S2  1  0.25892859  0.25892859  0.72209415  1
  S  S3  1  0.25892859  0.72209415  0.25892859  1
  S  S4  1  0.74423877  0.74423877  0.74423877  1
  S  S5  1  0.27790585  0.74107141  0.74107141  1
  S  S6  1  0.74107141  0.74107141  0.27790585  1
  S  S7  1  0.74107141  0.27790585  0.74107141  1
loop_
_geom_bond_atom_site_label_1
_geom_bond_atom_site_label_2
_geom_bond_distance
_geom_bond_site_symmetry_2
Mn0 S2 2.350924 1_555
Mn0 S6 2.350924 1_455
Mn0 S3 2.350924 1_555
Mn0 S7 2.350924 1_455
Mn0 S4 2.385101 1_455
Mn0 S0 2.385101 1_555
Mn1 S7 2.350924 1_554
Mn1 S3 2.350924 1_555
Mn1 S1 2.350924 1_555
Mn1 S5 2.350924 1_554
Mn1 S4 2.385101 1_554
Mn1 S0 2.385101 1_555
Mn2 S2 2.350924 1_555
Mn2 S6 2.350924 1_545
Mn2 S1 2.350924 1_555
Mn2 S5 2.350924 1_545
Mn2 S4 2.385101 1_545
Mn2 S0 2.385101 1_555
Cu0 S1 2.247922 1_455
Cu0 S2 2.247922 1_554
Cu0 S3 2.247922 1_545
Cu0 S0 2.280403 1_555
Cu1 S5 2.247922 1_655
Cu1 S6 2.247922 1_556
Cu1 S7 2.247922 1_565
Cu1 S4 2.280403 1_555
Ni0 S5 2.356760 1_555
Ni0 S1 2.356760 1_555
Ni0 S3 2.356760 1_555
Ni0 S7 2.356760 1_555
Ni0 S6 2.356760 1_555
Ni0 S2 2.356760 1_555
