# generated using pymatgen
data_K9(VAs3)2
_symmetry_space_group_name_H-M   'P 1'
_cell_length_a   9.00233877
_cell_length_b   9.24738897
_cell_length_c   12.74017004
_cell_angle_alpha   83.46405081
_cell_angle_beta   90.00000000
_cell_angle_gamma   90.00000000
_symmetry_Int_Tables_number   1
_chemical_formula_structural   K9(VAs3)2
_chemical_formula_sum   'K18 V4 As12'
_cell_volume   1053.70211075
_cell_formula_units_Z   2
loop_
 _symmetry_equiv_pos_site_id
 _symmetry_equiv_pos_as_xyz
  1  'x, y, z'
loop_
 _atom_site_type_symbol
 _atom_site_label
 _atom_site_symmetry_multiplicity
 _atom_site_fract_x
 _atom_site_fract_y
 _atom_site_fract_z
 _atom_site_occupancy
  K  K0  1  0.34960939  0.58316202  0.17206513  1
  K  K1  1  0.41175782  0.93493736  0.56810937  1
  K  K2  1  0.43888664  0.62579682  0.90071168  1
  K  K3  1  0.48099628  0.17512930  0.29601843  1
  K  K4  1  0.51900372  0.17512930  0.79601843  1
  K  K5  1  0.56111336  0.62579682  0.40071168  1
  K  K6  1  0.58824218  0.93493736  0.06810937  1
  K  K7  1  0.65039061  0.58316202  0.67206513  1
  K  K8  1  0.80767792  0.01507424  0.60183173  1
  K  K9  1  0.82965638  0.40320133  0.33775659  1
  K  K10  1  0.93937111  0.07479636  0.90111495  1
  K  K11  1  0.93516853  0.40361141  0.61410972  1
  K  K12  1  0.92963803  0.79970481  0.22083805  1
  K  K13  1  0.07036197  0.79970481  0.72083805  1
  K  K14  1  0.06483147  0.40361141  0.11410972  1
  K  K15  1  0.06062889  0.07479636  0.40111495  1
  K  K16  1  0.17034362  0.40320133  0.83775659  1
  K  K17  1  0.19232208  0.01507424  0.10183173  1
  V  V0  1  0.31698215  0.34463195  0.55028737  1
  V  V1  1  0.68301785  0.34463195  0.05028737  1
  V  V2  1  0.83526453  0.65531730  0.94753526  1
  V  V3  1  0.16473547  0.65531730  0.44753526  1
  As  As0  1  0.29795084  0.58235324  0.61398006  1
  As  As1  1  0.28758787  0.83734346  0.33150608  1
  As  As2  1  0.42753570  0.28362305  0.03201680  1
  As  As3  1  0.57246430  0.28362305  0.53201680  1
  As  As4  1  0.71241213  0.83734346  0.83150608  1
  As  As5  1  0.70204916  0.58235324  0.11398006  1
  As  As6  1  0.80974576  0.41628291  0.88344772  1
  As  As7  1  0.81848397  0.15933225  0.15604178  1
  As  As8  1  0.91601703  0.72390018  0.47973028  1
  As  As9  1  0.08398297  0.72390018  0.97973028  1
  As  As10  1  0.18151603  0.15933225  0.65604178  1
  As  As11  1  0.19025424  0.41628291  0.38344772  1
loop_
_geom_bond_atom_site_label_1
_geom_bond_atom_site_label_2
_geom_bond_distance
_geom_bond_site_symmetry_2
As0 V0 2.434427 1_555
As0 V3 2.462601 1_555
As0 K7 3.258141 1_555
As0 K13 3.273203 1_555
As0 K16 3.334210 1_555
As0 K1 3.404138 1_555
As1 V3 2.382276 1_555
As1 K15 3.197798 1_565
As1 K5 3.205450 1_555
As1 K17 3.302110 1_565
As1 K0 3.324126 1_555
As1 K1 3.430703 1_555
As1 K12 3.550287 1_455
As1 K3 3.559711 1_565
As2 V1 2.385808 1_555
As2 K17 3.307434 1_555
As2 K4 3.378066 1_554
As2 K2 3.408239 1_554
As2 K3 3.432583 1_555
As2 K16 3.476444 1_554
As2 K6 3.516235 1_545
As2 K0 3.531770 1_555
As2 K14 3.640145 1_555
As3 V0 2.385808 1_555
As3 K8 3.307434 1_555
As3 K3 3.378066 1_555
As3 K5 3.408239 1_555
As3 K4 3.432583 1_555
As3 K9 3.476444 1_555
As3 K1 3.516235 1_545
As3 K7 3.531770 1_555
As3 K11 3.640145 1_555
As4 V2 2.382276 1_555
As4 K10 3.197798 1_565
As4 K2 3.205450 1_555
As4 K8 3.302110 1_565
As4 K7 3.324126 1_555
As4 K6 3.430703 1_556
As4 K13 3.550287 1_655
As4 K4 3.559711 1_565
As5 V1 2.434427 1_555
As5 V2 2.462601 1_554
As5 K0 3.258141 1_555
As5 K12 3.273203 1_555
As5 K9 3.334210 1_555
As5 K6 3.404138 1_555
As6 V1 2.436793 1_556
As6 V2 2.452826 1_555
As6 K7 3.278087 1_555
As6 K16 3.302649 1_655
As6 K10 3.350023 1_555
As6 K4 3.691859 1_555
As7 V1 2.390217 1_555
As7 K14 3.167287 1_655
As7 K6 3.222774 1_545
As7 K9 3.412324 1_555
As7 K12 3.481019 1_545
As7 K3 3.534321 1_555
As7 K10 3.594678 1_554
As7 K17 3.713805 1_655
As7 K15 3.815218 1_655
As8 V3 2.375504 1_655
As8 K11 3.252511 1_555
As8 K12 3.295308 1_555
As8 K8 3.402166 1_565
As8 K5 3.500311 1_555
As8 K13 3.513955 1_655
As8 K15 3.533735 1_665
As8 K7 3.562341 1_555
As8 K9 3.727221 1_555
As9 V2 2.375504 1_455
As9 K14 3.252511 1_556
As9 K13 3.295308 1_555
As9 K17 3.402166 1_566
As9 K2 3.500311 1_555
As9 K12 3.513955 1_456
As9 K10 3.533735 1_465
As9 K0 3.562341 1_556
As9 K16 3.727221 1_555
As10 V0 2.390217 1_555
As10 K11 3.167287 1_455
As10 K1 3.222774 1_545
As10 K16 3.412324 1_555
As10 K13 3.481019 1_545
As10 K4 3.534321 1_555
As10 K15 3.594678 1_555
As10 K8 3.713805 1_455
As10 K10 3.815218 1_455
As11 V0 2.436793 1_555
As11 V3 2.452826 1_555
As11 K0 3.278087 1_555
As11 K9 3.302649 1_455
As11 K15 3.350023 1_555
As11 K3 3.691859 1_555
