# generated using pymatgen
data_CaLuRh2O7
_symmetry_space_group_name_H-M   'P 1'
_cell_length_a   7.11859400
_cell_length_b   7.11859448
_cell_length_c   7.11211507
_cell_angle_alpha   60.03010943
_cell_angle_beta   60.03010718
_cell_angle_gamma   59.89744696
_symmetry_Int_Tables_number   1
_chemical_formula_structural   CaLuRh2O7
_chemical_formula_sum   'Ca2 Lu2 Rh4 O14'
_cell_volume   254.76027700
_cell_formula_units_Z   2
loop_
 _symmetry_equiv_pos_site_id
 _symmetry_equiv_pos_as_xyz
  1  'x, y, z'
loop_
 _atom_site_type_symbol
 _atom_site_label
 _atom_site_symmetry_multiplicity
 _atom_site_fract_x
 _atom_site_fract_y
 _atom_site_fract_z
 _atom_site_occupancy
  Ca  Ca0  1  0.12500000  0.62500000  0.12500000  1
  Ca  Ca1  1  0.62500000  0.12500000  0.12500000  1
  Lu  Lu0  1  0.12500000  0.12500000  0.12500000  1
  Lu  Lu1  1  0.12500000  0.12500000  0.62500000  1
  Rh  Rh0  1  0.62500000  0.62500000  0.62500000  1
  Rh  Rh1  1  0.62500000  0.62500000  0.12500000  1
  Rh  Rh2  1  0.12500000  0.62500000  0.62500000  1
  Rh  Rh3  1  0.62500000  0.12500000  0.62500000  1
  O  O0  1  0.23874319  0.23874319  0.26125681  1
  O  O1  1  0.29253518  0.71763698  0.29539412  1
  O  O2  1  0.95677267  0.95677267  0.54322733  1
  O  O3  1  0.53236302  0.95746482  0.55556528  1
  O  O4  1  0.70264103  0.70264103  0.29735897  1
  O  O5  1  0.95746482  0.53236302  0.55556528  1
  O  O6  1  0.71763698  0.29253518  0.69443472  1
  O  O7  1  0.29322733  0.29322733  0.70677267  1
  O  O8  1  0.71763698  0.29253518  0.29539412  1
  O  O9  1  0.29253518  0.71763698  0.69443472  1
  O  O10  1  0.95746482  0.53236302  0.95460588  1
  O  O11  1  0.54735897  0.54735897  0.95264103  1
  O  O12  1  0.01125681  0.01125681  0.98874319  1
  O  O13  1  0.53236302  0.95746482  0.95460588  1
loop_
_geom_bond_atom_site_label_1
_geom_bond_atom_site_label_2
_geom_bond_distance
_geom_bond_site_symmetry_2
Ca0 O12 2.245795 1_564
Ca0 O0 2.245795 1_555
Ca0 O11 2.485069 1_554
Ca0 O4 2.485069 1_455
Ca0 O5 2.521325 1_455
Ca0 O9 2.521325 1_554
Ca0 O1 2.521331 1_555
Ca0 O10 2.521331 1_454
Ca1 O12 2.245795 1_654
Ca1 O0 2.245795 1_555
Ca1 O11 2.485070 1_554
Ca1 O4 2.485070 1_545
Ca1 O3 2.521325 1_545
Ca1 O6 2.521325 1_554
Ca1 O8 2.521331 1_555
Ca1 O13 2.521331 1_544
Lu0 O0 2.115611 1_555
Lu0 O12 2.115611 1_554
Lu0 O13 2.400814 1_544
Lu0 O8 2.400814 1_455
Lu0 O1 2.400814 1_545
Lu0 O10 2.400814 1_454
Lu0 O2 2.456960 1_445
Lu0 O7 2.456960 1_554
Lu1 O12 2.115612 1_555
Lu1 O0 2.115612 1_555
Lu1 O3 2.400813 1_545
Lu1 O6 2.400813 1_455
Lu1 O5 2.400813 1_455
Lu1 O9 2.400813 1_545
Lu1 O7 2.456960 1_555
Lu1 O2 2.456960 1_445
O1 Rh2 1.950311 1_555
O1 Rh1 1.967759 1_555
O2 Rh3 1.958749 1_565
O2 Rh2 1.958749 1_655
O3 Rh3 1.950316 1_565
O3 Rh0 1.967758 1_555
O4 Rh1 1.942635 1_555
O4 Rh0 1.942635 1_555
O5 Rh2 1.950316 1_655
O5 Rh0 1.967758 1_555
O6 Rh3 1.950316 1_555
O6 Rh0 1.967758 1_555
O7 Rh3 1.958749 1_555
O7 Rh2 1.958749 1_555
O8 Rh3 1.950311 1_555
O8 Rh1 1.967759 1_555
O9 Rh2 1.950316 1_555
O9 Rh0 1.967758 1_555
O10 Rh2 1.950311 1_655
O10 Rh1 1.967759 1_556
O11 Rh1 1.942635 1_556
O11 Rh0 1.942635 1_555
O13 Rh3 1.950311 1_565
O13 Rh1 1.967759 1_556
