# generated using pymatgen
data_Zr6Nb5Al11Os7
_symmetry_space_group_name_H-M   'P 1'
_cell_length_a   8.87369177
_cell_length_b   8.87369181
_cell_length_c   8.85501913
_cell_angle_alpha   59.93021682
_cell_angle_beta   59.93021685
_cell_angle_gamma   59.99999601
_symmetry_Int_Tables_number   1
_chemical_formula_structural   Zr6Nb5Al11Os7
_chemical_formula_sum   'Zr6 Nb5 Al11 Os7'
_cell_volume   492.52047015
_cell_formula_units_Z   1
loop_
 _symmetry_equiv_pos_site_id
 _symmetry_equiv_pos_as_xyz
  1  'x, y, z'
loop_
 _atom_site_type_symbol
 _atom_site_label
 _atom_site_symmetry_multiplicity
 _atom_site_fract_x
 _atom_site_fract_y
 _atom_site_fract_z
 _atom_site_occupancy
  Zr  Zr0  1  0.69930469  0.69930469  0.30504315  1
  Zr  Zr1  1  0.29634646  0.69930469  0.30504315  1
  Zr  Zr2  1  0.69930469  0.29634646  0.30504315  1
  Zr  Zr3  1  0.30840997  0.30840997  0.69754939  1
  Zr  Zr4  1  0.68563066  0.30840997  0.69754939  1
  Zr  Zr5  1  0.30840997  0.68563066  0.69754939  1
  Nb  Nb0  1  0.87937767  0.87937767  0.36186599  1
  Nb  Nb1  1  0.87483018  0.36561666  0.88472297  1
  Nb  Nb2  1  0.36561666  0.87483018  0.88472297  1
  Nb  Nb3  1  0.87483018  0.87483018  0.88472297  1
  Nb  Nb4  1  0.12507468  0.12507468  0.62477597  1
  Al  Al0  1  0.12161064  0.63703488  0.11974284  1
  Al  Al1  1  0.63703488  0.12161064  0.11974284  1
  Al  Al2  1  0.12161064  0.12161064  0.11974284  1
  Al  Al3  1  0.65798998  0.65798998  0.02603007  1
  Al  Al4  1  0.66143947  0.01741049  0.65971256  1
  Al  Al5  1  0.01741049  0.66143947  0.65971256  1
  Al  Al6  1  0.66143947  0.66143947  0.65971256  1
  Al  Al7  1  0.33397414  0.33397414  0.99807559  1
  Al  Al8  1  0.33797643  0.99376664  0.33028151  1
  Al  Al9  1  0.99376664  0.33797643  0.33028151  1
  Al  Al10  1  0.33797643  0.33797643  0.33028151  1
  Os  Os0  1  0.00343912  0.00343912  0.98968163  1
  Os  Os1  1  0.99878040  0.99878040  0.50427052  1
  Os  Os2  1  0.49816867  0.99878040  0.50427052  1
  Os  Os3  1  0.99878040  0.49816867  0.50427052  1
  Os  Os4  1  0.50200271  0.50200271  0.99853164  1
  Os  Os5  1  0.99746294  0.50200271  0.99853164  1
  Os  Os6  1  0.50200271  0.99746294  0.99853164  1
loop_
_geom_bond_atom_site_label_1
_geom_bond_atom_site_label_2
_geom_bond_distance
_geom_bond_site_symmetry_2
Zr0 Zr5 3.470379 1_555
Zr0 Zr4 3.470379 1_555
Zr0 Zr1 3.575727 1_555
Zr0 Zr2 3.575727 1_555
Zr1 Zr3 3.470379 1_555
Zr1 Zr5 3.470384 1_555
Zr1 Zr2 3.575727 1_555
Zr2 Zr3 3.470379 1_555
Zr2 Zr4 3.470384 1_555
Zr3 Zr4 3.347340 1_555
Zr3 Zr5 3.347340 1_555
Zr4 Zr5 3.347340 1_555
Nb0 Os0 2.688086 1_664
Nb0 Os2 2.763287 1_555
Nb0 Os3 2.763287 1_555
Nb0 Os1 2.763294 1_555
Nb0 Zr1 3.086190 1_655
Nb0 Zr2 3.086190 1_565
Nb0 Zr0 3.086191 1_555
Nb1 Os0 2.626201 1_655
Nb1 Os4 2.702354 1_555
Nb1 Os5 2.702355 1_555
Nb1 Os3 2.748155 1_555
Nb1 Zr2 3.084166 1_556
Nb1 Nb4 3.138010 1_655
Nb1 Zr3 3.210510 1_655
Nb1 Zr4 3.210510 1_555
Nb2 Os0 2.626201 1_565
Nb2 Os4 2.702354 1_555
Nb2 Os6 2.702355 1_555
Nb2 Os2 2.748155 1_555
Nb2 Zr1 3.084166 1_556
Nb2 Nb4 3.138010 1_565
Nb2 Zr3 3.210510 1_565
Nb2 Zr5 3.210510 1_555
Nb3 Os0 2.626194 1_665
Nb3 Os6 2.702354 1_555
Nb3 Os5 2.702354 1_555
Nb3 Os1 2.748155 1_555
Nb3 Zr0 3.084168 1_556
Nb3 Nb4 3.138010 1_665
Nb3 Zr5 3.210510 1_655
Nb3 Zr4 3.210510 1_565
Nb4 Os0 2.635516 1_555
Nb4 Os2 2.702466 1_545
Nb4 Os3 2.702466 1_455
Nb4 Os1 2.702466 1_445
Nb4 Zr4 3.233643 1_455
Nb4 Zr5 3.233643 1_545
Nb4 Zr3 3.233643 1_555
Al0 Os0 2.654367 1_564
Al0 Os5 2.755937 1_454
Al0 Os4 2.755944 1_554
Al0 Os3 2.778450 1_455
Al0 Al9 2.781780 1_455
Al0 Al10 2.781789 1_555
Al0 Al7 2.783011 1_554
Al0 Nb3 3.020678 1_454
Al0 Nb2 3.020684 1_554
Al0 Nb0 3.036659 1_455
Al0 Zr0 3.117180 1_455
Al0 Zr1 3.117180 1_555
Al0 Zr5 3.130400 1_554
Al1 Os0 2.654367 1_654
Al1 Os6 2.755937 1_544
Al1 Os4 2.755944 1_554
Al1 Os2 2.778450 1_545
Al1 Al8 2.781780 1_545
Al1 Al10 2.781789 1_555
Al1 Al7 2.783011 1_554
Al1 Nb3 3.020678 1_544
Al1 Nb1 3.020684 1_554
Al1 Nb0 3.036659 1_545
Al1 Zr0 3.117180 1_545
Al1 Zr2 3.117180 1_555
Al1 Zr4 3.130400 1_554
Al2 Os0 2.654367 1_554
Al2 Os6 2.755944 1_544
Al2 Os5 2.755944 1_454
Al2 Os1 2.778450 1_445
Al2 Al8 2.781794 1_545
Al2 Al9 2.781794 1_455
Al2 Al7 2.783004 1_554
Al2 Nb1 3.020678 1_454
Al2 Nb2 3.020678 1_544
Al2 Nb0 3.036659 1_445
Al2 Zr2 3.117180 1_455
Al2 Zr1 3.117180 1_545
Al2 Zr3 3.130401 1_554
Al3 Os5 2.546114 1_554
Al3 Os6 2.546114 1_554
Al3 Os4 2.546114 1_554
Al3 Nb2 2.801342 1_554
Al3 Nb1 2.801342 1_554
Al3 Nb3 2.801343 1_554
Al3 Zr0 2.884925 1_555
Al3 Zr1 2.884930 1_555
Al3 Zr2 2.884930 1_555
Al4 Os1 2.546933 1_545
Al4 Os2 2.546949 1_545
Al4 Os6 2.549319 1_545
Al4 Nb0 2.820209 1_545
Al4 Nb3 2.831102 1_545
Al4 Nb2 2.831116 1_545
Al4 Zr2 2.843778 1_555
Al4 Zr4 2.884386 1_555
Al4 Zr3 2.884396 1_555
Al5 Os1 2.546933 1_455
Al5 Os3 2.546949 1_455
Al5 Os5 2.549319 1_455
Al5 Nb0 2.820209 1_455
Al5 Nb3 2.831102 1_455
Al5 Nb1 2.831116 1_455
Al5 Zr1 2.843778 1_555
Al5 Zr5 2.884386 1_555
Al5 Zr3 2.884396 1_555
Al6 Os3 2.546937 1_555
Al6 Os2 2.546937 1_555
Al6 Os4 2.549323 1_555
Al6 Nb0 2.820194 1_555
Al6 Nb1 2.831106 1_555
Al6 Nb2 2.831106 1_555
Al6 Zr0 2.843788 1_555
Al6 Zr5 2.884404 1_555
Al6 Zr4 2.884404 1_555
Al7 Os5 2.584869 1_455
Al7 Os6 2.584869 1_545
Al7 Os4 2.584885 1_555
Al7 Zr3 2.906216 1_555
Al7 Zr4 2.906226 1_555
Al7 Zr5 2.906226 1_555
Al7 Al9 2.977689 1_456
Al7 Al8 2.977689 1_546
Al8 Os6 2.532936 1_554
Al8 Os2 2.592862 1_555
Al8 Os1 2.592869 1_455
Al8 Nb4 2.762937 1_565
Al8 Zr0 2.940598 1_555
Al8 Zr1 2.940609 1_555
Al8 Zr5 3.012142 1_555
Al8 Al9 3.054411 1_465
Al9 Os5 2.532936 1_554
Al9 Os3 2.592862 1_555
Al9 Os1 2.592869 1_545
Al9 Nb4 2.762937 1_655
Al9 Zr0 2.940598 1_555
Al9 Zr2 2.940609 1_555
Al9 Zr4 3.012142 1_555
Al10 Os4 2.532934 1_554
Al10 Os3 2.592867 1_455
Al10 Os2 2.592867 1_545
Al10 Nb4 2.762941 1_555
Al10 Zr2 2.940591 1_555
Al10 Zr1 2.940591 1_555
Al10 Al7 2.977702 1_554
Al10 Zr3 3.012138 1_555
Al10 Al9 3.054412 1_455
Al10 Al8 3.054412 1_545
Os1 Zr2 3.187405 1_565
Os1 Zr1 3.187405 1_655
Os1 Zr5 3.242143 1_655
Os1 Zr4 3.242143 1_565
Os2 Zr2 3.187399 1_565
Os2 Zr0 3.187406 1_555
Os2 Zr3 3.242143 1_565
Os2 Zr5 3.242143 1_555
Os3 Zr1 3.187399 1_655
Os3 Zr0 3.187406 1_555
Os3 Zr3 3.242143 1_655
Os3 Zr4 3.242143 1_555
Os4 Zr5 3.185359 1_555
Os4 Zr4 3.185359 1_555
Os4 Zr2 3.219571 1_556
Os4 Zr1 3.219571 1_556
Os5 Zr3 3.185359 1_655
Os5 Zr5 3.185359 1_655
Os5 Zr0 3.219572 1_556
Os5 Zr2 3.219577 1_556
Os6 Zr3 3.185359 1_565
Os6 Zr4 3.185359 1_565
Os6 Zr0 3.219572 1_556
Os6 Zr1 3.219577 1_556
