# generated using pymatgen
data_LiAg2P11
_symmetry_space_group_name_H-M   'P 1'
_cell_length_a   7.51687951
_cell_length_b   7.51687959
_cell_length_c   6.62255730
_cell_angle_alpha   66.09249237
_cell_angle_beta   66.09249181
_cell_angle_gamma   60.11949226
_symmetry_Int_Tables_number   1
_chemical_formula_structural   LiAg2P11
_chemical_formula_sum   'Li1 Ag2 P11'
_cell_volume   286.68843071
_cell_formula_units_Z   1
loop_
 _symmetry_equiv_pos_site_id
 _symmetry_equiv_pos_as_xyz
  1  'x, y, z'
loop_
 _atom_site_type_symbol
 _atom_site_label
 _atom_site_symmetry_multiplicity
 _atom_site_fract_x
 _atom_site_fract_y
 _atom_site_fract_z
 _atom_site_occupancy
  Li  Li0  1  0.28980370  0.28980370  0.97575898  1
  Ag  Ag0  1  0.59125761  0.59125761  0.19457686  1
  Ag  Ag1  1  0.00083920  0.00083920  0.99619158  1
  P  P0  1  0.81173042  0.81173042  0.95363268  1
  P  P1  1  0.49299257  0.49299257  0.94320349  1
  P  P2  1  0.08197655  0.08197655  0.27639697  1
  P  P3  1  0.26361992  0.77468357  0.46974143  1
  P  P4  1  0.77468357  0.26361992  0.46974143  1
  P  P5  1  0.61068669  0.91034937  0.50036060  1
  P  P6  1  0.91034937  0.61068669  0.50036060  1
  P  P7  1  0.60990979  0.05816146  0.72642367  1
  P  P8  1  0.05816146  0.60990979  0.72642367  1
  P  P9  1  0.35128737  0.80870379  0.73339453  1
  P  P10  1  0.80870379  0.35128737  0.73339453  1
loop_
_geom_bond_atom_site_label_1
_geom_bond_atom_site_label_2
_geom_bond_distance
_geom_bond_site_symmetry_2
Li0 P2 2.496943 1_556
Li0 P7 2.546307 1_555
Li0 P8 2.546307 1_555
Li0 P1 2.550021 1_555
Ag0 P3 2.510522 1_555
Ag0 P4 2.510522 1_555
Ag0 P1 2.529720 1_554
Ag0 P0 2.547364 1_554
Ag1 P2 2.528396 1_556
Ag1 P9 2.566078 1_545
Ag1 P10 2.566078 1_455
Ag1 P0 2.604546 1_445
P0 P8 2.188142 1_655
P0 P7 2.188142 1_565
P1 P10 2.169190 1_555
P1 P9 2.169190 1_555
P2 P4 2.171787 1_455
P2 P3 2.171787 1_545
P3 P8 2.209179 1_555
P3 P9 2.238482 1_555
P4 P7 2.209179 1_555
P5 P7 2.193306 1_565
P5 P9 2.203900 1_555
P5 P6 2.256595 1_555
P6 P8 2.193306 1_655
P10 P6 2.203900 1_555
P10 P4 2.238482 1_555
