# generated using pymatgen
data_Ca13Sc(PbN4)2
_symmetry_space_group_name_H-M   'P 1'
_cell_length_a   3.58279574
_cell_length_b   11.88337891
_cell_length_c   11.40894717
_cell_angle_alpha   90.83314219
_cell_angle_beta   89.99841153
_cell_angle_gamma   89.98905369
_symmetry_Int_Tables_number   1
_chemical_formula_structural   Ca13Sc(PbN4)2
_chemical_formula_sum   'Ca13 Sc1 Pb2 N8'
_cell_volume   485.69277154
_cell_formula_units_Z   1
loop_
 _symmetry_equiv_pos_site_id
 _symmetry_equiv_pos_as_xyz
  1  'x, y, z'
loop_
 _atom_site_type_symbol
 _atom_site_label
 _atom_site_symmetry_multiplicity
 _atom_site_fract_x
 _atom_site_fract_y
 _atom_site_fract_z
 _atom_site_occupancy
  Ca  Ca0  1  0.49984242  0.33172498  0.75817675  1
  Ca  Ca1  1  0.49995197  0.16660104  0.25746580  1
  Ca  Ca2  1  0.49987649  0.82938313  0.73803390  1
  Ca  Ca3  1  0.49984342  0.49775679  0.99570576  1
  Ca  Ca4  1  0.49995086  0.99724056  0.49672343  1
  Ca  Ca5  1  0.00023750  0.92123980  0.25371897  1
  Ca  Ca6  1  0.99969180  0.07046643  0.73525722  1
  Ca  Ca7  1  0.00035748  0.43094795  0.24443645  1
  Ca  Ca8  1  0.99978817  0.57477484  0.76320164  1
  Ca  Ca9  1  0.00031729  0.75695263  0.47667645  1
  Ca  Ca10  1  0.99963117  0.23314217  0.51749113  1
  Ca  Ca11  1  0.00017636  0.26553476  0.02092237  1
  Ca  Ca12  1  0.99983767  0.74194190  0.98556617  1
  Sc  Sc0  1  0.50048632  0.66984670  0.24764622  1
  Pb  Pb0  1  0.50006178  0.50343853  0.49751472  1
  Pb  Pb1  1  0.49974656  0.00320914  0.99653159  1
  N  N0  1  0.00050396  0.62560291  0.15946567  1
  N  N1  1  0.99985722  0.40247163  0.87223542  1
  N  N2  1  0.99991585  0.09440390  0.36452027  1
  N  N3  1  0.99988059  0.89318168  0.62553378  1
  N  N4  1  0.50033748  0.81635611  0.34451752  1
  N  N5  1  0.49963548  0.16609982  0.63868546  1
  N  N6  1  0.50030964  0.33916770  0.14307703  1
  N  N7  1  0.49976151  0.66851491  0.86689529  1
loop_
_geom_bond_atom_site_label_1
_geom_bond_atom_site_label_2
_geom_bond_distance
_geom_bond_site_symmetry_2
Ca0 N1 2.361470 1_455
Ca0 N1 2.361849 1_555
Ca0 N5 2.377863 1_555
Ca0 Pb0 3.631009 1_555
Ca1 N2 2.338052 1_555
Ca1 N2 2.338450 1_455
Ca1 N6 2.446685 1_555
Ca1 Pb1 3.530487 1_554
Ca2 N3 2.336479 1_455
Ca2 N3 2.336669 1_555
Ca2 N7 2.428493 1_555
Ca2 Pb1 3.575949 1_565
Ca3 N7 2.522698 1_555
Ca3 N1 2.535439 1_555
Ca3 N1 2.535730 1_455
Ca3 N6 2.543759 1_556
Ca3 N0 2.985903 1_556
Ca3 N0 2.989151 1_656
Ca4 N5 2.560318 1_565
Ca4 N2 2.620629 1_465
Ca4 N2 2.620701 1_565
Ca4 N3 2.636125 1_555
Ca4 N3 2.636733 1_455
Ca4 N4 2.743601 1_555
Ca5 N2 2.399334 1_465
Ca5 N4 2.423363 1_455
Ca5 N4 2.423583 1_555
Ca5 Pb1 3.583974 1_564
Ca5 Pb1 3.585627 1_464
Ca6 N5 2.398104 1_655
Ca6 N5 2.398127 1_555
Ca6 N3 2.434901 1_545
Ca6 Pb1 3.578029 1_555
Ca6 Pb1 3.578155 1_655
Ca7 N6 2.386998 1_555
Ca7 N6 2.387617 1_455
Ca7 N0 2.521052 1_555
Ca7 Pb0 3.494675 1_555
Ca7 Pb0 3.495510 1_455
Ca8 N7 2.410539 1_555
Ca8 N7 2.410762 1_655
Ca8 N1 2.411213 1_555
Ca8 Pb0 3.610899 1_555
Ca8 Pb0 3.611628 1_655
Ca9 N3 2.329163 1_455
Ca9 N4 2.451780 1_455
Ca9 N4 2.452022 1_555
Ca9 Pb0 3.515242 1_555
Ca9 Pb0 3.516754 1_455
Ca10 N2 2.383342 1_555
Ca10 N5 2.405694 1_655
Ca10 N5 2.405840 1_555
Ca10 Pb0 3.686706 1_555
Ca10 Pb0 3.688795 1_655
Ca11 N1 2.367686 1_454
Ca11 N6 2.424688 1_455
Ca11 N6 2.425697 1_555
Ca11 Pb1 3.601568 1_554
Ca11 Pb1 3.603699 1_454
Ca12 N7 2.401557 1_655
Ca12 N7 2.402269 1_555
Ca12 N0 2.434620 1_656
Ca12 Pb1 3.584953 1_565
Ca12 Pb1 3.585223 1_665
Pb0 Sc0 3.493009 1_555
N0 Sc0 2.117086 1_455
N0 Sc0 2.117196 1_555
N4 Sc0 2.048581 1_555
