# generated using pymatgen
data_Ru
_symmetry_space_group_name_H-M   'P 1'
_cell_length_a   5.41565286
_cell_length_b   5.41565251
_cell_length_c   8.53620356
_cell_angle_alpha   90.00000000
_cell_angle_beta   90.00000000
_cell_angle_gamma   120.00000200
_symmetry_Int_Tables_number   1
_chemical_formula_structural   Ru
_chemical_formula_sum   Ru16
_cell_volume   216.81882936
_cell_formula_units_Z   16
loop_
 _symmetry_equiv_pos_site_id
 _symmetry_equiv_pos_as_xyz
  1  'x, y, z'
loop_
 _atom_site_type_symbol
 _atom_site_label
 _atom_site_symmetry_multiplicity
 _atom_site_fract_x
 _atom_site_fract_y
 _atom_site_fract_z
 _atom_site_occupancy
  Ru  Ru0_0  1  0.16666650  0.33333350  0.12500000  1
  Ru  Ru0_1  1  0.16666650  0.33333350  0.62500000  1
  Ru  Ru0_2  1  0.16666650  0.83333350  0.12500000  1
  Ru  Ru0_3  1  0.16666650  0.83333350  0.62500000  1
  Ru  Ru0_4  1  0.66666650  0.33333350  0.12500000  1
  Ru  Ru0_5  1  0.66666650  0.33333350  0.62500000  1
  Ru  Ru0_6  1  0.66666650  0.83333350  0.12500000  1
  Ru  Ru0_7  1  0.66666650  0.83333350  0.62500000  1
  Ru  Ru1_0  1  0.33333350  0.16666650  0.37500000  1
  Ru  Ru1_1  1  0.33333350  0.16666650  0.87500000  1
  Ru  Ru1_2  1  0.33333350  0.66666650  0.37500000  1
  Ru  Ru1_3  1  0.33333350  0.66666650  0.87500000  1
  Ru  Ru1_4  1  0.83333350  0.16666650  0.37500000  1
  Ru  Ru1_5  1  0.83333350  0.16666650  0.87500000  1
  Ru  Ru1_6  1  0.83333350  0.66666650  0.37500000  1
  Ru  Ru1_7  1  0.83333350  0.66666650  0.87500000  1
loop_
_geom_bond_atom_site_label_1
_geom_bond_atom_site_label_2
_geom_bond_distance
_geom_bond_site_symmetry_2
Ru0_0 Ru1_3 2.645425 1_554
Ru0_0 Ru1_2 2.645425 1_555
Ru0_0 Ru1_4 2.645426 1_455
Ru0_0 Ru1_5 2.645426 1_454
Ru0_0 Ru1_1 2.645428 1_554
Ru0_0 Ru1_0 2.645428 1_555
Ru0_0 Ru0_2 2.707826 1_545
Ru0_0 Ru0_2 2.707826 1_555
Ru0_0 Ru0_6 2.707826 1_445
Ru0_0 Ru0_6 2.707826 1_555
Ru0_0 Ru0_4 2.707826 1_455
Ru0_0 Ru0_4 2.707826 1_555
Ru0_1 Ru1_3 2.645425 1_555
Ru0_1 Ru1_2 2.645425 1_555
Ru0_1 Ru1_5 2.645426 1_455
Ru0_1 Ru1_4 2.645426 1_455
Ru0_1 Ru1_1 2.645428 1_555
Ru0_1 Ru1_0 2.645428 1_555
Ru0_1 Ru0_3 2.707826 1_555
Ru0_1 Ru0_3 2.707826 1_545
Ru0_1 Ru0_7 2.707826 1_445
Ru0_1 Ru0_7 2.707826 1_555
Ru0_1 Ru0_5 2.707826 1_455
Ru0_1 Ru0_5 2.707826 1_555
Ru0_2 Ru1_1 2.645425 1_564
Ru0_2 Ru1_0 2.645425 1_565
Ru0_2 Ru1_7 2.645426 1_454
Ru0_2 Ru1_6 2.645426 1_455
Ru0_2 Ru1_2 2.645428 1_555
Ru0_2 Ru1_3 2.645428 1_554
Ru0_2 Ru0_4 2.707826 1_565
Ru0_2 Ru0_4 2.707826 1_455
Ru0_2 Ru0_6 2.707826 1_455
Ru0_2 Ru0_6 2.707826 1_555
Ru0_3 Ru1_1 2.645425 1_565
Ru0_3 Ru1_0 2.645425 1_565
Ru0_3 Ru1_7 2.645426 1_455
Ru0_3 Ru1_6 2.645426 1_455
Ru0_3 Ru1_3 2.645428 1_555
Ru0_3 Ru1_2 2.645428 1_555
Ru0_3 Ru0_5 2.707826 1_565
Ru0_3 Ru0_5 2.707826 1_455
Ru0_3 Ru0_7 2.707826 1_555
Ru0_3 Ru0_7 2.707826 1_455
Ru0_4 Ru1_6 2.645425 1_555
Ru0_4 Ru1_7 2.645425 1_554
Ru0_4 Ru1_1 2.645426 1_554
Ru0_4 Ru1_0 2.645426 1_555
Ru0_4 Ru1_5 2.645428 1_554
Ru0_4 Ru1_4 2.645428 1_555
Ru0_4 Ru0_6 2.707826 1_545
Ru0_4 Ru0_6 2.707826 1_555
Ru0_5 Ru1_7 2.645425 1_555
Ru0_5 Ru1_6 2.645425 1_555
Ru0_5 Ru1_1 2.645426 1_555
Ru0_5 Ru1_0 2.645426 1_555
Ru0_5 Ru1_5 2.645428 1_555
Ru0_5 Ru1_4 2.645428 1_555
Ru0_5 Ru0_7 2.707826 1_545
Ru0_5 Ru0_7 2.707826 1_555
Ru0_6 Ru1_4 2.645425 1_565
Ru0_6 Ru1_5 2.645425 1_564
Ru0_6 Ru1_3 2.645426 1_554
Ru0_6 Ru1_2 2.645426 1_555
Ru0_6 Ru1_7 2.645428 1_554
Ru0_6 Ru1_6 2.645428 1_555
Ru0_7 Ru1_5 2.645425 1_565
Ru0_7 Ru1_4 2.645425 1_565
Ru0_7 Ru1_3 2.645426 1_555
Ru0_7 Ru1_2 2.645426 1_555
Ru0_7 Ru1_7 2.645428 1_555
Ru0_7 Ru1_6 2.645428 1_555
Ru1_0 Ru1_2 2.707826 1_545
Ru1_0 Ru1_2 2.707826 1_555
Ru1_0 Ru1_6 2.707826 1_555
Ru1_0 Ru1_6 2.707826 1_445
Ru1_0 Ru1_4 2.707826 1_455
Ru1_0 Ru1_4 2.707826 1_555
Ru1_1 Ru1_3 2.707826 1_555
Ru1_1 Ru1_3 2.707826 1_545
Ru1_1 Ru1_7 2.707826 1_555
Ru1_1 Ru1_7 2.707826 1_445
Ru1_1 Ru1_5 2.707826 1_555
Ru1_1 Ru1_5 2.707826 1_455
Ru1_2 Ru1_4 2.707826 1_455
Ru1_2 Ru1_4 2.707826 1_565
Ru1_2 Ru1_6 2.707826 1_455
Ru1_2 Ru1_6 2.707826 1_555
Ru1_3 Ru1_5 2.707826 1_455
Ru1_3 Ru1_5 2.707826 1_565
Ru1_3 Ru1_7 2.707826 1_455
Ru1_3 Ru1_7 2.707826 1_555
Ru1_4 Ru1_6 2.707826 1_555
Ru1_4 Ru1_6 2.707826 1_545
Ru1_5 Ru1_7 2.707826 1_555
Ru1_5 Ru1_7 2.707826 1_545
