# generated using pymatgen
data_Ba4ScAuO8
_symmetry_space_group_name_H-M   'P 1'
_cell_length_a   7.33511320
_cell_length_b   7.33511267
_cell_length_c   5.81750085
_cell_angle_alpha   90.00000000
_cell_angle_beta   90.00000000
_cell_angle_gamma   133.29110520
_symmetry_Int_Tables_number   1
_chemical_formula_structural   Ba4ScAuO8
_chemical_formula_sum   'Ba4 Sc1 Au1 O8'
_cell_volume   227.82919976
_cell_formula_units_Z   1
loop_
 _symmetry_equiv_pos_site_id
 _symmetry_equiv_pos_as_xyz
  1  'x, y, z'
loop_
 _atom_site_type_symbol
 _atom_site_label
 _atom_site_symmetry_multiplicity
 _atom_site_fract_x
 _atom_site_fract_y
 _atom_site_fract_z
 _atom_site_occupancy
  Ba  Ba0  1  0.35393009  0.64606991  0.00000000  1
  Ba  Ba1  1  0.85496341  0.14503659  0.50000000  1
  Ba  Ba2  1  0.14503659  0.85496341  0.50000000  1
  Ba  Ba3  1  0.64606991  0.35393009  0.00000000  1
  Sc  Sc0  1  0.00000000  0.00000000  0.00000000  1
  Au  Au0  1  0.50000000  0.50000000  0.50000000  1
  O  O0  1  0.25472685  0.25472685  0.74103803  1
  O  O1  1  0.74527315  0.74527315  0.25896197  1
  O  O2  1  0.74527315  0.74527315  0.74103803  1
  O  O3  1  0.25472685  0.25472685  0.25896197  1
  O  O4  1  0.15652229  0.84347771  0.00000000  1
  O  O5  1  0.65304836  0.34695164  0.50000000  1
  O  O6  1  0.34695164  0.65304836  0.50000000  1
  O  O7  1  0.84347771  0.15652229  0.00000000  1
loop_
_geom_bond_atom_site_label_1
_geom_bond_atom_site_label_2
_geom_bond_distance
_geom_bond_site_symmetry_2
Ba0 O4 2.658747 1_555
Ba0 O0 2.859109 1_554
Ba0 O3 2.859109 1_555
Ba0 O2 2.859109 1_554
Ba0 O1 2.859109 1_555
Ba0 O6 2.910268 1_555
Ba0 O6 2.910268 1_554
Ba0 O7 2.911177 1_565
Ba0 O7 2.911177 1_455
Ba1 O5 2.719452 1_555
Ba1 O1 2.824270 1_545
Ba1 O2 2.824270 1_545
Ba1 O3 2.824270 1_655
Ba1 O0 2.824270 1_655
Ba1 O6 2.909773 1_655
Ba1 O6 2.909773 1_545
Ba1 O7 2.912861 1_556
Ba1 O7 2.912861 1_555
Ba2 O6 2.719452 1_555
Ba2 O3 2.824270 1_565
Ba2 O0 2.824270 1_565
Ba2 O1 2.824270 1_455
Ba2 O2 2.824270 1_455
Ba2 O5 2.909773 1_455
Ba2 O5 2.909773 1_565
Ba2 O4 2.912861 1_556
Ba2 O4 2.912861 1_555
Ba3 O7 2.658747 1_555
Ba3 O2 2.859109 1_554
Ba3 O1 2.859109 1_555
Ba3 O0 2.859109 1_554
Ba3 O3 2.859109 1_555
Ba3 O5 2.910268 1_554
Ba3 O5 2.910268 1_555
Ba3 O4 2.911177 1_545
Ba3 O4 2.911177 1_655
Au0 O1 2.000220 1_555
Au0 O3 2.000220 1_555
Au0 O2 2.000220 1_555
Au0 O0 2.000220 1_555
Au0 O6 2.061301 1_555
Au0 O5 2.061301 1_555
O0 Sc0 2.112830 1_556
O1 Sc0 2.112830 1_665
O2 Sc0 2.112830 1_666
O3 Sc0 2.112830 1_555
O4 Sc0 2.108088 1_565
O7 Sc0 2.108088 1_655
