# generated using pymatgen
data_Ir(BrF)2
_symmetry_space_group_name_H-M   'P 1'
_cell_length_a   5.05908947
_cell_length_b   5.05909039
_cell_length_c   3.65012576
_cell_angle_alpha   90.00920714
_cell_angle_beta   90.00920244
_cell_angle_gamma   90.41597940
_symmetry_Int_Tables_number   1
_chemical_formula_structural   Ir(BrF)2
_chemical_formula_sum   'Ir1 Br2 F2'
_cell_volume   93.42028098
_cell_formula_units_Z   1
loop_
 _symmetry_equiv_pos_site_id
 _symmetry_equiv_pos_as_xyz
  1  'x, y, z'
loop_
 _atom_site_type_symbol
 _atom_site_label
 _atom_site_symmetry_multiplicity
 _atom_site_fract_x
 _atom_site_fract_y
 _atom_site_fract_z
 _atom_site_occupancy
  Ir  Ir0  1  0.00000000  0.00000000  0.00000000  1
  Br  Br0  1  0.23181620  0.23181620  0.50035328  1
  Br  Br1  1  0.76818380  0.76818380  0.49964672  1
  F  F0  1  0.72754184  0.27245816  0.00000000  1
  F  F1  1  0.27245816  0.72754184  1.00000000  1
loop_
_geom_bond_atom_site_label_1
_geom_bond_atom_site_label_2
_geom_bond_distance
_geom_bond_site_symmetry_2
Br0 Ir0 2.461376 1_556
Br0 Ir0 2.462729 1_555
Br1 Ir0 2.461376 1_665
Br1 Ir0 2.462729 1_666
F0 Ir0 1.956402 1_655
F1 Ir0 1.956402 1_566
