# generated using pymatgen
data_Y6MnSi24Ru7
_symmetry_space_group_name_H-M   'P 1'
_cell_length_a   10.06564497
_cell_length_b   10.06564609
_cell_length_c   8.08725644
_cell_angle_alpha   90.03244559
_cell_angle_beta   90.03244395
_cell_angle_gamma   132.64292502
_symmetry_Int_Tables_number   1
_chemical_formula_structural   Y6MnSi24Ru7
_chemical_formula_sum   'Y6 Mn1 Si24 Ru7'
_cell_volume   602.72572998
_cell_formula_units_Z   1
loop_
 _symmetry_equiv_pos_site_id
 _symmetry_equiv_pos_as_xyz
  1  'x, y, z'
loop_
 _atom_site_type_symbol
 _atom_site_label
 _atom_site_symmetry_multiplicity
 _atom_site_fract_x
 _atom_site_fract_y
 _atom_site_fract_z
 _atom_site_occupancy
  Y  Y0  1  0.49763598  0.99662322  0.24882892  1
  Y  Y1  1  0.00396871  0.50250984  0.75077385  1
  Y  Y2  1  0.50250984  0.00396871  0.75077385  1
  Y  Y3  1  0.99662322  0.49763598  0.24882892  1
  Y  Y4  1  0.50185106  0.50185106  0.50009054  1
  Y  Y5  1  0.99990614  0.99990614  0.99831687  1
  Mn  Mn0  1  0.62574388  0.62574388  0.87363475  1
  Si  Si0  1  0.38895091  0.15548328  0.00644912  1
  Si  Si1  1  0.65590890  0.88954738  0.49506000  1
  Si  Si2  1  0.11045778  0.34371922  0.50653031  1
  Si  Si3  1  0.84116563  0.61337355  0.98781809  1
  Si  Si4  1  0.61337355  0.84116563  0.98781809  1
  Si  Si5  1  0.34371922  0.11045778  0.50653031  1
  Si  Si6  1  0.88954738  0.65590890  0.49506000  1
  Si  Si7  1  0.15548328  0.38895091  0.00644912  1
  Si  Si8  1  0.61142830  0.37762133  0.22753950  1
  Si  Si9  1  0.87770167  0.11120266  0.27285854  1
  Si  Si10  1  0.88722791  0.12082852  0.72751229  1
  Si  Si11  1  0.62482802  0.39687120  0.77298165  1
  Si  Si12  1  0.39687120  0.62482802  0.77298165  1
  Si  Si13  1  0.12082852  0.88722791  0.72751229  1
  Si  Si14  1  0.70466966  0.29517277  0.99989105  1
  Si  Si15  1  0.79463980  0.20553666  0.50017195  1
  Si  Si16  1  0.29517277  0.70466966  0.99989105  1
  Si  Si17  1  0.20553666  0.79463980  0.50017195  1
  Si  Si18  1  0.16481635  0.16481635  0.33565591  1
  Si  Si19  1  0.66619137  0.66619137  0.15927453  1
  Si  Si20  1  0.34010660  0.34010660  0.83426084  1
  Si  Si21  1  0.82761223  0.82761223  0.67193912  1
  Si  Si22  1  0.37762133  0.61142830  0.22753950  1
  Si  Si23  1  0.11120266  0.87770167  0.27285854  1
  Ru  Ru0  1  0.12555486  0.12555486  0.62931875  1
  Ru  Ru1  1  0.87106975  0.87106975  0.37396685  1
  Ru  Ru2  1  0.37250664  0.37250664  0.12802159  1
  Ru  Ru3  1  0.33080239  0.66913868  0.50133867  1
  Ru  Ru4  1  0.16811992  0.82949819  0.00000767  1
  Ru  Ru5  1  0.66913868  0.33080239  0.50133867  1
  Ru  Ru6  1  0.82949819  0.16811992  0.00000767  1
loop_
_geom_bond_atom_site_label_1
_geom_bond_atom_site_label_2
_geom_bond_distance
_geom_bond_site_symmetry_2
Mn0 Si21 2.309081 1_555
Mn0 Si20 2.330732 1_555
Mn0 Si19 2.332617 1_556
Mn0 Si3 2.435913 1_555
Mn0 Si4 2.435913 1_555
Mn0 Si12 2.437018 1_555
Mn0 Si11 2.437018 1_555
Mn0 Y4 3.181336 1_555
Mn0 Y5 3.187315 1_555
Si0 Si14 2.454643 1_554
Si0 Si8 2.533436 1_555
Si0 Si20 2.621901 1_554
Si0 Si11 2.701855 1_554
Si0 Y5 3.079399 1_444
Si0 Y0 3.157091 1_545
Si0 Y2 3.204503 1_554
Si1 Si15 2.459745 1_565
Si1 Si9 2.540021 1_565
Si1 Si21 2.622961 1_555
Si1 Si10 2.649734 1_565
Si1 Y4 3.071899 1_555
Si1 Y0 3.160735 1_555
Si1 Y2 3.224533 1_565
Si2 Si9 2.664336 1_455
Si2 Y4 3.092137 1_555
Si2 Y1 3.150433 1_555
Si2 Y3 3.234605 1_455
Si3 Si8 2.704195 1_556
Si3 Y5 3.045424 1_555
Si3 Y1 3.175596 1_655
Si3 Y3 3.275711 1_556
Si4 Y5 3.045423 1_555
Si4 Y2 3.175596 1_565
Si4 Y0 3.275711 1_556
Si5 Y4 3.092137 1_555
Si5 Y2 3.150433 1_555
Si5 Y0 3.234605 1_545
Si6 Y4 3.071899 1_555
Si6 Y3 3.160735 1_555
Si6 Y1 3.224533 1_655
Si7 Y5 3.079400 1_444
Si7 Y3 3.157091 1_455
Si7 Y1 3.204503 1_554
Si8 Y4 3.083322 1_555
Si8 Y0 3.177799 1_545
Si8 Y3 3.189838 1_555
Si9 Y5 3.092739 1_544
Si9 Y0 3.166113 1_545
Si9 Y3 3.208308 1_555
Si10 Si15 2.460140 1_555
Si10 Si2 2.540713 1_655
Si10 Si21 2.621369 1_545
Si10 Y5 3.071610 1_545
Si10 Y1 3.171533 1_655
Si10 Y2 3.200692 1_555
Si11 Si14 2.485217 1_555
Si11 Si20 2.562974 1_555
Si11 Y4 3.048139 1_555
Si11 Y1 3.198450 1_655
Si11 Y2 3.254318 1_555
Si12 Si16 2.485217 1_555
Si12 Si20 2.562974 1_555
Si12 Si7 2.701855 1_556
Si12 Y4 3.048139 1_555
Si12 Y2 3.198451 1_565
Si12 Y1 3.254317 1_555
Si13 Si17 2.460140 1_555
Si13 Si5 2.540713 1_565
Si13 Si21 2.621369 1_455
Si13 Si6 2.649734 1_455
Si13 Y5 3.071610 1_455
Si13 Y2 3.171532 1_565
Si13 Y1 3.200693 1_555
Si14 Si8 2.452459 1_556
Si14 Si3 2.488809 1_555
Si14 Y2 2.949390 1_555
Si14 Y3 2.952423 1_556
Si14 Y0 2.992220 1_546
Si14 Y1 2.997270 1_655
Si15 Si2 2.460063 1_655
Si15 Si9 2.460788 1_555
Si15 Y2 2.966262 1_555
Si15 Y3 2.970261 1_555
Si15 Y1 2.989547 1_655
Si15 Y0 2.993659 1_545
Si16 Si22 2.452459 1_556
Si16 Si7 2.454643 1_556
Si16 Si4 2.488809 1_555
Si16 Y1 2.949389 1_555
Si16 Y0 2.952423 1_556
Si16 Y3 2.992220 1_456
Si16 Y2 2.997270 1_565
Si17 Si6 2.459745 1_455
Si17 Si5 2.460064 1_565
Si17 Si23 2.460788 1_555
Si17 Y1 2.966263 1_555
Si17 Y0 2.970261 1_555
Si17 Y2 2.989547 1_565
Si17 Y3 2.993659 1_455
Si18 Si5 2.604765 1_555
Si18 Si2 2.604765 1_555
Si18 Si9 2.605035 1_455
Si18 Si23 2.605035 1_545
Si18 Y4 3.030364 1_555
Si18 Y5 3.034821 1_444
Si19 Si3 2.564725 1_554
Si19 Si4 2.564725 1_554
Si19 Si22 2.622685 1_555
Si19 Si8 2.622685 1_555
Si19 Y5 2.997279 1_554
Si19 Y4 3.061483 1_555
Si20 Si7 2.621901 1_556
Si20 Y4 3.003931 1_555
Si20 Y5 3.055425 1_445
Si21 Si6 2.622961 1_555
Si21 Y4 2.976183 1_555
Si21 Y5 2.982775 1_555
Si22 Si7 2.533436 1_555
Si22 Si4 2.704195 1_554
Si22 Y4 3.083322 1_555
Si22 Y3 3.177799 1_455
Si22 Y0 3.189838 1_555
Si23 Si6 2.540021 1_455
Si23 Si5 2.664336 1_565
Si23 Y5 3.092739 1_454
Si23 Y3 3.166114 1_455
Si23 Y0 3.208308 1_555
Ru0 Si18 2.396489 1_555
Ru0 Si20 2.397459 1_555
Ru0 Si21 2.433830 1_445
Ru0 Si10 2.497049 1_455
Ru0 Si13 2.497049 1_545
Ru0 Si5 2.507163 1_555
Ru0 Si2 2.507163 1_555
Ru0 Y5 3.153703 1_445
Ru0 Y4 3.218186 1_555
Ru1 Si18 2.395447 1_665
Ru1 Si19 2.397959 1_555
Ru1 Si21 2.435747 1_555
Ru1 Si1 2.496393 1_555
Ru1 Si6 2.496393 1_555
Ru1 Si23 2.509801 1_655
Ru1 Si9 2.509801 1_565
Ru1 Y4 3.155884 1_555
Ru1 Y5 3.212974 1_554
Ru2 Si18 2.376372 1_555
Ru2 Si19 2.387449 1_555
Ru2 Si20 2.389749 1_554
Ru2 Si7 2.500730 1_555
Ru2 Si0 2.500730 1_555
Ru2 Si8 2.502790 1_555
Ru2 Si22 2.502790 1_555
Ru2 Y4 3.184157 1_555
Ru2 Y5 3.188417 1_444
Ru3 Si17 2.311651 1_555
Ru3 Si1 2.407751 1_555
Ru3 Si2 2.409887 1_555
Ru3 Si22 2.415202 1_555
Ru3 Si12 2.422528 1_555
Ru3 Y4 3.118922 1_555
Ru3 Y1 3.200114 1_555
Ru3 Y0 3.219907 1_555
Ru3 Y2 3.242154 1_565
Ru3 Y3 3.253593 1_455
Ru4 Si16 2.321923 1_554
Ru4 Si13 2.407437 1_554
Ru4 Si23 2.410317 1_555
Ru4 Si0 2.414149 1_565
Ru4 Si3 2.423312 1_454
Ru4 Y5 3.121542 1_454
Ru4 Y1 3.201003 1_554
Ru4 Y0 3.210817 1_555
Ru4 Y3 3.222810 1_455
Ru4 Y2 3.237120 1_564
Ru5 Si15 2.311651 1_555
Ru5 Si6 2.407751 1_555
Ru5 Si5 2.409886 1_555
Ru5 Si8 2.415202 1_555
Ru5 Si11 2.422528 1_555
Ru5 Y4 3.118922 1_555
Ru5 Y2 3.200115 1_555
Ru5 Y3 3.219907 1_555
Ru5 Y1 3.242154 1_655
Ru5 Y0 3.253594 1_545
Ru6 Si14 2.321923 1_554
Ru6 Si10 2.407437 1_554
Ru6 Si9 2.410317 1_555
Ru6 Si7 2.414149 1_655
Ru6 Si4 2.423312 1_544
Ru6 Y5 3.121542 1_544
Ru6 Y2 3.201002 1_554
Ru6 Y3 3.210817 1_555
Ru6 Y0 3.222810 1_545
Ru6 Y1 3.237121 1_654
