# generated using pymatgen
data_MgTiSn2Rh3
_symmetry_space_group_name_H-M   'P 1'
_cell_length_a   7.52819845
_cell_length_b   7.52819760
_cell_length_c   7.52819904
_cell_angle_alpha   34.24510945
_cell_angle_beta   34.24512102
_cell_angle_gamma   34.24511321
_symmetry_Int_Tables_number   1
_chemical_formula_structural   MgTiSn2Rh3
_chemical_formula_sum   'Mg1 Ti1 Sn2 Rh3'
_cell_volume   120.48109489
_cell_formula_units_Z   1
loop_
 _symmetry_equiv_pos_site_id
 _symmetry_equiv_pos_as_xyz
  1  'x, y, z'
loop_
 _atom_site_type_symbol
 _atom_site_label
 _atom_site_symmetry_multiplicity
 _atom_site_fract_x
 _atom_site_fract_y
 _atom_site_fract_z
 _atom_site_occupancy
  Mg  Mg0  1  0.75670635  0.75670635  0.75670635  1
  Ti  Ti0  1  0.24630785  0.24630785  0.24630785  1
  Sn  Sn0  1  0.99563154  0.99563154  0.99563154  1
  Sn  Sn1  1  0.50202640  0.50202640  0.50202640  1
  Rh  Rh0  1  0.12645588  0.12645588  0.12645588  1
  Rh  Rh1  1  0.62558899  0.62558899  0.62558899  1
  Rh  Rh2  1  0.37228199  0.37228199  0.37228199  1
loop_
_geom_bond_atom_site_label_1
_geom_bond_atom_site_label_2
_geom_bond_distance
_geom_bond_site_symmetry_2
Mg0 Rh0 2.673630 1_656
Mg0 Rh0 2.673631 1_665
Mg0 Rh0 2.673631 1_566
Mg0 Rh2 2.779856 1_565
Mg0 Rh2 2.779856 1_556
Mg0 Rh2 2.779856 1_655
Mg0 Rh1 2.784858 1_555
Mg0 Sn1 3.056273 1_565
Mg0 Sn1 3.056274 1_655
Mg0 Sn1 3.056274 1_556
Sn1 Ti0 3.044271 1_565
Sn1 Ti0 3.044273 1_655
Sn1 Ti0 3.044273 1_556
Rh0 Ti0 2.545587 1_555
Rh0 Sn1 2.711980 1_545
Rh0 Sn1 2.711981 1_554
Rh0 Sn1 2.711981 1_455
Rh0 Sn0 2.778634 1_444
Rh1 Sn1 2.624399 1_555
Rh1 Sn0 2.675437 1_545
Rh1 Sn0 2.675438 1_554
Rh1 Sn0 2.675438 1_455
Rh1 Ti0 2.739060 1_565
Rh1 Ti0 2.739061 1_556
Rh1 Ti0 2.739061 1_655
Rh2 Ti0 2.675619 1_555
Rh2 Sn0 2.719654 1_454
Rh2 Sn0 2.719654 1_445
Rh2 Sn0 2.719655 1_544
Rh2 Sn1 2.755697 1_555
