# generated using pymatgen
data_Sc12Ru2RhBr16
_symmetry_space_group_name_H-M   'P 1'
_cell_length_a   9.00308910
_cell_length_b   10.95132809
_cell_length_c   11.49321415
_cell_angle_alpha   116.79908010
_cell_angle_beta   102.11589747
_cell_angle_gamma   101.62661376
_symmetry_Int_Tables_number   1
_chemical_formula_structural   Sc12Ru2RhBr16
_chemical_formula_sum   'Sc12 Ru2 Rh1 Br16'
_cell_volume   930.25260402
_cell_formula_units_Z   1
loop_
 _symmetry_equiv_pos_site_id
 _symmetry_equiv_pos_as_xyz
  1  'x, y, z'
loop_
 _atom_site_type_symbol
 _atom_site_label
 _atom_site_symmetry_multiplicity
 _atom_site_fract_x
 _atom_site_fract_y
 _atom_site_fract_z
 _atom_site_occupancy
  Sc  Sc0  1  0.07713144  0.25320541  0.34707909  1
  Sc  Sc1  1  0.92286856  0.74679459  0.65292091  1
  Sc  Sc2  1  0.77697199  0.53688724  0.31846846  1
  Sc  Sc3  1  0.22302801  0.46311276  0.68153154  1
  Sc  Sc4  1  0.28248407  0.74773079  0.65286225  1
  Sc  Sc5  1  0.71751593  0.25226921  0.34713775  1
  Sc  Sc6  1  0.14108938  0.53687064  0.31834750  1
  Sc  Sc7  1  0.85891062  0.46312936  0.68165250  1
  Sc  Sc8  1  0.39803019  0.34646083  0.25958225  1
  Sc  Sc9  1  0.60196981  0.65353917  0.74041775  1
  Sc  Sc10  1  0.45430939  0.29675448  0.51789433  1
  Sc  Sc11  1  0.54569061  0.70324552  0.48210567  1
  Ru  Ru0  1  0.33757160  0.50016565  0.49930649  1
  Ru  Ru1  1  0.66242940  0.49983435  0.50069351  1
  Rh  Rh0  1  0.00000000  0.50000000  0.50000000  1
  Br  Br0  1  0.40201648  0.74618691  0.89352493  1
  Br  Br1  1  0.59798352  0.25381309  0.10647507  1
  Br  Br2  1  0.19638910  0.97789043  0.79398420  1
  Br  Br3  1  0.80361090  0.02210957  0.20601580  1
  Br  Br4  1  0.33171006  0.08208094  0.24172415  1
  Br  Br5  1  0.66828994  0.91791906  0.75827585  1
  Br  Br6  1  0.55835154  0.43790178  0.80450660  1
  Br  Br7  1  0.44164846  0.56209822  0.19549340  1
  Br  Br8  1  0.31160969  0.83260022  0.46196420  1
  Br  Br9  1  0.68839031  0.16739978  0.53803580  1
  Br  Br10  1  0.16585458  0.16642478  0.53398839  1
  Br  Br11  1  0.83414542  0.83357522  0.46601161  1
  Br  Br12  1  0.92269424  0.57517172  0.15159465  1
  Br  Br13  1  0.07730576  0.42482828  0.84840535  1
  Br  Br14  1  0.92775852  0.74525496  0.89400349  1
  Br  Br15  1  0.07224148  0.25474504  0.10599651  1
loop_
_geom_bond_atom_site_label_1
_geom_bond_atom_site_label_2
_geom_bond_distance
_geom_bond_site_symmetry_2
Ru0 Sc6 2.666906 1_555
Ru0 Sc3 2.668095 1_555
Ru0 Sc4 2.702945 1_555
Ru0 Sc0 2.707133 1_555
Ru0 Sc11 2.714473 1_555
Ru0 Sc10 2.718656 1_555
Ru0 Sc8 2.745483 1_555
Ru0 Sc9 2.754820 1_555
Ru1 Sc7 2.666901 1_555
Ru1 Sc2 2.668090 1_555
Ru1 Sc5 2.702941 1_555
Ru1 Sc1 2.707129 1_555
Ru1 Sc10 2.714478 1_555
Ru1 Sc11 2.718661 1_555
Ru1 Sc9 2.745488 1_555
Ru1 Sc8 2.754825 1_555
Rh0 Sc7 2.793208 1_455
Rh0 Sc6 2.793208 1_555
Rh0 Sc1 2.803820 1_455
Rh0 Sc0 2.803820 1_555
Rh0 Sc3 2.806482 1_555
Rh0 Sc2 2.806482 1_455
Rh0 Sc4 2.821392 1_555
Rh0 Sc5 2.821392 1_455
Br0 Sc4 2.758453 1_555
Br0 Sc3 2.769628 1_555
Br0 Sc9 2.796910 1_555
Br1 Sc5 2.758453 1_555
Br1 Sc2 2.769628 1_555
Br1 Sc8 2.796910 1_555
Br2 Sc1 2.685095 1_455
Br2 Sc4 2.685796 1_555
Br3 Sc0 2.685095 1_655
Br3 Sc5 2.685796 1_555
Br4 Sc8 2.738132 1_555
Br4 Sc10 2.752219 1_555
Br4 Sc5 3.254893 1_555
Br4 Sc0 3.328896 1_555
Br5 Sc9 2.738132 1_555
Br5 Sc11 2.752219 1_555
Br5 Sc4 3.254893 1_555
Br5 Sc1 3.328896 1_555
Br6 Sc9 2.754938 1_555
Br6 Sc10 2.765411 1_555
Br6 Sc3 3.175623 1_555
Br6 Sc7 3.323640 1_555
Br7 Sc8 2.754938 1_555
Br7 Sc11 2.765411 1_555
Br7 Sc2 3.175623 1_555
Br7 Sc6 3.323640 1_555
Br8 Sc6 2.771637 1_555
Br8 Sc4 2.780011 1_555
Br8 Sc11 2.792122 1_555
Br9 Sc7 2.771637 1_555
Br9 Sc5 2.780011 1_555
Br9 Sc10 2.792122 1_555
Br10 Sc0 2.753643 1_555
Br10 Sc3 2.772829 1_555
Br10 Sc10 2.785925 1_555
Br11 Sc1 2.753643 1_555
Br11 Sc2 2.772829 1_555
Br11 Sc11 2.785925 1_555
Br12 Sc2 2.671150 1_555
Br12 Sc6 2.681512 1_655
Br13 Sc3 2.671150 1_555
Br13 Sc7 2.681512 1_455
Br14 Sc1 2.769630 1_555
Br14 Sc7 2.771309 1_555
Br14 Sc9 2.787159 1_555
Br15 Sc0 2.769630 1_555
Br15 Sc6 2.771309 1_555
Br15 Sc8 2.787159 1_555
