# generated using pymatgen
data_BeAlGaO4
_symmetry_space_group_name_H-M   'P 1'
_cell_length_a   4.48017597
_cell_length_b   5.57060918
_cell_length_c   9.64041969
_cell_angle_alpha   90.00000000
_cell_angle_beta   90.00000000
_cell_angle_gamma   90.00000000
_symmetry_Int_Tables_number   1
_chemical_formula_structural   BeAlGaO4
_chemical_formula_sum   'Be4 Al4 Ga4 O16'
_cell_volume   240.59893663
_cell_formula_units_Z   4
loop_
 _symmetry_equiv_pos_site_id
 _symmetry_equiv_pos_as_xyz
  1  'x, y, z'
loop_
 _atom_site_type_symbol
 _atom_site_label
 _atom_site_symmetry_multiplicity
 _atom_site_fract_x
 _atom_site_fract_y
 _atom_site_fract_z
 _atom_site_occupancy
  Be  Be0  1  0.06834374  0.25000000  0.41016448  1
  Be  Be1  1  0.93165626  0.75000000  0.58983552  1
  Be  Be2  1  0.43165626  0.25000000  0.91016448  1
  Be  Be3  1  0.56834374  0.75000000  0.08983552  1
  Al  Al0  1  0.50000000  0.50000000  0.50000000  1
  Al  Al1  1  0.00000000  0.50000000  0.00000000  1
  Al  Al2  1  0.50000000  0.00000000  0.50000000  1
  Al  Al3  1  0.00000000  0.00000000  0.00000000  1
  Ga  Ga0  1  0.49229767  0.75000000  0.77466848  1
  Ga  Ga1  1  0.99229767  0.25000000  0.72533152  1
  Ga  Ga2  1  0.50770233  0.25000000  0.22533152  1
  Ga  Ga3  1  0.00770233  0.75000000  0.27466848  1
  O  O0  1  0.75535309  0.51886666  0.65852404  1
  O  O1  1  0.25535309  0.48113334  0.84147596  1
  O  O2  1  0.24464691  0.01886666  0.34147596  1
  O  O3  1  0.74464691  0.98113334  0.15852404  1
  O  O4  1  0.25535309  0.01886666  0.84147596  1
  O  O5  1  0.24464691  0.48113334  0.34147596  1
  O  O6  1  0.75535309  0.98113334  0.65852404  1
  O  O7  1  0.74464691  0.51886666  0.15852404  1
  O  O8  1  0.21831547  0.75000000  0.08483866  1
  O  O9  1  0.71831547  0.25000000  0.41516134  1
  O  O10  1  0.78168453  0.25000000  0.91516134  1
  O  O11  1  0.28168453  0.75000000  0.58483866  1
  O  O12  1  0.74955562  0.75000000  0.43593693  1
  O  O13  1  0.24955562  0.25000000  0.06406307  1
  O  O14  1  0.25044438  0.25000000  0.56406307  1
  O  O15  1  0.75044438  0.75000000  0.93593693  1
loop_
_geom_bond_atom_site_label_1
_geom_bond_atom_site_label_2
_geom_bond_distance
_geom_bond_site_symmetry_2
Be0 O9 1.568928 1_455
Be0 O5 1.649296 1_555
Be0 O2 1.649296 1_555
Be0 O14 1.693165 1_555
Be1 O11 1.568928 1_655
Be1 O6 1.649296 1_555
Be1 O0 1.649296 1_555
Be1 O12 1.693165 1_555
Be2 O10 1.568928 1_555
Be2 O1 1.649296 1_555
Be2 O4 1.649296 1_555
Be2 O13 1.693165 1_556
Be3 O8 1.568928 1_555
Be3 O3 1.649296 1_555
Be3 O7 1.649296 1_555
Be3 O15 1.693165 1_554
Al0 O11 1.888140 1_555
Al0 O9 1.888140 1_555
Al0 O14 1.889695 1_555
Al0 O12 1.889695 1_555
Al0 O0 1.911898 1_555
Al0 O5 1.911898 1_555
Al1 O8 1.888140 1_555
Al1 O10 1.888140 1_454
Al1 O13 1.889695 1_555
Al1 O15 1.889695 1_454
Al1 O7 1.911898 1_455
Al1 O1 1.911898 1_554
Al2 O11 1.888140 1_545
Al2 O9 1.888140 1_555
Al2 O14 1.889695 1_555
Al2 O12 1.889695 1_545
Al2 O6 1.911898 1_545
Al2 O2 1.911898 1_555
Al3 O8 1.888140 1_545
Al3 O10 1.888140 1_454
Al3 O13 1.889695 1_555
Al3 O15 1.889695 1_444
Al3 O3 1.911898 1_445
Al3 O4 1.911898 1_554
Ga0 O15 1.937697 1_555
Ga0 O4 1.945497 1_565
Ga0 O1 1.945497 1_555
Ga0 O11 2.058979 1_555
Ga0 O6 2.073746 1_555
Ga0 O0 2.073746 1_555
Ga1 O14 1.937697 1_655
Ga1 O0 1.945497 1_555
Ga1 O6 1.945497 1_545
Ga1 O10 2.058979 1_555
Ga1 O1 2.073746 1_655
Ga1 O4 2.073746 1_655
Ga2 O13 1.937697 1_555
Ga2 O7 1.945497 1_555
Ga2 O3 1.945497 1_545
Ga2 O9 2.058979 1_555
Ga2 O5 2.073746 1_555
Ga2 O2 2.073746 1_555
Ga3 O12 1.937697 1_455
Ga3 O2 1.945497 1_565
Ga3 O5 1.945497 1_555
Ga3 O8 2.058979 1_555
Ga3 O3 2.073746 1_455
Ga3 O7 2.073746 1_455
