# generated using pymatgen
data_Sc2InB2Ir5
_symmetry_space_group_name_H-M   'P 1'
_cell_length_a   3.10874075
_cell_length_b   9.53163145
_cell_length_c   9.53163145
_cell_angle_alpha   90.00000000
_cell_angle_beta   90.00000000
_cell_angle_gamma   90.00000000
_symmetry_Int_Tables_number   1
_chemical_formula_structural   Sc2InB2Ir5
_chemical_formula_sum   'Sc4 In2 B4 Ir10'
_cell_volume   282.43530831
_cell_formula_units_Z   2
loop_
 _symmetry_equiv_pos_site_id
 _symmetry_equiv_pos_as_xyz
  1  'x, y, z'
loop_
 _atom_site_type_symbol
 _atom_site_label
 _atom_site_symmetry_multiplicity
 _atom_site_fract_x
 _atom_site_fract_y
 _atom_site_fract_z
 _atom_site_occupancy
  Sc  Sc0  1  0.00000000  0.17616276  0.67616276  1
  Sc  Sc1  1  0.00000000  0.82383724  0.32383724  1
  Sc  Sc2  1  0.00000000  0.32383724  0.17616276  1
  Sc  Sc3  1  0.00000000  0.67616276  0.82383724  1
  In  In0  1  0.00000000  0.00000000  0.00000000  1
  In  In1  1  0.00000000  0.50000000  0.50000000  1
  B  B0  1  0.00000000  0.62197041  0.12197041  1
  B  B1  1  0.00000000  0.37802959  0.87802959  1
  B  B2  1  0.00000000  0.87802959  0.62197041  1
  B  B3  1  0.00000000  0.12197041  0.37802959  1
  Ir  Ir0  1  0.50000000  0.07100880  0.22397019  1
  Ir  Ir1  1  0.50000000  0.92899120  0.77602981  1
  Ir  Ir2  1  0.50000000  0.77602981  0.07100880  1
  Ir  Ir3  1  0.50000000  0.42899120  0.72397019  1
  Ir  Ir4  1  0.50000000  0.22397019  0.92899120  1
  Ir  Ir5  1  0.50000000  0.57100880  0.27602981  1
  Ir  Ir6  1  0.50000000  0.72397019  0.57100880  1
  Ir  Ir7  1  0.50000000  0.27602981  0.42899120  1
  Ir  Ir8  1  0.50000000  0.00000000  0.50000000  1
  Ir  Ir9  1  0.50000000  0.50000000  0.00000000  1
loop_
_geom_bond_atom_site_label_1
_geom_bond_atom_site_label_2
_geom_bond_distance
_geom_bond_site_symmetry_2
In0 Ir0 2.726086 1_555
In0 Ir0 2.726086 1_455
In0 Ir4 2.726086 1_554
In0 Ir4 2.726086 1_454
In0 Ir2 2.726086 1_445
In0 Ir2 2.726086 1_545
In0 Ir1 2.726086 1_444
In0 Ir1 2.726086 1_544
In1 Ir6 2.726086 1_555
In1 Ir6 2.726086 1_455
In1 Ir3 2.726086 1_555
In1 Ir3 2.726086 1_455
In1 Ir5 2.726086 1_455
In1 Ir5 2.726086 1_555
In1 Ir7 2.726086 1_555
In1 Ir7 2.726086 1_455
B0 Ir5 2.192790 1_455
B0 Ir2 2.192790 1_455
B0 Ir5 2.192790 1_555
B0 Ir2 2.192790 1_555
B0 Ir9 2.262573 1_555
B0 Ir9 2.262573 1_455
B0 Sc1 2.721117 1_555
B0 Sc3 2.888260 1_554
B0 Sc2 2.888260 1_555
B1 Ir3 2.192790 1_555
B1 Ir4 2.192790 1_455
B1 Ir3 2.192790 1_455
B1 Ir4 2.192790 1_555
B1 Ir9 2.262573 1_456
B1 Ir9 2.262573 1_556
B1 Sc0 2.721117 1_555
B1 Sc2 2.888260 1_556
B1 Sc3 2.888260 1_555
B2 Ir1 2.192790 1_455
B2 Ir6 2.192790 1_555
B2 Ir6 2.192790 1_455
B2 Ir1 2.192790 1_555
B2 Ir8 2.262573 1_565
B2 Ir8 2.262573 1_465
B2 Sc3 2.721117 1_555
B2 Sc0 2.888260 1_565
B2 Sc1 2.888260 1_555
B3 Ir0 2.192790 1_555
B3 Ir0 2.192790 1_455
B3 Ir7 2.192790 1_555
B3 Ir7 2.192790 1_455
B3 Ir8 2.262573 1_455
B3 Ir8 2.262573 1_555
B3 Sc2 2.721117 1_555
B3 Sc1 2.888260 1_545
B3 Sc0 2.888260 1_555
Ir0 Sc2 2.903649 1_555
Ir0 Sc2 2.903649 1_655
Ir0 Sc1 2.978702 1_645
Ir0 Sc1 2.978702 1_545
Ir1 Sc3 2.903649 1_655
Ir1 Sc3 2.903649 1_555
Ir1 Sc0 2.978702 1_565
Ir1 Sc0 2.978702 1_665
Ir2 Sc1 2.903649 1_555
Ir2 Sc1 2.903649 1_655
Ir2 Sc3 2.978702 1_554
Ir2 Sc3 2.978702 1_654
Ir3 Sc0 2.903649 1_655
Ir3 Sc0 2.903649 1_555
Ir3 Sc3 2.978702 1_655
Ir3 Sc3 2.978702 1_555
Ir4 Sc0 2.903649 1_655
Ir4 Sc0 2.903649 1_555
Ir4 Sc2 2.978702 1_656
Ir4 Sc2 2.978702 1_556
Ir5 Sc1 2.903649 1_555
Ir5 Sc1 2.903649 1_655
Ir5 Sc2 2.978702 1_555
Ir5 Sc2 2.978702 1_655
Ir6 Sc3 2.903649 1_655
Ir6 Sc3 2.903649 1_555
Ir6 Sc1 2.978702 1_655
Ir6 Sc1 2.978702 1_555
Ir7 Sc2 2.903649 1_655
Ir7 Sc2 2.903649 1_555
Ir7 Sc0 2.978702 1_655
Ir7 Sc0 2.978702 1_555
Ir8 Sc0 2.838123 1_555
Ir8 Sc0 2.838123 1_655
Ir8 Sc1 2.838123 1_545
Ir8 Sc1 2.838123 1_645
Ir9 Sc2 2.838123 1_555
Ir9 Sc3 2.838123 1_554
Ir9 Sc2 2.838123 1_655
Ir9 Sc3 2.838123 1_654
