# generated using pymatgen
data_CeThO4
_symmetry_space_group_name_H-M   'P 1'
_cell_length_a   3.90465399
_cell_length_b   7.80807241
_cell_length_c   6.76136758
_cell_angle_alpha   30.00713587
_cell_angle_beta   54.72230085
_cell_angle_gamma   59.99265522
_symmetry_Int_Tables_number   1
_chemical_formula_structural   CeThO4
_chemical_formula_sum   'Ce1 Th1 O4'
_cell_volume   84.16036825
_cell_formula_units_Z   1
loop_
 _symmetry_equiv_pos_site_id
 _symmetry_equiv_pos_as_xyz
  1  'x, y, z'
loop_
 _atom_site_type_symbol
 _atom_site_label
 _atom_site_symmetry_multiplicity
 _atom_site_fract_x
 _atom_site_fract_y
 _atom_site_fract_z
 _atom_site_occupancy
  Ce  Ce0  1  0.00000000  0.50000000  0.00000000  1
  Th  Th0  1  0.00000000  -0.00000000  0.00000000  1
  O  O0  1  0.25442351  0.50000519  0.24560109  1
  O  O1  1  0.24550066  0.00000178  0.25447495  1
  O  O2  1  0.74557649  0.49999481  0.75439891  1
  O  O3  1  0.75449934  0.99999822  0.74552405  1
loop_
_geom_bond_atom_site_label_1
_geom_bond_atom_site_label_2
_geom_bond_distance
_geom_bond_site_symmetry_2
Ce0 O3 2.376631 1_445
Ce0 O1 2.376635 1_564
Ce0 O0 2.376699 1_455
Ce0 O2 2.376699 1_554
Ce0 O3 2.376737 1_454
Ce0 O1 2.376740 1_555
Ce0 O2 2.377014 1_454
Ce0 O0 2.377014 1_555
O0 Th0 2.404899 1_556
O0 Th0 2.404987 1_565
O1 Th0 2.405111 1_555
O1 Th0 2.405128 1_655
O2 Th0 2.404899 1_665
O2 Th0 2.404987 1_656
O3 Th0 2.405117 1_666
O3 Th0 2.405128 1_566
