# generated using pymatgen
data_Cs6InBiAs2
_symmetry_space_group_name_H-M   'P 1'
_cell_length_a   6.45500244
_cell_length_b   10.89752879
_cell_length_c   12.83233327
_cell_angle_alpha   78.10270902
_cell_angle_beta   90.00000000
_cell_angle_gamma   90.00000000
_symmetry_Int_Tables_number   1
_chemical_formula_structural   Cs6InBiAs2
_chemical_formula_sum   'Cs12 In2 Bi2 As4'
_cell_volume   883.28165493
_cell_formula_units_Z   2
loop_
 _symmetry_equiv_pos_site_id
 _symmetry_equiv_pos_as_xyz
  1  'x, y, z'
loop_
 _atom_site_type_symbol
 _atom_site_label
 _atom_site_symmetry_multiplicity
 _atom_site_fract_x
 _atom_site_fract_y
 _atom_site_fract_z
 _atom_site_occupancy
  Cs  Cs0  1  0.75000000  0.45591931  0.07773013  1
  Cs  Cs1  1  0.25000000  0.54408069  0.92226987  1
  Cs  Cs2  1  0.75000000  0.74051694  0.23029505  1
  Cs  Cs3  1  0.25000000  0.25948306  0.76970495  1
  Cs  Cs4  1  0.25000000  0.56240569  0.53554465  1
  Cs  Cs5  1  0.75000000  0.43759431  0.46445535  1
  Cs  Cs6  1  0.25000000  0.85906527  0.03408687  1
  Cs  Cs7  1  0.75000000  0.14093473  0.96591313  1
  Cs  Cs8  1  0.25000000  0.88298300  0.67333163  1
  Cs  Cs9  1  0.75000000  0.11701700  0.32666837  1
  Cs  Cs10  1  0.25000000  0.91148152  0.37469287  1
  Cs  Cs11  1  0.75000000  0.08851848  0.62530713  1
  In  In0  1  0.25000000  0.33493210  0.29296593  1
  In  In1  1  0.75000000  0.66506790  0.70703407  1
  Bi  Bi0  1  0.25000000  0.18692545  0.12314146  1
  Bi  Bi1  1  0.75000000  0.81307455  0.87685854  1
  As  As0  1  0.25000000  0.21231665  0.49057049  1
  As  As1  1  0.75000000  0.78768335  0.50942951  1
  As  As2  1  0.25000000  0.57568192  0.23384124  1
  As  As3  1  0.75000000  0.42431808  0.76615876  1
loop_
_geom_bond_atom_site_label_1
_geom_bond_atom_site_label_2
_geom_bond_distance
_geom_bond_site_symmetry_2
Cs0 Cs1 3.811724 1_554
Cs0 Cs1 3.811724 1_654
Cs0 Cs7 3.983975 1_554
Cs0 Cs2 3.994384 1_555
Cs0 In0 4.275763 1_555
Cs0 In0 4.275763 1_655
Cs0 Cs9 4.356589 1_555
Cs1 Cs6 3.983975 1_556
Cs1 Cs3 3.994384 1_555
Cs1 In1 4.275763 1_455
Cs1 In1 4.275763 1_555
Cs1 Cs8 4.356589 1_555
Cs8 In1 3.977401 1_455
Cs8 In1 3.977401 1_555
Cs9 In0 3.977401 1_655
Cs9 In0 3.977401 1_555
Bi0 In0 2.966451 1_555
Bi0 Cs7 3.893022 1_554
Bi0 Cs7 3.893022 1_454
Bi0 Cs10 3.928717 1_545
Bi0 Cs6 3.969231 1_545
Bi0 Cs9 4.122848 1_455
Bi0 Cs9 4.122848 1_555
Bi0 Cs1 4.201933 1_554
Bi0 Cs0 4.317979 1_555
Bi0 Cs0 4.317979 1_455
Bi0 Cs3 4.440334 1_554
Bi1 In1 2.966451 1_555
Bi1 Cs6 3.893022 1_556
Bi1 Cs6 3.893022 1_656
Bi1 Cs11 3.928717 1_565
Bi1 Cs7 3.969231 1_565
Bi1 Cs8 4.122848 1_555
Bi1 Cs8 4.122848 1_655
Bi1 Cs0 4.201933 1_556
Bi1 Cs1 4.317979 1_555
Bi1 Cs1 4.317979 1_655
Bi1 Cs2 4.440334 1_556
As0 In0 2.611193 1_555
As0 Cs3 3.722049 1_555
As0 Cs11 3.776832 1_455
As0 Cs11 3.776832 1_555
As0 Cs8 3.861365 1_545
As0 Cs10 3.868945 1_545
As0 Cs4 3.974410 1_555
As0 Cs5 4.027000 1_455
As0 Cs5 4.027000 1_555
As0 Cs9 4.101167 1_455
As0 Cs9 4.101167 1_555
As1 In1 2.611193 1_555
As1 Cs2 3.722049 1_555
As1 Cs10 3.776832 1_555
As1 Cs10 3.776832 1_655
As1 Cs9 3.861365 1_565
As1 Cs11 3.868945 1_565
As1 Cs5 3.974410 1_555
As1 Cs4 4.027000 1_655
As1 Cs4 4.027000 1_555
As1 Cs8 4.101167 1_555
As1 Cs8 4.101167 1_655
As2 In0 2.576446 1_555
As2 Cs6 3.583789 1_555
As2 Cs2 3.689418 1_455
As2 Cs2 3.689418 1_555
As2 Cs4 3.844340 1_555
As2 Cs1 4.083112 1_554
As2 Cs0 4.148636 1_455
As2 Cs0 4.148636 1_555
As3 In1 2.576446 1_555
As3 Cs7 3.583789 1_555
As3 Cs3 3.689418 1_555
As3 Cs3 3.689418 1_655
As3 Cs5 3.844340 1_555
As3 Cs0 4.083112 1_556
As3 Cs1 4.148636 1_655
As3 Cs1 4.148636 1_555
