# generated using pymatgen
data_K(Sn3Ir2)2
_symmetry_space_group_name_H-M   'P 1'
_cell_length_a   6.94909295
_cell_length_b   6.94909257
_cell_length_c   6.94909201
_cell_angle_alpha   119.08498483
_cell_angle_beta   119.08498820
_cell_angle_gamma   91.59229445
_symmetry_Int_Tables_number   1
_chemical_formula_structural   K(Sn3Ir2)2
_chemical_formula_sum   'K1 Sn6 Ir4'
_cell_volume   240.46570609
_cell_formula_units_Z   1
loop_
 _symmetry_equiv_pos_site_id
 _symmetry_equiv_pos_as_xyz
  1  'x, y, z'
loop_
 _atom_site_type_symbol
 _atom_site_label
 _atom_site_symmetry_multiplicity
 _atom_site_fract_x
 _atom_site_fract_y
 _atom_site_fract_z
 _atom_site_occupancy
  K  K0  1  0.00000000  0.00000000  0.00000000  1
  Sn  Sn0  1  0.46848073  0.12380166  1.00000000  1
  Sn  Sn1  1  0.12380166  0.46848073  1.00000000  1
  Sn  Sn2  1  0.87619834  0.87619834  0.34468007  1
  Sn  Sn3  1  0.53151927  0.53151927  0.65531993  1
  Sn  Sn4  1  0.00000000  0.50000000  0.50000000  1
  Sn  Sn5  1  0.50000000  0.00000000  0.50000000  1
  Ir  Ir0  1  0.40993802  0.75405890  1.00000000  1
  Ir  Ir1  1  0.75405890  0.40993802  1.00000000  1
  Ir  Ir2  1  0.24594110  0.24594110  0.65587812  1
  Ir  Ir3  1  0.59006198  0.59006198  0.34412188  1
loop_
_geom_bond_atom_site_label_1
_geom_bond_atom_site_label_2
_geom_bond_distance
_geom_bond_site_symmetry_2
K0 Sn3 3.344078 1_444
K0 Sn1 3.344079 1_554
K0 Sn0 3.344079 1_554
K0 Sn2 3.344086 1_445
K0 Sn5 3.522489 1_555
K0 Sn5 3.522489 1_454
K0 Sn4 3.522489 1_555
K0 Sn4 3.522489 1_544
K0 Sn2 3.815649 1_444
K0 Sn3 3.815655 1_555
K0 Sn1 3.815657 1_544
K0 Sn0 3.815657 1_454
Ir0 Sn0 2.590194 1_565
Ir0 Sn2 2.698379 1_556
Ir0 Sn3 2.698383 1_555
Ir0 Sn5 2.727321 1_566
Ir0 Sn4 2.727321 1_555
Ir0 Sn1 2.769958 1_555
Ir0 K0 3.362523 1_566
Ir1 Sn1 2.590195 1_655
Ir1 Sn2 2.698379 1_556
Ir1 Sn3 2.698383 1_555
Ir1 Sn4 2.727321 1_656
Ir1 Sn5 2.727321 1_555
Ir1 Sn0 2.769958 1_555
Ir1 K0 3.362523 1_656
Ir2 Sn2 2.590196 1_445
Ir2 Sn0 2.698383 1_555
Ir2 Sn1 2.698383 1_555
Ir2 Sn4 2.727319 1_555
Ir2 Sn5 2.727319 1_555
Ir2 Sn3 2.769958 1_555
Ir2 K0 3.362516 1_555
Ir3 Sn3 2.590181 1_555
Ir3 Sn0 2.698379 1_554
Ir3 Sn1 2.698379 1_554
Ir3 Sn5 2.727322 1_565
Ir3 Sn4 2.727322 1_655
Ir3 Sn2 2.769958 1_555
Ir3 K0 3.362519 1_666
