# generated using pymatgen
data_In5Te8Au
_symmetry_space_group_name_H-M   'P 1'
_cell_length_a   7.70315788
_cell_length_b   7.70315790
_cell_length_c   8.92026027
_cell_angle_alpha   89.88228873
_cell_angle_beta   90.11770996
_cell_angle_gamma   70.75771310
_symmetry_Int_Tables_number   1
_chemical_formula_structural   In5Te8Au
_chemical_formula_sum   'In5 Te8 Au1'
_cell_volume   499.74188474
_cell_formula_units_Z   1
loop_
 _symmetry_equiv_pos_site_id
 _symmetry_equiv_pos_as_xyz
  1  'x, y, z'
loop_
 _atom_site_type_symbol
 _atom_site_label
 _atom_site_symmetry_multiplicity
 _atom_site_fract_x
 _atom_site_fract_y
 _atom_site_fract_z
 _atom_site_occupancy
  In  In0  1  0.48919453  0.48919453  1.00000000  1
  In  In1  1  0.01118684  0.01118684  0.50000000  1
  In  In2  1  0.49913966  0.49913966  0.50000000  1
  In  In3  1  0.01301672  0.48639094  0.75508508  1
  In  In4  1  0.48639094  0.01301672  0.24491492  1
  Te  Te0  1  0.62452724  0.10711978  0.97868886  1
  Te  Te1  1  0.11143158  0.61879841  0.47664359  1
  Te  Te2  1  0.10711978  0.62452724  0.02131114  1
  Te  Te3  1  0.61879841  0.11143158  0.52335641  1
  Te  Te4  1  0.10454984  0.16292985  0.24197416  1
  Te  Te5  1  0.61855799  0.65288558  0.75208643  1
  Te  Te6  1  0.16292985  0.10454984  0.75802584  1
  Te  Te7  1  0.65288558  0.61855799  0.24791357  1
  Au  Au0  1  0.00027205  0.00027205  0.00000000  1
loop_
_geom_bond_atom_site_label_1
_geom_bond_atom_site_label_2
_geom_bond_distance
_geom_bond_site_symmetry_2
In0 Te2 2.786754 1_556
In0 Te0 2.786754 1_555
In0 Te5 2.880856 1_555
In0 Te7 2.880856 1_556
In1 Te4 2.780475 1_555
In1 Te6 2.780475 1_555
In1 Te3 2.870677 1_455
In1 Te1 2.870677 1_545
In2 Te1 2.827513 1_555
In2 Te3 2.827513 1_555
In2 Te7 2.833008 1_555
In2 Te5 2.833008 1_555
In3 Te6 2.783286 1_555
In3 Te2 2.794490 1_556
In3 Te1 2.879433 1_555
In3 Te5 2.882606 1_455
In4 Te4 2.783286 1_555
In4 Te0 2.794490 1_554
In4 Te3 2.879433 1_555
In4 Te7 2.882606 1_545
Au0 Te0 2.741917 1_454
Au0 Te2 2.741917 1_545
Au0 Te6 2.746195 1_554
Au0 Te4 2.746195 1_555
