# generated using pymatgen
data_Zr10Ni2(BiPb)3
_symmetry_space_group_name_H-M   'P 1'
_cell_length_a   8.76553191
_cell_length_b   8.76419414
_cell_length_c   5.89076937
_cell_angle_alpha   90.00000000
_cell_angle_beta   90.00000000
_cell_angle_gamma   120.00504944
_symmetry_Int_Tables_number   1
_chemical_formula_structural   Zr10Ni2(BiPb)3
_chemical_formula_sum   'Zr10 Ni2 Bi3 Pb3'
_cell_volume   391.89598650
_cell_formula_units_Z   1
loop_
 _symmetry_equiv_pos_site_id
 _symmetry_equiv_pos_as_xyz
  1  'x, y, z'
loop_
 _atom_site_type_symbol
 _atom_site_label
 _atom_site_symmetry_multiplicity
 _atom_site_fract_x
 _atom_site_fract_y
 _atom_site_fract_z
 _atom_site_occupancy
  Zr  Zr0  1  0.33291849  0.66653406  0.00073201  1
  Zr  Zr1  1  0.66638543  0.33346594  0.49926799  1
  Zr  Zr2  1  0.66638543  0.33346594  0.00073201  1
  Zr  Zr3  1  0.33291849  0.66653406  0.49926799  1
  Zr  Zr4  1  0.24702995  0.00000000  0.25000000  1
  Zr  Zr5  1  0.24703301  0.24529261  0.75000000  1
  Zr  Zr6  1  0.00174040  0.75470739  0.75000000  1
  Zr  Zr7  1  0.00161833  0.24972465  0.25000000  1
  Zr  Zr8  1  0.75189368  0.75027535  0.25000000  1
  Zr  Zr9  1  0.75204709  0.00000000  0.75000000  1
  Ni  Ni0  1  0.00032407  0.00000000  0.00206198  1
  Ni  Ni1  1  0.00032407  0.00000000  0.49793802  1
  Bi  Bi0  1  0.60868962  0.00000000  0.25000000  1
  Bi  Bi1  1  0.60811151  0.60783292  0.75000000  1
  Bi  Bi2  1  0.00028059  0.39216708  0.75000000  1
  Pb  Pb0  1  0.00019366  0.60949710  0.25000000  1
  Pb  Pb1  1  0.39069656  0.39050290  0.25000000  1
  Pb  Pb2  1  0.39141162  0.00000000  0.75000000  1
loop_
_geom_bond_atom_site_label_1
_geom_bond_atom_site_label_2
_geom_bond_distance
_geom_bond_site_symmetry_2
Ni0 Zr4 2.609528 1_555
Ni0 Zr6 2.617862 1_544
Ni0 Zr5 2.617862 1_554
Ni0 Zr7 2.626521 1_555
Ni0 Zr8 2.626521 1_445
Ni0 Zr9 2.634566 1_454
Ni1 Zr4 2.609528 1_555
Ni1 Zr6 2.617862 1_545
Ni1 Zr5 2.617862 1_555
Ni1 Zr7 2.626521 1_555
Ni1 Zr8 2.626521 1_445
Ni1 Zr9 2.634566 1_455
Bi0 Zr8 3.018862 1_545
Bi0 Zr7 3.018862 1_655
Bi0 Zr1 3.078149 1_555
Bi0 Zr2 3.078149 1_555
Bi0 Zr3 3.078152 1_545
Bi0 Zr0 3.078152 1_545
Bi0 Zr4 3.170139 1_555
Bi0 Zr9 3.202241 1_555
Bi0 Zr9 3.202241 1_554
Bi1 Zr9 3.011298 1_565
Bi1 Zr6 3.019916 1_655
Bi1 Zr2 3.074582 1_556
Bi1 Zr1 3.074582 1_555
Bi1 Zr0 3.083211 1_556
Bi1 Zr3 3.083211 1_555
Bi1 Zr5 3.170985 1_555
Bi1 Zr8 3.201340 1_555
Bi1 Zr8 3.201340 1_556
Bi2 Zr9 3.011301 1_455
Bi2 Zr5 3.019900 1_555
Bi2 Zr0 3.074567 1_556
Bi2 Zr3 3.074567 1_555
Bi2 Zr2 3.083218 1_456
Bi2 Zr1 3.083218 1_455
Bi2 Zr6 3.170994 1_555
Bi2 Zr7 3.201336 1_555
Bi2 Zr7 3.201336 1_556
Pb0 Zr8 2.990840 1_455
Pb0 Zr4 2.998066 1_565
Pb0 Zr3 3.074723 1_555
Pb0 Zr0 3.074723 1_555
Pb0 Zr1 3.080664 1_455
Pb0 Zr2 3.080664 1_455
Pb0 Zr7 3.159379 1_555
Pb0 Zr6 3.205910 1_554
Pb0 Zr6 3.205910 1_555
Pb1 Zr7 2.990840 1_555
Pb1 Zr4 2.998066 1_555
Pb1 Zr1 3.074730 1_555
Pb1 Zr2 3.074730 1_555
Pb1 Zr3 3.080669 1_555
Pb1 Zr0 3.080669 1_555
Pb1 Zr8 3.159379 1_555
Pb1 Zr5 3.205910 1_555
Pb1 Zr5 3.205910 1_554
Pb2 Zr5 2.990708 1_555
Pb2 Zr6 2.990708 1_545
Pb2 Zr0 3.080112 1_546
Pb2 Zr3 3.080112 1_545
Pb2 Zr2 3.080115 1_556
Pb2 Zr1 3.080115 1_555
Pb2 Zr9 3.161162 1_555
Pb2 Zr4 3.205774 1_556
Pb2 Zr4 3.205774 1_555
