# generated using pymatgen
data_Cs3Bi2(SbS3)3
_symmetry_space_group_name_H-M   'P 1'
_cell_length_a   13.63073721
_cell_length_b   13.63073624
_cell_length_c   9.47328121
_cell_angle_alpha   84.24458772
_cell_angle_beta   84.24458852
_cell_angle_gamma   139.59413885
_symmetry_Int_Tables_number   1
_chemical_formula_structural   Cs3Bi2(SbS3)3
_chemical_formula_sum   'Cs6 Bi4 Sb6 S18'
_cell_volume   1091.73746078
_cell_formula_units_Z   2
loop_
 _symmetry_equiv_pos_site_id
 _symmetry_equiv_pos_as_xyz
  1  'x, y, z'
loop_
 _atom_site_type_symbol
 _atom_site_label
 _atom_site_symmetry_multiplicity
 _atom_site_fract_x
 _atom_site_fract_y
 _atom_site_fract_z
 _atom_site_occupancy
  Cs  Cs0  1  0.41977136  0.58022864  0.50000000  1
  Cs  Cs1  1  0.58022864  0.41977136  0.50000000  1
  Cs  Cs2  1  0.01935929  0.45073157  0.23795556  1
  Cs  Cs3  1  0.45073157  0.01935929  0.23795556  1
  Cs  Cs4  1  0.98064071  0.54926843  0.76204444  1
  Cs  Cs5  1  0.54926843  0.98064071  0.76204444  1
  Bi  Bi0  1  0.42299556  0.57700444  1.00000000  1
  Bi  Bi1  1  0.57700444  0.42299556  0.00000000  1
  Bi  Bi2  1  0.92312545  0.07687455  0.50000000  1
  Bi  Bi3  1  0.07687455  0.92312545  0.50000000  1
  Sb  Sb0  1  0.03535467  0.28279543  0.83864904  1
  Sb  Sb1  1  0.28279543  0.03535467  0.83864904  1
  Sb  Sb2  1  0.96464533  0.71720457  0.16135096  1
  Sb  Sb3  1  0.71720457  0.96464533  0.16135096  1
  Sb  Sb4  1  0.87832414  0.87832414  0.87805671  1
  Sb  Sb5  1  0.12167586  0.12167586  0.12194329  1
  S  S0  1  0.12309563  0.12309563  0.62834550  1
  S  S1  1  0.87690437  0.87690437  0.37165450  1
  S  S2  1  0.80824890  0.19175110  1.00000000  1
  S  S3  1  0.19175110  0.80824890  0.00000000  1
  S  S4  1  0.23980782  0.55565482  0.84129966  1
  S  S5  1  0.55565482  0.23980782  0.84129966  1
  S  S6  1  0.76019218  0.44434518  0.15870034  1
  S  S7  1  0.44434518  0.76019218  0.15870034  1
  S  S8  1  0.99714732  0.31680570  0.60356473  1
  S  S9  1  0.31680570  0.99714732  0.60356473  1
  S  S10  1  0.00285268  0.68319430  0.39643527  1
  S  S11  1  0.68319430  0.00285268  0.39643527  1
  S  S12  1  0.36621131  0.36621131  0.88084521  1
  S  S13  1  0.63378869  0.63378869  0.11915479  1
  S  S14  1  0.69907463  0.84713074  0.77281445  1
  S  S15  1  0.84713074  0.69907463  0.77281445  1
  S  S16  1  0.30092537  0.15286926  0.22718555  1
  S  S17  1  0.15286926  0.30092537  0.22718555  1
loop_
_geom_bond_atom_site_label_1
_geom_bond_atom_site_label_2
_geom_bond_distance
_geom_bond_site_symmetry_2
Cs0 S7 3.677507 1_555
Cs0 S4 3.677507 1_555
Cs0 S11 3.701241 1_565
Cs0 S8 3.701241 1_455
Cs0 S0 3.972038 1_555
Cs0 S1 3.972039 1_555
Cs0 Sb3 3.981467 1_555
Cs0 Sb0 3.981467 1_555
Cs0 S12 4.022071 1_555
Cs0 S13 4.022071 1_555
Cs0 Cs1 4.105175 1_555
Cs0 S17 4.144227 1_555
Cs0 S14 4.144227 1_555
Cs1 S5 3.677507 1_555
Cs1 S6 3.677507 1_555
Cs1 S9 3.701241 1_545
Cs1 S10 3.701241 1_655
Cs1 S1 3.972038 1_555
Cs1 S0 3.972039 1_555
Cs1 Sb1 3.981467 1_555
Cs1 Sb2 3.981467 1_555
Cs1 S13 4.022071 1_555
Cs1 S12 4.022071 1_555
Cs1 S15 4.144227 1_555
Cs1 S16 4.144227 1_555
Cs2 S8 3.619386 1_455
Cs2 S6 3.623197 1_455
Cs2 S17 3.627086 1_555
Cs2 S7 3.632202 1_555
Cs2 S2 3.640096 1_454
Cs2 S3 3.694085 1_555
Cs2 S10 3.783779 1_555
Cs2 S11 3.834030 1_455
Cs2 S4 3.912437 1_554
Cs3 S9 3.619386 1_545
Cs3 S7 3.623197 1_545
Cs3 S16 3.627086 1_555
Cs3 S6 3.632202 1_555
Cs3 S3 3.640096 1_545
Cs3 S2 3.694086 1_554
Cs3 S11 3.783779 1_555
Cs3 S10 3.834030 1_545
Cs3 S5 3.912437 1_554
Cs4 S10 3.619386 1_655
Cs4 S4 3.623197 1_655
Cs4 S15 3.627086 1_555
Cs4 S5 3.632202 1_555
Cs4 S3 3.640096 1_656
Cs4 S2 3.694085 1_555
Cs4 S8 3.783779 1_555
Cs4 S9 3.834030 1_655
Cs4 S6 3.912437 1_556
Cs5 S11 3.619386 1_565
Cs5 S5 3.623197 1_565
Cs5 S14 3.627086 1_555
Cs5 S4 3.632202 1_555
Cs5 S2 3.640096 1_565
Cs5 S3 3.694086 1_556
Cs5 S9 3.783779 1_555
Cs5 S8 3.834030 1_565
Cs5 S7 3.912437 1_556
Bi0 S12 2.750944 1_555
Bi0 S13 2.750944 1_556
Bi0 S17 2.834588 1_556
Bi0 S14 2.834588 1_555
Bi0 S7 2.883381 1_556
Bi0 S4 2.883381 1_555
Bi1 S13 2.750944 1_555
Bi1 S12 2.750944 1_554
Bi1 S15 2.834588 1_554
Bi1 S16 2.834588 1_555
Bi1 S5 2.883381 1_554
Bi1 S6 2.883381 1_555
Bi2 S1 2.740052 1_545
Bi2 S0 2.740052 1_655
Bi2 S14 2.835768 1_545
Bi2 S17 2.835768 1_655
Bi2 S8 2.914281 1_555
Bi2 S11 2.914281 1_555
Bi3 S0 2.740052 1_565
Bi3 S1 2.740052 1_455
Bi3 S16 2.835768 1_565
Bi3 S15 2.835768 1_455
Bi3 S10 2.914281 1_555
Bi3 S9 2.914281 1_555
S0 Sb4 2.782173 1_445
S1 Sb5 2.782173 1_665
S2 Sb3 2.505836 1_546
S2 Sb0 2.505837 1_655
S3 Sb1 2.505836 1_564
S3 Sb2 2.505837 1_455
S4 Sb0 2.418166 1_555
S5 Sb1 2.418166 1_555
S6 Sb2 2.418166 1_555
S7 Sb3 2.418166 1_555
S8 Sb0 2.416401 1_655
S9 Sb1 2.416401 1_565
S10 Sb2 2.416401 1_455
S11 Sb3 2.416401 1_545
S12 Sb5 2.731852 1_556
S13 Sb4 2.731852 1_554
S14 Sb4 2.477086 1_555
S15 Sb4 2.477086 1_555
S16 Sb5 2.477086 1_555
S17 Sb5 2.477086 1_555
