# generated using pymatgen
data_Lu3Sc(CrB4)4
_symmetry_space_group_name_H-M   'P 1'
_cell_length_a   3.37363786
_cell_length_b   5.85807312
_cell_length_c   11.31609185
_cell_angle_alpha   90.08520214
_cell_angle_beta   90.00000000
_cell_angle_gamma   90.00000000
_symmetry_Int_Tables_number   1
_chemical_formula_structural   Lu3Sc(CrB4)4
_chemical_formula_sum   'Lu3 Sc1 Cr4 B16'
_cell_volume   223.63987138
_cell_formula_units_Z   1
loop_
 _symmetry_equiv_pos_site_id
 _symmetry_equiv_pos_as_xyz
  1  'x, y, z'
loop_
 _atom_site_type_symbol
 _atom_site_label
 _atom_site_symmetry_multiplicity
 _atom_site_fract_x
 _atom_site_fract_y
 _atom_site_fract_z
 _atom_site_occupancy
  Lu  Lu0  1  0.00000000  0.37461379  0.65035659  1
  Lu  Lu1  1  0.00000000  0.12563120  0.15159781  1
  Lu  Lu2  1  0.00000000  0.87465417  0.84914423  1
  Sc  Sc0  1  0.00000000  0.62482051  0.34929306  1
  Cr  Cr0  1  0.00000000  0.62786652  0.08428259  1
  Cr  Cr1  1  0.00000000  0.37264431  0.91735186  1
  Cr  Cr2  1  0.00000000  0.12737624  0.41629255  1
  Cr  Cr3  1  0.00000000  0.87145389  0.58181997  1
  B  B0  1  0.50000000  0.78504448  0.18663182  1
  B  B1  1  0.50000000  0.21490530  0.81481332  1
  B  B2  1  0.50000000  0.28744651  0.31494537  1
  B  B3  1  0.50000000  0.71470379  0.68462968  1
  B  B4  1  0.50000000  0.86460585  0.03266423  1
  B  B5  1  0.50000000  0.13557768  0.96852736  1
  B  B6  1  0.50000000  0.36529447  0.46710747  1
  B  B7  1  0.50000000  0.63453865  0.53061202  1
  B  B8  1  0.50000000  0.88339453  0.45103809  1
  B  B9  1  0.50000000  0.11351250  0.54658819  1
  B  B10  1  0.50000000  0.38643556  0.04826521  1
  B  B11  1  0.50000000  0.61443484  0.95301538  1
  B  B12  1  0.50000000  0.97543620  0.30710476  1
  B  B13  1  0.50000000  0.02378300  0.69205720  1
  B  B14  1  0.50000000  0.47775393  0.19441190  1
  B  B15  1  0.50000000  0.52407207  0.80744834  1
loop_
_geom_bond_atom_site_label_1
_geom_bond_atom_site_label_2
_geom_bond_distance
_geom_bond_site_symmetry_2
B0 B12 1.760107 1_555
B0 B14 1.802413 1_555
B0 B4 1.804243 1_555
B0 Cr0 2.243078 1_655
B0 Cr0 2.243078 1_555
B0 Lu1 2.643035 1_565
B0 Lu1 2.643035 1_665
B0 Sc0 2.668260 1_655
B0 Sc0 2.668260 1_555
B1 B13 1.782849 1_555
B1 B5 1.801115 1_555
B1 B15 1.813162 1_555
B1 Cr1 2.245531 1_655
B1 Cr1 2.245531 1_555
B1 Lu2 2.640359 1_545
B1 Lu2 2.640359 1_645
B1 Lu0 2.681269 1_555
B1 Lu0 2.681269 1_655
B2 B6 1.780592 1_555
B2 Cr2 2.245689 1_655
B2 Cr2 2.245689 1_555
B2 Sc0 2.626814 1_555
B2 Sc0 2.626814 1_655
B2 Lu1 2.674977 1_555
B2 Lu1 2.674977 1_655
B3 B7 1.804363 1_555
B3 Cr3 2.246160 1_655
B3 Cr3 2.246160 1_555
B3 Lu0 2.638679 1_555
B3 Lu0 2.638679 1_655
B3 Lu2 2.680285 1_555
B3 Lu2 2.680285 1_655
B4 B5 1.746406 1_564
B4 Cr0 2.261034 1_655
B4 Cr0 2.261034 1_555
B4 Lu1 2.643624 1_565
B4 Lu1 2.643624 1_665
B4 Lu2 2.676190 1_554
B4 Lu2 2.676190 1_654
B5 Cr1 2.260918 1_655
B5 Cr1 2.260918 1_555
B5 Lu2 2.645869 1_645
B5 Lu2 2.645869 1_545
B5 Lu1 2.672230 1_556
B5 Lu1 2.672230 1_656
B6 B9 1.728694 1_555
B6 B7 1.732274 1_555
B6 Cr2 2.261890 1_555
B6 Cr2 2.261890 1_655
B6 Sc0 2.634423 1_655
B6 Sc0 2.634423 1_555
B6 Lu0 2.673590 1_555
B6 Lu0 2.673590 1_655
B7 B8 1.714634 1_555
B7 Cr3 2.259409 1_555
B7 Cr3 2.259409 1_655
B7 Lu0 2.646907 1_555
B7 Lu0 2.646907 1_655
B7 Sc0 2.656732 1_555
B7 Sc0 2.656732 1_655
B8 B9 1.726849 1_565
B8 Cr3 2.245168 1_655
B8 Cr3 2.245168 1_555
B8 Cr2 2.245977 1_565
B8 Cr2 2.245977 1_665
B8 Sc0 2.541701 1_555
B8 Sc0 2.541701 1_655
B9 Cr3 2.239800 1_645
B9 Cr3 2.239800 1_545
B9 Cr2 2.241936 1_655
B9 Cr2 2.241936 1_555
B9 Lu0 2.560939 1_555
B9 Lu0 2.560939 1_655
B10 B11 1.717550 1_554
B10 B5 1.723310 1_554
B10 B14 1.737419 1_555
B10 Cr0 2.238317 1_555
B10 Cr0 2.238317 1_655
B10 Cr1 2.246365 1_654
B10 Cr1 2.246365 1_554
B10 Lu1 2.559725 1_555
B10 Lu1 2.559725 1_655
B11 B4 1.719357 1_556
B11 B15 1.729466 1_555
B11 Cr1 2.238927 1_655
B11 Cr1 2.238927 1_555
B11 Cr0 2.248935 1_556
B11 Cr0 2.248935 1_656
B11 Lu2 2.560475 1_555
B11 Lu2 2.560475 1_655
B12 B8 1.716451 1_555
B12 B2 1.829800 1_565
B12 Cr2 2.271779 1_565
B12 Cr2 2.271779 1_665
B12 Lu1 2.592442 1_565
B12 Lu1 2.592442 1_665
B12 Sc0 2.700894 1_555
B12 Sc0 2.700894 1_655
B13 B9 1.728772 1_555
B13 B3 1.812434 1_545
B13 Cr3 2.279142 1_645
B13 Cr3 2.279142 1_545
B13 Lu2 2.602512 1_545
B13 Lu2 2.602512 1_645
B13 Lu0 2.700877 1_555
B13 Lu0 2.700877 1_655
B14 B2 1.762892 1_555
B14 Cr0 2.274864 1_655
B14 Cr0 2.274864 1_555
B14 Sc0 2.579705 1_555
B14 Sc0 2.579705 1_655
B14 Lu1 2.707784 1_555
B14 Lu1 2.707784 1_655
B15 B3 1.784189 1_555
B15 Cr1 2.276461 1_555
B15 Cr1 2.276461 1_655
B15 Lu0 2.601420 1_555
B15 Lu0 2.601420 1_655
B15 Lu2 2.698691 1_555
B15 Lu2 2.698691 1_655
