# generated using pymatgen
data_RbCrAs2Pd
_symmetry_space_group_name_H-M   'P 1'
_cell_length_a   7.79949101
_cell_length_b   7.79949036
_cell_length_c   7.79949260
_cell_angle_alpha   149.97259503
_cell_angle_beta   149.97259062
_cell_angle_gamma   42.98163875
_symmetry_Int_Tables_number   1
_chemical_formula_structural   RbCrAs2Pd
_chemical_formula_sum   'Rb1 Cr1 As2 Pd1'
_cell_volume   118.50359712
_cell_formula_units_Z   1
loop_
 _symmetry_equiv_pos_site_id
 _symmetry_equiv_pos_as_xyz
  1  'x, y, z'
loop_
 _atom_site_type_symbol
 _atom_site_label
 _atom_site_symmetry_multiplicity
 _atom_site_fract_x
 _atom_site_fract_y
 _atom_site_fract_z
 _atom_site_occupancy
  Rb  Rb0  1  0.00000000  0.00000000  0.00000000  1
  Cr  Cr0  1  0.75000000  0.25000000  0.50000000  1
  As  As0  1  0.34852016  0.34852016  1.00000000  1
  As  As1  1  0.65147984  0.65147984  0.00000000  1
  Pd  Pd0  1  0.25000000  0.75000000  0.50000000  1
loop_
_geom_bond_atom_site_label_1
_geom_bond_atom_site_label_2
_geom_bond_distance
_geom_bond_site_symmetry_2
Cr0 Pd0 2.857360 1_555
Cr0 Pd0 2.857360 1_645
Cr0 Pd0 2.857360 1_544
Cr0 Pd0 2.857360 1_656
As0 Pd0 2.475290 1_545
As0 Cr0 2.475291 1_455
As0 Pd0 2.475292 1_556
As0 Cr0 2.475292 1_556
As0 Rb0 3.605353 1_667
As0 Rb0 3.605353 1_566
As0 Rb0 3.605354 1_656
As0 Rb0 3.605355 1_555
As1 Cr0 2.475290 1_565
As1 Pd0 2.475291 1_655
As1 Cr0 2.475292 1_554
As1 Pd0 2.475292 1_554
As1 Rb0 3.605353 1_554
As1 Rb0 3.605353 1_655
As1 Rb0 3.605354 1_565
As1 Rb0 3.605355 1_666
