# generated using pymatgen
data_FeCu3S8
_symmetry_space_group_name_H-M   'P 1'
_cell_length_a   5.70114900
_cell_length_b   5.69173300
_cell_length_c   12.79109200
_cell_angle_alpha   64.05931473
_cell_angle_beta   90.00000000
_cell_angle_gamma   90.00000000
_symmetry_Int_Tables_number   1
_chemical_formula_structural   FeCu3S8
_chemical_formula_sum   'Fe2 Cu6 S16'
_cell_volume   373.24475669
_cell_formula_units_Z   2
loop_
 _symmetry_equiv_pos_site_id
 _symmetry_equiv_pos_as_xyz
  1  'x, y, z'
loop_
 _atom_site_type_symbol
 _atom_site_label
 _atom_site_symmetry_multiplicity
 _atom_site_fract_x
 _atom_site_fract_y
 _atom_site_fract_z
 _atom_site_occupancy
  Fe  Fe0  1  0.00000000  0.00000000  0.50000000  1
  Fe  Fe1  1  0.50000000  0.00000000  0.00000000  1
  Cu  Cu0  1  0.99683000  0.25103400  0.75086400  1
  Cu  Cu1  1  0.00317000  0.74896600  0.24913600  1
  Cu  Cu2  1  0.00000000  0.50000000  0.00000000  1
  Cu  Cu3  1  0.49683000  0.74896600  0.74913600  1
  Cu  Cu4  1  0.50000000  0.50000000  0.50000000  1
  Cu  Cu5  1  0.50317000  0.25103400  0.25086400  1
  S  S0  1  0.87871600  0.95043700  0.95147400  1
  S  S1  1  0.90275200  0.42763700  0.45138500  1
  S  S2  1  0.89700600  0.40114500  0.20011200  1
  S  S3  1  0.90435800  0.90856600  0.68888900  1
  S  S4  1  0.59724800  0.42763700  0.95138500  1
  S  S5  1  0.59564200  0.90856600  0.18888900  1
  S  S6  1  0.60299400  0.40114500  0.70011200  1
  S  S7  1  0.62128400  0.95043700  0.45147400  1
  S  S8  1  0.40275200  0.57236300  0.04861500  1
  S  S9  1  0.37871600  0.04956300  0.54852600  1
  S  S10  1  0.40435800  0.09143400  0.81111100  1
  S  S11  1  0.39700600  0.59885500  0.29988800  1
  S  S12  1  0.10299400  0.59885500  0.79988800  1
  S  S13  1  0.09564200  0.09143400  0.31111100  1
  S  S14  1  0.12128400  0.04956300  0.04852600  1
  S  S15  1  0.09724800  0.57236300  0.54861500  1
loop_
_geom_bond_atom_site_label_1
_geom_bond_atom_site_label_2
_geom_bond_distance
_geom_bond_site_symmetry_2
Fe0 S9 2.297787 1_555
Fe0 S7 2.297787 1_445
Fe0 S15 2.300919 1_545
Fe0 S1 2.300919 1_455
Fe0 S13 2.303393 1_555
Fe0 S3 2.303393 1_445
Fe1 S14 2.297787 1_555
Fe1 S0 2.297787 1_544
Fe1 S4 2.300919 1_554
Fe1 S8 2.300919 1_545
Fe1 S10 2.303393 1_554
Fe1 S5 2.303393 1_545
Cu0 S6 2.389061 1_555
Cu0 S12 2.401015 1_655
Cu0 S3 2.461251 1_545
Cu0 S0 2.474713 1_545
Cu0 S10 2.490922 1_655
Cu0 S15 2.495154 1_655
Cu1 S11 2.389061 1_555
Cu1 S2 2.401015 1_455
Cu1 S13 2.461251 1_565
Cu1 S14 2.474713 1_565
Cu1 S5 2.490922 1_455
Cu1 S1 2.495154 1_455
Cu2 S12 2.439913 1_554
Cu2 S2 2.439913 1_455
Cu2 S0 2.458467 1_454
Cu2 S14 2.458467 1_555
Cu2 S4 2.460222 1_454
Cu2 S8 2.460222 1_555
Cu3 S12 2.389061 1_555
Cu3 S6 2.401015 1_555
Cu3 S10 2.461251 1_565
Cu3 S9 2.474713 1_565
Cu3 S3 2.490922 1_555
Cu3 S4 2.495154 1_555
Cu4 S6 2.439913 1_555
Cu4 S11 2.439913 1_555
Cu4 S9 2.458467 1_555
Cu4 S7 2.458467 1_555
Cu4 S15 2.460222 1_555
Cu4 S1 2.460222 1_555
Cu5 S2 2.389061 1_555
Cu5 S11 2.401015 1_555
Cu5 S5 2.461251 1_545
Cu5 S7 2.474713 1_545
Cu5 S13 2.490922 1_555
Cu5 S8 2.495154 1_555
S0 S14 2.093948 1_666
S1 S15 2.085935 1_655
S4 S8 2.085935 1_556
S7 S9 2.093948 1_565
S10 S6 2.053303 1_555
S11 S5 2.053303 1_555
S12 S3 2.053303 1_455
S13 S2 2.053303 1_455
