# generated using pymatgen
data_MgGa2
_symmetry_space_group_name_H-M   'P 1'
_cell_length_a   4.29098547
_cell_length_b   4.29098492
_cell_length_c   6.91250255
_cell_angle_alpha   90.00000000
_cell_angle_beta   90.00000000
_cell_angle_gamma   119.99999657
_symmetry_Int_Tables_number   1
_chemical_formula_structural   MgGa2
_chemical_formula_sum   'Mg2 Ga4'
_cell_volume   110.22496862
_cell_formula_units_Z   2
loop_
 _symmetry_equiv_pos_site_id
 _symmetry_equiv_pos_as_xyz
  1  'x, y, z'
loop_
 _atom_site_type_symbol
 _atom_site_label
 _atom_site_symmetry_multiplicity
 _atom_site_fract_x
 _atom_site_fract_y
 _atom_site_fract_z
 _atom_site_occupancy
  Mg  Mg0  1  0.00000000  -0.00000000  0.75000000  1
  Mg  Mg1  1  -0.00000000  0.00000000  0.25000000  1
  Ga  Ga0  1  0.66666700  0.33333300  0.55101586  1
  Ga  Ga1  1  0.33333300  0.66666700  0.05101586  1
  Ga  Ga2  1  0.66666700  0.33333300  0.94898414  1
  Ga  Ga3  1  0.33333300  0.66666700  0.44898414  1
loop_
_geom_bond_atom_site_label_1
_geom_bond_atom_site_label_2
_geom_bond_distance
_geom_bond_site_symmetry_2
Ga0 Ga3 2.575839 1_545
Ga0 Ga3 2.575839 1_655
Ga0 Ga3 2.575846 1_555
Ga0 Ga2 2.750957 1_555
Ga0 Mg0 2.833628 1_655
Ga0 Mg0 2.833631 1_665
Ga0 Mg0 2.833631 1_555
Ga0 Mg1 3.235293 1_655
Ga0 Mg1 3.235296 1_665
Ga0 Mg1 3.235296 1_555
Ga1 Ga2 2.575839 1_564
Ga1 Ga2 2.575839 1_454
Ga1 Ga2 2.575846 1_554
Ga1 Ga3 2.750957 1_555
Ga1 Mg1 2.833628 1_565
Ga1 Mg1 2.833631 1_555
Ga1 Mg1 2.833631 1_665
Ga1 Mg0 3.235293 1_564
Ga1 Mg0 3.235296 1_554
Ga1 Mg0 3.235296 1_664
Ga2 Mg0 2.833628 1_655
Ga2 Mg0 2.833631 1_665
Ga2 Mg0 2.833631 1_555
Ga2 Mg1 3.235293 1_656
Ga2 Mg1 3.235296 1_666
Ga2 Mg1 3.235296 1_556
Ga3 Mg1 2.833628 1_565
Ga3 Mg1 2.833631 1_555
Ga3 Mg1 2.833631 1_665
Ga3 Mg0 3.235293 1_565
Ga3 Mg0 3.235296 1_555
Ga3 Mg0 3.235296 1_665
