# generated using pymatgen
data_Ba3Ta2NiO9
_symmetry_space_group_name_H-M   'P 1'
_cell_length_a   5.82541600
_cell_length_b   12.37449903
_cell_length_c   12.37449903
_cell_angle_alpha   109.24985722
_cell_angle_beta   90.00000000
_cell_angle_gamma   90.00000000
_symmetry_Int_Tables_number   1
_chemical_formula_structural   Ba3Ta2NiO9
_chemical_formula_sum   'Ba12 Ta8 Ni4 O36'
_cell_volume   842.16176704
_cell_formula_units_Z   4
loop_
 _symmetry_equiv_pos_site_id
 _symmetry_equiv_pos_as_xyz
  1  'x, y, z'
loop_
 _atom_site_type_symbol
 _atom_site_label
 _atom_site_symmetry_multiplicity
 _atom_site_fract_x
 _atom_site_fract_y
 _atom_site_fract_z
 _atom_site_occupancy
  Ba  Ba0  1  0.50000000  0.25000000  0.75000000  1
  Ba  Ba1  1  0.00000000  0.00000000  0.00000000  1
  Ba  Ba2  1  0.00000000  0.50000000  0.50000000  1
  Ba  Ba3  1  0.50000000  0.75000000  0.25000000  1
  Ba  Ba4  1  0.00000000  0.50251900  0.83585200  1
  Ba  Ba5  1  0.50000000  0.25251900  0.08585200  1
  Ba  Ba6  1  0.50000000  0.75251900  0.58585200  1
  Ba  Ba7  1  0.00000000  0.00251900  0.33585200  1
  Ba  Ba8  1  0.50000000  0.74748100  0.91414800  1
  Ba  Ba9  1  0.00000000  0.49748100  0.16414800  1
  Ba  Ba10  1  0.00000000  0.99748100  0.66414800  1
  Ba  Ba11  1  0.50000000  0.24748100  0.41414800  1
  Ta  Ta0  1  0.50000000  0.50486100  0.67152800  1
  Ta  Ta1  1  0.00000000  0.25486100  0.92152800  1
  Ta  Ta2  1  0.00000000  0.75486100  0.42152800  1
  Ta  Ta3  1  0.50000000  0.00486100  0.17152800  1
  Ta  Ta4  1  0.00000000  0.74513900  0.07847200  1
  Ta  Ta5  1  0.50000000  0.49513900  0.32847200  1
  Ta  Ta6  1  0.50000000  0.99513900  0.82847200  1
  Ta  Ta7  1  0.00000000  0.24513900  0.57847200  1
  Ni  Ni0  1  0.50000000  0.50000000  0.00000000  1
  Ni  Ni1  1  0.00000000  0.75000000  0.75000000  1
  Ni  Ni2  1  0.00000000  0.25000000  0.25000000  1
  Ni  Ni3  1  0.50000000  0.00000000  0.50000000  1
  O  O0  1  0.00000000  0.25000000  0.75000000  1
  O  O1  1  0.50000000  0.00000000  0.00000000  1
  O  O2  1  0.50000000  0.50000000  0.50000000  1
  O  O3  1  0.00000000  0.75000000  0.25000000  1
  O  O4  1  0.75000000  0.37500000  0.62500000  1
  O  O5  1  0.25000000  0.12500000  0.87500000  1
  O  O6  1  0.25000000  0.62500000  0.37500000  1
  O  O7  1  0.75000000  0.87500000  0.12500000  1
  O  O8  1  0.25000000  0.37500000  0.62500000  1
  O  O9  1  0.75000000  0.12500000  0.87500000  1
  O  O10  1  0.75000000  0.62500000  0.37500000  1
  O  O11  1  0.25000000  0.87500000  0.12500000  1
  O  O12  1  0.75757300  0.63056900  0.04471100  1
  O  O13  1  0.25757300  0.38056900  0.29471100  1
  O  O14  1  0.25757300  0.88056900  0.79471100  1
  O  O15  1  0.75757300  0.13056900  0.54471100  1
  O  O16  1  0.24242600  0.63056900  0.04471100  1
  O  O17  1  0.74242600  0.38056900  0.29471100  1
  O  O18  1  0.74242600  0.88056900  0.79471100  1
  O  O19  1  0.24242600  0.13056900  0.54471100  1
  O  O20  1  0.00000000  0.75178200  0.92349800  1
  O  O21  1  0.50000000  0.50178200  0.17349800  1
  O  O22  1  0.50000000  0.00178200  0.67349800  1
  O  O23  1  0.00000000  0.25178200  0.42349800  1
  O  O24  1  0.25757200  0.61943100  0.70528900  1
  O  O25  1  0.75757200  0.36943100  0.95528900  1
  O  O26  1  0.75757200  0.86943100  0.45528900  1
  O  O27  1  0.25757200  0.11943100  0.20528900  1
  O  O28  1  0.74242800  0.61943100  0.70528900  1
  O  O29  1  0.24242800  0.36943100  0.95528900  1
  O  O30  1  0.24242800  0.86943100  0.45528900  1
  O  O31  1  0.74242800  0.11943100  0.20528900  1
  O  O32  1  0.50000000  0.49821800  0.82650300  1
  O  O33  1  0.00000000  0.24821800  0.07650300  1
  O  O34  1  0.00000000  0.74821800  0.57650300  1
  O  O35  1  0.50000000  0.99821800  0.32650300  1
loop_
_geom_bond_atom_site_label_1
_geom_bond_atom_site_label_2
_geom_bond_distance
_geom_bond_site_symmetry_2
Ba0 O25 2.900586 1_555
Ba0 O29 2.900586 1_555
Ba0 O15 2.900589 1_555
Ba0 O32 2.900592 1_555
Ba0 O22 2.900592 1_555
Ba0 O19 2.900592 1_555
Ba0 O4 2.912708 1_555
Ba0 O8 2.912708 1_555
Ba0 O9 2.912708 1_555
Ba0 O5 2.912708 1_555
Ba0 O0 2.912708 1_555
Ba0 O0 2.912708 1_655
Ba1 O27 2.900586 1_555
Ba1 O31 2.900586 1_455
Ba1 O14 2.900589 1_544
Ba1 O33 2.900592 1_555
Ba1 O20 2.900592 1_544
Ba1 O18 2.900592 1_444
Ba1 O7 2.912708 1_445
Ba1 O5 2.912708 1_554
Ba1 O11 2.912708 1_545
Ba1 O9 2.912708 1_454
Ba1 O1 2.912708 1_455
Ba1 O1 2.912708 1_555
Ba2 O24 2.900586 1_555
Ba2 O28 2.900586 1_455
Ba2 O13 2.900589 1_555
Ba2 O34 2.900592 1_555
Ba2 O23 2.900592 1_555
Ba2 O17 2.900592 1_455
Ba2 O6 2.912708 1_555
Ba2 O4 2.912708 1_455
Ba2 O8 2.912708 1_555
Ba2 O10 2.912708 1_455
Ba2 O2 2.912708 1_455
Ba2 O2 2.912708 1_555
Ba3 O26 2.900586 1_555
Ba3 O30 2.900586 1_555
Ba3 O12 2.900589 1_555
Ba3 O35 2.900592 1_555
Ba3 O21 2.900592 1_555
Ba3 O16 2.900592 1_555
Ba3 O6 2.912708 1_555
Ba3 O10 2.912708 1_555
Ba3 O7 2.912708 1_555
Ba3 O11 2.912708 1_555
Ba3 O3 2.912708 1_655
Ba3 O3 2.912708 1_555
Ba4 O20 2.912835 1_555
Ba4 O16 2.912838 1_556
Ba4 O12 2.912841 1_456
Ba4 O24 2.914786 1_555
Ba4 O28 2.914786 1_455
Ba4 O32 2.914794 1_455
Ba4 O32 2.914794 1_555
Ba4 O29 2.914803 1_555
Ba4 O25 2.914803 1_455
Ba4 O8 2.950261 1_555
Ba4 O4 2.950261 1_455
Ba4 O0 2.950264 1_555
Ba5 O21 2.912835 1_555
Ba5 O17 2.912838 1_555
Ba5 O13 2.912841 1_555
Ba5 O25 2.914786 1_554
Ba5 O29 2.914786 1_554
Ba5 O33 2.914794 1_655
Ba5 O33 2.914794 1_555
Ba5 O31 2.914803 1_555
Ba5 O27 2.914803 1_555
Ba5 O5 2.950261 1_554
Ba5 O9 2.950261 1_554
Ba5 O1 2.950264 1_555
Ba6 O22 2.912835 1_565
Ba6 O18 2.912838 1_555
Ba6 O14 2.912841 1_555
Ba6 O26 2.914786 1_555
Ba6 O30 2.914786 1_555
Ba6 O34 2.914794 1_555
Ba6 O34 2.914794 1_655
Ba6 O28 2.914803 1_555
Ba6 O24 2.914803 1_555
Ba6 O6 2.950261 1_555
Ba6 O10 2.950261 1_555
Ba6 O2 2.950264 1_555
Ba7 O23 2.912835 1_555
Ba7 O19 2.912838 1_555
Ba7 O15 2.912841 1_455
Ba7 O27 2.914786 1_555
Ba7 O31 2.914786 1_455
Ba7 O35 2.914794 1_445
Ba7 O35 2.914794 1_545
Ba7 O30 2.914803 1_545
Ba7 O26 2.914803 1_445
Ba7 O7 2.950261 1_445
Ba7 O11 2.950261 1_545
Ba7 O3 2.950264 1_545
Ba8 O32 2.912835 1_555
Ba8 O28 2.912844 1_555
Ba8 O24 2.912844 1_555
Ba8 O12 2.914789 1_556
Ba8 O16 2.914792 1_556
Ba8 O20 2.914795 1_655
Ba8 O20 2.914795 1_555
Ba8 O18 2.914797 1_555
Ba8 O14 2.914800 1_555
Ba8 O7 2.950261 1_556
Ba8 O11 2.950261 1_556
Ba8 O1 2.950264 1_566
Ba9 O33 2.912835 1_555
Ba9 O29 2.912844 1_554
Ba9 O25 2.912844 1_454
Ba9 O13 2.914789 1_555
Ba9 O17 2.914792 1_455
Ba9 O21 2.914795 1_455
Ba9 O21 2.914795 1_555
Ba9 O16 2.914797 1_555
Ba9 O12 2.914800 1_455
Ba9 O10 2.950261 1_455
Ba9 O6 2.950261 1_555
Ba9 O3 2.950264 1_555
Ba10 O34 2.912835 1_555
Ba10 O30 2.912844 1_555
Ba10 O26 2.912844 1_455
Ba10 O14 2.914789 1_555
Ba10 O18 2.914792 1_455
Ba10 O22 2.914795 1_465
Ba10 O22 2.914795 1_565
Ba10 O19 2.914797 1_565
Ba10 O15 2.914800 1_465
Ba10 O9 2.950261 1_465
Ba10 O5 2.950261 1_565
Ba10 O0 2.950264 1_565
Ba11 O35 2.912835 1_545
Ba11 O31 2.912844 1_555
Ba11 O27 2.912844 1_555
Ba11 O15 2.914789 1_555
Ba11 O19 2.914792 1_555
Ba11 O23 2.914795 1_655
Ba11 O23 2.914795 1_555
Ba11 O17 2.914797 1_555
Ba11 O13 2.914800 1_555
Ba11 O4 2.950261 1_555
Ba11 O8 2.950261 1_555
Ba11 O2 2.950264 1_555
Ni0 O32 2.139770 1_554
Ni0 O25 2.139774 1_554
Ni0 O29 2.139774 1_554
Ni0 O12 2.139778 1_555
Ni0 O21 2.139782 1_555
Ni0 O16 2.139782 1_555
Ni1 O34 2.139770 1_555
Ni1 O24 2.139774 1_555
Ni1 O28 2.139774 1_455
Ni1 O14 2.139778 1_555
Ni1 O20 2.139782 1_555
Ni1 O18 2.139782 1_455
Ni2 O33 2.139770 1_555
Ni2 O27 2.139774 1_555
Ni2 O31 2.139774 1_455
Ni2 O13 2.139778 1_555
Ni2 O23 2.139782 1_555
Ni2 O17 2.139782 1_455
Ni3 O35 2.139770 1_545
Ni3 O26 2.139774 1_545
Ni3 O30 2.139774 1_545
Ni3 O15 2.139778 1_555
Ni3 O22 2.139782 1_555
Ni3 O19 2.139782 1_555
O0 Ta7 2.103508 1_555
O0 Ta1 2.103508 1_555
O1 Ta3 2.103508 1_555
O1 Ta6 2.103508 1_544
O2 Ta0 2.103508 1_555
O2 Ta5 2.103508 1_555
O3 Ta2 2.103508 1_555
O3 Ta4 2.103508 1_555
O4 Ta7 2.103504 1_655
O4 Ta0 2.103504 1_555
O5 Ta6 2.103504 1_545
O5 Ta1 2.103504 1_555
O6 Ta2 2.103504 1_555
O6 Ta5 2.103504 1_555
O7 Ta3 2.103504 1_565
O7 Ta4 2.103504 1_655
O8 Ta7 2.103504 1_555
O8 Ta0 2.103504 1_555
O9 Ta1 2.103504 1_655
O9 Ta6 2.103504 1_545
O10 Ta2 2.103504 1_655
O10 Ta5 2.103504 1_555
O11 Ta3 2.103504 1_565
O11 Ta4 2.103504 1_555
O12 Ta4 1.946384 1_655
O13 Ta5 1.946384 1_555
O14 Ta6 1.946384 1_555
O15 Ta7 1.946384 1_655
O16 Ta4 1.946379 1_555
O17 Ta5 1.946379 1_555
O18 Ta6 1.946379 1_555
O19 Ta7 1.946379 1_555
O20 Ta4 1.946375 1_556
O21 Ta5 1.946375 1_555
O22 Ta6 1.946375 1_545
O23 Ta7 1.946375 1_555
O24 Ta0 1.946388 1_555
O25 Ta1 1.946388 1_655
O26 Ta2 1.946388 1_655
O27 Ta3 1.946388 1_555
O28 Ta0 1.946388 1_555
O29 Ta1 1.946388 1_555
O30 Ta2 1.946388 1_555
O31 Ta3 1.946388 1_555
O32 Ta0 1.946387 1_555
O33 Ta1 1.946387 1_554
O34 Ta2 1.946387 1_555
O35 Ta3 1.946387 1_565
