# generated using pymatgen
data_TiBe4Ru
_symmetry_space_group_name_H-M   'P 1'
_cell_length_a   4.38536768
_cell_length_b   4.38536853
_cell_length_c   4.38536907
_cell_angle_alpha   60.00000344
_cell_angle_beta   59.99999698
_cell_angle_gamma   60.00000445
_symmetry_Int_Tables_number   1
_chemical_formula_structural   TiBe4Ru
_chemical_formula_sum   'Ti1 Be4 Ru1'
_cell_volume   59.63528162
_cell_formula_units_Z   1
loop_
 _symmetry_equiv_pos_site_id
 _symmetry_equiv_pos_as_xyz
  1  'x, y, z'
loop_
 _atom_site_type_symbol
 _atom_site_label
 _atom_site_symmetry_multiplicity
 _atom_site_fract_x
 _atom_site_fract_y
 _atom_site_fract_z
 _atom_site_occupancy
  Ti  Ti0  1  0.00000000  0.00000000  0.00000000  1
  Be  Be0  1  0.62394510  0.62394510  0.12816569  1
  Be  Be1  1  0.62394510  0.12816569  0.62394510  1
  Be  Be2  1  0.12816569  0.62394510  0.62394510  1
  Be  Be3  1  0.62394510  0.62394510  0.62394510  1
  Ru  Ru0  1  0.25000000  0.25000000  0.25000000  1
loop_
_geom_bond_atom_site_label_1
_geom_bond_atom_site_label_2
_geom_bond_distance
_geom_bond_site_symmetry_2
Be0 Be2 2.174175 1_555
Be0 Be1 2.174176 1_555
Be0 Be3 2.174176 1_555
Be0 Be2 2.211193 1_654
Be0 Be1 2.211193 1_564
Be0 Be3 2.211193 1_554
Be0 Ru0 2.569200 1_655
Be0 Ru0 2.569200 1_565
Be0 Ru0 2.569203 1_555
Be0 Ti0 2.573145 1_665
Be0 Ti0 2.573149 1_565
Be0 Ti0 2.573149 1_655
Be1 Be2 2.174175 1_555
Be1 Be3 2.174175 1_555
Be1 Be2 2.211193 1_645
Be1 Be3 2.211193 1_545
Be1 Ru0 2.569199 1_655
Be1 Ru0 2.569200 1_556
Be1 Ru0 2.569204 1_555
Be1 Ti0 2.573145 1_656
Be1 Ti0 2.573148 1_556
Be1 Ti0 2.573149 1_655
Be2 Be3 2.174175 1_555
Be2 Be3 2.211193 1_455
Be2 Ru0 2.569200 1_565
Be2 Ru0 2.569200 1_556
Be2 Ru0 2.569204 1_555
Be2 Ti0 2.573145 1_566
Be2 Ti0 2.573149 1_556
Be2 Ti0 2.573149 1_565
Be3 Ru0 2.569202 1_655
Be3 Ru0 2.569202 1_556
Be3 Ru0 2.569202 1_565
Be3 Ti0 2.573147 1_566
Be3 Ti0 2.573147 1_665
Be3 Ti0 2.573147 1_656
Ru0 Ti0 2.685478 1_655
Ru0 Ti0 2.685479 1_555
Ru0 Ti0 2.685479 1_565
Ru0 Ti0 2.685479 1_556
