# generated using pymatgen
data_Zr6Sc4Al12Rh7
_symmetry_space_group_name_H-M   'P 1'
_cell_length_a   8.86650902
_cell_length_b   8.86650922
_cell_length_c   8.86650828
_cell_angle_alpha   59.99999982
_cell_angle_beta   59.99999909
_cell_angle_gamma   60.00000225
_symmetry_Int_Tables_number   1
_chemical_formula_structural   Zr6Sc4Al12Rh7
_chemical_formula_sum   'Zr6 Sc4 Al12 Rh7'
_cell_volume   492.88200292
_cell_formula_units_Z   1
loop_
 _symmetry_equiv_pos_site_id
 _symmetry_equiv_pos_as_xyz
  1  'x, y, z'
loop_
 _atom_site_type_symbol
 _atom_site_label
 _atom_site_symmetry_multiplicity
 _atom_site_fract_x
 _atom_site_fract_y
 _atom_site_fract_z
 _atom_site_occupancy
  Zr  Zr0  1  0.68334589  0.68334589  0.31665411  1
  Zr  Zr1  1  0.31665411  0.68334589  0.31665411  1
  Zr  Zr2  1  0.68334589  0.31665411  0.31665411  1
  Zr  Zr3  1  0.31665411  0.31665411  0.68334589  1
  Zr  Zr4  1  0.68334589  0.31665411  0.68334589  1
  Zr  Zr5  1  0.31665411  0.68334589  0.68334589  1
  Sc  Sc0  1  0.88086716  0.88086716  0.35739752  1
  Sc  Sc1  1  0.88086716  0.35739752  0.88086716  1
  Sc  Sc2  1  0.35739752  0.88086716  0.88086716  1
  Sc  Sc3  1  0.88086716  0.88086716  0.88086716  1
  Al  Al0  1  0.12277290  0.12277290  0.63168130  1
  Al  Al1  1  0.12277290  0.63168130  0.12277290  1
  Al  Al2  1  0.63168130  0.12277290  0.12277290  1
  Al  Al3  1  0.12277290  0.12277290  0.12277290  1
  Al  Al4  1  0.66302732  0.66302732  0.01091803  1
  Al  Al5  1  0.66302732  0.01091803  0.66302732  1
  Al  Al6  1  0.01091803  0.66302732  0.66302732  1
  Al  Al7  1  0.66302732  0.66302732  0.66302732  1
  Al  Al8  1  0.33585082  0.33585082  0.99244855  1
  Al  Al9  1  0.33585082  0.99244855  0.33585082  1
  Al  Al10  1  0.99244855  0.33585082  0.33585082  1
  Al  Al11  1  0.33585082  0.33585082  0.33585082  1
  Rh  Rh0  1  0.00000000  0.00000000  0.00000000  1
  Rh  Rh1  1  0.00108611  0.00108611  0.49891389  1
  Rh  Rh2  1  0.49891389  0.00108611  0.49891389  1
  Rh  Rh3  1  0.00108611  0.49891389  0.49891389  1
  Rh  Rh4  1  0.49891389  0.49891389  0.00108611  1
  Rh  Rh5  1  0.00108611  0.49891389  0.00108611  1
  Rh  Rh6  1  0.49891389  0.00108611  0.00108611  1
loop_
_geom_bond_atom_site_label_1
_geom_bond_atom_site_label_2
_geom_bond_distance
_geom_bond_site_symmetry_2
Zr0 Zr5 3.251276 1_555
Zr0 Zr4 3.251276 1_555
Zr0 Zr1 3.251276 1_555
Zr0 Zr2 3.251276 1_555
Zr1 Zr5 3.251276 1_555
Zr1 Zr3 3.251276 1_555
Zr1 Zr2 3.251276 1_555
Zr2 Zr4 3.251276 1_555
Zr2 Zr3 3.251276 1_555
Zr3 Zr4 3.251276 1_555
Zr3 Zr5 3.251276 1_555
Zr4 Zr5 3.251276 1_555
Sc0 Zr0 3.255342 1_555
Sc0 Zr1 3.255349 1_655
Sc0 Zr2 3.255349 1_565
Sc1 Zr4 3.255342 1_555
Sc1 Zr2 3.255349 1_556
Sc1 Zr3 3.255349 1_655
Sc2 Zr5 3.255342 1_555
Sc2 Zr1 3.255349 1_556
Sc2 Zr3 3.255349 1_565
Sc3 Zr0 3.255347 1_556
Sc3 Zr5 3.255347 1_655
Sc3 Zr4 3.255348 1_565
Al0 Rh0 2.666433 1_556
Al0 Rh1 2.723654 1_555
Al0 Rh2 2.723654 1_555
Al0 Rh3 2.723654 1_555
Al0 Zr3 3.263461 1_555
Al0 Zr4 3.263461 1_455
Al0 Zr5 3.263461 1_545
Al1 Rh0 2.666434 1_565
Al1 Rh3 2.723654 1_555
Al1 Rh5 2.723654 1_555
Al1 Rh4 2.723654 1_555
Al1 Zr5 3.263460 1_554
Al1 Zr1 3.263460 1_555
Al1 Zr0 3.263461 1_455
Al2 Rh0 2.666434 1_655
Al2 Rh2 2.723654 1_555
Al2 Rh6 2.723654 1_555
Al2 Rh4 2.723654 1_555
Al2 Zr4 3.263460 1_554
Al2 Zr2 3.263460 1_555
Al2 Zr0 3.263461 1_545
Al3 Rh0 2.666434 1_555
Al3 Rh1 2.723654 1_555
Al3 Rh6 2.723654 1_555
Al3 Rh5 2.723654 1_555
Al3 Zr3 3.263460 1_554
Al3 Zr2 3.263461 1_455
Al3 Zr1 3.263461 1_545
Al4 Rh4 2.571646 1_555
Al4 Rh5 2.571646 1_655
Al4 Rh6 2.571646 1_565
Al4 Sc3 2.840264 1_554
Al4 Sc2 2.840271 1_554
Al4 Sc1 2.840271 1_554
Al4 Zr0 2.902171 1_555
Al4 Zr1 2.902171 1_555
Al4 Zr2 2.902171 1_555
Al5 Rh6 2.571645 1_556
Al5 Rh2 2.571646 1_555
Al5 Rh1 2.571646 1_655
Al5 Sc3 2.840264 1_545
Al5 Sc0 2.840271 1_545
Al5 Sc2 2.840271 1_545
Al5 Zr2 2.902171 1_555
Al5 Zr4 2.902171 1_555
Al5 Zr3 2.902171 1_555
Al6 Rh5 2.571645 1_556
Al6 Rh3 2.571646 1_555
Al6 Rh1 2.571646 1_565
Al6 Sc3 2.840264 1_455
Al6 Sc0 2.840271 1_455
Al6 Sc1 2.840271 1_455
Al6 Zr1 2.902171 1_555
Al6 Zr5 2.902171 1_555
Al6 Zr3 2.902171 1_555
Al7 Rh4 2.571645 1_556
Al7 Rh3 2.571646 1_655
Al7 Rh2 2.571646 1_565
Al7 Sc0 2.840266 1_555
Al7 Sc2 2.840266 1_555
Al7 Sc1 2.840266 1_555
Al7 Zr0 2.902171 1_555
Al7 Zr5 2.902171 1_555
Al7 Zr4 2.902171 1_555
Al8 Rh4 2.549183 1_556
Al8 Rh5 2.549191 1_556
Al8 Rh6 2.549191 1_556
Al8 Zr4 2.920800 1_555
Al8 Zr5 2.920800 1_555
Al8 Zr3 2.920805 1_555
Al9 Rh2 2.549183 1_565
Al9 Rh6 2.549190 1_565
Al9 Rh1 2.549191 1_565
Al9 Zr5 2.920800 1_555
Al9 Zr0 2.920800 1_555
Al9 Zr1 2.920805 1_555
Al10 Rh3 2.549183 1_655
Al10 Rh5 2.549190 1_655
Al10 Rh1 2.549191 1_655
Al10 Zr4 2.920800 1_555
Al10 Zr0 2.920800 1_555
Al10 Zr2 2.920805 1_555
Al11 Rh4 2.549188 1_555
Al11 Rh3 2.549188 1_555
Al11 Rh2 2.549188 1_555
Al11 Zr3 2.920796 1_555
Al11 Zr2 2.920796 1_555
Al11 Zr1 2.920796 1_555
Rh0 Sc0 2.587370 1_445
Rh0 Sc2 2.587370 1_544
Rh0 Sc1 2.587370 1_454
Rh0 Sc3 2.587377 1_444
Rh1 Sc3 2.767289 1_445
Rh1 Sc0 2.767296 1_445
Rh1 Zr4 3.244317 1_455
Rh1 Zr5 3.244317 1_545
Rh1 Zr2 3.244317 1_455
Rh1 Zr1 3.244317 1_545
Rh2 Sc2 2.767289 1_545
Rh2 Sc0 2.767289 1_545
Rh2 Zr3 3.244317 1_555
Rh2 Zr0 3.244317 1_545
Rh2 Zr2 3.244317 1_555
Rh2 Zr5 3.244317 1_545
Rh3 Sc1 2.767289 1_455
Rh3 Sc0 2.767289 1_455
Rh3 Zr3 3.244317 1_555
Rh3 Zr0 3.244317 1_455
Rh3 Zr4 3.244317 1_455
Rh3 Zr1 3.244317 1_555
Rh4 Sc1 2.767289 1_554
Rh4 Sc2 2.767290 1_554
Rh4 Zr4 3.244317 1_554
Rh4 Zr5 3.244317 1_554
Rh4 Zr2 3.244317 1_555
Rh4 Zr1 3.244317 1_555
Rh5 Sc3 2.767289 1_454
Rh5 Sc1 2.767296 1_454
Rh5 Zr3 3.244317 1_554
Rh5 Zr0 3.244317 1_455
Rh5 Zr5 3.244317 1_554
Rh5 Zr2 3.244317 1_455
Rh6 Sc3 2.767289 1_544
Rh6 Sc2 2.767296 1_544
Rh6 Zr3 3.244317 1_554
Rh6 Zr0 3.244317 1_545
Rh6 Zr4 3.244317 1_554
Rh6 Zr1 3.244317 1_545
