# generated using pymatgen
data_Zr12Al9Fe3N4
_symmetry_space_group_name_H-M   'P 1'
_cell_length_a   8.56530312
_cell_length_b   8.56530361
_cell_length_c   8.56616838
_cell_angle_alpha   60.00334337
_cell_angle_beta   60.00333659
_cell_angle_gamma   59.99999755
_symmetry_Int_Tables_number   1
_chemical_formula_structural   Zr12Al9Fe3N4
_chemical_formula_sum   'Zr12 Al9 Fe3 N4'
_cell_volume   444.40508791
_cell_formula_units_Z   1
loop_
 _symmetry_equiv_pos_site_id
 _symmetry_equiv_pos_as_xyz
  1  'x, y, z'
loop_
 _atom_site_type_symbol
 _atom_site_label
 _atom_site_symmetry_multiplicity
 _atom_site_fract_x
 _atom_site_fract_y
 _atom_site_fract_z
 _atom_site_occupancy
  Zr  Zr0  1  0.81003957  0.81003957  0.19343467  1
  Zr  Zr1  1  0.19055862  0.19055862  0.80971447  1
  Zr  Zr2  1  0.80916828  0.19055862  0.80971447  1
  Zr  Zr3  1  0.18648519  0.81003957  0.19343467  1
  Zr  Zr4  1  0.19055862  0.80916828  0.80971447  1
  Zr  Zr5  1  0.81003957  0.18648519  0.19343467  1
  Zr  Zr6  1  0.43996043  0.43996043  0.05656533  1
  Zr  Zr7  1  0.05944138  0.05944138  0.44028553  1
  Zr  Zr8  1  0.44083172  0.05944138  0.44028553  1
  Zr  Zr9  1  0.06351481  0.43996043  0.05656533  1
  Zr  Zr10  1  0.05944138  0.44083172  0.44028553  1
  Zr  Zr11  1  0.43996043  0.06351481  0.05656533  1
  Al  Al0  1  0.62500000  0.62500000  0.12500000  1
  Al  Al1  1  0.73970835  0.41293631  0.43442003  1
  Al  Al2  1  0.41293631  0.73970835  0.43442003  1
  Al  Al3  1  0.41944798  0.41944798  0.74165606  1
  Al  Al4  1  0.41293631  0.41293631  0.43442003  1
  Al  Al5  1  0.51029165  0.83706369  0.81557997  1
  Al  Al6  1  0.83706369  0.51029165  0.81557997  1
  Al  Al7  1  0.83055202  0.83055202  0.50834394  1
  Al  Al8  1  0.83706369  0.83706369  0.81557997  1
  Fe  Fe0  1  0.12500000  0.62500000  0.62500000  1
  Fe  Fe1  1  0.62500000  0.12500000  0.62500000  1
  Fe  Fe2  1  0.62500000  0.62500000  0.62500000  1
  N  N0  1  0.62500000  0.12500000  0.12500000  1
  N  N1  1  0.12500000  0.62500000  0.12500000  1
  N  N2  1  0.12500000  0.12500000  0.62500000  1
  N  N3  1  0.12500000  0.12500000  0.12500000  1
loop_
_geom_bond_atom_site_label_1
_geom_bond_atom_site_label_2
_geom_bond_distance
_geom_bond_site_symmetry_2
Al0 Al8 2.700987 1_554
Al0 Al4 2.700987 1_555
Al0 Al2 2.700991 1_555
Al0 Al6 2.700991 1_554
Al0 Al1 2.700991 1_555
Al0 Al5 2.700991 1_554
Al0 Zr0 3.120516 1_555
Al0 Zr6 3.120516 1_555
Al0 Zr9 3.120523 1_655
Al0 Zr3 3.120523 1_555
Al0 Zr11 3.120523 1_565
Al0 Zr5 3.120523 1_555
Al1 Fe2 2.550758 1_555
Al1 Fe1 2.550765 1_555
Al1 Al3 2.688766 1_555
Al1 Al2 2.798902 1_555
Al1 Al4 2.798902 1_555
Al1 Zr10 2.891978 1_655
Al1 Zr7 2.891982 1_655
Al1 Zr2 2.995596 1_555
Al1 Zr9 3.023097 1_655
Al1 Zr0 3.158810 1_555
Al1 Zr5 3.158824 1_555
Al2 Fe2 2.550758 1_555
Al2 Fe0 2.550765 1_555
Al2 Al3 2.688766 1_555
Al2 Al4 2.798902 1_555
Al2 Zr8 2.891978 1_565
Al2 Zr7 2.891982 1_565
Al2 Zr4 2.995596 1_555
Al2 Zr11 3.023098 1_565
Al2 Zr0 3.158809 1_555
Al2 Zr3 3.158824 1_555
Al3 Fe1 2.603747 1_555
Al3 Fe0 2.603747 1_555
Al3 Fe2 2.603747 1_555
Al3 Al4 2.688762 1_555
Al3 Zr9 2.883963 1_556
Al3 Zr11 2.883963 1_556
Al3 Zr6 2.883968 1_556
Al3 Zr2 3.095954 1_555
Al3 Zr4 3.095954 1_555
Al3 Zr1 3.095954 1_555
Al4 Fe0 2.550760 1_555
Al4 Fe1 2.550761 1_555
Al4 Zr10 2.891986 1_555
Al4 Zr8 2.891986 1_555
Al4 Zr1 2.995600 1_555
Al4 Zr6 3.023098 1_555
Al4 Zr5 3.158816 1_555
Al4 Zr3 3.158817 1_555
Al5 Fe2 2.550758 1_555
Al5 Fe1 2.550765 1_565
Al5 Al7 2.688766 1_555
Al5 Al6 2.798902 1_555
Al5 Al8 2.798902 1_555
Al5 Zr4 2.891978 1_555
Al5 Zr1 2.891982 1_565
Al5 Zr8 2.995596 1_565
Al5 Zr3 3.023097 1_556
Al5 Zr6 3.158810 1_556
Al5 Zr11 3.158824 1_566
Al6 Fe2 2.550758 1_555
Al6 Fe0 2.550765 1_655
Al6 Al7 2.688766 1_555
Al6 Al8 2.798902 1_555
Al6 Zr2 2.891978 1_555
Al6 Zr1 2.891982 1_655
Al6 Zr10 2.995596 1_655
Al6 Zr5 3.023098 1_556
Al6 Zr6 3.158809 1_556
Al6 Zr9 3.158824 1_656
Al7 Fe1 2.603747 1_565
Al7 Fe0 2.603747 1_655
Al7 Fe2 2.603747 1_555
Al7 Al8 2.688762 1_555
Al7 Zr3 2.883963 1_655
Al7 Zr5 2.883963 1_565
Al7 Zr0 2.883968 1_555
Al7 Zr8 3.095954 1_565
Al7 Zr10 3.095954 1_655
Al7 Zr7 3.095954 1_665
Al8 Fe0 2.550760 1_655
Al8 Fe1 2.550761 1_565
Al8 Zr4 2.891986 1_655
Al8 Zr2 2.891986 1_565
Al8 Zr7 2.995600 1_665
Al8 Zr0 3.023098 1_556
Al8 Zr11 3.158816 1_566
Al8 Zr9 3.158817 1_656
Fe0 Zr9 3.079843 1_556
Fe0 Zr3 3.079843 1_555
Fe0 Zr4 3.094721 1_555
Fe0 Zr10 3.094721 1_555
Fe0 Zr7 3.094722 1_565
Fe0 Zr1 3.094722 1_555
Fe1 Zr11 3.079843 1_556
Fe1 Zr5 3.079843 1_555
Fe1 Zr7 3.094721 1_655
Fe1 Zr1 3.094721 1_555
Fe1 Zr2 3.094721 1_555
Fe1 Zr8 3.094721 1_555
Fe2 Zr6 3.079841 1_556
Fe2 Zr0 3.079841 1_555
Fe2 Zr10 3.094721 1_655
Fe2 Zr4 3.094721 1_555
Fe2 Zr8 3.094721 1_565
Fe2 Zr2 3.094721 1_555
N0 Zr5 2.281530 1_555
N0 Zr11 2.281530 1_555
N0 Zr6 2.281536 1_555
N0 Zr0 2.281536 1_545
N0 Zr8 2.281966 1_555
N0 Zr2 2.281966 1_554
N1 Zr3 2.281530 1_555
N1 Zr9 2.281530 1_555
N1 Zr6 2.281536 1_555
N1 Zr0 2.281536 1_455
N1 Zr10 2.281966 1_555
N1 Zr4 2.281966 1_554
N2 Zr8 2.286140 1_555
N2 Zr2 2.286140 1_455
N2 Zr1 2.286140 1_555
N2 Zr7 2.286140 1_555
N2 Zr4 2.286140 1_545
N2 Zr10 2.286140 1_555
N3 Zr11 2.281538 1_555
N3 Zr5 2.281538 1_455
N3 Zr9 2.281538 1_555
N3 Zr3 2.281538 1_545
N3 Zr7 2.281966 1_555
N3 Zr1 2.281966 1_554
