# generated using pymatgen
data_Ta8CuNi3N2
_symmetry_space_group_name_H-M   'P 1'
_cell_length_a   8.17861559
_cell_length_b   8.17861538
_cell_length_c   8.17802987
_cell_angle_alpha   60.00236817
_cell_angle_beta   60.00236901
_cell_angle_gamma   60.01694372
_symmetry_Int_Tables_number   1
_chemical_formula_structural   Ta8CuNi3N2
_chemical_formula_sum   'Ta16 Cu2 Ni6 N4'
_cell_volume   386.86942546
_cell_formula_units_Z   2
loop_
 _symmetry_equiv_pos_site_id
 _symmetry_equiv_pos_as_xyz
  1  'x, y, z'
loop_
 _atom_site_type_symbol
 _atom_site_label
 _atom_site_symmetry_multiplicity
 _atom_site_fract_x
 _atom_site_fract_y
 _atom_site_fract_z
 _atom_site_occupancy
  Ta  Ta0  1  0.12361142  0.62222004  0.62708427  1
  Ta  Ta1  1  0.62222004  0.12361142  0.62708427  1
  Ta  Ta2  1  0.62443107  0.62443107  0.12108952  1
  Ta  Ta3  1  0.62443107  0.62443107  0.63004733  1
  Ta  Ta4  1  0.81507999  0.81507999  0.18492001  1
  Ta  Ta5  1  0.18323858  0.18323858  0.81676142  1
  Ta  Ta6  1  0.81592232  0.18398470  0.81566116  1
  Ta  Ta7  1  0.18398470  0.81592232  0.18443182  1
  Ta  Ta8  1  0.18398470  0.81592232  0.81566116  1
  Ta  Ta9  1  0.81592232  0.18398470  0.18443182  1
  Ta  Ta10  1  0.43374012  0.43374012  0.06625988  1
  Ta  Ta11  1  0.06412897  0.06412897  0.43587103  1
  Ta  Ta12  1  0.43454443  0.06677441  0.43505194  1
  Ta  Ta13  1  0.06677441  0.43454443  0.06362923  1
  Ta  Ta14  1  0.06677441  0.43454443  0.43505194  1
  Ta  Ta15  1  0.43454443  0.06677441  0.06362923  1
  Cu  Cu0  1  0.74849692  0.41783983  0.41683212  1
  Cu  Cu1  1  0.41783983  0.74849692  0.41683212  1
  Ni  Ni0  1  0.42074498  0.42074498  0.73909138  1
  Ni  Ni1  1  0.42074498  0.42074498  0.41941767  1
  Ni  Ni2  1  0.51138586  0.82926481  0.82967467  1
  Ni  Ni3  1  0.82926481  0.51138586  0.82967467  1
  Ni  Ni4  1  0.82948709  0.82948709  0.51110695  1
  Ni  Ni5  1  0.82948709  0.82948709  0.82991888  1
  N  N0  1  0.62380894  0.12501264  0.12558921  1
  N  N1  1  0.12501264  0.62380894  0.12558921  1
  N  N2  1  0.12519696  0.12519696  0.62391739  1
  N  N3  1  0.12519696  0.12519696  0.12568870  1
loop_
_geom_bond_atom_site_label_1
_geom_bond_atom_site_label_2
_geom_bond_distance
_geom_bond_site_symmetry_2
Cu0 Ta1 2.526803 1_555
Cu0 Ta3 2.527468 1_555
Cu0 Ta2 2.527482 1_555
Cu0 Ni0 2.658294 1_555
Cu0 Ni1 2.658302 1_555
Cu0 Cu1 2.705010 1_555
Cu0 Ta11 2.746691 1_655
Cu0 Ta14 2.753267 1_655
Cu0 Ta13 2.753271 1_655
Cu0 Ta4 3.003832 1_555
Cu0 Ta6 3.017776 1_555
Cu0 Ta9 3.017783 1_555
Cu1 Ta0 2.526803 1_555
Cu1 Ta3 2.527468 1_555
Cu1 Ta2 2.527482 1_555
Cu1 Ni0 2.658294 1_555
Cu1 Ni1 2.658302 1_555
Cu1 Ta11 2.746691 1_565
Cu1 Ta12 2.753267 1_565
Cu1 Ta15 2.753271 1_565
Cu1 Ta4 3.003832 1_555
Cu1 Ta8 3.017776 1_555
Cu1 Ta7 3.017783 1_555
Ni0 Ta3 2.479572 1_555
Ni0 Ta1 2.484777 1_555
Ni0 Ta0 2.484777 1_555
Ni0 Ni1 2.614301 1_555
Ni0 Ta15 2.779895 1_556
Ni0 Ta13 2.779895 1_556
Ni0 Ta10 2.785925 1_556
Ni0 Ta8 3.023838 1_555
Ni0 Ta6 3.023838 1_555
Ni0 Ta5 3.041981 1_555
Ni1 Ta2 2.479572 1_555
Ni1 Ta1 2.484782 1_555
Ni1 Ta0 2.484782 1_555
Ni1 Ta12 2.779891 1_555
Ni1 Ta14 2.779891 1_555
Ni1 Ta10 2.785917 1_555
Ni1 Ta7 3.023834 1_555
Ni1 Ta9 3.023834 1_555
Ni1 Ta5 3.041984 1_555
Ni2 Ta2 2.450287 1_556
Ni2 Ta3 2.450293 1_555
Ni2 Ta1 2.460311 1_565
Ni2 Ni3 2.600476 1_555
Ni2 Ni5 2.603536 1_555
Ni2 Ni4 2.603536 1_555
Ni2 Ta7 2.794004 1_556
Ni2 Ta8 2.794004 1_555
Ni2 Ta5 2.794111 1_565
Ni2 Ta15 3.020388 1_566
Ni2 Ta12 3.020388 1_565
Ni2 Ta10 3.029392 1_556
Ni3 Ta2 2.450287 1_556
Ni3 Ta3 2.450293 1_555
Ni3 Ta0 2.460311 1_655
Ni3 Ni5 2.603536 1_555
Ni3 Ni4 2.603536 1_555
Ni3 Ta9 2.794004 1_556
Ni3 Ta6 2.794004 1_555
Ni3 Ta5 2.794111 1_655
Ni3 Ta13 3.020388 1_656
Ni3 Ta14 3.020388 1_655
Ni3 Ta10 3.029392 1_556
Ni4 Ta3 2.473883 1_555
Ni4 Ta1 2.481486 1_565
Ni4 Ta0 2.481486 1_655
Ni4 Ni5 2.607253 1_555
Ni4 Ta9 2.790207 1_565
Ni4 Ta7 2.790207 1_655
Ni4 Ta4 2.790367 1_555
Ni4 Ta11 3.010574 1_665
Ni4 Ta14 3.020450 1_655
Ni4 Ta12 3.020450 1_565
Ni5 Ta2 2.473880 1_556
Ni5 Ta1 2.481486 1_565
Ni5 Ta0 2.481486 1_655
Ni5 Ta6 2.790207 1_565
Ni5 Ta8 2.790207 1_655
Ni5 Ta4 2.790367 1_556
Ni5 Ta11 3.010574 1_665
Ni5 Ta13 3.020450 1_656
Ni5 Ta15 3.020450 1_566
N0 Ta10 2.152545 1_555
N0 Ta12 2.154582 1_555
N0 Ta15 2.154582 1_555
N0 Ta4 2.161886 1_545
N0 Ta9 2.162979 1_555
N0 Ta6 2.162979 1_554
N1 Ta10 2.152545 1_555
N1 Ta14 2.154582 1_555
N1 Ta13 2.154582 1_555
N1 Ta4 2.161886 1_455
N1 Ta8 2.162979 1_554
N1 Ta7 2.162979 1_555
N2 Ta14 2.153419 1_555
N2 Ta12 2.153419 1_555
N2 Ta11 2.156214 1_555
N2 Ta5 2.158767 1_555
N2 Ta8 2.158791 1_545
N2 Ta6 2.158791 1_455
N3 Ta13 2.153419 1_555
N3 Ta15 2.153419 1_555
N3 Ta11 2.156214 1_555
N3 Ta5 2.158767 1_554
N3 Ta7 2.158791 1_545
N3 Ta9 2.158791 1_455
