# generated using pymatgen
data_Yb3Al5O12
_symmetry_space_group_name_H-M   'P 1'
_cell_length_a   10.48665658
_cell_length_b   10.48665658
_cell_length_c   10.48665658
_cell_angle_alpha   109.47122063
_cell_angle_beta   109.47122063
_cell_angle_gamma   109.47122063
_symmetry_Int_Tables_number   1
_chemical_formula_structural   Yb3Al5O12
_chemical_formula_sum   'Yb12 Al20 O48'
_cell_volume   887.74706859
_cell_formula_units_Z   4
loop_
 _symmetry_equiv_pos_site_id
 _symmetry_equiv_pos_as_xyz
  1  'x, y, z'
loop_
 _atom_site_type_symbol
 _atom_site_label
 _atom_site_symmetry_multiplicity
 _atom_site_fract_x
 _atom_site_fract_y
 _atom_site_fract_z
 _atom_site_occupancy
  Yb  Yb0  1  0.87500000  0.75000000  0.62500000  1
  Yb  Yb1  1  0.87500000  0.62500000  0.25000000  1
  Yb  Yb2  1  0.62500000  0.87500000  0.75000000  1
  Yb  Yb3  1  0.25000000  0.87500000  0.62500000  1
  Yb  Yb4  1  0.75000000  0.62500000  0.87500000  1
  Yb  Yb5  1  0.62500000  0.25000000  0.87500000  1
  Yb  Yb6  1  0.12500000  0.25000000  0.37500000  1
  Yb  Yb7  1  0.12500000  0.37500000  0.75000000  1
  Yb  Yb8  1  0.37500000  0.12500000  0.25000000  1
  Yb  Yb9  1  0.75000000  0.12500000  0.37500000  1
  Yb  Yb10  1  0.25000000  0.37500000  0.12500000  1
  Yb  Yb11  1  0.37500000  0.75000000  0.12500000  1
  Al  Al0  1  0.12500000  0.75000000  0.87500000  1
  Al  Al1  1  0.87500000  0.25000000  0.12500000  1
  Al  Al2  1  0.75000000  0.37500000  0.62500000  1
  Al  Al3  1  0.12500000  0.87500000  0.25000000  1
  Al  Al4  1  0.25000000  0.12500000  0.87500000  1
  Al  Al5  1  0.37500000  0.62500000  0.75000000  1
  Al  Al6  1  0.37500000  0.25000000  0.62500000  1
  Al  Al7  1  0.87500000  0.12500000  0.75000000  1
  Al  Al8  1  0.62500000  0.37500000  0.25000000  1
  Al  Al9  1  0.75000000  0.87500000  0.12500000  1
  Al  Al10  1  0.25000000  0.62500000  0.37500000  1
  Al  Al11  1  0.62500000  0.75000000  0.37500000  1
  Al  Al12  1  0.50000000  0.00000000  0.50000000  1
  Al  Al13  1  0.00000000  0.50000000  0.00000000  1
  Al  Al14  1  0.50000000  0.50000000  0.50000000  1
  Al  Al15  1  0.00000000  0.00000000  0.50000000  1
  Al  Al16  1  0.00000000  0.00000000  0.00000000  1
  Al  Al17  1  0.00000000  0.50000000  0.50000000  1
  Al  Al18  1  0.50000000  0.50000000  0.00000000  1
  Al  Al19  1  0.50000000  0.00000000  0.00000000  1
  O  O0  1  0.88560600  0.40220800  0.08219700  1
  O  O1  1  0.08219700  0.88560600  0.40220800  1
  O  O2  1  0.69659100  0.51660200  0.61439400  1
  O  O3  1  0.67998900  0.09779200  0.98339800  1
  O  O4  1  0.51660200  0.40220800  0.82001100  1
  O  O5  1  0.41780300  0.82001100  0.80340900  1
  O  O6  1  0.08219700  0.69659100  0.67998900  1
  O  O7  1  0.40220800  0.08219700  0.88560600  1
  O  O8  1  0.98339800  0.80340900  0.88560600  1
  O  O9  1  0.67998900  0.08219700  0.69659100  1
  O  O10  1  0.40220800  0.82001100  0.51660200  1
  O  O11  1  0.09779200  0.61439400  0.41780300  1
  O  O12  1  0.61439400  0.41780300  0.09779200  1
  O  O13  1  0.69659100  0.67998900  0.08219700  1
  O  O14  1  0.88560600  0.98339800  0.80340900  1
  O  O15  1  0.80340900  0.88560600  0.98339800  1
  O  O16  1  0.82001100  0.51660200  0.40220800  1
  O  O17  1  0.61439400  0.69659100  0.51660200  1
  O  O18  1  0.82001100  0.80340900  0.41780300  1
  O  O19  1  0.01660200  0.19659100  0.11439400  1
  O  O20  1  0.98339800  0.67998900  0.09779200  1
  O  O21  1  0.09779200  0.98339800  0.67998900  1
  O  O22  1  0.80340900  0.41780300  0.82001100  1
  O  O23  1  0.41780300  0.09779200  0.61439400  1
  O  O24  1  0.11439400  0.59779200  0.91780300  1
  O  O25  1  0.91780300  0.11439400  0.59779200  1
  O  O26  1  0.30340900  0.48339800  0.38560600  1
  O  O27  1  0.32001100  0.90220800  0.01660200  1
  O  O28  1  0.48339800  0.59779200  0.17998900  1
  O  O29  1  0.58219700  0.17998900  0.19659100  1
  O  O30  1  0.91780300  0.30340900  0.32001100  1
  O  O31  1  0.59779200  0.91780300  0.11439400  1
  O  O32  1  0.58219700  0.90220800  0.38560600  1
  O  O33  1  0.19659100  0.58219700  0.17998900  1
  O  O34  1  0.90220800  0.01660200  0.32001100  1
  O  O35  1  0.48339800  0.38560600  0.30340900  1
  O  O36  1  0.01660200  0.32001100  0.90220800  1
  O  O37  1  0.17998900  0.19659100  0.58219700  1
  O  O38  1  0.38560600  0.30340900  0.48339800  1
  O  O39  1  0.17998900  0.48339800  0.59779200  1
  O  O40  1  0.19659100  0.11439400  0.01660200  1
  O  O41  1  0.11439400  0.01660200  0.19659100  1
  O  O42  1  0.30340900  0.32001100  0.91780300  1
  O  O43  1  0.38560600  0.58219700  0.90220800  1
  O  O44  1  0.90220800  0.38560600  0.58219700  1
  O  O45  1  0.59779200  0.17998900  0.48339800  1
  O  O46  1  0.32001100  0.91780300  0.30340900  1
  O  O47  1  0.51660200  0.61439400  0.69659100  1
loop_
_geom_bond_atom_site_label_1
_geom_bond_atom_site_label_2
_geom_bond_distance
_geom_bond_site_symmetry_2
Al0 O27 1.775983 1_556
Al0 O24 1.775983 1_555
Al0 O6 1.775983 1_555
Al0 O8 1.775983 1_455
Al1 O30 1.775983 1_555
Al1 O19 1.775983 1_655
Al1 O0 1.775983 1_555
Al1 O3 1.775983 1_554
Al2 O45 1.775983 1_555
Al2 O44 1.775983 1_555
Al2 O2 1.775983 1_555
Al2 O22 1.775983 1_555
Al3 O46 1.775983 1_555
Al3 O1 1.775983 1_555
Al3 O41 1.775983 1_565
Al3 O20 1.775983 1_455
Al4 O42 1.775983 1_555
Al4 O7 1.775983 1_555
Al4 O40 1.775983 1_556
Al4 O21 1.775983 1_545
Al5 O39 1.775983 1_555
Al5 O47 1.775983 1_555
Al5 O43 1.775983 1_555
Al5 O5 1.775983 1_555
Al6 O38 1.775983 1_555
Al6 O37 1.775983 1_555
Al6 O23 1.775983 1_555
Al6 O4 1.775983 1_555
Al7 O36 1.775983 1_655
Al7 O14 1.775983 1_545
Al7 O25 1.775983 1_555
Al7 O9 1.775983 1_555
Al8 O29 1.775983 1_555
Al8 O12 1.775983 1_555
Al8 O35 1.775983 1_555
Al8 O16 1.775983 1_555
Al9 O34 1.775983 1_565
Al9 O31 1.775983 1_555
Al9 O13 1.775983 1_555
Al9 O15 1.775983 1_554
Al10 O33 1.775983 1_555
Al10 O26 1.775983 1_555
Al10 O11 1.775983 1_555
Al10 O10 1.775983 1_555
Al11 O28 1.775983 1_555
Al11 O18 1.775983 1_555
Al11 O32 1.775983 1_555
Al11 O17 1.775983 1_555
Al12 O10 1.921523 1_545
Al12 O32 1.921523 1_545
Al12 O9 1.921523 1_555
Al12 O45 1.921523 1_555
Al12 O23 1.921523 1_555
Al12 O46 1.921523 1_545
Al13 O20 1.921523 1_455
Al13 O22 1.921523 1_454
Al13 O24 1.921523 1_554
Al13 O0 1.921523 1_455
Al13 O36 1.921523 1_554
Al13 O33 1.921523 1_555
Al14 O2 1.921523 1_555
Al14 O17 1.921523 1_555
Al14 O47 1.921523 1_555
Al14 O38 1.921523 1_555
Al14 O26 1.921523 1_555
Al14 O35 1.921523 1_555
Al15 O18 1.921523 1_445
Al15 O25 1.921523 1_455
Al15 O21 1.921523 1_545
Al15 O37 1.921523 1_555
Al15 O1 1.921523 1_545
Al15 O34 1.921523 1_455
Al16 O15 1.921523 1_444
Al16 O8 1.921523 1_444
Al16 O14 1.921523 1_444
Al16 O40 1.921523 1_555
Al16 O19 1.921523 1_555
Al16 O41 1.921523 1_555
Al17 O16 1.921523 1_455
Al17 O44 1.921523 1_455
Al17 O6 1.921523 1_555
Al17 O39 1.921523 1_555
Al17 O11 1.921523 1_555
Al17 O30 1.921523 1_455
Al18 O13 1.921523 1_555
Al18 O4 1.921523 1_554
Al18 O43 1.921523 1_554
Al18 O28 1.921523 1_555
Al18 O42 1.921523 1_554
Al18 O12 1.921523 1_555
Al19 O31 1.921523 1_545
Al19 O5 1.921523 1_544
Al19 O3 1.921523 1_554
Al19 O7 1.921523 1_554
Al19 O27 1.921523 1_545
Al19 O29 1.921523 1_555
O0 Yb5 2.357670 1_554
O0 Yb1 2.475938 1_555
O1 Yb1 2.357670 1_455
O1 Yb3 2.475938 1_555
O2 Yb4 2.357670 1_555
O2 Yb0 2.475938 1_555
O3 Yb5 2.357670 1_555
O3 Yb2 2.475938 1_545
O4 Yb5 2.357670 1_555
O4 Yb4 2.475938 1_555
O5 Yb2 2.357670 1_555
O5 Yb3 2.475938 1_555
O6 Yb0 2.357670 1_455
O6 Yb3 2.475938 1_555
O7 Yb3 2.357670 1_545
O7 Yb5 2.475938 1_555
O8 Yb0 2.357670 1_555
O8 Yb4 2.475938 1_555
O9 Yb2 2.357670 1_545
O9 Yb5 2.475938 1_555
O10 Yb3 2.357670 1_555
O10 Yb2 2.475938 1_555
O11 Yb3 2.357670 1_555
O11 Yb1 2.475938 1_455
O12 Yb1 2.357670 1_555
O12 Yb5 2.475938 1_554
O13 Yb4 2.357670 1_554
O13 Yb1 2.475938 1_555
O14 Yb2 2.357670 1_555
O14 Yb0 2.475938 1_555
O15 Yb4 2.357670 1_555
O15 Yb2 2.475938 1_555
O16 Yb1 2.357670 1_555
O16 Yb0 2.475938 1_555
O17 Yb0 2.357670 1_555
O17 Yb2 2.475938 1_555
O18 Yb0 2.357670 1_555
O18 Yb1 2.475938 1_555
O19 Yb6 2.357670 1_555
O19 Yb10 2.475938 1_555
O20 Yb1 2.357670 1_555
O20 Yb4 2.475938 1_554
O21 Yb3 2.357670 1_555
O21 Yb0 2.475938 1_455
O22 Yb4 2.357670 1_555
O22 Yb5 2.475938 1_555
O23 Yb5 2.357670 1_555
O23 Yb3 2.475938 1_545
O24 Yb11 2.357670 1_556
O24 Yb7 2.475938 1_555
O25 Yb7 2.357670 1_655
O25 Yb9 2.475938 1_555
O26 Yb10 2.357670 1_555
O26 Yb6 2.475938 1_555
O27 Yb11 2.357670 1_555
O27 Yb8 2.475938 1_565
O28 Yb11 2.357670 1_555
O28 Yb10 2.475938 1_555
O29 Yb8 2.357670 1_555
O29 Yb9 2.475938 1_555
O30 Yb6 2.357670 1_655
O30 Yb9 2.475938 1_555
O31 Yb9 2.357670 1_565
O31 Yb11 2.475938 1_555
O32 Yb11 2.357670 1_555
O32 Yb9 2.475938 1_565
O33 Yb10 2.357670 1_555
O33 Yb11 2.475938 1_555
O34 Yb9 2.357670 1_555
O34 Yb6 2.475938 1_655
O35 Yb8 2.357670 1_555
O35 Yb10 2.475938 1_555
O36 Yb7 2.357670 1_555
O36 Yb10 2.475938 1_556
O37 Yb6 2.357670 1_555
O37 Yb7 2.475938 1_555
O38 Yb6 2.357670 1_555
O38 Yb8 2.475938 1_555
O39 Yb7 2.357670 1_555
O39 Yb6 2.475938 1_555
O40 Yb10 2.357670 1_555
O40 Yb8 2.475938 1_555
O41 Yb8 2.357670 1_555
O41 Yb6 2.475938 1_555
O42 Yb10 2.357670 1_556
O42 Yb7 2.475938 1_555
O43 Yb7 2.357670 1_555
O43 Yb11 2.475938 1_556
O44 Yb9 2.357670 1_555
O44 Yb7 2.475938 1_655
O45 Yb9 2.357670 1_555
O45 Yb8 2.475938 1_555
O46 Yb8 2.357670 1_565
O46 Yb11 2.475938 1_555
O47 Yb2 2.357670 1_555
O47 Yb4 2.475938 1_555
