# generated using pymatgen
data_Zr12Zn9Pd3N4
_symmetry_space_group_name_H-M   'P 1'
_cell_length_a   8.54919624
_cell_length_b   8.54919625
_cell_length_c   8.54919687
_cell_angle_alpha   60.11233014
_cell_angle_beta   60.11233009
_cell_angle_gamma   60.11232670
_symmetry_Int_Tables_number   1
_chemical_formula_structural   Zr12Zn9Pd3N4
_chemical_formula_sum   'Zr12 Zn9 Pd3 N4'
_cell_volume   442.96025003
_cell_formula_units_Z   1
loop_
 _symmetry_equiv_pos_site_id
 _symmetry_equiv_pos_as_xyz
  1  'x, y, z'
loop_
 _atom_site_type_symbol
 _atom_site_label
 _atom_site_symmetry_multiplicity
 _atom_site_fract_x
 _atom_site_fract_y
 _atom_site_fract_z
 _atom_site_occupancy
  Zr  Zr0  1  0.81198330  0.18803243  0.18803243  1
  Zr  Zr1  1  0.18803243  0.81198330  0.18803243  1
  Zr  Zr2  1  0.81216636  0.81216636  0.18582621  1
  Zr  Zr3  1  0.18582621  0.81216636  0.81216636  1
  Zr  Zr4  1  0.81216636  0.18582621  0.81216636  1
  Zr  Zr5  1  0.18803243  0.18803243  0.81198330  1
  Zr  Zr6  1  0.43801670  0.06196757  0.06196757  1
  Zr  Zr7  1  0.06196757  0.43801670  0.06196757  1
  Zr  Zr8  1  0.43783364  0.43783364  0.06417379  1
  Zr  Zr9  1  0.06417379  0.43783364  0.43783364  1
  Zr  Zr10  1  0.43783364  0.06417379  0.43783364  1
  Zr  Zr11  1  0.06196757  0.06196757  0.43801670  1
  Zn  Zn0  1  0.41943833  0.41943833  0.74345606  1
  Zn  Zn1  1  0.41965070  0.41965070  0.41965070  1
  Zn  Zn2  1  0.74345606  0.41943833  0.41943833  1
  Zn  Zn3  1  0.41943833  0.74345606  0.41943833  1
  Zn  Zn4  1  0.83056167  0.83056167  0.50654394  1
  Zn  Zn5  1  0.83034930  0.83034930  0.83034930  1
  Zn  Zn6  1  0.50654394  0.83056167  0.83056167  1
  Zn  Zn7  1  0.83056167  0.50654394  0.83056167  1
  Zn  Zn8  1  0.62500000  0.62500000  0.62500000  1
  Pd  Pd0  1  0.62500000  0.62500000  0.12500000  1
  Pd  Pd1  1  0.12500000  0.62500000  0.62500000  1
  Pd  Pd2  1  0.62500000  0.12500000  0.62500000  1
  N  N0  1  0.12500000  0.12500000  0.62500000  1
  N  N1  1  0.12500000  0.12500000  0.12500000  1
  N  N2  1  0.62500000  0.12500000  0.12500000  1
  N  N3  1  0.12500000  0.62500000  0.12500000  1
loop_
_geom_bond_atom_site_label_1
_geom_bond_atom_site_label_2
_geom_bond_distance
_geom_bond_site_symmetry_2
Zn0 Zn8 2.594797 1_555
Zn0 Zn1 2.766468 1_555
Zn0 Zn2 2.774793 1_555
Zn0 Zn3 2.774793 1_555
Zn0 Zr7 2.904048 1_556
Zn0 Zr6 2.904048 1_556
Zn0 Zr8 2.907144 1_556
Zn0 Zr4 3.117732 1_555
Zn0 Zr3 3.117732 1_555
Zn0 Zr5 3.124292 1_555
Zn1 Zn2 2.766467 1_555
Zn1 Zn3 2.766467 1_555
Zn1 Zr9 2.892501 1_555
Zn1 Zr10 2.892501 1_555
Zn1 Zr8 2.892501 1_555
Zn1 Zr0 3.124358 1_555
Zn1 Zr1 3.124358 1_555
Zn1 Zr5 3.124358 1_555
Zn2 Zn8 2.594797 1_555
Zn2 Zn3 2.774793 1_555
Zn2 Zr11 2.904048 1_655
Zn2 Zr7 2.904048 1_655
Zn2 Zr9 2.907144 1_655
Zn2 Zr2 3.117732 1_555
Zn2 Zr4 3.117733 1_555
Zn2 Zr0 3.124292 1_555
Zn3 Zn8 2.594797 1_555
Zn3 Zr11 2.904048 1_565
Zn3 Zr6 2.904048 1_565
Zn3 Zr10 2.907144 1_565
Zn3 Zr2 3.117732 1_555
Zn3 Zr3 3.117733 1_555
Zn3 Zr1 3.124292 1_555
Zn4 Zn8 2.594797 1_555
Zn4 Zn5 2.766468 1_555
Zn4 Zn6 2.774793 1_555
Zn4 Zn7 2.774793 1_555
Zn4 Zr1 2.904048 1_655
Zn4 Zr0 2.904048 1_565
Zn4 Zr2 2.907144 1_555
Zn4 Zr10 3.117732 1_565
Zn4 Zr9 3.117732 1_655
Zn4 Zr11 3.124292 1_665
Zn5 Zn6 2.766467 1_555
Zn5 Zn7 2.766467 1_555
Zn5 Zr3 2.892501 1_655
Zn5 Zr4 2.892501 1_565
Zn5 Zr2 2.892501 1_556
Zn5 Zr6 3.124358 1_566
Zn5 Zr7 3.124358 1_656
Zn5 Zr11 3.124358 1_665
Zn6 Zn8 2.594797 1_555
Zn6 Zn7 2.774793 1_555
Zn6 Zr5 2.904048 1_565
Zn6 Zr1 2.904048 1_556
Zn6 Zr3 2.907144 1_555
Zn6 Zr8 3.117732 1_556
Zn6 Zr10 3.117733 1_565
Zn6 Zr6 3.124292 1_566
Zn7 Zn8 2.594797 1_555
Zn7 Zr5 2.904048 1_655
Zn7 Zr0 2.904048 1_556
Zn7 Zr4 2.907144 1_555
Zn7 Zr8 3.117732 1_556
Zn7 Zr9 3.117733 1_655
Zn7 Zr7 3.124292 1_656
Zn8 Zr9 3.129634 1_655
Zn8 Zr3 3.129634 1_555
Zn8 Zr10 3.129634 1_565
Zn8 Zr4 3.129634 1_555
Zn8 Zr8 3.129634 1_556
Zn8 Zr2 3.129634 1_555
Pd0 Zn5 2.601251 1_554
Pd0 Zn1 2.601251 1_555
Pd0 Zn3 2.609312 1_555
Pd0 Zn7 2.609312 1_554
Pd0 Zn2 2.609312 1_555
Pd0 Zn6 2.609312 1_554
Pd0 Zr2 3.098614 1_555
Pd0 Zr8 3.098614 1_555
Pd0 Zr7 3.114829 1_655
Pd0 Zr1 3.114829 1_555
Pd0 Zr6 3.114829 1_565
Pd0 Zr0 3.114829 1_555
Pd1 Zn5 2.601251 1_455
Pd1 Zn1 2.601251 1_555
Pd1 Zn0 2.609312 1_555
Pd1 Zn4 2.609312 1_455
Pd1 Zn3 2.609312 1_555
Pd1 Zn7 2.609312 1_455
Pd1 Zr3 3.098614 1_555
Pd1 Zr9 3.098614 1_555
Pd1 Zr5 3.114829 1_555
Pd1 Zr11 3.114829 1_565
Pd1 Zr7 3.114829 1_556
Pd1 Zr1 3.114829 1_555
Pd2 Zn5 2.601251 1_545
Pd2 Zn1 2.601251 1_555
Pd2 Zn0 2.609312 1_555
Pd2 Zn4 2.609312 1_545
Pd2 Zn2 2.609312 1_555
Pd2 Zn6 2.609312 1_545
Pd2 Zr4 3.098614 1_555
Pd2 Zr10 3.098614 1_555
Pd2 Zr5 3.114829 1_555
Pd2 Zr11 3.114829 1_655
Pd2 Zr6 3.114829 1_556
Pd2 Zr0 3.114829 1_555
N0 Zr5 2.267721 1_555
N0 Zr11 2.267721 1_555
N0 Zr10 2.271981 1_555
N0 Zr4 2.271981 1_455
N0 Zr9 2.271981 1_555
N0 Zr3 2.271981 1_545
N1 Zr6 2.270916 1_555
N1 Zr0 2.270916 1_455
N1 Zr7 2.270916 1_555
N1 Zr1 2.270916 1_545
N1 Zr11 2.270917 1_555
N1 Zr5 2.270917 1_554
N2 Zr0 2.267721 1_555
N2 Zr6 2.267721 1_555
N2 Zr8 2.271981 1_555
N2 Zr2 2.271981 1_545
N2 Zr10 2.271981 1_555
N2 Zr4 2.271981 1_554
N3 Zr1 2.267721 1_555
N3 Zr7 2.267721 1_555
N3 Zr8 2.271981 1_555
N3 Zr2 2.271981 1_455
N3 Zr9 2.271981 1_555
N3 Zr3 2.271981 1_554
