# generated using pymatgen
data_Cs7B12(IrPt2)4
_symmetry_space_group_name_H-M   'P 1'
_cell_length_a   9.45914560
_cell_length_b   9.45915257
_cell_length_c   9.46048163
_cell_angle_alpha   111.62778339
_cell_angle_beta   111.62775755
_cell_angle_gamma   112.11483156
_symmetry_Int_Tables_number   1
_chemical_formula_structural   Cs7B12(IrPt2)4
_chemical_formula_sum   'Cs7 B12 Ir4 Pt8'
_cell_volume   589.07801532
_cell_formula_units_Z   1
loop_
 _symmetry_equiv_pos_site_id
 _symmetry_equiv_pos_as_xyz
  1  'x, y, z'
loop_
 _atom_site_type_symbol
 _atom_site_label
 _atom_site_symmetry_multiplicity
 _atom_site_fract_x
 _atom_site_fract_y
 _atom_site_fract_z
 _atom_site_occupancy
  Cs  Cs0  1  0.99441604  0.73771432  0.73337104  1
  Cs  Cs1  1  0.73814935  0.73587017  0.99588933  1
  Cs  Cs2  1  0.73255387  0.99629987  0.73405784  1
  Cs  Cs3  1  0.26228668  0.00558396  0.26662996  1
  Cs  Cs4  1  0.00370013  0.26744613  0.26594316  1
  Cs  Cs5  1  0.26412983  0.26184965  0.00411067  1
  Cs  Cs6  1  0.49948318  0.50051582  0.50000000  1
  B  B0  1  0.26783775  0.73216225  0.50000000  1
  B  B1  1  0.73279686  0.49764547  0.26548109  1
  B  B2  1  0.50235453  0.26720314  0.73451891  1
  B  B3  1  0.72597784  0.27402316  0.50000000  1
  B  B4  1  0.28119152  0.50352965  0.73833815  1
  B  B5  1  0.49646935  0.71880848  0.26166185  1
  B  B6  1  0.06260658  0.93739342  0.50000000  1
  B  B7  1  0.93953761  0.50266194  0.06048122  1
  B  B8  1  0.49733806  0.06046239  0.93951878  1
  B  B9  1  0.94568660  0.05431240  0.50000000  1
  B  B10  1  0.06136590  0.51466454  0.94664022  1
  B  B11  1  0.48533546  0.93863410  0.05335978  1
  Ir  Ir0  1  0.67397477  0.32602523  0.00000000  1
  Ir  Ir1  1  0.32814275  0.99896279  0.67320213  1
  Ir  Ir2  1  0.00103721  0.67185725  0.32679687  1
  Ir  Ir3  1  0.32743507  0.67256393  0.00000000  1
  Pt  Pt0  1  0.67569722  0.99977600  0.32805816  1
  Pt  Pt1  1  0.00022400  0.32430278  0.67194284  1
  Pt  Pt2  1  0.63993169  0.24745823  0.25101625  1
  Pt  Pt3  1  0.25021841  0.24981760  0.64399035  1
  Pt  Pt4  1  0.24888290  0.64148532  0.24689867  1
  Pt  Pt5  1  0.75254177  0.36007031  0.74898375  1
  Pt  Pt6  1  0.35851468  0.75111910  0.75310133  1
  Pt  Pt7  1  0.75018240  0.74978159  0.35601065  1
loop_
_geom_bond_atom_site_label_1
_geom_bond_atom_site_label_2
_geom_bond_distance
_geom_bond_site_symmetry_2
Cs0 Pt6 3.330517 1_655
Cs0 Cs6 3.556203 1_555
Cs1 Pt7 3.318098 1_556
Cs1 Cs6 3.573702 1_555
Cs2 Pt5 3.320874 1_565
Cs2 Cs6 3.566340 1_555
Cs3 Pt4 3.330520 1_545
Cs3 Cs6 3.556200 1_555
Cs4 Pt2 3.320849 1_455
Cs4 Cs6 3.566332 1_555
Cs5 Pt3 3.318092 1_554
Cs5 Cs6 3.573703 1_555
Cs6 Pt3 3.684770 1_555
Cs6 Pt7 3.684772 1_555
Cs6 Pt5 3.686181 1_555
Cs6 Pt2 3.686199 1_555
Cs6 Pt4 3.698671 1_555
Cs6 Pt6 3.698677 1_555
B0 Pt6 2.134251 1_555
B0 Pt4 2.134260 1_555
B0 Ir1 2.134985 1_555
B0 Ir2 2.134986 1_555
B0 Cs2 3.308484 1_555
B0 Cs4 3.308487 1_555
B0 Cs6 3.635584 1_555
B1 Pt2 2.120944 1_555
B1 Ir0 2.130073 1_555
B1 Pt7 2.131639 1_555
B1 Ir2 2.133605 1_655
B1 Cs5 3.339344 1_555
B1 Cs0 3.340463 1_555
B1 Cs6 3.661142 1_555
B2 Pt5 2.120941 1_555
B2 Ir0 2.130073 1_556
B2 Pt3 2.131638 1_555
B2 Ir1 2.133602 1_545
B2 Cs1 3.339347 1_555
B2 Cs3 3.340456 1_555
B2 Cs6 3.661136 1_555
B3 Pt2 2.066507 1_555
B3 Pt5 2.066510 1_555
B3 Pt1 2.234259 1_655
B3 Pt0 2.234261 1_545
B3 Cs3 3.302064 1_555
B3 Cs0 3.302064 1_555
B3 Cs6 3.554721 1_555
B4 Pt3 2.083468 1_555
B4 Pt6 2.105520 1_555
B4 Ir3 2.152498 1_556
B4 Pt1 2.219029 1_555
B4 Cs1 3.253743 1_555
B4 Cs4 3.381116 1_555
B4 Cs6 3.574562 1_555
B5 Pt7 2.083475 1_555
B5 Pt4 2.105491 1_555
B5 Ir3 2.152493 1_555
B5 Pt0 2.219028 1_555
B5 Cs5 3.253753 1_555
B5 Cs2 3.381123 1_555
B5 Cs6 3.574572 1_555
B6 B9 1.835001 1_465
B6 Ir1 2.119962 1_555
B6 Ir2 2.119965 1_555
B6 Pt3 2.245051 1_565
B6 Pt7 2.245051 1_455
B7 Ir2 2.119853 1_655
B7 Ir0 2.122456 1_555
B7 Pt4 2.234416 1_655
B7 Pt5 2.250225 1_554
B8 Ir1 2.119861 1_545
B8 Ir0 2.122457 1_556
B8 Pt6 2.234402 1_545
B8 Pt2 2.250221 1_556
B9 Pt0 2.182093 1_545
B9 Pt1 2.182099 1_655
B9 Pt7 2.193839 1_545
B9 Pt3 2.193845 1_655
B10 B7 1.845892 1_456
B10 Ir3 2.120667 1_556
B10 Pt4 2.196831 1_556
B10 Pt5 2.215813 1_455
B10 Pt1 2.233591 1_555
B11 B8 1.845893 1_564
B11 Ir3 2.120678 1_555
B11 Pt6 2.196829 1_554
B11 Pt2 2.215811 1_565
B11 Pt0 2.233598 1_555
