# generated using pymatgen
data_Ca4Sn5AsRh7
_symmetry_space_group_name_H-M   'P 1'
_cell_length_a   7.53655395
_cell_length_b   7.53655434
_cell_length_c   7.53655394
_cell_angle_alpha   109.71703952
_cell_angle_beta   108.98069142
_cell_angle_gamma   109.71704704
_symmetry_Int_Tables_number   1
_chemical_formula_structural   Ca4Sn5AsRh7
_chemical_formula_sum   'Ca4 Sn5 As1 Rh7'
_cell_volume   329.51310312
_cell_formula_units_Z   1
loop_
 _symmetry_equiv_pos_site_id
 _symmetry_equiv_pos_as_xyz
  1  'x, y, z'
loop_
 _atom_site_type_symbol
 _atom_site_label
 _atom_site_symmetry_multiplicity
 _atom_site_fract_x
 _atom_site_fract_y
 _atom_site_fract_z
 _atom_site_occupancy
  Ca  Ca0  1  0.48114902  0.47254036  0.48114902  1
  Ca  Ca1  1  0.00860966  0.52745964  0.00860966  1
  Ca  Ca2  1  0.48114902  1.00000000  0.00860966  1
  Ca  Ca3  1  0.00860966  0.00000000  0.48114902  1
  Sn  Sn0  1  0.69939258  1.00000000  0.69939258  1
  Sn  Sn1  1  0.66948616  0.68013226  0.98935490  1
  Sn  Sn2  1  0.30922164  0.31986774  0.98935490  1
  Sn  Sn3  1  0.98935490  0.68013226  0.66948616  1
  Sn  Sn4  1  0.98935490  0.31986774  0.30922164  1
  As  As0  1  0.34661306  0.00000000  0.34661306  1
  Rh  Rh0  1  0.50378032  0.75522963  0.25900995  1
  Rh  Rh1  1  0.74854968  0.24477037  0.50378032  1
  Rh  Rh2  1  0.25900995  0.75522963  0.50378032  1
  Rh  Rh3  1  0.24173205  0.50000000  0.74173205  1
  Rh  Rh4  1  0.01847303  1.00000000  0.01847303  1
  Rh  Rh5  1  0.50378032  0.24477037  0.74854968  1
  Rh  Rh6  1  0.74173205  0.50000000  0.24173205  1
loop_
_geom_bond_atom_site_label_1
_geom_bond_atom_site_label_2
_geom_bond_distance
_geom_bond_site_symmetry_2
Ca0 Rh5 3.057021 1_555
Ca0 Rh1 3.057021 1_555
Ca0 Rh6 3.072190 1_555
Ca0 Rh3 3.072190 1_555
Ca0 Rh0 3.117406 1_555
Ca0 Rh2 3.117406 1_555
Ca0 Sn4 3.119751 1_455
Ca0 Sn2 3.119751 1_554
Ca0 Sn3 3.170820 1_555
Ca0 Sn1 3.170820 1_555
Ca0 Sn0 3.260319 1_555
Ca0 Rh4 3.511866 1_545
Ca1 Rh0 3.057020 1_555
Ca1 Rh2 3.057020 1_555
Ca1 Rh6 3.072190 1_455
Ca1 Rh3 3.072190 1_554
Ca1 Rh5 3.117412 1_454
Ca1 Rh1 3.117412 1_454
Ca1 Sn3 3.119765 1_454
Ca1 Sn1 3.119765 1_454
Ca1 Sn4 3.170807 1_455
Ca1 Sn2 3.170807 1_554
Ca1 Sn0 3.260320 1_444
Ca1 Rh4 3.511872 1_555
Ca2 Rh1 3.057020 1_565
Ca2 Rh0 3.057021 1_555
Ca2 Rh6 3.072190 1_565
Ca2 Rh3 3.072190 1_554
Ca2 Rh2 3.117412 1_554
Ca2 Rh5 3.117419 1_564
Ca2 Sn3 3.119754 1_454
Ca2 Sn2 3.119758 1_564
Ca2 Sn1 3.170814 1_554
Ca2 Sn4 3.170818 1_565
Ca2 Sn0 3.260325 1_554
Ca2 Rh4 3.511864 1_555
Ca3 Rh5 3.057020 1_555
Ca3 Rh2 3.057021 1_545
Ca3 Rh6 3.072190 1_445
Ca3 Rh3 3.072190 1_555
Ca3 Rh0 3.117412 1_445
Ca3 Rh1 3.117419 1_455
Ca3 Sn1 3.119754 1_444
Ca3 Sn4 3.119758 1_455
Ca3 Sn3 3.170813 1_445
Ca3 Sn2 3.170818 1_555
Ca3 Sn0 3.260325 1_445
Ca3 Rh4 3.511864 1_545
As0 Rh1 2.530456 1_555
As0 Rh5 2.530457 1_555
As0 Rh2 2.530463 1_545
As0 Rh0 2.530463 1_545
As0 Rh4 2.872888 1_545
As0 Ca2 3.032719 1_545
As0 Ca3 3.032719 1_555
As0 Ca1 3.032723 1_545
As0 Ca0 3.032726 1_555
Rh0 Sn1 2.713276 1_554
Rh0 Sn2 2.713281 1_554
Rh0 Sn0 2.728155 1_555
Rh1 Sn3 2.713283 1_555
Rh1 Sn4 2.713293 1_555
Rh1 Sn0 2.728155 1_545
Rh2 Sn3 2.713275 1_455
Rh2 Sn4 2.713280 1_455
Rh2 Sn0 2.728155 1_555
Rh3 Sn1 2.672536 1_555
Rh3 Sn2 2.672541 1_555
Rh3 Sn3 2.706418 1_455
Rh3 Sn4 2.706423 1_455
Rh4 Sn2 2.786866 1_564
Rh4 Sn4 2.786867 1_465
Rh4 Sn1 2.786875 1_454
Rh4 Sn3 2.786875 1_454
Rh4 Sn0 2.793570 1_454
Rh5 Sn1 2.713283 1_555
Rh5 Sn2 2.713293 1_555
Rh5 Sn0 2.728155 1_545
Rh6 Sn3 2.672536 1_555
Rh6 Sn4 2.672541 1_555
Rh6 Sn1 2.706418 1_554
Rh6 Sn2 2.706422 1_554
