# generated using pymatgen
data_Ta12Mn7V5N4
_symmetry_space_group_name_H-M   'P 1'
_cell_length_a   8.10922866
_cell_length_b   8.11085939
_cell_length_c   8.11079913
_cell_angle_alpha   60.00017529
_cell_angle_beta   59.99329407
_cell_angle_gamma   59.99341569
_symmetry_Int_Tables_number   1
_chemical_formula_structural   Ta12Mn7V5N4
_chemical_formula_sum   'Ta12 Mn7 V5 N4'
_cell_volume   377.18291633
_cell_formula_units_Z   1
loop_
 _symmetry_equiv_pos_site_id
 _symmetry_equiv_pos_as_xyz
  1  'x, y, z'
loop_
 _atom_site_type_symbol
 _atom_site_label
 _atom_site_symmetry_multiplicity
 _atom_site_fract_x
 _atom_site_fract_y
 _atom_site_fract_z
 _atom_site_occupancy
  Ta  Ta0  1  0.80855122  0.80680265  0.19232204  1
  Ta  Ta1  1  0.19191369  0.19299535  0.80754595  1
  Ta  Ta2  1  0.80855457  0.19232928  0.80679127  1
  Ta  Ta3  1  0.19191960  0.80754144  0.19299985  1
  Ta  Ta4  1  0.19191571  0.80754566  0.80754275  1
  Ta  Ta5  1  0.80855208  0.19232777  0.19232304  1
  Ta  Ta6  1  0.44260888  0.44166574  0.05786207  1
  Ta  Ta7  1  0.05717667  0.05989747  0.44146108  1
  Ta  Ta8  1  0.44260409  0.05786756  0.44166224  1
  Ta  Ta9  1  0.05717511  0.44146321  0.05990124  1
  Ta  Ta10  1  0.05717812  0.44145730  0.44146381  1
  Ta  Ta11  1  0.44260520  0.05786822  0.05786778  1
  Mn  Mn0  1  0.41786583  0.74391349  0.41911264  1
  Mn  Mn1  1  0.41786616  0.41910779  0.74391632  1
  Mn  Mn2  1  0.41786690  0.41910786  0.41911373  1
  Mn  Mn3  1  0.50730705  0.83089683  0.83089747  1
  Mn  Mn4  1  0.83120704  0.50946296  0.82966532  1
  Mn  Mn5  1  0.83120470  0.82966105  0.50946834  1
  Mn  Mn6  1  0.83120749  0.82966239  0.82966543  1
  V  V0  1  0.12849177  0.62383212  0.62383960  1
  V  V1  1  0.62404994  0.12191119  0.62702021  1
  V  V2  1  0.62405038  0.62701846  0.12191401  1
  V  V3  1  0.62405167  0.62701669  0.62701784  1
  V  V4  1  0.73936181  0.42021382  0.42021161  1
  N  N0  1  0.62438375  0.12520925  0.12520149  1
  N  N1  1  0.12677838  0.62479564  0.12421270  1
  N  N2  1  0.12677955  0.12421679  0.62478875  1
  N  N3  1  0.12677766  0.12421502  0.12421545  1
loop_
_geom_bond_atom_site_label_1
_geom_bond_atom_site_label_2
_geom_bond_distance
_geom_bond_site_symmetry_2
Ta0 V4 2.913718 1_555
Ta0 V2 2.925818 1_555
Ta0 V3 2.925823 1_555
Ta1 V1 2.906493 1_555
Ta1 V0 2.908268 1_555
Ta2 V4 2.913647 1_555
Ta2 V3 2.925785 1_555
Ta2 V1 2.925806 1_555
Ta3 V2 2.906456 1_555
Ta3 V0 2.908256 1_555
Ta4 V3 2.906492 1_555
Ta4 V0 2.908275 1_555
Ta5 V4 2.913670 1_555
Ta5 V2 2.925810 1_555
Ta5 V1 2.925818 1_555
Ta6 V3 2.907358 1_554
Ta6 V2 2.907381 1_555
Ta7 V4 2.760414 1_455
Ta7 V1 2.925288 1_455
Ta7 V0 2.934277 1_545
Ta8 V1 2.907396 1_555
Ta8 V3 2.907429 1_545
Ta9 V4 2.760364 1_455
Ta9 V2 2.925278 1_455
Ta9 V0 2.934225 1_554
Ta10 V4 2.760396 1_455
Ta10 V3 2.925285 1_455
Ta10 V0 2.934254 1_555
Ta11 V1 2.907385 1_554
Ta11 V2 2.907422 1_545
Mn0 V0 2.446176 1_555
Mn0 V3 2.484699 1_555
Mn0 V2 2.484710 1_555
Mn0 V4 2.616056 1_555
Mn0 Mn1 2.634442 1_555
Mn0 Mn2 2.634444 1_555
Mn0 Ta8 2.751618 1_565
Mn0 Ta11 2.751630 1_565
Mn0 Ta7 2.755530 1_565
Mn0 Ta4 2.907843 1_555
Mn0 Ta3 2.907849 1_555
Mn0 Ta0 2.920653 1_555
Mn1 V0 2.446159 1_555
Mn1 V1 2.484714 1_555
Mn1 V3 2.484727 1_555
Mn1 V4 2.616061 1_555
Mn1 Mn2 2.634405 1_555
Mn1 Ta6 2.751592 1_556
Mn1 Ta11 2.751599 1_556
Mn1 Ta9 2.755529 1_556
Mn1 Ta1 2.907894 1_555
Mn1 Ta4 2.907899 1_555
Mn1 Ta2 2.920631 1_555
Mn2 V0 2.446147 1_555
Mn2 V1 2.484706 1_555
Mn2 V2 2.484729 1_555
Mn2 V4 2.616046 1_555
Mn2 Ta8 2.751615 1_555
Mn2 Ta6 2.751635 1_555
Mn2 Ta10 2.755545 1_555
Mn2 Ta1 2.907876 1_555
Mn2 Ta3 2.907877 1_555
Mn2 Ta5 2.920633 1_555
Mn3 V3 2.442973 1_555
Mn3 V1 2.442976 1_565
Mn3 V2 2.442981 1_556
Mn3 Mn5 2.616574 1_555
Mn3 Mn6 2.616616 1_555
Mn3 Mn4 2.616617 1_555
Mn3 Ta3 2.760054 1_556
Mn3 Ta4 2.760057 1_555
Mn3 Ta1 2.760074 1_565
Mn3 Ta6 2.917148 1_556
Mn3 Ta8 2.917174 1_565
Mn3 Ta11 2.917202 1_566
Mn4 V2 2.454600 1_556
Mn4 V3 2.454606 1_555
Mn4 V0 2.474256 1_655
Mn4 Mn5 2.597074 1_555
Mn4 Mn6 2.597095 1_555
Mn4 Ta1 2.757306 1_655
Mn4 Ta5 2.769180 1_556
Mn4 Ta2 2.769190 1_555
Mn4 Ta10 2.920763 1_655
Mn4 Ta9 2.920776 1_656
Mn4 Ta6 2.922340 1_556
Mn5 V3 2.454588 1_555
Mn5 V1 2.454606 1_565
Mn5 V0 2.474282 1_655
Mn5 Mn6 2.597071 1_555
Mn5 Ta3 2.757334 1_655
Mn5 Ta0 2.769207 1_555
Mn5 Ta5 2.769261 1_565
Mn5 Ta7 2.920790 1_665
Mn5 Ta10 2.920796 1_655
Mn5 Ta8 2.922390 1_565
Mn6 V2 2.454600 1_556
Mn6 V1 2.454612 1_565
Mn6 V0 2.474256 1_655
Mn6 Ta4 2.757316 1_655
Mn6 Ta0 2.769178 1_556
Mn6 Ta2 2.769245 1_565
Mn6 Ta9 2.920768 1_656
Mn6 Ta7 2.920779 1_665
Mn6 Ta11 2.922390 1_566
V1 V4 2.485482 1_555
V2 V4 2.485435 1_555
V3 V4 2.485434 1_555
N0 Ta11 2.162938 1_555
N0 Ta6 2.162957 1_555
N0 Ta8 2.162973 1_555
N0 Ta0 2.178515 1_545
N0 Ta5 2.178520 1_555
N0 Ta2 2.178524 1_554
N1 Ta6 2.161282 1_555
N1 Ta4 2.166120 1_554
N1 Ta3 2.166143 1_555
N1 Ta9 2.170566 1_555
N1 Ta10 2.170593 1_555
N1 Ta0 2.173284 1_455
N2 Ta8 2.161237 1_555
N2 Ta1 2.166132 1_555
N2 Ta4 2.166148 1_545
N2 Ta10 2.170521 1_555
N2 Ta7 2.170566 1_555
N2 Ta2 2.173259 1_455
N3 Ta11 2.161270 1_555
N3 Ta1 2.166117 1_554
N3 Ta3 2.166150 1_545
N3 Ta7 2.170534 1_555
N3 Ta9 2.170577 1_555
N3 Ta5 2.173272 1_455
