# generated using pymatgen
data_Sr2GeS3F2
_symmetry_space_group_name_H-M   'P 1'
_cell_length_a   5.86500259
_cell_length_b   6.02166445
_cell_length_c   18.19835829
_cell_angle_alpha   90.00000000
_cell_angle_beta   90.00000000
_cell_angle_gamma   90.00000000
_symmetry_Int_Tables_number   1
_chemical_formula_structural   Sr2GeS3F2
_chemical_formula_sum   'Sr8 Ge4 S12 F8'
_cell_volume   642.71283181
_cell_formula_units_Z   4
loop_
 _symmetry_equiv_pos_site_id
 _symmetry_equiv_pos_as_xyz
  1  'x, y, z'
loop_
 _atom_site_type_symbol
 _atom_site_label
 _atom_site_symmetry_multiplicity
 _atom_site_fract_x
 _atom_site_fract_y
 _atom_site_fract_z
 _atom_site_occupancy
  Sr  Sr0  1  0.24676063  0.49667430  0.42394912  1
  Sr  Sr1  1  0.74676063  0.00332570  0.07605088  1
  Sr  Sr2  1  0.25323937  0.99667430  0.57605088  1
  Sr  Sr3  1  0.75323937  0.50332570  0.92394912  1
  Sr  Sr4  1  0.75323937  0.50332570  0.57605088  1
  Sr  Sr5  1  0.25323937  0.99667430  0.92394912  1
  Sr  Sr6  1  0.74676063  0.00332570  0.42394912  1
  Sr  Sr7  1  0.24676063  0.49667430  0.07605088  1
  Ge  Ge0  1  0.15502962  0.59280639  0.75000000  1
  Ge  Ge1  1  0.65502962  0.90719361  0.75000000  1
  Ge  Ge2  1  0.34497038  0.09280639  0.25000000  1
  Ge  Ge3  1  0.84497038  0.40719361  0.25000000  1
  S  S0  1  0.74489191  0.51813210  0.14090563  1
  S  S1  1  0.76712573  0.54663148  0.75000000  1
  S  S2  1  0.73287427  0.04663148  0.25000000  1
  S  S3  1  0.23287427  0.45336852  0.25000000  1
  S  S4  1  0.24489191  0.98186790  0.35909437  1
  S  S5  1  0.75510809  0.01813210  0.85909437  1
  S  S6  1  0.25510809  0.48186790  0.64090563  1
  S  S7  1  0.25510809  0.48186790  0.85909437  1
  S  S8  1  0.74489191  0.51813210  0.35909437  1
  S  S9  1  0.24489191  0.98186790  0.14090563  1
  S  S10  1  0.26712573  0.95336852  0.75000000  1
  S  S11  1  0.75510809  0.01813210  0.64090563  1
  F  F0  1  0.49869130  0.25296899  0.99913368  1
  F  F1  1  0.99869130  0.24703101  0.50086632  1
  F  F2  1  0.50130870  0.74703101  0.49913368  1
  F  F3  1  0.49869130  0.25296899  0.50086632  1
  F  F4  1  0.99869130  0.24703101  0.99913368  1
  F  F5  1  0.00130870  0.75296899  0.49913368  1
  F  F6  1  0.50130870  0.74703101  0.00086632  1
  F  F7  1  0.00130870  0.75296899  0.00086632  1
loop_
_geom_bond_atom_site_label_1
_geom_bond_atom_site_label_2
_geom_bond_distance
_geom_bond_site_symmetry_2
Ge0 S7 2.175399 1_555
Ge0 S6 2.175399 1_555
Ge0 S10 2.268540 1_555
Ge0 S1 2.291985 1_455
Ge1 S5 2.175399 1_565
Ge1 S11 2.175399 1_565
Ge1 S1 2.268540 1_555
Ge1 S10 2.291985 1_555
Ge2 S4 2.175399 1_545
Ge2 S9 2.175399 1_545
Ge2 S3 2.268540 1_555
Ge2 S2 2.291985 1_555
Ge3 S8 2.175399 1_555
Ge3 S0 2.175399 1_555
Ge3 S2 2.268540 1_555
Ge3 S3 2.291985 1_655
S0 Sr1 3.151077 1_565
S0 Sr7 3.153584 1_555
S0 Sr7 3.173901 1_655
S0 Sr1 3.317086 1_555
S1 Sr4 3.177355 1_555
S1 Sr3 3.177355 1_555
S2 Sr6 3.177355 1_555
S2 Sr1 3.177355 1_555
S3 Sr0 3.177355 1_555
S3 Sr7 3.177355 1_555
S4 Sr0 3.151077 1_555
S4 Sr6 3.153584 1_465
S4 Sr6 3.173901 1_565
S4 Sr0 3.317086 1_565
S5 Sr3 3.151077 1_555
S5 Sr5 3.153584 1_645
S5 Sr5 3.173901 1_545
S5 Sr3 3.317086 1_545
S6 Sr2 3.151077 1_545
S6 Sr4 3.153584 1_555
S6 Sr4 3.173901 1_455
S6 Sr2 3.317086 1_555
S7 Sr5 3.151077 1_545
S7 Sr3 3.153584 1_555
S7 Sr3 3.173901 1_455
S7 Sr5 3.317086 1_555
S8 Sr6 3.151077 1_565
S8 Sr0 3.153584 1_555
S8 Sr0 3.173901 1_655
S8 Sr6 3.317086 1_555
S9 Sr7 3.151077 1_555
S9 Sr1 3.153584 1_465
S9 Sr1 3.173901 1_565
S9 Sr7 3.317086 1_565
S10 Sr2 3.177355 1_555
S10 Sr5 3.177355 1_555
S11 Sr4 3.151077 1_555
S11 Sr2 3.153584 1_645
S11 Sr2 3.173901 1_545
S11 Sr4 3.317086 1_545
F0 Sr7 2.509215 1_556
F0 Sr5 2.515211 1_545
F0 Sr1 2.517136 1_556
F0 Sr3 2.524608 1_555
F1 Sr6 2.509215 1_555
F1 Sr4 2.515211 1_555
F1 Sr0 2.517136 1_655
F1 Sr2 2.524608 1_645
F2 Sr4 2.509215 1_555
F2 Sr6 2.515211 1_565
F2 Sr2 2.517136 1_555
F2 Sr0 2.524608 1_555
F3 Sr0 2.509215 1_555
F3 Sr2 2.515211 1_545
F3 Sr6 2.517136 1_555
F3 Sr4 2.524608 1_555
F4 Sr1 2.509215 1_556
F4 Sr3 2.515211 1_555
F4 Sr7 2.517136 1_656
F4 Sr5 2.524608 1_645
F5 Sr2 2.509215 1_555
F5 Sr0 2.515211 1_555
F5 Sr4 2.517136 1_455
F5 Sr6 2.524608 1_465
F6 Sr3 2.509215 1_554
F6 Sr1 2.515211 1_565
F6 Sr5 2.517136 1_554
F6 Sr7 2.524608 1_555
F7 Sr5 2.509215 1_554
F7 Sr7 2.515211 1_555
F7 Sr3 2.517136 1_454
F7 Sr1 2.524608 1_465
