# generated using pymatgen
data_Ba3Fe3Si2SbO14
_symmetry_space_group_name_H-M   'P 1'
_cell_length_a   8.57244059
_cell_length_b   8.57244129
_cell_length_c   5.26553786
_cell_angle_alpha   90.00000000
_cell_angle_beta   90.00000000
_cell_angle_gamma   119.99999730
_symmetry_Int_Tables_number   1
_chemical_formula_structural   Ba3Fe3Si2SbO14
_chemical_formula_sum   'Ba3 Fe3 Si2 Sb1 O14'
_cell_volume   335.10614089
_cell_formula_units_Z   1
loop_
 _symmetry_equiv_pos_site_id
 _symmetry_equiv_pos_as_xyz
  1  'x, y, z'
loop_
 _atom_site_type_symbol
 _atom_site_label
 _atom_site_symmetry_multiplicity
 _atom_site_fract_x
 _atom_site_fract_y
 _atom_site_fract_z
 _atom_site_occupancy
  Ba  Ba0  1  0.43661641  0.00000000  0.00000000  1
  Ba  Ba1  1  0.56338359  0.56338359  0.00000000  1
  Ba  Ba2  1  0.00000000  0.43661641  0.00000000  1
  Fe  Fe0  1  0.75017773  0.00000000  0.50000000  1
  Fe  Fe1  1  0.24982227  0.24982227  0.50000000  1
  Fe  Fe2  1  0.00000000  0.75017773  0.50000000  1
  Si  Si0  1  0.66666700  0.33333300  0.48135824  1
  Si  Si1  1  0.33333300  0.66666700  0.51864176  1
  Sb  Sb0  1  0.00000000  0.00000000  0.00000000  1
  O  O0  1  0.66666700  0.33333300  0.78500451  1
  O  O1  1  0.33333300  0.66666700  0.21499549  1
  O  O2  1  0.17891913  0.70524938  0.64149270  1
  O  O3  1  0.52633025  0.82108087  0.64149270  1
  O  O4  1  0.29475062  0.47366975  0.64149270  1
  O  O5  1  0.82108087  0.52633025  0.35850730  1
  O  O6  1  0.70524938  0.17891913  0.35850730  1
  O  O7  1  0.47366975  0.29475062  0.35850730  1
  O  O8  1  0.11462431  0.89827602  0.22178729  1
  O  O9  1  0.78365171  0.88537569  0.22178729  1
  O  O10  1  0.10172398  0.21634829  0.22178729  1
  O  O11  1  0.88537569  0.78365171  0.77821271  1
  O  O12  1  0.89827602  0.11462431  0.77821271  1
  O  O13  1  0.21634829  0.10172398  0.77821271  1
loop_
_geom_bond_atom_site_label_1
_geom_bond_atom_site_label_2
_geom_bond_distance
_geom_bond_site_symmetry_2
Ba0 O8 2.708554 1_545
Ba0 O13 2.708554 1_554
Ba0 O6 2.772551 1_555
Ba0 O3 2.772551 1_544
Ba0 O1 2.775011 1_545
Ba0 O0 2.775013 1_554
Ba0 O7 3.040760 1_555
Ba0 O2 3.040760 1_544
Ba1 O11 2.708554 1_554
Ba1 O9 2.708555 1_555
Ba1 O4 2.772551 1_554
Ba1 O7 2.772551 1_555
Ba1 O1 2.775018 1_555
Ba1 O0 2.775018 1_554
Ba1 O5 3.040760 1_555
Ba1 O3 3.040760 1_554
Ba2 O10 2.708554 1_555
Ba2 O12 2.708555 1_454
Ba2 O5 2.772551 1_455
Ba2 O2 2.772551 1_554
Ba2 O0 2.775011 1_454
Ba2 O1 2.775013 1_555
Ba2 O4 3.040760 1_554
Ba2 O6 3.040760 1_455
Fe0 O12 1.864370 1_555
Fe0 O9 1.864370 1_545
Fe0 O6 1.909608 1_555
Fe0 O3 1.909608 1_545
Fe1 O10 1.864370 1_555
Fe1 O13 1.864370 1_555
Fe1 O7 1.909608 1_555
Fe1 O4 1.909608 1_555
Fe2 O11 1.864370 1_455
Fe2 O8 1.864370 1_555
Fe2 O2 1.909608 1_555
Fe2 O5 1.909608 1_455
O0 Si0 1.598861 1_555
O1 Si1 1.598861 1_555
O2 Si1 1.648588 1_555
O3 Si1 1.648593 1_555
O4 Si1 1.648596 1_555
O5 Si0 1.648593 1_555
O6 Si0 1.648588 1_555
O7 Si0 1.648595 1_555
O8 Sb0 1.986613 1_565
O9 Sb0 1.986613 1_665
O10 Sb0 1.986613 1_555
O11 Sb0 1.986613 1_666
O12 Sb0 1.986613 1_656
O13 Sb0 1.986613 1_556
