# generated using pymatgen
data_K6InTe4I
_symmetry_space_group_name_H-M   'P 1'
_cell_length_a   11.46605058
_cell_length_b   11.46605062
_cell_length_c   8.38184518
_cell_angle_alpha   90.00000000
_cell_angle_beta   90.00000000
_cell_angle_gamma   120.00430479
_symmetry_Int_Tables_number   1
_chemical_formula_structural   K6InTe4I
_chemical_formula_sum   'K12 In2 Te8 I2'
_cell_volume   954.28727733
_cell_formula_units_Z   2
loop_
 _symmetry_equiv_pos_site_id
 _symmetry_equiv_pos_as_xyz
  1  'x, y, z'
loop_
 _atom_site_type_symbol
 _atom_site_label
 _atom_site_symmetry_multiplicity
 _atom_site_fract_x
 _atom_site_fract_y
 _atom_site_fract_z
 _atom_site_occupancy
  K  K0  1  0.13745755  0.86254245  0.51273216  1
  K  K1  1  0.72508014  0.86254658  0.51280112  1
  K  K2  1  0.94983239  0.47491108  0.32193399  1
  K  K3  1  0.52507161  0.47492839  0.32194746  1
  K  K4  1  0.86254658  0.72508014  0.01280112  1
  K  K5  1  0.27491986  0.13745342  0.01280112  1
  K  K6  1  0.52508892  0.05016761  0.32193399  1
  K  K7  1  0.13745342  0.27491986  0.51280112  1
  K  K8  1  0.86254245  0.13745755  0.01273216  1
  K  K9  1  0.05016761  0.52508892  0.82193399  1
  K  K10  1  0.47491108  0.94983239  0.82193399  1
  K  K11  1  0.47492839  0.52507161  0.82194746  1
  In  In0  1  0.66665906  0.33334094  0.70691049  1
  In  In1  1  0.33334094  0.66665906  0.20691049  1
  Te  Te0  1  0.39960783  0.19975491  0.60332859  1
  Te  Te1  1  0.60039217  0.80024509  0.10332859  1
  Te  Te2  1  0.66664783  0.33335217  0.04802339  1
  Te  Te3  1  0.80024509  0.60039217  0.60332859  1
  Te  Te4  1  0.19975491  0.39960783  0.10332859  1
  Te  Te5  1  0.33335217  0.66664783  0.54802339  1
  Te  Te6  1  0.19982351  0.80017649  0.10339971  1
  Te  Te7  1  0.80017649  0.19982351  0.60339971  1
  I  I0  1  0.00005112  0.99994888  0.27146142  1
  I  I1  1  0.99994888  0.00005112  0.77146142  1
loop_
_geom_bond_atom_site_label_1
_geom_bond_atom_site_label_2
_geom_bond_distance
_geom_bond_site_symmetry_2
K0 Te3 3.596928 1_455
K0 Te0 3.596928 1_565
K0 Te6 3.647688 1_555
K0 Te5 3.901738 1_555
K1 Te7 3.597671 1_565
K1 Te3 3.597883 1_555
K1 Te1 3.648617 1_555
K1 Te5 3.900835 1_555
K2 Te3 3.611507 1_555
K2 Te7 3.611925 1_555
K2 Te2 3.630105 1_555
K2 Te6 3.845654 1_655
K2 Te4 3.845685 1_655
K3 Te3 3.612127 1_555
K3 Te0 3.612127 1_555
K3 Te2 3.630071 1_555
K3 Te4 3.846484 1_555
K3 Te1 3.846484 1_555
K4 Te6 3.597671 1_655
K4 Te1 3.597883 1_555
K4 Te3 3.648617 1_554
K4 Te2 3.900835 1_555
K5 Te6 3.597671 1_545
K5 Te4 3.597883 1_555
K5 Te0 3.648617 1_554
K5 Te2 3.900835 1_555
K6 Te0 3.611507 1_555
K6 Te7 3.611925 1_555
K6 Te2 3.630105 1_555
K6 Te6 3.845654 1_545
K6 Te1 3.845685 1_545
K7 Te7 3.597671 1_455
K7 Te0 3.597883 1_555
K7 Te4 3.648617 1_555
K7 Te5 3.900835 1_555
K8 Te4 3.596928 1_655
K8 Te1 3.596928 1_545
K8 Te7 3.647688 1_554
K8 Te2 3.901738 1_555
K9 Te4 3.611507 1_556
K9 Te6 3.611925 1_556
K9 Te5 3.630105 1_555
K9 Te7 3.845654 1_455
K9 Te3 3.845685 1_455
K10 Te1 3.611507 1_556
K10 Te6 3.611925 1_556
K10 Te5 3.630105 1_555
K10 Te7 3.845654 1_565
K10 Te0 3.845685 1_565
K11 Te4 3.612127 1_556
K11 Te1 3.612127 1_556
K11 Te5 3.630071 1_555
K11 Te3 3.846484 1_555
K11 Te0 3.846484 1_555
In0 Te7 2.790014 1_555
In0 Te0 2.790190 1_555
In0 Te3 2.790190 1_555
In0 Te2 2.859156 1_556
In0 K11 3.927996 1_555
In0 K9 3.928183 1_655
In0 K10 3.928183 1_545
In1 Te6 2.790014 1_555
In1 Te1 2.790190 1_555
In1 Te4 2.790190 1_555
In1 Te5 2.859156 1_555
In1 K3 3.927996 1_555
In1 K2 3.928183 1_455
In1 K6 3.928183 1_565
I0 K0 3.396569 1_555
I0 K1 3.398032 1_455
I0 K7 3.398032 1_565
I0 K5 3.485615 1_565
I0 K4 3.485615 1_455
I0 K8 3.487269 1_465
I1 K8 3.396569 1_556
I1 K5 3.398032 1_656
I1 K4 3.398032 1_546
I1 K1 3.485615 1_545
I1 K7 3.485615 1_655
I1 K0 3.487269 1_645
