# generated using pymatgen
data_Ti8Al15Ir6Au
_symmetry_space_group_name_H-M   'P 1'
_cell_length_a   8.63205918
_cell_length_b   8.60641690
_cell_length_c   8.63367653
_cell_angle_alpha   119.90117668
_cell_angle_beta   119.91051634
_cell_angle_gamma   90.07494310
_symmetry_Int_Tables_number   1
_chemical_formula_structural   Ti8Al15Ir6Au
_chemical_formula_sum   'Ti8 Al15 Ir6 Au1'
_cell_volume   454.53493073
_cell_formula_units_Z   1
loop_
 _symmetry_equiv_pos_site_id
 _symmetry_equiv_pos_as_xyz
  1  'x, y, z'
loop_
 _atom_site_type_symbol
 _atom_site_label
 _atom_site_symmetry_multiplicity
 _atom_site_fract_x
 _atom_site_fract_y
 _atom_site_fract_z
 _atom_site_occupancy
  Ti  Ti0  1  0.79162741  0.29260466  0.07917688  1
  Ti  Ti1  1  0.21586100  0.29187233  0.49944719  1
  Ti  Ti2  1  0.20963529  0.70697376  0.50091876  1
  Ti  Ti3  1  0.21186554  0.71365501  0.91861058  1
  Ti  Ti4  1  0.79124206  0.71282126  0.50129685  1
  Ti  Ti5  1  0.78321455  0.28609061  0.49945945  1
  Ti  Ti6  1  0.38937151  0.12712694  0.75150056  1
  Ti  Ti7  1  0.37988258  0.63493776  0.25734245  1
  Al  Al0  1  0.99701927  0.49587756  0.49922740  1
  Al  Al1  1  0.15463339  0.34318168  0.18989582  1
  Al  Al2  1  0.15770584  0.96677116  0.81666998  1
  Al  Al3  1  0.15248992  0.35152969  0.80849548  1
  Al  Al4  1  0.53983766  0.34534765  0.19576596  1
  Al  Al5  1  0.84373416  0.65293295  0.80861035  1
  Al  Al6  1  0.84228088  0.03764389  0.18553868  1
  Al  Al7  1  0.83993602  0.64921635  0.18175691  1
  Al  Al8  1  0.46950675  0.65508918  0.81308539  1
  Al  Al9  1  0.37954002  0.12231304  0.25855547  1
  Al  Al10  1  0.86066315  0.12653223  0.75203154  1
  Al  Al11  1  0.61052513  0.87489227  0.24858803  1
  Al  Al12  1  0.62136524  0.36539118  0.74225038  1
  Al  Al13  1  0.62220340  0.87647469  0.74316002  1
  Al  Al14  1  0.13782987  0.87501672  0.24778785  1
  Ir  Ir0  1  0.49858918  0.99941055  0.99804395  1
  Ir  Ir1  1  0.49775818  0.49773866  0.00118487  1
  Ir  Ir2  1  0.49770561  0.50021260  0.49827741  1
  Ir  Ir3  1  0.00257320  0.50026474  0.00283334  1
  Ir  Ir4  1  0.99974882  0.99950925  0.99923848  1
  Ir  Ir5  1  0.49982339  0.99930456  0.50128778  1
  Au  Au0  1  0.00182896  0.99926606  0.49996316  1
loop_
_geom_bond_atom_site_label_1
_geom_bond_atom_site_label_2
_geom_bond_distance
_geom_bond_site_symmetry_2
Ti0 Ti6 2.874365 1_554
Ti1 Ti6 2.969939 1_555
Ti2 Ti7 2.958226 1_555
Ti2 Ti6 3.000226 1_565
Ti3 Ti7 2.977086 1_556
Ti4 Ti7 2.936275 1_555
Al0 Ti3 2.567208 1_655
Al0 Ti2 2.570484 1_655
Al0 Ti0 2.570991 1_555
Al0 Ti4 2.578498 1_555
Al0 Ti1 2.580625 1_655
Al0 Ti5 2.581590 1_555
Al1 Ir4 2.487215 1_444
Al1 Ir2 2.494776 1_555
Al1 Ir3 2.495257 1_555
Al1 Ti1 2.717632 1_555
Al1 Ti0 2.741595 1_455
Al1 Ti2 2.753409 1_555
Al2 Ir4 2.474797 1_455
Al2 Ir0 2.480615 1_555
Al2 Au0 2.541557 1_555
Al2 Ti3 2.691202 1_555
Al2 Ti4 2.766968 1_455
Al2 Ti2 2.788560 1_555
Al3 Ir3 2.481297 1_556
Al3 Ir1 2.488361 1_556
Al3 Au0 2.541944 1_545
Al3 Ti3 2.726813 1_555
Al3 Ti5 2.759005 1_455
Al3 Ti1 2.787967 1_555
Al4 Ir2 2.491593 1_555
Al4 Ir0 2.495772 1_544
Al4 Ir1 2.502745 1_555
Al4 Ti5 2.718637 1_555
Al4 Ti4 2.761415 1_555
Al4 Ti0 2.769860 1_555
Al5 Ir4 2.510766 1_555
Al5 Ir2 2.515045 1_555
Al5 Ir3 2.515285 1_656
Al5 Ti5 2.751059 1_555
Al5 Ti4 2.770520 1_555
Al5 Ti3 2.786415 1_655
Al6 Ir4 2.489523 1_544
Al6 Ir0 2.491438 1_544
Al6 Au0 2.557675 1_645
Al6 Ti0 2.731384 1_555
Al6 Ti5 2.789402 1_555
Al6 Ti1 2.808002 1_655
Al7 Ir3 2.488723 1_655
Al7 Ir1 2.495117 1_555
Al7 Au0 2.546546 1_655
Al7 Ti0 2.701152 1_555
Al7 Ti4 2.781856 1_555
Al7 Ti2 2.807956 1_655
Al8 Ir2 2.504365 1_555
Al8 Ir0 2.504971 1_555
Al8 Ir1 2.515812 1_556
Al8 Ti1 2.743731 1_555
Al8 Ti3 2.756079 1_555
Al8 Ti2 2.769174 1_555
Al9 Ir5 2.575943 1_545
Al9 Ir2 2.660181 1_555
Al9 Ir0 2.677616 1_544
Al9 Ir4 2.681249 1_444
Al9 Ti5 2.879437 1_555
Al9 Ti1 2.891587 1_555
Al9 Ti3 2.921868 1_544
Al10 Ir5 2.547619 1_545
Al10 Ir3 2.633535 1_656
Al10 Ir4 2.639319 1_545
Al10 Au0 2.773518 1_645
Al10 Ti0 2.833994 1_556
Al10 Ti5 2.936303 1_555
Al10 Ti4 2.956163 1_545
Al11 Ir5 2.563657 1_555
Al11 Ir0 2.643975 1_554
Al11 Ir1 2.655505 1_555
Al11 Au0 2.762009 1_655
Al11 Ti3 2.855317 1_554
Al11 Ti5 2.926007 1_565
Al11 Ti4 2.963939 1_555
Al12 Ir5 2.575878 1_545
Al12 Ir2 2.668394 1_555
Al12 Ir3 2.690768 1_656
Al12 Ir1 2.697560 1_556
Al12 Ti5 2.882430 1_555
Al12 Ti1 2.898457 1_555
Al12 Ti0 2.927414 1_556
Al13 Ir5 2.568672 1_555
Al13 Ir2 2.647684 1_555
Al13 Ir4 2.664851 1_555
Al13 Ir0 2.669079 1_555
Al13 Ti4 2.930036 1_555
Al13 Ti2 2.949846 1_555
Al13 Ti0 2.962703 1_566
Al14 Ir5 2.556381 1_555
Al14 Ir4 2.630276 1_454
Al14 Ir3 2.639166 1_555
Al14 Au0 2.737336 1_555
Al14 Ti3 2.879706 1_554
Al14 Ti1 2.967837 1_565
Al14 Ti2 3.009099 1_555
Ir0 Ti6 2.638547 1_565
Ir0 Ti3 3.042049 1_555
Ir0 Ti2 3.084532 1_555
Ir0 Ti5 3.097156 1_566
Ir0 Ti0 3.116155 1_566
Ir1 Ti6 2.611821 1_554
Ir1 Ti7 2.639021 1_555
Ir1 Ti0 3.081979 1_555
Ir1 Ti4 3.098051 1_555
Ir1 Ti3 3.103204 1_554
Ir1 Ti1 3.106362 1_554
Ir2 Ti7 2.646469 1_555
Ir2 Ti1 3.027429 1_555
Ir2 Ti2 3.062367 1_555
Ir2 Ti5 3.078239 1_555
Ir2 Ti4 3.105406 1_555
Ir3 Ti7 2.663288 1_555
Ir3 Ti0 3.050760 1_455
Ir3 Ti2 3.090473 1_555
Ir3 Ti5 3.109278 1_454
Ir3 Ti3 3.130234 1_554
Ir4 Ti3 3.076543 1_655
Ir4 Ti4 3.083068 1_555
Ir4 Ti0 3.095071 1_566
Ir4 Ti1 3.095323 1_666
Ir5 Ti6 2.544282 1_565
Ir5 Ti7 2.563889 1_555
Au0 Ti6 2.735068 1_565
Au0 Ti4 3.069121 1_455
Au0 Ti2 3.092524 1_555
Au0 Ti5 3.109580 1_465
Au0 Ti1 3.124488 1_565
