# generated using pymatgen
data_Y2B4Ir3Rh2
_symmetry_space_group_name_H-M   'P 1'
_cell_length_a   7.48872419
_cell_length_b   6.30397911
_cell_length_c   5.58355246
_cell_angle_alpha   77.83450880
_cell_angle_beta   55.37534125
_cell_angle_gamma   46.79013798
_symmetry_Int_Tables_number   1
_chemical_formula_structural   Y2B4Ir3Rh2
_chemical_formula_sum   'Y2 B4 Ir3 Rh2'
_cell_volume   150.94675033
_cell_formula_units_Z   1
loop_
 _symmetry_equiv_pos_site_id
 _symmetry_equiv_pos_as_xyz
  1  'x, y, z'
loop_
 _atom_site_type_symbol
 _atom_site_label
 _atom_site_symmetry_multiplicity
 _atom_site_fract_x
 _atom_site_fract_y
 _atom_site_fract_z
 _atom_site_occupancy
  Y  Y0  1  0.85933099  0.85933099  0.14066901  1
  Y  Y1  1  0.14066901  0.14066901  0.85933099  1
  B  B0  1  0.78803305  0.47989625  0.52010375  1
  B  B1  1  0.21196695  0.52010375  0.47989625  1
  B  B2  1  0.52010375  0.21196695  0.78803305  1
  B  B3  1  0.47989625  0.78803305  0.21196695  1
  Ir  Ir0  1  0.75000000  0.75000000  0.75000000  1
  Ir  Ir1  1  0.50000000  0.50000000  0.50000000  1
  Ir  Ir2  1  0.25000000  0.25000000  0.25000000  1
  Rh  Rh0  1  0.50000000  0.50000000  0.00000000  1
  Rh  Rh1  1  0.00000000  0.00000000  0.50000000  1
loop_
_geom_bond_atom_site_label_1
_geom_bond_atom_site_label_2
_geom_bond_distance
_geom_bond_site_symmetry_2
B0 Ir2 2.114184 1_655
B0 Ir0 2.114184 1_555
B0 Ir1 2.139190 1_555
B0 Rh0 2.247064 1_556
B0 Rh1 2.247064 1_655
B0 Y0 2.970264 1_555
B0 Y1 3.111149 1_565
B0 Y1 3.111149 1_654
B1 Ir0 2.114184 1_455
B1 Ir2 2.114184 1_555
B1 Ir1 2.139190 1_555
B1 Rh0 2.247064 1_555
B1 Rh1 2.247064 1_565
B1 Y1 2.970264 1_555
B1 Y0 3.111149 1_545
B1 Y0 3.111149 1_456
B2 Ir2 2.114184 1_556
B2 Ir0 2.114184 1_545
B2 Ir1 2.139190 1_555
B2 Rh1 2.247064 1_655
B2 Rh0 2.247064 1_556
B2 Y1 2.970264 1_555
B2 Y0 3.111149 1_456
B2 Y0 3.111149 1_545
B3 Ir0 2.114184 1_554
B3 Ir2 2.114184 1_565
B3 Ir1 2.139190 1_555
B3 Rh1 2.247064 1_565
B3 Rh0 2.247064 1_555
B3 Y0 2.970264 1_555
B3 Y1 3.111149 1_654
B3 Y1 3.111149 1_565
Ir0 Y1 3.056052 1_655
Ir0 Y0 3.056052 1_555
Ir0 Y1 3.056052 1_565
Ir0 Y0 3.056052 1_556
Ir1 Y1 3.158477 1_654
Ir1 Y0 3.158477 1_456
Ir1 Y1 3.158477 1_565
Ir1 Y0 3.158477 1_545
Ir2 Y0 3.056052 1_455
Ir2 Y1 3.056052 1_555
Ir2 Y0 3.056052 1_545
Ir2 Y1 3.056052 1_554
Rh0 Y1 3.217511 1_564
Rh0 Y0 3.217511 1_545
Rh0 Y1 3.217511 1_654
Rh0 Y0 3.217511 1_455
Rh1 Y0 3.217511 1_446
Rh1 Y1 3.217511 1_554
Rh1 Y1 3.217511 1_555
Rh1 Y0 3.217511 1_445
