# generated using pymatgen
data_Ba(FeCl4)2
_symmetry_space_group_name_H-M   'P 1'
_cell_length_a   7.26631928
_cell_length_b   7.66849591
_cell_length_c   12.80503736
_cell_angle_alpha   78.89116817
_cell_angle_beta   90.00000000
_cell_angle_gamma   90.00000000
_symmetry_Int_Tables_number   1
_chemical_formula_structural   Ba(FeCl4)2
_chemical_formula_sum   'Ba2 Fe4 Cl16'
_cell_volume   700.14973586
_cell_formula_units_Z   2
loop_
 _symmetry_equiv_pos_site_id
 _symmetry_equiv_pos_as_xyz
  1  'x, y, z'
loop_
 _atom_site_type_symbol
 _atom_site_label
 _atom_site_symmetry_multiplicity
 _atom_site_fract_x
 _atom_site_fract_y
 _atom_site_fract_z
 _atom_site_occupancy
  Ba  Ba0  1  0.85641531  0.50000000  0.75000000  1
  Ba  Ba1  1  0.14358469  0.50000000  0.25000000  1
  Fe  Fe0  1  0.27376502  0.70010163  0.55768523  1
  Fe  Fe1  1  0.72623498  0.70010163  0.05768523  1
  Fe  Fe2  1  0.72623498  0.29989837  0.44231477  1
  Fe  Fe3  1  0.27376502  0.29989837  0.94231477  1
  Cl  Cl0  1  0.80315536  0.41731298  0.10308382  1
  Cl  Cl1  1  0.80315536  0.58268702  0.39691618  1
  Cl  Cl2  1  0.28669573  0.78096910  0.38352855  1
  Cl  Cl3  1  0.28669573  0.21903090  0.11647145  1
  Cl  Cl4  1  0.71330427  0.21903090  0.61647145  1
  Cl  Cl5  1  0.71330427  0.78096910  0.88352855  1
  Cl  Cl6  1  0.05855684  0.84656699  0.62556339  1
  Cl  Cl7  1  0.05855684  0.15343301  0.87443661  1
  Cl  Cl8  1  0.94144316  0.15343301  0.37443661  1
  Cl  Cl9  1  0.94144316  0.84656699  0.12556339  1
  Cl  Cl10  1  0.54402754  0.74841598  0.62338694  1
  Cl  Cl11  1  0.54402754  0.25158402  0.87661306  1
  Cl  Cl12  1  0.45597246  0.25158402  0.37661306  1
  Cl  Cl13  1  0.45597246  0.74841598  0.12338694  1
  Cl  Cl14  1  0.19684464  0.41731298  0.60308382  1
  Cl  Cl15  1  0.19684464  0.58268702  0.89691618  1
loop_
_geom_bond_atom_site_label_1
_geom_bond_atom_site_label_2
_geom_bond_distance
_geom_bond_site_symmetry_2
Ba0 Cl5 3.172837 1_555
Ba0 Cl4 3.172837 1_555
Ba0 Cl6 3.182400 1_655
Ba0 Cl7 3.182400 1_655
Ba0 Cl11 3.196849 1_555
Ba0 Cl10 3.196849 1_555
Ba0 Cl15 3.243445 1_655
Ba0 Cl14 3.243445 1_655
Ba1 Cl2 3.172837 1_555
Ba1 Cl3 3.172837 1_555
Ba1 Cl9 3.182400 1_455
Ba1 Cl8 3.182400 1_455
Ba1 Cl12 3.196849 1_555
Ba1 Cl13 3.196849 1_555
Ba1 Cl1 3.243445 1_455
Ba1 Cl0 3.243445 1_455
Cl0 Fe1 2.206179 1_555
Cl1 Fe2 2.206179 1_555
Cl2 Fe0 2.198579 1_555
Cl3 Fe3 2.198579 1_554
Cl4 Fe2 2.198579 1_555
Cl5 Fe1 2.198579 1_556
Cl6 Fe0 2.199672 1_555
Cl7 Fe3 2.199672 1_555
Cl8 Fe2 2.199672 1_555
Cl9 Fe1 2.199672 1_555
Cl10 Fe0 2.195850 1_555
Cl11 Fe3 2.195850 1_555
Cl12 Fe2 2.195850 1_555
Cl13 Fe1 2.195850 1_555
Cl14 Fe0 2.206179 1_555
Cl15 Fe3 2.206179 1_555
