# generated using pymatgen
data_HfSc(CoH3)2
_symmetry_space_group_name_H-M   'P 1'
_cell_length_a   5.52882122
_cell_length_b   5.52882137
_cell_length_c   4.38606961
_cell_angle_alpha   90.00000000
_cell_angle_beta   90.00000000
_cell_angle_gamma   144.19769292
_symmetry_Int_Tables_number   1
_chemical_formula_structural   HfSc(CoH3)2
_chemical_formula_sum   'Hf1 Sc1 Co2 H6'
_cell_volume   78.43128214
_cell_formula_units_Z   1
loop_
 _symmetry_equiv_pos_site_id
 _symmetry_equiv_pos_as_xyz
  1  'x, y, z'
loop_
 _atom_site_type_symbol
 _atom_site_label
 _atom_site_symmetry_multiplicity
 _atom_site_fract_x
 _atom_site_fract_y
 _atom_site_fract_z
 _atom_site_occupancy
  Hf  Hf0  1  0.63122696  0.36877204  0.75000000  1
  Sc  Sc0  1  0.36719262  0.63280638  0.25000100  1
  Co  Co0  1  0.08085046  0.91914854  0.25000100  1
  Co  Co1  1  0.92142802  0.07857098  0.75000000  1
  H  H0  1  0.80761166  0.19238734  0.99765703  1
  H  H1  1  0.57627408  0.42372492  0.25000100  1
  H  H2  1  0.80761166  0.19238734  0.50234397  1
  H  H3  1  0.18886191  0.81113709  0.51064944  1
  H  H4  1  0.43007571  0.56992329  0.75000000  1
  H  H5  1  0.18886191  0.81113709  0.98934956  1
loop_
_geom_bond_atom_site_label_1
_geom_bond_atom_site_label_2
_geom_bond_distance
_geom_bond_site_symmetry_2
Co0 H3 1.612036 1_555
Co0 H5 1.612045 1_554
Co0 H1 1.700108 1_455
Co0 H1 1.700108 1_565
Co1 H2 1.616844 1_555
Co1 H0 1.616847 1_555
Co1 H4 1.701860 1_655
Co1 H4 1.701860 1_545
H0 Sc0 2.122756 1_656
H0 Sc0 2.122756 1_546
H0 Hf0 2.150481 1_555
H1 Sc0 2.200023 1_555
H1 Hf0 2.267980 1_555
H1 Hf0 2.267989 1_554
H2 Sc0 2.122753 1_655
H2 Sc0 2.122753 1_545
H2 Hf0 2.150479 1_555
H3 Hf0 2.087566 1_455
H3 Hf0 2.087566 1_565
H3 Sc0 2.197279 1_555
H4 Hf0 2.116578 1_555
H4 Sc0 2.290676 1_555
H4 Sc0 2.290685 1_556
H5 Hf0 2.087564 1_455
H5 Hf0 2.087564 1_565
H5 Sc0 2.197286 1_556
