# generated using pymatgen
data_Ti3Al2RhC
_symmetry_space_group_name_H-M   'P 1'
_cell_length_a   8.17711709
_cell_length_b   8.17711748
_cell_length_c   8.17711754
_cell_angle_alpha   60.00000372
_cell_angle_beta   60.00000216
_cell_angle_gamma   60.00000300
_symmetry_Int_Tables_number   1
_chemical_formula_structural   Ti3Al2RhC
_chemical_formula_sum   'Ti12 Al8 Rh4 C4'
_cell_volume   386.62125450
_cell_formula_units_Z   4
loop_
 _symmetry_equiv_pos_site_id
 _symmetry_equiv_pos_as_xyz
  1  'x, y, z'
loop_
 _atom_site_type_symbol
 _atom_site_label
 _atom_site_symmetry_multiplicity
 _atom_site_fract_x
 _atom_site_fract_y
 _atom_site_fract_z
 _atom_site_occupancy
  Ti  Ti0  1  0.93552170  0.93552170  0.56447830  1
  Ti  Ti1  1  0.68552170  0.31447830  0.31447830  1
  Ti  Ti2  1  0.31447830  0.68552170  0.68552170  1
  Ti  Ti3  1  0.68552170  0.68552170  0.31447830  1
  Ti  Ti4  1  0.68552170  0.31447830  0.68552170  1
  Ti  Ti5  1  0.31447830  0.68552170  0.31447830  1
  Ti  Ti6  1  0.56447830  0.93552170  0.56447830  1
  Ti  Ti7  1  0.56447830  0.93552170  0.93552170  1
  Ti  Ti8  1  0.93552170  0.56447830  0.56447830  1
  Ti  Ti9  1  0.93552170  0.56447830  0.93552170  1
  Ti  Ti10  1  0.31447830  0.31447830  0.68552170  1
  Ti  Ti11  1  0.56447830  0.56447830  0.93552170  1
  Al  Al0  1  0.91554609  0.25336272  0.91554609  1
  Al  Al1  1  0.33445391  0.33445391  0.99663728  1
  Al  Al2  1  0.99663728  0.33445391  0.33445391  1
  Al  Al3  1  0.33445391  0.33445391  0.33445391  1
  Al  Al4  1  0.25336272  0.91554609  0.91554609  1
  Al  Al5  1  0.91554609  0.91554609  0.91554609  1
  Al  Al6  1  0.91554609  0.91554609  0.25336272  1
  Al  Al7  1  0.33445391  0.99663728  0.33445391  1
  Rh  Rh0  1  0.12500000  0.62500000  0.12500000  1
  Rh  Rh1  1  0.12500000  0.12500000  0.62500000  1
  Rh  Rh2  1  0.62500000  0.12500000  0.12500000  1
  Rh  Rh3  1  0.12500000  0.12500000  0.12500000  1
  C  C0  1  0.62500000  0.12500000  0.62500000  1
  C  C1  1  0.62500000  0.62500000  0.12500000  1
  C  C2  1  0.12500000  0.62500000  0.62500000  1
  C  C3  1  0.62500000  0.62500000  0.62500000  1
loop_
_geom_bond_atom_site_label_1
_geom_bond_atom_site_label_2
_geom_bond_distance
_geom_bond_site_symmetry_2
Al0 Rh3 2.511289 1_656
Al0 Rh2 2.511296 1_556
Al0 Rh1 2.511296 1_655
Al1 Rh3 2.511289 1_556
Al1 Rh2 2.511296 1_556
Al1 Rh0 2.511296 1_556
Al2 Rh3 2.511289 1_655
Al2 Rh0 2.511296 1_655
Al2 Rh1 2.511296 1_655
Al3 Rh2 2.511291 1_555
Al3 Rh1 2.511291 1_555
Al3 Rh0 2.511292 1_555
Al4 Rh3 2.511289 1_566
Al4 Rh0 2.511296 1_556
Al4 Rh1 2.511296 1_565
Al5 Rh2 2.511291 1_566
Al5 Rh1 2.511291 1_665
Al5 Rh0 2.511292 1_656
Al6 Rh3 2.511289 1_665
Al6 Rh2 2.511296 1_565
Al6 Rh0 2.511296 1_655
Al7 Rh3 2.511289 1_565
Al7 Rh2 2.511296 1_565
Al7 Rh1 2.511296 1_565
Rh0 Ti5 2.996710 1_555
Rh0 Ti9 2.996710 1_454
Rh0 Ti11 2.996710 1_554
Rh0 Ti3 2.996710 1_455
Rh0 Ti8 2.996711 1_455
Rh0 Ti2 2.996711 1_554
Rh1 Ti10 2.996710 1_555
Rh1 Ti0 2.996710 1_445
Rh1 Ti6 2.996711 1_545
Rh1 Ti4 2.996711 1_455
Rh1 Ti8 2.996711 1_455
Rh1 Ti2 2.996711 1_545
Rh2 Ti1 2.996710 1_555
Rh2 Ti7 2.996710 1_544
Rh2 Ti11 2.996711 1_554
Rh2 Ti3 2.996711 1_545
Rh2 Ti6 2.996711 1_545
Rh2 Ti4 2.996711 1_554
Rh3 Ti1 2.996711 1_455
Rh3 Ti7 2.996711 1_544
Rh3 Ti0 2.996711 1_445
Rh3 Ti10 2.996711 1_554
Rh3 Ti9 2.996711 1_454
Rh3 Ti5 2.996711 1_545
C0 Ti4 2.160767 1_555
C0 Ti6 2.160767 1_545
C0 Ti0 2.160768 1_545
C0 Ti10 2.160768 1_555
C0 Ti7 2.160768 1_545
C0 Ti1 2.160768 1_555
C1 Ti3 2.160767 1_555
C1 Ti11 2.160767 1_554
C1 Ti9 2.160768 1_554
C1 Ti5 2.160768 1_555
C1 Ti7 2.160768 1_554
C1 Ti1 2.160768 1_555
C2 Ti2 2.160767 1_555
C2 Ti8 2.160767 1_455
C2 Ti9 2.160768 1_455
C2 Ti5 2.160768 1_555
C2 Ti10 2.160768 1_555
C2 Ti0 2.160768 1_455
C3 Ti8 2.160767 1_555
C3 Ti2 2.160767 1_555
C3 Ti6 2.160768 1_555
C3 Ti4 2.160768 1_555
C3 Ti11 2.160768 1_555
C3 Ti3 2.160768 1_555
