# generated using pymatgen
data_Sr10TiW3N14
_symmetry_space_group_name_H-M   'P 1'
_cell_length_a   6.46229803
_cell_length_b   9.32172097
_cell_length_c   9.35553235
_cell_angle_alpha   114.84738164
_cell_angle_beta   97.73017334
_cell_angle_gamma   89.31014138
_symmetry_Int_Tables_number   1
_chemical_formula_structural   Sr10TiW3N14
_chemical_formula_sum   'Sr10 Ti1 W3 N14'
_cell_volume   506.13706946
_cell_formula_units_Z   1
loop_
 _symmetry_equiv_pos_site_id
 _symmetry_equiv_pos_as_xyz
  1  'x, y, z'
loop_
 _atom_site_type_symbol
 _atom_site_label
 _atom_site_symmetry_multiplicity
 _atom_site_fract_x
 _atom_site_fract_y
 _atom_site_fract_z
 _atom_site_occupancy
  Sr  Sr0  1  0.85122976  0.58498863  0.32868106  1
  Sr  Sr1  1  0.26447241  0.99132093  0.55996576  1
  Sr  Sr2  1  0.70271096  0.40979536  0.85248380  1
  Sr  Sr3  1  0.29276834  0.58490851  0.13987166  1
  Sr  Sr4  1  0.39423134  0.79397294  0.92676828  1
  Sr  Sr5  1  0.60777392  0.20657849  0.08401778  1
  Sr  Sr6  1  0.14769856  0.40469408  0.66331488  1
  Sr  Sr7  1  0.89478395  0.84899888  0.76112897  1
  Sr  Sr8  1  0.10897811  0.14943596  0.24285325  1
  Sr  Sr9  1  0.73542540  0.01615099  0.43809043  1
  Ti  Ti0  1  0.58172260  0.35457332  0.47570563  1
  W  W0  1  0.42229454  0.64463287  0.52647471  1
  W  W1  1  0.12261779  0.21583989  0.91549577  1
  W  W2  1  0.87784784  0.78048332  0.08307456  1
  N  N0  1  0.53268321  0.56037267  0.67093178  1
  N  N1  1  0.45961198  0.46158081  0.33791572  1
  N  N2  1  0.15395590  0.70734495  0.56167953  1
  N  N3  1  0.84465950  0.29239588  0.42824665  1
  N  N4  1  0.41625581  0.19489843  0.47815978  1
  N  N5  1  0.58640338  0.80990339  0.53225288  1
  N  N6  1  0.95231571  0.13783400  0.71672922  1
  N  N7  1  0.05196225  0.85827143  0.27987885  1
  N  N8  1  0.23398502  0.05193100  0.96337114  1
  N  N9  1  0.76531221  0.94505445  0.03717465  1
  N  N10  1  0.35471235  0.32881444  0.90556112  1
  N  N11  1  0.96657379  0.34714411  0.07481316  1
  N  N12  1  0.03029465  0.65086845  0.92014383  1
  N  N13  1  0.64672070  0.66721181  0.09521713  1
loop_
_geom_bond_atom_site_label_1
_geom_bond_atom_site_label_2
_geom_bond_distance
_geom_bond_site_symmetry_2
N0 W0 1.889855 1_555
N0 Ti0 2.076780 1_555
N0 Sr4 2.723982 1_555
N0 Sr2 2.743515 1_555
N0 Sr6 2.872795 1_555
N1 W0 1.912214 1_555
N1 Ti0 2.016807 1_555
N1 Sr3 2.672054 1_555
N1 Sr0 2.819215 1_555
N1 Sr5 2.832181 1_555
N2 W0 1.850592 1_555
N2 Sr0 2.587809 1_455
N2 Sr7 2.597555 1_455
N2 Sr1 2.757168 1_555
N2 Sr6 3.336557 1_555
N3 Ti0 1.839360 1_555
N3 Sr8 2.549812 1_655
N3 Sr6 2.592943 1_655
N3 Sr9 2.719994 1_555
N3 Sr5 3.145282 1_555
N3 Sr0 3.233748 1_555
N4 Ti0 1.852846 1_555
N4 Sr1 2.572245 1_545
N4 Sr9 2.602184 1_555
N4 Sr8 2.651257 1_555
N4 Sr6 2.777978 1_555
N5 W0 1.858769 1_555
N5 Sr7 2.627350 1_555
N5 Sr1 2.635744 1_555
N5 Sr9 2.663828 1_565
N5 Sr0 2.895934 1_555
N6 W1 1.878901 1_655
N6 Sr9 2.572352 1_555
N6 Sr1 2.670525 1_645
N6 Sr2 2.896304 1_555
N6 Sr7 2.926698 1_545
N6 Sr6 3.053218 1_655
N7 W2 1.876748 1_455
N7 Sr1 2.575304 1_555
N7 Sr9 2.729908 1_465
N7 Sr3 2.877238 1_555
N7 Sr8 2.910484 1_565
N7 Sr0 3.097923 1_455
N8 W1 1.874839 1_555
N8 Sr4 2.513012 1_545
N8 Sr8 2.620817 1_556
N8 Sr5 2.677667 1_556
N8 Sr7 2.817710 1_445
N9 W2 1.873353 1_555
N9 Sr5 2.516750 1_565
N9 Sr7 2.606002 1_554
N9 Sr4 2.644495 1_554
N9 Sr8 2.852365 1_665
N10 W1 1.877521 1_555
N10 Sr3 2.545506 1_556
N10 Sr2 2.555418 1_555
N10 Sr5 2.753100 1_556
N10 Sr6 2.816930 1_555
N11 W1 1.891566 1_654
N11 Sr0 2.668936 1_555
N11 Sr5 2.705971 1_555
N11 Sr2 2.760048 1_554
N11 Sr3 2.891354 1_655
N11 Sr8 2.952945 1_655
N12 W2 1.892456 1_456
N12 Sr4 2.698422 1_555
N12 Sr6 2.725721 1_555
N12 Sr3 2.753177 1_556
N12 Sr7 2.882848 1_455
N12 Sr2 2.913885 1_455
N13 W2 1.882314 1_555
N13 Sr3 2.561986 1_555
N13 Sr2 2.581944 1_554
N13 Sr4 2.714577 1_554
N13 Sr0 2.776815 1_555
