# generated using pymatgen
data_Cs5GeHSe5
_symmetry_space_group_name_H-M   'P 1'
_cell_length_a   8.25766606
_cell_length_b   8.25840735
_cell_length_c   15.13034354
_cell_angle_alpha   82.37231759
_cell_angle_beta   82.37217840
_cell_angle_gamma   110.06032025
_symmetry_Int_Tables_number   1
_chemical_formula_structural   Cs5GeHSe5
_chemical_formula_sum   'Cs10 Ge2 H2 Se10'
_cell_volume   942.86775403
_cell_formula_units_Z   2
loop_
 _symmetry_equiv_pos_site_id
 _symmetry_equiv_pos_as_xyz
  1  'x, y, z'
loop_
 _atom_site_type_symbol
 _atom_site_label
 _atom_site_symmetry_multiplicity
 _atom_site_fract_x
 _atom_site_fract_y
 _atom_site_fract_z
 _atom_site_occupancy
  Cs  Cs0  1  0.26441706  0.26443245  0.96185700  1
  Cs  Cs1  1  0.57831073  0.06570804  0.80056266  1
  Cs  Cs2  1  0.06571153  0.57829070  0.80056754  1
  Cs  Cs3  1  0.81009548  0.81010154  0.60388489  1
  Cs  Cs4  1  0.66493908  0.33504896  0.50000124  1
  Cs  Cs5  1  0.33506092  0.66495104  0.49999876  1
  Cs  Cs6  1  0.18990452  0.18989846  0.39611511  1
  Cs  Cs7  1  0.93428847  0.42170930  0.19943246  1
  Cs  Cs8  1  0.42168927  0.93429196  0.19943734  1
  Cs  Cs9  1  0.73558294  0.73556755  0.03814300  1
  Ge  Ge0  1  0.16890764  0.16883355  0.69500549  1
  Ge  Ge1  1  0.83109236  0.83116645  0.30499451  1
  H  H0  1  0.80549307  0.19450181  0.00000367  1
  H  H1  1  0.19450693  0.80549819  0.99999633  1
  Se  Se0  1  0.69683880  0.30308253  0.99996730  1
  Se  Se1  1  0.30316120  0.69691747  0.00003270  1
  Se  Se2  1  0.99487175  0.99483975  0.83442104  1
  Se  Se3  1  0.41310035  0.41295725  0.71198212  1
  Se  Se4  1  0.27215595  0.98305115  0.61584265  1
  Se  Se5  1  0.98311301  0.27215247  0.61588494  1
  Se  Se6  1  0.01688699  0.72784753  0.38411506  1
  Se  Se7  1  0.72784405  0.01694885  0.38415735  1
  Se  Se8  1  0.58689965  0.58704275  0.28801788  1
  Se  Se9  1  0.00512825  0.00516025  0.16557896  1
loop_
_geom_bond_atom_site_label_1
_geom_bond_atom_site_label_2
_geom_bond_distance
_geom_bond_site_symmetry_2
Cs0 Se9 3.467116 1_556
Cs0 Se2 3.536701 1_445
Cs0 Se0 3.605347 1_555
Cs0 Se1 3.606301 1_556
Cs0 Se3 3.716057 1_555
Cs1 Se3 3.745704 1_555
Cs1 Se2 3.769171 1_545
Cs1 Se5 3.772838 1_555
Cs1 Se1 3.813009 1_546
Cs1 Se0 3.865403 1_555
Cs1 Se4 3.983352 1_545
Cs2 Se3 3.747246 1_555
Cs2 Se2 3.769229 1_455
Cs2 Se4 3.773206 1_555
Cs2 Se0 3.812711 1_455
Cs2 Se1 3.866610 1_556
Cs2 Se5 3.982926 1_455
Cs3 Se4 3.625517 1_655
Cs3 Se5 3.625932 1_565
Cs3 Se3 3.735696 1_555
Cs3 Se7 3.784150 1_565
Cs3 Se6 3.784478 1_655
Cs4 Se7 3.487105 1_555
Cs4 Se5 3.487778 1_555
Cs4 Se4 3.565456 1_545
Cs4 Se6 3.565576 1_655
Cs4 Se3 3.836764 1_555
Cs4 Se8 3.837992 1_555
Cs5 Se4 3.487105 1_555
Cs5 Se6 3.487778 1_555
Cs5 Se7 3.565456 1_565
Cs5 Se5 3.565576 1_455
Cs5 Se8 3.836764 1_555
Cs5 Se3 3.837992 1_555
Cs6 Se7 3.625517 1_455
Cs6 Se6 3.625932 1_545
Cs6 Se8 3.735696 1_555
Cs6 Se4 3.784150 1_545
Cs6 Se5 3.784478 1_455
Cs7 Se8 3.747246 1_555
Cs7 Se9 3.769229 1_655
Cs7 Se7 3.773206 1_555
Cs7 Se1 3.812711 1_655
Cs7 Se0 3.866610 1_554
Cs7 Se6 3.982926 1_655
Cs8 Se8 3.745704 1_555
Cs8 Se9 3.769171 1_565
Cs8 Se6 3.772838 1_555
Cs8 Se0 3.813009 1_564
Cs8 Se1 3.865403 1_555
Cs8 Se7 3.983352 1_565
Cs9 Se2 3.467116 1_554
Cs9 Se9 3.536701 1_665
Cs9 Se1 3.605347 1_555
Cs9 Se0 3.606301 1_554
Cs9 Se8 3.716057 1_555
Ge0 Se2 2.356600 1_445
Ge0 Se5 2.372651 1_455
Ge0 Se4 2.372687 1_545
Ge0 Se3 2.383848 1_555
Ge1 Se9 2.356600 1_665
Ge1 Se6 2.372651 1_655
Ge1 Se7 2.372687 1_565
Ge1 Se8 2.383848 1_555
H0 Se0 1.470047 1_554
H1 Se1 1.470047 1_556
