# generated using pymatgen
data_Sr6YV(BO3)6
_symmetry_space_group_name_H-M   'P 1'
_cell_length_a   7.68516127
_cell_length_b   7.68516193
_cell_length_c   7.68516248
_cell_angle_alpha   105.19471323
_cell_angle_beta   105.19471048
_cell_angle_gamma   105.19472235
_symmetry_Int_Tables_number   1
_chemical_formula_structural   Sr6YV(BO3)6
_chemical_formula_sum   'Sr6 Y1 V1 B6 O18'
_cell_volume   395.15269750
_cell_formula_units_Z   1
loop_
 _symmetry_equiv_pos_site_id
 _symmetry_equiv_pos_as_xyz
  1  'x, y, z'
loop_
 _atom_site_type_symbol
 _atom_site_label
 _atom_site_symmetry_multiplicity
 _atom_site_fract_x
 _atom_site_fract_y
 _atom_site_fract_z
 _atom_site_occupancy
  Sr  Sr0  1  0.65135287  0.26536155  0.16532003  1
  Sr  Sr1  1  0.16532003  0.65135287  0.26536055  1
  Sr  Sr2  1  0.73463845  0.83467997  0.34864713  1
  Sr  Sr3  1  0.26536155  0.16532003  0.65135287  1
  Sr  Sr4  1  0.83467997  0.34864713  0.73463845  1
  Sr  Sr5  1  0.34864713  0.73463845  0.83467997  1
  Y  Y0  1  0.00000000  0.00000000  0.00000000  1
  V  V0  1  0.50000000  0.50000000  0.50000000  1
  B  B0  1  0.29798654  0.37682780  0.04716577  1
  B  B1  1  0.37682780  0.04716677  0.29798654  1
  B  B2  1  0.04716677  0.29798654  0.37682780  1
  B  B3  1  0.95283323  0.70201346  0.62317220  1
  B  B4  1  0.62317220  0.95283323  0.70201346  1
  B  B5  1  0.70201346  0.62317220  0.95283323  1
  O  O0  1  0.72208939  0.81656425  0.01188503  1
  O  O1  1  0.80378026  0.55221563  0.07216024  1
  O  O2  1  0.98811497  0.27791061  0.18343575  1
  O  O3  1  0.44778337  0.92783876  0.19621974  1
  O  O4  1  0.43276454  0.49970718  0.22722120  1
  O  O5  1  0.18343575  0.98811497  0.27791061  1
  O  O6  1  0.49970718  0.22722120  0.43276354  1
  O  O7  1  0.92783876  0.19622074  0.44778337  1
  O  O8  1  0.22722120  0.43276454  0.49970718  1
  O  O9  1  0.77277880  0.56723546  0.50029282  1
  O  O10  1  0.07216124  0.80377926  0.55221663  1
  O  O11  1  0.50029282  0.77277880  0.56723646  1
  O  O12  1  0.81656425  0.01188503  0.72208939  1
  O  O13  1  0.56723546  0.50029282  0.77277880  1
  O  O14  1  0.55221663  0.07216124  0.80378026  1
  O  O15  1  0.01188503  0.72208939  0.81656425  1
  O  O16  1  0.19621974  0.44778437  0.92783976  1
  O  O17  1  0.27791061  0.18343575  0.98811497  1
loop_
_geom_bond_atom_site_label_1
_geom_bond_atom_site_label_2
_geom_bond_distance
_geom_bond_site_symmetry_2
B0 O16 1.363723 1_554
B0 O17 1.388603 1_554
B0 O4 1.389376 1_555
B1 O3 1.363727 1_545
B1 O5 1.388603 1_545
B1 O6 1.389369 1_555
B2 O7 1.363723 1_455
B2 O2 1.388603 1_455
B2 O8 1.389371 1_555
B3 O10 1.363723 1_655
B3 O15 1.388603 1_655
B3 O9 1.389371 1_555
B4 O14 1.363727 1_565
B4 O12 1.388603 1_565
B4 O11 1.389369 1_555
B5 O1 1.363728 1_556
B5 O0 1.388603 1_556
B5 O13 1.389371 1_555
O0 Y0 2.269081 1_665
O0 Sr2 2.529830 1_555
O0 Sr5 2.653723 1_554
O1 Sr1 2.576785 1_655
O1 Sr0 2.580313 1_555
O1 Sr4 2.760922 1_554
O1 Sr2 2.878928 1_555
O2 Y0 2.269081 1_655
O2 Sr0 2.529830 1_555
O2 Sr1 2.653724 1_655
O3 Sr5 2.576787 1_554
O3 Sr2 2.580315 1_555
O3 Sr0 2.760930 1_565
O3 Sr1 2.878914 1_555
O4 V0 2.022567 1_555
O4 Sr1 2.657251 1_555
O4 Sr2 2.712064 1_555
O4 Sr0 2.801360 1_555
O5 Y0 2.269081 1_565
O5 Sr1 2.529828 1_555
O5 Sr3 2.653723 1_565
O6 V0 2.022566 1_555
O6 Sr0 2.657245 1_555
O6 Sr4 2.712068 1_555
O6 Sr3 2.801366 1_555
O7 Sr2 2.576793 1_545
O7 Sr4 2.580312 1_555
O7 Sr3 2.760934 1_655
O7 Sr0 2.878914 1_555
O8 V0 2.022566 1_555
O8 Sr3 2.657252 1_555
O8 Sr5 2.712065 1_555
O8 Sr1 2.801366 1_555
O9 V0 2.022566 1_555
O9 Sr2 2.657252 1_555
O9 Sr0 2.712065 1_555
O9 Sr4 2.801360 1_555
O10 Sr3 2.576793 1_565
O10 Sr1 2.580319 1_555
O10 Sr2 2.760934 1_455
O10 Sr5 2.878914 1_555
O11 V0 2.022566 1_555
O11 Sr5 2.657245 1_555
O11 Sr1 2.712072 1_555
O11 Sr2 2.801366 1_555
O12 Y0 2.269081 1_656
O12 Sr4 2.529830 1_555
O12 Sr2 2.653723 1_545
O13 V0 2.022567 1_555
O13 Sr4 2.657252 1_555
O13 Sr3 2.712064 1_555
O13 Sr5 2.801360 1_555
O14 Sr0 2.576787 1_556
O14 Sr3 2.580315 1_555
O14 Sr5 2.760930 1_545
O14 Sr4 2.878918 1_555
O15 Y0 2.269081 1_566
O15 Sr5 2.529830 1_555
O15 Sr4 2.653723 1_455
O16 Sr4 2.576787 1_455
O16 Sr5 2.580313 1_555
O16 Sr1 2.760915 1_556
O16 Sr3 2.878928 1_555
O17 Y0 2.269081 1_556
O17 Sr3 2.529830 1_555
O17 Sr0 2.653723 1_556
