# generated using pymatgen
data_BaGa3Au
_symmetry_space_group_name_H-M   'P 1'
_cell_length_a   6.38401379
_cell_length_b   6.38401368
_cell_length_c   6.38401323
_cell_angle_alpha   138.33344277
_cell_angle_beta   138.33344032
_cell_angle_gamma   60.39269998
_symmetry_Int_Tables_number   1
_chemical_formula_structural   BaGa3Au
_chemical_formula_sum   'Ba1 Ga3 Au1'
_cell_volume   113.77705255
_cell_formula_units_Z   1
loop_
 _symmetry_equiv_pos_site_id
 _symmetry_equiv_pos_as_xyz
  1  'x, y, z'
loop_
 _atom_site_type_symbol
 _atom_site_label
 _atom_site_symmetry_multiplicity
 _atom_site_fract_x
 _atom_site_fract_y
 _atom_site_fract_z
 _atom_site_occupancy
  Ba  Ba0  1  0.99539277  0.99539277  1.00000000  1
  Ga  Ga0  1  0.24797952  0.74797952  0.50000000  1
  Ga  Ga1  1  0.74797952  0.24797952  0.50000000  1
  Ga  Ga2  1  0.38246711  0.38246711  0.00000000  1
  Au  Au0  1  0.62618109  0.62618109  1.00000000  1
loop_
_geom_bond_atom_site_label_1
_geom_bond_atom_site_label_2
_geom_bond_distance
_geom_bond_site_symmetry_2
Ba0 Ga2 3.444284 1_667
Ba0 Ga2 3.444284 1_555
Ba0 Ga2 3.444284 1_656
Ba0 Ga2 3.444284 1_566
Ba0 Ga1 3.551019 1_566
Ba0 Ga0 3.551019 1_656
Ba0 Ga1 3.551019 1_555
Ba0 Ga0 3.551019 1_555
Ba0 Ga0 3.595102 1_655
Ba0 Ga1 3.595102 1_565
Ba0 Ga0 3.595102 1_666
Ba0 Ga1 3.595102 1_666
Au0 Ga1 2.638498 1_555
Au0 Ga0 2.638498 1_555
Au0 Ga1 2.638498 1_566
Au0 Ga0 2.638498 1_656
Au0 Ga2 2.689504 1_556
Au0 Ba0 3.520405 1_556
Au0 Ba0 3.520406 1_444
Au0 Ba0 3.520406 1_545
Au0 Ba0 3.520406 1_455
