# generated using pymatgen
data_Sc4Si6Ir6Pd
_symmetry_space_group_name_H-M   'P 1'
_cell_length_a   6.96200678
_cell_length_b   6.96200674
_cell_length_c   6.96200617
_cell_angle_alpha   109.57299897
_cell_angle_beta   109.57300037
_cell_angle_gamma   109.26785931
_symmetry_Int_Tables_number   1
_chemical_formula_structural   Sc4Si6Ir6Pd
_chemical_formula_sum   'Sc4 Si6 Ir6 Pd1'
_cell_volume   259.76298329
_cell_formula_units_Z   1
loop_
 _symmetry_equiv_pos_site_id
 _symmetry_equiv_pos_as_xyz
  1  'x, y, z'
loop_
 _atom_site_type_symbol
 _atom_site_label
 _atom_site_symmetry_multiplicity
 _atom_site_fract_x
 _atom_site_fract_y
 _atom_site_fract_z
 _atom_site_occupancy
  Sc  Sc0  1  0.00178071  0.99821929  0.50000000  1
  Sc  Sc1  1  0.00178071  0.50178071  0.00356242  1
  Sc  Sc2  1  0.49821929  0.99821929  0.99643758  1
  Sc  Sc3  1  0.49821929  0.50178071  0.50000000  1
  Si  Si0  1  0.68084239  0.68084239  1.00000000  1
  Si  Si1  1  0.31497175  0.99713804  0.31783371  1
  Si  Si2  1  0.00286196  0.32069467  0.31783371  1
  Si  Si3  1  0.31915761  0.31915761  0.00000000  1
  Si  Si4  1  0.67930533  0.99713804  0.68216629  1
  Si  Si5  1  0.00286196  0.68502825  0.68216629  1
  Ir  Ir0  1  0.75030836  0.49920397  0.25110439  1
  Ir  Ir1  1  0.50079603  0.24969164  0.74889561  1
  Ir  Ir2  1  0.24809958  0.49920397  0.74889561  1
  Ir  Ir3  1  0.25000000  0.75000000  0.50000000  1
  Ir  Ir4  1  0.50079603  0.75190042  0.25110439  1
  Ir  Ir5  1  0.00000000  0.00000000  0.00000000  1
  Pd  Pd0  1  0.75000000  0.25000000  0.50000000  1
loop_
_geom_bond_atom_site_label_1
_geom_bond_atom_site_label_2
_geom_bond_distance
_geom_bond_site_symmetry_2
Sc0 Si5 2.867063 1_555
Sc0 Si1 2.867063 1_555
Sc0 Si0 2.892926 1_454
Sc0 Si3 2.892926 1_566
Sc0 Si2 2.924353 1_565
Sc0 Si4 2.924353 1_455
Sc1 Si2 2.867062 1_555
Sc1 Si1 2.867063 1_555
Sc1 Si0 2.892926 1_454
Sc1 Si3 2.892927 1_555
Sc1 Si4 2.924359 1_444
Sc1 Si5 2.924365 1_554
Sc2 Si4 2.867062 1_555
Sc2 Si5 2.867063 1_555
Sc2 Si3 2.892926 1_566
Sc2 Si0 2.892927 1_555
Sc2 Si2 2.924359 1_666
Sc2 Si1 2.924366 1_556
Sc3 Si2 2.867063 1_555
Sc3 Si4 2.867063 1_555
Sc3 Si0 2.892926 1_555
Sc3 Si3 2.892926 1_555
Sc3 Si5 2.924359 1_655
Sc3 Si1 2.924359 1_545
Ir0 Si5 2.476597 1_655
Ir0 Si2 2.476603 1_655
Ir0 Si3 2.483977 1_555
Ir0 Si0 2.491494 1_554
Ir0 Sc1 2.838503 1_655
Ir0 Sc0 2.838508 1_655
Ir0 Sc2 2.849689 1_544
Ir0 Sc3 2.849689 1_555
Ir1 Si1 2.476598 1_545
Ir1 Si4 2.476603 1_545
Ir1 Si0 2.483977 1_555
Ir1 Si3 2.491494 1_556
Ir1 Sc2 2.838503 1_545
Ir1 Sc0 2.838508 1_545
Ir1 Sc1 2.849689 1_656
Ir1 Sc3 2.849689 1_555
Ir2 Si2 2.476597 1_555
Ir2 Si5 2.476598 1_555
Ir2 Si3 2.483977 1_556
Ir2 Si0 2.491494 1_555
Ir2 Sc2 2.838508 1_555
Ir2 Sc3 2.838508 1_555
Ir2 Sc0 2.849689 1_545
Ir2 Sc1 2.849694 1_556
Ir3 Si1 2.471074 1_555
Ir3 Si5 2.471074 1_555
Ir3 Si4 2.471079 1_555
Ir3 Si2 2.471079 1_555
Ir3 Sc2 2.818431 1_555
Ir3 Sc1 2.818431 1_555
Ir3 Sc3 2.818437 1_555
Ir3 Sc0 2.818437 1_555
Ir4 Si4 2.476597 1_555
Ir4 Si1 2.476598 1_555
Ir4 Si0 2.483978 1_554
Ir4 Si3 2.491494 1_555
Ir4 Sc1 2.838508 1_555
Ir4 Sc3 2.838508 1_555
Ir4 Sc0 2.849689 1_655
Ir4 Sc2 2.849694 1_554
Ir5 Si4 2.551965 1_444
Ir5 Si2 2.551965 1_555
Ir5 Si1 2.551969 1_545
Ir5 Si5 2.551969 1_544
Ir5 Si3 2.572154 1_555
Ir5 Si0 2.572154 1_444
Pd0 Si4 2.508403 1_545
Pd0 Si2 2.508403 1_655
Pd0 Si1 2.508404 1_545
Pd0 Si5 2.508404 1_655
Pd0 Sc0 2.858876 1_645
Pd0 Sc3 2.858876 1_555
Pd0 Sc1 2.858881 1_656
Pd0 Sc2 2.858881 1_544
