# generated using pymatgen
data_Y6B14OsW
_symmetry_space_group_name_H-M   'P 1'
_cell_length_a   8.12373668
_cell_length_b   8.12373615
_cell_length_c   9.39734375
_cell_angle_alpha   90.00000000
_cell_angle_beta   90.00000000
_cell_angle_gamma   155.09684307
_symmetry_Int_Tables_number   1
_chemical_formula_structural   Y6B14OsW
_chemical_formula_sum   'Y6 B14 Os1 W1'
_cell_volume   261.14838623
_cell_formula_units_Z   1
loop_
 _symmetry_equiv_pos_site_id
 _symmetry_equiv_pos_as_xyz
  1  'x, y, z'
loop_
 _atom_site_type_symbol
 _atom_site_label
 _atom_site_symmetry_multiplicity
 _atom_site_fract_x
 _atom_site_fract_y
 _atom_site_fract_z
 _atom_site_occupancy
  Y  Y0  1  0.89433598  0.10566402  0.93804294  1
  Y  Y1  1  0.10636667  0.89363333  0.05875205  1
  Y  Y2  1  0.75595049  0.24404951  0.25000000  1
  Y  Y3  1  0.24262655  0.75737345  0.75000000  1
  Y  Y4  1  0.89433598  0.10566402  0.56195706  1
  Y  Y5  1  0.10636667  0.89363333  0.44124795  1
  B  B0  1  0.54524723  0.45475277  0.25000000  1
  B  B1  1  0.45856169  0.54143831  0.75000000  1
  B  B2  1  0.52122512  0.47877488  0.90286366  1
  B  B3  1  0.48061657  0.51938343  0.09168076  1
  B  B4  1  0.48061657  0.51938343  0.40831924  1
  B  B5  1  0.52122512  0.47877488  0.59713634  1
  B  B6  1  0.63124826  0.36875174  0.84833805  1
  B  B7  1  0.36571117  0.63428883  0.14700337  1
  B  B8  1  0.72673169  0.27326831  0.96402632  1
  B  B9  1  0.27192124  0.72807876  0.03263922  1
  B  B10  1  0.27192124  0.72807876  0.46736078  1
  B  B11  1  0.72673169  0.27326831  0.53597368  1
  B  B12  1  0.63124826  0.36875174  0.65166195  1
  B  B13  1  0.36571117  0.63428883  0.35299663  1
  Os  Os0  1  0.05434609  0.94565391  0.75000000  1
  W  W0  1  0.94695456  0.05304544  0.25000000  1
loop_
_geom_bond_atom_site_label_1
_geom_bond_atom_site_label_2
_geom_bond_distance
_geom_bond_site_symmetry_2
B0 B4 1.806905 1_555
B0 B3 1.806905 1_555
B0 W0 2.345197 1_565
B0 W0 2.345197 1_455
B0 Y5 2.690422 1_545
B0 Y1 2.690422 1_545
B0 Y5 2.690422 1_655
B0 Y1 2.690422 1_655
B0 Y2 3.342872 1_555
B1 B2 1.746984 1_555
B1 B5 1.746984 1_555
B1 Os0 2.318926 1_545
B1 Os0 2.318926 1_655
B1 Y0 2.688684 1_565
B1 Y4 2.688684 1_565
B1 Y0 2.688684 1_455
B1 Y4 2.688684 1_455
B2 B6 1.819203 1_555
B2 B3 1.887724 1_556
B2 Os0 2.325463 1_545
B2 Os0 2.325463 1_655
B2 Y1 2.653069 1_546
B2 Y1 2.653070 1_656
B2 Y0 2.688883 1_565
B2 Y0 2.688883 1_455
B3 B7 1.895691 1_555
B3 W0 2.359405 1_565
B3 W0 2.359405 1_455
B3 Y0 2.650737 1_564
B3 Y0 2.650737 1_454
B3 Y1 2.672849 1_545
B3 Y1 2.672849 1_655
B4 B5 1.887724 1_555
B4 W0 2.359405 1_565
B4 W0 2.359405 1_455
B4 Y4 2.650737 1_565
B4 Y4 2.650737 1_455
B4 Y5 2.672849 1_545
B4 Y5 2.672849 1_655
B5 Os0 2.325463 1_545
B5 Os0 2.325463 1_655
B5 Y5 2.653069 1_545
B5 Y5 2.653070 1_655
B5 Y4 2.688883 1_565
B5 Y4 2.688883 1_455
B6 B8 1.864609 1_555
B6 Os0 2.326083 1_655
B6 Os0 2.326083 1_545
B6 Y3 2.654156 1_545
B6 Y3 2.654156 1_655
B6 Y1 2.670910 1_656
B6 Y1 2.670910 1_546
B7 B9 1.835534 1_555
B7 W0 2.380399 1_455
B7 W0 2.380399 1_565
B7 Y2 2.652797 1_565
B7 Y2 2.652798 1_455
B7 Y0 2.670270 1_454
B7 Y0 2.670270 1_564
B8 B9 1.999459 1_546
B8 B9 1.999459 1_656
B8 Y0 2.670281 1_555
B8 Y3 2.678978 1_545
B8 Y3 2.678978 1_655
B8 Y2 2.727082 1_556
B8 Y1 2.739921 1_656
B8 Y1 2.739921 1_546
B9 Y1 2.638013 1_555
B9 Y3 2.696415 1_554
B9 Y2 2.702695 1_565
B9 Y2 2.702695 1_455
B9 Y0 2.762293 1_454
B9 Y0 2.762293 1_564
B10 B13 1.835534 1_555
B10 B11 1.999459 1_565
B10 B11 1.999459 1_455
B10 Y5 2.638013 1_555
B10 Y3 2.696415 1_555
B10 Y2 2.702695 1_565
B10 Y2 2.702695 1_455
B10 Y4 2.762293 1_455
B10 Y4 2.762293 1_565
B11 B12 1.864609 1_555
B11 Y4 2.670281 1_555
B11 Y3 2.678978 1_545
B11 Y3 2.678978 1_655
B11 Y2 2.727082 1_555
B11 Y5 2.739921 1_655
B11 Y5 2.739921 1_545
B12 B5 1.819203 1_555
B12 B6 1.848233 1_555
B12 Os0 2.326083 1_655
B12 Os0 2.326083 1_545
B12 Y3 2.654156 1_545
B12 Y3 2.654156 1_655
B12 Y5 2.670910 1_655
B12 Y5 2.670910 1_545
B13 B4 1.895691 1_555
B13 B7 1.935789 1_555
B13 W0 2.380399 1_455
B13 W0 2.380399 1_565
B13 Y2 2.652797 1_565
B13 Y2 2.652798 1_455
B13 Y4 2.670270 1_455
B13 Y4 2.670270 1_565
