# generated using pymatgen
data_Hg3Pt4PbO14
_symmetry_space_group_name_H-M   'P 1'
_cell_length_a   7.27648221
_cell_length_b   7.18606589
_cell_length_c   7.18606569
_cell_angle_alpha   59.99999646
_cell_angle_beta   60.41019537
_cell_angle_gamma   60.41019135
_symmetry_Int_Tables_number   1
_chemical_formula_structural   Hg3Pt4PbO14
_chemical_formula_sum   'Hg3 Pt4 Pb1 O14'
_cell_volume   267.33378939
_cell_formula_units_Z   1
loop_
 _symmetry_equiv_pos_site_id
 _symmetry_equiv_pos_as_xyz
  1  'x, y, z'
loop_
 _atom_site_type_symbol
 _atom_site_label
 _atom_site_symmetry_multiplicity
 _atom_site_fract_x
 _atom_site_fract_y
 _atom_site_fract_z
 _atom_site_occupancy
  Hg  Hg0  1  0.12500000  0.12500000  0.12500000  1
  Hg  Hg1  1  0.12500000  0.62500000  0.12500000  1
  Hg  Hg2  1  0.12500000  0.12500000  0.62500000  1
  Pt  Pt0  1  0.62500000  0.62500000  0.12500000  1
  Pt  Pt1  1  0.62500000  0.62500000  0.62500000  1
  Pt  Pt2  1  0.62500000  0.12500000  0.62500000  1
  Pt  Pt3  1  0.12500000  0.62500000  0.62500000  1
  Pb  Pb0  1  0.62500000  0.12500000  0.12500000  1
  O  O0  1  0.69853634  0.29222868  0.29222868  1
  O  O1  1  0.69853634  0.29222868  0.71700630  1
  O  O2  1  0.99632719  0.00122460  0.00122460  1
  O  O3  1  0.29775430  0.70392988  0.29438595  1
  O  O4  1  0.69853634  0.71700630  0.29222868  1
  O  O5  1  0.95224570  0.54607012  0.54607012  1
  O  O6  1  0.29775430  0.70392988  0.70392988  1
  O  O7  1  0.25367281  0.24877540  0.24877540  1
  O  O8  1  0.95224570  0.54607012  0.95561405  1
  O  O9  1  0.55146366  0.95777132  0.53299370  1
  O  O10  1  0.55146366  0.53299370  0.95777132  1
  O  O11  1  0.95224570  0.95561405  0.54607012  1
  O  O12  1  0.55146366  0.95777132  0.95777132  1
  O  O13  1  0.29775430  0.29438595  0.70392988  1
loop_
_geom_bond_atom_site_label_1
_geom_bond_atom_site_label_2
_geom_bond_distance
_geom_bond_site_symmetry_2
Hg0 O7 2.212446 1_555
Hg0 O2 2.212446 1_455
Hg0 O3 2.507809 1_545
Hg0 O8 2.507809 1_454
Hg0 O11 2.507809 1_445
Hg0 O13 2.507809 1_554
Hg0 O12 2.568343 1_544
Hg0 O0 2.568343 1_455
Hg1 O2 2.212451 1_465
Hg1 O7 2.212451 1_555
Hg1 O5 2.507809 1_455
Hg1 O6 2.507809 1_554
Hg1 O3 2.507809 1_555
Hg1 O8 2.507809 1_454
Hg1 O10 2.568343 1_554
Hg1 O4 2.568343 1_455
Hg2 O2 2.212451 1_456
Hg2 O7 2.212451 1_555
Hg2 O5 2.507809 1_455
Hg2 O6 2.507809 1_545
Hg2 O13 2.507809 1_555
Hg2 O11 2.507809 1_445
Hg2 O9 2.568343 1_545
Hg2 O1 2.568343 1_455
O0 Pt0 1.986585 1_555
O0 Pt2 1.986585 1_555
O0 Pb0 2.426674 1_555
O1 Pt1 1.986585 1_555
O1 Pt2 1.986585 1_555
O1 Pb0 2.426674 1_556
O2 Pb0 2.219717 1_555
O3 Pt3 1.988353 1_555
O3 Pt0 1.991881 1_555
O4 Pt1 1.986585 1_555
O4 Pt0 1.986585 1_555
O4 Pb0 2.426674 1_565
O5 Pt3 1.988354 1_655
O5 Pt1 1.991881 1_555
O6 Pt3 1.988354 1_555
O6 Pt1 1.991881 1_555
O7 Pb0 2.219717 1_555
O8 Pt3 1.988353 1_655
O8 Pt0 1.991881 1_556
O9 Pt1 1.986585 1_555
O9 Pt2 1.986585 1_565
O9 Pb0 2.426674 1_565
O10 Pt1 1.986585 1_555
O10 Pt0 1.986585 1_556
O10 Pb0 2.426674 1_556
O11 Pt3 1.988353 1_655
O11 Pt2 1.991881 1_565
O12 Pt0 1.986585 1_556
O12 Pt2 1.986585 1_565
O12 Pb0 2.426674 1_566
O13 Pt3 1.988353 1_555
O13 Pt2 1.991881 1_555
