# generated using pymatgen
data_K6GaAsP2
_symmetry_space_group_name_H-M   'P 1'
_cell_length_a   8.84856649
_cell_length_b   8.76971439
_cell_length_c   9.97634803
_cell_angle_alpha   81.67691562
_cell_angle_beta   107.24235745
_cell_angle_gamma   119.13313635
_symmetry_Int_Tables_number   1
_chemical_formula_structural   K6GaAsP2
_chemical_formula_sum   'K12 Ga2 As2 P4'
_cell_volume   645.83066492
_cell_formula_units_Z   2
loop_
 _symmetry_equiv_pos_site_id
 _symmetry_equiv_pos_as_xyz
  1  'x, y, z'
loop_
 _atom_site_type_symbol
 _atom_site_label
 _atom_site_symmetry_multiplicity
 _atom_site_fract_x
 _atom_site_fract_y
 _atom_site_fract_z
 _atom_site_occupancy
  K  K0  1  0.73445475  0.11885714  0.61899062  1
  K  K1  1  0.25473079  0.85901529  0.39054123  1
  K  K2  1  0.96573079  0.81787989  0.62344378  1
  K  K3  1  0.02916388  0.20258433  0.39678341  1
  K  K4  1  0.62670099  0.44603724  0.39738303  1
  K  K5  1  0.40569825  0.56887867  0.59626045  1
  K  K6  1  0.86746994  0.48891669  0.13473390  1
  K  K7  1  0.11329156  0.50367826  0.84168171  1
  K  K8  1  0.74355062  0.09049098  0.98799383  1
  K  K9  1  0.24667007  0.88028393  0.00169359  1
  K  K10  1  0.55385072  0.61626343  0.95382041  1
  K  K11  1  0.23881511  0.19708264  0.11060581  1
  Ga  Ga0  1  0.59643007  0.83896582  0.25723221  1
  Ga  Ga1  1  0.41196353  0.16780826  0.74769939  1
  As  As0  1  0.30502267  0.56696044  0.22725353  1
  As  As1  1  0.70374208  0.42905270  0.76410198  1
  P  P0  1  0.60212422  0.10743298  0.26449454  1
  P  P1  1  0.38405766  0.88678185  0.73555422  1
  P  P2  1  0.85258697  0.82647467  0.24774106  1
  P  P3  1  0.17332431  0.20329677  0.76337530  1
loop_
_geom_bond_atom_site_label_1
_geom_bond_atom_site_label_2
_geom_bond_distance
_geom_bond_site_symmetry_2
K0 P1 3.227338 1_545
K0 P0 3.379629 1_555
K0 P3 3.449120 1_655
K1 P0 3.279387 1_565
K1 P1 3.294279 1_555
K1 P2 3.301040 1_455
K2 P3 3.247759 1_665
K2 P1 3.298687 1_655
K2 P2 3.581015 1_555
K3 P2 3.249011 1_445
K3 P0 3.317957 1_455
K3 P3 3.497980 1_555
K4 P0 3.310986 1_555
K4 P2 3.344965 1_555
K5 P3 3.369307 1_555
K5 P1 3.396977 1_555
K6 P0 3.358687 1_555
K6 P2 3.389025 1_555
K7 P3 3.167980 1_555
K7 P1 3.284094 1_555
K8 P1 3.266927 1_545
K8 P0 3.397559 1_556
K8 P2 3.458700 1_546
K9 P1 3.214488 1_554
K9 P0 3.355223 1_565
K9 P3 3.608847 1_564
K10 P2 3.348011 1_556
K10 P1 3.558427 1_555
K10 P3 3.793335 1_555
K11 P3 3.335379 1_554
K11 P0 3.534887 1_555
Ga0 P0 2.341498 1_565
Ga0 P2 2.351709 1_555
Ga0 K8 3.366991 1_564
Ga1 P3 2.330233 1_555
Ga1 P1 2.371854 1_545
Ga1 K8 3.480242 1_555
As0 Ga0 2.487742 1_555
As0 K11 3.325292 1_555
As0 K4 3.414851 1_555
As0 K9 3.432637 1_555
As0 K6 3.434349 1_455
As0 K1 3.486993 1_555
As0 K3 3.509675 1_555
As0 K5 3.522119 1_555
As0 K7 3.716867 1_554
As0 K10 3.842941 1_554
As1 Ga1 2.457670 1_555
As1 K7 3.214778 1_655
As1 K5 3.346492 1_555
As1 K0 3.415115 1_555
As1 K2 3.437596 1_555
As1 K4 3.512011 1_555
As1 K10 3.541883 1_555
As1 K8 3.544089 1_555
As1 K6 3.562603 1_556
