# generated using pymatgen
data_Lu8In2RuRh
_symmetry_space_group_name_H-M   'P 1'
_cell_length_a   9.38938067
_cell_length_b   9.39226988
_cell_length_c   9.38955469
_cell_angle_alpha   59.99043702
_cell_angle_beta   59.95127500
_cell_angle_gamma   59.98981775
_symmetry_Int_Tables_number   1
_chemical_formula_structural   Lu8In2RuRh
_chemical_formula_sum   'Lu16 In4 Ru2 Rh2'
_cell_volume   585.21109705
_cell_formula_units_Z   2
loop_
 _symmetry_equiv_pos_site_id
 _symmetry_equiv_pos_as_xyz
  1  'x, y, z'
loop_
 _atom_site_type_symbol
 _atom_site_label
 _atom_site_symmetry_multiplicity
 _atom_site_fract_x
 _atom_site_fract_y
 _atom_site_fract_z
 _atom_site_occupancy
  Lu  Lu0  1  0.80826320  0.80784221  0.19037318  1
  Lu  Lu1  1  0.80808258  0.19191825  0.80808092  1
  Lu  Lu2  1  0.19036612  0.19352437  0.80826659  1
  Lu  Lu3  1  0.65146966  0.04692321  0.65147138  1
  Lu  Lu4  1  0.05983606  0.05870783  0.44314813  1
  Lu  Lu5  1  0.44313449  0.43830911  0.05984787  1
  Lu  Lu6  1  0.65146966  0.65013575  0.65147138  1
  Lu  Lu7  1  0.80826320  0.19352041  0.19037318  1
  Lu  Lu8  1  0.19036612  0.80784391  0.80826659  1
  Lu  Lu9  1  0.04459614  0.65128940  0.65282405  1
  Lu  Lu10  1  0.44313449  0.05870853  0.05984787  1
  Lu  Lu11  1  0.43927460  0.06073328  0.43925985  1
  Lu  Lu12  1  0.05806581  0.44193764  0.05805990  1
  Lu  Lu13  1  0.65283147  0.65128854  0.04459144  1
  Lu  Lu14  1  0.19232356  0.80767339  0.19232966  1
  Lu  Lu15  1  0.05983606  0.43830799  0.44314813  1
  In  In0  1  0.41673878  0.41694585  0.41674526  1
  In  In1  1  0.41597679  0.41639286  0.75123549  1
  In  In2  1  0.41673878  0.74957011  0.41674526  1
  In  In3  1  0.75123163  0.41638982  0.41598674  1
  Ru  Ru0  1  0.85918728  0.42098819  0.85914245  1
  Ru  Ru1  1  0.85918728  0.86068308  0.85914245  1
  Rh  Rh0  1  0.85870308  0.86017761  0.42094171  1
  Rh  Rh1  1  0.42092216  0.86018867  0.85870150  1
loop_
_geom_bond_atom_site_label_1
_geom_bond_atom_site_label_2
_geom_bond_distance
_geom_bond_site_symmetry_2
Lu0 Ru1 2.711426 1_554
Lu0 Rh0 2.734416 1_555
Lu1 Ru1 2.717327 1_545
Lu1 Ru0 2.717336 1_555
Lu2 Ru0 2.711034 1_455
Lu2 Rh1 2.734300 1_545
Lu3 Ru1 2.765867 1_545
Lu3 Rh0 2.777344 1_545
Lu3 Rh1 2.777393 1_545
Lu4 Ru1 3.336764 1_445
Lu4 Rh0 3.375298 1_445
Lu5 Ru0 3.337174 1_554
Lu5 Rh1 3.375385 1_554
Lu6 Ru0 2.765866 1_555
Lu6 Rh0 2.777344 1_555
Lu6 Rh1 2.777399 1_555
Lu7 Ru0 2.711432 1_554
Lu7 Rh0 2.734410 1_545
Lu8 Ru1 2.711034 1_455
Lu8 Rh1 2.734300 1_555
Lu9 Ru0 2.767684 1_455
Lu9 Ru1 2.767698 1_455
Lu9 Rh0 2.782749 1_455
Lu10 Ru1 3.337172 1_544
Lu10 Rh1 3.375377 1_544
Lu11 Rh0 3.363366 1_545
Lu11 Rh1 3.363476 1_545
Lu12 Ru0 3.352937 1_454
Lu12 Ru1 3.352937 1_454
Lu13 Ru0 2.767923 1_554
Lu13 Ru1 2.767930 1_554
Lu13 Rh1 2.782906 1_554
Lu14 Rh0 2.728197 1_455
Lu14 Rh1 2.728242 1_554
Lu15 Ru0 3.336766 1_455
Lu15 Rh0 3.375298 1_455
In0 In2 3.124097 1_555
In0 In3 3.134515 1_555
In0 In1 3.134546 1_555
In0 Lu15 3.142729 1_555
In0 Lu5 3.142769 1_555
In0 Lu11 3.148328 1_555
In0 Lu14 3.365111 1_555
In0 Lu3 3.366600 1_555
In0 Lu7 3.369767 1_555
In0 Lu2 3.369790 1_555
In0 Lu9 3.376064 1_555
In0 Lu13 3.376201 1_555
In1 In2 3.134556 1_555
In1 Lu12 3.136848 1_556
In1 Lu10 3.145367 1_556
In1 Lu5 3.145377 1_556
In1 In3 3.145517 1_555
In1 Lu3 3.363112 1_555
In1 Lu6 3.363128 1_555
In1 Lu2 3.366613 1_555
In1 Lu8 3.366637 1_555
In1 Lu1 3.370785 1_555
In1 Lu9 3.372360 1_555
In2 In3 3.134524 1_555
In2 Lu4 3.142729 1_565
In2 Lu10 3.142769 1_565
In2 Lu11 3.148338 1_565
In2 Lu14 3.365111 1_555
In2 Lu6 3.366600 1_555
In2 Lu0 3.369763 1_555
In2 Lu8 3.369794 1_555
In2 Lu9 3.376069 1_555
In2 Lu13 3.376201 1_555
In3 Lu12 3.136989 1_655
In3 Lu4 3.145273 1_655
In3 Lu15 3.145284 1_655
In3 Lu3 3.363100 1_555
In3 Lu6 3.363116 1_555
In3 Lu7 3.366665 1_555
In3 Lu0 3.366673 1_555
In3 Lu1 3.370785 1_555
In3 Lu13 3.372489 1_555
