# generated using pymatgen
data_Ta8TiSi6W
_symmetry_space_group_name_H-M   'P 1'
_cell_length_a   7.50077265
_cell_length_b   7.50077312
_cell_length_c   7.50077313
_cell_angle_alpha   128.94095847
_cell_angle_beta   128.94094886
_cell_angle_gamma   75.10559705
_symmetry_Int_Tables_number   1
_chemical_formula_structural   Ta8TiSi6W
_chemical_formula_sum   'Ta8 Ti1 Si6 W1'
_cell_volume   248.56715444
_cell_formula_units_Z   1
loop_
 _symmetry_equiv_pos_site_id
 _symmetry_equiv_pos_as_xyz
  1  'x, y, z'
loop_
 _atom_site_type_symbol
 _atom_site_label
 _atom_site_symmetry_multiplicity
 _atom_site_fract_x
 _atom_site_fract_y
 _atom_site_fract_z
 _atom_site_occupancy
  Ta  Ta0  1  0.01467632  0.18411804  0.49880214  1
  Ta  Ta1  1  0.68531590  0.51587318  0.50119786  1
  Ta  Ta2  1  0.51587318  0.01467632  0.83055728  1
  Ta  Ta3  1  0.18411804  0.68531590  0.16944272  1
  Ta  Ta4  1  0.98532368  0.81588196  0.50119786  1
  Ta  Ta5  1  0.31468410  0.48412682  0.49880214  1
  Ta  Ta6  1  0.48412682  0.98532368  0.16944272  1
  Ta  Ta7  1  0.81588196  0.31468410  0.83055728  1
  Ti  Ti0  1  0.50000000  0.50000000  0.00000000  1
  Si  Si0  1  0.74853212  0.74853212  0.00000000  1
  Si  Si1  1  0.25146788  0.25146788  1.00000000  1
  Si  Si2  1  0.37020064  0.13245575  0.50265639  1
  Si  Si3  1  0.62979936  0.86754425  0.49734361  1
  Si  Si4  1  0.86754425  0.37020064  0.23774689  1
  Si  Si5  1  0.13245575  0.62979936  0.76225311  1
  W  W0  1  0.00000000  0.00000000  0.00000000  1
loop_
_geom_bond_atom_site_label_1
_geom_bond_atom_site_label_2
_geom_bond_distance
_geom_bond_site_symmetry_2
Ta0 W0 2.997127 1_555
Ta1 W0 2.997132 1_666
Ta2 W0 2.997132 1_656
Ta3 W0 2.997132 1_565
Ta4 W0 2.997127 1_666
Ta5 W0 2.997132 1_555
Ta6 W0 2.997132 1_565
Ta7 W0 2.997132 1_656
Si0 Ta6 2.687612 1_555
Si0 Ta7 2.687614 1_554
Si0 Ta5 2.687614 1_554
Si0 Ta4 2.687615 1_555
Si0 Ta3 2.693741 1_655
Si0 Ta1 2.693742 1_554
Si0 Ta0 2.693743 1_665
Si0 Ta2 2.693748 1_564
Si0 Ti0 2.955819 1_555
Si0 W0 2.990734 1_665
Si1 Ta2 2.687612 1_555
Si1 Ta3 2.687614 1_556
Si1 Ta1 2.687614 1_556
Si1 Ta0 2.687615 1_555
Si1 Ta7 2.693741 1_455
Si1 Ta5 2.693742 1_556
Si1 Ta4 2.693743 1_445
Si1 Ta6 2.693748 1_546
Si1 Ti0 2.955819 1_556
Si1 W0 2.990734 1_556
Si2 Si3 2.398007 1_545
Si2 Ti0 2.520116 1_556
Si2 W0 2.542051 1_555
Si2 Ta0 2.578423 1_555
Si2 Ta5 2.578431 1_555
Si2 Ta2 2.623065 1_555
Si2 Ta7 2.623071 1_555
Si2 Ta6 2.632040 1_545
Si2 Ta3 2.632043 1_545
Si3 Ti0 2.520116 1_555
Si3 W0 2.542051 1_666
Si3 Ta4 2.578423 1_555
Si3 Ta1 2.578431 1_555
Si3 Ta6 2.623065 1_555
Si3 Ta3 2.623071 1_555
Si3 Ta2 2.632040 1_565
Si3 Ta7 2.632043 1_565
Si4 Si5 2.397989 1_655
Si4 Ti0 2.520120 1_555
Si4 W0 2.542054 1_655
Si4 Ta2 2.578425 1_554
Si4 Ta7 2.578446 1_554
Si4 Ta1 2.623059 1_555
Si4 Ta4 2.623074 1_555
Si4 Ta0 2.632029 1_655
Si4 Ta5 2.632047 1_655
Si5 Ti0 2.520120 1_556
Si5 W0 2.542054 1_566
Si5 Ta6 2.578425 1_556
Si5 Ta3 2.578446 1_556
Si5 Ta5 2.623059 1_555
Si5 Ta0 2.623074 1_555
Si5 Ta4 2.632029 1_455
Si5 Ta1 2.632047 1_455
