# generated using pymatgen
data_SrSb6(S2I)4
_symmetry_space_group_name_H-M   'P 1'
_cell_length_a   7.36248713
_cell_length_b   9.39038200
_cell_length_c   9.48270540
_cell_angle_alpha   95.31741381
_cell_angle_beta   107.67511267
_cell_angle_gamma   94.72565389
_symmetry_Int_Tables_number   1
_chemical_formula_structural   SrSb6(S2I)4
_chemical_formula_sum   'Sr1 Sb6 S8 I4'
_cell_volume   617.72975481
_cell_formula_units_Z   1
loop_
 _symmetry_equiv_pos_site_id
 _symmetry_equiv_pos_as_xyz
  1  'x, y, z'
loop_
 _atom_site_type_symbol
 _atom_site_label
 _atom_site_symmetry_multiplicity
 _atom_site_fract_x
 _atom_site_fract_y
 _atom_site_fract_z
 _atom_site_occupancy
  Sr  Sr0  1  0.00000000  0.00000000  0.00000000  1
  Sb  Sb0  1  0.25068873  0.64436388  0.14649852  1
  Sb  Sb1  1  0.24338693  0.93320262  0.43497986  1
  Sb  Sb2  1  0.74931127  0.35563612  0.85350148  1
  Sb  Sb3  1  0.20447251  0.29677818  0.76973218  1
  Sb  Sb4  1  0.79552749  0.70322182  0.23026782  1
  Sb  Sb5  1  0.75661307  0.06679738  0.56502014  1
  S  S0  1  0.64288967  0.08950506  0.79105596  1
  S  S1  1  0.08441970  0.32169122  0.99690760  1
  S  S2  1  0.91558030  0.67830878  0.00309240  1
  S  S3  1  0.90958908  0.97161664  0.28881308  1
  S  S4  1  0.10989569  0.65403757  0.38642406  1
  S  S5  1  0.89010431  0.34596243  0.61357594  1
  S  S6  1  0.35711033  0.91049494  0.20894404  1
  S  S7  1  0.09041092  0.02838336  0.71118692  1
  I  I0  1  0.34510861  0.67026670  0.86374332  1
  I  I1  1  0.66965353  0.73638350  0.55620307  1
  I  I2  1  0.65489139  0.32973330  0.13625668  1
  I  I3  1  0.33034647  0.26361650  0.44379693  1
loop_
_geom_bond_atom_site_label_1
_geom_bond_atom_site_label_2
_geom_bond_distance
_geom_bond_site_symmetry_2
S0 Sb2 2.516201 1_555
S0 Sb5 2.524938 1_555
S0 Sr0 3.009052 1_656
S1 Sb2 2.492120 1_455
S1 Sb3 2.563910 1_555
S1 Sr0 3.038182 1_556
S2 Sb0 2.492120 1_655
S2 Sb4 2.563910 1_555
S2 Sr0 3.038182 1_665
S3 Sb1 2.502250 1_655
S3 Sb4 2.544468 1_555
S3 Sr0 3.037737 1_665
S4 Sb4 2.446383 1_455
S4 Sb1 2.669646 1_555
S4 Sb0 2.769179 1_555
S5 Sb3 2.446383 1_655
S5 Sb5 2.669646 1_555
S5 Sb2 2.769179 1_555
S6 Sb0 2.516201 1_555
S6 Sb1 2.524938 1_555
S6 Sr0 3.009052 1_565
S7 Sb5 2.502250 1_455
S7 Sb3 2.544468 1_555
S7 Sr0 3.037737 1_556
I0 Sb0 2.992754 1_556
I1 Sb5 3.104162 1_565
I1 Sb4 3.480955 1_555
I2 Sb2 2.992754 1_554
I3 Sb1 3.104162 1_545
I3 Sb3 3.480955 1_555
