# generated using pymatgen
data_NaSrGaPt3
_symmetry_space_group_name_H-M   'P 1'
_cell_length_a   5.59964319
_cell_length_b   5.59964312
_cell_length_c   5.24509252
_cell_angle_alpha   57.73754656
_cell_angle_beta   57.73755479
_cell_angle_gamma   59.99999491
_symmetry_Int_Tables_number   1
_chemical_formula_structural   NaSrGaPt3
_chemical_formula_sum   'Na1 Sr1 Ga1 Pt3'
_cell_volume   112.15743314
_cell_formula_units_Z   1
loop_
 _symmetry_equiv_pos_site_id
 _symmetry_equiv_pos_as_xyz
  1  'x, y, z'
loop_
 _atom_site_type_symbol
 _atom_site_label
 _atom_site_symmetry_multiplicity
 _atom_site_fract_x
 _atom_site_fract_y
 _atom_site_fract_z
 _atom_site_occupancy
  Na  Na0  1  0.25081121  0.25081121  0.24756637  1
  Sr  Sr0  1  0.00393322  0.00393322  0.98820234  1
  Ga  Ga0  1  0.62423411  0.62423411  0.12729566  1
  Pt  Pt0  1  0.62235215  0.12631816  0.62897854  1
  Pt  Pt1  1  0.12631816  0.62235215  0.62897854  1
  Pt  Pt2  1  0.62235215  0.62235215  0.62897854  1
loop_
_geom_bond_atom_site_label_1
_geom_bond_atom_site_label_2
_geom_bond_distance
_geom_bond_site_symmetry_2
Na0 Pt1 3.016512 1_554
Na0 Pt0 3.016513 1_554
Na0 Pt2 3.016515 1_554
Na0 Sr0 3.059015 1_555
Na0 Pt1 3.212602 1_545
Na0 Pt0 3.212602 1_455
Na0 Pt2 3.212604 1_545
Na0 Pt2 3.212604 1_455
Na0 Pt0 3.212607 1_555
Na0 Pt1 3.212607 1_555
Na0 Sr0 3.405806 1_554
Na0 Sr0 3.405815 1_564
Na0 Sr0 3.405815 1_654
Ga0 Pt0 2.620153 1_555
Ga0 Pt1 2.620153 1_555
Ga0 Pt2 2.620162 1_555
Ga0 Pt2 2.625009 1_554
Ga0 Pt0 2.625018 1_564
Ga0 Pt1 2.625019 1_654
Ga0 Na0 3.270890 1_555
Ga0 Na0 3.270899 1_655
Ga0 Na0 3.270899 1_565
Ga0 Sr0 3.283595 1_564
Ga0 Sr0 3.283595 1_654
Ga0 Sr0 3.283615 1_664
Pt0 Pt1 2.777613 1_555
Pt0 Pt2 2.777613 1_555
Pt0 Pt1 2.822030 1_645
Pt0 Pt2 2.822030 1_545
Pt0 Sr0 3.107883 1_654
Pt0 Sr0 3.168671 1_555
Pt0 Sr0 3.168675 1_655
Pt1 Pt2 2.777613 1_555
Pt1 Pt2 2.822030 1_455
Pt1 Sr0 3.107883 1_564
Pt1 Sr0 3.168670 1_555
Pt1 Sr0 3.168675 1_565
Pt2 Sr0 3.107886 1_664
Pt2 Sr0 3.168673 1_655
Pt2 Sr0 3.168673 1_565
