# generated using pymatgen
data_Rb8Y6BeBr20
_symmetry_space_group_name_H-M   'P 1'
_cell_length_a   12.10464291
_cell_length_b   12.10464273
_cell_length_c   12.10464235
_cell_angle_alpha   60.00000104
_cell_angle_beta   60.00000155
_cell_angle_gamma   60.00000052
_symmetry_Int_Tables_number   1
_chemical_formula_structural   Rb8Y6BeBr20
_chemical_formula_sum   'Rb8 Y6 Be1 Br20'
_cell_volume   1254.12530916
_cell_formula_units_Z   1
loop_
 _symmetry_equiv_pos_site_id
 _symmetry_equiv_pos_as_xyz
  1  'x, y, z'
loop_
 _atom_site_type_symbol
 _atom_site_label
 _atom_site_symmetry_multiplicity
 _atom_site_fract_x
 _atom_site_fract_y
 _atom_site_fract_z
 _atom_site_occupancy
  Rb  Rb0  1  0.35908715  0.35908715  0.35908715  1
  Rb  Rb1  1  0.64091285  0.64091285  0.64091285  1
  Rb  Rb2  1  0.35908715  0.35908715  0.92273654  1
  Rb  Rb3  1  0.35908715  0.92273654  0.35908715  1
  Rb  Rb4  1  0.64091285  0.64091285  0.07726346  1
  Rb  Rb5  1  0.64091285  0.07726346  0.64091285  1
  Rb  Rb6  1  0.92273654  0.35908715  0.35908715  1
  Rb  Rb7  1  0.07726346  0.64091285  0.64091285  1
  Y  Y0  1  0.84173891  0.15826109  0.15826109  1
  Y  Y1  1  0.15826109  0.84173891  0.84173891  1
  Y  Y2  1  0.15826109  0.84173891  0.15826109  1
  Y  Y3  1  0.84173891  0.15826109  0.84173891  1
  Y  Y4  1  0.15826109  0.15826109  0.84173891  1
  Y  Y5  1  0.84173891  0.84173891  0.15826109  1
  Be  Be0  1  0.00000000  0.00000000  0.00000000  1
  Br  Br0  1  0.33640535  0.00000000  1.00000000  1
  Br  Br1  1  0.66359465  0.00000000  0.00000000  1
  Br  Br2  1  0.00000000  0.33640535  0.66359465  1
  Br  Br3  1  1.00000000  0.66359465  0.33640535  1
  Br  Br4  1  0.00000000  0.33640535  1.00000000  1
  Br  Br5  1  0.66359465  0.00000000  0.33640535  1
  Br  Br6  1  1.00000000  0.66359465  0.00000000  1
  Br  Br7  1  0.33640535  0.00000000  0.66359465  1
  Br  Br8  1  0.00000000  0.00000000  0.33640535  1
  Br  Br9  1  0.00000000  0.00000000  0.66359465  1
  Br  Br10  1  0.66359465  0.33640535  0.00000000  1
  Br  Br11  1  0.33640535  0.66359465  1.00000000  1
  Br  Br12  1  0.67503990  0.32496010  0.32496010  1
  Br  Br13  1  0.32496010  0.67503990  0.67503990  1
  Br  Br14  1  0.32496010  0.67503990  0.32496010  1
  Br  Br15  1  0.67503990  0.32496010  0.67503990  1
  Br  Br16  1  0.32496010  0.32496010  0.67503990  1
  Br  Br17  1  0.67503990  0.67503990  0.32496010  1
  Br  Br18  1  0.25000000  0.25000000  0.25000000  1
  Br  Br19  1  0.75000000  0.75000000  0.75000000  1
loop_
_geom_bond_atom_site_label_1
_geom_bond_atom_site_label_2
_geom_bond_distance
_geom_bond_site_symmetry_2
Be0 Y2 2.709200 1_545
Be0 Y0 2.709200 1_455
Be0 Y1 2.709200 1_544
Be0 Y3 2.709200 1_454
Be0 Y4 2.709200 1_554
Be0 Y5 2.709200 1_445
Br0 Y4 2.884411 1_555
Br0 Y2 2.884411 1_546
Br1 Y5 2.884411 1_545
Br1 Y3 2.884411 1_554
Br2 Y4 2.884411 1_555
Br2 Y3 2.884411 1_455
Br3 Y5 2.884411 1_555
Br3 Y2 2.884411 1_655
Br4 Y4 2.884411 1_555
Br4 Y0 2.884411 1_456
Br5 Y5 2.884411 1_545
Br5 Y0 2.884411 1_555
Br6 Y5 2.884411 1_555
Br6 Y1 2.884411 1_654
Br7 Y4 2.884411 1_555
Br7 Y1 2.884411 1_545
Br8 Y2 2.884411 1_545
Br8 Y0 2.884411 1_455
Br9 Y3 2.884411 1_455
Br9 Y1 2.884411 1_545
Br10 Y0 2.884411 1_555
Br10 Y3 2.884411 1_554
Br11 Y2 2.884411 1_556
Br11 Y1 2.884411 1_555
Br12 Y0 2.853645 1_555
Br12 Rb6 3.461037 1_555
Br12 Rb5 3.461052 1_555
Br12 Rb4 3.461052 1_555
Br12 Rb0 3.461061 1_555
Br13 Y1 2.853645 1_555
Br13 Rb7 3.461037 1_555
Br13 Rb3 3.461052 1_555
Br13 Rb2 3.461052 1_555
Br13 Rb1 3.461061 1_555
Br14 Y2 2.853645 1_555
Br14 Rb3 3.461037 1_555
Br14 Rb7 3.461052 1_555
Br14 Rb4 3.461052 1_555
Br14 Rb0 3.461061 1_555
Br15 Y3 2.853645 1_555
Br15 Rb5 3.461037 1_555
Br15 Rb6 3.461052 1_555
Br15 Rb2 3.461052 1_555
Br15 Rb1 3.461061 1_555
Br16 Y4 2.853645 1_555
Br16 Rb2 3.461037 1_555
Br16 Rb7 3.461052 1_555
Br16 Rb5 3.461052 1_555
Br16 Rb0 3.461061 1_555
Br17 Y5 2.853645 1_555
Br17 Rb4 3.461037 1_555
Br17 Rb6 3.461052 1_555
Br17 Rb3 3.461052 1_555
Br17 Rb1 3.461061 1_555
Br18 Rb0 3.234456 1_555
Br18 Rb2 3.234475 1_554
Br18 Rb3 3.234475 1_545
Br18 Rb6 3.234476 1_455
Br19 Rb1 3.234456 1_555
Br19 Rb4 3.234475 1_556
Br19 Rb5 3.234475 1_565
Br19 Rb7 3.234476 1_655
