# generated using pymatgen
data_HfCo2B2Ir
_symmetry_space_group_name_H-M   'P 1'
_cell_length_a   5.79701199
_cell_length_b   5.79701164
_cell_length_c   5.79701134
_cell_angle_alpha   95.09495164
_cell_angle_beta   95.09495093
_cell_angle_gamma   95.09493257
_symmetry_Int_Tables_number   1
_chemical_formula_structural   HfCo2B2Ir
_chemical_formula_sum   'Hf3 Co6 B6 Ir3'
_cell_volume   192.35405864
_cell_formula_units_Z   3
loop_
 _symmetry_equiv_pos_site_id
 _symmetry_equiv_pos_as_xyz
  1  'x, y, z'
loop_
 _atom_site_type_symbol
 _atom_site_label
 _atom_site_symmetry_multiplicity
 _atom_site_fract_x
 _atom_site_fract_y
 _atom_site_fract_z
 _atom_site_occupancy
  Hf  Hf0  1  0.00000000  0.00000000  0.00000000  1
  Hf  Hf1  1  0.66721695  0.66721695  0.66721695  1
  Hf  Hf2  1  0.33278305  0.33278305  0.33278305  1
  Co  Co0  1  0.69046704  0.21030486  0.69046704  1
  Co  Co1  1  0.69046704  0.69046704  0.21030486  1
  Co  Co2  1  0.21030486  0.69046704  0.69046704  1
  Co  Co3  1  0.30953296  0.78969514  0.30953296  1
  Co  Co4  1  0.30953296  0.30953296  0.78969514  1
  Co  Co5  1  0.78969514  0.30953296  0.30953296  1
  B  B0  1  0.38477282  0.00000000  0.61522718  1
  B  B1  1  0.61522718  0.38477282  1.00000000  1
  B  B2  1  1.00000000  0.61522718  0.38477282  1
  B  B3  1  0.61522718  1.00000000  0.38477282  1
  B  B4  1  0.38477282  0.61522718  0.00000000  1
  B  B5  1  0.00000000  0.38477282  0.61522718  1
  Ir  Ir0  1  0.50000000  0.00000000  0.00000000  1
  Ir  Ir1  1  0.00000000  0.50000000  0.00000000  1
  Ir  Ir2  1  0.00000000  0.00000000  0.50000000  1
loop_
_geom_bond_atom_site_label_1
_geom_bond_atom_site_label_2
_geom_bond_distance
_geom_bond_site_symmetry_2
Hf0 Ir2 2.898506 1_555
Hf0 Ir2 2.898506 1_554
Hf0 Ir1 2.898506 1_545
Hf0 Ir1 2.898506 1_555
Hf0 Ir0 2.898506 1_555
Hf0 Ir0 2.898506 1_455
Hf1 Ir0 2.895885 1_566
Hf1 Ir1 2.895885 1_656
Hf1 Ir2 2.895886 1_665
Hf2 Ir0 2.895885 1_555
Hf2 Ir1 2.895885 1_555
Hf2 Ir2 2.895886 1_555
Co0 Ir2 2.535059 1_655
Co0 Ir0 2.535060 1_556
Co0 Hf1 2.678743 1_555
Co0 Ir1 2.759976 1_656
Co0 Hf0 2.851494 1_656
Co1 Ir0 2.535059 1_565
Co1 Ir1 2.535059 1_655
Co1 Hf1 2.678743 1_555
Co1 Ir2 2.759976 1_665
Co1 Hf0 2.851494 1_665
Co2 Ir2 2.535059 1_565
Co2 Ir1 2.535060 1_556
Co2 Hf1 2.678743 1_555
Co2 Ir0 2.759976 1_566
Co2 Hf0 2.851494 1_566
Co3 Ir2 2.535059 1_565
Co3 Ir0 2.535060 1_565
Co3 Hf2 2.678743 1_555
Co3 Ir1 2.759976 1_555
Co3 Hf0 2.851494 1_565
Co4 Ir0 2.535059 1_556
Co4 Ir1 2.535059 1_556
Co4 Hf2 2.678743 1_555
Co4 Ir2 2.759976 1_555
Co4 Hf0 2.851494 1_556
Co5 Ir2 2.535059 1_655
Co5 Ir1 2.535060 1_655
Co5 Hf2 2.678743 1_555
Co5 Ir0 2.759976 1_555
Co5 Hf0 2.851494 1_655
B0 B3 1.971421 1_545
B0 Co3 2.049750 1_545
B0 Co0 2.049750 1_555
B0 Co4 2.080368 1_555
B0 Co2 2.080368 1_545
B0 Ir0 2.270866 1_556
B0 Ir2 2.270866 1_555
B0 Hf1 2.658935 1_545
B0 Hf2 2.658935 1_555
B1 B4 1.971421 1_556
B1 Co1 2.049750 1_556
B1 Co4 2.049750 1_555
B1 Co0 2.080368 1_555
B1 Co5 2.080368 1_556
B1 Ir0 2.270866 1_556
B1 Ir1 2.270866 1_656
B1 Hf1 2.658935 1_555
B1 Hf2 2.658935 1_556
B2 B5 1.971421 1_655
B2 Co2 2.049750 1_655
B2 Co5 2.049750 1_555
B2 Co1 2.080368 1_555
B2 Co3 2.080368 1_655
B2 Ir1 2.270866 1_655
B2 Ir2 2.270866 1_665
B2 Hf2 2.658935 1_655
B2 Hf1 2.658935 1_555
B3 Co0 2.049750 1_565
B3 Co3 2.049750 1_555
B3 Co1 2.080368 1_555
B3 Co5 2.080368 1_565
B3 Ir0 2.270866 1_565
B3 Ir2 2.270866 1_665
B3 Hf2 2.658935 1_565
B3 Hf1 2.658935 1_555
B4 Co4 2.049750 1_554
B4 Co1 2.049750 1_555
B4 Co3 2.080368 1_555
B4 Co2 2.080368 1_554
B4 Ir0 2.270866 1_565
B4 Ir1 2.270866 1_555
B4 Hf2 2.658935 1_555
B4 Hf1 2.658935 1_554
B5 Co5 2.049750 1_455
B5 Co2 2.049750 1_555
B5 Co4 2.080368 1_555
B5 Co0 2.080368 1_455
B5 Ir1 2.270866 1_556
B5 Ir2 2.270866 1_555
B5 Hf1 2.658935 1_455
B5 Hf2 2.658935 1_555
