# generated using pymatgen
data_TaPd2
_symmetry_space_group_name_H-M   'P 1'
_cell_length_a   5.75735547
_cell_length_b   7.69891931
_cell_length_c   9.71481653
_cell_angle_alpha   113.35696411
_cell_angle_beta   107.17593770
_cell_angle_gamma   90.02623328
_symmetry_Int_Tables_number   1
_chemical_formula_structural   TaPd2
_chemical_formula_sum   'Ta8 Pd16'
_cell_volume   374.28869343
_cell_formula_units_Z   8
loop_
 _symmetry_equiv_pos_site_id
 _symmetry_equiv_pos_as_xyz
  1  'x, y, z'
loop_
 _atom_site_type_symbol
 _atom_site_label
 _atom_site_symmetry_multiplicity
 _atom_site_fract_x
 _atom_site_fract_y
 _atom_site_fract_z
 _atom_site_occupancy
  Ta  Ta0_0  1  0.00000000  0.00000000  0.00000000  1
  Ta  Ta0_1  1  0.00000000  0.00000000  0.50000000  1
  Ta  Ta0_2  1  0.00000000  0.50000000  0.00000000  1
  Ta  Ta0_3  1  0.00000000  0.50000000  0.50000000  1
  Ta  Ta0_4  1  0.50000000  0.00000000  0.00000000  1
  Ta  Ta0_5  1  0.50000000  0.00000000  0.50000000  1
  Ta  Ta0_6  1  0.50000000  0.50000000  0.00000000  1
  Ta  Ta0_7  1  0.50000000  0.50000000  0.50000000  1
  Pd  Pd0_0  1  0.16743173  0.16742946  0.33479906  1
  Pd  Pd0_1  1  0.16743173  0.16742946  0.83479906  1
  Pd  Pd0_2  1  0.16743173  0.66742946  0.33479906  1
  Pd  Pd0_3  1  0.16743173  0.66742946  0.83479906  1
  Pd  Pd0_4  1  0.66743173  0.16742946  0.33479906  1
  Pd  Pd0_5  1  0.66743173  0.16742946  0.83479906  1
  Pd  Pd0_6  1  0.66743173  0.66742946  0.33479906  1
  Pd  Pd0_7  1  0.66743173  0.66742946  0.83479906  1
  Pd  Pd1_0  1  0.33256827  0.33257054  0.16520094  1
  Pd  Pd1_1  1  0.33256827  0.33257054  0.66520094  1
  Pd  Pd1_2  1  0.33256827  0.83257054  0.16520094  1
  Pd  Pd1_3  1  0.33256827  0.83257054  0.66520094  1
  Pd  Pd1_4  1  0.83256827  0.33257054  0.16520094  1
  Pd  Pd1_5  1  0.83256827  0.33257054  0.66520094  1
  Pd  Pd1_6  1  0.83256827  0.83257054  0.16520094  1
  Pd  Pd1_7  1  0.83256827  0.83257054  0.66520094  1
loop_
_geom_bond_atom_site_label_1
_geom_bond_atom_site_label_2
_geom_bond_distance
_geom_bond_site_symmetry_2
Ta0_0 Ta0_4 2.878678 1_455
Ta0_0 Ta0_4 2.878678 1_555
Ta0_1 Ta0_5 2.878678 1_455
Ta0_1 Ta0_5 2.878678 1_555
Ta0_2 Ta0_6 2.878678 1_455
Ta0_2 Ta0_6 2.878678 1_555
Ta0_3 Ta0_7 2.878678 1_555
Ta0_3 Ta0_7 2.878678 1_455
Pd0_0 Ta0_3 2.778208 1_555
Pd0_0 Ta0_1 2.778387 1_555
Pd0_0 Ta0_7 2.778483 1_555
Pd0_0 Ta0_5 2.780488 1_555
Pd0_0 Pd1_1 2.789952 1_555
Pd0_0 Pd1_0 2.796445 1_555
Pd0_0 Pd1_2 2.797197 1_545
Pd0_0 Pd1_6 2.798079 1_445
Pd0_0 Pd1_4 2.799140 1_455
Pd0_0 Ta0_0 2.827082 1_555
Pd0_0 Pd0_4 2.878678 1_455
Pd0_0 Pd0_4 2.878678 1_555
Pd0_1 Ta0_2 2.778208 1_556
Pd0_1 Ta0_0 2.778387 1_556
Pd0_1 Ta0_6 2.778483 1_556
Pd0_1 Ta0_4 2.780488 1_556
Pd0_1 Pd1_0 2.789952 1_556
Pd0_1 Pd1_1 2.796445 1_555
Pd0_1 Pd1_3 2.797197 1_545
Pd0_1 Pd1_7 2.798079 1_445
Pd0_1 Pd1_5 2.799140 1_455
Pd0_1 Ta0_1 2.827082 1_555
Pd0_1 Pd0_5 2.878678 1_455
Pd0_1 Pd0_5 2.878678 1_555
Pd0_2 Ta0_1 2.778208 1_565
Pd0_2 Ta0_3 2.778387 1_555
Pd0_2 Ta0_5 2.778483 1_565
Pd0_2 Ta0_7 2.780488 1_555
Pd0_2 Pd1_3 2.789952 1_555
Pd0_2 Pd1_2 2.796445 1_555
Pd0_2 Pd1_0 2.797197 1_555
Pd0_2 Pd1_4 2.798079 1_455
Pd0_2 Pd1_6 2.799140 1_455
Pd0_2 Ta0_2 2.827082 1_555
Pd0_2 Pd0_6 2.878678 1_455
Pd0_2 Pd0_6 2.878678 1_555
Pd0_3 Ta0_0 2.778208 1_566
Pd0_3 Ta0_2 2.778387 1_556
Pd0_3 Ta0_4 2.778483 1_566
Pd0_3 Ta0_6 2.780488 1_556
Pd0_3 Pd1_2 2.789952 1_556
Pd0_3 Pd1_3 2.796445 1_555
Pd0_3 Pd1_1 2.797197 1_555
Pd0_3 Pd1_5 2.798079 1_455
Pd0_3 Pd1_7 2.799140 1_455
Pd0_3 Ta0_3 2.827082 1_555
Pd0_3 Pd0_7 2.878678 1_455
Pd0_3 Pd0_7 2.878678 1_555
Pd0_4 Ta0_7 2.778208 1_555
Pd0_4 Ta0_5 2.778387 1_555
Pd0_4 Ta0_3 2.778483 1_655
Pd0_4 Ta0_1 2.780488 1_655
Pd0_4 Pd1_5 2.789952 1_555
Pd0_4 Pd1_4 2.796445 1_555
Pd0_4 Pd1_6 2.797197 1_545
Pd0_4 Pd1_2 2.798079 1_545
Pd0_4 Pd1_0 2.799140 1_555
Pd0_4 Ta0_4 2.827082 1_555
Pd0_5 Ta0_6 2.778208 1_556
Pd0_5 Ta0_4 2.778387 1_556
Pd0_5 Ta0_2 2.778483 1_656
Pd0_5 Ta0_0 2.780488 1_656
Pd0_5 Pd1_4 2.789952 1_556
Pd0_5 Pd1_5 2.796445 1_555
Pd0_5 Pd1_7 2.797197 1_545
Pd0_5 Pd1_3 2.798079 1_545
Pd0_5 Pd1_1 2.799140 1_555
Pd0_5 Ta0_5 2.827082 1_555
Pd0_6 Ta0_5 2.778208 1_565
Pd0_6 Ta0_7 2.778387 1_555
Pd0_6 Ta0_1 2.778483 1_665
Pd0_6 Ta0_3 2.780488 1_655
Pd0_6 Pd1_7 2.789952 1_555
Pd0_6 Pd1_6 2.796445 1_555
Pd0_6 Pd1_4 2.797197 1_555
Pd0_6 Pd1_0 2.798079 1_555
Pd0_6 Pd1_2 2.799140 1_555
Pd0_6 Ta0_6 2.827082 1_555
Pd0_7 Ta0_4 2.778208 1_566
Pd0_7 Ta0_6 2.778387 1_556
Pd0_7 Ta0_0 2.778483 1_666
Pd0_7 Ta0_2 2.780488 1_656
Pd0_7 Pd1_6 2.789952 1_556
Pd0_7 Pd1_7 2.796445 1_555
Pd0_7 Pd1_5 2.797197 1_555
Pd0_7 Pd1_1 2.798079 1_555
Pd0_7 Pd1_3 2.799140 1_555
Pd0_7 Ta0_7 2.827082 1_555
Pd1_0 Ta0_4 2.778208 1_555
Pd1_0 Ta0_6 2.778387 1_555
Pd1_0 Ta0_0 2.778483 1_555
Pd1_0 Ta0_2 2.780488 1_555
Pd1_0 Ta0_7 2.827082 1_555
Pd1_0 Pd1_4 2.878678 1_555
Pd1_0 Pd1_4 2.878678 1_455
Pd1_1 Ta0_5 2.778208 1_555
Pd1_1 Ta0_7 2.778387 1_555
Pd1_1 Ta0_1 2.778483 1_555
Pd1_1 Ta0_3 2.780488 1_555
Pd1_1 Ta0_6 2.827082 1_556
Pd1_1 Pd1_5 2.878678 1_455
Pd1_1 Pd1_5 2.878678 1_555
Pd1_2 Ta0_6 2.778208 1_555
Pd1_2 Ta0_4 2.778387 1_565
Pd1_2 Ta0_2 2.778483 1_555
Pd1_2 Ta0_0 2.780488 1_565
Pd1_2 Ta0_5 2.827082 1_565
Pd1_2 Pd1_6 2.878678 1_455
Pd1_2 Pd1_6 2.878678 1_555
Pd1_3 Ta0_7 2.778208 1_555
Pd1_3 Ta0_5 2.778387 1_565
Pd1_3 Ta0_3 2.778483 1_555
Pd1_3 Ta0_1 2.780488 1_565
Pd1_3 Ta0_4 2.827082 1_566
Pd1_3 Pd1_7 2.878678 1_455
Pd1_3 Pd1_7 2.878678 1_555
Pd1_4 Ta0_0 2.778208 1_655
Pd1_4 Ta0_2 2.778387 1_655
Pd1_4 Ta0_4 2.778483 1_555
Pd1_4 Ta0_6 2.780488 1_555
Pd1_4 Ta0_3 2.827082 1_655
Pd1_5 Ta0_1 2.778208 1_655
Pd1_5 Ta0_3 2.778387 1_655
Pd1_5 Ta0_5 2.778483 1_555
Pd1_5 Ta0_7 2.780488 1_555
Pd1_5 Ta0_2 2.827082 1_656
Pd1_6 Ta0_2 2.778208 1_655
Pd1_6 Ta0_0 2.778387 1_665
Pd1_6 Ta0_6 2.778483 1_555
Pd1_6 Ta0_4 2.780488 1_565
Pd1_6 Ta0_1 2.827082 1_665
Pd1_7 Ta0_3 2.778208 1_655
Pd1_7 Ta0_1 2.778387 1_665
Pd1_7 Ta0_7 2.778483 1_555
Pd1_7 Ta0_5 2.780488 1_565
Pd1_7 Ta0_0 2.827082 1_666
