# generated using pymatgen
data_NiOsBr6
_symmetry_space_group_name_H-M   'P 1'
_cell_length_a   6.45125232
_cell_length_b   6.45125362
_cell_length_c   6.67757289
_cell_angle_alpha   81.20177174
_cell_angle_beta   81.20177856
_cell_angle_gamma   120.06153260
_symmetry_Int_Tables_number   1
_chemical_formula_structural   NiOsBr6
_chemical_formula_sum   'Ni1 Os1 Br6'
_cell_volume   228.97627215
_cell_formula_units_Z   1
loop_
 _symmetry_equiv_pos_site_id
 _symmetry_equiv_pos_as_xyz
  1  'x, y, z'
loop_
 _atom_site_type_symbol
 _atom_site_label
 _atom_site_symmetry_multiplicity
 _atom_site_fract_x
 _atom_site_fract_y
 _atom_site_fract_z
 _atom_site_occupancy
  Ni  Ni0  1  0.16632244  0.83367756  1.00000000  1
  Os  Os0  1  0.83397997  0.16602003  0.00000000  1
  Br  Br0  1  0.43422333  0.07090421  0.22606647  1
  Br  Br1  1  0.92909579  0.56577667  0.77393353  1
  Br  Br2  1  0.20660022  0.21244299  0.77213885  1
  Br  Br3  1  0.78755701  0.79339978  0.22786115  1
  Br  Br4  1  0.06491806  0.42269683  0.22504719  1
  Br  Br5  1  0.57730317  0.93508194  0.77495281  1
loop_
_geom_bond_atom_site_label_1
_geom_bond_atom_site_label_2
_geom_bond_distance
_geom_bond_site_symmetry_2
Br0 Os0 2.499302 1_555
Br0 Ni0 2.542226 1_544
Br1 Os0 2.499302 1_556
Br1 Ni0 2.542226 1_655
Br2 Os0 2.490752 1_456
Br2 Ni0 2.541456 1_545
Br3 Os0 2.490752 1_565
Br3 Ni0 2.541455 1_654
Br4 Os0 2.488862 1_455
Br4 Ni0 2.541377 1_554
Br5 Os0 2.488862 1_566
Br5 Ni0 2.541376 1_555
