# generated using pymatgen
data_Ba2Cd(PdO2)3
_symmetry_space_group_name_H-M   'P 1'
_cell_length_a   9.47743616
_cell_length_b   8.73518792
_cell_length_c   7.22183715
_cell_angle_alpha   72.16774364
_cell_angle_beta   61.33057373
_cell_angle_gamma   46.50167470
_symmetry_Int_Tables_number   1
_chemical_formula_structural   Ba2Cd(PdO2)3
_chemical_formula_sum   'Ba4 Cd2 Pd6 O12'
_cell_volume   380.25491208
_cell_formula_units_Z   2
loop_
 _symmetry_equiv_pos_site_id
 _symmetry_equiv_pos_as_xyz
  1  'x, y, z'
loop_
 _atom_site_type_symbol
 _atom_site_label
 _atom_site_symmetry_multiplicity
 _atom_site_fract_x
 _atom_site_fract_y
 _atom_site_fract_z
 _atom_site_occupancy
  Ba  Ba0  1  0.75000000  0.75000000  0.75000000  1
  Ba  Ba1  1  0.25000000  0.25000000  0.25000000  1
  Ba  Ba2  1  0.23056497  0.76943503  0.23056497  1
  Ba  Ba3  1  0.76943503  0.23056497  0.76943503  1
  Cd  Cd0  1  0.67212074  0.67212074  0.32787926  1
  Cd  Cd1  1  0.32787926  0.32787926  0.67212074  1
  Pd  Pd0  1  0.69002365  0.00721106  0.30997635  1
  Pd  Pd1  1  0.99278894  0.30997635  0.00721106  1
  Pd  Pd2  1  0.00721106  0.69002365  0.99278894  1
  Pd  Pd3  1  0.30997635  0.99278894  0.69002365  1
  Pd  Pd4  1  0.32571022  0.67428978  0.67428978  1
  Pd  Pd5  1  0.67428978  0.32571022  0.32571022  1
  O  O0  1  0.32877134  0.46866473  0.90542655  1
  O  O1  1  0.29713837  0.90542655  0.46866473  1
  O  O2  1  0.90542655  0.29713837  0.32877134  1
  O  O3  1  0.46866473  0.32877134  0.29713837  1
  O  O4  1  0.67122866  0.53133527  0.09457345  1
  O  O5  1  0.70286163  0.09457345  0.53133527  1
  O  O6  1  0.68861948  0.92389475  0.07610525  1
  O  O7  1  0.53133527  0.67122866  0.70286163  1
  O  O8  1  0.92389475  0.68861948  0.31138052  1
  O  O9  1  0.07610525  0.31138052  0.68861948  1
  O  O10  1  0.31138052  0.07610525  0.92389475  1
  O  O11  1  0.09457345  0.70286163  0.67122866  1
loop_
_geom_bond_atom_site_label_1
_geom_bond_atom_site_label_2
_geom_bond_distance
_geom_bond_site_symmetry_2
Ba0 O11 2.769031 1_655
Ba0 O5 2.769033 1_565
Ba0 O4 2.769036 1_556
Ba0 O7 2.769040 1_555
Ba0 O8 2.802168 1_555
Ba0 O6 2.802168 1_556
Ba0 O10 2.802168 1_565
Ba0 O9 2.802168 1_655
Ba1 O2 2.769031 1_455
Ba1 O1 2.769033 1_545
Ba1 O0 2.769036 1_554
Ba1 O3 2.769040 1_555
Ba1 O9 2.802168 1_555
Ba1 O10 2.802168 1_554
Ba1 O6 2.802168 1_545
Ba1 O8 2.802168 1_455
Ba2 O4 2.844253 1_555
Ba2 O3 2.844254 1_555
Ba2 O11 2.844254 1_555
Ba2 O1 2.844261 1_555
Ba2 O10 3.198603 1_564
Ba2 O8 3.198603 1_455
Ba2 O0 3.405500 1_554
Ba2 O7 3.405505 1_554
Ba2 O5 3.405505 1_465
Ba2 O2 3.405507 1_465
Ba3 O0 2.844253 1_555
Ba3 O7 2.844254 1_555
Ba3 O2 2.844254 1_555
Ba3 O5 2.844261 1_555
Ba3 O6 3.198603 1_546
Ba3 O9 3.198603 1_655
Ba3 O4 3.405500 1_556
Ba3 O3 3.405505 1_556
Ba3 O1 3.405505 1_645
Ba3 O11 3.405507 1_645
Cd0 O1 2.376623 1_555
Cd0 O7 2.376623 1_555
Cd0 O2 2.376624 1_555
Cd0 O4 2.376630 1_555
Cd0 O6 2.432877 1_555
Cd0 O8 2.432877 1_555
Cd1 O5 2.376623 1_555
Cd1 O3 2.376623 1_555
Cd1 O11 2.376624 1_555
Cd1 O0 2.376630 1_555
Cd1 O10 2.432877 1_555
Cd1 O9 2.432877 1_555
O0 Pd4 2.037607 1_555
O0 Pd2 2.052900 1_555
O1 Pd4 2.037609 1_555
O1 Pd3 2.052894 1_555
O2 Pd5 2.037612 1_555
O2 Pd1 2.052900 1_555
O3 Pd5 2.037603 1_555
O3 Pd0 2.052900 1_555
O4 Pd5 2.037607 1_555
O4 Pd1 2.052900 1_555
O5 Pd5 2.037609 1_555
O5 Pd0 2.052894 1_555
O6 Pd0 2.042117 1_565
O6 Pd2 2.042117 1_654
O7 Pd4 2.037603 1_555
O7 Pd3 2.052900 1_555
O8 Pd2 2.042117 1_654
O8 Pd0 2.042117 1_565
O9 Pd1 2.042117 1_456
O9 Pd3 2.042117 1_545
O10 Pd3 2.042117 1_545
O10 Pd1 2.042117 1_456
O11 Pd4 2.037612 1_555
O11 Pd2 2.052900 1_555
