# generated using pymatgen
data_YH2Br
_symmetry_space_group_name_H-M   'P 1'
_cell_length_a   10.83676000
_cell_length_b   10.83676000
_cell_length_c   10.83676007
_cell_angle_alpha   19.96828338
_cell_angle_beta   19.96828578
_cell_angle_gamma   19.96828161
_symmetry_Int_Tables_number   1
_chemical_formula_structural   YH2Br
_chemical_formula_sum   'Y2 H4 Br2'
_cell_volume   129.83229307
_cell_formula_units_Z   2
loop_
 _symmetry_equiv_pos_site_id
 _symmetry_equiv_pos_as_xyz
  1  'x, y, z'
loop_
 _atom_site_type_symbol
 _atom_site_label
 _atom_site_symmetry_multiplicity
 _atom_site_fract_x
 _atom_site_fract_y
 _atom_site_fract_z
 _atom_site_occupancy
  Y  Y0  1  0.88367829  0.88367829  0.88367829  1
  Y  Y1  1  0.11632171  0.11632171  0.11632171  1
  H  H0  1  0.81390802  0.81390802  0.81390802  1
  H  H1  1  0.18609198  0.18609198  0.18609198  1
  H  H2  1  0.54440032  0.54440032  0.54440032  1
  H  H3  1  0.45559968  0.45559968  0.45559968  1
  Br  Br0  1  0.72200581  0.72200581  0.72200581  1
  Br  Br1  1  0.27799419  0.27799419  0.27799419  1
loop_
_geom_bond_atom_site_label_1
_geom_bond_atom_site_label_2
_geom_bond_distance
_geom_bond_site_symmetry_2
H0 Y0 2.222332 1_555
H0 Y1 2.382564 1_656
H0 Y1 2.382564 1_566
H0 Y1 2.382564 1_665
H1 Y1 2.222332 1_555
H1 Y0 2.382564 1_454
H1 Y0 2.382564 1_544
H1 Y0 2.382564 1_445
H2 Y0 2.177733 1_545
H2 Y0 2.177733 1_455
H2 Y0 2.177733 1_554
H3 Y1 2.177733 1_565
H3 Y1 2.177733 1_655
H3 Y1 2.177733 1_556
Br0 Y1 2.911989 1_656
Br0 Y1 2.911990 1_566
Br0 Y1 2.911990 1_665
Br1 Y0 2.911989 1_454
Br1 Y0 2.911990 1_544
Br1 Y0 2.911990 1_445
