# generated using pymatgen
data_KBi
_symmetry_space_group_name_H-M   'P 1'
_cell_length_a   7.30720651
_cell_length_b   13.60820702
_cell_length_c   14.43036021
_cell_angle_alpha   113.35072837
_cell_angle_beta   90.00000000
_cell_angle_gamma   90.00000000
_symmetry_Int_Tables_number   1
_chemical_formula_structural   KBi
_chemical_formula_sum   'K16 Bi16'
_cell_volume   1317.39942073
_cell_formula_units_Z   16
loop_
 _symmetry_equiv_pos_site_id
 _symmetry_equiv_pos_as_xyz
  1  'x, y, z'
loop_
 _atom_site_type_symbol
 _atom_site_label
 _atom_site_symmetry_multiplicity
 _atom_site_fract_x
 _atom_site_fract_y
 _atom_site_fract_z
 _atom_site_occupancy
  K  K0  1  0.13946513  0.55327048  0.84932748  1
  K  K1  1  0.63946513  0.94672952  0.15067252  1
  K  K2  1  0.86053487  0.44672952  0.15067252  1
  K  K3  1  0.36053487  0.05327048  0.84932748  1
  K  K4  1  0.42718040  0.69124448  0.65411357  1
  K  K5  1  0.92718040  0.80875552  0.34588643  1
  K  K6  1  0.57281960  0.30875552  0.34588643  1
  K  K7  1  0.07281960  0.19124448  0.65411357  1
  K  K8  1  0.19937431  0.53768480  0.39565760  1
  K  K9  1  0.69937431  0.96231520  0.60434240  1
  K  K10  1  0.80062569  0.46231520  0.60434240  1
  K  K11  1  0.30062569  0.03768480  0.39565760  1
  K  K12  1  0.38169697  0.64689607  0.12019765  1
  K  K13  1  0.88169697  0.85310393  0.87980235  1
  K  K14  1  0.61830303  0.35310393  0.87980235  1
  K  K15  1  0.11830303  0.14689607  0.12019765  1
  Bi  Bi0  1  0.20324973  0.88739596  0.57870934  1
  Bi  Bi1  1  0.70324973  0.61260404  0.42129066  1
  Bi  Bi2  1  0.79675027  0.11260404  0.42129066  1
  Bi  Bi3  1  0.29675027  0.38739496  0.57870934  1
  Bi  Bi4  1  0.43518203  0.77259657  0.39251152  1
  Bi  Bi5  1  0.93518203  0.72740343  0.60748848  1
  Bi  Bi6  1  0.56481797  0.22740343  0.60748848  1
  Bi  Bi7  1  0.06481797  0.27259657  0.39251152  1
  Bi  Bi8  1  0.12769162  0.87115039  0.11070862  1
  Bi  Bi9  1  0.62769162  0.62884961  0.88929138  1
  Bi  Bi10  1  0.87230838  0.12884961  0.88929138  1
  Bi  Bi11  1  0.37230838  0.37115039  0.11070862  1
  Bi  Bi12  1  0.87019124  0.68350709  0.07460851  1
  Bi  Bi13  1  0.37019124  0.81649291  0.92539149  1
  Bi  Bi14  1  0.12980876  0.31649291  0.92539149  1
  Bi  Bi15  1  0.62980876  0.18350709  0.07460851  1
loop_
_geom_bond_atom_site_label_1
_geom_bond_atom_site_label_2
_geom_bond_distance
_geom_bond_site_symmetry_2
Bi0 Bi4 3.033938 1_555
Bi0 Bi5 3.076764 1_455
Bi0 K4 3.645395 1_555
Bi0 K5 3.694898 1_455
Bi0 K9 3.744327 1_555
Bi0 K9 3.799189 1_455
Bi0 K3 3.831238 1_565
Bi0 K7 3.952548 1_565
Bi0 K11 3.993622 1_565
Bi1 Bi5 3.033938 1_555
Bi1 Bi4 3.076764 1_555
Bi1 K5 3.645395 1_555
Bi1 K4 3.694898 1_555
Bi1 K8 3.744327 1_655
Bi1 K8 3.799189 1_555
Bi1 K2 3.831238 1_555
Bi1 K6 3.952548 1_555
Bi1 K10 3.993622 1_555
Bi2 Bi6 3.033938 1_555
Bi2 Bi7 3.076764 1_655
Bi2 K6 3.645395 1_555
Bi2 K7 3.694898 1_655
Bi2 K11 3.744327 1_555
Bi2 K11 3.799189 1_655
Bi2 K1 3.831238 1_545
Bi2 K5 3.952548 1_545
Bi2 K9 3.993622 1_545
Bi3 Bi7 3.033936 1_555
Bi3 Bi6 3.076754 1_555
Bi3 K7 3.645383 1_555
Bi3 K6 3.694899 1_555
Bi3 K10 3.744330 1_455
Bi3 K10 3.799192 1_555
Bi3 K0 3.831241 1_555
Bi3 K4 3.952561 1_555
Bi3 K8 3.993632 1_555
Bi4 K12 3.632070 1_555
Bi4 K8 3.647634 1_555
Bi4 K9 3.671541 1_555
Bi4 K11 3.721846 1_565
Bi4 K5 3.725887 1_555
Bi4 K5 3.838845 1_455
Bi5 K13 3.632070 1_555
Bi5 K9 3.647634 1_555
Bi5 K8 3.671541 1_655
Bi5 K10 3.721846 1_555
Bi5 K4 3.725887 1_655
Bi5 K4 3.838845 1_555
Bi6 K14 3.632070 1_555
Bi6 K10 3.647634 1_555
Bi6 K11 3.671541 1_555
Bi6 K9 3.721846 1_545
Bi6 K7 3.725887 1_555
Bi6 K7 3.838845 1_655
Bi7 K15 3.632070 1_555
Bi7 K11 3.647634 1_555
Bi7 K10 3.671541 1_455
Bi7 K8 3.721846 1_555
Bi7 K6 3.725887 1_455
Bi7 K6 3.838845 1_555
Bi8 K12 3.620478 1_555
Bi8 K1 3.694288 1_455
Bi8 K15 3.700903 1_565
Bi8 K13 3.707478 1_454
Bi8 K1 3.860708 1_555
Bi8 K11 4.031568 1_565
Bi8 K5 4.082784 1_455
Bi9 K13 3.620478 1_555
Bi9 K0 3.694288 1_555
Bi9 K14 3.700903 1_555
Bi9 K12 3.707478 1_556
Bi9 K0 3.860708 1_655
Bi9 K10 4.031568 1_555
Bi9 K4 4.082784 1_555
Bi10 Bi15 3.044298 1_556
Bi10 Bi14 3.045924 1_655
Bi10 K14 3.620478 1_555
Bi10 K3 3.694288 1_655
Bi10 K13 3.700903 1_545
Bi10 K15 3.707478 1_656
Bi10 K3 3.860708 1_555
Bi10 K9 4.031568 1_545
Bi10 K7 4.082784 1_655
Bi11 Bi14 3.044298 1_554
Bi11 Bi15 3.045924 1_555
Bi11 K15 3.620478 1_555
Bi11 K2 3.694288 1_555
Bi11 K12 3.700903 1_555
Bi11 K14 3.707478 1_554
Bi11 K2 3.860708 1_455
Bi11 K8 4.031568 1_555
Bi11 K6 4.082784 1_555
Bi12 Bi9 3.044298 1_554
Bi12 Bi8 3.045924 1_655
Bi12 K0 3.607441 1_654
Bi12 K5 3.621283 1_555
Bi12 K12 3.698967 1_555
Bi12 K1 3.709604 1_555
Bi12 K2 3.794129 1_555
Bi12 K12 3.861484 1_655
Bi13 Bi8 3.044298 1_556
Bi13 Bi9 3.045924 1_555
Bi13 K1 3.607441 1_556
Bi13 K4 3.621283 1_555
Bi13 K13 3.698967 1_455
Bi13 K0 3.709604 1_555
Bi13 K3 3.794129 1_565
Bi13 K13 3.861484 1_555
Bi14 K2 3.607441 1_456
Bi14 K7 3.621283 1_555
Bi14 K14 3.698967 1_555
Bi14 K3 3.709604 1_555
Bi14 K0 3.794129 1_555
Bi14 K14 3.861484 1_455
Bi15 K3 3.607441 1_554
Bi15 K6 3.621283 1_555
Bi15 K15 3.698967 1_655
Bi15 K2 3.709604 1_555
Bi15 K1 3.794129 1_545
Bi15 K15 3.861484 1_555
