# generated using pymatgen
data_SnRh2Se5
_symmetry_space_group_name_H-M   'P 1'
_cell_length_a   3.75263700
_cell_length_b   7.72006981
_cell_length_c   13.20675524
_cell_angle_alpha   78.31318448
_cell_angle_beta   90.00000000
_cell_angle_gamma   90.00000000
_symmetry_Int_Tables_number   1
_chemical_formula_structural   SnRh2Se5
_chemical_formula_sum   'Sn2 Rh4 Se10'
_cell_volume   374.67620994
_cell_formula_units_Z   2
loop_
 _symmetry_equiv_pos_site_id
 _symmetry_equiv_pos_as_xyz
  1  'x, y, z'
loop_
 _atom_site_type_symbol
 _atom_site_label
 _atom_site_symmetry_multiplicity
 _atom_site_fract_x
 _atom_site_fract_y
 _atom_site_fract_z
 _atom_site_occupancy
  Sn  Sn0  1  0.50000000  0.16279009  0.67592168  1
  Sn  Sn1  1  0.50000000  0.83720991  0.32407832  1
  Rh  Rh0  1  0.00000000  0.25827164  0.14647494  1
  Rh  Rh1  1  0.00000000  0.74172836  0.85352506  1
  Rh  Rh2  1  0.50000000  0.75022800  0.14204170  1
  Rh  Rh3  1  0.50000000  0.24977200  0.85795830  1
  Se  Se0  1  0.00000000  0.95860413  0.09937208  1
  Se  Se1  1  0.00000000  0.04139587  0.90062792  1
  Se  Se2  1  0.00000000  0.45944153  0.78708941  1
  Se  Se3  1  0.00000000  0.54055847  0.21291059  1
  Se  Se4  1  0.50000000  0.66176211  0.97364593  1
  Se  Se5  1  0.50000000  0.33823789  0.02635407  1
  Se  Se6  1  0.50000000  0.18740378  0.27606814  1
  Se  Se7  1  0.50000000  0.81259622  0.72393186  1
  Se  Se8  1  0.00000000  0.24255863  0.54639236  1
  Se  Se9  1  0.00000000  0.75744137  0.45360764  1
loop_
_geom_bond_atom_site_label_1
_geom_bond_atom_site_label_2
_geom_bond_distance
_geom_bond_site_symmetry_2
Rh0 Se5 2.453897 1_555
Rh0 Se5 2.453897 1_455
Rh0 Se3 2.508725 1_555
Rh0 Se0 2.514375 1_545
Rh0 Se6 2.523846 1_455
Rh0 Se6 2.523846 1_555
Rh1 Se4 2.453897 1_455
Rh1 Se4 2.453897 1_555
Rh1 Se2 2.508725 1_555
Rh1 Se1 2.514375 1_565
Rh1 Se7 2.523846 1_455
Rh1 Se7 2.523846 1_555
Rh2 Se4 2.455154 1_554
Rh2 Se0 2.461447 1_555
Rh2 Se0 2.461447 1_655
Rh2 Se3 2.530392 1_555
Rh2 Se3 2.530392 1_655
Rh2 Sn1 2.623872 1_555
Rh3 Se5 2.455154 1_556
Rh3 Se1 2.461447 1_555
Rh3 Se1 2.461447 1_655
Rh3 Se2 2.530392 1_555
Rh3 Se2 2.530392 1_655
Rh3 Sn0 2.623872 1_555
Se0 Se1 2.572599 1_564
Se4 Se5 2.453235 1_556
Se6 Sn1 2.648886 1_545
Se7 Sn0 2.648886 1_565
Se8 Sn0 2.529701 1_555
Se8 Sn0 2.529701 1_455
Se9 Sn1 2.529701 1_455
Se9 Sn1 2.529701 1_555
