# generated using pymatgen
data_Sc6ZnP5Ru6
_symmetry_space_group_name_H-M   'P 1'
_cell_length_a   7.52469448
_cell_length_b   7.52338143
_cell_length_c   7.52469489
_cell_angle_alpha   127.90505136
_cell_angle_beta   122.58465313
_cell_angle_gamma   81.20964400
_symmetry_Int_Tables_number   1
_chemical_formula_structural   Sc6ZnP5Ru6
_chemical_formula_sum   'Sc6 Zn1 P5 Ru6'
_cell_volume   272.86328790
_cell_formula_units_Z   1
loop_
 _symmetry_equiv_pos_site_id
 _symmetry_equiv_pos_as_xyz
  1  'x, y, z'
loop_
 _atom_site_type_symbol
 _atom_site_label
 _atom_site_symmetry_multiplicity
 _atom_site_fract_x
 _atom_site_fract_y
 _atom_site_fract_z
 _atom_site_occupancy
  Sc  Sc0  1  0.44774228  0.65112702  0.70338474  1
  Sc  Sc1  1  0.53984453  0.25216797  0.21232344  1
  Sc  Sc2  1  0.75023054  0.84516599  0.59493545  1
  Sc  Sc3  1  0.24999723  0.84222675  0.09222853  1
  Sc  Sc4  1  0.05135208  0.25580131  0.70444924  1
  Sc  Sc5  1  0.96089558  0.67382351  0.21292793  1
  Zn  Zn0  1  0.24894652  0.24359818  0.49465266  1
  P  P0  1  0.75071712  0.25963311  0.00891499  1
  P  P1  1  0.33284983  0.58709348  0.25303355  1
  P  P2  1  0.66596262  0.92017131  0.25273878  1
  P  P3  1  0.16743253  0.92017131  0.75420869  1
  P  P4  1  0.83405993  0.58709348  0.75424465  1
  Ru  Ru0  1  0.52099506  0.50370606  0.02469563  1
  Ru  Ru1  1  0.97901143  0.50370606  0.48271200  1
  Ru  Ru2  1  0.10006400  0.25397036  0.10328781  1
  Ru  Ru3  1  0.84722261  0.00308587  0.10109330  1
  Ru  Ru4  1  0.40199257  0.00308587  0.65586426  1
  Ru  Ru5  1  0.65068254  0.25397036  0.65390636  1
loop_
_geom_bond_atom_site_label_1
_geom_bond_atom_site_label_2
_geom_bond_distance
_geom_bond_site_symmetry_2
Sc0 Zn0 2.656895 1_555
Sc3 Zn0 2.659181 1_565
Sc4 Zn0 2.649456 1_555
P0 Ru0 2.314515 1_555
P0 Ru1 2.314526 1_555
P0 Ru4 2.325454 1_554
P0 Ru3 2.325459 1_555
P0 Ru5 2.325638 1_554
P0 Ru2 2.325643 1_655
P0 Sc2 2.735521 1_544
P0 Sc5 2.753460 1_555
P0 Sc1 2.759054 1_555
P1 Ru2 2.522899 1_555
P1 Ru0 2.524700 1_555
P1 Ru4 2.529099 1_565
P1 Sc5 2.669152 1_455
P1 Sc3 2.685635 1_555
P1 Sc1 2.689808 1_555
P1 Sc2 2.697334 1_555
P1 Sc4 2.700533 1_554
P1 Sc0 2.725622 1_555
P2 Ru3 2.522395 1_565
P2 Ru0 2.524660 1_555
P2 Ru5 2.530454 1_565
P2 Sc1 2.670164 1_565
P2 Sc3 2.686731 1_555
P2 Sc5 2.688246 1_555
P2 Sc2 2.695943 1_555
P2 Sc0 2.702787 1_554
P2 Sc4 2.722949 1_665
P3 Ru4 2.522389 1_565
P3 Ru1 2.524660 1_455
P3 Ru2 2.530453 1_566
P3 Sc1 2.670165 1_566
P3 Sc3 2.686726 1_556
P3 Sc5 2.688247 1_455
P3 Sc2 2.695943 1_455
P3 Sc0 2.702786 1_555
P3 Sc4 2.722948 1_565
P4 Ru5 2.522895 1_555
P4 Ru1 2.524706 1_555
P4 Ru3 2.529095 1_566
P4 Sc5 2.669145 1_556
P4 Sc3 2.685631 1_656
P4 Sc1 2.689812 1_555
P4 Sc2 2.697339 1_555
P4 Sc4 2.700531 1_655
P4 Sc0 2.725619 1_555
Ru0 Zn0 2.601500 1_554
Ru0 Sc2 2.797270 1_555
Ru0 Sc1 2.929128 1_555
Ru0 Sc5 2.935759 1_555
Ru0 Sc3 2.973445 1_555
Ru0 Sc0 3.008673 1_554
Ru0 Sc4 3.015601 1_554
Ru1 Zn0 2.601500 1_655
Ru1 Sc2 2.797273 1_555
Ru1 Sc1 2.929132 1_555
Ru1 Sc5 2.935763 1_555
Ru1 Sc3 2.973436 1_656
Ru1 Sc0 3.008668 1_655
Ru1 Sc4 3.015596 1_655
Ru2 Zn0 2.575993 1_555
Ru2 Sc4 2.829449 1_554
Ru2 Sc2 2.862561 1_444
Ru2 Sc5 2.910727 1_455
Ru2 Sc1 2.949544 1_555
Ru2 Sc0 3.041279 1_555
Ru2 Sc3 3.097057 1_545
Ru3 Zn0 2.574369 1_655
Ru3 Sc0 2.830208 1_544
Ru3 Sc2 2.856803 1_544
Ru3 Sc1 2.897415 1_555
Ru3 Sc5 2.952051 1_545
Ru3 Sc4 3.059685 1_655
Ru3 Sc3 3.106776 1_645
Ru4 Zn0 2.574368 1_555
Ru4 Sc0 2.830203 1_545
Ru4 Sc2 2.856805 1_545
Ru4 Sc1 2.897409 1_556
Ru4 Sc5 2.952051 1_445
Ru4 Sc4 3.059683 1_555
Ru4 Sc3 3.106788 1_545
Ru5 Zn0 2.575988 1_555
Ru5 Sc4 2.829449 1_655
Ru5 Sc2 2.862560 1_545
Ru5 Sc5 2.910727 1_556
Ru5 Sc1 2.949544 1_555
Ru5 Sc0 3.041278 1_555
Ru5 Sc3 3.097062 1_545
