# generated using pymatgen
data_Y2Mn(Si3Pd10)2
_symmetry_space_group_name_H-M   'P 1'
_cell_length_a   8.60249414
_cell_length_b   8.60249417
_cell_length_c   8.60249354
_cell_angle_alpha   59.99999868
_cell_angle_beta   59.99999858
_cell_angle_gamma   59.99999699
_symmetry_Int_Tables_number   1
_chemical_formula_structural   Y2Mn(Si3Pd10)2
_chemical_formula_sum   'Y2 Mn1 Si6 Pd20'
_cell_volume   450.15088775
_cell_formula_units_Z   1
loop_
 _symmetry_equiv_pos_site_id
 _symmetry_equiv_pos_as_xyz
  1  'x, y, z'
loop_
 _atom_site_type_symbol
 _atom_site_label
 _atom_site_symmetry_multiplicity
 _atom_site_fract_x
 _atom_site_fract_y
 _atom_site_fract_z
 _atom_site_occupancy
  Y  Y0  1  0.25000000  0.25000000  0.25000000  1
  Y  Y1  1  0.75000000  0.75000000  0.75000000  1
  Mn  Mn0  1  0.00000000  0.00000000  0.00000000  1
  Si  Si0  1  0.73425217  0.26574783  0.26574783  1
  Si  Si1  1  0.26574783  0.73425217  0.73425217  1
  Si  Si2  1  0.26574783  0.73425217  0.26574783  1
  Si  Si3  1  0.73425217  0.26574783  0.73425217  1
  Si  Si4  1  0.26574783  0.26574783  0.73425217  1
  Si  Si5  1  0.73425217  0.73425217  0.26574783  1
  Pd  Pd0  1  0.38391480  0.38391480  0.38391480  1
  Pd  Pd1  1  0.61608520  0.61608520  0.61608520  1
  Pd  Pd2  1  0.38391480  0.38391480  0.84825659  1
  Pd  Pd3  1  0.38391480  0.84825659  0.38391480  1
  Pd  Pd4  1  0.61608520  0.61608520  0.15174341  1
  Pd  Pd5  1  0.61608520  0.15174341  0.61608520  1
  Pd  Pd6  1  0.84825659  0.38391480  0.38391480  1
  Pd  Pd7  1  0.15174341  0.61608520  0.61608520  1
  Pd  Pd8  1  0.34385433  1.00000000  0.00000000  1
  Pd  Pd9  1  0.65614567  0.00000000  1.00000000  1
  Pd  Pd10  1  1.00000000  0.34385433  0.65614567  1
  Pd  Pd11  1  0.00000000  0.65614567  0.34385433  1
  Pd  Pd12  1  1.00000000  0.34385433  0.00000000  1
  Pd  Pd13  1  0.65614567  0.00000000  0.34385433  1
  Pd  Pd14  1  0.00000000  0.65614567  1.00000000  1
  Pd  Pd15  1  0.34385433  1.00000000  0.65614567  1
  Pd  Pd16  1  1.00000000  1.00000000  0.34385433  1
  Pd  Pd17  1  0.00000000  0.00000000  0.65614567  1
  Pd  Pd18  1  0.65614567  0.34385433  0.00000000  1
  Pd  Pd19  1  0.34385433  0.65614567  1.00000000  1
loop_
_geom_bond_atom_site_label_1
_geom_bond_atom_site_label_2
_geom_bond_distance
_geom_bond_site_symmetry_2
Mn0 Pd16 2.958005 1_445
Mn0 Pd17 2.958005 1_554
Mn0 Pd13 2.958005 1_455
Mn0 Pd15 2.958005 1_544
Mn0 Pd10 2.958005 1_454
Mn0 Pd11 2.958005 1_545
Mn0 Pd19 2.958005 1_544
Mn0 Pd18 2.958005 1_455
Mn0 Pd8 2.958005 1_545
Mn0 Pd9 2.958005 1_454
Mn0 Pd12 2.958005 1_455
Mn0 Pd14 2.958005 1_544
Pd0 Si4 2.460824 1_555
Pd0 Si0 2.460824 1_555
Pd0 Si2 2.460824 1_555
Pd0 Y0 2.821815 1_555
Pd1 Si5 2.460824 1_555
Pd1 Si1 2.460824 1_555
Pd1 Si3 2.460824 1_555
Pd1 Y1 2.821815 1_555
Pd2 Si3 2.460824 1_555
Pd2 Si1 2.460824 1_555
Pd2 Si4 2.460831 1_555
Pd2 Y0 2.821808 1_556
Pd3 Si1 2.460824 1_555
Pd3 Si5 2.460824 1_555
Pd3 Si2 2.460831 1_555
Pd3 Y0 2.821808 1_565
Pd4 Si2 2.460824 1_555
Pd4 Si0 2.460824 1_555
Pd4 Si5 2.460831 1_555
Pd4 Y1 2.821808 1_554
Pd5 Si0 2.460824 1_555
Pd5 Si4 2.460824 1_555
Pd5 Si3 2.460831 1_555
Pd5 Y1 2.821808 1_545
Pd6 Si3 2.460824 1_555
Pd6 Si5 2.460824 1_555
Pd6 Si0 2.460831 1_555
Pd6 Y0 2.821808 1_655
Pd7 Si2 2.460824 1_555
Pd7 Si4 2.460824 1_555
Pd7 Si1 2.460831 1_555
Pd7 Y1 2.821808 1_455
Pd8 Si4 2.382790 1_564
Pd8 Si2 2.382790 1_555
Pd9 Si5 2.382790 1_546
Pd9 Si3 2.382790 1_555
Pd10 Si4 2.382790 1_655
Pd10 Si3 2.382791 1_555
Pd11 Si5 2.382790 1_455
Pd11 Si2 2.382791 1_555
Pd12 Si4 2.382790 1_654
Pd12 Si0 2.382790 1_555
Pd13 Si5 2.382790 1_545
Pd13 Si0 2.382791 1_555
Pd14 Si5 2.382790 1_456
Pd14 Si1 2.382790 1_555
Pd15 Si4 2.382790 1_565
Pd15 Si1 2.382791 1_555
Pd16 Si2 2.382790 1_655
Pd16 Si0 2.382790 1_565
Pd17 Si3 2.382790 1_455
Pd17 Si1 2.382790 1_545
Pd18 Si3 2.382790 1_554
Pd18 Si0 2.382790 1_555
Pd19 Si2 2.382790 1_556
Pd19 Si1 2.382790 1_555
