# generated using pymatgen
data_Zr3TaRh2N
_symmetry_space_group_name_H-M   'P 1'
_cell_length_a   8.66850961
_cell_length_b   8.66850959
_cell_length_c   8.66851003
_cell_angle_alpha   60.00000209
_cell_angle_beta   60.00000217
_cell_angle_gamma   59.99999920
_symmetry_Int_Tables_number   1
_chemical_formula_structural   Zr3TaRh2N
_chemical_formula_sum   'Zr12 Ta4 Rh8 N4'
_cell_volume   460.59406647
_cell_formula_units_Z   4
loop_
 _symmetry_equiv_pos_site_id
 _symmetry_equiv_pos_as_xyz
  1  'x, y, z'
loop_
 _atom_site_type_symbol
 _atom_site_label
 _atom_site_symmetry_multiplicity
 _atom_site_fract_x
 _atom_site_fract_y
 _atom_site_fract_z
 _atom_site_occupancy
  Zr  Zr0  1  0.81352989  0.81352989  0.18647011  1
  Zr  Zr1  1  0.18647011  0.18647011  0.81352989  1
  Zr  Zr2  1  0.81352989  0.18647011  0.81352989  1
  Zr  Zr3  1  0.18647011  0.81352989  0.18647011  1
  Zr  Zr4  1  0.18647011  0.81352989  0.81352989  1
  Zr  Zr5  1  0.81352989  0.18647011  0.18647011  1
  Zr  Zr6  1  0.43647011  0.43647011  0.06352989  1
  Zr  Zr7  1  0.06352989  0.06352989  0.43647011  1
  Zr  Zr8  1  0.43647011  0.06352989  0.43647011  1
  Zr  Zr9  1  0.06352989  0.43647011  0.06352989  1
  Zr  Zr10  1  0.06352989  0.43647011  0.43647011  1
  Zr  Zr11  1  0.43647011  0.06352989  0.06352989  1
  Ta  Ta0  1  0.12500000  0.62500000  0.62500000  1
  Ta  Ta1  1  0.62500000  0.12500000  0.62500000  1
  Ta  Ta2  1  0.62500000  0.62500000  0.12500000  1
  Ta  Ta3  1  0.62500000  0.62500000  0.62500000  1
  Rh  Rh0  1  0.75735791  0.41421336  0.41421336  1
  Rh  Rh1  1  0.41421336  0.75735791  0.41421336  1
  Rh  Rh2  1  0.41421336  0.41421336  0.75735791  1
  Rh  Rh3  1  0.41421336  0.41421336  0.41421336  1
  Rh  Rh4  1  0.49264209  0.83578664  0.83578664  1
  Rh  Rh5  1  0.83578664  0.49264209  0.83578664  1
  Rh  Rh6  1  0.83578664  0.83578664  0.49264209  1
  Rh  Rh7  1  0.83578664  0.83578664  0.83578664  1
  N  N0  1  0.62500000  0.12500000  0.12500000  1
  N  N1  1  0.12500000  0.62500000  0.12500000  1
  N  N2  1  0.12500000  0.12500000  0.62500000  1
  N  N3  1  0.12500000  0.12500000  0.12500000  1
loop_
_geom_bond_atom_site_label_1
_geom_bond_atom_site_label_2
_geom_bond_distance
_geom_bond_site_symmetry_2
Rh0 Ta1 2.671984 1_555
Rh0 Ta2 2.671984 1_555
Rh0 Ta3 2.671998 1_555
Rh0 Zr7 2.860022 1_655
Rh0 Zr9 2.860023 1_655
Rh0 Zr10 2.860032 1_655
Rh0 Zr5 3.163361 1_555
Rh0 Zr0 3.163376 1_555
Rh0 Zr2 3.163376 1_555
Rh1 Ta0 2.671984 1_555
Rh1 Ta2 2.671984 1_555
Rh1 Ta3 2.671998 1_555
Rh1 Zr7 2.860022 1_565
Rh1 Zr11 2.860023 1_565
Rh1 Zr8 2.860032 1_565
Rh1 Zr3 3.163361 1_555
Rh1 Zr0 3.163376 1_555
Rh1 Zr4 3.163376 1_555
Rh2 Ta1 2.671984 1_555
Rh2 Ta0 2.671984 1_555
Rh2 Ta3 2.671998 1_555
Rh2 Zr11 2.860023 1_556
Rh2 Zr9 2.860023 1_556
Rh2 Zr6 2.860032 1_556
Rh2 Zr1 3.163361 1_555
Rh2 Zr4 3.163376 1_555
Rh2 Zr2 3.163376 1_555
Rh3 Ta1 2.671994 1_555
Rh3 Ta0 2.671994 1_555
Rh3 Ta2 2.671994 1_555
Rh3 Zr8 2.860015 1_555
Rh3 Zr10 2.860015 1_555
Rh3 Zr6 2.860015 1_555
Rh3 Zr3 3.163369 1_555
Rh3 Zr5 3.163369 1_555
Rh3 Zr1 3.163369 1_555
Rh4 Ta1 2.671984 1_565
Rh4 Ta2 2.671984 1_556
Rh4 Ta3 2.671998 1_555
Rh4 Zr1 2.860022 1_565
Rh4 Zr3 2.860023 1_556
Rh4 Zr4 2.860032 1_555
Rh4 Zr11 3.163361 1_566
Rh4 Zr6 3.163376 1_556
Rh4 Zr8 3.163376 1_565
Rh5 Ta0 2.671984 1_655
Rh5 Ta2 2.671984 1_556
Rh5 Ta3 2.671998 1_555
Rh5 Zr1 2.860022 1_655
Rh5 Zr5 2.860023 1_556
Rh5 Zr2 2.860032 1_555
Rh5 Zr9 3.163361 1_656
Rh5 Zr6 3.163376 1_556
Rh5 Zr10 3.163376 1_655
Rh6 Ta1 2.671984 1_565
Rh6 Ta0 2.671984 1_655
Rh6 Ta3 2.671998 1_555
Rh6 Zr5 2.860023 1_565
Rh6 Zr3 2.860023 1_655
Rh6 Zr0 2.860032 1_555
Rh6 Zr7 3.163361 1_665
Rh6 Zr10 3.163376 1_655
Rh6 Zr8 3.163376 1_565
Rh7 Ta1 2.671994 1_565
Rh7 Ta0 2.671994 1_655
Rh7 Ta2 2.671994 1_556
Rh7 Zr2 2.860015 1_565
Rh7 Zr4 2.860015 1_655
Rh7 Zr0 2.860015 1_556
Rh7 Zr9 3.163369 1_656
Rh7 Zr11 3.163369 1_566
Rh7 Zr7 3.163369 1_665
N0 Zr6 2.294408 1_555
N0 Zr0 2.294408 1_545
N0 Zr5 2.294408 1_555
N0 Zr11 2.294408 1_555
N0 Zr8 2.294408 1_555
N0 Zr2 2.294408 1_554
N1 Zr6 2.294408 1_555
N1 Zr0 2.294408 1_455
N1 Zr3 2.294408 1_555
N1 Zr9 2.294408 1_555
N1 Zr10 2.294408 1_555
N1 Zr4 2.294408 1_554
N2 Zr1 2.294408 1_555
N2 Zr7 2.294408 1_555
N2 Zr10 2.294408 1_555
N2 Zr4 2.294408 1_545
N2 Zr8 2.294408 1_555
N2 Zr2 2.294408 1_455
N3 Zr9 2.294408 1_555
N3 Zr3 2.294408 1_545
N3 Zr11 2.294408 1_555
N3 Zr5 2.294408 1_455
N3 Zr7 2.294408 1_555
N3 Zr1 2.294408 1_554
