# generated using pymatgen
data_Zr10AlSiSb6
_symmetry_space_group_name_H-M   'P 1'
_cell_length_a   8.66492048
_cell_length_b   8.66491995
_cell_length_c   5.84131093
_cell_angle_alpha   90.00000000
_cell_angle_beta   90.00000000
_cell_angle_gamma   119.99999823
_symmetry_Int_Tables_number   1
_chemical_formula_structural   Zr10AlSiSb6
_chemical_formula_sum   'Zr10 Al1 Si1 Sb6'
_cell_volume   379.81323968
_cell_formula_units_Z   1
loop_
 _symmetry_equiv_pos_site_id
 _symmetry_equiv_pos_as_xyz
  1  'x, y, z'
loop_
 _atom_site_type_symbol
 _atom_site_label
 _atom_site_symmetry_multiplicity
 _atom_site_fract_x
 _atom_site_fract_y
 _atom_site_fract_z
 _atom_site_occupancy
  Zr  Zr0  1  0.73478649  0.73478649  0.75664265  1
  Zr  Zr1  1  0.26521351  0.00000000  0.75664265  1
  Zr  Zr2  1  0.00000000  0.26521351  0.75664265  1
  Zr  Zr3  1  0.26521351  0.26521351  0.24335735  1
  Zr  Zr4  1  0.73478649  1.00000000  0.24335735  1
  Zr  Zr5  1  0.00000000  0.73478649  0.24335735  1
  Zr  Zr6  1  0.66666700  0.33333300  0.00000000  1
  Zr  Zr7  1  0.33333300  0.66666700  0.00000000  1
  Zr  Zr8  1  0.33333300  0.66666700  0.50000000  1
  Zr  Zr9  1  0.66666700  0.33333300  0.50000000  1
  Al  Al0  1  0.00000000  0.00000000  0.50000000  1
  Si  Si0  1  0.00000000  0.00000000  0.00000000  1
  Sb  Sb0  1  0.39114781  0.39114781  0.74671678  1
  Sb  Sb1  1  0.60885219  1.00000000  0.74671678  1
  Sb  Sb2  1  0.00000000  0.60885219  0.74671678  1
  Sb  Sb3  1  0.60885219  0.60885219  0.25328322  1
  Sb  Sb4  1  0.39114781  0.00000000  0.25328322  1
  Sb  Sb5  1  0.00000000  0.39114781  0.25328322  1
loop_
_geom_bond_atom_site_label_1
_geom_bond_atom_site_label_2
_geom_bond_distance
_geom_bond_site_symmetry_2
Al0 Zr2 2.743800 1_555
Al0 Zr5 2.743800 1_545
Al0 Zr3 2.743801 1_555
Al0 Zr0 2.743801 1_445
Al0 Zr1 2.743801 1_555
Al0 Zr4 2.743801 1_445
Al0 Si0 2.920655 1_555
Al0 Si0 2.920655 1_556
Si0 Zr2 2.702182 1_554
Si0 Zr5 2.702182 1_545
Si0 Zr3 2.702182 1_555
Si0 Zr0 2.702182 1_444
Si0 Zr1 2.702182 1_554
Si0 Zr4 2.702182 1_445
Sb0 Zr0 2.978166 1_555
Sb0 Zr1 2.997134 1_555
Sb0 Zr2 2.997135 1_555
Sb0 Zr8 3.036987 1_555
Sb0 Zr9 3.036987 1_555
Sb0 Zr7 3.055375 1_556
Sb0 Zr6 3.055375 1_556
Sb0 Zr3 3.099472 1_556
Sb0 Zr3 3.136237 1_555
Sb1 Zr1 2.978166 1_565
Sb1 Zr0 2.997134 1_555
Sb1 Zr2 2.997135 1_665
Sb1 Zr9 3.036980 1_565
Sb1 Zr8 3.036982 1_555
Sb1 Zr6 3.055368 1_566
Sb1 Zr7 3.055370 1_556
Sb1 Zr4 3.099472 1_556
Sb1 Zr4 3.136237 1_555
Sb2 Zr2 2.978166 1_555
Sb2 Zr1 2.997134 1_565
Sb2 Zr0 2.997134 1_455
Sb2 Zr8 3.036980 1_555
Sb2 Zr9 3.036982 1_455
Sb2 Zr7 3.055368 1_556
Sb2 Zr6 3.055371 1_456
Sb2 Zr5 3.099472 1_556
Sb2 Zr5 3.136237 1_555
Sb3 Zr3 2.978166 1_555
Sb3 Zr4 2.997134 1_555
Sb3 Zr5 2.997135 1_655
Sb3 Zr9 3.036987 1_555
Sb3 Zr8 3.036987 1_555
Sb3 Zr6 3.055375 1_555
Sb3 Zr7 3.055375 1_555
Sb3 Zr0 3.099472 1_554
Sb3 Zr0 3.136237 1_555
Sb4 Zr4 2.978166 1_545
Sb4 Zr3 2.997134 1_555
Sb4 Zr5 2.997135 1_545
Sb4 Zr8 3.036980 1_545
Sb4 Zr9 3.036982 1_555
Sb4 Zr7 3.055368 1_545
Sb4 Zr6 3.055370 1_555
Sb4 Zr1 3.099472 1_554
Sb4 Zr1 3.136237 1_555
Sb5 Zr5 2.978166 1_555
Sb5 Zr4 2.997134 1_445
Sb5 Zr3 2.997134 1_555
Sb5 Zr9 3.036980 1_455
Sb5 Zr8 3.036982 1_555
Sb5 Zr6 3.055368 1_455
Sb5 Zr7 3.055371 1_555
Sb5 Zr2 3.099472 1_554
Sb5 Zr2 3.136237 1_555
