# generated using pymatgen
data_Ba2LiZn25
_symmetry_space_group_name_H-M   'P 1'
_cell_length_a   8.61437139
_cell_length_b   8.61437233
_cell_length_c   8.61437251
_cell_angle_alpha   60.00000295
_cell_angle_beta   59.99999934
_cell_angle_gamma   60.00000108
_symmetry_Int_Tables_number   1
_chemical_formula_structural   Ba2LiZn25
_chemical_formula_sum   'Ba2 Li1 Zn25'
_cell_volume   452.01816872
_cell_formula_units_Z   1
loop_
 _symmetry_equiv_pos_site_id
 _symmetry_equiv_pos_as_xyz
  1  'x, y, z'
loop_
 _atom_site_type_symbol
 _atom_site_label
 _atom_site_symmetry_multiplicity
 _atom_site_fract_x
 _atom_site_fract_y
 _atom_site_fract_z
 _atom_site_occupancy
  Ba  Ba0  1  0.75000000  0.75000000  0.75000000  1
  Ba  Ba1  1  0.25000000  0.25000000  0.25000000  1
  Li  Li0  1  0.50000000  0.50000000  0.50000000  1
  Zn  Zn0  1  0.44025313  0.79581350  0.55974687  1
  Zn  Zn1  1  0.05909369  0.94090631  0.70171530  1
  Zn  Zn2  1  0.55974687  0.44025313  0.79581350  1
  Zn  Zn3  1  0.79581350  0.55974687  0.44025313  1
  Zn  Zn4  1  0.20418650  0.79581350  0.44025313  1
  Zn  Zn5  1  0.70171530  0.05909369  0.94090631  1
  Zn  Zn6  1  0.44025313  0.55974687  0.20418650  1
  Zn  Zn7  1  0.70171530  0.94090631  0.29828470  1
  Zn  Zn8  1  0.44025313  0.20418650  0.79581350  1
  Zn  Zn9  1  0.94090631  0.70171530  0.05909369  1
  Zn  Zn10  1  0.05909369  0.29828470  0.94090631  1
  Zn  Zn11  1  0.94090631  0.29828470  0.70171530  1
  Zn  Zn12  1  0.70171530  0.29828470  0.05909369  1
  Zn  Zn13  1  0.20418650  0.44025313  0.55974687  1
  Zn  Zn14  1  0.79581350  0.44025313  0.20418650  1
  Zn  Zn15  1  0.29828470  0.70171530  0.94090631  1
  Zn  Zn16  1  0.05909369  0.70171530  0.29828470  1
  Zn  Zn17  1  0.55974687  0.79581350  0.20418650  1
  Zn  Zn18  1  0.29828470  0.94090631  0.05909369  1
  Zn  Zn19  1  0.20418650  0.55974687  0.79581350  1
  Zn  Zn20  1  0.29828470  0.05909369  0.70171530  1
  Zn  Zn21  1  0.79581350  0.20418650  0.55974687  1
  Zn  Zn22  1  0.94090631  0.05909369  0.29828470  1
  Zn  Zn23  1  0.55974687  0.20418650  0.44025313  1
  Zn  Zn24  1  0.00000000  0.00000000  0.00000000  1
loop_
_geom_bond_atom_site_label_1
_geom_bond_atom_site_label_2
_geom_bond_distance
_geom_bond_site_symmetry_2
Ba0 Zn15 3.543232 1_555
Ba0 Zn1 3.543232 1_655
Ba0 Zn20 3.543232 1_565
Ba0 Zn18 3.543232 1_556
Ba0 Zn9 3.543232 1_556
Ba0 Zn16 3.543232 1_655
Ba0 Zn5 3.543232 1_565
Ba0 Zn10 3.543232 1_655
Ba0 Zn11 3.543232 1_555
Ba0 Zn22 3.543232 1_565
Ba0 Zn12 3.543232 1_556
Ba0 Zn7 3.543232 1_555
Ba0 Zn19 3.554530 1_655
Ba0 Zn4 3.554530 1_655
Ba0 Zn13 3.554530 1_655
Ba0 Zn0 3.554530 1_555
Ba0 Zn2 3.554531 1_555
Ba0 Zn6 3.554531 1_556
Ba0 Zn8 3.554531 1_565
Ba0 Zn3 3.554531 1_555
Ba0 Zn21 3.554531 1_565
Ba0 Zn17 3.554531 1_556
Ba0 Zn23 3.554531 1_565
Ba0 Zn14 3.554531 1_556
Ba1 Zn12 3.543232 1_555
Ba1 Zn22 3.543232 1_455
Ba1 Zn7 3.543232 1_545
Ba1 Zn5 3.543232 1_554
Ba1 Zn10 3.543232 1_554
Ba1 Zn11 3.543232 1_455
Ba1 Zn18 3.543232 1_545
Ba1 Zn9 3.543232 1_455
Ba1 Zn16 3.543232 1_555
Ba1 Zn1 3.543232 1_545
Ba1 Zn15 3.543232 1_554
Ba1 Zn20 3.543232 1_555
Ba1 Zn14 3.554530 1_455
Ba1 Zn21 3.554530 1_455
Ba1 Zn3 3.554530 1_455
Ba1 Zn23 3.554530 1_555
Ba1 Zn6 3.554531 1_555
Ba1 Zn2 3.554531 1_554
Ba1 Zn17 3.554531 1_545
Ba1 Zn13 3.554531 1_555
Ba1 Zn4 3.554531 1_545
Ba1 Zn8 3.554531 1_554
Ba1 Zn0 3.554531 1_545
Ba1 Zn19 3.554531 1_554
Li0 Zn3 2.599704 1_555
Li0 Zn13 2.599704 1_555
Li0 Zn19 2.599704 1_555
Li0 Zn14 2.599704 1_555
Li0 Zn21 2.599704 1_555
Li0 Zn4 2.599704 1_555
Li0 Zn0 2.599705 1_555
Li0 Zn23 2.599705 1_555
Li0 Zn2 2.599705 1_555
Li0 Zn6 2.599705 1_555
Li0 Zn17 2.599705 1_555
Li0 Zn8 2.599705 1_555
Zn0 Zn7 2.575890 1_555
Zn0 Zn20 2.576713 1_565
Zn0 Zn1 2.692208 1_555
Zn0 Zn15 2.692208 1_555
Zn0 Zn3 2.699677 1_555
Zn0 Zn4 2.699677 1_555
Zn0 Zn17 2.699677 1_555
Zn0 Zn2 2.699678 1_555
Zn0 Zn19 2.875896 1_555
Zn1 Zn4 2.575890 1_555
Zn1 Zn21 2.576712 1_465
Zn1 Zn24 2.619475 1_566
Zn1 Zn19 2.692208 1_555
Zn1 Zn20 2.716601 1_565
Zn1 Zn5 2.716601 1_465
Zn1 Zn11 2.716601 1_465
Zn1 Zn9 2.716602 1_456
Zn1 Zn15 2.913959 1_555
Zn2 Zn5 2.692208 1_555
Zn2 Zn8 2.699677 1_555
Zn2 Zn3 2.699677 1_555
Zn2 Zn21 2.875896 1_555
Zn3 Zn9 2.692208 1_555
Zn3 Zn7 2.692208 1_555
Zn4 Zn6 2.875896 1_555
Zn5 Zn8 2.575890 1_555
Zn5 Zn9 2.716601 1_546
Zn5 Zn7 2.716602 1_546
Zn7 Zn9 2.913959 1_555
Zn10 Zn19 2.575890 1_555
Zn10 Zn14 2.576712 1_456
Zn10 Zn24 2.619475 1_556
Zn10 Zn8 2.692208 1_555
Zn10 Zn13 2.692208 1_555
Zn10 Zn12 2.716601 1_456
Zn10 Zn11 2.716601 1_455
Zn10 Zn18 2.716601 1_546
Zn10 Zn22 2.716602 1_456
Zn10 Zn20 2.913959 1_555
Zn11 Zn3 2.575890 1_555
Zn11 Zn13 2.576712 1_655
Zn11 Zn24 2.619475 1_656
Zn11 Zn2 2.692208 1_555
Zn11 Zn21 2.692208 1_555
Zn11 Zn20 2.716601 1_655
Zn11 Zn12 2.716601 1_556
Zn11 Zn5 2.913959 1_555
Zn12 Zn6 2.575890 1_555
Zn12 Zn2 2.576713 1_554
Zn12 Zn24 2.619475 1_655
Zn12 Zn14 2.692208 1_555
Zn12 Zn23 2.692208 1_555
Zn12 Zn5 2.716601 1_554
Zn12 Zn7 2.716602 1_545
Zn12 Zn22 2.913959 1_555
Zn13 Zn16 2.575890 1_555
Zn13 Zn20 2.692208 1_555
Zn13 Zn23 2.699677 1_555
Zn13 Zn6 2.699677 1_555
Zn13 Zn19 2.699677 1_555
Zn13 Zn4 2.699677 1_555
Zn13 Zn8 2.875896 1_555
Zn14 Zn9 2.575890 1_555
Zn14 Zn22 2.692208 1_555
Zn14 Zn6 2.699677 1_555
Zn14 Zn17 2.699677 1_555
Zn14 Zn3 2.699677 1_555
Zn14 Zn21 2.699678 1_555
Zn14 Zn23 2.875896 1_555
Zn15 Zn2 2.575890 1_555
Zn15 Zn6 2.576713 1_556
Zn15 Zn24 2.619475 1_566
Zn15 Zn19 2.692208 1_555
Zn15 Zn9 2.716601 1_456
Zn15 Zn16 2.716601 1_556
Zn15 Zn18 2.716601 1_556
Zn15 Zn20 2.716602 1_565
Zn16 Zn3 2.576712 1_455
Zn16 Zn24 2.619475 1_565
Zn16 Zn6 2.692208 1_555
Zn16 Zn4 2.692208 1_555
Zn16 Zn7 2.716601 1_455
Zn16 Zn9 2.716601 1_455
Zn16 Zn22 2.716601 1_465
Zn16 Zn18 2.913959 1_555
Zn17 Zn18 2.575890 1_555
Zn17 Zn5 2.576713 1_564
Zn17 Zn9 2.692208 1_555
Zn17 Zn7 2.692208 1_555
Zn17 Zn4 2.699677 1_555
Zn17 Zn6 2.699677 1_555
Zn17 Zn3 2.875896 1_555
Zn18 Zn8 2.576713 1_564
Zn18 Zn24 2.619475 1_565
Zn18 Zn6 2.692208 1_555
Zn18 Zn4 2.692208 1_555
Zn18 Zn22 2.716601 1_465
Zn18 Zn20 2.716602 1_564
Zn19 Zn9 2.576712 1_456
Zn19 Zn2 2.699677 1_555
Zn19 Zn8 2.699677 1_555
Zn19 Zn4 2.699678 1_555
Zn20 Zn23 2.575890 1_555
Zn20 Zn24 2.619475 1_556
Zn20 Zn8 2.692208 1_555
Zn21 Zn22 2.575890 1_555
Zn21 Zn5 2.692208 1_555
Zn21 Zn8 2.699677 1_555
Zn21 Zn23 2.699677 1_555
Zn21 Zn3 2.699677 1_555
Zn22 Zn4 2.576712 1_645
Zn22 Zn24 2.619475 1_655
Zn22 Zn23 2.692208 1_555
Zn22 Zn7 2.716601 1_545
Zn23 Zn7 2.576713 1_545
Zn23 Zn8 2.699677 1_555
Zn23 Zn6 2.699678 1_555
Zn24 Zn5 2.619475 1_454
Zn24 Zn7 2.619475 1_445
Zn24 Zn9 2.619475 1_445
