# generated using pymatgen
data_Li3Mn(PO4)2
_symmetry_space_group_name_H-M   'P 1'
_cell_length_a   18.35132600
_cell_length_b   4.83705000
_cell_length_c   7.86184329
_cell_angle_alpha   55.17917299
_cell_angle_beta   90.00000000
_cell_angle_gamma   90.00000000
_symmetry_Int_Tables_number   1
_chemical_formula_structural   Li3Mn(PO4)2
_chemical_formula_sum   'Li12 Mn4 P8 O32'
_cell_volume   572.90778846
_cell_formula_units_Z   4
loop_
 _symmetry_equiv_pos_site_id
 _symmetry_equiv_pos_as_xyz
  1  'x, y, z'
loop_
 _atom_site_type_symbol
 _atom_site_label
 _atom_site_symmetry_multiplicity
 _atom_site_fract_x
 _atom_site_fract_y
 _atom_site_fract_z
 _atom_site_occupancy
  Li  Li0  1  0.12161500  0.28343900  0.49722500  1
  Li  Li1  1  0.05289000  0.97725300  0.28926500  1
  Li  Li2  1  0.19811800  0.63381000  0.67703300  1
  Li  Li3  1  0.30188200  0.63381000  0.17703300  1
  Li  Li4  1  0.80188200  0.36619000  0.32296700  1
  Li  Li5  1  0.62161500  0.71656100  0.00277500  1
  Li  Li6  1  0.37838500  0.28343900  0.99722500  1
  Li  Li7  1  0.69811800  0.36619000  0.82296700  1
  Li  Li8  1  0.44711000  0.97725300  0.78926500  1
  Li  Li9  1  0.87838500  0.71656100  0.50277500  1
  Li  Li10  1  0.55289000  0.02274700  0.21073500  1
  Li  Li11  1  0.94711000  0.02274700  0.71073500  1
  Mn  Mn0  1  0.12691000  0.81699100  0.98307600  1
  Mn  Mn1  1  0.37309000  0.81699100  0.48307600  1
  Mn  Mn2  1  0.62691000  0.18300900  0.51692400  1
  Mn  Mn3  1  0.87309000  0.18300900  0.01692400  1
  P  P0  1  0.28712200  0.12483900  0.70045900  1
  P  P1  1  0.78712200  0.87516100  0.79954100  1
  P  P2  1  0.71287800  0.87516100  0.29954100  1
  P  P3  1  0.53848500  0.49246700  0.73043400  1
  P  P4  1  0.03848500  0.50753300  0.76956600  1
  P  P5  1  0.46151500  0.50753300  0.26956600  1
  P  P6  1  0.96151500  0.49246700  0.23043400  1
  P  P7  1  0.21287800  0.12483900  0.20045900  1
  O  O0  1  0.70381500  0.83538200  0.78512000  1
  O  O1  1  0.20381500  0.16461800  0.71488000  1
  O  O2  1  0.80266100  0.16592400  0.82997100  1
  O  O3  1  0.93064200  0.44475100  0.42461500  1
  O  O4  1  0.30266100  0.83407600  0.67002900  1
  O  O5  1  0.43352800  0.16898000  0.46762000  1
  O  O6  1  0.95384800  0.52917700  0.76430700  1
  O  O7  1  0.79618500  0.83538200  0.28512000  1
  O  O8  1  0.68666700  0.53289700  0.49969300  1
  O  O9  1  0.93536900  0.18792000  0.22125400  1
  O  O10  1  0.43064200  0.55524900  0.07538500  1
  O  O11  1  0.43536900  0.81208000  0.27874600  1
  O  O12  1  0.06463100  0.81208000  0.77874600  1
  O  O13  1  0.18666700  0.46710300  0.00030700  1
  O  O14  1  0.93352800  0.83102000  0.03238000  1
  O  O15  1  0.81333300  0.53289700  0.99969300  1
  O  O16  1  0.04615200  0.47082300  0.23569300  1
  O  O17  1  0.56463100  0.18792000  0.72125400  1
  O  O18  1  0.32829500  0.04654500  0.89136600  1
  O  O19  1  0.29618500  0.16461800  0.21488000  1
  O  O20  1  0.31333300  0.46710300  0.50030700  1
  O  O21  1  0.56935800  0.44475100  0.92461500  1
  O  O22  1  0.82829500  0.95345500  0.60863400  1
  O  O23  1  0.19733900  0.83407600  0.17002900  1
  O  O24  1  0.06935800  0.55524900  0.57538500  1
  O  O25  1  0.54615200  0.52917700  0.26430700  1
  O  O26  1  0.67170500  0.95345500  0.10863400  1
  O  O27  1  0.06647200  0.16898000  0.96762000  1
  O  O28  1  0.45384800  0.47082300  0.73569300  1
  O  O29  1  0.17170500  0.04654500  0.39136600  1
  O  O30  1  0.69733900  0.16592400  0.32997100  1
  O  O31  1  0.56647200  0.83102000  0.53238000  1
loop_
_geom_bond_atom_site_label_1
_geom_bond_atom_site_label_2
_geom_bond_distance
_geom_bond_site_symmetry_2
Li0 O29 1.984867 1_555
Li0 O24 1.987075 1_555
Li0 O1 2.100185 1_555
Li0 O16 2.199694 1_555
Li0 O12 2.329711 1_545
Li1 O24 2.018465 1_555
Li1 O27 2.153703 1_564
Li1 O16 2.178104 1_565
Li1 O9 2.313707 1_465
Li1 O29 2.412078 1_565
Li2 O29 2.035701 1_565
Li2 O1 2.116347 1_555
Li2 O4 2.135683 1_555
Li2 O13 2.193920 1_556
Li3 O18 2.035701 1_564
Li3 O19 2.116347 1_555
Li3 O23 2.135683 1_555
Li3 O20 2.193920 1_555
Li4 O22 2.035701 1_545
Li4 O7 2.116347 1_555
Li4 O30 2.135683 1_555
Li4 O15 2.193920 1_554
Li5 O26 1.984867 1_555
Li5 O21 1.987075 1_554
Li5 O0 2.100185 1_554
Li5 O25 2.199694 1_555
Li5 O17 2.329711 1_564
Li6 O18 1.984867 1_555
Li6 O10 1.987075 1_556
Li6 O19 2.100185 1_556
Li6 O28 2.199694 1_555
Li6 O11 2.329711 1_546
Li7 O26 2.035701 1_546
Li7 O0 2.116347 1_555
Li7 O2 2.135683 1_555
Li7 O8 2.193920 1_555
Li8 O10 2.018465 1_556
Li8 O5 2.153703 1_565
Li8 O28 2.178104 1_565
Li8 O17 2.313707 1_565
Li8 O18 2.412078 1_565
Li9 O22 1.984867 1_555
Li9 O3 1.987075 1_555
Li9 O7 2.100185 1_555
Li9 O6 2.199694 1_555
Li9 O9 2.329711 1_565
Li10 O21 2.018465 1_554
Li10 O31 2.153703 1_545
Li10 O25 2.178104 1_545
Li10 O11 2.313707 1_545
Li10 O26 2.412078 1_545
Li11 O3 2.018465 1_555
Li11 O14 2.153703 1_546
Li11 O6 2.178104 1_545
Li11 O12 2.313707 1_645
Li11 O22 2.412078 1_545
Mn0 O13 1.955352 1_556
Mn0 O27 1.976726 1_565
Mn0 O12 1.982656 1_555
Mn0 O23 1.994069 1_556
Mn0 O16 2.268623 1_556
Mn0 O1 2.283867 1_565
Mn1 O20 1.955352 1_555
Mn1 O5 1.976726 1_565
Mn1 O11 1.982656 1_555
Mn1 O4 1.994069 1_555
Mn1 O28 2.268623 1_555
Mn1 O19 2.283867 1_565
Mn2 O8 1.955352 1_555
Mn2 O31 1.976726 1_545
Mn2 O17 1.982656 1_555
Mn2 O30 1.994069 1_555
Mn2 O25 2.268623 1_555
Mn2 O0 2.283867 1_545
Mn3 O15 1.955352 1_554
Mn3 O14 1.976726 1_545
Mn3 O9 1.982656 1_555
Mn3 O2 1.994069 1_554
Mn3 O6 2.268623 1_554
Mn3 O7 2.283867 1_545
O0 P1 1.553062 1_555
O1 P0 1.553062 1_555
O2 P1 1.581413 1_545
O3 P6 1.517379 1_555
O4 P0 1.581413 1_565
O5 P5 1.567795 1_555
O6 P4 1.555687 1_655
O7 P2 1.553062 1_555
O8 P2 1.572645 1_555
O9 P6 1.589622 1_555
O10 P5 1.517379 1_555
O11 P5 1.589622 1_555
O12 P4 1.589622 1_555
O13 P7 1.572645 1_555
O14 P6 1.567795 1_555
O15 P1 1.572645 1_555
O16 P6 1.555687 1_455
O17 P3 1.589622 1_555
O18 P0 1.522445 1_555
O19 P7 1.553062 1_555
O20 P0 1.572645 1_555
O21 P3 1.517379 1_555
O22 P1 1.522445 1_555
O23 P7 1.581413 1_565
O24 P4 1.517379 1_555
O25 P5 1.555687 1_555
O26 P2 1.522445 1_555
O27 P4 1.567795 1_555
O28 P3 1.555687 1_555
O29 P7 1.522445 1_555
O30 P2 1.581413 1_545
O31 P3 1.567795 1_555
