# generated using pymatgen
data_Ca3Ru4PbO14
_symmetry_space_group_name_H-M   'P 1'
_cell_length_a   7.19559450
_cell_length_b   7.19559322
_cell_length_c   7.19559442
_cell_angle_alpha   60.35862296
_cell_angle_beta   60.35862562
_cell_angle_gamma   60.35862423
_symmetry_Int_Tables_number   1
_chemical_formula_structural   Ca3Ru4PbO14
_chemical_formula_sum   'Ca3 Ru4 Pb1 O14'
_cell_volume   265.57909438
_cell_formula_units_Z   1
loop_
 _symmetry_equiv_pos_site_id
 _symmetry_equiv_pos_as_xyz
  1  'x, y, z'
loop_
 _atom_site_type_symbol
 _atom_site_label
 _atom_site_symmetry_multiplicity
 _atom_site_fract_x
 _atom_site_fract_y
 _atom_site_fract_z
 _atom_site_occupancy
  Ca  Ca0  1  0.62500000  0.12500000  0.62500000  1
  Ca  Ca1  1  0.62500000  0.62500000  0.12500000  1
  Ca  Ca2  1  0.12500000  0.62500000  0.62500000  1
  Ru  Ru0  1  0.62500000  0.12500000  0.12500000  1
  Ru  Ru1  1  0.12500000  0.62500000  0.12500000  1
  Ru  Ru2  1  0.12500000  0.12500000  0.62500000  1
  Ru  Ru3  1  0.12500000  0.12500000  0.12500000  1
  Pb  Pb0  1  0.62500000  0.62500000  0.62500000  1
  O  O0  1  0.19563486  0.19563486  0.80390265  1
  O  O1  1  0.19563486  0.80390265  0.19563486  1
  O  O2  1  0.44609735  0.05436514  0.05436514  1
  O  O3  1  0.20328504  0.79877774  0.79877774  1
  O  O4  1  0.04671496  0.45122226  0.45122226  1
  O  O5  1  0.79877774  0.79877774  0.20328504  1
  O  O6  1  0.45122226  0.45122226  0.04671496  1
  O  O7  1  0.50466849  0.50466849  0.50466849  1
  O  O8  1  0.05436514  0.05436514  0.44609735  1
  O  O9  1  0.45122226  0.04671496  0.45122226  1
  O  O10  1  0.05436514  0.44609735  0.05436514  1
  O  O11  1  0.74533151  0.74533151  0.74533151  1
  O  O12  1  0.79877774  0.20328504  0.79877774  1
  O  O13  1  0.80390265  0.19563486  0.19563486  1
loop_
_geom_bond_atom_site_label_1
_geom_bond_atom_site_label_2
_geom_bond_distance
_geom_bond_site_symmetry_2
Ca0 O7 2.241634 1_555
Ca0 O11 2.241634 1_545
Ca0 O12 2.526766 1_555
Ca0 O9 2.526766 1_555
Ca0 O2 2.573070 1_556
Ca0 O13 2.573070 1_555
Ca0 O8 2.573070 1_655
Ca0 O0 2.573070 1_555
Ca1 O7 2.241634 1_555
Ca1 O11 2.241634 1_554
Ca1 O5 2.526766 1_555
Ca1 O6 2.526766 1_555
Ca1 O2 2.573069 1_565
Ca1 O13 2.573069 1_555
Ca1 O10 2.573070 1_655
Ca1 O1 2.573070 1_555
Ca2 O7 2.241634 1_555
Ca2 O11 2.241634 1_455
Ca2 O3 2.526766 1_555
Ca2 O4 2.526766 1_555
Ca2 O8 2.573069 1_565
Ca2 O0 2.573069 1_555
Ca2 O10 2.573070 1_556
Ca2 O1 2.573070 1_555
O0 Ru2 1.929692 1_555
O0 Ru3 1.946119 1_556
O1 Ru1 1.929692 1_555
O1 Ru3 1.946119 1_565
O2 Ru0 1.929692 1_555
O2 Ru3 1.946119 1_555
O3 Ru2 1.968876 1_565
O3 Ru1 1.968876 1_556
O3 Pb0 2.524968 1_555
O4 Ru2 1.968876 1_555
O4 Ru1 1.968876 1_555
O4 Pb0 2.524968 1_455
O5 Ru0 1.968876 1_565
O5 Ru1 1.968876 1_655
O5 Pb0 2.524968 1_555
O6 Ru0 1.968876 1_555
O6 Ru1 1.968876 1_555
O6 Pb0 2.524968 1_554
O7 Pb0 2.115141 1_555
O8 Ru2 1.929692 1_555
O8 Ru3 1.946119 1_555
O9 Ru0 1.968876 1_555
O9 Ru2 1.968876 1_555
O9 Pb0 2.524968 1_545
O10 Ru1 1.929692 1_555
O10 Ru3 1.946119 1_555
O11 Pb0 2.115141 1_555
O12 Ru0 1.968876 1_556
O12 Ru2 1.968876 1_655
O12 Pb0 2.524968 1_555
O13 Ru0 1.929692 1_555
O13 Ru3 1.946119 1_655
