# generated using pymatgen
data_CsAl5(HgTe3)4
_symmetry_space_group_name_H-M   'P 1'
_cell_length_a   9.72312614
_cell_length_b   9.71734808
_cell_length_c   9.77516588
_cell_angle_alpha   107.35011620
_cell_angle_beta   107.81788854
_cell_angle_gamma   107.35251604
_symmetry_Int_Tables_number   1
_chemical_formula_structural   CsAl5(HgTe3)4
_chemical_formula_sum   'Cs1 Al5 Hg4 Te12'
_cell_volume   758.27328058
_cell_formula_units_Z   1
loop_
 _symmetry_equiv_pos_site_id
 _symmetry_equiv_pos_as_xyz
  1  'x, y, z'
loop_
 _atom_site_type_symbol
 _atom_site_label
 _atom_site_symmetry_multiplicity
 _atom_site_fract_x
 _atom_site_fract_y
 _atom_site_fract_z
 _atom_site_occupancy
  Cs  Cs0  1  0.99330315  0.99406695  0.99423621  1
  Al  Al0  1  0.48429847  0.33591700  0.94117388  1
  Al  Al1  1  0.93960832  0.49097011  0.34401114  1
  Al  Al2  1  0.32996917  0.93162067  0.47980753  1
  Al  Al3  1  0.01876805  0.18545677  0.55422561  1
  Al  Al4  1  0.56060243  0.02699730  0.18714142  1
  Hg  Hg0  1  0.63195650  0.70570812  0.39551065  1
  Hg  Hg1  1  0.40197321  0.63858219  0.71722535  1
  Hg  Hg2  1  0.70888463  0.38918819  0.63112787  1
  Hg  Hg3  1  0.19314792  0.56362551  0.01627161  1
  Te  Te0  1  0.78438231  0.93506051  0.29191360  1
  Te  Te1  1  0.30421409  0.80879664  0.93184241  1
  Te  Te2  1  0.92566801  0.27648694  0.77252425  1
  Te  Te3  1  0.06666065  0.69583596  0.24013452  1
  Te  Te4  1  0.23262345  0.08091704  0.68690457  1
  Te  Te5  1  0.69704112  0.23548318  0.08287438  1
  Te  Te6  1  0.37547772  0.42170362  0.14876445  1
  Te  Te7  1  0.14410314  0.37259722  0.43659369  1
  Te  Te8  1  0.42738847  0.13733227  0.36487419  1
  Te  Te9  1  0.87714862  0.63827742  0.56838731  1
  Te  Te10  1  0.55890324  0.87489651  0.63388415  1
  Te  Te11  1  0.63851733  0.55511988  0.87520921  1
loop_
_geom_bond_atom_site_label_1
_geom_bond_atom_site_label_2
_geom_bond_distance
_geom_bond_site_symmetry_2
Cs0 Te2 4.051274 1_565
Cs0 Te1 4.058544 1_655
Cs0 Te9 4.094770 1_555
Cs0 Te0 4.103676 1_556
Cs0 Te6 4.119257 1_666
Cs0 Te8 4.123971 1_666
Cs0 Te10 4.139235 1_555
Cs0 Te11 4.153814 1_555
Cs0 Te7 4.218327 1_666
Cs0 Te5 4.347185 1_566
Cs0 Te3 4.361580 1_656
Cs0 Te4 4.446477 1_665
Al0 Te11 2.589814 1_555
Al0 Te6 2.600662 1_556
Al0 Te4 2.700659 1_555
Al0 Te5 2.721561 1_556
Al1 Te9 2.586437 1_555
Al1 Te7 2.641878 1_655
Al1 Te3 2.650768 1_655
Al1 Te5 2.699132 1_555
Al2 Te10 2.588904 1_555
Al2 Te3 2.630924 1_555
Al2 Te8 2.648891 1_565
Al2 Te4 2.709038 1_565
Al3 Te2 2.586395 1_455
Al3 Te7 2.626229 1_555
Al3 Te0 2.661569 1_445
Al3 Te4 2.726368 1_555
Al4 Te1 2.611914 1_544
Al4 Te0 2.631118 1_545
Al4 Te8 2.634433 1_555
Al4 Te5 2.712741 1_555
Hg0 Te6 2.810075 1_555
Hg0 Te10 2.839313 1_555
Hg0 Te9 2.845242 1_555
Hg0 Te0 2.912630 1_555
Hg1 Te11 2.831688 1_555
Hg1 Te10 2.837529 1_555
Hg1 Te1 2.851171 1_555
Hg1 Te7 2.861574 1_555
Hg2 Te9 2.837046 1_555
Hg2 Te2 2.837157 1_555
Hg2 Te8 2.846160 1_555
Hg2 Te11 2.850136 1_555
Hg3 Te1 2.776094 1_554
Hg3 Te6 2.800127 1_555
Hg3 Te2 2.853127 1_454
Hg3 Te3 2.977327 1_555
