# generated using pymatgen
data_Ca3Al12Os3Rh
_symmetry_space_group_name_H-M   'P 1'
_cell_length_a   8.81713404
_cell_length_b   8.82855021
_cell_length_c   9.57932551
_cell_angle_alpha   90.00000000
_cell_angle_beta   90.00000000
_cell_angle_gamma   120.04283115
_symmetry_Int_Tables_number   1
_chemical_formula_structural   Ca3Al12Os3Rh
_chemical_formula_sum   'Ca6 Al24 Os6 Rh2'
_cell_volume   645.49784406
_cell_formula_units_Z   2
loop_
 _symmetry_equiv_pos_site_id
 _symmetry_equiv_pos_as_xyz
  1  'x, y, z'
loop_
 _atom_site_type_symbol
 _atom_site_label
 _atom_site_symmetry_multiplicity
 _atom_site_fract_x
 _atom_site_fract_y
 _atom_site_fract_z
 _atom_site_occupancy
  Ca  Ca0  1  0.19608014  0.38548581  0.25000000  1
  Ca  Ca1  1  0.80391986  0.61451419  0.75000000  1
  Ca  Ca2  1  0.60730421  0.80365161  0.25000000  1
  Ca  Ca3  1  0.39269579  0.19634839  0.75000000  1
  Ca  Ca4  1  0.19608014  0.81059433  0.25000000  1
  Ca  Ca5  1  0.80391986  0.18940567  0.75000000  1
  Al  Al0  1  0.33398390  0.66699295  0.99500203  1
  Al  Al1  1  0.66601610  0.33300705  0.00499797  1
  Al  Al2  1  0.66601610  0.33300705  0.49500203  1
  Al  Al3  1  0.33398390  0.66699295  0.50499797  1
  Al  Al4  1  0.16421226  0.32394692  0.57418748  1
  Al  Al5  1  0.83578774  0.67605308  0.42581252  1
  Al  Al6  1  0.67484942  0.83742471  0.57115106  1
  Al  Al7  1  0.83578774  0.67605308  0.07418748  1
  Al  Al8  1  0.32515058  0.16257529  0.42884894  1
  Al  Al9  1  0.16421226  0.32394692  0.92581252  1
  Al  Al10  1  0.16421226  0.84026334  0.57418748  1
  Al  Al11  1  0.32515058  0.16257529  0.07115106  1
  Al  Al12  1  0.83578774  0.15973666  0.42581252  1
  Al  Al13  1  0.67484942  0.83742471  0.92884894  1
  Al  Al14  1  0.83578774  0.15973666  0.07418748  1
  Al  Al15  1  0.16421226  0.84026334  0.92581252  1
  Al  Al16  1  0.56292673  0.12355973  0.25000000  1
  Al  Al17  1  0.43707327  0.87644027  0.75000000  1
  Al  Al18  1  0.87764587  0.43882343  0.25000000  1
  Al  Al19  1  0.12235413  0.56117657  0.75000000  1
  Al  Al20  1  0.56292673  0.43936601  0.25000000  1
  Al  Al21  1  0.43707327  0.56063399  0.75000000  1
  Al  Al22  1  0.99714112  0.99857106  0.25000000  1
  Al  Al23  1  0.00285888  0.00142894  0.75000000  1
  Os  Os0  1  0.50000000  0.00000000  0.00000000  1
  Os  Os1  1  0.50000000  0.00000000  0.50000000  1
  Os  Os2  1  0.50000000  0.50000000  0.00000000  1
  Os  Os3  1  0.50000000  0.50000000  0.50000000  1
  Os  Os4  1  0.00000000  0.00000000  0.00000000  1
  Os  Os5  1  0.00000000  0.00000000  0.50000000  1
  Rh  Rh0  1  0.00000000  0.50000000  0.00000000  1
  Rh  Rh1  1  0.00000000  0.50000000  0.50000000  1
loop_
_geom_bond_atom_site_label_1
_geom_bond_atom_site_label_2
_geom_bond_distance
_geom_bond_site_symmetry_2
Ca0 Os3 3.350442 1_555
Ca0 Os2 3.350442 1_555
Ca0 Rh1 3.390639 1_555
Ca0 Rh0 3.390639 1_555
Ca1 Os2 3.350442 1_556
Ca1 Os3 3.350442 1_555
Ca1 Rh1 3.390639 1_655
Ca1 Rh0 3.390639 1_656
Ca2 Os2 3.358188 1_555
Ca2 Os3 3.358188 1_555
Ca2 Os1 3.358194 1_565
Ca2 Os0 3.358194 1_565
Ca3 Os3 3.358188 1_555
Ca3 Os2 3.358188 1_556
Ca3 Os1 3.358194 1_555
Ca3 Os0 3.358194 1_556
Ca4 Os1 3.350442 1_565
Ca4 Os0 3.350442 1_565
Ca4 Rh0 3.390640 1_555
Ca4 Rh1 3.390640 1_555
Ca5 Os0 3.350442 1_556
Ca5 Os1 3.350442 1_555
Ca5 Rh0 3.390640 1_656
Ca5 Rh1 3.390640 1_655
Al0 Os0 2.545452 1_566
Al0 Os2 2.545467 1_556
Al0 Rh0 2.549603 1_556
Al0 Ca2 3.212286 1_556
Al0 Ca4 3.255165 1_556
Al0 Ca0 3.255175 1_556
Al1 Os0 2.545452 1_555
Al1 Os2 2.545467 1_555
Al1 Rh0 2.549603 1_655
Al1 Ca3 3.212286 1_554
Al1 Ca5 3.255165 1_554
Al1 Ca1 3.255175 1_554
Al2 Os1 2.545452 1_555
Al2 Os3 2.545467 1_555
Al2 Rh1 2.549603 1_655
Al2 Ca3 3.212286 1_555
Al2 Ca5 3.255165 1_555
Al2 Ca1 3.255175 1_555
Al3 Os1 2.545452 1_565
Al3 Os3 2.545467 1_555
Al3 Rh1 2.549603 1_555
Al3 Ca2 3.212286 1_555
Al3 Ca4 3.255165 1_555
Al3 Ca0 3.255175 1_555
Al4 Os5 2.575777 1_555
Al4 Os3 2.660602 1_555
Al4 Rh1 2.696402 1_555
Al4 Ca0 3.140921 1_555
Al4 Ca3 3.230526 1_555
Al4 Ca5 3.249734 1_455
Al5 Os5 2.575777 1_665
Al5 Os3 2.660602 1_555
Al5 Rh1 2.696402 1_655
Al5 Ca1 3.140921 1_555
Al5 Ca2 3.230526 1_555
Al5 Ca4 3.249734 1_655
Al6 Os5 2.573625 1_665
Al6 Os1 2.667776 1_565
Al6 Os3 2.667776 1_555
Al6 Ca2 3.119309 1_555
Al6 Ca1 3.216489 1_555
Al6 Ca5 3.216489 1_565
Al7 Os4 2.575777 1_665
Al7 Os2 2.660602 1_555
Al7 Rh0 2.696402 1_655
Al7 Ca1 3.140921 1_554
Al7 Ca2 3.230526 1_555
Al7 Ca4 3.249734 1_655
Al8 Os5 2.573625 1_555
Al8 Os1 2.667776 1_555
Al8 Os3 2.667776 1_555
Al8 Ca3 3.119309 1_555
Al8 Ca0 3.216489 1_555
Al8 Ca4 3.216489 1_545
Al9 Os4 2.575777 1_556
Al9 Os2 2.660602 1_556
Al9 Rh0 2.696402 1_556
Al9 Ca0 3.140921 1_556
Al9 Ca3 3.230526 1_555
Al9 Ca5 3.249734 1_455
Al10 Os5 2.575791 1_565
Al10 Os1 2.660601 1_565
Al10 Rh1 2.696387 1_555
Al10 Ca4 3.140919 1_555
Al10 Ca3 3.230544 1_565
Al10 Ca1 3.249732 1_455
Al11 Os4 2.573625 1_555
Al11 Os0 2.667776 1_555
Al11 Os2 2.667776 1_555
Al11 Ca3 3.119309 1_554
Al11 Ca0 3.216489 1_555
Al11 Ca4 3.216489 1_545
Al12 Os5 2.575791 1_655
Al12 Os1 2.660601 1_555
Al12 Rh1 2.696387 1_655
Al12 Ca5 3.140919 1_555
Al12 Ca2 3.230544 1_545
Al12 Ca0 3.249732 1_655
Al13 Os4 2.573625 1_666
Al13 Os0 2.667776 1_566
Al13 Os2 2.667776 1_556
Al13 Ca2 3.119309 1_556
Al13 Ca1 3.216489 1_555
Al13 Ca5 3.216489 1_565
Al14 Os4 2.575791 1_655
Al14 Os0 2.660601 1_555
Al14 Rh0 2.696387 1_655
Al14 Ca5 3.140919 1_554
Al14 Ca2 3.230544 1_545
Al14 Ca0 3.249732 1_655
Al15 Os4 2.575791 1_566
Al15 Os0 2.660601 1_566
Al15 Rh0 2.696387 1_556
Al15 Ca4 3.140919 1_556
Al15 Ca3 3.230544 1_565
Al15 Ca1 3.249732 1_455
Al16 Os1 2.574295 1_555
Al16 Os0 2.574295 1_555
Al16 Ca4 3.024544 1_545
Al16 Ca2 3.039153 1_545
Al17 Os0 2.574295 1_566
Al17 Os1 2.574295 1_565
Al17 Ca5 3.024544 1_565
Al17 Ca3 3.039153 1_565
Al18 Rh1 2.570475 1_655
Al18 Rh0 2.570475 1_655
Al18 Ca4 3.070602 1_655
Al18 Ca0 3.070607 1_655
Al19 Rh1 2.570475 1_555
Al19 Rh0 2.570475 1_556
Al19 Ca5 3.070602 1_455
Al19 Ca1 3.070607 1_455
Al20 Os2 2.574297 1_555
Al20 Os3 2.574297 1_555
Al20 Ca0 3.024547 1_555
Al20 Ca2 3.039153 1_555
Al21 Os2 2.574297 1_556
Al21 Os3 2.574297 1_555
Al21 Ca1 3.024547 1_555
Al21 Ca3 3.039153 1_555
Al22 Os4 2.394931 1_665
Al22 Os5 2.394931 1_665
Al22 Ca0 2.957301 1_665
Al22 Ca4 2.957309 1_655
Al22 Ca2 2.975455 1_555
Al23 Os4 2.394931 1_556
Al23 Os5 2.394931 1_555
Al23 Ca1 2.957301 1_445
Al23 Ca5 2.957309 1_455
Al23 Ca3 2.975455 1_555
