# generated using pymatgen
data_Na4LuRuO6
_symmetry_space_group_name_H-M   'P 1'
_cell_length_a   5.52387257
_cell_length_b   5.52395776
_cell_length_c   5.68886477
_cell_angle_alpha   99.43869453
_cell_angle_beta   99.44023549
_cell_angle_gamma   119.98287880
_symmetry_Int_Tables_number   1
_chemical_formula_structural   Na4LuRuO6
_chemical_formula_sum   'Na4 Lu1 Ru1 O6'
_cell_volume   142.04325467
_cell_formula_units_Z   1
loop_
 _symmetry_equiv_pos_site_id
 _symmetry_equiv_pos_as_xyz
  1  'x, y, z'
loop_
 _atom_site_type_symbol
 _atom_site_label
 _atom_site_symmetry_multiplicity
 _atom_site_fract_x
 _atom_site_fract_y
 _atom_site_fract_z
 _atom_site_occupancy
  Na  Na0  1  0.49951541  0.50046116  0.99997922  1
  Na  Na1  1  0.00918708  0.99079054  0.49999254  1
  Na  Na2  1  0.65722213  0.34277199  0.49999605  1
  Na  Na3  1  0.33875567  0.66129611  0.50000758  1
  Lu  Lu0  1  0.83294108  0.16707669  0.99998602  1
  Ru  Ru0  1  0.16695426  0.83306986  0.00002282  1
  O  O0  1  0.95000435  0.59816692  0.20852863  1
  O  O1  1  0.54271060  0.92409534  0.21302717  1
  O  O2  1  0.21834470  0.19333502  0.21280550  1
  O  O3  1  0.80665491  0.78167421  0.78718094  1
  O  O4  1  0.07591148  0.45727739  0.78695622  1
  O  O5  1  0.40180435  0.04998577  0.79151432  1
loop_
_geom_bond_atom_site_label_1
_geom_bond_atom_site_label_2
_geom_bond_distance
_geom_bond_site_symmetry_2
Na0 O5 2.317246 1_555
Na0 O0 2.317403 1_556
Na0 O2 2.326669 1_556
Na0 O3 2.326675 1_555
Na0 O4 2.327635 1_555
Na0 O1 2.327860 1_556
Na1 O3 2.276430 1_455
Na1 O2 2.276534 1_565
Na1 O0 2.343941 1_455
Na1 O5 2.343998 1_565
Na1 O1 2.629537 1_455
Na1 O4 2.629578 1_565
Na2 O4 2.318344 1_655
Na2 O1 2.318366 1_545
Na2 O2 2.342246 1_555
Na2 O3 2.342400 1_555
Na2 O0 2.592637 1_555
Na2 O5 2.592931 1_555
Na3 O0 2.318699 1_455
Na3 O5 2.318786 1_565
Na3 O1 2.405842 1_555
Na3 O4 2.405905 1_555
Na3 O3 2.516375 1_555
Na3 O2 2.516720 1_555
Lu0 O5 2.186074 1_555
Lu0 O0 2.186093 1_556
Lu0 O3 2.192519 1_545
Lu0 O2 2.192576 1_656
Lu0 O4 2.204578 1_655
Lu0 O1 2.204730 1_546
O0 Ru0 1.985897 1_655
O1 Ru0 1.990322 1_555
O2 Ru0 2.009690 1_545
O3 Ru0 2.009918 1_656
O4 Ru0 1.990645 1_556
O5 Ru0 1.985707 1_546
