# generated using pymatgen
data_In3Sn11(Ir2Ru)2
_symmetry_space_group_name_H-M   'P 1'
_cell_length_a   8.16880714
_cell_length_b   8.16154803
_cell_length_c   8.16154724
_cell_angle_alpha   110.24713688
_cell_angle_beta   109.55591625
_cell_angle_gamma   108.57961908
_symmetry_Int_Tables_number   1
_chemical_formula_structural   In3Sn11(Ir2Ru)2
_chemical_formula_sum   'In3 Sn11 Ir4 Ru2'
_cell_volume   418.96543870
_cell_formula_units_Z   1
loop_
 _symmetry_equiv_pos_site_id
 _symmetry_equiv_pos_as_xyz
  1  'x, y, z'
loop_
 _atom_site_type_symbol
 _atom_site_label
 _atom_site_symmetry_multiplicity
 _atom_site_fract_x
 _atom_site_fract_y
 _atom_site_fract_z
 _atom_site_occupancy
  In  In0  1  0.25192920  0.75102862  0.50089958  1
  In  In1  1  0.75148616  0.25043664  0.50104953  1
  In  In2  1  0.75275045  0.50197057  0.25077988  1
  Sn  Sn0  1  0.25385884  0.50277178  0.75108606  1
  Sn  Sn1  1  0.50614811  0.75251895  0.25356777  1
  Sn  Sn2  1  0.50614811  0.25258033  0.75362916  1
  Sn  Sn3  1  0.99638335  0.99632547  0.32201878  1
  Sn  Sn4  1  0.67560697  0.99972364  0.99820535  1
  Sn  Sn5  1  0.99638335  0.67436457  0.00005688  1
  Sn  Sn6  1  0.32545855  0.32550836  0.32544080  1
  Sn  Sn7  1  0.99526138  0.32220654  0.99801256  1
  Sn  Sn8  1  0.67560697  0.67740062  0.67588233  1
  Sn  Sn9  1  0.32545855  0.00001876  0.99995220  1
  Sn  Sn10  1  0.99526138  0.99724882  0.67305584  1
  Ir  Ir0  1  0.34065699  0.00007823  0.34057876  1
  Ir  Ir1  1  0.00394378  0.34138545  0.34497633  1
  Ir  Ir2  1  0.00394378  0.65896746  0.66255733  1
  Ir  Ir3  1  0.33697909  0.34057948  0.99639961  1
  Ru  Ru0  1  0.65106930  0.65467933  0.99638997  1
  Ru  Ru1  1  0.65566969  0.00020841  0.65546128  1
loop_
_geom_bond_atom_site_label_1
_geom_bond_atom_site_label_2
_geom_bond_distance
_geom_bond_site_symmetry_2
In0 Ru1 2.787384 1_565
In0 Ir0 2.811746 1_565
In0 Ir2 2.813257 1_555
In0 Ir1 2.813259 1_555
In1 Ru1 2.791902 1_555
In1 Ir1 2.804297 1_655
In1 Ir2 2.804299 1_655
In1 Ir0 2.826405 1_555
In2 Ru0 2.801817 1_554
In2 Ir2 2.806121 1_655
In2 Ir1 2.806128 1_655
In2 Ir3 2.848941 1_554
Ir0 Sn9 2.740803 1_554
Ir0 Sn6 2.740817 1_555
Ir0 Sn3 2.754933 1_445
Ir0 Sn5 2.754935 1_445
Ir0 Sn2 2.793615 1_555
Ir0 Sn1 2.793616 1_545
Ir1 Sn6 2.724529 1_555
Ir1 Sn3 2.736098 1_445
Ir1 Sn7 2.756824 1_454
Ir1 Sn0 2.761042 1_555
Ir1 Sn4 2.769354 1_444
Ir2 Sn9 2.724540 1_565
Ir2 Sn5 2.736097 1_456
Ir2 Sn10 2.756819 1_455
Ir2 Sn0 2.761049 1_555
Ir2 Sn8 2.769352 1_455
Ir3 Sn10 2.752078 1_445
Ir3 Sn7 2.752081 1_455
Ir3 Sn9 2.761567 1_555
Ir3 Sn6 2.761569 1_556
Ir3 Sn0 2.778299 1_555
Ir3 Sn1 2.798556 1_556
Ir3 Sn2 2.798556 1_555
Ru0 Sn0 2.728235 1_555
Ru0 Sn2 2.747829 1_555
Ru0 Sn1 2.747829 1_556
Ru0 Sn4 2.753220 1_555
Ru0 Sn8 2.753225 1_555
Ru0 Sn3 2.763148 1_556
Ru0 Sn5 2.763151 1_556
Ru1 Sn1 2.737227 1_545
Ru1 Sn2 2.737227 1_555
Ru1 Sn10 2.737705 1_545
Ru1 Sn7 2.737707 1_555
Ru1 Sn4 2.748569 1_545
Ru1 Sn8 2.748574 1_545
