# generated using pymatgen
data_Cs5Al2GaSe7
_symmetry_space_group_name_H-M   'P 1'
_cell_length_a   11.21109296
_cell_length_b   11.21109333
_cell_length_c   9.69416185
_cell_angle_alpha   76.31330892
_cell_angle_beta   76.31331003
_cell_angle_gamma   71.62259043
_symmetry_Int_Tables_number   1
_chemical_formula_structural   Cs5Al2GaSe7
_chemical_formula_sum   'Cs10 Al4 Ga2 Se14'
_cell_volume   1105.99201614
_cell_formula_units_Z   2
loop_
 _symmetry_equiv_pos_site_id
 _symmetry_equiv_pos_as_xyz
  1  'x, y, z'
loop_
 _atom_site_type_symbol
 _atom_site_label
 _atom_site_symmetry_multiplicity
 _atom_site_fract_x
 _atom_site_fract_y
 _atom_site_fract_z
 _atom_site_occupancy
  Cs  Cs0  1  0.02873315  0.43649296  0.71992867  1
  Cs  Cs1  1  0.43649296  0.02873315  0.71992867  1
  Cs  Cs2  1  0.97126685  0.56350704  0.28007133  1
  Cs  Cs3  1  0.56350704  0.97126685  0.28007133  1
  Cs  Cs4  1  0.29175454  0.70824546  1.00000000  1
  Cs  Cs5  1  0.70824546  0.29175454  0.00000000  1
  Cs  Cs6  1  0.84926284  0.15073716  0.50000000  1
  Cs  Cs7  1  0.15073716  0.84926284  0.50000000  1
  Cs  Cs8  1  0.42613409  0.42613409  0.69133463  1
  Cs  Cs9  1  0.57386591  0.57386591  0.30866537  1
  Al  Al0  1  0.21086942  0.21086942  0.18135995  1
  Al  Al1  1  0.78913058  0.78913058  0.81864005  1
  Al  Al2  1  0.07082097  0.07082097  0.05629642  1
  Al  Al3  1  0.92917903  0.92917903  0.94370358  1
  Ga  Ga0  1  0.34496787  0.34496787  0.33394654  1
  Ga  Ga1  1  0.65503213  0.65503213  0.66605346  1
  Se  Se0  1  0.00245447  0.28190904  0.11278406  1
  Se  Se1  1  0.28190904  0.00245447  0.11278406  1
  Se  Se2  1  0.99754553  0.71809096  0.88721594  1
  Se  Se3  1  0.71809096  0.99754553  0.88721594  1
  Se  Se4  1  0.20221044  0.20221044  0.43072919  1
  Se  Se5  1  0.79778956  0.79778956  0.56927081  1
  Se  Se6  1  0.06334502  0.06334502  0.81336117  1
  Se  Se7  1  0.93665498  0.93665498  0.18663883  1
  Se  Se8  1  0.34649764  0.34649764  0.07422349  1
  Se  Se9  1  0.65350236  0.65350236  0.92577651  1
  Se  Se10  1  0.25027092  0.55138905  0.39374076  1
  Se  Se11  1  0.55138905  0.25027092  0.39374076  1
  Se  Se12  1  0.74972908  0.44861095  0.60625924  1
  Se  Se13  1  0.44861095  0.74972908  0.60625924  1
loop_
_geom_bond_atom_site_label_1
_geom_bond_atom_site_label_2
_geom_bond_distance
_geom_bond_site_symmetry_2
Cs0 Se12 3.508421 1_455
Cs0 Se2 3.765292 1_455
Cs0 Se10 3.768302 1_555
Cs0 Se0 3.776484 1_556
Cs0 Se6 3.977613 1_555
Cs0 Se4 4.027975 1_555
Cs1 Se13 3.508422 1_545
Cs1 Se3 3.765292 1_545
Cs1 Se11 3.768302 1_555
Cs1 Se1 3.776484 1_556
Cs1 Se6 3.977613 1_555
Cs1 Se4 4.027975 1_555
Cs2 Se10 3.508421 1_655
Cs2 Se0 3.765292 1_655
Cs2 Se12 3.768302 1_555
Cs2 Se2 3.776484 1_554
Cs2 Se7 3.977613 1_555
Cs2 Se5 4.027975 1_555
Cs3 Se11 3.508422 1_565
Cs3 Se1 3.765292 1_565
Cs3 Se13 3.768302 1_555
Cs3 Se3 3.776484 1_554
Cs3 Se7 3.977613 1_555
Cs3 Se5 4.027975 1_555
Cs4 Se2 3.675184 1_455
Cs4 Se1 3.675184 1_566
Cs4 Se10 3.791744 1_556
Cs4 Se13 3.791744 1_555
Cs4 Se9 3.821096 1_555
Cs4 Se8 3.821096 1_556
Cs5 Se0 3.675184 1_655
Cs5 Se3 3.675184 1_544
Cs5 Se12 3.791744 1_554
Cs5 Se11 3.791744 1_555
Cs5 Se8 3.821096 1_555
Cs5 Se9 3.821096 1_554
Cs6 Se11 3.491803 1_555
Cs6 Se12 3.491803 1_555
Cs6 Se0 3.890013 1_655
Cs6 Se3 3.890013 1_545
Cs6 Se4 4.054656 1_655
Cs6 Se5 4.054656 1_545
Cs6 Se6 4.062944 1_655
Cs6 Se7 4.062944 1_545
Cs7 Se13 3.491803 1_555
Cs7 Se10 3.491803 1_555
Cs7 Se2 3.890013 1_455
Cs7 Se1 3.890013 1_565
Cs7 Se5 4.054656 1_455
Cs7 Se4 4.054656 1_565
Cs7 Se7 4.062944 1_455
Cs7 Se6 4.062944 1_565
Cs8 Se8 3.568997 1_556
Cs8 Se12 3.601000 1_555
Cs8 Se13 3.601000 1_555
Cs8 Se10 3.634665 1_555
Cs8 Se11 3.634665 1_555
Cs9 Se9 3.568997 1_554
Cs9 Se10 3.601000 1_555
Cs9 Se11 3.601000 1_555
Cs9 Se12 3.634665 1_555
Cs9 Se13 3.634665 1_555
Al0 Se4 2.376264 1_555
Al0 Se8 2.380330 1_555
Al0 Se0 2.418030 1_555
Al0 Se1 2.418030 1_555
Al1 Se5 2.376264 1_555
Al1 Se9 2.380330 1_555
Al1 Se2 2.418030 1_555
Al1 Se3 2.418030 1_555
Al2 Se7 2.397768 1_445
Al2 Se6 2.398244 1_554
Al2 Se1 2.399729 1_555
Al2 Se0 2.399729 1_555
Al3 Se6 2.397768 1_665
Al3 Se7 2.398244 1_556
Al3 Se3 2.399729 1_555
Al3 Se2 2.399729 1_555
Ga0 Se11 2.369189 1_555
Ga0 Se10 2.369190 1_555
Ga0 Se4 2.489421 1_555
Ga0 Se8 2.509822 1_555
Ga1 Se13 2.369189 1_555
Ga1 Se12 2.369190 1_555
Ga1 Se5 2.489421 1_555
Ga1 Se9 2.509822 1_555
