# generated using pymatgen
data_Hf(TeCl)6
_symmetry_space_group_name_H-M   'P 1'
_cell_length_a   11.38257300
_cell_length_b   11.39676500
_cell_length_c   13.13631000
_cell_angle_alpha   90.00000000
_cell_angle_beta   90.00000000
_cell_angle_gamma   90.00000000
_symmetry_Int_Tables_number   1
_chemical_formula_structural   Hf(TeCl)6
_chemical_formula_sum   'Hf4 Te24 Cl24'
_cell_volume   1704.10137239
_cell_formula_units_Z   4
loop_
 _symmetry_equiv_pos_site_id
 _symmetry_equiv_pos_as_xyz
  1  'x, y, z'
loop_
 _atom_site_type_symbol
 _atom_site_label
 _atom_site_symmetry_multiplicity
 _atom_site_fract_x
 _atom_site_fract_y
 _atom_site_fract_z
 _atom_site_occupancy
  Hf  Hf0  1  0.26330400  0.79236300  0.75000000  1
  Hf  Hf1  1  0.26330400  0.70763700  0.25000000  1
  Hf  Hf2  1  0.73669600  0.20763700  0.25000000  1
  Hf  Hf3  1  0.73669600  0.29236300  0.75000000  1
  Te  Te0  1  0.27416600  0.25787200  0.25000000  1
  Te  Te1  1  0.72583400  0.74212800  0.75000000  1
  Te  Te2  1  0.18508500  0.39998900  0.90386300  1
  Te  Te3  1  0.02434200  0.25000000  0.50000000  1
  Te  Te4  1  0.97565800  0.75000000  0.00000000  1
  Te  Te5  1  0.97565800  0.75000000  0.50000000  1
  Te  Te6  1  0.02434200  0.25000000  0.00000000  1
  Te  Te7  1  0.38579700  0.36486200  0.46801300  1
  Te  Te8  1  0.61420300  0.86486200  0.03198700  1
  Te  Te9  1  0.38579700  0.13513800  0.53198700  1
  Te  Te10  1  0.61420300  0.63513800  0.96801300  1
  Te  Te11  1  0.61420300  0.63513800  0.53198700  1
  Te  Te12  1  0.38579700  0.13513800  0.96801300  1
  Te  Te13  1  0.61420300  0.86486200  0.46801300  1
  Te  Te14  1  0.38579700  0.36486200  0.03198700  1
  Te  Te15  1  0.18508500  0.39998900  0.59613700  1
  Te  Te16  1  0.81491500  0.89998900  0.90386300  1
  Te  Te17  1  0.18508500  0.10001100  0.40386300  1
  Te  Te18  1  0.81491500  0.60001100  0.09613700  1
  Te  Te19  1  0.81491500  0.60001100  0.40386300  1
  Te  Te20  1  0.18508500  0.10001100  0.09613700  1
  Te  Te21  1  0.81491500  0.89998900  0.59613700  1
  Te  Te22  1  0.72583400  0.75787200  0.25000000  1
  Te  Te23  1  0.27416600  0.24212800  0.75000000  1
  Cl  Cl0  1  0.84179700  0.09158800  0.11681100  1
  Cl  Cl1  1  0.15820300  0.59158800  0.11681100  1
  Cl  Cl2  1  0.84179700  0.09158800  0.38318900  1
  Cl  Cl3  1  0.63644800  0.32667800  0.38044700  1
  Cl  Cl4  1  0.36355200  0.82667800  0.11955300  1
  Cl  Cl5  1  0.63644800  0.17332200  0.61955300  1
  Cl  Cl6  1  0.36355200  0.67332200  0.88044700  1
  Cl  Cl7  1  0.36355200  0.67332200  0.61955300  1
  Cl  Cl8  1  0.63644800  0.17332200  0.88044700  1
  Cl  Cl9  1  0.36355200  0.82667800  0.38044700  1
  Cl  Cl10  1  0.63644800  0.32667800  0.11955300  1
  Cl  Cl11  1  0.10114100  0.65452300  0.75000000  1
  Cl  Cl12  1  0.89885900  0.15452300  0.75000000  1
  Cl  Cl13  1  0.10114100  0.84547700  0.25000000  1
  Cl  Cl14  1  0.89885900  0.34547700  0.25000000  1
  Cl  Cl15  1  0.41837600  0.94106300  0.75000000  1
  Cl  Cl16  1  0.58162400  0.44106300  0.75000000  1
  Cl  Cl17  1  0.41837600  0.55893700  0.25000000  1
  Cl  Cl18  1  0.58162400  0.05893700  0.25000000  1
  Cl  Cl19  1  0.15820300  0.90841200  0.61681100  1
  Cl  Cl20  1  0.15820300  0.90841200  0.88318900  1
  Cl  Cl21  1  0.84179700  0.40841200  0.88318900  1
  Cl  Cl22  1  0.15820300  0.59158800  0.38318900  1
  Cl  Cl23  1  0.84179700  0.40841200  0.61681100  1
loop_
_geom_bond_atom_site_label_1
_geom_bond_atom_site_label_2
_geom_bond_distance
_geom_bond_site_symmetry_2
Te0 Te17 2.889660 1_555
Te0 Te20 2.889660 1_555
Te0 Te7 3.362020 1_555
Te0 Te14 3.362020 1_555
Te1 Te16 2.889660 1_555
Te1 Te21 2.889660 1_555
Te1 Te11 3.362020 1_555
Te1 Te10 3.362020 1_555
Te2 Te6 2.804386 1_556
Te2 Te23 2.889660 1_555
Te7 Te9 2.749681 1_555
Te10 Te8 2.749681 1_556
Te10 Te18 2.865746 1_556
Te11 Te13 2.749681 1_555
Te11 Te19 2.865746 1_555
Te12 Te14 2.749681 1_556
Te12 Te20 2.865746 1_556
Te12 Te23 3.362020 1_555
Te13 Te21 2.865746 1_555
Te13 Te22 3.362020 1_555
Te14 Te2 2.865746 1_554
Te15 Te3 2.804386 1_555
Te15 Te7 2.865746 1_555
Te15 Te23 2.889660 1_555
Te16 Te4 2.804386 1_556
Te16 Te8 2.865746 1_556
Te17 Te3 2.804386 1_555
Te17 Te9 2.865746 1_555
Te18 Te4 2.804386 1_555
Te18 Te22 2.889660 1_555
Te19 Te5 2.804386 1_555
Te19 Te22 2.889660 1_555
Te20 Te6 2.804386 1_555
Te21 Te5 2.804386 1_555
Te22 Te8 3.362020 1_555
Te23 Te9 3.362020 1_555
Cl0 Hf2 2.498309 1_555
Cl0 Te6 3.151410 1_655
Cl1 Hf1 2.498309 1_555
Cl1 Te4 3.151410 1_455
Cl2 Hf2 2.498309 1_555
Cl2 Te3 3.151410 1_655
Cl3 Hf2 2.465573 1_555
Cl3 Te7 3.106842 1_555
Cl4 Hf1 2.465573 1_555
Cl4 Te8 3.106842 1_555
Cl5 Hf3 2.465573 1_555
Cl5 Te9 3.106842 1_555
Cl6 Hf0 2.465573 1_555
Cl6 Te10 3.106842 1_555
Cl7 Hf0 2.465573 1_555
Cl7 Te11 3.106842 1_555
Cl8 Hf3 2.465573 1_555
Cl8 Te12 3.106842 1_555
Cl9 Hf1 2.465573 1_555
Cl9 Te13 3.106842 1_555
Cl10 Hf2 2.465573 1_555
Cl10 Te14 3.106842 1_555
Cl11 Hf0 2.423823 1_555
Cl12 Hf3 2.423823 1_555
Cl13 Hf1 2.423823 1_555
Cl14 Hf2 2.423823 1_555
Cl15 Hf0 2.446967 1_555
Cl16 Hf3 2.446967 1_555
Cl17 Hf1 2.446967 1_555
Cl18 Hf2 2.446967 1_555
Cl19 Hf0 2.498309 1_555
Cl19 Te5 3.151410 1_455
Cl20 Hf0 2.498309 1_555
Cl20 Te4 3.151410 1_456
Cl21 Hf3 2.498309 1_555
Cl21 Te6 3.151410 1_656
Cl22 Hf1 2.498309 1_555
Cl22 Te5 3.151410 1_455
Cl23 Hf3 2.498309 1_555
Cl23 Te3 3.151410 1_655
