# generated using pymatgen
data_LiTiGaRh
_symmetry_space_group_name_H-M   'P 1'
_cell_length_a   4.28704337
_cell_length_b   4.28704388
_cell_length_c   4.28704369
_cell_angle_alpha   60.00000903
_cell_angle_beta   60.00000513
_cell_angle_gamma   60.00000294
_symmetry_Int_Tables_number   1
_chemical_formula_structural   LiTiGaRh
_chemical_formula_sum   'Li1 Ti1 Ga1 Rh1'
_cell_volume   55.71328598
_cell_formula_units_Z   1
loop_
 _symmetry_equiv_pos_site_id
 _symmetry_equiv_pos_as_xyz
  1  'x, y, z'
loop_
 _atom_site_type_symbol
 _atom_site_label
 _atom_site_symmetry_multiplicity
 _atom_site_fract_x
 _atom_site_fract_y
 _atom_site_fract_z
 _atom_site_occupancy
  Li  Li0  1  0.50000000  0.50000000  0.50000000  1
  Ti  Ti0  1  0.25000000  0.25000000  0.25000000  1
  Ga  Ga0  1  0.75000000  0.75000000  0.75000000  1
  Rh  Rh0  1  0.00000000  0.00000000  0.00000000  1
loop_
_geom_bond_atom_site_label_1
_geom_bond_atom_site_label_2
_geom_bond_distance
_geom_bond_site_symmetry_2
Li0 Ti0 2.625267 1_555
Li0 Ti0 2.625267 1_655
Li0 Ti0 2.625268 1_556
Li0 Ti0 2.625268 1_565
Li0 Rh0 3.031398 1_656
Li0 Rh0 3.031398 1_565
Li0 Rh0 3.031398 1_655
Li0 Rh0 3.031398 1_566
Li0 Rh0 3.031398 1_665
Li0 Rh0 3.031398 1_556
Ga0 Li0 2.625267 1_555
Ga0 Rh0 2.625267 1_666
Ga0 Li0 2.625267 1_655
Ga0 Rh0 2.625267 1_566
Ga0 Li0 2.625268 1_556
Ga0 Rh0 2.625268 1_665
Ga0 Rh0 2.625268 1_656
Ga0 Li0 2.625268 1_565
Rh0 Ti0 2.625267 1_555
Rh0 Ti0 2.625267 1_455
Rh0 Ti0 2.625268 1_554
Rh0 Ti0 2.625268 1_545
