# generated using pymatgen
data_Mn2ZnGeRh4
_symmetry_space_group_name_H-M   'P 1'
_cell_length_a   7.37312766
_cell_length_b   7.37312801
_cell_length_c   7.37312925
_cell_angle_alpha   33.59430663
_cell_angle_beta   33.59430144
_cell_angle_gamma   33.59431339
_symmetry_Int_Tables_number   1
_chemical_formula_structural   Mn2ZnGeRh4
_chemical_formula_sum   'Mn2 Zn1 Ge1 Rh4'
_cell_volume   109.30999604
_cell_formula_units_Z   1
loop_
 _symmetry_equiv_pos_site_id
 _symmetry_equiv_pos_as_xyz
  1  'x, y, z'
loop_
 _atom_site_type_symbol
 _atom_site_label
 _atom_site_symmetry_multiplicity
 _atom_site_fract_x
 _atom_site_fract_y
 _atom_site_fract_z
 _atom_site_occupancy
  Mn  Mn0  1  0.25284023  0.25284023  0.25284023  1
  Mn  Mn1  1  0.74715977  0.74715977  0.74715977  1
  Zn  Zn0  1  0.00000000  0.00000000  0.00000000  1
  Ge  Ge0  1  0.50000000  0.50000000  0.50000000  1
  Rh  Rh0  1  0.37741902  0.37741902  0.37741902  1
  Rh  Rh1  1  0.87273916  0.87273916  0.87273916  1
  Rh  Rh2  1  0.62258098  0.62258098  0.62258098  1
  Rh  Rh3  1  0.12726084  0.12726084  0.12726084  1
loop_
_geom_bond_atom_site_label_1
_geom_bond_atom_site_label_2
_geom_bond_distance
_geom_bond_site_symmetry_2
Mn0 Rh2 2.574798 1_554
Mn0 Rh2 2.574799 1_455
Mn0 Rh2 2.574799 1_545
Mn0 Rh0 2.597663 1_555
Mn0 Rh3 2.618527 1_555
Mn0 Rh1 2.646555 1_445
Mn0 Rh1 2.646555 1_544
Mn0 Rh1 2.646556 1_454
Mn1 Rh0 2.574798 1_556
Mn1 Rh0 2.574799 1_655
Mn1 Rh0 2.574799 1_565
Mn1 Rh2 2.597663 1_555
Mn1 Rh1 2.618527 1_555
Mn1 Rh3 2.646555 1_665
Mn1 Rh3 2.646555 1_566
Mn1 Rh3 2.646556 1_656
Ge0 Rh2 2.556005 1_555
Ge0 Rh0 2.556005 1_555
Ge0 Rh1 2.593920 1_554
Ge0 Rh3 2.593920 1_556
Ge0 Rh1 2.593921 1_455
Ge0 Rh3 2.593921 1_655
Ge0 Rh1 2.593921 1_545
Ge0 Rh3 2.593921 1_565
Rh0 Zn0 2.626463 1_556
Rh0 Zn0 2.626463 1_655
Rh0 Zn0 2.626464 1_565
Rh1 Zn0 2.653587 1_666
Rh2 Zn0 2.626463 1_665
Rh2 Zn0 2.626463 1_566
Rh2 Zn0 2.626464 1_656
Rh3 Zn0 2.653587 1_555
