# generated using pymatgen
data_Pr2Te3
_symmetry_space_group_name_H-M   'P 1'
_cell_length_a   24.99764561
_cell_length_b   9.61098280
_cell_length_c   9.61085474
_cell_angle_alpha   90.00026696
_cell_angle_beta   54.77458909
_cell_angle_gamma   54.77461652
_symmetry_Int_Tables_number   1
_chemical_formula_structural   Pr2Te3
_chemical_formula_sum   'Pr16 Te24'
_cell_volume   1335.67389859
_cell_formula_units_Z   8
loop_
 _symmetry_equiv_pos_site_id
 _symmetry_equiv_pos_as_xyz
  1  'x, y, z'
loop_
 _atom_site_type_symbol
 _atom_site_label
 _atom_site_symmetry_multiplicity
 _atom_site_fract_x
 _atom_site_fract_y
 _atom_site_fract_z
 _atom_site_occupancy
  Pr  Pr0  1  0.08181436  0.62719170  0.37732459  1
  Pr  Pr1  1  0.16665037  0.25009020  0.63149779  1
  Pr  Pr2  1  0.25148832  0.87269855  0.12286502  1
  Pr  Pr3  1  0.33639751  0.37580389  0.25229694  1
  Pr  Pr4  1  0.33640352  0.11494933  0.73869622  1
  Pr  Pr5  1  0.16666622  0.74996866  0.86859022  1
  Pr  Pr6  1  0.49687839  0.26146276  0.62437050  1
  Pr  Pr7  1  0.58181925  0.87730954  0.12717666  1
  Pr  Pr8  1  0.66665359  0.36860270  0.24998282  1
  Pr  Pr9  1  0.66665742  0.13149456  0.75006510  1
  Pr  Pr10  1  0.49696738  0.74771974  0.88489679  1
  Pr  Pr11  1  0.75149222  0.62286980  0.37268561  1
  Pr  Pr12  1  0.83638590  0.23872352  0.61499257  1
  Pr  Pr13  1  0.99697082  0.38490635  0.24772065  1
  Pr  Pr14  1  0.99687986  0.12436365  0.76147642  1
  Pr  Pr15  1  0.83638131  0.75231357  0.87581012  1
  Te  Te0  1  0.05048236  0.99938086  0.35217162  1
  Te  Te1  1  0.12338192  0.49156100  0.99449548  1
  Te  Te2  1  0.05056403  0.34888572  0.49612798  1
  Te  Te3  1  0.28278379  0.15101523  0.14797575  1
  Te  Te4  1  0.28275698  0.50048422  0.00391914  1
  Te  Te5  1  0.21016003  0.00789178  0.86413167  1
  Te  Te6  1  0.12332429  0.63846356  0.63541492  1
  Te  Te7  1  0.38447731  0.99778437  0.34346586  1
  Te  Te8  1  0.21005865  0.86157597  0.50562302  1
  Te  Te9  1  0.44876868  0.49691246  0.00247976  1
  Te  Te10  1  0.38455483  0.34850282  0.50316168  1
  Te  Te11  1  0.62332000  0.13543142  0.13842983  1
  Te  Te12  1  0.62335901  0.49452945  0.99156072  1
  Te  Te13  1  0.55056326  0.99611913  0.84887002  1
  Te  Te14  1  0.44878565  0.65666405  0.65142220  1
  Te  Te15  1  0.71004802  0.00562118  0.36160110  1
  Te  Te16  1  0.55049499  0.85211749  0.49937728  1
  Te  Te17  1  0.78275524  0.50390903  0.00049434  1
  Te  Te18  1  0.71015779  0.36412179  0.50790156  1
  Te  Te19  1  0.94880692  0.15141215  0.15668293  1
  Te  Te20  1  0.94876249  0.50250008  0.99690405  1
  Te  Te21  1  0.88454410  0.00316473  0.84854230  1
  Te  Te22  1  0.78277527  0.64799000  0.65102565  1
  Te  Te23  1  0.88447293  0.84349501  0.49777710  1
loop_
_geom_bond_atom_site_label_1
_geom_bond_atom_site_label_2
_geom_bond_distance
_geom_bond_site_symmetry_2
Pr0 Te6 3.215592 1_555
Pr0 Te1 3.216112 1_554
Pr0 Te2 3.232645 1_555
Pr0 Te0 3.233263 1_555
Pr0 Te21 3.400867 1_465
Pr0 Te23 3.402765 1_455
Pr0 Te4 3.426612 1_555
Pr0 Te3 3.427011 1_555
Pr1 Te8 3.224173 1_545
Pr1 Te6 3.224360 1_555
Pr1 Te7 3.251524 1_545
Pr1 Te20 3.252091 1_455
Pr1 Te1 3.387956 1_555
Pr1 Te5 3.388949 1_555
Pr1 Te3 3.489696 1_555
Pr1 Te2 3.491685 1_555
Pr2 Te8 3.217008 1_555
Pr2 Te5 3.217774 1_564
Pr2 Te3 3.233748 1_565
Pr2 Te4 3.233992 1_555
Pr2 Te14 3.401925 1_554
Pr2 Te9 3.402065 1_555
Pr2 Te2 3.426193 1_565
Pr2 Te0 3.428547 1_555
Pr3 Te6 3.188249 1_555
Pr3 Te10 3.211684 1_555
Pr3 Te13 3.244755 1_544
Pr3 Te4 3.281950 1_555
Pr3 Te9 3.316870 1_555
Pr3 Te7 3.404347 1_545
Pr3 Te8 3.437932 1_555
Pr3 Te3 3.515561 1_555
Pr4 Te1 3.188190 1_555
Pr4 Te7 3.211512 1_545
Pr4 Te16 3.243065 1_545
Pr4 Te3 3.281956 1_556
Pr4 Te14 3.317139 1_545
Pr4 Te10 3.403724 1_555
Pr4 Te5 3.439198 1_555
Pr4 Te4 3.514254 1_556
Pr5 Te5 3.222455 1_565
Pr5 Te1 3.223754 1_555
Pr5 Te19 3.252230 1_466
Pr5 Te10 3.252369 1_555
Pr5 Te8 3.387249 1_555
Pr5 Te6 3.388927 1_555
Pr5 Te0 3.489829 1_556
Pr5 Te4 3.491369 1_556
Pr6 Te15 3.190587 1_555
Pr6 Te14 3.211161 1_555
Pr6 Te4 3.244210 1_556
Pr6 Te16 3.282869 1_545
Pr6 Te10 3.317285 1_555
Pr6 Te9 3.404650 1_556
Pr6 Te11 3.438569 1_555
Pr6 Te13 3.514571 1_545
Pr7 Te11 3.215693 1_565
Pr7 Te12 3.216070 1_554
Pr7 Te13 3.232706 1_554
Pr7 Te16 3.233473 1_555
Pr7 Te10 3.400786 1_565
Pr7 Te7 3.402699 1_555
Pr7 Te17 3.426631 1_555
Pr7 Te22 3.426802 1_554
Pr8 Te18 3.222545 1_555
Pr8 Te12 3.224042 1_554
Pr8 Te21 3.252337 1_554
Pr8 Te14 3.252347 1_555
Pr8 Te15 3.387446 1_555
Pr8 Te11 3.388959 1_555
Pr8 Te16 3.489506 1_555
Pr8 Te17 3.491376 1_555
Pr9 Te15 3.223902 1_555
Pr9 Te11 3.224102 1_556
Pr9 Te23 3.251385 1_545
Pr9 Te9 3.252120 1_556
Pr9 Te12 3.387900 1_555
Pr9 Te18 3.388665 1_555
Pr9 Te22 3.489716 1_545
Pr9 Te13 3.491903 1_545
Pr10 Te18 3.190723 1_555
Pr10 Te9 3.212316 1_556
Pr10 Te3 3.244409 1_566
Pr10 Te13 3.281617 1_555
Pr10 Te7 3.318786 1_556
Pr10 Te14 3.403699 1_555
Pr10 Te12 3.438309 1_555
Pr10 Te16 3.514974 1_555
Pr11 Te15 3.216799 1_565
Pr11 Te18 3.218066 1_555
Pr11 Te22 3.233715 1_555
Pr11 Te17 3.233850 1_555
Pr11 Te20 3.401948 1_554
Pr11 Te19 3.402245 1_555
Pr11 Te13 3.426144 1_555
Pr11 Te16 3.428426 1_555
Pr12 Te12 3.188166 1_555
Pr12 Te23 3.211439 1_545
Pr12 Te0 3.243125 1_645
Pr12 Te22 3.282006 1_555
Pr12 Te19 3.317135 1_555
Pr12 Te21 3.403849 1_555
Pr12 Te18 3.439174 1_555
Pr12 Te17 3.514038 1_556
Pr13 Te5 3.190727 1_654
Pr13 Te20 3.212534 1_554
Pr13 Te22 3.244557 1_555
Pr13 Te2 3.281616 1_655
Pr13 Te23 3.318902 1_555
Pr13 Te19 3.403409 1_555
Pr13 Te1 3.438631 1_654
Pr13 Te0 3.515341 1_645
Pr14 Te8 3.190712 1_645
Pr14 Te19 3.211339 1_556
Pr14 Te17 3.244277 1_556
Pr14 Te0 3.282606 1_645
Pr14 Te21 3.317437 1_555
Pr14 Te20 3.404682 1_555
Pr14 Te6 3.438246 1_645
Pr14 Te2 3.514776 1_655
Pr15 Te11 3.188168 1_566
Pr15 Te21 3.211736 1_565
Pr15 Te2 3.244889 1_655
Pr15 Te17 3.282007 1_556
Pr15 Te20 3.316897 1_555
Pr15 Te23 3.404444 1_555
Pr15 Te15 3.438042 1_566
Pr15 Te22 3.515349 1_555
