# generated using pymatgen
data_Ca4P6SeN12
_symmetry_space_group_name_H-M   'P 1'
_cell_length_a   7.52844134
_cell_length_b   7.52844112
_cell_length_c   7.52844079
_cell_angle_alpha   109.47121448
_cell_angle_beta   109.47121390
_cell_angle_gamma   109.47122422
_symmetry_Int_Tables_number   1
_chemical_formula_structural   Ca4P6SeN12
_chemical_formula_sum   'Ca4 P6 Se1 N12'
_cell_volume   328.46819734
_cell_formula_units_Z   1
loop_
 _symmetry_equiv_pos_site_id
 _symmetry_equiv_pos_as_xyz
  1  'x, y, z'
loop_
 _atom_site_type_symbol
 _atom_site_label
 _atom_site_symmetry_multiplicity
 _atom_site_fract_x
 _atom_site_fract_y
 _atom_site_fract_z
 _atom_site_occupancy
  Ca  Ca0  1  0.62528330  0.00000000  1.00000000  1
  Ca  Ca1  1  1.00000000  1.00000000  0.62528330  1
  Ca  Ca2  1  0.00000000  0.62528330  1.00000000  1
  Ca  Ca3  1  0.37471670  0.37471670  0.37471670  1
  P  P0  1  0.25000000  0.75000000  0.50000000  1
  P  P1  1  0.75000000  0.25000000  0.50000000  1
  P  P2  1  0.75000000  0.50000000  0.25000000  1
  P  P3  1  0.25000000  0.50000000  0.75000000  1
  P  P4  1  0.50000000  0.75000000  0.25000000  1
  P  P5  1  0.50000000  0.25000000  0.75000000  1
  Se  Se0  1  0.00000000  0.00000000  0.00000000  1
  N  N0  1  0.69755494  0.30474827  0.30474827  1
  N  N1  1  0.30474827  0.69755494  0.30474827  1
  N  N2  1  0.30244506  0.60719333  0.60719333  1
  N  N3  1  0.60719333  0.60719333  0.30244506  1
  N  N4  1  0.39280667  0.69525173  0.00000000  1
  N  N5  1  0.00000000  0.69525173  0.39280667  1
  N  N6  1  0.60719333  0.30244506  0.60719333  1
  N  N7  1  0.69525173  0.00000000  0.39280667  1
  N  N8  1  0.39280667  0.00000000  0.69525173  1
  N  N9  1  0.69525173  0.39280667  0.00000000  1
  N  N10  1  0.30474827  0.30474827  0.69755494  1
  N  N11  1  0.00000000  0.39280667  0.69525173  1
loop_
_geom_bond_atom_site_label_1
_geom_bond_atom_site_label_2
_geom_bond_distance
_geom_bond_site_symmetry_2
Ca0 N4 2.376957 1_546
Ca0 N8 2.376958 1_555
Ca0 N0 2.376958 1_556
Ca0 Se0 2.821033 1_656
Ca0 N7 2.825623 1_556
Ca0 N9 2.825623 1_556
Ca0 N2 2.825624 1_545
Ca1 N10 2.376957 1_665
Ca1 N5 2.376958 1_655
Ca1 N7 2.376958 1_565
Ca1 Se0 2.821032 1_666
Ca1 N11 2.825623 1_665
Ca1 N8 2.825623 1_665
Ca1 N3 2.825623 1_555
Ca2 N9 2.376957 1_456
Ca2 N11 2.376958 1_555
Ca2 N1 2.376958 1_556
Ca2 Se0 2.821033 1_566
Ca2 N5 2.825623 1_556
Ca2 N4 2.825623 1_556
Ca2 N6 2.825624 1_455
Ca3 N3 2.376957 1_555
Ca3 N2 2.376958 1_555
Ca3 N6 2.376958 1_555
Ca3 Se0 2.821033 1_555
Ca3 N10 2.825623 1_555
Ca3 N1 2.825623 1_555
Ca3 N0 2.825623 1_555
N0 P2 1.616163 1_555
N0 P1 1.616163 1_555
N1 P0 1.616163 1_555
N1 P4 1.616163 1_555
N2 P3 1.616163 1_555
N2 P0 1.616163 1_555
N3 P4 1.616163 1_555
N3 P2 1.616163 1_555
N4 P4 1.616163 1_555
N4 P3 1.616164 1_554
N5 P0 1.616163 1_555
N5 P2 1.616163 1_455
N6 P5 1.616163 1_555
N6 P1 1.616163 1_555
N7 P1 1.616163 1_555
N7 P4 1.616163 1_545
N8 P5 1.616163 1_555
N8 P0 1.616164 1_545
N9 P2 1.616163 1_555
N9 P5 1.616164 1_554
N10 P3 1.616163 1_555
N10 P5 1.616163 1_555
N11 P3 1.616163 1_555
N11 P1 1.616164 1_455
