# generated using pymatgen
data_Ta4AlC3
_symmetry_space_group_name_H-M   'P 1'
_cell_length_a   3.10753899
_cell_length_b   3.10753899
_cell_length_c   24.68199300
_cell_angle_alpha   90.00000000
_cell_angle_beta   90.00000000
_cell_angle_gamma   120.00002118
_symmetry_Int_Tables_number   1
_chemical_formula_structural   Ta4AlC3
_chemical_formula_sum   'Ta8 Al2 C6'
_cell_volume   206.41627571
_cell_formula_units_Z   2
loop_
 _symmetry_equiv_pos_site_id
 _symmetry_equiv_pos_as_xyz
  1  'x, y, z'
loop_
 _atom_site_type_symbol
 _atom_site_label
 _atom_site_symmetry_multiplicity
 _atom_site_fract_x
 _atom_site_fract_y
 _atom_site_fract_z
 _atom_site_occupancy
  Ta  Ta0  1  0.66666700  0.33333300  0.34080400  1
  Ta  Ta1  1  0.33333300  0.66666700  0.84080400  1
  Ta  Ta2  1  0.33333300  0.66666700  0.65919600  1
  Ta  Ta3  1  0.66666700  0.33333300  0.15919600  1
  Ta  Ta4  1  0.33333300  0.66666700  0.44536700  1
  Ta  Ta5  1  0.66666700  0.33333300  0.94536700  1
  Ta  Ta6  1  0.66666700  0.33333300  0.55463300  1
  Ta  Ta7  1  0.33333300  0.66666700  0.05463300  1
  Al  Al0  1  0.66666700  0.33333300  0.75000000  1
  Al  Al1  1  0.33333300  0.66666700  0.25000000  1
  C  C0  1  0.00000000  0.00000000  0.38973200  1
  C  C1  1  0.00000000  0.00000000  0.88973200  1
  C  C2  1  0.00000000  0.00000000  0.61026800  1
  C  C3  1  0.00000000  0.00000000  0.00000000  1
  C  C4  1  0.00000000  0.00000000  0.11026800  1
  C  C5  1  0.00000000  0.00000000  0.50000000  1
loop_
_geom_bond_atom_site_label_1
_geom_bond_atom_site_label_2
_geom_bond_distance
_geom_bond_site_symmetry_2
Al0 Ta2 2.870890 1_545
Al0 Ta2 2.870890 1_655
Al0 Ta1 2.870890 1_655
Al0 Ta1 2.870890 1_545
Al0 Ta1 2.870894 1_555
Al0 Ta2 2.870894 1_555
Al1 Ta0 2.870890 1_565
Al1 Ta3 2.870890 1_455
Al1 Ta3 2.870890 1_565
Al1 Ta0 2.870890 1_455
Al1 Ta3 2.870894 1_555
Al1 Ta0 2.870894 1_555
C0 Ta0 2.162712 1_455
C0 Ta0 2.162714 1_445
C0 Ta0 2.162714 1_555
C0 Ta4 2.259327 1_545
C0 Ta4 2.259329 1_445
C0 Ta4 2.259329 1_555
C1 Ta1 2.162712 1_545
C1 Ta1 2.162714 1_555
C1 Ta1 2.162714 1_445
C1 Ta5 2.259327 1_455
C1 Ta5 2.259329 1_555
C1 Ta5 2.259329 1_445
C2 Ta2 2.162712 1_545
C2 Ta2 2.162714 1_555
C2 Ta2 2.162714 1_445
C2 Ta6 2.259327 1_455
C2 Ta6 2.259329 1_445
C2 Ta6 2.259329 1_555
C3 Ta7 2.244381 1_545
C3 Ta5 2.244381 1_454
C3 Ta7 2.244383 1_555
C3 Ta7 2.244383 1_445
C3 Ta5 2.244383 1_444
C3 Ta5 2.244383 1_554
C4 Ta3 2.162712 1_455
C4 Ta3 2.162714 1_445
C4 Ta3 2.162714 1_555
C4 Ta7 2.259327 1_545
C4 Ta7 2.259329 1_555
C4 Ta7 2.259329 1_445
C5 Ta4 2.244381 1_545
C5 Ta6 2.244381 1_455
C5 Ta4 2.244383 1_445
C5 Ta4 2.244383 1_555
C5 Ta6 2.244383 1_555
C5 Ta6 2.244383 1_445
