# generated using pymatgen
data_NaBiPt2O7
_symmetry_space_group_name_H-M   'P 1'
_cell_length_a   7.18780223
_cell_length_b   7.18780334
_cell_length_c   7.18780321
_cell_angle_alpha   118.98843091
_cell_angle_beta   121.41079887
_cell_angle_gamma   89.66748224
_symmetry_Int_Tables_number   1
_chemical_formula_structural   NaBiPt2O7
_chemical_formula_sum   'Na2 Bi2 Pt4 O14'
_cell_volume   261.64280900
_cell_formula_units_Z   2
loop_
 _symmetry_equiv_pos_site_id
 _symmetry_equiv_pos_as_xyz
  1  'x, y, z'
loop_
 _atom_site_type_symbol
 _atom_site_label
 _atom_site_symmetry_multiplicity
 _atom_site_fract_x
 _atom_site_fract_y
 _atom_site_fract_z
 _atom_site_occupancy
  Na  Na0  1  0.00000000  0.50000000  0.50000000  1
  Na  Na1  1  0.50000000  0.50000000  0.00000000  1
  Bi  Bi0  1  0.00000000  0.50000000  0.00000000  1
  Bi  Bi1  1  0.00000000  0.00000000  0.50000000  1
  Pt  Pt0  1  0.50000000  0.00000000  0.00000000  1
  Pt  Pt1  1  0.50000000  0.50000000  0.50000000  1
  Pt  Pt2  1  0.50000000  0.00000000  0.50000000  1
  Pt  Pt3  1  0.00000000  0.00000000  0.00000000  1
  O  O0  1  0.89164930  0.64164930  0.25000000  1
  O  O1  1  0.10835070  0.35835070  0.75000000  1
  O  O2  1  0.83535300  0.08535300  0.75000000  1
  O  O3  1  0.42348401  0.67348401  0.75000000  1
  O  O4  1  0.83855981  0.66649717  0.75890279  1
  O  O5  1  0.40759337  0.07965801  0.74109721  1
  O  O6  1  0.83855981  0.07965801  0.17206364  1
  O  O7  1  0.40759337  0.66649717  0.32793636  1
  O  O8  1  0.16464700  0.91464700  0.25000000  1
  O  O9  1  0.57651599  0.32651599  0.25000000  1
  O  O10  1  0.16144019  0.33350283  0.24109721  1
  O  O11  1  0.59240663  0.92034199  0.25890279  1
  O  O12  1  0.16144019  0.92034199  0.82793636  1
  O  O13  1  0.59240663  0.33350283  0.67206364  1
loop_
_geom_bond_atom_site_label_1
_geom_bond_atom_site_label_2
_geom_bond_distance
_geom_bond_site_symmetry_2
Na0 O0 2.275432 1_455
Na0 O1 2.275432 1_555
Na0 O3 2.494037 1_555
Na0 O9 2.494037 1_455
Na0 O12 2.513549 1_555
Na0 O6 2.513549 1_455
Na0 O10 2.513555 1_555
Na0 O4 2.513555 1_455
Na1 O0 2.275432 1_555
Na1 O1 2.275432 1_554
Na1 O9 2.494037 1_555
Na1 O3 2.494037 1_554
Na1 O11 2.513549 1_555
Na1 O5 2.513549 1_554
Na1 O7 2.513555 1_555
Na1 O13 2.513555 1_554
Bi0 O0 2.132694 1_455
Bi0 O1 2.132694 1_554
Bi0 O7 2.383242 1_555
Bi0 O13 2.383242 1_454
Bi0 O4 2.383248 1_454
Bi0 O10 2.383248 1_555
Bi0 O8 2.479040 1_555
Bi0 O2 2.479040 1_454
Bi1 O1 2.132694 1_555
Bi1 O0 2.132694 1_445
Bi1 O5 2.383241 1_555
Bi1 O11 2.383241 1_445
Bi1 O6 2.383247 1_455
Bi1 O12 2.383247 1_545
Bi1 O8 2.479040 1_545
Bi1 O2 2.479040 1_455
O2 Pt2 1.962000 1_555
O2 Pt3 1.962001 1_656
O3 Pt1 1.984123 1_555
O3 Pt0 1.984123 1_566
O4 Pt1 1.993003 1_555
O4 Pt3 2.001434 1_666
O5 Pt0 1.993007 1_556
O5 Pt2 2.001439 1_555
O6 Pt0 1.993002 1_555
O6 Pt3 2.001440 1_655
O7 Pt1 1.993008 1_555
O7 Pt2 2.001434 1_565
O8 Pt2 1.962000 1_565
O8 Pt3 1.962001 1_565
O9 Pt1 1.984123 1_555
O9 Pt0 1.984123 1_555
O10 Pt1 1.993003 1_555
O10 Pt3 2.001434 1_555
O11 Pt0 1.993007 1_565
O11 Pt2 2.001439 1_565
O12 Pt0 1.993002 1_566
O12 Pt3 2.001440 1_566
O13 Pt1 1.993008 1_555
O13 Pt2 2.001434 1_555
