# generated using pymatgen
data_Rb3Rh2Br9
_symmetry_space_group_name_H-M   'P 1'
_cell_length_a   7.37273010
_cell_length_b   7.37270639
_cell_length_c   18.91614371
_cell_angle_alpha   90.00000000
_cell_angle_beta   90.00000000
_cell_angle_gamma   120.02304587
_symmetry_Int_Tables_number   1
_chemical_formula_structural   Rb3Rh2Br9
_chemical_formula_sum   'Rb6 Rh4 Br18'
_cell_volume   890.26153509
_cell_formula_units_Z   2
loop_
 _symmetry_equiv_pos_site_id
 _symmetry_equiv_pos_as_xyz
  1  'x, y, z'
loop_
 _atom_site_type_symbol
 _atom_site_label
 _atom_site_symmetry_multiplicity
 _atom_site_fract_x
 _atom_site_fract_y
 _atom_site_fract_z
 _atom_site_occupancy
  Rb  Rb0  1  0.66666289  0.33333811  0.56350324  1
  Rb  Rb1  1  0.33333711  0.66666189  0.06350324  1
  Rb  Rb2  1  0.33333711  0.66666189  0.43649676  1
  Rb  Rb3  1  0.66666289  0.33333811  0.93649676  1
  Rb  Rb4  1  0.99999865  0.00000035  0.25000000  1
  Rb  Rb5  1  0.00000135  0.99999965  0.75000000  1
  Rh  Rh0  1  0.33336083  0.66663817  0.66498819  1
  Rh  Rh1  1  0.66663917  0.33336183  0.33501181  1
  Rh  Rh2  1  0.33336083  0.66663817  0.83501181  1
  Rh  Rh3  1  0.66663917  0.33336183  0.16498819  1
  Br  Br0  1  0.82605889  0.65202768  0.40820379  1
  Br  Br1  1  0.17404525  0.82595475  0.59178531  1
  Br  Br2  1  0.65202768  0.82605889  0.59179721  1
  Br  Br3  1  0.82595475  0.17404525  0.40821469  1
  Br  Br4  1  0.34797232  0.17394111  0.40820279  1
  Br  Br5  1  0.17394111  0.34797232  0.90820379  1
  Br  Br6  1  0.02356670  0.51173798  0.75000000  1
  Br  Br7  1  0.65202768  0.82605889  0.90820279  1
  Br  Br8  1  0.82605889  0.65202768  0.09179621  1
  Br  Br9  1  0.17394111  0.34797232  0.59179621  1
  Br  Br10  1  0.48826102  0.97643430  0.75000000  1
  Br  Br11  1  0.51180582  0.48819618  0.25000000  1
  Br  Br12  1  0.48819418  0.51180382  0.75000000  1
  Br  Br13  1  0.17404525  0.82595475  0.90821469  1
  Br  Br14  1  0.34797232  0.17394111  0.09179721  1
  Br  Br15  1  0.97643330  0.48826202  0.25000000  1
  Br  Br16  1  0.51173898  0.02356570  0.25000000  1
  Br  Br17  1  0.82595475  0.17404525  0.09178531  1
loop_
_geom_bond_atom_site_label_1
_geom_bond_atom_site_label_2
_geom_bond_distance
_geom_bond_site_symmetry_2
Br0 Rh1 2.460652 1_555
Br0 Rb0 3.573296 1_555
Br0 Rb2 3.725863 1_655
Br0 Rb2 3.726505 1_555
Br0 Rb4 3.726894 1_565
Br1 Rh0 2.461179 1_555
Br1 Rb2 3.573151 1_555
Br1 Rb0 3.724897 1_455
Br1 Rb0 3.724903 1_565
Br1 Rb5 3.727965 1_555
Br2 Rh0 2.460652 1_555
Br2 Rb2 3.573319 1_555
Br2 Rb0 3.725858 1_565
Br2 Rb0 3.726492 1_555
Br2 Rb5 3.726887 1_655
Br3 Rh1 2.461179 1_555
Br3 Rb0 3.573151 1_555
Br3 Rb2 3.724897 1_655
Br3 Rb2 3.724903 1_545
Br3 Rb4 3.727965 1_555
Br4 Rh1 2.460652 1_555
Br4 Rb0 3.573319 1_555
Br4 Rb2 3.725858 1_545
Br4 Rb2 3.726492 1_555
Br4 Rb4 3.726887 1_455
Br5 Rh2 2.460652 1_555
Br5 Rb1 3.573296 1_556
Br5 Rb3 3.725863 1_455
Br5 Rb3 3.726505 1_555
Br5 Rb5 3.726894 1_545
Br6 Rh0 2.548871 1_555
Br6 Rh2 2.548871 1_555
Br6 Rb5 3.689034 1_545
Br6 Rb5 3.689809 1_555
Br7 Rh2 2.460652 1_555
Br7 Rb1 3.573319 1_556
Br7 Rb3 3.725858 1_565
Br7 Rb3 3.726492 1_555
Br7 Rb5 3.726887 1_655
Br8 Rh3 2.460652 1_555
Br8 Rb3 3.573296 1_554
Br8 Rb1 3.725863 1_655
Br8 Rb1 3.726505 1_555
Br8 Rb4 3.726894 1_565
Br9 Rh0 2.460652 1_555
Br9 Rb2 3.573296 1_555
Br9 Rb0 3.725863 1_455
Br9 Rb0 3.726505 1_555
Br9 Rb5 3.726894 1_545
Br10 Rh0 2.548876 1_555
Br10 Rh2 2.548876 1_555
Br10 Rb5 3.689061 1_655
Br10 Rb5 3.689805 1_555
Br11 Rh3 2.548777 1_555
Br11 Rh1 2.548777 1_555
Br11 Rb4 3.688147 1_565
Br11 Rb4 3.688170 1_455
Br12 Rh0 2.548777 1_555
Br12 Rh2 2.548777 1_555
Br12 Rb5 3.688147 1_545
Br12 Rb5 3.688170 1_655
Br13 Rh2 2.461179 1_555
Br13 Rb1 3.573151 1_556
Br13 Rb3 3.724897 1_455
Br13 Rb3 3.724903 1_565
Br13 Rb5 3.727965 1_555
Br14 Rh3 2.460652 1_555
Br14 Rb3 3.573319 1_554
Br14 Rb1 3.725858 1_545
Br14 Rb1 3.726492 1_555
Br14 Rb4 3.726887 1_455
Br15 Rh3 2.548871 1_555
Br15 Rh1 2.548871 1_555
Br15 Rb4 3.689034 1_565
Br15 Rb4 3.689809 1_555
Br16 Rh3 2.548876 1_555
Br16 Rh1 2.548876 1_555
Br16 Rb4 3.689061 1_455
Br16 Rb4 3.689805 1_555
Br17 Rh3 2.461179 1_555
Br17 Rb3 3.573151 1_554
Br17 Rb1 3.724897 1_655
Br17 Rb1 3.724903 1_545
Br17 Rb4 3.727965 1_555
