# generated using pymatgen
data_CaSbAsF12
_symmetry_space_group_name_H-M   'P 1'
_cell_length_a   10.72607491
_cell_length_b   5.70969646
_cell_length_c   5.85825313
_cell_angle_alpha   54.18739099
_cell_angle_beta   51.61211724
_cell_angle_gamma   53.39620931
_symmetry_Int_Tables_number   1
_chemical_formula_structural   CaSbAsF12
_chemical_formula_sum   'Ca1 Sb1 As1 F12'
_cell_volume   212.18599082
_cell_formula_units_Z   1
loop_
 _symmetry_equiv_pos_site_id
 _symmetry_equiv_pos_as_xyz
  1  'x, y, z'
loop_
 _atom_site_type_symbol
 _atom_site_label
 _atom_site_symmetry_multiplicity
 _atom_site_fract_x
 _atom_site_fract_y
 _atom_site_fract_z
 _atom_site_occupancy
  Ca  Ca0  1  0.70827867  0.49660630  0.56034811  1
  Sb  Sb0  1  0.01614508  0.98461318  0.00204658  1
  As  As0  1  0.49328610  0.01127913  0.98738318  1
  F  F0  1  0.19926849  0.11593494  0.74871110  1
  F  F1  1  0.70859379  0.99469467  0.77832249  1
  F  F2  1  0.05968802  0.75516578  0.35388368  1
  F  F3  1  0.52285344  0.83651868  0.32591772  1
  F  F4  1  0.13174453  0.64687876  0.87593345  1
  F  F5  1  0.57913406  0.63423636  0.98639881  1
  F  F6  1  0.48594598  0.16214544  0.63993077  1
  F  F7  1  0.93229610  0.24457315  0.68414217  1
  F  F8  1  0.29067263  0.01818712  0.20627073  1
  F  F9  1  0.81327439  0.88400048  0.24473084  1
  F  F10  1  0.43902400  0.37852445  0.96371738  1
  F  F11  1  0.86979571  0.33664256  0.14226600  1
loop_
_geom_bond_atom_site_label_1
_geom_bond_atom_site_label_2
_geom_bond_distance
_geom_bond_site_symmetry_2
Ca0 F9 2.275512 1_555
Ca0 F7 2.278087 1_555
Ca0 F3 2.297448 1_555
Ca0 F11 2.301159 1_555
Ca0 F5 2.338624 1_555
Ca0 F1 2.356795 1_545
Ca0 F10 2.522119 1_555
As0 F8 1.692563 1_556
As0 F6 1.719761 1_555
As0 F10 1.749109 1_555
As0 F3 1.765587 1_546
As0 F5 1.768156 1_545
As0 F1 1.790097 1_545
F0 Sb0 1.859171 1_546
F2 Sb0 1.867786 1_555
F4 Sb0 1.865459 1_556
F7 Sb0 1.932272 1_646
F9 Sb0 1.943974 1_655
F11 Sb0 1.935702 1_645
