# generated using pymatgen
data_La3OsO7
_symmetry_space_group_name_H-M   'P 1'
_cell_length_a   6.73811353
_cell_length_b   6.73811353
_cell_length_c   7.64945939
_cell_angle_alpha   90.00000000
_cell_angle_beta   90.00000000
_cell_angle_gamma   112.40056719
_symmetry_Int_Tables_number   1
_chemical_formula_structural   La3OsO7
_chemical_formula_sum   'La6 Os2 O14'
_cell_volume   321.09545589
_cell_formula_units_Z   2
loop_
 _symmetry_equiv_pos_site_id
 _symmetry_equiv_pos_as_xyz
  1  'x, y, z'
loop_
 _atom_site_type_symbol
 _atom_site_label
 _atom_site_symmetry_multiplicity
 _atom_site_fract_x
 _atom_site_fract_y
 _atom_site_fract_z
 _atom_site_occupancy
  La  La0  1  0.50000000  0.50000000  0.00000000  1
  La  La1  1  0.50000000  0.50000000  0.50000000  1
  La  La2  1  0.41182207  0.96647121  0.75000000  1
  La  La3  1  0.58817793  0.03352879  0.25000000  1
  La  La4  1  0.96647121  0.41182207  0.75000000  1
  La  La5  1  0.03352879  0.58817793  0.25000000  1
  Os  Os0  1  0.00000000  -0.00000000  0.00000000  1
  Os  Os1  1  0.00000000  -0.00000000  0.50000000  1
  O  O0  1  0.59997970  0.33932296  0.75000000  1
  O  O1  1  0.40002030  0.66067704  0.25000000  1
  O  O2  1  0.33932296  0.59997970  0.75000000  1
  O  O3  1  0.66067704  0.40002030  0.25000000  1
  O  O4  1  0.30698712  0.05833810  0.04062757  1
  O  O5  1  0.69301288  0.94166190  0.54062757  1
  O  O6  1  0.05833810  0.30698712  0.45937243  1
  O  O7  1  0.94166190  0.69301288  0.95937243  1
  O  O8  1  0.91878177  0.91878177  0.25000000  1
  O  O9  1  0.08121823  0.08121823  0.75000000  1
  O  O10  1  0.05833810  0.30698712  0.04062757  1
  O  O11  1  0.94166190  0.69301288  0.54062757  1
  O  O12  1  0.30698712  0.05833810  0.45937243  1
  O  O13  1  0.69301288  0.94166190  0.95937243  1
loop_
_geom_bond_atom_site_label_1
_geom_bond_atom_site_label_2
_geom_bond_distance
_geom_bond_site_symmetry_2
La0 O1 2.416406 1_555
La0 O2 2.416406 1_554
La0 O0 2.416406 1_554
La0 O3 2.416406 1_555
La0 O10 2.773903 1_555
La0 O4 2.773903 1_555
La0 O7 2.773903 1_554
La0 O13 2.773903 1_554
La1 O0 2.416406 1_555
La1 O1 2.416406 1_555
La1 O2 2.416406 1_555
La1 O3 2.416406 1_555
La1 O12 2.773903 1_555
La1 O6 2.773903 1_555
La1 O5 2.773903 1_555
La1 O11 2.773903 1_555
La2 O2 2.327541 1_555
La2 O0 2.343397 1_565
La2 O4 2.481490 1_566
La2 O12 2.481490 1_565
La2 O5 2.534619 1_555
La2 O13 2.534619 1_555
La2 O9 2.621628 1_565
La3 O3 2.327541 1_555
La3 O1 2.343397 1_545
La3 O13 2.481490 1_544
La3 O5 2.481490 1_545
La3 O12 2.534619 1_555
La3 O4 2.534619 1_555
La3 O8 2.621628 1_545
La4 O0 2.327541 1_555
La4 O2 2.343397 1_655
La4 O6 2.481490 1_655
La4 O10 2.481490 1_656
La4 O11 2.534619 1_555
La4 O7 2.534619 1_555
La4 O9 2.621628 1_655
La5 O1 2.327541 1_555
La5 O3 2.343397 1_455
La5 O7 2.481490 1_454
La5 O11 2.481490 1_455
La5 O10 2.534619 1_555
La5 O6 2.534619 1_555
La5 O8 2.621628 1_455
O4 Os0 1.977406 1_555
O5 Os1 1.977406 1_665
O6 Os1 1.977406 1_555
O7 Os0 1.977406 1_666
O8 Os1 2.006953 1_665
O8 Os0 2.006953 1_665
O9 Os1 2.006953 1_555
O9 Os0 2.006953 1_556
O10 Os0 1.977406 1_555
O11 Os1 1.977406 1_665
O12 Os1 1.977406 1_555
O13 Os0 1.977406 1_666
