# generated using pymatgen
data_Sr2NiIrCl
_symmetry_space_group_name_H-M   'P 1'
_cell_length_a   4.15368699
_cell_length_b   4.15368702
_cell_length_c   16.72117233
_cell_angle_alpha   90.00000000
_cell_angle_beta   90.00000000
_cell_angle_gamma   119.99999978
_symmetry_Int_Tables_number   1
_chemical_formula_structural   Sr2NiIrCl
_chemical_formula_sum   'Sr4 Ni2 Ir2 Cl2'
_cell_volume   249.84167936
_cell_formula_units_Z   2
loop_
 _symmetry_equiv_pos_site_id
 _symmetry_equiv_pos_as_xyz
  1  'x, y, z'
loop_
 _atom_site_type_symbol
 _atom_site_label
 _atom_site_symmetry_multiplicity
 _atom_site_fract_x
 _atom_site_fract_y
 _atom_site_fract_z
 _atom_site_occupancy
  Sr  Sr0  1  0.00000000  0.00000000  0.61986423  1
  Sr  Sr1  1  0.00000000  0.00000000  0.38052867  1
  Sr  Sr2  1  0.00000000  0.00000000  0.11986423  1
  Sr  Sr3  1  0.00000000  0.00000000  0.88052867  1
  Ni  Ni0  1  0.66666700  0.33333300  0.99764078  1
  Ni  Ni1  1  0.33333300  0.66666700  0.49764078  1
  Ir  Ir0  1  0.66666700  0.33333300  0.50225947  1
  Ir  Ir1  1  0.33333300  0.66666700  0.00225947  1
  Cl  Cl0  1  0.66666700  0.33333300  0.24970686  1
  Cl  Cl1  1  0.33333300  0.66666700  0.74970686  1
loop_
_geom_bond_atom_site_label_1
_geom_bond_atom_site_label_2
_geom_bond_distance
_geom_bond_site_symmetry_2
Ni0 Sr3 3.096091 1_655
Ni0 Sr3 3.096093 1_555
Ni0 Sr3 3.096093 1_665
Ni0 Sr2 3.150844 1_656
Ni0 Sr2 3.150846 1_556
Ni0 Sr2 3.150846 1_666
Ni1 Sr1 3.096091 1_565
Ni1 Sr1 3.096093 1_665
Ni1 Sr1 3.096093 1_555
Ni1 Sr0 3.150844 1_565
Ni1 Sr0 3.150846 1_665
Ni1 Sr0 3.150846 1_555
Ir0 Ni1 2.399373 1_655
Ir0 Ni1 2.399373 1_545
Ir0 Ni1 2.399380 1_555
Ir0 Sr0 3.101307 1_655
Ir0 Sr0 3.101310 1_555
Ir0 Sr0 3.101310 1_665
Ir0 Sr1 3.145507 1_655
Ir0 Sr1 3.145510 1_555
Ir0 Sr1 3.145510 1_665
Ir1 Ni0 2.399373 1_454
Ir1 Ni0 2.399373 1_564
Ir1 Ni0 2.399380 1_554
Ir1 Sr2 3.101307 1_565
Ir1 Sr2 3.101310 1_665
Ir1 Sr2 3.101310 1_555
Ir1 Sr3 3.145507 1_564
Ir1 Sr3 3.145510 1_664
Ir1 Sr3 3.145510 1_554
Cl0 Sr2 3.234933 1_655
Cl0 Sr2 3.234936 1_555
Cl0 Sr2 3.234936 1_665
Cl0 Sr1 3.245945 1_655
Cl0 Sr1 3.245947 1_555
Cl0 Sr1 3.245947 1_665
Cl1 Sr0 3.234933 1_565
Cl1 Sr0 3.234936 1_665
Cl1 Sr0 3.234936 1_555
Cl1 Sr3 3.245945 1_565
Cl1 Sr3 3.245947 1_665
Cl1 Sr3 3.245947 1_555
