# generated using pymatgen
data_Hf5Zr3(Ir2O)2
_symmetry_space_group_name_H-M   'P 1'
_cell_length_a   8.72897337
_cell_length_b   8.72897347
_cell_length_c   8.72897264
_cell_angle_alpha   59.99999942
_cell_angle_beta   59.99999903
_cell_angle_gamma   59.99999760
_symmetry_Int_Tables_number   1
_chemical_formula_structural   Hf5Zr3(Ir2O)2
_chemical_formula_sum   'Hf10 Zr6 Ir8 O4'
_cell_volume   470.29944197
_cell_formula_units_Z   2
loop_
 _symmetry_equiv_pos_site_id
 _symmetry_equiv_pos_as_xyz
  1  'x, y, z'
loop_
 _atom_site_type_symbol
 _atom_site_label
 _atom_site_symmetry_multiplicity
 _atom_site_fract_x
 _atom_site_fract_y
 _atom_site_fract_z
 _atom_site_occupancy
  Hf  Hf0  1  0.10678191  0.63107270  0.63107270  1
  Hf  Hf1  1  0.63107270  0.10678191  0.63107270  1
  Hf  Hf2  1  0.63107270  0.63107270  0.10678191  1
  Hf  Hf3  1  0.63107270  0.63107270  0.63107270  1
  Hf  Hf4  1  0.81227697  0.81227697  0.18772303  1
  Hf  Hf5  1  0.18772303  0.18772303  0.81227697  1
  Hf  Hf6  1  0.81227697  0.18772303  0.81227697  1
  Hf  Hf7  1  0.18772303  0.81227697  0.18772303  1
  Hf  Hf8  1  0.18772303  0.81227697  0.81227697  1
  Hf  Hf9  1  0.81227697  0.18772303  0.18772303  1
  Zr  Zr0  1  0.43618805  0.43618805  0.06381195  1
  Zr  Zr1  1  0.06381195  0.06381195  0.43618805  1
  Zr  Zr2  1  0.43618805  0.06381195  0.43618805  1
  Zr  Zr3  1  0.06381195  0.43618805  0.06381195  1
  Zr  Zr4  1  0.06381195  0.43618805  0.43618805  1
  Zr  Zr5  1  0.43618805  0.06381195  0.06381195  1
  Ir  Ir0  1  0.75726430  0.41424490  0.41424490  1
  Ir  Ir1  1  0.41424490  0.75726430  0.41424490  1
  Ir  Ir2  1  0.41424490  0.41424490  0.75726430  1
  Ir  Ir3  1  0.41424490  0.41424490  0.41424490  1
  Ir  Ir4  1  0.44946092  0.85017969  0.85017969  1
  Ir  Ir5  1  0.85017969  0.44946092  0.85017969  1
  Ir  Ir6  1  0.85017969  0.85017969  0.44946092  1
  Ir  Ir7  1  0.85017969  0.85017969  0.85017969  1
  O  O0  1  0.63180137  0.12273288  0.12273288  1
  O  O1  1  0.12273288  0.63180137  0.12273288  1
  O  O2  1  0.12273288  0.12273288  0.63180137  1
  O  O3  1  0.12273288  0.12273288  0.12273288  1
loop_
_geom_bond_atom_site_label_1
_geom_bond_atom_site_label_2
_geom_bond_distance
_geom_bond_site_symmetry_2
Hf0 Ir7 2.724525 1_455
Hf0 Ir6 2.724525 1_455
Hf0 Ir5 2.724526 1_455
Hf0 Ir2 2.791129 1_555
Hf0 Ir1 2.791129 1_555
Hf0 Ir3 2.791134 1_555
Hf1 Ir7 2.724525 1_545
Hf1 Ir6 2.724525 1_545
Hf1 Ir4 2.724526 1_545
Hf1 Ir2 2.791129 1_555
Hf1 Ir0 2.791129 1_555
Hf1 Ir3 2.791134 1_555
Hf2 Ir5 2.724525 1_554
Hf2 Ir4 2.724525 1_554
Hf2 Ir7 2.724526 1_554
Hf2 Ir1 2.791129 1_555
Hf2 Ir0 2.791129 1_555
Hf2 Ir3 2.791134 1_555
Hf3 Ir5 2.724525 1_555
Hf3 Ir4 2.724525 1_555
Hf3 Ir6 2.724526 1_555
Hf3 Ir1 2.791136 1_555
Hf3 Ir0 2.791136 1_555
Hf3 Ir2 2.791136 1_555
Hf4 O1 2.287938 1_655
Hf4 O0 2.287938 1_565
Hf4 Ir7 2.657076 1_554
Hf4 Ir6 2.657076 1_555
Hf4 Ir1 3.171878 1_555
Hf4 Ir0 3.171878 1_555
Hf5 O3 2.287938 1_556
Hf5 O2 2.287938 1_555
Hf5 Ir5 2.657076 1_455
Hf5 Ir4 2.657076 1_545
Hf5 Ir2 3.171871 1_555
Hf5 Ir3 3.171875 1_555
Hf6 O0 2.287938 1_556
Hf6 O2 2.287938 1_655
Hf6 Ir5 2.657076 1_555
Hf6 Ir7 2.657076 1_545
Hf6 Ir0 3.171878 1_555
Hf6 Ir2 3.171878 1_555
Hf7 O1 2.287938 1_555
Hf7 O3 2.287938 1_565
Hf7 Ir4 2.657076 1_554
Hf7 Ir6 2.657076 1_455
Hf7 Ir1 3.171871 1_555
Hf7 Ir3 3.171875 1_555
Hf8 O1 2.287938 1_556
Hf8 O2 2.287938 1_565
Hf8 Ir7 2.657076 1_455
Hf8 Ir4 2.657076 1_555
Hf8 Ir1 3.171878 1_555
Hf8 Ir2 3.171878 1_555
Hf9 O3 2.287938 1_655
Hf9 O0 2.287938 1_555
Hf9 Ir5 2.657076 1_554
Hf9 Ir6 2.657076 1_545
Hf9 Ir0 3.171871 1_555
Hf9 Ir3 3.171875 1_555
Ir0 Zr3 2.880149 1_655
Ir0 Zr1 2.880149 1_655
Ir0 Zr4 2.880154 1_655
Ir1 Zr5 2.880149 1_565
Ir1 Zr1 2.880149 1_565
Ir1 Zr2 2.880154 1_565
Ir2 Zr3 2.880149 1_556
Ir2 Zr5 2.880149 1_556
Ir2 Zr0 2.880154 1_556
Ir3 Zr0 2.880145 1_555
Ir3 Zr4 2.880145 1_555
Ir3 Zr2 2.880145 1_555
Ir4 Zr2 3.164435 1_565
Ir4 Zr5 3.164435 1_566
Ir4 Zr0 3.164435 1_556
Ir5 Zr4 3.164435 1_655
Ir5 Zr3 3.164435 1_656
Ir5 Zr0 3.164435 1_556
Ir6 Zr2 3.164435 1_565
Ir6 Zr4 3.164435 1_655
Ir6 Zr1 3.164435 1_665
Ir7 Zr1 3.164435 1_665
Ir7 Zr5 3.164435 1_566
Ir7 Zr3 3.164435 1_656
O0 Zr2 2.337850 1_555
O0 Zr0 2.337850 1_555
O0 Zr5 2.337850 1_555
O1 Zr4 2.337850 1_555
O1 Zr0 2.337850 1_555
O1 Zr3 2.337850 1_555
O2 Zr1 2.337850 1_555
O2 Zr2 2.337850 1_555
O2 Zr4 2.337850 1_555
O3 Zr1 2.337850 1_555
O3 Zr5 2.337850 1_555
O3 Zr3 2.337850 1_555
