# generated using pymatgen
data_Hf6Ga2CN
_symmetry_space_group_name_H-M   'P 1'
_cell_length_a   5.87816652
_cell_length_b   5.87816650
_cell_length_c   8.77409021
_cell_angle_alpha   89.68060449
_cell_angle_beta   90.31939498
_cell_angle_gamma   146.90428015
_symmetry_Int_Tables_number   1
_chemical_formula_structural   Hf6Ga2CN
_chemical_formula_sum   'Hf6 Ga2 C1 N1'
_cell_volume   165.53982205
_cell_formula_units_Z   1
loop_
 _symmetry_equiv_pos_site_id
 _symmetry_equiv_pos_as_xyz
  1  'x, y, z'
loop_
 _atom_site_type_symbol
 _atom_site_label
 _atom_site_symmetry_multiplicity
 _atom_site_fract_x
 _atom_site_fract_y
 _atom_site_fract_z
 _atom_site_occupancy
  Hf  Hf0  1  0.62880804  0.37119196  0.95135558  1
  Hf  Hf1  1  0.37216744  0.62783256  0.45472651  1
  Hf  Hf2  1  0.37119196  0.62880804  0.04864442  1
  Hf  Hf3  1  0.62783256  0.37216744  0.54527349  1
  Hf  Hf4  1  0.95149355  0.04850645  0.74912769  1
  Hf  Hf5  1  0.04850645  0.95149355  0.25087231  1
  Ga  Ga0  1  0.25313359  0.74686641  0.74804158  1
  Ga  Ga1  1  0.74686641  0.25313359  0.25195842  1
  C  C0  1  0.00000000  0.00000000  0.00000000  1
  N  N0  1  0.00000000  0.00000000  0.50000000  1
loop_
_geom_bond_atom_site_label_1
_geom_bond_atom_site_label_2
_geom_bond_distance
_geom_bond_site_symmetry_2
Hf1 N0 2.242631 1_555
Hf1 N0 2.242631 1_665
Hf3 N0 2.242631 1_665
Hf3 N0 2.242631 1_555
Hf4 N0 2.256266 1_655
Hf5 N0 2.256266 1_565
Ga0 Hf4 2.792811 1_455
Ga0 Hf4 2.792811 1_565
Ga0 Hf3 2.816535 1_565
Ga0 Hf3 2.816535 1_455
Ga0 Hf0 2.824411 1_455
Ga0 Hf0 2.824411 1_565
Ga0 Hf1 2.909106 1_555
Ga0 Hf2 2.947164 1_556
Ga1 Hf5 2.792811 1_655
Ga1 Hf5 2.792811 1_545
Ga1 Hf1 2.816535 1_545
Ga1 Hf1 2.816535 1_655
Ga1 Hf2 2.824411 1_655
Ga1 Hf2 2.824411 1_545
Ga1 Hf3 2.909106 1_555
Ga1 Hf0 2.947164 1_554
C0 Hf2 2.258190 1_555
C0 Hf0 2.258190 1_444
C0 Hf0 2.258190 1_554
C0 Hf2 2.258190 1_445
C0 Hf5 2.264950 1_545
C0 Hf4 2.264950 1_454
