# generated using pymatgen
data_Zn6Mo6CN
_symmetry_space_group_name_H-M   'P 1'
_cell_length_a   7.96839198
_cell_length_b   7.98367121
_cell_length_c   7.98367014
_cell_angle_alpha   60.13441802
_cell_angle_beta   60.06328452
_cell_angle_gamma   60.06328415
_symmetry_Int_Tables_number   1
_chemical_formula_structural   Zn6Mo6CN
_chemical_formula_sum   'Zn12 Mo12 C2 N2'
_cell_volume   359.84524341
_cell_formula_units_Z   2
loop_
 _symmetry_equiv_pos_site_id
 _symmetry_equiv_pos_as_xyz
  1  'x, y, z'
loop_
 _atom_site_type_symbol
 _atom_site_label
 _atom_site_symmetry_multiplicity
 _atom_site_fract_x
 _atom_site_fract_y
 _atom_site_fract_z
 _atom_site_occupancy
  Zn  Zn0  1  0.41540708  0.41587157  0.75331128  1
  Zn  Zn1  1  0.41536136  0.41579985  0.41579985  1
  Zn  Zn2  1  0.75303694  0.41579985  0.41579985  1
  Zn  Zn3  1  0.41540708  0.75331128  0.41587157  1
  Zn  Zn4  1  0.83459292  0.83412843  0.49668872  1
  Zn  Zn5  1  0.83463864  0.83420015  0.83420015  1
  Zn  Zn6  1  0.49696306  0.83420015  0.83420015  1
  Zn  Zn7  1  0.83459292  0.49668872  0.83412843  1
  Zn  Zn8  1  0.62500000  0.62500000  0.12500000  1
  Zn  Zn9  1  0.62500000  0.62500000  0.62500000  1
  Zn  Zn10  1  0.12500000  0.62500000  0.62500000  1
  Zn  Zn11  1  0.62500000  0.12500000  0.62500000  1
  Mo  Mo0  1  0.81029976  0.18970024  0.18970024  1
  Mo  Mo1  1  0.19056837  0.80999607  0.19005743  1
  Mo  Mo2  1  0.80937812  0.80999607  0.19005743  1
  Mo  Mo3  1  0.19089608  0.80910392  0.80910392  1
  Mo  Mo4  1  0.80937812  0.19005743  0.80999607  1
  Mo  Mo5  1  0.19056837  0.19005743  0.80999607  1
  Mo  Mo6  1  0.43970024  0.06029976  0.06029976  1
  Mo  Mo7  1  0.05943163  0.44000393  0.05994257  1
  Mo  Mo8  1  0.44062188  0.44000393  0.05994257  1
  Mo  Mo9  1  0.05910392  0.44089608  0.44089608  1
  Mo  Mo10  1  0.44062188  0.05994257  0.44000393  1
  Mo  Mo11  1  0.05943163  0.05994257  0.44000393  1
  C  C0  1  0.12500000  0.12500000  0.62500000  1
  C  C1  1  0.12500000  0.62500000  0.12500000  1
  N  N0  1  0.12500000  0.12500000  0.12500000  1
  N  N1  1  0.62500000  0.12500000  0.12500000  1
loop_
_geom_bond_atom_site_label_1
_geom_bond_atom_site_label_2
_geom_bond_distance
_geom_bond_site_symmetry_2
Zn0 Zn10 2.449149 1_555
Zn0 Zn9 2.449169 1_555
Zn0 Zn11 2.453986 1_555
Zn0 Zn1 2.695047 1_555
Zn0 Zn2 2.695051 1_555
Zn0 Zn3 2.699479 1_555
Zn1 Zn10 2.448798 1_555
Zn1 Zn11 2.453995 1_555
Zn1 Zn8 2.453996 1_555
Zn1 Zn2 2.690731 1_555
Zn1 Zn3 2.695047 1_555
Zn2 Zn9 2.448802 1_555
Zn2 Zn8 2.453987 1_555
Zn2 Zn3 2.695051 1_555
Zn3 Zn9 2.449168 1_555
Zn3 Zn8 2.453986 1_555
Zn4 Zn9 2.449169 1_555
Zn4 Zn5 2.695047 1_555
Zn4 Zn6 2.695051 1_555
Zn4 Zn7 2.699479 1_555
Zn5 Zn8 2.453996 1_556
Zn5 Zn6 2.690731 1_555
Zn5 Zn7 2.695047 1_555
Zn6 Zn9 2.448802 1_555
Zn6 Zn8 2.453987 1_556
Zn6 Zn7 2.695051 1_555
Zn7 Zn9 2.449168 1_555
Zn7 Zn8 2.453986 1_556
Zn10 Zn5 2.448798 1_455
Zn10 Zn4 2.449149 1_455
Zn10 Zn3 2.449149 1_555
Zn10 Zn7 2.449149 1_455
Zn11 Zn4 2.453986 1_545
Zn11 Zn2 2.453987 1_555
Zn11 Zn6 2.453987 1_545
Zn11 Zn5 2.453995 1_545
Mo0 N0 2.121798 1_655
Mo0 N1 2.121798 1_555
Mo0 Zn7 2.664356 1_554
Mo0 Zn4 2.664356 1_545
Mo0 Zn2 2.885482 1_555
Mo0 Zn1 2.885489 1_555
Mo0 Zn11 2.894208 1_555
Mo0 Zn8 2.894208 1_555
Mo1 N0 2.127417 1_565
Mo1 Zn4 2.658877 1_455
Mo1 Zn6 2.659085 1_554
Mo1 Zn3 2.875203 1_555
Mo1 Zn8 2.881163 1_555
Mo1 Zn1 2.882332 1_555
Mo1 Zn10 2.892028 1_555
Mo2 N1 2.127417 1_565
Mo2 Zn4 2.658890 1_555
Mo2 Zn5 2.659078 1_554
Mo2 Zn3 2.875224 1_555
Mo2 Zn8 2.881163 1_555
Mo2 Zn2 2.882339 1_555
Mo2 Zn9 2.892028 1_555
Mo3 Zn5 2.653990 1_455
Mo3 Zn6 2.654006 1_555
Mo3 Zn3 2.871699 1_555
Mo3 Zn0 2.871699 1_555
Mo3 Zn9 2.879011 1_555
Mo3 Zn10 2.879011 1_555
Mo4 N1 2.127416 1_556
Mo4 Zn7 2.658891 1_555
Mo4 Zn5 2.659078 1_545
Mo4 Zn0 2.875224 1_555
Mo4 Zn11 2.881163 1_555
Mo4 Zn2 2.882338 1_555
Mo4 Zn9 2.892028 1_555
Mo5 N0 2.127416 1_556
Mo5 Zn7 2.658877 1_455
Mo5 Zn6 2.659085 1_545
Mo5 Zn0 2.875203 1_555
Mo5 Zn11 2.881163 1_555
Mo5 Zn1 2.882332 1_555
Mo5 Zn10 2.892029 1_555
Mo6 N0 2.121798 1_555
Mo6 N1 2.121798 1_555
Mo6 Zn3 2.664356 1_545
Mo6 Zn0 2.664356 1_554
Mo6 Zn6 2.885482 1_544
Mo6 Zn5 2.885489 1_544
Mo6 Zn11 2.894208 1_554
Mo6 Zn8 2.894208 1_545
Mo7 N0 2.127417 1_555
Mo7 Zn0 2.658877 1_554
Mo7 Zn2 2.659085 1_455
Mo7 Zn7 2.875203 1_454
Mo7 Zn8 2.881163 1_455
Mo7 Zn5 2.882332 1_454
Mo7 Zn10 2.892028 1_554
Mo8 N1 2.127417 1_555
Mo8 Zn0 2.658890 1_554
Mo8 Zn1 2.659078 1_555
Mo8 Zn7 2.875224 1_554
Mo8 Zn8 2.881163 1_555
Mo8 Zn6 2.882339 1_554
Mo8 Zn9 2.892028 1_554
Mo9 Zn1 2.653990 1_555
Mo9 Zn2 2.654006 1_455
Mo9 Zn7 2.871699 1_455
Mo9 Zn4 2.871699 1_455
Mo9 Zn9 2.879011 1_455
Mo9 Zn10 2.879011 1_555
Mo10 N1 2.127416 1_555
Mo10 Zn3 2.658891 1_545
Mo10 Zn1 2.659078 1_555
Mo10 Zn4 2.875224 1_545
Mo10 Zn11 2.881163 1_555
Mo10 Zn6 2.882338 1_545
Mo10 Zn9 2.892028 1_545
Mo11 N0 2.127416 1_555
Mo11 Zn3 2.658877 1_545
Mo11 Zn2 2.659085 1_455
Mo11 Zn4 2.875203 1_445
Mo11 Zn11 2.881163 1_455
Mo11 Zn5 2.882332 1_445
Mo11 Zn10 2.892029 1_545
C0 Mo10 2.128185 1_555
C0 Mo4 2.128185 1_455
C0 Mo5 2.128185 1_555
C0 Mo11 2.128185 1_555
C0 Mo9 2.133862 1_555
C0 Mo3 2.133862 1_545
C1 Mo8 2.128186 1_555
C1 Mo2 2.128186 1_455
C1 Mo1 2.128186 1_555
C1 Mo7 2.128186 1_555
C1 Mo9 2.133862 1_555
C1 Mo3 2.133862 1_554
