# generated using pymatgen
data_NaLiHfBr6
_symmetry_space_group_name_H-M   'P 1'
_cell_length_a   6.90822538
_cell_length_b   6.90822596
_cell_length_c   6.51809313
_cell_angle_alpha   90.00000000
_cell_angle_beta   90.00000000
_cell_angle_gamma   119.99999722
_symmetry_Int_Tables_number   1
_chemical_formula_structural   NaLiHfBr6
_chemical_formula_sum   'Na1 Li1 Hf1 Br6'
_cell_volume   269.39171661
_cell_formula_units_Z   1
loop_
 _symmetry_equiv_pos_site_id
 _symmetry_equiv_pos_as_xyz
  1  'x, y, z'
loop_
 _atom_site_type_symbol
 _atom_site_label
 _atom_site_symmetry_multiplicity
 _atom_site_fract_x
 _atom_site_fract_y
 _atom_site_fract_z
 _atom_site_occupancy
  Na  Na0  1  0.33333300  0.66666700  0.50000000  1
  Li  Li0  1  0.66666700  0.33333300  0.50000000  1
  Hf  Hf0  1  0.00000000  0.00000000  0.50000000  1
  Br  Br0  1  0.70048048  0.68324868  0.73280163  1
  Br  Br1  1  0.98276820  0.29951952  0.73280163  1
  Br  Br2  1  0.31675132  0.01723180  0.73280163  1
  Br  Br3  1  0.31675132  0.29951952  0.26719837  1
  Br  Br4  1  0.98276820  0.68324868  0.26719837  1
  Br  Br5  1  0.70048048  0.01723180  0.26719837  1
loop_
_geom_bond_atom_site_label_1
_geom_bond_atom_site_label_2
_geom_bond_distance
_geom_bond_site_symmetry_2
Br0 Hf0 2.616187 1_665
Br0 Li0 2.763295 1_555
Br0 Na0 2.908292 1_555
Br1 Hf0 2.616187 1_655
Br1 Li0 2.763289 1_555
Br1 Na0 2.908290 1_655
Br2 Hf0 2.616186 1_555
Br2 Li0 2.763293 1_555
Br2 Na0 2.908287 1_545
Br3 Hf0 2.616187 1_555
Br3 Li0 2.763295 1_555
Br3 Na0 2.908292 1_555
Br4 Hf0 2.616187 1_665
Br4 Li0 2.763293 1_555
Br4 Na0 2.908286 1_655
Br5 Hf0 2.616186 1_655
Br5 Li0 2.763289 1_555
Br5 Na0 2.908290 1_545
