# generated using pymatgen
data_Ta2SnGeRu3
_symmetry_space_group_name_H-M   'P 1'
_cell_length_a   4.34198224
_cell_length_b   4.34198150
_cell_length_c   7.58138191
_cell_angle_alpha   73.35993302
_cell_angle_beta   73.35993665
_cell_angle_gamma   60.00000225
_symmetry_Int_Tables_number   1
_chemical_formula_structural   Ta2SnGeRu3
_chemical_formula_sum   'Ta2 Sn1 Ge1 Ru3'
_cell_volume   116.81866929
_cell_formula_units_Z   1
loop_
 _symmetry_equiv_pos_site_id
 _symmetry_equiv_pos_as_xyz
  1  'x, y, z'
loop_
 _atom_site_type_symbol
 _atom_site_label
 _atom_site_symmetry_multiplicity
 _atom_site_fract_x
 _atom_site_fract_y
 _atom_site_fract_z
 _atom_site_occupancy
  Ta  Ta0  1  0.24937614  0.24937614  0.25187057  1
  Ta  Ta1  1  0.75256496  0.75256496  0.74230313  1
  Sn  Sn0  1  0.50522825  0.50522825  0.48431524  1
  Ge  Ge0  1  0.99403898  0.99403898  0.01788205  1
  Ru  Ru0  1  0.62943980  0.62943980  0.11168261  1
  Ru  Ru1  1  0.12150228  0.12150228  0.63549417  1
  Ru  Ru2  1  0.37284759  0.37284759  0.88145623  1
loop_
_geom_bond_atom_site_label_1
_geom_bond_atom_site_label_2
_geom_bond_distance
_geom_bond_site_symmetry_2
Sn0 Ta0 3.008363 1_565
Sn0 Ta0 3.008364 1_655
Sn0 Ta0 3.008367 1_555
Sn0 Ta1 3.113124 1_555
Sn0 Ta1 3.113129 1_545
Sn0 Ta1 3.113130 1_455
Ge0 Ru0 2.595121 1_555
Ge0 Ru0 2.595132 1_565
Ge0 Ru0 2.595133 1_655
Ge0 Ru2 2.690181 1_664
Ge0 Ru2 2.690181 1_654
Ge0 Ru2 2.690181 1_564
Ge0 Ru1 2.735960 1_664
Ge0 Ta0 3.014485 1_655
Ge0 Ta0 3.014485 1_565
Ge0 Ta0 3.014486 1_665
Ge0 Ta1 3.189366 1_564
Ge0 Ta1 3.189366 1_654
Ge0 Ta1 3.189369 1_554
Ru0 Ta1 2.642886 1_554
Ru0 Sn0 2.666162 1_555
Ru0 Ta0 2.700061 1_565
Ru0 Ta0 2.700061 1_655
Ru0 Ta0 2.700071 1_555
Ru1 Ta1 2.620738 1_455
Ru1 Ta1 2.620738 1_545
Ru1 Ta1 2.620749 1_445
Ru1 Sn0 2.730252 1_555
Ru1 Sn0 2.730256 1_545
Ru1 Sn0 2.730256 1_455
Ru1 Ta0 2.744801 1_555
Ru2 Ta0 2.650290 1_556
Ru2 Ta1 2.697320 1_555
Ru2 Ta1 2.697324 1_545
Ru2 Ta1 2.697324 1_455
Ru2 Sn0 2.841517 1_555
