# generated using pymatgen
data_Ni2Mo3AsC
_symmetry_space_group_name_H-M   'P 1'
_cell_length_a   7.85715286
_cell_length_b   7.85715251
_cell_length_c   7.85715323
_cell_angle_alpha   60.00000109
_cell_angle_beta   60.00000256
_cell_angle_gamma   60.00000024
_symmetry_Int_Tables_number   1
_chemical_formula_structural   Ni2Mo3AsC
_chemical_formula_sum   'Ni8 Mo12 As4 C4'
_cell_volume   342.98934087
_cell_formula_units_Z   4
loop_
 _symmetry_equiv_pos_site_id
 _symmetry_equiv_pos_as_xyz
  1  'x, y, z'
loop_
 _atom_site_type_symbol
 _atom_site_label
 _atom_site_symmetry_multiplicity
 _atom_site_fract_x
 _atom_site_fract_y
 _atom_site_fract_z
 _atom_site_occupancy
  Ni  Ni0  1  0.91760036  0.91760036  0.24719791  1
  Ni  Ni1  1  0.33239964  0.33239964  0.33239964  1
  Ni  Ni2  1  0.24719791  0.91760036  0.91760036  1
  Ni  Ni3  1  0.33239964  0.00280209  0.33239964  1
  Ni  Ni4  1  0.00280209  0.33239964  0.33239964  1
  Ni  Ni5  1  0.33239964  0.33239964  0.00280209  1
  Ni  Ni6  1  0.91760036  0.91760036  0.91760036  1
  Ni  Ni7  1  0.91760036  0.24719791  0.91760036  1
  Mo  Mo0  1  0.68889448  0.31110552  0.31110552  1
  Mo  Mo1  1  0.93889448  0.93889448  0.56110552  1
  Mo  Mo2  1  0.68889448  0.68889448  0.31110552  1
  Mo  Mo3  1  0.68889448  0.31110552  0.68889448  1
  Mo  Mo4  1  0.31110552  0.68889448  0.31110552  1
  Mo  Mo5  1  0.56110552  0.93889448  0.56110552  1
  Mo  Mo6  1  0.56110552  0.93889448  0.93889448  1
  Mo  Mo7  1  0.93889448  0.56110552  0.56110552  1
  Mo  Mo8  1  0.93889448  0.56110552  0.93889448  1
  Mo  Mo9  1  0.31110552  0.31110552  0.68889448  1
  Mo  Mo10  1  0.56110552  0.56110552  0.93889448  1
  Mo  Mo11  1  0.31110552  0.68889448  0.68889448  1
  As  As0  1  0.12500000  0.12500000  0.12500000  1
  As  As1  1  0.62500000  0.12500000  0.12500000  1
  As  As2  1  0.12500000  0.12500000  0.62500000  1
  As  As3  1  0.12500000  0.62500000  0.12500000  1
  C  C0  1  0.62500000  0.62500000  0.62500000  1
  C  C1  1  0.62500000  0.62500000  0.12500000  1
  C  C2  1  0.12500000  0.62500000  0.62500000  1
  C  C3  1  0.62500000  0.12500000  0.62500000  1
loop_
_geom_bond_atom_site_label_1
_geom_bond_atom_site_label_2
_geom_bond_distance
_geom_bond_site_symmetry_2
Ni0 Ni7 2.589698 1_564
Ni0 Ni6 2.589698 1_554
Ni0 Ni2 2.589698 1_654
Ni1 Ni3 2.589698 1_555
Ni1 Ni4 2.589698 1_555
Ni1 Ni5 2.589698 1_555
Ni2 Ni7 2.589698 1_465
Ni2 Ni6 2.589698 1_455
Ni3 Ni4 2.589698 1_555
Ni3 Ni5 2.589698 1_555
Ni4 Ni5 2.589698 1_555
Ni6 Ni7 2.589698 1_565
Mo0 Ni1 2.644331 1_555
Mo0 Ni4 2.644339 1_655
Mo0 Ni0 2.852177 1_545
Mo0 Ni7 2.852178 1_554
Mo1 Ni6 2.644331 1_555
Mo1 Ni0 2.644339 1_555
Mo1 Ni4 2.852177 1_665
Mo1 Ni3 2.852177 1_665
Mo2 Ni4 2.644334 1_655
Mo2 Ni3 2.644334 1_565
Mo2 Ni0 2.852171 1_555
Mo2 Ni6 2.852174 1_554
Mo3 Ni5 2.644334 1_556
Mo3 Ni4 2.644334 1_655
Mo3 Ni7 2.852171 1_555
Mo3 Ni6 2.852174 1_545
Mo4 Ni1 2.644331 1_555
Mo4 Ni3 2.644338 1_565
Mo4 Ni0 2.852177 1_455
Mo4 Ni2 2.852177 1_554
Mo5 Ni0 2.644334 1_555
Mo5 Ni2 2.644334 1_555
Mo5 Ni3 2.852171 1_565
Mo5 Ni1 2.852174 1_565
Mo6 Ni6 2.644331 1_555
Mo6 Ni2 2.644339 1_555
Mo6 Ni5 2.852177 1_566
Mo6 Ni3 2.852178 1_566
Mo7 Ni0 2.644334 1_555
Mo7 Ni7 2.644334 1_555
Mo7 Ni4 2.852171 1_655
Mo7 Ni1 2.852174 1_655
Mo8 Ni6 2.644331 1_555
Mo8 Ni7 2.644338 1_555
Mo8 Ni5 2.852177 1_656
Mo8 Ni4 2.852177 1_656
Mo9 Ni1 2.644331 1_555
Mo9 Ni5 2.644339 1_556
Mo9 Ni2 2.852177 1_545
Mo9 Ni7 2.852177 1_455
Mo10 Ni2 2.644334 1_555
Mo10 Ni7 2.644334 1_555
Mo10 Ni5 2.852171 1_556
Mo10 Ni1 2.852174 1_556
Mo11 Ni5 2.644334 1_556
Mo11 Ni3 2.644334 1_565
Mo11 Ni2 2.852171 1_555
Mo11 Ni6 2.852174 1_455
As0 Ni5 2.399824 1_555
As0 Ni0 2.399824 1_445
As0 Ni4 2.399824 1_555
As0 Ni2 2.399824 1_544
As0 Ni3 2.399824 1_555
As0 Ni7 2.399824 1_454
As1 Ni0 2.399818 1_545
As1 Ni5 2.399818 1_555
As1 Ni7 2.399818 1_554
As1 Ni3 2.399818 1_555
As1 Ni1 2.399822 1_555
As1 Ni6 2.399822 1_544
As2 Ni2 2.399818 1_545
As2 Ni4 2.399818 1_555
As2 Ni7 2.399818 1_455
As2 Ni3 2.399818 1_555
As2 Ni1 2.399822 1_555
As2 Ni6 2.399822 1_445
As3 Ni0 2.399817 1_455
As3 Ni5 2.399817 1_555
As3 Ni2 2.399817 1_554
As3 Ni4 2.399817 1_555
As3 Ni1 2.399822 1_555
As3 Ni6 2.399822 1_454
C0 Mo5 2.088658 1_555
C0 Mo3 2.088658 1_555
C0 Mo7 2.088658 1_555
C0 Mo11 2.088658 1_555
C0 Mo10 2.088659 1_555
C0 Mo2 2.088659 1_555
C1 Mo0 2.088658 1_555
C1 Mo6 2.088658 1_554
C1 Mo2 2.088658 1_555
C1 Mo10 2.088658 1_554
C1 Mo8 2.088658 1_554
C1 Mo4 2.088658 1_555
C2 Mo1 2.088658 1_455
C2 Mo9 2.088658 1_555
C2 Mo11 2.088658 1_555
C2 Mo7 2.088658 1_455
C2 Mo8 2.088659 1_455
C2 Mo4 2.088659 1_555
C3 Mo3 2.088658 1_555
C3 Mo5 2.088658 1_545
C3 Mo1 2.088658 1_545
C3 Mo9 2.088658 1_555
C3 Mo6 2.088659 1_545
C3 Mo0 2.088659 1_555
