# generated using pymatgen
data_Rb4InMoCl12
_symmetry_space_group_name_H-M   'P 1'
_cell_length_a   7.13819270
_cell_length_b   7.13819270
_cell_length_c   10.38086538
_cell_angle_alpha   90.00000000
_cell_angle_beta   90.00000000
_cell_angle_gamma   92.54625207
_symmetry_Int_Tables_number   1
_chemical_formula_structural   Rb4InMoCl12
_chemical_formula_sum   'Rb4 In1 Mo1 Cl12'
_cell_volume   528.42225146
_cell_formula_units_Z   1
loop_
 _symmetry_equiv_pos_site_id
 _symmetry_equiv_pos_as_xyz
  1  'x, y, z'
loop_
 _atom_site_type_symbol
 _atom_site_label
 _atom_site_symmetry_multiplicity
 _atom_site_fract_x
 _atom_site_fract_y
 _atom_site_fract_z
 _atom_site_occupancy
  Rb  Rb0  1  0.50000000  0.00000000  0.78137090  1
  Rb  Rb1  1  0.00000000  0.50000000  0.21862910  1
  Rb  Rb2  1  0.50000000  0.00000000  0.21862910  1
  Rb  Rb3  1  0.00000000  0.50000000  0.78137090  1
  In  In0  1  0.00000000  0.00000000  0.00000000  1
  Mo  Mo0  1  0.50000000  0.50000000  0.50000000  1
  Cl  Cl0  1  0.00000000  0.00000000  0.75381455  1
  Cl  Cl1  1  0.50000000  0.50000000  0.27294221  1
  Cl  Cl2  1  0.73408092  0.73408092  0.50000000  1
  Cl  Cl3  1  0.25418216  0.25418216  0.00000000  1
  Cl  Cl4  1  0.72837131  0.27162869  0.50000000  1
  Cl  Cl5  1  0.24427987  0.75572013  0.00000000  1
  Cl  Cl6  1  0.00000000  0.00000000  0.24618545  1
  Cl  Cl7  1  0.50000000  0.50000000  0.72705779  1
  Cl  Cl8  1  0.26591908  0.26591908  0.50000000  1
  Cl  Cl9  1  0.74581784  0.74581784  0.00000000  1
  Cl  Cl10  1  0.27162869  0.72837131  0.50000000  1
  Cl  Cl11  1  0.75572013  0.24427987  0.00000000  1
loop_
_geom_bond_atom_site_label_1
_geom_bond_atom_site_label_2
_geom_bond_distance
_geom_bond_site_symmetry_2
Cl0 In0 2.555618 1_556
Cl0 Rb3 3.580542 1_545
Cl0 Rb3 3.580542 1_555
Cl0 Rb0 3.580542 1_455
Cl0 Rb0 3.580542 1_555
Cl1 Mo0 2.357056 1_555
Cl1 Rb2 3.613356 1_555
Cl1 Rb2 3.613356 1_565
Cl1 Rb1 3.613356 1_555
Cl1 Rb1 3.613356 1_655
Cl2 Mo0 2.309944 1_555
Cl2 Rb0 3.899790 1_565
Cl2 Rb3 3.899790 1_655
Cl2 Rb1 3.899790 1_655
Cl2 Rb2 3.899790 1_565
Cl3 In0 2.508306 1_555
Cl3 Rb1 3.435809 1_555
Cl3 Rb2 3.435809 1_555
Cl3 Rb0 3.435809 1_554
Cl3 Rb3 3.435809 1_554
Cl4 Mo0 2.356045 1_555
Cl4 Rb0 3.829825 1_555
Cl4 Rb3 3.829825 1_655
Cl4 Rb2 3.829825 1_555
Cl4 Rb1 3.829825 1_655
Cl5 In0 2.520169 1_565
Cl5 Rb1 3.352708 1_555
Cl5 Rb2 3.352708 1_565
Cl5 Rb3 3.352708 1_554
Cl5 Rb0 3.352708 1_564
Cl6 In0 2.555618 1_555
Cl6 Rb1 3.580542 1_555
Cl6 Rb1 3.580542 1_545
Cl6 Rb2 3.580542 1_455
Cl6 Rb2 3.580542 1_555
Cl7 Mo0 2.357056 1_555
Cl7 Rb0 3.613356 1_565
Cl7 Rb0 3.613356 1_555
Cl7 Rb3 3.613356 1_555
Cl7 Rb3 3.613356 1_655
Cl8 Mo0 2.309944 1_555
Cl8 Rb3 3.899790 1_555
Cl8 Rb0 3.899790 1_555
Cl8 Rb1 3.899790 1_555
Cl8 Rb2 3.899790 1_555
Cl9 In0 2.508306 1_665
Cl9 Rb2 3.435809 1_565
Cl9 Rb1 3.435809 1_655
Cl9 Rb3 3.435809 1_654
Cl9 Rb0 3.435809 1_564
Cl10 Mo0 2.356045 1_555
Cl10 Rb3 3.829825 1_555
Cl10 Rb0 3.829825 1_565
Cl10 Rb1 3.829825 1_555
Cl10 Rb2 3.829825 1_565
Cl11 In0 2.520169 1_655
Cl11 Rb2 3.352708 1_555
Cl11 Rb0 3.352708 1_554
Cl11 Rb1 3.352708 1_655
Cl11 Rb3 3.352708 1_654
