# generated using pymatgen
data_SrCaBi3
_symmetry_space_group_name_H-M   'P 1'
_cell_length_a   6.55967414
_cell_length_b   6.80541027
_cell_length_c   15.23010451
_cell_angle_alpha   90.00000000
_cell_angle_beta   90.00000000
_cell_angle_gamma   90.00000000
_symmetry_Int_Tables_number   1
_chemical_formula_structural   SrCaBi3
_chemical_formula_sum   'Sr4 Ca4 Bi12'
_cell_volume   679.89126452
_cell_formula_units_Z   4
loop_
 _symmetry_equiv_pos_site_id
 _symmetry_equiv_pos_as_xyz
  1  'x, y, z'
loop_
 _atom_site_type_symbol
 _atom_site_label
 _atom_site_symmetry_multiplicity
 _atom_site_fract_x
 _atom_site_fract_y
 _atom_site_fract_z
 _atom_site_occupancy
  Sr  Sr0  1  0.55720559  0.50000000  0.25000000  1
  Sr  Sr1  1  0.44279441  0.50000000  0.75000000  1
  Sr  Sr2  1  0.94279441  0.00000000  0.25000000  1
  Sr  Sr3  1  0.05720559  0.00000000  0.75000000  1
  Ca  Ca0  1  0.75000000  0.75000000  0.99852521  1
  Ca  Ca1  1  0.25000000  0.25000000  0.00147479  1
  Ca  Ca2  1  0.75000000  0.25000000  0.50147479  1
  Ca  Ca3  1  0.25000000  0.75000000  0.49852521  1
  Bi  Bi0  1  0.75000000  0.75000000  0.43717853  1
  Bi  Bi1  1  0.25000000  0.25000000  0.56282147  1
  Bi  Bi2  1  0.75000000  0.25000000  0.06282147  1
  Bi  Bi3  1  0.25000000  0.75000000  0.93717853  1
  Bi  Bi4  1  0.07616814  0.56324041  0.14966347  1
  Bi  Bi5  1  0.92383186  0.43675959  0.85033653  1
  Bi  Bi6  1  0.07616814  0.43675959  0.35033653  1
  Bi  Bi7  1  0.42383186  0.06324041  0.35033653  1
  Bi  Bi8  1  0.92383186  0.56324041  0.64966347  1
  Bi  Bi9  1  0.57616814  0.93675959  0.64966347  1
  Bi  Bi10  1  0.42383186  0.93675959  0.14966347  1
  Bi  Bi11  1  0.57616814  0.06324041  0.85033653  1
loop_
_geom_bond_atom_site_label_1
_geom_bond_atom_site_label_2
_geom_bond_distance
_geom_bond_site_symmetry_2
Bi0 Bi7 3.297162 1_565
Bi0 Bi6 3.297162 1_655
Bi0 Ca3 3.410319 1_555
Bi0 Ca3 3.410319 1_655
Bi0 Ca2 3.540807 1_565
Bi0 Ca2 3.540807 1_555
Bi0 Sr2 3.552570 1_565
Bi0 Sr0 3.552570 1_555
Bi1 Bi9 3.297162 1_545
Bi1 Bi8 3.297162 1_455
Bi1 Ca2 3.410319 1_455
Bi1 Ca2 3.410319 1_555
Bi1 Ca3 3.540807 1_555
Bi1 Ca3 3.540807 1_545
Bi1 Sr1 3.552570 1_555
Bi1 Sr3 3.552570 1_555
Bi2 Bi4 3.297162 1_655
Bi2 Ca1 3.410319 1_655
Bi2 Ca1 3.410319 1_555
Bi2 Ca0 3.540807 1_544
Bi2 Ca0 3.540807 1_554
Bi2 Sr2 3.552570 1_555
Bi2 Sr0 3.552570 1_555
Bi3 Bi5 3.297162 1_455
Bi3 Ca0 3.410319 1_455
Bi3 Ca0 3.410319 1_555
Bi3 Ca1 3.540807 1_556
Bi3 Ca1 3.540807 1_566
Bi3 Sr1 3.552570 1_555
Bi3 Sr3 3.552570 1_565
Bi4 Bi6 3.175168 1_555
Bi4 Ca1 3.307301 1_555
Bi4 Ca0 3.389927 1_454
Bi4 Sr2 3.454760 1_465
Bi4 Sr0 3.532320 1_555
Bi4 Sr0 3.756218 1_455
Bi5 Bi8 3.175168 1_555
Bi5 Ca0 3.307301 1_555
Bi5 Ca1 3.389927 1_656
Bi5 Sr3 3.454760 1_655
Bi5 Sr1 3.532320 1_555
Bi5 Sr1 3.756218 1_655
Bi6 Ca3 3.307301 1_555
Bi6 Ca2 3.389927 1_455
Bi6 Bi7 3.415036 1_555
Bi6 Sr2 3.454760 1_455
Bi6 Sr0 3.532320 1_555
Bi6 Sr0 3.756218 1_455
Bi7 Ca3 3.307301 1_545
Bi7 Ca2 3.389927 1_555
Bi7 Sr0 3.454760 1_555
Bi7 Sr2 3.532320 1_455
Bi7 Sr2 3.756218 1_555
Bi8 Ca2 3.307301 1_555
Bi8 Ca3 3.389927 1_655
Bi8 Bi9 3.415036 1_555
Bi8 Sr3 3.454760 1_665
Bi8 Sr1 3.532320 1_555
Bi8 Sr1 3.756218 1_655
Bi9 Ca2 3.307301 1_565
Bi9 Ca3 3.389927 1_555
Bi9 Sr1 3.454760 1_555
Bi9 Sr3 3.532320 1_665
Bi9 Sr3 3.756218 1_565
Bi10 Bi7 3.175168 1_565
Bi10 Bi2 3.297162 1_565
Bi10 Ca1 3.307301 1_565
Bi10 Ca0 3.389927 1_554
Bi10 Bi4 3.415036 1_555
Bi10 Sr0 3.454760 1_555
Bi10 Sr2 3.532320 1_465
Bi10 Sr2 3.756218 1_565
Bi11 Bi9 3.175168 1_545
Bi11 Bi3 3.297162 1_545
Bi11 Ca0 3.307301 1_545
Bi11 Ca1 3.389927 1_556
Bi11 Bi5 3.415036 1_555
Bi11 Sr1 3.454760 1_555
Bi11 Sr3 3.532320 1_655
Bi11 Sr3 3.756218 1_555
