# generated using pymatgen
data_Nb12Cr3Os9N4
_symmetry_space_group_name_H-M   'P 1'
_cell_length_a   8.23501321
_cell_length_b   8.23501306
_cell_length_c   8.35024307
_cell_angle_alpha   60.45544499
_cell_angle_beta   60.45544451
_cell_angle_gamma   59.99999699
_symmetry_Int_Tables_number   1
_chemical_formula_structural   Nb12Cr3Os9N4
_chemical_formula_sum   'Nb12 Cr3 Os9 N4'
_cell_volume   403.15156640
_cell_formula_units_Z   1
loop_
 _symmetry_equiv_pos_site_id
 _symmetry_equiv_pos_as_xyz
  1  'x, y, z'
loop_
 _atom_site_type_symbol
 _atom_site_label
 _atom_site_symmetry_multiplicity
 _atom_site_fract_x
 _atom_site_fract_y
 _atom_site_fract_z
 _atom_site_occupancy
  Nb  Nb0  1  0.80678681  0.80678681  0.19281711  1
  Nb  Nb1  1  0.19299874  0.19299874  0.80717101  1
  Nb  Nb2  1  0.80683250  0.19299874  0.80717101  1
  Nb  Nb3  1  0.19360828  0.80678681  0.19281711  1
  Nb  Nb4  1  0.19299874  0.80683250  0.80717101  1
  Nb  Nb5  1  0.80678681  0.19360828  0.19281711  1
  Nb  Nb6  1  0.44321319  0.44321319  0.05718289  1
  Nb  Nb7  1  0.05700126  0.05700126  0.44282899  1
  Nb  Nb8  1  0.44316750  0.05700126  0.44282899  1
  Nb  Nb9  1  0.05639172  0.44321319  0.05718289  1
  Nb  Nb10  1  0.05700126  0.44316750  0.44282899  1
  Nb  Nb11  1  0.44321319  0.05639172  0.05718289  1
  Cr  Cr0  1  0.12500000  0.62500000  0.62500000  1
  Cr  Cr1  1  0.62500000  0.12500000  0.62500000  1
  Cr  Cr2  1  0.62500000  0.62500000  0.62500000  1
  Os  Os0  1  0.62500000  0.62500000  0.12500000  1
  Os  Os1  1  0.74501849  0.41471991  0.42554170  1
  Os  Os2  1  0.41471991  0.74501849  0.42554170  1
  Os  Os3  1  0.41746930  0.41746930  0.74759409  1
  Os  Os4  1  0.41471991  0.41471991  0.42554170  1
  Os  Os5  1  0.50498151  0.83528009  0.82445830  1
  Os  Os6  1  0.83528009  0.50498151  0.82445830  1
  Os  Os7  1  0.83253070  0.83253070  0.50240591  1
  Os  Os8  1  0.83528009  0.83528009  0.82445830  1
  N  N0  1  0.62500000  0.12500000  0.12500000  1
  N  N1  1  0.12500000  0.62500000  0.12500000  1
  N  N2  1  0.12500000  0.12500000  0.62500000  1
  N  N3  1  0.12500000  0.12500000  0.12500000  1
loop_
_geom_bond_atom_site_label_1
_geom_bond_atom_site_label_2
_geom_bond_distance
_geom_bond_site_symmetry_2
Nb0 Os7 2.810475 1_555
Nb0 Os8 2.864035 1_554
Nb0 Os0 2.952279 1_555
Nb0 Os1 2.989860 1_555
Nb0 Os2 2.989860 1_555
Nb1 Os5 2.770815 1_545
Nb1 Os6 2.770815 1_455
Nb1 Os4 2.946196 1_555
Nb1 Os3 2.946984 1_555
Nb2 Os6 2.770810 1_555
Nb2 Os8 2.770819 1_545
Nb2 Os1 2.946199 1_555
Nb2 Os3 2.946977 1_555
Nb3 Os7 2.810480 1_455
Nb3 Os5 2.864038 1_554
Nb3 Os0 2.952286 1_555
Nb3 Os4 2.989863 1_555
Nb3 Os2 2.989867 1_555
Nb4 Os5 2.770810 1_555
Nb4 Os8 2.770819 1_455
Nb4 Os2 2.946199 1_555
Nb4 Os3 2.946977 1_555
Nb5 Os7 2.810480 1_545
Nb5 Os6 2.864038 1_554
Nb5 Os0 2.952286 1_555
Nb5 Os4 2.989863 1_555
Nb5 Os1 2.989867 1_555
Nb6 Os3 2.810475 1_554
Nb6 Os4 2.864035 1_555
Nb6 Os0 2.952279 1_555
Nb6 Os5 2.989860 1_554
Nb6 Os6 2.989860 1_554
Nb7 Os1 2.770815 1_455
Nb7 Os2 2.770815 1_545
Nb7 Os8 2.946196 1_445
Nb7 Os7 2.946984 1_445
Nb8 Os2 2.770810 1_545
Nb8 Os4 2.770819 1_555
Nb8 Os5 2.946199 1_545
Nb8 Os7 2.946977 1_545
Nb9 Os3 2.810480 1_554
Nb9 Os1 2.864038 1_455
Nb9 Os0 2.952286 1_455
Nb9 Os8 2.989863 1_454
Nb9 Os6 2.989867 1_454
Nb10 Os1 2.770810 1_455
Nb10 Os4 2.770819 1_555
Nb10 Os6 2.946199 1_455
Nb10 Os7 2.946977 1_455
Nb11 Os3 2.810480 1_554
Nb11 Os2 2.864038 1_545
Nb11 Os0 2.952286 1_545
Nb11 Os8 2.989863 1_544
Nb11 Os5 2.989867 1_544
Cr0 Os8 2.501775 1_455
Cr0 Os4 2.501775 1_555
Cr0 Os2 2.501775 1_555
Cr0 Os6 2.501775 1_455
Cr0 Os3 2.521807 1_555
Cr0 Os7 2.521807 1_455
Cr1 Os8 2.501775 1_545
Cr1 Os4 2.501775 1_555
Cr1 Os1 2.501775 1_555
Cr1 Os5 2.501775 1_545
Cr1 Os3 2.521807 1_555
Cr1 Os7 2.521807 1_545
Cr2 Os5 2.501775 1_555
Cr2 Os1 2.501775 1_555
Cr2 Os6 2.501775 1_555
Cr2 Os2 2.501775 1_555
Cr2 Os7 2.521794 1_555
Cr2 Os3 2.521794 1_555
Os0 Os2 2.592762 1_555
Os0 Os6 2.592762 1_554
Os0 Os8 2.592762 1_554
Os0 Os4 2.592762 1_555
Os0 Os1 2.592762 1_555
Os0 Os5 2.592762 1_554
Os1 Os3 2.711728 1_555
Os1 Os2 2.720013 1_555
Os1 Os4 2.720013 1_555
Os2 Os3 2.711728 1_555
Os2 Os4 2.720013 1_555
Os3 Os4 2.711736 1_555
Os5 Os7 2.711728 1_555
Os5 Os6 2.720013 1_555
Os5 Os8 2.720013 1_555
Os6 Os7 2.711728 1_555
Os6 Os8 2.720013 1_555
Os7 Os8 2.711736 1_555
N0 Nb5 2.208695 1_555
N0 Nb11 2.208695 1_555
N0 Nb6 2.208701 1_555
N0 Nb0 2.208701 1_545
N0 Nb8 2.247867 1_555
N0 Nb2 2.247867 1_554
N1 Nb3 2.208695 1_555
N1 Nb9 2.208695 1_555
N1 Nb6 2.208701 1_555
N1 Nb0 2.208701 1_455
N1 Nb10 2.247867 1_555
N1 Nb4 2.247867 1_554
N2 Nb10 2.221430 1_555
N2 Nb4 2.221430 1_545
N2 Nb8 2.221431 1_555
N2 Nb2 2.221431 1_455
N2 Nb1 2.221436 1_555
N2 Nb7 2.221436 1_555
N3 Nb9 2.208703 1_555
N3 Nb3 2.208703 1_545
N3 Nb11 2.208703 1_555
N3 Nb5 2.208703 1_455
N3 Nb7 2.247865 1_555
N3 Nb1 2.247865 1_554
