# generated using pymatgen
data_Na2Li4(ReH9)3
_symmetry_space_group_name_H-M   'P 1'
_cell_length_a   8.23181316
_cell_length_b   8.18429740
_cell_length_c   4.92452253
_cell_angle_alpha   90.00000000
_cell_angle_beta   90.00000000
_cell_angle_gamma   119.80925540
_symmetry_Int_Tables_number   1
_chemical_formula_structural   Na2Li4(ReH9)3
_chemical_formula_sum   'Na2 Li4 Re3 H27'
_cell_volume   287.87450679
_cell_formula_units_Z   1
loop_
 _symmetry_equiv_pos_site_id
 _symmetry_equiv_pos_as_xyz
  1  'x, y, z'
loop_
 _atom_site_type_symbol
 _atom_site_label
 _atom_site_symmetry_multiplicity
 _atom_site_fract_x
 _atom_site_fract_y
 _atom_site_fract_z
 _atom_site_occupancy
  Na  Na0  1  0.38502225  0.38607555  0.00000000  1
  Na  Na1  1  0.61497775  0.00105430  0.00000000  1
  Li  Li0  1  0.00000000  0.28701597  0.50000000  1
  Li  Li1  1  0.72301863  0.72409452  0.50000000  1
  Li  Li2  1  0.27698137  0.00107589  0.50000000  1
  Li  Li3  1  0.00000000  0.61549773  0.00000000  1
  Re  Re0  1  0.67075243  0.33962320  0.50000000  1
  Re  Re1  1  0.32924757  0.66887077  0.50000000  1
  Re  Re2  1  0.00000000  0.98771339  0.00000000  1
  H  H0  1  0.82345368  0.35958991  0.74811381  1
  H  H1  1  0.65516043  0.47724512  0.74225220  1
  H  H2  1  0.53200485  0.18652430  0.74258833  1
  H  H3  1  0.17654632  0.53613923  0.25188619  1
  H  H4  1  0.53200485  0.18652430  0.25741167  1
  H  H5  1  0.82345368  0.35958991  0.25188619  1
  H  H6  1  0.65516043  0.47724512  0.25774780  1
  H  H7  1  0.34483957  0.82208668  0.74225220  1
  H  H8  1  0.46799515  0.65452145  0.74258833  1
  H  H9  1  0.20396407  0.99082521  0.00000000  1
  H  H10  1  0.79603593  0.78686014  0.00000000  1
  H  H11  1  0.00000000  0.19274761  0.00000000  1
  H  H12  1  0.85789743  0.98881531  0.24913113  1
  H  H13  1  0.14210257  0.13091789  0.75086887  1
  H  H14  1  0.00000000  0.83854083  0.76058764  1
  H  H15  1  0.00000000  0.83854083  0.23941236  1
  H  H16  1  0.14210257  0.13091789  0.24913113  1
  H  H17  1  0.85789743  0.98881531  0.75086887  1
  H  H18  1  0.14253670  0.69590927  0.50000000  1
  H  H19  1  0.54059791  0.85879022  0.50000000  1
  H  H20  1  0.30109381  0.45230885  0.50000000  1
  H  H21  1  0.45940209  0.31819132  0.50000000  1
  H  H22  1  0.85746330  0.55337157  0.50000000  1
  H  H23  1  0.69890619  0.15121304  0.50000000  1
  H  H24  1  0.17654632  0.53613923  0.74811381  1
  H  H25  1  0.34483957  0.82208668  0.25774780  1
  H  H26  1  0.46799515  0.65452145  0.25741167  1
loop_
_geom_bond_atom_site_label_1
_geom_bond_atom_site_label_2
_geom_bond_distance
_geom_bond_site_symmetry_2
H0 Re0 1.701601 1_555
H0 Li0 2.194537 1_655
H0 Li3 2.238543 1_656
H1 Re0 1.688798 1_555
H1 Li1 2.166744 1_555
H1 Na0 2.337332 1_556
H2 Re0 1.696706 1_555
H2 Li2 2.229345 1_555
H2 Na1 2.325584 1_556
H3 Re1 1.701594 1_555
H3 Li0 2.194551 1_555
H3 Li3 2.238529 1_555
H4 Re0 1.696706 1_555
H4 Li2 2.229345 1_555
H4 Na1 2.325584 1_555
H5 Re0 1.701601 1_555
H5 Li0 2.194537 1_655
H5 Li3 2.238543 1_655
H6 Re0 1.688798 1_555
H6 Li1 2.166744 1_555
H6 Na0 2.337332 1_555
H7 Re1 1.688809 1_555
H7 Li2 2.166731 1_565
H7 Na1 2.337331 1_566
H8 Re1 1.696699 1_555
H8 Li1 2.229348 1_555
H8 Na0 2.325603 1_556
H9 Re2 1.666480 1_555
H10 Re2 1.666484 1_655
H11 Re2 1.678061 1_545
H12 Re2 1.698257 1_655
H12 Li1 2.249737 1_555
H12 Na1 2.390193 1_565
H13 Re2 1.698257 1_546
H13 Li2 2.249737 1_555
H13 Na0 2.390189 1_556
H14 Re2 1.697219 1_556
H14 Li3 2.173084 1_556
H14 Li2 2.366319 1_565
H14 Li1 2.366319 1_455
H15 Re2 1.697219 1_555
H15 Li3 2.173084 1_555
H15 Li2 2.366319 1_565
H15 Li1 2.366319 1_455
H16 Re2 1.698257 1_545
H16 Li2 2.249737 1_555
H16 Na0 2.390189 1_555
H17 Re2 1.698257 1_656
H17 Li1 2.249737 1_555
H17 Na1 2.390193 1_566
H18 Re1 1.658131 1_555
H18 Li2 2.171300 1_565
H19 Re1 1.659597 1_555
H19 Li1 2.261875 1_555
H20 Re1 1.669354 1_555
H20 Li0 2.153983 1_555
H21 Re0 1.659594 1_555
H21 Li2 2.261868 1_555
H22 Re0 1.658126 1_555
H22 Li1 2.171308 1_555
H23 Re0 1.669370 1_555
H23 Li0 2.153982 1_655
H24 Re1 1.701594 1_555
H24 Li0 2.194551 1_555
H24 Li3 2.238529 1_556
H25 Re1 1.688809 1_555
H25 Li2 2.166731 1_565
H25 Na1 2.337331 1_565
H26 Re1 1.696699 1_555
H26 Li1 2.229348 1_555
H26 Na0 2.325603 1_555
