# generated using pymatgen
data_Mn6Al31Ni2
_symmetry_space_group_name_H-M   'P 1'
_cell_length_a   12.53474095
_cell_length_b   12.53474095
_cell_length_c   12.38853900
_cell_angle_alpha   90.00000000
_cell_angle_beta   90.00000000
_cell_angle_gamma   143.92274619
_symmetry_Int_Tables_number   1
_chemical_formula_structural   Mn6Al31Ni2
_chemical_formula_sum   'Mn12 Al62 Ni4'
_cell_volume   1146.23676845
_cell_formula_units_Z   2
loop_
 _symmetry_equiv_pos_site_id
 _symmetry_equiv_pos_as_xyz
  1  'x, y, z'
loop_
 _atom_site_type_symbol
 _atom_site_label
 _atom_site_symmetry_multiplicity
 _atom_site_fract_x
 _atom_site_fract_y
 _atom_site_fract_z
 _atom_site_occupancy
  Mn  Mn0  1  0.54088200  0.45911800  0.25000000  1
  Mn  Mn1  1  0.45911800  0.54088200  0.75000000  1
  Mn  Mn2  1  0.91811900  0.08188100  0.25000000  1
  Mn  Mn3  1  0.08188100  0.91811900  0.75000000  1
  Mn  Mn4  1  0.35838400  0.64161600  0.44765900  1
  Mn  Mn5  1  0.64161600  0.35838400  0.55234100  1
  Mn  Mn6  1  0.64161600  0.35838400  0.94765900  1
  Mn  Mn7  1  0.35838400  0.64161600  0.05234100  1
  Mn  Mn8  1  0.08762400  0.91237600  0.42185700  1
  Mn  Mn9  1  0.91237600  0.08762400  0.57814300  1
  Mn  Mn10  1  0.91237600  0.08762400  0.92185700  1
  Mn  Mn11  1  0.08762400  0.91237600  0.07814300  1
  Al  Al0  1  0.81165600  0.18834400  0.25000000  1
  Al  Al1  1  0.18834400  0.81165600  0.75000000  1
  Al  Al2  1  0.19686900  0.80313100  0.25000000  1
  Al  Al3  1  0.80313100  0.19686900  0.75000000  1
  Al  Al4  1  0.36440300  0.63559700  0.25000000  1
  Al  Al5  1  0.63559700  0.36440300  0.75000000  1
  Al  Al6  1  0.36234000  0.63766000  0.64995800  1
  Al  Al7  1  0.63766000  0.36234000  0.35004200  1
  Al  Al8  1  0.63766000  0.36234000  0.14995800  1
  Al  Al9  1  0.36234000  0.63766000  0.85004200  1
  Al  Al10  1  0.25941600  0.74058400  0.56162700  1
  Al  Al11  1  0.74058400  0.25941600  0.43837300  1
  Al  Al12  1  0.74058400  0.25941600  0.06162700  1
  Al  Al13  1  0.25941600  0.74058400  0.93837300  1
  Al  Al14  1  0.46011300  0.53988700  0.38658100  1
  Al  Al15  1  0.53988700  0.46011300  0.61341900  1
  Al  Al16  1  0.53988700  0.46011300  0.88658100  1
  Al  Al17  1  0.46011300  0.53988700  0.11341900  1
  Al  Al18  1  0.01810000  0.98190000  0.59224900  1
  Al  Al19  1  0.98190000  0.01810000  0.40775100  1
  Al  Al20  1  0.98190000  0.01810000  0.09224900  1
  Al  Al21  1  0.01810000  0.98190000  0.90775100  1
  Al  Al22  1  0.75078600  0.78084500  0.25000000  1
  Al  Al23  1  0.78084500  0.75078600  0.75000000  1
  Al  Al24  1  0.24921400  0.21915500  0.75000000  1
  Al  Al25  1  0.21915500  0.24921400  0.25000000  1
  Al  Al26  1  0.91108600  0.71162300  0.25000000  1
  Al  Al27  1  0.71162300  0.91108600  0.75000000  1
  Al  Al28  1  0.08891400  0.28837700  0.75000000  1
  Al  Al29  1  0.28837700  0.08891400  0.25000000  1
  Al  Al30  1  0.25592000  0.36334500  0.56830000  1
  Al  Al31  1  0.36334500  0.25592000  0.43170000  1
  Al  Al32  1  0.74408000  0.63665500  0.06830000  1
  Al  Al33  1  0.63665500  0.74408000  0.93170000  1
  Al  Al34  1  0.74408000  0.63665500  0.43170000  1
  Al  Al35  1  0.63665500  0.74408000  0.56830000  1
  Al  Al36  1  0.25592000  0.36334500  0.93170000  1
  Al  Al37  1  0.36334500  0.25592000  0.06830000  1
  Al  Al38  1  0.97820100  0.63501500  0.43281700  1
  Al  Al39  1  0.63501500  0.97820100  0.56718300  1
  Al  Al40  1  0.02179900  0.36498500  0.93281700  1
  Al  Al41  1  0.36498500  0.02179900  0.06718300  1
  Al  Al42  1  0.02179900  0.36498500  0.56718300  1
  Al  Al43  1  0.36498500  0.02179900  0.43281700  1
  Al  Al44  1  0.97820100  0.63501500  0.06718300  1
  Al  Al45  1  0.63501500  0.97820100  0.93281700  1
  Al  Al46  1  0.09804000  0.53450800  0.37440000  1
  Al  Al47  1  0.53450800  0.09804000  0.62560000  1
  Al  Al48  1  0.90196000  0.46549200  0.87440000  1
  Al  Al49  1  0.46549200  0.90196000  0.12560000  1
  Al  Al50  1  0.90196000  0.46549200  0.62560000  1
  Al  Al51  1  0.46549200  0.90196000  0.37440000  1
  Al  Al52  1  0.09804000  0.53450800  0.12560000  1
  Al  Al53  1  0.53450800  0.09804000  0.87440000  1
  Al  Al54  1  0.92026900  0.69830300  0.60656700  1
  Al  Al55  1  0.69830300  0.92026900  0.39343300  1
  Al  Al56  1  0.07973100  0.30169700  0.10656700  1
  Al  Al57  1  0.30169700  0.07973100  0.89343300  1
  Al  Al58  1  0.07973100  0.30169700  0.39343300  1
  Al  Al59  1  0.30169700  0.07973100  0.60656700  1
  Al  Al60  1  0.92026900  0.69830300  0.89343300  1
  Al  Al61  1  0.69830300  0.92026900  0.10656700  1
  Ni  Ni0  1  0.53094000  0.10165500  0.25000000  1
  Ni  Ni1  1  0.10165500  0.53094000  0.75000000  1
  Ni  Ni2  1  0.46906000  0.89834500  0.75000000  1
  Ni  Ni3  1  0.89834500  0.46906000  0.25000000  1
loop_
_geom_bond_atom_site_label_1
_geom_bond_atom_site_label_2
_geom_bond_distance
_geom_bond_site_symmetry_2
Al0 Mn2 2.537787 1_555
Al0 Ni0 2.716895 1_555
Al0 Ni3 2.716895 1_555
Al0 Al11 2.883779 1_555
Al0 Al12 2.883779 1_555
Al0 Al55 2.958036 1_545
Al0 Al61 2.958036 1_545
Al0 Al58 2.958036 1_655
Al0 Al56 2.958036 1_655
Al0 Al49 2.985109 1_545
Al0 Al51 2.985109 1_545
Al0 Al52 2.985109 1_655
Al0 Al46 2.985109 1_655
Al1 Mn3 2.537787 1_555
Al1 Ni1 2.716895 1_555
Al1 Ni2 2.716895 1_555
Al1 Al10 2.883779 1_555
Al1 Al13 2.883779 1_555
Al1 Al60 2.958036 1_455
Al1 Al54 2.958036 1_455
Al1 Al57 2.958036 1_565
Al1 Al59 2.958036 1_565
Al1 Al50 2.985109 1_455
Al1 Al48 2.985109 1_455
Al1 Al47 2.985109 1_565
Al1 Al53 2.985109 1_565
Al2 Ni3 2.491691 1_455
Al2 Ni0 2.491691 1_565
Al2 Al29 2.739729 1_565
Al2 Al26 2.739729 1_455
Al2 Al38 2.783233 1_455
Al2 Al43 2.783233 1_565
Al2 Al44 2.783233 1_455
Al2 Al41 2.783233 1_565
Al2 Al49 2.916286 1_555
Al2 Al51 2.916286 1_555
Al2 Al52 2.916286 1_555
Al2 Al46 2.916286 1_555
Al3 Ni2 2.491691 1_545
Al3 Ni1 2.491691 1_655
Al3 Al45 2.783233 1_545
Al3 Al39 2.783233 1_545
Al3 Al40 2.783233 1_655
Al3 Al42 2.783233 1_655
Al3 Al50 2.916286 1_555
Al3 Al48 2.916286 1_555
Al3 Al47 2.916286 1_555
Al3 Al53 2.916286 1_555
Al4 Mn4 2.452906 1_555
Al4 Mn7 2.452906 1_555
Al4 Al52 2.879163 1_555
Al4 Al46 2.879163 1_555
Al4 Al49 2.879163 1_555
Al4 Al51 2.879163 1_555
Al4 Al58 3.044078 1_555
Al4 Al56 3.044078 1_555
Al4 Al55 3.044078 1_555
Al4 Al61 3.044078 1_555
Al5 Mn6 2.452906 1_555
Al5 Mn5 2.452906 1_555
Al5 Al53 2.879163 1_555
Al5 Al50 2.879163 1_555
Al5 Al57 3.044078 1_555
Al5 Al60 3.044078 1_555
Al5 Al59 3.044078 1_555
Al5 Al54 3.044078 1_555
Al6 Al9 2.478748 1_555
Al6 Mn4 2.507963 1_555
Al6 Mn1 2.618767 1_555
Al6 Ni2 2.633849 1_555
Al6 Ni1 2.633849 1_555
Al7 Al8 2.478748 1_555
Al7 Mn5 2.507963 1_555
Al7 Mn0 2.618767 1_555
Al7 Ni3 2.633849 1_555
Al7 Ni0 2.633849 1_555
Al8 Mn6 2.507963 1_554
Al8 Mn0 2.618767 1_555
Al8 Ni3 2.633849 1_555
Al8 Ni0 2.633849 1_555
Al9 Mn7 2.507963 1_556
Al9 Mn1 2.618767 1_555
Al9 Ni2 2.633849 1_555
Al9 Ni1 2.633849 1_555
Al10 Al6 2.686406 1_555
Al10 Mn4 2.749351 1_555
Al10 Al50 2.760418 1_455
Al10 Al47 2.760418 1_565
Al10 Al51 2.774525 1_555
Al10 Al46 2.774525 1_555
Al10 Ni1 2.803940 1_555
Al10 Ni2 2.803940 1_555
Al10 Al39 2.893890 1_555
Al10 Al42 2.893890 1_555
Al10 Al43 3.030337 1_565
Al10 Al38 3.030337 1_455
Al11 Al7 2.686406 1_555
Al11 Mn5 2.749351 1_555
Al11 Al51 2.760418 1_545
Al11 Al46 2.760418 1_655
Al11 Al50 2.774525 1_555
Al11 Al47 2.774525 1_555
Al11 Ni0 2.803940 1_555
Al11 Ni3 2.803940 1_555
Al11 Al43 2.893890 1_555
Al11 Al38 2.893890 1_555
Al11 Al42 3.030337 1_655
Al11 Al39 3.030337 1_545
Al12 Al8 2.686406 1_555
Al12 Mn6 2.749351 1_554
Al12 Al49 2.760418 1_545
Al12 Al52 2.760418 1_655
Al12 Al48 2.774525 1_554
Al12 Al53 2.774525 1_554
Al12 Ni0 2.803940 1_555
Al12 Ni3 2.803940 1_555
Al12 Al41 2.893890 1_555
Al12 Al44 2.893890 1_555
Al12 Al40 3.030337 1_654
Al12 Al45 3.030337 1_544
Al13 Al9 2.686406 1_555
Al13 Mn7 2.749351 1_556
Al13 Al48 2.760418 1_455
Al13 Al53 2.760418 1_565
Al13 Al49 2.774525 1_556
Al13 Al52 2.774525 1_556
Al13 Ni1 2.803940 1_555
Al13 Ni2 2.803940 1_555
Al13 Al40 2.893890 1_555
Al13 Al45 2.893890 1_555
Al13 Al41 3.030337 1_566
Al13 Al44 3.030337 1_456
Al14 Mn4 2.540253 1_555
Al14 Mn0 2.563167 1_555
Al14 Al30 2.713043 1_555
Al14 Al35 2.713043 1_555
Al14 Al22 2.733532 1_555
Al14 Al25 2.733532 1_555
Al14 Al31 2.733941 1_555
Al14 Al34 2.733941 1_555
Al14 Al4 2.840436 1_555
Al14 Al55 2.940072 1_555
Al14 Al58 2.940072 1_555
Al15 Mn5 2.540253 1_555
Al15 Mn1 2.563167 1_555
Al15 Al31 2.713043 1_555
Al15 Al34 2.713043 1_555
Al15 Al23 2.733532 1_555
Al15 Al24 2.733532 1_555
Al15 Al30 2.733941 1_555
Al15 Al35 2.733941 1_555
Al15 Al5 2.840436 1_555
Al15 Al59 2.940072 1_555
Al15 Al54 2.940072 1_555
Al16 Mn6 2.540253 1_555
Al16 Mn1 2.563167 1_555
Al16 Al37 2.713043 1_556
Al16 Al32 2.713043 1_556
Al16 Al24 2.733532 1_555
Al16 Al23 2.733532 1_555
Al16 Al36 2.733941 1_555
Al16 Al33 2.733941 1_555
Al16 Al5 2.840436 1_555
Al16 Al57 2.940072 1_555
Al16 Al60 2.940072 1_555
Al17 Mn7 2.540253 1_555
Al17 Mn0 2.563167 1_555
Al17 Al36 2.713043 1_554
Al17 Al33 2.713043 1_554
Al17 Al22 2.733532 1_555
Al17 Al25 2.733532 1_555
Al17 Al37 2.733941 1_555
Al17 Al32 2.733941 1_555
Al17 Al4 2.840436 1_555
Al17 Al61 2.940072 1_555
Al17 Al56 2.940072 1_555
Al18 Al19 2.443124 1_465
Al18 Mn3 2.476048 1_555
Al18 Mn9 2.526223 1_465
Al18 Al54 2.669363 1_455
Al18 Al59 2.669363 1_565
Al18 Al24 2.670143 1_565
Al18 Al23 2.670143 1_455
Al18 Mn8 2.683738 1_555
Al18 Al30 2.965796 1_565
Al18 Al35 2.965796 1_455
Al19 Mn2 2.476048 1_555
Al19 Mn8 2.526223 1_645
Al19 Al55 2.669363 1_545
Al19 Al58 2.669363 1_655
Al19 Al25 2.670143 1_655
Al19 Al22 2.670143 1_545
Al19 Mn9 2.683738 1_555
Al19 Al31 2.965796 1_655
Al19 Al34 2.965796 1_545
Al20 Al21 2.443124 1_644
Al20 Mn2 2.476048 1_555
Al20 Mn11 2.526223 1_645
Al20 Al56 2.669363 1_655
Al20 Al61 2.669363 1_545
Al20 Al25 2.670143 1_655
Al20 Al22 2.670143 1_545
Al20 Mn10 2.683738 1_554
Al20 Al37 2.965796 1_655
Al20 Al32 2.965796 1_545
Al21 Mn3 2.476048 1_555
Al21 Mn10 2.526223 1_465
Al21 Al60 2.669363 1_455
Al21 Al57 2.669363 1_565
Al21 Al24 2.670143 1_565
Al21 Al23 2.670143 1_455
Al21 Mn11 2.683738 1_556
Al21 Al36 2.965796 1_565
Al21 Al33 2.965796 1_455
Al22 Mn2 2.417525 1_565
Al22 Mn0 2.456501 1_555
Al22 Al26 2.758336 1_555
Al22 Al34 2.845192 1_555
Al22 Al32 2.845192 1_555
Al22 Al55 2.915981 1_555
Al22 Al61 2.915981 1_555
Al23 Mn3 2.417525 1_655
Al23 Mn1 2.456501 1_555
Al23 Al27 2.758336 1_555
Al23 Al35 2.845192 1_555
Al23 Al33 2.845192 1_555
Al23 Al60 2.915981 1_555
Al23 Al54 2.915981 1_555
Al24 Mn3 2.417525 1_545
Al24 Mn1 2.456501 1_555
Al24 Al28 2.758336 1_555
Al24 Al30 2.845192 1_555
Al24 Al36 2.845192 1_555
Al24 Al57 2.915981 1_555
Al24 Al59 2.915981 1_555
Al25 Mn2 2.417525 1_455
Al25 Mn0 2.456501 1_555
Al25 Al29 2.758336 1_555
Al25 Al37 2.845192 1_555
Al25 Al31 2.845192 1_555
Al25 Al56 2.915981 1_555
Al25 Al58 2.915981 1_555
Al26 Mn8 2.600152 1_655
Al26 Mn11 2.600152 1_655
Al26 Al32 2.674408 1_555
Al26 Al34 2.674408 1_555
Al26 Mn0 2.794627 1_555
Al26 Al38 2.839920 1_555
Al26 Al44 2.839920 1_555
Al26 Al7 2.862783 1_555
Al26 Al8 2.862783 1_555
Al26 Ni3 2.912905 1_555
Al26 Al29 2.928898 1_665
Al27 Mn10 2.600152 1_565
Al27 Mn9 2.600152 1_565
Al27 Al35 2.674408 1_555
Al27 Al33 2.674408 1_555
Al27 Al3 2.739729 1_565
Al27 Mn1 2.794627 1_555
Al27 Al39 2.839920 1_555
Al27 Al45 2.839920 1_555
Al27 Al9 2.862783 1_555
Al27 Al6 2.862783 1_555
Al27 Ni2 2.912905 1_555
Al27 Al28 2.928898 1_665
Al28 Mn10 2.600152 1_455
Al28 Mn9 2.600152 1_455
Al28 Al30 2.674408 1_555
Al28 Al36 2.674408 1_555
Al28 Al3 2.739729 1_455
Al28 Mn1 2.794627 1_555
Al28 Al40 2.839920 1_555
Al28 Al42 2.839920 1_555
Al28 Al9 2.862783 1_555
Al28 Al6 2.862783 1_555
Al28 Ni1 2.912905 1_555
Al29 Mn8 2.600152 1_545
Al29 Mn11 2.600152 1_545
Al29 Al37 2.674408 1_555
Al29 Al31 2.674408 1_555
Al29 Mn0 2.794627 1_555
Al29 Al43 2.839920 1_555
Al29 Al41 2.839920 1_555
Al29 Al7 2.862783 1_555
Al29 Al8 2.862783 1_555
Al29 Ni0 2.912905 1_555
Al30 Mn9 2.538883 1_455
Al30 Al6 2.685450 1_555
Al30 Mn1 2.710069 1_555
Al30 Al58 2.721944 1_555
Al30 Al42 2.951318 1_555
Al30 Al35 2.955634 1_555
Al30 Mn4 2.967875 1_555
Al30 Al31 3.069376 1_555
Al31 Mn8 2.538883 1_545
Al31 Al7 2.685450 1_555
Al31 Mn0 2.710069 1_555
Al31 Al59 2.721944 1_555
Al31 Al43 2.951318 1_555
Al31 Al34 2.955634 1_555
Al31 Mn5 2.967875 1_555
Al32 Mn11 2.538883 1_655
Al32 Al8 2.685450 1_555
Al32 Mn0 2.710069 1_555
Al32 Al60 2.721944 1_554
Al32 Al44 2.951318 1_555
Al32 Al37 2.955634 1_555
Al32 Mn6 2.967875 1_554
Al32 Al33 3.069376 1_554
Al33 Mn10 2.538883 1_565
Al33 Al9 2.685450 1_555
Al33 Mn1 2.710069 1_555
Al33 Al61 2.721944 1_556
Al33 Al45 2.951318 1_555
Al33 Al36 2.955634 1_555
Al33 Mn7 2.967875 1_556
Al34 Mn8 2.538883 1_655
Al34 Al7 2.685450 1_555
Al34 Mn0 2.710069 1_555
Al34 Al54 2.721944 1_555
Al34 Al38 2.951318 1_555
Al34 Mn5 2.967875 1_555
Al34 Al35 3.069376 1_555
Al35 Mn9 2.538883 1_565
Al35 Al6 2.685450 1_555
Al35 Mn1 2.710069 1_555
Al35 Al55 2.721944 1_555
Al35 Al39 2.951318 1_555
Al35 Mn4 2.967875 1_555
Al36 Mn10 2.538883 1_455
Al36 Al9 2.685450 1_555
Al36 Mn1 2.710069 1_555
Al36 Al56 2.721944 1_556
Al36 Al40 2.951318 1_555
Al36 Mn7 2.967875 1_556
Al36 Al37 3.069376 1_556
Al37 Mn11 2.538883 1_545
Al37 Al8 2.685450 1_555
Al37 Mn0 2.710069 1_555
Al37 Al57 2.721944 1_554
Al37 Al41 2.951318 1_555
Al37 Mn6 2.967875 1_554
Al38 Mn8 2.505732 1_655
Al38 Al54 2.592509 1_555
Al38 Ni3 2.663242 1_555
Al38 Al7 2.714984 1_555
Al38 Al46 2.725146 1_655
Al38 Al50 2.801793 1_555
Al38 Mn5 2.892829 1_555
Al38 Al43 3.002592 1_665
Al39 Mn9 2.505732 1_565
Al39 Al55 2.592509 1_555
Al39 Ni2 2.663242 1_555
Al39 Al6 2.714984 1_555
Al39 Al47 2.725146 1_565
Al39 Al51 2.801793 1_555
Al39 Mn4 2.892829 1_555
Al39 Al42 3.002592 1_665
Al40 Mn10 2.505732 1_455
Al40 Al56 2.592509 1_556
Al40 Ni1 2.663242 1_555
Al40 Al9 2.714984 1_555
Al40 Al48 2.725146 1_455
Al40 Al52 2.801793 1_556
Al40 Mn7 2.892829 1_556
Al40 Al45 3.002592 1_445
Al41 Mn11 2.505732 1_545
Al41 Al57 2.592509 1_554
Al41 Ni0 2.663242 1_555
Al41 Al8 2.714984 1_555
Al41 Al49 2.725146 1_545
Al41 Al53 2.801793 1_554
Al41 Mn6 2.892829 1_554
Al41 Al44 3.002592 1_445
Al42 Mn9 2.505732 1_455
Al42 Al58 2.592509 1_555
Al42 Ni1 2.663242 1_555
Al42 Al6 2.714984 1_555
Al42 Al50 2.725146 1_455
Al42 Al46 2.801793 1_555
Al42 Mn4 2.892829 1_555
Al43 Mn8 2.505732 1_545
Al43 Al59 2.592509 1_555
Al43 Ni0 2.663242 1_555
Al43 Al7 2.714984 1_555
Al43 Al51 2.725146 1_545
Al43 Al47 2.801793 1_555
Al43 Mn5 2.892829 1_555
Al44 Mn11 2.505732 1_655
Al44 Al60 2.592509 1_554
Al44 Ni3 2.663242 1_555
Al44 Al8 2.714984 1_555
Al44 Al52 2.725146 1_655
Al44 Al48 2.801793 1_554
Al44 Mn6 2.892829 1_554
Al45 Mn10 2.505732 1_565
Al45 Al61 2.592509 1_556
Al45 Ni2 2.663242 1_555
Al45 Al9 2.714984 1_555
Al45 Al53 2.725146 1_565
Al45 Al49 2.801793 1_556
Al45 Mn7 2.892829 1_556
Al46 Ni3 2.448341 1_455
Al46 Mn4 2.488676 1_555
Al46 Al58 2.746220 1_555
Al46 Al51 2.852518 1_555
Al46 Al52 3.082269 1_555
Al47 Ni2 2.448341 1_545
Al47 Mn5 2.488676 1_555
Al47 Al59 2.746220 1_555
Al47 Al50 2.852518 1_555
Al47 Al5 2.879163 1_555
Al47 Al53 3.082269 1_555
Al48 Ni1 2.448341 1_655
Al48 Mn6 2.488676 1_555
Al48 Al60 2.746220 1_555
Al48 Al53 2.852518 1_555
Al48 Al5 2.879163 1_555
Al48 Al50 3.082269 1_555
Al49 Ni0 2.448341 1_565
Al49 Mn7 2.488676 1_555
Al49 Al61 2.746220 1_555
Al49 Al52 2.852518 1_555
Al49 Al51 3.082269 1_555
Al50 Ni1 2.448341 1_655
Al50 Mn5 2.488676 1_555
Al50 Al54 2.746220 1_555
Al51 Ni0 2.448341 1_565
Al51 Mn4 2.488676 1_555
Al51 Al55 2.746220 1_555
Al52 Ni3 2.448341 1_455
Al52 Mn7 2.488676 1_555
Al52 Al56 2.746220 1_555
Al53 Ni2 2.448341 1_545
Al53 Mn6 2.488676 1_555
Al53 Al57 2.746220 1_555
Al54 Mn3 2.414664 1_655
Al54 Mn5 2.597919 1_555
Al54 Mn8 2.781762 1_655
Al54 Al59 2.961013 1_665
Al55 Mn2 2.414664 1_565
Al55 Mn4 2.597919 1_555
Al55 Mn9 2.781762 1_565
Al55 Al58 2.961013 1_665
Al56 Mn2 2.414664 1_455
Al56 Mn7 2.597919 1_555
Al56 Mn10 2.781762 1_454
Al56 Al61 2.961013 1_445
Al57 Mn3 2.414664 1_545
Al57 Mn6 2.597919 1_555
Al57 Mn11 2.781762 1_546
Al57 Al60 2.961013 1_445
Al58 Mn2 2.414664 1_455
Al58 Mn4 2.597919 1_555
Al58 Mn9 2.781762 1_455
Al59 Mn3 2.414664 1_545
Al59 Mn5 2.597919 1_555
Al59 Mn8 2.781762 1_545
Al60 Mn3 2.414664 1_655
Al60 Mn6 2.597919 1_555
Al60 Mn11 2.781762 1_656
Al61 Mn2 2.414664 1_565
Al61 Mn7 2.597919 1_555
Al61 Mn10 2.781762 1_564
Ni0 Ni3 2.852153 1_555
Ni1 Ni2 2.852153 1_555
