# generated using pymatgen
data_K4Ba2GeAs4
_symmetry_space_group_name_H-M   'P 1'
_cell_length_a   10.36983035
_cell_length_b   10.36982933
_cell_length_c   8.00920248
_cell_angle_alpha   89.09877118
_cell_angle_beta   89.09876827
_cell_angle_gamma   119.55682427
_symmetry_Int_Tables_number   1
_chemical_formula_structural   K4Ba2GeAs4
_chemical_formula_sum   'K8 Ba4 Ge2 As8'
_cell_volume   748.81269118
_cell_formula_units_Z   2
loop_
 _symmetry_equiv_pos_site_id
 _symmetry_equiv_pos_as_xyz
  1  'x, y, z'
loop_
 _atom_site_type_symbol
 _atom_site_label
 _atom_site_symmetry_multiplicity
 _atom_site_fract_x
 _atom_site_fract_y
 _atom_site_fract_z
 _atom_site_occupancy
  K  K0  1  0.04729482  0.52279379  0.61432067  1
  K  K1  1  0.52279379  0.04729482  0.11432067  1
  K  K2  1  0.27561191  0.13511652  0.81981650  1
  K  K3  1  0.86837578  0.72069382  0.77810572  1
  K  K4  1  0.86001872  0.15044794  0.79983299  1
  K  K5  1  0.72069382  0.86837578  0.27810572  1
  K  K6  1  0.13511652  0.27561191  0.31981650  1
  K  K7  1  0.15044794  0.86001872  0.29983299  1
  Ba  Ba0  1  0.47352419  0.95118969  0.61449820  1
  Ba  Ba1  1  0.47093284  0.52075064  0.61667358  1
  Ba  Ba2  1  0.95118969  0.47352419  0.11449820  1
  Ba  Ba3  1  0.52075064  0.47093284  0.11667358  1
  Ge  Ge0  1  0.66920341  0.33711057  0.50158488  1
  Ge  Ge1  1  0.33711057  0.66920341  0.00158488  1
  As  As0  1  0.66287750  0.34106755  0.81670664  1
  As  As1  1  0.34106755  0.66287750  0.31670664  1
  As  As2  1  0.59986711  0.79532035  0.88799420  1
  As  As3  1  0.20222169  0.40044975  0.91513093  1
  As  As4  1  0.20019543  0.79493399  0.90408372  1
  As  As5  1  0.40044975  0.20222169  0.41513093  1
  As  As6  1  0.79532035  0.59986711  0.38799420  1
  As  As7  1  0.79493399  0.20019543  0.40408372  1
loop_
_geom_bond_atom_site_label_1
_geom_bond_atom_site_label_2
_geom_bond_distance
_geom_bond_site_symmetry_2
Ba1 Ge0 3.544250 1_555
Ba3 Ge1 3.544250 1_555
Ge0 K0 3.551490 1_655
Ge1 K1 3.551490 1_565
As0 Ge0 2.525199 1_555
As0 Ba3 3.421438 1_556
As0 K3 3.434914 1_555
As0 K4 3.477251 1_555
As0 K2 3.496103 1_555
As0 K1 3.516977 1_556
As0 Ba2 3.576276 1_556
As0 Ba1 3.696721 1_555
As0 K0 3.789326 1_655
As0 Ba0 3.911268 1_545
As1 Ge1 2.525199 1_555
As1 Ba1 3.421438 1_555
As1 K5 3.434914 1_555
As1 K7 3.477251 1_555
As1 K6 3.496103 1_555
As1 K0 3.516977 1_555
As1 Ba0 3.576276 1_555
As1 Ba3 3.696720 1_555
As1 K1 3.789326 1_565
As1 Ba2 3.911268 1_455
As2 Ge1 2.516199 1_556
As2 Ba1 3.338702 1_555
As2 K5 3.341758 1_556
As2 Ba0 3.345953 1_555
As2 K3 3.346109 1_555
As2 K4 3.375638 1_565
As2 Ba3 3.518419 1_556
As2 K1 3.593855 1_566
As3 Ge1 2.539337 1_556
As3 K2 3.293350 1_555
As3 K4 3.356850 1_455
As3 Ba1 3.361845 1_555
As3 K6 3.402034 1_556
As3 Ba2 3.428374 1_456
As3 Ba3 3.445763 1_556
As3 K0 3.468656 1_555
As4 Ge1 2.480854 1_556
As4 K2 3.270789 1_565
As4 K3 3.312223 1_455
As4 K7 3.335804 1_556
As4 Ba0 3.344032 1_555
As4 K0 3.430927 1_555
As4 Ba2 3.436856 1_456
As4 K1 3.543100 1_566
As5 Ge0 2.539337 1_555
As5 K6 3.293350 1_555
As5 K7 3.356850 1_545
As5 Ba3 3.361845 1_555
As5 K2 3.402034 1_555
As5 Ba0 3.428374 1_545
As5 Ba1 3.445763 1_555
As5 K1 3.468656 1_555
As6 Ge0 2.516199 1_555
As6 Ba3 3.338702 1_555
As6 K3 3.341758 1_555
As6 Ba2 3.345953 1_555
As6 K5 3.346109 1_555
As6 K7 3.375639 1_655
As6 Ba1 3.518419 1_555
As6 K0 3.593855 1_655
As7 Ge0 2.480854 1_555
As7 K6 3.270789 1_655
As7 K5 3.312222 1_545
As7 K4 3.335804 1_555
As7 Ba2 3.344032 1_555
As7 K1 3.430927 1_555
As7 Ba0 3.436856 1_545
As7 K0 3.543100 1_655
