# generated using pymatgen
data_B4IrPt4Rh3
_symmetry_space_group_name_H-M   'P 1'
_cell_length_a   6.17399056
_cell_length_b   5.46438533
_cell_length_c   6.73255263
_cell_angle_alpha   58.80969024
_cell_angle_beta   49.70163555
_cell_angle_gamma   69.90833353
_symmetry_Int_Tables_number   1
_chemical_formula_structural   B4IrPt4Rh3
_chemical_formula_sum   'B4 Ir1 Pt4 Rh3'
_cell_volume   148.18059575
_cell_formula_units_Z   1
loop_
 _symmetry_equiv_pos_site_id
 _symmetry_equiv_pos_as_xyz
  1  'x, y, z'
loop_
 _atom_site_type_symbol
 _atom_site_label
 _atom_site_symmetry_multiplicity
 _atom_site_fract_x
 _atom_site_fract_y
 _atom_site_fract_z
 _atom_site_occupancy
  B  B0  1  0.43914102  0.99882726  0.10454073  1
  B  B1  1  0.79074222  0.14867246  0.25230508  1
  B  B2  1  0.99875458  0.43887280  0.45733202  1
  B  B3  1  0.14835179  0.78666260  0.81003885  1
  Ir  Ir0  1  0.13519650  0.35075973  0.10722935  1
  Pt  Pt0  1  0.72179935  0.62800980  0.01610077  1
  Pt  Pt1  1  0.23048541  0.61569008  0.52680657  1
  Pt  Pt2  1  0.61462240  0.23601910  0.62686441  1
  Pt  Pt3  1  0.62976923  0.72625856  0.63110484  1
  Rh  Rh0  1  0.14783356  0.84497372  0.10882448  1
  Rh  Rh1  1  0.35345460  0.13614128  0.40585458  1
  Rh  Rh2  1  0.84493934  0.14420162  0.89790733  1
loop_
_geom_bond_atom_site_label_1
_geom_bond_atom_site_label_2
_geom_bond_distance
_geom_bond_site_symmetry_2
B0 Rh2 2.134857 1_564
B0 Ir0 2.175495 1_565
B0 Rh1 2.207665 1_565
B0 Rh0 2.211104 1_555
B0 Pt0 2.232021 1_555
B0 Pt1 2.252942 1_555
B0 Pt2 2.310119 1_564
B1 Ir0 2.122625 1_655
B1 Rh1 2.192210 1_555
B1 Rh2 2.197176 1_554
B1 Rh0 2.222531 1_645
B1 Pt3 2.240527 1_545
B1 Pt2 2.261083 1_555
B1 Pt0 2.316471 1_555
B2 Rh0 2.119821 1_655
B2 Rh2 2.180090 1_555
B2 Rh1 2.185291 1_655
B2 Ir0 2.196746 1_655
B2 Pt3 2.241006 1_555
B2 Pt2 2.269424 1_555
B2 Pt1 2.341515 1_655
B3 Rh1 2.115878 1_565
B3 Ir0 2.161016 1_556
B3 Rh0 2.191550 1_556
B3 Rh2 2.219304 1_465
B3 Pt1 2.243903 1_555
B3 Pt0 2.282233 1_456
B3 Pt3 2.345360 1_555
