# generated using pymatgen
data_CaSn6Ru3Rh
_symmetry_space_group_name_H-M   'P 1'
_cell_length_a   6.93269251
_cell_length_b   6.92088983
_cell_length_c   6.91825210
_cell_angle_alpha   120.20123183
_cell_angle_beta   120.25746860
_cell_angle_gamma   89.67433943
_symmetry_Int_Tables_number   1
_chemical_formula_structural   CaSn6Ru3Rh
_chemical_formula_sum   'Ca1 Sn6 Ru3 Rh1'
_cell_volume   233.75298331
_cell_formula_units_Z   1
loop_
 _symmetry_equiv_pos_site_id
 _symmetry_equiv_pos_as_xyz
  1  'x, y, z'
loop_
 _atom_site_type_symbol
 _atom_site_label
 _atom_site_symmetry_multiplicity
 _atom_site_fract_x
 _atom_site_fract_y
 _atom_site_fract_z
 _atom_site_occupancy
  Ca  Ca0  1  0.99980428  0.00195774  1.00000000  1
  Sn  Sn0  1  0.87975343  0.53112723  0.00000000  1
  Sn  Sn1  1  0.53399090  0.88251048  1.00000000  1
  Sn  Sn2  1  0.11786777  0.11343265  0.64400152  1
  Sn  Sn3  1  0.00204405  0.49942555  0.49682045  1
  Sn  Sn4  1  0.47386725  0.46943213  0.35599848  1
  Sn  Sn5  1  0.50522459  0.00260510  0.50317955  1
  Ru  Ru0  1  0.40793550  0.40952881  0.66114601  1
  Ru  Ru1  1  0.58730731  0.25136255  0.00000000  1
  Ru  Ru2  1  0.74678949  0.74838279  0.33885399  1
  Rh  Rh0  1  0.24541543  0.59023297  0.00000000  1
loop_
_geom_bond_atom_site_label_1
_geom_bond_atom_site_label_2
_geom_bond_distance
_geom_bond_site_symmetry_2
Ca0 Ru2 3.309307 1_545
Ca0 Ru0 3.309307 1_656
Ca0 Rh0 3.311171 1_646
Ca0 Ru1 3.331860 1_556
Ca0 Sn1 3.338022 1_545
Ca0 Sn2 3.358775 1_655
Ca0 Sn4 3.358783 1_656
Ca0 Sn0 3.367754 1_546
Ca0 Sn5 3.421830 1_555
Ca0 Sn3 3.421833 1_656
Ca0 Sn3 3.476748 1_645
Ca0 Sn5 3.476752 1_656
Ca0 Sn4 3.740226 1_545
Ca0 Sn2 3.740232 1_656
Ca0 Sn0 3.751086 1_556
Ca0 Sn1 3.789909 1_645
Sn1 Sn5 3.261227 1_566
Sn1 Sn3 3.261232 1_555
Ru0 Sn4 2.587014 1_555
Ru0 Sn3 2.658101 1_555
Ru0 Sn5 2.684289 1_555
Ru0 Sn0 2.687355 1_556
Ru0 Sn1 2.687424 1_555
Ru0 Sn2 2.796309 1_555
Ru0 Ru1 2.805122 1_556
Ru1 Sn1 2.581484 1_544
Ru1 Sn4 2.675990 1_555
Ru1 Sn2 2.675995 1_554
Ru1 Sn3 2.681095 1_655
Ru1 Sn5 2.681098 1_554
Ru1 Ru2 2.805122 1_555
Ru1 Sn0 2.811420 1_555
Ru2 Sn2 2.587006 1_665
Ru2 Sn5 2.658095 1_565
Ru2 Sn3 2.684286 1_655
Ru2 Sn0 2.687355 1_555
Ru2 Sn1 2.687424 1_554
Ru2 Sn4 2.796299 1_555
Rh0 Sn0 2.570109 1_455
Rh0 Sn3 2.692918 1_554
Rh0 Sn5 2.692918 1_565
Rh0 Sn4 2.720059 1_555
Rh0 Sn2 2.720063 1_554
Rh0 Ru0 2.832904 1_554
Rh0 Ru2 2.832904 1_555
Rh0 Sn1 2.853108 1_554
