# generated using pymatgen
data_Ba2VP4Ir3
_symmetry_space_group_name_H-M   'P 1'
_cell_length_a   5.66615199
_cell_length_b   6.92279007
_cell_length_c   5.66441038
_cell_angle_alpha   65.82509210
_cell_angle_beta   89.99990086
_cell_angle_gamma   89.99995098
_symmetry_Int_Tables_number   1
_chemical_formula_structural   Ba2VP4Ir3
_chemical_formula_sum   'Ba2 V1 P4 Ir3'
_cell_volume   202.70364219
_cell_formula_units_Z   1
loop_
 _symmetry_equiv_pos_site_id
 _symmetry_equiv_pos_as_xyz
  1  'x, y, z'
loop_
 _atom_site_type_symbol
 _atom_site_label
 _atom_site_symmetry_multiplicity
 _atom_site_fract_x
 _atom_site_fract_y
 _atom_site_fract_z
 _atom_site_occupancy
  Ba  Ba0  1  0.99124987  0.00000100  0.99999900  1
  Ba  Ba1  1  0.50857713  0.99999900  0.50000100  1
  V  V0  1  0.24995269  0.49999900  0.49999900  1
  P  P0  1  0.49548507  0.69580954  0.15607048  1
  P  P1  1  0.00456169  0.69578900  0.64780562  1
  P  P2  1  0.00456469  0.30421100  0.35219338  1
  P  P3  1  0.49548807  0.30419246  0.84392852  1
  Ir  Ir0  1  0.25006068  0.50000100  0.00000100  1
  Ir  Ir1  1  0.75005612  0.50000100  1.00000000  1
  Ir  Ir2  1  0.75000499  0.49999700  0.50000000  1
loop_
_geom_bond_atom_site_label_1
_geom_bond_atom_site_label_2
_geom_bond_distance
_geom_bond_site_symmetry_2
Ba0 P2 3.402383 1_655
Ba0 P1 3.402390 1_646
Ba0 P3 3.403261 1_555
Ba0 P0 3.403276 1_546
Ba0 P0 3.442997 1_646
Ba0 P3 3.443011 1_655
Ba0 P2 3.444111 1_656
Ba0 P1 3.444117 1_645
Ba1 P1 3.404394 1_655
Ba1 P2 3.404415 1_665
Ba1 P0 3.405226 1_555
Ba1 P3 3.405235 1_565
Ba1 P0 3.441052 1_556
Ba1 P3 3.441071 1_564
Ba1 P2 3.442046 1_565
Ba1 P1 3.442054 1_555
P0 V0 2.324944 1_555
P1 V0 2.323970 1_555
P2 V0 2.323949 1_555
P3 V0 2.324953 1_555
Ir0 P0 2.352518 1_555
Ir0 P3 2.352535 1_554
Ir0 P2 2.353134 1_555
Ir0 P1 2.353154 1_554
Ir0 V0 2.832188 1_555
Ir0 V0 2.832222 1_554
Ir1 P3 2.383516 1_555
Ir1 P0 2.383520 1_556
Ir1 P1 2.383671 1_655
Ir1 P2 2.383684 1_656
Ir2 P2 2.355400 1_655
Ir2 P1 2.355419 1_655
Ir2 P3 2.355749 1_555
Ir2 P0 2.355779 1_555
Ir2 V0 2.832780 1_655
Ir2 V0 2.833372 1_555
