# generated using pymatgen
data_SrZnSi2PbO7
_symmetry_space_group_name_H-M   'P 1'
_cell_length_a   8.01639910
_cell_length_b   5.23199875
_cell_length_c   8.02616186
_cell_angle_alpha   89.71457283
_cell_angle_beta   90.00000000
_cell_angle_gamma   90.00000000
_symmetry_Int_Tables_number   1
_chemical_formula_structural   SrZnSi2PbO7
_chemical_formula_sum   'Sr2 Zn2 Si4 Pb2 O14'
_cell_volume   336.62741896
_cell_formula_units_Z   2
loop_
 _symmetry_equiv_pos_site_id
 _symmetry_equiv_pos_as_xyz
  1  'x, y, z'
loop_
 _atom_site_type_symbol
 _atom_site_label
 _atom_site_symmetry_multiplicity
 _atom_site_fract_x
 _atom_site_fract_y
 _atom_site_fract_z
 _atom_site_occupancy
  Sr  Sr0  1  0.15625364  0.48846444  0.08186909  1
  Sr  Sr1  1  0.65625364  0.51153556  0.91813091  1
  Zn  Zn0  1  0.50026014  0.00215422  0.24929641  1
  Zn  Zn1  1  0.00026014  0.99784578  0.75070359  1
  Si  Si0  1  0.64244476  0.05148115  0.61517995  1
  Si  Si1  1  0.14244476  0.94851885  0.38482005  1
  Si  Si2  1  0.36214495  0.04882808  0.89542459  1
  Si  Si3  1  0.86214495  0.95117192  0.10457541  1
  Pb  Pb0  1  0.81679379  0.50071772  0.42327338  1
  Pb  Pb1  1  0.31679379  0.49928228  0.57672662  1
  O  O0  1  0.65440649  0.74439154  0.61169904  1
  O  O1  1  0.15440649  0.25560846  0.38830096  1
  O  O2  1  0.35877609  0.74406924  0.90923113  1
  O  O3  1  0.85877609  0.25593076  0.09076887  1
  O  O4  1  0.57871411  0.19317028  0.44422678  1
  O  O5  1  0.07871411  0.80682972  0.55577322  1
  O  O6  1  0.41625840  0.20367482  0.06356263  1
  O  O7  1  0.91625840  0.79632518  0.93643737  1
  O  O8  1  0.69212165  0.81031722  0.17041812  1
  O  O9  1  0.19212165  0.18968278  0.82958188  1
  O  O10  1  0.31299151  0.79662941  0.33308821  1
  O  O11  1  0.81299151  0.20337059  0.66691179  1
  O  O12  1  0.00883748  0.86143219  0.23961040  1
  O  O13  1  0.50883748  0.13856781  0.76038960  1
loop_
_geom_bond_atom_site_label_1
_geom_bond_atom_site_label_2
_geom_bond_distance
_geom_bond_site_symmetry_2
O0 Si0 1.609933 1_565
O0 Pb0 2.371987 1_555
O0 Sr1 2.739275 1_555
O1 Si1 1.609933 1_545
O1 Pb1 2.371987 1_555
O1 Sr0 2.739275 1_555
O2 Si2 1.598021 1_565
O2 Sr0 2.515089 1_556
O2 Sr1 2.677906 1_555
O3 Si3 1.598021 1_545
O3 Sr1 2.515089 1_554
O3 Sr0 2.677906 1_655
O4 Si0 1.638011 1_555
O4 Zn0 1.964103 1_555
O4 Pb0 2.501456 1_555
O5 Si1 1.638011 1_555
O5 Zn1 1.964103 1_555
O5 Pb1 2.501456 1_555
O6 Si2 1.636027 1_554
O6 Zn0 1.942096 1_555
O6 Sr0 2.566757 1_555
O6 Sr1 2.763980 1_554
O7 Si3 1.636027 1_556
O7 Zn1 1.942096 1_655
O7 Sr1 2.566757 1_555
O7 Sr0 2.763980 1_656
O8 Si3 1.635907 1_555
O8 Zn0 1.944246 1_565
O8 Sr1 2.580329 1_554
O9 Si2 1.635907 1_555
O9 Zn1 1.944246 1_545
O9 Sr0 2.580329 1_556
O10 Si1 1.635960 1_555
O10 Zn0 1.963423 1_565
O10 Pb1 2.492948 1_555
O10 Sr0 2.876848 1_555
O11 Si0 1.635960 1_555
O11 Zn1 1.963423 1_645
O11 Pb0 2.492948 1_555
O11 Sr1 2.876848 1_555
O12 Si1 1.648750 1_555
O12 Si3 1.665196 1_455
O12 Sr0 2.613785 1_555
O13 Si0 1.648750 1_555
O13 Si2 1.665196 1_555
O13 Sr1 2.613785 1_555
