# generated using pymatgen
data_Nd4Se3N2
_symmetry_space_group_name_H-M   'P 1'
_cell_length_a   6.47317052
_cell_length_b   8.32277541
_cell_length_c   8.32277535
_cell_angle_alpha   75.66487114
_cell_angle_beta   89.84770416
_cell_angle_gamma   89.84771175
_symmetry_Int_Tables_number   1
_chemical_formula_structural   Nd4Se3N2
_chemical_formula_sum   'Nd8 Se6 N4'
_cell_volume   434.42399470
_cell_formula_units_Z   2
loop_
 _symmetry_equiv_pos_site_id
 _symmetry_equiv_pos_as_xyz
  1  'x, y, z'
loop_
 _atom_site_type_symbol
 _atom_site_label
 _atom_site_symmetry_multiplicity
 _atom_site_fract_x
 _atom_site_fract_y
 _atom_site_fract_z
 _atom_site_occupancy
  Nd  Nd0  1  0.97016878  0.55703897  0.18979453  1
  Nd  Nd1  1  0.52983122  0.81020547  0.44296103  1
  Nd  Nd2  1  0.02983122  0.44296103  0.81020547  1
  Nd  Nd3  1  0.47016878  0.18979453  0.55703897  1
  Nd  Nd4  1  0.92818351  0.91448300  0.75546634  1
  Nd  Nd5  1  0.57181649  0.24453366  0.08551700  1
  Nd  Nd6  1  0.07181649  0.08551700  0.24453366  1
  Nd  Nd7  1  0.42818351  0.75546634  0.91448300  1
  Se  Se0  1  0.75000000  0.90370805  0.09629195  1
  Se  Se1  1  0.25000000  0.09629195  0.90370805  1
  Se  Se2  1  0.96468163  0.25362605  0.51603453  1
  Se  Se3  1  0.53531837  0.48396547  0.74637395  1
  Se  Se4  1  0.03531837  0.74637395  0.48396547  1
  Se  Se5  1  0.46468163  0.51603453  0.25362605  1
  N  N0  1  0.91495050  0.32944078  0.08193067  1
  N  N1  1  0.58504950  0.91806933  0.67055922  1
  N  N2  1  0.08504950  0.67055922  0.91806933  1
  N  N3  1  0.41495050  0.08193067  0.32944078  1
loop_
_geom_bond_atom_site_label_1
_geom_bond_atom_site_label_2
_geom_bond_distance
_geom_bond_site_symmetry_2
Nd0 Se0 3.135860 1_555
Nd0 Se2 3.217949 1_555
Nd0 Se5 3.249458 1_655
Nd0 Se4 3.251878 1_655
Nd0 Se5 3.318476 1_555
Nd1 Se0 3.135860 1_555
Nd1 Se3 3.217949 1_555
Nd1 Se4 3.249458 1_555
Nd1 Se5 3.251878 1_555
Nd1 Se4 3.318476 1_655
Nd2 Se1 3.135860 1_555
Nd2 Se4 3.217949 1_555
Nd2 Se3 3.249458 1_455
Nd2 Se2 3.251878 1_455
Nd2 Se3 3.318476 1_555
Nd3 Se1 3.135860 1_555
Nd3 Se5 3.217949 1_555
Nd3 Se2 3.249458 1_555
Nd3 Se3 3.251878 1_555
Nd3 Se2 3.318476 1_455
Nd4 Se4 3.016050 1_655
Nd4 Se1 3.017673 1_665
Nd4 Se2 3.034751 1_565
Nd4 Se0 3.040062 1_556
Nd5 Se5 3.016050 1_555
Nd5 Se1 3.017673 1_554
Nd5 Se3 3.034751 1_554
Nd5 Se0 3.040062 1_545
Nd6 Se2 3.016050 1_455
Nd6 Se0 3.017673 1_445
Nd6 Se4 3.034751 1_545
Nd6 Se1 3.040062 1_554
Nd7 Se3 3.016050 1_555
Nd7 Se0 3.017673 1_556
Nd7 Se5 3.034751 1_556
Nd7 Se1 3.040062 1_565
N0 Nd0 2.317160 1_555
N0 Nd5 2.330533 1_555
N0 Nd2 2.344529 1_654
N0 Nd6 2.370612 1_655
N1 Nd1 2.317160 1_555
N1 Nd4 2.330533 1_555
N1 Nd3 2.344529 1_565
N1 Nd7 2.370612 1_555
N2 Nd2 2.317160 1_555
N2 Nd7 2.330533 1_555
N2 Nd0 2.344529 1_456
N2 Nd4 2.370612 1_455
N3 Nd3 2.317160 1_555
N3 Nd6 2.330533 1_555
N3 Nd1 2.344529 1_545
N3 Nd5 2.370612 1_555
