# generated using pymatgen
data_Zr6PBr15
_symmetry_space_group_name_H-M   'P 1'
_cell_length_a   9.28239011
_cell_length_b   9.28239142
_cell_length_c   9.28239076
_cell_angle_alpha   109.47121713
_cell_angle_beta   109.47121998
_cell_angle_gamma   109.47122137
_symmetry_Int_Tables_number   1
_chemical_formula_structural   Zr6PBr15
_chemical_formula_sum   'Zr6 P1 Br15'
_cell_volume   615.68371822
_cell_formula_units_Z   1
loop_
 _symmetry_equiv_pos_site_id
 _symmetry_equiv_pos_as_xyz
  1  'x, y, z'
loop_
 _atom_site_type_symbol
 _atom_site_label
 _atom_site_symmetry_multiplicity
 _atom_site_fract_x
 _atom_site_fract_y
 _atom_site_fract_z
 _atom_site_occupancy
  Zr  Zr0  1  0.23095910  0.00000000  0.23095910  1
  Zr  Zr1  1  0.23095910  0.23095910  1.00000000  1
  Zr  Zr2  1  0.76904090  1.00000000  0.76904090  1
  Zr  Zr3  1  1.00000000  0.23095910  0.23095910  1
  Zr  Zr4  1  0.00000000  0.76904090  0.76904090  1
  Zr  Zr5  1  0.76904090  0.76904090  0.00000000  1
  P  P0  1  0.00000000  0.00000000  0.00000000  1
  Br  Br0  1  0.00000000  0.75025592  0.24974408  1
  Br  Br1  1  0.24974408  0.75025592  0.00000000  1
  Br  Br2  1  0.50051184  0.75025592  0.75025592  1
  Br  Br3  1  1.00000000  0.24974408  0.75025592  1
  Br  Br4  1  0.75025592  1.00000000  0.24974408  1
  Br  Br5  1  0.24974408  0.49948816  0.24974408  1
  Br  Br6  1  0.75025592  0.24974408  1.00000000  1
  Br  Br7  1  0.50000000  0.50000000  0.00000000  1
  Br  Br8  1  0.24974408  0.24974408  0.49948816  1
  Br  Br9  1  0.75025592  0.50051184  0.75025592  1
  Br  Br10  1  0.75025592  0.75025592  0.50051184  1
  Br  Br11  1  0.49948816  0.24974408  0.24974408  1
  Br  Br12  1  0.24974408  0.00000000  0.75025592  1
  Br  Br13  1  0.00000000  0.50000000  0.50000000  1
  Br  Br14  1  0.50000000  0.00000000  0.50000000  1
loop_
_geom_bond_atom_site_label_1
_geom_bond_atom_site_label_2
_geom_bond_distance
_geom_bond_site_symmetry_2
P0 Zr0 2.475508 1_555
P0 Zr2 2.475508 1_444
P0 Zr5 2.475508 1_445
P0 Zr1 2.475508 1_554
P0 Zr3 2.475508 1_455
P0 Zr4 2.475508 1_544
Br0 Zr5 2.684414 1_455
Br0 Zr0 2.684414 1_565
Br1 Zr4 2.684414 1_554
Br1 Zr0 2.684414 1_565
Br2 Zr5 2.684414 1_556
Br2 Zr2 2.684414 1_555
Br3 Zr1 2.684414 1_655
Br3 Zr2 2.684414 1_545
Br4 Zr3 2.684414 1_565
Br4 Zr5 2.684414 1_555
Br5 Zr3 2.684414 1_455
Br5 Zr1 2.684414 1_554
Br6 Zr3 2.684414 1_556
Br6 Zr2 2.684414 1_545
Br7 Zr1 2.883683 1_554
Br7 Zr5 2.883683 1_555
Br8 Zr3 2.684414 1_455
Br8 Zr0 2.684414 1_555
Br9 Zr4 2.684414 1_655
Br9 Zr5 2.684414 1_556
Br10 Zr4 2.684414 1_655
Br10 Zr2 2.684414 1_555
Br11 Zr1 2.684414 1_554
Br11 Zr0 2.684414 1_555
Br12 Zr4 2.684414 1_545
Br12 Zr1 2.684414 1_555
Br13 Zr4 2.883683 1_555
Br13 Zr3 2.883683 1_455
Br14 Zr2 2.883683 1_545
Br14 Zr0 2.883683 1_555
