# generated using pymatgen
data_Cd2Ga3RhO8
_symmetry_space_group_name_H-M   'P 1'
_cell_length_a   6.19414480
_cell_length_b   6.19414467
_cell_length_c   6.19414555
_cell_angle_alpha   58.74577234
_cell_angle_beta   58.74577156
_cell_angle_gamma   58.74577085
_symmetry_Int_Tables_number   1
_chemical_formula_structural   Cd2Ga3RhO8
_chemical_formula_sum   'Cd2 Ga3 Rh1 O8'
_cell_volume   163.23155924
_cell_formula_units_Z   1
loop_
 _symmetry_equiv_pos_site_id
 _symmetry_equiv_pos_as_xyz
  1  'x, y, z'
loop_
 _atom_site_type_symbol
 _atom_site_label
 _atom_site_symmetry_multiplicity
 _atom_site_fract_x
 _atom_site_fract_y
 _atom_site_fract_z
 _atom_site_occupancy
  Cd  Cd0  1  0.25332660  0.25332660  0.25332660  1
  Cd  Cd1  1  0.99667340  0.99667340  0.99667340  1
  Ga  Ga0  1  0.62500000  0.62500000  0.12500000  1
  Ga  Ga1  1  0.62500000  0.12500000  0.62500000  1
  Ga  Ga2  1  0.12500000  0.62500000  0.62500000  1
  Rh  Rh0  1  0.62500000  0.62500000  0.62500000  1
  O  O0  1  0.86067453  0.86067453  0.43028411  1
  O  O1  1  0.86067453  0.43028411  0.86067453  1
  O  O2  1  0.43028411  0.86067453  0.86067453  1
  O  O3  1  0.85718716  0.85718716  0.85718716  1
  O  O4  1  0.38932547  0.38932547  0.81971589  1
  O  O5  1  0.38932547  0.81971589  0.38932547  1
  O  O6  1  0.81971589  0.38932547  0.38932547  1
  O  O7  1  0.39281284  0.39281284  0.39281284  1
loop_
_geom_bond_atom_site_label_1
_geom_bond_atom_site_label_2
_geom_bond_distance
_geom_bond_site_symmetry_2
Cd0 O7 2.136193 1_555
Cd0 O5 2.161906 1_545
Cd0 O6 2.161906 1_455
Cd0 O4 2.161906 1_554
Cd1 O3 2.136193 1_555
Cd1 O1 2.161906 1_565
Cd1 O2 2.161906 1_655
Cd1 O0 2.161906 1_556
Ga0 O5 2.002080 1_555
Ga0 O1 2.002080 1_554
Ga0 O6 2.002080 1_555
Ga0 O2 2.002080 1_554
Ga0 O3 2.020818 1_554
Ga0 O7 2.020818 1_555
Ga1 O6 2.002080 1_555
Ga1 O2 2.002080 1_545
Ga1 O4 2.002080 1_555
Ga1 O0 2.002080 1_545
Ga1 O3 2.020818 1_545
Ga1 O7 2.020818 1_555
Ga2 O5 2.002080 1_555
Ga2 O1 2.002080 1_455
Ga2 O4 2.002080 1_555
Ga2 O0 2.002080 1_455
Ga2 O3 2.020818 1_455
Ga2 O7 2.020818 1_555
O0 Rh0 2.067374 1_555
O1 Rh0 2.067374 1_555
O2 Rh0 2.067374 1_555
O4 Rh0 2.067374 1_555
O5 Rh0 2.067374 1_555
O6 Rh0 2.067374 1_555
