# generated using pymatgen
data_NaB12AsC
_symmetry_space_group_name_H-M   'P 1'
_cell_length_a   7.25597362
_cell_length_b   7.25597390
_cell_length_c   7.25597372
_cell_angle_alpha   132.67363836
_cell_angle_beta   110.57837069
_cell_angle_gamma   88.32043666
_symmetry_Int_Tables_number   1
_chemical_formula_structural   NaB12AsC
_chemical_formula_sum   'Na2 B24 As2 C2'
_cell_volume   250.54305195
_cell_formula_units_Z   2
loop_
 _symmetry_equiv_pos_site_id
 _symmetry_equiv_pos_as_xyz
  1  'x, y, z'
loop_
 _atom_site_type_symbol
 _atom_site_label
 _atom_site_symmetry_multiplicity
 _atom_site_fract_x
 _atom_site_fract_y
 _atom_site_fract_z
 _atom_site_occupancy
  Na  Na0  1  0.07658107  0.74161467  0.83496740  1
  Na  Na1  1  0.90664727  0.24161467  0.16503260  1
  B  B0  1  0.86976115  0.83375326  0.53600890  1
  B  B1  1  0.29774436  0.33375326  0.46399110  1
  B  B2  1  0.14480360  0.16744798  0.47735462  1
  B  B3  1  0.69009336  0.66744798  0.52264538  1
  B  B4  1  0.26807037  0.08878379  0.67928658  1
  B  B5  1  0.40949721  0.58878379  0.32071342  1
  B  B6  1  0.76314221  0.91503028  0.34811193  1
  B  B7  1  0.56691634  0.41503028  0.65188807  1
  B  B8  1  0.10853478  0.78317781  0.50975366  1
  B  B9  1  0.27342315  0.59878112  0.49024634  1
  B  B10  1  0.27342315  0.28317781  0.17464303  1
  B  B11  1  0.10853478  0.09878112  0.82535697  1
  B  B12  1  0.90180009  0.22109300  0.50531278  1
  B  B13  1  0.71578022  0.39648731  0.49468722  1
  B  B14  1  0.71578022  0.72109300  0.81929292  1
  B  B15  1  0.90180009  0.89648731  0.18070708  1
  B  B16  1  0.13494543  0.82513160  0.29856538  1
  B  B17  1  0.52656621  0.83638004  0.70143462  1
  B  B18  1  0.52656621  0.32513160  0.19018617  1
  B  B19  1  0.13494543  0.33638004  0.80981383  1
  B  B20  1  0.88985657  0.16121414  0.70415565  1
  B  B21  1  0.45705949  0.18570092  0.29584435  1
  B  B22  1  0.45705949  0.66121414  0.77135857  1
  B  B23  1  0.88985657  0.68570092  0.22864143  1
  As  As0  1  0.46423433  0.82963559  0.13459975  1
  As  As1  1  0.69503584  0.32963559  0.86540025  1
  C  C0  1  0.50896177  0.13869949  0.87026228  1
  C  C1  1  0.26843721  0.63869949  0.12973772  1
loop_
_geom_bond_atom_site_label_1
_geom_bond_atom_site_label_2
_geom_bond_distance
_geom_bond_site_symmetry_2
B0 B3 1.734882 1_555
B0 B20 1.766565 1_565
B0 B23 1.766576 1_555
B0 B6 1.768298 1_555
B0 B11 1.809036 1_665
B0 B8 1.809039 1_655
B0 Na0 2.650166 1_655
B1 B2 1.734883 1_555
B1 B22 1.766568 1_555
B1 B21 1.766572 1_555
B1 B7 1.768287 1_555
B1 B10 1.809029 1_555
B1 B9 1.809032 1_555
B1 Na1 2.650166 1_455
B2 B4 1.858816 1_555
B2 Na1 2.693934 1_455
B3 B5 1.858818 1_555
B3 Na0 2.693926 1_655
B4 C0 1.661505 1_555
B4 B8 1.794981 1_545
B5 C1 1.661505 1_555
B5 B9 1.794986 1_555
B8 B9 1.734972 1_555
B8 Na0 2.658298 1_555
B8 Na1 2.877658 1_455
B9 Na1 2.658290 1_455
B9 Na0 2.877658 1_555
B10 B11 1.734975 1_554
B10 B21 1.735898 1_555
B10 B5 1.794983 1_555
B10 B18 1.822040 1_555
B10 B9 1.838233 1_555
B10 Na1 2.658288 1_455
B10 Na0 2.877658 1_544
B11 B20 1.735890 1_455
B11 B4 1.794981 1_555
B11 B19 1.822033 1_555
B11 B8 1.838233 1_545
B11 Na0 2.658297 1_545
B11 Na1 2.877658 1_456
B12 B6 1.770708 1_545
B12 B20 1.793840 1_555
B12 B19 1.842047 1_655
B12 B2 1.845483 1_655
B12 B13 1.845699 1_555
B12 B15 1.890667 1_545
B12 Na1 2.584463 1_555
B12 Na0 2.737866 1_655
B13 B7 1.770720 1_555
B13 B21 1.793834 1_555
B13 B18 1.842047 1_555
B13 B3 1.845476 1_555
B13 B14 1.890667 1_555
B13 Na0 2.584458 1_655
B13 Na1 2.737868 1_555
B14 B7 1.770714 1_555
B14 B22 1.793835 1_555
B14 B17 1.842047 1_555
B14 B3 1.845476 1_555
B14 B15 1.845699 1_556
B14 Na0 2.584456 1_655
B14 Na1 2.737868 1_566
B15 B6 1.770708 1_555
B15 B23 1.793834 1_555
B15 B16 1.842047 1_655
B15 B2 1.845480 1_665
B15 Na1 2.584463 1_565
B15 Na0 2.737862 1_654
B16 C1 1.667221 1_555
B16 B23 1.794116 1_455
B16 B8 1.822033 1_555
B16 B2 1.853235 1_565
B16 Na0 2.848201 1_554
B17 C0 1.667221 1_565
B17 B22 1.794123 1_555
B17 B9 1.822038 1_555
B17 B3 1.853237 1_555
B17 Na1 2.848203 1_566
B18 C0 1.667221 1_554
B18 B21 1.794116 1_555
B18 B3 1.853237 1_555
B18 Na1 2.848203 1_555
B19 C1 1.667221 1_556
B19 B20 1.794120 1_455
B19 B2 1.853240 1_555
B19 Na0 2.848204 1_555
B20 B6 1.697313 1_545
B20 Na1 2.934500 1_556
B21 B7 1.697314 1_555
B21 Na0 2.934508 1_544
B22 B7 1.697299 1_555
B22 B9 1.735900 1_555
B22 Na0 2.934512 1_555
B23 B6 1.697313 1_555
B23 B8 1.735894 1_655
B23 Na1 2.934504 1_555
As0 B6 1.975710 1_555
As0 C1 1.988196 1_555
As0 B21 1.995920 1_565
As0 B22 1.995923 1_554
As0 Na0 2.640175 1_554
As1 B7 1.975707 1_555
As1 C0 1.988202 1_555
As1 B23 1.995922 1_556
As1 B20 1.995923 1_555
As1 Na1 2.640175 1_556
C0 Na1 2.661090 1_556
C1 Na0 2.661092 1_554
