# generated using pymatgen
data_DyTlS2
_symmetry_space_group_name_H-M   'P 1'
_cell_length_a   7.84432464
_cell_length_b   7.84432464
_cell_length_c   7.84432452
_cell_angle_alpha   29.63562587
_cell_angle_beta   29.63562587
_cell_angle_gamma   29.63562037
_symmetry_Int_Tables_number   1
_chemical_formula_structural   DyTlS2
_chemical_formula_sum   'Dy1 Tl1 S2'
_cell_volume   104.48691404
_cell_formula_units_Z   1
loop_
 _symmetry_equiv_pos_site_id
 _symmetry_equiv_pos_as_xyz
  1  'x, y, z'
loop_
 _atom_site_type_symbol
 _atom_site_label
 _atom_site_symmetry_multiplicity
 _atom_site_fract_x
 _atom_site_fract_y
 _atom_site_fract_z
 _atom_site_occupancy
  Dy  Dy0  1  0.00000000  0.00000000  0.00000000  1
  Tl  Tl0  1  0.50000000  0.50000000  0.50000000  1
  S  S0  1  0.73264399  0.73264399  0.73264399  1
  S  S1  1  0.26735601  0.26735601  0.26735601  1
loop_
_geom_bond_atom_site_label_1
_geom_bond_atom_site_label_2
_geom_bond_distance
_geom_bond_site_symmetry_2
Dy0 S1 2.750761 1_455
Dy0 S1 2.750761 1_545
Dy0 S0 2.750761 1_544
Dy0 S0 2.750761 1_454
Dy0 S1 2.750761 1_554
Dy0 S0 2.750761 1_445
S0 Tl0 3.239013 1_565
S0 Tl0 3.239013 1_655
S0 Tl0 3.239013 1_556
S1 Tl0 3.239013 1_545
S1 Tl0 3.239013 1_455
S1 Tl0 3.239013 1_554
