# generated using pymatgen
data_Lu10GaSi3Sb4
_symmetry_space_group_name_H-M   'P 1'
_cell_length_a   8.31511911
_cell_length_b   8.31511988
_cell_length_c   7.71350979
_cell_angle_alpha   89.76380049
_cell_angle_beta   89.76381227
_cell_angle_gamma   124.86110401
_symmetry_Int_Tables_number   1
_chemical_formula_structural   Lu10GaSi3Sb4
_chemical_formula_sum   'Lu10 Ga1 Si3 Sb4'
_cell_volume   437.59424815
_cell_formula_units_Z   1
loop_
 _symmetry_equiv_pos_site_id
 _symmetry_equiv_pos_as_xyz
  1  'x, y, z'
loop_
 _atom_site_type_symbol
 _atom_site_label
 _atom_site_symmetry_multiplicity
 _atom_site_fract_x
 _atom_site_fract_y
 _atom_site_fract_z
 _atom_site_occupancy
  Lu  Lu0  1  0.03947120  0.28798643  0.33667639  1
  Lu  Lu1  1  0.96066009  0.71455232  0.66298714  1
  Lu  Lu2  1  0.46048083  0.21055349  0.83576571  1
  Lu  Lu3  1  0.78781274  0.53885505  0.16341153  1
  Lu  Lu4  1  0.53885505  0.78781274  0.16341153  1
  Lu  Lu5  1  0.21055349  0.46048083  0.83576571  1
  Lu  Lu6  1  0.71455232  0.96066009  0.66298714  1
  Lu  Lu7  1  0.28798643  0.03947120  0.33667639  1
  Lu  Lu8  1  0.99917651  0.99917651  0.99947251  1
  Lu  Lu9  1  0.50088271  0.50088271  0.50117692  1
  Ga  Ga0  1  0.36436809  0.36436809  0.13370116  1
  Si  Si0  1  0.63390471  0.63390471  0.86673383  1
  Si  Si1  1  0.13868237  0.13868237  0.63596357  1
  Si  Si2  1  0.86331473  0.86331473  0.36267995  1
  Sb  Sb0  1  0.79271878  0.20339201  0.00021617  1
  Sb  Sb1  1  0.20339201  0.79271878  0.00021617  1
  Sb  Sb2  1  0.70724684  0.29594209  0.50107710  1
  Sb  Sb3  1  0.29594209  0.70724684  0.50107710  1
loop_
_geom_bond_atom_site_label_1
_geom_bond_atom_site_label_2
_geom_bond_distance
_geom_bond_site_symmetry_2
Lu0 Si1 2.951969 1_555
Lu0 Si2 2.955320 1_445
Lu0 Sb2 3.069937 1_455
Lu0 Sb0 3.138338 1_455
Lu0 Sb3 3.141538 1_555
Lu1 Si0 2.859195 1_555
Lu1 Si2 2.947467 1_555
Lu1 Si1 2.948845 1_665
Lu1 Sb3 3.082433 1_655
Lu1 Sb2 3.128672 1_555
Lu1 Sb1 3.133697 1_656
Lu2 Si1 2.847064 1_555
Lu2 Si0 2.955525 1_555
Lu2 Sb0 3.075856 1_556
Lu2 Sb2 3.107234 1_555
Lu2 Sb1 3.114597 1_546
Lu3 Si2 2.853302 1_555
Lu3 Si0 2.943612 1_554
Lu3 Sb0 3.086376 1_555
Lu3 Sb1 3.095971 1_655
Lu3 Sb2 3.115739 1_555
Lu4 Si2 2.853301 1_555
Lu4 Si0 2.943613 1_554
Lu4 Sb1 3.086375 1_555
Lu4 Sb0 3.095971 1_565
Lu4 Sb3 3.115739 1_555
Lu5 Si1 2.847064 1_555
Lu5 Si0 2.955525 1_555
Lu5 Sb1 3.075857 1_556
Lu5 Sb3 3.107233 1_555
Lu5 Sb0 3.114597 1_456
Lu6 Si0 2.859195 1_555
Lu6 Si2 2.947468 1_555
Lu6 Si1 2.948844 1_665
Lu6 Sb2 3.082433 1_565
Lu6 Sb3 3.128671 1_555
Lu6 Sb0 3.133697 1_566
Lu7 Si1 2.951969 1_555
Lu7 Si2 2.955319 1_445
Lu7 Sb3 3.069937 1_545
Lu7 Sb1 3.138339 1_545
Lu7 Sb2 3.141538 1_555
Lu8 Si2 2.981662 1_556
Lu8 Si1 2.993550 1_665
Lu8 Si0 3.000641 1_555
Lu8 Sb0 3.027066 1_566
Lu8 Sb1 3.027066 1_656
Lu9 Si1 2.966676 1_555
Lu9 Si2 2.978252 1_555
Lu9 Si0 3.008415 1_555
Lu9 Sb2 3.031708 1_555
Lu9 Sb3 3.031708 1_555
Ga0 Lu7 2.854557 1_555
Ga0 Lu0 2.854557 1_555
Ga0 Si0 2.910041 1_554
Ga0 Lu3 2.953708 1_555
Ga0 Lu4 2.953708 1_555
Ga0 Lu5 2.955249 1_554
Ga0 Lu2 2.955249 1_554
Ga0 Lu8 3.004098 1_444
Ga0 Lu9 3.031773 1_555
