# generated using pymatgen
data_Hf15ZrBi18
_symmetry_space_group_name_H-M   'P 1'
_cell_length_a   10.77640193
_cell_length_b   10.77640193
_cell_length_c   7.58400599
_cell_angle_alpha   90.00000000
_cell_angle_beta   90.00000000
_cell_angle_gamma   90.00000000
_symmetry_Int_Tables_number   1
_chemical_formula_structural   Hf15ZrBi18
_chemical_formula_sum   'Hf15 Zr1 Bi18'
_cell_volume   880.73697496
_cell_formula_units_Z   1
loop_
 _symmetry_equiv_pos_site_id
 _symmetry_equiv_pos_as_xyz
  1  'x, y, z'
loop_
 _atom_site_type_symbol
 _atom_site_label
 _atom_site_symmetry_multiplicity
 _atom_site_fract_x
 _atom_site_fract_y
 _atom_site_fract_z
 _atom_site_occupancy
  Hf  Hf0  1  0.00010955  0.00010955  0.99987393  1
  Hf  Hf1  1  0.49989045  0.00010955  0.99987393  1
  Hf  Hf2  1  0.00010955  0.49989045  0.99987393  1
  Hf  Hf3  1  0.49989045  0.49989045  0.99987393  1
  Hf  Hf4  1  0.75000000  0.10447993  0.15569173  1
  Hf  Hf5  1  0.75000000  0.39551907  0.15569173  1
  Hf  Hf6  1  0.10447993  0.75000000  0.15569173  1
  Hf  Hf7  1  0.39551907  0.75000000  0.15569173  1
  Hf  Hf8  1  0.25000000  0.25000000  0.43341756  1
  Hf  Hf9  1  0.75000000  0.75000000  0.56745055  1
  Hf  Hf10  1  0.60426266  0.24999900  0.84467245  1
  Hf  Hf11  1  0.89573834  0.25000000  0.84467245  1
  Hf  Hf12  1  0.24999900  0.60426266  0.84467245  1
  Hf  Hf13  1  0.25000000  0.89573834  0.84467245  1
  Hf  Hf14  1  0.25000000  0.25000000  0.91983312  1
  Zr  Zr0  1  0.75000000  0.75000000  0.07909873  1
  Bi  Bi0  1  0.25000000  0.01696796  0.19403796  1
  Bi  Bi1  1  0.01696796  0.25000000  0.19403796  1
  Bi  Bi2  1  0.48303104  0.24999900  0.19403796  1
  Bi  Bi3  1  0.24999900  0.48303104  0.19403796  1
  Bi  Bi4  1  0.58425082  0.58425082  0.34958561  1
  Bi  Bi5  1  0.91574918  0.58425082  0.34958561  1
  Bi  Bi6  1  0.91574918  0.91574918  0.34958561  1
  Bi  Bi7  1  0.58425082  0.91574918  0.34958561  1
  Bi  Bi8  1  0.75000000  0.25000000  0.49974853  1
  Bi  Bi9  1  0.25000000  0.75000000  0.49974853  1
  Bi  Bi10  1  0.41547075  0.08452925  0.65072544  1
  Bi  Bi11  1  0.08452925  0.08452925  0.65072544  1
  Bi  Bi12  1  0.08452925  0.41547075  0.65072544  1
  Bi  Bi13  1  0.41547075  0.41547075  0.65072544  1
  Bi  Bi14  1  0.75000000  0.51600936  0.80559139  1
  Bi  Bi15  1  0.51600936  0.75000000  0.80559139  1
  Bi  Bi16  1  0.98399064  0.75000000  0.80559139  1
  Bi  Bi17  1  0.75000000  0.98399064  0.80559139  1
loop_
_geom_bond_atom_site_label_1
_geom_bond_atom_site_label_2
_geom_bond_distance
_geom_bond_site_symmetry_2
Hf0 Hf11 3.146795 1_455
Hf0 Hf13 3.146795 1_545
Hf0 Hf6 3.150562 1_546
Hf0 Hf4 3.150562 1_456
Hf1 Hf10 3.146789 1_555
Hf1 Hf13 3.146795 1_545
Hf1 Hf4 3.150562 1_556
Hf1 Hf7 3.150566 1_546
Hf2 Hf6 3.150562 1_556
Hf2 Hf5 3.150566 1_456
Hf3 Hf5 3.150566 1_556
Hf3 Hf7 3.150566 1_556
Hf4 Hf5 3.136355 1_555
Hf6 Hf7 3.136355 1_555
Hf10 Hf11 3.141059 1_555
Hf10 Hf3 3.146808 1_555
Hf10 Hf4 3.238752 1_556
Hf10 Hf5 3.238757 1_556
Hf11 Hf2 3.146795 1_655
Hf11 Hf5 3.238757 1_556
Hf11 Hf4 3.238763 1_556
Hf12 Hf13 3.141059 1_555
Hf12 Hf2 3.146789 1_555
Hf12 Hf3 3.146808 1_555
Hf12 Hf6 3.238752 1_556
Hf12 Hf7 3.238757 1_556
Hf13 Hf7 3.238757 1_556
Hf13 Hf6 3.238763 1_556
Bi0 Hf13 2.954160 1_544
Bi0 Hf1 3.074606 1_554
Bi0 Hf0 3.074606 1_554
Bi0 Hf8 3.098749 1_555
Bi0 Hf14 3.260518 1_554
Bi0 Hf7 3.289469 1_545
Bi0 Hf6 3.289474 1_545
Bi0 Bi2 3.551424 1_555
Bi0 Bi1 3.551439 1_555
Bi0 Bi9 3.694910 1_545
Bi1 Hf11 2.954160 1_454
Bi1 Hf2 3.074606 1_554
Bi1 Hf0 3.074606 1_554
Bi1 Hf8 3.098749 1_555
Bi1 Hf14 3.260518 1_554
Bi1 Hf5 3.289469 1_455
Bi1 Hf4 3.289474 1_455
Bi1 Bi3 3.551424 1_555
Bi1 Bi8 3.694910 1_455
Bi2 Hf10 2.954169 1_554
Bi2 Hf1 3.074597 1_554
Bi2 Hf3 3.074616 1_554
Bi2 Hf8 3.098740 1_555
Bi2 Hf14 3.260510 1_554
Bi2 Hf4 3.289478 1_555
Bi2 Hf5 3.289483 1_555
Bi2 Bi3 3.551439 1_555
Bi2 Bi8 3.694918 1_555
Bi3 Hf12 2.954169 1_554
Bi3 Hf2 3.074597 1_554
Bi3 Hf3 3.074616 1_554
Bi3 Hf8 3.098740 1_555
Bi3 Hf14 3.260510 1_554
Bi3 Hf6 3.289478 1_555
Bi3 Hf7 3.289483 1_555
Bi3 Bi9 3.694918 1_555
Bi4 Hf3 2.947402 1_554
Bi4 Hf9 3.018433 1_555
Bi4 Hf5 3.080475 1_555
Bi4 Hf7 3.080475 1_555
Bi4 Zr0 3.254076 1_555
Bi5 Hf2 2.947402 1_654
Bi5 Hf9 3.018433 1_555
Bi5 Hf6 3.080468 1_655
Bi5 Hf5 3.080475 1_555
Bi5 Zr0 3.254076 1_555
Bi6 Hf0 2.947402 1_664
Bi6 Hf9 3.018433 1_555
Bi6 Hf6 3.080468 1_655
Bi6 Hf4 3.080468 1_565
Bi6 Zr0 3.254076 1_555
Bi7 Hf1 2.947402 1_564
Bi7 Hf9 3.018433 1_555
Bi7 Hf4 3.080468 1_565
Bi7 Hf7 3.080475 1_555
Bi7 Zr0 3.254076 1_555
Bi8 Hf5 3.044300 1_555
Bi8 Hf4 3.044305 1_555
Bi8 Hf10 3.051148 1_555
Bi8 Hf11 3.051154 1_555
Bi9 Hf7 3.044300 1_555
Bi9 Hf6 3.044305 1_555
Bi9 Hf12 3.051148 1_555
Bi9 Hf13 3.051154 1_555
Bi10 Hf1 2.943954 1_555
Bi10 Hf8 3.012569 1_555
Bi10 Hf13 3.079350 1_545
Bi10 Hf10 3.079351 1_555
Bi10 Hf14 3.244193 1_555
Bi10 Bi7 3.439815 1_545
Bi11 Hf0 2.943954 1_555
Bi11 Hf8 3.012569 1_555
Bi11 Hf11 3.079350 1_455
Bi11 Hf13 3.079350 1_545
Bi11 Hf14 3.244193 1_555
Bi11 Bi6 3.439815 1_445
Bi12 Hf2 2.943954 1_555
Bi12 Hf8 3.012569 1_555
Bi12 Hf11 3.079350 1_455
Bi12 Hf12 3.079351 1_555
Bi12 Hf14 3.244193 1_555
Bi12 Bi5 3.439815 1_455
Bi13 Hf3 2.943954 1_555
Bi13 Hf8 3.012569 1_555
Bi13 Hf12 3.079364 1_555
Bi13 Hf10 3.079364 1_555
Bi13 Hf14 3.244193 1_555
Bi13 Bi4 3.439815 1_555
Bi14 Hf5 2.955650 1_556
Bi14 Hf2 3.076644 1_655
Bi14 Hf3 3.076644 1_555
Bi14 Hf9 3.101646 1_555
Bi14 Zr0 3.265118 1_556
Bi14 Hf11 3.282066 1_555
Bi14 Hf10 3.282071 1_555
Bi14 Bi16 3.566049 1_555
Bi14 Bi15 3.566049 1_555
Bi14 Bi8 3.687503 1_555
Bi15 Hf7 2.955650 1_556
Bi15 Hf1 3.076644 1_565
Bi15 Hf3 3.076644 1_555
Bi15 Hf9 3.101646 1_555
Bi15 Zr0 3.265118 1_556
Bi15 Hf13 3.282066 1_555
Bi15 Hf12 3.282071 1_555
Bi15 Bi17 3.566049 1_555
Bi15 Bi9 3.687503 1_555
Bi16 Hf6 2.955645 1_656
Bi16 Hf0 3.076644 1_665
Bi16 Hf2 3.076644 1_655
Bi16 Hf9 3.101646 1_555
Bi16 Zr0 3.265118 1_556
Bi16 Hf12 3.282052 1_655
Bi16 Hf13 3.282066 1_655
Bi16 Bi17 3.566049 1_555
Bi16 Bi9 3.687503 1_655
Bi17 Hf4 2.955645 1_566
Bi17 Hf0 3.076644 1_665
Bi17 Hf1 3.076644 1_565
Bi17 Hf9 3.101646 1_555
Bi17 Zr0 3.265118 1_556
Bi17 Hf10 3.282052 1_565
Bi17 Hf11 3.282066 1_565
Bi17 Bi8 3.687503 1_565
