# generated using pymatgen
data_Hf3Zr6TiSn6
_symmetry_space_group_name_H-M   'P 1'
_cell_length_a   8.43351823
_cell_length_b   8.43351971
_cell_length_c   5.71688183
_cell_angle_alpha   90.00000000
_cell_angle_beta   90.00000000
_cell_angle_gamma   119.99999419
_symmetry_Int_Tables_number   1
_chemical_formula_structural   Hf3Zr6TiSn6
_chemical_formula_sum   'Hf3 Zr6 Ti1 Sn6'
_cell_volume   352.13364669
_cell_formula_units_Z   1
loop_
 _symmetry_equiv_pos_site_id
 _symmetry_equiv_pos_as_xyz
  1  'x, y, z'
loop_
 _atom_site_type_symbol
 _atom_site_label
 _atom_site_symmetry_multiplicity
 _atom_site_fract_x
 _atom_site_fract_y
 _atom_site_fract_z
 _atom_site_occupancy
  Hf  Hf0  1  0.33333300  0.66666700  0.00000000  1
  Hf  Hf1  1  0.33333300  0.66666700  0.50000000  1
  Hf  Hf2  1  0.66666700  0.33333300  0.50000000  1
  Zr  Zr0  1  0.75307460  0.75511640  0.74757462  1
  Zr  Zr1  1  0.24488360  0.99795820  0.74757462  1
  Zr  Zr2  1  0.00204180  0.24692540  0.74757462  1
  Zr  Zr3  1  0.24488360  0.24692540  0.25242538  1
  Zr  Zr4  1  0.75307460  0.99795820  0.25242538  1
  Zr  Zr5  1  0.00204180  0.75511640  0.25242538  1
  Ti  Ti0  1  0.66666700  0.33333300  0.00000000  1
  Sn  Sn0  1  0.39745298  0.39286770  0.75494522  1
  Sn  Sn1  1  0.60713230  0.00458528  0.75494522  1
  Sn  Sn2  1  0.99541472  0.60254702  0.75494522  1
  Sn  Sn3  1  0.60713230  0.60254702  0.24505478  1
  Sn  Sn4  1  0.39745298  0.00458528  0.24505478  1
  Sn  Sn5  1  0.99541472  0.39286770  0.24505478  1
loop_
_geom_bond_atom_site_label_1
_geom_bond_atom_site_label_2
_geom_bond_distance
_geom_bond_site_symmetry_2
Hf0 Sn2 2.972473 1_454
Hf0 Sn4 2.972473 1_565
Hf0 Sn5 2.972476 1_455
Hf0 Sn1 2.972476 1_564
Hf0 Sn3 2.972480 1_555
Hf0 Sn0 2.972480 1_554
Hf1 Sn2 2.999536 1_455
Hf1 Sn4 2.999537 1_565
Hf1 Sn5 2.999539 1_455
Hf1 Sn1 2.999539 1_565
Hf1 Sn3 2.999543 1_555
Hf1 Sn0 2.999544 1_555
Hf2 Ti0 2.858441 1_555
Hf2 Ti0 2.858441 1_556
Hf2 Sn5 2.944672 1_555
Hf2 Sn1 2.944672 1_555
Hf2 Sn2 2.944675 1_555
Hf2 Sn4 2.944675 1_555
Hf2 Sn0 2.944679 1_555
Hf2 Sn3 2.944679 1_555
Sn0 Zr1 2.909317 1_545
Sn0 Ti0 2.917107 1_556
Sn0 Zr2 2.921054 1_555
Sn0 Zr0 3.027767 1_555
Sn0 Zr3 3.110520 1_556
Sn0 Zr3 3.136885 1_555
Sn1 Zr2 2.909317 1_655
Sn1 Ti0 2.917100 1_556
Sn1 Zr0 2.921054 1_545
Sn1 Zr1 3.027766 1_545
Sn1 Zr4 3.110520 1_546
Sn1 Zr4 3.136885 1_545
Sn2 Zr0 2.909317 1_555
Sn2 Ti0 2.917102 1_556
Sn2 Zr1 2.921054 1_655
Sn2 Zr2 3.027767 1_655
Sn2 Zr5 3.110520 1_656
Sn2 Zr5 3.136885 1_655
Sn3 Zr5 2.909317 1_655
Sn3 Ti0 2.917107 1_555
Sn3 Zr4 2.921054 1_555
Sn3 Zr3 3.027767 1_555
Sn3 Zr0 3.110520 1_554
Sn3 Zr0 3.136885 1_555
Sn4 Zr3 2.909317 1_555
Sn4 Ti0 2.917103 1_555
Sn4 Zr5 2.921054 1_545
Sn4 Zr4 3.027766 1_545
Sn4 Zr1 3.110520 1_544
Sn4 Zr1 3.136885 1_545
Sn5 Zr4 2.909317 1_545
Sn5 Ti0 2.917100 1_555
Sn5 Zr3 2.921054 1_655
Sn5 Zr5 3.027767 1_655
Sn5 Zr2 3.110520 1_654
Sn5 Zr2 3.136885 1_655
