# generated using pymatgen
data_RbBa3RhO6
_symmetry_space_group_name_H-M   'P 1'
_cell_length_a   7.32747877
_cell_length_b   7.26565052
_cell_length_c   7.26675851
_cell_angle_alpha   87.33747952
_cell_angle_beta   87.60946165
_cell_angle_gamma   87.61527524
_symmetry_Int_Tables_number   1
_chemical_formula_structural   RbBa3RhO6
_chemical_formula_sum   'Rb2 Ba6 Rh2 O12'
_cell_volume   385.81511352
_cell_formula_units_Z   2
loop_
 _symmetry_equiv_pos_site_id
 _symmetry_equiv_pos_as_xyz
  1  'x, y, z'
loop_
 _atom_site_type_symbol
 _atom_site_label
 _atom_site_symmetry_multiplicity
 _atom_site_fract_x
 _atom_site_fract_y
 _atom_site_fract_z
 _atom_site_occupancy
  Rb  Rb0  1  0.75004238  0.75099716  0.74894978  1
  Rb  Rb1  1  0.24994545  0.24899673  0.25104108  1
  Ba  Ba0  1  0.74997141  0.11740961  0.38247188  1
  Ba  Ba1  1  0.38672642  0.74723046  0.11002122  1
  Ba  Ba2  1  0.11332404  0.39000553  0.75282196  1
  Ba  Ba3  1  0.25004365  0.88255869  0.61750559  1
  Ba  Ba4  1  0.61327815  0.25276528  0.89000528  1
  Ba  Ba5  1  0.88667606  0.60999898  0.24718239  1
  Rh  Rh0  1  0.50000876  0.50006099  0.49996841  1
  Rh  Rh1  1  0.00000280  0.99997960  0.00003503  1
  O  O0  1  0.56436451  0.75484577  0.43353725  1
  O  O1  1  0.43126449  0.56912919  0.76448523  1
  O  O2  1  0.76144896  0.43028921  0.56872518  1
  O  O3  1  0.93564704  0.06643710  0.74521137  1
  O  O4  1  0.73852800  0.93119350  0.06967385  1
  O  O5  1  0.06875406  0.73550118  0.93087972  1
  O  O6  1  0.43564260  0.24515674  0.56645439  1
  O  O7  1  0.56874158  0.43090076  0.23550511  1
  O  O8  1  0.23858016  0.56973818  0.43126022  1
  O  O9  1  0.06432837  0.93354406  0.25478750  1
  O  O10  1  0.93121420  0.26447244  0.06914071  1
  O  O11  1  0.26146792  0.06878683  0.93033886  1
loop_
_geom_bond_atom_site_label_1
_geom_bond_atom_site_label_2
_geom_bond_distance
_geom_bond_site_symmetry_2
Ba0 O4 2.704682 1_545
Ba0 O2 2.705171 1_555
Ba0 O9 2.762641 1_645
Ba0 O6 2.763033 1_555
Ba0 O10 2.780202 1_555
Ba0 O7 2.780761 1_555
Ba0 O0 3.015286 1_545
Ba0 O3 3.017107 1_555
Ba1 O5 2.722194 1_554
Ba1 O0 2.738151 1_555
Ba1 O7 2.746689 1_555
Ba1 O11 2.764737 1_564
Ba1 O8 2.813564 1_555
Ba1 O9 2.859855 1_555
Ba1 O1 2.878214 1_554
Ba1 O4 2.950409 1_555
Ba2 O1 2.721673 1_555
Ba2 O3 2.738203 1_455
Ba2 O10 2.747139 1_456
Ba2 O8 2.765003 1_555
Ba2 O11 2.813464 1_555
Ba2 O6 2.859798 1_555
Ba2 O5 2.877583 1_555
Ba2 O2 2.951581 1_455
Ba3 O8 2.704760 1_555
Ba3 O11 2.704939 1_565
Ba3 O0 2.762858 1_555
Ba3 O3 2.762967 1_465
Ba3 O1 2.780415 1_555
Ba3 O5 2.780589 1_555
Ba3 O6 3.015471 1_565
Ba3 O9 3.017116 1_555
Ba4 O10 2.721924 1_556
Ba4 O6 2.738360 1_555
Ba4 O1 2.746966 1_555
Ba4 O4 2.764762 1_546
Ba4 O2 2.813967 1_555
Ba4 O3 2.859806 1_555
Ba4 O7 2.878101 1_556
Ba4 O11 2.950516 1_555
Ba5 O7 2.721548 1_555
Ba5 O9 2.737958 1_655
Ba5 O5 2.746867 1_654
Ba5 O2 2.764750 1_555
Ba5 O4 2.813310 1_555
Ba5 O0 2.859710 1_555
Ba5 O10 2.877712 1_555
Ba5 O8 2.951696 1_655
O0 Rh0 1.962880 1_555
O0 Rb0 2.712248 1_555
O1 Rh0 2.046497 1_555
O1 Rb0 2.726895 1_555
O2 Rh0 2.037651 1_555
O2 Rb0 2.722123 1_555
O3 Rh1 1.963492 1_646
O3 Rb0 2.711752 1_545
O4 Rh1 2.037654 1_655
O4 Rb0 2.722304 1_554
O5 Rh1 2.046202 1_556
O5 Rb0 2.726938 1_455
O6 Rh0 1.963795 1_555
O6 Rb1 2.712332 1_555
O7 Rh0 2.046301 1_555
O7 Rb1 2.727148 1_555
O8 Rh0 2.037338 1_555
O8 Rb1 2.722324 1_555
O9 Rh1 1.962914 1_555
O9 Rb1 2.711878 1_565
O10 Rh1 2.046254 1_645
O10 Rb1 2.726954 1_655
O11 Rh1 2.037712 1_546
O11 Rb1 2.722215 1_556
