# generated using pymatgen
data_Hf3Ta6NbN12
_symmetry_space_group_name_H-M   'P 1'
_cell_length_a   5.26684514
_cell_length_b   5.26806437
_cell_length_c   10.47912919
_cell_angle_alpha   89.99227675
_cell_angle_beta   89.99300863
_cell_angle_gamma   120.13963480
_symmetry_Int_Tables_number   1
_chemical_formula_structural   Hf3Ta6NbN12
_chemical_formula_sum   'Hf3 Ta6 Nb1 N12'
_cell_volume   251.44594545
_cell_formula_units_Z   1
loop_
 _symmetry_equiv_pos_site_id
 _symmetry_equiv_pos_as_xyz
  1  'x, y, z'
loop_
 _atom_site_type_symbol
 _atom_site_label
 _atom_site_symmetry_multiplicity
 _atom_site_fract_x
 _atom_site_fract_y
 _atom_site_fract_z
 _atom_site_occupancy
  Hf  Hf0  1  0.66697561  0.33479111  0.00006172  1
  Hf  Hf1  1  0.33494241  0.66697370  0.00011296  1
  Hf  Hf2  1  0.33457622  0.66671285  0.49960254  1
  Ta  Ta0  1  0.31860565  0.99735308  0.74843550  1
  Ta  Ta1  1  0.00106976  0.32046601  0.74841965  1
  Ta  Ta2  1  0.31996559  0.32151531  0.25181332  1
  Ta  Ta3  1  0.67959517  0.99912485  0.25176266  1
  Ta  Ta4  1  0.00250177  0.68115135  0.25183729  1
  Ta  Ta5  1  0.66644551  0.33437742  0.49989867  1
  Nb  Nb0  1  0.67700033  0.67876529  0.74786239  1
  N  N0  1  0.65980675  0.65371557  0.37828426  1
  N  N1  1  0.34863362  0.00654834  0.37808425  1
  N  N2  1  0.99414965  0.34249337  0.37815462  1
  N  N3  1  0.34221316  0.33609629  0.62045276  1
  N  N4  1  0.65642091  0.01041088  0.62138234  1
  N  N5  1  0.99748652  0.65028611  0.62142491  1
  N  N6  1  0.33999515  0.33970177  0.87423183  1
  N  N7  1  0.65286084  0.00432523  0.87341073  1
  N  N8  1  0.00387859  0.65257470  0.87343136  1
  N  N9  1  0.65568789  0.65532178  0.12704940  1
  N  N10  1  0.34694843  0.00068642  0.12714030  1
  N  N11  1  0.00023747  0.34660657  0.12714553  1
loop_
_geom_bond_atom_site_label_1
_geom_bond_atom_site_label_2
_geom_bond_distance
_geom_bond_site_symmetry_2
Hf0 N7 2.160656 1_554
Hf0 N9 2.174175 1_555
Hf0 N8 2.174346 1_654
Hf0 N10 2.175293 1_555
Hf0 N11 2.179246 1_655
Hf0 N6 2.179552 1_554
Hf1 N8 2.162445 1_554
Hf1 N9 2.175226 1_555
Hf1 N7 2.176113 1_564
Hf1 N11 2.176960 1_555
Hf1 N10 2.180727 1_565
Hf1 N6 2.181734 1_554
Hf2 N5 2.152754 1_455
Hf2 N0 2.161562 1_555
Hf2 N2 2.162763 1_455
Hf2 N1 2.167576 1_565
Hf2 N4 2.167786 1_565
Hf2 N3 2.169959 1_555
N0 Ta5 2.124610 1_555
N0 Ta4 2.184443 1_655
N0 Ta2 2.208713 1_555
N0 Ta3 2.211031 1_555
N1 Ta5 2.124154 1_555
N1 Ta2 2.185839 1_555
N1 Ta3 2.204587 1_545
N1 Ta4 2.207968 1_545
N2 Ta5 2.129255 1_555
N2 Ta3 2.182371 1_545
N2 Ta4 2.203986 1_655
N2 Ta2 2.213529 1_655
N3 Ta5 2.127721 1_555
N3 Ta0 2.185211 1_545
N3 Ta1 2.210007 1_555
N3 Nb0 2.226033 1_555
N4 Ta5 2.108336 1_555
N4 Ta1 2.181486 1_655
N4 Ta0 2.195334 1_545
N4 Nb0 2.238410 1_545
N5 Ta5 2.125697 1_555
N5 Ta1 2.196050 1_655
N5 Ta0 2.206968 1_655
N5 Nb0 2.209301 1_555
N6 Ta1 2.180339 1_555
N6 Ta0 2.190833 1_545
N6 Nb0 2.215761 1_555
N7 Ta0 2.179766 1_545
N7 Ta1 2.187300 1_655
N7 Nb0 2.215417 1_545
N8 Ta0 2.176642 1_555
N8 Ta1 2.179904 1_555
N8 Nb0 2.225650 1_455
N9 Ta3 2.185367 1_555
N9 Ta2 2.191925 1_555
N9 Ta4 2.194554 1_655
N10 Ta4 2.182745 1_545
N10 Ta3 2.188621 1_545
N10 Ta2 2.196680 1_555
N11 Ta2 2.187216 1_555
N11 Ta4 2.189313 1_555
N11 Ta3 2.191482 1_445
