# generated using pymatgen
data_YCuH6Os
_symmetry_space_group_name_H-M   'P 1'
_cell_length_a   4.81569702
_cell_length_b   4.81569760
_cell_length_c   4.81569816
_cell_angle_alpha   60.00000297
_cell_angle_beta   59.99999896
_cell_angle_gamma   60.00001514
_symmetry_Int_Tables_number   1
_chemical_formula_structural   YCuH6Os
_chemical_formula_sum   'Y1 Cu1 H6 Os1'
_cell_volume   78.97009848
_cell_formula_units_Z   1
loop_
 _symmetry_equiv_pos_site_id
 _symmetry_equiv_pos_as_xyz
  1  'x, y, z'
loop_
 _atom_site_type_symbol
 _atom_site_label
 _atom_site_symmetry_multiplicity
 _atom_site_fract_x
 _atom_site_fract_y
 _atom_site_fract_z
 _atom_site_occupancy
  Y  Y0  1  0.25000000  0.25000000  0.25000000  1
  Cu  Cu0  1  0.75000000  0.75000000  0.75000000  1
  H  H0  1  0.75055051  0.24944949  0.24944949  1
  H  H1  1  0.24944949  0.75055051  0.75055051  1
  H  H2  1  0.24944949  0.75055051  0.24944949  1
  H  H3  1  0.75055051  0.24944949  0.75055051  1
  H  H4  1  0.24944949  0.24944949  0.75055051  1
  H  H5  1  0.75055051  0.75055051  0.24944949  1
  Os  Os0  1  0.00000000  0.00000000  0.00000000  1
loop_
_geom_bond_atom_site_label_1
_geom_bond_atom_site_label_2
_geom_bond_distance
_geom_bond_site_symmetry_2
Cu0 H1 2.407851 1_655
Cu0 H1 2.407851 1_555
Cu0 H2 2.407852 1_556
Cu0 H2 2.407852 1_655
Cu0 H3 2.407852 1_565
Cu0 H3 2.407852 1_555
Cu0 H0 2.407852 1_565
Cu0 H0 2.407852 1_556
Cu0 H5 2.407852 1_556
Cu0 H5 2.407852 1_555
Cu0 H4 2.407852 1_565
Cu0 H4 2.407852 1_655
H0 Os0 1.698857 1_655
H0 Y0 2.407851 1_655
H0 Y0 2.407851 1_555
H1 Os0 1.698857 1_566
H1 Y0 2.407852 1_565
H1 Y0 2.407852 1_556
H2 Os0 1.698857 1_565
H2 Y0 2.407852 1_565
H2 Y0 2.407852 1_555
H3 Os0 1.698857 1_656
H3 Y0 2.407852 1_556
H3 Y0 2.407852 1_655
H4 Os0 1.698857 1_556
H4 Y0 2.407852 1_556
H4 Y0 2.407852 1_555
H5 Os0 1.698857 1_665
H5 Y0 2.407852 1_565
H5 Y0 2.407852 1_655
