# generated using pymatgen
data_RbNa(ClF4)2
_symmetry_space_group_name_H-M   'P 1'
_cell_length_a   7.75630978
_cell_length_b   7.78936944
_cell_length_c   6.88810240
_cell_angle_alpha   48.16505592
_cell_angle_beta   48.35501683
_cell_angle_gamma   43.94082361
_symmetry_Int_Tables_number   1
_chemical_formula_structural   RbNa(ClF4)2
_chemical_formula_sum   'Rb1 Na1 Cl2 F8'
_cell_volume   201.03360584
_cell_formula_units_Z   1
loop_
 _symmetry_equiv_pos_site_id
 _symmetry_equiv_pos_as_xyz
  1  'x, y, z'
loop_
 _atom_site_type_symbol
 _atom_site_label
 _atom_site_symmetry_multiplicity
 _atom_site_fract_x
 _atom_site_fract_y
 _atom_site_fract_z
 _atom_site_occupancy
  Rb  Rb0  1  0.50000000  0.50000000  0.50000000  1
  Na  Na0  1  0.00000000  0.00000000  0.00000000  1
  Cl  Cl0  1  0.25632580  0.25477669  0.27870164  1
  Cl  Cl1  1  0.74367420  0.74522331  0.72129836  1
  F  F0  1  0.59508526  0.13736525  0.02345437  1
  F  F1  1  0.14400594  0.59288761  0.02080014  1
  F  F2  1  0.65080564  0.07196159  0.45791040  1
  F  F3  1  0.07061511  0.64782016  0.46095506  1
  F  F4  1  0.92938489  0.35217984  0.53904494  1
  F  F5  1  0.34919436  0.92803841  0.54208960  1
  F  F6  1  0.85599406  0.40711239  0.97919986  1
  F  F7  1  0.40491474  0.86263475  0.97654563  1
loop_
_geom_bond_atom_site_label_1
_geom_bond_atom_site_label_2
_geom_bond_distance
_geom_bond_site_symmetry_2
Cl0 F4 1.795140 1_455
Cl0 F5 1.795827 1_545
Cl0 F1 1.833701 1_555
Cl0 F0 1.837438 1_555
Cl1 F3 1.795140 1_655
Cl1 F2 1.795827 1_565
Cl1 F6 1.833701 1_555
Cl1 F7 1.837438 1_555
F0 Na0 2.398217 1_655
F0 Rb0 2.910507 1_554
F1 Na0 2.414535 1_565
F1 Rb0 2.904738 1_554
F2 Na0 2.533171 1_655
F2 Rb0 2.791272 1_555
F3 Na0 2.536750 1_565
F3 Rb0 2.782948 1_555
F4 Na0 2.536750 1_656
F4 Rb0 2.782948 1_555
F5 Na0 2.533171 1_566
F5 Rb0 2.791272 1_555
F6 Na0 2.414535 1_656
F6 Rb0 2.904738 1_556
F7 Na0 2.398217 1_566
F7 Rb0 2.910507 1_556
