# generated using pymatgen
data_Ta3Al2BRh
_symmetry_space_group_name_H-M   'P 1'
_cell_length_a   8.33163506
_cell_length_b   8.33163514
_cell_length_c   8.33163451
_cell_angle_alpha   60.00000250
_cell_angle_beta   60.00000221
_cell_angle_gamma   60.00000402
_symmetry_Int_Tables_number   1
_chemical_formula_structural   Ta3Al2BRh
_chemical_formula_sum   'Ta12 Al8 B4 Rh4'
_cell_volume   408.95518879
_cell_formula_units_Z   4
loop_
 _symmetry_equiv_pos_site_id
 _symmetry_equiv_pos_as_xyz
  1  'x, y, z'
loop_
 _atom_site_type_symbol
 _atom_site_label
 _atom_site_symmetry_multiplicity
 _atom_site_fract_x
 _atom_site_fract_y
 _atom_site_fract_z
 _atom_site_occupancy
  Ta  Ta0  1  0.55781725  0.94218275  0.55781725  1
  Ta  Ta1  1  0.30781725  0.69218275  0.69218275  1
  Ta  Ta2  1  0.69218275  0.30781725  0.30781725  1
  Ta  Ta3  1  0.30781725  0.69218275  0.30781725  1
  Ta  Ta4  1  0.69218275  0.69218275  0.30781725  1
  Ta  Ta5  1  0.30781725  0.30781725  0.69218275  1
  Ta  Ta6  1  0.55781725  0.55781725  0.94218275  1
  Ta  Ta7  1  0.94218275  0.55781725  0.55781725  1
  Ta  Ta8  1  0.55781725  0.94218275  0.94218275  1
  Ta  Ta9  1  0.94218275  0.94218275  0.55781725  1
  Ta  Ta10  1  0.69218275  0.30781725  0.69218275  1
  Ta  Ta11  1  0.94218275  0.55781725  0.94218275  1
  Al  Al0  1  0.91673636  0.91673636  0.91673636  1
  Al  Al1  1  0.00020809  0.33326364  0.33326364  1
  Al  Al2  1  0.33326364  0.00020809  0.33326364  1
  Al  Al3  1  0.33326364  0.33326364  0.00020809  1
  Al  Al4  1  0.91673636  0.24979191  0.91673636  1
  Al  Al5  1  0.91673636  0.91673636  0.24979191  1
  Al  Al6  1  0.24979191  0.91673636  0.91673636  1
  Al  Al7  1  0.33326364  0.33326364  0.33326364  1
  B  B0  1  0.62500000  0.62500000  0.62500000  1
  B  B1  1  0.12500000  0.62500000  0.62500000  1
  B  B2  1  0.62500000  0.12500000  0.62500000  1
  B  B3  1  0.62500000  0.62500000  0.12500000  1
  Rh  Rh0  1  0.12500000  0.12500000  0.12500000  1
  Rh  Rh1  1  0.62500000  0.12500000  0.12500000  1
  Rh  Rh2  1  0.12500000  0.62500000  0.12500000  1
  Rh  Rh3  1  0.12500000  0.12500000  0.62500000  1
loop_
_geom_bond_atom_site_label_1
_geom_bond_atom_site_label_2
_geom_bond_distance
_geom_bond_site_symmetry_2
Al0 Rh3 2.550558 1_665
Al0 Rh1 2.550558 1_566
Al0 Rh2 2.550558 1_656
Al1 Rh0 2.550556 1_555
Al1 Rh3 2.550563 1_555
Al1 Rh2 2.550563 1_555
Al2 Rh0 2.550556 1_555
Al2 Rh3 2.550563 1_555
Al2 Rh1 2.550563 1_555
Al3 Rh0 2.550556 1_555
Al3 Rh1 2.550563 1_555
Al3 Rh2 2.550563 1_555
Al4 Rh0 2.550556 1_656
Al4 Rh3 2.550563 1_655
Al4 Rh1 2.550563 1_556
Al5 Rh0 2.550556 1_665
Al5 Rh1 2.550563 1_565
Al5 Rh2 2.550563 1_655
Al6 Rh0 2.550556 1_566
Al6 Rh3 2.550563 1_565
Al6 Rh2 2.550563 1_556
Al7 Rh3 2.550558 1_555
Al7 Rh1 2.550558 1_555
Al7 Rh2 2.550558 1_555
B0 Ta6 2.228257 1_555
B0 Ta4 2.228257 1_555
B0 Ta7 2.228258 1_555
B0 Ta1 2.228258 1_555
B0 Ta0 2.228258 1_555
B0 Ta10 2.228258 1_555
B1 Ta11 2.228257 1_455
B1 Ta3 2.228257 1_555
B1 Ta1 2.228257 1_555
B1 Ta7 2.228257 1_455
B1 Ta5 2.228258 1_555
B1 Ta9 2.228258 1_455
B2 Ta10 2.228257 1_555
B2 Ta0 2.228257 1_545
B2 Ta2 2.228257 1_555
B2 Ta8 2.228257 1_545
B2 Ta9 2.228258 1_545
B2 Ta5 2.228258 1_555
B3 Ta4 2.228257 1_555
B3 Ta6 2.228257 1_554
B3 Ta11 2.228258 1_554
B3 Ta3 2.228258 1_555
B3 Ta8 2.228258 1_554
B3 Ta2 2.228258 1_555
Rh0 Ta9 2.996428 1_445
Rh0 Ta5 2.996428 1_554
Rh0 Ta8 2.996428 1_544
Rh0 Ta2 2.996428 1_455
Rh0 Ta11 2.996428 1_454
Rh0 Ta3 2.996428 1_545
Rh1 Ta2 2.996428 1_555
Rh1 Ta8 2.996428 1_544
Rh1 Ta0 2.996428 1_545
Rh1 Ta10 2.996428 1_554
Rh1 Ta6 2.996428 1_554
Rh1 Ta4 2.996428 1_545
Rh2 Ta7 2.996428 1_455
Rh2 Ta1 2.996428 1_554
Rh2 Ta3 2.996428 1_555
Rh2 Ta11 2.996428 1_454
Rh2 Ta6 2.996428 1_554
Rh2 Ta4 2.996428 1_455
Rh3 Ta5 2.996428 1_555
Rh3 Ta9 2.996428 1_445
Rh3 Ta0 2.996428 1_545
Rh3 Ta10 2.996428 1_455
Rh3 Ta7 2.996428 1_455
Rh3 Ta1 2.996428 1_545
