# generated using pymatgen
data_Cs7VIn3As5
_symmetry_space_group_name_H-M   'P 1'
_cell_length_a   8.89374156
_cell_length_b   9.67507860
_cell_length_c   14.93240649
_cell_angle_alpha   85.03637423
_cell_angle_beta   84.88990756
_cell_angle_gamma   85.15590330
_symmetry_Int_Tables_number   1
_chemical_formula_structural   Cs7VIn3As5
_chemical_formula_sum   'Cs14 V2 In6 As10'
_cell_volume   1271.17373039
_cell_formula_units_Z   2
loop_
 _symmetry_equiv_pos_site_id
 _symmetry_equiv_pos_as_xyz
  1  'x, y, z'
loop_
 _atom_site_type_symbol
 _atom_site_label
 _atom_site_symmetry_multiplicity
 _atom_site_fract_x
 _atom_site_fract_y
 _atom_site_fract_z
 _atom_site_occupancy
  Cs  Cs0  1  0.84220825  0.36438988  0.64588067  1
  Cs  Cs1  1  0.81226387  0.81190288  0.12821771  1
  Cs  Cs2  1  0.24253255  0.01421740  0.46874319  1
  Cs  Cs3  1  0.26806821  0.25633346  0.25121798  1
  Cs  Cs4  1  0.74388566  0.50394537  0.97588510  1
  Cs  Cs5  1  0.25611434  0.49605463  0.02411490  1
  Cs  Cs6  1  0.68243532  0.08121483  0.88564562  1
  Cs  Cs7  1  0.75746745  0.98578260  0.53125681  1
  Cs  Cs8  1  0.73193179  0.74366654  0.74878202  1
  Cs  Cs9  1  0.32648081  0.34457976  0.60208834  1
  Cs  Cs10  1  0.15779175  0.63561012  0.35411933  1
  Cs  Cs11  1  0.18773613  0.18809712  0.87178229  1
  Cs  Cs12  1  0.31756468  0.91878517  0.11435438  1
  Cs  Cs13  1  0.67351919  0.65542024  0.39791166  1
  V  V0  1  0.35541577  0.61045586  0.77319615  1
  V  V1  1  0.64458423  0.38954414  0.22680385  1
  In  In0  1  0.06558575  0.81194791  0.86663472  1
  In  In1  1  0.93441425  0.18805209  0.13336528  1
  In  In2  1  0.36421176  0.94947803  0.70628601  1
  In  In3  1  0.10183378  0.72458285  0.62701919  1
  In  In4  1  0.89816622  0.27541715  0.37298081  1
  In  In5  1  0.63578824  0.05052197  0.29371399  1
  As  As0  1  0.90219441  0.44739467  0.21186571  1
  As  As1  1  0.62176828  0.20747935  0.12714542  1
  As  As2  1  0.09780559  0.55260533  0.78813429  1
  As  As3  1  0.58348249  0.29671809  0.38111150  1
  As  As4  1  0.41651751  0.70328191  0.61888850  1
  As  As5  1  0.04068638  0.99313340  0.70284114  1
  As  As6  1  0.50964222  0.41586055  0.80739437  1
  As  As7  1  0.49035778  0.58413945  0.19260563  1
  As  As8  1  0.37823172  0.79252065  0.87285458  1
  As  As9  1  0.95931362  0.00686660  0.29715886  1
loop_
_geom_bond_atom_site_label_1
_geom_bond_atom_site_label_2
_geom_bond_distance
_geom_bond_site_symmetry_2
Cs0 Cs8 4.109481 1_555
Cs0 In4 4.215226 1_555
Cs1 In5 3.685756 1_565
Cs1 In1 3.893768 1_565
Cs1 In0 4.331910 1_654
Cs2 In3 3.731426 1_545
Cs2 In2 3.785515 1_545
Cs2 Cs3 3.838130 1_555
Cs2 In4 4.081542 1_455
Cs2 In5 4.196087 1_555
Cs3 In4 3.612867 1_455
Cs3 V1 3.665713 1_555
Cs3 In1 3.715051 1_455
Cs3 In5 3.756924 1_555
Cs3 Cs5 3.943638 1_555
Cs4 Cs8 3.943638 1_555
Cs6 Cs8 3.973399 1_545
Cs7 In4 3.731426 1_565
Cs7 In5 3.785515 1_565
Cs7 Cs8 3.838130 1_555
Cs7 In3 4.081542 1_655
Cs7 In2 4.196087 1_555
Cs8 In3 3.612867 1_655
Cs8 V0 3.665713 1_555
Cs8 In0 3.715051 1_655
Cs8 In2 3.756924 1_555
Cs9 In2 3.999151 1_545
Cs10 Cs3 4.109481 1_555
Cs10 In3 4.215226 1_555
Cs11 In2 3.685756 1_545
Cs11 In0 3.893768 1_545
Cs11 In1 4.331910 1_456
Cs12 Cs3 3.973399 1_565
Cs13 In5 3.999151 1_565
As0 V1 2.390854 1_555
As0 In4 2.803547 1_555
As0 In1 2.842490 1_555
As0 Cs3 3.672543 1_655
As0 Cs1 3.684619 1_555
As0 Cs4 3.888270 1_554
As0 Cs13 3.895477 1_555
As0 Cs10 3.901847 1_655
As0 Cs5 4.054545 1_655
As1 V1 2.434413 1_555
As1 In1 2.780353 1_555
As1 In5 2.806739 1_555
As1 Cs3 3.523303 1_555
As1 Cs4 3.671044 1_554
As1 Cs6 3.884889 1_554
As1 Cs1 4.051848 1_545
As2 V0 2.390854 1_555
As2 In3 2.803547 1_555
As2 In0 2.842490 1_555
As2 Cs8 3.672543 1_455
As2 Cs11 3.684619 1_555
As2 Cs5 3.888270 1_556
As2 Cs9 3.895477 1_555
As2 Cs0 3.901847 1_455
As2 Cs4 4.054545 1_455
As3 V1 2.431548 1_555
As3 In4 2.781440 1_555
As3 In5 2.799282 1_555
As3 Cs3 3.615183 1_555
As3 Cs13 3.661164 1_555
As3 Cs9 3.881894 1_555
As3 Cs7 3.890472 1_545
As4 V0 2.431548 1_555
As4 In3 2.781440 1_555
As4 In2 2.799282 1_555
As4 Cs8 3.615183 1_555
As4 Cs9 3.661164 1_555
As4 Cs13 3.881894 1_555
As4 Cs2 3.890472 1_565
As5 In2 2.877073 1_555
As5 In0 2.897080 1_555
As5 In3 2.913634 1_555
As5 Cs11 3.668829 1_565
As5 Cs7 3.758451 1_455
As5 Cs2 3.782110 1_565
As5 Cs8 3.786002 1_455
As5 Cs0 3.925475 1_465
As5 Cs6 4.089499 1_465
As6 V0 2.282348 1_555
As6 Cs4 3.605713 1_555
As6 Cs6 3.610368 1_555
As6 Cs0 3.674419 1_555
As6 Cs9 3.738054 1_555
As6 Cs11 3.766350 1_555
As6 Cs5 3.872733 1_556
As6 Cs8 3.873446 1_555
As7 V1 2.282348 1_555
As7 Cs5 3.605713 1_555
As7 Cs12 3.610368 1_555
As7 Cs10 3.674419 1_555
As7 Cs13 3.738054 1_555
As7 Cs1 3.766350 1_555
As7 Cs4 3.872733 1_554
As7 Cs3 3.873446 1_555
As8 V0 2.434413 1_555
As8 In0 2.780353 1_555
As8 In2 2.806739 1_555
As8 Cs8 3.523303 1_555
As8 Cs5 3.671044 1_556
As8 Cs12 3.884889 1_556
As8 Cs11 4.051848 1_565
As9 In5 2.877073 1_555
As9 In1 2.897080 1_555
As9 In4 2.913634 1_555
As9 Cs1 3.668829 1_545
As9 Cs2 3.758451 1_655
As9 Cs7 3.782110 1_545
As9 Cs3 3.786002 1_655
As9 Cs10 3.925475 1_645
As9 Cs12 4.089499 1_645
