# generated using pymatgen
data_Hf10CuSiPb6
_symmetry_space_group_name_H-M   'P 1'
_cell_length_a   8.65218032
_cell_length_b   8.65217948
_cell_length_c   5.85426302
_cell_angle_alpha   90.00000000
_cell_angle_beta   90.00000000
_cell_angle_gamma   119.99999951
_symmetry_Int_Tables_number   1
_chemical_formula_structural   Hf10CuSiPb6
_chemical_formula_sum   'Hf10 Cu1 Si1 Pb6'
_cell_volume   379.53684764
_cell_formula_units_Z   1
loop_
 _symmetry_equiv_pos_site_id
 _symmetry_equiv_pos_as_xyz
  1  'x, y, z'
loop_
 _atom_site_type_symbol
 _atom_site_label
 _atom_site_symmetry_multiplicity
 _atom_site_fract_x
 _atom_site_fract_y
 _atom_site_fract_z
 _atom_site_occupancy
  Hf  Hf0  1  0.66666700  0.33333300  0.00000000  1
  Hf  Hf1  1  1.00000000  0.25593413  0.24854694  1
  Hf  Hf2  1  0.74406587  1.00000000  0.75145306  1
  Hf  Hf3  1  0.25593413  0.25593413  0.75145306  1
  Hf  Hf4  1  0.33333300  0.66666700  0.50000000  1
  Hf  Hf5  1  0.33333300  0.66666700  0.00000000  1
  Hf  Hf6  1  0.00000000  0.74406587  0.75145306  1
  Hf  Hf7  1  0.66666700  0.33333300  0.50000000  1
  Hf  Hf8  1  0.74406587  0.74406587  0.24854694  1
  Hf  Hf9  1  0.25593413  0.00000000  0.24854694  1
  Cu  Cu0  1  0.00000000  0.00000000  0.50000000  1
  Si  Si0  1  0.00000000  0.00000000  0.00000000  1
  Pb  Pb0  1  0.60969922  0.60969922  0.74874823  1
  Pb  Pb1  1  0.39030078  1.00000000  0.74874823  1
  Pb  Pb2  1  1.00000000  0.60969922  0.25125177  1
  Pb  Pb3  1  0.39030078  0.39030078  0.25125177  1
  Pb  Pb4  1  0.00000000  0.39030078  0.74874823  1
  Pb  Pb5  1  0.60969922  0.00000000  0.25125177  1
loop_
_geom_bond_atom_site_label_1
_geom_bond_atom_site_label_2
_geom_bond_distance
_geom_bond_site_symmetry_2
Hf0 Pb5 3.050036 1_555
Hf0 Pb4 3.050036 1_654
Hf0 Pb1 3.050039 1_544
Hf0 Pb2 3.050039 1_555
Hf0 Pb0 3.050044 1_554
Hf0 Pb3 3.050044 1_555
Hf1 Si0 2.649663 1_655
Hf1 Pb5 2.971480 1_555
Hf1 Pb3 2.971480 1_655
Hf1 Pb2 3.060880 1_555
Hf1 Pb4 3.148453 1_654
Hf1 Pb4 3.150644 1_655
Hf2 Si0 2.649663 1_666
Hf2 Pb0 2.971479 1_555
Hf2 Pb4 2.971479 1_665
Hf2 Pb1 3.060880 1_555
Hf2 Pb5 3.148453 1_566
Hf2 Pb5 3.150644 1_565
Hf3 Si0 2.649663 1_556
Hf3 Pb1 2.971479 1_545
Hf3 Pb4 2.971480 1_555
Hf3 Pb0 3.060880 1_555
Hf3 Pb3 3.148453 1_556
Hf3 Pb3 3.150644 1_555
Hf4 Pb1 3.042995 1_555
Hf4 Pb2 3.042995 1_455
Hf4 Pb5 3.042998 1_565
Hf4 Pb4 3.042998 1_555
Hf4 Pb3 3.043003 1_555
Hf4 Pb0 3.043003 1_555
Hf5 Pb1 3.050036 1_554
Hf5 Pb2 3.050036 1_455
Hf5 Pb5 3.050039 1_565
Hf5 Pb4 3.050039 1_554
Hf5 Pb3 3.050044 1_555
Hf5 Pb0 3.050044 1_554
Hf6 Si0 2.649663 1_566
Hf6 Pb1 2.971480 1_555
Hf6 Pb0 2.971480 1_455
Hf6 Pb4 3.060880 1_555
Hf6 Pb2 3.148453 1_456
Hf6 Pb2 3.150644 1_455
Hf7 Pb5 3.042995 1_555
Hf7 Pb4 3.042995 1_655
Hf7 Pb1 3.042998 1_545
Hf7 Pb2 3.042998 1_555
Hf7 Pb0 3.043003 1_555
Hf7 Pb3 3.043003 1_555
Hf8 Si0 2.649663 1_665
Hf8 Pb5 2.971479 1_565
Hf8 Pb2 2.971480 1_555
Hf8 Pb3 3.060880 1_555
Hf8 Pb0 3.148453 1_554
Hf8 Pb0 3.150644 1_555
Hf9 Si0 2.649663 1_555
Hf9 Pb3 2.971479 1_555
Hf9 Pb2 2.971479 1_445
Hf9 Pb5 3.060880 1_555
Hf9 Pb1 3.148453 1_544
Hf9 Pb1 3.150644 1_545
Cu0 Hf1 2.659043 1_455
Cu0 Hf6 2.659043 1_545
Cu0 Hf3 2.659043 1_555
Cu0 Hf8 2.659043 1_445
Cu0 Hf9 2.659044 1_555
Cu0 Hf2 2.659044 1_445
