# generated using pymatgen
data_Ta10SiB4As
_symmetry_space_group_name_H-M   'P 1'
_cell_length_a   7.27089850
_cell_length_b   7.27089816
_cell_length_c   7.27089923
_cell_angle_alpha   129.26119660
_cell_angle_beta   129.26120112
_cell_angle_gamma   74.59065995
_symmetry_Int_Tables_number   1
_chemical_formula_structural   Ta10SiB4As
_chemical_formula_sum   'Ta10 Si1 B4 As1'
_cell_volume   224.53423580
_cell_formula_units_Z   1
loop_
 _symmetry_equiv_pos_site_id
 _symmetry_equiv_pos_as_xyz
  1  'x, y, z'
loop_
 _atom_site_type_symbol
 _atom_site_label
 _atom_site_symmetry_multiplicity
 _atom_site_fract_x
 _atom_site_fract_y
 _atom_site_fract_z
 _atom_site_occupancy
  Ta  Ta0  1  0.52961893  0.69756301  0.50483096  1
  Ta  Ta1  1  0.02478797  0.52961893  0.83205492  1
  Ta  Ta2  1  0.69756301  0.19273204  0.16794508  1
  Ta  Ta3  1  0.97038107  0.47521203  0.16794508  1
  Ta  Ta4  1  0.19273204  0.02478797  0.49516904  1
  Ta  Ta5  1  0.47521203  0.30726796  0.50483096  1
  Ta  Ta6  1  0.80243699  0.97038107  0.49516904  1
  Ta  Ta7  1  0.30726796  0.80243699  0.83205492  1
  Ta  Ta8  1  0.99984596  0.99984596  1.00000000  1
  Ta  Ta9  1  0.50015404  0.50015404  0.00000000  1
  Si  Si0  1  0.75000000  0.75000000  0.00000000  1
  B  B0  1  0.61869325  0.11869325  0.73738551  1
  B  B1  1  0.11869325  0.38130675  0.50000000  1
  B  B2  1  0.88130675  0.61869325  0.50000000  1
  B  B3  1  0.38130675  0.88130675  0.26261449  1
  As  As0  1  0.25000000  0.25000000  0.00000000  1
loop_
_geom_bond_atom_site_label_1
_geom_bond_atom_site_label_2
_geom_bond_distance
_geom_bond_site_symmetry_2
Si0 Ta2 2.638288 1_565
Si0 Ta7 2.638288 1_554
Si0 Ta4 2.638289 1_665
Si0 Ta5 2.638289 1_554
Si0 Ta0 2.638290 1_554
Si0 Ta6 2.638290 1_555
Si0 Ta3 2.638294 1_555
Si0 Ta1 2.638294 1_654
Si0 Ta8 2.890301 1_554
Si0 Ta9 2.890301 1_555
B0 B3 2.091655 1_545
B0 Ta5 2.401855 1_555
B0 Ta0 2.401862 1_545
B0 Ta6 2.420319 1_545
B0 Ta4 2.420326 1_555
B0 Ta3 2.485496 1_556
B0 Ta2 2.485511 1_556
B0 Ta8 2.488161 1_545
B0 Ta9 2.488161 1_556
B1 B2 2.091664 1_455
B1 Ta2 2.401862 1_455
B1 Ta7 2.401862 1_555
B1 Ta3 2.420318 1_455
B1 Ta1 2.420318 1_555
B1 Ta4 2.485497 1_555
B1 Ta5 2.485497 1_555
B1 Ta9 2.488159 1_556
B1 Ta8 2.488159 1_444
B2 Ta1 2.401854 1_655
B2 Ta3 2.401854 1_555
B2 Ta7 2.420325 1_655
B2 Ta2 2.420325 1_555
B2 Ta6 2.485497 1_555
B2 Ta0 2.485497 1_555
B2 Ta9 2.488159 1_555
B2 Ta8 2.488159 1_555
B3 Ta4 2.401855 1_565
B3 Ta6 2.401862 1_555
B3 Ta0 2.420319 1_555
B3 Ta5 2.420326 1_565
B3 Ta1 2.485496 1_554
B3 Ta7 2.485511 1_554
B3 Ta8 2.488161 1_454
B3 Ta9 2.488161 1_555
As0 Ta7 2.673592 1_544
As0 Ta2 2.673592 1_555
As0 Ta6 2.673593 1_444
As0 Ta0 2.673593 1_555
As0 Ta5 2.673594 1_555
As0 Ta4 2.673594 1_554
As0 Ta1 2.673598 1_554
As0 Ta3 2.673598 1_455
As0 Ta9 2.893865 1_555
As0 Ta8 2.893865 1_444
