# generated using pymatgen
data_KCoPt3O8
_symmetry_space_group_name_H-M   'P 1'
_cell_length_a   7.19989062
_cell_length_b   7.19989047
_cell_length_c   9.93293198
_cell_angle_alpha   46.33294846
_cell_angle_beta   46.33294845
_cell_angle_gamma   24.85534121
_symmetry_Int_Tables_number   1
_chemical_formula_structural   KCoPt3O8
_chemical_formula_sum   'K1 Co1 Pt3 O8'
_cell_volume   153.05528728
_cell_formula_units_Z   1
loop_
 _symmetry_equiv_pos_site_id
 _symmetry_equiv_pos_as_xyz
  1  'x, y, z'
loop_
 _atom_site_type_symbol
 _atom_site_label
 _atom_site_symmetry_multiplicity
 _atom_site_fract_x
 _atom_site_fract_y
 _atom_site_fract_z
 _atom_site_occupancy
  K  K0  1  0.49304857  0.49304857  0.99969818  1
  Co  Co0  1  0.16669470  0.16669470  0.18640479  1
  Pt  Pt0  1  0.82558706  0.82558706  0.82924583  1
  Pt  Pt1  1  0.65004749  0.65004749  0.51319271  1
  Pt  Pt2  1  0.35835484  0.35835484  0.47123521  1
  O  O0  1  0.17544873  0.17544873  0.36367550  1
  O  O1  1  0.83158398  0.83158398  0.62094387  1
  O  O2  1  0.45109157  0.45109157  0.72524210  1
  O  O3  1  0.55562093  0.55562093  0.27883280  1
  O  O4  1  0.19303244  0.19303244  0.96588164  1
  O  O5  1  0.79315271  0.79315271  0.05948441  1
  O  O6  1  0.85542258  0.85542258  0.33797977  1
  O  O7  1  0.15091341  0.15091341  0.64818522  1
loop_
_geom_bond_atom_site_label_1
_geom_bond_atom_site_label_2
_geom_bond_distance
_geom_bond_site_symmetry_2
K0 O6 2.870745 1_456
K0 O6 2.870745 1_546
K0 O5 2.880060 1_546
K0 O5 2.880060 1_456
K0 O7 2.925651 1_655
K0 O7 2.925651 1_565
K0 O4 3.014406 1_565
K0 O4 3.014406 1_655
Co0 O0 1.849905 1_555
Co0 O3 1.911978 1_545
Co0 O3 1.911978 1_455
Co0 O4 1.946281 1_554
Co0 O5 1.995585 1_455
Co0 O5 1.995585 1_545
O0 Pt1 1.995980 1_455
O0 Pt1 1.995980 1_545
O1 Pt2 1.990542 1_655
O1 Pt2 1.990542 1_565
O1 Pt0 2.010309 1_555
O2 Pt1 1.982688 1_555
O2 Pt0 2.001179 1_545
O2 Pt0 2.001179 1_455
O3 Pt2 1.962381 1_555
O4 Pt0 2.034713 1_455
O4 Pt0 2.034713 1_545
O5 Pt0 1.990767 1_554
O6 Pt2 2.057107 1_565
O6 Pt2 2.057107 1_655
O6 Pt1 2.064525 1_555
O7 Pt1 2.054755 1_545
O7 Pt1 2.054755 1_455
O7 Pt2 2.085334 1_555
