# generated using pymatgen
data_H7PtF12
_symmetry_space_group_name_H-M   'P 1'
_cell_length_a   7.74646633
_cell_length_b   7.74646608
_cell_length_c   5.10143285
_cell_angle_alpha   74.30462394
_cell_angle_beta   74.30462066
_cell_angle_gamma   44.43396009
_symmetry_Int_Tables_number   1
_chemical_formula_structural   H7PtF12
_chemical_formula_sum   'H7 Pt1 F12'
_cell_volume   204.95994255
_cell_formula_units_Z   1
loop_
 _symmetry_equiv_pos_site_id
 _symmetry_equiv_pos_as_xyz
  1  'x, y, z'
loop_
 _atom_site_type_symbol
 _atom_site_label
 _atom_site_symmetry_multiplicity
 _atom_site_fract_x
 _atom_site_fract_y
 _atom_site_fract_z
 _atom_site_occupancy
  H  H0  1  0.81062401  0.82430681  0.83071354  1
  H  H1  1  0.17569319  0.18937599  0.16928646  1
  H  H2  1  0.71697378  0.73544833  0.61185339  1
  H  H3  1  0.26455167  0.28302622  0.38814661  1
  H  H4  1  0.63164428  0.63888737  0.38362342  1
  H  H5  1  0.36111263  0.36835572  0.61637658  1
  H  H6  1  0.49987896  0.50012104  0.50000000  1
  Pt  Pt0  1  0.99930317  0.00069683  0.00000000  1
  F  F0  1  0.91943418  0.91962189  0.75159504  1
  F  F1  1  0.08037811  0.08056582  0.24840496  1
  F  F2  1  0.57140469  0.57139424  0.32575886  1
  F  F3  1  0.42860576  0.42859531  0.67424114  1
  F  F4  1  0.71271718  0.72656856  0.42060805  1
  F  F5  1  0.27343144  0.28728282  0.57939195  1
  F  F6  1  0.85297705  0.30875913  0.78682633  1
  F  F7  1  0.69124087  0.14702295  0.21317367  1
  F  F8  1  0.14589246  0.69275762  0.21323828  1
  F  F9  1  0.30724238  0.85410754  0.78676172  1
  F  F10  1  0.73492480  0.75803261  0.85541788  1
  F  F11  1  0.24196739  0.26507520  0.14458212  1
loop_
_geom_bond_atom_site_label_1
_geom_bond_atom_site_label_2
_geom_bond_distance
_geom_bond_site_symmetry_2
F0 H0 1.400727 1_555
F0 Pt0 1.947513 1_566
F1 H1 1.400727 1_555
F1 Pt0 1.947513 1_455
F2 H4 1.041493 1_555
F2 H6 1.143162 1_555
F3 H5 1.041493 1_555
F3 H6 1.143162 1_555
F4 H2 1.007282 1_555
F4 H4 1.278277 1_555
F5 H3 1.007282 1_555
F5 H5 1.278277 1_555
F6 Pt0 1.887360 1_556
F7 Pt0 1.887360 1_555
F8 Pt0 1.886547 1_465
F9 Pt0 1.886546 1_466
F10 H0 0.989074 1_555
F10 H2 1.356339 1_555
F11 H1 0.989074 1_555
F11 H3 1.356339 1_555
