# generated using pymatgen
data_KLu(SbAu)2
_symmetry_space_group_name_H-M   'P 1'
_cell_length_a   4.52577006
_cell_length_b   4.52576994
_cell_length_c   18.79509441
_cell_angle_alpha   90.00000000
_cell_angle_beta   90.00000000
_cell_angle_gamma   120.00001499
_symmetry_Int_Tables_number   1
_chemical_formula_structural   KLu(SbAu)2
_chemical_formula_sum   'K2 Lu2 Sb4 Au4'
_cell_volume   333.39573194
_cell_formula_units_Z   2
loop_
 _symmetry_equiv_pos_site_id
 _symmetry_equiv_pos_as_xyz
  1  'x, y, z'
loop_
 _atom_site_type_symbol
 _atom_site_label
 _atom_site_symmetry_multiplicity
 _atom_site_fract_x
 _atom_site_fract_y
 _atom_site_fract_z
 _atom_site_occupancy
  K  K0  1  0.00000000  0.00000000  0.50000000  1
  K  K1  1  0.00000000  0.00000000  0.00000000  1
  Lu  Lu0  1  0.00000000  0.00000000  0.25000000  1
  Lu  Lu1  1  0.00000000  0.00000000  0.75000000  1
  Sb  Sb0  1  0.33333300  0.66666700  0.36740180  1
  Sb  Sb1  1  0.66666700  0.33333300  0.63259820  1
  Sb  Sb2  1  0.66666700  0.33333300  0.86740180  1
  Sb  Sb3  1  0.33333300  0.66666700  0.13259820  1
  Au  Au0  1  0.66666700  0.33333300  0.33045754  1
  Au  Au1  1  0.33333300  0.66666700  0.66954246  1
  Au  Au2  1  0.33333300  0.66666700  0.83045754  1
  Au  Au3  1  0.66666700  0.33333300  0.16954246  1
loop_
_geom_bond_atom_site_label_1
_geom_bond_atom_site_label_2
_geom_bond_distance
_geom_bond_site_symmetry_2
K0 Sb1 3.610894 1_455
K0 Sb0 3.610894 1_545
K0 Sb1 3.610897 1_445
K0 Sb0 3.610897 1_555
K0 Sb1 3.610897 1_555
K0 Sb0 3.610897 1_445
K1 Sb3 3.610894 1_545
K1 Sb2 3.610894 1_454
K1 Sb3 3.610897 1_555
K1 Sb2 3.610897 1_444
K1 Sb3 3.610897 1_445
K1 Sb2 3.610897 1_554
Lu0 Sb0 3.420015 1_545
Lu0 Sb3 3.420015 1_545
Lu0 Sb0 3.420018 1_555
Lu0 Sb3 3.420018 1_555
Lu0 Sb0 3.420018 1_445
Lu0 Sb3 3.420018 1_445
Lu1 Sb2 3.420015 1_455
Lu1 Sb1 3.420015 1_455
Lu1 Sb2 3.420018 1_445
Lu1 Sb1 3.420018 1_445
Lu1 Sb2 3.420018 1_555
Lu1 Sb1 3.420018 1_555
Au0 Sb0 2.703639 1_545
Au0 Sb0 2.703639 1_655
Au0 Sb0 2.703648 1_555
Au0 Lu0 3.018988 1_655
Au0 Lu0 3.018991 1_665
Au0 Lu0 3.018991 1_555
Au1 Sb1 2.703639 1_565
Au1 Sb1 2.703639 1_455
Au1 Sb1 2.703648 1_555
Au1 Lu1 3.018988 1_565
Au1 Lu1 3.018991 1_555
Au1 Lu1 3.018991 1_665
Au2 Sb2 2.703639 1_565
Au2 Sb2 2.703639 1_455
Au2 Sb2 2.703648 1_555
Au2 Lu1 3.018988 1_565
Au2 Lu1 3.018991 1_555
Au2 Lu1 3.018991 1_665
Au3 Sb3 2.703639 1_545
Au3 Sb3 2.703639 1_655
Au3 Sb3 2.703648 1_555
Au3 Lu0 3.018988 1_655
Au3 Lu0 3.018991 1_665
Au3 Lu0 3.018991 1_555
