# generated using pymatgen
data_NaNb6(CS2)3
_symmetry_space_group_name_H-M   'P 1'
_cell_length_a   5.75355168
_cell_length_b   5.75355033
_cell_length_c   10.05314837
_cell_angle_alpha   84.50162930
_cell_angle_beta   84.50163294
_cell_angle_gamma   120.01343892
_symmetry_Int_Tables_number   1
_chemical_formula_structural   NaNb6(CS2)3
_chemical_formula_sum   'Na1 Nb6 C3 S6'
_cell_volume   282.82503958
_cell_formula_units_Z   1
loop_
 _symmetry_equiv_pos_site_id
 _symmetry_equiv_pos_as_xyz
  1  'x, y, z'
loop_
 _atom_site_type_symbol
 _atom_site_label
 _atom_site_symmetry_multiplicity
 _atom_site_fract_x
 _atom_site_fract_y
 _atom_site_fract_z
 _atom_site_occupancy
  Na  Na0  1  0.00000000  0.00000000  0.00000000  1
  Nb  Nb0  1  0.12471928  0.12471928  0.61904726  1
  Nb  Nb1  1  0.45958830  0.79533322  0.61986906  1
  Nb  Nb2  1  0.79533322  0.45958830  0.61986906  1
  Nb  Nb3  1  0.20466678  0.54041170  0.38013094  1
  Nb  Nb4  1  0.54041170  0.20466678  0.38013094  1
  Nb  Nb5  1  0.87528072  0.87528072  0.38095274  1
  C  C0  1  0.16695403  0.83304597  0.50000000  1
  C  C1  1  0.50000000  0.50000000  0.50000000  1
  C  C2  1  0.83304597  0.16695403  0.50000000  1
  S  S0  1  0.26346381  0.26346381  0.21535922  1
  S  S1  1  0.59398823  0.92849618  0.21531412  1
  S  S2  1  0.92849618  0.59398823  0.21531412  1
  S  S3  1  0.07150382  0.40601177  0.78468588  1
  S  S4  1  0.40601177  0.07150382  0.78468588  1
  S  S5  1  0.73653619  0.73653619  0.78464078  1
loop_
_geom_bond_atom_site_label_1
_geom_bond_atom_site_label_2
_geom_bond_distance
_geom_bond_site_symmetry_2
Na0 S2 2.865403 1_445
Na0 S3 2.865403 1_554
Na0 S1 2.865404 1_445
Na0 S4 2.865404 1_554
Na0 S0 2.870908 1_555
Na0 S5 2.870908 1_444
Nb0 S5 2.516448 1_445
Nb0 S3 2.529901 1_555
Nb0 S4 2.529901 1_555
Nb1 S4 2.502377 1_565
Nb1 S3 2.514908 1_555
Nb1 S5 2.516958 1_555
Nb2 S3 2.502377 1_655
Nb2 S4 2.514908 1_555
Nb2 S5 2.516957 1_555
Nb3 S2 2.502377 1_455
Nb3 S1 2.514908 1_555
Nb3 S0 2.516957 1_555
Nb4 S1 2.502377 1_545
Nb4 S2 2.514908 1_555
Nb4 S0 2.516958 1_555
Nb5 S0 2.516448 1_665
Nb5 S2 2.529901 1_555
Nb5 S1 2.529901 1_555
C0 Nb3 2.244602 1_555
C0 Nb1 2.244603 1_555
C0 Nb0 2.246041 1_565
C0 Nb5 2.246041 1_455
C0 Nb2 2.248263 1_455
C0 Nb4 2.248263 1_565
C1 Nb5 2.258794 1_555
C1 Nb0 2.258794 1_555
C1 Nb4 2.264403 1_555
C1 Nb1 2.264403 1_555
C1 Nb2 2.264403 1_555
C1 Nb3 2.264403 1_555
C2 Nb2 2.244602 1_555
C2 Nb4 2.244603 1_555
C2 Nb5 2.246041 1_545
C2 Nb0 2.246041 1_655
C2 Nb3 2.248263 1_655
C2 Nb1 2.248263 1_545
