# generated using pymatgen
data_NbNiOF5
_symmetry_space_group_name_H-M   'P 1'
_cell_length_a   5.27229024
_cell_length_b   5.47160134
_cell_length_c   5.24269727
_cell_angle_alpha   118.13512053
_cell_angle_beta   119.09476460
_cell_angle_gamma   91.05437885
_symmetry_Int_Tables_number   1
_chemical_formula_structural   NbNiOF5
_chemical_formula_sum   'Nb1 Ni1 O1 F5'
_cell_volume   110.35557833
_cell_formula_units_Z   1
loop_
 _symmetry_equiv_pos_site_id
 _symmetry_equiv_pos_as_xyz
  1  'x, y, z'
loop_
 _atom_site_type_symbol
 _atom_site_label
 _atom_site_symmetry_multiplicity
 _atom_site_fract_x
 _atom_site_fract_y
 _atom_site_fract_z
 _atom_site_occupancy
  Nb  Nb0  1  0.68739307  0.99510013  0.32662416  1
  Ni  Ni0  1  0.15796581  0.47268830  0.31891417  1
  O  O0  1  0.98922897  0.22415722  0.40064775  1
  F  F0  1  0.31759258  0.72483825  0.22719749  1
  F  F1  1  0.39587424  0.20694993  0.20122759  1
  F  F2  1  0.51039495  0.71722354  0.82222411  1
  F  F3  1  0.90635899  0.72911840  0.42493919  1
  F  F4  1  0.79634540  0.22515823  0.81170254  1
loop_
_geom_bond_atom_site_label_1
_geom_bond_atom_site_label_2
_geom_bond_distance
_geom_bond_site_symmetry_2
Nb0 O0 1.766668 1_565
Ni0 O0 1.923551 1_455
F0 Ni0 1.954341 1_555
F0 Nb0 2.106734 1_555
F1 Nb0 1.984875 1_545
F1 Ni0 2.010434 1_555
F2 Nb0 1.982794 1_556
F2 Ni0 2.004030 1_555
F3 Nb0 1.976631 1_555
F3 Ni0 2.021731 1_655
F4 Nb0 1.978778 1_545
F4 Ni0 2.029367 1_656
