# generated using pymatgen
data_Ce3SiPd5
_symmetry_space_group_name_H-M   'P 1'
_cell_length_a   8.39489028
_cell_length_b   8.39489028
_cell_length_c   8.39489028
_cell_angle_alpha   128.22342930
_cell_angle_beta   126.34753169
_cell_angle_gamma   77.79493175
_symmetry_Int_Tables_number   1
_chemical_formula_structural   Ce3SiPd5
_chemical_formula_sum   'Ce6 Si2 Pd10'
_cell_volume   362.90203222
_cell_formula_units_Z   2
loop_
 _symmetry_equiv_pos_site_id
 _symmetry_equiv_pos_as_xyz
  1  'x, y, z'
loop_
 _atom_site_type_symbol
 _atom_site_label
 _atom_site_symmetry_multiplicity
 _atom_site_fract_x
 _atom_site_fract_y
 _atom_site_fract_z
 _atom_site_occupancy
  Ce  Ce0  1  0.22423700  0.45041800  0.77381900  1
  Ce  Ce1  1  0.77576300  0.54958200  0.22618100  1
  Ce  Ce2  1  0.82340100  0.04958200  0.77381900  1
  Ce  Ce3  1  0.17659900  0.95041800  0.22618100  1
  Ce  Ce4  1  0.38235100  0.25000000  0.13235100  1
  Ce  Ce5  1  0.61764900  0.75000000  0.86764900  1
  Si  Si0  1  0.78254300  0.25000000  0.53254300  1
  Si  Si1  1  0.21745700  0.75000000  0.46745700  1
  Pd  Pd0  1  0.16794600  0.40257100  0.36038400  1
  Pd  Pd1  1  0.83205400  0.19243800  0.23462500  1
  Pd  Pd2  1  0.45781300  0.09742900  0.76537500  1
  Pd  Pd3  1  0.54218700  0.30756200  0.63961600  1
  Pd  Pd4  1  0.00000000  0.50000000  0.00000000  1
  Pd  Pd5  1  0.00000000  0.00000000  0.50000000  1
  Pd  Pd6  1  0.45781300  0.69243800  0.36038400  1
  Pd  Pd7  1  0.54218700  0.90257100  0.23462500  1
  Pd  Pd8  1  0.16794600  0.80756200  0.76537500  1
  Pd  Pd9  1  0.83205400  0.59742900  0.63961600  1
loop_
_geom_bond_atom_site_label_1
_geom_bond_atom_site_label_2
_geom_bond_distance
_geom_bond_site_symmetry_2
Ce0 Pd8 2.973496 1_555
Ce0 Pd0 2.973496 1_555
Ce0 Pd1 3.039348 1_455
Ce0 Pd9 3.039348 1_455
Ce0 Pd6 3.174758 1_556
Ce0 Pd2 3.174758 1_555
Ce0 Si0 3.193831 1_455
Ce0 Pd4 3.201519 1_556
Ce0 Pd5 3.201519 1_555
Ce0 Pd7 3.220406 1_556
Ce0 Pd3 3.220406 1_555
Ce1 Pd9 2.973496 1_555
Ce1 Pd1 2.973496 1_555
Ce1 Pd0 3.039348 1_655
Ce1 Pd8 3.039348 1_655
Ce1 Pd3 3.174758 1_554
Ce1 Pd7 3.174758 1_555
Ce1 Si1 3.193831 1_655
Ce1 Pd5 3.201519 1_665
Ce1 Pd4 3.201519 1_655
Ce1 Pd6 3.220406 1_555
Ce1 Pd2 3.220406 1_554
Ce2 Pd6 2.973496 1_545
Ce2 Pd2 2.973496 1_555
Ce2 Pd7 3.039348 1_545
Ce2 Pd3 3.039348 1_555
Ce2 Pd8 3.174758 1_645
Ce2 Pd0 3.174758 1_656
Ce2 Si0 3.193831 1_555
Ce2 Pd5 3.201519 1_655
Ce2 Pd4 3.201519 1_656
Ce2 Pd9 3.220406 1_545
Ce2 Pd1 3.220406 1_556
Ce3 Pd3 2.973496 1_565
Ce3 Pd7 2.973496 1_555
Ce3 Pd6 3.039348 1_555
Ce3 Pd2 3.039348 1_565
Ce3 Pd9 3.174758 1_454
Ce3 Pd1 3.174758 1_465
Ce3 Si1 3.193831 1_555
Ce3 Pd4 3.201519 1_555
Ce3 Pd5 3.201519 1_565
Ce3 Pd8 3.220406 1_554
Ce3 Pd0 3.220406 1_565
Ce4 Pd8 2.936010 1_544
Ce4 Pd0 2.936010 1_555
Ce4 Pd2 2.936010 1_554
Ce4 Pd6 2.936010 1_555
Ce4 Si0 3.032253 1_555
Ce4 Pd7 3.335084 1_545
Ce4 Pd3 3.335084 1_555
Ce4 Pd1 3.335084 1_555
Ce4 Pd9 3.335084 1_555
Ce4 Pd5 3.428081 1_554
Ce4 Pd4 3.428081 1_555
Ce5 Pd9 2.936010 1_555
Ce5 Pd3 2.936010 1_555
Ce5 Pd7 2.936010 1_556
Ce5 Pd1 2.936010 1_566
Ce5 Si1 3.032253 1_555
Ce5 Pd2 3.335084 1_565
Ce5 Pd8 3.335084 1_555
Ce5 Pd0 3.335084 1_555
Ce5 Pd6 3.335084 1_555
Ce5 Pd4 3.428081 1_656
Ce5 Pd5 3.428081 1_666
Pd0 Si1 2.512560 1_555
Pd0 Pd1 2.906446 1_455
Pd0 Pd3 2.919905 1_555
Pd0 Pd8 2.968875 1_555
Pd0 Pd4 3.054191 1_555
Pd1 Si0 2.512560 1_555
Pd1 Pd2 2.919905 1_554
Pd1 Pd9 2.968875 1_555
Pd1 Pd5 3.054191 1_655
Pd2 Si1 2.512560 1_545
Pd2 Pd3 2.906446 1_555
Pd2 Pd6 2.968875 1_545
Pd2 Pd5 3.054191 1_555
Pd3 Si0 2.512560 1_555
Pd3 Pd7 2.968875 1_545
Pd3 Pd4 3.054191 1_656
Pd4 Si1 2.464454 1_555
Pd4 Si0 2.464454 1_454
Pd4 Pd6 3.054191 1_555
Pd4 Pd9 3.054191 1_454
Pd5 Si0 2.464454 1_455
Pd5 Si1 2.464454 1_545
Pd5 Pd7 3.054191 1_445
Pd5 Pd8 3.054191 1_545
Pd6 Si1 2.512560 1_555
Pd6 Pd7 2.906446 1_555
Pd6 Pd9 2.919905 1_555
Pd7 Si0 2.512560 1_565
Pd7 Pd8 2.919905 1_554
Pd8 Si1 2.512560 1_555
Pd8 Pd9 2.906446 1_455
Pd9 Si0 2.512560 1_555
