# generated using pymatgen
data_Ca10TaWN10
_symmetry_space_group_name_H-M   'P 1'
_cell_length_a   6.92038182
_cell_length_b   6.92038080
_cell_length_c   8.88268640
_cell_angle_alpha   80.44378297
_cell_angle_beta   80.44378362
_cell_angle_gamma   59.70254634
_symmetry_Int_Tables_number   1
_chemical_formula_structural   Ca10TaWN10
_chemical_formula_sum   'Ca10 Ta1 W1 N10'
_cell_volume   360.51233002
_cell_formula_units_Z   1
loop_
 _symmetry_equiv_pos_site_id
 _symmetry_equiv_pos_as_xyz
  1  'x, y, z'
loop_
 _atom_site_type_symbol
 _atom_site_label
 _atom_site_symmetry_multiplicity
 _atom_site_fract_x
 _atom_site_fract_y
 _atom_site_fract_z
 _atom_site_occupancy
  Ca  Ca0  1  0.87438524  0.35181113  0.83403161  1
  Ca  Ca1  1  0.87253139  0.87253139  0.82629168  1
  Ca  Ca2  1  0.73892231  0.73892231  0.53049516  1
  Ca  Ca3  1  0.75391267  0.24653620  0.50651785  1
  Ca  Ca4  1  0.63111688  0.13780099  0.15203509  1
  Ca  Ca5  1  0.35181113  0.87438524  0.83403161  1
  Ca  Ca6  1  0.24653620  0.75391267  0.50651785  1
  Ca  Ca7  1  0.24042691  0.24042691  0.49476478  1
  Ca  Ca8  1  0.14286928  0.14286928  0.15870895  1
  Ca  Ca9  1  0.13780099  0.63111688  0.15203509  1
  Ta  Ta0  1  0.36924361  0.36924361  0.77351974  1
  W  W0  1  0.63275721  0.63275721  0.22530976  1
  N  N0  1  0.90889526  0.47026302  0.31862898  1
  N  N1  1  0.99754374  0.99754374  0.01713621  1
  N  N2  1  0.67862820  0.67862820  0.01342671  1
  N  N3  1  0.53466333  0.53466333  0.69179115  1
  N  N4  1  0.47026302  0.90889526  0.31862898  1
  N  N5  1  0.53708017  0.08469664  0.67690561  1
  N  N6  1  0.47330040  0.47330040  0.29659222  1
  N  N7  1  0.32341536  0.32341536  0.99491079  1
  N  N8  1  0.06148605  0.06148605  0.64661957  1
  N  N9  1  0.08469664  0.53708017  0.67690561  1
loop_
_geom_bond_atom_site_label_1
_geom_bond_atom_site_label_2
_geom_bond_distance
_geom_bond_site_symmetry_2
Ca0 N3 2.485677 1_555
Ca0 N8 2.500914 1_655
Ca0 N9 2.514820 1_655
Ca0 N1 2.531881 1_546
Ca0 N2 2.622636 1_556
Ca1 N1 2.469763 1_556
Ca1 N9 2.498504 1_655
Ca1 N5 2.498505 1_565
Ca1 N8 2.511248 1_665
Ca1 N2 2.588438 1_556
Ca2 N5 2.534964 1_565
Ca2 N9 2.534965 1_655
Ca2 N0 2.569473 1_555
Ca2 N4 2.569474 1_555
Ca2 N3 2.592329 1_555
Ca3 N8 2.306380 1_655
Ca3 N5 2.485068 1_555
Ca3 N3 2.488837 1_555
Ca3 N0 2.560488 1_555
Ca3 N6 2.620463 1_555
Ca4 N1 2.387918 1_545
Ca4 N7 2.400839 1_554
Ca4 N6 2.489581 1_555
Ca4 N4 2.528304 1_545
Ca5 N3 2.485677 1_555
Ca5 N8 2.500914 1_565
Ca5 N5 2.514820 1_565
Ca5 N1 2.531882 1_456
Ca5 N2 2.622637 1_556
Ca6 N8 2.306380 1_565
Ca6 N9 2.485068 1_555
Ca6 N3 2.488837 1_555
Ca6 N4 2.560488 1_555
Ca6 N6 2.620463 1_555
Ca7 N8 2.307480 1_555
Ca7 N9 2.507033 1_555
Ca7 N5 2.507033 1_555
Ca7 N4 2.631581 1_545
Ca7 N0 2.631581 1_455
Ca7 N6 3.004937 1_555
Ca8 N1 2.337671 1_445
Ca8 N7 2.367933 1_554
Ca8 N0 2.525155 1_455
Ca8 N4 2.525155 1_545
Ca9 N1 2.387917 1_455
Ca9 N7 2.400839 1_554
Ca9 N6 2.489582 1_555
Ca9 N0 2.528304 1_455
N0 W0 1.910952 1_555
N2 W0 1.857077 1_555
N3 Ta0 1.979494 1_555
N4 W0 1.910951 1_555
N5 Ta0 1.971201 1_555
N6 W0 1.897633 1_555
N7 Ta0 1.937987 1_555
N9 Ta0 1.971201 1_555
