# generated using pymatgen
data_Sn7Ru2Rh
_symmetry_space_group_name_H-M   'P 1'
_cell_length_a   8.14637088
_cell_length_b   8.14637116
_cell_length_c   8.14450146
_cell_angle_alpha   109.40016614
_cell_angle_beta   109.40015864
_cell_angle_gamma   109.62271230
_symmetry_Int_Tables_number   1
_chemical_formula_structural   Sn7Ru2Rh
_chemical_formula_sum   'Sn14 Ru4 Rh2'
_cell_volume   416.02467325
_cell_formula_units_Z   2
loop_
 _symmetry_equiv_pos_site_id
 _symmetry_equiv_pos_as_xyz
  1  'x, y, z'
loop_
 _atom_site_type_symbol
 _atom_site_label
 _atom_site_symmetry_multiplicity
 _atom_site_fract_x
 _atom_site_fract_y
 _atom_site_fract_z
 _atom_site_occupancy
  Sn  Sn0  1  0.25252085  0.75252085  0.50504069  1
  Sn  Sn1  1  0.75252085  0.25252085  0.50504069  1
  Sn  Sn2  1  0.74904364  0.50267336  0.25171800  1
  Sn  Sn3  1  0.25121954  0.50317734  0.75439588  1
  Sn  Sn4  1  0.50267336  0.74904364  0.25171800  1
  Sn  Sn5  1  0.50317734  0.25121954  0.75439588  1
  Sn  Sn6  1  0.99773016  0.99773016  0.32283112  1
  Sn  Sn7  1  0.67421372  0.99770616  0.99764454  1
  Sn  Sn8  1  0.99770616  0.67421372  0.99764454  1
  Sn  Sn9  1  0.32510196  0.32510196  0.32283112  1
  Sn  Sn10  1  0.99993938  0.32343082  0.99764454  1
  Sn  Sn11  1  0.67605275  0.67605275  0.67595639  1
  Sn  Sn12  1  0.32343082  0.99993938  0.99764454  1
  Sn  Sn13  1  0.99990365  0.99990365  0.67595639  1
  Ru  Ru0  1  0.99963790  0.65320222  0.65284012  1
  Ru  Ru1  1  0.34398833  0.34398833  0.99932107  1
  Ru  Ru2  1  0.65533175  0.65533175  0.99932107  1
  Ru  Ru3  1  0.65320222  0.99963790  0.65284012  1
  Rh  Rh0  1  0.34296087  0.99964478  0.34260765  1
  Rh  Rh1  1  0.99964478  0.34296087  0.34260765  1
loop_
_geom_bond_atom_site_label_1
_geom_bond_atom_site_label_2
_geom_bond_distance
_geom_bond_site_symmetry_2
Sn6 Sn8 3.053280 1_554
Sn6 Sn7 3.053280 1_554
Sn10 Sn8 2.863769 1_555
Sn10 Sn13 3.036819 1_545
Sn10 Sn9 3.053276 1_656
Sn10 Sn7 3.058241 1_545
Sn11 Sn9 2.864309 1_555
Sn11 Sn7 3.036823 1_555
Sn11 Sn8 3.036824 1_555
Sn11 Sn13 3.040644 1_555
Sn12 Sn7 2.863768 1_555
Sn12 Sn13 3.036819 1_455
Sn12 Sn9 3.053275 1_566
Sn12 Sn8 3.058241 1_455
Sn13 Sn6 2.864315 1_555
Ru0 Sn1 2.742710 1_555
Ru0 Sn0 2.742718 1_655
Ru0 Sn2 2.751501 1_555
Ru0 Sn3 2.757880 1_655
Ru0 Sn8 2.761830 1_555
Ru0 Sn12 2.761833 1_655
Ru0 Sn11 2.766735 1_555
Ru0 Sn13 2.766735 1_555
Ru1 Sn9 2.740871 1_556
Ru1 Sn10 2.746169 1_455
Ru1 Sn12 2.746169 1_545
Ru1 Sn13 2.750376 1_445
Ru1 Sn5 2.758140 1_555
Ru1 Sn3 2.758140 1_555
Ru1 Sn4 2.765589 1_556
Ru1 Sn2 2.765589 1_556
Ru2 Sn6 2.740883 1_556
Ru2 Sn8 2.746183 1_555
Ru2 Sn7 2.746183 1_555
Ru2 Sn11 2.750382 1_555
Ru2 Sn5 2.758130 1_555
Ru2 Sn3 2.758130 1_555
Ru2 Sn4 2.765589 1_556
Ru2 Sn2 2.765589 1_556
Ru3 Sn0 2.742710 1_555
Ru3 Sn1 2.742718 1_565
Ru3 Sn4 2.751501 1_555
Ru3 Sn5 2.757880 1_565
Ru3 Sn7 2.761830 1_555
Ru3 Sn10 2.761833 1_565
Ru3 Sn13 2.766735 1_555
Ru3 Sn11 2.766735 1_555
Rh0 Sn6 2.757461 1_455
Rh0 Sn9 2.757476 1_565
Rh0 Sn8 2.761632 1_454
Rh0 Sn12 2.761646 1_554
Rh0 Sn0 2.786827 1_555
Rh0 Sn1 2.786850 1_565
Rh0 Sn4 2.797916 1_555
Rh0 Sn5 2.807301 1_565
Rh0 Ru3 2.920536 1_555
Rh1 Sn6 2.757461 1_545
Rh1 Sn9 2.757476 1_655
Rh1 Sn7 2.761632 1_544
Rh1 Sn10 2.761646 1_554
Rh1 Sn1 2.786826 1_555
Rh1 Sn0 2.786850 1_655
Rh1 Sn2 2.797916 1_555
Rh1 Sn3 2.807301 1_655
Rh1 Ru0 2.920536 1_555
