# generated using pymatgen
data_BaNa2CdSb2
_symmetry_space_group_name_H-M   'P 1'
_cell_length_a   4.91294228
_cell_length_b   8.46224843
_cell_length_c   9.11018925
_cell_angle_alpha   90.00000000
_cell_angle_beta   90.00000000
_cell_angle_gamma   90.00000000
_symmetry_Int_Tables_number   1
_chemical_formula_structural   BaNa2CdSb2
_chemical_formula_sum   'Ba2 Na4 Cd2 Sb4'
_cell_volume   378.75191005
_cell_formula_units_Z   2
loop_
 _symmetry_equiv_pos_site_id
 _symmetry_equiv_pos_as_xyz
  1  'x, y, z'
loop_
 _atom_site_type_symbol
 _atom_site_label
 _atom_site_symmetry_multiplicity
 _atom_site_fract_x
 _atom_site_fract_y
 _atom_site_fract_z
 _atom_site_occupancy
  Ba  Ba0  1  0.00000000  0.99196937  0.06424168  1
  Ba  Ba1  1  0.00000000  0.49196937  0.93575832  1
  Na  Na0  1  0.50000000  0.03914942  0.43044517  1
  Na  Na1  1  0.00000000  0.35995402  0.33690272  1
  Na  Na2  1  0.50000000  0.53914942  0.56955483  1
  Na  Na3  1  0.00000000  0.85995402  0.66309728  1
  Cd  Cd0  1  0.50000000  0.14572937  0.80953117  1
  Cd  Cd1  1  0.50000000  0.64572937  0.19046883  1
  Sb  Sb0  1  0.00000000  0.22662467  0.65069803  1
  Sb  Sb1  1  0.50000000  0.28217415  0.13158197  1
  Sb  Sb2  1  0.00000000  0.72662467  0.34930197  1
  Sb  Sb3  1  0.50000000  0.78217415  0.86841803  1
loop_
_geom_bond_atom_site_label_1
_geom_bond_atom_site_label_2
_geom_bond_distance
_geom_bond_site_symmetry_2
Ba0 Sb2 3.433081 1_555
Ba0 Sb3 3.516917 1_454
Ba0 Sb3 3.516917 1_554
Ba0 Sb1 3.527250 1_565
Ba0 Sb1 3.527250 1_465
Ba0 Cd0 3.621021 1_564
Ba0 Cd0 3.621021 1_464
Ba0 Cd1 3.992663 1_555
Ba0 Cd1 3.992663 1_455
Ba1 Sb0 3.433081 1_555
Ba1 Sb1 3.516917 1_556
Ba1 Sb1 3.516917 1_456
Ba1 Sb3 3.527250 1_555
Ba1 Sb3 3.527250 1_455
Ba1 Cd1 3.621021 1_456
Ba1 Cd1 3.621021 1_556
Ba1 Cd0 3.992663 1_455
Ba1 Cd0 3.992663 1_555
Na0 Sb1 3.412101 1_555
Na0 Sb0 3.546454 1_555
Na0 Sb0 3.546454 1_655
Na0 Sb2 3.684420 1_545
Na0 Sb2 3.684420 1_645
Na1 Sb0 3.073329 1_555
Na1 Sb2 3.104914 1_555
Na1 Sb1 3.156941 1_555
Na1 Sb1 3.156941 1_455
Na2 Sb3 3.412101 1_555
Na2 Sb2 3.546454 1_555
Na2 Sb2 3.546454 1_655
Na2 Sb0 3.684420 1_555
Na2 Sb0 3.684420 1_655
Na3 Sb2 3.073329 1_555
Na3 Sb0 3.104914 1_565
Na3 Sb3 3.156941 1_455
Na3 Sb3 3.156941 1_555
Cd0 Sb0 2.932009 1_655
Cd0 Sb0 2.932009 1_555
Cd0 Sb3 3.122918 1_545
Cd0 Sb1 3.152966 1_556
Cd0 Na0 3.569371 1_555
Cd0 Na3 3.696228 1_645
Cd0 Na3 3.696228 1_545
Cd1 Sb2 2.932009 1_555
Cd1 Sb2 2.932009 1_655
Cd1 Sb1 3.122918 1_555
Cd1 Sb3 3.152966 1_554
Cd1 Na2 3.569371 1_555
Cd1 Na1 3.696228 1_555
Cd1 Na1 3.696228 1_655
