# generated using pymatgen
data_Ca3Cd3Si2Sn
_symmetry_space_group_name_H-M   'P 1'
_cell_length_a   7.34907819
_cell_length_b   7.34907806
_cell_length_c   4.57496738
_cell_angle_alpha   90.00000000
_cell_angle_beta   90.00000000
_cell_angle_gamma   119.99999615
_symmetry_Int_Tables_number   1
_chemical_formula_structural   Ca3Cd3Si2Sn
_chemical_formula_sum   'Ca3 Cd3 Si2 Sn1'
_cell_volume   213.98551616
_cell_formula_units_Z   1
loop_
 _symmetry_equiv_pos_site_id
 _symmetry_equiv_pos_as_xyz
  1  'x, y, z'
loop_
 _atom_site_type_symbol
 _atom_site_label
 _atom_site_symmetry_multiplicity
 _atom_site_fract_x
 _atom_site_fract_y
 _atom_site_fract_z
 _atom_site_occupancy
  Ca  Ca0  1  0.00000000  0.56910163  0.50000000  1
  Ca  Ca1  1  0.56910163  0.00000000  0.50000000  1
  Ca  Ca2  1  0.43089837  0.43089837  0.50000000  1
  Cd  Cd0  1  0.26687175  1.00000000  0.00000000  1
  Cd  Cd1  1  0.73312825  0.73312825  0.00000000  1
  Cd  Cd2  1  1.00000000  0.26687175  0.00000000  1
  Si  Si0  1  0.66666700  0.33333300  0.00000000  1
  Si  Si1  1  0.33333300  0.66666700  0.00000000  1
  Sn  Sn0  1  0.00000000  0.00000000  0.50000000  1
loop_
_geom_bond_atom_site_label_1
_geom_bond_atom_site_label_2
_geom_bond_distance
_geom_bond_site_symmetry_2
Ca0 Si1 3.160887 1_555
Ca0 Si1 3.160887 1_556
Ca0 Si0 3.160889 1_456
Ca0 Si0 3.160889 1_455
Ca0 Sn0 3.166706 1_565
Ca0 Cd2 3.188403 1_455
Ca0 Cd2 3.188403 1_456
Ca1 Si0 3.160887 1_556
Ca1 Si0 3.160887 1_555
Ca1 Si1 3.160889 1_545
Ca1 Si1 3.160889 1_546
Ca1 Sn0 3.166706 1_655
Ca1 Cd0 3.188403 1_546
Ca1 Cd0 3.188403 1_545
Ca2 Si1 3.160892 1_556
Ca2 Si1 3.160892 1_555
Ca2 Si0 3.160892 1_556
Ca2 Si0 3.160892 1_555
Ca2 Sn0 3.166706 1_555
Ca2 Cd1 3.188403 1_556
Ca2 Cd1 3.188403 1_555
Cd0 Si1 2.726911 1_555
Cd0 Si0 2.726916 1_565
Cd0 Sn0 3.013159 1_565
Cd0 Sn0 3.013159 1_564
Cd1 Si0 2.726918 1_555
Cd1 Si1 2.726919 1_555
Cd1 Sn0 3.013159 1_665
Cd1 Sn0 3.013159 1_664
Cd2 Si0 2.726911 1_555
Cd2 Si1 2.726916 1_655
Cd2 Sn0 3.013159 1_654
Cd2 Sn0 3.013159 1_655
