# generated using pymatgen
data_TiBe3CuIr
_symmetry_space_group_name_H-M   'P 1'
_cell_length_a   4.48709395
_cell_length_b   4.48709342
_cell_length_c   4.45903280
_cell_angle_alpha   59.79161686
_cell_angle_beta   59.79162280
_cell_angle_gamma   59.99999816
_symmetry_Int_Tables_number   1
_chemical_formula_structural   TiBe3CuIr
_chemical_formula_sum   'Ti1 Be3 Cu1 Ir1'
_cell_volume   63.28209532
_cell_formula_units_Z   1
loop_
 _symmetry_equiv_pos_site_id
 _symmetry_equiv_pos_as_xyz
  1  'x, y, z'
loop_
 _atom_site_type_symbol
 _atom_site_label
 _atom_site_symmetry_multiplicity
 _atom_site_fract_x
 _atom_site_fract_y
 _atom_site_fract_z
 _atom_site_occupancy
  Ti  Ti0  1  0.00055481  0.00055481  0.99833456  1
  Be  Be0  1  0.62490163  0.12864097  0.62155678  1
  Be  Be1  1  0.12864097  0.62490163  0.62155678  1
  Be  Be2  1  0.62490163  0.62490163  0.62155678  1
  Cu  Cu0  1  0.62820156  0.62820156  0.11539431  1
  Ir  Ir0  1  0.24279940  0.24279940  0.27160179  1
loop_
_geom_bond_atom_site_label_1
_geom_bond_atom_site_label_2
_geom_bond_distance
_geom_bond_site_symmetry_2
Be0 Cu0 2.217041 1_546
Be0 Be2 2.226768 1_555
Be0 Be1 2.226768 1_555
Be0 Cu0 2.242188 1_555
Be0 Be2 2.260325 1_545
Be0 Be1 2.260326 1_645
Be0 Ir0 2.578119 1_655
Be0 Ir0 2.578123 1_555
Be0 Ti0 2.611317 1_654
Be0 Ti0 2.627440 1_655
Be0 Ti0 2.627448 1_555
Be0 Ir0 2.686749 1_556
Be1 Cu0 2.217041 1_456
Be1 Be2 2.226768 1_555
Be1 Cu0 2.242188 1_555
Be1 Be2 2.260326 1_455
Be1 Ir0 2.578119 1_565
Be1 Ir0 2.578123 1_555
Be1 Ti0 2.611316 1_564
Be1 Ti0 2.627440 1_565
Be1 Ti0 2.627448 1_555
Be1 Ir0 2.686748 1_556
Be2 Cu0 2.217036 1_556
Be2 Cu0 2.242192 1_555
Be2 Ir0 2.578121 1_565
Be2 Ir0 2.578121 1_655
Be2 Ti0 2.611313 1_664
Be2 Ti0 2.627444 1_655
Be2 Ti0 2.627444 1_565
Be2 Ir0 2.686751 1_556
Cu0 Ti0 2.625229 1_654
Cu0 Ti0 2.625229 1_564
Cu0 Ti0 2.625229 1_664
Cu0 Ir0 2.651928 1_555
Cu0 Ir0 2.651931 1_565
Cu0 Ir0 2.651932 1_655
Ir0 Ti0 2.637514 1_555
Ir0 Ti0 2.773972 1_564
Ir0 Ti0 2.773973 1_654
Ir0 Ti0 2.773976 1_554
