# generated using pymatgen
data_K2CdAs2O7
_symmetry_space_group_name_H-M   'P 1'
_cell_length_a   8.61484235
_cell_length_b   8.61484235
_cell_length_c   5.66918727
_cell_angle_alpha   90.00000000
_cell_angle_beta   90.00000000
_cell_angle_gamma   90.00000000
_symmetry_Int_Tables_number   1
_chemical_formula_structural   K2CdAs2O7
_chemical_formula_sum   'K4 Cd2 As4 O14'
_cell_volume   420.74161717
_cell_formula_units_Z   2
loop_
 _symmetry_equiv_pos_site_id
 _symmetry_equiv_pos_as_xyz
  1  'x, y, z'
loop_
 _atom_site_type_symbol
 _atom_site_label
 _atom_site_symmetry_multiplicity
 _atom_site_fract_x
 _atom_site_fract_y
 _atom_site_fract_z
 _atom_site_occupancy
  K  K0  1  0.33528743  0.83528743  0.49079159  1
  K  K1  1  0.16471257  0.33528743  0.50920841  1
  K  K2  1  0.66471257  0.16471257  0.49079159  1
  K  K3  1  0.83528743  0.66471257  0.50920841  1
  Cd  Cd0  1  0.50000000  0.50000000  0.00000000  1
  Cd  Cd1  1  0.00000000  0.00000000  0.00000000  1
  As  As0  1  0.36395099  0.13604901  0.94008892  1
  As  As1  1  0.13604901  0.63604901  0.05991108  1
  As  As2  1  0.63604901  0.86395099  0.94008892  1
  As  As3  1  0.86395099  0.36395099  0.05991108  1
  O  O0  1  0.50000000  0.00000000  0.82675998  1
  O  O1  1  0.00000000  0.50000000  0.17324002  1
  O  O2  1  0.57621088  0.70107618  0.79955248  1
  O  O3  1  0.92378912  0.20107618  0.20044752  1
  O  O4  1  0.42378912  0.29892382  0.79955248  1
  O  O5  1  0.07621088  0.79892382  0.20044752  1
  O  O6  1  0.70107618  0.42378912  0.20044752  1
  O  O7  1  0.79892382  0.92378912  0.79955248  1
  O  O8  1  0.29892382  0.57621088  0.20044752  1
  O  O9  1  0.20107618  0.07621088  0.79955248  1
  O  O10  1  0.36174411  0.13825589  0.23257889  1
  O  O11  1  0.13825589  0.63825589  0.76742111  1
  O  O12  1  0.63825589  0.86174411  0.23257889  1
  O  O13  1  0.86174411  0.36174411  0.76742111  1
loop_
_geom_bond_atom_site_label_1
_geom_bond_atom_site_label_2
_geom_bond_distance
_geom_bond_site_symmetry_2
K0 O0 2.766718 1_565
K0 O5 2.790859 1_555
K0 O8 2.790859 1_555
K0 O11 2.867361 1_555
K0 O9 2.951029 1_565
K0 O2 2.951029 1_555
K0 O10 3.001176 1_565
K0 O12 3.001176 1_555
K1 O1 2.766718 1_555
K1 O4 2.790859 1_555
K1 O9 2.790859 1_555
K1 O10 2.867361 1_555
K1 O3 2.951029 1_455
K1 O8 2.951029 1_555
K1 O13 3.001176 1_455
K1 O11 3.001176 1_555
K2 O0 2.766718 1_555
K2 O6 2.790859 1_555
K2 O3 2.790859 1_555
K2 O13 2.867361 1_555
K2 O7 2.951029 1_545
K2 O4 2.951029 1_555
K2 O12 3.001176 1_545
K2 O10 3.001176 1_555
K3 O1 2.766718 1_655
K3 O7 2.790859 1_555
K3 O2 2.790859 1_555
K3 O12 2.867361 1_555
K3 O6 2.951029 1_555
K3 O5 2.951029 1_655
K3 O13 3.001176 1_555
K3 O11 3.001176 1_655
Cd0 O8 2.173258 1_555
Cd0 O2 2.173258 1_554
Cd0 O6 2.173258 1_555
Cd0 O4 2.173258 1_554
Cd1 O5 2.173258 1_545
Cd1 O3 2.173258 1_455
Cd1 O9 2.173258 1_554
Cd1 O7 2.173258 1_444
As0 O10 1.658398 1_556
As0 O4 1.693905 1_555
As0 O9 1.693905 1_555
As0 O0 1.777679 1_555
As1 O11 1.658398 1_554
As1 O8 1.693905 1_555
As1 O5 1.693905 1_555
As1 O1 1.777679 1_555
As2 O12 1.658398 1_556
As2 O7 1.693905 1_555
As2 O2 1.693905 1_555
As2 O0 1.777679 1_565
As3 O13 1.658398 1_554
As3 O6 1.693905 1_555
As3 O3 1.693905 1_555
As3 O1 1.777679 1_655
