# generated using pymatgen
data_Ca5Zr(TcH9)3
_symmetry_space_group_name_H-M   'P 1'
_cell_length_a   8.76583654
_cell_length_b   8.59168901
_cell_length_c   4.72031286
_cell_angle_alpha   90.00000000
_cell_angle_beta   90.00000000
_cell_angle_gamma   120.67280301
_symmetry_Int_Tables_number   1
_chemical_formula_structural   Ca5Zr(TcH9)3
_chemical_formula_sum   'Ca5 Zr1 Tc3 H27'
_cell_volume   305.76578024
_cell_formula_units_Z   1
loop_
 _symmetry_equiv_pos_site_id
 _symmetry_equiv_pos_as_xyz
  1  'x, y, z'
loop_
 _atom_site_type_symbol
 _atom_site_label
 _atom_site_symmetry_multiplicity
 _atom_site_fract_x
 _atom_site_fract_y
 _atom_site_fract_z
 _atom_site_occupancy
  Ca  Ca0  1  0.01435345  0.26617666  0.50000000  1
  Ca  Ca1  1  0.74817679  0.73382334  0.50000000  1
  Ca  Ca2  1  0.58407777  1.00000000  0.00000000  1
  Ca  Ca3  1  0.04093825  0.64528922  0.00000000  1
  Ca  Ca4  1  0.39564903  0.35471078  0.00000000  1
  Zr  Zr0  1  0.25005537  0.00000000  0.50000000  1
  Tc  Tc0  1  0.96344287  0.00000000  0.00000000  1
  Tc  Tc1  1  0.36451792  0.67283457  0.50000000  1
  Tc  Tc2  1  0.69168536  0.32716543  0.50000000  1
  H  H0  1  0.82510580  1.00000000  0.25139862  1
  H  H1  1  0.02204283  0.87612627  0.22719370  1
  H  H2  1  0.82510580  1.00000000  0.74860138  1
  H  H3  1  0.02204283  0.87612627  0.77280630  1
  H  H4  1  0.14591656  0.12387373  0.22719370  1
  H  H5  1  0.14591656  0.12387373  0.77280630  1
  H  H6  1  0.31080156  1.00000000  0.00000000  1
  H  H7  1  0.01999185  0.22336786  0.00000000  1
  H  H8  1  0.79662400  0.77663214  0.00000000  1
  H  H9  1  0.19913044  0.53630842  0.26249902  1
  H  H10  1  0.48438393  0.67491296  0.21956842  1
  H  H11  1  0.19913044  0.53630842  0.73750098  1
  H  H12  1  0.51178821  0.18638539  0.71597960  1
  H  H13  1  0.32540382  0.81361461  0.28402040  1
  H  H14  1  0.48438393  0.67491296  0.78043158  1
  H  H15  1  0.66282202  0.46369158  0.73750098  1
  H  H16  1  0.51178821  0.18638539  0.28402040  1
  H  H17  1  0.32540382  0.81361461  0.71597960  1
  H  H18  1  0.66282202  0.46369158  0.26249902  1
  H  H19  1  0.80946997  0.32508704  0.78043158  1
  H  H20  1  0.80946997  0.32508704  0.21956842  1
  H  H21  1  0.36101834  0.47600566  0.50000000  1
  H  H22  1  0.55657301  0.86729779  0.50000000  1
  H  H23  1  0.30091212  0.24614585  0.50000000  1
  H  H24  1  0.05476727  0.75385415  0.50000000  1
  H  H25  1  0.88501268  0.52399434  0.50000000  1
  H  H26  1  0.68927522  0.13270221  0.50000000  1
loop_
_geom_bond_atom_site_label_1
_geom_bond_atom_site_label_2
_geom_bond_distance
_geom_bond_site_symmetry_2
Ca0 H11 2.330547 1_555
Ca0 H9 2.330547 1_555
Ca0 H2 2.342713 1_445
Ca0 H0 2.342713 1_445
Ca0 H7 2.393033 1_556
Ca0 H7 2.393033 1_555
Ca0 H5 2.433444 1_555
Ca0 H4 2.433444 1_555
Ca0 H26 2.470050 1_455
Ca0 H19 2.482215 1_455
Ca0 H20 2.482215 1_455
Ca0 H23 2.603930 1_555
Ca0 H21 2.625838 1_555
Ca1 H15 2.330547 1_555
Ca1 H18 2.330547 1_555
Ca1 H2 2.342713 1_555
Ca1 H0 2.342713 1_555
Ca1 H8 2.393033 1_555
Ca1 H8 2.393033 1_556
Ca1 H3 2.433444 1_655
Ca1 H1 2.433444 1_655
Ca1 H22 2.470051 1_555
Ca1 H14 2.482208 1_555
Ca1 H10 2.482208 1_555
Ca1 H24 2.603939 1_655
Ca1 H25 2.625839 1_555
Ca2 H6 2.395495 1_555
Ca2 H13 2.408027 1_555
Ca2 H17 2.408027 1_554
Ca2 H16 2.408033 1_565
Ca2 H12 2.408033 1_564
Ca2 H0 2.423259 1_555
Ca2 H2 2.423259 1_554
Ca2 H26 2.578356 1_565
Ca2 H26 2.578356 1_564
Ca2 H22 2.578356 1_554
Ca2 H22 2.578356 1_555
Ca2 H20 2.673700 1_565
Ca2 H19 2.673700 1_564
Ca2 H10 2.673702 1_555
Ca2 H14 2.673702 1_554
Ca3 H1 2.333686 1_555
Ca3 H3 2.333686 1_554
Ca3 H9 2.379000 1_555
Ca3 H11 2.379000 1_554
Ca3 H24 2.517877 1_554
Ca3 H24 2.517877 1_555
Ca3 H13 2.535252 1_555
Ca3 H17 2.535252 1_554
Ca3 H20 2.657893 1_455
Ca3 H19 2.657893 1_454
Ca3 H25 2.659190 1_454
Ca3 H25 2.659190 1_455
Ca4 H4 2.333685 1_555
Ca4 H5 2.333685 1_554
Ca4 H18 2.378999 1_555
Ca4 H15 2.378999 1_554
Ca4 H23 2.517878 1_555
Ca4 H23 2.517878 1_554
Ca4 H16 2.535246 1_555
Ca4 H12 2.535246 1_554
Ca4 H10 2.657891 1_555
Ca4 H14 2.657891 1_554
Ca4 H21 2.659190 1_554
Ca4 H21 2.659190 1_555
H0 Tc0 1.696675 1_565
H1 Tc0 1.761943 1_465
H1 Zr0 2.148374 1_565
H2 Tc0 1.696675 1_566
H3 Tc0 1.761943 1_466
H3 Zr0 2.148374 1_565
H4 Tc0 1.761943 1_455
H4 Zr0 2.148374 1_555
H5 Tc0 1.761943 1_456
H5 Zr0 2.148374 1_555
H6 Zr0 2.419480 1_565
H6 Zr0 2.419480 1_564
H7 Tc0 1.719915 1_455
H8 Tc0 1.719915 1_565
H9 Tc1 1.731908 1_555
H10 Tc1 1.684473 1_555
H11 Tc1 1.731908 1_555
H12 Tc2 1.744440 1_555
H12 Zr0 2.262539 1_555
H13 Tc1 1.744426 1_555
H13 Zr0 2.262545 1_565
H14 Tc1 1.684473 1_555
H15 Tc2 1.731916 1_555
H16 Tc2 1.744440 1_555
H16 Zr0 2.262539 1_555
H17 Tc1 1.744426 1_555
H17 Zr0 2.262545 1_565
H18 Tc2 1.731916 1_555
H19 Tc2 1.684456 1_555
H20 Tc2 1.684456 1_555
H21 Tc1 1.675651 1_555
H22 Tc1 1.660098 1_555
H23 Zr0 1.925944 1_555
H24 Zr0 1.925941 1_565
H25 Tc2 1.675642 1_555
H26 Tc2 1.660089 1_555
