# generated using pymatgen
data_HfBe2Cu2Pd
_symmetry_space_group_name_H-M   'P 1'
_cell_length_a   4.77937851
_cell_length_b   4.66401981
_cell_length_c   4.66401913
_cell_angle_alpha   60.12978579
_cell_angle_beta   59.17836374
_cell_angle_gamma   59.17838089
_symmetry_Int_Tables_number   1
_chemical_formula_structural   HfBe2Cu2Pd
_chemical_formula_sum   'Hf1 Be2 Cu2 Pd1'
_cell_volume   72.65804946
_cell_formula_units_Z   1
loop_
 _symmetry_equiv_pos_site_id
 _symmetry_equiv_pos_as_xyz
  1  'x, y, z'
loop_
 _atom_site_type_symbol
 _atom_site_label
 _atom_site_symmetry_multiplicity
 _atom_site_fract_x
 _atom_site_fract_y
 _atom_site_fract_z
 _atom_site_occupancy
  Hf  Hf0  1  0.00068621  0.99931379  0.99931379  1
  Be  Be0  1  0.61863615  0.63042546  0.13230324  1
  Be  Be1  1  0.61863615  0.13230324  0.63042546  1
  Cu  Cu0  1  0.12344345  0.62477421  0.62477421  1
  Cu  Cu1  1  0.62700814  0.62477421  0.62477421  1
  Pd  Pd0  1  0.26159090  0.23840910  0.23840910  1
loop_
_geom_bond_atom_site_label_1
_geom_bond_atom_site_label_2
_geom_bond_distance
_geom_bond_site_symmetry_2
Hf0 Pd0 2.851412 1_466
Hf0 Pd0 2.851413 1_566
Hf0 Pd0 2.888108 1_565
Hf0 Pd0 2.888109 1_556
Be0 Cu1 2.304520 1_555
Be0 Cu0 2.304522 1_555
Be0 Be1 2.327808 1_555
Be0 Be1 2.345358 1_564
Be0 Cu0 2.359994 1_654
Be0 Cu1 2.359997 1_554
Be0 Pd0 2.602234 1_565
Be0 Hf0 2.744717 1_644
Be0 Hf0 2.770324 1_654
Be0 Hf0 2.770329 1_554
Be0 Pd0 2.816091 1_655
Be0 Pd0 2.816095 1_555
Be1 Cu1 2.304520 1_555
Be1 Cu0 2.304523 1_555
Be1 Cu0 2.359995 1_645
Be1 Cu1 2.359997 1_545
Be1 Pd0 2.602233 1_556
Be1 Hf0 2.744716 1_644
Be1 Hf0 2.770324 1_645
Be1 Hf0 2.770328 1_545
Be1 Pd0 2.816090 1_655
Be1 Pd0 2.816095 1_555
Cu0 Cu1 2.372652 1_455
Cu0 Cu1 2.406726 1_555
Cu0 Hf0 2.717779 1_555
Cu0 Pd0 2.730261 1_556
Cu0 Pd0 2.730261 1_565
Cu0 Hf0 2.744686 1_554
Cu0 Hf0 2.744686 1_545
Cu0 Pd0 2.779660 1_555
Cu1 Hf0 2.717779 1_555
Cu1 Pd0 2.730260 1_556
Cu1 Pd0 2.730261 1_565
Cu1 Hf0 2.744685 1_654
Cu1 Hf0 2.744686 1_645
Cu1 Pd0 2.779660 1_655
