# generated using pymatgen
data_RbNa2Cu3P2
_symmetry_space_group_name_H-M   'P 1'
_cell_length_a   7.27889629
_cell_length_b   7.27889673
_cell_length_c   7.27889766
_cell_angle_alpha   42.86252511
_cell_angle_beta   42.86252229
_cell_angle_gamma   42.86251973
_symmetry_Int_Tables_number   1
_chemical_formula_structural   RbNa2Cu3P2
_chemical_formula_sum   'Rb1 Na2 Cu3 P2'
_cell_volume   161.70442161
_cell_formula_units_Z   1
loop_
 _symmetry_equiv_pos_site_id
 _symmetry_equiv_pos_as_xyz
  1  'x, y, z'
loop_
 _atom_site_type_symbol
 _atom_site_label
 _atom_site_symmetry_multiplicity
 _atom_site_fract_x
 _atom_site_fract_y
 _atom_site_fract_z
 _atom_site_occupancy
  Rb  Rb0  1  0.50000000  0.50000000  0.50000000  1
  Na  Na0  1  0.91242805  0.91242805  0.91242805  1
  Na  Na1  1  0.08757195  0.08757195  0.08757195  1
  Cu  Cu0  1  0.00000000  0.50000000  0.50000000  1
  Cu  Cu1  1  0.50000000  0.50000000  0.00000000  1
  Cu  Cu2  1  0.50000000  0.00000000  0.50000000  1
  P  P0  1  0.25097478  0.25097478  0.25097478  1
  P  P1  1  0.74902522  0.74902522  0.74902522  1
loop_
_geom_bond_atom_site_label_1
_geom_bond_atom_site_label_2
_geom_bond_distance
_geom_bond_site_symmetry_2
Na0 P0 3.072773 1_566
Na0 P0 3.072773 1_656
Na0 P0 3.072773 1_665
Na0 P1 3.235044 1_555
Na0 Rb0 3.447226 1_655
Na0 Rb0 3.447226 1_556
Na0 Rb0 3.447226 1_565
Na1 P1 3.072773 1_544
Na1 P1 3.072773 1_454
Na1 P1 3.072773 1_445
Na1 P0 3.235044 1_555
Na1 Rb0 3.447226 1_455
Na1 Rb0 3.447226 1_554
Na1 Rb0 3.447226 1_545
Cu0 P1 2.239744 1_455
Cu0 P0 2.239744 1_555
Cu0 Na1 3.174797 1_565
Cu0 Na0 3.174797 1_445
Cu0 Na1 3.174798 1_556
Cu0 Na0 3.174798 1_454
Cu0 Rb0 3.639448 1_455
Cu0 Rb0 3.639448 1_555
Cu1 P1 2.239744 1_554
Cu1 P0 2.239744 1_555
Cu1 Na1 3.174797 1_655
Cu1 Na0 3.174797 1_454
Cu1 Na1 3.174797 1_565
Cu1 Na0 3.174797 1_544
Cu1 Rb0 3.639449 1_555
Cu1 Rb0 3.639449 1_554
Cu2 P1 2.239744 1_545
Cu2 P0 2.239744 1_555
Cu2 Na1 3.174797 1_655
Cu2 Na0 3.174797 1_445
Cu2 Na1 3.174798 1_556
Cu2 Na0 3.174798 1_544
Cu2 Rb0 3.639448 1_545
Cu2 Rb0 3.639448 1_555
P0 Rb0 3.495321 1_455
P0 Rb0 3.495321 1_545
P0 Rb0 3.495322 1_554
P1 Rb0 3.495321 1_655
P1 Rb0 3.495321 1_565
P1 Rb0 3.495322 1_556
