# generated using pymatgen
data_FePd7Pt
_symmetry_space_group_name_H-M   'P 1'
_cell_length_a   6.17409904
_cell_length_b   6.17409887
_cell_length_c   6.16004292
_cell_angle_alpha   95.68542734
_cell_angle_beta   95.68541851
_cell_angle_gamma   143.35200087
_symmetry_Int_Tables_number   1
_chemical_formula_structural   FePd7Pt
_chemical_formula_sum   'Fe1 Pd7 Pt1'
_cell_volume   133.02165479
_cell_formula_units_Z   1
loop_
 _symmetry_equiv_pos_site_id
 _symmetry_equiv_pos_as_xyz
  1  'x, y, z'
loop_
 _atom_site_type_symbol
 _atom_site_label
 _atom_site_symmetry_multiplicity
 _atom_site_fract_x
 _atom_site_fract_y
 _atom_site_fract_z
 _atom_site_occupancy
  Fe  Fe0  1  0.00266894  0.00266894  0.00533988  1
  Pd  Pd0  1  0.33584745  0.66297170  0.99881915  1
  Pd  Pd1  1  0.66297170  0.33584745  0.99881915  1
  Pd  Pd2  1  0.33692625  0.33692625  0.67385151  1
  Pd  Pd3  1  0.67071515  0.99927865  0.66999280  1
  Pd  Pd4  1  0.99927865  0.67071515  0.66999280  1
  Pd  Pd5  1  0.00034569  0.32961305  0.32995974  1
  Pd  Pd6  1  0.32961305  0.00034569  0.32995974  1
  Pt  Pt0  1  0.66163312  0.66163312  0.32326523  1
loop_
_geom_bond_atom_site_label_1
_geom_bond_atom_site_label_2
_geom_bond_distance
_geom_bond_site_symmetry_2
Fe0 Pt0 2.687449 1_445
Fe0 Pt0 2.687458 1_555
Fe0 Pd5 2.706651 1_555
Fe0 Pd6 2.706651 1_555
Fe0 Pd1 2.728589 1_444
Fe0 Pd0 2.728590 1_444
Fe0 Pd0 2.728595 1_554
Fe0 Pd1 2.728595 1_554
Fe0 Pd2 2.742887 1_444
Fe0 Pd2 2.742894 1_554
Fe0 Pd4 2.748094 1_444
Fe0 Pd3 2.748095 1_444
Pd0 Pt0 2.696995 1_556
Pd0 Pd2 2.699140 1_555
Pd0 Pd3 2.731929 1_445
Pd0 Pd3 2.731931 1_555
Pd0 Pd5 2.741482 1_666
Pd0 Pd5 2.741484 1_556
Pd0 Pd4 2.787118 1_455
Pd0 Pd6 2.793491 1_566
Pd0 Pd1 2.806122 1_565
Pd0 Pd1 2.806122 1_455
Pd1 Pt0 2.696995 1_556
Pd1 Pd2 2.699140 1_555
Pd1 Pd4 2.731929 1_445
Pd1 Pd4 2.731931 1_555
Pd1 Pd6 2.741482 1_666
Pd1 Pd6 2.741484 1_556
Pd1 Pd3 2.787117 1_545
Pd1 Pd5 2.793491 1_656
Pd2 Pd3 2.734353 1_555
Pd2 Pd4 2.734353 1_445
Pd2 Pd4 2.734353 1_555
Pd2 Pd3 2.734353 1_445
Pd2 Pd6 2.786807 1_555
Pd2 Pd5 2.786808 1_555
Pd2 Pt0 2.822881 1_555
Pd2 Pt0 2.822882 1_445
Pd3 Pd5 2.778410 1_665
Pd3 Pd5 2.778416 1_555
Pd3 Pd4 2.793963 1_565
Pd3 Pd4 2.793963 1_455
Pd3 Pt0 2.795948 1_555
Pd3 Pd6 2.823770 1_565
Pd4 Pd6 2.778410 1_665
Pd4 Pd6 2.778416 1_555
Pd4 Pt0 2.795949 1_555
Pd4 Pd5 2.823770 1_655
Pd5 Pt0 2.737444 1_445
Pd5 Pt0 2.737450 1_555
Pd5 Pd6 2.788034 1_565
Pd5 Pd6 2.788034 1_455
Pd6 Pt0 2.737445 1_445
Pd6 Pt0 2.737450 1_555
