# generated using pymatgen
data_La3Sn13Rh4
_symmetry_space_group_name_H-M   'P 1'
_cell_length_a   9.75935360
_cell_length_b   9.75935360
_cell_length_c   9.75935360
_cell_angle_alpha   89.99997734
_cell_angle_beta   89.99997734
_cell_angle_gamma   89.99997734
_symmetry_Int_Tables_number   1
_chemical_formula_structural   La3Sn13Rh4
_chemical_formula_sum   'La6 Sn26 Rh8'
_cell_volume   929.52946470
_cell_formula_units_Z   2
loop_
 _symmetry_equiv_pos_site_id
 _symmetry_equiv_pos_as_xyz
  1  'x, y, z'
loop_
 _atom_site_type_symbol
 _atom_site_label
 _atom_site_symmetry_multiplicity
 _atom_site_fract_x
 _atom_site_fract_y
 _atom_site_fract_z
 _atom_site_occupancy
  La  La0  1  0.00000200  0.25000000  0.49999800  1
  La  La1  1  0.99999800  0.75000000  0.50000200  1
  La  La2  1  0.50000200  0.99999800  0.75000000  1
  La  La3  1  0.49999800  0.00000200  0.25000000  1
  La  La4  1  0.75000000  0.50000200  0.99999800  1
  La  La5  1  0.25000000  0.49999800  0.00000200  1
  Sn  Sn0  1  0.50000000  0.34638237  0.19450305  1
  Sn  Sn1  1  0.80549695  0.50000000  0.34638337  1
  Sn  Sn2  1  0.19450305  0.50000000  0.34638237  1
  Sn  Sn3  1  0.65361663  0.19450305  0.50000000  1
  Sn  Sn4  1  0.34638237  0.19450305  0.50000000  1
  Sn  Sn5  1  0.50000000  0.65361763  0.80549695  1
  Sn  Sn6  1  -0.00000000  -0.00000000  0.00000000  1
  Sn  Sn7  1  0.50000000  0.50000000  0.50000000  1
  Sn  Sn8  1  -0.00000000  0.30549695  0.15361763  1
  Sn  Sn9  1  0.50000000  0.34638337  0.80549695  1
  Sn  Sn10  1  0.50000000  0.65361663  0.19450305  1
  Sn  Sn11  1  0.65361763  0.80549695  0.50000000  1
  Sn  Sn12  1  0.34638337  0.80549695  0.50000000  1
  Sn  Sn13  1  0.19450305  0.50000000  0.65361663  1
  Sn  Sn14  1  0.80549695  0.50000000  0.65361763  1
  Sn  Sn15  1  0.15361763  -0.00000000  0.30549695  1
  Sn  Sn16  1  0.30549695  0.15361763  -0.00000000  1
  Sn  Sn17  1  0.69450305  0.84638237  0.00000000  1
  Sn  Sn18  1  0.15361663  -0.00000000  0.69450305  1
  Sn  Sn19  1  0.69450305  0.15361663  -0.00000000  1
  Sn  Sn20  1  0.84638337  0.00000000  0.30549695  1
  Sn  Sn21  1  0.84638237  0.00000000  0.69450305  1
  Sn  Sn22  1  0.30549695  0.84638337  0.00000000  1
  Sn  Sn23  1  0.00000000  0.69450305  0.84638237  1
  Sn  Sn24  1  0.00000000  0.30549695  0.84638337  1
  Sn  Sn25  1  -0.00000000  0.69450305  0.15361663  1
  Rh  Rh0  1  0.25000000  0.25000000  0.25000000  1
  Rh  Rh1  1  0.75000000  0.25000000  0.25000000  1
  Rh  Rh2  1  0.25000000  0.25000000  0.75000000  1
  Rh  Rh3  1  0.25000000  0.75000000  0.25000000  1
  Rh  Rh4  1  0.75000000  0.75000000  0.75000000  1
  Rh  Rh5  1  0.25000000  0.75000000  0.75000000  1
  Rh  Rh6  1  0.75000000  0.75000000  0.25000000  1
  Rh  Rh7  1  0.75000000  0.25000000  0.75000000  1
loop_
_geom_bond_atom_site_label_1
_geom_bond_atom_site_label_2
_geom_bond_distance
_geom_bond_site_symmetry_2
La0 Sn4 3.423562 1_555
La0 Sn8 3.423562 1_555
La0 Sn24 3.423611 1_555
La0 Sn3 3.423611 1_455
La0 Sn2 3.435631 1_555
La0 Sn15 3.435631 1_555
La0 Sn13 3.435645 1_555
La0 Sn20 3.435645 1_455
La0 Sn18 3.435648 1_555
La0 Sn1 3.435648 1_455
La0 Sn21 3.435669 1_455
La0 Sn14 3.435669 1_455
La0 Rh0 3.450424 1_555
La0 Rh2 3.450453 1_555
La0 Rh1 3.450453 1_455
La0 Rh7 3.450479 1_455
La1 Sn11 3.423562 1_555
La1 Sn23 3.423562 1_655
La1 Sn25 3.423611 1_655
La1 Sn12 3.423611 1_655
La1 Sn14 3.435631 1_555
La1 Sn21 3.435631 1_565
La1 Sn1 3.435645 1_555
La1 Sn18 3.435645 1_665
La1 Sn20 3.435648 1_565
La1 Sn13 3.435648 1_655
La1 Sn15 3.435669 1_665
La1 Sn2 3.435669 1_655
La1 Rh4 3.450424 1_555
La1 Rh6 3.450453 1_555
La1 Rh5 3.450453 1_655
La1 Rh3 3.450479 1_655
La2 Sn5 3.423562 1_555
La2 Sn21 3.423562 1_565
La2 Sn18 3.423611 1_565
La2 Sn9 3.423611 1_565
La2 Sn11 3.435631 1_555
La2 Sn17 3.435631 1_556
La2 Sn12 3.435645 1_555
La2 Sn19 3.435645 1_566
La2 Sn22 3.435648 1_556
La2 Sn3 3.435648 1_565
La2 Sn16 3.435669 1_566
La2 Sn4 3.435669 1_565
La2 Rh4 3.450424 1_555
La2 Rh5 3.450453 1_555
La2 Rh7 3.450453 1_565
La2 Rh2 3.450479 1_565
La3 Sn15 3.423562 1_555
La3 Sn0 3.423562 1_555
La3 Sn10 3.423611 1_545
La3 Sn20 3.423611 1_555
La3 Sn4 3.435631 1_555
La3 Sn16 3.435631 1_555
La3 Sn22 3.435645 1_545
La3 Sn3 3.435645 1_555
La3 Sn12 3.435648 1_545
La3 Sn19 3.435648 1_555
La3 Sn17 3.435669 1_545
La3 Sn11 3.435669 1_545
La3 Rh0 3.450424 1_555
La3 Rh1 3.450453 1_555
La3 Rh3 3.450453 1_545
La3 Rh6 3.450479 1_545
La4 Sn14 3.423562 1_555
La4 Sn17 3.423562 1_556
La4 Sn19 3.423611 1_556
La4 Sn1 3.423611 1_556
La4 Sn5 3.435631 1_555
La4 Sn23 3.435631 1_655
La4 Sn9 3.435645 1_555
La4 Sn25 3.435645 1_656
La4 Sn24 3.435648 1_655
La4 Sn10 3.435648 1_556
La4 Sn8 3.435669 1_656
La4 Sn0 3.435669 1_556
La4 Rh4 3.450424 1_555
La4 Rh7 3.450453 1_555
La4 Rh6 3.450453 1_556
La4 Rh1 3.450479 1_556
La5 Sn2 3.423562 1_555
La5 Sn16 3.423562 1_555
La5 Sn22 3.423611 1_555
La5 Sn13 3.423611 1_554
La5 Sn0 3.435631 1_555
La5 Sn8 3.435631 1_555
La5 Sn10 3.435645 1_555
La5 Sn24 3.435645 1_554
La5 Sn9 3.435648 1_554
La5 Sn25 3.435648 1_555
La5 Sn23 3.435669 1_554
La5 Sn5 3.435669 1_554
La5 Rh0 3.450424 1_555
La5 Rh3 3.450453 1_555
La5 Rh2 3.450453 1_554
La5 Rh5 3.450479 1_554
Sn0 Sn10 2.998408 1_555
Sn0 Sn16 3.278056 1_555
Sn0 Sn19 3.278060 1_555
Sn0 Sn7 3.337168 1_555
Sn1 Sn14 2.998408 1_555
Sn1 Sn8 3.278060 1_655
Sn1 Sn25 3.278066 1_655
Sn1 Sn7 3.337163 1_555
Sn2 Sn8 3.278056 1_555
Sn2 Sn25 3.278060 1_555
Sn2 Sn7 3.337168 1_555
Sn3 Sn4 2.998408 1_555
Sn3 Sn7 3.337163 1_555
Sn4 Sn7 3.337168 1_555
Sn5 Sn9 2.998408 1_555
Sn5 Sn7 3.337168 1_555
Sn6 Sn8 3.337168 1_555
Sn7 Sn9 3.337163 1_555
Sn10 Sn17 3.278060 1_555
Sn10 Sn22 3.278066 1_555
Sn10 Sn7 3.337163 1_555
Sn11 Sn12 2.998408 1_555
Sn11 Sn21 3.278056 1_565
Sn11 Sn20 3.278060 1_565
Sn11 Sn7 3.337168 1_555
Sn12 Sn15 3.278060 1_565
Sn12 Sn18 3.278066 1_565
Sn12 Sn7 3.337163 1_555
Sn13 Sn2 2.998408 1_555
Sn13 Sn23 3.278060 1_555
Sn13 Sn24 3.278066 1_555
Sn13 Sn7 3.337163 1_555
Sn14 Sn23 3.278056 1_655
Sn14 Sn24 3.278060 1_655
Sn14 Sn7 3.337168 1_555
Sn15 Sn20 2.998408 1_455
Sn15 Sn4 3.278056 1_555
Sn15 Sn6 3.337168 1_555
Sn16 Sn22 2.998408 1_545
Sn16 Sn9 3.278060 1_554
Sn16 Sn6 3.337168 1_555
Sn17 Sn19 2.998408 1_565
Sn17 Sn5 3.278056 1_554
Sn17 Sn6 3.337168 1_665
Sn18 Sn21 2.998408 1_455
Sn18 Sn4 3.278060 1_555
Sn18 Sn6 3.337163 1_556
Sn19 Sn9 3.278066 1_554
Sn19 Sn6 3.337163 1_655
Sn20 Sn3 3.278066 1_555
Sn20 Sn6 3.337163 1_655
Sn21 Sn3 3.278060 1_555
Sn21 Sn6 3.337168 1_656
Sn22 Sn5 3.278060 1_554
Sn22 Sn6 3.337163 1_565
Sn23 Sn25 2.998408 1_556
Sn23 Sn6 3.337168 1_566
Sn24 Sn8 2.998408 1_556
Sn24 Sn6 3.337163 1_556
Sn25 Sn6 3.337163 1_565
Rh0 Sn8 2.670382 1_555
Rh0 Sn2 2.670382 1_555
Rh0 Sn15 2.670382 1_555
Rh0 Sn0 2.670382 1_555
Rh0 Sn16 2.670382 1_555
Rh0 Sn4 2.670382 1_555
Rh1 Sn8 2.670382 1_655
Rh1 Sn0 2.670382 1_555
Rh1 Sn3 2.670385 1_555
Rh1 Sn20 2.670385 1_555
Rh1 Sn19 2.670386 1_555
Rh1 Sn1 2.670386 1_555
Rh2 Sn16 2.670382 1_556
Rh2 Sn4 2.670382 1_555
Rh2 Sn24 2.670385 1_555
Rh2 Sn13 2.670385 1_555
Rh2 Sn9 2.670386 1_555
Rh2 Sn18 2.670386 1_555
Rh3 Sn15 2.670382 1_565
Rh3 Sn2 2.670382 1_555
Rh3 Sn10 2.670385 1_555
Rh3 Sn22 2.670385 1_555
Rh3 Sn25 2.670386 1_555
Rh3 Sn12 2.670386 1_555
Rh4 Sn5 2.670382 1_555
Rh4 Sn11 2.670382 1_555
Rh4 Sn23 2.670382 1_655
Rh4 Sn14 2.670382 1_555
Rh4 Sn21 2.670382 1_565
Rh4 Sn17 2.670382 1_556
Rh5 Sn5 2.670382 1_555
Rh5 Sn23 2.670382 1_555
Rh5 Sn18 2.670385 1_565
Rh5 Sn12 2.670385 1_555
Rh5 Sn13 2.670386 1_555
Rh5 Sn22 2.670386 1_556
Rh6 Sn11 2.670382 1_555
Rh6 Sn17 2.670382 1_555
Rh6 Sn25 2.670385 1_655
Rh6 Sn1 2.670385 1_555
Rh6 Sn10 2.670386 1_555
Rh6 Sn20 2.670386 1_565
Rh7 Sn14 2.670382 1_555
Rh7 Sn21 2.670382 1_555
Rh7 Sn9 2.670385 1_555
Rh7 Sn19 2.670385 1_556
Rh7 Sn3 2.670386 1_555
Rh7 Sn24 2.670386 1_655
