# generated using pymatgen
data_Sc2AsSe
_symmetry_space_group_name_H-M   'P 1'
_cell_length_a   6.74435391
_cell_length_b   6.74435368
_cell_length_c   6.74435274
_cell_angle_alpha   33.30573143
_cell_angle_beta   33.30573372
_cell_angle_gamma   33.30573708
_symmetry_Int_Tables_number   1
_chemical_formula_structural   Sc2AsSe
_chemical_formula_sum   'Sc2 As1 Se1'
_cell_volume   82.35651259
_cell_formula_units_Z   1
loop_
 _symmetry_equiv_pos_site_id
 _symmetry_equiv_pos_as_xyz
  1  'x, y, z'
loop_
 _atom_site_type_symbol
 _atom_site_label
 _atom_site_symmetry_multiplicity
 _atom_site_fract_x
 _atom_site_fract_y
 _atom_site_fract_z
 _atom_site_occupancy
  Sc  Sc0  1  0.25472217  0.25472217  0.25472217  1
  Sc  Sc1  1  0.74527783  0.74527783  0.74527783  1
  As  As0  1  0.00000000  0.00000000  0.00000000  1
  Se  Se0  1  0.50000000  0.50000000  0.50000000  1
loop_
_geom_bond_atom_site_label_1
_geom_bond_atom_site_label_2
_geom_bond_distance
_geom_bond_site_symmetry_2
Sc0 Se0 2.794158 1_554
Sc0 Se0 2.794158 1_545
Sc0 Se0 2.794159 1_455
Sc1 Se0 2.794158 1_556
Sc1 Se0 2.794158 1_565
Sc1 Se0 2.794159 1_655
As0 Sc1 2.689515 1_445
As0 Sc0 2.689515 1_554
As0 Sc1 2.689516 1_454
As0 Sc0 2.689516 1_545
As0 Sc1 2.689516 1_544
As0 Sc0 2.689516 1_455
