# generated using pymatgen
data_Lu5GaBiOs
_symmetry_space_group_name_H-M   'P 1'
_cell_length_a   8.56445470
_cell_length_b   8.56445501
_cell_length_c   8.66380521
_cell_angle_alpha   127.10662715
_cell_angle_beta   127.10661986
_cell_angle_gamma   77.25588906
_symmetry_Int_Tables_number   1
_chemical_formula_structural   Lu5GaBiOs
_chemical_formula_sum   'Lu10 Ga2 Bi2 Os2'
_cell_volume   393.78624422
_cell_formula_units_Z   2
loop_
 _symmetry_equiv_pos_site_id
 _symmetry_equiv_pos_as_xyz
  1  'x, y, z'
loop_
 _atom_site_type_symbol
 _atom_site_label
 _atom_site_symmetry_multiplicity
 _atom_site_fract_x
 _atom_site_fract_y
 _atom_site_fract_z
 _atom_site_occupancy
  Lu  Lu0  1  0.00000000  0.00000000  0.00000000  1
  Lu  Lu1  1  0.50000000  0.50000000  0.00000000  1
  Lu  Lu2  1  0.78142407  0.28142407  0.79396226  1
  Lu  Lu3  1  0.21857593  0.71857593  0.20603774  1
  Lu  Lu4  1  0.48746381  0.98746381  0.20603774  1
  Lu  Lu5  1  0.30762633  0.46179408  0.50000000  1
  Lu  Lu6  1  0.03820592  0.19237367  0.50000000  1
  Lu  Lu7  1  0.51253619  0.01253619  0.79396226  1
  Lu  Lu8  1  0.69237367  0.53820592  0.50000000  1
  Lu  Lu9  1  0.96179408  0.80762633  0.50000000  1
  Ga  Ga0  1  0.13606803  0.63606803  0.77213605  1
  Ga  Ga1  1  0.86393197  0.36393197  0.22786395  1
  Bi  Bi0  1  0.25000000  0.25000000  0.00000000  1
  Bi  Bi1  1  0.75000000  0.75000000  0.00000000  1
  Os  Os0  1  0.63571832  0.86428168  0.50000000  1
  Os  Os1  1  0.36428168  0.13571832  0.50000000  1
loop_
_geom_bond_atom_site_label_1
_geom_bond_atom_site_label_2
_geom_bond_distance
_geom_bond_site_symmetry_2
Lu0 Os1 3.011202 1_555
Lu0 Os0 3.011202 1_444
Lu1 Os0 3.011202 1_555
Lu1 Os1 3.011202 1_554
Lu2 Os0 2.821449 1_545
Lu2 Os1 2.821449 1_555
Lu3 Os1 2.821449 1_565
Lu3 Os0 2.821449 1_555
Lu4 Os1 2.821466 1_565
Lu4 Os0 2.821466 1_555
Lu5 Os1 2.727004 1_555
Lu6 Os1 2.727004 1_555
Lu7 Os0 2.821466 1_545
Lu7 Os1 2.821466 1_555
Lu8 Os0 2.727004 1_555
Lu9 Os0 2.727004 1_555
Ga0 Lu0 2.952825 1_566
Ga0 Lu1 2.952825 1_556
Ga0 Lu6 2.985261 1_555
Ga0 Lu8 2.985261 1_455
Ga0 Lu5 2.985261 1_555
Ga0 Lu9 2.985261 1_455
Ga0 Lu3 2.990050 1_556
Ga0 Lu4 2.990066 1_556
Ga1 Lu0 2.952825 1_655
Ga1 Lu1 2.952825 1_555
Ga1 Lu9 2.985261 1_555
Ga1 Lu5 2.985261 1_655
Ga1 Lu8 2.985261 1_555
Ga1 Lu6 2.985261 1_655
Ga1 Lu2 2.990050 1_554
Ga1 Lu7 2.990066 1_554
Bi0 Lu9 3.260900 1_444
Bi0 Lu8 3.260900 1_555
Bi0 Lu5 3.260900 1_555
Bi0 Lu6 3.260900 1_554
Bi0 Lu7 3.289872 1_554
Bi0 Lu4 3.289872 1_545
Bi0 Lu3 3.289885 1_555
Bi0 Lu2 3.289885 1_454
Bi0 Lu0 3.345345 1_555
Bi0 Lu1 3.345345 1_555
Bi1 Lu6 3.260900 1_665
Bi1 Lu5 3.260900 1_554
Bi1 Lu8 3.260900 1_554
Bi1 Lu9 3.260900 1_555
Bi1 Lu4 3.289872 1_555
Bi1 Lu7 3.289872 1_564
Bi1 Lu2 3.289885 1_554
Bi1 Lu3 3.289885 1_655
Bi1 Lu0 3.345345 1_665
Bi1 Lu1 3.345345 1_555
