# generated using pymatgen
data_Rb4TaCrBr12
_symmetry_space_group_name_H-M   'P 1'
_cell_length_a   7.46299000
_cell_length_b   7.46299000
_cell_length_c   10.81814748
_cell_angle_alpha   90.00000000
_cell_angle_beta   90.00000000
_cell_angle_gamma   90.00000000
_symmetry_Int_Tables_number   1
_chemical_formula_structural   Rb4TaCrBr12
_chemical_formula_sum   'Rb4 Ta1 Cr1 Br12'
_cell_volume   602.52991875
_cell_formula_units_Z   1
loop_
 _symmetry_equiv_pos_site_id
 _symmetry_equiv_pos_as_xyz
  1  'x, y, z'
loop_
 _atom_site_type_symbol
 _atom_site_label
 _atom_site_symmetry_multiplicity
 _atom_site_fract_x
 _atom_site_fract_y
 _atom_site_fract_z
 _atom_site_occupancy
  Rb  Rb0  1  0.50000000  0.00000000  0.78378210  1
  Rb  Rb1  1  0.00000000  0.50000000  0.21621790  1
  Rb  Rb2  1  0.50000000  0.00000000  0.21621790  1
  Rb  Rb3  1  0.00000000  0.50000000  0.78378210  1
  Ta  Ta0  1  0.50000000  0.50000000  0.50000000  1
  Cr  Cr0  1  0.00000000  0.00000000  0.00000000  1
  Br  Br0  1  0.00000000  0.00000000  0.76511407  1
  Br  Br1  1  0.50000000  0.50000000  0.26570280  1
  Br  Br2  1  0.73861411  0.73861411  0.50000000  1
  Br  Br3  1  0.23918039  0.23918039  0.00000000  1
  Br  Br4  1  0.73861411  0.26138589  0.50000000  1
  Br  Br5  1  0.23918039  0.76081961  0.00000000  1
  Br  Br6  1  0.00000000  0.00000000  0.23488593  1
  Br  Br7  1  0.50000000  0.50000000  0.73429720  1
  Br  Br8  1  0.26138589  0.26138589  0.50000000  1
  Br  Br9  1  0.76081961  0.76081961  0.00000000  1
  Br  Br10  1  0.26138589  0.73861411  0.50000000  1
  Br  Br11  1  0.76081961  0.23918039  0.00000000  1
loop_
_geom_bond_atom_site_label_1
_geom_bond_atom_site_label_2
_geom_bond_distance
_geom_bond_site_symmetry_2
Br0 Cr0 2.541031 1_556
Br0 Rb0 3.736956 1_555
Br0 Rb3 3.736956 1_545
Br0 Rb3 3.736956 1_555
Br0 Rb0 3.736956 1_455
Br1 Ta0 2.534662 1_555
Br1 Rb1 3.769700 1_655
Br1 Rb2 3.769700 1_555
Br1 Rb2 3.769700 1_565
Br1 Rb1 3.769700 1_555
Br2 Ta0 2.518396 1_555
Br2 Rb0 4.049858 1_565
Br2 Rb3 4.049858 1_655
Br2 Rb1 4.049858 1_655
Br2 Rb2 4.049858 1_565
Br3 Cr0 2.524372 1_555
Br3 Rb2 3.527938 1_555
Br3 Rb1 3.527938 1_555
Br3 Rb0 3.527938 1_554
Br3 Rb3 3.527938 1_554
Br4 Ta0 2.518396 1_555
Br4 Rb0 4.049858 1_555
Br4 Rb3 4.049858 1_655
Br4 Rb2 4.049858 1_555
Br4 Rb1 4.049858 1_655
Br5 Cr0 2.524372 1_565
Br5 Rb1 3.527938 1_555
Br5 Rb3 3.527938 1_554
Br5 Rb2 3.527938 1_565
Br5 Rb0 3.527938 1_564
Br6 Cr0 2.541031 1_555
Br6 Rb1 3.736956 1_555
Br6 Rb2 3.736956 1_555
Br6 Rb2 3.736956 1_455
Br6 Rb1 3.736956 1_545
Br7 Ta0 2.534662 1_555
Br7 Rb3 3.769700 1_655
Br7 Rb3 3.769700 1_555
Br7 Rb0 3.769700 1_555
Br7 Rb0 3.769700 1_565
Br8 Ta0 2.518396 1_555
Br8 Rb0 4.049858 1_555
Br8 Rb3 4.049858 1_555
Br8 Rb1 4.049858 1_555
Br8 Rb2 4.049858 1_555
Br9 Cr0 2.524372 1_665
Br9 Rb2 3.527938 1_565
Br9 Rb1 3.527938 1_655
Br9 Rb3 3.527938 1_654
Br9 Rb0 3.527938 1_564
Br10 Ta0 2.518396 1_555
Br10 Rb3 4.049858 1_555
Br10 Rb0 4.049858 1_565
Br10 Rb1 4.049858 1_555
Br10 Rb2 4.049858 1_565
Br11 Cr0 2.524372 1_655
Br11 Rb2 3.527938 1_555
Br11 Rb0 3.527938 1_554
Br11 Rb1 3.527938 1_655
Br11 Rb3 3.527938 1_654
