# generated using pymatgen
data_ScIn2(Ni10B3)2
_symmetry_space_group_name_H-M   'P 1'
_cell_length_a   7.47090141
_cell_length_b   7.47090175
_cell_length_c   7.47090075
_cell_angle_alpha   60.00000008
_cell_angle_beta   59.99999857
_cell_angle_gamma   60.00000056
_symmetry_Int_Tables_number   1
_chemical_formula_structural   ScIn2(Ni10B3)2
_chemical_formula_sum   'Sc1 In2 Ni20 B6'
_cell_volume   294.85194494
_cell_formula_units_Z   1
loop_
 _symmetry_equiv_pos_site_id
 _symmetry_equiv_pos_as_xyz
  1  'x, y, z'
loop_
 _atom_site_type_symbol
 _atom_site_label
 _atom_site_symmetry_multiplicity
 _atom_site_fract_x
 _atom_site_fract_y
 _atom_site_fract_z
 _atom_site_occupancy
  Sc  Sc0  1  0.00000000  0.00000000  0.00000000  1
  In  In0  1  0.75000000  0.75000000  0.75000000  1
  In  In1  1  0.25000000  0.25000000  0.25000000  1
  Ni  Ni0  1  0.61343266  0.61343266  0.15970201  1
  Ni  Ni1  1  0.61343266  0.15970201  0.61343266  1
  Ni  Ni2  1  0.15970201  0.61343266  0.61343266  1
  Ni  Ni3  1  0.61343266  0.61343266  0.61343266  1
  Ni  Ni4  1  0.38656734  0.38656734  0.84029799  1
  Ni  Ni5  1  0.38656734  0.84029799  0.38656734  1
  Ni  Ni6  1  0.84029799  0.38656734  0.38656734  1
  Ni  Ni7  1  0.38656734  0.38656734  0.38656734  1
  Ni  Ni8  1  1.00000000  1.00000000  0.34127756  1
  Ni  Ni9  1  0.65872244  1.00000000  0.34127756  1
  Ni  Ni10  1  1.00000000  0.65872244  0.34127756  1
  Ni  Ni11  1  0.65872244  0.34127756  0.00000000  1
  Ni  Ni12  1  0.00000000  0.34127756  0.00000000  1
  Ni  Ni13  1  0.00000000  0.34127756  0.65872244  1
  Ni  Ni14  1  0.34127756  0.65872244  1.00000000  1
  Ni  Ni15  1  0.34127756  0.00000000  0.65872244  1
  Ni  Ni16  1  0.34127756  1.00000000  0.00000000  1
  Ni  Ni17  1  0.00000000  0.00000000  0.65872244  1
  Ni  Ni18  1  1.00000000  0.65872244  1.00000000  1
  Ni  Ni19  1  0.65872244  0.00000000  1.00000000  1
  B  B0  1  0.72977426  0.72977426  0.27022574  1
  B  B1  1  0.27022574  0.72977426  0.27022574  1
  B  B2  1  0.72977426  0.27022574  0.27022574  1
  B  B3  1  0.27022574  0.27022574  0.72977426  1
  B  B4  1  0.72977426  0.27022574  0.72977426  1
  B  B5  1  0.27022574  0.72977426  0.72977426  1
loop_
_geom_bond_atom_site_label_1
_geom_bond_atom_site_label_2
_geom_bond_distance
_geom_bond_site_symmetry_2
In0 Ni0 2.499168 1_556
In0 Ni3 2.499168 1_555
In0 Ni2 2.499168 1_655
In0 Ni1 2.499168 1_565
In0 Ni10 2.895326 1_555
In0 Ni9 2.895327 1_555
In0 Ni8 2.895327 1_555
In0 Ni18 2.895327 1_555
In0 Ni19 2.895327 1_565
In0 Ni16 2.895327 1_556
In0 Ni14 2.895327 1_555
In0 Ni15 2.895327 1_565
In0 Ni12 2.895327 1_656
In0 Ni17 2.895327 1_665
In0 Ni13 2.895327 1_655
In0 Ni11 2.895327 1_556
In1 Ni4 2.499168 1_554
In1 Ni7 2.499168 1_555
In1 Ni6 2.499168 1_455
In1 Ni5 2.499168 1_545
In1 Ni13 2.895326 1_555
In1 Ni15 2.895327 1_555
In1 Ni17 2.895327 1_555
In1 Ni12 2.895327 1_555
In1 Ni16 2.895327 1_545
In1 Ni19 2.895327 1_554
In1 Ni11 2.895327 1_555
In1 Ni9 2.895327 1_545
In1 Ni18 2.895327 1_454
In1 Ni8 2.895327 1_445
In1 Ni10 2.895327 1_455
In1 Ni14 2.895327 1_554
Ni0 Ni14 2.646949 1_554
Ni0 Ni18 2.646949 1_554
Ni0 Ni12 2.646949 1_655
Ni0 Ni11 2.646949 1_555
Ni0 Ni16 2.646949 1_555
Ni0 Ni19 2.646949 1_564
Ni1 Ni19 2.646949 1_555
Ni1 Ni16 2.646949 1_546
Ni1 Ni9 2.646949 1_545
Ni1 Ni8 2.646949 1_545
Ni1 Ni17 2.646949 1_655
Ni1 Ni15 2.646949 1_555
Ni2 Ni8 2.646949 1_455
Ni3 Ni9 2.646949 1_555
Ni5 Ni8 2.646949 1_455
Ni5 Ni9 2.646949 1_555
Ni6 Ni8 2.646949 1_545
Ni7 Ni9 2.646949 1_545
Ni8 Sc0 2.549651 1_665
Ni8 Ni9 2.549651 1_555
Ni9 Sc0 2.549651 1_665
Ni10 Ni13 2.371599 1_655
Ni10 Ni18 2.549651 1_554
Ni10 Ni14 2.549651 1_654
Ni10 Sc0 2.549651 1_665
Ni10 Ni9 2.549651 1_555
Ni10 Ni8 2.549651 1_555
Ni10 Ni2 2.646949 1_655
Ni10 Ni3 2.646949 1_555
Ni10 Ni7 2.646949 1_655
Ni10 Ni6 2.646949 1_555
Ni11 Ni14 2.371599 1_554
Ni11 Ni13 2.549651 1_654
Ni11 Ni9 2.549651 1_545
Ni11 Ni12 2.549651 1_655
Ni11 Sc0 2.549651 1_655
Ni11 Ni19 2.549651 1_554
Ni11 Ni7 2.646949 1_555
Ni11 Ni3 2.646949 1_554
Ni11 Ni4 2.646949 1_554
Ni12 Ni18 2.371600 1_454
Ni12 Ni13 2.549651 1_554
Ni12 Ni8 2.549651 1_445
Ni12 Ni16 2.549651 1_545
Ni12 Sc0 2.549651 1_555
Ni12 Ni6 2.646949 1_455
Ni12 Ni2 2.646949 1_554
Ni12 Ni4 2.646949 1_554
Ni13 Sc0 2.549651 1_556
Ni13 Ni15 2.549651 1_555
Ni13 Ni17 2.549651 1_555
Ni13 Ni6 2.646949 1_455
Ni13 Ni7 2.646949 1_555
Ni13 Ni3 2.646949 1_455
Ni13 Ni2 2.646949 1_555
Ni14 Ni15 2.549651 1_565
Ni14 Ni18 2.549651 1_455
Ni14 Sc0 2.549651 1_566
Ni14 Ni16 2.549651 1_556
Ni14 Ni3 2.646949 1_555
Ni14 Ni7 2.646949 1_556
Ni14 Ni4 2.646949 1_555
Ni15 Ni9 2.371599 1_545
Ni15 Ni16 2.549651 1_546
Ni15 Sc0 2.549651 1_556
Ni15 Ni17 2.549651 1_555
Ni15 Ni5 2.646949 1_545
Ni15 Ni7 2.646949 1_555
Ni15 Ni3 2.646949 1_545
Ni16 Ni19 2.371599 1_564
Ni16 Ni8 2.549651 1_455
Ni16 Sc0 2.549651 1_565
Ni16 Ni5 2.646949 1_555
Ni16 Ni4 2.646949 1_564
Ni17 Ni8 2.371599 1_445
Ni17 Sc0 2.549651 1_556
Ni17 Ni19 2.549651 1_455
Ni17 Ni18 2.549651 1_445
Ni17 Ni5 2.646949 1_545
Ni17 Ni6 2.646949 1_455
Ni17 Ni2 2.646949 1_545
Ni18 Ni19 2.549651 1_565
Ni18 Sc0 2.549651 1_666
Ni18 Ni2 2.646949 1_655
Ni18 Ni6 2.646949 1_556
Ni18 Ni4 2.646949 1_655
Ni19 Ni9 2.549651 1_546
Ni19 Sc0 2.549651 1_656
Ni19 Ni5 2.646949 1_546
Ni19 Ni4 2.646949 1_555
B0 Ni18 2.087449 1_554
B0 Ni19 2.087449 1_564
B0 Ni10 2.087449 1_555
B0 Ni9 2.087449 1_555
B0 Ni3 2.093701 1_555
B0 Ni0 2.093701 1_555
B0 Ni5 2.093701 1_555
B0 Ni6 2.093701 1_555
B1 Ni14 2.087449 1_554
B1 Ni16 2.087449 1_555
B1 Ni10 2.087449 1_455
B1 Ni8 2.087449 1_455
B1 Ni2 2.093701 1_555
B1 Ni5 2.093701 1_555
B1 Ni0 2.093701 1_555
B1 Ni7 2.093701 1_555
B2 Ni11 2.087449 1_555
B2 Ni12 2.087449 1_655
B2 Ni8 2.087449 1_545
B2 Ni9 2.087450 1_545
B2 Ni1 2.093701 1_555
B2 Ni6 2.093701 1_555
B2 Ni7 2.093701 1_555
B2 Ni0 2.093701 1_555
B3 Ni12 2.087449 1_556
B3 Ni16 2.087449 1_546
B3 Ni13 2.087449 1_555
B3 Ni15 2.087449 1_555
B3 Ni7 2.093701 1_555
B3 Ni4 2.093701 1_555
B3 Ni1 2.093701 1_555
B3 Ni2 2.093701 1_555
B4 Ni11 2.087449 1_556
B4 Ni19 2.087449 1_555
B4 Ni13 2.087449 1_655
B4 Ni17 2.087449 1_655
B4 Ni6 2.093701 1_555
B4 Ni1 2.093701 1_555
B4 Ni4 2.093701 1_555
B4 Ni3 2.093701 1_555
B5 Ni14 2.087449 1_555
B5 Ni18 2.087449 1_455
B5 Ni17 2.087449 1_565
B5 Ni15 2.087450 1_565
B5 Ni5 2.093701 1_555
B5 Ni2 2.093701 1_555
B5 Ni3 2.093701 1_555
B5 Ni4 2.093701 1_555
