# generated using pymatgen
data_TiBe8VRe2
_symmetry_space_group_name_H-M   'P 1'
_cell_length_a   4.38042235
_cell_length_b   4.38042267
_cell_length_c   7.15666349
_cell_angle_alpha   90.00000000
_cell_angle_beta   90.00000000
_cell_angle_gamma   120.00001259
_symmetry_Int_Tables_number   1
_chemical_formula_structural   TiBe8VRe2
_chemical_formula_sum   'Ti1 Be8 V1 Re2'
_cell_volume   118.92500457
_cell_formula_units_Z   1
loop_
 _symmetry_equiv_pos_site_id
 _symmetry_equiv_pos_as_xyz
  1  'x, y, z'
loop_
 _atom_site_type_symbol
 _atom_site_label
 _atom_site_symmetry_multiplicity
 _atom_site_fract_x
 _atom_site_fract_y
 _atom_site_fract_z
 _atom_site_occupancy
  Ti  Ti0  1  0.66666700  0.33333300  0.56516803  1
  Be  Be0  1  0.00000000  0.00000000  0.99706536  1
  Be  Be1  1  0.00000000  0.00000000  0.49691467  1
  Be  Be2  1  0.82999398  0.65998697  0.24959309  1
  Be  Be3  1  0.17051634  0.82948366  0.75124451  1
  Be  Be4  1  0.65896733  0.82948366  0.75124451  1
  Be  Be5  1  0.34001303  0.17000602  0.24959309  1
  Be  Be6  1  0.82999398  0.17000602  0.24959309  1
  Be  Be7  1  0.17051634  0.34103267  0.75124451  1
  V  V0  1  0.33333300  0.66666700  0.06486475  1
  Re  Re0  1  0.66666700  0.33333300  0.94217507  1
  Re  Re1  1  0.33333300  0.66666700  0.43129829  1
loop_
_geom_bond_atom_site_label_1
_geom_bond_atom_site_label_2
_geom_bond_distance
_geom_bond_site_symmetry_2
Be0 Be4 2.183739 1_445
Be0 Be7 2.183739 1_555
Be0 Be3 2.183739 1_545
Be0 Be6 2.220338 1_456
Be0 Be5 2.220340 1_556
Be0 Be2 2.220340 1_446
Be0 Re0 2.559363 1_455
Be0 Re0 2.559366 1_555
Be0 Re0 2.559366 1_445
Be0 V0 2.575162 1_546
Be0 V0 2.575165 1_446
Be0 V0 2.575165 1_556
Be1 Be6 2.190118 1_455
Be1 Be5 2.190120 1_555
Be1 Be2 2.190120 1_445
Be1 Be4 2.233089 1_445
Be1 Be7 2.233089 1_555
Be1 Be3 2.233089 1_545
Be1 Re1 2.572264 1_545
Be1 Re1 2.572267 1_445
Be1 Re1 2.572267 1_555
Be1 Ti0 2.575776 1_455
Be1 Ti0 2.575779 1_555
Be1 Ti0 2.575779 1_445
Be2 Be5 2.146323 1_555
Be2 Be6 2.146324 1_555
Be2 Be5 2.234098 1_665
Be2 Be6 2.234099 1_565
Be2 Re0 2.525065 1_554
Be2 Re1 2.547292 1_655
Be2 Re1 2.547299 1_555
Be2 V0 2.558405 1_655
Be2 V0 2.558412 1_555
Be2 Ti0 2.576087 1_555
Be3 Be4 2.139622 1_555
Be3 Be7 2.139622 1_555
Be3 Be4 2.240801 1_455
Be3 Be7 2.240801 1_565
Be3 V0 2.561963 1_556
Be3 Ti0 2.563448 1_455
Be3 Ti0 2.563448 1_565
Be3 Re0 2.581665 1_455
Be3 Re0 2.581665 1_565
Be3 Re1 2.601717 1_555
Be4 Be7 2.139621 1_555
Be4 Be7 2.240800 1_665
Be4 V0 2.561965 1_556
Be4 Ti0 2.563447 1_565
Be4 Ti0 2.563450 1_555
Be4 Re0 2.581664 1_565
Be4 Re0 2.581668 1_555
Be4 Re1 2.601719 1_555
Be5 Be6 2.146324 1_555
Be5 Be6 2.234099 1_455
Be5 Re0 2.525065 1_554
Be5 Re1 2.547292 1_545
Be5 Re1 2.547300 1_555
Be5 V0 2.558405 1_545
Be5 V0 2.558412 1_555
Be5 Ti0 2.576087 1_555
Be6 Re0 2.525065 1_554
Be6 Re1 2.547295 1_655
Be6 Re1 2.547295 1_545
Be6 V0 2.558408 1_655
Be6 V0 2.558408 1_545
Be6 Ti0 2.576087 1_555
Be7 V0 2.561965 1_556
Be7 Ti0 2.563447 1_455
Be7 Ti0 2.563450 1_555
Be7 Re0 2.581664 1_455
Be7 Re0 2.581668 1_555
Be7 Re1 2.601719 1_555
Re0 V0 2.677123 1_656
Re0 V0 2.677123 1_546
Re0 V0 2.677131 1_556
Re0 Ti0 2.698113 1_555
Re1 V0 2.622442 1_555
Re1 Ti0 2.704422 1_455
Re1 Ti0 2.704422 1_565
Re1 Ti0 2.704430 1_555
