# generated using pymatgen
data_Rb6InTe4F
_symmetry_space_group_name_H-M   'P 1'
_cell_length_a   11.69036700
_cell_length_b   11.69036699
_cell_length_c   8.16757038
_cell_angle_alpha   90.00000000
_cell_angle_beta   90.00000000
_cell_angle_gamma   120.00000003
_symmetry_Int_Tables_number   1
_chemical_formula_structural   Rb6InTe4F
_chemical_formula_sum   'Rb12 In2 Te8 F2'
_cell_volume   966.67348773
_cell_formula_units_Z   2
loop_
 _symmetry_equiv_pos_site_id
 _symmetry_equiv_pos_as_xyz
  1  'x, y, z'
loop_
 _atom_site_type_symbol
 _atom_site_label
 _atom_site_symmetry_multiplicity
 _atom_site_fract_x
 _atom_site_fract_y
 _atom_site_fract_z
 _atom_site_occupancy
  Rb  Rb0  1  0.10912460  0.89087540  0.50954056  1
  Rb  Rb1  1  0.78174979  0.89087540  0.50954056  1
  Rb  Rb2  1  0.95887400  0.47943750  0.31833185  1
  Rb  Rb3  1  0.52056250  0.47943750  0.31833185  1
  Rb  Rb4  1  0.89087540  0.78174979  0.00954056  1
  Rb  Rb5  1  0.21825021  0.10912460  0.00954056  1
  Rb  Rb6  1  0.52056250  0.04112600  0.31833185  1
  Rb  Rb7  1  0.10912460  0.21825021  0.50954056  1
  Rb  Rb8  1  0.89087540  0.10912460  0.00954056  1
  Rb  Rb9  1  0.04112600  0.52056250  0.81833185  1
  Rb  Rb10  1  0.47943750  0.95887400  0.81833185  1
  Rb  Rb11  1  0.47943750  0.52056250  0.81833185  1
  In  In0  1  0.66666700  0.33333300  0.70949933  1
  In  In1  1  0.33333300  0.66666700  0.20949933  1
  Te  Te0  1  0.40151508  0.20075804  0.60335236  1
  Te  Te1  1  0.59848492  0.79924196  0.10335236  1
  Te  Te2  1  0.66666700  0.33333300  0.04936888  1
  Te  Te3  1  0.79924196  0.59848492  0.60335236  1
  Te  Te4  1  0.20075804  0.40151508  0.10335236  1
  Te  Te5  1  0.33333300  0.66666700  0.54936888  1
  Te  Te6  1  0.20075804  0.79924196  0.10335236  1
  Te  Te7  1  0.79924196  0.20075804  0.60335236  1
  F  F0  1  0.00000000  0.00000000  0.28805845  1
  F  F1  1  0.00000000  0.00000000  0.78805845  1
loop_
_geom_bond_atom_site_label_1
_geom_bond_atom_site_label_2
_geom_bond_distance
_geom_bond_site_symmetry_2
Rb0 Te0 3.607165 1_565
Rb0 Te3 3.607165 1_455
Rb0 Te6 3.801167 1_555
Rb1 Te7 3.607165 1_565
Rb1 Te3 3.607165 1_555
Rb1 Te1 3.801157 1_555
Rb2 Te7 3.665484 1_555
Rb2 Te3 3.665484 1_555
Rb2 Te2 3.684786 1_555
Rb2 Te6 3.805863 1_655
Rb2 Te4 3.805877 1_655
Rb3 Te0 3.665484 1_555
Rb3 Te3 3.665484 1_555
Rb3 Te2 3.684802 1_555
Rb3 Te1 3.805857 1_555
Rb3 Te4 3.805857 1_555
Rb4 Te1 3.607165 1_555
Rb4 Te6 3.607165 1_655
Rb4 Te3 3.801157 1_554
Rb5 Te6 3.607165 1_545
Rb5 Te4 3.607165 1_555
Rb5 Te0 3.801157 1_554
Rb6 Te0 3.665484 1_555
Rb6 Te7 3.665484 1_555
Rb6 Te2 3.684786 1_555
Rb6 Te6 3.805863 1_545
Rb6 Te1 3.805877 1_545
Rb7 Te0 3.607165 1_555
Rb7 Te7 3.607165 1_455
Rb7 Te4 3.801157 1_555
Rb8 Te1 3.607165 1_545
Rb8 Te4 3.607165 1_655
Rb8 Te7 3.801167 1_554
Rb9 Te6 3.665484 1_556
Rb9 Te4 3.665484 1_556
Rb9 Te5 3.684786 1_555
Rb9 Te7 3.805863 1_455
Rb9 Te3 3.805877 1_455
Rb10 Te1 3.665484 1_556
Rb10 Te6 3.665484 1_556
Rb10 Te5 3.684786 1_555
Rb10 Te7 3.805863 1_565
Rb10 Te0 3.805877 1_565
Rb11 Te1 3.665484 1_556
Rb11 Te4 3.665484 1_556
Rb11 Te5 3.684802 1_555
Rb11 Te0 3.805857 1_555
Rb11 Te3 3.805857 1_555
In0 Te2 2.775908 1_556
In0 Te7 2.820945 1_555
In0 Te3 2.820964 1_555
In0 Te0 2.820964 1_555
In1 Te5 2.775908 1_555
In1 Te6 2.820945 1_555
In1 Te4 2.820964 1_555
In1 Te1 2.820964 1_555
F0 Rb0 2.855636 1_545
F0 Rb7 2.855644 1_555
F0 Rb1 2.855644 1_445
F0 Rb8 3.171287 1_455
F0 Rb4 3.171294 1_445
F0 Rb5 3.171294 1_555
F1 Rb8 2.855636 1_456
F1 Rb4 2.855644 1_446
F1 Rb5 2.855644 1_556
F1 Rb0 3.171287 1_545
F1 Rb7 3.171294 1_555
F1 Rb1 3.171294 1_445
