# generated using pymatgen
data_Zr5(CoHg2)2
_symmetry_space_group_name_H-M   'P 1'
_cell_length_a   6.59230220
_cell_length_b   14.90362324
_cell_length_c   34.46292648
_cell_angle_alpha   90.00000000
_cell_angle_beta   90.00000000
_cell_angle_gamma   90.00000000
_symmetry_Int_Tables_number   1
_chemical_formula_structural   Zr5(CoHg2)2
_chemical_formula_sum   'Zr80 Co32 Hg64'
_cell_volume   3385.95455271
_cell_formula_units_Z   16
loop_
 _symmetry_equiv_pos_site_id
 _symmetry_equiv_pos_as_xyz
  1  'x, y, z'
loop_
 _atom_site_type_symbol
 _atom_site_label
 _atom_site_symmetry_multiplicity
 _atom_site_fract_x
 _atom_site_fract_y
 _atom_site_fract_z
 _atom_site_occupancy
  Zr  Zr0_0  1  0.00000000  0.06697589  0.45605942  1
  Zr  Zr0_1  1  0.00000000  0.06697589  0.95605942  1
  Zr  Zr0_2  1  0.00000000  0.56697589  0.45605942  1
  Zr  Zr0_3  1  0.00000000  0.56697589  0.95605942  1
  Zr  Zr0_4  1  0.50000000  0.06697589  0.45605942  1
  Zr  Zr0_5  1  0.50000000  0.06697589  0.95605942  1
  Zr  Zr0_6  1  0.50000000  0.56697589  0.45605942  1
  Zr  Zr0_7  1  0.50000000  0.56697589  0.95605942  1
  Zr  Zr1_0  1  0.00000000  0.38379083  0.38957375  1
  Zr  Zr1_1  1  0.00000000  0.38379083  0.88957375  1
  Zr  Zr1_2  1  0.00000000  0.88379083  0.38957375  1
  Zr  Zr1_3  1  0.00000000  0.88379083  0.88957375  1
  Zr  Zr1_4  1  0.50000000  0.38379083  0.38957375  1
  Zr  Zr1_5  1  0.50000000  0.38379083  0.88957375  1
  Zr  Zr1_6  1  0.50000000  0.88379083  0.38957375  1
  Zr  Zr1_7  1  0.50000000  0.88379083  0.88957375  1
  Zr  Zr2_0  1  0.00000000  0.31697589  0.29394058  1
  Zr  Zr2_1  1  0.00000000  0.31697589  0.79394058  1
  Zr  Zr2_2  1  0.00000000  0.81697589  0.29394058  1
  Zr  Zr2_3  1  0.00000000  0.81697589  0.79394058  1
  Zr  Zr2_4  1  0.50000000  0.31697589  0.29394058  1
  Zr  Zr2_5  1  0.50000000  0.31697589  0.79394058  1
  Zr  Zr2_6  1  0.50000000  0.81697589  0.29394058  1
  Zr  Zr2_7  1  0.50000000  0.81697589  0.79394058  1
  Zr  Zr3_0  1  0.00000000  0.13379083  0.36042625  1
  Zr  Zr3_1  1  0.00000000  0.13379083  0.86042625  1
  Zr  Zr3_2  1  0.00000000  0.63379083  0.36042625  1
  Zr  Zr3_3  1  0.00000000  0.63379083  0.86042625  1
  Zr  Zr3_4  1  0.50000000  0.13379083  0.36042625  1
  Zr  Zr3_5  1  0.50000000  0.13379083  0.86042625  1
  Zr  Zr3_6  1  0.50000000  0.63379083  0.36042625  1
  Zr  Zr3_7  1  0.50000000  0.63379083  0.86042625  1
  Zr  Zr4_0  1  0.00000000  0.18302411  0.20605942  1
  Zr  Zr4_1  1  0.00000000  0.18302411  0.70605942  1
  Zr  Zr4_2  1  0.00000000  0.68302411  0.20605942  1
  Zr  Zr4_3  1  0.00000000  0.68302411  0.70605942  1
  Zr  Zr4_4  1  0.50000000  0.18302411  0.20605942  1
  Zr  Zr4_5  1  0.50000000  0.18302411  0.70605942  1
  Zr  Zr4_6  1  0.50000000  0.68302411  0.20605942  1
  Zr  Zr4_7  1  0.50000000  0.68302411  0.70605942  1
  Zr  Zr5_0  1  0.00000000  0.11620917  0.11042625  1
  Zr  Zr5_1  1  0.00000000  0.11620917  0.61042625  1
  Zr  Zr5_2  1  0.00000000  0.61620917  0.11042625  1
  Zr  Zr5_3  1  0.00000000  0.61620917  0.61042625  1
  Zr  Zr5_4  1  0.50000000  0.11620917  0.11042625  1
  Zr  Zr5_5  1  0.50000000  0.11620917  0.61042625  1
  Zr  Zr5_6  1  0.50000000  0.61620917  0.11042625  1
  Zr  Zr5_7  1  0.50000000  0.61620917  0.61042625  1
  Zr  Zr6_0  1  0.00000000  0.00000000  0.25000000  1
  Zr  Zr6_1  1  0.00000000  0.00000000  0.75000000  1
  Zr  Zr6_2  1  0.00000000  0.50000000  0.25000000  1
  Zr  Zr6_3  1  0.00000000  0.50000000  0.75000000  1
  Zr  Zr6_4  1  0.50000000  0.00000000  0.25000000  1
  Zr  Zr6_5  1  0.50000000  0.00000000  0.75000000  1
  Zr  Zr6_6  1  0.50000000  0.50000000  0.25000000  1
  Zr  Zr6_7  1  0.50000000  0.50000000  0.75000000  1
  Zr  Zr7_0  1  0.00000000  0.36620917  0.13957375  1
  Zr  Zr7_1  1  0.00000000  0.36620917  0.63957375  1
  Zr  Zr7_2  1  0.00000000  0.86620917  0.13957375  1
  Zr  Zr7_3  1  0.00000000  0.86620917  0.63957375  1
  Zr  Zr7_4  1  0.50000000  0.36620917  0.13957375  1
  Zr  Zr7_5  1  0.50000000  0.36620917  0.63957375  1
  Zr  Zr7_6  1  0.50000000  0.86620917  0.13957375  1
  Zr  Zr7_7  1  0.50000000  0.86620917  0.63957375  1
  Zr  Zr8_0  1  0.00000000  0.25000000  0.00000000  1
  Zr  Zr8_1  1  0.00000000  0.25000000  0.50000000  1
  Zr  Zr8_2  1  0.00000000  0.75000000  0.00000000  1
  Zr  Zr8_3  1  0.00000000  0.75000000  0.50000000  1
  Zr  Zr8_4  1  0.50000000  0.25000000  0.00000000  1
  Zr  Zr8_5  1  0.50000000  0.25000000  0.50000000  1
  Zr  Zr8_6  1  0.50000000  0.75000000  0.00000000  1
  Zr  Zr8_7  1  0.50000000  0.75000000  0.50000000  1
  Zr  Zr9_0  1  0.00000000  0.43302411  0.04394058  1
  Zr  Zr9_1  1  0.00000000  0.43302411  0.54394058  1
  Zr  Zr9_2  1  0.00000000  0.93302411  0.04394058  1
  Zr  Zr9_3  1  0.00000000  0.93302411  0.54394058  1
  Zr  Zr9_4  1  0.50000000  0.43302411  0.04394058  1
  Zr  Zr9_5  1  0.50000000  0.43302411  0.54394058  1
  Zr  Zr9_6  1  0.50000000  0.93302411  0.04394058  1
  Zr  Zr9_7  1  0.50000000  0.93302411  0.54394058  1
  Co  Co0_0  1  0.25000000  0.27582193  0.34677906  1
  Co  Co0_1  1  0.25000000  0.27582193  0.84677906  1
  Co  Co0_2  1  0.25000000  0.77582193  0.34677906  1
  Co  Co0_3  1  0.25000000  0.77582193  0.84677906  1
  Co  Co0_4  1  0.75000000  0.27582193  0.34677906  1
  Co  Co0_5  1  0.75000000  0.27582193  0.84677906  1
  Co  Co0_6  1  0.75000000  0.77582193  0.34677906  1
  Co  Co0_7  1  0.75000000  0.77582193  0.84677906  1
  Co  Co1_0  1  0.25000000  0.22417807  0.15322094  1
  Co  Co1_1  1  0.25000000  0.22417807  0.65322094  1
  Co  Co1_2  1  0.25000000  0.72417807  0.15322094  1
  Co  Co1_3  1  0.25000000  0.72417807  0.65322094  1
  Co  Co1_4  1  0.75000000  0.22417807  0.15322094  1
  Co  Co1_5  1  0.75000000  0.22417807  0.65322094  1
  Co  Co1_6  1  0.75000000  0.72417807  0.15322094  1
  Co  Co1_7  1  0.75000000  0.72417807  0.65322094  1
  Co  Co2_0  1  0.25000000  0.02582193  0.40322094  1
  Co  Co2_1  1  0.25000000  0.02582193  0.90322094  1
  Co  Co2_2  1  0.25000000  0.52582193  0.40322094  1
  Co  Co2_3  1  0.25000000  0.52582193  0.90322094  1
  Co  Co2_4  1  0.75000000  0.02582193  0.40322094  1
  Co  Co2_5  1  0.75000000  0.02582193  0.90322094  1
  Co  Co2_6  1  0.75000000  0.52582193  0.40322094  1
  Co  Co2_7  1  0.75000000  0.52582193  0.90322094  1
  Co  Co3_0  1  0.25000000  0.47417807  0.09677906  1
  Co  Co3_1  1  0.25000000  0.47417807  0.59677906  1
  Co  Co3_2  1  0.25000000  0.97417807  0.09677906  1
  Co  Co3_3  1  0.25000000  0.97417807  0.59677906  1
  Co  Co3_4  1  0.75000000  0.47417807  0.09677906  1
  Co  Co3_5  1  0.75000000  0.47417807  0.59677906  1
  Co  Co3_6  1  0.75000000  0.97417807  0.09677906  1
  Co  Co3_7  1  0.75000000  0.97417807  0.59677906  1
  Hg  Hg0_0  1  0.25000000  0.40192448  0.46610520  1
  Hg  Hg0_1  1  0.25000000  0.40192448  0.96610520  1
  Hg  Hg0_2  1  0.25000000  0.90192448  0.46610520  1
  Hg  Hg0_3  1  0.25000000  0.90192448  0.96610520  1
  Hg  Hg0_4  1  0.75000000  0.40192448  0.46610520  1
  Hg  Hg0_5  1  0.75000000  0.40192448  0.96610520  1
  Hg  Hg0_6  1  0.75000000  0.90192448  0.46610520  1
  Hg  Hg0_7  1  0.75000000  0.90192448  0.96610520  1
  Hg  Hg1_0  1  0.25000000  0.27760929  0.07609885  1
  Hg  Hg1_1  1  0.25000000  0.27760929  0.57609885  1
  Hg  Hg1_2  1  0.25000000  0.77760929  0.07609885  1
  Hg  Hg1_3  1  0.25000000  0.77760929  0.57609885  1
  Hg  Hg1_4  1  0.75000000  0.27760929  0.07609885  1
  Hg  Hg1_5  1  0.75000000  0.27760929  0.57609885  1
  Hg  Hg1_6  1  0.75000000  0.77760929  0.07609885  1
  Hg  Hg1_7  1  0.75000000  0.77760929  0.57609885  1
  Hg  Hg2_0  1  0.25000000  0.22239071  0.42390115  1
  Hg  Hg2_1  1  0.25000000  0.22239071  0.92390115  1
  Hg  Hg2_2  1  0.25000000  0.72239071  0.42390115  1
  Hg  Hg2_3  1  0.25000000  0.72239071  0.92390115  1
  Hg  Hg2_4  1  0.75000000  0.22239071  0.42390115  1
  Hg  Hg2_5  1  0.75000000  0.22239071  0.92390115  1
  Hg  Hg2_6  1  0.75000000  0.72239071  0.42390115  1
  Hg  Hg2_7  1  0.75000000  0.72239071  0.92390115  1
  Hg  Hg3_0  1  0.25000000  0.02760929  0.17390115  1
  Hg  Hg3_1  1  0.25000000  0.02760929  0.67390115  1
  Hg  Hg3_2  1  0.25000000  0.52760929  0.17390115  1
  Hg  Hg3_3  1  0.25000000  0.52760929  0.67390115  1
  Hg  Hg3_4  1  0.75000000  0.02760929  0.17390115  1
  Hg  Hg3_5  1  0.75000000  0.02760929  0.67390115  1
  Hg  Hg3_6  1  0.75000000  0.52760929  0.17390115  1
  Hg  Hg3_7  1  0.75000000  0.52760929  0.67390115  1
  Hg  Hg4_0  1  0.25000000  0.15192448  0.28389480  1
  Hg  Hg4_1  1  0.25000000  0.15192448  0.78389480  1
  Hg  Hg4_2  1  0.25000000  0.65192448  0.28389480  1
  Hg  Hg4_3  1  0.25000000  0.65192448  0.78389480  1
  Hg  Hg4_4  1  0.75000000  0.15192448  0.28389480  1
  Hg  Hg4_5  1  0.75000000  0.15192448  0.78389480  1
  Hg  Hg4_6  1  0.75000000  0.65192448  0.28389480  1
  Hg  Hg4_7  1  0.75000000  0.65192448  0.78389480  1
  Hg  Hg5_0  1  0.25000000  0.47239071  0.32609885  1
  Hg  Hg5_1  1  0.25000000  0.47239071  0.82609885  1
  Hg  Hg5_2  1  0.25000000  0.97239071  0.32609885  1
  Hg  Hg5_3  1  0.25000000  0.97239071  0.82609885  1
  Hg  Hg5_4  1  0.75000000  0.47239071  0.32609885  1
  Hg  Hg5_5  1  0.75000000  0.47239071  0.82609885  1
  Hg  Hg5_6  1  0.75000000  0.97239071  0.32609885  1
  Hg  Hg5_7  1  0.75000000  0.97239071  0.82609885  1
  Hg  Hg6_0  1  0.25000000  0.34807552  0.21610520  1
  Hg  Hg6_1  1  0.25000000  0.34807552  0.71610520  1
  Hg  Hg6_2  1  0.25000000  0.84807552  0.21610520  1
  Hg  Hg6_3  1  0.25000000  0.84807552  0.71610520  1
  Hg  Hg6_4  1  0.75000000  0.34807552  0.21610520  1
  Hg  Hg6_5  1  0.75000000  0.34807552  0.71610520  1
  Hg  Hg6_6  1  0.75000000  0.84807552  0.21610520  1
  Hg  Hg6_7  1  0.75000000  0.84807552  0.71610520  1
  Hg  Hg7_0  1  0.25000000  0.09807552  0.03389480  1
  Hg  Hg7_1  1  0.25000000  0.09807552  0.53389480  1
  Hg  Hg7_2  1  0.25000000  0.59807552  0.03389480  1
  Hg  Hg7_3  1  0.25000000  0.59807552  0.53389480  1
  Hg  Hg7_4  1  0.75000000  0.09807552  0.03389480  1
  Hg  Hg7_5  1  0.75000000  0.09807552  0.53389480  1
  Hg  Hg7_6  1  0.75000000  0.59807552  0.03389480  1
  Hg  Hg7_7  1  0.75000000  0.59807552  0.53389480  1
loop_
_geom_bond_atom_site_label_1
_geom_bond_atom_site_label_2
_geom_bond_distance
_geom_bond_site_symmetry_2
Co0_0 Zr2_0 2.531456 1_555
Co0_0 Zr2_4 2.531456 1_555
Co0_0 Zr3_4 2.723620 1_555
Co0_0 Zr3_0 2.723620 1_555
Co0_0 Zr1_0 2.735063 1_555
Co0_0 Zr1_4 2.735063 1_555
Co0_0 Hg2_0 2.774582 1_555
Co0_0 Hg4_0 2.847155 1_555
Co0_0 Hg5_0 3.015033 1_555
Co0_1 Zr2_5 2.531456 1_555
Co0_1 Zr2_1 2.531456 1_555
Co0_1 Zr3_1 2.723620 1_555
Co0_1 Zr3_5 2.723620 1_555
Co0_1 Zr1_5 2.735063 1_555
Co0_1 Zr1_1 2.735063 1_555
Co0_1 Hg2_1 2.774582 1_555
Co0_1 Hg4_1 2.847155 1_555
Co0_1 Hg5_1 3.015033 1_555
Co0_2 Zr2_2 2.531456 1_555
Co0_2 Zr2_6 2.531456 1_555
Co0_2 Zr3_6 2.723620 1_555
Co0_2 Zr3_2 2.723620 1_555
Co0_2 Zr1_6 2.735063 1_555
Co0_2 Zr1_2 2.735063 1_555
Co0_2 Hg2_2 2.774582 1_555
Co0_2 Hg4_2 2.847155 1_555
Co0_2 Hg5_2 3.015033 1_555
Co0_3 Zr2_3 2.531456 1_555
Co0_3 Zr2_7 2.531456 1_555
Co0_3 Zr3_3 2.723620 1_555
Co0_3 Zr3_7 2.723620 1_555
Co0_3 Zr1_7 2.735063 1_555
Co0_3 Zr1_3 2.735063 1_555
Co0_3 Hg2_3 2.774582 1_555
Co0_3 Hg4_3 2.847155 1_555
Co0_3 Hg5_3 3.015033 1_555
Co0_4 Zr2_0 2.531456 1_655
Co0_4 Zr2_4 2.531456 1_555
Co0_4 Zr3_4 2.723620 1_555
Co0_4 Zr3_0 2.723620 1_655
Co0_4 Zr1_4 2.735063 1_555
Co0_4 Zr1_0 2.735063 1_655
Co0_4 Hg2_4 2.774582 1_555
Co0_4 Hg4_4 2.847155 1_555
Co0_4 Hg5_4 3.015033 1_555
Co0_5 Zr2_5 2.531456 1_555
Co0_5 Zr2_1 2.531456 1_655
Co0_5 Zr3_1 2.723620 1_655
Co0_5 Zr3_5 2.723620 1_555
Co0_5 Zr1_1 2.735063 1_655
Co0_5 Zr1_5 2.735063 1_555
Co0_5 Hg2_5 2.774582 1_555
Co0_5 Hg4_5 2.847155 1_555
Co0_5 Hg5_5 3.015033 1_555
Co0_6 Zr2_2 2.531456 1_655
Co0_6 Zr2_6 2.531456 1_555
Co0_6 Zr3_2 2.723620 1_655
Co0_6 Zr3_6 2.723620 1_555
Co0_6 Zr1_6 2.735063 1_555
Co0_6 Zr1_2 2.735063 1_655
Co0_6 Hg2_6 2.774582 1_555
Co0_6 Hg4_6 2.847155 1_555
Co0_6 Hg5_6 3.015033 1_555
Co0_7 Zr2_3 2.531456 1_655
Co0_7 Zr2_7 2.531456 1_555
Co0_7 Zr3_7 2.723620 1_555
Co0_7 Zr3_3 2.723620 1_655
Co0_7 Zr1_3 2.735063 1_655
Co0_7 Zr1_7 2.735063 1_555
Co0_7 Hg2_7 2.774582 1_555
Co0_7 Hg4_7 2.847155 1_555
Co0_7 Hg5_7 3.015033 1_555
Co1_0 Zr4_4 2.531456 1_555
Co1_0 Zr4_0 2.531456 1_555
Co1_0 Zr7_0 2.723620 1_555
Co1_0 Zr7_4 2.723620 1_555
Co1_0 Zr5_0 2.735063 1_555
Co1_0 Zr5_4 2.735063 1_555
Co1_0 Hg1_0 2.774582 1_555
Co1_0 Hg6_0 2.847155 1_555
Co1_0 Hg3_0 3.015033 1_555
Co1_1 Zr4_1 2.531456 1_555
Co1_1 Zr4_5 2.531456 1_555
Co1_1 Zr7_5 2.723620 1_555
Co1_1 Zr7_1 2.723620 1_555
Co1_1 Zr5_1 2.735063 1_555
Co1_1 Zr5_5 2.735063 1_555
Co1_1 Hg1_1 2.774582 1_555
Co1_1 Hg6_1 2.847155 1_555
Co1_1 Hg3_1 3.015033 1_555
Co1_2 Zr4_2 2.531456 1_555
Co1_2 Zr4_6 2.531456 1_555
Co1_2 Zr7_2 2.723620 1_555
Co1_2 Zr7_6 2.723620 1_555
Co1_2 Zr5_6 2.735063 1_555
Co1_2 Zr5_2 2.735063 1_555
Co1_2 Hg1_2 2.774582 1_555
Co1_2 Hg6_2 2.847155 1_555
Co1_2 Hg3_2 3.015033 1_555
Co1_3 Zr4_3 2.531456 1_555
Co1_3 Zr4_7 2.531456 1_555
Co1_3 Zr7_3 2.723620 1_555
Co1_3 Zr7_7 2.723620 1_555
Co1_3 Zr5_3 2.735063 1_555
Co1_3 Zr5_7 2.735063 1_555
Co1_3 Hg1_3 2.774582 1_555
Co1_3 Hg6_3 2.847155 1_555
Co1_3 Hg3_3 3.015033 1_555
Co1_4 Zr4_0 2.531456 1_655
Co1_4 Zr4_4 2.531456 1_555
Co1_4 Zr7_0 2.723620 1_655
Co1_4 Zr7_4 2.723620 1_555
Co1_4 Zr5_4 2.735063 1_555
Co1_4 Zr5_0 2.735063 1_655
Co1_4 Hg1_4 2.774582 1_555
Co1_4 Hg6_4 2.847155 1_555
Co1_4 Hg3_4 3.015033 1_555
Co1_5 Zr4_1 2.531456 1_655
Co1_5 Zr4_5 2.531456 1_555
Co1_5 Zr7_1 2.723620 1_655
Co1_5 Zr7_5 2.723620 1_555
Co1_5 Zr5_1 2.735063 1_655
Co1_5 Zr5_5 2.735063 1_555
Co1_5 Hg1_5 2.774582 1_555
Co1_5 Hg6_5 2.847155 1_555
Co1_5 Hg3_5 3.015033 1_555
Co1_6 Zr4_2 2.531456 1_655
Co1_6 Zr4_6 2.531456 1_555
Co1_6 Zr7_2 2.723620 1_655
Co1_6 Zr7_6 2.723620 1_555
Co1_6 Zr5_2 2.735063 1_655
Co1_6 Zr5_6 2.735063 1_555
Co1_6 Hg1_6 2.774582 1_555
Co1_6 Hg6_6 2.847155 1_555
Co1_6 Hg3_6 3.015033 1_555
Co1_7 Zr4_7 2.531456 1_555
Co1_7 Zr4_3 2.531456 1_655
Co1_7 Zr7_3 2.723620 1_655
Co1_7 Zr7_7 2.723620 1_555
Co1_7 Zr5_3 2.735063 1_655
Co1_7 Zr5_7 2.735063 1_555
Co1_7 Hg1_7 2.774582 1_555
Co1_7 Hg6_7 2.847155 1_555
Co1_7 Hg3_7 3.015033 1_555
Co2_0 Zr0_0 2.531456 1_555
Co2_0 Zr0_4 2.531456 1_555
Co2_0 Zr1_6 2.723620 1_545
Co2_0 Zr1_2 2.723620 1_545
Co2_0 Zr3_0 2.735063 1_555
Co2_0 Zr3_4 2.735063 1_555
Co2_0 Hg5_2 2.774582 1_545
Co2_0 Hg0_2 2.847155 1_545
Co2_0 Hg2_0 3.015033 1_555
Co2_1 Zr0_1 2.531456 1_555
Co2_1 Zr0_5 2.531456 1_555
Co2_1 Zr1_3 2.723620 1_545
Co2_1 Zr1_7 2.723620 1_545
Co2_1 Zr3_1 2.735063 1_555
Co2_1 Zr3_5 2.735063 1_555
Co2_1 Hg5_3 2.774582 1_545
Co2_1 Hg0_3 2.847155 1_545
Co2_1 Hg2_1 3.015033 1_555
Co2_2 Zr0_6 2.531456 1_555
Co2_2 Zr0_2 2.531456 1_555
Co2_2 Zr1_0 2.723620 1_555
Co2_2 Zr1_4 2.723620 1_555
Co2_2 Zr3_6 2.735063 1_555
Co2_2 Zr3_2 2.735063 1_555
Co2_2 Hg5_0 2.774582 1_555
Co2_2 Hg0_0 2.847155 1_555
Co2_2 Hg2_2 3.015033 1_555
Co2_3 Zr0_3 2.531456 1_555
Co2_3 Zr0_7 2.531456 1_555
Co2_3 Zr1_1 2.723620 1_555
Co2_3 Zr1_5 2.723620 1_555
Co2_3 Zr3_3 2.735063 1_555
Co2_3 Zr3_7 2.735063 1_555
Co2_3 Hg5_1 2.774582 1_555
Co2_3 Hg0_1 2.847155 1_555
Co2_3 Hg2_3 3.015033 1_555
Co2_4 Zr0_4 2.531456 1_555
Co2_4 Zr0_0 2.531456 1_655
Co2_4 Zr1_6 2.723620 1_545
Co2_4 Zr1_2 2.723620 1_645
Co2_4 Zr3_0 2.735063 1_655
Co2_4 Zr3_4 2.735063 1_555
Co2_4 Hg5_6 2.774582 1_545
Co2_4 Hg0_6 2.847155 1_545
Co2_4 Hg2_4 3.015033 1_555
Co2_5 Zr0_1 2.531456 1_655
Co2_5 Zr0_5 2.531456 1_555
Co2_5 Zr1_7 2.723620 1_545
Co2_5 Zr1_3 2.723620 1_645
Co2_5 Zr3_1 2.735063 1_655
Co2_5 Zr3_5 2.735063 1_555
Co2_5 Hg5_7 2.774582 1_545
Co2_5 Hg0_7 2.847155 1_545
Co2_5 Hg2_5 3.015033 1_555
Co2_6 Zr0_2 2.531456 1_655
Co2_6 Zr0_6 2.531456 1_555
Co2_6 Zr1_4 2.723620 1_555
Co2_6 Zr1_0 2.723620 1_655
Co2_6 Zr3_2 2.735063 1_655
Co2_6 Zr3_6 2.735063 1_555
Co2_6 Hg5_4 2.774582 1_555
Co2_6 Hg0_4 2.847155 1_555
Co2_6 Hg2_6 3.015033 1_555
Co2_7 Zr0_3 2.531456 1_655
Co2_7 Zr0_7 2.531456 1_555
Co2_7 Zr1_5 2.723620 1_555
Co2_7 Zr1_1 2.723620 1_655
Co2_7 Zr3_7 2.735063 1_555
Co2_7 Zr3_3 2.735063 1_655
Co2_7 Hg5_5 2.774582 1_555
Co2_7 Hg0_5 2.847155 1_555
Co2_7 Hg2_7 3.015033 1_555
Co3_0 Zr9_4 2.531456 1_555
Co3_0 Zr9_0 2.531456 1_555
Co3_0 Zr5_2 2.723620 1_555
Co3_0 Zr5_6 2.723620 1_555
Co3_0 Zr7_0 2.735063 1_555
Co3_0 Zr7_4 2.735063 1_555
Co3_0 Hg3_2 2.774582 1_555
Co3_0 Hg7_2 2.847155 1_555
Co3_0 Hg1_0 3.015033 1_555
Co3_1 Zr9_1 2.531456 1_555
Co3_1 Zr9_5 2.531456 1_555
Co3_1 Zr5_7 2.723620 1_555
Co3_1 Zr5_3 2.723620 1_555
Co3_1 Zr7_5 2.735063 1_555
Co3_1 Zr7_1 2.735063 1_555
Co3_1 Hg3_3 2.774582 1_555
Co3_1 Hg7_3 2.847155 1_555
Co3_1 Hg1_1 3.015033 1_555
Co3_2 Zr9_6 2.531456 1_555
Co3_2 Zr9_2 2.531456 1_555
Co3_2 Zr5_0 2.723620 1_565
Co3_2 Zr5_4 2.723620 1_565
Co3_2 Zr7_2 2.735063 1_555
Co3_2 Zr7_6 2.735063 1_555
Co3_2 Hg3_0 2.774582 1_565
Co3_2 Hg7_0 2.847155 1_565
Co3_2 Hg1_2 3.015033 1_555
Co3_3 Zr9_3 2.531456 1_555
Co3_3 Zr9_7 2.531456 1_555
Co3_3 Zr5_1 2.723620 1_565
Co3_3 Zr5_5 2.723620 1_565
Co3_3 Zr7_3 2.735063 1_555
Co3_3 Zr7_7 2.735063 1_555
Co3_3 Hg3_1 2.774582 1_565
Co3_3 Hg7_1 2.847155 1_565
Co3_3 Hg1_3 3.015033 1_555
Co3_4 Zr9_0 2.531456 1_655
Co3_4 Zr9_4 2.531456 1_555
Co3_4 Zr5_2 2.723620 1_655
Co3_4 Zr5_6 2.723620 1_555
Co3_4 Zr7_4 2.735063 1_555
Co3_4 Zr7_0 2.735063 1_655
Co3_4 Hg3_6 2.774582 1_555
Co3_4 Hg7_6 2.847155 1_555
Co3_4 Hg1_4 3.015033 1_555
Co3_5 Zr9_1 2.531456 1_655
Co3_5 Zr9_5 2.531456 1_555
Co3_5 Zr5_7 2.723620 1_555
Co3_5 Zr5_3 2.723620 1_655
Co3_5 Zr7_1 2.735063 1_655
Co3_5 Zr7_5 2.735063 1_555
Co3_5 Hg3_7 2.774582 1_555
Co3_5 Hg7_7 2.847155 1_555
Co3_5 Hg1_5 3.015033 1_555
Co3_6 Zr9_6 2.531456 1_555
Co3_6 Zr9_2 2.531456 1_655
Co3_6 Zr5_0 2.723620 1_665
Co3_6 Zr5_4 2.723620 1_565
Co3_6 Zr7_2 2.735063 1_655
Co3_6 Zr7_6 2.735063 1_555
Co3_6 Hg3_4 2.774582 1_565
Co3_6 Hg7_4 2.847155 1_565
Co3_6 Hg1_6 3.015033 1_555
Co3_7 Zr9_3 2.531456 1_655
Co3_7 Zr9_7 2.531456 1_555
Co3_7 Zr5_1 2.723620 1_665
Co3_7 Zr5_5 2.723620 1_565
Co3_7 Zr7_7 2.735063 1_555
Co3_7 Zr7_3 2.735063 1_655
Co3_7 Hg3_5 2.774582 1_565
Co3_7 Hg7_5 2.847155 1_565
Co3_7 Hg1_7 3.015033 1_555
Hg0_0 Zr0_6 2.981098 1_555
Hg0_0 Zr0_2 2.981098 1_555
Hg0_0 Zr8_1 3.034363 1_555
Hg0_0 Zr8_5 3.034363 1_555
Hg0_0 Hg2_0 3.045470 1_555
Hg0_0 Zr1_0 3.121792 1_555
Hg0_0 Zr1_4 3.121792 1_555
Hg0_0 Zr9_5 3.182207 1_555
Hg0_0 Zr9_1 3.182207 1_555
Hg0_1 Zr0_7 2.981098 1_555
Hg0_1 Zr0_3 2.981098 1_555
Hg0_1 Zr8_0 3.034363 1_556
Hg0_1 Zr8_4 3.034363 1_556
Hg0_1 Hg2_1 3.045470 1_555
Hg0_1 Zr1_5 3.121792 1_555
Hg0_1 Zr1_1 3.121792 1_555
Hg0_1 Zr9_4 3.182207 1_556
Hg0_1 Zr9_0 3.182207 1_556
Hg0_2 Zr0_0 2.981098 1_565
Hg0_2 Zr0_4 2.981098 1_565
Hg0_2 Zr8_3 3.034363 1_555
Hg0_2 Zr8_7 3.034363 1_555
Hg0_2 Hg2_2 3.045470 1_555
Hg0_2 Zr1_6 3.121792 1_555
Hg0_2 Zr1_2 3.121792 1_555
Hg0_2 Zr9_3 3.182207 1_555
Hg0_2 Zr9_7 3.182207 1_555
Hg0_3 Zr0_5 2.981098 1_565
Hg0_3 Zr0_1 2.981098 1_565
Hg0_3 Zr8_2 3.034363 1_556
Hg0_3 Zr8_6 3.034363 1_556
Hg0_3 Hg2_3 3.045470 1_555
Hg0_3 Zr1_3 3.121792 1_555
Hg0_3 Zr1_7 3.121792 1_555
Hg0_3 Zr9_2 3.182207 1_556
Hg0_3 Zr9_6 3.182207 1_556
Hg0_4 Zr0_2 2.981098 1_655
Hg0_4 Zr0_6 2.981098 1_555
Hg0_4 Zr8_1 3.034363 1_655
Hg0_4 Zr8_5 3.034363 1_555
Hg0_4 Hg2_4 3.045470 1_555
Hg0_4 Zr1_4 3.121792 1_555
Hg0_4 Zr1_0 3.121792 1_655
Hg0_4 Zr9_5 3.182207 1_555
Hg0_4 Zr9_1 3.182207 1_655
Hg0_5 Zr0_7 2.981098 1_555
Hg0_5 Zr0_3 2.981098 1_655
Hg0_5 Zr8_4 3.034363 1_556
Hg0_5 Zr8_0 3.034363 1_656
Hg0_5 Hg2_5 3.045470 1_555
Hg0_5 Zr1_5 3.121792 1_555
Hg0_5 Zr1_1 3.121792 1_655
Hg0_5 Zr9_0 3.182207 1_656
Hg0_5 Zr9_4 3.182207 1_556
Hg0_6 Zr0_0 2.981098 1_665
Hg0_6 Zr0_4 2.981098 1_565
Hg0_6 Zr8_3 3.034363 1_655
Hg0_6 Zr8_7 3.034363 1_555
Hg0_6 Hg2_6 3.045470 1_555
Hg0_6 Zr1_2 3.121792 1_655
Hg0_6 Zr1_6 3.121792 1_555
Hg0_6 Zr9_7 3.182207 1_555
Hg0_6 Zr9_3 3.182207 1_655
Hg0_7 Zr0_5 2.981098 1_565
Hg0_7 Zr0_1 2.981098 1_665
Hg0_7 Zr8_6 3.034363 1_556
Hg0_7 Zr8_2 3.034363 1_656
Hg0_7 Hg2_7 3.045470 1_555
Hg0_7 Zr1_3 3.121792 1_655
Hg0_7 Zr1_7 3.121792 1_555
Hg0_7 Zr9_2 3.182207 1_656
Hg0_7 Zr9_6 3.182207 1_556
Hg1_0 Zr7_4 3.040569 1_555
Hg1_0 Zr7_0 3.040569 1_555
Hg1_0 Hg7_0 3.045470 1_555
Hg1_0 Zr9_0 3.051130 1_555
Hg1_0 Zr9_4 3.051130 1_555
Hg1_0 Zr8_0 3.124650 1_555
Hg1_0 Zr8_4 3.124650 1_555
Hg1_0 Zr5_0 3.146724 1_555
Hg1_0 Zr5_4 3.146724 1_555
Hg1_0 Hg1_4 3.296151 1_555
Hg1_0 Hg1_4 3.296151 1_455
Hg1_1 Zr7_5 3.040569 1_555
Hg1_1 Zr7_1 3.040569 1_555
Hg1_1 Hg7_1 3.045470 1_555
Hg1_1 Zr9_1 3.051130 1_555
Hg1_1 Zr9_5 3.051130 1_555
Hg1_1 Zr8_1 3.124650 1_555
Hg1_1 Zr8_5 3.124650 1_555
Hg1_1 Zr5_1 3.146724 1_555
Hg1_1 Zr5_5 3.146724 1_555
Hg1_1 Hg1_5 3.296151 1_555
Hg1_1 Hg1_5 3.296151 1_455
Hg1_2 Zr7_2 3.040569 1_555
Hg1_2 Zr7_6 3.040569 1_555
Hg1_2 Hg7_2 3.045470 1_555
Hg1_2 Zr9_6 3.051130 1_555
Hg1_2 Zr9_2 3.051130 1_555
Hg1_2 Zr8_2 3.124650 1_555
Hg1_2 Zr8_6 3.124650 1_555
Hg1_2 Zr5_2 3.146724 1_555
Hg1_2 Zr5_6 3.146724 1_555
Hg1_2 Hg1_6 3.296151 1_455
Hg1_2 Hg1_6 3.296151 1_555
Hg1_3 Zr7_3 3.040569 1_555
Hg1_3 Zr7_7 3.040569 1_555
Hg1_3 Hg7_3 3.045470 1_555
Hg1_3 Zr9_3 3.051130 1_555
Hg1_3 Zr9_7 3.051130 1_555
Hg1_3 Zr8_3 3.124650 1_555
Hg1_3 Zr8_7 3.124650 1_555
Hg1_3 Zr5_7 3.146724 1_555
Hg1_3 Zr5_3 3.146724 1_555
Hg1_3 Hg1_7 3.296151 1_555
Hg1_3 Hg1_7 3.296151 1_455
Hg1_4 Zr7_4 3.040569 1_555
Hg1_4 Zr7_0 3.040569 1_655
Hg1_4 Hg7_4 3.045470 1_555
Hg1_4 Zr9_0 3.051130 1_655
Hg1_4 Zr9_4 3.051130 1_555
Hg1_4 Zr8_4 3.124650 1_555
Hg1_4 Zr8_0 3.124650 1_655
Hg1_4 Zr5_0 3.146724 1_655
Hg1_4 Zr5_4 3.146724 1_555
Hg1_5 Zr7_1 3.040569 1_655
Hg1_5 Zr7_5 3.040569 1_555
Hg1_5 Hg7_5 3.045470 1_555
Hg1_5 Zr9_5 3.051130 1_555
Hg1_5 Zr9_1 3.051130 1_655
Hg1_5 Zr8_1 3.124650 1_655
Hg1_5 Zr8_5 3.124650 1_555
Hg1_5 Zr5_1 3.146724 1_655
Hg1_5 Zr5_5 3.146724 1_555
Hg1_6 Zr7_6 3.040569 1_555
Hg1_6 Zr7_2 3.040569 1_655
Hg1_6 Hg7_6 3.045470 1_555
Hg1_6 Zr9_6 3.051130 1_555
Hg1_6 Zr9_2 3.051130 1_655
Hg1_6 Zr8_6 3.124650 1_555
Hg1_6 Zr8_2 3.124650 1_655
Hg1_6 Zr5_6 3.146724 1_555
Hg1_6 Zr5_2 3.146724 1_655
Hg1_7 Zr7_3 3.040569 1_655
Hg1_7 Zr7_7 3.040569 1_555
Hg1_7 Hg7_7 3.045470 1_555
Hg1_7 Zr9_7 3.051130 1_555
Hg1_7 Zr9_3 3.051130 1_655
Hg1_7 Zr8_3 3.124650 1_655
Hg1_7 Zr8_7 3.124650 1_555
Hg1_7 Zr5_3 3.146724 1_655
Hg1_7 Zr5_7 3.146724 1_555
Hg2_0 Zr3_4 3.040569 1_555
Hg2_0 Zr3_0 3.040569 1_555
Hg2_0 Zr0_0 3.051130 1_555
Hg2_0 Zr0_4 3.051130 1_555
Hg2_0 Zr8_1 3.124650 1_555
Hg2_0 Zr8_5 3.124650 1_555
Hg2_0 Zr1_0 3.146724 1_555
Hg2_0 Zr1_4 3.146724 1_555
Hg2_0 Hg2_4 3.296151 1_455
Hg2_0 Hg2_4 3.296151 1_555
Hg2_1 Zr3_1 3.040569 1_555
Hg2_1 Zr3_5 3.040569 1_555
Hg2_1 Zr0_1 3.051130 1_555
Hg2_1 Zr0_5 3.051130 1_555
Hg2_1 Zr8_0 3.124650 1_556
Hg2_1 Zr8_4 3.124650 1_556
Hg2_1 Zr1_1 3.146724 1_555
Hg2_1 Zr1_5 3.146724 1_555
Hg2_1 Hg2_5 3.296151 1_555
Hg2_1 Hg2_5 3.296151 1_455
Hg2_2 Zr3_6 3.040569 1_555
Hg2_2 Zr3_2 3.040569 1_555
Hg2_2 Zr0_2 3.051130 1_555
Hg2_2 Zr0_6 3.051130 1_555
Hg2_2 Zr8_3 3.124650 1_555
Hg2_2 Zr8_7 3.124650 1_555
Hg2_2 Zr1_6 3.146724 1_555
Hg2_2 Zr1_2 3.146724 1_555
Hg2_2 Hg2_6 3.296151 1_455
Hg2_2 Hg2_6 3.296151 1_555
Hg2_3 Zr3_3 3.040569 1_555
Hg2_3 Zr3_7 3.040569 1_555
Hg2_3 Zr0_3 3.051130 1_555
Hg2_3 Zr0_7 3.051130 1_555
Hg2_3 Zr8_2 3.124650 1_556
Hg2_3 Zr8_6 3.124650 1_556
Hg2_3 Zr1_7 3.146724 1_555
Hg2_3 Zr1_3 3.146724 1_555
Hg2_3 Hg2_7 3.296151 1_455
Hg2_3 Hg2_7 3.296151 1_555
Hg2_4 Zr3_0 3.040569 1_655
Hg2_4 Zr3_4 3.040569 1_555
Hg2_4 Zr0_4 3.051130 1_555
Hg2_4 Zr0_0 3.051130 1_655
Hg2_4 Zr8_1 3.124650 1_655
Hg2_4 Zr8_5 3.124650 1_555
Hg2_4 Zr1_0 3.146724 1_655
Hg2_4 Zr1_4 3.146724 1_555
Hg2_5 Zr3_5 3.040569 1_555
Hg2_5 Zr3_1 3.040569 1_655
Hg2_5 Zr0_5 3.051130 1_555
Hg2_5 Zr0_1 3.051130 1_655
Hg2_5 Zr8_4 3.124650 1_556
Hg2_5 Zr8_0 3.124650 1_656
Hg2_5 Zr1_1 3.146724 1_655
Hg2_5 Zr1_5 3.146724 1_555
Hg2_6 Zr3_2 3.040569 1_655
Hg2_6 Zr3_6 3.040569 1_555
Hg2_6 Zr0_2 3.051130 1_655
Hg2_6 Zr0_6 3.051130 1_555
Hg2_6 Zr8_3 3.124650 1_655
Hg2_6 Zr8_7 3.124650 1_555
Hg2_6 Zr1_6 3.146724 1_555
Hg2_6 Zr1_2 3.146724 1_655
Hg2_7 Zr3_3 3.040569 1_655
Hg2_7 Zr3_7 3.040569 1_555
Hg2_7 Zr0_7 3.051130 1_555
Hg2_7 Zr0_3 3.051130 1_655
Hg2_7 Zr8_2 3.124650 1_656
Hg2_7 Zr8_6 3.124650 1_556
Hg2_7 Zr1_7 3.146724 1_555
Hg2_7 Zr1_3 3.146724 1_655
Hg3_0 Zr5_0 3.040569 1_555
Hg3_0 Zr5_4 3.040569 1_555
Hg3_0 Hg6_2 3.045470 1_545
Hg3_0 Zr4_0 3.051130 1_555
Hg3_0 Zr4_4 3.051130 1_555
Hg3_0 Zr6_4 3.124650 1_555
Hg3_0 Zr6_0 3.124650 1_555
Hg3_0 Zr7_6 3.146724 1_545
Hg3_0 Zr7_2 3.146724 1_545
Hg3_0 Hg3_4 3.296151 1_555
Hg3_0 Hg3_4 3.296151 1_455
Hg3_1 Zr5_1 3.040569 1_555
Hg3_1 Zr5_5 3.040569 1_555
Hg3_1 Hg6_3 3.045470 1_545
Hg3_1 Zr4_1 3.051130 1_555
Hg3_1 Zr4_5 3.051130 1_555
Hg3_1 Zr6_1 3.124650 1_555
Hg3_1 Zr6_5 3.124650 1_555
Hg3_1 Zr7_7 3.146724 1_545
Hg3_1 Zr7_3 3.146724 1_545
Hg3_1 Hg3_5 3.296151 1_455
Hg3_1 Hg3_5 3.296151 1_555
Hg3_2 Zr5_2 3.040569 1_555
Hg3_2 Zr5_6 3.040569 1_555
Hg3_2 Hg6_0 3.045470 1_555
Hg3_2 Zr4_2 3.051130 1_555
Hg3_2 Zr4_6 3.051130 1_555
Hg3_2 Zr6_6 3.124650 1_555
Hg3_2 Zr6_2 3.124650 1_555
Hg3_2 Zr7_0 3.146724 1_555
Hg3_2 Zr7_4 3.146724 1_555
Hg3_2 Hg3_6 3.296151 1_555
Hg3_2 Hg3_6 3.296151 1_455
Hg3_3 Zr5_3 3.040569 1_555
Hg3_3 Zr5_7 3.040569 1_555
Hg3_3 Hg6_1 3.045470 1_555
Hg3_3 Zr4_3 3.051130 1_555
Hg3_3 Zr4_7 3.051130 1_555
Hg3_3 Zr6_3 3.124650 1_555
Hg3_3 Zr6_7 3.124650 1_555
Hg3_3 Zr7_5 3.146724 1_555
Hg3_3 Zr7_1 3.146724 1_555
Hg3_3 Hg3_7 3.296151 1_555
Hg3_3 Hg3_7 3.296151 1_455
Hg3_4 Zr5_4 3.040569 1_555
Hg3_4 Zr5_0 3.040569 1_655
Hg3_4 Hg6_6 3.045470 1_545
Hg3_4 Zr4_0 3.051130 1_655
Hg3_4 Zr4_4 3.051130 1_555
Hg3_4 Zr6_4 3.124650 1_555
Hg3_4 Zr6_0 3.124650 1_655
Hg3_4 Zr7_6 3.146724 1_545
Hg3_4 Zr7_2 3.146724 1_645
Hg3_5 Zr5_1 3.040569 1_655
Hg3_5 Zr5_5 3.040569 1_555
Hg3_5 Hg6_7 3.045470 1_545
Hg3_5 Zr4_1 3.051130 1_655
Hg3_5 Zr4_5 3.051130 1_555
Hg3_5 Zr6_1 3.124650 1_655
Hg3_5 Zr6_5 3.124650 1_555
Hg3_5 Zr7_7 3.146724 1_545
Hg3_5 Zr7_3 3.146724 1_645
Hg3_6 Zr5_6 3.040569 1_555
Hg3_6 Zr5_2 3.040569 1_655
Hg3_6 Hg6_4 3.045470 1_555
Hg3_6 Zr4_6 3.051130 1_555
Hg3_6 Zr4_2 3.051130 1_655
Hg3_6 Zr6_6 3.124650 1_555
Hg3_6 Zr6_2 3.124650 1_655
Hg3_6 Zr7_4 3.146724 1_555
Hg3_6 Zr7_0 3.146724 1_655
Hg3_7 Zr5_3 3.040569 1_655
Hg3_7 Zr5_7 3.040569 1_555
Hg3_7 Hg6_5 3.045470 1_555
Hg3_7 Zr4_7 3.051130 1_555
Hg3_7 Zr4_3 3.051130 1_655
Hg3_7 Zr6_7 3.124650 1_555
Hg3_7 Zr6_3 3.124650 1_655
Hg3_7 Zr7_1 3.146724 1_655
Hg3_7 Zr7_5 3.146724 1_555
Hg4_0 Zr2_0 2.981098 1_555
Hg4_0 Zr2_4 2.981098 1_555
Hg4_0 Zr6_4 3.034363 1_555
Hg4_0 Zr6_0 3.034363 1_555
Hg4_0 Hg5_2 3.045470 1_545
Hg4_0 Zr3_0 3.121792 1_555
Hg4_0 Zr3_4 3.121792 1_555
Hg4_0 Zr4_4 3.182207 1_555
Hg4_0 Zr4_0 3.182207 1_555
Hg4_1 Zr2_1 2.981098 1_555
Hg4_1 Zr2_5 2.981098 1_555
Hg4_1 Zr6_1 3.034363 1_555
Hg4_1 Zr6_5 3.034363 1_555
Hg4_1 Hg5_3 3.045470 1_545
Hg4_1 Zr3_1 3.121792 1_555
Hg4_1 Zr3_5 3.121792 1_555
Hg4_1 Zr4_1 3.182207 1_555
Hg4_1 Zr4_5 3.182207 1_555
Hg4_2 Zr2_2 2.981098 1_555
Hg4_2 Zr2_6 2.981098 1_555
Hg4_2 Zr6_6 3.034363 1_555
Hg4_2 Zr6_2 3.034363 1_555
Hg4_2 Hg5_0 3.045470 1_555
Hg4_2 Zr3_6 3.121792 1_555
Hg4_2 Zr3_2 3.121792 1_555
Hg4_2 Zr4_2 3.182207 1_555
Hg4_2 Zr4_6 3.182207 1_555
Hg4_3 Zr2_3 2.981098 1_555
Hg4_3 Zr2_7 2.981098 1_555
Hg4_3 Zr6_3 3.034363 1_555
Hg4_3 Zr6_7 3.034363 1_555
Hg4_3 Hg5_1 3.045470 1_555
Hg4_3 Zr3_3 3.121792 1_555
Hg4_3 Zr3_7 3.121792 1_555
Hg4_3 Zr4_3 3.182207 1_555
Hg4_3 Zr4_7 3.182207 1_555
Hg4_4 Zr2_0 2.981098 1_655
Hg4_4 Zr2_4 2.981098 1_555
Hg4_4 Zr6_0 3.034363 1_655
Hg4_4 Zr6_4 3.034363 1_555
Hg4_4 Hg5_6 3.045470 1_545
Hg4_4 Zr3_0 3.121792 1_655
Hg4_4 Zr3_4 3.121792 1_555
Hg4_4 Zr4_0 3.182207 1_655
Hg4_4 Zr4_4 3.182207 1_555
Hg4_5 Zr2_1 2.981098 1_655
Hg4_5 Zr2_5 2.981098 1_555
Hg4_5 Zr6_1 3.034363 1_655
Hg4_5 Zr6_5 3.034363 1_555
Hg4_5 Hg5_7 3.045470 1_545
Hg4_5 Zr3_5 3.121792 1_555
Hg4_5 Zr3_1 3.121792 1_655
Hg4_5 Zr4_5 3.182207 1_555
Hg4_5 Zr4_1 3.182207 1_655
Hg4_6 Zr2_6 2.981098 1_555
Hg4_6 Zr2_2 2.981098 1_655
Hg4_6 Zr6_6 3.034363 1_555
Hg4_6 Zr6_2 3.034363 1_655
Hg4_6 Hg5_4 3.045470 1_555
Hg4_6 Zr3_2 3.121792 1_655
Hg4_6 Zr3_6 3.121792 1_555
Hg4_6 Zr4_6 3.182207 1_555
Hg4_6 Zr4_2 3.182207 1_655
Hg4_7 Zr2_3 2.981098 1_655
Hg4_7 Zr2_7 2.981098 1_555
Hg4_7 Zr6_3 3.034363 1_655
Hg4_7 Zr6_7 3.034363 1_555
Hg4_7 Hg5_5 3.045470 1_555
Hg4_7 Zr3_3 3.121792 1_655
Hg4_7 Zr3_7 3.121792 1_555
Hg4_7 Zr4_7 3.182207 1_555
Hg4_7 Zr4_3 3.182207 1_655
Hg5_0 Zr1_0 3.040569 1_555
Hg5_0 Zr1_4 3.040569 1_555
Hg5_0 Zr2_0 3.051130 1_555
Hg5_0 Zr2_4 3.051130 1_555
Hg5_0 Zr6_2 3.124650 1_555
Hg5_0 Zr6_6 3.124650 1_555
Hg5_0 Zr3_6 3.146724 1_555
Hg5_0 Zr3_2 3.146724 1_555
Hg5_0 Hg5_4 3.296151 1_555
Hg5_0 Hg5_4 3.296151 1_455
Hg5_1 Zr1_5 3.040569 1_555
Hg5_1 Zr1_1 3.040569 1_555
Hg5_1 Zr2_5 3.051130 1_555
Hg5_1 Zr2_1 3.051130 1_555
Hg5_1 Zr6_3 3.124650 1_555
Hg5_1 Zr6_7 3.124650 1_555
Hg5_1 Zr3_3 3.146724 1_555
Hg5_1 Zr3_7 3.146724 1_555
Hg5_1 Hg5_5 3.296151 1_455
Hg5_1 Hg5_5 3.296151 1_555
Hg5_2 Zr1_6 3.040569 1_555
Hg5_2 Zr1_2 3.040569 1_555
Hg5_2 Zr2_2 3.051130 1_555
Hg5_2 Zr2_6 3.051130 1_555
Hg5_2 Zr6_4 3.124650 1_565
Hg5_2 Zr6_0 3.124650 1_565
Hg5_2 Zr3_0 3.146724 1_565
Hg5_2 Zr3_4 3.146724 1_565
Hg5_2 Hg5_6 3.296151 1_455
Hg5_2 Hg5_6 3.296151 1_555
Hg5_3 Zr1_3 3.040569 1_555
Hg5_3 Zr1_7 3.040569 1_555
Hg5_3 Zr2_3 3.051130 1_555
Hg5_3 Zr2_7 3.051130 1_555
Hg5_3 Zr6_5 3.124650 1_565
Hg5_3 Zr6_1 3.124650 1_565
Hg5_3 Zr3_5 3.146724 1_565
Hg5_3 Zr3_1 3.146724 1_565
Hg5_3 Hg5_7 3.296151 1_555
Hg5_3 Hg5_7 3.296151 1_455
Hg5_4 Zr1_4 3.040569 1_555
Hg5_4 Zr1_0 3.040569 1_655
Hg5_4 Zr2_0 3.051130 1_655
Hg5_4 Zr2_4 3.051130 1_555
Hg5_4 Zr6_2 3.124650 1_655
Hg5_4 Zr6_6 3.124650 1_555
Hg5_4 Zr3_2 3.146724 1_655
Hg5_4 Zr3_6 3.146724 1_555
Hg5_5 Zr1_5 3.040569 1_555
Hg5_5 Zr1_1 3.040569 1_655
Hg5_5 Zr2_1 3.051130 1_655
Hg5_5 Zr2_5 3.051130 1_555
Hg5_5 Zr6_7 3.124650 1_555
Hg5_5 Zr6_3 3.124650 1_655
Hg5_5 Zr3_7 3.146724 1_555
Hg5_5 Zr3_3 3.146724 1_655
Hg5_6 Zr1_6 3.040569 1_555
Hg5_6 Zr1_2 3.040569 1_655
Hg5_6 Zr2_2 3.051130 1_655
Hg5_6 Zr2_6 3.051130 1_555
Hg5_6 Zr6_0 3.124650 1_665
Hg5_6 Zr6_4 3.124650 1_565
Hg5_6 Zr3_4 3.146724 1_565
Hg5_6 Zr3_0 3.146724 1_665
Hg5_7 Zr1_3 3.040569 1_655
Hg5_7 Zr1_7 3.040569 1_555
Hg5_7 Zr2_3 3.051130 1_655
Hg5_7 Zr2_7 3.051130 1_555
Hg5_7 Zr6_1 3.124650 1_665
Hg5_7 Zr6_5 3.124650 1_565
Hg5_7 Zr3_5 3.146724 1_565
Hg5_7 Zr3_1 3.146724 1_665
Hg6_0 Zr4_4 2.981098 1_555
Hg6_0 Zr4_0 2.981098 1_555
Hg6_0 Zr6_2 3.034363 1_555
Hg6_0 Zr6_6 3.034363 1_555
Hg6_0 Zr7_0 3.121792 1_555
Hg6_0 Zr7_4 3.121792 1_555
Hg6_0 Zr2_0 3.182207 1_555
Hg6_0 Zr2_4 3.182207 1_555
Hg6_1 Zr4_1 2.981098 1_555
Hg6_1 Zr4_5 2.981098 1_555
Hg6_1 Zr6_3 3.034363 1_555
Hg6_1 Zr6_7 3.034363 1_555
Hg6_1 Zr7_1 3.121792 1_555
Hg6_1 Zr7_5 3.121792 1_555
Hg6_1 Zr2_1 3.182207 1_555
Hg6_1 Zr2_5 3.182207 1_555
Hg6_2 Zr4_2 2.981098 1_555
Hg6_2 Zr4_6 2.981098 1_555
Hg6_2 Zr6_0 3.034363 1_565
Hg6_2 Zr6_4 3.034363 1_565
Hg6_2 Zr7_2 3.121792 1_555
Hg6_2 Zr7_6 3.121792 1_555
Hg6_2 Zr2_2 3.182207 1_555
Hg6_2 Zr2_6 3.182207 1_555
Hg6_3 Zr4_7 2.981098 1_555
Hg6_3 Zr4_3 2.981098 1_555
Hg6_3 Zr6_5 3.034363 1_565
Hg6_3 Zr6_1 3.034363 1_565
Hg6_3 Zr7_7 3.121792 1_555
Hg6_3 Zr7_3 3.121792 1_555
Hg6_3 Zr2_3 3.182207 1_555
Hg6_3 Zr2_7 3.182207 1_555
Hg6_4 Zr4_0 2.981098 1_655
Hg6_4 Zr4_4 2.981098 1_555
Hg6_4 Zr6_2 3.034363 1_655
Hg6_4 Zr6_6 3.034363 1_555
Hg6_4 Zr7_4 3.121792 1_555
Hg6_4 Zr7_0 3.121792 1_655
Hg6_4 Zr2_0 3.182207 1_655
Hg6_4 Zr2_4 3.182207 1_555
Hg6_5 Zr4_5 2.981098 1_555
Hg6_5 Zr4_1 2.981098 1_655
Hg6_5 Zr6_7 3.034363 1_555
Hg6_5 Zr6_3 3.034363 1_655
Hg6_5 Zr7_1 3.121792 1_655
Hg6_5 Zr7_5 3.121792 1_555
Hg6_5 Zr2_1 3.182207 1_655
Hg6_5 Zr2_5 3.182207 1_555
Hg6_6 Zr4_6 2.981098 1_555
Hg6_6 Zr4_2 2.981098 1_655
Hg6_6 Zr6_4 3.034363 1_565
Hg6_6 Zr6_0 3.034363 1_665
Hg6_6 Zr7_6 3.121792 1_555
Hg6_6 Zr7_2 3.121792 1_655
Hg6_6 Zr2_6 3.182207 1_555
Hg6_6 Zr2_2 3.182207 1_655
Hg6_7 Zr4_7 2.981098 1_555
Hg6_7 Zr4_3 2.981098 1_655
Hg6_7 Zr6_1 3.034363 1_665
Hg6_7 Zr6_5 3.034363 1_565
Hg6_7 Zr7_3 3.121792 1_655
Hg6_7 Zr7_7 3.121792 1_555
Hg6_7 Zr2_3 3.182207 1_655
Hg6_7 Zr2_7 3.182207 1_555
Hg7_0 Zr9_2 2.981098 1_545
Hg7_0 Zr9_6 2.981098 1_545
Hg7_0 Zr8_0 3.034363 1_555
Hg7_0 Zr8_4 3.034363 1_555
Hg7_0 Zr5_0 3.121792 1_555
Hg7_0 Zr5_4 3.121792 1_555
Hg7_0 Zr0_1 3.182207 1_554
Hg7_0 Zr0_5 3.182207 1_554
Hg7_1 Zr9_7 2.981098 1_545
Hg7_1 Zr9_3 2.981098 1_545
Hg7_1 Zr8_1 3.034363 1_555
Hg7_1 Zr8_5 3.034363 1_555
Hg7_1 Zr5_1 3.121792 1_555
Hg7_1 Zr5_5 3.121792 1_555
Hg7_1 Zr0_0 3.182207 1_555
Hg7_1 Zr0_4 3.182207 1_555
Hg7_2 Zr9_0 2.981098 1_555
Hg7_2 Zr9_4 2.981098 1_555
Hg7_2 Zr8_6 3.034363 1_555
Hg7_2 Zr8_2 3.034363 1_555
Hg7_2 Zr5_2 3.121792 1_555
Hg7_2 Zr5_6 3.121792 1_555
Hg7_2 Zr0_7 3.182207 1_554
Hg7_2 Zr0_3 3.182207 1_554
Hg7_3 Zr9_5 2.981098 1_555
Hg7_3 Zr9_1 2.981098 1_555
Hg7_3 Zr8_3 3.034363 1_555
Hg7_3 Zr8_7 3.034363 1_555
Hg7_3 Zr5_3 3.121792 1_555
Hg7_3 Zr5_7 3.121792 1_555
Hg7_3 Zr0_2 3.182207 1_555
Hg7_3 Zr0_6 3.182207 1_555
Hg7_4 Zr9_2 2.981098 1_645
Hg7_4 Zr9_6 2.981098 1_545
Hg7_4 Zr8_4 3.034363 1_555
Hg7_4 Zr8_0 3.034363 1_655
Hg7_4 Zr5_4 3.121792 1_555
Hg7_4 Zr5_0 3.121792 1_655
Hg7_4 Zr0_1 3.182207 1_654
Hg7_4 Zr0_5 3.182207 1_554
Hg7_5 Zr9_7 2.981098 1_545
Hg7_5 Zr9_3 2.981098 1_645
Hg7_5 Zr8_1 3.034363 1_655
Hg7_5 Zr8_5 3.034363 1_555
Hg7_5 Zr5_1 3.121792 1_655
Hg7_5 Zr5_5 3.121792 1_555
Hg7_5 Zr0_4 3.182207 1_555
Hg7_5 Zr0_0 3.182207 1_655
Hg7_6 Zr9_0 2.981098 1_655
Hg7_6 Zr9_4 2.981098 1_555
Hg7_6 Zr8_6 3.034363 1_555
Hg7_6 Zr8_2 3.034363 1_655
Hg7_6 Zr5_6 3.121792 1_555
Hg7_6 Zr5_2 3.121792 1_655
Hg7_6 Zr0_7 3.182207 1_554
Hg7_6 Zr0_3 3.182207 1_654
Hg7_7 Zr9_5 2.981098 1_555
Hg7_7 Zr9_1 2.981098 1_655
Hg7_7 Zr8_7 3.034363 1_555
Hg7_7 Zr8_3 3.034363 1_655
Hg7_7 Zr5_3 3.121792 1_655
Hg7_7 Zr5_7 3.121792 1_555
Hg7_7 Zr0_2 3.182207 1_655
Hg7_7 Zr0_6 3.182207 1_555
