# generated using pymatgen
data_Zr6Zn22CdSn
_symmetry_space_group_name_H-M   'P 1'
_cell_length_a   8.80718063
_cell_length_b   8.80716345
_cell_length_c   8.80716310
_cell_angle_alpha   60.00009982
_cell_angle_beta   60.00011327
_cell_angle_gamma   60.00012077
_symmetry_Int_Tables_number   1
_chemical_formula_structural   Zr6Zn22CdSn
_chemical_formula_sum   'Zr6 Zn22 Cd1 Sn1'
_cell_volume   483.05334895
_cell_formula_units_Z   1
loop_
 _symmetry_equiv_pos_site_id
 _symmetry_equiv_pos_as_xyz
  1  'x, y, z'
loop_
 _atom_site_type_symbol
 _atom_site_label
 _atom_site_symmetry_multiplicity
 _atom_site_fract_x
 _atom_site_fract_y
 _atom_site_fract_z
 _atom_site_occupancy
  Zr  Zr0  1  0.73366072  0.26633928  0.26633928  1
  Zr  Zr1  1  0.26633928  0.73366072  0.73366072  1
  Zr  Zr2  1  0.26634028  0.73366072  0.26633728  1
  Zr  Zr3  1  0.73365972  0.26633928  0.73366272  1
  Zr  Zr4  1  0.26634028  0.26633728  0.73366072  1
  Zr  Zr5  1  0.73365972  0.73366272  0.26633928  1
  Zn  Zn0  1  0.13462436  0.13462436  0.13462436  1
  Zn  Zn1  1  0.86537564  0.86537564  0.86537564  1
  Zn  Zn2  1  0.13462336  0.13462336  0.59613093  1
  Zn  Zn3  1  0.13462336  0.59613093  0.13462336  1
  Zn  Zn4  1  0.86537664  0.86537664  0.40386907  1
  Zn  Zn5  1  0.86537664  0.40386907  0.86537664  1
  Zn  Zn6  1  0.59612993  0.13462336  0.13462336  1
  Zn  Zn7  1  0.40387007  0.86537664  0.86537664  1
  Zn  Zn8  1  0.50000000  0.00000000  0.00000000  1
  Zn  Zn9  1  0.00000000  0.50000000  0.50000000  1
  Zn  Zn10  1  0.00000000  0.50000000  0.00000000  1
  Zn  Zn11  1  0.50000000  0.00000000  0.50000000  1
  Zn  Zn12  1  0.00000000  0.00000000  0.50000000  1
  Zn  Zn13  1  0.50000000  0.50000000  0.00000000  1
  Zn  Zn14  1  0.34648732  0.34648732  0.34648732  1
  Zn  Zn15  1  0.65351268  0.65351268  0.65351268  1
  Zn  Zn16  1  0.34648532  0.34648532  0.96054105  1
  Zn  Zn17  1  0.34648532  0.96054105  0.34648532  1
  Zn  Zn18  1  0.65351468  0.65351468  0.03945895  1
  Zn  Zn19  1  0.65351468  0.03945895  0.65351468  1
  Zn  Zn20  1  0.96054105  0.34648532  0.34648532  1
  Zn  Zn21  1  0.03945895  0.65351468  0.65351468  1
  Cd  Cd0  1  0.00000000  0.00000000  0.00000000  1
  Sn  Sn0  1  0.50000000  0.50000000  0.50000000  1
loop_
_geom_bond_atom_site_label_1
_geom_bond_atom_site_label_2
_geom_bond_distance
_geom_bond_site_symmetry_2
Zn0 Zn12 2.634709 1_555
Zn0 Zn10 2.634709 1_555
Zn0 Zn8 2.634714 1_555
Zn0 Zn20 2.659667 1_455
Zn0 Zn16 2.659669 1_554
Zn0 Zn17 2.659670 1_545
Zn0 Zr4 2.883493 1_554
Zn0 Zr2 2.883493 1_545
Zn0 Zr0 2.883499 1_455
Zn1 Zn12 2.634709 1_665
Zn1 Zn10 2.634709 1_656
Zn1 Zn8 2.634714 1_566
Zn1 Zn21 2.659667 1_655
Zn1 Zn18 2.659669 1_556
Zn1 Zn19 2.659670 1_565
Zn1 Zr5 2.883493 1_556
Zn1 Zr3 2.883493 1_565
Zn1 Zr1 2.883499 1_655
Zn2 Zn9 2.634714 1_555
Zn2 Zn20 2.659711 1_455
Zn2 Zr4 2.883466 1_555
Zn2 Zr1 2.883485 1_545
Zn2 Zr3 2.883499 1_455
Zn3 Zn9 2.634714 1_555
Zn3 Zr2 2.883466 1_555
Zn3 Zr1 2.883485 1_554
Zn3 Zr5 2.883499 1_455
Zn4 Zn9 2.634714 1_655
Zn4 Zr5 2.883466 1_555
Zn4 Zr0 2.883485 1_565
Zn4 Zr2 2.883499 1_655
Zn5 Zn9 2.634714 1_655
Zn5 Zr3 2.883466 1_555
Zn5 Zr0 2.883485 1_556
Zn5 Zr4 2.883499 1_655
Zn6 Zn8 2.634710 1_555
Zn6 Zr3 2.883471 1_554
Zn6 Zr5 2.883471 1_545
Zn6 Zr0 2.883481 1_555
Zn7 Zn8 2.634710 1_566
Zn7 Zr2 2.883471 1_556
Zn7 Zr4 2.883471 1_565
Zn7 Zr1 2.883481 1_555
Zn8 Zr3 3.120444 1_554
Zn8 Zr2 3.120444 1_545
Zn8 Zr5 3.120445 1_545
Zn8 Zr4 3.120445 1_554
Zn9 Zr2 3.120457 1_555
Zn9 Zr3 3.120457 1_455
Zn9 Zr4 3.120457 1_555
Zn9 Zr5 3.120457 1_455
Zn10 Zn20 2.558189 1_455
Zn10 Zn21 2.558189 1_554
Zn10 Zn16 2.558195 1_554
Zn10 Zn18 2.558195 1_455
Zn10 Zn3 2.634717 1_555
Zn10 Zn5 2.634717 1_454
Zn10 Zr1 3.120452 1_554
Zn10 Zr0 3.120452 1_455
Zn10 Zr5 3.120461 1_455
Zn10 Zr4 3.120461 1_554
Zn11 Zn14 2.558201 1_555
Zn11 Zn15 2.558201 1_545
Zn11 Zn19 2.558210 1_555
Zn11 Zn17 2.558210 1_545
Zn11 Zn7 2.634714 1_545
Zn11 Zn6 2.634714 1_555
Zn11 Zn4 2.634719 1_545
Zn11 Zn2 2.634719 1_555
Zn11 Zr4 3.120436 1_555
Zn11 Zr5 3.120436 1_545
Zn11 Zr0 3.120450 1_555
Zn11 Zr1 3.120450 1_545
Zn12 Zn20 2.558189 1_455
Zn12 Zn21 2.558189 1_545
Zn12 Zn17 2.558195 1_545
Zn12 Zn19 2.558195 1_455
Zn12 Zn2 2.634717 1_555
Zn12 Zn4 2.634717 1_445
Zn12 Zr1 3.120452 1_545
Zn12 Zr0 3.120452 1_455
Zn12 Zr3 3.120462 1_455
Zn12 Zr2 3.120462 1_545
Zn13 Zn14 2.558201 1_555
Zn13 Zn15 2.558201 1_554
Zn13 Zn18 2.558210 1_555
Zn13 Zn16 2.558210 1_554
Zn13 Zn7 2.634714 1_554
Zn13 Zn6 2.634714 1_555
Zn13 Zn5 2.634719 1_554
Zn13 Zn3 2.634719 1_555
Zn13 Zr2 3.120436 1_555
Zn13 Zr3 3.120436 1_554
Zn13 Zr0 3.120451 1_555
Zn13 Zr1 3.120451 1_554
Zn14 Zn9 2.558205 1_555
Zn14 Zn6 2.659708 1_555
Zn14 Zn2 2.659710 1_555
Zn14 Zn3 2.659710 1_555
Zn14 Zr4 2.882406 1_555
Zn14 Zr2 2.882406 1_555
Zn14 Zr0 2.882415 1_555
Zn15 Zn9 2.558205 1_655
Zn15 Zn7 2.659708 1_555
Zn15 Zn4 2.659710 1_555
Zn15 Zn5 2.659710 1_555
Zn15 Zr5 2.882406 1_555
Zn15 Zr3 2.882406 1_555
Zn15 Zr1 2.882415 1_555
Zn16 Zn8 2.558190 1_556
Zn16 Zn6 2.659706 1_556
Zn16 Zn3 2.659710 1_556
Zn16 Zr4 2.882411 1_555
Zn16 Zr3 2.882424 1_555
Zn16 Zr1 2.882428 1_555
Zn17 Zn8 2.558190 1_565
Zn17 Zn6 2.659705 1_565
Zn17 Zn2 2.659710 1_565
Zn17 Zr2 2.882411 1_555
Zn17 Zr5 2.882424 1_555
Zn17 Zr1 2.882428 1_555
Zn18 Zn8 2.558190 1_565
Zn18 Zn7 2.659706 1_554
Zn18 Zn5 2.659710 1_554
Zn18 Zr5 2.882411 1_555
Zn18 Zr2 2.882424 1_555
Zn18 Zr0 2.882428 1_555
Zn19 Zn8 2.558190 1_556
Zn19 Zn7 2.659705 1_545
Zn19 Zn4 2.659710 1_545
Zn19 Zr3 2.882411 1_555
Zn19 Zr4 2.882424 1_555
Zn19 Zr0 2.882428 1_555
Zn20 Zn9 2.558208 1_655
Zn20 Zn3 2.659711 1_655
Zn20 Zr0 2.882407 1_555
Zn20 Zr3 2.882444 1_555
Zn20 Zr5 2.882444 1_555
Zn21 Zn9 2.558208 1_555
Zn21 Zn5 2.659711 1_455
Zn21 Zn4 2.659711 1_455
Zn21 Zr1 2.882407 1_555
Zn21 Zr2 2.882444 1_555
Zn21 Zr4 2.882444 1_555
Cd0 Zn4 2.904234 1_445
Cd0 Zn2 2.904234 1_554
Cd0 Zn5 2.904234 1_454
Cd0 Zn3 2.904234 1_545
Cd0 Zn7 2.904247 1_544
Cd0 Zn6 2.904247 1_455
Cd0 Zn0 2.904258 1_555
Cd0 Zn1 2.904258 1_444
Cd0 Zr4 3.317311 1_554
Cd0 Zr5 3.317311 1_445
Cd0 Zr2 3.317311 1_545
Cd0 Zr3 3.317311 1_454
Cd0 Zr0 3.317315 1_455
Cd0 Zr1 3.317315 1_544
Sn0 Zr1 2.910296 1_555
Sn0 Zr0 2.910296 1_555
Sn0 Zr5 2.910304 1_555
Sn0 Zr4 2.910304 1_555
Sn0 Zr3 2.910305 1_555
Sn0 Zr2 2.910305 1_555
Sn0 Zn15 3.311737 1_555
Sn0 Zn14 3.311737 1_555
Sn0 Zn16 3.311764 1_555
Sn0 Zn18 3.311764 1_555
Sn0 Zn17 3.311764 1_555
Sn0 Zn19 3.311764 1_555
Sn0 Zn20 3.311771 1_555
Sn0 Zn21 3.311771 1_555
