# generated using pymatgen
data_Hf5Zr(PdN)2
_symmetry_space_group_name_H-M   'P 1'
_cell_length_a   5.88709771
_cell_length_b   5.88709723
_cell_length_c   8.86198641
_cell_angle_alpha   90.00000000
_cell_angle_beta   90.00000000
_cell_angle_gamma   147.61268002
_symmetry_Int_Tables_number   1
_chemical_formula_structural   Hf5Zr(PdN)2
_chemical_formula_sum   'Hf5 Zr1 Pd2 N2'
_cell_volume   164.51536813
_cell_formula_units_Z   1
loop_
 _symmetry_equiv_pos_site_id
 _symmetry_equiv_pos_as_xyz
  1  'x, y, z'
loop_
 _atom_site_type_symbol
 _atom_site_label
 _atom_site_symmetry_multiplicity
 _atom_site_fract_x
 _atom_site_fract_y
 _atom_site_fract_z
 _atom_site_occupancy
  Hf  Hf0  1  0.62877294  0.37122506  0.05349900  1
  Hf  Hf1  1  0.62877294  0.37122506  0.44650100  1
  Hf  Hf2  1  0.37193580  0.62806220  0.55563418  1
  Hf  Hf3  1  0.05329572  0.94670228  0.75000000  1
  Hf  Hf4  1  0.37193580  0.62806220  0.94436582  1
  Zr  Zr0  1  0.94661994  0.05337806  0.25000000  1
  Pd  Pd0  1  0.24657856  0.75341944  0.25000000  1
  Pd  Pd1  1  0.75078150  0.24921650  0.75000000  1
  N  N0  1  0.00064939  0.99935061  0.99697791  1
  N  N1  1  0.00064939  0.99935061  0.50302209  1
loop_
_geom_bond_atom_site_label_1
_geom_bond_atom_site_label_2
_geom_bond_distance
_geom_bond_site_symmetry_2
Hf0 N0 2.246157 1_544
Hf0 N0 2.246162 1_654
Hf0 Pd0 2.739038 1_545
Hf0 Pd0 2.739038 1_655
Hf0 Pd1 3.022771 1_554
Hf1 N1 2.246157 1_545
Hf1 N1 2.246162 1_655
Hf1 Pd0 2.739038 1_545
Hf1 Pd0 2.739038 1_655
Hf1 Pd1 3.022771 1_555
Hf2 N1 2.242995 1_545
Hf2 N1 2.243000 1_655
Hf2 Pd1 2.745741 1_565
Hf2 Pd1 2.745741 1_455
Hf2 Pd0 3.056991 1_555
Hf3 N0 2.268224 1_555
Hf3 N1 2.268224 1_555
Hf3 Pd1 2.771603 1_455
Hf3 Pd1 2.771604 1_565
Hf4 N0 2.242995 1_545
Hf4 N0 2.243000 1_655
Hf4 Pd1 2.745741 1_565
Hf4 Pd1 2.745741 1_455
Hf4 Pd0 3.056991 1_556
Pd0 Zr0 2.794936 1_455
Pd0 Zr0 2.794937 1_565
N0 Zr0 2.324008 1_466
N1 Zr0 2.324008 1_465
