# generated using pymatgen
data_LiMo2PO8
_symmetry_space_group_name_H-M   'P 1'
_cell_length_a   6.72749738
_cell_length_b   5.24858800
_cell_length_c   17.72715060
_cell_angle_alpha   90.00000000
_cell_angle_beta   89.98820598
_cell_angle_gamma   90.00000000
_symmetry_Int_Tables_number   1
_chemical_formula_structural   LiMo2PO8
_chemical_formula_sum   'Li4 Mo8 P4 O32'
_cell_volume   625.94322876
_cell_formula_units_Z   4
loop_
 _symmetry_equiv_pos_site_id
 _symmetry_equiv_pos_as_xyz
  1  'x, y, z'
loop_
 _atom_site_type_symbol
 _atom_site_label
 _atom_site_symmetry_multiplicity
 _atom_site_fract_x
 _atom_site_fract_y
 _atom_site_fract_z
 _atom_site_occupancy
  Li  Li0  1  0.23969300  0.24106900  0.79099500  1
  Li  Li1  1  0.26502400  0.29226500  0.29119000  1
  Li  Li2  1  0.73497700  0.79226400  0.70881000  1
  Li  Li3  1  0.76030600  0.74107000  0.20900500  1
  Mo  Mo0  1  0.15609700  0.26129800  0.45152900  1
  Mo  Mo1  1  0.34354900  0.27537900  0.95175100  1
  Mo  Mo2  1  0.49919700  0.26906900  0.62486500  1
  Mo  Mo3  1  0.00052500  0.26724700  0.12530200  1
  Mo  Mo4  1  0.50080400  0.76906900  0.37513500  1
  Mo  Mo5  1  0.65645100  0.77538000  0.04824900  1
  Mo  Mo6  1  0.84390200  0.76129900  0.54847100  1
  Mo  Mo7  1  0.99947400  0.76724800  0.87469800  1
  P  P0  1  0.79400200  0.25101300  0.30790500  1
  P  P1  1  0.70582400  0.28489200  0.80764500  1
  P  P2  1  0.29417700  0.78489100  0.19235500  1
  P  P3  1  0.20599700  0.75101200  0.69209500  1
  O  O0  1  0.15788500  0.25728500  0.04338600  1
  O  O1  1  0.95931100  0.47208900  0.51017400  1
  O  O2  1  0.84163900  0.35353000  0.22770400  1
  O  O3  1  0.84818600  0.96716300  0.11671100  1
  O  O4  1  0.86231300  0.11207200  0.84265500  1
  O  O5  1  0.84211600  0.75728400  0.95661500  1
  O  O6  1  0.78743200  0.47593300  0.08249400  1
  O  O7  1  0.78747400  0.56468400  0.80240600  1
  O  O8  1  0.99380800  0.25582400  0.35164000  1
  O  O9  1  0.04069000  0.97208800  0.48982600  1
  O  O10  1  0.15836000  0.85353000  0.77229600  1
  O  O11  1  0.15181300  0.46716200  0.88328900  1
  O  O12  1  0.13768600  0.61207300  0.15734500  1
  O  O13  1  0.00619200  0.75582300  0.64836000  1
  O  O14  1  0.21256800  0.97593400  0.91750600  1
  O  O15  1  0.21252700  0.06468500  0.19759400  1
  O  O16  1  0.36165300  0.92341100  0.65629400  1
  O  O17  1  0.28773100  0.47120100  0.69729700  1
  O  O18  1  0.28679600  0.56141600  0.41744300  1
  O  O19  1  0.34846900  0.06969000  0.38357300  1
  O  O20  1  0.63834800  0.42341200  0.34370600  1
  O  O21  1  0.34415300  0.68279500  0.27240800  1
  O  O22  1  0.45991500  0.56483500  0.98954800  1
  O  O23  1  0.50701400  0.27961900  0.85200700  1
  O  O24  1  0.49298500  0.77961800  0.14799300  1
  O  O25  1  0.54008600  0.06483400  0.01045200  1
  O  O26  1  0.65584700  0.18279400  0.72759200  1
  O  O27  1  0.65769900  0.78102300  0.45703500  1
  O  O28  1  0.65153000  0.56968900  0.61642700  1
  O  O29  1  0.71320400  0.06141500  0.58255700  1
  O  O30  1  0.71227000  0.97120100  0.30270300  1
  O  O31  1  0.34230000  0.28102200  0.54296500  1
loop_
_geom_bond_atom_site_label_1
_geom_bond_atom_site_label_2
_geom_bond_distance
_geom_bond_site_symmetry_2
Li0 O17 2.078962 1_555
Li0 O11 2.105747 1_555
Li0 O23 2.108501 1_555
Li0 O10 2.132284 1_545
Li1 O15 2.074766 1_555
Li1 O19 2.088598 1_555
Li1 O8 2.124453 1_455
Li1 O21 2.143727 1_555
Li2 O7 2.074766 1_555
Li2 O28 2.088602 1_555
Li2 O13 2.124447 1_655
Li2 O26 2.143729 1_565
Li3 O30 2.078957 1_555
Li3 O3 2.105747 1_555
Li3 O24 2.108500 1_555
Li3 O2 2.132289 1_555
Mo0 O9 1.835112 1_545
Mo0 O18 1.902437 1_555
Mo0 O1 2.014173 1_455
Mo0 O19 2.033928 1_555
Mo0 O31 2.051360 1_555
Mo0 O8 2.080671 1_455
Mo1 O22 1.835781 1_555
Mo1 O14 1.901406 1_545
Mo1 O25 2.013157 1_556
Mo1 O11 2.037310 1_555
Mo1 O0 2.051118 1_556
Mo1 O23 2.082188 1_555
Mo2 O31 1.796268 1_555
Mo2 O28 1.887357 1_555
Mo2 O29 1.955184 1_555
Mo2 O16 2.111353 1_545
Mo2 O26 2.152374 1_555
Mo2 O17 2.190287 1_555
Mo3 O0 1.797643 1_555
Mo3 O3 1.885279 1_445
Mo3 O6 1.957340 1_455
Mo3 O12 2.109478 1_555
Mo3 O2 2.154563 1_455
Mo3 O15 2.192615 1_555
Mo4 O27 1.796260 1_555
Mo4 O19 1.887369 1_565
Mo4 O18 1.955186 1_555
Mo4 O20 2.111348 1_555
Mo4 O21 2.152376 1_555
Mo4 O30 2.190287 1_555
Mo5 O25 1.835770 1_565
Mo5 O6 1.901414 1_555
Mo5 O22 2.013153 1_554
Mo5 O3 2.037306 1_555
Mo5 O5 2.051108 1_554
Mo5 O24 2.082192 1_555
Mo6 O1 1.835118 1_555
Mo6 O29 1.902425 1_565
Mo6 O9 2.014176 1_655
Mo6 O28 2.033933 1_555
Mo6 O27 2.051360 1_555
Mo6 O13 2.080675 1_655
Mo7 O5 1.797650 1_555
Mo7 O11 1.885287 1_655
Mo7 O14 1.957345 1_655
Mo7 O4 2.109469 1_565
Mo7 O10 2.154562 1_655
Mo7 O7 2.192612 1_555
O2 P0 1.553502 1_555
O4 P1 1.522022 1_555
O7 P1 1.570626 1_555
O8 P0 1.552099 1_555
O10 P3 1.553504 1_555
O12 P2 1.522025 1_555
O13 P3 1.552093 1_555
O15 P2 1.570636 1_545
O16 P3 1.522445 1_555
O17 P3 1.570891 1_555
O20 P0 1.522436 1_555
O21 P2 1.553789 1_555
O23 P1 1.551666 1_555
O24 P2 1.551654 1_555
O26 P1 1.553794 1_555
O30 P0 1.570892 1_565
