# generated using pymatgen
data_Ba2LuAg5S6
_symmetry_space_group_name_H-M   'P 1'
_cell_length_a   4.16067236
_cell_length_b   7.26803298
_cell_length_c   11.21515772
_cell_angle_alpha   95.22889986
_cell_angle_beta   90.00000000
_cell_angle_gamma   106.63244405
_symmetry_Int_Tables_number   1
_chemical_formula_structural   Ba2LuAg5S6
_chemical_formula_sum   'Ba2 Lu1 Ag5 S6'
_cell_volume   323.48243694
_cell_formula_units_Z   1
loop_
 _symmetry_equiv_pos_site_id
 _symmetry_equiv_pos_as_xyz
  1  'x, y, z'
loop_
 _atom_site_type_symbol
 _atom_site_label
 _atom_site_symmetry_multiplicity
 _atom_site_fract_x
 _atom_site_fract_y
 _atom_site_fract_z
 _atom_site_occupancy
  Ba  Ba0  1  0.25568550  0.51137099  0.70153294  1
  Ba  Ba1  1  0.74431450  0.48862901  0.29846706  1
  Lu  Lu0  1  0.50000000  0.00000000  0.50000000  1
  Ag  Ag0  1  0.01728389  0.03456779  0.25139784  1
  Ag  Ag1  1  0.98271611  0.96543221  0.74860216  1
  Ag  Ag2  1  0.35560509  0.71121218  0.04495149  1
  Ag  Ag3  1  0.64439491  0.28878782  0.95504851  1
  Ag  Ag4  1  0.00000000  0.00000000  0.00000000  1
  S  S0  1  0.12121344  0.24242689  0.45424764  1
  S  S1  1  0.87878656  0.75757311  0.54575236  1
  S  S2  1  0.15839421  0.31678842  0.10008672  1
  S  S3  1  0.84160579  0.68321158  0.89991328  1
  S  S4  1  0.41266215  0.82532331  0.27223625  1
  S  S5  1  0.58733785  0.17467669  0.72776375  1
loop_
_geom_bond_atom_site_label_1
_geom_bond_atom_site_label_2
_geom_bond_distance
_geom_bond_site_symmetry_2
Ba0 S5 3.169110 1_555
Ba0 S5 3.169113 1_455
Ba0 S3 3.194278 1_455
Ba0 S3 3.194278 1_555
Ba0 S0 3.195487 1_555
Ba0 S1 3.299945 1_455
Ba0 S1 3.299945 1_555
Ba1 S4 3.169110 1_555
Ba1 S4 3.169113 1_655
Ba1 S2 3.194278 1_655
Ba1 S2 3.194278 1_555
Ba1 S1 3.195487 1_555
Ba1 S0 3.299945 1_655
Ba1 S0 3.299945 1_555
Lu0 S5 2.722797 1_555
Lu0 S4 2.722797 1_545
Lu0 S0 2.757908 1_655
Lu0 S1 2.757908 1_445
Lu0 S1 2.757908 1_545
Lu0 S0 2.757908 1_555
Ag0 S4 2.563304 1_445
Ag0 S4 2.563307 1_545
Ag0 S0 2.577685 1_555
Ag0 S2 2.716037 1_555
Ag1 S5 2.563304 1_665
Ag1 S5 2.563307 1_565
Ag1 S1 2.577685 1_555
Ag1 S3 2.716037 1_555
Ag2 S4 2.596870 1_555
Ag2 S3 2.636547 1_454
Ag2 S3 2.636554 1_554
Ag2 S2 2.872291 1_555
Ag3 S5 2.596870 1_555
Ag3 S2 2.636547 1_656
Ag3 S2 2.636554 1_556
Ag3 S3 2.872291 1_555
Ag4 S2 2.378187 1_555
Ag4 S3 2.378187 1_444
