# generated using pymatgen
data_Sr7Ca(CdSb2)4
_symmetry_space_group_name_H-M   'P 1'
_cell_length_a   4.76790617
_cell_length_b   7.70486189
_cell_length_c   18.24627603
_cell_angle_alpha   89.96329639
_cell_angle_beta   90.00000000
_cell_angle_gamma   90.00000000
_symmetry_Int_Tables_number   1
_chemical_formula_structural   Sr7Ca(CdSb2)4
_chemical_formula_sum   'Sr7 Ca1 Cd4 Sb8'
_cell_volume   670.29612759
_cell_formula_units_Z   1
loop_
 _symmetry_equiv_pos_site_id
 _symmetry_equiv_pos_as_xyz
  1  'x, y, z'
loop_
 _atom_site_type_symbol
 _atom_site_label
 _atom_site_symmetry_multiplicity
 _atom_site_fract_x
 _atom_site_fract_y
 _atom_site_fract_z
 _atom_site_occupancy
  Sr  Sr0  1  0.75000000  0.77695490  0.44999829  1
  Sr  Sr1  1  0.25000000  0.72805465  0.94786678  1
  Sr  Sr2  1  0.25000000  0.53471105  0.72694905  1
  Sr  Sr3  1  0.75000000  0.96535266  0.22508462  1
  Sr  Sr4  1  0.75000000  0.27931054  0.04906188  1
  Sr  Sr5  1  0.25000000  0.21758619  0.55254832  1
  Sr  Sr6  1  0.75000000  0.46461023  0.27441075  1
  Ca  Ca0  1  0.25000000  0.03648977  0.77382469  1
  Cd  Cd0  1  0.25000000  0.62891436  0.15415834  1
  Cd  Cd1  1  0.75000000  0.86979229  0.65678785  1
  Cd  Cd2  1  0.75000000  0.37328226  0.84506935  1
  Cd  Cd3  1  0.25000000  0.12815846  0.34567200  1
  Sb  Sb0  1  0.75000000  0.24431132  0.68792937  1
  Sb  Sb1  1  0.25000000  0.75108790  0.31500967  1
  Sb  Sb2  1  0.25000000  0.25162676  0.18391038  1
  Sb  Sb3  1  0.75000000  0.72999287  0.07627036  1
  Sb  Sb4  1  0.75000000  0.75832014  0.81464035  1
  Sb  Sb5  1  0.25000000  0.26311891  0.91919240  1
  Sb  Sb6  1  0.75000000  0.22915765  0.42336865  1
  Sb  Sb7  1  0.25000000  0.76916707  0.57824689  1
loop_
_geom_bond_atom_site_label_1
_geom_bond_atom_site_label_2
_geom_bond_distance
_geom_bond_site_symmetry_2
Ca0 Sb5 3.176521 1_555
Ca0 Sb0 3.271133 1_455
Ca0 Sb0 3.271133 1_555
Ca0 Sb4 3.290801 1_445
Ca0 Sb4 3.290801 1_545
Cd0 Sb3 2.882369 1_455
Cd0 Sb3 2.882369 1_555
Cd0 Sb2 2.956862 1_555
Cd0 Sb1 3.082775 1_555
Cd0 Sr6 3.478018 1_455
Cd0 Sr6 3.478018 1_555
Cd0 Sr3 3.752584 1_555
Cd0 Sr3 3.752584 1_455
Cd1 Sb7 2.887814 1_555
Cd1 Sb7 2.887814 1_655
Cd1 Sb0 2.941387 1_565
Cd1 Sb4 3.005024 1_555
Cd2 Sb5 2.869039 1_555
Cd2 Sb5 2.869039 1_655
Cd2 Sb4 3.017822 1_555
Cd2 Sb0 3.035135 1_555
Cd2 Sr2 3.445567 1_555
Cd2 Sr2 3.445567 1_655
Cd3 Sb6 2.880975 1_455
Cd3 Sb6 2.880975 1_555
Cd3 Sb1 2.959007 1_545
Cd3 Sb2 3.100487 1_555
Cd3 Sr3 3.478717 1_445
Cd3 Sr3 3.478717 1_545
Cd3 Sr6 3.753620 1_455
Cd3 Sr6 3.753620 1_555
Sb0 Sr2 3.346420 1_555
Sb0 Sr2 3.346420 1_655
Sb0 Sr5 3.439211 1_555
Sb0 Sr5 3.439211 1_655
Sb1 Sr3 3.331274 1_455
Sb1 Sr3 3.331274 1_555
Sb1 Sr6 3.332585 1_455
Sb1 Sr6 3.332585 1_555
Sb1 Sr0 3.433678 1_455
Sb1 Sr0 3.433678 1_555
Sb2 Sr6 3.332625 1_455
Sb2 Sr6 3.332625 1_555
Sb2 Sr3 3.333264 1_445
Sb2 Sr3 3.333264 1_545
Sb2 Sr4 3.432497 1_455
Sb2 Sr4 3.432497 1_555
Sb3 Sr3 3.266140 1_555
Sb3 Sr1 3.342547 1_554
Sb3 Sr1 3.342547 1_654
Sb3 Sr4 3.508069 1_555
Sb4 Sr2 3.348910 1_555
Sb4 Sr2 3.348910 1_655
Sb4 Sr1 3.412637 1_555
Sb4 Sr1 3.412637 1_655
Sb5 Sr4 3.363680 1_556
Sb5 Sr4 3.363680 1_456
Sb5 Sr1 3.620603 1_555
Sb6 Sr6 3.266784 1_555
Sb6 Sr5 3.353593 1_655
Sb6 Sr5 3.353593 1_555
Sb6 Sr0 3.517569 1_545
Sb7 Sr2 3.258645 1_555
Sb7 Sr0 3.341037 1_555
Sb7 Sr0 3.341037 1_455
Sb7 Sr5 3.486384 1_565
