# generated using pymatgen
data_Sc12Ni4SnRh
_symmetry_space_group_name_H-M   'P 1'
_cell_length_a   7.74951335
_cell_length_b   7.74951460
_cell_length_c   7.74951327
_cell_angle_alpha   111.53614679
_cell_angle_beta   110.51881577
_cell_angle_gamma   106.40331000
_symmetry_Int_Tables_number   1
_chemical_formula_structural   Sc12Ni4SnRh
_chemical_formula_sum   'Sc12 Ni4 Sn1 Rh1'
_cell_volume   357.46762080
_cell_formula_units_Z   1
loop_
 _symmetry_equiv_pos_site_id
 _symmetry_equiv_pos_as_xyz
  1  'x, y, z'
loop_
 _atom_site_type_symbol
 _atom_site_label
 _atom_site_symmetry_multiplicity
 _atom_site_fract_x
 _atom_site_fract_y
 _atom_site_fract_z
 _atom_site_occupancy
  Sc  Sc0  1  0.41771238  0.22068883  0.19702155  1
  Sc  Sc1  1  0.58228762  0.77931117  0.80297845  1
  Sc  Sc2  1  0.02366728  0.22068883  0.80297845  1
  Sc  Sc3  1  0.97633272  0.77931117  0.19702155  1
  Sc  Sc4  1  0.18350734  0.28447301  0.46798135  1
  Sc  Sc5  1  0.81649266  0.71552699  0.53201865  1
  Sc  Sc6  1  0.18350734  0.71552699  0.89903333  1
  Sc  Sc7  1  0.81649266  0.28447301  0.10096667  1
  Sc  Sc8  1  0.32136565  0.62323364  0.30186800  1
  Sc  Sc9  1  0.67863435  0.37676636  0.69813200  1
  Sc  Sc10  1  0.32136565  0.01949765  0.69813200  1
  Sc  Sc11  1  0.67863435  0.98050235  0.30186800  1
  Ni  Ni0  1  0.35717324  0.00000000  0.35717324  1
  Ni  Ni1  1  0.64282676  1.00000000  0.64282676  1
  Ni  Ni2  1  0.12552102  0.62552102  0.50000000  1
  Ni  Ni3  1  0.87447898  0.37447898  0.50000000  1
  Sn  Sn0  1  0.50000000  0.50000000  0.00000000  1
  Rh  Rh0  1  0.00000000  0.00000000  0.00000000  1
loop_
_geom_bond_atom_site_label_1
_geom_bond_atom_site_label_2
_geom_bond_distance
_geom_bond_site_symmetry_2
Sc0 Sn0 3.122869 1_555
Sc1 Sn0 3.122869 1_556
Sc2 Sn0 3.122871 1_556
Sc3 Sn0 3.122871 1_555
Sc4 Sn0 3.368266 1_556
Sc5 Sn0 3.368266 1_555
Sc6 Sn0 3.368274 1_556
Sc7 Sn0 3.368274 1_555
Sc8 Sn0 3.110878 1_555
Sc9 Sn0 3.110878 1_556
Sc10 Sn0 3.110878 1_556
Sc11 Sn0 3.110878 1_555
Ni0 Sc3 2.489710 1_445
Ni0 Sc0 2.489713 1_555
Ni0 Ni1 2.522979 1_545
Ni0 Sc10 2.706651 1_555
Ni0 Sc11 2.706651 1_545
Ni0 Sc9 2.706652 1_555
Ni0 Sc8 2.706652 1_545
Ni0 Sc4 2.916264 1_555
Ni0 Sc6 2.916268 1_544
Ni0 Rh0 3.154663 1_555
Ni1 Sc2 2.489710 1_665
Ni1 Sc1 2.489713 1_555
Ni1 Sc11 2.706651 1_555
Ni1 Sc10 2.706651 1_565
Ni1 Sc8 2.706652 1_555
Ni1 Sc9 2.706652 1_565
Ni1 Sc5 2.916264 1_555
Ni1 Sc7 2.916268 1_566
Ni1 Rh0 3.154663 1_666
Ni2 Ni3 2.330655 1_455
Ni2 Sc8 2.508007 1_555
Ni2 Sc10 2.508007 1_565
Ni2 Sc6 2.741558 1_555
Ni2 Sc7 2.741562 1_455
Ni2 Sc5 2.741563 1_455
Ni2 Sc4 2.741568 1_555
Ni2 Sc1 3.033057 1_555
Ni2 Sc3 3.033069 1_455
Ni3 Sc9 2.508007 1_555
Ni3 Sc11 2.508007 1_545
Ni3 Sc7 2.741558 1_555
Ni3 Sc6 2.741562 1_655
Ni3 Sc4 2.741563 1_655
Ni3 Sc5 2.741568 1_555
Ni3 Sc0 3.033057 1_555
Ni3 Sc2 3.033069 1_655
Rh0 Sc2 2.688114 1_554
Rh0 Sc3 2.688114 1_445
Rh0 Sc0 2.688127 1_555
Rh0 Sc1 2.688127 1_444
Rh0 Sc7 2.962905 1_455
Rh0 Sc6 2.962905 1_544
Rh0 Sc4 2.962910 1_555
Rh0 Sc5 2.962910 1_444
