# generated using pymatgen
data_BaSiPtRh
_symmetry_space_group_name_H-M   'P 1'
_cell_length_a   9.25912432
_cell_length_b   9.25912484
_cell_length_c   4.27775887
_cell_angle_alpha   90.00000000
_cell_angle_beta   90.00000000
_cell_angle_gamma   152.83793643
_symmetry_Int_Tables_number   1
_chemical_formula_structural   BaSiPtRh
_chemical_formula_sum   'Ba2 Si2 Pt2 Rh2'
_cell_volume   167.41926585
_cell_formula_units_Z   2
loop_
 _symmetry_equiv_pos_site_id
 _symmetry_equiv_pos_as_xyz
  1  'x, y, z'
loop_
 _atom_site_type_symbol
 _atom_site_label
 _atom_site_symmetry_multiplicity
 _atom_site_fract_x
 _atom_site_fract_y
 _atom_site_fract_z
 _atom_site_occupancy
  Ba  Ba0  1  0.09702127  0.90297873  0.75000000  1
  Ba  Ba1  1  0.90297873  0.09702127  0.25000000  1
  Si  Si0  1  0.31342289  0.68657711  0.75000000  1
  Si  Si1  1  0.68657711  0.31342289  0.25000000  1
  Pt  Pt0  1  0.55271712  0.44728288  0.25000000  1
  Pt  Pt1  1  0.44728288  0.55271712  0.75000000  1
  Rh  Rh0  1  0.24923310  0.75076690  0.25000000  1
  Rh  Rh1  1  0.75076690  0.24923310  0.75000000  1
loop_
_geom_bond_atom_site_label_1
_geom_bond_atom_site_label_2
_geom_bond_distance
_geom_bond_site_symmetry_2
Ba0 Pt0 3.152472 1_455
Ba0 Pt0 3.152472 1_456
Ba0 Pt0 3.152472 1_566
Ba0 Pt0 3.152472 1_565
Ba0 Si1 3.449750 1_565
Ba0 Si1 3.449750 1_566
Ba0 Si1 3.449750 1_455
Ba0 Si1 3.449750 1_456
Ba0 Pt1 3.462981 1_455
Ba0 Pt1 3.462982 1_565
Ba0 Rh0 3.475883 1_555
Ba0 Rh0 3.475883 1_556
Ba0 Rh1 3.519416 1_565
Ba0 Rh1 3.519416 1_455
Ba1 Pt1 3.152472 1_654
Ba1 Pt1 3.152472 1_655
Ba1 Pt1 3.152472 1_545
Ba1 Pt1 3.152472 1_544
Ba1 Si0 3.449750 1_544
Ba1 Si0 3.449750 1_545
Ba1 Si0 3.449750 1_654
Ba1 Si0 3.449750 1_655
Ba1 Pt0 3.462981 1_655
Ba1 Pt0 3.462982 1_545
Ba1 Rh1 3.475883 1_554
Ba1 Rh1 3.475883 1_555
Ba1 Rh0 3.519416 1_545
Ba1 Rh0 3.519416 1_655
Pt0 Si1 2.409541 1_555
Pt0 Pt1 2.859492 1_554
Pt0 Pt1 2.859492 1_555
Pt1 Si0 2.409541 1_555
Rh0 Si0 2.431020 1_555
Rh0 Si0 2.431020 1_554
Rh0 Si1 2.449346 1_455
Rh0 Si1 2.449346 1_565
Rh1 Si1 2.431020 1_556
Rh1 Si1 2.431020 1_555
Rh1 Si0 2.449346 1_655
Rh1 Si0 2.449346 1_545
