# generated using pymatgen
data_RbCdAsO4
_symmetry_space_group_name_H-M   'P 1'
_cell_length_a   5.40150569
_cell_length_b   9.24561901
_cell_length_c   10.24801125
_cell_angle_alpha   90.00000000
_cell_angle_beta   90.00000000
_cell_angle_gamma   90.00000000
_symmetry_Int_Tables_number   1
_chemical_formula_structural   RbCdAsO4
_chemical_formula_sum   'Rb4 Cd4 As4 O16'
_cell_volume   511.78838417
_cell_formula_units_Z   4
loop_
 _symmetry_equiv_pos_site_id
 _symmetry_equiv_pos_as_xyz
  1  'x, y, z'
loop_
 _atom_site_type_symbol
 _atom_site_label
 _atom_site_symmetry_multiplicity
 _atom_site_fract_x
 _atom_site_fract_y
 _atom_site_fract_z
 _atom_site_occupancy
  Rb  Rb0  1  0.50222807  0.49595321  0.19064319  1
  Rb  Rb1  1  0.50222807  0.99595421  0.30935681  1
  Rb  Rb2  1  0.00222907  0.00404679  0.69064319  1
  Rb  Rb3  1  0.00222907  0.50404879  0.80935581  1
  Cd  Cd0  1  0.99207463  0.16447981  0.04398082  1
  Cd  Cd1  1  0.99207463  0.66448081  0.45601818  1
  Cd  Cd2  1  0.49207763  0.33551919  0.54397982  1
  Cd  Cd3  1  0.49207763  0.83551919  0.95601918  1
  As  As0  1  0.04909666  0.78424592  0.12540802  1
  As  As1  1  0.04909666  0.28424492  0.37459198  1
  As  As2  1  0.54909766  0.71575408  0.62540902  1
  As  As3  1  0.54909766  0.21575508  0.87459098  1
  O  O0  1  0.19155484  0.67034821  0.01857692  1
  O  O1  1  0.16755674  0.94868547  0.07644558  1
  O  O2  1  0.73619576  0.77738009  0.12412108  1
  O  O3  1  0.15329230  0.25422002  0.22076803  1
  O  O4  1  0.15329230  0.75422002  0.27923197  1
  O  O5  1  0.73619576  0.27738109  0.37587992  1
  O  O6  1  0.16755674  0.44868547  0.42355542  1
  O  O7  1  0.19155484  0.17034921  0.48142308  1
  O  O8  1  0.69155384  0.82965079  0.51857692  1
  O  O9  1  0.66755574  0.55131453  0.57644558  1
  O  O10  1  0.23619676  0.72261991  0.62412108  1
  O  O11  1  0.65329330  0.24577998  0.72076703  1
  O  O12  1  0.65329330  0.74577998  0.77923197  1
  O  O13  1  0.23619676  0.22261991  0.87588092  1
  O  O14  1  0.66755574  0.05131453  0.92355442  1
  O  O15  1  0.69155384  0.32965079  0.98142208  1
loop_
_geom_bond_atom_site_label_1
_geom_bond_atom_site_label_2
_geom_bond_distance
_geom_bond_site_symmetry_2
Cd0 O3 2.174638 1_655
Cd0 O1 2.233780 1_645
Cd0 O13 2.235036 1_654
Cd0 O15 2.319064 1_554
Cd0 O14 2.385459 1_554
Cd1 O4 2.174626 1_655
Cd1 O6 2.233785 1_655
Cd1 O10 2.235058 1_655
Cd1 O8 2.319058 1_555
Cd1 O9 2.385468 1_555
Cd2 O11 2.174631 1_555
Cd2 O9 2.233781 1_555
Cd2 O5 2.235019 1_555
Cd2 O7 2.319060 1_555
Cd2 O6 2.385460 1_555
Cd3 O12 2.174631 1_555
Cd3 O14 2.233779 1_565
Cd3 O2 2.235037 1_556
Cd3 O0 2.319069 1_556
Cd3 O1 2.385471 1_556
As0 O2 1.691379 1_455
As0 O4 1.696711 1_555
As0 O0 1.702832 1_555
As0 O1 1.724136 1_555
As1 O5 1.691378 1_455
As1 O3 1.696710 1_555
As1 O7 1.702821 1_555
As1 O6 1.724147 1_555
As2 O10 1.691379 1_555
As2 O12 1.696702 1_555
As2 O8 1.702828 1_555
As2 O9 1.724135 1_555
As3 O13 1.691379 1_555
As3 O11 1.696710 1_555
As3 O15 1.702816 1_555
As3 O14 1.724143 1_555
O0 Rb3 2.829664 1_554
O0 Rb0 2.919793 1_555
O1 Rb1 3.025898 1_555
O2 Rb0 2.971885 1_555
O2 Rb1 3.047050 1_555
O3 Rb0 2.939864 1_555
O3 Rb1 3.174637 1_545
O4 Rb1 2.939871 1_555
O4 Rb0 3.174644 1_555
O5 Rb1 2.971888 1_545
O5 Rb0 3.047044 1_555
O6 Rb0 3.025905 1_555
O7 Rb2 2.829672 1_555
O7 Rb1 2.919793 1_545
O8 Rb1 2.829677 1_555
O8 Rb2 2.919804 1_665
O9 Rb3 3.025893 1_655
O10 Rb2 2.971885 1_565
O10 Rb3 3.047026 1_555
O11 Rb2 2.939863 1_655
O11 Rb3 3.174657 1_655
O12 Rb3 2.939849 1_655
O12 Rb2 3.174644 1_665
O13 Rb3 2.971908 1_555
O13 Rb2 3.047057 1_555
O14 Rb2 3.025903 1_655
O15 Rb0 2.829679 1_556
O15 Rb3 2.919814 1_655
