# generated using pymatgen
data_RbSb12(OsRh)2
_symmetry_space_group_name_H-M   'P 1'
_cell_length_a   8.12020683
_cell_length_b   8.12015319
_cell_length_c   8.13120893
_cell_angle_alpha   109.48482222
_cell_angle_beta   109.48698558
_cell_angle_gamma   109.38672254
_symmetry_Int_Tables_number   1
_chemical_formula_structural   RbSb12(OsRh)2
_chemical_formula_sum   'Rb1 Sb12 Os2 Rh2'
_cell_volume   413.00885202
_cell_formula_units_Z   1
loop_
 _symmetry_equiv_pos_site_id
 _symmetry_equiv_pos_as_xyz
  1  'x, y, z'
loop_
 _atom_site_type_symbol
 _atom_site_label
 _atom_site_symmetry_multiplicity
 _atom_site_fract_x
 _atom_site_fract_y
 _atom_site_fract_z
 _atom_site_occupancy
  Rb  Rb0  1  0.00000000  0.00000000  0.00000000  1
  Sb  Sb0  1  0.84271819  0.65862127  0.50135092  1
  Sb  Sb1  1  0.15728181  0.34137873  0.49864908  1
  Sb  Sb2  1  0.15690320  0.65431169  0.81121538  1
  Sb  Sb3  1  0.84309680  0.34568831  0.18878462  1
  Sb  Sb4  1  0.65449301  0.49886413  0.84118031  1
  Sb  Sb5  1  0.34550699  0.50113587  0.15881969  1
  Sb  Sb6  1  0.65768572  0.81331568  0.15882100  1
  Sb  Sb7  1  0.34231428  0.18668432  0.84117900  1
  Sb  Sb8  1  0.49884911  0.84181583  0.65501869  1
  Sb  Sb9  1  0.50115089  0.15818417  0.34498131  1
  Sb  Sb10  1  0.18679494  0.84383053  0.34498102  1
  Sb  Sb11  1  0.81320506  0.15616947  0.65501898  1
  Os  Os0  1  0.50000000  0.50000000  0.50000000  1
  Os  Os1  1  0.00000000  0.00000000  0.50000000  1
  Rh  Rh0  1  0.50000000  0.00000000  0.00000000  1
  Rh  Rh1  1  0.00000000  0.50000000  0.00000000  1
loop_
_geom_bond_atom_site_label_1
_geom_bond_atom_site_label_2
_geom_bond_distance
_geom_bond_site_symmetry_2
Rb0 Sb1 3.528724 1_555
Rb0 Sb0 3.528724 1_444
Rb0 Sb10 3.548070 1_545
Rb0 Sb11 3.548070 1_454
Rb0 Sb9 3.548094 1_555
Rb0 Sb8 3.548094 1_444
Rb0 Sb7 3.549051 1_554
Rb0 Sb6 3.549051 1_445
Rb0 Sb5 3.549052 1_555
Rb0 Sb4 3.549052 1_444
Rb0 Sb2 3.558622 1_544
Rb0 Sb3 3.558622 1_455
Sb0 Sb3 2.935724 1_555
Sb0 Sb2 2.947494 1_655
Sb1 Sb2 2.935724 1_555
Sb1 Sb3 2.947494 1_455
Sb4 Sb7 2.930156 1_555
Sb4 Sb6 2.950116 1_556
Sb5 Sb6 2.930156 1_555
Sb5 Sb7 2.950116 1_554
Sb10 Sb8 2.927375 1_555
Sb10 Sb9 2.950580 1_565
Sb11 Sb9 2.927375 1_555
Sb11 Sb8 2.950580 1_545
Os0 Sb4 2.640621 1_555
Os0 Sb5 2.640621 1_555
Os0 Sb8 2.642719 1_555
Os0 Sb9 2.642719 1_555
Os0 Sb0 2.644687 1_555
Os0 Sb1 2.644687 1_555
Os1 Sb7 2.640618 1_555
Os1 Sb6 2.640618 1_445
Os1 Sb10 2.642714 1_545
Os1 Sb11 2.642714 1_455
Os1 Sb1 2.644768 1_555
Os1 Sb0 2.644768 1_445
Rh0 Sb2 2.660445 1_544
Rh0 Sb3 2.660445 1_555
Rh0 Sb9 2.662611 1_555
Rh0 Sb8 2.662611 1_544
Rh0 Sb6 2.663942 1_545
Rh0 Sb7 2.663942 1_554
Rh1 Sb3 2.660438 1_455
Rh1 Sb2 2.660438 1_554
Rh1 Sb10 2.662610 1_555
Rh1 Sb11 2.662610 1_454
Rh1 Sb5 2.663962 1_555
Rh1 Sb4 2.663962 1_454
