# generated using pymatgen
data_Sr3Al2(BiAs)2
_symmetry_space_group_name_H-M   'P 1'
_cell_length_a   9.01303212
_cell_length_b   9.01303316
_cell_length_c   7.07674700
_cell_angle_alpha   89.04672239
_cell_angle_beta   89.04672316
_cell_angle_gamma   74.96280976
_symmetry_Int_Tables_number   1
_chemical_formula_structural   Sr3Al2(BiAs)2
_chemical_formula_sum   'Sr6 Al4 Bi4 As4'
_cell_volume   555.07061376
_cell_formula_units_Z   2
loop_
 _symmetry_equiv_pos_site_id
 _symmetry_equiv_pos_as_xyz
  1  'x, y, z'
loop_
 _atom_site_type_symbol
 _atom_site_label
 _atom_site_symmetry_multiplicity
 _atom_site_fract_x
 _atom_site_fract_y
 _atom_site_fract_z
 _atom_site_occupancy
  Sr  Sr0  1  0.00305898  0.73366771  0.52173838  1
  Sr  Sr1  1  0.26633229  0.99694102  0.97826162  1
  Sr  Sr2  1  0.99694102  0.26633229  0.47826162  1
  Sr  Sr3  1  0.73366771  0.00305898  0.02173838  1
  Sr  Sr4  1  0.41397032  0.58602968  0.25000000  1
  Sr  Sr5  1  0.58602968  0.41397032  0.75000000  1
  Al  Al0  1  0.81070996  0.59153771  0.09502761  1
  Al  Al1  1  0.40846229  0.18929004  0.40497239  1
  Al  Al2  1  0.18929004  0.40846229  0.90497239  1
  Al  Al3  1  0.59153771  0.81070996  0.59502761  1
  Bi  Bi0  1  0.06353814  0.71336546  0.01775174  1
  Bi  Bi1  1  0.28663454  0.93646186  0.48224826  1
  Bi  Bi2  1  0.93646186  0.28663454  0.98224826  1
  Bi  Bi3  1  0.71336546  0.06353814  0.51775174  1
  As  As0  1  0.73703257  0.57381204  0.43253431  1
  As  As1  1  0.42618796  0.26296743  0.06746569  1
  As  As2  1  0.26296743  0.42618796  0.56746569  1
  As  As3  1  0.57381204  0.73703257  0.93253431  1
loop_
_geom_bond_atom_site_label_1
_geom_bond_atom_site_label_2
_geom_bond_distance
_geom_bond_site_symmetry_2
Al0 As0 2.482089 1_555
Al0 As3 2.485871 1_554
Al0 Bi2 2.810754 1_554
Al0 Bi0 2.816796 1_655
Al1 As1 2.482089 1_555
Al1 As2 2.485872 1_555
Al1 Bi3 2.810753 1_555
Al1 Bi1 2.816796 1_545
Al2 As2 2.482089 1_555
Al2 As1 2.485871 1_556
Al2 Bi0 2.810754 1_556
Al2 Bi2 2.816796 1_455
Al3 As3 2.482089 1_555
Al3 As0 2.485872 1_555
Al3 Bi1 2.810753 1_555
Al3 Bi3 2.816796 1_565
Bi0 Sr3 3.410173 1_465
Bi0 Sr4 3.496191 1_555
Bi0 Sr1 3.512081 1_554
Bi0 Sr0 3.555613 1_554
Bi0 Sr0 3.599503 1_555
Bi1 Sr2 3.410173 1_465
Bi1 Sr4 3.496191 1_555
Bi1 Sr0 3.512081 1_555
Bi1 Sr1 3.555613 1_555
Bi1 Sr1 3.599503 1_554
Bi2 Sr1 3.410173 1_645
Bi2 Sr5 3.496191 1_555
Bi2 Sr3 3.512081 1_556
Bi2 Sr2 3.555613 1_556
Bi2 Sr2 3.599503 1_555
Bi3 Sr0 3.410173 1_645
Bi3 Sr5 3.496191 1_555
Bi3 Sr2 3.512081 1_555
Bi3 Sr3 3.555613 1_555
Bi3 Sr3 3.599503 1_556
As0 Sr5 3.127794 1_555
As0 Sr2 3.146315 1_555
As0 Sr0 3.177504 1_655
As0 Sr4 3.180125 1_555
As1 Sr5 3.127794 1_554
As1 Sr3 3.146315 1_555
As1 Sr1 3.177505 1_544
As1 Sr4 3.180125 1_555
As2 Sr4 3.127794 1_555
As2 Sr0 3.146315 1_555
As2 Sr2 3.177504 1_455
As2 Sr5 3.180125 1_555
As3 Sr4 3.127794 1_556
As3 Sr1 3.146315 1_555
As3 Sr3 3.177505 1_566
As3 Sr5 3.180125 1_555
