# generated using pymatgen
data_Zr16FeCo3Os4
_symmetry_space_group_name_H-M   'P 1'
_cell_length_a   8.64963934
_cell_length_b   8.64964038
_cell_length_c   8.64964018
_cell_angle_alpha   59.99569776
_cell_angle_beta   59.99569382
_cell_angle_gamma   59.99569663
_symmetry_Int_Tables_number   1
_chemical_formula_structural   Zr16FeCo3Os4
_chemical_formula_sum   'Zr16 Fe1 Co3 Os4'
_cell_volume   457.54805385
_cell_formula_units_Z   1
loop_
 _symmetry_equiv_pos_site_id
 _symmetry_equiv_pos_as_xyz
  1  'x, y, z'
loop_
 _atom_site_type_symbol
 _atom_site_label
 _atom_site_symmetry_multiplicity
 _atom_site_fract_x
 _atom_site_fract_y
 _atom_site_fract_z
 _atom_site_occupancy
  Zr  Zr0  1  0.05020728  0.65020177  0.65020177  1
  Zr  Zr1  1  0.65020177  0.05020728  0.65020177  1
  Zr  Zr2  1  0.65020177  0.65020177  0.05020728  1
  Zr  Zr3  1  0.64890232  0.64890232  0.64890232  1
  Zr  Zr4  1  0.79822217  0.79822217  0.20038225  1
  Zr  Zr5  1  0.20415622  0.20415622  0.79638184  1
  Zr  Zr6  1  0.79822217  0.20038225  0.79822217  1
  Zr  Zr7  1  0.20415622  0.79638184  0.20415622  1
  Zr  Zr8  1  0.20038225  0.79822217  0.79822217  1
  Zr  Zr9  1  0.79638184  0.20415622  0.20415622  1
  Zr  Zr10  1  0.43594849  0.43594849  0.06400953  1
  Zr  Zr11  1  0.06396577  0.06396577  0.43676991  1
  Zr  Zr12  1  0.43594849  0.06400953  0.43594849  1
  Zr  Zr13  1  0.06396577  0.43676991  0.06396577  1
  Zr  Zr14  1  0.06400953  0.43594849  0.43594849  1
  Zr  Zr15  1  0.43676991  0.06396577  0.06396577  1
  Fe  Fe0  1  0.86045477  0.86045477  0.86045477  1
  Co  Co0  1  0.41762422  0.86024448  0.86024448  1
  Co  Co1  1  0.86024448  0.41762422  0.86024448  1
  Co  Co2  1  0.86024448  0.86024448  0.41762422  1
  Os  Os0  1  0.74588550  0.41793205  0.41793205  1
  Os  Os1  1  0.41793205  0.74588550  0.41793205  1
  Os  Os2  1  0.41793205  0.41793205  0.74588550  1
  Os  Os3  1  0.41804151  0.41804151  0.41804151  1
loop_
_geom_bond_atom_site_label_1
_geom_bond_atom_site_label_2
_geom_bond_distance
_geom_bond_site_symmetry_2
Zr0 Zr13 3.135155 1_556
Zr0 Zr11 3.135155 1_565
Zr0 Zr14 3.142508 1_555
Zr1 Zr11 3.135155 1_655
Zr1 Zr15 3.135155 1_556
Zr1 Zr12 3.142508 1_555
Zr10 Zr3 3.137180 1_554
Zr10 Zr2 3.142508 1_555
Zr10 Zr9 3.210349 1_555
Zr10 Zr7 3.210350 1_555
Zr10 Zr13 3.214158 1_555
Zr10 Zr15 3.214159 1_555
Zr10 Zr14 3.216929 1_555
Zr10 Zr12 3.216929 1_555
Zr10 Zr6 3.217206 1_554
Zr10 Zr8 3.217206 1_554
Zr11 Zr6 3.200000 1_455
Zr11 Zr8 3.200001 1_545
Zr11 Zr9 3.207179 1_455
Zr11 Zr7 3.207179 1_545
Zr11 Zr12 3.214158 1_555
Zr11 Zr14 3.214159 1_555
Zr11 Zr15 3.224412 1_555
Zr11 Zr13 3.224412 1_555
Zr12 Zr3 3.137180 1_545
Zr12 Zr9 3.210349 1_555
Zr12 Zr5 3.210350 1_555
Zr12 Zr15 3.214159 1_555
Zr12 Zr14 3.216929 1_555
Zr12 Zr4 3.217206 1_545
Zr12 Zr8 3.217206 1_545
Zr13 Zr2 3.135155 1_455
Zr13 Zr4 3.200001 1_455
Zr13 Zr8 3.200001 1_554
Zr13 Zr9 3.207178 1_455
Zr13 Zr5 3.207179 1_554
Zr13 Zr14 3.214159 1_555
Zr13 Zr15 3.224412 1_555
Zr14 Zr3 3.137180 1_455
Zr14 Zr7 3.210350 1_555
Zr14 Zr5 3.210350 1_555
Zr14 Zr6 3.217206 1_455
Zr14 Zr4 3.217206 1_455
Zr15 Zr2 3.135155 1_545
Zr15 Zr6 3.200000 1_554
Zr15 Zr4 3.200000 1_545
Zr15 Zr7 3.207179 1_545
Zr15 Zr5 3.207179 1_554
Fe0 Zr8 2.519633 1_655
Fe0 Zr4 2.519633 1_556
Fe0 Zr6 2.519634 1_565
Fe0 Zr2 2.577945 1_556
Fe0 Zr1 2.577945 1_565
Fe0 Zr0 2.577945 1_655
Fe0 Zr15 3.134142 1_566
Fe0 Zr11 3.134142 1_665
Fe0 Zr13 3.134142 1_656
Co0 Zr8 2.531938 1_555
Co0 Zr7 2.539035 1_556
Co0 Zr5 2.539035 1_565
Co0 Zr1 2.590851 1_565
Co0 Zr2 2.590851 1_556
Co0 Zr3 2.590875 1_555
Co0 Zr12 3.135104 1_565
Co0 Zr10 3.135104 1_556
Co0 Zr15 3.150664 1_566
Co1 Zr6 2.531939 1_555
Co1 Zr5 2.539034 1_655
Co1 Zr9 2.539035 1_556
Co1 Zr0 2.590851 1_655
Co1 Zr2 2.590851 1_556
Co1 Zr3 2.590875 1_555
Co1 Zr10 3.135104 1_556
Co1 Zr14 3.135104 1_655
Co1 Zr13 3.150664 1_656
Co2 Zr4 2.531939 1_555
Co2 Zr7 2.539034 1_655
Co2 Zr9 2.539035 1_565
Co2 Zr1 2.590851 1_565
Co2 Zr0 2.590851 1_655
Co2 Zr3 2.590875 1_555
Co2 Zr12 3.135104 1_565
Co2 Zr14 3.135104 1_655
Co2 Zr11 3.150664 1_665
Os0 Os3 2.834786 1_555
Os0 Os2 2.836495 1_555
Os0 Os1 2.836495 1_555
Os0 Zr13 2.914577 1_655
Os0 Zr11 2.914577 1_655
Os0 Zr14 2.915854 1_655
Os0 Zr9 2.972049 1_555
Os0 Zr6 3.002101 1_555
Os0 Zr4 3.002101 1_555
Os0 Zr3 3.053803 1_555
Os0 Zr2 3.068687 1_555
Os0 Zr1 3.068687 1_555
Os1 Os3 2.834786 1_555
Os1 Os2 2.836495 1_555
Os1 Zr11 2.914577 1_565
Os1 Zr15 2.914577 1_565
Os1 Zr12 2.915854 1_565
Os1 Zr7 2.972049 1_555
Os1 Zr4 3.002100 1_555
Os1 Zr8 3.002101 1_555
Os1 Zr3 3.053803 1_555
Os1 Zr0 3.068687 1_555
Os1 Zr2 3.068687 1_555
Os2 Os3 2.834786 1_555
Os2 Zr13 2.914577 1_556
Os2 Zr15 2.914577 1_556
Os2 Zr10 2.915854 1_556
Os2 Zr5 2.972049 1_555
Os2 Zr6 3.002100 1_555
Os2 Zr8 3.002101 1_555
Os2 Zr3 3.053803 1_555
Os2 Zr0 3.068687 1_555
Os2 Zr1 3.068687 1_555
Os3 Zr14 2.915579 1_555
Os3 Zr10 2.915580 1_555
Os3 Zr12 2.915580 1_555
Os3 Zr9 2.977841 1_555
Os3 Zr5 2.977841 1_555
Os3 Zr7 2.977841 1_555
Os3 Zr0 3.072619 1_555
Os3 Zr2 3.072619 1_555
Os3 Zr1 3.072619 1_555
