# generated using pymatgen
data_Ti3Si(BMo)2
_symmetry_space_group_name_H-M   'P 1'
_cell_length_a   7.11345523
_cell_length_b   7.09234509
_cell_length_c   7.09177334
_cell_angle_alpha   129.53864499
_cell_angle_beta   129.69480557
_cell_angle_gamma   73.95084135
_symmetry_Int_Tables_number   1
_chemical_formula_structural   Ti3Si(BMo)2
_chemical_formula_sum   'Ti6 Si2 B4 Mo4'
_cell_volume   207.14376249
_cell_formula_units_Z   2
loop_
 _symmetry_equiv_pos_site_id
 _symmetry_equiv_pos_as_xyz
  1  'x, y, z'
loop_
 _atom_site_type_symbol
 _atom_site_label
 _atom_site_symmetry_multiplicity
 _atom_site_fract_x
 _atom_site_fract_y
 _atom_site_fract_z
 _atom_site_occupancy
  Ti  Ti0  1  0.80768083  0.96300178  0.50072940  1
  Ti  Ti1  1  0.30757814  0.80692554  0.84469542  1
  Ti  Ti2  1  0.19333418  0.03904797  0.50037123  1
  Ti  Ti3  1  0.53680893  0.69140293  0.50043359  1
  Ti  Ti4  1  0.03690713  0.53633682  0.84539507  1
  Ti  Ti5  1  0.69345187  0.19303698  0.15439223  1
  Si  Si0  1  0.74987151  0.74756486  0.99838424  1
  Si  Si1  1  0.24987854  0.25145938  0.00232240  1
  B  B0  1  0.38931320  0.89046058  0.27879797  1
  B  B1  1  0.88927154  0.61054191  0.49886441  1
  B  B2  1  0.61214293  0.11218928  0.72360781  1
  B  B3  1  0.11222011  0.38852253  0.49993472  1
  Mo  Mo0  1  0.00173301  0.00067964  0.99999149  1
  Mo  Mo1  1  0.95905762  0.45919615  0.15120948  1
  Mo  Mo2  1  0.50172689  0.50166846  0.00097481  1
  Mo  Mo3  1  0.45902359  0.30796520  0.49989474  1
loop_
_geom_bond_atom_site_label_1
_geom_bond_atom_site_label_2
_geom_bond_distance
_geom_bond_site_symmetry_2
Si0 Ti3 2.575320 1_555
Si0 Ti4 2.580606 1_655
Si0 Ti1 2.595266 1_555
Si0 Ti0 2.596315 1_556
Si0 Ti5 2.604383 1_566
Si0 Ti2 2.605519 1_666
Si1 Ti4 2.575378 1_554
Si1 Ti3 2.580336 1_555
Si1 Ti0 2.594797 1_444
Si1 Ti1 2.596442 1_544
Si1 Ti2 2.604077 1_554
Si1 Ti5 2.605787 1_555
B0 B2 1.900390 1_565
B0 Mo3 2.319444 1_565
B0 Ti2 2.323958 1_565
B0 Ti0 2.330452 1_555
B0 Ti3 2.337551 1_555
B0 Ti1 2.397577 1_554
B0 Ti4 2.418591 1_554
B0 Mo0 2.436086 1_564
B0 Mo2 2.449716 1_555
B1 B3 1.900992 1_655
B1 Mo1 2.318751 1_555
B1 Ti5 2.323812 1_555
B1 Ti1 2.330098 1_655
B1 Ti4 2.337430 1_655
B1 Ti0 2.398201 1_555
B1 Ti3 2.418198 1_555
B1 Mo2 2.436191 1_555
B1 Mo0 2.449172 1_665
B2 Mo3 2.322172 1_555
B2 Ti0 2.327643 1_545
B2 Ti2 2.331317 1_555
B2 Ti3 2.342143 1_545
B2 Mo1 2.374749 1_556
B2 Ti5 2.385877 1_556
B2 Mo0 2.443471 1_655
B2 Mo2 2.443857 1_556
B3 Mo1 2.321386 1_455
B3 Ti1 2.327514 1_555
B3 Ti5 2.331140 1_455
B3 Ti4 2.341835 1_555
B3 Mo3 2.373548 1_555
B3 Ti2 2.386020 1_555
B3 Mo2 2.443250 1_556
B3 Mo0 2.444061 1_554
Mo0 Mo1 2.692077 1_456
Mo0 Mo3 2.692782 1_556
Mo0 Ti0 2.696145 1_445
Mo0 Ti1 2.704691 1_545
Mo0 Ti2 2.705836 1_556
Mo0 Ti5 2.716678 1_456
Mo0 Ti4 2.721776 1_545
Mo0 Ti3 2.729557 1_445
Mo0 Si1 2.817945 1_556
Mo0 Si0 2.856369 1_445
Mo1 Si0 2.578971 1_554
Mo1 Si1 2.586425 1_655
Mo1 Mo2 2.692294 1_555
Mo1 Ti4 2.919239 1_654
Mo2 Mo3 2.691386 1_554
Mo2 Ti1 2.696174 1_554
Mo2 Ti5 2.705775 1_555
Mo2 Ti0 2.706139 1_555
Mo2 Ti2 2.717028 1_554
Mo2 Ti3 2.721612 1_555
Mo2 Ti4 2.728795 1_554
Mo2 Si0 2.818150 1_554
Mo2 Si1 2.856571 1_555
Mo3 Si1 2.578501 1_555
Mo3 Si0 2.586346 1_555
Mo3 Ti3 2.918525 1_555
