# generated using pymatgen
data_CsSc5Te8
_symmetry_space_group_name_H-M   'P 1'
_cell_length_a   10.97320291
_cell_length_b   10.97320378
_cell_length_c   10.42523790
_cell_angle_alpha   76.07805477
_cell_angle_beta   76.07805365
_cell_angle_gamma   22.02398458
_symmetry_Int_Tables_number   1
_chemical_formula_structural   CsSc5Te8
_chemical_formula_sum   'Cs1 Sc5 Te8'
_cell_volume   456.37652463
_cell_formula_units_Z   1
loop_
 _symmetry_equiv_pos_site_id
 _symmetry_equiv_pos_as_xyz
  1  'x, y, z'
loop_
 _atom_site_type_symbol
 _atom_site_label
 _atom_site_symmetry_multiplicity
 _atom_site_fract_x
 _atom_site_fract_y
 _atom_site_fract_z
 _atom_site_occupancy
  Cs  Cs0  1  0.00000000  0.00000000  0.00000000  1
  Sc  Sc0  1  0.20547375  0.20547375  0.15640233  1
  Sc  Sc1  1  0.50000000  0.50000000  0.50000000  1
  Sc  Sc2  1  0.84320428  0.84320428  0.48010666  1
  Sc  Sc3  1  0.15679572  0.15679572  0.51989334  1
  Sc  Sc4  1  0.79452625  0.79452625  0.84359767  1
  Te  Te0  1  0.92506861  0.92506861  0.66433713  1
  Te  Te1  1  0.07493139  0.07493139  0.33566287  1
  Te  Te2  1  0.58647765  0.58647765  0.67801183  1
  Te  Te3  1  0.41352235  0.41352235  0.32198817  1
  Te  Te4  1  0.66564090  0.66564090  0.00460917  1
  Te  Te5  1  0.33435910  0.33435910  0.99539083  1
  Te  Te6  1  0.73840809  0.73840809  0.34076972  1
  Te  Te7  1  0.26159191  0.26159191  0.65923028  1
loop_
_geom_bond_atom_site_label_1
_geom_bond_atom_site_label_2
_geom_bond_distance
_geom_bond_site_symmetry_2
Cs0 Te3 4.008291 1_455
Cs0 Te2 4.008291 1_544
Cs0 Te3 4.008291 1_545
Cs0 Te2 4.008291 1_454
Cs0 Te4 4.148786 1_545
Cs0 Te5 4.148786 1_454
Cs0 Te4 4.148787 1_455
Cs0 Te5 4.148787 1_544
Cs0 Te1 4.197655 1_555
Cs0 Te0 4.197655 1_444
Sc0 Te5 2.870853 1_554
Sc0 Te4 2.880908 1_455
Sc0 Te4 2.880909 1_545
Sc0 Te1 2.970612 1_555
Sc0 Te6 3.042964 1_545
Sc0 Te6 3.042964 1_455
Sc1 Te1 2.928910 1_655
Sc1 Te0 2.928910 1_455
Sc1 Te1 2.928911 1_565
Sc1 Te0 2.928911 1_545
Sc1 Te2 2.934176 1_555
Sc1 Te3 2.934176 1_555
Sc2 Te3 2.860284 1_655
Sc2 Te3 2.860284 1_565
Sc2 Te0 2.908513 1_555
Sc2 Te6 2.968885 1_555
Sc2 Te7 3.059755 1_565
Sc2 Te7 3.059756 1_655
Sc3 Te2 2.860284 1_455
Sc3 Te2 2.860284 1_545
Sc3 Te1 2.908513 1_555
Sc3 Te7 2.968885 1_555
Sc3 Te6 3.059755 1_545
Sc3 Te6 3.059756 1_455
Sc4 Te4 2.870853 1_556
Sc4 Te5 2.880908 1_655
Sc4 Te5 2.880909 1_565
Sc4 Te0 2.970612 1_555
Sc4 Te7 3.042964 1_565
Sc4 Te7 3.042964 1_655
