# generated using pymatgen
data_Y4Cu2PdRh
_symmetry_space_group_name_H-M   'P 1'
_cell_length_a   4.43118002
_cell_length_b   5.50357260
_cell_length_c   7.12167202
_cell_angle_alpha   90.13462314
_cell_angle_beta   90.00000000
_cell_angle_gamma   90.00000000
_symmetry_Int_Tables_number   1
_chemical_formula_structural   Y4Cu2PdRh
_chemical_formula_sum   'Y4 Cu2 Pd1 Rh1'
_cell_volume   173.67802179
_cell_formula_units_Z   1
loop_
 _symmetry_equiv_pos_site_id
 _symmetry_equiv_pos_as_xyz
  1  'x, y, z'
loop_
 _atom_site_type_symbol
 _atom_site_label
 _atom_site_symmetry_multiplicity
 _atom_site_fract_x
 _atom_site_fract_y
 _atom_site_fract_z
 _atom_site_occupancy
  Y  Y0  1  0.25000000  0.36503401  0.68692765  1
  Y  Y1  1  0.25000000  0.13535743  0.18064599  1
  Y  Y2  1  0.75000000  0.64184926  0.30971578  1
  Y  Y3  1  0.75000000  0.85433544  0.82197567  1
  Cu  Cu0  1  0.75000000  0.13611354  0.46597202  1
  Cu  Cu1  1  0.75000000  0.36230786  0.96236778  1
  Pd  Pd0  1  0.25000000  0.86743727  0.53620634  1
  Rh  Rh0  1  0.25000000  0.63756420  0.03618877  1
loop_
_geom_bond_atom_site_label_1
_geom_bond_atom_site_label_2
_geom_bond_distance
_geom_bond_site_symmetry_2
Cu0 Pd0 2.710903 1_545
Cu0 Pd0 2.710903 1_645
Cu0 Y2 2.936615 1_545
Cu0 Y3 2.975125 1_545
Cu0 Y0 2.993820 1_655
Cu0 Y0 2.993820 1_555
Cu0 Y2 2.999991 1_555
Cu0 Y1 3.006299 1_555
Cu0 Y1 3.006299 1_655
Cu1 Rh0 2.734299 1_656
Cu1 Rh0 2.734299 1_556
Cu1 Y3 2.888797 1_555
Cu1 Y2 2.910019 1_556
Cu1 Y0 2.959232 1_655
Cu1 Y0 2.959232 1_555
Cu1 Y3 2.966859 1_545
Cu1 Y1 2.982373 1_656
Cu1 Y1 2.982373 1_556
Pd0 Y1 2.933207 1_565
Pd0 Y0 2.939057 1_565
Pd0 Y0 2.968401 1_555
Pd0 Y2 3.007090 1_455
Pd0 Y2 3.007090 1_555
Pd0 Y3 3.009416 1_555
Pd0 Y3 3.009416 1_455
Rh0 Y0 2.901537 1_554
Rh0 Y1 2.924170 1_565
Rh0 Y3 2.944147 1_554
Rh0 Y3 2.944147 1_454
Rh0 Y2 2.950214 1_455
Rh0 Y2 2.950214 1_555
Rh0 Y1 2.951451 1_555
