# generated using pymatgen
data_Zr13Nb3(Ir2N)4
_symmetry_space_group_name_H-M   'P 1'
_cell_length_a   8.75746026
_cell_length_b   8.69101747
_cell_length_c   8.75745392
_cell_angle_alpha   59.74677612
_cell_angle_beta   59.99997589
_cell_angle_gamma   59.74679872
_symmetry_Int_Tables_number   1
_chemical_formula_structural   Zr13Nb3(Ir2N)4
_chemical_formula_sum   'Zr13 Nb3 Ir8 N4'
_cell_volume   469.50341749
_cell_formula_units_Z   1
loop_
 _symmetry_equiv_pos_site_id
 _symmetry_equiv_pos_as_xyz
  1  'x, y, z'
loop_
 _atom_site_type_symbol
 _atom_site_label
 _atom_site_symmetry_multiplicity
 _atom_site_fract_x
 _atom_site_fract_y
 _atom_site_fract_z
 _atom_site_occupancy
  Zr  Zr0  1  0.62500000  0.12500000  0.62500000  1
  Zr  Zr1  1  0.81353025  0.81347384  0.18649796  1
  Zr  Zr2  1  0.18450056  0.18537581  0.81506132  1
  Zr  Zr3  1  0.81506132  0.18537581  0.81506132  1
  Zr  Zr4  1  0.18649796  0.81347384  0.18649796  1
  Zr  Zr5  1  0.18649796  0.81347384  0.81353025  1
  Zr  Zr6  1  0.81506132  0.18537481  0.18450256  1
  Zr  Zr7  1  0.43646975  0.43652616  0.06350204  1
  Zr  Zr8  1  0.06549944  0.06462419  0.43493868  1
  Zr  Zr9  1  0.43493868  0.06462419  0.43493868  1
  Zr  Zr10  1  0.06350204  0.43652616  0.06350204  1
  Zr  Zr11  1  0.06350204  0.43652616  0.43646975  1
  Zr  Zr12  1  0.43493868  0.06462519  0.06549744  1
  Nb  Nb0  1  0.12500000  0.62500000  0.62500000  1
  Nb  Nb1  1  0.62500000  0.62500000  0.12500000  1
  Nb  Nb2  1  0.62500000  0.62500000  0.62500000  1
  Ir  Ir0  1  0.76646700  0.41859108  0.40747196  1
  Ir  Ir1  1  0.41466935  0.75599095  0.41467035  1
  Ir  Ir2  1  0.40747096  0.41859208  0.76646600  1
  Ir  Ir3  1  0.40746996  0.41859108  0.40747196  1
  Ir  Ir4  1  0.48353300  0.83140892  0.84252804  1
  Ir  Ir5  1  0.83533065  0.49400905  0.83532965  1
  Ir  Ir6  1  0.84252904  0.83140792  0.48353400  1
  Ir  Ir7  1  0.84253004  0.83140892  0.84252804  1
  N  N0  1  0.62500000  0.12500000  0.12500000  1
  N  N1  1  0.12500000  0.62500000  0.12500000  1
  N  N2  1  0.12500000  0.12500000  0.62500000  1
  N  N3  1  0.12500000  0.12500000  0.12500000  1
loop_
_geom_bond_atom_site_label_1
_geom_bond_atom_site_label_2
_geom_bond_distance
_geom_bond_site_symmetry_2
Ir0 Nb2 2.688106 1_555
Ir0 Nb1 2.688120 1_555
Ir0 Zr0 2.757142 1_555
Ir0 Zr11 2.822135 1_655
Ir0 Zr10 2.822143 1_655
Ir0 Zr8 2.854140 1_655
Ir0 Zr1 3.102979 1_555
Ir0 Zr3 3.223352 1_555
Ir0 Zr6 3.223369 1_555
Ir1 Nb0 2.692300 1_555
Ir1 Nb2 2.692301 1_555
Ir1 Nb1 2.692307 1_555
Ir1 Zr8 2.872100 1_565
Ir1 Zr9 2.872104 1_565
Ir1 Zr12 2.872116 1_565
Ir2 Nb2 2.688109 1_555
Ir2 Nb0 2.688109 1_555
Ir2 Zr0 2.757145 1_555
Ir2 Zr7 2.822142 1_556
Ir2 Zr10 2.822142 1_556
Ir2 Zr12 2.854134 1_556
Ir2 Zr5 3.102976 1_555
Ir2 Zr3 3.223366 1_555
Ir2 Zr2 3.223373 1_555
Ir3 Nb0 2.688106 1_555
Ir3 Nb1 2.688120 1_555
Ir3 Zr0 2.757143 1_555
Ir3 Zr11 2.822135 1_555
Ir3 Zr7 2.822143 1_555
Ir3 Zr9 2.854135 1_555
Ir3 Zr4 3.102980 1_555
Ir3 Zr2 3.223355 1_555
Ir3 Zr6 3.223369 1_555
Ir4 Nb2 2.688106 1_555
Ir4 Nb1 2.688120 1_556
Ir4 Zr0 2.757142 1_565
Ir4 Zr5 2.822135 1_555
Ir4 Zr4 2.822143 1_556
Ir4 Zr2 2.854140 1_565
Ir4 Zr7 3.102979 1_556
Ir4 Zr9 3.223352 1_565
Ir4 Zr12 3.223369 1_566
Ir5 Nb0 2.692300 1_655
Ir5 Nb2 2.692301 1_555
Ir5 Nb1 2.692307 1_556
Ir5 Zr2 2.872100 1_655
Ir5 Zr3 2.872104 1_555
Ir5 Zr6 2.872116 1_556
Ir6 Nb2 2.688109 1_555
Ir6 Nb0 2.688109 1_655
Ir6 Zr0 2.757145 1_565
Ir6 Zr1 2.822142 1_555
Ir6 Zr4 2.822142 1_655
Ir6 Zr6 2.854134 1_565
Ir6 Zr11 3.102976 1_655
Ir6 Zr9 3.223366 1_565
Ir6 Zr8 3.223373 1_665
Ir7 Nb0 2.688106 1_655
Ir7 Nb1 2.688120 1_556
Ir7 Zr0 2.757143 1_565
Ir7 Zr5 2.822135 1_655
Ir7 Zr1 2.822143 1_556
Ir7 Zr3 2.854135 1_565
Ir7 Zr10 3.102980 1_656
Ir7 Zr8 3.223355 1_665
Ir7 Zr12 3.223369 1_566
N0 Zr1 2.293905 1_545
N0 Zr7 2.293905 1_555
N0 Zr9 2.310879 1_555
N0 Zr3 2.310879 1_554
N0 Zr6 2.310881 1_555
N0 Zr12 2.310881 1_555
N1 Zr11 2.308929 1_555
N1 Zr5 2.308929 1_554
N1 Zr4 2.308931 1_555
N1 Zr10 2.308931 1_555
N1 Zr7 2.308931 1_555
N1 Zr1 2.308931 1_455
N2 Zr5 2.293904 1_545
N2 Zr11 2.293904 1_555
N2 Zr2 2.310874 1_555
N2 Zr8 2.310874 1_555
N2 Zr9 2.310880 1_555
N2 Zr3 2.310880 1_455
N3 Zr10 2.293905 1_555
N3 Zr4 2.293905 1_545
N3 Zr8 2.310881 1_555
N3 Zr2 2.310881 1_554
N3 Zr12 2.310881 1_555
N3 Zr6 2.310881 1_455
