# generated using pymatgen
data_Hf4Ta2Al16Rh7
_symmetry_space_group_name_H-M   'P 1'
_cell_length_a   8.56700834
_cell_length_b   8.59923331
_cell_length_c   8.59923506
_cell_angle_alpha   59.75222181
_cell_angle_beta   60.12388754
_cell_angle_gamma   60.12388569
_symmetry_Int_Tables_number   1
_chemical_formula_structural   Hf4Ta2Al16Rh7
_chemical_formula_sum   'Hf4 Ta2 Al16 Rh7'
_cell_volume   447.94178466
_cell_formula_units_Z   1
loop_
 _symmetry_equiv_pos_site_id
 _symmetry_equiv_pos_as_xyz
  1  'x, y, z'
loop_
 _atom_site_type_symbol
 _atom_site_label
 _atom_site_symmetry_multiplicity
 _atom_site_fract_x
 _atom_site_fract_y
 _atom_site_fract_z
 _atom_site_occupancy
  Hf  Hf0  1  0.31665409  0.68334491  0.31665409  1
  Hf  Hf1  1  0.31665409  0.31665409  0.68334491  1
  Hf  Hf2  1  0.68334491  0.31665409  0.68334491  1
  Hf  Hf3  1  0.68334491  0.68334491  0.31665409  1
  Ta  Ta0  1  0.67829232  0.32170668  0.32170668  1
  Ta  Ta1  1  0.32170668  0.67829232  0.67829232  1
  Al  Al0  1  0.33966620  0.33670626  0.33670626  1
  Al  Al1  1  0.33670626  0.33966620  0.98691928  1
  Al  Al2  1  0.98691928  0.33670626  0.33670626  1
  Al  Al3  1  0.33670626  0.98691928  0.33966620  1
  Al  Al4  1  0.66033380  0.66329374  0.66329374  1
  Al  Al5  1  0.66329374  0.66033380  0.01308072  1
  Al  Al6  1  0.66329374  0.01308072  0.66033380  1
  Al  Al7  1  0.01308072  0.66329374  0.66329374  1
  Al  Al8  1  0.11734616  0.12073409  0.12073409  1
  Al  Al9  1  0.12073409  0.11734616  0.64118565  1
  Al  Al10  1  0.64118565  0.12073409  0.12073409  1
  Al  Al11  1  0.12073409  0.64118565  0.11734616  1
  Al  Al12  1  0.88265284  0.87926491  0.87926491  1
  Al  Al13  1  0.87926491  0.88265284  0.35881735  1
  Al  Al14  1  0.87926491  0.35881735  0.88265284  1
  Al  Al15  1  0.35881735  0.87926491  0.87926491  1
  Rh  Rh0  1  0.00000000  0.00000000  0.00000000  1
  Rh  Rh1  1  0.50000000  0.00000000  0.00000000  1
  Rh  Rh2  1  0.00000000  0.50000000  0.50000000  1
  Rh  Rh3  1  0.00000000  0.50000000  0.00000000  1
  Rh  Rh4  1  0.00000000  0.00000000  0.50000000  1
  Rh  Rh5  1  0.50000000  0.00000000  0.50000000  1
  Rh  Rh6  1  0.50000000  0.50000000  0.00000000  1
loop_
_geom_bond_atom_site_label_1
_geom_bond_atom_site_label_2
_geom_bond_distance
_geom_bond_site_symmetry_2
Hf0 Ta0 3.109790 1_555
Hf0 Ta1 3.109791 1_555
Hf0 Rh2 3.134694 1_555
Hf0 Rh1 3.134706 1_565
Hf0 Hf3 3.141443 1_555
Hf0 Hf1 3.141443 1_555
Hf0 Rh6 3.156677 1_555
Hf0 Rh4 3.156688 1_565
Hf1 Ta1 3.109790 1_555
Hf1 Ta0 3.109790 1_555
Hf1 Rh2 3.134695 1_555
Hf1 Rh1 3.134706 1_556
Hf1 Hf2 3.141443 1_555
Hf1 Rh5 3.156676 1_555
Hf1 Rh3 3.156688 1_556
Hf2 Ta1 3.109790 1_555
Hf2 Ta0 3.109791 1_555
Hf2 Rh1 3.134697 1_556
Hf2 Rh2 3.134709 1_655
Hf2 Hf3 3.141443 1_555
Hf2 Rh4 3.156679 1_655
Hf2 Rh6 3.156692 1_556
Hf3 Ta0 3.109790 1_555
Hf3 Ta1 3.109790 1_555
Hf3 Rh1 3.134698 1_565
Hf3 Rh2 3.134709 1_655
Hf3 Rh3 3.156680 1_655
Hf3 Rh5 3.156691 1_565
Al0 Rh5 2.470860 1_555
Al0 Rh6 2.470860 1_555
Al0 Rh2 2.501227 1_555
Al0 Al10 2.736252 1_555
Al0 Al11 2.754616 1_555
Al0 Al9 2.754616 1_555
Al0 Ta0 2.778550 1_555
Al0 Hf0 2.807936 1_555
Al0 Hf1 2.807936 1_555
Al0 Al3 3.007817 1_545
Al0 Al1 3.007818 1_554
Al0 Al2 3.021986 1_455
Al1 Rh3 2.470855 1_556
Al1 Rh6 2.470870 1_556
Al1 Rh1 2.501222 1_556
Al1 Al11 2.736261 1_556
Al1 Al8 2.754611 1_556
Al1 Al10 2.754625 1_556
Al1 Ta1 2.778550 1_555
Al1 Hf2 2.807936 1_555
Al1 Hf1 2.807936 1_555
Al1 Al2 3.007817 1_456
Al1 Al3 3.021986 1_546
Al2 Rh4 2.470855 1_655
Al2 Rh3 2.470856 1_655
Al2 Rh2 2.501237 1_655
Al2 Al8 2.736247 1_655
Al2 Al9 2.754625 1_655
Al2 Ta0 2.778550 1_555
Al2 Hf3 2.807936 1_555
Al2 Hf2 2.807936 1_555
Al2 Al3 3.007817 1_645
Al3 Rh4 2.470855 1_565
Al3 Rh5 2.470871 1_565
Al3 Rh1 2.501223 1_565
Al3 Al9 2.736261 1_565
Al3 Al8 2.754611 1_565
Al3 Ta1 2.778550 1_555
Al3 Hf3 2.807936 1_555
Al3 Hf0 2.807936 1_555
Al4 Rh5 2.470860 1_565
Al4 Rh6 2.470860 1_556
Al4 Rh2 2.501227 1_655
Al4 Ta1 2.778567 1_555
Al4 Hf2 2.807952 1_555
Al4 Hf3 2.807952 1_555
Al4 Al6 3.007817 1_565
Al4 Al5 3.007818 1_556
Al4 Al7 3.021986 1_655
Al5 Rh3 2.470855 1_655
Al5 Rh6 2.470870 1_555
Al5 Rh1 2.501222 1_565
Al5 Ta0 2.778551 1_555
Al5 Hf3 2.807918 1_555
Al5 Hf0 2.807937 1_555
Al5 Al7 3.007817 1_654
Al5 Al6 3.021986 1_564
Al6 Rh4 2.470855 1_655
Al6 Rh5 2.470871 1_555
Al6 Rh1 2.501223 1_556
Al6 Ta0 2.778551 1_555
Al6 Hf2 2.807917 1_555
Al6 Hf1 2.807936 1_555
Al6 Al7 3.007817 1_645
Al7 Rh4 2.470855 1_565
Al7 Rh3 2.470856 1_556
Al7 Rh2 2.501237 1_555
Al7 Ta1 2.778532 1_555
Al7 Hf1 2.807937 1_555
Al7 Hf0 2.807937 1_555
Al8 Rh0 2.516356 1_555
Al8 Rh3 2.662193 1_555
Al8 Rh4 2.662193 1_555
Al8 Rh1 2.684563 1_555
Al8 Hf0 3.159787 1_545
Al8 Hf1 3.159787 1_554
Al8 Ta0 3.190338 1_455
Al9 Rh0 2.516356 1_556
Al9 Rh5 2.662193 1_555
Al9 Rh4 2.662193 1_555
Al9 Rh2 2.684563 1_555
Al9 Hf1 3.159776 1_555
Al9 Hf2 3.159790 1_455
Al9 Ta1 3.190342 1_545
Al10 Rh0 2.516355 1_655
Al10 Rh6 2.662193 1_555
Al10 Rh5 2.662193 1_555
Al10 Rh1 2.684563 1_555
Al10 Al3 2.754625 1_545
Al10 Al14 2.884492 1_554
Al10 Al13 2.884493 1_545
Al10 Al12 2.947507 1_544
Al10 Hf3 3.159790 1_545
Al10 Hf2 3.159791 1_554
Al10 Ta0 3.190327 1_555
Al11 Rh0 2.516355 1_565
Al11 Rh6 2.662193 1_555
Al11 Rh3 2.662193 1_555
Al11 Rh2 2.684563 1_555
Al11 Al2 2.754625 1_455
Al11 Al15 2.884492 1_554
Al11 Al12 2.884493 1_454
Al11 Al13 2.947507 1_455
Al11 Hf0 3.159776 1_555
Al11 Hf3 3.159791 1_455
Al11 Ta1 3.190342 1_554
Al12 Rh0 2.516377 1_666
Al12 Rh3 2.662185 1_656
Al12 Rh4 2.662186 1_665
Al12 Rh1 2.684555 1_566
Al12 Al7 2.736231 1_655
Al12 Al5 2.754595 1_556
Al12 Al6 2.754595 1_565
Al12 Al9 2.884492 1_665
Al12 Hf2 3.159787 1_565
Al12 Hf3 3.159787 1_556
Al12 Ta1 3.190338 1_655
Al13 Rh0 2.516377 1_665
Al13 Rh5 2.662185 1_565
Al13 Rh4 2.662185 1_665
Al13 Rh2 2.684555 1_655
Al13 Al6 2.736245 1_565
Al13 Al4 2.754599 1_555
Al13 Al7 2.754609 1_655
Al13 Al8 2.884492 1_665
Al13 Hf0 3.159783 1_655
Al13 Hf3 3.159798 1_555
Al13 Ta0 3.190334 1_565
Al14 Rh0 2.516376 1_656
Al14 Rh6 2.662185 1_556
Al14 Rh3 2.662185 1_656
Al14 Rh2 2.684556 1_655
Al14 Al5 2.736245 1_556
Al14 Al4 2.754599 1_555
Al14 Al7 2.754609 1_655
Al14 Al8 2.884493 1_656
Al14 Al9 2.947507 1_655
Al14 Hf1 3.159784 1_655
Al14 Hf2 3.159799 1_555
Al14 Ta0 3.190334 1_556
Al15 Rh0 2.516376 1_566
Al15 Rh6 2.662185 1_556
Al15 Rh5 2.662185 1_565
Al15 Rh1 2.684555 1_566
Al15 Al4 2.736235 1_555
Al15 Al6 2.754609 1_565
Al15 Al5 2.754609 1_556
Al15 Al9 2.884493 1_565
Al15 Al8 2.947507 1_566
Al15 Hf1 3.159783 1_565
Al15 Hf0 3.159784 1_556
Al15 Ta1 3.190349 1_555
Rh3 Ta1 3.152828 1_554
Rh3 Ta0 3.152836 1_455
Rh4 Ta1 3.152828 1_545
Rh4 Ta0 3.152836 1_455
Rh5 Ta0 3.152824 1_555
Rh5 Ta1 3.152839 1_545
Rh6 Ta0 3.152825 1_555
Rh6 Ta1 3.152840 1_554
