# generated using pymatgen
data_Zn21Co2CuPd2
_symmetry_space_group_name_H-M   'P 1'
_cell_length_a   7.70578968
_cell_length_b   7.70579024
_cell_length_c   7.74982905
_cell_angle_alpha   109.53091676
_cell_angle_beta   109.53092100
_cell_angle_gamma   109.12000600
_symmetry_Int_Tables_number   1
_chemical_formula_structural   Zn21Co2CuPd2
_chemical_formula_sum   'Zn21 Co2 Cu1 Pd2'
_cell_volume   355.25097950
_cell_formula_units_Z   1
loop_
 _symmetry_equiv_pos_site_id
 _symmetry_equiv_pos_as_xyz
  1  'x, y, z'
loop_
 _atom_site_type_symbol
 _atom_site_label
 _atom_site_symmetry_multiplicity
 _atom_site_fract_x
 _atom_site_fract_y
 _atom_site_fract_z
 _atom_site_occupancy
  Zn  Zn0  1  0.99550131  0.63855379  0.64425999  1
  Zn  Zn1  1  0.35124233  0.99429480  0.35574001  1
  Zn  Zn2  1  0.99429480  0.35124233  0.35574001  1
  Zn  Zn3  1  0.63855379  0.99550131  0.64425999  1
  Zn  Zn4  1  0.63738889  0.63738889  1.00000000  1
  Zn  Zn5  1  0.19982246  0.19982246  0.20337592  1
  Zn  Zn6  1  0.99644554  0.99644554  0.79662408  1
  Zn  Zn7  1  0.99160337  0.77430715  0.00000000  1
  Zn  Zn8  1  0.77430715  0.99160337  0.00000000  1
  Zn  Zn9  1  0.37510434  0.72485072  0.71267958  1
  Zn  Zn10  1  0.66242576  0.01217214  0.28732042  1
  Zn  Zn11  1  0.64628196  0.28169574  1.00000000  1
  Zn  Zn12  1  0.01217214  0.66242576  0.28732042  1
  Zn  Zn13  1  0.72485072  0.37510434  0.71267958  1
  Zn  Zn14  1  0.28169574  0.64628196  0.00000000  1
  Zn  Zn15  1  0.01891730  0.25783900  0.65274549  1
  Zn  Zn16  1  0.25783900  0.01891730  0.65274549  1
  Zn  Zn17  1  0.74925755  0.74925755  0.39389026  1
  Zn  Zn18  1  0.60509451  0.36617181  0.34725451  1
  Zn  Zn19  1  0.36617181  0.60509451  0.34725451  1
  Zn  Zn20  1  0.35536729  0.35536729  0.60610974  1
  Co  Co0  1  0.00064194  0.00064194  0.33847824  1
  Co  Co1  1  0.66216270  0.66216270  0.66152176  1
  Cu  Cu0  1  0.35461848  0.35461848  0.00000000  1
  Pd  Pd0  1  0.35257200  0.99566811  0.00000000  1
  Pd  Pd1  1  0.99566811  0.35257200  0.00000000  1
loop_
_geom_bond_atom_site_label_1
_geom_bond_atom_site_label_2
_geom_bond_distance
_geom_bond_site_symmetry_2
Zn0 Zn2 2.562023 1_555
Zn0 Zn9 2.594746 1_655
Zn0 Zn18 2.599452 1_555
Zn0 Zn6 2.608401 1_555
Zn0 Zn7 2.616002 1_556
Zn0 Zn13 2.727191 1_555
Zn0 Zn17 2.792571 1_555
Zn0 Zn14 2.864730 1_656
Zn0 Zn12 2.874834 1_655
Zn0 Zn16 2.929570 1_665
Zn0 Zn15 3.018504 1_655
Zn1 Zn3 2.562023 1_555
Zn1 Zn10 2.594746 1_565
Zn1 Zn16 2.599462 1_565
Zn1 Zn5 2.608401 1_565
Zn1 Zn7 2.616005 1_455
Zn1 Zn12 2.727191 1_555
Zn1 Zn20 2.792570 1_565
Zn1 Zn14 2.864732 1_555
Zn1 Zn13 2.874823 1_565
Zn1 Zn18 2.929564 1_565
Zn1 Zn19 3.018501 1_555
Zn2 Zn5 2.608401 1_655
Zn2 Zn8 2.616005 1_545
Zn2 Zn20 2.792569 1_655
Zn2 Zn9 2.874823 1_655
Zn3 Zn6 2.608401 1_555
Zn3 Zn8 2.616002 1_556
Zn3 Zn9 2.727191 1_555
Zn4 Zn7 2.583950 1_556
Zn4 Zn8 2.583950 1_556
Zn4 Zn9 2.895496 1_555
Zn5 Zn6 2.575578 1_444
Zn5 Zn8 2.686468 1_445
Zn5 Zn7 2.686468 1_445
Zn6 Zn8 2.686462 1_556
Zn6 Zn7 2.686462 1_556
Zn7 Zn8 2.728409 1_555
Zn8 Zn9 2.619859 1_554
Zn10 Zn8 2.619853 1_545
Zn10 Zn17 2.621387 1_545
Zn10 Zn15 2.637628 1_655
Zn10 Zn2 2.727191 1_555
Zn10 Zn14 2.744149 1_545
Zn10 Zn18 2.816302 1_555
Zn10 Zn3 2.874834 1_545
Zn10 Zn4 2.895498 1_544
Zn11 Zn18 2.702211 1_556
Zn11 Zn16 2.702215 1_555
Zn11 Zn8 2.723032 1_546
Zn11 Zn13 2.744142 1_555
Zn11 Zn12 2.744149 1_656
Zn11 Zn4 2.764101 1_555
Zn11 Zn3 2.864731 1_545
Zn11 Zn2 2.864731 1_556
Zn12 Zn2 2.594746 1_455
Zn12 Zn7 2.619853 1_455
Zn12 Zn17 2.621387 1_455
Zn12 Zn16 2.637628 1_565
Zn12 Zn19 2.816302 1_555
Zn12 Zn4 2.895498 1_454
Zn13 Zn3 2.594746 1_545
Zn13 Zn7 2.619859 1_556
Zn13 Zn20 2.621383 1_555
Zn13 Zn18 2.637632 1_555
Zn13 Zn15 2.816309 1_655
Zn13 Zn4 2.895496 1_555
Zn14 Zn19 2.702211 1_555
Zn14 Zn15 2.702215 1_554
Zn14 Zn7 2.723032 1_455
Zn14 Zn9 2.744142 1_554
Zn14 Zn4 2.764101 1_554
Zn15 Zn6 2.594761 1_445
Zn15 Zn2 2.599462 1_455
Zn15 Zn20 2.636056 1_555
Zn15 Zn3 2.929570 1_445
Zn15 Zn16 2.999942 1_555
Zn16 Zn6 2.594761 1_445
Zn16 Zn20 2.636056 1_555
Zn16 Zn9 2.816309 1_545
Zn16 Zn3 3.018504 1_545
Zn17 Zn6 2.582801 1_555
Zn17 Zn4 2.607440 1_554
Zn17 Zn19 2.636055 1_555
Zn17 Zn18 2.636056 1_555
Zn17 Zn3 2.792571 1_555
Zn18 Zn5 2.594761 1_555
Zn18 Zn19 2.999954 1_555
Zn18 Zn2 3.018501 1_555
Zn19 Zn5 2.594761 1_555
Zn19 Zn3 2.599452 1_555
Zn19 Zn9 2.637632 1_555
Zn19 Zn2 2.929564 1_455
Zn20 Zn5 2.582803 1_555
Zn20 Zn4 2.607440 1_555
Zn20 Zn9 2.621383 1_555
Co0 Zn16 2.497979 1_555
Co0 Zn15 2.497979 1_555
Co0 Zn17 2.518625 1_445
Co0 Zn5 2.532488 1_555
Co0 Zn10 2.538079 1_455
Co0 Zn12 2.538079 1_545
Co0 Zn8 2.582030 1_445
Co0 Zn7 2.582030 1_445
Co0 Zn20 2.601747 1_555
Co0 Zn1 2.677405 1_545
Co0 Zn2 2.677406 1_455
Co0 Zn4 2.756738 1_444
Co1 Zn19 2.497982 1_555
Co1 Zn18 2.497982 1_555
Co1 Zn20 2.518616 1_555
Co1 Zn6 2.532488 1_555
Co1 Zn9 2.538079 1_555
Co1 Zn13 2.538079 1_555
Co1 Zn7 2.582031 1_556
Co1 Zn8 2.582031 1_556
Co1 Zn17 2.601754 1_555
Co1 Zn0 2.677405 1_555
Co1 Zn3 2.677406 1_555
Co1 Zn4 2.756732 1_555
Cu0 Zn11 2.488845 1_554
Cu0 Zn14 2.488845 1_555
Cu0 Zn4 2.526951 1_554
Cu0 Zn5 2.629044 1_555
Cu0 Zn6 2.629051 1_444
Cu0 Zn15 2.688831 1_554
Cu0 Zn16 2.688831 1_554
Cu0 Zn18 2.688834 1_555
Cu0 Zn19 2.688834 1_555
Cu0 Pd1 2.760871 1_455
Cu0 Pd0 2.760871 1_545
Cu0 Zn17 3.056445 1_555
Cu0 Zn20 3.056445 1_554
Pd0 Zn14 2.565830 1_555
Pd0 Zn11 2.590834 1_564
Pd0 Zn9 2.594639 1_554
Pd0 Zn10 2.594640 1_565
Pd0 Zn16 2.627135 1_564
Pd0 Zn18 2.627136 1_565
Pd0 Zn5 2.672098 1_565
Pd0 Zn6 2.672100 1_454
Pd0 Zn7 2.745620 1_455
Pd0 Zn1 2.763905 1_555
Pd0 Zn0 2.763910 1_454
Pd1 Zn11 2.565830 1_554
Pd1 Zn14 2.590834 1_655
Pd1 Zn13 2.594639 1_554
Pd1 Zn12 2.594640 1_655
Pd1 Zn15 2.627135 1_654
Pd1 Zn19 2.627135 1_655
Pd1 Zn5 2.672098 1_655
Pd1 Zn6 2.672101 1_544
Pd1 Zn8 2.745620 1_545
Pd1 Zn2 2.763905 1_555
Pd1 Zn3 2.763910 1_544
