# generated using pymatgen
data_Ti3CSe
_symmetry_space_group_name_H-M   'P 1'
_cell_length_a   5.52948425
_cell_length_b   5.52948476
_cell_length_c   8.04736585
_cell_angle_alpha   90.00000000
_cell_angle_beta   90.00000000
_cell_angle_gamma   145.82574211
_symmetry_Int_Tables_number   1
_chemical_formula_structural   Ti3CSe
_chemical_formula_sum   'Ti6 C2 Se2'
_cell_volume   138.20906431
_cell_formula_units_Z   2
loop_
 _symmetry_equiv_pos_site_id
 _symmetry_equiv_pos_as_xyz
  1  'x, y, z'
loop_
 _atom_site_type_symbol
 _atom_site_label
 _atom_site_symmetry_multiplicity
 _atom_site_fract_x
 _atom_site_fract_y
 _atom_site_fract_z
 _atom_site_occupancy
  Ti  Ti0  1  0.87276264  0.12723436  0.05436105  1
  Ti  Ti1  1  0.55483044  0.44516656  0.25000000  1
  Ti  Ti2  1  0.87276264  0.12723436  0.44563895  1
  Ti  Ti3  1  0.12723436  0.87276264  0.55436105  1
  Ti  Ti4  1  0.44516656  0.55483044  0.75000000  1
  Ti  Ti5  1  0.12723436  0.87276264  0.94563895  1
  C  C0  1  0.49999900  0.49999900  0.00000000  1
  C  C1  1  0.49999900  0.49999900  0.50000000  1
  Se  Se0  1  0.24245515  0.75754285  0.25000000  1
  Se  Se1  1  0.75754285  0.24245515  0.75000000  1
loop_
_geom_bond_atom_site_label_1
_geom_bond_atom_site_label_2
_geom_bond_distance
_geom_bond_site_symmetry_2
C0 Ti4 2.093672 1_554
C0 Ti1 2.093672 1_555
C0 Ti5 2.154071 1_654
C0 Ti0 2.154071 1_565
C0 Ti0 2.154073 1_455
C0 Ti5 2.154074 1_544
C1 Ti4 2.093672 1_555
C1 Ti1 2.093672 1_555
C1 Ti3 2.154071 1_655
C1 Ti2 2.154071 1_565
C1 Ti2 2.154073 1_455
C1 Ti3 2.154074 1_545
Se0 Ti1 2.563845 1_565
Se0 Ti1 2.563846 1_455
Se0 Ti0 2.648721 1_565
Se0 Ti2 2.648721 1_565
Se0 Ti0 2.648724 1_455
Se0 Ti2 2.648724 1_455
Se0 Ti5 2.735425 1_554
Se0 Ti3 2.735425 1_555
Se1 Ti4 2.563844 1_655
Se1 Ti4 2.563847 1_545
Se1 Ti3 2.648722 1_655
Se1 Ti5 2.648722 1_655
Se1 Ti3 2.648723 1_545
Se1 Ti5 2.648723 1_545
Se1 Ti2 2.735425 1_555
Se1 Ti0 2.735425 1_556
