# generated using pymatgen
data_Cs11Rb(P4W)2
_symmetry_space_group_name_H-M   'P 1'
_cell_length_a   10.76425763
_cell_length_b   10.67525784
_cell_length_c   8.79510323
_cell_angle_alpha   90.00000133
_cell_angle_beta   89.73771770
_cell_angle_gamma   119.72686461
_symmetry_Int_Tables_number   1
_chemical_formula_structural   Cs11Rb(P4W)2
_chemical_formula_sum   'Cs11 Rb1 P8 W2'
_cell_volume   877.64065737
_cell_formula_units_Z   1
loop_
 _symmetry_equiv_pos_site_id
 _symmetry_equiv_pos_as_xyz
  1  'x, y, z'
loop_
 _atom_site_type_symbol
 _atom_site_label
 _atom_site_symmetry_multiplicity
 _atom_site_fract_x
 _atom_site_fract_y
 _atom_site_fract_z
 _atom_site_occupancy
  Cs  Cs0  1  0.14581177  0.29095141  0.28760270  1
  Cs  Cs1  1  0.85382158  0.14517928  0.78707738  1
  Cs  Cs2  1  0.53692852  0.46219604  0.10249995  1
  Cs  Cs3  1  0.07290290  0.53645195  0.60132973  1
  Cs  Cs4  1  0.46240578  0.92365153  0.59981559  1
  Cs  Cs5  1  0.53692852  0.07473248  0.10249995  1
  Cs  Cs6  1  0.92581487  0.46290743  0.10200558  1
  Cs  Cs7  1  0.46240578  0.53875425  0.59981559  1
  Cs  Cs8  1  0.14581177  0.85486336  0.28760270  1
  Cs  Cs9  1  0.70549875  0.85275088  0.28602707  1
  Cs  Cs10  1  0.85382158  0.70864031  0.78707738  1
  Rb  Rb0  1  0.30732791  0.15366295  0.78324206  1
  P  P0  1  0.78356443  0.56980039  0.41663915  1
  P  P1  1  0.42847858  0.21423929  0.41979201  1
  P  P2  1  0.33192872  0.66596436  0.26062664  1
  P  P3  1  0.66726311  0.33363105  0.76421532  1
  P  P4  1  0.78356443  0.21376404  0.41663915  1
  P  P5  1  0.21532493  0.78779309  0.91492404  1
  P  P6  1  0.21532493  0.42753084  0.91492404  1
  P  P7  1  0.56810885  0.78405392  0.91638227  1
  W  W0  1  0.66499714  0.33249857  0.50133529  1
  W  W1  1  0.33196416  0.66598258  0.99772139  1
loop_
_geom_bond_atom_site_label_1
_geom_bond_atom_site_label_2
_geom_bond_distance
_geom_bond_site_symmetry_2
Cs0 P2 3.484024 1_555
Cs0 P6 3.510688 1_554
Cs0 P1 3.712660 1_555
Cs0 P4 3.734259 1_455
Cs1 P3 3.482906 1_555
Cs1 P4 3.506355 1_555
Cs1 P7 3.717994 1_545
Cs1 P6 3.728250 1_655
Cs2 P0 3.611653 1_555
Cs2 P1 3.614222 1_555
Cs2 P7 3.667286 1_554
Cs2 P6 3.691157 1_554
Cs2 P3 3.817776 1_554
Cs2 P2 4.033328 1_555
Cs3 P5 3.621585 1_555
Cs3 P6 3.621596 1_555
Cs3 P0 3.689370 1_455
Cs3 P4 3.689375 1_455
Cs3 P2 3.842560 1_555
Cs3 P3 4.046321 1_455
Cs4 P5 3.600684 1_555
Cs4 P7 3.602501 1_555
Cs4 P1 3.659526 1_565
Cs4 P4 3.670036 1_565
Cs4 P2 3.827027 1_555
Cs4 P3 4.070153 1_565
Cs5 P4 3.611653 1_555
Cs5 P1 3.614222 1_555
Cs5 P7 3.667295 1_544
Cs5 P5 3.691161 1_544
Cs5 P3 3.817770 1_554
Cs5 P2 4.033328 1_545
Cs6 P0 3.605330 1_555
Cs6 P4 3.605330 1_555
Cs6 P5 3.698901 1_654
Cs6 P6 3.698906 1_654
Cs6 P3 3.839680 1_554
Cs6 P2 4.051344 1_655
Cs7 P6 3.600683 1_555
Cs7 P7 3.602495 1_555
Cs7 P1 3.659526 1_555
Cs7 P0 3.670036 1_555
Cs7 P2 3.827027 1_555
Cs7 P3 4.070162 1_555
Cs8 P2 3.484052 1_555
Cs8 P5 3.510701 1_554
Cs8 P1 3.712640 1_565
Cs8 P0 3.734269 1_455
Cs9 P2 3.500324 1_555
Cs9 P7 3.501828 1_554
Cs9 P4 3.698036 1_565
Cs9 P0 3.698065 1_555
Cs10 P3 3.482897 1_555
Cs10 P0 3.506348 1_555
Cs10 P7 3.718000 1_555
Cs10 P5 3.728247 1_655
P0 W0 2.320789 1_555
P1 W0 2.327904 1_555
P1 Rb0 3.385626 1_555
P2 W1 2.312277 1_554
P3 W0 2.312266 1_555
P3 Rb0 3.367834 1_555
P4 W0 2.320789 1_555
P5 W1 2.329186 1_555
P5 Rb0 3.705465 1_565
P6 W1 2.329204 1_555
P6 Rb0 3.705475 1_555
P7 W1 2.316842 1_555
