# generated using pymatgen
data_Rb5BaTaP4
_symmetry_space_group_name_H-M   'P 1'
_cell_length_a   10.56041932
_cell_length_b   10.56041939
_cell_length_c   8.13486685
_cell_angle_alpha   88.69194322
_cell_angle_beta   88.69193809
_cell_angle_gamma   120.61771234
_symmetry_Int_Tables_number   1
_chemical_formula_structural   Rb5BaTaP4
_chemical_formula_sum   'Rb10 Ba2 Ta2 P8'
_cell_volume   779.91028432
_cell_formula_units_Z   2
loop_
 _symmetry_equiv_pos_site_id
 _symmetry_equiv_pos_as_xyz
  1  'x, y, z'
loop_
 _atom_site_type_symbol
 _atom_site_label
 _atom_site_symmetry_multiplicity
 _atom_site_fract_x
 _atom_site_fract_y
 _atom_site_fract_z
 _atom_site_occupancy
  Rb  Rb0  1  0.46507107  0.52563400  0.49789692  1
  Rb  Rb1  1  0.06104768  0.52716867  0.49915712  1
  Rb  Rb2  1  0.52563400  0.46507107  0.99789692  1
  Rb  Rb3  1  0.52716867  0.06104768  0.99915712  1
  Rb  Rb4  1  0.86492590  0.14220682  0.67935227  1
  Rb  Rb5  1  0.29573067  0.15452605  0.71543878  1
  Rb  Rb6  1  0.85472255  0.71581342  0.65919560  1
  Rb  Rb7  1  0.14220682  0.86492590  0.17935227  1
  Rb  Rb8  1  0.71581342  0.85472255  0.15919560  1
  Rb  Rb9  1  0.15452605  0.29573067  0.21543878  1
  Ba  Ba0  1  0.46344091  0.93215786  0.49217354  1
  Ba  Ba1  1  0.93215786  0.46344091  0.99217354  1
  Ta  Ta0  1  0.66914421  0.33147391  0.39322590  1
  Ta  Ta1  1  0.33147391  0.66914421  0.89322590  1
  P  P0  1  0.68312073  0.33674682  0.68840169  1
  P  P1  1  0.33674682  0.68312073  0.18840169  1
  P  P2  1  0.78908886  0.20314783  0.29162193  1
  P  P3  1  0.41389652  0.19675294  0.32175145  1
  P  P4  1  0.79546168  0.57872290  0.27607480  1
  P  P5  1  0.20314783  0.78908886  0.79162193  1
  P  P6  1  0.57872290  0.79546168  0.77607480  1
  P  P7  1  0.19675294  0.41389652  0.82175145  1
loop_
_geom_bond_atom_site_label_1
_geom_bond_atom_site_label_2
_geom_bond_distance
_geom_bond_site_symmetry_2
Ba0 P6 3.265901 1_555
Ba0 P5 3.326931 1_555
Ba0 P3 3.368818 1_565
Ba0 P1 3.417114 1_555
Ba0 P2 3.490541 1_565
Ba1 P4 3.265901 1_556
Ba1 P2 3.326932 1_556
Ba1 P7 3.368818 1_655
Ba1 P0 3.417114 1_555
Ba1 P5 3.490541 1_655
P0 Ta0 2.409281 1_555
P0 Rb6 3.451494 1_555
P0 Rb4 3.454054 1_555
P0 Rb3 3.488458 1_555
P0 Rb5 3.522546 1_555
P0 Rb2 3.633403 1_555
P0 Rb1 3.707484 1_655
P1 Ta1 2.409281 1_554
P1 Rb8 3.451494 1_555
P1 Rb7 3.454054 1_555
P1 Rb1 3.488458 1_555
P1 Rb9 3.522546 1_555
P1 Rb0 3.633403 1_555
P1 Rb3 3.707484 1_564
P2 Ta0 2.424037 1_555
P2 Rb4 3.398793 1_555
P2 Rb3 3.434888 1_554
P2 Rb9 3.500419 1_655
P2 Rb8 3.552028 1_545
P2 Rb1 3.644464 1_655
P3 Ta0 2.414747 1_555
P3 Rb5 3.346368 1_555
P3 Rb7 3.456778 1_545
P3 Rb3 3.485113 1_554
P3 Rb9 3.510856 1_555
P3 Rb2 3.531784 1_554
P3 Rb0 3.571913 1_555
P4 Ta0 2.405358 1_555
P4 Rb6 3.401937 1_555
P4 Rb2 3.408191 1_554
P4 Rb7 3.413086 1_655
P4 Rb8 3.537516 1_555
P4 Rb1 3.633004 1_655
P4 Rb0 3.663047 1_555
P5 Ta1 2.424037 1_555
P5 Rb7 3.398793 1_556
P5 Rb1 3.434888 1_555
P5 Rb5 3.500419 1_565
P5 Rb6 3.552028 1_455
P5 Rb3 3.644464 1_565
P6 Ta1 2.405358 1_555
P6 Rb8 3.401937 1_556
P6 Rb0 3.408190 1_555
P6 Rb4 3.413086 1_565
P6 Rb6 3.537516 1_555
P6 Rb3 3.633004 1_565
P6 Rb2 3.663047 1_555
P7 Ta1 2.414747 1_555
P7 Rb9 3.346368 1_556
P7 Rb4 3.456779 1_455
P7 Rb1 3.485113 1_555
P7 Rb5 3.510856 1_555
P7 Rb0 3.531783 1_555
P7 Rb2 3.571913 1_555
