# generated using pymatgen
data_Ba(SrP)2
_symmetry_space_group_name_H-M   'P 1'
_cell_length_a   5.00903101
_cell_length_b   5.00903169
_cell_length_c   7.95670159
_cell_angle_alpha   90.00000000
_cell_angle_beta   90.00000000
_cell_angle_gamma   120.00000216
_symmetry_Int_Tables_number   1
_chemical_formula_structural   Ba(SrP)2
_chemical_formula_sum   'Ba1 Sr2 P2'
_cell_volume   172.89052464
_cell_formula_units_Z   1
loop_
 _symmetry_equiv_pos_site_id
 _symmetry_equiv_pos_as_xyz
  1  'x, y, z'
loop_
 _atom_site_type_symbol
 _atom_site_label
 _atom_site_symmetry_multiplicity
 _atom_site_fract_x
 _atom_site_fract_y
 _atom_site_fract_z
 _atom_site_occupancy
  Ba  Ba0  1  0.00000000  0.00000000  0.00000000  1
  Sr  Sr0  1  0.66666700  0.33333300  0.35270067  1
  Sr  Sr1  1  0.33333300  0.66666700  0.64729933  1
  P  P0  1  0.66666700  0.33333300  0.75372954  1
  P  P1  1  0.33333300  0.66666700  0.24627046  1
loop_
_geom_bond_atom_site_label_1
_geom_bond_atom_site_label_2
_geom_bond_distance
_geom_bond_site_symmetry_2
Ba0 P1 3.493292 1_545
Ba0 P0 3.493292 1_454
Ba0 P1 3.493296 1_445
Ba0 P0 3.493296 1_554
Ba0 P1 3.493296 1_555
Ba0 P0 3.493296 1_444
P0 Sr1 3.013399 1_655
P0 Sr1 3.013399 1_545
P0 Sr1 3.013408 1_555
P0 Sr0 3.190867 1_555
P1 Sr0 3.013399 1_455
P1 Sr0 3.013399 1_565
P1 Sr0 3.013408 1_555
P1 Sr1 3.190867 1_555
