# generated using pymatgen
data_AgSnRhSe4
_symmetry_space_group_name_H-M   'P 1'
_cell_length_a   7.74233058
_cell_length_b   7.74233043
_cell_length_c   7.74233008
_cell_angle_alpha   120.40813545
_cell_angle_beta   119.28651349
_cell_angle_gamma   90.26737881
_symmetry_Int_Tables_number   1
_chemical_formula_structural   AgSnRhSe4
_chemical_formula_sum   'Ag2 Sn2 Rh2 Se8'
_cell_volume   328.88519135
_cell_formula_units_Z   2
loop_
 _symmetry_equiv_pos_site_id
 _symmetry_equiv_pos_as_xyz
  1  'x, y, z'
loop_
 _atom_site_type_symbol
 _atom_site_label
 _atom_site_symmetry_multiplicity
 _atom_site_fract_x
 _atom_site_fract_y
 _atom_site_fract_z
 _atom_site_occupancy
  Ag  Ag0  1  0.88751743  0.63751743  0.25000000  1
  Ag  Ag1  1  0.11248257  0.36248257  0.75000000  1
  Sn  Sn0  1  0.50000000  0.00000000  0.50000000  1
  Sn  Sn1  1  0.00000000  0.00000000  0.00000000  1
  Rh  Rh0  1  0.50000000  0.00000000  0.00000000  1
  Rh  Rh1  1  0.50000000  0.50000000  0.50000000  1
  Se  Se0  1  0.72950801  0.73601030  0.50650230  1
  Se  Se1  1  0.72950801  0.22300571  0.99349770  1
  Se  Se2  1  0.71492295  0.75494102  0.95998193  1
  Se  Se3  1  0.29495909  0.75494102  0.54001807  1
  Se  Se4  1  0.27049199  0.26398970  0.49349770  1
  Se  Se5  1  0.27049199  0.77699429  0.00650230  1
  Se  Se6  1  0.28507705  0.24505898  0.04001807  1
  Se  Se7  1  0.70504091  0.24505898  0.45998193  1
loop_
_geom_bond_atom_site_label_1
_geom_bond_atom_site_label_2
_geom_bond_distance
_geom_bond_site_symmetry_2
Ag0 Se2 2.606982 1_554
Ag0 Se3 2.606982 1_655
Ag0 Se0 2.621945 1_555
Ag0 Se1 2.621945 1_554
Ag1 Se6 2.606982 1_556
Ag1 Se7 2.606982 1_455
Ag1 Se4 2.621945 1_555
Ag1 Se5 2.621945 1_556
Rh0 Se5 2.507583 1_545
Rh0 Se1 2.507583 1_554
Rh0 Se7 2.530521 1_555
Rh0 Se3 2.530521 1_544
Rh0 Se2 2.530521 1_544
Rh0 Se6 2.530521 1_555
Rh1 Se0 2.507583 1_555
Rh1 Se4 2.507583 1_555
Rh1 Se2 2.530521 1_555
Rh1 Se6 2.530521 1_555
Rh1 Se7 2.530521 1_555
Rh1 Se3 2.530521 1_555
Se0 Sn1 2.718097 1_666
Se0 Sn0 2.718097 1_565
Se1 Sn0 2.718097 1_555
Se1 Sn1 2.718097 1_656
Se2 Sn1 2.695214 1_666
Se3 Sn0 2.695214 1_565
Se4 Sn1 2.718097 1_555
Se4 Sn0 2.718097 1_555
Se5 Sn0 2.718097 1_565
Se5 Sn1 2.718097 1_565
Se6 Sn1 2.695214 1_555
Se7 Sn0 2.695214 1_555
