# generated using pymatgen
data_Nb2CuF12
_symmetry_space_group_name_H-M   'P 1'
_cell_length_a   5.05137371
_cell_length_b   5.38211979
_cell_length_c   8.84642932
_cell_angle_alpha   104.31753782
_cell_angle_beta   88.01405175
_cell_angle_gamma   117.59333408
_symmetry_Int_Tables_number   1
_chemical_formula_structural   Nb2CuF12
_chemical_formula_sum   'Nb2 Cu1 F12'
_cell_volume   205.63642262
_cell_formula_units_Z   1
loop_
 _symmetry_equiv_pos_site_id
 _symmetry_equiv_pos_as_xyz
  1  'x, y, z'
loop_
 _atom_site_type_symbol
 _atom_site_label
 _atom_site_symmetry_multiplicity
 _atom_site_fract_x
 _atom_site_fract_y
 _atom_site_fract_z
 _atom_site_occupancy
  Nb  Nb0  1  0.78019606  0.51192998  0.27156405  1
  Nb  Nb1  1  0.21980394  0.48807002  0.72843595  1
  Cu  Cu0  1  0.00000000  0.00000000  0.00000000  1
  F  F0  1  0.80223002  0.25685467  0.72119228  1
  F  F1  1  0.19776998  0.74314533  0.27880772  1
  F  F2  1  0.18103180  0.75535603  0.92795156  1
  F  F3  1  0.71197244  0.74167480  0.44762317  1
  F  F4  1  0.28802756  0.25832520  0.55237683  1
  F  F5  1  0.80534433  0.26013584  0.37634525  1
  F  F6  1  0.19465567  0.73986416  0.62365475  1
  F  F7  1  0.35633526  0.27768642  0.20054432  1
  F  F8  1  0.64366474  0.72231358  0.79945568  1
  F  F9  1  0.76348602  0.74566660  0.12710268  1
  F  F10  1  0.23651398  0.25433340  0.87289732  1
  F  F11  1  0.81896820  0.24464397  0.07204844  1
loop_
_geom_bond_atom_site_label_1
_geom_bond_atom_site_label_2
_geom_bond_distance
_geom_bond_site_symmetry_2
Cu0 F11 1.906869 1_455
Cu0 F2 1.906869 1_544
Cu0 F9 1.928350 1_445
Cu0 F10 1.928350 1_554
Cu0 F7 2.244737 1_555
Cu0 F8 2.244737 1_444
F0 Nb1 1.881543 1_655
F1 Nb0 1.881543 1_455
F2 Nb1 2.050440 1_555
F3 Nb0 1.865092 1_555
F4 Nb1 1.865092 1_555
F5 Nb0 1.871048 1_555
F6 Nb1 1.871048 1_555
F7 Nb0 1.941455 1_555
F8 Nb1 1.941455 1_555
F9 Nb0 2.030733 1_555
F10 Nb1 2.030733 1_555
F11 Nb0 2.050440 1_555
