# generated using pymatgen
data_K3CuSi4
_symmetry_space_group_name_H-M   'P 1'
_cell_length_a   5.67771446
_cell_length_b   6.63766040
_cell_length_c   11.88790897
_cell_angle_alpha   90.00000000
_cell_angle_beta   90.00000000
_cell_angle_gamma   90.00000000
_symmetry_Int_Tables_number   1
_chemical_formula_structural   K3CuSi4
_chemical_formula_sum   'K6 Cu2 Si8'
_cell_volume   448.01653953
_cell_formula_units_Z   2
loop_
 _symmetry_equiv_pos_site_id
 _symmetry_equiv_pos_as_xyz
  1  'x, y, z'
loop_
 _atom_site_type_symbol
 _atom_site_label
 _atom_site_symmetry_multiplicity
 _atom_site_fract_x
 _atom_site_fract_y
 _atom_site_fract_z
 _atom_site_occupancy
  K  K0  1  0.43487880  0.50000000  0.50000000  1
  K  K1  1  0.56512120  0.00000000  0.00000000  1
  K  K2  1  0.16270650  0.00000000  0.23433708  1
  K  K3  1  0.16270650  0.00000000  0.76566292  1
  K  K4  1  0.83729350  0.50000000  0.26566292  1
  K  K5  1  0.83729350  0.50000000  0.73433708  1
  Cu  Cu0  1  0.69301736  0.50000000  0.00000000  1
  Cu  Cu1  1  0.30698264  0.00000000  0.50000000  1
  Si  Si0  1  0.94922675  0.18736279  0.50000000  1
  Si  Si1  1  0.66378827  0.00000000  0.60497678  1
  Si  Si2  1  0.33621173  0.50000000  0.10497678  1
  Si  Si3  1  0.33621173  0.50000000  0.89502322  1
  Si  Si4  1  0.05077325  0.68736279  0.00000000  1
  Si  Si5  1  0.05077325  0.31263721  0.00000000  1
  Si  Si6  1  0.66378827  0.00000000  0.39502322  1
  Si  Si7  1  0.94922675  0.81263721  0.50000000  1
loop_
_geom_bond_atom_site_label_1
_geom_bond_atom_site_label_2
_geom_bond_distance
_geom_bond_site_symmetry_2
K0 Si7 3.451027 1_455
K0 Si0 3.451027 1_455
K0 Si7 3.582547 1_555
K0 Si0 3.582547 1_555
K0 Si1 3.776400 1_555
K0 Si1 3.776400 1_565
K0 Si6 3.776400 1_565
K0 Si6 3.776400 1_555
K1 Si5 3.451027 1_655
K1 Si4 3.451027 1_645
K1 Si5 3.582547 1_555
K1 Si4 3.582547 1_545
K1 Si2 3.776400 1_555
K1 Si2 3.776400 1_545
K1 Si3 3.776400 1_554
K1 Si3 3.776400 1_544
K2 Si6 3.416610 1_455
K2 Si6 3.426802 1_555
K2 Si5 3.531405 1_555
K2 Si4 3.531405 1_545
K2 Si0 3.604147 1_455
K2 Si7 3.604147 1_445
K2 Si2 3.788137 1_545
K2 Si2 3.788137 1_555
K3 Si1 3.416610 1_455
K3 Si1 3.426802 1_555
K3 Si5 3.531405 1_556
K3 Si4 3.531405 1_546
K3 Si0 3.604147 1_455
K3 Si7 3.604147 1_445
K3 Si3 3.788137 1_555
K3 Si3 3.788137 1_545
K4 Si2 3.416610 1_655
K4 Si2 3.426802 1_555
K4 Si7 3.531405 1_555
K4 Si0 3.531405 1_555
K4 Si4 3.604147 1_655
K4 Si5 3.604147 1_655
K4 Si6 3.788137 1_565
K4 Si6 3.788137 1_555
K5 Si3 3.416610 1_655
K5 Si3 3.426802 1_555
K5 Si7 3.531405 1_555
K5 Si0 3.531405 1_555
K5 Si4 3.604147 1_656
K5 Si5 3.604147 1_656
K5 Si1 3.788137 1_555
K5 Si1 3.788137 1_565
Cu0 Si2 2.379374 1_555
Cu0 Si3 2.379374 1_554
Cu0 Si4 2.381719 1_655
Cu0 Si5 2.381719 1_655
Cu0 K4 3.262683 1_555
Cu0 K5 3.262683 1_554
Cu0 K1 3.397343 1_555
Cu0 K1 3.397343 1_565
Cu1 Si1 2.379374 1_555
Cu1 Si6 2.379374 1_555
Cu1 Si0 2.381719 1_455
Cu1 Si7 2.381719 1_445
Cu1 K3 3.262683 1_555
Cu1 K2 3.262683 1_555
Cu1 K0 3.397343 1_555
Cu1 K0 3.397343 1_545
Si0 Si1 2.393851 1_555
Si0 Si6 2.393851 1_555
Si0 Si7 2.487301 1_545
Si1 Si7 2.393851 1_545
Si1 Si6 2.495909 1_555
Si2 Si4 2.393851 1_555
Si2 Si5 2.393851 1_555
Si2 Si3 2.495909 1_554
Si3 Si4 2.393851 1_556
Si3 Si5 2.393851 1_556
Si4 Si5 2.487301 1_555
Si6 Si7 2.393851 1_545
