# generated using pymatgen
data_Sc4Si6Ni2Ir5
_symmetry_space_group_name_H-M   'P 1'
_cell_length_a   6.86003066
_cell_length_b   6.89261619
_cell_length_c   6.89261571
_cell_angle_alpha   109.43530104
_cell_angle_beta   109.58553047
_cell_angle_gamma   109.58552619
_symmetry_Int_Tables_number   1
_chemical_formula_structural   Sc4Si6Ni2Ir5
_chemical_formula_sum   'Sc4 Si6 Ni2 Ir5'
_cell_volume   250.28479153
_cell_formula_units_Z   1
loop_
 _symmetry_equiv_pos_site_id
 _symmetry_equiv_pos_as_xyz
  1  'x, y, z'
loop_
 _atom_site_type_symbol
 _atom_site_label
 _atom_site_symmetry_multiplicity
 _atom_site_fract_x
 _atom_site_fract_y
 _atom_site_fract_z
 _atom_site_occupancy
  Sc  Sc0  1  0.00362996  0.00181448  0.50181448  1
  Sc  Sc1  1  0.00362996  0.50181448  0.00181448  1
  Sc  Sc2  1  0.49250351  0.99704085  0.99704085  1
  Sc  Sc3  1  0.49250351  0.49546266  0.49546266  1
  Si  Si0  1  0.68410134  0.68348978  0.00061156  1
  Si  Si1  1  0.32527490  0.00314380  0.32213111  1
  Si  Si2  1  0.98997851  0.31856060  0.31856060  1
  Si  Si3  1  0.32527490  0.32213111  0.00314380  1
  Si  Si4  1  0.68410134  0.00061156  0.68348978  1
  Si  Si5  1  0.98997851  0.67141792  0.67141792  1
  Ni  Ni0  1  0.74731087  0.25150897  0.49580190  1
  Ni  Ni1  1  0.74731087  0.49580190  0.25150897  1
  Ir  Ir0  1  0.51314653  0.25657327  0.75657327  1
  Ir  Ir1  1  0.24290565  0.49530592  0.74759873  1
  Ir  Ir2  1  0.24290565  0.74759873  0.49530592  1
  Ir  Ir3  1  0.51314653  0.75657327  0.25657327  1
  Ir  Ir4  1  0.00229646  0.00114773  0.00114773  1
loop_
_geom_bond_atom_site_label_1
_geom_bond_atom_site_label_2
_geom_bond_distance
_geom_bond_site_symmetry_2
Sc0 Si0 2.864923 1_445
Sc0 Si4 2.864928 1_455
Sc0 Si1 2.868561 1_555
Sc0 Si3 2.868566 1_556
Sc0 Si5 2.874630 1_445
Sc0 Si2 2.874632 1_455
Sc1 Si4 2.864923 1_454
Sc1 Si0 2.864928 1_455
Sc1 Si3 2.868561 1_555
Sc1 Si1 2.868566 1_565
Sc1 Si5 2.874630 1_454
Sc1 Si2 2.874631 1_455
Sc2 Si1 2.834016 1_566
Sc2 Si3 2.834016 1_566
Sc2 Si2 2.838965 1_566
Sc2 Si5 2.869156 1_455
Sc2 Si4 2.883924 1_565
Sc2 Si0 2.883924 1_556
Sc3 Si3 2.834016 1_555
Sc3 Si1 2.834016 1_555
Sc3 Si5 2.838965 1_555
Sc3 Si2 2.869156 1_455
Sc3 Si0 2.883924 1_556
Sc3 Si4 2.883924 1_565
Ni0 Si2 2.387607 1_555
Ni0 Si5 2.387607 1_555
Ni0 Si1 2.394904 1_555
Ni0 Si4 2.492860 1_555
Ni0 Ni1 2.749053 1_555
Ni0 Sc2 2.802362 1_544
Ni0 Sc3 2.802362 1_555
Ni0 Sc1 2.843058 1_656
Ni0 Sc0 2.843064 1_655
Ni1 Si5 2.387607 1_555
Ni1 Si2 2.387607 1_555
Ni1 Si3 2.394904 1_555
Ni1 Si0 2.492860 1_555
Ni1 Sc3 2.802362 1_555
Ni1 Sc2 2.802362 1_544
Ni1 Sc0 2.843059 1_665
Ni1 Sc1 2.843064 1_655
Ir0 Si4 2.435865 1_555
Ir0 Si0 2.435865 1_556
Ir0 Si3 2.470100 1_556
Ir0 Si1 2.470100 1_555
Ir0 Sc1 2.740127 1_656
Ir0 Ni1 2.782778 1_556
Ir0 Ni0 2.782778 1_555
Ir0 Sc3 2.815645 1_555
Ir0 Sc2 2.815645 1_545
Ir0 Sc0 2.846458 1_555
Ir1 Si2 2.446449 1_455
Ir1 Si5 2.446453 1_455
Ir1 Si3 2.455713 1_556
Ir1 Si0 2.491622 1_556
Ir1 Ni0 2.769048 1_455
Ir1 Sc1 2.773424 1_556
Ir1 Sc0 2.773425 1_555
Ir1 Sc3 2.819042 1_555
Ir1 Sc2 2.819048 1_555
Ir2 Si2 2.446449 1_455
Ir2 Si5 2.446453 1_455
Ir2 Si1 2.455713 1_565
Ir2 Si4 2.491622 1_565
Ir2 Ni1 2.769048 1_455
Ir2 Sc1 2.773424 1_555
Ir2 Sc0 2.773424 1_565
Ir2 Sc3 2.819042 1_555
Ir2 Sc2 2.819048 1_555
Ir3 Si0 2.435865 1_555
Ir3 Si4 2.435865 1_565
Ir3 Si1 2.470100 1_565
Ir3 Si3 2.470101 1_555
Ir3 Sc0 2.740127 1_665
Ir3 Ni1 2.782778 1_555
Ir3 Ni0 2.782778 1_565
Ir3 Sc2 2.815645 1_554
Ir3 Sc3 2.815645 1_555
Ir3 Sc1 2.846458 1_555
Ir4 Si4 2.518666 1_454
Ir4 Si0 2.518666 1_445
Ir4 Si1 2.544988 1_555
Ir4 Si3 2.544988 1_555
Ir4 Si5 2.577331 1_444
Ir4 Si2 2.577339 1_455
