# generated using pymatgen
data_Ba5Sb3H
_symmetry_space_group_name_H-M   'P 1'
_cell_length_a   10.05821591
_cell_length_b   10.05821753
_cell_length_c   7.79110872
_cell_angle_alpha   90.00000000
_cell_angle_beta   90.00000000
_cell_angle_gamma   119.99999795
_symmetry_Int_Tables_number   1
_chemical_formula_structural   Ba5Sb3H
_chemical_formula_sum   'Ba10 Sb6 H2'
_cell_volume   682.60880052
_cell_formula_units_Z   2
loop_
 _symmetry_equiv_pos_site_id
 _symmetry_equiv_pos_as_xyz
  1  'x, y, z'
loop_
 _atom_site_type_symbol
 _atom_site_label
 _atom_site_symmetry_multiplicity
 _atom_site_fract_x
 _atom_site_fract_y
 _atom_site_fract_z
 _atom_site_occupancy
  Ba  Ba0  1  0.75370938  0.75370938  0.25000000  1
  Ba  Ba1  1  0.75370938  0.00000000  0.75000000  1
  Ba  Ba2  1  0.00000000  0.24629062  0.25000000  1
  Ba  Ba3  1  1.00000000  0.75370938  0.75000000  1
  Ba  Ba4  1  0.24629062  0.24629062  0.75000000  1
  Ba  Ba5  1  0.24629062  1.00000000  0.25000000  1
  Ba  Ba6  1  0.33333300  0.66666700  0.50000000  1
  Ba  Ba7  1  0.66666700  0.33333300  0.00000000  1
  Ba  Ba8  1  0.66666700  0.33333300  0.50000000  1
  Ba  Ba9  1  0.33333300  0.66666700  0.00000000  1
  Sb  Sb0  1  0.39333060  0.00000000  0.75000000  1
  Sb  Sb1  1  0.39333060  0.39333060  0.25000000  1
  Sb  Sb2  1  0.00000000  0.60666940  0.25000000  1
  Sb  Sb3  1  1.00000000  0.39333060  0.75000000  1
  Sb  Sb4  1  0.60666940  0.60666940  0.75000000  1
  Sb  Sb5  1  0.60666940  1.00000000  0.25000000  1
  H  H0  1  0.00000000  0.00000000  0.50000000  1
  H  H1  1  0.00000000  0.00000000  0.00000000  1
loop_
_geom_bond_atom_site_label_1
_geom_bond_atom_site_label_2
_geom_bond_distance
_geom_bond_site_symmetry_2
Ba0 H0 3.151282 1_665
Ba0 H1 3.151282 1_665
Ba0 Sb2 3.462341 1_655
Ba0 Sb5 3.462341 1_555
Ba0 Sb1 3.624768 1_555
Ba0 Sb4 4.166853 1_554
Ba0 Sb4 4.166853 1_555
Ba1 H1 3.151281 1_656
Ba1 H0 3.151281 1_655
Ba1 Sb3 3.462342 1_555
Ba1 Sb4 3.462342 1_545
Ba1 Sb0 3.624768 1_555
Ba1 Sb5 4.166853 1_545
Ba1 Sb5 4.166853 1_546
Ba2 H0 3.151282 1_555
Ba2 H1 3.151282 1_555
Ba2 Sb1 3.462341 1_555
Ba2 Sb5 3.462341 1_445
Ba2 Sb2 3.624768 1_555
Ba2 Sb3 4.166853 1_454
Ba2 Sb3 4.166853 1_455
Ba3 H0 3.151282 1_665
Ba3 H1 3.151282 1_666
Ba3 Sb4 3.462341 1_555
Ba3 Sb0 3.462341 1_665
Ba3 Sb3 3.624768 1_555
Ba3 Sb2 4.166853 1_655
Ba3 Sb2 4.166853 1_656
Ba4 H0 3.151282 1_555
Ba4 H1 3.151282 1_556
Ba4 Sb3 3.462341 1_455
Ba4 Sb0 3.462341 1_555
Ba4 Sb4 3.624768 1_555
Ba4 Sb1 4.166853 1_556
Ba4 Sb1 4.166853 1_555
Ba5 H0 3.151281 1_565
Ba5 H1 3.151281 1_565
Ba5 Sb2 3.462342 1_555
Ba5 Sb1 3.462342 1_565
Ba5 Sb5 3.624768 1_555
Ba5 Sb0 4.166853 1_564
Ba5 Sb0 4.166853 1_565
Ba6 Sb2 3.657263 1_555
Ba6 Sb0 3.657264 1_565
Ba6 Sb3 3.657266 1_455
Ba6 Sb5 3.657266 1_555
Ba6 Sb4 3.657272 1_555
Ba6 Sb1 3.657272 1_555
Ba7 Sb3 3.657263 1_554
Ba7 Sb5 3.657264 1_545
Ba7 Sb2 3.657266 1_655
Ba7 Sb0 3.657266 1_554
Ba7 Sb1 3.657272 1_555
Ba7 Sb4 3.657272 1_554
Ba8 Sb3 3.657263 1_555
Ba8 Sb5 3.657264 1_545
Ba8 Sb2 3.657266 1_655
Ba8 Sb0 3.657266 1_555
Ba8 Sb1 3.657272 1_555
Ba8 Sb4 3.657272 1_555
Ba9 Sb2 3.657263 1_555
Ba9 Sb0 3.657264 1_564
Ba9 Sb3 3.657266 1_454
Ba9 Sb5 3.657266 1_555
Ba9 Sb4 3.657272 1_554
Ba9 Sb1 3.657272 1_555
