# generated using pymatgen
data_Os3RuSe8
_symmetry_space_group_name_H-M   'P 1'
_cell_length_a   5.97836406
_cell_length_b   5.97836406
_cell_length_c   5.97836406
_cell_angle_alpha   89.93130382
_cell_angle_beta   90.06869618
_cell_angle_gamma   89.93130382
_symmetry_Int_Tables_number   1
_chemical_formula_structural   Os3RuSe8
_chemical_formula_sum   'Os3 Ru1 Se8'
_cell_volume   213.67127315
_cell_formula_units_Z   1
loop_
 _symmetry_equiv_pos_site_id
 _symmetry_equiv_pos_as_xyz
  1  'x, y, z'
loop_
 _atom_site_type_symbol
 _atom_site_label
 _atom_site_symmetry_multiplicity
 _atom_site_fract_x
 _atom_site_fract_y
 _atom_site_fract_z
 _atom_site_occupancy
  Os  Os0  1  0.50000000  0.50000000  0.00000000  1
  Os  Os1  1  0.50000000  0.00000000  0.50000000  1
  Os  Os2  1  0.00000000  0.00000000  0.00000000  1
  Ru  Ru0  1  0.00000000  0.50000000  0.50000000  1
  Se  Se0  1  0.37828449  0.12171551  0.87828449  1
  Se  Se1  1  0.12171156  0.87939999  0.37894801  1
  Se  Se2  1  0.87894801  0.37828844  0.12060001  1
  Se  Se3  1  0.62060001  0.62105199  0.62171156  1
  Se  Se4  1  0.37939999  0.37894801  0.37828844  1
  Se  Se5  1  0.12105199  0.62171156  0.87939999  1
  Se  Se6  1  0.87828844  0.12060001  0.62105199  1
  Se  Se7  1  0.62171551  0.87828449  0.12171551  1
loop_
_geom_bond_atom_site_label_1
_geom_bond_atom_site_label_2
_geom_bond_distance
_geom_bond_site_symmetry_2
Os0 Se4 2.481811 1_555
Os0 Se3 2.481811 1_554
Os0 Se2 2.484471 1_555
Os0 Se5 2.484471 1_554
Os0 Se7 2.485977 1_555
Os0 Se0 2.485977 1_554
Os1 Se6 2.481811 1_555
Os1 Se1 2.481811 1_545
Os1 Se4 2.484471 1_555
Os1 Se3 2.484471 1_545
Os1 Se0 2.485977 1_555
Os1 Se7 2.485977 1_545
Os2 Se2 2.481811 1_455
Os2 Se5 2.481811 1_544
Os2 Se1 2.484471 1_545
Os2 Se6 2.484471 1_454
Os2 Se0 2.485977 1_554
Os2 Se7 2.485977 1_445
Ru0 Se5 2.489811 1_555
Ru0 Se1 2.489811 1_555
Ru0 Se4 2.489811 1_555
Ru0 Se3 2.489811 1_455
Ru0 Se6 2.489811 1_455
Ru0 Se2 2.489811 1_455
Se0 Se7 2.517663 1_546
Se1 Se6 2.509398 1_465
Se2 Se5 2.509398 1_654
Se3 Se4 2.509398 1_555
