# generated using pymatgen
data_Ta18Al5Ge2Os3
_symmetry_space_group_name_H-M   'P 1'
_cell_length_a   9.82167142
_cell_length_b   9.82167410
_cell_length_c   9.83635830
_cell_angle_alpha   93.97942926
_cell_angle_beta   93.97939276
_cell_angle_gamma   149.42863261
_symmetry_Int_Tables_number   1
_chemical_formula_structural   Ta18Al5Ge2Os3
_chemical_formula_sum   'Ta18 Al5 Ge2 Os3'
_cell_volume   465.58327863
_cell_formula_units_Z   1
loop_
 _symmetry_equiv_pos_site_id
 _symmetry_equiv_pos_as_xyz
  1  'x, y, z'
loop_
 _atom_site_type_symbol
 _atom_site_label
 _atom_site_symmetry_multiplicity
 _atom_site_fract_x
 _atom_site_fract_y
 _atom_site_fract_z
 _atom_site_occupancy
  Ta  Ta0  1  0.56594711  0.79536487  0.36131099  1
  Ta  Ta1  1  0.08366572  0.16106878  0.24473351  1
  Ta  Ta2  1  0.58113472  0.34269330  0.92382702  1
  Ta  Ta3  1  0.66106678  0.58366572  0.24473351  1
  Ta  Ta4  1  0.34072016  0.41617322  0.75689137  1
  Ta  Ta5  1  0.79477138  0.43437557  0.22914595  1
  Ta  Ta6  1  0.41689141  0.66163296  0.07852536  1
  Ta  Ta7  1  0.16163396  0.91689141  0.07852336  1
  Ta  Ta8  1  0.70732269  0.93389553  0.64121723  1
  Ta  Ta9  1  0.43389453  0.20732169  0.64121723  1
  Ta  Ta10  1  0.91617322  0.84071816  0.75689137  1
  Ta  Ta11  1  0.06370491  0.70571836  0.76942427  1
  Ta  Ta12  1  0.20571836  0.56370491  0.76942427  1
  Ta  Ta13  1  0.24552211  0.74552211  0.49485669  1
  Ta  Ta14  1  0.29536387  0.06594611  0.36131099  1
  Ta  Ta15  1  0.74933458  0.24933458  0.49485669  1
  Ta  Ta16  1  0.84269230  0.08113472  0.92382902  1
  Ta  Ta17  1  0.93437557  0.29477138  0.22914595  1
  Al  Al0  1  0.49872819  0.99872819  0.00101229  1
  Al  Al1  1  0.62838291  0.12838291  0.75676583  1
  Al  Al2  1  0.00228411  0.50228411  0.00101229  1
  Al  Al3  1  0.50026491  0.50026491  0.50053082  1
  Al  Al4  1  0.00026491  0.00026491  0.50053082  1
  Ge  Ge0  1  0.75069306  0.75069406  0.00138711  1
  Ge  Ge1  1  0.25069506  0.25069406  0.00138911  1
  Os  Os0  1  0.36893397  0.86893397  0.23786794  1
  Os  Os1  1  0.86920518  0.63061433  0.49981950  1
  Os  Os2  1  0.13061433  0.36920518  0.49981950  1
loop_
_geom_bond_atom_site_label_1
_geom_bond_atom_site_label_2
_geom_bond_distance
_geom_bond_site_symmetry_2
Ta0 Ta8 2.656290 1_555
Ta0 Ta6 2.687401 1_555
Ta1 Ta17 2.685211 1_455
Ta2 Ta9 2.684165 1_555
Ta3 Ta5 2.685230 1_555
Ta10 Ta11 2.679405 1_655
Ta12 Ta4 2.679424 1_555
Ta13 Ta15 2.569564 1_455
Ta13 Ta15 2.609051 1_565
Ta14 Ta9 2.656290 1_555
Ta14 Ta7 2.687421 1_545
Ta16 Ta8 2.684184 1_545
Ta17 Ta5 2.645280 1_555
Al0 Al2 2.570893 1_555
Al0 Os0 2.589247 1_555
Al0 Al2 2.607722 1_665
Al0 Al1 2.659337 1_564
Al0 Ta7 2.835816 1_555
Al0 Ta6 2.835834 1_555
Al0 Ta17 2.852378 1_565
Al0 Ta5 2.852378 1_565
Al0 Ta11 2.879632 1_554
Al0 Ta12 2.879633 1_554
Al0 Ta16 2.894344 1_564
Al0 Ta2 2.894362 1_564
Al1 Al2 2.659338 1_656
Al1 Ta15 2.806929 1_555
Al1 Ta13 2.806930 1_545
Al1 Ta8 2.813009 1_545
Al1 Ta9 2.813010 1_555
Al1 Ta12 2.920480 1_655
Al1 Ta11 2.920481 1_655
Al1 Ta11 2.920485 1_545
Al1 Ta12 2.920486 1_545
Al1 Ta2 2.941772 1_555
Al1 Ta16 2.941774 1_555
Al2 Os0 2.589247 1_555
Al2 Ta7 2.835822 1_555
Al2 Ta6 2.835831 1_555
Al2 Ta5 2.852374 1_455
Al2 Ta17 2.852375 1_455
Al2 Ta12 2.879629 1_554
Al2 Ta11 2.879630 1_554
Al2 Ta16 2.894350 1_454
Al2 Ta2 2.894359 1_454
Al3 Al4 2.589308 1_665
Al3 Al4 2.589308 1_555
Al3 Os2 2.604966 1_555
Al3 Os1 2.604969 1_555
Al3 Ta9 2.840130 1_555
Al3 Ta8 2.840133 1_555
Al3 Ta4 2.846971 1_555
Al3 Ta10 2.846981 1_555
Al3 Ta3 2.847106 1_555
Al3 Ta1 2.847110 1_555
Al3 Ta14 2.854088 1_555
Al3 Ta0 2.854090 1_555
Al4 Os1 2.604967 1_445
Al4 Os2 2.604970 1_555
Al4 Ta8 2.840127 1_445
Al4 Ta9 2.840130 1_555
Al4 Ta10 2.846979 1_445
Al4 Ta4 2.846979 1_555
Al4 Ta3 2.847107 1_445
Al4 Ta1 2.847114 1_555
Al4 Ta0 2.854085 1_445
Al4 Ta14 2.854086 1_555
Ge0 Ge1 2.589308 1_665
Ge0 Ge1 2.589308 1_555
Ge0 Ta16 2.705748 1_564
Ge0 Ta2 2.705763 1_554
Ge0 Ta3 2.747071 1_555
Ge0 Ta1 2.747071 1_665
Ge0 Ta4 2.751384 1_554
Ge0 Ta10 2.751396 1_554
Ge0 Ta6 2.754712 1_555
Ge0 Ta7 2.754732 1_655
Ge1 Ta2 2.705753 1_554
Ge1 Ta16 2.705773 1_454
Ge1 Ta3 2.747048 1_555
Ge1 Ta1 2.747057 1_555
Ge1 Ta10 2.751408 1_444
Ge1 Ta4 2.751410 1_554
Ge1 Ta7 2.754707 1_545
Ge1 Ta6 2.754721 1_555
Os0 Ta13 2.765672 1_555
Os0 Ta15 2.765672 1_565
Os0 Ta14 2.818510 1_565
Os0 Ta0 2.818511 1_555
Os0 Ta6 2.852173 1_555
Os0 Ta7 2.852175 1_555
Os0 Ta5 2.908732 1_455
Os0 Ta17 2.908734 1_455
Os0 Ta17 2.908737 1_565
Os0 Ta5 2.908738 1_565
Os1 Ta13 2.790458 1_655
Os1 Ta15 2.790459 1_555
Os1 Ta11 2.797315 1_655
Os1 Ta5 2.815871 1_555
Os1 Ta3 2.862096 1_555
Os1 Ta10 2.887876 1_555
Os1 Ta14 2.905101 1_665
Os1 Ta14 2.905107 1_555
Os1 Ta9 2.918536 1_665
Os1 Ta9 2.918540 1_555
Os2 Ta15 2.790458 1_455
Os2 Ta13 2.790459 1_555
Os2 Ta12 2.797314 1_555
Os2 Ta17 2.815871 1_455
Os2 Ta1 2.862085 1_555
Os2 Ta4 2.887887 1_555
Os2 Ta0 2.905102 1_445
Os2 Ta0 2.905106 1_555
Os2 Ta8 2.918536 1_445
Os2 Ta8 2.918541 1_555
