# generated using pymatgen
data_Hf16Fe3NiRh4
_symmetry_space_group_name_H-M   'P 1'
_cell_length_a   8.53146966
_cell_length_b   8.53147003
_cell_length_c   8.53147069
_cell_angle_alpha   60.04297715
_cell_angle_beta   60.04297475
_cell_angle_gamma   60.04297729
_symmetry_Int_Tables_number   1
_chemical_formula_structural   Hf16Fe3NiRh4
_chemical_formula_sum   'Hf16 Fe3 Ni1 Rh4'
_cell_volume   439.52084139
_cell_formula_units_Z   1
loop_
 _symmetry_equiv_pos_site_id
 _symmetry_equiv_pos_as_xyz
  1  'x, y, z'
loop_
 _atom_site_type_symbol
 _atom_site_label
 _atom_site_symmetry_multiplicity
 _atom_site_fract_x
 _atom_site_fract_y
 _atom_site_fract_z
 _atom_site_occupancy
  Hf  Hf0  1  0.67798863  0.10795322  0.10795322  1
  Hf  Hf1  1  0.10795322  0.67798863  0.10795322  1
  Hf  Hf2  1  0.10795322  0.10795322  0.67798863  1
  Hf  Hf3  1  0.10664551  0.10664551  0.10664551  1
  Hf  Hf4  1  0.31137750  0.31137750  0.68859951  1
  Hf  Hf5  1  0.68735312  0.68735312  0.31368000  1
  Hf  Hf6  1  0.31137750  0.68859951  0.31137750  1
  Hf  Hf7  1  0.68735312  0.31368000  0.68735312  1
  Hf  Hf8  1  0.68859951  0.31137750  0.31137750  1
  Hf  Hf9  1  0.31368000  0.68735312  0.68735312  1
  Hf  Hf10  1  0.94370296  0.94370296  0.55152040  1
  Hf  Hf11  1  0.55812229  0.55812229  0.94211640  1
  Hf  Hf12  1  0.94370296  0.55152040  0.94370296  1
  Hf  Hf13  1  0.55812229  0.94211640  0.55812229  1
  Hf  Hf14  1  0.55152040  0.94370296  0.94370296  1
  Hf  Hf15  1  0.94211640  0.55812229  0.55812229  1
  Fe  Fe0  1  0.31899311  0.89421472  0.89421472  1
  Fe  Fe1  1  0.89421472  0.31899311  0.89421472  1
  Fe  Fe2  1  0.89421472  0.89421472  0.31899311  1
  Ni  Ni0  1  0.89390432  0.89390432  0.89390432  1
  Rh  Rh0  1  0.99525427  0.33541337  0.33541337  1
  Rh  Rh1  1  0.33541337  0.99525427  0.33541337  1
  Rh  Rh2  1  0.33541337  0.33541337  0.99525427  1
  Rh  Rh3  1  0.33501745  0.33501745  0.33501745  1
loop_
_geom_bond_atom_site_label_1
_geom_bond_atom_site_label_2
_geom_bond_distance
_geom_bond_site_symmetry_2
Hf0 Ni0 2.583471 1_544
Hf0 Rh3 2.914295 1_555
Hf0 Rh1 2.917370 1_545
Hf0 Rh2 2.917370 1_554
Hf1 Ni0 2.583471 1_454
Hf1 Rh3 2.914295 1_555
Hf1 Rh0 2.917370 1_455
Hf1 Rh2 2.917370 1_554
Hf2 Ni0 2.583471 1_445
Hf2 Rh3 2.914295 1_555
Hf2 Rh1 2.917370 1_545
Hf2 Rh0 2.917370 1_455
Hf3 Rh2 2.936176 1_554
Hf3 Rh1 2.936177 1_545
Hf3 Rh0 2.936177 1_455
Hf4 Rh3 2.829575 1_555
Hf4 Rh2 2.835888 1_555
Hf5 Rh1 2.829045 1_555
Hf5 Rh0 2.829045 1_555
Hf5 Ni0 3.087418 1_554
Hf6 Rh3 2.829575 1_555
Hf6 Rh1 2.835887 1_555
Hf7 Rh2 2.829045 1_555
Hf7 Rh0 2.829045 1_555
Hf7 Ni0 3.087418 1_545
Hf8 Rh3 2.829575 1_555
Hf8 Rh0 2.835887 1_555
Hf9 Rh2 2.829046 1_555
Hf9 Rh1 2.829046 1_555
Hf9 Ni0 3.087418 1_455
Hf10 Ni0 2.568058 1_555
Hf10 Rh1 3.043909 1_655
Hf10 Rh0 3.043909 1_565
Hf11 Rh2 3.051347 1_555
Hf11 Rh3 3.058808 1_556
Hf12 Ni0 2.568058 1_555
Hf12 Rh2 3.043909 1_655
Hf12 Rh0 3.043910 1_556
Hf13 Rh1 3.051348 1_555
Hf13 Rh3 3.058808 1_565
Hf14 Ni0 2.568058 1_555
Hf14 Rh2 3.043909 1_565
Hf14 Rh1 3.043910 1_556
Hf15 Rh0 3.051348 1_555
Hf15 Rh3 3.058808 1_655
Fe0 Hf14 2.478503 1_555
Fe0 Hf11 2.524100 1_555
Fe0 Hf13 2.524100 1_555
Fe0 Hf3 2.563878 1_566
Fe0 Hf1 2.578484 1_556
Fe0 Hf2 2.578484 1_565
Fe1 Hf12 2.478503 1_555
Fe1 Hf11 2.524100 1_555
Fe1 Hf15 2.524100 1_555
Fe1 Hf3 2.563878 1_656
Fe1 Hf0 2.578484 1_556
Fe1 Hf2 2.578484 1_655
Fe2 Hf10 2.478504 1_555
Fe2 Hf13 2.524100 1_555
Fe2 Hf15 2.524100 1_555
Fe2 Hf3 2.563877 1_665
Fe2 Hf1 2.578484 1_655
Fe2 Hf0 2.578484 1_565
