# generated using pymatgen
data_Hf5Nb(SiTc)6
_symmetry_space_group_name_H-M   'P 1'
_cell_length_a   7.67725292
_cell_length_b   7.67786668
_cell_length_c   7.67725424
_cell_angle_alpha   126.32524179
_cell_angle_beta   128.16280747
_cell_angle_gamma   77.86024997
_symmetry_Int_Tables_number   1
_chemical_formula_structural   Hf5Nb(SiTc)6
_chemical_formula_sum   'Hf5 Nb1 Si6 Tc6'
_cell_volume   277.86695871
_cell_formula_units_Z   1
loop_
 _symmetry_equiv_pos_site_id
 _symmetry_equiv_pos_as_xyz
  1  'x, y, z'
loop_
 _atom_site_type_symbol
 _atom_site_label
 _atom_site_symmetry_multiplicity
 _atom_site_fract_x
 _atom_site_fract_y
 _atom_site_fract_z
 _atom_site_occupancy
  Hf  Hf0  1  0.55028986  0.09179164  0.04150178  1
  Hf  Hf1  1  0.45199414  0.49948465  0.54749151  1
  Hf  Hf2  1  0.94974342  0.49128669  0.04154327  1
  Hf  Hf3  1  0.04804226  0.09547327  0.54743201  1
  Hf  Hf4  1  0.74999929  0.89946069  0.64946140  1
  Nb  Nb0  1  0.24999885  0.90162324  0.15162440  1
  Si  Si0  1  0.75000046  0.49711189  0.24711143  1
  Si  Si1  1  0.24998563  0.50012242  0.75013680  1
  Si  Si2  1  0.33015959  0.82985830  0.49123723  1
  Si  Si3  1  0.66138605  0.16109208  0.49124414  1
  Si  Si4  1  0.83862107  0.82985830  0.99969872  1
  Si  Si5  1  0.16984993  0.16109208  0.99970703  1
  Tc  Tc0  1  0.49772539  0.24207900  0.73977876  1
  Tc  Tc1  1  0.00230025  0.24207900  0.24435361  1
  Tc  Tc2  1  0.12717645  0.75208803  0.62504907  1
  Tc  Tc3  1  0.87289669  0.49780284  0.62501112  1
  Tc  Tc4  1  0.62703997  0.75208803  0.12491259  1
  Tc  Tc5  1  0.37279172  0.49780284  0.12490615  1
loop_
_geom_bond_atom_site_label_1
_geom_bond_atom_site_label_2
_geom_bond_distance
_geom_bond_site_symmetry_2
Hf0 Si4 2.699697 1_544
Hf0 Si2 2.699698 1_544
Hf0 Si5 2.703190 1_554
Hf0 Si3 2.703202 1_555
Hf0 Si0 2.779048 1_555
Hf0 Tc2 2.902760 1_544
Hf0 Tc4 2.902764 1_545
Hf0 Tc1 2.945441 1_655
Hf0 Tc0 2.945441 1_554
Hf0 Tc5 2.985189 1_555
Hf0 Tc3 2.985189 1_555
Hf1 Si3 2.700555 1_555
Hf1 Si5 2.700555 1_554
Hf1 Si4 2.701167 1_555
Hf1 Si2 2.701171 1_555
Hf1 Si1 2.791970 1_555
Hf1 Tc3 2.900193 1_555
Hf1 Tc5 2.900198 1_555
Hf1 Tc0 2.955092 1_555
Hf1 Tc1 2.955095 1_555
Hf1 Tc2 2.960950 1_555
Hf1 Tc4 2.960951 1_556
Hf2 Si3 2.699997 1_554
Hf2 Si5 2.700005 1_654
Hf2 Si4 2.703033 1_554
Hf2 Si2 2.703033 1_655
Hf2 Si0 2.778954 1_555
Hf2 Tc5 2.902117 1_655
Hf2 Tc3 2.902118 1_554
Hf2 Tc0 2.945611 1_554
Hf2 Tc1 2.945612 1_655
Hf2 Tc4 2.985270 1_555
Hf2 Tc2 2.985274 1_655
Hf3 Si2 2.700144 1_545
Hf3 Si4 2.700148 1_444
Hf3 Si5 2.701417 1_555
Hf3 Si3 2.701420 1_455
Hf3 Si1 2.791792 1_555
Hf3 Tc4 2.900918 1_445
Hf3 Tc2 2.900918 1_545
Hf3 Tc0 2.954871 1_555
Hf3 Tc1 2.954876 1_555
Hf3 Tc5 2.961064 1_556
Hf3 Tc3 2.961068 1_455
Hf4 Si2 2.695758 1_555
Hf4 Si4 2.695758 1_555
Hf4 Si3 2.695959 1_565
Hf4 Si5 2.695968 1_665
Hf4 Si0 2.789178 1_555
Hf4 Tc0 2.916775 1_565
Hf4 Tc1 2.916775 1_666
Hf4 Tc4 2.956648 1_555
Hf4 Tc2 2.956651 1_655
Hf4 Tc3 2.957195 1_555
Hf4 Tc5 2.957195 1_555
Nb0 Si4 2.656464 1_454
Nb0 Si2 2.656464 1_555
Nb0 Si5 2.656668 1_564
Nb0 Si3 2.656671 1_565
Nb0 Si1 2.783200 1_554
Nb0 Tc1 2.886788 1_565
Nb0 Tc0 2.886789 1_565
Nb0 Tc2 2.965804 1_554
Nb0 Tc4 2.965807 1_555
Nb0 Tc5 2.966465 1_555
Nb0 Tc3 2.966466 1_454
Si0 Tc4 2.430620 1_555
Si0 Tc2 2.430624 1_655
Si0 Tc5 2.430734 1_555
Si0 Tc3 2.430734 1_555
Si0 Tc1 2.448025 1_655
Si0 Tc0 2.448025 1_554
Si1 Tc2 2.422525 1_555
Si1 Tc4 2.422530 1_556
Si1 Tc3 2.422568 1_455
Si1 Tc5 2.422569 1_556
Si1 Tc0 2.442211 1_555
Si1 Tc1 2.442211 1_555
Si2 Tc5 2.609300 1_555
Si2 Tc0 2.614787 1_565
Si2 Tc2 2.633792 1_555
Si3 Tc4 2.609419 1_545
Si3 Tc0 2.614295 1_555
Si3 Tc3 2.633293 1_555
Si4 Tc3 2.609300 1_555
Si4 Tc1 2.614787 1_666
Si4 Tc4 2.633792 1_556
Si5 Tc2 2.609417 1_545
Si5 Tc1 2.614302 1_556
Si5 Tc5 2.633288 1_556
