# generated using pymatgen
data_Na3YCl6
_symmetry_space_group_name_H-M   'P 1'
_cell_length_a   7.25672994
_cell_length_b   6.77958059
_cell_length_c   12.06201811
_cell_angle_alpha   56.89766576
_cell_angle_beta   90.00000000
_cell_angle_gamma   90.00000000
_symmetry_Int_Tables_number   1
_chemical_formula_structural   Na3YCl6
_chemical_formula_sum   'Na6 Y2 Cl12'
_cell_volume   497.10765300
_cell_formula_units_Z   2
loop_
 _symmetry_equiv_pos_site_id
 _symmetry_equiv_pos_as_xyz
  1  'x, y, z'
loop_
 _atom_site_type_symbol
 _atom_site_label
 _atom_site_symmetry_multiplicity
 _atom_site_fract_x
 _atom_site_fract_y
 _atom_site_fract_z
 _atom_site_occupancy
  Na  Na0  1  0.50000000  0.50000000  0.50000000  1
  Na  Na1  1  -0.00000000  0.50000000  -0.00000000  1
  Na  Na2  1  0.91957331  0.28859009  0.74013458  1
  Na  Na3  1  0.41957331  0.71140991  0.75986542  1
  Na  Na4  1  0.08042669  0.71140991  0.25986542  1
  Na  Na5  1  0.58042669  0.28859009  0.24013458  1
  Y  Y0  1  -0.00000000  0.00000000  0.50000000  1
  Y  Y1  1  0.50000000  0.00000000  -0.00000000  1
  Cl  Cl0  1  0.93362431  0.09727071  0.25889508  1
  Cl  Cl1  1  0.30623737  0.25105312  0.41929037  1
  Cl  Cl2  1  0.80623737  0.74894688  0.08070963  1
  Cl  Cl3  1  0.69376263  0.74894688  0.58070963  1
  Cl  Cl4  1  0.32030281  0.61580434  0.06557079  1
  Cl  Cl5  1  0.82030281  0.38419566  0.43442921  1
  Cl  Cl6  1  0.67969719  0.38419566  0.93442921  1
  Cl  Cl7  1  0.17969719  0.61580434  0.56557079  1
  Cl  Cl8  1  0.06637569  0.90272929  0.74110492  1
  Cl  Cl9  1  0.56637569  0.09727071  0.75889508  1
  Cl  Cl10  1  0.19376263  0.25105312  0.91929037  1
  Cl  Cl11  1  0.43362431  0.90272929  0.24110492  1
loop_
_geom_bond_atom_site_label_1
_geom_bond_atom_site_label_2
_geom_bond_distance
_geom_bond_site_symmetry_2
Cl0 Y0 2.651375 1_655
Cl0 Na4 2.818668 1_645
Cl0 Na5 2.825290 1_555
Cl0 Na1 2.850540 1_655
Cl1 Y0 2.640709 1_555
Cl1 Na0 2.751001 1_555
Cl1 Na5 2.844801 1_555
Cl1 Na4 3.093277 1_555
Cl2 Y1 2.640709 1_565
Cl2 Na1 2.751001 1_655
Cl2 Na4 2.844801 1_655
Cl2 Na5 3.093277 1_555
Cl3 Y0 2.640709 1_665
Cl3 Na0 2.751001 1_555
Cl3 Na3 2.844801 1_555
Cl3 Na2 3.093277 1_555
Cl4 Y1 2.619200 1_565
Cl4 Na1 2.706066 1_555
Cl4 Na5 2.795698 1_555
Cl4 Na4 3.256041 1_555
Cl5 Y0 2.619200 1_655
Cl5 Na0 2.706066 1_555
Cl5 Na4 2.795698 1_655
Cl5 Na5 3.256041 1_555
Cl6 Y1 2.619200 1_556
Cl6 Na1 2.706066 1_656
Cl6 Na3 2.795698 1_555
Cl6 Na2 3.256041 1_555
Cl7 Y0 2.619200 1_565
Cl7 Na0 2.706066 1_555
Cl7 Na2 2.795698 1_455
Cl7 Na3 3.256041 1_555
Cl8 Y0 2.651375 1_565
Cl8 Na2 2.818668 1_465
Cl8 Na3 2.825290 1_555
Cl8 Na1 2.850540 1_556
Cl9 Y1 2.651375 1_556
Cl9 Na3 2.818668 1_545
Cl9 Na2 2.825290 1_555
Cl9 Na0 2.850540 1_555
Cl10 Y1 2.640709 1_556
Cl10 Na1 2.751001 1_556
Cl10 Na2 2.844801 1_455
Cl10 Na3 3.093277 1_555
Cl11 Y1 2.651375 1_565
Cl11 Na5 2.818668 1_565
Cl11 Na4 2.825290 1_555
Cl11 Na0 2.850540 1_555
