# generated using pymatgen
data_K3ZrPt2O9
_symmetry_space_group_name_H-M   'P 1'
_cell_length_a   5.79124041
_cell_length_b   5.79146018
_cell_length_c   14.34451249
_cell_angle_alpha   90.00000000
_cell_angle_beta   90.00000000
_cell_angle_gamma   60.00087861
_symmetry_Int_Tables_number   1
_chemical_formula_structural   K3ZrPt2O9
_chemical_formula_sum   'K6 Zr2 Pt4 O18'
_cell_volume   416.65820452
_cell_formula_units_Z   2
loop_
 _symmetry_equiv_pos_site_id
 _symmetry_equiv_pos_as_xyz
  1  'x, y, z'
loop_
 _atom_site_type_symbol
 _atom_site_label
 _atom_site_symmetry_multiplicity
 _atom_site_fract_x
 _atom_site_fract_y
 _atom_site_fract_z
 _atom_site_occupancy
  K  K0  1  0.33334350  0.33328647  0.09921763  1
  K  K1  1  0.99998565  0.00000846  0.25000000  1
  K  K2  1  0.33334350  0.33328647  0.40078137  1
  K  K3  1  0.66665650  0.66671353  0.59921863  1
  K  K4  1  0.00001435  0.99999154  0.75000000  1
  K  K5  1  0.66665650  0.66671353  0.90078237  1
  Zr  Zr0  1  0.00000000  0.00000000  0.00000000  1
  Zr  Zr1  1  0.00000000  0.00000000  0.50000000  1
  Pt  Pt0  1  0.66668556  0.66662651  0.15422556  1
  Pt  Pt1  1  0.66668556  0.66662651  0.34577444  1
  Pt  Pt2  1  0.33331444  0.33337349  0.65422556  1
  Pt  Pt3  1  0.33331444  0.33337349  0.84577444  1
  O  O0  1  0.82869979  0.34257381  0.08028552  1
  O  O1  1  0.34264028  0.82866688  0.08028927  1
  O  O2  1  0.82870119  0.82865352  0.08028462  1
  O  O3  1  0.95631380  0.52182477  0.25000000  1
  O  O4  1  0.52186170  0.52183979  0.25000000  1
  O  O5  1  0.52188513  0.95622836  0.25000000  1
  O  O6  1  0.82869979  0.34257381  0.41971448  1
  O  O7  1  0.34264028  0.82866688  0.41971073  1
  O  O8  1  0.82870119  0.82865352  0.41971538  1
  O  O9  1  0.17129881  0.17134648  0.58028462  1
  O  O10  1  0.65735972  0.17133312  0.58028927  1
  O  O11  1  0.17130021  0.65742619  0.58028552  1
  O  O12  1  0.47811387  0.04377164  0.75000000  1
  O  O13  1  0.47813830  0.47816021  0.75000000  1
  O  O14  1  0.04368620  0.47817423  0.75000000  1
  O  O15  1  0.17129881  0.17134648  0.91971538  1
  O  O16  1  0.65735972  0.17133312  0.91971073  1
  O  O17  1  0.17130021  0.65742619  0.91971448  1
loop_
_geom_bond_atom_site_label_1
_geom_bond_atom_site_label_2
_geom_bond_distance
_geom_bond_site_symmetry_2
K0 O3 2.872952 1_455
K0 O5 2.873093 1_545
K0 O4 2.873097 1_555
K0 O1 2.908641 1_545
K0 O0 2.908700 1_455
K0 O0 2.908700 1_555
K0 O2 2.908769 1_545
K0 O2 2.908818 1_455
K0 O1 2.908970 1_555
K0 O15 3.044724 1_554
K0 O16 3.044860 1_554
K0 O17 3.045178 1_554
K1 O4 2.903880 1_555
K1 O5 2.903881 1_545
K1 O3 2.903897 1_555
K1 O5 2.903987 1_645
K1 O3 2.904107 1_545
K1 O4 2.904119 1_645
K1 O6 2.979724 1_555
K1 O0 2.979724 1_555
K1 O7 2.979901 1_645
K1 O1 2.979901 1_645
K1 O8 2.979917 1_545
K1 O2 2.979917 1_545
K2 O3 2.872941 1_455
K2 O5 2.873082 1_545
K2 O4 2.873086 1_555
K2 O7 2.908642 1_545
K2 O6 2.908702 1_455
K2 O6 2.908702 1_555
K2 O8 2.908770 1_545
K2 O8 2.908820 1_455
K2 O7 2.908971 1_555
K2 O9 3.044736 1_555
K2 O10 3.044872 1_555
K2 O11 3.045190 1_555
K3 O14 2.872941 1_655
K3 O12 2.873082 1_565
K3 O13 2.873086 1_555
K3 O10 2.908642 1_565
K3 O11 2.908702 1_655
K3 O11 2.908702 1_555
K3 O9 2.908770 1_565
K3 O9 2.908820 1_655
K3 O10 2.908971 1_555
K3 O8 3.044736 1_555
K3 O7 3.044872 1_555
K3 O6 3.045190 1_555
K4 O12 2.903875 1_565
K4 O13 2.903880 1_555
K4 O14 2.903903 1_555
K4 O12 2.903993 1_465
K4 O14 2.904101 1_565
K4 O13 2.904119 1_465
K4 O17 2.979724 1_555
K4 O11 2.979724 1_555
K4 O16 2.979901 1_465
K4 O10 2.979901 1_465
K4 O15 2.979917 1_565
K4 O9 2.979917 1_565
K5 O14 2.872952 1_655
K5 O12 2.873093 1_565
K5 O13 2.873097 1_555
K5 O16 2.908641 1_565
K5 O17 2.908700 1_655
K5 O17 2.908700 1_555
K5 O15 2.908769 1_565
K5 O15 2.908818 1_655
K5 O16 2.908970 1_555
K5 O2 3.044724 1_556
K5 O1 3.044860 1_556
K5 O0 3.045178 1_556
O0 Pt0 1.940773 1_555
O0 Zr0 2.068469 1_655
O1 Pt0 1.940661 1_555
O1 Zr0 2.068722 1_565
O2 Pt0 1.940694 1_555
O2 Zr0 2.068714 1_665
O3 Pt1 1.999371 1_555
O3 Pt0 1.999371 1_555
O4 Pt1 1.999313 1_555
O4 Pt0 1.999313 1_555
O5 Pt1 1.999315 1_555
O5 Pt0 1.999315 1_555
O6 Pt1 1.940773 1_555
O6 Zr1 2.068469 1_655
O7 Pt1 1.940661 1_555
O7 Zr1 2.068722 1_565
O8 Pt1 1.940694 1_555
O8 Zr1 2.068714 1_665
O9 Pt2 1.940694 1_555
O9 Zr1 2.068714 1_555
O10 Pt2 1.940661 1_555
O10 Zr1 2.068722 1_655
O11 Pt2 1.940773 1_555
O11 Zr1 2.068469 1_565
O12 Pt3 1.999315 1_555
O12 Pt2 1.999315 1_555
O13 Pt3 1.999313 1_555
O13 Pt2 1.999313 1_555
O14 Pt3 1.999371 1_555
O14 Pt2 1.999371 1_555
O15 Pt3 1.940694 1_555
O15 Zr0 2.068714 1_556
O16 Pt3 1.940661 1_555
O16 Zr0 2.068722 1_656
O17 Pt3 1.940773 1_555
O17 Zr0 2.068469 1_566
