# generated using pymatgen
data_SrLi2(AgAs)2
_symmetry_space_group_name_H-M   'P 1'
_cell_length_a   8.38829220
_cell_length_b   8.38829106
_cell_length_c   8.38829186
_cell_angle_alpha   31.03610438
_cell_angle_beta   31.03610442
_cell_angle_gamma   31.03610714
_symmetry_Int_Tables_number   1
_chemical_formula_structural   SrLi2(AgAs)2
_chemical_formula_sum   'Sr1 Li2 Ag2 As2'
_cell_volume   139.19196910
_cell_formula_units_Z   1
loop_
 _symmetry_equiv_pos_site_id
 _symmetry_equiv_pos_as_xyz
  1  'x, y, z'
loop_
 _atom_site_type_symbol
 _atom_site_label
 _atom_site_symmetry_multiplicity
 _atom_site_fract_x
 _atom_site_fract_y
 _atom_site_fract_z
 _atom_site_occupancy
  Sr  Sr0  1  0.00000000  0.00000000  0.00000000  1
  Li  Li0  1  0.86035761  0.86035761  0.86035761  1
  Li  Li1  1  0.13964239  0.13964239  0.13964239  1
  Ag  Ag0  1  0.56542957  0.56542957  0.56542957  1
  Ag  Ag1  1  0.43457043  0.43457043  0.43457043  1
  As  As0  1  0.75092130  0.75092130  0.75092130  1
  As  As1  1  0.24907870  0.24907870  0.24907870  1
loop_
_geom_bond_atom_site_label_1
_geom_bond_atom_site_label_2
_geom_bond_distance
_geom_bond_site_symmetry_2
Ag0 As1 2.623084 1_565
Ag0 As1 2.623085 1_556
Ag0 As1 2.623085 1_655
Ag0 Li0 2.749595 1_545
Ag0 Li0 2.749595 1_554
Ag0 Li0 2.749596 1_455
Ag1 As0 2.623084 1_545
Ag1 As0 2.623085 1_554
Ag1 As0 2.623085 1_455
Ag1 Li1 2.749595 1_565
Ag1 Li1 2.749595 1_556
Ag1 Li1 2.749596 1_655
As0 Li0 2.619240 1_555
As0 Li1 2.910791 1_665
As0 Li1 2.910791 1_566
As0 Li1 2.910791 1_656
As0 Sr0 3.283567 1_656
As0 Sr0 3.283567 1_665
As0 Sr0 3.283568 1_566
As1 Li1 2.619240 1_555
As1 Li0 2.910791 1_445
As1 Li0 2.910791 1_544
As1 Li0 2.910791 1_454
As1 Sr0 3.283567 1_565
As1 Sr0 3.283567 1_556
As1 Sr0 3.283568 1_655
