# generated using pymatgen
data_K2Hf(IO3)6
_symmetry_space_group_name_H-M   'P 1'
_cell_length_a   7.58877513
_cell_length_b   7.58877616
_cell_length_c   7.58877508
_cell_angle_alpha   97.09726792
_cell_angle_beta   97.09726728
_cell_angle_gamma   97.09727766
_symmetry_Int_Tables_number   1
_chemical_formula_structural   K2Hf(IO3)6
_chemical_formula_sum   'K2 Hf1 I6 O18'
_cell_volume   426.06450886
_cell_formula_units_Z   1
loop_
 _symmetry_equiv_pos_site_id
 _symmetry_equiv_pos_as_xyz
  1  'x, y, z'
loop_
 _atom_site_type_symbol
 _atom_site_label
 _atom_site_symmetry_multiplicity
 _atom_site_fract_x
 _atom_site_fract_y
 _atom_site_fract_z
 _atom_site_occupancy
  K  K0  1  0.82837326  0.82837326  0.82837326  1
  K  K1  1  0.17162674  0.17162674  0.17162674  1
  Hf  Hf0  1  0.50000000  0.50000000  0.50000000  1
  I  I0  1  0.29150595  0.88829233  0.66354166  1
  I  I1  1  0.11170767  0.33645834  0.70849405  1
  I  I2  1  0.88829233  0.66354166  0.29150595  1
  I  I3  1  0.66354166  0.29150595  0.88829233  1
  I  I4  1  0.70849405  0.11170767  0.33645834  1
  I  I5  1  0.33645834  0.70849405  0.11170767  1
  O  O0  1  0.27941556  0.38588928  0.90585652  1
  O  O1  1  0.38588928  0.90585652  0.27941556  1
  O  O2  1  0.09414348  0.72058444  0.61411072  1
  O  O3  1  0.09536386  0.69065264  0.06600180  1
  O  O4  1  0.28131896  0.33508148  0.55087169  1
  O  O5  1  0.69065264  0.06600180  0.09536386  1
  O  O6  1  0.90585652  0.27941556  0.38588928  1
  O  O7  1  0.30934736  0.93399820  0.90463614  1
  O  O8  1  0.71868104  0.66491852  0.44912831  1
  O  O9  1  0.33508148  0.55087169  0.28131896  1
  O  O10  1  0.72058444  0.61411072  0.09414348  1
  O  O11  1  0.66491852  0.44912831  0.71868104  1
  O  O12  1  0.61411072  0.09414348  0.72058444  1
  O  O13  1  0.06600180  0.09536386  0.69065264  1
  O  O14  1  0.93399820  0.90463614  0.30934736  1
  O  O15  1  0.55087169  0.28131896  0.33508148  1
  O  O16  1  0.90463614  0.30934736  0.93399820  1
  O  O17  1  0.44912831  0.71868104  0.66491852  1
loop_
_geom_bond_atom_site_label_1
_geom_bond_atom_site_label_2
_geom_bond_distance
_geom_bond_site_symmetry_2
K0 O10 2.875776 1_556
K0 O2 2.875776 1_655
K0 O12 2.875777 1_565
K0 O13 2.921567 1_665
K0 O3 2.921568 1_656
K0 O5 2.921568 1_566
K0 O17 2.963979 1_555
K0 O8 2.963979 1_555
K0 O11 2.963979 1_555
K1 O0 2.875776 1_554
K1 O6 2.875776 1_455
K1 O1 2.875777 1_545
K1 O14 2.921567 1_445
K1 O16 2.921568 1_454
K1 O7 2.921568 1_544
K1 O15 2.963979 1_555
K1 O4 2.963979 1_555
K1 O9 2.963979 1_555
Hf0 O8 2.057632 1_555
Hf0 O4 2.057632 1_555
Hf0 O11 2.057632 1_555
Hf0 O9 2.057632 1_555
Hf0 O17 2.057633 1_555
Hf0 O15 2.057633 1_555
I0 O7 1.804573 1_555
I0 O2 1.809934 1_555
I0 O17 1.862347 1_555
I0 O13 2.472219 1_565
I1 O13 1.804573 1_555
I1 O0 1.809934 1_555
I1 O4 1.862346 1_555
I1 O16 2.472218 1_455
I2 O14 1.804573 1_555
I2 O10 1.809934 1_555
I2 O8 1.862346 1_555
I2 O3 2.472218 1_655
I3 O16 1.804573 1_555
I3 O12 1.809934 1_555
I3 O11 1.862346 1_555
I3 O5 2.472219 1_556
I4 O5 1.804573 1_555
I4 O6 1.809934 1_555
I4 O15 1.862347 1_555
I4 O14 2.472219 1_545
I5 O3 1.804573 1_555
I5 O1 1.809934 1_555
I5 O9 1.862346 1_555
I5 O7 2.472219 1_554
