# generated using pymatgen
data_Ca2Cd(Si3Pd10)2
_symmetry_space_group_name_H-M   'P 1'
_cell_length_a   8.62468736
_cell_length_b   8.62468662
_cell_length_c   8.62468718
_cell_angle_alpha   60.00000157
_cell_angle_beta   60.00000442
_cell_angle_gamma   60.00000440
_symmetry_Int_Tables_number   1
_chemical_formula_structural   Ca2Cd(Si3Pd10)2
_chemical_formula_sum   'Ca2 Cd1 Si6 Pd20'
_cell_volume   453.64389778
_cell_formula_units_Z   1
loop_
 _symmetry_equiv_pos_site_id
 _symmetry_equiv_pos_as_xyz
  1  'x, y, z'
loop_
 _atom_site_type_symbol
 _atom_site_label
 _atom_site_symmetry_multiplicity
 _atom_site_fract_x
 _atom_site_fract_y
 _atom_site_fract_z
 _atom_site_occupancy
  Ca  Ca0  1  0.25000000  0.25000000  0.25000000  1
  Ca  Ca1  1  0.75000000  0.75000000  0.75000000  1
  Cd  Cd0  1  0.00000000  0.00000000  0.00000000  1
  Si  Si0  1  0.73153100  0.26846900  0.26846900  1
  Si  Si1  1  0.26846900  0.73153100  0.73153100  1
  Si  Si2  1  0.26846900  0.73153100  0.26846900  1
  Si  Si3  1  0.73153100  0.26846900  0.73153100  1
  Si  Si4  1  0.26846900  0.26846900  0.73153100  1
  Si  Si5  1  0.73153100  0.73153100  0.26846900  1
  Pd  Pd0  1  0.38458945  0.38458945  0.38458945  1
  Pd  Pd1  1  0.61541055  0.61541055  0.61541055  1
  Pd  Pd2  1  0.38458945  0.38458945  0.84622865  1
  Pd  Pd3  1  0.38458945  0.84622865  0.38458945  1
  Pd  Pd4  1  0.61541055  0.61541055  0.15377135  1
  Pd  Pd5  1  0.61541055  0.15377135  0.61541055  1
  Pd  Pd6  1  0.84622865  0.38458945  0.38458945  1
  Pd  Pd7  1  0.15377135  0.61541055  0.61541055  1
  Pd  Pd8  1  0.34375730  0.00000000  0.00000000  1
  Pd  Pd9  1  0.65624270  1.00000000  1.00000000  1
  Pd  Pd10  1  1.00000000  0.34375730  0.65624270  1
  Pd  Pd11  1  0.00000000  0.65624270  0.34375730  1
  Pd  Pd12  1  0.00000000  0.34375730  1.00000000  1
  Pd  Pd13  1  0.65624270  1.00000000  0.34375730  1
  Pd  Pd14  1  1.00000000  0.65624270  0.00000000  1
  Pd  Pd15  1  0.34375730  0.00000000  0.65624270  1
  Pd  Pd16  1  0.00000000  0.00000000  0.34375730  1
  Pd  Pd17  1  1.00000000  1.00000000  0.65624270  1
  Pd  Pd18  1  0.65624270  0.34375730  1.00000000  1
  Pd  Pd19  1  0.34375730  0.65624270  0.00000000  1
loop_
_geom_bond_atom_site_label_1
_geom_bond_atom_site_label_2
_geom_bond_distance
_geom_bond_site_symmetry_2
Ca0 Pd0 2.843348 1_555
Ca0 Pd3 2.843369 1_545
Ca0 Pd2 2.843369 1_554
Ca0 Pd6 2.843369 1_455
Ca1 Pd1 2.843348 1_555
Ca1 Pd5 2.843369 1_565
Ca1 Pd4 2.843369 1_556
Ca1 Pd7 2.843369 1_655
Cd0 Pd12 2.964799 1_554
Cd0 Pd14 2.964799 1_445
Cd0 Pd11 2.964799 1_545
Cd0 Pd10 2.964799 1_454
Cd0 Pd16 2.964799 1_555
Cd0 Pd17 2.964799 1_444
Cd0 Pd8 2.964799 1_555
Cd0 Pd9 2.964799 1_444
Cd0 Pd19 2.964799 1_545
Cd0 Pd18 2.964799 1_454
Cd0 Pd15 2.964799 1_554
Cd0 Pd13 2.964799 1_445
Pd0 Si2 2.443182 1_555
Pd0 Si4 2.443182 1_555
Pd0 Si0 2.443182 1_555
Pd1 Si3 2.443182 1_555
Pd1 Si5 2.443182 1_555
Pd1 Si1 2.443182 1_555
Pd2 Si4 2.443161 1_555
Pd2 Si1 2.443182 1_555
Pd2 Si3 2.443182 1_555
Pd3 Si2 2.443161 1_555
Pd3 Si1 2.443182 1_555
Pd3 Si5 2.443182 1_555
Pd4 Si5 2.443161 1_555
Pd4 Si0 2.443182 1_555
Pd4 Si2 2.443182 1_555
Pd5 Si3 2.443161 1_555
Pd5 Si0 2.443182 1_555
Pd5 Si4 2.443182 1_555
Pd6 Si0 2.443161 1_555
Pd6 Si5 2.443182 1_555
Pd6 Si3 2.443182 1_555
Pd7 Si1 2.443161 1_555
Pd7 Si4 2.443182 1_555
Pd7 Si2 2.443182 1_555
Pd8 Si2 2.404787 1_545
Pd8 Si4 2.404787 1_554
Pd9 Si3 2.404787 1_565
Pd9 Si5 2.404787 1_556
Pd10 Si3 2.404787 1_555
Pd10 Si4 2.404787 1_655
Pd11 Si2 2.404787 1_555
Pd11 Si5 2.404787 1_455
Pd12 Si0 2.404787 1_456
Pd12 Si4 2.404787 1_555
Pd13 Si0 2.404787 1_565
Pd13 Si5 2.404787 1_555
Pd14 Si1 2.404787 1_654
Pd14 Si5 2.404787 1_555
Pd15 Si1 2.404787 1_545
Pd15 Si4 2.404787 1_555
Pd16 Si0 2.404787 1_455
Pd16 Si2 2.404787 1_545
Pd17 Si1 2.404787 1_655
Pd17 Si3 2.404787 1_565
Pd18 Si0 2.404787 1_556
Pd18 Si3 2.404787 1_555
Pd19 Si1 2.404787 1_554
Pd19 Si2 2.404787 1_555
