# generated using pymatgen
data_Hf6ZnAuC2
_symmetry_space_group_name_H-M   'P 1'
_cell_length_a   5.94392481
_cell_length_b   5.94392569
_cell_length_c   8.92921439
_cell_angle_alpha   90.00000000
_cell_angle_beta   90.00000000
_cell_angle_gamma   147.35523655
_symmetry_Int_Tables_number   1
_chemical_formula_structural   Hf6ZnAuC2
_chemical_formula_sum   'Hf6 Zn1 Au1 C2'
_cell_volume   170.17433433
_cell_formula_units_Z   1
loop_
 _symmetry_equiv_pos_site_id
 _symmetry_equiv_pos_as_xyz
  1  'x, y, z'
loop_
 _atom_site_type_symbol
 _atom_site_label
 _atom_site_symmetry_multiplicity
 _atom_site_fract_x
 _atom_site_fract_y
 _atom_site_fract_z
 _atom_site_occupancy
  Hf  Hf0  1  0.62952198  0.37047802  0.95266783  1
  Hf  Hf1  1  0.37262649  0.62737351  0.44809164  1
  Hf  Hf2  1  0.37262649  0.62737351  0.05190836  1
  Hf  Hf3  1  0.62952198  0.37047802  0.54733217  1
  Hf  Hf4  1  0.95207680  0.04792320  0.75000000  1
  Hf  Hf5  1  0.04932873  0.95067127  0.25000000  1
  Zn  Zn0  1  0.74681113  0.25318887  0.25000000  1
  Au  Au0  1  0.24930586  0.75069414  0.75000000  1
  C  C0  1  0.99908928  0.00091072  0.00097375  1
  C  C1  1  0.99908928  0.00091072  0.49902625  1
loop_
_geom_bond_atom_site_label_1
_geom_bond_atom_site_label_2
_geom_bond_distance
_geom_bond_site_symmetry_2
Hf0 Zn0 2.973093 1_556
Hf1 Zn0 2.824810 1_455
Hf1 Zn0 2.824810 1_565
Hf2 Zn0 2.824810 1_455
Hf2 Zn0 2.824810 1_565
Hf3 Zn0 2.973093 1_555
Hf5 Zn0 2.804753 1_565
Hf5 Zn0 2.804754 1_455
Au0 Hf3 2.816552 1_455
Au0 Hf0 2.816552 1_455
Au0 Hf3 2.816552 1_565
Au0 Hf0 2.816552 1_565
Au0 Hf4 2.853446 1_565
Au0 Hf4 2.853447 1_455
Au0 Hf1 3.040857 1_555
Au0 Hf2 3.040857 1_556
C0 Hf2 2.253662 1_545
C0 Hf2 2.253663 1_655
C0 Hf0 2.278363 1_654
C0 Hf0 2.278364 1_544
C0 Hf5 2.296292 1_645
C0 Hf4 2.304289 1_554
C1 Hf1 2.253662 1_545
C1 Hf1 2.253663 1_655
C1 Hf3 2.278363 1_655
C1 Hf3 2.278364 1_545
C1 Hf5 2.296292 1_645
C1 Hf4 2.304289 1_555
