# generated using pymatgen
data_NaSbSe2
_symmetry_space_group_name_H-M   'P 1'
_cell_length_a   7.29969355
_cell_length_b   7.29969355
_cell_length_c   7.29969355
_cell_angle_alpha   132.93484136
_cell_angle_beta   132.93484136
_cell_angle_gamma   68.75649407
_symmetry_Int_Tables_number   1
_chemical_formula_structural   NaSbSe2
_chemical_formula_sum   'Na2 Sb2 Se4'
_cell_volume   204.70798373
_cell_formula_units_Z   2
loop_
 _symmetry_equiv_pos_site_id
 _symmetry_equiv_pos_as_xyz
  1  'x, y, z'
loop_
 _atom_site_type_symbol
 _atom_site_label
 _atom_site_symmetry_multiplicity
 _atom_site_fract_x
 _atom_site_fract_y
 _atom_site_fract_z
 _atom_site_occupancy
  Na  Na0  1  0.25000000  0.75000000  0.50000000  1
  Na  Na1  1  0.50000000  0.50000000  0.00000000  1
  Sb  Sb0  1  0.00000000  0.00000000  0.00000000  1
  Sb  Sb1  1  0.75000000  0.25000000  0.50000000  1
  Se  Se0  1  0.51087900  0.01087900  0.50000000  1
  Se  Se1  1  0.98912100  0.48912100  0.50000000  1
  Se  Se2  1  0.76087900  0.76087900  0.00000000  1
  Se  Se3  1  0.23912100  0.23912100  0.00000000  1
loop_
_geom_bond_atom_site_label_1
_geom_bond_atom_site_label_2
_geom_bond_distance
_geom_bond_site_symmetry_2
Na0 Se3 2.917498 1_555
Na0 Se3 2.917498 1_566
Na0 Se2 2.917498 1_556
Na0 Se2 2.917498 1_455
Na0 Se0 3.143405 1_565
Na0 Se1 3.143405 1_455
Na1 Se1 2.917498 1_555
Na1 Se0 2.917498 1_554
Na1 Se0 2.917498 1_565
Na1 Se1 2.917498 1_454
Na1 Se2 3.143405 1_555
Na1 Se3 3.143405 1_555
Sb0 Se3 2.881236 1_555
Sb0 Se2 2.881236 1_445
Sb0 Se1 2.917498 1_444
Sb0 Se0 2.917498 1_555
Sb0 Se0 2.917498 1_454
Sb0 Se1 2.917498 1_455
Sb1 Se1 2.881236 1_555
Sb1 Se0 2.881236 1_555
Sb1 Se3 2.917498 1_656
Sb1 Se3 2.917498 1_555
Sb1 Se2 2.917498 1_556
Sb1 Se2 2.917498 1_545
