# generated using pymatgen
data_Ca5Cd(SbN)2
_symmetry_space_group_name_H-M   'P 1'
_cell_length_a   6.94683114
_cell_length_b   6.94615372
_cell_length_c   9.24279202
_cell_angle_alpha   90.00000000
_cell_angle_beta   90.00000000
_cell_angle_gamma   90.00000000
_symmetry_Int_Tables_number   1
_chemical_formula_structural   Ca5Cd(SbN)2
_chemical_formula_sum   'Ca10 Cd2 Sb4 N4'
_cell_volume   445.99943937
_cell_formula_units_Z   2
loop_
 _symmetry_equiv_pos_site_id
 _symmetry_equiv_pos_as_xyz
  1  'x, y, z'
loop_
 _atom_site_type_symbol
 _atom_site_label
 _atom_site_symmetry_multiplicity
 _atom_site_fract_x
 _atom_site_fract_y
 _atom_site_fract_z
 _atom_site_occupancy
  Ca  Ca0  1  0.74938877  0.74939007  0.98549533  1
  Ca  Ca1  1  0.75061123  0.24939007  0.51450467  1
  Ca  Ca2  1  0.25060859  0.25061635  0.51431705  1
  Ca  Ca3  1  0.24939141  0.75061635  0.98568295  1
  Ca  Ca4  1  0.25060859  0.25061635  0.98568295  1
  Ca  Ca5  1  0.24939141  0.75061635  0.51431705  1
  Ca  Ca6  1  0.74938877  0.74939007  0.51450467  1
  Ca  Ca7  1  0.75061123  0.24939007  0.98549533  1
  Ca  Ca8  1  0.50016984  0.00000925  0.25000000  1
  Ca  Ca9  1  0.99983016  0.50000925  0.25000000  1
  Cd  Cd0  1  0.49970572  0.00005651  0.75000000  1
  Cd  Cd1  1  0.00029428  0.50005651  0.75000000  1
  Sb  Sb0  1  0.49998756  0.49995381  0.25000000  1
  Sb  Sb1  1  0.00001244  0.99995381  0.25000000  1
  Sb  Sb2  1  0.50003603  0.49997198  0.75000000  1
  Sb  Sb3  1  0.99996397  0.99997198  0.75000000  1
  N  N0  1  0.99997442  0.49999779  0.99297434  1
  N  N1  1  0.50002558  0.99999779  0.50702566  1
  N  N2  1  0.99997442  0.49999779  0.50702566  1
  N  N3  1  0.50002558  0.99999779  0.99297434  1
loop_
_geom_bond_atom_site_label_1
_geom_bond_atom_site_label_2
_geom_bond_distance
_geom_bond_site_symmetry_2
Ca0 N3 2.456793 1_555
Ca0 N0 2.456828 1_555
Ca0 Sb2 3.277169 1_555
Ca0 Sb3 3.285941 1_555
Ca0 Sb0 3.461295 1_556
Ca0 Sb1 3.469476 1_656
Ca1 N2 2.456793 1_555
Ca1 N1 2.456828 1_545
Ca1 Sb3 3.277169 1_545
Ca1 Sb2 3.285941 1_555
Ca1 Sb1 3.461295 1_645
Ca1 Sb0 3.469476 1_555
Ca2 N2 2.456965 1_455
Ca2 N1 2.457061 1_545
Ca2 Sb2 3.278366 1_555
Ca2 Sb3 3.287575 1_445
Ca2 Sb0 3.459649 1_555
Ca2 Sb1 3.468503 1_545
Ca3 N3 2.456965 1_555
Ca3 N0 2.457061 1_455
Ca3 Sb3 3.278366 1_455
Ca3 Sb2 3.287575 1_555
Ca3 Sb1 3.459649 1_556
Ca3 Sb0 3.468503 1_556
Ca4 N0 2.456965 1_455
Ca4 N3 2.457061 1_545
Ca4 Sb2 3.278366 1_555
Ca4 Sb3 3.287575 1_445
Ca4 Sb0 3.459649 1_556
Ca4 Sb1 3.468503 1_546
Ca5 N1 2.456965 1_555
Ca5 N2 2.457061 1_455
Ca5 Sb3 3.278366 1_455
Ca5 Sb2 3.287575 1_555
Ca5 Sb1 3.459649 1_555
Ca5 Sb0 3.468503 1_555
Ca6 N1 2.456793 1_555
Ca6 N2 2.456828 1_555
Ca6 Sb2 3.277169 1_555
Ca6 Sb3 3.285941 1_555
Ca6 Sb0 3.461295 1_555
Ca6 Sb1 3.469476 1_655
Ca7 N0 2.456793 1_555
Ca7 N3 2.456828 1_545
Ca7 Sb3 3.277169 1_545
Ca7 Sb2 3.285941 1_555
Ca7 Sb1 3.461295 1_646
Ca7 Sb0 3.469476 1_556
Ca8 N1 2.375635 1_545
Ca8 N3 2.375635 1_544
Ca8 Sb1 3.472322 1_645
Ca8 Sb0 3.472692 1_555
Ca8 Sb0 3.473462 1_545
Ca8 Sb1 3.474509 1_545
Ca9 N2 2.375635 1_555
Ca9 N0 2.375635 1_554
Ca9 Sb0 3.472322 1_555
Ca9 Sb1 3.472692 1_655
Ca9 Sb1 3.473462 1_645
Ca9 Sb0 3.474509 1_655
Cd0 N3 2.245762 1_545
Cd0 N1 2.245762 1_545
Cd0 Sb3 3.471622 1_445
Cd0 Sb2 3.472490 1_555
Cd0 Sb2 3.473665 1_545
Cd0 Sb3 3.475210 1_545
Cd1 N0 2.245762 1_455
Cd1 N2 2.245762 1_455
Cd1 Sb2 3.471622 1_555
Cd1 Sb3 3.472490 1_455
Cd1 Sb3 3.473665 1_445
Cd1 Sb2 3.475210 1_455
