# generated using pymatgen
data_K4HfZrI12
_symmetry_space_group_name_H-M   'P 1'
_cell_length_a   8.02023297
_cell_length_b   8.02023297
_cell_length_c   11.94997088
_cell_angle_alpha   90.00000000
_cell_angle_beta   90.00000000
_cell_angle_gamma   90.00000000
_symmetry_Int_Tables_number   1
_chemical_formula_structural   K4HfZrI12
_chemical_formula_sum   'K4 Hf1 Zr1 I12'
_cell_volume   768.67156347
_cell_formula_units_Z   1
loop_
 _symmetry_equiv_pos_site_id
 _symmetry_equiv_pos_as_xyz
  1  'x, y, z'
loop_
 _atom_site_type_symbol
 _atom_site_label
 _atom_site_symmetry_multiplicity
 _atom_site_fract_x
 _atom_site_fract_y
 _atom_site_fract_z
 _atom_site_occupancy
  K  K0  1  0.00000000  0.50000000  0.25074850  1
  K  K1  1  0.00000000  0.50000000  0.74925150  1
  K  K2  1  0.50000000  0.00000000  0.74925150  1
  K  K3  1  0.50000000  0.00000000  0.25074850  1
  Hf  Hf0  1  0.00000000  0.00000000  0.50000000  1
  Zr  Zr0  1  0.50000000  0.50000000  0.00000000  1
  I  I0  1  0.81700026  0.69641398  0.50000000  1
  I  I1  1  0.19286724  0.31702340  0.00000000  1
  I  I2  1  0.50000000  0.50000000  0.75864046  1
  I  I3  1  0.30358602  0.81700026  0.50000000  1
  I  I4  1  0.00000000  0.00000000  0.26029789  1
  I  I5  1  0.80713276  0.68297660  0.00000000  1
  I  I6  1  0.68297660  0.19286724  0.00000000  1
  I  I7  1  0.31702340  0.80713276  0.00000000  1
  I  I8  1  0.00000000  0.00000000  0.73970211  1
  I  I9  1  0.18299974  0.30358602  0.50000000  1
  I  I10  1  0.50000000  0.50000000  0.24135954  1
  I  I11  1  0.69641398  0.18299974  0.50000000  1
loop_
_geom_bond_atom_site_label_1
_geom_bond_atom_site_label_2
_geom_bond_distance
_geom_bond_site_symmetry_2
Hf0 I9 2.842982 1_555
Hf0 I3 2.842982 1_545
Hf0 I11 2.842982 1_455
Hf0 I0 2.842982 1_445
Hf0 I8 2.864433 1_555
Hf0 I4 2.864433 1_555
I0 K1 3.675244 1_655
I0 K0 3.675244 1_655
I1 Zr0 2.867286 1_555
I1 K0 3.677628 1_555
I1 K1 3.677628 1_554
I2 Zr0 2.884240 1_556
I2 K1 4.011686 1_655
I2 K2 4.011686 1_555
I2 K2 4.011686 1_565
I2 K1 4.011686 1_555
I3 K2 3.675244 1_565
I3 K3 3.675244 1_565
I4 K3 4.011740 1_555
I4 K0 4.011740 1_555
I4 K0 4.011740 1_545
I4 K3 4.011740 1_455
I5 Zr0 2.867286 1_555
I5 K0 3.677628 1_655
I5 K1 3.677628 1_654
I6 Zr0 2.867286 1_555
I6 K3 3.677628 1_555
I6 K2 3.677628 1_554
I7 Zr0 2.867286 1_555
I7 K3 3.677628 1_565
I7 K2 3.677628 1_564
I8 K2 4.011740 1_555
I8 K1 4.011740 1_555
I8 K2 4.011740 1_455
I8 K1 4.011740 1_545
I9 K1 3.675244 1_555
I9 K0 3.675244 1_555
I10 Zr0 2.884240 1_555
I10 K3 4.011686 1_555
I10 K0 4.011686 1_555
I10 K0 4.011686 1_655
I10 K3 4.011686 1_565
I11 K2 3.675244 1_555
I11 K3 3.675244 1_555
