# generated using pymatgen
data_Dy2CoSi2
_symmetry_space_group_name_H-M   'P 1'
_cell_length_a   4.14886842
_cell_length_b   5.56664973
_cell_length_c   8.97680861
_cell_angle_alpha   83.45519886
_cell_angle_beta   76.63883857
_cell_angle_gamma   68.12060494
_symmetry_Int_Tables_number   1
_chemical_formula_structural   Dy2CoSi2
_chemical_formula_sum   'Dy4 Co2 Si4'
_cell_volume   187.09212511
_cell_formula_units_Z   2
loop_
 _symmetry_equiv_pos_site_id
 _symmetry_equiv_pos_as_xyz
  1  'x, y, z'
loop_
 _atom_site_type_symbol
 _atom_site_label
 _atom_site_symmetry_multiplicity
 _atom_site_fract_x
 _atom_site_fract_y
 _atom_site_fract_z
 _atom_site_occupancy
  Dy  Dy0  1  0.18824291  0.72716688  0.89634730  1
  Dy  Dy1  1  0.81175709  0.27283312  0.10365270  1
  Dy  Dy2  1  0.00131856  0.32566404  0.67169885  1
  Dy  Dy3  1  -0.00131856  0.67433596  0.32830115  1
  Co  Co0  1  0.72753527  0.91845752  0.62647194  1
  Co  Co1  1  0.27246473  0.08154248  0.37352806  1
  Si  Si0  1  0.49769684  0.13007682  0.87453049  1
  Si  Si1  1  0.50230316  0.86992318  0.12547051  1
  Si  Si2  1  0.34731526  0.74045624  0.56491324  1
  Si  Si3  1  0.65268474  0.25954376  0.43508676  1
loop_
_geom_bond_atom_site_label_1
_geom_bond_atom_site_label_2
_geom_bond_distance
_geom_bond_site_symmetry_2
Dy0 Si2 2.893384 1_555
Dy0 Si0 2.940567 1_465
Dy0 Si0 2.940570 1_565
Dy0 Si1 2.990429 1_456
Dy0 Si1 2.990430 1_556
Dy0 Si0 3.096124 1_555
Dy1 Si3 2.893384 1_555
Dy1 Si1 2.940568 1_645
Dy1 Si1 2.940569 1_545
Dy1 Si0 2.990423 1_554
Dy1 Si0 2.990424 1_654
Dy1 Si1 3.096124 1_555
Dy2 Si0 2.889946 1_455
Dy2 Si0 2.889949 1_555
Dy2 Si3 2.955342 1_555
Dy2 Si3 2.955343 1_455
Dy2 Si2 3.104974 1_555
Dy2 Si2 3.104974 1_455
Dy2 Si2 3.190985 1_545
Dy3 Si1 2.889942 1_555
Dy3 Si1 2.889942 1_455
Dy3 Si2 2.955342 1_455
Dy3 Si2 2.955343 1_555
Dy3 Si3 3.104974 1_455
Dy3 Si3 3.104974 1_555
Dy3 Si3 3.190985 1_465
Co0 Si2 2.338446 1_655
Co0 Si2 2.338446 1_555
Co0 Si3 2.390954 1_565
Co0 Si0 2.456605 1_565
Co0 Dy3 2.928256 1_655
Co0 Dy2 2.989198 1_565
Co0 Dy2 2.989199 1_665
Co0 Dy2 3.075442 1_655
Co0 Dy0 3.269803 1_555
Co0 Dy0 3.269804 1_655
Co1 Si3 2.338446 1_455
Co1 Si3 2.338446 1_555
Co1 Si2 2.390954 1_545
Co1 Si1 2.456597 1_545
Co1 Dy2 2.928256 1_555
Co1 Dy3 2.989198 1_645
Co1 Dy3 2.989199 1_545
Co1 Dy3 3.075442 1_555
Co1 Dy1 3.269803 1_555
Co1 Dy1 3.269804 1_455
Si0 Si1 2.535271 1_546
Si2 Si3 2.762430 1_555
