# generated using pymatgen
data_Sr2ReNiN4
_symmetry_space_group_name_H-M   'P 1'
_cell_length_a   5.80208147
_cell_length_b   6.26016536
_cell_length_c   7.26733887
_cell_angle_alpha   69.60454506
_cell_angle_beta   90.00000000
_cell_angle_gamma   90.00000000
_symmetry_Int_Tables_number   1
_chemical_formula_structural   Sr2ReNiN4
_chemical_formula_sum   'Sr4 Re2 Ni2 N8'
_cell_volume   247.41619390
_cell_formula_units_Z   2
loop_
 _symmetry_equiv_pos_site_id
 _symmetry_equiv_pos_as_xyz
  1  'x, y, z'
loop_
 _atom_site_type_symbol
 _atom_site_label
 _atom_site_symmetry_multiplicity
 _atom_site_fract_x
 _atom_site_fract_y
 _atom_site_fract_z
 _atom_site_occupancy
  Sr  Sr0  1  0.25000000  0.26710698  0.05632172  1
  Sr  Sr1  1  0.75000000  0.73289302  0.94367828  1
  Sr  Sr2  1  0.75000000  0.82650878  0.41313582  1
  Sr  Sr3  1  0.25000000  0.17349122  0.58686418  1
  Re  Re0  1  0.25000000  0.70962571  0.20854768  1
  Re  Re1  1  0.75000000  0.29037429  0.79145232  1
  Ni  Ni0  1  0.75000000  0.34129551  0.39040056  1
  Ni  Ni1  1  0.25000000  0.65870449  0.60959944  1
  N  N0  1  0.49778749  0.47440138  0.74563534  1
  N  N1  1  0.99778749  0.52559862  0.25436466  1
  N  N2  1  0.50221251  0.52559862  0.25436466  1
  N  N3  1  0.00221251  0.47440138  0.74563534  1
  N  N4  1  0.75000000  0.10068861  0.63278430  1
  N  N5  1  0.25000000  0.89931139  0.36721570  1
  N  N6  1  0.75000000  0.10440113  0.04513774  1
  N  N7  1  0.25000000  0.89559887  0.95486226  1
loop_
_geom_bond_atom_site_label_1
_geom_bond_atom_site_label_2
_geom_bond_distance
_geom_bond_site_symmetry_2
N0 Re1 1.819922 1_555
N0 Ni1 1.892211 1_555
N0 Sr0 2.608962 1_556
N0 Sr1 2.907698 1_555
N0 Sr3 2.908908 1_555
N0 Sr2 3.021033 1_555
N1 Re0 1.819922 1_655
N1 Ni0 1.892211 1_555
N1 Sr1 2.608962 1_554
N1 Sr0 2.907698 1_655
N1 Sr2 2.908908 1_555
N1 Sr3 3.021033 1_655
N2 Re0 1.819922 1_555
N2 Ni0 1.892211 1_555
N2 Sr1 2.608962 1_554
N2 Sr0 2.907698 1_555
N2 Sr2 2.908908 1_555
N2 Sr3 3.021033 1_555
N3 Re1 1.819922 1_455
N3 Ni1 1.892211 1_555
N3 Sr0 2.608962 1_556
N3 Sr1 2.907698 1_455
N3 Sr3 2.908908 1_555
N3 Sr2 3.021033 1_455
N4 Ni0 1.876780 1_555
N4 Re1 1.921995 1_555
N4 Sr1 2.603889 1_545
N4 Sr2 2.720986 1_545
N4 Sr3 2.937535 1_555
N4 Sr3 2.937535 1_655
N5 Ni1 1.876780 1_555
N5 Re0 1.921995 1_555
N5 Sr0 2.603889 1_565
N5 Sr3 2.720986 1_565
N5 Sr2 2.937535 1_455
N5 Sr2 2.937535 1_555
N6 Re1 1.805083 1_554
N6 Sr2 2.633606 1_545
N6 Sr1 2.673536 1_544
N6 Sr0 3.085097 1_655
N6 Sr0 3.085097 1_555
N7 Re0 1.805083 1_556
N7 Sr3 2.633606 1_565
N7 Sr0 2.673536 1_566
N7 Sr1 3.085097 1_455
N7 Sr1 3.085097 1_555
