# generated using pymatgen
data_Zr3Al2CoC
_symmetry_space_group_name_H-M   'P 1'
_cell_length_a   8.54374632
_cell_length_b   8.54374629
_cell_length_c   8.54374701
_cell_angle_alpha   60.00000105
_cell_angle_beta   60.00000114
_cell_angle_gamma   60.00000067
_symmetry_Int_Tables_number   1
_chemical_formula_structural   Zr3Al2CoC
_chemical_formula_sum   'Zr12 Al8 Co4 C4'
_cell_volume   440.99135870
_cell_formula_units_Z   4
loop_
 _symmetry_equiv_pos_site_id
 _symmetry_equiv_pos_as_xyz
  1  'x, y, z'
loop_
 _atom_site_type_symbol
 _atom_site_label
 _atom_site_symmetry_multiplicity
 _atom_site_fract_x
 _atom_site_fract_y
 _atom_site_fract_z
 _atom_site_occupancy
  Zr  Zr0  1  0.55017229  0.94982771  0.55017229  1
  Zr  Zr1  1  0.30017229  0.69982771  0.69982771  1
  Zr  Zr2  1  0.69982771  0.30017229  0.30017229  1
  Zr  Zr3  1  0.30017229  0.69982771  0.30017229  1
  Zr  Zr4  1  0.69982771  0.69982771  0.30017229  1
  Zr  Zr5  1  0.30017229  0.30017229  0.69982771  1
  Zr  Zr6  1  0.55017229  0.55017229  0.94982771  1
  Zr  Zr7  1  0.94982771  0.55017229  0.55017229  1
  Zr  Zr8  1  0.55017229  0.94982771  0.94982771  1
  Zr  Zr9  1  0.94982771  0.94982771  0.55017229  1
  Zr  Zr10  1  0.69982771  0.30017229  0.69982771  1
  Zr  Zr11  1  0.94982771  0.55017229  0.94982771  1
  Al  Al0  1  0.92184733  0.92184733  0.92184733  1
  Al  Al1  1  0.01554198  0.32815267  0.32815267  1
  Al  Al2  1  0.32815267  0.01554198  0.32815267  1
  Al  Al3  1  0.32815267  0.32815267  0.01554198  1
  Al  Al4  1  0.92184733  0.23445802  0.92184733  1
  Al  Al5  1  0.92184733  0.92184733  0.23445802  1
  Al  Al6  1  0.23445802  0.92184733  0.92184733  1
  Al  Al7  1  0.32815267  0.32815267  0.32815267  1
  Co  Co0  1  0.12500000  0.12500000  0.12500000  1
  Co  Co1  1  0.62500000  0.12500000  0.12500000  1
  Co  Co2  1  0.12500000  0.62500000  0.12500000  1
  Co  Co3  1  0.12500000  0.12500000  0.62500000  1
  C  C0  1  0.62500000  0.62500000  0.62500000  1
  C  C1  1  0.12500000  0.62500000  0.62500000  1
  C  C2  1  0.62500000  0.12500000  0.62500000  1
  C  C3  1  0.62500000  0.62500000  0.12500000  1
loop_
_geom_bond_atom_site_label_1
_geom_bond_atom_site_label_2
_geom_bond_distance
_geom_bond_site_symmetry_2
Al0 Co2 2.581862 1_656
Al0 Co1 2.581862 1_566
Al0 Co3 2.581862 1_665
Al0 Al4 2.670866 1_565
Al0 Al6 2.670866 1_655
Al0 Al5 2.670867 1_556
Al0 Zr11 2.955838 1_555
Al0 Zr8 2.955838 1_555
Al0 Zr9 2.955838 1_555
Al0 Zr10 2.996612 1_565
Al0 Zr1 2.996612 1_655
Al0 Zr4 2.996612 1_556
Al1 Co2 2.581862 1_555
Al1 Co0 2.581862 1_555
Al1 Co3 2.581862 1_555
Al1 Al7 2.670866 1_555
Al1 Al2 2.670866 1_555
Al1 Al3 2.670867 1_555
Al1 Zr2 2.955838 1_455
Al1 Zr4 2.955838 1_455
Al1 Zr10 2.955838 1_455
Al1 Zr9 2.996612 1_445
Al1 Zr7 2.996612 1_455
Al1 Zr11 2.996612 1_454
Al2 Co1 2.581862 1_555
Al2 Co0 2.581862 1_555
Al2 Co3 2.581862 1_555
Al2 Al7 2.670866 1_555
Al2 Al3 2.670867 1_555
Al2 Zr3 2.955838 1_545
Al2 Zr4 2.955838 1_545
Al2 Zr1 2.955838 1_545
Al2 Zr9 2.996612 1_445
Al2 Zr0 2.996612 1_545
Al2 Zr8 2.996612 1_544
Al3 Co0 2.581862 1_555
Al3 Co2 2.581862 1_555
Al3 Co1 2.581862 1_555
Al3 Al7 2.670867 1_555
Al3 Zr1 2.955838 1_554
Al3 Zr10 2.955838 1_554
Al3 Zr5 2.955838 1_554
Al3 Zr6 2.996612 1_554
Al3 Zr8 2.996612 1_544
Al3 Zr11 2.996612 1_454
Al4 Co1 2.581862 1_556
Al4 Co0 2.581862 1_656
Al4 Co3 2.581862 1_655
Al4 Al6 2.670866 1_645
Al4 Al5 2.670867 1_546
Al4 Zr11 2.955838 1_555
Al4 Zr6 2.955838 1_555
Al4 Zr7 2.955838 1_555
Al4 Zr5 2.996612 1_655
Al4 Zr10 2.996612 1_555
Al4 Zr2 2.996612 1_556
Al5 Co0 2.581862 1_665
Al5 Co2 2.581862 1_655
Al5 Co1 2.581862 1_565
Al5 Al6 2.670867 1_654
Al5 Zr7 2.955838 1_555
Al5 Zr0 2.955838 1_555
Al5 Zr9 2.955838 1_555
Al5 Zr4 2.996612 1_555
Al5 Zr2 2.996612 1_565
Al5 Zr3 2.996612 1_655
Al6 Co2 2.581862 1_556
Al6 Co0 2.581862 1_566
Al6 Co3 2.581862 1_565
Al6 Zr8 2.955838 1_555
Al6 Zr6 2.955838 1_555
Al6 Zr0 2.955838 1_555
Al6 Zr5 2.996612 1_565
Al6 Zr1 2.996612 1_555
Al6 Zr3 2.996612 1_556
Al7 Co2 2.581862 1_555
Al7 Co1 2.581862 1_555
Al7 Co3 2.581862 1_555
Al7 Zr3 2.955838 1_555
Al7 Zr2 2.955838 1_555
Al7 Zr5 2.955838 1_555
Al7 Zr0 2.996612 1_545
Al7 Zr7 2.996612 1_455
Al7 Zr6 2.996612 1_554
Co0 Zr11 3.006994 1_454
Co0 Zr3 3.006994 1_545
Co0 Zr8 3.006994 1_544
Co0 Zr2 3.006994 1_455
Co0 Zr5 3.006994 1_554
Co0 Zr9 3.006994 1_445
Co1 Zr6 3.006994 1_554
Co1 Zr4 3.006994 1_545
Co1 Zr2 3.006994 1_555
Co1 Zr8 3.006994 1_544
Co1 Zr0 3.006994 1_545
Co1 Zr10 3.006994 1_554
Co2 Zr6 3.006994 1_554
Co2 Zr4 3.006994 1_455
Co2 Zr3 3.006994 1_555
Co2 Zr11 3.006994 1_454
Co2 Zr7 3.006994 1_455
Co2 Zr1 3.006994 1_554
Co3 Zr7 3.006994 1_455
Co3 Zr1 3.006994 1_545
Co3 Zr5 3.006994 1_555
Co3 Zr9 3.006994 1_445
Co3 Zr0 3.006994 1_545
Co3 Zr10 3.006994 1_455
C0 Zr0 2.319409 1_555
C0 Zr10 2.319409 1_555
C0 Zr7 2.319409 1_555
C0 Zr1 2.319409 1_555
C0 Zr6 2.319409 1_555
C0 Zr4 2.319409 1_555
C1 Zr5 2.319409 1_555
C1 Zr9 2.319409 1_455
C1 Zr1 2.319409 1_555
C1 Zr7 2.319409 1_455
C1 Zr11 2.319409 1_455
C1 Zr3 2.319409 1_555
C2 Zr10 2.319409 1_555
C2 Zr0 2.319409 1_545
C2 Zr9 2.319409 1_545
C2 Zr5 2.319409 1_555
C2 Zr8 2.319409 1_545
C2 Zr2 2.319409 1_555
C3 Zr8 2.319409 1_554
C3 Zr2 2.319409 1_555
C3 Zr11 2.319409 1_554
C3 Zr3 2.319409 1_555
C3 Zr4 2.319409 1_555
C3 Zr6 2.319409 1_554
