# generated using pymatgen
data_Rb2IF7
_symmetry_space_group_name_H-M   'P 1'
_cell_length_a   6.01067709
_cell_length_b   5.82865260
_cell_length_c   10.65354430
_cell_angle_alpha   90.00000000
_cell_angle_beta   90.00000000
_cell_angle_gamma   90.00000000
_symmetry_Int_Tables_number   1
_chemical_formula_structural   Rb2IF7
_chemical_formula_sum   'Rb4 I2 F14'
_cell_volume   373.23785490
_cell_formula_units_Z   2
loop_
 _symmetry_equiv_pos_site_id
 _symmetry_equiv_pos_as_xyz
  1  'x, y, z'
loop_
 _atom_site_type_symbol
 _atom_site_label
 _atom_site_symmetry_multiplicity
 _atom_site_fract_x
 _atom_site_fract_y
 _atom_site_fract_z
 _atom_site_occupancy
  Rb  Rb0  1  0.00000000  0.50000000  0.36854700  1
  Rb  Rb1  1  0.50000000  0.00000000  0.63145300  1
  Rb  Rb2  1  0.50000000  0.50000000  0.99159008  1
  Rb  Rb3  1  0.00000000  0.00000000  0.00840992  1
  I  I0  1  0.00000000  0.50000000  0.75838098  1
  I  I1  1  0.50000000  0.00000000  0.24161902  1
  F  F0  1  0.22256939  0.25154439  0.80368543  1
  F  F1  1  0.27743061  0.24845561  0.19631457  1
  F  F2  1  0.72256939  0.75154439  0.19631457  1
  F  F3  1  0.77743061  0.74845561  0.80368543  1
  F  F4  1  0.22256939  0.74845561  0.80368543  1
  F  F5  1  0.72256939  0.24845561  0.19631457  1
  F  F6  1  0.27743061  0.75154439  0.19631457  1
  F  F7  1  0.77743061  0.25154439  0.80368543  1
  F  F8  1  0.00000000  0.50000000  0.95122906  1
  F  F9  1  0.50000000  0.00000000  0.04877094  1
  F  F10  1  0.21296130  0.50000000  0.60450691  1
  F  F11  1  0.78703870  0.50000000  0.60450691  1
  F  F12  1  0.28703870  0.00000000  0.39549309  1
  F  F13  1  0.71296130  0.00000000  0.39549309  1
loop_
_geom_bond_atom_site_label_1
_geom_bond_atom_site_label_2
_geom_bond_distance
_geom_bond_site_symmetry_2
F0 I0 2.029733 1_555
F0 Rb1 2.880478 1_555
F0 Rb3 2.948944 1_556
F0 Rb2 2.980820 1_555
F1 I1 2.029733 1_555
F1 Rb0 2.880478 1_555
F1 Rb2 2.948944 1_554
F1 Rb3 2.980820 1_555
F2 I1 2.029733 1_565
F2 Rb0 2.880478 1_655
F2 Rb2 2.948944 1_554
F2 Rb3 2.980820 1_665
F3 I0 2.029733 1_655
F3 Rb1 2.880478 1_565
F3 Rb3 2.948944 1_666
F3 Rb2 2.980820 1_555
F4 I0 2.029733 1_555
F4 Rb1 2.880478 1_565
F4 Rb3 2.948944 1_566
F4 Rb2 2.980820 1_555
F5 I1 2.029733 1_555
F5 Rb0 2.880478 1_655
F5 Rb2 2.948944 1_554
F5 Rb3 2.980820 1_655
F6 I1 2.029733 1_565
F6 Rb0 2.880478 1_555
F6 Rb2 2.948944 1_554
F6 Rb3 2.980820 1_565
F7 I0 2.029733 1_655
F7 Rb1 2.880478 1_555
F7 Rb3 2.948944 1_656
F7 Rb2 2.980820 1_555
F8 I0 2.054516 1_555
F8 Rb3 2.977314 1_556
F8 Rb3 2.977314 1_566
F8 Rb2 3.035943 1_555
F8 Rb2 3.035943 1_455
F9 I1 2.054516 1_555
F9 Rb2 2.977314 1_544
F9 Rb2 2.977314 1_554
F9 Rb3 3.035943 1_555
F9 Rb3 3.035943 1_655
F10 I0 2.079862 1_555
F10 Rb0 2.820947 1_555
F11 I0 2.079862 1_655
F11 Rb0 2.820947 1_655
F12 I1 2.079862 1_555
F12 Rb1 2.820947 1_555
F13 I1 2.079862 1_555
F13 Rb1 2.820947 1_555
