# generated using pymatgen
data_Nb12Al9Ru3N4
_symmetry_space_group_name_H-M   'P 1'
_cell_length_a   8.29415973
_cell_length_b   8.29415958
_cell_length_c   8.28429211
_cell_angle_alpha   59.96058921
_cell_angle_beta   59.96058686
_cell_angle_gamma   59.99999697
_symmetry_Int_Tables_number   1
_chemical_formula_structural   Nb12Al9Ru3N4
_chemical_formula_sum   'Nb12 Al9 Ru3 N4'
_cell_volume   402.74133622
_cell_formula_units_Z   1
loop_
 _symmetry_equiv_pos_site_id
 _symmetry_equiv_pos_as_xyz
  1  'x, y, z'
loop_
 _atom_site_type_symbol
 _atom_site_label
 _atom_site_symmetry_multiplicity
 _atom_site_fract_x
 _atom_site_fract_y
 _atom_site_fract_z
 _atom_site_occupancy
  Nb  Nb0  1  0.80845724  0.80845724  0.18782992  1
  Nb  Nb1  1  0.18583883  0.18583883  0.81524315  1
  Nb  Nb2  1  0.81308020  0.18583883  0.81524315  1
  Nb  Nb3  1  0.19525660  0.80845724  0.18782992  1
  Nb  Nb4  1  0.18583883  0.81308020  0.81524315  1
  Nb  Nb5  1  0.80845724  0.19525660  0.18782992  1
  Nb  Nb6  1  0.44154276  0.44154276  0.06217008  1
  Nb  Nb7  1  0.06416117  0.06416117  0.43475685  1
  Nb  Nb8  1  0.43691980  0.06416117  0.43475685  1
  Nb  Nb9  1  0.05474340  0.44154276  0.06217008  1
  Nb  Nb10  1  0.06416117  0.43691980  0.43475685  1
  Nb  Nb11  1  0.44154276  0.05474340  0.06217008  1
  Al  Al0  1  0.62500000  0.62500000  0.12500000  1
  Al  Al1  1  0.75014667  0.41160585  0.42664462  1
  Al  Al2  1  0.41160585  0.75014667  0.42664462  1
  Al  Al3  1  0.41573363  0.41573363  0.75280010  1
  Al  Al4  1  0.41160585  0.41160585  0.42664462  1
  Al  Al5  1  0.49985333  0.83839415  0.82335538  1
  Al  Al6  1  0.83839415  0.49985333  0.82335538  1
  Al  Al7  1  0.83426637  0.83426637  0.49719990  1
  Al  Al8  1  0.83839415  0.83839415  0.82335538  1
  Ru  Ru0  1  0.12500000  0.62500000  0.62500000  1
  Ru  Ru1  1  0.62500000  0.12500000  0.62500000  1
  Ru  Ru2  1  0.62500000  0.62500000  0.62500000  1
  N  N0  1  0.62500000  0.12500000  0.12500000  1
  N  N1  1  0.12500000  0.62500000  0.12500000  1
  N  N2  1  0.12500000  0.12500000  0.62500000  1
  N  N3  1  0.12500000  0.12500000  0.12500000  1
loop_
_geom_bond_atom_site_label_1
_geom_bond_atom_site_label_2
_geom_bond_distance
_geom_bond_site_symmetry_2
Nb0 Ru2 3.004603 1_555
Nb1 Ru1 3.035923 1_555
Nb1 Ru0 3.035923 1_555
Nb2 Ru2 3.035924 1_555
Nb2 Ru1 3.035930 1_555
Nb3 Ru0 3.004601 1_555
Nb4 Ru2 3.035924 1_555
Nb4 Ru0 3.035930 1_555
Nb5 Ru1 3.004601 1_555
Nb6 Ru2 3.004603 1_554
Nb7 Ru1 3.035923 1_455
Nb7 Ru0 3.035923 1_545
Nb8 Ru2 3.035924 1_545
Nb8 Ru1 3.035930 1_555
Nb9 Ru0 3.004601 1_554
Nb10 Ru2 3.035924 1_455
Nb10 Ru0 3.035930 1_555
Nb11 Ru1 3.004601 1_554
Al0 Al8 2.605025 1_554
Al0 Al4 2.605025 1_555
Al0 Al2 2.605038 1_555
Al0 Al6 2.605038 1_554
Al0 Al1 2.605038 1_555
Al0 Al5 2.605038 1_554
Al0 Nb11 2.966951 1_565
Al0 Nb5 2.966951 1_555
Al0 Nb9 2.966951 1_655
Al0 Nb3 2.966951 1_555
Al0 Nb0 2.966958 1_555
Al0 Nb6 2.966958 1_555
Al1 Ru2 2.505452 1_555
Al1 Ru1 2.505472 1_555
Al2 Ru2 2.505452 1_555
Al2 Ru0 2.505472 1_555
Al3 Ru2 2.545412 1_555
Al3 Ru1 2.545418 1_555
Al3 Ru0 2.545419 1_555
Al4 Ru0 2.505458 1_555
Al4 Ru1 2.505458 1_555
Al5 Ru2 2.505452 1_555
Al5 Ru1 2.505472 1_565
Al6 Ru2 2.505452 1_555
Al6 Ru0 2.505472 1_655
Al7 Ru2 2.545412 1_555
Al7 Ru1 2.545418 1_565
Al7 Ru0 2.545419 1_655
Al8 Ru0 2.505458 1_655
Al8 Ru1 2.505458 1_565
N0 Nb8 2.180826 1_555
N0 Nb2 2.180826 1_554
N0 Nb6 2.215647 1_555
N0 Nb0 2.215647 1_545
N0 Nb5 2.215653 1_555
N0 Nb11 2.215653 1_555
N1 Nb10 2.180826 1_555
N1 Nb4 2.180826 1_554
N1 Nb6 2.215647 1_555
N1 Nb0 2.215647 1_455
N1 Nb3 2.215653 1_555
N1 Nb9 2.215653 1_555
N2 Nb2 2.200040 1_455
N2 Nb8 2.200040 1_555
N2 Nb4 2.200040 1_545
N2 Nb10 2.200040 1_555
N2 Nb1 2.200046 1_555
N2 Nb7 2.200046 1_555
N3 Nb7 2.180824 1_555
N3 Nb1 2.180824 1_554
N3 Nb9 2.215646 1_555
N3 Nb3 2.215646 1_545
N3 Nb11 2.215646 1_555
N3 Nb5 2.215646 1_455
