# generated using pymatgen
data_Y4Ge6Ir5Pt2
_symmetry_space_group_name_H-M   'P 1'
_cell_length_a   7.26077129
_cell_length_b   7.26384671
_cell_length_c   7.26384603
_cell_angle_alpha   109.74367207
_cell_angle_beta   109.34368709
_cell_angle_gamma   109.34368643
_symmetry_Int_Tables_number   1
_chemical_formula_structural   Y4Ge6Ir5Pt2
_chemical_formula_sum   'Y4 Ge6 Ir5 Pt2'
_cell_volume   294.84628651
_cell_formula_units_Z   1
loop_
 _symmetry_equiv_pos_site_id
 _symmetry_equiv_pos_as_xyz
  1  'x, y, z'
loop_
 _atom_site_type_symbol
 _atom_site_label
 _atom_site_symmetry_multiplicity
 _atom_site_fract_x
 _atom_site_fract_y
 _atom_site_fract_z
 _atom_site_occupancy
  Y  Y0  1  0.00165958  0.00083029  0.50083029  1
  Y  Y1  1  0.00165958  0.50083029  0.00083029  1
  Y  Y2  1  0.49816699  0.99777328  0.99777328  1
  Y  Y3  1  0.49816699  0.50039370  0.50039370  1
  Ge  Ge0  1  0.67626719  0.68034022  0.99592596  1
  Ge  Ge1  1  0.31673083  0.99659174  0.32013909  1
  Ge  Ge2  1  0.00651200  0.32116498  0.32116498  1
  Ge  Ge3  1  0.31673083  0.32013909  0.99659174  1
  Ge  Ge4  1  0.67626719  0.99592596  0.68034022  1
  Ge  Ge5  1  0.00651200  0.68534702  0.68534702  1
  Ir  Ir0  1  0.50066218  0.25033159  0.75033159  1
  Ir  Ir1  1  0.24937840  0.50027113  0.74910626  1
  Ir  Ir2  1  0.24937840  0.74910626  0.50027113  1
  Ir  Ir3  1  0.50066218  0.75033159  0.25033159  1
  Ir  Ir4  1  0.99919797  0.99959899  0.99959899  1
  Pt  Pt0  1  0.75102387  0.25069542  0.50032845  1
  Pt  Pt1  1  0.75102387  0.50032845  0.25069542  1
loop_
_geom_bond_atom_site_label_1
_geom_bond_atom_site_label_2
_geom_bond_distance
_geom_bond_site_symmetry_2
Ge0 Ir1 2.565317 1_555
Ge0 Ir0 2.579661 1_555
Ge0 Ir3 2.579675 1_556
Ge0 Pt1 2.620830 1_556
Ge0 Ir4 2.681604 1_555
Ge0 Y3 2.992472 1_555
Ge0 Y2 2.992479 1_555
Ge0 Y1 3.049567 1_656
Ge0 Y0 3.049578 1_666
Ge1 Ir2 2.571695 1_555
Ge1 Ir3 2.580463 1_555
Ge1 Ir0 2.580470 1_565
Ge1 Pt0 2.615565 1_565
Ge1 Ir4 2.692346 1_454
Ge1 Y1 2.994238 1_555
Ge1 Y0 2.994245 1_565
Ge1 Y3 3.044394 1_565
Ge1 Y2 3.044394 1_554
Ge2 Ir1 2.565434 1_555
Ge2 Ir2 2.565435 1_555
Ge2 Pt0 2.610982 1_455
Ge2 Pt1 2.610982 1_455
Ge2 Ir4 2.657864 1_444
Ge2 Y3 2.971620 1_555
Ge2 Y1 3.024324 1_555
Ge2 Y0 3.024324 1_555
Ge2 Y2 3.073061 1_444
Ge3 Ir1 2.571695 1_555
Ge3 Ir0 2.580463 1_555
Ge3 Ir3 2.580470 1_556
Ge3 Pt1 2.615565 1_556
Ge3 Ir4 2.692346 1_445
Ge3 Y0 2.994238 1_555
Ge3 Y1 2.994245 1_556
Ge3 Y3 3.044394 1_556
Ge3 Y2 3.044395 1_545
Ge4 Ir2 2.565317 1_555
Ge4 Ir3 2.579661 1_555
Ge4 Ir0 2.579675 1_565
Ge4 Pt0 2.620830 1_565
Ge4 Ir4 2.681603 1_555
Ge4 Y3 2.992473 1_555
Ge4 Y2 2.992479 1_555
Ge4 Y0 3.049567 1_665
Ge4 Y1 3.049578 1_666
Ge5 Ir2 2.565440 1_555
Ge5 Ir1 2.565440 1_555
Ge5 Pt1 2.610981 1_455
Ge5 Pt0 2.610982 1_455
Ge5 Ir4 2.657864 1_455
Ge5 Y2 2.971620 1_555
Ge5 Y1 3.024325 1_556
Ge5 Y0 3.024325 1_565
Ge5 Y3 3.073061 1_455
Ir0 Y0 2.962628 1_555
Ir0 Y3 2.970487 1_555
Ir0 Y2 2.970487 1_545
Ir0 Y1 2.974471 1_656
Ir1 Y3 2.947688 1_555
Ir1 Y2 2.947694 1_555
Ir1 Y0 2.959205 1_555
Ir1 Y1 2.959217 1_556
Ir2 Y3 2.947688 1_555
Ir2 Y2 2.947693 1_555
Ir2 Y1 2.959205 1_555
Ir2 Y0 2.959217 1_565
Ir3 Y1 2.962628 1_555
Ir3 Y3 2.970487 1_555
Ir3 Y2 2.970487 1_554
Ir3 Y0 2.974471 1_665
Pt0 Y0 2.965473 1_655
Pt0 Y1 2.965478 1_656
Pt0 Y2 2.977652 1_544
Pt0 Y3 2.977652 1_555
Pt1 Y1 2.965473 1_655
Pt1 Y0 2.965479 1_665
Pt1 Y2 2.977652 1_544
Pt1 Y3 2.977652 1_555
