# generated using pymatgen
data_Ba6Hf2Fe2O13
_symmetry_space_group_name_H-M   'P 1'
_cell_length_a   11.33432159
_cell_length_b   11.33432138
_cell_length_c   5.77337509
_cell_angle_alpha   90.00000000
_cell_angle_beta   90.00000000
_cell_angle_gamma   150.49883806
_symmetry_Int_Tables_number   1
_chemical_formula_structural   Ba6Hf2Fe2O13
_chemical_formula_sum   'Ba6 Hf2 Fe2 O13'
_cell_volume   365.23737917
_cell_formula_units_Z   1
loop_
 _symmetry_equiv_pos_site_id
 _symmetry_equiv_pos_as_xyz
  1  'x, y, z'
loop_
 _atom_site_type_symbol
 _atom_site_label
 _atom_site_symmetry_multiplicity
 _atom_site_fract_x
 _atom_site_fract_y
 _atom_site_fract_z
 _atom_site_occupancy
  Ba  Ba0  1  0.50000000  0.50000000  0.00000000  1
  Ba  Ba1  1  0.00000000  0.00000000  0.50000000  1
  Ba  Ba2  1  0.18269033  0.81730967  0.50000000  1
  Ba  Ba3  1  0.68406592  0.31593408  0.00000000  1
  Ba  Ba4  1  0.31593408  0.68406592  0.00000000  1
  Ba  Ba5  1  0.81730967  0.18269033  0.50000000  1
  Hf  Hf0  1  0.90542013  0.09457987  0.00000000  1
  Hf  Hf1  1  0.09457987  0.90542013  0.00000000  1
  Fe  Fe0  1  0.39164530  0.60835470  0.50000000  1
  Fe  Fe1  1  0.60835470  0.39164530  0.50000000  1
  O  O0  1  0.65111444  0.83489102  0.74323885  1
  O  O1  1  0.16510898  0.34888556  0.25676115  1
  O  O2  1  0.83489102  0.65111444  0.74323885  1
  O  O3  1  0.34888556  0.16510898  0.25676115  1
  O  O4  1  0.16510898  0.34888556  0.74323885  1
  O  O5  1  0.65111444  0.83489102  0.25676115  1
  O  O6  1  0.34888556  0.16510898  0.74323885  1
  O  O7  1  0.83489102  0.65111444  0.25676115  1
  O  O8  1  0.30559597  0.69440403  0.50000000  1
  O  O9  1  0.81089803  0.18910197  0.00000000  1
  O  O10  1  0.18910197  0.81089803  0.00000000  1
  O  O11  1  0.69440403  0.30559597  0.50000000  1
  O  O12  1  0.00000000  0.00000000  0.00000000  1
loop_
_geom_bond_atom_site_label_1
_geom_bond_atom_site_label_2
_geom_bond_distance
_geom_bond_site_symmetry_2
Ba0 O5 2.867422 1_555
Ba0 O3 2.867422 1_555
Ba0 O0 2.867422 1_554
Ba0 O6 2.867422 1_554
Ba0 O7 2.867422 1_555
Ba0 O1 2.867422 1_555
Ba0 O2 2.867422 1_554
Ba0 O4 2.867422 1_554
Ba0 O12 2.885851 1_665
Ba0 O12 2.885851 1_555
Ba1 O4 2.868770 1_555
Ba1 O1 2.868770 1_555
Ba1 O2 2.868770 1_445
Ba1 O7 2.868770 1_445
Ba1 O6 2.868770 1_555
Ba1 O0 2.868770 1_445
Ba1 O3 2.868770 1_555
Ba1 O5 2.868770 1_445
Ba1 O12 2.886688 1_556
Ba1 O12 2.886688 1_555
Ba2 O8 2.694284 1_555
Ba2 O6 2.852101 1_565
Ba2 O3 2.852101 1_565
Ba2 O2 2.852101 1_455
Ba2 O7 2.852101 1_455
Ba2 O10 2.890107 1_556
Ba2 O10 2.890107 1_555
Ba2 O11 2.897253 1_455
Ba2 O11 2.897253 1_565
Ba3 O9 2.780358 1_555
Ba3 O7 2.871881 1_555
Ba3 O2 2.871881 1_554
Ba3 O3 2.871881 1_555
Ba3 O6 2.871881 1_554
Ba3 O10 2.887962 1_545
Ba3 O10 2.887962 1_655
Ba3 O11 2.895570 1_554
Ba3 O11 2.895570 1_555
Ba4 O10 2.780358 1_555
Ba4 O1 2.871881 1_555
Ba4 O4 2.871881 1_554
Ba4 O5 2.871881 1_555
Ba4 O0 2.871881 1_554
Ba4 O9 2.887962 1_565
Ba4 O9 2.887962 1_455
Ba4 O8 2.895570 1_555
Ba4 O8 2.895570 1_554
Ba5 O11 2.694284 1_555
Ba5 O0 2.852101 1_545
Ba5 O5 2.852101 1_545
Ba5 O4 2.852101 1_655
Ba5 O1 2.852101 1_655
Ba5 O9 2.890107 1_556
Ba5 O9 2.890107 1_555
Ba5 O8 2.897253 1_655
Ba5 O8 2.897253 1_545
Hf0 O9 2.072072 1_555
Hf0 O12 2.073338 1_655
Hf0 O5 2.097890 1_545
Hf0 O0 2.097890 1_544
Hf0 O1 2.097890 1_655
Hf0 O4 2.097890 1_654
Hf1 O10 2.072072 1_555
Hf1 O12 2.073338 1_565
Hf1 O3 2.097890 1_565
Hf1 O6 2.097890 1_564
Hf1 O7 2.097890 1_455
Hf1 O2 2.097890 1_454
Fe0 O8 1.886336 1_555
Fe0 O4 2.017300 1_555
Fe0 O1 2.017300 1_555
Fe0 O0 2.017300 1_555
Fe0 O5 2.017300 1_555
Fe1 O11 1.886336 1_555
Fe1 O2 2.017300 1_555
Fe1 O7 2.017300 1_555
Fe1 O6 2.017300 1_555
Fe1 O3 2.017300 1_555
