# generated using pymatgen
data_SrLaMnRuO6
_symmetry_space_group_name_H-M   'P 1'
_cell_length_a   5.63657795
_cell_length_b   5.63660528
_cell_length_c   5.63659147
_cell_angle_alpha   61.17780660
_cell_angle_beta   61.17792628
_cell_angle_gamma   61.17774933
_symmetry_Int_Tables_number   1
_chemical_formula_structural   SrLaMnRuO6
_chemical_formula_sum   'Sr1 La1 Mn1 Ru1 O6'
_cell_volume   129.98490963
_cell_formula_units_Z   1
loop_
 _symmetry_equiv_pos_site_id
 _symmetry_equiv_pos_as_xyz
  1  'x, y, z'
loop_
 _atom_site_type_symbol
 _atom_site_label
 _atom_site_symmetry_multiplicity
 _atom_site_fract_x
 _atom_site_fract_y
 _atom_site_fract_z
 _atom_site_occupancy
  Sr  Sr0  1  0.24638100  0.24637600  0.24638000  1
  La  La0  1  0.74697200  0.74698300  0.74696600  1
  Mn  Mn0  1  0.49747100  0.49746200  0.49746600  1
  Ru  Ru0  1  0.99828200  0.99828000  0.99828800  1
  O  O0  1  0.76729600  0.32630200  0.15667000  1
  O  O1  1  0.15665700  0.76730000  0.32630100  1
  O  O2  1  0.32630900  0.15666800  0.76730500  1
  O  O3  1  0.69212800  0.82589700  0.24261900  1
  O  O4  1  0.82588800  0.24260700  0.69211800  1
  O  O5  1  0.24261700  0.69212400  0.82588600  1
loop_
_geom_bond_atom_site_label_1
_geom_bond_atom_site_label_2
_geom_bond_distance
_geom_bond_site_symmetry_2
La0 O2 2.383619 1_565
La0 O1 2.383624 1_655
La0 O0 2.383727 1_556
La0 O3 2.805432 1_555
La0 O5 2.805504 1_555
La0 O4 2.805610 1_555
La0 O4 2.886290 1_565
La0 O5 2.886378 1_655
La0 O3 2.886450 1_556
Mn0 O0 2.118743 1_555
Mn0 O2 2.118747 1_555
Mn0 O1 2.118833 1_555
Mn0 O4 2.137468 1_555
Mn0 O5 2.137525 1_555
Mn0 O3 2.137575 1_555
O0 Ru0 2.015046 1_544
O0 Sr0 2.770333 1_655
O0 Sr0 2.950259 1_555
O1 Ru0 2.014975 1_454
O1 Sr0 2.770354 1_565
O1 Sr0 2.950276 1_555
O2 Ru0 2.015085 1_445
O2 Sr0 2.770276 1_556
O2 Sr0 2.950329 1_555
O3 Ru0 1.963085 1_554
O3 Sr0 2.487138 1_565
O4 Ru0 1.963186 1_545
O4 Sr0 2.487151 1_655
O5 Ru0 1.963159 1_455
O5 Sr0 2.487186 1_556
