# generated using pymatgen
data_CsGeAsIr2
_symmetry_space_group_name_H-M   'P 1'
_cell_length_a   8.01578208
_cell_length_b   8.01578187
_cell_length_c   8.01578160
_cell_angle_alpha   150.61699049
_cell_angle_beta   150.61698620
_cell_angle_gamma   42.03647485
_symmetry_Int_Tables_number   1
_chemical_formula_structural   CsGeAsIr2
_chemical_formula_sum   'Cs1 Ge1 As1 Ir2'
_cell_volume   123.69285529
_cell_formula_units_Z   1
loop_
 _symmetry_equiv_pos_site_id
 _symmetry_equiv_pos_as_xyz
  1  'x, y, z'
loop_
 _atom_site_type_symbol
 _atom_site_label
 _atom_site_symmetry_multiplicity
 _atom_site_fract_x
 _atom_site_fract_y
 _atom_site_fract_z
 _atom_site_occupancy
  Cs  Cs0  1  0.00227554  0.00227554  1.00000000  1
  Ge  Ge0  1  0.34135760  0.34135760  0.00000000  1
  As  As0  1  0.65961735  0.65961735  1.00000000  1
  Ir  Ir0  1  0.74837426  0.24837426  0.50000000  1
  Ir  Ir1  1  0.24837426  0.74837426  0.50000000  1
loop_
_geom_bond_atom_site_label_1
_geom_bond_atom_site_label_2
_geom_bond_distance
_geom_bond_site_symmetry_2
Cs0 Ge0 3.750278 1_546
Cs0 Ge0 3.750278 1_557
Cs0 Ge0 3.750278 1_456
Cs0 Ge0 3.750278 1_445
Ge0 Ir1 2.463534 1_555
Ge0 Ir0 2.463534 1_555
Ge0 Ir1 2.463534 1_544
Ge0 Ir0 2.463534 1_454
As0 Ir0 2.428370 1_555
As0 Ir1 2.428370 1_555
As0 Ir0 2.428370 1_566
As0 Ir1 2.428371 1_656
As0 Cs0 3.716140 1_655
As0 Cs0 3.716140 1_666
As0 Cs0 3.716140 1_565
As0 Cs0 3.716141 1_554
