# generated using pymatgen
data_CsCdSiAs2
_symmetry_space_group_name_H-M   'P 1'
_cell_length_a   8.76935626
_cell_length_b   8.55367796
_cell_length_c   8.68907942
_cell_angle_alpha   71.04239532
_cell_angle_beta   76.36282468
_cell_angle_gamma   73.30900237
_symmetry_Int_Tables_number   1
_chemical_formula_structural   CsCdSiAs2
_chemical_formula_sum   'Cs4 Cd4 Si4 As8'
_cell_volume   583.09922305
_cell_formula_units_Z   4
loop_
 _symmetry_equiv_pos_site_id
 _symmetry_equiv_pos_as_xyz
  1  'x, y, z'
loop_
 _atom_site_type_symbol
 _atom_site_label
 _atom_site_symmetry_multiplicity
 _atom_site_fract_x
 _atom_site_fract_y
 _atom_site_fract_z
 _atom_site_occupancy
  Cs  Cs0  1  0.44428882  0.76823605  0.32171876  1
  Cs  Cs1  1  0.55571118  0.23176395  0.67828124  1
  Cs  Cs2  1  0.43240153  0.80139305  0.81690966  1
  Cs  Cs3  1  0.56759847  0.19860695  0.18309034  1
  Cd  Cd0  1  0.99622980  0.89849182  0.68917570  1
  Cd  Cd1  1  0.00377020  0.10150818  0.31082430  1
  Cd  Cd2  1  0.96532656  0.81600529  0.17291206  1
  Cd  Cd3  1  0.03467344  0.18399471  0.82708794  1
  Si  Si0  1  0.96301428  0.58390626  0.59620855  1
  Si  Si1  1  0.03698572  0.41609374  0.40379145  1
  Si  Si2  1  0.13903238  0.44944328  0.97930316  1
  Si  Si3  1  0.86096762  0.55055672  0.02069684  1
  As  As0  1  0.81938936  0.86262465  0.46796671  1
  As  As1  1  0.18061064  0.13737535  0.53203329  1
  As  As2  1  0.79931731  0.41323300  0.30835424  1
  As  As3  1  0.20068269  0.58676700  0.69164576  1
  As  As4  1  0.77822535  0.85223780  0.96215373  1
  As  As5  1  0.22177465  0.14776220  0.03784627  1
  As  As6  1  0.78347216  0.45408785  0.82453961  1
  As  As7  1  0.21652784  0.54591215  0.17546039  1
loop_
_geom_bond_atom_site_label_1
_geom_bond_atom_site_label_2
_geom_bond_distance
_geom_bond_site_symmetry_2
Si0 Si1 2.406155 1_655
Si2 Si3 2.323906 1_456
As0 Si0 2.392212 1_555
As0 Cd2 2.682093 1_555
As0 Cd1 2.774515 1_665
As0 Cd0 2.873240 1_555
As0 Cs3 3.684016 1_565
As0 Cs2 4.015133 1_555
As0 Cs1 4.027241 1_565
As0 Cs0 4.153308 1_555
As1 Si1 2.392212 1_555
As1 Cd3 2.682093 1_555
As1 Cd0 2.774515 1_445
As1 Cd1 2.873240 1_555
As1 Cs2 3.684016 1_545
As1 Cs3 4.015133 1_555
As1 Cs0 4.027241 1_545
As1 Cs1 4.153308 1_555
As2 Si3 2.395705 1_555
As2 Si1 2.426857 1_655
As2 Cd1 2.749464 1_655
As2 Cs1 3.567911 1_555
As2 Cs3 3.628801 1_555
As2 Cs0 3.681773 1_555
As3 Si2 2.395705 1_555
As3 Si0 2.426857 1_455
As3 Cd0 2.749464 1_455
As3 Cs0 3.567911 1_555
As3 Cs2 3.628801 1_555
As3 Cs1 3.681773 1_555
As4 Si3 2.385324 1_556
As4 Cd2 2.626362 1_556
As4 Cd0 2.669061 1_555
As4 Cs1 3.722710 1_565
As4 Cs2 3.727984 1_555
As4 Cs0 3.780060 1_556
As4 Cs3 3.841199 1_566
As5 Si2 2.385324 1_554
As5 Cd3 2.626362 1_554
As5 Cd1 2.669061 1_555
As5 Cs0 3.722710 1_545
As5 Cs3 3.727984 1_555
As5 Cs1 3.780060 1_554
As5 Cs2 3.841199 1_544
As6 Si0 2.397516 1_555
As6 Si3 2.414522 1_556
As6 Cd3 2.693875 1_655
As6 Cs2 3.608675 1_555
As6 Cs3 3.638287 1_556
As6 Cs1 3.764270 1_555
As7 Si1 2.397516 1_555
As7 Si2 2.414522 1_554
As7 Cd2 2.693875 1_455
As7 Cs3 3.608675 1_555
As7 Cs2 3.638287 1_554
As7 Cs0 3.764270 1_555
