# generated using pymatgen
data_Sc10Si6HC
_symmetry_space_group_name_H-M   'P 1'
_cell_length_a   7.88962953
_cell_length_b   7.88962989
_cell_length_c   5.86036953
_cell_angle_alpha   90.00000000
_cell_angle_beta   90.00000000
_cell_angle_gamma   120.00000267
_symmetry_Int_Tables_number   1
_chemical_formula_structural   Sc10Si6HC
_chemical_formula_sum   'Sc10 Si6 H1 C1'
_cell_volume   315.91399310
_cell_formula_units_Z   1
loop_
 _symmetry_equiv_pos_site_id
 _symmetry_equiv_pos_as_xyz
  1  'x, y, z'
loop_
 _atom_site_type_symbol
 _atom_site_label
 _atom_site_symmetry_multiplicity
 _atom_site_fract_x
 _atom_site_fract_y
 _atom_site_fract_z
 _atom_site_occupancy
  Sc  Sc0  1  0.66666700  0.33333300  0.00000000  1
  Sc  Sc1  1  0.33333300  0.66666700  0.00000000  1
  Sc  Sc2  1  0.33333300  0.66666700  0.50000000  1
  Sc  Sc3  1  0.66666700  0.33333300  0.50000000  1
  Sc  Sc4  1  0.76759602  0.76759602  0.73269973  1
  Sc  Sc5  1  0.23240398  0.00000000  0.73269973  1
  Sc  Sc6  1  0.00000000  0.23240398  0.73269973  1
  Sc  Sc7  1  0.23240398  0.23240398  0.26730027  1
  Sc  Sc8  1  0.76759602  1.00000000  0.26730027  1
  Sc  Sc9  1  0.00000000  0.76759602  0.26730027  1
  Si  Si0  1  0.40008422  0.40008422  0.74846659  1
  Si  Si1  1  0.59991578  1.00000000  0.74846659  1
  Si  Si2  1  1.00000000  0.59991578  0.74846659  1
  Si  Si3  1  0.59991578  0.59991578  0.25153341  1
  Si  Si4  1  0.40008422  0.00000000  0.25153341  1
  Si  Si5  1  0.00000000  0.40008422  0.25153341  1
  H  H0  1  0.00000000  0.00000000  0.00000000  1
  C  C0  1  0.00000000  0.00000000  0.50000000  1
loop_
_geom_bond_atom_site_label_1
_geom_bond_atom_site_label_2
_geom_bond_distance
_geom_bond_site_symmetry_2
Sc0 Si5 2.825154 1_655
Sc0 Si1 2.825154 1_544
Sc0 Si2 2.825156 1_554
Sc0 Si4 2.825156 1_555
Sc0 Si0 2.825160 1_554
Sc0 Si3 2.825160 1_555
Sc1 Si2 2.825154 1_454
Sc1 Si4 2.825154 1_565
Sc1 Si5 2.825156 1_555
Sc1 Si1 2.825156 1_554
Sc1 Si3 2.825160 1_555
Sc1 Si0 2.825160 1_554
Sc2 Si2 2.815818 1_455
Sc2 Si4 2.815818 1_565
Sc2 Si5 2.815820 1_555
Sc2 Si1 2.815820 1_555
Sc2 Si3 2.815825 1_555
Sc2 Si0 2.815825 1_555
Sc3 Si5 2.815818 1_655
Sc3 Si1 2.815818 1_545
Sc3 Si2 2.815820 1_555
Sc3 Si4 2.815820 1_555
Sc3 Si0 2.815825 1_555
Sc3 Si3 2.815825 1_555
Sc4 Si2 2.747076 1_555
Sc4 Si1 2.747076 1_555
Sc4 Si0 2.901004 1_555
Sc4 Si3 3.114723 1_555
Sc4 Si3 3.315893 1_556
Sc5 Si2 2.747076 1_445
Sc5 Si0 2.747076 1_555
Sc5 Si1 2.901004 1_545
Sc5 Si4 3.114723 1_555
Sc5 Si4 3.315893 1_556
Sc6 Si1 2.747075 1_445
Sc6 Si0 2.747075 1_555
Sc6 Si2 2.901004 1_455
Sc6 Si5 3.114723 1_555
Sc6 Si5 3.315893 1_556
Sc7 Si5 2.747076 1_555
Sc7 Si4 2.747076 1_555
Sc7 Si3 2.901004 1_555
Sc7 Si0 3.114723 1_555
Sc7 Si0 3.315893 1_554
Sc8 Si5 2.747076 1_665
Sc8 Si3 2.747076 1_555
Sc8 Si4 2.901004 1_565
Sc8 Si1 3.114723 1_555
Sc8 Si1 3.315893 1_554
Sc9 Si4 2.747075 1_565
Sc9 Si3 2.747075 1_455
Sc9 Si5 2.901004 1_555
Sc9 Si2 3.114723 1_455
Sc9 Si2 3.315893 1_454
H0 Sc7 2.411612 1_555
H0 Sc4 2.411612 1_444
H0 Sc8 2.411613 1_445
H0 Sc5 2.411613 1_554
H0 Sc6 2.411613 1_554
H0 Sc9 2.411613 1_545
C0 Sc7 2.285107 1_555
C0 Sc4 2.285107 1_445
C0 Sc5 2.285107 1_555
C0 Sc8 2.285107 1_445
C0 Sc6 2.285107 1_555
C0 Sc9 2.285107 1_545
