# generated using pymatgen
data_Hf3Ta3(B2Ru5)2
_symmetry_space_group_name_H-M   'P 1'
_cell_length_a   9.40043939
_cell_length_b   9.40043939
_cell_length_c   3.07068444
_cell_angle_alpha   90.00000000
_cell_angle_beta   90.00000000
_cell_angle_gamma   90.01707131
_symmetry_Int_Tables_number   1
_chemical_formula_structural   Hf3Ta3(B2Ru5)2
_chemical_formula_sum   'Hf3 Ta3 B4 Ru10'
_cell_volume   271.35103086
_cell_formula_units_Z   1
loop_
 _symmetry_equiv_pos_site_id
 _symmetry_equiv_pos_as_xyz
  1  'x, y, z'
loop_
 _atom_site_type_symbol
 _atom_site_label
 _atom_site_symmetry_multiplicity
 _atom_site_fract_x
 _atom_site_fract_y
 _atom_site_fract_z
 _atom_site_occupancy
  Hf  Hf0  1  0.82471408  0.67630124  0.00000000  1
  Hf  Hf1  1  0.17630124  0.32471408  0.00000000  1
  Hf  Hf2  1  0.32402317  0.82402317  0.00000000  1
  Ta  Ta0  1  0.67655940  0.17655940  0.00000000  1
  Ta  Ta1  1  0.49950500  0.50073684  0.00000000  1
  Ta  Ta2  1  0.00073684  0.99950500  0.00000000  1
  B  B0  1  0.62144289  0.87867186  0.00000000  1
  B  B1  1  0.37867186  0.12144289  0.00000000  1
  B  B2  1  0.12062213  0.62062213  0.00000000  1
  B  B3  1  0.87855175  0.37855175  0.00000000  1
  Ru  Ru0  1  0.57105644  0.71895920  0.50000000  1
  Ru  Ru1  1  0.43339984  0.28118478  0.50000000  1
  Ru  Ru2  1  0.06960617  0.78142233  0.50000000  1
  Ru  Ru3  1  0.92458583  0.21626130  0.50000000  1
  Ru  Ru4  1  0.28142233  0.56960617  0.50000000  1
  Ru  Ru5  1  0.71626130  0.42458583  0.50000000  1
  Ru  Ru6  1  0.21895920  0.07105644  0.50000000  1
  Ru  Ru7  1  0.78118478  0.93339984  0.50000000  1
  Ru  Ru8  1  0.50377120  0.00377120  0.50000000  1
  Ru  Ru9  1  0.99862555  0.49862555  0.50000000  1
loop_
_geom_bond_atom_site_label_1
_geom_bond_atom_site_label_2
_geom_bond_distance
_geom_bond_site_symmetry_2
Hf0 Ru9 2.796656 1_554
Hf0 Ru9 2.796656 1_555
Hf0 Ru0 2.864342 1_554
Hf0 Ru0 2.864342 1_555
Hf0 Ru7 2.892476 1_555
Hf0 Ru7 2.892476 1_554
Hf0 Ru2 2.938037 1_654
Hf0 Ru2 2.938037 1_655
Hf0 Ru5 2.999049 1_554
Hf0 Ru5 2.999049 1_555
Hf1 Ru9 2.796656 1_454
Hf1 Ru9 2.796656 1_455
Hf1 Ru6 2.864342 1_555
Hf1 Ru6 2.864342 1_554
Hf1 Ru1 2.892476 1_554
Hf1 Ru1 2.892476 1_555
Hf1 Ru4 2.938037 1_554
Hf1 Ru4 2.938037 1_555
Hf1 Ru3 2.999049 1_454
Hf1 Ru3 2.999049 1_455
Hf2 Ru8 2.840038 1_564
Hf2 Ru8 2.840038 1_565
Hf2 Ru2 2.870014 1_555
Hf2 Ru4 2.870014 1_554
Hf2 Ru2 2.870014 1_554
Hf2 Ru4 2.870014 1_555
Hf2 Ru6 2.954116 1_565
Hf2 Ru6 2.954116 1_564
Hf2 Ru0 2.954116 1_555
Hf2 Ru0 2.954116 1_554
B0 Ru0 2.198934 1_555
B0 Ru0 2.198934 1_554
B0 Ru7 2.208263 1_555
B0 Ru7 2.208263 1_554
B0 Ru8 2.228139 1_564
B0 Ru8 2.228139 1_565
B0 Hf0 2.696756 1_555
B0 Hf2 2.842530 1_555
B0 Ta0 2.847651 1_565
B1 Ru6 2.198934 1_555
B1 Ru6 2.198934 1_554
B1 Ru1 2.208263 1_555
B1 Ru1 2.208263 1_554
B1 Ru8 2.228139 1_554
B1 Ru8 2.228139 1_555
B1 Hf1 2.696756 1_555
B1 Hf2 2.842530 1_545
B1 Ta0 2.847651 1_555
B2 Ru4 2.207399 1_555
B2 Ru2 2.207399 1_555
B2 Ru4 2.207399 1_554
B2 Ru2 2.207399 1_554
B2 Ru9 2.233135 1_454
B2 Ru9 2.233135 1_455
B2 Hf2 2.703657 1_555
B2 Hf0 2.830634 1_455
B2 Hf1 2.830634 1_555
B3 Ru3 2.207350 1_554
B3 Ru5 2.207350 1_555
B3 Ru3 2.207350 1_555
B3 Ru5 2.207350 1_554
B3 Ru9 2.214645 1_555
B3 Ru9 2.214645 1_554
B3 Ta0 2.684932 1_555
B3 Hf1 2.844512 1_655
B3 Hf0 2.844512 1_555
Ru0 Ta1 2.648971 1_555
Ru0 Ta1 2.648971 1_556
Ru1 Ta1 2.646185 1_555
Ru1 Ta1 2.646185 1_556
Ru1 Ta0 2.924183 1_555
Ru1 Ta0 2.924183 1_556
Ru2 Ta2 2.641968 1_555
Ru2 Ta2 2.641968 1_556
Ru3 Ta2 2.649985 1_645
Ru3 Ta2 2.649985 1_646
Ru3 Ta0 2.816417 1_556
Ru3 Ta0 2.816417 1_555
Ru4 Ta1 2.641968 1_555
Ru4 Ta1 2.641968 1_556
Ru5 Ta1 2.649985 1_555
Ru5 Ta1 2.649985 1_556
Ru5 Ta0 2.816417 1_556
Ru5 Ta0 2.816417 1_555
Ru6 Ta2 2.648971 1_546
Ru6 Ta2 2.648971 1_545
Ru7 Ta2 2.646185 1_655
Ru7 Ta2 2.646185 1_656
Ru7 Ta0 2.924183 1_566
Ru7 Ta0 2.924183 1_565
Ru8 Ta0 2.762663 1_555
Ru8 Ta0 2.762663 1_556
