# generated using pymatgen
data_YHg4Se2Cl5
_symmetry_space_group_name_H-M   'P 1'
_cell_length_a   8.35076715
_cell_length_b   10.36380109
_cell_length_c   8.94623906
_cell_angle_alpha   90.00000000
_cell_angle_beta   112.88029005
_cell_angle_gamma   90.00000000
_symmetry_Int_Tables_number   1
_chemical_formula_structural   YHg4Se2Cl5
_chemical_formula_sum   'Y2 Hg8 Se4 Cl10'
_cell_volume   713.33916553
_cell_formula_units_Z   2
loop_
 _symmetry_equiv_pos_site_id
 _symmetry_equiv_pos_as_xyz
  1  'x, y, z'
loop_
 _atom_site_type_symbol
 _atom_site_label
 _atom_site_symmetry_multiplicity
 _atom_site_fract_x
 _atom_site_fract_y
 _atom_site_fract_z
 _atom_site_occupancy
  Y  Y0  1  0.49855535  0.43010535  0.49697760  1
  Y  Y1  1  0.50144465  0.93010535  0.50302240  1
  Hg  Hg0  1  0.92210570  0.17725678  0.32629719  1
  Hg  Hg1  1  0.07789430  0.67725678  0.67370281  1
  Hg  Hg2  1  0.95968833  0.67185659  0.35942052  1
  Hg  Hg3  1  0.04031167  0.17185659  0.64057948  1
  Hg  Hg4  1  0.49246043  0.18203887  0.97918236  1
  Hg  Hg5  1  0.50753957  0.68203887  0.02081764  1
  Hg  Hg6  1  0.81064206  0.43167998  0.01109835  1
  Hg  Hg7  1  0.18935794  0.93167998  0.98890165  1
  Se  Se0  1  0.80332378  0.18783145  0.01221502  1
  Se  Se1  1  0.19667622  0.68783145  0.98778498  1
  Se  Se2  1  0.18462559  0.17377609  0.95422018  1
  Se  Se3  1  0.81537441  0.67377609  0.04577982  1
  Cl  Cl0  1  0.83346289  0.92479815  0.68773397  1
  Cl  Cl1  1  0.16653711  0.42479815  0.31226603  1
  Cl  Cl2  1  0.83513194  0.43410786  0.68941326  1
  Cl  Cl3  1  0.16486806  0.93410786  0.31058674  1
  Cl  Cl4  1  0.41766599  0.46108938  0.75407118  1
  Cl  Cl5  1  0.58233401  0.96108938  0.24592882  1
  Cl  Cl6  1  0.58829742  0.39868169  0.24894190  1
  Cl  Cl7  1  0.41170258  0.89868169  0.75105810  1
  Cl  Cl8  1  0.49198520  0.18037881  0.55614294  1
  Cl  Cl9  1  0.50801480  0.68037881  0.44385706  1
loop_
_geom_bond_atom_site_label_1
_geom_bond_atom_site_label_2
_geom_bond_distance
_geom_bond_site_symmetry_2
Hg0 Se0 2.593042 1_555
Hg0 Hg3 2.593197 1_655
Hg1 Se1 2.593042 1_555
Hg1 Hg2 2.593197 1_455
Hg2 Se3 2.587731 1_555
Hg3 Se2 2.587731 1_555
Hg4 Se2 2.493807 1_555
Hg4 Se0 2.496664 1_556
Hg5 Se3 2.493807 1_555
Hg5 Se1 2.496664 1_554
Hg6 Se3 2.526570 1_555
Hg6 Se0 2.528050 1_555
Hg7 Se2 2.526570 1_565
Hg7 Se1 2.528050 1_555
Cl0 Y1 2.618832 1_555
Cl1 Y0 2.618832 1_555
Cl2 Y0 2.665092 1_555
Cl2 Hg6 2.963489 1_556
Cl3 Y1 2.665092 1_555
Cl3 Hg7 2.963489 1_554
Cl4 Y0 2.656619 1_555
Cl5 Y1 2.656619 1_555
Cl6 Y0 2.623874 1_555
Cl7 Y1 2.623874 1_555
Cl8 Y1 2.643670 1_545
Cl8 Y0 2.646527 1_555
Cl9 Y0 2.643670 1_555
Cl9 Y1 2.646527 1_555
