# generated using pymatgen
data_NdTlS2
_symmetry_space_group_name_H-M   'P 1'
_cell_length_a   7.85568513
_cell_length_b   7.85568513
_cell_length_c   7.85568514
_cell_angle_alpha   30.80049148
_cell_angle_beta   30.80049148
_cell_angle_gamma   30.80049668
_symmetry_Int_Tables_number   1
_chemical_formula_structural   NdTlS2
_chemical_formula_sum   'Nd1 Tl1 S2'
_cell_volume   112.72649588
_cell_formula_units_Z   1
loop_
 _symmetry_equiv_pos_site_id
 _symmetry_equiv_pos_as_xyz
  1  'x, y, z'
loop_
 _atom_site_type_symbol
 _atom_site_label
 _atom_site_symmetry_multiplicity
 _atom_site_fract_x
 _atom_site_fract_y
 _atom_site_fract_z
 _atom_site_occupancy
  Nd  Nd0  1  0.00000000  0.00000000  -0.00000000  1
  Tl  Tl0  1  0.50000000  0.50000000  0.50000000  1
  S  S0  1  0.73501494  0.73501494  0.73501494  1
  S  S1  1  0.26498506  0.26498506  0.26498506  1
loop_
_geom_bond_atom_site_label_1
_geom_bond_atom_site_label_2
_geom_bond_distance
_geom_bond_site_symmetry_2
Nd0 S0 2.855406 1_445
Nd0 S1 2.855406 1_554
Nd0 S0 2.855406 1_544
Nd0 S1 2.855406 1_545
Nd0 S1 2.855406 1_455
Nd0 S0 2.855406 1_454
S0 Tl0 3.265998 1_556
S0 Tl0 3.265999 1_565
S0 Tl0 3.265999 1_655
S1 Tl0 3.265998 1_554
S1 Tl0 3.265999 1_455
S1 Tl0 3.265999 1_545
