# generated using pymatgen
data_NaSr2Zn2Sb3
_symmetry_space_group_name_H-M   'P 1'
_cell_length_a   4.63717150
_cell_length_b   12.51846678
_cell_length_c   15.73661524
_cell_angle_alpha   90.00000000
_cell_angle_beta   90.00000000
_cell_angle_gamma   90.00000000
_symmetry_Int_Tables_number   1
_chemical_formula_structural   NaSr2Zn2Sb3
_chemical_formula_sum   'Na4 Sr8 Zn8 Sb12'
_cell_volume   913.51488005
_cell_formula_units_Z   4
loop_
 _symmetry_equiv_pos_site_id
 _symmetry_equiv_pos_as_xyz
  1  'x, y, z'
loop_
 _atom_site_type_symbol
 _atom_site_label
 _atom_site_symmetry_multiplicity
 _atom_site_fract_x
 _atom_site_fract_y
 _atom_site_fract_z
 _atom_site_occupancy
  Na  Na0  1  0.25000000  0.39323008  0.55607486  1
  Na  Na1  1  0.75000000  0.10676992  0.05607486  1
  Na  Na2  1  0.25000000  0.89323008  0.94392514  1
  Na  Na3  1  0.75000000  0.60676992  0.44392514  1
  Sr  Sr0  1  0.25000000  0.37753748  0.29403334  1
  Sr  Sr1  1  0.75000000  0.12246252  0.79403334  1
  Sr  Sr2  1  0.25000000  0.87753748  0.20596666  1
  Sr  Sr3  1  0.75000000  0.62246252  0.70596666  1
  Sr  Sr4  1  0.25000000  0.10392703  0.42849697  1
  Sr  Sr5  1  0.75000000  0.39607297  0.92849697  1
  Sr  Sr6  1  0.25000000  0.60392703  0.07150303  1
  Sr  Sr7  1  0.75000000  0.89607297  0.57150303  1
  Zn  Zn0  1  0.25000000  0.30778870  0.08843065  1
  Zn  Zn1  1  0.75000000  0.19221130  0.58843065  1
  Zn  Zn2  1  0.25000000  0.80778870  0.41156935  1
  Zn  Zn3  1  0.75000000  0.69221130  0.91156935  1
  Zn  Zn4  1  0.25000000  0.35918732  0.78827339  1
  Zn  Zn5  1  0.75000000  0.14081268  0.28827339  1
  Zn  Zn6  1  0.25000000  0.85918732  0.71172661  1
  Zn  Zn7  1  0.75000000  0.64081268  0.21172661  1
  Sb  Sb0  1  0.25000000  0.14037502  0.19899748  1
  Sb  Sb1  1  0.75000000  0.35962498  0.69899748  1
  Sb  Sb2  1  0.25000000  0.64037502  0.30100252  1
  Sb  Sb3  1  0.75000000  0.85962498  0.80100252  1
  Sb  Sb4  1  0.25000000  0.70636313  0.56711133  1
  Sb  Sb5  1  0.75000000  0.79363687  0.06711133  1
  Sb  Sb6  1  0.25000000  0.20636313  0.93288867  1
  Sb  Sb7  1  0.75000000  0.29363687  0.43288867  1
  Sb  Sb8  1  0.25000000  0.07422859  0.63657582  1
  Sb  Sb9  1  0.75000000  0.42577141  0.13657582  1
  Sb  Sb10  1  0.25000000  0.57422859  0.86342418  1
  Sb  Sb11  1  0.75000000  0.92577141  0.36342418  1
loop_
_geom_bond_atom_site_label_1
_geom_bond_atom_site_label_2
_geom_bond_distance
_geom_bond_site_symmetry_2
Na0 Sb1 3.257507 1_555
Na0 Sb1 3.257507 1_455
Na0 Sb7 3.269273 1_455
Na0 Sb7 3.269273 1_555
Na0 Zn1 3.459422 1_455
Na0 Zn1 3.459422 1_555
Na1 Sb0 3.257507 1_555
Na1 Sb0 3.257507 1_655
Na1 Sb6 3.269273 1_654
Na1 Sb6 3.269273 1_554
Na1 Zn0 3.459422 1_655
Na1 Zn0 3.459422 1_555
Na2 Sb3 3.257507 1_455
Na2 Sb3 3.257507 1_555
Na2 Sb5 3.269273 1_456
Na2 Sb5 3.269273 1_556
Na2 Zn3 3.459422 1_455
Na2 Zn3 3.459422 1_555
Na3 Sb2 3.257507 1_555
Na3 Sb2 3.257507 1_655
Na3 Sb4 3.269273 1_555
Na3 Sb4 3.269273 1_655
Na3 Zn2 3.459422 1_555
Na3 Zn2 3.459422 1_655
Sr0 Zn0 3.351236 1_555
Sr1 Zn1 3.351236 1_555
Sr2 Zn2 3.351236 1_555
Sr3 Zn3 3.351236 1_555
Sr4 Zn5 3.233935 1_555
Sr4 Zn5 3.233935 1_455
Sr4 Zn1 3.596057 1_455
Sr4 Zn1 3.596057 1_555
Sr4 Zn2 3.716756 1_545
Sr5 Zn4 3.233935 1_655
Sr5 Zn4 3.233935 1_555
Sr5 Zn0 3.596057 1_556
Sr5 Zn0 3.596057 1_656
Sr5 Zn3 3.716756 1_555
Sr6 Zn7 3.233935 1_455
Sr6 Zn7 3.233935 1_555
Sr6 Zn3 3.596057 1_554
Sr6 Zn3 3.596057 1_454
Sr6 Zn0 3.716756 1_555
Sr7 Zn6 3.233935 1_555
Sr7 Zn6 3.233935 1_655
Sr7 Zn2 3.596057 1_555
Sr7 Zn2 3.596057 1_655
Sr7 Zn1 3.716756 1_565
Sb0 Zn5 2.711017 1_455
Sb0 Zn5 2.711017 1_555
Sb0 Zn0 2.723902 1_555
Sb0 Sr2 3.292150 1_545
Sb0 Sr0 3.324316 1_555
Sb0 Sr4 3.640253 1_555
Sb1 Zn4 2.711017 1_655
Sb1 Zn4 2.711017 1_555
Sb1 Zn1 2.723902 1_555
Sb1 Sr3 3.292150 1_555
Sb1 Sr1 3.324316 1_555
Sb1 Sr5 3.640253 1_555
Sb2 Zn7 2.711017 1_455
Sb2 Zn7 2.711017 1_555
Sb2 Zn2 2.723902 1_555
Sb2 Sr0 3.292150 1_555
Sb2 Sr2 3.324316 1_555
Sb2 Sr6 3.640253 1_555
Sb3 Zn6 2.711017 1_555
Sb3 Zn6 2.711017 1_655
Sb3 Zn3 2.723902 1_555
Sb3 Sr1 3.292150 1_565
Sb3 Sr3 3.324316 1_555
Sb3 Sr7 3.640253 1_555
Sb4 Zn2 2.757422 1_555
Sb4 Zn6 2.973063 1_555
Sb4 Sr7 3.319737 1_455
Sb4 Sr7 3.319737 1_555
Sb4 Sr3 3.354654 1_455
Sb4 Sr3 3.354654 1_555
Sb5 Zn3 2.757422 1_554
Sb5 Zn7 2.973063 1_555
Sb5 Sr6 3.319737 1_555
Sb5 Sr6 3.319737 1_655
Sb5 Sr2 3.354654 1_655
Sb5 Sr2 3.354654 1_555
Sb6 Zn0 2.757422 1_556
Sb6 Zn4 2.973063 1_555
Sb6 Sr5 3.319737 1_455
Sb6 Sr5 3.319737 1_555
Sb6 Sr1 3.354654 1_455
Sb6 Sr1 3.354654 1_555
Sb7 Zn1 2.757422 1_555
Sb7 Zn5 2.973063 1_555
Sb7 Sr4 3.319737 1_555
Sb7 Sr4 3.319737 1_655
Sb7 Sr0 3.354654 1_555
Sb7 Sr0 3.354654 1_655
Sb8 Zn1 2.851540 1_555
Sb8 Zn1 2.851540 1_455
Sb8 Zn6 2.940303 1_545
Sb8 Sr4 3.295495 1_555
Sb8 Sr7 3.376154 1_445
Sb8 Sr7 3.376154 1_545
Sb8 Sr1 3.446761 1_555
Sb8 Sr1 3.446761 1_455
Sb9 Zn0 2.851540 1_555
Sb9 Zn0 2.851540 1_655
Sb9 Zn7 2.940303 1_555
Sb9 Sr5 3.295495 1_554
Sb9 Sr6 3.376154 1_655
Sb9 Sr6 3.376154 1_555
Sb9 Sr0 3.446761 1_555
Sb9 Sr0 3.446761 1_655
Sb10 Zn3 2.851540 1_555
Sb10 Zn3 2.851540 1_455
Sb10 Zn4 2.940303 1_555
Sb10 Sr6 3.295495 1_556
Sb10 Sr5 3.376154 1_455
Sb10 Sr5 3.376154 1_555
Sb10 Sr3 3.446761 1_455
Sb10 Sr3 3.446761 1_555
Sb11 Zn2 2.851540 1_555
Sb11 Zn2 2.851540 1_655
Sb11 Zn5 2.940303 1_565
Sb11 Sr7 3.295495 1_555
Sb11 Sr4 3.376154 1_565
Sb11 Sr4 3.376154 1_665
Sb11 Sr2 3.446761 1_655
Sb11 Sr2 3.446761 1_555
