# generated using pymatgen
data_Cs4Sc9Sb3Te20
_symmetry_space_group_name_H-M   'P 1'
_cell_length_a   4.25533247
_cell_length_b   12.85828446
_cell_length_c   23.29588932
_cell_angle_alpha   90.39429350
_cell_angle_beta   90.00000000
_cell_angle_gamma   90.00000000
_symmetry_Int_Tables_number   1
_chemical_formula_structural   Cs4Sc9Sb3Te20
_chemical_formula_sum   'Cs4 Sc9 Sb3 Te20'
_cell_volume   1274.63411296
_cell_formula_units_Z   1
loop_
 _symmetry_equiv_pos_site_id
 _symmetry_equiv_pos_as_xyz
  1  'x, y, z'
loop_
 _atom_site_type_symbol
 _atom_site_label
 _atom_site_symmetry_multiplicity
 _atom_site_fract_x
 _atom_site_fract_y
 _atom_site_fract_z
 _atom_site_occupancy
  Cs  Cs0  1  0.25000000  0.35863692  0.09088095  1
  Cs  Cs1  1  0.75000000  0.64541037  0.91696493  1
  Cs  Cs2  1  0.75000000  0.86164237  0.41556515  1
  Cs  Cs3  1  0.25000000  0.14316458  0.58282815  1
  Sc  Sc0  1  0.25000000  0.05354808  0.19755984  1
  Sc  Sc1  1  0.25000000  0.78723643  0.66729385  1
  Sc  Sc2  1  0.75000000  0.20330833  0.32468301  1
  Sc  Sc3  1  0.75000000  0.29025210  0.83393821  1
  Sc  Sc4  1  0.25000000  0.71966297  0.17144876  1
  Sc  Sc5  1  0.25000000  0.38689539  0.44236139  1
  Sc  Sc6  1  0.75000000  0.60310488  0.55453178  1
  Sc  Sc7  1  0.75000000  0.90097196  0.05697451  1
  Sc  Sc8  1  0.25000000  0.10802995  0.94695070  1
  Sb  Sb0  1  0.25000000  0.44122780  0.70125247  1
  Sb  Sb1  1  0.75000000  0.55377347  0.29880852  1
  Sb  Sb2  1  0.75000000  0.94291504  0.79819911  1
  Te  Te0  1  0.25000000  0.44540122  0.56671723  1
  Te  Te1  1  0.75000000  0.54635140  0.43218585  1
  Te  Te2  1  0.75000000  0.94963350  0.93466173  1
  Te  Te3  1  0.25000000  0.05790728  0.07023264  1
  Te  Te4  1  0.25000000  0.76406485  0.54463974  1
  Te  Te5  1  0.75000000  0.22693940  0.45023000  1
  Te  Te6  1  0.75000000  0.26819351  0.95734211  1
  Te  Te7  1  0.25000000  0.74159456  0.04832073  1
  Te  Te8  1  0.25000000  0.78641375  0.79567234  1
  Te  Te9  1  0.75000000  0.20335020  0.19873129  1
  Te  Te10  1  0.75000000  0.28506144  0.70510543  1
  Te  Te11  1  0.25000000  0.71168673  0.29859493  1
  Te  Te12  1  0.25000000  0.44608059  0.82999491  1
  Te  Te13  1  0.75000000  0.56561502  0.17033598  1
  Te  Te14  1  0.75000000  0.94436563  0.67108659  1
  Te  Te15  1  0.25000000  0.04742592  0.32175326  1
  Te  Te16  1  0.25000000  0.36732442  0.31726252  1
  Te  Te17  1  0.75000000  0.62851457  0.68009003  1
  Te  Te18  1  0.75000000  0.88438748  0.18501136  1
  Te  Te19  1  0.25000000  0.12990987  0.82178999  1
loop_
_geom_bond_atom_site_label_1
_geom_bond_atom_site_label_2
_geom_bond_distance
_geom_bond_site_symmetry_2
Cs0 Te9 3.859457 1_555
Cs0 Te9 3.859457 1_455
Cs0 Te13 3.868880 1_555
Cs0 Te13 3.868880 1_455
Cs0 Te3 3.893385 1_555
Cs0 Te6 3.937938 1_554
Cs0 Te6 3.937938 1_454
Cs1 Te12 3.889668 1_555
Cs1 Te12 3.889668 1_655
Cs1 Te7 3.920251 1_656
Cs1 Te7 3.920251 1_556
Cs1 Te2 3.930629 1_555
Cs1 Te8 3.983565 1_655
Cs1 Te8 3.983565 1_555
Cs2 Te15 3.883500 1_565
Cs2 Te15 3.883500 1_665
Cs2 Te4 3.898025 1_655
Cs2 Te4 3.898025 1_555
Cs2 Te11 3.949394 1_655
Cs2 Te11 3.949394 1_555
Cs2 Te1 4.075200 1_555
Cs3 Te0 3.906896 1_555
Cs3 Te5 3.908323 1_455
Cs3 Te5 3.908323 1_555
Cs3 Te14 3.919299 1_545
Cs3 Te14 3.919299 1_445
Cs3 Te10 3.987317 1_455
Cs3 Te10 3.987317 1_555
Sc0 Te9 2.870057 1_555
Sc0 Te9 2.870057 1_455
Sc0 Te15 2.894808 1_555
Sc0 Te3 2.967115 1_555
Sc0 Te18 3.055289 1_445
Sc0 Te18 3.055289 1_545
Sc1 Te4 2.870789 1_555
Sc1 Te14 2.935026 1_455
Sc1 Te14 2.935026 1_555
Sc1 Te17 2.964698 1_455
Sc1 Te17 2.964698 1_555
Sc1 Te8 2.990783 1_555
Sc2 Te15 2.923573 1_655
Sc2 Te15 2.923573 1_555
Sc2 Te9 2.934161 1_555
Sc2 Te5 2.938390 1_555
Sc2 Te16 3.001600 1_655
Sc2 Te16 3.001600 1_555
Sc3 Te6 2.890704 1_555
Sc3 Te12 2.924500 1_655
Sc3 Te12 2.924500 1_555
Sc3 Te19 2.974851 1_555
Sc3 Te19 2.974851 1_655
Sc3 Te10 3.001557 1_555
Sc4 Te7 2.884137 1_555
Sc4 Te13 2.906969 1_555
Sc4 Te13 2.906969 1_455
Sc4 Te11 2.964464 1_555
Sc4 Te18 3.017254 1_455
Sc4 Te18 3.017254 1_555
Sc5 Te16 2.923408 1_555
Sc5 Te1 2.965417 1_555
Sc5 Te1 2.965417 1_455
Sc5 Te5 2.965807 1_555
Sc5 Te5 2.965807 1_455
Sc5 Te0 2.988048 1_555
Sc6 Te1 2.937228 1_555
Sc6 Te17 2.940947 1_555
Sc6 Te0 2.954223 1_555
Sc6 Te0 2.954223 1_655
Sc6 Te4 2.978282 1_555
Sc6 Te4 2.978282 1_655
Sc7 Te2 2.921479 1_554
Sc7 Te3 2.947164 1_565
Sc7 Te3 2.947164 1_665
Sc7 Te7 2.960005 1_555
Sc7 Te7 2.960005 1_655
Sc7 Te18 2.991809 1_555
Sc8 Te19 2.931198 1_555
Sc8 Te3 2.947713 1_556
Sc8 Te2 2.957883 1_545
Sc8 Te2 2.957883 1_445
Sc8 Te6 2.969840 1_455
Sc8 Te6 2.969840 1_555
Sb0 Te10 2.927404 1_455
Sb0 Te10 2.927404 1_555
Sb0 Te12 2.999389 1_555
Sb0 Te0 3.134947 1_555
Sb0 Te17 3.253569 1_455
Sb0 Te17 3.253569 1_555
Sb1 Te11 2.941094 1_555
Sb1 Te11 2.941094 1_655
Sb1 Te13 2.997799 1_555
Sb1 Te1 3.109265 1_555
Sb1 Te16 3.236288 1_555
Sb1 Te16 3.236288 1_655
Sb2 Te8 2.928874 1_555
Sb2 Te8 2.928874 1_655
Sb2 Te14 2.961386 1_555
Sb2 Te2 3.179597 1_555
Sb2 Te19 3.254551 1_565
Sb2 Te19 3.254551 1_665
