# generated using pymatgen
data_CeAlRh
_symmetry_space_group_name_H-M   'P 1'
_cell_length_a   4.21950401
_cell_length_b   7.13337503
_cell_length_c   15.79495456
_cell_angle_alpha   90.00000000
_cell_angle_beta   90.00000000
_cell_angle_gamma   90.00000000
_symmetry_Int_Tables_number   1
_chemical_formula_structural   CeAlRh
_chemical_formula_sum   'Ce8 Al8 Rh8'
_cell_volume   475.41714756
_cell_formula_units_Z   8
loop_
 _symmetry_equiv_pos_site_id
 _symmetry_equiv_pos_as_xyz
  1  'x, y, z'
loop_
 _atom_site_type_symbol
 _atom_site_label
 _atom_site_symmetry_multiplicity
 _atom_site_fract_x
 _atom_site_fract_y
 _atom_site_fract_z
 _atom_site_occupancy
  Ce  Ce0  1  0.25000000  0.15585007  0.56005018  1
  Ce  Ce1  1  0.75000000  0.84414993  0.43994982  1
  Ce  Ce2  1  0.25000000  0.65585007  0.93994982  1
  Ce  Ce3  1  0.75000000  0.34414993  0.06005018  1
  Ce  Ce4  1  0.25000000  0.02898691  0.78002476  1
  Ce  Ce5  1  0.75000000  0.97101309  0.21997524  1
  Ce  Ce6  1  0.25000000  0.52898691  0.71997524  1
  Ce  Ce7  1  0.75000000  0.47101309  0.28002476  1
  Al  Al0  1  0.25000000  0.14551288  0.35049314  1
  Al  Al1  1  0.75000000  0.85448712  0.64950686  1
  Al  Al2  1  0.25000000  0.64551288  0.14950686  1
  Al  Al3  1  0.75000000  0.35448712  0.85049314  1
  Al  Al4  1  0.25000000  0.00560293  0.06069758  1
  Al  Al5  1  0.75000000  0.99439707  0.93930242  1
  Al  Al6  1  0.25000000  0.50560293  0.43930242  1
  Al  Al7  1  0.75000000  0.49439707  0.56069758  1
  Rh  Rh0  1  0.75000000  0.28574211  0.42389771  1
  Rh  Rh1  1  0.25000000  0.71425789  0.57610229  1
  Rh  Rh2  1  0.75000000  0.78574211  0.07610229  1
  Rh  Rh3  1  0.25000000  0.21425789  0.92389771  1
  Rh  Rh4  1  0.75000000  0.73606348  0.81681317  1
  Rh  Rh5  1  0.25000000  0.26393652  0.18318683  1
  Rh  Rh6  1  0.75000000  0.23606348  0.68318683  1
  Rh  Rh7  1  0.25000000  0.76393652  0.31681317  1
loop_
_geom_bond_atom_site_label_1
_geom_bond_atom_site_label_2
_geom_bond_distance
_geom_bond_site_symmetry_2
Ce0 Rh6 2.925960 1_455
Ce0 Rh6 2.925960 1_555
Ce0 Rh0 3.151877 1_455
Ce0 Rh0 3.151877 1_555
Ce0 Rh1 3.160230 1_545
Ce0 Ce4 3.590408 1_555
Ce0 Ce1 3.604639 1_445
Ce0 Ce1 3.604639 1_545
Ce0 Ce6 3.669537 1_555
Ce1 Rh7 2.925960 1_555
Ce1 Rh7 2.925960 1_655
Ce1 Rh1 3.151877 1_655
Ce1 Rh1 3.151877 1_555
Ce1 Rh0 3.160230 1_565
Ce1 Ce5 3.590408 1_555
Ce1 Ce7 3.669537 1_555
Ce2 Rh4 2.925960 1_455
Ce2 Rh4 2.925960 1_555
Ce2 Rh2 3.151877 1_556
Ce2 Rh2 3.151877 1_456
Ce2 Rh3 3.160230 1_555
Ce2 Ce6 3.590408 1_555
Ce2 Ce3 3.604639 1_456
Ce2 Ce3 3.604639 1_556
Ce2 Ce4 3.669537 1_565
Ce3 Rh5 2.925960 1_555
Ce3 Rh5 2.925960 1_655
Ce3 Rh3 3.151877 1_654
Ce3 Rh3 3.151877 1_554
Ce3 Rh2 3.160230 1_555
Ce3 Ce7 3.590408 1_555
Ce3 Ce5 3.669537 1_545
Ce4 Rh3 2.628831 1_555
Ce4 Rh6 2.995424 1_555
Ce4 Rh6 2.995424 1_455
Ce4 Rh4 3.025697 1_545
Ce4 Rh4 3.025697 1_445
Ce5 Rh2 2.628831 1_555
Ce5 Rh7 2.995424 1_555
Ce5 Rh7 2.995424 1_655
Ce5 Rh5 3.025697 1_565
Ce5 Rh5 3.025697 1_665
Ce6 Rh1 2.628831 1_555
Ce6 Rh4 2.995424 1_555
Ce6 Rh4 2.995424 1_455
Ce6 Rh6 3.025697 1_455
Ce6 Rh6 3.025697 1_555
Ce7 Rh0 2.628831 1_555
Ce7 Rh5 2.995424 1_655
Ce7 Rh5 2.995424 1_555
Ce7 Rh7 3.025697 1_555
Ce7 Rh7 3.025697 1_655
Al0 Rh0 2.606900 1_455
Al0 Rh0 2.606900 1_555
Al0 Rh7 2.773425 1_545
Al0 Rh5 2.774334 1_555
Al0 Al6 2.926718 1_555
Al0 Ce5 3.201624 1_445
Al0 Ce5 3.201624 1_545
Al0 Ce0 3.310765 1_555
Al0 Ce1 3.326993 1_545
Al0 Ce1 3.326993 1_445
Al0 Ce7 3.328845 1_455
Al0 Ce7 3.328845 1_555
Al1 Rh1 2.606900 1_555
Al1 Rh1 2.606900 1_655
Al1 Rh6 2.773425 1_565
Al1 Rh4 2.774334 1_555
Al1 Al7 2.926718 1_555
Al1 Ce4 3.201624 1_665
Al1 Ce4 3.201624 1_565
Al1 Ce1 3.310765 1_555
Al1 Ce0 3.326993 1_665
Al1 Ce0 3.326993 1_565
Al1 Ce6 3.328845 1_655
Al1 Ce6 3.328845 1_555
Al2 Rh2 2.606900 1_555
Al2 Rh2 2.606900 1_455
Al2 Rh5 2.773425 1_555
Al2 Rh7 2.774334 1_555
Al2 Al4 2.926718 1_565
Al2 Ce7 3.201624 1_455
Al2 Ce7 3.201624 1_555
Al2 Ce2 3.310765 1_554
Al2 Ce3 3.326993 1_555
Al2 Ce3 3.326993 1_455
Al2 Ce5 3.328845 1_455
Al2 Ce5 3.328845 1_555
Al3 Rh3 2.606900 1_555
Al3 Rh3 2.606900 1_655
Al3 Rh4 2.773425 1_555
Al3 Rh6 2.774334 1_555
Al3 Al5 2.926718 1_545
Al3 Ce6 3.201624 1_555
Al3 Ce6 3.201624 1_655
Al3 Ce3 3.310765 1_556
Al3 Ce2 3.326993 1_555
Al3 Ce2 3.326993 1_655
Al3 Ce4 3.328845 1_555
Al3 Ce4 3.328845 1_655
Al4 Rh3 2.623777 1_554
Al4 Rh2 2.640071 1_445
Al4 Rh2 2.640071 1_545
Al4 Rh5 2.671888 1_555
Al4 Al5 2.852014 1_544
Al4 Al5 2.852014 1_444
Al4 Ce2 3.140390 1_544
Al4 Ce3 3.206758 1_455
Al4 Ce3 3.206758 1_555
Al4 Ce5 3.292583 1_445
Al4 Ce5 3.292583 1_545
Al5 Rh2 2.623777 1_556
Al5 Rh3 2.640071 1_565
Al5 Rh3 2.640071 1_665
Al5 Rh4 2.671888 1_555
Al5 Ce3 3.140390 1_566
Al5 Ce2 3.206758 1_555
Al5 Ce2 3.206758 1_655
Al5 Ce4 3.292583 1_665
Al5 Ce4 3.292583 1_565
Al6 Rh1 2.623777 1_555
Al6 Rh0 2.640071 1_455
Al6 Rh0 2.640071 1_555
Al6 Rh7 2.671888 1_555
Al6 Al7 2.852014 1_455
Al6 Al7 2.852014 1_555
Al6 Ce0 3.140390 1_555
Al6 Ce1 3.206758 1_455
Al6 Ce1 3.206758 1_555
Al6 Ce7 3.292583 1_455
Al6 Ce7 3.292583 1_555
Al7 Rh0 2.623777 1_555
Al7 Rh1 2.640071 1_555
Al7 Rh1 2.640071 1_655
Al7 Rh6 2.671888 1_555
Al7 Ce1 3.140390 1_555
Al7 Ce0 3.206758 1_555
Al7 Ce0 3.206758 1_655
Al7 Ce6 3.292583 1_655
Al7 Ce6 3.292583 1_555
