# generated using pymatgen
data_Nb3VSi3Os2
_symmetry_space_group_name_H-M   'P 1'
_cell_length_a   7.47976747
_cell_length_b   7.47915401
_cell_length_c   7.47949248
_cell_angle_alpha   127.15962020
_cell_angle_beta   124.18850949
_cell_angle_gamma   80.44834763
_symmetry_Int_Tables_number   1
_chemical_formula_structural   Nb3VSi3Os2
_chemical_formula_sum   'Nb6 V2 Si6 Os4'
_cell_volume   266.11546228
_cell_formula_units_Z   2
loop_
 _symmetry_equiv_pos_site_id
 _symmetry_equiv_pos_as_xyz
  1  'x, y, z'
loop_
 _atom_site_type_symbol
 _atom_site_label
 _atom_site_symmetry_multiplicity
 _atom_site_fract_x
 _atom_site_fract_y
 _atom_site_fract_z
 _atom_site_occupancy
  Nb  Nb0  1  0.56082572  0.09694975  0.03600627  1
  Nb  Nb1  1  0.43912326  0.47520085  0.53606872  1
  Nb  Nb2  1  0.96004984  0.48657259  0.02651828  1
  Nb  Nb3  1  0.03997543  0.06640073  0.52647266  1
  Nb  Nb4  1  0.75355748  0.92248206  0.66891719  1
  Nb  Nb5  1  0.24633104  0.91527750  0.16891315  1
  V  V0  1  0.49997061  0.24931321  0.74926850  1
  V  V1  1  0.00001767  0.24928215  0.24925806  1
  Si  Si0  1  0.77959118  0.54410012  0.26453986  1
  Si  Si1  1  0.22045967  0.48502600  0.76453813  1
  Si  Si2  1  0.33800808  0.82288673  0.49778111  1
  Si  Si3  1  0.66198226  0.15978900  0.48492336  1
  Si  Si4  1  0.82510574  0.82288848  0.98492740  1
  Si  Si5  1  0.17488157  0.15979951  0.99778721  1
  Os  Os0  1  0.16295541  0.74783243  0.65831923  1
  Os  Os1  1  0.83713196  0.49534923  0.58485225  1
  Os  Os2  1  0.58950290  0.74772566  0.08489097  1
  Os  Os3  1  0.41053019  0.49532401  0.15821765  1
loop_
_geom_bond_atom_site_label_1
_geom_bond_atom_site_label_2
_geom_bond_distance
_geom_bond_site_symmetry_2
Nb0 Si2 2.609616 1_544
Nb0 Si4 2.610166 1_544
Nb0 Si5 2.724100 1_554
Nb0 Si3 2.724670 1_555
Nb0 Os3 2.780249 1_555
Nb0 Os1 2.780941 1_555
Nb0 V0 2.790793 1_554
Nb0 V1 2.791395 1_655
Nb0 Os0 2.806138 1_544
Nb0 Os2 2.807376 1_545
Nb0 Si0 2.924127 1_555
Nb1 Si3 2.609859 1_555
Nb1 Si5 2.609862 1_554
Nb1 Si2 2.723895 1_555
Nb1 Si4 2.724020 1_555
Nb1 Os0 2.780872 1_555
Nb1 Os2 2.781015 1_556
Nb1 V0 2.790699 1_555
Nb1 V1 2.790855 1_555
Nb1 Os3 2.807013 1_555
Nb1 Os1 2.807160 1_555
Nb1 Si1 2.924031 1_555
Nb2 Si0 2.599795 1_555
Nb2 Si3 2.655472 1_554
Nb2 Si5 2.655485 1_654
Nb2 Si4 2.681868 1_554
Nb2 Si2 2.682097 1_655
Nb2 Os1 2.931033 1_554
Nb2 Os3 2.931422 1_655
Nb2 V1 2.974998 1_655
Nb2 V0 2.975365 1_554
Nb2 Os2 3.196958 1_555
Nb2 Os0 3.197097 1_655
Nb3 Si1 2.600419 1_555
Nb3 Si4 2.655165 1_444
Nb3 Si2 2.655288 1_545
Nb3 Si5 2.682267 1_555
Nb3 Si3 2.682811 1_455
Nb3 Os0 2.930394 1_545
Nb3 Os2 2.931016 1_445
Nb3 V0 2.975074 1_555
Nb3 V1 2.975452 1_555
Nb3 Os3 3.196956 1_556
Nb3 Os1 3.197155 1_455
Nb4 Si2 2.645669 1_555
Nb4 Si4 2.645921 1_555
Nb4 Si3 2.645956 1_565
Nb4 Si5 2.646227 1_665
Nb4 Si0 2.707980 1_555
Nb4 V1 2.810582 1_666
Nb4 V0 2.811004 1_565
Nb4 Os1 2.888584 1_555
Nb4 Os3 2.888594 1_555
Nb4 Os2 3.147433 1_555
Nb4 Os0 3.147989 1_655
Nb5 Si2 2.645502 1_555
Nb5 Si4 2.645571 1_454
Nb5 Si5 2.646345 1_564
Nb5 Si3 2.646381 1_565
Nb5 Si1 2.707634 1_554
Nb5 V1 2.810536 1_565
Nb5 V0 2.810693 1_565
Nb5 Os0 2.889065 1_554
Nb5 Os2 2.889287 1_555
Nb5 Os1 3.147143 1_454
Nb5 Os3 3.147489 1_555
Si0 V1 2.508822 1_655
Si0 V0 2.508964 1_554
Si1 V0 2.508748 1_555
Si1 V1 2.508976 1_555
Si2 V0 2.579038 1_565
Si3 V0 2.578772 1_555
Si4 V1 2.579036 1_666
Si5 V1 2.578722 1_556
Os0 Si0 2.399145 1_455
Os0 Si1 2.429307 1_555
Os0 Si2 2.509261 1_555
Os0 Si5 2.516730 1_565
Os0 V1 2.878405 1_555
Os0 Os1 2.928478 1_455
Os0 Os2 2.986807 1_556
Os1 Si1 2.398820 1_655
Os1 Si0 2.429470 1_555
Os1 Si3 2.509622 1_555
Os1 Si4 2.517355 1_555
Os1 V1 2.878170 1_655
Os1 Os3 2.986755 1_555
Os2 Si0 2.398518 1_555
Os2 Si1 2.429116 1_554
Os2 Si4 2.509558 1_554
Os2 Si3 2.517133 1_565
Os2 V0 2.877552 1_554
Os2 Os3 2.927624 1_555
Os3 Si1 2.398983 1_554
Os3 Si0 2.429494 1_555
Os3 Si5 2.509415 1_554
Os3 Si2 2.517350 1_555
Os3 V0 2.877678 1_554
