# generated using pymatgen
data_Li3MgAs6Pd7
_symmetry_space_group_name_H-M   'P 1'
_cell_length_a   7.10272256
_cell_length_b   7.10272371
_cell_length_c   7.10850048
_cell_angle_alpha   109.48768859
_cell_angle_beta   109.48769189
_cell_angle_gamma   109.45474107
_symmetry_Int_Tables_number   1
_chemical_formula_structural   Li3MgAs6Pd7
_chemical_formula_sum   'Li3 Mg1 As6 Pd7'
_cell_volume   276.00540770
_cell_formula_units_Z   1
loop_
 _symmetry_equiv_pos_site_id
 _symmetry_equiv_pos_as_xyz
  1  'x, y, z'
loop_
 _atom_site_type_symbol
 _atom_site_label
 _atom_site_symmetry_multiplicity
 _atom_site_fract_x
 _atom_site_fract_y
 _atom_site_fract_z
 _atom_site_occupancy
  Li  Li0  1  0.50000000  0.00000000  0.00000000  1
  Li  Li1  1  0.00000000  0.50000000  0.00000000  1
  Li  Li2  1  0.50000000  0.50000000  0.50000000  1
  Mg  Mg0  1  0.00000000  0.00000000  0.50000000  1
  As  As0  1  0.68103287  0.68103287  0.99293544  1
  As  As1  1  0.31896713  0.31896713  0.00706456  1
  As  As2  1  0.00000000  0.68103287  0.68809843  1
  As  As3  1  1.00000000  0.31896713  0.31190157  1
  As  As4  1  0.68103287  0.00000000  0.68809843  1
  As  As5  1  0.31896713  1.00000000  0.31190157  1
  Pd  Pd0  1  0.00000000  0.00000000  0.00000000  1
  Pd  Pd1  1  0.24800833  0.49601766  0.74800833  1
  Pd  Pd2  1  0.75199167  0.24800833  0.50000000  1
  Pd  Pd3  1  0.49601766  0.24800833  0.74800833  1
  Pd  Pd4  1  0.50398234  0.75199167  0.25199167  1
  Pd  Pd5  1  0.75199167  0.50398234  0.25199167  1
  Pd  Pd6  1  0.24800833  0.75199167  0.50000000  1
loop_
_geom_bond_atom_site_label_1
_geom_bond_atom_site_label_2
_geom_bond_distance
_geom_bond_site_symmetry_2
Li0 Pd4 2.901241 1_545
Li0 Pd3 2.901241 1_554
Li0 Pd2 2.901241 1_555
Li0 Pd6 2.901241 1_544
Li0 Pd1 2.922473 1_544
Li0 Pd5 2.922473 1_555
Li1 Pd5 2.901241 1_455
Li1 Pd1 2.901241 1_554
Li1 Pd6 2.901241 1_555
Li1 Pd2 2.901241 1_454
Li1 Pd4 2.922472 1_555
Li1 Pd3 2.922472 1_454
Li2 Pd1 2.901241 1_555
Li2 Pd5 2.901241 1_555
Li2 Pd3 2.901241 1_555
Li2 Pd4 2.901241 1_555
Li2 Pd6 2.922478 1_555
Li2 Pd2 2.922478 1_555
Mg0 Pd2 2.876281 1_455
Mg0 Pd6 2.876281 1_545
Mg0 Pd3 2.876287 1_555
Mg0 Pd4 2.876287 1_445
Mg0 Pd5 2.876288 1_445
Mg0 Pd1 2.876288 1_555
As0 Pd1 2.534984 1_555
As0 Pd3 2.534984 1_555
As0 Pd4 2.564097 1_556
As0 Pd5 2.564097 1_556
As0 Pd0 2.587860 1_666
As0 Li2 2.910547 1_555
As0 Li1 2.948927 1_656
As0 Li0 2.948927 1_566
As0 Mg0 2.990249 1_666
As1 Pd5 2.534984 1_555
As1 Pd4 2.534984 1_555
As1 Pd3 2.564097 1_554
As1 Pd1 2.564097 1_554
As1 Pd0 2.587860 1_555
As1 Li2 2.910547 1_555
As1 Li1 2.948927 1_555
As1 Li0 2.948927 1_555
As1 Mg0 2.990249 1_554
As2 Pd1 2.534977 1_555
As2 Pd2 2.534983 1_455
As2 Pd5 2.564096 1_455
As2 Pd6 2.564097 1_555
As2 Pd0 2.587857 1_566
As2 Li1 2.910540 1_556
As2 Li2 2.948926 1_455
As2 Li0 2.948927 1_566
As2 Mg0 2.990254 1_565
As3 Pd5 2.534977 1_555
As3 Pd6 2.534983 1_655
As3 Pd1 2.564096 1_655
As3 Pd2 2.564097 1_555
As3 Pd0 2.587857 1_655
As3 Li1 2.910540 1_655
As3 Li2 2.948926 1_655
As3 Li0 2.948927 1_555
As3 Mg0 2.990254 1_655
As4 Pd3 2.534977 1_555
As4 Pd6 2.534982 1_545
As4 Pd4 2.564097 1_545
As4 Pd2 2.564097 1_555
As4 Pd0 2.587856 1_656
As4 Li0 2.910540 1_556
As4 Li2 2.948927 1_545
As4 Li1 2.948927 1_656
As4 Mg0 2.990254 1_655
As5 Pd4 2.534977 1_555
As5 Pd2 2.534982 1_565
As5 Pd3 2.564097 1_565
As5 Pd6 2.564097 1_555
As5 Pd0 2.587856 1_565
As5 Li0 2.910540 1_565
As5 Li2 2.948927 1_565
As5 Li1 2.948927 1_555
As5 Mg0 2.990254 1_565
