# generated using pymatgen
data_Mg(FeO2)2
_symmetry_space_group_name_H-M   'P 1'
_cell_length_a   5.98258102
_cell_length_b   5.98258102
_cell_length_c   14.63079430
_cell_angle_alpha   89.97910153
_cell_angle_beta   89.97910153
_cell_angle_gamma   60.22144083
_symmetry_Int_Tables_number   1
_chemical_formula_structural   Mg(FeO2)2
_chemical_formula_sum   'Mg6 Fe12 O24'
_cell_volume   454.50685257
_cell_formula_units_Z   6
loop_
 _symmetry_equiv_pos_site_id
 _symmetry_equiv_pos_as_xyz
  1  'x, y, z'
loop_
 _atom_site_type_symbol
 _atom_site_label
 _atom_site_symmetry_multiplicity
 _atom_site_fract_x
 _atom_site_fract_y
 _atom_site_fract_z
 _atom_site_occupancy
  Mg  Mg0  1  0.16268500  0.16268500  0.95821300  1
  Mg  Mg1  1  0.66611600  0.66611600  0.83188800  1
  Mg  Mg2  1  0.00008100  0.00008100  0.50031900  1
  Mg  Mg3  1  0.83075400  0.83075400  0.66474700  1
  Mg  Mg4  1  0.33294900  0.33294900  0.16824000  1
  Mg  Mg5  1  0.16942500  0.16942500  0.33629900  1
  Fe  Fe0  1  0.49478200  0.49478200  0.61844500  1
  Fe  Fe1  1  0.50051400  0.50051400  0.99572000  1
  Fe  Fe2  1  0.66673700  0.16986600  0.83167400  1
  Fe  Fe3  1  0.82722700  0.82722700  0.29362500  1
  Fe  Fe4  1  0.16986600  0.66673700  0.83167400  1
  Fe  Fe5  1  0.99990100  0.49997200  0.50022200  1
  Fe  Fe6  1  0.49997200  0.99990100  0.50022200  1
  Fe  Fe7  1  0.17284900  0.17284900  0.70835000  1
  Fe  Fe8  1  0.33092600  0.83754300  0.16873100  1
  Fe  Fe9  1  0.83754300  0.33092600  0.16873100  1
  Fe  Fe10  1  0.50502600  0.50502600  0.38017500  1
  Fe  Fe11  1  0.83803600  0.83803600  0.04148700  1
  O  O0  1  0.34178500  0.80396900  0.91325500  1
  O  O1  1  0.80396900  0.34178500  0.91325500  1
  O  O2  1  0.49745900  0.49745900  0.75175500  1
  O  O3  1  0.34503500  0.34503500  0.91234100  1
  O  O4  1  0.66470800  0.14533900  0.57722900  1
  O  O5  1  0.99368200  0.99368200  0.75187600  1
  O  O6  1  0.83569300  0.83569300  0.91031300  1
  O  O7  1  0.51708200  0.99605600  0.75297600  1
  O  O8  1  0.14533900  0.66470800  0.57722900  1
  O  O9  1  0.82607100  0.82607100  0.42660800  1
  O  O10  1  0.67423900  0.67423900  0.57449000  1
  O  O11  1  0.99605600  0.51708200  0.75297600  1
  O  O12  1  0.32627900  0.32627900  0.42524100  1
  O  O13  1  0.00399000  0.48425600  0.24822900  1
  O  O14  1  0.17395300  0.17395300  0.57410000  1
  O  O15  1  0.85348600  0.33549500  0.42248000  1
  O  O16  1  0.48425600  0.00399000  0.24822900  1
  O  O17  1  0.16187700  0.16187700  0.09527300  1
  O  O18  1  0.33549500  0.85348600  0.42248000  1
  O  O19  1  0.00587300  0.00587300  0.24927500  1
  O  O20  1  0.65795000  0.65795000  0.08577100  1
  O  O21  1  0.50322100  0.50322100  0.24534500  1
  O  O22  1  0.18768100  0.65945200  0.08525500  1
  O  O23  1  0.65945200  0.18768100  0.08525500  1
loop_
_geom_bond_atom_site_label_1
_geom_bond_atom_site_label_2
_geom_bond_distance
_geom_bond_site_symmetry_2
Mg0 O0 1.975533 1_545
Mg0 O1 1.975533 1_455
Mg0 O3 2.002931 1_555
Mg0 O17 2.005311 1_556
Mg1 O1 2.066832 1_555
Mg1 O0 2.066832 1_555
Mg1 O7 2.067640 1_555
Mg1 O11 2.067640 1_555
Mg1 O6 2.097392 1_555
Mg1 O2 2.103263 1_555
Mg2 O4 2.077059 1_455
Mg2 O8 2.077059 1_545
Mg2 O15 2.084163 1_455
Mg2 O18 2.084163 1_545
Mg2 O14 2.098981 1_555
Mg2 O9 2.099680 1_445
Mg3 O8 2.076185 1_655
Mg3 O4 2.076185 1_565
Mg3 O7 2.078850 1_555
Mg3 O11 2.078850 1_555
Mg3 O10 2.090469 1_555
Mg3 O5 2.114420 1_555
Mg4 O17 2.068002 1_555
Mg4 O16 2.071639 1_555
Mg4 O13 2.071639 1_555
Mg4 O22 2.087521 1_555
Mg4 O23 2.087521 1_555
Mg4 O21 2.092938 1_555
Mg5 O15 2.069641 1_455
Mg5 O18 2.069641 1_545
Mg5 O12 2.081100 1_555
Mg5 O13 2.082057 1_555
Mg5 O16 2.082057 1_555
Mg5 O19 2.118652 1_555
Fe0 O8 1.912339 1_555
Fe0 O4 1.912339 1_555
Fe0 O2 1.950640 1_555
Fe0 O10 1.965400 1_555
Fe1 O1 1.984977 1_555
Fe1 O0 1.984977 1_555
Fe1 O3 2.019812 1_555
Fe1 O23 2.086699 1_556
Fe1 O22 2.086699 1_556
Fe1 O20 2.095971 1_556
Fe2 O1 1.999233 1_555
Fe2 O7 2.033466 1_545
Fe2 O3 2.047220 1_555
Fe2 O5 2.061865 1_545
Fe2 O2 2.064351 1_555
Fe2 O6 2.081888 1_545
Fe3 O13 1.901243 1_655
Fe3 O16 1.901243 1_565
Fe3 O9 1.945679 1_555
Fe3 O19 1.959373 1_665
Fe4 O0 1.999233 1_555
Fe4 O11 2.033466 1_455
Fe4 O3 2.047220 1_555
Fe4 O5 2.061865 1_455
Fe4 O2 2.064351 1_555
Fe4 O6 2.081888 1_455
Fe5 O8 1.962411 1_655
Fe5 O15 1.971535 1_555
Fe5 O9 2.007881 1_555
Fe5 O14 2.009661 1_655
Fe5 O10 2.011263 1_555
Fe5 O12 2.019834 1_655
Fe6 O4 1.962411 1_565
Fe6 O18 1.971535 1_555
Fe6 O9 2.007881 1_555
Fe6 O14 2.009661 1_565
Fe6 O10 2.011263 1_555
Fe6 O12 2.019834 1_565
Fe7 O11 1.903419 1_455
Fe7 O7 1.903419 1_545
Fe7 O5 1.960518 1_445
Fe7 O14 1.964213 1_555
Fe8 O17 1.998233 1_565
Fe8 O16 2.023568 1_565
Fe8 O19 2.058754 1_565
Fe8 O22 2.066362 1_555
Fe8 O21 2.066582 1_555
Fe8 O20 2.089633 1_555
Fe9 O17 1.998233 1_655
Fe9 O13 2.023568 1_655
Fe9 O19 2.058754 1_655
Fe9 O23 2.066362 1_555
Fe9 O21 2.066582 1_555
Fe9 O20 2.089633 1_555
Fe10 O15 1.912590 1_555
Fe10 O18 1.912590 1_555
Fe10 O12 1.963848 1_555
Fe10 O21 1.972766 1_555
Fe11 O6 1.919343 1_554
Fe11 O23 1.925534 1_565
Fe11 O22 1.925534 1_655
Fe11 O20 1.973126 1_555
