# generated using pymatgen
data_CsCu(AuS)2
_symmetry_space_group_name_H-M   'P 1'
_cell_length_a   6.33225283
_cell_length_b   5.65172096
_cell_length_c   5.95710756
_cell_angle_alpha   92.60970513
_cell_angle_beta   89.99999867
_cell_angle_gamma   124.07004905
_symmetry_Int_Tables_number   1
_chemical_formula_structural   CsCu(AuS)2
_chemical_formula_sum   'Cs1 Cu1 Au2 S2'
_cell_volume   176.33272722
_cell_formula_units_Z   1
loop_
 _symmetry_equiv_pos_site_id
 _symmetry_equiv_pos_as_xyz
  1  'x, y, z'
loop_
 _atom_site_type_symbol
 _atom_site_label
 _atom_site_symmetry_multiplicity
 _atom_site_fract_x
 _atom_site_fract_y
 _atom_site_fract_z
 _atom_site_occupancy
  Cs  Cs0  1  0.00000000  0.00000000  0.50000000  1
  Cu  Cu0  1  0.50000000  0.00000000  0.00000000  1
  Au  Au0  1  0.50000000  0.50000000  0.00000000  1
  Au  Au1  1  0.00000000  0.50000000  0.00000000  1
  S  S0  1  0.65539938  0.31079775  0.74478303  1
  S  S1  1  0.34460062  0.68920225  0.25521697  1
loop_
_geom_bond_atom_site_label_1
_geom_bond_atom_site_label_2
_geom_bond_distance
_geom_bond_site_symmetry_2
Cs0 S1 3.613091 1_555
Cs0 S0 3.613091 1_445
Cs0 S0 3.746274 1_455
Cs0 S1 3.746274 1_545
Cs0 S0 3.746278 1_555
Cs0 S1 3.746278 1_445
Cu0 S1 2.161436 1_545
Cu0 S0 2.161436 1_554
Au0 S1 2.335407 1_555
Au0 S0 2.335407 1_554
Au0 Cu0 2.825860 1_555
Au0 Cu0 2.825860 1_565
Au1 S1 2.335402 1_555
Au1 S0 2.335402 1_454
Au1 Cu0 2.825859 1_455
Au1 Cu0 2.825859 1_565
