# generated using pymatgen
data_NaCa21Ga11Sb3
_symmetry_space_group_name_H-M   'P 1'
_cell_length_a   11.29867054
_cell_length_b   11.38421872
_cell_length_c   11.38210546
_cell_angle_alpha   59.50954295
_cell_angle_beta   60.25453212
_cell_angle_gamma   60.23592725
_symmetry_Int_Tables_number   1
_chemical_formula_structural   NaCa21Ga11Sb3
_chemical_formula_sum   'Na1 Ca21 Ga11 Sb3'
_cell_volume   1035.11991676
_cell_formula_units_Z   1
loop_
 _symmetry_equiv_pos_site_id
 _symmetry_equiv_pos_as_xyz
  1  'x, y, z'
loop_
 _atom_site_type_symbol
 _atom_site_label
 _atom_site_symmetry_multiplicity
 _atom_site_fract_x
 _atom_site_fract_y
 _atom_site_fract_z
 _atom_site_occupancy
  Na  Na0  1  0.50261306  0.49738694  0.50261306  1
  Ca  Ca0  1  0.99602810  0.00397190  0.99602810  1
  Ca  Ca1  1  0.13605221  0.13388925  0.11943406  1
  Ca  Ca2  1  0.38937452  0.88056594  0.86611075  1
  Ca  Ca3  1  0.87562678  0.38740063  0.86184553  1
  Ca  Ca4  1  0.86611075  0.86394779  0.38937452  1
  Ca  Ca5  1  0.11943406  0.61062548  0.13605221  1
  Ca  Ca6  1  0.12487393  0.13815447  0.61259937  1
  Ca  Ca7  1  0.61259937  0.12437322  0.12487393  1
  Ca  Ca8  1  0.86184553  0.87512607  0.87562678  1
  Ca  Ca9  1  0.50481459  0.82963978  0.49482293  1
  Ca  Ca10  1  0.82838287  0.49899181  0.50100819  1
  Ca  Ca11  1  0.50831827  0.82686659  0.17313341  1
  Ca  Ca12  1  0.17036022  0.49518541  0.82927630  1
  Ca  Ca13  1  0.82927630  0.50517707  0.17036022  1
  Ca  Ca14  1  0.50617851  0.49382149  0.82995230  1
  Ca  Ca15  1  0.16969668  0.83030332  0.50377188  1
  Ca  Ca16  1  0.50100819  0.17161713  0.82838287  1
  Ca  Ca17  1  0.50377188  0.49622812  0.16969668  1
  Ca  Ca18  1  0.82995230  0.17004770  0.50617851  1
  Ca  Ca19  1  0.17313341  0.49168173  0.50831827  1
  Ca  Ca20  1  0.49482293  0.17072370  0.50481459  1
  Ga  Ga0  1  0.78447204  0.78280073  0.21719927  1
  Ga  Ga1  1  0.21719927  0.21552796  0.78447204  1
  Ga  Ga2  1  0.78158324  0.21841676  0.78158324  1
  Ga  Ga3  1  0.30972346  0.30905153  0.30625285  1
  Ga  Ga4  1  0.92502784  0.69374715  0.69094847  1
  Ga  Ga5  1  0.69280759  0.92667204  0.68807865  1
  Ga  Ga6  1  0.69094847  0.69027754  0.92502784  1
  Ga  Ga7  1  0.30625285  0.07497216  0.30972246  1
  Ga  Ga8  1  0.30755828  0.31192135  0.07332796  1
  Ga  Ga9  1  0.07332796  0.30719241  0.30755828  1
  Ga  Ga10  1  0.68807865  0.69244172  0.69280659  1
  Sb  Sb0  1  0.21498624  0.78501376  0.21498624  1
  Sb  Sb1  1  0.21326550  0.78673450  0.79049613  1
  Sb  Sb2  1  0.79049613  0.20950387  0.21326550  1
loop_
_geom_bond_atom_site_label_1
_geom_bond_atom_site_label_2
_geom_bond_distance
_geom_bond_site_symmetry_2
Ca0 Ga2 3.425912 1_555
Ca0 Sb1 3.429264 1_645
Ca0 Sb2 3.429264 1_556
Ca0 Ga1 3.458721 1_655
Ca0 Ga0 3.458721 1_546
Ca0 Sb0 3.498015 1_646
Ca1 Ga8 3.154224 1_555
Ca1 Ga1 3.165709 1_554
Ca1 Ga7 3.196432 1_555
Ca1 Ga9 3.220649 1_555
Ca1 Sb2 3.253264 1_455
Ca1 Sb0 3.288566 1_545
Ca2 Ga5 3.154234 1_555
Ca2 Ga1 3.165707 1_565
Ca2 Ga6 3.196451 1_555
Ca2 Ga10 3.220658 1_555
Ca2 Sb1 3.253254 1_555
Ca2 Sb0 3.288564 1_556
Ca3 Ga10 3.195429 1_555
Ca3 Ga4 3.198314 1_555
Ca3 Ga1 3.221335 1_655
Ca3 Ga2 3.231197 1_555
Ca3 Ga6 3.262504 1_555
Ca3 Sb2 3.304809 1_556
Ca4 Ga10 3.154224 1_555
Ca4 Ga0 3.165698 1_555
Ca4 Ga4 3.196452 1_555
Ca4 Ga5 3.220659 1_555
Ca4 Sb2 3.253263 1_565
Ca4 Sb0 3.288564 1_655
Ca5 Ga9 3.154234 1_555
Ca5 Ga0 3.165707 1_455
Ca5 Ga3 3.196447 1_555
Ca5 Ga8 3.220659 1_555
Ca5 Sb1 3.253263 1_554
Ca5 Sb0 3.288555 1_555
Ca6 Ga9 3.195429 1_555
Ca6 Ga3 3.198309 1_555
Ca6 Ga1 3.221327 1_555
Ca6 Ga2 3.231205 1_455
Ca6 Ga7 3.262504 1_555
Ca6 Sb1 3.304809 1_545
Ca7 Ga8 3.195428 1_555
Ca7 Ga7 3.198313 1_555
Ca7 Ga0 3.221335 1_545
Ca7 Ga2 3.231205 1_554
Ca7 Ga3 3.262489 1_555
Ca7 Sb2 3.304800 1_555
Ca8 Ga5 3.195419 1_555
Ca8 Ga6 3.198294 1_555
Ca8 Ga0 3.221337 1_556
Ca8 Ga2 3.231207 1_565
Ca8 Ga4 3.262484 1_555
Ca8 Sb1 3.304811 1_655
Ca9 Ga10 3.106865 1_555
Ca9 Ga7 3.125736 1_565
Ca9 Ga0 3.222259 1_555
Ca9 Sb1 3.368148 1_555
Ca9 Na0 3.750494 1_555
Ca10 Ga10 3.179210 1_555
Ca10 Ga9 3.179219 1_655
Ca10 Ga2 3.214119 1_555
Ca10 Ga0 3.244633 1_555
Ca10 Na0 3.680817 1_555
Ca11 Ga0 3.159459 1_555
Ca11 Ga6 3.184132 1_554
Ca11 Ga7 3.184133 1_565
Ca11 Sb0 3.348004 1_555
Ca11 Na0 3.723265 1_555
Ca12 Ga8 3.106883 1_556
Ca12 Ga4 3.125722 1_455
Ca12 Ga1 3.222253 1_555
Ca12 Sb1 3.368154 1_555
Ca12 Na0 3.750489 1_555
Ca13 Ga9 3.106883 1_655
Ca13 Ga6 3.125722 1_554
Ca13 Ga0 3.222264 1_555
Ca13 Sb2 3.368142 1_555
Ca13 Na0 3.750489 1_555
Ca14 Ga10 3.101944 1_555
Ca14 Ga8 3.101946 1_556
Ca14 Ga2 3.190775 1_555
Ca14 Sb1 3.357405 1_555
Ca14 Na0 3.725423 1_555
Ca15 Ga4 3.107964 1_455
Ca15 Ga7 3.107964 1_565
Ca15 Sb1 3.293636 1_555
Ca15 Sb0 3.334784 1_555
Ca15 Na0 3.789510 1_555
Ca16 Ga8 3.179219 1_556
Ca16 Ga5 3.179219 1_545
Ca16 Ga2 3.214118 1_555
Ca16 Ga1 3.244633 1_555
Ca16 Na0 3.680818 1_555
Ca17 Ga3 3.107964 1_555
Ca17 Ga6 3.107971 1_554
Ca17 Sb2 3.293636 1_555
Ca17 Sb0 3.334784 1_555
Ca17 Na0 3.789510 1_555
Ca18 Ga9 3.101946 1_655
Ca18 Ga5 3.101946 1_545
Ca18 Ga2 3.190776 1_555
Ca18 Sb2 3.357405 1_555
Ca18 Na0 3.725423 1_555
Ca19 Ga1 3.159460 1_555
Ca19 Ga4 3.184139 1_455
Ca19 Ga3 3.184139 1_555
Ca19 Sb0 3.348004 1_555
Ca19 Na0 3.723264 1_555
Ca20 Ga5 3.106876 1_545
Ca20 Ga3 3.125731 1_555
Ca20 Ga1 3.222257 1_555
Ca20 Sb2 3.368147 1_555
Ca20 Na0 3.750483 1_555
Ga3 Ga8 2.646897 1_555
Ga3 Ga7 2.664532 1_555
Ga3 Ga9 2.674153 1_555
Ga4 Ga5 2.646897 1_555
Ga4 Ga6 2.664527 1_555
Ga5 Ga6 2.674148 1_555
Ga7 Ga9 2.646897 1_555
Ga7 Ga8 2.674148 1_555
Ga8 Ga9 2.666286 1_555
Ga10 Ga6 2.646914 1_555
Ga10 Ga5 2.666292 1_555
Ga10 Ga4 2.674159 1_555
