# generated using pymatgen
data_Ta4MnNbOs2
_symmetry_space_group_name_H-M   'P 1'
_cell_length_a   4.49568724
_cell_length_b   6.35641235
_cell_length_c   13.44895157
_cell_angle_alpha   90.00000000
_cell_angle_beta   89.99995446
_cell_angle_gamma   90.00000000
_symmetry_Int_Tables_number   1
_chemical_formula_structural   Ta4MnNbOs2
_chemical_formula_sum   'Ta12 Mn3 Nb3 Os6'
_cell_volume   384.32318310
_cell_formula_units_Z   3
loop_
 _symmetry_equiv_pos_site_id
 _symmetry_equiv_pos_as_xyz
  1  'x, y, z'
loop_
 _atom_site_type_symbol
 _atom_site_label
 _atom_site_symmetry_multiplicity
 _atom_site_fract_x
 _atom_site_fract_y
 _atom_site_fract_z
 _atom_site_occupancy
  Ta  Ta0  1  0.50000155  0.24888331  0.00353258  1
  Ta  Ta1  1  0.50000155  0.75111669  0.00353258  1
  Ta  Ta2  1  0.00000046  0.24963118  0.16667103  1
  Ta  Ta3  1  0.00000046  0.75036882  0.16667103  1
  Ta  Ta4  1  0.50000278  0.24889362  0.32980039  1
  Ta  Ta5  1  0.50000278  0.75110538  0.32980039  1
  Ta  Ta6  1  0.99999954  0.24744880  0.49608277  1
  Ta  Ta7  1  0.99999954  0.75255120  0.49608277  1
  Ta  Ta8  1  0.49999599  0.25120310  0.66666424  1
  Ta  Ta9  1  0.49999599  0.74879590  0.66666424  1
  Ta  Ta10  1  0.99999817  0.24744247  0.83724142  1
  Ta  Ta11  1  0.99999817  0.75255753  0.83724142  1
  Mn  Mn0  1  0.00000101  0.00000000  0.00605157  1
  Mn  Mn1  1  0.50000388  0.50000000  0.16667332  1
  Mn  Mn2  1  0.00000253  0.00000000  0.32729720  1
  Nb  Nb0  1  0.49999985  0.50000000  0.49463970  1
  Nb  Nb1  1  0.99999590  0.00000000  0.66666309  1
  Nb  Nb2  1  0.49999814  0.50000000  0.83869008  1
  Os  Os0  1  0.00000111  0.50000000  0.00716656  1
  Os  Os1  1  0.50000396  0.00000000  0.16666943  1
  Os  Os2  1  0.00000176  0.50000000  0.32616825  1
  Os  Os3  1  0.49999970  0.00000000  0.49291985  1
  Os  Os4  1  0.99999795  0.50000000  0.66666445  1
  Os  Os5  1  0.49999823  0.00000000  0.84040965  1
loop_
_geom_bond_atom_site_label_1
_geom_bond_atom_site_label_2
_geom_bond_distance
_geom_bond_site_symmetry_2
Mn0 Ta2 2.680319 1_555
Mn0 Ta3 2.680319 1_545
Mn0 Ta0 2.748941 1_455
Mn0 Ta1 2.748941 1_445
Mn0 Ta0 2.748945 1_555
Mn0 Ta1 2.748945 1_545
Mn0 Ta10 2.761919 1_454
Mn0 Ta11 2.761919 1_444
Mn0 Os1 3.117522 1_455
Mn0 Os1 3.117544 1_555
Mn0 Os5 3.164716 1_554
Mn0 Os5 3.164737 1_454
Mn0 Os0 3.178242 1_555
Mn0 Os0 3.178242 1_545
Mn1 Ta5 2.713075 1_555
Mn1 Ta4 2.713078 1_555
Mn1 Ta1 2.713266 1_555
Mn1 Ta0 2.713266 1_555
Mn1 Ta3 2.754167 1_655
Mn1 Ta2 2.754167 1_655
Mn1 Ta3 2.754192 1_555
Mn1 Ta2 2.754192 1_555
Mn1 Os2 3.107082 1_655
Mn1 Os2 3.107094 1_555
Mn1 Os0 3.107188 1_655
Mn1 Os0 3.107208 1_555
Mn1 Os1 3.178206 1_565
Mn1 Os1 3.178206 1_555
Mn2 Ta2 2.680392 1_555
Mn2 Ta3 2.680392 1_545
Mn2 Ta4 2.748977 1_455
Mn2 Ta4 2.748979 1_555
Mn2 Ta5 2.748981 1_445
Mn2 Ta5 2.748983 1_545
Mn2 Ta6 2.761670 1_455
Mn2 Ta7 2.761670 1_445
Mn2 Os1 3.117622 1_455
Mn2 Os1 3.117629 1_555
Mn2 Os3 3.164536 1_555
Mn2 Os3 3.164552 1_455
Mn2 Os2 3.178242 1_555
Mn2 Os2 3.178242 1_545
Nb0 Ta5 2.731729 1_555
Nb0 Ta4 2.731733 1_555
Nb0 Ta7 2.762286 1_555
Nb0 Ta6 2.762286 1_555
Nb0 Ta7 2.762288 1_455
Nb0 Ta6 2.762288 1_455
Nb0 Ta9 2.802409 1_555
Nb0 Ta8 2.802412 1_555
Nb0 Os3 3.178290 1_555
Nb0 Os3 3.178290 1_565
Nb0 Os2 3.191623 1_555
Nb0 Os2 3.191633 1_655
Nb0 Os4 3.225724 1_555
Nb0 Os4 3.225733 1_455
Nb1 Ta8 2.757247 1_555
Nb1 Ta8 2.757248 1_655
Nb1 Ta9 2.757251 1_545
Nb1 Ta9 2.757251 1_645
Nb1 Ta10 2.781499 1_555
Nb1 Ta11 2.781499 1_545
Nb1 Ta6 2.781544 1_555
Nb1 Ta7 2.781544 1_545
Nb1 Os4 3.178206 1_545
Nb1 Os4 3.178206 1_555
Nb1 Os3 3.242335 1_555
Nb1 Os3 3.242356 1_655
Nb1 Os5 3.242369 1_555
Nb1 Os5 3.242386 1_655
Nb2 Ta1 2.731806 1_556
Nb2 Ta0 2.731806 1_556
Nb2 Ta11 2.762311 1_455
Nb2 Ta10 2.762311 1_455
Nb2 Ta11 2.762311 1_555
Nb2 Ta10 2.762311 1_555
Nb2 Ta9 2.802423 1_555
Nb2 Ta8 2.802427 1_555
Nb2 Os5 3.178290 1_565
Nb2 Os5 3.178290 1_555
Nb2 Os0 3.191665 1_556
Nb2 Os0 3.191687 1_656
Nb2 Os4 3.225735 1_555
Nb2 Os4 3.225739 1_455
Os0 Ta3 2.671039 1_555
Os0 Ta2 2.671039 1_555
Os0 Ta1 2.757361 1_455
Os0 Ta0 2.757361 1_455
Os0 Ta1 2.757364 1_555
Os0 Ta0 2.757364 1_555
Os0 Ta11 2.792820 1_454
Os0 Ta10 2.792820 1_454
Os1 Ta4 2.704870 1_555
Os1 Ta5 2.704874 1_545
Os1 Ta0 2.704896 1_555
Os1 Ta1 2.704896 1_545
Os1 Ta2 2.751460 1_655
Os1 Ta3 2.751460 1_645
Os1 Ta2 2.751486 1_555
Os1 Ta3 2.751486 1_545
Os2 Ta3 2.670961 1_555
Os2 Ta2 2.670961 1_555
Os2 Ta5 2.757317 1_455
Os2 Ta4 2.757320 1_455
Os2 Ta5 2.757324 1_555
Os2 Ta4 2.757328 1_555
Os2 Ta7 2.792680 1_455
Os2 Ta6 2.792680 1_455
Os3 Ta4 2.704745 1_555
Os3 Ta5 2.704748 1_545
Os3 Ta6 2.743826 1_555
Os3 Ta7 2.743826 1_545
Os3 Ta6 2.743827 1_455
Os3 Ta7 2.743827 1_445
Os3 Ta8 2.830139 1_555
Os3 Ta9 2.830142 1_545
Os4 Ta9 2.748407 1_655
Os4 Ta8 2.748411 1_655
Os4 Ta9 2.748422 1_555
Os4 Ta8 2.748425 1_555
Os4 Ta11 2.799998 1_555
Os4 Ta10 2.799998 1_555
Os4 Ta7 2.800027 1_555
Os4 Ta6 2.800027 1_555
Os5 Ta0 2.704744 1_556
Os5 Ta1 2.704744 1_546
Os5 Ta10 2.743804 1_555
Os5 Ta11 2.743804 1_545
Os5 Ta10 2.743805 1_455
Os5 Ta11 2.743805 1_445
Os5 Ta8 2.830150 1_555
Os5 Ta9 2.830154 1_545
