# generated using pymatgen
data_BaSi6(As3Pt2)2
_symmetry_space_group_name_H-M   'P 1'
_cell_length_a   7.38805867
_cell_length_b   7.41061748
_cell_length_c   7.38805904
_cell_angle_alpha   109.45883709
_cell_angle_beta   109.45898940
_cell_angle_gamma   109.37250511
_symmetry_Int_Tables_number   1
_chemical_formula_structural   BaSi6(As3Pt2)2
_chemical_formula_sum   'Ba1 Si6 As6 Pt4'
_cell_volume   311.85464569
_cell_formula_units_Z   1
loop_
 _symmetry_equiv_pos_site_id
 _symmetry_equiv_pos_as_xyz
  1  'x, y, z'
loop_
 _atom_site_type_symbol
 _atom_site_label
 _atom_site_symmetry_multiplicity
 _atom_site_fract_x
 _atom_site_fract_y
 _atom_site_fract_z
 _atom_site_occupancy
  Ba  Ba0  1  0.99966636  0.99392062  0.99425426  1
  Si  Si0  1  0.14413197  0.35003446  0.50006020  1
  Si  Si1  1  0.51463593  0.15882149  0.36269850  1
  Si  Si2  1  0.84997526  0.35003446  0.20590249  1
  Si  Si3  1  0.63529496  0.48097200  0.84567804  1
  Si  Si4  1  0.35885826  0.21147631  0.85261905  1
  Si  Si5  1  0.79612399  0.15882149  0.64418656  1
  As  As0  1  0.85152169  0.63752595  0.49314501  1
  As  As1  1  0.35044928  0.49114776  0.14069849  1
  As  As2  1  0.21671801  0.86506360  0.35734597  1
  As  As3  1  0.14438093  0.63752595  0.78600426  1
  As  As4  1  0.64481392  0.78769326  0.14287934  1
  As  As5  1  0.50771663  0.86506360  0.64834559  1
  Pt  Pt0  1  0.00570598  0.01209439  0.51491468  1
  Pt  Pt1  1  0.49503976  0.49385463  0.50606527  1
  Pt  Pt2  1  0.98778836  0.49385463  0.99881487  1
  Pt  Pt3  1  0.49718072  0.01209439  0.00638842  1
loop_
_geom_bond_atom_site_label_1
_geom_bond_atom_site_label_2
_geom_bond_distance
_geom_bond_site_symmetry_2
Ba0 Si4 3.297318 1_665
Ba0 Si2 3.312344 1_566
Ba0 Si0 3.312349 1_666
Ba0 Si5 3.343251 1_565
Ba0 Si1 3.343258 1_666
Ba0 Si3 3.371026 1_555
Si0 Si2 2.509833 1_455
Si1 Si5 2.401736 1_555
Si3 Si4 2.365236 1_555
As0 Si2 2.449096 1_555
As0 As3 2.498758 1_655
As0 Pt1 2.540480 1_555
As0 Pt0 2.551711 1_665
As0 Ba0 3.278366 1_555
As1 Si4 2.462465 1_554
As1 As4 2.518280 1_555
As1 Pt1 2.540972 1_555
As1 Pt2 2.540978 1_454
As1 Ba0 3.256511 1_444
As2 As5 2.482887 1_555
As2 Si1 2.508192 1_565
As2 Pt0 2.542391 1_565
As2 Pt2 2.553035 1_454
As2 Ba0 3.245903 1_454
As3 Si0 2.449092 1_555
As3 Pt2 2.540484 1_455
As3 Pt3 2.551715 1_566
As3 Ba0 3.278366 1_455
As4 Si3 2.541369 1_554
As4 Pt3 2.561196 1_565
As4 Pt0 2.561200 1_665
As4 Ba0 3.285191 1_554
As5 Si5 2.508196 1_565
As5 Pt3 2.542383 1_566
As5 Pt1 2.553039 1_555
As5 Ba0 3.245908 1_555
Pt0 Si4 2.421715 1_555
Pt0 Si0 2.426614 1_555
Pt0 Si5 2.429478 1_455
Pt1 Si3 2.423078 1_555
Pt1 Si1 2.428105 1_555
Pt1 Si0 2.432665 1_555
Pt2 Si3 2.423064 1_555
Pt2 Si5 2.428103 1_555
Pt2 Si2 2.432658 1_556
Pt3 Si4 2.421711 1_554
Pt3 Si2 2.426614 1_555
Pt3 Si1 2.429485 1_555
