# generated using pymatgen
data_RbZnFeF6
_symmetry_space_group_name_H-M   'P 1'
_cell_length_a   7.31746364
_cell_length_b   7.31746342
_cell_length_c   7.31746314
_cell_angle_alpha   121.00293767
_cell_angle_beta   119.30146668
_cell_angle_gamma   89.74292451
_symmetry_Int_Tables_number   1
_chemical_formula_structural   RbZnFeF6
_chemical_formula_sum   'Rb2 Zn2 Fe2 F12'
_cell_volume   276.33844428
_cell_formula_units_Z   2
loop_
 _symmetry_equiv_pos_site_id
 _symmetry_equiv_pos_as_xyz
  1  'x, y, z'
loop_
 _atom_site_type_symbol
 _atom_site_label
 _atom_site_symmetry_multiplicity
 _atom_site_fract_x
 _atom_site_fract_y
 _atom_site_fract_z
 _atom_site_occupancy
  Rb  Rb0  1  0.36128254  0.11128254  0.25000000  1
  Rb  Rb1  1  0.63871746  0.88871746  0.75000000  1
  Zn  Zn0  1  0.00000000  0.50000000  0.00000000  1
  Zn  Zn1  1  0.00000000  0.00000000  0.50000000  1
  Fe  Fe0  1  0.00000000  0.50000000  0.50000000  1
  Fe  Fe1  1  0.50000000  0.50000000  0.00000000  1
  F  F0  1  0.31311582  0.56311582  0.75000000  1
  F  F1  1  0.92286525  0.17286525  0.75000000  1
  F  F2  1  0.33028336  0.18496484  0.76099046  1
  F  F3  1  0.92397538  0.56929291  0.73900954  1
  F  F4  1  0.33028336  0.56929291  0.14531852  1
  F  F5  1  0.92397538  0.18496484  0.35468148  1
  F  F6  1  0.68688418  0.43688418  0.25000000  1
  F  F7  1  0.07713475  0.82713475  0.25000000  1
  F  F8  1  0.66971664  0.81503516  0.23900954  1
  F  F9  1  0.07602462  0.43070709  0.26099046  1
  F  F10  1  0.66971664  0.43070709  0.85468148  1
  F  F11  1  0.07602462  0.81503516  0.64531852  1
loop_
_geom_bond_atom_site_label_1
_geom_bond_atom_site_label_2
_geom_bond_distance
_geom_bond_site_symmetry_2
F0 Fe1 1.961126 1_556
F0 Fe0 1.961126 1_555
F0 Rb1 3.377025 1_555
F1 Zn1 1.971207 1_655
F1 Zn0 1.971207 1_656
F1 Rb1 2.947080 1_545
F2 Fe1 1.913545 1_556
F2 Zn1 2.041808 1_555
F2 Rb1 3.123099 1_545
F3 Fe0 1.913539 1_655
F3 Zn0 2.041809 1_656
F3 Rb1 3.123104 1_555
F4 Fe1 1.913545 1_555
F4 Zn0 2.041808 1_555
F4 Rb1 3.123098 1_555
F5 Fe0 1.913545 1_655
F5 Zn1 2.041807 1_655
F5 Rb1 3.123098 1_544
F6 Fe1 1.961126 1_555
F6 Fe0 1.961126 1_655
F6 Rb0 3.377025 1_555
F7 Zn1 1.971207 1_565
F7 Zn0 1.971207 1_555
F7 Rb0 2.947080 1_565
F8 Fe1 1.913545 1_555
F8 Zn1 2.041808 1_665
F8 Rb0 3.123099 1_565
F9 Fe0 1.913539 1_555
F9 Zn0 2.041809 1_555
F9 Rb0 3.123104 1_555
F10 Fe1 1.913545 1_556
F10 Zn0 2.041808 1_656
F10 Rb0 3.123098 1_555
F11 Fe0 1.913545 1_555
F11 Zn1 2.041807 1_565
F11 Rb0 3.123098 1_566
