# generated using pymatgen
data_Hf16Ir3Rh5N4
_symmetry_space_group_name_H-M   'P 1'
_cell_length_a   8.65048497
_cell_length_b   8.65048437
_cell_length_c   8.65048623
_cell_angle_alpha   60.02633713
_cell_angle_beta   60.02634075
_cell_angle_gamma   60.02633517
_symmetry_Int_Tables_number   1
_chemical_formula_structural   Hf16Ir3Rh5N4
_chemical_formula_sum   'Hf16 Ir3 Rh5 N4'
_cell_volume   458.00014750
_cell_formula_units_Z   1
loop_
 _symmetry_equiv_pos_site_id
 _symmetry_equiv_pos_as_xyz
  1  'x, y, z'
loop_
 _atom_site_type_symbol
 _atom_site_label
 _atom_site_symmetry_multiplicity
 _atom_site_fract_x
 _atom_site_fract_y
 _atom_site_fract_z
 _atom_site_occupancy
  Hf  Hf0  1  0.11634643  0.62728615  0.62728615  1
  Hf  Hf1  1  0.62728615  0.11634643  0.62728615  1
  Hf  Hf2  1  0.62728615  0.62728615  0.11634643  1
  Hf  Hf3  1  0.63036863  0.63036863  0.63036863  1
  Hf  Hf4  1  0.81420604  0.81420604  0.18477408  1
  Hf  Hf5  1  0.18388548  0.18388548  0.81552259  1
  Hf  Hf6  1  0.81420604  0.18477408  0.81420604  1
  Hf  Hf7  1  0.18388548  0.81552259  0.18388548  1
  Hf  Hf8  1  0.18477408  0.81420604  0.81420604  1
  Hf  Hf9  1  0.81552259  0.18388548  0.18388548  1
  Hf  Hf10  1  0.43254170  0.43254170  0.06604547  1
  Hf  Hf11  1  0.06644629  0.06644629  0.43286836  1
  Hf  Hf12  1  0.43254170  0.06604547  0.43254170  1
  Hf  Hf13  1  0.06644629  0.43286836  0.06644629  1
  Hf  Hf14  1  0.06604547  0.43254170  0.43254170  1
  Hf  Hf15  1  0.43286836  0.06644629  0.06644629  1
  Ir  Ir0  1  0.75972864  0.41513208  0.41513208  1
  Ir  Ir1  1  0.41513208  0.75972864  0.41513208  1
  Ir  Ir2  1  0.41513208  0.41513208  0.75972864  1
  Rh  Rh0  1  0.41416553  0.41416553  0.41416553  1
  Rh  Rh1  1  0.47016876  0.84480075  0.84480075  1
  Rh  Rh2  1  0.84480075  0.47016876  0.84480075  1
  Rh  Rh3  1  0.84480075  0.84480075  0.47016876  1
  Rh  Rh4  1  0.84157876  0.84157876  0.84157876  1
  N  N0  1  0.62425945  0.12509962  0.12509962  1
  N  N1  1  0.12509962  0.62425945  0.12509962  1
  N  N2  1  0.12509962  0.12509962  0.62425945  1
  N  N3  1  0.12537608  0.12537608  0.12537608  1
loop_
_geom_bond_atom_site_label_1
_geom_bond_atom_site_label_2
_geom_bond_distance
_geom_bond_site_symmetry_2
Hf0 Rh3 2.669062 1_455
Hf0 Rh2 2.669062 1_455
Hf0 Rh4 2.674065 1_455
Hf0 Rh0 2.709129 1_555
Hf0 Ir2 2.734835 1_555
Hf0 Ir1 2.734835 1_555
Hf1 Rh1 2.669062 1_545
Hf1 Rh3 2.669062 1_545
Hf1 Rh4 2.674065 1_545
Hf1 Rh0 2.709129 1_555
Hf1 Ir0 2.734835 1_555
Hf1 Ir2 2.734835 1_555
Hf2 Rh1 2.669062 1_554
Hf2 Rh2 2.669062 1_554
Hf2 Rh4 2.674065 1_554
Hf2 Rh0 2.709129 1_555
Hf2 Ir0 2.734835 1_555
Hf2 Ir1 2.734836 1_555
Hf3 Rh3 2.665157 1_555
Hf3 Rh2 2.665157 1_555
Hf3 Rh1 2.665157 1_555
Hf3 Ir2 2.736013 1_555
Hf3 Ir0 2.736013 1_555
Hf3 Ir1 2.736013 1_555
Hf4 N0 2.289973 1_565
Hf4 N1 2.289973 1_655
Hf4 Rh4 2.752660 1_554
Hf4 Rh3 2.758769 1_555
Hf5 N2 2.279126 1_555
Hf5 N3 2.289467 1_556
Hf5 Rh1 2.725275 1_545
Hf5 Rh2 2.725275 1_455
Hf5 Rh0 3.183451 1_555
Hf6 N2 2.289973 1_655
Hf6 N0 2.289974 1_556
Hf6 Rh4 2.752660 1_545
Hf6 Rh2 2.758768 1_555
Hf7 N1 2.279126 1_555
Hf7 N3 2.289466 1_565
Hf7 Rh3 2.725275 1_455
Hf7 Rh1 2.725275 1_554
Hf7 Rh0 3.183450 1_555
Hf8 N2 2.289973 1_565
Hf8 N1 2.289974 1_556
Hf8 Rh4 2.752660 1_455
Hf8 Rh1 2.758769 1_555
Hf9 N0 2.279126 1_555
Hf9 N3 2.289466 1_655
Hf9 Rh3 2.725275 1_545
Hf9 Rh2 2.725275 1_554
Hf9 Rh0 3.183450 1_555
Hf10 N0 2.272955 1_555
Hf10 N1 2.272955 1_555
Hf10 Ir2 2.808362 1_554
Hf10 Rh0 2.861420 1_555
Hf11 N3 2.268257 1_555
Hf11 N2 2.278578 1_555
Hf11 Ir0 2.847644 1_455
Hf11 Ir1 2.847644 1_545
Hf12 N2 2.272955 1_555
Hf12 N0 2.272955 1_555
Hf12 Ir1 2.808362 1_545
Hf12 Rh0 2.861419 1_555
Hf13 N3 2.268256 1_555
Hf13 N1 2.278578 1_555
Hf13 Ir2 2.847645 1_554
Hf13 Ir0 2.847645 1_455
Hf14 N2 2.272955 1_555
Hf14 N1 2.272955 1_555
Hf14 Ir0 2.808362 1_455
Hf14 Rh0 2.861419 1_555
Hf15 N3 2.268256 1_555
Hf15 N0 2.278578 1_555
Hf15 Ir2 2.847644 1_554
Hf15 Ir1 2.847644 1_545
Ir0 Rh0 2.997666 1_555
Ir1 Rh0 2.997666 1_555
Ir2 Rh0 2.997667 1_555
