# generated using pymatgen
data_SnBiF7
_symmetry_space_group_name_H-M   'P 1'
_cell_length_a   5.60455450
_cell_length_b   9.13024503
_cell_length_c   12.26967334
_cell_angle_alpha   61.92591397
_cell_angle_beta   90.00000000
_cell_angle_gamma   90.00000000
_symmetry_Int_Tables_number   1
_chemical_formula_structural   SnBiF7
_chemical_formula_sum   'Sn4 Bi4 F28'
_cell_volume   553.97785278
_cell_formula_units_Z   4
loop_
 _symmetry_equiv_pos_site_id
 _symmetry_equiv_pos_as_xyz
  1  'x, y, z'
loop_
 _atom_site_type_symbol
 _atom_site_label
 _atom_site_symmetry_multiplicity
 _atom_site_fract_x
 _atom_site_fract_y
 _atom_site_fract_z
 _atom_site_occupancy
  Sn  Sn0  1  0.74372439  0.27240817  0.45821347  1
  Sn  Sn1  1  0.24372439  0.72759183  0.04178653  1
  Sn  Sn2  1  0.25627561  0.72759183  0.54178653  1
  Sn  Sn3  1  0.75627561  0.27240817  0.95821347  1
  Bi  Bi0  1  0.74043965  0.81441039  0.26327209  1
  Bi  Bi1  1  0.24043965  0.18558961  0.23672791  1
  Bi  Bi2  1  0.25956035  0.18558961  0.73672791  1
  Bi  Bi3  1  0.75956035  0.81441039  0.76327209  1
  F  F0  1  0.44049743  0.71060733  0.91469186  1
  F  F1  1  0.94049743  0.28939267  0.58530814  1
  F  F2  1  0.55950257  0.28939267  0.08530814  1
  F  F3  1  0.05950257  0.71060733  0.41469186  1
  F  F4  1  0.44240869  0.27558178  0.54270560  1
  F  F5  1  0.94240869  0.72441822  0.95729440  1
  F  F6  1  0.55759131  0.72441822  0.45729440  1
  F  F7  1  0.05759131  0.27558178  0.04270560  1
  F  F8  1  0.77536436  0.51548930  0.86159970  1
  F  F9  1  0.27536436  0.48451070  0.63840030  1
  F  F10  1  0.22463564  0.48451070  0.13840030  1
  F  F11  1  0.72463564  0.51548930  0.36159970  1
  F  F12  1  0.75952542  0.02650819  0.05526111  1
  F  F13  1  0.25952542  0.97349181  0.44473889  1
  F  F14  1  0.24047458  0.97349181  0.94473889  1
  F  F15  1  0.74047458  0.02650819  0.55526111  1
  F  F16  1  0.96657655  0.73058584  0.63248940  1
  F  F17  1  0.46657655  0.26941416  0.86751060  1
  F  F18  1  0.03342345  0.26941416  0.36751060  1
  F  F19  1  0.53342345  0.73058584  0.13248940  1
  F  F20  1  0.05692806  0.74686286  0.17169412  1
  F  F21  1  0.55692806  0.25313714  0.32830588  1
  F  F22  1  0.94307194  0.25313714  0.82830588  1
  F  F23  1  0.44307194  0.74686286  0.67169412  1
  F  F24  1  0.40031388  0.96555042  0.23004795  1
  F  F25  1  0.90031388  0.03444958  0.26995205  1
  F  F26  1  0.59968612  0.03444958  0.76995205  1
  F  F27  1  0.09968612  0.96555042  0.73004795  1
loop_
_geom_bond_atom_site_label_1
_geom_bond_atom_site_label_2
_geom_bond_distance
_geom_bond_site_symmetry_2
Bi0 F25 2.236222 1_565
Bi0 F24 2.274810 1_555
Bi0 F20 2.332686 1_655
Bi0 F6 2.356152 1_555
Bi0 F12 2.371380 1_565
Bi0 F19 2.379653 1_555
Bi0 F11 2.410991 1_555
Bi0 F3 2.426991 1_655
Bi1 F24 2.236222 1_545
Bi1 F25 2.274810 1_455
Bi1 F21 2.332686 1_555
Bi1 F7 2.356152 1_555
Bi1 F13 2.371380 1_545
Bi1 F18 2.379653 1_555
Bi1 F10 2.410991 1_555
Bi1 F2 2.426991 1_555
Bi2 F27 2.236222 1_545
Bi2 F26 2.274810 1_555
Bi2 F22 2.332686 1_455
Bi2 F4 2.356152 1_555
Bi2 F14 2.371380 1_545
Bi2 F17 2.379653 1_555
Bi2 F9 2.410991 1_555
Bi2 F1 2.426991 1_455
Bi3 F26 2.236222 1_565
Bi3 F27 2.274810 1_655
Bi3 F23 2.332686 1_555
Bi3 F5 2.356152 1_555
Bi3 F15 2.371380 1_565
Bi3 F16 2.379653 1_555
Bi3 F8 2.410991 1_555
Bi3 F0 2.426991 1_555
F0 Sn1 1.974751 1_556
F1 Sn0 1.974751 1_555
F2 Sn3 1.974751 1_554
F3 Sn2 1.974751 1_555
F4 Sn0 1.988890 1_555
F5 Sn1 1.988890 1_656
F6 Sn2 1.988890 1_555
F7 Sn3 1.988890 1_454
F8 Sn3 1.966235 1_555
F9 Sn2 1.966235 1_555
F10 Sn1 1.966235 1_555
F11 Sn0 1.966235 1_555
F12 Sn3 1.985586 1_554
F13 Sn2 1.985586 1_555
F14 Sn1 1.985586 1_556
F15 Sn0 1.985586 1_555
F16 Sn2 1.975880 1_655
F17 Sn3 1.975880 1_555
F18 Sn0 1.975880 1_455
F19 Sn1 1.975880 1_555
F20 Sn1 1.982811 1_555
F21 Sn0 1.982811 1_555
F22 Sn3 1.982811 1_555
F23 Sn2 1.982811 1_555
