# generated using pymatgen
data_Hf5Zr(CuN)2
_symmetry_space_group_name_H-M   'P 1'
_cell_length_a   8.77187752
_cell_length_b   5.74797245
_cell_length_c   5.74797204
_cell_angle_alpha   33.13468787
_cell_angle_beta   90.00000000
_cell_angle_gamma   90.00000000
_symmetry_Int_Tables_number   1
_chemical_formula_structural   Hf5Zr(CuN)2
_chemical_formula_sum   'Hf5 Zr1 Cu2 N2'
_cell_volume   158.41586990
_cell_formula_units_Z   1
loop_
 _symmetry_equiv_pos_site_id
 _symmetry_equiv_pos_as_xyz
  1  'x, y, z'
loop_
 _atom_site_type_symbol
 _atom_site_label
 _atom_site_symmetry_multiplicity
 _atom_site_fract_x
 _atom_site_fract_y
 _atom_site_fract_z
 _atom_site_occupancy
  Hf  Hf0  1  0.30229510  0.36926131  0.36926131  1
  Hf  Hf1  1  0.69770490  0.36926131  0.36926131  1
  Hf  Hf2  1  0.19489770  0.62973946  0.62973946  1
  Hf  Hf3  1  0.80510230  0.62973946  0.62973946  1
  Hf  Hf4  1  0.00000000  0.94307782  0.94307782  1
  Zr  Zr0  1  0.50000000  0.05713557  0.05713557  1
  Cu  Cu0  1  0.00000000  0.24896514  0.24896514  1
  Cu  Cu1  1  0.50000000  0.75439470  0.75439470  1
  N  N0  1  0.24710644  0.99915261  0.99915261  1
  N  N1  1  0.75289456  0.99915261  0.99915261  1
loop_
_geom_bond_atom_site_label_1
_geom_bond_atom_site_label_2
_geom_bond_distance
_geom_bond_site_symmetry_2
Hf0 N0 2.229141 1_545
Hf0 N0 2.229142 1_554
Hf1 N1 2.229143 1_545
Hf1 N1 2.229144 1_554
Hf2 N0 2.228552 1_554
Hf2 N0 2.228552 1_545
Hf3 N1 2.228550 1_554
Hf3 N1 2.228550 1_545
Hf4 N1 2.253921 1_455
Hf4 N0 2.253930 1_555
Cu0 Hf4 2.694632 1_545
Cu0 Hf4 2.694632 1_554
Cu0 Hf2 2.708305 1_554
Cu0 Hf3 2.708305 1_454
Cu0 Hf2 2.708306 1_545
Cu0 Hf3 2.708306 1_445
Cu0 Hf0 2.964533 1_555
Cu0 Hf1 2.964533 1_455
Cu1 Hf1 2.701079 1_556
Cu1 Hf0 2.701079 1_556
Cu1 Hf1 2.701080 1_565
Cu1 Hf0 2.701080 1_565
Cu1 Zr0 2.722233 1_565
Cu1 Zr0 2.722233 1_556
Cu1 Hf3 3.008205 1_555
Cu1 Hf2 3.008205 1_555
N0 Zr0 2.308521 1_566
N1 Zr0 2.308530 1_566
