# generated using pymatgen
data_Cs6PbS4
_symmetry_space_group_name_H-M   'P 1'
_cell_length_a   11.20305110
_cell_length_b   11.20305166
_cell_length_c   8.35143804
_cell_angle_alpha   90.00000000
_cell_angle_beta   90.00000000
_cell_angle_gamma   119.99999833
_symmetry_Int_Tables_number   1
_chemical_formula_structural   Cs6PbS4
_chemical_formula_sum   'Cs12 Pb2 S8'
_cell_volume   907.74644774
_cell_formula_units_Z   2
loop_
 _symmetry_equiv_pos_site_id
 _symmetry_equiv_pos_as_xyz
  1  'x, y, z'
loop_
 _atom_site_type_symbol
 _atom_site_label
 _atom_site_symmetry_multiplicity
 _atom_site_fract_x
 _atom_site_fract_y
 _atom_site_fract_z
 _atom_site_occupancy
  Cs  Cs0  1  0.14699456  0.29398813  0.20214396  1
  Cs  Cs1  1  0.14699456  0.85300544  0.20214396  1
  Cs  Cs2  1  0.70601187  0.85300544  0.20214396  1
  Cs  Cs3  1  0.85300544  0.70601187  0.70214396  1
  Cs  Cs4  1  0.85300544  0.14699456  0.70214396  1
  Cs  Cs5  1  0.29398813  0.14699456  0.70214396  1
  Cs  Cs6  1  0.52958342  0.05916685  0.38132894  1
  Cs  Cs7  1  0.52958342  0.47041658  0.38132894  1
  Cs  Cs8  1  0.94083315  0.47041658  0.38132894  1
  Cs  Cs9  1  0.47041658  0.94083315  0.88132894  1
  Cs  Cs10  1  0.47041658  0.52958342  0.88132894  1
  Cs  Cs11  1  0.05916685  0.52958342  0.88132894  1
  Pb  Pb0  1  0.33333300  0.66666700  0.50071306  1
  Pb  Pb1  1  0.66666700  0.33333300  0.00071306  1
  S  S0  1  0.33333300  0.66666700  0.16524058  1
  S  S1  1  0.66666700  0.33333300  0.66524058  1
  S  S2  1  0.80889776  0.61779452  0.10220388  1
  S  S3  1  0.80889776  0.19110224  0.10220388  1
  S  S4  1  0.38220548  0.19110224  0.10220388  1
  S  S5  1  0.19110224  0.38220548  0.60220388  1
  S  S6  1  0.19110224  0.80889776  0.60220388  1
  S  S7  1  0.61779452  0.80889776  0.60220388  1
loop_
_geom_bond_atom_site_label_1
_geom_bond_atom_site_label_2
_geom_bond_distance
_geom_bond_site_symmetry_2
Cs0 S5 3.448963 1_555
Cs0 S3 3.464987 1_455
Cs0 S4 3.464987 1_555
Cs0 S0 3.628889 1_555
Cs1 S6 3.448958 1_555
Cs1 S2 3.464987 1_455
Cs1 S4 3.464987 1_565
Cs1 S0 3.628869 1_555
Cs2 S7 3.448963 1_555
Cs2 S2 3.464987 1_555
Cs2 S3 3.464987 1_565
Cs2 S0 3.628889 1_555
Cs3 S2 3.448963 1_556
Cs3 S7 3.464987 1_555
Cs3 S6 3.464987 1_655
Cs3 S1 3.628889 1_555
Cs4 S3 3.448958 1_556
Cs4 S5 3.464987 1_655
Cs4 S7 3.464987 1_545
Cs4 S1 3.628869 1_555
Cs5 S4 3.448963 1_556
Cs5 S5 3.464987 1_555
Cs5 S6 3.464987 1_545
Cs5 S1 3.628889 1_555
Cs6 S1 3.563362 1_555
Cs6 S4 3.575644 1_555
Cs6 S3 3.575651 1_555
Cs6 S7 3.874428 1_545
Cs6 S6 3.874435 1_545
Cs7 S1 3.563369 1_555
Cs7 S2 3.575651 1_555
Cs7 S4 3.575651 1_555
Cs7 S5 3.874438 1_555
Cs7 S7 3.874438 1_555
Cs8 S1 3.563362 1_555
Cs8 S2 3.575644 1_555
Cs8 S3 3.575651 1_555
Cs8 S5 3.874428 1_655
Cs8 S6 3.874435 1_655
Cs9 S0 3.563362 1_556
Cs9 S7 3.575644 1_555
Cs9 S6 3.575651 1_555
Cs9 S4 3.874428 1_566
Cs9 S3 3.874435 1_566
Cs10 S0 3.563369 1_556
Cs10 S5 3.575651 1_555
Cs10 S7 3.575651 1_555
Cs10 S2 3.874438 1_556
Cs10 S4 3.874438 1_556
Cs11 S0 3.563362 1_556
Cs11 S5 3.575644 1_555
Cs11 S6 3.575651 1_555
Cs11 S2 3.874428 1_456
Cs11 S3 3.874435 1_456
Pb0 S0 2.801678 1_555
Pb0 S7 2.887103 1_555
Pb0 S6 2.887103 1_555
Pb0 S5 2.887103 1_555
Pb1 S1 2.801678 1_554
Pb1 S4 2.887103 1_555
Pb1 S3 2.887103 1_555
Pb1 S2 2.887103 1_555
