# generated using pymatgen
data_Hf6Al16CuIr6
_symmetry_space_group_name_H-M   'P 1'
_cell_length_a   8.61626577
_cell_length_b   8.61626595
_cell_length_c   8.63370825
_cell_angle_alpha   59.93300882
_cell_angle_beta   59.93300813
_cell_angle_gamma   60.57031756
_symmetry_Int_Tables_number   1
_chemical_formula_structural   Hf6Al16CuIr6
_chemical_formula_sum   'Hf6 Al16 Cu1 Ir6'
_cell_volume   454.68768446
_cell_formula_units_Z   1
loop_
 _symmetry_equiv_pos_site_id
 _symmetry_equiv_pos_as_xyz
  1  'x, y, z'
loop_
 _atom_site_type_symbol
 _atom_site_label
 _atom_site_symmetry_multiplicity
 _atom_site_fract_x
 _atom_site_fract_y
 _atom_site_fract_z
 _atom_site_occupancy
  Hf  Hf0  1  0.69113777  0.30886223  0.30888911  1
  Hf  Hf1  1  0.30886223  0.69113777  0.69111089  1
  Hf  Hf2  1  0.30886223  0.69113777  0.30888911  1
  Hf  Hf3  1  0.69113777  0.30886223  0.69111089  1
  Hf  Hf4  1  0.32693257  0.32693257  0.67306743  1
  Hf  Hf5  1  0.67306743  0.67306743  0.32693257  1
  Al  Al0  1  0.33797198  0.33797198  0.33221179  1
  Al  Al1  1  0.66202802  0.66202802  0.66778821  1
  Al  Al2  1  0.33797198  0.33797198  0.99184424  1
  Al  Al3  1  0.33503154  0.99006368  0.33745239  1
  Al  Al4  1  0.66202802  0.66202802  0.00815576  1
  Al  Al5  1  0.66496846  0.00993632  0.66254761  1
  Al  Al6  1  0.99006368  0.33503154  0.33745239  1
  Al  Al7  1  0.00993632  0.66496846  0.66254761  1
  Al  Al8  1  0.12079324  0.12079324  0.11934465  1
  Al  Al9  1  0.87920676  0.87920676  0.88065535  1
  Al  Al10  1  0.12079324  0.12079324  0.63906987  1
  Al  Al11  1  0.11075549  0.64281556  0.12321498  1
  Al  Al12  1  0.87920676  0.87920676  0.36093013  1
  Al  Al13  1  0.88924451  0.35718444  0.87678502  1
  Al  Al14  1  0.64281556  0.11075549  0.12321498  1
  Al  Al15  1  0.35718444  0.88924451  0.87678502  1
  Cu  Cu0  1  0.50000000  0.50000000  0.00000000  1
  Ir  Ir0  1  0.50000000  0.00000000  0.00000000  1
  Ir  Ir1  1  0.00000000  0.50000000  0.50000000  1
  Ir  Ir2  1  0.00000000  0.50000000  0.00000000  1
  Ir  Ir3  1  0.50000000  0.00000000  0.50000000  1
  Ir  Ir4  1  0.00000000  0.00000000  0.50000000  1
  Ir  Ir5  1  0.00000000  0.00000000  0.00000000  1
loop_
_geom_bond_atom_site_label_1
_geom_bond_atom_site_label_2
_geom_bond_distance
_geom_bond_site_symmetry_2
Hf0 Hf4 3.143486 1_555
Hf0 Hf5 3.143486 1_555
Hf1 Hf5 3.143486 1_555
Hf1 Hf4 3.143486 1_555
Hf2 Hf4 3.143486 1_555
Hf2 Hf5 3.143486 1_555
Hf3 Hf5 3.143486 1_555
Hf3 Hf4 3.143486 1_555
Hf4 Ir2 3.201321 1_556
Hf4 Ir0 3.201321 1_556
Hf4 Ir1 3.201321 1_555
Hf4 Ir3 3.201321 1_555
Hf5 Ir2 3.201321 1_655
Hf5 Ir0 3.201321 1_565
Hf5 Ir1 3.201321 1_655
Hf5 Ir3 3.201321 1_565
Al0 Cu0 2.452622 1_555
Al0 Ir1 2.516334 1_555
Al0 Ir3 2.516334 1_555
Al0 Hf0 2.837203 1_555
Al0 Hf2 2.837203 1_555
Al0 Hf4 2.850679 1_555
Al1 Cu0 2.452622 1_556
Al1 Ir1 2.516334 1_655
Al1 Ir3 2.516334 1_565
Al1 Hf1 2.837203 1_555
Al1 Hf3 2.837203 1_555
Al1 Hf5 2.850679 1_555
Al2 Cu0 2.452622 1_556
Al2 Ir2 2.516334 1_556
Al2 Ir0 2.516334 1_556
Al2 Hf3 2.837203 1_555
Al2 Hf1 2.837203 1_555
Al2 Hf4 2.850679 1_555
Al3 Ir4 2.475503 1_565
Al3 Ir0 2.497209 1_565
Al3 Ir3 2.497210 1_565
Al3 Hf1 2.829909 1_555
Al3 Hf2 2.829910 1_555
Al3 Hf5 2.849111 1_555
Al4 Cu0 2.452622 1_555
Al4 Ir2 2.516334 1_655
Al4 Ir0 2.516334 1_565
Al4 Hf2 2.837203 1_555
Al4 Hf0 2.837203 1_555
Al4 Hf5 2.850679 1_555
Al5 Ir4 2.475503 1_655
Al5 Ir0 2.497209 1_556
Al5 Ir3 2.497210 1_555
Al5 Hf0 2.829909 1_555
Al5 Hf3 2.829910 1_555
Al5 Hf4 2.849111 1_555
Al6 Ir4 2.475503 1_655
Al6 Ir2 2.497209 1_655
Al6 Ir1 2.497210 1_655
Al6 Hf3 2.829909 1_555
Al6 Hf0 2.829910 1_555
Al6 Hf5 2.849111 1_555
Al7 Ir4 2.475503 1_565
Al7 Ir2 2.497209 1_556
Al7 Ir1 2.497210 1_555
Al7 Hf2 2.829909 1_555
Al7 Hf1 2.829910 1_555
Al7 Hf4 2.849111 1_555
Al8 Ir5 2.538079 1_555
Al8 Ir4 2.678988 1_555
Al8 Ir0 2.679517 1_555
Al8 Ir2 2.679517 1_555
Al8 Hf4 3.246627 1_554
Al9 Ir5 2.538079 1_666
Al9 Ir4 2.678988 1_665
Al9 Ir0 2.679517 1_566
Al9 Ir2 2.679517 1_656
Al9 Hf5 3.246627 1_556
Al10 Ir5 2.538072 1_556
Al10 Ir4 2.678995 1_555
Al10 Ir3 2.679517 1_555
Al10 Ir1 2.679517 1_555
Al10 Hf4 3.246622 1_555
Al11 Ir5 2.522786 1_565
Al11 Ir1 2.653201 1_555
Al11 Ir2 2.653209 1_555
Al11 Cu0 2.752290 1_555
Al11 Hf5 3.198536 1_455
Al12 Ir5 2.538072 1_665
Al12 Ir4 2.678995 1_665
Al12 Ir3 2.679517 1_565
Al12 Ir1 2.679517 1_655
Al12 Hf5 3.246622 1_555
Al13 Ir5 2.522786 1_656
Al13 Ir1 2.653201 1_655
Al13 Ir2 2.653209 1_656
Al13 Cu0 2.752290 1_556
Al13 Hf4 3.198536 1_655
Al14 Ir5 2.522786 1_655
Al14 Ir3 2.653201 1_555
Al14 Ir0 2.653209 1_555
Al14 Cu0 2.752290 1_555
Al14 Hf5 3.198536 1_545
Al15 Ir5 2.522786 1_566
Al15 Ir3 2.653201 1_565
Al15 Ir0 2.653209 1_566
Al15 Cu0 2.752290 1_556
Al15 Hf4 3.198536 1_565
Cu0 Hf2 3.141861 1_555
Cu0 Hf3 3.141861 1_554
Cu0 Hf0 3.141861 1_555
Cu0 Hf1 3.141861 1_554
