# generated using pymatgen
data_CaCdSiO4
_symmetry_space_group_name_H-M   'P 1'
_cell_length_a   5.05601690
_cell_length_b   6.64540970
_cell_length_c   11.30592545
_cell_angle_alpha   90.00000000
_cell_angle_beta   90.00000000
_cell_angle_gamma   90.00000000
_symmetry_Int_Tables_number   1
_chemical_formula_structural   CaCdSiO4
_chemical_formula_sum   'Ca4 Cd4 Si4 O16'
_cell_volume   379.87122343
_cell_formula_units_Z   4
loop_
 _symmetry_equiv_pos_site_id
 _symmetry_equiv_pos_as_xyz
  1  'x, y, z'
loop_
 _atom_site_type_symbol
 _atom_site_label
 _atom_site_symmetry_multiplicity
 _atom_site_fract_x
 _atom_site_fract_y
 _atom_site_fract_z
 _atom_site_occupancy
  Ca  Ca0  1  0.01263930  0.75000000  0.72075343  1
  Ca  Ca1  1  0.98736070  0.25000000  0.27924657  1
  Ca  Ca2  1  0.51263930  0.25000000  0.77924657  1
  Ca  Ca3  1  0.48736070  0.75000000  0.22075343  1
  Cd  Cd0  1  0.50000000  0.50000000  0.50000000  1
  Cd  Cd1  1  0.00000000  0.50000000  0.00000000  1
  Cd  Cd2  1  0.50000000  0.00000000  0.50000000  1
  Cd  Cd3  1  0.00000000  0.00000000  0.00000000  1
  Si  Si0  1  0.57509711  0.75000000  0.90536708  1
  Si  Si1  1  0.42490289  0.25000000  0.09463292  1
  Si  Si2  1  0.07509711  0.25000000  0.59463292  1
  Si  Si3  1  0.92490289  0.75000000  0.40536708  1
  O  O0  1  0.70502885  0.55278648  0.83948259  1
  O  O1  1  0.29497115  0.44721352  0.16051741  1
  O  O2  1  0.20502885  0.44721352  0.66051741  1
  O  O3  1  0.29497115  0.05278648  0.16051741  1
  O  O4  1  0.79497115  0.55278648  0.33948259  1
  O  O5  1  0.70502885  0.94721352  0.83948259  1
  O  O6  1  0.79497115  0.94721352  0.33948259  1
  O  O7  1  0.20502885  0.05278648  0.66051741  1
  O  O8  1  0.79763453  0.75000000  0.54086994  1
  O  O9  1  0.20236547  0.25000000  0.45913006  1
  O  O10  1  0.29763453  0.25000000  0.95913006  1
  O  O11  1  0.70236547  0.75000000  0.04086994  1
  O  O12  1  0.25298741  0.75000000  0.90637824  1
  O  O13  1  0.74701259  0.25000000  0.09362176  1
  O  O14  1  0.75298741  0.25000000  0.59362176  1
  O  O15  1  0.24701259  0.75000000  0.40637824  1
loop_
_geom_bond_atom_site_label_1
_geom_bond_atom_site_label_2
_geom_bond_distance
_geom_bond_site_symmetry_2
Ca0 O8 2.306047 1_455
Ca0 O2 2.336385 1_555
Ca0 O7 2.336385 1_565
Ca0 O12 2.425097 1_555
Ca0 O0 2.436877 1_455
Ca0 O5 2.436877 1_455
Ca1 O9 2.306047 1_655
Ca1 O6 2.336385 1_545
Ca1 O4 2.336385 1_555
Ca1 O13 2.425097 1_555
Ca1 O1 2.436877 1_655
Ca1 O3 2.436877 1_655
Ca2 O10 2.306047 1_555
Ca2 O5 2.336385 1_545
Ca2 O0 2.336385 1_555
Ca2 O14 2.425097 1_555
Ca2 O7 2.436877 1_555
Ca2 O2 2.436877 1_555
Ca3 O11 2.306047 1_555
Ca3 O1 2.336385 1_555
Ca3 O3 2.336385 1_565
Ca3 O15 2.425097 1_555
Ca3 O4 2.436877 1_555
Ca3 O6 2.436877 1_555
Cd0 O8 2.288703 1_555
Cd0 O9 2.288703 1_555
Cd0 O14 2.348743 1_555
Cd0 O15 2.348743 1_555
Cd0 O2 2.375027 1_555
Cd0 O4 2.375027 1_555
Cd1 O10 2.288703 1_554
Cd1 O11 2.288703 1_455
Cd1 O13 2.348743 1_455
Cd1 O12 2.348743 1_554
Cd1 O1 2.375027 1_555
Cd1 O0 2.375027 1_454
Cd2 O8 2.288703 1_545
Cd2 O9 2.288703 1_555
Cd2 O14 2.348743 1_555
Cd2 O15 2.348743 1_545
Cd2 O7 2.375027 1_555
Cd2 O6 2.375027 1_545
Cd3 O10 2.288703 1_554
Cd3 O11 2.288703 1_445
Cd3 O13 2.348743 1_455
Cd3 O12 2.348743 1_544
Cd3 O3 2.375027 1_555
Cd3 O5 2.375027 1_444
O0 Si0 1.644384 1_555
O1 Si1 1.644384 1_555
O2 Si2 1.644384 1_555
O3 Si1 1.644384 1_555
O4 Si3 1.644384 1_555
O5 Si0 1.644384 1_555
O6 Si3 1.644384 1_555
O7 Si2 1.644384 1_555
O8 Si3 1.661636 1_555
O9 Si2 1.661636 1_555
O10 Si1 1.661636 1_556
O11 Si0 1.661636 1_554
O12 Si0 1.628632 1_555
O13 Si1 1.628632 1_555
O14 Si2 1.628632 1_655
O15 Si3 1.628632 1_455
