# generated using pymatgen
data_Tb(NiB)2
_symmetry_space_group_name_H-M   'P 1'
_cell_length_a   4.95548140
_cell_length_b   4.95548027
_cell_length_c   6.05118964
_cell_angle_alpha   102.57482864
_cell_angle_beta   104.28762562
_cell_angle_gamma   115.64468787
_symmetry_Int_Tables_number   1
_chemical_formula_structural   Tb(NiB)2
_chemical_formula_sum   'Tb2 Ni4 B4'
_cell_volume   120.52753098
_cell_formula_units_Z   2
loop_
 _symmetry_equiv_pos_site_id
 _symmetry_equiv_pos_as_xyz
  1  'x, y, z'
loop_
 _atom_site_type_symbol
 _atom_site_label
 _atom_site_symmetry_multiplicity
 _atom_site_fract_x
 _atom_site_fract_y
 _atom_site_fract_z
 _atom_site_occupancy
  Tb  Tb0  1  0.62990102  0.87990102  0.75000000  1
  Tb  Tb1  1  0.37009898  0.12009898  0.25000000  1
  Ni  Ni0  1  0.66996948  0.71910811  0.19981037  1
  Ni  Ni1  1  0.33003052  0.28089189  0.80018963  1
  Ni  Ni2  1  0.01929775  0.47016011  0.30018963  1
  Ni  Ni3  1  0.98070225  0.52983989  0.69981037  1
  B  B0  1  0.97124282  0.15514954  0.47375476  1
  B  B1  1  0.02875718  0.84485046  0.52624524  1
  B  B2  1  0.18139478  0.49748807  0.02624524  1
  B  B3  1  0.81860522  0.50251193  0.97375476  1
loop_
_geom_bond_atom_site_label_1
_geom_bond_atom_site_label_2
_geom_bond_distance
_geom_bond_site_symmetry_2
Ni0 Tb1 2.812283 1_555
Ni0 Tb1 2.960559 1_565
Ni0 Tb0 2.982877 1_554
Ni1 Tb0 2.812283 1_555
Ni1 Tb0 2.960559 1_545
Ni1 Tb1 2.982877 1_556
Ni2 Tb1 2.812284 1_455
Ni2 Tb1 2.960563 1_555
Ni2 Tb0 2.982877 1_555
Ni3 Tb0 2.812284 1_655
Ni3 Tb0 2.960563 1_555
Ni3 Tb1 2.982877 1_555
B0 B1 1.758953 1_645
B0 Ni0 2.018004 1_545
B0 Ni3 2.026828 1_555
B0 Ni2 2.027848 1_655
B0 Ni1 2.054980 1_655
B0 Tb1 2.699213 1_655
B0 Tb0 2.811998 1_545
B0 Tb1 2.862957 1_555
B1 Ni1 2.018004 1_565
B1 Ni2 2.026828 1_555
B1 Ni3 2.027848 1_455
B1 Ni0 2.054980 1_455
B1 Tb0 2.699213 1_455
B1 Tb1 2.811998 1_565
B1 Tb0 2.862957 1_555
B2 B3 1.758953 1_454
B2 Ni2 2.018004 1_555
B2 Ni1 2.026832 1_554
B2 Ni0 2.027845 1_555
B2 Ni3 2.054978 1_454
B2 Tb1 2.699212 1_565
B2 Tb0 2.811998 1_444
B2 Tb1 2.862956 1_555
B3 Ni3 2.018004 1_555
B3 Ni0 2.026832 1_556
B3 Ni1 2.027845 1_555
B3 Ni2 2.054978 1_656
B3 Tb0 2.699212 1_545
B3 Tb1 2.811998 1_666
B3 Tb0 2.862956 1_555
