# generated using pymatgen
data_Rb2NaLuF6
_symmetry_space_group_name_H-M   'P 1'
_cell_length_a   6.14311321
_cell_length_b   6.14311338
_cell_length_c   6.14311329
_cell_angle_alpha   59.99999545
_cell_angle_beta   59.99999452
_cell_angle_gamma   60.00000018
_symmetry_Int_Tables_number   1
_chemical_formula_structural   Rb2NaLuF6
_chemical_formula_sum   'Rb2 Na1 Lu1 F6'
_cell_volume   163.92702015
_cell_formula_units_Z   1
loop_
 _symmetry_equiv_pos_site_id
 _symmetry_equiv_pos_as_xyz
  1  'x, y, z'
loop_
 _atom_site_type_symbol
 _atom_site_label
 _atom_site_symmetry_multiplicity
 _atom_site_fract_x
 _atom_site_fract_y
 _atom_site_fract_z
 _atom_site_occupancy
  Rb  Rb0  1  0.25000000  0.25000000  0.25000000  1
  Rb  Rb1  1  0.75000000  0.75000000  0.75000000  1
  Na  Na0  1  0.50000000  0.50000000  0.50000000  1
  Lu  Lu0  1  0.00000000  0.00000000  0.00000000  1
  F  F0  1  0.75879488  0.75879488  0.24120512  1
  F  F1  1  0.75879488  0.24120512  0.75879488  1
  F  F2  1  0.24120512  0.75879488  0.24120512  1
  F  F3  1  0.75879488  0.24120512  0.24120512  1
  F  F4  1  0.24120512  0.24120512  0.75879488  1
  F  F5  1  0.24120512  0.75879488  0.75879488  1
loop_
_geom_bond_atom_site_label_1
_geom_bond_atom_site_label_2
_geom_bond_distance
_geom_bond_site_symmetry_2
F0 Lu0 2.095511 1_665
F0 Na0 2.248325 1_555
F0 Rb1 3.072507 1_555
F0 Rb0 3.072507 1_565
F0 Rb1 3.072507 1_554
F0 Rb0 3.072507 1_655
F1 Lu0 2.095511 1_656
F1 Na0 2.248326 1_555
F1 Rb0 3.072507 1_655
F1 Rb0 3.072507 1_556
F1 Rb1 3.072507 1_555
F1 Rb1 3.072507 1_545
F2 Lu0 2.095511 1_565
F2 Na0 2.248326 1_555
F2 Rb1 3.072507 1_455
F2 Rb1 3.072507 1_554
F2 Rb0 3.072507 1_555
F2 Rb0 3.072507 1_565
F3 Lu0 2.095511 1_655
F3 Na0 2.248326 1_555
F3 Rb1 3.072507 1_545
F3 Rb1 3.072507 1_554
F3 Rb0 3.072507 1_555
F3 Rb0 3.072507 1_655
F4 Lu0 2.095511 1_556
F4 Na0 2.248325 1_555
F4 Rb0 3.072507 1_555
F4 Rb1 3.072507 1_545
F4 Rb0 3.072507 1_556
F4 Rb1 3.072507 1_455
F5 Lu0 2.095511 1_566
F5 Na0 2.248326 1_555
F5 Rb0 3.072507 1_565
F5 Rb0 3.072507 1_556
F5 Rb1 3.072507 1_555
F5 Rb1 3.072507 1_455
