# generated using pymatgen
data_Na3Ga2Pt
_symmetry_space_group_name_H-M   'P 1'
_cell_length_a   8.91818115
_cell_length_b   8.91818080
_cell_length_c   8.91818236
_cell_angle_alpha   60.00000498
_cell_angle_beta   60.00000626
_cell_angle_gamma   60.00000289
_symmetry_Int_Tables_number   1
_chemical_formula_structural   Na3Ga2Pt
_chemical_formula_sum   'Na12 Ga8 Pt4'
_cell_volume   501.54968230
_cell_formula_units_Z   4
loop_
 _symmetry_equiv_pos_site_id
 _symmetry_equiv_pos_as_xyz
  1  'x, y, z'
loop_
 _atom_site_type_symbol
 _atom_site_label
 _atom_site_symmetry_multiplicity
 _atom_site_fract_x
 _atom_site_fract_y
 _atom_site_fract_z
 _atom_site_occupancy
  Na  Na0  1  0.45745465  0.04254535  0.04254535  1
  Na  Na1  1  0.79254535  0.20745465  0.79254535  1
  Na  Na2  1  0.45745465  0.45745465  0.04254535  1
  Na  Na3  1  0.79254535  0.79254535  0.20745465  1
  Na  Na4  1  0.20745465  0.79254535  0.79254535  1
  Na  Na5  1  0.04254535  0.45745465  0.45745465  1
  Na  Na6  1  0.04254535  0.04254535  0.45745465  1
  Na  Na7  1  0.20745465  0.20745465  0.79254535  1
  Na  Na8  1  0.45745465  0.04254535  0.45745465  1
  Na  Na9  1  0.79254535  0.20745465  0.20745465  1
  Na  Na10  1  0.04254535  0.45745465  0.04254535  1
  Na  Na11  1  0.20745465  0.79254535  0.20745465  1
  Ga  Ga0  1  0.42313062  0.42313062  0.42313062  1
  Ga  Ga1  1  0.73060715  0.42313062  0.42313062  1
  Ga  Ga2  1  0.82686938  0.82686938  0.82686938  1
  Ga  Ga3  1  0.42313062  0.42313062  0.73060715  1
  Ga  Ga4  1  0.82686938  0.82686938  0.51939285  1
  Ga  Ga5  1  0.42313062  0.73060715  0.42313062  1
  Ga  Ga6  1  0.82686938  0.51939285  0.82686938  1
  Ga  Ga7  1  0.51939285  0.82686938  0.82686938  1
  Pt  Pt0  1  0.62500000  0.62500000  0.12500000  1
  Pt  Pt1  1  0.62500000  0.12500000  0.62500000  1
  Pt  Pt2  1  0.12500000  0.62500000  0.62500000  1
  Pt  Pt3  1  0.62500000  0.62500000  0.62500000  1
loop_
_geom_bond_atom_site_label_1
_geom_bond_atom_site_label_2
_geom_bond_distance
_geom_bond_site_symmetry_2
Na0 Pt0 3.071830 1_545
Na0 Pt1 3.071830 1_554
Na1 Pt1 3.071830 1_555
Na1 Pt3 3.071830 1_555
Na2 Pt0 3.071830 1_555
Na2 Pt3 3.071830 1_554
Na3 Pt0 3.071830 1_555
Na3 Pt3 3.071830 1_555
Na4 Pt2 3.071830 1_555
Na4 Pt3 3.071830 1_555
Na5 Pt2 3.071830 1_555
Na5 Pt3 3.071830 1_455
Na6 Pt2 3.071830 1_545
Na6 Pt1 3.071830 1_455
Na7 Pt2 3.071830 1_555
Na7 Pt1 3.071830 1_555
Na8 Pt1 3.071830 1_555
Na8 Pt3 3.071830 1_545
Na9 Pt0 3.071830 1_555
Na9 Pt1 3.071830 1_555
Na10 Pt0 3.071830 1_455
Na10 Pt2 3.071830 1_554
Na11 Pt0 3.071830 1_555
Na11 Pt2 3.071830 1_555
Ga0 Pt1 2.686856 1_555
Ga0 Pt2 2.686856 1_555
Ga0 Pt0 2.686856 1_555
Ga0 Ga5 2.742131 1_555
Ga0 Ga1 2.742131 1_555
Ga0 Ga3 2.742132 1_555
Ga0 Na11 3.046154 1_555
Ga0 Na9 3.046155 1_555
Ga0 Na7 3.046155 1_555
Ga0 Na8 3.118216 1_555
Ga0 Na5 3.118217 1_555
Ga0 Na2 3.118217 1_555
Ga1 Pt1 2.686852 1_555
Ga1 Pt0 2.686852 1_555
Ga1 Pt3 2.686859 1_555
Ga1 Ga5 2.742131 1_555
Ga1 Ga3 2.742132 1_555
Ga1 Na9 3.046150 1_555
Ga1 Na3 3.046158 1_555
Ga1 Na1 3.046158 1_555
Ga1 Na6 3.118220 1_655
Ga1 Na10 3.118221 1_655
Ga1 Na5 3.118225 1_655
Ga2 Pt1 2.686856 1_565
Ga2 Pt2 2.686856 1_655
Ga2 Pt0 2.686856 1_556
Ga2 Ga6 2.742131 1_555
Ga2 Ga7 2.742131 1_555
Ga2 Ga4 2.742132 1_555
Ga2 Na10 3.046154 1_656
Ga2 Na0 3.046155 1_566
Ga2 Na6 3.046155 1_665
Ga2 Na1 3.118216 1_565
Ga2 Na4 3.118217 1_655
Ga2 Na3 3.118217 1_556
Ga3 Pt1 2.686852 1_555
Ga3 Pt2 2.686852 1_555
Ga3 Pt3 2.686859 1_555
Ga3 Ga5 2.742132 1_555
Ga3 Na7 3.046150 1_555
Ga3 Na4 3.046158 1_555
Ga3 Na1 3.046158 1_555
Ga3 Na0 3.118220 1_556
Ga3 Na10 3.118220 1_556
Ga3 Na2 3.118226 1_556
Ga4 Pt1 2.686852 1_565
Ga4 Pt2 2.686852 1_655
Ga4 Pt3 2.686859 1_555
Ga4 Ga6 2.742132 1_555
Ga4 Ga7 2.742132 1_555
Ga4 Na6 3.046150 1_665
Ga4 Na5 3.046158 1_655
Ga4 Na8 3.046158 1_565
Ga4 Na9 3.118220 1_565
Ga4 Na11 3.118220 1_655
Ga4 Na3 3.118226 1_555
Ga5 Pt2 2.686852 1_555
Ga5 Pt0 2.686852 1_555
Ga5 Pt3 2.686859 1_555
Ga5 Na11 3.046150 1_555
Ga5 Na3 3.046158 1_555
Ga5 Na4 3.046158 1_555
Ga5 Na6 3.118220 1_565
Ga5 Na0 3.118221 1_565
Ga5 Na8 3.118225 1_565
Ga6 Pt2 2.686852 1_655
Ga6 Pt0 2.686852 1_556
Ga6 Pt3 2.686859 1_555
Ga6 Ga7 2.742131 1_555
Ga6 Na10 3.046150 1_656
Ga6 Na2 3.046158 1_556
Ga6 Na5 3.046158 1_655
Ga6 Na7 3.118220 1_655
Ga6 Na9 3.118221 1_556
Ga6 Na1 3.118225 1_555
Ga7 Pt1 2.686852 1_565
Ga7 Pt0 2.686852 1_556
Ga7 Pt3 2.686859 1_555
Ga7 Na0 3.046150 1_566
Ga7 Na2 3.046158 1_556
Ga7 Na8 3.046158 1_565
Ga7 Na7 3.118220 1_565
Ga7 Na11 3.118221 1_556
Ga7 Na4 3.118225 1_555
