# generated using pymatgen
data_Na4Ca2TiSb4
_symmetry_space_group_name_H-M   'P 1'
_cell_length_a   10.02711273
_cell_length_b   10.02711269
_cell_length_c   7.76885728
_cell_angle_alpha   88.87553243
_cell_angle_beta   88.87553516
_cell_angle_gamma   119.99868404
_symmetry_Int_Tables_number   1
_chemical_formula_structural   Na4Ca2TiSb4
_chemical_formula_sum   'Na8 Ca4 Ti2 Sb8'
_cell_volume   675.94377764
_cell_formula_units_Z   2
loop_
 _symmetry_equiv_pos_site_id
 _symmetry_equiv_pos_as_xyz
  1  'x, y, z'
loop_
 _atom_site_type_symbol
 _atom_site_label
 _atom_site_symmetry_multiplicity
 _atom_site_fract_x
 _atom_site_fract_y
 _atom_site_fract_z
 _atom_site_occupancy
  Na  Na0  1  0.47675371  0.94414024  0.38221959  1
  Na  Na1  1  0.94414024  0.47675371  0.88221959  1
  Na  Na2  1  0.86164218  0.71691822  0.18897198  1
  Na  Na3  1  0.28247364  0.13320554  0.23983120  1
  Na  Na4  1  0.85049391  0.14040024  0.21201585  1
  Na  Na5  1  0.13320554  0.28247364  0.73983120  1
  Na  Na6  1  0.71691822  0.86164218  0.68897198  1
  Na  Na7  1  0.14040024  0.85049391  0.71201585  1
  Ca  Ca0  1  0.05339412  0.52709018  0.38960990  1
  Ca  Ca1  1  0.48026093  0.52705759  0.38210727  1
  Ca  Ca2  1  0.52709018  0.05339412  0.88960990  1
  Ca  Ca3  1  0.52705759  0.48026093  0.88210727  1
  Ti  Ti0  1  0.66375688  0.33136715  0.50173087  1
  Ti  Ti1  1  0.33136715  0.66375688  0.00173087  1
  Sb  Sb0  1  0.19532587  0.37597010  0.12850343  1
  Sb  Sb1  1  0.62553229  0.81052257  0.09113585  1
  Sb  Sb2  1  0.19527492  0.81511377  0.10869940  1
  Sb  Sb3  1  0.81052257  0.62553229  0.59113585  1
  Sb  Sb4  1  0.37597010  0.19532587  0.62850343  1
  Sb  Sb5  1  0.81511377  0.19527492  0.60869940  1
  Sb  Sb6  1  0.65840201  0.33491793  0.15747165  1
  Sb  Sb7  1  0.33491793  0.65840201  0.65747165  1
loop_
_geom_bond_atom_site_label_1
_geom_bond_atom_site_label_2
_geom_bond_distance
_geom_bond_site_symmetry_2
Na0 Sb7 3.220231 1_555
Na0 Sb2 3.293500 1_555
Na0 Sb1 3.334611 1_555
Na0 Sb5 3.579501 1_565
Na0 Sb4 3.699223 1_565
Na1 Sb6 3.220231 1_556
Na1 Sb5 3.293500 1_555
Na1 Sb3 3.334611 1_555
Na1 Sb2 3.579502 1_656
Na1 Sb0 3.699223 1_656
Na2 Sb2 3.024919 1_655
Na2 Sb1 3.054233 1_555
Na2 Sb3 3.196732 1_555
Na2 Sb6 3.336970 1_555
Na3 Sb2 3.057668 1_545
Na3 Sb0 3.084018 1_555
Na3 Sb4 3.159985 1_555
Na3 Sb6 3.307561 1_555
Na4 Sb0 3.104944 1_655
Na4 Sb1 3.107291 1_545
Na4 Sb5 3.185091 1_555
Na4 Sb6 3.383792 1_555
Na5 Sb5 3.057668 1_455
Na5 Sb4 3.084018 1_555
Na5 Sb0 3.159985 1_556
Na5 Sb7 3.307561 1_555
Na6 Sb5 3.024919 1_565
Na6 Sb3 3.054233 1_555
Na6 Sb1 3.196732 1_556
Na6 Sb7 3.336970 1_555
Na7 Sb4 3.104944 1_565
Na7 Sb3 3.107291 1_455
Na7 Sb2 3.185091 1_556
Na7 Sb7 3.383792 1_555
Ca0 Sb0 3.255780 1_555
Ca0 Sb2 3.263381 1_555
Ca0 Sb7 3.264070 1_555
Ca0 Sb5 3.368169 1_455
Ca0 Sb3 3.416284 1_455
Ca1 Sb7 3.215960 1_555
Ca1 Sb0 3.217083 1_555
Ca1 Sb1 3.284675 1_555
Ca1 Sb3 3.403354 1_555
Ca1 Ti0 3.421262 1_555
Ca1 Sb4 3.466317 1_555
Ca1 Sb6 3.660453 1_555
Ca2 Sb4 3.255780 1_555
Ca2 Sb5 3.263381 1_555
Ca2 Sb6 3.264070 1_556
Ca2 Sb2 3.368169 1_546
Ca2 Sb1 3.416284 1_546
Ca3 Sb6 3.215960 1_556
Ca3 Sb4 3.217083 1_555
Ca3 Sb3 3.284675 1_555
Ca3 Sb1 3.403354 1_556
Ca3 Ti1 3.421262 1_556
Ca3 Sb0 3.466318 1_556
Ca3 Sb7 3.660453 1_555
Sb0 Ti1 2.656574 1_555
Sb1 Ti1 2.669901 1_555
Sb2 Ti1 2.632877 1_555
Sb3 Ti0 2.669901 1_555
Sb4 Ti0 2.656574 1_555
Sb5 Ti0 2.632877 1_555
Sb6 Ti0 2.675989 1_555
Sb7 Ti1 2.675989 1_556
