# generated using pymatgen
data_Hf4Zr6Sn6P
_symmetry_space_group_name_H-M   'P 1'
_cell_length_a   5.80755364
_cell_length_b   8.52537618
_cell_length_c   8.52539575
_cell_angle_alpha   119.99993221
_cell_angle_beta   90.00014005
_cell_angle_gamma   89.99971546
_symmetry_Int_Tables_number   1
_chemical_formula_structural   Hf4Zr6Sn6P
_chemical_formula_sum   'Hf4 Zr6 Sn6 P1'
_cell_volume   365.55460329
_cell_formula_units_Z   1
loop_
 _symmetry_equiv_pos_site_id
 _symmetry_equiv_pos_as_xyz
  1  'x, y, z'
loop_
 _atom_site_type_symbol
 _atom_site_label
 _atom_site_symmetry_multiplicity
 _atom_site_fract_x
 _atom_site_fract_y
 _atom_site_fract_z
 _atom_site_occupancy
  Hf  Hf0  1  0.50000000  0.33333300  0.66666700  1
  Hf  Hf1  1  0.50000000  0.66666600  0.33333300  1
  Hf  Hf2  1  0.00000000  0.66666600  0.33333100  1
  Hf  Hf3  1  0.00000000  0.33333500  0.66666900  1
  Zr  Zr0  1  0.75607225  0.25028025  0.00000000  1
  Zr  Zr1  1  0.75606825  0.74972075  0.74971975  1
  Zr  Zr2  1  0.75606825  1.00000000  0.25028025  1
  Zr  Zr3  1  0.24392775  0.74971975  1.00000000  1
  Zr  Zr4  1  0.24393175  0.25028125  0.25028025  1
  Zr  Zr5  1  0.24393175  0.00000100  0.74971975  1
  Sn  Sn0  1  0.74945588  0.60507398  1.00000000  1
  Sn  Sn1  1  0.74945888  0.39492502  0.39492502  1
  Sn  Sn2  1  0.74945888  0.00000000  0.60507498  1
  Sn  Sn3  1  0.25054412  0.39492602  0.00000000  1
  Sn  Sn4  1  0.25054112  0.60507498  0.60507498  1
  Sn  Sn5  1  0.25054112  1.00000000  0.39492502  1
  P  P0  1  0.49999900  0.00000100  0.00000000  1
loop_
_geom_bond_atom_site_label_1
_geom_bond_atom_site_label_2
_geom_bond_distance
_geom_bond_site_symmetry_2
Hf0 Sn2 2.993010 1_555
Hf0 Sn3 2.993013 1_556
Hf0 Sn0 2.993016 1_555
Hf0 Sn4 2.993018 1_555
Hf0 Sn5 2.993027 1_545
Hf0 Sn1 2.993032 1_555
Hf1 Sn1 2.993010 1_555
Hf1 Sn3 2.993013 1_555
Hf1 Sn0 2.993016 1_554
Hf1 Sn5 2.993017 1_555
Hf1 Sn4 2.993027 1_555
Hf1 Sn2 2.993031 1_565
Hf2 Sn0 2.996061 1_454
Hf2 Sn3 2.996064 1_555
Hf2 Sn5 2.996072 1_555
Hf2 Sn2 2.996076 1_465
Hf2 Sn1 2.996080 1_455
Hf2 Sn4 2.996081 1_555
Hf3 Sn0 2.996061 1_455
Hf3 Sn3 2.996064 1_556
Hf3 Sn4 2.996072 1_555
Hf3 Sn1 2.996076 1_455
Hf3 Sn2 2.996079 1_455
Hf3 Sn5 2.996080 1_545
Sn0 Zr2 2.950632 1_556
Sn0 Zr1 2.950639 1_555
Sn0 Zr0 3.024994 1_556
Sn0 Zr3 3.125255 1_655
Sn0 Zr3 3.184344 1_555
Sn1 Zr2 2.950622 1_545
Sn1 Zr0 2.950631 1_555
Sn1 Zr1 3.025013 1_555
Sn1 Zr4 3.125248 1_655
Sn1 Zr4 3.184343 1_555
Sn2 Zr1 2.950615 1_545
Sn2 Zr0 2.950631 1_556
Sn2 Zr2 3.025009 1_545
Sn2 Zr5 3.125248 1_655
Sn2 Zr5 3.184343 1_555
Sn3 Zr5 2.950625 1_554
Sn3 Zr4 2.950626 1_555
Sn3 Zr3 3.024994 1_554
Sn3 Zr0 3.125255 1_455
Sn3 Zr0 3.184344 1_555
Sn4 Zr5 2.950630 1_565
Sn4 Zr3 2.950631 1_555
Sn4 Zr4 3.025004 1_555
Sn4 Zr1 3.125251 1_455
Sn4 Zr1 3.184347 1_555
Sn5 Zr3 2.950631 1_554
Sn5 Zr4 2.950631 1_565
Sn5 Zr5 3.025005 1_565
Sn5 Zr2 3.125249 1_455
Sn5 Zr2 3.184345 1_555
P0 Zr4 2.600838 1_555
P0 Zr5 2.600839 1_554
P0 Zr1 2.600845 1_544
P0 Zr2 2.600849 1_545
P0 Zr0 2.600857 1_555
P0 Zr3 2.600864 1_544
