# generated using pymatgen
data_Hf2Rh6C
_symmetry_space_group_name_H-M   'P 1'
_cell_length_a   5.63490469
_cell_length_b   5.63490331
_cell_length_c   5.63511752
_cell_angle_alpha   59.99874245
_cell_angle_beta   59.99875053
_cell_angle_gamma   60.00250454
_symmetry_Int_Tables_number   1
_chemical_formula_structural   Hf2Rh6C
_chemical_formula_sum   'Hf2 Rh6 C1'
_cell_volume   126.52053314
_cell_formula_units_Z   1
loop_
 _symmetry_equiv_pos_site_id
 _symmetry_equiv_pos_as_xyz
  1  'x, y, z'
loop_
 _atom_site_type_symbol
 _atom_site_label
 _atom_site_symmetry_multiplicity
 _atom_site_fract_x
 _atom_site_fract_y
 _atom_site_fract_z
 _atom_site_occupancy
  Hf  Hf0  1  0.25000000  0.25000000  0.25000000  1
  Hf  Hf1  1  0.75000000  0.75000000  0.75000000  1
  Rh  Rh0  1  0.74606046  0.25394054  0.25394054  1
  Rh  Rh1  1  0.25394054  0.74606046  0.25394054  1
  Rh  Rh2  1  0.74604320  0.74604320  0.25395780  1
  Rh  Rh3  1  0.25395680  0.25395680  0.74604420  1
  Rh  Rh4  1  0.74605946  0.25394154  0.74605946  1
  Rh  Rh5  1  0.25394154  0.74605946  0.74605946  1
  C  C0  1  0.00000000  0.00000000  0.00000000  1
loop_
_geom_bond_atom_site_label_1
_geom_bond_atom_site_label_2
_geom_bond_distance
_geom_bond_site_symmetry_2
Hf0 Rh1 2.817621 1_545
Hf0 Rh0 2.817622 1_455
Hf0 Rh5 2.817627 1_545
Hf0 Rh5 2.817627 1_554
Hf0 Rh4 2.817627 1_554
Hf0 Rh4 2.817627 1_455
Hf0 Rh1 2.817632 1_555
Hf0 Rh0 2.817633 1_555
Hf0 Rh3 2.817730 1_554
Hf0 Rh2 2.817735 1_545
Hf0 Rh2 2.817735 1_455
Hf0 Rh3 2.817741 1_555
Hf1 Rh4 2.817621 1_555
Hf1 Rh5 2.817622 1_555
Hf1 Rh0 2.817627 1_565
Hf1 Rh0 2.817627 1_556
Hf1 Rh1 2.817627 1_556
Hf1 Rh1 2.817627 1_655
Hf1 Rh4 2.817632 1_565
Hf1 Rh5 2.817633 1_655
Hf1 Rh2 2.817730 1_555
Hf1 Rh3 2.817735 1_565
Hf1 Rh3 2.817735 1_655
Hf1 Rh2 2.817741 1_556
C0 Rh3 2.023694 1_554
C0 Rh2 2.023694 1_445
C0 Rh4 2.023718 1_454
C0 Rh0 2.023718 1_455
C0 Rh5 2.023718 1_544
C0 Rh1 2.023718 1_545
