# generated using pymatgen
data_BaSrHgAs2
_symmetry_space_group_name_H-M   'P 1'
_cell_length_a   9.16218167
_cell_length_b   9.16218087
_cell_length_c   7.62092383
_cell_angle_alpha   90.00000000
_cell_angle_beta   90.00000000
_cell_angle_gamma   151.23090826
_symmetry_Int_Tables_number   1
_chemical_formula_structural   BaSrHgAs2
_chemical_formula_sum   'Ba2 Sr2 Hg2 As4'
_cell_volume   307.89595896
_cell_formula_units_Z   2
loop_
 _symmetry_equiv_pos_site_id
 _symmetry_equiv_pos_as_xyz
  1  'x, y, z'
loop_
 _atom_site_type_symbol
 _atom_site_label
 _atom_site_symmetry_multiplicity
 _atom_site_fract_x
 _atom_site_fract_y
 _atom_site_fract_z
 _atom_site_occupancy
  Ba  Ba0  1  0.29823308  0.70176692  0.93407089  1
  Ba  Ba1  1  0.70176692  0.29823308  0.43407089  1
  Sr  Sr0  1  0.47165703  0.52834297  0.26862270  1
  Sr  Sr1  1  0.52834297  0.47165703  0.76862270  1
  Hg  Hg0  1  0.09556737  0.90443263  0.10885447  1
  Hg  Hg1  1  0.90443263  0.09556737  0.60885447  1
  As  As0  1  0.06053327  0.93946673  0.47808597  1
  As  As1  1  0.93946673  0.06053327  0.97808597  1
  As  As2  1  0.33134397  0.66865603  0.50591596  1
  As  As3  1  0.66865603  0.33134397  0.00591596  1
loop_
_geom_bond_atom_site_label_1
_geom_bond_atom_site_label_2
_geom_bond_distance
_geom_bond_site_symmetry_2
Ba0 Hg0 3.835987 1_556
Ba0 Hg1 3.857059 1_455
Ba0 Hg1 3.857059 1_565
Ba1 Hg1 3.835987 1_555
Ba1 Hg0 3.857059 1_655
Ba1 Hg0 3.857059 1_545
Hg0 Sr0 3.391267 1_565
Hg0 Sr0 3.391268 1_455
Hg0 Sr1 3.650708 1_564
Hg0 Sr1 3.650708 1_454
Hg1 Sr1 3.391267 1_545
Hg1 Sr1 3.391268 1_655
Hg1 Sr0 3.650708 1_545
Hg1 Sr0 3.650708 1_655
As0 Hg0 2.881779 1_555
As0 Hg1 2.944543 1_465
As0 Sr0 3.196511 1_565
As0 Sr0 3.196511 1_455
As0 Sr1 3.226425 1_565
As0 Sr1 3.226425 1_455
As0 Ba1 3.402620 1_455
As0 Ba1 3.402621 1_565
As1 Hg1 2.881779 1_555
As1 Hg0 2.944543 1_646
As1 Sr1 3.196511 1_545
As1 Sr1 3.196511 1_655
As1 Sr0 3.226425 1_546
As1 Sr0 3.226425 1_656
As1 Ba0 3.402620 1_655
As1 Ba0 3.402621 1_545
As2 Hg1 2.734830 1_455
As2 Hg1 2.734831 1_565
As2 Sr0 3.077839 1_555
As2 Ba1 3.281850 1_565
As2 Ba1 3.281850 1_455
As2 Ba0 3.315443 1_555
As3 Hg0 2.734830 1_655
As3 Hg0 2.734831 1_545
As3 Sr1 3.077839 1_554
As3 Ba0 3.281850 1_544
As3 Ba0 3.281850 1_654
As3 Ba1 3.315443 1_555
