# generated using pymatgen
data_Na2(HfSe2)5
_symmetry_space_group_name_H-M   'P 1'
_cell_length_a   6.48653131
_cell_length_b   10.46958939
_cell_length_c   8.21223473
_cell_angle_alpha   62.75040220
_cell_angle_beta   66.84081873
_cell_angle_gamma   90.03927171
_symmetry_Int_Tables_number   1
_chemical_formula_structural   Na2(HfSe2)5
_chemical_formula_sum   'Na2 Hf5 Se10'
_cell_volume   444.56898316
_cell_formula_units_Z   1
loop_
 _symmetry_equiv_pos_site_id
 _symmetry_equiv_pos_as_xyz
  1  'x, y, z'
loop_
 _atom_site_type_symbol
 _atom_site_label
 _atom_site_symmetry_multiplicity
 _atom_site_fract_x
 _atom_site_fract_y
 _atom_site_fract_z
 _atom_site_occupancy
  Na  Na0  1  0.79208492  0.08453001  0.41604382  1
  Na  Na1  1  0.00791508  0.51546999  0.98395618  1
  Hf  Hf0  1  0.40000000  0.80000000  0.20000000  1
  Hf  Hf1  1  0.80100304  0.60091350  0.40153715  1
  Hf  Hf2  1  0.19901187  0.39989978  0.59528618  1
  Hf  Hf3  1  0.60098813  0.20010022  0.80471382  1
  Hf  Hf4  1  0.99899696  0.99908650  0.99846285  1
  Se  Se0  1  0.98176330  0.84233445  0.37350214  1
  Se  Se1  1  0.57868535  0.04285493  0.17516421  1
  Se  Se2  1  0.17928484  0.24436193  0.97214786  1
  Se  Se3  1  0.78029058  0.44412412  0.77337202  1
  Se  Se4  1  0.38239063  0.64322346  0.57049430  1
  Se  Se5  1  0.41760937  0.95677654  0.82950570  1
  Se  Se6  1  0.01970942  0.15587588  0.62662798  1
  Se  Se7  1  0.62071516  0.35563807  0.42785214  1
  Se  Se8  1  0.22131465  0.55714507  0.22483579  1
  Se  Se9  1  0.81823670  0.75766555  0.02649786  1
loop_
_geom_bond_atom_site_label_1
_geom_bond_atom_site_label_2
_geom_bond_distance
_geom_bond_site_symmetry_2
Na0 Se0 2.922831 1_545
Na0 Se5 2.927048 1_545
Na0 Se6 2.986392 1_655
Na0 Se1 2.993815 1_555
Na0 Se7 3.077839 1_555
Na0 Se2 3.098964 1_654
Na1 Se9 2.922831 1_456
Na1 Se4 2.927048 1_555
Na1 Se3 2.986392 1_455
Na1 Se8 2.993815 1_556
Na1 Se2 3.077839 1_555
Na1 Se7 3.098964 1_456
Hf0 Se4 2.667896 1_555
Hf0 Se5 2.667896 1_554
Hf0 Se9 2.669450 1_555
Hf0 Se0 2.669450 1_455
Hf0 Se8 2.680466 1_555
Hf0 Se1 2.680466 1_565
Hf1 Se0 2.658410 1_555
Hf1 Se4 2.663739 1_555
Hf1 Se3 2.669068 1_555
Hf1 Se8 2.692121 1_655
Hf1 Se9 2.700366 1_555
Hf1 Se7 2.701388 1_555
Hf2 Se8 2.655838 1_555
Hf2 Se6 2.665406 1_555
Hf2 Se7 2.685988 1_555
Hf2 Se3 2.688411 1_455
Hf2 Se4 2.697498 1_555
Hf2 Se2 2.705460 1_555
Hf3 Se1 2.655838 1_556
Hf3 Se3 2.665406 1_555
Hf3 Se2 2.685988 1_555
Hf3 Se6 2.688411 1_655
Hf3 Se5 2.697498 1_545
Hf3 Se7 2.705460 1_555
Hf4 Se9 2.658410 1_556
Hf4 Se5 2.663739 1_655
Hf4 Se6 2.669068 1_665
Hf4 Se1 2.692121 1_566
Hf4 Se0 2.700366 1_556
Hf4 Se2 2.701388 1_665
