# generated using pymatgen
data_KRb3(HgSe2)2
_symmetry_space_group_name_H-M   'P 1'
_cell_length_a   7.50051744
_cell_length_b   8.48699442
_cell_length_c   11.75201005
_cell_angle_alpha   90.00000000
_cell_angle_beta   90.00000000
_cell_angle_gamma   90.00000000
_symmetry_Int_Tables_number   1
_chemical_formula_structural   KRb3(HgSe2)2
_chemical_formula_sum   'K2 Rb6 Hg4 Se8'
_cell_volume   748.09593764
_cell_formula_units_Z   2
loop_
 _symmetry_equiv_pos_site_id
 _symmetry_equiv_pos_as_xyz
  1  'x, y, z'
loop_
 _atom_site_type_symbol
 _atom_site_label
 _atom_site_symmetry_multiplicity
 _atom_site_fract_x
 _atom_site_fract_y
 _atom_site_fract_z
 _atom_site_occupancy
  K  K0  1  0.50000000  0.25000000  0.39613603  1
  K  K1  1  0.00000000  0.25000000  0.39613603  1
  Rb  Rb0  1  0.75000000  0.96254020  0.88525920  1
  Rb  Rb1  1  0.25000000  0.53745980  0.88525920  1
  Rb  Rb2  1  0.50000000  0.75000000  0.60394175  1
  Rb  Rb3  1  0.00000000  0.75000000  0.60394175  1
  Rb  Rb4  1  0.25000000  0.04330054  0.11544710  1
  Rb  Rb5  1  0.75000000  0.45669946  0.11544710  1
  Hg  Hg0  1  0.75000000  0.83263536  0.28987683  1
  Hg  Hg1  1  0.75000000  0.33924140  0.70893157  1
  Hg  Hg2  1  0.25000000  0.66736464  0.28987683  1
  Hg  Hg3  1  0.25000000  0.16075860  0.70893157  1
  Se  Se0  1  0.75000000  0.07158615  0.17244682  1
  Se  Se1  1  0.25000000  0.40707122  0.60082185  1
  Se  Se2  1  0.75000000  0.58104432  0.39276747  1
  Se  Se3  1  0.25000000  0.42841385  0.17244682  1
  Se  Se4  1  0.25000000  0.91895568  0.39276747  1
  Se  Se5  1  0.75000000  0.57060179  0.83437238  1
  Se  Se6  1  0.25000000  0.92939821  0.83437238  1
  Se  Se7  1  0.75000000  0.09292878  0.60082185  1
loop_
_geom_bond_atom_site_label_1
_geom_bond_atom_site_label_2
_geom_bond_distance
_geom_bond_site_symmetry_2
K0 Se1 3.328581 1_555
K0 Se7 3.328581 1_555
K0 Se4 3.378072 1_545
K0 Se2 3.378072 1_555
K0 Se3 3.566438 1_555
K0 Se0 3.566438 1_555
K1 Se1 3.328581 1_555
K1 Se7 3.328581 1_455
K1 Se4 3.378072 1_545
K1 Se2 3.378072 1_455
K1 Se3 3.566438 1_555
K1 Se0 3.566438 1_455
Rb0 Se5 3.379708 1_555
Rb0 Se0 3.499620 1_566
Rb0 Se7 3.521121 1_565
Rb0 Se6 3.808042 1_555
Rb0 Se6 3.808042 1_655
Rb1 Se6 3.379708 1_555
Rb1 Se3 3.499620 1_556
Rb1 Se1 3.521121 1_555
Rb1 Se5 3.808042 1_555
Rb1 Se5 3.808042 1_455
Rb2 Se2 3.425084 1_555
Rb2 Se4 3.425084 1_555
Rb2 Se7 3.462381 1_565
Rb2 Se1 3.462381 1_555
Rb2 Se6 3.628727 1_555
Rb2 Se5 3.628727 1_555
Rb3 Se2 3.425084 1_455
Rb3 Se4 3.425084 1_555
Rb3 Se7 3.462381 1_465
Rb3 Se1 3.462381 1_555
Rb3 Se6 3.628727 1_555
Rb3 Se5 3.628727 1_455
Rb4 Se3 3.336392 1_555
Rb4 Se4 3.425673 1_545
Rb4 Se6 3.441739 1_544
Rb4 Se0 3.817170 1_555
Rb4 Se0 3.817170 1_455
Rb5 Se0 3.336392 1_555
Rb5 Se2 3.425673 1_555
Rb5 Se5 3.441739 1_554
Rb5 Se3 3.817170 1_555
Rb5 Se3 3.817170 1_655
Hg0 Se0 2.452995 1_565
Hg0 Se2 2.453853 1_555
Hg0 Rb5 3.792334 1_555
Hg1 Se7 2.446259 1_555
Hg1 Se5 2.455353 1_555
Hg1 Rb0 3.809886 1_545
Hg2 Se3 2.452995 1_555
Hg2 Se4 2.453853 1_555
Hg2 Rb4 3.792334 1_565
Hg3 Se1 2.446259 1_555
Hg3 Se6 2.455353 1_545
Hg3 Rb1 3.809886 1_555
