# generated using pymatgen
data_K8Te6Pb
_symmetry_space_group_name_H-M   'P 1'
_cell_length_a   10.04543712
_cell_length_b   10.04543779
_cell_length_c   10.04543715
_cell_angle_alpha   95.46986297
_cell_angle_beta   95.46986555
_cell_angle_gamma   144.03302644
_symmetry_Int_Tables_number   1
_chemical_formula_structural   K8Te6Pb
_chemical_formula_sum   'K8 Te6 Pb1'
_cell_volume   566.27505224
_cell_formula_units_Z   1
loop_
 _symmetry_equiv_pos_site_id
 _symmetry_equiv_pos_as_xyz
  1  'x, y, z'
loop_
 _atom_site_type_symbol
 _atom_site_label
 _atom_site_symmetry_multiplicity
 _atom_site_fract_x
 _atom_site_fract_y
 _atom_site_fract_z
 _atom_site_occupancy
  K  K0  1  0.96595452  0.15348196  0.63968697  1
  K  K1  1  0.51379400  0.32626755  0.36031303  1
  K  K2  1  0.48620600  0.84651804  0.81247356  1
  K  K3  1  0.03404548  0.67373245  0.18752644  1
  K  K4  1  0.67373245  0.03404548  0.18752644  1
  K  K5  1  0.84651804  0.48620600  0.81247356  1
  K  K6  1  0.32626755  0.51379400  0.36031303  1
  K  K7  1  0.15348196  0.96595452  0.63968697  1
  Te  Te0  1  0.50000000  0.00000000  0.50000000  1
  Te  Te1  1  0.00000000  0.50000000  0.50000000  1
  Te  Te2  1  0.88308548  0.88308548  0.30110644  1
  Te  Te3  1  0.58197905  0.58197905  0.69889356  1
  Te  Te4  1  0.41802095  0.11691452  1.00000000  1
  Te  Te5  1  0.11691452  0.41802095  1.00000000  1
  Pb  Pb0  1  0.50000000  0.50000000  0.00000000  1
loop_
_geom_bond_atom_site_label_1
_geom_bond_atom_site_label_2
_geom_bond_distance
_geom_bond_site_symmetry_2
K0 Te3 3.587343 1_655
K0 Te0 3.592894 1_555
K0 Te5 3.613720 1_655
K0 Te1 3.646706 1_655
K0 Te3 3.665250 1_545
K0 Te2 3.698362 1_545
K1 Te2 3.587341 1_555
K1 Te0 3.592901 1_555
K1 Te4 3.613723 1_554
K1 Te1 3.646715 1_655
K1 Te2 3.665242 1_445
K1 Te3 3.698358 1_555
K2 Te5 3.587337 1_555
K2 Te0 3.592905 1_565
K2 Te3 3.613714 1_555
K2 Te1 3.646717 1_555
K2 Te5 3.665243 1_665
K2 Te4 3.698366 1_565
K3 Te4 3.587341 1_454
K3 Te0 3.592900 1_565
K3 Te2 3.613723 1_455
K3 Te1 3.646715 1_555
K3 Te4 3.665242 1_564
K3 Te5 3.698358 1_554
K4 Te5 3.587341 1_544
K4 Te1 3.592900 1_655
K4 Te2 3.613723 1_545
K4 Te0 3.646715 1_555
K4 Te5 3.665242 1_654
K4 Te4 3.698358 1_554
K5 Te4 3.587337 1_555
K5 Te1 3.592905 1_655
K5 Te3 3.613714 1_555
K5 Te0 3.646718 1_555
K5 Te4 3.665243 1_665
K5 Te5 3.698366 1_655
K6 Te2 3.587341 1_555
K6 Te1 3.592901 1_555
K6 Te5 3.613723 1_554
K6 Te0 3.646716 1_565
K6 Te2 3.665242 1_445
K6 Te3 3.698358 1_555
K7 Te3 3.587344 1_565
K7 Te1 3.592894 1_555
K7 Te4 3.613720 1_565
K7 Te0 3.646706 1_565
K7 Te3 3.665249 1_455
K7 Te2 3.698362 1_455
Te0 Te1 3.101457 1_655
Te0 Te1 3.101457 1_545
Pb0 Te2 3.218296 1_555
Pb0 Te5 3.218296 1_554
Pb0 Te3 3.218296 1_554
Pb0 Te4 3.218296 1_554
