# generated using pymatgen
data_Ba4Tc2NiO12
_symmetry_space_group_name_H-M   'P 1'
_cell_length_a   5.75977144
_cell_length_b   5.75991677
_cell_length_c   9.91800344
_cell_angle_alpha   89.99968115
_cell_angle_beta   73.11594941
_cell_angle_gamma   120.00025256
_symmetry_Int_Tables_number   1
_chemical_formula_structural   Ba4Tc2NiO12
_chemical_formula_sum   'Ba4 Tc2 Ni1 O12'
_cell_volume   268.45156353
_cell_formula_units_Z   1
loop_
 _symmetry_equiv_pos_site_id
 _symmetry_equiv_pos_as_xyz
  1  'x, y, z'
loop_
 _atom_site_type_symbol
 _atom_site_label
 _atom_site_symmetry_multiplicity
 _atom_site_fract_x
 _atom_site_fract_y
 _atom_site_fract_z
 _atom_site_occupancy
  Ba  Ba0  1  0.57450249  0.28725141  0.13821871  1
  Ba  Ba1  1  0.42480286  0.71239656  0.86268604  1
  Ba  Ba2  1  0.24714008  0.12357014  0.62906771  1
  Ba  Ba3  1  0.74322909  0.87162134  0.38505691  1
  Tc  Tc0  1  0.99657265  0.99828175  0.00519677  1
  Tc  Tc1  1  0.01487317  0.50744320  0.47745191  1
  Ni  Ni0  1  0.82074348  0.41036241  0.76948012  1
  O  O0  1  0.77280007  0.60993266  0.61727548  1
  O  O1  1  0.22002339  0.61000961  0.61723948  1
  O  O2  1  0.77279435  0.16287106  0.61728261  1
  O  O3  1  0.23431077  0.38102768  0.38453045  1
  O  O4  1  0.76201999  0.38100980  0.38450672  1
  O  O5  1  0.23431703  0.85328946  0.38452680  1
  O  O6  1  0.07748184  0.81118954  0.11133919  1
  O  O7  1  0.62240007  0.81120012  0.11143843  1
  O  O8  1  0.07748169  0.26628542  0.11133964  1
  O  O9  1  0.92130500  0.19785108  0.88078897  1
  O  O10  1  0.39589060  0.19794492  0.88078794  1
  O  O11  1  0.92131233  0.72345985  0.88078913  1
loop_
_geom_bond_atom_site_label_1
_geom_bond_atom_site_label_2
_geom_bond_distance
_geom_bond_site_symmetry_2
Ba0 O4 2.893803 1_555
Ba0 O5 2.894248 1_545
Ba0 O3 2.894286 1_555
Ba0 O8 2.894554 1_555
Ba0 O6 2.894598 1_545
Ba0 O7 2.894689 1_545
Ba0 O7 2.894690 1_555
Ba0 O8 2.894782 1_655
Ba0 O6 2.894786 1_655
Ba0 O10 2.972935 1_554
Ba0 O9 2.973234 1_554
Ba0 O11 2.973253 1_554
Ba1 O11 2.885930 1_455
Ba1 O9 2.885951 1_455
Ba1 O10 2.886118 1_555
Ba1 O10 2.886169 1_565
Ba1 O11 2.886289 1_555
Ba1 O9 2.886314 1_565
Ba1 O1 2.938918 1_555
Ba1 O0 2.939262 1_555
Ba1 O2 2.939264 1_565
Ba1 O8 2.946230 1_556
Ba1 O6 2.946232 1_556
Ba1 O7 2.947748 1_556
Ba2 O11 2.831848 1_445
Ba2 O9 2.831860 1_455
Ba2 O10 2.832992 1_555
Ba2 O3 2.881038 1_555
Ba2 O5 2.881065 1_545
Ba2 O4 2.881140 1_555
Ba2 O2 2.886758 1_455
Ba2 O0 2.886764 1_445
Ba2 O1 2.887348 1_555
Ba2 O1 2.887377 1_545
Ba2 O2 2.888014 1_555
Ba2 O0 2.888060 1_555
Ba3 O1 2.843037 1_555
Ba3 O0 2.844294 1_555
Ba3 O2 2.844336 1_565
Ba3 O3 2.881285 1_665
Ba3 O5 2.881307 1_655
Ba3 O4 2.881390 1_565
Ba3 O5 2.881432 1_555
Ba3 O4 2.881468 1_555
Ba3 O3 2.881502 1_555
Ba3 O7 2.970648 1_555
Ba3 O8 2.971757 1_665
Ba3 O6 2.971810 1_655
Ni0 O9 2.032955 1_555
Ni0 O11 2.033078 1_555
Ni0 O10 2.034833 1_555
Ni0 O1 2.056562 1_655
Ni0 O2 2.058025 1_555
Ni0 O0 2.058146 1_555
O0 Tc1 1.978791 1_655
O1 Tc1 1.980127 1_555
O2 Tc1 1.978868 1_655
O3 Tc1 1.794635 1_555
O4 Tc1 1.794543 1_655
O5 Tc1 1.794625 1_555
O6 Tc0 1.809378 1_455
O7 Tc0 1.809604 1_555
O8 Tc0 1.809405 1_445
O9 Tc0 1.959795 1_546
O10 Tc0 1.959951 1_446
O11 Tc0 1.959748 1_556
