# generated using pymatgen
data_Be3NbNiRh
_symmetry_space_group_name_H-M   'P 1'
_cell_length_a   4.50708018
_cell_length_b   4.50707941
_cell_length_c   4.50707932
_cell_angle_alpha   60.00605011
_cell_angle_beta   60.00606045
_cell_angle_gamma   60.00604976
_symmetry_Int_Tables_number   1
_chemical_formula_structural   Be3NbNiRh
_chemical_formula_sum   'Be3 Nb1 Ni1 Rh1'
_cell_volume   64.74858723
_cell_formula_units_Z   1
loop_
 _symmetry_equiv_pos_site_id
 _symmetry_equiv_pos_as_xyz
  1  'x, y, z'
loop_
 _atom_site_type_symbol
 _atom_site_label
 _atom_site_symmetry_multiplicity
 _atom_site_fract_x
 _atom_site_fract_y
 _atom_site_fract_z
 _atom_site_occupancy
  Be  Be0  1  0.62652072  0.62652072  0.12932027  1
  Be  Be1  1  0.62652072  0.12932027  0.62652072  1
  Be  Be2  1  0.12932027  0.62652072  0.62652072  1
  Nb  Nb0  1  0.00012137  0.00012137  0.00012137  1
  Ni  Ni0  1  0.62989549  0.62989549  0.62989549  1
  Rh  Rh0  1  0.23762345  0.23762345  0.23762345  1
loop_
_geom_bond_atom_site_label_1
_geom_bond_atom_site_label_2
_geom_bond_distance
_geom_bond_site_symmetry_2
Be0 Ni0 2.235843 1_554
Be0 Be1 2.241127 1_555
Be0 Be2 2.241127 1_555
Be0 Be1 2.266365 1_564
Be0 Be2 2.266365 1_654
Be0 Ni0 2.271442 1_555
Be0 Rh0 2.560980 1_565
Be0 Rh0 2.560980 1_655
Be0 Nb0 2.623722 1_665
Be0 Nb0 2.656199 1_655
Be0 Nb0 2.656200 1_565
Be0 Rh0 2.782745 1_555
Be1 Ni0 2.235843 1_545
Be1 Be2 2.241127 1_555
Be1 Be2 2.266365 1_645
Be1 Ni0 2.271442 1_555
Be1 Rh0 2.560980 1_556
Be1 Rh0 2.560980 1_655
Be1 Nb0 2.623721 1_656
Be1 Nb0 2.656200 1_655
Be1 Nb0 2.656200 1_556
Be1 Rh0 2.782745 1_555
Be2 Ni0 2.235843 1_455
Be2 Ni0 2.271442 1_555
Be2 Rh0 2.560980 1_556
Be2 Rh0 2.560980 1_565
Be2 Nb0 2.623721 1_566
Be2 Nb0 2.656199 1_565
Be2 Nb0 2.656199 1_556
Be2 Rh0 2.782745 1_555
Nb0 Rh0 2.621914 1_555
Nb0 Ni0 2.634078 1_454
Nb0 Ni0 2.634079 1_445
Nb0 Ni0 2.634079 1_544
Nb0 Rh0 2.809220 1_545
Nb0 Rh0 2.809220 1_554
Nb0 Rh0 2.809220 1_455
Ni0 Rh0 2.682508 1_565
Ni0 Rh0 2.682508 1_556
Ni0 Rh0 2.682508 1_655
