# generated using pymatgen
data_LuNb2Fe9
_symmetry_space_group_name_H-M   'P 1'
_cell_length_a   8.39303234
_cell_length_b   8.39303252
_cell_length_c   8.39303152
_cell_angle_alpha   34.11475805
_cell_angle_beta   34.11477289
_cell_angle_gamma   34.11475816
_symmetry_Int_Tables_number   1
_chemical_formula_structural   LuNb2Fe9
_chemical_formula_sum   'Lu1 Nb2 Fe9'
_cell_volume   165.80506762
_cell_formula_units_Z   1
loop_
 _symmetry_equiv_pos_site_id
 _symmetry_equiv_pos_as_xyz
  1  'x, y, z'
loop_
 _atom_site_type_symbol
 _atom_site_label
 _atom_site_symmetry_multiplicity
 _atom_site_fract_x
 _atom_site_fract_y
 _atom_site_fract_z
 _atom_site_occupancy
  Lu  Lu0  1  0.00000000  0.00000000  0.00000000  1
  Nb  Nb0  1  0.14341951  0.14341951  0.14341951  1
  Nb  Nb1  1  0.85658049  0.85658049  0.85658049  1
  Fe  Fe0  1  0.41386229  0.41386229  0.91729289  1
  Fe  Fe1  1  0.91729289  0.41386229  0.41386229  1
  Fe  Fe2  1  0.58613771  0.08270711  0.58613771  1
  Fe  Fe3  1  0.58613771  0.58613771  0.08270711  1
  Fe  Fe4  1  0.41386229  0.91729289  0.41386229  1
  Fe  Fe5  1  0.08270711  0.58613771  0.58613771  1
  Fe  Fe6  1  0.33308857  0.33308857  0.33308857  1
  Fe  Fe7  1  0.66691143  0.66691143  0.66691143  1
  Fe  Fe8  1  0.50000000  0.50000000  0.50000000  1
loop_
_geom_bond_atom_site_label_1
_geom_bond_atom_site_label_2
_geom_bond_distance
_geom_bond_site_symmetry_2
Lu0 Nb0 3.397723 1_555
Lu0 Nb1 3.397723 1_444
Nb0 Nb1 3.048719 1_454
Nb0 Nb1 3.048719 1_445
Nb0 Nb1 3.048720 1_544
Fe0 Fe8 2.406649 1_555
Fe0 Fe4 2.445030 1_546
Fe0 Fe1 2.445031 1_456
Fe0 Fe6 2.454366 1_556
Fe0 Fe7 2.475089 1_555
Fe0 Fe4 2.478814 1_555
Fe0 Fe1 2.478815 1_555
Fe0 Nb1 2.824359 1_455
Fe0 Nb1 2.824360 1_545
Fe0 Nb0 2.858511 1_556
Fe0 Lu0 3.180512 1_656
Fe0 Lu0 3.180513 1_566
Fe1 Fe8 2.406649 1_555
Fe1 Fe4 2.445030 1_645
Fe1 Fe6 2.454366 1_655
Fe1 Fe7 2.475089 1_555
Fe1 Fe4 2.478814 1_555
Fe1 Nb1 2.824359 1_554
Fe1 Nb1 2.824360 1_545
Fe1 Nb0 2.858511 1_655
Fe1 Lu0 3.180512 1_656
Fe1 Lu0 3.180513 1_665
Fe2 Fe8 2.406649 1_555
Fe2 Fe3 2.445030 1_546
Fe2 Fe5 2.445030 1_645
Fe2 Fe7 2.454366 1_545
Fe2 Fe6 2.475088 1_555
Fe2 Fe3 2.478814 1_555
Fe2 Fe5 2.478814 1_555
Fe2 Nb0 2.824360 1_556
Fe2 Nb0 2.824361 1_655
Fe2 Nb1 2.858511 1_545
Fe2 Lu0 3.180513 1_655
Fe2 Lu0 3.180513 1_556
Fe3 Fe8 2.406649 1_555
Fe3 Fe5 2.445031 1_654
Fe3 Fe7 2.454366 1_554
Fe3 Fe6 2.475089 1_555
Fe3 Fe5 2.478815 1_555
Fe3 Nb0 2.824359 1_655
Fe3 Nb0 2.824360 1_565
Fe3 Nb1 2.858511 1_554
Fe3 Lu0 3.180512 1_565
Fe3 Lu0 3.180513 1_655
Fe4 Fe8 2.406649 1_555
Fe4 Fe6 2.454366 1_565
Fe4 Fe7 2.475088 1_555
Fe4 Nb1 2.824360 1_554
Fe4 Nb1 2.824361 1_455
Fe4 Nb0 2.858511 1_565
Fe4 Lu0 3.180513 1_566
Fe4 Lu0 3.180513 1_665
Fe5 Fe8 2.406649 1_555
Fe5 Fe7 2.454366 1_455
Fe5 Fe6 2.475089 1_555
Fe5 Nb0 2.824359 1_556
Fe5 Nb0 2.824360 1_565
Fe5 Nb1 2.858511 1_455
Fe5 Lu0 3.180512 1_565
Fe5 Lu0 3.180513 1_556
Fe6 Lu0 2.842788 1_565
Fe6 Lu0 2.842789 1_556
Fe6 Lu0 2.842789 1_655
Fe6 Fe7 2.842806 1_545
Fe6 Fe7 2.842807 1_554
Fe6 Fe7 2.842807 1_455
Fe7 Lu0 2.842788 1_656
Fe7 Lu0 2.842789 1_665
Fe7 Lu0 2.842789 1_566
Fe8 Nb1 2.895640 1_545
Fe8 Nb0 2.895640 1_565
Fe8 Nb1 2.895641 1_455
Fe8 Nb0 2.895641 1_655
Fe8 Nb1 2.895641 1_554
Fe8 Nb0 2.895641 1_556
