# generated using pymatgen
data_Ba2SnSb3Pt2
_symmetry_space_group_name_H-M   'P 1'
_cell_length_a   9.76647654
_cell_length_b   9.76647638
_cell_length_c   4.89494646
_cell_angle_alpha   90.00000000
_cell_angle_beta   90.00000000
_cell_angle_gamma   150.92811230
_symmetry_Int_Tables_number   1
_chemical_formula_structural   Ba2SnSb3Pt2
_chemical_formula_sum   'Ba2 Sn1 Sb3 Pt2'
_cell_volume   226.86973452
_cell_formula_units_Z   1
loop_
 _symmetry_equiv_pos_site_id
 _symmetry_equiv_pos_as_xyz
  1  'x, y, z'
loop_
 _atom_site_type_symbol
 _atom_site_label
 _atom_site_symmetry_multiplicity
 _atom_site_fract_x
 _atom_site_fract_y
 _atom_site_fract_z
 _atom_site_occupancy
  Ba  Ba0  1  0.10636343  0.89363557  0.25000100  1
  Ba  Ba1  1  0.89388349  0.10611551  0.75000000  1
  Sn  Sn0  1  0.74920936  0.25078864  0.25000100  1
  Sb  Sb0  1  0.45394567  0.54605333  0.25000100  1
  Sb  Sb1  1  0.54632740  0.45367160  0.75000000  1
  Sb  Sb2  1  0.25053146  0.74946654  0.75000000  1
  Pt  Pt0  1  0.31274361  0.68725539  0.25000100  1
  Pt  Pt1  1  0.68699059  0.31300841  0.75000000  1
loop_
_geom_bond_atom_site_label_1
_geom_bond_atom_site_label_2
_geom_bond_distance
_geom_bond_site_symmetry_2
Ba0 Sb1 3.645180 1_565
Ba0 Sb1 3.645180 1_455
Ba0 Sb1 3.645186 1_564
Ba0 Sb1 3.645187 1_454
Ba0 Sn0 3.647400 1_565
Ba0 Sn0 3.647403 1_455
Ba0 Sb2 3.663416 1_555
Ba0 Sb2 3.663422 1_554
Ba0 Sb0 3.783367 1_565
Ba0 Sb0 3.783367 1_455
Ba0 Pt1 3.784549 1_455
Ba0 Pt1 3.784549 1_565
Ba0 Pt1 3.784555 1_454
Ba0 Pt1 3.784555 1_564
Ba0 Pt0 3.902177 1_555
Ba1 Sb0 3.645334 1_545
Ba1 Sb0 3.645334 1_655
Ba1 Sb0 3.645340 1_546
Ba1 Sb0 3.645341 1_656
Ba1 Sb2 3.654477 1_655
Ba1 Sb2 3.654481 1_545
Ba1 Sn0 3.670527 1_555
Ba1 Sn0 3.670534 1_556
Ba1 Sb1 3.783743 1_545
Ba1 Sb1 3.783743 1_655
Ba1 Pt0 3.788464 1_655
Ba1 Pt0 3.788464 1_545
Ba1 Pt0 3.788470 1_656
Ba1 Pt0 3.788471 1_546
Ba1 Pt1 3.911871 1_555
Sb0 Sb1 3.006852 1_555
Sb0 Sb1 3.006860 1_554
Pt0 Sb0 2.669808 1_555
Pt0 Sb2 2.715462 1_555
Pt0 Sb2 2.715471 1_554
Pt0 Sn0 2.729787 1_565
Pt0 Sn0 2.729792 1_455
Pt1 Sb1 2.659619 1_555
Pt1 Sn0 2.715525 1_555
Pt1 Sn0 2.715534 1_556
Pt1 Sb2 2.729851 1_655
Pt1 Sb2 2.729855 1_545
