# generated using pymatgen
data_Ba3ZrRh2O9
_symmetry_space_group_name_H-M   'P 1'
_cell_length_a   5.81858486
_cell_length_b   5.81858507
_cell_length_c   14.39813311
_cell_angle_alpha   90.00000000
_cell_angle_beta   90.00000000
_cell_angle_gamma   119.99999334
_symmetry_Int_Tables_number   1
_chemical_formula_structural   Ba3ZrRh2O9
_chemical_formula_sum   'Ba6 Zr2 Rh4 O18'
_cell_volume   422.15467776
_cell_formula_units_Z   2
loop_
 _symmetry_equiv_pos_site_id
 _symmetry_equiv_pos_as_xyz
  1  'x, y, z'
loop_
 _atom_site_type_symbol
 _atom_site_label
 _atom_site_symmetry_multiplicity
 _atom_site_fract_x
 _atom_site_fract_y
 _atom_site_fract_z
 _atom_site_occupancy
  Ba  Ba0  1  0.33333300  0.66666700  0.90759760  1
  Ba  Ba1  1  0.66666700  0.33333300  0.09240240  1
  Ba  Ba2  1  0.66666700  0.33333300  0.40759760  1
  Ba  Ba3  1  0.33333300  0.66666700  0.59240240  1
  Ba  Ba4  1  0.00000000  0.00000000  0.25000000  1
  Ba  Ba5  1  0.00000000  0.00000000  0.75000000  1
  Zr  Zr0  1  0.00000000  0.00000000  0.50000000  1
  Zr  Zr1  1  0.00000000  0.00000000  0.00000000  1
  Rh  Rh0  1  0.33333300  0.66666700  0.33961777  1
  Rh  Rh1  1  0.66666700  0.33333300  0.83961777  1
  Rh  Rh2  1  0.33333300  0.66666700  0.16038223  1
  Rh  Rh3  1  0.66666700  0.33333300  0.66038223  1
  O  O0  1  0.66087574  0.83043787  0.41758744  1
  O  O1  1  0.33912426  0.16956213  0.58241256  1
  O  O2  1  0.48644825  0.51355175  0.25000000  1
  O  O3  1  0.33912426  0.16956213  0.91758744  1
  O  O4  1  0.83043787  0.66087574  0.91758744  1
  O  O5  1  0.51355175  0.02710250  0.75000000  1
  O  O6  1  0.16956213  0.33912426  0.08241256  1
  O  O7  1  0.16956213  0.83043787  0.08241256  1
  O  O8  1  0.16956213  0.33912426  0.41758744  1
  O  O9  1  0.02710250  0.51355175  0.25000000  1
  O  O10  1  0.97289750  0.48644825  0.75000000  1
  O  O11  1  0.66087574  0.83043787  0.08241256  1
  O  O12  1  0.51355175  0.48644825  0.75000000  1
  O  O13  1  0.48644825  0.97289750  0.25000000  1
  O  O14  1  0.83043787  0.66087574  0.58241256  1
  O  O15  1  0.83043787  0.16956213  0.58241256  1
  O  O16  1  0.83043787  0.16956213  0.91758744  1
  O  O17  1  0.16956213  0.83043787  0.41758744  1
loop_
_geom_bond_atom_site_label_1
_geom_bond_atom_site_label_2
_geom_bond_distance
_geom_bond_site_symmetry_2
Ba0 O10 2.906481 1_455
Ba0 O5 2.906481 1_565
Ba0 O12 2.906487 1_555
Ba0 O4 2.912989 1_455
Ba0 O3 2.912989 1_565
Ba0 O16 2.912992 1_455
Ba0 O16 2.912992 1_565
Ba0 O4 2.912995 1_555
Ba0 O3 2.912995 1_555
Ba0 O7 3.009896 1_556
Ba0 O11 3.009899 1_556
Ba0 O6 3.009899 1_556
Ba1 O9 2.906481 1_655
Ba1 O13 2.906481 1_545
Ba1 O2 2.906487 1_555
Ba1 O6 2.912989 1_655
Ba1 O11 2.912989 1_545
Ba1 O7 2.912992 1_655
Ba1 O7 2.912992 1_545
Ba1 O6 2.912995 1_555
Ba1 O11 2.912995 1_555
Ba1 O16 3.009896 1_554
Ba1 O3 3.009899 1_554
Ba1 O4 3.009899 1_554
Ba2 O9 2.906481 1_655
Ba2 O13 2.906481 1_545
Ba2 O2 2.906487 1_555
Ba2 O8 2.912989 1_655
Ba2 O0 2.912989 1_545
Ba2 O17 2.912992 1_655
Ba2 O17 2.912992 1_545
Ba2 O8 2.912995 1_555
Ba2 O0 2.912995 1_555
Ba2 O15 3.009896 1_555
Ba2 O1 3.009899 1_555
Ba2 O14 3.009899 1_555
Ba3 O10 2.906481 1_455
Ba3 O5 2.906481 1_565
Ba3 O12 2.906487 1_555
Ba3 O14 2.912989 1_455
Ba3 O1 2.912989 1_565
Ba3 O15 2.912992 1_455
Ba3 O15 2.912992 1_565
Ba3 O14 2.912995 1_555
Ba3 O1 2.912995 1_555
Ba3 O17 3.009896 1_555
Ba3 O0 3.009899 1_555
Ba3 O8 3.009899 1_555
Ba4 O13 2.912493 1_545
Ba4 O9 2.912493 1_545
Ba4 O2 2.912497 1_445
Ba4 O2 2.912497 1_555
Ba4 O13 2.912499 1_445
Ba4 O9 2.912499 1_555
Ba4 O17 2.956775 1_545
Ba4 O7 2.956775 1_545
Ba4 O0 2.956775 1_445
Ba4 O11 2.956775 1_445
Ba4 O8 2.956775 1_555
Ba4 O6 2.956775 1_555
Ba5 O5 2.912493 1_455
Ba5 O10 2.912493 1_455
Ba5 O12 2.912497 1_555
Ba5 O12 2.912497 1_445
Ba5 O5 2.912499 1_555
Ba5 O10 2.912499 1_445
Ba5 O16 2.956775 1_455
Ba5 O15 2.956775 1_455
Ba5 O3 2.956775 1_555
Ba5 O1 2.956775 1_555
Ba5 O4 2.956775 1_445
Ba5 O14 2.956775 1_445
O0 Rh0 1.996103 1_555
O0 Zr0 2.080432 1_665
O1 Rh3 1.996103 1_555
O1 Zr0 2.080432 1_555
O2 Rh0 2.011500 1_555
O2 Rh2 2.011500 1_555
O3 Rh1 1.996103 1_555
O3 Zr1 2.080432 1_556
O4 Rh1 1.996103 1_555
O4 Zr1 2.080432 1_666
O5 Rh1 2.011500 1_555
O5 Rh3 2.011500 1_555
O6 Rh2 1.996103 1_555
O6 Zr1 2.080432 1_555
O7 Rh2 1.996099 1_555
O7 Zr1 2.080432 1_565
O8 Rh0 1.996103 1_555
O8 Zr0 2.080432 1_555
O9 Rh0 2.011500 1_555
O9 Rh2 2.011500 1_555
O10 Rh1 2.011500 1_555
O10 Rh3 2.011500 1_555
O11 Rh2 1.996103 1_555
O11 Zr1 2.080432 1_665
O12 Rh1 2.011500 1_555
O12 Rh3 2.011500 1_555
O13 Rh0 2.011500 1_555
O13 Rh2 2.011500 1_555
O14 Rh3 1.996103 1_555
O14 Zr0 2.080432 1_665
O15 Rh3 1.996099 1_555
O15 Zr0 2.080432 1_655
O16 Rh1 1.996099 1_555
O16 Zr1 2.080432 1_656
O17 Rh0 1.996099 1_555
O17 Zr0 2.080432 1_565
