# generated using pymatgen
data_K2LiAsO4
_symmetry_space_group_name_H-M   'P 1'
_cell_length_a   5.65563520
_cell_length_b   5.65563527
_cell_length_c   7.51071439
_cell_angle_alpha   89.63869400
_cell_angle_beta   89.63869584
_cell_angle_gamma   85.25889661
_symmetry_Int_Tables_number   1
_chemical_formula_structural   K2LiAsO4
_chemical_formula_sum   'K4 Li2 As2 O8'
_cell_volume   239.40847810
_cell_formula_units_Z   2
loop_
 _symmetry_equiv_pos_site_id
 _symmetry_equiv_pos_as_xyz
  1  'x, y, z'
loop_
 _atom_site_type_symbol
 _atom_site_label
 _atom_site_symmetry_multiplicity
 _atom_site_fract_x
 _atom_site_fract_y
 _atom_site_fract_z
 _atom_site_occupancy
  K  K0  1  0.29303484  0.29303484  0.18101605  1
  K  K1  1  0.21644916  0.78355084  0.50000000  1
  K  K2  1  0.70696516  0.70696516  0.81898395  1
  K  K3  1  0.78355084  0.21644916  0.50000000  1
  Li  Li0  1  0.18245919  0.81754081  0.00000000  1
  Li  Li1  1  0.81754081  0.18245919  1.00000000  1
  As  As0  1  0.28888439  0.28888439  0.75756024  1
  As  As1  1  0.71111561  0.71111561  0.24243976  1
  O  O0  1  0.79055120  0.42872238  0.17558258  1
  O  O1  1  0.89737726  0.89737726  0.14673399  1
  O  O2  1  0.42872238  0.79055120  0.17558258  1
  O  O3  1  0.10262274  0.10262274  0.85326601  1
  O  O4  1  0.72721902  0.72721902  0.46821854  1
  O  O5  1  0.57127762  0.20944880  0.82441742  1
  O  O6  1  0.20944880  0.57127762  0.82441742  1
  O  O7  1  0.27278098  0.27278098  0.53178146  1
loop_
_geom_bond_atom_site_label_1
_geom_bond_atom_site_label_2
_geom_bond_distance
_geom_bond_site_symmetry_2
K0 O7 2.638443 1_555
K0 O0 2.882242 1_455
K0 O2 2.882242 1_545
K0 O3 2.938991 1_554
K0 O0 2.977075 1_555
K0 O2 2.977075 1_555
K0 O6 3.116569 1_554
K0 O5 3.116569 1_554
K1 O6 2.711026 1_555
K1 O2 2.711026 1_555
K1 O4 2.822989 1_455
K1 O7 2.822989 1_565
K1 O4 2.888487 1_555
K1 O7 2.888487 1_555
K2 O4 2.638443 1_555
K2 O6 2.882242 1_655
K2 O5 2.882242 1_565
K2 O1 2.938991 1_556
K2 O6 2.977075 1_555
K2 O5 2.977075 1_555
K2 O0 3.116569 1_556
K2 O2 3.116569 1_556
K3 O0 2.711026 1_555
K3 O5 2.711026 1_555
K3 O7 2.822989 1_655
K3 O4 2.822989 1_545
K3 O7 2.888487 1_555
K3 O4 2.888487 1_555
Li0 O2 1.920340 1_555
Li0 O6 1.920340 1_554
Li0 O3 1.970164 1_564
Li0 O1 1.970164 1_455
Li1 O5 1.920340 1_555
Li1 O0 1.920340 1_556
Li1 O1 1.970164 1_546
Li1 O3 1.970164 1_655
As0 O5 1.701003 1_555
As0 O6 1.701003 1_555
As0 O7 1.702192 1_555
As0 O3 1.703075 1_555
As1 O2 1.701003 1_555
As1 O0 1.701003 1_555
As1 O4 1.702192 1_555
As1 O1 1.703075 1_555
