# generated using pymatgen
data_Si3CCl7
_symmetry_space_group_name_H-M   'P 1'
_cell_length_a   9.36733468
_cell_length_b   9.36733468
_cell_length_c   18.16619034
_cell_angle_alpha   77.26527380
_cell_angle_beta   77.26527380
_cell_angle_gamma   57.55442753
_symmetry_Int_Tables_number   1
_chemical_formula_structural   Si3CCl7
_chemical_formula_sum   'Si12 C4 Cl28'
_cell_volume   1301.96483708
_cell_formula_units_Z   4
loop_
 _symmetry_equiv_pos_site_id
 _symmetry_equiv_pos_as_xyz
  1  'x, y, z'
loop_
 _atom_site_type_symbol
 _atom_site_label
 _atom_site_symmetry_multiplicity
 _atom_site_fract_x
 _atom_site_fract_y
 _atom_site_fract_z
 _atom_site_occupancy
  Si  Si0  1  0.61413300  0.63833500  0.09296700  1
  Si  Si1  1  0.15178400  0.75873700  0.31288800  1
  Si  Si2  1  0.75873700  0.15178400  0.81288800  1
  Si  Si3  1  0.59807100  0.52975900  0.77851600  1
  Si  Si4  1  0.24126300  0.84821600  0.18711200  1
  Si  Si5  1  0.36166500  0.38586700  0.40703300  1
  Si  Si6  1  0.38586700  0.36166500  0.90703300  1
  Si  Si7  1  0.63833500  0.61413300  0.59296700  1
  Si  Si8  1  0.47024100  0.40192900  0.72148400  1
  Si  Si9  1  0.40192900  0.47024100  0.22148400  1
  Si  Si10  1  0.84821600  0.24126300  0.68711200  1
  Si  Si11  1  0.52975900  0.59807100  0.27851600  1
  C  C0  1  0.64175700  0.46130500  0.67940200  1
  C  C1  1  0.35824300  0.53869500  0.32059800  1
  C  C2  1  0.53869500  0.35824300  0.82059800  1
  C  C3  1  0.46130500  0.64175700  0.17940200  1
  Cl  Cl0  1  0.40506900  0.77680000  0.78420700  1
  Cl  Cl1  1  0.20627400  0.48864500  0.18047600  1
  Cl  Cl2  1  0.48864500  0.20627400  0.68047600  1
  Cl  Cl3  1  0.79372600  0.51135500  0.81952400  1
  Cl  Cl4  1  0.26025800  0.06036000  0.17479700  1
  Cl  Cl5  1  0.93964000  0.73974200  0.32520300  1
  Cl  Cl6  1  0.51135500  0.79372600  0.31952400  1
  Cl  Cl7  1  0.06036000  0.26025800  0.67479700  1
  Cl  Cl8  1  0.08560900  0.90018200  0.10914000  1
  Cl  Cl9  1  0.09981800  0.91439100  0.39086000  1
  Cl  Cl10  1  0.91439100  0.09981800  0.89086000  1
  Cl  Cl11  1  0.90018200  0.08560900  0.60914000  1
  Cl  Cl12  1  0.79915800  0.39761400  0.06968000  1
  Cl  Cl13  1  0.60238600  0.20084200  0.43032000  1
  Cl  Cl14  1  0.20084200  0.60238600  0.93032000  1
  Cl  Cl15  1  0.39761400  0.79915800  0.56968000  1
  Cl  Cl16  1  0.73325600  0.75708500  0.10967200  1
  Cl  Cl17  1  0.24291500  0.26674400  0.39032800  1
  Cl  Cl18  1  0.26674400  0.24291500  0.89032800  1
  Cl  Cl19  1  0.75708500  0.73325600  0.60967200  1
  Cl  Cl20  1  0.49184700  0.76435200  0.99840400  1
  Cl  Cl21  1  0.23564800  0.50815300  0.50159600  1
  Cl  Cl22  1  0.50815300  0.23564800  0.00159600  1
  Cl  Cl23  1  0.76435200  0.49184700  0.49840400  1
  Cl  Cl24  1  0.22320000  0.59493100  0.71579300  1
  Cl  Cl25  1  0.59493100  0.22320000  0.21579300  1
  Cl  Cl26  1  0.77680000  0.40506900  0.28420700  1
  Cl  Cl27  1  0.73974200  0.93964000  0.82520300  1
loop_
_geom_bond_atom_site_label_1
_geom_bond_atom_site_label_2
_geom_bond_distance
_geom_bond_site_symmetry_2
C0 Si7 1.870270 1_555
C0 Si8 1.924829 1_555
C0 Si3 1.929543 1_555
C0 Si10 1.929579 1_555
C1 Si5 1.870270 1_555
C1 Si11 1.924829 1_555
C1 Si9 1.929543 1_555
C1 Si1 1.929579 1_555
C2 Si6 1.870270 1_555
C2 Si3 1.924829 1_555
C2 Si8 1.929543 1_555
C2 Si2 1.929579 1_555
C3 Si0 1.870270 1_555
C3 Si9 1.924829 1_555
C3 Si11 1.929543 1_555
C3 Si4 1.929579 1_555
Cl0 Si3 2.041648 1_555
Cl1 Si9 2.037157 1_555
Cl2 Si8 2.037157 1_555
Cl3 Si3 2.037157 1_555
Cl4 Si4 2.048565 1_545
Cl5 Si1 2.048565 1_655
Cl6 Si11 2.037157 1_555
Cl7 Si10 2.048565 1_455
Cl8 Si4 2.052857 1_555
Cl9 Si1 2.052857 1_555
Cl10 Si2 2.052857 1_555
Cl11 Si10 2.052857 1_555
Cl12 Si0 2.042394 1_555
Cl13 Si5 2.042394 1_555
Cl14 Si6 2.042394 1_555
Cl15 Si7 2.042394 1_555
Cl16 Si0 2.050511 1_555
Cl17 Si5 2.050511 1_555
Cl18 Si6 2.050511 1_555
Cl19 Si7 2.050511 1_555
Cl20 Si0 2.044320 1_556
Cl21 Si5 2.044320 1_555
Cl22 Si6 2.044320 1_554
Cl23 Si7 2.044320 1_555
Cl24 Si8 2.041648 1_555
Cl25 Si9 2.041648 1_555
Cl26 Si11 2.041648 1_555
Cl27 Si2 2.048565 1_565
