# generated using pymatgen
data_NbIn(SeO3)4
_symmetry_space_group_name_H-M   'P 1'
_cell_length_a   8.48003489
_cell_length_b   8.30389995
_cell_length_c   8.47633214
_cell_angle_alpha   89.66811588
_cell_angle_beta   90.00000000
_cell_angle_gamma   90.00000000
_symmetry_Int_Tables_number   1
_chemical_formula_structural   NbIn(SeO3)4
_chemical_formula_sum   'Nb2 In2 Se8 O24'
_cell_volume   596.87092902
_cell_formula_units_Z   2
loop_
 _symmetry_equiv_pos_site_id
 _symmetry_equiv_pos_as_xyz
  1  'x, y, z'
loop_
 _atom_site_type_symbol
 _atom_site_label
 _atom_site_symmetry_multiplicity
 _atom_site_fract_x
 _atom_site_fract_y
 _atom_site_fract_z
 _atom_site_occupancy
  Nb  Nb0  1  0.00000000  0.00000000  0.50000000  1
  Nb  Nb1  1  0.50000000  0.00000000  0.00000000  1
  In  In0  1  0.00000000  0.50000000  0.00000000  1
  In  In1  1  0.50000000  0.50000000  0.50000000  1
  Se  Se0  1  0.32613234  0.65927688  0.17701924  1
  Se  Se1  1  0.82613234  0.34072312  0.32298076  1
  Se  Se2  1  0.68087784  0.81325597  0.67045233  1
  Se  Se3  1  0.18087784  0.18674403  0.82954767  1
  Se  Se4  1  0.67386766  0.34072312  0.82298076  1
  Se  Se5  1  0.17386766  0.65927688  0.67701924  1
  Se  Se6  1  0.31912216  0.18674403  0.32954767  1
  Se  Se7  1  0.81912216  0.81325597  0.17045233  1
  O  O0  1  0.24580181  0.54569731  0.03442259  1
  O  O1  1  0.74580181  0.45430269  0.46557741  1
  O  O2  1  0.77539919  0.96776246  0.56990492  1
  O  O3  1  0.27539919  0.03223754  0.93009508  1
  O  O4  1  0.55733923  0.93298930  0.78070114  1
  O  O5  1  0.46054118  0.53014307  0.25231037  1
  O  O6  1  0.96054118  0.46985693  0.24768963  1
  O  O7  1  0.05733923  0.06701070  0.71929886  1
  O  O8  1  0.95342492  0.22514278  0.44223692  1
  O  O9  1  0.55588177  0.75332352  0.53003321  1
  O  O10  1  0.45342492  0.77485722  0.05776308  1
  O  O11  1  0.05588177  0.24667648  0.96996679  1
  O  O12  1  0.75419819  0.45430269  0.96557741  1
  O  O13  1  0.25419819  0.54569731  0.53442259  1
  O  O14  1  0.22460081  0.03223754  0.43009508  1
  O  O15  1  0.72460081  0.96776246  0.06990492  1
  O  O16  1  0.44266077  0.06701070  0.21929886  1
  O  O17  1  0.53945882  0.46985693  0.74768963  1
  O  O18  1  0.03945882  0.53014307  0.75231037  1
  O  O19  1  0.94266077  0.93298930  0.28070114  1
  O  O20  1  0.04657508  0.77485722  0.55776308  1
  O  O21  1  0.44411823  0.24667648  0.46996679  1
  O  O22  1  0.54657508  0.22514278  0.94223692  1
  O  O23  1  0.94411823  0.75332352  0.03003321  1
loop_
_geom_bond_atom_site_label_1
_geom_bond_atom_site_label_2
_geom_bond_distance
_geom_bond_site_symmetry_2
Nb0 O8 1.969868 1_455
Nb0 O20 1.969868 1_545
Nb0 O7 2.003340 1_555
Nb0 O19 2.003340 1_445
Nb0 O14 2.012092 1_555
Nb0 O2 2.012092 1_445
Nb1 O22 1.969868 1_554
Nb1 O10 1.969868 1_545
Nb1 O16 2.003340 1_555
Nb1 O4 2.003340 1_544
Nb1 O15 2.012092 1_545
Nb1 O3 2.012092 1_554
In0 O0 2.138964 1_555
In0 O12 2.138964 1_454
In0 O6 2.139259 1_455
In0 O18 2.139259 1_554
In0 O11 2.172692 1_554
In0 O23 2.172692 1_455
In1 O1 2.138964 1_555
In1 O13 2.138964 1_555
In1 O17 2.139259 1_555
In1 O5 2.139259 1_555
In1 O9 2.172692 1_555
In1 O21 2.172692 1_555
O0 Se0 1.681587 1_555
O1 Se1 1.681587 1_555
O2 Se2 1.732709 1_555
O3 Se3 1.732709 1_555
O4 Se2 1.723396 1_555
O5 Se0 1.687704 1_555
O6 Se1 1.687704 1_555
O7 Se3 1.723396 1_555
O8 Se1 1.759814 1_555
O9 Se2 1.671750 1_555
O10 Se0 1.759814 1_555
O11 Se3 1.671750 1_555
O12 Se4 1.681587 1_555
O13 Se5 1.681587 1_555
O14 Se6 1.732709 1_555
O15 Se7 1.732709 1_555
O16 Se6 1.723396 1_555
O17 Se4 1.687704 1_555
O18 Se5 1.687704 1_555
O19 Se7 1.723396 1_555
O20 Se5 1.759814 1_555
O21 Se6 1.671750 1_555
O22 Se4 1.759814 1_555
O23 Se7 1.671750 1_555
