# generated using pymatgen
data_RbSnAsS5
_symmetry_space_group_name_H-M   'P 1'
_cell_length_a   7.54203230
_cell_length_b   8.39878218
_cell_length_c   14.32778241
_cell_angle_alpha   90.00000000
_cell_angle_beta   90.00000000
_cell_angle_gamma   90.00000000
_symmetry_Int_Tables_number   1
_chemical_formula_structural   RbSnAsS5
_chemical_formula_sum   'Rb4 Sn4 As4 S20'
_cell_volume   907.57742264
_cell_formula_units_Z   4
loop_
 _symmetry_equiv_pos_site_id
 _symmetry_equiv_pos_as_xyz
  1  'x, y, z'
loop_
 _atom_site_type_symbol
 _atom_site_label
 _atom_site_symmetry_multiplicity
 _atom_site_fract_x
 _atom_site_fract_y
 _atom_site_fract_z
 _atom_site_occupancy
  Rb  Rb0  1  0.50000000  0.89896858  0.84004101  1
  Rb  Rb1  1  0.50000000  0.60103142  0.34004101  1
  Rb  Rb2  1  0.50000000  0.39896858  0.65995899  1
  Rb  Rb3  1  0.50000000  0.10103142  0.15995899  1
  Sn  Sn0  1  0.73268892  0.00000000  0.50000000  1
  Sn  Sn1  1  0.73268892  0.50000000  0.00000000  1
  Sn  Sn2  1  0.26731108  0.50000000  0.00000000  1
  Sn  Sn3  1  0.26731108  0.00000000  0.50000000  1
  As  As0  1  0.00000000  0.69565849  0.78443873  1
  As  As1  1  0.00000000  0.80434151  0.28443873  1
  As  As2  1  0.00000000  0.30434151  0.21556127  1
  As  As3  1  0.00000000  0.19565849  0.71556127  1
  S  S0  1  0.00000000  0.71052873  0.02433945  1
  S  S1  1  0.23329997  0.54898970  0.82292809  1
  S  S2  1  0.00000000  0.78947127  0.52433945  1
  S  S3  1  0.50000000  0.20259983  0.46117567  1
  S  S4  1  0.76670003  0.04898970  0.67707191  1
  S  S5  1  0.23329997  0.95101030  0.32292809  1
  S  S6  1  0.76670003  0.54898970  0.82292809  1
  S  S7  1  0.00000000  0.86086892  0.91411708  1
  S  S8  1  0.00000000  0.36086892  0.58588292  1
  S  S9  1  0.00000000  0.28947127  0.97566055  1
  S  S10  1  0.76670003  0.95101030  0.32292809  1
  S  S11  1  0.00000000  0.13913108  0.08588292  1
  S  S12  1  0.76670003  0.45101030  0.17707191  1
  S  S13  1  0.50000000  0.29740017  0.96117567  1
  S  S14  1  0.23329997  0.45101030  0.17707191  1
  S  S15  1  0.00000000  0.21052873  0.47566055  1
  S  S16  1  0.50000000  0.70259983  0.03882433  1
  S  S17  1  0.23329997  0.04898970  0.67707191  1
  S  S18  1  0.50000000  0.79740017  0.53882433  1
  S  S19  1  0.00000000  0.63913108  0.41411708  1
loop_
_geom_bond_atom_site_label_1
_geom_bond_atom_site_label_2
_geom_bond_distance
_geom_bond_site_symmetry_2
Rb0 S16 3.291180 1_556
Rb0 S4 3.329522 1_565
Rb0 S17 3.329522 1_565
Rb0 S6 3.570174 1_555
Rb0 S1 3.570174 1_555
Rb0 S13 3.769651 1_565
Rb1 S18 3.291180 1_555
Rb1 S12 3.329522 1_555
Rb1 S14 3.329522 1_555
Rb1 S10 3.570174 1_555
Rb1 S5 3.570174 1_555
Rb1 S3 3.769651 1_555
Rb2 S3 3.291180 1_555
Rb2 S6 3.329522 1_555
Rb2 S1 3.329522 1_555
Rb2 S4 3.570174 1_555
Rb2 S17 3.570174 1_555
Rb2 S18 3.769651 1_555
Rb3 S13 3.291180 1_554
Rb3 S10 3.329522 1_545
Rb3 S5 3.329522 1_545
Rb3 S12 3.570174 1_555
Rb3 S14 3.570174 1_555
Rb3 S16 3.769651 1_545
As0 S1 2.217562 1_555
As0 S6 2.217562 1_455
As0 S7 2.318947 1_555
As1 S5 2.217562 1_555
As1 S10 2.217562 1_455
As1 S19 2.318947 1_555
As2 S14 2.217562 1_555
As2 S12 2.217562 1_455
As2 S11 2.318947 1_555
As3 S17 2.217562 1_555
As3 S4 2.217562 1_455
As3 S8 2.318947 1_555
S0 S7 2.021967 1_554
S0 Sn2 2.704186 1_555
S0 Sn1 2.704186 1_455
S1 Sn2 2.582964 1_556
S2 Sn3 2.704186 1_565
S2 Sn0 2.704186 1_465
S3 Sn0 2.506928 1_555
S3 Sn3 2.506928 1_555
S4 Sn0 2.582964 1_555
S5 Sn3 2.582964 1_565
S6 Sn1 2.582964 1_556
S9 Sn2 2.704186 1_556
S9 Sn1 2.704186 1_456
S10 Sn0 2.582964 1_565
S11 S9 2.021967 1_554
S12 Sn1 2.582964 1_555
S13 Sn1 2.506928 1_556
S13 Sn2 2.506928 1_556
S14 Sn2 2.582964 1_555
S15 S8 2.021967 1_555
S15 Sn3 2.704186 1_555
S15 Sn0 2.704186 1_455
S16 Sn1 2.506928 1_555
S16 Sn2 2.506928 1_555
S17 Sn3 2.582964 1_555
S18 Sn0 2.506928 1_565
S18 Sn3 2.506928 1_565
S19 S2 2.021967 1_555
