# generated using pymatgen
data_Rb2SO4
_symmetry_space_group_name_H-M   'P 1'
_cell_length_a   5.96313236
_cell_length_b   7.79130404
_cell_length_c   10.41385778
_cell_angle_alpha   90.00000000
_cell_angle_beta   90.00000000
_cell_angle_gamma   90.00000000
_symmetry_Int_Tables_number   1
_chemical_formula_structural   Rb2SO4
_chemical_formula_sum   'Rb8 S4 O16'
_cell_volume   483.83384383
_cell_formula_units_Z   4
loop_
 _symmetry_equiv_pos_site_id
 _symmetry_equiv_pos_as_xyz
  1  'x, y, z'
loop_
 _atom_site_type_symbol
 _atom_site_label
 _atom_site_symmetry_multiplicity
 _atom_site_fract_x
 _atom_site_fract_y
 _atom_site_fract_z
 _atom_site_occupancy
  Rb  Rb0  1  0.75000000  0.01090095  0.70120058  1
  Rb  Rb1  1  0.25000000  0.98909905  0.29879942  1
  Rb  Rb2  1  0.75000000  0.51090095  0.79879942  1
  Rb  Rb3  1  0.25000000  0.48909905  0.20120058  1
  Rb  Rb4  1  0.25000000  0.67192796  0.59010240  1
  Rb  Rb5  1  0.75000000  0.32807204  0.40989760  1
  Rb  Rb6  1  0.25000000  0.17192796  0.90989760  1
  Rb  Rb7  1  0.75000000  0.82807204  0.09010240  1
  S  S0  1  0.25000000  0.23597213  0.58192244  1
  S  S1  1  0.75000000  0.76402787  0.41807756  1
  S  S2  1  0.25000000  0.73597213  0.91807756  1
  S  S3  1  0.75000000  0.26402787  0.08192244  1
  O  O0  1  0.54718292  0.69801817  0.35212137  1
  O  O1  1  0.04718292  0.30198183  0.64787863  1
  O  O2  1  0.95281708  0.19801817  0.14787863  1
  O  O3  1  0.45281708  0.80198183  0.85212137  1
  O  O4  1  0.45281708  0.30198183  0.64787863  1
  O  O5  1  0.95281708  0.69801817  0.35212137  1
  O  O6  1  0.04718292  0.80198183  0.85212137  1
  O  O7  1  0.54718292  0.19801817  0.14787863  1
  O  O8  1  0.25000000  0.29940092  0.44740268  1
  O  O9  1  0.75000000  0.70059908  0.55259732  1
  O  O10  1  0.25000000  0.79940092  0.05259732  1
  O  O11  1  0.75000000  0.20059908  0.94740268  1
  O  O12  1  0.75000000  0.45327979  0.08478236  1
  O  O13  1  0.25000000  0.54672021  0.91521764  1
  O  O14  1  0.75000000  0.95327979  0.41521764  1
  O  O15  1  0.25000000  0.04672021  0.58478236  1
loop_
_geom_bond_atom_site_label_1
_geom_bond_atom_site_label_2
_geom_bond_distance
_geom_bond_site_symmetry_2
O0 S1 1.482899 1_555
O0 Rb3 2.874057 1_555
O0 Rb1 2.931245 1_555
O0 Rb4 3.053486 1_555
O0 Rb7 3.151964 1_555
O0 Rb5 3.183196 1_555
O1 S0 1.482899 1_555
O1 Rb2 2.874057 1_455
O1 Rb0 2.931245 1_455
O1 Rb5 3.053486 1_455
O1 Rb6 3.151964 1_555
O1 Rb4 3.183196 1_555
O2 S3 1.482899 1_555
O2 Rb1 2.874057 1_645
O2 Rb3 2.931245 1_655
O2 Rb6 3.053486 1_654
O2 Rb5 3.151964 1_555
O2 Rb7 3.183196 1_545
O3 S2 1.482899 1_555
O3 Rb0 2.874057 1_565
O3 Rb2 2.931245 1_555
O3 Rb7 3.053486 1_556
O3 Rb4 3.151964 1_555
O3 Rb6 3.183196 1_565
O4 S0 1.482899 1_555
O4 Rb2 2.874057 1_555
O4 Rb0 2.931245 1_555
O4 Rb5 3.053486 1_555
O4 Rb6 3.151964 1_555
O4 Rb4 3.183196 1_555
O5 S1 1.482899 1_555
O5 Rb3 2.874057 1_655
O5 Rb1 2.931245 1_655
O5 Rb4 3.053486 1_655
O5 Rb7 3.151964 1_555
O5 Rb5 3.183196 1_555
O6 S2 1.482899 1_555
O6 Rb0 2.874057 1_465
O6 Rb2 2.931245 1_455
O6 Rb7 3.053486 1_456
O6 Rb4 3.151964 1_555
O6 Rb6 3.183196 1_565
O7 S3 1.482899 1_555
O7 Rb1 2.874057 1_545
O7 Rb3 2.931245 1_555
O7 Rb6 3.053486 1_554
O7 Rb5 3.151964 1_555
O7 Rb7 3.183196 1_545
O8 S0 1.485484 1_555
O8 Rb1 2.870526 1_545
O8 Rb3 2.959413 1_555
O8 Rb5 3.015325 1_555
O8 Rb5 3.015325 1_455
O8 Rb4 3.260782 1_555
O9 S1 1.485484 1_555
O9 Rb0 2.870526 1_565
O9 Rb2 2.959413 1_555
O9 Rb4 3.015325 1_655
O9 Rb4 3.015325 1_555
O9 Rb5 3.260782 1_555
O10 S2 1.485484 1_554
O10 Rb3 2.870526 1_555
O10 Rb1 2.959413 1_555
O10 Rb7 3.015325 1_455
O10 Rb7 3.015325 1_555
O10 Rb6 3.260782 1_564
O11 S3 1.485484 1_556
O11 Rb2 2.870526 1_555
O11 Rb0 2.959413 1_555
O11 Rb6 3.015325 1_555
O11 Rb6 3.015325 1_655
O11 Rb7 3.260782 1_546
O12 S3 1.474820 1_555
O12 Rb7 2.920646 1_555
O12 Rb2 3.011833 1_554
O12 Rb3 3.230704 1_555
O12 Rb3 3.230704 1_655
O13 S2 1.474820 1_555
O13 Rb6 2.920646 1_555
O13 Rb3 3.011833 1_556
O13 Rb2 3.230704 1_555
O13 Rb2 3.230704 1_455
O14 S1 1.474820 1_555
O14 Rb5 2.920646 1_565
O14 Rb0 3.011833 1_565
O14 Rb1 3.230704 1_555
O14 Rb1 3.230704 1_655
O15 S0 1.474820 1_555
O15 Rb4 2.920646 1_545
O15 Rb1 3.011833 1_545
O15 Rb0 3.230704 1_455
O15 Rb0 3.230704 1_555
