# generated using pymatgen
data_Rb3Ba3InSb4
_symmetry_space_group_name_H-M   'P 1'
_cell_length_a   11.43323280
_cell_length_b   11.43323283
_cell_length_c   8.46095687
_cell_angle_alpha   90.00000000
_cell_angle_beta   90.00000000
_cell_angle_gamma   120.00000275
_symmetry_Int_Tables_number   1
_chemical_formula_structural   Rb3Ba3InSb4
_chemical_formula_sum   'Rb6 Ba6 In2 Sb8'
_cell_volume   957.82947047
_cell_formula_units_Z   2
loop_
 _symmetry_equiv_pos_site_id
 _symmetry_equiv_pos_as_xyz
  1  'x, y, z'
loop_
 _atom_site_type_symbol
 _atom_site_label
 _atom_site_symmetry_multiplicity
 _atom_site_fract_x
 _atom_site_fract_y
 _atom_site_fract_z
 _atom_site_occupancy
  Rb  Rb0  1  0.86095042  0.72190284  0.96238423  1
  Rb  Rb1  1  0.86095042  0.13904958  0.96238423  1
  Rb  Rb2  1  0.13904958  0.27809716  0.46238423  1
  Rb  Rb3  1  0.27809716  0.13904958  0.96238423  1
  Rb  Rb4  1  0.13904958  0.86095042  0.46238423  1
  Rb  Rb5  1  0.72190284  0.86095042  0.46238423  1
  Ba  Ba0  1  0.47716519  0.95432839  0.77834827  1
  Ba  Ba1  1  0.47716519  0.52283481  0.77834827  1
  Ba  Ba2  1  0.52283481  0.04567161  0.27834827  1
  Ba  Ba3  1  0.04567161  0.52283481  0.77834827  1
  Ba  Ba4  1  0.52283481  0.47716519  0.27834827  1
  Ba  Ba5  1  0.95432839  0.47716519  0.27834827  1
  In  In0  1  0.66666700  0.33333300  0.65706568  1
  In  In1  1  0.33333300  0.66666700  0.15706568  1
  Sb  Sb0  1  0.66666700  0.33333300  0.00575573  1
  Sb  Sb1  1  0.33333300  0.66666700  0.50575573  1
  Sb  Sb2  1  0.80346697  0.60693395  0.54712836  1
  Sb  Sb3  1  0.80346697  0.19653303  0.54712836  1
  Sb  Sb4  1  0.19653303  0.39306605  0.04712836  1
  Sb  Sb5  1  0.39306605  0.19653303  0.54712836  1
  Sb  Sb6  1  0.19653303  0.80346697  0.04712836  1
  Sb  Sb7  1  0.60693395  0.80346697  0.04712836  1
loop_
_geom_bond_atom_site_label_1
_geom_bond_atom_site_label_2
_geom_bond_distance
_geom_bond_site_symmetry_2
Rb0 Sb7 3.539295 1_556
Rb0 Sb6 3.539317 1_656
Rb0 Sb2 3.693275 1_555
Rb0 Sb0 3.864873 1_556
Rb1 Sb4 3.539311 1_656
Rb1 Sb7 3.539311 1_546
Rb1 Sb3 3.693269 1_555
Rb1 Sb0 3.864844 1_556
Rb2 Sb5 3.539295 1_555
Rb2 Sb3 3.539317 1_455
Rb2 Sb4 3.693275 1_555
Rb2 Sb1 3.864873 1_555
Rb3 Sb4 3.539295 1_556
Rb3 Sb6 3.539317 1_546
Rb3 Sb5 3.693275 1_555
Rb3 Sb0 3.864873 1_556
Rb4 Sb2 3.539311 1_455
Rb4 Sb5 3.539311 1_565
Rb4 Sb6 3.693269 1_555
Rb4 Sb1 3.864844 1_555
Rb5 Sb2 3.539295 1_555
Rb5 Sb3 3.539317 1_565
Rb5 Sb7 3.693275 1_555
Rb5 Sb1 3.864873 1_555
Ba0 Sb7 3.592651 1_556
Ba0 Sb6 3.592666 1_556
Ba0 Sb1 3.664983 1_555
Ba0 Sb3 3.883645 1_565
Ba0 Sb5 3.883659 1_565
Ba1 Sb4 3.592666 1_556
Ba1 Sb7 3.592666 1_556
Ba1 Sb1 3.665006 1_555
Ba1 Sb2 3.883640 1_555
Ba1 Sb5 3.883640 1_555
Ba2 Sb5 3.592651 1_555
Ba2 Sb3 3.592666 1_555
Ba2 Sb0 3.664983 1_555
Ba2 Sb6 3.883645 1_545
Ba2 Sb7 3.883659 1_545
Ba3 Sb4 3.592651 1_556
Ba3 Sb6 3.592666 1_556
Ba3 Sb1 3.664983 1_555
Ba3 Sb3 3.883645 1_455
Ba3 Sb2 3.883659 1_455
Ba4 Sb2 3.592666 1_555
Ba4 Sb5 3.592666 1_555
Ba4 Sb0 3.665006 1_555
Ba4 Sb4 3.883640 1_555
Ba4 Sb7 3.883640 1_555
Ba5 Sb2 3.592651 1_555
Ba5 Sb3 3.592666 1_555
Ba5 Sb0 3.664983 1_555
Ba5 Sb6 3.883645 1_655
Ba5 Sb4 3.883659 1_655
In0 Sb3 2.864286 1_555
In0 Sb5 2.864295 1_555
In0 Sb2 2.864295 1_555
In0 Sb0 2.950252 1_556
In1 Sb6 2.864286 1_555
In1 Sb7 2.864295 1_555
In1 Sb4 2.864295 1_555
In1 Sb1 2.950252 1_555
