# generated using pymatgen
data_CsRbAs2Pd
_symmetry_space_group_name_H-M   'P 1'
_cell_length_a   7.97089805
_cell_length_b   7.97089732
_cell_length_c   6.33624210
_cell_angle_alpha   90.00000000
_cell_angle_beta   90.00000000
_cell_angle_gamma   126.79782810
_symmetry_Int_Tables_number   1
_chemical_formula_structural   CsRbAs2Pd
_chemical_formula_sum   'Cs2 Rb2 As4 Pd2'
_cell_volume   322.36314997
_cell_formula_units_Z   2
loop_
 _symmetry_equiv_pos_site_id
 _symmetry_equiv_pos_as_xyz
  1  'x, y, z'
loop_
 _atom_site_type_symbol
 _atom_site_label
 _atom_site_symmetry_multiplicity
 _atom_site_fract_x
 _atom_site_fract_y
 _atom_site_fract_z
 _atom_site_occupancy
  Cs  Cs0  1  0.40445173  0.59554827  0.25000000  1
  Cs  Cs1  1  0.59554827  0.40445173  0.75000000  1
  Rb  Rb0  1  0.79305593  0.20694407  0.25000000  1
  Rb  Rb1  1  0.20694407  0.79305593  0.75000000  1
  As  As0  1  0.06134696  0.27607560  0.75000000  1
  As  As1  1  0.93865304  0.72392440  0.25000000  1
  As  As2  1  0.27607560  0.06134696  0.25000000  1
  As  As3  1  0.72392440  0.93865304  0.75000000  1
  Pd  Pd0  1  0.00000000  0.00000000  0.00000000  1
  Pd  Pd1  1  0.00000000  0.00000000  0.50000000  1
loop_
_geom_bond_atom_site_label_1
_geom_bond_atom_site_label_2
_geom_bond_distance
_geom_bond_site_symmetry_2
As0 As3 2.408642 1_445
As0 Pd0 2.510332 1_556
As0 Pd1 2.510332 1_555
As0 Rb1 3.549455 1_555
As0 Rb0 3.674532 1_455
As0 Rb0 3.674532 1_456
As0 Cs1 3.736091 1_555
As0 Cs0 3.957007 1_556
As0 Cs0 3.957007 1_555
As1 As2 2.408642 1_665
As1 Pd0 2.510332 1_665
As1 Pd1 2.510332 1_665
As1 Rb0 3.549455 1_555
As1 Rb1 3.674532 1_654
As1 Rb1 3.674532 1_655
As1 Cs0 3.736091 1_555
As1 Cs1 3.957007 1_554
As1 Cs1 3.957007 1_555
As2 Pd0 2.510332 1_555
As2 Pd1 2.510332 1_555
As2 Rb0 3.549456 1_555
As2 Rb1 3.674532 1_544
As2 Rb1 3.674532 1_545
As2 Cs0 3.736091 1_555
As2 Cs1 3.957007 1_555
As2 Cs1 3.957007 1_554
As3 Pd0 2.510332 1_666
As3 Pd1 2.510332 1_665
As3 Rb1 3.549456 1_555
As3 Rb0 3.674532 1_566
As3 Rb0 3.674532 1_565
As3 Cs1 3.736091 1_555
As3 Cs0 3.957007 1_555
As3 Cs0 3.957007 1_556
Pd0 Rb0 3.348254 1_455
Pd0 Rb1 3.348254 1_544
Pd1 Rb1 3.348254 1_545
Pd1 Rb0 3.348254 1_455
