# generated using pymatgen
data_Ti8Al15Os5Pd2
_symmetry_space_group_name_H-M   'P 1'
_cell_length_a   8.63203012
_cell_length_b   8.63202891
_cell_length_c   8.63202935
_cell_angle_alpha   119.86638172
_cell_angle_beta   119.74493791
_cell_angle_gamma   90.33697428
_symmetry_Int_Tables_number   1
_chemical_formula_structural   Ti8Al15Os5Pd2
_chemical_formula_sum   'Ti8 Al15 Os5 Pd2'
_cell_volume   456.13020907
_cell_formula_units_Z   1
loop_
 _symmetry_equiv_pos_site_id
 _symmetry_equiv_pos_as_xyz
  1  'x, y, z'
loop_
 _atom_site_type_symbol
 _atom_site_label
 _atom_site_symmetry_multiplicity
 _atom_site_fract_x
 _atom_site_fract_y
 _atom_site_fract_z
 _atom_site_occupancy
  Ti  Ti0  1  0.78666378  0.29364794  0.07065733  1
  Ti  Ti1  1  0.22299061  0.29364794  0.50698416  1
  Ti  Ti2  1  0.20961359  0.70961359  0.50000000  1
  Ti  Ti3  1  0.22299061  0.71600545  0.92934267  1
  Ti  Ti4  1  0.78666378  0.71600545  0.49301584  1
  Ti  Ti5  1  0.78078889  0.28078889  0.50000000  1
  Ti  Ti6  1  0.37521417  0.12256126  0.74734709  1
  Ti  Ti7  1  0.37521417  0.62786609  0.25265291  1
  Al  Al0  1  0.99622820  0.49622820  0.50000000  1
  Al  Al1  1  0.15259359  0.34531845  0.19272286  1
  Al  Al2  1  0.15259359  0.95987073  0.80727714  1
  Al  Al3  1  0.15084215  0.34618833  0.80465482  1
  Al  Al4  1  0.54153152  0.34618833  0.19534518  1
  Al  Al5  1  0.84698167  0.65092962  0.80394896  1
  Al  Al6  1  0.84698167  0.04303371  0.19605104  1
  Al  Al7  1  0.84281426  0.65675409  0.18605917  1
  Al  Al8  1  0.47069492  0.65675409  0.81394083  1
  Al  Al9  1  0.38154773  0.12424473  0.25730300  1
  Al  Al10  1  0.86694273  0.12424473  0.74269700  1
  Al  Al11  1  0.62228514  0.87403469  0.25175155  1
  Al  Al12  1  0.62228514  0.37053359  0.74824845  1
  Al  Al13  1  0.61572186  0.87497900  0.74074285  1
  Al  Al14  1  0.13423315  0.87497900  0.25925715  1
  Os  Os0  1  0.00129041  0.99971540  0.50245233  1
  Os  Os1  1  0.49726306  0.99971540  0.99842499  1
  Os  Os2  1  0.49744280  0.49744280  1.00000000  1
  Os  Os3  1  0.49726306  0.49883807  0.49754767  1
  Os  Os4  1  0.00129041  0.49883807  0.00157501  1
  Pd  Pd0  1  0.99911793  0.99911793  0.00000000  1
  Pd  Pd1  1  0.50191044  0.00191044  0.50000000  1
loop_
_geom_bond_atom_site_label_1
_geom_bond_atom_site_label_2
_geom_bond_distance
_geom_bond_site_symmetry_2
Ti0 Ti6 2.929472 1_554
Ti1 Ti6 2.929472 1_555
Ti2 Ti7 2.939359 1_555
Ti2 Ti6 2.939360 1_565
Ti3 Ti7 2.929472 1_556
Ti4 Ti7 2.929472 1_555
Al0 Ti2 2.597238 1_655
Al0 Ti5 2.622237 1_555
Al0 Ti4 2.630805 1_555
Al0 Ti3 2.630811 1_655
Al0 Ti0 2.630811 1_555
Al0 Ti1 2.630811 1_655
Al1 Os4 2.498819 1_555
Al1 Os3 2.498834 1_555
Al1 Pd0 2.503671 1_445
Al1 Ti0 2.738515 1_455
Al1 Ti1 2.738527 1_555
Al1 Ti2 2.746889 1_555
Al2 Os0 2.498834 1_555
Al2 Os1 2.498835 1_555
Al2 Pd0 2.503657 1_456
Al2 Ti4 2.738517 1_455
Al2 Ti3 2.738523 1_555
Al2 Ti2 2.746901 1_555
Al3 Os2 2.500930 1_555
Al3 Os4 2.501768 1_556
Al3 Os0 2.501775 1_545
Al3 Ti5 2.757316 1_455
Al3 Ti3 2.761594 1_555
Al3 Ti1 2.761608 1_555
Al4 Os2 2.500925 1_554
Al4 Os3 2.501763 1_555
Al4 Os1 2.501778 1_544
Al4 Ti5 2.757327 1_555
Al4 Ti4 2.761601 1_555
Al4 Ti0 2.761619 1_555
Al5 Pd0 2.510875 1_556
Al5 Os4 2.530685 1_656
Al5 Os3 2.530693 1_555
Al5 Ti5 2.749669 1_555
Al5 Ti4 2.812255 1_555
Al5 Ti3 2.812255 1_655
Al6 Pd0 2.510866 1_545
Al6 Os1 2.530691 1_544
Al6 Os0 2.530699 1_645
Al6 Ti5 2.749673 1_555
Al6 Ti0 2.812247 1_555
Al6 Ti1 2.812252 1_655
Al7 Os4 2.507397 1_655
Al7 Os0 2.507405 1_655
Al7 Os2 2.521786 1_554
Al7 Ti0 2.728501 1_555
Al7 Ti4 2.728510 1_555
Al7 Ti2 2.795428 1_655
Al8 Os1 2.507405 1_555
Al8 Os3 2.507405 1_555
Al8 Os2 2.521778 1_555
Al8 Ti1 2.728501 1_555
Al8 Ti3 2.728502 1_555
Al8 Ti2 2.795434 1_555
Al9 Pd1 2.576800 1_555
Al9 Os3 2.642334 1_555
Al9 Os1 2.642335 1_544
Al9 Pd0 2.700118 1_445
Al9 Ti5 2.837831 1_555
Al9 Ti1 2.910053 1_555
Al9 Ti3 2.910059 1_544
Al10 Pd1 2.576808 1_555
Al10 Os0 2.642327 1_645
Al10 Os4 2.642334 1_656
Al10 Pd0 2.700118 1_546
Al10 Ti5 2.837830 1_555
Al10 Ti4 2.910059 1_545
Al10 Ti0 2.910059 1_556
Al11 Pd1 2.599461 1_565
Al11 Os2 2.655270 1_554
Al11 Os0 2.675470 1_655
Al11 Os1 2.675484 1_554
Al11 Ti4 2.851547 1_555
Al11 Ti3 2.851555 1_554
Al11 Ti5 2.886622 1_565
Al12 Pd1 2.599460 1_555
Al12 Os2 2.655285 1_555
Al12 Os3 2.675469 1_555
Al12 Os4 2.675470 1_656
Al12 Ti0 2.851554 1_556
Al12 Ti1 2.851555 1_555
Al12 Ti5 2.886607 1_555
Al13 Pd1 2.595906 1_565
Al13 Os3 2.652747 1_555
Al13 Os1 2.652747 1_555
Al13 Pd0 2.707389 1_556
Al13 Ti2 2.898799 1_555
Al13 Ti0 2.977476 1_566
Al13 Ti4 2.977477 1_555
Al14 Pd1 2.595927 1_565
Al14 Os0 2.652726 1_555
Al14 Os4 2.652747 1_555
Al14 Pd0 2.707388 1_455
Al14 Ti2 2.898796 1_555
Al14 Ti1 2.977473 1_565
Al14 Ti3 2.977495 1_554
Os0 Ti6 2.639701 1_565
Os0 Ti4 3.005789 1_455
Os0 Ti2 3.089168 1_555
Os0 Ti5 3.094413 1_465
Os0 Ti1 3.141842 1_565
Os1 Ti6 2.639701 1_565
Os1 Ti3 3.005788 1_555
Os1 Ti2 3.089167 1_555
Os1 Ti5 3.094413 1_566
Os1 Ti0 3.141842 1_566
Os2 Ti6 2.643649 1_555
Os2 Ti7 2.643649 1_556
Os2 Ti3 3.051028 1_555
Os2 Ti1 3.051034 1_555
Os2 Ti0 3.051034 1_556
Os2 Ti4 3.051035 1_556
Os3 Ti7 2.639694 1_555
Os3 Ti1 3.005782 1_555
Os3 Ti2 3.089168 1_555
Os3 Ti5 3.094413 1_555
Os3 Ti4 3.141837 1_555
Os4 Ti7 2.639701 1_555
Os4 Ti0 3.005782 1_455
Os4 Ti2 3.089168 1_555
Os4 Ti5 3.094413 1_454
Os4 Ti3 3.141836 1_554
Pd0 Ti1 3.133583 1_665
Pd0 Ti0 3.133583 1_565
Pd0 Ti4 3.133583 1_554
Pd0 Ti3 3.133589 1_654
Pd1 Ti6 2.637264 1_555
Pd1 Ti7 2.637271 1_545
