# generated using pymatgen
data_Y2MoRu3
_symmetry_space_group_name_H-M   'P 1'
_cell_length_a   5.13499842
_cell_length_b   5.13499866
_cell_length_c   5.13499894
_cell_angle_alpha   66.42339147
_cell_angle_beta   66.42339584
_cell_angle_gamma   66.42339432
_symmetry_Int_Tables_number   1
_chemical_formula_structural   Y2MoRu3
_chemical_formula_sum   'Y2 Mo1 Ru3'
_cell_volume   108.99853136
_cell_formula_units_Z   1
loop_
 _symmetry_equiv_pos_site_id
 _symmetry_equiv_pos_as_xyz
  1  'x, y, z'
loop_
 _atom_site_type_symbol
 _atom_site_label
 _atom_site_symmetry_multiplicity
 _atom_site_fract_x
 _atom_site_fract_y
 _atom_site_fract_z
 _atom_site_occupancy
  Y  Y0  1  0.12773730  0.12773730  0.12773730  1
  Y  Y1  1  0.87226270  0.87226270  0.87226270  1
  Mo  Mo0  1  0.50000000  0.50000000  0.50000000  1
  Ru  Ru0  1  0.50000000  0.00000000  0.50000000  1
  Ru  Ru1  1  0.00000000  0.50000000  0.50000000  1
  Ru  Ru2  1  0.50000000  0.50000000  0.00000000  1
loop_
_geom_bond_atom_site_label_1
_geom_bond_atom_site_label_2
_geom_bond_distance
_geom_bond_site_symmetry_2
Y0 Y1 3.048449 1_444
Y0 Y1 3.377996 1_544
Y0 Y1 3.377996 1_454
Y0 Y1 3.377996 1_445
Mo0 Ru1 2.567499 1_555
Mo0 Ru1 2.567499 1_655
Mo0 Ru0 2.567499 1_555
Mo0 Ru0 2.567499 1_565
Mo0 Ru2 2.567499 1_555
Mo0 Ru2 2.567499 1_556
Mo0 Y1 3.280779 1_545
Mo0 Y0 3.280779 1_565
Mo0 Y1 3.280779 1_554
Mo0 Y0 3.280779 1_556
Mo0 Y1 3.280779 1_455
Mo0 Y0 3.280779 1_655
Ru0 Ru1 2.812614 1_645
Ru0 Ru1 2.812614 1_555
Ru0 Ru2 2.812614 1_546
Ru0 Ru2 2.812614 1_555
Ru0 Y1 2.942020 1_545
Ru0 Y0 2.942020 1_555
Ru0 Y0 3.199071 1_655
Ru0 Y1 3.199071 1_445
Ru0 Y0 3.199071 1_556
Ru0 Y1 3.199071 1_544
Ru1 Ru2 2.812614 1_456
Ru1 Ru2 2.812614 1_555
Ru1 Y1 2.942020 1_455
Ru1 Y0 2.942020 1_555
Ru1 Y0 3.199071 1_565
Ru1 Y1 3.199071 1_445
Ru1 Y0 3.199071 1_556
Ru1 Y1 3.199071 1_454
Ru2 Y1 2.942020 1_554
Ru2 Y0 2.942020 1_555
Ru2 Y0 3.199071 1_655
Ru2 Y1 3.199071 1_454
Ru2 Y0 3.199071 1_565
Ru2 Y1 3.199071 1_544
