# generated using pymatgen
data_Rb10Zn4Sn4Se17
_symmetry_space_group_name_H-M   'P 1'
_cell_length_a   10.66328686
_cell_length_b   10.66328664
_cell_length_c   10.66328606
_cell_angle_alpha   90.82065976
_cell_angle_beta   90.82066195
_cell_angle_gamma   90.82066238
_symmetry_Int_Tables_number   1
_chemical_formula_structural   Rb10Zn4Sn4Se17
_chemical_formula_sum   'Rb10 Zn4 Sn4 Se17'
_cell_volume   1212.09952411
_cell_formula_units_Z   1
loop_
 _symmetry_equiv_pos_site_id
 _symmetry_equiv_pos_as_xyz
  1  'x, y, z'
loop_
 _atom_site_type_symbol
 _atom_site_label
 _atom_site_symmetry_multiplicity
 _atom_site_fract_x
 _atom_site_fract_y
 _atom_site_fract_z
 _atom_site_occupancy
  Rb  Rb0  1  0.99956612  0.50066565  0.99956612  1
  Rb  Rb1  1  0.99956612  0.99956612  0.50066565  1
  Rb  Rb2  1  0.50066565  0.99956612  0.99956612  1
  Rb  Rb3  1  0.03979073  0.50263773  0.50263773  1
  Rb  Rb4  1  0.50263773  0.03979073  0.50263773  1
  Rb  Rb5  1  0.50263773  0.50263773  0.03979073  1
  Rb  Rb6  1  0.32932874  0.68501244  0.32932874  1
  Rb  Rb7  1  0.32932874  0.32932874  0.68501244  1
  Rb  Rb8  1  0.68501244  0.32932874  0.32932874  1
  Rb  Rb9  1  0.66533804  0.66533804  0.66533804  1
  Zn  Zn0  1  0.86742594  0.86742594  0.86742594  1
  Zn  Zn1  1  0.13135846  0.87039165  0.13135846  1
  Zn  Zn2  1  0.87039165  0.13135846  0.13135846  1
  Zn  Zn3  1  0.13135846  0.13135846  0.87039165  1
  Sn  Sn0  1  0.21812654  0.77898261  0.77898261  1
  Sn  Sn1  1  0.77898261  0.21812654  0.77898261  1
  Sn  Sn2  1  0.77898261  0.77898261  0.21812654  1
  Sn  Sn3  1  0.22503173  0.22503173  0.22503173  1
  Se  Se0  1  0.00058531  0.00058531  0.00058531  1
  Se  Se1  1  0.34339742  0.64119366  0.64119366  1
  Se  Se2  1  0.64119366  0.34339742  0.64119366  1
  Se  Se3  1  0.64119366  0.64119366  0.34339742  1
  Se  Se4  1  0.36168443  0.36168443  0.36168443  1
  Se  Se5  1  0.98875861  0.72927894  0.72927894  1
  Se  Se6  1  0.72927894  0.98875861  0.72927894  1
  Se  Se7  1  0.72927894  0.72927894  0.98875861  1
  Se  Se8  1  0.00768536  0.73217088  0.26891897  1
  Se  Se9  1  0.27188525  0.99717907  0.27188525  1
  Se  Se10  1  0.26891897  0.73217088  0.00768536  1
  Se  Se11  1  0.99717907  0.27188525  0.27188525  1
  Se  Se12  1  0.73217088  0.00768536  0.26891897  1
  Se  Se13  1  0.73217088  0.26891897  0.00768536  1
  Se  Se14  1  0.00768536  0.26891897  0.73217088  1
  Se  Se15  1  0.26891897  0.00768536  0.73217088  1
  Se  Se16  1  0.27188525  0.27188525  0.99717907  1
loop_
_geom_bond_atom_site_label_1
_geom_bond_atom_site_label_2
_geom_bond_distance
_geom_bond_site_symmetry_2
Rb0 Se14 3.749076 1_655
Rb0 Se13 3.749076 1_556
Rb0 Se8 3.759604 1_656
Rb0 Se10 3.759604 1_656
Rb0 Se5 3.802970 1_555
Rb0 Se7 3.802970 1_555
Rb0 Se11 3.819355 1_556
Rb0 Se16 3.819355 1_655
Rb1 Se12 3.749076 1_565
Rb1 Se8 3.749076 1_655
Rb1 Se15 3.759604 1_665
Rb1 Se14 3.759604 1_665
Rb1 Se5 3.802970 1_555
Rb1 Se6 3.802970 1_555
Rb1 Se11 3.819355 1_565
Rb1 Se9 3.819355 1_655
Rb2 Se15 3.749076 1_565
Rb2 Se10 3.749076 1_556
Rb2 Se12 3.759604 1_566
Rb2 Se13 3.759604 1_566
Rb2 Se6 3.802970 1_555
Rb2 Se7 3.802970 1_555
Rb2 Se9 3.819355 1_556
Rb2 Se16 3.819355 1_565
Rb3 Se5 3.447524 1_455
Rb3 Se11 3.475325 1_455
Rb3 Se14 3.534579 1_555
Rb3 Se8 3.534579 1_555
Rb3 Se1 3.809235 1_555
Rb4 Se6 3.447524 1_545
Rb4 Se9 3.475325 1_545
Rb4 Se15 3.534579 1_555
Rb4 Se12 3.534579 1_555
Rb4 Se2 3.809235 1_555
Rb5 Se7 3.447524 1_554
Rb5 Se16 3.475325 1_554
Rb5 Se10 3.534579 1_555
Rb5 Se13 3.534579 1_555
Rb5 Se3 3.809235 1_555
Rb6 Se1 3.366310 1_555
Rb6 Se3 3.366310 1_555
Rb6 Se9 3.454976 1_555
Rb6 Se4 3.491378 1_555
Rb6 Se10 3.525135 1_555
Rb6 Se8 3.525135 1_555
Rb7 Se1 3.366310 1_555
Rb7 Se2 3.366310 1_555
Rb7 Se16 3.454976 1_555
Rb7 Se4 3.491378 1_555
Rb7 Se15 3.525135 1_555
Rb7 Se14 3.525135 1_555
Rb8 Se2 3.366310 1_555
Rb8 Se3 3.366310 1_555
Rb8 Se11 3.454976 1_555
Rb8 Se4 3.491378 1_555
Rb8 Se13 3.525135 1_555
Rb8 Se12 3.525135 1_555
Rb9 Se3 3.444582 1_555
Rb9 Se2 3.444582 1_555
Rb9 Se1 3.444582 1_555
Rb9 Se7 3.560258 1_555
Rb9 Se6 3.560258 1_555
Rb9 Se5 3.560258 1_555
Se0 Zn3 2.423152 1_554
Se0 Zn1 2.423152 1_545
Se0 Zn2 2.423152 1_455
Se0 Zn0 2.423887 1_444
Se1 Sn0 2.480433 1_555
Se2 Sn1 2.480433 1_555
Se3 Sn2 2.480433 1_555
Se4 Sn3 2.487475 1_555
Se5 Zn0 2.461913 1_555
Se5 Sn0 2.541951 1_655
Se6 Zn0 2.461913 1_555
Se6 Sn1 2.541951 1_565
Se7 Zn0 2.461913 1_555
Se7 Sn2 2.541950 1_556
Se8 Zn1 2.474830 1_555
Se8 Sn2 2.548463 1_455
Se9 Zn1 2.477560 1_555
Se9 Sn3 2.542609 1_565
Se10 Zn1 2.474830 1_555
Se10 Sn0 2.548463 1_554
Se11 Zn2 2.477560 1_555
Se11 Sn3 2.542609 1_655
Se12 Zn2 2.474830 1_555
Se12 Sn2 2.548463 1_545
Se13 Zn2 2.474830 1_555
Se13 Sn1 2.548463 1_554
Se14 Zn3 2.474830 1_555
Se14 Sn1 2.548463 1_455
Se15 Zn3 2.474830 1_555
Se15 Sn0 2.548463 1_545
Se16 Zn3 2.477561 1_555
Se16 Sn3 2.542609 1_556
