# generated using pymatgen
data_Ga2SbSe4
_symmetry_space_group_name_H-M   'P 1'
_cell_length_a   7.77627930
_cell_length_b   7.77627930
_cell_length_c   12.61718468
_cell_angle_alpha   90.00000000
_cell_angle_beta   90.00000000
_cell_angle_gamma   90.00000000
_symmetry_Int_Tables_number   1
_chemical_formula_structural   Ga2SbSe4
_chemical_formula_sum   'Ga8 Sb4 Se16'
_cell_volume   762.96771505
_cell_formula_units_Z   4
loop_
 _symmetry_equiv_pos_site_id
 _symmetry_equiv_pos_as_xyz
  1  'x, y, z'
loop_
 _atom_site_type_symbol
 _atom_site_label
 _atom_site_symmetry_multiplicity
 _atom_site_fract_x
 _atom_site_fract_y
 _atom_site_fract_z
 _atom_site_occupancy
  Ga  Ga0  1  0.50000000  0.00000000  0.75000000  1
  Ga  Ga1  1  0.00000000  0.50000000  0.75000000  1
  Ga  Ga2  1  0.00000000  0.50000000  0.00000000  1
  Ga  Ga3  1  0.00000000  0.50000000  0.25000000  1
  Ga  Ga4  1  0.50000000  0.00000000  0.50000000  1
  Ga  Ga5  1  0.50000000  0.00000000  0.25000000  1
  Ga  Ga6  1  0.00000000  0.50000000  0.50000000  1
  Ga  Ga7  1  0.50000000  0.00000000  0.00000000  1
  Sb  Sb0  1  0.00000000  0.00000000  0.12105768  1
  Sb  Sb1  1  0.00000000  0.00000000  0.87894232  1
  Sb  Sb2  1  0.50000000  0.50000000  0.37894232  1
  Sb  Sb3  1  0.50000000  0.50000000  0.62105768  1
  Se  Se0  1  0.66607942  0.83098381  0.87587428  1
  Se  Se1  1  0.16607942  0.33098381  0.62412572  1
  Se  Se2  1  0.83392058  0.66901619  0.62412572  1
  Se  Se3  1  0.16607942  0.66901619  0.37587428  1
  Se  Se4  1  0.66901619  0.16607942  0.62412572  1
  Se  Se5  1  0.83098381  0.33392058  0.87587428  1
  Se  Se6  1  0.66901619  0.83392058  0.37587428  1
  Se  Se7  1  0.66607942  0.16901619  0.12412572  1
  Se  Se8  1  0.16901619  0.33392058  0.12412572  1
  Se  Se9  1  0.33098381  0.83392058  0.62412572  1
  Se  Se10  1  0.16901619  0.66607942  0.87587428  1
  Se  Se11  1  0.83392058  0.33098381  0.37587428  1
  Se  Se12  1  0.83098381  0.66607942  0.12412572  1
  Se  Se13  1  0.33392058  0.16901619  0.87587428  1
  Se  Se14  1  0.33098381  0.16607942  0.37587428  1
  Se  Se15  1  0.33392058  0.83098381  0.12412572  1
loop_
_geom_bond_atom_site_label_1
_geom_bond_atom_site_label_2
_geom_bond_distance
_geom_bond_site_symmetry_2
Ga0 Se0 2.432625 1_545
Ga0 Se13 2.432625 1_555
Ga0 Se4 2.432625 1_555
Ga0 Se9 2.432625 1_545
Ga1 Se10 2.432625 1_555
Ga1 Se5 2.432625 1_455
Ga1 Se2 2.432625 1_455
Ga1 Se1 2.432625 1_555
Ga2 Se8 2.418279 1_555
Ga2 Se12 2.418279 1_455
Ga2 Se10 2.418279 1_554
Ga2 Se5 2.418279 1_454
Ga3 Se3 2.432625 1_555
Ga3 Se11 2.432625 1_455
Ga3 Se8 2.432625 1_555
Ga3 Se12 2.432625 1_455
Ga4 Se4 2.418279 1_555
Ga4 Se9 2.418279 1_545
Ga4 Se6 2.418279 1_545
Ga4 Se14 2.418279 1_555
Ga5 Se6 2.432625 1_545
Ga5 Se14 2.432625 1_555
Ga5 Se7 2.432625 1_555
Ga5 Se15 2.432625 1_545
Ga6 Se2 2.418279 1_455
Ga6 Se1 2.418279 1_555
Ga6 Se3 2.418279 1_555
Ga6 Se11 2.418279 1_455
Ga7 Se7 2.418279 1_555
Ga7 Se15 2.418279 1_545
Ga7 Se13 2.418279 1_554
Ga7 Se0 2.418279 1_544
Sb0 Se8 2.910596 1_555
Sb0 Se15 2.910596 1_545
Sb0 Se7 2.910596 1_455
Sb0 Se12 2.910596 1_445
Sb0 Sb1 3.054814 1_554
Sb1 Se13 2.910596 1_555
Sb1 Se5 2.910596 1_455
Sb1 Se10 2.910596 1_545
Sb1 Se0 2.910596 1_445
Sb2 Se6 2.910596 1_555
Sb2 Se11 2.910596 1_555
Sb2 Se3 2.910596 1_555
Sb2 Se14 2.910596 1_555
Sb2 Sb3 3.054814 1_555
Sb3 Se2 2.910596 1_555
Sb3 Se9 2.910596 1_555
Sb3 Se4 2.910596 1_555
Sb3 Se1 2.910596 1_555
