# generated using pymatgen
data_Ta8Hg(PbO5)5
_symmetry_space_group_name_H-M   'P 1'
_cell_length_a   7.47844903
_cell_length_b   7.46603197
_cell_length_c   10.51809827
_cell_angle_alpha   90.01007541
_cell_angle_beta   90.06997855
_cell_angle_gamma   89.95695421
_symmetry_Int_Tables_number   1
_chemical_formula_structural   Ta8Hg(PbO5)5
_chemical_formula_sum   'Ta8 Hg1 Pb5 O25'
_cell_volume   587.27045774
_cell_formula_units_Z   1
loop_
 _symmetry_equiv_pos_site_id
 _symmetry_equiv_pos_as_xyz
  1  'x, y, z'
loop_
 _atom_site_type_symbol
 _atom_site_label
 _atom_site_symmetry_multiplicity
 _atom_site_fract_x
 _atom_site_fract_y
 _atom_site_fract_z
 _atom_site_occupancy
  Ta  Ta0  1  0.74816849  0.00495969  0.12479998  1
  Ta  Ta1  1  0.49874431  0.25596912  0.37394088  1
  Ta  Ta2  1  0.24708981  0.00724904  0.12540773  1
  Ta  Ta3  1  0.24568093  0.50593741  0.61783772  1
  Ta  Ta4  1  0.99722601  0.25686019  0.87168124  1
  Ta  Ta5  1  0.99783822  0.75638753  0.87113882  1
  Ta  Ta6  1  0.75246097  0.50748894  0.61784667  1
  Ta  Ta7  1  0.49868708  0.75914859  0.37569029  1
  Hg  Hg0  1  0.07460532  0.01979034  0.45440187  1
  Pb  Pb0  1  0.76299801  0.01804442  0.61260450  1
  Pb  Pb1  1  0.74581327  0.50500937  0.12853628  1
  Pb  Pb2  1  0.47869722  0.25747903  0.86757849  1
  Pb  Pb3  1  0.48276327  0.75347806  0.86352922  1
  Pb  Pb4  1  0.24224689  0.51842944  0.13647145  1
  O  O0  1  0.31971733  0.32192805  0.49932116  1
  O  O1  1  0.99872156  0.00583824  0.17509611  1
  O  O2  1  0.98978466  0.00512840  0.81336776  1
  O  O3  1  0.81207230  0.31045494  0.74403982  1
  O  O4  1  0.80508528  0.20119501  0.99783146  1
  O  O5  1  0.80512039  0.81083491  0.99782822  1
  O  O6  1  0.68558880  0.31259664  0.50165142  1
  O  O7  1  0.50215012  0.50657338  0.69756775  1
  O  O8  1  0.49656654  0.00681541  0.05484274  1
  O  O9  1  0.49901030  0.50556590  0.30119638  1
  O  O10  1  0.48689738  0.50796364  0.00033349  1
  O  O11  1  0.31028150  0.19077725  0.24997741  1
  O  O12  1  0.31196699  0.81535259  0.24659357  1
  O  O13  1  0.31945989  0.69014593  0.49914453  1
  O  O14  1  0.19415526  0.19762891  0.99605336  1
  O  O15  1  0.19151289  0.32239553  0.75473135  1
  O  O16  1  0.19343972  0.80779650  0.99890889  1
  O  O17  1  0.00011598  0.50550748  0.56756932  1
  O  O18  1  0.99214025  0.50509520  0.94008555  1
  O  O19  1  0.81094109  0.69439478  0.74724255  1
  O  O20  1  0.68190313  0.19724696  0.24341975  1
  O  O21  1  0.68179331  0.81479922  0.24332059  1
  O  O22  1  0.68607758  0.69387515  0.49898270  1
  O  O23  1  0.50912022  0.00604728  0.43479340  1
  O  O24  1  0.19145373  0.68971854  0.75463659  1
loop_
_geom_bond_atom_site_label_1
_geom_bond_atom_site_label_2
_geom_bond_distance
_geom_bond_site_symmetry_2
Hg0 Pb0 2.865143 1_455
O0 Ta3 1.935927 1_555
O0 Ta1 1.943512 1_555
O1 Ta2 1.930187 1_655
O1 Ta0 1.946390 1_555
O2 Ta5 1.954953 1_545
O2 Ta4 1.977687 1_555
O2 Pb0 2.708485 1_555
O3 Ta4 1.968412 1_555
O3 Ta6 2.030462 1_555
O3 Pb0 2.609768 1_555
O3 Pb2 2.840796 1_555
O4 Ta4 2.000938 1_555
O4 Ta0 2.028344 1_556
O4 Pb1 2.688954 1_556
O4 Pb2 2.828761 1_555
O5 Ta5 2.005406 1_555
O5 Ta0 2.016268 1_566
O5 Pb1 2.702661 1_556
O5 Pb3 2.825487 1_555
O6 Ta6 1.964680 1_555
O6 Ta1 1.982850 1_555
O6 Pb0 2.555502 1_555
O7 Ta6 2.052110 1_555
O7 Ta3 2.092382 1_555
O7 Pb3 2.542703 1_555
O7 Pb2 2.586400 1_555
O8 Ta2 2.008754 1_555
O8 Ta0 2.019552 1_555
O8 Pb2 2.720309 1_554
O8 Pb3 2.763288 1_544
O9 Ta1 2.014589 1_555
O9 Ta7 2.048860 1_555
O9 Pb4 2.586483 1_555
O9 Pb1 2.590921 1_555
O10 Pb4 2.325959 1_555
O10 Pb3 2.330695 1_554
O10 Pb2 2.334505 1_554
O10 Pb1 2.358302 1_555
O11 Ta2 1.953561 1_555
O11 Ta1 1.979825 1_555
O11 Pb4 2.768765 1_555
O12 Ta2 1.977587 1_565
O12 Ta7 1.991080 1_555
O12 Pb4 2.554836 1_555
O13 Ta7 1.937410 1_555
O13 Ta3 1.938529 1_555
O14 Ta2 2.006661 1_556
O14 Ta4 2.017493 1_455
O14 Pb2 2.561732 1_555
O14 Pb4 2.836541 1_556
O15 Ta4 1.967048 1_455
O15 Ta3 2.029299 1_555
O15 Pb2 2.499744 1_555
O16 Ta5 2.022131 1_455
O16 Ta2 2.036579 1_566
O16 Pb3 2.622904 1_555
O16 Pb4 2.625413 1_556
O17 Ta3 1.910427 1_555
O17 Ta6 1.926760 1_455
O18 Ta4 1.988323 1_555
O18 Ta5 2.012052 1_555
O18 Pb1 2.707639 1_556
O18 Pb4 2.786726 1_656
O19 Ta5 1.965275 1_555
O19 Ta6 1.997410 1_555
O19 Pb3 2.778400 1_555
O19 Pb0 2.823391 1_565
O20 Ta0 1.965464 1_555
O20 Ta1 1.989112 1_555
O20 Pb1 2.640514 1_555
O21 Ta0 1.954304 1_565
O21 Ta7 1.997975 1_555
O21 Pb1 2.652377 1_555
O22 Ta6 1.934949 1_555
O22 Ta7 1.969223 1_555
O22 Pb0 2.759743 1_565
O23 Ta7 1.946840 1_545
O23 Ta1 1.974195 1_555
O23 Pb0 2.664967 1_555
O24 Ta5 1.961860 1_455
O24 Ta3 2.029134 1_555
O24 Pb3 2.505941 1_555
