# generated using pymatgen
data_LiSc3As6Rh7
_symmetry_space_group_name_H-M   'P 1'
_cell_length_a   7.01239410
_cell_length_b   7.05754481
_cell_length_c   7.01239474
_cell_angle_alpha   109.60170896
_cell_angle_beta   109.34042211
_cell_angle_gamma   109.60170300
_symmetry_Int_Tables_number   1
_chemical_formula_structural   LiSc3As6Rh7
_chemical_formula_sum   'Li1 Sc3 As6 Rh7'
_cell_volume   266.72425373
_cell_formula_units_Z   1
loop_
 _symmetry_equiv_pos_site_id
 _symmetry_equiv_pos_as_xyz
  1  'x, y, z'
loop_
 _atom_site_type_symbol
 _atom_site_label
 _atom_site_symmetry_multiplicity
 _atom_site_fract_x
 _atom_site_fract_y
 _atom_site_fract_z
 _atom_site_occupancy
  Li  Li0  1  0.00000000  0.50000000  0.00000000  1
  Sc  Sc0  1  0.00000000  0.00000000  0.50000000  1
  Sc  Sc1  1  0.50000000  0.00000000  0.00000000  1
  Sc  Sc2  1  0.50000000  0.50000000  0.50000000  1
  As  As0  1  0.68955507  0.68043921  1.00000000  1
  As  As1  1  0.31044493  0.31956079  0.00000000  1
  As  As2  1  1.00000000  0.68043921  0.68955507  1
  As  As3  1  0.00000000  0.31956079  0.31044493  1
  As  As4  1  0.68955507  0.00911586  0.68955507  1
  As  As5  1  0.31044493  0.99088414  0.31044493  1
  Rh  Rh0  1  0.00000000  0.00000000  0.00000000  1
  Rh  Rh1  1  0.25259353  0.50000000  0.74740647  1
  Rh  Rh2  1  0.74740647  0.24740647  0.49481194  1
  Rh  Rh3  1  0.49481194  0.24740647  0.74740647  1
  Rh  Rh4  1  0.50518806  0.75259353  0.25259353  1
  Rh  Rh5  1  0.74740647  0.50000000  0.25259353  1
  Rh  Rh6  1  0.25259353  0.75259353  0.50518806  1
loop_
_geom_bond_atom_site_label_1
_geom_bond_atom_site_label_2
_geom_bond_distance
_geom_bond_site_symmetry_2
Li0 Rh5 2.890161 1_455
Li0 Rh1 2.890161 1_554
Li0 Rh4 2.890166 1_555
Li0 Rh3 2.890166 1_454
Li0 Rh6 2.890166 1_555
Li0 Rh2 2.890166 1_454
As0 Rh3 2.511542 1_555
As0 Rh5 2.511543 1_556
As0 Rh4 2.534085 1_556
As0 Rh1 2.534091 1_555
As0 Rh0 2.555656 1_666
As0 Li0 2.867218 1_656
As0 Sc0 2.909198 1_666
As0 Sc2 2.909198 1_555
As0 Sc1 2.977371 1_566
As1 Rh4 2.511542 1_555
As1 Rh1 2.511543 1_554
As1 Rh3 2.534085 1_554
As1 Rh5 2.534091 1_555
As1 Rh0 2.555656 1_555
As1 Li0 2.867218 1_555
As1 Sc0 2.909198 1_554
As1 Sc2 2.909198 1_555
As1 Sc1 2.977371 1_555
As2 Rh2 2.511542 1_555
As2 Rh1 2.511543 1_655
As2 Rh6 2.534085 1_655
As2 Rh5 2.534091 1_555
As2 Rh0 2.555656 1_666
As2 Li0 2.867218 1_656
As2 Sc1 2.909197 1_666
As2 Sc2 2.909198 1_555
As2 Sc0 2.977371 1_665
As3 Rh6 2.511542 1_555
As3 Rh5 2.511543 1_455
As3 Rh2 2.534085 1_455
As3 Rh1 2.534091 1_555
As3 Rh0 2.555656 1_555
As3 Li0 2.867218 1_555
As3 Sc1 2.909197 1_455
As3 Sc2 2.909198 1_555
As3 Sc0 2.977371 1_555
As4 Rh3 2.511549 1_555
As4 Rh2 2.511549 1_555
As4 Rh6 2.534092 1_545
As4 Rh4 2.534092 1_545
As4 Rh0 2.555656 1_656
As4 Li0 2.867218 1_656
As4 Sc0 2.909198 1_655
As4 Sc1 2.909198 1_556
As4 Sc2 2.977371 1_545
As5 Rh4 2.511549 1_555
As5 Rh6 2.511549 1_555
As5 Rh2 2.534092 1_565
As5 Rh3 2.534092 1_565
As5 Rh0 2.555656 1_565
As5 Li0 2.867218 1_555
As5 Sc0 2.909198 1_565
As5 Sc1 2.909198 1_565
As5 Sc2 2.977371 1_565
Rh1 Sc2 2.830811 1_555
Rh1 Sc1 2.874485 1_566
Rh1 Sc0 2.874485 1_555
Rh2 Sc1 2.830805 1_555
Rh2 Sc2 2.874485 1_555
Rh2 Sc0 2.874485 1_655
Rh3 Sc0 2.830805 1_555
Rh3 Sc2 2.874486 1_555
Rh3 Sc1 2.874486 1_556
Rh4 Sc0 2.830805 1_665
Rh4 Sc2 2.874486 1_555
Rh4 Sc1 2.874486 1_565
Rh5 Sc2 2.830811 1_555
Rh5 Sc1 2.874485 1_555
Rh5 Sc0 2.874485 1_665
Rh6 Sc1 2.830805 1_566
Rh6 Sc2 2.874485 1_555
Rh6 Sc0 2.874485 1_565
