# generated using pymatgen
data_Ti8VBi4As
_symmetry_space_group_name_H-M   'P 1'
_cell_length_a   7.87915757
_cell_length_b   7.87952820
_cell_length_c   7.87915860
_cell_angle_alpha   95.78046139
_cell_angle_beta   95.77731458
_cell_angle_gamma   142.99455998
_symmetry_Int_Tables_number   1
_chemical_formula_structural   Ti8VBi4As
_chemical_formula_sum   'Ti8 V1 Bi4 As1'
_cell_volume   279.21417500
_cell_formula_units_Z   1
loop_
 _symmetry_equiv_pos_site_id
 _symmetry_equiv_pos_as_xyz
  1  'x, y, z'
loop_
 _atom_site_type_symbol
 _atom_site_label
 _atom_site_symmetry_multiplicity
 _atom_site_fract_x
 _atom_site_fract_y
 _atom_site_fract_z
 _atom_site_occupancy
  Ti  Ti0  1  0.70736584  0.59076049  0.28408743  1
  Ti  Ti1  1  0.30669298  0.42332780  0.71593043  1
  Ti  Ti2  1  0.59082238  0.30672523  0.88336028  1
  Ti  Ti3  1  0.07663605  0.19327477  0.28409715  1
  Ti  Ti4  1  0.79260263  0.07667220  0.88336518  1
  Ti  Ti5  1  0.42324262  0.70729468  0.11658357  1
  Ti  Ti6  1  0.90928888  0.79270532  0.71594794  1
  Ti  Ti7  1  0.19332694  0.90923951  0.11660535  1
  V  V0  1  0.74999510  0.75000000  0.99999510  1
  Bi  Bi0  1  0.14032639  0.64030828  0.78067895  1
  Bi  Bi1  1  0.35968455  0.14036711  0.50007248  1
  Bi  Bi2  1  0.85970538  0.35963289  0.21931644  1
  Bi  Bi3  1  0.64036966  0.85969172  0.50001810  1
  As  As0  1  0.24994161  0.25000000  0.99994161  1
loop_
_geom_bond_atom_site_label_1
_geom_bond_atom_site_label_2
_geom_bond_distance
_geom_bond_site_symmetry_2
Ti0 V0 2.596468 1_554
Ti1 V0 2.596379 1_555
Ti2 V0 2.596560 1_555
Ti3 V0 2.596559 1_444
Ti4 V0 2.596379 1_545
Ti5 V0 2.596163 1_554
Ti6 V0 2.596164 1_555
Ti7 V0 2.596467 1_454
Bi0 Ti1 2.905167 1_555
Bi0 Ti6 2.905790 1_455
Bi0 Ti5 2.983965 1_556
Bi0 Ti7 2.984082 1_556
Bi0 Ti2 3.044097 1_455
Bi0 Ti4 3.044550 1_565
Bi0 Ti4 3.101813 1_455
Bi0 Ti2 3.102309 1_565
Bi1 Ti2 2.904784 1_555
Bi1 Ti7 2.906081 1_545
Bi1 Ti1 2.983961 1_555
Bi1 Ti3 2.984476 1_555
Bi1 Ti6 3.044922 1_555
Bi1 Ti0 3.044966 1_445
Bi1 Ti6 3.101315 1_445
Bi1 Ti0 3.102063 1_555
Bi2 Ti3 2.904792 1_655
Bi2 Ti0 2.906082 1_555
Bi2 Ti4 2.983955 1_554
Bi2 Ti2 2.984476 1_554
Bi2 Ti5 3.044922 1_545
Bi2 Ti7 3.044963 1_655
Bi2 Ti5 3.101311 1_655
Bi2 Ti7 3.102063 1_545
Bi3 Ti4 2.905166 1_565
Bi3 Ti5 2.905789 1_555
Bi3 Ti6 2.983971 1_555
Bi3 Ti0 2.984088 1_555
Bi3 Ti3 3.044105 1_665
Bi3 Ti1 3.044550 1_555
Bi3 Ti1 3.101816 1_665
Bi3 Ti3 3.102308 1_555
As0 V0 2.500507 1_555
As0 V0 2.500507 1_445
As0 Ti4 2.629544 1_455
As0 Ti1 2.629545 1_555
As0 Ti5 2.629587 1_556
As0 Ti6 2.629587 1_445
As0 Ti3 2.630466 1_556
As0 Ti2 2.630470 1_555
As0 Ti0 2.630605 1_556
As0 Ti7 2.630605 1_546
