# generated using pymatgen
data_NaRuBr18
_symmetry_space_group_name_H-M   'P 1'
_cell_length_a   9.11266418
_cell_length_b   9.11266282
_cell_length_c   9.11266308
_cell_angle_alpha   97.26622146
_cell_angle_beta   97.26621953
_cell_angle_gamma   97.26621927
_symmetry_Int_Tables_number   1
_chemical_formula_structural   NaRuBr18
_chemical_formula_sum   'Na1 Ru1 Br18'
_cell_volume   736.76915297
_cell_formula_units_Z   1
loop_
 _symmetry_equiv_pos_site_id
 _symmetry_equiv_pos_as_xyz
  1  'x, y, z'
loop_
 _atom_site_type_symbol
 _atom_site_label
 _atom_site_symmetry_multiplicity
 _atom_site_fract_x
 _atom_site_fract_y
 _atom_site_fract_z
 _atom_site_occupancy
  Na  Na0  1  0.50000000  0.50000000  0.50000000  1
  Ru  Ru0  1  0.00000000  0.00000000  0.00000000  1
  Br  Br0  1  0.27039791  0.98999239  0.06161695  1
  Br  Br1  1  0.06161695  0.27039791  0.98999239  1
  Br  Br2  1  0.98999239  0.06161695  0.27039791  1
  Br  Br3  1  0.72960209  0.01000761  0.93838305  1
  Br  Br4  1  0.93838305  0.72960209  0.01000761  1
  Br  Br5  1  0.01000761  0.93838305  0.72960209  1
  Br  Br6  1  0.65134748  0.27164624  0.08146425  1
  Br  Br7  1  0.08146425  0.65134748  0.27164624  1
  Br  Br8  1  0.27164624  0.08146425  0.65134748  1
  Br  Br9  1  0.34865252  0.72835376  0.91853575  1
  Br  Br10  1  0.91853575  0.34865252  0.72835376  1
  Br  Br11  1  0.72835376  0.91853575  0.34865252  1
  Br  Br12  1  0.49698279  0.19894642  0.58056974  1
  Br  Br13  1  0.58056974  0.49698279  0.19894642  1
  Br  Br14  1  0.19894642  0.58056974  0.49698279  1
  Br  Br15  1  0.50301721  0.80105358  0.41943026  1
  Br  Br16  1  0.41943026  0.50301721  0.80105358  1
  Br  Br17  1  0.80105358  0.41943026  0.50301721  1
loop_
_geom_bond_atom_site_label_1
_geom_bond_atom_site_label_2
_geom_bond_distance
_geom_bond_site_symmetry_2
Br0 Ru0 2.472838 1_565
Br0 Br9 2.787829 1_554
Br1 Ru0 2.472837 1_556
Br1 Br10 2.787829 1_455
Br2 Ru0 2.472837 1_655
Br3 Ru0 2.472838 1_656
Br3 Br6 2.787829 1_556
Br4 Ru0 2.472837 1_665
Br4 Br7 2.787829 1_655
Br5 Ru0 2.472837 1_566
Br5 Br8 2.787829 1_565
Br10 Br17 2.394209 1_555
Br11 Br15 2.394209 1_555
Br11 Br2 2.787829 1_565
Br12 Br8 2.394209 1_555
Br12 Na0 2.926021 1_555
Br13 Br6 2.394209 1_555
Br13 Na0 2.926021 1_555
Br14 Br7 2.394209 1_555
Br14 Na0 2.926021 1_555
Br15 Na0 2.926021 1_555
Br16 Br9 2.394209 1_555
Br16 Na0 2.926021 1_555
Br17 Na0 2.926021 1_555
