# generated using pymatgen
data_Y3Lu5(CdNi)2
_symmetry_space_group_name_H-M   'P 1'
_cell_length_a   9.38701388
_cell_length_b   9.38701381
_cell_length_c   9.38701475
_cell_angle_alpha   59.99999667
_cell_angle_beta   59.99999690
_cell_angle_gamma   59.99999370
_symmetry_Int_Tables_number   1
_chemical_formula_structural   Y3Lu5(CdNi)2
_chemical_formula_sum   'Y6 Lu10 Cd4 Ni4'
_cell_volume   584.88081694
_cell_formula_units_Z   2
loop_
 _symmetry_equiv_pos_site_id
 _symmetry_equiv_pos_as_xyz
  1  'x, y, z'
loop_
 _atom_site_type_symbol
 _atom_site_label
 _atom_site_symmetry_multiplicity
 _atom_site_fract_x
 _atom_site_fract_y
 _atom_site_fract_z
 _atom_site_occupancy
  Y  Y0  1  0.18984438  0.81015562  0.81015562  1
  Y  Y1  1  0.81015562  0.18984438  0.18984438  1
  Y  Y2  1  0.81015562  0.18984438  0.81015562  1
  Y  Y3  1  0.18984438  0.81015562  0.18984438  1
  Y  Y4  1  0.81015562  0.81015562  0.18984438  1
  Y  Y5  1  0.18984438  0.18984438  0.81015562  1
  Lu  Lu0  1  0.59719628  0.59719628  0.59719628  1
  Lu  Lu1  1  0.59719628  0.59719628  0.20841216  1
  Lu  Lu2  1  0.59719628  0.20841216  0.59719628  1
  Lu  Lu3  1  0.20841216  0.59719628  0.59719628  1
  Lu  Lu4  1  0.06380825  0.43619175  0.43619175  1
  Lu  Lu5  1  0.43619175  0.06380825  0.06380825  1
  Lu  Lu6  1  0.43619175  0.06380825  0.43619175  1
  Lu  Lu7  1  0.06380825  0.43619175  0.06380825  1
  Lu  Lu8  1  0.43619175  0.43619175  0.06380825  1
  Lu  Lu9  1  0.06380825  0.06380825  0.43619175  1
  Cd  Cd0  1  0.82972560  0.82972560  0.82972560  1
  Cd  Cd1  1  0.82972560  0.82972560  0.51082121  1
  Cd  Cd2  1  0.82972560  0.51082121  0.82972560  1
  Cd  Cd3  1  0.51082121  0.82972560  0.82972560  1
  Ni  Ni0  1  0.39232243  0.39232243  0.39232243  1
  Ni  Ni1  1  0.39232243  0.39232243  0.82303272  1
  Ni  Ni2  1  0.39232243  0.82303272  0.39232243  1
  Ni  Ni3  1  0.82303272  0.39232243  0.39232243  1
loop_
_geom_bond_atom_site_label_1
_geom_bond_atom_site_label_2
_geom_bond_distance
_geom_bond_site_symmetry_2
Y0 Y2 3.564143 1_465
Y0 Y5 3.564144 1_565
Y0 Y4 3.564144 1_456
Y0 Y3 3.564144 1_556
Y1 Y3 3.564143 1_645
Y1 Y4 3.564144 1_545
Y1 Y5 3.564144 1_654
Y1 Y2 3.564144 1_554
Y2 Y4 3.564144 1_546
Y2 Y5 3.564144 1_655
Y3 Y5 3.564144 1_564
Y3 Y4 3.564144 1_455
Lu0 Ni2 2.726859 1_555
Lu0 Ni3 2.726859 1_555
Lu0 Ni1 2.726859 1_555
Lu0 Y2 3.364846 1_555
Lu0 Y0 3.364846 1_555
Lu0 Y4 3.364846 1_555
Lu1 Ni2 2.726853 1_555
Lu1 Ni3 2.726853 1_555
Lu1 Ni0 2.726860 1_555
Lu1 Y4 3.364841 1_555
Lu1 Y1 3.364849 1_555
Lu1 Y3 3.364849 1_555
Lu2 Ni3 2.726853 1_555
Lu2 Ni1 2.726853 1_555
Lu2 Ni0 2.726860 1_555
Lu2 Y2 3.364841 1_555
Lu2 Y5 3.364849 1_555
Lu2 Y1 3.364849 1_555
Lu3 Ni2 2.726853 1_555
Lu3 Ni1 2.726853 1_555
Lu3 Ni0 2.726860 1_555
Lu3 Y0 3.364841 1_555
Lu3 Y5 3.364849 1_555
Lu3 Y3 3.364849 1_555
Lu4 Ni0 2.734695 1_555
Lu4 Ni3 2.734696 1_455
Lu4 Y4 3.517067 1_455
Lu4 Y3 3.517067 1_555
Lu4 Y2 3.517067 1_455
Lu4 Y5 3.517067 1_555
Lu5 Ni1 2.734695 1_554
Lu5 Ni2 2.734696 1_545
Lu5 Y4 3.517067 1_545
Lu5 Y2 3.517067 1_554
Lu5 Y3 3.517067 1_545
Lu5 Y5 3.517067 1_554
Lu6 Ni0 2.734695 1_555
Lu6 Ni2 2.734696 1_545
Lu6 Y4 3.517067 1_545
Lu6 Y1 3.517067 1_555
Lu6 Y0 3.517067 1_545
Lu6 Y5 3.517067 1_555
Lu7 Ni1 2.734695 1_554
Lu7 Ni3 2.734696 1_455
Lu7 Y4 3.517067 1_455
Lu7 Y0 3.517067 1_554
Lu7 Y1 3.517067 1_455
Lu7 Y5 3.517067 1_554
Lu8 Ni1 2.734696 1_554
Lu8 Ni0 2.734696 1_555
Lu8 Y3 3.517067 1_555
Lu8 Y0 3.517067 1_554
Lu8 Y2 3.517067 1_554
Lu8 Y1 3.517067 1_555
Lu9 Ni3 2.734695 1_455
Lu9 Ni2 2.734695 1_545
Lu9 Y0 3.517067 1_545
Lu9 Y3 3.517067 1_545
Lu9 Y1 3.517067 1_455
Lu9 Y2 3.517067 1_455
Cd0 Cd2 2.993560 1_555
Cd0 Cd3 2.993560 1_555
Cd0 Cd1 2.993560 1_555
Cd0 Y2 3.207276 1_565
Cd0 Y0 3.207276 1_655
Cd0 Y4 3.207276 1_556
Cd0 Lu2 3.378043 1_565
Cd0 Lu3 3.378043 1_655
Cd0 Lu1 3.378043 1_556
Cd0 Lu7 3.449189 1_656
Cd0 Lu5 3.449189 1_566
Cd0 Lu9 3.449189 1_665
Cd1 Cd2 2.993560 1_555
Cd1 Cd3 2.993560 1_555
Cd1 Y4 3.207257 1_555
Cd1 Y1 3.207267 1_565
Cd1 Y3 3.207267 1_655
Cd1 Lu0 3.378032 1_555
Cd1 Lu2 3.378056 1_565
Cd1 Lu3 3.378056 1_655
Cd1 Lu4 3.449181 1_655
Cd1 Lu6 3.449181 1_565
Cd1 Lu9 3.449197 1_665
Cd2 Cd3 2.993560 1_555
Cd2 Y2 3.207257 1_555
Cd2 Y5 3.207267 1_655
Cd2 Y1 3.207267 1_556
Cd2 Lu0 3.378032 1_555
Cd2 Lu3 3.378056 1_655
Cd2 Lu1 3.378056 1_556
Cd2 Lu8 3.449181 1_556
Cd2 Lu4 3.449181 1_655
Cd2 Lu7 3.449197 1_656
Cd3 Y0 3.207257 1_555
Cd3 Y5 3.207267 1_565
Cd3 Y3 3.207267 1_556
Cd3 Lu0 3.378032 1_555
Cd3 Lu2 3.378056 1_565
Cd3 Lu1 3.378056 1_556
Cd3 Lu8 3.449181 1_556
Cd3 Lu6 3.449181 1_565
Cd3 Lu5 3.449197 1_566
Ni0 Y3 3.363284 1_555
Ni0 Y1 3.363284 1_555
Ni0 Y5 3.363284 1_555
Ni1 Y0 3.363284 1_555
Ni1 Y2 3.363284 1_555
Ni1 Y5 3.363284 1_555
Ni2 Y4 3.363284 1_555
Ni2 Y0 3.363284 1_555
Ni2 Y3 3.363284 1_555
Ni3 Y4 3.363284 1_555
Ni3 Y2 3.363284 1_555
Ni3 Y1 3.363284 1_555
