# generated using pymatgen
data_Zr4TiZnBi3
_symmetry_space_group_name_H-M   'P 1'
_cell_length_a   8.74751086
_cell_length_b   8.74751227
_cell_length_c   5.86046383
_cell_angle_alpha   90.00000000
_cell_angle_beta   90.00000000
_cell_angle_gamma   120.00000585
_symmetry_Int_Tables_number   1
_chemical_formula_structural   Zr4TiZnBi3
_chemical_formula_sum   'Zr8 Ti2 Zn2 Bi6'
_cell_volume   388.35745509
_cell_formula_units_Z   2
loop_
 _symmetry_equiv_pos_site_id
 _symmetry_equiv_pos_as_xyz
  1  'x, y, z'
loop_
 _atom_site_type_symbol
 _atom_site_label
 _atom_site_symmetry_multiplicity
 _atom_site_fract_x
 _atom_site_fract_y
 _atom_site_fract_z
 _atom_site_occupancy
  Zr  Zr0  1  0.66666700  0.33333300  0.50000000  1
  Zr  Zr1  1  0.33333300  0.66666700  0.50000000  1
  Zr  Zr2  1  0.73649951  0.73649951  0.25410368  1
  Zr  Zr3  1  0.26350049  0.00000000  0.25410368  1
  Zr  Zr4  1  0.00000000  0.26350049  0.25410368  1
  Zr  Zr5  1  0.26350049  0.26350049  0.74589632  1
  Zr  Zr6  1  0.73649951  1.00000000  0.74589632  1
  Zr  Zr7  1  0.00000000  0.73649951  0.74589632  1
  Ti  Ti0  1  0.33333300  0.66666700  0.00000000  1
  Ti  Ti1  1  0.66666700  0.33333300  0.00000000  1
  Zn  Zn0  1  0.00000000  0.00000000  0.00000000  1
  Zn  Zn1  1  0.00000000  0.00000000  0.50000000  1
  Bi  Bi0  1  0.38829073  0.38829073  0.24273257  1
  Bi  Bi1  1  0.61170927  0.00000000  0.24273257  1
  Bi  Bi2  1  0.00000000  0.61170927  0.24273257  1
  Bi  Bi3  1  0.61170927  0.61170927  0.75726743  1
  Bi  Bi4  1  0.38829073  0.00000000  0.75726743  1
  Bi  Bi5  1  0.00000000  0.38829073  0.75726743  1
loop_
_geom_bond_atom_site_label_1
_geom_bond_atom_site_label_2
_geom_bond_distance
_geom_bond_site_symmetry_2
Ti0 Zr1 2.930232 1_555
Ti0 Zr1 2.930232 1_554
Ti1 Zr0 2.930232 1_555
Ti1 Zr0 2.930232 1_554
Zn0 Zr5 2.744179 1_554
Zn0 Zr2 2.744179 1_445
Zn0 Zr3 2.744179 1_555
Zn0 Zr6 2.744179 1_444
Zn0 Zr4 2.744179 1_555
Zn0 Zr7 2.744179 1_544
Zn0 Zn1 2.930232 1_555
Zn0 Zn1 2.930232 1_554
Zn1 Zr5 2.718377 1_555
Zn1 Zr2 2.718377 1_445
Zn1 Zr3 2.718377 1_555
Zn1 Zr6 2.718377 1_445
Zn1 Zr4 2.718378 1_555
Zn1 Zr7 2.718378 1_545
Bi0 Zr4 3.004174 1_555
Bi0 Zr3 3.004174 1_555
Bi0 Zr2 3.046689 1_555
Bi0 Ti1 3.058604 1_555
Bi0 Ti0 3.058605 1_555
Bi0 Zr0 3.099139 1_555
Bi0 Zr1 3.099139 1_555
Bi0 Zr5 3.109589 1_554
Bi0 Zr5 3.144338 1_555
Bi1 Zr4 3.004174 1_655
Bi1 Zr2 3.004174 1_545
Bi1 Zr3 3.046689 1_555
Bi1 Ti1 3.058597 1_555
Bi1 Ti0 3.058599 1_545
Bi1 Zr0 3.099131 1_555
Bi1 Zr1 3.099134 1_545
Bi1 Zr6 3.109589 1_544
Bi1 Zr6 3.144338 1_545
Bi2 Zr3 3.004174 1_565
Bi2 Zr2 3.004174 1_455
Bi2 Zr4 3.046689 1_555
Bi2 Ti0 3.058597 1_555
Bi2 Ti1 3.058599 1_455
Bi2 Zr1 3.099131 1_555
Bi2 Zr0 3.099134 1_455
Bi2 Zr7 3.109589 1_554
Bi2 Zr7 3.144338 1_555
Bi3 Zr7 3.004174 1_655
Bi3 Zr6 3.004174 1_555
Bi3 Zr5 3.046689 1_555
Bi3 Ti0 3.058604 1_556
Bi3 Ti1 3.058605 1_556
Bi3 Zr1 3.099139 1_555
Bi3 Zr0 3.099139 1_555
Bi3 Zr2 3.109589 1_556
Bi3 Zr2 3.144338 1_555
Bi4 Zr7 3.004174 1_545
Bi4 Zr5 3.004174 1_555
Bi4 Zr6 3.046689 1_545
Bi4 Ti0 3.058597 1_546
Bi4 Ti1 3.058599 1_556
Bi4 Zr1 3.099131 1_545
Bi4 Zr0 3.099134 1_555
Bi4 Zr3 3.109589 1_556
Bi4 Zr3 3.144338 1_555
Bi5 Zr6 3.004174 1_445
Bi5 Zr5 3.004174 1_555
Bi5 Zr7 3.046689 1_555
Bi5 Ti1 3.058597 1_456
Bi5 Ti0 3.058599 1_556
Bi5 Zr0 3.099131 1_455
Bi5 Zr1 3.099134 1_555
Bi5 Zr4 3.109589 1_556
Bi5 Zr4 3.144338 1_555
