# generated using pymatgen
data_Li4Hf3Nb3N10
_symmetry_space_group_name_H-M   'P 1'
_cell_length_a   5.60613274
_cell_length_b   5.60613225
_cell_length_c   9.84265891
_cell_angle_alpha   86.77547975
_cell_angle_beta   86.77547875
_cell_angle_gamma   44.91230147
_symmetry_Int_Tables_number   1
_chemical_formula_structural   Li4Hf3Nb3N10
_chemical_formula_sum   'Li4 Hf3 Nb3 N10'
_cell_volume   217.99799141
_cell_formula_units_Z   1
loop_
 _symmetry_equiv_pos_site_id
 _symmetry_equiv_pos_as_xyz
  1  'x, y, z'
loop_
 _atom_site_type_symbol
 _atom_site_label
 _atom_site_symmetry_multiplicity
 _atom_site_fract_x
 _atom_site_fract_y
 _atom_site_fract_z
 _atom_site_occupancy
  Li  Li0  1  0.65190863  0.65190863  0.45210346  1
  Li  Li1  1  0.46603046  0.46603046  0.84998559  1
  Li  Li2  1  0.54166993  0.54166993  0.14580690  1
  Li  Li3  1  0.37173348  0.37173348  0.55668424  1
  Hf  Hf0  1  0.05039291  0.05039291  0.64559985  1
  Hf  Hf1  1  0.94240737  0.94240737  0.35170347  1
  Hf  Hf2  1  0.75008475  0.75008475  0.73467931  1
  Nb  Nb0  1  0.24513058  0.24513058  0.26909896  1
  Nb  Nb1  1  0.16077942  0.16077942  0.96364731  1
  Nb  Nb2  1  0.85052488  0.85052488  0.03248811  1
  N  N0  1  0.57184070  0.57184070  0.65337733  1
  N  N1  1  0.41709325  0.41709325  0.34170415  1
  N  N2  1  0.87007574  0.87007574  0.55892524  1
  N  N3  1  0.04563630  0.04563630  0.14216593  1
  N  N4  1  0.94718031  0.94718031  0.85482546  1
  N  N5  1  0.12847842  0.12847842  0.43326571  1
  N  N6  1  0.33726388  0.33726388  0.05457276  1
  N  N7  1  0.66219001  0.66219001  0.95202318  1
  N  N8  1  0.75806773  0.75806773  0.24948487  1
  N  N9  1  0.23151025  0.23151025  0.75786017  1
loop_
_geom_bond_atom_site_label_1
_geom_bond_atom_site_label_2
_geom_bond_distance
_geom_bond_site_symmetry_2
Li0 N0 2.100693 1_555
Li0 N5 2.164356 1_655
Li0 N5 2.164356 1_565
Li0 N8 2.218168 1_555
Li0 N2 2.550566 1_555
Li1 N4 2.150564 1_545
Li1 N4 2.150564 1_455
Li1 N0 2.165328 1_555
Li1 N7 2.321355 1_555
Li1 N6 2.346950 1_556
Li1 N9 2.644975 1_555
Li2 N3 2.142062 1_565
Li2 N3 2.142062 1_655
Li2 N7 2.215313 1_554
Li2 N1 2.254136 1_555
Li2 N6 2.350345 1_555
Li2 N8 2.519509 1_555
Li3 N1 2.139441 1_555
Li3 N2 2.141581 1_545
Li3 N2 2.141581 1_455
Li3 N0 2.333556 1_555
Li3 N9 2.383655 1_555
Hf0 N2 2.100705 1_445
Hf0 N0 2.154752 1_455
Hf0 N0 2.154752 1_545
Hf0 N5 2.194689 1_555
Hf0 N9 2.235063 1_555
Hf0 N4 2.261987 1_445
Hf1 N2 2.129717 1_555
Hf1 N5 2.133162 1_665
Hf1 N1 2.160386 1_655
Hf1 N1 2.160386 1_565
Hf1 N8 2.212422 1_555
Hf1 N3 2.264765 1_665
Hf2 N0 2.057085 1_555
Hf2 N2 2.067999 1_555
Hf2 N9 2.160877 1_655
Hf2 N9 2.160878 1_565
Hf2 N7 2.273475 1_555
Hf2 N4 2.421465 1_555
N1 Nb0 1.959802 1_555
N3 Nb1 2.062943 1_554
N3 Nb2 2.349158 1_445
N3 Nb0 2.479612 1_555
N4 Nb2 1.961572 1_556
N4 Nb1 2.516872 1_665
N5 Nb0 1.958129 1_555
N6 Nb1 2.084336 1_554
N6 Nb2 2.155952 1_455
N6 Nb2 2.155953 1_545
N6 Nb0 2.263740 1_555
N7 Nb1 2.144466 1_565
N7 Nb1 2.144466 1_655
N7 Nb2 2.150323 1_556
N8 Nb0 2.153538 1_655
N8 Nb0 2.153538 1_565
N8 Nb2 2.287033 1_555
N9 Nb1 2.111654 1_555
