# generated using pymatgen
data_InSnIr3S2
_symmetry_space_group_name_H-M   'P 1'
_cell_length_a   5.60912111
_cell_length_b   5.60912151
_cell_length_c   5.60912186
_cell_angle_alpha   60.70010299
_cell_angle_beta   60.70010369
_cell_angle_gamma   60.70009599
_symmetry_Int_Tables_number   1
_chemical_formula_structural   InSnIr3S2
_chemical_formula_sum   'In1 Sn1 Ir3 S2'
_cell_volume   126.75886605
_cell_formula_units_Z   1
loop_
 _symmetry_equiv_pos_site_id
 _symmetry_equiv_pos_as_xyz
  1  'x, y, z'
loop_
 _atom_site_type_symbol
 _atom_site_label
 _atom_site_symmetry_multiplicity
 _atom_site_fract_x
 _atom_site_fract_y
 _atom_site_fract_z
 _atom_site_occupancy
  In  In0  1  0.50000000  0.50000000  0.50000000  1
  Sn  Sn0  1  0.00000000  0.00000000  0.00000000  1
  Ir  Ir0  1  0.50000000  0.50000000  0.00000000  1
  Ir  Ir1  1  0.00000000  0.50000000  0.50000000  1
  Ir  Ir2  1  0.50000000  0.00000000  0.50000000  1
  S  S0  1  0.78655116  0.78655116  0.78655116  1
  S  S1  1  0.21344884  0.21344884  0.21344884  1
loop_
_geom_bond_atom_site_label_1
_geom_bond_atom_site_label_2
_geom_bond_distance
_geom_bond_site_symmetry_2
In0 Ir1 2.804561 1_655
In0 Ir1 2.804561 1_555
In0 Ir2 2.804561 1_565
In0 Ir2 2.804561 1_555
In0 Ir0 2.804561 1_555
In0 Ir0 2.804561 1_556
Ir0 S0 2.315563 1_554
Ir0 S1 2.315563 1_555
Ir0 Sn0 2.834186 1_565
Ir0 Sn0 2.834186 1_655
Ir1 S0 2.315563 1_455
Ir1 S1 2.315563 1_555
Ir1 Sn0 2.834186 1_565
Ir1 Sn0 2.834186 1_556
Ir2 S0 2.315563 1_545
Ir2 S1 2.315563 1_555
Ir2 Sn0 2.834186 1_655
Ir2 Sn0 2.834186 1_556
S0 Sn0 2.917064 1_666
S1 Sn0 2.917064 1_555
