# generated using pymatgen
data_Li2MoO3
_symmetry_space_group_name_H-M   'P 1'
_cell_length_a   4.93061079
_cell_length_b   4.93061079
_cell_length_c   5.22413399
_cell_angle_alpha   80.57401795
_cell_angle_beta   80.57401795
_cell_angle_gamma   116.90376037
_symmetry_Int_Tables_number   1
_chemical_formula_structural   Li2MoO3
_chemical_formula_sum   'Li4 Mo2 O6'
_cell_volume   107.56629548
_cell_formula_units_Z   2
loop_
 _symmetry_equiv_pos_site_id
 _symmetry_equiv_pos_as_xyz
  1  'x, y, z'
loop_
 _atom_site_type_symbol
 _atom_site_label
 _atom_site_symmetry_multiplicity
 _atom_site_fract_x
 _atom_site_fract_y
 _atom_site_fract_z
 _atom_site_occupancy
  Li  Li0  1  0.66186755  0.33813245  0.50000000  1
  Li  Li1  1  0.33813245  0.66186755  0.50000000  1
  Li  Li2  1  0.00000000  -0.00000000  0.50000000  1
  Li  Li3  1  0.50000000  0.50000000  -0.00000000  1
  Mo  Mo0  1  0.14177636  0.85822364  -0.00000000  1
  Mo  Mo1  1  0.85822364  0.14177636  -0.00000000  1
  O  O0  1  0.58301328  0.92879601  0.77610182  1
  O  O1  1  0.41698672  0.07120399  0.22389818  1
  O  O2  1  0.25911675  0.25911675  0.72872490  1
  O  O3  1  0.07120399  0.41698672  0.22389818  1
  O  O4  1  0.92879601  0.58301328  0.77610182  1
  O  O5  1  0.74088325  0.74088325  0.27127510  1
loop_
_geom_bond_atom_site_label_1
_geom_bond_atom_site_label_2
_geom_bond_distance
_geom_bond_site_symmetry_2
Li0 O2 1.973102 1_555
Li0 O5 1.973102 1_555
Li0 O3 2.111335 1_655
Li0 O0 2.111335 1_545
Li0 O1 2.241572 1_555
Li0 O4 2.241572 1_555
Li1 O2 1.973102 1_555
Li1 O5 1.973102 1_555
Li1 O1 2.111335 1_565
Li1 O4 2.111335 1_455
Li1 O3 2.241572 1_555
Li1 O0 2.241572 1_555
Li2 O2 2.053091 1_555
Li2 O5 2.053091 1_445
Li2 O3 2.154164 1_555
Li2 O4 2.154164 1_445
Li2 O1 2.154164 1_555
Li2 O0 2.154164 1_445
Li3 O0 2.062924 1_554
Li3 O4 2.062924 1_554
Li3 O1 2.062924 1_555
Li3 O3 2.062924 1_555
Li3 O5 2.157707 1_555
Li3 O2 2.157707 1_554
Mo0 O1 1.986165 1_565
Mo0 O4 1.986165 1_454
Mo0 O2 2.007288 1_564
Mo0 O5 2.007288 1_455
Mo0 O0 2.137848 1_554
Mo0 O3 2.137848 1_555
Mo1 O3 1.986165 1_655
Mo1 O0 1.986165 1_544
Mo1 O2 2.007288 1_654
Mo1 O5 2.007288 1_545
Mo1 O4 2.137848 1_554
Mo1 O1 2.137848 1_555
