# generated using pymatgen
data_Rb2Be3SiP4
_symmetry_space_group_name_H-M   'P 1'
_cell_length_a   7.67070969
_cell_length_b   7.67070939
_cell_length_c   5.21548370
_cell_angle_alpha   90.00000000
_cell_angle_beta   90.00000000
_cell_angle_gamma   140.25079839
_symmetry_Int_Tables_number   1
_chemical_formula_structural   Rb2Be3SiP4
_chemical_formula_sum   'Rb2 Be3 Si1 P4'
_cell_volume   196.22643547
_cell_formula_units_Z   1
loop_
 _symmetry_equiv_pos_site_id
 _symmetry_equiv_pos_as_xyz
  1  'x, y, z'
loop_
 _atom_site_type_symbol
 _atom_site_label
 _atom_site_symmetry_multiplicity
 _atom_site_fract_x
 _atom_site_fract_y
 _atom_site_fract_z
 _atom_site_occupancy
  Rb  Rb0  1  0.50000000  0.00000000  0.24921243  1
  Rb  Rb1  1  0.00000000  0.50000000  0.75078757  1
  Be  Be0  1  0.50000000  0.50000000  0.50000000  1
  Be  Be1  1  0.50000000  0.50000000  0.00000000  1
  Be  Be2  1  0.00000000  0.00000000  0.50000000  1
  Si  Si0  1  0.00000000  0.00000000  0.00000000  1
  P  P0  1  0.66117451  0.84008190  0.75054288  1
  P  P1  1  0.15991810  0.33882549  0.24945712  1
  P  P2  1  0.84008190  0.66117451  0.24945712  1
  P  P3  1  0.33882549  0.15991810  0.75054288  1
loop_
_geom_bond_atom_site_label_1
_geom_bond_atom_site_label_2
_geom_bond_distance
_geom_bond_site_symmetry_2
Be0 P0 2.254283 1_555
Be0 P3 2.254283 1_555
Be0 P1 2.254283 1_555
Be0 P2 2.254283 1_555
Be1 P0 2.251005 1_554
Be1 P3 2.251005 1_554
Be1 P1 2.251005 1_555
Be1 P2 2.251005 1_555
Be1 Si0 2.607755 1_665
Be1 Si0 2.607755 1_555
Be2 P1 2.250490 1_555
Be2 P2 2.250490 1_445
Be2 P3 2.250490 1_555
Be2 P0 2.250490 1_445
Be2 Si0 2.607742 1_556
Be2 Si0 2.607742 1_555
P0 Si0 2.247206 1_666
P0 Rb0 3.482739 1_566
P0 Rb1 3.485484 1_665
P0 Rb1 3.490383 1_555
P0 Rb0 3.493115 1_565
P1 Si0 2.247206 1_555
P1 Rb1 3.482739 1_554
P1 Rb0 3.485484 1_455
P1 Rb0 3.490383 1_565
P1 Rb1 3.493115 1_555
P2 Si0 2.247206 1_665
P2 Rb1 3.482739 1_654
P2 Rb0 3.485484 1_665
P2 Rb0 3.490383 1_555
P2 Rb1 3.493115 1_655
P3 Si0 2.247206 1_556
P3 Rb0 3.482739 1_556
P3 Rb1 3.485484 1_545
P3 Rb1 3.490383 1_655
P3 Rb0 3.493115 1_555
