# generated using pymatgen
data_Mg4As6Ir5Ru2
_symmetry_space_group_name_H-M   'P 1'
_cell_length_a   7.01122841
_cell_length_b   7.01122875
_cell_length_c   7.01122850
_cell_angle_alpha   109.42095199
_cell_angle_beta   109.57180361
_cell_angle_gamma   109.42094746
_symmetry_Int_Tables_number   1
_chemical_formula_structural   Mg4As6Ir5Ru2
_chemical_formula_sum   'Mg4 As6 Ir5 Ru2'
_cell_volume   265.31359826
_cell_formula_units_Z   1
loop_
 _symmetry_equiv_pos_site_id
 _symmetry_equiv_pos_as_xyz
  1  'x, y, z'
loop_
 _atom_site_type_symbol
 _atom_site_label
 _atom_site_symmetry_multiplicity
 _atom_site_fract_x
 _atom_site_fract_y
 _atom_site_fract_z
 _atom_site_occupancy
  Mg  Mg0  1  0.99964095  0.99928091  0.49964095  1
  Mg  Mg1  1  0.50035905  0.00071909  0.00035905  1
  Mg  Mg2  1  0.99964095  0.50000000  0.00035905  1
  Mg  Mg3  1  0.50035905  0.50000000  0.49964095  1
  As  As0  1  0.68364942  0.68776879  0.99587963  1
  As  As1  1  0.30811084  0.31223121  0.99587963  1
  As  As2  1  0.00412037  0.68776879  0.69188916  1
  As  As3  1  0.00412037  0.31223121  0.31635058  1
  As  As4  1  0.68911642  0.00000000  0.68911642  1
  As  As5  1  0.31088358  1.00000000  0.31088358  1
  Ir  Ir0  1  0.74870744  0.24947558  0.49923086  1
  Ir  Ir1  1  0.50076914  0.24947558  0.75024472  1
  Ir  Ir2  1  0.50076914  0.75052442  0.25129256  1
  Ir  Ir3  1  0.75000000  0.50000000  0.25000000  1
  Ir  Ir4  1  0.24975528  0.75052442  0.49923086  1
  Ru  Ru0  1  0.00000000  0.00000000  0.00000000  1
  Ru  Ru1  1  0.25000000  0.50000000  0.75000000  1
loop_
_geom_bond_atom_site_label_1
_geom_bond_atom_site_label_2
_geom_bond_distance
_geom_bond_site_symmetry_2
Mg0 Ru1 2.868217 1_665
Mg1 Ru1 2.868217 1_544
Mg2 Ru1 2.868211 1_654
Mg3 Ru1 2.868211 1_555
As0 Ru1 2.503288 1_555
As0 Ru0 2.529567 1_666
As0 Ir1 2.536541 1_555
As0 Ir2 2.536542 1_556
As0 Ir3 2.556522 1_556
As0 Mg3 2.884977 1_555
As0 Mg1 2.884989 1_566
As0 Mg2 2.926264 1_556
As0 Mg0 2.926269 1_556
As1 Ru1 2.503282 1_555
As1 Ru0 2.529571 1_556
As1 Ir2 2.536541 1_556
As1 Ir1 2.536542 1_555
As1 Ir3 2.556523 1_556
As1 Mg2 2.884977 1_456
As1 Mg0 2.884978 1_445
As1 Mg1 2.926264 1_556
As1 Mg3 2.926270 1_556
As2 Ru1 2.503282 1_555
As2 Ru0 2.529570 1_566
As2 Ir0 2.536541 1_455
As2 Ir4 2.536542 1_555
As2 Ir3 2.556523 1_455
As2 Mg2 2.884977 1_456
As2 Mg1 2.884978 1_566
As2 Mg0 2.926264 1_455
As2 Mg3 2.926270 1_455
As3 Ru1 2.503288 1_555
As3 Ru0 2.529566 1_555
As3 Ir4 2.536541 1_555
As3 Ir0 2.536542 1_455
As3 Ir3 2.556522 1_455
As3 Mg3 2.884977 1_555
As3 Mg0 2.884989 1_445
As3 Mg2 2.926264 1_455
As3 Mg1 2.926269 1_455
As4 Ru0 2.513748 1_656
As4 Ir1 2.530551 1_555
As4 Ir2 2.530557 1_545
As4 Ir4 2.538056 1_545
As4 Ir0 2.538057 1_555
As4 Mg1 2.906101 1_556
As4 Mg3 2.906101 1_545
As4 Mg2 2.906102 1_556
As4 Mg0 2.906102 1_545
As5 Ru0 2.513748 1_565
As5 Ir4 2.530551 1_555
As5 Ir0 2.530557 1_565
As5 Ir1 2.538056 1_565
As5 Ir2 2.538057 1_555
As5 Mg0 2.906100 1_455
As5 Mg3 2.906101 1_565
As5 Mg2 2.906102 1_455
As5 Mg1 2.906102 1_565
Ir0 Mg1 2.854992 1_555
Ir0 Mg3 2.854997 1_555
Ir0 Mg0 2.867887 1_545
Ir0 Mg2 2.867887 1_556
Ir1 Mg1 2.854986 1_556
Ir1 Mg2 2.854992 1_556
Ir1 Mg3 2.867887 1_555
Ir1 Mg0 2.867887 1_445
Ir2 Mg0 2.854992 1_555
Ir2 Mg3 2.854998 1_555
Ir2 Mg1 2.867887 1_565
Ir2 Mg2 2.867887 1_455
Ir3 Mg0 2.859979 1_555
Ir3 Mg1 2.859979 1_555
Ir3 Mg3 2.859984 1_555
Ir3 Mg2 2.859984 1_555
Ir4 Mg0 2.854986 1_455
Ir4 Mg2 2.854992 1_455
Ir4 Mg3 2.867887 1_555
Ir4 Mg1 2.867887 1_566
