# generated using pymatgen
data_Mo(Pt3Rh)2
_symmetry_space_group_name_H-M   'P 1'
_cell_length_a   6.22640909
_cell_length_b   6.22640699
_cell_length_c   6.16480636
_cell_angle_alpha   95.63427818
_cell_angle_beta   95.63428220
_cell_angle_gamma   143.66687854
_symmetry_Int_Tables_number   1
_chemical_formula_structural   Mo(Pt3Rh)2
_chemical_formula_sum   'Mo1 Pt6 Rh2'
_cell_volume   134.39760500
_cell_formula_units_Z   1
loop_
 _symmetry_equiv_pos_site_id
 _symmetry_equiv_pos_as_xyz
  1  'x, y, z'
loop_
 _atom_site_type_symbol
 _atom_site_label
 _atom_site_symmetry_multiplicity
 _atom_site_fract_x
 _atom_site_fract_y
 _atom_site_fract_z
 _atom_site_occupancy
  Mo  Mo0  1  0.00000000  0.00000000  0.00000000  1
  Pt  Pt0  1  0.66030554  0.33969446  0.00000000  1
  Pt  Pt1  1  0.33969446  0.66030554  1.00000000  1
  Pt  Pt2  1  0.00398044  0.32796723  0.33194767  1
  Pt  Pt3  1  0.99601956  0.67203277  0.66805233  1
  Pt  Pt4  1  0.67203277  0.99601956  0.66805233  1
  Pt  Pt5  1  0.32796723  0.00398044  0.33194767  1
  Rh  Rh0  1  0.33927830  0.33927830  0.67855859  1
  Rh  Rh1  1  0.66072170  0.66072170  0.32144141  1
loop_
_geom_bond_atom_site_label_1
_geom_bond_atom_site_label_2
_geom_bond_distance
_geom_bond_site_symmetry_2
Mo0 Rh1 2.702956 1_445
Mo0 Rh0 2.702956 1_554
Mo0 Rh1 2.702962 1_555
Mo0 Rh0 2.702962 1_444
Mo0 Pt0 2.714074 1_445
Mo0 Pt1 2.714074 1_554
Mo0 Pt0 2.714075 1_555
Mo0 Pt1 2.714075 1_444
Mo0 Pt2 2.728790 1_555
Mo0 Pt3 2.728790 1_444
Mo0 Pt5 2.728790 1_555
Mo0 Pt4 2.728790 1_444
Pt0 Rh1 2.671163 1_555
Pt0 Rh0 2.671164 1_554
Pt0 Pt5 2.746162 1_555
Pt0 Pt3 2.746162 1_554
Pt0 Pt3 2.746163 1_444
Pt0 Pt5 2.746163 1_665
Pt0 Pt4 2.862394 1_544
Pt0 Pt2 2.862394 1_655
Pt0 Pt1 2.876411 1_544
Pt0 Pt1 2.876412 1_654
Pt1 Rh0 2.671163 1_555
Pt1 Rh1 2.671164 1_556
Pt1 Pt4 2.746162 1_555
Pt1 Pt2 2.746162 1_556
Pt1 Pt2 2.746163 1_666
Pt1 Pt4 2.746163 1_445
Pt1 Pt5 2.862394 1_566
Pt1 Pt3 2.862394 1_455
Pt2 Rh1 2.728758 1_445
Pt2 Rh1 2.728765 1_555
Pt2 Pt4 2.763347 1_445
Pt2 Pt4 2.763347 1_555
Pt2 Rh0 2.790509 1_555
Pt2 Pt5 2.847065 1_565
Pt2 Pt5 2.847066 1_455
Pt2 Pt3 2.864401 1_455
Pt3 Rh0 2.728758 1_665
Pt3 Rh0 2.728765 1_555
Pt3 Pt5 2.763347 1_665
Pt3 Pt5 2.763347 1_555
Pt3 Rh1 2.790509 1_555
Pt3 Pt4 2.847065 1_545
Pt3 Pt4 2.847066 1_655
Pt4 Rh0 2.728759 1_665
Pt4 Rh0 2.728763 1_555
Pt4 Rh1 2.790509 1_555
Pt4 Pt5 2.864401 1_565
Pt5 Rh1 2.728759 1_445
Pt5 Rh1 2.728763 1_555
Pt5 Rh0 2.790509 1_555
Rh0 Rh1 2.852149 1_445
Rh0 Rh1 2.852160 1_555
