# generated using pymatgen
data_KRb3HgCl6
_symmetry_space_group_name_H-M   'P 1'
_cell_length_a   8.84968375
_cell_length_b   8.84968307
_cell_length_c   8.84968344
_cell_angle_alpha   90.65321035
_cell_angle_beta   90.65321200
_cell_angle_gamma   90.65320999
_symmetry_Int_Tables_number   1
_chemical_formula_structural   KRb3HgCl6
_chemical_formula_sum   'K2 Rb6 Hg2 Cl12'
_cell_volume   692.94358198
_cell_formula_units_Z   2
loop_
 _symmetry_equiv_pos_site_id
 _symmetry_equiv_pos_as_xyz
  1  'x, y, z'
loop_
 _atom_site_type_symbol
 _atom_site_label
 _atom_site_symmetry_multiplicity
 _atom_site_fract_x
 _atom_site_fract_y
 _atom_site_fract_z
 _atom_site_occupancy
  K  K0  1  0.25000000  0.25000000  0.25000000  1
  K  K1  1  0.75000000  0.75000000  0.75000000  1
  Rb  Rb0  1  0.37225748  0.12774252  0.75000000  1
  Rb  Rb1  1  0.12774252  0.75000000  0.37225748  1
  Rb  Rb2  1  0.75000000  0.37225748  0.12774252  1
  Rb  Rb3  1  0.62774252  0.87225748  0.25000000  1
  Rb  Rb4  1  0.25000000  0.62774252  0.87225748  1
  Rb  Rb5  1  0.87225748  0.25000000  0.62774252  1
  Hg  Hg0  1  0.00000000  0.00000000  0.00000000  1
  Hg  Hg1  1  0.50000000  0.50000000  0.50000000  1
  Cl  Cl0  1  0.94714360  0.07614238  0.29209975  1
  Cl  Cl1  1  0.07614238  0.29209975  0.94714360  1
  Cl  Cl2  1  0.29209975  0.94714360  0.07614238  1
  Cl  Cl3  1  0.57614238  0.44714360  0.79209975  1
  Cl  Cl4  1  0.79209975  0.57614238  0.44714360  1
  Cl  Cl5  1  0.44714360  0.79209975  0.57614238  1
  Cl  Cl6  1  0.20790025  0.42385762  0.55285640  1
  Cl  Cl7  1  0.42385762  0.55285640  0.20790025  1
  Cl  Cl8  1  0.55285640  0.20790025  0.42385762  1
  Cl  Cl9  1  0.92385762  0.70790025  0.05285640  1
  Cl  Cl10  1  0.05285640  0.92385762  0.70790025  1
  Cl  Cl11  1  0.70790025  0.05285640  0.92385762  1
loop_
_geom_bond_atom_site_label_1
_geom_bond_atom_site_label_2
_geom_bond_distance
_geom_bond_site_symmetry_2
Cl0 Hg0 2.711102 1_655
Cl0 K0 3.103425 1_655
Cl0 Rb3 3.350881 1_545
Cl0 Rb1 3.393240 1_645
Cl0 Rb5 3.404885 1_555
Cl0 Rb2 3.487101 1_555
Cl1 Hg0 2.711102 1_556
Cl1 K0 3.103425 1_556
Cl1 Rb5 3.350881 1_455
Cl1 Rb2 3.393240 1_456
Cl1 Rb4 3.404885 1_555
Cl1 Rb0 3.487101 1_555
Cl2 Hg0 2.711102 1_565
Cl2 K0 3.103425 1_565
Cl2 Rb4 3.350880 1_554
Cl2 Rb0 3.393240 1_564
Cl2 Rb3 3.404885 1_555
Cl2 Rb1 3.487101 1_555
Cl3 Hg1 2.711102 1_555
Cl3 K1 3.103425 1_555
Cl3 Rb0 3.350881 1_555
Cl3 Rb4 3.393240 1_555
Cl3 Rb2 3.404885 1_556
Cl3 Rb5 3.487101 1_555
Cl4 Hg1 2.711102 1_555
Cl4 K1 3.103425 1_555
Cl4 Rb2 3.350881 1_555
Cl4 Rb5 3.393240 1_555
Cl4 Rb1 3.404885 1_655
Cl4 Rb3 3.487101 1_555
Cl5 Hg1 2.711102 1_555
Cl5 K1 3.103425 1_555
Cl5 Rb1 3.350881 1_555
Cl5 Rb3 3.393240 1_555
Cl5 Rb0 3.404885 1_565
Cl5 Rb4 3.487101 1_555
Cl6 Hg1 2.711102 1_555
Cl6 K0 3.103425 1_555
Cl6 Rb4 3.350881 1_555
Cl6 Rb1 3.393240 1_555
Cl6 Rb5 3.404885 1_455
Cl6 Rb0 3.487101 1_555
Cl7 Hg1 2.711102 1_555
Cl7 K0 3.103425 1_555
Cl7 Rb3 3.350881 1_555
Cl7 Rb2 3.393240 1_555
Cl7 Rb4 3.404885 1_554
Cl7 Rb1 3.487101 1_555
Cl8 Hg1 2.711102 1_555
Cl8 K0 3.103425 1_555
Cl8 Rb5 3.350881 1_555
Cl8 Rb0 3.393240 1_555
Cl8 Rb3 3.404885 1_545
Cl8 Rb2 3.487101 1_555
Cl9 Hg0 2.711102 1_665
Cl9 K1 3.103425 1_554
Cl9 Rb1 3.350881 1_655
Cl9 Rb4 3.393240 1_654
Cl9 Rb2 3.404885 1_555
Cl9 Rb3 3.487101 1_555
Cl10 Hg0 2.711102 1_566
Cl10 K1 3.103425 1_455
Cl10 Rb0 3.350881 1_565
Cl10 Rb5 3.393240 1_465
Cl10 Rb1 3.404885 1_555
Cl10 Rb4 3.487101 1_555
Cl11 Hg0 2.711102 1_656
Cl11 K1 3.103425 1_545
Cl11 Rb2 3.350880 1_556
Cl11 Rb3 3.393240 1_546
Cl11 Rb0 3.404885 1_555
Cl11 Rb5 3.487101 1_555
