# generated using pymatgen
data_LiZr3Ge6Ir7
_symmetry_space_group_name_H-M   'P 1'
_cell_length_a   7.02734887
_cell_length_b   7.02734914
_cell_length_c   7.02735013
_cell_angle_alpha   109.14475698
_cell_angle_beta   109.14477106
_cell_angle_gamma   109.14476615
_symmetry_Int_Tables_number   1
_chemical_formula_structural   LiZr3Ge6Ir7
_chemical_formula_sum   'Li1 Zr3 Ge6 Ir7'
_cell_volume   270.32923293
_cell_formula_units_Z   1
loop_
 _symmetry_equiv_pos_site_id
 _symmetry_equiv_pos_as_xyz
  1  'x, y, z'
loop_
 _atom_site_type_symbol
 _atom_site_label
 _atom_site_symmetry_multiplicity
 _atom_site_fract_x
 _atom_site_fract_y
 _atom_site_fract_z
 _atom_site_occupancy
  Li  Li0  1  0.50000000  0.50000000  0.50000000  1
  Zr  Zr0  1  0.00000000  0.00000000  0.50000000  1
  Zr  Zr1  1  0.00000000  0.50000000  0.00000000  1
  Zr  Zr2  1  0.50000000  0.00000000  0.00000000  1
  Ge  Ge0  1  0.67882706  0.67882706  0.98306443  1
  Ge  Ge1  1  0.32117294  0.01693557  0.32117294  1
  Ge  Ge2  1  0.01693557  0.32117294  0.32117294  1
  Ge  Ge3  1  0.32117294  0.32117294  0.01693557  1
  Ge  Ge4  1  0.67882706  0.98306443  0.67882706  1
  Ge  Ge5  1  0.98306443  0.67882706  0.67882706  1
  Ir  Ir0  1  0.75174844  0.24825156  0.50000000  1
  Ir  Ir1  1  0.75174844  0.50000000  0.24825156  1
  Ir  Ir2  1  0.50000000  0.24825156  0.75174844  1
  Ir  Ir3  1  0.24825156  0.50000000  0.75174844  1
  Ir  Ir4  1  0.24825156  0.75174844  0.50000000  1
  Ir  Ir5  1  0.50000000  0.75174844  0.24825156  1
  Ir  Ir6  1  0.00000000  0.00000000  0.00000000  1
loop_
_geom_bond_atom_site_label_1
_geom_bond_atom_site_label_2
_geom_bond_distance
_geom_bond_site_symmetry_2
Ge0 Ir3 2.513364 1_555
Ge0 Ir2 2.513364 1_555
Ge0 Ir6 2.551198 1_666
Ge0 Ir1 2.578140 1_556
Ge0 Ir5 2.578141 1_556
Ge0 Li0 2.837275 1_555
Ge0 Zr1 2.910279 1_656
Ge0 Zr2 2.910279 1_566
Ge0 Zr0 3.047564 1_666
Ge1 Ir0 2.513364 1_555
Ge1 Ir2 2.513364 1_555
Ge1 Ir6 2.551198 1_555
Ge1 Ir4 2.578140 1_545
Ge1 Ir5 2.578140 1_545
Ge1 Li0 2.837275 1_555
Ge1 Zr0 2.910279 1_555
Ge1 Zr2 2.910279 1_555
Ge1 Zr1 3.047563 1_545
Ge2 Ir4 2.513364 1_555
Ge2 Ir3 2.513364 1_555
Ge2 Ir6 2.551198 1_555
Ge2 Ir1 2.578140 1_455
Ge2 Ir0 2.578140 1_455
Ge2 Li0 2.837274 1_555
Ge2 Zr0 2.910279 1_555
Ge2 Zr1 2.910279 1_555
Ge2 Zr2 3.047563 1_455
Ge3 Ir1 2.513364 1_555
Ge3 Ir5 2.513364 1_555
Ge3 Ir6 2.551198 1_555
Ge3 Ir3 2.578140 1_554
Ge3 Ir2 2.578141 1_554
Ge3 Li0 2.837275 1_555
Ge3 Zr1 2.910279 1_555
Ge3 Zr2 2.910279 1_555
Ge3 Zr0 3.047564 1_554
Ge4 Ir4 2.513364 1_555
Ge4 Ir5 2.513364 1_555
Ge4 Ir6 2.551198 1_666
Ge4 Ir0 2.578140 1_565
Ge4 Ir2 2.578140 1_565
Ge4 Li0 2.837275 1_555
Ge4 Zr0 2.910279 1_665
Ge4 Zr2 2.910279 1_566
Ge4 Zr1 3.047563 1_666
Ge5 Ir0 2.513364 1_555
Ge5 Ir1 2.513364 1_555
Ge5 Ir6 2.551198 1_666
Ge5 Ir3 2.578140 1_655
Ge5 Ir4 2.578140 1_655
Ge5 Li0 2.837274 1_555
Ge5 Zr0 2.910279 1_665
Ge5 Zr1 2.910279 1_656
Ge5 Zr2 3.047563 1_666
Ir0 Zr0 2.843088 1_655
Ir0 Li0 2.883136 1_555
Ir0 Zr2 2.897754 1_555
Ir0 Zr1 2.897754 1_656
Ir1 Zr1 2.843089 1_655
Ir1 Li0 2.883137 1_555
Ir1 Zr2 2.897753 1_555
Ir1 Zr0 2.897753 1_665
Ir2 Zr2 2.843089 1_556
Ir2 Li0 2.883136 1_555
Ir2 Zr1 2.897753 1_656
Ir2 Zr0 2.897753 1_555
Ir3 Zr1 2.843089 1_556
Ir3 Li0 2.883137 1_555
Ir3 Zr2 2.897753 1_566
Ir3 Zr0 2.897753 1_555
Ir4 Zr0 2.843088 1_565
Ir4 Li0 2.883136 1_555
Ir4 Zr2 2.897754 1_566
Ir4 Zr1 2.897754 1_555
Ir5 Zr2 2.843089 1_565
Ir5 Li0 2.883136 1_555
Ir5 Zr1 2.897753 1_555
Ir5 Zr0 2.897753 1_665
