# generated using pymatgen
data_Co2GeMo3C
_symmetry_space_group_name_H-M   'P 1'
_cell_length_a   7.86288352
_cell_length_b   7.86288323
_cell_length_c   7.86288405
_cell_angle_alpha   60.00000070
_cell_angle_beta   60.00000190
_cell_angle_gamma   60.00000246
_symmetry_Int_Tables_number   1
_chemical_formula_structural   Co2GeMo3C
_chemical_formula_sum   'Co8 Ge4 Mo12 C4'
_cell_volume   343.74038434
_cell_formula_units_Z   4
loop_
 _symmetry_equiv_pos_site_id
 _symmetry_equiv_pos_as_xyz
  1  'x, y, z'
loop_
 _atom_site_type_symbol
 _atom_site_label
 _atom_site_symmetry_multiplicity
 _atom_site_fract_x
 _atom_site_fract_y
 _atom_site_fract_z
 _atom_site_occupancy
  Co  Co0  1  0.91743050  0.24770949  0.91743050  1
  Co  Co1  1  0.24770949  0.91743050  0.91743050  1
  Co  Co2  1  0.91743050  0.91743050  0.24770949  1
  Co  Co3  1  0.00229051  0.33256950  0.33256950  1
  Co  Co4  1  0.33256950  0.00229051  0.33256950  1
  Co  Co5  1  0.91743050  0.91743050  0.91743050  1
  Co  Co6  1  0.33256950  0.33256950  0.33256950  1
  Co  Co7  1  0.33256950  0.33256950  0.00229051  1
  Ge  Ge0  1  0.62500000  0.12500000  0.12500000  1
  Ge  Ge1  1  0.12500000  0.12500000  0.62500000  1
  Ge  Ge2  1  0.12500000  0.62500000  0.12500000  1
  Ge  Ge3  1  0.12500000  0.12500000  0.12500000  1
  Mo  Mo0  1  0.55626911  0.94373089  0.55626911  1
  Mo  Mo1  1  0.69373089  0.30626911  0.69373089  1
  Mo  Mo2  1  0.69373089  0.69373089  0.30626911  1
  Mo  Mo3  1  0.30626911  0.30626911  0.69373089  1
  Mo  Mo4  1  0.69373089  0.30626911  0.30626911  1
  Mo  Mo5  1  0.30626911  0.69373089  0.69373089  1
  Mo  Mo6  1  0.94373089  0.55626911  0.55626911  1
  Mo  Mo7  1  0.94373089  0.94373089  0.55626911  1
  Mo  Mo8  1  0.30626911  0.69373089  0.30626911  1
  Mo  Mo9  1  0.55626911  0.55626911  0.94373089  1
  Mo  Mo10  1  0.94373089  0.55626911  0.94373089  1
  Mo  Mo11  1  0.55626911  0.94373089  0.94373089  1
  C  C0  1  0.62500000  0.62500000  0.62500000  1
  C  C1  1  0.12500000  0.62500000  0.62500000  1
  C  C2  1  0.62500000  0.12500000  0.62500000  1
  C  C3  1  0.62500000  0.62500000  0.12500000  1
loop_
_geom_bond_atom_site_label_1
_geom_bond_atom_site_label_2
_geom_bond_distance
_geom_bond_site_symmetry_2
Co0 Ge3 2.402641 1_656
Co0 Ge0 2.402647 1_556
Co0 Ge1 2.402647 1_655
Co0 Co5 2.596945 1_545
Co0 Co1 2.596945 1_645
Co0 Co2 2.596945 1_546
Co0 Mo10 2.649157 1_555
Co0 Mo9 2.649162 1_555
Co0 Mo6 2.649162 1_555
Co0 Mo3 2.805999 1_655
Co0 Mo4 2.805999 1_556
Co0 Mo1 2.806006 1_555
Co1 Ge3 2.402641 1_566
Co1 Ge2 2.402647 1_556
Co1 Ge1 2.402647 1_565
Co1 Co5 2.596945 1_455
Co1 Co2 2.596945 1_456
Co1 Mo11 2.649158 1_555
Co1 Mo9 2.649162 1_555
Co1 Mo0 2.649162 1_555
Co1 Mo3 2.805999 1_565
Co1 Mo8 2.805999 1_556
Co1 Mo5 2.806006 1_555
Co2 Ge3 2.402640 1_665
Co2 Ge2 2.402647 1_655
Co2 Ge0 2.402647 1_565
Co2 Co5 2.596945 1_554
Co2 Mo7 2.649158 1_555
Co2 Mo6 2.649162 1_555
Co2 Mo0 2.649162 1_555
Co2 Mo4 2.805999 1_565
Co2 Mo8 2.805999 1_655
Co2 Mo2 2.806006 1_555
Co3 Ge3 2.402641 1_555
Co3 Ge2 2.402647 1_555
Co3 Ge1 2.402647 1_555
Co3 Co6 2.596945 1_555
Co3 Co4 2.596945 1_555
Co3 Co7 2.596945 1_555
Co3 Mo4 2.649158 1_455
Co3 Mo2 2.649162 1_455
Co3 Mo1 2.649162 1_455
Co3 Mo7 2.805999 1_445
Co3 Mo10 2.805999 1_454
Co3 Mo6 2.806006 1_455
Co4 Ge3 2.402641 1_555
Co4 Ge0 2.402647 1_555
Co4 Ge1 2.402647 1_555
Co4 Co6 2.596945 1_555
Co4 Co7 2.596945 1_555
Co4 Mo8 2.649157 1_545
Co4 Mo2 2.649162 1_545
Co4 Mo5 2.649162 1_545
Co4 Mo7 2.805999 1_445
Co4 Mo11 2.805999 1_544
Co4 Mo0 2.806006 1_545
Co5 Ge1 2.402643 1_665
Co5 Ge2 2.402643 1_656
Co5 Ge0 2.402643 1_566
Co5 Mo10 2.649165 1_555
Co5 Mo11 2.649165 1_555
Co5 Mo7 2.649166 1_555
Co5 Mo1 2.806002 1_565
Co5 Mo2 2.806002 1_556
Co5 Mo5 2.806002 1_655
Co6 Ge1 2.402643 1_555
Co6 Ge2 2.402643 1_555
Co6 Ge0 2.402643 1_555
Co6 Co7 2.596945 1_555
Co6 Mo8 2.649165 1_555
Co6 Mo4 2.649165 1_555
Co6 Mo3 2.649166 1_555
Co6 Mo0 2.806002 1_545
Co6 Mo9 2.806002 1_554
Co6 Mo6 2.806002 1_455
Co7 Ge3 2.402640 1_555
Co7 Ge2 2.402647 1_555
Co7 Ge0 2.402647 1_555
Co7 Mo3 2.649158 1_554
Co7 Mo5 2.649162 1_554
Co7 Mo1 2.649162 1_554
Co7 Mo11 2.805999 1_544
Co7 Mo10 2.805999 1_454
Co7 Mo9 2.806006 1_554
Ge0 Mo9 2.815494 1_554
Ge0 Mo2 2.815494 1_545
Ge0 Mo4 2.815494 1_555
Ge0 Mo11 2.815494 1_544
Ge0 Mo0 2.815494 1_545
Ge0 Mo1 2.815494 1_554
Ge1 Mo3 2.815494 1_555
Ge1 Mo7 2.815494 1_445
Ge1 Mo6 2.815494 1_455
Ge1 Mo5 2.815494 1_545
Ge1 Mo0 2.815494 1_545
Ge1 Mo1 2.815494 1_455
Ge2 Mo8 2.815494 1_555
Ge2 Mo10 2.815494 1_454
Ge2 Mo9 2.815494 1_554
Ge2 Mo2 2.815494 1_455
Ge2 Mo6 2.815494 1_455
Ge2 Mo5 2.815494 1_554
Ge3 Mo10 2.815494 1_454
Ge3 Mo8 2.815494 1_545
Ge3 Mo11 2.815494 1_544
Ge3 Mo4 2.815494 1_455
Ge3 Mo7 2.815494 1_445
Ge3 Mo3 2.815494 1_554
C0 Mo0 2.109069 1_555
C0 Mo1 2.109069 1_555
C0 Mo6 2.109069 1_555
C0 Mo5 2.109069 1_555
C0 Mo9 2.109069 1_555
C0 Mo2 2.109069 1_555
C1 Mo5 2.109069 1_555
C1 Mo6 2.109069 1_455
C1 Mo7 2.109069 1_455
C1 Mo3 2.109069 1_555
C1 Mo10 2.109069 1_455
C1 Mo8 2.109069 1_555
C2 Mo1 2.109069 1_555
C2 Mo0 2.109069 1_545
C2 Mo7 2.109069 1_545
C2 Mo3 2.109069 1_555
C2 Mo11 2.109069 1_545
C2 Mo4 2.109069 1_555
C3 Mo11 2.109069 1_554
C3 Mo4 2.109069 1_555
C3 Mo2 2.109069 1_555
C3 Mo9 2.109069 1_554
C3 Mo10 2.109069 1_554
C3 Mo8 2.109069 1_555
