# generated using pymatgen
data_Cs5RbAs4W
_symmetry_space_group_name_H-M   'P 1'
_cell_length_a   11.03489426
_cell_length_b   11.03489530
_cell_length_c   8.79824956
_cell_angle_alpha   89.29111396
_cell_angle_beta   89.29111638
_cell_angle_gamma   120.31770909
_symmetry_Int_Tables_number   1
_chemical_formula_structural   Cs5RbAs4W
_chemical_formula_sum   'Cs10 Rb2 As8 W2'
_cell_volume   924.54856094
_cell_formula_units_Z   2
loop_
 _symmetry_equiv_pos_site_id
 _symmetry_equiv_pos_as_xyz
  1  'x, y, z'
loop_
 _atom_site_type_symbol
 _atom_site_label
 _atom_site_symmetry_multiplicity
 _atom_site_fract_x
 _atom_site_fract_y
 _atom_site_fract_z
 _atom_site_occupancy
  Cs  Cs0  1  0.46331094  0.53444622  0.60144193  1
  Cs  Cs1  1  0.06992487  0.53501744  0.60535200  1
  Cs  Cs2  1  0.53444622  0.46331094  0.10144193  1
  Cs  Cs3  1  0.53501744  0.06992487  0.10535200  1
  Cs  Cs4  1  0.85453372  0.14519936  0.79285616  1
  Cs  Cs5  1  0.29323200  0.14693419  0.80192864  1
  Cs  Cs6  1  0.85302371  0.70744549  0.78437160  1
  Cs  Cs7  1  0.14519936  0.85453372  0.29285616  1
  Cs  Cs8  1  0.70744549  0.85302371  0.28437160  1
  Cs  Cs9  1  0.14693419  0.29323200  0.30192864  1
  Rb  Rb0  1  0.46849547  0.93866396  0.61131542  1
  Rb  Rb1  1  0.93866396  0.46849547  0.11131542  1
  As  As0  1  0.66926127  0.33323106  0.77201535  1
  As  As1  1  0.33323106  0.66926127  0.27201535  1
  As  As2  1  0.21017287  0.78605552  0.91231974  1
  As  As3  1  0.57129718  0.78692584  0.90574273  1
  As  As4  1  0.20908762  0.42555235  0.92093012  1
  As  As5  1  0.78605552  0.21017287  0.41231974  1
  As  As6  1  0.42555235  0.20908762  0.42093012  1
  As  As7  1  0.78692584  0.57129718  0.40574273  1
  W  W0  1  0.66721702  0.33097090  0.49892432  1
  W  W1  1  0.33097090  0.66721702  0.99892432  1
loop_
_geom_bond_atom_site_label_1
_geom_bond_atom_site_label_2
_geom_bond_distance
_geom_bond_site_symmetry_2
As0 W0 2.403428 1_555
As0 Cs6 3.569105 1_555
As0 Cs4 3.577892 1_555
As0 Cs5 3.586200 1_555
As0 Cs3 3.817601 1_556
As0 Cs2 3.850498 1_556
As0 Rb1 3.978357 1_556
As0 Rb0 4.044242 1_545
As0 Cs1 4.059015 1_655
As0 Cs0 4.176569 1_555
As1 W1 2.403428 1_554
As1 Cs8 3.569105 1_555
As1 Cs7 3.577892 1_555
As1 Cs9 3.586200 1_555
As1 Cs1 3.817601 1_555
As1 Cs0 3.850498 1_555
As1 Rb0 3.978358 1_555
As1 Rb1 4.044242 1_455
As1 Cs3 4.059016 1_565
As1 Cs2 4.176569 1_555
As2 W1 2.417101 1_555
As2 Rb0 3.582122 1_555
As2 Cs7 3.583952 1_556
As2 Cs1 3.650135 1_555
As2 Rb1 3.666097 1_456
As2 Cs5 3.720094 1_565
As2 Cs6 3.772857 1_455
As2 Cs3 3.806857 1_566
As3 W1 2.415097 1_555
As3 Rb0 3.561462 1_555
As3 Cs8 3.600578 1_556
As3 Cs0 3.641699 1_555
As3 Cs4 3.706246 1_565
As3 Cs2 3.774505 1_556
As3 Cs6 3.777315 1_555
As3 Cs3 3.791748 1_566
As4 W1 2.416276 1_555
As4 Cs9 3.556694 1_556
As4 Rb1 3.641264 1_456
As4 Cs1 3.663568 1_555
As4 Cs0 3.678743 1_555
As4 Cs4 3.758100 1_455
As4 Cs2 3.772714 1_556
As4 Cs5 3.787981 1_555
As5 W0 2.417101 1_555
As5 Rb1 3.582122 1_555
As5 Cs4 3.583952 1_555
As5 Cs3 3.650135 1_555
As5 Rb0 3.666096 1_545
As5 Cs9 3.720094 1_655
As5 Cs8 3.772858 1_545
As5 Cs1 3.806857 1_655
As6 W0 2.416276 1_555
As6 Cs5 3.556694 1_555
As6 Rb0 3.641264 1_545
As6 Cs3 3.663568 1_555
As6 Cs2 3.678743 1_555
As6 Cs7 3.758100 1_545
As6 Cs0 3.772714 1_555
As6 Cs9 3.787981 1_555
As7 W0 2.415098 1_555
As7 Rb1 3.561462 1_555
As7 Cs6 3.600578 1_555
As7 Cs2 3.641699 1_555
As7 Cs7 3.706246 1_655
As7 Cs0 3.774504 1_555
As7 Cs8 3.777315 1_555
As7 Cs1 3.791748 1_655
