# generated using pymatgen
data_Hf2Ta2Pb4O13
_symmetry_space_group_name_H-M   'P 1'
_cell_length_a   7.55501153
_cell_length_b   7.55501179
_cell_length_c   7.55501125
_cell_angle_alpha   120.03364760
_cell_angle_beta   120.07283215
_cell_angle_gamma   89.90781616
_symmetry_Int_Tables_number   1
_chemical_formula_structural   Hf2Ta2Pb4O13
_chemical_formula_sum   'Hf2 Ta2 Pb4 O13'
_cell_volume   304.67729287
_cell_formula_units_Z   1
loop_
 _symmetry_equiv_pos_site_id
 _symmetry_equiv_pos_as_xyz
  1  'x, y, z'
loop_
 _atom_site_type_symbol
 _atom_site_label
 _atom_site_symmetry_multiplicity
 _atom_site_fract_x
 _atom_site_fract_y
 _atom_site_fract_z
 _atom_site_occupancy
  Hf  Hf0  1  0.74553184  0.99883028  0.74670257  1
  Hf  Hf1  1  0.25212771  0.99883028  0.25329743  1
  Ta  Ta0  1  0.74973363  0.99921245  0.24947881  1
  Ta  Ta1  1  0.74973363  0.50025582  0.75052119  1
  Pb  Pb0  1  0.22954189  0.48587822  0.74366268  1
  Pb  Pb1  1  0.74221554  0.48587822  0.25633732  1
  Pb  Pb2  1  0.23879950  0.48475504  0.24595454  1
  Pb  Pb3  1  0.23879950  0.99284496  0.75404546  1
  O  O0  1  0.08199438  0.08199438  0.00000000  1
  O  O1  1  0.69752507  0.69752507  1.00000000  1
  O  O2  1  0.68697592  0.08466732  0.01541822  1
  O  O3  1  0.06924910  0.67155770  0.98458178  1
  O  O4  1  0.06924910  0.08466732  0.39769140  1
  O  O5  1  0.68697592  0.67155770  0.60230860  1
  O  O6  1  0.42724208  0.92724208  0.50000000  1
  O  O7  1  0.81896576  0.31896576  0.50000000  1
  O  O8  1  0.81768763  0.93579651  0.49276049  1
  O  O9  1  0.44303702  0.32492714  0.50723951  1
  O  O10  1  0.44303702  0.93579651  0.11810888  1
  O  O11  1  0.81768763  0.32492714  0.88189112  1
  O  O12  1  0.36889014  0.36889014  1.00000000  1
loop_
_geom_bond_atom_site_label_1
_geom_bond_atom_site_label_2
_geom_bond_distance
_geom_bond_site_symmetry_2
Hf0 O6 2.013011 1_555
Hf0 O2 2.078233 1_566
Hf0 O5 2.078239 1_555
Hf0 O11 2.082660 1_565
Hf0 O8 2.082666 1_555
Hf0 O0 2.108289 1_666
Hf1 O6 2.013016 1_555
Hf1 O4 2.078238 1_565
Hf1 O3 2.078238 1_554
Hf1 O9 2.082662 1_565
Hf1 O10 2.082667 1_555
Hf1 O0 2.108284 1_565
O0 Pb3 2.502145 1_544
O0 Pb2 2.502152 1_555
O1 Ta1 1.964833 1_555
O1 Ta0 1.964835 1_556
O2 Ta0 2.017467 1_545
O2 Pb1 2.528838 1_555
O2 Pb3 2.789410 1_544
O3 Ta1 2.017465 1_455
O3 Pb0 2.528845 1_555
O3 Pb2 2.789404 1_556
O4 Ta0 2.017467 1_445
O4 Pb0 2.528838 1_555
O4 Pb3 2.789410 1_545
O5 Ta1 2.017460 1_555
O5 Pb1 2.528838 1_555
O5 Pb2 2.789410 1_555
O6 Pb2 2.782136 1_555
O6 Pb3 2.782142 1_555
O7 Ta0 2.031422 1_545
O7 Ta1 2.031424 1_555
O7 Pb1 2.562586 1_555
O7 Pb0 2.562593 1_655
O8 Ta0 1.950989 1_555
O8 Pb3 2.657640 1_655
O9 Ta1 1.950985 1_555
O9 Pb2 2.657648 1_555
O10 Ta0 1.950982 1_555
O10 Pb3 2.657641 1_554
O11 Ta1 1.950996 1_555
O11 Pb2 2.657640 1_656
O12 Pb0 2.303729 1_555
O12 Pb1 2.303729 1_556
O12 Pb2 2.320431 1_556
O12 Pb3 2.320431 1_545
