# generated using pymatgen
data_Ca2NiRh3
_symmetry_space_group_name_H-M   'P 1'
_cell_length_a   5.31676385
_cell_length_b   5.31676336
_cell_length_c   5.17437191
_cell_angle_alpha   59.08543199
_cell_angle_beta   59.08543351
_cell_angle_gamma   60.00000650
_symmetry_Int_Tables_number   1
_chemical_formula_structural   Ca2NiRh3
_chemical_formula_sum   'Ca2 Ni1 Rh3'
_cell_volume   101.97492883
_cell_formula_units_Z   1
loop_
 _symmetry_equiv_pos_site_id
 _symmetry_equiv_pos_as_xyz
  1  'x, y, z'
loop_
 _atom_site_type_symbol
 _atom_site_label
 _atom_site_symmetry_multiplicity
 _atom_site_fract_x
 _atom_site_fract_y
 _atom_site_fract_z
 _atom_site_occupancy
  Ca  Ca0  1  0.50000137  0.50000137  0.49999490  1
  Ca  Ca1  1  0.74999863  0.74999863  0.75000510  1
  Ni  Ni0  1  0.12500000  0.12500000  0.62500000  1
  Rh  Rh0  1  0.12500000  0.62500000  0.12500000  1
  Rh  Rh1  1  0.12500000  0.12500000  0.12500000  1
  Rh  Rh2  1  0.62500000  0.12500000  0.12500000  1
loop_
_geom_bond_atom_site_label_1
_geom_bond_atom_site_label_2
_geom_bond_distance
_geom_bond_site_symmetry_2
Ca0 Rh1 3.022198 1_556
Ca0 Rh2 3.022201 1_556
Ca0 Rh0 3.022201 1_556
Ca0 Rh2 3.083336 1_555
Ca0 Rh0 3.083337 1_555
Ca0 Rh1 3.083339 1_565
Ca0 Rh1 3.083339 1_655
Ca0 Rh2 3.083341 1_565
Ca0 Rh0 3.083341 1_655
Ca0 Ni0 3.113483 1_555
Ca0 Ni0 3.113488 1_565
Ca0 Ni0 3.113488 1_655
Ca0 Ca1 3.124089 1_554
Ca0 Ca1 3.241480 1_545
Ca0 Ca1 3.241481 1_455
Ca0 Ca1 3.241489 1_555
Ca1 Rh1 3.022198 1_665
Ca1 Rh2 3.022201 1_565
Ca1 Rh0 3.022201 1_655
Ca1 Rh2 3.083336 1_566
Ca1 Rh0 3.083337 1_656
Ca1 Rh1 3.083339 1_656
Ca1 Rh1 3.083339 1_566
Ca1 Rh2 3.083341 1_556
Ca1 Rh0 3.083341 1_556
Ca1 Ni0 3.113483 1_665
Ca1 Ni0 3.113488 1_655
Ca1 Ni0 3.113488 1_565
Ni0 Rh0 2.587186 1_555
Ni0 Rh0 2.587186 1_546
Ni0 Rh2 2.587186 1_456
Ni0 Rh2 2.587186 1_555
Ni0 Rh1 2.587186 1_556
Ni0 Rh1 2.587186 1_555
Rh0 Rh1 2.658382 1_565
Rh0 Rh1 2.658382 1_555
Rh0 Rh2 2.658382 1_465
Rh0 Rh2 2.658382 1_555
Rh1 Rh2 2.658382 1_455
Rh1 Rh2 2.658382 1_555
