# generated using pymatgen
data_Rb2B2SbPt7
_symmetry_space_group_name_H-M   'P 1'
_cell_length_a   5.84760695
_cell_length_b   5.84760555
_cell_length_c   7.16368161
_cell_angle_alpha   90.00000000
_cell_angle_beta   90.00000000
_cell_angle_gamma   119.99999679
_symmetry_Int_Tables_number   1
_chemical_formula_structural   Rb2B2SbPt7
_chemical_formula_sum   'Rb2 B2 Sb1 Pt7'
_cell_volume   212.14029277
_cell_formula_units_Z   1
loop_
 _symmetry_equiv_pos_site_id
 _symmetry_equiv_pos_as_xyz
  1  'x, y, z'
loop_
 _atom_site_type_symbol
 _atom_site_label
 _atom_site_symmetry_multiplicity
 _atom_site_fract_x
 _atom_site_fract_y
 _atom_site_fract_z
 _atom_site_occupancy
  Rb  Rb0  1  0.00000000  0.00000000  0.50000000  1
  Rb  Rb1  1  0.00000000  0.00000000  0.00000000  1
  B  B0  1  0.33333300  0.66666700  0.00000000  1
  B  B1  1  0.66666700  0.33333300  0.00000000  1
  Sb  Sb0  1  0.33333300  0.66666700  0.50000000  1
  Pt  Pt0  1  0.66666700  0.33333300  0.50000000  1
  Pt  Pt1  1  0.49983459  0.99966818  0.19574404  1
  Pt  Pt2  1  0.49983459  0.99966818  0.80425596  1
  Pt  Pt3  1  0.00033182  0.50016541  0.19574404  1
  Pt  Pt4  1  0.00033182  0.50016541  0.80425596  1
  Pt  Pt5  1  0.49983459  0.50016541  0.19574404  1
  Pt  Pt6  1  0.49983459  0.50016541  0.80425596  1
loop_
_geom_bond_atom_site_label_1
_geom_bond_atom_site_label_2
_geom_bond_distance
_geom_bond_site_symmetry_2
Rb0 Sb0 3.376114 1_545
Rb0 Sb0 3.376118 1_555
Rb0 Sb0 3.376119 1_445
Rb0 Rb1 3.581841 1_556
Rb0 Rb1 3.581841 1_555
B0 Pt1 2.193209 1_555
B0 Pt2 2.193209 1_554
B0 Pt3 2.193209 1_555
B0 Pt4 2.193209 1_554
B0 Pt5 2.193217 1_555
B0 Pt6 2.193217 1_554
B1 Pt1 2.195794 1_545
B1 Pt2 2.195794 1_544
B1 Pt5 2.195794 1_555
B1 Pt6 2.195794 1_554
B1 Pt3 2.195794 1_655
B1 Pt4 2.195794 1_654
Pt0 Pt2 2.757868 1_545
Pt0 Pt1 2.757868 1_545
Pt0 Pt6 2.757868 1_555
Pt0 Pt5 2.757868 1_555
Pt0 Pt4 2.757868 1_655
Pt0 Pt3 2.757868 1_655
Pt0 Rb0 3.376114 1_655
Pt0 Rb0 3.376118 1_665
Pt0 Rb0 3.376119 1_555
Pt1 Sb0 2.755810 1_555
Pt1 Rb1 3.242670 1_665
Pt1 Rb1 3.242676 1_565
Pt1 Rb0 3.646812 1_665
Pt1 Rb0 3.646817 1_565
Pt2 Sb0 2.755810 1_555
Pt2 Rb1 3.242670 1_666
Pt2 Rb1 3.242676 1_566
Pt2 Rb0 3.646812 1_665
Pt2 Rb0 3.646817 1_565
Pt3 Sb0 2.755810 1_555
Pt3 Rb1 3.242670 1_555
Pt3 Rb1 3.242675 1_565
Pt3 Rb0 3.646811 1_555
Pt3 Rb0 3.646816 1_565
Pt4 Sb0 2.755810 1_555
Pt4 Rb1 3.242670 1_556
Pt4 Rb1 3.242675 1_566
Pt4 Rb0 3.646811 1_555
Pt4 Rb0 3.646816 1_565
Pt5 Sb0 2.755816 1_555
Pt5 Rb1 3.242673 1_555
Pt5 Rb1 3.242673 1_665
Pt5 Rb0 3.646814 1_555
Pt5 Rb0 3.646814 1_665
Pt6 Sb0 2.755816 1_555
Pt6 Rb1 3.242673 1_556
Pt6 Rb1 3.242673 1_666
Pt6 Rb0 3.646814 1_555
Pt6 Rb0 3.646814 1_665
