# generated using pymatgen
data_Lu(NbS2)3
_symmetry_space_group_name_H-M   'P 1'
_cell_length_a   5.83385399
_cell_length_b   5.83385540
_cell_length_c   13.39720130
_cell_angle_alpha   90.00000000
_cell_angle_beta   90.00000000
_cell_angle_gamma   120.00000333
_symmetry_Int_Tables_number   1
_chemical_formula_structural   Lu(NbS2)3
_chemical_formula_sum   'Lu2 Nb6 S12'
_cell_volume   394.87161468
_cell_formula_units_Z   2
loop_
 _symmetry_equiv_pos_site_id
 _symmetry_equiv_pos_as_xyz
  1  'x, y, z'
loop_
 _atom_site_type_symbol
 _atom_site_label
 _atom_site_symmetry_multiplicity
 _atom_site_fract_x
 _atom_site_fract_y
 _atom_site_fract_z
 _atom_site_occupancy
  Lu  Lu0  1  0.00000000  0.00000000  0.00000000  1
  Lu  Lu1  1  0.00000000  0.00000000  0.50000000  1
  Nb  Nb0  1  0.33333300  0.66666700  0.25000000  1
  Nb  Nb1  1  0.00000000  0.00000000  0.25000000  1
  Nb  Nb2  1  0.00000000  0.00000000  0.75000000  1
  Nb  Nb3  1  0.33333300  0.66666700  0.75000000  1
  Nb  Nb4  1  0.66666700  0.33333300  0.75000000  1
  Nb  Nb5  1  0.66666700  0.33333300  0.25000000  1
  S  S0  1  1.00000000  0.66334315  0.63197735  1
  S  S1  1  1.00000000  0.66334315  0.86802265  1
  S  S2  1  0.00000000  0.33665685  0.13197735  1
  S  S3  1  0.00000000  0.33665685  0.36802265  1
  S  S4  1  0.33665685  0.33665685  0.63197735  1
  S  S5  1  0.33665685  0.33665685  0.86802265  1
  S  S6  1  0.66334315  0.66334315  0.13197735  1
  S  S7  1  0.66334315  0.66334315  0.36802265  1
  S  S8  1  0.33665685  1.00000000  0.13197735  1
  S  S9  1  0.33665685  1.00000000  0.36802265  1
  S  S10  1  0.66334315  0.00000000  0.63197735  1
  S  S11  1  0.66334315  0.00000000  0.86802265  1
loop_
_geom_bond_atom_site_label_1
_geom_bond_atom_site_label_2
_geom_bond_distance
_geom_bond_site_symmetry_2
Lu0 S8 2.642650 1_545
Lu0 S11 2.642650 1_454
Lu0 S6 2.642650 1_445
Lu0 S5 2.642650 1_554
Lu0 S2 2.642650 1_555
Lu0 S1 2.642650 1_444
Lu1 S10 2.642650 1_455
Lu1 S9 2.642650 1_545
Lu1 S4 2.642650 1_555
Lu1 S7 2.642650 1_445
Lu1 S0 2.642650 1_445
Lu1 S3 2.642650 1_555
Nb0 S9 2.498862 1_555
Nb0 S8 2.498862 1_555
Nb0 S3 2.498864 1_555
Nb0 S2 2.498864 1_555
Nb0 S7 2.498866 1_555
Nb0 S6 2.498866 1_555
Nb1 S9 2.521395 1_545
Nb1 S8 2.521395 1_545
Nb1 S7 2.521395 1_445
Nb1 S6 2.521395 1_445
Nb1 S3 2.521395 1_555
Nb1 S2 2.521395 1_555
Nb2 S11 2.521395 1_455
Nb2 S10 2.521395 1_455
Nb2 S5 2.521395 1_555
Nb2 S4 2.521395 1_555
Nb2 S1 2.521395 1_445
Nb2 S0 2.521395 1_445
Nb3 S1 2.498861 1_455
Nb3 S0 2.498861 1_455
Nb3 S11 2.498864 1_565
Nb3 S10 2.498864 1_565
Nb3 S5 2.498866 1_555
Nb3 S4 2.498866 1_555
Nb4 S11 2.498862 1_555
Nb4 S10 2.498862 1_555
Nb4 S1 2.498864 1_555
Nb4 S0 2.498864 1_555
Nb4 S5 2.498866 1_555
Nb4 S4 2.498866 1_555
Nb5 S3 2.498861 1_655
Nb5 S2 2.498861 1_655
Nb5 S9 2.498864 1_545
Nb5 S8 2.498864 1_545
Nb5 S7 2.498866 1_555
Nb5 S6 2.498866 1_555
