# generated using pymatgen
data_LuMn5
_symmetry_space_group_name_H-M   'P 1'
_cell_length_a   4.84504967
_cell_length_b   4.84504967
_cell_length_c   7.95778100
_cell_angle_alpha   90.00000000
_cell_angle_beta   90.00000000
_cell_angle_gamma   119.99999548
_symmetry_Int_Tables_number   1
_chemical_formula_structural   LuMn5
_chemical_formula_sum   'Lu2 Mn10'
_cell_volume   161.77786574
_cell_formula_units_Z   2
loop_
 _symmetry_equiv_pos_site_id
 _symmetry_equiv_pos_as_xyz
  1  'x, y, z'
loop_
 _atom_site_type_symbol
 _atom_site_label
 _atom_site_symmetry_multiplicity
 _atom_site_fract_x
 _atom_site_fract_y
 _atom_site_fract_z
 _atom_site_occupancy
  Lu  Lu0  1  0.66666700  0.33333300  0.75764800  1
  Lu  Lu1  1  0.33333300  0.66666700  0.25764800  1
  Mn  Mn0  1  0.82874600  0.17125400  0.44897200  1
  Mn  Mn1  1  0.65749300  0.82874600  0.94897200  1
  Mn  Mn2  1  0.00000000  0.00000000  0.20255900  1
  Mn  Mn3  1  0.00000000  0.00000000  0.70255900  1
  Mn  Mn4  1  0.33333300  0.66666700  0.62887800  1
  Mn  Mn5  1  0.66666700  0.33333300  0.12887800  1
  Mn  Mn6  1  0.17125400  0.82874600  0.94897200  1
  Mn  Mn7  1  0.34250700  0.17125400  0.44897200  1
  Mn  Mn8  1  0.82874600  0.65749300  0.44897200  1
  Mn  Mn9  1  0.17125400  0.34250700  0.94897200  1
loop_
_geom_bond_atom_site_label_1
_geom_bond_atom_site_label_2
_geom_bond_distance
_geom_bond_site_symmetry_2
Lu0 Mn0 2.807807 1_555
Lu0 Mn8 2.807811 1_555
Lu0 Mn7 2.807811 1_555
Lu0 Mn3 2.831431 1_655
Lu0 Mn3 2.831435 1_665
Lu0 Mn3 2.831435 1_555
Lu0 Mn9 2.861496 1_555
Lu0 Mn1 2.861496 1_555
Lu0 Mn1 2.861496 1_545
Lu0 Mn9 2.861496 1_655
Lu0 Mn6 2.861496 1_545
Lu0 Mn6 2.861496 1_655
Lu0 Mn5 2.954167 1_556
Lu0 Mn4 2.979073 1_545
Lu0 Mn4 2.979073 1_655
Lu0 Mn4 2.979081 1_555
Lu1 Mn6 2.807807 1_554
Lu1 Mn9 2.807811 1_554
Lu1 Mn1 2.807811 1_554
Lu1 Mn2 2.831431 1_565
Lu1 Mn2 2.831435 1_555
Lu1 Mn2 2.831435 1_665
Lu1 Mn8 2.861496 1_555
Lu1 Mn7 2.861496 1_555
Lu1 Mn7 2.861496 1_565
Lu1 Mn8 2.861496 1_455
Lu1 Mn0 2.861496 1_565
Lu1 Mn0 2.861496 1_455
Lu1 Mn4 2.954167 1_555
Lu1 Mn5 2.979073 1_455
Lu1 Mn5 2.979073 1_565
Lu1 Mn5 2.979081 1_555
Mn0 Mn7 2.355852 1_555
Mn0 Mn8 2.355852 1_555
Mn0 Mn2 2.431154 1_655
Mn0 Mn3 2.477430 1_655
Mn0 Mn7 2.489198 1_655
Mn0 Mn8 2.489198 1_545
Mn0 Mn4 2.814203 1_545
Mn0 Mn4 2.814203 1_655
Mn0 Mn5 2.887632 1_555
Mn1 Mn6 2.355852 1_555
Mn1 Mn9 2.355852 1_555
Mn1 Mn3 2.431151 1_665
Mn1 Mn2 2.477428 1_666
Mn1 Mn6 2.489198 1_655
Mn1 Mn9 2.489198 1_665
Mn1 Mn5 2.814203 1_556
Mn1 Mn5 2.814203 1_566
Mn1 Mn4 2.887636 1_555
Mn2 Mn7 2.431151 1_555
Mn2 Mn8 2.431151 1_445
Mn2 Mn9 2.477428 1_554
Mn2 Mn6 2.477430 1_544
Mn2 Mn5 2.858078 1_455
Mn2 Mn5 2.858082 1_555
Mn2 Mn5 2.858082 1_445
Mn3 Mn9 2.431151 1_555
Mn3 Mn6 2.431154 1_545
Mn3 Mn7 2.477428 1_555
Mn3 Mn8 2.477428 1_445
Mn3 Mn4 2.858078 1_545
Mn3 Mn4 2.858082 1_555
Mn3 Mn4 2.858082 1_445
Mn4 Mn8 2.814203 1_555
Mn4 Mn7 2.814203 1_555
Mn4 Mn7 2.814203 1_565
Mn4 Mn8 2.814203 1_455
Mn4 Mn6 2.887632 1_555
Mn4 Mn9 2.887636 1_555
Mn5 Mn9 2.814203 1_554
Mn5 Mn9 2.814203 1_654
Mn5 Mn6 2.814203 1_654
Mn5 Mn6 2.814203 1_544
Mn5 Mn7 2.887636 1_555
Mn5 Mn8 2.887636 1_555
Mn6 Mn9 2.355852 1_555
Mn6 Mn9 2.489198 1_565
Mn7 Mn8 2.355852 1_555
Mn7 Mn8 2.489198 1_445
