# generated using pymatgen
data_Sr6Sn8HgAs
_symmetry_space_group_name_H-M   'P 1'
_cell_length_a   8.92370222
_cell_length_b   8.92370373
_cell_length_c   8.92370337
_cell_angle_alpha   120.52006884
_cell_angle_beta   120.52006854
_cell_angle_gamma   89.10155478
_symmetry_Int_Tables_number   1
_chemical_formula_structural   Sr6Sn8HgAs
_chemical_formula_sum   'Sr6 Sn8 Hg1 As1'
_cell_volume   498.46540761
_cell_formula_units_Z   1
loop_
 _symmetry_equiv_pos_site_id
 _symmetry_equiv_pos_as_xyz
  1  'x, y, z'
loop_
 _atom_site_type_symbol
 _atom_site_label
 _atom_site_symmetry_multiplicity
 _atom_site_fract_x
 _atom_site_fract_y
 _atom_site_fract_z
 _atom_site_occupancy
  Sr  Sr0  1  0.23492677  0.23492677  0.00000000  1
  Sr  Sr1  1  0.76507323  0.76507323  1.00000000  1
  Sr  Sr2  1  0.14624179  0.68114422  0.82738801  1
  Sr  Sr3  1  0.85375821  0.31885578  0.17261199  1
  Sr  Sr4  1  0.68114422  0.85375821  0.53490244  1
  Sr  Sr5  1  0.31885578  0.14624179  0.46509756  1
  Sn  Sn0  1  0.82607799  0.34008715  0.78706237  1
  Sn  Sn1  1  0.17392201  0.65991285  0.21293763  1
  Sn  Sn2  1  0.55302478  0.03901662  0.21293763  1
  Sn  Sn3  1  0.34008715  0.55302478  0.51401016  1
  Sn  Sn4  1  0.96098338  0.17392201  0.51401016  1
  Sn  Sn5  1  0.44697522  0.96098338  0.78706237  1
  Sn  Sn6  1  0.65991285  0.44697522  0.48598984  1
  Sn  Sn7  1  0.03901662  0.82607799  0.48598984  1
  Hg  Hg0  1  0.50000000  0.50000000  0.00000000  1
  As  As0  1  0.00000000  0.00000000  0.00000000  1
loop_
_geom_bond_atom_site_label_1
_geom_bond_atom_site_label_2
_geom_bond_distance
_geom_bond_site_symmetry_2
Sn0 Sn4 2.973019 1_555
Sn0 Sn6 2.973041 1_555
Sn0 Sn1 3.082747 1_656
Sn0 Sr3 3.425141 1_556
Sn0 Sr1 3.457788 1_555
Sn0 Sr0 3.530556 1_656
Sn0 Sr4 3.587746 1_545
Sn0 Sr5 3.704538 1_555
Sn1 Sn7 2.973019 1_555
Sn1 Sn3 2.973041 1_555
Sn1 Sr2 3.425141 1_554
Sn1 Sr0 3.457788 1_555
Sn1 Sr1 3.530556 1_454
Sn1 Sr5 3.587746 1_565
Sn1 Sr4 3.704538 1_555
Sn2 Sn6 2.973026 1_555
Sn2 Sn4 2.973027 1_555
Sn2 Sn5 3.082741 1_544
Sn2 Sr2 3.425163 1_544
Sn2 Sr1 3.457792 1_544
Sn2 Sr0 3.530550 1_555
Sn2 Sr5 3.587746 1_555
Sn2 Sr4 3.704546 1_545
Sn3 Sn5 2.973026 1_555
Sn3 Sn6 3.082754 1_555
Sn3 Sr5 3.425155 1_555
Sn3 Sr1 3.457784 1_555
Sn3 Sr0 3.530563 1_555
Sn3 Sr3 3.587744 1_455
Sn3 Sr2 3.704546 1_555
Sn4 Sn7 3.082747 1_645
Sn4 Sr5 3.425173 1_655
Sn4 Sr0 3.457782 1_656
Sn4 Sr1 3.530562 1_544
Sn4 Sr3 3.587772 1_555
Sn4 Sr2 3.704538 1_655
Sn5 Sn7 2.973027 1_555
Sn5 Sr3 3.425163 1_566
Sn5 Sr0 3.457792 1_566
Sn5 Sr1 3.530550 1_555
Sn5 Sr4 3.587746 1_555
Sn5 Sr5 3.704546 1_565
Sn6 Sr4 3.425155 1_555
Sn6 Sr0 3.457784 1_555
Sn6 Sr1 3.530563 1_555
Sn6 Sr2 3.587744 1_655
Sn6 Sr3 3.704546 1_555
Sn7 Sr4 3.425173 1_455
Sn7 Sr1 3.457782 1_454
Sn7 Sr0 3.530562 1_566
Sn7 Sr2 3.587772 1_555
Sn7 Sr3 3.704538 1_455
Hg0 Sr1 3.371355 1_554
Hg0 Sr0 3.371355 1_555
Hg0 Sr3 3.518712 1_555
Hg0 Sr2 3.518712 1_554
Hg0 Sr4 3.518716 1_555
Hg0 Sr5 3.518716 1_554
As0 Sr0 2.987935 1_555
As0 Sr1 2.987935 1_444
As0 Sr3 3.105728 1_455
As0 Sr2 3.105728 1_544
As0 Sr5 3.105732 1_555
As0 Sr4 3.105732 1_444
