# generated using pymatgen
data_Cs2RbInAs2
_symmetry_space_group_name_H-M   'P 1'
_cell_length_a   9.73075647
_cell_length_b   9.73075560
_cell_length_c   9.73075645
_cell_angle_alpha   130.72284093
_cell_angle_beta   136.76113946
_cell_angle_gamma   67.61026577
_symmetry_Int_Tables_number   1
_chemical_formula_structural   Cs2RbInAs2
_chemical_formula_sum   'Cs4 Rb2 In2 As4'
_cell_volume   470.38961873
_cell_formula_units_Z   2
loop_
 _symmetry_equiv_pos_site_id
 _symmetry_equiv_pos_as_xyz
  1  'x, y, z'
loop_
 _atom_site_type_symbol
 _atom_site_label
 _atom_site_symmetry_multiplicity
 _atom_site_fract_x
 _atom_site_fract_y
 _atom_site_fract_z
 _atom_site_occupancy
  Cs  Cs0  1  0.67738216  0.45231996  0.77493881  1
  Cs  Cs1  1  0.82261784  0.09755665  0.27493881  1
  Cs  Cs2  1  0.17738216  0.90244335  0.72506119  1
  Cs  Cs3  1  0.32261784  0.54768004  0.22506119  1
  Rb  Rb0  1  0.75000000  0.00000000  0.75000000  1
  Rb  Rb1  1  0.25000000  0.00000000  0.25000000  1
  In  In0  1  0.25000000  0.50000000  0.75000000  1
  In  In1  1  0.75000000  0.50000000  0.25000000  1
  As  As0  1  0.40953537  0.22667535  0.81713998  1
  As  As1  1  0.59046463  0.77332465  0.18286002  1
  As  As2  1  0.09046463  0.40760461  0.31713998  1
  As  As3  1  0.90953537  0.59239539  0.68286002  1
loop_
_geom_bond_atom_site_label_1
_geom_bond_atom_site_label_2
_geom_bond_distance
_geom_bond_site_symmetry_2
Cs0 In1 3.843943 1_556
Cs0 In0 3.843946 1_555
Cs1 In0 3.843948 1_655
Cs1 In1 3.843948 1_555
Cs2 In1 3.843948 1_455
Cs2 In0 3.843948 1_555
Cs3 In0 3.843943 1_554
Cs3 In1 3.843946 1_555
As0 In1 2.748575 1_556
As0 In0 2.748575 1_555
As0 Rb1 3.460386 1_555
As0 Rb0 3.460386 1_555
As0 Cs3 3.595715 1_556
As0 Cs2 3.827816 1_545
As0 Cs1 3.866069 1_455
As0 Cs1 3.866069 1_556
As1 In0 2.748575 1_554
As1 In1 2.748575 1_555
As1 Rb0 3.460386 1_565
As1 Rb1 3.460386 1_565
As1 Cs0 3.595715 1_554
As1 Cs1 3.827816 1_565
As1 Cs2 3.866069 1_655
As1 Cs2 3.866069 1_554
As2 In0 2.748575 1_555
As2 In1 2.748575 1_455
As2 Rb0 3.460385 1_454
As2 Rb1 3.460385 1_555
As2 Cs2 3.595714 1_555
As2 Cs3 3.827823 1_555
As2 Cs0 3.866063 1_454
As2 Cs0 3.866070 1_555
As3 In1 2.748575 1_555
As3 In0 2.748575 1_655
As3 Rb1 3.460385 1_666
As3 Rb0 3.460385 1_565
As3 Cs1 3.595714 1_555
As3 Cs0 3.827823 1_555
As3 Cs3 3.866063 1_656
As3 Cs3 3.866070 1_555
