# generated using pymatgen
data_Rb2SrAs2O7
_symmetry_space_group_name_H-M   'P 1'
_cell_length_a   6.12237284
_cell_length_b   6.12237400
_cell_length_c   13.79420121
_cell_angle_alpha   75.21109596
_cell_angle_beta   75.21109095
_cell_angle_gamma   58.92067960
_symmetry_Int_Tables_number   1
_chemical_formula_structural   Rb2SrAs2O7
_chemical_formula_sum   'Rb4 Sr2 As4 O14'
_cell_volume   423.37558426
_cell_formula_units_Z   2
loop_
 _symmetry_equiv_pos_site_id
 _symmetry_equiv_pos_as_xyz
  1  'x, y, z'
loop_
 _atom_site_type_symbol
 _atom_site_label
 _atom_site_symmetry_multiplicity
 _atom_site_fract_x
 _atom_site_fract_y
 _atom_site_fract_z
 _atom_site_occupancy
  Rb  Rb0  1  0.86208917  0.43878209  0.32938540  1
  Rb  Rb1  1  0.56121791  0.13791083  0.17061460  1
  Rb  Rb2  1  0.13791083  0.56121791  0.67061460  1
  Rb  Rb3  1  0.43878209  0.86208917  0.82938540  1
  Sr  Sr0  1  0.50000000  0.00000000  0.50000000  1
  Sr  Sr1  1  0.00000000  0.50000000  0.00000000  1
  As  As0  1  0.80714096  0.24718326  0.63131397  1
  As  As1  1  0.75281674  0.19285904  0.86868603  1
  As  As2  1  0.19285904  0.75281674  0.36868603  1
  As  As3  1  0.24718326  0.80714096  0.13131397  1
  O  O0  1  0.63710377  0.36289623  0.75000000  1
  O  O1  1  0.36289623  0.63710377  0.25000000  1
  O  O2  1  0.70494159  0.52311461  0.55063475  1
  O  O3  1  0.47688539  0.29505841  0.94936525  1
  O  O4  1  0.29505841  0.47688539  0.44936525  1
  O  O5  1  0.52311461  0.70494159  0.05063475  1
  O  O6  1  0.12380323  0.08917100  0.63887025  1
  O  O7  1  0.91082900  0.87619677  0.86112975  1
  O  O8  1  0.87619677  0.91082900  0.36112975  1
  O  O9  1  0.08917100  0.12380323  0.13887025  1
  O  O10  1  0.05228576  0.69613767  0.12370600  1
  O  O11  1  0.30386233  0.94771424  0.37629400  1
  O  O12  1  0.94771424  0.30386233  0.87629400  1
  O  O13  1  0.69613767  0.05228576  0.62370600  1
loop_
_geom_bond_atom_site_label_1
_geom_bond_atom_site_label_2
_geom_bond_distance
_geom_bond_site_symmetry_2
As0 O2 1.669829 1_555
As0 O6 1.679490 1_655
As0 O13 1.683528 1_555
As0 O0 1.796264 1_555
As1 O3 1.669828 1_555
As1 O7 1.679490 1_545
As1 O12 1.683528 1_555
As1 O0 1.796264 1_555
As2 O4 1.669829 1_555
As2 O8 1.679490 1_455
As2 O11 1.683528 1_555
As2 O1 1.796264 1_555
As3 O5 1.669828 1_555
As3 O9 1.679490 1_565
As3 O10 1.683528 1_555
As3 O1 1.796264 1_555
O0 Rb2 3.035219 1_555
O0 Rb3 3.035219 1_555
O1 Rb0 3.035219 1_555
O1 Rb1 3.035219 1_555
O2 Sr0 2.492133 1_565
O2 Rb0 3.049464 1_555
O2 Rb2 3.357547 1_555
O3 Sr1 2.492132 1_556
O3 Rb1 3.049464 1_556
O3 Rb3 3.357548 1_555
O4 Sr0 2.492133 1_555
O4 Rb2 3.049464 1_555
O4 Rb0 3.357547 1_555
O5 Sr1 2.492132 1_655
O5 Rb3 3.049464 1_554
O5 Rb1 3.357548 1_555
O6 Sr0 2.501130 1_555
O6 Rb2 3.078096 1_555
O6 Rb2 3.107350 1_545
O6 Rb3 3.242227 1_545
O7 Sr1 2.501131 1_656
O7 Rb3 3.078096 1_555
O7 Rb3 3.107349 1_655
O7 Rb2 3.242227 1_655
O8 Sr0 2.501130 1_565
O8 Rb0 3.078096 1_555
O8 Rb0 3.107350 1_565
O8 Rb1 3.242227 1_565
O9 Sr1 2.501131 1_555
O9 Rb1 3.078096 1_555
O9 Rb1 3.107349 1_455
O9 Rb0 3.242227 1_455
O10 Sr1 2.485599 1_555
O10 Rb1 2.877135 1_465
O10 Rb0 3.132671 1_455
O10 Rb1 3.273159 1_555
O11 Sr0 2.485599 1_565
O11 Rb0 2.877135 1_465
O11 Rb1 3.132671 1_565
O11 Rb0 3.273159 1_555
O12 Sr1 2.485599 1_656
O12 Rb3 2.877135 1_645
O12 Rb2 3.132671 1_655
O12 Rb3 3.273159 1_555
O13 Sr0 2.485599 1_555
O13 Rb2 2.877135 1_645
O13 Rb3 3.132671 1_545
O13 Rb2 3.273159 1_555
