# generated using pymatgen
data_Ta9Nb(SiB2)2
_symmetry_space_group_name_H-M   'P 1'
_cell_length_a   7.27417895
_cell_length_b   7.27479344
_cell_length_c   7.27320914
_cell_angle_alpha   129.34987360
_cell_angle_beta   129.34755193
_cell_angle_gamma   74.46340191
_symmetry_Int_Tables_number   1
_chemical_formula_structural   Ta9Nb(SiB2)2
_chemical_formula_sum   'Ta9 Nb1 Si2 B4'
_cell_volume   224.29294418
_cell_formula_units_Z   1
loop_
 _symmetry_equiv_pos_site_id
 _symmetry_equiv_pos_as_xyz
  1  'x, y, z'
loop_
 _atom_site_type_symbol
 _atom_site_label
 _atom_site_symmetry_multiplicity
 _atom_site_fract_x
 _atom_site_fract_y
 _atom_site_fract_z
 _atom_site_occupancy
  Ta  Ta0  1  0.00007628  0.99978163  0.99952476  1
  Ta  Ta1  1  0.50055052  0.50025687  0.00047424  1
  Ta  Ta2  1  0.80624542  0.30659537  0.83486635  1
  Ta  Ta3  1  0.19368291  0.69338623  0.16425929  1
  Ta  Ta4  1  0.47137707  0.97172902  0.16513165  1
  Ta  Ta5  1  0.30635035  0.47114368  0.49999700  1
  Ta  Ta6  1  0.02881047  0.19339588  0.50000100  1
  Ta  Ta7  1  0.52942162  0.02912794  0.83574071  1
  Ta  Ta8  1  0.69354630  0.52842056  0.50000200  1
  Nb  Nb0  1  0.97115393  0.80702425  0.49999900  1
  Si  Si0  1  0.25050480  0.25056514  0.00062780  1
  Si  Si1  1  0.74987799  0.74993734  0.99937320  1
  B  B0  1  0.11761273  0.61622333  0.73489431  1
  B  B1  1  0.88271941  0.38132802  0.26510769  1
  B  B2  1  0.61520519  0.88383994  0.50000100  1
  B  B3  1  0.38286401  0.11724380  0.50000000  1
loop_
_geom_bond_atom_site_label_1
_geom_bond_atom_site_label_2
_geom_bond_distance
_geom_bond_site_symmetry_2
Nb0 Si1 2.651425 1_554
Nb0 Si0 2.651435 1_666
Si0 Ta8 2.645909 1_555
Si0 Ta3 2.648305 1_555
Si0 Ta5 2.649350 1_555
Si0 Ta4 2.649873 1_545
Si0 Ta6 2.650428 1_554
Si0 Ta7 2.652220 1_554
Si0 Ta2 2.653324 1_454
Si0 Ta1 2.895325 1_555
Si0 Ta0 2.896592 1_544
Si1 Ta8 2.645898 1_555
Si1 Ta7 2.648320 1_565
Si1 Ta5 2.649376 1_555
Si1 Ta2 2.649879 1_555
Si1 Ta6 2.650431 1_666
Si1 Ta3 2.652229 1_656
Si1 Ta4 2.653331 1_556
Si1 Ta0 2.895325 1_655
Si1 Ta1 2.896592 1_556
B0 B1 2.066703 1_455
B0 Ta6 2.408044 1_555
B0 Ta5 2.414349 1_555
B0 Ta8 2.414824 1_455
B0 Nb0 2.426400 1_455
B0 Ta3 2.475025 1_556
B0 Ta1 2.487344 1_556
B0 Ta4 2.488839 1_556
B0 Ta0 2.493907 1_555
B1 Ta6 2.408033 1_655
B1 Ta5 2.414336 1_655
B1 Ta8 2.414826 1_555
B1 Nb0 2.426404 1_555
B1 Ta7 2.475027 1_554
B1 Ta0 2.487345 1_644
B1 Ta2 2.488861 1_554
B1 Ta1 2.493926 1_555
B2 B3 2.049918 1_565
B2 Ta3 2.403194 1_555
B2 Ta7 2.403199 1_565
B2 Ta2 2.412581 1_565
B2 Ta4 2.412597 1_555
B2 Ta8 2.494147 1_555
B2 Ta0 2.496038 1_655
B2 Ta1 2.496046 1_555
B2 Nb0 2.498265 1_555
B3 Ta2 2.412675 1_555
B3 Ta4 2.412677 1_545
B3 Ta3 2.414167 1_545
B3 Ta7 2.414168 1_555
B3 Ta5 2.484049 1_555
B3 Ta6 2.485061 1_555
B3 Ta1 2.492239 1_556
B3 Ta0 2.492242 1_544
