# generated using pymatgen
data_CsCl2F7
_symmetry_space_group_name_H-M   'P 1'
_cell_length_a   7.62796941
_cell_length_b   7.62796891
_cell_length_c   8.26790737
_cell_angle_alpha   60.84965455
_cell_angle_beta   60.84965580
_cell_angle_gamma   81.95617893
_symmetry_Int_Tables_number   1
_chemical_formula_structural   CsCl2F7
_chemical_formula_sum   'Cs2 Cl4 F14'
_cell_volume   363.93094614
_cell_formula_units_Z   2
loop_
 _symmetry_equiv_pos_site_id
 _symmetry_equiv_pos_as_xyz
  1  'x, y, z'
loop_
 _atom_site_type_symbol
 _atom_site_label
 _atom_site_symmetry_multiplicity
 _atom_site_fract_x
 _atom_site_fract_y
 _atom_site_fract_z
 _atom_site_occupancy
  Cs  Cs0  1  0.29715777  0.70284223  0.25000000  1
  Cs  Cs1  1  0.70284223  0.29715777  0.75000000  1
  Cl  Cl0  1  0.08781658  0.30304864  0.15657991  1
  Cl  Cl1  1  0.69695136  0.91218342  0.34342009  1
  Cl  Cl2  1  0.91218342  0.69695136  0.84342009  1
  Cl  Cl3  1  0.30304864  0.08781658  0.65657991  1
  F  F0  1  0.85994053  0.79068425  0.45325443  1
  F  F1  1  0.68070277  0.59840603  0.92384194  1
  F  F2  1  0.79068325  0.85994053  0.95325443  1
  F  F3  1  0.52862867  0.02139337  0.23831615  1
  F  F4  1  0.20931575  0.14005947  0.04674557  1
  F  F5  1  0.47137133  0.97860663  0.76168385  1
  F  F6  1  0.80383625  0.19616375  0.25000000  1
  F  F7  1  0.97860663  0.47137133  0.26168385  1
  F  F8  1  0.02139337  0.52862867  0.73831615  1
  F  F9  1  0.31929723  0.40159397  0.07615806  1
  F  F10  1  0.14005947  0.20931675  0.54674557  1
  F  F11  1  0.40159397  0.31929723  0.57615806  1
  F  F12  1  0.19616375  0.80383625  0.75000000  1
  F  F13  1  0.59840603  0.68070277  0.42384194  1
loop_
_geom_bond_atom_site_label_1
_geom_bond_atom_site_label_2
_geom_bond_distance
_geom_bond_site_symmetry_2
Cs0 F4 3.067140 1_565
Cs0 F0 3.067140 1_455
Cs0 F5 3.126159 1_554
Cs0 F8 3.126159 1_555
Cs0 F3 3.136420 1_565
Cs0 F7 3.136420 1_455
Cs0 F11 3.196973 1_555
Cs0 F1 3.196973 1_554
Cs0 F9 3.201144 1_555
Cs0 F13 3.201144 1_555
Cs0 F10 3.320830 1_555
Cs0 F2 3.320831 1_554
Cs1 F2 3.067138 1_545
Cs1 F10 3.067138 1_655
Cs1 F3 3.126159 1_556
Cs1 F7 3.126159 1_555
Cs1 F5 3.136420 1_545
Cs1 F8 3.136420 1_655
Cs1 F13 3.196973 1_555
Cs1 F9 3.196973 1_556
Cs1 F1 3.201144 1_555
Cs1 F11 3.201144 1_555
Cs1 F0 3.320837 1_555
Cs1 F4 3.320837 1_556
Cl0 F9 1.692841 1_555
Cl0 F7 1.783272 1_455
Cl0 F4 1.785172 1_555
Cl0 F6 2.050489 1_455
Cl1 F13 1.692841 1_555
Cl1 F3 1.783272 1_565
Cl1 F0 1.785172 1_555
Cl1 F6 2.050489 1_565
Cl2 F1 1.692841 1_555
Cl2 F8 1.783272 1_655
Cl2 F2 1.785173 1_555
Cl2 F12 2.050489 1_655
Cl3 F11 1.692841 1_555
Cl3 F5 1.783272 1_545
Cl3 F10 1.785173 1_555
Cl3 F12 2.050489 1_545
