# generated using pymatgen
data_Ca5Bi2Pb
_symmetry_space_group_name_H-M   'P 1'
_cell_length_a   9.31695896
_cell_length_b   9.31695882
_cell_length_c   7.10172760
_cell_angle_alpha   90.00000000
_cell_angle_beta   90.00000000
_cell_angle_gamma   119.98612362
_symmetry_Int_Tables_number   1
_chemical_formula_structural   Ca5Bi2Pb
_chemical_formula_sum   'Ca10 Bi4 Pb2'
_cell_volume   533.95383374
_cell_formula_units_Z   2
loop_
 _symmetry_equiv_pos_site_id
 _symmetry_equiv_pos_as_xyz
  1  'x, y, z'
loop_
 _atom_site_type_symbol
 _atom_site_label
 _atom_site_symmetry_multiplicity
 _atom_site_fract_x
 _atom_site_fract_y
 _atom_site_fract_z
 _atom_site_occupancy
  Ca  Ca0  1  0.66744754  0.32978410  0.50600091  1
  Ca  Ca1  1  0.32978410  0.66744754  0.50600091  1
  Ca  Ca2  1  0.32978410  0.66744754  0.99399909  1
  Ca  Ca3  1  0.66744754  0.32978410  0.99399909  1
  Ca  Ca4  1  0.72153333  0.72153333  0.25000000  1
  Ca  Ca5  1  0.27629652  0.00078813  0.25000000  1
  Ca  Ca6  1  0.00078813  0.27629652  0.25000000  1
  Ca  Ca7  1  0.27246483  0.27246483  0.75000000  1
  Ca  Ca8  1  0.72536803  0.00508328  0.75000000  1
  Ca  Ca9  1  0.00508328  0.72536803  0.75000000  1
  Bi  Bi0  1  0.37759268  0.37759268  0.25000000  1
  Bi  Bi1  1  0.62464275  0.99721588  0.25000000  1
  Bi  Bi2  1  0.99721588  0.62464275  0.25000000  1
  Bi  Bi3  1  0.62818104  0.62818104  0.75000000  1
  Pb  Pb0  1  0.37502238  0.00134786  0.75000000  1
  Pb  Pb1  1  0.00134786  0.37502238  0.75000000  1
loop_
_geom_bond_atom_site_label_1
_geom_bond_atom_site_label_2
_geom_bond_distance
_geom_bond_site_symmetry_2
Ca0 Pb0 3.384642 1_555
Ca0 Pb1 3.398170 1_655
Ca1 Pb1 3.384642 1_555
Ca1 Pb0 3.398170 1_565
Ca2 Pb1 3.384642 1_555
Ca2 Pb0 3.398170 1_565
Ca3 Pb0 3.384642 1_555
Ca3 Pb1 3.398170 1_655
Ca5 Pb0 3.667416 1_555
Ca5 Pb0 3.667416 1_554
Ca6 Pb1 3.667416 1_555
Ca6 Pb1 3.667416 1_554
Ca7 Pb0 3.115487 1_555
Ca7 Pb1 3.115487 1_555
Ca8 Pb1 3.103637 1_655
Ca8 Pb0 3.246902 1_555
Ca9 Pb0 3.103637 1_565
Ca9 Pb1 3.246902 1_555
Bi0 Ca5 3.147005 1_555
Bi0 Ca6 3.147005 1_555
Bi0 Ca4 3.205153 1_555
Bi0 Ca1 3.463983 1_555
Bi0 Ca2 3.463983 1_554
Bi0 Ca0 3.463983 1_555
Bi0 Ca3 3.463983 1_554
Bi0 Ca7 3.683531 1_555
Bi0 Ca7 3.683531 1_554
Bi1 Ca4 3.119282 1_555
Bi1 Ca6 3.151839 1_665
Bi1 Ca5 3.262289 1_565
Bi1 Ca0 3.439477 1_565
Bi1 Ca3 3.439477 1_564
Bi1 Ca1 3.443137 1_555
Bi1 Ca2 3.443137 1_554
Bi1 Ca8 3.664143 1_565
Bi1 Ca8 3.664143 1_564
Bi2 Ca4 3.119282 1_555
Bi2 Ca5 3.151839 1_665
Bi2 Ca6 3.262289 1_655
Bi2 Ca1 3.439477 1_655
Bi2 Ca2 3.439477 1_654
Bi2 Ca0 3.443137 1_555
Bi2 Ca3 3.443137 1_554
Bi2 Ca9 3.664143 1_654
Bi2 Ca9 3.664143 1_655
Bi3 Ca8 3.157968 1_565
Bi3 Ca9 3.157968 1_655
Bi3 Ca7 3.314888 1_555
Bi3 Ca3 3.447087 1_555
Bi3 Ca0 3.447087 1_555
Bi3 Ca2 3.447087 1_555
Bi3 Ca1 3.447087 1_555
Bi3 Ca4 3.655876 1_555
Bi3 Ca4 3.655876 1_556
