# generated using pymatgen
data_Ca6MnRuN6
_symmetry_space_group_name_H-M   'P 1'
_cell_length_a   6.65881220
_cell_length_b   6.65881208
_cell_length_c   5.00356883
_cell_angle_alpha   90.00000000
_cell_angle_beta   90.00000000
_cell_angle_gamma   101.17908260
_symmetry_Int_Tables_number   1
_chemical_formula_structural   Ca6MnRuN6
_chemical_formula_sum   'Ca6 Mn1 Ru1 N6'
_cell_volume   217.64761959
_cell_formula_units_Z   1
loop_
 _symmetry_equiv_pos_site_id
 _symmetry_equiv_pos_as_xyz
  1  'x, y, z'
loop_
 _atom_site_type_symbol
 _atom_site_label
 _atom_site_symmetry_multiplicity
 _atom_site_fract_x
 _atom_site_fract_y
 _atom_site_fract_z
 _atom_site_occupancy
  Ca  Ca0  1  0.66901940  0.90209956  0.75000000  1
  Ca  Ca1  1  0.39338662  0.60661338  0.25000000  1
  Ca  Ca2  1  0.90280770  0.66937917  0.25000000  1
  Ca  Ca3  1  0.60746891  0.39253109  0.75000000  1
  Ca  Ca4  1  0.33062083  0.09719230  0.25000000  1
  Ca  Ca5  1  0.09790044  0.33098060  0.75000000  1
  Mn  Mn0  1  0.19767650  0.80232350  0.75000000  1
  Ru  Ru0  1  0.80735181  0.19264819  0.25000000  1
  N  N0  1  0.67397322  0.92036604  0.25000000  1
  N  N1  1  0.37109073  0.62890927  0.75000000  1
  N  N2  1  0.61885263  0.38114737  0.25000000  1
  N  N3  1  0.93362463  0.68340737  0.75000000  1
  N  N4  1  0.31659263  0.06637537  0.75000000  1
  N  N5  1  0.07963396  0.32602678  0.25000000  1
loop_
_geom_bond_atom_site_label_1
_geom_bond_atom_site_label_2
_geom_bond_distance
_geom_bond_site_symmetry_2
Ca0 N1 2.417752 1_555
Ca0 N3 2.493992 1_555
Ca0 N0 2.504646 1_556
Ca0 N0 2.504646 1_555
Ca0 N4 2.774737 1_565
Ca1 N2 2.319917 1_555
Ca1 N1 2.512281 1_554
Ca1 N1 2.512281 1_555
Ca1 N0 2.518351 1_555
Ca1 N5 2.518351 1_555
Ca2 N2 2.419015 1_555
Ca2 N0 2.470320 1_555
Ca2 N3 2.510444 1_555
Ca2 N3 2.510444 1_554
Ca2 N5 2.767217 1_655
Ca3 N1 2.432197 1_555
Ca3 N2 2.504525 1_555
Ca3 N2 2.504525 1_556
Ca3 N4 2.614804 1_555
Ca3 N3 2.614804 1_555
Ca4 N2 2.419015 1_555
Ca4 N5 2.470320 1_555
Ca4 N4 2.510444 1_555
Ca4 N4 2.510444 1_554
Ca4 N0 2.767217 1_545
Ca5 N1 2.417752 1_555
Ca5 N4 2.493992 1_555
Ca5 N5 2.504646 1_555
Ca5 N5 2.504646 1_556
Ca5 N3 2.774737 1_455
Mn0 N4 1.782884 1_565
Mn0 N3 1.782884 1_455
Mn0 N1 1.784334 1_555
N0 Ru0 1.857863 1_565
N2 Ru0 1.939550 1_555
N5 Ru0 1.857863 1_455
