# generated using pymatgen
data_CaInBO4
_symmetry_space_group_name_H-M   'P 1'
_cell_length_a   3.43357230
_cell_length_b   9.53956623
_cell_length_c   10.35572622
_cell_angle_alpha   90.00000000
_cell_angle_beta   90.00000000
_cell_angle_gamma   90.00000000
_symmetry_Int_Tables_number   1
_chemical_formula_structural   CaInBO4
_chemical_formula_sum   'Ca4 In4 B4 O16'
_cell_volume   339.19964163
_cell_formula_units_Z   4
loop_
 _symmetry_equiv_pos_site_id
 _symmetry_equiv_pos_as_xyz
  1  'x, y, z'
loop_
 _atom_site_type_symbol
 _atom_site_label
 _atom_site_symmetry_multiplicity
 _atom_site_fract_x
 _atom_site_fract_y
 _atom_site_fract_z
 _atom_site_occupancy
  Ca  Ca0  1  0.25000000  0.65668761  0.08743798  1
  Ca  Ca1  1  0.75000000  0.34331239  0.91256202  1
  Ca  Ca2  1  0.75000000  0.15668761  0.41256202  1
  Ca  Ca3  1  0.25000000  0.84331239  0.58743798  1
  In  In0  1  0.25000000  0.06973606  0.11295509  1
  In  In1  1  0.75000000  0.93026394  0.88704491  1
  In  In2  1  0.75000000  0.56973606  0.38704491  1
  In  In3  1  0.25000000  0.43026394  0.61295509  1
  B  B0  1  0.25000000  0.36623929  0.19095307  1
  B  B1  1  0.75000000  0.63376071  0.80904693  1
  B  B2  1  0.75000000  0.86623929  0.30904693  1
  B  B3  1  0.25000000  0.13376071  0.69095307  1
  O  O0  1  0.25000000  0.48953690  0.26346513  1
  O  O1  1  0.75000000  0.51046310  0.73653487  1
  O  O2  1  0.75000000  0.98953690  0.23653487  1
  O  O3  1  0.25000000  0.01046310  0.76346513  1
  O  O4  1  0.25000000  0.23708141  0.25283711  1
  O  O5  1  0.75000000  0.76291859  0.74716289  1
  O  O6  1  0.75000000  0.73708141  0.24716289  1
  O  O7  1  0.25000000  0.26291859  0.75283711  1
  O  O8  1  0.25000000  0.38050750  0.05981149  1
  O  O9  1  0.75000000  0.61949250  0.94018851  1
  O  O10  1  0.75000000  0.88050750  0.44018851  1
  O  O11  1  0.25000000  0.11949250  0.55981149  1
  O  O12  1  0.25000000  0.62226607  0.50340019  1
  O  O13  1  0.75000000  0.37773393  0.49659981  1
  O  O14  1  0.75000000  0.12226607  0.99659981  1
  O  O15  1  0.25000000  0.87773393  0.00340019  1
loop_
_geom_bond_atom_site_label_1
_geom_bond_atom_site_label_2
_geom_bond_distance
_geom_bond_site_symmetry_2
Ca0 O15 2.281213 1_555
Ca0 O9 2.323467 1_554
Ca0 O9 2.323467 1_454
Ca0 O0 2.421879 1_555
Ca0 O6 2.504289 1_555
Ca0 O6 2.504289 1_455
Ca0 O8 2.650126 1_555
Ca1 O14 2.281213 1_555
Ca1 O8 2.323467 1_556
Ca1 O8 2.323467 1_656
Ca1 O1 2.421879 1_555
Ca1 O7 2.504289 1_555
Ca1 O7 2.504289 1_655
Ca1 O9 2.650126 1_555
Ca2 O13 2.281213 1_555
Ca2 O11 2.323467 1_555
Ca2 O11 2.323467 1_655
Ca2 O2 2.421879 1_545
Ca2 O4 2.504289 1_655
Ca2 O4 2.504289 1_555
Ca2 O10 2.650126 1_545
Ca3 O12 2.281213 1_555
Ca3 O10 2.323467 1_455
Ca3 O10 2.323467 1_555
Ca3 O3 2.421879 1_565
Ca3 O5 2.504289 1_455
Ca3 O5 2.504289 1_555
Ca3 O11 2.650126 1_565
In0 O15 2.154520 1_545
In0 O4 2.155663 1_555
In0 O14 2.156469 1_554
In0 O14 2.156469 1_454
In0 O2 2.273865 1_445
In0 O2 2.273865 1_545
In1 O14 2.154520 1_565
In1 O5 2.155663 1_555
In1 O15 2.156469 1_656
In1 O15 2.156469 1_556
In1 O3 2.273865 1_565
In1 O3 2.273865 1_665
In2 O13 2.154520 1_555
In2 O6 2.155663 1_555
In2 O12 2.156469 1_555
In2 O12 2.156469 1_655
In2 O0 2.273865 1_555
In2 O0 2.273865 1_655
In3 O12 2.154520 1_555
In3 O7 2.155663 1_555
In3 O13 2.156469 1_555
In3 O13 2.156469 1_455
In3 O1 2.273865 1_555
In3 O1 2.273865 1_455
B0 O8 1.364870 1_555
B0 O4 1.388809 1_555
B0 O0 1.395469 1_555
B1 O9 1.364870 1_555
B1 O5 1.388809 1_555
B1 O1 1.395469 1_555
B2 O10 1.364870 1_555
B2 O6 1.388809 1_555
B2 O2 1.395469 1_555
B3 O11 1.364870 1_555
B3 O7 1.388809 1_555
B3 O3 1.395469 1_555
