# generated using pymatgen
data_Rb4ZrPtI12
_symmetry_space_group_name_H-M   'P 1'
_cell_length_a   8.03972990
_cell_length_b   8.03972990
_cell_length_c   11.87023732
_cell_angle_alpha   90.00000000
_cell_angle_beta   90.00000000
_cell_angle_gamma   90.00000000
_symmetry_Int_Tables_number   1
_chemical_formula_structural   Rb4ZrPtI12
_chemical_formula_sum   'Rb4 Zr1 Pt1 I12'
_cell_volume   767.25957914
_cell_formula_units_Z   1
loop_
 _symmetry_equiv_pos_site_id
 _symmetry_equiv_pos_as_xyz
  1  'x, y, z'
loop_
 _atom_site_type_symbol
 _atom_site_label
 _atom_site_symmetry_multiplicity
 _atom_site_fract_x
 _atom_site_fract_y
 _atom_site_fract_z
 _atom_site_occupancy
  Rb  Rb0  1  0.50000000  0.00000000  0.75935080  1
  Rb  Rb1  1  0.00000000  0.50000000  0.75935080  1
  Rb  Rb2  1  0.50000000  0.00000000  0.24064920  1
  Rb  Rb3  1  0.00000000  0.50000000  0.24064920  1
  Zr  Zr0  1  0.50000000  0.50000000  0.50000000  1
  Pt  Pt0  1  0.00000000  0.00000000  0.00000000  1
  I  I0  1  0.73708245  0.20856675  0.00000000  1
  I  I1  1  0.69626096  0.20263859  0.50000000  1
  I  I2  1  0.30373904  0.79736141  0.50000000  1
  I  I3  1  0.26291755  0.79143325  0.00000000  1
  I  I4  1  0.79736141  0.69626096  0.50000000  1
  I  I5  1  0.20263859  0.30373904  0.50000000  1
  I  I6  1  0.00000000  0.00000000  0.22730834  1
  I  I7  1  0.50000000  0.50000000  0.25600734  1
  I  I8  1  0.00000000  0.00000000  0.77269166  1
  I  I9  1  0.50000000  0.50000000  0.74399266  1
  I  I10  1  0.79143325  0.73708245  0.00000000  1
  I  I11  1  0.20856675  0.26291755  0.00000000  1
loop_
_geom_bond_atom_site_label_1
_geom_bond_atom_site_label_2
_geom_bond_distance
_geom_bond_site_symmetry_2
I0 Pt0 2.698114 1_655
I0 Rb2 3.821625 1_555
I0 Rb0 3.821625 1_554
I0 Rb3 4.256513 1_655
I0 Rb1 4.256513 1_654
I1 Zr0 2.864471 1_555
I1 Rb0 3.823792 1_555
I1 Rb2 3.823792 1_555
I2 Zr0 2.864471 1_555
I2 Rb0 3.823792 1_565
I2 Rb2 3.823792 1_565
I3 Pt0 2.698114 1_565
I3 Rb2 3.821625 1_565
I3 Rb0 3.821625 1_564
I3 Rb3 4.256513 1_555
I3 Rb1 4.256513 1_554
I4 Zr0 2.864471 1_555
I4 Rb1 3.823792 1_655
I4 Rb3 3.823792 1_655
I5 Zr0 2.864471 1_555
I5 Rb1 3.823792 1_555
I5 Rb3 3.823792 1_555
I6 Pt0 2.698204 1_555
I6 Rb2 4.022983 1_455
I6 Rb3 4.022983 1_545
I6 Rb3 4.022983 1_555
I6 Rb2 4.022983 1_555
I7 Zr0 2.896251 1_555
I7 Rb2 4.023997 1_555
I7 Rb3 4.023997 1_655
I7 Rb3 4.023997 1_555
I7 Rb2 4.023997 1_565
I8 Pt0 2.698204 1_556
I8 Rb1 4.022983 1_555
I8 Rb1 4.022983 1_545
I8 Rb0 4.022983 1_455
I8 Rb0 4.022983 1_555
I9 Zr0 2.896251 1_555
I9 Rb1 4.023997 1_555
I9 Rb0 4.023997 1_565
I9 Rb1 4.023997 1_655
I9 Rb0 4.023997 1_555
I10 Pt0 2.698114 1_665
I10 Rb3 3.821625 1_655
I10 Rb1 3.821625 1_654
I10 Rb2 4.256513 1_565
I10 Rb0 4.256513 1_564
I11 Pt0 2.698114 1_555
I11 Rb3 3.821625 1_555
I11 Rb1 3.821625 1_554
I11 Rb2 4.256513 1_555
I11 Rb0 4.256513 1_554
