# generated using pymatgen
data_Ca10CrMo3N14
_symmetry_space_group_name_H-M   'P 1'
_cell_length_a   6.12993801
_cell_length_b   8.80297463
_cell_length_c   8.88446518
_cell_angle_alpha   115.40706392
_cell_angle_beta   95.92421853
_cell_angle_gamma   88.96934041
_symmetry_Int_Tables_number   1
_chemical_formula_structural   Ca10CrMo3N14
_chemical_formula_sum   'Ca10 Cr1 Mo3 N14'
_cell_volume   430.55498705
_cell_formula_units_Z   1
loop_
 _symmetry_equiv_pos_site_id
 _symmetry_equiv_pos_as_xyz
  1  'x, y, z'
loop_
 _atom_site_type_symbol
 _atom_site_label
 _atom_site_symmetry_multiplicity
 _atom_site_fract_x
 _atom_site_fract_y
 _atom_site_fract_z
 _atom_site_occupancy
  Ca  Ca0  1  0.83126062  0.59420206  0.32217206  1
  Ca  Ca1  1  0.25970654  0.98369097  0.54732850  1
  Ca  Ca2  1  0.70751435  0.41662983  0.85028864  1
  Ca  Ca3  1  0.29390309  0.57930871  0.14456741  1
  Ca  Ca4  1  0.40284662  0.78888405  0.92840953  1
  Ca  Ca5  1  0.59791011  0.20893249  0.07828752  1
  Ca  Ca6  1  0.16624554  0.40087645  0.67761671  1
  Ca  Ca7  1  0.89880056  0.84554735  0.75281272  1
  Ca  Ca8  1  0.10562276  0.16050054  0.24856429  1
  Ca  Ca9  1  0.74115955  0.02139116  0.45018354  1
  Cr  Cr0  1  0.57853063  0.35354159  0.47692867  1
  Mo  Mo0  1  0.41779381  0.64181253  0.52413243  1
  Mo  Mo1  1  0.12457360  0.21286233  0.91919051  1
  Mo  Mo2  1  0.87884166  0.78714138  0.08056403  1
  N  N0  1  0.52101342  0.54574663  0.67993420  1
  N  N1  1  0.47558031  0.44222277  0.32067055  1
  N  N2  1  0.13406436  0.70516821  0.53676583  1
  N  N3  1  0.84469920  0.30038089  0.46028537  1
  N  N4  1  0.41381386  0.19258171  0.46710660  1
  N  N5  1  0.59255930  0.81545889  0.53526115  1
  N  N6  1  0.95593686  0.12998857  0.71278577  1
  N  N7  1  0.05105152  0.88074856  0.28488605  1
  N  N8  1  0.23666696  0.04475359  0.97250060  1
  N  N9  1  0.76058897  0.95117215  0.02386359  1
  N  N10  1  0.36779046  0.32586921  0.90213502  1
  N  N11  1  0.96094395  0.35543927  0.08972071  1
  N  N12  1  0.04290266  0.64139904  0.91165968  1
  N  N13  1  0.63767773  0.67374906  0.10137630  1
loop_
_geom_bond_atom_site_label_1
_geom_bond_atom_site_label_2
_geom_bond_distance
_geom_bond_site_symmetry_2
Ca0 N2 2.402314 1_655
Ca0 N11 2.422550 1_555
Ca0 N13 2.532761 1_555
Ca0 N1 2.574372 1_555
Ca0 N5 2.612270 1_555
Ca0 N7 3.036314 1_655
Ca1 N7 2.346648 1_555
Ca1 N4 2.471414 1_565
Ca1 N6 2.478129 1_465
Ca1 N5 2.483544 1_555
Ca1 N2 2.543427 1_555
Ca2 N10 2.400196 1_555
Ca2 N0 2.441683 1_555
Ca2 N13 2.472306 1_556
Ca2 N12 2.725483 1_655
Ca2 N11 2.738540 1_556
Ca2 N6 2.789096 1_555
Ca3 N13 2.404763 1_555
Ca3 N10 2.421444 1_554
Ca3 N1 2.521225 1_555
Ca3 N12 2.689047 1_554
Ca3 N11 2.720717 1_455
Ca3 N7 2.866014 1_555
Ca4 N8 2.346745 1_565
Ca4 N0 2.489771 1_555
Ca4 N9 2.501662 1_556
Ca4 N13 2.507642 1_556
Ca4 N12 2.538816 1_555
Ca5 N9 2.335279 1_545
Ca5 N1 2.429032 1_555
Ca5 N10 2.524526 1_554
Ca5 N8 2.528954 1_554
Ca5 N11 2.563221 1_555
Ca6 N12 2.422281 1_555
Ca6 N3 2.491446 1_455
Ca6 N0 2.534586 1_555
Ca6 N10 2.556049 1_555
Ca6 N4 2.589629 1_555
Ca6 N6 2.877347 1_455
Ca7 N2 2.400656 1_655
Ca7 N9 2.419285 1_556
Ca7 N5 2.481857 1_555
Ca7 N6 2.709268 1_565
Ca7 N8 2.744696 1_665
Ca7 N12 2.804183 1_655
Ca8 N8 2.435554 1_554
Ca8 N3 2.485037 1_455
Ca8 N4 2.492030 1_555
Ca8 N7 2.648494 1_545
Ca8 N11 2.736404 1_455
Ca8 N9 2.822465 1_445
Ca9 N6 2.363865 1_555
Ca9 N5 2.462669 1_545
Ca9 N4 2.465595 1_555
Ca9 N7 2.495832 1_645
Ca9 N3 2.509523 1_555
Cr0 N3 1.692905 1_555
Cr0 N4 1.721039 1_555
Cr0 N1 1.914779 1_555
Cr0 N0 1.931648 1_555
Mo0 N2 1.816674 1_555
Mo0 N5 1.844303 1_555
Mo0 N0 1.958564 1_555
Mo0 N1 1.965844 1_555
Mo1 N8 1.839600 1_555
Mo1 N6 1.857815 1_455
Mo1 N10 1.861375 1_555
Mo1 N11 1.874432 1_456
Mo2 N9 1.837221 1_555
Mo2 N7 1.854943 1_655
Mo2 N13 1.866519 1_555
Mo2 N12 1.876791 1_654
