# generated using pymatgen
data_Cs11Rb(AsSe3)4
_symmetry_space_group_name_H-M   'P 1'
_cell_length_a   10.64215338
_cell_length_b   10.64215267
_cell_length_c   10.64215304
_cell_angle_alpha   89.90444730
_cell_angle_beta   89.90444368
_cell_angle_gamma   89.90443727
_symmetry_Int_Tables_number   1
_chemical_formula_structural   Cs11Rb(AsSe3)4
_chemical_formula_sum   'Cs11 Rb1 As4 Se12'
_cell_volume   1205.27649977
_cell_formula_units_Z   1
loop_
 _symmetry_equiv_pos_site_id
 _symmetry_equiv_pos_as_xyz
  1  'x, y, z'
loop_
 _atom_site_type_symbol
 _atom_site_label
 _atom_site_symmetry_multiplicity
 _atom_site_fract_x
 _atom_site_fract_y
 _atom_site_fract_z
 _atom_site_occupancy
  Cs  Cs0  1  0.81094397  0.18670826  0.68683035  1
  Cs  Cs1  1  0.68683035  0.81094397  0.18670826  1
  Cs  Cs2  1  0.18670826  0.68683035  0.81094397  1
  Cs  Cs3  1  0.31458675  0.31458675  0.31458675  1
  Cs  Cs4  1  0.18751690  0.31333309  0.68842741  1
  Cs  Cs5  1  0.31333309  0.68842741  0.18751790  1
  Cs  Cs6  1  0.68842741  0.18751690  0.31333209  1
  Cs  Cs7  1  0.81324664  0.81324664  0.81324664  1
  Cs  Cs8  1  0.42262015  0.07587597  0.92624063  1
  Cs  Cs9  1  0.07587597  0.92624063  0.42262015  1
  Cs  Cs10  1  0.92624063  0.42262015  0.07587597  1
  Rb  Rb0  1  0.58959640  0.58959640  0.58959640  1
  As  As0  1  0.02195048  0.02195048  0.02195048  1
  As  As1  1  0.47570716  0.97609964  0.52066092  1
  As  As2  1  0.97609964  0.52066092  0.47570716  1
  As  As3  1  0.52066092  0.47570716  0.97609964  1
  Se  Se0  1  0.30490086  0.40811807  0.99075922  1
  Se  Se1  1  0.80668545  0.09230503  0.01084223  1
  Se  Se2  1  0.69073508  0.90346085  0.51119814  1
  Se  Se3  1  0.09230503  0.01084223  0.80668545  1
  Se  Se4  1  0.51119814  0.69073508  0.90346085  1
  Se  Se5  1  0.01084223  0.80668545  0.09230503  1
  Se  Se6  1  0.40811807  0.99075922  0.30490086  1
  Se  Se7  1  0.99075922  0.30490086  0.40811807  1
  Se  Se8  1  0.90346085  0.51119814  0.69073508  1
  Se  Se9  1  0.59293096  0.48786607  0.18985630  1
  Se  Se10  1  0.48786607  0.18985630  0.59293096  1
  Se  Se11  1  0.18985630  0.59293096  0.48786607  1
loop_
_geom_bond_atom_site_label_1
_geom_bond_atom_site_label_2
_geom_bond_distance
_geom_bond_site_symmetry_2
Cs0 Se10 3.582206 1_555
Cs0 Se1 3.590186 1_556
Cs0 Se8 3.592793 1_555
Cs0 Se7 3.744124 1_555
Cs0 Se3 3.752552 1_655
Cs0 Se2 3.775728 1_545
Cs1 Se9 3.582205 1_555
Cs1 Se5 3.590186 1_655
Cs1 Se2 3.592792 1_555
Cs1 Se6 3.744123 1_555
Cs1 Se1 3.752552 1_565
Cs1 Se4 3.775728 1_554
Cs2 Se11 3.582205 1_555
Cs2 Se3 3.590185 1_565
Cs2 Se4 3.592793 1_555
Cs2 Se0 3.744123 1_555
Cs2 Se5 3.752552 1_556
Cs2 Se8 3.775729 1_455
Cs3 Se6 3.587094 1_545
Cs3 Se0 3.587094 1_554
Cs3 Se7 3.587094 1_455
Cs3 Se11 3.732831 1_555
Cs3 Se10 3.732831 1_555
Cs3 Se9 3.732831 1_555
Cs4 Se10 3.599435 1_555
Cs4 Se0 3.599798 1_555
Cs4 Se3 3.600921 1_555
Cs4 Se7 3.648806 1_455
Cs4 Se11 3.659088 1_555
Cs4 Se8 3.681256 1_455
Cs5 Se11 3.599425 1_555
Cs5 Se6 3.599794 1_555
Cs5 Se5 3.600924 1_555
Cs5 Se0 3.648812 1_554
Cs5 Se9 3.659088 1_555
Cs5 Se4 3.681265 1_554
Cs6 Se9 3.599431 1_555
Cs6 Se7 3.599801 1_555
Cs6 Se1 3.600912 1_555
Cs6 Se6 3.648806 1_545
Cs6 Se10 3.659097 1_555
Cs6 Se2 3.681262 1_545
Cs7 Se8 3.599135 1_555
Cs7 Se2 3.599136 1_555
Cs7 Se4 3.599136 1_555
Cs7 Se1 3.642262 1_566
Cs7 Se5 3.642263 1_656
Cs7 Se3 3.642263 1_665
Cs8 Se3 3.805373 1_555
Cs8 Se10 3.809972 1_555
Cs8 Se0 3.812223 1_555
Cs8 Se6 4.131528 1_546
Cs8 Se1 4.190733 1_556
Cs8 Se4 4.211486 1_545
Cs9 Se5 3.805373 1_555
Cs9 Se11 3.809971 1_555
Cs9 Se6 3.812224 1_555
Cs9 Se7 4.131528 1_465
Cs9 Se3 4.190733 1_565
Cs9 Se2 4.211486 1_455
Cs10 Se1 3.805373 1_555
Cs10 Se9 3.809971 1_555
Cs10 Se7 3.812224 1_555
Cs10 Se0 4.131528 1_654
Cs10 Se5 4.190733 1_655
Cs10 Se8 4.211486 1_554
Rb0 Se4 3.607102 1_555
Rb0 Se8 3.607102 1_555
Rb0 Se2 3.607102 1_555
As0 Se5 2.411969 1_545
As0 Se1 2.411969 1_455
As0 Se3 2.411969 1_554
As1 Se10 2.406300 1_565
As1 Se6 2.412048 1_555
As1 Se2 2.416175 1_555
As2 Se11 2.406300 1_655
As2 Se7 2.412047 1_555
As2 Se8 2.416176 1_555
As3 Se9 2.406300 1_556
As3 Se0 2.412048 1_555
As3 Se4 2.416175 1_555
