# generated using pymatgen
data_Ca2AgPdPt
_symmetry_space_group_name_H-M   'P 1'
_cell_length_a   5.58049839
_cell_length_b   5.58049820
_cell_length_c   5.58049805
_cell_angle_alpha   132.89390695
_cell_angle_beta   117.45865854
_cell_angle_gamma   81.85079685
_symmetry_Int_Tables_number   1
_chemical_formula_structural   Ca2AgPdPt
_chemical_formula_sum   'Ca2 Ag1 Pd1 Pt1'
_cell_volume   108.94532763
_cell_formula_units_Z   1
loop_
 _symmetry_equiv_pos_site_id
 _symmetry_equiv_pos_as_xyz
  1  'x, y, z'
loop_
 _atom_site_type_symbol
 _atom_site_label
 _atom_site_symmetry_multiplicity
 _atom_site_fract_x
 _atom_site_fract_y
 _atom_site_fract_z
 _atom_site_occupancy
  Ca  Ca0  1  0.70331849  0.20197362  0.50134487  1
  Ca  Ca1  1  0.29937125  0.79802638  0.50134487  1
  Ag  Ag0  1  0.99988865  1.00000000  0.99988865  1
  Pd  Pd0  1  0.26996859  0.50000000  0.76996859  1
  Pt  Pt0  1  0.72745301  0.50000000  0.22745301  1
loop_
_geom_bond_atom_site_label_1
_geom_bond_atom_site_label_2
_geom_bond_distance
_geom_bond_site_symmetry_2
Ca0 Pd0 2.956040 1_655
Ca0 Pt0 2.972221 1_555
Ca0 Pt0 3.096708 1_556
Ca0 Pt0 3.096708 1_545
Ca0 Pd0 3.109741 1_544
Ca0 Pd0 3.109742 1_555
Ca1 Pd0 2.956040 1_555
Ca1 Pt0 2.972221 1_455
Ca1 Pt0 3.096708 1_566
Ca1 Pt0 3.096708 1_555
Ca1 Pd0 3.109741 1_554
Ca1 Pd0 3.109742 1_565
Ag0 Pd0 2.724149 1_666
Ag0 Pd0 2.724149 1_655
Ag0 Pt0 2.732010 1_555
Ag0 Pt0 2.732011 1_566
Ag0 Ca0 3.353087 1_565
Ag0 Ca1 3.353087 1_555
Ag0 Ca1 3.359909 1_666
Ag0 Ca0 3.359909 1_555
Ag0 Ca0 3.359909 1_566
Ag0 Ca1 3.359909 1_655
Ag0 Ca1 3.367632 1_656
Ag0 Ca0 3.367632 1_666
Pd0 Pt0 2.650422 1_556
