# generated using pymatgen
data_Y2Si5IrPd2
_symmetry_space_group_name_H-M   'P 1'
_cell_length_a   8.12490249
_cell_length_b   8.16612059
_cell_length_c   8.16612034
_cell_angle_alpha   137.68531994
_cell_angle_beta   104.54859896
_cell_angle_gamma   90.61089843
_symmetry_Int_Tables_number   1
_chemical_formula_structural   Y2Si5IrPd2
_chemical_formula_sum   'Y4 Si10 Ir2 Pd4'
_cell_volume   336.63326083
_cell_formula_units_Z   2
loop_
 _symmetry_equiv_pos_site_id
 _symmetry_equiv_pos_as_xyz
  1  'x, y, z'
loop_
 _atom_site_type_symbol
 _atom_site_label
 _atom_site_symmetry_multiplicity
 _atom_site_fract_x
 _atom_site_fract_y
 _atom_site_fract_z
 _atom_site_occupancy
  Y  Y0  1  0.86333047  0.63031916  0.23301231  1
  Y  Y1  1  0.13666953  0.36968084  0.76698769  1
  Y  Y2  1  0.39659614  0.12822654  0.26836960  1
  Y  Y3  1  0.60340386  0.87177346  0.73163040  1
  Si  Si0  1  0.50000000  0.73837637  0.23837637  1
  Si  Si1  1  0.50000000  0.26162363  0.76162363  1
  Si  Si2  1  0.22960113  0.97987063  0.75293770  1
  Si  Si3  1  0.77039887  0.52333657  0.75026950  1
  Si  Si4  1  0.77039887  0.02012937  0.24706230  1
  Si  Si5  1  0.22960113  0.47666343  0.24973050  1
  Si  Si6  1  0.04019105  0.88825130  0.15194075  1
  Si  Si7  1  0.95980895  0.11174870  0.84805925  1
  Si  Si8  1  0.73370072  0.38790384  0.34579789  1
  Si  Si9  1  0.26629928  0.61209616  0.65420211  1
  Ir  Ir0  1  0.47555835  0.36208437  0.11347397  1
  Ir  Ir1  1  0.52444165  0.63791563  0.88652603  1
  Pd  Pd0  1  0.00000000  0.74934859  0.74934859  1
  Pd  Pd1  1  1.00000000  0.25065141  0.25065141  1
  Pd  Pd2  1  0.25044235  0.86314678  0.38729657  1
  Pd  Pd3  1  0.74955765  0.13685322  0.61270343  1
loop_
_geom_bond_atom_site_label_1
_geom_bond_atom_site_label_2
_geom_bond_distance
_geom_bond_site_symmetry_2
Si0 Y0 3.091660 1_555
Si0 Y1 3.091662 1_554
Si0 Y3 3.147721 1_555
Si0 Y2 3.147722 1_565
Si1 Y1 3.091660 1_555
Si1 Y0 3.091662 1_556
Si1 Y2 3.147721 1_555
Si1 Y3 3.147722 1_545
Si2 Si7 2.497359 1_465
Si2 Si9 2.513447 1_555
Si2 Y3 3.182617 1_555
Si2 Y1 3.204827 1_565
Si2 Y0 3.252382 1_455
Si2 Y2 3.252595 1_566
Si3 Si6 2.497363 1_656
Si3 Si8 2.513444 1_555
Si3 Y2 3.182617 1_555
Si3 Y0 3.204830 1_556
Si3 Y1 3.252385 1_655
Si3 Y3 3.252595 1_555
Si4 Si6 2.497359 1_645
Si4 Si8 2.513447 1_555
Si4 Y2 3.182617 1_555
Si4 Y0 3.204827 1_545
Si4 Y1 3.252382 1_655
Si4 Y3 3.252595 1_544
Si5 Si7 2.497363 1_454
Si5 Si9 2.513444 1_555
Si5 Y3 3.182617 1_555
Si5 Y1 3.204830 1_554
Si5 Y0 3.252385 1_455
Si5 Y2 3.252595 1_555
Si6 Y2 2.978243 1_565
Si6 Y0 3.068455 1_455
Si6 Y1 3.170249 1_565
Si6 Y1 3.170260 1_554
Si7 Y3 2.978243 1_545
Si7 Y1 3.068455 1_655
Si7 Y0 3.170249 1_545
Si7 Y0 3.170260 1_556
Si8 Y0 3.002612 1_555
Si8 Y2 3.069446 1_555
Si8 Y3 3.164487 1_555
Si8 Y3 3.164492 1_544
Si9 Y1 3.002612 1_555
Si9 Y3 3.069446 1_555
Si9 Y2 3.164487 1_555
Si9 Y2 3.164492 1_566
Ir0 Si8 2.332947 1_555
Ir0 Si5 2.392562 1_555
Ir0 Si2 2.392562 1_544
Ir0 Si1 2.402530 1_554
Ir0 Si0 2.402530 1_555
Ir0 Y2 3.100418 1_555
Ir0 Y3 3.175720 1_555
Ir0 Y3 3.175720 1_544
Ir0 Y0 3.289786 1_555
Ir0 Y1 3.455460 1_554
Ir1 Si9 2.332947 1_555
Ir1 Si3 2.392562 1_555
Ir1 Si4 2.392562 1_566
Ir1 Si0 2.402530 1_556
Ir1 Si1 2.402530 1_555
Ir1 Y3 3.100418 1_555
Ir1 Y2 3.175720 1_555
Ir1 Y2 3.175720 1_566
Ir1 Y1 3.289786 1_555
Ir1 Y0 3.455460 1_556
Pd0 Si7 2.477767 1_465
Pd0 Si6 2.477770 1_556
Pd0 Si8 2.479861 1_455
Pd0 Si9 2.479864 1_555
Pd0 Si3 2.615463 1_455
Pd0 Si2 2.615463 1_555
Pd0 Y3 3.384086 1_455
Pd0 Y2 3.384086 1_566
Pd0 Y0 3.394093 1_455
Pd0 Y1 3.394095 1_555
Pd1 Si6 2.477767 1_645
Pd1 Si7 2.477770 1_554
Pd1 Si9 2.479861 1_655
Pd1 Si8 2.479864 1_555
Pd1 Si5 2.615463 1_655
Pd1 Si4 2.615463 1_555
Pd1 Y2 3.384086 1_655
Pd1 Y3 3.384086 1_544
Pd1 Y1 3.394093 1_655
Pd1 Y0 3.394095 1_555
Pd2 Si6 2.365328 1_555
Pd2 Si2 2.429196 1_555
Pd2 Si5 2.429200 1_555
Pd2 Si1 2.465502 1_565
Pd2 Si0 2.465506 1_555
Pd2 Y0 3.071449 1_455
Pd2 Y1 3.183083 1_565
Pd2 Y1 3.183093 1_554
Pd2 Y2 3.266921 1_565
Pd2 Y3 3.433248 1_555
Pd3 Si7 2.365328 1_555
Pd3 Si4 2.429196 1_555
Pd3 Si3 2.429200 1_555
Pd3 Si0 2.465502 1_545
Pd3 Si1 2.465506 1_555
Pd3 Y1 3.071449 1_655
Pd3 Y0 3.183083 1_545
Pd3 Y0 3.183093 1_556
Pd3 Y3 3.266921 1_545
Pd3 Y2 3.433248 1_555
