# generated using pymatgen
data_Y10Ga4Ru5Rh
_symmetry_space_group_name_H-M   'P 1'
_cell_length_a   8.30669426
_cell_length_b   8.30754255
_cell_length_c   8.30754252
_cell_angle_alpha   109.38409944
_cell_angle_beta   109.59429313
_cell_angle_gamma   109.43948242
_symmetry_Int_Tables_number   1
_chemical_formula_structural   Y10Ga4Ru5Rh
_chemical_formula_sum   'Y10 Ga4 Ru5 Rh1'
_cell_volume   441.29369324
_cell_formula_units_Z   1
loop_
 _symmetry_equiv_pos_site_id
 _symmetry_equiv_pos_as_xyz
  1  'x, y, z'
loop_
 _atom_site_type_symbol
 _atom_site_label
 _atom_site_symmetry_multiplicity
 _atom_site_fract_x
 _atom_site_fract_y
 _atom_site_fract_z
 _atom_site_occupancy
  Y  Y0  1  0.25000000  0.68277663  0.43277663  1
  Y  Y1  1  0.75000000  0.81628441  0.06628441  1
  Y  Y2  1  0.43512602  0.25039459  0.68199927  1
  Y  Y3  1  0.68478973  0.43392383  0.25189602  1
  Y  Y4  1  0.06487398  0.74687325  0.81526858  1
  Y  Y5  1  0.81521027  0.06710629  0.74913309  1
  Y  Y6  1  0.21659033  0.21870279  0.21969140  1
  Y  Y7  1  0.50001363  0.99993224  0.28264894  1
  Y  Y8  1  0.28340967  0.50310107  0.00211146  1
  Y  Y9  1  0.99998637  0.28263531  0.49991761  1
  Ga  Ga0  1  0.58481054  0.58499507  0.58525823  1
  Ga  Ga1  1  0.50005433  0.99788417  0.91335014  1
  Ga  Ga2  1  0.91518946  0.50044769  0.00018453  1
  Ga  Ga3  1  0.99994567  0.91329581  0.49782984  1
  Ru  Ru0  1  0.75000000  0.37786276  0.62786276  1
  Ru  Ru1  1  0.87028303  0.24973744  0.12075308  1
  Ru  Ru2  1  0.12335602  0.87430678  0.24981472  1
  Ru  Ru3  1  0.62971597  0.75046805  0.37945340  1
  Ru  Ru4  1  0.37664398  0.62645870  0.75095177  1
  Rh  Rh0  1  0.25000000  0.12281611  0.87281611  1
loop_
_geom_bond_atom_site_label_1
_geom_bond_atom_site_label_2
_geom_bond_distance
_geom_bond_site_symmetry_2
Ga0 Ru3 2.568781 1_555
Ga0 Ru0 2.572812 1_555
Ga0 Ru4 2.584888 1_555
Ga0 Y6 3.046043 1_555
Ga0 Y2 3.125906 1_555
Ga0 Y0 3.134214 1_555
Ga0 Y3 3.140663 1_555
Ga0 Y4 3.312966 1_655
Ga0 Y1 3.318785 1_556
Ga0 Y5 3.329919 1_565
Ga1 Ru1 2.564040 1_566
Ga1 Ru4 2.568215 1_555
Ga1 Rh0 2.588985 1_565
Ga1 Y7 3.062475 1_556
Ga1 Y1 3.128724 1_556
Ga1 Y4 3.155775 1_555
Ga1 Y3 3.166902 1_566
Ga1 Y5 3.310498 1_565
Ga1 Y0 3.314746 1_555
Ga1 Y2 3.334581 1_565
Ga2 Ru1 2.568787 1_555
Ga2 Ru0 2.572812 1_554
Ga2 Ru2 2.584883 1_655
Ga2 Y8 3.046045 1_655
Ga2 Y4 3.125906 1_654
Ga2 Y0 3.134215 1_655
Ga2 Y5 3.140665 1_554
Ga2 Y2 3.312966 1_554
Ga2 Y1 3.318785 1_555
Ga2 Y3 3.329917 1_555
Ga3 Ru3 2.564046 1_555
Ga3 Ru2 2.568215 1_655
Ga3 Rh0 2.588985 1_665
Ga3 Y9 3.062477 1_565
Ga3 Y1 3.128724 1_555
Ga3 Y2 3.155775 1_665
Ga3 Y5 3.166897 1_565
Ga3 Y3 3.310492 1_555
Ga3 Y0 3.314746 1_655
Ga3 Y4 3.334581 1_655
Ru0 Y2 2.725127 1_555
Ru0 Y4 2.725127 1_655
Ru0 Y7 2.843133 1_545
Ru0 Y9 2.843137 1_555
Ru0 Y5 3.203813 1_555
Ru0 Y3 3.203818 1_555
Ru1 Y3 2.736993 1_555
Ru1 Y5 2.742957 1_554
Ru1 Y6 2.840026 1_655
Ru1 Y9 2.848481 1_555
Ru1 Y0 3.222303 1_655
Ru1 Y1 3.223364 1_545
Ru2 Y1 2.742439 1_455
Ru2 Y0 2.756049 1_555
Ru2 Y6 2.824641 1_565
Ru2 Y7 2.831607 1_555
Ru2 Y2 3.207940 1_565
Ru2 Y4 3.214573 1_554
Ru3 Y5 2.736999 1_565
Ru3 Y3 2.742939 1_555
Ru3 Y8 2.840023 1_555
Ru3 Y7 2.848497 1_555
Ru3 Y0 3.222301 1_555
Ru3 Y1 3.223366 1_555
Ru4 Y1 2.742435 1_556
Ru4 Y0 2.756056 1_555
Ru4 Y8 2.824625 1_556
Ru4 Y9 2.831608 1_455
Ru4 Y4 3.207937 1_555
Ru4 Y2 3.214572 1_555
Rh0 Y2 2.768833 1_555
Rh0 Y4 2.768833 1_545
Rh0 Y6 2.859274 1_556
Rh0 Y8 2.859274 1_556
Rh0 Y5 3.224406 1_455
Rh0 Y3 3.224408 1_556
