# generated using pymatgen
data_Sc5As2Ir
_symmetry_space_group_name_H-M   'P 1'
_cell_length_a   5.78435285
_cell_length_b   7.89356384
_cell_length_c   7.96443488
_cell_angle_alpha   119.70608570
_cell_angle_beta   90.00000000
_cell_angle_gamma   90.00000000
_symmetry_Int_Tables_number   1
_chemical_formula_structural   Sc5As2Ir
_chemical_formula_sum   'Sc10 As4 Ir2'
_cell_volume   315.85818516
_cell_formula_units_Z   2
loop_
 _symmetry_equiv_pos_site_id
 _symmetry_equiv_pos_as_xyz
  1  'x, y, z'
loop_
 _atom_site_type_symbol
 _atom_site_label
 _atom_site_symmetry_multiplicity
 _atom_site_fract_x
 _atom_site_fract_y
 _atom_site_fract_z
 _atom_site_occupancy
  Sc  Sc0  1  0.00000000  0.66100893  0.32201587  1
  Sc  Sc1  1  0.00000000  0.33899107  0.67798413  1
  Sc  Sc2  1  0.50000000  0.33899107  0.67798413  1
  Sc  Sc3  1  0.50000000  0.66100893  0.32201587  1
  Sc  Sc4  1  0.75000000  0.74897372  0.76813050  1
  Sc  Sc5  1  0.25000000  0.25102628  0.23186950  1
  Sc  Sc6  1  0.75000000  0.98084422  0.23186950  1
  Sc  Sc7  1  0.25000000  0.01915578  0.76813050  1
  Sc  Sc8  1  0.75000000  0.24700337  0.00000000  1
  Sc  Sc9  1  0.25000000  0.75299663  1.00000000  1
  As  As0  1  0.75000000  0.37892641  0.38814644  1
  As  As1  1  0.25000000  0.62107359  0.61185356  1
  As  As2  1  0.75000000  0.99077997  0.61185356  1
  As  As3  1  0.25000000  0.00922003  0.38814644  1
  Ir  Ir0  1  0.75000000  0.59389346  1.00000000  1
  Ir  Ir1  1  0.25000000  0.40610654  0.00000000  1
loop_
_geom_bond_atom_site_label_1
_geom_bond_atom_site_label_2
_geom_bond_distance
_geom_bond_site_symmetry_2
As0 Sc8 2.729545 1_555
As0 Sc6 2.747157 1_545
As0 Sc1 2.870615 1_655
As0 Sc2 2.870615 1_555
As0 Sc0 2.913555 1_655
As0 Sc3 2.913555 1_555
As0 Sc4 2.988265 1_555
As0 Sc5 3.112509 1_555
As0 Sc5 3.112509 1_655
As1 Sc9 2.729545 1_555
As1 Sc7 2.747157 1_565
As1 Sc3 2.870615 1_555
As1 Sc0 2.870615 1_555
As1 Sc2 2.913555 1_555
As1 Sc1 2.913555 1_555
As1 Sc5 2.988265 1_555
As1 Sc4 3.112509 1_555
As1 Sc4 3.112509 1_455
As2 Sc8 2.729545 1_566
As2 Sc4 2.747164 1_555
As2 Sc3 2.870606 1_555
As2 Sc0 2.870606 1_655
As2 Sc1 2.913542 1_665
As2 Sc2 2.913542 1_565
As2 Sc6 2.988270 1_555
As2 Sc7 3.112510 1_565
As2 Sc7 3.112510 1_665
As3 Sc9 2.729545 1_544
As3 Sc5 2.747164 1_555
As3 Sc2 2.870606 1_555
As3 Sc1 2.870606 1_555
As3 Sc3 2.913542 1_545
As3 Sc0 2.913542 1_545
As3 Sc7 2.988270 1_555
As3 Sc6 3.112510 1_445
As3 Sc6 3.112510 1_545
Ir0 Sc4 2.673827 1_555
Ir0 Sc6 2.673833 1_556
Ir0 Sc8 2.738199 1_556
Ir0 Sc3 2.757312 1_556
Ir0 Sc0 2.757312 1_656
Ir0 Sc2 2.757316 1_555
Ir0 Sc1 2.757316 1_655
Ir0 Sc9 3.153085 1_655
Ir0 Sc9 3.153085 1_555
Ir1 Sc5 2.673827 1_555
Ir1 Sc7 2.673833 1_554
Ir1 Sc9 2.738199 1_554
Ir1 Sc1 2.757312 1_554
Ir1 Sc2 2.757312 1_554
Ir1 Sc3 2.757316 1_555
Ir1 Sc0 2.757316 1_555
Ir1 Sc8 3.153085 1_455
Ir1 Sc8 3.153085 1_555
