# generated using pymatgen
data_LiZr5(AsRu)6
_symmetry_space_group_name_H-M   'P 1'
_cell_length_a   7.64769776
_cell_length_b   7.65474417
_cell_length_c   7.64769899
_cell_angle_alpha   128.25876873
_cell_angle_beta   120.24682656
_cell_angle_gamma   82.91180442
_symmetry_Int_Tables_number   1
_chemical_formula_structural   LiZr5(AsRu)6
_chemical_formula_sum   'Li1 Zr5 As6 Ru6'
_cell_volume   291.72579070
_cell_formula_units_Z   1
loop_
 _symmetry_equiv_pos_site_id
 _symmetry_equiv_pos_as_xyz
  1  'x, y, z'
loop_
 _atom_site_type_symbol
 _atom_site_label
 _atom_site_symmetry_multiplicity
 _atom_site_fract_x
 _atom_site_fract_y
 _atom_site_fract_z
 _atom_site_occupancy
  Li  Li0  1  0.47752157  0.71486513  0.73734356  1
  Zr  Zr0  1  0.52652208  0.25670486  0.23018378  1
  Zr  Zr1  1  0.74985541  0.83469856  0.58484316  1
  Zr  Zr2  1  0.24954223  0.83319126  0.08364703  1
  Zr  Zr3  1  0.05086411  0.25574102  0.70487691  1
  Zr  Zr4  1  0.94752815  0.64899432  0.20146717  1
  As  As0  1  0.28283881  0.29920073  0.51636392  1
  As  As1  1  0.71990185  0.21078312  0.99088126  1
  As  As2  1  0.33205019  0.58826283  0.25924341  1
  As  As3  1  0.66704975  0.91285047  0.24459718  1
  As  As4  1  0.16825229  0.91285047  0.74579973  1
  As  As5  1  0.82901941  0.58826283  0.75621264  1
  Ru  Ru0  1  0.50860754  0.49243401  0.00557997  1
  Ru  Ru1  1  0.98685305  0.49243401  0.48382547  1
  Ru  Ru2  1  0.09331577  0.24831325  0.09923042  1
  Ru  Ru3  1  0.91708872  0.01085243  0.16674318  1
  Ru  Ru4  1  0.34410825  0.01085243  0.59376271  1
  Ru  Ru5  1  0.64908083  0.24831325  0.65499649  1
loop_
_geom_bond_atom_site_label_1
_geom_bond_atom_site_label_2
_geom_bond_distance
_geom_bond_site_symmetry_2
Li0 Ru3 2.960068 1_566
Li0 Ru4 2.960074 1_565
Li0 Ru0 3.301231 1_556
Li0 Ru1 3.301235 1_455
As0 Ru5 2.524158 1_555
As0 Ru2 2.524184 1_555
As0 Ru0 2.536865 1_556
As0 Ru1 2.536883 1_455
As0 Ru4 2.554439 1_555
As0 Ru3 2.554453 1_455
As0 Li0 2.677986 1_555
As0 Zr2 2.914926 1_545
As0 Zr3 2.941567 1_555
As1 Ru1 2.508993 1_556
As1 Ru0 2.508998 1_556
As1 Ru3 2.522175 1_556
As1 Ru4 2.522182 1_555
As1 Ru2 2.539327 1_656
As1 Ru5 2.539330 1_555
As1 Zr0 2.731629 1_556
As1 Zr1 2.732345 1_545
As1 Zr4 2.966896 1_556
As2 Ru2 2.565246 1_555
As2 Ru4 2.569943 1_565
As2 Ru0 2.599390 1_555
As2 Li0 2.706585 1_555
As2 Zr0 2.721331 1_555
As2 Zr1 2.761014 1_555
As2 Zr4 2.768947 1_455
As2 Zr2 2.772923 1_555
As2 Zr3 2.806990 1_554
As3 Ru0 2.571385 1_555
As3 Ru3 2.574507 1_565
As3 Ru5 2.613427 1_565
As3 Li0 2.653907 1_554
As3 Zr4 2.758227 1_555
As3 Zr0 2.763520 1_565
As3 Zr2 2.770102 1_555
As3 Zr1 2.775614 1_555
As3 Zr3 2.818848 1_665
As4 Ru1 2.571385 1_455
As4 Ru4 2.574507 1_565
As4 Ru2 2.613423 1_566
As4 Li0 2.653912 1_555
As4 Zr4 2.758217 1_455
As4 Zr0 2.763530 1_566
As4 Zr2 2.770097 1_556
As4 Zr1 2.775608 1_455
As4 Zr3 2.818843 1_565
As5 Ru5 2.565249 1_555
As5 Ru3 2.569942 1_566
As5 Ru1 2.599390 1_555
As5 Li0 2.706585 1_555
As5 Zr0 2.721326 1_555
As5 Zr1 2.761014 1_555
As5 Zr4 2.768953 1_556
As5 Zr2 2.772912 1_656
As5 Zr3 2.806990 1_655
Ru0 Ru4 2.804595 1_554
Ru0 Ru5 2.834830 1_554
Ru0 Zr1 2.911736 1_555
Ru0 Zr4 2.941324 1_555
Ru0 Zr2 3.012188 1_555
Ru0 Zr3 3.020072 1_554
Ru0 Zr0 3.125014 1_555
Ru1 Ru3 2.804595 1_555
Ru1 Ru2 2.834836 1_655
Ru1 Zr1 2.911731 1_555
Ru1 Zr4 2.941315 1_555
Ru1 Zr2 3.012183 1_656
Ru1 Zr3 3.020077 1_655
Ru1 Zr0 3.125004 1_555
Ru2 Zr4 2.885482 1_455
Ru2 Zr3 2.902696 1_554
Ru2 Zr0 2.934866 1_555
Ru2 Zr1 2.935432 1_444
Ru2 Zr2 3.205720 1_545
Ru3 Zr3 2.859235 1_655
Ru3 Zr2 2.902033 1_645
Ru3 Zr4 2.913207 1_545
Ru4 Zr3 2.859230 1_555
Ru4 Zr2 2.902038 1_545
Ru4 Zr4 2.913199 1_445
Ru5 Zr4 2.885493 1_556
Ru5 Zr3 2.902708 1_655
Ru5 Zr0 2.934857 1_555
Ru5 Zr1 2.935438 1_545
Ru5 Zr2 3.205722 1_545
