# generated using pymatgen
data_RbSeOF3
_symmetry_space_group_name_H-M   'P 1'
_cell_length_a   7.46297405
_cell_length_b   7.46297392
_cell_length_c   4.69230423
_cell_angle_alpha   105.36038056
_cell_angle_beta   105.36037713
_cell_angle_gamma   98.67172356
_symmetry_Int_Tables_number   1
_chemical_formula_structural   RbSeOF3
_chemical_formula_sum   'Rb2 Se2 O2 F6'
_cell_volume   236.04542156
_cell_formula_units_Z   2
loop_
 _symmetry_equiv_pos_site_id
 _symmetry_equiv_pos_as_xyz
  1  'x, y, z'
loop_
 _atom_site_type_symbol
 _atom_site_label
 _atom_site_symmetry_multiplicity
 _atom_site_fract_x
 _atom_site_fract_y
 _atom_site_fract_z
 _atom_site_occupancy
  Rb  Rb0  1  0.74056512  0.25943488  0.50000100  1
  Rb  Rb1  1  0.25943488  0.74056512  0.50000100  1
  Se  Se0  1  0.68715565  0.68715565  0.19022553  1
  Se  Se1  1  0.31284435  0.31284435  0.80977347  1
  O  O0  1  0.40821456  0.40821456  0.18546123  1
  O  O1  1  0.59178544  0.59178544  0.81454077  1
  F  F0  1  0.86917435  0.52868563  0.20651855  1
  F  F1  1  0.52868563  0.86917435  0.20651855  1
  F  F2  1  0.87499079  0.87499079  0.21019803  1
  F  F3  1  0.12500921  0.12500921  0.78980097  1
  F  F4  1  0.47131537  0.13082665  0.79348045  1
  F  F5  1  0.13082665  0.47131537  0.79348045  1
loop_
_geom_bond_atom_site_label_1
_geom_bond_atom_site_label_2
_geom_bond_distance
_geom_bond_site_symmetry_2
O0 Se1 1.624375 1_554
O0 Rb1 3.053267 1_555
O0 Rb0 3.053267 1_555
O1 Se0 1.624363 1_556
O1 Rb0 3.053267 1_555
O1 Rb1 3.053267 1_555
F0 Se0 1.930570 1_555
F0 Rb1 2.865702 1_655
F0 Rb0 2.905176 1_555
F0 Rb0 3.186379 1_554
F1 Se0 1.930570 1_555
F1 Rb0 2.865702 1_565
F1 Rb1 2.905176 1_555
F1 Rb1 3.186379 1_554
F2 Se0 1.790855 1_555
F2 Rb0 3.257463 1_565
F2 Rb1 3.257463 1_655
F3 Se1 1.790855 1_555
F3 Rb1 3.257459 1_545
F3 Rb0 3.257459 1_455
F4 Se1 1.930569 1_555
F4 Rb1 2.865709 1_545
F4 Rb0 2.905157 1_555
F4 Rb0 3.186388 1_556
F5 Se1 1.930569 1_555
F5 Rb0 2.865709 1_455
F5 Rb1 2.905158 1_555
F5 Rb1 3.186388 1_556
