# generated using pymatgen
data_Hf4Al2Re5Mo
_symmetry_space_group_name_H-M   'P 1'
_cell_length_a   5.24729296
_cell_length_b   5.24316693
_cell_length_c   8.56045572
_cell_angle_alpha   90.00000000
_cell_angle_beta   90.00000000
_cell_angle_gamma   120.02602259
_symmetry_Int_Tables_number   1
_chemical_formula_structural   Hf4Al2Re5Mo
_chemical_formula_sum   'Hf4 Al2 Re5 Mo1'
_cell_volume   203.91190050
_cell_formula_units_Z   1
loop_
 _symmetry_equiv_pos_site_id
 _symmetry_equiv_pos_as_xyz
  1  'x, y, z'
loop_
 _atom_site_type_symbol
 _atom_site_label
 _atom_site_symmetry_multiplicity
 _atom_site_fract_x
 _atom_site_fract_y
 _atom_site_fract_z
 _atom_site_occupancy
  Hf  Hf0  1  0.33368550  0.66737100  0.43330976  1
  Hf  Hf1  1  0.66672703  0.33345406  0.93584932  1
  Hf  Hf2  1  0.66672703  0.33345406  0.56415068  1
  Hf  Hf3  1  0.33368550  0.66737100  0.06669024  1
  Al  Al0  1  0.99931116  0.99862133  0.00052922  1
  Al  Al1  1  0.99931116  0.99862133  0.49947078  1
  Re  Re0  1  0.82971300  0.17013390  0.25000000  1
  Re  Re1  1  0.34042390  0.17013390  0.25000000  1
  Re  Re2  1  0.65971622  0.82983803  0.75000000  1
  Re  Re3  1  0.82975487  0.65950874  0.25000000  1
  Re  Re4  1  0.17011980  0.82983803  0.75000000  1
  Mo  Mo0  1  0.17082582  0.34165463  0.75000000  1
loop_
_geom_bond_atom_site_label_1
_geom_bond_atom_site_label_2
_geom_bond_distance
_geom_bond_site_symmetry_2
Hf0 Re1 3.052748 1_565
Hf0 Re0 3.052755 1_565
Hf0 Re3 3.057322 1_455
Hf0 Re3 3.057326 1_555
Hf0 Re0 3.058244 1_455
Hf0 Re1 3.058251 1_555
Hf0 Mo0 3.088016 1_555
Hf0 Re2 3.089260 1_555
Hf0 Re4 3.089265 1_555
Hf0 Hf3 3.138430 1_555
Hf0 Hf2 3.224484 1_565
Hf0 Hf2 3.230445 1_555
Hf0 Hf2 3.230445 1_455
Hf1 Re4 3.066258 1_655
Hf1 Re2 3.066262 1_555
Hf1 Re2 3.067204 1_545
Hf1 Re4 3.067209 1_545
Hf1 Mo0 3.068551 1_655
Hf1 Mo0 3.068564 1_555
Hf1 Re3 3.069688 1_556
Hf1 Re1 3.070794 1_556
Hf1 Re0 3.070801 1_556
Hf1 Hf2 3.181910 1_555
Hf1 Hf3 3.224484 1_546
Hf1 Hf3 3.230445 1_556
Hf1 Hf3 3.230445 1_656
Hf2 Re4 3.066258 1_655
Hf2 Re2 3.066262 1_555
Hf2 Re2 3.067204 1_545
Hf2 Re4 3.067209 1_545
Hf2 Mo0 3.068551 1_655
Hf2 Mo0 3.068564 1_555
Hf2 Re3 3.069688 1_555
Hf2 Re1 3.070794 1_555
Hf2 Re0 3.070801 1_555
Hf3 Re1 3.052748 1_565
Hf3 Re0 3.052755 1_565
Hf3 Re3 3.057322 1_455
Hf3 Re3 3.057326 1_555
Hf3 Re0 3.058244 1_455
Hf3 Re1 3.058251 1_555
Hf3 Mo0 3.088016 1_554
Hf3 Re2 3.089260 1_554
Hf3 Re4 3.089265 1_554
Al0 Re3 2.632584 1_555
Al0 Re0 2.638616 1_565
Al0 Re1 2.638622 1_665
Al0 Re4 2.641926 1_654
Al0 Re2 2.641934 1_554
Al0 Mo0 2.650358 1_664
Al0 Hf1 3.069888 1_554
Al0 Hf3 3.076597 1_655
Al0 Hf3 3.076602 1_555
Al0 Hf1 3.082276 1_664
Al0 Hf1 3.082280 1_564
Al0 Hf3 3.088185 1_665
Al1 Re3 2.632584 1_555
Al1 Re0 2.638616 1_565
Al1 Re1 2.638622 1_665
Al1 Re4 2.641926 1_655
Al1 Re2 2.641934 1_555
Al1 Mo0 2.650358 1_665
Al1 Hf2 3.069888 1_555
Al1 Hf0 3.076597 1_655
Al1 Hf0 3.076602 1_555
Al1 Hf2 3.082276 1_665
Al1 Hf2 3.082280 1_565
Al1 Hf0 3.088185 1_665
Re0 Re3 2.565764 1_555
Re0 Re1 2.567443 1_555
Re0 Re3 2.677403 1_545
Re0 Re1 2.679850 1_655
Re1 Re3 2.565759 1_555
Re1 Re3 2.677409 1_445
Re2 Re4 2.569056 1_555
Re2 Re4 2.678237 1_655
Mo0 Re4 2.561483 1_555
Mo0 Re2 2.561486 1_555
Mo0 Re2 2.681686 1_445
Mo0 Re4 2.681688 1_545
