# generated using pymatgen
data_K2RbLiSi4
_symmetry_space_group_name_H-M   'P 1'
_cell_length_a   7.73745800
_cell_length_b   9.74089380
_cell_length_c   12.42668156
_cell_angle_alpha   90.00000000
_cell_angle_beta   90.00000000
_cell_angle_gamma   90.00000000
_symmetry_Int_Tables_number   1
_chemical_formula_structural   K2RbLiSi4
_chemical_formula_sum   'K8 Rb4 Li4 Si16'
_cell_volume   936.59596603
_cell_formula_units_Z   4
loop_
 _symmetry_equiv_pos_site_id
 _symmetry_equiv_pos_as_xyz
  1  'x, y, z'
loop_
 _atom_site_type_symbol
 _atom_site_label
 _atom_site_symmetry_multiplicity
 _atom_site_fract_x
 _atom_site_fract_y
 _atom_site_fract_z
 _atom_site_occupancy
  K  K0  1  0.65896157  0.44442975  0.69099662  1
  K  K1  1  0.15896157  0.05557025  0.80900338  1
  K  K2  1  0.34103843  0.94442975  0.30900338  1
  K  K3  1  0.84103843  0.55557025  0.19099662  1
  K  K4  1  0.34103843  0.55557025  0.30900338  1
  K  K5  1  0.84103843  0.94442975  0.19099662  1
  K  K6  1  0.65896157  0.05557025  0.69099662  1
  K  K7  1  0.15896157  0.44442975  0.80900338  1
  Rb  Rb0  1  0.65015020  0.25000000  0.39691827  1
  Rb  Rb1  1  0.15015020  0.25000000  0.10308173  1
  Rb  Rb2  1  0.34984980  0.75000000  0.60308173  1
  Rb  Rb3  1  0.84984980  0.75000000  0.89691827  1
  Li  Li0  1  0.50000000  0.50000000  0.00000000  1
  Li  Li1  1  0.00000000  0.00000000  0.50000000  1
  Li  Li2  1  0.50000000  0.00000000  0.00000000  1
  Li  Li3  1  0.00000000  0.50000000  0.50000000  1
  Si  Si0  1  0.36111458  0.75000000  0.90742100  1
  Si  Si1  1  0.86111458  0.75000000  0.59257900  1
  Si  Si2  1  0.63888542  0.25000000  0.09257900  1
  Si  Si3  1  0.13888542  0.25000000  0.40742100  1
  Si  Si4  1  0.71906722  0.62890222  0.44668395  1
  Si  Si5  1  0.21906722  0.87109778  0.05331605  1
  Si  Si6  1  0.28093278  0.12890222  0.55331605  1
  Si  Si7  1  0.78093278  0.37109778  0.94668395  1
  Si  Si8  1  0.01314532  0.25000000  0.58698767  1
  Si  Si9  1  0.51314532  0.25000000  0.91301233  1
  Si  Si10  1  0.98685468  0.75000000  0.41301233  1
  Si  Si11  1  0.48685468  0.75000000  0.08698767  1
  Si  Si12  1  0.21906722  0.62890222  0.05331605  1
  Si  Si13  1  0.71906722  0.87109778  0.44668395  1
  Si  Si14  1  0.78093278  0.12890222  0.94668395  1
  Si  Si15  1  0.28093278  0.37109778  0.55331605  1
loop_
_geom_bond_atom_site_label_1
_geom_bond_atom_site_label_2
_geom_bond_distance
_geom_bond_site_symmetry_2
K0 Si7 3.390639 1_555
K0 Si15 3.463090 1_555
K0 Si9 3.531502 1_555
K0 Si4 3.558441 1_555
K0 Si8 3.573191 1_655
K0 Si1 3.577991 1_555
K1 Si6 3.390639 1_555
K1 Si14 3.463090 1_455
K1 Si8 3.531502 1_555
K1 Si5 3.558441 1_546
K1 Si9 3.573191 1_555
K1 Si0 3.577991 1_545
K2 Si5 3.390639 1_555
K2 Si13 3.463090 1_555
K2 Si11 3.531502 1_555
K2 Si6 3.558441 1_565
K2 Si10 3.573191 1_455
K2 Si3 3.577991 1_565
K3 Si4 3.390639 1_555
K3 Si12 3.463090 1_655
K3 Si10 3.531502 1_555
K3 Si7 3.558441 1_554
K3 Si11 3.573191 1_555
K3 Si2 3.577991 1_555
K4 Si12 3.390639 1_555
K4 Si4 3.463090 1_555
K4 Si11 3.531502 1_555
K4 Si15 3.558441 1_555
K4 Si10 3.573191 1_455
K4 Si3 3.577991 1_555
K5 Si13 3.390639 1_555
K5 Si5 3.463090 1_655
K5 Si10 3.531502 1_555
K5 Si14 3.558441 1_564
K5 Si11 3.573191 1_555
K5 Si2 3.577991 1_565
K6 Si14 3.390639 1_555
K6 Si6 3.463090 1_555
K6 Si9 3.531502 1_555
K6 Si13 3.558441 1_545
K6 Si8 3.573191 1_655
K6 Si1 3.577991 1_545
K7 Si15 3.390639 1_555
K7 Si7 3.463090 1_455
K7 Si8 3.531502 1_555
K7 Si12 3.558441 1_556
K7 Si9 3.573191 1_555
K7 Si0 3.577991 1_555
Rb0 Si15 3.651027 1_555
Rb0 Si6 3.651027 1_555
Rb0 Si8 3.669781 1_655
Rb0 Si4 3.780098 1_555
Rb0 Si13 3.780098 1_545
Rb0 Si2 3.782932 1_555
Rb0 Si3 3.783820 1_655
Rb0 Si3 3.958042 1_555
Rb1 Si7 3.651027 1_454
Rb1 Si14 3.651027 1_454
Rb1 Si9 3.669781 1_554
Rb1 Si12 3.780098 1_555
Rb1 Si5 3.780098 1_545
Rb1 Si3 3.782932 1_555
Rb1 Si2 3.783820 1_555
Rb1 Si2 3.958042 1_455
Rb2 Si13 3.651027 1_555
Rb2 Si4 3.651027 1_555
Rb2 Si10 3.669781 1_455
Rb2 Si6 3.780098 1_565
Rb2 Si15 3.780098 1_555
Rb2 Si0 3.782932 1_555
Rb2 Si1 3.783820 1_455
Rb2 Si1 3.958042 1_555
Rb3 Si5 3.651027 1_656
Rb3 Si12 3.651027 1_656
Rb3 Si11 3.669781 1_556
Rb3 Si14 3.780098 1_565
Rb3 Si7 3.780098 1_555
Rb3 Si1 3.782932 1_555
Rb3 Si0 3.783820 1_555
Rb3 Si0 3.958042 1_655
Li0 Si12 2.596256 1_555
Li0 Si7 2.596256 1_554
Li0 Si11 2.666299 1_555
Li0 Si9 2.666299 1_554
Li0 Si2 2.899768 1_555
Li0 Si0 2.899768 1_554
Li1 Si6 2.596256 1_555
Li1 Si13 2.596256 1_445
Li1 Si8 2.666299 1_555
Li1 Si10 2.666299 1_445
Li1 Si1 2.899768 1_445
Li1 Si3 2.899768 1_555
Li2 Si14 2.596256 1_554
Li2 Si5 2.596256 1_545
Li2 Si11 2.666299 1_545
Li2 Si9 2.666299 1_554
Li2 Si2 2.899768 1_555
Li2 Si0 2.899768 1_544
Li3 Si15 2.596256 1_555
Li3 Si4 2.596256 1_455
Li3 Si8 2.666299 1_555
Li3 Si10 2.666299 1_455
Li3 Si1 2.899768 1_455
Li3 Si3 2.899768 1_555
Si0 Si5 2.426187 1_556
Si0 Si12 2.426187 1_556
Si0 Si11 2.434292 1_556
Si1 Si13 2.426187 1_555
Si1 Si4 2.426187 1_555
Si1 Si10 2.434292 1_555
Si2 Si7 2.426187 1_554
Si2 Si9 2.434292 1_554
Si3 Si6 2.426187 1_555
Si3 Si8 2.434292 1_555
Si6 Si8 2.420681 1_555
Si7 Si9 2.420681 1_555
Si10 Si13 2.420681 1_555
Si10 Si4 2.420681 1_555
Si11 Si5 2.420681 1_555
Si11 Si12 2.420681 1_555
Si12 Si5 2.359201 1_555
Si13 Si4 2.359201 1_555
Si14 Si7 2.359201 1_555
Si14 Si9 2.420681 1_555
Si14 Si2 2.426187 1_556
Si15 Si6 2.359201 1_555
Si15 Si8 2.420681 1_555
Si15 Si3 2.426187 1_555
