# generated using pymatgen
data_Lu2MnFeOs2
_symmetry_space_group_name_H-M   'P 1'
_cell_length_a   5.22263524
_cell_length_b   5.22263493
_cell_length_c   5.14372325
_cell_angle_alpha   61.23387283
_cell_angle_beta   61.23387633
_cell_angle_gamma   60.37944311
_symmetry_Int_Tables_number   1
_chemical_formula_structural   Lu2MnFeOs2
_chemical_formula_sum   'Lu2 Mn1 Fe1 Os2'
_cell_volume   101.31392909
_cell_formula_units_Z   1
loop_
 _symmetry_equiv_pos_site_id
 _symmetry_equiv_pos_as_xyz
  1  'x, y, z'
loop_
 _atom_site_type_symbol
 _atom_site_label
 _atom_site_symmetry_multiplicity
 _atom_site_fract_x
 _atom_site_fract_y
 _atom_site_fract_z
 _atom_site_occupancy
  Lu  Lu0  1  0.62348917  0.62348917  0.63017053  1
  Lu  Lu1  1  0.37651083  0.37651083  0.36982947  1
  Mn  Mn0  1  0.00000000  0.00000000  0.50000000  1
  Fe  Fe0  1  0.00000000  0.00000000  0.00000000  1
  Os  Os0  1  0.00000000  0.50000000  0.00000000  1
  Os  Os1  1  0.50000000  0.00000000  0.00000000  1
loop_
_geom_bond_atom_site_label_1
_geom_bond_atom_site_label_2
_geom_bond_distance
_geom_bond_site_symmetry_2
Lu0 Os1 3.011172 1_566
Lu0 Os0 3.011172 1_656
Lu0 Os1 3.068093 1_565
Lu0 Os0 3.068094 1_655
Lu0 Mn0 3.069195 1_655
Lu0 Mn0 3.069195 1_565
Lu0 Mn0 3.077241 1_665
Lu0 Os1 3.093722 1_556
Lu0 Os0 3.093722 1_556
Lu0 Lu1 3.162377 1_556
Lu0 Lu1 3.176546 1_555
Lu0 Lu1 3.240805 1_565
Lu0 Lu1 3.240805 1_655
Lu1 Os1 3.011172 1_555
Lu1 Os0 3.011172 1_555
Lu1 Os1 3.068093 1_556
Lu1 Os0 3.068094 1_556
Lu1 Mn0 3.069195 1_565
Lu1 Mn0 3.069195 1_655
Lu1 Mn0 3.077241 1_555
Lu1 Os1 3.093722 1_565
Lu1 Os0 3.093722 1_655
Mn0 Os0 2.639990 1_555
Mn0 Os0 2.639990 1_546
Mn0 Os1 2.639990 1_555
Mn0 Os1 2.639990 1_456
Fe0 Mn0 2.571862 1_554
Fe0 Mn0 2.571862 1_555
Fe0 Os0 2.611317 1_545
Fe0 Os0 2.611317 1_555
Fe0 Os1 2.611318 1_555
Fe0 Os1 2.611318 1_455
Fe0 Lu1 3.065534 1_545
Fe0 Lu0 3.065534 1_454
Fe0 Lu1 3.065535 1_455
Fe0 Lu0 3.065535 1_544
Fe0 Lu1 3.129377 1_554
Fe0 Lu0 3.129377 1_445
Os0 Os1 2.626280 1_465
Os0 Os1 2.626280 1_555
