# generated using pymatgen
data_ZrAl3
_symmetry_space_group_name_H-M   'P 1'
_cell_length_a   3.99506385
_cell_length_b   3.99506514
_cell_length_c   9.07266337
_cell_angle_alpha   102.70035618
_cell_angle_beta   102.70035211
_cell_angle_gamma   90.03187831
_symmetry_Int_Tables_number   1
_chemical_formula_structural   ZrAl3
_chemical_formula_sum   'Zr2 Al6'
_cell_volume   137.62349946
_cell_formula_units_Z   2
loop_
 _symmetry_equiv_pos_site_id
 _symmetry_equiv_pos_as_xyz
  1  'x, y, z'
loop_
 _atom_site_type_symbol
 _atom_site_label
 _atom_site_symmetry_multiplicity
 _atom_site_fract_x
 _atom_site_fract_y
 _atom_site_fract_z
 _atom_site_occupancy
  Zr  Zr0  1  0.11879205  0.11879205  0.23756410  1
  Zr  Zr1  1  0.88120795  0.88120795  0.76243590  1
  Al  Al0  1  0.50000000  -0.00000000  -0.00000000  1
  Al  Al1  1  -0.00000000  0.50000000  -0.00000000  1
  Al  Al2  1  0.74995858  0.25004142  0.50000000  1
  Al  Al3  1  0.25004142  0.74995858  0.50000000  1
  Al  Al4  1  0.37475032  0.37475032  0.74940895  1
  Al  Al5  1  0.62524968  0.62524968  0.25059105  1
loop_
_geom_bond_atom_site_label_1
_geom_bond_atom_site_label_2
_geom_bond_distance
_geom_bond_site_symmetry_2
Al0 Al1 2.824151 1_655
Al0 Al1 2.824151 1_545
Al0 Al1 2.825723 1_555
Al0 Al1 2.825723 1_645
Al0 Zr1 2.860847 1_544
Al0 Zr0 2.860847 1_555
Al0 Zr0 2.861492 1_655
Al0 Zr1 2.861492 1_444
Al0 Al5 2.942459 1_545
Al0 Al4 2.942459 1_554
Al0 Al4 2.942814 1_544
Al0 Al5 2.942814 1_555
Al1 Zr1 2.860848 1_454
Al1 Zr0 2.860848 1_555
Al1 Zr0 2.861492 1_565
Al1 Zr1 2.861492 1_444
Al1 Al5 2.942458 1_455
Al1 Al4 2.942458 1_554
Al1 Al5 2.942814 1_555
Al1 Al4 2.942814 1_454
Al2 Al3 2.824151 1_655
Al2 Al3 2.824151 1_545
Al2 Al3 2.825255 1_555
Al2 Al3 2.826191 1_645
Al2 Al4 2.934621 1_555
Al2 Al5 2.934621 1_555
Al2 Al4 2.935698 1_655
Al2 Al5 2.935698 1_545
Al2 Zr0 3.018258 1_655
Al2 Zr1 3.018258 1_545
Al2 Zr0 3.018602 1_555
Al2 Zr1 3.018603 1_555
Al3 Al5 2.934621 1_555
Al3 Al4 2.934621 1_555
Al3 Al5 2.935698 1_455
Al3 Al4 2.935698 1_565
Al3 Zr1 3.018258 1_455
Al3 Zr0 3.018258 1_565
Al3 Zr1 3.018602 1_555
Al3 Zr0 3.018603 1_555
Al4 Zr1 2.826102 1_555
Al4 Zr1 2.826667 1_445
Al4 Zr1 2.827955 1_545
Al4 Zr1 2.827955 1_455
Al5 Zr0 2.826102 1_555
Al5 Zr0 2.826667 1_665
Al5 Zr0 2.827955 1_565
Al5 Zr0 2.827955 1_655
