# generated using pymatgen
data_KOs(OF2)2
_symmetry_space_group_name_H-M   'P 1'
_cell_length_a   4.76227794
_cell_length_b   6.57454755
_cell_length_c   8.50843018
_cell_angle_alpha   86.60331435
_cell_angle_beta   73.79834842
_cell_angle_gamma   77.88204678
_symmetry_Int_Tables_number   1
_chemical_formula_structural   KOs(OF2)2
_chemical_formula_sum   'K2 Os2 O4 F8'
_cell_volume   250.11731833
_cell_formula_units_Z   2
loop_
 _symmetry_equiv_pos_site_id
 _symmetry_equiv_pos_as_xyz
  1  'x, y, z'
loop_
 _atom_site_type_symbol
 _atom_site_label
 _atom_site_symmetry_multiplicity
 _atom_site_fract_x
 _atom_site_fract_y
 _atom_site_fract_z
 _atom_site_occupancy
  K  K0  1  0.08796689  0.25046735  0.82441065  1
  K  K1  1  0.91203311  0.74953265  0.17558935  1
  Os  Os0  1  0.63936361  0.75002024  0.71958853  1
  Os  Os1  1  0.36063639  0.24997976  0.28041147  1
  O  O0  1  0.41322403  0.85311488  0.59737320  1
  O  O1  1  0.98746843  0.64701639  0.59760553  1
  O  O2  1  0.58677597  0.14688512  0.40262680  1
  O  O3  1  0.01253157  0.35298361  0.40239447  1
  F  F0  1  0.74215812  0.01364449  0.73547513  1
  F  F1  1  0.52075722  0.48637471  0.73543860  1
  F  F2  1  0.25784188  0.98635551  0.26452487  1
  F  F3  1  0.47924278  0.51362529  0.26456140  1
  F  F4  1  0.29530770  0.84858481  0.90840650  1
  F  F5  1  0.79478840  0.65102306  0.90860047  1
  F  F6  1  0.70469230  0.15141519  0.09159350  1
  F  F7  1  0.20521160  0.34897694  0.09139953  1
loop_
_geom_bond_atom_site_label_1
_geom_bond_atom_site_label_2
_geom_bond_distance
_geom_bond_site_symmetry_2
K0 O1 3.185198 1_455
K0 O0 3.191377 1_545
K1 O3 3.185198 1_655
K1 O2 3.191377 1_565
O0 Os0 1.713319 1_555
O1 Os0 1.713421 1_555
O2 Os1 1.713319 1_555
O3 Os1 1.713421 1_555
F0 Os0 1.919075 1_545
F0 K0 2.760525 1_655
F0 K0 3.080633 1_555
F1 Os0 1.919005 1_555
F1 K0 2.749352 1_555
F1 K0 3.085151 1_655
F2 Os1 1.919075 1_565
F2 K1 2.760525 1_455
F2 K1 3.080633 1_555
F3 Os1 1.919005 1_555
F3 K1 2.749352 1_555
F3 K1 3.085151 1_455
F4 Os0 1.973376 1_555
F4 K1 2.632814 1_456
F4 K0 2.746200 1_565
F5 Os0 1.973762 1_555
F5 K1 2.631655 1_556
F5 K0 2.742146 1_655
F6 Os1 1.973376 1_555
F6 K0 2.632814 1_654
F6 K1 2.746200 1_545
F7 Os1 1.973762 1_555
F7 K0 2.631655 1_554
F7 K1 2.742146 1_455
