# generated using pymatgen
data_Nb3ZnGa2N
_symmetry_space_group_name_H-M   'P 1'
_cell_length_a   8.26199741
_cell_length_b   8.26199740
_cell_length_c   8.26199839
_cell_angle_alpha   59.99999999
_cell_angle_beta   60.00000004
_cell_angle_gamma   60.00000453
_symmetry_Int_Tables_number   1
_chemical_formula_structural   Nb3ZnGa2N
_chemical_formula_sum   'Nb12 Zn4 Ga8 N4'
_cell_volume   398.78630129
_cell_formula_units_Z   4
loop_
 _symmetry_equiv_pos_site_id
 _symmetry_equiv_pos_as_xyz
  1  'x, y, z'
loop_
 _atom_site_type_symbol
 _atom_site_label
 _atom_site_symmetry_multiplicity
 _atom_site_fract_x
 _atom_site_fract_y
 _atom_site_fract_z
 _atom_site_occupancy
  Nb  Nb0  1  0.44127596  0.44127596  0.05872404  1
  Nb  Nb1  1  0.05872404  0.44127596  0.05872404  1
  Nb  Nb2  1  0.44127596  0.05872404  0.05872404  1
  Nb  Nb3  1  0.05872404  0.05872404  0.44127596  1
  Nb  Nb4  1  0.44127596  0.05872404  0.44127596  1
  Nb  Nb5  1  0.05872404  0.44127596  0.44127596  1
  Nb  Nb6  1  0.80872404  0.80872404  0.19127596  1
  Nb  Nb7  1  0.19127596  0.80872404  0.19127596  1
  Nb  Nb8  1  0.80872404  0.19127596  0.19127596  1
  Nb  Nb9  1  0.19127596  0.19127596  0.80872404  1
  Nb  Nb10  1  0.80872404  0.19127596  0.80872404  1
  Nb  Nb11  1  0.19127596  0.80872404  0.80872404  1
  Zn  Zn0  1  0.62500000  0.62500000  0.12500000  1
  Zn  Zn1  1  0.62500000  0.12500000  0.62500000  1
  Zn  Zn2  1  0.12500000  0.62500000  0.62500000  1
  Zn  Zn3  1  0.62500000  0.62500000  0.62500000  1
  Ga  Ga0  1  0.83769982  0.83769982  0.48690154  1
  Ga  Ga1  1  0.83769982  0.48690154  0.83769982  1
  Ga  Ga2  1  0.48690154  0.83769982  0.83769982  1
  Ga  Ga3  1  0.83769982  0.83769982  0.83769982  1
  Ga  Ga4  1  0.41230018  0.41230018  0.76309846  1
  Ga  Ga5  1  0.41230018  0.76309846  0.41230018  1
  Ga  Ga6  1  0.76309846  0.41230018  0.41230018  1
  Ga  Ga7  1  0.41230018  0.41230018  0.41230018  1
  N  N0  1  0.12500000  0.12500000  0.62500000  1
  N  N1  1  0.12500000  0.62500000  0.12500000  1
  N  N2  1  0.62500000  0.12500000  0.12500000  1
  N  N3  1  0.12500000  0.12500000  0.12500000  1
loop_
_geom_bond_atom_site_label_1
_geom_bond_atom_site_label_2
_geom_bond_distance
_geom_bond_site_symmetry_2
Ga0 Zn1 2.560517 1_565
Ga0 Zn2 2.560517 1_655
Ga0 Zn3 2.560523 1_555
Ga0 Nb8 2.703136 1_565
Ga0 Nb7 2.703136 1_655
Ga0 Nb6 2.703141 1_555
Ga0 Ga1 2.898295 1_555
Ga0 Ga2 2.898295 1_555
Ga0 Ga3 2.898295 1_555
Ga0 Nb3 2.961302 1_665
Ga0 Nb5 2.961309 1_655
Ga0 Nb4 2.961309 1_565
Ga1 Zn2 2.560517 1_655
Ga1 Zn0 2.560517 1_556
Ga1 Zn3 2.560524 1_555
Ga1 Nb9 2.703137 1_655
Ga1 Nb8 2.703137 1_556
Ga1 Nb10 2.703141 1_555
Ga1 Ga3 2.898294 1_555
Ga1 Ga2 2.898295 1_555
Ga1 Nb1 2.961302 1_656
Ga1 Nb0 2.961309 1_556
Ga1 Nb5 2.961309 1_655
Ga2 Zn1 2.560517 1_565
Ga2 Zn0 2.560517 1_556
Ga2 Zn3 2.560524 1_555
Ga2 Nb9 2.703136 1_565
Ga2 Nb7 2.703137 1_556
Ga2 Nb11 2.703141 1_555
Ga2 Ga3 2.898294 1_555
Ga2 Nb2 2.961302 1_566
Ga2 Nb0 2.961309 1_556
Ga2 Nb4 2.961309 1_565
Ga3 Zn0 2.560521 1_556
Ga3 Zn1 2.560522 1_565
Ga3 Zn2 2.560522 1_655
Ga3 Nb10 2.703133 1_565
Ga3 Nb11 2.703133 1_655
Ga3 Nb6 2.703133 1_556
Ga3 Nb3 2.961306 1_665
Ga3 Nb1 2.961306 1_656
Ga3 Nb2 2.961306 1_566
Ga4 Zn1 2.560517 1_555
Ga4 Zn2 2.560517 1_555
Ga4 Zn3 2.560523 1_555
Ga4 Nb2 2.703136 1_556
Ga4 Nb1 2.703136 1_556
Ga4 Nb0 2.703141 1_556
Ga4 Ga5 2.898295 1_555
Ga4 Ga6 2.898295 1_555
Ga4 Ga7 2.898295 1_555
Ga4 Nb9 2.961302 1_555
Ga4 Nb11 2.961309 1_555
Ga4 Nb10 2.961309 1_555
Ga5 Zn2 2.560517 1_555
Ga5 Zn0 2.560517 1_555
Ga5 Zn3 2.560524 1_555
Ga5 Nb3 2.703137 1_565
Ga5 Nb2 2.703137 1_565
Ga5 Nb4 2.703141 1_565
Ga5 Ga7 2.898294 1_555
Ga5 Ga6 2.898295 1_555
Ga5 Nb7 2.961302 1_555
Ga5 Nb6 2.961309 1_555
Ga5 Nb11 2.961309 1_555
Ga6 Zn1 2.560517 1_555
Ga6 Zn0 2.560517 1_555
Ga6 Zn3 2.560524 1_555
Ga6 Nb3 2.703136 1_655
Ga6 Nb1 2.703137 1_655
Ga6 Nb5 2.703141 1_655
Ga6 Ga7 2.898294 1_555
Ga6 Nb8 2.961302 1_555
Ga6 Nb6 2.961309 1_555
Ga6 Nb10 2.961309 1_555
Ga7 Zn0 2.560521 1_555
Ga7 Zn1 2.560522 1_555
Ga7 Zn2 2.560522 1_555
Ga7 Nb4 2.703133 1_555
Ga7 Nb5 2.703133 1_555
Ga7 Nb0 2.703133 1_555
Ga7 Nb9 2.961306 1_555
Ga7 Nb7 2.961306 1_555
Ga7 Nb8 2.961306 1_555
N0 Nb5 2.205892 1_555
N0 Nb11 2.205892 1_545
N0 Nb4 2.205892 1_555
N0 Nb10 2.205892 1_455
N0 Nb9 2.205892 1_555
N0 Nb3 2.205892 1_555
N1 Nb7 2.205892 1_555
N1 Nb1 2.205892 1_555
N1 Nb0 2.205892 1_555
N1 Nb6 2.205892 1_455
N1 Nb5 2.205892 1_555
N1 Nb11 2.205892 1_554
N2 Nb8 2.205892 1_555
N2 Nb2 2.205892 1_555
N2 Nb0 2.205892 1_555
N2 Nb6 2.205892 1_545
N2 Nb4 2.205892 1_555
N2 Nb10 2.205892 1_554
N3 Nb1 2.205892 1_555
N3 Nb7 2.205892 1_545
N3 Nb2 2.205892 1_555
N3 Nb8 2.205892 1_455
N3 Nb3 2.205892 1_555
N3 Nb9 2.205892 1_554
