# generated using pymatgen
data_Cs8YBi3Br20
_symmetry_space_group_name_H-M   'P 1'
_cell_length_a   7.93428068
_cell_length_b   10.10546544
_cell_length_c   16.17998631
_cell_angle_alpha   89.88419982
_cell_angle_beta   90.00000000
_cell_angle_gamma   90.00000000
_symmetry_Int_Tables_number   1
_chemical_formula_structural   Cs8YBi3Br20
_chemical_formula_sum   'Cs8 Y1 Bi3 Br20'
_cell_volume   1297.30216873
_cell_formula_units_Z   1
loop_
 _symmetry_equiv_pos_site_id
 _symmetry_equiv_pos_as_xyz
  1  'x, y, z'
loop_
 _atom_site_type_symbol
 _atom_site_label
 _atom_site_symmetry_multiplicity
 _atom_site_fract_x
 _atom_site_fract_y
 _atom_site_fract_z
 _atom_site_occupancy
  Cs  Cs0  1  0.25000000  0.68615153  0.91325434  1
  Cs  Cs1  1  0.75000000  0.31863737  0.07908825  1
  Cs  Cs2  1  0.75000000  0.80937352  0.41637751  1
  Cs  Cs3  1  0.25000000  0.18466940  0.58836653  1
  Cs  Cs4  1  0.25000000  0.96816724  0.20087089  1
  Cs  Cs5  1  0.75000000  0.04185771  0.80198154  1
  Cs  Cs6  1  0.75000000  0.53245249  0.70220837  1
  Cs  Cs7  1  0.25000000  0.45866044  0.30110572  1
  Y  Y0  1  0.25000000  0.19330385  0.93624390  1
  Bi  Bi0  1  0.25000000  0.69306274  0.56405824  1
  Bi  Bi1  1  0.75000000  0.30376845  0.43616807  1
  Bi  Bi2  1  0.75000000  0.80923755  0.06432392  1
  Br  Br0  1  0.25000000  0.53786230  0.70815161  1
  Br  Br1  1  0.75000000  0.45520992  0.28958580  1
  Br  Br2  1  0.75000000  0.96212662  0.20913309  1
  Br  Br3  1  0.25000000  0.03475765  0.79731359  1
  Br  Br4  1  0.50883624  0.85442875  0.61587946  1
  Br  Br5  1  0.49049441  0.14086831  0.38626246  1
  Br  Br6  1  0.49199046  0.64794628  0.11453213  1
  Br  Br7  1  0.00950559  0.14086831  0.38626246  1
  Br  Br8  1  0.50564063  0.35217516  0.88286917  1
  Br  Br9  1  0.99116376  0.85442875  0.61587946  1
  Br  Br10  1  0.99435937  0.35217516  0.88286917  1
  Br  Br11  1  0.00800954  0.64794628  0.11453213  1
  Br  Br12  1  0.25000000  0.79256481  0.39421229  1
  Br  Br13  1  0.75000000  0.20161503  0.60404749  1
  Br  Br14  1  0.75000000  0.71017353  0.89605759  1
  Br  Br15  1  0.25000000  0.29870611  0.09701782  1
  Br  Br16  1  0.99987711  0.49835164  0.49974274  1
  Br  Br17  1  0.00471617  0.01005174  0.00093127  1
  Br  Br18  1  0.50012289  0.49835164  0.49974274  1
  Br  Br19  1  0.49528383  0.01005174  0.00093127  1
loop_
_geom_bond_atom_site_label_1
_geom_bond_atom_site_label_2
_geom_bond_distance
_geom_bond_site_symmetry_2
Bi0 Br4 2.754136 1_555
Bi0 Br9 2.754136 1_455
Bi0 Br0 2.807236 1_555
Bi0 Br12 2.924375 1_555
Bi0 Br16 2.983492 1_455
Bi0 Br18 2.983492 1_555
Bi1 Br7 2.758032 1_655
Bi1 Br5 2.758032 1_555
Bi1 Br1 2.819994 1_555
Bi1 Br13 2.903883 1_555
Bi1 Br18 2.977163 1_555
Bi1 Br16 2.977163 1_555
Bi2 Br11 2.738967 1_655
Bi2 Br6 2.738967 1_555
Bi2 Br2 2.809164 1_555
Bi2 Br14 2.902664 1_554
Bi2 Br17 3.040752 1_665
Bi2 Br19 3.040752 1_565
Br0 Cs0 3.643972 1_555
Br0 Cs6 3.968685 1_555
Br0 Cs6 3.968685 1_455
Br0 Cs3 4.064888 1_555
Br1 Cs1 3.677439 1_555
Br1 Cs7 3.971673 1_655
Br1 Cs7 3.971673 1_555
Br1 Cs2 4.128854 1_555
Br2 Cs2 3.688622 1_555
Br2 Cs4 3.969857 1_655
Br2 Cs4 3.969857 1_555
Br2 Cs1 4.168476 1_565
Br3 Y0 2.763071 1_555
Br3 Cs3 3.701871 1_555
Br3 Cs5 3.968511 1_555
Br3 Cs5 3.968511 1_455
Br3 Cs0 3.987815 1_545
Br4 Cs2 3.780762 1_555
Br4 Cs3 3.942956 1_565
Br4 Cs6 4.022525 1_555
Br4 Cs5 4.042120 1_565
Br5 Cs3 3.812608 1_555
Br5 Cs2 3.961333 1_545
Br5 Cs4 3.963055 1_545
Br5 Cs7 3.979310 1_555
Br6 Cs0 3.799522 1_554
Br6 Cs1 3.949896 1_555
Br6 Cs4 4.015946 1_555
Br6 Cs7 4.054001 1_555
Br7 Cs3 3.812608 1_555
Br7 Cs2 3.961333 1_445
Br7 Cs4 3.963055 1_545
Br7 Cs7 3.979310 1_555
Br8 Y0 2.726139 1_555
Br8 Cs1 3.734838 1_556
Br8 Cs5 3.914375 1_555
Br8 Cs6 3.949790 1_555
Br8 Cs0 3.969010 1_555
Br9 Cs2 3.780762 1_555
Br9 Cs3 3.942956 1_665
Br9 Cs6 4.022525 1_555
Br9 Cs5 4.042120 1_565
Br10 Y0 2.726139 1_655
Br10 Cs1 3.734838 1_556
Br10 Cs5 3.914375 1_555
Br10 Cs6 3.949790 1_555
Br10 Cs0 3.969010 1_655
Br11 Cs0 3.799522 1_554
Br11 Cs1 3.949896 1_455
Br11 Cs4 4.015946 1_555
Br11 Cs7 4.054001 1_555
Br12 Cs4 3.593409 1_555
Br12 Cs7 3.698054 1_555
Br12 Cs2 3.986969 1_455
Br12 Cs2 3.986969 1_555
Br13 Cs5 3.583562 1_555
Br13 Cs6 3.704242 1_555
Br13 Cs3 3.978954 1_555
Br13 Cs3 3.978954 1_655
Br14 Cs6 3.617418 1_555
Br14 Cs5 3.678455 1_565
Br14 Cs0 3.984254 1_555
Br14 Cs0 3.984254 1_655
Br15 Y0 2.812932 1_554
Br15 Cs7 3.679469 1_555
Br15 Cs4 3.736057 1_545
Br15 Cs1 3.982800 1_555
Br15 Cs1 3.982800 1_455
Br16 Cs7 3.799204 1_655
Br16 Cs6 3.845187 1_555
Br16 Cs2 3.951141 1_555
Br16 Cs3 4.003062 1_655
Br17 Y0 2.881747 1_554
Br17 Cs4 3.798220 1_545
Br17 Cs5 3.813858 1_454
Br17 Cs1 3.927331 1_455
Br17 Cs0 4.065996 1_544
Br18 Cs7 3.799204 1_555
Br18 Cs6 3.845187 1_555
Br18 Cs2 3.951141 1_555
Br18 Cs3 4.003062 1_555
Br19 Y0 2.881747 1_554
Br19 Cs4 3.798220 1_545
Br19 Cs5 3.813858 1_554
Br19 Cs1 3.927331 1_555
Br19 Cs0 4.065996 1_544
