# generated using pymatgen
data_Nb12Al9Co3C4
_symmetry_space_group_name_H-M   'P 1'
_cell_length_a   8.26188273
_cell_length_b   8.26188311
_cell_length_c   8.26188247
_cell_angle_alpha   60.02320220
_cell_angle_beta   60.02320109
_cell_angle_gamma   60.02320358
_symmetry_Int_Tables_number   1
_chemical_formula_structural   Nb12Al9Co3C4
_chemical_formula_sum   'Nb12 Al9 Co3 C4'
_cell_volume   398.97938439
_cell_formula_units_Z   1
loop_
 _symmetry_equiv_pos_site_id
 _symmetry_equiv_pos_as_xyz
  1  'x, y, z'
loop_
 _atom_site_type_symbol
 _atom_site_label
 _atom_site_symmetry_multiplicity
 _atom_site_fract_x
 _atom_site_fract_y
 _atom_site_fract_z
 _atom_site_occupancy
  Nb  Nb0  1  0.68735562  0.31209863  0.68735562  1
  Nb  Nb1  1  0.93790137  0.56264438  0.56264438  1
  Nb  Nb2  1  0.55755670  0.94012226  0.94012226  1
  Nb  Nb3  1  0.94012226  0.55755670  0.94012226  1
  Nb  Nb4  1  0.56264438  0.56264438  0.93790137  1
  Nb  Nb5  1  0.94012226  0.94012226  0.55755670  1
  Nb  Nb6  1  0.68735562  0.68735562  0.31209863  1
  Nb  Nb7  1  0.31209863  0.68735562  0.68735562  1
  Nb  Nb8  1  0.69244330  0.30987774  0.30987774  1
  Nb  Nb9  1  0.30987774  0.30987774  0.69244330  1
  Nb  Nb10  1  0.56264438  0.93790137  0.56264438  1
  Nb  Nb11  1  0.30987774  0.69244330  0.30987774  1
  Al  Al0  1  0.12500000  0.12500000  0.12500000  1
  Al  Al1  1  0.33313718  0.33313718  0.33313718  1
  Al  Al2  1  0.24712001  0.90993546  0.90993546  1
  Al  Al3  1  0.90993546  0.24712001  0.90993546  1
  Al  Al4  1  0.90993546  0.90993546  0.24712001  1
  Al  Al5  1  0.34006454  0.00287999  0.34006454  1
  Al  Al6  1  0.34006454  0.34006454  0.00287999  1
  Al  Al7  1  0.00287999  0.34006454  0.34006454  1
  Al  Al8  1  0.91686282  0.91686282  0.91686282  1
  Co  Co0  1  0.62500000  0.12500000  0.12500000  1
  Co  Co1  1  0.12500000  0.62500000  0.12500000  1
  Co  Co2  1  0.12500000  0.12500000  0.62500000  1
  C  C0  1  0.62500000  0.62500000  0.62500000  1
  C  C1  1  0.12500000  0.62500000  0.62500000  1
  C  C2  1  0.62500000  0.12500000  0.62500000  1
  C  C3  1  0.62500000  0.62500000  0.12500000  1
loop_
_geom_bond_atom_site_label_1
_geom_bond_atom_site_label_2
_geom_bond_distance
_geom_bond_site_symmetry_2
Al0 Al5 2.627598 1_555
Al0 Al3 2.627598 1_454
Al0 Al7 2.627598 1_555
Al0 Al2 2.627598 1_544
Al0 Al6 2.627598 1_555
Al0 Al4 2.627598 1_445
Al0 Nb5 2.976487 1_445
Al0 Nb9 2.976487 1_554
Al0 Nb2 2.976488 1_544
Al0 Nb8 2.976488 1_455
Al0 Nb3 2.976488 1_454
Al0 Nb11 2.976488 1_545
Al1 Co2 2.529094 1_555
Al1 Co0 2.529094 1_555
Al1 Co1 2.529094 1_555
Al2 Co2 2.473663 1_565
Al2 Co1 2.473663 1_556
Al3 Co2 2.473663 1_655
Al3 Co0 2.473663 1_556
Al4 Co0 2.473663 1_565
Al4 Co1 2.473663 1_655
Al5 Co2 2.473663 1_555
Al5 Co0 2.473663 1_555
Al6 Co0 2.473663 1_555
Al6 Co1 2.473663 1_555
Al7 Co2 2.473663 1_555
Al7 Co1 2.473663 1_555
Al8 Co2 2.529094 1_665
Al8 Co0 2.529094 1_566
Al8 Co1 2.529094 1_656
Co0 Nb8 3.001509 1_555
Co0 Nb2 3.001509 1_544
Co0 Nb10 3.012921 1_545
Co0 Nb0 3.012921 1_554
Co0 Nb4 3.012921 1_554
Co0 Nb6 3.012921 1_545
Co1 Nb11 3.001509 1_555
Co1 Nb3 3.001509 1_454
Co1 Nb1 3.012921 1_455
Co1 Nb7 3.012921 1_554
Co1 Nb4 3.012921 1_554
Co1 Nb6 3.012921 1_455
Co2 Nb9 3.001509 1_555
Co2 Nb5 3.001509 1_445
Co2 Nb10 3.012921 1_545
Co2 Nb0 3.012921 1_455
Co2 Nb1 3.012921 1_455
Co2 Nb7 3.012921 1_545
C0 Nb4 2.194837 1_555
C0 Nb6 2.194837 1_555
C0 Nb1 2.194837 1_555
C0 Nb7 2.194837 1_555
C0 Nb10 2.194837 1_555
C0 Nb0 2.194837 1_555
C1 Nb7 2.185651 1_555
C1 Nb1 2.185651 1_455
C1 Nb3 2.201977 1_455
C1 Nb11 2.201977 1_555
C1 Nb5 2.201978 1_455
C1 Nb9 2.201978 1_555
C2 Nb0 2.185651 1_555
C2 Nb10 2.185651 1_545
C2 Nb2 2.201977 1_545
C2 Nb8 2.201977 1_555
C2 Nb5 2.201978 1_545
C2 Nb9 2.201978 1_555
C3 Nb6 2.185651 1_555
C3 Nb4 2.185651 1_554
C3 Nb3 2.201977 1_554
C3 Nb11 2.201977 1_555
C3 Nb2 2.201978 1_554
C3 Nb8 2.201978 1_555
