# generated using pymatgen
data_SrP12PdRu3
_symmetry_space_group_name_H-M   'P 1'
_cell_length_a   7.02703431
_cell_length_b   7.02703512
_cell_length_c   7.02703510
_cell_angle_alpha   109.46357076
_cell_angle_beta   109.46356504
_cell_angle_gamma   109.46356486
_symmetry_Int_Tables_number   1
_chemical_formula_structural   SrP12PdRu3
_chemical_formula_sum   'Sr1 P12 Pd1 Ru3'
_cell_volume   267.18829988
_cell_formula_units_Z   1
loop_
 _symmetry_equiv_pos_site_id
 _symmetry_equiv_pos_as_xyz
  1  'x, y, z'
loop_
 _atom_site_type_symbol
 _atom_site_label
 _atom_site_symmetry_multiplicity
 _atom_site_fract_x
 _atom_site_fract_y
 _atom_site_fract_z
 _atom_site_occupancy
  Sr  Sr0  1  0.00000000  0.00000000  0.00000000  1
  P  P0  1  0.35616824  0.21298701  0.85623925  1
  P  P1  1  0.64383176  0.78701299  0.14376075  1
  P  P2  1  0.64648211  0.49969292  0.86585414  1
  P  P3  1  0.35351789  0.50030708  0.13414586  1
  P  P4  1  0.21298701  0.85623925  0.35616824  1
  P  P5  1  0.78701299  0.14376075  0.64383176  1
  P  P6  1  0.49969292  0.86585414  0.64648211  1
  P  P7  1  0.50030708  0.13414586  0.35351789  1
  P  P8  1  0.85623925  0.35616824  0.21298701  1
  P  P9  1  0.14376075  0.64383176  0.78701299  1
  P  P10  1  0.86585414  0.64648211  0.49969292  1
  P  P11  1  0.13414586  0.35351789  0.50030708  1
  Pd  Pd0  1  0.50000000  0.50000000  0.50000000  1
  Ru  Ru0  1  0.00000000  0.00000000  0.50000000  1
  Ru  Ru1  1  0.50000000  0.00000000  0.00000000  1
  Ru  Ru2  1  0.00000000  0.50000000  0.00000000  1
loop_
_geom_bond_atom_site_label_1
_geom_bond_atom_site_label_2
_geom_bond_distance
_geom_bond_site_symmetry_2
P0 P2 2.302990 1_555
P0 P3 2.304806 1_556
P0 Ru0 2.366899 1_555
P0 Ru1 2.370088 1_556
P0 Sr0 3.117821 1_556
P1 P3 2.302990 1_555
P1 P2 2.304806 1_554
P1 Ru0 2.366899 1_665
P1 Ru1 2.370088 1_565
P1 Sr0 3.117821 1_665
P2 Ru2 2.343987 1_656
P2 Pd0 2.431164 1_555
P2 Sr0 3.135356 1_666
P3 Ru2 2.343987 1_555
P3 Pd0 2.431164 1_555
P3 Sr0 3.135356 1_555
P4 P6 2.302990 1_555
P4 P7 2.304806 1_565
P4 Ru2 2.366899 1_555
P4 Ru0 2.370088 1_565
P4 Sr0 3.117821 1_565
P5 P7 2.302990 1_555
P5 P6 2.304806 1_545
P5 Ru2 2.366899 1_656
P5 Ru0 2.370088 1_655
P5 Sr0 3.117821 1_656
P6 Ru1 2.343987 1_566
P6 Pd0 2.431164 1_555
P6 Sr0 3.135356 1_666
P7 Ru1 2.343987 1_555
P7 Pd0 2.431164 1_555
P7 Sr0 3.135356 1_555
P8 Ru1 2.366899 1_555
P8 Ru2 2.370088 1_655
P8 Sr0 3.117821 1_655
P9 Ru1 2.366899 1_566
P9 Ru2 2.370088 1_556
P9 Sr0 3.117821 1_566
P10 P8 2.302990 1_555
P10 P9 2.304806 1_655
P10 Ru0 2.343987 1_665
P10 Pd0 2.431164 1_555
P10 Sr0 3.135356 1_666
P11 P9 2.302990 1_555
P11 P8 2.304806 1_455
P11 Ru0 2.343987 1_555
P11 Pd0 2.431164 1_555
P11 Sr0 3.135356 1_555
