# generated using pymatgen
data_Ca4Fe(RuO4)3
_symmetry_space_group_name_H-M   'P 1'
_cell_length_a   5.35231660
_cell_length_b   5.55241991
_cell_length_c   7.63181768
_cell_angle_alpha   90.03061629
_cell_angle_beta   89.83098179
_cell_angle_gamma   89.54420640
_symmetry_Int_Tables_number   1
_chemical_formula_structural   Ca4Fe(RuO4)3
_chemical_formula_sum   'Ca4 Fe1 Ru3 O12'
_cell_volume   226.79651943
_cell_formula_units_Z   1
loop_
 _symmetry_equiv_pos_site_id
 _symmetry_equiv_pos_as_xyz
  1  'x, y, z'
loop_
 _atom_site_type_symbol
 _atom_site_label
 _atom_site_symmetry_multiplicity
 _atom_site_fract_x
 _atom_site_fract_y
 _atom_site_fract_z
 _atom_site_occupancy
  Ca  Ca0  1  0.99055656  0.94661856  0.75206253  1
  Ca  Ca1  1  0.00944738  0.05286949  0.24794739  1
  Ca  Ca2  1  0.48186178  0.55874097  0.24775094  1
  Ca  Ca3  1  0.51812687  0.44078802  0.75221804  1
  Fe  Fe0  1  0.49999833  0.99981100  0.00001064  1
  Ru  Ru0  1  0.99997556  0.49978508  0.99999917  1
  Ru  Ru1  1  0.50000093  0.99971384  0.50000823  1
  Ru  Ru2  1  0.00001222  0.49972316  0.50000851  1
  O  O0  1  0.80461141  0.19964571  0.55109326  1
  O  O1  1  0.19540497  0.79979967  0.44889096  1
  O  O2  1  0.09540540  0.52965984  0.75266944  1
  O  O3  1  0.90459343  0.46984829  0.24733728  1
  O  O4  1  0.29361447  0.29805025  0.04555654  1
  O  O5  1  0.70637043  0.70146121  0.95446092  1
  O  O6  1  0.70020627  0.69625078  0.54449079  1
  O  O7  1  0.29982080  0.30318007  0.45550900  1
  O  O8  1  0.41586528  0.02425330  0.74800891  1
  O  O9  1  0.58415088  0.97525609  0.25199608  1
  O  O10  1  0.19683242  0.78992413  0.04574327  1
  O  O11  1  0.80314758  0.20960953  0.95423713  1
loop_
_geom_bond_atom_site_label_1
_geom_bond_atom_site_label_2
_geom_bond_distance
_geom_bond_site_symmetry_2
Ca0 O0 2.303424 1_565
Ca0 O8 2.320327 1_665
Ca0 O11 2.341864 1_565
Ca0 O2 2.377842 1_655
Ca0 O5 2.563950 1_555
Ca0 O6 2.627478 1_555
Ca0 O10 2.645902 1_656
Ca0 O1 2.681214 1_655
Ca1 O1 2.303466 1_545
Ca1 O9 2.320240 1_445
Ca1 O10 2.341801 1_545
Ca1 O3 2.377957 1_455
Ca1 O4 2.563925 1_555
Ca1 O7 2.627336 1_555
Ca1 O11 2.646229 1_454
Ca1 O0 2.680947 1_455
Ca2 O3 2.311956 1_555
Ca2 O7 2.343539 1_555
Ca2 O4 2.349789 1_555
Ca2 O9 2.381047 1_555
Ca2 O10 2.517277 1_555
Ca2 O1 2.539663 1_555
Ca2 O5 2.661434 1_554
Ca2 O6 2.665588 1_555
Ca3 O2 2.311878 1_555
Ca3 O6 2.343134 1_555
Ca3 O5 2.349963 1_555
Ca3 O8 2.381114 1_555
Ca3 O11 2.517289 1_555
Ca3 O0 2.539924 1_555
Ca3 O4 2.661783 1_556
Ca3 O7 2.665454 1_555
Fe0 O9 1.980962 1_555
Fe0 O8 1.981017 1_564
Fe0 O4 2.012765 1_565
Fe0 O5 2.013238 1_554
Fe0 O11 2.034413 1_564
Fe0 O10 2.034716 1_555
O0 Ru2 2.011935 1_655
O0 Ru1 2.018546 1_545
O1 Ru2 2.011956 1_555
O1 Ru1 2.018477 1_555
O2 Ru0 1.961463 1_455
O2 Ru2 2.003329 1_555
O3 Ru0 1.961489 1_554
O3 Ru2 2.003411 1_655
O4 Ru0 1.954803 1_454
O5 Ru0 1.954448 1_555
O6 Ru2 1.961996 1_655
O6 Ru1 2.019058 1_555
O7 Ru2 1.962077 1_555
O7 Ru1 2.019024 1_545
O8 Ru1 1.948685 1_545
O9 Ru1 1.948756 1_555
O10 Ru0 1.963631 1_454
O11 Ru0 1.963739 1_555
