# generated using pymatgen
data_ScSeIO6
_symmetry_space_group_name_H-M   'P 1'
_cell_length_a   5.16821440
_cell_length_b   5.53836153
_cell_length_c   9.51668530
_cell_angle_alpha   90.34901840
_cell_angle_beta   90.00154441
_cell_angle_gamma   89.99207255
_symmetry_Int_Tables_number   1
_chemical_formula_structural   ScSeIO6
_chemical_formula_sum   'Sc2 Se2 I2 O12'
_cell_volume   272.39521235
_cell_formula_units_Z   2
loop_
 _symmetry_equiv_pos_site_id
 _symmetry_equiv_pos_as_xyz
  1  'x, y, z'
loop_
 _atom_site_type_symbol
 _atom_site_label
 _atom_site_symmetry_multiplicity
 _atom_site_fract_x
 _atom_site_fract_y
 _atom_site_fract_z
 _atom_site_occupancy
  Sc  Sc0  1  0.81348976  0.73553414  0.25928153  1
  Sc  Sc1  1  0.31350341  0.26445866  0.74075546  1
  Se  Se0  1  0.70993606  0.23937441  0.42769549  1
  Se  Se1  1  0.20996883  0.76072112  0.57233126  1
  I  I0  1  0.74786443  0.76731489  0.89346484  1
  I  I1  1  0.24774038  0.23255483  0.10650430  1
  O  O0  1  0.61882364  0.67147025  0.06268967  1
  O  O1  1  0.11865799  0.32853348  0.93729797  1
  O  O2  1  0.00921243  0.81283971  0.43587384  1
  O  O3  1  0.50911271  0.18719105  0.56410615  1
  O  O4  1  0.57417656  0.49273815  0.35615940  1
  O  O5  1  0.07421276  0.50734992  0.64388267  1
  O  O6  1  0.56344275  0.04545043  0.88146293  1
  O  O7  1  0.06332928  0.95447983  0.11850474  1
  O  O8  1  0.55054412  0.57755579  0.78446811  1
  O  O9  1  0.05050898  0.42236094  0.21553325  1
  O  O10  1  0.58796936  0.03326288  0.30638899  1
  O  O11  1  0.08800155  0.96681353  0.69360140  1
loop_
_geom_bond_atom_site_label_1
_geom_bond_atom_site_label_2
_geom_bond_distance
_geom_bond_site_symmetry_2
I0 O8 1.790924 1_555
I0 O6 1.815520 1_565
I0 O0 1.825018 1_556
I1 O9 1.790857 1_555
I1 O7 1.815433 1_545
I1 O1 1.825076 1_554
O0 Sc0 2.151805 1_555
O1 Sc1 2.151842 1_555
O2 Se1 1.688391 1_555
O2 Sc0 2.005519 1_455
O3 Se0 1.688417 1_555
O3 Sc1 2.005619 1_555
O4 Se0 1.713513 1_555
O4 Sc0 2.050257 1_555
O5 Se1 1.713772 1_555
O5 Sc1 2.050258 1_555
O6 Sc1 2.225353 1_555
O7 Sc0 2.225500 1_455
O8 Sc1 2.161609 1_555
O9 Sc0 2.161688 1_455
O10 Se0 1.737019 1_555
O10 Sc0 2.066135 1_545
O11 Se1 1.736631 1_555
O11 Sc1 2.066050 1_565
