# generated using pymatgen
data_Nb6FeSi6Tc5
_symmetry_space_group_name_H-M   'P 1'
_cell_length_a   7.50330182
_cell_length_b   7.50994245
_cell_length_c   7.50994065
_cell_angle_alpha   127.55275653
_cell_angle_beta   124.49691397
_cell_angle_gamma   79.89176947
_symmetry_Int_Tables_number   1
_chemical_formula_structural   Nb6FeSi6Tc5
_chemical_formula_sum   'Nb6 Fe1 Si6 Tc5'
_cell_volume   267.01285999
_cell_formula_units_Z   1
loop_
 _symmetry_equiv_pos_site_id
 _symmetry_equiv_pos_as_xyz
  1  'x, y, z'
loop_
 _atom_site_type_symbol
 _atom_site_label
 _atom_site_symmetry_multiplicity
 _atom_site_fract_x
 _atom_site_fract_y
 _atom_site_fract_z
 _atom_site_occupancy
  Nb  Nb0  1  0.55310907  0.09623161  0.04362493  1
  Nb  Nb1  1  0.44689093  0.49051686  0.54312354  1
  Nb  Nb2  1  0.96023852  0.49745480  0.03429492  1
  Nb  Nb3  1  0.03976148  0.07405640  0.53721629  1
  Nb  Nb4  1  0.75338044  0.91327668  0.66159345  1
  Nb  Nb5  1  0.24661956  0.90821301  0.15989824  1
  Fe  Fe0  1  0.00000000  0.24542911  0.24542911  1
  Si  Si0  1  0.33562239  0.82702056  0.49687238  1
  Si  Si1  1  0.66437761  0.16124899  0.49139717  1
  Si  Si2  1  0.82933459  0.82940977  0.99313540  1
  Si  Si3  1  0.17066541  0.16379981  0.00007518  1
  Si  Si4  1  0.77389438  0.51983838  0.25220265  1
  Si  Si5  1  0.22610562  0.47830827  0.74594501  1
  Tc  Tc0  1  0.15658582  0.74899676  0.65257424  1
  Tc  Tc1  1  0.84341418  0.49598742  0.59241094  1
  Tc  Tc2  1  0.59530588  0.74828809  0.09304373  1
  Tc  Tc3  1  0.40469412  0.49773685  0.15298221  1
  Tc  Tc4  1  0.50000000  0.24618463  0.74618463  1
loop_
_geom_bond_atom_site_label_1
_geom_bond_atom_site_label_2
_geom_bond_distance
_geom_bond_site_symmetry_2
Nb0 Si2 2.638358 1_544
Nb0 Si0 2.656912 1_544
Nb0 Si1 2.684204 1_555
Nb0 Si3 2.688327 1_555
Nb0 Tc0 2.787049 1_544
Nb0 Tc1 2.790597 1_555
Nb0 Tc2 2.797245 1_545
Nb0 Tc3 2.800925 1_555
Nb0 Si4 2.855631 1_555
Nb0 Tc4 2.883963 1_554
Nb1 Si3 2.638364 1_555
Nb1 Si1 2.656922 1_555
Nb1 Si0 2.684205 1_555
Nb1 Si2 2.688324 1_555
Nb1 Tc1 2.787050 1_555
Nb1 Tc0 2.790593 1_555
Nb1 Tc3 2.797243 1_555
Nb1 Tc2 2.800925 1_556
Nb1 Si5 2.855633 1_555
Nb1 Tc4 2.883964 1_555
Nb2 Si4 2.614426 1_555
Nb2 Si0 2.647636 1_655
Nb2 Si2 2.647844 1_554
Nb2 Si1 2.663234 1_554
Nb2 Si3 2.669002 1_655
Nb2 Tc1 2.906012 1_554
Nb2 Tc3 2.923884 1_655
Nb2 Tc4 3.002420 1_554
Nb2 Tc2 3.128202 1_555
Nb2 Tc0 3.136060 1_655
Nb3 Si5 2.614424 1_555
Nb3 Si1 2.647632 1_455
Nb3 Si3 2.647847 1_556
Nb3 Si0 2.663229 1_545
Nb3 Si2 2.668996 1_444
Nb3 Tc0 2.906017 1_545
Nb3 Tc2 2.923884 1_445
Nb3 Tc4 3.002420 1_555
Nb3 Tc3 3.128201 1_556
Nb3 Tc1 3.136054 1_455
Nb4 Si3 2.650896 1_666
Nb4 Si1 2.654390 1_565
Nb4 Si2 2.664430 1_555
Nb4 Si0 2.668160 1_555
Nb4 Si4 2.740324 1_555
Nb4 Tc4 2.834124 1_565
Nb4 Tc3 2.861719 1_555
Nb4 Tc1 2.866502 1_555
Nb4 Tc0 3.082149 1_655
Nb4 Tc2 3.082761 1_555
Nb5 Si2 2.650894 1_454
Nb5 Si0 2.654377 1_555
Nb5 Si3 2.664434 1_565
Nb5 Si1 2.668161 1_565
Nb5 Si5 2.740327 1_554
Nb5 Tc4 2.834114 1_565
Nb5 Tc2 2.861721 1_555
Nb5 Tc0 2.866508 1_554
Nb5 Tc1 3.082156 1_454
Nb5 Tc3 3.082763 1_555
Fe0 Si4 2.422902 1_455
Fe0 Si5 2.422908 1_555
Fe0 Si3 2.535943 1_555
Fe0 Si2 2.535946 1_444
Fe0 Nb5 2.822894 1_545
Fe0 Nb4 2.822895 1_444
Fe0 Nb0 2.878973 1_455
Fe0 Nb1 2.878973 1_555
Fe0 Tc1 2.902802 1_455
Fe0 Tc0 2.902804 1_555
Fe0 Nb3 3.018223 1_555
Fe0 Nb2 3.018223 1_455
Si0 Tc3 2.516912 1_555
Si0 Tc0 2.531021 1_555
Si0 Tc4 2.549234 1_565
Si1 Tc2 2.516903 1_545
Si1 Tc1 2.531017 1_555
Si1 Tc4 2.549237 1_555
Si2 Tc1 2.533627 1_555
Si2 Tc2 2.538248 1_556
Si3 Tc0 2.533621 1_544
Si3 Tc3 2.538249 1_555
Si4 Tc1 2.418132 1_555
Si4 Tc0 2.427927 1_655
Si4 Tc3 2.435030 1_555
Si4 Tc4 2.450400 1_554
Si4 Tc2 2.458907 1_555
Si5 Tc0 2.418132 1_555
Si5 Tc1 2.427925 1_455
Si5 Tc2 2.435031 1_556
Si5 Tc4 2.450400 1_555
Si5 Tc3 2.458905 1_556
Tc0 Tc1 2.941811 1_455
Tc0 Tc2 3.075624 1_556
Tc1 Tc3 3.075624 1_555
Tc2 Tc4 2.894588 1_554
Tc2 Tc3 2.914616 1_555
Tc3 Tc4 2.894588 1_554
