# generated using pymatgen
data_YSc6CoBr12
_symmetry_space_group_name_H-M   'P 1'
_cell_length_a   8.68680730
_cell_length_b   8.68680742
_cell_length_c   8.68680629
_cell_angle_alpha   106.55505749
_cell_angle_beta   106.55505415
_cell_angle_gamma   106.55505844
_symmetry_Int_Tables_number   1
_chemical_formula_structural   YSc6CoBr12
_chemical_formula_sum   'Y1 Sc6 Co1 Br12'
_cell_volume   552.40868005
_cell_formula_units_Z   1
loop_
 _symmetry_equiv_pos_site_id
 _symmetry_equiv_pos_as_xyz
  1  'x, y, z'
loop_
 _atom_site_type_symbol
 _atom_site_label
 _atom_site_symmetry_multiplicity
 _atom_site_fract_x
 _atom_site_fract_y
 _atom_site_fract_z
 _atom_site_occupancy
  Y  Y0  1  0.50000000  0.50000000  0.50000000  1
  Sc  Sc0  1  0.29542629  0.09286115  0.01883677  1
  Sc  Sc1  1  0.09286115  0.01883677  0.29542629  1
  Sc  Sc2  1  0.01883677  0.29542629  0.09286115  1
  Sc  Sc3  1  0.70457371  0.90713885  0.98116323  1
  Sc  Sc4  1  0.90713885  0.98116323  0.70457371  1
  Sc  Sc5  1  0.98116323  0.70457371  0.90713885  1
  Co  Co0  1  0.00000000  0.00000000  0.00000000  1
  Br  Br0  1  0.22165610  0.07144103  0.67746993  1
  Br  Br1  1  0.07144103  0.67746993  0.22165610  1
  Br  Br2  1  0.67746993  0.22165610  0.07144103  1
  Br  Br3  1  0.77834390  0.92855897  0.32253007  1
  Br  Br4  1  0.92855897  0.32253007  0.77834390  1
  Br  Br5  1  0.32253007  0.77834390  0.92855897  1
  Br  Br6  1  0.37937304  0.45628985  0.14968433  1
  Br  Br7  1  0.45628985  0.14968433  0.37937304  1
  Br  Br8  1  0.14968433  0.37937304  0.45628985  1
  Br  Br9  1  0.62062696  0.54371015  0.85031567  1
  Br  Br10  1  0.54371015  0.85031567  0.62062696  1
  Br  Br11  1  0.85031567  0.62062696  0.54371015  1
loop_
_geom_bond_atom_site_label_1
_geom_bond_atom_site_label_2
_geom_bond_distance
_geom_bond_site_symmetry_2
Co0 Sc1 2.401913 1_555
Co0 Sc4 2.401913 1_444
Co0 Sc0 2.401913 1_555
Co0 Sc3 2.401913 1_444
Co0 Sc5 2.401913 1_444
Co0 Sc2 2.401913 1_555
Br0 Sc4 2.717697 1_445
Br0 Sc0 2.788096 1_556
Br0 Sc1 3.033650 1_555
Br1 Sc5 2.717696 1_454
Br1 Sc1 2.788097 1_565
Br1 Sc2 3.033651 1_555
Br2 Sc3 2.717697 1_544
Br2 Sc2 2.788097 1_655
Br2 Sc0 3.033651 1_555
Br3 Sc1 2.717697 1_665
Br3 Sc3 2.788096 1_554
Br3 Sc4 3.033650 1_555
Br4 Sc2 2.717696 1_656
Br4 Sc4 2.788097 1_545
Br4 Sc5 3.033651 1_555
Br5 Sc0 2.717697 1_566
Br5 Sc5 2.788097 1_455
Br5 Sc3 3.033651 1_555
Br6 Y0 2.792917 1_555
Br6 Sc0 2.821585 1_555
Br6 Sc2 2.870032 1_555
Br7 Y0 2.792917 1_555
Br7 Sc1 2.821585 1_555
Br7 Sc0 2.870032 1_555
Br8 Y0 2.792917 1_555
Br8 Sc2 2.821585 1_555
Br8 Sc1 2.870032 1_555
Br9 Y0 2.792917 1_555
Br9 Sc3 2.821585 1_555
Br9 Sc5 2.870032 1_555
Br10 Y0 2.792917 1_555
Br10 Sc4 2.821585 1_555
Br10 Sc3 2.870032 1_555
Br11 Y0 2.792917 1_555
Br11 Sc5 2.821585 1_555
Br11 Sc4 2.870032 1_555
