# generated using pymatgen
data_Ti6Al8Co7Si8
_symmetry_space_group_name_H-M   'P 1'
_cell_length_a   8.06450031
_cell_length_b   8.06450065
_cell_length_c   8.06450158
_cell_angle_alpha   60.00000424
_cell_angle_beta   60.00000285
_cell_angle_gamma   59.99999866
_symmetry_Int_Tables_number   1
_chemical_formula_structural   Ti6Al8Co7Si8
_chemical_formula_sum   'Ti6 Al8 Co7 Si8'
_cell_volume   370.86640698
_cell_formula_units_Z   1
loop_
 _symmetry_equiv_pos_site_id
 _symmetry_equiv_pos_as_xyz
  1  'x, y, z'
loop_
 _atom_site_type_symbol
 _atom_site_label
 _atom_site_symmetry_multiplicity
 _atom_site_fract_x
 _atom_site_fract_y
 _atom_site_fract_z
 _atom_site_occupancy
  Ti  Ti0  1  0.69328644  0.30671356  0.30671356  1
  Ti  Ti1  1  0.30671356  0.69328644  0.69328644  1
  Ti  Ti2  1  0.30671356  0.69328644  0.30671356  1
  Ti  Ti3  1  0.30671356  0.30671356  0.69328644  1
  Ti  Ti4  1  0.69328644  0.30671356  0.69328644  1
  Ti  Ti5  1  0.69328644  0.69328644  0.30671356  1
  Al  Al0  1  0.11997444  0.11997444  0.11997444  1
  Al  Al1  1  0.11997444  0.11997444  0.64007668  1
  Al  Al2  1  0.64007668  0.11997444  0.11997444  1
  Al  Al3  1  0.11997444  0.64007668  0.11997444  1
  Al  Al4  1  0.88002556  0.88002556  0.88002556  1
  Al  Al5  1  0.88002556  0.88002556  0.35992532  1
  Al  Al6  1  0.88002556  0.35992532  0.88002556  1
  Al  Al7  1  0.35992532  0.88002556  0.88002556  1
  Co  Co0  1  0.00000000  0.00000000  0.00000000  1
  Co  Co1  1  0.50000100  0.00000000  0.00000000  1
  Co  Co2  1  0.00000200  0.50000000  0.50000000  1
  Co  Co3  1  0.00000000  0.50000100  0.00000000  1
  Co  Co4  1  0.00000000  0.00000000  0.50000100  1
  Co  Co5  1  0.50000000  0.00000200  0.50000000  1
  Co  Co6  1  0.50000000  0.50000000  0.00000200  1
  Si  Si0  1  0.34251726  0.34251726  0.34251726  1
  Si  Si1  1  0.34251726  0.34251726  0.97244721  1
  Si  Si2  1  0.97244721  0.34251726  0.34251726  1
  Si  Si3  1  0.34251726  0.97244721  0.34251726  1
  Si  Si4  1  0.65748174  0.65748174  0.65748174  1
  Si  Si5  1  0.65748174  0.65748174  0.02755379  1
  Si  Si6  1  0.65748174  0.02755379  0.65748174  1
  Si  Si7  1  0.02755379  0.65748174  0.65748174  1
loop_
_geom_bond_atom_site_label_1
_geom_bond_atom_site_label_2
_geom_bond_distance
_geom_bond_site_symmetry_2
Al0 Co0 2.369964 1_555
Al0 Co1 2.504087 1_555
Al0 Co3 2.504087 1_555
Al0 Co4 2.504087 1_555
Al0 Si1 2.609186 1_554
Al0 Si3 2.609186 1_545
Al0 Si2 2.609186 1_455
Al0 Al7 2.736599 1_544
Al0 Al6 2.736599 1_454
Al0 Al5 2.736599 1_445
Al0 Ti0 2.877552 1_455
Al0 Ti2 2.877552 1_545
Al0 Ti3 2.877552 1_554
Al1 Co0 2.369965 1_556
Al1 Co4 2.504074 1_555
Al1 Co5 2.504080 1_555
Al1 Co2 2.504080 1_555
Al1 Si0 2.609188 1_555
Al1 Si3 2.609193 1_545
Al1 Si2 2.609193 1_455
Al1 Al4 2.736599 1_445
Al1 Al7 2.736611 1_545
Al1 Al6 2.736611 1_455
Al1 Ti4 2.877552 1_455
Al1 Ti3 2.877552 1_555
Al1 Ti1 2.877552 1_545
Al2 Co0 2.369964 1_655
Al2 Co1 2.504074 1_555
Al2 Co6 2.504080 1_555
Al2 Co5 2.504081 1_555
Al2 Si0 2.609188 1_555
Al2 Si1 2.609193 1_554
Al2 Si3 2.609193 1_545
Al2 Al4 2.736599 1_544
Al2 Al5 2.736611 1_545
Al2 Al6 2.736611 1_554
Al2 Ti0 2.877552 1_555
Al2 Ti5 2.877552 1_545
Al2 Ti4 2.877552 1_554
Al3 Co0 2.369965 1_565
Al3 Co3 2.504074 1_555
Al3 Co6 2.504080 1_555
Al3 Co2 2.504081 1_555
Al3 Si0 2.609188 1_555
Al3 Si1 2.609193 1_554
Al3 Si2 2.609193 1_455
Al3 Al4 2.736599 1_454
Al3 Al5 2.736611 1_455
Al3 Al7 2.736611 1_554
Al3 Ti5 2.877552 1_455
Al3 Ti2 2.877552 1_555
Al3 Ti1 2.877552 1_554
Al4 Co0 2.369964 1_666
Al4 Co1 2.504073 1_566
Al4 Co3 2.504074 1_656
Al4 Co4 2.504074 1_665
Al4 Si5 2.609197 1_556
Al4 Si6 2.609198 1_565
Al4 Si7 2.609198 1_655
Al4 Ti1 2.877552 1_655
Al4 Ti4 2.877552 1_565
Al4 Ti5 2.877552 1_556
Al5 Co0 2.369978 1_665
Al5 Co4 2.504074 1_665
Al5 Co5 2.504080 1_565
Al5 Co2 2.504080 1_655
Al5 Si6 2.609178 1_565
Al5 Si7 2.609178 1_655
Al5 Si4 2.609192 1_555
Al5 Ti2 2.877549 1_655
Al5 Ti0 2.877549 1_565
Al5 Ti5 2.877563 1_555
Al6 Co0 2.369978 1_656
Al6 Co3 2.504074 1_656
Al6 Co6 2.504080 1_556
Al6 Co2 2.504080 1_655
Al6 Si5 2.609178 1_556
Al6 Si7 2.609178 1_655
Al6 Si4 2.609192 1_555
Al6 Ti3 2.877549 1_655
Al6 Ti0 2.877549 1_556
Al6 Ti4 2.877563 1_555
Al7 Co0 2.369978 1_566
Al7 Co1 2.504074 1_566
Al7 Co6 2.504080 1_556
Al7 Co5 2.504080 1_565
Al7 Si5 2.609178 1_556
Al7 Si6 2.609178 1_565
Al7 Si4 2.609192 1_555
Al7 Ti3 2.877549 1_565
Al7 Ti2 2.877549 1_556
Al7 Ti1 2.877563 1_555
Co1 Si1 2.335077 1_554
Co1 Si3 2.335077 1_545
Co1 Si5 2.335082 1_545
Co1 Si6 2.335083 1_554
Co1 Ti5 2.923673 1_545
Co1 Ti4 2.923673 1_554
Co1 Ti3 2.923682 1_554
Co1 Ti2 2.923682 1_545
Co2 Si7 2.335065 1_555
Co2 Si0 2.335069 1_555
Co2 Si4 2.335091 1_455
Co2 Si2 2.335094 1_455
Co2 Ti3 2.923664 1_555
Co2 Ti2 2.923664 1_555
Co2 Ti5 2.923691 1_455
Co2 Ti4 2.923691 1_455
Co3 Si1 2.335077 1_554
Co3 Si2 2.335077 1_455
Co3 Si5 2.335082 1_455
Co3 Si7 2.335083 1_554
Co3 Ti5 2.923673 1_455
Co3 Ti1 2.923673 1_554
Co3 Ti3 2.923682 1_554
Co3 Ti0 2.923682 1_455
Co4 Si3 2.335077 1_545
Co4 Si2 2.335077 1_455
Co4 Si6 2.335082 1_455
Co4 Si7 2.335082 1_545
Co4 Ti1 2.923673 1_545
Co4 Ti4 2.923673 1_455
Co4 Ti0 2.923682 1_455
Co4 Ti2 2.923682 1_545
Co5 Si6 2.335065 1_555
Co5 Si0 2.335069 1_555
Co5 Si4 2.335091 1_545
Co5 Si3 2.335094 1_545
Co5 Ti3 2.923664 1_555
Co5 Ti0 2.923664 1_555
Co5 Ti5 2.923691 1_545
Co5 Ti1 2.923691 1_545
Co6 Si5 2.335065 1_555
Co6 Si0 2.335069 1_555
Co6 Si4 2.335091 1_554
Co6 Si1 2.335094 1_554
Co6 Ti0 2.923664 1_555
Co6 Ti2 2.923664 1_555
Co6 Ti1 2.923691 1_554
Co6 Ti4 2.923691 1_554
Si0 Ti0 2.572652 1_555
Si0 Ti2 2.572652 1_555
Si0 Ti3 2.572653 1_555
Si1 Ti3 2.572645 1_555
Si1 Ti4 2.572649 1_555
Si1 Ti1 2.572649 1_555
Si2 Ti0 2.572644 1_555
Si2 Ti5 2.572649 1_555
Si2 Ti4 2.572650 1_555
Si3 Ti2 2.572644 1_555
Si3 Ti5 2.572649 1_555
Si3 Ti1 2.572650 1_555
Si4 Ti1 2.572638 1_555
Si4 Ti4 2.572638 1_555
Si4 Ti5 2.572639 1_555
Si5 Ti2 2.572641 1_555
Si5 Ti0 2.572642 1_555
Si5 Ti5 2.572646 1_555
Si6 Ti3 2.572641 1_555
Si6 Ti0 2.572642 1_555
Si6 Ti4 2.572646 1_555
Si7 Ti3 2.572641 1_555
Si7 Ti2 2.572642 1_555
Si7 Ti1 2.572646 1_555
