# generated using pymatgen
data_Lu4Si10IrOs5
_symmetry_space_group_name_H-M   'P 1'
_cell_length_a   8.02694914
_cell_length_b   8.03499607
_cell_length_c   5.71405771
_cell_angle_alpha   71.06935896
_cell_angle_beta   70.97124975
_cell_angle_gamma   94.55255865
_symmetry_Int_Tables_number   1
_chemical_formula_structural   Lu4Si10IrOs5
_chemical_formula_sum   'Lu4 Si10 Ir1 Os5'
_cell_volume   322.41257825
_cell_formula_units_Z   1
loop_
 _symmetry_equiv_pos_site_id
 _symmetry_equiv_pos_as_xyz
  1  'x, y, z'
loop_
 _atom_site_type_symbol
 _atom_site_label
 _atom_site_symmetry_multiplicity
 _atom_site_fract_x
 _atom_site_fract_y
 _atom_site_fract_z
 _atom_site_occupancy
  Lu  Lu0  1  0.86734642  0.60038768  0.75372672  1
  Lu  Lu1  1  0.40274521  0.13115364  0.74400645  1
  Lu  Lu2  1  0.13086136  0.39813906  0.25073138  1
  Lu  Lu3  1  0.59685239  0.86999412  0.25628015  1
  Si  Si0  1  0.06533410  0.25718051  0.83571870  1
  Si  Si1  1  0.73622946  0.93123437  0.66875015  1
  Si  Si2  1  0.93064866  0.73953465  0.16611768  1
  Si  Si3  1  0.26437063  0.06757043  0.32928518  1
  Si  Si4  1  0.21283316  0.79898276  0.73421489  1
  Si  Si5  1  0.79367939  0.20636488  0.25246670  1
  Si  Si6  1  0.51557251  0.48803371  0.74877045  1
  Si  Si7  1  0.48729151  0.51245626  0.25123019  1
  Si  Si8  1  0.77370460  0.22573859  0.74983092  1
  Si  Si9  1  0.22631796  0.77783747  0.25212457  1
  Ir  Ir0  1  0.25211421  0.53914992  0.63587955  1
  Os  Os0  1  0.45257485  0.74357904  0.87430806  1
  Os  Os1  1  0.74603209  0.45848891  0.36732951  1
  Os  Os2  1  0.54506768  0.25696865  0.13040535  1
  Os  Os3  1  0.00496221  0.99336212  0.74888212  1
  Os  Os4  1  0.99546060  0.00384422  0.24994128  1
loop_
_geom_bond_atom_site_label_1
_geom_bond_atom_site_label_2
_geom_bond_distance
_geom_bond_site_symmetry_2
Lu0 Si1 2.889664 1_555
Lu0 Si6 2.907400 1_555
Lu0 Si2 3.023813 1_555
Lu0 Si4 3.038065 1_655
Lu0 Si8 3.053294 1_555
Lu0 Si2 3.075873 1_556
Lu0 Os1 3.089489 1_556
Lu0 Si9 3.140298 1_655
Lu0 Os1 3.159451 1_555
Lu0 Os2 3.212684 1_556
Lu0 Os3 3.249729 1_655
Lu0 Si7 3.253714 1_556
Lu0 Si0 3.269993 1_655
Lu0 Si5 3.353251 1_556
Lu0 Os4 3.367298 1_565
Lu1 Si0 2.913682 1_555
Lu1 Si6 2.949262 1_555
Lu1 Si4 2.992843 1_545
Lu1 Si3 3.009690 1_556
Lu1 Si8 3.027707 1_555
Lu1 Os0 3.049560 1_545
Lu1 Si3 3.085811 1_555
Lu1 Os2 3.086280 1_555
Lu1 Si9 3.134829 1_546
Lu1 Os2 3.179876 1_556
Lu1 Si1 3.211083 1_545
Lu1 Os1 3.232986 1_555
Lu1 Si7 3.256081 1_555
Lu1 Os3 3.283672 1_545
Lu1 Si5 3.309288 1_555
Lu1 Os4 3.388107 1_456
Lu2 Si3 2.897739 1_555
Lu2 Si7 2.935837 1_555
Lu2 Si5 3.001730 1_455
Lu2 Si0 3.005868 1_555
Lu2 Os1 3.053910 1_455
Lu2 Si9 3.089279 1_555
Lu2 Si0 3.105562 1_554
Lu2 Si8 3.121849 1_455
Lu2 Os0 3.219564 1_554
Lu2 Os4 3.268694 1_455
Lu2 Si2 3.269121 1_455
Lu2 Si6 3.287942 1_554
Lu2 Os3 3.361127 1_545
Lu2 Si4 3.427327 1_554
Lu3 Si2 2.905059 1_555
Lu3 Si7 2.948996 1_555
Lu3 Si5 3.010463 1_565
Lu3 Si9 3.017108 1_555
Lu3 Si1 3.025889 1_554
Lu3 Os2 3.050762 1_565
Lu3 Si1 3.071348 1_555
Lu3 Os0 3.108535 1_555
Lu3 Si8 3.141667 1_564
Lu3 Os0 3.168083 1_554
Lu3 Si3 3.192668 1_565
Lu3 Si4 3.241273 1_555
Lu3 Si6 3.262670 1_555
Lu3 Os4 3.278468 1_565
Lu3 Os3 3.397987 1_654
Si0 Si5 2.536534 1_456
Si0 Si8 2.553463 1_455
Si1 Si5 2.543372 1_565
Si1 Si8 2.567864 1_565
Si2 Si9 2.590686 1_655
Si2 Si4 2.620602 1_654
Si3 Si4 2.485222 1_545
Si3 Si9 2.519566 1_545
Ir0 Si0 2.313126 1_555
Ir0 Si4 2.350319 1_555
Ir0 Si6 2.431576 1_555
Ir0 Si7 2.470831 1_555
Ir0 Si9 2.481899 1_555
Ir0 Lu0 3.055243 1_455
Ir0 Lu2 3.096229 1_556
Ir0 Lu2 3.148645 1_555
Ir0 Lu3 3.256670 1_555
Os0 Si1 2.323632 1_555
Os0 Si4 2.334859 1_555
Os0 Si6 2.422873 1_555
Os0 Si9 2.437850 1_556
Os0 Si7 2.458328 1_556
Os1 Si2 2.300115 1_555
Os1 Si5 2.345847 1_555
Os1 Si7 2.407571 1_555
Os1 Si6 2.450559 1_555
Os1 Si8 2.460525 1_555
Os2 Si3 2.312551 1_555
Os2 Si5 2.342347 1_555
Os2 Si7 2.401632 1_555
Os2 Si8 2.446392 1_554
Os2 Si6 2.457214 1_554
Os3 Si4 2.374432 1_555
Os3 Si0 2.377120 1_565
Os3 Si1 2.394446 1_455
Os3 Si2 2.433912 1_456
Os3 Si3 2.461635 1_565
Os3 Si8 2.735379 1_465
Os4 Si2 2.378526 1_545
Os4 Si5 2.385360 1_555
Os4 Si3 2.395891 1_655
Os4 Si0 2.426364 1_654
Os4 Si1 2.459958 1_545
Os4 Si9 2.695620 1_645
