# generated using pymatgen
data_Ca2Ru2O6F
_symmetry_space_group_name_H-M   'P 1'
_cell_length_a   7.21316692
_cell_length_b   7.21316617
_cell_length_c   7.21316616
_cell_angle_alpha   59.99999555
_cell_angle_beta   59.99999901
_cell_angle_gamma   59.99999846
_symmetry_Int_Tables_number   1
_chemical_formula_structural   Ca2Ru2O6F
_chemical_formula_sum   'Ca4 Ru4 O12 F2'
_cell_volume   265.37672839
_cell_formula_units_Z   2
loop_
 _symmetry_equiv_pos_site_id
 _symmetry_equiv_pos_as_xyz
  1  'x, y, z'
loop_
 _atom_site_type_symbol
 _atom_site_label
 _atom_site_symmetry_multiplicity
 _atom_site_fract_x
 _atom_site_fract_y
 _atom_site_fract_z
 _atom_site_occupancy
  Ca  Ca0  1  0.12500000  0.12500000  0.62500000  1
  Ca  Ca1  1  0.12500000  0.62500000  0.12500000  1
  Ca  Ca2  1  0.62500000  0.12500000  0.12500000  1
  Ca  Ca3  1  0.12500000  0.12500000  0.12500000  1
  Ru  Ru0  1  0.62500000  0.62500000  0.12500000  1
  Ru  Ru1  1  0.62500000  0.12500000  0.62500000  1
  Ru  Ru2  1  0.12500000  0.62500000  0.62500000  1
  Ru  Ru3  1  0.62500000  0.62500000  0.62500000  1
  O  O0  1  0.29660305  0.29660305  0.70339695  1
  O  O1  1  0.70339695  0.70339695  0.29660305  1
  O  O2  1  0.95339695  0.54660305  0.54660305  1
  O  O3  1  0.70339695  0.29660305  0.29660305  1
  O  O4  1  0.54660305  0.95339695  0.54660305  1
  O  O5  1  0.54660305  0.54660305  0.95339695  1
  O  O6  1  0.29660305  0.70339695  0.70339695  1
  O  O7  1  0.95339695  0.54660305  0.95339695  1
  O  O8  1  0.54660305  0.95339695  0.95339695  1
  O  O9  1  0.70339695  0.29660305  0.70339695  1
  O  O10  1  0.29660305  0.70339695  0.29660305  1
  O  O11  1  0.95339695  0.95339695  0.54660305  1
  F  F0  1  0.25000000  0.25000000  0.25000000  1
  F  F1  1  0.00000000  0.00000000  0.00000000  1
loop_
_geom_bond_atom_site_label_1
_geom_bond_atom_site_label_2
_geom_bond_distance
_geom_bond_site_symmetry_2
Ca0 F1 2.208572 1_556
Ca0 F0 2.208572 1_555
Ca0 O6 2.513198 1_545
Ca0 O2 2.513198 1_455
Ca0 O0 2.513198 1_555
Ca0 O11 2.513198 1_445
Ca0 O4 2.513198 1_545
Ca0 O9 2.513198 1_455
Ca1 F1 2.208572 1_565
Ca1 F0 2.208572 1_555
Ca1 O2 2.513198 1_455
Ca1 O6 2.513198 1_554
Ca1 O10 2.513198 1_555
Ca1 O7 2.513198 1_454
Ca1 O5 2.513198 1_554
Ca1 O1 2.513198 1_455
Ca2 F1 2.208572 1_655
Ca2 F0 2.208572 1_555
Ca2 O5 2.513198 1_554
Ca2 O1 2.513198 1_545
Ca2 O4 2.513198 1_545
Ca2 O9 2.513198 1_554
Ca2 O3 2.513198 1_555
Ca2 O8 2.513198 1_544
Ca3 F1 2.208572 1_555
Ca3 F0 2.208572 1_555
Ca3 O7 2.513198 1_454
Ca3 O10 2.513198 1_545
Ca3 O11 2.513198 1_445
Ca3 O0 2.513198 1_554
Ca3 O3 2.513198 1_455
Ca3 O8 2.513198 1_544
O0 Ru2 1.972668 1_555
O0 Ru1 1.972668 1_555
O1 Ru3 1.972668 1_555
O1 Ru0 1.972668 1_555
O2 Ru2 1.972668 1_655
O2 Ru3 1.972668 1_555
O3 Ru0 1.972668 1_555
O3 Ru1 1.972668 1_555
O4 Ru3 1.972668 1_555
O4 Ru1 1.972668 1_565
O5 Ru3 1.972668 1_555
O5 Ru0 1.972668 1_556
O6 Ru2 1.972668 1_555
O6 Ru3 1.972668 1_555
O7 Ru2 1.972668 1_655
O7 Ru0 1.972668 1_556
O8 Ru0 1.972668 1_556
O8 Ru1 1.972668 1_565
O9 Ru3 1.972668 1_555
O9 Ru1 1.972668 1_555
O10 Ru2 1.972668 1_555
O10 Ru0 1.972668 1_555
O11 Ru2 1.972668 1_655
O11 Ru1 1.972668 1_565
