# generated using pymatgen
data_Na3Li2SnP3
_symmetry_space_group_name_H-M   'P 1'
_cell_length_a   9.51323402
_cell_length_b   9.51323386
_cell_length_c   13.75462983
_cell_angle_alpha   90.00000000
_cell_angle_beta   90.00000000
_cell_angle_gamma   143.81977969
_symmetry_Int_Tables_number   1
_chemical_formula_structural   Na3Li2SnP3
_chemical_formula_sum   'Na12 Li8 Sn4 P12'
_cell_volume   734.84872721
_cell_formula_units_Z   4
loop_
 _symmetry_equiv_pos_site_id
 _symmetry_equiv_pos_as_xyz
  1  'x, y, z'
loop_
 _atom_site_type_symbol
 _atom_site_label
 _atom_site_symmetry_multiplicity
 _atom_site_fract_x
 _atom_site_fract_y
 _atom_site_fract_z
 _atom_site_occupancy
  Na  Na0  1  0.09558251  0.44032077  0.67898397  1
  Na  Na1  1  0.72653718  0.72653718  0.68033723  1
  Na  Na2  1  0.22653718  0.22653718  0.81966277  1
  Na  Na3  1  0.77346282  0.77346282  0.18033723  1
  Na  Na4  1  0.94032077  0.59558251  0.82101603  1
  Na  Na5  1  0.55967923  0.90441749  0.32101603  1
  Na  Na6  1  0.40441749  0.05967923  0.17898397  1
  Na  Na7  1  0.05967923  0.40441749  0.17898397  1
  Na  Na8  1  0.90441749  0.55967923  0.32101603  1
  Na  Na9  1  0.44032077  0.09558251  0.67898397  1
  Na  Na10  1  0.59558251  0.94032177  0.82101603  1
  Na  Na11  1  0.27346282  0.27346282  0.31966277  1
  Li  Li0  1  0.91668498  0.08331502  0.00000000  1
  Li  Li1  1  0.58331502  0.41668498  0.50000000  1
  Li  Li2  1  0.08331502  0.91668498  0.00000000  1
  Li  Li3  1  0.41668498  0.58331502  0.50000000  1
  Li  Li4  1  0.75578098  0.24421902  0.00000000  1
  Li  Li5  1  0.74421902  0.25578098  0.50000000  1
  Li  Li6  1  0.24421902  0.75578098  0.00000000  1
  Li  Li7  1  0.25578098  0.74421902  0.50000000  1
  Sn  Sn0  1  0.09252176  0.90747824  0.50000000  1
  Sn  Sn1  1  0.40747824  0.59252176  0.00000000  1
  Sn  Sn2  1  0.90747824  0.09252176  0.50000000  1
  Sn  Sn3  1  0.59252176  0.40747824  0.00000000  1
  P  P0  1  0.91126825  0.57967266  0.11102979  1
  P  P1  1  0.42032734  0.08873175  0.88897021  1
  P  P2  1  0.58873175  0.92032734  0.61102979  1
  P  P3  1  0.92032734  0.58873175  0.61102979  1
  P  P4  1  0.08873175  0.42032734  0.88897021  1
  P  P5  1  0.57967266  0.91126825  0.11102979  1
  P  P6  1  0.41126825  0.07967266  0.38897021  1
  P  P7  1  0.23207292  0.23207292  0.60302857  1
  P  P8  1  0.73207292  0.73207292  0.89697143  1
  P  P9  1  0.26792708  0.26792708  0.10302857  1
  P  P10  1  0.07967266  0.41126825  0.38897021  1
  P  P11  1  0.76792708  0.76792708  0.39697143  1
loop_
_geom_bond_atom_site_label_1
_geom_bond_atom_site_label_2
_geom_bond_distance
_geom_bond_site_symmetry_2
Na0 P4 2.891815 1_555
Na0 P2 3.025152 1_555
Na0 P3 3.073552 1_455
Na0 P2 3.176242 1_445
Na0 Sn2 3.263779 1_455
Na0 P7 3.294691 1_555
Na1 P8 2.979903 1_555
Na1 P7 3.108785 1_555
Na1 P2 3.150844 1_555
Na1 P3 3.150844 1_555
Na1 P7 3.170329 1_665
Na1 Sn2 3.400443 1_565
Na1 Sn0 3.400443 1_655
Na2 P7 2.979903 1_555
Na2 P8 3.108785 1_445
Na2 P4 3.150844 1_555
Na2 P1 3.150844 1_555
Na2 P8 3.170329 1_555
Na2 Sn1 3.400443 1_556
Na2 Sn3 3.400443 1_556
Na3 P11 2.979903 1_555
Na3 P9 3.108785 1_665
Na3 P0 3.150844 1_555
Na3 P5 3.150844 1_555
Na3 P9 3.170329 1_555
Na3 Sn3 3.400443 1_555
Na3 Sn1 3.400443 1_555
Na4 P3 2.891815 1_555
Na4 P1 3.025152 1_665
Na4 P4 3.073552 1_655
Na4 P1 3.176242 1_555
Na4 Sn3 3.263779 1_556
Na4 P8 3.294691 1_555
Na5 P5 2.891815 1_555
Na5 P10 3.025152 1_555
Na5 P6 3.073552 1_565
Na5 P10 3.176242 1_665
Na5 Sn2 3.263779 1_565
Na5 P11 3.294691 1_555
Na6 P6 2.891815 1_555
Na6 P0 3.025152 1_445
Na6 P5 3.073552 1_545
Na6 P0 3.176242 1_555
Na6 Sn3 3.263779 1_555
Na6 P9 3.294691 1_555
Na7 P10 2.891815 1_555
Na7 P5 3.025152 1_445
Na7 P0 3.073552 1_455
Na7 P5 3.176242 1_555
Na7 Sn1 3.263779 1_555
Na7 P9 3.294691 1_555
Na8 P0 2.891815 1_555
Na8 P6 3.025152 1_555
Na8 P10 3.073552 1_655
Na8 P6 3.176242 1_665
Na8 Sn0 3.263779 1_655
Na8 P11 3.294691 1_555
Na9 P1 2.891815 1_555
Na9 P3 3.025152 1_555
Na9 P2 3.073552 1_545
Na9 P3 3.176242 1_445
Na9 Sn0 3.263779 1_545
Na9 P7 3.294691 1_555
Na10 P2 2.891815 1_555
Na10 P4 3.025149 1_665
Na10 P1 3.073543 1_565
Na10 P4 3.176245 1_555
Na10 Sn1 3.263785 1_556
Na10 P8 3.294700 1_555
Na11 P9 2.979903 1_555
Na11 P11 3.108785 1_555
Na11 P6 3.150844 1_555
Na11 P10 3.150844 1_555
Na11 P11 3.170329 1_445
Na11 Sn0 3.400443 1_545
Na11 Sn2 3.400443 1_455
Li0 P8 2.604679 1_544
Li0 P9 2.604679 1_655
Li0 P4 2.611308 1_654
Li0 P5 2.611308 1_545
Li0 Sn1 2.958666 1_655
Li0 Sn1 2.958666 1_545
Li1 P11 2.604679 1_555
Li1 P7 2.604679 1_555
Li1 P6 2.611308 1_555
Li1 P3 2.611308 1_555
Li1 Sn0 2.958666 1_545
Li1 Sn0 2.958666 1_655
Li2 P9 2.604679 1_565
Li2 P8 2.604679 1_454
Li2 P0 2.611308 1_455
Li2 P1 2.611308 1_564
Li2 Sn3 2.958666 1_455
Li2 Sn3 2.958666 1_565
Li3 P7 2.604679 1_555
Li3 P11 2.604679 1_555
Li3 P2 2.611308 1_555
Li3 P10 2.611308 1_555
Li3 Sn2 2.958666 1_565
Li3 Sn2 2.958666 1_455
Li4 P5 2.570051 1_545
Li4 P4 2.570051 1_654
Li4 P0 2.661571 1_555
Li4 P1 2.661571 1_554
Li4 Sn3 2.952702 1_555
Li5 P3 2.570051 1_555
Li5 P6 2.570051 1_555
Li5 P2 2.661571 1_545
Li5 P10 2.661571 1_655
Li5 Sn2 2.952702 1_555
Li6 P1 2.570051 1_564
Li6 P0 2.570051 1_455
Li6 P4 2.661571 1_554
Li6 P5 2.661571 1_555
Li6 Sn1 2.952702 1_555
Li7 P10 2.570051 1_555
Li7 P2 2.570051 1_555
Li7 P6 2.661571 1_565
Li7 P3 2.661571 1_455
Li7 Sn0 2.952702 1_555
P0 Sn3 2.488324 1_555
P1 Sn3 2.488324 1_556
P2 Sn2 2.488324 1_565
P3 Sn0 2.488324 1_655
P4 Sn1 2.488324 1_556
P5 Sn1 2.488324 1_555
P6 Sn0 2.488324 1_545
P7 Sn0 2.586149 1_545
P7 Sn2 2.586149 1_455
P8 Sn3 2.586149 1_556
P8 Sn1 2.586149 1_556
P9 Sn1 2.586149 1_555
P9 Sn3 2.586149 1_555
P10 Sn2 2.488324 1_455
P11 Sn2 2.586149 1_565
P11 Sn0 2.586149 1_655
