# generated using pymatgen
data_Ba4CuH12Pd
_symmetry_space_group_name_H-M   'P 1'
_cell_length_a   7.98349557
_cell_length_b   7.98349564
_cell_length_c   5.88199520
_cell_angle_alpha   89.56879138
_cell_angle_beta   89.56879272
_cell_angle_gamma   136.76987528
_symmetry_Int_Tables_number   1
_chemical_formula_structural   Ba4CuH12Pd
_chemical_formula_sum   'Ba4 Cu1 H12 Pd1'
_cell_volume   256.72405265
_cell_formula_units_Z   1
loop_
 _symmetry_equiv_pos_site_id
 _symmetry_equiv_pos_as_xyz
  1  'x, y, z'
loop_
 _atom_site_type_symbol
 _atom_site_label
 _atom_site_symmetry_multiplicity
 _atom_site_fract_x
 _atom_site_fract_y
 _atom_site_fract_z
 _atom_site_occupancy
  Ba  Ba0  1  0.35781621  0.64218379  1.00000000  1
  Ba  Ba1  1  0.85727910  0.14272090  0.50000000  1
  Ba  Ba2  1  0.64218379  0.35781621  0.00000000  1
  Ba  Ba3  1  0.14272090  0.85727910  0.50000000  1
  Cu  Cu0  1  0.50000000  0.50000000  0.50000000  1
  H  H0  1  0.99865093  0.50145007  0.24987924  1
  H  H1  1  0.49854993  0.00134907  0.75012076  1
  H  H2  1  0.00134907  0.49854993  0.75012076  1
  H  H3  1  0.50145007  0.99865093  0.24987924  1
  H  H4  1  0.11135430  0.88864570  1.00000000  1
  H  H5  1  0.60718424  0.39281576  0.50000000  1
  H  H6  1  0.88864570  0.11135430  0.00000000  1
  H  H7  1  0.39281576  0.60718424  0.50000000  1
  H  H8  1  0.79699571  0.79699571  0.20322877  1
  H  H9  1  0.20300429  0.20300429  0.79677123  1
  H  H10  1  0.70018636  0.70018636  0.70052332  1
  H  H11  1  0.29981364  0.29981364  0.29947668  1
  Pd  Pd0  1  0.00000000  0.00000000  0.00000000  1
loop_
_geom_bond_atom_site_label_1
_geom_bond_atom_site_label_2
_geom_bond_distance
_geom_bond_site_symmetry_2
Ba0 H0 2.619475 1_456
Ba0 H1 2.619475 1_565
Ba0 H2 2.628120 1_555
Ba0 H3 2.628120 1_556
Ba0 H6 2.976266 1_566
Ba0 H6 2.976266 1_456
Ba0 H11 2.976445 1_556
Ba0 H10 2.976445 1_555
Ba0 H7 2.986535 1_556
Ba0 H7 2.986535 1_555
Ba0 H8 3.003402 1_556
Ba0 H9 3.003402 1_555
Ba1 H1 2.615657 1_555
Ba1 H0 2.615657 1_555
Ba1 H3 2.623808 1_545
Ba1 H2 2.623808 1_655
Ba1 H6 2.977627 1_556
Ba1 H6 2.977627 1_555
Ba1 H11 2.983994 1_655
Ba1 H10 2.983994 1_545
Ba1 H7 2.987808 1_655
Ba1 H7 2.987808 1_545
Ba1 H9 3.007716 1_655
Ba1 H8 3.007716 1_545
Ba2 H2 2.619475 1_654
Ba2 H3 2.619475 1_545
Ba2 H0 2.628120 1_555
Ba2 H1 2.628120 1_554
Ba2 H4 2.976266 1_544
Ba2 H4 2.976266 1_654
Ba2 H10 2.976445 1_554
Ba2 H11 2.976445 1_555
Ba2 H5 2.986535 1_554
Ba2 H5 2.986535 1_555
Ba2 H9 3.003402 1_554
Ba2 H8 3.003402 1_555
Ba3 H3 2.615657 1_555
Ba3 H2 2.615657 1_555
Ba3 H1 2.623808 1_565
Ba3 H0 2.623808 1_455
Ba3 H4 2.977627 1_554
Ba3 H4 2.977627 1_555
Ba3 H10 2.983994 1_455
Ba3 H11 2.983994 1_565
Ba3 H5 2.987808 1_455
Ba3 H5 2.987808 1_565
Ba3 H8 3.007716 1_455
Ba3 H9 3.007716 1_565
Cu0 H7 1.591063 1_555
Cu0 H5 1.591063 1_555
Cu0 H10 1.683535 1_555
Cu0 H11 1.683535 1_555
H4 Pd0 1.652964 1_566
H6 Pd0 1.652964 1_655
H8 Pd0 1.672220 1_665
H9 Pd0 1.672220 1_556
