# generated using pymatgen
data_Zr2AlSbTe2
_symmetry_space_group_name_H-M   'P 1'
_cell_length_a   3.98110421
_cell_length_b   3.98110421
_cell_length_c   8.81955853
_cell_angle_alpha   90.00000000
_cell_angle_beta   90.00000000
_cell_angle_gamma   90.00000000
_symmetry_Int_Tables_number   1
_chemical_formula_structural   Zr2AlSbTe2
_chemical_formula_sum   'Zr2 Al1 Sb1 Te2'
_cell_volume   139.78286536
_cell_formula_units_Z   1
loop_
 _symmetry_equiv_pos_site_id
 _symmetry_equiv_pos_as_xyz
  1  'x, y, z'
loop_
 _atom_site_type_symbol
 _atom_site_label
 _atom_site_symmetry_multiplicity
 _atom_site_fract_x
 _atom_site_fract_y
 _atom_site_fract_z
 _atom_site_occupancy
  Zr  Zr0  1  0.50000000  0.00000000  0.25701441  1
  Zr  Zr1  1  0.00000000  0.50000000  0.74298559  1
  Al  Al0  1  0.00000000  0.00000000  0.00000000  1
  Sb  Sb0  1  0.50000000  0.50000000  0.00000000  1
  Te  Te0  1  0.50000000  0.00000000  0.62246180  1
  Te  Te1  1  0.00000000  0.50000000  0.37753820  1
loop_
_geom_bond_atom_site_label_1
_geom_bond_atom_site_label_2
_geom_bond_distance
_geom_bond_site_symmetry_2
Al0 Sb0 2.815066 1_545
Al0 Sb0 2.815066 1_555
Al0 Sb0 2.815066 1_455
Al0 Sb0 2.815066 1_445
Al0 Zr0 3.016698 1_455
Al0 Zr0 3.016698 1_555
Al0 Zr1 3.016698 1_544
Al0 Zr1 3.016698 1_554
Sb0 Zr0 3.016698 1_555
Sb0 Zr0 3.016698 1_565
Sb0 Zr1 3.016698 1_654
Sb0 Zr1 3.016698 1_554
Te0 Zr1 3.009069 1_555
Te0 Zr1 3.009069 1_645
Te0 Zr1 3.009069 1_545
Te0 Zr1 3.009069 1_655
Te0 Zr0 3.223085 1_555
Te1 Zr0 3.009069 1_555
Te1 Zr0 3.009069 1_455
Te1 Zr0 3.009069 1_565
Te1 Zr0 3.009069 1_465
Te1 Zr1 3.223085 1_555
