# generated using pymatgen
data_Rb9TaSnAs6
_symmetry_space_group_name_H-M   'P 1'
_cell_length_a   9.57504581
_cell_length_b   9.72037517
_cell_length_c   13.40277604
_cell_angle_alpha   83.06283431
_cell_angle_beta   90.00000000
_cell_angle_gamma   90.00000000
_symmetry_Int_Tables_number   1
_chemical_formula_structural   Rb9TaSnAs6
_chemical_formula_sum   'Rb18 Ta2 Sn2 As12'
_cell_volume   1238.30484611
_cell_formula_units_Z   2
loop_
 _symmetry_equiv_pos_site_id
 _symmetry_equiv_pos_as_xyz
  1  'x, y, z'
loop_
 _atom_site_type_symbol
 _atom_site_label
 _atom_site_symmetry_multiplicity
 _atom_site_fract_x
 _atom_site_fract_y
 _atom_site_fract_z
 _atom_site_occupancy
  Rb  Rb0  1  0.34914785  0.58443079  0.17079076  1
  Rb  Rb1  1  0.41233107  0.94455168  0.56624922  1
  Rb  Rb2  1  0.43399660  0.63127356  0.90210269  1
  Rb  Rb3  1  0.48240194  0.17196543  0.29459091  1
  Rb  Rb4  1  0.51759806  0.17196543  0.79459091  1
  Rb  Rb5  1  0.56600340  0.63127356  0.40210269  1
  Rb  Rb6  1  0.58766893  0.94455168  0.06624922  1
  Rb  Rb7  1  0.65085215  0.58443079  0.67079076  1
  Rb  Rb8  1  0.80403604  0.00943679  0.60103228  1
  Rb  Rb9  1  0.82518701  0.40073254  0.33133545  1
  Rb  Rb10  1  0.93824987  0.07545696  0.90300220  1
  Rb  Rb11  1  0.93284245  0.39501899  0.60955700  1
  Rb  Rb12  1  0.93068194  0.80263232  0.22364673  1
  Rb  Rb13  1  0.06931806  0.80263232  0.72364673  1
  Rb  Rb14  1  0.06715755  0.39501899  0.10955700  1
  Rb  Rb15  1  0.06175013  0.07545696  0.40300220  1
  Rb  Rb16  1  0.17481299  0.40073254  0.83133545  1
  Rb  Rb17  1  0.19596396  0.00943679  0.10103228  1
  Ta  Ta0  1  0.83193625  0.65193872  0.95067855  1
  Ta  Ta1  1  0.16806375  0.65193872  0.45067855  1
  Sn  Sn0  1  0.31877329  0.34116529  0.55200579  1
  Sn  Sn1  1  0.68122671  0.34116529  0.05200579  1
  As  As0  1  0.30037210  0.59764528  0.61524510  1
  As  As1  1  0.28437523  0.83471214  0.33459171  1
  As  As2  1  0.41562518  0.28438860  0.02871918  1
  As  As3  1  0.58437482  0.28438860  0.52871918  1
  As  As4  1  0.71562477  0.83471214  0.83459171  1
  As  As5  1  0.69962790  0.59764528  0.11524510  1
  As  As6  1  0.82109941  0.42317014  0.87825816  1
  As  As7  1  0.82673810  0.14706715  0.16331522  1
  As  As8  1  0.92585893  0.72261361  0.48197905  1
  As  As9  1  0.07414107  0.72261361  0.98197905  1
  As  As10  1  0.17326190  0.14706715  0.66331522  1
  As  As11  1  0.17890059  0.42317014  0.37825816  1
loop_
_geom_bond_atom_site_label_1
_geom_bond_atom_site_label_2
_geom_bond_distance
_geom_bond_site_symmetry_2
As0 Ta1 2.543060 1_555
As0 Sn0 2.734106 1_555
As0 Rb13 3.416861 1_555
As0 Rb7 3.436487 1_555
As0 Rb16 3.486824 1_555
As0 Rb1 3.523681 1_555
As1 Ta1 2.479869 1_555
As1 Rb15 3.373294 1_565
As1 Rb5 3.401274 1_555
As1 Rb17 3.480797 1_565
As1 Rb0 3.523239 1_555
As1 Rb1 3.616892 1_555
As1 Rb12 3.726873 1_455
As1 Rb3 3.768940 1_565
As2 Sn1 2.628916 1_555
As2 Rb17 3.446785 1_555
As2 Rb4 3.580887 1_554
As2 Rb16 3.587690 1_554
As2 Rb2 3.591371 1_554
As2 Rb3 3.655177 1_555
As2 Rb6 3.671157 1_545
As2 Rb14 3.707369 1_555
As2 Rb0 3.725397 1_555
As3 Sn0 2.628916 1_555
As3 Rb8 3.446785 1_555
As3 Rb3 3.580887 1_555
As3 Rb9 3.587690 1_555
As3 Rb5 3.591371 1_555
As3 Rb4 3.655177 1_555
As3 Rb1 3.671157 1_545
As3 Rb11 3.707369 1_555
As3 Rb7 3.725397 1_555
As4 Ta0 2.479869 1_555
As4 Rb10 3.373294 1_565
As4 Rb2 3.401274 1_555
As4 Rb8 3.480797 1_565
As4 Rb7 3.523239 1_555
As4 Rb6 3.616892 1_556
As4 Rb13 3.726873 1_655
As4 Rb4 3.768940 1_565
As5 Ta0 2.543060 1_554
As5 Sn1 2.734106 1_555
As5 Rb12 3.416861 1_555
As5 Rb0 3.436487 1_555
As5 Rb9 3.486824 1_555
As5 Rb6 3.523681 1_555
As6 Ta0 2.533615 1_555
As6 Sn1 2.720944 1_556
As6 Rb7 3.434162 1_555
As6 Rb16 3.456412 1_655
As6 Rb10 3.538533 1_555
As6 Rb11 3.798338 1_555
As6 Rb14 3.876993 1_656
As6 Rb4 4.040593 1_555
As7 Sn1 2.654543 1_555
As7 Rb14 3.347830 1_655
As7 Rb6 3.380263 1_545
As7 Rb12 3.492818 1_545
As7 Rb9 3.534479 1_555
As7 Rb3 3.758666 1_555
As7 Rb10 3.792593 1_554
As7 Rb17 3.905776 1_655
As7 Rb15 3.915094 1_655
As8 Ta1 2.468985 1_655
As8 Rb11 3.428262 1_555
As8 Rb12 3.456094 1_555
As8 Rb8 3.571337 1_565
As8 Rb13 3.686687 1_655
As8 Rb15 3.701326 1_665
As8 Rb5 3.746518 1_555
As8 Rb7 3.784279 1_555
As9 Ta0 2.468985 1_455
As9 Rb14 3.428262 1_556
As9 Rb13 3.456094 1_555
As9 Rb17 3.571337 1_566
As9 Rb12 3.686687 1_456
As9 Rb10 3.701326 1_465
As9 Rb2 3.746518 1_555
As9 Rb0 3.784279 1_556
As10 Sn0 2.654543 1_555
As10 Rb11 3.347830 1_455
As10 Rb1 3.380263 1_545
As10 Rb13 3.492818 1_545
As10 Rb16 3.534479 1_555
As10 Rb4 3.758666 1_555
As10 Rb15 3.792593 1_555
As10 Rb8 3.905776 1_455
As10 Rb10 3.915094 1_455
As11 Ta1 2.533615 1_555
As11 Sn0 2.720944 1_555
As11 Rb0 3.434162 1_555
As11 Rb9 3.456412 1_455
As11 Rb15 3.538533 1_555
As11 Rb14 3.798338 1_555
As11 Rb11 3.876993 1_455
As11 Rb3 4.040593 1_555
