# generated using pymatgen
data_LuMgCu4
_symmetry_space_group_name_H-M   'P 1'
_cell_length_a   5.01194429
_cell_length_b   5.01194529
_cell_length_c   5.01194429
_cell_angle_alpha   119.99999976
_cell_angle_beta   90.00000000
_cell_angle_gamma   119.99999976
_symmetry_Int_Tables_number   1
_chemical_formula_structural   LuMgCu4
_chemical_formula_sum   'Lu1 Mg1 Cu4'
_cell_volume   89.02332222
_cell_formula_units_Z   1
loop_
 _symmetry_equiv_pos_site_id
 _symmetry_equiv_pos_as_xyz
  1  'x, y, z'
loop_
 _atom_site_type_symbol
 _atom_site_label
 _atom_site_symmetry_multiplicity
 _atom_site_fract_x
 _atom_site_fract_y
 _atom_site_fract_z
 _atom_site_occupancy
  Lu  Lu0  1  0.37500000  0.75000000  0.12499900  1
  Mg  Mg0  1  0.62499900  0.25000100  0.87500000  1
  Cu  Cu0  1  0.99904635  0.99809269  0.99713904  1
  Cu  Cu1  1  0.99904635  0.50190631  0.50095265  1
  Cu  Cu2  1  0.99904635  0.99809269  0.50095265  1
  Cu  Cu3  1  0.50285996  0.50190631  0.50095265  1
loop_
_geom_bond_atom_site_label_1
_geom_bond_atom_site_label_2
_geom_bond_distance
_geom_bond_site_symmetry_2
Lu0 Mg0 3.069169 1_554
Lu0 Mg0 3.069177 1_564
Lu0 Mg0 3.069181 1_454
Lu0 Mg0 3.069181 1_565
Cu0 Cu2 2.486859 1_555
Cu0 Cu3 2.486859 1_555
Cu0 Cu1 2.486859 1_555
Cu0 Cu2 2.525086 1_556
Cu0 Cu3 2.525086 1_666
Cu0 Cu1 2.525086 1_566
Cu0 Mg0 2.936493 1_665
Cu0 Mg0 2.936494 1_555
Cu0 Mg0 2.936506 1_565
Cu0 Lu0 2.940571 1_556
Cu0 Lu0 2.940572 1_656
Cu0 Lu0 2.940576 1_666
Cu1 Cu3 2.486859 1_555
Cu1 Cu2 2.486859 1_555
Cu1 Cu3 2.525086 1_655
Cu1 Cu2 2.525086 1_545
Cu1 Mg0 2.936499 1_554
Cu1 Mg0 2.936500 1_555
Cu1 Mg0 2.936500 1_665
Cu1 Lu0 2.940571 1_656
Cu1 Lu0 2.940572 1_545
Cu1 Lu0 2.940576 1_655
Cu2 Cu3 2.486859 1_555
Cu2 Cu3 2.525086 1_665
Cu2 Mg0 2.936493 1_665
Cu2 Mg0 2.936493 1_554
Cu2 Mg0 2.936506 1_565
Cu2 Lu0 2.940573 1_555
Cu2 Lu0 2.940574 1_655
Cu2 Lu0 2.940574 1_666
Cu3 Mg0 2.936493 1_554
Cu3 Mg0 2.936493 1_555
Cu3 Mg0 2.936507 1_565
Cu3 Lu0 2.940571 1_556
Cu3 Lu0 2.940572 1_545
Cu3 Lu0 2.940576 1_555
