# generated using pymatgen
data_Zr4Si4IrRh3
_symmetry_space_group_name_H-M   'P 1'
_cell_length_a   3.94113700
_cell_length_b   6.57300281
_cell_length_c   7.42411510
_cell_angle_alpha   89.94590173
_cell_angle_beta   90.00000000
_cell_angle_gamma   90.00000000
_symmetry_Int_Tables_number   1
_chemical_formula_structural   Zr4Si4IrRh3
_chemical_formula_sum   'Zr4 Si4 Ir1 Rh3'
_cell_volume   192.32239269
_cell_formula_units_Z   1
loop_
 _symmetry_equiv_pos_site_id
 _symmetry_equiv_pos_as_xyz
  1  'x, y, z'
loop_
 _atom_site_type_symbol
 _atom_site_label
 _atom_site_symmetry_multiplicity
 _atom_site_fract_x
 _atom_site_fract_y
 _atom_site_fract_z
 _atom_site_occupancy
  Zr  Zr0  1  0.25000000  0.01842753  0.31379243  1
  Zr  Zr1  1  0.25000000  0.51653405  0.18546577  1
  Zr  Zr2  1  0.75000000  0.98195484  0.68571479  1
  Zr  Zr3  1  0.75000000  0.48266911  0.81520427  1
  Si  Si0  1  0.25000000  0.27760767  0.61553111  1
  Si  Si1  1  0.25000000  0.77612221  0.88567422  1
  Si  Si2  1  0.75000000  0.72260706  0.38451171  1
  Si  Si3  1  0.75000000  0.22322409  0.11478813  1
  Ir  Ir0  1  0.75000000  0.35060429  0.43364180  1
  Rh  Rh0  1  0.25000000  0.14795940  0.93250189  1
  Rh  Rh1  1  0.25000000  0.64878039  0.56623228  1
  Rh  Rh2  1  0.75000000  0.85350936  0.06694059  1
loop_
_geom_bond_atom_site_label_1
_geom_bond_atom_site_label_2
_geom_bond_distance
_geom_bond_site_symmetry_2
Si0 Zr3 2.810901 1_455
Si0 Zr3 2.810901 1_555
Si0 Zr0 2.815612 1_555
Si0 Zr2 2.815891 1_445
Si0 Zr2 2.815891 1_545
Si1 Zr1 2.803191 1_556
Si1 Zr3 2.807008 1_555
Si1 Zr3 2.807008 1_455
Si1 Zr2 2.813111 1_555
Si1 Zr2 2.813111 1_455
Si2 Zr1 2.811646 1_655
Si2 Zr1 2.811646 1_555
Si2 Zr2 2.813116 1_555
Si2 Zr0 2.817387 1_565
Si2 Zr0 2.817387 1_665
Si3 Zr3 2.801396 1_554
Si3 Zr0 2.806109 1_655
Si3 Zr0 2.806109 1_555
Si3 Zr1 2.806650 1_655
Si3 Zr1 2.806650 1_555
Ir0 Si0 2.436313 1_555
Ir0 Si0 2.436313 1_655
Ir0 Si2 2.471890 1_555
Ir0 Si3 2.511659 1_555
Ir0 Zr1 2.909233 1_655
Ir0 Zr1 2.909233 1_555
Ir0 Rh1 2.949071 1_655
Ir0 Rh1 2.949071 1_555
Ir0 Zr3 2.963566 1_555
Ir0 Zr2 3.060265 1_545
Ir0 Zr0 3.073392 1_555
Ir0 Zr0 3.073392 1_655
Rh0 Si3 2.441435 1_456
Rh0 Si3 2.441435 1_556
Rh0 Si1 2.469014 1_545
Rh0 Si0 2.502019 1_555
Rh0 Zr2 2.904202 1_545
Rh0 Zr2 2.904202 1_445
Rh0 Zr0 2.955244 1_556
Rh0 Zr1 3.066724 1_556
Rh0 Zr3 3.078649 1_455
Rh0 Zr3 3.078649 1_555
Rh1 Si2 2.436697 1_555
Rh1 Si2 2.436697 1_455
Rh1 Si0 2.466678 1_555
Rh1 Si1 2.515693 1_555
Rh1 Zr3 2.913423 1_555
Rh1 Zr3 2.913423 1_455
Rh1 Zr1 2.958268 1_555
Rh1 Zr0 3.067118 1_565
Rh1 Zr2 3.077268 1_555
Rh1 Zr2 3.077268 1_455
Rh2 Si1 2.440122 1_654
Rh2 Si1 2.440122 1_554
Rh2 Si3 2.456293 1_565
Rh2 Si2 2.509018 1_555
Rh2 Zr0 2.901826 1_565
Rh2 Zr0 2.901826 1_665
Rh2 Zr2 2.952741 1_554
Rh2 Zr3 3.072952 1_554
Rh2 Zr1 3.091880 1_555
Rh2 Zr1 3.091880 1_655
