# generated using pymatgen
data_Ag2PHS4
_symmetry_space_group_name_H-M   'P 1'
_cell_length_a   6.40502373
_cell_length_b   6.58049835
_cell_length_c   7.72003672
_cell_angle_alpha   87.06661247
_cell_angle_beta   90.00000000
_cell_angle_gamma   90.00000000
_symmetry_Int_Tables_number   1
_chemical_formula_structural   Ag2PHS4
_chemical_formula_sum   'Ag4 P2 H2 S8'
_cell_volume   324.95967104
_cell_formula_units_Z   2
loop_
 _symmetry_equiv_pos_site_id
 _symmetry_equiv_pos_as_xyz
  1  'x, y, z'
loop_
 _atom_site_type_symbol
 _atom_site_label
 _atom_site_symmetry_multiplicity
 _atom_site_fract_x
 _atom_site_fract_y
 _atom_site_fract_z
 _atom_site_occupancy
  Ag  Ag0  1  0.38175060  0.20805918  0.75320062  1
  Ag  Ag1  1  0.88175060  0.79194082  0.74679938  1
  Ag  Ag2  1  0.39381788  0.61234802  0.51175156  1
  Ag  Ag3  1  0.89381788  0.38765198  0.98824844  1
  P  P0  1  0.38313315  0.67052985  0.99320512  1
  P  P1  1  0.88313315  0.32947015  0.50679488  1
  H  H0  1  0.07080175  0.75130622  0.20706625  1
  H  H1  1  0.57080175  0.24869378  0.29293375  1
  S  S0  1  0.27743893  0.81929278  0.77046786  1
  S  S1  1  0.77743893  0.18070722  0.72953214  1
  S  S2  1  0.78801975  0.62173929  0.47345560  1
  S  S3  1  0.28801975  0.37826071  0.02654440  1
  S  S4  1  0.76584661  0.17009580  0.29275162  1
  S  S5  1  0.26584661  0.82990420  0.20724838  1
  S  S6  1  0.69209433  0.71558002  0.02889187  1
  S  S7  1  0.19209433  0.28441998  0.47110813  1
loop_
_geom_bond_atom_site_label_1
_geom_bond_atom_site_label_2
_geom_bond_distance
_geom_bond_site_symmetry_2
Ag0 S3 2.511929 1_556
Ag0 S7 2.521662 1_555
Ag0 S1 2.547999 1_555
Ag0 S0 2.640838 1_545
Ag1 S2 2.511929 1_555
Ag1 S6 2.521662 1_556
Ag1 S0 2.547999 1_655
Ag1 S1 2.640838 1_565
Ag2 S2 2.542506 1_555
Ag2 S7 2.548292 1_555
Ag2 S0 2.584129 1_555
Ag2 S5 2.811244 1_555
Ag3 S3 2.542506 1_656
Ag3 S6 2.548292 1_556
Ag3 S1 2.584129 1_555
Ag3 S4 2.811244 1_556
P0 S3 2.021312 1_556
P0 S6 2.021931 1_556
P0 S0 2.049667 1_555
P0 S5 2.138249 1_556
P1 S2 2.021312 1_555
P1 S7 2.021931 1_655
P1 S1 2.049667 1_555
P1 S4 2.138249 1_555
H0 S5 1.352130 1_555
H1 S4 1.352130 1_555
