# generated using pymatgen
data_Bi13O20
_symmetry_space_group_name_H-M   'P 1'
_cell_length_a   8.90982328
_cell_length_b   8.90982431
_cell_length_c   8.90982553
_cell_angle_alpha   109.47152513
_cell_angle_beta   109.47079924
_cell_angle_gamma   109.47141438
_symmetry_Int_Tables_number   1
_chemical_formula_structural   Bi13O20
_chemical_formula_sum   'Bi13 O20'
_cell_volume   544.48400707
_cell_formula_units_Z   1
loop_
 _symmetry_equiv_pos_site_id
 _symmetry_equiv_pos_as_xyz
  1  'x, y, z'
loop_
 _atom_site_type_symbol
 _atom_site_label
 _atom_site_symmetry_multiplicity
 _atom_site_fract_x
 _atom_site_fract_y
 _atom_site_fract_z
 _atom_site_occupancy
  Bi  Bi0  1  0.19080111  0.85447306  0.69288327  1
  Bi  Bi1  1  0.33632819  0.83840837  0.14552856  1
  Bi  Bi2  1  0.49791690  0.30712174  0.16158974  1
  Bi  Bi3  1  0.00000000  0.00000082  0.00000182  1
  Bi  Bi4  1  0.50208310  0.66367285  0.80920484  1
  Bi  Bi5  1  0.83840622  0.14552083  0.33632462  1
  Bi  Bi6  1  0.69288043  0.19079861  0.85447329  1
  Bi  Bi7  1  0.66367181  0.80920036  0.50207917  1
  Bi  Bi8  1  0.85446483  0.69287739  0.19079373  1
  Bi  Bi9  1  0.16159278  0.49791841  0.30711461  1
  Bi  Bi10  1  0.14553517  0.33632990  0.83841356  1
  Bi  Bi11  1  0.80919889  0.50208116  0.66367295  1
  Bi  Bi12  1  0.30711957  0.16159286  0.49791918  1
  O  O0  1  0.24801052  0.62432159  0.88885507  1
  O  O1  1  0.00000001  0.76007900  -0.00000179  1
  O  O2  1  0.99999899  -0.00000179  0.76008000  1
  O  O3  1  0.11114796  0.73546403  0.35915494  1
  O  O4  1  0.00000009  0.00000033  0.37156232  1
  O  O5  1  -0.00000009  0.37156423  0.00000123  1
  O  O6  1  0.37631459  0.75199665  0.64084954  1
  O  O7  1  0.26453433  0.37568234  0.62368675  1
  O  O8  1  0.35915482  0.11114420  0.73546438  1
  O  O9  1  0.23992065  0.23992085  0.23991908  1
  O  O10  1  0.37567932  0.62368824  0.26453466  1
  O  O11  1  0.62844048  0.62844090  0.62844034  1
  O  O12  1  0.62431968  0.88885533  0.24800791  1
  O  O13  1  0.64084618  0.37630957  0.75199038  1
  O  O14  1  0.62368641  0.26453496  0.37568106  1
  O  O15  1  0.75198848  0.64084556  0.37631007  1
  O  O16  1  0.73546567  0.35915042  0.11114701  1
  O  O17  1  0.88885404  0.24800898  0.62431707  1
  O  O18  1  0.37156152  -0.00000013  0.00000043  1
  O  O19  1  0.76007735  -0.00000157  0.00000019  1
loop_
_geom_bond_atom_site_label_1
_geom_bond_atom_site_label_2
_geom_bond_distance
_geom_bond_site_symmetry_2
Bi0 O8 2.092630 1_565
Bi0 O6 2.239513 1_555
Bi0 O18 2.251047 1_566
Bi0 O3 2.541459 1_555
Bi0 O2 2.561286 1_465
Bi1 O0 2.092630 1_554
Bi1 O12 2.239519 1_555
Bi1 O18 2.251064 1_565
Bi1 O10 2.541447 1_555
Bi1 O1 2.561300 1_555
Bi2 O14 2.092680 1_555
Bi2 O16 2.239525 1_555
Bi2 O18 2.251072 1_555
Bi2 O15 2.541420 1_555
Bi2 O9 2.561267 1_555
Bi3 O9 2.137636 1_555
Bi3 O1 2.137651 1_545
Bi3 O2 2.137651 1_454
Bi3 O19 2.137656 1_455
Bi4 O6 2.092685 1_555
Bi4 O7 2.239517 1_555
Bi4 O11 2.251072 1_555
Bi4 O0 2.541420 1_555
Bi4 O19 2.561260 1_566
Bi5 O12 2.092585 1_545
Bi5 O17 2.239515 1_555
Bi5 O4 2.251031 1_655
Bi5 O14 2.541494 1_555
Bi5 O19 2.561260 1_555
Bi6 O16 2.092628 1_556
Bi6 O13 2.239534 1_555
Bi6 O5 2.251065 1_656
Bi6 O8 2.541439 1_555
Bi6 O19 2.561290 1_556
Bi7 O15 2.092619 1_555
Bi7 O10 2.239522 1_555
Bi7 O11 2.251069 1_555
Bi7 O12 2.541446 1_555
Bi7 O2 2.561298 1_565
Bi8 O3 2.092728 1_655
Bi8 O15 2.239529 1_555
Bi8 O4 2.251080 1_665
Bi8 O16 2.541463 1_555
Bi8 O1 2.561300 1_655
Bi9 O10 2.092592 1_555
Bi9 O3 2.239508 1_555
Bi9 O5 2.251024 1_555
Bi9 O6 2.541502 1_555
Bi9 O9 2.561272 1_555
Bi10 O17 2.092718 1_455
Bi10 O0 2.239528 1_555
Bi10 O5 2.251083 1_556
Bi10 O7 2.541456 1_555
Bi10 O2 2.561306 1_455
Bi11 O13 2.092622 1_555
Bi11 O14 2.239517 1_555
Bi11 O11 2.251055 1_555
Bi11 O17 2.541446 1_555
Bi11 O1 2.561269 1_656
Bi12 O7 2.092638 1_555
Bi12 O8 2.239533 1_555
Bi12 O4 2.251063 1_555
Bi12 O13 2.541443 1_555
Bi12 O9 2.561303 1_555
