# generated using pymatgen
data_Y2Ga9Ru2Rh
_symmetry_space_group_name_H-M   'P 1'
_cell_length_a   7.44894042
_cell_length_b   7.44894122
_cell_length_c   9.61699209
_cell_angle_alpha   90.00000000
_cell_angle_beta   90.00000000
_cell_angle_gamma   119.77267902
_symmetry_Int_Tables_number   1
_chemical_formula_structural   Y2Ga9Ru2Rh
_chemical_formula_sum   'Y4 Ga18 Ru4 Rh2'
_cell_volume   463.17936016
_cell_formula_units_Z   2
loop_
 _symmetry_equiv_pos_site_id
 _symmetry_equiv_pos_as_xyz
  1  'x, y, z'
loop_
 _atom_site_type_symbol
 _atom_site_label
 _atom_site_symmetry_multiplicity
 _atom_site_fract_x
 _atom_site_fract_y
 _atom_site_fract_z
 _atom_site_occupancy
  Y  Y0  1  0.99724798  0.66818289  0.25000000  1
  Y  Y1  1  0.00275202  0.33181711  0.75000000  1
  Y  Y2  1  0.66818289  0.99724798  0.25000000  1
  Y  Y3  1  0.33181711  0.00275202  0.75000000  1
  Ga  Ga0  1  0.34026093  0.34026193  0.56235870  1
  Ga  Ga1  1  0.65973807  0.65973907  0.43764130  1
  Ga  Ga2  1  0.65973807  0.65973907  0.06235870  1
  Ga  Ga3  1  0.34026093  0.34026193  0.93764130  1
  Ga  Ga4  1  0.33528571  0.54690426  0.25000000  1
  Ga  Ga5  1  0.66471429  0.45309574  0.75000000  1
  Ga  Ga6  1  0.54690426  0.33528571  0.25000000  1
  Ga  Ga7  1  0.45309574  0.66471429  0.75000000  1
  Ga  Ga8  1  0.00618483  0.33557694  0.07636528  1
  Ga  Ga9  1  0.99381517  0.66442306  0.92363472  1
  Ga  Ga10  1  0.99381517  0.66442306  0.57636528  1
  Ga  Ga11  1  0.33557694  0.00618483  0.42363472  1
  Ga  Ga12  1  0.00618483  0.33557694  0.42363472  1
  Ga  Ga13  1  0.66442306  0.99381517  0.57636528  1
  Ga  Ga14  1  0.66442306  0.99381517  0.92363472  1
  Ga  Ga15  1  0.33557694  0.00618483  0.07636528  1
  Ga  Ga16  1  0.12912103  0.12912103  0.25000000  1
  Ga  Ga17  1  0.87087897  0.87087897  0.75000000  1
  Ru  Ru0  1  0.67494504  0.32505496  0.00000000  1
  Ru  Ru1  1  0.32505496  0.67494504  0.00000000  1
  Ru  Ru2  1  0.32505496  0.67494504  0.50000000  1
  Ru  Ru3  1  0.67494504  0.32505496  0.50000000  1
  Rh  Rh0  1  0.00000000  0.00000000  0.00000000  1
  Rh  Rh1  1  0.00000000  0.00000000  0.50000000  1
loop_
_geom_bond_atom_site_label_1
_geom_bond_atom_site_label_2
_geom_bond_distance
_geom_bond_site_symmetry_2
Ga0 Rh1 2.613039 1_555
Ga0 Ru2 2.620713 1_555
Ga0 Ru3 2.620724 1_555
Ga0 Ga1 2.672232 1_555
Ga0 Ga7 2.790431 1_555
Ga0 Ga5 2.790437 1_555
Ga0 Ga12 2.808471 1_555
Ga0 Ga11 2.808481 1_555
Ga0 Y1 3.069836 1_555
Ga0 Y3 3.069846 1_555
Ga1 Rh1 2.613039 1_665
Ga1 Ru2 2.620713 1_555
Ga1 Ru3 2.620724 1_555
Ga1 Ga4 2.790431 1_555
Ga1 Ga6 2.790437 1_555
Ga1 Ga13 2.808471 1_555
Ga1 Ga10 2.808481 1_555
Ga1 Y2 3.069837 1_555
Ga1 Y0 3.069845 1_555
Ga2 Rh0 2.613039 1_665
Ga2 Ru1 2.620713 1_555
Ga2 Ru0 2.620724 1_555
Ga2 Ga3 2.672232 1_554
Ga2 Ga4 2.790431 1_555
Ga2 Ga6 2.790437 1_555
Ga2 Ga9 2.808481 1_554
Ga2 Y2 3.069837 1_555
Ga2 Y0 3.069845 1_555
Ga3 Rh0 2.613039 1_556
Ga3 Ru1 2.620713 1_556
Ga3 Ru0 2.620724 1_556
Ga3 Ga7 2.790431 1_555
Ga3 Ga5 2.790437 1_555
Ga3 Ga8 2.808471 1_556
Ga3 Y1 3.069836 1_555
Ga3 Y3 3.069846 1_555
Ga4 Ru1 2.601552 1_555
Ga4 Ru2 2.601552 1_555
Ga4 Ga6 2.727158 1_555
Ga4 Ga8 2.728287 1_555
Ga4 Y2 3.023419 1_555
Ga4 Y0 3.068500 1_455
Ga5 Ru3 2.601552 1_555
Ga5 Ru0 2.601552 1_556
Ga5 Ga7 2.727158 1_555
Ga5 Ga9 2.728287 1_555
Ga5 Y3 3.023419 1_555
Ga5 Y1 3.068500 1_655
Ga6 Ru3 2.601552 1_555
Ga6 Ru0 2.601552 1_555
Ga6 Y0 3.023419 1_555
Ga6 Y2 3.068500 1_545
Ga7 Ru1 2.601552 1_556
Ga7 Ru2 2.601552 1_555
Ga7 Y1 3.023419 1_555
Ga7 Y3 3.068500 1_565
Ga8 Ru0 2.537997 1_455
Ga8 Ru1 2.570687 1_555
Ga8 Rh0 2.583712 1_555
Ga8 Ga9 2.896612 1_454
Ga8 Y0 3.015779 1_455
Ga8 Y2 3.029401 1_445
Ga8 Y1 3.138768 1_554
Ga9 Ru1 2.537997 1_656
Ga9 Ru0 2.570687 1_556
Ga9 Rh0 2.583712 1_666
Ga9 Y1 3.015779 1_655
Ga9 Y3 3.029401 1_665
Ga9 Y0 3.138768 1_556
Ga10 Ru2 2.537997 1_655
Ga10 Ru3 2.570687 1_555
Ga10 Rh1 2.583712 1_665
Ga10 Ga17 2.718575 1_555
Ga10 Ga5 2.728287 1_555
Ga10 Ga12 2.896612 1_655
Ga10 Ga11 2.946676 1_665
Ga10 Y1 3.015779 1_655
Ga10 Y3 3.029401 1_665
Ga10 Y0 3.138768 1_555
Ga11 Ru2 2.537997 1_545
Ga11 Ru3 2.570687 1_555
Ga11 Rh1 2.583712 1_555
Ga11 Ga16 2.718575 1_555
Ga11 Ga6 2.728287 1_555
Ga11 Ga13 2.896612 1_545
Ga11 Y2 3.015778 1_545
Ga11 Y0 3.029401 1_445
Ga11 Y3 3.138768 1_555
Ga12 Ru3 2.537997 1_455
Ga12 Ru2 2.570687 1_555
Ga12 Rh1 2.583712 1_555
Ga12 Ga16 2.718575 1_555
Ga12 Ga4 2.728287 1_555
Ga12 Ga13 2.946676 1_445
Ga12 Y0 3.015779 1_455
Ga12 Y2 3.029401 1_445
Ga12 Y1 3.138768 1_555
Ga13 Ru3 2.537997 1_565
Ga13 Ru2 2.570687 1_555
Ga13 Rh1 2.583712 1_665
Ga13 Ga17 2.718575 1_555
Ga13 Ga7 2.728287 1_555
Ga13 Y3 3.015778 1_565
Ga13 Y1 3.029401 1_665
Ga13 Y2 3.138768 1_555
Ga14 Ru0 2.537997 1_566
Ga14 Ru1 2.570687 1_556
Ga14 Rh0 2.583712 1_666
Ga14 Ga17 2.718575 1_555
Ga14 Ga7 2.728287 1_555
Ga14 Ga2 2.808471 1_556
Ga14 Ga15 2.896612 1_566
Ga14 Ga8 2.946676 1_666
Ga14 Y3 3.015778 1_565
Ga14 Y1 3.029401 1_665
Ga14 Y2 3.138768 1_556
Ga15 Ru1 2.537997 1_545
Ga15 Ru0 2.570687 1_555
Ga15 Rh0 2.583712 1_555
Ga15 Ga16 2.718575 1_555
Ga15 Ga6 2.728287 1_555
Ga15 Ga3 2.808481 1_554
Ga15 Ga9 2.946676 1_444
Ga15 Y2 3.015778 1_545
Ga15 Y0 3.029401 1_445
Ga15 Y3 3.138768 1_554
Ga16 Rh0 2.590726 1_555
Ga16 Rh1 2.590726 1_555
Ga16 Ga6 2.701277 1_555
Ga16 Ga4 2.701277 1_555
Ga16 Ga8 2.718575 1_555
Ga16 Y2 3.066642 1_445
Ga16 Y0 3.066643 1_445
Ga17 Rh1 2.590726 1_665
Ga17 Rh0 2.590726 1_666
Ga17 Ga7 2.701277 1_555
Ga17 Ga5 2.701277 1_555
Ga17 Ga9 2.718575 1_555
Ga17 Y3 3.066642 1_665
Ga17 Y1 3.066643 1_665
