# generated using pymatgen
data_Cu2PdRh3Se8
_symmetry_space_group_name_H-M   'P 1'
_cell_length_a   7.34374675
_cell_length_b   7.29125327
_cell_length_c   7.29125218
_cell_angle_alpha   60.00000059
_cell_angle_beta   60.23617583
_cell_angle_gamma   60.23617465
_symmetry_Int_Tables_number   1
_chemical_formula_structural   Cu2PdRh3Se8
_chemical_formula_sum   'Cu2 Pd1 Rh3 Se8'
_cell_volume   277.04361729
_cell_formula_units_Z   1
loop_
 _symmetry_equiv_pos_site_id
 _symmetry_equiv_pos_as_xyz
  1  'x, y, z'
loop_
 _atom_site_type_symbol
 _atom_site_label
 _atom_site_symmetry_multiplicity
 _atom_site_fract_x
 _atom_site_fract_y
 _atom_site_fract_z
 _atom_site_occupancy
  Cu  Cu0  1  0.50462542  0.49845786  0.49845786  1
  Cu  Cu1  1  0.74537458  0.75154214  0.75154214  1
  Pd  Pd0  1  0.62500000  0.12500000  0.12500000  1
  Rh  Rh0  1  0.12500000  0.12500000  0.12500000  1
  Rh  Rh1  1  0.12500000  0.12500000  0.62500000  1
  Rh  Rh2  1  0.12500000  0.62500000  0.12500000  1
  Se  Se0  1  0.34631723  0.88456159  0.88456159  1
  Se  Se1  1  0.36136095  0.36837196  0.36837196  1
  Se  Se2  1  0.90368277  0.36543841  0.36543841  1
  Se  Se3  1  0.88863905  0.88162804  0.34810588  1
  Se  Se4  1  0.88863905  0.88162804  0.88162804  1
  Se  Se5  1  0.36136095  0.90189412  0.36837196  1
  Se  Se6  1  0.36136095  0.36837196  0.90189412  1
  Se  Se7  1  0.88863905  0.34810588  0.88162804  1
loop_
_geom_bond_atom_site_label_1
_geom_bond_atom_site_label_2
_geom_bond_distance
_geom_bond_site_symmetry_2
Cu0 Se2 2.401312 1_555
Cu0 Se6 2.405690 1_555
Cu0 Se1 2.405690 1_555
Cu0 Se5 2.405690 1_555
Cu1 Se0 2.401312 1_555
Cu1 Se3 2.405690 1_555
Cu1 Se4 2.405690 1_555
Cu1 Se7 2.405690 1_555
Pd0 Se1 2.524448 1_555
Pd0 Se4 2.524448 1_544
Pd0 Se6 2.524453 1_554
Pd0 Se3 2.524453 1_545
Pd0 Se7 2.524453 1_554
Pd0 Se5 2.524453 1_545
Rh0 Se5 2.485155 1_545
Rh0 Se7 2.485155 1_454
Rh0 Se3 2.485156 1_445
Rh0 Se6 2.485156 1_554
Rh0 Se2 2.490736 1_455
Rh0 Se0 2.490736 1_544
Rh1 Se1 2.485156 1_555
Rh1 Se4 2.485156 1_445
Rh1 Se7 2.485161 1_455
Rh1 Se5 2.485161 1_545
Rh1 Se0 2.490747 1_545
Rh1 Se2 2.490747 1_455
Rh2 Se1 2.485156 1_555
Rh2 Se4 2.485156 1_454
Rh2 Se3 2.485161 1_455
Rh2 Se6 2.485161 1_554
Rh2 Se0 2.490747 1_554
Rh2 Se2 2.490747 1_455
