# generated using pymatgen
data_K2Hf(CuTe2)2
_symmetry_space_group_name_H-M   'P 1'
_cell_length_a   7.91600501
_cell_length_b   7.91600575
_cell_length_c   6.13828178
_cell_angle_alpha   90.00000000
_cell_angle_beta   90.00000000
_cell_angle_gamma   134.29054284
_symmetry_Int_Tables_number   1
_chemical_formula_structural   K2Hf(CuTe2)2
_chemical_formula_sum   'K2 Hf1 Cu2 Te4'
_cell_volume   275.33126649
_cell_formula_units_Z   1
loop_
 _symmetry_equiv_pos_site_id
 _symmetry_equiv_pos_as_xyz
  1  'x, y, z'
loop_
 _atom_site_type_symbol
 _atom_site_label
 _atom_site_symmetry_multiplicity
 _atom_site_fract_x
 _atom_site_fract_y
 _atom_site_fract_z
 _atom_site_occupancy
  K  K0  1  0.50000000  0.00000000  0.24493541  1
  K  K1  1  0.00000000  0.50000000  0.75506459  1
  Hf  Hf0  1  0.00000000  0.00000000  0.00000000  1
  Cu  Cu0  1  0.00000000  0.00000000  0.50000000  1
  Cu  Cu1  1  0.50000000  0.50000000  0.00000000  1
  Te  Te0  1  0.84802354  0.63789878  0.25707350  1
  Te  Te1  1  0.15197646  0.36210122  0.25707350  1
  Te  Te2  1  0.63789878  0.84802354  0.74292650  1
  Te  Te3  1  0.36210122  0.15197646  0.74292650  1
loop_
_geom_bond_atom_site_label_1
_geom_bond_atom_site_label_2
_geom_bond_distance
_geom_bond_site_symmetry_2
K0 Te0 3.696653 1_555
K0 Te1 3.696653 1_545
K0 Te2 3.717136 1_545
K0 Te3 3.717136 1_555
K0 Te2 3.737443 1_544
K0 Te3 3.737443 1_554
K0 Te1 3.767961 1_655
K0 Te0 3.767961 1_445
K1 Te2 3.696652 1_555
K1 Te3 3.696652 1_455
K1 Te1 3.717136 1_555
K1 Te0 3.717136 1_455
K1 Te1 3.737443 1_556
K1 Te0 3.737443 1_456
K1 Te3 3.767962 1_565
K1 Te2 3.767962 1_445
Hf0 Te3 2.708795 1_554
Hf0 Te2 2.708795 1_444
Hf0 Te1 2.708795 1_555
Hf0 Te0 2.708795 1_445
Cu0 Te3 2.659144 1_555
Cu0 Te2 2.659144 1_445
Cu0 Te1 2.659145 1_555
Cu0 Te0 2.659145 1_445
Cu0 Hf0 3.069141 1_555
Cu0 Hf0 3.069141 1_556
Cu1 Te0 2.659214 1_555
Cu1 Te1 2.659214 1_555
Cu1 Te2 2.659214 1_554
Cu1 Te3 2.659214 1_554
Cu1 Hf0 3.074545 1_665
Cu1 Hf0 3.074545 1_555
