# generated using pymatgen
data_Nb2Ni2PtS8
_symmetry_space_group_name_H-M   'P 1'
_cell_length_a   10.34442013
_cell_length_b   14.42662961
_cell_length_c   3.34097682
_cell_angle_alpha   90.00000000
_cell_angle_beta   90.00000000
_cell_angle_gamma   90.00000000
_symmetry_Int_Tables_number   1
_chemical_formula_structural   Nb2Ni2PtS8
_chemical_formula_sum   'Nb4 Ni4 Pt2 S16'
_cell_volume   498.59106936
_cell_formula_units_Z   2
loop_
 _symmetry_equiv_pos_site_id
 _symmetry_equiv_pos_as_xyz
  1  'x, y, z'
loop_
 _atom_site_type_symbol
 _atom_site_label
 _atom_site_symmetry_multiplicity
 _atom_site_fract_x
 _atom_site_fract_y
 _atom_site_fract_z
 _atom_site_occupancy
  Nb  Nb0  1  0.29745679  0.12338351  0.00000000  1
  Nb  Nb1  1  0.79745679  0.37661649  0.00000000  1
  Nb  Nb2  1  0.20254221  0.62338351  0.00000000  1
  Nb  Nb3  1  0.70254321  0.87661649  0.00000000  1
  Ni  Ni0  1  0.12977813  0.22856861  0.50000000  1
  Ni  Ni1  1  0.62977713  0.27143139  0.50000000  1
  Ni  Ni2  1  0.37022187  0.72856861  0.50000000  1
  Ni  Ni3  1  0.87022287  0.77143139  0.50000000  1
  Pt  Pt0  1  0.50000000  0.00000000  0.50000000  1
  Pt  Pt1  1  0.00000000  0.50000000  0.50000000  1
  S  S0  1  0.06251649  0.13704716  0.00000000  1
  S  S1  1  0.74760284  0.21221532  0.00000000  1
  S  S2  1  0.24760284  0.28778468  0.00000000  1
  S  S3  1  0.56251649  0.36295284  0.00000000  1
  S  S4  1  0.43748351  0.63704716  0.00000000  1
  S  S5  1  0.75239716  0.71221532  0.00000000  1
  S  S6  1  0.25239716  0.78778568  0.00000000  1
  S  S7  1  0.93748351  0.86295284  0.00000000  1
  S  S8  1  0.72716146  0.00239023  0.50000000  1
  S  S9  1  0.46985753  0.16073926  0.50000000  1
  S  S10  1  0.96985653  0.33926074  0.50000000  1
  S  S11  1  0.22716146  0.49760977  0.50000000  1
  S  S12  1  0.77283854  0.50239123  0.50000000  1
  S  S13  1  0.03014347  0.66073926  0.50000000  1
  S  S14  1  0.53014347  0.83926074  0.50000000  1
  S  S15  1  0.27283854  0.99760977  0.50000000  1
loop_
_geom_bond_atom_site_label_1
_geom_bond_atom_site_label_2
_geom_bond_distance
_geom_bond_site_symmetry_2
Nb0 S2 2.427175 1_555
Nb0 S0 2.438302 1_555
Nb0 S15 2.479468 1_545
Nb0 S15 2.479468 1_544
Nb0 S9 2.502285 1_555
Nb0 S9 2.502285 1_554
Nb1 S1 2.427175 1_555
Nb1 S3 2.438302 1_555
Nb1 S12 2.479479 1_554
Nb1 S12 2.479479 1_555
Nb1 S10 2.502277 1_554
Nb1 S10 2.502277 1_555
Nb2 S6 2.427191 1_555
Nb2 S4 2.438312 1_555
Nb2 S11 2.479469 1_555
Nb2 S11 2.479469 1_554
Nb2 S13 2.502270 1_555
Nb2 S13 2.502270 1_554
Nb3 S5 2.427175 1_555
Nb3 S7 2.438302 1_555
Nb3 S8 2.479468 1_564
Nb3 S8 2.479468 1_565
Nb3 S14 2.502277 1_555
Nb3 S14 2.502277 1_554
Ni0 S2 2.237383 1_555
Ni0 S2 2.237383 1_556
Ni0 S0 2.240080 1_555
Ni0 S0 2.240080 1_556
Ni0 S10 2.299311 1_455
Ni1 S1 2.237389 1_555
Ni1 S1 2.237389 1_556
Ni1 S3 2.240077 1_555
Ni1 S3 2.240077 1_556
Ni1 S9 2.299296 1_555
Ni2 S6 2.237388 1_555
Ni2 S6 2.237388 1_556
Ni2 S4 2.240080 1_555
Ni2 S4 2.240080 1_556
Ni2 S14 2.299311 1_555
Ni3 S5 2.237389 1_556
Ni3 S5 2.237389 1_555
Ni3 S7 2.240077 1_555
Ni3 S7 2.240077 1_556
Ni3 S13 2.299304 1_655
Pt0 S9 2.339795 1_555
Pt0 S14 2.339796 1_545
Pt0 S8 2.350107 1_555
Pt0 S15 2.350107 1_545
Pt1 S13 2.339796 1_555
Pt1 S10 2.339796 1_455
Pt1 S11 2.350107 1_555
Pt1 S12 2.350107 1_455
