# generated using pymatgen
data_InAg(CO3)2
_symmetry_space_group_name_H-M   'P 1'
_cell_length_a   6.26876811
_cell_length_b   6.26876844
_cell_length_c   6.26876928
_cell_angle_alpha   46.27464774
_cell_angle_beta   46.27464349
_cell_angle_gamma   46.27465348
_symmetry_Int_Tables_number   1
_chemical_formula_structural   InAg(CO3)2
_chemical_formula_sum   'In1 Ag1 C2 O6'
_cell_volume   117.41636035
_cell_formula_units_Z   1
loop_
 _symmetry_equiv_pos_site_id
 _symmetry_equiv_pos_as_xyz
  1  'x, y, z'
loop_
 _atom_site_type_symbol
 _atom_site_label
 _atom_site_symmetry_multiplicity
 _atom_site_fract_x
 _atom_site_fract_y
 _atom_site_fract_z
 _atom_site_occupancy
  In  In0  1  0.00000000  0.00000000  0.00000000  1
  Ag  Ag0  1  0.50000000  0.50000000  0.50000000  1
  C  C0  1  0.26081051  0.26081051  0.26081051  1
  C  C1  1  0.73918949  0.73918949  0.73918949  1
  O  O0  1  0.00993448  0.23729435  0.53204246  1
  O  O1  1  0.46795754  0.99006552  0.76270565  1
  O  O2  1  0.76270565  0.46795754  0.99006552  1
  O  O3  1  0.23729435  0.53204246  0.00993448  1
  O  O4  1  0.53204246  0.00993448  0.23729435  1
  O  O5  1  0.99006552  0.76270565  0.46795754  1
loop_
_geom_bond_atom_site_label_1
_geom_bond_atom_site_label_2
_geom_bond_distance
_geom_bond_site_symmetry_2
In0 O1 2.159920 1_544
In0 O4 2.159920 1_455
In0 O2 2.159920 1_454
In0 O3 2.159920 1_545
In0 O5 2.159921 1_445
In0 O0 2.159921 1_554
Ag0 O4 2.474653 1_565
Ag0 O1 2.474653 1_545
Ag0 O0 2.474653 1_655
Ag0 O5 2.474653 1_455
Ag0 O3 2.474653 1_556
Ag0 O2 2.474653 1_554
C0 O0 1.289757 1_555
C0 O3 1.289757 1_555
C0 O4 1.289757 1_555
C1 O5 1.289757 1_555
C1 O2 1.289757 1_555
C1 O1 1.289757 1_555
