# generated using pymatgen
data_Hf8Ta2CuSn7
_symmetry_space_group_name_H-M   'P 1'
_cell_length_a   5.76856347
_cell_length_b   8.55866191
_cell_length_c   8.55873737
_cell_angle_alpha   119.99971597
_cell_angle_beta   89.99988055
_cell_angle_gamma   90.00024509
_symmetry_Int_Tables_number   1
_chemical_formula_structural   Hf8Ta2CuSn7
_chemical_formula_sum   'Hf8 Ta2 Cu1 Sn7'
_cell_volume   365.94441333
_cell_formula_units_Z   1
loop_
 _symmetry_equiv_pos_site_id
 _symmetry_equiv_pos_as_xyz
  1  'x, y, z'
loop_
 _atom_site_type_symbol
 _atom_site_label
 _atom_site_symmetry_multiplicity
 _atom_site_fract_x
 _atom_site_fract_y
 _atom_site_fract_z
 _atom_site_occupancy
  Hf  Hf0  1  0.00000100  0.66666461  0.33333122  1
  Hf  Hf1  1  0.00000100  0.33333339  0.66666878  1
  Hf  Hf2  1  0.73328780  0.27279209  1.00000000  1
  Hf  Hf3  1  0.73328051  0.72720426  0.72720298  1
  Hf  Hf4  1  0.73328051  0.00000128  0.27279702  1
  Hf  Hf5  1  0.26670420  0.72720991  0.00000000  1
  Hf  Hf6  1  0.26672149  0.27279274  0.27279502  1
  Hf  Hf7  1  0.26672149  0.99999772  0.72720498  1
  Ta  Ta0  1  0.50000100  0.33334041  0.66667981  1
  Ta  Ta1  1  0.50000100  0.66666059  0.33332019  1
  Cu  Cu0  1  0.50000000  0.00000100  0.00000000  1
  Sn  Sn0  1  0.75231479  0.61194024  1.00000000  1
  Sn  Sn1  1  0.75231707  0.38805744  0.38806060  1
  Sn  Sn2  1  0.75231707  0.99999684  0.61193940  1
  Sn  Sn3  1  0.24768221  0.38806176  0.00000000  1
  Sn  Sn4  1  0.24768493  0.61194156  0.61193840  1
  Sn  Sn5  1  0.24768493  0.00000316  0.38806160  1
  Sn  Sn6  1  0.99999800  0.00000100  0.00000000  1
loop_
_geom_bond_atom_site_label_1
_geom_bond_atom_site_label_2
_geom_bond_distance
_geom_bond_site_symmetry_2
Hf0 Ta1 2.884282 1_555
Hf0 Ta1 2.884282 1_455
Hf0 Sn3 3.010564 1_555
Hf0 Sn4 3.010573 1_555
Hf0 Sn1 3.010578 1_455
Hf0 Sn2 3.010585 1_455
Hf0 Sn0 3.010589 1_454
Hf0 Sn5 3.010590 1_565
Hf1 Ta0 2.884282 1_555
Hf1 Ta0 2.884282 1_455
Hf1 Sn3 3.010564 1_556
Hf1 Sn5 3.010573 1_555
Hf1 Sn2 3.010578 1_445
Hf1 Sn1 3.010585 1_455
Hf1 Sn0 3.010589 1_455
Hf1 Sn4 3.010591 1_555
Hf2 Sn6 2.796081 1_556
Hf2 Sn0 2.904728 1_555
Hf2 Sn2 2.956325 1_545
Hf2 Sn1 2.956325 1_556
Hf2 Sn3 2.969898 1_556
Hf2 Sn3 3.127017 1_656
Hf3 Sn6 2.796154 1_566
Hf3 Sn1 2.904726 1_555
Hf3 Sn2 2.956264 1_555
Hf3 Sn0 2.956316 1_555
Hf3 Sn4 2.969823 1_555
Hf3 Sn4 3.127064 1_655
Hf4 Sn6 2.796154 1_555
Hf4 Sn2 2.904726 1_545
Hf4 Sn1 2.956263 1_555
Hf4 Sn0 2.956316 1_544
Hf4 Sn5 2.969824 1_555
Hf4 Sn5 3.127064 1_655
Hf5 Sn6 2.796068 1_465
Hf5 Sn3 2.904727 1_555
Hf5 Sn5 2.956325 1_565
Hf5 Sn4 2.956325 1_554
Hf5 Sn0 2.969925 1_554
Hf5 Sn0 3.126989 1_454
Hf6 Sn6 2.796148 1_455
Hf6 Sn4 2.904739 1_555
Hf6 Sn5 2.956258 1_555
Hf6 Sn3 2.956332 1_555
Hf6 Sn1 2.969828 1_555
Hf6 Sn1 3.127068 1_455
Hf7 Sn6 2.796149 1_466
Hf7 Sn5 2.904739 1_565
Hf7 Sn4 2.956257 1_555
Hf7 Sn3 2.956332 1_566
Hf7 Sn2 2.969828 1_555
Hf7 Sn2 3.127068 1_455
Cu0 Hf2 2.694796 1_554
Cu0 Hf6 2.694811 1_555
Cu0 Hf7 2.694812 1_544
Cu0 Hf5 2.694819 1_545
Cu0 Hf3 2.694843 1_544
Cu0 Hf4 2.694843 1_555
Cu0 Sn6 2.884270 1_555
Cu0 Sn6 2.884293 1_455
Sn0 Ta0 3.023274 1_555
Sn0 Ta1 3.023274 1_556
Sn1 Ta1 3.023384 1_555
Sn1 Ta0 3.023400 1_555
Sn2 Ta0 3.023384 1_565
Sn2 Ta1 3.023400 1_555
Sn3 Ta1 3.023285 1_555
Sn3 Ta0 3.023286 1_554
Sn4 Ta0 3.023374 1_555
Sn4 Ta1 3.023402 1_555
Sn5 Ta1 3.023374 1_545
Sn5 Ta0 3.023402 1_555
