# generated using pymatgen
data_Cs4Ba2TiBi4
_symmetry_space_group_name_H-M   'P 1'
_cell_length_a   11.83201228
_cell_length_b   11.83201086
_cell_length_c   8.77084914
_cell_angle_alpha   87.51762636
_cell_angle_beta   87.51762510
_cell_angle_gamma   119.05612698
_symmetry_Int_Tables_number   1
_chemical_formula_structural   Cs4Ba2TiBi4
_chemical_formula_sum   'Cs8 Ba4 Ti2 Bi8'
_cell_volume   1069.42951294
_cell_formula_units_Z   2
loop_
 _symmetry_equiv_pos_site_id
 _symmetry_equiv_pos_as_xyz
  1  'x, y, z'
loop_
 _atom_site_type_symbol
 _atom_site_label
 _atom_site_symmetry_multiplicity
 _atom_site_fract_x
 _atom_site_fract_y
 _atom_site_fract_z
 _atom_site_occupancy
  Cs  Cs0  1  0.47953176  0.95148358  0.39024501  1
  Cs  Cs1  1  0.95148358  0.47953176  0.89024501  1
  Cs  Cs2  1  0.86541199  0.71808811  0.14977791  1
  Cs  Cs3  1  0.25928002  0.12111961  0.23828607  1
  Cs  Cs4  1  0.85240425  0.14535572  0.18265802  1
  Cs  Cs5  1  0.12111961  0.25928002  0.73828607  1
  Cs  Cs6  1  0.71808811  0.86541199  0.64977791  1
  Cs  Cs7  1  0.14535572  0.85240425  0.68265802  1
  Ba  Ba0  1  0.06610668  0.53092614  0.39886049  1
  Ba  Ba1  1  0.47916620  0.52519304  0.38020268  1
  Ba  Ba2  1  0.53092614  0.06610668  0.89886049  1
  Ba  Ba3  1  0.52519304  0.47916620  0.88020268  1
  Ti  Ti0  1  0.66457330  0.33836970  0.49530266  1
  Ti  Ti1  1  0.33836970  0.66457330  0.99530266  1
  Bi  Bi0  1  0.63889835  0.33161948  0.17859803  1
  Bi  Bi1  1  0.33161948  0.63889835  0.67859803  1
  Bi  Bi2  1  0.21669035  0.41319047  0.13317837  1
  Bi  Bi3  1  0.59368950  0.79270904  0.07338503  1
  Bi  Bi4  1  0.21746321  0.79853848  0.09717174  1
  Bi  Bi5  1  0.79270904  0.59368950  0.57338503  1
  Bi  Bi6  1  0.41319047  0.21669035  0.63317837  1
  Bi  Bi7  1  0.79853848  0.21746321  0.59717174  1
loop_
_geom_bond_atom_site_label_1
_geom_bond_atom_site_label_2
_geom_bond_distance
_geom_bond_site_symmetry_2
Ba0 Bi2 3.588534 1_555
Ba0 Bi4 3.686545 1_555
Ba0 Bi7 3.789844 1_455
Ba0 Bi1 3.816032 1_555
Ba0 Bi5 3.919406 1_455
Ba1 Bi2 3.595723 1_555
Ba1 Bi3 3.725171 1_555
Ba1 Bi1 3.727996 1_555
Ba1 Bi5 3.877328 1_555
Ba1 Bi6 3.903478 1_555
Ba1 Bi0 4.026201 1_555
Ba2 Bi6 3.588534 1_555
Ba2 Bi7 3.686545 1_555
Ba2 Bi4 3.789844 1_546
Ba2 Bi0 3.816032 1_556
Ba2 Bi3 3.919406 1_546
Ba3 Bi6 3.595723 1_555
Ba3 Bi5 3.725171 1_555
Ba3 Bi0 3.727996 1_556
Ba3 Bi3 3.877327 1_556
Ba3 Bi2 3.903478 1_556
Ba3 Bi1 4.026201 1_555
Bi0 Ti0 2.807741 1_555
Bi0 Cs3 3.933097 1_555
Bi0 Cs1 3.956930 1_554
Bi0 Cs2 4.011691 1_555
Bi0 Cs4 4.080303 1_555
Bi0 Cs0 4.238753 1_545
Bi1 Ti1 2.807741 1_555
Bi1 Cs5 3.933096 1_555
Bi1 Cs0 3.956930 1_555
Bi1 Cs6 4.011691 1_555
Bi1 Cs7 4.080302 1_555
Bi1 Cs1 4.238754 1_455
Bi2 Ti1 2.785702 1_554
Bi2 Cs3 3.808156 1_555
Bi2 Cs4 3.906451 1_455
Bi2 Cs5 3.934021 1_554
Bi2 Cs1 4.222508 1_454
Bi3 Ti1 2.777426 1_554
Bi3 Cs2 3.802293 1_555
Bi3 Cs6 3.837989 1_554
Bi3 Cs0 3.958415 1_555
Bi3 Cs4 3.986610 1_565
Bi4 Ti1 2.751692 1_554
Bi4 Cs2 3.796607 1_455
Bi4 Cs7 3.866280 1_554
Bi4 Cs3 3.869427 1_565
Bi4 Cs0 3.891036 1_555
Bi4 Cs1 4.122489 1_454
Bi5 Ti0 2.777426 1_555
Bi5 Cs6 3.802293 1_555
Bi5 Cs2 3.837989 1_555
Bi5 Cs1 3.958416 1_555
Bi5 Cs7 3.986610 1_655
Bi6 Ti0 2.785702 1_555
Bi6 Cs5 3.808157 1_555
Bi6 Cs7 3.906451 1_545
Bi6 Cs3 3.934021 1_555
Bi6 Cs0 4.222508 1_545
Bi7 Ti0 2.751692 1_555
Bi7 Cs6 3.796607 1_545
Bi7 Cs4 3.866280 1_555
Bi7 Cs5 3.869427 1_655
Bi7 Cs1 3.891036 1_555
Bi7 Cs0 4.122489 1_545
