# generated using pymatgen
data_Rb3ScRhBr9
_symmetry_space_group_name_H-M   'P 1'
_cell_length_a   7.49437719
_cell_length_b   7.49437749
_cell_length_c   18.95793556
_cell_angle_alpha   90.00000000
_cell_angle_beta   90.00000000
_cell_angle_gamma   120.00000281
_symmetry_Int_Tables_number   1
_chemical_formula_structural   Rb3ScRhBr9
_chemical_formula_sum   'Rb6 Sc2 Rh2 Br18'
_cell_volume   922.13132179
_cell_formula_units_Z   2
loop_
 _symmetry_equiv_pos_site_id
 _symmetry_equiv_pos_as_xyz
  1  'x, y, z'
loop_
 _atom_site_type_symbol
 _atom_site_label
 _atom_site_symmetry_multiplicity
 _atom_site_fract_x
 _atom_site_fract_y
 _atom_site_fract_z
 _atom_site_occupancy
  Rb  Rb0  1  0.33333300  0.66666700  0.06384691  1
  Rb  Rb1  1  0.66666700  0.33333300  0.93615309  1
  Rb  Rb2  1  0.66666700  0.33333300  0.56797751  1
  Rb  Rb3  1  0.33333300  0.66666700  0.43202249  1
  Rb  Rb4  1  0.00000000  0.00000000  0.25859893  1
  Rb  Rb5  1  0.00000000  0.00000000  0.74140107  1
  Sc  Sc0  1  0.66666700  0.33333300  0.16251141  1
  Sc  Sc1  1  0.33333300  0.66666700  0.83748859  1
  Rh  Rh0  1  0.33333300  0.66666700  0.66270142  1
  Rh  Rh1  1  0.66666700  0.33333300  0.33729858  1
  Br  Br0  1  0.17675027  0.35350154  0.58885592  1
  Br  Br1  1  0.82324973  0.64649846  0.41114408  1
  Br  Br2  1  0.64649846  0.82324973  0.58885592  1
  Br  Br3  1  0.83374295  0.66748389  0.09096256  1
  Br  Br4  1  0.35350154  0.17675027  0.41114408  1
  Br  Br5  1  0.16625705  0.33251611  0.90903744  1
  Br  Br6  1  0.17675027  0.82324973  0.58885592  1
  Br  Br7  1  0.33251611  0.16625705  0.09096256  1
  Br  Br8  1  0.82324973  0.17675027  0.41114408  1
  Br  Br9  1  0.66748389  0.83374295  0.90903744  1
  Br  Br10  1  0.83374295  0.16625705  0.09096256  1
  Br  Br11  1  0.16625705  0.83374295  0.90903744  1
  Br  Br12  1  0.50752389  0.01504978  0.25840545  1
  Br  Br13  1  0.49247611  0.98495022  0.74159455  1
  Br  Br14  1  0.98495022  0.49247611  0.25840545  1
  Br  Br15  1  0.01504978  0.50752389  0.74159455  1
  Br  Br16  1  0.50752389  0.49247611  0.25840545  1
  Br  Br17  1  0.49247611  0.50752389  0.74159455  1
loop_
_geom_bond_atom_site_label_1
_geom_bond_atom_site_label_2
_geom_bond_distance
_geom_bond_site_symmetry_2
Br0 Rh0 2.468019 1_555
Br0 Rb3 3.601580 1_555
Br0 Rb5 3.691519 1_555
Br0 Rb2 3.770301 1_455
Br0 Rb2 3.770316 1_555
Br1 Rh1 2.468019 1_555
Br1 Rb2 3.601580 1_555
Br1 Rb4 3.691519 1_665
Br1 Rb3 3.770301 1_655
Br1 Rb3 3.770316 1_555
Br2 Rh0 2.468019 1_555
Br2 Rb3 3.601580 1_555
Br2 Rb5 3.691519 1_665
Br2 Rb2 3.770301 1_565
Br2 Rb2 3.770316 1_555
Br3 Sc0 2.557994 1_555
Br3 Rb1 3.649234 1_554
Br3 Rb0 3.782277 1_655
Br3 Rb0 3.782299 1_555
Br3 Rb4 3.841548 1_665
Br4 Rh1 2.468019 1_555
Br4 Rb2 3.601580 1_555
Br4 Rb4 3.691519 1_555
Br4 Rb3 3.770301 1_545
Br4 Rb3 3.770316 1_555
Br5 Sc1 2.557994 1_555
Br5 Rb0 3.649234 1_556
Br5 Rb1 3.782277 1_455
Br5 Rb1 3.782299 1_555
Br5 Rb5 3.841548 1_555
Br6 Rh0 2.468019 1_555
Br6 Rb3 3.601580 1_555
Br6 Rb5 3.691515 1_565
Br6 Rb2 3.770308 1_455
Br6 Rb2 3.770308 1_565
Br7 Sc0 2.557994 1_555
Br7 Rb1 3.649234 1_554
Br7 Rb0 3.782277 1_545
Br7 Rb0 3.782300 1_555
Br7 Rb4 3.841548 1_555
Br8 Rh1 2.468019 1_555
Br8 Rb2 3.601580 1_555
Br8 Rb4 3.691515 1_655
Br8 Rb3 3.770308 1_655
Br8 Rb3 3.770308 1_545
Br9 Sc1 2.557994 1_555
Br9 Rb0 3.649234 1_556
Br9 Rb1 3.782277 1_565
Br9 Rb1 3.782300 1_555
Br9 Rb5 3.841548 1_665
Br10 Sc0 2.557999 1_555
Br10 Rb1 3.649238 1_554
Br10 Rb0 3.782288 1_545
Br10 Rb0 3.782288 1_655
Br10 Rb4 3.841540 1_655
Br11 Sc1 2.557999 1_555
Br11 Rb0 3.649238 1_556
Br11 Rb1 3.782288 1_565
Br11 Rb1 3.782288 1_455
Br11 Rb5 3.841540 1_565
Br12 Rh1 2.550360 1_555
Br12 Sc0 2.751785 1_555
Br12 Rb4 3.748456 1_555
Br12 Rb4 3.748471 1_655
Br12 Rb3 3.993256 1_545
Br13 Rh0 2.550360 1_555
Br13 Sc1 2.751785 1_555
Br13 Rb5 3.748456 1_665
Br13 Rb5 3.748471 1_565
Br13 Rb2 3.993256 1_565
Br14 Rh1 2.550360 1_555
Br14 Sc0 2.751785 1_555
Br14 Rb4 3.748456 1_665
Br14 Rb4 3.748471 1_655
Br14 Rb3 3.993256 1_655
Br15 Rh0 2.550360 1_555
Br15 Sc1 2.751785 1_555
Br15 Rb5 3.748456 1_555
Br15 Rb5 3.748471 1_565
Br15 Rb2 3.993256 1_455
Br16 Rh1 2.550376 1_555
Br16 Sc0 2.751799 1_555
Br16 Rb4 3.748463 1_555
Br16 Rb4 3.748463 1_665
Br16 Rb3 3.993253 1_555
Br17 Rh0 2.550376 1_555
Br17 Sc1 2.751799 1_555
Br17 Rb5 3.748463 1_665
Br17 Rb5 3.748463 1_555
Br17 Rb2 3.993253 1_555
