# generated using pymatgen
data_Ba2GaPPt7
_symmetry_space_group_name_H-M   'P 1'
_cell_length_a   9.70730629
_cell_length_b   9.69808653
_cell_length_c   4.12147638
_cell_angle_alpha   90.00000000
_cell_angle_beta   90.00000000
_cell_angle_gamma   146.44409277
_symmetry_Int_Tables_number   1
_chemical_formula_structural   Ba2GaPPt7
_chemical_formula_sum   'Ba2 Ga1 P1 Pt7'
_cell_volume   214.47005733
_cell_formula_units_Z   1
loop_
 _symmetry_equiv_pos_site_id
 _symmetry_equiv_pos_as_xyz
  1  'x, y, z'
loop_
 _atom_site_type_symbol
 _atom_site_label
 _atom_site_symmetry_multiplicity
 _atom_site_fract_x
 _atom_site_fract_y
 _atom_site_fract_z
 _atom_site_occupancy
  Ba  Ba0  1  0.61562317  0.37656011  0.50000000  1
  Ba  Ba1  1  0.37883907  0.61894367  0.50000000  1
  Ga  Ga0  1  0.19702231  0.79072433  0.50000000  1
  P  P0  1  0.21105672  0.20961157  0.00000000  1
  Pt  Pt0  1  0.10915542  0.88577192  0.00000000  1
  Pt  Pt1  1  0.89809322  0.11433282  0.00000000  1
  Pt  Pt2  1  0.49047520  0.99966278  0.00000000  1
  Pt  Pt3  1  0.98890897  0.50064380  0.00000000  1
  Pt  Pt4  1  0.79714061  0.19447884  0.50000000  1
  Pt  Pt5  1  0.00311248  0.00024250  0.50000000  1
  Pt  Pt6  1  0.62417484  0.62263065  0.00000000  1
loop_
_geom_bond_atom_site_label_1
_geom_bond_atom_site_label_2
_geom_bond_distance
_geom_bond_site_symmetry_2
Ba0 Pt6 3.101342 1_556
Ba0 Pt6 3.101342 1_555
Ba0 Ga0 3.194300 1_655
Ba0 Ga0 3.211362 1_545
Ba0 Pt4 3.377706 1_555
Ba0 Pt3 3.399637 1_555
Ba0 Pt3 3.399637 1_556
Ba0 Pt2 3.417881 1_545
Ba0 Pt2 3.417881 1_546
Ba0 P0 3.419595 1_556
Ba0 P0 3.419595 1_555
Ba0 Pt0 3.474311 1_545
Ba0 Pt0 3.474311 1_546
Ba0 Pt0 3.486279 1_655
Ba0 Pt0 3.486279 1_656
Ba0 Pt5 3.536309 1_555
Ba0 Pt5 3.579633 1_665
Ba1 Pt6 3.126942 1_556
Ba1 Pt6 3.126942 1_555
Ba1 Pt4 3.141288 1_565
Ba1 Pt4 3.176352 1_455
Ba1 Ga0 3.284968 1_555
Ba1 P0 3.447035 1_556
Ba1 P0 3.447035 1_555
Ba1 Pt1 3.451117 1_455
Ba1 Pt1 3.451117 1_456
Ba1 Pt1 3.517664 1_565
Ba1 Pt1 3.517664 1_566
Ba1 Pt2 3.519214 1_556
Ba1 Pt2 3.519214 1_555
Ba1 Pt3 3.557040 1_456
Ba1 Pt3 3.557040 1_455
Ba1 Pt5 3.581970 1_555
Ba1 Pt5 3.612316 1_665
Ga0 Pt3 2.601882 1_455
Ga0 Pt3 2.601882 1_456
Ga0 Pt2 2.616636 1_555
Ga0 Pt2 2.616636 1_556
Ga0 Pt0 2.671002 1_556
Ga0 Pt0 2.671002 1_555
P0 Pt6 2.313861 1_555
P0 Pt1 2.324802 1_455
P0 Pt5 2.369156 1_554
P0 Pt5 2.369156 1_555
P0 Pt0 2.379949 1_545
Pt1 Pt4 2.660951 1_555
Pt1 Pt4 2.660951 1_554
Pt2 Pt4 2.702601 1_565
Pt2 Pt4 2.702601 1_564
Pt3 Pt4 2.704784 1_555
Pt3 Pt4 2.704784 1_554
