# generated using pymatgen
data_Ca2Y(Si3Pd10)2
_symmetry_space_group_name_H-M   'P 1'
_cell_length_a   8.65724759
_cell_length_b   8.65724656
_cell_length_c   8.65724803
_cell_angle_alpha   60.00000181
_cell_angle_beta   60.00000572
_cell_angle_gamma   60.00000205
_symmetry_Int_Tables_number   1
_chemical_formula_structural   Ca2Y(Si3Pd10)2
_chemical_formula_sum   'Ca2 Y1 Si6 Pd20'
_cell_volume   458.80117217
_cell_formula_units_Z   1
loop_
 _symmetry_equiv_pos_site_id
 _symmetry_equiv_pos_as_xyz
  1  'x, y, z'
loop_
 _atom_site_type_symbol
 _atom_site_label
 _atom_site_symmetry_multiplicity
 _atom_site_fract_x
 _atom_site_fract_y
 _atom_site_fract_z
 _atom_site_occupancy
  Ca  Ca0  1  0.25000000  0.25000000  0.25000000  1
  Ca  Ca1  1  0.75000000  0.75000000  0.75000000  1
  Y  Y0  1  0.00000000  0.00000000  0.00000000  1
  Si  Si0  1  0.73162628  0.26837372  0.26837372  1
  Si  Si1  1  0.26837372  0.73162628  0.73162628  1
  Si  Si2  1  0.26837372  0.73162628  0.26837372  1
  Si  Si3  1  0.73162628  0.26837372  0.73162628  1
  Si  Si4  1  0.26837372  0.26837372  0.73162628  1
  Si  Si5  1  0.73162628  0.73162628  0.26837372  1
  Pd  Pd0  1  0.34458680  0.00000000  0.00000000  1
  Pd  Pd1  1  0.65541320  1.00000000  1.00000000  1
  Pd  Pd2  1  1.00000000  0.34458680  0.65541320  1
  Pd  Pd3  1  0.00000000  0.65541320  0.34458680  1
  Pd  Pd4  1  1.00000000  0.34458680  1.00000000  1
  Pd  Pd5  1  0.65541320  0.00000000  0.34458680  1
  Pd  Pd6  1  0.00000000  0.65541320  0.00000000  1
  Pd  Pd7  1  0.34458680  1.00000000  0.65541320  1
  Pd  Pd8  1  0.00000000  0.00000000  0.34458680  1
  Pd  Pd9  1  1.00000000  1.00000000  0.65541320  1
  Pd  Pd10  1  0.65541320  0.34458680  1.00000000  1
  Pd  Pd11  1  0.34458680  0.65541320  0.00000000  1
  Pd  Pd12  1  0.38484757  0.38484757  0.38484757  1
  Pd  Pd13  1  0.61515243  0.61515243  0.61515243  1
  Pd  Pd14  1  0.38484757  0.38484757  0.84545829  1
  Pd  Pd15  1  0.38484757  0.84545829  0.38484757  1
  Pd  Pd16  1  0.61515243  0.61515243  0.15454171  1
  Pd  Pd17  1  0.61515243  0.15454171  0.61515243  1
  Pd  Pd18  1  0.84545829  0.38484757  0.38484757  1
  Pd  Pd19  1  0.15454171  0.61515243  0.61515243  1
loop_
_geom_bond_atom_site_label_1
_geom_bond_atom_site_label_2
_geom_bond_distance
_geom_bond_site_symmetry_2
Ca0 Pd15 2.859548 1_545
Ca0 Pd18 2.859549 1_455
Ca0 Pd14 2.859549 1_554
Ca0 Pd12 2.859556 1_555
Ca1 Pd17 2.859548 1_565
Ca1 Pd19 2.859549 1_655
Ca1 Pd16 2.859549 1_556
Ca1 Pd13 2.859556 1_555
Pd0 Si2 2.415246 1_545
Pd0 Si4 2.415246 1_554
Pd0 Y0 2.983173 1_555
Pd1 Si3 2.415246 1_565
Pd1 Si5 2.415246 1_556
Pd1 Y0 2.983173 1_666
Pd2 Si3 2.415246 1_555
Pd2 Si4 2.415246 1_655
Pd2 Y0 2.983173 1_656
Pd3 Si2 2.415246 1_555
Pd3 Si5 2.415246 1_455
Pd3 Y0 2.983173 1_565
Pd4 Si0 2.415246 1_556
Pd4 Si4 2.415246 1_655
Pd4 Y0 2.983173 1_656
Pd5 Si0 2.415246 1_555
Pd5 Si5 2.415246 1_545
Pd5 Y0 2.983174 1_655
Pd6 Si1 2.415246 1_554
Pd6 Si5 2.415246 1_455
Pd6 Y0 2.983173 1_565
Pd7 Si1 2.415246 1_555
Pd7 Si4 2.415246 1_565
Pd7 Y0 2.983174 1_566
Pd8 Si2 2.415246 1_545
Pd8 Si0 2.415246 1_455
Pd8 Y0 2.983173 1_555
Pd9 Si3 2.415246 1_565
Pd9 Si1 2.415246 1_655
Pd9 Y0 2.983173 1_666
Pd10 Si0 2.415246 1_556
Pd10 Si3 2.415246 1_555
Pd10 Y0 2.983173 1_656
Pd11 Si1 2.415246 1_554
Pd11 Si2 2.415246 1_555
Pd11 Y0 2.983173 1_565
Pd12 Si2 2.451280 1_555
Pd12 Si0 2.451280 1_555
Pd12 Si4 2.451280 1_555
Pd13 Si3 2.451280 1_555
Pd13 Si1 2.451280 1_555
Pd13 Si5 2.451280 1_555
Pd14 Si1 2.451280 1_555
Pd14 Si3 2.451280 1_555
Pd14 Si4 2.451287 1_555
Pd15 Si5 2.451280 1_555
Pd15 Si1 2.451280 1_555
Pd15 Si2 2.451287 1_555
Pd16 Si0 2.451280 1_555
Pd16 Si2 2.451280 1_555
Pd16 Si5 2.451287 1_555
Pd17 Si4 2.451280 1_555
Pd17 Si0 2.451280 1_555
Pd17 Si3 2.451287 1_555
Pd18 Si5 2.451280 1_555
Pd18 Si3 2.451280 1_555
Pd18 Si0 2.451287 1_555
Pd19 Si4 2.451280 1_555
Pd19 Si2 2.451280 1_555
Pd19 Si1 2.451287 1_555
