# generated using pymatgen
data_K6GaTe4I
_symmetry_space_group_name_H-M   'P 1'
_cell_length_a   11.27235859
_cell_length_b   11.27246913
_cell_length_c   8.34828554
_cell_angle_alpha   90.00000000
_cell_angle_beta   90.00000000
_cell_angle_gamma   119.99914042
_symmetry_Int_Tables_number   1
_chemical_formula_structural   K6GaTe4I
_chemical_formula_sum   'K12 Ga2 Te8 I2'
_cell_volume   918.68270090
_cell_formula_units_Z   2
loop_
 _symmetry_equiv_pos_site_id
 _symmetry_equiv_pos_as_xyz
  1  'x, y, z'
loop_
 _atom_site_type_symbol
 _atom_site_label
 _atom_site_symmetry_multiplicity
 _atom_site_fract_x
 _atom_site_fract_y
 _atom_site_fract_z
 _atom_site_occupancy
  K  K0  1  0.13929541  0.86069834  0.51500793  1
  K  K1  1  0.72140827  0.86070474  0.51498385  1
  K  K2  1  0.95298320  0.47649125  0.32044665  1
  K  K3  1  0.52350933  0.47648883  0.32044229  1
  K  K4  1  0.86070291  0.72140700  0.01497949  1
  K  K5  1  0.27859173  0.13929526  0.01498385  1
  K  K6  1  0.52350769  0.04701523  0.32044572  1
  K  K7  1  0.13929709  0.27859300  0.51497949  1
  K  K8  1  0.86070459  0.13930166  0.01500793  1
  K  K9  1  0.04701680  0.52350875  0.82044665  1
  K  K10  1  0.47649231  0.95298477  0.82044572  1
  K  K11  1  0.47649067  0.52351117  0.82044229  1
  Ga  Ga0  1  0.66666188  0.33332267  0.70566504  1
  Ga  Ga1  1  0.33333812  0.66667733  0.20566504  1
  Te  Te0  1  0.40961458  0.20477788  0.60836459  1
  Te  Te1  1  0.59038542  0.79522212  0.10836459  1
  Te  Te2  1  0.66667569  0.33333782  0.03091720  1
  Te  Te3  1  0.79516258  0.59037197  0.60834220  1
  Te  Te4  1  0.20483742  0.40962803  0.10834220  1
  Te  Te5  1  0.33332431  0.66666218  0.53091720  1
  Te  Te6  1  0.20480777  0.79520755  0.10836163  1
  Te  Te7  1  0.79519223  0.20479245  0.60836163  1
  I  I0  1  0.00004681  0.99997260  0.27264441  1
  I  I1  1  0.99995319  0.00002740  0.77264441  1
loop_
_geom_bond_atom_site_label_1
_geom_bond_atom_site_label_2
_geom_bond_distance
_geom_bond_site_symmetry_2
K0 Te0 3.621850 1_565
K0 Te3 3.622209 1_455
K0 Te6 3.627696 1_555
K0 Te5 3.790679 1_555
K1 Te7 3.621875 1_565
K1 Te3 3.621907 1_555
K1 Te1 3.627556 1_555
K1 Te5 3.790901 1_555
K2 Te3 3.587895 1_555
K2 Te7 3.588002 1_555
K2 Te2 3.695170 1_555
K2 Te6 3.728566 1_655
K2 Te4 3.728685 1_655
K3 Te3 3.587566 1_555
K3 Te0 3.588142 1_555
K3 Te2 3.695202 1_555
K3 Te4 3.728244 1_555
K3 Te1 3.728736 1_555
K4 Te6 3.621972 1_655
K4 Te1 3.622213 1_555
K4 Te3 3.627744 1_554
K4 Te2 3.790795 1_555
K5 Te6 3.621875 1_545
K5 Te4 3.621907 1_555
K5 Te0 3.627556 1_554
K5 Te2 3.790901 1_555
K6 Te0 3.587673 1_555
K6 Te7 3.587882 1_555
K6 Te2 3.695297 1_555
K6 Te1 3.728114 1_545
K6 Te6 3.728389 1_545
K7 Te7 3.621972 1_455
K7 Te0 3.622213 1_555
K7 Te4 3.627744 1_555
K7 Te5 3.790795 1_555
K8 Te1 3.621850 1_545
K8 Te4 3.622209 1_655
K8 Te7 3.627696 1_554
K8 Te2 3.790679 1_555
K9 Te4 3.587895 1_556
K9 Te6 3.588002 1_556
K9 Te5 3.695170 1_555
K9 Te7 3.728566 1_455
K9 Te3 3.728685 1_455
K10 Te1 3.587673 1_556
K10 Te6 3.587882 1_556
K10 Te5 3.695297 1_555
K10 Te0 3.728114 1_565
K10 Te7 3.728389 1_565
K11 Te4 3.587566 1_556
K11 Te1 3.588142 1_556
K11 Te5 3.695202 1_555
K11 Te3 3.728244 1_555
K11 Te0 3.728736 1_555
Ga0 Te0 2.637553 1_555
Ga0 Te3 2.637652 1_555
Ga0 Te7 2.637664 1_555
Ga0 Te2 2.715298 1_556
Ga1 Te1 2.637553 1_555
Ga1 Te4 2.637652 1_555
Ga1 Te6 2.637664 1_555
Ga1 Te5 2.715298 1_555
I0 K0 3.389202 1_555
I0 K7 3.389864 1_565
I0 K1 3.390006 1_455
I0 K5 3.467141 1_565
I0 K4 3.467343 1_455
I0 K8 3.467966 1_465
I1 K8 3.389202 1_556
I1 K4 3.389864 1_546
I1 K5 3.390006 1_656
I1 K1 3.467141 1_545
I1 K7 3.467343 1_655
I1 K0 3.467966 1_645
