# generated using pymatgen
data_Nb3Al2FeN
_symmetry_space_group_name_H-M   'P 1'
_cell_length_a   8.20615721
_cell_length_b   8.20615653
_cell_length_c   8.20615782
_cell_angle_alpha   59.99999884
_cell_angle_beta   60.00000159
_cell_angle_gamma   59.99999831
_symmetry_Int_Tables_number   1
_chemical_formula_structural   Nb3Al2FeN
_chemical_formula_sum   'Nb12 Al8 Fe4 N4'
_cell_volume   390.75495396
_cell_formula_units_Z   4
loop_
 _symmetry_equiv_pos_site_id
 _symmetry_equiv_pos_as_xyz
  1  'x, y, z'
loop_
 _atom_site_type_symbol
 _atom_site_label
 _atom_site_symmetry_multiplicity
 _atom_site_fract_x
 _atom_site_fract_y
 _atom_site_fract_z
 _atom_site_occupancy
  Nb  Nb0  1  0.80633542  0.80633542  0.19366458  1
  Nb  Nb1  1  0.19366458  0.19366458  0.80633542  1
  Nb  Nb2  1  0.80633542  0.19366458  0.80633542  1
  Nb  Nb3  1  0.19366458  0.80633542  0.19366458  1
  Nb  Nb4  1  0.19366458  0.80633542  0.80633542  1
  Nb  Nb5  1  0.80633542  0.19366458  0.19366458  1
  Nb  Nb6  1  0.44366458  0.44366458  0.05633542  1
  Nb  Nb7  1  0.05633542  0.05633542  0.44366458  1
  Nb  Nb8  1  0.44366458  0.05633542  0.44366458  1
  Nb  Nb9  1  0.05633542  0.44366458  0.05633542  1
  Nb  Nb10  1  0.05633542  0.44366458  0.44366458  1
  Nb  Nb11  1  0.44366458  0.05633542  0.05633542  1
  Al  Al0  1  0.74727941  0.41757420  0.41757420  1
  Al  Al1  1  0.41757420  0.74727941  0.41757420  1
  Al  Al2  1  0.41757420  0.41757420  0.74727941  1
  Al  Al3  1  0.41757420  0.41757420  0.41757420  1
  Al  Al4  1  0.50272059  0.83242580  0.83242580  1
  Al  Al5  1  0.83242580  0.50272059  0.83242580  1
  Al  Al6  1  0.83242580  0.83242580  0.50272059  1
  Al  Al7  1  0.83242580  0.83242580  0.83242580  1
  Fe  Fe0  1  0.12500000  0.62500000  0.62500000  1
  Fe  Fe1  1  0.62500000  0.12500000  0.62500000  1
  Fe  Fe2  1  0.62500000  0.62500000  0.12500000  1
  Fe  Fe3  1  0.62500000  0.62500000  0.62500000  1
  N  N0  1  0.62500000  0.12500000  0.12500000  1
  N  N1  1  0.12500000  0.62500000  0.12500000  1
  N  N2  1  0.12500000  0.12500000  0.62500000  1
  N  N3  1  0.12500000  0.12500000  0.12500000  1
loop_
_geom_bond_atom_site_label_1
_geom_bond_atom_site_label_2
_geom_bond_distance
_geom_bond_site_symmetry_2
Al0 Fe3 2.506586 1_555
Al0 Fe1 2.506599 1_555
Al0 Fe2 2.506599 1_555
Al0 Al1 2.705613 1_555
Al0 Al3 2.705613 1_555
Al0 Al2 2.705613 1_555
Al0 Nb10 2.766881 1_655
Al0 Nb7 2.766890 1_655
Al0 Nb9 2.766891 1_655
Al0 Nb0 2.929569 1_555
Al0 Nb2 2.929570 1_555
Al0 Nb5 2.929584 1_555
Al1 Fe3 2.506586 1_555
Al1 Fe0 2.506599 1_555
Al1 Fe2 2.506600 1_555
Al1 Al3 2.705613 1_555
Al1 Al2 2.705613 1_555
Al1 Nb8 2.766881 1_565
Al1 Nb7 2.766890 1_565
Al1 Nb11 2.766891 1_565
Al1 Nb0 2.929570 1_555
Al1 Nb4 2.929570 1_555
Al1 Nb3 2.929584 1_555
Al2 Fe3 2.506586 1_555
Al2 Fe1 2.506599 1_555
Al2 Fe0 2.506599 1_555
Al2 Al3 2.705613 1_555
Al2 Nb6 2.766881 1_556
Al2 Nb11 2.766890 1_556
Al2 Nb9 2.766891 1_556
Al2 Nb4 2.929569 1_555
Al2 Nb2 2.929570 1_555
Al2 Nb1 2.929584 1_555
Al3 Fe1 2.506590 1_555
Al3 Fe0 2.506591 1_555
Al3 Fe2 2.506591 1_555
Al3 Nb8 2.766897 1_555
Al3 Nb10 2.766897 1_555
Al3 Nb6 2.766898 1_555
Al3 Nb3 2.929576 1_555
Al3 Nb5 2.929576 1_555
Al3 Nb1 2.929576 1_555
Al4 Fe3 2.506586 1_555
Al4 Fe1 2.506599 1_565
Al4 Fe2 2.506599 1_556
Al4 Al5 2.705613 1_555
Al4 Al7 2.705613 1_555
Al4 Al6 2.705613 1_555
Al4 Nb4 2.766881 1_555
Al4 Nb1 2.766890 1_565
Al4 Nb3 2.766891 1_556
Al4 Nb6 2.929569 1_556
Al4 Nb8 2.929570 1_565
Al4 Nb11 2.929584 1_566
Al5 Fe3 2.506586 1_555
Al5 Fe0 2.506599 1_655
Al5 Fe2 2.506600 1_556
Al5 Al7 2.705613 1_555
Al5 Al6 2.705613 1_555
Al5 Nb2 2.766881 1_555
Al5 Nb1 2.766890 1_655
Al5 Nb5 2.766891 1_556
Al5 Nb6 2.929570 1_556
Al5 Nb10 2.929570 1_655
Al5 Nb9 2.929584 1_656
Al6 Fe3 2.506586 1_555
Al6 Fe1 2.506599 1_565
Al6 Fe0 2.506599 1_655
Al6 Al7 2.705613 1_555
Al6 Nb0 2.766881 1_555
Al6 Nb5 2.766890 1_565
Al6 Nb3 2.766891 1_655
Al6 Nb10 2.929569 1_655
Al6 Nb8 2.929570 1_565
Al6 Nb7 2.929584 1_665
Al7 Fe1 2.506590 1_565
Al7 Fe0 2.506591 1_655
Al7 Fe2 2.506591 1_556
Al7 Nb2 2.766897 1_565
Al7 Nb4 2.766897 1_655
Al7 Nb0 2.766898 1_556
Al7 Nb9 2.929576 1_656
Al7 Nb11 2.929576 1_566
Al7 Nb7 2.929576 1_665
Fe0 Nb7 2.938962 1_565
Fe0 Nb1 2.938962 1_555
Fe0 Nb4 2.938962 1_555
Fe0 Nb10 2.938962 1_555
Fe0 Nb9 2.938963 1_556
Fe0 Nb3 2.938963 1_555
Fe1 Nb7 2.938962 1_655
Fe1 Nb1 2.938962 1_555
Fe1 Nb2 2.938963 1_555
Fe1 Nb8 2.938963 1_555
Fe1 Nb11 2.938963 1_556
Fe1 Nb5 2.938963 1_555
Fe2 Nb11 2.938962 1_565
Fe2 Nb5 2.938962 1_555
Fe2 Nb0 2.938962 1_555
Fe2 Nb6 2.938962 1_555
Fe2 Nb9 2.938962 1_655
Fe2 Nb3 2.938962 1_555
Fe3 Nb8 2.938962 1_565
Fe3 Nb2 2.938962 1_555
Fe3 Nb10 2.938962 1_655
Fe3 Nb4 2.938962 1_555
Fe3 Nb6 2.938963 1_556
Fe3 Nb0 2.938963 1_555
N0 Nb6 2.200867 1_555
N0 Nb0 2.200867 1_545
N0 Nb5 2.200867 1_555
N0 Nb11 2.200867 1_555
N0 Nb8 2.200867 1_555
N0 Nb2 2.200867 1_554
N1 Nb3 2.200867 1_555
N1 Nb9 2.200867 1_555
N1 Nb6 2.200867 1_555
N1 Nb0 2.200867 1_455
N1 Nb10 2.200867 1_555
N1 Nb4 2.200867 1_554
N2 Nb10 2.200867 1_555
N2 Nb4 2.200867 1_545
N2 Nb8 2.200867 1_555
N2 Nb2 2.200867 1_455
N2 Nb1 2.200867 1_555
N2 Nb7 2.200867 1_555
N3 Nb9 2.200867 1_555
N3 Nb3 2.200867 1_545
N3 Nb11 2.200867 1_555
N3 Nb5 2.200867 1_455
N3 Nb7 2.200867 1_555
N3 Nb1 2.200867 1_554
