# generated using pymatgen
data_HfZr2MnFe8
_symmetry_space_group_name_H-M   'P 1'
_cell_length_a   8.54969309
_cell_length_b   8.54969335
_cell_length_c   8.54969409
_cell_angle_alpha   33.57590452
_cell_angle_beta   33.57590354
_cell_angle_gamma   33.57590400
_symmetry_Int_Tables_number   1
_chemical_formula_structural   HfZr2MnFe8
_chemical_formula_sum   'Hf1 Zr2 Mn1 Fe8'
_cell_volume   170.26400516
_cell_formula_units_Z   1
loop_
 _symmetry_equiv_pos_site_id
 _symmetry_equiv_pos_as_xyz
  1  'x, y, z'
loop_
 _atom_site_type_symbol
 _atom_site_label
 _atom_site_symmetry_multiplicity
 _atom_site_fract_x
 _atom_site_fract_y
 _atom_site_fract_z
 _atom_site_occupancy
  Hf  Hf0  1  0.62491767  0.62491767  0.62491767  1
  Zr  Zr0  1  0.00413370  0.00413370  0.00413370  1
  Zr  Zr1  1  0.49672705  0.49672705  0.49672705  1
  Mn  Mn0  1  0.12551808  0.12551808  0.12551808  1
  Fe  Fe0  1  0.56358460  0.06104360  0.56358460  1
  Fe  Fe1  1  0.06276851  0.56060225  0.06276851  1
  Fe  Fe2  1  0.06104360  0.56358460  0.56358460  1
  Fe  Fe3  1  0.56060225  0.06276851  0.06276851  1
  Fe  Fe4  1  0.81212567  0.81212567  0.81212567  1
  Fe  Fe5  1  0.31222675  0.31222675  0.31222675  1
  Fe  Fe6  1  0.56358460  0.56358460  0.06104360  1
  Fe  Fe7  1  0.06276851  0.06276851  0.56060225  1
loop_
_geom_bond_atom_site_label_1
_geom_bond_atom_site_label_2
_geom_bond_distance
_geom_bond_site_symmetry_2
Hf0 Zr0 3.059670 1_665
Hf0 Zr0 3.059671 1_566
Hf0 Zr0 3.059671 1_656
Hf0 Zr1 3.099721 1_555
Mn0 Zr0 2.935142 1_555
Mn0 Zr1 2.994904 1_554
Mn0 Zr1 2.994904 1_455
Mn0 Zr1 2.994904 1_545
Fe0 Fe4 2.452153 1_545
Fe0 Fe2 2.456862 1_645
Fe0 Fe6 2.456863 1_546
Fe0 Fe2 2.481962 1_555
Fe0 Fe6 2.481962 1_555
Fe0 Fe5 2.482685 1_555
Fe0 Zr1 2.824420 1_555
Fe0 Zr0 2.847130 1_556
Fe0 Zr0 2.847130 1_655
Fe0 Hf0 2.897496 1_545
Fe0 Mn0 2.898720 1_655
Fe0 Mn0 2.898720 1_556
Fe1 Fe3 2.458713 1_555
Fe1 Fe7 2.458713 1_555
Fe1 Fe5 2.468420 1_555
Fe1 Fe4 2.470427 1_454
Fe1 Fe3 2.480111 1_465
Fe1 Fe7 2.480111 1_564
Fe1 Mn0 2.870832 1_555
Fe1 Hf0 2.899867 1_554
Fe1 Hf0 2.899868 1_455
Fe1 Zr1 2.931335 1_455
Fe1 Zr1 2.931335 1_554
Fe1 Zr0 2.994295 1_565
Fe2 Fe4 2.452154 1_455
Fe2 Fe6 2.456863 1_456
Fe2 Fe6 2.481962 1_555
Fe2 Fe5 2.482685 1_555
Fe2 Zr1 2.824420 1_555
Fe2 Zr0 2.847130 1_556
Fe2 Zr0 2.847131 1_565
Fe2 Hf0 2.897496 1_455
Fe2 Mn0 2.898720 1_565
Fe2 Mn0 2.898720 1_556
Fe3 Fe7 2.458713 1_555
Fe3 Fe5 2.468420 1_555
Fe3 Fe4 2.470427 1_544
Fe3 Fe7 2.480111 1_654
Fe3 Mn0 2.870832 1_555
Fe3 Hf0 2.899867 1_554
Fe3 Hf0 2.899868 1_545
Fe3 Zr1 2.931335 1_545
Fe3 Zr1 2.931335 1_554
Fe3 Zr0 2.994295 1_655
Fe4 Fe6 2.452153 1_556
Fe4 Fe7 2.470427 1_665
Fe4 Zr1 2.884221 1_655
Fe4 Zr1 2.884221 1_565
Fe4 Zr1 2.884222 1_556
Fe4 Mn0 2.891913 1_566
Fe4 Mn0 2.891913 1_656
Fe4 Mn0 2.891913 1_665
Fe5 Fe7 2.468419 1_555
Fe5 Fe6 2.482685 1_555
Fe5 Hf0 2.894790 1_455
Fe5 Hf0 2.894790 1_545
Fe5 Hf0 2.894790 1_554
Fe5 Zr0 2.916017 1_655
Fe5 Zr0 2.916017 1_565
Fe5 Zr0 2.916018 1_556
Fe6 Zr1 2.824421 1_555
Fe6 Zr0 2.847130 1_565
Fe6 Zr0 2.847130 1_655
Fe6 Hf0 2.897496 1_554
Fe6 Mn0 2.898720 1_655
Fe6 Mn0 2.898720 1_565
Fe7 Mn0 2.870832 1_555
Fe7 Hf0 2.899867 1_545
Fe7 Hf0 2.899867 1_455
Fe7 Zr1 2.931335 1_455
Fe7 Zr1 2.931335 1_545
Fe7 Zr0 2.994295 1_556
