# generated using pymatgen
data_Nb4FeCu3Pt8
_symmetry_space_group_name_H-M   'P 1'
_cell_length_a   4.54628212
_cell_length_b   4.80514178
_cell_length_c   10.98231752
_cell_angle_alpha   90.00000000
_cell_angle_beta   90.00000000
_cell_angle_gamma   90.00000000
_symmetry_Int_Tables_number   1
_chemical_formula_structural   Nb4FeCu3Pt8
_chemical_formula_sum   'Nb4 Fe1 Cu3 Pt8'
_cell_volume   239.91454869
_cell_formula_units_Z   1
loop_
 _symmetry_equiv_pos_site_id
 _symmetry_equiv_pos_as_xyz
  1  'x, y, z'
loop_
 _atom_site_type_symbol
 _atom_site_label
 _atom_site_symmetry_multiplicity
 _atom_site_fract_x
 _atom_site_fract_y
 _atom_site_fract_z
 _atom_site_occupancy
  Nb  Nb0  1  0.50000000  0.65769721  0.25224224  1
  Nb  Nb1  1  0.50000000  0.65769721  0.74775776  1
  Nb  Nb2  1  0.00000000  0.34091894  0.00000000  1
  Nb  Nb3  1  0.00000000  0.34234975  0.50000000  1
  Fe  Fe0  1  0.50000000  0.67661566  0.50000000  1
  Cu  Cu0  1  0.00000000  0.32205298  0.24948682  1
  Cu  Cu1  1  0.00000000  0.32205298  0.75051318  1
  Cu  Cu2  1  0.50000000  0.67702589  0.00000000  1
  Pt  Pt0  1  0.50000000  0.17852929  0.37475783  1
  Pt  Pt1  1  0.50000000  0.17840445  0.87552479  1
  Pt  Pt2  1  0.50000000  0.17840445  0.12447521  1
  Pt  Pt3  1  0.50000000  0.17852929  0.62524217  1
  Pt  Pt4  1  0.00000000  0.82634762  0.37446113  1
  Pt  Pt5  1  0.00000000  0.81851382  0.87454593  1
  Pt  Pt6  1  0.00000000  0.81851382  0.12545407  1
  Pt  Pt7  1  0.00000000  0.82634762  0.62553887  1
loop_
_geom_bond_atom_site_label_1
_geom_bond_atom_site_label_2
_geom_bond_distance
_geom_bond_site_symmetry_2
Nb0 Pt0 2.666787 1_555
Nb0 Pt2 2.696857 1_555
Nb0 Pt4 2.761436 1_655
Nb0 Pt4 2.761436 1_555
Nb0 Pt6 2.775457 1_555
Nb0 Pt6 2.775457 1_655
Nb0 Pt0 2.841435 1_565
Nb0 Pt2 2.868671 1_565
Nb1 Pt3 2.666787 1_555
Nb1 Pt1 2.696857 1_555
Nb1 Pt7 2.761436 1_555
Nb1 Pt7 2.761436 1_655
Nb1 Pt5 2.775457 1_655
Nb1 Pt5 2.775457 1_555
Nb1 Pt3 2.841435 1_565
Nb1 Pt1 2.868671 1_565
Nb2 Pt6 2.676730 1_555
Nb2 Pt5 2.676730 1_554
Nb2 Pt2 2.765094 1_555
Nb2 Pt2 2.765094 1_455
Nb2 Pt1 2.765094 1_454
Nb2 Pt1 2.765094 1_554
Nb2 Pt6 2.863481 1_545
Nb2 Pt5 2.863481 1_544
Nb3 Pt7 2.703630 1_555
Nb3 Pt4 2.703630 1_555
Nb3 Pt3 2.771044 1_555
Nb3 Pt3 2.771044 1_455
Nb3 Pt0 2.771044 1_455
Nb3 Pt0 2.771044 1_555
Nb3 Pt7 2.837001 1_545
Nb3 Pt4 2.837001 1_545
Fe0 Nb1 2.722472 1_555
Fe0 Nb0 2.722472 1_555
Fe0 Pt7 2.754208 1_555
Fe0 Pt7 2.754208 1_655
Fe0 Pt4 2.754208 1_555
Fe0 Pt4 2.754208 1_655
Fe0 Pt3 2.760454 1_555
Fe0 Pt0 2.760454 1_555
Fe0 Pt3 2.776414 1_565
Fe0 Pt0 2.776414 1_565
Fe0 Nb3 2.783349 1_655
Fe0 Nb3 2.783349 1_555
Cu0 Nb2 2.741443 1_555
Cu0 Pt2 2.743815 1_555
Cu0 Pt2 2.743815 1_455
Cu0 Pt0 2.745091 1_555
Cu0 Pt0 2.745091 1_455
Cu0 Pt6 2.747074 1_555
Cu0 Pt4 2.749071 1_545
Cu0 Nb3 2.752943 1_555
Cu0 Pt6 2.776662 1_545
Cu0 Pt4 2.784908 1_555
Cu0 Nb0 2.787341 1_455
Cu0 Nb0 2.787341 1_555
Cu1 Nb2 2.741443 1_556
Cu1 Pt1 2.743815 1_455
Cu1 Pt1 2.743815 1_555
Cu1 Pt3 2.745091 1_455
Cu1 Pt3 2.745091 1_555
Cu1 Pt5 2.747074 1_555
Cu1 Pt7 2.749071 1_545
Cu1 Nb3 2.752943 1_555
Cu1 Pt5 2.776662 1_545
Cu1 Pt7 2.784908 1_555
Cu1 Nb1 2.787341 1_455
Cu1 Nb1 2.787341 1_555
Cu2 Pt6 2.743658 1_555
Cu2 Pt6 2.743658 1_655
Cu2 Pt5 2.743658 1_654
Cu2 Pt5 2.743658 1_554
Cu2 Pt2 2.758500 1_555
Cu2 Pt1 2.758500 1_554
Cu2 Pt2 2.770015 1_565
Cu2 Pt1 2.770015 1_564
Cu2 Nb0 2.771761 1_555
Cu2 Nb1 2.771761 1_554
Cu2 Nb2 2.788464 1_555
Cu2 Nb2 2.788464 1_655
Pt0 Pt2 2.748683 1_555
Pt0 Pt3 2.750898 1_555
Pt0 Pt4 2.833902 1_645
Pt0 Pt4 2.833902 1_545
Pt1 Pt2 2.734053 1_556
Pt1 Pt3 2.748683 1_555
Pt1 Pt5 2.856195 1_545
Pt1 Pt5 2.856195 1_645
Pt2 Pt6 2.856195 1_645
Pt2 Pt6 2.856195 1_545
Pt3 Pt7 2.833902 1_545
Pt3 Pt7 2.833902 1_645
Pt4 Pt6 2.734934 1_555
Pt4 Pt7 2.757415 1_555
Pt5 Pt7 2.734934 1_555
Pt5 Pt6 2.755553 1_556
