# generated using pymatgen
data_Rb2Fe3CoS6
_symmetry_space_group_name_H-M   'P 1'
_cell_length_a   7.33441473
_cell_length_b   7.33441425
_cell_length_c   5.48411246
_cell_angle_alpha   90.23041942
_cell_angle_beta   89.76958233
_cell_angle_gamma   102.20381096
_symmetry_Int_Tables_number   1
_chemical_formula_structural   Rb2Fe3CoS6
_chemical_formula_sum   'Rb2 Fe3 Co1 S6'
_cell_volume   288.33980746
_cell_formula_units_Z   1
loop_
 _symmetry_equiv_pos_site_id
 _symmetry_equiv_pos_as_xyz
  1  'x, y, z'
loop_
 _atom_site_type_symbol
 _atom_site_label
 _atom_site_symmetry_multiplicity
 _atom_site_fract_x
 _atom_site_fract_y
 _atom_site_fract_z
 _atom_site_occupancy
  Rb  Rb0  1  0.66996518  0.32662227  0.24910567  1
  Rb  Rb1  1  0.32662227  0.66996518  0.75089433  1
  Fe  Fe0  1  0.85608147  0.85608147  1.00000000  1
  Fe  Fe1  1  0.85527754  0.85527754  0.50000000  1
  Fe  Fe2  1  0.14663676  0.14663676  0.50000000  1
  Co  Co0  1  0.14393052  0.14393052  0.00000000  1
  S  S0  1  0.83438490  0.61684557  0.74992566  1
  S  S1  1  0.16598229  0.38309130  0.24664953  1
  S  S2  1  0.61684557  0.83438490  0.25007434  1
  S  S3  1  0.38309130  0.16598229  0.75335047  1
  S  S4  1  0.88804647  0.11313674  0.75197781  1
  S  S5  1  0.11313674  0.88804647  0.24802219  1
loop_
_geom_bond_atom_site_label_1
_geom_bond_atom_site_label_2
_geom_bond_distance
_geom_bond_site_symmetry_2
Rb0 S3 3.489859 1_554
Rb0 S3 3.520456 1_555
Rb0 S0 3.523430 1_554
Rb0 S0 3.524653 1_555
Rb0 S2 3.548430 1_545
Rb0 S1 3.573424 1_655
Rb0 S4 3.665007 1_554
Rb0 S4 3.707378 1_555
Rb0 S1 3.805644 1_555
Rb0 S2 3.825480 1_555
Rb1 S1 3.489859 1_556
Rb1 S1 3.520456 1_555
Rb1 S2 3.523430 1_556
Rb1 S2 3.524653 1_555
Rb1 S0 3.548430 1_455
Rb1 S3 3.573424 1_565
Rb1 S5 3.665007 1_556
Rb1 S5 3.707378 1_555
Rb1 S3 3.805644 1_555
Rb1 S0 3.825480 1_555
Fe0 S0 2.202118 1_555
Fe0 S2 2.202118 1_556
Fe0 S4 2.300172 1_565
Fe0 S5 2.300172 1_656
Fe1 S0 2.205569 1_555
Fe1 S2 2.205569 1_555
Fe1 S4 2.309466 1_565
Fe1 S5 2.309466 1_655
Fe2 S1 2.207255 1_555
Fe2 S3 2.207255 1_555
Fe2 S5 2.313375 1_545
Fe2 S4 2.313375 1_455
Co0 S1 2.189850 1_555
Co0 S3 2.189850 1_554
Co0 S5 2.293946 1_545
Co0 S4 2.293946 1_454
