# generated using pymatgen
data_Ca4P4PdPt3
_symmetry_space_group_name_H-M   'P 1'
_cell_length_a   4.35049128
_cell_length_b   6.55979587
_cell_length_c   8.33632747
_cell_angle_alpha   90.20934711
_cell_angle_beta   90.00000000
_cell_angle_gamma   90.00000000
_symmetry_Int_Tables_number   1
_chemical_formula_structural   Ca4P4PdPt3
_chemical_formula_sum   'Ca4 P4 Pd1 Pt3'
_cell_volume   237.90331597
_cell_formula_units_Z   1
loop_
 _symmetry_equiv_pos_site_id
 _symmetry_equiv_pos_as_xyz
  1  'x, y, z'
loop_
 _atom_site_type_symbol
 _atom_site_label
 _atom_site_symmetry_multiplicity
 _atom_site_fract_x
 _atom_site_fract_y
 _atom_site_fract_z
 _atom_site_occupancy
  Ca  Ca0  1  0.00000000  0.86400961  0.87502524  1
  Ca  Ca1  1  0.00000000  0.92918907  0.41131354  1
  Ca  Ca2  1  0.00000000  0.43286649  0.58606949  1
  Ca  Ca3  1  0.00000000  0.36535113  0.12572994  1
  P  P0  1  0.50000000  0.17045351  0.92719986  1
  P  P1  1  0.50000000  0.74528529  0.61864855  1
  P  P2  1  0.50000000  0.67043219  0.07333567  1
  P  P3  1  0.50000000  0.24799972  0.38248675  1
  Pd  Pd0  1  0.50000000  0.11544939  0.65682130  1
  Pt  Pt0  1  0.50000000  0.49618807  0.83384614  1
  Pt  Pt1  1  0.50000000  0.99849096  0.16670961  1
  Pt  Pt2  1  0.50000000  0.61588257  0.34281392  1
loop_
_geom_bond_atom_site_label_1
_geom_bond_atom_site_label_2
_geom_bond_distance
_geom_bond_site_symmetry_2
Ca0 P0 2.992561 1_565
Ca0 P0 2.992561 1_465
Ca0 P2 3.015378 1_456
Ca0 P2 3.015378 1_556
Ca0 P1 3.145452 1_555
Ca0 P1 3.145452 1_455
Ca0 Pt0 3.265770 1_455
Ca0 Pt0 3.265770 1_555
Ca0 Pd0 3.283740 1_465
Ca0 Pd0 3.283740 1_565
Ca0 Pt1 3.377396 1_456
Ca0 Pt1 3.377396 1_556
Ca1 Pt1 3.017127 1_455
Ca1 Pt1 3.017127 1_555
Ca1 P3 3.027670 1_565
Ca1 P3 3.027670 1_465
Ca1 P1 3.031447 1_455
Ca1 P1 3.031447 1_555
Ca1 Pt2 3.045186 1_455
Ca1 Pt2 3.045186 1_555
Ca1 Pd0 3.224127 1_565
Ca1 Pd0 3.224127 1_465
Ca2 P1 3.000240 1_555
Ca2 P1 3.000240 1_455
Ca2 P3 3.011233 1_455
Ca2 P3 3.011233 1_555
Ca2 Pt0 3.027284 1_455
Ca2 Pt0 3.027284 1_555
Ca2 Pd0 3.069864 1_555
Ca2 Pd0 3.069864 1_455
Ca2 Pt2 3.209830 1_455
Ca2 Pt2 3.209830 1_555
Ca3 P2 2.988969 1_555
Ca3 P2 2.988969 1_455
Ca3 P0 3.014934 1_454
Ca3 P0 3.014934 1_554
Ca3 P3 3.149235 1_455
Ca3 P3 3.149235 1_555
Ca3 Pt1 3.262787 1_445
Ca3 Pt1 3.262787 1_545
Ca3 Pt2 3.268913 1_555
Ca3 Pt2 3.268913 1_455
Ca3 Pt0 3.377014 1_554
Ca3 Pt0 3.377014 1_454
P0 Pt0 2.276730 1_555
P0 Pd0 2.281359 1_555
P0 Pt1 2.296839 1_546
P1 Pt0 2.430998 1_555
P1 Pd0 2.447811 1_565
P1 Pt2 2.448214 1_555
P2 Pt2 2.276071 1_555
P2 Pt1 2.285773 1_555
P2 Pt0 2.296879 1_554
P3 Pt1 2.427550 1_545
P3 Pt2 2.436990 1_555
P3 Pd0 2.449627 1_555
Pd0 Pt0 2.896327 1_555
