# generated using pymatgen
data_Ba2AlBiSe5
_symmetry_space_group_name_H-M   'P 1'
_cell_length_a   9.45766745
_cell_length_b   9.23018508
_cell_length_c   12.83786993
_cell_angle_alpha   90.00000000
_cell_angle_beta   90.00000000
_cell_angle_gamma   90.00000000
_symmetry_Int_Tables_number   1
_chemical_formula_structural   Ba2AlBiSe5
_chemical_formula_sum   'Ba8 Al4 Bi4 Se20'
_cell_volume   1120.69496156
_cell_formula_units_Z   4
loop_
 _symmetry_equiv_pos_site_id
 _symmetry_equiv_pos_as_xyz
  1  'x, y, z'
loop_
 _atom_site_type_symbol
 _atom_site_label
 _atom_site_symmetry_multiplicity
 _atom_site_fract_x
 _atom_site_fract_y
 _atom_site_fract_z
 _atom_site_occupancy
  Ba  Ba0  1  0.61891339  0.50727697  0.32458740  1
  Ba  Ba1  1  0.88108661  0.99272303  0.82458740  1
  Ba  Ba2  1  0.38108661  0.00727697  0.67541260  1
  Ba  Ba3  1  0.11891339  0.49272303  0.17541260  1
  Ba  Ba4  1  0.38108661  0.49272303  0.67541260  1
  Ba  Ba5  1  0.11891339  0.00727697  0.17541260  1
  Ba  Ba6  1  0.61891339  0.99272303  0.32458740  1
  Ba  Ba7  1  0.88108661  0.50727697  0.82458740  1
  Al  Al0  1  0.82662087  0.75000000  0.09772521  1
  Al  Al1  1  0.67337913  0.75000000  0.59772521  1
  Al  Al2  1  0.17337913  0.25000000  0.90227479  1
  Al  Al3  1  0.32662087  0.25000000  0.40227479  1
  Bi  Bi0  1  0.47336258  0.75000000  0.02289578  1
  Bi  Bi1  1  0.02663742  0.75000000  0.52289578  1
  Bi  Bi2  1  0.52663742  0.25000000  0.97710422  1
  Bi  Bi3  1  0.97336258  0.25000000  0.47710422  1
  Se  Se0  1  0.68020430  0.54318167  0.05899499  1
  Se  Se1  1  0.81979570  0.95681833  0.55899499  1
  Se  Se2  1  0.31979570  0.04318167  0.94100501  1
  Se  Se3  1  0.18020430  0.45681833  0.44100501  1
  Se  Se4  1  0.31979570  0.45681833  0.94100501  1
  Se  Se5  1  0.18020430  0.04318167  0.44100501  1
  Se  Se6  1  0.68020430  0.95681833  0.05899499  1
  Se  Se7  1  0.81979570  0.54318167  0.55899499  1
  Se  Se8  1  0.37477527  0.75000000  0.21799623  1
  Se  Se9  1  0.12522473  0.75000000  0.71799623  1
  Se  Se10  1  0.62522473  0.25000000  0.78200377  1
  Se  Se11  1  0.87477527  0.25000000  0.28200377  1
  Se  Se12  1  0.88223649  0.75000000  0.27677625  1
  Se  Se13  1  0.61776351  0.75000000  0.77677625  1
  Se  Se14  1  0.11776351  0.25000000  0.72322375  1
  Se  Se15  1  0.38223649  0.25000000  0.22322375  1
  Se  Se16  1  0.47003101  0.75000000  0.49537181  1
  Se  Se17  1  0.02996899  0.75000000  0.99537181  1
  Se  Se18  1  0.52996899  0.25000000  0.50462819  1
  Se  Se19  1  0.97003101  0.25000000  0.00462819  1
loop_
_geom_bond_atom_site_label_1
_geom_bond_atom_site_label_2
_geom_bond_distance
_geom_bond_site_symmetry_2
Ba0 Se12 3.405619 1_555
Ba0 Se18 3.418946 1_555
Ba0 Se11 3.434215 1_555
Ba0 Se16 3.436434 1_555
Ba0 Se0 3.474406 1_555
Ba0 Se8 3.496169 1_555
Ba0 Se15 3.513277 1_555
Ba0 Se7 3.574244 1_555
Ba1 Se13 3.405619 1_555
Ba1 Se19 3.418946 1_566
Ba1 Se10 3.434215 1_565
Ba1 Se17 3.436434 1_655
Ba1 Se1 3.474406 1_555
Ba1 Se9 3.496169 1_655
Ba1 Se14 3.513277 1_665
Ba1 Se6 3.574244 1_556
Ba2 Se14 3.405619 1_555
Ba2 Se16 3.418946 1_545
Ba2 Se9 3.434215 1_545
Ba2 Se18 3.436434 1_555
Ba2 Se2 3.474406 1_555
Ba2 Se10 3.496169 1_555
Ba2 Se13 3.513277 1_545
Ba2 Se5 3.574244 1_555
Ba3 Se15 3.405619 1_555
Ba3 Se17 3.418946 1_554
Ba3 Se8 3.434215 1_555
Ba3 Se19 3.436434 1_455
Ba3 Se3 3.474406 1_555
Ba3 Se11 3.496169 1_455
Ba3 Se12 3.513277 1_455
Ba3 Se4 3.574244 1_554
Ba4 Se14 3.405619 1_555
Ba4 Se16 3.418946 1_555
Ba4 Se9 3.434215 1_555
Ba4 Se18 3.436434 1_555
Ba4 Se4 3.474406 1_555
Ba4 Se10 3.496169 1_555
Ba4 Se13 3.513277 1_555
Ba4 Se3 3.574244 1_555
Ba5 Se15 3.405619 1_555
Ba5 Se17 3.418946 1_544
Ba5 Se8 3.434215 1_545
Ba5 Se19 3.436434 1_455
Ba5 Se5 3.474406 1_555
Ba5 Se11 3.496169 1_455
Ba5 Se12 3.513277 1_445
Ba5 Se2 3.574244 1_554
Ba6 Se12 3.405619 1_555
Ba6 Se18 3.418946 1_565
Ba6 Se11 3.434215 1_565
Ba6 Se16 3.436434 1_555
Ba6 Se6 3.474406 1_555
Ba6 Se8 3.496169 1_555
Ba6 Se15 3.513277 1_565
Ba6 Se1 3.574244 1_555
Ba7 Se13 3.405619 1_555
Ba7 Se19 3.418946 1_556
Ba7 Se10 3.434215 1_555
Ba7 Se17 3.436434 1_655
Ba7 Se7 3.474406 1_555
Ba7 Se9 3.496169 1_655
Ba7 Se14 3.513277 1_655
Ba7 Se0 3.574244 1_556
Al0 Se17 2.329225 1_654
Al0 Se12 2.358047 1_555
Al0 Se0 2.410177 1_555
Al0 Se6 2.410177 1_555
Al1 Se16 2.329225 1_555
Al1 Se13 2.358047 1_555
Al1 Se7 2.410177 1_555
Al1 Se1 2.410177 1_555
Al2 Se19 2.329225 1_456
Al2 Se14 2.358047 1_555
Al2 Se4 2.410177 1_555
Al2 Se2 2.410177 1_555
Al3 Se18 2.329225 1_555
Al3 Se15 2.358047 1_555
Al3 Se3 2.410177 1_555
Al3 Se5 2.410177 1_555
Bi0 Se8 2.672597 1_555
Bi0 Se0 2.772331 1_555
Bi0 Se6 2.772331 1_555
Bi0 Se2 3.246190 1_564
Bi0 Se4 3.246190 1_554
Bi1 Se9 2.672597 1_555
Bi1 Se7 2.772331 1_455
Bi1 Se1 2.772331 1_455
Bi1 Se5 3.246190 1_565
Bi1 Se3 3.246190 1_555
Bi2 Se10 2.672597 1_555
Bi2 Se4 2.772331 1_555
Bi2 Se2 2.772331 1_555
Bi2 Se6 3.246190 1_546
Bi2 Se0 3.246190 1_556
Bi3 Se11 2.672597 1_555
Bi3 Se3 2.772331 1_655
Bi3 Se5 2.772331 1_655
Bi3 Se1 3.246190 1_545
Bi3 Se7 3.246190 1_555
