# generated using pymatgen
data_RbZrCuS3
_symmetry_space_group_name_H-M   'P 1'
_cell_length_a   7.61585851
_cell_length_b   7.61585818
_cell_length_c   9.82754062
_cell_angle_alpha   90.00000000
_cell_angle_beta   90.00000000
_cell_angle_gamma   151.37190724
_symmetry_Int_Tables_number   1
_chemical_formula_structural   RbZrCuS3
_chemical_formula_sum   'Rb2 Zr2 Cu2 S6'
_cell_volume   273.10454891
_cell_formula_units_Z   2
loop_
 _symmetry_equiv_pos_site_id
 _symmetry_equiv_pos_as_xyz
  1  'x, y, z'
loop_
 _atom_site_type_symbol
 _atom_site_label
 _atom_site_symmetry_multiplicity
 _atom_site_fract_x
 _atom_site_fract_y
 _atom_site_fract_z
 _atom_site_occupancy
  Rb  Rb0  1  0.74402183  0.25597817  0.25000000  1
  Rb  Rb1  1  0.25597817  0.74402183  0.75000000  1
  Zr  Zr0  1  0.00000000  0.00000000  0.50000000  1
  Zr  Zr1  1  0.00000000  0.00000000  0.00000000  1
  Cu  Cu0  1  0.53279593  0.46720407  0.75000000  1
  Cu  Cu1  1  0.46720407  0.53279593  0.25000000  1
  S  S0  1  0.61545815  0.38454185  0.55391653  1
  S  S1  1  0.38454185  0.61545815  0.44608347  1
  S  S2  1  0.05938814  0.94061186  0.25000000  1
  S  S3  1  0.94061186  0.05938814  0.75000000  1
  S  S4  1  0.61545815  0.38454185  0.94608347  1
  S  S5  1  0.38454185  0.61545815  0.05391653  1
loop_
_geom_bond_atom_site_label_1
_geom_bond_atom_site_label_2
_geom_bond_distance
_geom_bond_site_symmetry_2
Rb0 S2 3.312235 1_655
Rb0 S2 3.312236 1_545
Rb0 S1 3.399985 1_545
Rb0 S5 3.399985 1_545
Rb0 S1 3.399986 1_655
Rb0 S5 3.399986 1_655
Rb0 S0 3.538504 1_555
Rb0 S4 3.538504 1_554
Rb1 S3 3.312235 1_455
Rb1 S3 3.312236 1_565
Rb1 S4 3.399985 1_565
Rb1 S0 3.399985 1_565
Rb1 S4 3.399986 1_455
Rb1 S0 3.399986 1_455
Rb1 S5 3.538504 1_556
Rb1 S1 3.538504 1_555
Cu0 S4 2.280745 1_555
Cu0 S0 2.280745 1_555
Cu0 S3 2.323021 1_565
Cu0 S3 2.323021 1_455
Cu1 S1 2.280745 1_555
Cu1 S5 2.280745 1_555
Cu1 S2 2.323021 1_545
Cu1 S2 2.323021 1_655
S0 Zr0 2.594197 1_665
S0 Zr0 2.594197 1_555
S1 Zr0 2.594197 1_555
S1 Zr0 2.594197 1_665
S2 Zr1 2.608551 1_565
S2 Zr0 2.608551 1_565
S3 Zr1 2.608551 1_656
S3 Zr0 2.608551 1_655
S4 Zr1 2.594197 1_666
S4 Zr1 2.594197 1_556
S5 Zr1 2.594197 1_555
S5 Zr1 2.594197 1_665
