# generated using pymatgen
data_Ca2TiV(SiO5)2
_symmetry_space_group_name_H-M   'P 1'
_cell_length_a   5.43301154
_cell_length_b   5.45885838
_cell_length_c   6.98503109
_cell_angle_alpha   104.03037684
_cell_angle_beta   103.89421233
_cell_angle_gamma   106.02657894
_symmetry_Int_Tables_number   1
_chemical_formula_structural   Ca2TiV(SiO5)2
_chemical_formula_sum   'Ca2 Ti1 V1 Si2 O10'
_cell_volume   182.39643452
_cell_formula_units_Z   1
loop_
 _symmetry_equiv_pos_site_id
 _symmetry_equiv_pos_as_xyz
  1  'x, y, z'
loop_
 _atom_site_type_symbol
 _atom_site_label
 _atom_site_symmetry_multiplicity
 _atom_site_fract_x
 _atom_site_fract_y
 _atom_site_fract_z
 _atom_site_occupancy
  Ca  Ca0  1  0.16823204  0.83120683  0.73968132  1
  Ca  Ca1  1  0.83176796  0.16879317  0.26031868  1
  Ti  Ti0  1  0.50000000  0.50000000  0.00000000  1
  V  V0  1  0.50000000  0.50000000  0.50000000  1
  Si  Si0  1  0.18200903  0.81768817  0.25215753  1
  Si  Si1  1  0.81799097  0.18231183  0.74784247  1
  O  O0  1  0.25083752  0.11588654  0.41557816  1
  O  O1  1  0.12260299  0.25122554  0.90749998  1
  O  O2  1  0.74916248  0.88411346  0.58442184  1
  O  O3  1  0.87739701  0.74877446  0.09250002  1
  O  O4  1  0.56325494  0.42859085  0.25498096  1
  O  O5  1  0.43674506  0.57140915  0.74501904  1
  O  O6  1  0.61266175  0.18884262  0.88567981  1
  O  O7  1  0.18152619  0.60409454  0.38076743  1
  O  O8  1  0.38733825  0.81115738  0.11432019  1
  O  O9  1  0.81847381  0.39590546  0.61923257  1
loop_
_geom_bond_atom_site_label_1
_geom_bond_atom_site_label_2
_geom_bond_distance
_geom_bond_site_symmetry_2
Ca0 O5 2.298430 1_555
Ca0 O9 2.394757 1_455
Ca0 O2 2.402603 1_455
Ca0 O1 2.417191 1_565
Ca0 O6 2.435327 1_565
Ca0 O7 2.541020 1_555
Ca0 O8 2.644194 1_556
Ca1 O4 2.298430 1_555
Ca1 O7 2.394757 1_655
Ca1 O0 2.402603 1_655
Ca1 O3 2.417191 1_545
Ca1 O8 2.435327 1_545
Ca1 O9 2.541020 1_555
Ca1 O6 2.644194 1_554
O0 Si0 1.628059 1_545
O0 V0 2.006661 1_555
O1 Si1 1.640287 1_455
O1 Ti0 1.966379 1_556
O2 Si1 1.628059 1_565
O2 V0 2.006661 1_555
O3 Si0 1.640287 1_655
O3 Ti0 1.966379 1_555
O4 V0 1.797814 1_555
O4 Ti0 1.886490 1_555
O5 V0 1.797814 1_555
O5 Ti0 1.886490 1_556
O6 Si1 1.641298 1_555
O6 Ti0 2.012109 1_556
O7 Si0 1.635192 1_555
O7 V0 2.022535 1_555
O8 Si0 1.641298 1_555
O8 Ti0 2.012109 1_555
O9 Si1 1.635192 1_555
O9 V0 2.022535 1_555
