# generated using pymatgen
data_Sc7BBr12
_symmetry_space_group_name_H-M   'P 1'
_cell_length_a   8.57722352
_cell_length_b   8.57722294
_cell_length_c   8.57722353
_cell_angle_alpha   107.54277818
_cell_angle_beta   107.54278236
_cell_angle_gamma   107.54278580
_symmetry_Int_Tables_number   1
_chemical_formula_structural   Sc7BBr12
_chemical_formula_sum   'Sc7 B1 Br12'
_cell_volume   517.53773300
_cell_formula_units_Z   1
loop_
 _symmetry_equiv_pos_site_id
 _symmetry_equiv_pos_as_xyz
  1  'x, y, z'
loop_
 _atom_site_type_symbol
 _atom_site_label
 _atom_site_symmetry_multiplicity
 _atom_site_fract_x
 _atom_site_fract_y
 _atom_site_fract_z
 _atom_site_occupancy
  Sc  Sc0  1  0.48476541  0.48476541  0.48476541  1
  Sc  Sc1  1  0.90528282  0.97497150  0.70432294  1
  Sc  Sc2  1  0.97497150  0.70432294  0.90528282  1
  Sc  Sc3  1  0.70432294  0.90528282  0.97497150  1
  Sc  Sc4  1  0.03792877  0.30342174  0.10633840  1
  Sc  Sc5  1  0.30342174  0.10633840  0.03792877  1
  Sc  Sc6  1  0.10633840  0.03792877  0.30342174  1
  B  B0  1  0.00083389  0.00083389  0.00083389  1
  Br  Br0  1  0.22707760  0.07732790  0.69024069  1
  Br  Br1  1  0.07732790  0.69024069  0.22707760  1
  Br  Br2  1  0.69024069  0.22707760  0.07732790  1
  Br  Br3  1  0.54086275  0.84184423  0.61592227  1
  Br  Br4  1  0.84184423  0.61592227  0.54086275  1
  Br  Br5  1  0.61592227  0.54086275  0.84184423  1
  Br  Br6  1  0.92594006  0.31551109  0.78086012  1
  Br  Br7  1  0.31551109  0.78086012  0.92594006  1
  Br  Br8  1  0.78086012  0.92594006  0.31551109  1
  Br  Br9  1  0.39000393  0.46943198  0.15131192  1
  Br  Br10  1  0.46943198  0.15131192  0.39000393  1
  Br  Br11  1  0.15131192  0.39000393  0.46943198  1
loop_
_geom_bond_atom_site_label_1
_geom_bond_atom_site_label_2
_geom_bond_distance
_geom_bond_site_symmetry_2
B0 Sc2 2.341528 1_444
B0 Sc3 2.341528 1_444
B0 Sc1 2.341528 1_444
B0 Sc4 2.359838 1_555
B0 Sc5 2.359838 1_555
B0 Sc6 2.359838 1_555
Br0 Sc1 2.684708 1_445
Br0 Sc5 2.767928 1_556
Br0 Sc6 3.039159 1_555
Br1 Sc2 2.684708 1_454
Br1 Sc6 2.767928 1_565
Br1 Sc4 3.039159 1_555
Br2 Sc3 2.684708 1_544
Br2 Sc4 2.767928 1_655
Br2 Sc5 3.039159 1_555
Br3 Sc1 2.747104 1_555
Br3 Sc0 2.754218 1_555
Br3 Sc3 2.770020 1_555
Br4 Sc2 2.747104 1_555
Br4 Sc0 2.754219 1_555
Br4 Sc1 2.770020 1_555
Br5 Sc3 2.747104 1_555
Br5 Sc0 2.754219 1_555
Br5 Sc2 2.770020 1_555
Br6 Sc4 2.710167 1_656
Br6 Sc1 2.730546 1_545
Br6 Sc2 3.029183 1_555
Br7 Sc5 2.710167 1_566
Br7 Sc2 2.730546 1_455
Br7 Sc3 3.029184 1_555
Br8 Sc6 2.710167 1_665
Br8 Sc3 2.730546 1_554
Br8 Sc1 3.029184 1_555
Br9 Sc0 2.676851 1_555
Br9 Sc5 2.746072 1_555
Br9 Sc4 2.769503 1_555
Br10 Sc0 2.676851 1_555
Br10 Sc6 2.746072 1_555
Br10 Sc5 2.769503 1_555
Br11 Sc0 2.676851 1_555
Br11 Sc4 2.746073 1_555
Br11 Sc6 2.769503 1_555
