# generated using pymatgen
data_RbP4IrO12
_symmetry_space_group_name_H-M   'P 1'
_cell_length_a   13.39637205
_cell_length_b   5.12744132
_cell_length_c   7.40050170
_cell_angle_alpha   79.84235163
_cell_angle_beta   90.00000000
_cell_angle_gamma   90.00000000
_symmetry_Int_Tables_number   1
_chemical_formula_structural   RbP4IrO12
_chemical_formula_sum   'Rb2 P8 Ir2 O24'
_cell_volume   500.36638167
_cell_formula_units_Z   2
loop_
 _symmetry_equiv_pos_site_id
 _symmetry_equiv_pos_as_xyz
  1  'x, y, z'
loop_
 _atom_site_type_symbol
 _atom_site_label
 _atom_site_symmetry_multiplicity
 _atom_site_fract_x
 _atom_site_fract_y
 _atom_site_fract_z
 _atom_site_occupancy
  Rb  Rb0  1  0.01575373  0.43149349  0.83370078  1
  Rb  Rb1  1  0.51575373  0.56850651  0.16629922  1
  P  P0  1  0.87074885  0.01730710  0.45168556  1
  P  P1  1  0.82118335  0.78125543  0.13488323  1
  P  P2  1  0.37074885  0.98269290  0.54831444  1
  P  P3  1  0.17816089  0.87985286  0.09492877  1
  P  P4  1  0.09635868  0.03148846  0.43588824  1
  P  P5  1  0.59635868  0.96851154  0.56411176  1
  P  P6  1  0.67816089  0.12014714  0.90507123  1
  P  P7  1  0.32118335  0.21874457  0.86511677  1
  Ir  Ir0  1  0.23338524  0.50730277  0.48684549  1
  Ir  Ir1  1  0.73338524  0.49269723  0.51315451  1
  O  O0  1  0.15666116  0.82013070  0.55122790  1
  O  O1  1  0.10091608  0.30207346  0.48608319  1
  O  O2  1  0.61841038  0.94951884  0.77393251  1
  O  O3  1  0.98477866  0.93360430  0.46339852  1
  O  O4  1  0.86506343  0.28635590  0.50424066  1
  O  O5  1  0.84271846  0.02645083  0.24524987  1
  O  O6  1  0.11841038  0.05048116  0.22606749  1
  O  O7  1  0.61732640  0.12249150  0.06837550  1
  O  O8  1  0.11732640  0.87750850  0.93162450  1
  O  O9  1  0.23656036  0.37806217  0.76505933  1
  O  O10  1  0.36506343  0.71364410  0.49575934  1
  O  O11  1  0.60091608  0.69792654  0.51391681  1
  O  O12  1  0.65666116  0.17986930  0.44877210  1
  O  O13  1  0.48477866  0.06639570  0.53660148  1
  O  O14  1  0.27643878  0.05878091  0.05008787  1
  O  O15  1  0.91496781  0.65484648  0.09912277  1
  O  O16  1  0.71381116  0.37526135  0.79154739  1
  O  O17  1  0.77643878  0.94121909  0.94991213  1
  O  O18  1  0.41496781  0.34515352  0.90087723  1
  O  O19  1  0.81651758  0.80090769  0.57638915  1
  O  O20  1  0.31651758  0.19909231  0.42361085  1
  O  O21  1  0.34271846  0.97354917  0.75475013  1
  O  O22  1  0.73656036  0.62193783  0.23494067  1
  O  O23  1  0.21381116  0.62473865  0.20845261  1
loop_
_geom_bond_atom_site_label_1
_geom_bond_atom_site_label_2
_geom_bond_distance
_geom_bond_site_symmetry_2
Ir0 O0 2.031216 1_555
Ir0 O9 2.049113 1_555
Ir0 O20 2.053668 1_555
Ir0 O23 2.058735 1_555
Ir0 O1 2.063660 1_555
Ir0 O10 2.063994 1_555
Ir1 O12 2.031216 1_555
Ir1 O22 2.049113 1_555
Ir1 O19 2.053668 1_555
Ir1 O16 2.058735 1_555
Ir1 O11 2.063660 1_555
Ir1 O4 2.063994 1_555
O0 P4 1.493106 1_565
O0 Rb0 3.230292 1_555
O1 P4 1.499467 1_555
O1 Rb0 2.993668 1_555
O2 P5 1.566697 1_555
O2 P6 1.627103 1_565
O2 Rb1 3.484042 1_556
O3 P4 1.578492 1_665
O3 P0 1.584963 1_565
O3 Rb0 3.438293 1_655
O4 P0 1.499809 1_555
O4 Rb0 3.348676 1_655
O5 P0 1.565851 1_555
O5 P1 1.641080 1_545
O6 P4 1.566697 1_555
O6 P3 1.627103 1_545
O6 Rb0 3.484042 1_554
O7 P6 1.459446 1_554
O7 Rb1 2.862031 1_555
O7 Rb1 3.117566 1_545
O8 P3 1.459446 1_556
O8 Rb0 2.862031 1_555
O8 Rb0 3.117566 1_565
O9 P7 1.512417 1_555
O9 Rb0 3.021920 1_555
O10 P2 1.499809 1_555
O10 Rb1 3.348676 1_555
O11 P5 1.499467 1_555
O11 Rb1 2.993668 1_555
O12 P5 1.493106 1_545
O12 Rb1 3.230292 1_555
O13 P5 1.578492 1_545
O13 P2 1.584963 1_545
O13 Rb1 3.438293 1_555
O14 P7 1.584250 1_554
O14 P3 1.605549 1_545
O15 P1 1.459148 1_555
O15 Rb0 2.790383 1_654
O16 P6 1.502455 1_555
O17 P1 1.584250 1_556
O17 P6 1.605549 1_565
O18 P7 1.459148 1_555
O18 Rb1 2.790383 1_556
O19 P0 1.499824 1_565
O20 P2 1.499824 1_545
O21 P2 1.565851 1_555
O21 P7 1.641080 1_565
O22 P1 1.512417 1_555
O22 Rb1 3.021920 1_555
O23 P3 1.502455 1_555
