# generated using pymatgen
data_Zr6Ga12Mo4Os7
_symmetry_space_group_name_H-M   'P 1'
_cell_length_a   8.73943861
_cell_length_b   8.73943924
_cell_length_c   8.73943906
_cell_angle_alpha   59.99999694
_cell_angle_beta   59.99999459
_cell_angle_gamma   60.00000089
_symmetry_Int_Tables_number   1
_chemical_formula_structural   Zr6Ga12Mo4Os7
_chemical_formula_sum   'Zr6 Ga12 Mo4 Os7'
_cell_volume   471.99308852
_cell_formula_units_Z   1
loop_
 _symmetry_equiv_pos_site_id
 _symmetry_equiv_pos_as_xyz
  1  'x, y, z'
loop_
 _atom_site_type_symbol
 _atom_site_label
 _atom_site_symmetry_multiplicity
 _atom_site_fract_x
 _atom_site_fract_y
 _atom_site_fract_z
 _atom_site_occupancy
  Zr  Zr0  1  0.69535607  0.69535607  0.30464393  1
  Zr  Zr1  1  0.30464393  0.69535607  0.30464393  1
  Zr  Zr2  1  0.69535607  0.30464393  0.30464393  1
  Zr  Zr3  1  0.30464393  0.30464393  0.69535607  1
  Zr  Zr4  1  0.69535607  0.30464393  0.69535607  1
  Zr  Zr5  1  0.30464393  0.69535607  0.69535607  1
  Ga  Ga0  1  0.12161588  0.12161588  0.63515136  1
  Ga  Ga1  1  0.12161588  0.63515136  0.12161588  1
  Ga  Ga2  1  0.63515136  0.12161588  0.12161588  1
  Ga  Ga3  1  0.12161588  0.12161588  0.12161588  1
  Ga  Ga4  1  0.65630359  0.65630359  0.03108822  1
  Ga  Ga5  1  0.65630359  0.03108822  0.65630359  1
  Ga  Ga6  1  0.03108822  0.65630359  0.65630359  1
  Ga  Ga7  1  0.65630359  0.65630359  0.65630359  1
  Ga  Ga8  1  0.34114530  0.34114530  0.97656309  1
  Ga  Ga9  1  0.34114530  0.97656309  0.34114530  1
  Ga  Ga10  1  0.97656309  0.34114530  0.34114530  1
  Ga  Ga11  1  0.34114530  0.34114530  0.34114530  1
  Mo  Mo0  1  0.87773425  0.87773425  0.36679726  1
  Mo  Mo1  1  0.87773425  0.36679726  0.87773425  1
  Mo  Mo2  1  0.36679726  0.87773425  0.87773425  1
  Mo  Mo3  1  0.87773425  0.87773425  0.87773425  1
  Os  Os0  1  0.00000000  0.00000000  0.00000000  1
  Os  Os1  1  0.99533326  0.99533326  0.50466674  1
  Os  Os2  1  0.50466674  0.99533326  0.50466674  1
  Os  Os3  1  0.99533326  0.50466674  0.50466674  1
  Os  Os4  1  0.50466674  0.50466674  0.99533326  1
  Os  Os5  1  0.99533326  0.50466674  0.99533326  1
  Os  Os6  1  0.50466674  0.99533326  0.99533326  1
loop_
_geom_bond_atom_site_label_1
_geom_bond_atom_site_label_2
_geom_bond_distance
_geom_bond_site_symmetry_2
Zr0 Zr5 3.414605 1_555
Zr0 Zr1 3.414605 1_555
Zr0 Zr4 3.414605 1_555
Zr0 Zr2 3.414605 1_555
Zr1 Zr3 3.414605 1_555
Zr1 Zr2 3.414605 1_555
Zr1 Zr5 3.414605 1_555
Zr2 Zr3 3.414605 1_555
Zr2 Zr4 3.414605 1_555
Zr3 Zr4 3.414605 1_555
Zr3 Zr5 3.414605 1_555
Zr4 Zr5 3.414605 1_555
Ga0 Os0 2.603458 1_556
Ga0 Os1 2.733420 1_445
Ga0 Os2 2.733426 1_545
Ga0 Os3 2.733427 1_455
Ga0 Ga11 2.790237 1_555
Ga0 Ga9 2.790238 1_545
Ga0 Ga10 2.790238 1_455
Ga0 Mo3 3.014260 1_445
Ga0 Mo2 3.014266 1_545
Ga0 Mo1 3.014266 1_455
Ga0 Zr4 3.104163 1_455
Ga0 Zr5 3.104163 1_545
Ga0 Zr3 3.104171 1_555
Ga1 Os0 2.603459 1_565
Ga1 Os5 2.733420 1_454
Ga1 Os4 2.733426 1_554
Ga1 Os3 2.733427 1_455
Ga1 Ga10 2.790237 1_455
Ga1 Ga11 2.790238 1_555
Ga1 Ga8 2.790238 1_554
Ga1 Mo3 3.014260 1_454
Ga1 Mo2 3.014266 1_554
Ga1 Mo0 3.014266 1_455
Ga1 Zr0 3.104163 1_455
Ga1 Zr5 3.104163 1_554
Ga1 Zr1 3.104171 1_555
Ga2 Os0 2.603458 1_655
Ga2 Os6 2.733420 1_544
Ga2 Os2 2.733427 1_545
Ga2 Os4 2.733427 1_554
Ga2 Ga9 2.790237 1_545
Ga2 Ga8 2.790238 1_554
Ga2 Mo3 3.014260 1_544
Ga2 Mo1 3.014266 1_554
Ga2 Mo0 3.014266 1_545
Ga2 Zr4 3.104163 1_554
Ga2 Zr0 3.104163 1_545
Ga2 Zr2 3.104171 1_555
Ga3 Os0 2.603451 1_555
Ga3 Os6 2.733427 1_544
Ga3 Os1 2.733427 1_445
Ga3 Os5 2.733427 1_454
Ga3 Ga8 2.790237 1_554
Ga3 Ga9 2.790238 1_545
Ga3 Mo0 3.014260 1_445
Ga3 Mo2 3.014260 1_544
Ga3 Mo1 3.014260 1_454
Ga3 Zr3 3.104165 1_554
Ga3 Zr2 3.104165 1_455
Ga3 Zr1 3.104165 1_545
Ga4 Os4 2.488871 1_554
Ga4 Os5 2.488879 1_554
Ga4 Os6 2.488879 1_554
Ga4 Zr1 2.774323 1_555
Ga4 Zr2 2.774324 1_555
Ga4 Zr0 2.774329 1_555
Ga4 Mo2 2.800673 1_554
Ga4 Mo1 2.800673 1_554
Ga4 Mo3 2.800680 1_554
Ga5 Os2 2.488871 1_545
Ga5 Os1 2.488879 1_545
Ga5 Os6 2.488879 1_545
Ga5 Zr2 2.774323 1_555
Ga5 Zr3 2.774324 1_555
Ga5 Zr4 2.774329 1_555
Ga5 Mo2 2.800673 1_545
Ga5 Mo0 2.800673 1_545
Ga5 Mo3 2.800680 1_545
Ga6 Os3 2.488871 1_455
Ga6 Os5 2.488879 1_455
Ga6 Os1 2.488879 1_455
Ga6 Zr1 2.774323 1_555
Ga6 Zr3 2.774324 1_555
Ga6 Zr5 2.774329 1_555
Ga6 Mo1 2.800673 1_455
Ga6 Mo0 2.800673 1_455
Ga6 Mo3 2.800680 1_455
Ga7 Os4 2.488877 1_555
Ga7 Os3 2.488877 1_555
Ga7 Os2 2.488877 1_555
Ga7 Zr5 2.774320 1_555
Ga7 Zr0 2.774320 1_555
Ga7 Zr4 2.774320 1_555
Ga7 Mo0 2.800678 1_555
Ga7 Mo2 2.800678 1_555
Ga7 Mo1 2.800678 1_555
Ga8 Os5 2.573438 1_455
Ga8 Os6 2.573438 1_545
Ga8 Os4 2.573446 1_555
Ga8 Zr3 2.813004 1_555
Ga8 Zr4 2.813009 1_555
Ga8 Zr5 2.813010 1_555
Ga9 Os1 2.573438 1_455
Ga9 Os6 2.573438 1_554
Ga9 Os2 2.573446 1_555
Ga9 Zr1 2.813004 1_555
Ga9 Zr5 2.813010 1_555
Ga9 Zr0 2.813010 1_555
Ga10 Os5 2.573438 1_554
Ga10 Os1 2.573438 1_545
Ga10 Os3 2.573446 1_555
Ga10 Ga3 2.790238 1_655
Ga10 Zr2 2.813004 1_555
Ga10 Zr4 2.813009 1_555
Ga10 Zr0 2.813010 1_555
Ga11 Os4 2.573440 1_554
Ga11 Os3 2.573440 1_455
Ga11 Os2 2.573440 1_545
Ga11 Ga2 2.790238 1_555
Ga11 Zr2 2.813013 1_555
Ga11 Zr3 2.813013 1_555
Ga11 Zr1 2.813013 1_555
Mo0 Os0 2.617363 1_665
Mo0 Os2 2.664070 1_555
Mo0 Os1 2.664070 1_555
Mo0 Os3 2.664070 1_555
Mo0 Zr1 3.106121 1_655
Mo0 Zr0 3.106121 1_555
Mo0 Zr2 3.106121 1_565
Mo1 Os0 2.617363 1_656
Mo1 Os4 2.664070 1_555
Mo1 Os3 2.664070 1_555
Mo1 Os5 2.664070 1_555
Mo1 Zr3 3.106120 1_655
Mo1 Zr2 3.106121 1_556
Mo1 Zr4 3.106121 1_555
Mo2 Os0 2.617363 1_566
Mo2 Os2 2.664070 1_555
Mo2 Os6 2.664070 1_555
Mo2 Os4 2.664070 1_555
Mo2 Zr1 3.106121 1_556
Mo2 Zr3 3.106121 1_565
Mo2 Zr5 3.106121 1_555
Mo3 Os0 2.617363 1_666
Mo3 Os6 2.664070 1_555
Mo3 Os1 2.664070 1_555
Mo3 Os5 2.664070 1_555
Mo3 Zr0 3.106121 1_556
Mo3 Zr5 3.106121 1_655
Mo3 Zr4 3.106121 1_565
Os1 Zr1 3.163333 1_655
Os1 Zr5 3.163333 1_655
Os1 Zr2 3.163333 1_565
Os1 Zr4 3.163333 1_565
Os2 Zr5 3.163332 1_555
Os2 Zr2 3.163332 1_565
Os2 Zr0 3.163333 1_555
Os2 Zr3 3.163333 1_565
Os3 Zr1 3.163332 1_655
Os3 Zr4 3.163332 1_555
Os3 Zr3 3.163333 1_655
Os3 Zr0 3.163333 1_555
Os4 Zr1 3.163333 1_556
Os4 Zr2 3.163333 1_556
Os4 Zr5 3.163333 1_555
Os4 Zr4 3.163333 1_555
Os5 Zr5 3.163332 1_655
Os5 Zr2 3.163332 1_556
Os5 Zr3 3.163333 1_655
Os5 Zr0 3.163333 1_556
Os6 Zr1 3.163332 1_556
Os6 Zr4 3.163332 1_565
Os6 Zr0 3.163333 1_556
Os6 Zr3 3.163333 1_565
