# generated using pymatgen
data_RbCa(PO3)3
_symmetry_space_group_name_H-M   'P 1'
_cell_length_a   6.90629225
_cell_length_b   6.90629169
_cell_length_c   10.51782806
_cell_angle_alpha   90.00000000
_cell_angle_beta   90.00000000
_cell_angle_gamma   120.00000269
_symmetry_Int_Tables_number   1
_chemical_formula_structural   RbCa(PO3)3
_chemical_formula_sum   'Rb2 Ca2 P6 O18'
_cell_volume   434.45675752
_cell_formula_units_Z   2
loop_
 _symmetry_equiv_pos_site_id
 _symmetry_equiv_pos_as_xyz
  1  'x, y, z'
loop_
 _atom_site_type_symbol
 _atom_site_label
 _atom_site_symmetry_multiplicity
 _atom_site_fract_x
 _atom_site_fract_y
 _atom_site_fract_z
 _atom_site_occupancy
  Rb  Rb0  1  0.33333300  0.66666700  0.00000000  1
  Rb  Rb1  1  0.33333300  0.66666700  0.50000000  1
  Ca  Ca0  1  0.00000000  0.00000000  0.00000000  1
  Ca  Ca1  1  0.00000000  0.00000000  0.50000000  1
  P  P0  1  0.71453426  0.11168230  0.25000000  1
  P  P1  1  0.88831770  0.60285196  0.25000000  1
  P  P2  1  0.71453426  0.60285196  0.75000000  1
  P  P3  1  0.39714804  0.28546574  0.25000000  1
  P  P4  1  0.88831770  0.28546574  0.75000000  1
  P  P5  1  0.39714804  0.11168230  0.75000000  1
  O  O0  1  0.27938561  0.26828423  0.12892401  1
  O  O1  1  0.73171577  0.01110138  0.12892401  1
  O  O2  1  0.27938561  0.26828423  0.37107599  1
  O  O3  1  0.27938561  0.01110138  0.62892401  1
  O  O4  1  0.98889862  0.72061439  0.12892401  1
  O  O5  1  0.73171577  0.01110138  0.37107599  1
  O  O6  1  0.73171577  0.72061439  0.62892401  1
  O  O7  1  0.27938561  0.01110138  0.87107599  1
  O  O8  1  0.98889862  0.72061439  0.37107599  1
  O  O9  1  0.73171577  0.72061439  0.87107599  1
  O  O10  1  0.98889862  0.26828423  0.62892401  1
  O  O11  1  0.98889862  0.26828423  0.87107599  1
  O  O12  1  0.48058721  0.10737982  0.25000000  1
  O  O13  1  0.89262018  0.37320839  0.25000000  1
  O  O14  1  0.48058721  0.37320839  0.75000000  1
  O  O15  1  0.62679161  0.51941279  0.25000000  1
  O  O16  1  0.89262018  0.51941279  0.75000000  1
  O  O17  1  0.62679161  0.10737982  0.75000000  1
loop_
_geom_bond_atom_site_label_1
_geom_bond_atom_site_label_2
_geom_bond_distance
_geom_bond_site_symmetry_2
Ca0 O4 2.328030 1_445
Ca0 O9 2.328030 1_444
Ca0 O0 2.328030 1_555
Ca0 O11 2.328030 1_454
Ca0 O1 2.328030 1_455
Ca0 O7 2.328030 1_554
Ca1 O6 2.328030 1_445
Ca1 O8 2.328030 1_445
Ca1 O10 2.328030 1_455
Ca1 O2 2.328030 1_555
Ca1 O5 2.328030 1_455
Ca1 O3 2.328030 1_555
O0 P3 1.483484 1_555
O0 Rb0 2.919311 1_555
O1 P0 1.483484 1_555
O1 Rb0 2.919309 1_545
O2 P3 1.483484 1_555
O2 Rb1 2.919311 1_555
O3 P5 1.483484 1_555
O3 Rb1 2.919305 1_545
O4 P1 1.483484 1_555
O4 Rb0 2.919305 1_655
O5 P0 1.483484 1_555
O5 Rb1 2.919309 1_545
O6 P2 1.483484 1_555
O6 Rb1 2.919311 1_555
O7 P5 1.483484 1_555
O7 Rb0 2.919305 1_546
O8 P1 1.483484 1_555
O8 Rb1 2.919305 1_655
O9 P2 1.483484 1_555
O9 Rb0 2.919311 1_556
O10 P4 1.483484 1_555
O10 Rb1 2.919309 1_655
O11 P4 1.483484 1_555
O11 Rb0 2.919309 1_656
O12 P3 1.597968 1_555
O12 P0 1.601056 1_555
O13 P0 1.597973 1_555
O13 P1 1.601049 1_555
O14 P5 1.597974 1_555
O14 P2 1.601053 1_555
O15 P1 1.597974 1_555
O15 P3 1.601053 1_555
O16 P2 1.597968 1_555
O16 P4 1.601056 1_555
O17 P4 1.597973 1_555
O17 P5 1.601050 1_555
