# generated using pymatgen
data_Ti10MnSiSb4
_symmetry_space_group_name_H-M   'P 1'
_cell_length_a   5.13053385
_cell_length_b   7.82064195
_cell_length_c   7.82064144
_cell_angle_alpha   83.82347611
_cell_angle_beta   70.85182623
_cell_angle_gamma   70.85182909
_symmetry_Int_Tables_number   1
_chemical_formula_structural   Ti10MnSiSb4
_chemical_formula_sum   'Ti10 Mn1 Si1 Sb4'
_cell_volume   280.03400298
_cell_formula_units_Z   1
loop_
 _symmetry_equiv_pos_site_id
 _symmetry_equiv_pos_as_xyz
  1  'x, y, z'
loop_
 _atom_site_type_symbol
 _atom_site_label
 _atom_site_symmetry_multiplicity
 _atom_site_fract_x
 _atom_site_fract_y
 _atom_site_fract_z
 _atom_site_occupancy
  Ti  Ti0  1  0.25000000  0.50000000  0.50000000  1
  Ti  Ti1  1  0.75000000  0.50000000  0.50000000  1
  Ti  Ti2  1  0.07373785  0.13452932  0.71878148  1
  Ti  Ti3  1  0.92704765  0.86547068  0.28121852  1
  Ti  Ti4  1  0.79251933  0.28121852  0.13452932  1
  Ti  Ti5  1  0.42626215  0.28121852  0.86547068  1
  Ti  Ti6  1  0.20826617  0.71878148  0.86547068  1
  Ti  Ti7  1  0.57295235  0.71878148  0.13452932  1
  Ti  Ti8  1  0.70748067  0.86547068  0.71878148  1
  Ti  Ti9  1  0.29173383  0.13452932  0.28121852  1
  Mn  Mn0  1  0.25000000  0.00000000  0.00000000  1
  Si  Si0  1  0.75000000  0.00000000  0.00000000  1
  Sb  Sb0  1  0.16343101  0.50000000  0.17313697  1
  Sb  Sb1  1  0.83656899  0.50000000  0.82686303  1
  Sb  Sb2  1  0.33656899  0.82686303  0.50000000  1
  Sb  Sb3  1  0.66343101  0.17313697  0.50000000  1
loop_
_geom_bond_atom_site_label_1
_geom_bond_atom_site_label_2
_geom_bond_distance
_geom_bond_site_symmetry_2
Ti0 Ti1 2.565267 1_455
Ti0 Ti1 2.565267 1_555
Mn0 Si0 2.565267 1_555
Mn0 Si0 2.565267 1_455
Mn0 Ti2 2.635213 1_554
Mn0 Ti8 2.635213 1_544
Mn0 Ti5 2.635213 1_554
Mn0 Ti4 2.635214 1_455
Mn0 Ti9 2.635216 1_555
Mn0 Ti6 2.635216 1_544
Mn0 Ti3 2.635216 1_445
Mn0 Ti7 2.635216 1_545
Si0 Ti3 2.637174 1_545
Si0 Ti9 2.637174 1_555
Si0 Ti7 2.637174 1_545
Si0 Ti6 2.637174 1_644
Si0 Ti8 2.637177 1_544
Si0 Ti4 2.637177 1_555
Si0 Ti2 2.637177 1_654
Si0 Ti5 2.637177 1_554
Sb0 Ti1 2.734344 1_455
Sb0 Ti0 2.734346 1_555
Sb0 Ti5 2.789125 1_554
Sb0 Ti6 2.789125 1_554
Sb0 Ti3 2.815678 1_455
Sb0 Ti9 2.815678 1_555
Sb0 Ti4 3.043710 1_455
Sb0 Ti7 3.043718 1_555
Sb0 Ti7 3.047105 1_455
Sb0 Ti4 3.047113 1_555
Sb1 Ti0 2.734344 1_655
Sb1 Ti1 2.734346 1_555
Sb1 Ti7 2.789125 1_556
Sb1 Ti4 2.789125 1_556
Sb1 Ti2 2.815678 1_655
Sb1 Ti8 2.815678 1_555
Sb1 Ti5 3.043710 1_655
Sb1 Ti6 3.043719 1_555
Sb1 Ti6 3.047104 1_655
Sb1 Ti5 3.047113 1_555
Sb2 Ti1 2.734344 1_555
Sb2 Ti0 2.734346 1_555
Sb2 Ti2 2.789125 1_565
Sb2 Ti9 2.789126 1_565
Sb2 Ti7 2.815678 1_555
Sb2 Ti6 2.815678 1_555
Sb2 Ti8 3.043710 1_555
Sb2 Ti3 3.043718 1_455
Sb2 Ti3 3.047104 1_555
Sb2 Ti8 3.047113 1_455
Sb3 Ti0 2.734344 1_555
Sb3 Ti1 2.734346 1_555
Sb3 Ti3 2.789125 1_545
Sb3 Ti8 2.789126 1_545
Sb3 Ti5 2.815678 1_555
Sb3 Ti4 2.815678 1_555
Sb3 Ti2 3.043710 1_555
Sb3 Ti9 3.043719 1_655
Sb3 Ti9 3.047104 1_555
Sb3 Ti2 3.047113 1_655
