# generated using pymatgen
data_Mg5Si16(Pt4Rh)2
_symmetry_space_group_name_H-M   'P 1'
_cell_length_a   8.87052897
_cell_length_b   8.87052859
_cell_length_c   8.88539470
_cell_angle_alpha   60.03191511
_cell_angle_beta   60.03191891
_cell_angle_gamma   60.21730129
_symmetry_Int_Tables_number   1
_chemical_formula_structural   Mg5Si16(Pt4Rh)2
_chemical_formula_sum   'Mg5 Si16 Pt8 Rh2'
_cell_volume   495.42615581
_cell_formula_units_Z   1
loop_
 _symmetry_equiv_pos_site_id
 _symmetry_equiv_pos_as_xyz
  1  'x, y, z'
loop_
 _atom_site_type_symbol
 _atom_site_label
 _atom_site_symmetry_multiplicity
 _atom_site_fract_x
 _atom_site_fract_y
 _atom_site_fract_z
 _atom_site_occupancy
  Mg  Mg0  1  0.34809402  0.34809402  0.34760417  1
  Mg  Mg1  1  0.95627997  0.34737770  0.34584396  1
  Mg  Mg2  1  0.34737770  0.95627997  0.34584396  1
  Mg  Mg3  1  0.34622126  0.34622126  0.95693309  1
  Mg  Mg4  1  0.99915650  0.99915650  0.00604893  1
  Si  Si0  1  0.67613938  0.95138724  0.96077508  1
  Si  Si1  1  0.57636653  0.57636653  0.28150995  1
  Si  Si2  1  0.57170907  0.28472901  0.57088417  1
  Si  Si3  1  0.28472901  0.57170907  0.57088417  1
  Si  Si4  1  0.57633775  0.57633775  0.56406910  1
  Si  Si5  1  0.40599986  0.95980736  0.96009151  1
  Si  Si6  1  0.41235607  0.95493242  0.67816692  1
  Si  Si7  1  0.41390412  0.67888715  0.95387618  1
  Si  Si8  1  0.95725926  0.95725926  0.40849737  1
  Si  Si9  1  0.95980736  0.40599986  0.96009151  1
  Si  Si10  1  0.95225425  0.95225425  0.67962957  1
  Si  Si11  1  0.67737069  0.95162203  0.41068594  1
  Si  Si12  1  0.95138724  0.67613938  0.96077508  1
  Si  Si13  1  0.95493242  0.41235607  0.67816692  1
  Si  Si14  1  0.67888715  0.41390412  0.95387618  1
  Si  Si15  1  0.95162203  0.67737069  0.41068594  1
  Pt  Pt0  1  0.26638069  0.26638069  0.73345114  1
  Pt  Pt1  1  0.73188257  0.26756352  0.73178508  1
  Pt  Pt2  1  0.26756352  0.73188257  0.73178508  1
  Pt  Pt3  1  0.73244791  0.26746718  0.26720115  1
  Pt  Pt4  1  0.26746718  0.73244791  0.26720115  1
  Pt  Pt5  1  0.12528087  0.12528087  0.62125541  1
  Pt  Pt6  1  0.13009695  0.61703617  0.12617978  1
  Pt  Pt7  1  0.61703617  0.13009695  0.12617978  1
  Rh  Rh0  1  0.12600907  0.12600907  0.12825823  1
  Rh  Rh1  1  0.73764442  0.73764442  0.26176153  1
loop_
_geom_bond_atom_site_label_1
_geom_bond_atom_site_label_2
_geom_bond_distance
_geom_bond_site_symmetry_2
Mg0 Pt6 2.798287 1_555
Mg0 Pt7 2.798287 1_555
Mg0 Pt5 2.829047 1_555
Mg0 Pt4 2.881101 1_555
Mg0 Pt3 2.881101 1_555
Mg0 Pt0 2.891605 1_555
Mg1 Rh0 2.794326 1_655
Mg1 Pt6 2.810999 1_655
Mg1 Pt5 2.834032 1_655
Mg1 Pt3 2.865674 1_555
Mg1 Pt1 2.894512 1_555
Mg1 Rh1 2.915109 1_555
Mg2 Rh0 2.794326 1_565
Mg2 Pt7 2.810999 1_565
Mg2 Pt5 2.834032 1_565
Mg2 Pt4 2.865674 1_555
Mg2 Pt2 2.894512 1_555
Mg2 Rh1 2.915109 1_555
Mg3 Rh0 2.792495 1_556
Mg3 Pt7 2.803830 1_556
Mg3 Pt6 2.803830 1_556
Mg3 Pt0 2.873073 1_555
Mg3 Pt2 2.894530 1_555
Mg3 Pt1 2.894530 1_555
Mg4 Rh0 2.722273 1_665
Mg4 Pt6 2.773219 1_655
Mg4 Pt7 2.773220 1_565
Mg4 Pt5 2.791719 1_664
Si0 Si5 2.363061 1_555
Si0 Si12 2.449609 1_555
Si0 Si10 2.475156 1_555
Si5 Si7 2.485484 1_555
Si5 Si6 2.498965 1_555
Si6 Si7 2.450488 1_555
Si10 Si8 2.365594 1_555
Si10 Si12 2.475156 1_555
Si11 Si6 2.365418 1_555
Si11 Si15 2.440740 1_555
Si11 Si8 2.498220 1_555
Si12 Si9 2.363061 1_555
Si13 Si15 2.365418 1_555
Si13 Si14 2.450488 1_555
Si13 Si9 2.498965 1_555
Si14 Si7 2.358256 1_555
Si14 Si9 2.485484 1_555
Si15 Si8 2.498220 1_555
Pt0 Si3 2.396483 1_555
Pt0 Si2 2.396483 1_555
Pt0 Si5 2.580569 1_545
Pt0 Si9 2.580569 1_455
Pt0 Si6 2.591731 1_545
Pt0 Si13 2.591731 1_455
Pt1 Si2 2.383866 1_555
Pt1 Si4 2.418404 1_555
Pt1 Si13 2.600551 1_555
Pt1 Si10 2.611006 1_545
Pt1 Si14 2.612750 1_555
Pt1 Si0 2.630969 1_545
Pt2 Si3 2.383866 1_555
Pt2 Si4 2.418404 1_555
Pt2 Si6 2.600551 1_555
Pt2 Si10 2.611006 1_455
Pt2 Si7 2.612750 1_555
Pt2 Si12 2.630970 1_455
Pt3 Si2 2.385312 1_555
Pt3 Si1 2.417564 1_555
Pt3 Si9 2.576384 1_554
Pt3 Si8 2.592961 1_545
Pt3 Si14 2.599862 1_554
Pt3 Si11 2.623497 1_545
Pt4 Si3 2.385312 1_555
Pt4 Si1 2.417564 1_555
Pt4 Si5 2.576384 1_554
Pt4 Si8 2.592962 1_455
Pt4 Si7 2.599862 1_554
Pt4 Si15 2.623497 1_455
Pt5 Si13 2.392530 1_455
Pt5 Si6 2.392530 1_545
Pt5 Si10 2.393758 1_445
Pt6 Si7 2.380181 1_554
Pt6 Si12 2.383277 1_454
Pt6 Si15 2.386419 1_455
Pt7 Si14 2.380181 1_554
Pt7 Si0 2.383277 1_544
Pt7 Si11 2.386419 1_545
Rh0 Si9 2.330346 1_454
Rh0 Si5 2.330346 1_544
Rh0 Si8 2.336706 1_445
Rh1 Si1 2.378186 1_555
Rh1 Si4 2.380002 1_555
Rh1 Si0 2.531628 1_554
Rh1 Si12 2.531628 1_554
Rh1 Si11 2.536511 1_555
Rh1 Si15 2.536511 1_555
