# generated using pymatgen
data_K10HfSnP6
_symmetry_space_group_name_H-M   'P 1'
_cell_length_a   8.90013252
_cell_length_b   8.20496618
_cell_length_c   17.22428639
_cell_angle_alpha   90.00000000
_cell_angle_beta   119.89135869
_cell_angle_gamma   90.00000000
_symmetry_Int_Tables_number   1
_chemical_formula_structural   K10HfSnP6
_chemical_formula_sum   'K20 Hf2 Sn2 P12'
_cell_volume   1090.48460360
_cell_formula_units_Z   2
loop_
 _symmetry_equiv_pos_site_id
 _symmetry_equiv_pos_as_xyz
  1  'x, y, z'
loop_
 _atom_site_type_symbol
 _atom_site_label
 _atom_site_symmetry_multiplicity
 _atom_site_fract_x
 _atom_site_fract_y
 _atom_site_fract_z
 _atom_site_occupancy
  K  K0  1  0.23500117  0.01972010  0.07680248  1
  K  K1  1  0.66062298  0.16089026  0.08447604  1
  K  K2  1  0.41598015  0.51159436  0.08763758  1
  K  K3  1  0.65309273  0.82713934  0.24075422  1
  K  K4  1  0.04414610  0.98052173  0.24214257  1
  K  K5  1  0.95585390  0.48052173  0.25785743  1
  K  K6  1  0.34690627  0.32713934  0.25924578  1
  K  K7  1  0.58401885  0.01159436  0.41236242  1
  K  K8  1  0.33937702  0.66089026  0.41552396  1
  K  K9  1  0.76499883  0.51972010  0.42319752  1
  K  K10  1  0.23174055  0.49143285  0.57524084  1
  K  K11  1  0.65924959  0.33910927  0.58170891  1
  K  K12  1  0.42051226  0.98462903  0.59159655  1
  K  K13  1  0.66480774  0.67067005  0.74642944  1
  K  K14  1  0.04482464  0.52436205  0.74560553  1
  K  K15  1  0.95517536  0.02436205  0.75439447  1
  K  K16  1  0.33519226  0.17067005  0.75357056  1
  K  K17  1  0.57948674  0.48462903  0.90840345  1
  K  K18  1  0.34075041  0.83910927  0.91829109  1
  K  K19  1  0.76825945  0.99143285  0.92475916  1
  Hf  Hf0  1  0.00396013  0.62665572  0.07748424  1
  Hf  Hf1  1  0.99603987  0.12665572  0.42251576  1
  Sn  Sn0  1  0.00730130  0.86789538  0.58064947  1
  Sn  Sn1  1  0.99269870  0.36789538  0.91934953  1
  P  P0  1  0.98116588  0.31495178  0.06610112  1
  P  P1  1  0.74310565  0.74924735  0.07614374  1
  P  P2  1  0.27841610  0.71085348  0.21458566  1
  P  P3  1  0.72158390  0.21085348  0.28541334  1
  P  P4  1  0.25689435  0.24924735  0.42385626  1
  P  P5  1  0.01883412  0.81495178  0.43389888  1
  P  P6  1  0.98159490  0.18710065  0.56434646  1
  P  P7  1  0.73918401  0.74835478  0.57752747  1
  P  P8  1  0.29005419  0.78487183  0.71847669  1
  P  P9  1  0.70994581  0.28487183  0.78152231  1
  P  P10  1  0.26081599  0.24835478  0.92247253  1
  P  P11  1  0.01840510  0.68710065  0.93565354  1
loop_
_geom_bond_atom_site_label_1
_geom_bond_atom_site_label_2
_geom_bond_distance
_geom_bond_site_symmetry_2
K0 P0 3.254324 1_455
K0 P10 3.353628 1_554
K0 P2 3.360036 1_545
K0 P11 3.521891 1_544
K1 P3 3.251050 1_555
K1 P0 3.276719 1_555
K1 P10 3.326640 1_554
K1 P1 3.474498 1_545
K2 P10 3.278651 1_554
K2 P2 3.409025 1_555
K2 P11 3.494964 1_554
K2 P1 3.590618 1_555
K3 P3 3.226160 1_565
K3 P2 3.276497 1_555
K3 P5 3.298465 1_655
K3 P1 3.369442 1_555
K4 P2 3.233380 1_555
K4 P1 3.364388 1_455
K4 P4 3.512276 1_565
K4 P5 3.680599 1_555
K5 P3 3.233372 1_555
K5 P4 3.364388 1_655
K5 P1 3.512276 1_555
K5 P0 3.680599 1_555
K6 P2 3.226162 1_555
K6 P3 3.276512 1_555
K6 P0 3.298460 1_455
K6 P4 3.369436 1_555
K7 P7 3.278651 1_545
K7 P3 3.409046 1_555
K7 P6 3.494970 1_555
K7 P4 3.590610 1_555
K8 P2 3.251067 1_555
K8 P5 3.276719 1_555
K8 P7 3.326640 1_555
K8 P4 3.474498 1_555
K9 P5 3.254324 1_655
K9 P7 3.353628 1_555
K9 P3 3.360047 1_555
K9 P6 3.521891 1_555
K10 P6 3.287940 1_455
K10 P8 3.297983 1_555
K10 P4 3.373369 1_555
K10 P5 3.459142 1_555
K11 P9 3.270895 1_555
K11 P6 3.275795 1_555
K11 P4 3.324949 1_555
K11 P7 3.440569 1_555
K12 P4 3.314912 1_565
K12 P8 3.367442 1_555
K12 P5 3.523929 1_555
K12 P7 3.542057 1_555
K13 P9 3.210119 1_555
K13 P11 3.212714 1_655
K13 P8 3.260956 1_555
K13 P7 3.350740 1_555
K14 P8 3.250737 1_555
K14 P7 3.362930 1_455
K14 Sn1 3.493269 1_455
K14 P10 3.502508 1_555
K14 P11 3.649770 1_555
K15 P9 3.250728 1_555
K15 P10 3.362930 1_655
K15 Sn0 3.493285 1_645
K15 P7 3.502508 1_545
K15 P6 3.649770 1_555
K16 P8 3.210121 1_545
K16 P6 3.212714 1_455
K16 P9 3.260963 1_555
K16 P10 3.350740 1_555
K17 P1 3.314912 1_556
K17 P9 3.367462 1_555
K17 P0 3.523935 1_556
K17 P10 3.542050 1_555
K18 P8 3.270912 1_555
K18 P11 3.275795 1_555
K18 P1 3.324949 1_556
K18 P10 3.440569 1_565
K19 P11 3.287940 1_655
K19 P9 3.297995 1_565
K19 P1 3.373369 1_556
K19 P0 3.459142 1_566
Hf0 P2 2.504231 1_555
Hf0 P1 2.519696 1_455
Hf0 P11 2.558017 1_554
Hf0 P0 2.565319 1_455
Hf1 P3 2.504239 1_555
Hf1 P4 2.519696 1_655
Hf1 P6 2.558017 1_555
Hf1 P5 2.565319 1_645
P0 Sn1 2.616689 1_554
P5 Sn0 2.616672 1_555
P6 Sn0 2.631859 1_645
P7 Sn0 2.555649 1_655
P8 Sn0 2.545230 1_555
P9 Sn1 2.545230 1_555
P10 Sn1 2.555642 1_455
P11 Sn1 2.631860 1_455
