# generated using pymatgen
data_Cs2CaCdBi2
_symmetry_space_group_name_H-M   'P 1'
_cell_length_a   5.23775012
_cell_length_b   5.23775012
_cell_length_c   9.18368292
_cell_angle_alpha   90.00000000
_cell_angle_beta   90.00000000
_cell_angle_gamma   90.00000000
_symmetry_Int_Tables_number   1
_chemical_formula_structural   Cs2CaCdBi2
_chemical_formula_sum   'Cs2 Ca1 Cd1 Bi2'
_cell_volume   251.94539889
_cell_formula_units_Z   1
loop_
 _symmetry_equiv_pos_site_id
 _symmetry_equiv_pos_as_xyz
  1  'x, y, z'
loop_
 _atom_site_type_symbol
 _atom_site_label
 _atom_site_symmetry_multiplicity
 _atom_site_fract_x
 _atom_site_fract_y
 _atom_site_fract_z
 _atom_site_occupancy
  Cs  Cs0  1  0.50000000  0.00000000  0.64804954  1
  Cs  Cs1  1  0.00000000  0.50000000  0.35195046  1
  Ca  Ca0  1  0.00000000  0.00000000  0.00000000  1
  Cd  Cd0  1  0.50000000  0.50000000  0.00000000  1
  Bi  Bi0  1  0.00000000  0.50000000  0.80736361  1
  Bi  Bi1  1  0.50000000  0.00000000  0.19263639  1
loop_
_geom_bond_atom_site_label_1
_geom_bond_atom_site_label_2
_geom_bond_distance
_geom_bond_site_symmetry_2
Cs0 Cs1 4.594725 1_655
Cs0 Cs1 4.594725 1_645
Cs0 Cs1 4.594725 1_555
Cs0 Cs1 4.594725 1_545
Ca0 Cs1 4.160004 1_545
Ca0 Cs1 4.160004 1_555
Ca0 Cs0 4.160004 1_554
Ca0 Cs0 4.160004 1_454
Cd0 Cs1 4.160004 1_555
Cd0 Cs1 4.160004 1_655
Cd0 Cs0 4.160004 1_554
Cd0 Cs0 4.160004 1_564
Bi0 Cd0 3.160421 1_556
Bi0 Ca0 3.160421 1_556
Bi0 Ca0 3.160421 1_566
Bi0 Cd0 3.160421 1_456
Bi0 Cs0 3.982166 1_465
Bi0 Cs0 3.982166 1_455
Bi0 Cs0 3.982166 1_565
Bi0 Cs0 3.982166 1_555
Bi0 Cs1 4.182370 1_555
Bi1 Ca0 3.160421 1_555
Bi1 Cd0 3.160421 1_545
Bi1 Cd0 3.160421 1_555
Bi1 Ca0 3.160421 1_655
Bi1 Cs1 3.982166 1_645
Bi1 Cs1 3.982166 1_555
Bi1 Cs1 3.982166 1_545
Bi1 Cs1 3.982166 1_655
Bi1 Cs0 4.182370 1_555
