# generated using pymatgen
data_K2Y(ScI4)3
_symmetry_space_group_name_H-M   'P 1'
_cell_length_a   8.19414677
_cell_length_b   8.19414776
_cell_length_c   14.07940412
_cell_angle_alpha   90.00000000
_cell_angle_beta   90.00000000
_cell_angle_gamma   119.99999602
_symmetry_Int_Tables_number   1
_chemical_formula_structural   K2Y(ScI4)3
_chemical_formula_sum   'K2 Y1 Sc3 I12'
_cell_volume   818.69559426
_cell_formula_units_Z   1
loop_
 _symmetry_equiv_pos_site_id
 _symmetry_equiv_pos_as_xyz
  1  'x, y, z'
loop_
 _atom_site_type_symbol
 _atom_site_label
 _atom_site_symmetry_multiplicity
 _atom_site_fract_x
 _atom_site_fract_y
 _atom_site_fract_z
 _atom_site_occupancy
  K  K0  1  0.33333300  0.66666700  0.86783030  1
  K  K1  1  0.66666700  0.33333300  0.38267493  1
  Y  Y0  1  0.00000000  0.00000000  0.12575663  1
  Sc  Sc0  1  0.00000000  0.00000000  0.38689487  1
  Sc  Sc1  1  0.00000000  0.00000000  0.62535962  1
  Sc  Sc2  1  0.00000000  0.00000000  0.86439430  1
  I  I0  1  0.97956261  0.69779022  0.99406377  1
  I  I1  1  0.28218635  0.97987405  0.25720574  1
  I  I2  1  0.02012595  0.30231230  0.25720574  1
  I  I3  1  0.30220978  0.28177139  0.99406377  1
  I  I4  1  0.28057911  0.30276280  0.50500299  1
  I  I5  1  0.71822861  0.02043739  0.99406377  1
  I  I6  1  0.30269007  0.02395225  0.74591062  1
  I  I7  1  0.69768770  0.71781365  0.25720574  1
  I  I8  1  0.72126218  0.69730993  0.74591062  1
  I  I9  1  0.02218368  0.71942089  0.50500299  1
  I  I10  1  0.69723720  0.97781632  0.50500299  1
  I  I11  1  0.97604775  0.27873782  0.74591062  1
loop_
_geom_bond_atom_site_label_1
_geom_bond_atom_site_label_2
_geom_bond_distance
_geom_bond_site_symmetry_2
I0 Sc2 3.013092 1_665
I0 Y0 3.030438 1_666
I0 K0 3.516590 1_655
I1 Sc0 3.014834 1_565
I1 Y0 3.029906 1_565
I1 K1 3.508561 1_565
I2 Sc0 3.014835 1_555
I2 Y0 3.029906 1_555
I2 K1 3.508557 1_455
I3 Sc2 3.013089 1_555
I3 Y0 3.030435 1_556
I3 K0 3.516604 1_555
I4 Sc0 2.915830 1_555
I4 Sc1 2.934000 1_555
I4 K1 3.499336 1_555
I5 Sc2 3.013085 1_655
I5 Y0 3.030431 1_656
I5 K0 3.516598 1_545
I6 Sc2 2.913137 1_555
I6 Sc1 2.929902 1_555
I6 K0 3.509394 1_545
I7 Sc0 3.014835 1_665
I7 Y0 3.029906 1_665
I7 K1 3.508564 1_555
I8 Sc2 2.913137 1_665
I8 Sc1 2.929902 1_665
I8 K0 3.509401 1_555
I9 Sc0 2.915830 1_565
I9 Sc1 2.934000 1_565
I9 K1 3.499333 1_455
I10 Sc0 2.915830 1_665
I10 Sc1 2.934000 1_665
I10 K1 3.499329 1_565
I11 Sc2 2.913137 1_655
I11 Sc1 2.929902 1_655
I11 K0 3.509398 1_655
