# generated using pymatgen
data_Hf4TaSn3As
_symmetry_space_group_name_H-M   'P 1'
_cell_length_a   8.49448078
_cell_length_b   8.49448134
_cell_length_c   5.80173131
_cell_angle_alpha   90.00000000
_cell_angle_beta   90.00000000
_cell_angle_gamma   120.00000164
_symmetry_Int_Tables_number   1
_chemical_formula_structural   Hf4TaSn3As
_chemical_formula_sum   'Hf8 Ta2 Sn6 As2'
_cell_volume   362.54501747
_cell_formula_units_Z   2
loop_
 _symmetry_equiv_pos_site_id
 _symmetry_equiv_pos_as_xyz
  1  'x, y, z'
loop_
 _atom_site_type_symbol
 _atom_site_label
 _atom_site_symmetry_multiplicity
 _atom_site_fract_x
 _atom_site_fract_y
 _atom_site_fract_z
 _atom_site_occupancy
  Hf  Hf0  1  0.73589234  0.73589234  0.74942665  1
  Hf  Hf1  1  0.26410766  1.00000000  0.74942665  1
  Hf  Hf2  1  0.00000000  0.26410766  0.74942665  1
  Hf  Hf3  1  0.26410766  0.26410766  0.25057335  1
  Hf  Hf4  1  0.73589234  0.00000000  0.25057335  1
  Hf  Hf5  1  1.00000000  0.73589234  0.25057335  1
  Hf  Hf6  1  0.33333300  0.66666700  0.50000000  1
  Hf  Hf7  1  0.66666700  0.33333300  0.50000000  1
  Ta  Ta0  1  0.66666700  0.33333300  0.00000000  1
  Ta  Ta1  1  0.33333300  0.66666700  0.00000000  1
  Sn  Sn0  1  0.39593051  0.39593051  0.75456724  1
  Sn  Sn1  1  0.60406949  1.00000000  0.75456724  1
  Sn  Sn2  1  0.00000000  0.60406949  0.75456724  1
  Sn  Sn3  1  0.60406949  0.60406949  0.24543276  1
  Sn  Sn4  1  0.39593051  0.00000000  0.24543276  1
  Sn  Sn5  1  1.00000000  0.39593051  0.24543276  1
  As  As0  1  0.00000000  0.00000000  0.00000000  1
  As  As1  1  0.00000000  0.00000000  0.50000000  1
loop_
_geom_bond_atom_site_label_1
_geom_bond_atom_site_label_2
_geom_bond_distance
_geom_bond_site_symmetry_2
Hf0 Sn0 2.887953 1_555
Hf0 Sn2 2.966482 1_655
Hf0 Sn1 2.966482 1_555
Hf0 Sn3 3.087880 1_556
Hf0 Sn3 3.131113 1_555
Hf1 Sn1 2.887953 1_555
Hf1 Sn2 2.966482 1_555
Hf1 Sn0 2.966482 1_565
Hf1 Sn4 3.087880 1_566
Hf1 Sn4 3.131113 1_565
Hf2 Sn2 2.887953 1_555
Hf2 Sn0 2.966482 1_555
Hf2 Sn1 2.966482 1_445
Hf2 Sn5 3.087880 1_456
Hf2 Sn5 3.131113 1_455
Hf3 Sn3 2.887953 1_555
Hf3 Sn5 2.966482 1_455
Hf3 Sn4 2.966482 1_555
Hf3 Sn0 3.087880 1_554
Hf3 Sn0 3.131113 1_555
Hf4 Sn4 2.887953 1_555
Hf4 Sn5 2.966482 1_555
Hf4 Sn3 2.966482 1_545
Hf4 Sn1 3.087880 1_544
Hf4 Sn1 3.131113 1_545
Hf5 Sn5 2.887953 1_555
Hf5 Sn3 2.966482 1_555
Hf5 Sn4 2.966482 1_665
Hf5 Sn2 3.087880 1_654
Hf5 Sn2 3.131113 1_655
Hf6 Ta1 2.900866 1_555
Hf6 Ta1 2.900866 1_556
Hf6 Sn2 2.995965 1_555
Hf6 Sn4 2.995965 1_565
Hf6 Sn5 2.995968 1_455
Hf6 Sn1 2.995968 1_555
Hf6 Sn3 2.995972 1_555
Hf6 Sn0 2.995972 1_555
Hf7 Ta0 2.900866 1_556
Hf7 Ta0 2.900866 1_555
Hf7 Sn5 2.995965 1_555
Hf7 Sn1 2.995965 1_545
Hf7 Sn2 2.995968 1_655
Hf7 Sn4 2.995968 1_555
Hf7 Sn0 2.995972 1_555
Hf7 Sn3 2.995972 1_555
Sn0 Ta0 2.970205 1_556
Sn0 Ta1 2.970205 1_556
Sn1 Ta0 2.970198 1_566
Sn1 Ta1 2.970200 1_556
Sn2 Ta1 2.970197 1_556
Sn2 Ta0 2.970200 1_456
Sn3 Ta1 2.970205 1_555
Sn3 Ta0 2.970205 1_555
Sn4 Ta1 2.970198 1_545
Sn4 Ta0 2.970200 1_555
Sn5 Ta0 2.970197 1_555
Sn5 Ta1 2.970200 1_655
As0 Hf4 2.673297 1_455
As0 Hf1 2.673297 1_544
As0 Hf3 2.673297 1_555
As0 Hf0 2.673297 1_444
As0 Hf2 2.673297 1_554
As0 Hf5 2.673297 1_445
As1 Hf1 2.669685 1_545
As1 Hf4 2.669685 1_455
As1 Hf3 2.669685 1_555
As1 Hf0 2.669685 1_445
As1 Hf2 2.669685 1_555
As1 Hf5 2.669685 1_445
