# generated using pymatgen
data_RbCuPS3
_symmetry_space_group_name_H-M   'P 1'
_cell_length_a   12.02711316
_cell_length_b   6.16231894
_cell_length_c   9.27085757
_cell_angle_alpha   59.28557304
_cell_angle_beta   90.00000000
_cell_angle_gamma   90.00000000
_symmetry_Int_Tables_number   1
_chemical_formula_structural   RbCuPS3
_chemical_formula_sum   'Rb4 Cu4 P4 S12'
_cell_volume   590.72366893
_cell_formula_units_Z   4
loop_
 _symmetry_equiv_pos_site_id
 _symmetry_equiv_pos_as_xyz
  1  'x, y, z'
loop_
 _atom_site_type_symbol
 _atom_site_label
 _atom_site_symmetry_multiplicity
 _atom_site_fract_x
 _atom_site_fract_y
 _atom_site_fract_z
 _atom_site_occupancy
  Rb  Rb0  1  0.17878264  0.26459824  0.48856607  1
  Rb  Rb1  1  0.67878264  0.73540176  0.01143393  1
  Rb  Rb2  1  0.82121736  0.73540176  0.51143393  1
  Rb  Rb3  1  0.32121736  0.26459824  0.98856607  1
  Cu  Cu0  1  0.05638006  0.68030394  0.86743142  1
  Cu  Cu1  1  0.55638006  0.31969606  0.63256858  1
  Cu  Cu2  1  0.94361994  0.31969606  0.13256858  1
  Cu  Cu3  1  0.44361994  0.68030394  0.36743142  1
  P  P0  1  0.45995787  0.84616316  0.61821692  1
  P  P1  1  0.95995787  0.15383684  0.88178308  1
  P  P2  1  0.54004213  0.15383684  0.38178308  1
  P  P3  1  0.04004213  0.84616316  0.11821692  1
  S  S0  1  0.32677465  0.73635262  0.53764138  1
  S  S1  1  0.82677465  0.26364738  0.96235862  1
  S  S2  1  0.67322535  0.26364738  0.46235862  1
  S  S3  1  0.17322535  0.73635262  0.03764138  1
  S  S4  1  0.42356774  0.01528695  0.75060434  1
  S  S5  1  0.92356774  0.98471305  0.74939566  1
  S  S6  1  0.57643226  0.98471305  0.24939566  1
  S  S7  1  0.07643226  0.01528695  0.25060434  1
  S  S8  1  0.57422785  0.56627611  0.74252183  1
  S  S9  1  0.07422785  0.43372389  0.75747817  1
  S  S10  1  0.42577215  0.43372389  0.25747817  1
  S  S11  1  0.92577215  0.56627611  0.24252183  1
loop_
_geom_bond_atom_site_label_1
_geom_bond_atom_site_label_2
_geom_bond_distance
_geom_bond_site_symmetry_2
Rb0 S9 3.396607 1_555
Rb0 S7 3.493539 1_555
Rb0 S10 3.495631 1_555
Rb0 S0 3.529681 1_545
Rb0 S4 3.621717 1_555
Rb0 S0 3.630075 1_555
Rb0 S3 3.676602 1_555
Rb0 S11 3.686073 1_455
Rb0 S5 3.739447 1_445
Rb1 S8 3.396607 1_554
Rb1 S6 3.493539 1_555
Rb1 S11 3.495631 1_555
Rb1 S1 3.529681 1_564
Rb1 S5 3.621717 1_554
Rb1 S1 3.630075 1_554
Rb1 S2 3.676602 1_555
Rb1 S10 3.686073 1_555
Rb1 S4 3.739447 1_564
Rb2 S11 3.396607 1_555
Rb2 S5 3.493539 1_555
Rb2 S8 3.495631 1_555
Rb2 S2 3.529681 1_565
Rb2 S6 3.621717 1_555
Rb2 S2 3.630075 1_555
Rb2 S1 3.676602 1_555
Rb2 S9 3.686073 1_655
Rb2 S7 3.739447 1_665
Rb3 S10 3.396607 1_556
Rb3 S4 3.493539 1_555
Rb3 S9 3.495631 1_555
Rb3 S3 3.529681 1_546
Rb3 S7 3.621717 1_556
Rb3 S3 3.630075 1_556
Rb3 S0 3.676602 1_555
Rb3 S8 3.686073 1_555
Rb3 S6 3.739447 1_546
Cu0 S9 2.230768 1_555
Cu0 S3 2.267378 1_556
Cu0 S5 2.273973 1_455
Cu0 Rb0 3.814402 1_565
Cu1 S8 2.230768 1_555
Cu1 S2 2.267378 1_555
Cu1 S4 2.273973 1_555
Cu1 Rb1 3.814402 1_546
Cu2 S11 2.230768 1_555
Cu2 S1 2.267378 1_554
Cu2 S7 2.273973 1_655
Cu2 Rb2 3.814402 1_545
Cu3 S10 2.230768 1_555
Cu3 S0 2.267378 1_555
Cu3 S6 2.273973 1_555
Cu3 Rb3 3.814402 1_564
P0 S4 2.022562 1_565
P0 S0 2.024372 1_555
P0 S8 2.039911 1_555
P1 S5 2.022562 1_545
P1 S1 2.024372 1_555
P1 S9 2.039911 1_655
P2 S6 2.022562 1_545
P2 S2 2.024372 1_555
P2 S10 2.039911 1_555
P3 S7 2.022562 1_565
P3 S3 2.024372 1_555
P3 S11 2.039911 1_455
