# generated using pymatgen
data_RbVNiF6
_symmetry_space_group_name_H-M   'P 1'
_cell_length_a   7.25062488
_cell_length_b   7.25062505
_cell_length_c   7.25062524
_cell_angle_alpha   120.76290882
_cell_angle_beta   118.77216894
_cell_angle_gamma   90.41169265
_symmetry_Int_Tables_number   1
_chemical_formula_structural   RbVNiF6
_chemical_formula_sum   'Rb2 V2 Ni2 F12'
_cell_volume   270.37096419
_cell_formula_units_Z   2
loop_
 _symmetry_equiv_pos_site_id
 _symmetry_equiv_pos_as_xyz
  1  'x, y, z'
loop_
 _atom_site_type_symbol
 _atom_site_label
 _atom_site_symmetry_multiplicity
 _atom_site_fract_x
 _atom_site_fract_y
 _atom_site_fract_z
 _atom_site_occupancy
  Rb  Rb0  1  0.36770582  0.11770582  0.25000000  1
  Rb  Rb1  1  0.63229418  0.88229418  0.75000000  1
  V  V0  1  0.00000000  0.50000000  0.50000000  1
  V  V1  1  0.50000000  0.50000000  0.00000000  1
  Ni  Ni0  1  0.00000000  0.50000000  0.00000000  1
  Ni  Ni1  1  0.00000000  0.00000000  0.50000000  1
  F  F0  1  0.32150955  0.57150955  0.75000000  1
  F  F1  1  0.92124274  0.17124274  0.75000000  1
  F  F2  1  0.32562122  0.18300447  0.75762591  1
  F  F3  1  0.92537757  0.56799531  0.74237409  1
  F  F4  1  0.32562122  0.56799531  0.14261774  1
  F  F5  1  0.92537757  0.18300447  0.35738226  1
  F  F6  1  0.67849045  0.42849045  0.25000000  1
  F  F7  1  0.07875726  0.82875726  0.25000000  1
  F  F8  1  0.67437878  0.81699553  0.24237409  1
  F  F9  1  0.07462243  0.43200469  0.25762591  1
  F  F10  1  0.67437878  0.43200469  0.85738226  1
  F  F11  1  0.07462243  0.81699553  0.64261774  1
loop_
_geom_bond_atom_site_label_1
_geom_bond_atom_site_label_2
_geom_bond_distance
_geom_bond_site_symmetry_2
F0 V0 1.985503 1_555
F0 V1 1.985503 1_556
F0 Rb1 3.175295 1_555
F1 Ni0 1.964109 1_656
F1 Ni1 1.964109 1_655
F1 Rb1 2.952195 1_545
F2 V1 1.912321 1_556
F2 Ni1 1.999504 1_555
F2 Rb1 3.125043 1_545
F3 V0 1.912327 1_655
F3 Ni0 1.999503 1_656
F3 Rb1 3.125038 1_555
F4 V1 1.912327 1_555
F4 Ni0 1.999503 1_555
F4 Rb1 3.125038 1_555
F5 V0 1.912320 1_655
F5 Ni1 1.999510 1_655
F5 Rb1 3.125038 1_544
F6 V0 1.985503 1_655
F6 V1 1.985503 1_555
F6 Rb0 3.175295 1_555
F7 Ni0 1.964109 1_555
F7 Ni1 1.964109 1_565
F7 Rb0 2.952195 1_565
F8 V1 1.912321 1_555
F8 Ni1 1.999504 1_665
F8 Rb0 3.125043 1_565
F9 V0 1.912327 1_555
F9 Ni0 1.999503 1_555
F9 Rb0 3.125038 1_555
F10 V1 1.912327 1_556
F10 Ni0 1.999503 1_656
F10 Rb0 3.125038 1_555
F11 V0 1.912320 1_555
F11 Ni1 1.999510 1_565
F11 Rb0 3.125038 1_566
