# generated using pymatgen
data_Zr3Ag2OF12
_symmetry_space_group_name_H-M   'P 1'
_cell_length_a   9.99376277
_cell_length_b   9.99376246
_cell_length_c   9.99376274
_cell_angle_alpha   45.02314884
_cell_angle_beta   45.02315096
_cell_angle_gamma   45.02314847
_symmetry_Int_Tables_number   1
_chemical_formula_structural   Zr3Ag2OF12
_chemical_formula_sum   'Zr6 Ag4 O2 F24'
_cell_volume   454.62817050
_cell_formula_units_Z   2
loop_
 _symmetry_equiv_pos_site_id
 _symmetry_equiv_pos_as_xyz
  1  'x, y, z'
loop_
 _atom_site_type_symbol
 _atom_site_label
 _atom_site_symmetry_multiplicity
 _atom_site_fract_x
 _atom_site_fract_y
 _atom_site_fract_z
 _atom_site_occupancy
  Zr  Zr0  1  0.58213487  0.58213487  0.03672801  1
  Zr  Zr1  1  0.03672801  0.58213487  0.58213487  1
  Zr  Zr2  1  0.58213487  0.03672801  0.58213487  1
  Zr  Zr3  1  0.41786513  0.96327199  0.41786513  1
  Zr  Zr4  1  0.96327199  0.41786513  0.41786513  1
  Zr  Zr5  1  0.41786513  0.41786513  0.96327199  1
  Ag  Ag0  1  0.00000000  0.00000000  0.00000000  1
  Ag  Ag1  1  0.50000000  0.50000000  0.50000000  1
  Ag  Ag2  1  0.13263122  0.13263122  0.13263122  1
  Ag  Ag3  1  0.86736878  0.86736878  0.86736878  1
  O  O0  1  0.71695781  0.71695781  0.71695781  1
  O  O1  1  0.28304219  0.28304219  0.28304219  1
  F  F0  1  0.69863535  0.69863535  0.36260748  1
  F  F1  1  0.36260748  0.69863535  0.69863535  1
  F  F2  1  0.69863535  0.36260748  0.69863535  1
  F  F3  1  0.30136465  0.63739252  0.30136465  1
  F  F4  1  0.30136465  0.30136465  0.63739252  1
  F  F5  1  0.63739252  0.30136465  0.30136465  1
  F  F6  1  0.92178421  0.92178421  0.40364988  1
  F  F7  1  0.40364988  0.92178421  0.92178421  1
  F  F8  1  0.65341853  0.34658147  1.00000000  1
  F  F9  1  0.34658147  1.00000000  0.65341853  1
  F  F10  1  0.00000000  0.65341853  0.34658147  1
  F  F11  1  0.34658147  0.65341853  0.00000000  1
  F  F12  1  0.65341853  0.00000000  0.34658147  1
  F  F13  1  1.00000000  0.34658147  0.65341853  1
  F  F14  1  0.90770630  0.33514902  0.33514902  1
  F  F15  1  0.33514902  0.33514902  0.90770630  1
  F  F16  1  0.33514902  0.90770630  0.33514902  1
  F  F17  1  0.66485098  0.09229370  0.66485098  1
  F  F18  1  0.09229370  0.66485098  0.66485098  1
  F  F19  1  0.66485098  0.66485098  0.09229370  1
  F  F20  1  0.59635012  0.07821579  0.07821579  1
  F  F21  1  0.07821579  0.07821579  0.59635012  1
  F  F22  1  0.07821579  0.59635012  0.07821579  1
  F  F23  1  0.92178421  0.40364988  0.92178421  1
loop_
_geom_bond_atom_site_label_1
_geom_bond_atom_site_label_2
_geom_bond_distance
_geom_bond_site_symmetry_2
Ag0 F8 2.652258 1_454
Ag0 F11 2.652258 1_545
Ag0 F13 2.652258 1_454
Ag0 F10 2.652258 1_545
Ag0 F12 2.652258 1_455
Ag0 F9 2.652258 1_544
Ag1 F16 2.624558 1_555
Ag1 F17 2.624558 1_555
Ag1 F14 2.624558 1_555
Ag1 F18 2.624558 1_555
Ag1 F15 2.624558 1_555
Ag1 F19 2.624558 1_555
Ag2 F16 2.484611 1_545
Ag2 F14 2.484611 1_455
Ag2 F15 2.484611 1_554
Ag2 F23 2.521296 1_454
Ag2 F7 2.521296 1_544
Ag2 F6 2.521296 1_445
Ag3 F17 2.484611 1_565
Ag3 F18 2.484611 1_655
Ag3 F19 2.484611 1_556
Ag3 F22 2.521296 1_656
Ag3 F20 2.521296 1_566
Ag3 F21 2.521296 1_665
O0 Zr2 2.058148 1_565
O0 Zr1 2.058148 1_655
O0 Zr0 2.058148 1_556
O1 Zr3 2.058148 1_545
O1 Zr4 2.058148 1_455
O1 Zr5 2.058148 1_554
F0 Zr4 2.134576 1_555
F0 Zr3 2.134576 1_555
F1 Zr5 2.134576 1_555
F1 Zr3 2.134576 1_555
F2 Zr5 2.134576 1_555
F2 Zr4 2.134576 1_555
F3 Zr0 2.134576 1_555
F3 Zr1 2.134576 1_555
F4 Zr1 2.134576 1_555
F4 Zr2 2.134576 1_555
F5 Zr0 2.134576 1_555
F5 Zr2 2.134576 1_555
F6 Zr1 2.201916 1_655
F6 Zr2 2.201917 1_565
F7 Zr0 2.201916 1_556
F7 Zr2 2.201917 1_565
F8 Zr0 2.159856 1_556
F8 Zr5 2.159856 1_555
F9 Zr3 2.159856 1_555
F9 Zr2 2.159856 1_565
F10 Zr4 2.159856 1_455
F10 Zr1 2.159856 1_555
F11 Zr5 2.159856 1_554
F11 Zr0 2.159856 1_555
F12 Zr2 2.159856 1_555
F12 Zr3 2.159856 1_545
F13 Zr1 2.159856 1_655
F13 Zr4 2.159856 1_555
F14 Zr4 1.984667 1_555
F15 Zr5 1.984667 1_555
F16 Zr3 1.984667 1_555
F17 Zr2 1.984667 1_555
F18 Zr1 1.984667 1_555
F19 Zr0 1.984667 1_555
F20 Zr5 2.201916 1_554
F20 Zr3 2.201917 1_545
F21 Zr4 2.201916 1_455
F21 Zr3 2.201917 1_545
F22 Zr5 2.201917 1_554
F22 Zr4 2.201917 1_455
F23 Zr0 2.201917 1_556
F23 Zr1 2.201917 1_655
