# generated using pymatgen
data_Ga10IrPt
_symmetry_space_group_name_H-M   'P 1'
_cell_length_a   6.68145580
_cell_length_b   6.68145534
_cell_length_c   6.68145612
_cell_angle_alpha   122.06986992
_cell_angle_beta   122.06987203
_cell_angle_gamma   86.45077619
_symmetry_Int_Tables_number   1
_chemical_formula_structural   Ga10IrPt
_chemical_formula_sum   'Ga10 Ir1 Pt1'
_cell_volume   203.88611524
_cell_formula_units_Z   1
loop_
 _symmetry_equiv_pos_site_id
 _symmetry_equiv_pos_as_xyz
  1  'x, y, z'
loop_
 _atom_site_type_symbol
 _atom_site_label
 _atom_site_symmetry_multiplicity
 _atom_site_fract_x
 _atom_site_fract_y
 _atom_site_fract_z
 _atom_site_occupancy
  Ga  Ga0  1  0.99948583  0.99948583  0.00000000  1
  Ga  Ga1  1  0.50051417  0.50051417  1.00000000  1
  Ga  Ga2  1  0.78989495  0.28253038  0.79076765  1
  Ga  Ga3  1  0.28253038  0.49176273  0.49263544  1
  Ga  Ga4  1  0.99912730  0.78989495  0.50736456  1
  Ga  Ga5  1  0.71010505  0.50087270  0.49263544  1
  Ga  Ga6  1  0.00823727  0.21746962  0.50736456  1
  Ga  Ga7  1  0.50087270  0.00823727  0.79076765  1
  Ga  Ga8  1  0.21746962  0.71010505  0.20923235  1
  Ga  Ga9  1  0.49176273  0.99912730  0.20923235  1
  Ir  Ir0  1  0.25000000  0.25000000  0.00000000  1
  Pt  Pt0  1  0.75000000  0.75000000  0.00000000  1
loop_
_geom_bond_atom_site_label_1
_geom_bond_atom_site_label_2
_geom_bond_distance
_geom_bond_site_symmetry_2
Ga0 Pt0 2.429266 1_555
Ga0 Ir0 2.439279 1_665
Ga0 Ga3 2.809360 1_665
Ga0 Ga2 2.809360 1_564
Ga0 Ga9 2.809360 1_655
Ga0 Ga4 2.809360 1_554
Ga0 Ga5 2.858926 1_554
Ga0 Ga8 2.858926 1_655
Ga0 Ga7 2.858926 1_564
Ga0 Ga6 2.858926 1_665
Ga1 Pt0 2.429266 1_556
Ga1 Ir0 2.439279 1_556
Ga1 Ga7 2.809360 1_555
Ga1 Ga6 2.809360 1_555
Ga1 Ga8 2.809360 1_556
Ga1 Ga5 2.809360 1_556
Ga1 Ga9 2.858926 1_556
Ga1 Ga4 2.858926 1_556
Ga1 Ga2 2.858926 1_555
Ga1 Ga3 2.858926 1_555
Ga2 Ga9 2.661918 1_545
Ga2 Ir0 2.669902 1_656
Ga2 Pt0 2.727048 1_556
Ga2 Ga7 2.743354 1_555
Ga2 Ga6 2.807758 1_655
Ga2 Ga8 2.861234 1_656
Ga2 Ga5 2.870925 1_555
Ga3 Ga4 2.661918 1_455
Ga3 Ir0 2.669902 1_555
Ga3 Pt0 2.727048 1_556
Ga3 Ga6 2.743354 1_555
Ga3 Ga8 2.807758 1_555
Ga3 Ga5 2.861234 1_555
Ga3 Ga7 2.870925 1_565
Ga4 Ir0 2.669901 1_666
Ga4 Pt0 2.727048 1_555
Ga4 Ga5 2.743354 1_555
Ga4 Ga7 2.807758 1_665
Ga4 Ga6 2.861234 1_665
Ga4 Ga8 2.870925 1_655
Ga5 Ga6 2.661918 1_655
Ga5 Ir0 2.669902 1_555
Ga5 Pt0 2.727048 1_556
Ga5 Ga9 2.807757 1_545
Ga6 Ir0 2.669902 1_556
Ga6 Pt0 2.727048 1_445
Ga6 Ga9 2.870925 1_445
Ga7 Ga8 2.661918 1_545
Ga7 Ir0 2.669902 1_556
Ga7 Pt0 2.727048 1_546
Ga7 Ga9 2.861235 1_546
Ga8 Ir0 2.669902 1_555
Ga8 Pt0 2.727048 1_455
Ga8 Ga9 2.743354 1_555
Ga9 Ir0 2.669902 1_565
Ga9 Pt0 2.727048 1_555
