# generated using pymatgen
data_Cs4Ba2TiAs4
_symmetry_space_group_name_H-M   'P 1'
_cell_length_a   11.00169725
_cell_length_b   11.00169779
_cell_length_c   8.17771404
_cell_angle_alpha   87.43989127
_cell_angle_beta   87.43988147
_cell_angle_gamma   119.06061310
_symmetry_Int_Tables_number   1
_chemical_formula_structural   Cs4Ba2TiAs4
_chemical_formula_sum   'Cs8 Ba4 Ti2 As8'
_cell_volume   861.83492941
_cell_formula_units_Z   2
loop_
 _symmetry_equiv_pos_site_id
 _symmetry_equiv_pos_as_xyz
  1  'x, y, z'
loop_
 _atom_site_type_symbol
 _atom_site_label
 _atom_site_symmetry_multiplicity
 _atom_site_fract_x
 _atom_site_fract_y
 _atom_site_fract_z
 _atom_site_occupancy
  Cs  Cs0  1  0.47566097  0.94493567  0.38987651  1
  Cs  Cs1  1  0.94493567  0.47566097  0.88987651  1
  Cs  Cs2  1  0.86794647  0.72300776  0.15122685  1
  Cs  Cs3  1  0.25550232  0.12049371  0.24682519  1
  Cs  Cs4  1  0.85532468  0.14413594  0.18722666  1
  Cs  Cs5  1  0.12049371  0.25550232  0.74682519  1
  Cs  Cs6  1  0.72300776  0.86794647  0.65122685  1
  Cs  Cs7  1  0.14413594  0.85532468  0.68722666  1
  Ba  Ba0  1  0.07097145  0.53403974  0.40028162  1
  Ba  Ba1  1  0.47715348  0.52928436  0.37838622  1
  Ba  Ba2  1  0.53403974  0.07097145  0.90028162  1
  Ba  Ba3  1  0.52928436  0.47715348  0.87838622  1
  Ti  Ti0  1  0.66407125  0.33762728  0.49173568  1
  Ti  Ti1  1  0.33762728  0.66407125  0.99173568  1
  As  As0  1  0.63572741  0.33038840  0.18484956  1
  As  As1  1  0.33038840  0.63572741  0.68484956  1
  As  As2  1  0.22115873  0.42230178  0.13248775  1
  As  As3  1  0.58554180  0.78778011  0.06534307  1
  As  As4  1  0.22168758  0.79506810  0.08942688  1
  As  As5  1  0.78778011  0.58554180  0.56534307  1
  As  As6  1  0.42230178  0.22115873  0.63248775  1
  As  As7  1  0.79506810  0.22168758  0.58942688  1
loop_
_geom_bond_atom_site_label_1
_geom_bond_atom_site_label_2
_geom_bond_distance
_geom_bond_site_symmetry_2
As0 Ti0 2.542725 1_555
As0 Ba3 3.463667 1_554
As0 Ba2 3.540707 1_554
As0 Cs3 3.661933 1_555
As0 Cs1 3.685942 1_554
As0 Ba1 3.756055 1_555
As0 Cs2 3.790923 1_555
As0 Cs4 3.853028 1_555
As0 Cs0 3.967571 1_545
As1 Ti1 2.542725 1_555
As1 Ba1 3.463667 1_555
As1 Ba0 3.540707 1_555
As1 Cs5 3.661934 1_555
As1 Cs0 3.685942 1_555
As1 Ba3 3.756055 1_555
As1 Cs6 3.790923 1_555
As1 Cs7 3.853028 1_555
As1 Cs1 3.967570 1_455
As2 Ti1 2.515036 1_554
As2 Ba1 3.295157 1_555
As2 Ba0 3.305704 1_555
As2 Cs3 3.607641 1_555
As2 Cs5 3.659980 1_554
As2 Ba3 3.666736 1_554
As2 Cs4 3.676383 1_455
As2 Cs1 3.960252 1_454
As3 Ti1 2.503491 1_554
As3 Ba1 3.441744 1_555
As3 Cs6 3.537439 1_554
As3 Ba3 3.591074 1_554
As3 Cs2 3.599330 1_555
As3 Ba2 3.641090 1_564
As3 Cs0 3.694313 1_555
As3 Cs4 3.805572 1_565
As4 Ti1 2.477881 1_554
As4 Ba0 3.435686 1_555
As4 Ba2 3.519590 1_564
As4 Cs7 3.548357 1_554
As4 Cs2 3.580623 1_455
As4 Cs0 3.614170 1_555
As4 Cs3 3.711307 1_565
As4 Cs1 3.852779 1_454
As5 Ti0 2.503491 1_555
As5 Ba3 3.441744 1_555
As5 Cs2 3.537439 1_555
As5 Ba1 3.591074 1_555
As5 Cs6 3.599330 1_555
As5 Ba0 3.641089 1_655
As5 Cs1 3.694313 1_555
As5 Cs7 3.805572 1_655
As6 Ti0 2.515035 1_555
As6 Ba3 3.295157 1_555
As6 Ba2 3.305704 1_555
As6 Cs5 3.607641 1_555
As6 Cs3 3.659980 1_555
As6 Ba1 3.666737 1_555
As6 Cs7 3.676383 1_545
As6 Cs0 3.960252 1_545
As7 Ti0 2.477881 1_555
As7 Ba2 3.435686 1_555
As7 Ba0 3.519590 1_655
As7 Cs4 3.548356 1_555
As7 Cs6 3.580623 1_545
As7 Cs1 3.614170 1_555
As7 Cs5 3.711307 1_655
As7 Cs0 3.852779 1_545
