# generated using pymatgen
data_Rb3B2PdPt6
_symmetry_space_group_name_H-M   'P 1'
_cell_length_a   8.43587597
_cell_length_b   8.43587628
_cell_length_c   8.43587746
_cell_angle_alpha   39.67123504
_cell_angle_beta   39.67123086
_cell_angle_gamma   39.67123762
_symmetry_Int_Tables_number   1
_chemical_formula_structural   Rb3B2PdPt6
_chemical_formula_sum   'Rb3 B2 Pd1 Pt6'
_cell_volume   220.30055233
_cell_formula_units_Z   1
loop_
 _symmetry_equiv_pos_site_id
 _symmetry_equiv_pos_as_xyz
  1  'x, y, z'
loop_
 _atom_site_type_symbol
 _atom_site_label
 _atom_site_symmetry_multiplicity
 _atom_site_fract_x
 _atom_site_fract_y
 _atom_site_fract_z
 _atom_site_occupancy
  Rb  Rb0  1  0.85651392  0.85651392  0.85651392  1
  Rb  Rb1  1  0.14348608  0.14348608  0.14348608  1
  Rb  Rb2  1  0.00000000  0.00000000  0.00000000  1
  B  B0  1  0.66943674  0.66943674  0.66943674  1
  B  B1  1  0.33056326  0.33056326  0.33056326  1
  Pd  Pd0  1  0.50000000  0.50000000  0.50000000  1
  Pt  Pt0  1  0.44269769  0.92855694  0.44269769  1
  Pt  Pt1  1  0.44269769  0.44269769  0.92855694  1
  Pt  Pt2  1  0.92855694  0.44269769  0.44269769  1
  Pt  Pt3  1  0.55730231  0.07144306  0.55730231  1
  Pt  Pt4  1  0.55730231  0.55730231  0.07144306  1
  Pt  Pt5  1  0.07144306  0.55730231  0.55730231  1
loop_
_geom_bond_atom_site_label_1
_geom_bond_atom_site_label_2
_geom_bond_distance
_geom_bond_site_symmetry_2
Rb0 Rb2 3.340947 1_666
Rb1 Rb2 3.340947 1_555
B0 Pt5 2.188819 1_655
B0 Pt3 2.188819 1_565
B0 Pt4 2.188820 1_556
B0 Pt1 2.203291 1_555
B0 Pt2 2.203292 1_555
B0 Pt0 2.203292 1_555
B0 Rb2 3.305942 1_566
B0 Rb2 3.305942 1_665
B0 Rb2 3.305942 1_656
B1 Pt2 2.188819 1_455
B1 Pt0 2.188819 1_545
B1 Pt1 2.188820 1_554
B1 Pt4 2.203291 1_555
B1 Pt5 2.203292 1_555
B1 Pt3 2.203292 1_555
B1 Rb2 3.305942 1_655
B1 Rb2 3.305942 1_556
B1 Rb2 3.305942 1_565
Pd0 Pt2 2.918301 1_555
Pd0 Pt5 2.918301 1_555
Pd0 Pt0 2.918301 1_555
Pd0 Pt3 2.918301 1_555
Pd0 Pt1 2.918302 1_555
Pd0 Pt4 2.918302 1_555
Pd0 Rb1 3.349091 1_556
Pd0 Rb0 3.349091 1_554
Pd0 Rb0 3.349091 1_455
Pd0 Rb1 3.349091 1_655
Pd0 Rb0 3.349091 1_545
Pd0 Rb1 3.349091 1_565
Pt0 Rb2 3.206415 1_665
Pt0 Rb2 3.206415 1_566
Pt0 Rb1 3.427411 1_565
Pt0 Rb0 3.434307 1_455
Pt0 Rb0 3.434308 1_554
Pt1 Rb2 3.206415 1_656
Pt1 Rb2 3.206415 1_566
Pt1 Rb1 3.427411 1_556
Pt1 Rb0 3.434307 1_455
Pt1 Rb0 3.434308 1_545
Pt2 Rb2 3.206415 1_665
Pt2 Rb2 3.206416 1_656
Pt2 Rb1 3.427411 1_655
Pt2 Rb0 3.434307 1_545
Pt2 Rb0 3.434308 1_554
Pt3 Rb2 3.206415 1_556
Pt3 Rb2 3.206415 1_655
Pt3 Rb0 3.427411 1_545
Pt3 Rb1 3.434307 1_655
Pt3 Rb1 3.434308 1_556
Pt4 Rb2 3.206415 1_565
Pt4 Rb2 3.206415 1_655
Pt4 Rb0 3.427411 1_554
Pt4 Rb1 3.434307 1_655
Pt4 Rb1 3.434308 1_565
Pt5 Rb2 3.206415 1_556
Pt5 Rb2 3.206416 1_565
Pt5 Rb0 3.427411 1_455
Pt5 Rb1 3.434307 1_565
Pt5 Rb1 3.434308 1_556
