# generated using pymatgen
data_Hf6Be14AlPd8
_symmetry_space_group_name_H-M   'P 1'
_cell_length_a   8.07731536
_cell_length_b   8.07731576
_cell_length_c   8.07731588
_cell_angle_alpha   60.00000354
_cell_angle_beta   60.00000191
_cell_angle_gamma   60.00000057
_symmetry_Int_Tables_number   1
_chemical_formula_structural   Hf6Be14AlPd8
_chemical_formula_sum   'Hf6 Be14 Al1 Pd8'
_cell_volume   372.63718364
_cell_formula_units_Z   1
loop_
 _symmetry_equiv_pos_site_id
 _symmetry_equiv_pos_as_xyz
  1  'x, y, z'
loop_
 _atom_site_type_symbol
 _atom_site_label
 _atom_site_symmetry_multiplicity
 _atom_site_fract_x
 _atom_site_fract_y
 _atom_site_fract_z
 _atom_site_occupancy
  Hf  Hf0  1  0.69995902  0.30004098  0.30004098  1
  Hf  Hf1  1  0.30004098  0.69995902  0.69995902  1
  Hf  Hf2  1  0.30004098  0.69995902  0.30004098  1
  Hf  Hf3  1  0.69995902  0.30004098  0.69995902  1
  Hf  Hf4  1  0.30004098  0.30004098  0.69995902  1
  Hf  Hf5  1  0.69995902  0.69995902  0.30004098  1
  Be  Be0  1  0.32803907  0.32803907  0.32803907  1
  Be  Be1  1  0.67196093  0.67196093  0.67196093  1
  Be  Be2  1  0.32803907  0.32803907  0.01588380  1
  Be  Be3  1  0.32803907  0.01588380  0.32803907  1
  Be  Be4  1  0.67196093  0.67196093  0.98411620  1
  Be  Be5  1  0.67196093  0.98411620  0.67196093  1
  Be  Be6  1  0.01588380  0.32803907  0.32803907  1
  Be  Be7  1  0.98411620  0.67196093  0.67196093  1
  Be  Be8  1  0.50000000  0.00000000  0.00000000  1
  Be  Be9  1  0.00000000  0.50000000  0.50000000  1
  Be  Be10  1  0.00000000  0.50000000  0.00000000  1
  Be  Be11  1  0.50000000  0.00000000  0.50000000  1
  Be  Be12  1  0.00000000  0.00000000  0.50000000  1
  Be  Be13  1  0.50000000  0.50000000  0.00000000  1
  Al  Al0  1  0.00000000  0.00000000  0.00000000  1
  Pd  Pd0  1  0.12764300  0.12764300  0.12764300  1
  Pd  Pd1  1  0.87235700  0.87235700  0.87235700  1
  Pd  Pd2  1  0.12764300  0.12764300  0.61707201  1
  Pd  Pd3  1  0.12764300  0.61707201  0.12764300  1
  Pd  Pd4  1  0.87235700  0.87235700  0.38292799  1
  Pd  Pd5  1  0.87235700  0.38292799  0.87235700  1
  Pd  Pd6  1  0.61707201  0.12764300  0.12764300  1
  Pd  Pd7  1  0.38292799  0.87235700  0.87235700  1
loop_
_geom_bond_atom_site_label_1
_geom_bond_atom_site_label_2
_geom_bond_distance
_geom_bond_site_symmetry_2
Hf0 Pd6 2.851333 1_555
Hf0 Pd0 2.851339 1_655
Hf0 Pd4 2.851340 1_545
Hf0 Pd5 2.851340 1_554
Hf0 Hf2 3.230264 1_555
Hf0 Hf5 3.230264 1_555
Hf0 Hf4 3.230264 1_555
Hf0 Hf3 3.230264 1_555
Hf1 Pd7 2.851333 1_555
Hf1 Pd1 2.851339 1_455
Hf1 Pd2 2.851340 1_565
Hf1 Pd3 2.851340 1_556
Hf1 Hf3 3.230264 1_555
Hf1 Hf4 3.230264 1_555
Hf1 Hf5 3.230264 1_555
Hf1 Hf2 3.230264 1_555
Hf2 Pd3 2.851333 1_555
Hf2 Pd0 2.851339 1_565
Hf2 Pd4 2.851340 1_455
Hf2 Pd7 2.851340 1_554
Hf2 Hf5 3.230264 1_555
Hf2 Hf4 3.230265 1_555
Hf3 Pd5 2.851333 1_555
Hf3 Pd1 2.851339 1_545
Hf3 Pd2 2.851340 1_655
Hf3 Pd6 2.851340 1_556
Hf3 Hf4 3.230264 1_555
Hf3 Hf5 3.230265 1_555
Hf4 Pd2 2.851333 1_555
Hf4 Pd0 2.851339 1_556
Hf4 Pd5 2.851340 1_455
Hf4 Pd7 2.851340 1_545
Hf5 Pd4 2.851333 1_555
Hf5 Pd1 2.851339 1_554
Hf5 Pd3 2.851340 1_655
Hf5 Pd6 2.851340 1_565
Be0 Be9 2.334072 1_555
Be0 Be11 2.334072 1_555
Be0 Be13 2.334072 1_555
Be0 Pd6 2.398482 1_555
Be0 Pd3 2.398482 1_555
Be0 Pd2 2.398482 1_555
Be0 Be6 2.521376 1_555
Be0 Be3 2.521377 1_555
Be0 Be2 2.521377 1_555
Be0 Hf0 2.796315 1_555
Be0 Hf2 2.796315 1_555
Be0 Hf4 2.796315 1_555
Be1 Be9 2.334072 1_655
Be1 Be11 2.334072 1_565
Be1 Be13 2.334072 1_556
Be1 Pd7 2.398482 1_555
Be1 Pd5 2.398482 1_555
Be1 Pd4 2.398482 1_555
Be1 Be7 2.521376 1_555
Be1 Be5 2.521377 1_555
Be1 Be4 2.521377 1_555
Be1 Hf1 2.796315 1_555
Be1 Hf3 2.796315 1_555
Be1 Hf5 2.796315 1_555
Be2 Be8 2.334074 1_555
Be2 Pd6 2.398482 1_555
Be2 Pd0 2.398482 1_555
Be2 Pd3 2.398482 1_555
Be2 Be6 2.521377 1_555
Be2 Be3 2.521377 1_555
Be2 Hf3 2.796319 1_554
Be2 Hf1 2.796319 1_554
Be2 Hf4 2.796323 1_554
Be3 Be8 2.334075 1_555
Be3 Pd0 2.398482 1_555
Be3 Pd6 2.398482 1_555
Be3 Pd2 2.398482 1_555
Be3 Be6 2.521377 1_555
Be3 Hf5 2.796319 1_545
Be3 Hf1 2.796319 1_545
Be3 Hf2 2.796323 1_545
Be4 Be8 2.334074 1_566
Be4 Pd7 2.398482 1_555
Be4 Pd1 2.398482 1_555
Be4 Pd5 2.398482 1_555
Be4 Be7 2.521377 1_555
Be4 Be5 2.521377 1_555
Be4 Hf2 2.796319 1_556
Be4 Hf0 2.796319 1_556
Be4 Hf5 2.796323 1_556
Be5 Be8 2.334075 1_566
Be5 Pd1 2.398482 1_555
Be5 Pd7 2.398482 1_555
Be5 Pd4 2.398482 1_555
Be5 Be7 2.521377 1_555
Be5 Hf4 2.796319 1_565
Be5 Hf0 2.796319 1_565
Be5 Hf3 2.796323 1_565
Be6 Be9 2.334067 1_555
Be6 Pd0 2.398482 1_555
Be6 Pd2 2.398482 1_555
Be6 Pd3 2.398482 1_555
Be6 Hf5 2.796319 1_455
Be6 Hf3 2.796319 1_455
Be6 Hf0 2.796323 1_455
Be7 Be9 2.334067 1_655
Be7 Pd1 2.398482 1_555
Be7 Pd4 2.398482 1_555
Be7 Pd5 2.398482 1_555
Be7 Hf4 2.796319 1_655
Be7 Hf2 2.796319 1_655
Be7 Hf1 2.796323 1_655
Be8 Pd1 2.456227 1_544
Be8 Pd0 2.456227 1_555
Be8 Pd6 2.456233 1_555
Be8 Pd7 2.456233 1_544
Be8 Hf5 2.912410 1_545
Be8 Hf4 2.912410 1_554
Be8 Hf3 2.912410 1_554
Be8 Hf2 2.912410 1_545
Be9 Pd4 2.456227 1_455
Be9 Pd2 2.456227 1_555
Be9 Pd5 2.456227 1_455
Be9 Pd3 2.456227 1_555
Be9 Hf4 2.912409 1_555
Be9 Hf5 2.912409 1_455
Be9 Hf2 2.912409 1_555
Be9 Hf3 2.912409 1_455
Be10 Be2 2.334074 1_555
Be10 Be4 2.334074 1_454
Be10 Be6 2.334075 1_555
Be10 Be7 2.334075 1_454
Be10 Pd0 2.456227 1_555
Be10 Pd1 2.456227 1_454
Be10 Pd3 2.456233 1_555
Be10 Pd5 2.456233 1_454
Be10 Hf5 2.912409 1_455
Be10 Hf4 2.912409 1_554
Be10 Hf1 2.912409 1_554
Be10 Hf0 2.912409 1_455
Be11 Be5 2.334067 1_545
Be11 Be3 2.334067 1_555
Be11 Pd4 2.456227 1_545
Be11 Pd2 2.456227 1_555
Be11 Pd7 2.456227 1_545
Be11 Pd6 2.456227 1_555
Be11 Hf4 2.912409 1_555
Be11 Hf5 2.912409 1_545
Be11 Hf0 2.912409 1_555
Be11 Hf1 2.912409 1_545
Be12 Be3 2.334074 1_555
Be12 Be5 2.334074 1_445
Be12 Be6 2.334075 1_555
Be12 Be7 2.334075 1_445
Be12 Pd1 2.456227 1_445
Be12 Pd0 2.456227 1_555
Be12 Pd2 2.456233 1_555
Be12 Pd4 2.456233 1_445
Be12 Hf3 2.912409 1_455
Be12 Hf2 2.912409 1_545
Be12 Hf1 2.912409 1_545
Be12 Hf0 2.912409 1_455
Be13 Be4 2.334067 1_554
Be13 Be2 2.334067 1_555
Be13 Pd5 2.456227 1_554
Be13 Pd3 2.456227 1_555
Be13 Pd7 2.456227 1_554
Be13 Pd6 2.456227 1_555
Be13 Hf0 2.912409 1_555
Be13 Hf1 2.912409 1_554
Be13 Hf2 2.912409 1_555
Be13 Hf3 2.912409 1_554
Al0 Pd7 2.525449 1_544
Al0 Pd6 2.525449 1_455
Al0 Pd5 2.525449 1_454
Al0 Pd3 2.525449 1_545
Al0 Pd4 2.525449 1_445
Al0 Pd2 2.525449 1_554
Al0 Pd0 2.525455 1_555
Al0 Pd1 2.525455 1_444
Pd0 Pd5 2.916145 1_454
Pd0 Pd7 2.916145 1_544
Pd0 Pd4 2.916145 1_445
Pd1 Pd3 2.916145 1_656
Pd1 Pd6 2.916145 1_566
Pd1 Pd2 2.916145 1_665
Pd2 Pd5 2.916133 1_455
Pd2 Pd7 2.916133 1_545
Pd3 Pd4 2.916133 1_455
Pd3 Pd7 2.916133 1_554
Pd4 Pd6 2.916133 1_565
Pd5 Pd6 2.916133 1_556
