# generated using pymatgen
data_Rb2Hf(SiO3)3
_symmetry_space_group_name_H-M   'P 1'
_cell_length_a   7.03830226
_cell_length_b   7.03830212
_cell_length_c   10.20112976
_cell_angle_alpha   90.00000000
_cell_angle_beta   90.00000000
_cell_angle_gamma   120.00000516
_symmetry_Int_Tables_number   1
_chemical_formula_structural   Rb2Hf(SiO3)3
_chemical_formula_sum   'Rb4 Hf2 Si6 O18'
_cell_volume   437.63767214
_cell_formula_units_Z   2
loop_
 _symmetry_equiv_pos_site_id
 _symmetry_equiv_pos_as_xyz
  1  'x, y, z'
loop_
 _atom_site_type_symbol
 _atom_site_label
 _atom_site_symmetry_multiplicity
 _atom_site_fract_x
 _atom_site_fract_y
 _atom_site_fract_z
 _atom_site_occupancy
  Rb  Rb0  1  0.33333300  0.66666700  0.05953860  1
  Rb  Rb1  1  0.66666700  0.33333300  0.55953860  1
  Rb  Rb2  1  0.33333300  0.66666700  0.44046140  1
  Rb  Rb3  1  0.66666700  0.33333300  0.94046140  1
  Hf  Hf0  1  0.00000000  0.00000000  0.00000000  1
  Hf  Hf1  1  0.00000000  0.00000000  0.50000000  1
  Si  Si0  1  0.61435277  0.75042268  0.75000000  1
  Si  Si1  1  0.86393009  0.61435277  0.25000000  1
  Si  Si2  1  0.75042268  0.13606991  0.25000000  1
  Si  Si3  1  0.24957732  0.86393009  0.75000000  1
  Si  Si4  1  0.13606991  0.38564723  0.75000000  1
  Si  Si5  1  0.38564723  0.24957732  0.25000000  1
  O  O0  1  0.25499960  0.22070070  0.38372926  1
  O  O1  1  0.03429890  0.25499960  0.88372926  1
  O  O2  1  0.22070070  0.96570110  0.88372926  1
  O  O3  1  0.77929930  0.03429890  0.38372926  1
  O  O4  1  0.96570110  0.74500040  0.38372926  1
  O  O5  1  0.74500040  0.77929930  0.88372926  1
  O  O6  1  0.74500040  0.77929930  0.61627074  1
  O  O7  1  0.96570110  0.74500040  0.11627074  1
  O  O8  1  0.77929930  0.03429890  0.11627074  1
  O  O9  1  0.22070070  0.96570110  0.61627074  1
  O  O10  1  0.03429890  0.25499960  0.61627074  1
  O  O11  1  0.25499960  0.22070070  0.11627074  1
  O  O12  1  0.49524800  0.09021654  0.25000000  1
  O  O13  1  0.40503145  0.49524800  0.75000000  1
  O  O14  1  0.09021654  0.59496855  0.75000000  1
  O  O15  1  0.90978346  0.40503145  0.25000000  1
  O  O16  1  0.59496855  0.50475200  0.25000000  1
  O  O17  1  0.50475200  0.90978346  0.75000000  1
loop_
_geom_bond_atom_site_label_1
_geom_bond_atom_site_label_2
_geom_bond_distance
_geom_bond_site_symmetry_2
Hf0 O11 2.062281 1_555
Hf0 O5 2.062281 1_444
Hf0 O7 2.062281 1_445
Hf0 O1 2.062281 1_554
Hf0 O8 2.062282 1_455
Hf0 O2 2.062282 1_544
Hf1 O0 2.062281 1_555
Hf1 O6 2.062281 1_445
Hf1 O10 2.062281 1_555
Hf1 O4 2.062281 1_445
Hf1 O9 2.062282 1_545
Hf1 O3 2.062282 1_455
O0 Si5 1.600306 1_555
O0 Rb2 2.959848 1_555
O0 Rb1 3.153276 1_555
O1 Si4 1.600306 1_555
O1 Rb3 2.959841 1_455
O1 Rb0 3.153275 1_556
O2 Si3 1.600306 1_555
O2 Rb3 2.959845 1_565
O2 Rb0 3.153271 1_556
O3 Si2 1.600306 1_555
O3 Rb2 2.959845 1_545
O3 Rb1 3.153271 1_555
O4 Si1 1.600306 1_555
O4 Rb2 2.959841 1_655
O4 Rb1 3.153275 1_555
O5 Si0 1.600306 1_555
O5 Rb3 2.959848 1_555
O5 Rb0 3.153276 1_556
O6 Si0 1.600306 1_555
O6 Rb1 2.959848 1_555
O6 Rb2 3.153276 1_555
O7 Si1 1.600306 1_555
O7 Rb0 2.959841 1_655
O7 Rb3 3.153275 1_554
O8 Si2 1.600306 1_555
O8 Rb0 2.959845 1_545
O8 Rb3 3.153271 1_554
O9 Si3 1.600306 1_555
O9 Rb1 2.959845 1_565
O9 Rb2 3.153271 1_555
O10 Si4 1.600306 1_555
O10 Rb1 2.959841 1_455
O10 Rb2 3.153275 1_555
O11 Si5 1.600306 1_555
O11 Rb0 2.959848 1_555
O11 Rb3 3.153276 1_554
O12 Si5 1.648740 1_555
O12 Si2 1.658353 1_555
O12 Rb2 3.250104 1_545
O12 Rb0 3.250104 1_545
O13 Si4 1.648740 1_555
O13 Si0 1.658353 1_555
O13 Rb3 3.250109 1_555
O13 Rb1 3.250109 1_555
O14 Si3 1.648740 1_555
O14 Si4 1.658353 1_555
O14 Rb3 3.250105 1_455
O14 Rb1 3.250105 1_455
O15 Si2 1.648740 1_555
O15 Si1 1.658353 1_555
O15 Rb2 3.250105 1_655
O15 Rb0 3.250105 1_655
O16 Si1 1.648740 1_555
O16 Si5 1.658353 1_555
O16 Rb2 3.250109 1_555
O16 Rb0 3.250109 1_555
O17 Si0 1.648740 1_555
O17 Si3 1.658353 1_555
O17 Rb3 3.250104 1_565
O17 Rb1 3.250104 1_565
