# generated using pymatgen
data_Ba5SrP6
_symmetry_space_group_name_H-M   'P 1'
_cell_length_a   8.41601696
_cell_length_b   8.48961223
_cell_length_c   6.38221900
_cell_angle_alpha   90.00000000
_cell_angle_beta   90.00000000
_cell_angle_gamma   119.71365218
_symmetry_Int_Tables_number   1
_chemical_formula_structural   Ba5SrP6
_chemical_formula_sum   'Ba5 Sr1 P6'
_cell_volume   396.04332576
_cell_formula_units_Z   1
loop_
 _symmetry_equiv_pos_site_id
 _symmetry_equiv_pos_as_xyz
  1  'x, y, z'
loop_
 _atom_site_type_symbol
 _atom_site_label
 _atom_site_symmetry_multiplicity
 _atom_site_fract_x
 _atom_site_fract_y
 _atom_site_fract_z
 _atom_site_occupancy
  Ba  Ba0  1  0.00135773  0.63832208  0.50000000  1
  Ba  Ba1  1  0.36303565  0.36167792  0.50000000  1
  Ba  Ba2  1  0.63761178  1.00000000  0.50000000  1
  Ba  Ba3  1  0.00158042  0.30244341  0.00000000  1
  Ba  Ba4  1  0.69913602  0.69755659  0.00000000  1
  Sr  Sr0  1  0.30571417  0.00000000  0.00000000  1
  P  P0  1  0.65627196  0.32428325  0.17890797  1
  P  P1  1  0.65627196  0.32428325  0.82109203  1
  P  P2  1  0.33198772  0.67571675  0.82109203  1
  P  P3  1  0.33198772  0.67571675  0.17890797  1
  P  P4  1  0.00752193  0.00000000  0.67632011  1
  P  P5  1  0.00752193  0.00000000  0.32367989  1
loop_
_geom_bond_atom_site_label_1
_geom_bond_atom_site_label_2
_geom_bond_distance
_geom_bond_site_symmetry_2
Ba0 P4 3.246400 1_565
Ba0 P5 3.246400 1_565
Ba0 P2 3.341767 1_555
Ba0 P3 3.341767 1_555
Ba0 P1 3.473661 1_455
Ba0 P0 3.473661 1_455
Ba1 P5 3.246400 1_555
Ba1 P4 3.246400 1_555
Ba1 P1 3.341773 1_555
Ba1 P0 3.341773 1_555
Ba1 P2 3.473665 1_555
Ba1 P3 3.473665 1_555
Ba2 P5 3.310311 1_665
Ba2 P4 3.310311 1_665
Ba2 P1 3.372660 1_565
Ba2 P0 3.372660 1_565
Ba2 P2 3.372662 1_555
Ba2 P3 3.372662 1_555
Ba3 P0 3.212142 1_455
Ba3 P1 3.212142 1_454
Ba3 P3 3.216025 1_555
Ba3 P2 3.216025 1_554
Ba3 P4 3.315117 1_554
Ba3 P5 3.315117 1_555
Ba4 P3 3.212142 1_555
Ba4 P2 3.212142 1_554
Ba4 P0 3.216032 1_555
Ba4 P1 3.216032 1_554
Ba4 P4 3.315120 1_664
Ba4 P5 3.315120 1_665
P0 P1 2.283660 1_554
P0 Sr0 3.087943 1_555
P1 Sr0 3.087943 1_556
P2 P3 2.283660 1_556
P2 Sr0 3.087938 1_566
P3 Sr0 3.087938 1_565
P4 P5 2.250627 1_555
P4 Sr0 3.250471 1_556
P5 Sr0 3.250471 1_555
