# generated using pymatgen
data_Ti2Nb12SiP7
_symmetry_space_group_name_H-M   'P 1'
_cell_length_a   7.69930322
_cell_length_b   7.69930279
_cell_length_c   13.83209201
_cell_angle_alpha   75.94007242
_cell_angle_beta   75.94007358
_cell_angle_gamma   26.01813352
_symmetry_Int_Tables_number   1
_chemical_formula_structural   Ti2Nb12SiP7
_chemical_formula_sum   'Ti2 Nb12 Si1 P7'
_cell_volume   348.31869182
_cell_formula_units_Z   1
loop_
 _symmetry_equiv_pos_site_id
 _symmetry_equiv_pos_as_xyz
  1  'x, y, z'
loop_
 _atom_site_type_symbol
 _atom_site_label
 _atom_site_symmetry_multiplicity
 _atom_site_fract_x
 _atom_site_fract_y
 _atom_site_fract_z
 _atom_site_occupancy
  Ti  Ti0  1  0.99877536  0.99877536  0.00079832  1
  Ti  Ti1  1  0.50064134  0.50064134  0.49991545  1
  Nb  Nb0  1  0.42991789  0.42991789  0.17239076  1
  Nb  Nb1  1  0.56847835  0.56847835  0.82623851  1
  Nb  Nb2  1  0.19714350  0.19714350  0.68656591  1
  Nb  Nb3  1  0.80420521  0.80420521  0.31277176  1
  Nb  Nb4  1  0.20889391  0.20889391  0.20147029  1
  Nb  Nb5  1  0.79321172  0.79321172  0.79500382  1
  Nb  Nb6  1  0.33686218  0.33686218  0.97213568  1
  Nb  Nb7  1  0.66161334  0.66161334  0.03124723  1
  Nb  Nb8  1  0.00291253  0.00291253  0.33547450  1
  Nb  Nb9  1  0.99724830  0.99724830  0.66473911  1
  Nb  Nb10  1  0.17381253  0.17381253  0.45808957  1
  Nb  Nb11  1  0.82609701  0.82609701  0.54169575  1
  Si  Si0  1  0.17486376  0.17486376  0.88939613  1
  P  P0  1  0.82546720  0.82546720  0.11133970  1
  P  P1  1  0.37587839  0.37587839  0.39912591  1
  P  P2  1  0.62408112  0.62408112  0.60179054  1
  P  P3  1  0.37240957  0.37240957  0.66125021  1
  P  P4  1  0.62849413  0.62849413  0.33753335  1
  P  P5  1  0.06182507  0.06182507  0.15018652  1
  P  P6  1  0.93716860  0.93716860  0.85083999  1
loop_
_geom_bond_atom_site_label_1
_geom_bond_atom_site_label_2
_geom_bond_distance
_geom_bond_site_symmetry_2
Nb0 P5 2.590695 1_565
Nb0 P5 2.590695 1_655
Nb0 P0 2.613946 1_545
Nb0 P0 2.613947 1_455
Nb0 P1 3.037307 1_555
Nb1 P6 2.581970 1_545
Nb1 P6 2.581970 1_455
Nb1 Si0 2.647643 1_565
Nb1 Si0 2.647643 1_655
Nb1 P2 3.007134 1_555
Nb2 P2 2.494288 1_545
Nb2 P2 2.494289 1_455
Nb2 P3 2.564793 1_555
Nb2 Si0 2.741400 1_555
Nb3 P1 2.495482 1_565
Nb3 P1 2.495482 1_655
Nb3 P4 2.572338 1_555
Nb3 P0 2.724261 1_555
Nb4 P5 2.480426 1_555
Nb4 P0 2.555331 1_455
Nb4 P0 2.555331 1_545
Nb4 P4 2.620851 1_545
Nb4 P4 2.620852 1_455
Nb5 P6 2.468451 1_555
Nb5 Si0 2.589453 1_655
Nb5 Si0 2.589454 1_565
Nb5 P3 2.596597 1_565
Nb5 P3 2.596597 1_655
Nb6 P0 2.564445 1_546
Nb6 P0 2.564445 1_456
Nb6 P6 2.612367 1_455
Nb6 P6 2.612367 1_545
Nb6 Si0 2.933321 1_555
Nb7 Si0 2.588176 1_564
Nb7 Si0 2.588176 1_654
Nb7 P5 2.593000 1_655
Nb7 P5 2.593001 1_565
Nb7 P0 2.937517 1_555
Nb8 P5 2.494025 1_555
Nb8 P1 2.564138 1_545
Nb8 P1 2.564138 1_455
Nb8 P4 2.565426 1_455
Nb8 P4 2.565426 1_545
Nb9 P6 2.506342 1_555
Nb9 P2 2.560630 1_565
Nb9 P2 2.560630 1_655
Nb9 P3 2.561126 1_655
Nb9 P3 2.561127 1_565
Nb10 P2 2.602280 1_545
Nb10 P2 2.602280 1_455
Nb10 P4 2.610025 1_545
Nb10 P4 2.610025 1_455
Nb10 P1 2.936531 1_555
Nb11 P1 2.591546 1_565
Nb11 P1 2.591546 1_655
Nb11 P3 2.606591 1_565
Nb11 P3 2.606591 1_655
Nb11 P2 2.936169 1_555
Si0 Ti0 2.706310 1_446
P0 Ti0 2.667656 1_555
P1 Ti1 2.597852 1_555
P2 Ti1 2.591730 1_555
P3 Ti1 2.557433 1_555
P4 Ti1 2.564363 1_555
P5 Ti0 2.477780 1_445
P6 Ti0 2.472425 1_556
