# generated using pymatgen
data_Ca4Bi3Sb3Rh7
_symmetry_space_group_name_H-M   'P 1'
_cell_length_a   7.66619010
_cell_length_b   7.69309332
_cell_length_c   7.66619043
_cell_angle_alpha   109.54232876
_cell_angle_beta   109.40003484
_cell_angle_gamma   109.54232835
_symmetry_Int_Tables_number   1
_chemical_formula_structural   Ca4Bi3Sb3Rh7
_chemical_formula_sum   'Ca4 Bi3 Sb3 Rh7'
_cell_volume   347.74135162
_cell_formula_units_Z   1
loop_
 _symmetry_equiv_pos_site_id
 _symmetry_equiv_pos_as_xyz
  1  'x, y, z'
loop_
 _atom_site_type_symbol
 _atom_site_label
 _atom_site_symmetry_multiplicity
 _atom_site_fract_x
 _atom_site_fract_y
 _atom_site_fract_z
 _atom_site_occupancy
  Ca  Ca0  1  0.50891083  0.00232994  1.00000000  1
  Ca  Ca1  1  0.00000000  0.47699613  0.00000000  1
  Ca  Ca2  1  1.00000000  0.00232994  0.50891083  1
  Ca  Ca3  1  0.49108917  0.49341911  0.49108917  1
  Bi  Bi0  1  0.30680662  0.99329628  0.30680662  1
  Bi  Bi1  1  1.00000000  0.68649066  0.69319338  1
  Bi  Bi2  1  0.69319338  0.68649066  1.00000000  1
  Sb  Sb0  1  0.67119026  0.99587740  0.67119026  1
  Sb  Sb1  1  0.00000000  0.32468714  0.32880974  1
  Sb  Sb2  1  0.32880974  0.32468714  0.00000000  1
  Rh  Rh0  1  0.25091736  0.49602845  0.75003880  1
  Rh  Rh1  1  0.49912244  0.24511109  0.74908264  1
  Rh  Rh2  1  0.74908264  0.24511109  0.49912244  1
  Rh  Rh3  1  0.50087756  0.74598866  0.24996120  1
  Rh  Rh4  1  1.00000000  0.03914119  1.00000000  1
  Rh  Rh5  1  0.24996120  0.74598866  0.50087756  1
  Rh  Rh6  1  0.75003880  0.49602845  0.25091736  1
loop_
_geom_bond_atom_site_label_1
_geom_bond_atom_site_label_2
_geom_bond_distance
_geom_bond_site_symmetry_2
Ca0 Rh6 3.097689 1_556
Ca0 Rh1 3.097689 1_555
Ca0 Rh5 3.123705 1_545
Ca0 Rh2 3.123705 1_556
Ca0 Sb1 3.153578 1_656
Ca0 Sb0 3.153579 1_545
Ca0 Rh0 3.176487 1_545
Ca0 Rh3 3.176494 1_546
Ca0 Sb2 3.216676 1_556
Ca1 Sb0 3.114953 1_444
Ca1 Sb2 3.114954 1_555
Ca1 Sb1 3.114954 1_555
Ca1 Rh3 3.137130 1_555
Ca1 Rh5 3.137130 1_555
Ca1 Rh1 3.137130 1_454
Ca1 Rh2 3.137130 1_454
Ca1 Rh6 3.137138 1_455
Ca1 Rh0 3.137138 1_554
Ca1 Rh4 3.368459 1_454
Ca2 Rh0 3.097689 1_655
Ca2 Rh2 3.097689 1_555
Ca2 Rh3 3.123705 1_545
Ca2 Rh1 3.123705 1_655
Ca2 Sb2 3.153578 1_656
Ca2 Sb0 3.153579 1_545
Ca2 Rh6 3.176487 1_545
Ca2 Rh5 3.176493 1_645
Ca2 Sb1 3.216676 1_655
Ca3 Rh5 3.097683 1_555
Ca3 Rh3 3.097683 1_555
Ca3 Rh6 3.123700 1_555
Ca3 Rh0 3.123700 1_555
Ca3 Sb1 3.153578 1_555
Ca3 Sb2 3.153578 1_555
Ca3 Rh2 3.176487 1_555
Ca3 Rh1 3.176487 1_555
Ca3 Sb0 3.216676 1_555
Bi0 Rh3 2.791573 1_555
Bi0 Rh5 2.791573 1_555
Bi0 Rh2 2.792248 1_565
Bi0 Rh1 2.792248 1_565
Bi0 Rh4 2.936562 1_464
Bi0 Ca3 3.193149 1_565
Bi0 Ca2 3.224234 1_465
Bi0 Ca0 3.224234 1_564
Bi0 Ca1 3.265806 1_555
Bi1 Rh0 2.791579 1_655
Bi1 Rh2 2.791579 1_555
Bi1 Rh6 2.792248 1_555
Bi1 Rh5 2.792254 1_655
Bi1 Rh4 2.936557 1_565
Bi1 Ca2 3.193142 1_565
Bi1 Ca0 3.224233 1_665
Bi1 Ca3 3.224233 1_555
Bi1 Ca1 3.265812 1_656
Bi2 Rh6 2.791579 1_556
Bi2 Rh1 2.791579 1_555
Bi2 Rh0 2.792248 1_555
Bi2 Rh3 2.792254 1_556
Bi2 Rh4 2.936557 1_565
Bi2 Ca0 3.193142 1_565
Bi2 Ca2 3.224233 1_566
Bi2 Ca3 3.224233 1_555
Bi2 Ca1 3.265812 1_656
Rh0 Sb1 2.682350 1_555
Rh0 Sb2 2.687444 1_556
Rh1 Sb2 2.682357 1_556
Rh1 Sb0 2.687438 1_545
Rh2 Sb1 2.682357 1_655
Rh2 Sb0 2.687438 1_545
Rh3 Sb0 2.682350 1_555
Rh3 Sb2 2.687439 1_555
Rh4 Sb0 2.734069 1_545
Rh4 Sb2 2.734069 1_656
Rh4 Sb1 2.734069 1_656
Rh5 Sb0 2.682350 1_555
Rh5 Sb1 2.687439 1_555
Rh6 Sb2 2.682350 1_555
Rh6 Sb1 2.687444 1_655
