# generated using pymatgen
data_Cs2Lu(TeO4)3
_symmetry_space_group_name_H-M   'P 1'
_cell_length_a   7.46057689
_cell_length_b   7.30499652
_cell_length_c   7.46071256
_cell_angle_alpha   89.99853978
_cell_angle_beta   58.62739072
_cell_angle_gamma   119.31122172
_symmetry_Int_Tables_number   1
_chemical_formula_structural   Cs2Lu(TeO4)3
_chemical_formula_sum   'Cs2 Lu1 Te3 O12'
_cell_volume   284.41975329
_cell_formula_units_Z   1
loop_
 _symmetry_equiv_pos_site_id
 _symmetry_equiv_pos_as_xyz
  1  'x, y, z'
loop_
 _atom_site_type_symbol
 _atom_site_label
 _atom_site_symmetry_multiplicity
 _atom_site_fract_x
 _atom_site_fract_y
 _atom_site_fract_z
 _atom_site_occupancy
  Cs  Cs0  1  0.24788112  0.12113120  0.62402958  1
  Cs  Cs1  1  0.75211733  0.87325595  0.37595802  1
  Lu  Lu0  1  0.00001117  0.49722975  0.00001491  1
  Te  Te0  1  0.50004089  0.49744443  0.00000220  1
  Te  Te1  1  0.49999853  0.99744000  0.00000863  1
  Te  Te2  1  0.99995999  0.49730972  0.50001353  1
  O  O0  1  0.62947160  0.81214795  0.92317433  1
  O  O1  1  0.85672829  0.42560850  0.34673856  1
  O  O2  1  0.27515745  0.42575227  0.92831240  1
  O  O3  1  0.23770824  0.81212211  0.31470125  1
  O  O4  1  0.27513298  0.84406208  0.92833847  1
  O  O5  1  0.23779856  0.42040430  0.31473612  1
  O  O6  1  0.37053577  0.18266633  0.07686800  1
  O  O7  1  0.14327136  0.56890040  0.65323802  1
  O  O8  1  0.72493684  0.56895481  0.07162660  1
  O  O9  1  0.76218925  0.18260055  0.68526019  1
  O  O10  1  0.72483032  0.15060635  0.07172243  1
  O  O11  1  0.76222929  0.57436431  0.68525375  1
loop_
_geom_bond_atom_site_label_1
_geom_bond_atom_site_label_2
_geom_bond_distance
_geom_bond_site_symmetry_2
Cs0 O4 3.189937 1_545
Cs0 O1 3.191129 1_555
Cs0 O2 3.191351 1_555
Cs0 O3 3.231422 1_545
Cs0 O0 3.231753 1_445
Cs0 O5 3.232855 1_555
Cs1 O8 3.189999 1_555
Cs1 O10 3.191094 1_565
Cs1 O7 3.191130 1_555
Cs1 O11 3.231111 1_555
Cs1 O6 3.231823 1_665
Cs1 O9 3.232925 1_565
Lu0 O2 2.163023 1_554
Lu0 O10 2.163114 1_455
Lu0 O1 2.163602 1_455
Lu0 O8 2.163964 1_455
Lu0 O7 2.164016 1_554
Lu0 O4 2.164140 1_554
O0 Te0 1.948357 1_556
O0 Te1 1.948697 1_556
O1 Te2 1.856950 1_555
O2 Te0 1.857221 1_556
O3 Te1 1.948500 1_555
O3 Te2 1.949079 1_455
O4 Te1 1.857243 1_556
O5 Te0 1.948534 1_555
O5 Te2 1.948626 1_455
O6 Te1 1.948201 1_545
O6 Te0 1.948747 1_555
O7 Te2 1.857055 1_455
O8 Te0 1.857150 1_555
O9 Te2 1.948403 1_555
O9 Te1 1.948524 1_546
O10 Te1 1.857051 1_545
O11 Te0 1.948692 1_556
O11 Te2 1.948811 1_555
