# generated using pymatgen
data_CsK2Cu3P2
_symmetry_space_group_name_H-M   'P 1'
_cell_length_a   7.56934236
_cell_length_b   7.56934273
_cell_length_c   7.56934217
_cell_angle_alpha   44.94605868
_cell_angle_beta   44.94605375
_cell_angle_gamma   44.94605725
_symmetry_Int_Tables_number   1
_chemical_formula_structural   CsK2Cu3P2
_chemical_formula_sum   'Cs1 K2 Cu3 P2'
_cell_volume   196.97154665
_cell_formula_units_Z   1
loop_
 _symmetry_equiv_pos_site_id
 _symmetry_equiv_pos_as_xyz
  1  'x, y, z'
loop_
 _atom_site_type_symbol
 _atom_site_label
 _atom_site_symmetry_multiplicity
 _atom_site_fract_x
 _atom_site_fract_y
 _atom_site_fract_z
 _atom_site_occupancy
  Cs  Cs0  1  0.50000000  0.50000000  0.50000000  1
  K  K0  1  0.90974432  0.90974432  0.90974432  1
  K  K1  1  0.09025568  0.09025568  0.09025568  1
  Cu  Cu0  1  0.00000000  0.50000000  0.50000000  1
  Cu  Cu1  1  0.50000000  0.50000000  0.00000000  1
  Cu  Cu2  1  0.50000000  0.00000000  0.50000000  1
  P  P0  1  0.26059449  0.26059449  0.26059449  1
  P  P1  1  0.73940551  0.73940551  0.73940551  1
loop_
_geom_bond_atom_site_label_1
_geom_bond_atom_site_label_2
_geom_bond_distance
_geom_bond_site_symmetry_2
Cs0 K0 3.685959 1_455
Cs0 K1 3.685959 1_655
Cs0 K0 3.685959 1_554
Cs0 K1 3.685959 1_556
Cs0 K0 3.685959 1_545
Cs0 K1 3.685959 1_565
Cs0 Cu1 3.784671 1_555
Cs0 Cu1 3.784671 1_556
Cs0 Cu0 3.784671 1_655
Cs0 Cu0 3.784671 1_555
Cs0 Cu2 3.784671 1_555
Cs0 Cu2 3.784671 1_565
Cs0 P0 3.850344 1_556
Cs0 P1 3.850344 1_554
Cs0 P0 3.850344 1_655
Cs0 P1 3.850344 1_455
Cs0 P0 3.850345 1_565
Cs0 P1 3.850345 1_545
K0 P0 3.359987 1_566
K0 P0 3.359987 1_665
K0 P0 3.359988 1_656
K0 P1 3.470882 1_555
K1 P1 3.359987 1_544
K1 P1 3.359987 1_445
K1 P1 3.359988 1_454
K1 P0 3.470882 1_555
Cu0 P1 2.233227 1_455
Cu0 P0 2.233227 1_555
Cu0 K1 3.428382 1_556
Cu0 K0 3.428382 1_454
Cu0 K1 3.428383 1_565
Cu0 K0 3.428383 1_445
Cu1 P1 2.233227 1_554
Cu1 P0 2.233227 1_555
Cu1 K1 3.428383 1_655
Cu1 K0 3.428383 1_454
Cu1 K1 3.428383 1_565
Cu1 K0 3.428383 1_544
Cu2 P1 2.233227 1_545
Cu2 P0 2.233227 1_555
Cu2 K1 3.428382 1_556
Cu2 K0 3.428382 1_544
Cu2 K1 3.428382 1_655
Cu2 K0 3.428382 1_445
