# generated using pymatgen
data_Rb4Ti6CCl18
_symmetry_space_group_name_H-M   'P 1'
_cell_length_a   10.02732137
_cell_length_b   10.02732213
_cell_length_c   9.58504917
_cell_angle_alpha   77.15138694
_cell_angle_beta   77.15138056
_cell_angle_gamma   117.64993196
_symmetry_Int_Tables_number   1
_chemical_formula_structural   Rb4Ti6CCl18
_chemical_formula_sum   'Rb4 Ti6 C1 Cl18'
_cell_volume   770.90421683
_cell_formula_units_Z   1
loop_
 _symmetry_equiv_pos_site_id
 _symmetry_equiv_pos_as_xyz
  1  'x, y, z'
loop_
 _atom_site_type_symbol
 _atom_site_label
 _atom_site_symmetry_multiplicity
 _atom_site_fract_x
 _atom_site_fract_y
 _atom_site_fract_z
 _atom_site_occupancy
  Rb  Rb0  1  0.76570908  0.44189299  0.69158251  1
  Rb  Rb1  1  0.55810701  0.23429092  0.30841749  1
  Rb  Rb2  1  0.23429092  0.55810701  0.30841749  1
  Rb  Rb3  1  0.44189299  0.76570908  0.69158251  1
  Ti  Ti0  1  0.11880905  0.11880905  0.13719033  1
  Ti  Ti1  1  0.88119095  0.88119095  0.86280967  1
  Ti  Ti2  1  0.95034513  0.77397709  0.14702824  1
  Ti  Ti3  1  0.22602291  0.04965487  0.85297176  1
  Ti  Ti4  1  0.04965487  0.22602291  0.85297176  1
  Ti  Ti5  1  0.77397709  0.95034513  0.14702824  1
  C  C0  1  0.00000000  0.00000000  0.00000000  1
  Cl  Cl0  1  0.81317912  0.61451781  0.01164644  1
  Cl  Cl1  1  0.38548319  0.18682088  0.98835356  1
  Cl  Cl2  1  0.18682088  0.38548319  0.98835356  1
  Cl  Cl3  1  0.61451681  0.81317912  0.01164644  1
  Cl  Cl4  1  0.19746678  0.80253322  0.00000000  1
  Cl  Cl5  1  0.80253322  0.19746678  1.00000000  1
  Cl  Cl6  1  0.30824000  0.30824000  0.67514820  1
  Cl  Cl7  1  0.69176000  0.69176000  0.32485180  1
  Cl  Cl8  1  0.88977035  0.50625110  0.32254782  1
  Cl  Cl9  1  0.49374890  0.11022965  0.67745218  1
  Cl  Cl10  1  0.11022965  0.49374890  0.67745218  1
  Cl  Cl11  1  0.50625110  0.88977035  0.32254782  1
  Cl  Cl12  1  0.25707832  0.25707832  0.29338475  1
  Cl  Cl13  1  0.74292168  0.74292168  0.70661525  1
  Cl  Cl14  1  0.07698390  0.87997802  0.31290869  1
  Cl  Cl15  1  0.12002198  0.92301610  0.68709131  1
  Cl  Cl16  1  0.92301610  0.12002198  0.68709131  1
  Cl  Cl17  1  0.87997802  0.07698390  0.31290869  1
loop_
_geom_bond_atom_site_label_1
_geom_bond_atom_site_label_2
_geom_bond_distance
_geom_bond_site_symmetry_2
C0 Ti5 2.142565 1_445
C0 Ti3 2.142565 1_554
C0 Ti4 2.142565 1_554
C0 Ti2 2.142565 1_445
C0 Ti0 2.154975 1_555
C0 Ti1 2.154975 1_444
Cl0 Ti2 2.409913 1_555
Cl0 Ti1 2.414285 1_554
Cl0 Rb1 3.472692 1_555
Cl0 Rb0 3.857575 1_554
Cl1 Ti3 2.409918 1_555
Cl1 Ti0 2.414294 1_556
Cl1 Rb0 3.472686 1_555
Cl1 Rb1 3.857570 1_556
Cl2 Ti4 2.409918 1_555
Cl2 Ti0 2.414294 1_556
Cl2 Rb3 3.472686 1_555
Cl2 Rb2 3.857570 1_556
Cl3 Ti5 2.409918 1_555
Cl3 Ti1 2.414294 1_554
Cl3 Rb2 3.472686 1_555
Cl3 Rb3 3.857570 1_554
Cl4 Ti2 2.411889 1_455
Cl4 Ti3 2.411889 1_564
Cl4 Rb3 3.603549 1_554
Cl4 Rb2 3.603549 1_555
Cl5 Ti4 2.411889 1_655
Cl5 Ti5 2.411889 1_546
Cl5 Rb1 3.603549 1_556
Cl5 Rb0 3.603549 1_555
Cl6 Ti4 2.394465 1_555
Cl6 Ti3 2.394466 1_555
Cl7 Ti2 2.394465 1_555
Cl7 Ti5 2.394466 1_555
Cl8 Ti2 2.535670 1_555
Cl8 Rb2 3.211925 1_655
Cl8 Rb1 3.234558 1_555
Cl8 Rb0 3.280016 1_555
Cl9 Ti3 2.535670 1_555
Cl9 Rb3 3.211925 1_545
Cl9 Rb0 3.234559 1_555
Cl9 Rb1 3.280017 1_555
Cl10 Ti4 2.535670 1_555
Cl10 Rb0 3.211925 1_455
Cl10 Rb3 3.234558 1_555
Cl10 Rb2 3.280016 1_555
Cl11 Ti5 2.535670 1_555
Cl11 Rb1 3.211925 1_565
Cl11 Rb2 3.234559 1_555
Cl11 Rb3 3.280017 1_555
Cl12 Ti0 2.479559 1_555
Cl12 Rb1 3.162805 1_555
Cl12 Rb2 3.162805 1_555
Cl13 Ti1 2.479559 1_555
Cl13 Rb3 3.162805 1_555
Cl13 Rb0 3.162805 1_555
Cl14 Ti2 2.380578 1_455
Cl14 Ti0 2.389059 1_565
Cl15 Ti3 2.380578 1_565
Cl15 Ti1 2.389059 1_455
Cl16 Ti4 2.380578 1_655
Cl16 Ti1 2.389059 1_545
Cl17 Ti5 2.380578 1_545
Cl17 Ti0 2.389059 1_655
