# generated using pymatgen
data_Cs3Cu(AgP)2
_symmetry_space_group_name_H-M   'P 1'
_cell_length_a   7.96453588
_cell_length_b   7.96453544
_cell_length_c   7.93190554
_cell_angle_alpha   46.80686324
_cell_angle_beta   46.80687742
_cell_angle_gamma   47.81054552
_symmetry_Int_Tables_number   1
_chemical_formula_structural   Cs3Cu(AgP)2
_chemical_formula_sum   'Cs3 Cu1 Ag2 P2'
_cell_volume   247.13831744
_cell_formula_units_Z   1
loop_
 _symmetry_equiv_pos_site_id
 _symmetry_equiv_pos_as_xyz
  1  'x, y, z'
loop_
 _atom_site_type_symbol
 _atom_site_label
 _atom_site_symmetry_multiplicity
 _atom_site_fract_x
 _atom_site_fract_y
 _atom_site_fract_z
 _atom_site_occupancy
  Cs  Cs0  1  0.91216334  0.91216334  0.89763072  1
  Cs  Cs1  1  0.50000000  0.50000000  0.50000000  1
  Cs  Cs2  1  0.08783666  0.08783666  0.10236928  1
  Cu  Cu0  1  0.50000000  0.50000000  0.00000000  1
  Ag  Ag0  1  0.00000000  0.50000000  0.50000000  1
  Ag  Ag1  1  0.50000000  0.00000000  0.50000000  1
  P  P0  1  0.27756855  0.27756855  0.23323271  1
  P  P1  1  0.72243145  0.72243145  0.76676729  1
loop_
_geom_bond_atom_site_label_1
_geom_bond_atom_site_label_2
_geom_bond_distance
_geom_bond_site_symmetry_2
Cs0 P1 3.606382 1_555
Cs0 P0 3.678523 1_656
Cs0 P0 3.678524 1_566
Cs0 P0 3.754702 1_665
Cs0 Cu0 3.777175 1_656
Cs0 Cu0 3.777175 1_566
Cs1 Cu0 3.965953 1_556
Cs1 Cu0 3.965953 1_555
Cs1 P0 4.013557 1_556
Cs1 P1 4.013557 1_554
Cs2 P0 3.606382 1_555
Cs2 P1 3.678523 1_454
Cs2 P1 3.678524 1_544
Cs2 P1 3.754702 1_445
Cs2 Cu0 3.777175 1_455
Cs2 Cu0 3.777175 1_545
Cu0 P1 2.223033 1_554
Cu0 P0 2.223033 1_555
Ag0 P1 2.443479 1_455
Ag0 P0 2.443479 1_555
Ag0 Cs2 3.677153 1_565
Ag0 Cs0 3.677153 1_445
Ag0 Cs2 3.756917 1_556
Ag0 Cs0 3.756917 1_454
Ag0 Cs1 3.982268 1_555
Ag0 Cs1 3.982268 1_455
Ag1 P1 2.443478 1_545
Ag1 P0 2.443478 1_555
Ag1 Cs2 3.677154 1_655
Ag1 Cs0 3.677154 1_445
Ag1 Cs2 3.756918 1_556
Ag1 Cs0 3.756918 1_544
Ag1 Cs1 3.982268 1_555
Ag1 Cs1 3.982268 1_545
