# generated using pymatgen
data_Ti4SiB2Mo
_symmetry_space_group_name_H-M   'P 1'
_cell_length_a   7.14853742
_cell_length_b   7.14853721
_cell_length_c   7.14853665
_cell_angle_alpha   129.59880702
_cell_angle_beta   129.59881270
_cell_angle_gamma   74.04895740
_symmetry_Int_Tables_number   1
_chemical_formula_structural   Ti4SiB2Mo
_chemical_formula_sum   'Ti8 Si2 B4 Mo2'
_cell_volume   211.49908492
_cell_formula_units_Z   2
loop_
 _symmetry_equiv_pos_site_id
 _symmetry_equiv_pos_as_xyz
  1  'x, y, z'
loop_
 _atom_site_type_symbol
 _atom_site_label
 _atom_site_symmetry_multiplicity
 _atom_site_fract_x
 _atom_site_fract_y
 _atom_site_fract_z
 _atom_site_occupancy
  Ti  Ti0  1  0.80744385  0.95544863  0.50000000  1
  Ti  Ti1  1  0.30744385  0.80744385  0.85199522  1
  Ti  Ti2  1  0.19255615  0.04455137  0.50000000  1
  Ti  Ti3  1  0.54455137  0.69255615  0.50000000  1
  Ti  Ti4  1  0.04455137  0.54455137  0.85199522  1
  Ti  Ti5  1  0.69255615  0.19255615  0.14800478  1
  Ti  Ti6  1  0.95544863  0.45544863  0.14800478  1
  Ti  Ti7  1  0.45544863  0.30744385  0.50000000  1
  Si  Si0  1  0.75000000  0.75000000  0.00000000  1
  Si  Si1  1  0.25000000  0.25000000  0.00000000  1
  B  B0  1  0.39205160  0.89205160  0.28410420  1
  B  B1  1  0.89205160  0.60794840  0.50000000  1
  B  B2  1  0.60794840  0.10794840  0.71589580  1
  B  B3  1  0.10794840  0.39205160  0.50000000  1
  Mo  Mo0  1  0.00000000  0.00000000  0.00000000  1
  Mo  Mo1  1  0.50000000  0.50000000  0.00000000  1
loop_
_geom_bond_atom_site_label_1
_geom_bond_atom_site_label_2
_geom_bond_distance
_geom_bond_site_symmetry_2
Si0 Ti3 2.620948 1_554
Si0 Ti2 2.620948 1_665
Si0 Ti0 2.620948 1_555
Si0 Ti7 2.620948 1_554
Si0 Ti6 2.620949 1_555
Si0 Ti1 2.620949 1_554
Si0 Ti5 2.620949 1_565
Si0 Ti4 2.620949 1_654
Si1 Ti7 2.620948 1_555
Si1 Ti0 2.620948 1_444
Si1 Ti2 2.620948 1_554
Si1 Ti3 2.620948 1_555
Si1 Ti4 2.620949 1_554
Si1 Ti5 2.620949 1_555
Si1 Ti1 2.620949 1_544
Si1 Ti6 2.620949 1_455
B0 B2 1.858662 1_565
B0 Ti3 2.326062 1_555
B0 Ti2 2.326063 1_565
B0 Ti0 2.326070 1_555
B0 Ti7 2.326070 1_565
B0 Ti4 2.389740 1_554
B0 Ti1 2.389747 1_554
B0 Mo0 2.475445 1_565
B0 Mo1 2.475446 1_555
B1 B3 1.858671 1_655
B1 Ti4 2.326068 1_655
B1 Ti1 2.326068 1_655
B1 Ti6 2.326068 1_555
B1 Ti5 2.326068 1_555
B1 Ti0 2.389740 1_555
B1 Ti3 2.389741 1_555
B1 Mo1 2.475443 1_555
B1 Mo0 2.475443 1_666
B2 Ti7 2.326062 1_555
B2 Ti0 2.326063 1_545
B2 Ti2 2.326070 1_555
B2 Ti3 2.326070 1_545
B2 Ti6 2.389740 1_556
B2 Ti5 2.389747 1_556
B2 Mo0 2.475445 1_656
B2 Mo1 2.475446 1_556
B3 Ti6 2.326068 1_455
B3 Ti5 2.326068 1_455
B3 Ti4 2.326068 1_555
B3 Ti1 2.326068 1_555
B3 Ti2 2.389740 1_555
B3 Ti7 2.389741 1_555
B3 Mo1 2.475443 1_556
B3 Mo0 2.475443 1_555
Mo0 Ti2 2.699872 1_555
Mo0 Ti0 2.699872 1_444
Mo0 Ti7 2.699872 1_555
Mo0 Ti3 2.699872 1_444
Mo0 Ti6 2.699873 1_455
Mo0 Ti4 2.699873 1_544
Mo0 Ti1 2.699873 1_544
Mo0 Ti5 2.699873 1_455
Mo0 Si0 2.853619 1_445
Mo0 Si1 2.853619 1_555
Mo1 Ti3 2.699872 1_555
Mo1 Ti7 2.699872 1_554
Mo1 Ti0 2.699872 1_555
Mo1 Ti2 2.699872 1_554
Mo1 Ti1 2.699873 1_554
Mo1 Ti5 2.699873 1_555
Mo1 Ti6 2.699873 1_555
Mo1 Ti4 2.699873 1_554
Mo1 Si0 2.853619 1_555
Mo1 Si1 2.853619 1_555
