# generated using pymatgen
data_Ti10ZnGaSb4
_symmetry_space_group_name_H-M   'P 1'
_cell_length_a   5.19241228
_cell_length_b   7.81901362
_cell_length_c   7.81901399
_cell_angle_alpha   83.64287852
_cell_angle_beta   70.55314226
_cell_angle_gamma   70.55312267
_symmetry_Int_Tables_number   1
_chemical_formula_structural   Ti10ZnGaSb4
_chemical_formula_sum   'Ti10 Zn1 Ga1 Sb4'
_cell_volume   282.26110733
_cell_formula_units_Z   1
loop_
 _symmetry_equiv_pos_site_id
 _symmetry_equiv_pos_as_xyz
  1  'x, y, z'
loop_
 _atom_site_type_symbol
 _atom_site_label
 _atom_site_symmetry_multiplicity
 _atom_site_fract_x
 _atom_site_fract_y
 _atom_site_fract_z
 _atom_site_occupancy
  Ti  Ti0  1  0.25000000  0.50018191  0.49981809  1
  Ti  Ti1  1  0.75000000  0.49976911  0.50023089  1
  Ti  Ti2  1  0.07509656  0.14252204  0.70792555  1
  Ti  Ti3  1  0.92445935  0.85753849  0.29208790  1
  Ti  Ti4  1  0.78202250  0.29201128  0.14241462  1
  Ti  Ti5  1  0.42490344  0.29207445  0.85747796  1
  Ti  Ti6  1  0.21762633  0.70797320  0.85751728  1
  Ti  Ti7  1  0.57554065  0.70791210  0.14246151  1
  Ti  Ti8  1  0.71797750  0.85758538  0.70798872  1
  Ti  Ti9  1  0.28237367  0.14248272  0.29202680  1
  Zn  Zn0  1  0.25000000  0.99995756  0.00004244  1
  Ga  Ga0  1  0.75000000  0.99997277  0.00002723  1
  Sb  Sb0  1  0.16421867  0.49994948  0.17226706  1
  Sb  Sb1  1  0.83575942  0.50007827  0.82773969  1
  Sb  Sb2  1  0.33578133  0.82773294  0.50005052  1
  Sb  Sb3  1  0.66424058  0.17226031  0.49992173  1
loop_
_geom_bond_atom_site_label_1
_geom_bond_atom_site_label_2
_geom_bond_distance
_geom_bond_site_symmetry_2
Ti0 Ti1 2.596210 1_555
Ti0 Ti1 2.596210 1_455
Ti2 Zn0 2.725365 1_546
Ti3 Zn0 2.726132 1_655
Ti4 Zn0 2.724966 1_645
Ti5 Zn0 2.725366 1_546
Ti6 Zn0 2.725083 1_556
Ti7 Zn0 2.726131 1_555
Ti8 Zn0 2.724966 1_556
Ti9 Zn0 2.725083 1_545
Ga0 Zn0 2.596206 1_655
Ga0 Zn0 2.596206 1_555
Ga0 Ti3 2.723662 1_555
Ga0 Ti7 2.723662 1_555
Ga0 Ti4 2.724034 1_565
Ga0 Ti8 2.724035 1_554
Ga0 Ti6 2.724069 1_654
Ga0 Ti9 2.724070 1_565
Ga0 Ti5 2.725821 1_564
Ga0 Ti2 2.725822 1_664
Sb0 Ti0 2.742065 1_555
Sb0 Ti1 2.744183 1_455
Sb0 Ti9 2.779676 1_555
Sb0 Ti3 2.780446 1_455
Sb0 Ti5 2.781151 1_554
Sb0 Ti6 2.781846 1_554
Sb0 Ti4 3.016798 1_555
Sb0 Ti7 3.020332 1_455
Sb0 Ti7 3.026046 1_555
Sb0 Ti4 3.029391 1_455
Sb1 Ti1 2.741780 1_555
Sb1 Ti0 2.743919 1_655
Sb1 Ti8 2.779943 1_555
Sb1 Ti2 2.780200 1_655
Sb1 Ti7 2.780575 1_556
Sb1 Ti4 2.781562 1_556
Sb1 Ti6 3.018327 1_555
Sb1 Ti5 3.022285 1_655
Sb1 Ti5 3.024328 1_555
Sb1 Ti6 3.027456 1_655
Sb2 Ti0 2.742065 1_555
Sb2 Ti1 2.744182 1_555
Sb2 Ti6 2.779677 1_555
Sb2 Ti7 2.780446 1_555
Sb2 Ti2 2.781150 1_565
Sb2 Ti9 2.781846 1_565
Sb2 Ti8 3.016799 1_455
Sb2 Ti3 3.020333 1_555
Sb2 Ti3 3.026045 1_455
Sb2 Ti8 3.029391 1_555
Sb3 Ti1 2.741780 1_555
Sb3 Ti0 2.743918 1_555
Sb3 Ti4 2.779943 1_555
Sb3 Ti5 2.780201 1_555
Sb3 Ti3 2.780575 1_545
Sb3 Ti8 2.781562 1_545
Sb3 Ti9 3.018328 1_655
Sb3 Ti2 3.022286 1_555
Sb3 Ti2 3.024327 1_655
Sb3 Ti9 3.027456 1_555
