# generated using pymatgen
data_HfSc3Si6Ir7
_symmetry_space_group_name_H-M   'P 1'
_cell_length_a   6.96052565
_cell_length_b   6.94294818
_cell_length_c   6.96052593
_cell_angle_alpha   109.42007498
_cell_angle_beta   109.52231938
_cell_angle_gamma   109.42007175
_symmetry_Int_Tables_number   1
_chemical_formula_structural   HfSc3Si6Ir7
_chemical_formula_sum   'Hf1 Sc3 Si6 Ir7'
_cell_volume   259.10743581
_cell_formula_units_Z   1
loop_
 _symmetry_equiv_pos_site_id
 _symmetry_equiv_pos_as_xyz
  1  'x, y, z'
loop_
 _atom_site_type_symbol
 _atom_site_label
 _atom_site_symmetry_multiplicity
 _atom_site_fract_x
 _atom_site_fract_y
 _atom_site_fract_z
 _atom_site_occupancy
  Hf  Hf0  1  0.00000000  0.50000000  0.00000000  1
  Sc  Sc0  1  0.00000000  0.00000000  0.50000000  1
  Sc  Sc1  1  0.50000000  0.00000000  0.00000000  1
  Sc  Sc2  1  0.50000000  0.50000000  0.50000000  1
  Si  Si0  1  0.68023781  0.68292782  1.00000000  1
  Si  Si1  1  0.31976219  0.00268901  0.31976219  1
  Si  Si2  1  1.00000000  0.31707218  0.31976219  1
  Si  Si3  1  0.31976219  0.31707218  0.00000000  1
  Si  Si4  1  0.68023781  0.99731099  0.68023781  1
  Si  Si5  1  0.00000000  0.68292782  0.68023781  1
  Ir  Ir0  1  0.75092575  0.25092575  0.50185249  1
  Ir  Ir1  1  0.75092575  0.50000000  0.24907425  1
  Ir  Ir2  1  0.50185249  0.25092575  0.75092575  1
  Ir  Ir3  1  0.24907425  0.50000000  0.75092575  1
  Ir  Ir4  1  0.24907425  0.74907425  0.49814751  1
  Ir  Ir5  1  0.49814751  0.74907425  0.24907425  1
  Ir  Ir6  1  0.00000000  0.00000000  0.00000000  1
loop_
_geom_bond_atom_site_label_1
_geom_bond_atom_site_label_2
_geom_bond_distance
_geom_bond_site_symmetry_2
Hf0 Ir5 2.831987 1_555
Hf0 Ir2 2.831987 1_454
Hf0 Ir4 2.831987 1_555
Hf0 Ir0 2.831987 1_454
Hf0 Ir3 2.831993 1_554
Hf0 Ir1 2.831993 1_455
Hf0 Si1 2.906301 1_565
Hf0 Si4 2.906301 1_444
Hf0 Si3 2.906305 1_555
Hf0 Si0 2.906305 1_454
Hf0 Si2 2.906305 1_455
Hf0 Si5 2.906305 1_554
Sc0 Si2 2.873442 1_455
Sc0 Si5 2.873442 1_545
Sc0 Si3 2.895201 1_556
Sc0 Si0 2.895201 1_444
Sc0 Si1 2.895202 1_555
Sc0 Si4 2.895202 1_445
Sc1 Si3 2.873442 1_555
Sc1 Si0 2.873442 1_544
Sc1 Si2 2.895201 1_555
Sc1 Si5 2.895201 1_544
Sc1 Si1 2.895202 1_555
Sc1 Si4 2.895202 1_544
Sc2 Si4 2.873448 1_555
Sc2 Si1 2.873448 1_555
Sc2 Si2 2.895201 1_455
Sc2 Si5 2.895201 1_655
Sc2 Si3 2.895201 1_555
Sc2 Si0 2.895201 1_555
Ir0 Si1 2.479754 1_555
Ir0 Si2 2.479760 1_555
Ir0 Si4 2.484030 1_545
Ir0 Si5 2.484042 1_655
Ir0 Sc2 2.837159 1_555
Ir0 Sc0 2.837159 1_655
Ir0 Sc1 2.853050 1_555
Ir1 Si3 2.479754 1_555
Ir1 Si5 2.479754 1_655
Ir1 Si2 2.484041 1_555
Ir1 Si0 2.484042 1_554
Ir1 Sc0 2.837159 1_665
Ir1 Sc1 2.837159 1_555
Ir1 Sc2 2.853044 1_555
Ir2 Si1 2.479754 1_555
Ir2 Si3 2.479760 1_556
Ir2 Si4 2.484030 1_545
Ir2 Si0 2.484042 1_555
Ir2 Sc2 2.837159 1_555
Ir2 Sc1 2.837159 1_556
Ir2 Sc0 2.853050 1_555
Ir3 Si0 2.479754 1_555
Ir3 Si2 2.479754 1_455
Ir3 Si5 2.484041 1_555
Ir3 Si3 2.484042 1_556
Ir3 Sc0 2.837159 1_555
Ir3 Sc1 2.837159 1_566
Ir3 Sc2 2.853044 1_555
Ir4 Si4 2.479754 1_555
Ir4 Si5 2.479760 1_555
Ir4 Si1 2.484030 1_565
Ir4 Si2 2.484042 1_455
Ir4 Sc2 2.837159 1_555
Ir4 Sc0 2.837159 1_565
Ir4 Sc1 2.853050 1_566
Ir5 Si4 2.479754 1_555
Ir5 Si0 2.479760 1_554
Ir5 Si1 2.484030 1_565
Ir5 Si3 2.484042 1_555
Ir5 Sc2 2.837159 1_555
Ir5 Sc1 2.837159 1_565
Ir5 Sc0 2.853050 1_665
Ir6 Si2 2.557694 1_455
Ir6 Si5 2.557694 1_544
Ir6 Si3 2.557694 1_555
Ir6 Si0 2.557694 1_444
Ir6 Si1 2.557698 1_555
Ir6 Si4 2.557698 1_444
