# generated using pymatgen
data_K2NaScSb2
_symmetry_space_group_name_H-M   'P 1'
_cell_length_a   10.78417140
_cell_length_b   10.78417184
_cell_length_c   7.19774910
_cell_angle_alpha   90.00000000
_cell_angle_beta   90.00000000
_cell_angle_gamma   97.89586377
_symmetry_Int_Tables_number   1
_chemical_formula_structural   K2NaScSb2
_chemical_formula_sum   'K8 Na4 Sc4 Sb8'
_cell_volume   829.15030225
_cell_formula_units_Z   4
loop_
 _symmetry_equiv_pos_site_id
 _symmetry_equiv_pos_as_xyz
  1  'x, y, z'
loop_
 _atom_site_type_symbol
 _atom_site_label
 _atom_site_symmetry_multiplicity
 _atom_site_fract_x
 _atom_site_fract_y
 _atom_site_fract_z
 _atom_site_occupancy
  K  K0  1  0.07150401  0.42849599  0.25000000  1
  K  K1  1  0.42849599  0.07150401  0.75000000  1
  K  K2  1  0.92849599  0.57150401  0.75000000  1
  K  K3  1  0.57150401  0.92849599  0.25000000  1
  K  K4  1  0.67676957  0.32323043  0.21726749  1
  K  K5  1  0.82323043  0.17676957  0.71726749  1
  K  K6  1  0.32323043  0.67676957  0.78273251  1
  K  K7  1  0.17676957  0.82323043  0.28273251  1
  Na  Na0  1  0.38340696  0.38340696  0.00000000  1
  Na  Na1  1  0.11659304  0.11659304  0.50000000  1
  Na  Na2  1  0.61659304  0.61659304  0.00000000  1
  Na  Na3  1  0.88340696  0.88340696  0.50000000  1
  Sc  Sc0  1  0.13027414  0.13027414  0.00000000  1
  Sc  Sc1  1  0.36972586  0.36972586  0.50000000  1
  Sc  Sc2  1  0.86972586  0.86972586  0.00000000  1
  Sc  Sc3  1  0.63027414  0.63027414  0.50000000  1
  Sb  Sb0  1  0.84747241  0.65252659  0.25000000  1
  Sb  Sb1  1  0.65252659  0.84747241  0.75000000  1
  Sb  Sb2  1  0.15252659  0.34747241  0.75000000  1
  Sb  Sb3  1  0.34747241  0.15252659  0.25000000  1
  Sb  Sb4  1  0.89770280  0.10229720  0.20268390  1
  Sb  Sb5  1  0.60229720  0.39770280  0.70268390  1
  Sb  Sb6  1  0.10229720  0.89770280  0.79731610  1
  Sb  Sb7  1  0.39770280  0.60229720  0.29731610  1
loop_
_geom_bond_atom_site_label_1
_geom_bond_atom_site_label_2
_geom_bond_distance
_geom_bond_site_symmetry_2
K0 Sb0 3.643859 1_455
K0 Sb7 3.767266 1_555
K0 Sb4 3.767266 1_455
K0 Sb2 3.832570 1_554
K0 Sb2 3.832570 1_555
K1 Sb1 3.643859 1_545
K1 Sb6 3.767266 1_545
K1 Sb5 3.767266 1_555
K1 Sb3 3.832570 1_556
K1 Sb3 3.832570 1_555
K2 Sb2 3.643859 1_655
K2 Sb5 3.767266 1_555
K2 Sb6 3.767266 1_655
K2 Sb0 3.832570 1_555
K2 Sb0 3.832570 1_556
K3 Sb3 3.643859 1_565
K3 Sb4 3.767266 1_565
K3 Sb7 3.767266 1_555
K3 Sb1 3.832570 1_554
K3 Sb1 3.832570 1_555
K4 Sb4 3.595005 1_555
K4 Sb5 3.697918 1_555
K4 Sb0 3.776135 1_555
K4 Sb3 3.776148 1_555
K4 Sb5 3.896881 1_554
K5 Sb5 3.595005 1_555
K5 Sb4 3.697918 1_556
K5 Sb2 3.776135 1_655
K5 Sb1 3.776148 1_545
K5 Sb4 3.896881 1_555
K6 Sb6 3.595005 1_555
K6 Sb7 3.697918 1_555
K6 Sb1 3.776135 1_555
K6 Sb2 3.776148 1_555
K6 Sb7 3.896881 1_556
K7 Sb7 3.595005 1_555
K7 Sb6 3.697918 1_554
K7 Sb3 3.776135 1_565
K7 Sb0 3.776148 1_455
K7 Sb6 3.896881 1_555
Na0 Sb2 3.053264 1_554
Na0 Sb3 3.053264 1_555
Na0 Sb5 3.174209 1_554
Na0 Sb7 3.174210 1_555
Na1 Sb3 3.053256 1_555
Na1 Sb2 3.053256 1_555
Na1 Sb4 3.174209 1_455
Na1 Sb6 3.174210 1_545
Na2 Sb0 3.053256 1_555
Na2 Sb1 3.053256 1_554
Na2 Sb7 3.174209 1_555
Na2 Sb5 3.174210 1_554
Na3 Sb1 3.053264 1_555
Na3 Sb0 3.053264 1_555
Na3 Sb6 3.174209 1_655
Na3 Sb4 3.174210 1_565
Sb0 Sc3 2.937263 1_555
Sb0 Sc2 2.937271 1_555
Sb1 Sc3 2.937263 1_555
Sb1 Sc2 2.937271 1_556
Sb2 Sc0 2.937263 1_556
Sb2 Sc1 2.937271 1_555
Sb3 Sc0 2.937263 1_555
Sb3 Sc1 2.937271 1_555
Sb4 Sc0 2.881307 1_655
Sb4 Sc2 2.881307 1_545
Sb5 Sc1 2.881307 1_555
Sb5 Sc3 2.881307 1_555
Sb6 Sc2 2.881307 1_456
Sb6 Sc0 2.881307 1_566
Sb7 Sc3 2.881307 1_555
Sb7 Sc1 2.881307 1_555
