# generated using pymatgen
data_Cs2V5RhSe6
_symmetry_space_group_name_H-M   'P 1'
_cell_length_a   9.75406207
_cell_length_b   9.58465395
_cell_length_c   4.41944424
_cell_angle_alpha   90.00000000
_cell_angle_beta   90.00000000
_cell_angle_gamma   120.13041058
_symmetry_Int_Tables_number   1
_chemical_formula_structural   Cs2V5RhSe6
_chemical_formula_sum   'Cs2 V5 Rh1 Se6'
_cell_volume   357.34526664
_cell_formula_units_Z   1
loop_
 _symmetry_equiv_pos_site_id
 _symmetry_equiv_pos_as_xyz
  1  'x, y, z'
loop_
 _atom_site_type_symbol
 _atom_site_label
 _atom_site_symmetry_multiplicity
 _atom_site_fract_x
 _atom_site_fract_y
 _atom_site_fract_z
 _atom_site_occupancy
  Cs  Cs0  1  0.33244630  0.66147262  0.25000000  1
  Cs  Cs1  1  0.66088412  0.33380229  0.75000000  1
  V  V0  1  0.13896535  0.15643588  0.25000000  1
  V  V1  1  0.86409974  0.84426472  0.75000000  1
  V  V2  1  0.80688693  0.96788610  0.25000000  1
  V  V3  1  0.03199601  0.86113597  0.25000000  1
  V  V4  1  0.97615818  0.14898724  0.75000000  1
  Rh  Rh0  1  0.17683834  0.02540501  0.75000000  1
  Se  Se0  1  0.95304378  0.27597195  0.25000000  1
  Se  Se1  1  0.05025188  0.72831776  0.75000000  1
  Se  Se2  1  0.72902805  0.67548441  0.25000000  1
  Se  Se3  1  0.33275481  0.04638070  0.25000000  1
  Se  Se4  1  0.67383398  0.95481563  0.75000000  1
  Se  Se5  1  0.27281353  0.31963970  0.75000000  1
loop_
_geom_bond_atom_site_label_1
_geom_bond_atom_site_label_2
_geom_bond_distance
_geom_bond_site_symmetry_2
Cs0 Se3 3.687701 1_565
Cs0 Se0 3.690515 1_455
Cs0 Se5 3.747324 1_555
Cs0 Se5 3.747324 1_554
Cs0 Se2 3.802644 1_555
Cs0 Se4 3.804867 1_554
Cs0 Se4 3.804867 1_555
Cs0 Se1 3.826265 1_555
Cs0 Se1 3.826265 1_554
Cs1 Se4 3.697476 1_545
Cs1 Se5 3.718979 1_555
Cs1 Se3 3.723432 1_555
Cs1 Se3 3.723432 1_556
Cs1 Se2 3.723484 1_556
Cs1 Se2 3.723484 1_555
Cs1 Se1 3.782161 1_655
Cs1 Se0 3.859654 1_555
Cs1 Se0 3.859654 1_556
Rh0 Se1 2.470419 1_545
Rh0 Se5 2.485776 1_555
Rh0 Se3 2.632342 1_555
Rh0 Se3 2.632342 1_556
Rh0 V1 2.646254 1_445
Rh0 V0 2.657510 1_555
Rh0 V0 2.657510 1_556
Rh0 V3 2.669203 1_546
Rh0 V3 2.669203 1_545
Rh0 V4 2.749970 1_455
Se0 V2 2.554544 1_545
Se0 V0 2.585987 1_655
Se0 V4 2.586607 1_555
Se0 V4 2.586607 1_554
Se1 V1 2.560806 1_455
Se1 V3 2.600525 1_556
Se1 V3 2.600525 1_555
Se2 V2 2.508859 1_555
Se2 V3 2.572964 1_655
Se2 V1 2.663816 1_555
Se2 V1 2.663816 1_554
Se3 V3 2.555263 1_545
Se3 V0 2.586006 1_555
Se4 V2 2.533702 1_556
Se4 V2 2.533702 1_555
Se4 V1 2.557572 1_555
Se4 V4 2.578724 1_565
Se5 V4 2.509320 1_455
Se5 V0 2.642721 1_556
Se5 V0 2.642721 1_555
