# generated using pymatgen
data_Mg3GaP7N12
_symmetry_space_group_name_H-M   'P 1'
_cell_length_a   7.15306841
_cell_length_b   7.15306955
_cell_length_c   7.15306900
_cell_angle_alpha   109.52301894
_cell_angle_beta   109.52302864
_cell_angle_gamma   109.52300656
_symmetry_Int_Tables_number   1
_chemical_formula_structural   Mg3GaP7N12
_chemical_formula_sum   'Mg3 Ga1 P7 N12'
_cell_volume   281.20282447
_cell_formula_units_Z   1
loop_
 _symmetry_equiv_pos_site_id
 _symmetry_equiv_pos_as_xyz
  1  'x, y, z'
loop_
 _atom_site_type_symbol
 _atom_site_label
 _atom_site_symmetry_multiplicity
 _atom_site_fract_x
 _atom_site_fract_y
 _atom_site_fract_z
 _atom_site_occupancy
  Mg  Mg0  1  0.00060271  0.66240696  0.00060271  1
  Mg  Mg1  1  0.66240696  0.00060271  0.00060271  1
  Mg  Mg2  1  0.00060271  0.00060271  0.66240696  1
  Ga  Ga0  1  0.33782941  0.33782941  0.33782941  1
  P  P0  1  0.49710317  0.24934065  0.74879885  1
  P  P1  1  0.49710317  0.74879885  0.24934065  1
  P  P2  1  0.74879885  0.24934065  0.49710317  1
  P  P3  1  0.24934065  0.49710317  0.74879885  1
  P  P4  1  0.74879885  0.49710317  0.24934065  1
  P  P5  1  0.24934065  0.74879885  0.49710317  1
  P  P6  1  0.02188589  0.02188589  0.02188589  1
  N  N0  1  0.99946890  0.72123600  0.44100538  1
  N  N1  1  0.27177402  0.71000015  0.27177402  1
  N  N2  1  0.29217067  0.55852328  0.55852328  1
  N  N3  1  0.55852328  0.55852328  0.29217067  1
  N  N4  1  0.55852328  0.29217067  0.55852328  1
  N  N5  1  0.72123600  0.99946890  0.44100538  1
  N  N6  1  0.44100538  0.99946890  0.72123600  1
  N  N7  1  0.72123600  0.44100538  0.99946890  1
  N  N8  1  0.27177402  0.27177402  0.71000015  1
  N  N9  1  0.71000015  0.27177402  0.27177402  1
  N  N10  1  0.99946890  0.44100538  0.72123600  1
  N  N11  1  0.44100538  0.72123600  0.99946890  1
loop_
_geom_bond_atom_site_label_1
_geom_bond_atom_site_label_2
_geom_bond_distance
_geom_bond_site_symmetry_2
Mg0 N1 2.059948 1_555
Mg0 N10 2.089700 1_454
Mg0 N7 2.089700 1_454
Mg0 P6 2.473774 1_565
Mg1 N9 2.059948 1_555
Mg1 N6 2.089700 1_544
Mg1 N11 2.089700 1_544
Mg1 P6 2.473773 1_655
Mg2 N8 2.059949 1_555
Mg2 N5 2.089700 1_445
Mg2 N0 2.089700 1_445
Mg2 P6 2.473774 1_556
Ga0 N4 2.028403 1_555
Ga0 N2 2.028404 1_555
Ga0 N3 2.028404 1_555
Ga0 P6 2.254181 1_555
N0 P5 1.620722 1_655
N0 P4 1.622206 1_555
N1 P1 1.613788 1_555
N1 P5 1.613788 1_555
N2 P5 1.651591 1_555
N2 P3 1.651591 1_555
N3 P4 1.651590 1_555
N3 P1 1.651591 1_555
N4 P2 1.651590 1_555
N4 P0 1.651591 1_555
N5 P2 1.620722 1_565
N5 P1 1.622206 1_555
N6 P0 1.620722 1_565
N6 P5 1.622206 1_555
N7 P4 1.620722 1_556
N7 P0 1.622206 1_555
N8 P0 1.613788 1_555
N8 P3 1.613788 1_555
N9 P2 1.613788 1_555
N9 P4 1.613788 1_555
N10 P3 1.620722 1_655
N10 P2 1.622206 1_555
N11 P1 1.620722 1_556
N11 P3 1.622206 1_555
