# generated using pymatgen
data_TaPd6Au
_symmetry_space_group_name_H-M   'P 1'
_cell_length_a   8.31152133
_cell_length_b   8.31152139
_cell_length_c   8.31152082
_cell_angle_alpha   152.30616934
_cell_angle_beta   152.30616574
_cell_angle_gamma   39.56636548
_symmetry_Int_Tables_number   1
_chemical_formula_structural   TaPd6Au
_chemical_formula_sum   'Ta1 Pd6 Au1'
_cell_volume   123.78589014
_cell_formula_units_Z   1
loop_
 _symmetry_equiv_pos_site_id
 _symmetry_equiv_pos_as_xyz
  1  'x, y, z'
loop_
 _atom_site_type_symbol
 _atom_site_label
 _atom_site_symmetry_multiplicity
 _atom_site_fract_x
 _atom_site_fract_y
 _atom_site_fract_z
 _atom_site_occupancy
  Ta  Ta0  1  0.87592448  0.87592448  1.00000000  1
  Pd  Pd0  1  0.37437981  0.37437981  0.00000000  1
  Pd  Pd1  1  0.62235477  0.62235477  0.00000000  1
  Pd  Pd2  1  0.99421136  0.49421136  0.50000000  1
  Pd  Pd3  1  0.49421136  0.99421136  0.50000000  1
  Pd  Pd4  1  0.25563167  0.75563167  0.50000000  1
  Pd  Pd5  1  0.75563167  0.25563167  0.50000000  1
  Au  Au0  1  0.12765488  0.12765488  1.00000000  1
loop_
_geom_bond_atom_site_label_1
_geom_bond_atom_site_label_2
_geom_bond_distance
_geom_bond_site_symmetry_2
Pd0 Pd4 2.721578 1_555
Pd0 Pd5 2.721578 1_555
Pd0 Pd4 2.721578 1_544
Pd0 Pd5 2.721578 1_454
Pd0 Pd3 2.733172 1_544
Pd0 Pd2 2.733172 1_454
Pd0 Pd3 2.733172 1_555
Pd0 Pd2 2.733172 1_555
Pd0 Ta0 2.813235 1_443
Pd0 Ta0 2.813235 1_555
Pd0 Ta0 2.813236 1_544
Pd0 Ta0 2.813236 1_454
Pd1 Pd3 2.823920 1_555
Pd1 Pd2 2.823921 1_555
Pd1 Pd3 2.823921 1_544
Pd1 Pd2 2.823921 1_454
Pd1 Pd5 2.881471 1_554
Pd1 Pd4 2.881471 1_554
Pd1 Pd5 2.881471 1_565
Pd1 Pd4 2.881471 1_655
Pd2 Ta0 2.716659 1_555
Pd2 Ta0 2.716659 1_544
Pd2 Pd3 2.813132 1_656
Pd2 Pd3 2.813132 1_544
Pd2 Pd3 2.813132 1_645
Pd2 Pd3 2.813132 1_555
Pd3 Ta0 2.716659 1_555
Pd3 Ta0 2.716659 1_454
Pd4 Ta0 2.738125 1_454
Pd4 Ta0 2.738125 1_555
Pd4 Pd5 2.813132 1_566
Pd4 Pd5 2.813132 1_454
Pd4 Pd5 2.813132 1_465
Pd4 Pd5 2.813132 1_555
Pd5 Ta0 2.738125 1_544
Pd5 Ta0 2.738125 1_555
Au0 Pd1 2.814353 1_557
Au0 Pd1 2.814353 1_445
Au0 Pd1 2.814353 1_456
Au0 Pd1 2.814353 1_546
Au0 Pd4 2.822071 1_545
Au0 Pd5 2.822071 1_455
Au0 Pd4 2.822071 1_556
Au0 Pd5 2.822072 1_556
Au0 Pd2 2.883357 1_456
Au0 Pd3 2.883357 1_546
Au0 Pd2 2.883357 1_445
Au0 Pd3 2.883357 1_445
