# generated using pymatgen
data_Sr21Al8Sn6Sb
_symmetry_space_group_name_H-M   'P 1'
_cell_length_a   12.18236962
_cell_length_b   12.18237083
_cell_length_c   12.18236918
_cell_angle_alpha   60.00000447
_cell_angle_beta   60.00000118
_cell_angle_gamma   59.99999940
_symmetry_Int_Tables_number   1
_chemical_formula_structural   Sr21Al8Sn6Sb
_chemical_formula_sum   'Sr21 Al8 Sn6 Sb1'
_cell_volume   1278.44003563
_cell_formula_units_Z   1
loop_
 _symmetry_equiv_pos_site_id
 _symmetry_equiv_pos_as_xyz
  1  'x, y, z'
loop_
 _atom_site_type_symbol
 _atom_site_label
 _atom_site_symmetry_multiplicity
 _atom_site_fract_x
 _atom_site_fract_y
 _atom_site_fract_z
 _atom_site_occupancy
  Sr  Sr0  1  0.87140298  0.87140298  0.38579007  1
  Sr  Sr1  1  0.61420993  0.12859702  0.12859702  1
  Sr  Sr2  1  0.87140298  0.38579007  0.87140298  1
  Sr  Sr3  1  0.12859702  0.12859702  0.12859702  1
  Sr  Sr4  1  0.38579007  0.87140298  0.87140298  1
  Sr  Sr5  1  0.87140298  0.87140298  0.87140298  1
  Sr  Sr6  1  0.18176853  0.81823147  0.50000000  1
  Sr  Sr7  1  0.81823147  0.50000000  0.50000000  1
  Sr  Sr8  1  0.12859702  0.12859702  0.61420993  1
  Sr  Sr9  1  0.81823147  0.18176853  0.50000000  1
  Sr  Sr10  1  0.18176853  0.50000000  0.50000000  1
  Sr  Sr11  1  0.12859702  0.61420993  0.12859702  1
  Sr  Sr12  1  0.50000000  0.50000000  0.18176853  1
  Sr  Sr13  1  0.50000000  0.18176853  0.81823147  1
  Sr  Sr14  1  0.50000000  0.81823147  0.18176853  1
  Sr  Sr15  1  0.50000000  0.50000000  0.81823147  1
  Sr  Sr16  1  0.50000000  0.18176853  0.50000000  1
  Sr  Sr17  1  0.18176853  0.50000000  0.81823147  1
  Sr  Sr18  1  0.00000000  0.00000000  0.00000000  1
  Sr  Sr19  1  0.50000000  0.81823147  0.50000000  1
  Sr  Sr20  1  0.81823147  0.50000000  0.18176853  1
  Al  Al0  1  0.69443126  0.91670623  0.69443126  1
  Al  Al1  1  0.69443126  0.69443126  0.91670623  1
  Al  Al2  1  0.69443126  0.69443126  0.69443126  1
  Al  Al3  1  0.30556874  0.08329377  0.30556874  1
  Al  Al4  1  0.91670623  0.69443126  0.69443126  1
  Al  Al5  1  0.30556874  0.30556874  0.08329377  1
  Al  Al6  1  0.08329377  0.30556874  0.30556874  1
  Al  Al7  1  0.30556874  0.30556874  0.30556874  1
  Sn  Sn0  1  0.78662965  0.21337035  0.78662965  1
  Sn  Sn1  1  0.78662965  0.21337035  0.21337035  1
  Sn  Sn2  1  0.21337035  0.78662965  0.21337035  1
  Sn  Sn3  1  0.21337035  0.78662965  0.78662965  1
  Sn  Sn4  1  0.78662965  0.78662965  0.21337035  1
  Sn  Sn5  1  0.21337035  0.21337035  0.78662965  1
  Sb  Sb0  1  0.50000000  0.50000000  0.50000000  1
loop_
_geom_bond_atom_site_label_1
_geom_bond_atom_site_label_2
_geom_bond_distance
_geom_bond_site_symmetry_2
Al0 Al4 2.707836 1_555
Al0 Al2 2.707836 1_555
Al0 Al1 2.707836 1_555
Al0 Sr5 3.445147 1_555
Al0 Sr0 3.445157 1_555
Al0 Sr4 3.445157 1_555
Al0 Sr16 3.458501 1_565
Al0 Sr13 3.458501 1_565
Al0 Sr9 3.458501 1_565
Al1 Al2 2.707836 1_555
Al1 Al4 2.707836 1_555
Al1 Sr5 3.445147 1_555
Al1 Sr4 3.445157 1_555
Al1 Sr2 3.445157 1_555
Al1 Sr14 3.458501 1_556
Al1 Sr20 3.458501 1_556
Al1 Sr12 3.458501 1_556
Al2 Al4 2.707836 1_555
Al2 Sr4 3.445152 1_555
Al2 Sr0 3.445153 1_555
Al2 Sr2 3.445153 1_555
Al2 Sr19 3.458501 1_555
Al2 Sr7 3.458501 1_555
Al2 Sr15 3.458501 1_555
Al3 Al6 2.707836 1_555
Al3 Al7 2.707836 1_555
Al3 Al5 2.707836 1_555
Al3 Sr3 3.445147 1_555
Al3 Sr8 3.445157 1_555
Al3 Sr1 3.445157 1_555
Al3 Sr19 3.458501 1_545
Al3 Sr14 3.458501 1_545
Al3 Sr6 3.458501 1_545
Al4 Sr5 3.445147 1_555
Al4 Sr0 3.445157 1_555
Al4 Sr2 3.445158 1_555
Al4 Sr17 3.458501 1_655
Al4 Sr10 3.458501 1_655
Al4 Sr6 3.458501 1_655
Al5 Al7 2.707836 1_555
Al5 Al6 2.707836 1_555
Al5 Sr3 3.445147 1_555
Al5 Sr1 3.445157 1_555
Al5 Sr11 3.445157 1_555
Al5 Sr13 3.458501 1_554
Al5 Sr17 3.458501 1_554
Al5 Sr15 3.458501 1_554
Al6 Al7 2.707836 1_555
Al6 Sr3 3.445147 1_555
Al6 Sr8 3.445157 1_555
Al6 Sr11 3.445158 1_555
Al6 Sr20 3.458501 1_455
Al6 Sr7 3.458501 1_455
Al6 Sr9 3.458501 1_455
Al7 Sr1 3.445152 1_555
Al7 Sr8 3.445153 1_555
Al7 Sr11 3.445153 1_555
Al7 Sr16 3.458501 1_555
Al7 Sr10 3.458501 1_555
Al7 Sr12 3.458501 1_555
Sn0 Sr2 3.456903 1_555
Sn0 Sr8 3.456912 1_655
Sn0 Sr1 3.456912 1_556
Sn0 Sr5 3.456914 1_545
Sn0 Sr9 3.512987 1_555
Sn0 Sr13 3.512987 1_555
Sn0 Sr15 3.512987 1_555
Sn0 Sr7 3.512988 1_555
Sn0 Sr18 3.676045 1_656
Sn1 Sr1 3.456903 1_555
Sn1 Sr2 3.456912 1_554
Sn1 Sr0 3.456912 1_545
Sn1 Sr3 3.456914 1_655
Sn1 Sr9 3.512987 1_555
Sn1 Sr16 3.512987 1_555
Sn1 Sr12 3.512987 1_555
Sn1 Sr20 3.512988 1_555
Sn1 Sr18 3.676045 1_655
Sn2 Sr11 3.456903 1_555
Sn2 Sr0 3.456912 1_455
Sn2 Sr4 3.456912 1_554
Sn2 Sr3 3.456914 1_565
Sn2 Sr6 3.512987 1_555
Sn2 Sr14 3.512987 1_555
Sn2 Sr12 3.512987 1_555
Sn2 Sr10 3.512988 1_555
Sn2 Sr18 3.676045 1_565
Sn3 Sr4 3.456903 1_555
Sn3 Sr11 3.456912 1_556
Sn3 Sr8 3.456912 1_565
Sn3 Sr5 3.456914 1_455
Sn3 Sr6 3.512987 1_555
Sn3 Sr19 3.512987 1_555
Sn3 Sr15 3.512987 1_555
Sn3 Sr17 3.512988 1_555
Sn3 Sr18 3.676045 1_566
Sn4 Sr0 3.456903 1_555
Sn4 Sr11 3.456912 1_655
Sn4 Sr1 3.456912 1_565
Sn4 Sr5 3.456914 1_554
Sn4 Sr14 3.512987 1_555
Sn4 Sr19 3.512987 1_555
Sn4 Sr7 3.512987 1_555
Sn4 Sr20 3.512987 1_555
Sn4 Sr18 3.676046 1_665
Sn5 Sr8 3.456903 1_555
Sn5 Sr2 3.456912 1_455
Sn5 Sr4 3.456912 1_545
Sn5 Sr3 3.456914 1_556
Sn5 Sr16 3.512987 1_555
Sn5 Sr13 3.512987 1_555
Sn5 Sr17 3.512987 1_555
Sn5 Sr10 3.512987 1_555
Sn5 Sr18 3.676046 1_556
Sb0 Sr15 3.876813 1_555
Sb0 Sr12 3.876813 1_555
Sb0 Sr7 3.876813 1_555
Sb0 Sr17 3.876813 1_555
Sb0 Sr20 3.876813 1_555
Sb0 Sr10 3.876813 1_555
Sb0 Sr9 3.876814 1_555
Sb0 Sr6 3.876814 1_555
Sb0 Sr14 3.876814 1_555
Sb0 Sr16 3.876814 1_555
Sb0 Sr19 3.876814 1_555
Sb0 Sr13 3.876814 1_555
