# generated using pymatgen
data_Rb4CuP2Au
_symmetry_space_group_name_H-M   'P 1'
_cell_length_a   6.40725637
_cell_length_b   6.40725424
_cell_length_c   6.15028915
_cell_angle_alpha   89.43385467
_cell_angle_beta   89.43385025
_cell_angle_gamma   107.43741122
_symmetry_Int_Tables_number   1
_chemical_formula_structural   Rb4CuP2Au
_chemical_formula_sum   'Rb4 Cu1 P2 Au1'
_cell_volume   240.85065899
_cell_formula_units_Z   1
loop_
 _symmetry_equiv_pos_site_id
 _symmetry_equiv_pos_as_xyz
  1  'x, y, z'
loop_
 _atom_site_type_symbol
 _atom_site_label
 _atom_site_symmetry_multiplicity
 _atom_site_fract_x
 _atom_site_fract_y
 _atom_site_fract_z
 _atom_site_occupancy
  Rb  Rb0  1  0.97646081  0.31521287  0.74897124  1
  Rb  Rb1  1  0.31521287  0.97646081  0.74897124  1
  Rb  Rb2  1  0.02353919  0.68478713  0.25102876  1
  Rb  Rb3  1  0.68478713  0.02353919  0.25102876  1
  Cu  Cu0  1  0.50000000  0.50000000  0.00000000  1
  P  P0  1  0.72833392  0.72833392  0.76648139  1
  P  P1  1  0.27166608  0.27166608  0.23351861  1
  Au  Au0  1  0.50000000  0.50000000  0.50000000  1
loop_
_geom_bond_atom_site_label_1
_geom_bond_atom_site_label_2
_geom_bond_distance
_geom_bond_site_symmetry_2
Rb0 Rb1 3.499327 1_645
Rb0 Rb3 3.768063 1_556
Rb0 Rb2 3.806232 1_655
Rb0 Rb3 3.807483 1_555
Rb0 Rb2 3.868788 1_656
Rb0 Rb1 4.141253 1_655
Rb0 Rb1 4.141254 1_545
Rb1 Rb2 3.768063 1_556
Rb1 Rb3 3.806232 1_565
Rb1 Rb2 3.807483 1_555
Rb1 Rb3 3.868789 1_566
Rb2 Rb3 3.499327 1_465
Rb2 Rb3 4.141253 1_455
Rb2 Rb3 4.141254 1_565
Cu0 P0 2.231048 1_554
Cu0 P1 2.231048 1_555
Cu0 Rb3 3.577141 1_565
Cu0 Rb1 3.577141 1_544
Cu0 Rb2 3.577142 1_655
Cu0 Rb0 3.577142 1_454
Cu0 Rb3 3.900548 1_555
Cu0 Rb1 3.900548 1_554
Cu0 Rb0 3.900549 1_554
Cu0 Rb2 3.900549 1_555
P0 Rb0 3.474175 1_555
P0 Rb1 3.474176 1_555
P0 Rb3 3.598297 1_566
P0 Rb2 3.598297 1_656
P0 Rb0 3.617261 1_565
P0 Rb1 3.617262 1_655
P0 Rb3 3.731057 1_565
P0 Rb2 3.731057 1_655
P1 Rb2 3.474175 1_555
P1 Rb3 3.474176 1_555
P1 Rb1 3.598297 1_544
P1 Rb0 3.598297 1_454
P1 Rb2 3.617261 1_545
P1 Rb3 3.617262 1_455
P1 Rb1 3.731057 1_545
P1 Rb0 3.731057 1_455
Au0 P0 2.403917 1_555
Au0 P1 2.403917 1_555
Au0 Rb3 3.532877 1_565
Au0 Rb1 3.532877 1_545
Au0 Rb2 3.532878 1_655
Au0 Rb0 3.532878 1_455
Au0 Rb1 3.910106 1_555
Au0 Rb3 3.910106 1_555
Au0 Rb0 3.910107 1_555
Au0 Rb2 3.910107 1_555
