# generated using pymatgen
data_GaMoBr8
_symmetry_space_group_name_H-M   'P 1'
_cell_length_a   9.95774045
_cell_length_b   9.95774026
_cell_length_c   8.74478801
_cell_angle_alpha   90.00000000
_cell_angle_beta   90.00000000
_cell_angle_gamma   129.76238173
_symmetry_Int_Tables_number   1
_chemical_formula_structural   GaMoBr8
_chemical_formula_sum   'Ga2 Mo2 Br16'
_cell_volume   666.54551945
_cell_formula_units_Z   2
loop_
 _symmetry_equiv_pos_site_id
 _symmetry_equiv_pos_as_xyz
  1  'x, y, z'
loop_
 _atom_site_type_symbol
 _atom_site_label
 _atom_site_symmetry_multiplicity
 _atom_site_fract_x
 _atom_site_fract_y
 _atom_site_fract_z
 _atom_site_occupancy
  Ga  Ga0  1  0.81538806  0.18461194  0.25000000  1
  Ga  Ga1  1  0.18461194  0.81538806  0.75000000  1
  Mo  Mo0  1  0.61092043  0.38907957  0.25000000  1
  Mo  Mo1  1  0.38907957  0.61092043  0.75000000  1
  Br  Br0  1  0.51198223  0.05535672  0.25000000  1
  Br  Br1  1  0.05535672  0.51198223  0.75000000  1
  Br  Br2  1  0.48801777  0.94464328  0.75000000  1
  Br  Br3  1  0.94464328  0.48801777  0.25000000  1
  Br  Br4  1  0.63333631  0.36666369  0.97822772  1
  Br  Br5  1  0.36666369  0.63333631  0.02177228  1
  Br  Br6  1  0.63333631  0.36666369  0.52177228  1
  Br  Br7  1  0.36666369  0.63333631  0.47822772  1
  Br  Br8  1  0.31177420  0.26763377  0.25000000  1
  Br  Br9  1  0.26763377  0.31177420  0.75000000  1
  Br  Br10  1  0.68822580  0.73236623  0.75000000  1
  Br  Br11  1  0.73236623  0.68822580  0.25000000  1
  Br  Br12  1  0.88489487  0.11510513  0.46964696  1
  Br  Br13  1  0.11510513  0.88489487  0.53035304  1
  Br  Br14  1  0.88489487  0.11510513  0.03035304  1
  Br  Br15  1  0.11510513  0.88489487  0.96964696  1
loop_
_geom_bond_atom_site_label_1
_geom_bond_atom_site_label_2
_geom_bond_distance
_geom_bond_site_symmetry_2
Br0 Ga0 2.410421 1_555
Br0 Mo0 2.797449 1_555
Br1 Ga1 2.410421 1_555
Br1 Mo1 2.797449 1_555
Br2 Ga1 2.410421 1_555
Br2 Mo1 2.797449 1_555
Br3 Ga0 2.410421 1_555
Br3 Mo0 2.797449 1_555
Br4 Mo0 2.410719 1_556
Br5 Mo1 2.410719 1_554
Br6 Mo0 2.410719 1_555
Br7 Mo1 2.410719 1_555
Br8 Mo0 2.393253 1_555
Br9 Mo1 2.393253 1_555
Br10 Mo1 2.393253 1_555
Br11 Mo0 2.393253 1_555
Br12 Ga0 2.293519 1_555
Br13 Ga1 2.293519 1_555
Br14 Ga0 2.293519 1_555
Br15 Ga1 2.293519 1_555
