# generated using pymatgen
data_SrLi(GePd)2
_symmetry_space_group_name_H-M   'P 1'
_cell_length_a   4.29654364
_cell_length_b   4.29654395
_cell_length_c   14.44176050
_cell_angle_alpha   90.00000000
_cell_angle_beta   90.00000000
_cell_angle_gamma   119.99999764
_symmetry_Int_Tables_number   1
_chemical_formula_structural   SrLi(GePd)2
_chemical_formula_sum   'Sr2 Li2 Ge4 Pd4'
_cell_volume   230.88156942
_cell_formula_units_Z   2
loop_
 _symmetry_equiv_pos_site_id
 _symmetry_equiv_pos_as_xyz
  1  'x, y, z'
loop_
 _atom_site_type_symbol
 _atom_site_label
 _atom_site_symmetry_multiplicity
 _atom_site_fract_x
 _atom_site_fract_y
 _atom_site_fract_z
 _atom_site_occupancy
  Sr  Sr0  1  0.00000000  0.00000000  0.75000000  1
  Sr  Sr1  1  0.00000000  0.00000000  0.25000000  1
  Li  Li0  1  0.00000000  0.00000000  0.50000000  1
  Li  Li1  1  0.00000000  0.00000000  0.00000000  1
  Ge  Ge0  1  0.33333300  0.66666700  0.60497671  1
  Ge  Ge1  1  0.66666700  0.33333300  0.39502329  1
  Ge  Ge2  1  0.66666700  0.33333300  0.10497671  1
  Ge  Ge3  1  0.33333300  0.66666700  0.89502329  1
  Pd  Pd0  1  0.33333300  0.66666700  0.43295197  1
  Pd  Pd1  1  0.66666700  0.33333300  0.93295197  1
  Pd  Pd2  1  0.33333300  0.66666700  0.06704803  1
  Pd  Pd3  1  0.66666700  0.33333300  0.56704803  1
loop_
_geom_bond_atom_site_label_1
_geom_bond_atom_site_label_2
_geom_bond_distance
_geom_bond_site_symmetry_2
Li0 Pd3 2.662894 1_455
Li0 Pd0 2.662894 1_545
Li0 Pd3 2.662898 1_555
Li0 Pd0 2.662898 1_445
Li0 Pd0 2.662898 1_555
Li0 Pd3 2.662898 1_445
Li1 Pd1 2.662894 1_454
Li1 Pd2 2.662894 1_545
Li1 Pd1 2.662898 1_554
Li1 Pd2 2.662898 1_445
Li1 Pd2 2.662898 1_555
Li1 Pd1 2.662898 1_444
Ge0 Pd0 2.484340 1_555
Ge0 Pd3 2.540365 1_455
Ge0 Pd3 2.540365 1_565
Ge0 Pd3 2.540372 1_555
Ge0 Li0 2.907201 1_565
Ge0 Li0 2.907205 1_665
Ge0 Li0 2.907205 1_555
Ge0 Sr0 3.246520 1_565
Ge0 Sr0 3.246523 1_665
Ge0 Sr0 3.246523 1_555
Ge1 Pd3 2.484340 1_555
Ge1 Pd0 2.540365 1_655
Ge1 Pd0 2.540365 1_545
Ge1 Pd0 2.540372 1_555
Ge1 Li0 2.907201 1_655
Ge1 Li0 2.907205 1_555
Ge1 Li0 2.907205 1_665
Ge1 Sr1 3.246520 1_655
Ge1 Sr1 3.246523 1_555
Ge1 Sr1 3.246523 1_665
Ge2 Pd1 2.484340 1_554
Ge2 Pd2 2.540365 1_655
Ge2 Pd2 2.540365 1_545
Ge2 Pd2 2.540372 1_555
Ge2 Li1 2.907201 1_655
Ge2 Li1 2.907205 1_555
Ge2 Li1 2.907205 1_665
Ge2 Sr1 3.246520 1_655
Ge2 Sr1 3.246523 1_555
Ge2 Sr1 3.246523 1_665
Ge3 Pd2 2.484340 1_556
Ge3 Pd1 2.540365 1_455
Ge3 Pd1 2.540365 1_565
Ge3 Pd1 2.540372 1_555
Ge3 Li1 2.907201 1_566
Ge3 Li1 2.907205 1_666
Ge3 Li1 2.907205 1_556
Ge3 Sr0 3.246520 1_565
Ge3 Sr0 3.246523 1_665
Ge3 Sr0 3.246523 1_555
