# generated using pymatgen
data_K(Nb3Te4)4
_symmetry_space_group_name_H-M   'P 1'
_cell_length_a   7.37516793
_cell_length_b   10.90832495
_cell_length_c   11.46302506
_cell_angle_alpha   118.30153081
_cell_angle_beta   108.73222032
_cell_angle_gamma   89.99131015
_symmetry_Int_Tables_number   1
_chemical_formula_structural   K(Nb3Te4)4
_chemical_formula_sum   'K1 Nb12 Te16'
_cell_volume   756.05915061
_cell_formula_units_Z   1
loop_
 _symmetry_equiv_pos_site_id
 _symmetry_equiv_pos_as_xyz
  1  'x, y, z'
loop_
 _atom_site_type_symbol
 _atom_site_label
 _atom_site_symmetry_multiplicity
 _atom_site_fract_x
 _atom_site_fract_y
 _atom_site_fract_z
 _atom_site_occupancy
  K  K0  1  0.50000000  0.00000000  0.00000000  1
  Nb  Nb0  1  0.13151187  0.09916321  0.48764346  1
  Nb  Nb1  1  0.61090603  0.09914144  0.49023843  1
  Nb  Nb2  1  0.32424217  0.38721340  0.90027264  1
  Nb  Nb3  1  0.82427422  0.38908192  0.89759308  1
  Nb  Nb4  1  0.17057425  0.51116983  0.60971338  1
  Nb  Nb5  1  0.69490004  0.51334682  0.61355089  1
  Nb  Nb6  1  0.38909397  0.90085856  0.50976157  1
  Nb  Nb7  1  0.86848813  0.90083679  0.51235654  1
  Nb  Nb8  1  0.17572578  0.61091808  0.10240692  1
  Nb  Nb9  1  0.67575783  0.61278660  0.09972736  1
  Nb  Nb10  1  0.30509996  0.48665318  0.38644911  1
  Nb  Nb11  1  0.82942575  0.48883017  0.39028662  1
  Te  Te0  1  0.73819243  0.06692043  0.73028506  1
  Te  Te1  1  0.23364931  0.06075267  0.72056161  1
  Te  Te2  1  0.84660057  0.66232734  0.93702931  1
  Te  Te3  1  0.34066661  0.65872964  0.93617673  1
  Te  Te4  1  0.54256498  0.28031376  0.34157708  1
  Te  Te5  1  0.04367991  0.27044242  0.33812950  1
  Te  Te6  1  0.76635069  0.93924733  0.27943839  1
  Te  Te7  1  0.26180757  0.93307957  0.26971494  1
  Te  Te8  1  0.65933339  0.34127036  0.06382327  1
  Te  Te9  1  0.15339943  0.33767266  0.06297069  1
  Te  Te10  1  0.95632009  0.72955758  0.66187050  1
  Te  Te11  1  0.45743502  0.71968624  0.65842292  1
  Te  Te12  1  0.95899319  0.32956453  0.66462065  1
  Te  Te13  1  0.45861454  0.33648451  0.66844587  1
  Te  Te14  1  0.54138546  0.66351549  0.33155413  1
  Te  Te15  1  0.04100681  0.67043547  0.33537935  1
loop_
_geom_bond_atom_site_label_1
_geom_bond_atom_site_label_2
_geom_bond_distance
_geom_bond_site_symmetry_2
K0 Te6 3.539706 1_545
K0 Te1 3.539706 1_554
K0 Te4 3.554947 1_555
K0 Te11 3.554947 1_544
K0 Te8 3.555439 1_555
K0 Te3 3.555439 1_544
Nb0 Te1 2.764144 1_555
Nb0 Te7 2.774187 1_545
Nb0 Te6 2.813777 1_445
Nb0 Te13 2.918907 1_555
Nb0 Te12 2.978815 1_455
Nb0 Te5 3.028322 1_555
Nb1 Te7 2.789168 1_545
Nb1 Te0 2.798978 1_555
Nb1 Te6 2.824491 1_545
Nb1 Te13 2.931783 1_555
Nb1 Te12 2.974187 1_555
Nb1 Te4 3.115316 1_555
Nb2 Te3 2.787197 1_555
Nb2 Te8 2.790738 1_556
Nb2 Te9 2.796981 1_556
Nb2 Te13 2.940621 1_555
Nb2 Te12 2.943609 1_455
Nb2 Te1 3.087444 1_555
Nb3 Te2 2.791132 1_555
Nb3 Te8 2.795369 1_556
Nb3 Te9 2.802212 1_656
Nb3 Te13 2.919449 1_555
Nb3 Te12 2.932686 1_555
Nb3 Te0 3.042846 1_555
Nb4 Te10 2.790083 1_455
Nb4 Te5 2.800165 1_555
Nb4 Te11 2.828397 1_555
Nb4 Te12 2.927388 1_455
Nb4 Te13 2.982241 1_555
Nb4 Te3 3.072893 1_555
Nb5 Te10 2.768269 1_555
Nb5 Te4 2.771304 1_555
Nb5 Te11 2.806699 1_555
Nb5 Te12 2.921424 1_555
Nb5 Te13 3.001896 1_555
Nb5 Te2 3.043724 1_555
Nb6 Te0 2.789168 1_565
Nb6 Te7 2.798978 1_555
Nb6 Te1 2.824491 1_565
Nb6 Te14 2.931783 1_555
Nb6 Te15 2.974187 1_555
Nb6 Te11 3.115316 1_555
Nb7 Te6 2.764144 1_555
Nb7 Te0 2.774187 1_565
Nb7 Te1 2.813777 1_665
Nb7 Te14 2.918907 1_555
Nb7 Te15 2.978815 1_655
Nb7 Te10 3.028322 1_555
Nb8 Te9 2.791132 1_555
Nb8 Te3 2.795369 1_554
Nb8 Te2 2.802212 1_454
Nb8 Te14 2.919449 1_555
Nb8 Te15 2.932686 1_555
Nb8 Te7 3.042846 1_555
Nb9 Te8 2.787197 1_555
Nb9 Te3 2.790738 1_554
Nb9 Te2 2.796981 1_554
Nb9 Te14 2.940621 1_555
Nb9 Te15 2.943609 1_655
Nb9 Te6 3.087444 1_555
Nb10 Te5 2.768269 1_555
Nb10 Te11 2.771304 1_555
Nb10 Te4 2.806699 1_555
Nb10 Te15 2.921424 1_555
Nb10 Te14 3.001896 1_555
Nb10 Te9 3.043724 1_555
Nb11 Te5 2.790083 1_655
Nb11 Te10 2.800165 1_555
Nb11 Te4 2.828397 1_555
Nb11 Te15 2.927388 1_655
Nb11 Te14 2.982241 1_555
Nb11 Te8 3.072893 1_555
