# generated using pymatgen
data_Ti2AlSbRu4
_symmetry_space_group_name_H-M   'P 1'
_cell_length_a   4.35460721
_cell_length_b   6.15324403
_cell_length_c   13.06304048
_cell_angle_alpha   90.00003982
_cell_angle_beta   90.00139623
_cell_angle_gamma   90.00003111
_symmetry_Int_Tables_number   1
_chemical_formula_structural   Ti2AlSbRu4
_chemical_formula_sum   'Ti6 Al3 Sb3 Ru12'
_cell_volume   350.02365734
_cell_formula_units_Z   3
loop_
 _symmetry_equiv_pos_site_id
 _symmetry_equiv_pos_as_xyz
  1  'x, y, z'
loop_
 _atom_site_type_symbol
 _atom_site_label
 _atom_site_symmetry_multiplicity
 _atom_site_fract_x
 _atom_site_fract_y
 _atom_site_fract_z
 _atom_site_occupancy
  Ti  Ti0  1  0.00000216  0.99999900  0.98924399  1
  Ti  Ti1  1  0.49990138  0.49999900  0.16665590  1
  Ti  Ti2  1  0.99991476  0.99999900  0.34410466  1
  Ti  Ti3  1  0.50001569  0.49999900  0.50998957  1
  Ti  Ti4  1  0.00008714  0.99999900  0.66664105  1
  Ti  Ti5  1  0.50008542  0.49999900  0.82334992  1
  Al  Al0  1  0.50000705  0.00000000  0.50526151  1
  Al  Al1  1  0.00010082  0.49999900  0.66664472  1
  Al  Al2  1  0.50009089  0.99999900  0.82800405  1
  Sb  Sb0  1  0.99999883  0.50000000  0.99426375  1
  Sb  Sb1  1  0.49983919  0.99999900  0.16666553  1
  Sb  Sb2  1  0.99993910  0.50000000  0.33917206  1
  Ru  Ru0  1  0.50000101  0.24668890  0.99809247  1
  Ru  Ru1  1  0.50000101  0.75331110  0.99809247  1
  Ru  Ru2  1  0.99988325  0.25218955  0.16666975  1
  Ru  Ru3  1  0.99988325  0.74780845  0.16666975  1
  Ru  Ru4  1  0.49994955  0.24667481  0.33526320  1
  Ru  Ru5  1  0.49995055  0.75332819  0.33526420  1
  Ru  Ru6  1  0.00000646  0.24631551  0.50275723  1
  Ru  Ru7  1  0.00000646  0.75368349  0.50275723  1
  Ru  Ru8  1  0.50008506  0.25061701  0.66665039  1
  Ru  Ru9  1  0.50008506  0.74938099  0.66665039  1
  Ru  Ru10  1  0.00008146  0.24632856  0.83056810  1
  Ru  Ru11  1  0.00008146  0.75366944  0.83056810  1
loop_
_geom_bond_atom_site_label_1
_geom_bond_atom_site_label_2
_geom_bond_distance
_geom_bond_site_symmetry_2
Al0 Ru8 2.612034 1_555
Al0 Ru9 2.612043 1_545
Al0 Ru6 2.653087 1_655
Al0 Ru6 2.653092 1_555
Al0 Ru7 2.653092 1_645
Al0 Ru7 2.653094 1_545
Al0 Ru5 2.689840 1_545
Al0 Ru4 2.689862 1_555
Al1 Ru6 2.649521 1_555
Al1 Ru7 2.649527 1_555
Al1 Ru11 2.649853 1_555
Al1 Ru10 2.649854 1_555
Al1 Ru9 2.663656 1_555
Al1 Ru8 2.663657 1_555
Al1 Ru8 2.663768 1_455
Al1 Ru9 2.663770 1_455
Al2 Ru9 2.611667 1_555
Al2 Ru8 2.611668 1_565
Al2 Ru10 2.653114 1_665
Al2 Ru11 2.653115 1_655
Al2 Ru11 2.653182 1_555
Al2 Ru10 2.653184 1_565
Al2 Ru1 2.690880 1_555
Al2 Ru0 2.690885 1_565
Sb0 Ti0 3.077315 1_655
Sb0 Ti0 3.077327 1_645
Sb0 Ti5 3.118256 1_555
Sb0 Ti5 3.118858 1_655
Sb0 Ti1 3.132078 1_656
Sb0 Ti1 3.132744 1_556
Sb1 Ti1 3.076622 1_565
Sb1 Ti1 3.076622 1_555
Sb1 Ti0 3.179447 1_554
Sb1 Ti2 3.179953 1_455
Sb1 Ti2 3.180326 1_555
Sb1 Ti0 3.180496 1_654
Sb2 Ti2 3.077290 1_555
Sb2 Ti2 3.077303 1_545
Sb2 Ti3 3.117461 1_555
Sb2 Ti3 3.117851 1_655
Sb2 Ti1 3.133500 1_655
Sb2 Ti1 3.133652 1_555
Ru0 Ti0 2.656713 1_545
Ru0 Ti0 2.656727 1_645
Ru0 Sb1 2.674565 1_546
Ru0 Sb0 2.678173 1_555
Ru0 Sb0 2.678188 1_455
Ru0 Ti1 2.697789 1_556
Ru0 Ti5 2.764066 1_555
Ru1 Ti0 2.656708 1_555
Ru1 Ti0 2.656719 1_655
Ru1 Sb1 2.674556 1_556
Ru1 Sb0 2.678175 1_555
Ru1 Sb0 2.678187 1_455
Ru1 Ti1 2.697797 1_556
Ru1 Ti5 2.764071 1_555
Ru2 Ti1 2.658086 1_555
Ru2 Ti1 2.658214 1_655
Ru2 Sb1 2.673550 1_645
Ru2 Sb1 2.673861 1_545
Ru2 Sb0 2.719798 1_554
Ru2 Sb2 2.720838 1_555
Ru2 Ti0 2.789242 1_644
Ru2 Ti2 2.789343 1_545
Ru3 Ti1 2.658085 1_555
Ru3 Ti1 2.658216 1_655
Ru3 Sb1 2.673549 1_655
Ru3 Sb1 2.673863 1_555
Ru3 Sb0 2.719789 1_554
Ru3 Sb2 2.720833 1_555
Ru3 Ti0 2.789244 1_654
Ru3 Ti2 2.789342 1_555
Ru4 Ti2 2.656541 1_545
Ru4 Ti2 2.656793 1_445
Ru4 Sb1 2.674779 1_545
Ru4 Sb2 2.678212 1_555
Ru4 Sb2 2.678290 1_455
Ru4 Ti1 2.698308 1_555
Ru4 Ti3 2.763939 1_555
Ru5 Ti2 2.656518 1_555
Ru5 Ti2 2.656779 1_455
Ru5 Sb1 2.674774 1_555
Ru5 Sb2 2.678220 1_555
Ru5 Sb2 2.678302 1_455
Ru5 Ti1 2.698335 1_555
Ru5 Ti3 2.763947 1_555
Ru6 Ti2 2.567561 1_445
Ru6 Ti4 2.623033 1_545
Ru6 Sb2 2.646337 1_455
Ru6 Ti3 2.680683 1_455
Ru6 Ti3 2.680743 1_555
Ru7 Ti2 2.567559 1_455
Ru7 Ti4 2.623027 1_555
Ru7 Sb2 2.646331 1_455
Ru7 Ti3 2.680686 1_455
Ru7 Ti3 2.680748 1_555
Ru8 Ti3 2.557879 1_555
Ru8 Ti5 2.558282 1_555
Ru8 Ti4 2.668093 1_545
Ru8 Ti4 2.668110 1_645
Ru9 Ti3 2.557877 1_555
Ru9 Ti5 2.558284 1_555
Ru9 Ti4 2.668095 1_555
Ru9 Ti4 2.668108 1_655
Ru10 Ti0 2.567856 1_545
Ru10 Ti4 2.623538 1_545
Ru10 Sb0 2.647453 1_455
Ru10 Ti5 2.680645 1_455
Ru10 Ti5 2.680675 1_555
Ru11 Ti0 2.567855 1_555
Ru11 Ti4 2.623540 1_555
Ru11 Sb0 2.647447 1_455
Ru11 Ti5 2.680643 1_455
Ru11 Ti5 2.680677 1_555
