# generated using pymatgen
data_Zr10ZnGeSb6
_symmetry_space_group_name_H-M   'P 1'
_cell_length_a   8.66223994
_cell_length_b   8.66223976
_cell_length_c   5.84284910
_cell_angle_alpha   90.00000000
_cell_angle_beta   90.00000000
_cell_angle_gamma   120.00000070
_symmetry_Int_Tables_number   1
_chemical_formula_structural   Zr10ZnGeSb6
_chemical_formula_sum   'Zr10 Zn1 Ge1 Sb6'
_cell_volume   379.67824050
_cell_formula_units_Z   1
loop_
 _symmetry_equiv_pos_site_id
 _symmetry_equiv_pos_as_xyz
  1  'x, y, z'
loop_
 _atom_site_type_symbol
 _atom_site_label
 _atom_site_symmetry_multiplicity
 _atom_site_fract_x
 _atom_site_fract_y
 _atom_site_fract_z
 _atom_site_occupancy
  Zr  Zr0  1  0.26652156  0.26652156  0.74844706  1
  Zr  Zr1  1  0.26652156  0.00000000  0.25155294  1
  Zr  Zr2  1  0.73347844  0.00000000  0.74844706  1
  Zr  Zr3  1  0.00000000  0.73347844  0.74844706  1
  Zr  Zr4  1  1.00000000  0.26652156  0.25155294  1
  Zr  Zr5  1  0.73347844  0.73347844  0.25155294  1
  Zr  Zr6  1  0.33333300  0.66666700  0.50000000  1
  Zr  Zr7  1  0.33333300  0.66666700  0.00000000  1
  Zr  Zr8  1  0.66666700  0.33333300  0.50000000  1
  Zr  Zr9  1  0.66666700  0.33333300  0.00000000  1
  Zn  Zn0  1  0.00000000  0.00000000  0.00000000  1
  Ge  Ge0  1  0.00000000  0.00000000  0.50000000  1
  Sb  Sb0  1  0.00000000  0.38896529  0.75187247  1
  Sb  Sb1  1  0.00000000  0.61103471  0.24812753  1
  Sb  Sb2  1  0.38896529  0.38896529  0.24812753  1
  Sb  Sb3  1  0.38896529  0.00000000  0.75187247  1
  Sb  Sb4  1  0.61103471  0.61103471  0.75187247  1
  Sb  Sb5  1  0.61103471  0.00000000  0.24812753  1
loop_
_geom_bond_atom_site_label_1
_geom_bond_atom_site_label_2
_geom_bond_distance
_geom_bond_site_symmetry_2
Zn0 Zr0 2.736831 1_554
Zn0 Zr5 2.736831 1_445
Zn0 Zr4 2.736831 1_455
Zn0 Zr3 2.736831 1_544
Zn0 Zr1 2.736831 1_555
Zn0 Zr2 2.736831 1_454
Ge0 Zr0 2.727128 1_555
Ge0 Zr5 2.727128 1_445
Ge0 Zr4 2.727128 1_455
Ge0 Zr3 2.727128 1_545
Ge0 Zr1 2.727128 1_555
Ge0 Zr2 2.727128 1_455
Ge0 Zn0 2.921425 1_555
Ge0 Zn0 2.921425 1_556
Sb0 Zr2 2.983955 1_455
Sb0 Zr0 2.983955 1_555
Sb0 Zr3 2.984323 1_555
Sb0 Zr9 3.046270 1_456
Sb0 Zr7 3.046273 1_556
Sb0 Zr8 3.056744 1_455
Sb0 Zr6 3.056747 1_555
Sb0 Zr4 3.106246 1_456
Sb0 Zr4 3.109756 1_455
Sb1 Zr1 2.983955 1_565
Sb1 Zr5 2.983955 1_455
Sb1 Zr4 2.984323 1_455
Sb1 Zr7 3.046270 1_555
Sb1 Zr9 3.046273 1_455
Sb1 Zr6 3.056744 1_555
Sb1 Zr8 3.056747 1_455
Sb1 Zr3 3.106246 1_554
Sb1 Zr3 3.109756 1_555
Sb2 Zr1 2.983955 1_555
Sb2 Zr4 2.983955 1_455
Sb2 Zr5 2.984323 1_555
Sb2 Zr7 3.046278 1_555
Sb2 Zr9 3.046278 1_555
Sb2 Zr6 3.056752 1_555
Sb2 Zr8 3.056752 1_555
Sb2 Zr0 3.106246 1_554
Sb2 Zr0 3.109756 1_555
Sb3 Zr3 2.983955 1_545
Sb3 Zr0 2.983955 1_555
Sb3 Zr2 2.984323 1_555
Sb3 Zr7 3.046270 1_546
Sb3 Zr9 3.046273 1_556
Sb3 Zr6 3.056744 1_545
Sb3 Zr8 3.056747 1_555
Sb3 Zr1 3.106246 1_556
Sb3 Zr1 3.109756 1_555
Sb4 Zr2 2.983955 1_565
Sb4 Zr3 2.983955 1_655
Sb4 Zr0 2.984323 1_555
Sb4 Zr9 3.046278 1_556
Sb4 Zr7 3.046278 1_556
Sb4 Zr8 3.056752 1_555
Sb4 Zr6 3.056752 1_555
Sb4 Zr5 3.106246 1_556
Sb4 Zr5 3.109756 1_555
Sb5 Zr4 2.983955 1_555
Sb5 Zr5 2.983955 1_545
Sb5 Zr1 2.984323 1_555
Sb5 Zr9 3.046270 1_555
Sb5 Zr7 3.046273 1_545
Sb5 Zr8 3.056744 1_555
Sb5 Zr6 3.056747 1_545
Sb5 Zr2 3.106246 1_554
Sb5 Zr2 3.109756 1_555
