# generated using pymatgen
data_Rb8TiBi4
_symmetry_space_group_name_H-M   'P 1'
_cell_length_a   12.12171462
_cell_length_b   12.12171464
_cell_length_c   12.12171518
_cell_angle_alpha   59.99999851
_cell_angle_beta   59.99999845
_cell_angle_gamma   59.99999748
_symmetry_Int_Tables_number   1
_chemical_formula_structural   Rb8TiBi4
_chemical_formula_sum   'Rb16 Ti2 Bi8'
_cell_volume   1259.43909541
_cell_formula_units_Z   2
loop_
 _symmetry_equiv_pos_site_id
 _symmetry_equiv_pos_as_xyz
  1  'x, y, z'
loop_
 _atom_site_type_symbol
 _atom_site_label
 _atom_site_symmetry_multiplicity
 _atom_site_fract_x
 _atom_site_fract_y
 _atom_site_fract_z
 _atom_site_occupancy
  Rb  Rb0  1  0.62500000  0.12500000  0.62500000  1
  Rb  Rb1  1  0.62500000  0.62500000  0.12500000  1
  Rb  Rb2  1  0.12500000  0.62500000  0.62500000  1
  Rb  Rb3  1  0.62500000  0.62500000  0.62500000  1
  Rb  Rb4  1  0.02667208  0.02667208  0.47332792  1
  Rb  Rb5  1  0.77667208  0.22332792  0.22332792  1
  Rb  Rb6  1  0.22332792  0.77667208  0.77667208  1
  Rb  Rb7  1  0.77667208  0.77667208  0.22332792  1
  Rb  Rb8  1  0.77667208  0.22332792  0.77667208  1
  Rb  Rb9  1  0.22332792  0.77667208  0.22332792  1
  Rb  Rb10  1  0.47332792  0.02667208  0.47332792  1
  Rb  Rb11  1  0.47332792  0.02667208  0.02667208  1
  Rb  Rb12  1  0.02667208  0.47332792  0.47332792  1
  Rb  Rb13  1  0.02667208  0.47332792  0.02667208  1
  Rb  Rb14  1  0.22332792  0.22332792  0.77667208  1
  Rb  Rb15  1  0.47332792  0.47332792  0.02667208  1
  Ti  Ti0  1  0.75000000  0.75000000  0.75000000  1
  Ti  Ti1  1  0.50000000  0.50000000  0.50000000  1
  Bi  Bi0  1  0.40359671  0.78921086  0.40359671  1
  Bi  Bi1  1  0.84640329  0.84640329  0.46078914  1
  Bi  Bi2  1  0.46078914  0.84640329  0.84640329  1
  Bi  Bi3  1  0.84640329  0.84640329  0.84640329  1
  Bi  Bi4  1  0.78921086  0.40359671  0.40359671  1
  Bi  Bi5  1  0.40359671  0.40359671  0.40359671  1
  Bi  Bi6  1  0.40359671  0.40359671  0.78921086  1
  Bi  Bi7  1  0.84640329  0.46078914  0.84640329  1
loop_
_geom_bond_atom_site_label_1
_geom_bond_atom_site_label_2
_geom_bond_distance
_geom_bond_site_symmetry_2
Rb0 Ti0 3.711502 1_545
Rb0 Ti1 3.711502 1_555
Rb0 Rb4 3.992975 1_655
Rb0 Rb14 3.992975 1_555
Rb0 Rb8 3.992975 1_555
Rb0 Rb11 3.992975 1_556
Rb0 Rb5 3.992975 1_555
Rb0 Rb10 3.992975 1_555
Rb1 Ti1 3.711502 1_555
Rb1 Ti0 3.711502 1_554
Rb1 Rb13 3.992975 1_655
Rb1 Rb9 3.992975 1_555
Rb1 Rb11 3.992975 1_565
Rb1 Rb5 3.992975 1_555
Rb1 Rb7 3.992975 1_555
Rb1 Rb15 3.992975 1_555
Rb2 Ti1 3.711502 1_555
Rb2 Ti0 3.711502 1_455
Rb2 Rb4 3.992975 1_565
Rb2 Rb6 3.992975 1_555
Rb2 Rb9 3.992975 1_555
Rb3 Ti0 3.711502 1_555
Rb3 Ti1 3.711502 1_555
Rb3 Rb6 3.992975 1_555
Rb3 Rb8 3.992975 1_555
Rb3 Rb7 3.992975 1_555
Rb4 Rb5 4.334180 1_455
Rb4 Rb8 4.334180 1_455
Rb4 Rb9 4.334180 1_545
Rb4 Rb6 4.334180 1_545
Rb10 Rb3 3.992975 1_545
Rb10 Rb7 4.334180 1_545
Rb10 Rb5 4.334180 1_555
Rb10 Rb6 4.334180 1_545
Rb10 Rb14 4.334180 1_555
Rb11 Rb7 4.334180 1_545
Rb11 Rb8 4.334180 1_554
Rb11 Rb9 4.334180 1_545
Rb11 Rb14 4.334180 1_554
Rb12 Rb3 3.992975 1_455
Rb12 Rb2 3.992975 1_555
Rb12 Rb7 4.334180 1_455
Rb12 Rb9 4.334180 1_555
Rb12 Rb8 4.334180 1_455
Rb12 Rb14 4.334180 1_555
Rb13 Rb2 3.992975 1_554
Rb13 Rb7 4.334180 1_455
Rb13 Rb6 4.334180 1_554
Rb13 Rb5 4.334180 1_455
Rb13 Rb14 4.334180 1_554
Rb14 Rb2 3.992975 1_555
Rb15 Rb3 3.992975 1_554
Rb15 Rb5 4.334180 1_555
Rb15 Rb8 4.334180 1_554
Rb15 Rb9 4.334180 1_555
Rb15 Rb6 4.334180 1_554
Bi0 Ti1 2.862418 1_555
Bi0 Rb3 3.858245 1_555
Bi0 Rb2 3.858254 1_555
Bi0 Rb1 3.858255 1_555
Bi0 Rb7 3.874550 1_555
Bi0 Rb6 3.874550 1_555
Bi0 Rb9 3.874561 1_555
Bi0 Rb10 3.910866 1_565
Bi0 Rb4 3.910874 1_565
Bi0 Rb11 3.910874 1_565
Bi1 Ti0 2.862418 1_555
Bi1 Rb3 3.858245 1_555
Bi1 Rb2 3.858254 1_655
Bi1 Rb0 3.858254 1_565
Bi1 Rb10 3.874550 1_565
Bi1 Rb12 3.874550 1_655
Bi1 Rb4 3.874560 1_665
Bi1 Rb7 3.910866 1_555
Bi1 Rb9 3.910874 1_655
Bi1 Rb5 3.910874 1_565
Bi2 Ti0 2.862418 1_555
Bi2 Rb3 3.858245 1_555
Bi2 Rb0 3.858254 1_565
Bi2 Rb1 3.858255 1_556
Bi2 Rb15 3.874550 1_556
Bi2 Rb10 3.874550 1_565
Bi2 Rb11 3.874561 1_566
Bi2 Rb6 3.910866 1_555
Bi2 Rb14 3.910874 1_565
Bi2 Rb9 3.910874 1_556
Bi3 Ti0 2.862408 1_555
Bi3 Rb2 3.858247 1_655
Bi3 Rb0 3.858247 1_565
Bi3 Rb1 3.858247 1_556
Bi3 Rb11 3.874553 1_566
Bi3 Rb13 3.874553 1_656
Bi3 Rb4 3.874553 1_665
Bi3 Rb6 3.910877 1_655
Bi3 Rb8 3.910877 1_565
Bi3 Rb7 3.910877 1_556
Bi4 Ti1 2.862418 1_555
Bi4 Rb3 3.858245 1_555
Bi4 Rb0 3.858254 1_555
Bi4 Rb1 3.858255 1_555
Bi4 Rb7 3.874550 1_555
Bi4 Rb8 3.874550 1_555
Bi4 Rb5 3.874561 1_555
Bi4 Rb12 3.910866 1_655
Bi4 Rb4 3.910874 1_655
Bi4 Rb13 3.910874 1_655
Bi5 Ti1 2.862408 1_555
Bi5 Rb2 3.858247 1_555
Bi5 Rb0 3.858247 1_555
Bi5 Rb1 3.858247 1_555
Bi5 Rb5 3.874553 1_555
Bi5 Rb9 3.874553 1_555
Bi5 Rb14 3.874553 1_555
Bi5 Rb12 3.910877 1_555
Bi5 Rb10 3.910877 1_555
Bi5 Rb15 3.910877 1_555
Bi6 Ti1 2.862418 1_555
Bi6 Rb3 3.858245 1_555
Bi6 Rb2 3.858254 1_555
Bi6 Rb0 3.858254 1_555
Bi6 Rb8 3.874550 1_555
Bi6 Rb6 3.874550 1_555
Bi6 Rb14 3.874560 1_555
Bi6 Rb15 3.910866 1_556
Bi6 Rb13 3.910874 1_556
Bi6 Rb11 3.910874 1_556
Bi7 Ti0 2.862418 1_555
Bi7 Rb3 3.858245 1_555
Bi7 Rb2 3.858254 1_655
Bi7 Rb1 3.858255 1_556
Bi7 Rb15 3.874550 1_556
Bi7 Rb12 3.874550 1_655
Bi7 Rb13 3.874561 1_656
Bi7 Rb8 3.910866 1_555
Bi7 Rb14 3.910874 1_655
Bi7 Rb5 3.910874 1_556
