# generated using pymatgen
data_MnFe3Co4
_symmetry_space_group_name_H-M   'P 1'
_cell_length_a   6.96414674
_cell_length_b   6.96414720
_cell_length_c   6.96414732
_cell_angle_alpha   33.56031889
_cell_angle_beta   33.56031657
_cell_angle_gamma   33.56031397
_symmetry_Int_Tables_number   1
_chemical_formula_structural   MnFe3Co4
_chemical_formula_sum   'Mn1 Fe3 Co4'
_cell_volume   91.94069460
_cell_formula_units_Z   1
loop_
 _symmetry_equiv_pos_site_id
 _symmetry_equiv_pos_as_xyz
  1  'x, y, z'
loop_
 _atom_site_type_symbol
 _atom_site_label
 _atom_site_symmetry_multiplicity
 _atom_site_fract_x
 _atom_site_fract_y
 _atom_site_fract_z
 _atom_site_occupancy
  Mn  Mn0  1  0.00000000  0.00000000  0.00000000  1
  Fe  Fe0  1  0.25066982  0.25066982  0.25066982  1
  Fe  Fe1  1  0.74933018  0.74933018  0.74933018  1
  Fe  Fe2  1  0.50000000  0.50000000  0.50000000  1
  Co  Co0  1  0.62338980  0.62338980  0.62338980  1
  Co  Co1  1  0.12654612  0.12654612  0.12654612  1
  Co  Co2  1  0.87345388  0.87345388  0.87345388  1
  Co  Co3  1  0.37661020  0.37661020  0.37661020  1
loop_
_geom_bond_atom_site_label_1
_geom_bond_atom_site_label_2
_geom_bond_distance
_geom_bond_site_symmetry_2
Co0 Fe2 2.430454 1_555
Co0 Fe0 2.447783 1_655
Co0 Fe0 2.447783 1_565
Co0 Fe0 2.447783 1_556
Co0 Mn0 2.473137 1_566
Co0 Mn0 2.473137 1_656
Co0 Mn0 2.473138 1_665
Co0 Fe1 2.480694 1_555
Co1 Fe0 2.444910 1_555
Co1 Fe2 2.452403 1_455
Co1 Fe2 2.452403 1_545
Co1 Fe2 2.452403 1_554
Co1 Fe1 2.477275 1_544
Co1 Fe1 2.477275 1_454
Co1 Fe1 2.477275 1_445
Co1 Mn0 2.492626 1_555
Co2 Fe1 2.444910 1_555
Co2 Fe2 2.452403 1_655
Co2 Fe2 2.452403 1_565
Co2 Fe2 2.452403 1_556
Co2 Fe0 2.477275 1_566
Co2 Fe0 2.477275 1_656
Co2 Fe0 2.477275 1_665
Co2 Mn0 2.492626 1_666
Co3 Fe2 2.430454 1_555
Co3 Fe1 2.447783 1_455
Co3 Fe1 2.447783 1_545
Co3 Fe1 2.447783 1_554
Co3 Mn0 2.473137 1_655
Co3 Mn0 2.473137 1_565
Co3 Mn0 2.473138 1_556
Co3 Fe0 2.480694 1_555
