# generated using pymatgen
data_CdAg5SbO6
_symmetry_space_group_name_H-M   'P 1'
_cell_length_a   5.86415343
_cell_length_b   5.86415396
_cell_length_c   12.40908425
_cell_angle_alpha   90.00000000
_cell_angle_beta   90.00000000
_cell_angle_gamma   119.99999699
_symmetry_Int_Tables_number   1
_chemical_formula_structural   CdAg5SbO6
_chemical_formula_sum   'Cd2 Ag10 Sb2 O12'
_cell_volume   369.55668799
_cell_formula_units_Z   2
loop_
 _symmetry_equiv_pos_site_id
 _symmetry_equiv_pos_as_xyz
  1  'x, y, z'
loop_
 _atom_site_type_symbol
 _atom_site_label
 _atom_site_symmetry_multiplicity
 _atom_site_fract_x
 _atom_site_fract_y
 _atom_site_fract_z
 _atom_site_occupancy
  Cd  Cd0  1  0.66666700  0.33333300  0.75000000  1
  Cd  Cd1  1  0.33333300  0.66666700  0.25000000  1
  Ag  Ag0  1  0.00000000  0.00000000  0.88286997  1
  Ag  Ag1  1  0.00000000  0.00000000  0.38286997  1
  Ag  Ag2  1  0.00000000  0.00000000  0.11713003  1
  Ag  Ag3  1  0.00000000  0.00000000  0.61713003  1
  Ag  Ag4  1  0.50000000  0.50000000  0.00000000  1
  Ag  Ag5  1  0.00000000  0.50000000  0.00000000  1
  Ag  Ag6  1  0.50000000  0.00000000  0.00000000  1
  Ag  Ag7  1  0.00000000  0.50000000  0.50000000  1
  Ag  Ag8  1  0.50000000  0.00000000  0.50000000  1
  Ag  Ag9  1  0.50000000  0.50000000  0.50000000  1
  Sb  Sb0  1  0.33333300  0.66666700  0.75000000  1
  Sb  Sb1  1  0.66666700  0.33333300  0.25000000  1
  O  O0  1  0.60320313  0.64216878  0.84113806  1
  O  O1  1  0.03896465  0.39679687  0.84113806  1
  O  O2  1  0.35783122  0.96103535  0.84113806  1
  O  O3  1  0.96103535  0.35783122  0.34113806  1
  O  O4  1  0.39679687  0.03896465  0.34113806  1
  O  O5  1  0.64216878  0.60320313  0.34113806  1
  O  O6  1  0.39679687  0.35783122  0.15886194  1
  O  O7  1  0.96103535  0.60320313  0.15886194  1
  O  O8  1  0.64216878  0.03896465  0.15886194  1
  O  O9  1  0.03896465  0.64216878  0.65886194  1
  O  O10  1  0.60320313  0.96103535  0.65886194  1
  O  O11  1  0.35783122  0.39679687  0.65886194  1
loop_
_geom_bond_atom_site_label_1
_geom_bond_atom_site_label_2
_geom_bond_distance
_geom_bond_site_symmetry_2
Cd0 O1 2.317635 1_655
Cd0 O10 2.317635 1_545
Cd0 O9 2.317638 1_655
Cd0 O2 2.317638 1_545
Cd0 O11 2.317645 1_555
Cd0 O0 2.317645 1_555
Cd1 O7 2.317635 1_455
Cd1 O4 2.317635 1_565
Cd1 O3 2.317638 1_455
Cd1 O8 2.317638 1_565
Cd1 O5 2.317645 1_555
Cd1 O6 2.317645 1_555
Ag0 O2 2.281017 1_545
Ag0 O0 2.281020 1_445
Ag0 O1 2.281023 1_555
Ag1 O3 2.281017 1_455
Ag1 O5 2.281020 1_445
Ag1 O4 2.281023 1_555
Ag2 O8 2.281017 1_455
Ag2 O6 2.281020 1_555
Ag2 O7 2.281023 1_445
Ag3 O9 2.281017 1_545
Ag3 O11 2.281020 1_555
Ag3 O10 2.281023 1_445
Ag4 O6 2.107822 1_555
Ag4 O0 2.107822 1_554
Ag5 O7 2.107820 1_455
Ag5 O1 2.107820 1_554
Ag6 O8 2.107822 1_555
Ag6 O2 2.107822 1_544
Ag7 O9 2.107823 1_555
Ag7 O3 2.107823 1_455
Ag8 O10 2.107820 1_545
Ag8 O4 2.107820 1_555
Ag9 O11 2.107822 1_555
Ag9 O5 2.107822 1_555
O0 Sb0 2.007863 1_555
O1 Sb0 2.007863 1_555
O2 Sb0 2.007863 1_555
O3 Sb1 2.007863 1_555
O4 Sb1 2.007863 1_555
O5 Sb1 2.007863 1_555
O6 Sb1 2.007863 1_555
O7 Sb1 2.007863 1_555
O8 Sb1 2.007863 1_555
O9 Sb0 2.007863 1_555
O10 Sb0 2.007863 1_555
O11 Sb0 2.007863 1_555
