# generated using pymatgen
data_K2Rb2I2O
_symmetry_space_group_name_H-M   'P 1'
_cell_length_a   9.87883845
_cell_length_b   9.87883822
_cell_length_c   9.87883783
_cell_angle_alpha   148.59876738
_cell_angle_beta   148.59876440
_cell_angle_gamma   45.00223830
_symmetry_Int_Tables_number   1
_chemical_formula_structural   K2Rb2I2O
_chemical_formula_sum   'K2 Rb2 I2 O1'
_cell_volume   260.90339546
_cell_formula_units_Z   1
loop_
 _symmetry_equiv_pos_site_id
 _symmetry_equiv_pos_as_xyz
  1  'x, y, z'
loop_
 _atom_site_type_symbol
 _atom_site_label
 _atom_site_symmetry_multiplicity
 _atom_site_fract_x
 _atom_site_fract_y
 _atom_site_fract_z
 _atom_site_occupancy
  K  K0  1  0.50000000  0.00000000  0.50000000  1
  K  K1  1  0.00000000  0.50000000  0.50000000  1
  Rb  Rb0  1  0.14788756  0.14788756  1.00000000  1
  Rb  Rb1  1  0.85211244  0.85211244  0.00000000  1
  I  I0  1  0.35820429  0.35820429  0.00000000  1
  I  I1  1  0.64179571  0.64179571  1.00000000  1
  O  O0  1  0.00000000  0.00000000  0.00000000  1
loop_
_geom_bond_atom_site_label_1
_geom_bond_atom_site_label_2
_geom_bond_distance
_geom_bond_site_symmetry_2
K0 O0 2.673321 1_555
K0 O0 2.673321 1_656
K1 O0 2.673320 1_555
K1 O0 2.673320 1_566
I0 K0 3.720997 1_554
I0 K1 3.720997 1_554
I0 K0 3.720997 1_565
I0 K1 3.720998 1_655
I0 Rb1 3.782281 1_556
I0 Rb1 3.782281 1_444
I0 Rb1 3.782281 1_545
I0 Rb1 3.782281 1_455
I0 Rb0 3.839030 1_554
I1 K0 3.720997 1_566
I1 K1 3.720997 1_656
I1 K0 3.720997 1_555
I1 K1 3.720998 1_555
I1 Rb0 3.782281 1_554
I1 Rb0 3.782281 1_666
I1 Rb0 3.782281 1_565
I1 Rb0 3.782281 1_655
I1 Rb1 3.839030 1_556
O0 Rb0 2.699475 1_554
O0 Rb1 2.699475 1_445
