# generated using pymatgen
data_K3ScRh2O9
_symmetry_space_group_name_H-M   'P 1'
_cell_length_a   5.78299324
_cell_length_b   5.78296037
_cell_length_c   13.96784246
_cell_angle_alpha   89.99978443
_cell_angle_beta   90.00001592
_cell_angle_gamma   60.00706331
_symmetry_Int_Tables_number   1
_chemical_formula_structural   K3ScRh2O9
_chemical_formula_sum   'K6 Sc2 Rh4 O18'
_cell_volume   404.57008528
_cell_formula_units_Z   2
loop_
 _symmetry_equiv_pos_site_id
 _symmetry_equiv_pos_as_xyz
  1  'x, y, z'
loop_
 _atom_site_type_symbol
 _atom_site_label
 _atom_site_symmetry_multiplicity
 _atom_site_fract_x
 _atom_site_fract_y
 _atom_site_fract_z
 _atom_site_occupancy
  K  K0  1  0.33312705  0.33316098  0.10146311  1
  K  K1  1  0.99949448  0.99955456  0.25001922  1
  K  K2  1  0.33314755  0.33318547  0.39854526  1
  K  K3  1  0.66687530  0.66683650  0.60144137  1
  K  K4  1  0.00050667  0.00044485  0.74998023  1
  K  K5  1  0.66687132  0.66682367  0.89855244  1
  Sc  Sc0  1  0.99999720  0.99999839  0.99999976  1
  Sc  Sc1  1  0.00000120  0.00000154  0.50000043  1
  Rh  Rh0  1  0.66653039  0.66654239  0.15125416  1
  Rh  Rh1  1  0.66653032  0.66654510  0.34875859  1
  Rh  Rh2  1  0.33346949  0.33345403  0.65123314  1
  Rh  Rh3  1  0.33346576  0.33345470  0.84875476  1
  O  O0  1  0.82624501  0.34708895  0.08220367  1
  O  O1  1  0.34707683  0.82625837  0.08220499  1
  O  O2  1  0.82625329  0.82626478  0.08213891  1
  O  O3  1  0.95061397  0.52450860  0.25000741  1
  O  O4  1  0.52447320  0.52448826  0.25000643  1
  O  O5  1  0.52449880  0.95062758  0.25000642  1
  O  O6  1  0.82625160  0.82626177  0.41787151  1
  O  O7  1  0.82623963  0.34709935  0.41780730  1
  O  O8  1  0.34708229  0.82626319  0.41780291  1
  O  O9  1  0.65291716  0.17374382  0.58219199  1
  O  O10  1  0.17375734  0.65290437  0.58219013  1
  O  O11  1  0.17374758  0.17373800  0.58212456  1
  O  O12  1  0.47550445  0.04936345  0.74999390  1
  O  O13  1  0.47552240  0.47551047  0.74999411  1
  O  O14  1  0.04937925  0.47548591  0.74999312  1
  O  O15  1  0.17374254  0.17373377  0.91786651  1
  O  O16  1  0.65291984  0.17373980  0.91779895  1
  O  O17  1  0.17375110  0.65291038  0.91779970  1
loop_
_geom_bond_atom_site_label_1
_geom_bond_atom_site_label_2
_geom_bond_distance
_geom_bond_site_symmetry_2
K0 O3 2.824086 1_455
K0 O5 2.824127 1_545
K0 O4 2.824477 1_555
K0 O0 2.904358 1_455
K0 O1 2.904399 1_545
K0 O2 2.905120 1_455
K0 O1 2.905213 1_555
K0 O2 2.905250 1_545
K0 O0 2.905284 1_555
K0 O15 3.020861 1_554
K0 O17 3.024217 1_554
K0 O16 3.024356 1_554
K1 O5 2.898715 1_555
K1 O3 2.898836 1_555
K1 O4 2.902449 1_565
K1 O4 2.902712 1_655
K1 O3 2.904816 1_565
K1 O5 2.905009 1_655
K1 O6 2.916958 1_555
K1 O2 2.917265 1_555
K1 O7 2.919366 1_565
K1 O8 2.919441 1_655
K1 O0 2.919630 1_565
K1 O1 2.919774 1_655
K2 O3 2.824082 1_455
K2 O5 2.824177 1_545
K2 O4 2.824273 1_555
K2 O7 2.904550 1_455
K2 O8 2.904551 1_545
K2 O8 2.905056 1_555
K2 O7 2.905096 1_555
K2 O6 2.905116 1_455
K2 O6 2.905272 1_545
K2 O11 3.020745 1_555
K2 O10 3.023929 1_555
K2 O9 3.024081 1_555
K3 O14 2.824124 1_655
K3 O12 2.824213 1_565
K3 O13 2.824587 1_555
K3 O10 2.904336 1_655
K3 O9 2.904390 1_565
K3 O11 2.905094 1_655
K3 O9 2.905201 1_555
K3 O11 2.905259 1_565
K3 O10 2.905286 1_555
K3 O6 3.020511 1_555
K3 O7 3.023849 1_555
K3 O8 3.024045 1_555
K4 O12 2.898699 1_555
K4 O14 2.898782 1_555
K4 O13 2.902438 1_545
K4 O13 2.902728 1_455
K4 O14 2.904864 1_545
K4 O12 2.905018 1_455
K4 O11 2.916992 1_555
K4 O15 2.917313 1_555
K4 O10 2.919376 1_545
K4 O9 2.919497 1_455
K4 O17 2.919675 1_545
K4 O16 2.919838 1_455
K5 O14 2.824222 1_655
K5 O12 2.824305 1_565
K5 O13 2.824593 1_555
K5 O17 2.904370 1_655
K5 O16 2.904457 1_565
K5 O15 2.905061 1_655
K5 O16 2.905125 1_555
K5 O17 2.905238 1_555
K5 O15 2.905286 1_565
K5 O2 3.020771 1_556
K5 O0 3.024034 1_556
K5 O1 3.024222 1_556
O0 Rh0 1.868218 1_555
O0 Sc0 2.083389 1_544
O1 Rh0 1.868211 1_555
O1 Sc0 2.083355 1_454
O2 Rh0 1.868503 1_555
O2 Sc0 2.084351 1_554
O3 Rh1 1.981693 1_555
O3 Rh0 1.981708 1_555
O4 Rh0 1.981686 1_555
O4 Rh1 1.981699 1_555
O5 Rh1 1.981685 1_555
O5 Rh0 1.981705 1_555
O6 Rh1 1.868458 1_555
O6 Sc1 2.084326 1_665
O7 Rh1 1.868165 1_555
O7 Sc1 2.083328 1_655
O8 Rh1 1.868157 1_555
O8 Sc1 2.083307 1_565
O9 Rh2 1.868132 1_555
O9 Sc1 2.083273 1_655
O10 Rh2 1.868144 1_555
O10 Sc1 2.083299 1_565
O11 Rh2 1.868427 1_555
O11 Sc1 2.084262 1_555
O12 Rh2 1.981798 1_555
O12 Rh3 1.981810 1_555
O13 Rh2 1.981768 1_555
O13 Rh3 1.981772 1_555
O14 Rh3 1.981800 1_555
O14 Rh2 1.981802 1_555
O15 Rh3 1.868473 1_555
O15 Sc0 2.084319 1_445
O16 Rh3 1.868178 1_555
O16 Sc0 2.083312 1_545
O17 Rh3 1.868188 1_555
O17 Sc0 2.083349 1_455
