# generated using pymatgen
data_Zr6Be8Al7Pd8
_symmetry_space_group_name_H-M   'P 1'
_cell_length_a   8.38707635
_cell_length_b   8.38707641
_cell_length_c   8.38707243
_cell_angle_alpha   60.00009311
_cell_angle_beta   60.00009288
_cell_angle_gamma   60.00006916
_symmetry_Int_Tables_number   1
_chemical_formula_structural   Zr6Be8Al7Pd8
_chemical_formula_sum   'Zr6 Be8 Al7 Pd8'
_cell_volume   417.17418863
_cell_formula_units_Z   1
loop_
 _symmetry_equiv_pos_site_id
 _symmetry_equiv_pos_as_xyz
  1  'x, y, z'
loop_
 _atom_site_type_symbol
 _atom_site_label
 _atom_site_symmetry_multiplicity
 _atom_site_fract_x
 _atom_site_fract_y
 _atom_site_fract_z
 _atom_site_occupancy
  Zr  Zr0  1  0.69918156  0.30081783  0.30081928  1
  Zr  Zr1  1  0.30081844  0.69918217  0.69918072  1
  Zr  Zr2  1  0.30081783  0.69918156  0.30081928  1
  Zr  Zr3  1  0.69918217  0.30081844  0.69918072  1
  Zr  Zr4  1  0.30081529  0.30081529  0.69918406  1
  Zr  Zr5  1  0.69918471  0.69918471  0.30081594  1
  Be  Be0  1  0.32603634  0.32603634  0.32603809  1
  Be  Be1  1  0.67396366  0.67396366  0.67396191  1
  Be  Be2  1  0.32600096  0.32600096  0.02196076  1
  Be  Be3  1  0.32600172  0.02196021  0.32600162  1
  Be  Be4  1  0.67399904  0.67399904  0.97803924  1
  Be  Be5  1  0.67399828  0.97803979  0.67399838  1
  Be  Be6  1  0.02196021  0.32600172  0.32600162  1
  Be  Be7  1  0.97803979  0.67399828  0.67399838  1
  Al  Al0  1  0.50000000  0.00000000  0.00000000  1
  Al  Al1  1  0.00000000  0.50000000  0.50000000  1
  Al  Al2  1  0.00000000  0.50000000  0.00000000  1
  Al  Al3  1  0.50000000  0.00000000  0.50000000  1
  Al  Al4  1  0.00000000  0.00000000  0.50000000  1
  Al  Al5  1  0.50000000  0.50000000  0.00000000  1
  Al  Al6  1  0.00000000  0.00000000  0.00000000  1
  Pd  Pd0  1  0.12564048  0.12564048  0.12564262  1
  Pd  Pd1  1  0.87435952  0.87435952  0.87435738  1
  Pd  Pd2  1  0.12564409  0.12564409  0.62307227  1
  Pd  Pd3  1  0.12564163  0.62307439  0.12564515  1
  Pd  Pd4  1  0.87435591  0.87435591  0.37692773  1
  Pd  Pd5  1  0.87435837  0.37692561  0.87435485  1
  Pd  Pd6  1  0.62307439  0.12564163  0.12564515  1
  Pd  Pd7  1  0.37692561  0.87435837  0.87435485  1
loop_
_geom_bond_atom_site_label_1
_geom_bond_atom_site_label_2
_geom_bond_distance
_geom_bond_site_symmetry_2
Be0 Pd2 2.511282 1_555
Be0 Pd6 2.511304 1_555
Be0 Pd3 2.511304 1_555
Be0 Be6 2.550608 1_555
Be0 Be3 2.550608 1_555
Be0 Be2 2.550615 1_555
Be0 Zr4 2.933366 1_555
Be0 Zr0 2.933378 1_555
Be0 Zr2 2.933378 1_555
Be1 Pd4 2.511282 1_555
Be1 Pd7 2.511304 1_555
Be1 Pd5 2.511304 1_555
Be1 Be7 2.550608 1_555
Be1 Be5 2.550608 1_555
Be1 Be4 2.550615 1_555
Be1 Zr5 2.933366 1_555
Be1 Zr1 2.933378 1_555
Be1 Zr3 2.933378 1_555
Be2 Pd0 2.511022 1_555
Be2 Pd6 2.511272 1_555
Be2 Pd3 2.511272 1_555
Be2 Be6 2.550016 1_555
Be2 Be3 2.550016 1_555
Be2 Zr4 2.933634 1_554
Be2 Zr3 2.933810 1_554
Be2 Zr1 2.933810 1_554
Be3 Pd0 2.511020 1_555
Be3 Pd2 2.511250 1_555
Be3 Pd6 2.511255 1_555
Be3 Be6 2.550022 1_555
Be3 Zr2 2.933628 1_545
Be3 Zr1 2.933793 1_545
Be3 Zr5 2.933802 1_545
Be4 Pd1 2.511022 1_555
Be4 Pd7 2.511272 1_555
Be4 Pd5 2.511272 1_555
Be4 Be7 2.550016 1_555
Be4 Be5 2.550016 1_555
Be4 Zr5 2.933634 1_556
Be4 Zr2 2.933810 1_556
Be4 Zr0 2.933810 1_556
Be5 Pd1 2.511020 1_555
Be5 Pd4 2.511250 1_555
Be5 Pd7 2.511255 1_555
Be5 Be7 2.550022 1_555
Be5 Zr3 2.933628 1_565
Be5 Zr0 2.933793 1_565
Be5 Zr4 2.933802 1_565
Be6 Pd0 2.511020 1_555
Be6 Pd2 2.511250 1_555
Be6 Pd3 2.511255 1_555
Be6 Zr0 2.933628 1_455
Be6 Zr3 2.933793 1_455
Be6 Zr5 2.933802 1_455
Be7 Pd1 2.511020 1_555
Be7 Pd4 2.511250 1_555
Be7 Pd5 2.511255 1_555
Be7 Zr1 2.933628 1_655
Be7 Zr2 2.933793 1_655
Be7 Zr4 2.933802 1_655
Al0 Be2 2.425720 1_555
Al0 Be4 2.425720 1_544
Al0 Be3 2.425723 1_555
Al0 Be5 2.425723 1_544
Al0 Pd1 2.563654 1_544
Al0 Pd0 2.563654 1_555
Al0 Pd6 2.563661 1_555
Al0 Pd7 2.563661 1_544
Al0 Zr5 3.025920 1_545
Al0 Zr4 3.025920 1_554
Al0 Zr3 3.025929 1_554
Al0 Zr2 3.025929 1_545
Al1 Be1 2.425775 1_455
Al1 Be0 2.425775 1_555
Al1 Be7 2.425973 1_455
Al1 Be6 2.425973 1_555
Al1 Pd5 2.563621 1_455
Al1 Pd3 2.563621 1_555
Al1 Pd4 2.563629 1_455
Al1 Pd2 2.563629 1_555
Al1 Zr4 3.025911 1_555
Al1 Zr5 3.025911 1_455
Al1 Zr2 3.025921 1_555
Al1 Zr3 3.025921 1_455
Al2 Be2 2.425720 1_555
Al2 Be4 2.425720 1_454
Al2 Be6 2.425723 1_555
Al2 Be7 2.425723 1_454
Al2 Pd1 2.563654 1_454
Al2 Pd0 2.563654 1_555
Al2 Pd3 2.563661 1_555
Al2 Pd5 2.563661 1_454
Al2 Zr5 3.025920 1_455
Al2 Zr4 3.025920 1_554
Al2 Zr1 3.025929 1_554
Al2 Zr0 3.025929 1_455
Al3 Be1 2.425775 1_545
Al3 Be0 2.425775 1_555
Al3 Be5 2.425973 1_545
Al3 Be3 2.425973 1_555
Al3 Pd7 2.563621 1_545
Al3 Pd6 2.563621 1_555
Al3 Pd4 2.563629 1_545
Al3 Pd2 2.563629 1_555
Al3 Zr4 3.025911 1_555
Al3 Zr5 3.025911 1_545
Al3 Zr0 3.025921 1_555
Al3 Zr1 3.025921 1_545
Al4 Be3 2.425725 1_555
Al4 Be5 2.425725 1_445
Al4 Be6 2.425725 1_555
Al4 Be7 2.425725 1_445
Al4 Pd1 2.563639 1_445
Al4 Pd0 2.563639 1_555
Al4 Pd2 2.563656 1_555
Al4 Pd4 2.563656 1_445
Al4 Zr1 3.025919 1_545
Al4 Zr0 3.025919 1_455
Al4 Zr3 3.025919 1_455
Al4 Zr2 3.025919 1_545
Al5 Be1 2.425788 1_554
Al5 Be0 2.425788 1_555
Al5 Be4 2.425982 1_554
Al5 Be2 2.425982 1_555
Al5 Pd5 2.563646 1_554
Al5 Pd3 2.563646 1_555
Al5 Pd7 2.563646 1_554
Al5 Pd6 2.563646 1_555
Al5 Zr2 3.025927 1_555
Al5 Zr3 3.025927 1_554
Al5 Zr0 3.025927 1_555
Al5 Zr1 3.025927 1_554
Al6 Pd0 2.581178 1_555
Al6 Pd1 2.581178 1_444
Al6 Pd7 2.581196 1_544
Al6 Pd6 2.581196 1_455
Al6 Pd5 2.581196 1_454
Al6 Pd3 2.581196 1_545
Al6 Pd2 2.581210 1_554
Al6 Pd4 2.581210 1_445
Pd0 Zr4 2.959535 1_554
Pd0 Zr0 2.959543 1_455
Pd0 Zr2 2.959543 1_545
Pd1 Zr5 2.959535 1_556
Pd1 Zr1 2.959543 1_655
Pd1 Zr3 2.959543 1_565
Pd2 Zr4 2.959496 1_555
Pd2 Zr3 2.959560 1_455
Pd2 Zr1 2.959560 1_545
Pd3 Zr5 2.959522 1_455
Pd3 Zr2 2.959524 1_555
Pd3 Zr1 2.959578 1_554
Pd4 Zr5 2.959496 1_555
Pd4 Zr2 2.959560 1_655
Pd4 Zr0 2.959560 1_565
Pd5 Zr4 2.959522 1_655
Pd5 Zr3 2.959524 1_555
Pd5 Zr0 2.959578 1_556
Pd6 Zr5 2.959522 1_545
Pd6 Zr0 2.959524 1_555
Pd6 Zr3 2.959578 1_554
Pd7 Zr4 2.959522 1_565
Pd7 Zr1 2.959524 1_555
Pd7 Zr2 2.959578 1_556
