# generated using pymatgen
data_TbSnAu
_symmetry_space_group_name_H-M   'P 1'
_cell_length_a   4.67631157
_cell_length_b   4.67631168
_cell_length_c   7.48361749
_cell_angle_alpha   90.00000000
_cell_angle_beta   90.00000000
_cell_angle_gamma   119.99999919
_symmetry_Int_Tables_number   1
_chemical_formula_structural   TbSnAu
_chemical_formula_sum   'Tb2 Sn2 Au2'
_cell_volume   141.72586130
_cell_formula_units_Z   2
loop_
 _symmetry_equiv_pos_site_id
 _symmetry_equiv_pos_as_xyz
  1  'x, y, z'
loop_
 _atom_site_type_symbol
 _atom_site_label
 _atom_site_symmetry_multiplicity
 _atom_site_fract_x
 _atom_site_fract_y
 _atom_site_fract_z
 _atom_site_occupancy
  Tb  Tb0  1  0.00000000  0.00000000  0.24304790  1
  Tb  Tb1  1  0.00000000  -0.00000000  0.74304790  1
  Sn  Sn0  1  0.66666700  0.33333300  0.96865584  1
  Sn  Sn1  1  0.33333300  0.66666700  0.46865584  1
  Au  Au0  1  0.33333300  0.66666700  0.07259726  1
  Au  Au1  1  0.66666700  0.33333300  0.57259726  1
loop_
_geom_bond_atom_site_label_1
_geom_bond_atom_site_label_2
_geom_bond_distance
_geom_bond_site_symmetry_2
Sn0 Tb1 3.184314 1_655
Sn0 Tb1 3.184317 1_555
Sn0 Tb1 3.184317 1_665
Sn0 Tb0 3.392038 1_656
Sn0 Tb0 3.392041 1_556
Sn0 Tb0 3.392041 1_666
Sn1 Tb0 3.184314 1_565
Sn1 Tb0 3.184317 1_665
Sn1 Tb0 3.184317 1_555
Sn1 Tb1 3.392038 1_565
Sn1 Tb1 3.392041 1_665
Sn1 Tb1 3.392041 1_555
Au0 Sn0 2.809688 1_454
Au0 Sn0 2.809688 1_564
Au0 Sn0 2.809695 1_554
Au0 Sn1 2.963951 1_555
Au0 Tb0 2.986035 1_565
Au0 Tb0 2.986039 1_665
Au0 Tb0 2.986039 1_555
Au0 Tb1 3.656710 1_564
Au0 Tb1 3.656713 1_664
Au0 Tb1 3.656713 1_554
Au1 Sn1 2.809688 1_655
Au1 Sn1 2.809688 1_545
Au1 Sn1 2.809695 1_555
Au1 Sn0 2.963951 1_555
Au1 Tb1 2.986035 1_655
Au1 Tb1 2.986039 1_555
Au1 Tb1 2.986039 1_665
Au1 Tb0 3.656710 1_655
Au1 Tb0 3.656713 1_555
Au1 Tb0 3.656713 1_665
