# generated using pymatgen
data_Ti10Al2Bi3Sb
_symmetry_space_group_name_H-M   'P 1'
_cell_length_a   7.95922706
_cell_length_b   7.95919651
_cell_length_c   7.94334242
_cell_angle_alpha   96.27142849
_cell_angle_beta   96.27088716
_cell_angle_gamma   141.45268474
_symmetry_Int_Tables_number   1
_chemical_formula_structural   Ti10Al2Bi3Sb
_chemical_formula_sum   'Ti10 Al2 Bi3 Sb1'
_cell_volume   295.90795809
_cell_formula_units_Z   1
loop_
 _symmetry_equiv_pos_site_id
 _symmetry_equiv_pos_as_xyz
  1  'x, y, z'
loop_
 _atom_site_type_symbol
 _atom_site_label
 _atom_site_symmetry_multiplicity
 _atom_site_fract_x
 _atom_site_fract_y
 _atom_site_fract_z
 _atom_site_occupancy
  Ti  Ti0  1  0.57046796  0.71880983  0.28920210  1
  Ti  Ti1  1  0.42703452  0.28730003  0.71440583  1
  Ti  Ti2  1  0.74400905  0.24401165  0.49089122  1
  Ti  Ti3  1  0.24669853  0.74669808  0.49059192  1
  Ti  Ti4  1  0.71627067  0.42399351  0.14044245  1
  Ti  Ti5  1  0.28838831  0.57623265  0.86445491  1
  Ti  Ti6  1  0.92399765  0.21626532  0.14044163  1
  Ti  Ti7  1  0.21881555  0.07047318  0.28920532  1
  Ti  Ti8  1  0.07623328  0.78838519  0.86445265  1
  Ti  Ti9  1  0.78730026  0.92703264  0.71441180  1
  Al  Al0  1  0.75166395  0.75168157  0.00332777  1
  Al  Al1  1  0.25167628  0.25167148  0.00332962  1
  Bi  Bi0  1  0.16522692  0.33561858  0.50081862  1
  Bi  Bi1  1  0.66207117  0.16206155  0.82410198  1
  Bi  Bi2  1  0.83560981  0.66522821  0.50080647  1
  Sb  Sb0  1  0.33453508  0.83453854  0.16911772  1
loop_
_geom_bond_atom_site_label_1
_geom_bond_atom_site_label_2
_geom_bond_distance
_geom_bond_site_symmetry_2
Ti2 Ti3 2.612271 1_545
Ti2 Ti3 2.642091 1_655
Al0 Al1 2.627179 1_555
Al0 Al1 2.627181 1_665
Al0 Ti5 2.735674 1_554
Al0 Ti8 2.736476 1_654
Al0 Ti1 2.741825 1_554
Al0 Ti9 2.741881 1_554
Al0 Ti7 2.749405 1_665
Al0 Ti0 2.749525 1_555
Al0 Ti6 2.756993 1_565
Al0 Ti4 2.757964 1_555
Al1 Ti8 2.735760 1_544
Al1 Ti5 2.736376 1_554
Al1 Ti9 2.741786 1_444
Al1 Ti1 2.741974 1_554
Al1 Ti0 2.749305 1_555
Al1 Ti7 2.749570 1_555
Al1 Ti4 2.757148 1_555
Al1 Ti6 2.757825 1_455
Bi0 Ti3 2.807686 1_555
Bi0 Ti2 2.807794 1_455
Bi0 Ti1 2.827053 1_555
Bi0 Ti6 2.852285 1_455
Bi0 Ti5 2.865012 1_555
Bi0 Ti7 2.872372 1_555
Bi0 Ti0 3.072990 1_445
Bi0 Ti0 3.073761 1_555
Bi0 Ti9 3.084693 1_555
Bi0 Ti9 3.085717 1_445
Bi1 Ti2 2.818731 1_555
Bi1 Ti3 2.820404 1_545
Bi1 Ti9 2.828784 1_545
Bi1 Ti1 2.828932 1_555
Bi1 Ti6 2.838716 1_556
Bi1 Ti4 2.838743 1_556
Bi1 Ti5 3.087463 1_545
Bi1 Ti8 3.087536 1_545
Bi1 Ti5 3.087980 1_655
Bi1 Ti8 3.088019 1_655
Bi2 Ti3 2.807764 1_655
Bi2 Ti2 2.807814 1_555
Bi2 Ti9 2.827036 1_555
Bi2 Ti4 2.852228 1_555
Bi2 Ti8 2.865126 1_655
Bi2 Ti0 2.872288 1_555
Bi2 Ti7 3.072923 1_555
Bi2 Ti7 3.073704 1_665
Bi2 Ti1 3.084713 1_665
Bi2 Ti1 3.085728 1_555
Sb0 Ti3 2.741137 1_555
Sb0 Ti2 2.742672 1_565
Sb0 Ti8 2.784932 1_554
Sb0 Ti5 2.784946 1_554
Sb0 Ti7 2.791148 1_565
Sb0 Ti0 2.791205 1_555
Sb0 Ti4 3.063029 1_565
Sb0 Ti6 3.063106 1_565
Sb0 Ti4 3.063575 1_455
Sb0 Ti6 3.063621 1_455
