# generated using pymatgen
data_Al7Ga7Se20
_symmetry_space_group_name_H-M   'P 1'
_cell_length_a   9.58360961
_cell_length_b   9.59197309
_cell_length_c   9.59966434
_cell_angle_alpha   89.49398478
_cell_angle_beta   89.48940156
_cell_angle_gamma   89.42003721
_symmetry_Int_Tables_number   1
_chemical_formula_structural   Al7Ga7Se20
_chemical_formula_sum   'Al7 Ga7 Se20'
_cell_volume   882.34214417
_cell_formula_units_Z   1
loop_
 _symmetry_equiv_pos_site_id
 _symmetry_equiv_pos_as_xyz
  1  'x, y, z'
loop_
 _atom_site_type_symbol
 _atom_site_label
 _atom_site_symmetry_multiplicity
 _atom_site_fract_x
 _atom_site_fract_y
 _atom_site_fract_z
 _atom_site_occupancy
  Al  Al0  1  0.42004078  0.11082781  0.15250401  1
  Al  Al1  1  0.74136760  0.16577373  0.34465302  1
  Al  Al2  1  0.34477017  0.74069116  0.16584935  1
  Al  Al3  1  0.16644827  0.34506769  0.74077896  1
  Al  Al4  1  0.25917722  0.65534355  0.83356833  1
  Al  Al5  1  0.83348436  0.25947364  0.65443554  1
  Al  Al6  1  0.65561582  0.83364904  0.25854134  1
  Ga  Ga0  1  0.84921185  0.88960168  0.57950634  1
  Ga  Ga1  1  0.57938562  0.84905328  0.89000325  1
  Ga  Ga2  1  0.88931188  0.57988355  0.84893704  1
  Ga  Ga3  1  0.15111774  0.42048506  0.11005011  1
  Ga  Ga4  1  0.11067279  0.15068107  0.42031250  1
  Ga  Ga5  1  0.57322566  0.57418582  0.57324877  1
  Ga  Ga6  1  0.42599615  0.42708530  0.42691679  1
  Se  Se0  1  0.42330492  0.92118005  0.32348286  1
  Se  Se1  1  0.92030647  0.32524918  0.42281562  1
  Se  Se2  1  0.32560058  0.42346072  0.92008601  1
  Se  Se3  1  0.07975602  0.57693402  0.67474956  1
  Se  Se4  1  0.57685383  0.67409131  0.07991971  1
  Se  Se5  1  0.67485189  0.07975075  0.57607698  1
  Se  Se6  1  0.75884601  0.69430646  0.44157172  1
  Se  Se7  1  0.44136898  0.75968096  0.69420244  1
  Se  Se8  1  0.69387967  0.44206334  0.75844383  1
  Se  Se9  1  0.24065337  0.55866716  0.30572759  1
  Se  Se10  1  0.30599580  0.24128001  0.55845425  1
  Se  Se11  1  0.55682988  0.30386714  0.24177065  1
  Se  Se12  1  0.49971068  0.07999870  0.92260131  1
  Se  Se13  1  0.91868163  0.49947852  0.08058462  1
  Se  Se14  1  0.08157848  0.91871681  0.50019128  1
  Se  Se15  1  0.99991796  0.18558783  0.81406833  1
  Se  Se16  1  0.81620110  0.99930850  0.18571061  1
  Se  Se17  1  0.18440745  0.81428603  0.00010376  1
  Se  Se18  1  0.82946057  0.82980060  0.82951994  1
  Se  Se19  1  0.17196980  0.17048854  0.17061659  1
loop_
_geom_bond_atom_site_label_1
_geom_bond_atom_site_label_2
_geom_bond_distance
_geom_bond_site_symmetry_2
Al0 Se12 2.349072 1_554
Al0 Se0 2.439490 1_545
Al0 Se19 2.444723 1_555
Al0 Se11 2.445115 1_555
Al1 Se16 2.322128 1_545
Al1 Se11 2.412112 1_555
Al1 Se1 2.437224 1_555
Al1 Se5 2.444524 1_555
Al2 Se17 2.322419 1_555
Al2 Se9 2.411865 1_555
Al2 Se0 2.438544 1_555
Al2 Se4 2.446110 1_555
Al3 Se15 2.322185 1_455
Al3 Se10 2.409385 1_555
Al3 Se2 2.438754 1_555
Al3 Se3 2.446538 1_555
Al4 Se17 2.322519 1_556
Al4 Se7 2.410454 1_555
Al4 Se3 2.437198 1_555
Al4 Se2 2.447506 1_555
Al5 Se15 2.322976 1_555
Al5 Se8 2.411212 1_555
Al5 Se5 2.438282 1_555
Al5 Se1 2.446856 1_555
Al6 Se16 2.322267 1_555
Al6 Se6 2.411443 1_555
Al6 Se4 2.438266 1_555
Al6 Se0 2.448875 1_555
Ga0 Se14 2.365474 1_655
Ga0 Se5 2.461334 1_565
Ga0 Se18 2.468779 1_555
Ga0 Se6 2.471748 1_555
Ga1 Se12 2.358373 1_565
Ga1 Se18 2.466403 1_555
Ga1 Se4 2.467156 1_556
Ga1 Se7 2.472473 1_555
Ga2 Se13 2.365486 1_556
Ga2 Se3 2.464426 1_655
Ga2 Se18 2.465053 1_555
Ga2 Se8 2.471756 1_555
Ga3 Se13 2.364212 1_455
Ga3 Se2 2.463366 1_554
Ga3 Se19 2.468995 1_555
Ga3 Se9 2.473325 1_555
Ga4 Se14 2.365366 1_545
Ga4 Se1 2.463915 1_455
Ga4 Se19 2.468988 1_555
Ga4 Se10 2.472917 1_555
Ga5 Se6 2.462846 1_555
Ga5 Ga6 2.462864 1_555
Ga5 Se8 2.463921 1_555
Ga5 Se7 2.464881 1_555
Ga6 Se9 2.463128 1_555
Ga6 Se10 2.463589 1_555
Ga6 Se11 2.468884 1_555
