# generated using pymatgen
data_Cs4TiSiSe6
_symmetry_space_group_name_H-M   'P 1'
_cell_length_a   8.12764183
_cell_length_b   8.12764259
_cell_length_c   10.45601457
_cell_angle_alpha   59.58965312
_cell_angle_beta   59.58965070
_cell_angle_gamma   54.98243730
_symmetry_Int_Tables_number   1
_chemical_formula_structural   Cs4TiSiSe6
_chemical_formula_sum   'Cs4 Ti1 Si1 Se6'
_cell_volume   464.53861343
_cell_formula_units_Z   1
loop_
 _symmetry_equiv_pos_site_id
 _symmetry_equiv_pos_as_xyz
  1  'x, y, z'
loop_
 _atom_site_type_symbol
 _atom_site_label
 _atom_site_symmetry_multiplicity
 _atom_site_fract_x
 _atom_site_fract_y
 _atom_site_fract_z
 _atom_site_occupancy
  Cs  Cs0  1  0.58649259  0.58649259  0.13346994  1
  Cs  Cs1  1  0.42037081  0.42037081  0.86142315  1
  Cs  Cs2  1  0.80582608  0.80582608  0.31396018  1
  Cs  Cs3  1  0.20102890  0.20102890  0.68420582  1
  Ti  Ti0  1  0.10738129  0.10738129  0.33300688  1
  Si  Si0  1  0.88643897  0.88643897  0.67389452  1
  Se  Se0  1  0.11287172  0.11287172  0.10571935  1
  Se  Se1  1  0.89415911  0.89415911  0.88020860  1
  Se  Se2  1  0.28958253  0.28958253  0.27644753  1
  Se  Se3  1  0.71545987  0.71545987  0.71923090  1
  Se  Se4  1  0.23309778  0.74728935  0.50921756  1
  Se  Se5  1  0.74728935  0.23309778  0.50921756  1
loop_
_geom_bond_atom_site_label_1
_geom_bond_atom_site_label_2
_geom_bond_distance
_geom_bond_site_symmetry_2
Cs0 Se3 3.609148 1_554
Cs0 Se2 3.641497 1_555
Cs0 Se1 3.645152 1_554
Cs0 Se0 3.765514 1_655
Cs0 Se0 3.765514 1_565
Cs0 Se4 3.854781 1_555
Cs0 Se5 3.854781 1_555
Cs1 Se2 3.612206 1_556
Cs1 Se3 3.618914 1_555
Cs1 Se0 3.641386 1_556
Cs1 Se5 3.750447 1_555
Cs1 Se4 3.750447 1_555
Cs1 Se1 3.764689 1_455
Cs1 Se1 3.764689 1_545
Cs2 Se0 3.652655 1_665
Cs2 Se3 3.654155 1_555
Cs2 Se2 3.793380 1_565
Cs2 Se2 3.793380 1_655
Cs2 Se1 3.949520 1_554
Cs2 Se4 4.242642 1_555
Cs2 Se5 4.242642 1_555
Cs3 Se1 3.664845 1_445
Cs3 Se2 3.687143 1_555
Cs3 Se3 3.786894 1_545
Cs3 Se3 3.786894 1_455
Cs3 Se0 3.827101 1_556
Cs3 Se5 3.968483 1_555
Cs3 Se4 3.968484 1_555
Se0 Ti0 2.332251 1_555
Se1 Si0 2.222627 1_555
Se2 Ti0 2.340775 1_555
Se3 Si0 2.229234 1_555
Se4 Si0 2.363328 1_455
Se4 Ti0 2.453381 1_565
Se5 Si0 2.363328 1_545
Se5 Ti0 2.453381 1_655
