# generated using pymatgen
data_Sr7Re4O19
_symmetry_space_group_name_H-M   'P 1'
_cell_length_a   7.39456780
_cell_length_b   7.39456780
_cell_length_c   10.42626793
_cell_angle_alpha   82.00176255
_cell_angle_beta   82.00176255
_cell_angle_gamma   44.39216172
_symmetry_Int_Tables_number   1
_chemical_formula_structural   Sr7Re4O19
_chemical_formula_sum   'Sr7 Re4 O19'
_cell_volume   394.29629274
_cell_formula_units_Z   1
loop_
 _symmetry_equiv_pos_site_id
 _symmetry_equiv_pos_as_xyz
  1  'x, y, z'
loop_
 _atom_site_type_symbol
 _atom_site_label
 _atom_site_symmetry_multiplicity
 _atom_site_fract_x
 _atom_site_fract_y
 _atom_site_fract_z
 _atom_site_occupancy
  Sr  Sr0  1  0.21018639  0.21018639  0.41135264  1
  Sr  Sr1  1  0.78981361  0.78981361  0.58864736  1
  Sr  Sr2  1  0.41621594  0.41621594  0.16520255  1
  Sr  Sr3  1  0.58378406  0.58378406  0.83479745  1
  Sr  Sr4  1  0.50000000  0.50000000  0.50000000  1
  Sr  Sr5  1  0.85982898  0.85982898  0.95668027  1
  Sr  Sr6  1  0.14017102  0.14017102  0.04331973  1
  Re  Re0  1  0.96559733  0.96559733  0.32353546  1
  Re  Re1  1  0.03440267  0.03440267  0.67646454  1
  Re  Re2  1  0.67023692  0.67023692  0.21905172  1
  Re  Re3  1  0.32976308  0.32976308  0.78094828  1
  O  O0  1  0.00000000  0.00000000  0.50000000  1
  O  O1  1  0.69605760  0.69605760  0.38590542  1
  O  O2  1  0.30394240  0.30394240  0.61409458  1
  O  O3  1  0.04531732  0.04531732  0.85463163  1
  O  O4  1  0.95468268  0.95468268  0.14536837  1
  O  O5  1  0.39780285  0.39780285  0.93008824  1
  O  O6  1  0.60219715  0.60219715  0.06991176  1
  O  O7  1  0.82543717  0.31621209  0.28436904  1
  O  O8  1  0.68378791  0.17456283  0.71563096  1
  O  O9  1  0.17456283  0.68378791  0.71563096  1
  O  O10  1  0.31621209  0.82543717  0.28436904  1
  O  O11  1  0.62818216  0.12140924  0.37416577  1
  O  O12  1  0.87859076  0.37181784  0.62583423  1
  O  O13  1  0.37181784  0.87859076  0.62583423  1
  O  O14  1  0.12140924  0.62818216  0.37416577  1
  O  O15  1  0.99775521  0.51649333  0.15331978  1
  O  O16  1  0.48350667  0.00224479  0.84668022  1
  O  O17  1  0.00224479  0.48350667  0.84668022  1
  O  O18  1  0.51649333  0.99775521  0.15331978  1
loop_
_geom_bond_atom_site_label_1
_geom_bond_atom_site_label_2
_geom_bond_distance
_geom_bond_site_symmetry_2
O0 Re1 1.966604 1_555
O0 Re0 1.966604 1_445
O0 Sr4 2.793501 1_455
O0 Sr4 2.793501 1_545
O0 Sr1 2.887619 1_445
O0 Sr0 2.887619 1_555
O1 Re2 1.826555 1_555
O1 Sr1 2.632902 1_555
O1 Sr4 2.768144 1_555
O1 Sr0 2.815475 1_565
O1 Sr0 2.815475 1_655
O2 Re3 1.826555 1_555
O2 Sr0 2.632902 1_555
O2 Sr4 2.768144 1_555
O2 Sr1 2.815475 1_545
O2 Sr1 2.815475 1_455
O3 Re1 1.885875 1_555
O3 Sr6 2.515022 1_556
O3 Sr5 2.602128 1_445
O3 Sr3 2.844490 1_455
O3 Sr3 2.844490 1_545
O4 Re0 1.885875 1_555
O4 Sr5 2.515022 1_554
O4 Sr6 2.602128 1_665
O4 Sr2 2.844490 1_565
O4 Sr2 2.844490 1_655
O5 Re3 1.929094 1_555
O5 Sr2 2.501705 1_556
O5 Sr3 2.590792 1_555
O5 Sr5 2.847380 1_545
O5 Sr5 2.847380 1_455
O6 Re2 1.929094 1_555
O6 Sr3 2.501705 1_554
O6 Sr2 2.590792 1_555
O6 Sr6 2.847380 1_565
O6 Sr6 2.847380 1_655
O7 Re0 1.986375 1_545
O7 Re2 2.015386 1_555
O7 Sr4 2.713541 1_555
O7 Sr0 2.834340 1_655
O7 Sr6 2.894891 1_655
O7 Sr2 2.973202 1_555
O8 Re1 1.986375 1_655
O8 Re3 2.015386 1_555
O8 Sr4 2.713541 1_555
O8 Sr1 2.834340 1_545
O8 Sr5 2.894891 1_545
O8 Sr3 2.973202 1_555
O9 Re1 1.986375 1_565
O9 Re3 2.015386 1_555
O9 Sr4 2.713541 1_555
O9 Sr1 2.834340 1_455
O9 Sr5 2.894891 1_455
O9 Sr3 2.973202 1_555
O10 Re0 1.986375 1_455
O10 Re2 2.015386 1_555
O10 Sr4 2.713541 1_555
O10 Sr0 2.834340 1_565
O10 Sr6 2.894891 1_565
O10 Sr2 2.973202 1_555
O11 Re0 1.877702 1_545
O11 Sr2 2.588662 1_555
O11 Sr0 2.640536 1_555
O11 Sr4 2.709392 1_555
O11 Sr1 2.733352 1_545
O12 Re1 1.877702 1_655
O12 Sr3 2.588662 1_555
O12 Sr1 2.640536 1_555
O12 Sr4 2.709392 1_555
O12 Sr0 2.733352 1_655
O13 Re1 1.877702 1_565
O13 Sr3 2.588662 1_555
O13 Sr1 2.640536 1_555
O13 Sr4 2.709392 1_555
O13 Sr0 2.733352 1_565
O14 Re0 1.877702 1_455
O14 Sr2 2.588662 1_555
O14 Sr0 2.640536 1_555
O14 Sr4 2.709392 1_555
O14 Sr1 2.733352 1_455
O15 Re2 1.856768 1_555
O15 Sr6 2.555770 1_655
O15 Sr2 2.634787 1_655
O15 Sr5 2.668716 1_554
O15 Sr0 3.038271 1_655
O16 Re3 1.856768 1_555
O16 Sr5 2.555770 1_545
O16 Sr3 2.634787 1_545
O16 Sr6 2.668716 1_556
O16 Sr1 3.038271 1_545
O17 Re3 1.856768 1_555
O17 Sr5 2.555770 1_455
O17 Sr3 2.634787 1_455
O17 Sr6 2.668716 1_556
O17 Sr1 3.038271 1_455
O18 Re2 1.856768 1_555
O18 Sr6 2.555770 1_565
O18 Sr2 2.634787 1_565
O18 Sr5 2.668716 1_554
O18 Sr0 3.038271 1_565
