# generated using pymatgen
data_Ti6TcAs6Ru5
_symmetry_space_group_name_H-M   'P 1'
_cell_length_a   7.45955787
_cell_length_b   7.44552374
_cell_length_c   7.44442267
_cell_angle_alpha   128.14857119
_cell_angle_beta   121.07008156
_cell_angle_gamma   82.21628277
_symmetry_Int_Tables_number   1
_chemical_formula_structural   Ti6TcAs6Ru5
_chemical_formula_sum   'Ti6 Tc1 As6 Ru5'
_cell_volume   267.98996033
_cell_formula_units_Z   1
loop_
 _symmetry_equiv_pos_site_id
 _symmetry_equiv_pos_as_xyz
  1  'x, y, z'
loop_
 _atom_site_type_symbol
 _atom_site_label
 _atom_site_symmetry_multiplicity
 _atom_site_fract_x
 _atom_site_fract_y
 _atom_site_fract_z
 _atom_site_occupancy
  Ti  Ti0  1  0.46928855  0.24812187  0.28113330  1
  Ti  Ti1  1  0.52955366  0.80126936  0.77480933  1
  Ti  Ti2  1  0.74706088  0.66613184  0.40919037  1
  Ti  Ti3  1  0.25548534  0.66811020  0.92084610  1
  Ti  Ti4  1  0.05297112  0.84476534  0.29000072  1
  Ti  Ti5  1  0.94446318  0.24239289  0.79413622  1
  Tc  Tc0  1  0.65983683  0.49519902  0.90528215  1
  As  As0  1  0.83840983  0.58181825  0.74863972  1
  As  As1  1  0.16283823  0.91255438  0.74294222  1
  As  As2  1  0.67091842  0.91731355  0.25179265  1
  As  As3  1  0.32993948  0.57838145  0.24368958  1
  As  As4  1  0.28104165  0.28074166  0.49838427  1
  As  As5  1  0.71566704  0.21618704  0.00148047  1
  Ru  Ru0  1  0.33795158  0.24610894  0.83572306  1
  Ru  Ru1  1  0.91661871  0.24922595  0.41248291  1
  Ru  Ru2  1  0.08105965  0.49646457  0.32837359  1
  Ru  Ru3  1  0.00158273  0.99971744  0.99898223  1
  Ru  Ru4  1  0.50531413  0.99589425  0.50251107  1
loop_
_geom_bond_atom_site_label_1
_geom_bond_atom_site_label_2
_geom_bond_distance
_geom_bond_site_symmetry_2
Tc0 Ti5 2.746311 1_555
Tc0 Ti4 2.786775 1_656
Tc0 Ti2 2.814647 1_556
Tc0 Ti1 2.870778 1_555
Tc0 Ti3 3.145383 1_555
Tc0 Ti0 3.213316 1_555
As0 Ru3 2.481278 1_655
As0 Ru1 2.488943 1_555
As0 Tc0 2.513024 1_555
As0 Ti1 2.658220 1_555
As0 Ti4 2.660812 1_656
As0 Ti3 2.672621 1_655
As0 Ti0 2.673280 1_555
As0 Ti2 2.703836 1_555
As0 Ti5 2.714156 1_555
As1 Ru3 2.475511 1_555
As1 Ru0 2.485846 1_565
As1 Ru2 2.500263 1_555
As1 Ti2 2.667326 1_455
As1 Ti1 2.680489 1_555
As1 Ti5 2.689016 1_465
As1 Ti3 2.690072 1_555
As1 Ti0 2.692066 1_566
As1 Ti4 2.730059 1_555
As2 Ru4 2.487375 1_555
As2 Ru1 2.491791 1_565
As2 Tc0 2.524511 1_554
As2 Ti2 2.631670 1_555
As2 Ti0 2.654716 1_565
As2 Ti1 2.656847 1_554
As2 Ti5 2.661684 1_565
As2 Ti3 2.673121 1_554
As2 Ti4 2.725982 1_655
As3 Ru4 2.487479 1_555
As3 Ru2 2.491171 1_555
As3 Ru0 2.492552 1_554
As3 Ti3 2.652620 1_554
As3 Ti0 2.657074 1_555
As3 Ti1 2.662836 1_555
As3 Ti4 2.664906 1_555
As3 Ti2 2.688082 1_555
As3 Ti5 2.720167 1_454
As4 Ru1 2.459057 1_455
As4 Ru3 2.473316 1_544
As4 Tc0 2.474193 1_555
As4 Ru0 2.494644 1_555
As4 Ru2 2.514073 1_555
As4 Ru4 2.522720 1_545
As4 Ti0 2.532403 1_555
As4 Ti3 2.740374 1_555
As4 Ti4 2.896318 1_545
As4 Ti1 3.293522 1_555
As5 Ru0 2.468207 1_554
As5 Ru4 2.470714 1_544
As5 Ru1 2.470863 1_555
As5 Ru2 2.475202 1_655
As5 Ru3 2.493928 1_644
As5 Tc0 2.509498 1_554
As5 Ti1 2.573337 1_544
As5 Ti2 2.721632 1_555
As5 Ti5 2.918043 1_554
As5 Ti0 3.314788 1_555
Ru0 Ti4 2.786030 1_545
Ru0 Ti5 2.790297 1_455
Ru0 Ru4 2.835479 1_545
Ru0 Ti3 2.841006 1_555
Ru0 Tc0 2.865222 1_555
Ru0 Ti0 2.923055 1_556
Ru0 Ru1 3.107305 1_455
Ru0 Ti2 3.156361 1_556
Ru0 Ti1 3.278638 1_545
Ru1 Ti4 2.769471 1_645
Ru1 Ti5 2.772124 1_555
Ru1 Ru3 2.821111 1_644
Ru1 Ti3 2.849335 1_655
Ru1 Ti0 2.953075 1_555
Ru2 Ti5 2.734737 1_454
Ru2 Ti4 2.748973 1_555
Ru2 Ti2 2.814428 1_455
Ru2 Ru3 2.816517 1_544
Ru2 Ti1 2.941197 1_555
Ru2 Tc0 3.090275 1_454
Ru3 Ti3 2.849167 1_555
Ru3 Ti2 2.872653 1_455
Ru3 Ti4 2.877912 1_556
Ru3 Ti5 2.880371 1_465
Ru3 Ti0 3.064209 1_566
Ru3 Ti1 3.108738 1_455
Ru4 Ti2 2.783783 1_555
Ru4 Tc0 2.821704 1_565
Ru4 Ti3 2.833108 1_554
Ru4 Ti5 2.859769 1_565
Ru4 Ti4 2.911019 1_555
Ru4 Ti1 3.069418 1_555
Ru4 Ti0 3.089443 1_565
