# generated using pymatgen
data_Ac2S3
_symmetry_space_group_name_H-M   'P 1'
_cell_length_a   14.99785071
_cell_length_b   14.99785071
_cell_length_c   14.99785071
_cell_angle_alpha   144.74213868
_cell_angle_beta   144.74213868
_cell_angle_gamma   50.71896322
_symmetry_Int_Tables_number   1
_chemical_formula_structural   Ac2S3
_chemical_formula_sum   'Ac16 S24'
_cell_volume   1118.40785201
_cell_formula_units_Z   8
loop_
 _symmetry_equiv_pos_site_id
 _symmetry_equiv_pos_as_xyz
  1  'x, y, z'
loop_
 _atom_site_type_symbol
 _atom_site_label
 _atom_site_symmetry_multiplicity
 _atom_site_fract_x
 _atom_site_fract_y
 _atom_site_fract_z
 _atom_site_occupancy
  Ac  Ac0  1  0.85444233  0.95202411  0.38304371  1
  Ac  Ac1  1  0.16446854  0.16446854  0.00000000  1
  Ac  Ac2  1  0.87500000  0.50479445  0.12979445  1
  Ac  Ac3  1  0.18101860  0.29797589  0.40241722  1
  Ac  Ac4  1  0.58553146  0.08553146  0.50000000  1
  Ac  Ac5  1  0.89555767  0.77860138  0.59758278  1
  Ac  Ac6  1  0.37500000  0.74520555  0.87020555  1
  Ac  Ac7  1  0.22139862  0.81898140  0.11695629  1
  Ac  Ac8  1  0.91446854  0.41446854  0.50000000  1
  Ac  Ac9  1  0.49520555  0.62500000  0.37020555  1
  Ac  Ac10  1  0.70202411  0.10444233  0.88304371  1
  Ac  Ac11  1  0.25479445  0.12500000  0.62979445  1
  Ac  Ac12  1  0.83553146  0.83553146  0.00000000  1
  Ac  Ac13  1  0.52860138  0.14555767  0.09758278  1
  Ac  Ac14  1  0.04797589  0.43101860  0.90241722  1
  Ac  Ac15  1  0.56898140  0.47139862  0.61695629  1
  S  S0  1  0.50632632  0.11281202  0.25282110  1
  S  S1  1  0.07138560  0.82710835  0.61021543  1
  S  S2  1  0.85998992  0.25350423  0.74717890  1
  S  S3  1  0.89001008  0.13718798  0.89351431  1
  S  S4  1  0.24367368  0.99649577  0.10648569  1
  S  S5  1  0.21689291  0.46117017  0.38978457  1
  S  S6  1  0.85111130  0.43522314  0.25280953  1
  S  S7  1  0.53310709  0.42289165  0.74427726  1
  S  S8  1  0.40169822  0.14888870  0.58411184  1
  S  S9  1  0.18241361  0.59830178  0.74719047  1
  S  S10  1  0.67861440  0.78882983  0.25572274  1
  S  S11  1  0.21117017  0.46689291  0.88978457  1
  S  S12  1  0.57710835  0.32138560  0.11021543  1
  S  S13  1  0.56477686  0.81758639  0.41588816  1
  S  S14  1  0.17289165  0.78310709  0.24427726  1
  S  S15  1  0.86281202  0.75632632  0.75282110  1
  S  S16  1  0.74649577  0.49367368  0.60648569  1
  S  S17  1  0.53882983  0.92861440  0.75572274  1
  S  S18  1  0.00350423  0.10998992  0.24717890  1
  S  S19  1  0.56758639  0.81477686  0.91588816  1
  S  S20  1  0.89888870  0.65169822  0.08411184  1
  S  S21  1  0.88718798  0.14001008  0.39351431  1
  S  S22  1  0.18522314  0.10111130  0.75280953  1
  S  S23  1  0.34830178  0.43241361  0.24719047  1
loop_
_geom_bond_atom_site_label_1
_geom_bond_atom_site_label_2
_geom_bond_distance
_geom_bond_site_symmetry_2
Ac0 S10 2.984502 1_555
Ac0 S20 2.988691 1_555
Ac0 S21 3.019781 1_565
Ac0 S22 3.038142 1_665
Ac0 S2 3.111849 1_565
Ac0 S19 3.204481 1_554
Ac0 S1 3.210319 1_655
Ac0 S0 3.461900 1_565
Ac1 S1 3.005784 1_544
Ac1 S5 3.005784 1_555
Ac1 S2 3.046885 1_454
Ac1 S0 3.046890 1_555
Ac1 S4 3.160884 1_545
Ac1 S3 3.160885 1_454
Ac1 S22 3.240528 1_554
Ac1 S23 3.240528 1_555
Ac2 S7 3.031609 1_554
Ac2 S5 3.031609 1_655
Ac2 S20 3.052497 1_555
Ac2 S6 3.052497 1_555
Ac2 S10 3.232154 1_555
Ac2 S1 3.232154 1_655
Ac2 S2 3.290748 1_554
Ac2 S3 3.290759 1_554
Ac3 S5 2.984500 1_555
Ac3 S9 2.988692 1_555
Ac3 S18 3.019790 1_555
Ac3 S8 3.038150 1_555
Ac3 S4 3.111842 1_545
Ac3 S6 3.204473 1_455
Ac3 S7 3.210327 1_555
Ac3 S3 3.461894 1_454
Ac4 S7 3.005784 1_555
Ac4 S10 3.005784 1_545
Ac4 S4 3.046891 1_545
Ac4 S3 3.046891 1_555
Ac4 S2 3.160876 1_555
Ac4 S0 3.160899 1_555
Ac4 S13 3.240528 1_545
Ac4 S8 3.240528 1_555
Ac5 S1 2.984515 1_655
Ac5 S6 2.988694 1_555
Ac5 S15 3.019751 1_555
Ac5 S13 3.038138 1_555
Ac5 S3 3.111840 1_565
Ac5 S9 3.204476 1_655
Ac5 S10 3.210332 1_555
Ac5 S4 3.461898 1_656
Ac6 S10 3.031609 1_556
Ac6 S1 3.031609 1_555
Ac6 S9 3.052497 1_555
Ac6 S19 3.052497 1_555
Ac6 S5 3.232154 1_555
Ac6 S7 3.232154 1_555
Ac6 S4 3.290759 1_556
Ac6 S0 3.290760 1_566
Ac7 S14 2.984515 1_555
Ac7 S13 2.988694 1_555
Ac7 S4 3.019766 1_555
Ac7 S9 3.038138 1_554
Ac7 S15 3.111842 1_454
Ac7 S8 3.204476 1_565
Ac7 S11 3.210332 1_554
Ac7 S18 3.461903 1_565
Ac8 S12 3.005784 1_555
Ac8 S11 3.005784 1_655
Ac8 S18 3.046885 1_655
Ac8 S15 3.046890 1_555
Ac8 S16 3.160884 1_555
Ac8 S21 3.160885 1_555
Ac8 S6 3.240528 1_555
Ac8 S9 3.240528 1_655
Ac9 S17 3.031609 1_555
Ac9 S12 3.031609 1_555
Ac9 S23 3.052497 1_555
Ac9 S13 3.052497 1_555
Ac9 S11 3.232154 1_554
Ac9 S14 3.232154 1_555
Ac9 S16 3.290759 1_555
Ac9 S15 3.290760 1_555
Ac10 S17 2.984502 1_545
Ac10 S8 2.988691 1_555
Ac10 S3 3.019781 1_555
Ac10 S6 3.038142 1_556
Ac10 S18 3.111849 1_656
Ac10 S13 3.204481 1_545
Ac10 S12 3.210319 1_556
Ac10 S15 3.461900 1_545
Ac11 S14 3.031609 1_545
Ac11 S11 3.031609 1_555
Ac11 S8 3.052497 1_555
Ac11 S22 3.052497 1_555
Ac11 S17 3.232154 1_545
Ac11 S12 3.232154 1_556
Ac11 S18 3.290748 1_555
Ac11 S21 3.290759 1_455
Ac12 S14 3.005784 1_655
Ac12 S17 3.005784 1_554
Ac12 S16 3.046891 1_554
Ac12 S21 3.046891 1_565
Ac12 S18 3.160876 1_665
Ac12 S15 3.160899 1_554
Ac12 S19 3.240528 1_554
Ac12 S20 3.240528 1_555
Ac13 S12 2.984515 1_555
Ac13 S22 2.988694 1_554
Ac13 S0 3.019751 1_555
Ac13 S19 3.038138 1_544
Ac13 S21 3.111840 1_555
Ac13 S23 3.204476 1_555
Ac13 S17 3.210332 1_544
Ac13 S16 3.461898 1_555
Ac14 S11 2.984500 1_555
Ac14 S23 2.988692 1_556
Ac14 S2 3.019790 1_455
Ac14 S20 3.038150 1_456
Ac14 S16 3.111842 1_455
Ac14 S22 3.204473 1_555
Ac14 S14 3.210327 1_556
Ac14 S21 3.461894 1_455
Ac15 S7 2.984515 1_555
Ac15 S19 2.988694 1_555
Ac15 S16 3.019766 1_555
Ac15 S23 3.038138 1_555
Ac15 S0 3.111842 1_555
Ac15 S20 3.204476 1_556
Ac15 S5 3.210332 1_555
Ac15 S2 3.461903 1_555
