# generated using pymatgen
data_TcSe2
_symmetry_space_group_name_H-M   'P 1'
_cell_length_a   6.62722533
_cell_length_b   6.75529310
_cell_length_c   7.04751118
_cell_angle_alpha   92.16357161
_cell_angle_beta   104.28163862
_cell_angle_gamma   118.89279577
_symmetry_Int_Tables_number   1
_chemical_formula_structural   TcSe2
_chemical_formula_sum   'Tc4 Se8'
_cell_volume   263.07931946
_cell_formula_units_Z   4
loop_
 _symmetry_equiv_pos_site_id
 _symmetry_equiv_pos_as_xyz
  1  'x, y, z'
loop_
 _atom_site_type_symbol
 _atom_site_label
 _atom_site_symmetry_multiplicity
 _atom_site_fract_x
 _atom_site_fract_y
 _atom_site_fract_z
 _atom_site_occupancy
  Tc  Tc0  1  0.93611723  0.68493887  0.50796801  1
  Tc  Tc1  1  0.06388277  0.31506113  0.49203199  1
  Tc  Tc2  1  0.51202994  0.70836771  0.50268284  1
  Tc  Tc3  1  0.48797006  0.29163229  0.49731716  1
  Se  Se0  1  0.75084103  0.13425266  0.68669442  1
  Se  Se1  1  0.72701456  0.34406389  0.25445407  1
  Se  Se2  1  0.22422447  0.11022418  0.71044254  1
  Se  Se3  1  0.25327702  0.38184060  0.22505679  1
  Se  Se4  1  0.74672298  0.61815940  0.77494321  1
  Se  Se5  1  0.77577553  0.88977582  0.28955746  1
  Se  Se6  1  0.24915897  0.86574734  0.31330558  1
  Se  Se7  1  0.27298544  0.65593611  0.74554593  1
loop_
_geom_bond_atom_site_label_1
_geom_bond_atom_site_label_2
_geom_bond_distance
_geom_bond_site_symmetry_2
Se0 Tc3 2.587709 1_555
Se0 Tc1 2.599989 1_655
Se0 Tc2 2.601770 1_545
Se1 Tc0 2.408135 1_555
Se1 Tc3 2.531005 1_555
Se1 Tc1 2.535560 1_655
Se2 Tc3 2.485418 1_555
Se2 Tc1 2.487550 1_555
Se2 Tc0 2.642144 1_445
Se3 Tc2 2.449046 1_555
Se3 Tc1 2.449712 1_555
Se3 Tc3 2.450289 1_555
Se4 Tc3 2.449046 1_555
Se4 Tc0 2.449712 1_555
Se4 Tc2 2.450289 1_555
Se5 Tc2 2.485418 1_555
Se5 Tc0 2.487550 1_555
Se5 Tc1 2.642144 1_665
Se6 Tc2 2.587709 1_555
Se6 Tc0 2.599989 1_455
Se6 Tc3 2.601770 1_565
Se7 Tc1 2.408135 1_555
Se7 Tc2 2.531005 1_555
Se7 Tc0 2.535560 1_455
