# generated using pymatgen
data_Sc6Zn17SiPt6
_symmetry_space_group_name_H-M   'P 1'
_cell_length_a   8.76439243
_cell_length_b   8.76439260
_cell_length_c   8.76439300
_cell_angle_alpha   60.00000216
_cell_angle_beta   60.00000154
_cell_angle_gamma   59.99999952
_symmetry_Int_Tables_number   1
_chemical_formula_structural   Sc6Zn17SiPt6
_chemical_formula_sum   'Sc6 Zn17 Si1 Pt6'
_cell_volume   476.04772581
_cell_formula_units_Z   1
loop_
 _symmetry_equiv_pos_site_id
 _symmetry_equiv_pos_as_xyz
  1  'x, y, z'
loop_
 _atom_site_type_symbol
 _atom_site_label
 _atom_site_symmetry_multiplicity
 _atom_site_fract_x
 _atom_site_fract_y
 _atom_site_fract_z
 _atom_site_occupancy
  Sc  Sc0  1  0.72057183  0.27942817  0.27942817  1
  Sc  Sc1  1  0.27942817  0.72057183  0.72057183  1
  Sc  Sc2  1  0.27942817  0.72057183  0.27942817  1
  Sc  Sc3  1  0.72057183  0.27942817  0.72057183  1
  Sc  Sc4  1  0.27942817  0.27942817  0.72057183  1
  Sc  Sc5  1  0.72057183  0.72057183  0.27942817  1
  Zn  Zn0  1  0.12402684  0.12402684  0.12402684  1
  Zn  Zn1  1  0.87597316  0.87597316  0.87597316  1
  Zn  Zn2  1  0.12402684  0.12402684  0.62791948  1
  Zn  Zn3  1  0.12402684  0.62791948  0.12402684  1
  Zn  Zn4  1  0.87597316  0.87597316  0.37208052  1
  Zn  Zn5  1  0.87597316  0.37208052  0.87597316  1
  Zn  Zn6  1  0.62791948  0.12402684  0.12402684  1
  Zn  Zn7  1  0.37208052  0.87597316  0.87597316  1
  Zn  Zn8  1  0.34159261  0.34159261  0.34159261  1
  Zn  Zn9  1  0.65840739  0.65840739  0.65840739  1
  Zn  Zn10  1  0.34159261  0.34159261  0.97522517  1
  Zn  Zn11  1  0.34159261  0.97522517  0.34159261  1
  Zn  Zn12  1  0.65840739  0.65840739  0.02477483  1
  Zn  Zn13  1  0.65840739  0.02477483  0.65840739  1
  Zn  Zn14  1  0.97522517  0.34159261  0.34159261  1
  Zn  Zn15  1  0.02477483  0.65840739  0.65840739  1
  Zn  Zn16  1  0.00000000  0.00000000  0.00000000  1
  Si  Si0  1  0.50000000  0.50000000  0.50000000  1
  Pt  Pt0  1  0.50000000  0.00000000  0.00000000  1
  Pt  Pt1  1  0.00000000  0.50000000  0.50000000  1
  Pt  Pt2  1  0.00000000  0.50000000  0.00000000  1
  Pt  Pt3  1  0.50000000  0.00000000  0.50000000  1
  Pt  Pt4  1  0.00000000  0.00000000  0.50000000  1
  Pt  Pt5  1  0.50000000  0.50000000  0.00000000  1
loop_
_geom_bond_atom_site_label_1
_geom_bond_atom_site_label_2
_geom_bond_distance
_geom_bond_site_symmetry_2
Sc0 Si0 2.733927 1_555
Sc0 Zn8 2.881612 1_555
Sc0 Zn12 2.881620 1_555
Sc0 Zn13 2.881620 1_555
Sc0 Zn14 2.881638 1_555
Sc0 Zn0 2.904570 1_655
Sc0 Zn4 2.904570 1_545
Sc0 Zn6 2.904570 1_555
Sc0 Zn5 2.904570 1_554
Sc1 Si0 2.733927 1_555
Sc1 Zn9 2.881612 1_555
Sc1 Zn10 2.881620 1_555
Sc1 Zn11 2.881620 1_555
Sc1 Zn15 2.881638 1_555
Sc1 Zn1 2.904570 1_455
Sc1 Zn2 2.904570 1_565
Sc1 Zn7 2.904570 1_555
Sc1 Zn3 2.904570 1_556
Sc2 Si0 2.733927 1_555
Sc2 Zn8 2.881612 1_555
Sc2 Zn12 2.881620 1_555
Sc2 Zn15 2.881620 1_555
Sc2 Zn11 2.881638 1_555
Sc2 Zn4 2.904570 1_455
Sc2 Zn3 2.904570 1_555
Sc2 Zn0 2.904570 1_565
Sc2 Zn7 2.904570 1_554
Sc3 Si0 2.733927 1_555
Sc3 Zn9 2.881612 1_555
Sc3 Zn10 2.881620 1_555
Sc3 Zn14 2.881620 1_555
Sc3 Zn13 2.881638 1_555
Sc3 Zn2 2.904570 1_655
Sc3 Zn5 2.904570 1_555
Sc3 Zn1 2.904570 1_545
Sc3 Zn6 2.904570 1_556
Sc4 Si0 2.733927 1_555
Sc4 Zn8 2.881613 1_555
Sc4 Zn13 2.881620 1_555
Sc4 Zn15 2.881620 1_555
Sc4 Zn10 2.881638 1_555
Sc4 Zn5 2.904570 1_455
Sc4 Zn2 2.904570 1_555
Sc4 Zn7 2.904570 1_545
Sc4 Zn0 2.904570 1_556
Sc5 Si0 2.733927 1_555
Sc5 Zn9 2.881613 1_555
Sc5 Zn11 2.881620 1_555
Sc5 Zn14 2.881620 1_555
Sc5 Zn12 2.881638 1_555
Sc5 Zn3 2.904570 1_655
Sc5 Zn4 2.904570 1_555
Sc5 Zn6 2.904570 1_565
Sc5 Zn1 2.904570 1_554
Zn0 Zn16 2.662644 1_555
Zn0 Zn10 2.763193 1_554
Zn0 Zn11 2.763193 1_545
Zn0 Zn14 2.763193 1_455
Zn1 Zn16 2.662644 1_666
Zn1 Zn12 2.763193 1_556
Zn1 Zn13 2.763193 1_565
Zn1 Zn15 2.763193 1_655
Zn2 Zn8 2.763187 1_555
Zn3 Zn8 2.763187 1_555
Zn4 Zn9 2.763187 1_555
Zn5 Zn9 2.763187 1_555
Zn6 Zn8 2.763187 1_555
Zn7 Zn9 2.763187 1_555
Zn10 Zn6 2.763172 1_556
Zn10 Zn3 2.763172 1_556
Zn11 Zn6 2.763172 1_565
Zn11 Zn2 2.763172 1_565
Zn12 Zn7 2.763172 1_554
Zn12 Zn5 2.763172 1_554
Zn13 Zn7 2.763172 1_545
Zn13 Zn4 2.763172 1_545
Zn14 Zn3 2.763172 1_655
Zn14 Zn2 2.763172 1_655
Zn15 Zn5 2.763172 1_455
Zn15 Zn4 2.763172 1_455
Zn16 Zn7 2.662644 1_544
Zn16 Zn6 2.662644 1_455
Zn16 Zn5 2.662644 1_454
Zn16 Zn3 2.662644 1_545
Zn16 Zn4 2.662644 1_445
Zn16 Zn2 2.662644 1_554
Pt0 Zn10 2.536274 1_554
Pt0 Zn12 2.536274 1_545
Pt0 Zn11 2.536274 1_545
Pt0 Zn13 2.536274 1_554
Pt0 Zn1 2.690572 1_544
Pt0 Zn0 2.690572 1_555
Pt0 Zn6 2.690572 1_555
Pt0 Zn7 2.690572 1_544
Pt0 Sc5 3.120075 1_545
Pt0 Sc4 3.120075 1_554
Pt0 Sc3 3.120075 1_554
Pt0 Sc2 3.120075 1_545
Pt1 Zn15 2.536251 1_555
Pt1 Zn14 2.536251 1_455
Pt1 Zn8 2.536268 1_555
Pt1 Zn9 2.536268 1_455
Pt1 Zn4 2.690572 1_455
Pt1 Zn2 2.690572 1_555
Pt1 Zn5 2.690573 1_455
Pt1 Zn3 2.690573 1_555
Pt1 Sc4 3.120075 1_555
Pt1 Sc5 3.120075 1_455
Pt1 Sc2 3.120075 1_555
Pt1 Sc3 3.120075 1_455
Pt2 Zn10 2.536274 1_554
Pt2 Zn12 2.536274 1_455
Pt2 Zn14 2.536274 1_455
Pt2 Zn15 2.536274 1_554
Pt2 Zn3 2.690572 1_555
Pt2 Zn5 2.690572 1_454
Pt2 Zn1 2.690572 1_454
Pt2 Zn0 2.690572 1_555
Pt2 Sc5 3.120075 1_455
Pt2 Sc4 3.120075 1_554
Pt2 Sc1 3.120075 1_554
Pt2 Sc0 3.120075 1_455
Pt3 Zn13 2.536251 1_555
Pt3 Zn11 2.536251 1_545
Pt3 Zn8 2.536268 1_555
Pt3 Zn9 2.536268 1_545
Pt3 Zn4 2.690572 1_545
Pt3 Zn2 2.690572 1_555
Pt3 Zn7 2.690573 1_545
Pt3 Zn6 2.690573 1_555
Pt3 Sc4 3.120075 1_555
Pt3 Sc5 3.120075 1_545
Pt3 Sc0 3.120075 1_555
Pt3 Sc1 3.120075 1_545
Pt4 Zn11 2.536274 1_545
Pt4 Zn13 2.536274 1_455
Pt4 Zn14 2.536274 1_455
Pt4 Zn15 2.536274 1_545
Pt4 Zn2 2.690572 1_555
Pt4 Zn4 2.690572 1_445
Pt4 Zn1 2.690573 1_445
Pt4 Zn0 2.690573 1_555
Pt4 Sc3 3.120075 1_455
Pt4 Sc1 3.120075 1_545
Pt4 Sc0 3.120075 1_455
Pt4 Sc2 3.120075 1_545
Pt5 Zn12 2.536251 1_555
Pt5 Zn10 2.536251 1_554
Pt5 Zn8 2.536268 1_555
Pt5 Zn9 2.536268 1_554
Pt5 Zn5 2.690572 1_554
Pt5 Zn3 2.690572 1_555
Pt5 Zn7 2.690572 1_554
Pt5 Zn6 2.690572 1_555
Pt5 Sc0 3.120075 1_555
Pt5 Sc2 3.120075 1_555
Pt5 Sc3 3.120075 1_554
Pt5 Sc1 3.120075 1_554
