# generated using pymatgen
data_LuSc6CoBr12
_symmetry_space_group_name_H-M   'P 1'
_cell_length_a   8.67369199
_cell_length_b   8.67369277
_cell_length_c   8.67369307
_cell_angle_alpha   106.79825577
_cell_angle_beta   106.79826019
_cell_angle_gamma   106.79826584
_symmetry_Int_Tables_number   1
_chemical_formula_structural   LuSc6CoBr12
_chemical_formula_sum   'Lu1 Sc6 Co1 Br12'
_cell_volume   546.41087071
_cell_formula_units_Z   1
loop_
 _symmetry_equiv_pos_site_id
 _symmetry_equiv_pos_as_xyz
  1  'x, y, z'
loop_
 _atom_site_type_symbol
 _atom_site_label
 _atom_site_symmetry_multiplicity
 _atom_site_fract_x
 _atom_site_fract_y
 _atom_site_fract_z
 _atom_site_occupancy
  Lu  Lu0  1  0.50000000  0.50000000  0.50000000  1
  Sc  Sc0  1  0.29684081  0.09473558  0.02092485  1
  Sc  Sc1  1  0.09473558  0.02092485  0.29684081  1
  Sc  Sc2  1  0.02092485  0.29684081  0.09473558  1
  Sc  Sc3  1  0.70315919  0.90526442  0.97907515  1
  Sc  Sc4  1  0.90526442  0.97907515  0.70315919  1
  Sc  Sc5  1  0.97907515  0.70315919  0.90526442  1
  Co  Co0  1  0.00000000  0.00000000  0.00000000  1
  Br  Br0  1  0.22197592  0.07085154  0.67805102  1
  Br  Br1  1  0.07085154  0.67805102  0.22197592  1
  Br  Br2  1  0.67805102  0.22197592  0.07085154  1
  Br  Br3  1  0.77802408  0.92914846  0.32194898  1
  Br  Br4  1  0.92914846  0.32194898  0.77802408  1
  Br  Br5  1  0.32194898  0.77802408  0.92914846  1
  Br  Br6  1  0.38473962  0.46069500  0.15772270  1
  Br  Br7  1  0.46069500  0.15772270  0.38473962  1
  Br  Br8  1  0.15772270  0.38473962  0.46069500  1
  Br  Br9  1  0.61526038  0.53930500  0.84227730  1
  Br  Br10  1  0.53930500  0.84227730  0.61526038  1
  Br  Br11  1  0.84227730  0.61526038  0.53930500  1
loop_
_geom_bond_atom_site_label_1
_geom_bond_atom_site_label_2
_geom_bond_distance
_geom_bond_site_symmetry_2
Co0 Sc0 2.399602 1_555
Co0 Sc3 2.399602 1_444
Co0 Sc2 2.399603 1_555
Co0 Sc5 2.399603 1_444
Co0 Sc1 2.399603 1_555
Co0 Sc4 2.399603 1_444
Br0 Sc4 2.722034 1_445
Br0 Sc0 2.785509 1_556
Br0 Sc1 3.020823 1_555
Br1 Sc5 2.722035 1_454
Br1 Sc1 2.785509 1_565
Br1 Sc2 3.020823 1_555
Br2 Sc3 2.722035 1_544
Br2 Sc2 2.785508 1_655
Br2 Sc0 3.020822 1_555
Br3 Sc1 2.722034 1_665
Br3 Sc3 2.785509 1_554
Br3 Sc4 3.020823 1_555
Br4 Sc2 2.722035 1_656
Br4 Sc4 2.785509 1_545
Br4 Sc5 3.020823 1_555
Br5 Sc0 2.722035 1_566
Br5 Sc5 2.785508 1_455
Br5 Sc3 3.020822 1_555
Br6 Lu0 2.726164 1_555
Br6 Sc0 2.822440 1_555
Br6 Sc2 2.870318 1_555
Br7 Lu0 2.726164 1_555
Br7 Sc1 2.822440 1_555
Br7 Sc0 2.870319 1_555
Br8 Lu0 2.726164 1_555
Br8 Sc2 2.822440 1_555
Br8 Sc1 2.870319 1_555
Br9 Lu0 2.726164 1_555
Br9 Sc3 2.822440 1_555
Br9 Sc5 2.870318 1_555
Br10 Lu0 2.726164 1_555
Br10 Sc4 2.822440 1_555
Br10 Sc3 2.870319 1_555
Br11 Lu0 2.726164 1_555
Br11 Sc5 2.822440 1_555
Br11 Sc4 2.870319 1_555
