# generated using pymatgen
data_Zr6Nb5Ga11Os7
_symmetry_space_group_name_H-M   'P 1'
_cell_length_a   8.86899295
_cell_length_b   8.86899345
_cell_length_c   8.82900216
_cell_angle_alpha   59.85004907
_cell_angle_beta   59.85004796
_cell_angle_gamma   59.99999819
_symmetry_Int_Tables_number   1
_chemical_formula_structural   Zr6Nb5Ga11Os7
_chemical_formula_sum   'Zr6 Nb5 Ga11 Os7'
_cell_volume   489.95613549
_cell_formula_units_Z   1
loop_
 _symmetry_equiv_pos_site_id
 _symmetry_equiv_pos_as_xyz
  1  'x, y, z'
loop_
 _atom_site_type_symbol
 _atom_site_label
 _atom_site_symmetry_multiplicity
 _atom_site_fract_x
 _atom_site_fract_y
 _atom_site_fract_z
 _atom_site_occupancy
  Zr  Zr0  1  0.70280272  0.70280272  0.30106948  1
  Zr  Zr1  1  0.29332407  0.70280272  0.30106948  1
  Zr  Zr2  1  0.70280272  0.29332407  0.30106948  1
  Zr  Zr3  1  0.30587776  0.30587776  0.70342166  1
  Zr  Zr4  1  0.68482283  0.30587776  0.70342166  1
  Zr  Zr5  1  0.30587776  0.68482283  0.70342166  1
  Nb  Nb0  1  0.87807751  0.87807751  0.36576847  1
  Nb  Nb1  1  0.87366611  0.37175520  0.88091358  1
  Nb  Nb2  1  0.37175520  0.87366611  0.88091358  1
  Nb  Nb3  1  0.87366611  0.87366611  0.88091358  1
  Nb  Nb4  1  0.12737370  0.12737370  0.61787890  1
  Ga  Ga0  1  0.11947234  0.64247138  0.11858294  1
  Ga  Ga1  1  0.64247138  0.11947234  0.11858294  1
  Ga  Ga2  1  0.11947234  0.11947234  0.11858294  1
  Ga  Ga3  1  0.65337584  0.65337584  0.03987349  1
  Ga  Ga4  1  0.65690470  0.03118833  0.65500127  1
  Ga  Ga5  1  0.03118833  0.65690470  0.65500127  1
  Ga  Ga6  1  0.65690470  0.65690470  0.65500127  1
  Ga  Ga7  1  0.33688010  0.33688010  0.98935969  1
  Ga  Ga8  1  0.34219851  0.97808521  0.33751676  1
  Ga  Ga9  1  0.97808521  0.34219851  0.33751676  1
  Ga  Ga10  1  0.34219851  0.34219851  0.33751676  1
  Os  Os0  1  0.00591992  0.00591992  0.98223923  1
  Os  Os1  1  0.99866243  0.99866243  0.50504059  1
  Os  Os2  1  0.49763455  0.99866243  0.50504059  1
  Os  Os3  1  0.99866243  0.49763455  0.50504059  1
  Os  Os4  1  0.50157973  0.50157973  0.00007979  1
  Os  Os5  1  0.99676074  0.50157973  0.00007979  1
  Os  Os6  1  0.50157973  0.99676074  0.00007979  1
loop_
_geom_bond_atom_site_label_1
_geom_bond_atom_site_label_2
_geom_bond_distance
_geom_bond_site_symmetry_2
Nb0 Os1 2.754142 1_555
Nb0 Os2 2.754149 1_555
Nb0 Os3 2.754149 1_555
Nb0 Os0 2.758522 1_664
Nb0 Zr1 3.059366 1_655
Nb0 Zr2 3.059367 1_565
Nb0 Zr0 3.059382 1_555
Nb1 Os0 2.652557 1_655
Nb1 Os5 2.693016 1_556
Nb1 Os4 2.693023 1_556
Nb1 Os3 2.703458 1_555
Nb1 Zr2 3.058797 1_556
Nb1 Zr3 3.183861 1_655
Nb1 Zr4 3.183869 1_555
Nb2 Os0 2.652557 1_565
Nb2 Os6 2.693016 1_556
Nb2 Os4 2.693023 1_556
Nb2 Os2 2.703458 1_555
Nb2 Zr1 3.058797 1_556
Nb2 Zr3 3.183861 1_565
Nb2 Zr5 3.183869 1_555
Nb3 Os0 2.652543 1_665
Nb3 Os6 2.693023 1_556
Nb3 Os5 2.693023 1_556
Nb3 Os1 2.703458 1_555
Nb3 Zr0 3.058799 1_556
Nb3 Zr5 3.183862 1_655
Nb3 Zr4 3.183863 1_565
Nb4 Os0 2.620650 1_555
Nb4 Os2 2.680796 1_545
Nb4 Os3 2.680796 1_455
Nb4 Os1 2.680796 1_445
Nb4 Zr4 3.239093 1_455
Nb4 Zr5 3.239093 1_545
Nb4 Zr3 3.239093 1_555
Ga0 Os0 2.632001 1_564
Ga0 Os5 2.767241 1_455
Ga0 Os4 2.767248 1_555
Ga0 Os3 2.782306 1_455
Ga0 Ga7 2.834722 1_554
Ga0 Ga10 2.852112 1_555
Ga0 Ga9 2.852112 1_455
Ga0 Nb0 3.021030 1_455
Ga0 Nb3 3.027092 1_454
Ga0 Nb2 3.027105 1_554
Ga0 Zr0 3.073461 1_455
Ga0 Zr1 3.073461 1_555
Ga0 Zr5 3.075792 1_554
Ga1 Os0 2.632001 1_654
Ga1 Os6 2.767241 1_545
Ga1 Os4 2.767248 1_555
Ga1 Os2 2.782306 1_545
Ga1 Ga7 2.834722 1_554
Ga1 Ga8 2.852112 1_545
Ga1 Ga10 2.852112 1_555
Ga1 Nb0 3.021030 1_545
Ga1 Nb3 3.027092 1_544
Ga1 Nb1 3.027105 1_554
Ga1 Zr0 3.073461 1_545
Ga1 Zr2 3.073461 1_555
Ga1 Zr4 3.075792 1_554
Ga2 Os0 2.632002 1_554
Ga2 Os6 2.767248 1_545
Ga2 Os5 2.767248 1_455
Ga2 Os1 2.782306 1_445
Ga2 Ga7 2.834730 1_554
Ga2 Ga8 2.852112 1_545
Ga2 Ga9 2.852112 1_455
Ga2 Nb0 3.021018 1_445
Ga2 Nb1 3.027093 1_454
Ga2 Nb2 3.027093 1_544
Ga2 Zr2 3.073461 1_455
Ga2 Zr1 3.073461 1_545
Ga2 Zr3 3.075794 1_554
Ga3 Os5 2.551682 1_555
Ga3 Os6 2.551682 1_555
Ga3 Os4 2.551690 1_555
Ga3 Nb2 2.812879 1_554
Ga3 Nb3 2.812879 1_554
Ga3 Nb1 2.812879 1_554
Ga3 Zr0 2.815242 1_555
Ga3 Zr1 2.815253 1_555
Ga3 Zr2 2.815253 1_555
Ga4 Os2 2.549786 1_545
Ga4 Os1 2.549794 1_545
Ga4 Os6 2.558005 1_546
Ga4 Zr2 2.776022 1_555
Ga4 Zr3 2.816907 1_555
Ga4 Zr4 2.816912 1_555
Ga4 Nb2 2.827151 1_545
Ga4 Nb3 2.827165 1_545
Ga4 Nb0 2.828549 1_545
Ga5 Os3 2.549786 1_455
Ga5 Os1 2.549794 1_455
Ga5 Os5 2.558005 1_456
Ga5 Zr1 2.776022 1_555
Ga5 Zr3 2.816907 1_555
Ga5 Zr5 2.816912 1_555
Ga5 Nb1 2.827151 1_455
Ga5 Nb3 2.827165 1_455
Ga5 Nb0 2.828549 1_455
Ga6 Os3 2.549792 1_555
Ga6 Os2 2.549792 1_555
Ga6 Os4 2.558003 1_556
Ga6 Zr0 2.776022 1_555
Ga6 Zr5 2.816903 1_555
Ga6 Zr4 2.816903 1_555
Ga6 Nb2 2.827161 1_555
Ga6 Nb1 2.827162 1_555
Ga6 Nb0 2.828559 1_555
Ga7 Os5 2.586083 1_456
Ga7 Os6 2.586083 1_546
Ga7 Os4 2.586083 1_556
Ga7 Zr4 2.827496 1_555
Ga7 Zr5 2.827496 1_555
Ga7 Zr3 2.827496 1_555
Ga8 Os6 2.531689 1_555
Ga8 Os1 2.586948 1_455
Ga8 Os2 2.586956 1_555
Ga8 Nb4 2.746349 1_565
Ga8 Zr0 2.870521 1_555
Ga8 Zr1 2.870521 1_555
Ga8 Zr5 2.942303 1_555
Ga9 Os5 2.531689 1_555
Ga9 Os1 2.586948 1_545
Ga9 Os3 2.586956 1_555
Ga9 Nb4 2.746349 1_655
Ga9 Zr0 2.870521 1_555
Ga9 Zr2 2.870521 1_555
Ga9 Zr4 2.942303 1_555
Ga10 Os4 2.531691 1_555
Ga10 Os3 2.586950 1_455
Ga10 Os2 2.586950 1_545
Ga10 Nb4 2.746343 1_555
Ga10 Zr2 2.870521 1_555
Ga10 Zr1 2.870521 1_555
Ga10 Zr3 2.942307 1_555
Os1 Zr2 3.181165 1_565
Os1 Zr1 3.181165 1_655
Os1 Zr5 3.248365 1_655
Os1 Zr4 3.248365 1_565
Os2 Zr2 3.181159 1_565
Os2 Zr0 3.181167 1_555
Os2 Zr5 3.248365 1_555
Os2 Zr3 3.248365 1_565
Os3 Zr1 3.181159 1_655
Os3 Zr0 3.181167 1_555
Os3 Zr4 3.248365 1_555
Os3 Zr3 3.248365 1_655
Os4 Zr5 3.159733 1_554
Os4 Zr4 3.159733 1_554
Os4 Zr2 3.193061 1_555
Os4 Zr1 3.193061 1_555
Os5 Zr5 3.159733 1_654
Os5 Zr3 3.159733 1_654
Os5 Zr0 3.193062 1_555
Os5 Zr2 3.193067 1_555
Os6 Zr4 3.159733 1_564
Os6 Zr3 3.159733 1_564
Os6 Zr0 3.193062 1_555
Os6 Zr1 3.193067 1_555
