# generated using pymatgen
data_Sc2Ga9Tc2Ru3
_symmetry_space_group_name_H-M   'P 1'
_cell_length_a   7.78218935
_cell_length_b   7.78218834
_cell_length_c   7.78218871
_cell_angle_alpha   133.68542334
_cell_angle_beta   133.68541193
_cell_angle_gamma   67.57976985
_symmetry_Int_Tables_number   1
_chemical_formula_structural   Sc2Ga9Tc2Ru3
_chemical_formula_sum   'Sc2 Ga9 Tc2 Ru3'
_cell_volume   242.30461960
_cell_formula_units_Z   1
loop_
 _symmetry_equiv_pos_site_id
 _symmetry_equiv_pos_as_xyz
  1  'x, y, z'
loop_
 _atom_site_type_symbol
 _atom_site_label
 _atom_site_symmetry_multiplicity
 _atom_site_fract_x
 _atom_site_fract_y
 _atom_site_fract_z
 _atom_site_occupancy
  Sc  Sc0  1  0.00000000  0.50000000  0.50000000  1
  Sc  Sc1  1  0.50000000  0.00000000  0.50000000  1
  Ga  Ga0  1  0.43235728  0.85646835  1.00000000  1
  Ga  Ga1  1  0.14353165  0.14353165  0.57588893  1
  Ga  Ga2  1  0.85646835  0.43235728  0.00000000  1
  Ga  Ga3  1  0.85646835  0.85646835  0.42411107  1
  Ga  Ga4  1  0.56764272  0.14353165  0.00000000  1
  Ga  Ga5  1  0.14353165  0.56764272  1.00000000  1
  Ga  Ga6  1  0.56764272  0.56764272  0.42411107  1
  Ga  Ga7  1  0.00000000  0.00000000  0.00000000  1
  Ga  Ga8  1  0.43235728  0.43235728  0.57588893  1
  Tc  Tc0  1  0.18672987  0.18672987  0.00000000  1
  Tc  Tc1  1  0.81327013  0.81327013  1.00000000  1
  Ru  Ru0  1  0.25000000  0.75000000  0.50000000  1
  Ru  Ru1  1  0.75000000  0.25000000  0.50000000  1
  Ru  Ru2  1  0.50000000  0.50000000  0.00000000  1
loop_
_geom_bond_atom_site_label_1
_geom_bond_atom_site_label_2
_geom_bond_distance
_geom_bond_site_symmetry_2
Ga0 Tc0 2.551878 1_566
Ga0 Ru1 2.579982 1_566
Ga0 Ru0 2.579982 1_555
Ga0 Ru2 2.618939 1_556
Ga0 Sc1 2.877568 1_566
Ga0 Sc0 2.877568 1_555
Ga1 Tc1 2.551878 1_444
Ga1 Ru0 2.579982 1_545
Ga1 Ru1 2.579982 1_455
Ga1 Ru2 2.618939 1_556
Ga1 Sc0 2.877568 1_555
Ga1 Sc1 2.877568 1_555
Ga2 Tc0 2.551878 1_655
Ga2 Ru1 2.579982 1_554
Ga2 Ru0 2.579982 1_655
Ga2 Ru2 2.618939 1_555
Ga2 Sc1 2.877568 1_554
Ga2 Sc0 2.877568 1_655
Ga3 Tc0 2.551878 1_666
Ga3 Ru1 2.579982 1_565
Ga3 Ru0 2.579982 1_655
Ga3 Ru2 2.618939 1_555
Ga3 Sc0 2.877568 1_655
Ga3 Sc1 2.877568 1_565
Ga4 Tc1 2.551878 1_544
Ga4 Ru0 2.579982 1_544
Ga4 Ru1 2.579982 1_555
Ga4 Ru2 2.618939 1_555
Ga4 Sc1 2.877568 1_554
Ga4 Sc0 2.877568 1_655
Ga5 Tc1 2.551878 1_455
Ga5 Ru0 2.579982 1_556
Ga5 Ru1 2.579982 1_455
Ga5 Ru2 2.618939 1_556
Ga5 Sc1 2.877568 1_566
Ga5 Sc0 2.877568 1_555
Ga6 Tc1 2.551878 1_555
Ga6 Ru1 2.579982 1_555
Ga6 Ru0 2.579982 1_555
Ga6 Ru2 2.618939 1_555
Ga6 Sc1 2.877568 1_565
Ga6 Sc0 2.877569 1_655
Ga7 Tc0 2.415404 1_555
Ga7 Tc1 2.415404 1_444
Ga7 Sc0 3.060397 1_555
Ga7 Sc0 3.060397 1_544
Ga7 Sc1 3.060398 1_555
Ga7 Sc1 3.060398 1_454
Ga8 Tc0 2.551878 1_555
Ga8 Ru0 2.579982 1_555
Ga8 Ru1 2.579982 1_555
Ga8 Ru2 2.618939 1_556
Ga8 Sc1 2.877568 1_555
Ga8 Sc0 2.877569 1_555
Ru0 Sc1 3.233821 1_565
Ru0 Sc0 3.233821 1_555
Ru1 Sc1 3.233821 1_555
Ru1 Sc0 3.233821 1_655
Ru2 Sc1 3.060397 1_565
Ru2 Sc1 3.060397 1_554
Ru2 Sc0 3.060398 1_554
Ru2 Sc0 3.060398 1_655
