# generated using pymatgen
data_Al4Tc3GeP
_symmetry_space_group_name_H-M   'P 1'
_cell_length_a   4.65365825
_cell_length_b   4.61565982
_cell_length_c   6.62956585
_cell_angle_alpha   88.88270332
_cell_angle_beta   90.36435272
_cell_angle_gamma   119.68006192
_symmetry_Int_Tables_number   1
_chemical_formula_structural   Al4Tc3GeP
_chemical_formula_sum   'Al4 Tc3 Ge1 P1'
_cell_volume   123.69422128
_cell_formula_units_Z   1
loop_
 _symmetry_equiv_pos_site_id
 _symmetry_equiv_pos_as_xyz
  1  'x, y, z'
loop_
 _atom_site_type_symbol
 _atom_site_label
 _atom_site_symmetry_multiplicity
 _atom_site_fract_x
 _atom_site_fract_y
 _atom_site_fract_z
 _atom_site_occupancy
  Al  Al0  1  0.16941189  0.82919653  0.50417233  1
  Al  Al1  1  0.32564303  0.16407938  0.16697546  1
  Al  Al2  1  0.83004314  0.67057004  0.83489737  1
  Al  Al3  1  0.82859564  0.16234986  0.49783123  1
  Tc  Tc0  1  0.99197108  0.49421899  0.16334327  1
  Tc  Tc1  1  0.50725941  0.00083285  0.84575053  1
  Tc  Tc2  1  0.50619864  0.50516870  0.49107117  1
  Ge  Ge0  1  0.16746613  0.33629429  0.82493002  1
  P  P0  1  0.67379604  0.83690336  0.17102761  1
loop_
_geom_bond_atom_site_label_1
_geom_bond_atom_site_label_2
_geom_bond_distance
_geom_bond_site_symmetry_2
Al0 Al2 2.583395 1_455
Al0 Al1 2.586141 1_565
Al0 Tc1 2.649290 1_565
Al0 Tc0 2.650686 1_455
Al0 Tc2 2.651208 1_555
Al0 Al3 2.665389 1_565
Al0 Al3 2.675957 1_455
Al0 Tc2 2.683362 1_455
Al0 Al3 2.700701 1_465
Al0 Tc2 2.710572 1_565
Al1 Tc1 2.556038 1_554
Al1 Tc2 2.569060 1_555
Al1 Ge0 2.608386 1_554
Al1 P0 2.635539 1_445
Al1 Tc0 2.659905 1_455
Al1 Tc0 2.686858 1_445
Al1 Tc0 2.694085 1_555
Al1 P0 2.699987 1_555
Al1 P0 2.706858 1_545
Al2 Tc0 2.547382 1_556
Al2 P0 2.593075 1_556
Al2 Tc1 2.618888 1_565
Al2 Tc2 2.633362 1_555
Al2 Ge0 2.669650 1_665
Al2 Ge0 2.679998 1_555
Al2 Tc1 2.685472 1_555
Al2 Ge0 2.693544 1_655
Al2 Tc1 2.739502 1_665
Al3 P0 2.550460 1_545
Al3 Tc0 2.564651 1_555
Al3 Ge0 2.569929 1_655
Al3 Tc2 2.636589 1_545
Al3 Tc1 2.642904 1_555
Al3 Tc2 2.665365 1_555
Al3 Tc2 2.739898 1_655
Ge0 Tc2 2.598382 1_555
Ge0 Tc0 2.628381 1_456
Ge0 Tc1 2.671744 1_565
Ge0 Tc1 2.672446 1_455
Ge0 Tc1 2.707501 1_555
P0 Tc2 2.483207 1_555
P0 Tc1 2.513808 1_564
P0 Tc0 2.635523 1_565
P0 Tc0 2.649575 1_555
P0 Tc0 2.757386 1_455
