# generated using pymatgen
data_HfZr3(AlGa2)2
_symmetry_space_group_name_H-M   'P 1'
_cell_length_a   8.45818175
_cell_length_b   7.51982688
_cell_length_c   5.43398209
_cell_angle_alpha   79.44660188
_cell_angle_beta   60.96104554
_cell_angle_gamma   39.21888015
_symmetry_Int_Tables_number   1
_chemical_formula_structural   HfZr3(AlGa2)2
_chemical_formula_sum   'Hf1 Zr3 Al2 Ga4'
_cell_volume   179.04966027
_cell_formula_units_Z   1
loop_
 _symmetry_equiv_pos_site_id
 _symmetry_equiv_pos_as_xyz
  1  'x, y, z'
loop_
 _atom_site_type_symbol
 _atom_site_label
 _atom_site_symmetry_multiplicity
 _atom_site_fract_x
 _atom_site_fract_y
 _atom_site_fract_z
 _atom_site_occupancy
  Hf  Hf0  1  0.21549644  0.88829107  0.13649361  1
  Zr  Zr0  1  0.36009614  0.03701821  0.48879019  1
  Zr  Zr1  1  0.11433497  0.48792614  0.03633057  1
  Zr  Zr2  1  0.76161456  0.13524810  0.88697628  1
  Al  Al0  1  0.65603745  0.84341987  0.84357180  1
  Al  Al1  1  0.39985908  0.59980408  0.60095234  1
  Ga  Ga0  1  0.79846885  0.44009368  0.06001435  1
  Ga  Ga1  1  0.70267839  0.05894520  0.43925448  1
  Ga  Ga2  1  0.19301857  0.54985704  0.44840278  1
  Ga  Ga3  1  0.80839254  0.44939861  0.54921860  1
loop_
_geom_bond_atom_site_label_1
_geom_bond_atom_site_label_2
_geom_bond_distance
_geom_bond_site_symmetry_2
Al0 Ga0 2.537869 1_556
Al0 Ga1 2.540532 1_565
Al0 Ga3 2.610939 1_555
Al0 Ga2 2.616397 1_655
Al0 Zr1 2.893467 1_566
Al0 Zr0 2.895008 1_566
Al0 Hf0 3.003748 1_556
Al0 Zr2 3.016521 1_565
Al0 Zr0 3.179950 1_565
Al0 Zr1 3.182655 1_656
Al1 Ga3 2.533015 1_555
Al1 Ga2 2.535563 1_555
Al1 Ga0 2.616836 1_555
Al1 Ga1 2.618616 1_555
Al1 Zr2 2.870119 1_465
Al1 Hf0 2.876110 1_556
Al1 Zr1 3.001599 1_556
Al1 Zr0 3.007607 1_565
Al1 Zr2 3.169758 1_555
Al1 Hf0 3.175092 1_555
Ga0 Ga3 2.715234 1_555
Ga0 Ga3 2.725433 1_554
Ga0 Hf0 2.818744 1_645
Ga0 Zr0 2.865218 1_654
Ga0 Zr2 2.901324 1_554
Ga0 Zr1 2.902054 1_655
Ga0 Hf0 2.935794 1_555
Ga0 Zr0 2.996849 1_565
Ga1 Ga2 2.718069 1_645
Ga1 Ga2 2.722978 1_555
Ga1 Zr2 2.818551 1_554
Ga1 Zr1 2.869157 1_645
Ga1 Hf0 2.896258 1_645
Ga1 Zr0 2.909074 1_555
Ga1 Zr2 2.937467 1_555
Ga1 Zr1 2.997108 1_556
Ga2 Zr1 2.825375 1_555
Ga2 Zr2 2.857304 1_554
Ga2 Hf0 2.870984 1_555
Ga2 Zr0 2.909327 1_555
Ga2 Zr1 2.955942 1_556
Ga2 Zr2 2.980635 1_465
Ga3 Zr0 2.821898 1_655
Ga3 Hf0 2.854319 1_645
Ga3 Zr2 2.874183 1_555
Ga3 Zr1 2.900364 1_655
Ga3 Zr0 2.954125 1_565
Ga3 Hf0 2.983559 1_556
