# generated using pymatgen
data_YLu(CuSi)2
_symmetry_space_group_name_H-M   'P 1'
_cell_length_a   4.09653773
_cell_length_b   4.09653825
_cell_length_c   7.40096916
_cell_angle_alpha   90.00000000
_cell_angle_beta   90.00000000
_cell_angle_gamma   120.00000360
_symmetry_Int_Tables_number   1
_chemical_formula_structural   YLu(CuSi)2
_chemical_formula_sum   'Y1 Lu1 Cu2 Si2'
_cell_volume   107.56059190
_cell_formula_units_Z   1
loop_
 _symmetry_equiv_pos_site_id
 _symmetry_equiv_pos_as_xyz
  1  'x, y, z'
loop_
 _atom_site_type_symbol
 _atom_site_label
 _atom_site_symmetry_multiplicity
 _atom_site_fract_x
 _atom_site_fract_y
 _atom_site_fract_z
 _atom_site_occupancy
  Y  Y0  1  0.00000000  0.00000000  0.00000000  1
  Lu  Lu0  1  0.00000000  0.00000000  0.50000000  1
  Cu  Cu0  1  0.33333300  0.66666700  0.26247660  1
  Cu  Cu1  1  0.66666700  0.33333300  0.73752340  1
  Si  Si0  1  0.66666700  0.33333300  0.25617171  1
  Si  Si1  1  0.33333300  0.66666700  0.74382829  1
loop_
_geom_bond_atom_site_label_1
_geom_bond_atom_site_label_2
_geom_bond_distance
_geom_bond_site_symmetry_2
Lu0 Si1 2.974949 1_545
Lu0 Si0 2.974949 1_455
Lu0 Si1 2.974951 1_445
Lu0 Si0 2.974951 1_555
Lu0 Si1 2.974952 1_555
Lu0 Si0 2.974952 1_445
Cu0 Si0 2.365595 1_455
Cu0 Si0 2.365595 1_565
Cu0 Si0 2.365602 1_555
Cu0 Lu0 2.946878 1_565
Cu0 Lu0 2.946880 1_665
Cu0 Lu0 2.946880 1_555
Cu0 Y0 3.060635 1_565
Cu0 Y0 3.060637 1_665
Cu0 Y0 3.060638 1_555
Cu1 Si1 2.365595 1_655
Cu1 Si1 2.365595 1_545
Cu1 Si1 2.365602 1_555
Cu1 Lu0 2.946878 1_655
Cu1 Lu0 2.946880 1_555
Cu1 Lu0 2.946880 1_665
Cu1 Y0 3.060635 1_656
Cu1 Y0 3.060637 1_556
Cu1 Y0 3.060638 1_666
Si0 Y0 3.031233 1_655
Si0 Y0 3.031235 1_555
Si0 Y0 3.031236 1_665
Si1 Y0 3.031233 1_566
Si1 Y0 3.031235 1_666
Si1 Y0 3.031236 1_556
