# generated using pymatgen
data_Ba4ZrTcO8
_symmetry_space_group_name_H-M   'P 1'
_cell_length_a   7.36136186
_cell_length_b   7.36136076
_cell_length_c   5.82851416
_cell_angle_alpha   90.00000000
_cell_angle_beta   90.00000000
_cell_angle_gamma   133.32462009
_symmetry_Int_Tables_number   1
_chemical_formula_structural   Ba4ZrTcO8
_chemical_formula_sum   'Ba4 Zr1 Tc1 O8'
_cell_volume   229.77034938
_cell_formula_units_Z   1
loop_
 _symmetry_equiv_pos_site_id
 _symmetry_equiv_pos_as_xyz
  1  'x, y, z'
loop_
 _atom_site_type_symbol
 _atom_site_label
 _atom_site_symmetry_multiplicity
 _atom_site_fract_x
 _atom_site_fract_y
 _atom_site_fract_z
 _atom_site_occupancy
  Ba  Ba0  1  0.64695622  0.35304378  0.00000000  1
  Ba  Ba1  1  0.14551957  0.85448043  0.50000000  1
  Ba  Ba2  1  0.85448043  0.14551957  0.50000000  1
  Ba  Ba3  1  0.35304378  0.64695622  0.00000000  1
  Zr  Zr0  1  0.50000000  0.50000000  0.50000000  1
  Tc  Tc0  1  0.00000000  0.00000000  0.00000000  1
  O  O0  1  0.75363952  0.75363952  0.75485332  1
  O  O1  1  0.24636048  0.24636048  0.24514668  1
  O  O2  1  0.24636048  0.24636048  0.75485332  1
  O  O3  1  0.75363952  0.75363952  0.24514668  1
  O  O4  1  0.84815016  0.15184984  0.00000000  1
  O  O5  1  0.34359343  0.65640657  0.50000000  1
  O  O6  1  0.65640657  0.34359343  0.50000000  1
  O  O7  1  0.15184984  0.84815016  0.00000000  1
loop_
_geom_bond_atom_site_label_1
_geom_bond_atom_site_label_2
_geom_bond_distance
_geom_bond_site_symmetry_2
Ba0 O4 2.719779 1_555
Ba0 O0 2.859459 1_554
Ba0 O3 2.859459 1_555
Ba0 O2 2.859460 1_554
Ba0 O1 2.859460 1_555
Ba0 O7 2.916950 1_545
Ba0 O7 2.916950 1_655
Ba0 O6 2.917056 1_555
Ba0 O6 2.917056 1_554
Ba1 O5 2.677602 1_555
Ba1 O1 2.853207 1_565
Ba1 O2 2.853207 1_565
Ba1 O3 2.853208 1_455
Ba1 O0 2.853208 1_455
Ba1 O7 2.915513 1_556
Ba1 O7 2.915513 1_555
Ba1 O6 2.919912 1_455
Ba1 O6 2.919912 1_565
Ba2 O6 2.677602 1_555
Ba2 O3 2.853207 1_545
Ba2 O0 2.853207 1_545
Ba2 O1 2.853208 1_655
Ba2 O2 2.853208 1_655
Ba2 O4 2.915513 1_556
Ba2 O4 2.915513 1_555
Ba2 O5 2.919912 1_655
Ba2 O5 2.919912 1_545
Ba3 O7 2.719779 1_555
Ba3 O2 2.859459 1_554
Ba3 O1 2.859459 1_555
Ba3 O0 2.859460 1_554
Ba3 O3 2.859460 1_555
Ba3 O4 2.916950 1_565
Ba3 O4 2.916950 1_455
Ba3 O5 2.917056 1_555
Ba3 O5 2.917056 1_554
O0 Tc0 2.026374 1_666
O0 Zr0 2.096395 1_555
O1 Tc0 2.026374 1_555
O1 Zr0 2.096395 1_555
O2 Tc0 2.026374 1_556
O2 Zr0 2.096395 1_555
O3 Tc0 2.026374 1_665
O3 Zr0 2.096395 1_555
O4 Tc0 2.052736 1_655
O5 Zr0 2.114335 1_555
O6 Zr0 2.114335 1_555
O7 Tc0 2.052736 1_565
