# generated using pymatgen
data_Ba6Sn8PI
_symmetry_space_group_name_H-M   'P 1'
_cell_length_a   9.22323002
_cell_length_b   9.22322893
_cell_length_c   9.34768650
_cell_angle_alpha   119.56054581
_cell_angle_beta   119.56053700
_cell_angle_gamma   90.00000372
_symmetry_Int_Tables_number   1
_chemical_formula_structural   Ba6Sn8PI
_chemical_formula_sum   'Ba6 Sn8 P1 I1'
_cell_volume   569.67119183
_cell_formula_units_Z   1
loop_
 _symmetry_equiv_pos_site_id
 _symmetry_equiv_pos_as_xyz
  1  'x, y, z'
loop_
 _atom_site_type_symbol
 _atom_site_label
 _atom_site_symmetry_multiplicity
 _atom_site_fract_x
 _atom_site_fract_y
 _atom_site_fract_z
 _atom_site_occupancy
  Ba  Ba0  1  0.26645683  0.26645683  0.53291367  1
  Ba  Ba1  1  0.73354317  0.73354317  0.46708633  1
  Ba  Ba2  1  0.64995284  0.18540842  1.00000000  1
  Ba  Ba3  1  0.35004716  0.81459158  0.00000000  1
  Ba  Ba4  1  0.81459158  0.64995284  0.00000000  1
  Ba  Ba5  1  0.18540842  0.35004716  1.00000000  1
  Sn  Sn0  1  0.33200619  0.83647038  0.39015140  1
  Sn  Sn1  1  0.66799381  0.16352962  0.60984860  1
  Sn  Sn2  1  0.05814621  0.55368202  0.39015140  1
  Sn  Sn3  1  0.55368202  0.33200619  0.39015140  1
  Sn  Sn4  1  0.16352962  0.94185379  0.60984860  1
  Sn  Sn5  1  0.94185379  0.44631798  0.60984860  1
  Sn  Sn6  1  0.44631798  0.66799381  0.60984860  1
  Sn  Sn7  1  0.83647038  0.05814621  0.39015140  1
  P  P0  1  0.50000000  0.50000000  0.00000000  1
  I  I0  1  0.00000000  0.00000000  0.00000000  1
loop_
_geom_bond_atom_site_label_1
_geom_bond_atom_site_label_2
_geom_bond_distance
_geom_bond_site_symmetry_2
Ba0 P0 3.127918 1_556
Ba0 I0 3.568741 1_555
Ba0 Sn6 3.630392 1_555
Ba0 Sn1 3.630395 1_555
Ba0 Sn5 3.630401 1_455
Ba0 Sn4 3.630404 1_545
Ba0 Sn7 3.667225 1_455
Ba0 Sn0 3.667228 1_545
Ba0 Sn2 3.667234 1_555
Ba0 Sn3 3.667237 1_555
Ba1 P0 3.127918 1_555
Ba1 I0 3.568741 1_666
Ba1 Sn3 3.630392 1_555
Ba1 Sn0 3.630395 1_555
Ba1 Sn2 3.630401 1_655
Ba1 Sn7 3.630404 1_565
Ba1 Sn4 3.667225 1_655
Ba1 Sn1 3.667228 1_565
Ba1 Sn5 3.667234 1_555
Ba1 Sn6 3.667237 1_555
Ba2 P0 3.214315 1_556
Ba2 Sn1 3.638920 1_555
Ba2 Sn2 3.638928 1_656
Ba2 I0 3.653485 1_656
Ba2 Sn3 3.774518 1_556
Ba2 Sn4 3.774526 1_545
Ba2 Sn7 3.958687 1_556
Ba2 Sn6 3.958693 1_545
Ba2 Sn0 4.105832 1_545
Ba2 Sn5 4.105833 1_556
Ba3 P0 3.214315 1_555
Ba3 Sn0 3.638920 1_555
Ba3 Sn5 3.638928 1_454
Ba3 I0 3.653485 1_565
Ba3 Sn6 3.774518 1_554
Ba3 Sn7 3.774526 1_565
Ba3 Sn4 3.958687 1_554
Ba3 Sn3 3.958693 1_565
Ba3 Sn1 4.105832 1_565
Ba3 Sn2 4.105833 1_554
Ba4 P0 3.214315 1_555
Ba4 Sn6 3.638924 1_554
Ba4 Sn7 3.638924 1_565
Ba4 I0 3.653485 1_665
Ba4 Sn2 3.774519 1_655
Ba4 Sn1 3.774524 1_554
Ba4 Sn5 3.958687 1_554
Ba4 Sn0 3.958694 1_655
Ba4 Sn4 4.105832 1_655
Ba4 Sn3 4.105833 1_554
Ba5 P0 3.214315 1_556
Ba5 Sn3 3.638924 1_556
Ba5 Sn4 3.638924 1_545
Ba5 I0 3.653485 1_556
Ba5 Sn5 3.774519 1_455
Ba5 Sn0 3.774524 1_556
Ba5 Sn2 3.958687 1_556
Ba5 Sn1 3.958694 1_455
Ba5 Sn7 4.105832 1_455
Ba5 Sn6 4.105833 1_556
Sn0 Sn6 2.959057 1_555
Sn0 Sn4 2.959057 1_555
Sn0 Sn1 3.244744 1_565
Sn1 Sn3 2.959057 1_555
Sn1 Sn7 2.959057 1_555
Sn2 Sn4 2.959040 1_555
Sn2 Sn6 2.959041 1_555
Sn2 Sn5 3.244767 1_455
Sn3 Sn5 2.959041 1_555
Sn3 Sn6 3.244755 1_555
Sn4 Sn7 3.244756 1_465
Sn5 Sn7 2.959040 1_555
