# generated using pymatgen
data_LiNb5(ReSi)6
_symmetry_space_group_name_H-M   'P 1'
_cell_length_a   7.61351324
_cell_length_b   7.54141652
_cell_length_c   7.61351330
_cell_angle_alpha   126.09900838
_cell_angle_beta   128.94771546
_cell_angle_gamma   77.62889182
_symmetry_Int_Tables_number   1
_chemical_formula_structural   LiNb5(ReSi)6
_chemical_formula_sum   'Li1 Nb5 Re6 Si6'
_cell_volume   266.08635540
_cell_formula_units_Z   1
loop_
 _symmetry_equiv_pos_site_id
 _symmetry_equiv_pos_as_xyz
  1  'x, y, z'
loop_
 _atom_site_type_symbol
 _atom_site_label
 _atom_site_symmetry_multiplicity
 _atom_site_fract_x
 _atom_site_fract_y
 _atom_site_fract_z
 _atom_site_occupancy
  Li  Li0  1  0.55505040  0.10652186  0.05147146  1
  Nb  Nb0  1  0.44859307  0.49017264  0.54157957  1
  Nb  Nb1  1  0.95034531  0.49198941  0.04164410  1
  Nb  Nb2  1  0.04832429  0.09253717  0.54421388  1
  Nb  Nb3  1  0.75293209  0.90480838  0.65187630  1
  Nb  Nb4  1  0.24228291  0.89023620  0.14795329  1
  Re  Re0  1  0.50052978  0.24007660  0.73694393  1
  Re  Re1  1  0.00313267  0.24007660  0.23954781  1
  Re  Re2  1  0.12195759  0.75306523  0.61898073  1
  Re  Re3  1  0.87609829  0.50023539  0.63342600  1
  Re  Re4  1  0.63408350  0.75306523  0.13110664  1
  Re  Re5  1  0.36680938  0.50023539  0.12413609  1
  Si  Si0  1  0.74519650  0.48908633  0.24388983  1
  Si  Si1  1  0.25175135  0.49922542  0.74747507  1
  Si  Si2  1  0.34361441  0.83622736  0.51732198  1
  Si  Si3  1  0.65791600  0.15920523  0.47672915  1
  Si  Si4  1  0.81890537  0.83622736  0.99261295  1
  Si  Si5  1  0.18247608  0.15920523  0.00129022  1
loop_
_geom_bond_atom_site_label_1
_geom_bond_atom_site_label_2
_geom_bond_distance
_geom_bond_site_symmetry_2
Li0 Si3 2.585259 1_555
Li0 Si5 2.585262 1_555
Li0 Si4 2.586934 1_544
Li0 Si2 2.586934 1_544
Li0 Si0 2.590070 1_555
Li0 Re1 2.886929 1_655
Li0 Re0 2.886933 1_554
Li0 Re3 2.900657 1_555
Li0 Re5 2.900657 1_555
Li0 Re4 2.931447 1_545
Li0 Re2 2.931450 1_544
Nb0 Si5 2.616504 1_555
Nb0 Si3 2.616508 1_555
Nb0 Si4 2.640509 1_555
Nb0 Si2 2.640509 1_555
Nb0 Si1 2.737075 1_555
Nb0 Re0 2.858808 1_555
Nb0 Re1 2.858811 1_555
Nb0 Re3 2.875836 1_555
Nb0 Re5 2.875843 1_555
Nb0 Re4 2.969074 1_556
Nb0 Re2 2.969078 1_555
Nb1 Si3 2.718423 1_554
Nb1 Si5 2.718423 1_655
Nb1 Si2 2.727518 1_655
Nb1 Si4 2.727518 1_554
Nb1 Si0 2.808741 1_555
Nb1 Re3 2.826095 1_554
Nb1 Re5 2.826098 1_655
Nb1 Re0 2.885393 1_554
Nb1 Re1 2.885399 1_655
Nb1 Re2 2.930616 1_655
Nb1 Re4 2.930619 1_555
Nb2 Si2 2.661367 1_545
Nb2 Si4 2.661371 1_444
Nb2 Si3 2.663801 1_455
Nb2 Si5 2.663804 1_556
Nb2 Si1 2.762126 1_555
Nb2 Re2 2.809535 1_545
Nb2 Re4 2.809543 1_445
Nb2 Re5 2.926666 1_556
Nb2 Re3 2.926672 1_455
Nb2 Re1 2.934392 1_555
Nb2 Re0 2.934395 1_555
Nb3 Si2 2.661050 1_555
Nb3 Si4 2.661050 1_555
Nb3 Si5 2.681295 1_666
Nb3 Si3 2.681296 1_565
Nb3 Si0 2.802646 1_555
Nb3 Re0 2.838709 1_565
Nb3 Re1 2.838714 1_666
Nb3 Re2 2.904360 1_655
Nb3 Re4 2.904363 1_555
Nb3 Re3 2.939838 1_555
Nb3 Re5 2.939839 1_555
Nb4 Si4 2.675249 1_454
Nb4 Si2 2.675249 1_555
Nb4 Si5 2.683763 1_565
Nb4 Si3 2.683769 1_565
Nb4 Si1 2.754594 1_554
Nb4 Re5 2.824009 1_555
Nb4 Re3 2.824011 1_454
Nb4 Re0 2.851686 1_565
Nb4 Re1 2.851687 1_565
Nb4 Re4 2.997863 1_555
Nb4 Re2 2.997867 1_554
Re0 Si0 2.410884 1_556
Re0 Si1 2.415285 1_555
Re0 Si2 2.558429 1_545
Re0 Si3 2.642041 1_555
Re1 Si0 2.410884 1_455
Re1 Si1 2.415285 1_555
Re1 Si4 2.558426 1_444
Re1 Si5 2.642041 1_555
Re2 Si1 2.403952 1_555
Re2 Si0 2.407405 1_455
Re2 Si5 2.545397 1_566
Re2 Si2 2.551069 1_555
Re3 Si1 2.410417 1_655
Re3 Si0 2.412883 1_555
Re3 Si3 2.553548 1_555
Re3 Si4 2.635827 1_555
Re4 Si1 2.403943 1_554
Re4 Si0 2.407409 1_555
Re4 Si3 2.545394 1_565
Re4 Si4 2.551068 1_554
Re5 Si1 2.410406 1_554
Re5 Si0 2.412880 1_555
Re5 Si5 2.553556 1_555
Re5 Si2 2.635831 1_555
