# generated using pymatgen
data_Na4SiSe4
_symmetry_space_group_name_H-M   'P 1'
_cell_length_a   7.15775152
_cell_length_b   9.11518291
_cell_length_c   14.28697860
_cell_angle_alpha   90.00000000
_cell_angle_beta   90.00000000
_cell_angle_gamma   90.00000000
_symmetry_Int_Tables_number   1
_chemical_formula_structural   Na4SiSe4
_chemical_formula_sum   'Na16 Si4 Se16'
_cell_volume   932.14269389
_cell_formula_units_Z   4
loop_
 _symmetry_equiv_pos_site_id
 _symmetry_equiv_pos_as_xyz
  1  'x, y, z'
loop_
 _atom_site_type_symbol
 _atom_site_label
 _atom_site_symmetry_multiplicity
 _atom_site_fract_x
 _atom_site_fract_y
 _atom_site_fract_z
 _atom_site_occupancy
  Na  Na0  1  0.00000000  -0.00000000  0.00000000  1
  Na  Na1  1  0.50000000  -0.00000000  0.50000000  1
  Na  Na2  1  0.00000000  0.50000000  0.00000000  1
  Na  Na3  1  0.50000000  0.50000000  0.50000000  1
  Na  Na4  1  0.99431927  0.75000000  0.45428798  1
  Na  Na5  1  0.49431927  0.25000000  0.04571202  1
  Na  Na6  1  0.00568073  0.25000000  0.54571202  1
  Na  Na7  1  0.50568073  0.75000000  0.95428798  1
  Na  Na8  1  0.86262401  0.05087217  0.26642554  1
  Na  Na9  1  0.36262401  0.94912783  0.23357446  1
  Na  Na10  1  0.13737599  0.55087217  0.73357446  1
  Na  Na11  1  0.63737599  0.44912783  0.76642554  1
  Na  Na12  1  0.13737599  0.94912783  0.73357446  1
  Na  Na13  1  0.63737599  0.05087217  0.76642554  1
  Na  Na14  1  0.86262401  0.44912783  0.26642554  1
  Na  Na15  1  0.36262401  0.55087217  0.23357446  1
  Si  Si0  1  0.77806929  0.75000000  0.16532927  1
  Si  Si1  1  0.27806929  0.25000000  0.33467073  1
  Si  Si2  1  0.22193071  0.25000000  0.83467073  1
  Si  Si3  1  0.72193071  0.75000000  0.66532927  1
  Se  Se0  1  0.65670416  0.54665368  0.09587594  1
  Se  Se1  1  0.15670416  0.45334632  0.40412406  1
  Se  Se2  1  0.34329584  0.04665368  0.90412406  1
  Se  Se3  1  0.84329584  0.95334632  0.59587594  1
  Se  Se4  1  0.34329584  0.45334632  0.90412406  1
  Se  Se5  1  0.84329584  0.54665368  0.59587594  1
  Se  Se6  1  0.65670416  0.95334632  0.09587594  1
  Se  Se7  1  0.15670416  0.04665368  0.40412406  1
  Se  Se8  1  0.68176510  0.75000000  0.31807774  1
  Se  Se9  1  0.18176510  0.25000000  0.18192226  1
  Se  Se10  1  0.31823490  0.25000000  0.68192226  1
  Se  Se11  1  0.81823490  0.75000000  0.81807774  1
  Se  Se12  1  0.09284568  0.75000000  0.14123643  1
  Se  Se13  1  0.59284568  0.25000000  0.35876357  1
  Se  Se14  1  0.90715432  0.25000000  0.85876357  1
  Se  Se15  1  0.40715432  0.75000000  0.64123643  1
loop_
_geom_bond_atom_site_label_1
_geom_bond_atom_site_label_2
_geom_bond_distance
_geom_bond_site_symmetry_2
Na0 Se2 2.845188 1_554
Na0 Se6 2.845188 1_445
Na0 Se14 3.115485 1_454
Na0 Se12 3.115485 1_545
Na1 Se3 2.845188 1_545
Na1 Se7 2.845188 1_555
Na1 Se15 3.115485 1_545
Na1 Se13 3.115485 1_555
Na2 Se4 2.845188 1_554
Na2 Se0 2.845188 1_455
Na2 Se14 3.115485 1_454
Na2 Se12 3.115485 1_555
Na3 Se1 2.845188 1_555
Na3 Se5 2.845188 1_555
Na3 Se15 3.115485 1_555
Na3 Se13 3.115485 1_555
Na4 Se5 2.948919 1_555
Na4 Se3 2.948919 1_555
Na4 Se8 2.965138 1_555
Na4 Se7 3.029276 1_665
Na4 Se1 3.029276 1_655
Na5 Se2 2.948919 1_554
Na5 Se4 2.948919 1_554
Na5 Se9 2.965138 1_555
Na5 Se0 3.029276 1_555
Na5 Se6 3.029276 1_545
Na6 Se1 2.948919 1_555
Na6 Se7 2.948919 1_555
Na6 Se10 2.965138 1_555
Na6 Se5 3.029276 1_455
Na6 Se3 3.029276 1_445
Na7 Se6 2.948919 1_556
Na7 Se0 2.948919 1_556
Na7 Se11 2.965138 1_555
Na7 Se4 3.029276 1_555
Na7 Se2 3.029276 1_565
Na8 Se7 2.881416 1_655
Na8 Se13 2.960354 1_555
Na8 Se6 2.983273 1_545
Na8 Se8 3.121178 1_545
Na8 Se9 3.157575 1_655
Na8 Si0 3.158133 1_545
Na9 Se6 2.881416 1_555
Na9 Se12 2.960354 1_555
Na9 Se7 2.983273 1_565
Na9 Se9 3.121178 1_565
Na9 Se8 3.157575 1_555
Na9 Si1 3.158133 1_565
Na10 Se5 2.881416 1_455
Na10 Se15 2.960354 1_555
Na10 Se4 2.983273 1_555
Na10 Se10 3.121178 1_555
Na10 Se11 3.157575 1_455
Na10 Si2 3.158133 1_555
Na11 Se4 2.881416 1_555
Na11 Se14 2.960354 1_555
Na11 Se5 2.983273 1_555
Na11 Se11 3.121178 1_555
Na11 Se10 3.157575 1_555
Na11 Si3 3.158133 1_555
Na12 Se3 2.881416 1_455
Na12 Se15 2.960354 1_555
Na12 Se2 2.983273 1_565
Na12 Se10 3.121178 1_565
Na12 Se11 3.157575 1_455
Na12 Si2 3.158133 1_565
Na13 Se2 2.881416 1_555
Na13 Se14 2.960354 1_555
Na13 Se3 2.983273 1_545
Na13 Se11 3.121178 1_545
Na13 Se10 3.157575 1_555
Na13 Si3 3.158133 1_545
Na14 Se1 2.881416 1_655
Na14 Se13 2.960354 1_555
Na14 Se0 2.983273 1_555
Na14 Se8 3.121178 1_555
Na14 Se9 3.157575 1_655
Na14 Si0 3.158133 1_555
Na15 Se0 2.881416 1_555
Na15 Se12 2.960354 1_555
Na15 Se1 2.983273 1_555
Na15 Se9 3.121178 1_555
Na15 Se8 3.157575 1_555
Na15 Si1 3.158133 1_555
Se0 Si0 2.274833 1_555
Se1 Si1 2.274833 1_555
Se2 Si2 2.274833 1_555
Se3 Si3 2.274833 1_555
Se4 Si2 2.274833 1_555
Se5 Si3 2.274833 1_555
Se6 Si0 2.274833 1_555
Se7 Si1 2.274833 1_555
Se8 Si0 2.288593 1_555
Se9 Si1 2.288593 1_555
Se10 Si2 2.288593 1_555
Se11 Si3 2.288593 1_555
Se12 Si0 2.279233 1_455
Se13 Si1 2.279233 1_555
Se14 Si2 2.279233 1_655
Se15 Si3 2.279233 1_555
