# generated using pymatgen
data_RbTaWO6
_symmetry_space_group_name_H-M   'P 1'
_cell_length_a   7.33907895
_cell_length_b   7.33907878
_cell_length_c   7.33907961
_cell_angle_alpha   120.27463571
_cell_angle_beta   119.81987097
_cell_angle_gamma   89.91862933
_symmetry_Int_Tables_number   1
_chemical_formula_structural   RbTaWO6
_chemical_formula_sum   'Rb2 Ta2 W2 O12'
_cell_volume   279.31249175
_cell_formula_units_Z   2
loop_
 _symmetry_equiv_pos_site_id
 _symmetry_equiv_pos_as_xyz
  1  'x, y, z'
loop_
 _atom_site_type_symbol
 _atom_site_label
 _atom_site_symmetry_multiplicity
 _atom_site_fract_x
 _atom_site_fract_y
 _atom_site_fract_z
 _atom_site_occupancy
  Rb  Rb0  1  0.61890347  0.86890347  0.75000000  1
  Rb  Rb1  1  0.38109653  0.13109653  0.25000000  1
  Ta  Ta0  1  0.50000000  0.50000000  0.00000000  1
  Ta  Ta1  1  0.00000000  0.50000000  0.50000000  1
  W  W0  1  0.00000000  0.50000000  0.00000000  1
  W  W1  1  0.00000000  0.00000000  0.50000000  1
  O  O0  1  0.05849558  0.80849558  0.25000000  1
  O  O1  1  0.68511110  0.43511110  0.25000000  1
  O  O2  1  0.06024980  0.81786611  0.62345411  1
  O  O3  1  0.69441200  0.43679569  0.87654589  1
  O  O4  1  0.69441200  0.81786611  0.25761731  1
  O  O5  1  0.06024980  0.43679569  0.24238269  1
  O  O6  1  0.94150442  0.19150442  0.75000000  1
  O  O7  1  0.31488890  0.56488890  0.75000000  1
  O  O8  1  0.93975020  0.18213389  0.37654589  1
  O  O9  1  0.30558800  0.56320431  0.12345411  1
  O  O10  1  0.30558800  0.18213389  0.74238269  1
  O  O11  1  0.93975020  0.56320431  0.75761731  1
loop_
_geom_bond_atom_site_label_1
_geom_bond_atom_site_label_2
_geom_bond_distance
_geom_bond_site_symmetry_2
O0 W0 1.925512 1_555
O0 W1 1.925512 1_565
O0 Rb1 3.350660 1_565
O1 Ta1 1.959324 1_655
O1 Ta0 1.959324 1_555
O1 Rb1 3.157615 1_555
O2 W1 1.903732 1_565
O2 Ta1 1.982902 1_555
O2 Rb1 3.249905 1_566
O3 W0 1.903732 1_656
O3 Ta0 1.982903 1_556
O3 Rb1 3.249905 1_555
O4 W1 1.903732 1_665
O4 Ta0 1.982902 1_555
O4 Rb1 3.249905 1_565
O5 W0 1.903725 1_555
O5 Ta1 1.982910 1_555
O5 Rb1 3.249905 1_555
O6 W0 1.925512 1_656
O6 W1 1.925512 1_655
O6 Rb0 3.350660 1_545
O7 Ta1 1.959324 1_555
O7 Ta0 1.959324 1_556
O7 Rb0 3.157615 1_555
O8 W1 1.903732 1_655
O8 Ta1 1.982902 1_655
O8 Rb0 3.249905 1_544
O9 W0 1.903732 1_555
O9 Ta0 1.982903 1_555
O9 Rb0 3.249905 1_555
O10 W1 1.903732 1_555
O10 Ta0 1.982902 1_556
O10 Rb0 3.249905 1_545
O11 W0 1.903725 1_656
O11 Ta1 1.982910 1_655
O11 Rb0 3.249905 1_555
