# generated using pymatgen
data_Ba2AsS3Br
_symmetry_space_group_name_H-M   'P 1'
_cell_length_a   6.94203804
_cell_length_b   9.76954085
_cell_length_c   12.22177881
_cell_angle_alpha   90.00000000
_cell_angle_beta   90.00000000
_cell_angle_gamma   90.00000000
_symmetry_Int_Tables_number   1
_chemical_formula_structural   Ba2AsS3Br
_chemical_formula_sum   'Ba8 As4 S12 Br4'
_cell_volume   828.88744561
_cell_formula_units_Z   4
loop_
 _symmetry_equiv_pos_site_id
 _symmetry_equiv_pos_as_xyz
  1  'x, y, z'
loop_
 _atom_site_type_symbol
 _atom_site_label
 _atom_site_symmetry_multiplicity
 _atom_site_fract_x
 _atom_site_fract_y
 _atom_site_fract_z
 _atom_site_occupancy
  Ba  Ba0  1  0.25000000  0.84284346  0.37211602  1
  Ba  Ba1  1  0.75000000  0.15715654  0.62788398  1
  Ba  Ba2  1  0.75000000  0.34284346  0.12788398  1
  Ba  Ba3  1  0.25000000  0.65715654  0.87211602  1
  Ba  Ba4  1  0.25000000  0.31149533  0.33978628  1
  Ba  Ba5  1  0.75000000  0.68850467  0.66021372  1
  Ba  Ba6  1  0.75000000  0.81149533  0.16021372  1
  Ba  Ba7  1  0.25000000  0.18850467  0.83978628  1
  As  As0  1  0.25000000  0.02780488  0.09581821  1
  As  As1  1  0.75000000  0.97219512  0.90418179  1
  As  As2  1  0.75000000  0.52780488  0.40418179  1
  As  As3  1  0.25000000  0.47219512  0.59581821  1
  S  S0  1  0.00753162  0.07733438  0.21034821  1
  S  S1  1  0.99246838  0.92266562  0.78965179  1
  S  S2  1  0.99246838  0.57733438  0.28965179  1
  S  S3  1  0.50753162  0.92266562  0.78965179  1
  S  S4  1  0.00753162  0.42266562  0.71034821  1
  S  S5  1  0.49246838  0.07733438  0.21034821  1
  S  S6  1  0.49246838  0.42266562  0.71034821  1
  S  S7  1  0.50753162  0.57733438  0.28965179  1
  S  S8  1  0.25000000  0.79894816  0.10691888  1
  S  S9  1  0.75000000  0.20105184  0.89308112  1
  S  S10  1  0.75000000  0.29894816  0.39308112  1
  S  S11  1  0.25000000  0.70105184  0.60691888  1
  Br  Br0  1  0.25000000  0.39379096  0.05316393  1
  Br  Br1  1  0.75000000  0.60620904  0.94683607  1
  Br  Br2  1  0.75000000  0.89379096  0.44683607  1
  Br  Br3  1  0.25000000  0.10620904  0.55316393  1
loop_
_geom_bond_atom_site_label_1
_geom_bond_atom_site_label_2
_geom_bond_distance
_geom_bond_site_symmetry_2
Ba0 S11 3.186552 1_555
Ba0 S8 3.269427 1_555
Ba0 S7 3.307615 1_555
Ba0 S2 3.307615 1_455
Ba0 Br3 3.393566 1_565
Ba0 S5 3.462688 1_565
Ba0 S0 3.462688 1_565
Ba0 Br2 3.623488 1_555
Ba0 Br2 3.623488 1_455
Ba1 S10 3.186552 1_555
Ba1 S9 3.269427 1_555
Ba1 S4 3.307615 1_655
Ba1 S6 3.307615 1_555
Ba1 Br2 3.393566 1_545
Ba1 S1 3.462688 1_545
Ba1 S3 3.462688 1_545
Ba1 Br3 3.623488 1_555
Ba1 Br3 3.623488 1_655
Ba2 S9 3.186552 1_554
Ba2 S10 3.269427 1_555
Ba2 S0 3.307615 1_655
Ba2 S5 3.307615 1_555
Ba2 Br1 3.393566 1_554
Ba2 S2 3.462688 1_555
Ba2 S7 3.462688 1_555
Ba2 Br0 3.623488 1_555
Ba2 Br0 3.623488 1_655
Ba3 S8 3.186552 1_556
Ba3 S11 3.269427 1_555
Ba3 S3 3.307615 1_555
Ba3 S1 3.307615 1_455
Ba3 Br0 3.393566 1_556
Ba3 S6 3.462688 1_555
Ba3 S4 3.462688 1_555
Ba3 Br1 3.623488 1_455
Ba3 Br1 3.623488 1_555
Ba4 S7 3.211964 1_555
Ba4 S2 3.211964 1_455
Ba4 S5 3.251027 1_555
Ba4 S0 3.251027 1_555
Ba4 Br3 3.289855 1_555
Ba4 S10 3.533733 1_555
Ba4 S10 3.533733 1_455
Ba4 Br0 3.594114 1_555
Ba5 S4 3.211964 1_655
Ba5 S6 3.211964 1_555
Ba5 S1 3.251027 1_555
Ba5 S3 3.251027 1_555
Ba5 Br2 3.289855 1_555
Ba5 S11 3.533733 1_555
Ba5 S11 3.533733 1_655
Ba5 Br1 3.594114 1_555
Ba6 S0 3.211964 1_665
Ba6 S5 3.211964 1_565
Ba6 S2 3.251027 1_555
Ba6 S7 3.251027 1_555
Ba6 Br1 3.289855 1_554
Ba6 S8 3.533733 1_555
Ba6 S8 3.533733 1_655
Ba6 Br2 3.594114 1_555
Ba7 S3 3.211964 1_545
Ba7 S1 3.211964 1_445
Ba7 S6 3.251027 1_555
Ba7 S4 3.251027 1_555
Ba7 Br0 3.289855 1_556
Ba7 S9 3.533733 1_555
Ba7 S9 3.533733 1_455
Ba7 Br3 3.594114 1_555
As0 S8 2.239938 1_545
As0 S5 2.242034 1_555
As0 S0 2.242034 1_555
As0 Ba7 3.500923 1_554
As1 S9 2.239938 1_565
As1 S1 2.242034 1_555
As1 S3 2.242034 1_555
As1 Ba6 3.500923 1_556
As2 S10 2.239938 1_555
As2 S2 2.242034 1_555
As2 S7 2.242034 1_555
As2 Ba5 3.500923 1_555
As3 S11 2.239938 1_555
As3 S6 2.242034 1_555
As3 S4 2.242034 1_555
As3 Ba4 3.500923 1_555
