# generated using pymatgen
data_Sc2Ni12P7
_symmetry_space_group_name_H-M   'P 1'
_cell_length_a   8.91820380
_cell_length_b   8.91799310
_cell_length_c   3.57676635
_cell_angle_alpha   90.00000000
_cell_angle_beta   90.00000000
_cell_angle_gamma   119.99746160
_symmetry_Int_Tables_number   1
_chemical_formula_structural   Sc2Ni12P7
_chemical_formula_sum   'Sc2 Ni12 P7'
_cell_volume   246.36376685
_cell_formula_units_Z   1
loop_
 _symmetry_equiv_pos_site_id
 _symmetry_equiv_pos_as_xyz
  1  'x, y, z'
loop_
 _atom_site_type_symbol
 _atom_site_label
 _atom_site_symmetry_multiplicity
 _atom_site_fract_x
 _atom_site_fract_y
 _atom_site_fract_z
 _atom_site_occupancy
  Sc  Sc0  1  0.66667277  0.33334293  0.50000000  1
  Sc  Sc1  1  0.33334503  0.66666707  -0.00000000  1
  Ni  Ni0  1  0.38275721  0.43424901  0.50000000  1
  Ni  Ni1  1  0.05149623  0.61723323  0.50000000  1
  Ni  Ni2  1  0.21942425  0.09417978  0.50000000  1
  Ni  Ni3  1  0.87477474  0.78060174  0.50000000  1
  Ni  Ni4  1  0.90582202  0.12526952  0.50000000  1
  Ni  Ni5  1  0.72408247  0.87838955  -0.00000000  1
  Ni  Ni6  1  0.12160520  0.84569140  -0.00000000  1
  Ni  Ni7  1  0.15430436  0.27587862  0.00000000  1
  Ni  Ni8  1  0.93653929  0.37196704  -0.00000000  1
  Ni  Ni9  1  0.62801676  0.56459026  0.00000000  1
  Ni  Ni10  1  0.43542379  0.06345684  -0.00000000  1
  Ni  Ni11  1  0.56573602  0.94850929  0.50000000  1
  P  P0  1  -0.00000237  -0.00001341  -0.00000000  1
  P  P1  1  0.41235818  0.29496333  -0.00000000  1
  P  P2  1  0.58925398  0.70623340  0.50000000  1
  P  P3  1  0.29375305  0.88301000  0.50000000  1
  P  P4  1  0.11699574  0.41074343  0.50000000  1
  P  P5  1  0.70502489  0.11740416  -0.00000000  1
  P  P6  1  0.88261538  0.58763478  -0.00000000  1
loop_
_geom_bond_atom_site_label_1
_geom_bond_atom_site_label_2
_geom_bond_distance
_geom_bond_site_symmetry_2
Ni0 P2 2.192766 1_555
Ni0 P1 2.266897 1_555
Ni0 P1 2.266897 1_556
Ni0 P4 2.272575 1_555
Ni0 Sc1 2.932900 1_555
Ni0 Sc1 2.932900 1_556
Ni1 P4 2.192678 1_555
Ni1 P6 2.266902 1_455
Ni1 P6 2.266902 1_456
Ni1 P3 2.272700 1_555
Ni1 Sc1 2.933043 1_555
Ni1 Sc1 2.933043 1_556
Ni2 P3 2.287824 1_545
Ni2 P0 2.467726 1_556
Ni2 P0 2.467726 1_555
Ni2 P1 2.506865 1_556
Ni2 P1 2.506865 1_555
Ni3 P2 2.288018 1_555
Ni3 P0 2.467491 1_665
Ni3 P0 2.467491 1_666
Ni3 P6 2.506980 1_555
Ni3 P6 2.506980 1_556
Ni4 P4 2.287781 1_655
Ni4 P0 2.467854 1_655
Ni4 P0 2.467854 1_656
Ni4 P5 2.506874 1_555
Ni4 P5 2.506874 1_556
Ni5 P0 2.136040 1_665
Ni5 P5 2.221386 1_565
Ni5 P2 2.270534 1_554
Ni5 P2 2.270534 1_555
Ni5 Sc1 3.021422 1_555
Ni6 P0 2.135828 1_565
Ni6 P6 2.221322 1_455
Ni6 P3 2.270499 1_554
Ni6 P3 2.270499 1_555
Ni6 Sc1 3.021478 1_555
Ni7 P0 2.135824 1_555
Ni7 P1 2.221181 1_555
Ni7 P4 2.270619 1_554
Ni7 P4 2.270619 1_555
Ni7 Sc1 3.021731 1_555
Ni8 P5 2.174818 1_555
Ni8 P6 2.203476 1_555
Ni8 P4 2.313312 1_655
Ni8 P4 2.313312 1_654
Ni8 Sc0 2.877560 1_555
Ni8 Sc0 2.877560 1_554
Ni8 Sc1 3.182835 1_655
Ni9 P6 2.175109 1_555
Ni9 P1 2.203759 1_555
Ni9 P2 2.313020 1_555
Ni9 P2 2.313020 1_554
Ni9 Sc0 2.877669 1_555
Ni9 Sc0 2.877669 1_554
Ni9 Sc1 3.182271 1_555
Ni10 P1 2.174726 1_555
Ni10 P5 2.203575 1_555
Ni10 P3 2.313267 1_544
Ni10 P3 2.313267 1_545
Ni10 Sc0 2.877686 1_555
Ni10 Sc0 2.877686 1_554
Ni10 Sc1 3.182625 1_545
Ni11 P3 2.192714 1_555
Ni11 P5 2.266973 1_565
Ni11 P5 2.266973 1_566
Ni11 P2 2.272746 1_555
Ni11 Sc1 2.932975 1_555
Ni11 Sc1 2.932975 1_556
P1 Sc0 2.771859 1_555
P1 Sc0 2.771859 1_554
P2 Sc1 2.779612 1_556
P2 Sc1 2.779612 1_555
P3 Sc1 2.779665 1_555
P3 Sc1 2.779665 1_556
P4 Sc1 2.779712 1_555
P4 Sc1 2.779712 1_556
P5 Sc0 2.771713 1_555
P5 Sc0 2.771713 1_554
P6 Sc0 2.771805 1_555
P6 Sc0 2.771805 1_554
