# generated using pymatgen
data_Ba2GaSiI
_symmetry_space_group_name_H-M   'P 1'
_cell_length_a   4.42998825
_cell_length_b   4.42998948
_cell_length_c   20.01698426
_cell_angle_alpha   90.00000000
_cell_angle_beta   90.00000000
_cell_angle_gamma   120.00001217
_symmetry_Int_Tables_number   1
_chemical_formula_structural   Ba2GaSiI
_chemical_formula_sum   'Ba4 Ga2 Si2 I2'
_cell_volume   340.20014562
_cell_formula_units_Z   2
loop_
 _symmetry_equiv_pos_site_id
 _symmetry_equiv_pos_as_xyz
  1  'x, y, z'
loop_
 _atom_site_type_symbol
 _atom_site_label
 _atom_site_symmetry_multiplicity
 _atom_site_fract_x
 _atom_site_fract_y
 _atom_site_fract_z
 _atom_site_occupancy
  Ba  Ba0  1  0.00000000  0.00000000  0.38051059  1
  Ba  Ba1  1  0.00000000  0.00000000  0.88051059  1
  Ba  Ba2  1  0.00000000  0.00000000  0.61850210  1
  Ba  Ba3  1  0.00000000  0.00000000  0.11850210  1
  Ga  Ga0  1  0.33333300  0.66666700  0.51900242  1
  Ga  Ga1  1  0.66666700  0.33333300  0.01900242  1
  Si  Si0  1  0.66666700  0.33333300  0.48232023  1
  Si  Si1  1  0.33333300  0.66666700  0.98232023  1
  I  I0  1  0.33333300  0.66666700  0.24966365  1
  I  I1  1  0.66666700  0.33333300  0.74966365  1
loop_
_geom_bond_atom_site_label_1
_geom_bond_atom_site_label_2
_geom_bond_distance
_geom_bond_site_symmetry_2
Ba0 Si0 3.270277 1_455
Ba0 Si0 3.270280 1_555
Ba0 Si0 3.270280 1_445
Ba0 I0 3.660819 1_545
Ba0 I0 3.660821 1_445
Ba0 I0 3.660821 1_555
Ba1 Si1 3.270277 1_545
Ba1 Si1 3.270280 1_445
Ba1 Si1 3.270280 1_555
Ba1 I1 3.660819 1_455
Ba1 I1 3.660821 1_555
Ba1 I1 3.660821 1_445
Ba2 Ga0 3.241665 1_545
Ba2 Ga0 3.241667 1_445
Ba2 Ga0 3.241668 1_555
Ba2 I1 3.665327 1_455
Ba2 I1 3.665329 1_555
Ba2 I1 3.665330 1_445
Ba3 Ga1 3.241665 1_455
Ba3 Ga1 3.241667 1_555
Ba3 Ga1 3.241668 1_445
Ba3 I0 3.665327 1_545
Ba3 I0 3.665329 1_445
Ba3 I0 3.665330 1_555
Ga0 Si0 2.660964 1_455
Ga0 Si0 2.660965 1_565
Ga0 Si0 2.660973 1_555
Ga1 Si1 2.660964 1_654
Ga1 Si1 2.660965 1_544
Ga1 Si1 2.660973 1_554
