# generated using pymatgen
data_Ti4Rh2O
_symmetry_space_group_name_H-M   'P 1'
_cell_length_a   8.18424704
_cell_length_b   8.18424670
_cell_length_c   8.18424664
_cell_angle_alpha   60.00000023
_cell_angle_beta   60.00000160
_cell_angle_gamma   59.99999510
_symmetry_Int_Tables_number   1
_chemical_formula_structural   Ti4Rh2O
_chemical_formula_sum   'Ti16 Rh8 O4'
_cell_volume   387.63335751
_cell_formula_units_Z   4
loop_
 _symmetry_equiv_pos_site_id
 _symmetry_equiv_pos_as_xyz
  1  'x, y, z'
loop_
 _atom_site_type_symbol
 _atom_site_label
 _atom_site_symmetry_multiplicity
 _atom_site_fract_x
 _atom_site_fract_y
 _atom_site_fract_z
 _atom_site_occupancy
  Ti  Ti0  1  0.12500000  0.62500000  0.62500000  1
  Ti  Ti1  1  0.62500000  0.12500000  0.62500000  1
  Ti  Ti2  1  0.62500000  0.62500000  0.12500000  1
  Ti  Ti3  1  0.62500000  0.62500000  0.62500000  1
  Ti  Ti4  1  0.81806679  0.81806679  0.18193321  1
  Ti  Ti5  1  0.18193321  0.18193321  0.81806679  1
  Ti  Ti6  1  0.81806679  0.18193321  0.81806679  1
  Ti  Ti7  1  0.18193321  0.81806679  0.18193321  1
  Ti  Ti8  1  0.18193321  0.81806679  0.81806679  1
  Ti  Ti9  1  0.81806679  0.18193321  0.18193321  1
  Ti  Ti10  1  0.43193321  0.43193321  0.06806679  1
  Ti  Ti11  1  0.06806679  0.06806679  0.43193321  1
  Ti  Ti12  1  0.43193321  0.06806679  0.43193321  1
  Ti  Ti13  1  0.06806679  0.43193321  0.06806679  1
  Ti  Ti14  1  0.06806679  0.43193321  0.43193321  1
  Ti  Ti15  1  0.43193321  0.06806679  0.06806679  1
  Rh  Rh0  1  0.77430710  0.40856363  0.40856363  1
  Rh  Rh1  1  0.40856363  0.77430710  0.40856363  1
  Rh  Rh2  1  0.40856363  0.40856363  0.77430710  1
  Rh  Rh3  1  0.40856363  0.40856363  0.40856363  1
  Rh  Rh4  1  0.47569290  0.84143637  0.84143637  1
  Rh  Rh5  1  0.84143637  0.47569290  0.84143637  1
  Rh  Rh6  1  0.84143637  0.84143637  0.47569290  1
  Rh  Rh7  1  0.84143637  0.84143637  0.84143637  1
  O  O0  1  0.62500000  0.12500000  0.12500000  1
  O  O1  1  0.12500000  0.62500000  0.12500000  1
  O  O2  1  0.12500000  0.12500000  0.62500000  1
  O  O3  1  0.12500000  0.12500000  0.12500000  1
loop_
_geom_bond_atom_site_label_1
_geom_bond_atom_site_label_2
_geom_bond_distance
_geom_bond_site_symmetry_2
Rh0 Ti2 2.564619 1_555
Rh0 Ti1 2.564619 1_555
Rh0 Ti3 2.564632 1_555
Rh0 Ti11 2.609511 1_655
Rh0 Ti13 2.609511 1_655
Rh0 Ti14 2.609520 1_655
Rh1 Ti2 2.564619 1_555
Rh1 Ti0 2.564619 1_555
Rh1 Ti3 2.564632 1_555
Rh1 Ti11 2.609511 1_565
Rh1 Ti15 2.609511 1_565
Rh1 Ti12 2.609520 1_565
Rh2 Ti1 2.564619 1_555
Rh2 Ti0 2.564619 1_555
Rh2 Ti3 2.564632 1_555
Rh2 Ti15 2.609511 1_556
Rh2 Ti13 2.609511 1_556
Rh2 Ti10 2.609520 1_556
Rh3 Ti1 2.564628 1_555
Rh3 Ti0 2.564628 1_555
Rh3 Ti2 2.564629 1_555
Rh3 Ti12 2.609504 1_555
Rh3 Ti10 2.609504 1_555
Rh3 Ti14 2.609504 1_555
Rh4 Ti2 2.564619 1_556
Rh4 Ti1 2.564619 1_565
Rh4 Ti3 2.564632 1_555
Rh4 Ti5 2.609511 1_565
Rh4 Ti7 2.609511 1_556
Rh4 Ti8 2.609520 1_555
Rh5 Ti2 2.564619 1_556
Rh5 Ti0 2.564619 1_655
Rh5 Ti3 2.564632 1_555
Rh5 Ti5 2.609511 1_655
Rh5 Ti9 2.609511 1_556
Rh5 Ti6 2.609520 1_555
Rh6 Ti1 2.564619 1_565
Rh6 Ti0 2.564619 1_655
Rh6 Ti3 2.564632 1_555
Rh6 Ti9 2.609511 1_565
Rh6 Ti7 2.609511 1_655
Rh6 Ti4 2.609520 1_555
Rh7 Ti1 2.564628 1_565
Rh7 Ti0 2.564628 1_655
Rh7 Ti2 2.564629 1_556
Rh7 Ti6 2.609504 1_565
Rh7 Ti4 2.609504 1_556
Rh7 Ti8 2.609504 1_655
O0 Ti10 2.149557 1_555
O0 Ti4 2.149557 1_545
O0 Ti9 2.149558 1_555
O0 Ti15 2.149558 1_555
O0 Ti12 2.149558 1_555
O0 Ti6 2.149558 1_554
O1 Ti4 2.149557 1_455
O1 Ti10 2.149557 1_555
O1 Ti14 2.149558 1_555
O1 Ti8 2.149558 1_554
O1 Ti7 2.149558 1_555
O1 Ti13 2.149558 1_555
O2 Ti14 2.149557 1_555
O2 Ti8 2.149557 1_545
O2 Ti5 2.149557 1_555
O2 Ti11 2.149557 1_555
O2 Ti12 2.149558 1_555
O2 Ti6 2.149558 1_455
O3 Ti13 2.149557 1_555
O3 Ti7 2.149557 1_545
O3 Ti11 2.149557 1_555
O3 Ti5 2.149557 1_554
O3 Ti15 2.149558 1_555
O3 Ti9 2.149558 1_455
