# generated using pymatgen
data_Zr6Zn16TePd7
_symmetry_space_group_name_H-M   'P 1'
_cell_length_a   8.79209277
_cell_length_b   8.79209236
_cell_length_c   8.79209191
_cell_angle_alpha   60.00000168
_cell_angle_beta   60.00000325
_cell_angle_gamma   60.00000059
_symmetry_Int_Tables_number   1
_chemical_formula_structural   Zr6Zn16TePd7
_chemical_formula_sum   'Zr6 Zn16 Te1 Pd7'
_cell_volume   480.57562952
_cell_formula_units_Z   1
loop_
 _symmetry_equiv_pos_site_id
 _symmetry_equiv_pos_as_xyz
  1  'x, y, z'
loop_
 _atom_site_type_symbol
 _atom_site_label
 _atom_site_symmetry_multiplicity
 _atom_site_fract_x
 _atom_site_fract_y
 _atom_site_fract_z
 _atom_site_occupancy
  Zr  Zr0  1  0.72629741  0.27370259  0.27370259  1
  Zr  Zr1  1  0.27370259  0.72629741  0.72629741  1
  Zr  Zr2  1  0.27370259  0.72629741  0.27370259  1
  Zr  Zr3  1  0.72629741  0.27370259  0.72629741  1
  Zr  Zr4  1  0.27370259  0.27370259  0.72629741  1
  Zr  Zr5  1  0.72629741  0.72629741  0.27370259  1
  Zn  Zn0  1  0.12457061  0.12457061  0.12457061  1
  Zn  Zn1  1  0.87542939  0.87542939  0.87542939  1
  Zn  Zn2  1  0.12457061  0.12457061  0.62628817  1
  Zn  Zn3  1  0.12457061  0.62628817  0.12457061  1
  Zn  Zn4  1  0.87542939  0.87542939  0.37371183  1
  Zn  Zn5  1  0.87542939  0.37371183  0.87542939  1
  Zn  Zn6  1  0.62628817  0.12457061  0.12457061  1
  Zn  Zn7  1  0.37371183  0.87542939  0.87542939  1
  Zn  Zn8  1  0.33994260  0.33994260  0.33994260  1
  Zn  Zn9  1  0.66005740  0.66005740  0.66005740  1
  Zn  Zn10  1  0.33994260  0.33994260  0.98017519  1
  Zn  Zn11  1  0.33994260  0.98017519  0.33994260  1
  Zn  Zn12  1  0.66005740  0.66005740  0.01982481  1
  Zn  Zn13  1  0.66005740  0.01982481  0.66005740  1
  Zn  Zn14  1  0.98017519  0.33994260  0.33994260  1
  Zn  Zn15  1  0.01982481  0.66005740  0.66005740  1
  Te  Te0  1  0.50000000  0.50000000  0.50000000  1
  Pd  Pd0  1  0.50000000  0.00000000  0.00000000  1
  Pd  Pd1  1  0.00000000  0.50000000  0.50000000  1
  Pd  Pd2  1  0.00000000  0.50000000  0.00000000  1
  Pd  Pd3  1  0.50000000  0.00000000  0.50000000  1
  Pd  Pd4  1  0.00000000  0.00000000  0.50000000  1
  Pd  Pd5  1  0.50000000  0.50000000  0.00000000  1
  Pd  Pd6  1  0.00000000  0.00000000  0.00000000  1
loop_
_geom_bond_atom_site_label_1
_geom_bond_atom_site_label_2
_geom_bond_distance
_geom_bond_site_symmetry_2
Zn0 Zr4 2.869942 1_554
Zn0 Zr2 2.869942 1_545
Zn0 Zr0 2.869942 1_455
Zn1 Zr5 2.869942 1_556
Zn1 Zr3 2.869942 1_565
Zn1 Zr1 2.869942 1_655
Zn2 Zr4 2.869942 1_555
Zn2 Zr1 2.869942 1_545
Zn2 Zr3 2.869942 1_455
Zn3 Zr2 2.869942 1_555
Zn3 Zr1 2.869942 1_554
Zn3 Zr5 2.869942 1_455
Zn4 Zr5 2.869942 1_555
Zn4 Zr0 2.869942 1_565
Zn4 Zr2 2.869942 1_655
Zn5 Zr3 2.869942 1_555
Zn5 Zr0 2.869942 1_556
Zn5 Zr4 2.869942 1_655
Zn6 Zr3 2.869942 1_554
Zn6 Zr0 2.869942 1_555
Zn6 Zr5 2.869942 1_545
Zn7 Zr2 2.869942 1_556
Zn7 Zr1 2.869942 1_555
Zn7 Zr4 2.869942 1_565
Te0 Zr1 2.813759 1_555
Te0 Zr0 2.813759 1_555
Te0 Zr3 2.813759 1_555
Te0 Zr2 2.813759 1_555
Te0 Zr5 2.813759 1_555
Te0 Zr4 2.813759 1_555
Pd0 Zn11 2.542053 1_545
Pd0 Zn13 2.542053 1_554
Pd0 Zn10 2.542053 1_554
Pd0 Zn12 2.542053 1_545
Pd0 Zn6 2.695114 1_555
Pd0 Zn7 2.695114 1_544
Pd0 Zn1 2.695114 1_544
Pd0 Zn0 2.695114 1_555
Pd0 Zr5 3.122414 1_545
Pd0 Zr4 3.122414 1_554
Pd0 Zr3 3.122414 1_554
Pd0 Zr2 3.122414 1_545
Pd1 Zn15 2.542030 1_555
Pd1 Zn14 2.542030 1_455
Pd1 Zn8 2.542047 1_555
Pd1 Zn9 2.542047 1_455
Pd1 Zn5 2.695114 1_455
Pd1 Zn3 2.695114 1_555
Pd1 Zn4 2.695114 1_455
Pd1 Zn2 2.695114 1_555
Pd1 Zr4 3.122414 1_555
Pd1 Zr5 3.122414 1_455
Pd1 Zr2 3.122414 1_555
Pd1 Zr3 3.122414 1_455
Pd2 Zn14 2.542053 1_455
Pd2 Zn15 2.542053 1_554
Pd2 Zn10 2.542053 1_554
Pd2 Zn12 2.542053 1_455
Pd2 Zn3 2.695114 1_555
Pd2 Zn5 2.695114 1_454
Pd2 Zn1 2.695114 1_454
Pd2 Zn0 2.695114 1_555
Pd2 Zr5 3.122414 1_455
Pd2 Zr4 3.122414 1_554
Pd2 Zr1 3.122414 1_554
Pd2 Zr0 3.122414 1_455
Pd3 Zn13 2.542030 1_555
Pd3 Zn11 2.542030 1_545
Pd3 Zn8 2.542047 1_555
Pd3 Zn9 2.542047 1_545
Pd3 Zn7 2.695114 1_545
Pd3 Zn6 2.695114 1_555
Pd3 Zn4 2.695114 1_545
Pd3 Zn2 2.695114 1_555
Pd3 Zr4 3.122414 1_555
Pd3 Zr5 3.122414 1_545
Pd3 Zr0 3.122414 1_555
Pd3 Zr1 3.122414 1_545
Pd4 Zn14 2.542053 1_455
Pd4 Zn15 2.542053 1_545
Pd4 Zn11 2.542053 1_545
Pd4 Zn13 2.542053 1_455
Pd4 Zn2 2.695114 1_555
Pd4 Zn1 2.695114 1_445
Pd4 Zn0 2.695114 1_555
Pd4 Zn4 2.695114 1_445
Pd4 Zr1 3.122414 1_545
Pd4 Zr0 3.122414 1_455
Pd4 Zr3 3.122414 1_455
Pd4 Zr2 3.122414 1_545
Pd5 Zn12 2.542030 1_555
Pd5 Zn10 2.542030 1_554
Pd5 Zn8 2.542047 1_555
Pd5 Zn9 2.542047 1_554
Pd5 Zn7 2.695114 1_554
Pd5 Zn6 2.695114 1_555
Pd5 Zn5 2.695114 1_554
Pd5 Zn3 2.695114 1_555
Pd5 Zr2 3.122414 1_555
Pd5 Zr3 3.122414 1_554
Pd5 Zr0 3.122414 1_555
Pd5 Zr1 3.122414 1_554
Pd6 Zn0 2.682770 1_555
Pd6 Zn4 2.682770 1_445
Pd6 Zn2 2.682770 1_554
Pd6 Zn1 2.682770 1_444
Pd6 Zn5 2.682770 1_454
Pd6 Zn3 2.682770 1_545
Pd6 Zn7 2.682770 1_544
Pd6 Zn6 2.682770 1_455
