# generated using pymatgen
data_Hf16Rh5Au3N4
_symmetry_space_group_name_H-M   'P 1'
_cell_length_a   8.70225089
_cell_length_b   8.70225059
_cell_length_c   8.70225238
_cell_angle_alpha   60.15885384
_cell_angle_beta   60.15885620
_cell_angle_gamma   60.15885463
_symmetry_Int_Tables_number   1
_chemical_formula_structural   Hf16Rh5Au3N4
_chemical_formula_sum   'Hf16 Rh5 Au3 N4'
_cell_volume   467.67015413
_cell_formula_units_Z   1
loop_
 _symmetry_equiv_pos_site_id
 _symmetry_equiv_pos_as_xyz
  1  'x, y, z'
loop_
 _atom_site_type_symbol
 _atom_site_label
 _atom_site_symmetry_multiplicity
 _atom_site_fract_x
 _atom_site_fract_y
 _atom_site_fract_z
 _atom_site_occupancy
  Hf  Hf0  1  0.10716331  0.62875345  0.62875345  1
  Hf  Hf1  1  0.62875345  0.10716331  0.62875345  1
  Hf  Hf2  1  0.62875345  0.62875345  0.10716331  1
  Hf  Hf3  1  0.63372111  0.63372111  0.63372111  1
  Hf  Hf4  1  0.81807079  0.81807079  0.18113972  1
  Hf  Hf5  1  0.18153078  0.18153078  0.81783547  1
  Hf  Hf6  1  0.81807079  0.18113972  0.81807079  1
  Hf  Hf7  1  0.18153078  0.81783547  0.18153078  1
  Hf  Hf8  1  0.18113972  0.81807079  0.81807079  1
  Hf  Hf9  1  0.81783547  0.18153078  0.18153078  1
  Hf  Hf10  1  0.43300922  0.43300922  0.07354986  1
  Hf  Hf11  1  0.06682822  0.06682822  0.43350431  1
  Hf  Hf12  1  0.43300922  0.07354986  0.43300922  1
  Hf  Hf13  1  0.06682822  0.43350431  0.06682822  1
  Hf  Hf14  1  0.07354986  0.43300922  0.43300922  1
  Hf  Hf15  1  0.43350431  0.06682822  0.06682822  1
  Rh  Rh0  1  0.40706115  0.40706115  0.40706115  1
  Rh  Rh1  1  0.46391242  0.84623589  0.84623589  1
  Rh  Rh2  1  0.84623589  0.46391242  0.84623589  1
  Rh  Rh3  1  0.84623589  0.84623589  0.46391242  1
  Rh  Rh4  1  0.84336660  0.84336660  0.84336660  1
  Au  Au0  1  0.76845892  0.41094906  0.41094906  1
  Au  Au1  1  0.41094906  0.76845892  0.41094906  1
  Au  Au2  1  0.41094906  0.41094906  0.76845892  1
  N  N0  1  0.62364225  0.12499909  0.12499909  1
  N  N1  1  0.12499909  0.62364225  0.12499909  1
  N  N2  1  0.12499909  0.12499909  0.62364225  1
  N  N3  1  0.12589186  0.12589186  0.12589186  1
loop_
_geom_bond_atom_site_label_1
_geom_bond_atom_site_label_2
_geom_bond_distance
_geom_bond_site_symmetry_2
Hf0 Rh2 2.656781 1_455
Hf0 Rh3 2.656782 1_455
Hf0 Rh4 2.680229 1_455
Hf0 Rh0 2.817352 1_555
Hf1 Rh1 2.656781 1_545
Hf1 Rh3 2.656782 1_545
Hf1 Rh4 2.680229 1_545
Hf1 Rh0 2.817352 1_555
Hf2 Rh1 2.656782 1_554
Hf2 Rh2 2.656782 1_554
Hf2 Rh4 2.680229 1_554
Hf2 Rh0 2.817352 1_555
Hf3 Rh3 2.643518 1_555
Hf3 Rh2 2.643518 1_555
Hf3 Rh1 2.643518 1_555
Hf4 N0 2.293913 1_565
Hf4 N1 2.293913 1_655
Hf4 Rh3 2.726855 1_555
Hf4 Rh4 2.738112 1_554
Hf5 N2 2.288109 1_555
Hf5 N3 2.303318 1_556
Hf5 Rh1 2.713749 1_545
Hf5 Rh2 2.713749 1_455
Hf6 N2 2.293913 1_655
Hf6 N0 2.293913 1_556
Hf6 Rh2 2.726854 1_555
Hf6 Rh4 2.738111 1_545
Hf7 N1 2.288109 1_555
Hf7 N3 2.303317 1_565
Hf7 Rh3 2.713750 1_455
Hf7 Rh1 2.713750 1_554
Hf8 N2 2.293913 1_565
Hf8 N1 2.293913 1_556
Hf8 Rh1 2.726854 1_555
Hf8 Rh4 2.738111 1_455
Hf9 N0 2.288109 1_555
Hf9 N3 2.303317 1_655
Hf9 Rh3 2.713750 1_545
Hf9 Rh2 2.713750 1_554
Hf10 N0 2.292734 1_555
Hf10 N1 2.292735 1_555
Hf10 Rh0 2.696599 1_555
Hf11 N2 2.274310 1_555
Hf11 N3 2.284427 1_555
Hf12 N2 2.292735 1_555
Hf12 N0 2.292735 1_555
Hf12 Rh0 2.696598 1_555
Hf13 N1 2.274309 1_555
Hf13 N3 2.284426 1_555
Hf14 N2 2.292735 1_555
Hf14 N1 2.292735 1_555
Hf14 Rh0 2.696598 1_555
Hf15 N0 2.274310 1_555
Hf15 N3 2.284426 1_555
Au0 Hf11 2.816405 1_655
Au0 Hf13 2.816406 1_655
Au0 Hf1 2.824529 1_555
Au0 Hf2 2.824529 1_555
Au0 Hf3 2.847310 1_555
Au0 Hf14 2.858979 1_655
Au1 Hf11 2.816405 1_565
Au1 Hf15 2.816406 1_565
Au1 Hf0 2.824529 1_555
Au1 Hf2 2.824529 1_555
Au1 Hf3 2.847310 1_555
Au1 Hf12 2.858979 1_565
Au2 Hf15 2.816406 1_556
Au2 Hf13 2.816406 1_556
Au2 Hf1 2.824529 1_555
Au2 Hf0 2.824529 1_555
Au2 Hf3 2.847309 1_555
Au2 Hf10 2.858979 1_556
