# generated using pymatgen
data_CsCd12Ag
_symmetry_space_group_name_H-M   'P 1'
_cell_length_a   9.82326961
_cell_length_b   9.82326836
_cell_length_c   9.82326996
_cell_angle_alpha   59.99999779
_cell_angle_beta   60.00000199
_cell_angle_gamma   59.99999529
_symmetry_Int_Tables_number   1
_chemical_formula_structural   CsCd12Ag
_chemical_formula_sum   'Cs2 Cd24 Ag2'
_cell_volume   670.27518006
_cell_formula_units_Z   2
loop_
 _symmetry_equiv_pos_site_id
 _symmetry_equiv_pos_as_xyz
  1  'x, y, z'
loop_
 _atom_site_type_symbol
 _atom_site_label
 _atom_site_symmetry_multiplicity
 _atom_site_fract_x
 _atom_site_fract_y
 _atom_site_fract_z
 _atom_site_occupancy
  Cs  Cs0  1  0.25000000  0.25000000  0.25000000  1
  Cs  Cs1  1  0.75000000  0.75000000  0.75000000  1
  Cd  Cd0  1  0.44119878  0.20197973  0.79802027  1
  Cd  Cd1  1  0.94119878  0.70197973  0.05880122  1
  Cd  Cd2  1  0.70197973  0.94119878  0.29802027  1
  Cd  Cd3  1  0.29802027  0.70197973  0.94119878  1
  Cd  Cd4  1  0.94119878  0.05880122  0.29802027  1
  Cd  Cd5  1  0.70197973  0.05880122  0.94119878  1
  Cd  Cd6  1  0.29802027  0.94119878  0.05880122  1
  Cd  Cd7  1  0.79802027  0.44119878  0.20197973  1
  Cd  Cd8  1  0.20197973  0.79802027  0.44119878  1
  Cd  Cd9  1  0.44119878  0.55880122  0.20197973  1
  Cd  Cd10  1  0.44119878  0.79802027  0.55880122  1
  Cd  Cd11  1  0.20197973  0.55880122  0.79802027  1
  Cd  Cd12  1  0.55880122  0.44119878  0.79802027  1
  Cd  Cd13  1  0.55880122  0.20197973  0.44119878  1
  Cd  Cd14  1  0.79802027  0.20197973  0.55880122  1
  Cd  Cd15  1  0.05880122  0.94119878  0.70197973  1
  Cd  Cd16  1  0.05880122  0.29802027  0.94119878  1
  Cd  Cd17  1  0.94119878  0.29802027  0.70197973  1
  Cd  Cd18  1  0.05880122  0.70197973  0.29802027  1
  Cd  Cd19  1  0.29802027  0.05880122  0.70197973  1
  Cd  Cd20  1  0.70197973  0.29802027  0.05880122  1
  Cd  Cd21  1  0.20197973  0.44119878  0.55880122  1
  Cd  Cd22  1  0.79802027  0.55880122  0.44119878  1
  Cd  Cd23  1  0.55880122  0.79802027  0.20197973  1
  Ag  Ag0  1  0.00000000  0.00000000  0.00000000  1
  Ag  Ag1  1  0.50000000  0.50000000  0.50000000  1
loop_
_geom_bond_atom_site_label_1
_geom_bond_atom_site_label_2
_geom_bond_distance
_geom_bond_site_symmetry_2
Cd0 Cd6 2.922431 1_546
Cd0 Cd5 2.922432 1_555
Cd0 Cd19 3.078712 1_555
Cd0 Cd16 3.078712 1_555
Cd0 Cd11 3.093765 1_555
Cd0 Cd12 3.093766 1_555
Cd0 Cd14 3.093766 1_555
Cd0 Cd13 3.093766 1_555
Cd0 Cd21 3.323279 1_555
Cd0 Cs1 4.041333 1_545
Cd0 Cs0 4.041334 1_556
Cd1 Cd7 2.922431 1_555
Cd1 Cd11 2.922432 1_654
Cd1 Cd23 3.078712 1_555
Cd1 Cd22 3.078713 1_555
Cd1 Cd5 3.093765 1_564
Cd1 Cd15 3.093766 1_654
Cd1 Cd3 3.093766 1_654
Cd1 Cd18 3.093766 1_655
Cd1 Cd2 3.323279 1_555
Cd1 Cs0 4.041334 1_655
Cd1 Cs1 4.041334 1_554
Cd2 Cd22 3.078712 1_555
Cd2 Cd23 3.078712 1_555
Cd2 Cd20 3.093765 1_565
Cd2 Cd4 3.093766 1_565
Cd2 Cd5 3.093766 1_564
Cd2 Cs0 4.041334 1_565
Cd2 Cs1 4.041334 1_555
Cd3 Cd9 2.922432 1_556
Cd3 Cd6 3.093766 1_556
Cd3 Cs0 4.041334 1_556
Cd3 Cs1 4.041334 1_555
Cd4 Cd8 2.922431 1_645
Cd4 Cd7 3.078712 1_555
Cd4 Cd6 3.093766 1_645
Cd4 Cs0 4.041334 1_655
Cd4 Cs1 4.041334 1_545
Cd5 Cs1 4.041334 1_545
Cd5 Cs0 4.041334 1_556
Cd6 Cd9 3.078712 1_555
Cd6 Cd8 3.078713 1_555
Cd6 Cs0 4.041334 1_565
Cd6 Cs1 4.041334 1_554
Cd7 Cd9 3.093766 1_555
Cd7 Cs0 4.041334 1_655
Cd7 Cs1 4.041334 1_554
Cd8 Cd9 3.323279 1_555
Cd8 Cs0 4.041334 1_565
Cd8 Cs1 4.041334 1_455
Cd9 Cs0 4.041334 1_555
Cd9 Cs1 4.041334 1_554
Cd10 Cd19 2.922431 1_565
Cd10 Cd2 2.922432 1_555
Cd10 Cd15 3.078712 1_555
Cd10 Cd3 3.078713 1_555
Cd10 Cd12 3.093765 1_555
Cd10 Cd22 3.093766 1_555
Cd10 Cd8 3.093766 1_555
Cd10 Cd23 3.093766 1_555
Cd10 Cd11 3.323279 1_555
Cd10 Cs0 4.041334 1_565
Cd10 Cs1 4.041334 1_555
Cd11 Cd16 2.922431 1_555
Cd11 Cd15 3.078712 1_555
Cd11 Cd3 3.078712 1_555
Cd11 Cd12 3.093766 1_555
Cd11 Cd8 3.093766 1_555
Cd11 Cd21 3.093766 1_555
Cd11 Cs1 4.041334 1_455
Cd11 Cs0 4.041334 1_556
Cd12 Cd3 2.922431 1_555
Cd12 Cd20 2.922432 1_556
Cd12 Cd5 3.078712 1_555
Cd12 Cd17 3.078712 1_555
Cd12 Cd22 3.093766 1_555
Cd12 Cd14 3.323279 1_555
Cd12 Cs1 4.041334 1_555
Cd12 Cs0 4.041334 1_556
Cd13 Cd2 2.922431 1_545
Cd13 Cd19 2.922432 1_555
Cd13 Cd4 3.078712 1_555
Cd13 Cd20 3.078713 1_555
Cd13 Cd9 3.093765 1_555
Cd13 Cd21 3.093766 1_555
Cd13 Cd14 3.093766 1_555
Cd13 Cd7 3.323279 1_555
Cd13 Cs1 4.041334 1_545
Cd13 Cs0 4.041334 1_555
Cd14 Cd15 2.922431 1_645
Cd14 Cd4 2.922432 1_555
Cd14 Cd17 3.078712 1_555
Cd14 Cd5 3.078713 1_555
Cd14 Cd22 3.093765 1_555
Cd14 Cd7 3.093766 1_555
Cd14 Cs1 4.041334 1_545
Cd14 Cs0 4.041334 1_655
Cd15 Cd8 2.922432 1_555
Cd15 Cd17 3.093765 1_465
Cd15 Cd19 3.093766 1_565
Cd15 Cd5 3.093766 1_465
Cd15 Cd3 3.323279 1_555
Cd15 Cs1 4.041334 1_455
Cd15 Cs0 4.041334 1_565
Cd16 Cd7 2.922432 1_456
Cd16 Cd21 3.078713 1_555
Cd16 Cd6 3.093765 1_546
Cd16 Cd4 3.093766 1_456
Cd16 Cd20 3.093766 1_456
Cd16 Cd17 3.093766 1_455
Cd16 Cd19 3.323279 1_555
Cd16 Cs1 4.041334 1_455
Cd16 Cs0 4.041334 1_556
Cd17 Cd22 2.922431 1_555
Cd17 Cd21 2.922432 1_655
Cd17 Cd19 3.093766 1_655
Cd17 Cd20 3.093766 1_556
Cd17 Cd5 3.323279 1_555
Cd17 Cs1 4.041333 1_555
Cd17 Cs0 4.041334 1_655
Cd18 Cd21 2.922431 1_555
Cd18 Cd22 2.922432 1_455
Cd18 Cd9 3.078712 1_555
Cd18 Cd8 3.078712 1_555
Cd18 Cd4 3.093765 1_465
Cd18 Cd2 3.093766 1_455
Cd18 Cd3 3.093766 1_554
Cd18 Cd6 3.323279 1_555
Cd18 Cs0 4.041333 1_555
Cd18 Cs1 4.041334 1_455
Cd19 Cd21 3.078712 1_555
Cd19 Cd3 3.093765 1_545
Cd19 Cd6 3.093766 1_546
Cd19 Cs1 4.041334 1_545
Cd19 Cs0 4.041334 1_555
Cd20 Cd9 2.922431 1_555
Cd20 Cd7 3.078712 1_555
Cd20 Cd5 3.093766 1_554
Cd20 Cd4 3.323279 1_555
Cd20 Cs1 4.041334 1_554
Cd20 Cs0 4.041334 1_555
Cd21 Cd8 3.093765 1_555
Cd21 Cd9 3.093766 1_555
Cd21 Cs1 4.041334 1_455
Cd21 Cs0 4.041334 1_555
Cd22 Cd7 3.093766 1_555
Cd22 Cd23 3.323279 1_555
Cd22 Cs0 4.041334 1_655
Cd22 Cs1 4.041334 1_555
Cd23 Cd5 2.922431 1_564
Cd23 Cd6 2.922432 1_555
Cd23 Cd7 3.093765 1_555
Cd23 Cd9 3.093766 1_555
Cd23 Cd8 3.093766 1_555
Cd23 Cs0 4.041333 1_565
Cd23 Cs1 4.041334 1_554
Ag0 Cd20 2.983973 1_455
Ag0 Cd3 2.983973 1_544
Ag0 Cd16 2.983973 1_554
Ag0 Cd1 2.983973 1_445
Ag0 Cd17 2.983973 1_454
Ag0 Cd18 2.983973 1_545
Ag0 Cd6 2.983973 1_545
Ag0 Cd5 2.983973 1_454
Ag0 Cd4 2.983973 1_455
Ag0 Cd15 2.983973 1_544
Ag0 Cd2 2.983974 1_445
Ag0 Cd19 2.983974 1_554
Ag1 Cd14 2.983973 1_555
Ag1 Cd8 2.983973 1_555
Ag1 Cd10 2.983973 1_555
Ag1 Cd13 2.983973 1_555
Ag1 Cd0 2.983973 1_555
Ag1 Cd23 2.983973 1_555
Ag1 Cd22 2.983973 1_555
Ag1 Cd21 2.983973 1_555
Ag1 Cd12 2.983973 1_555
Ag1 Cd9 2.983973 1_555
Ag1 Cd11 2.983974 1_555
Ag1 Cd7 2.983974 1_555
