# generated using pymatgen
data_Cs2Ni2PdSe4
_symmetry_space_group_name_H-M   'P 1'
_cell_length_a   9.14296415
_cell_length_b   8.06696490
_cell_length_c   6.13467599
_cell_angle_alpha   78.86387418
_cell_angle_beta   59.96283686
_cell_angle_gamma   42.65999797
_symmetry_Int_Tables_number   1
_chemical_formula_structural   Cs2Ni2PdSe4
_chemical_formula_sum   'Cs2 Ni2 Pd1 Se4'
_cell_volume   253.35525755
_cell_formula_units_Z   1
loop_
 _symmetry_equiv_pos_site_id
 _symmetry_equiv_pos_as_xyz
  1  'x, y, z'
loop_
 _atom_site_type_symbol
 _atom_site_label
 _atom_site_symmetry_multiplicity
 _atom_site_fract_x
 _atom_site_fract_y
 _atom_site_fract_z
 _atom_site_occupancy
  Cs  Cs0  1  0.34305730  0.34305730  0.65694270  1
  Cs  Cs1  1  0.65694270  0.65694270  0.34305730  1
  Ni  Ni0  1  0.00000000  0.00000000  0.50000000  1
  Ni  Ni1  1  0.00000000  0.00000000  0.00000000  1
  Pd  Pd0  1  0.50000000  0.50000000  0.00000000  1
  Se  Se0  1  0.95210324  0.25561191  0.72140328  1
  Se  Se1  1  0.04789676  0.74438809  0.27859672  1
  Se  Se2  1  0.74438809  0.04789676  0.92911843  1
  Se  Se3  1  0.25561191  0.95210324  0.07088157  1
loop_
_geom_bond_atom_site_label_1
_geom_bond_atom_site_label_2
_geom_bond_distance
_geom_bond_site_symmetry_2
Cs0 Se2 3.697209 1_555
Cs0 Se1 3.697209 1_555
Cs0 Se1 3.717722 1_645
Cs0 Se2 3.717722 1_465
Cs0 Se2 3.731510 1_554
Cs0 Se1 3.731510 1_556
Cs0 Se0 3.951786 1_455
Cs0 Se3 3.951786 1_546
Cs1 Se3 3.697209 1_555
Cs1 Se0 3.697209 1_555
Cs1 Se0 3.717722 1_465
Cs1 Se3 3.717722 1_645
Cs1 Se3 3.731510 1_556
Cs1 Se0 3.731510 1_554
Cs1 Se1 3.951786 1_655
Cs1 Se2 3.951786 1_564
Ni0 Se3 2.333832 1_545
Ni0 Se2 2.333832 1_455
Ni0 Se0 2.333832 1_455
Ni0 Se1 2.333832 1_545
Ni1 Se3 2.329067 1_545
Ni1 Se2 2.329067 1_454
Ni1 Se0 2.329067 1_454
Ni1 Se1 2.329067 1_545
Pd0 Se0 2.477371 1_554
Pd0 Se1 2.477371 1_555
Pd0 Se3 2.477371 1_555
Pd0 Se2 2.477371 1_554
