# generated using pymatgen
data_LiPd3Pt4
_symmetry_space_group_name_H-M   'P 1'
_cell_length_a   5.52781187
_cell_length_b   5.47528583
_cell_length_c   5.47528586
_cell_angle_alpha   59.99999980
_cell_angle_beta   60.31383340
_cell_angle_gamma   60.31384506
_symmetry_Int_Tables_number   1
_chemical_formula_structural   LiPd3Pt4
_chemical_formula_sum   'Li1 Pd3 Pt4'
_cell_volume   117.73234563
_cell_formula_units_Z   1
loop_
 _symmetry_equiv_pos_site_id
 _symmetry_equiv_pos_as_xyz
  1  'x, y, z'
loop_
 _atom_site_type_symbol
 _atom_site_label
 _atom_site_symmetry_multiplicity
 _atom_site_fract_x
 _atom_site_fract_y
 _atom_site_fract_z
 _atom_site_occupancy
  Li  Li0  1  0.00000000  0.00000000  0.00000000  1
  Pd  Pd0  1  0.00000000  0.00000000  0.50000000  1
  Pd  Pd1  1  0.00000000  0.50000000  0.50000000  1
  Pd  Pd2  1  0.00000000  0.50000000  0.00000000  1
  Pt  Pt0  1  0.50000000  0.50000000  0.50000000  1
  Pt  Pt1  1  0.50000000  0.00000000  0.50000000  1
  Pt  Pt2  1  0.50000000  0.50000000  0.00000000  1
  Pt  Pt3  1  0.50000000  0.00000000  0.00000000  1
loop_
_geom_bond_atom_site_label_1
_geom_bond_atom_site_label_2
_geom_bond_distance
_geom_bond_site_symmetry_2
Li0 Pd1 2.737643 1_554
Li0 Pd2 2.737643 1_555
Li0 Pd2 2.737643 1_545
Li0 Pd1 2.737643 1_545
Li0 Pd0 2.737643 1_555
Li0 Pd0 2.737643 1_554
Li0 Pt1 2.763906 1_554
Li0 Pt3 2.763906 1_455
Li0 Pt3 2.763906 1_555
Li0 Pt1 2.763906 1_455
Li0 Pt2 2.763906 1_455
Li0 Pt2 2.763906 1_545
Pd0 Pd2 2.737643 1_546
Pd0 Pd1 2.737643 1_555
Pd0 Pd2 2.737643 1_555
Pd0 Pd1 2.737643 1_545
Pd0 Pt1 2.763906 1_555
Pd0 Pt3 2.763906 1_555
Pd0 Pt1 2.763906 1_455
Pd0 Pt3 2.763906 1_456
Pd0 Pt0 2.763906 1_545
Pd0 Pt0 2.763906 1_455
Pd1 Pd2 2.737643 1_555
Pd1 Pd2 2.737643 1_556
Pd1 Pt2 2.763906 1_456
Pd1 Pt0 2.763906 1_455
Pd1 Pt2 2.763906 1_555
Pd1 Pt0 2.763906 1_555
Pd1 Pt1 2.763906 1_465
Pd1 Pt1 2.763906 1_555
Pd2 Pt2 2.763906 1_455
Pd2 Pt0 2.763906 1_455
Pd2 Pt2 2.763906 1_555
Pd2 Pt0 2.763906 1_554
Pd2 Pt3 2.763906 1_555
Pd2 Pt3 2.763906 1_465
Pt0 Pt1 2.737643 1_565
Pt0 Pt3 2.737643 1_556
Pt0 Pt3 2.737643 1_565
Pt0 Pt1 2.737643 1_555
Pt0 Pt2 2.737643 1_555
Pt0 Pt2 2.737643 1_556
Pt1 Pt2 2.737643 1_555
Pt1 Pt2 2.737643 1_546
Pt1 Pt3 2.737643 1_555
Pt1 Pt3 2.737643 1_556
Pt2 Pt3 2.737643 1_555
Pt2 Pt3 2.737643 1_565
