# generated using pymatgen
data_NbTcMoSe6
_symmetry_space_group_name_H-M   'P 1'
_cell_length_a   5.80251138
_cell_length_b   5.80241489
_cell_length_c   7.06509421
_cell_angle_alpha   82.08776277
_cell_angle_beta   82.19623421
_cell_angle_gamma   120.02116695
_symmetry_Int_Tables_number   1
_chemical_formula_structural   NbTcMoSe6
_chemical_formula_sum   'Nb1 Tc1 Mo1 Se6'
_cell_volume   198.10461216
_cell_formula_units_Z   1
loop_
 _symmetry_equiv_pos_site_id
 _symmetry_equiv_pos_as_xyz
  1  'x, y, z'
loop_
 _atom_site_type_symbol
 _atom_site_label
 _atom_site_symmetry_multiplicity
 _atom_site_fract_x
 _atom_site_fract_y
 _atom_site_fract_z
 _atom_site_occupancy
  Nb  Nb0  1  0.49984589  0.83339834  0.49997184  1
  Tc  Tc0  1  0.83312392  0.49974182  0.49994595  1
  Mo  Mo0  1  0.16689723  0.16672851  0.50003337  1
  Se  Se0  1  0.58353820  0.25830237  0.25683687  1
  Se  Se1  1  0.23695819  0.57346968  0.25673256  1
  Se  Se2  1  0.92192468  0.91184788  0.25687828  1
  Se  Se3  1  0.76024556  0.74930336  0.74311956  1
  Se  Se4  1  0.42232529  0.09619099  0.74351242  1
  Se  Se5  1  0.07504304  0.41092205  0.74326714  1
loop_
_geom_bond_atom_site_label_1
_geom_bond_atom_site_label_2
_geom_bond_distance
_geom_bond_site_symmetry_2
Nb0 Se0 2.583512 1_565
Nb0 Se1 2.584220 1_555
Nb0 Se2 2.584968 1_555
Nb0 Se5 2.585100 1_555
Nb0 Se3 2.585351 1_555
Nb0 Se4 2.585830 1_565
Mo0 Se0 2.532667 1_555
Mo0 Se2 2.533381 1_445
Mo0 Se3 2.533617 1_445
Mo0 Se5 2.534199 1_555
Mo0 Se1 2.534421 1_555
Mo0 Se4 2.535514 1_555
Se0 Tc0 2.513538 1_555
Se1 Tc0 2.515470 1_455
Se2 Tc0 2.515701 1_555
Se3 Tc0 2.515503 1_555
Se4 Tc0 2.513500 1_555
Se5 Tc0 2.515284 1_455
