# generated using pymatgen
data_Sr6Li7In9N
_symmetry_space_group_name_H-M   'P 1'
_cell_length_a   9.09748412
_cell_length_b   9.06627588
_cell_length_c   9.06627602
_cell_angle_alpha   109.23143986
_cell_angle_beta   109.52130059
_cell_angle_gamma   109.52130612
_symmetry_Int_Tables_number   1
_chemical_formula_structural   Sr6Li7In9N
_chemical_formula_sum   'Sr6 Li7 In9 N1'
_cell_volume   576.63441845
_cell_formula_units_Z   1
loop_
 _symmetry_equiv_pos_site_id
 _symmetry_equiv_pos_as_xyz
  1  'x, y, z'
loop_
 _atom_site_type_symbol
 _atom_site_label
 _atom_site_symmetry_multiplicity
 _atom_site_fract_x
 _atom_site_fract_y
 _atom_site_fract_z
 _atom_site_occupancy
  Sr  Sr0  1  0.99867458  0.24640904  0.24640904  1
  Sr  Sr1  1  0.24326959  0.99826585  0.24500373  1
  Sr  Sr2  1  0.75104475  0.99883068  0.75221306  1
  Sr  Sr3  1  0.75104475  0.75221306  0.99883068  1
  Sr  Sr4  1  0.24326959  0.24500373  0.99826585  1
  Sr  Sr5  1  0.99867458  0.75226554  0.75226554  1
  Li  Li0  1  0.66518278  0.33259139  0.33259139  1
  Li  Li1  1  0.34594089  0.00760682  0.66777922  1
  Li  Li2  1  0.34594089  0.67816167  0.33833507  1
  Li  Li3  1  0.34594089  0.33833507  0.67816167  1
  Li  Li4  1  0.34594089  0.66777922  0.00760682  1
  Li  Li5  1  0.00264157  0.34151331  0.66112826  1
  Li  Li6  1  0.00264157  0.66112826  0.34151331  1
  In  In0  1  0.49192956  0.49338559  0.49338559  1
  In  In1  1  0.49192956  0.99854398  0.99854398  1
  In  In2  1  0.01110509  0.50555204  0.00555204  1
  In  In3  1  0.01110509  0.00555204  0.50555204  1
  In  In4  1  0.66427029  0.65778747  0.31741938  1
  In  In5  1  0.66427029  0.00648183  0.34685091  1
  In  In6  1  0.66427029  0.34685091  0.00648183  1
  In  In7  1  0.66427029  0.31741938  0.65778747  1
  In  In8  1  0.30142810  0.65071255  0.65071255  1
  N  N0  1  0.99521410  0.99760655  0.99760655  1
loop_
_geom_bond_atom_site_label_1
_geom_bond_atom_site_label_2
_geom_bond_distance
_geom_bond_site_symmetry_2
In0 Li3 2.887381 1_555
In0 Li2 2.887381 1_555
In0 Li0 2.899296 1_555
In0 In4 2.983513 1_555
In0 In7 2.983514 1_555
In0 In8 3.006082 1_555
In1 Li4 2.887386 1_556
In1 Li1 2.887386 1_565
In1 Li0 2.899296 1_566
In1 In6 2.983518 1_566
In1 In5 2.983518 1_566
In1 In8 3.006110 1_555
In2 Li4 2.896978 1_555
In2 Li2 2.896987 1_555
In2 Li5 2.944837 1_554
In2 Li6 2.944846 1_555
In2 In6 3.002999 1_455
In2 In7 3.003001 1_454
In3 Li1 2.896979 1_555
In3 Li3 2.896986 1_555
In3 Li6 2.944837 1_545
In3 Li5 2.944846 1_555
In3 In5 3.003000 1_455
In3 In4 3.003001 1_445
In4 Li0 2.999054 1_555
In4 Li6 3.001444 1_655
In4 Li2 3.026272 1_555
In4 In5 3.083777 1_565
In4 In6 3.264774 1_555
In4 Li4 3.345329 1_555
In4 Sr3 3.521393 1_554
In4 Sr4 3.595537 1_554
In4 Sr5 3.681017 1_555
In4 Sr2 3.739280 1_555
In5 Li0 2.999063 1_555
In5 Li5 3.001447 1_655
In5 Li4 3.026266 1_545
In5 In7 3.264774 1_555
In5 Li2 3.345328 1_545
In5 Sr2 3.521384 1_545
In5 Sr1 3.595541 1_545
In5 Sr0 3.681020 1_555
In5 Sr3 3.739287 1_544
In6 Li0 2.999063 1_555
In6 Li6 3.001447 1_655
In6 Li1 3.026266 1_554
In6 In7 3.083777 1_554
In6 Li3 3.345329 1_554
In6 Sr3 3.521384 1_554
In6 Sr4 3.595541 1_554
In6 Sr0 3.681021 1_555
In6 Sr2 3.739287 1_544
In7 Li0 2.999054 1_555
In7 Li5 3.001444 1_655
In7 Li3 3.026272 1_555
In7 Li1 3.345329 1_555
In7 Sr2 3.521393 1_545
In7 Sr1 3.595537 1_545
In7 Sr5 3.681017 1_555
In7 Sr3 3.739280 1_555
In8 Li3 3.067594 1_555
In8 Li2 3.067594 1_555
In8 Li1 3.067621 1_565
In8 Li4 3.067621 1_556
In8 Li5 3.241822 1_555
In8 Li6 3.241822 1_555
In8 Sr0 3.480302 1_455
In8 Sr5 3.480325 1_455
In8 Sr2 3.805589 1_555
In8 Sr3 3.805589 1_555
N0 Sr3 2.571788 1_555
N0 Sr2 2.571788 1_555
N0 Sr4 2.592861 1_665
N0 Sr1 2.592861 1_656
N0 Sr5 2.594324 1_555
N0 Sr0 2.594334 1_566
