# generated using pymatgen
data_CsMg2CoH8
_symmetry_space_group_name_H-M   'P 1'
_cell_length_a   4.46120625
_cell_length_b   4.46120560
_cell_length_c   8.52795379
_cell_angle_alpha   90.00000000
_cell_angle_beta   90.00000000
_cell_angle_gamma   119.99999744
_symmetry_Int_Tables_number   1
_chemical_formula_structural   CsMg2CoH8
_chemical_formula_sum   'Cs1 Mg2 Co1 H8'
_cell_volume   146.98737090
_cell_formula_units_Z   1
loop_
 _symmetry_equiv_pos_site_id
 _symmetry_equiv_pos_as_xyz
  1  'x, y, z'
loop_
 _atom_site_type_symbol
 _atom_site_label
 _atom_site_symmetry_multiplicity
 _atom_site_fract_x
 _atom_site_fract_y
 _atom_site_fract_z
 _atom_site_occupancy
  Cs  Cs0  1  0.00000000  0.00000000  0.50000000  1
  Mg  Mg0  1  0.66666700  0.33333300  0.88563735  1
  Mg  Mg1  1  0.33333300  0.66666700  0.11436265  1
  Co  Co0  1  0.00000000  0.00000000  0.00000000  1
  H  H0  1  0.31316206  0.15658103  0.10636082  1
  H  H1  1  0.84341897  0.68683794  0.10636082  1
  H  H2  1  0.84341897  0.15658103  0.10636082  1
  H  H3  1  0.68683794  0.84341897  0.89363918  1
  H  H4  1  0.15658103  0.31316206  0.89363918  1
  H  H5  1  0.15658103  0.84341897  0.89363918  1
  H  H6  1  0.66666700  0.33333300  0.67540175  1
  H  H7  1  0.33333300  0.66666700  0.32459825  1
loop_
_geom_bond_atom_site_label_1
_geom_bond_atom_site_label_2
_geom_bond_distance
_geom_bond_site_symmetry_2
Cs0 H6 2.978519 1_455
Cs0 H7 2.978519 1_545
Cs0 H6 2.978523 1_445
Cs0 H7 2.978523 1_555
Cs0 H6 2.978523 1_555
Cs0 H7 2.978523 1_445
Co0 H1 1.512150 1_445
Co0 H4 1.512150 1_554
Co0 H2 1.512150 1_455
Co0 H5 1.512150 1_544
Co0 H0 1.512150 1_555
Co0 H3 1.512150 1_444
H0 Mg1 2.233004 1_545
H0 Mg1 2.233009 1_555
H0 Mg0 2.325610 1_554
H1 Mg1 2.233005 1_655
H1 Mg1 2.233009 1_555
H1 Mg0 2.325610 1_554
H2 Mg1 2.233007 1_655
H2 Mg1 2.233007 1_545
H2 Mg0 2.325608 1_554
H3 Mg0 2.233004 1_565
H3 Mg0 2.233009 1_555
H3 Mg1 2.325610 1_556
H4 Mg0 2.233005 1_455
H4 Mg0 2.233009 1_555
H4 Mg1 2.325610 1_556
H5 Mg0 2.233007 1_455
H5 Mg0 2.233007 1_565
H5 Mg1 2.325608 1_556
H6 Mg0 1.792879 1_555
H7 Mg1 1.792879 1_555
