# generated using pymatgen
data_Zr8Ni21
_symmetry_space_group_name_H-M   'P 1'
_cell_length_a   6.45119100
_cell_length_b   8.08198444
_cell_length_c   8.56679926
_cell_angle_alpha   75.35020407
_cell_angle_beta   68.02581060
_cell_angle_gamma   75.32519466
_symmetry_Int_Tables_number   1
_chemical_formula_structural   Zr8Ni21
_chemical_formula_sum   'Zr8 Ni21'
_cell_volume   394.42595205
_cell_formula_units_Z   1
loop_
 _symmetry_equiv_pos_site_id
 _symmetry_equiv_pos_as_xyz
  1  'x, y, z'
loop_
 _atom_site_type_symbol
 _atom_site_label
 _atom_site_symmetry_multiplicity
 _atom_site_fract_x
 _atom_site_fract_y
 _atom_site_fract_z
 _atom_site_occupancy
  Zr  Zr0  1  0.43302300  0.96234800  0.75253200  1
  Zr  Zr1  1  0.56697700  0.03765200  0.24746800  1
  Zr  Zr2  1  0.75263400  0.44029000  0.39270400  1
  Zr  Zr3  1  0.24736600  0.55971000  0.60729600  1
  Zr  Zr4  1  0.75166000  0.56345600  0.96618500  1
  Zr  Zr5  1  0.24834000  0.43654400  0.03381500  1
  Zr  Zr6  1  0.93062000  0.09556200  0.68552500  1
  Zr  Zr7  1  0.06938000  0.90443800  0.31447500  1
  Ni  Ni0  1  0.00000000  0.00000000  0.00000000  1
  Ni  Ni1  1  0.09801500  0.75942400  0.84751400  1
  Ni  Ni2  1  0.90198500  0.24057600  0.15248600  1
  Ni  Ni3  1  0.28667900  0.88535700  0.52977800  1
  Ni  Ni4  1  0.71332100  0.11464300  0.47022200  1
  Ni  Ni5  1  0.51528100  0.61730800  0.75567300  1
  Ni  Ni6  1  0.48471900  0.38269200  0.24432700  1
  Ni  Ni7  1  0.51528000  0.29219500  0.72572400  1
  Ni  Ni8  1  0.09923600  0.27976300  0.84584000  1
  Ni  Ni9  1  0.90076400  0.72023700  0.15416000  1
  Ni  Ni10  1  0.11913400  0.55517700  0.34854600  1
  Ni  Ni11  1  0.88086600  0.44482300  0.65145400  1
  Ni  Ni12  1  0.13624600  0.21273300  0.34241400  1
  Ni  Ni13  1  0.86375400  0.78726700  0.65758600  1
  Ni  Ni14  1  0.30339100  0.24530500  0.54142200  1
  Ni  Ni15  1  0.69660900  0.75469500  0.45857800  1
  Ni  Ni16  1  0.31642900  0.09885200  0.03575600  1
  Ni  Ni17  1  0.68357100  0.90114800  0.96424400  1
  Ni  Ni18  1  0.31757100  0.74384000  0.04803700  1
  Ni  Ni19  1  0.68242900  0.25616000  0.95196300  1
  Ni  Ni20  1  0.48472000  0.70780500  0.27427600  1
loop_
_geom_bond_atom_site_label_1
_geom_bond_atom_site_label_2
_geom_bond_distance
_geom_bond_site_symmetry_2
Ni0 Ni8 2.420028 1_554
Ni0 Ni9 2.420028 1_445
Ni0 Ni2 2.435237 1_455
Ni0 Ni1 2.435237 1_544
Ni0 Ni16 2.513411 1_555
Ni0 Ni17 2.513411 1_444
Ni0 Ni18 2.589144 1_545
Ni0 Ni19 2.589144 1_454
Ni0 Zr7 2.780198 1_545
Ni0 Zr6 2.780198 1_454
Ni0 Zr0 2.802548 1_544
Ni0 Zr1 2.802548 1_455
Ni1 Ni9 2.429449 1_456
Ni1 Ni13 2.542565 1_455
Ni1 Ni17 2.547008 1_455
Ni1 Ni5 2.547543 1_555
Ni1 Ni18 2.567899 1_556
Ni1 Ni3 2.583292 1_555
Ni1 Zr3 2.678970 1_555
Ni1 Zr4 2.795199 1_455
Ni1 Zr0 2.797740 1_555
Ni1 Zr5 2.840199 1_556
Ni1 Zr6 2.863632 1_465
Ni2 Ni8 2.429449 1_654
Ni2 Ni6 2.547543 1_555
Ni2 Ni4 2.583292 1_555
Ni2 Zr2 2.678970 1_555
Ni2 Zr5 2.795199 1_655
Ni2 Zr1 2.797740 1_555
Ni2 Zr4 2.840199 1_554
Ni2 Zr7 2.863632 1_645
Ni3 Zr3 2.600033 1_555
Ni3 Zr6 2.611207 1_465
Ni3 Zr1 2.642534 1_565
Ni3 Zr7 2.659431 1_555
Ni3 Zr0 2.677051 1_555
Ni4 Zr2 2.600033 1_555
Ni4 Zr7 2.611207 1_645
Ni4 Zr0 2.642534 1_545
Ni4 Ni7 2.655082 1_555
Ni4 Zr6 2.659431 1_555
Ni4 Zr1 2.677051 1_555
Ni5 Zr4 2.663068 1_555
Ni5 Zr3 2.677835 1_555
Ni5 Zr5 2.687117 1_556
Ni5 Zr0 2.698448 1_555
Ni5 Ni7 2.703867 1_555
Ni6 Zr5 2.663068 1_555
Ni6 Zr2 2.677835 1_555
Ni6 Zr4 2.687117 1_554
Ni6 Zr1 2.698448 1_555
Ni7 Ni8 2.508015 1_555
Ni7 Zr3 2.645841 1_555
Ni7 Zr6 2.693013 1_555
Ni7 Zr0 2.785101 1_545
Ni7 Zr2 2.801509 1_555
Ni7 Zr5 2.903592 1_556
Ni8 Zr3 2.739276 1_555
Ni8 Zr5 2.816536 1_556
Ni8 Zr4 2.865042 1_455
Ni8 Zr6 2.873743 1_455
Ni8 Zr0 2.967661 1_545
Ni9 Zr2 2.739276 1_555
Ni9 Zr4 2.816536 1_554
Ni9 Zr5 2.865042 1_655
Ni9 Zr7 2.873743 1_655
Ni9 Zr1 2.967661 1_565
Ni10 Ni6 2.385513 1_555
Ni10 Ni9 2.493406 1_455
Ni10 Ni11 2.535901 1_455
Ni10 Zr2 2.619298 1_455
Ni10 Zr3 2.651041 1_555
Ni10 Ni18 2.669894 1_555
Ni10 Zr7 2.711143 1_555
Ni10 Ni20 2.728152 1_555
Ni10 Ni15 2.745473 1_455
Ni10 Ni12 2.754833 1_555
Ni10 Zr5 2.846847 1_555
Ni10 Ni14 2.878114 1_555
Ni11 Ni5 2.385513 1_555
Ni11 Ni8 2.493406 1_655
Ni11 Zr3 2.619298 1_655
Ni11 Zr2 2.651041 1_555
Ni11 Ni19 2.669894 1_555
Ni11 Zr6 2.711143 1_555
Ni11 Ni7 2.728152 1_555
Ni11 Ni14 2.745473 1_655
Ni11 Ni13 2.754833 1_555
Ni11 Zr4 2.846847 1_555
Ni11 Ni15 2.878114 1_555
Ni12 Ni14 2.425931 1_555
Ni12 Ni2 2.542565 1_455
Ni12 Zr2 2.643712 1_455
Ni12 Ni6 2.685834 1_555
Ni12 Zr1 2.698833 1_555
Ni12 Zr7 2.715713 1_545
Ni12 Ni16 2.737784 1_555
Ni12 Zr5 2.756296 1_555
Ni12 Zr6 2.758038 1_455
Ni12 Ni4 2.773535 1_455
Ni12 Ni3 2.869726 1_545
Ni13 Ni15 2.425931 1_555
Ni13 Zr3 2.643712 1_655
Ni13 Ni5 2.685834 1_555
Ni13 Zr0 2.698833 1_555
Ni13 Zr6 2.715713 1_565
Ni13 Ni17 2.737784 1_555
Ni13 Zr4 2.756296 1_555
Ni13 Zr7 2.758038 1_655
Ni13 Ni3 2.773535 1_655
Ni13 Ni4 2.869726 1_565
Ni14 Ni6 2.465684 1_555
Ni14 Ni8 2.494857 1_555
Ni14 Ni7 2.585589 1_555
Ni14 Zr3 2.648251 1_555
Ni14 Zr6 2.696089 1_455
Ni14 Zr0 2.696438 1_545
Ni14 Zr1 3.088162 1_555
Ni15 Ni5 2.465684 1_555
Ni15 Ni9 2.494857 1_555
Ni15 Ni20 2.585589 1_555
Ni15 Zr2 2.648251 1_555
Ni15 Zr7 2.696089 1_655
Ni15 Zr1 2.696438 1_565
Ni15 Zr0 3.088162 1_555
Ni16 Ni17 2.455602 1_544
Ni16 Ni8 2.492559 1_554
Ni16 Ni2 2.547008 1_455
Ni16 Zr5 2.648958 1_555
Ni16 Zr7 2.689483 1_545
Ni16 Zr0 2.690287 1_544
Ni16 Zr1 2.735276 1_555
Ni16 Ni19 2.738154 1_554
Ni16 Ni7 2.740091 1_554
Ni16 Ni18 2.842643 1_545
Ni17 Ni9 2.492559 1_556
Ni17 Zr4 2.648958 1_555
Ni17 Zr6 2.689483 1_565
Ni17 Zr1 2.690287 1_566
Ni17 Zr0 2.735276 1_555
Ni17 Ni18 2.738154 1_556
Ni17 Ni20 2.740091 1_556
Ni17 Ni19 2.842643 1_565
Ni18 Ni20 2.474550 1_555
Ni18 Ni9 2.536889 1_455
Ni18 Zr0 2.660092 1_554
Ni18 Zr5 2.671736 1_555
Ni18 Zr7 2.677454 1_555
Ni18 Ni5 2.681359 1_554
Ni18 Zr4 2.727318 1_554
Ni19 Ni7 2.474550 1_555
Ni19 Ni8 2.536889 1_655
Ni19 Ni2 2.567899 1_556
Ni19 Zr1 2.660092 1_556
Ni19 Zr4 2.671736 1_555
Ni19 Zr6 2.677454 1_555
Ni19 Ni6 2.681359 1_556
Ni19 Zr5 2.727318 1_556
Ni20 Ni9 2.508015 1_555
Ni20 Zr2 2.645841 1_555
Ni20 Ni3 2.655082 1_555
Ni20 Zr7 2.693013 1_555
Ni20 Ni6 2.703867 1_555
Ni20 Zr1 2.785101 1_565
Ni20 Zr3 2.801509 1_555
Ni20 Zr4 2.903592 1_554
