# generated using pymatgen
data_Rb4Ga3FeBr16
_symmetry_space_group_name_H-M   'P 1'
_cell_length_a   7.52766725
_cell_length_b   9.94635386
_cell_length_c   11.83303387
_cell_angle_alpha   89.91846607
_cell_angle_beta   90.00000000
_cell_angle_gamma   90.00000000
_symmetry_Int_Tables_number   1
_chemical_formula_structural   Rb4Ga3FeBr16
_chemical_formula_sum   'Rb4 Ga3 Fe1 Br16'
_cell_volume   885.97198102
_cell_formula_units_Z   1
loop_
 _symmetry_equiv_pos_site_id
 _symmetry_equiv_pos_as_xyz
  1  'x, y, z'
loop_
 _atom_site_type_symbol
 _atom_site_label
 _atom_site_symmetry_multiplicity
 _atom_site_fract_x
 _atom_site_fract_y
 _atom_site_fract_z
 _atom_site_occupancy
  Rb  Rb0  1  0.25000000  0.66502322  0.18070001  1
  Rb  Rb1  1  0.75000000  0.33302819  0.81797458  1
  Rb  Rb2  1  0.75000000  0.16378165  0.31895647  1
  Rb  Rb3  1  0.25000000  0.83437355  0.68242331  1
  Ga  Ga0  1  0.25000000  0.19050577  0.06262717  1
  Ga  Ga1  1  0.75000000  0.80926957  0.93736864  1
  Ga  Ga2  1  0.75000000  0.69034056  0.43794146  1
  Fe  Fe0  1  0.25000000  0.31061732  0.56169877  1
  Br  Br0  1  0.25000000  0.40630549  0.38212966  1
  Br  Br1  1  0.75000000  0.59693649  0.61829384  1
  Br  Br2  1  0.75000000  0.90301353  0.11736311  1
  Br  Br3  1  0.25000000  0.09712467  0.88268927  1
  Br  Br4  1  0.25000000  0.03341183  0.20858719  1
  Br  Br5  1  0.75000000  0.96676852  0.79159964  1
  Br  Br6  1  0.75000000  0.53243174  0.29282892  1
  Br  Br7  1  0.25000000  0.46777640  0.70775564  1
  Br  Br8  1  0.99810631  0.32790786  0.08197343  1
  Br  Br9  1  0.00158339  0.67150231  0.91818866  1
  Br  Br10  1  0.00189531  0.82800652  0.41803754  1
  Br  Br11  1  0.49841661  0.67150231  0.91818866  1
  Br  Br12  1  0.99833983  0.17222956  0.58133102  1
  Br  Br13  1  0.50189369  0.32790786  0.08197343  1
  Br  Br14  1  0.50166017  0.17222956  0.58133102  1
  Br  Br15  1  0.49810469  0.82800652  0.41803754  1
loop_
_geom_bond_atom_site_label_1
_geom_bond_atom_site_label_2
_geom_bond_distance
_geom_bond_site_symmetry_2
Br0 Fe0 2.327025 1_555
Br0 Rb0 3.505081 1_555
Br1 Ga2 2.326350 1_555
Br1 Rb1 3.529241 1_555
Br2 Ga1 2.326249 1_554
Br2 Rb2 3.526368 1_565
Br3 Ga0 2.324186 1_556
Br3 Rb3 3.530340 1_545
Br4 Ga0 2.327404 1_555
Br4 Rb0 3.679420 1_545
Br5 Ga1 2.328433 1_555
Br5 Rb1 3.656735 1_565
Br6 Ga2 2.328738 1_555
Br6 Rb2 3.679297 1_555
Br7 Fe0 2.331987 1_555
Br7 Rb3 3.658180 1_555
Br8 Ga0 2.348722 1_655
Br8 Rb1 3.639931 1_554
Br8 Rb2 3.742158 1_555
Br8 Rb0 4.026718 1_655
Br9 Ga1 2.348762 1_455
Br9 Rb0 3.626239 1_556
Br9 Rb3 3.727122 1_555
Br10 Ga2 2.350528 1_455
Br10 Rb3 3.644189 1_555
Br10 Rb0 3.743827 1_555
Br10 Rb2 4.014077 1_465
Br11 Ga1 2.348762 1_555
Br11 Rb0 3.626239 1_556
Br11 Rb3 3.727122 1_555
Br12 Fe0 2.352974 1_655
Br12 Rb2 3.625136 1_555
Br12 Rb1 3.729157 1_555
Br13 Ga0 2.348722 1_555
Br13 Rb1 3.639931 1_554
Br13 Rb2 3.742158 1_555
Br13 Rb0 4.026718 1_555
Br14 Fe0 2.352974 1_555
Br14 Rb2 3.625136 1_555
Br14 Rb1 3.729157 1_555
Br15 Ga2 2.350528 1_555
Br15 Rb3 3.644189 1_555
Br15 Rb0 3.743827 1_555
Br15 Rb2 4.014077 1_565
