# generated using pymatgen
data_HfGa2Ni
_symmetry_space_group_name_H-M   'P 1'
_cell_length_a   9.60076897
_cell_length_b   9.60076897
_cell_length_c   9.60076897
_cell_angle_alpha   100.26644390
_cell_angle_beta   100.26644390
_cell_angle_gamma   130.05690290
_symmetry_Int_Tables_number   1
_chemical_formula_structural   HfGa2Ni
_chemical_formula_sum   'Hf10 Ga20 Ni10'
_cell_volume   614.02485387
_cell_formula_units_Z   10
loop_
 _symmetry_equiv_pos_site_id
 _symmetry_equiv_pos_as_xyz
  1  'x, y, z'
loop_
 _atom_site_type_symbol
 _atom_site_label
 _atom_site_symmetry_multiplicity
 _atom_site_fract_x
 _atom_site_fract_y
 _atom_site_fract_z
 _atom_site_occupancy
  Hf  Hf0  1  0.49073200  0.49073200  0.00000000  1
  Hf  Hf1  1  0.93415300  0.93415300  0.00000000  1
  Hf  Hf2  1  0.16112700  0.56714600  0.00000000  1
  Hf  Hf3  1  0.56714600  0.56714600  0.40601900  1
  Hf  Hf4  1  0.16112700  0.16112700  0.59398100  1
  Hf  Hf5  1  0.56714600  0.16112700  0.00000000  1
  Hf  Hf6  1  0.15839300  0.87192600  0.28646700  1
  Hf  Hf7  1  0.87192600  0.58546000  0.71353300  1
  Hf  Hf8  1  0.87192600  0.15839300  0.28646700  1
  Hf  Hf9  1  0.58546000  0.87192600  0.71353300  1
  Ga  Ga0  1  0.20441300  0.04522800  0.84081600  1
  Ga  Ga1  1  0.36359700  0.20441300  0.15918400  1
  Ga  Ga2  1  0.96913500  0.35161800  0.61751600  1
  Ga  Ga3  1  0.35161800  0.73410200  0.38248400  1
  Ga  Ga4  1  0.58071800  0.84495300  0.00000000  1
  Ga  Ga5  1  0.35161800  0.96913500  0.61751600  1
  Ga  Ga6  1  0.73410200  0.35161800  0.38248400  1
  Ga  Ga7  1  0.84495300  0.58071800  0.00000000  1
  Ga  Ga8  1  0.58071800  0.58071800  0.73576600  1
  Ga  Ga9  1  0.84495300  0.84495300  0.26423400  1
  Ga  Ga10  1  0.26431400  0.47379500  0.50652300  1
  Ga  Ga11  1  0.47379500  0.96727200  0.20948100  1
  Ga  Ga12  1  0.75779100  0.26431400  0.79051900  1
  Ga  Ga13  1  0.96727200  0.75779100  0.49347700  1
  Ga  Ga14  1  0.75779100  0.96727200  0.49347700  1
  Ga  Ga15  1  0.47379500  0.26431400  0.50652300  1
  Ga  Ga16  1  0.26431400  0.75779100  0.79051900  1
  Ga  Ga17  1  0.96727200  0.47379500  0.20948100  1
  Ga  Ga18  1  0.04522800  0.20441300  0.84081600  1
  Ga  Ga19  1  0.20441300  0.36359700  0.15918400  1
  Ni  Ni0  1  0.18862900  0.86365300  0.00000000  1
  Ni  Ni1  1  0.09869700  0.59869700  0.50000000  1
  Ni  Ni2  1  0.59869700  0.09869700  0.50000000  1
  Ni  Ni3  1  0.86365300  0.18862900  0.00000000  1
  Ni  Ni4  1  0.18862900  0.18862900  0.32497600  1
  Ni  Ni5  1  0.86365300  0.86365300  0.67502400  1
  Ni  Ni6  1  0.73112100  0.51509100  0.21603000  1
  Ni  Ni7  1  0.51509100  0.29906000  0.78397000  1
  Ni  Ni8  1  0.51509100  0.73112100  0.21603000  1
  Ni  Ni9  1  0.29906000  0.51509100  0.78397000  1
loop_
_geom_bond_atom_site_label_1
_geom_bond_atom_site_label_2
_geom_bond_distance
_geom_bond_site_symmetry_2
Hf0 Ni8 2.666279 1_555
Hf0 Ni6 2.666279 1_555
Hf0 Ni9 2.666285 1_554
Hf0 Ni7 2.666285 1_554
Hf1 Ni3 2.924999 1_565
Hf1 Ni4 2.924999 1_665
Hf1 Ni0 2.924999 1_655
Hf1 Ni5 2.924999 1_554
Hf2 Ni0 2.684391 1_555
Hf2 Ni9 2.786848 1_554
Hf2 Ni8 2.786855 1_555
Hf2 Ni3 2.829218 1_455
Hf3 Ni5 2.684391 1_555
Hf3 Ni8 2.786855 1_555
Hf3 Ni6 2.786855 1_555
Hf3 Ni4 2.829218 1_555
Hf4 Ni4 2.684391 1_555
Hf4 Ni7 2.786859 1_555
Hf4 Ni9 2.786859 1_555
Hf4 Ni5 2.829218 1_445
Hf5 Ni3 2.684391 1_555
Hf5 Ni7 2.786848 1_554
Hf5 Ni6 2.786855 1_555
Hf5 Ni0 2.829218 1_545
Hf6 Ni4 2.809117 1_565
Hf6 Ni0 2.809117 1_555
Hf6 Ni6 3.019731 1_455
Hf6 Ni2 3.207302 1_565
Hf7 Ni5 2.809108 1_555
Hf7 Ni0 2.809117 1_656
Hf7 Ni7 3.019735 1_555
Hf7 Ni1 3.207305 1_655
Hf8 Ni4 2.809117 1_655
Hf8 Ni3 2.809117 1_555
Hf8 Ni8 3.019731 1_545
Hf8 Ni1 3.207302 1_655
Hf9 Ni5 2.809108 1_555
Hf9 Ni3 2.809117 1_566
Hf9 Ni9 3.019735 1_555
Hf9 Ni2 3.207305 1_565
Ga0 Ni0 2.467749 1_546
Ga0 Ni5 2.467759 1_445
Ga0 Ni7 2.613828 1_555
Ga0 Ga1 2.770841 1_556
Ga0 Ga18 2.770859 1_555
Ga0 Hf5 2.865457 1_556
Ga0 Hf4 2.865467 1_555
Ga0 Hf1 2.939116 1_446
Ga0 Ga5 2.996296 1_545
Ga0 Hf0 3.037397 1_556
Ga0 Hf7 3.117457 1_445
Ga1 Ni0 2.467756 1_545
Ga1 Ni4 2.467756 1_555
Ga1 Ni6 2.613828 1_555
Ga1 Ga19 2.770841 1_555
Ga1 Hf3 2.865461 1_555
Ga1 Hf5 2.865461 1_555
Ga1 Hf1 2.939115 1_445
Ga1 Ga6 2.996304 1_555
Ga1 Hf0 3.037390 1_555
Ga1 Hf6 3.117470 1_545
Ga2 Ni9 2.439958 1_655
Ga2 Ni1 2.470567 1_655
Ga2 Ni2 2.509119 1_555
Ga2 Ga6 2.892845 1_555
Ga2 Hf8 3.004458 1_555
Ga2 Hf7 3.004478 1_555
Ga2 Hf4 3.336690 1_655
Ga2 Hf2 3.336700 1_656
Ga3 Ni8 2.439973 1_555
Ga3 Ni2 2.470567 1_565
Ga3 Ni1 2.509113 1_555
Ga3 Ga5 2.892845 1_555
Ga3 Hf6 3.004461 1_555
Ga3 Hf9 3.004464 1_555
Ga3 Hf2 3.336699 1_555
Ga3 Hf3 3.336699 1_555
Ga4 Ni8 2.506104 1_555
Ga4 Ni9 2.506106 1_554
Ga4 Ni3 2.594177 1_565
Ga4 Hf8 2.813650 1_565
Ga4 Hf9 2.813651 1_554
Ga4 Hf1 2.916729 1_555
Ga4 Hf0 2.920653 1_555
Ga4 Hf2 3.084262 1_555
Ga4 Hf5 3.120963 1_565
Ga5 Ni7 2.439958 1_565
Ga5 Ni2 2.470567 1_565
Ga5 Ni1 2.509119 1_555
Ga5 Hf6 3.004458 1_555
Ga5 Hf9 3.004478 1_555
Ga5 Hf4 3.336690 1_565
Ga5 Hf5 3.336700 1_566
Ga6 Ni6 2.439973 1_555
Ga6 Ni1 2.470567 1_655
Ga6 Ni2 2.509113 1_555
Ga6 Hf8 3.004461 1_555
Ga6 Hf7 3.004464 1_555
Ga6 Hf5 3.336699 1_555
Ga6 Hf3 3.336699 1_555
Ga7 Ni6 2.506104 1_555
Ga7 Ni7 2.506106 1_554
Ga7 Ni0 2.594177 1_655
Ga7 Hf6 2.813650 1_655
Ga7 Hf7 2.813651 1_554
Ga7 Hf1 2.916729 1_555
Ga7 Hf0 2.920653 1_555
Ga7 Hf5 3.084262 1_555
Ga7 Hf2 3.120963 1_655
Ga8 Ni9 2.506109 1_555
Ga8 Ni7 2.506109 1_555
Ga8 Ni5 2.594182 1_555
Ga8 Hf9 2.813647 1_555
Ga8 Hf7 2.813647 1_555
Ga8 Hf1 2.916725 1_556
Ga8 Hf0 2.920643 1_556
Ga8 Hf4 3.084262 1_555
Ga8 Hf3 3.120972 1_555
Ga9 Ni6 2.506106 1_555
Ga9 Ni8 2.506106 1_555
Ga9 Ni4 2.594174 1_665
Ga9 Hf6 2.813649 1_655
Ga9 Hf8 2.813649 1_565
Ga9 Hf1 2.916720 1_555
Ga9 Hf0 2.920648 1_555
Ga9 Hf3 3.084269 1_555
Ga9 Hf4 3.120969 1_665
Ga10 Ni4 2.519656 1_555
Ga10 Ni1 2.532895 1_555
Ga10 Ni9 2.549585 1_555
Ga10 Ga3 2.662138 1_555
Ga10 Ga2 2.790366 1_455
Ga10 Ga8 2.814860 1_555
Ga10 Hf9 2.829469 1_555
Ga10 Hf8 2.832826 1_455
Ga10 Hf4 2.839879 1_555
Ga10 Hf3 2.853385 1_555
Ga11 Ni0 2.519656 1_555
Ga11 Ni2 2.532895 1_565
Ga11 Ni8 2.549583 1_555
Ga11 Ga6 2.662138 1_565
Ga11 Ga3 2.790373 1_555
Ga11 Ga4 2.814855 1_555
Ga11 Hf8 2.829468 1_565
Ga11 Hf6 2.832826 1_555
Ga11 Hf2 2.839879 1_555
Ga11 Hf5 2.853385 1_565
Ga12 Ni3 2.519656 1_556
Ga12 Ni2 2.532895 1_555
Ga12 Ni7 2.549577 1_555
Ga12 Ga2 2.662144 1_555
Ga12 Ga5 2.790373 1_545
Ga12 Ga7 2.814855 1_556
Ga12 Hf7 2.829477 1_555
Ga12 Hf9 2.832829 1_545
Ga12 Hf5 2.839879 1_556
Ga12 Hf2 2.853385 1_656
Ga13 Ni5 2.519656 1_555
Ga13 Ni1 2.532895 1_655
Ga13 Ni6 2.549583 1_555
Ga13 Ga5 2.662136 1_655
Ga13 Ga6 2.790373 1_555
Ga13 Ga9 2.814862 1_555
Ga13 Hf6 2.829468 1_655
Ga13 Hf7 2.832821 1_555
Ga13 Hf3 2.839879 1_555
Ga13 Hf4 2.853385 1_665
Ga14 Ni5 2.519656 1_555
Ga14 Ni2 2.532895 1_565
Ga14 Ni8 2.549583 1_555
Ga14 Ga2 2.662136 1_565
Ga14 Ga3 2.790373 1_555
Ga14 Ga9 2.814862 1_555
Ga14 Hf8 2.829468 1_565
Ga14 Hf9 2.832821 1_555
Ga14 Hf3 2.839879 1_555
Ga14 Hf4 2.853385 1_665
Ga15 Ni4 2.519656 1_555
Ga15 Ni2 2.532895 1_555
Ga15 Ni7 2.549585 1_555
Ga15 Ga6 2.662138 1_555
Ga15 Ga5 2.790366 1_545
Ga15 Ga8 2.814860 1_555
Ga15 Hf7 2.829469 1_555
Ga15 Hf6 2.832826 1_545
Ga15 Hf4 2.839879 1_555
Ga15 Hf3 2.853385 1_555
Ga16 Ni0 2.519656 1_556
Ga16 Ni1 2.532895 1_555
Ga16 Ni9 2.549577 1_555
Ga16 Ga5 2.662144 1_555
Ga16 Ga2 2.790373 1_455
Ga16 Ga4 2.814855 1_556
Ga16 Hf9 2.829477 1_555
Ga16 Hf7 2.832829 1_455
Ga16 Hf2 2.839879 1_556
Ga16 Hf5 2.853385 1_566
Ga17 Ni3 2.519656 1_555
Ga17 Ni1 2.532895 1_655
Ga17 Ni6 2.549583 1_555
Ga17 Ga3 2.662138 1_655
Ga17 Ga6 2.790373 1_555
Ga17 Ga7 2.814855 1_555
Ga17 Hf6 2.829468 1_655
Ga17 Hf8 2.832826 1_555
Ga17 Hf5 2.839879 1_555
Ga17 Hf2 2.853385 1_655
Ga18 Ni3 2.467749 1_456
Ga18 Ni5 2.467759 1_445
Ga18 Ni9 2.613828 1_555
Ga18 Ga19 2.770841 1_556
Ga18 Hf2 2.865457 1_556
Ga18 Hf4 2.865467 1_555
Ga18 Hf1 2.939116 1_446
Ga18 Ga2 2.996296 1_455
Ga18 Hf0 3.037397 1_556
Ga18 Hf9 3.117457 1_445
Ga19 Ni3 2.467756 1_455
Ga19 Ni4 2.467756 1_555
Ga19 Ni8 2.613828 1_555
Ga19 Hf3 2.865461 1_555
Ga19 Hf2 2.865461 1_555
Ga19 Hf1 2.939115 1_445
Ga19 Ga3 2.996304 1_555
Ga19 Hf0 3.037390 1_555
Ga19 Hf8 3.117470 1_455
