# generated using pymatgen
data_Zr3In3CuIr2
_symmetry_space_group_name_H-M   'P 1'
_cell_length_a   7.51025418
_cell_length_b   7.51025488
_cell_length_c   3.45833809
_cell_angle_alpha   90.00000000
_cell_angle_beta   90.00000000
_cell_angle_gamma   119.99999693
_symmetry_Int_Tables_number   1
_chemical_formula_structural   Zr3In3CuIr2
_chemical_formula_sum   'Zr3 In3 Cu1 Ir2'
_cell_volume   168.93024226
_cell_formula_units_Z   1
loop_
 _symmetry_equiv_pos_site_id
 _symmetry_equiv_pos_as_xyz
  1  'x, y, z'
loop_
 _atom_site_type_symbol
 _atom_site_label
 _atom_site_symmetry_multiplicity
 _atom_site_fract_x
 _atom_site_fract_y
 _atom_site_fract_z
 _atom_site_occupancy
  Zr  Zr0  1  1.00000000  0.59479419  0.50000000  1
  Zr  Zr1  1  0.40520581  0.40520581  0.50000000  1
  Zr  Zr2  1  0.59479419  0.00000000  0.50000000  1
  In  In0  1  0.73939108  0.73939108  0.00000000  1
  In  In1  1  0.00000000  0.26060892  0.00000000  1
  In  In2  1  0.26060892  0.00000000  0.00000000  1
  Cu  Cu0  1  0.00000000  0.00000000  0.50000000  1
  Ir  Ir0  1  0.33333300  0.66666700  0.00000000  1
  Ir  Ir1  1  0.66666700  0.33333300  0.00000000  1
loop_
_geom_bond_atom_site_label_1
_geom_bond_atom_site_label_2
_geom_bond_distance
_geom_bond_site_symmetry_2
In0 Ir0 2.816513 1_555
In0 Ir1 2.816513 1_555
In0 Zr1 3.047820 1_554
In0 Zr1 3.047820 1_555
In0 Zr0 3.182075 1_555
In0 Zr0 3.182075 1_554
In0 Zr2 3.182075 1_564
In0 Zr2 3.182075 1_565
In1 Ir1 2.816506 1_455
In1 Ir0 2.816511 1_555
In1 Zr0 3.047820 1_455
In1 Zr0 3.047820 1_454
In1 Zr1 3.182075 1_555
In1 Zr1 3.182075 1_554
In1 Zr2 3.182075 1_455
In1 Zr2 3.182075 1_454
In2 Ir0 2.816506 1_545
In2 Ir1 2.816511 1_555
In2 Zr2 3.047819 1_554
In2 Zr2 3.047819 1_555
In2 Zr1 3.182075 1_554
In2 Zr1 3.182075 1_555
In2 Zr0 3.182075 1_445
In2 Zr0 3.182075 1_444
Cu0 In2 2.611668 1_556
Cu0 In2 2.611668 1_555
Cu0 In1 2.611668 1_555
Cu0 In1 2.611668 1_556
Cu0 In0 2.611668 1_445
Cu0 In0 2.611668 1_446
Cu0 Zr2 3.043199 1_455
Cu0 Zr0 3.043199 1_445
Cu0 Zr1 3.043199 1_555
Ir0 Zr0 2.863072 1_454
Ir0 Zr0 2.863072 1_455
Ir0 Zr2 2.863074 1_565
Ir0 Zr2 2.863074 1_564
Ir0 Zr1 2.863078 1_555
Ir0 Zr1 2.863078 1_554
Ir1 Zr2 2.863072 1_554
Ir1 Zr2 2.863072 1_555
Ir1 Zr0 2.863074 1_555
Ir1 Zr0 2.863074 1_554
Ir1 Zr1 2.863078 1_555
Ir1 Zr1 2.863078 1_554
