# generated using pymatgen
data_Cs12V3SiSe16
_symmetry_space_group_name_H-M   'P 1'
_cell_length_a   10.19818118
_cell_length_b   10.17351962
_cell_length_c   11.94328476
_cell_angle_alpha   90.00000000
_cell_angle_beta   90.00000000
_cell_angle_gamma   90.80607391
_symmetry_Int_Tables_number   1
_chemical_formula_structural   Cs12V3SiSe16
_chemical_formula_sum   'Cs12 V3 Si1 Se16'
_cell_volume   1239.00984338
_cell_formula_units_Z   1
loop_
 _symmetry_equiv_pos_site_id
 _symmetry_equiv_pos_as_xyz
  1  'x, y, z'
loop_
 _atom_site_type_symbol
 _atom_site_label
 _atom_site_symmetry_multiplicity
 _atom_site_fract_x
 _atom_site_fract_y
 _atom_site_fract_z
 _atom_site_occupancy
  Cs  Cs0  1  0.54231865  0.70107025  0.04184222  1
  Cs  Cs1  1  0.03486726  0.79999713  0.46153706  1
  Cs  Cs2  1  0.45781387  0.29097412  0.54012738  1
  Cs  Cs3  1  0.95714351  0.21169874  0.96032525  1
  Cs  Cs4  1  0.45781387  0.29097412  0.95987262  1
  Cs  Cs5  1  0.95714351  0.21169874  0.53967475  1
  Cs  Cs6  1  0.54231865  0.70107025  0.45815778  1
  Cs  Cs7  1  0.03486726  0.79999713  0.03846294  1
  Cs  Cs8  1  0.35584834  0.08559375  0.25000000  1
  Cs  Cs9  1  0.84927214  0.41204006  0.25000000  1
  Cs  Cs10  1  0.64563254  0.90952129  0.75000000  1
  Cs  Cs11  1  0.15378501  0.59550336  0.75000000  1
  V  V0  1  0.77839425  0.98196748  0.25000000  1
  V  V1  1  0.72294329  0.48174666  0.75000000  1
  V  V2  1  0.22022601  0.01809481  0.75000000  1
  Si  Si0  1  0.28456144  0.51018944  0.25000000  1
  Se  Se0  1  0.28456298  0.73420746  0.25000000  1
  Se  Se1  1  0.78879737  0.75882128  0.25000000  1
  Se  Se2  1  0.71146384  0.25815659  0.75000000  1
  Se  Se3  1  0.21142420  0.24144479  0.75000000  1
  Se  Se4  1  0.48815022  0.42685074  0.25000000  1
  Se  Se5  1  0.98662036  0.07003993  0.25000000  1
  Se  Se6  1  0.51543244  0.56469648  0.75000000  1
  Se  Se7  1  0.01036716  0.93554497  0.75000000  1
  Se  Se8  1  0.17474315  0.46042897  0.09052349  1
  Se  Se9  1  0.67210523  0.04538408  0.40834923  1
  Se  Se10  1  0.83065471  0.54820304  0.59248510  1
  Se  Se11  1  0.32661084  0.95003461  0.90731550  1
  Se  Se12  1  0.83065471  0.54820304  0.90751490  1
  Se  Se13  1  0.32661084  0.95003461  0.59268450  1
  Se  Se14  1  0.17474315  0.46042897  0.40947651  1
  Se  Se15  1  0.67210523  0.04538408  0.09165077  1
loop_
_geom_bond_atom_site_label_1
_geom_bond_atom_site_label_2
_geom_bond_distance
_geom_bond_site_symmetry_2
Cs0 Se1 3.578076 1_555
Cs0 Se0 3.637164 1_555
Cs0 Se12 3.710482 1_554
Cs0 Se11 3.740690 1_554
Cs0 Se6 3.760113 1_554
Cs0 Se4 3.771644 1_555
Cs0 Se15 3.774322 1_565
Cs1 Se1 3.581376 1_455
Cs1 Se10 3.632493 1_455
Cs1 Se0 3.655576 1_555
Cs1 Se13 3.675279 1_555
Cs1 Se7 3.720635 1_555
Cs1 Se5 3.769701 1_465
Cs1 Se14 3.807149 1_555
Cs2 Se3 3.579799 1_555
Cs2 Se2 3.620777 1_555
Cs2 Se9 3.694476 1_555
Cs2 Se14 3.725660 1_555
Cs2 Se4 3.741830 1_555
Cs2 Se13 3.752950 1_545
Cs2 Se6 3.786395 1_555
Cs3 Se2 3.583878 1_555
Cs3 Se3 3.619973 1_655
Cs3 Se8 3.686156 1_656
Cs3 Se15 3.692487 1_556
Cs3 Se12 3.729068 1_555
Cs3 Se5 3.761493 1_556
Cs3 Se7 3.813211 1_645
Cs4 Se3 3.579799 1_555
Cs4 Se2 3.620777 1_555
Cs4 Se15 3.694476 1_556
Cs4 Se8 3.725660 1_556
Cs4 Se4 3.741830 1_556
Cs4 Se11 3.752950 1_545
Cs4 Se6 3.786395 1_555
Cs5 Se2 3.583878 1_555
Cs5 Se3 3.619973 1_655
Cs5 Se14 3.686156 1_655
Cs5 Se9 3.692487 1_555
Cs5 Se10 3.729068 1_555
Cs5 Se5 3.761493 1_555
Cs5 Se7 3.813211 1_645
Cs6 Se1 3.578076 1_555
Cs6 Se0 3.637164 1_555
Cs6 Se10 3.710482 1_555
Cs6 Se13 3.740690 1_555
Cs6 Se6 3.760113 1_555
Cs6 Se4 3.771644 1_555
Cs6 Se9 3.774322 1_565
Cs7 Se1 3.581376 1_455
Cs7 Se12 3.632493 1_454
Cs7 Se0 3.655576 1_555
Cs7 Se11 3.675279 1_554
Cs7 Se7 3.720635 1_554
Cs7 Se5 3.769701 1_465
Cs7 Se8 3.807149 1_555
Cs8 Se0 3.637970 1_545
Cs8 Se4 3.707012 1_555
Cs8 Se9 3.766078 1_555
Cs8 Se15 3.766078 1_555
Cs8 Se5 3.766552 1_455
Cs9 Se1 3.590022 1_555
Cs9 Se4 3.687985 1_555
Cs9 Se5 3.768943 1_555
Cs9 Se8 3.852444 1_655
Cs9 Se14 3.852444 1_655
Cs10 Se2 3.600536 1_565
Cs10 Se7 3.725323 1_655
Cs10 Se6 3.733449 1_555
Cs10 Se11 3.784523 1_555
Cs10 Se13 3.784523 1_555
Cs11 Se3 3.657822 1_555
Cs11 Se6 3.705830 1_555
Cs11 Se7 3.774805 1_555
Cs11 Se12 3.819071 1_455
Cs11 Se10 3.819071 1_455
Se0 Si0 2.279051 1_555
Se1 V0 2.274150 1_555
Se2 V1 2.276063 1_555
Se3 V2 2.275289 1_555
Se4 Si0 2.253692 1_555
Se5 V0 2.293177 1_545
Se6 V1 2.289289 1_555
Se7 V2 2.288033 1_565
Se8 Si0 2.263269 1_555
Se9 V0 2.277620 1_545
Se10 V1 2.276381 1_555
Se11 V2 2.282055 1_565
Se12 V1 2.276381 1_555
Se13 V2 2.282055 1_565
Se14 Si0 2.263269 1_555
Se15 V0 2.277620 1_545
