# generated using pymatgen
data_ZrPd3
_symmetry_space_group_name_H-M   'P 1'
_cell_length_a   5.65168429
_cell_length_b   5.65168433
_cell_length_c   9.27798234
_cell_angle_alpha   90.00000000
_cell_angle_beta   90.00000000
_cell_angle_gamma   119.99944350
_symmetry_Int_Tables_number   1
_chemical_formula_structural   ZrPd3
_chemical_formula_sum   'Zr4 Pd12'
_cell_volume   256.65066795
_cell_formula_units_Z   4
loop_
 _symmetry_equiv_pos_site_id
 _symmetry_equiv_pos_as_xyz
  1  'x, y, z'
loop_
 _atom_site_type_symbol
 _atom_site_label
 _atom_site_symmetry_multiplicity
 _atom_site_fract_x
 _atom_site_fract_y
 _atom_site_fract_z
 _atom_site_occupancy
  Zr  Zr0  1  0.66666600  0.33333400  0.75000000  1
  Zr  Zr1  1  0.33333400  0.66666600  0.25000000  1
  Zr  Zr2  1  0.00000000  0.00000000  0.50000000  1
  Zr  Zr3  1  -0.00000000  -0.00000000  -0.00000000  1
  Pd  Pd0  1  0.50000000  0.50000000  -0.00000000  1
  Pd  Pd1  1  0.50000000  0.00000000  0.50000000  1
  Pd  Pd2  1  0.83025473  0.66050946  0.25000100  1
  Pd  Pd3  1  0.16974527  0.83025473  0.74999900  1
  Pd  Pd4  1  0.66050946  0.83025473  0.74999900  1
  Pd  Pd5  1  0.33949054  0.16974527  0.25000100  1
  Pd  Pd6  1  0.83025473  0.16974527  0.25000100  1
  Pd  Pd7  1  0.16974527  0.33949054  0.74999900  1
  Pd  Pd8  1  -0.00000000  0.50000000  -0.00000000  1
  Pd  Pd9  1  0.00000000  0.50000000  0.50000000  1
  Pd  Pd10  1  0.50000000  0.50000000  0.50000000  1
  Pd  Pd11  1  0.50000000  -0.00000000  -0.00000000  1
loop_
_geom_bond_atom_site_label_1
_geom_bond_atom_site_label_2
_geom_bond_distance
_geom_bond_site_symmetry_2
Pd0 Zr3 2.825866 1_665
Pd0 Zr3 2.825866 1_555
Pd0 Zr1 2.835810 1_555
Pd0 Zr0 2.835810 1_554
Pd1 Zr2 2.825842 1_555
Pd1 Zr2 2.825842 1_655
Pd1 Zr0 2.835823 1_555
Pd1 Zr1 2.835823 1_545
Pd2 Zr1 2.825997 1_555
Pd2 Zr1 2.826009 1_655
Pd2 Zr2 2.853259 1_665
Pd2 Zr3 2.853274 1_665
Pd3 Zr0 2.826027 1_455
Pd3 Zr0 2.826027 1_565
Pd3 Zr2 2.853251 1_565
Pd3 Zr3 2.853266 1_566
Pd4 Zr0 2.825997 1_555
Pd4 Zr0 2.826009 1_565
Pd4 Zr2 2.853259 1_665
Pd4 Zr3 2.853274 1_666
Pd5 Zr1 2.825997 1_555
Pd5 Zr1 2.826009 1_545
Pd5 Zr2 2.853259 1_555
Pd5 Zr3 2.853274 1_555
Pd6 Zr1 2.826027 1_655
Pd6 Zr1 2.826027 1_545
Pd6 Zr2 2.853251 1_655
Pd6 Zr3 2.853266 1_655
Pd7 Zr0 2.825997 1_555
Pd7 Zr0 2.826009 1_455
Pd7 Zr2 2.853259 1_555
Pd7 Zr3 2.853274 1_556
Pd8 Zr3 2.825842 1_555
Pd8 Zr3 2.825842 1_565
Pd8 Zr1 2.835823 1_555
Pd8 Zr0 2.835823 1_454
Pd9 Zr2 2.825842 1_555
Pd9 Zr2 2.825842 1_565
Pd9 Zr1 2.835823 1_555
Pd9 Zr0 2.835823 1_455
Pd10 Zr2 2.825866 1_665
Pd10 Zr2 2.825866 1_555
Pd10 Zr1 2.835810 1_555
Pd10 Zr0 2.835810 1_555
Pd11 Zr3 2.825842 1_655
Pd11 Zr3 2.825842 1_555
Pd11 Zr0 2.835823 1_554
Pd11 Zr1 2.835823 1_545
