# generated using pymatgen
data_Ca2NiRhI
_symmetry_space_group_name_H-M   'P 1'
_cell_length_a   4.14603233
_cell_length_b   4.14603268
_cell_length_c   16.80809141
_cell_angle_alpha   90.00000000
_cell_angle_beta   90.00000000
_cell_angle_gamma   119.99998939
_symmetry_Int_Tables_number   1
_chemical_formula_structural   Ca2NiRhI
_chemical_formula_sum   'Ca4 Ni2 Rh2 I2'
_cell_volume   250.21565876
_cell_formula_units_Z   2
loop_
 _symmetry_equiv_pos_site_id
 _symmetry_equiv_pos_as_xyz
  1  'x, y, z'
loop_
 _atom_site_type_symbol
 _atom_site_label
 _atom_site_symmetry_multiplicity
 _atom_site_fract_x
 _atom_site_fract_y
 _atom_site_fract_z
 _atom_site_occupancy
  Ca  Ca0  1  0.00000000  0.00000000  0.60746959  1
  Ca  Ca1  1  0.00000000  0.00000000  0.39280140  1
  Ca  Ca2  1  0.00000000  0.00000000  0.10746959  1
  Ca  Ca3  1  0.00000000  0.00000000  0.89280140  1
  Ni  Ni0  1  0.66666700  0.33333300  0.99876681  1
  Ni  Ni1  1  0.33333300  0.66666700  0.49876681  1
  Rh  Rh0  1  0.66666700  0.33333300  0.50086032  1
  Rh  Rh1  1  0.33333300  0.66666700  0.00086032  1
  I  I0  1  0.66666700  0.33333300  0.25010288  1
  I  I1  1  0.33333300  0.66666700  0.75010288  1
loop_
_geom_bond_atom_site_label_1
_geom_bond_atom_site_label_2
_geom_bond_distance
_geom_bond_site_symmetry_2
Ca0 Rh0 2.990109 1_455
Ca0 Rh0 2.990112 1_555
Ca0 Rh0 2.990112 1_445
Ca0 Ni1 3.011328 1_545
Ca0 Ni1 3.011331 1_445
Ca0 Ni1 3.011331 1_555
Ca0 I1 3.387823 1_545
Ca0 I1 3.387826 1_445
Ca0 I1 3.387826 1_555
Ca1 Ni1 2.983636 1_545
Ca1 Ni1 2.983639 1_445
Ca1 Ni1 2.983639 1_555
Ca1 Rh0 3.004774 1_455
Ca1 Rh0 3.004777 1_555
Ca1 Rh0 3.004777 1_445
Ca1 I0 3.388599 1_455
Ca1 I0 3.388602 1_555
Ca1 I0 3.388602 1_445
Ca2 Rh1 2.990109 1_545
Ca2 Rh1 2.990112 1_445
Ca2 Rh1 2.990112 1_555
Ca2 Ni0 3.011328 1_454
Ca2 Ni0 3.011331 1_554
Ca2 Ni0 3.011331 1_444
Ca2 I0 3.387823 1_455
Ca2 I0 3.387826 1_555
Ca2 I0 3.387826 1_445
Ca3 Ni0 2.983636 1_455
Ca3 Ni0 2.983639 1_555
Ca3 Ni0 2.983639 1_445
Ca3 Rh1 3.004774 1_546
Ca3 Rh1 3.004777 1_446
Ca3 Rh1 3.004777 1_556
Ca3 I1 3.388599 1_545
Ca3 I1 3.388602 1_445
Ca3 I1 3.388602 1_555
Ni0 Rh1 2.393969 1_656
Ni0 Rh1 2.393970 1_546
Ni0 Rh1 2.393976 1_556
Ni1 Rh0 2.393969 1_455
Ni1 Rh0 2.393970 1_565
Ni1 Rh0 2.393976 1_555
