# generated using pymatgen
data_Ba3WBr2O5
_symmetry_space_group_name_H-M   'P 1'
_cell_length_a   7.67511940
_cell_length_b   7.67511977
_cell_length_c   11.76634868
_cell_angle_alpha   90.00000000
_cell_angle_beta   90.00000000
_cell_angle_gamma   134.51537807
_symmetry_Int_Tables_number   1
_chemical_formula_structural   Ba3WBr2O5
_chemical_formula_sum   'Ba6 W2 Br4 O10'
_cell_volume   494.24182186
_cell_formula_units_Z   2
loop_
 _symmetry_equiv_pos_site_id
 _symmetry_equiv_pos_as_xyz
  1  'x, y, z'
loop_
 _atom_site_type_symbol
 _atom_site_label
 _atom_site_symmetry_multiplicity
 _atom_site_fract_x
 _atom_site_fract_y
 _atom_site_fract_z
 _atom_site_occupancy
  Ba  Ba0  1  0.34500391  0.65499609  0.96140181  1
  Ba  Ba1  1  0.65499609  0.34500391  0.46140181  1
  Ba  Ba2  1  0.34500391  0.65499609  0.53859819  1
  Ba  Ba3  1  0.10328989  0.89671011  0.75000000  1
  Ba  Ba4  1  0.65499609  0.34500391  0.03859819  1
  Ba  Ba5  1  0.89671011  0.10328989  0.25000000  1
  W  W0  1  0.23986727  0.76013273  0.25000000  1
  W  W1  1  0.76013273  0.23986727  0.75000000  1
  Br  Br0  1  0.50569544  0.49430456  0.75000000  1
  Br  Br1  1  0.00000000  0.00000000  0.00000000  1
  Br  Br2  1  0.00000000  0.00000000  0.50000000  1
  Br  Br3  1  0.49430456  0.50569544  0.25000000  1
  O  O0  1  0.49485755  0.94535387  0.13848144  1
  O  O1  1  0.88371310  0.11628690  0.75000000  1
  O  O2  1  0.94535387  0.49485755  0.63848144  1
  O  O3  1  0.50514245  0.05464613  0.86151856  1
  O  O4  1  0.11628690  0.88371310  0.25000000  1
  O  O5  1  0.50514245  0.05464613  0.63848144  1
  O  O6  1  0.94535387  0.49485755  0.86151856  1
  O  O7  1  0.05464613  0.50514245  0.13848144  1
  O  O8  1  0.49485755  0.94535387  0.36151856  1
  O  O9  1  0.05464613  0.50514245  0.36151856  1
loop_
_geom_bond_atom_site_label_1
_geom_bond_atom_site_label_2
_geom_bond_distance
_geom_bond_site_symmetry_2
Ba0 O6 2.648440 1_455
Ba0 O3 2.648440 1_565
Ba0 O7 2.652633 1_556
Ba0 O0 2.652633 1_556
Ba0 Br0 3.370811 1_555
Ba0 Br1 3.718157 1_666
Ba0 Br1 3.718157 1_556
Ba1 O9 2.648440 1_655
Ba1 O8 2.648440 1_545
Ba1 O2 2.652633 1_555
Ba1 O5 2.652633 1_555
Ba1 Br3 3.370811 1_555
Ba1 Br2 3.718157 1_555
Ba1 Br2 3.718157 1_665
Ba2 O2 2.648440 1_455
Ba2 O5 2.648440 1_565
Ba2 O9 2.652633 1_555
Ba2 O8 2.652633 1_555
Ba2 Br0 3.370811 1_555
Ba2 Br2 3.718157 1_665
Ba2 Br2 3.718157 1_555
Ba3 O3 2.731570 1_565
Ba3 O5 2.731570 1_565
Ba3 O6 2.731570 1_455
Ba3 O2 2.731570 1_455
Ba3 O1 3.108505 1_465
Ba3 Br0 3.273009 1_455
Ba3 Br0 3.273009 1_565
Ba3 Br2 3.284985 1_565
Ba3 Br1 3.284985 1_566
Ba4 O7 2.648440 1_655
Ba4 O0 2.648440 1_545
Ba4 O6 2.652633 1_554
Ba4 O3 2.652633 1_554
Ba4 Br3 3.370811 1_555
Ba4 Br1 3.718157 1_555
Ba4 Br1 3.718157 1_665
Ba5 O8 2.731570 1_545
Ba5 O0 2.731570 1_545
Ba5 O9 2.731570 1_655
Ba5 O7 2.731570 1_655
Ba5 O4 3.108505 1_645
Ba5 Br3 3.273009 1_655
Ba5 Br3 3.273009 1_545
Ba5 Br2 3.284985 1_655
Ba5 Br1 3.284985 1_655
O0 W0 1.916170 1_555
O1 W1 1.749503 1_555
O2 W1 1.916170 1_555
O3 W1 1.916170 1_555
O4 W0 1.749503 1_555
O5 W1 1.916170 1_555
O6 W1 1.916170 1_555
O7 W0 1.916170 1_555
O8 W0 1.916170 1_555
O9 W0 1.916170 1_555
