# generated using pymatgen
data_ZnNi(S2O7)2
_symmetry_space_group_name_H-M   'P 1'
_cell_length_a   4.84425009
_cell_length_b   6.96675353
_cell_length_c   8.12212793
_cell_angle_alpha   92.77602778
_cell_angle_beta   94.00058517
_cell_angle_gamma   106.31942867
_symmetry_Int_Tables_number   1
_chemical_formula_structural   ZnNi(S2O7)2
_chemical_formula_sum   'Zn1 Ni1 S4 O14'
_cell_volume   261.76280112
_cell_formula_units_Z   1
loop_
 _symmetry_equiv_pos_site_id
 _symmetry_equiv_pos_as_xyz
  1  'x, y, z'
loop_
 _atom_site_type_symbol
 _atom_site_label
 _atom_site_symmetry_multiplicity
 _atom_site_fract_x
 _atom_site_fract_y
 _atom_site_fract_z
 _atom_site_occupancy
  Zn  Zn0  1  0.50000000  0.00000000  0.50000000  1
  Ni  Ni0  1  0.00000000  0.50000000  0.00000000  1
  S  S0  1  0.51608295  0.64605355  0.77080218  1
  S  S1  1  0.48391705  0.35394645  0.22919782  1
  S  S2  1  0.13238250  0.25134629  0.68986248  1
  S  S3  1  0.86761750  0.74865371  0.31013752  1
  O  O0  1  0.74787457  0.55960697  0.81085141  1
  O  O1  1  0.25212543  0.44039303  0.18914859  1
  O  O2  1  0.35762861  0.68033423  0.90813965  1
  O  O3  1  0.64237139  0.31966577  0.09186035  1
  O  O4  1  0.60023366  0.81280753  0.67030236  1
  O  O5  1  0.39976634  0.18719247  0.32969764  1
  O  O6  1  0.28682221  0.47998867  0.64226836  1
  O  O7  1  0.71317779  0.52001133  0.35773164  1
  O  O8  1  0.90578891  0.19290025  0.55774426  1
  O  O9  1  0.09421109  0.80709975  0.44225574  1
  O  O10  1  0.34761701  0.14477644  0.68462859  1
  O  O11  1  0.65238299  0.85522356  0.31537141  1
  O  O12  1  0.04250581  0.26659895  0.85467624  1
  O  O13  1  0.95749419  0.73340105  0.14532376  1
loop_
_geom_bond_atom_site_label_1
_geom_bond_atom_site_label_2
_geom_bond_distance
_geom_bond_site_symmetry_2
Ni0 O1 2.027156 1_555
Ni0 O0 2.027156 1_454
Ni0 O13 2.028742 1_455
Ni0 O12 2.028742 1_554
Ni0 O2 2.045579 1_554
Ni0 O3 2.045579 1_455
O0 S0 1.441310 1_555
O1 S1 1.441310 1_555
O2 S0 1.444716 1_555
O3 S1 1.444716 1_555
O4 S0 1.433263 1_555
O4 Zn0 2.070429 1_565
O5 S1 1.433263 1_555
O5 Zn0 2.070429 1_555
O6 S0 1.631236 1_555
O6 S2 1.636075 1_555
O7 S1 1.631236 1_555
O7 S3 1.636075 1_555
O8 S2 1.436778 1_655
O8 Zn0 2.053251 1_555
O9 S3 1.436778 1_455
O9 Zn0 2.053251 1_565
O10 S2 1.441637 1_555
O10 Zn0 2.058479 1_555
O11 S3 1.441637 1_555
O11 Zn0 2.058479 1_565
O12 S2 1.444420 1_555
O13 S3 1.444420 1_555
