# generated using pymatgen
data_RbSb12Ru3Pt
_symmetry_space_group_name_H-M   'P 1'
_cell_length_a   8.13669633
_cell_length_b   8.13007290
_cell_length_c   8.13669593
_cell_angle_alpha   109.45473457
_cell_angle_beta   109.48770660
_cell_angle_gamma   109.45472687
_symmetry_Int_Tables_number   1
_chemical_formula_structural   RbSb12Ru3Pt
_chemical_formula_sum   'Rb1 Sb12 Ru3 Pt1'
_cell_volume   414.43562427
_cell_formula_units_Z   1
loop_
 _symmetry_equiv_pos_site_id
 _symmetry_equiv_pos_as_xyz
  1  'x, y, z'
loop_
 _atom_site_type_symbol
 _atom_site_label
 _atom_site_symmetry_multiplicity
 _atom_site_fract_x
 _atom_site_fract_y
 _atom_site_fract_z
 _atom_site_occupancy
  Rb  Rb0  1  0.00000000  0.00000000  0.00000000  1
  Sb  Sb0  1  0.15922512  0.81730314  0.65854091  1
  Sb  Sb1  1  0.16034563  0.50219904  0.35153765  1
  Sb  Sb2  1  0.49931578  0.65807802  0.84077488  1
  Sb  Sb3  1  0.35153765  0.84933761  0.19119201  1
  Sb  Sb4  1  0.80880799  0.65814559  0.16034563  1
  Sb  Sb5  1  0.65854091  0.84123776  0.49931578  1
  Sb  Sb6  1  0.19119201  0.34185441  0.83965437  1
  Sb  Sb7  1  0.64846235  0.15066239  0.80880799  1
  Sb  Sb8  1  0.34145909  0.15876224  0.50068422  1
  Sb  Sb9  1  0.50068422  0.34192198  0.15922512  1
  Sb  Sb10  1  0.83965437  0.49780096  0.64846235  1
  Sb  Sb11  1  0.84077488  0.18269686  0.34145909  1
  Ru  Ru0  1  0.50000000  0.50000000  0.50000000  1
  Ru  Ru1  1  0.00000000  0.00000000  0.50000000  1
  Ru  Ru2  1  0.50000000  0.00000000  0.00000000  1
  Pt  Pt0  1  0.00000000  0.50000000  0.00000000  1
loop_
_geom_bond_atom_site_label_1
_geom_bond_atom_site_label_2
_geom_bond_distance
_geom_bond_site_symmetry_2
Rb0 Sb8 3.540974 1_555
Rb0 Sb5 3.540974 1_444
Rb0 Sb11 3.540974 1_455
Rb0 Sb0 3.540974 1_544
Rb0 Sb9 3.540974 1_555
Rb0 Sb2 3.540974 1_444
Rb0 Sb10 3.568798 1_444
Rb0 Sb1 3.568798 1_555
Rb0 Sb3 3.568805 1_545
Rb0 Sb7 3.568805 1_454
Rb0 Sb6 3.568805 1_554
Rb0 Sb4 3.568805 1_445
Sb0 Sb1 2.927614 1_555
Sb0 Sb10 2.955000 1_455
Sb1 Sb11 2.955000 1_455
Sb2 Sb6 2.927609 1_555
Sb2 Sb4 2.955005 1_556
Sb3 Sb5 2.927609 1_555
Sb3 Sb8 2.955005 1_565
Sb4 Sb9 2.927609 1_555
Sb5 Sb7 2.955005 1_565
Sb6 Sb9 2.955005 1_556
Sb7 Sb8 2.927609 1_555
Sb10 Sb11 2.927614 1_555
Ru0 Sb10 2.630064 1_555
Ru0 Sb1 2.630064 1_555
Ru0 Sb2 2.642226 1_555
Ru0 Sb9 2.642226 1_555
Ru0 Sb5 2.644228 1_555
Ru0 Sb8 2.644228 1_555
Ru1 Sb6 2.630068 1_555
Ru1 Sb4 2.630068 1_445
Ru1 Sb8 2.642226 1_555
Ru1 Sb5 2.642226 1_445
Ru1 Sb0 2.644227 1_545
Ru1 Sb11 2.644227 1_455
Ru2 Sb7 2.630068 1_554
Ru2 Sb3 2.630068 1_545
Ru2 Sb11 2.642226 1_555
Ru2 Sb0 2.642226 1_544
Ru2 Sb9 2.644227 1_555
Ru2 Sb2 2.644227 1_544
Pt0 Sb4 2.710091 1_455
Pt0 Sb6 2.710091 1_554
Pt0 Sb3 2.710092 1_555
Pt0 Sb7 2.710092 1_454
Pt0 Sb1 2.710095 1_555
Pt0 Sb10 2.710095 1_454
