# generated using pymatgen
data_SrAs12(IrOs)2
_symmetry_space_group_name_H-M   'P 1'
_cell_length_a   7.43545913
_cell_length_b   7.42246276
_cell_length_c   7.42246273
_cell_angle_alpha   109.38487417
_cell_angle_beta   109.47903365
_cell_angle_gamma   109.47881751
_symmetry_Int_Tables_number   1
_chemical_formula_structural   SrAs12(IrOs)2
_chemical_formula_sum   'Sr1 As12 Ir2 Os2'
_cell_volume   315.61765062
_cell_formula_units_Z   1
loop_
 _symmetry_equiv_pos_site_id
 _symmetry_equiv_pos_as_xyz
  1  'x, y, z'
loop_
 _atom_site_type_symbol
 _atom_site_label
 _atom_site_symmetry_multiplicity
 _atom_site_fract_x
 _atom_site_fract_y
 _atom_site_fract_z
 _atom_site_occupancy
  Sr  Sr0  1  0.00000000  0.00000000  0.00000000  1
  As  As0  1  0.34791191  0.20174204  0.85022615  1
  As  As1  1  0.65208809  0.79825796  0.14977385  1
  As  As2  1  0.65208809  0.50231523  0.85383113  1
  As  As3  1  0.34791191  0.49768477  0.14616887  1
  As  As4  1  0.19835868  0.85060181  0.34775787  1
  As  As5  1  0.80164132  0.14939819  0.65224213  1
  As  As6  1  0.50197796  0.85336001  0.64861795  1
  As  As7  1  0.49802204  0.14663999  0.35138205  1
  As  As8  1  0.85347260  0.35110625  0.20182299  1
  As  As9  1  0.14652740  0.64889375  0.79817701  1
  As  As10  1  0.85347260  0.65164961  0.50236635  1
  As  As11  1  0.14652740  0.34835039  0.49763365  1
  Ir  Ir0  1  0.50000000  0.00000000  0.00000000  1
  Ir  Ir1  1  0.50000000  0.50000000  0.50000000  1
  Os  Os0  1  0.00000000  0.00000000  0.50000000  1
  Os  Os1  1  0.00000000  0.50000000  0.00000000  1
loop_
_geom_bond_atom_site_label_1
_geom_bond_atom_site_label_2
_geom_bond_distance
_geom_bond_site_symmetry_2
As0 Os0 2.457554 1_555
As0 Ir0 2.480502 1_556
As0 As3 2.539145 1_556
As0 As2 2.578403 1_555
As0 Sr0 3.257253 1_556
As1 Os0 2.457554 1_665
As1 Ir0 2.480502 1_565
As1 As2 2.539145 1_554
As1 As3 2.578403 1_555
As1 Sr0 3.257253 1_665
As2 Os1 2.457557 1_656
As2 Ir1 2.480505 1_555
As2 Sr0 3.257249 1_666
As3 Os1 2.457557 1_555
As3 Ir1 2.480505 1_555
As3 Sr0 3.257249 1_555
As4 Os0 2.460149 1_565
As4 Os1 2.460156 1_555
As4 As7 2.539522 1_565
As4 As6 2.580774 1_555
As4 Sr0 3.243377 1_565
As5 Os0 2.460149 1_655
As5 Os1 2.460156 1_656
As5 As6 2.539522 1_545
As5 As7 2.580774 1_555
As5 Sr0 3.243377 1_656
As6 Ir0 2.477702 1_566
As6 Ir1 2.477702 1_555
As6 Sr0 3.268916 1_666
As7 Ir0 2.477702 1_555
As7 Ir1 2.477702 1_555
As7 Sr0 3.268916 1_555
As8 Os1 2.457015 1_655
As8 Ir0 2.481534 1_555
As8 Sr0 3.257794 1_655
As9 Os1 2.457015 1_556
As9 Ir0 2.481534 1_566
As9 Sr0 3.257794 1_566
As10 Os0 2.457015 1_665
As10 Ir1 2.481535 1_555
As10 As9 2.537336 1_655
As10 As8 2.578618 1_555
As10 Sr0 3.257794 1_666
As11 Os0 2.457015 1_555
As11 Ir1 2.481535 1_555
As11 As8 2.537336 1_455
As11 As9 2.578618 1_555
As11 Sr0 3.257794 1_555
