# generated using pymatgen
data_AsP6RhO18
_symmetry_space_group_name_H-M   'P 1'
_cell_length_a   5.08357567
_cell_length_b   6.98569295
_cell_length_c   10.49351752
_cell_angle_alpha   98.55572500
_cell_angle_beta   92.37849538
_cell_angle_gamma   92.90510885
_symmetry_Int_Tables_number   1
_chemical_formula_structural   AsP6RhO18
_chemical_formula_sum   'As1 P6 Rh1 O18'
_cell_volume   367.57435969
_cell_formula_units_Z   1
loop_
 _symmetry_equiv_pos_site_id
 _symmetry_equiv_pos_as_xyz
  1  'x, y, z'
loop_
 _atom_site_type_symbol
 _atom_site_label
 _atom_site_symmetry_multiplicity
 _atom_site_fract_x
 _atom_site_fract_y
 _atom_site_fract_z
 _atom_site_occupancy
  As  As0  1  0.00000000  0.50000000  0.50000000  1
  P  P0  1  0.52337480  0.96141374  0.17613006  1
  P  P1  1  0.23912984  0.31139468  0.22537191  1
  P  P2  1  0.49931335  0.32639774  0.64699520  1
  P  P3  1  0.47662520  0.03858626  0.82386994  1
  P  P4  1  0.76087016  0.68860532  0.77462809  1
  P  P5  1  0.50068665  0.67360226  0.35300480  1
  Rh  Rh0  1  0.00000000  0.00000000  0.00000000  1
  O  O0  1  0.49128633  0.18370803  0.22544745  1
  O  O1  1  0.09461150  0.26984319  0.09678819  1
  O  O2  1  0.32532702  0.88522193  0.06898812  1
  O  O3  1  0.21146325  0.35593926  0.63365918  1
  O  O4  1  0.65693173  0.32935112  0.53022384  1
  O  O5  1  0.19385162  0.07185663  0.84754553  1
  O  O6  1  0.62694151  0.47770298  0.76543582  1
  O  O7  1  0.90538850  0.73015681  0.90321181  1
  O  O8  1  0.54336353  0.12843926  0.69783323  1
  O  O9  1  0.78853675  0.64406074  0.36634082  1
  O  O10  1  0.90577202  0.70824718  0.65578428  1
  O  O11  1  0.80614838  0.92814337  0.15245447  1
  O  O12  1  0.50871367  0.81629197  0.77455255  1
  O  O13  1  0.67467298  0.11477807  0.93101188  1
  O  O14  1  0.45663647  0.87156074  0.30216677  1
  O  O15  1  0.09422798  0.29175282  0.34421572  1
  O  O16  1  0.37305849  0.52229702  0.23456418  1
  O  O17  1  0.34306827  0.67064888  0.46977616  1
loop_
_geom_bond_atom_site_label_1
_geom_bond_atom_site_label_2
_geom_bond_distance
_geom_bond_site_symmetry_2
As0 O10 2.108583 1_455
As0 O15 2.108583 1_555
As0 O17 2.123897 1_555
As0 O4 2.123897 1_455
As0 O3 2.130733 1_555
As0 O9 2.130733 1_455
O0 P0 1.580959 1_545
O0 P1 1.598377 1_555
O1 P1 1.491363 1_555
O1 Rh0 2.028336 1_555
O2 P0 1.494871 1_555
O2 Rh0 2.027275 1_565
O3 P2 1.491860 1_555
O4 P2 1.493738 1_555
O5 P3 1.492808 1_555
O5 Rh0 2.025354 1_556
O6 P4 1.579253 1_555
O6 P2 1.598601 1_555
O7 P4 1.491363 1_555
O7 Rh0 2.028336 1_666
O8 P2 1.577360 1_555
O8 P3 1.587748 1_555
O9 P5 1.491860 1_555
O10 P4 1.494518 1_555
O11 P0 1.492808 1_555
O11 Rh0 2.025354 1_665
O12 P3 1.580959 1_565
O12 P4 1.598377 1_555
O13 P3 1.494871 1_555
O13 Rh0 2.027275 1_656
O14 P5 1.577360 1_555
O14 P0 1.587748 1_555
O15 P1 1.494518 1_555
O16 P1 1.579253 1_555
O16 P5 1.598601 1_555
O17 P5 1.493738 1_555
