# generated using pymatgen
data_Ta4SiP3Ru4
_symmetry_space_group_name_H-M   'P 1'
_cell_length_a   3.74214700
_cell_length_b   6.31785066
_cell_length_c   7.17778058
_cell_angle_alpha   90.05420846
_cell_angle_beta   90.00000000
_cell_angle_gamma   90.00000000
_symmetry_Int_Tables_number   1
_chemical_formula_structural   Ta4SiP3Ru4
_chemical_formula_sum   'Ta4 Si1 P3 Ru4'
_cell_volume   169.69935198
_cell_formula_units_Z   1
loop_
 _symmetry_equiv_pos_site_id
 _symmetry_equiv_pos_as_xyz
  1  'x, y, z'
loop_
 _atom_site_type_symbol
 _atom_site_label
 _atom_site_symmetry_multiplicity
 _atom_site_fract_x
 _atom_site_fract_y
 _atom_site_fract_z
 _atom_site_occupancy
  Ta  Ta0  1  0.25000000  0.02291774  0.82599410  1
  Ta  Ta1  1  0.25000000  0.52203010  0.67339974  1
  Ta  Ta2  1  0.75000000  0.97589560  0.17305053  1
  Ta  Ta3  1  0.75000000  0.47613890  0.32595359  1
  Si  Si0  1  0.25000000  0.77158295  0.37581755  1
  P  P0  1  0.25000000  0.26936173  0.12410806  1
  P  P1  1  0.75000000  0.22971639  0.62356294  1
  P  P2  1  0.75000000  0.72929196  0.87626957  1
  Ru  Ru0  1  0.25000000  0.15095269  0.43815657  1
  Ru  Ru1  1  0.25000000  0.64568636  0.05668261  1
  Ru  Ru2  1  0.75000000  0.85610749  0.56936388  1
  Ru  Ru3  1  0.75000000  0.35031907  0.93764186  1
loop_
_geom_bond_atom_site_label_1
_geom_bond_atom_site_label_2
_geom_bond_distance
_geom_bond_site_symmetry_2
Si0 Ta1 2.656044 1_555
Si0 Ta3 2.666804 1_555
Si0 Ta3 2.666804 1_455
Si0 Ta2 2.699800 1_455
Si0 Ta2 2.699800 1_555
P0 Ru3 2.356941 1_454
P0 Ru3 2.356941 1_554
P0 Ru0 2.375735 1_555
P0 Ru1 2.426768 1_555
P0 Ta0 2.645121 1_554
P0 Ta2 2.657660 1_545
P0 Ta2 2.657660 1_445
P0 Ta3 2.702409 1_455
P0 Ta3 2.702409 1_555
P1 Ru0 2.349113 1_555
P1 Ru0 2.349113 1_655
P1 Ru3 2.378989 1_555
P1 Ru2 2.391886 1_545
P1 Ta3 2.644494 1_555
P1 Ta1 2.652975 1_655
P1 Ta1 2.652975 1_555
P1 Ta0 2.706056 1_555
P1 Ta0 2.706056 1_655
P2 Ru1 2.336268 1_656
P2 Ru1 2.336268 1_556
P2 Ru2 2.344790 1_555
P2 Ru3 2.434891 1_555
P2 Ta2 2.637987 1_556
P2 Ta0 2.659651 1_565
P2 Ta0 2.659651 1_665
P2 Ta1 2.707832 1_555
P2 Ta1 2.707832 1_655
Ru0 Si0 2.437795 1_545
Ru0 Ta1 2.887886 1_555
Ru0 Ta2 2.888090 1_545
Ru0 Ta2 2.888090 1_445
Ru0 Ta3 2.893708 1_455
Ru0 Ta3 2.893708 1_555
Ru0 Ta0 2.899690 1_555
Ru1 Si0 2.424134 1_555
Ru1 Ta1 2.859184 1_554
Ru1 Ta3 2.896177 1_455
Ru1 Ta3 2.896177 1_555
Ru1 Ta0 2.903330 1_564
Ru1 Ta2 2.923622 1_555
Ru1 Ta2 2.923622 1_455
Ru2 Si0 2.390534 1_655
Ru2 Si0 2.390534 1_555
Ru2 Ta0 2.828605 1_665
Ru2 Ta0 2.828605 1_565
Ru2 Ta1 2.918283 1_555
Ru2 Ta1 2.918283 1_655
Ru2 Ta2 2.944293 1_555
Ru2 Ta3 2.967725 1_555
Ru3 Ta1 2.877336 1_655
Ru3 Ta1 2.877336 1_555
Ru3 Ta3 2.897631 1_556
Ru3 Ta0 2.901478 1_555
Ru3 Ta0 2.901478 1_655
Ru3 Ta2 2.908354 1_546
