# generated using pymatgen
data_Hf6Zn5AuN2
_symmetry_space_group_name_H-M   'P 1'
_cell_length_a   8.45354248
_cell_length_b   8.45354299
_cell_length_c   8.48532297
_cell_angle_alpha   60.12381671
_cell_angle_beta   60.12381803
_cell_angle_gamma   60.00000184
_symmetry_Int_Tables_number   1
_chemical_formula_structural   Hf6Zn5AuN2
_chemical_formula_sum   'Hf12 Zn10 Au2 N4'
_cell_volume   429.57711985
_cell_formula_units_Z   2
loop_
 _symmetry_equiv_pos_site_id
 _symmetry_equiv_pos_as_xyz
  1  'x, y, z'
loop_
 _atom_site_type_symbol
 _atom_site_label
 _atom_site_symmetry_multiplicity
 _atom_site_fract_x
 _atom_site_fract_y
 _atom_site_fract_z
 _atom_site_occupancy
  Hf  Hf0  1  0.81497241  0.18960363  0.18045154  1
  Hf  Hf1  1  0.18960363  0.81497241  0.18045154  1
  Hf  Hf2  1  0.81497241  0.81497241  0.18045154  1
  Hf  Hf3  1  0.18816130  0.81131978  0.81235762  1
  Hf  Hf4  1  0.81131978  0.18816130  0.81235762  1
  Hf  Hf5  1  0.18816130  0.18816130  0.81235762  1
  Hf  Hf6  1  0.43656191  0.05516896  0.07170623  1
  Hf  Hf7  1  0.05516896  0.43656191  0.07170623  1
  Hf  Hf8  1  0.43656191  0.43656191  0.07170623  1
  Hf  Hf9  1  0.06362965  0.43582288  0.43691782  1
  Hf  Hf10  1  0.43582288  0.06362965  0.43691782  1
  Hf  Hf11  1  0.06362965  0.06362965  0.43691782  1
  Zn  Zn0  1  0.41457913  0.41457913  0.42403153  1
  Zn  Zn1  1  0.74681022  0.41457913  0.42403153  1
  Zn  Zn2  1  0.41457913  0.74681022  0.42403153  1
  Zn  Zn3  1  0.83404304  0.83404304  0.49787087  1
  Zn  Zn4  1  0.83533212  0.83533212  0.82682484  1
  Zn  Zn5  1  0.50251192  0.83533212  0.82682484  1
  Zn  Zn6  1  0.83533212  0.50251192  0.82682484  1
  Zn  Zn7  1  0.63016687  0.63016687  0.61879142  1
  Zn  Zn8  1  0.12087384  0.63016687  0.61879142  1
  Zn  Zn9  1  0.63016687  0.12087384  0.61879142  1
  Au  Au0  1  0.41316061  0.41316061  0.76051718  1
  Au  Au1  1  0.62455024  0.62455024  0.12634928  1
  N  N0  1  0.12445332  0.12445332  0.62664104  1
  N  N1  1  0.12520587  0.12520587  0.12512723  1
  N  N2  1  0.62446104  0.12520587  0.12512723  1
  N  N3  1  0.12520587  0.62446104  0.12512723  1
loop_
_geom_bond_atom_site_label_1
_geom_bond_atom_site_label_2
_geom_bond_distance
_geom_bond_site_symmetry_2
Hf0 N1 2.234946 1_655
Hf0 N2 2.234946 1_555
Hf0 Zn6 2.839663 1_554
Hf0 Zn3 2.863142 1_545
Hf0 Zn0 3.139213 1_555
Hf0 Zn1 3.139213 1_555
Hf1 N3 2.234946 1_555
Hf1 N1 2.234946 1_565
Hf1 Zn5 2.839663 1_554
Hf1 Zn3 2.863142 1_455
Hf1 Zn2 3.139213 1_555
Hf1 Zn0 3.139213 1_555
Hf2 N3 2.234946 1_655
Hf2 N2 2.234946 1_565
Hf2 Zn4 2.839660 1_554
Hf2 Zn3 2.863142 1_555
Hf2 Zn2 3.139213 1_555
Hf2 Zn1 3.139213 1_555
Hf3 N0 2.246007 1_565
Hf3 N3 2.253639 1_556
Hf3 Zn4 2.829685 1_455
Hf3 Zn5 2.829693 1_555
Hf3 Zn2 3.046565 1_555
Hf4 N0 2.246006 1_655
Hf4 N2 2.253639 1_556
Hf4 Zn4 2.829685 1_545
Hf4 Zn6 2.829693 1_555
Hf4 Zn1 3.046564 1_555
Hf5 N0 2.246000 1_555
Hf5 N1 2.253639 1_556
Hf5 Zn6 2.829688 1_455
Hf5 Zn5 2.829688 1_545
Hf5 Zn0 3.046565 1_555
Hf6 N1 2.236999 1_555
Hf6 N2 2.237007 1_555
Hf6 Zn2 2.816787 1_545
Hf6 Zn5 3.120743 1_544
Hf6 Zn4 3.120751 1_544
Hf7 N1 2.236999 1_555
Hf7 N3 2.237007 1_555
Hf7 Zn1 2.816787 1_455
Hf7 Zn6 3.120743 1_454
Hf7 Zn4 3.120751 1_454
Hf8 N3 2.237000 1_555
Hf8 N2 2.237001 1_555
Hf8 Zn0 2.816790 1_555
Hf8 Zn6 3.120758 1_554
Hf8 Zn5 3.120758 1_554
Hf9 N0 2.243672 1_555
Hf9 N3 2.251291 1_555
Hf9 Zn0 2.830106 1_555
Hf9 Zn1 2.830106 1_455
Hf9 Zn6 3.065533 1_455
Hf9 Zn3 3.093180 1_455
Hf10 N0 2.243672 1_555
Hf10 N2 2.251291 1_555
Hf10 Zn2 2.830106 1_545
Hf10 Zn0 2.830106 1_555
Hf10 Zn5 3.065533 1_545
Hf10 Zn3 3.093180 1_545
Hf11 N0 2.243678 1_555
Hf11 N1 2.251291 1_555
Hf11 Zn2 2.830106 1_545
Hf11 Zn1 2.830106 1_455
Hf11 Zn4 3.065530 1_445
Hf11 Zn3 3.093180 1_445
Zn0 Zn9 2.569997 1_555
Zn0 Zn8 2.569997 1_555
Zn0 Zn1 2.808530 1_555
Zn0 Zn2 2.808530 1_555
Zn1 Zn7 2.569994 1_555
Zn1 Zn9 2.570001 1_555
Zn1 Zn2 2.808530 1_555
Zn2 Zn7 2.569994 1_555
Zn2 Zn8 2.570001 1_555
Zn3 Zn8 2.537785 1_655
Zn3 Zn9 2.537785 1_565
Zn3 Zn7 2.537792 1_555
Zn3 Zn5 2.802175 1_555
Zn3 Zn6 2.802175 1_555
Zn3 Zn4 2.802180 1_555
Zn4 Zn9 2.563063 1_565
Zn4 Zn8 2.563063 1_655
Zn4 Zn5 2.813510 1_555
Zn4 Zn6 2.813510 1_555
Zn5 Zn9 2.563053 1_565
Zn5 Zn7 2.563067 1_555
Zn5 Zn6 2.813510 1_555
Zn6 Zn8 2.563053 1_655
Zn6 Zn7 2.563067 1_555
Au0 Zn8 2.673270 1_555
Au0 Zn7 2.673270 1_555
Au0 Zn9 2.673270 1_555
Au0 Zn0 2.843294 1_555
Au0 Zn1 2.843298 1_555
Au0 Zn2 2.843298 1_555
Au0 Hf8 2.851432 1_556
Au0 Hf7 2.851432 1_556
Au0 Hf6 2.851432 1_556
Au0 Hf5 3.062629 1_555
Au0 Hf4 3.062636 1_555
Au0 Hf3 3.062636 1_555
Au1 Zn1 2.626543 1_555
Au1 Zn0 2.626543 1_555
Au1 Zn2 2.626543 1_555
Au1 Zn5 2.638382 1_554
Au1 Zn6 2.638382 1_554
Au1 Zn4 2.638387 1_554
Au1 Hf7 3.042936 1_655
Au1 Hf6 3.042936 1_565
Au1 Hf8 3.042943 1_555
Au1 Hf1 3.075225 1_555
Au1 Hf2 3.075225 1_555
Au1 Hf0 3.075225 1_555
