# generated using pymatgen
data_Rb4Ba2ZrAs4
_symmetry_space_group_name_H-M   'P 1'
_cell_length_a   10.86954740
_cell_length_b   10.86954710
_cell_length_c   8.20369825
_cell_angle_alpha   88.40329027
_cell_angle_beta   88.40329085
_cell_angle_gamma   119.68071024
_symmetry_Int_Tables_number   1
_chemical_formula_structural   Rb4Ba2ZrAs4
_chemical_formula_sum   'Rb8 Ba4 Zr2 As8'
_cell_volume   840.78039765
_cell_formula_units_Z   2
loop_
 _symmetry_equiv_pos_site_id
 _symmetry_equiv_pos_as_xyz
  1  'x, y, z'
loop_
 _atom_site_type_symbol
 _atom_site_label
 _atom_site_symmetry_multiplicity
 _atom_site_fract_x
 _atom_site_fract_y
 _atom_site_fract_z
 _atom_site_occupancy
  Rb  Rb0  1  0.47429011  0.94314902  0.38561213  1
  Rb  Rb1  1  0.94314902  0.47429011  0.88561213  1
  Rb  Rb2  1  0.86583683  0.72131858  0.17159594  1
  Rb  Rb3  1  0.26684615  0.12663777  0.23412840  1
  Rb  Rb4  1  0.85555190  0.13976516  0.19812819  1
  Rb  Rb5  1  0.12663777  0.26684615  0.73412840  1
  Rb  Rb6  1  0.72131858  0.86583683  0.67159594  1
  Rb  Rb7  1  0.13976516  0.85555190  0.69812819  1
  Ba  Ba0  1  0.06787767  0.53414998  0.39565241  1
  Ba  Ba1  1  0.47573720  0.53323827  0.37960748  1
  Ba  Ba2  1  0.53414998  0.06787767  0.89565241  1
  Ba  Ba3  1  0.53323827  0.47573720  0.87960748  1
  Zr  Zr0  1  0.66449580  0.33394790  0.48913484  1
  Zr  Zr1  1  0.33394790  0.66449580  0.98913484  1
  As  As0  1  0.64426470  0.32957887  0.16788307  1
  As  As1  1  0.32957887  0.64426470  0.66788307  1
  As  As2  1  0.21116891  0.40707439  0.12520356  1
  As  As3  1  0.59938751  0.79514574  0.07545287  1
  As  As4  1  0.20929946  0.80104506  0.09527111  1
  As  As5  1  0.79514574  0.59938751  0.57545287  1
  As  As6  1  0.40707439  0.21116891  0.62520356  1
  As  As7  1  0.80104506  0.20929946  0.59527111  1
loop_
_geom_bond_atom_site_label_1
_geom_bond_atom_site_label_2
_geom_bond_distance
_geom_bond_site_symmetry_2
As0 Zr0 2.650500 1_555
As0 Ba3 3.379572 1_554
As0 Ba2 3.412188 1_554
As0 Rb1 3.564806 1_554
As0 Rb3 3.582985 1_555
As0 Rb2 3.713162 1_555
As0 Rb4 3.780000 1_555
As0 Ba1 3.914804 1_555
As0 Rb0 3.994906 1_545
As1 Zr1 2.650500 1_555
As1 Ba1 3.379572 1_555
As1 Ba0 3.412188 1_555
As1 Rb0 3.564806 1_555
As1 Rb5 3.582985 1_555
As1 Rb6 3.713162 1_555
As1 Rb7 3.780000 1_555
As1 Ba3 3.914804 1_555
As1 Rb1 3.994906 1_455
As2 Zr1 2.626987 1_554
As2 Ba1 3.330872 1_555
As2 Ba0 3.371198 1_555
As2 Rb3 3.487354 1_555
As2 Rb4 3.520385 1_455
As2 Rb5 3.536986 1_554
As2 Ba3 3.715820 1_554
As2 Rb1 3.902705 1_454
As3 Zr1 2.637192 1_554
As3 Ba1 3.429985 1_555
As3 Rb6 3.453780 1_554
As3 Rb2 3.470962 1_555
As3 Rb4 3.582492 1_565
As3 Ba3 3.613168 1_554
As3 Rb0 3.621161 1_555
As3 Ba2 3.655548 1_564
As4 Zr1 2.606631 1_554
As4 Rb2 3.422862 1_455
As4 Ba0 3.438833 1_555
As4 Rb7 3.465574 1_554
As4 Rb3 3.505115 1_565
As4 Rb0 3.540734 1_555
As4 Ba2 3.582263 1_564
As4 Rb1 3.792638 1_454
As5 Zr0 2.637192 1_555
As5 Ba3 3.429985 1_555
As5 Rb2 3.453780 1_555
As5 Rb6 3.470962 1_555
As5 Rb7 3.582492 1_655
As5 Ba1 3.613168 1_555
As5 Rb1 3.621161 1_555
As5 Ba0 3.655548 1_655
As6 Zr0 2.626987 1_555
As6 Ba3 3.330872 1_555
As6 Ba2 3.371198 1_555
As6 Rb5 3.487354 1_555
As6 Rb7 3.520385 1_545
As6 Rb3 3.536986 1_555
As6 Ba1 3.715820 1_555
As6 Rb0 3.902705 1_545
As7 Zr0 2.606631 1_555
As7 Rb6 3.422862 1_545
As7 Ba2 3.438833 1_555
As7 Rb4 3.465574 1_555
As7 Rb5 3.505115 1_655
As7 Rb1 3.540734 1_555
As7 Ba0 3.582263 1_655
As7 Rb0 3.792638 1_545
