# generated using pymatgen
data_BaGa2GeAu
_symmetry_space_group_name_H-M   'P 1'
_cell_length_a   6.33168820
_cell_length_b   6.33168782
_cell_length_c   6.33168797
_cell_angle_alpha   137.66772880
_cell_angle_beta   137.66773053
_cell_angle_gamma   61.41226730
_symmetry_Int_Tables_number   1
_chemical_formula_structural   BaGa2GeAu
_chemical_formula_sum   'Ba1 Ga2 Ge1 Au1'
_cell_volume   113.81666770
_cell_formula_units_Z   1
loop_
 _symmetry_equiv_pos_site_id
 _symmetry_equiv_pos_as_xyz
  1  'x, y, z'
loop_
 _atom_site_type_symbol
 _atom_site_label
 _atom_site_symmetry_multiplicity
 _atom_site_fract_x
 _atom_site_fract_y
 _atom_site_fract_z
 _atom_site_occupancy
  Ba  Ba0  1  0.99606891  0.99606891  1.00000000  1
  Ga  Ga0  1  0.74624485  0.24624485  0.50000000  1
  Ga  Ga1  1  0.24624485  0.74624485  0.50000000  1
  Ge  Ge0  1  0.38298957  0.38298957  0.00000000  1
  Au  Au0  1  0.62845182  0.62845182  1.00000000  1
loop_
_geom_bond_atom_site_label_1
_geom_bond_atom_site_label_2
_geom_bond_distance
_geom_bond_site_symmetry_2
Ba0 Ge0 3.459670 1_656
Ba0 Ge0 3.459670 1_667
Ba0 Ge0 3.459670 1_566
Ba0 Ge0 3.459670 1_555
Ba0 Ga1 3.553239 1_656
Ba0 Ga0 3.553239 1_555
Ba0 Ga0 3.553239 1_566
Ba0 Ga1 3.553239 1_555
Ba0 Ga0 3.556173 1_565
Ba0 Ga1 3.556173 1_666
Ba0 Ga1 3.556173 1_655
Ba0 Ga0 3.556173 1_666
Ga0 Ge0 2.728270 1_555
Ga0 Ge0 2.728271 1_656
Ga1 Ge0 2.728270 1_566
Ga1 Ge0 2.728271 1_555
Au0 Ga1 2.621373 1_555
Au0 Ga0 2.621373 1_566
Au0 Ga0 2.621373 1_555
Au0 Ga1 2.621373 1_656
Au0 Ge0 2.672578 1_556
Au0 Ba0 3.539919 1_545
Au0 Ba0 3.539919 1_556
Au0 Ba0 3.539920 1_455
Au0 Ba0 3.539920 1_444
