# generated using pymatgen
data_Rb2NaAsO4
_symmetry_space_group_name_H-M   'P 1'
_cell_length_a   5.98781256
_cell_length_b   5.88552713
_cell_length_c   7.92337798
_cell_angle_alpha   87.53835590
_cell_angle_beta   90.00000000
_cell_angle_gamma   90.00000000
_symmetry_Int_Tables_number   1
_chemical_formula_structural   Rb2NaAsO4
_chemical_formula_sum   'Rb4 Na2 As2 O8'
_cell_volume   278.97352136
_cell_formula_units_Z   2
loop_
 _symmetry_equiv_pos_site_id
 _symmetry_equiv_pos_as_xyz
  1  'x, y, z'
loop_
 _atom_site_type_symbol
 _atom_site_label
 _atom_site_symmetry_multiplicity
 _atom_site_fract_x
 _atom_site_fract_y
 _atom_site_fract_z
 _atom_site_occupancy
  Rb  Rb0  1  0.75000000  0.19787728  0.51004152  1
  Rb  Rb1  1  0.25000000  0.80212272  0.48995848  1
  Rb  Rb2  1  0.25000000  0.34793751  0.18061992  1
  Rb  Rb3  1  0.75000000  0.65206249  0.81938008  1
  Na  Na0  1  0.25000000  0.86781956  0.97501465  1
  Na  Na1  1  0.75000000  0.13218044  0.02498535  1
  As  As0  1  0.75000000  0.70857387  0.25344362  1
  As  As1  1  0.25000000  0.29142613  0.74655638  1
  O  O0  1  0.97867263  0.85244858  0.17660735  1
  O  O1  1  0.47867263  0.14755142  0.82339265  1
  O  O2  1  0.02132737  0.14755142  0.82339265  1
  O  O3  1  0.52132737  0.85244858  0.17660735  1
  O  O4  1  0.25000000  0.56054714  0.81784433  1
  O  O5  1  0.25000000  0.29677427  0.53172147  1
  O  O6  1  0.75000000  0.43945286  0.18215567  1
  O  O7  1  0.75000000  0.70322573  0.46827853  1
loop_
_geom_bond_atom_site_label_1
_geom_bond_atom_site_label_2
_geom_bond_distance
_geom_bond_site_symmetry_2
Na0 O4 2.239377 1_555
Na0 O3 2.277419 1_556
Na0 O0 2.277419 1_456
Na0 O1 2.420482 1_565
Na0 O2 2.420482 1_565
Na1 O6 2.239377 1_555
Na1 O2 2.277419 1_654
Na1 O1 2.277419 1_554
Na1 O0 2.420482 1_545
Na1 O3 2.420482 1_545
As0 O7 1.701157 1_555
As0 O6 1.704317 1_555
As0 O0 1.708284 1_555
As0 O3 1.708284 1_555
As1 O5 1.701157 1_555
As1 O4 1.704317 1_555
As1 O1 1.708284 1_555
As1 O2 1.708284 1_555
O0 Rb1 2.971256 1_655
O1 Rb0 2.971256 1_555
O2 Rb0 2.971256 1_455
O3 Rb1 2.971256 1_555
O4 Rb1 2.907512 1_555
O4 Rb3 3.042087 1_455
O4 Rb3 3.042087 1_555
O4 Rb2 3.085296 1_556
O5 Rb2 2.785272 1_555
O5 Rb1 2.944118 1_545
O5 Rb1 2.978434 1_555
O5 Rb0 3.056201 1_555
O5 Rb0 3.056201 1_455
O6 Rb0 2.907512 1_555
O6 Rb2 3.042087 1_555
O6 Rb2 3.042087 1_655
O6 Rb3 3.085296 1_554
O7 Rb3 2.785272 1_555
O7 Rb0 2.944118 1_565
O7 Rb0 2.978434 1_555
O7 Rb1 3.056201 1_555
O7 Rb1 3.056201 1_655
