# generated using pymatgen
data_NaCa3(CuAs)4
_symmetry_space_group_name_H-M   'P 1'
_cell_length_a   8.21911040
_cell_length_b   4.10644996
_cell_length_c   7.09523943
_cell_angle_alpha   90.00000000
_cell_angle_beta   90.12040614
_cell_angle_gamma   90.00000000
_symmetry_Int_Tables_number   1
_chemical_formula_structural   NaCa3(CuAs)4
_chemical_formula_sum   'Na1 Ca3 Cu4 As4'
_cell_volume   239.47349099
_cell_formula_units_Z   1
loop_
 _symmetry_equiv_pos_site_id
 _symmetry_equiv_pos_as_xyz
  1  'x, y, z'
loop_
 _atom_site_type_symbol
 _atom_site_label
 _atom_site_symmetry_multiplicity
 _atom_site_fract_x
 _atom_site_fract_y
 _atom_site_fract_z
 _atom_site_occupancy
  Na  Na0  1  0.99987615  0.25000100  0.24887474  1
  Ca  Ca0  1  0.49997676  0.25000100  0.25060517  1
  Ca  Ca1  1  0.49998966  0.74999900  0.74951883  1
  Ca  Ca2  1  0.00006161  0.74999900  0.75075755  1
  Cu  Cu0  1  0.75260953  0.74999900  0.08501322  1
  Cu  Cu1  1  0.24640228  0.74999900  0.41496591  1
  Cu  Cu2  1  0.74727585  0.25000100  0.58222291  1
  Cu  Cu3  1  0.25343599  0.25000100  0.91787396  1
  As  As0  1  0.25759967  0.74999900  0.08145773  1
  As  As1  1  0.74341456  0.74999900  0.41861277  1
  As  As2  1  0.24902891  0.25000100  0.58335563  1
  As  As3  1  0.75032904  0.25000100  0.91674259  1
loop_
_geom_bond_atom_site_label_1
_geom_bond_atom_site_label_2
_geom_bond_distance
_geom_bond_site_symmetry_2
Ca0 Cu2 3.106034 1_555
Ca0 Cu3 3.107955 1_554
Ca0 Cu0 3.149267 1_555
Ca0 Cu0 3.149278 1_545
Ca0 Cu1 3.151126 1_555
Ca0 Cu1 3.151137 1_545
Ca1 Cu3 3.123981 1_555
Ca1 Cu3 3.123992 1_565
Ca1 Cu2 3.125022 1_555
Ca1 Cu2 3.125033 1_565
Ca1 Cu0 3.155417 1_556
Ca1 Cu1 3.155624 1_555
Ca2 Cu0 3.127517 1_456
Ca2 Cu1 3.129872 1_555
Ca2 Cu3 3.154066 1_555
Ca2 Cu3 3.154077 1_565
Ca2 Cu2 3.154665 1_455
Ca2 Cu2 3.154675 1_465
Cu0 Na0 3.112520 1_555
Cu0 Na0 3.112531 1_565
Cu1 Na0 3.114484 1_455
Cu1 Na0 3.114495 1_465
Cu2 Na0 3.150419 1_555
Cu3 Na0 3.143147 1_456
As0 Cu3 2.358781 1_554
As0 Cu3 2.358796 1_564
As0 Cu1 2.368303 1_555
As0 Ca1 3.087977 1_554
As0 Ca0 3.100734 1_555
As0 Ca0 3.100744 1_565
As0 Ca2 3.156781 1_554
As0 Na0 3.181872 1_455
As0 Na0 3.181883 1_465
As1 Cu2 2.358841 1_555
As1 Cu2 2.358855 1_565
As1 Cu0 2.368334 1_555
As1 Ca1 3.087900 1_555
As1 Ca0 3.103230 1_555
As1 Ca0 3.103241 1_565
As1 Ca2 3.159510 1_655
As1 Na0 3.181190 1_555
As1 Na0 3.181200 1_565
As2 Cu3 2.373688 1_555
As2 Cu1 2.375610 1_555
As2 Cu1 2.375624 1_545
As2 Na0 3.131341 1_455
As2 Ca2 3.134323 1_555
As2 Ca2 3.134334 1_545
As2 Ca0 3.138266 1_555
As2 Ca1 3.138482 1_555
As2 Ca1 3.138492 1_545
As3 Cu2 2.373577 1_555
As3 Cu0 2.375164 1_556
As3 Cu0 2.375178 1_546
As3 Na0 3.120877 1_556
As3 Ca2 3.134634 1_655
As3 Ca2 3.134644 1_645
As3 Ca1 3.137959 1_555
As3 Ca1 3.137970 1_545
As3 Ca0 3.141000 1_556
