# generated using pymatgen
data_Ta4SnO12
_symmetry_space_group_name_H-M   'P 1'
_cell_length_a   6.87555581
_cell_length_b   6.87555581
_cell_length_c   6.87555581
_cell_angle_alpha   109.47122063
_cell_angle_beta   109.47122063
_cell_angle_gamma   109.47122063
_symmetry_Int_Tables_number   1
_chemical_formula_structural   Ta4SnO12
_chemical_formula_sum   'Ta4 Sn1 O12'
_cell_volume   250.20820367
_cell_formula_units_Z   1
loop_
 _symmetry_equiv_pos_site_id
 _symmetry_equiv_pos_as_xyz
  1  'x, y, z'
loop_
 _atom_site_type_symbol
 _atom_site_label
 _atom_site_symmetry_multiplicity
 _atom_site_fract_x
 _atom_site_fract_y
 _atom_site_fract_z
 _atom_site_occupancy
  Ta  Ta0  1  0.50000000  0.00000000  0.00000000  1
  Ta  Ta1  1  0.00000000  0.00000000  0.50000000  1
  Ta  Ta2  1  0.50000000  0.50000000  0.50000000  1
  Ta  Ta3  1  0.00000000  0.50000000  0.00000000  1
  Sn  Sn0  1  0.00000000  0.00000000  0.00000000  1
  O  O0  1  0.75699300  0.75699300  0.51398700  1
  O  O1  1  0.24300700  0.75699300  0.00000000  1
  O  O2  1  0.48601300  0.24300700  0.24300700  1
  O  O3  1  0.00000000  0.24300700  0.75699300  1
  O  O4  1  0.75699300  0.24300700  0.00000000  1
  O  O5  1  0.24300700  0.24300700  0.48601300  1
  O  O6  1  0.24300700  0.48601300  0.24300700  1
  O  O7  1  0.75699300  0.51398700  0.75699300  1
  O  O8  1  0.51398700  0.75699300  0.75699300  1
  O  O9  1  0.00000000  0.75699300  0.24300700  1
  O  O10  1  0.24300700  0.00000000  0.75699300  1
  O  O11  1  0.75699300  0.00000000  0.24300700  1
loop_
_geom_bond_atom_site_label_1
_geom_bond_atom_site_label_2
_geom_bond_distance
_geom_bond_site_symmetry_2
O0 Ta2 1.986351 1_555
O0 Ta1 1.986359 1_665
O0 Sn0 2.728413 1_666
O1 Ta0 1.986354 1_565
O1 Ta3 1.986354 1_555
O1 Sn0 2.728418 1_565
O2 Ta2 1.986351 1_555
O2 Ta0 1.986359 1_555
O2 Sn0 2.728413 1_555
O3 Ta3 1.986354 1_556
O3 Ta1 1.986354 1_555
O3 Sn0 2.728418 1_556
O4 Ta3 1.986354 1_655
O4 Ta0 1.986354 1_555
O4 Sn0 2.728418 1_655
O5 Ta2 1.986351 1_555
O5 Ta1 1.986359 1_555
O5 Sn0 2.728413 1_555
O6 Ta2 1.986351 1_555
O6 Ta3 1.986359 1_555
O6 Sn0 2.728413 1_555
O7 Ta2 1.986351 1_555
O7 Ta3 1.986359 1_656
O7 Sn0 2.728413 1_666
O8 Ta2 1.986351 1_555
O8 Ta0 1.986359 1_566
O8 Sn0 2.728413 1_666
O9 Ta1 1.986354 1_565
O9 Ta3 1.986354 1_555
O9 Sn0 2.728418 1_565
O10 Ta0 1.986354 1_556
O10 Ta1 1.986354 1_555
O10 Sn0 2.728418 1_556
O11 Ta1 1.986354 1_655
O11 Ta0 1.986354 1_555
O11 Sn0 2.728418 1_655
