# generated using pymatgen
data_Hf6Al16Cu2Ir5
_symmetry_space_group_name_H-M   'P 1'
_cell_length_a   8.58145469
_cell_length_b   8.67547633
_cell_length_c   8.58144079
_cell_angle_alpha   59.64084948
_cell_angle_beta   60.73215347
_cell_angle_gamma   59.64069552
_symmetry_Int_Tables_number   1
_chemical_formula_structural   Hf6Al16Cu2Ir5
_chemical_formula_sum   'Hf6 Al16 Cu2 Ir5'
_cell_volume   451.68803329
_cell_formula_units_Z   1
loop_
 _symmetry_equiv_pos_site_id
 _symmetry_equiv_pos_as_xyz
  1  'x, y, z'
loop_
 _atom_site_type_symbol
 _atom_site_label
 _atom_site_symmetry_multiplicity
 _atom_site_fract_x
 _atom_site_fract_y
 _atom_site_fract_z
 _atom_site_occupancy
  Hf  Hf0  1  0.69359131  0.30640370  0.30640497  1
  Hf  Hf1  1  0.30640869  0.69359630  0.69359503  1
  Hf  Hf2  1  0.32773279  0.67225166  0.32773279  1
  Hf  Hf3  1  0.67226721  0.32774834  0.67226721  1
  Hf  Hf4  1  0.30640597  0.30640370  0.69359031  1
  Hf  Hf5  1  0.69359403  0.69359630  0.30640969  1
  Al  Al0  1  0.33747631  0.33022129  0.33747631  1
  Al  Al1  1  0.66252369  0.66977871  0.66252369  1
  Al  Al2  1  0.33023074  0.33747958  0.99482316  1
  Al  Al3  1  0.33749488  0.99479193  0.33749488  1
  Al  Al4  1  0.66976926  0.66252042  0.00517684  1
  Al  Al5  1  0.66250512  0.00520807  0.66250512  1
  Al  Al6  1  0.99482316  0.33747958  0.33023074  1
  Al  Al7  1  0.00517684  0.66252042  0.66976926  1
  Al  Al8  1  0.12357873  0.11182019  0.12357873  1
  Al  Al9  1  0.87642127  0.88817981  0.87642127  1
  Al  Al10  1  0.11184479  0.12357620  0.64098891  1
  Al  Al11  1  0.12358755  0.64098300  0.12358755  1
  Al  Al12  1  0.88815521  0.87642380  0.35901109  1
  Al  Al13  1  0.87641245  0.35901700  0.87641245  1
  Al  Al14  1  0.64098891  0.12357620  0.11184579  1
  Al  Al15  1  0.35901109  0.87642380  0.88815421  1
  Cu  Cu0  1  0.00000000  0.50000000  0.00000000  1
  Cu  Cu1  1  0.50000000  0.00000000  0.50000000  1
  Ir  Ir0  1  0.50000000  0.00000000  0.00000000  1
  Ir  Ir1  1  0.00000000  0.50000000  0.50000000  1
  Ir  Ir2  1  0.00000000  0.00000000  0.50000000  1
  Ir  Ir3  1  0.50000000  0.50000000  0.00000000  1
  Ir  Ir4  1  0.00000000  0.00000000  0.00000000  1
loop_
_geom_bond_atom_site_label_1
_geom_bond_atom_site_label_2
_geom_bond_distance
_geom_bond_site_symmetry_2
Hf0 Ir3 3.079147 1_555
Hf0 Ir2 3.079271 1_655
Hf0 Hf3 3.149077 1_555
Hf0 Hf2 3.149089 1_555
Hf1 Ir3 3.079147 1_556
Hf1 Ir2 3.079271 1_565
Hf1 Hf2 3.149077 1_555
Hf1 Hf3 3.149089 1_555
Hf2 Hf5 3.149078 1_555
Hf2 Hf4 3.149090 1_555
Hf2 Ir3 3.205965 1_555
Hf2 Ir1 3.205974 1_555
Hf2 Ir2 3.206254 1_565
Hf2 Ir0 3.206263 1_565
Hf3 Hf4 3.149078 1_555
Hf3 Hf5 3.149090 1_555
Hf3 Ir3 3.205965 1_556
Hf3 Ir1 3.205974 1_655
Hf3 Ir2 3.206254 1_655
Hf3 Ir0 3.206263 1_556
Hf4 Ir1 3.079149 1_555
Hf4 Ir0 3.079273 1_556
Hf5 Ir1 3.079149 1_655
Hf5 Ir0 3.079273 1_565
Al0 Cu1 2.433472 1_555
Al0 Ir1 2.513358 1_555
Al0 Ir3 2.513362 1_555
Al0 Al11 2.701173 1_555
Al0 Al14 2.757634 1_555
Al0 Al10 2.757646 1_555
Al0 Hf4 2.841379 1_555
Al0 Hf0 2.841388 1_555
Al0 Hf2 2.885127 1_555
Al1 Cu1 2.433472 1_565
Al1 Ir1 2.513358 1_655
Al1 Ir3 2.513362 1_556
Al1 Al13 2.701173 1_555
Al1 Al15 2.757634 1_555
Al1 Al12 2.757646 1_555
Al1 Hf5 2.841379 1_555
Al1 Hf1 2.841388 1_555
Al1 Hf3 2.885127 1_555
Al2 Cu0 2.433515 1_556
Al2 Ir3 2.513034 1_556
Al2 Ir0 2.513280 1_556
Al2 Al8 2.757761 1_556
Al2 Hf4 2.841430 1_555
Al2 Hf1 2.841526 1_555
Al2 Hf3 2.885450 1_555
Al3 Cu1 2.433179 1_565
Al3 Ir0 2.513363 1_565
Al3 Ir2 2.513367 1_565
Al3 Al8 2.701391 1_565
Al3 Hf5 2.841338 1_555
Al3 Hf1 2.841347 1_555
Al3 Hf2 2.885251 1_555
Al4 Cu0 2.433515 1_655
Al4 Ir3 2.513034 1_555
Al4 Ir0 2.513280 1_565
Al4 Al9 2.757761 1_554
Al4 Hf5 2.841430 1_555
Al4 Hf0 2.841526 1_555
Al4 Hf2 2.885450 1_555
Al5 Cu1 2.433179 1_555
Al5 Ir0 2.513363 1_556
Al5 Ir2 2.513367 1_655
Al5 Al9 2.701391 1_545
Al5 Hf4 2.841338 1_555
Al5 Hf0 2.841347 1_555
Al5 Hf3 2.885251 1_555
Al6 Cu0 2.433514 1_655
Al6 Ir1 2.513030 1_655
Al6 Ir2 2.513284 1_655
Al6 Al8 2.757754 1_655
Al6 Hf0 2.841430 1_555
Al6 Hf5 2.841526 1_555
Al6 Hf3 2.885450 1_555
Al7 Cu0 2.433514 1_556
Al7 Ir1 2.513030 1_555
Al7 Ir2 2.513284 1_565
Al7 Al9 2.757754 1_455
Al7 Hf1 2.841430 1_555
Al7 Hf4 2.841526 1_555
Al7 Hf2 2.885450 1_555
Al8 Ir4 2.523850 1_555
Al8 Ir2 2.650085 1_555
Al8 Ir0 2.650086 1_555
Al8 Cu0 2.733100 1_555
Al8 Hf0 3.105931 1_455
Al8 Hf4 3.105942 1_554
Al8 Hf2 3.189898 1_545
Al9 Ir4 2.523850 1_666
Al9 Ir2 2.650085 1_665
Al9 Ir0 2.650086 1_566
Al9 Cu0 2.733100 1_656
Al9 Hf1 3.105931 1_655
Al9 Hf5 3.105942 1_556
Al9 Hf3 3.189898 1_565
Al10 Ir4 2.524331 1_556
Al10 Ir2 2.649740 1_555
Al10 Ir1 2.650048 1_555
Al10 Al6 2.701129 1_455
Al10 Cu1 2.732982 1_555
Al10 Al3 2.757567 1_545
Al10 Al9 2.888371 1_445
Al10 Al13 2.888634 1_455
Al10 Al15 2.966417 1_545
Al10 Hf4 3.105593 1_555
Al10 Hf1 3.105719 1_545
Al10 Hf3 3.189916 1_455
Al11 Ir4 2.524329 1_565
Al11 Ir3 2.650024 1_555
Al11 Ir1 2.650025 1_555
Al11 Cu0 2.732726 1_555
Al11 Al2 2.757487 1_554
Al11 Al6 2.757494 1_455
Al11 Al12 2.888634 1_455
Al11 Al15 2.888643 1_554
Al11 Al9 2.966422 1_454
Al11 Hf1 3.105858 1_554
Al11 Hf5 3.105869 1_455
Al11 Hf2 3.189550 1_555
Al12 Ir4 2.524331 1_665
Al12 Ir2 2.649740 1_665
Al12 Ir1 2.650048 1_655
Al12 Al7 2.701129 1_655
Al12 Cu1 2.732982 1_565
Al12 Al5 2.757567 1_565
Al12 Al8 2.888371 1_665
Al12 Al14 2.966417 1_565
Al12 Hf5 3.105593 1_555
Al12 Hf0 3.105719 1_565
Al12 Hf2 3.189916 1_655
Al13 Ir4 2.524329 1_656
Al13 Ir3 2.650024 1_556
Al13 Ir1 2.650025 1_655
Al13 Cu0 2.732726 1_656
Al13 Al4 2.757487 1_556
Al13 Al7 2.757494 1_655
Al13 Al14 2.888643 1_556
Al13 Al8 2.966422 1_656
Al13 Hf0 3.105858 1_556
Al13 Hf4 3.105869 1_655
Al13 Hf3 3.189550 1_555
Al14 Ir4 2.524331 1_655
Al14 Ir0 2.649747 1_555
Al14 Ir3 2.650047 1_555
Al14 Al2 2.701133 1_554
Al14 Cu1 2.732975 1_555
Al14 Al3 2.757575 1_545
Al14 Al9 2.888368 1_544
Al14 Hf0 3.105580 1_555
Al14 Hf5 3.105724 1_545
Al14 Hf3 3.189923 1_554
Al15 Ir4 2.524331 1_566
Al15 Ir0 2.649747 1_566
Al15 Ir3 2.650047 1_556
Al15 Al4 2.701133 1_556
Al15 Cu1 2.732975 1_565
Al15 Al5 2.757575 1_565
Al15 Al8 2.888368 1_566
Al15 Hf1 3.105580 1_555
Al15 Hf4 3.105724 1_565
Al15 Hf2 3.189923 1_556
Cu0 Hf5 3.144572 1_455
Cu0 Hf4 3.144572 1_554
Cu0 Hf1 3.144573 1_554
Cu0 Hf0 3.144573 1_455
Cu1 Hf4 3.144381 1_555
Cu1 Hf5 3.144381 1_545
Cu1 Hf0 3.144395 1_555
Cu1 Hf1 3.144395 1_545
