# generated using pymatgen
data_Nd2SO2
_symmetry_space_group_name_H-M   'P 1'
_cell_length_a   3.96867446
_cell_length_b   3.96867448
_cell_length_c   6.82766063
_cell_angle_alpha   90.00000000
_cell_angle_beta   90.00000000
_cell_angle_gamma   119.99999987
_symmetry_Int_Tables_number   1
_chemical_formula_structural   Nd2SO2
_chemical_formula_sum   'Nd2 S1 O2'
_cell_volume   93.13083846
_cell_formula_units_Z   1
loop_
 _symmetry_equiv_pos_site_id
 _symmetry_equiv_pos_as_xyz
  1  'x, y, z'
loop_
 _atom_site_type_symbol
 _atom_site_label
 _atom_site_symmetry_multiplicity
 _atom_site_fract_x
 _atom_site_fract_y
 _atom_site_fract_z
 _atom_site_occupancy
  Nd  Nd0  1  0.66666700  0.33333300  0.71918972  1
  Nd  Nd1  1  0.33333300  0.66666700  0.28081028  1
  S  S0  1  -0.00000000  -0.00000000  0.00000000  1
  O  O0  1  0.33333300  0.66666700  0.62907002  1
  O  O1  1  0.66666700  0.33333300  0.37092998  1
loop_
_geom_bond_atom_site_label_1
_geom_bond_atom_site_label_2
_geom_bond_distance
_geom_bond_site_symmetry_2
Nd0 O0 2.372492 1_655
Nd0 O0 2.372492 1_545
Nd0 O0 2.372498 1_555
Nd0 O1 2.377799 1_555
Nd0 S0 2.987652 1_656
Nd0 S0 2.987655 1_556
Nd0 S0 2.987655 1_666
Nd1 O1 2.372492 1_455
Nd1 O1 2.372492 1_565
Nd1 O1 2.372498 1_555
Nd1 O0 2.377799 1_555
Nd1 S0 2.987652 1_565
Nd1 S0 2.987655 1_665
Nd1 S0 2.987655 1_555
