# generated using pymatgen
data_Ba4CaCrN5
_symmetry_space_group_name_H-M   'P 1'
_cell_length_a   7.92752651
_cell_length_b   7.92752662
_cell_length_c   8.63728588
_cell_angle_alpha   76.08751957
_cell_angle_beta   76.08751656
_cell_angle_gamma   94.60171170
_symmetry_Int_Tables_number   1
_chemical_formula_structural   Ba4CaCrN5
_chemical_formula_sum   'Ba8 Ca2 Cr2 N10'
_cell_volume   505.91647390
_cell_formula_units_Z   2
loop_
 _symmetry_equiv_pos_site_id
 _symmetry_equiv_pos_as_xyz
  1  'x, y, z'
loop_
 _atom_site_type_symbol
 _atom_site_label
 _atom_site_symmetry_multiplicity
 _atom_site_fract_x
 _atom_site_fract_y
 _atom_site_fract_z
 _atom_site_occupancy
  Ba  Ba0  1  0.67075306  0.67075306  0.99740505  1
  Ba  Ba1  1  0.32924694  0.32924694  0.00259495  1
  Ba  Ba2  1  0.92187306  0.92187306  0.21931918  1
  Ba  Ba3  1  0.07812694  0.07812694  0.78068082  1
  Ba  Ba4  1  0.56372300  0.08987824  0.73439925  1
  Ba  Ba5  1  0.91012176  0.43627700  0.26560075  1
  Ba  Ba6  1  0.43627700  0.91012176  0.26560075  1
  Ba  Ba7  1  0.08987824  0.56372300  0.73439925  1
  Ca  Ca0  1  0.42030293  0.42030293  0.37302009  1
  Ca  Ca1  1  0.57969707  0.57969707  0.62697991  1
  Cr  Cr0  1  0.75124466  0.24875534  1.00000000  1
  Cr  Cr1  1  0.24875534  0.75124466  0.00000000  1
  N  N0  1  0.65198403  0.65198403  0.33485168  1
  N  N1  1  0.34801597  0.34801597  0.66514832  1
  N  N2  1  0.71371041  0.03168154  0.99273192  1
  N  N3  1  0.96831846  0.28628959  0.00726808  1
  N  N4  1  0.28628959  0.96831846  0.00726808  1
  N  N5  1  0.03168154  0.71371041  0.99273192  1
  N  N6  1  0.39184882  0.72014309  0.82259036  1
  N  N7  1  0.27985691  0.60815118  0.17740864  1
  N  N8  1  0.60815118  0.27985691  0.17740864  1
  N  N9  1  0.72014309  0.39184882  0.82259036  1
loop_
_geom_bond_atom_site_label_1
_geom_bond_atom_site_label_2
_geom_bond_distance
_geom_bond_site_symmetry_2
Ba0 N5 2.843584 1_655
Ba0 N2 2.843584 1_565
Ba0 N0 2.849327 1_556
Ba0 N9 2.963411 1_555
Ba0 N6 2.963411 1_555
Ba0 N7 3.054782 1_556
Ba0 N8 3.054782 1_556
Ba1 N3 2.843584 1_455
Ba1 N4 2.843584 1_545
Ba1 N1 2.849327 1_554
Ba1 N7 2.963405 1_555
Ba1 N8 2.963405 1_555
Ba1 N9 3.054784 1_554
Ba1 N6 3.054784 1_554
Ba2 N0 2.713529 1_555
Ba2 N5 2.876723 1_654
Ba2 N2 2.876723 1_564
Ba2 N4 2.965907 1_655
Ba2 N3 2.965908 1_565
Ba3 N1 2.713529 1_555
Ba3 N3 2.876723 1_456
Ba3 N4 2.876723 1_546
Ba3 N2 2.965907 1_455
Ba3 N5 2.965908 1_545
Ba4 N4 2.719493 1_546
Ba4 N2 2.733882 1_555
Ba4 N1 2.816812 1_555
Ba4 N9 2.950143 1_555
Ba4 N6 2.968910 1_545
Ba5 N5 2.719493 1_654
Ba5 N3 2.733882 1_555
Ba5 N0 2.816812 1_555
Ba5 N8 2.950148 1_555
Ba5 N7 2.968909 1_655
Ba6 N2 2.719493 1_564
Ba6 N4 2.733882 1_555
Ba6 N0 2.816812 1_555
Ba6 N7 2.950148 1_555
Ba6 N8 2.968909 1_565
Ba7 N3 2.719493 1_456
Ba7 N5 2.733882 1_555
Ba7 N1 2.816812 1_555
Ba7 N6 2.950143 1_555
Ba7 N9 2.968910 1_455
Ca0 N1 2.362196 1_555
Ca0 N0 2.394096 1_555
Ca0 N8 2.504513 1_555
Ca0 N7 2.504513 1_555
Ca1 N0 2.362196 1_555
Ca1 N1 2.394096 1_555
Ca1 N6 2.504508 1_555
Ca1 N9 2.504508 1_555
Cr0 N3 1.741437 1_556
Cr0 N2 1.741437 1_555
Cr0 N8 1.756790 1_556
Cr0 N9 1.756797 1_555
Cr1 N5 1.741437 1_554
Cr1 N4 1.741437 1_555
Cr1 N7 1.756790 1_555
Cr1 N6 1.756797 1_554
