# generated using pymatgen
data_Lu2FeCo3
_symmetry_space_group_name_H-M   'P 1'
_cell_length_a   4.92921367
_cell_length_b   4.92921431
_cell_length_c   4.92921386
_cell_angle_alpha   62.18875916
_cell_angle_beta   62.18875712
_cell_angle_gamma   62.18875402
_symmetry_Int_Tables_number   1
_chemical_formula_structural   Lu2FeCo3
_chemical_formula_sum   'Lu2 Fe1 Co3'
_cell_volume   88.82758711
_cell_formula_units_Z   1
loop_
 _symmetry_equiv_pos_site_id
 _symmetry_equiv_pos_as_xyz
  1  'x, y, z'
loop_
 _atom_site_type_symbol
 _atom_site_label
 _atom_site_symmetry_multiplicity
 _atom_site_fract_x
 _atom_site_fract_y
 _atom_site_fract_z
 _atom_site_occupancy
  Lu  Lu0  1  0.62693356  0.62693356  0.62693356  1
  Lu  Lu1  1  0.37306644  0.37306644  0.37306644  1
  Fe  Fe0  1  0.00000000  0.00000000  0.00000000  1
  Co  Co0  1  0.00000000  0.50000000  0.00000000  1
  Co  Co1  1  0.50000000  0.00000000  0.00000000  1
  Co  Co2  1  0.00000000  0.00000000  0.50000000  1
loop_
_geom_bond_atom_site_label_1
_geom_bond_atom_site_label_2
_geom_bond_distance
_geom_bond_site_symmetry_2
Fe0 Lu0 2.977107 1_544
Fe0 Lu1 2.977107 1_455
Fe0 Lu1 2.977107 1_545
Fe0 Lu0 2.977107 1_454
Fe0 Lu0 2.977107 1_445
Fe0 Lu1 2.977107 1_554
Co0 Fe0 2.464607 1_555
Co0 Fe0 2.464607 1_565
Co0 Co1 2.545689 1_555
Co0 Co1 2.545689 1_465
Co0 Co2 2.545689 1_564
Co0 Co2 2.545689 1_555
Co0 Lu1 2.857093 1_555
Co0 Lu0 2.857093 1_454
Co0 Lu0 2.958185 1_554
Co0 Lu1 2.958185 1_455
Co0 Lu0 2.958185 1_455
Co0 Lu1 2.958185 1_554
Co1 Fe0 2.464607 1_555
Co1 Fe0 2.464607 1_655
Co1 Co2 2.545689 1_654
Co1 Co2 2.545689 1_555
Co1 Lu1 2.857093 1_555
Co1 Lu0 2.857093 1_544
Co1 Lu0 2.958185 1_545
Co1 Lu1 2.958185 1_554
Co1 Lu0 2.958186 1_554
Co1 Lu1 2.958186 1_545
Co2 Fe0 2.464607 1_555
Co2 Fe0 2.464607 1_556
Co2 Lu1 2.857093 1_555
Co2 Lu0 2.857093 1_445
Co2 Lu0 2.958185 1_545
Co2 Lu1 2.958185 1_455
Co2 Lu0 2.958185 1_455
Co2 Lu1 2.958185 1_545
