# generated using pymatgen
data_Zr6Ta2Al15Rh7
_symmetry_space_group_name_H-M   'P 1'
_cell_length_a   8.79951380
_cell_length_b   8.79951321
_cell_length_c   8.79951311
_cell_angle_alpha   119.93822740
_cell_angle_beta   119.85370293
_cell_angle_gamma   90.18030358
_symmetry_Int_Tables_number   1
_chemical_formula_structural   Zr6Ta2Al15Rh7
_chemical_formula_sum   'Zr6 Ta2 Al15 Rh7'
_cell_volume   482.54823565
_cell_formula_units_Z   1
loop_
 _symmetry_equiv_pos_site_id
 _symmetry_equiv_pos_as_xyz
  1  'x, y, z'
loop_
 _atom_site_type_symbol
 _atom_site_label
 _atom_site_symmetry_multiplicity
 _atom_site_fract_x
 _atom_site_fract_y
 _atom_site_fract_z
 _atom_site_occupancy
  Zr  Zr0  1  0.79568304  0.29249477  0.07910410  1
  Zr  Zr1  1  0.21339067  0.29249477  0.49681173  1
  Zr  Zr2  1  0.20546570  0.70546570  0.50000000  1
  Zr  Zr3  1  0.21339067  0.71657794  0.92089590  1
  Zr  Zr4  1  0.79568304  0.71657794  0.50318827  1
  Zr  Zr5  1  0.78365777  0.28365777  0.50000000  1
  Ta  Ta0  1  0.37949296  0.12362149  0.74412853  1
  Ta  Ta1  1  0.37949296  0.63536443  0.25587147  1
  Al  Al0  1  0.99371741  0.49371741  0.50000000  1
  Al  Al1  1  0.16091111  0.33470840  0.17379529  1
  Al  Al2  1  0.16091111  0.98711682  0.82620471  1
  Al  Al3  1  0.15319215  0.33967927  0.81351188  1
  Al  Al4  1  0.52616538  0.33967927  0.18648812  1
  Al  Al5  1  0.83782739  0.65979356  0.82196717  1
  Al  Al6  1  0.83782739  0.01585921  0.17803283  1
  Al  Al7  1  0.83613031  0.66248194  0.17364937  1
  Al  Al8  1  0.48883258  0.66248194  0.82635063  1
  Al  Al9  1  0.37865595  0.12109989  0.25755606  1
  Al  Al10  1  0.86354483  0.12109989  0.74244394  1
  Al  Al11  1  0.62149447  0.87791416  0.25641869  1
  Al  Al12  1  0.62149447  0.36507578  0.74358131  1
  Al  Al13  1  0.62320532  0.87852485  0.74468147  1
  Al  Al14  1  0.13384238  0.87852485  0.25531853  1
  Rh  Rh0  1  0.00383465  0.99990151  0.50231999  1
  Rh  Rh1  1  0.49758152  0.99990151  0.99606685  1
  Rh  Rh2  1  0.49602873  0.49602873  0.00000000  1
  Rh  Rh3  1  0.49758152  0.50151466  0.49768001  1
  Rh  Rh4  1  0.00383465  0.50151466  0.00393315  1
  Rh  Rh5  1  0.00027840  0.00027840  1.00000000  1
  Rh  Rh6  1  0.49684548  0.99684548  0.50000000  1
loop_
_geom_bond_atom_site_label_1
_geom_bond_atom_site_label_2
_geom_bond_distance
_geom_bond_site_symmetry_2
Ta0 Zr1 3.025797 1_555
Ta0 Zr0 3.025797 1_556
Ta0 Zr2 3.049389 1_545
Ta1 Zr3 3.025790 1_554
Ta1 Zr4 3.025798 1_555
Ta1 Zr2 3.049389 1_555
Al0 Zr5 2.609948 1_555
Al0 Zr4 2.626500 1_555
Al0 Zr3 2.626506 1_655
Al0 Zr0 2.626506 1_555
Al0 Zr1 2.626506 1_655
Al0 Zr2 2.630929 1_655
Al1 Rh5 2.515269 1_554
Al1 Rh4 2.538675 1_555
Al1 Rh3 2.538691 1_555
Al1 Al10 2.783341 1_454
Al1 Al9 2.783358 1_555
Al1 Ta1 2.810386 1_555
Al1 Zr0 2.859806 1_455
Al1 Zr1 2.859817 1_555
Al1 Zr2 2.925956 1_555
Al2 Rh5 2.515256 1_565
Al2 Rh0 2.538685 1_555
Al2 Rh1 2.538693 1_555
Al2 Al9 2.783346 1_566
Al2 Ta0 2.810395 1_565
Al2 Zr4 2.859812 1_455
Al2 Zr3 2.859823 1_555
Al2 Zr2 2.925970 1_555
Al3 Rh0 2.526945 1_545
Al3 Rh4 2.526953 1_556
Al3 Rh2 2.545292 1_556
Al3 Ta0 2.833443 1_555
Al3 Ta1 2.833450 1_556
Al3 Zr5 2.851127 1_455
Al3 Zr3 2.921544 1_555
Al3 Zr1 2.921547 1_555
Al4 Rh3 2.526934 1_555
Al4 Rh1 2.526949 1_544
Al4 Rh2 2.545303 1_555
Al4 Al9 2.787175 1_555
Al4 Ta1 2.833441 1_555
Al4 Ta0 2.833454 1_554
Al4 Zr5 2.851126 1_555
Al4 Zr4 2.921553 1_555
Al4 Zr0 2.921570 1_555
Al5 Rh5 2.555951 1_665
Al5 Rh4 2.558846 1_656
Al5 Rh3 2.558854 1_555
Al5 Zr5 2.914570 1_555
Al5 Zr4 2.936036 1_555
Al5 Zr3 2.936036 1_655
Al6 Rh5 2.555946 1_654
Al6 Rh0 2.558849 1_645
Al6 Rh1 2.558856 1_544
Al6 Zr5 2.914578 1_555
Al6 Zr1 2.936039 1_655
Al6 Zr0 2.936044 1_555
Al7 Rh0 2.551505 1_655
Al7 Rh4 2.551512 1_655
Al7 Rh2 2.573403 1_555
Al7 Zr4 2.900485 1_555
Al7 Zr0 2.900488 1_555
Al7 Zr2 2.927212 1_655
Al8 Rh3 2.551505 1_555
Al8 Rh1 2.551505 1_555
Al8 Rh2 2.573410 1_556
Al8 Zr3 2.900487 1_555
Al8 Zr1 2.900487 1_555
Al8 Zr2 2.927207 1_555
Al9 Rh6 2.637218 1_545
Al9 Rh5 2.722628 1_554
Al9 Rh3 2.735317 1_555
Al9 Rh1 2.735317 1_544
Al9 Zr5 2.941237 1_555
Al9 Zr1 2.952042 1_555
Al9 Zr3 2.952048 1_544
Al10 Rh6 2.637225 1_545
Al10 Rh5 2.722628 1_655
Al10 Rh0 2.735310 1_645
Al10 Rh4 2.735317 1_656
Al10 Al2 2.783332 1_645
Al10 Al3 2.787185 1_655
Al10 Zr5 2.941236 1_555
Al10 Zr4 2.952048 1_545
Al10 Zr0 2.952048 1_556
Al10 Al13 3.014022 1_545
Al10 Al11 3.028902 1_545
Al10 Al12 3.028908 1_555
Al11 Rh6 2.646001 1_555
Al11 Rh2 2.744237 1_555
Al11 Rh1 2.750403 1_554
Al11 Rh0 2.750410 1_655
Al11 Al6 2.775133 1_565
Al11 Al7 2.775826 1_555
Al11 Al8 2.775829 1_554
Al11 Zr5 2.943177 1_565
Al11 Zr3 2.976087 1_554
Al11 Zr4 2.976102 1_555
Al11 Ta1 3.006829 1_555
Al11 Al9 3.028896 1_565
Al12 Rh6 2.646001 1_545
Al12 Rh2 2.744229 1_556
Al12 Rh3 2.750410 1_555
Al12 Rh4 2.750410 1_656
Al12 Al5 2.775136 1_555
Al12 Al7 2.775829 1_556
Al12 Al8 2.775829 1_555
Al12 Zr5 2.943185 1_555
Al12 Zr0 2.976087 1_556
Al12 Zr1 2.976087 1_555
Al12 Ta0 3.006823 1_555
Al12 Al9 3.028902 1_555
Al13 Rh6 2.611031 1_555
Al13 Rh1 2.709180 1_555
Al13 Rh3 2.709187 1_555
Al13 Rh5 2.712636 1_665
Al13 Al8 2.779230 1_555
Al13 Al6 2.790060 1_566
Al13 Al5 2.790070 1_555
Al13 Zr0 3.008627 1_566
Al13 Zr4 3.008635 1_555
Al13 Zr2 3.046257 1_555
Al13 Ta0 3.046277 1_565
Al13 Ta1 3.046283 1_555
Al14 Rh6 2.611038 1_555
Al14 Rh0 2.709180 1_555
Al14 Rh4 2.709187 1_555
Al14 Rh5 2.712629 1_564
Al14 Al7 2.779235 1_455
Al14 Al6 2.790046 1_465
Al14 Al5 2.790055 1_454
Al14 Zr1 3.008626 1_565
Al14 Zr3 3.008633 1_554
Al14 Al9 3.014016 1_565
Al14 Zr2 3.046263 1_555
Al14 Ta0 3.046283 1_565
Al14 Ta1 3.046290 1_555
Rh0 Ta0 2.702305 1_565
Rh0 Zr4 3.094307 1_455
Rh0 Zr2 3.142184 1_555
Rh0 Zr5 3.167123 1_465
Rh0 Zr1 3.196136 1_565
Rh1 Ta0 2.702305 1_565
Rh1 Zr3 3.094306 1_555
Rh1 Zr2 3.142183 1_555
Rh1 Zr5 3.167123 1_566
Rh1 Zr0 3.196136 1_566
Rh2 Ta0 2.678700 1_554
Rh2 Ta1 2.678700 1_555
Rh2 Zr3 3.176745 1_554
Rh2 Zr1 3.176751 1_554
Rh2 Zr0 3.176751 1_555
Rh2 Zr4 3.176752 1_555
Rh3 Ta1 2.702305 1_555
Rh3 Zr1 3.094300 1_555
Rh3 Zr2 3.142184 1_555
Rh3 Zr5 3.167123 1_555
Rh3 Zr4 3.196131 1_555
Rh4 Ta1 2.702305 1_555
Rh4 Zr0 3.094300 1_455
Rh4 Zr2 3.142183 1_555
Rh4 Zr5 3.167123 1_454
Rh4 Zr3 3.196130 1_554
Rh5 Zr1 3.134947 1_556
Rh5 Zr0 3.134947 1_456
Rh5 Zr4 3.134947 1_445
Rh5 Zr3 3.134953 1_545
Rh6 Ta1 2.597968 1_555
Rh6 Ta0 2.597968 1_565
