# generated using pymatgen
data_SrBi6(AsO5)4
_symmetry_space_group_name_H-M   'P 1'
_cell_length_a   7.08433188
_cell_length_b   7.85369666
_cell_length_c   9.32450057
_cell_angle_alpha   106.68211622
_cell_angle_beta   94.39345891
_cell_angle_gamma   111.71272222
_symmetry_Int_Tables_number   1
_chemical_formula_structural   SrBi6(AsO5)4
_chemical_formula_sum   'Sr1 Bi6 As4 O20'
_cell_volume   451.85855168
_cell_formula_units_Z   1
loop_
 _symmetry_equiv_pos_site_id
 _symmetry_equiv_pos_as_xyz
  1  'x, y, z'
loop_
 _atom_site_type_symbol
 _atom_site_label
 _atom_site_symmetry_multiplicity
 _atom_site_fract_x
 _atom_site_fract_y
 _atom_site_fract_z
 _atom_site_occupancy
  Sr  Sr0  1  0.00000000  0.50000000  0.00000000  1
  Bi  Bi0  1  0.66304066  0.37420786  0.48795359  1
  Bi  Bi1  1  0.43699800  0.29563409  0.08229165  1
  Bi  Bi2  1  0.33695934  0.62579214  0.51204641  1
  Bi  Bi3  1  0.19461226  0.21144308  0.66993622  1
  Bi  Bi4  1  0.80538774  0.78855692  0.33006378  1
  Bi  Bi5  1  0.56300200  0.70436591  0.91770835  1
  As  As0  1  0.04949501  0.77460645  0.75767073  1
  As  As1  1  0.65179526  0.09949203  0.74014008  1
  As  As2  1  0.95050499  0.22539355  0.24232927  1
  As  As3  1  0.34820474  0.90050797  0.25985992  1
  O  O0  1  0.84632459  0.97869230  0.16702534  1
  O  O1  1  0.54387286  0.89004489  0.36945431  1
  O  O2  1  0.76843756  0.32090289  0.24444555  1
  O  O3  1  0.36487792  0.13220525  0.31344090  1
  O  O4  1  0.93885011  0.69631418  0.56819900  1
  O  O5  1  0.06114989  0.30368582  0.43180100  1
  O  O6  1  0.34813249  0.81476454  0.07090732  1
  O  O7  1  0.65186751  0.18523546  0.92909268  1
  O  O8  1  0.88207199  0.25515571  0.72011335  1
  O  O9  1  0.54979198  0.52690549  0.36388649  1
  O  O10  1  0.11792801  0.74484429  0.27988665  1
  O  O11  1  0.45020802  0.47309451  0.63611351  1
  O  O12  1  0.23156244  0.67909711  0.75555445  1
  O  O13  1  0.67383385  0.58963478  0.10082307  1
  O  O14  1  0.45612714  0.10995511  0.63054569  1
  O  O15  1  0.32616615  0.41036522  0.89917693  1
  O  O16  1  0.87367078  0.67106762  0.85421506  1
  O  O17  1  0.63512208  0.86779475  0.68655910  1
  O  O18  1  0.15367541  0.02130770  0.83297466  1
  O  O19  1  0.12632922  0.32893238  0.14578494  1
loop_
_geom_bond_atom_site_label_1
_geom_bond_atom_site_label_2
_geom_bond_distance
_geom_bond_site_symmetry_2
Bi0 O9 2.187782 1_555
Bi0 O11 2.314021 1_555
Bi0 O3 2.334375 1_555
Bi0 O4 2.410228 1_555
Bi0 O2 2.415294 1_555
Bi1 O13 2.244204 1_555
Bi1 O15 2.354821 1_554
Bi1 O7 2.389161 1_554
Bi1 O19 2.408192 1_555
Bi1 O9 2.588165 1_555
Bi1 O2 2.603419 1_555
Bi1 O18 2.699041 1_554
Bi1 O3 2.797460 1_555
Bi2 O11 2.187782 1_555
Bi2 O9 2.314021 1_555
Bi2 O17 2.334375 1_555
Bi2 O5 2.410228 1_555
Bi2 O12 2.415294 1_555
Bi3 O15 2.139777 1_555
Bi3 O14 2.287209 1_555
Bi3 O11 2.303774 1_555
Bi3 O18 2.382347 1_555
Bi3 O8 2.422416 1_455
Bi3 O5 2.730945 1_555
Bi4 O13 2.139777 1_555
Bi4 O1 2.287209 1_555
Bi4 O9 2.303774 1_555
Bi4 O0 2.382347 1_555
Bi4 O10 2.422416 1_655
Bi4 O4 2.730945 1_555
Bi5 O15 2.244204 1_555
Bi5 O13 2.354821 1_556
Bi5 O6 2.389161 1_556
Bi5 O16 2.408192 1_555
Bi5 O11 2.588165 1_555
Bi5 O12 2.603419 1_555
Bi5 O0 2.699041 1_556
Bi5 O17 2.797460 1_555
As0 O16 1.692867 1_455
As0 O18 1.695053 1_565
As0 O4 1.709196 1_455
As0 O12 1.714046 1_555
As1 O7 1.695923 1_555
As1 O17 1.698461 1_545
As1 O14 1.699415 1_555
As1 O8 1.700844 1_555
As2 O19 1.692867 1_655
As2 O0 1.695053 1_545
As2 O5 1.709196 1_655
As2 O2 1.714046 1_555
As3 O6 1.695923 1_555
As3 O3 1.698461 1_565
As3 O1 1.699415 1_555
As3 O10 1.700844 1_555
O6 Sr0 2.632781 1_555
O7 Sr0 2.632781 1_656
O8 Sr0 2.608213 1_656
O10 Sr0 2.608213 1_555
O13 Sr0 2.806244 1_655
O15 Sr0 2.806244 1_556
O16 Sr0 2.491118 1_656
O19 Sr0 2.491118 1_555
