# generated using pymatgen
data_Nb2SbCl15
_symmetry_space_group_name_H-M   'P 1'
_cell_length_a   13.07890979
_cell_length_b   13.07891036
_cell_length_c   6.06826362
_cell_angle_alpha   89.23972343
_cell_angle_beta   89.23972414
_cell_angle_gamma   87.96066973
_symmetry_Int_Tables_number   1
_chemical_formula_structural   Nb2SbCl15
_chemical_formula_sum   'Nb4 Sb2 Cl30'
_cell_volume   1037.19053173
_cell_formula_units_Z   2
loop_
 _symmetry_equiv_pos_site_id
 _symmetry_equiv_pos_as_xyz
  1  'x, y, z'
loop_
 _atom_site_type_symbol
 _atom_site_label
 _atom_site_symmetry_multiplicity
 _atom_site_fract_x
 _atom_site_fract_y
 _atom_site_fract_z
 _atom_site_occupancy
  Nb  Nb0  1  0.55525498  0.77993891  0.52459245  1
  Nb  Nb1  1  0.22006109  0.44474502  0.47540755  1
  Nb  Nb2  1  0.10964735  0.89035265  1.00000000  1
  Nb  Nb3  1  0.88956270  0.11043730  0.00000000  1
  Sb  Sb0  1  0.44025478  0.22581391  0.47605138  1
  Sb  Sb1  1  0.77418609  0.55974522  0.52394862  1
  Cl  Cl0  1  0.53177418  0.33510061  0.24360682  1
  Cl  Cl1  1  0.66489939  0.46822582  0.75639318  1
  Cl  Cl2  1  0.47029297  0.66554737  0.75248031  1
  Cl  Cl3  1  0.33445263  0.52970703  0.24751969  1
  Cl  Cl4  1  0.57874681  0.19752054  0.70828920  1
  Cl  Cl5  1  0.80247946  0.42125319  0.29171080  1
  Cl  Cl6  1  0.86627076  0.24435510  0.76150694  1
  Cl  Cl7  1  0.75564490  0.13372924  0.23849306  1
  Cl  Cl8  1  0.13386981  0.75554882  0.23914876  1
  Cl  Cl9  1  0.24445118  0.86613019  0.76085124  1
  Cl  Cl10  1  0.00308797  0.19561509  0.21925153  1
  Cl  Cl11  1  0.80438491  0.99691203  0.78074847  1
  Cl  Cl12  1  0.99777735  0.80329025  0.78116435  1
  Cl  Cl13  1  0.19670975  0.00222265  0.21883565  1
  Cl  Cl14  1  0.05150202  0.05074765  0.78001908  1
  Cl  Cl15  1  0.94925235  0.94849798  0.21998092  1
  Cl  Cl16  1  0.28154702  0.28174184  0.25940163  1
  Cl  Cl17  1  0.71825816  0.71845298  0.74059837  1
  Cl  Cl18  1  0.08741322  0.46626034  0.24054106  1
  Cl  Cl19  1  0.53373966  0.91258678  0.75945894  1
  Cl  Cl20  1  0.91317825  0.53228685  0.75626295  1
  Cl  Cl21  1  0.46771315  0.08682175  0.24373705  1
  Cl  Cl22  1  0.13705692  0.33087056  0.70522514  1
  Cl  Cl23  1  0.66912944  0.86294308  0.29477486  1
  Cl  Cl24  1  0.86577243  0.67002197  0.29327960  1
  Cl  Cl25  1  0.32997803  0.13422757  0.70672040  1
  Cl  Cl26  1  0.38468945  0.38431455  0.69124392  1
  Cl  Cl27  1  0.61568545  0.61531055  0.30875608  1
  Cl  Cl28  1  0.19902591  0.57775355  0.71124524  1
  Cl  Cl29  1  0.42224645  0.80097409  0.28875476  1
loop_
_geom_bond_atom_site_label_1
_geom_bond_atom_site_label_2
_geom_bond_distance
_geom_bond_site_symmetry_2
Cl0 Sb0 2.342831 1_555
Cl1 Sb1 2.342831 1_555
Cl2 Nb0 2.325544 1_555
Cl3 Nb1 2.325544 1_555
Cl4 Sb0 2.325962 1_555
Cl5 Sb1 2.325963 1_555
Cl6 Nb3 2.271895 1_556
Cl7 Nb3 2.271895 1_555
Cl8 Nb2 2.284605 1_554
Cl9 Nb2 2.284605 1_555
Cl10 Nb3 2.329230 1_455
Cl11 Nb3 2.329230 1_566
Cl12 Nb2 2.326175 1_655
Cl13 Nb2 2.326175 1_544
Cl14 Nb2 2.569067 1_545
Cl14 Nb3 2.590800 1_456
Cl15 Nb2 2.569067 1_654
Cl15 Nb3 2.590800 1_565
Cl16 Sb0 2.551653 1_555
Cl16 Nb1 2.614196 1_555
Cl17 Sb1 2.551653 1_555
Cl17 Nb0 2.614195 1_555
Cl18 Nb1 2.267276 1_555
Cl19 Nb0 2.267276 1_555
Cl20 Sb1 2.330042 1_555
Cl21 Sb0 2.330043 1_555
Cl22 Nb1 2.315465 1_555
Cl23 Nb0 2.315465 1_555
Cl24 Sb1 2.345056 1_555
Cl25 Sb0 2.345056 1_555
Cl26 Sb0 2.543659 1_555
Cl26 Nb1 2.627256 1_555
Cl27 Sb1 2.543659 1_555
Cl27 Nb0 2.627256 1_555
Cl28 Nb1 2.274115 1_555
Cl29 Nb0 2.274115 1_555
