# generated using pymatgen
data_Cs3K3(InSb2)2
_symmetry_space_group_name_H-M   'P 1'
_cell_length_a   10.10831554
_cell_length_b   10.10831655
_cell_length_c   9.91703206
_cell_angle_alpha   132.13158582
_cell_angle_beta   67.54940456
_cell_angle_gamma   135.76783054
_symmetry_Int_Tables_number   1
_chemical_formula_structural   Cs3K3(InSb2)2
_chemical_formula_sum   'Cs3 K3 In2 Sb4'
_cell_volume   514.55732711
_cell_formula_units_Z   1
loop_
 _symmetry_equiv_pos_site_id
 _symmetry_equiv_pos_as_xyz
  1  'x, y, z'
loop_
 _atom_site_type_symbol
 _atom_site_label
 _atom_site_symmetry_multiplicity
 _atom_site_fract_x
 _atom_site_fract_y
 _atom_site_fract_z
 _atom_site_occupancy
  Cs  Cs0  1  0.67192830  0.75961178  0.43154008  1
  Cs  Cs1  1  0.32799869  0.23651030  0.56450899  1
  Cs  Cs2  1  0.17124683  0.74950827  0.92075510  1
  K  K0  1  0.24723482  0.24597397  0.99494017  1
  K  K1  1  0.74896620  0.74770535  0.99494017  1
  K  K2  1  0.82837419  0.28224498  0.11062018  1
  In  In0  1  0.74975160  0.24567764  0.49778842  1
  In  In1  1  0.25211078  0.74803782  0.49778842  1
  Sb  Sb0  1  0.40573476  0.79702937  0.20276413  1
  Sb  Sb1  1  0.09291075  0.30370107  0.39661182  1
  Sb  Sb2  1  0.90564093  0.68505993  0.59070286  1
  Sb  Sb3  1  0.59810113  0.19894152  0.79704166  1
loop_
_geom_bond_atom_site_label_1
_geom_bond_atom_site_label_2
_geom_bond_distance
_geom_bond_site_symmetry_2
Cs0 Sb3 3.808322 1_565
Cs0 Sb2 3.954197 1_555
Cs0 In0 3.964348 1_565
Cs0 In1 3.964354 1_555
Cs0 Sb1 4.045725 1_555
Cs0 Sb1 4.045726 1_665
Cs1 Sb0 3.832689 1_545
Cs1 Sb1 3.966465 1_555
Cs1 K1 3.974798 1_555
Cs1 K0 3.974798 1_555
Cs1 In1 3.997867 1_545
Cs1 In0 3.997877 1_555
Cs1 Sb2 4.044567 1_555
Cs1 Sb2 4.044582 1_445
Cs2 Sb1 3.815230 1_555
Cs2 Sb0 3.911445 1_556
Cs2 In0 3.946875 1_455
Cs2 In1 3.946881 1_555
Cs2 Sb3 4.013200 1_455
Cs2 Sb3 4.013207 1_565
K0 Sb1 3.475804 1_556
K0 Sb2 3.487424 1_445
K0 Sb0 3.488905 1_556
K0 Sb3 3.536203 1_555
K1 Sb1 3.475803 1_666
K1 Sb2 3.487416 1_555
K1 Sb0 3.488905 1_556
K1 Sb3 3.536199 1_555
K2 Sb2 3.482809 1_555
K2 Sb3 3.873533 1_554
K2 Sb0 4.018292 1_545
K2 Sb0 4.018299 1_655
In0 Sb0 2.930636 1_545
In0 Sb1 2.932378 1_655
In0 Sb2 2.940600 1_555
In0 Sb3 2.957862 1_555
In0 K2 3.829231 1_555
In1 Sb0 2.930632 1_555
In1 Sb1 2.932388 1_555
In1 Sb2 2.940605 1_455
In1 Sb3 2.957867 1_565
In1 K2 3.829232 1_455
