# generated using pymatgen
data_Ta7Ti7As8
_symmetry_space_group_name_H-M   'P 1'
_cell_length_a   7.82402665
_cell_length_b   7.82402761
_cell_length_c   14.12688696
_cell_angle_alpha   75.90746878
_cell_angle_beta   75.90746790
_cell_angle_gamma   25.72687362
_symmetry_Int_Tables_number   1
_chemical_formula_structural   Ta7Ti7As8
_chemical_formula_sum   'Ta7 Ti7 As8'
_cell_volume   363.48996388
_cell_formula_units_Z   1
loop_
 _symmetry_equiv_pos_site_id
 _symmetry_equiv_pos_as_xyz
  1  'x, y, z'
loop_
 _atom_site_type_symbol
 _atom_site_label
 _atom_site_symmetry_multiplicity
 _atom_site_fract_x
 _atom_site_fract_y
 _atom_site_fract_z
 _atom_site_occupancy
  Ta  Ta0  1  0.00107378  0.00107378  0.99883562  1
  Ta  Ta1  1  0.49950977  0.49950977  0.50060319  1
  Ta  Ta2  1  0.42774234  0.42774234  0.16872093  1
  Ta  Ta3  1  0.57281231  0.57281231  0.83183615  1
  Ta  Ta4  1  0.19573501  0.19573501  0.69376209  1
  Ta  Ta5  1  0.80423563  0.80423563  0.30651320  1
  Ta  Ta6  1  0.21085411  0.21085411  0.20332576  1
  Ti  Ti0  1  0.79041104  0.79041104  0.79597807  1
  Ti  Ti1  1  0.33815971  0.33815971  0.96614881  1
  Ti  Ti2  1  0.66213889  0.66213889  0.03447542  1
  Ti  Ti3  1  0.99905143  0.99905143  0.33855064  1
  Ti  Ti4  1  0.99932880  0.99932880  0.66096729  1
  Ti  Ti5  1  0.18055728  0.18055728  0.45192866  1
  Ti  Ti6  1  0.81876544  0.81876544  0.54833822  1
  As  As0  1  0.18202548  0.18202548  0.89506029  1
  As  As1  1  0.82253137  0.82253137  0.10166869  1
  As  As2  1  0.37020462  0.37020462  0.40591210  1
  As  As3  1  0.62902046  0.62902046  0.59633194  1
  As  As4  1  0.37196727  0.37196727  0.66426733  1
  As  As5  1  0.62593221  0.62593221  0.33729816  1
  As  As6  1  0.06167853  0.06167853  0.15447838  1
  As  As7  1  0.93626450  0.93626450  0.84499404  1
loop_
_geom_bond_atom_site_label_1
_geom_bond_atom_site_label_2
_geom_bond_distance
_geom_bond_site_symmetry_2
As0 Ti0 2.563419 1_545
As0 Ti0 2.563420 1_455
As0 Ti2 2.589700 1_456
As0 Ti2 2.589700 1_546
As0 Ta3 2.711258 1_455
As0 Ta3 2.711259 1_545
As0 Ta0 2.783519 1_555
As0 Ta4 2.798818 1_555
As0 Ti1 2.806554 1_555
As1 Ti1 2.555012 1_654
As1 Ti1 2.555012 1_564
As1 Ta6 2.603226 1_565
As1 Ta6 2.603227 1_655
As1 Ta2 2.695709 1_655
As1 Ta2 2.695710 1_565
As1 Ta0 2.748196 1_664
As1 Ti2 2.836945 1_555
As1 Ta5 2.837009 1_555
As2 Ta5 2.593162 1_455
As2 Ta5 2.593163 1_545
As2 Ti3 2.620849 1_545
As2 Ti3 2.620850 1_455
As2 Ti6 2.628582 1_455
As2 Ti6 2.628582 1_545
As2 Ta1 2.645490 1_555
As2 Ti5 2.802386 1_555
As3 Ta4 2.581476 1_655
As3 Ta4 2.581476 1_565
As3 Ti4 2.622938 1_455
As3 Ti4 2.622939 1_545
As3 Ti5 2.648111 1_655
As3 Ti5 2.648111 1_565
As3 Ta1 2.658382 1_555
As3 Ti6 2.803250 1_555
As4 Ti4 2.601152 1_545
As4 Ti4 2.601152 1_455
As4 Ta4 2.615721 1_555
As4 Ta1 2.623795 1_555
As4 Ti0 2.624441 1_455
As4 Ti0 2.624441 1_545
As4 Ti6 2.653076 1_455
As4 Ti6 2.653077 1_545
As5 Ti3 2.600735 1_455
As5 Ti3 2.600736 1_545
As5 Ta1 2.611377 1_555
As5 Ta5 2.645197 1_555
As5 Ti5 2.650453 1_655
As5 Ti5 2.650454 1_565
As5 Ta6 2.658874 1_655
As5 Ta6 2.658874 1_565
As6 Ti3 2.536477 1_445
As6 Ta6 2.537624 1_555
As6 Ta0 2.589345 1_554
As6 Ti2 2.637976 1_545
As6 Ti2 2.637976 1_455
As6 Ta2 2.654054 1_455
As6 Ta2 2.654054 1_545
As7 Ti0 2.489962 1_555
As7 Ti4 2.536692 1_555
As7 Ta0 2.602703 1_665
As7 Ti1 2.631304 1_565
As7 Ti1 2.631305 1_655
As7 Ta3 2.685965 1_655
As7 Ta3 2.685966 1_565
