# generated using pymatgen
data_Sr21Ga8Si6Bi
_symmetry_space_group_name_H-M   'P 1'
_cell_length_a   11.77490712
_cell_length_b   11.77490698
_cell_length_c   11.77490611
_cell_angle_alpha   60.00000242
_cell_angle_beta   60.00000284
_cell_angle_gamma   59.99999828
_symmetry_Int_Tables_number   1
_chemical_formula_structural   Sr21Ga8Si6Bi
_chemical_formula_sum   'Sr21 Ga8 Si6 Bi1'
_cell_volume   1154.40298725
_cell_formula_units_Z   1
loop_
 _symmetry_equiv_pos_site_id
 _symmetry_equiv_pos_as_xyz
  1  'x, y, z'
loop_
 _atom_site_type_symbol
 _atom_site_label
 _atom_site_symmetry_multiplicity
 _atom_site_fract_x
 _atom_site_fract_y
 _atom_site_fract_z
 _atom_site_occupancy
  Sr  Sr0  1  0.87264196  0.87264196  0.38207112  1
  Sr  Sr1  1  0.61792888  0.12735804  0.12735804  1
  Sr  Sr2  1  0.87264196  0.38207112  0.87264196  1
  Sr  Sr3  1  0.12735804  0.12735804  0.12735804  1
  Sr  Sr4  1  0.38207112  0.87264196  0.87264196  1
  Sr  Sr5  1  0.87264196  0.87264196  0.87264196  1
  Sr  Sr6  1  0.17845064  0.82154936  0.50000000  1
  Sr  Sr7  1  0.82154936  0.50000000  0.50000000  1
  Sr  Sr8  1  0.12735804  0.12735804  0.61792888  1
  Sr  Sr9  1  0.82154936  0.17845064  0.50000000  1
  Sr  Sr10  1  0.17845064  0.50000000  0.50000000  1
  Sr  Sr11  1  0.12735804  0.61792888  0.12735804  1
  Sr  Sr12  1  0.50000000  0.50000000  0.17845064  1
  Sr  Sr13  1  0.50000000  0.17845064  0.82154936  1
  Sr  Sr14  1  0.50000000  0.82154936  0.17845064  1
  Sr  Sr15  1  0.50000000  0.50000000  0.82154936  1
  Sr  Sr16  1  0.50000000  0.17845064  0.50000000  1
  Sr  Sr17  1  0.17845064  0.50000000  0.82154936  1
  Sr  Sr18  1  0.00000000  0.00000000  0.00000000  1
  Sr  Sr19  1  0.50000000  0.82154936  0.50000000  1
  Sr  Sr20  1  0.82154936  0.50000000  0.17845064  1
  Ga  Ga0  1  0.69343961  0.91968318  0.69343961  1
  Ga  Ga1  1  0.69343961  0.69343961  0.91968318  1
  Ga  Ga2  1  0.69343961  0.69343961  0.69343961  1
  Ga  Ga3  1  0.30656039  0.08031682  0.30656039  1
  Ga  Ga4  1  0.91968318  0.69343961  0.69343961  1
  Ga  Ga5  1  0.30656039  0.30656039  0.08031682  1
  Ga  Ga6  1  0.08031682  0.30656039  0.30656039  1
  Ga  Ga7  1  0.30656039  0.30656039  0.30656039  1
  Si  Si0  1  0.78684252  0.21315748  0.78684252  1
  Si  Si1  1  0.78684252  0.21315748  0.21315748  1
  Si  Si2  1  0.21315748  0.78684252  0.21315748  1
  Si  Si3  1  0.21315748  0.78684252  0.78684252  1
  Si  Si4  1  0.78684252  0.78684252  0.21315748  1
  Si  Si5  1  0.21315748  0.21315748  0.78684252  1
  Bi  Bi0  1  0.50000000  0.50000000  0.50000000  1
loop_
_geom_bond_atom_site_label_1
_geom_bond_atom_site_label_2
_geom_bond_distance
_geom_bond_site_symmetry_2
Ga0 Ga4 2.663997 1_555
Ga0 Ga1 2.663997 1_555
Ga0 Ga2 2.663997 1_555
Ga0 Sr13 3.311761 1_565
Ga0 Sr9 3.311762 1_565
Ga0 Sr16 3.311775 1_565
Ga0 Sr5 3.365513 1_555
Ga0 Sr0 3.365564 1_555
Ga0 Sr4 3.365564 1_555
Ga1 Ga2 2.663997 1_555
Ga1 Ga4 2.663997 1_555
Ga1 Sr20 3.311761 1_556
Ga1 Sr14 3.311761 1_556
Ga1 Sr12 3.311775 1_556
Ga1 Sr5 3.365513 1_555
Ga1 Sr2 3.365564 1_555
Ga1 Sr4 3.365564 1_555
Ga2 Ga4 2.663997 1_555
Ga2 Sr7 3.311780 1_555
Ga2 Sr19 3.311780 1_555
Ga2 Sr15 3.311780 1_555
Ga2 Sr2 3.365541 1_555
Ga2 Sr4 3.365541 1_555
Ga2 Sr0 3.365541 1_555
Ga3 Ga6 2.663997 1_555
Ga3 Ga5 2.663997 1_555
Ga3 Ga7 2.663997 1_555
Ga3 Sr14 3.311761 1_545
Ga3 Sr6 3.311762 1_545
Ga3 Sr19 3.311775 1_545
Ga3 Sr3 3.365513 1_555
Ga3 Sr8 3.365564 1_555
Ga3 Sr1 3.365564 1_555
Ga4 Sr17 3.311761 1_655
Ga4 Sr6 3.311762 1_655
Ga4 Sr10 3.311775 1_655
Ga4 Sr5 3.365513 1_555
Ga4 Sr0 3.365564 1_555
Ga4 Sr2 3.365564 1_555
Ga5 Ga7 2.663997 1_555
Ga5 Ga6 2.663997 1_555
Ga5 Sr17 3.311761 1_554
Ga5 Sr13 3.311761 1_554
Ga5 Sr15 3.311775 1_554
Ga5 Sr3 3.365513 1_555
Ga5 Sr11 3.365564 1_555
Ga5 Sr1 3.365564 1_555
Ga6 Ga7 2.663997 1_555
Ga6 Sr20 3.311761 1_455
Ga6 Sr9 3.311762 1_455
Ga6 Sr7 3.311775 1_455
Ga6 Sr3 3.365513 1_555
Ga6 Sr8 3.365564 1_555
Ga6 Sr11 3.365564 1_555
Ga7 Sr10 3.311780 1_555
Ga7 Sr16 3.311780 1_555
Ga7 Sr12 3.311780 1_555
Ga7 Sr11 3.365541 1_555
Ga7 Sr1 3.365541 1_555
Ga7 Sr8 3.365541 1_555
Si0 Sr2 3.322148 1_555
Si0 Sr1 3.322175 1_556
Si0 Sr8 3.322175 1_655
Si0 Sr5 3.322180 1_545
Si0 Sr9 3.402178 1_555
Si0 Sr15 3.402178 1_555
Si0 Sr7 3.402178 1_555
Si0 Sr13 3.402178 1_555
Si0 Sr18 3.549548 1_656
Si1 Sr1 3.322148 1_555
Si1 Sr2 3.322175 1_554
Si1 Sr0 3.322175 1_545
Si1 Sr3 3.322180 1_655
Si1 Sr9 3.402178 1_555
Si1 Sr12 3.402178 1_555
Si1 Sr20 3.402178 1_555
Si1 Sr16 3.402178 1_555
Si1 Sr18 3.549548 1_655
Si2 Sr11 3.322148 1_555
Si2 Sr4 3.322175 1_554
Si2 Sr0 3.322175 1_455
Si2 Sr3 3.322180 1_565
Si2 Sr6 3.402178 1_555
Si2 Sr12 3.402178 1_555
Si2 Sr10 3.402178 1_555
Si2 Sr14 3.402178 1_555
Si2 Sr18 3.549548 1_565
Si3 Sr4 3.322148 1_555
Si3 Sr11 3.322175 1_556
Si3 Sr8 3.322175 1_565
Si3 Sr5 3.322180 1_455
Si3 Sr6 3.402178 1_555
Si3 Sr15 3.402178 1_555
Si3 Sr17 3.402178 1_555
Si3 Sr19 3.402178 1_555
Si3 Sr18 3.549548 1_566
Si4 Sr0 3.322148 1_555
Si4 Sr1 3.322175 1_565
Si4 Sr11 3.322175 1_655
Si4 Sr5 3.322180 1_554
Si4 Sr7 3.402178 1_555
Si4 Sr20 3.402178 1_555
Si4 Sr19 3.402178 1_555
Si4 Sr14 3.402178 1_555
Si4 Sr18 3.549548 1_665
Si5 Sr8 3.322148 1_555
Si5 Sr4 3.322175 1_545
Si5 Sr2 3.322175 1_455
Si5 Sr3 3.322180 1_556
Si5 Sr17 3.402178 1_555
Si5 Sr10 3.402178 1_555
Si5 Sr13 3.402178 1_555
Si5 Sr16 3.402178 1_555
Si5 Sr18 3.549548 1_556
Bi0 Sr15 3.786214 1_555
Bi0 Sr12 3.786214 1_555
Bi0 Sr9 3.786214 1_555
Bi0 Sr6 3.786214 1_555
Bi0 Sr14 3.786214 1_555
Bi0 Sr13 3.786214 1_555
Bi0 Sr19 3.786214 1_555
Bi0 Sr16 3.786214 1_555
Bi0 Sr17 3.786214 1_555
Bi0 Sr20 3.786214 1_555
Bi0 Sr7 3.786214 1_555
Bi0 Sr10 3.786214 1_555
