# generated using pymatgen
data_Nb4VB2As
_symmetry_space_group_name_H-M   'P 1'
_cell_length_a   7.26997083
_cell_length_b   7.26997021
_cell_length_c   7.26997122
_cell_angle_alpha   129.84767184
_cell_angle_beta   129.84766752
_cell_angle_gamma   73.65040456
_symmetry_Int_Tables_number   1
_chemical_formula_structural   Nb4VB2As
_chemical_formula_sum   'Nb8 V2 B4 As2'
_cell_volume   220.98877949
_cell_formula_units_Z   2
loop_
 _symmetry_equiv_pos_site_id
 _symmetry_equiv_pos_as_xyz
  1  'x, y, z'
loop_
 _atom_site_type_symbol
 _atom_site_label
 _atom_site_symmetry_multiplicity
 _atom_site_fract_x
 _atom_site_fract_y
 _atom_site_fract_z
 _atom_site_occupancy
  Nb  Nb0  1  0.80434675  0.30434675  0.83838218  1
  Nb  Nb1  1  0.19565325  0.69565325  0.16161782  1
  Nb  Nb2  1  0.46596457  0.96596457  0.16161782  1
  Nb  Nb3  1  0.30434675  0.46596457  0.50000000  1
  Nb  Nb4  1  0.03403543  0.19565325  0.50000000  1
  Nb  Nb5  1  0.53403543  0.03403543  0.83838218  1
  Nb  Nb6  1  0.69565325  0.53403543  0.50000000  1
  Nb  Nb7  1  0.96596457  0.80434675  0.50000000  1
  V  V0  1  0.00000000  0.00000000  0.00000000  1
  V  V1  1  0.50000000  0.50000000  0.00000000  1
  B  B0  1  0.11870707  0.61870707  0.73741514  1
  B  B1  1  0.88129293  0.38129293  0.26258486  1
  B  B2  1  0.61870707  0.88129293  0.50000000  1
  B  B3  1  0.38129293  0.11870707  0.50000000  1
  As  As0  1  0.25000000  0.25000000  0.00000000  1
  As  As1  1  0.75000000  0.75000000  0.00000000  1
loop_
_geom_bond_atom_site_label_1
_geom_bond_atom_site_label_2
_geom_bond_distance
_geom_bond_site_symmetry_2
Nb0 V0 2.777994 1_656
Nb0 V1 2.777994 1_556
Nb1 V0 2.777994 1_565
Nb1 V1 2.777994 1_555
Nb2 V1 2.777994 1_555
Nb2 V0 2.777994 1_565
Nb3 V0 2.777994 1_555
Nb3 V1 2.777994 1_556
Nb4 V1 2.777994 1_556
Nb4 V0 2.777994 1_555
Nb5 V1 2.777994 1_556
Nb5 V0 2.777994 1_656
Nb6 V0 2.777994 1_666
Nb6 V1 2.777994 1_555
Nb7 V1 2.777994 1_555
Nb7 V0 2.777994 1_666
B0 B1 2.069047 1_455
B0 Nb4 2.391397 1_555
B0 Nb6 2.391398 1_455
B0 Nb7 2.391405 1_455
B0 Nb3 2.391405 1_555
B0 Nb1 2.427175 1_556
B0 Nb2 2.427182 1_556
B0 V0 2.460898 1_566
B0 V1 2.460899 1_556
B1 Nb7 2.391397 1_555
B1 Nb3 2.391398 1_655
B1 Nb4 2.391405 1_655
B1 Nb6 2.391405 1_555
B1 Nb0 2.427175 1_554
B1 Nb5 2.427182 1_554
B1 V0 2.460898 1_655
B1 V1 2.460899 1_555
B2 B3 2.069038 1_565
B2 Nb0 2.391399 1_565
B2 Nb5 2.391400 1_565
B2 Nb1 2.391400 1_555
B2 Nb2 2.391400 1_555
B2 Nb6 2.427182 1_555
B2 Nb7 2.427182 1_555
B2 V1 2.460901 1_555
B2 V0 2.460901 1_666
B3 Nb1 2.391399 1_545
B3 Nb2 2.391400 1_545
B3 Nb0 2.391400 1_555
B3 Nb5 2.391400 1_555
B3 Nb3 2.427182 1_555
B3 Nb4 2.427182 1_555
B3 V1 2.460901 1_556
B3 V0 2.460901 1_555
As0 Nb1 2.651302 1_555
As0 Nb2 2.651302 1_545
As0 Nb5 2.651303 1_554
As0 Nb7 2.651303 1_444
As0 Nb0 2.651303 1_454
As0 Nb6 2.651303 1_555
As0 Nb3 2.651303 1_555
As0 Nb4 2.651303 1_554
As0 V1 2.909689 1_555
As0 V0 2.909689 1_555
As1 Nb0 2.651302 1_554
As1 Nb5 2.651302 1_564
As1 Nb2 2.651303 1_555
As1 Nb4 2.651303 1_665
As1 Nb1 2.651303 1_655
As1 Nb3 2.651303 1_554
As1 Nb6 2.651303 1_554
As1 Nb7 2.651303 1_555
As1 V0 2.909689 1_665
As1 V1 2.909689 1_555
