# generated using pymatgen
data_Sr2In5PbAu6
_symmetry_space_group_name_H-M   'P 1'
_cell_length_a   4.59797942
_cell_length_b   7.92814946
_cell_length_c   9.20421251
_cell_angle_alpha   90.00000000
_cell_angle_beta   90.00000000
_cell_angle_gamma   90.00000000
_symmetry_Int_Tables_number   1
_chemical_formula_structural   Sr2In5PbAu6
_chemical_formula_sum   'Sr2 In5 Pb1 Au6'
_cell_volume   335.52546659
_cell_formula_units_Z   1
loop_
 _symmetry_equiv_pos_site_id
 _symmetry_equiv_pos_as_xyz
  1  'x, y, z'
loop_
 _atom_site_type_symbol
 _atom_site_label
 _atom_site_symmetry_multiplicity
 _atom_site_fract_x
 _atom_site_fract_y
 _atom_site_fract_z
 _atom_site_occupancy
  Sr  Sr0  1  0.50000000  0.00000000  0.72511234  1
  Sr  Sr1  1  0.00000000  0.50000000  0.26703189  1
  In  In0  1  0.00000000  0.30452585  0.88879551  1
  In  In1  1  0.50000000  0.19566231  0.11360431  1
  In  In2  1  0.00000000  0.69547415  0.88879551  1
  In  In3  1  0.50000000  0.80433769  0.11360431  1
  In  In4  1  0.50000000  0.50000000  0.63696801  1
  Pb  Pb0  1  0.00000000  0.00000000  0.36554534  1
  Au  Au0  1  0.00000000  0.72392403  0.59514477  1
  Au  Au1  1  0.50000000  0.75033195  0.40954963  1
  Au  Au2  1  0.50000000  0.50000000  0.95353699  1
  Au  Au3  1  0.00000000  0.00000000  0.03761797  1
  Au  Au4  1  0.50000000  0.24966805  0.40954963  1
  Au  Au5  1  0.00000000  0.27607597  0.59514477  1
loop_
_geom_bond_atom_site_label_1
_geom_bond_atom_site_label_2
_geom_bond_distance
_geom_bond_site_symmetry_2
In0 Sr0 3.658428 1_455
In0 Sr0 3.658428 1_555
In0 Sr1 3.810727 1_556
In1 Sr1 3.619583 1_655
In1 Sr1 3.619583 1_555
In2 Sr0 3.658428 1_565
In2 Sr0 3.658428 1_465
In2 Sr1 3.810727 1_556
In3 Sr1 3.619583 1_555
In3 Sr1 3.619583 1_655
Au0 In2 2.712219 1_555
Au0 Au1 2.871817 1_455
Au0 Au1 2.871817 1_555
Au0 In4 2.930058 1_455
Au0 In4 2.930058 1_555
Au0 Pb0 3.042480 1_565
Au0 Sr0 3.392210 1_465
Au0 Sr0 3.392210 1_565
Au0 Sr1 3.503174 1_555
Au1 In3 2.757389 1_555
Au1 In4 2.884515 1_555
Au1 Pb0 3.060628 1_665
Au1 Pb0 3.060628 1_565
Au1 Sr1 3.308321 1_555
Au1 Sr1 3.308321 1_655
Au1 Sr0 3.514855 1_565
Au2 In3 2.827077 1_556
Au2 In1 2.827077 1_556
Au2 In2 2.835871 1_555
Au2 In2 2.835871 1_655
Au2 In0 2.835871 1_555
Au2 In0 2.835871 1_655
Au2 In4 2.913768 1_555
Au2 Sr1 3.689351 1_556
Au2 Sr1 3.689351 1_656
Au3 In0 2.775843 1_554
Au3 In2 2.775843 1_544
Au3 In1 2.860219 1_455
Au3 In1 2.860219 1_555
Au3 In3 2.860219 1_545
Au3 In3 2.860219 1_445
Au3 Pb0 3.018313 1_555
Au3 Sr0 3.682234 1_554
Au3 Sr0 3.682234 1_454
Au4 In1 2.757389 1_555
Au4 Au5 2.871817 1_655
Au4 Au5 2.871817 1_555
Au4 In4 2.884515 1_555
Au4 Pb0 3.060628 1_555
Au4 Pb0 3.060628 1_655
Au4 Sr1 3.308321 1_655
Au4 Sr1 3.308321 1_555
Au4 Sr0 3.514855 1_555
Au5 In0 2.712219 1_555
Au5 In4 2.930058 1_455
Au5 In4 2.930058 1_555
Au5 Pb0 3.042480 1_555
Au5 Sr0 3.392210 1_455
Au5 Sr0 3.392210 1_555
Au5 Sr1 3.503174 1_555
