# generated using pymatgen
data_La2Se3
_symmetry_space_group_name_H-M   'P 1'
_cell_length_a   15.07542665
_cell_length_b   15.07541738
_cell_length_c   15.07551530
_cell_angle_alpha   144.82823882
_cell_angle_beta   144.82982271
_cell_angle_gamma   50.58971060
_symmetry_Int_Tables_number   1
_chemical_formula_structural   La2Se3
_chemical_formula_sum   'La16 Se24'
_cell_volume   1131.04720007
_cell_formula_units_Z   8
loop_
 _symmetry_equiv_pos_site_id
 _symmetry_equiv_pos_as_xyz
  1  'x, y, z'
loop_
 _atom_site_type_symbol
 _atom_site_label
 _atom_site_symmetry_multiplicity
 _atom_site_fract_x
 _atom_site_fract_y
 _atom_site_fract_z
 _atom_site_occupancy
  La  La0  1  0.20240006  0.32341746  0.60398888  1
  La  La1  1  0.41561218  0.91560022  0.49996355  1
  La  La2  1  0.99500935  0.62501578  0.87004729  1
  La  La3  1  0.33438341  0.33436639  0.00001366  1
  La  La4  1  0.03066911  0.92676855  0.37925900  1
  La  La5  1  0.75499494  0.12499257  0.13001948  1
  La  La6  1  0.54753222  0.65142636  0.62077665  1
  La  La7  1  0.34864933  0.96930768  0.89613529  1
  La  La8  1  0.37500722  0.24501365  0.36999008  1
  La  La9  1  0.66560396  0.66559757  -0.00000327  1
  La  La10  1  0.87501698  0.00501253  0.63000159  1
  La  La11  1  0.07325917  0.45250088  0.10391986  1
  La  La12  1  0.08431384  0.58436736  0.49993910  1
  La  La13  1  0.67655946  0.28055156  0.87897927  1
  La  La14  1  0.71938648  0.59843063  0.39597961  1
  La  La15  1  0.40155086  0.79752654  0.12092749  1
  Se  Se0  1  0.71344695  0.82276661  0.74590272  1
  Se  Se1  1  0.36304004  0.60961830  0.10586692  1
  Se  Se2  1  0.50371474  0.25716097  0.89408987  1
  Se  Se3  1  0.24624549  0.64027074  0.25323388  1
  Se  Se4  1  0.38707147  0.99299879  0.74678393  1
  Se  Se5  1  0.07687565  0.96755177  0.25412798  1
  Se  Se6  1  0.67298670  0.42697395  0.39038140  1
  Se  Se7  1  0.03662435  0.28264051  0.60967251  1
  Se  Se8  1  0.06206462  0.15384344  0.74886578  1
  Se  Se9  1  0.68680569  0.93796722  0.09180728  1
  Se  Se10  1  0.57298857  0.96341001  0.24600140  1
  Se  Se11  1  0.84615828  0.59498509  0.90818325  1
  Se  Se12  1  0.71737799  0.32699619  0.75397929  1
  Se  Se13  1  0.00695323  0.75378552  0.39399440  1
  Se  Se14  1  0.40503543  0.31320269  0.25119733  1
  Se  Se15  1  0.35978394  0.61295537  0.60600102  1
  Se  Se16  1  0.39038717  0.49624608  0.75341666  1
  Se  Se17  1  0.03244614  0.28657601  0.10931643  1
  Se  Se18  1  0.90357167  0.31206375  0.24860556  1
  Se  Se19  1  0.17725008  0.92314819  0.89069126  1
  Se  Se20  1  0.06343362  0.65497387  0.75135143  1
  Se  Se21  1  0.74280778  0.63697642  0.24657878  1
  Se  Se22  1  0.34504756  0.09638713  0.40844039  1
  Se  Se23  1  0.68793529  0.93660566  0.59157200  1
loop_
_geom_bond_atom_site_label_1
_geom_bond_atom_site_label_2
_geom_bond_distance
_geom_bond_site_symmetry_2
La0 Se7 3.002969 1_555
La0 Se18 3.008047 1_455
La0 Se16 3.039289 1_555
La0 Se22 3.090790 1_555
La0 Se2 3.108080 1_555
La0 Se20 3.235286 1_555
La0 Se5 3.239454 1_545
La0 Se1 3.415840 1_556
La1 Se5 3.025189 1_555
La1 Se0 3.025414 1_555
La1 Se1 3.056723 1_555
La1 Se2 3.057020 1_565
La1 Se3 3.205045 1_555
La1 Se4 3.205308 1_555
La1 Se23 3.244708 1_555
La1 Se22 3.245026 1_565
La2 Se7 3.038755 1_655
La2 Se5 3.040111 1_656
La2 Se11 3.065234 1_555
La2 Se20 3.066009 1_655
La2 Se0 3.236314 1_555
La2 Se6 3.238345 1_555
La2 Se3 3.306420 1_656
La2 Se1 3.307850 1_656
La3 Se6 3.023735 1_555
La3 Se7 3.023769 1_554
La3 Se3 3.055593 1_555
La3 Se4 3.055678 1_544
La3 Se2 3.205372 1_554
La3 Se1 3.205502 1_555
La3 Se8 3.244057 1_554
La3 Se14 3.244264 1_555
La4 Se5 3.001673 1_555
La4 Se9 3.006403 1_455
La4 Se13 3.039494 1_555
La4 Se8 3.090588 1_565
La4 Se4 3.108320 1_555
La4 Se11 3.238407 1_454
La4 Se7 3.239059 1_565
La4 Se3 3.417952 1_555
La5 Se6 3.038726 1_555
La5 Se0 3.040399 1_544
La5 Se9 3.065087 1_545
La5 Se18 3.065603 1_555
La5 Se5 3.236300 1_645
La5 Se7 3.238233 1_655
La5 Se4 3.306369 1_544
La5 Se2 3.308327 1_554
La6 Se0 3.001742 1_555
La6 Se11 3.006288 1_555
La6 Se15 3.039642 1_555
La6 Se14 3.090563 1_555
La6 Se3 3.108245 1_555
La6 Se9 3.238141 1_556
La6 Se6 3.238871 1_555
La6 Se4 3.417669 1_555
La7 Se19 3.001769 1_555
La7 Se14 3.006763 1_566
La7 Se4 3.040074 1_555
La7 Se9 3.089964 1_556
La7 Se15 3.108035 1_555
La7 Se10 3.238337 1_556
La7 Se8 3.238629 1_565
La7 Se13 3.418406 1_555
La8 Se12 3.038617 1_555
La8 Se17 3.040249 1_555
La8 Se14 3.065103 1_555
La8 Se22 3.065390 1_555
La8 Se19 3.236184 1_544
La8 Se10 3.237881 1_545
La8 Se15 3.306552 1_555
La8 Se16 3.308071 1_555
La9 Se12 3.023890 1_554
La9 Se10 3.024134 1_555
La9 Se13 3.055200 1_655
La9 Se15 3.055248 1_554
La9 Se16 3.204654 1_554
La9 Se21 3.204783 1_555
La9 Se11 3.244915 1_554
La9 Se9 3.244957 1_555
La10 Se10 3.038838 1_545
La10 Se19 3.040170 1_645
La10 Se8 3.065277 1_655
La10 Se23 3.065680 1_545
La10 Se17 3.236340 1_656
La10 Se12 3.238090 1_555
La10 Se13 3.306620 1_645
La10 Se21 3.307986 1_545
La11 Se17 3.001804 1_555
La11 Se8 3.006512 1_554
La11 Se3 3.039683 1_555
La11 Se11 3.090433 1_454
La11 Se13 3.108372 1_555
La11 Se14 3.238309 1_555
La11 Se12 3.239194 1_454
La11 Se15 3.417983 1_555
La12 Se17 3.025292 1_555
La12 Se19 3.025704 1_555
La12 Se21 3.056516 1_455
La12 Se16 3.057330 1_555
La12 Se13 3.205597 1_555
La12 Se15 3.205999 1_555
La12 Se20 3.244532 1_555
La12 Se18 3.244616 1_455
La13 Se12 3.003331 1_555
La13 Se23 3.007480 1_545
La13 Se2 3.038814 1_555
La13 Se18 3.089898 1_556
La13 Se21 3.108713 1_556
La13 Se22 3.235022 1_555
La13 Se17 3.239711 1_656
La13 Se16 3.415857 1_555
La14 Se6 3.003349 1_555
La14 Se20 3.008138 1_655
La14 Se21 3.039002 1_555
La14 Se23 3.090396 1_555
La14 Se1 3.107938 1_555
La14 Se18 3.235401 1_555
La14 Se0 3.239568 1_555
La14 Se2 3.415984 1_554
La15 Se10 3.003215 1_555
La15 Se22 3.008101 1_565
La15 Se1 3.038845 1_555
La15 Se20 3.089722 1_554
La15 Se16 3.108046 1_554
La15 Se23 3.235714 1_555
La15 Se19 3.239585 1_554
La15 Se21 3.415535 1_555
