# generated using pymatgen
data_Na6ScGaAs4
_symmetry_space_group_name_H-M   'P 1'
_cell_length_a   8.37149916
_cell_length_b   8.37149905
_cell_length_c   8.37149991
_cell_angle_alpha   131.06340245
_cell_angle_beta   67.58775011
_cell_angle_gamma   136.41682085
_symmetry_Int_Tables_number   1
_chemical_formula_structural   Na6ScGaAs4
_chemical_formula_sum   'Na6 Sc1 Ga1 As4'
_cell_volume   299.87336238
_cell_formula_units_Z   1
loop_
 _symmetry_equiv_pos_site_id
 _symmetry_equiv_pos_as_xyz
  1  'x, y, z'
loop_
 _atom_site_type_symbol
 _atom_site_label
 _atom_site_symmetry_multiplicity
 _atom_site_fract_x
 _atom_site_fract_y
 _atom_site_fract_z
 _atom_site_occupancy
  Na  Na0  1  0.78570509  0.16634903  0.00164311  1
  Na  Na1  1  0.71429291  0.71593602  0.38064394  1
  Na  Na2  1  0.75000000  0.25000000  0.50000000  1
  Na  Na3  1  0.25000000  0.75000000  0.50000000  1
  Na  Na4  1  0.33529307  0.33364997  0.61935606  1
  Na  Na5  1  0.16470693  0.78406298  0.99835689  1
  Sc  Sc0  1  0.25000000  0.25000000  0.00000000  1
  Ga  Ga0  1  0.75000100  0.75000100  0.00000000  1
  As  As0  1  0.40321741  0.71873191  0.10092749  1
  As  As1  1  0.09678259  0.19771008  0.31551550  1
  As  As2  1  0.88219458  0.78126709  0.68448550  1
  As  As3  1  0.61780542  0.30228992  0.89907251  1
loop_
_geom_bond_atom_site_label_1
_geom_bond_atom_site_label_2
_geom_bond_distance
_geom_bond_site_symmetry_2
As0 Ga0 2.555307 1_555
As0 Sc0 2.633560 1_555
As0 Na5 2.920553 1_554
As0 Na2 2.922118 1_565
As0 Na3 2.990793 1_555
As0 Na4 2.997734 1_554
As0 Na0 3.108827 1_565
As1 Ga0 2.555304 1_445
As1 Sc0 2.633568 1_555
As1 Na4 2.920546 1_555
As1 Na2 2.922118 1_455
As1 Na3 2.990795 1_555
As1 Na5 2.997734 1_544
As1 Na1 3.108833 1_445
As2 Ga0 2.555296 1_556
As2 Sc0 2.633564 1_666
As2 Na1 2.920553 1_555
As2 Na2 2.922115 1_555
As2 Na3 2.990796 1_655
As2 Na0 2.997733 1_566
As2 Na4 3.108827 1_555
As3 Ga0 2.555311 1_556
As3 Sc0 2.633568 1_556
As3 Na0 2.920546 1_556
As3 Na2 2.922118 1_555
As3 Na3 2.990795 1_545
As3 Na1 2.997734 1_556
As3 Na5 3.108827 1_655
