# generated using pymatgen
data_BaAl2O4
_symmetry_space_group_name_H-M   'P 1'
_cell_length_a   5.20973849
_cell_length_b   5.20973901
_cell_length_c   8.91852126
_cell_angle_alpha   90.00000000
_cell_angle_beta   90.00000000
_cell_angle_gamma   120.00000301
_symmetry_Int_Tables_number   1
_chemical_formula_structural   BaAl2O4
_chemical_formula_sum   'Ba2 Al4 O8'
_cell_volume   209.63093008
_cell_formula_units_Z   2
loop_
 _symmetry_equiv_pos_site_id
 _symmetry_equiv_pos_as_xyz
  1  'x, y, z'
loop_
 _atom_site_type_symbol
 _atom_site_label
 _atom_site_symmetry_multiplicity
 _atom_site_fract_x
 _atom_site_fract_y
 _atom_site_fract_z
 _atom_site_occupancy
  Ba  Ba0  1  -0.00000000  0.00000000  0.25000000  1
  Ba  Ba1  1  -0.00000000  0.00000000  0.75000000  1
  Al  Al0  1  0.66666700  0.33333300  0.55443705  1
  Al  Al1  1  0.33333300  0.66666700  0.05443705  1
  Al  Al2  1  0.33333300  0.66666700  0.44556295  1
  Al  Al3  1  0.66666700  0.33333300  0.94556295  1
  O  O0  1  0.35535628  -0.00000000  0.50000000  1
  O  O1  1  0.64464372  0.64464372  0.50000000  1
  O  O2  1  0.35535628  0.35535628  -0.00000000  1
  O  O3  1  0.66666700  0.33333300  0.75000000  1
  O  O4  1  0.64464372  0.00000000  -0.00000000  1
  O  O5  1  0.00000000  0.35535628  0.50000000  1
  O  O6  1  0.33333300  0.66666700  0.25000000  1
  O  O7  1  -0.00000000  0.64464372  -0.00000000  1
loop_
_geom_bond_atom_site_label_1
_geom_bond_atom_site_label_2
_geom_bond_distance
_geom_bond_site_symmetry_2
Ba0 O0 2.898036 1_555
Ba0 O4 2.898036 1_455
Ba0 O1 2.898036 1_445
Ba0 O2 2.898036 1_555
Ba0 O7 2.898036 1_545
Ba0 O5 2.898036 1_555
Ba0 O6 3.007841 1_545
Ba0 O6 3.007845 1_445
Ba0 O6 3.007846 1_555
Ba1 O0 2.898036 1_555
Ba1 O4 2.898036 1_456
Ba1 O1 2.898036 1_445
Ba1 O2 2.898036 1_556
Ba1 O7 2.898036 1_546
Ba1 O5 2.898036 1_555
Ba1 O3 3.007841 1_455
Ba1 O3 3.007845 1_555
Ba1 O3 3.007846 1_445
Al0 O3 1.744132 1_555
Al0 O5 1.750808 1_655
Al0 O0 1.750810 1_555
Al0 O1 1.750813 1_555
Al1 O6 1.744132 1_555
Al1 O7 1.750808 1_555
Al1 O4 1.750810 1_565
Al1 O2 1.750813 1_555
Al2 O6 1.744132 1_555
Al2 O0 1.750808 1_565
Al2 O5 1.750810 1_555
Al2 O1 1.750813 1_555
Al3 O3 1.744132 1_555
Al3 O4 1.750808 1_556
Al3 O7 1.750810 1_656
Al3 O2 1.750813 1_556
