# generated using pymatgen
data_HfCu4Ag
_symmetry_space_group_name_H-M   'P 1'
_cell_length_a   4.87451248
_cell_length_b   4.87451245
_cell_length_c   4.87451238
_cell_angle_alpha   60.00000048
_cell_angle_beta   60.00000067
_cell_angle_gamma   59.99999266
_symmetry_Int_Tables_number   1
_chemical_formula_structural   HfCu4Ag
_chemical_formula_sum   'Hf1 Cu4 Ag1'
_cell_volume   81.89898714
_cell_formula_units_Z   1
loop_
 _symmetry_equiv_pos_site_id
 _symmetry_equiv_pos_as_xyz
  1  'x, y, z'
loop_
 _atom_site_type_symbol
 _atom_site_label
 _atom_site_symmetry_multiplicity
 _atom_site_fract_x
 _atom_site_fract_y
 _atom_site_fract_z
 _atom_site_occupancy
  Hf  Hf0  1  0.00000000  0.00000000  0.00000000  1
  Cu  Cu0  1  0.62469066  0.62469066  0.12592601  1
  Cu  Cu1  1  0.62469066  0.12592601  0.62469066  1
  Cu  Cu2  1  0.12592601  0.62469066  0.62469066  1
  Cu  Cu3  1  0.62469066  0.62469066  0.62469066  1
  Ag  Ag0  1  0.25000000  0.25000000  0.25000000  1
loop_
_geom_bond_atom_site_label_1
_geom_bond_atom_site_label_2
_geom_bond_distance
_geom_bond_site_symmetry_2
Cu0 Cu3 2.431234 1_555
Cu0 Cu1 2.431235 1_555
Cu0 Cu2 2.431235 1_555
Cu0 Cu3 2.443278 1_554
Cu0 Cu1 2.443278 1_564
Cu0 Cu2 2.443278 1_654
Cu0 Hf0 2.858577 1_655
Cu0 Hf0 2.858577 1_565
Cu0 Hf0 2.858586 1_665
Cu1 Cu2 2.431234 1_555
Cu1 Cu3 2.431235 1_555
Cu1 Cu2 2.443278 1_645
Cu1 Cu3 2.443278 1_545
Cu1 Hf0 2.858577 1_655
Cu1 Hf0 2.858577 1_556
Cu1 Hf0 2.858586 1_656
Cu2 Cu3 2.431235 1_555
Cu2 Cu3 2.443278 1_455
Cu2 Hf0 2.858577 1_565
Cu2 Hf0 2.858577 1_556
Cu2 Hf0 2.858586 1_566
Cu3 Hf0 2.858581 1_656
Cu3 Hf0 2.858581 1_566
Cu3 Hf0 2.858582 1_665
Ag0 Cu2 2.857291 1_555
Ag0 Cu1 2.857291 1_555
Ag0 Cu0 2.857292 1_555
Ag0 Cu3 2.857295 1_545
Ag0 Cu3 2.857295 1_455
Ag0 Cu3 2.857296 1_554
Ag0 Cu0 2.857300 1_545
Ag0 Cu0 2.857300 1_455
Ag0 Cu2 2.857300 1_554
Ag0 Cu1 2.857300 1_554
Ag0 Cu2 2.857300 1_545
Ag0 Cu1 2.857300 1_455
Ag0 Hf0 2.985017 1_565
Ag0 Hf0 2.985017 1_655
Ag0 Hf0 2.985017 1_555
Ag0 Hf0 2.985017 1_556
