# generated using pymatgen
data_TaPd5Pt3
_symmetry_space_group_name_H-M   'P 1'
_cell_length_a   6.23221890
_cell_length_b   6.23221765
_cell_length_c   6.21666209
_cell_angle_alpha   95.74243919
_cell_angle_beta   95.74244166
_cell_angle_gamma   143.16698111
_symmetry_Int_Tables_number   1
_chemical_formula_structural   TaPd5Pt3
_chemical_formula_sum   'Ta1 Pd5 Pt3'
_cell_volume   137.29919094
_cell_formula_units_Z   1
loop_
 _symmetry_equiv_pos_site_id
 _symmetry_equiv_pos_as_xyz
  1  'x, y, z'
loop_
 _atom_site_type_symbol
 _atom_site_label
 _atom_site_symmetry_multiplicity
 _atom_site_fract_x
 _atom_site_fract_y
 _atom_site_fract_z
 _atom_site_occupancy
  Ta  Ta0  1  0.00188955  0.00188955  0.00378010  1
  Pd  Pd0  1  0.33124523  0.99934868  0.33059491  1
  Pd  Pd1  1  0.99934868  0.33124523  0.33059491  1
  Pd  Pd2  1  0.67022968  0.00015177  0.67038146  1
  Pd  Pd3  1  0.00015177  0.67022968  0.67038146  1
  Pd  Pd4  1  0.33515005  0.33515005  0.67029910  1
  Pt  Pt0  1  0.66161399  0.33696665  0.99858164  1
  Pt  Pt1  1  0.33696665  0.66161399  0.99858164  1
  Pt  Pt2  1  0.66340139  0.66340139  0.32680578  1
loop_
_geom_bond_atom_site_label_1
_geom_bond_atom_site_label_2
_geom_bond_distance
_geom_bond_site_symmetry_2
Pd0 Ta0 2.750494 1_565
Pd0 Pt0 2.776909 1_454
Pd0 Pt0 2.776910 1_564
Pd0 Pt2 2.780019 1_565
Pd0 Pt2 2.780026 1_455
Pd0 Pd1 2.797984 1_455
Pd0 Pd1 2.797985 1_565
Pd0 Pd4 2.804269 1_565
Pd0 Pd3 2.809109 1_555
Pd0 Pd3 2.809111 1_665
Pd0 Pt1 2.820861 1_554
Pd0 Pd2 2.830745 1_565
Pd1 Ta0 2.750494 1_655
Pd1 Pt1 2.776909 1_544
Pd1 Pt1 2.776910 1_654
Pd1 Pt2 2.780020 1_655
Pd1 Pt2 2.780025 1_545
Pd1 Pd4 2.804270 1_655
Pd1 Pd2 2.809109 1_555
Pd1 Pd2 2.809111 1_665
Pd1 Pt0 2.820861 1_554
Pd1 Pd3 2.830745 1_655
Pd2 Pt1 2.760945 1_655
Pd2 Pt1 2.760949 1_545
Pd2 Ta0 2.769596 1_656
Pd2 Pd4 2.771701 1_545
Pd2 Pd4 2.771705 1_655
Pd2 Pt2 2.812511 1_545
Pd2 Pt0 2.813766 1_555
Pd2 Pd3 2.814622 1_655
Pd2 Pd3 2.814623 1_545
Pd3 Pt0 2.760945 1_565
Pd3 Pt0 2.760949 1_455
Pd3 Ta0 2.769596 1_566
Pd3 Pd4 2.771702 1_455
Pd3 Pd4 2.771704 1_565
Pd3 Pt2 2.812511 1_455
Pd3 Pt1 2.813766 1_555
Pd4 Pt1 2.726213 1_555
Pd4 Pt0 2.726213 1_555
Pd4 Ta0 2.782685 1_666
Pd4 Ta0 2.782691 1_556
Pd4 Pt2 2.824712 1_555
Pd4 Pt2 2.824722 1_445
Pt0 Pt2 2.725969 1_556
Pt0 Ta0 2.750010 1_666
Pt0 Ta0 2.750011 1_556
Pt0 Pt1 2.859532 1_545
Pt0 Pt1 2.859533 1_655
Pt1 Pt2 2.725969 1_556
Pt1 Ta0 2.750010 1_556
Pt1 Ta0 2.750011 1_666
Pt2 Ta0 2.739465 1_555
Pt2 Ta0 2.739472 1_665
