# generated using pymatgen
data_ZnAg(NO3)4
_symmetry_space_group_name_H-M   'P 1'
_cell_length_a   7.69198578
_cell_length_b   7.16706713
_cell_length_c   8.05205397
_cell_angle_alpha   90.00000000
_cell_angle_beta   84.73741874
_cell_angle_gamma   90.00000000
_symmetry_Int_Tables_number   1
_chemical_formula_structural   ZnAg(NO3)4
_chemical_formula_sum   'Zn2 Ag2 N8 O24'
_cell_volume   442.03038070
_cell_formula_units_Z   2
loop_
 _symmetry_equiv_pos_site_id
 _symmetry_equiv_pos_as_xyz
  1  'x, y, z'
loop_
 _atom_site_type_symbol
 _atom_site_label
 _atom_site_symmetry_multiplicity
 _atom_site_fract_x
 _atom_site_fract_y
 _atom_site_fract_z
 _atom_site_occupancy
  Zn  Zn0  1  0.00000000  0.50000000  0.00000000  1
  Zn  Zn1  1  0.00000000  0.00000000  0.50000000  1
  Ag  Ag0  1  0.50000000  0.50000000  0.50000000  1
  Ag  Ag1  1  0.50000000  0.00000000  0.00000000  1
  N  N0  1  0.69068785  0.15786404  0.33798130  1
  N  N1  1  0.69068785  0.34213596  0.83798130  1
  N  N2  1  0.83757578  0.81783467  0.82717966  1
  N  N3  1  0.83757578  0.68216533  0.32717966  1
  N  N4  1  0.16242422  0.18216533  0.17282034  1
  N  N5  1  0.16242422  0.31783467  0.67282034  1
  N  N6  1  0.30931215  0.65786404  0.16201870  1
  N  N7  1  0.30931215  0.84213596  0.66201870  1
  O  O0  1  0.56762748  0.22529567  0.82374777  1
  O  O1  1  0.56762748  0.27470433  0.32374777  1
  O  O2  1  0.71226914  0.46886896  0.73466695  1
  O  O3  1  0.71226914  0.03113104  0.23466695  1
  O  O4  1  0.72092578  0.69499491  0.44733496  1
  O  O5  1  0.72092578  0.80500509  0.94733496  1
  O  O6  1  0.78575318  0.32360755  0.95691319  1
  O  O7  1  0.78575318  0.17639245  0.45691319  1
  O  O8  1  0.81920737  0.92679399  0.70906827  1
  O  O9  1  0.81920737  0.57320601  0.20906827  1
  O  O10  1  0.97170851  0.71777240  0.82878201  1
  O  O11  1  0.97170851  0.78222760  0.32878201  1
  O  O12  1  0.02829149  0.21777240  0.67121799  1
  O  O13  1  0.02829149  0.28222760  0.17121799  1
  O  O14  1  0.18079263  0.42679399  0.79093173  1
  O  O15  1  0.18079263  0.07320601  0.29093173  1
  O  O16  1  0.21424682  0.67639245  0.04308681  1
  O  O17  1  0.21424682  0.82360755  0.54308681  1
  O  O18  1  0.27907422  0.19499491  0.05266504  1
  O  O19  1  0.27907422  0.30500509  0.55266504  1
  O  O20  1  0.28773086  0.53113104  0.26533305  1
  O  O21  1  0.28773086  0.96886896  0.76533305  1
  O  O22  1  0.43237252  0.72529567  0.67625223  1
  O  O23  1  0.43237252  0.77470433  0.17625223  1
loop_
_geom_bond_atom_site_label_1
_geom_bond_atom_site_label_2
_geom_bond_distance
_geom_bond_site_symmetry_2
Ag0 O22 2.180955 1_555
Ag0 O1 2.180955 1_555
Ag0 O4 2.211012 1_555
Ag0 O19 2.211012 1_555
Ag0 O2 2.617647 1_555
Ag0 O20 2.617647 1_555
Ag1 O0 2.180955 1_554
Ag1 O23 2.180955 1_545
Ag1 O5 2.211012 1_544
Ag1 O18 2.211012 1_555
Ag1 O3 2.617647 1_555
Ag1 O21 2.617647 1_544
N0 O3 1.232593 1_555
N0 O7 1.264077 1_555
N0 O1 1.276828 1_555
N1 O2 1.232593 1_555
N1 O6 1.264077 1_555
N1 O0 1.276828 1_555
N2 O8 1.248568 1_555
N2 O10 1.257545 1_555
N2 O5 1.261092 1_555
N3 O9 1.248568 1_555
N3 O11 1.257545 1_555
N3 O4 1.261092 1_555
N4 O15 1.248568 1_555
N4 O13 1.257545 1_555
N4 O18 1.261092 1_555
N5 O14 1.248568 1_555
N5 O12 1.257545 1_555
N5 O19 1.261092 1_555
N6 O20 1.232593 1_555
N6 O16 1.264077 1_555
N6 O23 1.276828 1_555
N7 O21 1.232593 1_555
N7 O17 1.264077 1_555
N7 O22 1.276828 1_555
O6 Zn0 2.130573 1_656
O7 Zn1 2.130573 1_655
O8 Zn1 2.147950 1_665
O9 Zn0 2.147950 1_655
O10 Zn0 2.106929 1_656
O11 Zn1 2.106929 1_665
O12 Zn1 2.106929 1_555
O13 Zn0 2.106929 1_555
O14 Zn0 2.147950 1_556
O15 Zn1 2.147950 1_555
O16 Zn0 2.130573 1_555
O17 Zn1 2.130573 1_565
