# generated using pymatgen
data_K3Na(SnO3)2
_symmetry_space_group_name_H-M   'P 1'
_cell_length_a   5.66218767
_cell_length_b   5.66217522
_cell_length_c   12.39618985
_cell_angle_alpha   94.37226037
_cell_angle_beta   94.37208369
_cell_angle_gamma   119.99232751
_symmetry_Int_Tables_number   1
_chemical_formula_structural   K3Na(SnO3)2
_chemical_formula_sum   'K6 Na2 Sn4 O12'
_cell_volume   340.18375620
_cell_formula_units_Z   2
loop_
 _symmetry_equiv_pos_site_id
 _symmetry_equiv_pos_as_xyz
  1  'x, y, z'
loop_
 _atom_site_type_symbol
 _atom_site_label
 _atom_site_symmetry_multiplicity
 _atom_site_fract_x
 _atom_site_fract_y
 _atom_site_fract_z
 _atom_site_occupancy
  K  K0  1  0.50000100  0.00000000  0.00000000  1
  K  K1  1  0.15539939  0.31153418  0.99999329  1
  K  K2  1  0.84459961  0.68846482  0.00000671  1
  K  K3  1  0.68845627  0.84461584  0.49999868  1
  K  K4  1  0.00000000  0.50000000  0.50000000  1
  K  K5  1  0.31154473  0.15538516  0.50000132  1
  Na  Na0  1  0.91456500  0.08543354  0.24999974  1
  Na  Na1  1  0.08543600  0.91456746  0.75000026  1
  Sn  Sn0  1  0.58186358  0.41812930  0.25000196  1
  Sn  Sn1  1  0.24895395  0.75103811  0.24999918  1
  Sn  Sn2  1  0.75104705  0.24896189  0.75000082  1
  Sn  Sn3  1  0.41813742  0.58187070  0.74999804  1
  O  O0  1  0.51215740  0.68209961  0.15654521  1
  O  O1  1  0.88374493  0.42411638  0.15665409  1
  O  O2  1  0.25427949  0.05427679  0.15843682  1
  O  O3  1  0.94571771  0.74571690  0.34156334  1
  O  O4  1  0.57587501  0.11624829  0.34334798  1
  O  O5  1  0.31789267  0.48783608  0.34345729  1
  O  O6  1  0.68210633  0.51216292  0.65654271  1
  O  O7  1  0.42412599  0.88375271  0.65665202  1
  O  O8  1  0.05428129  0.25428210  0.65843666  1
  O  O9  1  0.74572151  0.94572421  0.84156318  1
  O  O10  1  0.11625507  0.57588262  0.84334591  1
  O  O11  1  0.48784360  0.31790139  0.84345479  1
loop_
_geom_bond_atom_site_label_1
_geom_bond_atom_site_label_2
_geom_bond_distance
_geom_bond_site_symmetry_2
K0 O9 2.576747 1_544
K0 O2 2.576752 1_555
K0 O0 2.765258 1_545
K0 O11 2.765263 1_554
K0 O1 2.772727 1_555
K0 O10 2.772733 1_544
K1 O10 2.601811 1_555
K1 O0 2.606358 1_556
K1 O2 2.716033 1_556
K1 O9 2.722077 1_445
K1 O1 2.791166 1_456
K1 O11 2.794599 1_555
K2 O1 2.601813 1_555
K2 O11 2.606351 1_554
K2 O9 2.716036 1_554
K2 O2 2.722085 1_665
K2 O10 2.791170 1_654
K2 O0 2.794594 1_555
K3 O7 2.601784 1_555
K3 O5 2.606313 1_555
K3 O3 2.716015 1_555
K3 O8 2.722130 1_665
K3 O4 2.790987 1_565
K3 O6 2.794713 1_555
K4 O3 2.576746 1_455
K4 O8 2.576748 1_555
K4 O5 2.765215 1_555
K4 O6 2.765217 1_455
K4 O4 2.772747 1_455
K4 O7 2.772751 1_555
K5 O4 2.601784 1_555
K5 O6 2.606305 1_555
K5 O8 2.716018 1_555
K5 O3 2.722138 1_445
K5 O7 2.790987 1_545
K5 O5 2.794708 1_555
Na0 O2 2.379281 1_655
Na0 O3 2.379286 1_545
Na0 O1 2.385169 1_555
Na0 O4 2.385209 1_555
Na0 O5 2.396023 1_655
Na0 O0 2.396039 1_545
Na1 O8 2.379281 1_565
Na1 O9 2.379281 1_455
Na1 O10 2.385177 1_555
Na1 O7 2.385209 1_555
Na1 O6 2.396033 1_455
Na1 O11 2.396039 1_565
O0 Sn1 2.119273 1_555
O0 Sn0 2.125081 1_555
O1 Sn0 2.124034 1_555
O1 Sn1 2.126793 1_655
O2 Sn0 2.115469 1_555
O2 Sn1 2.118453 1_545
O3 Sn0 2.115464 1_555
O3 Sn1 2.118464 1_655
O4 Sn0 2.124015 1_555
O4 Sn1 2.126812 1_545
O5 Sn1 2.119298 1_555
O5 Sn0 2.125075 1_555
O6 Sn2 2.119299 1_555
O6 Sn3 2.125068 1_555
O7 Sn3 2.124020 1_555
O7 Sn2 2.126809 1_565
O8 Sn3 2.115471 1_555
O8 Sn2 2.118457 1_455
O9 Sn3 2.115472 1_555
O9 Sn2 2.118449 1_565
O10 Sn3 2.124037 1_555
O10 Sn2 2.126788 1_455
O11 Sn2 2.119276 1_555
O11 Sn3 2.125077 1_555
