# generated using pymatgen
data_Ta3Nb7AlSi5
_symmetry_space_group_name_H-M   'P 1'
_cell_length_a   7.57926064
_cell_length_b   7.58051483
_cell_length_c   7.57860337
_cell_angle_alpha   128.24353631
_cell_angle_beta   128.25628859
_cell_angle_gamma   76.20269335
_symmetry_Int_Tables_number   1
_chemical_formula_structural   Ta3Nb7AlSi5
_chemical_formula_sum   'Ta3 Nb7 Al1 Si5'
_cell_volume   261.03260986
_cell_formula_units_Z   1
loop_
 _symmetry_equiv_pos_site_id
 _symmetry_equiv_pos_as_xyz
  1  'x, y, z'
loop_
 _atom_site_type_symbol
 _atom_site_label
 _atom_site_symmetry_multiplicity
 _atom_site_fract_x
 _atom_site_fract_y
 _atom_site_fract_z
 _atom_site_occupancy
  Ta  Ta0  1  0.81711957  0.31155680  0.83237207  1
  Ta  Ta1  1  0.00062887  0.00099466  0.00008620  1
  Ta  Ta2  1  0.49987372  0.49947378  0.00010758  1
  Nb  Nb0  1  0.02127466  0.18879599  0.50578034  1
  Nb  Nb1  1  0.68355862  0.51595402  0.49532838  1
  Nb  Nb2  1  0.51635999  0.02188793  0.83353686  1
  Nb  Nb3  1  0.18819593  0.68284511  0.16596900  1
  Nb  Nb4  1  0.98347814  0.81638737  0.50477150  1
  Nb  Nb5  1  0.31124569  0.47818023  0.49445999  1
  Nb  Nb6  1  0.47861004  0.98385895  0.16739328  1
  Al  Al0  1  0.75013326  0.74994067  0.00017405  1
  Si  Si0  1  0.24928973  0.25003008  0.99999889  1
  Si  Si1  1  0.37185785  0.12857311  0.50042730  1
  Si  Si2  1  0.62860877  0.87178121  0.50040891  1
  Si  Si3  1  0.87111464  0.37110516  0.24228187  1
  Si  Si4  1  0.12864752  0.62863393  0.75690579  1
loop_
_geom_bond_atom_site_label_1
_geom_bond_atom_site_label_2
_geom_bond_distance
_geom_bond_site_symmetry_2
Nb0 Si1 2.608166 1_555
Nb0 Si4 2.630890 1_555
Nb0 Si3 2.654235 1_455
Nb0 Si0 2.728591 1_555
Nb1 Si2 2.608851 1_555
Nb1 Si3 2.632236 1_555
Nb1 Si4 2.652579 1_655
Nb1 Si0 2.735779 1_554
Nb2 Si3 2.600334 1_556
Nb2 Si1 2.628278 1_555
Nb2 Si2 2.652169 1_545
Nb2 Si0 2.733371 1_555
Nb3 Si4 2.600369 1_554
Nb3 Si2 2.631880 1_555
Nb3 Si1 2.655237 1_565
Nb3 Si0 2.729239 1_554
Nb3 Ta0 2.895601 1_454
Nb4 Si2 2.603840 1_555
Nb4 Si4 2.627538 1_655
Nb4 Si3 2.652645 1_555
Nb4 Si0 2.733523 1_665
Nb5 Si1 2.603574 1_555
Nb5 Si3 2.629712 1_455
Nb5 Si4 2.649466 1_555
Nb5 Si0 2.727424 1_554
Nb6 Si4 2.604219 1_554
Nb6 Si1 2.627938 1_565
Nb6 Si2 2.650390 1_555
Nb6 Si0 2.732610 1_564
Al0 Nb4 2.769563 1_555
Al0 Nb1 2.770161 1_554
Al0 Nb3 2.771400 1_655
Al0 Ta0 2.771523 1_554
Al0 Nb6 2.773538 1_555
Al0 Nb2 2.773790 1_564
Al0 Nb0 2.775085 1_665
Al0 Nb5 2.775634 1_554
Al0 Ta2 2.986322 1_555
Al0 Ta1 2.992153 1_665
Si0 Ta0 2.722558 1_455
Si0 Ta1 2.969165 1_556
Si0 Ta2 2.981906 1_556
Si1 Si2 2.401944 1_545
Si1 Ta2 2.599377 1_556
Si1 Ta1 2.603096 1_555
Si1 Ta0 2.653485 1_555
Si2 Ta1 2.598586 1_666
Si2 Ta2 2.603402 1_555
Si2 Ta0 2.630927 1_565
Si3 Si4 2.407551 1_655
Si3 Ta2 2.596627 1_555
Si3 Ta1 2.597382 1_655
Si3 Ta0 2.607591 1_554
Si4 Ta2 2.601999 1_556
Si4 Ta1 2.602568 1_566
