# generated using pymatgen
data_K3LiOsO4
_symmetry_space_group_name_H-M   'P 1'
_cell_length_a   5.90519192
_cell_length_b   7.19921215
_cell_length_c   7.19927605
_cell_angle_alpha   95.25250847
_cell_angle_beta   100.64748777
_cell_angle_gamma   79.35212046
_symmetry_Int_Tables_number   1
_chemical_formula_structural   K3LiOsO4
_chemical_formula_sum   'K6 Li2 Os2 O8'
_cell_volume   295.08946489
_cell_formula_units_Z   2
loop_
 _symmetry_equiv_pos_site_id
 _symmetry_equiv_pos_as_xyz
  1  'x, y, z'
loop_
 _atom_site_type_symbol
 _atom_site_label
 _atom_site_symmetry_multiplicity
 _atom_site_fract_x
 _atom_site_fract_y
 _atom_site_fract_z
 _atom_site_occupancy
  K  K0  1  0.97124695  0.75606236  0.06688971  1
  K  K1  1  0.47124936  0.93311077  0.24392922  1
  K  K2  1  0.24998612  0.40455220  0.40454683  1
  K  K3  1  0.75001388  0.59544780  0.59545217  1
  K  K4  1  0.52875064  0.06688923  0.75607078  1
  K  K5  1  0.02875405  0.24393764  0.93311029  1
  Li  Li0  1  0.74999700  0.26668223  0.26668240  1
  Li  Li1  1  0.25000300  0.73331877  0.73331760  1
  Os  Os0  1  0.50000000  0.50000000  0.00000000  1
  Os  Os1  1  0.00000100  0.00000000  0.50000100  1
  O  O0  1  0.47112855  0.26535911  0.08685341  1
  O  O1  1  0.75704076  0.51555231  0.20136180  1
  O  O2  1  0.02886898  0.08684951  0.26535667  1
  O  O3  1  0.25703483  0.79863264  0.48444526  1
  O  O4  1  0.74296517  0.20136836  0.51555574  1
  O  O5  1  0.97113002  0.91315049  0.73464333  1
  O  O6  1  0.24296024  0.48444769  0.79863820  1
  O  O7  1  0.52887045  0.73464189  0.91314559  1
loop_
_geom_bond_atom_site_label_1
_geom_bond_atom_site_label_2
_geom_bond_distance
_geom_bond_site_symmetry_2
K0 O1 2.665353 1_555
K0 O7 2.668752 1_554
K0 O2 2.706513 1_665
K0 O5 2.737641 1_554
K0 O6 3.069514 1_654
K0 O3 3.182201 1_655
K1 O3 2.665446 1_555
K1 O2 2.668764 1_565
K1 O7 2.706505 1_554
K1 O0 2.737590 1_565
K1 O4 3.069603 1_565
K1 O1 3.182190 1_555
K2 O3 2.849134 1_555
K2 O6 2.849211 1_555
K2 O2 2.853231 1_555
K2 O0 2.853264 1_555
K2 O1 3.005458 1_455
K2 O4 3.005621 1_555
K3 O4 2.849125 1_555
K3 O1 2.849205 1_555
K3 O5 2.853229 1_555
K3 O7 2.853269 1_555
K3 O6 3.005465 1_655
K3 O3 3.005621 1_555
K4 O4 2.665444 1_555
K4 O5 2.668759 1_545
K4 O0 2.706503 1_556
K4 O7 2.737581 1_545
K4 O3 3.069595 1_545
K4 O6 3.182188 1_555
K5 O6 2.665353 1_555
K5 O0 2.668741 1_556
K5 O5 2.706515 1_445
K5 O2 2.737644 1_556
K5 O1 3.069514 1_456
K5 O4 3.182196 1_455
Li0 O0 1.898353 1_555
Li0 O2 1.898371 1_655
Li0 O1 1.903151 1_555
Li0 O4 1.903154 1_555
Li1 O7 1.898345 1_555
Li1 O5 1.898371 1_455
Li1 O3 1.903147 1_555
Li1 O6 1.903156 1_555
O0 Os0 1.900724 1_555
O1 Os0 1.907344 1_555
O2 Os1 1.900740 1_555
O3 Os1 1.907328 1_565
O4 Os1 1.907339 1_655
O5 Os1 1.900732 1_665
O6 Os0 1.907340 1_556
O7 Os0 1.900732 1_556
