# generated using pymatgen
data_Sr14Sn2GeAs12
_symmetry_space_group_name_H-M   'P 1'
_cell_length_a   9.50970993
_cell_length_b   9.51014588
_cell_length_c   9.51041052
_cell_angle_alpha   86.98480392
_cell_angle_beta   86.98552389
_cell_angle_gamma   86.98175977
_symmetry_Int_Tables_number   1
_chemical_formula_structural   Sr14Sn2GeAs12
_chemical_formula_sum   'Sr14 Sn2 Ge1 As12'
_cell_volume   856.65626152
_cell_formula_units_Z   1
loop_
 _symmetry_equiv_pos_site_id
 _symmetry_equiv_pos_as_xyz
  1  'x, y, z'
loop_
 _atom_site_type_symbol
 _atom_site_label
 _atom_site_symmetry_multiplicity
 _atom_site_fract_x
 _atom_site_fract_y
 _atom_site_fract_z
 _atom_site_occupancy
  Sr  Sr0  1  0.41365125  0.26826958  0.77402441  1
  Sr  Sr1  1  0.77400646  0.41365970  0.26829763  1
  Sr  Sr2  1  0.26828225  0.77401159  0.41365280  1
  Sr  Sr3  1  0.98248767  0.54168703  0.65248844  1
  Sr  Sr4  1  0.65249890  0.98249934  0.54165218  1
  Sr  Sr5  1  0.54167904  0.65249584  0.98249939  1
  Sr  Sr6  1  0.17736099  0.53503409  0.02130801  1
  Sr  Sr7  1  0.02131339  0.17736743  0.53503296  1
  Sr  Sr8  1  0.53504009  0.02131322  0.17733092  1
  Sr  Sr9  1  0.76693216  0.25894193  0.91030868  1
  Sr  Sr10  1  0.91031123  0.76695235  0.25893564  1
  Sr  Sr11  1  0.25894338  0.91030432  0.76693105  1
  Sr  Sr12  1  0.18537790  0.18536944  0.18537228  1
  Sr  Sr13  1  0.40042327  0.40042216  0.40043051  1
  Sn  Sn0  1  0.84660507  0.84658076  0.84658510  1
  Sn  Sn1  1  0.60738175  0.60737176  0.60738797  1
  Ge  Ge0  1  0.00430965  0.00430040  0.00429811  1
  As  As0  1  0.70264068  0.32824027  0.58629821  1
  As  As1  1  0.58625891  0.70265531  0.32827414  1
  As  As2  1  0.32825104  0.58627024  0.70269390  1
  As  As3  1  0.59056114  0.96779937  0.86279235  1
  As  As4  1  0.86278181  0.59057931  0.96781676  1
  As  As5  1  0.96783330  0.86280308  0.59056438  1
  As  As6  1  0.47448273  0.34271237  0.08395435  1
  As  As7  1  0.08395926  0.47447289  0.34271865  1
  As  As8  1  0.34271319  0.08395790  0.47447234  1
  As  As9  1  0.09615327  0.21180227  0.86067204  1
  As  As10  1  0.86063864  0.09618047  0.21181319  1
  As  As11  1  0.21184760  0.86067858  0.09612057  1
loop_
_geom_bond_atom_site_label_1
_geom_bond_atom_site_label_2
_geom_bond_distance
_geom_bond_site_symmetry_2
Sn1 Sr13 3.583831 1_555
Sn1 Sr3 3.632743 1_555
Sn1 Sr5 3.633143 1_555
Sn1 Sr4 3.633243 1_555
Ge0 Sn0 2.731097 1_444
Ge0 Sr12 3.135588 1_555
Ge0 Sr9 3.341882 1_454
Ge0 Sr11 3.341891 1_544
Ge0 Sr10 3.341926 1_445
As0 Sn1 2.773323 1_555
As0 Sr1 3.138585 1_555
As0 Sr9 3.200888 1_555
As0 Sr0 3.256882 1_555
As0 Sr7 3.307651 1_655
As0 Sr4 3.398850 1_545
As0 Sr13 3.471988 1_555
As0 Sr3 3.532511 1_555
As1 Sn1 2.773381 1_555
As1 Sr2 3.138029 1_555
As1 Sr10 3.201182 1_555
As1 Sr1 3.256963 1_555
As1 Sr8 3.307908 1_565
As1 Sr5 3.399147 1_554
As1 Sr13 3.472092 1_555
As1 Sr4 3.532265 1_555
As2 Sn1 2.773419 1_555
As2 Sr0 3.138346 1_555
As2 Sr11 3.200903 1_555
As2 Sr2 3.257426 1_555
As2 Sr6 3.307450 1_556
As2 Sr3 3.398919 1_455
As2 Sr13 3.472430 1_555
As2 Sr5 3.532188 1_555
As3 Sn0 2.639148 1_555
As3 Sr8 3.074401 1_566
As3 Sr4 3.077175 1_555
As3 Sr5 3.199325 1_555
As3 Sr0 3.331334 1_565
As3 Sr9 3.374023 1_565
As3 Sr11 3.407591 1_555
As4 Sn0 2.638983 1_555
As4 Sr6 3.074513 1_656
As4 Sr5 3.076543 1_555
As4 Sr3 3.199592 1_555
As4 Sr1 3.331677 1_556
As4 Sr10 3.373904 1_556
As4 Sr9 3.407905 1_555
As5 Sn0 2.639202 1_555
As5 Sr7 3.074528 1_665
As5 Sr3 3.076837 1_555
As5 Sr4 3.199398 1_555
As5 Sr2 3.331236 1_655
As5 Sr11 3.373596 1_655
As5 Sr10 3.407906 1_555
As6 Sr13 3.125118 1_555
As6 Sr5 3.138967 1_554
As6 Sr0 3.156893 1_554
As6 Sr8 3.169488 1_555
As6 Sr9 3.243229 1_554
As6 Sr12 3.275751 1_555
As6 Sr6 3.346957 1_555
As6 Sr1 3.534718 1_555
As7 Sr13 3.124748 1_555
As7 Sr3 3.138957 1_455
As7 Sr1 3.156825 1_455
As7 Sr6 3.169773 1_555
As7 Sr10 3.243490 1_455
As7 Sr12 3.275754 1_555
As7 Sr7 3.347036 1_555
As7 Sr2 3.534803 1_555
As8 Sr13 3.124932 1_555
As8 Sr4 3.138747 1_545
As8 Sr2 3.156939 1_545
As8 Sr7 3.169435 1_555
As8 Sr11 3.243522 1_545
As8 Sr12 3.275680 1_555
As8 Sr8 3.347350 1_555
As8 Sr0 3.534899 1_555
As9 Ge0 2.509042 1_556
As9 Sr9 3.153526 1_455
As9 Sr0 3.153761 1_555
As9 Sr12 3.238911 1_556
As9 Sr7 3.250846 1_555
As9 Sr11 3.327017 1_545
As9 Sr6 3.639751 1_556
As9 Sr3 3.761027 1_455
As10 Ge0 2.509426 1_655
As10 Sr1 3.153641 1_555
As10 Sr10 3.153741 1_545
As10 Sr12 3.239018 1_655
As10 Sr8 3.250443 1_555
As10 Sr9 3.326976 1_554
As10 Sr7 3.639772 1_655
As10 Sr4 3.760631 1_545
As11 Ge0 2.509043 1_565
As11 Sr11 3.153430 1_554
As11 Sr2 3.154195 1_555
As11 Sr12 3.238848 1_565
As11 Sr6 3.250853 1_555
As11 Sr10 3.327434 1_455
As11 Sr8 3.639325 1_565
As11 Sr5 3.760366 1_554
