# generated using pymatgen
data_Hf8MnSiBi4
_symmetry_space_group_name_H-M   'P 1'
_cell_length_a   8.19506108
_cell_length_b   8.19506238
_cell_length_c   8.19506170
_cell_angle_alpha   95.91138342
_cell_angle_beta   95.91138404
_cell_angle_gamma   142.56274850
_symmetry_Int_Tables_number   1
_chemical_formula_structural   Hf8MnSiBi4
_chemical_formula_sum   'Hf8 Mn1 Si1 Bi4'
_cell_volume   316.87055102
_cell_formula_units_Z   1
loop_
 _symmetry_equiv_pos_site_id
 _symmetry_equiv_pos_as_xyz
  1  'x, y, z'
loop_
 _atom_site_type_symbol
 _atom_site_label
 _atom_site_symmetry_multiplicity
 _atom_site_fract_x
 _atom_site_fract_y
 _atom_site_fract_z
 _atom_site_occupancy
  Hf  Hf0  1  0.69766773  0.58328364  0.27846276  1
  Hf  Hf1  1  0.30482088  0.41920497  0.72153724  1
  Hf  Hf2  1  0.58328364  0.30482088  0.88561591  1
  Hf  Hf3  1  0.08079503  0.19517912  0.27846276  1
  Hf  Hf4  1  0.80233227  0.08079503  0.88561591  1
  Hf  Hf5  1  0.41920497  0.69766773  0.11438409  1
  Hf  Hf6  1  0.91671636  0.80233227  0.72153724  1
  Hf  Hf7  1  0.19517912  0.91671636  0.11438409  1
  Mn  Mn0  1  0.75000000  0.75000000  0.00000000  1
  Si  Si0  1  0.25000000  0.25000000  0.00000000  1
  Bi  Bi0  1  0.13924242  0.63924242  0.77848683  1
  Bi  Bi1  1  0.36075758  0.13924242  0.50000000  1
  Bi  Bi2  1  0.86075758  0.36075758  0.22151317  1
  Bi  Bi3  1  0.63924242  0.86075758  0.50000000  1
loop_
_geom_bond_atom_site_label_1
_geom_bond_atom_site_label_2
_geom_bond_distance
_geom_bond_site_symmetry_2
Hf0 Mn0 2.677963 1_555
Hf0 Si0 2.684383 1_555
Hf1 Mn0 2.677963 1_556
Hf1 Si0 2.684383 1_556
Hf2 Mn0 2.677963 1_556
Hf2 Si0 2.684382 1_556
Hf3 Mn0 2.677963 1_445
Hf3 Si0 2.684383 1_555
Hf4 Mn0 2.677963 1_546
Hf4 Si0 2.684382 1_656
Hf5 Mn0 2.677962 1_555
Hf5 Si0 2.684383 1_555
Hf6 Mn0 2.677963 1_556
Hf6 Si0 2.684383 1_666
Hf7 Mn0 2.677962 1_455
Hf7 Si0 2.684383 1_565
Mn0 Si0 2.629967 1_665
Mn0 Si0 2.629967 1_555
Bi0 Hf6 3.025464 1_455
Bi0 Hf1 3.025464 1_555
Bi0 Hf5 3.123078 1_556
Bi0 Hf7 3.123078 1_556
Bi0 Hf2 3.245043 1_455
Bi0 Hf4 3.245052 1_565
Bi0 Hf4 3.255636 1_455
Bi0 Hf2 3.255644 1_565
Bi1 Hf2 3.025462 1_555
Bi1 Hf7 3.025462 1_545
Bi1 Hf3 3.123091 1_555
Bi1 Hf1 3.123091 1_555
Bi1 Hf0 3.245052 1_445
Bi1 Hf6 3.245053 1_555
Bi1 Hf6 3.255643 1_445
Bi1 Hf0 3.255644 1_555
Bi2 Hf3 3.025464 1_655
Bi2 Hf0 3.025464 1_555
Bi2 Hf2 3.123078 1_554
Bi2 Hf4 3.123079 1_554
Bi2 Hf7 3.245044 1_655
Bi2 Hf5 3.245053 1_545
Bi2 Hf5 3.255635 1_655
Bi2 Hf7 3.255644 1_545
Bi3 Hf5 3.025462 1_555
Bi3 Hf4 3.025462 1_565
Bi3 Hf6 3.123091 1_555
Bi3 Hf0 3.123091 1_555
Bi3 Hf3 3.245052 1_665
Bi3 Hf1 3.245052 1_555
Bi3 Hf1 3.255644 1_665
Bi3 Hf3 3.255644 1_555
