# generated using pymatgen
data_Ba3SrTcO6
_symmetry_space_group_name_H-M   'P 1'
_cell_length_a   7.23579095
_cell_length_b   7.23578970
_cell_length_c   7.23579164
_cell_angle_alpha   91.23970080
_cell_angle_beta   91.23969910
_cell_angle_gamma   91.23969569
_symmetry_Int_Tables_number   1
_chemical_formula_structural   Ba3SrTcO6
_chemical_formula_sum   'Ba6 Sr2 Tc2 O12'
_cell_volume   378.57196982
_cell_formula_units_Z   2
loop_
 _symmetry_equiv_pos_site_id
 _symmetry_equiv_pos_as_xyz
  1  'x, y, z'
loop_
 _atom_site_type_symbol
 _atom_site_label
 _atom_site_symmetry_multiplicity
 _atom_site_fract_x
 _atom_site_fract_y
 _atom_site_fract_z
 _atom_site_occupancy
  Ba  Ba0  1  0.11234561  0.75000000  0.38765439  1
  Ba  Ba1  1  0.38765439  0.11234561  0.75000000  1
  Ba  Ba2  1  0.88765439  0.25000000  0.61234561  1
  Ba  Ba3  1  0.61234561  0.88765439  0.25000000  1
  Ba  Ba4  1  0.75000000  0.38765439  0.11234561  1
  Ba  Ba5  1  0.25000000  0.61234561  0.88765439  1
  Sr  Sr0  1  0.25000000  0.25000000  0.25000000  1
  Sr  Sr1  1  0.75000000  0.75000000  0.75000000  1
  Tc  Tc0  1  0.00000000  0.00000000  0.00000000  1
  Tc  Tc1  1  0.50000000  0.50000000  0.50000000  1
  O  O0  1  0.44909198  0.76945936  0.58087308  1
  O  O1  1  0.58087308  0.44909198  0.76945936  1
  O  O2  1  0.76945936  0.58087308  0.44909198  1
  O  O3  1  0.05090802  0.91912692  0.73054064  1
  O  O4  1  0.73054064  0.05090802  0.91912692  1
  O  O5  1  0.91912692  0.73054064  0.05090802  1
  O  O6  1  0.55090802  0.23054064  0.41912692  1
  O  O7  1  0.41912692  0.55090802  0.23054064  1
  O  O8  1  0.23054064  0.41912692  0.55090802  1
  O  O9  1  0.94909198  0.08087308  0.26945936  1
  O  O10  1  0.08087308  0.26945936  0.94909198  1
  O  O11  1  0.26945936  0.94909198  0.08087308  1
loop_
_geom_bond_atom_site_label_1
_geom_bond_atom_site_label_2
_geom_bond_distance
_geom_bond_site_symmetry_2
Ba0 O0 2.782240 1_555
Ba0 O5 2.782240 1_455
Ba0 O2 2.791190 1_455
Ba0 O3 2.791190 1_555
Ba0 O9 2.833007 1_465
Ba0 O8 2.833007 1_555
Ba0 O7 2.910660 1_555
Ba0 O11 2.910660 1_555
Ba1 O1 2.782240 1_555
Ba1 O3 2.782240 1_545
Ba1 O0 2.791190 1_545
Ba1 O4 2.791190 1_555
Ba1 O11 2.833007 1_546
Ba1 O6 2.833007 1_555
Ba1 O8 2.910660 1_555
Ba1 O10 2.910660 1_555
Ba2 O6 2.782240 1_555
Ba2 O10 2.782240 1_655
Ba2 O8 2.791190 1_655
Ba2 O9 2.791190 1_555
Ba2 O3 2.833007 1_645
Ba2 O2 2.833007 1_555
Ba2 O1 2.910660 1_555
Ba2 O4 2.910660 1_555
Ba3 O7 2.782240 1_555
Ba3 O9 2.782240 1_565
Ba3 O6 2.791190 1_565
Ba3 O11 2.791190 1_555
Ba3 O4 2.833007 1_564
Ba3 O0 2.833007 1_555
Ba3 O2 2.910660 1_555
Ba3 O5 2.910660 1_555
Ba4 O4 2.782240 1_554
Ba4 O2 2.782240 1_555
Ba4 O5 2.791190 1_555
Ba4 O1 2.791190 1_554
Ba4 O7 2.833007 1_555
Ba4 O10 2.833007 1_654
Ba4 O9 2.910660 1_555
Ba4 O6 2.910660 1_555
Ba5 O11 2.782240 1_556
Ba5 O8 2.782240 1_555
Ba5 O10 2.791190 1_555
Ba5 O7 2.791190 1_556
Ba5 O1 2.833007 1_555
Ba5 O5 2.833007 1_456
Ba5 O3 2.910660 1_555
Ba5 O0 2.910660 1_555
O0 Tc1 2.066565 1_555
O0 Sr1 2.482645 1_555
O1 Tc1 2.066565 1_555
O1 Sr1 2.482645 1_555
O2 Tc1 2.066565 1_555
O2 Sr1 2.482645 1_555
O3 Tc0 2.066565 1_566
O3 Sr1 2.482645 1_455
O4 Tc0 2.066565 1_656
O4 Sr1 2.482645 1_545
O5 Tc0 2.066565 1_665
O5 Sr1 2.482645 1_554
O6 Tc1 2.066565 1_555
O6 Sr0 2.482645 1_555
O7 Tc1 2.066565 1_555
O7 Sr0 2.482645 1_555
O8 Tc1 2.066565 1_555
O8 Sr0 2.482645 1_555
O9 Tc0 2.066565 1_655
O9 Sr0 2.482645 1_655
O10 Tc0 2.066565 1_556
O10 Sr0 2.482645 1_556
O11 Tc0 2.066565 1_565
O11 Sr0 2.482645 1_565
