# generated using pymatgen
data_Lu5Ru2Pb
_symmetry_space_group_name_H-M   'P 1'
_cell_length_a   8.56978268
_cell_length_b   8.56978202
_cell_length_c   8.56978111
_cell_angle_alpha   127.98094302
_cell_angle_beta   127.98093305
_cell_angle_gamma   76.65590632
_symmetry_Int_Tables_number   1
_chemical_formula_structural   Lu5Ru2Pb
_chemical_formula_sum   'Lu10 Ru4 Pb2'
_cell_volume   379.77634300
_cell_formula_units_Z   2
loop_
 _symmetry_equiv_pos_site_id
 _symmetry_equiv_pos_as_xyz
  1  'x, y, z'
loop_
 _atom_site_type_symbol
 _atom_site_label
 _atom_site_symmetry_multiplicity
 _atom_site_fract_x
 _atom_site_fract_y
 _atom_site_fract_z
 _atom_site_occupancy
  Lu  Lu0  1  0.00000000  0.00000000  0.00000000  1
  Lu  Lu1  1  0.50000000  0.50000000  0.00000000  1
  Lu  Lu2  1  0.78844483  0.28844483  0.81523758  1
  Lu  Lu3  1  0.21155517  0.71155517  0.18476242  1
  Lu  Lu4  1  0.47320825  0.97320825  0.18476242  1
  Lu  Lu5  1  0.28844483  0.47320825  0.50000000  1
  Lu  Lu6  1  0.02679175  0.21155517  0.50000000  1
  Lu  Lu7  1  0.52679175  0.02679175  0.81523758  1
  Lu  Lu8  1  0.71155517  0.52679175  0.50000000  1
  Lu  Lu9  1  0.97320825  0.78844483  0.50000000  1
  Ru  Ru0  1  0.14107196  0.64107196  0.78214393  1
  Ru  Ru1  1  0.85892804  0.35892804  0.21785607  1
  Ru  Ru2  1  0.64107196  0.85892804  0.50000000  1
  Ru  Ru3  1  0.35892804  0.14107196  0.50000000  1
  Pb  Pb0  1  0.25000000  0.25000000  0.00000000  1
  Pb  Pb1  1  0.75000000  0.75000000  0.00000000  1
loop_
_geom_bond_atom_site_label_1
_geom_bond_atom_site_label_2
_geom_bond_distance
_geom_bond_site_symmetry_2
Lu0 Ru1 2.898611 1_455
Lu0 Ru0 2.898611 1_544
Lu0 Ru3 2.898612 1_555
Lu0 Ru2 2.898612 1_444
Lu0 Lu2 3.334633 1_454
Lu0 Lu3 3.334633 1_545
Lu0 Lu6 3.334638 1_555
Lu0 Lu9 3.334638 1_444
Lu0 Lu5 3.334638 1_555
Lu0 Lu8 3.334638 1_444
Lu0 Lu4 3.334641 1_545
Lu0 Lu7 3.334641 1_454
Lu0 Pb0 3.361385 1_555
Lu0 Pb1 3.361385 1_445
Lu1 Ru2 2.898611 1_555
Lu1 Ru3 2.898611 1_554
Lu1 Ru1 2.898612 1_555
Lu1 Ru0 2.898612 1_554
Lu1 Lu2 3.334633 1_554
Lu1 Lu3 3.334633 1_555
Lu1 Lu8 3.334638 1_555
Lu1 Lu5 3.334638 1_554
Lu1 Lu9 3.334639 1_555
Lu1 Lu6 3.334639 1_554
Lu1 Lu4 3.334640 1_555
Lu1 Lu7 3.334640 1_554
Lu1 Pb0 3.361385 1_555
Lu1 Pb1 3.361385 1_555
Lu2 Ru1 2.769985 1_556
Lu2 Ru2 2.854743 1_545
Lu2 Ru3 2.854743 1_555
Lu2 Pb1 3.254713 1_556
Lu2 Pb0 3.254713 1_656
Lu3 Ru0 2.769985 1_554
Lu3 Ru3 2.854743 1_565
Lu3 Ru2 2.854743 1_555
Lu3 Pb0 3.254713 1_555
Lu3 Pb1 3.254713 1_455
Lu4 Ru0 2.769995 1_554
Lu4 Ru3 2.854751 1_565
Lu4 Ru2 2.854751 1_555
Lu4 Pb1 3.254706 1_555
Lu4 Pb0 3.254706 1_565
Lu5 Ru3 2.769994 1_555
Lu5 Ru0 2.854744 1_555
Lu5 Ru1 2.854744 1_455
Lu5 Pb0 3.254710 1_555
Lu5 Pb1 3.254711 1_556
Lu6 Ru3 2.769994 1_555
Lu6 Ru1 2.854744 1_455
Lu6 Ru0 2.854744 1_555
Lu6 Pb0 3.254711 1_556
Lu6 Pb1 3.254711 1_445
Lu7 Ru1 2.769995 1_556
Lu7 Ru2 2.854751 1_545
Lu7 Ru3 2.854751 1_555
Lu7 Pb0 3.254706 1_556
Lu7 Pb1 3.254706 1_546
Lu8 Ru2 2.769994 1_555
Lu8 Ru1 2.854744 1_555
Lu8 Ru0 2.854744 1_655
Lu8 Pb1 3.254710 1_556
Lu8 Pb0 3.254711 1_555
Lu9 Ru2 2.769994 1_555
Lu9 Ru0 2.854744 1_655
Lu9 Ru1 2.854744 1_555
Lu9 Pb1 3.254711 1_555
Lu9 Pb0 3.254711 1_666
Ru0 Ru1 2.998993 1_455
Ru2 Ru3 2.998994 1_565
