# generated using pymatgen
data_Lu12Fe2RePb2
_symmetry_space_group_name_H-M   'P 1'
_cell_length_a   8.21773886
_cell_length_b   8.21773809
_cell_length_c   8.21773744
_cell_angle_alpha   108.84469553
_cell_angle_beta   108.84471015
_cell_angle_gamma   110.73165064
_symmetry_Int_Tables_number   1
_chemical_formula_structural   Lu12Fe2RePb2
_chemical_formula_sum   'Lu12 Fe2 Re1 Pb2'
_cell_volume   427.04828292
_cell_formula_units_Z   1
loop_
 _symmetry_equiv_pos_site_id
 _symmetry_equiv_pos_as_xyz
  1  'x, y, z'
loop_
 _atom_site_type_symbol
 _atom_site_label
 _atom_site_symmetry_multiplicity
 _atom_site_fract_x
 _atom_site_fract_y
 _atom_site_fract_z
 _atom_site_occupancy
  Lu  Lu0  1  0.31052834  0.31052834  0.62105668  1
  Lu  Lu1  1  0.68947166  0.68947166  0.37894332  1
  Lu  Lu2  1  0.68947166  0.31052834  1.00000000  1
  Lu  Lu3  1  0.31052834  0.68947166  0.00000000  1
  Lu  Lu4  1  0.19103941  0.42790368  0.23686528  1
  Lu  Lu5  1  0.80896059  0.57209632  0.76313472  1
  Lu  Lu6  1  0.19103941  0.95417413  0.76313472  1
  Lu  Lu7  1  0.95417413  0.19103941  0.76313472  1
  Lu  Lu8  1  0.80896059  0.04582587  0.23686528  1
  Lu  Lu9  1  0.04582587  0.80896059  0.23686528  1
  Lu  Lu10  1  0.42790368  0.19103941  0.23686528  1
  Lu  Lu11  1  0.57209632  0.80896059  0.76313472  1
  Fe  Fe0  1  0.37842888  0.37842888  1.00000000  1
  Fe  Fe1  1  0.62157112  0.62157112  0.00000000  1
  Re  Re0  1  0.00000000  0.00000000  0.00000000  1
  Pb  Pb0  1  0.00000000  0.50000000  0.50000000  1
  Pb  Pb1  1  0.50000000  0.00000000  0.50000000  1
loop_
_geom_bond_atom_site_label_1
_geom_bond_atom_site_label_2
_geom_bond_distance
_geom_bond_site_symmetry_2
Lu0 Lu6 3.437535 1_545
Lu0 Lu7 3.437535 1_455
Lu0 Lu11 3.437536 1_555
Lu0 Lu5 3.437536 1_555
Lu0 Pb0 3.478445 1_555
Lu0 Pb1 3.478445 1_555
Lu0 Lu4 3.535180 1_555
Lu0 Lu10 3.535180 1_555
Lu0 Lu8 3.535186 1_455
Lu0 Lu9 3.535186 1_545
Lu1 Lu8 3.437535 1_565
Lu1 Lu9 3.437535 1_655
Lu1 Lu10 3.437536 1_555
Lu1 Lu4 3.437536 1_555
Lu1 Pb0 3.478445 1_655
Lu1 Pb1 3.478445 1_565
Lu1 Lu5 3.535180 1_555
Lu1 Lu11 3.535180 1_555
Lu1 Lu6 3.535186 1_655
Lu1 Lu7 3.535186 1_565
Lu2 Lu9 3.437535 1_656
Lu2 Lu6 3.437535 1_545
Lu2 Lu5 3.437541 1_555
Lu2 Pb0 3.478445 1_656
Lu2 Pb1 3.478445 1_555
Lu2 Lu8 3.535185 1_556
Lu2 Lu7 3.535186 1_555
Lu2 Lu4 3.535188 1_656
Lu3 Lu7 3.437535 1_454
Lu3 Lu8 3.437535 1_565
Lu3 Lu4 3.437541 1_555
Lu3 Pb0 3.478445 1_554
Lu3 Pb1 3.478445 1_565
Lu3 Lu6 3.535185 1_554
Lu3 Lu9 3.535186 1_555
Lu3 Lu5 3.535188 1_454
Lu4 Re0 2.883465 1_555
Lu4 Pb0 3.084706 1_555
Lu4 Lu7 3.203145 1_454
Lu4 Lu8 3.568936 1_455
Lu4 Lu9 3.724978 1_555
Lu4 Pb1 3.828819 1_565
Lu5 Re0 2.883465 1_666
Lu5 Pb0 3.084706 1_655
Lu5 Lu9 3.203145 1_656
Lu5 Lu6 3.568936 1_655
Lu5 Lu7 3.724978 1_555
Lu5 Pb1 3.828819 1_555
Lu6 Re0 2.883471 1_566
Lu6 Pb0 3.084705 1_555
Lu6 Lu7 3.203146 1_465
Lu6 Lu9 3.724970 1_555
Lu6 Pb1 3.828812 1_565
Lu7 Re0 2.883471 1_656
Lu7 Pb1 3.084705 1_555
Lu7 Lu8 3.724970 1_555
Lu7 Pb0 3.828811 1_655
Lu8 Re0 2.883471 1_655
Lu8 Pb0 3.084705 1_655
Lu8 Lu9 3.203146 1_645
Lu8 Pb1 3.828812 1_555
Lu9 Re0 2.883471 1_565
Lu9 Pb1 3.084705 1_565
Lu9 Pb0 3.828811 1_555
Lu10 Re0 2.883465 1_555
Lu10 Pb1 3.084705 1_555
Lu10 Lu4 3.203132 1_555
Lu10 Lu6 3.203145 1_544
Lu10 Lu2 3.437541 1_554
Lu10 Lu3 3.535189 1_545
Lu10 Lu9 3.568936 1_545
Lu10 Lu5 3.724973 1_555
Lu10 Lu8 3.724978 1_555
Lu10 Pb0 3.828819 1_655
Lu11 Re0 2.883465 1_666
Lu11 Pb1 3.084705 1_565
Lu11 Lu5 3.203132 1_555
Lu11 Lu8 3.203145 1_566
Lu11 Lu3 3.437541 1_556
Lu11 Lu2 3.535189 1_565
Lu11 Lu7 3.568936 1_565
Lu11 Lu4 3.724973 1_555
Lu11 Lu6 3.724978 1_555
Lu11 Pb0 3.828819 1_555
Fe0 Fe1 2.271155 1_556
Fe0 Lu0 2.802606 1_555
Fe0 Lu3 2.802606 1_556
Fe0 Lu1 2.802606 1_556
Fe0 Lu2 2.802607 1_555
Fe0 Lu10 2.862496 1_556
Fe0 Lu4 2.862496 1_556
Fe0 Lu7 2.862497 1_455
Fe0 Lu6 2.862497 1_545
Fe1 Lu1 2.802606 1_555
Fe1 Lu2 2.802606 1_554
Fe1 Lu0 2.802606 1_554
Fe1 Lu3 2.802607 1_555
Fe1 Lu11 2.862496 1_554
Fe1 Lu5 2.862496 1_554
Fe1 Lu9 2.862497 1_655
Fe1 Lu8 2.862497 1_565
