# generated using pymatgen
data_Pb(SCl6)2
_symmetry_space_group_name_H-M   'P 1'
_cell_length_a   8.31627378
_cell_length_b   8.31627304
_cell_length_c   8.31627459
_cell_angle_alpha   77.97190766
_cell_angle_beta   77.97190974
_cell_angle_gamma   77.97191018
_symmetry_Int_Tables_number   1
_chemical_formula_structural   Pb(SCl6)2
_chemical_formula_sum   'Pb1 S2 Cl12'
_cell_volume   541.93664927
_cell_formula_units_Z   1
loop_
 _symmetry_equiv_pos_site_id
 _symmetry_equiv_pos_as_xyz
  1  'x, y, z'
loop_
 _atom_site_type_symbol
 _atom_site_label
 _atom_site_symmetry_multiplicity
 _atom_site_fract_x
 _atom_site_fract_y
 _atom_site_fract_z
 _atom_site_occupancy
  Pb  Pb0  1  0.00000000  0.00000000  0.00000000  1
  S  S0  1  0.21367756  0.21367756  0.21367756  1
  S  S1  1  0.78632244  0.78632244  0.78632244  1
  Cl  Cl0  1  0.83227297  0.83227297  0.53607037  1
  Cl  Cl1  1  0.85692883  0.20097933  0.20097933  1
  Cl  Cl2  1  0.20097933  0.20097933  0.85692883  1
  Cl  Cl3  1  0.20097933  0.85692883  0.20097933  1
  Cl  Cl4  1  0.79902067  0.14307117  0.79902067  1
  Cl  Cl5  1  0.14307117  0.79902067  0.79902067  1
  Cl  Cl6  1  0.79902067  0.79902067  0.14307117  1
  Cl  Cl7  1  0.46392963  0.16772703  0.16772703  1
  Cl  Cl8  1  0.16772703  0.16772703  0.46392963  1
  Cl  Cl9  1  0.16772703  0.46392963  0.16772703  1
  Cl  Cl10  1  0.83227297  0.53607037  0.83227297  1
  Cl  Cl11  1  0.53607037  0.83227297  0.83227297  1
loop_
_geom_bond_atom_site_label_1
_geom_bond_atom_site_label_2
_geom_bond_distance
_geom_bond_site_symmetry_2
Cl0 S1 2.005303 1_555
Cl1 Pb0 2.551363 1_655
Cl2 Pb0 2.551363 1_556
Cl3 Pb0 2.551363 1_565
Cl4 Pb0 2.551363 1_656
Cl5 Pb0 2.551363 1_566
Cl6 Pb0 2.551363 1_665
Cl7 S0 2.005303 1_555
Cl8 S0 2.005303 1_555
Cl9 S0 2.005303 1_555
Cl10 S1 2.005303 1_555
Cl11 S1 2.005303 1_555
