# generated using pymatgen
data_CsCoP2Ru
_symmetry_space_group_name_H-M   'P 1'
_cell_length_a   7.74503238
_cell_length_b   7.74503226
_cell_length_c   7.74503205
_cell_angle_alpha   151.32091670
_cell_angle_beta   151.32091369
_cell_angle_gamma   41.00583279
_symmetry_Int_Tables_number   1
_chemical_formula_structural   CsCoP2Ru
_chemical_formula_sum   'Cs1 Co1 P2 Ru1'
_cell_volume   106.76965406
_cell_formula_units_Z   1
loop_
 _symmetry_equiv_pos_site_id
 _symmetry_equiv_pos_as_xyz
  1  'x, y, z'
loop_
 _atom_site_type_symbol
 _atom_site_label
 _atom_site_symmetry_multiplicity
 _atom_site_fract_x
 _atom_site_fract_y
 _atom_site_fract_z
 _atom_site_occupancy
  Cs  Cs0  1  0.00000000  0.00000000  0.00000000  1
  Co  Co0  1  0.75000000  0.25000000  0.50000000  1
  P  P0  1  0.33171122  0.33171122  0.00000000  1
  P  P1  1  0.66828878  0.66828878  1.00000000  1
  Ru  Ru0  1  0.25000000  0.75000000  0.50000000  1
loop_
_geom_bond_atom_site_label_1
_geom_bond_atom_site_label_2
_geom_bond_distance
_geom_bond_site_symmetry_2
Cs0 P1 3.649755 1_443
Cs0 P0 3.649755 1_556
Cs0 P1 3.649755 1_555
Cs0 P0 3.649755 1_444
Cs0 P1 3.649755 1_454
Cs0 P0 3.649755 1_545
Cs0 P1 3.649755 1_544
Cs0 P0 3.649755 1_455
Co0 P1 2.254986 1_555
Co0 P1 2.254986 1_544
Co0 P0 2.254986 1_555
Co0 P0 2.254986 1_656
Co0 Ru0 2.712736 1_544
Co0 Ru0 2.712736 1_656
Co0 Ru0 2.712737 1_645
Co0 Ru0 2.712737 1_555
P0 Ru0 2.254986 1_555
P0 Ru0 2.254986 1_544
P1 Ru0 2.254986 1_555
P1 Ru0 2.254986 1_656
