# generated using pymatgen
data_Y20Zn3Cd3Os2
_symmetry_space_group_name_H-M   'P 1'
_cell_length_a   9.61647265
_cell_length_b   9.61647286
_cell_length_c   9.67991469
_cell_angle_alpha   90.00000000
_cell_angle_beta   90.00000000
_cell_angle_gamma   119.99999925
_symmetry_Int_Tables_number   1
_chemical_formula_structural   Y20Zn3Cd3Os2
_chemical_formula_sum   'Y20 Zn3 Cd3 Os2'
_cell_volume   775.23572152
_cell_formula_units_Z   1
loop_
 _symmetry_equiv_pos_site_id
 _symmetry_equiv_pos_as_xyz
  1  'x, y, z'
loop_
 _atom_site_type_symbol
 _atom_site_label
 _atom_site_symmetry_multiplicity
 _atom_site_fract_x
 _atom_site_fract_y
 _atom_site_fract_z
 _atom_site_occupancy
  Y  Y0  1  0.00000000  0.00000000  0.46974756  1
  Y  Y1  1  0.00000000  0.00000000  0.03025244  1
  Y  Y2  1  0.20834812  0.79165188  0.43742443  1
  Y  Y3  1  0.20834812  0.41669623  0.43742443  1
  Y  Y4  1  0.58330377  0.79165188  0.43742443  1
  Y  Y5  1  0.79115781  0.20884219  0.55829637  1
  Y  Y6  1  0.79115781  0.58231461  0.55829637  1
  Y  Y7  1  0.41768539  0.20884219  0.55829637  1
  Y  Y8  1  0.79115781  0.20884219  0.94170363  1
  Y  Y9  1  0.79115781  0.58231461  0.94170363  1
  Y  Y10  1  0.41768539  0.20884219  0.94170363  1
  Y  Y11  1  0.20834812  0.79165188  0.06257557  1
  Y  Y12  1  0.20834812  0.41669623  0.06257557  1
  Y  Y13  1  0.58330377  0.79165188  0.06257557  1
  Y  Y14  1  0.54057238  0.45942762  0.25000000  1
  Y  Y15  1  0.54057238  0.08114476  0.25000000  1
  Y  Y16  1  0.91885524  0.45942762  0.25000000  1
  Y  Y17  1  0.45990985  0.54009015  0.75000000  1
  Y  Y18  1  0.45990985  0.91981869  0.75000000  1
  Y  Y19  1  0.08018131  0.54009015  0.75000000  1
  Zn  Zn0  1  0.87553631  0.12446369  0.25000000  1
  Zn  Zn1  1  0.87553631  0.75107462  0.25000000  1
  Zn  Zn2  1  0.24892538  0.12446369  0.25000000  1
  Cd  Cd0  1  0.10911949  0.89088051  0.75000000  1
  Cd  Cd1  1  0.10911949  0.21823697  0.75000000  1
  Cd  Cd2  1  0.78176303  0.89088051  0.75000000  1
  Os  Os0  1  0.33333300  0.66666700  0.25000000  1
  Os  Os1  1  0.66666700  0.33333300  0.75000000  1
loop_
_geom_bond_atom_site_label_1
_geom_bond_atom_site_label_2
_geom_bond_distance
_geom_bond_site_symmetry_2
Y0 Zn2 2.970247 1_555
Y0 Zn1 2.970247 1_445
Y0 Zn0 2.970258 1_455
Y1 Zn2 2.970247 1_555
Y1 Zn1 2.970247 1_445
Y1 Zn0 2.970258 1_455
Y2 Zn1 3.526750 1_455
Y2 Zn2 3.526750 1_565
Y3 Zn2 3.526733 1_555
Y3 Zn0 3.526743 1_455
Y4 Zn1 3.526733 1_555
Y4 Zn0 3.526743 1_565
Y5 Zn0 3.298661 1_555
Y6 Zn1 3.298672 1_555
Y7 Zn2 3.298672 1_555
Y8 Zn0 3.298661 1_556
Y9 Zn1 3.298672 1_556
Y10 Zn2 3.298672 1_556
Y11 Zn1 3.526750 1_455
Y11 Zn2 3.526750 1_565
Y12 Zn2 3.526733 1_555
Y12 Zn0 3.526743 1_455
Y13 Zn1 3.526733 1_555
Y13 Zn0 3.526743 1_565
Y14 Zn1 3.034414 1_555
Y14 Zn2 3.034414 1_555
Y15 Zn0 3.034406 1_555
Y15 Zn2 3.034425 1_555
Y16 Zn0 3.034406 1_555
Y16 Zn1 3.034425 1_555
Cd0 Cd2 3.148014 1_455
Cd0 Cd1 3.148015 1_565
Cd0 Y18 3.243191 1_555
Cd0 Y19 3.243191 1_555
Cd0 Y1 3.265389 1_566
Cd0 Y0 3.265389 1_565
Cd0 Y11 3.447688 1_556
Cd0 Y2 3.447688 1_555
Cd0 Y9 3.539034 1_455
Cd0 Y6 3.539034 1_455
Cd0 Y10 3.539034 1_565
Cd0 Y7 3.539034 1_565
Cd1 Cd2 3.148015 1_445
Cd1 Y17 3.243195 1_555
Cd1 Y19 3.243201 1_555
Cd1 Y1 3.265379 1_556
Cd1 Y0 3.265379 1_555
Cd1 Y12 3.447696 1_556
Cd1 Y3 3.447696 1_555
Cd1 Y10 3.539030 1_555
Cd1 Y7 3.539030 1_555
Cd1 Y8 3.539038 1_455
Cd1 Y5 3.539038 1_455
Cd2 Y17 3.243195 1_555
Cd2 Y18 3.243201 1_555
Cd2 Y1 3.265379 1_666
Cd2 Y0 3.265379 1_665
Cd2 Y13 3.447696 1_556
Cd2 Y4 3.447696 1_555
Cd2 Y9 3.539030 1_555
Cd2 Y6 3.539030 1_555
Cd2 Y8 3.539038 1_565
Cd2 Y5 3.539038 1_565
Os0 Y2 2.761395 1_555
Os0 Y11 2.761395 1_555
Os0 Y4 2.761401 1_555
Os0 Y13 2.761401 1_555
Os0 Y3 2.761401 1_555
Os0 Y12 2.761401 1_555
Os0 Y16 3.451816 1_455
Os0 Y15 3.451816 1_565
Os0 Y14 3.451825 1_555
Os1 Y10 2.782647 1_555
Os1 Y7 2.782647 1_555
Os1 Y8 2.782647 1_555
Os1 Y5 2.782647 1_555
Os1 Y9 2.782647 1_555
Os1 Y6 2.782647 1_555
Os1 Y17 3.443792 1_555
Os1 Y19 3.443792 1_655
Os1 Y18 3.443793 1_545
