# generated using pymatgen
data_SrCa2(AgSn)3
_symmetry_space_group_name_H-M   'P 1'
_cell_length_a   4.82759827
_cell_length_b   4.82759901
_cell_length_c   11.54100294
_cell_angle_alpha   90.00000000
_cell_angle_beta   90.00000000
_cell_angle_gamma   119.99999488
_symmetry_Int_Tables_number   1
_chemical_formula_structural   SrCa2(AgSn)3
_chemical_formula_sum   'Sr1 Ca2 Ag3 Sn3'
_cell_volume   232.93594884
_cell_formula_units_Z   1
loop_
 _symmetry_equiv_pos_site_id
 _symmetry_equiv_pos_as_xyz
  1  'x, y, z'
loop_
 _atom_site_type_symbol
 _atom_site_label
 _atom_site_symmetry_multiplicity
 _atom_site_fract_x
 _atom_site_fract_y
 _atom_site_fract_z
 _atom_site_occupancy
  Sr  Sr0  1  0.00000000  0.00000000  0.82723228  1
  Ca  Ca0  1  0.00000000  0.00000000  0.48918495  1
  Ca  Ca1  1  0.00000000  0.00000000  0.17307728  1
  Ag  Ag0  1  0.66666700  0.33333300  0.01257758  1
  Ag  Ag1  1  0.33333300  0.66666700  0.64994847  1
  Ag  Ag2  1  0.33333300  0.66666700  0.30582682  1
  Sn  Sn0  1  0.66666700  0.33333300  0.62742927  1
  Sn  Sn1  1  0.66666700  0.33333300  0.35308856  1
  Sn  Sn2  1  0.33333300  0.66666700  0.01763380  1
loop_
_geom_bond_atom_site_label_1
_geom_bond_atom_site_label_2
_geom_bond_distance
_geom_bond_site_symmetry_2
Ca0 Sn1 3.199315 1_455
Ca0 Sn1 3.199319 1_555
Ca0 Sn1 3.199319 1_445
Ca0 Sn0 3.211558 1_455
Ca0 Sn0 3.211562 1_555
Ca0 Sn0 3.211562 1_445
Ca1 Sn2 3.314649 1_545
Ca1 Sn2 3.314652 1_445
Ca1 Sn2 3.314652 1_555
Ca1 Sn1 3.476292 1_455
Ca1 Sn1 3.476295 1_555
Ca1 Sn1 3.476295 1_445
Ag0 Sn2 2.787823 1_655
Ag0 Sn2 2.787824 1_545
Ag0 Sn2 2.787832 1_555
Ag0 Ca1 3.346591 1_655
Ag0 Ca1 3.346594 1_555
Ag0 Ca1 3.346595 1_665
Ag0 Sr0 3.513428 1_654
Ag0 Sr0 3.513431 1_554
Ag0 Sr0 3.513432 1_664
Ag1 Sn0 2.799303 1_455
Ag1 Sn0 2.799304 1_565
Ag1 Sn0 2.799312 1_555
Ag1 Ca0 3.348277 1_565
Ag1 Ca0 3.348281 1_665
Ag1 Ca0 3.348281 1_555
Ag1 Sr0 3.457572 1_565
Ag1 Sr0 3.457575 1_665
Ag1 Sr0 3.457576 1_555
Ag2 Sn1 2.840082 1_455
Ag2 Sn1 2.840083 1_565
Ag2 Sn1 2.840090 1_555
Ag2 Ca1 3.180530 1_565
Ag2 Ca1 3.180533 1_665
Ag2 Ca1 3.180534 1_555
Ag2 Sn2 3.326036 1_555
Ag2 Ca0 3.499513 1_565
Ag2 Ca0 3.499516 1_665
Ag2 Ca0 3.499516 1_555
Sn0 Sn1 3.166167 1_555
Sn0 Sr0 3.617437 1_655
Sn0 Sr0 3.617441 1_555
Sn0 Sr0 3.617441 1_665
Sn2 Sr0 3.549257 1_564
Sn2 Sr0 3.549261 1_664
Sn2 Sr0 3.549261 1_554
