# generated using pymatgen
data_Zn3GaB6PO12
_symmetry_space_group_name_H-M   'P 1'
_cell_length_a   6.67920463
_cell_length_b   6.67920463
_cell_length_c   6.67920509
_cell_angle_alpha   109.55951019
_cell_angle_beta   109.55951019
_cell_angle_gamma   109.55950272
_symmetry_Int_Tables_number   1
_chemical_formula_structural   Zn3GaB6PO12
_chemical_formula_sum   'Zn3 Ga1 B6 P1 O12'
_cell_volume   228.62547813
_cell_formula_units_Z   1
loop_
 _symmetry_equiv_pos_site_id
 _symmetry_equiv_pos_as_xyz
  1  'x, y, z'
loop_
 _atom_site_type_symbol
 _atom_site_label
 _atom_site_symmetry_multiplicity
 _atom_site_fract_x
 _atom_site_fract_y
 _atom_site_fract_z
 _atom_site_occupancy
  Zn  Zn0  1  0.99966900  0.99966900  0.33375700  1
  Zn  Zn1  1  0.33375700  0.99966900  0.99966900  1
  Zn  Zn2  1  0.99966900  0.33375700  0.99966900  1
  Ga  Ga0  1  0.65283500  0.65283500  0.65283500  1
  B  B0  1  0.24872000  0.75076700  0.50271600  1
  B  B1  1  0.24872000  0.50271600  0.75076700  1
  B  B2  1  0.50271600  0.75076700  0.24872000  1
  B  B3  1  0.50271600  0.24872000  0.75076700  1
  B  B4  1  0.75076700  0.50271600  0.24872000  1
  B  B5  1  0.75076700  0.24872000  0.50271600  1
  P  P0  1  0.99229000  0.99229000  0.99229000  1
  O  O0  1  0.00040000  0.56988000  0.28659100  1
  O  O1  1  0.43104600  0.70735600  0.43104600  1
  O  O2  1  0.29375700  0.72021300  0.72021300  1
  O  O3  1  0.28659100  0.00040000  0.56988000  1
  O  O4  1  0.28659100  0.56988000  0.00040000  1
  O  O5  1  0.43104600  0.43104600  0.70735600  1
  O  O6  1  0.72021300  0.29375700  0.72021300  1
  O  O7  1  0.56988000  0.00040000  0.28659100  1
  O  O8  1  0.56988000  0.28659100  0.00040000  1
  O  O9  1  0.70735600  0.43104600  0.43104600  1
  O  O10  1  0.72021300  0.72021300  0.29375700  1
  O  O11  1  0.00040000  0.28659100  0.56988000  1
loop_
_geom_bond_atom_site_label_1
_geom_bond_atom_site_label_2
_geom_bond_distance
_geom_bond_site_symmetry_2
Ga0 O9 1.942833 1_555
Ga0 O1 1.942833 1_555
Ga0 O5 1.942833 1_555
Ga0 P0 2.257389 1_555
B0 O0 1.477089 1_555
B0 O3 1.478542 1_565
B0 O2 1.479697 1_555
B0 O1 1.526454 1_555
B1 O11 1.477089 1_555
B1 O4 1.478542 1_556
B1 O2 1.479697 1_555
B1 O5 1.526454 1_555
B2 O4 1.477089 1_555
B2 O7 1.478542 1_565
B2 O10 1.479697 1_555
B2 O1 1.526455 1_555
B3 O3 1.477089 1_555
B3 O8 1.478542 1_556
B3 O6 1.479697 1_555
B3 O5 1.526454 1_555
B4 O8 1.477089 1_555
B4 O0 1.478542 1_655
B4 O10 1.479697 1_555
B4 O9 1.526455 1_555
B5 O7 1.477089 1_555
B5 O11 1.478542 1_655
B5 O6 1.479697 1_555
B5 O9 1.526454 1_555
P0 Zn2 2.248204 1_565
P0 Zn1 2.248204 1_655
P0 Zn0 2.248204 1_556
O0 Zn2 2.030963 1_454
O2 Zn1 2.009669 1_555
O3 Zn0 2.030963 1_445
O4 Zn2 2.030963 1_454
O6 Zn2 2.009669 1_555
O7 Zn1 2.030963 1_544
O8 Zn1 2.030963 1_544
O10 Zn0 2.009669 1_555
O11 Zn0 2.030963 1_445
