# generated using pymatgen
data_Hf5NbAl7
_symmetry_space_group_name_H-M   'P 1'
_cell_length_a   5.26788219
_cell_length_b   5.26788373
_cell_length_c   10.07133230
_cell_angle_alpha   74.83922877
_cell_angle_beta   74.83922494
_cell_angle_gamma   59.99999409
_symmetry_Int_Tables_number   1
_chemical_formula_structural   Hf5NbAl7
_chemical_formula_sum   'Hf5 Nb1 Al7'
_cell_volume   230.74103898
_cell_formula_units_Z   1
loop_
 _symmetry_equiv_pos_site_id
 _symmetry_equiv_pos_as_xyz
  1  'x, y, z'
loop_
 _atom_site_type_symbol
 _atom_site_label
 _atom_site_symmetry_multiplicity
 _atom_site_fract_x
 _atom_site_fract_y
 _atom_site_fract_z
 _atom_site_occupancy
  Hf  Hf0  1  0.83387283  0.83387283  0.49838351  1
  Hf  Hf1  1  0.16462548  0.16462548  0.50612356  1
  Hf  Hf2  1  0.64950070  0.64950070  0.05149890  1
  Hf  Hf3  1  0.35179702  0.35179702  0.94460795  1
  Hf  Hf4  1  0.54381488  0.54381488  0.36855436  1
  Nb  Nb0  1  0.45415670  0.45415670  0.63752891  1
  Al  Al0  1  0.00023443  0.00023443  0.99929870  1
  Al  Al1  1  0.90773420  0.90773420  0.76992050  1
  Al  Al2  1  0.41460910  0.90773420  0.76992050  1
  Al  Al3  1  0.90773420  0.41460910  0.76992050  1
  Al  Al4  1  0.09278805  0.09278805  0.22807954  1
  Al  Al5  1  0.58634335  0.09278805  0.22807954  1
  Al  Al6  1  0.09278805  0.58634335  0.22807954  1
loop_
_geom_bond_atom_site_label_1
_geom_bond_atom_site_label_2
_geom_bond_distance
_geom_bond_site_symmetry_2
Hf0 Hf1 3.042315 1_665
Hf0 Hf1 3.042324 1_565
Hf0 Hf1 3.042325 1_655
Hf0 Hf4 3.286935 1_655
Hf0 Hf4 3.286936 1_565
Hf0 Hf4 3.286948 1_555
Hf0 Nb0 3.321887 1_655
Hf0 Nb0 3.321888 1_565
Hf0 Nb0 3.321900 1_555
Hf1 Nb0 3.292706 1_555
Hf1 Nb0 3.292709 1_455
Hf1 Nb0 3.292710 1_545
Hf1 Hf4 3.315832 1_555
Hf1 Hf4 3.315835 1_455
Hf1 Hf4 3.315836 1_545
Hf2 Hf4 3.044088 1_555
Hf2 Hf3 3.209893 1_654
Hf2 Hf3 3.209894 1_564
Hf2 Hf3 3.209902 1_554
Hf3 Nb0 2.948303 1_555
Hf4 Nb0 2.582458 1_555
Al0 Al4 2.682790 1_556
Al0 Al5 2.682798 1_456
Al0 Al6 2.682799 1_546
Al0 Al2 2.688240 1_545
Al0 Al3 2.688240 1_455
Al0 Al1 2.688250 1_445
Al0 Hf2 3.082429 1_546
Al0 Hf2 3.082429 1_456
Al0 Hf2 3.082434 1_446
Al0 Hf3 3.086400 1_555
Al0 Hf3 3.086413 1_455
Al0 Hf3 3.086413 1_545
Al1 Al2 2.597725 1_555
Al1 Al3 2.597726 1_555
Al1 Al2 2.670157 1_655
Al1 Al3 2.670158 1_565
Al1 Nb0 2.924688 1_655
Al1 Nb0 2.924688 1_565
Al1 Hf1 2.965031 1_665
Al1 Hf0 3.007676 1_555
Al1 Hf2 3.091619 1_556
Al1 Hf3 3.122670 1_565
Al1 Hf3 3.122670 1_655
Al2 Al3 2.597725 1_555
Al2 Al3 2.670157 1_465
Al2 Nb0 2.924686 1_555
Al2 Nb0 2.924691 1_565
Al2 Hf1 2.965025 1_565
Al2 Hf0 3.007685 1_555
Al2 Hf2 3.091625 1_556
Al2 Hf3 3.122669 1_555
Al2 Hf3 3.122672 1_565
Al3 Nb0 2.924685 1_555
Al3 Nb0 2.924690 1_655
Al3 Hf1 2.965025 1_655
Al3 Hf0 3.007686 1_555
Al3 Hf2 3.091625 1_556
Al3 Hf3 3.122668 1_555
Al3 Hf3 3.122672 1_655
Al4 Al5 2.599991 1_555
Al4 Al6 2.599992 1_555
Al4 Al5 2.667891 1_455
Al4 Al6 2.667892 1_545
Al4 Hf4 2.959234 1_455
Al4 Hf4 2.959234 1_545
Al4 Hf0 3.017896 1_445
Al4 Hf1 3.062636 1_555
Al4 Hf3 3.108163 1_554
Al4 Hf2 3.132462 1_545
Al4 Hf2 3.132462 1_455
Al5 Al6 2.599991 1_555
Al5 Al6 2.667891 1_645
Al5 Hf4 2.959234 1_555
Al5 Hf4 2.959235 1_545
Al5 Hf0 3.017902 1_545
Al5 Hf1 3.062634 1_555
Al5 Hf3 3.108162 1_554
Al5 Hf2 3.132458 1_545
Al5 Hf2 3.132467 1_555
Al6 Hf4 2.959234 1_555
Al6 Hf4 2.959234 1_455
Al6 Hf0 3.017903 1_455
Al6 Hf1 3.062635 1_555
Al6 Hf3 3.108162 1_554
Al6 Hf2 3.132457 1_455
Al6 Hf2 3.132467 1_555
