# generated using pymatgen
data_NbVSb2F20
_symmetry_space_group_name_H-M   'P 1'
_cell_length_a   5.53924847
_cell_length_b   7.21900133
_cell_length_c   9.47906883
_cell_angle_alpha   87.66027006
_cell_angle_beta   105.12302396
_cell_angle_gamma   98.74545522
_symmetry_Int_Tables_number   1
_chemical_formula_structural   NbVSb2F20
_chemical_formula_sum   'Nb1 V1 Sb2 F20'
_cell_volume   361.66567444
_cell_formula_units_Z   1
loop_
 _symmetry_equiv_pos_site_id
 _symmetry_equiv_pos_as_xyz
  1  'x, y, z'
loop_
 _atom_site_type_symbol
 _atom_site_label
 _atom_site_symmetry_multiplicity
 _atom_site_fract_x
 _atom_site_fract_y
 _atom_site_fract_z
 _atom_site_occupancy
  Nb  Nb0  1  0.65793451  0.62608756  0.78033205  1
  V  V0  1  0.34498211  0.38608214  0.22491553  1
  Sb  Sb0  1  0.95956339  0.76344672  0.30690726  1
  Sb  Sb1  1  0.03867028  0.23050613  0.69033801  1
  F  F0  1  0.04132420  0.27857729  0.17131967  1
  F  F1  1  0.99672156  0.72404657  0.83249370  1
  F  F2  1  0.48579164  0.23353866  0.15453278  1
  F  F3  1  0.51350713  0.79780095  0.85650481  1
  F  F4  1  0.10226495  0.24304917  0.89379404  1
  F  F5  1  0.89143157  0.73632460  0.10337706  1
  F  F6  1  0.96605092  0.26034599  0.48786435  1
  F  F7  1  0.03140169  0.74534026  0.51037756  1
  F  F8  1  0.78822275  0.02205130  0.67942434  1
  F  F9  1  0.22028269  0.96145755  0.31114573  1
  F  F10  1  0.30583962  0.09906697  0.69745504  1
  F  F11  1  0.70708046  0.91224927  0.29148592  1
  F  F12  1  0.27664695  0.46662942  0.70530162  1
  F  F13  1  0.70547651  0.53950322  0.30158434  1
  F  F14  1  0.78845710  0.39936574  0.68299349  1
  F  F15  1  0.19984394  0.58510221  0.31958643  1
  F  F16  1  0.65684534  0.43365094  0.91915859  1
  F  F17  1  0.33517797  0.55930409  0.09291107  1
  F  F18  1  0.56345431  0.67648913  0.58090570  1
  F  F19  1  0.42302842  0.31998512  0.40529091  1
loop_
_geom_bond_atom_site_label_1
_geom_bond_atom_site_label_2
_geom_bond_distance
_geom_bond_site_symmetry_2
F0 V0 1.696761 1_555
F1 Nb0 1.845839 1_555
F2 V0 1.690810 1_555
F3 Nb0 1.836857 1_555
F4 Sb1 1.871299 1_555
F5 Sb0 1.879184 1_555
F6 Sb1 1.865887 1_655
F7 Sb0 1.868186 1_455
F8 Sb1 1.871578 1_655
F9 Sb0 1.864739 1_455
F10 Sb1 1.861379 1_555
F11 Sb0 1.862425 1_555
F12 Sb1 1.975416 1_555
F12 Nb0 2.198957 1_555
F13 Sb0 1.968428 1_555
F13 V0 2.092431 1_555
F14 Sb1 1.966791 1_655
F14 Nb0 2.209997 1_555
F15 Sb0 1.966849 1_455
F15 V0 2.085379 1_555
F16 Nb0 1.874555 1_555
F17 V0 1.729107 1_555
F18 Nb0 1.861540 1_555
F19 V0 1.717086 1_555
