# generated using pymatgen
data_Cs3CrIrBr9
_symmetry_space_group_name_H-M   'P 1'
_cell_length_a   7.61050083
_cell_length_b   7.61050017
_cell_length_c   19.16976216
_cell_angle_alpha   90.00000000
_cell_angle_beta   90.00000000
_cell_angle_gamma   119.99999470
_symmetry_Int_Tables_number   1
_chemical_formula_structural   Cs3CrIrBr9
_chemical_formula_sum   'Cs6 Cr2 Ir2 Br18'
_cell_volume   961.55430662
_cell_formula_units_Z   2
loop_
 _symmetry_equiv_pos_site_id
 _symmetry_equiv_pos_as_xyz
  1  'x, y, z'
loop_
 _atom_site_type_symbol
 _atom_site_label
 _atom_site_symmetry_multiplicity
 _atom_site_fract_x
 _atom_site_fract_y
 _atom_site_fract_z
 _atom_site_occupancy
  Cs  Cs0  1  0.66666700  0.33333300  0.93090507  1
  Cs  Cs1  1  0.33333300  0.66666700  0.43090507  1
  Cs  Cs2  1  0.66666700  0.33333300  0.57214861  1
  Cs  Cs3  1  0.33333300  0.66666700  0.07214861  1
  Cs  Cs4  1  0.00000000  0.00000000  0.74874856  1
  Cs  Cs5  1  0.00000000  0.00000000  0.24874856  1
  Cr  Cr0  1  0.66666700  0.33333300  0.33704459  1
  Cr  Cr1  1  0.33333300  0.66666700  0.83704459  1
  Ir  Ir0  1  0.33333300  0.66666700  0.66686680  1
  Ir  Ir1  1  0.66666700  0.33333300  0.16686680  1
  Br  Br0  1  0.82352290  0.64704480  0.40620344  1
  Br  Br1  1  0.17647710  0.35295520  0.90620344  1
  Br  Br2  1  0.17647710  0.82352290  0.90620344  1
  Br  Br3  1  0.17829645  0.35659390  0.59333705  1
  Br  Br4  1  0.64704480  0.82352290  0.90620344  1
  Br  Br5  1  0.35295520  0.17647710  0.40620344  1
  Br  Br6  1  0.03040768  0.51520334  0.74855530  1
  Br  Br7  1  0.82352290  0.17647710  0.40620344  1
  Br  Br8  1  0.51520334  0.03040768  0.24855530  1
  Br  Br9  1  0.48479666  0.51520334  0.74855530  1
  Br  Br10  1  0.51520334  0.48479666  0.24855530  1
  Br  Br11  1  0.96959232  0.48479666  0.24855530  1
  Br  Br12  1  0.35659390  0.17829645  0.09333705  1
  Br  Br13  1  0.48479666  0.96959232  0.74855530  1
  Br  Br14  1  0.82170355  0.64340610  0.09333705  1
  Br  Br15  1  0.17829645  0.82170355  0.59333705  1
  Br  Br16  1  0.64340610  0.82170355  0.59333705  1
  Br  Br17  1  0.82170355  0.17829645  0.09333705  1
loop_
_geom_bond_atom_site_label_1
_geom_bond_atom_site_label_2
_geom_bond_distance
_geom_bond_site_symmetry_2
Br0 Cr0 2.456169 1_555
Br0 Cs2 3.794037 1_555
Br0 Cs5 3.810799 1_665
Br0 Cs1 3.836773 1_655
Br0 Cs1 3.836788 1_555
Br1 Cr1 2.456169 1_555
Br1 Cs3 3.794037 1_556
Br1 Cs4 3.810799 1_555
Br1 Cs0 3.836773 1_455
Br1 Cs0 3.836788 1_555
Br2 Cr1 2.456169 1_555
Br2 Cs3 3.794037 1_556
Br2 Cs4 3.810795 1_565
Br2 Cs0 3.836780 1_565
Br2 Cs0 3.836780 1_455
Br3 Ir0 2.482611 1_555
Br3 Cs1 3.724537 1_555
Br3 Cs4 3.794656 1_555
Br3 Cs2 3.829929 1_455
Br3 Cs2 3.829944 1_555
Br4 Cr1 2.456169 1_555
Br4 Cs3 3.794037 1_556
Br4 Cs4 3.810799 1_665
Br4 Cs0 3.836772 1_565
Br4 Cs0 3.836787 1_555
Br5 Cr0 2.456169 1_555
Br5 Cs2 3.794037 1_555
Br5 Cs5 3.810799 1_555
Br5 Cs1 3.836772 1_545
Br5 Cs1 3.836787 1_555
Br6 Ir0 2.537399 1_555
Br6 Cr1 2.619866 1_555
Br6 Cs4 3.810522 1_555
Br6 Cs4 3.810530 1_565
Br6 Cs2 4.145253 1_455
Br6 Cs0 4.238706 1_455
Br7 Cr0 2.456169 1_555
Br7 Cs2 3.794037 1_555
Br7 Cs5 3.810795 1_655
Br7 Cs1 3.836780 1_545
Br7 Cs1 3.836780 1_655
Br8 Ir1 2.537399 1_555
Br8 Cr0 2.619865 1_555
Br8 Cs5 3.810522 1_555
Br8 Cs5 3.810530 1_655
Br8 Cs3 4.145253 1_545
Br8 Cs1 4.238706 1_545
Br9 Ir0 2.537409 1_555
Br9 Cr1 2.619875 1_555
Br9 Cs4 3.810526 1_555
Br9 Cs4 3.810526 1_665
Br9 Cs2 4.145253 1_555
Br9 Cs0 4.238706 1_555
Br10 Ir1 2.537409 1_555
Br10 Cr0 2.619875 1_555
Br10 Cs5 3.810526 1_665
Br10 Cs5 3.810526 1_555
Br10 Cs3 4.145253 1_555
Br10 Cs1 4.238706 1_555
Br11 Ir1 2.537399 1_555
Br11 Cr0 2.619866 1_555
Br11 Cs5 3.810522 1_665
Br11 Cs5 3.810530 1_655
Br11 Cs3 4.145253 1_655
Br11 Cs1 4.238706 1_655
Br12 Ir1 2.482611 1_555
Br12 Cs0 3.724537 1_554
Br12 Cs5 3.794656 1_555
Br12 Cs3 3.829929 1_545
Br12 Cs3 3.829944 1_555
Br13 Ir0 2.537399 1_555
Br13 Cr1 2.619865 1_555
Br13 Cs4 3.810522 1_665
Br13 Cs4 3.810530 1_565
Br13 Cs2 4.145253 1_565
Br13 Cs0 4.238706 1_565
Br14 Ir1 2.482611 1_555
Br14 Cs0 3.724537 1_554
Br14 Cs5 3.794656 1_665
Br14 Cs3 3.829929 1_655
Br14 Cs3 3.829944 1_555
Br15 Ir0 2.482611 1_555
Br15 Cs1 3.724537 1_555
Br15 Cs4 3.794652 1_565
Br15 Cs2 3.829936 1_565
Br15 Cs2 3.829936 1_455
Br16 Ir0 2.482611 1_555
Br16 Cs1 3.724537 1_555
Br16 Cs4 3.794656 1_665
Br16 Cs2 3.829929 1_565
Br16 Cs2 3.829944 1_555
Br17 Ir1 2.482611 1_555
Br17 Cs0 3.724537 1_554
Br17 Cs5 3.794652 1_655
Br17 Cs3 3.829936 1_545
Br17 Cs3 3.829936 1_655
