# generated using pymatgen
data_Mg3SnP6N13
_symmetry_space_group_name_H-M   'P 1'
_cell_length_a   7.06404568
_cell_length_b   7.06404730
_cell_length_c   7.06404590
_cell_angle_alpha   109.27458289
_cell_angle_beta   109.27458471
_cell_angle_gamma   109.27458149
_symmetry_Int_Tables_number   1
_chemical_formula_structural   Mg3SnP6N13
_chemical_formula_sum   'Mg3 Sn1 P6 N13'
_cell_volume   273.31325914
_cell_formula_units_Z   1
loop_
 _symmetry_equiv_pos_site_id
 _symmetry_equiv_pos_as_xyz
  1  'x, y, z'
loop_
 _atom_site_type_symbol
 _atom_site_label
 _atom_site_symmetry_multiplicity
 _atom_site_fract_x
 _atom_site_fract_y
 _atom_site_fract_z
 _atom_site_occupancy
  Mg  Mg0  1  0.99617377  0.69252329  0.99617377  1
  Mg  Mg1  1  0.69252329  0.99617377  0.99617377  1
  Mg  Mg2  1  0.99617377  0.99617377  0.69252329  1
  Sn  Sn0  1  0.27472763  0.27472763  0.27472763  1
  P  P0  1  0.50366304  0.25335793  0.75662118  1
  P  P1  1  0.50366304  0.75662118  0.25335793  1
  P  P2  1  0.75662118  0.25335793  0.50366304  1
  P  P3  1  0.25335793  0.50366304  0.75662118  1
  P  P4  1  0.75662118  0.50366304  0.25335793  1
  P  P5  1  0.25335793  0.75662118  0.50366304  1
  N  N0  1  0.96811640  0.96811640  0.96811640  1
  N  N1  1  0.00249375  0.73246563  0.44986048  1
  N  N2  1  0.27307889  0.72293410  0.27307889  1
  N  N3  1  0.28760639  0.55932993  0.55932993  1
  N  N4  1  0.55932993  0.55932993  0.28760639  1
  N  N5  1  0.55932993  0.28760639  0.55932993  1
  N  N6  1  0.73246563  0.00249375  0.44986048  1
  N  N7  1  0.44986048  0.00249375  0.73246563  1
  N  N8  1  0.73246563  0.44986048  0.00249375  1
  N  N9  1  0.27307889  0.27307889  0.72293410  1
  N  N10  1  0.72293410  0.27307889  0.27307889  1
  N  N11  1  0.00249375  0.44986048  0.73246563  1
  N  N12  1  0.44986048  0.73246563  0.00249375  1
loop_
_geom_bond_atom_site_label_1
_geom_bond_atom_site_label_2
_geom_bond_distance
_geom_bond_site_symmetry_2
Mg0 N0 2.086180 1_555
Mg0 N11 2.099494 1_655
Mg0 N8 2.099494 1_556
Mg0 N2 2.148884 1_656
Mg1 N0 2.086180 1_555
Mg1 N7 2.099494 1_565
Mg1 N12 2.099494 1_556
Mg1 N10 2.148884 1_566
Mg2 N0 2.086180 1_555
Mg2 N6 2.099494 1_565
Mg2 N1 2.099494 1_655
Mg2 N9 2.148884 1_665
N0 Sn0 2.186852 1_666
N1 P5 1.620760 1_555
N1 P4 1.621626 1_455
N2 P1 1.626347 1_555
N2 P5 1.626347 1_555
N3 P3 1.636183 1_555
N3 P5 1.636184 1_555
N3 Sn0 2.276429 1_555
N4 P4 1.636183 1_555
N4 P1 1.636184 1_555
N4 Sn0 2.276429 1_555
N5 P2 1.636183 1_555
N5 P0 1.636183 1_555
N5 Sn0 2.276428 1_555
N6 P2 1.620760 1_555
N6 P1 1.621626 1_545
N7 P0 1.620760 1_555
N7 P5 1.621626 1_545
N8 P4 1.620760 1_555
N8 P0 1.621626 1_554
N9 P0 1.626347 1_555
N9 P3 1.626347 1_555
N10 P2 1.626347 1_555
N10 P4 1.626347 1_555
N11 P3 1.620760 1_555
N11 P2 1.621626 1_455
N12 P1 1.620760 1_555
N12 P3 1.621626 1_554
