# generated using pymatgen
data_Ho12Co7
_symmetry_space_group_name_H-M   'P 1'
_cell_length_a   11.14863900
_cell_length_b   8.24068600
_cell_length_c   10.97718191
_cell_angle_alpha   54.86965419
_cell_angle_beta   90.00000000
_cell_angle_gamma   90.00000000
_symmetry_Int_Tables_number   1
_chemical_formula_structural   Ho12Co7
_chemical_formula_sum   'Ho24 Co14'
_cell_volume   824.79708109
_cell_formula_units_Z   2
loop_
 _symmetry_equiv_pos_site_id
 _symmetry_equiv_pos_as_xyz
  1  'x, y, z'
loop_
 _atom_site_type_symbol
 _atom_site_label
 _atom_site_symmetry_multiplicity
 _atom_site_fract_x
 _atom_site_fract_y
 _atom_site_fract_z
 _atom_site_occupancy
  Ho  Ho0  1  0.70526200  0.23484900  0.53816500  1
  Ho  Ho1  1  0.20526200  0.76515100  0.96183500  1
  Ho  Ho2  1  0.84153600  0.50185400  0.65819300  1
  Ho  Ho3  1  0.34153600  0.49814600  0.84180700  1
  Ho  Ho4  1  0.15846400  0.49814600  0.34180700  1
  Ho  Ho5  1  0.65846400  0.50185400  0.15819300  1
  Ho  Ho6  1  0.00432500  0.84543200  0.35429000  1
  Ho  Ho7  1  0.50432500  0.15456800  0.14571000  1
  Ho  Ho8  1  0.99567500  0.15456800  0.64571000  1
  Ho  Ho9  1  0.49567500  0.84543200  0.85429000  1
  Ho  Ho10  1  0.79473800  0.23484900  0.03816500  1
  Ho  Ho11  1  0.29473800  0.76515100  0.46183500  1
  Ho  Ho12  1  0.92803600  0.76978600  0.08641200  1
  Ho  Ho13  1  0.42803600  0.23021400  0.41358800  1
  Ho  Ho14  1  0.07196400  0.23021400  0.91358800  1
  Ho  Ho15  1  0.57196400  0.76978600  0.58641200  1
  Ho  Ho16  1  0.30073000  0.24934900  0.67536800  1
  Ho  Ho17  1  0.80073000  0.75065100  0.82463200  1
  Ho  Ho18  1  0.69927000  0.75065100  0.32463200  1
  Ho  Ho19  1  0.19927000  0.24934900  0.17536800  1
  Ho  Ho20  1  0.92960100  0.26671100  0.30539900  1
  Ho  Ho21  1  0.42960100  0.73328900  0.19460100  1
  Ho  Ho22  1  0.07039900  0.73328900  0.69460100  1
  Ho  Ho23  1  0.57039900  0.26671100  0.80539900  1
  Co  Co0  1  0.50000000  0.50000000  0.50000000  1
  Co  Co1  1  0.00000000  0.50000000  0.00000000  1
  Co  Co2  1  0.67399300  0.90880900  0.02958900  1
  Co  Co3  1  0.17399300  0.09119100  0.47041100  1
  Co  Co4  1  0.32600700  0.09119100  0.97041100  1
  Co  Co5  1  0.82600700  0.90880900  0.52958900  1
  Co  Co6  1  0.40128100  0.49345800  0.09975800  1
  Co  Co7  1  0.90128100  0.50654200  0.40024200  1
  Co  Co8  1  0.59871900  0.50654200  0.90024200  1
  Co  Co9  1  0.09871900  0.49345800  0.59975800  1
  Co  Co10  1  0.81097100  0.09812800  0.84266300  1
  Co  Co11  1  0.31097100  0.90187200  0.65733700  1
  Co  Co12  1  0.18902900  0.90187200  0.15733700  1
  Co  Co13  1  0.68902900  0.09812800  0.34266300  1
loop_
_geom_bond_atom_site_label_1
_geom_bond_atom_site_label_2
_geom_bond_distance
_geom_bond_site_symmetry_2
Ho0 Ho8 3.378649 1_555
Ho0 Ho13 3.388808 1_555
Ho0 Ho23 3.438210 1_555
Ho0 Ho5 3.456700 1_555
Ho0 Ho20 3.475748 1_555
Ho0 Ho18 3.478437 1_555
Ho0 Ho2 3.495992 1_555
Ho0 Ho17 3.535812 1_545
Ho0 Ho15 3.852348 1_545
Ho0 Ho9 3.870882 1_545
Ho1 Ho9 3.378649 1_555
Ho1 Ho12 3.388808 1_456
Ho1 Ho22 3.438210 1_555
Ho1 Ho4 3.456700 1_556
Ho1 Ho21 3.475748 1_556
Ho1 Ho19 3.478437 1_556
Ho1 Ho3 3.495992 1_555
Ho1 Ho16 3.535812 1_565
Ho1 Ho14 3.852348 1_565
Ho1 Ho8 3.870882 1_465
Ho2 Ho22 3.344324 1_655
Ho2 Ho23 3.449598 1_555
Ho10 Ho7 3.378649 1_555
Ho10 Ho14 3.388808 1_654
Ho10 Ho20 3.438210 1_555
Ho10 Ho2 3.456700 1_554
Ho10 Ho23 3.475748 1_554
Ho10 Ho17 3.478437 1_554
Ho10 Ho5 3.495992 1_555
Ho10 Ho18 3.535812 1_545
Ho10 Ho12 3.852348 1_545
Ho10 Ho6 3.870882 1_645
Ho11 Ho6 3.378649 1_555
Ho11 Ho15 3.388808 1_555
Ho11 Ho21 3.438210 1_555
Ho11 Ho3 3.456700 1_555
Ho11 Ho22 3.475748 1_555
Ho11 Ho16 3.478437 1_555
Ho11 Ho4 3.495992 1_555
Ho11 Ho19 3.535812 1_565
Ho11 Ho13 3.852348 1_565
Ho11 Ho7 3.870882 1_565
Ho12 Ho20 3.390621 1_555
Ho13 Ho21 3.390621 1_555
Ho14 Ho22 3.390621 1_555
Ho15 Ho23 3.390621 1_555
Ho16 Ho23 3.366244 1_555
Ho17 Ho22 3.366244 1_655
Ho18 Ho21 3.366244 1_555
Ho19 Ho20 3.366244 1_455
Ho20 Ho6 3.299994 1_645
Ho20 Ho4 3.344324 1_655
Ho20 Ho8 3.373228 1_555
Ho20 Ho5 3.449598 1_555
Ho21 Ho7 3.299994 1_565
Ho21 Ho5 3.344324 1_555
Ho21 Ho9 3.373228 1_554
Ho21 Ho4 3.449598 1_555
Ho22 Ho8 3.299994 1_465
Ho22 Ho6 3.373228 1_555
Ho22 Ho3 3.449598 1_555
Ho23 Ho9 3.299994 1_545
Ho23 Ho3 3.344324 1_555
Ho23 Ho7 3.373228 1_556
Co0 Ho23 2.851892 1_555
Co0 Ho21 2.851892 1_555
Co0 Ho16 2.886438 1_555
Co0 Ho18 2.886438 1_555
Co0 Ho15 2.985499 1_555
Co0 Ho13 2.985499 1_555
Co0 Ho11 3.022098 1_555
Co0 Ho0 3.022098 1_555
Co1 Ho20 2.851892 1_455
Co1 Ho22 2.851892 1_554
Co1 Ho19 2.886438 1_555
Co1 Ho17 2.886438 1_454
Co1 Ho12 2.985499 1_455
Co1 Ho14 2.985499 1_554
Co1 Ho1 3.022098 1_554
Co1 Ho10 3.022098 1_455
Co2 Ho18 2.722040 1_555
Co2 Ho23 2.781290 1_564
Co2 Ho5 2.796581 1_555
Co2 Ho12 2.983404 1_555
Co2 Ho9 3.014040 1_554
Co2 Ho10 3.054655 1_565
Co2 Ho21 3.127543 1_555
Co3 Ho19 2.722040 1_555
Co3 Ho22 2.781290 1_545
Co3 Ho4 2.796581 1_555
Co3 Ho13 2.983404 1_555
Co3 Ho8 3.014040 1_455
Co3 Ho11 3.054655 1_545
Co3 Ho20 3.127543 1_455
Co4 Ho16 2.722040 1_555
Co4 Ho21 2.781290 1_546
Co4 Ho3 2.796581 1_555
Co4 Ho14 2.983404 1_555
Co4 Ho7 3.014040 1_556
Co4 Ho1 3.054655 1_545
Co4 Ho23 3.127543 1_555
Co5 Ho17 2.722040 1_555
Co5 Ho20 2.781290 1_565
Co5 Ho2 2.796581 1_555
Co5 Ho15 2.983404 1_555
Co5 Ho6 3.014040 1_655
Co5 Ho0 3.054655 1_565
Co5 Ho22 3.127543 1_655
Co6 Ho21 2.730880 1_555
Co6 Ho7 2.784249 1_555
Co6 Ho9 2.790386 1_554
Co6 Ho19 2.808230 1_555
Co6 Ho13 2.839357 1_555
Co6 Ho1 2.859997 1_554
Co6 Ho3 2.887399 1_554
Co6 Ho5 2.947608 1_555
Co6 Co8 3.062944 1_554
Co7 Ho20 2.730880 1_555
Co7 Ho6 2.784249 1_655
Co7 Ho8 2.790386 1_555
Co7 Ho18 2.808230 1_555
Co7 Ho12 2.839357 1_555
Co7 Ho0 2.859997 1_555
Co7 Ho2 2.887399 1_555
Co7 Ho4 2.947608 1_655
Co7 Co9 3.062944 1_655
Co8 Ho23 2.730880 1_555
Co8 Ho9 2.784249 1_555
Co8 Ho7 2.790386 1_556
Co8 Ho17 2.808230 1_555
Co8 Ho15 2.839357 1_555
Co8 Ho10 2.859997 1_556
Co8 Ho5 2.887399 1_556
Co8 Ho3 2.947608 1_555
Co9 Ho22 2.730880 1_555
Co9 Ho8 2.784249 1_455
Co9 Ho6 2.790386 1_555
Co9 Ho16 2.808230 1_555
Co9 Ho14 2.839357 1_555
Co9 Ho11 2.859997 1_555
Co9 Ho4 2.887399 1_555
Co9 Ho2 2.947608 1_455
Co10 Co2 2.300479 1_546
Co10 Ho2 2.744433 1_555
Co10 Ho12 2.802083 1_546
Co10 Ho8 2.823748 1_555
Co10 Ho23 2.938825 1_555
Co10 Ho10 2.947956 1_556
Co10 Ho17 2.983928 1_545
Co10 Ho0 3.081664 1_555
Co10 Ho14 3.351521 1_655
Co11 Co3 2.300479 1_565
Co11 Ho3 2.744433 1_555
Co11 Ho13 2.802083 1_565
Co11 Ho9 2.823748 1_555
Co11 Ho22 2.938825 1_555
Co11 Ho11 2.947956 1_555
Co11 Ho16 2.983928 1_565
Co11 Ho1 3.081664 1_555
Co11 Ho15 3.351521 1_555
Co12 Co4 2.300479 1_564
Co12 Ho4 2.744433 1_555
Co12 Ho14 2.802083 1_564
Co12 Ho6 2.823748 1_555
Co12 Ho21 2.938825 1_555
Co12 Ho1 2.947956 1_554
Co12 Ho19 2.983928 1_565
Co12 Ho11 3.081664 1_555
Co12 Ho12 3.351521 1_455
Co13 Co5 2.300479 1_545
Co13 Ho5 2.744433 1_555
Co13 Ho15 2.802083 1_545
Co13 Ho7 2.823748 1_555
Co13 Ho20 2.938825 1_555
Co13 Ho0 2.947956 1_555
Co13 Ho18 2.983928 1_545
Co13 Ho10 3.081664 1_555
Co13 Ho13 3.351521 1_555
