# generated using pymatgen
data_Ga12Tc2IrRh
_symmetry_space_group_name_H-M   'P 1'
_cell_length_a   6.50877621
_cell_length_b   6.50877601
_cell_length_c   6.75312102
_cell_angle_alpha   90.00000000
_cell_angle_beta   90.00000000
_cell_angle_gamma   89.65103102
_symmetry_Int_Tables_number   1
_chemical_formula_structural   Ga12Tc2IrRh
_chemical_formula_sum   'Ga12 Tc2 Ir1 Rh1'
_cell_volume   286.08503631
_cell_formula_units_Z   1
loop_
 _symmetry_equiv_pos_site_id
 _symmetry_equiv_pos_as_xyz
  1  'x, y, z'
loop_
 _atom_site_type_symbol
 _atom_site_label
 _atom_site_symmetry_multiplicity
 _atom_site_fract_x
 _atom_site_fract_y
 _atom_site_fract_z
 _atom_site_occupancy
  Ga  Ga0  1  0.99972609  0.50052046  0.50000000  1
  Ga  Ga1  1  0.50093182  0.99825580  0.00000000  1
  Ga  Ga2  1  0.50052046  0.99972609  0.50000000  1
  Ga  Ga3  1  0.99825580  0.50093182  0.00000000  1
  Ga  Ga4  1  0.34731560  0.65259594  0.23872160  1
  Ga  Ga5  1  0.65259594  0.34731560  0.23872160  1
  Ga  Ga6  1  0.15615590  0.15615590  0.73036112  1
  Ga  Ga7  1  0.84350928  0.84350928  0.73051944  1
  Ga  Ga8  1  0.65259594  0.34731560  0.76127840  1
  Ga  Ga9  1  0.34731560  0.65259594  0.76127840  1
  Ga  Ga10  1  0.84350928  0.84350928  0.26948056  1
  Ga  Ga11  1  0.15615590  0.15615590  0.26963888  1
  Tc  Tc0  1  0.16201610  0.83872691  0.50000000  1
  Tc  Tc1  1  0.83872691  0.16201610  0.50000000  1
  Ir  Ir0  1  0.34152476  0.34152476  0.00000000  1
  Rh  Rh0  1  0.65914061  0.65914061  0.00000000  1
loop_
_geom_bond_atom_site_label_1
_geom_bond_atom_site_label_2
_geom_bond_distance
_geom_bond_site_symmetry_2
Ga0 Tc1 2.445514 1_555
Ga0 Tc0 2.447423 1_655
Ga0 Ga7 2.900580 1_555
Ga0 Ga10 2.900580 1_555
Ga0 Ga6 2.907365 1_655
Ga0 Ga11 2.907365 1_655
Ga0 Ga4 3.039518 1_655
Ga0 Ga9 3.039518 1_655
Ga0 Ga5 3.039724 1_555
Ga0 Ga8 3.039724 1_555
Ga1 Rh0 2.429924 1_555
Ga1 Ir0 2.457678 1_565
Ga1 Ga9 2.947495 1_554
Ga1 Ga4 2.947495 1_555
Ga1 Ga8 2.960146 1_564
Ga1 Ga5 2.960146 1_565
Ga1 Ga10 3.044790 1_555
Ga1 Ga7 3.044790 1_554
Ga1 Ga11 3.062627 1_565
Ga1 Ga6 3.062627 1_564
Ga2 Tc0 2.445514 1_555
Ga2 Tc1 2.447423 1_565
Ga2 Ga7 2.900580 1_555
Ga2 Ga6 2.907365 1_565
Ga2 Ga5 3.039518 1_565
Ga2 Ga8 3.039518 1_565
Ga2 Ga4 3.039724 1_555
Ga2 Ga9 3.039724 1_555
Ga3 Rh0 2.429924 1_555
Ga3 Ir0 2.457678 1_655
Ga3 Ga5 2.947495 1_555
Ga3 Ga8 2.947495 1_554
Ga3 Ga9 2.960146 1_654
Ga3 Ga4 2.960146 1_655
Ga3 Ga7 3.044790 1_554
Ga3 Ga6 3.062627 1_654
Ga4 Tc0 2.453115 1_555
Ga4 Ir0 2.588561 1_555
Ga4 Rh0 2.592500 1_555
Ga4 Ga5 2.801474 1_555
Ga5 Tc1 2.453115 1_555
Ga5 Ir0 2.588561 1_555
Ga5 Rh0 2.592500 1_555
Ga6 Ir0 2.498965 1_556
Ga6 Tc0 2.586354 1_545
Ga6 Tc1 2.586354 1_455
Ga6 Ga7 2.886600 1_445
Ga7 Rh0 2.491869 1_556
Ga7 Tc1 2.592543 1_565
Ga7 Tc0 2.592543 1_655
Ga8 Tc1 2.453115 1_555
Ga8 Ir0 2.588561 1_556
Ga8 Rh0 2.592500 1_556
Ga8 Ga9 2.801474 1_555
Ga9 Tc0 2.453115 1_555
Ga9 Ir0 2.588561 1_556
Ga9 Rh0 2.592500 1_556
Ga10 Rh0 2.491869 1_555
Ga10 Tc1 2.592543 1_565
Ga10 Tc0 2.592543 1_655
Ga10 Ga11 2.886600 1_665
Ga10 Ga2 2.900580 1_555
Ga10 Ga3 3.044790 1_555
Ga10 Ga7 3.113451 1_555
Ga11 Ir0 2.498965 1_555
Ga11 Tc0 2.586354 1_545
Ga11 Tc1 2.586354 1_455
Ga11 Ga2 2.907365 1_545
Ga11 Ga3 3.062627 1_455
Ga11 Ga6 3.111313 1_555
