# generated using pymatgen
data_Lu4IrPd3O14
_symmetry_space_group_name_H-M   'P 1'
_cell_length_a   7.06498089
_cell_length_b   7.06498255
_cell_length_c   7.08242244
_cell_angle_alpha   60.08143949
_cell_angle_beta   60.08142964
_cell_angle_gamma   60.00000474
_symmetry_Int_Tables_number   1
_chemical_formula_structural   Lu4IrPd3O14
_chemical_formula_sum   'Lu4 Ir1 Pd3 O14'
_cell_volume   250.27784097
_cell_formula_units_Z   1
loop_
 _symmetry_equiv_pos_site_id
 _symmetry_equiv_pos_as_xyz
  1  'x, y, z'
loop_
 _atom_site_type_symbol
 _atom_site_label
 _atom_site_symmetry_multiplicity
 _atom_site_fract_x
 _atom_site_fract_y
 _atom_site_fract_z
 _atom_site_occupancy
  Lu  Lu0  1  0.62500000  0.12500000  0.12500000  1
  Lu  Lu1  1  0.12500000  0.62500000  0.12500000  1
  Lu  Lu2  1  0.12500000  0.12500000  0.62500000  1
  Lu  Lu3  1  0.12500000  0.12500000  0.12500000  1
  Ir  Ir0  1  0.62500000  0.62500000  0.12500000  1
  Pd  Pd0  1  0.12500000  0.62500000  0.62500000  1
  Pd  Pd1  1  0.62500000  0.12500000  0.62500000  1
  Pd  Pd2  1  0.62500000  0.62500000  0.62500000  1
  O  O0  1  0.71678795  0.71678795  0.28205053  1
  O  O1  1  0.28172484  0.28172484  0.71941105  1
  O  O2  1  0.71713926  0.28172484  0.71941105  1
  O  O3  1  0.28437356  0.71678795  0.28205053  1
  O  O4  1  0.28172484  0.71713926  0.71941105  1
  O  O5  1  0.71678795  0.28437356  0.28205053  1
  O  O6  1  0.53321205  0.53321205  0.96794947  1
  O  O7  1  0.96827516  0.96827516  0.53058895  1
  O  O8  1  0.53286074  0.96827516  0.53058895  1
  O  O9  1  0.96562644  0.53321205  0.96794947  1
  O  O10  1  0.96827516  0.53286074  0.53058895  1
  O  O11  1  0.53321205  0.96562644  0.96794947  1
  O  O12  1  0.25012881  0.25012881  0.24961357  1
  O  O13  1  0.99987119  0.99987119  0.00038643  1
loop_
_geom_bond_atom_site_label_1
_geom_bond_atom_site_label_2
_geom_bond_distance
_geom_bond_site_symmetry_2
Lu0 O13 2.163344 1_545
Lu0 O12 2.163344 1_555
Lu0 O8 2.363043 1_545
Lu0 O2 2.363043 1_554
Lu0 O5 2.371618 1_555
Lu0 O11 2.371618 1_544
Lu0 O6 2.371619 1_554
Lu0 O0 2.371619 1_545
Lu1 O13 2.163344 1_455
Lu1 O12 2.163344 1_555
Lu1 O10 2.363043 1_455
Lu1 O4 2.363043 1_554
Lu1 O6 2.371618 1_554
Lu1 O0 2.371618 1_455
Lu1 O3 2.371618 1_555
Lu1 O9 2.371618 1_454
Lu2 O13 2.173443 1_446
Lu2 O12 2.173443 1_555
Lu2 O8 2.366913 1_545
Lu2 O2 2.366913 1_455
Lu2 O1 2.366913 1_555
Lu2 O7 2.366913 1_445
Lu2 O10 2.366913 1_455
Lu2 O4 2.366913 1_545
Lu3 O12 2.163344 1_555
Lu3 O13 2.163344 1_445
Lu3 O7 2.363043 1_445
Lu3 O1 2.363043 1_554
Lu3 O11 2.371618 1_544
Lu3 O5 2.371618 1_455
Lu3 O9 2.371619 1_454
Lu3 O3 2.371619 1_545
Ir0 O9 1.984399 1_554
Ir0 O3 1.984399 1_555
Ir0 O0 1.984399 1_555
Ir0 O6 1.984399 1_554
Ir0 O11 1.984400 1_554
Ir0 O5 1.984400 1_555
O0 Pd2 2.004683 1_555
O1 Pd1 1.997602 1_555
O1 Pd0 1.997603 1_555
O2 Pd1 1.997602 1_555
O2 Pd2 1.997603 1_555
O3 Pd0 2.004683 1_555
O4 Pd2 1.997602 1_555
O4 Pd0 1.997602 1_555
O5 Pd1 2.004683 1_555
O6 Pd2 2.004683 1_555
O7 Pd1 1.997602 1_565
O7 Pd0 1.997603 1_655
O8 Pd1 1.997602 1_565
O8 Pd2 1.997603 1_555
O9 Pd0 2.004683 1_655
O10 Pd2 1.997602 1_555
O10 Pd0 1.997602 1_655
O11 Pd1 2.004683 1_565
