# generated using pymatgen
data_Ca4Al18GaIr5
_symmetry_space_group_name_H-M   'P 1'
_cell_length_a   7.55235655
_cell_length_b   7.55235640
_cell_length_c   9.55671097
_cell_angle_alpha   90.07808621
_cell_angle_beta   90.07809107
_cell_angle_gamma   119.36238019
_symmetry_Int_Tables_number   1
_chemical_formula_structural   Ca4Al18GaIr5
_chemical_formula_sum   'Ca4 Al18 Ga1 Ir5'
_cell_volume   475.06948356
_cell_formula_units_Z   1
loop_
 _symmetry_equiv_pos_site_id
 _symmetry_equiv_pos_as_xyz
  1  'x, y, z'
loop_
 _atom_site_type_symbol
 _atom_site_label
 _atom_site_symmetry_multiplicity
 _atom_site_fract_x
 _atom_site_fract_y
 _atom_site_fract_z
 _atom_site_occupancy
  Ca  Ca0  1  0.99828332  0.67805510  0.25039161  1
  Ca  Ca1  1  0.00171668  0.32194490  0.74960839  1
  Ca  Ca2  1  0.67805510  0.99828332  0.25039161  1
  Ca  Ca3  1  0.32194490  0.00171668  0.74960839  1
  Al  Al0  1  0.14189225  0.14189225  0.26043962  1
  Al  Al1  1  0.85810775  0.85810775  0.73956038  1
  Al  Al2  1  0.00398157  0.34798563  0.07667787  1
  Al  Al3  1  0.99601843  0.65201437  0.92332213  1
  Al  Al4  1  0.99962824  0.66311574  0.56839801  1
  Al  Al5  1  0.33688426  0.00037176  0.43160199  1
  Al  Al6  1  0.00037176  0.33688426  0.43160199  1
  Al  Al7  1  0.66311574  0.99962824  0.56839801  1
  Al  Al8  1  0.65201437  0.99601843  0.92332213  1
  Al  Al9  1  0.34798563  0.00398157  0.07667787  1
  Al  Al10  1  0.33422433  0.33422433  0.54651309  1
  Al  Al11  1  0.66577567  0.66577567  0.45348691  1
  Al  Al12  1  0.65421957  0.65421957  0.05643265  1
  Al  Al13  1  0.34578043  0.34578043  0.94356735  1
  Al  Al14  1  0.33893666  0.55108141  0.25137242  1
  Al  Al15  1  0.66106334  0.44891859  0.74862758  1
  Al  Al16  1  0.55108141  0.33893666  0.25137242  1
  Al  Al17  1  0.44891859  0.66106334  0.74862758  1
  Ga  Ga0  1  0.00000000  0.00000000  0.00000000  1
  Ir  Ir0  1  0.67103320  0.32896680  0.00000000  1
  Ir  Ir1  1  0.32896680  0.67103320  1.00000000  1
  Ir  Ir2  1  0.32944556  0.67055444  0.50000000  1
  Ir  Ir3  1  0.67055444  0.32944556  0.50000000  1
  Ir  Ir4  1  0.00000000  0.00000000  0.50000000  1
loop_
_geom_bond_atom_site_label_1
_geom_bond_atom_site_label_2
_geom_bond_distance
_geom_bond_site_symmetry_2
Al0 Ir4 2.534827 1_555
Al0 Ga0 2.711252 1_555
Al0 Al5 2.743808 1_555
Al0 Al6 2.743808 1_555
Al0 Ca0 3.119278 1_445
Al0 Ca2 3.119278 1_445
Al1 Ir4 2.534827 1_665
Al1 Ga0 2.711252 1_666
Al1 Al7 2.743808 1_555
Al1 Al4 2.743808 1_555
Al1 Ca1 3.119278 1_665
Al1 Ca3 3.119278 1_665
Al2 Ir0 2.553632 1_455
Al2 Ir1 2.578942 1_554
Al2 Ga0 2.713309 1_555
Al2 Ca0 3.010992 1_455
Al2 Ca2 3.072153 1_445
Al2 Ca1 3.131119 1_554
Al3 Ir1 2.553632 1_655
Al3 Ir0 2.578942 1_556
Al3 Ga0 2.713309 1_666
Al3 Ca1 3.010992 1_655
Al3 Ca3 3.072153 1_665
Al3 Ca0 3.131119 1_556
Al4 Ir2 2.549962 1_655
Al4 Ir3 2.608364 1_555
Al4 Ir4 2.626428 1_665
Al4 Al6 2.790039 1_655
Al4 Al5 2.887957 1_665
Al4 Ca0 3.041530 1_555
Al4 Ca3 3.055475 1_665
Al4 Ca1 3.112929 1_655
Al5 Ir2 2.549962 1_545
Al5 Ir3 2.608364 1_555
Al5 Ir4 2.626428 1_555
Al5 Al7 2.790039 1_545
Al5 Ca3 3.041530 1_555
Al5 Ca0 3.055475 1_445
Al5 Ca2 3.112930 1_545
Al6 Ir3 2.549962 1_455
Al6 Ir2 2.608364 1_555
Al6 Ir4 2.626428 1_555
Al6 Al7 2.887957 1_445
Al6 Ca1 3.041530 1_555
Al6 Ca2 3.055475 1_445
Al6 Ca0 3.112929 1_455
Al7 Ir3 2.549962 1_565
Al7 Ir2 2.608364 1_555
Al7 Ir4 2.626428 1_665
Al7 Ca2 3.041530 1_555
Al7 Ca1 3.055475 1_665
Al7 Ca3 3.112930 1_565
Al8 Ir0 2.553632 1_566
Al8 Ir1 2.578942 1_555
Al8 Ga0 2.713309 1_666
Al8 Ca3 3.010992 1_565
Al8 Ca1 3.072153 1_665
Al8 Ca2 3.131119 1_556
Al9 Ir1 2.553632 1_544
Al9 Ir0 2.578942 1_555
Al9 Ga0 2.713309 1_555
Al9 Ca2 3.010992 1_545
Al9 Ca0 3.072153 1_445
Al9 Ca3 3.131119 1_554
Al10 Ir4 2.585763 1_555
Al10 Ir2 2.596894 1_555
Al10 Ir3 2.596894 1_555
Al10 Al6 2.757879 1_555
Al10 Al5 2.757879 1_555
Al10 Ca3 3.141239 1_555
Al10 Ca1 3.141239 1_555
Al11 Ir4 2.585763 1_665
Al11 Ir3 2.596894 1_555
Al11 Ir2 2.596894 1_555
Al11 Al4 2.757879 1_555
Al11 Al7 2.757879 1_555
Al11 Ca2 3.141239 1_555
Al11 Ca0 3.141239 1_555
Al12 Ir1 2.577493 1_554
Al12 Ir0 2.577493 1_555
Al12 Al13 2.584754 1_554
Al12 Ga0 2.692603 1_665
Al12 Al16 2.818579 1_555
Al12 Al14 2.818579 1_555
Al12 Al8 2.886715 1_554
Al12 Al3 2.886715 1_554
Al12 Ca0 3.122127 1_555
Al12 Ca2 3.122127 1_555
Al13 Ir0 2.577493 1_556
Al13 Ir1 2.577493 1_555
Al13 Ga0 2.692603 1_556
Al13 Al17 2.818579 1_555
Al13 Al15 2.818579 1_555
Al13 Al9 2.886715 1_556
Al13 Al2 2.886715 1_556
Al13 Ca1 3.122127 1_555
Al13 Ca3 3.122127 1_555
Al14 Ir2 2.554018 1_555
Al14 Ir1 2.582577 1_554
Al14 Al6 2.843389 1_555
Al14 Ca2 3.079595 1_555
Al14 Ca0 3.155633 1_455
Al15 Ir3 2.554018 1_555
Al15 Ir0 2.582577 1_556
Al15 Al4 2.843389 1_555
Al15 Ca3 3.079595 1_555
Al15 Ca1 3.155633 1_655
Al16 Ir3 2.554018 1_555
Al16 Ir0 2.582577 1_555
Al16 Al5 2.843389 1_555
Al16 Ca0 3.079595 1_555
Al16 Ca2 3.155633 1_545
Al17 Ir2 2.554018 1_555
Al17 Ir1 2.582577 1_555
Al17 Al7 2.843389 1_555
Al17 Ca1 3.079595 1_555
Al17 Ca3 3.155633 1_565
