# generated using pymatgen
data_KVNiS4
_symmetry_space_group_name_H-M   'P 1'
_cell_length_a   7.88781275
_cell_length_b   7.88781275
_cell_length_c   11.33206117
_cell_angle_alpha   90.00000000
_cell_angle_beta   90.00000000
_cell_angle_gamma   90.00000000
_symmetry_Int_Tables_number   1
_chemical_formula_structural   KVNiS4
_chemical_formula_sum   'K4 V4 Ni4 S16'
_cell_volume   705.05353664
_cell_formula_units_Z   4
loop_
 _symmetry_equiv_pos_site_id
 _symmetry_equiv_pos_as_xyz
  1  'x, y, z'
loop_
 _atom_site_type_symbol
 _atom_site_label
 _atom_site_symmetry_multiplicity
 _atom_site_fract_x
 _atom_site_fract_y
 _atom_site_fract_z
 _atom_site_occupancy
  K  K0  1  0.00000000  0.50000000  0.25000000  1
  K  K1  1  0.50000000  0.00000000  0.75000000  1
  K  K2  1  0.50000000  0.00000000  0.25000000  1
  K  K3  1  0.00000000  0.50000000  0.75000000  1
  V  V0  1  0.25036392  0.74963608  0.50000000  1
  V  V1  1  0.74963608  0.25036392  0.50000000  1
  V  V2  1  0.24963608  0.24963608  0.00000000  1
  V  V3  1  0.75036392  0.75036392  0.00000000  1
  Ni  Ni0  1  0.50000000  0.50000000  0.50000000  1
  Ni  Ni1  1  0.00000000  0.00000000  0.00000000  1
  Ni  Ni2  1  0.00000000  0.00000000  0.50000000  1
  Ni  Ni3  1  0.50000000  0.50000000  0.00000000  1
  S  S0  1  0.27827615  0.97966442  0.00000000  1
  S  S1  1  0.02033558  0.72172385  0.00000000  1
  S  S2  1  0.47966442  0.22172385  0.50000000  1
  S  S3  1  0.97966442  0.27827615  0.00000000  1
  S  S4  1  0.52033558  0.77827615  0.50000000  1
  S  S5  1  0.87006778  0.12993222  0.64763785  1
  S  S6  1  0.72172385  0.02033558  0.00000000  1
  S  S7  1  0.37006778  0.37006778  0.14763785  1
  S  S8  1  0.22172385  0.47966442  0.50000000  1
  S  S9  1  0.87006778  0.12993222  0.35236215  1
  S  S10  1  0.77827615  0.52033558  0.50000000  1
  S  S11  1  0.37006778  0.37006778  0.85236215  1
  S  S12  1  0.62993222  0.62993222  0.85236215  1
  S  S13  1  0.62993222  0.62993222  0.14763785  1
  S  S14  1  0.12993222  0.87006778  0.35236215  1
  S  S15  1  0.12993222  0.87006778  0.64763785  1
loop_
_geom_bond_atom_site_label_1
_geom_bond_atom_site_label_2
_geom_bond_distance
_geom_bond_site_symmetry_2
K0 S14 3.304032 1_555
K0 S7 3.304032 1_555
K0 S13 3.304032 1_455
K0 S9 3.304032 1_455
K0 S1 3.333229 1_555
K0 S8 3.333229 1_555
K0 S10 3.333229 1_455
K0 S3 3.333229 1_455
K1 S5 3.304032 1_555
K1 S11 3.304032 1_555
K1 S12 3.304032 1_545
K1 S15 3.304032 1_545
K1 S2 3.333229 1_555
K1 S6 3.333229 1_556
K1 S4 3.333229 1_545
K1 S0 3.333229 1_546
K2 S9 3.304032 1_555
K2 S7 3.304032 1_555
K2 S13 3.304032 1_545
K2 S14 3.304032 1_545
K2 S2 3.333229 1_555
K2 S6 3.333229 1_555
K2 S4 3.333229 1_545
K2 S0 3.333229 1_545
K3 S15 3.304032 1_555
K3 S11 3.304032 1_555
K3 S12 3.304032 1_455
K3 S5 3.304032 1_455
K3 S1 3.333229 1_556
K3 S8 3.333229 1_555
K3 S10 3.333229 1_455
K3 S3 3.333229 1_456
Ni0 S10 2.200843 1_555
Ni0 S4 2.200843 1_555
Ni0 S2 2.200843 1_555
Ni0 S8 2.200843 1_555
Ni1 S3 2.200843 1_455
Ni1 S0 2.200843 1_545
Ni1 S6 2.200843 1_455
Ni1 S1 2.200843 1_545
Ni2 S14 2.213556 1_545
Ni2 S9 2.213556 1_455
Ni2 S15 2.213556 1_545
Ni2 S5 2.213556 1_455
Ni3 S12 2.213556 1_554
Ni3 S13 2.213556 1_555
Ni3 S11 2.213556 1_554
Ni3 S7 2.213556 1_555
S0 V2 2.141435 1_565
S1 V3 2.141435 1_455
S2 V1 2.141435 1_555
S3 V2 2.141435 1_655
S4 V0 2.141435 1_555
S5 V1 2.145658 1_555
S6 V3 2.141435 1_545
S7 V2 2.145658 1_555
S8 V0 2.141435 1_555
S9 V1 2.145658 1_555
S10 V1 2.141435 1_555
S11 V2 2.145658 1_556
S12 V3 2.145658 1_556
S13 V3 2.145658 1_555
S14 V0 2.145658 1_555
S15 V0 2.145658 1_555
