# generated using pymatgen
data_Zr10Al2Sn5Sb
_symmetry_space_group_name_H-M   'P 1'
_cell_length_a   8.71574196
_cell_length_b   8.73144614
_cell_length_c   5.86984148
_cell_angle_alpha   90.00000000
_cell_angle_beta   90.00000000
_cell_angle_gamma   120.05962253
_symmetry_Int_Tables_number   1
_chemical_formula_structural   Zr10Al2Sn5Sb
_chemical_formula_sum   'Zr10 Al2 Sn5 Sb1'
_cell_volume   386.62177615
_cell_formula_units_Z   1
loop_
 _symmetry_equiv_pos_site_id
 _symmetry_equiv_pos_as_xyz
  1  'x, y, z'
loop_
 _atom_site_type_symbol
 _atom_site_label
 _atom_site_symmetry_multiplicity
 _atom_site_fract_x
 _atom_site_fract_y
 _atom_site_fract_z
 _atom_site_occupancy
  Zr  Zr0  1  0.72959194  0.72932644  0.75000000  1
  Zr  Zr1  1  0.27040806  0.99973450  0.75000000  1
  Zr  Zr2  1  1.00000000  0.27086208  0.75000000  1
  Zr  Zr3  1  0.26792644  0.26919100  0.25000000  1
  Zr  Zr4  1  0.73207356  0.00126456  0.25000000  1
  Zr  Zr5  1  0.00000000  0.72979838  0.25000000  1
  Zr  Zr6  1  0.66744613  0.33341451  0.99944392  1
  Zr  Zr7  1  0.33255387  0.66596939  0.99944392  1
  Zr  Zr8  1  0.33255387  0.66596939  0.50055608  1
  Zr  Zr9  1  0.66744613  0.33341451  0.50055608  1
  Al  Al0  1  1.00000000  0.99906592  0.99814394  1
  Al  Al1  1  1.00000000  0.99906592  0.50185606  1
  Sn  Sn0  1  0.38589765  0.38521336  0.75000000  1
  Sn  Sn1  1  0.61410235  0.99931571  0.75000000  1
  Sn  Sn2  1  0.00000000  0.61588319  0.75000000  1
  Sn  Sn3  1  0.61410158  0.61430332  0.25000000  1
  Sn  Sn4  1  0.38589842  0.00020074  0.25000000  1
  Sb  Sb0  1  0.00000000  0.38800607  0.25000000  1
loop_
_geom_bond_atom_site_label_1
_geom_bond_atom_site_label_2
_geom_bond_distance
_geom_bond_site_symmetry_2
Al0 Zr0 2.768099 1_555
Al0 Zr1 2.768099 1_655
Al0 Zr3 2.771979 1_666
Al0 Zr4 2.771979 1_566
Al0 Zr5 2.777262 1_656
Al0 Zr2 2.784517 1_565
Al1 Zr0 2.768099 1_555
Al1 Zr1 2.768099 1_655
Al1 Zr3 2.771979 1_665
Al1 Zr4 2.771979 1_565
Al1 Zr5 2.777262 1_655
Al1 Zr2 2.784517 1_565
Sn0 Zr2 2.990825 1_455
Sn0 Zr1 2.991270 1_545
Sn0 Zr0 2.997384 1_555
Sn0 Zr6 3.079273 1_555
Sn0 Zr9 3.079273 1_555
Sn0 Zr7 3.084025 1_555
Sn0 Zr8 3.084025 1_555
Sn0 Zr3 3.107045 1_555
Sn0 Zr3 3.107045 1_556
Sn1 Zr2 2.990825 1_565
Sn1 Zr0 2.991270 1_555
Sn1 Zr1 2.997384 1_555
Sn1 Zr7 3.079268 1_555
Sn1 Zr8 3.079268 1_555
Sn1 Zr6 3.084017 1_565
Sn1 Zr9 3.084017 1_565
Sn1 Zr4 3.107045 1_566
Sn1 Zr4 3.107045 1_565
Sn2 Zr1 2.978986 1_555
Sn2 Zr0 2.978986 1_455
Sn2 Zr2 3.012533 1_455
Sn2 Zr7 3.076737 1_555
Sn2 Zr8 3.076737 1_555
Sn2 Zr6 3.076739 1_455
Sn2 Zr9 3.076739 1_455
Sn2 Zr5 3.098883 1_556
Sn2 Zr5 3.098883 1_555
Sn3 Zr5 2.988555 1_655
Sn3 Zr4 2.998788 1_565
Sn3 Zr3 3.012536 1_555
Sn3 Zr8 3.081744 1_555
Sn3 Zr7 3.081744 1_554
Sn3 Zr9 3.088142 1_555
Sn3 Zr6 3.088142 1_554
Sn3 Zr0 3.102076 1_555
Sn3 Zr0 3.102076 1_554
Sn4 Zr5 2.988553 1_545
Sn4 Zr3 2.998797 1_555
Sn4 Zr4 3.012531 1_555
Sn4 Zr9 3.081744 1_555
Sn4 Zr6 3.081744 1_554
Sn4 Zr8 3.088126 1_545
Sn4 Zr7 3.088126 1_544
Sn4 Zr1 3.102077 1_545
Sn4 Zr1 3.102077 1_544
Sb0 Zr5 2.984341 1_555
Sb0 Zr4 2.992700 1_455
Sb0 Zr3 2.992700 1_555
Sb0 Zr9 3.067115 1_455
Sb0 Zr6 3.067115 1_454
Sb0 Zr8 3.067118 1_555
Sb0 Zr7 3.067118 1_554
Sb0 Zr2 3.108047 1_455
Sb0 Zr2 3.108047 1_454
