# generated using pymatgen
data_Ca2CdIn3Au2
_symmetry_space_group_name_H-M   'P 1'
_cell_length_a   5.79280050
_cell_length_b   5.79280112
_cell_length_c   7.80345897
_cell_angle_alpha   89.79724504
_cell_angle_beta   90.20275481
_cell_angle_gamma   133.79727712
_symmetry_Int_Tables_number   1
_chemical_formula_structural   Ca2CdIn3Au2
_chemical_formula_sum   'Ca2 Cd1 In3 Au2'
_cell_volume   189.00524898
_cell_formula_units_Z   1
loop_
 _symmetry_equiv_pos_site_id
 _symmetry_equiv_pos_as_xyz
  1  'x, y, z'
loop_
 _atom_site_type_symbol
 _atom_site_label
 _atom_site_symmetry_multiplicity
 _atom_site_fract_x
 _atom_site_fract_y
 _atom_site_fract_z
 _atom_site_occupancy
  Ca  Ca0  1  0.92783021  0.07216979  0.75405404  1
  Ca  Ca1  1  0.07272263  0.92727737  0.24667899  1
  Cd  Cd0  1  0.63402823  0.36597177  0.94692587  1
  In  In0  1  0.63771961  0.36228039  0.55372366  1
  In  In1  1  0.36179441  0.63820559  0.05221130  1
  In  In2  1  0.36455185  0.63544815  0.44724580  1
  Au  Au0  1  0.21681119  0.78318881  0.74722369  1
  Au  Au1  1  0.78454187  0.21545813  0.25193666  1
loop_
_geom_bond_atom_site_label_1
_geom_bond_atom_site_label_2
_geom_bond_distance
_geom_bond_site_symmetry_2
Ca0 In1 3.329719 1_546
Ca0 In1 3.329720 1_656
Ca0 In2 3.367523 1_545
Ca0 In2 3.367523 1_655
Ca0 In0 3.458978 1_555
Ca0 Cd0 3.479105 1_555
Ca0 Cd0 3.497724 1_655
Ca0 Cd0 3.497724 1_545
Ca0 In0 3.555198 1_655
Ca0 In0 3.555199 1_545
Ca1 Cd0 3.328046 1_564
Ca1 Cd0 3.328046 1_454
Ca1 In0 3.372497 1_565
Ca1 In0 3.372497 1_455
Ca1 In1 3.439246 1_555
Ca1 In2 3.476149 1_555
Ca1 In1 3.534825 1_455
Ca1 In1 3.534825 1_565
Ca1 In2 3.544492 1_455
Ca1 In2 3.544493 1_565
Au0 In2 2.826088 1_555
Au0 In1 2.832492 1_556
Au0 In0 2.854205 1_455
Au0 In0 2.854205 1_565
Au0 Cd0 2.895378 1_455
Au0 Cd0 2.895378 1_565
Au0 Ca0 3.080214 1_465
Au0 Ca0 3.197598 1_565
Au0 Ca0 3.197598 1_455
Au1 In0 2.832373 1_555
Au1 In2 2.864560 1_655
Au1 In2 2.864560 1_545
Au1 Cd0 2.865026 1_554
Au1 In1 2.877944 1_655
Au1 In1 2.877944 1_545
Au1 Ca1 3.071452 1_645
Au1 Ca1 3.203453 1_545
Au1 Ca1 3.203453 1_655
