# generated using pymatgen
data_TaBe8Mo2Ir
_symmetry_space_group_name_H-M   'P 1'
_cell_length_a   4.43398806
_cell_length_b   4.43398864
_cell_length_c   7.31763810
_cell_angle_alpha   90.00000000
_cell_angle_beta   90.00000000
_cell_angle_gamma   120.00000306
_symmetry_Int_Tables_number   1
_chemical_formula_structural   TaBe8Mo2Ir
_chemical_formula_sum   'Ta1 Be8 Mo2 Ir1'
_cell_volume   124.59213865
_cell_formula_units_Z   1
loop_
 _symmetry_equiv_pos_site_id
 _symmetry_equiv_pos_as_xyz
  1  'x, y, z'
loop_
 _atom_site_type_symbol
 _atom_site_label
 _atom_site_symmetry_multiplicity
 _atom_site_fract_x
 _atom_site_fract_y
 _atom_site_fract_z
 _atom_site_occupancy
  Ta  Ta0  1  0.66666700  0.33333300  0.05989475  1
  Be  Be0  1  0.00000000  0.00000000  0.50802896  1
  Be  Be1  1  0.00000000  0.00000000  0.99870531  1
  Be  Be2  1  0.66328577  0.83164238  0.25281512  1
  Be  Be3  1  0.16835762  0.83164238  0.25281512  1
  Be  Be4  1  0.16835762  0.33671423  0.25281512  1
  Be  Be5  1  0.33879703  0.16939901  0.74724146  1
  Be  Be6  1  0.83060099  0.16939901  0.74724146  1
  Be  Be7  1  0.83060099  0.66120297  0.74724146  1
  Mo  Mo0  1  0.66666700  0.33333300  0.43821151  1
  Mo  Mo1  1  0.33333300  0.66666700  0.55889684  1
  Ir  Ir0  1  0.33333300  0.66666700  0.93609488  1
loop_
_geom_bond_atom_site_label_1
_geom_bond_atom_site_label_2
_geom_bond_distance
_geom_bond_site_symmetry_2
Be0 Be5 2.180975 1_555
Be0 Be7 2.180975 1_445
Be0 Be6 2.180977 1_455
Be0 Be2 2.271464 1_445
Be0 Be4 2.271464 1_555
Be0 Be3 2.271466 1_545
Be0 Mo1 2.586883 1_545
Be0 Mo1 2.586886 1_445
Be0 Mo1 2.586887 1_555
Be0 Mo0 2.610445 1_455
Be0 Mo0 2.610448 1_555
Be0 Mo0 2.610449 1_445
Be1 Be5 2.253564 1_555
Be1 Be7 2.253564 1_445
Be1 Be6 2.253566 1_455
Be1 Be2 2.264826 1_446
Be1 Be4 2.264826 1_556
Be1 Be3 2.264828 1_546
Be1 Ta0 2.598826 1_456
Be1 Ta0 2.598829 1_556
Be1 Ta0 2.598830 1_446
Be1 Ir0 2.600638 1_545
Be1 Ir0 2.600641 1_445
Be1 Ir0 2.600641 1_555
Be2 Be3 2.194506 1_555
Be2 Be4 2.194506 1_555
Be2 Be3 2.239483 1_655
Be2 Be4 2.239483 1_665
Be2 Mo1 2.573320 1_555
Be2 Mo0 2.599186 1_555
Be2 Mo0 2.599186 1_565
Be2 Ta0 2.628344 1_555
Be2 Ta0 2.628344 1_565
Be2 Ir0 2.641357 1_554
Be3 Be4 2.194506 1_555
Be3 Be4 2.239483 1_565
Be3 Mo1 2.573316 1_555
Be3 Mo0 2.599186 1_455
Be3 Mo0 2.599186 1_565
Be3 Ta0 2.628343 1_455
Be3 Ta0 2.628343 1_565
Be3 Ir0 2.641353 1_554
Be4 Mo1 2.573320 1_555
Be4 Mo0 2.599186 1_455
Be4 Mo0 2.599186 1_555
Be4 Ta0 2.628343 1_455
Be4 Ta0 2.628343 1_555
Be4 Ir0 2.641357 1_554
Be5 Be6 2.180653 1_555
Be5 Be7 2.180653 1_555
Be5 Be6 2.253335 1_455
Be5 Be7 2.253335 1_445
Be5 Mo0 2.588220 1_555
Be5 Mo1 2.610564 1_555
Be5 Mo1 2.610564 1_545
Be5 Ta0 2.611417 1_556
Be5 Ir0 2.612531 1_555
Be5 Ir0 2.612531 1_545
Be6 Be7 2.180653 1_555
Be6 Be7 2.253335 1_545
Be6 Mo0 2.588216 1_555
Be6 Mo1 2.610564 1_655
Be6 Mo1 2.610564 1_545
Be6 Ta0 2.611414 1_556
Be6 Ir0 2.612531 1_655
Be6 Ir0 2.612531 1_545
Be7 Mo0 2.588220 1_555
Be7 Mo1 2.610564 1_655
Be7 Mo1 2.610564 1_555
Be7 Ta0 2.611417 1_556
Be7 Ir0 2.612531 1_655
Be7 Ir0 2.612531 1_555
Mo0 Mo1 2.708011 1_655
Mo0 Mo1 2.708012 1_545
Mo0 Mo1 2.708019 1_555
Mo0 Ta0 2.768385 1_555
Ir0 Ta0 2.715529 1_456
Ir0 Ta0 2.715530 1_566
Ir0 Ta0 2.715537 1_556
Ir0 Mo1 2.760199 1_555
