# generated using pymatgen
data_Na8ZrSb4
_symmetry_space_group_name_H-M   'P 1'
_cell_length_a   10.43971093
_cell_length_b   10.43970609
_cell_length_c   10.43971431
_cell_angle_alpha   59.98161666
_cell_angle_beta   59.98156334
_cell_angle_gamma   59.98159128
_symmetry_Int_Tables_number   1
_chemical_formula_structural   Na8ZrSb4
_chemical_formula_sum   'Na16 Zr2 Sb8'
_cell_volume   804.20919078
_cell_formula_units_Z   2
loop_
 _symmetry_equiv_pos_site_id
 _symmetry_equiv_pos_as_xyz
  1  'x, y, z'
loop_
 _atom_site_type_symbol
 _atom_site_label
 _atom_site_symmetry_multiplicity
 _atom_site_fract_x
 _atom_site_fract_y
 _atom_site_fract_z
 _atom_site_occupancy
  Na  Na0  1  0.62500000  0.12500000  0.62500000  1
  Na  Na1  1  0.62500000  0.62500000  0.12500000  1
  Na  Na2  1  0.12500000  0.62500000  0.62500000  1
  Na  Na3  1  0.62500000  0.62500000  0.62500000  1
  Na  Na4  1  0.02570417  0.02570317  0.47429522  1
  Na  Na5  1  0.77570478  0.22429583  0.22429583  1
  Na  Na6  1  0.22427619  0.77569607  0.77569607  1
  Na  Na7  1  0.77569707  0.77569707  0.22427619  1
  Na  Na8  1  0.77569607  0.22427719  0.77569607  1
  Na  Na9  1  0.22429583  0.77570478  0.22429583  1
  Na  Na10  1  0.47430393  0.02572281  0.47430393  1
  Na  Na11  1  0.47429522  0.02570417  0.02570417  1
  Na  Na12  1  0.02572381  0.47430393  0.47430393  1
  Na  Na13  1  0.02570417  0.47429522  0.02570417  1
  Na  Na14  1  0.22429583  0.22429683  0.77570478  1
  Na  Na15  1  0.47430293  0.47430293  0.02572381  1
  Zr  Zr0  1  0.50004876  0.50004876  0.50004776  1
  Zr  Zr1  1  0.74995124  0.74995124  0.74995224  1
  Sb  Sb0  1  0.42048050  0.85979172  0.85979172  1
  Sb  Sb1  1  0.85974138  0.85974138  0.85974138  1
  Sb  Sb2  1  0.82951950  0.39020828  0.39020828  1
  Sb  Sb3  1  0.39025862  0.39025862  0.39025862  1
  Sb  Sb4  1  0.39020828  0.39020828  0.82951950  1
  Sb  Sb5  1  0.85979172  0.42048050  0.85979172  1
  Sb  Sb6  1  0.85979172  0.85979172  0.42048050  1
  Sb  Sb7  1  0.39020828  0.82951950  0.39020828  1
loop_
_geom_bond_atom_site_label_1
_geom_bond_atom_site_label_2
_geom_bond_distance
_geom_bond_site_symmetry_2
Na0 Zr0 3.196170 1_555
Na0 Zr1 3.196170 1_545
Na0 Na4 3.428868 1_655
Na0 Na14 3.428868 1_555
Na0 Na11 3.428871 1_556
Na0 Na5 3.428871 1_555
Na0 Na8 3.429799 1_555
Na0 Na10 3.429799 1_555
Na0 Sb1 3.479727 1_545
Na0 Sb3 3.479727 1_555
Na0 Sb4 3.481477 1_555
Na0 Sb6 3.481477 1_545
Na0 Sb2 3.481478 1_555
Na0 Sb0 3.481478 1_545
Na1 Zr0 3.196163 1_555
Na1 Zr1 3.196163 1_554
Na1 Na11 3.428869 1_565
Na1 Na5 3.428869 1_555
Na1 Na13 3.428869 1_655
Na1 Na9 3.428869 1_555
Na1 Na7 3.429808 1_555
Na1 Na15 3.429808 1_555
Na1 Sb1 3.479724 1_554
Na1 Sb3 3.479724 1_555
Na1 Sb7 3.481477 1_555
Na1 Sb5 3.481477 1_554
Na1 Sb2 3.481481 1_555
Na1 Sb0 3.481481 1_554
Na2 Zr0 3.196170 1_555
Na2 Zr1 3.196170 1_455
Na2 Na4 3.428861 1_565
Na2 Na9 3.428872 1_555
Na2 Na6 3.429791 1_555
Na2 Sb1 3.479723 1_455
Na2 Sb3 3.479723 1_555
Na2 Sb7 3.481477 1_555
Na2 Sb5 3.481477 1_455
Na2 Sb4 3.481480 1_555
Na2 Sb6 3.481480 1_455
Na3 Zr1 3.195702 1_555
Na3 Zr0 3.195702 1_555
Na3 Na8 3.428891 1_555
Na3 Na6 3.428898 1_555
Na3 Na7 3.428902 1_555
Na3 Sb0 3.480479 1_555
Na3 Sb2 3.480479 1_555
Na3 Sb6 3.480479 1_555
Na3 Sb4 3.480479 1_555
Na3 Sb5 3.480482 1_555
Na3 Sb7 3.480482 1_555
Na4 Sb7 3.178731 1_545
Na4 Sb2 3.178741 1_455
Na4 Sb1 3.353802 1_445
Na4 Sb6 3.356307 1_445
Na5 Sb6 3.178734 1_545
Na5 Sb5 3.178735 1_554
Na5 Sb3 3.353802 1_555
Na5 Sb2 3.356317 1_555
Na6 Sb0 3.179137 1_555
Na6 Sb1 3.179768 1_455
Na6 Sb4 3.353845 1_555
Na6 Sb7 3.353847 1_555
Na7 Sb6 3.179122 1_555
Na7 Sb1 3.179774 1_554
Na7 Sb7 3.353856 1_555
Na7 Sb2 3.353856 1_555
Na8 Sb5 3.179126 1_555
Na8 Sb1 3.179777 1_545
Na8 Sb4 3.353846 1_555
Na8 Sb2 3.353848 1_555
Na9 Sb6 3.178733 1_455
Na9 Sb0 3.178734 1_554
Na9 Sb3 3.353803 1_555
Na9 Sb7 3.356318 1_555
Na10 Sb7 3.179126 1_545
Na10 Sb3 3.179777 1_555
Na10 Sb6 3.353846 1_545
Na10 Sb0 3.353848 1_545
Na10 Na3 3.428891 1_545
Na11 Sb4 3.178734 1_554
Na11 Sb7 3.178735 1_545
Na11 Sb1 3.353802 1_544
Na11 Sb0 3.356317 1_544
Na12 Sb2 3.179137 1_455
Na12 Sb3 3.179768 1_555
Na12 Sb6 3.353845 1_455
Na12 Sb5 3.353847 1_455
Na12 Na3 3.428898 1_455
Na12 Na2 3.429791 1_555
Na13 Sb4 3.178733 1_554
Na13 Sb2 3.178734 1_455
Na13 Sb1 3.353803 1_454
Na13 Sb5 3.356318 1_454
Na13 Na2 3.428872 1_554
Na14 Sb5 3.178731 1_455
Na14 Sb0 3.178741 1_545
Na14 Sb3 3.353802 1_555
Na14 Sb4 3.356307 1_555
Na14 Na2 3.428861 1_555
Na15 Sb4 3.179122 1_554
Na15 Sb3 3.179774 1_555
Na15 Sb5 3.353856 1_554
Na15 Sb0 3.353856 1_554
Na15 Na3 3.428902 1_554
Sb0 Zr1 2.807753 1_555
Sb1 Zr1 2.807932 1_555
Sb2 Zr0 2.807753 1_555
Sb3 Zr0 2.807932 1_555
Sb4 Zr0 2.807763 1_555
Sb5 Zr1 2.807753 1_555
Sb6 Zr1 2.807763 1_555
Sb7 Zr0 2.807753 1_555
