# generated using pymatgen
data_Lu12Co4TcSn
_symmetry_space_group_name_H-M   'P 1'
_cell_length_a   8.05128372
_cell_length_b   8.05128289
_cell_length_c   8.05128338
_cell_angle_alpha   111.59401600
_cell_angle_beta   110.46234032
_cell_angle_gamma   106.40235687
_symmetry_Int_Tables_number   1
_chemical_formula_structural   Lu12Co4TcSn
_chemical_formula_sum   'Lu12 Co4 Tc1 Sn1'
_cell_volume   400.86623985
_cell_formula_units_Z   1
loop_
 _symmetry_equiv_pos_site_id
 _symmetry_equiv_pos_as_xyz
  1  'x, y, z'
loop_
 _atom_site_type_symbol
 _atom_site_label
 _atom_site_symmetry_multiplicity
 _atom_site_fract_x
 _atom_site_fract_y
 _atom_site_fract_z
 _atom_site_occupancy
  Lu  Lu0  1  0.41915354  0.22151269  0.19763984  1
  Lu  Lu1  1  0.58084646  0.77848731  0.80236016  1
  Lu  Lu2  1  0.02387285  0.22151269  0.80236016  1
  Lu  Lu3  1  0.97612715  0.77848731  0.19763984  1
  Lu  Lu4  1  0.18353714  0.28007621  0.46361435  1
  Lu  Lu5  1  0.81646286  0.71992379  0.53638565  1
  Lu  Lu6  1  0.18353714  0.71992379  0.90346194  1
  Lu  Lu7  1  0.81646286  0.28007621  0.09653806  1
  Lu  Lu8  1  0.31104784  0.61590588  0.30485804  1
  Lu  Lu9  1  0.68895216  0.38409412  0.69514196  1
  Lu  Lu10  1  0.31104784  0.00618880  0.69514196  1
  Lu  Lu11  1  0.68895216  0.99381120  0.30485804  1
  Co  Co0  1  0.37825538  1.00000000  0.37825538  1
  Co  Co1  1  0.62174462  0.00000000  0.62174462  1
  Co  Co2  1  0.11111669  0.61111669  0.50000000  1
  Co  Co3  1  0.88888331  0.38888331  0.50000000  1
  Tc  Tc0  1  0.00000000  0.00000000  0.00000000  1
  Sn  Sn0  1  0.50000000  0.50000000  0.00000000  1
loop_
_geom_bond_atom_site_label_1
_geom_bond_atom_site_label_2
_geom_bond_distance
_geom_bond_site_symmetry_2
Lu0 Tc0 2.803379 1_555
Lu0 Sn0 3.241798 1_555
Lu1 Tc0 2.803379 1_666
Lu1 Sn0 3.241798 1_556
Lu2 Tc0 2.803372 1_556
Lu2 Sn0 3.241799 1_556
Lu3 Tc0 2.803372 1_665
Lu3 Sn0 3.241799 1_555
Lu4 Tc0 3.044269 1_555
Lu4 Sn0 3.522444 1_556
Lu5 Tc0 3.044269 1_666
Lu5 Sn0 3.522444 1_555
Lu6 Tc0 3.044261 1_566
Lu6 Sn0 3.522449 1_556
Lu7 Tc0 3.044261 1_655
Lu7 Sn0 3.522449 1_555
Lu8 Sn0 3.307023 1_555
Lu9 Sn0 3.307023 1_556
Lu10 Sn0 3.307029 1_556
Lu11 Sn0 3.307029 1_555
Co0 Co1 2.235903 1_565
Co0 Lu3 2.704791 1_455
Co0 Lu0 2.704792 1_565
Co0 Lu11 2.773360 1_555
Co0 Lu8 2.773361 1_555
Co0 Lu9 2.773361 1_565
Co0 Lu10 2.773364 1_565
Co0 Lu6 3.102277 1_554
Co0 Lu4 3.102284 1_565
Co1 Lu2 2.704791 1_655
Co1 Lu1 2.704792 1_545
Co1 Lu10 2.773360 1_555
Co1 Lu9 2.773361 1_555
Co1 Lu8 2.773361 1_545
Co1 Lu11 2.773364 1_545
Co1 Lu7 3.102277 1_556
Co1 Lu5 3.102284 1_545
Co2 Co3 2.143564 1_455
Co2 Lu10 2.615130 1_565
Co2 Lu8 2.615137 1_555
Co2 Lu5 2.819930 1_455
Co2 Lu4 2.819934 1_555
Co2 Lu7 2.819937 1_455
Co2 Lu6 2.819940 1_555
Co2 Lu1 3.211720 1_555
Co2 Lu3 3.211726 1_455
Co3 Lu11 2.615130 1_545
Co3 Lu9 2.615137 1_555
Co3 Lu4 2.819930 1_655
Co3 Lu5 2.819934 1_555
Co3 Lu6 2.819937 1_655
Co3 Lu7 2.819940 1_555
Co3 Lu0 3.211720 1_555
Co3 Lu2 3.211726 1_655
