# generated using pymatgen
data_Ba4ZrMn3O12
_symmetry_space_group_name_H-M   'P 1'
_cell_length_a   9.97227521
_cell_length_b   9.97227507
_cell_length_c   9.97227519
_cell_angle_alpha   33.55380518
_cell_angle_beta   33.55380679
_cell_angle_gamma   33.55379985
_symmetry_Int_Tables_number   1
_chemical_formula_structural   Ba4ZrMn3O12
_chemical_formula_sum   'Ba4 Zr1 Mn3 O12'
_cell_volume   269.85672389
_cell_formula_units_Z   1
loop_
 _symmetry_equiv_pos_site_id
 _symmetry_equiv_pos_as_xyz
  1  'x, y, z'
loop_
 _atom_site_type_symbol
 _atom_site_label
 _atom_site_symmetry_multiplicity
 _atom_site_fract_x
 _atom_site_fract_y
 _atom_site_fract_z
 _atom_site_occupancy
  Ba  Ba0  1  0.71521929  0.71521929  0.71521929  1
  Ba  Ba1  1  0.28478071  0.28478071  0.28478071  1
  Ba  Ba2  1  0.87022402  0.87022402  0.87022402  1
  Ba  Ba3  1  0.12977598  0.12977598  0.12977598  1
  Zr  Zr0  1  0.00000000  0.00000000  0.00000000  1
  Mn  Mn0  1  0.41070550  0.41070550  0.41070550  1
  Mn  Mn1  1  0.50000000  0.50000000  0.50000000  1
  Mn  Mn2  1  0.58929450  0.58929450  0.58929450  1
  O  O0  1  0.21481097  0.21481097  0.69692403  1
  O  O1  1  0.69692403  0.21481097  0.21481097  1
  O  O2  1  0.21481097  0.69692403  0.21481097  1
  O  O3  1  0.78518903  0.30307597  0.78518903  1
  O  O4  1  0.78518903  0.78518903  0.30307597  1
  O  O5  1  0.30307597  0.78518903  0.78518903  1
  O  O6  1  0.39718658  0.39718658  0.83520774  1
  O  O7  1  0.83520774  0.39718658  0.39718658  1
  O  O8  1  0.16479226  0.60281342  0.60281342  1
  O  O9  1  0.60281342  0.60281342  0.16479226  1
  O  O10  1  0.60281342  0.16479226  0.60281342  1
  O  O11  1  0.39718658  0.83520774  0.39718658  1
loop_
_geom_bond_atom_site_label_1
_geom_bond_atom_site_label_2
_geom_bond_distance
_geom_bond_site_symmetry_2
Ba0 O10 2.820404 1_565
Ba0 O8 2.820404 1_655
Ba0 O9 2.820404 1_556
Ba0 O0 2.884671 1_565
Ba0 O0 2.884671 1_655
Ba0 O1 2.884672 1_565
Ba0 O1 2.884672 1_556
Ba0 O2 2.884672 1_655
Ba0 O2 2.884672 1_556
Ba0 O3 3.019549 1_555
Ba0 O5 3.019550 1_555
Ba0 O4 3.019550 1_555
Ba1 O11 2.820404 1_545
Ba1 O7 2.820404 1_455
Ba1 O6 2.820404 1_554
Ba1 O4 2.884671 1_545
Ba1 O4 2.884671 1_455
Ba1 O5 2.884672 1_545
Ba1 O5 2.884672 1_554
Ba1 O3 2.884672 1_455
Ba1 O3 2.884672 1_554
Ba1 O2 3.019549 1_555
Ba1 O1 3.019550 1_555
Ba1 O0 3.019550 1_555
Ba2 O6 2.891288 1_565
Ba2 O6 2.891289 1_655
Ba2 O7 2.891289 1_565
Ba2 O7 2.891289 1_556
Ba2 O11 2.891289 1_655
Ba2 O11 2.891289 1_556
Ba2 O10 2.931124 1_565
Ba2 O8 2.931125 1_655
Ba2 O9 2.931125 1_556
Ba2 O3 3.011197 1_565
Ba2 O5 3.011197 1_655
Ba2 O4 3.011197 1_556
Ba3 O9 2.891288 1_545
Ba3 O9 2.891289 1_455
Ba3 O8 2.891289 1_545
Ba3 O8 2.891289 1_554
Ba3 O10 2.891289 1_455
Ba3 O10 2.891289 1_554
Ba3 O11 2.931124 1_545
Ba3 O7 2.931125 1_455
Ba3 O6 2.931125 1_554
Ba3 O2 3.011197 1_545
Ba3 O1 3.011197 1_455
Ba3 O0 3.011197 1_554
Mn0 O2 1.884936 1_555
Mn0 O1 1.884936 1_555
Mn0 O0 1.884937 1_555
Mn0 O10 1.952033 1_555
Mn0 O8 1.952033 1_555
Mn0 O9 1.952033 1_555
Mn1 O11 1.898393 1_555
Mn1 O10 1.898393 1_555
Mn1 O7 1.898393 1_555
Mn1 O8 1.898393 1_555
Mn1 O6 1.898393 1_555
Mn1 O9 1.898393 1_555
Mn2 O3 1.884936 1_555
Mn2 O5 1.884936 1_555
Mn2 O4 1.884937 1_555
Mn2 O11 1.952033 1_555
Mn2 O7 1.952033 1_555
Mn2 O6 1.952033 1_555
O0 Zr0 2.092507 1_556
O1 Zr0 2.092506 1_655
O2 Zr0 2.092506 1_565
O3 Zr0 2.092506 1_656
O4 Zr0 2.092507 1_665
O5 Zr0 2.092506 1_566
