# generated using pymatgen
data_Cu2NiIr3S8
_symmetry_space_group_name_H-M   'P 1'
_cell_length_a   6.86234901
_cell_length_b   6.86234963
_cell_length_c   6.86234865
_cell_angle_alpha   61.20780947
_cell_angle_beta   61.20780641
_cell_angle_gamma   61.20780715
_symmetry_Int_Tables_number   1
_chemical_formula_structural   Cu2NiIr3S8
_chemical_formula_sum   'Cu2 Ni1 Ir3 S8'
_cell_volume   234.71701165
_cell_formula_units_Z   1
loop_
 _symmetry_equiv_pos_site_id
 _symmetry_equiv_pos_as_xyz
  1  'x, y, z'
loop_
 _atom_site_type_symbol
 _atom_site_label
 _atom_site_symmetry_multiplicity
 _atom_site_fract_x
 _atom_site_fract_y
 _atom_site_fract_z
 _atom_site_occupancy
  Cu  Cu0  1  0.00216527  0.00216527  0.00216527  1
  Cu  Cu1  1  0.24783473  0.24783473  0.24783473  1
  Ni  Ni0  1  0.62500000  0.62500000  0.62500000  1
  Ir  Ir0  1  0.62500000  0.62500000  0.12500000  1
  Ir  Ir1  1  0.12500000  0.62500000  0.62500000  1
  Ir  Ir2  1  0.62500000  0.12500000  0.62500000  1
  S  S0  1  0.38784759  0.38784759  0.84457271  1
  S  S1  1  0.38471284  0.38471284  0.38471284  1
  S  S2  1  0.86528716  0.86528716  0.86528716  1
  S  S3  1  0.86215241  0.86215241  0.40542729  1
  S  S4  1  0.38784759  0.84457271  0.38784759  1
  S  S5  1  0.84457271  0.38784759  0.38784759  1
  S  S6  1  0.40542729  0.86215241  0.86215241  1
  S  S7  1  0.86215241  0.40542729  0.86215241  1
loop_
_geom_bond_atom_site_label_1
_geom_bond_atom_site_label_2
_geom_bond_distance
_geom_bond_site_symmetry_2
Cu0 S2 2.279593 1_444
Cu0 S3 2.295916 1_445
Cu0 S6 2.295916 1_544
Cu0 S7 2.295916 1_454
Cu1 S1 2.279593 1_555
Cu1 S0 2.295916 1_554
Cu1 S5 2.295916 1_455
Cu1 S4 2.295916 1_545
Ni0 S7 2.322590 1_555
Ni0 S4 2.322590 1_555
Ni0 S6 2.322590 1_555
Ni0 S5 2.322590 1_555
Ni0 S3 2.322590 1_555
Ni0 S0 2.322590 1_555
Ir0 S2 2.360458 1_554
Ir0 S1 2.360458 1_555
Ir0 S4 2.366583 1_555
Ir0 S7 2.366583 1_554
Ir0 S5 2.366583 1_555
Ir0 S6 2.366583 1_554
Ir1 S2 2.360458 1_455
Ir1 S1 2.360458 1_555
Ir1 S0 2.366583 1_555
Ir1 S3 2.366583 1_455
Ir1 S4 2.366583 1_555
Ir1 S7 2.366583 1_455
Ir2 S2 2.360458 1_545
Ir2 S1 2.360458 1_555
Ir2 S0 2.366583 1_555
Ir2 S3 2.366583 1_545
Ir2 S5 2.366583 1_555
Ir2 S6 2.366583 1_545
