# generated using pymatgen
data_Ta12Ga7Co5C4
_symmetry_space_group_name_H-M   'P 1'
_cell_length_a   8.11408838
_cell_length_b   8.11408918
_cell_length_c   8.11408866
_cell_angle_alpha   60.31234495
_cell_angle_beta   60.31234044
_cell_angle_gamma   60.31234191
_symmetry_Int_Tables_number   1
_chemical_formula_structural   Ta12Ga7Co5C4
_chemical_formula_sum   'Ta12 Ga7 Co5 C4'
_cell_volume   380.41956439
_cell_formula_units_Z   1
loop_
 _symmetry_equiv_pos_site_id
 _symmetry_equiv_pos_as_xyz
  1  'x, y, z'
loop_
 _atom_site_type_symbol
 _atom_site_label
 _atom_site_symmetry_multiplicity
 _atom_site_fract_x
 _atom_site_fract_y
 _atom_site_fract_z
 _atom_site_occupancy
  Ta  Ta0  1  0.19029151  0.80902892  0.19029151  1
  Ta  Ta1  1  0.80882708  0.18613059  0.80882708  1
  Ta  Ta2  1  0.05951087  0.44010364  0.05951087  1
  Ta  Ta3  1  0.05874837  0.44044455  0.44044455  1
  Ta  Ta4  1  0.44010364  0.05951087  0.05951087  1
  Ta  Ta5  1  0.44044455  0.05874837  0.44044455  1
  Ta  Ta6  1  0.80882708  0.80882708  0.18613059  1
  Ta  Ta7  1  0.05951087  0.05951087  0.44010364  1
  Ta  Ta8  1  0.19029151  0.19029151  0.80902892  1
  Ta  Ta9  1  0.18613059  0.80882708  0.80882708  1
  Ta  Ta10  1  0.44044455  0.44044455  0.05874837  1
  Ta  Ta11  1  0.80902892  0.19029151  0.19029151  1
  Ga  Ga0  1  0.83355986  0.83355986  0.50500975  1
  Ga  Ga1  1  0.50500975  0.83355986  0.83355986  1
  Ga  Ga2  1  0.41643708  0.74929251  0.41643708  1
  Ga  Ga3  1  0.74929251  0.41643708  0.41643708  1
  Ga  Ga4  1  0.41648159  0.41648159  0.41648159  1
  Ga  Ga5  1  0.41643708  0.41643708  0.74929251  1
  Ga  Ga6  1  0.83355986  0.50500975  0.83355986  1
  Co  Co0  1  0.62475398  0.62475398  0.62475398  1
  Co  Co1  1  0.12382918  0.62669188  0.62669188  1
  Co  Co2  1  0.62669188  0.62669188  0.12382918  1
  Co  Co3  1  0.62669188  0.12382918  0.62669188  1
  Co  Co4  1  0.83639220  0.83639220  0.83639220  1
  C  C0  1  0.12477360  0.12477360  0.12477360  1
  C  C1  1  0.12439728  0.12439728  0.62513145  1
  C  C2  1  0.62513145  0.12439728  0.12439728  1
  C  C3  1  0.12439728  0.62513145  0.12439728  1
loop_
_geom_bond_atom_site_label_1
_geom_bond_atom_site_label_2
_geom_bond_distance
_geom_bond_site_symmetry_2
Ga0 Ga1 2.678460 1_555
Ga0 Ga6 2.678461 1_555
Ga0 Ta0 2.747763 1_655
Ga0 Ta11 2.747763 1_565
Ga0 Ta6 2.800685 1_555
Ga0 Ta7 2.901144 1_665
Ga0 Ta5 2.953238 1_565
Ga0 Ta3 2.953239 1_655
Ga1 Ga6 2.678461 1_555
Ga1 Ta0 2.747763 1_556
Ga1 Ta8 2.747763 1_565
Ga1 Ta9 2.800685 1_555
Ga1 Ta4 2.901144 1_566
Ga1 Ta5 2.953238 1_565
Ga1 Ta10 2.953239 1_556
Ga2 Ga4 2.700100 1_555
Ga2 Ga3 2.713559 1_555
Ga2 Ga5 2.713559 1_555
Ga2 Ta5 2.717972 1_565
Ga2 Ta7 2.732641 1_565
Ga2 Ta4 2.732641 1_565
Ga2 Ta0 2.922734 1_555
Ga2 Ta6 2.932301 1_555
Ga2 Ta9 2.932301 1_555
Ga3 Ga4 2.700099 1_555
Ga3 Ga5 2.713559 1_555
Ga3 Ta3 2.717972 1_655
Ga3 Ta2 2.732641 1_655
Ga3 Ta7 2.732641 1_655
Ga3 Ta11 2.922734 1_555
Ga3 Ta1 2.932301 1_555
Ga3 Ta6 2.932301 1_555
Ga4 Ga5 2.700100 1_555
Ga4 Ta3 2.724060 1_555
Ga4 Ta10 2.724060 1_555
Ga4 Ta5 2.724060 1_555
Ga4 Ta11 2.938983 1_555
Ga4 Ta8 2.938983 1_555
Ga4 Ta0 2.938983 1_555
Ga5 Ta10 2.717972 1_556
Ga5 Ta2 2.732641 1_556
Ga5 Ta4 2.732641 1_556
Ga5 Ta8 2.922734 1_555
Ga5 Ta1 2.932301 1_555
Ga5 Ta9 2.932301 1_555
Ga6 Ta8 2.747763 1_655
Ga6 Ta11 2.747763 1_556
Ga6 Ta1 2.800685 1_555
Ga6 Ta2 2.901144 1_656
Ga6 Ta10 2.953238 1_556
Ga6 Ta3 2.953238 1_655
Co0 Ga2 2.486289 1_555
Co0 Ga3 2.486289 1_555
Co0 Ga5 2.486289 1_555
Co0 Ga6 2.503461 1_555
Co0 Ga1 2.503461 1_555
Co0 Ga0 2.503461 1_555
Co0 Ta3 2.942117 1_655
Co0 Ta10 2.942117 1_556
Co0 Ta5 2.942117 1_565
Co0 Ta9 2.967675 1_555
Co0 Ta6 2.967675 1_555
Co0 Ta1 2.967675 1_555
Co1 Ga6 2.466871 1_455
Co1 Ga0 2.466871 1_455
Co1 Ga2 2.486648 1_555
Co1 Ga5 2.486648 1_555
Co1 Co4 2.497184 1_455
Co1 Ga4 2.512999 1_555
Co1 Ta9 2.875267 1_555
Co1 Ta2 2.932339 1_556
Co1 Ta7 2.932339 1_565
Co1 Ta3 2.947824 1_555
Co1 Ta0 2.954285 1_555
Co1 Ta8 2.954285 1_555
Co2 Ga6 2.466871 1_554
Co2 Ga1 2.466871 1_554
Co2 Ga2 2.486648 1_555
Co2 Ga3 2.486648 1_555
Co2 Co4 2.497184 1_554
Co2 Ga4 2.512999 1_555
Co2 Ta6 2.875267 1_555
Co2 Ta2 2.932339 1_655
Co2 Ta4 2.932339 1_565
Co2 Ta10 2.947824 1_555
Co2 Ta0 2.954285 1_555
Co2 Ta11 2.954285 1_555
Co3 Ga0 2.466871 1_545
Co3 Ga1 2.466871 1_545
Co3 Ga5 2.486648 1_555
Co3 Ga3 2.486648 1_555
Co3 Co4 2.497184 1_545
Co3 Ga4 2.512999 1_555
Co3 Ta1 2.875267 1_555
Co3 Ta7 2.932339 1_655
Co3 Ta4 2.932339 1_556
Co3 Ta5 2.947824 1_555
Co3 Ta8 2.954285 1_555
Co3 Ta11 2.954285 1_555
Co4 Ta9 2.635399 1_655
Co4 Ta6 2.635399 1_556
Co4 Ta1 2.635399 1_565
Co4 Ga1 2.711827 1_555
Co4 Ga0 2.711827 1_555
Co4 Ga6 2.711827 1_555
Co4 Ta4 2.934040 1_566
Co4 Ta7 2.934040 1_665
Co4 Ta2 2.934040 1_656
C0 Ta4 2.168164 1_555
C0 Ta7 2.168164 1_555
C0 Ta2 2.168164 1_555
C0 Ta11 2.170413 1_455
C0 Ta8 2.170413 1_554
C0 Ta0 2.170414 1_545
C1 Ta7 2.156131 1_555
C1 Ta8 2.159167 1_555
C1 Ta1 2.172014 1_455
C1 Ta9 2.172015 1_545
C1 Ta5 2.176407 1_555
C1 Ta3 2.176407 1_555
C2 Ta4 2.156131 1_555
C2 Ta11 2.159167 1_555
C2 Ta1 2.172015 1_554
C2 Ta6 2.172015 1_545
C2 Ta5 2.176407 1_555
C2 Ta10 2.176407 1_555
C3 Ta2 2.156131 1_555
C3 Ta0 2.159167 1_555
C3 Ta6 2.172014 1_455
C3 Ta9 2.172015 1_554
C3 Ta10 2.176407 1_555
C3 Ta3 2.176407 1_555
