# generated using pymatgen
data_ZnReF6
_symmetry_space_group_name_H-M   'P 1'
_cell_length_a   5.48008336
_cell_length_b   5.48008310
_cell_length_c   5.48008417
_cell_angle_alpha   55.19061705
_cell_angle_beta   55.19061885
_cell_angle_gamma   55.19063574
_symmetry_Int_Tables_number   1
_chemical_formula_structural   ZnReF6
_chemical_formula_sum   'Zn1 Re1 F6'
_cell_volume   103.35979592
_cell_formula_units_Z   1
loop_
 _symmetry_equiv_pos_site_id
 _symmetry_equiv_pos_as_xyz
  1  'x, y, z'
loop_
 _atom_site_type_symbol
 _atom_site_label
 _atom_site_symmetry_multiplicity
 _atom_site_fract_x
 _atom_site_fract_y
 _atom_site_fract_z
 _atom_site_occupancy
  Zn  Zn0  1  0.50000000  0.50000000  0.50000000  1
  Re  Re0  1  0.00000000  0.00000000  0.00000000  1
  F  F0  1  0.61512303  0.89153263  0.24688532  1
  F  F1  1  0.89153263  0.24688532  0.61512303  1
  F  F2  1  0.75311468  0.38487697  0.10846737  1
  F  F3  1  0.10846737  0.75311468  0.38487697  1
  F  F4  1  0.38487697  0.10846737  0.75311468  1
  F  F5  1  0.24688532  0.61512303  0.89153263  1
loop_
_geom_bond_atom_site_label_1
_geom_bond_atom_site_label_2
_geom_bond_distance
_geom_bond_site_symmetry_2
F0 Re0 1.971701 1_665
F0 Zn0 2.018472 1_555
F1 Re0 1.971702 1_656
F1 Zn0 2.018473 1_555
F2 Re0 1.971702 1_655
F2 Zn0 2.018473 1_555
F3 Re0 1.971702 1_565
F3 Zn0 2.018473 1_555
F4 Re0 1.971701 1_556
F4 Zn0 2.018472 1_555
F5 Re0 1.971702 1_566
F5 Zn0 2.018473 1_555
