# generated using pymatgen
data_TbTlPd
_symmetry_space_group_name_H-M   'P 1'
_cell_length_a   7.80719504
_cell_length_b   7.80719441
_cell_length_c   3.78545606
_cell_angle_alpha   90.00000000
_cell_angle_beta   90.00000000
_cell_angle_gamma   119.99999395
_symmetry_Int_Tables_number   1
_chemical_formula_structural   TbTlPd
_chemical_formula_sum   'Tb3 Tl3 Pd3'
_cell_volume   199.81997064
_cell_formula_units_Z   3
loop_
 _symmetry_equiv_pos_site_id
 _symmetry_equiv_pos_as_xyz
  1  'x, y, z'
loop_
 _atom_site_type_symbol
 _atom_site_label
 _atom_site_symmetry_multiplicity
 _atom_site_fract_x
 _atom_site_fract_y
 _atom_site_fract_z
 _atom_site_occupancy
  Tb  Tb0  1  0.59836680  1.00000000  0.50000000  1
  Tb  Tb1  1  0.40163320  0.40163320  0.50000000  1
  Tb  Tb2  1  1.00000000  0.59836680  0.50000000  1
  Tl  Tl0  1  0.26810665  0.00000000  -0.00000000  1
  Tl  Tl1  1  0.73189335  0.73189335  -0.00000000  1
  Tl  Tl2  1  0.00000000  0.26810665  0.00000000  1
  Pd  Pd0  1  0.00000000  0.00000000  0.50000000  1
  Pd  Pd1  1  0.33333300  0.66666700  -0.00000000  1
  Pd  Pd2  1  0.66666700  0.33333300  -0.00000000  1
loop_
_geom_bond_atom_site_label_1
_geom_bond_atom_site_label_2
_geom_bond_distance
_geom_bond_site_symmetry_2
Tb0 Tl0 3.198530 1_565
Tb0 Tl0 3.198530 1_566
Tb0 Tl1 3.351497 1_555
Tb0 Tl1 3.351497 1_556
Tb0 Tl2 3.351497 1_665
Tb0 Tl2 3.351497 1_666
Tb1 Tl1 3.198530 1_555
Tb1 Tl1 3.198530 1_556
Tb1 Tl0 3.351497 1_555
Tb1 Tl0 3.351497 1_556
Tb1 Tl2 3.351497 1_556
Tb1 Tl2 3.351497 1_555
Tb2 Tl2 3.198530 1_656
Tb2 Tl2 3.198530 1_655
Tb2 Tl1 3.351497 1_555
Tb2 Tl1 3.351497 1_556
Tb2 Tl0 3.351497 1_666
Tb2 Tl0 3.351497 1_665
Pd0 Tl2 2.822010 1_555
Pd0 Tl2 2.822010 1_556
Pd0 Tl0 2.822010 1_555
Pd0 Tl0 2.822010 1_556
Pd0 Tl1 2.822010 1_445
Pd0 Tl1 2.822010 1_446
Pd0 Tb2 3.135628 1_445
Pd0 Tb0 3.135629 1_445
Pd0 Tb1 3.135629 1_555
Pd1 Tl0 2.890850 1_565
Pd1 Tl2 2.890855 1_555
Pd1 Tl1 2.890858 1_555
Pd1 Tb2 3.041634 1_454
Pd1 Tb2 3.041634 1_455
Pd1 Tb0 3.041636 1_554
Pd1 Tb0 3.041636 1_555
Pd1 Tb1 3.041640 1_555
Pd1 Tb1 3.041640 1_554
Pd2 Tl2 2.890850 1_655
Pd2 Tl0 2.890855 1_555
Pd2 Tl1 2.890858 1_555
Pd2 Tb0 3.041634 1_544
Pd2 Tb0 3.041634 1_545
Pd2 Tb2 3.041636 1_555
Pd2 Tb2 3.041636 1_554
Pd2 Tb1 3.041640 1_554
Pd2 Tb1 3.041640 1_555
