# generated using pymatgen
data_Rb6YInBi4
_symmetry_space_group_name_H-M   'P 1'
_cell_length_a   10.25899828
_cell_length_b   10.25899723
_cell_length_c   10.25916394
_cell_angle_alpha   128.07048277
_cell_angle_beta   69.63885232
_cell_angle_gamma   136.99561875
_symmetry_Int_Tables_number   1
_chemical_formula_structural   Rb6YInBi4
_chemical_formula_sum   'Rb6 Y1 In1 Bi4'
_cell_volume   569.00091190
_cell_formula_units_Z   1
loop_
 _symmetry_equiv_pos_site_id
 _symmetry_equiv_pos_as_xyz
  1  'x, y, z'
loop_
 _atom_site_type_symbol
 _atom_site_label
 _atom_site_symmetry_multiplicity
 _atom_site_fract_x
 _atom_site_fract_y
 _atom_site_fract_z
 _atom_site_occupancy
  Rb  Rb0  1  0.24998255  0.24998255  0.00000000  1
  Rb  Rb1  1  0.74999357  0.74999457  0.00000000  1
  Rb  Rb2  1  0.33011745  0.81893901  0.12273056  1
  Rb  Rb3  1  0.16987111  0.29260009  0.48882412  1
  Rb  Rb4  1  0.80377698  0.68104799  0.51117788  1
  Rb  Rb5  1  0.69620645  0.20738589  0.87726944  1
  Y  Y0  1  0.24998791  0.74998791  0.49999900  1
  In  In0  1  0.75006055  0.25006055  0.50000000  1
  Bi  Bi0  1  0.89217189  0.29939292  0.20528585  1
  Bi  Bi1  1  0.60782079  0.81312302  0.40721734  1
  Bi  Bi2  1  0.40590468  0.20060246  0.59278166  1
  Bi  Bi3  1  0.09410507  0.68688404  0.79471315  1
loop_
_geom_bond_atom_site_label_1
_geom_bond_atom_site_label_2
_geom_bond_distance
_geom_bond_site_symmetry_2
Rb0 Rb1 3.760214 1_445
Rb0 Rb1 3.760387 1_555
Rb0 Rb5 4.579196 1_554
Rb0 Rb2 4.579209 1_555
Rb0 Rb4 4.579233 1_444
Rb0 Rb3 4.579249 1_555
Rb1 Rb2 4.497101 1_555
Rb1 Rb5 4.497114 1_554
Rb1 Rb4 4.497196 1_554
Rb1 Rb3 4.497220 1_665
Rb2 Y0 4.058141 1_555
Rb2 Rb5 4.497996 1_564
Rb2 Rb5 4.498016 1_454
Rb3 Y0 4.058083 1_555
Rb3 Rb4 4.497953 1_445
Rb3 Rb4 4.497954 1_555
Rb4 Y0 4.058065 1_655
Rb5 Y0 4.058148 1_545
In0 Rb4 3.965022 1_555
In0 Rb3 3.965031 1_655
In0 Rb5 3.965522 1_555
In0 Rb2 3.965522 1_545
Bi0 In0 3.043659 1_555
Bi0 Y0 3.106956 1_655
Bi0 Rb1 3.715487 1_545
Bi0 Rb4 3.749720 1_555
Bi0 Rb0 3.767261 1_655
Bi0 Rb5 3.777849 1_554
Bi0 Rb2 3.865426 1_545
Bi0 Rb2 4.148077 1_655
Bi1 In0 3.044023 1_565
Bi1 Y0 3.106918 1_555
Bi1 Rb1 3.715463 1_555
Bi1 Rb5 3.749776 1_565
Bi1 Rb0 3.767428 1_555
Bi1 Rb4 3.777963 1_555
Bi1 Rb3 3.865385 1_665
Bi1 Rb3 4.148260 1_555
Bi2 In0 3.044027 1_555
Bi2 Y0 3.106914 1_545
Bi2 Rb1 3.715471 1_556
Bi2 Rb2 3.749768 1_545
Bi2 Rb0 3.767433 1_556
Bi2 Rb3 3.777942 1_555
Bi2 Rb4 3.865379 1_555
Bi2 Rb4 4.148249 1_445
Bi3 In0 3.043645 1_455
Bi3 Y0 3.106969 1_555
Bi3 Rb1 3.715496 1_456
Bi3 Rb3 3.749716 1_555
Bi3 Rb0 3.767267 1_566
Bi3 Rb2 3.777852 1_556
Bi3 Rb5 3.865425 1_455
Bi3 Rb5 4.148078 1_565
