# generated using pymatgen
data_Sr5GeBi2
_symmetry_space_group_name_H-M   'P 1'
_cell_length_a   13.80591228
_cell_length_b   10.02881870
_cell_length_c   8.64409775
_cell_angle_alpha   90.00000000
_cell_angle_beta   90.00000000
_cell_angle_gamma   90.00000000
_symmetry_Int_Tables_number   1
_chemical_formula_structural   Sr5GeBi2
_chemical_formula_sum   'Sr20 Ge4 Bi8'
_cell_volume   1196.83576691
_cell_formula_units_Z   4
loop_
 _symmetry_equiv_pos_site_id
 _symmetry_equiv_pos_as_xyz
  1  'x, y, z'
loop_
 _atom_site_type_symbol
 _atom_site_label
 _atom_site_symmetry_multiplicity
 _atom_site_fract_x
 _atom_site_fract_y
 _atom_site_fract_z
 _atom_site_occupancy
  Sr  Sr0  1  0.08034490  0.52512548  0.82995064  1
  Sr  Sr1  1  0.58034490  0.97487452  0.67004936  1
  Sr  Sr2  1  0.91965510  0.02512548  0.17004936  1
  Sr  Sr3  1  0.41965510  0.47487452  0.32995064  1
  Sr  Sr4  1  0.91965510  0.47487452  0.17004936  1
  Sr  Sr5  1  0.41965510  0.02512548  0.32995064  1
  Sr  Sr6  1  0.08034490  0.97487452  0.82995064  1
  Sr  Sr7  1  0.58034490  0.52512548  0.67004936  1
  Sr  Sr8  1  0.99984418  0.75000000  0.44438279  1
  Sr  Sr9  1  0.49984418  0.75000000  0.05561721  1
  Sr  Sr10  1  0.00015582  0.25000000  0.55561721  1
  Sr  Sr11  1  0.50015582  0.25000000  0.94438279  1
  Sr  Sr12  1  0.21306939  0.75000000  0.17386716  1
  Sr  Sr13  1  0.71306939  0.75000000  0.32613284  1
  Sr  Sr14  1  0.78693061  0.25000000  0.82613284  1
  Sr  Sr15  1  0.28693061  0.25000000  0.67386716  1
  Sr  Sr16  1  0.30682009  0.75000000  0.65081979  1
  Sr  Sr17  1  0.80682009  0.75000000  0.84918021  1
  Sr  Sr18  1  0.69317991  0.25000000  0.34918021  1
  Sr  Sr19  1  0.19317991  0.25000000  0.15081979  1
  Ge  Ge0  1  0.49372093  0.75000000  0.44675739  1
  Ge  Ge1  1  0.99372093  0.75000000  0.05324261  1
  Ge  Ge2  1  0.50627907  0.25000000  0.55324261  1
  Ge  Ge3  1  0.00627907  0.25000000  0.94675739  1
  Bi  Bi0  1  0.33078989  0.50527070  0.94921722  1
  Bi  Bi1  1  0.83078989  0.99472930  0.55078278  1
  Bi  Bi2  1  0.66921011  0.00527070  0.05078278  1
  Bi  Bi3  1  0.16921011  0.49472930  0.44921722  1
  Bi  Bi4  1  0.66921011  0.49472930  0.05078278  1
  Bi  Bi5  1  0.16921011  0.00527070  0.44921722  1
  Bi  Bi6  1  0.33078989  0.99472930  0.94921722  1
  Bi  Bi7  1  0.83078989  0.50527070  0.55078278  1
loop_
_geom_bond_atom_site_label_1
_geom_bond_atom_site_label_2
_geom_bond_distance
_geom_bond_site_symmetry_2
Ge0 Sr5 3.110975 1_565
Ge0 Sr3 3.110975 1_555
Ge0 Sr16 3.125637 1_555
Ge0 Sr1 3.200279 1_555
Ge0 Sr7 3.200279 1_555
Ge0 Sr13 3.202786 1_555
Ge0 Sr9 3.382111 1_555
Ge1 Sr2 3.110975 1_565
Ge1 Sr4 3.110975 1_555
Ge1 Sr17 3.125637 1_554
Ge1 Sr6 3.200279 1_654
Ge1 Sr0 3.200279 1_654
Ge1 Sr12 3.202786 1_655
Ge1 Sr8 3.382111 1_555
Ge2 Sr7 3.110975 1_555
Ge2 Sr1 3.110975 1_545
Ge2 Sr18 3.125637 1_555
Ge2 Sr3 3.200279 1_555
Ge2 Sr5 3.200279 1_555
Ge2 Sr15 3.202786 1_555
Ge2 Sr11 3.382111 1_555
Ge3 Sr0 3.110975 1_555
Ge3 Sr6 3.110975 1_545
Ge3 Sr19 3.125637 1_556
Ge3 Sr4 3.200279 1_456
Ge3 Sr2 3.200279 1_456
Ge3 Sr14 3.202786 1_455
Ge3 Sr10 3.382111 1_555
Bi0 Sr11 3.467433 1_555
Bi0 Sr9 3.509564 1_556
Bi0 Sr3 3.525542 1_556
Bi0 Sr12 3.526496 1_556
Bi0 Sr15 3.547634 1_555
Bi0 Sr16 3.575823 1_555
Bi0 Sr0 3.613538 1_555
Bi0 Sr19 3.633207 1_556
Bi1 Sr10 3.467433 1_665
Bi1 Sr8 3.509564 1_555
Bi1 Sr2 3.525542 1_565
Bi1 Sr13 3.526496 1_555
Bi1 Sr14 3.547634 1_565
Bi1 Sr17 3.575823 1_555
Bi1 Sr1 3.613538 1_555
Bi1 Sr18 3.633207 1_565
Bi2 Sr9 3.467433 1_545
Bi2 Sr11 3.509564 1_554
Bi2 Sr1 3.525542 1_544
Bi2 Sr14 3.526496 1_554
Bi2 Sr13 3.547634 1_545
Bi2 Sr18 3.575823 1_555
Bi2 Sr2 3.613538 1_555
Bi2 Sr17 3.633207 1_544
Bi3 Sr8 3.467433 1_455
Bi3 Sr10 3.509564 1_555
Bi3 Sr0 3.525542 1_555
Bi3 Sr15 3.526496 1_555
Bi3 Sr12 3.547634 1_555
Bi3 Sr19 3.575823 1_555
Bi3 Sr3 3.613538 1_555
Bi3 Sr16 3.633207 1_555
Bi4 Sr9 3.467433 1_555
Bi4 Sr11 3.509564 1_554
Bi4 Sr7 3.525542 1_554
Bi4 Sr14 3.526496 1_554
Bi4 Sr13 3.547634 1_555
Bi4 Sr18 3.575823 1_555
Bi4 Sr4 3.613538 1_555
Bi4 Sr17 3.633207 1_554
Bi5 Sr8 3.467433 1_445
Bi5 Sr10 3.509564 1_555
Bi5 Sr6 3.525542 1_545
Bi5 Sr15 3.526496 1_555
Bi5 Sr12 3.547634 1_545
Bi5 Sr19 3.575823 1_555
Bi5 Sr5 3.613538 1_555
Bi5 Sr16 3.633207 1_545
Bi6 Sr11 3.467433 1_565
Bi6 Sr9 3.509564 1_556
Bi6 Sr5 3.525542 1_566
Bi6 Sr12 3.526496 1_556
Bi6 Sr15 3.547634 1_565
Bi6 Sr16 3.575823 1_555
Bi6 Sr6 3.613538 1_555
Bi6 Sr19 3.633207 1_566
Bi7 Sr10 3.467433 1_655
Bi7 Sr8 3.509564 1_555
Bi7 Sr4 3.525542 1_555
Bi7 Sr13 3.526496 1_555
Bi7 Sr14 3.547634 1_555
Bi7 Sr17 3.575823 1_555
Bi7 Sr7 3.613538 1_555
Bi7 Sr18 3.633207 1_555
