# generated using pymatgen
data_Rb4TaInCl12
_symmetry_space_group_name_H-M   'P 1'
_cell_length_a   7.19331397
_cell_length_b   7.19331397
_cell_length_c   10.28728985
_cell_angle_alpha   90.00000000
_cell_angle_beta   90.00000000
_cell_angle_gamma   90.00000000
_symmetry_Int_Tables_number   1
_chemical_formula_structural   Rb4TaInCl12
_chemical_formula_sum   'Rb4 Ta1 In1 Cl12'
_cell_volume   532.30311785
_cell_formula_units_Z   1
loop_
 _symmetry_equiv_pos_site_id
 _symmetry_equiv_pos_as_xyz
  1  'x, y, z'
loop_
 _atom_site_type_symbol
 _atom_site_label
 _atom_site_symmetry_multiplicity
 _atom_site_fract_x
 _atom_site_fract_y
 _atom_site_fract_z
 _atom_site_occupancy
  Rb  Rb0  1  0.50000000  0.00000000  0.78202499  1
  Rb  Rb1  1  0.00000000  0.50000000  0.21797501  1
  Rb  Rb2  1  0.50000000  0.00000000  0.21797501  1
  Rb  Rb3  1  0.00000000  0.50000000  0.78202499  1
  Ta  Ta0  1  0.50000000  0.50000000  0.50000000  1
  In  In0  1  0.00000000  0.00000000  0.00000000  1
  Cl  Cl0  1  0.00000000  0.00000000  0.75322684  1
  Cl  Cl1  1  0.50000000  0.50000000  0.27007836  1
  Cl  Cl2  1  0.73203034  0.73203034  0.50000000  1
  Cl  Cl3  1  0.24805942  0.24805942  0.00000000  1
  Cl  Cl4  1  0.73203034  0.26796966  0.50000000  1
  Cl  Cl5  1  0.24805942  0.75194058  0.00000000  1
  Cl  Cl6  1  0.00000000  0.00000000  0.24677316  1
  Cl  Cl7  1  0.50000000  0.50000000  0.72992164  1
  Cl  Cl8  1  0.26796966  0.26796966  0.50000000  1
  Cl  Cl9  1  0.75194058  0.75194058  0.00000000  1
  Cl  Cl10  1  0.26796966  0.73203034  0.50000000  1
  Cl  Cl11  1  0.75194058  0.24805942  0.00000000  1
loop_
_geom_bond_atom_site_label_1
_geom_bond_atom_site_label_2
_geom_bond_distance
_geom_bond_site_symmetry_2
Cl0 In0 2.538627 1_556
Cl0 Rb0 3.608838 1_455
Cl0 Rb0 3.608838 1_555
Cl0 Rb3 3.608838 1_545
Cl0 Rb3 3.608838 1_555
Cl1 Ta0 2.365271 1_555
Cl1 Rb2 3.636377 1_565
Cl1 Rb1 3.636377 1_555
Cl1 Rb1 3.636377 1_655
Cl1 Rb2 3.636377 1_555
Cl2 Ta0 2.360417 1_555
Cl2 Rb0 3.862483 1_565
Cl2 Rb3 3.862483 1_655
Cl2 Rb1 3.862483 1_655
Cl2 Rb2 3.862483 1_565
Cl3 In0 2.523479 1_555
Cl3 Rb2 3.390663 1_555
Cl3 Rb1 3.390663 1_555
Cl3 Rb0 3.390663 1_554
Cl3 Rb3 3.390663 1_554
Cl4 Ta0 2.360417 1_555
Cl4 Rb0 3.862483 1_555
Cl4 Rb3 3.862483 1_655
Cl4 Rb2 3.862483 1_555
Cl4 Rb1 3.862483 1_655
Cl5 In0 2.523479 1_565
Cl5 Rb1 3.390663 1_555
Cl5 Rb3 3.390663 1_554
Cl5 Rb2 3.390663 1_565
Cl5 Rb0 3.390663 1_564
Cl6 In0 2.538627 1_555
Cl6 Rb1 3.608838 1_555
Cl6 Rb2 3.608838 1_555
Cl6 Rb2 3.608838 1_455
Cl6 Rb1 3.608838 1_545
Cl7 Ta0 2.365271 1_555
Cl7 Rb0 3.636377 1_565
Cl7 Rb3 3.636377 1_655
Cl7 Rb3 3.636377 1_555
Cl7 Rb0 3.636377 1_555
Cl8 Ta0 2.360417 1_555
Cl8 Rb0 3.862483 1_555
Cl8 Rb3 3.862483 1_555
Cl8 Rb1 3.862483 1_555
Cl8 Rb2 3.862483 1_555
Cl9 In0 2.523479 1_665
Cl9 Rb2 3.390663 1_565
Cl9 Rb1 3.390663 1_655
Cl9 Rb3 3.390663 1_654
Cl9 Rb0 3.390663 1_564
Cl10 Ta0 2.360417 1_555
Cl10 Rb3 3.862483 1_555
Cl10 Rb0 3.862483 1_565
Cl10 Rb1 3.862483 1_555
Cl10 Rb2 3.862483 1_565
Cl11 In0 2.523479 1_655
Cl11 Rb2 3.390663 1_555
Cl11 Rb0 3.390663 1_554
Cl11 Rb1 3.390663 1_655
Cl11 Rb3 3.390663 1_654
