# generated using pymatgen
data_Y3Ta3(Si2Ru5)2
_symmetry_space_group_name_H-M   'P 1'
_cell_length_a   9.95370165
_cell_length_b   9.95370120
_cell_length_c   3.19877889
_cell_angle_alpha   90.00000000
_cell_angle_beta   90.00000000
_cell_angle_gamma   89.92145181
_symmetry_Int_Tables_number   1
_chemical_formula_structural   Y3Ta3(Si2Ru5)2
_chemical_formula_sum   'Y3 Ta3 Si4 Ru10'
_cell_volume   316.92247006
_cell_formula_units_Z   1
loop_
 _symmetry_equiv_pos_site_id
 _symmetry_equiv_pos_as_xyz
  1  'x, y, z'
loop_
 _atom_site_type_symbol
 _atom_site_label
 _atom_site_symmetry_multiplicity
 _atom_site_fract_x
 _atom_site_fract_y
 _atom_site_fract_z
 _atom_site_occupancy
  Y  Y0  1  0.17261533  0.82738467  0.00000000  1
  Y  Y1  1  0.32662789  0.32575345  0.00000000  1
  Y  Y2  1  0.67424655  0.67337211  0.00000000  1
  Ta  Ta0  1  0.49897399  0.99903975  0.00000000  1
  Ta  Ta1  1  0.00096025  0.50102601  0.00000000  1
  Ta  Ta2  1  0.82577868  0.17422132  0.00000000  1
  Si  Si0  1  0.62857637  0.37142363  0.00000000  1
  Si  Si1  1  0.37546534  0.62453466  0.00000000  1
  Si  Si2  1  0.12250679  0.12671646  0.00000000  1
  Si  Si3  1  0.87328354  0.87749321  0.00000000  1
  Ru  Ru0  1  0.50314922  0.49685078  0.50000000  1
  Ru  Ru1  1  0.98927625  0.01072375  0.50000000  1
  Ru  Ru2  1  0.58209177  0.20417687  0.50000000  1
  Ru  Ru3  1  0.43461936  0.79143087  0.50000000  1
  Ru  Ru4  1  0.05652155  0.28888269  0.50000000  1
  Ru  Ru5  1  0.93056061  0.71076606  0.50000000  1
  Ru  Ru6  1  0.28923394  0.06943939  0.50000000  1
  Ru  Ru7  1  0.71111731  0.94347845  0.50000000  1
  Ru  Ru8  1  0.20856913  0.56538064  0.50000000  1
  Ru  Ru9  1  0.79582313  0.41790823  0.50000000  1
loop_
_geom_bond_atom_site_label_1
_geom_bond_atom_site_label_2
_geom_bond_distance
_geom_bond_site_symmetry_2
Si0 Ta2 2.774046 1_555
Si0 Y2 3.040305 1_555
Si0 Y1 3.040305 1_555
Si1 Y0 2.853493 1_555
Si1 Y1 3.014104 1_555
Si1 Y2 3.014104 1_555
Si2 Y1 2.839729 1_555
Si2 Ta2 2.990514 1_455
Si2 Y0 3.020243 1_545
Si3 Y2 2.839729 1_555
Si3 Ta2 2.990514 1_565
Si3 Y0 3.020243 1_655
Ru0 Si0 2.381407 1_556
Ru0 Si0 2.381407 1_555
Ru0 Si1 2.405022 1_555
Ru0 Si1 2.405022 1_556
Ru0 Y2 2.924693 1_556
Ru0 Y2 2.924693 1_555
Ru0 Y1 2.924693 1_556
Ru0 Y1 2.924693 1_555
Ru1 Si3 2.377790 1_545
Ru1 Si3 2.377790 1_546
Ru1 Si2 2.377790 1_656
Ru1 Si2 2.377790 1_655
Ru1 Ta2 2.801372 1_555
Ru1 Ta2 2.801372 1_556
Ru1 Y0 3.034708 1_646
Ru1 Y0 3.034708 1_645
Ru2 Si0 2.354899 1_556
Ru2 Si0 2.354899 1_555
Ru2 Ta0 2.723307 1_545
Ru2 Ta0 2.723307 1_546
Ru2 Ta2 2.920349 1_556
Ru2 Ta2 2.920349 1_555
Ru2 Y1 3.237272 1_555
Ru2 Y1 3.237272 1_556
Ru3 Si1 2.380571 1_555
Ru3 Si1 2.380571 1_556
Ru3 Ta0 2.691157 1_555
Ru3 Ta0 2.691157 1_556
Ru3 Y0 3.079733 1_556
Ru3 Y0 3.079733 1_555
Ru3 Y2 3.101668 1_556
Ru3 Y2 3.101668 1_555
Ru4 Si2 2.364744 1_555
Ru4 Si2 2.364744 1_556
Ru4 Ta1 2.705476 1_555
Ru4 Ta1 2.705476 1_556
Ru4 Ta2 3.023715 1_455
Ru4 Ta2 3.023715 1_456
Ru4 Y1 3.150204 1_556
Ru4 Y1 3.150204 1_555
Ru5 Si3 2.373732 1_556
Ru5 Si3 2.373732 1_555
Ru5 Ta1 2.720940 1_655
Ru5 Ta1 2.720940 1_656
Ru5 Y2 3.034499 1_555
Ru5 Y2 3.034499 1_556
Ru5 Y0 3.117381 1_655
Ru5 Y0 3.117381 1_656
Ru6 Si2 2.373732 1_555
Ru6 Si2 2.373732 1_556
Ru6 Ta0 2.720940 1_545
Ru6 Ta0 2.720940 1_546
Ru6 Y1 3.034499 1_555
Ru6 Y1 3.034499 1_556
Ru6 Y0 3.117381 1_545
Ru6 Y0 3.117381 1_546
Ru7 Si3 2.364745 1_555
Ru7 Si3 2.364745 1_556
Ru7 Ta0 2.705476 1_555
Ru7 Ta0 2.705476 1_556
Ru7 Ta2 3.023715 1_566
Ru7 Ta2 3.023715 1_565
Ru7 Y2 3.150204 1_556
Ru7 Y2 3.150204 1_555
Ru8 Si1 2.380571 1_555
Ru8 Si1 2.380571 1_556
Ru8 Ta1 2.691158 1_555
Ru8 Ta1 2.691158 1_556
Ru8 Y0 3.079733 1_555
Ru8 Y0 3.079733 1_556
Ru8 Y1 3.101668 1_556
Ru8 Y1 3.101668 1_555
Ru9 Si0 2.354899 1_556
Ru9 Si0 2.354899 1_555
Ru9 Ta1 2.723307 1_655
Ru9 Ta1 2.723307 1_656
Ru9 Ta2 2.920349 1_555
Ru9 Ta2 2.920349 1_556
Ru9 Y2 3.237272 1_556
Ru9 Y2 3.237272 1_555
