# generated using pymatgen
data_Ba4Sb3AsF20
_symmetry_space_group_name_H-M   'P 1'
_cell_length_a   4.70972536
_cell_length_b   9.30375288
_cell_length_c   11.13395834
_cell_angle_alpha   90.00000000
_cell_angle_beta   90.00000000
_cell_angle_gamma   90.21997687
_symmetry_Int_Tables_number   1
_chemical_formula_structural   Ba4Sb3AsF20
_chemical_formula_sum   'Ba4 Sb3 As1 F20'
_cell_volume   487.86553717
_cell_formula_units_Z   1
loop_
 _symmetry_equiv_pos_site_id
 _symmetry_equiv_pos_as_xyz
  1  'x, y, z'
loop_
 _atom_site_type_symbol
 _atom_site_label
 _atom_site_symmetry_multiplicity
 _atom_site_fract_x
 _atom_site_fract_y
 _atom_site_fract_z
 _atom_site_occupancy
  Ba  Ba0  1  0.03203526  0.24782548  0.50338675  1
  Ba  Ba1  1  0.96800036  0.75101933  0.99996054  1
  Ba  Ba2  1  0.96800036  0.75101933  0.50003946  1
  Ba  Ba3  1  0.03203526  0.24782548  0.99661325  1
  Sb  Sb0  1  0.59163869  0.54847337  0.25000000  1
  Sb  Sb1  1  0.41228764  0.45498278  0.75000000  1
  Sb  Sb2  1  0.40986161  0.05045437  0.25000000  1
  As  As0  1  0.60874453  0.93582191  0.75000000  1
  F  F0  1  0.12315921  0.98732443  0.38497158  1
  F  F1  1  0.12111943  0.51578530  0.61772198  1
  F  F2  1  0.87832705  0.48546056  0.11716069  1
  F  F3  1  0.86157841  0.00991659  0.87836469  1
  F  F4  1  0.86157841  0.00991659  0.62163531  1
  F  F5  1  0.87832705  0.48546056  0.38283931  1
  F  F6  1  0.12111943  0.51578530  0.88227802  1
  F  F7  1  0.12315921  0.98732443  0.11502842  1
  F  F8  1  0.11893479  0.20492625  0.25000000  1
  F  F9  1  0.12555277  0.29599227  0.75000000  1
  F  F10  1  0.88127776  0.70573583  0.25000000  1
  F  F11  1  0.87417971  0.79533300  0.75000000  1
  F  F12  1  0.45620884  0.68810513  0.11356640  1
  F  F13  1  0.45301859  0.81160938  0.87722044  1
  F  F14  1  0.54728397  0.18922297  0.38462260  1
  F  F15  1  0.54803015  0.31787095  0.61392726  1
  F  F16  1  0.54803015  0.31787095  0.88607274  1
  F  F17  1  0.54728397  0.18922297  0.11537740  1
  F  F18  1  0.45301859  0.81160938  0.62277956  1
  F  F19  1  0.45620884  0.68810513  0.38643360  1
loop_
_geom_bond_atom_site_label_1
_geom_bond_atom_site_label_2
_geom_bond_distance
_geom_bond_site_symmetry_2
Ba0 F15 2.673409 1_455
Ba0 F5 2.688093 1_455
Ba0 F14 2.692308 1_455
Ba0 F4 2.695099 1_455
Ba0 F0 2.793644 1_545
Ba0 F15 2.798773 1_555
Ba0 F9 2.816489 1_555
Ba0 F14 2.818638 1_555
Ba0 F1 2.829089 1_555
Ba0 F8 2.878752 1_555
Ba1 F7 2.645099 1_656
Ba1 F6 2.653070 1_655
Ba1 F12 2.690686 1_656
Ba1 F13 2.719095 1_655
Ba1 F12 2.782397 1_556
Ba1 F3 2.809857 1_565
Ba1 F2 2.824438 1_556
Ba1 F13 2.842270 1_555
Ba1 F10 2.844866 1_556
Ba1 F11 2.848156 1_555
Ba2 F0 2.645099 1_655
Ba2 F1 2.653070 1_655
Ba2 F19 2.690686 1_655
Ba2 F18 2.719095 1_655
Ba2 F19 2.782397 1_555
Ba2 F4 2.809857 1_565
Ba2 F5 2.824438 1_555
Ba2 F18 2.842270 1_555
Ba2 F10 2.844866 1_555
Ba2 F11 2.848156 1_555
Ba3 F16 2.673409 1_455
Ba3 F2 2.688093 1_456
Ba3 F17 2.692308 1_456
Ba3 F3 2.695099 1_455
Ba3 F7 2.793644 1_546
Ba3 F16 2.798773 1_555
Ba3 F9 2.816489 1_555
Ba3 F17 2.818638 1_556
Ba3 F6 2.829089 1_555
Ba3 F8 2.878752 1_556
As0 F11 1.812128 1_555
As0 F13 1.968069 1_555
As0 F18 1.968069 1_555
As0 F3 1.982296 1_565
As0 F4 1.982296 1_565
F0 Sb2 2.102493 1_565
F1 Sb1 2.091785 1_555
F2 Sb0 2.088157 1_555
F5 Sb0 2.088157 1_555
F6 Sb1 2.091785 1_555
F7 Sb2 2.102493 1_565
F8 Sb2 1.989468 1_555
F9 Sb1 1.999103 1_555
F10 Sb0 1.996560 1_555
F12 Sb0 2.099609 1_555
F14 Sb2 2.079901 1_555
F15 Sb1 2.082687 1_555
F16 Sb1 2.082687 1_555
F17 Sb2 2.079901 1_555
F19 Sb0 2.099609 1_555
