# generated using pymatgen
data_Be3Nb10BAs2
_symmetry_space_group_name_H-M   'P 1'
_cell_length_a   7.42288145
_cell_length_b   7.42288200
_cell_length_c   7.44304115
_cell_angle_alpha   128.87125218
_cell_angle_beta   128.87125387
_cell_angle_gamma   75.01574307
_symmetry_Int_Tables_number   1
_chemical_formula_structural   Be3Nb10BAs2
_chemical_formula_sum   'Be3 Nb10 B1 As2'
_cell_volume   242.31531538
_cell_formula_units_Z   1
loop_
 _symmetry_equiv_pos_site_id
 _symmetry_equiv_pos_as_xyz
  1  'x, y, z'
loop_
 _atom_site_type_symbol
 _atom_site_label
 _atom_site_symmetry_multiplicity
 _atom_site_fract_x
 _atom_site_fract_y
 _atom_site_fract_z
 _atom_site_occupancy
  Be  Be0  1  0.11936316  0.61928845  0.73864961  1
  Be  Be1  1  0.88071155  0.38063684  0.26135039  1
  Be  Be2  1  0.61677513  0.88322487  0.50000000  1
  Nb  Nb0  1  0.00246920  0.00029486  0.00276507  1
  Nb  Nb1  1  0.49970514  0.49753080  0.99723493  1
  Nb  Nb2  1  0.80348353  0.30738141  0.83211040  1
  Nb  Nb3  1  0.19261859  0.69651647  0.16788960  1
  Nb  Nb4  1  0.47137314  0.97527101  0.16788960  1
  Nb  Nb5  1  0.31319714  0.46345385  0.50000000  1
  Nb  Nb6  1  0.03654615  0.18680286  0.50000000  1
  Nb  Nb7  1  0.52472899  0.02862686  0.83211040  1
  Nb  Nb8  1  0.68810312  0.52835202  0.50000000  1
  Nb  Nb9  1  0.97164798  0.81189688  0.50000000  1
  B  B0  1  0.38345180  0.11654820  0.50000000  1
  As  As0  1  0.24791270  0.25208730  1.00000000  1
  As  As1  1  0.74791270  0.75208730  1.00000000  1
loop_
_geom_bond_atom_site_label_1
_geom_bond_atom_site_label_2
_geom_bond_distance
_geom_bond_site_symmetry_2
Be0 Be1 2.172955 1_455
Be0 Nb5 2.516268 1_555
Be0 Nb6 2.516284 1_555
Be0 Nb9 2.516704 1_455
Be0 Nb8 2.516719 1_455
Be0 Nb0 2.551399 1_566
Be0 Nb4 2.552103 1_556
Be0 Nb3 2.552119 1_556
Be0 Nb1 2.556462 1_555
Be1 Nb6 2.516269 1_655
Be1 Nb5 2.516283 1_655
Be1 Nb8 2.516704 1_555
Be1 Nb9 2.516720 1_555
Be1 Nb1 2.551399 1_554
Be1 Nb7 2.552103 1_554
Be1 Nb2 2.552119 1_554
Be1 Nb0 2.556463 1_655
Be2 Nb3 2.476274 1_555
Be2 Nb2 2.476274 1_565
Be2 Nb7 2.476274 1_565
Be2 Nb4 2.476274 1_555
Be2 Nb9 2.549122 1_555
Be2 Nb8 2.549122 1_555
Be2 Nb0 2.590942 1_666
Be2 Nb1 2.590942 1_554
B0 Be2 2.109044 1_545
B0 Nb2 2.460345 1_555
B0 Nb3 2.460345 1_545
B0 Nb4 2.460345 1_545
B0 Nb7 2.460345 1_555
B0 Nb6 2.491662 1_555
B0 Nb5 2.491662 1_555
B0 Nb0 2.560455 1_555
B0 Nb1 2.560455 1_555
As0 Nb6 2.710552 1_555
As0 Nb5 2.710552 1_556
As0 Nb8 2.712003 1_556
As0 Nb9 2.712003 1_445
As0 Nb2 2.717057 1_455
As0 Nb3 2.717058 1_556
As0 Nb7 2.719137 1_555
As0 Nb4 2.719137 1_546
As0 Nb1 2.944346 1_555
As0 Nb0 2.944346 1_556
As1 Nb5 2.710552 1_555
As1 Nb6 2.710552 1_666
As1 Nb9 2.712003 1_556
As1 Nb8 2.712003 1_555
As1 Nb4 2.717058 1_556
As1 Nb7 2.717058 1_565
As1 Nb3 2.719137 1_656
As1 Nb2 2.719137 1_555
As1 Nb0 2.944334 1_666
As1 Nb1 2.944334 1_555
