# generated using pymatgen
data_Zr3Nb2GaSn3
_symmetry_space_group_name_H-M   'P 1'
_cell_length_a   8.55561231
_cell_length_b   8.55561191
_cell_length_c   5.74391004
_cell_angle_alpha   90.00000000
_cell_angle_beta   90.00000000
_cell_angle_gamma   119.99999769
_symmetry_Int_Tables_number   1
_chemical_formula_structural   Zr3Nb2GaSn3
_chemical_formula_sum   'Zr6 Nb4 Ga2 Sn6'
_cell_volume   364.11657122
_cell_formula_units_Z   2
loop_
 _symmetry_equiv_pos_site_id
 _symmetry_equiv_pos_as_xyz
  1  'x, y, z'
loop_
 _atom_site_type_symbol
 _atom_site_label
 _atom_site_symmetry_multiplicity
 _atom_site_fract_x
 _atom_site_fract_y
 _atom_site_fract_z
 _atom_site_occupancy
  Zr  Zr0  1  0.00000000  0.26822641  0.25000000  1
  Zr  Zr1  1  0.73177359  1.00000000  0.75000000  1
  Zr  Zr2  1  0.73177359  0.73177359  0.25000000  1
  Zr  Zr3  1  1.00000000  0.73177359  0.75000000  1
  Zr  Zr4  1  0.26822641  0.26822641  0.75000000  1
  Zr  Zr5  1  0.26822641  0.00000000  0.25000000  1
  Nb  Nb0  1  0.66666700  0.33333300  0.50000000  1
  Nb  Nb1  1  0.33333300  0.66666700  0.00000000  1
  Nb  Nb2  1  0.66666700  0.33333300  0.00000000  1
  Nb  Nb3  1  0.33333300  0.66666700  0.50000000  1
  Ga  Ga0  1  0.00000000  0.00000000  0.00000000  1
  Ga  Ga1  1  0.00000000  0.00000000  0.50000000  1
  Sn  Sn0  1  0.60924693  0.00000000  0.25000000  1
  Sn  Sn1  1  0.39075307  1.00000000  0.75000000  1
  Sn  Sn2  1  0.39075307  0.39075307  0.25000000  1
  Sn  Sn3  1  0.00000000  0.60924693  0.25000000  1
  Sn  Sn4  1  1.00000000  0.39075307  0.75000000  1
  Sn  Sn5  1  0.60924693  0.60924693  0.75000000  1
loop_
_geom_bond_atom_site_label_1
_geom_bond_atom_site_label_2
_geom_bond_distance
_geom_bond_site_symmetry_2
Nb0 Nb2 2.871955 1_555
Nb0 Nb2 2.871955 1_556
Nb0 Sn0 3.005911 1_555
Nb0 Sn4 3.005911 1_555
Nb0 Sn1 3.005914 1_545
Nb0 Sn3 3.005914 1_655
Nb0 Sn5 3.005919 1_555
Nb0 Sn2 3.005919 1_555
Nb0 Zr1 3.477647 1_545
Nb0 Zr0 3.477647 1_655
Nb0 Zr3 3.477652 1_555
Nb0 Zr5 3.477652 1_555
Nb0 Zr2 3.477654 1_555
Nb0 Zr4 3.477655 1_555
Nb1 Nb3 2.871955 1_555
Nb1 Nb3 2.871955 1_554
Nb1 Sn1 3.005911 1_554
Nb1 Sn3 3.005911 1_555
Nb1 Sn0 3.005914 1_565
Nb1 Sn4 3.005914 1_454
Nb1 Sn2 3.005919 1_555
Nb1 Sn5 3.005919 1_554
Nb1 Zr5 3.477647 1_565
Nb1 Zr3 3.477647 1_454
Nb1 Zr0 3.477652 1_555
Nb1 Zr1 3.477652 1_554
Nb1 Zr4 3.477654 1_554
Nb1 Zr2 3.477655 1_555
Nb2 Sn0 3.005911 1_555
Nb2 Sn4 3.005911 1_554
Nb2 Sn1 3.005914 1_544
Nb2 Sn3 3.005914 1_655
Nb2 Sn5 3.005919 1_554
Nb2 Sn2 3.005919 1_555
Nb2 Zr1 3.477647 1_544
Nb2 Zr0 3.477647 1_655
Nb2 Zr3 3.477652 1_554
Nb2 Zr5 3.477652 1_555
Nb2 Zr2 3.477654 1_555
Nb2 Zr4 3.477655 1_554
Nb3 Sn1 3.005911 1_555
Nb3 Sn3 3.005911 1_555
Nb3 Sn0 3.005914 1_565
Nb3 Sn4 3.005914 1_455
Nb3 Sn2 3.005919 1_555
Nb3 Sn5 3.005919 1_555
Nb3 Zr5 3.477647 1_565
Nb3 Zr3 3.477647 1_455
Nb3 Zr0 3.477652 1_555
Nb3 Zr1 3.477652 1_555
Nb3 Zr4 3.477654 1_555
Nb3 Zr2 3.477655 1_555
Ga0 Zr0 2.707088 1_555
Ga0 Zr3 2.707088 1_444
Ga0 Zr5 2.707088 1_555
Ga0 Zr1 2.707088 1_444
Ga0 Zr4 2.707088 1_554
Ga0 Zr2 2.707088 1_445
Ga1 Zr0 2.707088 1_555
Ga1 Zr3 2.707088 1_445
Ga1 Zr5 2.707088 1_555
Ga1 Zr1 2.707088 1_445
Ga1 Zr4 2.707088 1_555
Ga1 Zr2 2.707088 1_445
Sn0 Zr5 2.917639 1_555
Sn0 Zr2 2.961565 1_545
Sn0 Zr0 2.961565 1_655
Sn0 Zr1 3.057293 1_545
Sn0 Zr1 3.057293 1_544
Sn1 Zr1 2.917639 1_555
Sn1 Zr4 2.961565 1_565
Sn1 Zr3 2.961565 1_455
Sn1 Zr5 3.057293 1_566
Sn1 Zr5 3.057293 1_565
Sn2 Zr2 2.917639 1_555
Sn2 Zr5 2.961565 1_555
Sn2 Zr0 2.961565 1_555
Sn2 Zr4 3.057293 1_555
Sn2 Zr4 3.057293 1_554
Sn3 Zr0 2.917639 1_555
Sn3 Zr2 2.961565 1_455
Sn3 Zr5 2.961565 1_565
Sn3 Zr3 3.057293 1_455
Sn3 Zr3 3.057293 1_454
Sn4 Zr3 2.917639 1_555
Sn4 Zr4 2.961565 1_655
Sn4 Zr1 2.961565 1_545
Sn4 Zr0 3.057293 1_655
Sn4 Zr0 3.057293 1_656
Sn5 Zr4 2.917639 1_555
Sn5 Zr1 2.961565 1_555
Sn5 Zr3 2.961565 1_555
Sn5 Zr2 3.057293 1_556
Sn5 Zr2 3.057293 1_555
