# generated using pymatgen
data_Zr2NiRh5C
_symmetry_space_group_name_H-M   'P 1'
_cell_length_a   5.59696050
_cell_length_b   5.59696080
_cell_length_c   5.65271517
_cell_angle_alpha   59.66992979
_cell_angle_beta   59.66992799
_cell_angle_gamma   60.66014973
_symmetry_Int_Tables_number   1
_chemical_formula_structural   Zr2NiRh5C
_chemical_formula_sum   'Zr2 Ni1 Rh5 C1'
_cell_volume   125.18709648
_cell_formula_units_Z   1
loop_
 _symmetry_equiv_pos_site_id
 _symmetry_equiv_pos_as_xyz
  1  'x, y, z'
loop_
 _atom_site_type_symbol
 _atom_site_label
 _atom_site_symmetry_multiplicity
 _atom_site_fract_x
 _atom_site_fract_y
 _atom_site_fract_z
 _atom_site_occupancy
  Zr  Zr0  1  0.25049607  0.25049607  0.24950393  1
  Zr  Zr1  1  0.75049607  0.75049607  0.74950393  1
  Ni  Ni0  1  0.75016636  0.75016636  0.24983264  1
  Rh  Rh0  1  0.75302541  0.24424241  0.24697359  1
  Rh  Rh1  1  0.24424241  0.75302541  0.24697358  1
  Rh  Rh2  1  0.24663563  0.24663563  0.75336337  1
  Rh  Rh3  1  0.75302541  0.24424241  0.75575659  1
  Rh  Rh4  1  0.24424241  0.75302541  0.75575659  1
  C  C0  1  0.50766722  0.50766722  0.49233278  1
loop_
_geom_bond_atom_site_label_1
_geom_bond_atom_site_label_2
_geom_bond_distance
_geom_bond_site_symmetry_2
Ni0 Zr1 2.826353 1_554
Ni0 Zr0 2.826359 1_655
Ni0 Zr0 2.826359 1_565
Ni0 Zr1 2.826364 1_555
Rh0 Zr0 2.788504 1_555
Rh0 Zr1 2.788510 1_545
Rh0 Zr1 2.808930 1_554
Rh0 Zr0 2.808936 1_655
Rh1 Zr0 2.788504 1_555
Rh1 Zr1 2.788510 1_455
Rh1 Zr1 2.808930 1_554
Rh1 Zr0 2.808936 1_565
Rh2 Zr0 2.826514 1_555
Rh2 Zr1 2.826519 1_545
Rh2 Zr1 2.826519 1_455
Rh2 Zr0 2.826525 1_556
Rh3 Zr1 2.788504 1_545
Rh3 Zr0 2.788510 1_556
Rh3 Zr0 2.808930 1_655
Rh3 Zr1 2.808936 1_555
Rh4 Zr1 2.788504 1_455
Rh4 Zr0 2.788510 1_556
Rh4 Zr0 2.808930 1_565
Rh4 Zr1 2.808936 1_555
C0 Ni0 1.900140 1_555
C0 Rh4 2.034870 1_555
C0 Rh3 2.034870 1_555
C0 Rh1 2.034878 1_555
C0 Rh0 2.034878 1_555
C0 Rh2 2.045354 1_555
