# generated using pymatgen
data_MnBe7Al3Ni
_symmetry_space_group_name_H-M   'P 1'
_cell_length_a   4.32140609
_cell_length_b   4.32140519
_cell_length_c   7.18683281
_cell_angle_alpha   90.00000000
_cell_angle_beta   90.00000000
_cell_angle_gamma   119.99999930
_symmetry_Int_Tables_number   1
_chemical_formula_structural   MnBe7Al3Ni
_chemical_formula_sum   'Mn1 Be7 Al3 Ni1'
_cell_volume   116.23000195
_cell_formula_units_Z   1
loop_
 _symmetry_equiv_pos_site_id
 _symmetry_equiv_pos_as_xyz
  1  'x, y, z'
loop_
 _atom_site_type_symbol
 _atom_site_label
 _atom_site_symmetry_multiplicity
 _atom_site_fract_x
 _atom_site_fract_y
 _atom_site_fract_z
 _atom_site_occupancy
  Mn  Mn0  1  0.33333300  0.66666700  0.45352441  1
  Be  Be0  1  0.00000000  0.00000000  0.49492435  1
  Be  Be1  1  0.83481146  0.66962393  0.25858356  1
  Be  Be2  1  0.16865129  0.83134871  0.73728806  1
  Be  Be3  1  0.66269742  0.83134871  0.73728806  1
  Be  Be4  1  0.33037607  0.16518854  0.25858356  1
  Be  Be5  1  0.83481146  0.16518854  0.25858356  1
  Be  Be6  1  0.16865129  0.33730258  0.73728806  1
  Al  Al0  1  0.33333300  0.66666700  0.08779442  1
  Al  Al1  1  0.66666700  0.33333300  0.54259160  1
  Al  Al2  1  0.66666700  0.33333300  0.94250604  1
  Ni  Ni0  1  0.00000000  0.00000000  0.99104532  1
loop_
_geom_bond_atom_site_label_1
_geom_bond_atom_site_label_2
_geom_bond_distance
_geom_bond_site_symmetry_2
Be0 Be1 2.100896 1_445
Be0 Be4 2.100897 1_555
Be0 Be5 2.100899 1_455
Be0 Be6 2.151153 1_555
Be0 Be2 2.151153 1_545
Be0 Be3 2.151153 1_445
Be0 Mn0 2.512641 1_545
Be0 Mn0 2.512644 1_555
Be0 Mn0 2.512645 1_445
Be1 Be5 2.141535 1_565
Be1 Be4 2.141536 1_665
Be1 Be5 2.179870 1_555
Be1 Be4 2.179870 1_555
Be1 Ni0 2.285979 1_664
Be1 Mn0 2.575186 1_655
Be1 Mn0 2.575186 1_555
Be2 Ni0 2.217976 1_565
Be2 Mn0 2.382931 1_555
Be3 Ni0 2.217976 1_665
Be3 Mn0 2.382933 1_555
Be4 Be5 2.141536 1_455
Be4 Be5 2.179870 1_555
Be4 Ni0 2.285979 1_554
Be4 Mn0 2.575185 1_555
Be4 Mn0 2.575185 1_545
Be5 Ni0 2.285981 1_654
Be5 Mn0 2.575186 1_655
Be5 Mn0 2.575186 1_545
Be6 Ni0 2.217976 1_555
Be6 Mn0 2.382933 1_555
Al0 Be4 2.485025 1_555
Al0 Be4 2.485025 1_565
Al0 Be5 2.485025 1_455
Al0 Be5 2.485025 1_565
Al0 Be1 2.485026 1_455
Al0 Be1 2.485026 1_555
Al0 Ni0 2.590040 1_564
Al0 Ni0 2.590043 1_554
Al0 Ni0 2.590044 1_664
Al0 Mn0 2.628440 1_555
Al0 Al2 2.704646 1_564
Al0 Al2 2.704647 1_454
Al0 Al2 2.704654 1_554
Al0 Be2 2.804439 1_554
Al0 Be6 2.804441 1_554
Al0 Be3 2.804441 1_554
Al1 Be5 2.397936 1_555
Al1 Be1 2.397940 1_555
Al1 Be4 2.397940 1_555
Al1 Be0 2.518372 1_655
Al1 Be0 2.518375 1_665
Al1 Be0 2.518376 1_555
Al1 Be3 2.574247 1_545
Al1 Be6 2.574248 1_655
Al1 Be2 2.574249 1_545
Al1 Be2 2.574249 1_655
Al1 Be3 2.574251 1_555
Al1 Be6 2.574251 1_555
Al1 Mn0 2.575767 1_545
Al1 Mn0 2.575768 1_655
Al1 Mn0 2.575775 1_555
Al2 Ni0 2.519232 1_655
Al2 Ni0 2.519235 1_665
Al2 Ni0 2.519236 1_555
Al2 Be5 2.596937 1_556
Al2 Be1 2.596941 1_556
Al2 Be4 2.596941 1_556
