# generated using pymatgen
data_SnHg3(Pt2O7)2
_symmetry_space_group_name_H-M   'P 1'
_cell_length_a   7.13859236
_cell_length_b   7.23332884
_cell_length_c   7.13853068
_cell_angle_alpha   60.43169311
_cell_angle_beta   59.99981736
_cell_angle_gamma   60.43224946
_symmetry_Int_Tables_number   1
_chemical_formula_structural   SnHg3(Pt2O7)2
_chemical_formula_sum   'Sn1 Hg3 Pt4 O14'
_cell_volume   262.33062122
_cell_formula_units_Z   1
loop_
 _symmetry_equiv_pos_site_id
 _symmetry_equiv_pos_as_xyz
  1  'x, y, z'
loop_
 _atom_site_type_symbol
 _atom_site_label
 _atom_site_symmetry_multiplicity
 _atom_site_fract_x
 _atom_site_fract_y
 _atom_site_fract_z
 _atom_site_occupancy
  Sn  Sn0  1  0.12500000  0.62500000  0.12500000  1
  Hg  Hg0  1  0.12500000  0.12500000  0.12500000  1
  Hg  Hg1  1  0.62500000  0.12500000  0.12500000  1
  Hg  Hg2  1  0.12500000  0.12500000  0.62500000  1
  Pt  Pt0  1  0.62500000  0.62500000  0.12500000  1
  Pt  Pt1  1  0.62500000  0.62500000  0.62500000  1
  Pt  Pt2  1  0.62500000  0.12500000  0.62500000  1
  Pt  Pt3  1  0.12500000  0.62500000  0.62500000  1
  O  O0  1  0.70576954  0.29688845  0.29157366  1
  O  O1  1  0.70576869  0.29687492  0.70577130  1
  O  O2  1  0.00969198  0.97092406  0.00969660  1
  O  O3  1  0.28927081  0.69140262  0.28924250  1
  O  O4  1  0.73008527  0.69139995  0.28924275  1
  O  O5  1  0.96074800  0.55859858  0.51990641  1
  O  O6  1  0.28925200  0.69140142  0.73009359  1
  O  O7  1  0.24030802  0.27907594  0.24030340  1
  O  O8  1  0.96072919  0.55859738  0.96075750  1
  O  O9  1  0.54423131  0.95312508  0.54422870  1
  O  O10  1  0.51991473  0.55860005  0.96075725  1
  O  O11  1  0.95841377  0.95312890  0.54422679  1
  O  O12  1  0.54423046  0.95311155  0.95842634  1
  O  O13  1  0.29158623  0.29687110  0.70577321  1
loop_
_geom_bond_atom_site_label_1
_geom_bond_atom_site_label_2
_geom_bond_distance
_geom_bond_site_symmetry_2
Hg0 O7 2.255067 1_555
Hg0 O2 2.255067 1_545
Hg0 O11 2.478731 1_445
Hg0 O13 2.478731 1_554
Hg0 O12 2.478792 1_544
Hg0 O0 2.478792 1_455
Hg0 O8 2.588925 1_454
Hg0 O3 2.588925 1_545
Hg1 O2 2.255093 1_645
Hg1 O7 2.255093 1_555
Hg1 O9 2.478742 1_545
Hg1 O1 2.478742 1_554
Hg1 O0 2.478797 1_555
Hg1 O12 2.478797 1_544
Hg1 O10 2.588942 1_554
Hg1 O4 2.588942 1_545
Hg2 O2 2.255085 1_546
Hg2 O7 2.255085 1_555
Hg2 O13 2.478787 1_555
Hg2 O11 2.478787 1_445
Hg2 O9 2.478793 1_545
Hg2 O1 2.478793 1_455
Hg2 O5 2.588933 1_455
Hg2 O6 2.588933 1_545
O0 Pt0 1.982176 1_555
O0 Pt2 1.989478 1_555
O1 Pt1 1.982272 1_555
O1 Pt2 1.989432 1_555
O2 Sn0 2.056262 1_555
O3 Pt0 1.989714 1_555
O3 Pt3 1.989873 1_555
O3 Sn0 2.338165 1_555
O4 Pt0 1.989707 1_555
O4 Pt1 1.989873 1_555
O4 Sn0 2.338163 1_655
O5 Pt3 1.989823 1_655
O5 Pt1 1.989831 1_555
O5 Sn0 2.338083 1_655
O6 Pt3 1.989823 1_555
O6 Pt1 1.989831 1_555
O6 Sn0 2.338083 1_556
O7 Sn0 2.056262 1_555
O8 Pt0 1.989714 1_556
O8 Pt3 1.989873 1_655
O8 Sn0 2.338165 1_656
O9 Pt1 1.982272 1_555
O9 Pt2 1.989432 1_565
O10 Pt0 1.989707 1_556
O10 Pt1 1.989873 1_555
O10 Sn0 2.338163 1_556
O11 Pt3 1.982293 1_655
O11 Pt2 1.989420 1_565
O12 Pt0 1.982176 1_556
O12 Pt2 1.989478 1_565
O13 Pt3 1.982293 1_555
O13 Pt2 1.989420 1_555
