# generated using pymatgen
data_YZr2Al7Cu2
_symmetry_space_group_name_H-M   'P 1'
_cell_length_a   8.85150418
_cell_length_b   8.85150479
_cell_length_c   8.85150462
_cell_angle_alpha   34.87979982
_cell_angle_beta   34.87979401
_cell_angle_gamma   34.87979558
_symmetry_Int_Tables_number   1
_chemical_formula_structural   YZr2Al7Cu2
_chemical_formula_sum   'Y1 Zr2 Al7 Cu2'
_cell_volume   202.45569137
_cell_formula_units_Z   1
loop_
 _symmetry_equiv_pos_site_id
 _symmetry_equiv_pos_as_xyz
  1  'x, y, z'
loop_
 _atom_site_type_symbol
 _atom_site_label
 _atom_site_symmetry_multiplicity
 _atom_site_fract_x
 _atom_site_fract_y
 _atom_site_fract_z
 _atom_site_occupancy
  Y  Y0  1  0.00000000  0.00000000  0.00000000  1
  Zr  Zr0  1  0.85595978  0.85595978  0.85595978  1
  Zr  Zr1  1  0.14404022  0.14404022  0.14404022  1
  Al  Al0  1  0.41577735  0.41577735  0.92388521  1
  Al  Al1  1  0.92388521  0.41577735  0.41577735  1
  Al  Al2  1  0.41577735  0.92388521  0.41577735  1
  Al  Al3  1  0.50000000  0.50000000  0.50000000  1
  Al  Al4  1  0.58422265  0.07611479  0.58422265  1
  Al  Al5  1  0.07611479  0.58422265  0.58422265  1
  Al  Al6  1  0.58422265  0.58422265  0.07611479  1
  Cu  Cu0  1  0.66547699  0.66547699  0.66547699  1
  Cu  Cu1  1  0.33452301  0.33452301  0.33452301  1
loop_
_geom_bond_atom_site_label_1
_geom_bond_atom_site_label_2
_geom_bond_distance
_geom_bond_site_symmetry_2
Y0 Zr1 3.588572 1_555
Y0 Zr0 3.588572 1_444
Zr0 Zr1 3.264122 1_566
Zr0 Zr1 3.264122 1_665
Zr0 Zr1 3.264123 1_656
Al0 Cu0 2.535321 1_555
Al0 Cu1 2.552739 1_556
Al0 Al3 2.631071 1_555
Al0 Zr0 3.076415 1_455
Al0 Zr0 3.076415 1_545
Al0 Zr1 3.078920 1_556
Al1 Cu0 2.535321 1_555
Al1 Cu1 2.552739 1_655
Al1 Al3 2.631071 1_555
Al1 Zr0 3.076415 1_554
Al1 Zr0 3.076415 1_545
Al1 Zr1 3.078920 1_655
Al2 Cu0 2.535321 1_555
Al2 Cu1 2.552740 1_565
Al2 Al3 2.631071 1_555
Al2 Zr0 3.076415 1_455
Al2 Zr0 3.076415 1_554
Al2 Zr1 3.078920 1_565
Al3 Al5 2.631071 1_555
Al3 Al6 2.631071 1_555
Al3 Al4 2.631071 1_555
Al3 Zr0 3.114674 1_455
Al3 Zr1 3.114674 1_655
Al3 Zr0 3.114674 1_554
Al3 Zr1 3.114674 1_556
Al3 Zr0 3.114674 1_545
Al3 Zr1 3.114674 1_565
Al4 Cu1 2.535321 1_555
Al4 Cu0 2.552740 1_545
Al4 Zr1 3.076415 1_655
Al4 Zr1 3.076415 1_556
Al4 Zr0 3.078920 1_545
Al5 Cu1 2.535321 1_555
Al5 Cu0 2.552739 1_455
Al5 Zr1 3.076415 1_556
Al5 Zr1 3.076415 1_565
Al5 Zr0 3.078920 1_455
Al6 Cu1 2.535321 1_555
Al6 Cu0 2.552739 1_554
Al6 Zr1 3.076415 1_655
Al6 Zr1 3.076415 1_565
Al6 Zr0 3.078920 1_554
Cu0 Y0 3.063381 1_566
Cu0 Y0 3.063382 1_665
Cu0 Y0 3.063382 1_656
Cu1 Y0 3.063381 1_655
Cu1 Y0 3.063382 1_556
Cu1 Y0 3.063382 1_565
