# generated using pymatgen
data_Li3Hg(Pd3Pb)2
_symmetry_space_group_name_H-M   'P 1'
_cell_length_a   4.79785839
_cell_length_b   5.85718366
_cell_length_c   14.37437965
_cell_angle_alpha   89.99940194
_cell_angle_beta   104.82020629
_cell_angle_gamma   89.99970666
_symmetry_Int_Tables_number   1
_chemical_formula_structural   Li3Hg(Pd3Pb)2
_chemical_formula_sum   'Li6 Hg2 Pd12 Pb4'
_cell_volume   390.50988476
_cell_formula_units_Z   2
loop_
 _symmetry_equiv_pos_site_id
 _symmetry_equiv_pos_as_xyz
  1  'x, y, z'
loop_
 _atom_site_type_symbol
 _atom_site_label
 _atom_site_symmetry_multiplicity
 _atom_site_fract_x
 _atom_site_fract_y
 _atom_site_fract_z
 _atom_site_occupancy
  Li  Li0  1  0.98160030  0.99999580  0.99355888  1
  Li  Li1  1  0.49562866  0.49999531  0.16480798  1
  Li  Li2  1  0.00443833  0.00000156  0.33513012  1
  Li  Li3  1  0.51837716  0.50000321  0.50646238  1
  Li  Li4  1  0.01918506  0.99999429  0.67140605  1
  Li  Li5  1  0.48076944  0.50000203  0.82865145  1
  Hg  Hg0  1  0.01085831  0.50001880  0.66813779  1
  Hg  Hg1  1  0.48910488  0.99997685  0.83177986  1
  Pd  Pd0  1  0.49048921  0.24964886  0.00041654  1
  Pd  Pd1  1  0.49047830  0.75034527  0.00041343  1
  Pd  Pd2  1  0.99901429  0.25096592  0.16606361  1
  Pd  Pd3  1  0.99900520  0.74902920  0.16606578  1
  Pd  Pd4  1  0.50104982  0.24903501  0.33397685  1
  Pd  Pd5  1  0.50104566  0.75097575  0.33397668  1
  Pd  Pd6  1  0.00946995  0.25039370  0.49958196  1
  Pd  Pd7  1  0.00947214  0.74961072  0.49958688  1
  Pd  Pd8  1  0.51027900  0.25124748  0.66647727  1
  Pd  Pd9  1  0.51027584  0.74874307  0.66648235  1
  Pd  Pd10  1  0.98970395  0.24873014  0.83347104  1
  Pd  Pd11  1  0.98968882  0.75128295  0.83346343  1
  Pb  Pb0  1  0.98687566  0.50000609  0.99650219  1
  Pb  Pb1  1  0.49719352  0.99998310  0.16580550  1
  Pb  Pb2  1  0.00292791  0.50001608  0.33430042  1
  Pb  Pb3  1  0.51308660  0.99999281  0.50348357  1
loop_
_geom_bond_atom_site_label_1
_geom_bond_atom_site_label_2
_geom_bond_distance
_geom_bond_site_symmetry_2
Li0 Pd10 2.732228 1_565
Li0 Pd11 2.732263 1_555
Li0 Pd0 2.796209 1_566
Li0 Pd1 2.796246 1_556
Li0 Pd1 2.825919 1_656
Li0 Pd0 2.825977 1_666
Li0 Pd3 2.865406 1_556
Li0 Pd2 2.865408 1_566
Li0 Pb0 2.928852 1_555
Li0 Pb0 2.928974 1_565
Li0 Pb1 3.019333 1_656
Li1 Pd0 2.775765 1_555
Li1 Pd1 2.775776 1_555
Li1 Pd2 2.797695 1_455
Li1 Pd3 2.797740 1_455
Li1 Pd3 2.817534 1_555
Li1 Pd2 2.817551 1_555
Li1 Pd4 2.835853 1_555
Li1 Pd5 2.835943 1_555
Li1 Pb1 2.928556 1_555
Li1 Pb1 2.928698 1_545
Li1 Pb0 2.964808 1_454
Li1 Pb2 2.970909 1_655
Li2 Pd6 2.776751 1_555
Li2 Pd7 2.776779 1_545
Li2 Pd5 2.797313 1_545
Li2 Pd4 2.797366 1_555
Li2 Pd4 2.817889 1_455
Li2 Pd5 2.817895 1_445
Li2 Pd2 2.834605 1_455
Li2 Pd3 2.834620 1_445
Li2 Pb2 2.928533 1_545
Li2 Pb2 2.928702 1_555
Li2 Pb3 2.964914 1_545
Li2 Pb1 2.969278 1_445
Li3 Pd8 2.731402 1_555
Li3 Pd9 2.731443 1_555
Li3 Pd7 2.796080 1_655
Li3 Pd6 2.796083 1_655
Li3 Pd7 2.825843 1_555
Li3 Pd6 2.825859 1_555
Li3 Pd5 2.865230 1_555
Li3 Pd4 2.865246 1_555
Li3 Pb3 2.928858 1_555
Li3 Pb3 2.928981 1_545
Li3 Pb2 3.018169 1_555
Li4 Pd11 2.781577 1_455
Li4 Pd10 2.781751 1_465
Li4 Pd9 2.794202 1_555
Li4 Pd8 2.794251 1_565
Li4 Pd8 2.836177 1_465
Li4 Pd9 2.836211 1_455
Li4 Pd7 2.862516 1_555
Li4 Pd6 2.862595 1_565
Li4 Pb3 2.953650 1_455
Li5 Pd9 2.783047 1_555
Li5 Pd8 2.783179 1_555
Li5 Pd10 2.793815 1_455
Li5 Pd11 2.793866 1_455
Li5 Pd10 2.836657 1_555
Li5 Pd11 2.836657 1_555
Li5 Pd1 2.861693 1_556
Li5 Pd0 2.861724 1_556
Li5 Pb0 2.953047 1_555
Hg0 Li5 2.783068 1_555
Hg0 Pd9 2.803909 1_455
Hg0 Pd8 2.804037 1_455
Hg0 Pd9 2.809549 1_555
Hg0 Pd8 2.809709 1_555
Hg0 Pd11 2.819096 1_455
Hg0 Pd10 2.819220 1_455
Hg0 Pd7 2.828237 1_555
Hg0 Pd6 2.828422 1_555
Hg0 Li3 2.859163 1_455
Hg0 Li4 2.928934 1_555
Hg0 Li4 2.929220 1_545
Hg1 Li4 2.781843 1_555
Hg1 Pd11 2.803737 1_555
Hg1 Pd10 2.803970 1_565
Hg1 Pd11 2.809543 1_455
Hg1 Pd10 2.809673 1_465
Hg1 Pd9 2.818660 1_555
Hg1 Pd8 2.818813 1_565
Hg1 Pd1 2.829388 1_556
Hg1 Pd0 2.829563 1_566
Hg1 Li0 2.860101 1_555
Hg1 Li5 2.928906 1_555
Hg1 Li5 2.929200 1_565
Pd0 Pd1 2.924513 1_545
Pd0 Pd10 2.929517 1_454
Pd0 Pd1 2.932671 1_555
Pd0 Pd2 2.941157 1_555
Pd1 Pd11 2.929569 1_454
Pd1 Pd3 2.941208 1_555
Pd2 Pd3 2.917248 1_555
Pd2 Pd3 2.939936 1_545
Pd2 Pd4 2.941680 1_655
Pd3 Pd5 2.941675 1_655
Pd4 Pd5 2.917225 1_545
Pd4 Pd5 2.939959 1_555
Pd4 Pd6 2.940484 1_655
Pd5 Pd7 2.940547 1_655
Pd6 Pd7 2.924006 1_555
Pd6 Pd8 2.929147 1_555
Pd6 Pd7 2.933178 1_545
Pd7 Pd9 2.929132 1_555
Pd8 Pd9 2.913923 1_555
Pd8 Pd9 2.943261 1_545
Pd10 Pd8 2.868556 1_555
Pd10 Pd11 2.913640 1_545
Pd10 Pd11 2.943544 1_555
Pd11 Pd9 2.868408 1_555
Pb0 Pd10 2.770287 1_555
Pb0 Pd11 2.770340 1_555
Pb0 Pd1 2.809598 1_556
Pb0 Pd0 2.809631 1_556
Pb0 Pd1 2.814566 1_656
Pb0 Pd0 2.814643 1_656
Pb0 Pd2 2.828260 1_556
Pb0 Pd3 2.828271 1_556
Pb1 Pd1 2.784233 1_555
Pb1 Pd0 2.784265 1_565
Pb1 Pd3 2.806851 1_455
Pb1 Pd2 2.806883 1_465
Pb1 Pd5 2.819254 1_555
Pb1 Pd4 2.819413 1_565
Pb1 Pd3 2.820030 1_555
Pb1 Pd2 2.820175 1_565
Pb2 Pd7 2.782978 1_555
Pb2 Pd6 2.782979 1_555
Pb2 Pd5 2.806781 1_555
Pb2 Pd4 2.806850 1_555
Pb2 Pd3 2.819980 1_455
Pb2 Pd5 2.820138 1_455
Pb2 Pd2 2.820154 1_455
Pb2 Pd4 2.820200 1_455
Pb3 Pd8 2.769743 1_565
Pb3 Pd9 2.769766 1_555
Pb3 Pd7 2.809631 1_655
Pb3 Pd6 2.809709 1_665
Pb3 Pd7 2.814787 1_555
Pb3 Pd6 2.814826 1_565
Pb3 Pd5 2.827639 1_555
Pb3 Pd4 2.827691 1_565
