# generated using pymatgen
data_Sc3Zn3C
_symmetry_space_group_name_H-M   'P 1'
_cell_length_a   8.58767734
_cell_length_b   8.58767750
_cell_length_c   8.58767617
_cell_angle_alpha   60.00000134
_cell_angle_beta   60.00000072
_cell_angle_gamma   59.99999892
_symmetry_Int_Tables_number   1
_chemical_formula_structural   Sc3Zn3C
_chemical_formula_sum   'Sc12 Zn12 C4'
_cell_volume   447.82889353
_cell_formula_units_Z   4
loop_
 _symmetry_equiv_pos_site_id
 _symmetry_equiv_pos_as_xyz
  1  'x, y, z'
loop_
 _atom_site_type_symbol
 _atom_site_label
 _atom_site_symmetry_multiplicity
 _atom_site_fract_x
 _atom_site_fract_y
 _atom_site_fract_z
 _atom_site_occupancy
  Sc  Sc0  1  0.44409539  0.44409539  0.05590461  1
  Sc  Sc1  1  0.05590461  0.44409539  0.05590461  1
  Sc  Sc2  1  0.44409539  0.05590461  0.05590461  1
  Sc  Sc3  1  0.05590461  0.05590461  0.44409539  1
  Sc  Sc4  1  0.44409539  0.05590461  0.44409539  1
  Sc  Sc5  1  0.05590461  0.44409539  0.44409539  1
  Sc  Sc6  1  0.80590461  0.80590461  0.19409539  1
  Sc  Sc7  1  0.19409539  0.80590461  0.19409539  1
  Sc  Sc8  1  0.80590461  0.19409539  0.19409539  1
  Sc  Sc9  1  0.19409539  0.19409539  0.80590461  1
  Sc  Sc10  1  0.80590461  0.19409539  0.80590461  1
  Sc  Sc11  1  0.19409539  0.80590461  0.80590461  1
  Zn  Zn0  1  0.82848355  0.82848355  0.51454934  1
  Zn  Zn1  1  0.82848355  0.51454934  0.82848355  1
  Zn  Zn2  1  0.51454934  0.82848355  0.82848355  1
  Zn  Zn3  1  0.82848355  0.82848355  0.82848355  1
  Zn  Zn4  1  0.42151645  0.42151645  0.73545066  1
  Zn  Zn5  1  0.42151645  0.73545066  0.42151645  1
  Zn  Zn6  1  0.73545066  0.42151645  0.42151645  1
  Zn  Zn7  1  0.42151645  0.42151645  0.42151645  1
  Zn  Zn8  1  0.62500000  0.62500000  0.12500000  1
  Zn  Zn9  1  0.62500000  0.12500000  0.62500000  1
  Zn  Zn10  1  0.12500000  0.62500000  0.62500000  1
  Zn  Zn11  1  0.62500000  0.62500000  0.62500000  1
  C  C0  1  0.12500000  0.12500000  0.62500000  1
  C  C1  1  0.12500000  0.62500000  0.12500000  1
  C  C2  1  0.62500000  0.12500000  0.12500000  1
  C  C3  1  0.12500000  0.12500000  0.12500000  1
loop_
_geom_bond_atom_site_label_1
_geom_bond_atom_site_label_2
_geom_bond_distance
_geom_bond_site_symmetry_2
Sc0 Zn7 2.958591 1_555
Sc0 Zn4 2.958591 1_554
Sc0 Zn11 3.071856 1_554
Sc0 Zn8 3.071856 1_555
Sc0 Zn1 3.073373 1_554
Sc0 Zn2 3.073373 1_554
Sc1 Zn6 2.958591 1_455
Sc1 Zn4 2.958591 1_554
Sc1 Zn10 3.071856 1_554
Sc1 Zn8 3.071856 1_455
Sc1 Zn1 3.073373 1_454
Sc1 Zn3 3.073373 1_454
Sc2 Zn5 2.958591 1_545
Sc2 Zn4 2.958591 1_554
Sc2 Zn9 3.071856 1_554
Sc2 Zn8 3.071856 1_545
Sc2 Zn2 3.073373 1_544
Sc2 Zn3 3.073373 1_544
Sc3 Zn5 2.958591 1_545
Sc3 Zn6 2.958591 1_455
Sc3 Zn9 3.071856 1_455
Sc3 Zn10 3.071856 1_545
Sc3 Zn3 3.073373 1_445
Sc3 Zn0 3.073373 1_445
Sc4 Zn5 2.958591 1_545
Sc4 Zn7 2.958591 1_555
Sc4 Zn9 3.071856 1_555
Sc4 Zn11 3.071856 1_545
Sc4 Zn2 3.073373 1_545
Sc4 Zn0 3.073373 1_545
Sc5 Zn6 2.958591 1_455
Sc5 Zn7 2.958591 1_555
Sc5 Zn10 3.071856 1_555
Sc5 Zn11 3.071856 1_455
Sc5 Zn1 3.073373 1_455
Sc5 Zn0 3.073373 1_455
Sc6 Zn3 2.958591 1_554
Sc6 Zn0 2.958591 1_555
Sc6 Zn11 3.071856 1_555
Sc6 Zn8 3.071856 1_555
Sc6 Zn5 3.073373 1_555
Sc6 Zn6 3.073373 1_555
Sc7 Zn2 2.958591 1_554
Sc7 Zn0 2.958591 1_455
Sc7 Zn10 3.071856 1_555
Sc7 Zn8 3.071856 1_555
Sc7 Zn5 3.073373 1_555
Sc7 Zn7 3.073373 1_555
Sc8 Zn1 2.958591 1_554
Sc8 Zn0 2.958591 1_545
Sc8 Zn9 3.071856 1_555
Sc8 Zn8 3.071856 1_555
Sc8 Zn6 3.073373 1_555
Sc8 Zn7 3.073373 1_555
Sc9 Zn1 2.958591 1_455
Sc9 Zn2 2.958591 1_545
Sc9 Zn9 3.071856 1_555
Sc9 Zn10 3.071856 1_555
Sc9 Zn7 3.073373 1_555
Sc9 Zn4 3.073373 1_555
Sc10 Zn1 2.958591 1_555
Sc10 Zn3 2.958591 1_545
Sc10 Zn9 3.071856 1_555
Sc10 Zn11 3.071856 1_555
Sc10 Zn6 3.073373 1_555
Sc10 Zn4 3.073373 1_555
Sc11 Zn2 2.958591 1_555
Sc11 Zn3 2.958591 1_455
Sc11 Zn10 3.071856 1_555
Sc11 Zn11 3.071856 1_555
Sc11 Zn5 3.073373 1_555
Sc11 Zn4 3.073373 1_555
Zn0 Zn10 2.597204 1_655
Zn0 Zn9 2.597204 1_565
Zn0 Zn11 2.597204 1_555
Zn0 Zn3 2.695965 1_555
Zn0 Zn2 2.695966 1_555
Zn0 Zn1 2.695966 1_555
Zn1 Zn8 2.597204 1_556
Zn1 Zn11 2.597204 1_555
Zn1 Zn10 2.597204 1_655
Zn1 Zn2 2.695966 1_555
Zn1 Zn3 2.695966 1_555
Zn2 Zn8 2.597204 1_556
Zn2 Zn9 2.597204 1_565
Zn2 Zn3 2.695966 1_555
Zn3 Zn9 2.597204 1_565
Zn3 Zn8 2.597204 1_556
Zn4 Zn9 2.597204 1_555
Zn4 Zn7 2.695965 1_555
Zn4 Zn6 2.695966 1_555
Zn4 Zn5 2.695966 1_555
Zn5 Zn8 2.597204 1_555
Zn5 Zn6 2.695966 1_555
Zn5 Zn7 2.695966 1_555
Zn6 Zn8 2.597204 1_555
Zn6 Zn9 2.597204 1_555
Zn6 Zn7 2.695966 1_555
Zn7 Zn9 2.597204 1_555
Zn7 Zn8 2.597204 1_555
Zn10 Zn3 2.597204 1_455
Zn10 Zn7 2.597204 1_555
Zn10 Zn4 2.597204 1_555
Zn10 Zn5 2.597204 1_555
Zn11 Zn5 2.597204 1_555
Zn11 Zn2 2.597204 1_555
Zn11 Zn6 2.597204 1_555
Zn11 Zn4 2.597204 1_555
C0 Sc9 2.305089 1_555
C0 Sc3 2.305089 1_555
C0 Sc4 2.305089 1_555
C0 Sc10 2.305089 1_455
C0 Sc5 2.305089 1_555
C0 Sc11 2.305089 1_545
C1 Sc5 2.305089 1_555
C1 Sc11 2.305089 1_554
C1 Sc7 2.305089 1_555
C1 Sc1 2.305089 1_555
C1 Sc0 2.305089 1_555
C1 Sc6 2.305089 1_455
C2 Sc10 2.305089 1_554
C2 Sc4 2.305089 1_555
C2 Sc8 2.305089 1_555
C2 Sc2 2.305089 1_555
C2 Sc0 2.305089 1_555
C2 Sc6 2.305089 1_545
C3 Sc3 2.305089 1_555
C3 Sc9 2.305089 1_554
C3 Sc2 2.305089 1_555
C3 Sc8 2.305089 1_455
C3 Sc1 2.305089 1_555
C3 Sc7 2.305089 1_545
