# generated using pymatgen
data_SrAg
_symmetry_space_group_name_H-M   'P 1'
_cell_length_a   4.72537706
_cell_length_b   6.37293143
_cell_length_c   16.83590654
_cell_angle_alpha   90.00000000
_cell_angle_beta   90.00000000
_cell_angle_gamma   90.00000000
_symmetry_Int_Tables_number   1
_chemical_formula_structural   SrAg
_chemical_formula_sum   'Sr8 Ag8'
_cell_volume   507.00497458
_cell_formula_units_Z   8
loop_
 _symmetry_equiv_pos_site_id
 _symmetry_equiv_pos_as_xyz
  1  'x, y, z'
loop_
 _atom_site_type_symbol
 _atom_site_label
 _atom_site_symmetry_multiplicity
 _atom_site_fract_x
 _atom_site_fract_y
 _atom_site_fract_z
 _atom_site_occupancy
  Sr  Sr0  1  0.25000000  0.75429967  0.53453345  1
  Sr  Sr1  1  0.75000000  0.24570033  0.46546655  1
  Sr  Sr2  1  0.75000000  0.25429967  0.96546655  1
  Sr  Sr3  1  0.25000000  0.74570033  0.03453345  1
  Sr  Sr4  1  0.25000000  0.98967081  0.78506386  1
  Sr  Sr5  1  0.75000000  0.01032919  0.21493614  1
  Sr  Sr6  1  0.75000000  0.48967081  0.71493614  1
  Sr  Sr7  1  0.25000000  0.51032919  0.28506386  1
  Ag  Ag0  1  0.25000000  0.24097992  0.60781128  1
  Ag  Ag1  1  0.75000000  0.75902008  0.39218872  1
  Ag  Ag2  1  0.75000000  0.74097992  0.89218872  1
  Ag  Ag3  1  0.25000000  0.25902008  0.10781128  1
  Ag  Ag4  1  0.25000000  0.50038226  0.85739484  1
  Ag  Ag5  1  0.75000000  0.49961774  0.14260516  1
  Ag  Ag6  1  0.75000000  1.00038226  0.64260516  1
  Ag  Ag7  1  0.25000000  -0.00038226  0.35739484  1
loop_
_geom_bond_atom_site_label_1
_geom_bond_atom_site_label_2
_geom_bond_distance
_geom_bond_site_symmetry_2
Ag0 Ag6 2.876889 1_545
Ag0 Ag6 2.876889 1_445
Ag0 Sr0 3.337935 1_545
Ag0 Sr1 3.365476 1_455
Ag0 Sr1 3.365476 1_555
Ag0 Sr6 3.368523 1_455
Ag0 Sr6 3.368523 1_555
Ag0 Sr4 3.386819 1_545
Ag0 Sr0 3.496248 1_555
Ag1 Ag7 2.876889 1_565
Ag1 Ag7 2.876889 1_665
Ag1 Sr1 3.337935 1_565
Ag1 Sr0 3.365476 1_555
Ag1 Sr0 3.365476 1_655
Ag1 Sr7 3.368523 1_555
Ag1 Sr7 3.368523 1_655
Ag1 Sr5 3.386819 1_565
Ag1 Sr1 3.496248 1_555
Ag2 Ag4 2.876889 1_555
Ag2 Ag4 2.876889 1_655
Ag2 Sr2 3.337935 1_555
Ag2 Sr3 3.365476 1_656
Ag2 Sr3 3.365476 1_556
Ag2 Sr4 3.368523 1_655
Ag2 Sr4 3.368523 1_555
Ag2 Sr6 3.386819 1_555
Ag2 Sr2 3.496248 1_565
Ag3 Ag5 2.876889 1_455
Ag3 Ag5 2.876889 1_555
Ag3 Sr3 3.337935 1_555
Ag3 Sr2 3.365476 1_554
Ag3 Sr2 3.365476 1_454
Ag3 Sr5 3.368523 1_455
Ag3 Sr5 3.368523 1_555
Ag3 Sr7 3.386819 1_555
Ag3 Sr3 3.496248 1_545
Ag4 Sr4 3.347554 1_555
Ag4 Sr3 3.367232 1_556
Ag4 Sr6 3.367400 1_455
Ag4 Sr6 3.367400 1_555
Ag4 Sr2 3.369315 1_455
Ag4 Sr2 3.369315 1_555
Ag4 Sr4 3.475082 1_545
Ag5 Sr5 3.347554 1_555
Ag5 Sr2 3.367232 1_554
Ag5 Sr7 3.367400 1_655
Ag5 Sr7 3.367400 1_555
Ag5 Sr3 3.369315 1_555
Ag5 Sr3 3.369315 1_655
Ag5 Sr5 3.475082 1_565
Ag6 Sr6 3.347554 1_565
Ag6 Sr1 3.367232 1_565
Ag6 Sr4 3.367400 1_555
Ag6 Sr4 3.367400 1_655
Ag6 Sr0 3.369315 1_655
Ag6 Sr0 3.369315 1_555
Ag6 Sr6 3.475082 1_555
Ag7 Sr7 3.347554 1_545
Ag7 Sr0 3.367232 1_545
Ag7 Sr5 3.367400 1_555
Ag7 Sr5 3.367400 1_455
Ag7 Sr1 3.369315 1_455
Ag7 Sr1 3.369315 1_555
Ag7 Sr7 3.475082 1_555
