# generated using pymatgen
data_Y2MnBe2Rh5
_symmetry_space_group_name_H-M   'P 1'
_cell_length_a   19.27108344
_cell_length_b   19.27108344
_cell_length_c   6.40946526
_cell_angle_alpha   90.00000000
_cell_angle_beta   90.00000000
_cell_angle_gamma   90.00000000
_symmetry_Int_Tables_number   1
_chemical_formula_structural   Y2MnBe2Rh5
_chemical_formula_sum   'Y32 Mn16 Be32 Rh80'
_cell_volume   2380.31296227
_cell_formula_units_Z   16
loop_
 _symmetry_equiv_pos_site_id
 _symmetry_equiv_pos_as_xyz
  1  'x, y, z'
loop_
 _atom_site_type_symbol
 _atom_site_label
 _atom_site_symmetry_multiplicity
 _atom_site_fract_x
 _atom_site_fract_y
 _atom_site_fract_z
 _atom_site_occupancy
  Y  Y0_0  1  0.41148927  0.16148927  0.00000000  1
  Y  Y0_1  1  0.41148927  0.16148927  0.50000000  1
  Y  Y0_2  1  0.41148927  0.66148927  0.00000000  1
  Y  Y0_3  1  0.41148927  0.66148927  0.50000000  1
  Y  Y0_4  1  0.91148927  0.16148927  0.00000000  1
  Y  Y0_5  1  0.91148927  0.16148927  0.50000000  1
  Y  Y0_6  1  0.91148927  0.66148927  0.00000000  1
  Y  Y0_7  1  0.91148927  0.66148927  0.50000000  1
  Y  Y1_0  1  0.16148927  0.08851073  0.00000000  1
  Y  Y1_1  1  0.16148927  0.08851073  0.50000000  1
  Y  Y1_2  1  0.16148927  0.58851073  0.00000000  1
  Y  Y1_3  1  0.16148927  0.58851073  0.50000000  1
  Y  Y1_4  1  0.66148927  0.08851073  0.00000000  1
  Y  Y1_5  1  0.66148927  0.08851073  0.50000000  1
  Y  Y1_6  1  0.66148927  0.58851073  0.00000000  1
  Y  Y1_7  1  0.66148927  0.58851073  0.50000000  1
  Y  Y2_0  1  0.33851073  0.41148927  0.00000000  1
  Y  Y2_1  1  0.33851073  0.41148927  0.50000000  1
  Y  Y2_2  1  0.33851073  0.91148927  0.00000000  1
  Y  Y2_3  1  0.33851073  0.91148927  0.50000000  1
  Y  Y2_4  1  0.83851073  0.41148927  0.00000000  1
  Y  Y2_5  1  0.83851073  0.41148927  0.50000000  1
  Y  Y2_6  1  0.83851073  0.91148927  0.00000000  1
  Y  Y2_7  1  0.83851073  0.91148927  0.50000000  1
  Y  Y3_0  1  0.08851073  0.33851073  0.00000000  1
  Y  Y3_1  1  0.08851073  0.33851073  0.50000000  1
  Y  Y3_2  1  0.08851073  0.83851073  0.00000000  1
  Y  Y3_3  1  0.08851073  0.83851073  0.50000000  1
  Y  Y3_4  1  0.58851073  0.33851073  0.00000000  1
  Y  Y3_5  1  0.58851073  0.33851073  0.50000000  1
  Y  Y3_6  1  0.58851073  0.83851073  0.00000000  1
  Y  Y3_7  1  0.58851073  0.83851073  0.50000000  1
  Mn  Mn0_0  1  0.00000000  0.00000000  0.00000000  1
  Mn  Mn0_1  1  0.00000000  0.00000000  0.50000000  1
  Mn  Mn0_2  1  0.00000000  0.50000000  0.00000000  1
  Mn  Mn0_3  1  0.00000000  0.50000000  0.50000000  1
  Mn  Mn0_4  1  0.50000000  0.00000000  0.00000000  1
  Mn  Mn0_5  1  0.50000000  0.00000000  0.50000000  1
  Mn  Mn0_6  1  0.50000000  0.50000000  0.00000000  1
  Mn  Mn0_7  1  0.50000000  0.50000000  0.50000000  1
  Mn  Mn1_0  1  0.25000000  0.25000000  0.00000000  1
  Mn  Mn1_1  1  0.25000000  0.25000000  0.50000000  1
  Mn  Mn1_2  1  0.25000000  0.75000000  0.00000000  1
  Mn  Mn1_3  1  0.25000000  0.75000000  0.50000000  1
  Mn  Mn1_4  1  0.75000000  0.25000000  0.00000000  1
  Mn  Mn1_5  1  0.75000000  0.25000000  0.50000000  1
  Mn  Mn1_6  1  0.75000000  0.75000000  0.00000000  1
  Mn  Mn1_7  1  0.75000000  0.75000000  0.50000000  1
  Be  Be0_0  1  0.31082978  0.06082978  0.00000000  1
  Be  Be0_1  1  0.31082978  0.06082978  0.50000000  1
  Be  Be0_2  1  0.31082978  0.56082978  0.00000000  1
  Be  Be0_3  1  0.31082978  0.56082978  0.50000000  1
  Be  Be0_4  1  0.81082978  0.06082978  0.00000000  1
  Be  Be0_5  1  0.81082978  0.06082978  0.50000000  1
  Be  Be0_6  1  0.81082978  0.56082978  0.00000000  1
  Be  Be0_7  1  0.81082978  0.56082978  0.50000000  1
  Be  Be1_0  1  0.06082978  0.18917022  0.00000000  1
  Be  Be1_1  1  0.06082978  0.18917022  0.50000000  1
  Be  Be1_2  1  0.06082978  0.68917022  0.00000000  1
  Be  Be1_3  1  0.06082978  0.68917022  0.50000000  1
  Be  Be1_4  1  0.56082978  0.18917022  0.00000000  1
  Be  Be1_5  1  0.56082978  0.18917022  0.50000000  1
  Be  Be1_6  1  0.56082978  0.68917022  0.00000000  1
  Be  Be1_7  1  0.56082978  0.68917022  0.50000000  1
  Be  Be2_0  1  0.43917022  0.31082978  0.00000000  1
  Be  Be2_1  1  0.43917022  0.31082978  0.50000000  1
  Be  Be2_2  1  0.43917022  0.81082978  0.00000000  1
  Be  Be2_3  1  0.43917022  0.81082978  0.50000000  1
  Be  Be2_4  1  0.93917022  0.31082978  0.00000000  1
  Be  Be2_5  1  0.93917022  0.31082978  0.50000000  1
  Be  Be2_6  1  0.93917022  0.81082978  0.00000000  1
  Be  Be2_7  1  0.93917022  0.81082978  0.50000000  1
  Be  Be3_0  1  0.18917022  0.43917022  0.00000000  1
  Be  Be3_1  1  0.18917022  0.43917022  0.50000000  1
  Be  Be3_2  1  0.18917022  0.93917022  0.00000000  1
  Be  Be3_3  1  0.18917022  0.93917022  0.50000000  1
  Be  Be3_4  1  0.68917022  0.43917022  0.00000000  1
  Be  Be3_5  1  0.68917022  0.43917022  0.50000000  1
  Be  Be3_6  1  0.68917022  0.93917022  0.00000000  1
  Be  Be3_7  1  0.68917022  0.93917022  0.50000000  1
  Rh  Rh0_0  1  0.03394063  0.10678869  0.25000000  1
  Rh  Rh0_1  1  0.03394063  0.10678869  0.75000000  1
  Rh  Rh0_2  1  0.03394063  0.60678869  0.25000000  1
  Rh  Rh0_3  1  0.03394063  0.60678869  0.75000000  1
  Rh  Rh0_4  1  0.53394063  0.10678869  0.25000000  1
  Rh  Rh0_5  1  0.53394063  0.10678869  0.75000000  1
  Rh  Rh0_6  1  0.53394063  0.60678869  0.25000000  1
  Rh  Rh0_7  1  0.53394063  0.60678869  0.75000000  1
  Rh  Rh1_0  1  0.10678869  0.46605937  0.25000000  1
  Rh  Rh1_1  1  0.10678869  0.46605937  0.75000000  1
  Rh  Rh1_2  1  0.10678869  0.96605937  0.25000000  1
  Rh  Rh1_3  1  0.10678869  0.96605937  0.75000000  1
  Rh  Rh1_4  1  0.60678869  0.46605937  0.25000000  1
  Rh  Rh1_5  1  0.60678869  0.46605937  0.75000000  1
  Rh  Rh1_6  1  0.60678869  0.96605937  0.25000000  1
  Rh  Rh1_7  1  0.60678869  0.96605937  0.75000000  1
  Rh  Rh2_0  1  0.39321131  0.03394063  0.25000000  1
  Rh  Rh2_1  1  0.39321131  0.03394063  0.75000000  1
  Rh  Rh2_2  1  0.39321131  0.53394063  0.25000000  1
  Rh  Rh2_3  1  0.39321131  0.53394063  0.75000000  1
  Rh  Rh2_4  1  0.89321131  0.03394063  0.25000000  1
  Rh  Rh2_5  1  0.89321131  0.03394063  0.75000000  1
  Rh  Rh2_6  1  0.89321131  0.53394063  0.25000000  1
  Rh  Rh2_7  1  0.89321131  0.53394063  0.75000000  1
  Rh  Rh3_0  1  0.46605937  0.39321131  0.25000000  1
  Rh  Rh3_1  1  0.46605937  0.39321131  0.75000000  1
  Rh  Rh3_2  1  0.46605937  0.89321131  0.25000000  1
  Rh  Rh3_3  1  0.46605937  0.89321131  0.75000000  1
  Rh  Rh3_4  1  0.96605937  0.39321131  0.25000000  1
  Rh  Rh3_5  1  0.96605937  0.39321131  0.75000000  1
  Rh  Rh3_6  1  0.96605937  0.89321131  0.25000000  1
  Rh  Rh3_7  1  0.96605937  0.89321131  0.75000000  1
  Rh  Rh4_0  1  0.21605937  0.35678869  0.25000000  1
  Rh  Rh4_1  1  0.21605937  0.35678869  0.75000000  1
  Rh  Rh4_2  1  0.21605937  0.85678869  0.25000000  1
  Rh  Rh4_3  1  0.21605937  0.85678869  0.75000000  1
  Rh  Rh4_4  1  0.71605937  0.35678869  0.25000000  1
  Rh  Rh4_5  1  0.71605937  0.35678869  0.75000000  1
  Rh  Rh4_6  1  0.71605937  0.85678869  0.25000000  1
  Rh  Rh4_7  1  0.71605937  0.85678869  0.75000000  1
  Rh  Rh5_0  1  0.28394063  0.14321131  0.25000000  1
  Rh  Rh5_1  1  0.28394063  0.14321131  0.75000000  1
  Rh  Rh5_2  1  0.28394063  0.64321131  0.25000000  1
  Rh  Rh5_3  1  0.28394063  0.64321131  0.75000000  1
  Rh  Rh5_4  1  0.78394063  0.14321131  0.25000000  1
  Rh  Rh5_5  1  0.78394063  0.14321131  0.75000000  1
  Rh  Rh5_6  1  0.78394063  0.64321131  0.25000000  1
  Rh  Rh5_7  1  0.78394063  0.64321131  0.75000000  1
  Rh  Rh6_0  1  0.35678869  0.28394063  0.25000000  1
  Rh  Rh6_1  1  0.35678869  0.28394063  0.75000000  1
  Rh  Rh6_2  1  0.35678869  0.78394063  0.25000000  1
  Rh  Rh6_3  1  0.35678869  0.78394063  0.75000000  1
  Rh  Rh6_4  1  0.85678869  0.28394063  0.25000000  1
  Rh  Rh6_5  1  0.85678869  0.28394063  0.75000000  1
  Rh  Rh6_6  1  0.85678869  0.78394063  0.25000000  1
  Rh  Rh6_7  1  0.85678869  0.78394063  0.75000000  1
  Rh  Rh7_0  1  0.14321131  0.21605937  0.25000000  1
  Rh  Rh7_1  1  0.14321131  0.21605937  0.75000000  1
  Rh  Rh7_2  1  0.14321131  0.71605937  0.25000000  1
  Rh  Rh7_3  1  0.14321131  0.71605937  0.75000000  1
  Rh  Rh7_4  1  0.64321131  0.21605937  0.25000000  1
  Rh  Rh7_5  1  0.64321131  0.21605937  0.75000000  1
  Rh  Rh7_6  1  0.64321131  0.71605937  0.25000000  1
  Rh  Rh7_7  1  0.64321131  0.71605937  0.75000000  1
  Rh  Rh8_0  1  0.25000000  0.00000000  0.25000000  1
  Rh  Rh8_1  1  0.25000000  0.00000000  0.75000000  1
  Rh  Rh8_2  1  0.25000000  0.50000000  0.25000000  1
  Rh  Rh8_3  1  0.25000000  0.50000000  0.75000000  1
  Rh  Rh8_4  1  0.75000000  0.00000000  0.25000000  1
  Rh  Rh8_5  1  0.75000000  0.00000000  0.75000000  1
  Rh  Rh8_6  1  0.75000000  0.50000000  0.25000000  1
  Rh  Rh8_7  1  0.75000000  0.50000000  0.75000000  1
  Rh  Rh9_0  1  0.00000000  0.25000000  0.25000000  1
  Rh  Rh9_1  1  0.00000000  0.25000000  0.75000000  1
  Rh  Rh9_2  1  0.00000000  0.75000000  0.25000000  1
  Rh  Rh9_3  1  0.00000000  0.75000000  0.75000000  1
  Rh  Rh9_4  1  0.50000000  0.25000000  0.25000000  1
  Rh  Rh9_5  1  0.50000000  0.25000000  0.75000000  1
  Rh  Rh9_6  1  0.50000000  0.75000000  0.25000000  1
  Rh  Rh9_7  1  0.50000000  0.75000000  0.75000000  1
loop_
_geom_bond_atom_site_label_1
_geom_bond_atom_site_label_2
_geom_bond_distance
_geom_bond_site_symmetry_2
Y0_0 Y0_1 3.204733 1_555
Y0_0 Y0_1 3.204733 1_554
Y0_2 Y0_3 3.204733 1_554
Y0_2 Y0_3 3.204733 1_555
Y0_4 Y0_5 3.204733 1_554
Y0_4 Y0_5 3.204733 1_555
Y0_6 Y0_7 3.204733 1_554
Y0_6 Y0_7 3.204733 1_555
Y1_0 Y1_1 3.204733 1_555
Y1_0 Y1_1 3.204733 1_554
Y1_2 Y1_3 3.204733 1_555
Y1_2 Y1_3 3.204733 1_554
Y1_4 Y1_5 3.204733 1_554
Y1_4 Y1_5 3.204733 1_555
Y1_6 Y1_7 3.204733 1_554
Y1_6 Y1_7 3.204733 1_555
Y2_0 Y2_1 3.204733 1_555
Y2_0 Y2_1 3.204733 1_554
Y2_2 Y2_3 3.204733 1_554
Y2_2 Y2_3 3.204733 1_555
Y2_4 Y2_5 3.204733 1_555
Y2_4 Y2_5 3.204733 1_554
Y2_6 Y2_7 3.204733 1_555
Y2_6 Y2_7 3.204733 1_554
Y3_0 Y3_1 3.204733 1_554
Y3_0 Y3_1 3.204733 1_555
Y3_2 Y3_3 3.204733 1_554
Y3_2 Y3_3 3.204733 1_555
Y3_4 Y3_5 3.204733 1_555
Y3_4 Y3_5 3.204733 1_554
Y3_6 Y3_7 3.204733 1_555
Y3_6 Y3_7 3.204733 1_554
Mn0_0 Rh0_0 2.688955 1_555
Mn0_0 Rh0_1 2.688955 1_554
Mn0_0 Rh1_2 2.688955 1_545
Mn0_0 Rh1_3 2.688955 1_544
Mn0_0 Rh2_5 2.688955 1_454
Mn0_0 Rh2_4 2.688955 1_455
Mn0_0 Rh3_7 2.688955 1_444
Mn0_0 Rh3_6 2.688955 1_445
Mn0_1 Rh0_0 2.688955 1_555
Mn0_1 Rh0_1 2.688955 1_555
Mn0_1 Rh1_3 2.688955 1_545
Mn0_1 Rh1_2 2.688955 1_545
Mn0_1 Rh2_5 2.688955 1_455
Mn0_1 Rh2_4 2.688955 1_455
Mn0_1 Rh3_7 2.688955 1_445
Mn0_1 Rh3_6 2.688955 1_445
Mn0_2 Rh0_3 2.688955 1_554
Mn0_2 Rh0_2 2.688955 1_555
Mn0_2 Rh1_0 2.688955 1_555
Mn0_2 Rh1_1 2.688955 1_554
Mn0_2 Rh2_6 2.688955 1_455
Mn0_2 Rh2_7 2.688955 1_454
Mn0_2 Rh3_5 2.688955 1_454
Mn0_2 Rh3_4 2.688955 1_455
Mn0_3 Rh0_2 2.688955 1_555
Mn0_3 Rh0_3 2.688955 1_555
Mn0_3 Rh1_0 2.688955 1_555
Mn0_3 Rh1_1 2.688955 1_555
Mn0_3 Rh2_6 2.688955 1_455
Mn0_3 Rh2_7 2.688955 1_455
Mn0_3 Rh3_5 2.688955 1_455
Mn0_3 Rh3_4 2.688955 1_455
Mn0_4 Rh0_4 2.688955 1_555
Mn0_4 Rh0_5 2.688955 1_554
Mn0_4 Rh1_7 2.688955 1_544
Mn0_4 Rh1_6 2.688955 1_545
Mn0_4 Rh2_1 2.688955 1_554
Mn0_4 Rh2_0 2.688955 1_555
Mn0_4 Rh3_2 2.688955 1_545
Mn0_4 Rh3_3 2.688955 1_544
Mn0_5 Rh0_4 2.688955 1_555
Mn0_5 Rh0_5 2.688955 1_555
Mn0_5 Rh1_7 2.688955 1_545
Mn0_5 Rh1_6 2.688955 1_545
Mn0_5 Rh2_1 2.688955 1_555
Mn0_5 Rh2_0 2.688955 1_555
Mn0_5 Rh3_3 2.688955 1_545
Mn0_5 Rh3_2 2.688955 1_545
Mn0_6 Rh0_6 2.688955 1_555
Mn0_6 Rh0_7 2.688955 1_554
Mn0_6 Rh1_4 2.688955 1_555
Mn0_6 Rh1_5 2.688955 1_554
Mn0_6 Rh2_2 2.688955 1_555
Mn0_6 Rh2_3 2.688955 1_554
Mn0_6 Rh3_0 2.688955 1_555
Mn0_6 Rh3_1 2.688955 1_554
Mn0_7 Rh0_6 2.688955 1_555
Mn0_7 Rh0_7 2.688955 1_555
Mn0_7 Rh1_4 2.688955 1_555
Mn0_7 Rh1_5 2.688955 1_555
Mn0_7 Rh2_2 2.688955 1_555
Mn0_7 Rh2_3 2.688955 1_555
Mn0_7 Rh3_0 2.688955 1_555
Mn0_7 Rh3_1 2.688955 1_555
Mn1_0 Rh6_0 2.688955 1_555
Mn1_0 Rh6_1 2.688955 1_554
Mn1_0 Rh4_0 2.688955 1_555
Mn1_0 Rh4_1 2.688955 1_554
Mn1_0 Rh5_1 2.688955 1_554
Mn1_0 Rh5_0 2.688955 1_555
Mn1_0 Rh7_0 2.688955 1_555
Mn1_0 Rh7_1 2.688955 1_554
Mn1_1 Rh6_0 2.688955 1_555
Mn1_1 Rh6_1 2.688955 1_555
Mn1_1 Rh4_0 2.688955 1_555
Mn1_1 Rh4_1 2.688955 1_555
Mn1_1 Rh5_0 2.688955 1_555
Mn1_1 Rh5_1 2.688955 1_555
Mn1_1 Rh7_0 2.688955 1_555
Mn1_1 Rh7_1 2.688955 1_555
Mn1_2 Rh6_2 2.688955 1_555
Mn1_2 Rh6_3 2.688955 1_554
Mn1_2 Rh4_3 2.688955 1_554
Mn1_2 Rh4_2 2.688955 1_555
Mn1_2 Rh5_3 2.688955 1_554
Mn1_2 Rh5_2 2.688955 1_555
Mn1_2 Rh7_2 2.688955 1_555
Mn1_2 Rh7_3 2.688955 1_554
Mn1_3 Rh6_2 2.688955 1_555
Mn1_3 Rh6_3 2.688955 1_555
Mn1_3 Rh4_3 2.688955 1_555
Mn1_3 Rh4_2 2.688955 1_555
Mn1_3 Rh5_3 2.688955 1_555
Mn1_3 Rh5_2 2.688955 1_555
Mn1_3 Rh7_2 2.688955 1_555
Mn1_3 Rh7_3 2.688955 1_555
Mn1_4 Rh6_5 2.688955 1_554
Mn1_4 Rh6_4 2.688955 1_555
Mn1_4 Rh4_4 2.688955 1_555
Mn1_4 Rh4_5 2.688955 1_554
Mn1_4 Rh5_4 2.688955 1_555
Mn1_4 Rh5_5 2.688955 1_554
Mn1_4 Rh7_4 2.688955 1_555
Mn1_4 Rh7_5 2.688955 1_554
Mn1_5 Rh6_4 2.688955 1_555
Mn1_5 Rh6_5 2.688955 1_555
Mn1_5 Rh4_4 2.688955 1_555
Mn1_5 Rh4_5 2.688955 1_555
Mn1_5 Rh5_5 2.688955 1_555
Mn1_5 Rh5_4 2.688955 1_555
Mn1_5 Rh7_4 2.688955 1_555
Mn1_5 Rh7_5 2.688955 1_555
Mn1_6 Rh6_7 2.688955 1_554
Mn1_6 Rh6_6 2.688955 1_555
Mn1_6 Rh4_6 2.688955 1_555
Mn1_6 Rh4_7 2.688955 1_554
Mn1_6 Rh5_6 2.688955 1_555
Mn1_6 Rh5_7 2.688955 1_554
Mn1_6 Rh7_7 2.688955 1_554
Mn1_6 Rh7_6 2.688955 1_555
Mn1_7 Rh6_7 2.688955 1_555
Mn1_7 Rh6_6 2.688955 1_555
Mn1_7 Rh4_6 2.688955 1_555
Mn1_7 Rh4_7 2.688955 1_555
Mn1_7 Rh5_6 2.688955 1_555
Mn1_7 Rh5_7 2.688955 1_555
Mn1_7 Rh7_7 2.688955 1_555
Mn1_7 Rh7_6 2.688955 1_555
Be0_0 Rh8_0 2.305633 1_555
Be0_0 Rh8_1 2.305633 1_554
Be0_0 Rh2_0 2.314413 1_555
Be0_0 Rh2_1 2.314413 1_554
Be0_0 Rh5_0 2.314413 1_555
Be0_0 Rh5_1 2.314413 1_554
Be0_0 Y0_0 2.743316 1_555
Be0_0 Y2_2 2.926974 1_545
Be0_0 Y1_0 2.926974 1_555
Be0_1 Rh8_0 2.305633 1_555
Be0_1 Rh8_1 2.305633 1_555
Be0_1 Rh2_0 2.314413 1_555
Be0_1 Rh2_1 2.314413 1_555
Be0_1 Rh5_0 2.314413 1_555
Be0_1 Rh5_1 2.314413 1_555
Be0_1 Y0_1 2.743316 1_555
Be0_1 Y2_3 2.926974 1_545
Be0_1 Y1_1 2.926974 1_555
Be0_2 Rh8_3 2.305633 1_554
Be0_2 Rh8_2 2.305633 1_555
Be0_2 Rh2_3 2.314413 1_554
Be0_2 Rh2_2 2.314413 1_555
Be0_2 Rh5_2 2.314413 1_555
Be0_2 Rh5_3 2.314413 1_554
Be0_2 Y0_2 2.743316 1_555
Be0_2 Y2_0 2.926974 1_555
Be0_2 Y1_2 2.926974 1_555
Be0_3 Rh8_3 2.305633 1_555
Be0_3 Rh8_2 2.305633 1_555
Be0_3 Rh2_3 2.314413 1_555
Be0_3 Rh2_2 2.314413 1_555
Be0_3 Rh5_2 2.314413 1_555
Be0_3 Rh5_3 2.314413 1_555
Be0_3 Y0_3 2.743316 1_555
Be0_3 Y2_1 2.926974 1_555
Be0_3 Y1_3 2.926974 1_555
Be0_4 Rh8_4 2.305633 1_555
Be0_4 Rh8_5 2.305633 1_554
Be0_4 Rh2_5 2.314413 1_554
Be0_4 Rh2_4 2.314413 1_555
Be0_4 Rh5_4 2.314413 1_555
Be0_4 Rh5_5 2.314413 1_554
Be0_4 Y0_4 2.743316 1_555
Be0_4 Y2_6 2.926974 1_545
Be0_4 Y1_4 2.926974 1_555
Be0_5 Rh8_4 2.305633 1_555
Be0_5 Rh8_5 2.305633 1_555
Be0_5 Rh2_4 2.314413 1_555
Be0_5 Rh2_5 2.314413 1_555
Be0_5 Rh5_4 2.314413 1_555
Be0_5 Rh5_5 2.314413 1_555
Be0_5 Y0_5 2.743316 1_555
Be0_5 Y2_7 2.926974 1_545
Be0_5 Y1_5 2.926974 1_555
Be0_6 Rh8_7 2.305633 1_554
Be0_6 Rh8_6 2.305633 1_555
Be0_6 Rh2_6 2.314413 1_555
Be0_6 Rh2_7 2.314413 1_554
Be0_6 Rh5_6 2.314413 1_555
Be0_6 Rh5_7 2.314413 1_554
Be0_6 Y0_6 2.743316 1_555
Be0_6 Y2_4 2.926974 1_555
Be0_6 Y1_6 2.926974 1_555
Be0_7 Rh8_6 2.305633 1_555
Be0_7 Rh8_7 2.305633 1_555
Be0_7 Rh2_6 2.314413 1_555
Be0_7 Rh2_7 2.314413 1_555
Be0_7 Rh5_6 2.314413 1_555
Be0_7 Rh5_7 2.314413 1_555
Be0_7 Y0_7 2.743316 1_555
Be0_7 Y2_5 2.926974 1_555
Be0_7 Y1_7 2.926974 1_555
Be1_0 Rh9_0 2.305633 1_555
Be1_0 Rh9_1 2.305633 1_554
Be1_0 Rh0_1 2.314413 1_554
Be1_0 Rh7_1 2.314413 1_554
Be1_0 Rh7_0 2.314413 1_555
Be1_0 Rh0_0 2.314413 1_555
Be1_0 Y1_0 2.743316 1_555
Be1_0 Y0_4 2.926974 1_455
Be1_0 Y3_0 2.926974 1_555
Be1_1 Rh9_1 2.305633 1_555
Be1_1 Rh9_0 2.305633 1_555
Be1_1 Rh0_1 2.314413 1_555
Be1_1 Rh7_1 2.314413 1_555
Be1_1 Rh7_0 2.314413 1_555
Be1_1 Rh0_0 2.314413 1_555
Be1_1 Y1_1 2.743316 1_555
Be1_1 Y0_5 2.926974 1_455
Be1_1 Y3_1 2.926974 1_555
Be1_2 Rh9_2 2.305633 1_555
Be1_2 Rh9_3 2.305633 1_554
Be1_2 Rh7_2 2.314413 1_555
Be1_2 Rh7_3 2.314413 1_554
Be1_2 Rh0_3 2.314413 1_554
Be1_2 Rh0_2 2.314413 1_555
Be1_2 Y1_2 2.743316 1_555
Be1_2 Y0_6 2.926974 1_455
Be1_2 Y3_2 2.926974 1_555
Be1_3 Rh9_3 2.305633 1_555
Be1_3 Rh9_2 2.305633 1_555
Be1_3 Rh7_2 2.314413 1_555
Be1_3 Rh7_3 2.314413 1_555
Be1_3 Rh0_3 2.314413 1_555
Be1_3 Rh0_2 2.314413 1_555
Be1_3 Y1_3 2.743316 1_555
Be1_3 Y0_7 2.926974 1_455
Be1_3 Y3_3 2.926974 1_555
Be1_4 Rh9_5 2.305633 1_554
Be1_4 Rh9_4 2.305633 1_555
Be1_4 Rh0_4 2.314413 1_555
Be1_4 Rh0_5 2.314413 1_554
Be1_4 Rh7_5 2.314413 1_554
Be1_4 Rh7_4 2.314413 1_555
Be1_4 Y1_4 2.743316 1_555
Be1_4 Y0_0 2.926974 1_555
Be1_4 Y3_4 2.926974 1_555
Be1_5 Rh9_4 2.305633 1_555
Be1_5 Rh9_5 2.305633 1_555
Be1_5 Rh0_4 2.314413 1_555
Be1_5 Rh0_5 2.314413 1_555
Be1_5 Rh7_4 2.314413 1_555
Be1_5 Rh7_5 2.314413 1_555
Be1_5 Y1_5 2.743316 1_555
Be1_5 Y0_1 2.926974 1_555
Be1_5 Y3_5 2.926974 1_555
Be1_6 Rh9_7 2.305633 1_554
Be1_6 Rh9_6 2.305633 1_555
Be1_6 Rh7_6 2.314413 1_555
Be1_6 Rh0_6 2.314413 1_555
Be1_6 Rh7_7 2.314413 1_554
Be1_6 Rh0_7 2.314413 1_554
Be1_6 Y1_6 2.743316 1_555
Be1_6 Y0_2 2.926974 1_555
Be1_6 Y3_6 2.926974 1_555
Be1_7 Rh9_7 2.305633 1_555
Be1_7 Rh9_6 2.305633 1_555
Be1_7 Rh7_6 2.314413 1_555
Be1_7 Rh0_6 2.314413 1_555
Be1_7 Rh7_7 2.314413 1_555
Be1_7 Rh0_7 2.314413 1_555
Be1_7 Y1_7 2.743316 1_555
Be1_7 Y0_3 2.926974 1_555
Be1_7 Y3_7 2.926974 1_555
Be2_0 Rh9_5 2.305633 1_554
Be2_0 Rh9_4 2.305633 1_555
Be2_0 Rh3_0 2.314413 1_555
Be2_0 Rh3_1 2.314413 1_554
Be2_0 Rh6_0 2.314413 1_555
Be2_0 Rh6_1 2.314413 1_554
Be2_0 Y2_0 2.743316 1_555
Be2_0 Y3_4 2.926974 1_555
Be2_0 Y0_0 2.926974 1_555
Be2_1 Rh9_5 2.305633 1_555
Be2_1 Rh9_4 2.305633 1_555
Be2_1 Rh3_0 2.314413 1_555
Be2_1 Rh3_1 2.314413 1_555
Be2_1 Rh6_0 2.314413 1_555
Be2_1 Rh6_1 2.314413 1_555
Be2_1 Y2_1 2.743316 1_555
Be2_1 Y3_5 2.926974 1_555
Be2_1 Y0_1 2.926974 1_555
Be2_2 Rh9_6 2.305633 1_555
Be2_2 Rh9_7 2.305633 1_554
Be2_2 Rh3_2 2.314413 1_555
Be2_2 Rh3_3 2.314413 1_554
Be2_2 Rh6_2 2.314413 1_555
Be2_2 Rh6_3 2.314413 1_554
Be2_2 Y2_2 2.743316 1_555
Be2_2 Y3_6 2.926974 1_555
Be2_2 Y0_2 2.926974 1_555
Be2_3 Rh9_6 2.305633 1_555
Be2_3 Rh9_7 2.305633 1_555
Be2_3 Rh3_2 2.314413 1_555
Be2_3 Rh3_3 2.314413 1_555
Be2_3 Rh6_3 2.314413 1_555
Be2_3 Rh6_2 2.314413 1_555
Be2_3 Y2_3 2.743316 1_555
Be2_3 Y3_7 2.926974 1_555
Be2_3 Y0_3 2.926974 1_555
Be2_4 Rh9_0 2.305633 1_655
Be2_4 Rh9_1 2.305633 1_654
Be2_4 Rh3_5 2.314413 1_554
Be2_4 Rh3_4 2.314413 1_555
Be2_4 Rh6_5 2.314413 1_554
Be2_4 Rh6_4 2.314413 1_555
Be2_4 Y2_4 2.743316 1_555
Be2_4 Y3_0 2.926974 1_655
Be2_4 Y0_4 2.926974 1_555
Be2_5 Rh9_0 2.305633 1_655
Be2_5 Rh9_1 2.305633 1_655
Be2_5 Rh3_5 2.314413 1_555
Be2_5 Rh3_4 2.314413 1_555
Be2_5 Rh6_4 2.314413 1_555
Be2_5 Rh6_5 2.314413 1_555
Be2_5 Y2_5 2.743316 1_555
Be2_5 Y3_1 2.926974 1_655
Be2_5 Y0_5 2.926974 1_555
Be2_6 Rh9_2 2.305633 1_655
Be2_6 Rh9_3 2.305633 1_654
Be2_6 Rh3_7 2.314413 1_554
Be2_6 Rh3_6 2.314413 1_555
Be2_6 Rh6_6 2.314413 1_555
Be2_6 Rh6_7 2.314413 1_554
Be2_6 Y2_6 2.743316 1_555
Be2_6 Y3_2 2.926974 1_655
Be2_6 Y0_6 2.926974 1_555
Be2_7 Rh9_2 2.305633 1_655
Be2_7 Rh9_3 2.305633 1_655
Be2_7 Rh3_7 2.314413 1_555
Be2_7 Rh3_6 2.314413 1_555
Be2_7 Rh6_6 2.314413 1_555
Be2_7 Rh6_7 2.314413 1_555
Be2_7 Y2_7 2.743316 1_555
Be2_7 Y3_3 2.926974 1_655
Be2_7 Y0_7 2.926974 1_555
Be3_0 Rh8_3 2.305633 1_554
Be3_0 Rh8_2 2.305633 1_555
Be3_0 Rh4_0 2.314413 1_555
Be3_0 Rh4_1 2.314413 1_554
Be3_0 Rh1_1 2.314413 1_554
Be3_0 Rh1_0 2.314413 1_555
Be3_0 Y3_0 2.743316 1_555
Be3_0 Y1_2 2.926974 1_555
Be3_0 Y2_0 2.926974 1_555
Be3_1 Rh8_2 2.305633 1_555
Be3_1 Rh8_3 2.305633 1_555
Be3_1 Rh4_0 2.314413 1_555
Be3_1 Rh4_1 2.314413 1_555
Be3_1 Rh1_1 2.314413 1_555
Be3_1 Rh1_0 2.314413 1_555
Be3_1 Y3_1 2.743316 1_555
Be3_1 Y2_1 2.926974 1_555
Be3_1 Y1_3 2.926974 1_555
Be3_2 Rh8_1 2.305633 1_564
Be3_2 Rh8_0 2.305633 1_565
Be3_2 Rh1_2 2.314413 1_555
Be3_2 Rh1_3 2.314413 1_554
Be3_2 Rh4_2 2.314413 1_555
Be3_2 Rh4_3 2.314413 1_554
Be3_2 Y3_2 2.743316 1_555
Be3_2 Y1_0 2.926974 1_565
Be3_2 Y2_2 2.926974 1_555
Be3_3 Rh8_1 2.305633 1_565
Be3_3 Rh8_0 2.305633 1_565
Be3_3 Rh1_2 2.314413 1_555
Be3_3 Rh1_3 2.314413 1_555
Be3_3 Rh4_3 2.314413 1_555
Be3_3 Rh4_2 2.314413 1_555
Be3_3 Y3_3 2.743316 1_555
Be3_3 Y1_1 2.926974 1_565
Be3_3 Y2_3 2.926974 1_555
Be3_4 Rh8_6 2.305633 1_555
Be3_4 Rh8_7 2.305633 1_554
Be3_4 Rh4_4 2.314413 1_555
Be3_4 Rh4_5 2.314413 1_554
Be3_4 Rh1_4 2.314413 1_555
Be3_4 Rh1_5 2.314413 1_554
Be3_4 Y3_4 2.743316 1_555
Be3_4 Y2_4 2.926974 1_555
Be3_4 Y1_6 2.926974 1_555
Be3_5 Rh8_7 2.305633 1_555
Be3_5 Rh8_6 2.305633 1_555
Be3_5 Rh4_4 2.314413 1_555
Be3_5 Rh4_5 2.314413 1_555
Be3_5 Rh1_4 2.314413 1_555
Be3_5 Rh1_5 2.314413 1_555
Be3_5 Y3_5 2.743316 1_555
Be3_5 Y2_5 2.926974 1_555
Be3_5 Y1_7 2.926974 1_555
Be3_6 Rh8_4 2.305633 1_565
Be3_6 Rh8_5 2.305633 1_564
Be3_6 Rh1_7 2.314413 1_554
Be3_6 Rh4_6 2.314413 1_555
Be3_6 Rh4_7 2.314413 1_554
Be3_6 Rh1_6 2.314413 1_555
Be3_6 Y3_6 2.743316 1_555
Be3_6 Y2_6 2.926974 1_555
Be3_6 Y1_4 2.926974 1_565
Be3_7 Rh8_4 2.305633 1_565
Be3_7 Rh8_5 2.305633 1_565
Be3_7 Rh1_7 2.314413 1_555
Be3_7 Rh4_6 2.314413 1_555
Be3_7 Rh4_7 2.314413 1_555
Be3_7 Rh1_6 2.314413 1_555
Be3_7 Y3_7 2.743316 1_555
Be3_7 Y2_7 2.926974 1_555
Be3_7 Y1_5 2.926974 1_565
Rh0_0 Y1_1 2.955235 1_555
Rh0_0 Y1_0 2.955235 1_555
Rh0_0 Y0_5 3.040938 1_455
Rh0_0 Y0_4 3.040938 1_455
Rh0_1 Y1_1 2.955235 1_555
Rh0_1 Y1_0 2.955235 1_556
Rh0_1 Y0_4 3.040938 1_456
Rh0_1 Y0_5 3.040938 1_455
Rh0_2 Y1_2 2.955235 1_555
Rh0_2 Y1_3 2.955235 1_555
Rh0_2 Y0_7 3.040938 1_455
Rh0_2 Y0_6 3.040938 1_455
Rh0_3 Y1_2 2.955235 1_556
Rh0_3 Y1_3 2.955235 1_555
Rh0_3 Y0_7 3.040938 1_455
Rh0_3 Y0_6 3.040938 1_456
Rh0_4 Y1_4 2.955235 1_555
Rh0_4 Y1_5 2.955235 1_555
Rh0_4 Y0_0 3.040938 1_555
Rh0_4 Y0_1 3.040938 1_555
Rh0_5 Y1_4 2.955235 1_556
Rh0_5 Y1_5 2.955235 1_555
Rh0_5 Y0_0 3.040938 1_556
Rh0_5 Y0_1 3.040938 1_555
Rh0_6 Y1_6 2.955235 1_555
Rh0_6 Y1_7 2.955235 1_555
Rh0_6 Y0_2 3.040938 1_555
Rh0_6 Y0_3 3.040938 1_555
Rh0_7 Y1_7 2.955235 1_555
Rh0_7 Y1_6 2.955235 1_556
Rh0_7 Y0_2 3.040938 1_556
Rh0_7 Y0_3 3.040938 1_555
Rh1_0 Y3_0 2.955235 1_555
Rh1_0 Y3_1 2.955235 1_555
Rh1_0 Y1_3 3.040938 1_555
Rh1_0 Y1_2 3.040938 1_555
Rh1_1 Y3_1 2.955235 1_555
Rh1_1 Y3_0 2.955235 1_556
Rh1_1 Y1_2 3.040938 1_556
Rh1_1 Y1_3 3.040938 1_555
Rh1_2 Y3_3 2.955235 1_555
Rh1_2 Y3_2 2.955235 1_555
Rh1_2 Y1_0 3.040938 1_565
Rh1_2 Y1_1 3.040938 1_565
Rh1_3 Y3_2 2.955235 1_556
Rh1_3 Y3_3 2.955235 1_555
Rh1_3 Y1_1 3.040938 1_565
Rh1_3 Y1_0 3.040938 1_566
Rh1_4 Y3_4 2.955235 1_555
Rh1_4 Y3_5 2.955235 1_555
Rh1_4 Y1_7 3.040938 1_555
Rh1_4 Y1_6 3.040938 1_555
Rh1_5 Y3_4 2.955235 1_556
Rh1_5 Y3_5 2.955235 1_555
Rh1_5 Y1_7 3.040938 1_555
Rh1_5 Y1_6 3.040938 1_556
Rh1_6 Y3_6 2.955235 1_555
Rh1_6 Y3_7 2.955235 1_555
Rh1_6 Y1_5 3.040938 1_565
Rh1_6 Y1_4 3.040938 1_565
Rh1_7 Y3_6 2.955235 1_556
Rh1_7 Y3_7 2.955235 1_555
Rh1_7 Y1_4 3.040938 1_566
Rh1_7 Y1_5 3.040938 1_565
Rh2_0 Y0_1 2.955235 1_555
Rh2_0 Y0_0 2.955235 1_555
Rh2_0 Y2_2 3.040938 1_545
Rh2_0 Y2_3 3.040938 1_545
Rh2_1 Y0_1 2.955235 1_555
Rh2_1 Y0_0 2.955235 1_556
Rh2_1 Y2_2 3.040938 1_546
Rh2_1 Y2_3 3.040938 1_545
Rh2_2 Y0_2 2.955235 1_555
Rh2_2 Y0_3 2.955235 1_555
Rh2_2 Y2_0 3.040938 1_555
Rh2_2 Y2_1 3.040938 1_555
Rh2_3 Y0_3 2.955235 1_555
Rh2_3 Y0_2 2.955235 1_556
Rh2_3 Y2_1 3.040938 1_555
Rh2_3 Y2_0 3.040938 1_556
Rh2_4 Y0_5 2.955235 1_555
Rh2_4 Y0_4 2.955235 1_555
Rh2_4 Y2_6 3.040938 1_545
Rh2_4 Y2_7 3.040938 1_545
Rh2_5 Y0_4 2.955235 1_556
Rh2_5 Y0_5 2.955235 1_555
Rh2_5 Y2_6 3.040938 1_546
Rh2_5 Y2_7 3.040938 1_545
Rh2_6 Y0_6 2.955235 1_555
Rh2_6 Y0_7 2.955235 1_555
Rh2_6 Y2_4 3.040938 1_555
Rh2_6 Y2_5 3.040938 1_555
Rh2_7 Y0_6 2.955235 1_556
Rh2_7 Y0_7 2.955235 1_555
Rh2_7 Y2_5 3.040938 1_555
Rh2_7 Y2_4 3.040938 1_556
Rh3_0 Y2_0 2.955235 1_555
Rh3_0 Y2_1 2.955235 1_555
Rh3_0 Y3_4 3.040938 1_555
Rh3_0 Y3_5 3.040938 1_555
Rh3_1 Y2_0 2.955235 1_556
Rh3_1 Y2_1 2.955235 1_555
Rh3_1 Y3_5 3.040938 1_555
Rh3_1 Y3_4 3.040938 1_556
Rh3_2 Y2_2 2.955235 1_555
Rh3_2 Y2_3 2.955235 1_555
Rh3_2 Y3_7 3.040938 1_555
Rh3_2 Y3_6 3.040938 1_555
Rh3_3 Y2_3 2.955235 1_555
Rh3_3 Y2_2 2.955235 1_556
Rh3_3 Y3_6 3.040938 1_556
Rh3_3 Y3_7 3.040938 1_555
Rh3_4 Y2_4 2.955235 1_555
Rh3_4 Y2_5 2.955235 1_555
Rh3_4 Y3_0 3.040938 1_655
Rh3_4 Y3_1 3.040938 1_655
Rh3_5 Y2_5 2.955235 1_555
Rh3_5 Y2_4 2.955235 1_556
Rh3_5 Y3_0 3.040938 1_656
Rh3_5 Y3_1 3.040938 1_655
Rh3_6 Y2_7 2.955235 1_555
Rh3_6 Y2_6 2.955235 1_555
Rh3_6 Y3_3 3.040938 1_655
Rh3_6 Y3_2 3.040938 1_655
Rh3_7 Y2_7 2.955235 1_555
Rh3_7 Y2_6 2.955235 1_556
Rh3_7 Y3_3 3.040938 1_655
Rh3_7 Y3_2 3.040938 1_656
Rh4_0 Y3_0 2.955235 1_555
Rh4_0 Y3_1 2.955235 1_555
Rh4_0 Y2_0 3.040938 1_555
Rh4_0 Y2_1 3.040938 1_555
Rh4_1 Y3_1 2.955235 1_555
Rh4_1 Y3_0 2.955235 1_556
Rh4_1 Y2_0 3.040938 1_556
Rh4_1 Y2_1 3.040938 1_555
Rh4_2 Y3_3 2.955235 1_555
Rh4_2 Y3_2 2.955235 1_555
Rh4_2 Y2_2 3.040938 1_555
Rh4_2 Y2_3 3.040938 1_555
Rh4_3 Y3_2 2.955235 1_556
Rh4_3 Y3_3 2.955235 1_555
Rh4_3 Y2_2 3.040938 1_556
Rh4_3 Y2_3 3.040938 1_555
Rh4_4 Y3_4 2.955235 1_555
Rh4_4 Y3_5 2.955235 1_555
Rh4_4 Y2_4 3.040938 1_555
Rh4_4 Y2_5 3.040938 1_555
Rh4_5 Y3_4 2.955235 1_556
Rh4_5 Y3_5 2.955235 1_555
Rh4_5 Y2_5 3.040938 1_555
Rh4_5 Y2_4 3.040938 1_556
Rh4_6 Y3_6 2.955235 1_555
Rh4_6 Y3_7 2.955235 1_555
Rh4_6 Y2_6 3.040938 1_555
Rh4_6 Y2_7 3.040938 1_555
Rh4_7 Y3_6 2.955235 1_556
Rh4_7 Y3_7 2.955235 1_555
Rh4_7 Y2_7 3.040938 1_555
Rh4_7 Y2_6 3.040938 1_556
Rh5_0 Y0_1 2.955235 1_555
Rh5_0 Y0_0 2.955235 1_555
Rh5_0 Y1_1 3.040938 1_555
Rh5_0 Y1_0 3.040938 1_555
Rh5_1 Y0_1 2.955235 1_555
Rh5_1 Y0_0 2.955235 1_556
Rh5_1 Y1_1 3.040938 1_555
Rh5_1 Y1_0 3.040938 1_556
Rh5_2 Y0_2 2.955235 1_555
Rh5_2 Y0_3 2.955235 1_555
Rh5_2 Y1_3 3.040938 1_555
Rh5_2 Y1_2 3.040938 1_555
Rh5_3 Y0_3 2.955235 1_555
Rh5_3 Y0_2 2.955235 1_556
Rh5_3 Y1_2 3.040938 1_556
Rh5_3 Y1_3 3.040938 1_555
Rh5_4 Y0_5 2.955235 1_555
Rh5_4 Y0_4 2.955235 1_555
Rh5_4 Y1_4 3.040938 1_555
Rh5_4 Y1_5 3.040938 1_555
Rh5_5 Y0_4 2.955235 1_556
Rh5_5 Y0_5 2.955235 1_555
Rh5_5 Y1_4 3.040938 1_556
Rh5_5 Y1_5 3.040938 1_555
Rh5_6 Y0_6 2.955235 1_555
Rh5_6 Y0_7 2.955235 1_555
Rh5_6 Y1_6 3.040938 1_555
Rh5_6 Y1_7 3.040938 1_555
Rh5_7 Y0_6 2.955235 1_556
Rh5_7 Y0_7 2.955235 1_555
Rh5_7 Y1_7 3.040938 1_555
Rh5_7 Y1_6 3.040938 1_556
Rh6_0 Y2_0 2.955235 1_555
Rh6_0 Y2_1 2.955235 1_555
Rh6_0 Y0_0 3.040938 1_555
Rh6_0 Y0_1 3.040938 1_555
Rh6_1 Y2_0 2.955235 1_556
Rh6_1 Y2_1 2.955235 1_555
Rh6_1 Y0_1 3.040938 1_555
Rh6_1 Y0_0 3.040938 1_556
Rh6_2 Y2_2 2.955235 1_555
Rh6_2 Y2_3 2.955235 1_555
Rh6_2 Y0_3 3.040938 1_555
Rh6_2 Y0_2 3.040938 1_555
Rh6_3 Y2_2 2.955235 1_556
Rh6_3 Y2_3 2.955235 1_555
Rh6_3 Y0_3 3.040938 1_555
Rh6_3 Y0_2 3.040938 1_556
Rh6_4 Y2_4 2.955235 1_555
Rh6_4 Y2_5 2.955235 1_555
Rh6_4 Y0_5 3.040938 1_555
Rh6_4 Y0_4 3.040938 1_555
Rh6_5 Y2_5 2.955235 1_555
Rh6_5 Y2_4 2.955235 1_556
Rh6_5 Y0_4 3.040938 1_556
Rh6_5 Y0_5 3.040938 1_555
Rh6_6 Y2_6 2.955235 1_555
Rh6_6 Y2_7 2.955235 1_555
Rh6_6 Y0_7 3.040938 1_555
Rh6_6 Y0_6 3.040938 1_555
Rh6_7 Y2_6 2.955235 1_556
Rh6_7 Y2_7 2.955235 1_555
Rh6_7 Y0_6 3.040938 1_556
Rh6_7 Y0_7 3.040938 1_555
Rh7_0 Y1_1 2.955235 1_555
Rh7_0 Y1_0 2.955235 1_555
Rh7_0 Y3_0 3.040938 1_555
Rh7_0 Y3_1 3.040938 1_555
Rh7_1 Y1_1 2.955235 1_555
Rh7_1 Y1_0 2.955235 1_556
Rh7_1 Y3_1 3.040938 1_555
Rh7_1 Y3_0 3.040938 1_556
Rh7_2 Y1_3 2.955235 1_555
Rh7_2 Y1_2 2.955235 1_555
Rh7_2 Y3_3 3.040938 1_555
Rh7_2 Y3_2 3.040938 1_555
Rh7_3 Y1_3 2.955235 1_555
Rh7_3 Y1_2 2.955235 1_556
Rh7_3 Y3_2 3.040938 1_556
Rh7_3 Y3_3 3.040938 1_555
Rh7_4 Y1_4 2.955235 1_555
Rh7_4 Y1_5 2.955235 1_555
Rh7_4 Y3_5 3.040938 1_555
Rh7_4 Y3_4 3.040938 1_555
Rh7_5 Y1_5 2.955235 1_555
Rh7_5 Y1_4 2.955235 1_556
Rh7_5 Y3_4 3.040938 1_556
Rh7_5 Y3_5 3.040938 1_555
Rh7_6 Y1_6 2.955235 1_555
Rh7_6 Y1_7 2.955235 1_555
Rh7_6 Y3_6 3.040938 1_555
Rh7_6 Y3_7 3.040938 1_555
Rh7_7 Y1_7 2.955235 1_555
Rh7_7 Y1_6 2.955235 1_556
Rh7_7 Y3_6 3.040938 1_556
Rh7_7 Y3_7 3.040938 1_555
Rh8_0 Y2_2 2.895926 1_545
Rh8_0 Y2_3 2.895926 1_545
Rh8_0 Y1_0 2.895926 1_555
Rh8_0 Y1_1 2.895926 1_555
Rh8_1 Y2_2 2.895926 1_546
Rh8_1 Y2_3 2.895926 1_545
Rh8_1 Y1_0 2.895926 1_556
Rh8_1 Y1_1 2.895926 1_555
Rh8_2 Y2_0 2.895926 1_555
Rh8_2 Y2_1 2.895926 1_555
Rh8_2 Y1_3 2.895926 1_555
Rh8_2 Y1_2 2.895926 1_555
Rh8_3 Y2_0 2.895926 1_556
Rh8_3 Y2_1 2.895926 1_555
Rh8_3 Y1_2 2.895926 1_556
Rh8_3 Y1_3 2.895926 1_555
Rh8_4 Y2_6 2.895926 1_545
Rh8_4 Y2_7 2.895926 1_545
Rh8_4 Y1_4 2.895926 1_555
Rh8_4 Y1_5 2.895926 1_555
Rh8_5 Y2_6 2.895926 1_546
Rh8_5 Y2_7 2.895926 1_545
Rh8_5 Y1_4 2.895926 1_556
Rh8_5 Y1_5 2.895926 1_555
Rh8_6 Y2_4 2.895926 1_555
Rh8_6 Y2_5 2.895926 1_555
Rh8_6 Y1_6 2.895926 1_555
Rh8_6 Y1_7 2.895926 1_555
Rh8_7 Y2_5 2.895926 1_555
Rh8_7 Y2_4 2.895926 1_556
Rh8_7 Y1_6 2.895926 1_556
Rh8_7 Y1_7 2.895926 1_555
Rh9_0 Y3_0 2.895926 1_555
Rh9_0 Y3_1 2.895926 1_555
Rh9_0 Y0_5 2.895926 1_455
Rh9_0 Y0_4 2.895926 1_455
Rh9_1 Y3_1 2.895926 1_555
Rh9_1 Y3_0 2.895926 1_556
Rh9_1 Y0_4 2.895926 1_456
Rh9_1 Y0_5 2.895926 1_455
Rh9_2 Y3_3 2.895926 1_555
Rh9_2 Y3_2 2.895926 1_555
Rh9_2 Y0_6 2.895926 1_455
Rh9_2 Y0_7 2.895926 1_455
Rh9_3 Y3_2 2.895926 1_556
Rh9_3 Y3_3 2.895926 1_555
Rh9_3 Y0_6 2.895926 1_456
Rh9_3 Y0_7 2.895926 1_455
Rh9_4 Y3_5 2.895926 1_555
Rh9_4 Y3_4 2.895926 1_555
Rh9_4 Y0_1 2.895926 1_555
Rh9_4 Y0_0 2.895926 1_555
Rh9_5 Y3_4 2.895926 1_556
Rh9_5 Y3_5 2.895926 1_555
Rh9_5 Y0_0 2.895926 1_556
Rh9_5 Y0_1 2.895926 1_555
Rh9_6 Y3_6 2.895926 1_555
Rh9_6 Y3_7 2.895926 1_555
Rh9_6 Y0_2 2.895926 1_555
Rh9_6 Y0_3 2.895926 1_555
Rh9_7 Y3_6 2.895926 1_556
Rh9_7 Y3_7 2.895926 1_555
Rh9_7 Y0_2 2.895926 1_556
Rh9_7 Y0_3 2.895926 1_555
