# generated using pymatgen
data_ZnCu3(SO4)4
_symmetry_space_group_name_H-M   'P 1'
_cell_length_a   4.80492586
_cell_length_b   6.68413840
_cell_length_c   8.44657326
_cell_angle_alpha   90.18361874
_cell_angle_beta   89.40174436
_cell_angle_gamma   87.22484172
_symmetry_Int_Tables_number   1
_chemical_formula_structural   ZnCu3(SO4)4
_chemical_formula_sum   'Zn1 Cu3 S4 O16'
_cell_volume   270.94202741
_cell_formula_units_Z   1
loop_
 _symmetry_equiv_pos_site_id
 _symmetry_equiv_pos_as_xyz
  1  'x, y, z'
loop_
 _atom_site_type_symbol
 _atom_site_label
 _atom_site_symmetry_multiplicity
 _atom_site_fract_x
 _atom_site_fract_y
 _atom_site_fract_z
 _atom_site_occupancy
  Zn  Zn0  1  0.50000000  0.50000000  0.50000000  1
  Cu  Cu0  1  0.00000000  0.50000000  0.00000000  1
  Cu  Cu1  1  0.50000000  0.00000000  0.50000000  1
  Cu  Cu2  1  0.00000000  0.00000000  0.00000000  1
  S  S0  1  0.96005545  0.73533316  0.68242024  1
  S  S1  1  0.45553267  0.23501802  0.81838158  1
  S  S2  1  0.03994455  0.26466684  0.31757976  1
  S  S3  1  0.54446733  0.76498198  0.18161842  1
  O  O0  1  0.17776461  0.44475963  0.36500365  1
  O  O1  1  0.68306273  0.57713596  0.12571740  1
  O  O2  1  0.82153965  0.92121495  0.62542255  1
  O  O3  1  0.31729751  0.05541797  0.87109774  1
  O  O4  1  0.82223539  0.55524037  0.63499635  1
  O  O5  1  0.31693727  0.42286404  0.87428260  1
  O  O6  1  0.17846035  0.07878505  0.37457745  1
  O  O7  1  0.68270249  0.94458203  0.12890226  1
  O  O8  1  0.25432352  0.77180805  0.13453798  1
  O  O9  1  0.74812468  0.27434648  0.36997901  1
  O  O10  1  0.74567648  0.22819195  0.86546202  1
  O  O11  1  0.25187532  0.72565352  0.63002099  1
  O  O12  1  0.56691439  0.76080284  0.36039081  1
  O  O13  1  0.05698769  0.25551174  0.13827161  1
  O  O14  1  0.43308561  0.23919716  0.63960919  1
  O  O15  1  0.94301231  0.74448826  0.86172839  1
loop_
_geom_bond_atom_site_label_1
_geom_bond_atom_site_label_2
_geom_bond_distance
_geom_bond_site_symmetry_2
Cu0 O1 1.897160 1_455
Cu0 O5 1.897160 1_554
Cu0 O15 2.021185 1_454
Cu0 O13 2.021185 1_555
Cu0 O8 2.513203 1_555
Cu0 O10 2.513203 1_454
Cu1 O2 1.935341 1_545
Cu1 O6 1.935341 1_555
Cu1 O14 1.995094 1_555
Cu1 O12 1.995094 1_545
Cu1 O9 2.487465 1_555
Cu1 O11 2.487465 1_545
Cu2 O3 1.915631 1_554
Cu2 O7 1.915631 1_445
Cu2 O13 2.096434 1_555
Cu2 O15 2.096434 1_444
Cu2 O10 2.229513 1_454
Cu2 O8 2.229513 1_545
O0 S2 1.458655 1_555
O0 Zn0 1.980741 1_555
O1 S3 1.466831 1_555
O2 S0 1.465914 1_555
O3 S1 1.468004 1_555
O4 S0 1.458655 1_555
O4 Zn0 1.980741 1_555
O5 S1 1.466831 1_555
O6 S2 1.465914 1_555
O7 S3 1.468004 1_555
O8 S3 1.452352 1_555
O9 S2 1.464321 1_655
O9 Zn0 2.165729 1_555
O10 S1 1.452352 1_555
O11 S0 1.464321 1_455
O11 Zn0 2.165729 1_555
O12 S3 1.515234 1_555
O12 Zn0 2.142979 1_555
O13 S2 1.516777 1_555
O14 S1 1.515234 1_555
O14 Zn0 2.142979 1_555
O15 S0 1.516777 1_555
