# generated using pymatgen
data_K8CrGa3F20
_symmetry_space_group_name_H-M   'P 1'
_cell_length_a   5.59971616
_cell_length_b   7.24312694
_cell_length_c   11.45279965
_cell_angle_alpha   89.89172046
_cell_angle_beta   90.00000000
_cell_angle_gamma   90.00000000
_symmetry_Int_Tables_number   1
_chemical_formula_structural   K8CrGa3F20
_chemical_formula_sum   'K8 Cr1 Ga3 F20'
_cell_volume   464.51848257
_cell_formula_units_Z   1
loop_
 _symmetry_equiv_pos_site_id
 _symmetry_equiv_pos_as_xyz
  1  'x, y, z'
loop_
 _atom_site_type_symbol
 _atom_site_label
 _atom_site_symmetry_multiplicity
 _atom_site_fract_x
 _atom_site_fract_y
 _atom_site_fract_z
 _atom_site_occupancy
  K  K0  1  0.25000000  0.15704989  0.58505227  1
  K  K1  1  0.25000000  0.65702814  0.91460893  1
  K  K2  1  0.75000000  0.84230722  0.41539607  1
  K  K3  1  0.75000000  0.34778220  0.08427293  1
  K  K4  1  0.25000000  0.48057227  0.27691091  1
  K  K5  1  0.25000000  0.98091065  0.22385572  1
  K  K6  1  0.75000000  0.51848975  0.72278381  1
  K  K7  1  0.75000000  0.01730240  0.77574540  1
  Cr  Cr0  1  0.75000000  0.83435390  0.06129848  1
  Ga  Ga0  1  0.25000000  0.66942669  0.56333506  1
  Ga  Ga1  1  0.25000000  0.17120638  0.93637833  1
  Ga  Ga2  1  0.75000000  0.32992131  0.43674644  1
  F  F0  1  0.99978678  0.49983167  0.50017672  1
  F  F1  1  0.49792435  0.00132938  0.00068912  1
  F  F2  1  0.50021322  0.49983167  0.50017672  1
  F  F3  1  0.00207565  0.00132938  0.00068912  1
  F  F4  1  0.25000000  0.52007132  0.69502959  1
  F  F5  1  0.25000000  0.02079712  0.80536360  1
  F  F6  1  0.75000000  0.47912317  0.30493125  1
  F  F7  1  0.75000000  0.97523732  0.19912471  1
  F  F8  1  0.25000000  0.77849795  0.41374161  1
  F  F9  1  0.25000000  0.28084110  0.08578906  1
  F  F10  1  0.75000000  0.22028660  0.58625368  1
  F  F11  1  0.75000000  0.71510986  0.91191835  1
  F  F12  1  0.00462247  0.82178576  0.61606130  1
  F  F13  1  0.49634325  0.32202829  0.88364980  1
  F  F14  1  0.50369024  0.17831739  0.38438147  1
  F  F15  1  0.99356908  0.67854938  0.11577599  1
  F  F16  1  0.99630976  0.17831739  0.38438147  1
  F  F17  1  0.50643092  0.67854938  0.11577599  1
  F  F18  1  0.49537753  0.82178576  0.61606130  1
  F  F19  1  0.00365675  0.32202829  0.88364980  1
loop_
_geom_bond_atom_site_label_1
_geom_bond_atom_site_label_2
_geom_bond_distance
_geom_bond_site_symmetry_2
Cr0 F15 1.876280 1_555
Cr0 F17 1.876280 1_555
Cr0 F7 1.881231 1_555
Cr0 F11 1.917934 1_554
Cr0 F3 1.983395 1_665
Cr0 F1 1.983395 1_565
F0 Ga0 1.999672 1_655
F0 Ga2 2.000538 1_555
F0 K6 2.911331 1_555
F0 K4 2.919298 1_655
F0 K2 3.007241 1_555
F0 K0 3.010529 1_655
F1 Ga1 1.995104 1_554
F1 K5 2.912108 1_545
F1 K7 2.939681 1_554
F1 K1 3.021213 1_544
F1 K3 3.035625 1_555
F2 Ga0 1.999672 1_555
F2 Ga2 2.000538 1_555
F2 K6 2.911331 1_555
F2 K4 2.919298 1_555
F2 K2 3.007241 1_555
F2 K0 3.010529 1_555
F3 Ga1 1.995104 1_554
F3 K5 2.912108 1_545
F3 K7 2.939681 1_454
F3 K1 3.021213 1_544
F3 K3 3.035625 1_455
F4 Ga0 1.854456 1_555
F4 K1 2.705124 1_555
F4 K6 2.817864 1_555
F4 K6 2.817864 1_455
F4 K0 2.917667 1_555
F5 Ga1 1.855936 1_555
F5 K0 2.707581 1_555
F5 K7 2.820451 1_455
F5 K7 2.820451 1_555
F5 K1 2.914662 1_545
F6 Ga2 1.854932 1_555
F6 K3 2.701964 1_555
F6 K4 2.818206 1_655
F6 K4 2.818206 1_555
F6 K2 2.921152 1_555
F7 K2 2.655772 1_555
F7 K5 2.814456 1_555
F7 K5 2.814456 1_655
F7 K3 2.999684 1_565
F8 Ga0 1.885281 1_555
F8 K5 2.620464 1_555
F8 K4 2.669299 1_555
F8 K2 2.837817 1_555
F8 K2 2.837817 1_455
F9 Ga1 1.887812 1_554
F9 K4 2.626032 1_555
F9 K5 2.684555 1_545
F9 K3 2.841578 1_555
F9 K3 2.841578 1_455
F10 Ga2 1.886092 1_555
F10 K7 2.619038 1_555
F10 K6 2.668903 1_555
F10 K0 2.837113 1_555
F10 K0 2.837113 1_655
F11 K6 2.594595 1_555
F11 K7 2.685192 1_565
F11 K1 2.831446 1_555
F11 K1 2.831446 1_655
F12 Ga0 1.863600 1_555
F12 K2 2.708389 1_455
F12 K7 2.718977 1_465
F12 K0 2.812081 1_565
F12 K6 2.888377 1_455
F13 Ga1 1.859695 1_555
F13 K3 2.708021 1_556
F13 K6 2.725229 1_555
F13 K1 2.814161 1_555
F13 K7 2.902873 1_555
F14 Ga2 1.862881 1_555
F14 K0 2.705992 1_555
F14 K5 2.729916 1_545
F14 K2 2.819305 1_545
F14 K4 2.883708 1_555
F15 K1 2.719496 1_654
F15 K4 2.741144 1_655
F15 K3 2.780920 1_555
F15 K5 2.898385 1_655
F16 Ga2 1.862881 1_555
F16 K0 2.705992 1_655
F16 K5 2.729916 1_645
F16 K2 2.819305 1_545
F16 K4 2.883708 1_655
F17 K1 2.719496 1_554
F17 K4 2.741144 1_555
F17 K3 2.780920 1_555
F17 K5 2.898385 1_555
F18 Ga0 1.863600 1_555
F18 K2 2.708389 1_555
F18 K7 2.718977 1_565
F18 K0 2.812081 1_565
F18 K6 2.888377 1_555
F19 Ga1 1.859695 1_555
F19 K3 2.708021 1_456
F19 K6 2.725229 1_455
F19 K1 2.814161 1_555
F19 K7 2.902873 1_455
