# generated using pymatgen
data_Sc12InCo4Rh
_symmetry_space_group_name_H-M   'P 1'
_cell_length_a   7.71069969
_cell_length_b   7.71069919
_cell_length_c   7.71069935
_cell_angle_alpha   110.83162817
_cell_angle_beta   111.30454311
_cell_angle_gamma   106.32299925
_symmetry_Int_Tables_number   1
_chemical_formula_structural   Sc12InCo4Rh
_chemical_formula_sum   'Sc12 In1 Co4 Rh1'
_cell_volume   352.10643587
_cell_formula_units_Z   1
loop_
 _symmetry_equiv_pos_site_id
 _symmetry_equiv_pos_as_xyz
  1  'x, y, z'
loop_
 _atom_site_type_symbol
 _atom_site_label
 _atom_site_symmetry_multiplicity
 _atom_site_fract_x
 _atom_site_fract_y
 _atom_site_fract_z
 _atom_site_occupancy
  Sc  Sc0  1  0.42062176  0.22143404  0.19918672  1
  Sc  Sc1  1  0.57937824  0.77856596  0.80081328  1
  Sc  Sc2  1  0.02224732  0.22143404  0.80081328  1
  Sc  Sc3  1  0.97775268  0.77856596  0.19918672  1
  Sc  Sc4  1  0.31208964  0.61366794  0.30157730  1
  Sc  Sc5  1  0.68791036  0.38633206  0.69842270  1
  Sc  Sc6  1  0.31208964  0.01051134  0.69842270  1
  Sc  Sc7  1  0.68791036  0.98948866  0.30157730  1
  Sc  Sc8  1  0.18765348  0.28268247  0.47033695  1
  Sc  Sc9  1  0.81234652  0.71731653  0.52966305  1
  Sc  Sc10  1  0.18765348  0.71731653  0.90497002  1
  Sc  Sc11  1  0.81234652  0.28268247  0.09502998  1
  In  In0  1  0.50000000  0.50000000  0.00000000  1
  Co  Co0  1  0.37169100  1.00000000  0.37169100  1
  Co  Co1  1  0.62830900  0.00000000  0.62830900  1
  Co  Co2  1  0.11590204  0.61590204  0.50000000  1
  Co  Co3  1  0.88409796  0.38409796  0.50000000  1
  Rh  Rh0  1  0.00000000  0.00000000  0.00000000  1
loop_
_geom_bond_atom_site_label_1
_geom_bond_atom_site_label_2
_geom_bond_distance
_geom_bond_site_symmetry_2
In0 Sc1 3.104452 1_554
In0 Sc0 3.104452 1_555
In0 Sc3 3.104453 1_555
In0 Sc2 3.104453 1_554
In0 Sc4 3.160290 1_555
In0 Sc5 3.160290 1_554
In0 Sc6 3.160295 1_554
In0 Sc7 3.160295 1_555
In0 Sc8 3.317319 1_554
In0 Sc9 3.317320 1_555
In0 Sc10 3.317320 1_554
In0 Sc11 3.317326 1_555
Co0 Co1 2.232825 1_565
Co0 Sc3 2.538641 1_455
Co0 Sc0 2.538642 1_565
Co0 Sc4 2.698475 1_555
Co0 Sc5 2.698479 1_565
Co0 Sc7 2.698481 1_555
Co0 Sc6 2.698485 1_565
Co0 Sc8 2.947382 1_565
Co0 Sc10 2.947388 1_554
Co1 Sc2 2.538641 1_655
Co1 Sc1 2.538642 1_545
Co1 Sc5 2.698475 1_555
Co1 Sc4 2.698479 1_545
Co1 Sc6 2.698481 1_555
Co1 Sc7 2.698485 1_545
Co1 Sc11 2.947386 1_556
Co1 Sc9 2.947388 1_545
Co2 Co3 2.143279 1_455
Co2 Sc6 2.511413 1_565
Co2 Sc4 2.511420 1_555
Co2 Sc10 2.726346 1_555
Co2 Sc9 2.726346 1_455
Co2 Sc11 2.726348 1_455
Co2 Sc8 2.726353 1_555
Co2 Sc1 3.018708 1_555
Co2 Sc3 3.018714 1_455
Co3 Sc7 2.511413 1_545
Co3 Sc5 2.511420 1_555
Co3 Sc11 2.726344 1_555
Co3 Sc10 2.726346 1_655
Co3 Sc9 2.726346 1_555
Co3 Sc8 2.726350 1_655
Co3 Sc0 3.018708 1_555
Co3 Sc2 3.018714 1_655
Rh0 Sc2 2.682448 1_554
Rh0 Sc3 2.682448 1_445
Rh0 Sc0 2.682454 1_555
Rh0 Sc1 2.682454 1_444
Rh0 Sc11 2.964593 1_455
Rh0 Sc8 2.964598 1_555
Rh0 Sc9 2.964599 1_444
Rh0 Sc10 2.964599 1_544
