# generated using pymatgen
data_Y2BeCoSi4
_symmetry_space_group_name_H-M   'P 1'
_cell_length_a   8.45265049
_cell_length_b   8.45265066
_cell_length_c   3.92376942
_cell_angle_alpha   90.00000000
_cell_angle_beta   90.00000000
_cell_angle_gamma   152.86573179
_symmetry_Int_Tables_number   1
_chemical_formula_structural   Y2BeCoSi4
_chemical_formula_sum   'Y2 Be1 Co1 Si4'
_cell_volume   127.85794652
_cell_formula_units_Z   1
loop_
 _symmetry_equiv_pos_site_id
 _symmetry_equiv_pos_as_xyz
  1  'x, y, z'
loop_
 _atom_site_type_symbol
 _atom_site_label
 _atom_site_symmetry_multiplicity
 _atom_site_fract_x
 _atom_site_fract_y
 _atom_site_fract_z
 _atom_site_occupancy
  Y  Y0  1  0.89831092  0.10168908  0.75000000  1
  Y  Y1  1  0.11300731  0.88699269  0.25000000  1
  Be  Be0  1  0.67043546  0.32956454  0.75000000  1
  Co  Co0  1  0.31895764  0.68104236  0.25000000  1
  Si  Si0  1  0.53747270  0.46252730  0.75000000  1
  Si  Si1  1  0.45530481  0.54469519  0.25000000  1
  Si  Si2  1  0.25329713  0.74670287  0.75000000  1
  Si  Si3  1  0.75321402  0.24678598  0.25000000  1
loop_
_geom_bond_atom_site_label_1
_geom_bond_atom_site_label_2
_geom_bond_distance
_geom_bond_site_symmetry_2
Be0 Si0 2.185053 1_555
Be0 Si3 2.387370 1_555
Be0 Si3 2.387370 1_556
Be0 Si2 2.405411 1_655
Be0 Si2 2.405411 1_545
Be0 Y1 2.944723 1_545
Be0 Y1 2.944723 1_546
Be0 Y1 2.944723 1_656
Be0 Y1 2.944723 1_655
Co0 Si2 2.239043 1_554
Co0 Si2 2.239043 1_555
Co0 Si1 2.240671 1_555
Co0 Si3 2.258098 1_455
Co0 Si3 2.258098 1_565
Co0 Y0 3.079171 1_565
Co0 Y0 3.079171 1_564
Co0 Y0 3.079171 1_455
Co0 Y0 3.079171 1_454
Si0 Si1 2.381666 1_556
Si0 Si1 2.381666 1_555
Si0 Y0 3.026840 1_455
Si0 Y0 3.026841 1_565
Si0 Y1 3.053124 1_656
Si0 Y1 3.053124 1_655
Si0 Y1 3.053124 1_546
Si0 Y1 3.053124 1_545
Si1 Y0 2.942444 1_455
Si1 Y0 2.942444 1_454
Si1 Y0 2.942444 1_565
Si1 Y0 2.942444 1_564
Si1 Y1 3.263159 1_655
Si1 Y1 3.263159 1_545
Si2 Y1 3.027235 1_556
Si2 Y1 3.027235 1_555
Si2 Y0 3.100141 1_565
Si2 Y0 3.100142 1_455
Si3 Y1 3.039836 1_545
Si3 Y1 3.039836 1_655
Si3 Y0 3.087822 1_555
Si3 Y0 3.087822 1_554
