# generated using pymatgen
data_Ba3InRh2O9
_symmetry_space_group_name_H-M   'P 1'
_cell_length_a   5.84146520
_cell_length_b   5.84146456
_cell_length_c   14.45569210
_cell_angle_alpha   90.00000000
_cell_angle_beta   90.00000000
_cell_angle_gamma   120.00000908
_symmetry_Int_Tables_number   1
_chemical_formula_structural   Ba3InRh2O9
_chemical_formula_sum   'Ba6 In2 Rh4 O18'
_cell_volume   427.18207541
_cell_formula_units_Z   2
loop_
 _symmetry_equiv_pos_site_id
 _symmetry_equiv_pos_as_xyz
  1  'x, y, z'
loop_
 _atom_site_type_symbol
 _atom_site_label
 _atom_site_symmetry_multiplicity
 _atom_site_fract_x
 _atom_site_fract_y
 _atom_site_fract_z
 _atom_site_occupancy
  Ba  Ba0  1  0.33333300  0.66666700  0.58759335  1
  Ba  Ba1  1  0.66666700  0.33333300  0.08759335  1
  Ba  Ba2  1  0.66666700  0.33333300  0.41240665  1
  Ba  Ba3  1  0.33333300  0.66666700  0.91240665  1
  Ba  Ba4  1  0.00000000  0.00000000  0.75000000  1
  Ba  Ba5  1  0.00000000  0.00000000  0.25000000  1
  In  In0  1  0.00000000  0.00000000  0.50000000  1
  In  In1  1  0.00000000  0.00000000  0.00000000  1
  Rh  Rh0  1  0.33333300  0.66666700  0.34001051  1
  Rh  Rh1  1  0.66666700  0.33333300  0.84001051  1
  Rh  Rh2  1  0.66666700  0.33333300  0.65998949  1
  Rh  Rh3  1  0.33333300  0.66666700  0.15998949  1
  O  O0  1  0.17241604  0.82758396  0.08460503  1
  O  O1  1  0.17241604  0.34483307  0.08460503  1
  O  O2  1  0.65516693  0.82758396  0.08460503  1
  O  O3  1  0.34483307  0.17241604  0.58460503  1
  O  O4  1  0.82758396  0.65516693  0.91539497  1
  O  O5  1  0.82758396  0.17241604  0.58460503  1
  O  O6  1  0.82758396  0.65516693  0.58460503  1
  O  O7  1  0.17241604  0.82758396  0.41539497  1
  O  O8  1  0.65516693  0.82758396  0.41539497  1
  O  O9  1  0.34483307  0.17241604  0.91539497  1
  O  O10  1  0.82758396  0.17241604  0.91539497  1
  O  O11  1  0.17241604  0.34483307  0.41539497  1
  O  O12  1  0.48394920  0.96789940  0.25000000  1
  O  O13  1  0.51605080  0.48394920  0.75000000  1
  O  O14  1  0.96789940  0.48394920  0.75000000  1
  O  O15  1  0.03210060  0.51605080  0.25000000  1
  O  O16  1  0.48394920  0.51605080  0.25000000  1
  O  O17  1  0.51605080  0.03210060  0.75000000  1
loop_
_geom_bond_atom_site_label_1
_geom_bond_atom_site_label_2
_geom_bond_distance
_geom_bond_site_symmetry_2
Ba0 O3 2.921625 1_565
Ba0 O6 2.921625 1_455
Ba0 O5 2.921631 1_565
Ba0 O5 2.921631 1_455
Ba0 O3 2.921637 1_555
Ba0 O6 2.921637 1_555
Ba0 O11 2.974407 1_555
Ba0 O8 2.974407 1_555
Ba0 O7 2.974407 1_555
Ba0 O17 2.988194 1_565
Ba0 O14 2.988194 1_455
Ba0 O13 2.988200 1_555
Ba1 O2 2.921625 1_545
Ba1 O1 2.921625 1_655
Ba1 O0 2.921631 1_545
Ba1 O0 2.921631 1_655
Ba1 O2 2.921637 1_555
Ba1 O1 2.921637 1_555
Ba1 O4 2.974407 1_554
Ba1 O9 2.974407 1_554
Ba1 O10 2.974407 1_554
Ba1 O12 2.988194 1_545
Ba1 O15 2.988194 1_655
Ba1 O16 2.988200 1_555
Ba2 O8 2.921625 1_545
Ba2 O11 2.921625 1_655
Ba2 O7 2.921631 1_545
Ba2 O7 2.921631 1_655
Ba2 O8 2.921637 1_555
Ba2 O11 2.921637 1_555
Ba2 O6 2.974407 1_555
Ba2 O3 2.974407 1_555
Ba2 O5 2.974407 1_555
Ba2 O12 2.988194 1_545
Ba2 O15 2.988194 1_655
Ba2 O16 2.988200 1_555
Ba3 O9 2.921625 1_565
Ba3 O4 2.921625 1_455
Ba3 O10 2.921631 1_565
Ba3 O10 2.921631 1_455
Ba3 O9 2.921637 1_555
Ba3 O4 2.921637 1_555
Ba3 O1 2.974407 1_556
Ba3 O2 2.974407 1_556
Ba3 O0 2.974407 1_556
Ba3 O17 2.988194 1_565
Ba3 O14 2.988194 1_455
Ba3 O13 2.988200 1_555
Ba4 O14 2.925240 1_455
Ba4 O17 2.925241 1_455
Ba4 O13 2.925243 1_445
Ba4 O13 2.925243 1_555
Ba4 O14 2.925246 1_445
Ba4 O17 2.925247 1_555
Ba4 O10 2.959649 1_455
Ba4 O5 2.959649 1_455
Ba4 O4 2.959652 1_445
Ba4 O6 2.959652 1_445
Ba4 O9 2.959652 1_555
Ba4 O3 2.959652 1_555
Ba5 O15 2.925240 1_545
Ba5 O12 2.925241 1_545
Ba5 O16 2.925243 1_555
Ba5 O16 2.925243 1_445
Ba5 O15 2.925246 1_555
Ba5 O12 2.925247 1_445
Ba5 O7 2.959649 1_545
Ba5 O0 2.959649 1_545
Ba5 O11 2.959652 1_555
Ba5 O1 2.959652 1_555
Ba5 O8 2.959652 1_445
Ba5 O2 2.959652 1_445
In0 O5 2.130473 1_455
In0 O7 2.130473 1_545
In0 O6 2.130477 1_445
In0 O11 2.130477 1_555
In0 O3 2.130477 1_555
In0 O8 2.130477 1_445
In1 O0 2.130473 1_545
In1 O10 2.130473 1_454
In1 O1 2.130477 1_555
In1 O4 2.130477 1_444
In1 O2 2.130477 1_445
In1 O9 2.130477 1_554
O0 Rh3 1.959150 1_555
O1 Rh3 1.959150 1_555
O2 Rh3 1.959150 1_555
O3 Rh2 1.959150 1_555
O4 Rh1 1.959150 1_555
O5 Rh2 1.959150 1_555
O6 Rh2 1.959150 1_555
O7 Rh0 1.959150 1_555
O8 Rh0 1.959150 1_555
O9 Rh1 1.959150 1_555
O10 Rh1 1.959150 1_555
O11 Rh0 1.959150 1_555
O12 Rh0 2.003815 1_555
O12 Rh3 2.003815 1_555
O13 Rh1 2.003815 1_555
O13 Rh2 2.003815 1_555
O14 Rh1 2.003815 1_555
O14 Rh2 2.003815 1_555
O15 Rh0 2.003815 1_555
O15 Rh3 2.003815 1_555
O16 Rh0 2.003815 1_555
O16 Rh3 2.003815 1_555
O17 Rh1 2.003815 1_555
O17 Rh2 2.003815 1_555
