# generated using pymatgen
data_Np3Al
_symmetry_space_group_name_H-M   'P 1'
_cell_length_a   4.30680900
_cell_length_b   4.30680900
_cell_length_c   4.30680900
_cell_angle_alpha   90.00000000
_cell_angle_beta   90.00000000
_cell_angle_gamma   90.00000000
_symmetry_Int_Tables_number   1
_chemical_formula_structural   Np3Al
_chemical_formula_sum   'Np3 Al1'
_cell_volume   79.88529362
_cell_formula_units_Z   1
loop_
 _symmetry_equiv_pos_site_id
 _symmetry_equiv_pos_as_xyz
  1  'x, y, z'
loop_
 _atom_site_type_symbol
 _atom_site_label
 _atom_site_symmetry_multiplicity
 _atom_site_fract_x
 _atom_site_fract_y
 _atom_site_fract_z
 _atom_site_occupancy
  Np  Np0  1  0.50000000  0.50000000  0.00000000  1
  Np  Np1  1  0.50000000  0.00000000  0.50000000  1
  Np  Np2  1  0.00000000  0.50000000  0.50000000  1
  Al  Al0  1  0.00000000  0.00000000  0.00000000  1
loop_
_geom_bond_atom_site_label_1
_geom_bond_atom_site_label_2
_geom_bond_distance
_geom_bond_site_symmetry_2
Np0 Np2 3.045374 1_655
Np0 Np1 3.045374 1_564
Np0 Np2 3.045374 1_555
Np0 Np1 3.045374 1_554
Np0 Np2 3.045374 1_654
Np0 Np2 3.045374 1_554
Np0 Np1 3.045374 1_565
Np0 Np1 3.045374 1_555
Np1 Np2 3.045374 1_545
Np1 Np2 3.045374 1_555
Np1 Np2 3.045374 1_655
Np1 Np2 3.045374 1_645
Al0 Np0 3.045374 1_455
Al0 Np2 3.045374 1_544
Al0 Np2 3.045374 1_545
Al0 Np1 3.045374 1_455
Al0 Np2 3.045374 1_555
Al0 Np0 3.045374 1_555
Al0 Np0 3.045374 1_445
Al0 Np1 3.045374 1_554
Al0 Np0 3.045374 1_545
Al0 Np2 3.045374 1_554
Al0 Np1 3.045374 1_454
Al0 Np1 3.045374 1_555
