# generated using pymatgen
data_RbBaH9W
_symmetry_space_group_name_H-M   'P 1'
_cell_length_a   9.67209094
_cell_length_b   9.67209029
_cell_length_c   5.66302966
_cell_angle_alpha   90.00000000
_cell_angle_beta   90.00000000
_cell_angle_gamma   120.00000554
_symmetry_Int_Tables_number   1
_chemical_formula_structural   RbBaH9W
_chemical_formula_sum   'Rb3 Ba3 H27 W3'
_cell_volume   458.79656479
_cell_formula_units_Z   3
loop_
 _symmetry_equiv_pos_site_id
 _symmetry_equiv_pos_as_xyz
  1  'x, y, z'
loop_
 _atom_site_type_symbol
 _atom_site_label
 _atom_site_symmetry_multiplicity
 _atom_site_fract_x
 _atom_site_fract_y
 _atom_site_fract_z
 _atom_site_occupancy
  Rb  Rb0  1  0.00000000  0.59122779  0.00000000  1
  Rb  Rb1  1  0.40877221  0.40877221  0.00000000  1
  Rb  Rb2  1  0.59122779  0.00000000  0.00000000  1
  Ba  Ba0  1  0.00000000  0.27273724  0.50000000  1
  Ba  Ba1  1  0.72726276  0.72726276  0.50000000  1
  Ba  Ba2  1  0.27273724  0.00000000  0.50000000  1
  H  H0  1  0.78185360  0.31131395  0.72556897  1
  H  H1  1  0.68868605  0.47053965  0.72556897  1
  H  H2  1  0.52946035  0.21814640  0.72556897  1
  H  H3  1  0.21814640  0.52946035  0.27443103  1
  H  H4  1  0.52946035  0.21814640  0.27443103  1
  H  H5  1  0.78185360  0.31131395  0.27443103  1
  H  H6  1  0.68868605  0.47053965  0.27443103  1
  H  H7  1  0.31131395  0.78185360  0.72556897  1
  H  H8  1  0.47053965  0.68868605  0.72556897  1
  H  H9  1  0.18106382  1.00000000  0.00000000  1
  H  H10  1  0.81893618  0.81893618  0.00000000  1
  H  H11  1  1.00000000  0.18106382  0.00000000  1
  H  H12  1  0.87057662  0.00000000  0.22179234  1
  H  H13  1  0.12942338  0.12942338  0.77820766  1
  H  H14  1  0.00000000  0.87057662  0.77820766  1
  H  H15  1  0.00000000  0.87057662  0.22179234  1
  H  H16  1  0.12942338  0.12942338  0.22179234  1
  H  H17  1  0.87057662  0.00000000  0.77820766  1
  H  H18  1  0.14045410  0.63808067  0.50000000  1
  H  H19  1  0.49762657  0.85954590  0.50000000  1
  H  H20  1  0.36191933  0.50237343  0.50000000  1
  H  H21  1  0.50237343  0.36191933  0.50000000  1
  H  H22  1  0.85954590  0.49762657  0.50000000  1
  H  H23  1  0.63808067  0.14045410  0.50000000  1
  H  H24  1  0.21814640  0.52946035  0.72556897  1
  H  H25  1  0.31131395  0.78185360  0.27443103  1
  H  H26  1  0.47053965  0.68868605  0.27443103  1
  W  W0  1  0.66666700  0.33333300  0.50000000  1
  W  W1  1  0.33333300  0.66666700  0.50000000  1
  W  W2  1  0.00000000  0.00000000  0.00000000  1
loop_
_geom_bond_atom_site_label_1
_geom_bond_atom_site_label_2
_geom_bond_distance
_geom_bond_site_symmetry_2
Ba0 H3 2.647648 1_555
Ba0 H24 2.647648 1_555
Ba0 H5 2.647648 1_455
Ba0 H0 2.647648 1_455
Ba0 H17 2.775923 1_455
Ba0 H12 2.775923 1_455
Ba0 H13 2.775923 1_555
Ba0 H16 2.775923 1_555
Ba1 H6 2.647648 1_555
Ba1 H1 2.647648 1_555
Ba1 H26 2.647648 1_555
Ba1 H8 2.647648 1_555
Ba1 H17 2.775923 1_565
Ba1 H12 2.775923 1_565
Ba1 H14 2.775923 1_655
Ba1 H15 2.775923 1_655
Ba2 H4 2.647648 1_555
Ba2 H2 2.647648 1_555
Ba2 H25 2.647648 1_545
Ba2 H7 2.647648 1_545
Ba2 H14 2.775923 1_545
Ba2 H15 2.775923 1_545
Ba2 H13 2.775923 1_555
Ba2 H16 2.775923 1_555
H0 W0 1.776399 1_555
H0 Rb0 2.912816 1_656
H0 Rb2 3.054423 1_556
H1 W0 1.776406 1_555
H1 Rb1 2.912817 1_556
H1 Rb0 3.054423 1_656
H2 W0 1.776403 1_555
H2 Rb2 2.912817 1_556
H2 Rb1 3.054423 1_556
H3 W1 1.776403 1_555
H3 Rb0 2.912817 1_555
H3 Rb1 3.054423 1_555
H4 W0 1.776403 1_555
H4 Rb2 2.912817 1_555
H4 Rb1 3.054423 1_555
H5 W0 1.776399 1_555
H5 Rb0 2.912816 1_655
H5 Rb2 3.054423 1_555
H6 W0 1.776406 1_555
H6 Rb1 2.912817 1_555
H6 Rb0 3.054423 1_655
H7 W1 1.776399 1_555
H7 Rb2 2.912816 1_566
H7 Rb0 3.054423 1_556
H8 W1 1.776406 1_555
H8 Rb1 2.912816 1_556
H8 Rb2 3.054423 1_566
H9 W2 1.751266 1_565
H10 W2 1.751265 1_665
H11 W2 1.751266 1_655
H12 W2 1.773293 1_655
H12 Rb2 2.979559 1_555
H13 W2 1.773293 1_556
H13 Rb1 2.979559 1_556
H14 W2 1.773293 1_566
H14 Rb0 2.979559 1_556
H15 W2 1.773293 1_565
H15 Rb0 2.979559 1_555
H16 W2 1.773293 1_555
H16 Rb1 2.979559 1_555
H17 W2 1.773293 1_656
H17 Rb2 2.979559 1_556
H18 W1 1.743815 1_555
H18 Rb0 3.074524 1_555
H18 Rb0 3.074524 1_556
H19 W1 1.743819 1_555
H19 Rb2 3.074524 1_566
H19 Rb2 3.074524 1_565
H20 W1 1.743825 1_555
H20 Rb1 3.074524 1_556
H20 Rb1 3.074524 1_555
H21 W0 1.743825 1_555
H21 Rb1 3.074524 1_555
H21 Rb1 3.074524 1_556
H22 W0 1.743819 1_555
H22 Rb0 3.074524 1_656
H22 Rb0 3.074524 1_655
H23 W0 1.743815 1_555
H23 Rb2 3.074524 1_556
H23 Rb2 3.074524 1_555
H24 W1 1.776403 1_555
H24 Rb0 2.912817 1_556
H24 Rb1 3.054423 1_556
H25 W1 1.776399 1_555
H25 Rb2 2.912816 1_565
H25 Rb0 3.054423 1_555
H26 W1 1.776406 1_555
H26 Rb1 2.912816 1_555
H26 Rb2 3.054423 1_565
