# generated using pymatgen
data_In5S5Cl
_symmetry_space_group_name_H-M   'P 1'
_cell_length_a   3.93566459
_cell_length_b   8.98407145
_cell_length_c   15.22695980
_cell_angle_alpha   86.31215477
_cell_angle_beta   90.00000000
_cell_angle_gamma   90.00000000
_symmetry_Int_Tables_number   1
_chemical_formula_structural   In5S5Cl
_chemical_formula_sum   'In10 S10 Cl2'
_cell_volume   537.28441789
_cell_formula_units_Z   2
loop_
 _symmetry_equiv_pos_site_id
 _symmetry_equiv_pos_as_xyz
  1  'x, y, z'
loop_
 _atom_site_type_symbol
 _atom_site_label
 _atom_site_symmetry_multiplicity
 _atom_site_fract_x
 _atom_site_fract_y
 _atom_site_fract_z
 _atom_site_occupancy
  In  In0  1  0.25000000  0.65730106  0.55419490  1
  In  In1  1  0.75000000  0.34269894  0.44580510  1
  In  In2  1  0.25000000  0.13584683  0.93654120  1
  In  In3  1  0.75000000  0.86415317  0.06345880  1
  In  In4  1  0.75000000  0.95632161  0.64522938  1
  In  In5  1  0.25000000  0.04367839  0.35477062  1
  In  In6  1  0.75000000  0.23782163  0.70857017  1
  In  In7  1  0.25000000  0.76217837  0.29142983  1
  In  In8  1  0.75000000  0.63026692  0.84264448  1
  In  In9  1  0.25000000  0.36973308  0.15735552  1
  S  S0  1  0.75000000  0.46529814  0.59931499  1
  S  S1  1  0.25000000  0.53470186  0.40068501  1
  S  S2  1  0.75000000  0.83328497  0.50093259  1
  S  S3  1  0.25000000  0.16671503  0.49906741  1
  S  S4  1  0.25000000  0.31713911  0.80027154  1
  S  S5  1  0.75000000  0.68286089  0.19972846  1
  S  S6  1  0.75000000  0.96573228  0.90030815  1
  S  S7  1  0.25000000  0.03426772  0.09969185  1
  S  S8  1  0.25000000  0.79089792  0.70289100  1
  S  S9  1  0.75000000  0.20910208  0.29710900  1
  Cl  Cl0  1  0.75000000  0.32711358  0.99302577  1
  Cl  Cl1  1  0.25000000  0.67288642  0.00697423  1
loop_
_geom_bond_atom_site_label_1
_geom_bond_atom_site_label_2
_geom_bond_distance
_geom_bond_site_symmetry_2
In0 S2 2.620094 1_455
In0 S2 2.620094 1_555
In0 S8 2.629968 1_555
In0 S1 2.647305 1_555
In0 S0 2.677209 1_555
In0 S0 2.677209 1_455
In1 S3 2.620094 1_555
In1 S3 2.620094 1_655
In1 S9 2.629968 1_555
In1 S0 2.647305 1_555
In1 S1 2.677209 1_555
In1 S1 2.677209 1_655
In2 S4 2.554126 1_555
In2 S6 2.573129 1_445
In2 S6 2.573129 1_545
In2 S7 2.590920 1_556
In3 S5 2.554126 1_555
In3 S7 2.573129 1_665
In3 S7 2.573129 1_565
In3 S6 2.590920 1_554
In4 S2 2.522295 1_555
In4 S8 2.585369 1_655
In4 S8 2.585369 1_555
In5 S3 2.522295 1_555
In5 S9 2.585369 1_455
In5 S9 2.585369 1_555
In6 S4 2.541240 1_555
In6 S4 2.541240 1_655
In6 S0 2.550852 1_555
In7 S5 2.541240 1_455
In7 S5 2.541240 1_555
In7 S1 2.550852 1_555
In8 S8 3.176220 1_555
In8 S8 3.176220 1_655
In8 S6 3.192905 1_555
In9 S9 3.176220 1_555
In9 S9 3.176220 1_455
In9 S7 3.192905 1_555
Cl0 In2 2.784777 1_555
Cl0 In2 2.784777 1_655
Cl0 In9 3.225437 1_556
Cl0 In9 3.225437 1_656
Cl1 In3 2.784777 1_555
Cl1 In3 2.784777 1_455
Cl1 In8 3.225437 1_454
Cl1 In8 3.225437 1_554
