# generated using pymatgen
data_Sc5HgBi2
_symmetry_space_group_name_H-M   'P 1'
_cell_length_a   7.70391101
_cell_length_b   8.88146852
_cell_length_c   11.28253102
_cell_angle_alpha   90.00000000
_cell_angle_beta   90.00000000
_cell_angle_gamma   90.00000000
_symmetry_Int_Tables_number   1
_chemical_formula_structural   Sc5HgBi2
_chemical_formula_sum   'Sc20 Hg4 Bi8'
_cell_volume   771.97382399
_cell_formula_units_Z   4
loop_
 _symmetry_equiv_pos_site_id
 _symmetry_equiv_pos_as_xyz
  1  'x, y, z'
loop_
 _atom_site_type_symbol
 _atom_site_label
 _atom_site_symmetry_multiplicity
 _atom_site_fract_x
 _atom_site_fract_y
 _atom_site_fract_z
 _atom_site_occupancy
  Sc  Sc0  1  0.03369841  0.25000000  0.50858783  1
  Sc  Sc1  1  0.96630159  0.75000000  0.49141217  1
  Sc  Sc2  1  0.46630159  0.75000000  0.00858783  1
  Sc  Sc3  1  0.53369841  0.25000000  0.99141217  1
  Sc  Sc4  1  0.34626416  0.25000000  0.29103662  1
  Sc  Sc5  1  0.65373584  0.75000000  0.70896338  1
  Sc  Sc6  1  0.15373584  0.75000000  0.79103662  1
  Sc  Sc7  1  0.84626416  0.25000000  0.20896338  1
  Sc  Sc8  1  0.18349994  0.25000000  0.78299049  1
  Sc  Sc9  1  0.81650006  0.75000000  0.21700951  1
  Sc  Sc10  1  0.31650006  0.75000000  0.28299049  1
  Sc  Sc11  1  0.68349994  0.25000000  0.71700951  1
  Sc  Sc12  1  0.19149634  0.06271773  0.05722291  1
  Sc  Sc13  1  0.80850366  0.93728227  0.94277709  1
  Sc  Sc14  1  0.30850366  0.93728227  0.55722291  1
  Sc  Sc15  1  0.80850366  0.56271773  0.94277709  1
  Sc  Sc16  1  0.69149634  0.06271773  0.44277709  1
  Sc  Sc17  1  0.19149634  0.43728227  0.05722291  1
  Sc  Sc18  1  0.69149634  0.43728227  0.44277709  1
  Sc  Sc19  1  0.30850366  0.56271773  0.55722291  1
  Hg  Hg0  1  0.40743869  0.25000000  0.53844221  1
  Hg  Hg1  1  0.59256131  0.75000000  0.46155779  1
  Hg  Hg2  1  0.09256131  0.75000000  0.03844221  1
  Hg  Hg3  1  0.90743869  0.25000000  0.96155779  1
  Bi  Bi0  1  0.05795721  0.00132438  0.32185209  1
  Bi  Bi1  1  0.94204279  0.99867562  0.67814791  1
  Bi  Bi2  1  0.44204279  0.99867562  0.82185209  1
  Bi  Bi3  1  0.94204279  0.50132438  0.67814791  1
  Bi  Bi4  1  0.55795721  0.00132438  0.17814791  1
  Bi  Bi5  1  0.05795721  0.49867562  0.32185209  1
  Bi  Bi6  1  0.55795721  0.49867562  0.17814791  1
  Bi  Bi7  1  0.44204279  0.50132438  0.82185209  1
loop_
_geom_bond_atom_site_label_1
_geom_bond_atom_site_label_2
_geom_bond_distance
_geom_bond_site_symmetry_2
Sc0 Sc18 3.204384 1_455
Sc0 Sc16 3.204384 1_455
Sc0 Sc8 3.304057 1_555
Sc0 Sc4 3.438469 1_555
Sc0 Sc19 3.535112 1_555
Sc0 Sc14 3.535112 1_545
Sc0 Sc11 3.578871 1_455
Sc0 Sc7 3.676003 1_455
Sc1 Sc14 3.204384 1_655
Sc1 Sc19 3.204384 1_655
Sc1 Sc9 3.304057 1_555
Sc1 Sc5 3.438469 1_555
Sc1 Sc16 3.535112 1_565
Sc1 Sc18 3.535112 1_555
Sc1 Sc10 3.578871 1_655
Sc1 Sc6 3.676003 1_655
Sc2 Sc6 3.438469 1_554
Sc2 Sc9 3.578871 1_555
Sc2 Sc5 3.676003 1_554
Sc3 Sc7 3.438469 1_556
Sc3 Sc8 3.578871 1_555
Sc3 Sc4 3.676003 1_556
Sc10 Sc2 3.304057 1_555
Sc10 Sc14 3.513340 1_555
Sc10 Sc19 3.513340 1_555
Sc11 Sc3 3.304057 1_555
Sc11 Sc18 3.513340 1_555
Sc11 Sc16 3.513340 1_555
Sc12 Sc3 3.204384 1_554
Sc12 Sc17 3.326683 1_555
Sc12 Sc4 3.338776 1_555
Sc12 Sc13 3.407947 1_444
Sc12 Sc8 3.513340 1_554
Sc12 Sc2 3.535112 1_545
Sc12 Sc7 3.573707 1_455
Sc13 Sc2 3.204384 1_556
Sc13 Sc15 3.326683 1_555
Sc13 Sc5 3.338776 1_555
Sc13 Sc9 3.513340 1_556
Sc13 Sc3 3.535112 1_565
Sc13 Sc6 3.573707 1_655
Sc14 Sc19 3.326683 1_555
Sc14 Sc6 3.338776 1_555
Sc14 Sc16 3.407947 1_565
Sc14 Sc5 3.573707 1_555
Sc15 Sc2 3.204384 1_556
Sc15 Sc5 3.338776 1_555
Sc15 Sc17 3.407947 1_656
Sc15 Sc9 3.513340 1_556
Sc15 Sc3 3.535112 1_555
Sc15 Sc6 3.573707 1_655
Sc16 Sc18 3.326683 1_555
Sc16 Sc7 3.338776 1_555
Sc16 Sc4 3.573707 1_555
Sc17 Sc3 3.204384 1_554
Sc17 Sc4 3.338776 1_555
Sc17 Sc8 3.513340 1_554
Sc17 Sc2 3.535112 1_555
Sc17 Sc7 3.573707 1_455
Sc18 Sc7 3.338776 1_555
Sc18 Sc19 3.407947 1_555
Sc18 Sc4 3.573707 1_555
Sc19 Sc6 3.338776 1_555
Sc19 Sc5 3.573707 1_555
Hg0 Sc4 2.830867 1_555
Hg0 Sc19 2.887860 1_555
Hg0 Sc14 2.887860 1_545
Hg0 Sc0 2.898897 1_555
Hg0 Sc11 2.929514 1_555
Hg0 Sc18 2.953064 1_555
Hg0 Sc16 2.953064 1_555
Hg0 Sc8 3.254088 1_555
Hg1 Sc5 2.830867 1_555
Hg1 Sc16 2.887860 1_565
Hg1 Sc18 2.887860 1_555
Hg1 Sc1 2.898897 1_555
Hg1 Sc10 2.929514 1_555
Hg1 Sc14 2.953064 1_555
Hg1 Sc19 2.953064 1_555
Hg1 Sc9 3.254088 1_555
Hg2 Sc6 2.830867 1_554
Hg2 Sc12 2.887860 1_565
Hg2 Sc17 2.887860 1_555
Hg2 Sc2 2.898897 1_555
Hg2 Sc9 2.929514 1_455
Hg2 Sc13 2.953064 1_454
Hg2 Sc15 2.953064 1_454
Hg2 Sc10 3.254088 1_555
Hg3 Sc7 2.830867 1_556
Hg3 Sc15 2.887860 1_555
Hg3 Sc13 2.887860 1_545
Hg3 Sc3 2.898897 1_555
Hg3 Sc8 2.929514 1_655
Hg3 Sc17 2.953064 1_656
Hg3 Sc12 2.953064 1_656
Hg3 Sc11 3.254088 1_555
Bi0 Sc1 3.023378 1_445
Bi0 Sc10 3.023554 1_545
Bi0 Sc7 3.026531 1_455
Bi0 Sc0 3.058053 1_555
Bi0 Sc9 3.137171 1_445
Bi0 Sc4 3.151517 1_555
Bi0 Sc16 3.182623 1_455
Bi0 Sc12 3.204686 1_555
Bi0 Sc14 3.331853 1_545
Bi1 Sc0 3.023378 1_665
Bi1 Sc11 3.023554 1_565
Bi1 Sc6 3.026531 1_655
Bi1 Sc1 3.058053 1_555
Bi1 Sc8 3.137171 1_665
Bi1 Sc5 3.151517 1_555
Bi1 Sc14 3.182623 1_655
Bi1 Sc13 3.204686 1_555
Bi1 Sc16 3.331853 1_565
Bi2 Sc3 3.023378 1_565
Bi2 Sc8 3.023554 1_565
Bi2 Sc5 3.026531 1_555
Bi2 Sc2 3.058053 1_556
Bi2 Sc11 3.137171 1_565
Bi2 Sc6 3.151517 1_555
Bi2 Sc13 3.182623 1_555
Bi2 Sc14 3.204686 1_555
Bi2 Sc12 3.331853 1_566
Bi3 Sc0 3.023378 1_655
Bi3 Sc11 3.023554 1_555
Bi3 Sc6 3.026531 1_655
Bi3 Sc1 3.058053 1_555
Bi3 Sc8 3.137171 1_655
Bi3 Sc5 3.151517 1_555
Bi3 Sc19 3.182623 1_655
Bi3 Sc15 3.204686 1_555
Bi3 Sc18 3.331853 1_555
Bi4 Sc2 3.023378 1_545
Bi4 Sc9 3.023554 1_545
Bi4 Sc4 3.026531 1_555
Bi4 Sc3 3.058053 1_554
Bi4 Sc10 3.137171 1_545
Bi4 Sc7 3.151517 1_555
Bi4 Sc12 3.182623 1_555
Bi4 Sc16 3.204686 1_555
Bi4 Sc13 3.331853 1_544
Bi5 Sc1 3.023378 1_455
Bi5 Sc10 3.023554 1_555
Bi5 Sc7 3.026531 1_455
Bi5 Sc0 3.058053 1_555
Bi5 Sc9 3.137171 1_455
Bi5 Sc4 3.151517 1_555
Bi5 Sc18 3.182623 1_455
Bi5 Sc17 3.204686 1_555
Bi5 Sc19 3.331853 1_555
Bi6 Sc2 3.023378 1_555
Bi6 Sc9 3.023554 1_555
Bi6 Sc4 3.026531 1_555
Bi6 Sc3 3.058053 1_554
Bi6 Sc10 3.137171 1_555
Bi6 Sc7 3.151517 1_555
Bi6 Sc17 3.182623 1_555
Bi6 Sc18 3.204686 1_555
Bi6 Sc15 3.331853 1_554
Bi7 Sc3 3.023378 1_555
Bi7 Sc8 3.023554 1_555
Bi7 Sc5 3.026531 1_555
Bi7 Sc2 3.058053 1_556
Bi7 Sc11 3.137171 1_555
Bi7 Sc6 3.151517 1_555
Bi7 Sc15 3.182623 1_555
Bi7 Sc19 3.204686 1_555
Bi7 Sc17 3.331853 1_556
