# generated using pymatgen
data_Ba4Zn2AsP3
_symmetry_space_group_name_H-M   'P 1'
_cell_length_a   8.19726084
_cell_length_b   8.12943839
_cell_length_c   8.12943823
_cell_angle_alpha   133.14398362
_cell_angle_beta   130.42527240
_cell_angle_gamma   70.43320314
_symmetry_Int_Tables_number   1
_chemical_formula_structural   Ba4Zn2AsP3
_chemical_formula_sum   'Ba4 Zn2 As1 P3'
_cell_volume   295.10232221
_cell_formula_units_Z   1
loop_
 _symmetry_equiv_pos_site_id
 _symmetry_equiv_pos_as_xyz
  1  'x, y, z'
loop_
 _atom_site_type_symbol
 _atom_site_label
 _atom_site_symmetry_multiplicity
 _atom_site_fract_x
 _atom_site_fract_y
 _atom_site_fract_z
 _atom_site_occupancy
  Ba  Ba0  1  0.66453197  0.85877587  0.80575610  1
  Ba  Ba1  1  0.33802432  0.14060746  0.19741686  1
  Ba  Ba2  1  0.94625344  0.63981207  0.30644237  1
  Ba  Ba3  1  0.05275905  0.36291927  0.68983878  1
  Zn  Zn0  1  0.49527397  0.25288180  0.75252228  1
  Zn  Zn1  1  0.49527397  0.74275169  0.24239217  1
  As  As0  1  0.80807926  0.10745015  0.70062912  1
  P  P0  1  0.40583821  0.60410880  0.80172842  1
  P  P1  1  0.59207315  0.39486563  0.19720852  1
  P  P2  1  0.20189365  0.89582827  0.30606538  1
loop_
_geom_bond_atom_site_label_1
_geom_bond_atom_site_label_2
_geom_bond_distance
_geom_bond_site_symmetry_2
Ba0 Zn1 3.243015 1_555
Ba0 Zn0 3.243015 1_565
Ba0 P1 3.349999 1_555
Ba0 P1 3.350005 1_566
Ba0 P0 3.397344 1_555
Ba0 P2 3.450104 1_555
Ba0 P2 3.466160 1_656
Ba1 Zn0 3.235709 1_555
Ba1 Zn1 3.235709 1_545
Ba1 P2 3.339843 1_545
Ba1 P0 3.344513 1_555
Ba1 P0 3.344519 1_544
Ba1 P1 3.391427 1_555
Ba2 Zn1 3.265747 1_555
Ba2 Zn0 3.265750 1_554
Ba2 P1 3.360544 1_555
Ba2 P2 3.414876 1_655
Ba2 P0 3.417935 1_655
Ba2 P0 3.493282 1_554
Ba3 Zn0 3.204791 1_555
Ba3 Zn1 3.204793 1_556
Ba3 P0 3.316072 1_555
Ba3 P2 3.358788 1_545
Ba3 P2 3.358794 1_556
Ba3 P1 3.393881 1_455
Ba3 P1 3.504246 1_556
As0 Zn1 2.615491 1_545
As0 Zn0 2.615492 1_555
As0 Ba2 3.341538 1_545
As0 Ba2 3.341544 1_556
As0 Ba0 3.385594 1_545
As0 Ba3 3.407514 1_655
As0 Ba1 3.434603 1_656
As0 Ba1 3.467579 1_555
P0 Zn0 2.503245 1_555
P0 Zn1 2.503249 1_556
P1 Zn1 2.493378 1_555
P1 Zn0 2.493382 1_554
P2 Zn0 2.515762 1_565
P2 Zn1 2.515762 1_555
