# generated using pymatgen
data_Cd2OsRuO7
_symmetry_space_group_name_H-M   'P 1'
_cell_length_a   7.20494373
_cell_length_b   7.20243348
_cell_length_c   7.20494354
_cell_angle_alpha   60.01151953
_cell_angle_beta   60.05769944
_cell_angle_gamma   60.01151988
_symmetry_Int_Tables_number   1
_chemical_formula_structural   Cd2OsRuO7
_chemical_formula_sum   'Cd4 Os2 Ru2 O14'
_cell_volume   264.53925081
_cell_formula_units_Z   2
loop_
 _symmetry_equiv_pos_site_id
 _symmetry_equiv_pos_as_xyz
  1  'x, y, z'
loop_
 _atom_site_type_symbol
 _atom_site_label
 _atom_site_symmetry_multiplicity
 _atom_site_fract_x
 _atom_site_fract_y
 _atom_site_fract_z
 _atom_site_occupancy
  Cd  Cd0  1  0.12500000  0.12500000  0.12500000  1
  Cd  Cd1  1  0.62500000  0.12500000  0.12500000  1
  Cd  Cd2  1  0.12500000  0.62500000  0.12500000  1
  Cd  Cd3  1  0.12500000  0.12500000  0.62500000  1
  Os  Os0  1  0.12500000  0.62500000  0.62500000  1
  Os  Os1  1  0.62500000  0.62500000  0.12500000  1
  Ru  Ru0  1  0.62500000  0.62500000  0.62500000  1
  Ru  Ru1  1  0.62500000  0.12500000  0.62500000  1
  O  O0  1  0.24917707  0.25082293  0.24917707  1
  O  O1  1  0.00082293  0.99917707  0.00082293  1
  O  O2  1  0.54934226  0.95065774  0.54934226  1
  O  O3  1  0.29885819  0.70114181  0.29885819  1
  O  O4  1  0.55854373  0.55728311  0.94274139  1
  O  O5  1  0.94274139  0.55728311  0.55854373  1
  O  O6  1  0.55854373  0.94143177  0.94274139  1
  O  O7  1  0.94274139  0.94143177  0.55854373  1
  O  O8  1  0.95114181  0.54885819  0.95114181  1
  O  O9  1  0.69145627  0.30856823  0.30725861  1
  O  O10  1  0.30725861  0.69271689  0.69145627  1
  O  O11  1  0.70065774  0.29934226  0.70065774  1
  O  O12  1  0.30725861  0.30856823  0.69145627  1
  O  O13  1  0.69145627  0.69271689  0.30725861  1
loop_
_geom_bond_atom_site_label_1
_geom_bond_atom_site_label_2
_geom_bond_distance
_geom_bond_site_symmetry_2
Cd0 O0 2.200520 1_555
Cd0 O1 2.200520 1_545
Cd0 O8 2.525619 1_454
Cd0 O3 2.525619 1_545
Cd0 O7 2.596551 1_445
Cd0 O12 2.596551 1_554
Cd0 O6 2.596552 1_544
Cd0 O9 2.596552 1_455
Cd1 O1 2.211991 1_645
Cd1 O0 2.211991 1_555
Cd1 O2 2.530645 1_545
Cd1 O11 2.530645 1_554
Cd1 O4 2.588008 1_554
Cd1 O13 2.588008 1_545
Cd1 O9 2.588008 1_555
Cd1 O6 2.588008 1_544
Cd2 O0 2.200520 1_555
Cd2 O1 2.200520 1_555
Cd2 O3 2.525619 1_555
Cd2 O8 2.525619 1_454
Cd2 O5 2.596552 1_455
Cd2 O10 2.596552 1_554
Cd2 O4 2.596552 1_554
Cd2 O13 2.596552 1_455
Cd3 O1 2.211991 1_546
Cd3 O0 2.211991 1_555
Cd3 O2 2.530645 1_545
Cd3 O11 2.530645 1_455
Cd3 O5 2.588008 1_455
Cd3 O10 2.588008 1_545
Cd3 O12 2.588008 1_555
Cd3 O7 2.588008 1_445
O2 Ru0 1.958614 1_555
O2 Ru1 1.958614 1_565
O3 Os0 1.962578 1_555
O3 Os1 1.962579 1_555
O4 Os1 1.921689 1_556
O4 Ru0 1.931610 1_555
O5 Os0 1.921689 1_655
O5 Ru0 1.931610 1_555
O6 Os1 1.921689 1_556
O6 Ru1 1.931610 1_565
O7 Os0 1.921689 1_655
O7 Ru1 1.931610 1_565
O8 Os0 1.962578 1_655
O8 Os1 1.962579 1_556
O9 Os1 1.921689 1_555
O9 Ru1 1.931610 1_555
O10 Os0 1.921689 1_555
O10 Ru0 1.931610 1_555
O11 Ru0 1.958614 1_555
O11 Ru1 1.958614 1_555
O12 Os0 1.921689 1_555
O12 Ru1 1.931610 1_555
O13 Os1 1.921689 1_555
O13 Ru0 1.931610 1_555
