# generated using pymatgen
data_Zr6Sc2Al15Rh7
_symmetry_space_group_name_H-M   'P 1'
_cell_length_a   8.84830422
_cell_length_b   8.84830361
_cell_length_c   8.84830439
_cell_angle_alpha   120.21028297
_cell_angle_beta   119.95909181
_cell_angle_gamma   89.85351689
_symmetry_Int_Tables_number   1
_chemical_formula_structural   Zr6Sc2Al15Rh7
_chemical_formula_sum   'Zr6 Sc2 Al15 Rh7'
_cell_volume   489.22055096
_cell_formula_units_Z   1
loop_
 _symmetry_equiv_pos_site_id
 _symmetry_equiv_pos_as_xyz
  1  'x, y, z'
loop_
 _atom_site_type_symbol
 _atom_site_label
 _atom_site_symmetry_multiplicity
 _atom_site_fract_x
 _atom_site_fract_y
 _atom_site_fract_z
 _atom_site_occupancy
  Zr  Zr0  1  0.80003606  0.29426982  0.08166135  1
  Zr  Zr1  1  0.21260847  0.29426982  0.49423376  1
  Zr  Zr2  1  0.19717016  0.69717016  0.50000000  1
  Zr  Zr3  1  0.21260847  0.71837371  0.91833865  1
  Zr  Zr4  1  0.80003606  0.71837371  0.50576624  1
  Zr  Zr5  1  0.77815072  0.27815072  0.50000000  1
  Sc  Sc0  1  0.37949308  0.11777467  0.73828259  1
  Sc  Sc1  1  0.37949308  0.64121050  0.26171741  1
  Al  Al0  1  0.98628775  0.48628775  0.50000000  1
  Al  Al1  1  0.16162859  0.33470219  0.17307260  1
  Al  Al2  1  0.16162859  0.98855800  0.82692740  1
  Al  Al3  1  0.15403785  0.34268574  0.81135111  1
  Al  Al4  1  0.53133463  0.34268574  0.18864889  1
  Al  Al5  1  0.84057473  0.65727403  0.81669931  1
  Al  Al6  1  0.84057473  0.02387442  0.18330069  1
  Al  Al7  1  0.83760480  0.66096646  0.17663934  1
  Al  Al8  1  0.48432812  0.66096646  0.82336066  1
  Al  Al9  1  0.37765575  0.12230259  0.25535317  1
  Al  Al10  1  0.86695042  0.12230259  0.74464683  1
  Al  Al11  1  0.62167294  0.87374089  0.25206895  1
  Al  Al12  1  0.62167294  0.36960399  0.74793105  1
  Al  Al13  1  0.62307673  0.87744307  0.74563366  1
  Al  Al14  1  0.13180741  0.87744307  0.25436634  1
  Rh  Rh0  1  0.99511741  0.99838733  0.49855782  1
  Rh  Rh1  1  0.49982951  0.99838733  0.00326892  1
  Rh  Rh2  1  0.50091668  0.50091668  1.00000000  1
  Rh  Rh3  1  0.49982951  0.49655959  0.50144218  1
  Rh  Rh4  1  0.99511741  0.49655959  0.99673108  1
  Rh  Rh5  1  0.99953974  0.99953974  0.00000000  1
  Rh  Rh6  1  0.50921367  0.00921367  0.50000000  1
loop_
_geom_bond_atom_site_label_1
_geom_bond_atom_site_label_2
_geom_bond_distance
_geom_bond_site_symmetry_2
Sc0 Zr0 3.078892 1_556
Sc0 Zr1 3.078899 1_555
Sc0 Zr2 3.104112 1_545
Sc1 Zr3 3.078885 1_554
Sc1 Zr4 3.078893 1_555
Sc1 Zr2 3.104120 1_555
Al0 Zr5 2.607827 1_555
Al0 Zr4 2.626198 1_555
Al0 Zr3 2.626205 1_655
Al0 Zr1 2.626205 1_655
Al0 Zr0 2.626205 1_555
Al0 Zr2 2.642225 1_655
Al1 Rh5 2.540624 1_445
Al1 Rh4 2.568741 1_454
Al1 Rh3 2.568754 1_555
Al1 Al10 2.772085 1_454
Al1 Al9 2.772095 1_555
Al1 Sc1 2.839465 1_555
Al1 Zr0 2.854624 1_455
Al1 Zr1 2.854630 1_555
Al1 Zr2 2.917731 1_555
Al2 Rh5 2.540622 1_456
Al2 Rh0 2.568743 1_455
Al2 Rh1 2.568759 1_556
Al2 Al9 2.772092 1_566
Al2 Sc0 2.839458 1_565
Al2 Zr4 2.854633 1_455
Al2 Zr3 2.854650 1_555
Al2 Zr2 2.917743 1_555
Al3 Rh0 2.562812 1_445
Al3 Rh4 2.562826 1_455
Al3 Rh2 2.592327 1_555
Al3 Zr5 2.872780 1_455
Al3 Sc0 2.886362 1_555
Al3 Sc1 2.886365 1_556
Al3 Zr3 2.926944 1_555
Al3 Zr1 2.926948 1_555
Al4 Rh1 2.562812 1_545
Al4 Rh3 2.562812 1_555
Al4 Rh2 2.592334 1_554
Al4 Al9 2.823715 1_555
Al4 Zr5 2.872774 1_555
Al4 Sc1 2.886364 1_555
Al4 Sc0 2.886365 1_554
Al4 Zr4 2.926947 1_555
Al4 Zr0 2.926953 1_555
Al5 Rh3 2.554172 1_555
Al5 Rh4 2.554177 1_555
Al5 Rh5 2.565318 1_556
Al5 Zr5 2.900773 1_555
Al5 Zr4 2.915548 1_555
Al5 Zr3 2.915553 1_655
Al6 Rh0 2.554166 1_545
Al6 Rh1 2.554173 1_545
Al6 Rh5 2.565320 1_545
Al6 Zr5 2.900776 1_555
Al6 Zr1 2.915557 1_655
Al6 Zr0 2.915562 1_555
Al7 Rh2 2.543059 1_554
Al7 Rh0 2.543192 1_555
Al7 Rh4 2.543194 1_554
Al7 Zr4 2.885630 1_555
Al7 Zr0 2.885633 1_555
Al7 Zr2 2.898680 1_655
Al8 Rh2 2.543068 1_555
Al8 Rh3 2.543187 1_555
Al8 Rh1 2.543194 1_556
Al8 Zr1 2.885636 1_555
Al8 Zr3 2.885641 1_555
Al8 Zr2 2.898678 1_555
Al9 Rh6 2.588332 1_555
Al9 Rh3 2.699451 1_555
Al9 Rh1 2.699458 1_545
Al9 Rh5 2.734461 1_445
Al9 Zr5 2.916286 1_555
Al9 Zr1 2.958160 1_555
Al9 Zr3 2.958166 1_544
Al10 Rh6 2.588340 1_555
Al10 Rh0 2.699444 1_545
Al10 Rh4 2.699451 1_555
Al10 Rh5 2.734461 1_546
Al10 Al2 2.772070 1_645
Al10 Al3 2.823715 1_655
Al10 Zr5 2.916285 1_555
Al10 Zr4 2.958166 1_545
Al10 Zr0 2.958166 1_556
Al10 Al13 3.067956 1_545
Al10 Al11 3.077968 1_545
Al10 Al12 3.077975 1_555
Al11 Rh6 2.601437 1_565
Al11 Rh2 2.689266 1_554
Al11 Rh0 2.700359 1_555
Al11 Rh1 2.700374 1_555
Al11 Al7 2.762462 1_555
Al11 Al8 2.762476 1_554
Al11 Al6 2.808971 1_565
Al11 Zr5 2.936995 1_565
Al11 Zr4 2.995974 1_555
Al11 Zr3 2.995974 1_554
Al11 Sc1 3.035550 1_555
Al11 Al9 3.077975 1_565
Al12 Rh6 2.601436 1_555
Al12 Rh2 2.689273 1_555
Al12 Rh3 2.700359 1_555
Al12 Rh4 2.700359 1_555
Al12 Al8 2.762469 1_555
Al12 Al7 2.762474 1_556
Al12 Al5 2.808971 1_555
Al12 Zr5 2.936987 1_555
Al12 Zr0 2.995974 1_556
Al12 Zr1 2.995974 1_555
Al12 Sc0 3.035562 1_555
Al12 Al9 3.077968 1_555
Al13 Rh5 2.722543 1_556
Al13 Rh6 2.730477 1_565
Al13 Rh1 2.748296 1_556
Al13 Rh3 2.748304 1_555
Al13 Al8 2.798254 1_555
Al13 Al5 2.810553 1_555
Al13 Al6 2.810555 1_566
Al13 Sc0 3.024470 1_565
Al13 Sc1 3.024477 1_555
Al13 Zr0 3.039575 1_566
Al13 Zr4 3.039577 1_555
Al13 Zr2 3.135514 1_555
Al14 Rh5 2.722542 1_455
Al14 Rh6 2.730491 1_565
Al14 Rh0 2.748289 1_455
Al14 Rh4 2.748303 1_454
Al14 Al7 2.798252 1_455
Al14 Al6 2.810533 1_465
Al14 Al5 2.810549 1_454
Al14 Sc0 3.024477 1_565
Al14 Sc1 3.024489 1_555
Al14 Zr1 3.039573 1_565
Al14 Zr3 3.039588 1_554
Al14 Al9 3.067962 1_565
Al14 Zr2 3.135511 1_555
Rh0 Sc0 2.782202 1_665
Rh0 Zr2 3.207362 1_655
Rh1 Sc0 2.782188 1_564
Rh1 Zr2 3.207357 1_554
Rh2 Sc1 2.764636 1_556
Rh2 Sc0 2.764643 1_555
Rh3 Sc1 2.782202 1_555
Rh3 Zr2 3.207362 1_555
Rh4 Sc1 2.782202 1_656
Rh4 Zr2 3.207355 1_656
Rh5 Zr0 3.129426 1_565
Rh5 Zr1 3.129426 1_665
Rh5 Zr4 3.129427 1_554
Rh5 Zr3 3.129432 1_654
Rh6 Sc1 2.656834 1_545
Rh6 Sc0 2.656835 1_555
