# generated using pymatgen
data_Hf16Pd7PtN4
_symmetry_space_group_name_H-M   'P 1'
_cell_length_a   8.70829220
_cell_length_b   8.70909152
_cell_length_c   8.70911665
_cell_angle_alpha   59.99991109
_cell_angle_beta   59.99674048
_cell_angle_gamma   59.99676100
_symmetry_Int_Tables_number   1
_chemical_formula_structural   Hf16Pd7PtN4
_chemical_formula_sum   'Hf16 Pd7 Pt1 N4'
_cell_volume   467.02844720
_cell_formula_units_Z   1
loop_
 _symmetry_equiv_pos_site_id
 _symmetry_equiv_pos_as_xyz
  1  'x, y, z'
loop_
 _atom_site_type_symbol
 _atom_site_label
 _atom_site_symmetry_multiplicity
 _atom_site_fract_x
 _atom_site_fract_y
 _atom_site_fract_z
 _atom_site_occupancy
  Hf  Hf0  1  0.12447426  0.62517525  0.62517525  1
  Hf  Hf1  1  0.62452504  0.12581382  0.62483007  1
  Hf  Hf2  1  0.62452404  0.62483007  0.12581482  1
  Hf  Hf3  1  0.62452504  0.62483107  0.62483007  1
  Hf  Hf4  1  0.81707567  0.81765313  0.18263610  1
  Hf  Hf5  1  0.18125747  0.18217872  0.81828190  1
  Hf  Hf6  1  0.81707567  0.18263610  0.81765313  1
  Hf  Hf7  1  0.18125747  0.81828190  0.18217872  1
  Hf  Hf8  1  0.18125747  0.81828190  0.81828190  1
  Hf  Hf9  1  0.81707567  0.18263510  0.18263710  1
  Hf  Hf10  1  0.43233249  0.43214682  0.06776034  1
  Hf  Hf11  1  0.06791904  0.06772971  0.43217562  1
  Hf  Hf12  1  0.43233249  0.06776034  0.43214682  1
  Hf  Hf13  1  0.06791904  0.43217562  0.06772971  1
  Hf  Hf14  1  0.06791904  0.43217462  0.43217562  1
  Hf  Hf15  1  0.43233249  0.06776034  0.06775934  1
  Pd  Pd0  1  0.40795071  0.77495812  0.40854509  1
  Pd  Pd1  1  0.40795071  0.40854509  0.77495812  1
  Pd  Pd2  1  0.40795071  0.40854509  0.40854609  1
  Pd  Pd3  1  0.47371573  0.84209609  0.84209409  1
  Pd  Pd4  1  0.84149632  0.47569075  0.84140597  1
  Pd  Pd5  1  0.84149432  0.84140697  0.47569175  1
  Pd  Pd6  1  0.84149632  0.84140797  0.84140496  1
  Pt  Pt0  1  0.78268352  0.40577183  0.40577283  1
  N  N0  1  0.62593198  0.12468967  0.12468967  1
  N  N1  1  0.12517610  0.62495175  0.12493657  1
  N  N2  1  0.12517610  0.12493657  0.62495075  1
  N  N3  1  0.12517610  0.12493657  0.12493657  1
loop_
_geom_bond_atom_site_label_1
_geom_bond_atom_site_label_2
_geom_bond_distance
_geom_bond_site_symmetry_2
Hf0 Pd6 2.725707 1_455
Hf0 Pd4 2.725710 1_455
Hf0 Pd5 2.725722 1_455
Hf0 Pd2 2.730687 1_555
Hf0 Pd0 2.730690 1_555
Hf0 Pd1 2.730693 1_555
Hf1 Pd2 2.727358 1_555
Hf1 Pd1 2.727359 1_555
Hf1 Pd5 2.733964 1_545
Hf1 Pd6 2.733971 1_545
Hf1 Pd3 2.737742 1_545
Hf1 Pt0 2.749606 1_555
Hf2 Pd0 2.727355 1_555
Hf2 Pd2 2.727355 1_555
Hf2 Pd4 2.733986 1_554
Hf2 Pd6 2.733997 1_554
Hf2 Pd3 2.737764 1_554
Hf2 Pt0 2.749618 1_555
Hf3 Pd1 2.727369 1_555
Hf3 Pd0 2.727370 1_555
Hf3 Pd5 2.733967 1_555
Hf3 Pd4 2.733983 1_555
Hf3 Pd3 2.737758 1_555
Hf3 Pt0 2.749608 1_555
Hf4 N0 2.283617 1_565
Hf4 N1 2.293341 1_655
Hf4 Pd5 2.777912 1_555
Hf4 Pd6 2.777926 1_554
Hf5 N3 2.286325 1_556
Hf5 N2 2.286327 1_555
Hf5 Pd3 2.769775 1_545
Hf5 Pd4 2.771987 1_455
Hf6 N0 2.283621 1_556
Hf6 N2 2.293344 1_655
Hf6 Pd4 2.777901 1_555
Hf6 Pd6 2.777902 1_545
Hf7 N1 2.286315 1_555
Hf7 N3 2.286318 1_565
Hf7 Pd3 2.769789 1_554
Hf7 Pd5 2.772003 1_455
Hf8 N2 2.286318 1_565
Hf8 N1 2.286320 1_556
Hf8 Pd3 2.769795 1_555
Hf8 Pd6 2.771995 1_455
Hf9 N0 2.283626 1_555
Hf9 N3 2.293344 1_655
Hf9 Pd5 2.777899 1_545
Hf9 Pd4 2.777920 1_554
Hf10 N1 2.287868 1_555
Hf10 N0 2.291650 1_555
Hf10 Pd2 2.774775 1_555
Hf10 Pd1 2.774776 1_554
Hf11 N3 2.288590 1_555
Hf11 N2 2.288592 1_555
Hf11 Pt0 2.733289 1_455
Hf11 Pd0 2.770598 1_545
Hf12 N2 2.287867 1_555
Hf12 N0 2.291654 1_555
Hf12 Pd2 2.774761 1_555
Hf12 Pd0 2.774769 1_545
Hf13 N3 2.288583 1_555
Hf13 N1 2.288596 1_555
Hf13 Pt0 2.733298 1_455
Hf13 Pd1 2.770601 1_554
Hf14 N2 2.288577 1_555
Hf14 N1 2.288592 1_555
Hf14 Pt0 2.733293 1_455
Hf14 Pd2 2.770609 1_555
Hf15 N3 2.287867 1_555
Hf15 N0 2.291671 1_555
Hf15 Pd1 2.774758 1_554
Hf15 Pd0 2.774768 1_545
