# generated using pymatgen
data_Na3Fe(IO3)6
_symmetry_space_group_name_H-M   'P 1'
_cell_length_a   6.61186016
_cell_length_b   6.71779422
_cell_length_c   10.17655563
_cell_angle_alpha   98.64063919
_cell_angle_beta   109.32170011
_cell_angle_gamma   99.59866108
_symmetry_Int_Tables_number   1
_chemical_formula_structural   Na3Fe(IO3)6
_chemical_formula_sum   'Na3 Fe1 I6 O18'
_cell_volume   410.20572862
_cell_formula_units_Z   1
loop_
 _symmetry_equiv_pos_site_id
 _symmetry_equiv_pos_as_xyz
  1  'x, y, z'
loop_
 _atom_site_type_symbol
 _atom_site_label
 _atom_site_symmetry_multiplicity
 _atom_site_fract_x
 _atom_site_fract_y
 _atom_site_fract_z
 _atom_site_occupancy
  Na  Na0  1  0.39276280  0.54856621  0.30837854  1
  Na  Na1  1  0.60723720  0.45143379  0.69162146  1
  Na  Na2  1  0.00000000  0.50000000  0.50000000  1
  Fe  Fe0  1  0.00000000  0.00000000  0.00000000  1
  I  I0  1  0.57070649  0.03810485  0.19822388  1
  I  I1  1  0.42929351  0.96189515  0.80177612  1
  I  I2  1  0.79712915  0.52807534  0.10895653  1
  I  I3  1  0.20287085  0.47192466  0.89104347  1
  I  I4  1  0.15972036  0.07132435  0.38740301  1
  I  I5  1  0.84027964  0.92867565  0.61259699  1
  O  O0  1  0.58795458  0.65810858  0.13302498  1
  O  O1  1  0.41204542  0.34189142  0.86697502  1
  O  O2  1  0.98324406  0.36939118  0.71879216  1
  O  O3  1  0.01675594  0.63060882  0.28120784  1
  O  O4  1  0.58976764  0.31396618  0.24132955  1
  O  O5  1  0.41023236  0.68603382  0.75867045  1
  O  O6  1  0.05813936  0.10769935  0.20294545  1
  O  O7  1  0.94186064  0.89230065  0.79705455  1
  O  O8  1  0.30550537  0.96051617  0.04149840  1
  O  O9  1  0.69449463  0.03948383  0.95850160  1
  O  O10  1  0.31365901  0.33304021  0.46975375  1
  O  O11  1  0.68634099  0.66695979  0.53024625  1
  O  O12  1  0.90429773  0.11754005  0.41027680  1
  O  O13  1  0.09570227  0.88245995  0.58972320  1
  O  O14  1  0.54369477  0.04888669  0.67465073  1
  O  O15  1  0.45630523  0.95111331  0.32534927  1
  O  O16  1  0.09999572  0.30986776  0.99675521  1
  O  O17  1  0.90000428  0.69013224  0.00324479  1
loop_
_geom_bond_atom_site_label_1
_geom_bond_atom_site_label_2
_geom_bond_distance
_geom_bond_site_symmetry_2
Na0 O11 2.354496 1_555
Na0 O4 2.365513 1_555
Na0 O10 2.469233 1_555
Na0 O3 2.570755 1_555
Na0 O15 2.636656 1_555
Na0 O0 2.644507 1_555
Na1 O10 2.354496 1_555
Na1 O5 2.365513 1_555
Na1 O11 2.469233 1_555
Na1 O2 2.570755 1_555
Na1 O14 2.636656 1_555
Na1 O1 2.644507 1_555
Na2 O13 2.491171 1_555
Na2 O12 2.491171 1_455
Na2 O2 2.541152 1_455
Na2 O3 2.541152 1_555
Na2 O11 2.597705 1_455
Na2 O10 2.597705 1_555
Fe0 O6 1.967113 1_555
Fe0 O7 1.967113 1_444
Fe0 O8 1.994184 1_545
Fe0 O9 1.994184 1_454
Fe0 O16 2.085070 1_554
Fe0 O17 2.085070 1_445
I0 O4 1.812140 1_555
I0 O15 1.820611 1_545
I0 O8 1.866782 1_545
I0 O12 2.432747 1_555
I0 O0 2.570591 1_545
I1 O5 1.812140 1_555
I1 O14 1.820611 1_565
I1 O9 1.866782 1_565
I1 O13 2.432747 1_555
I1 O1 2.570591 1_565
I2 O3 1.809717 1_655
I2 O0 1.816210 1_555
I2 O17 1.842374 1_555
I3 O2 1.809717 1_455
I3 O1 1.816210 1_555
I3 O16 1.842374 1_555
I4 O10 1.795948 1_555
I4 O6 1.841937 1_555
I4 O12 1.848234 1_455
I4 O15 2.467936 1_545
I4 O13 2.685253 1_545
I5 O11 1.795948 1_555
I5 O7 1.841937 1_555
I5 O13 1.848234 1_655
I5 O14 2.467936 1_565
I5 O12 2.685253 1_565
