# generated using pymatgen
data_Cs2Cd5Sb4
_symmetry_space_group_name_H-M   'P 1'
_cell_length_a   7.79804809
_cell_length_b   7.79804755
_cell_length_c   13.39399448
_cell_angle_alpha   90.00000000
_cell_angle_beta   90.00000000
_cell_angle_gamma   117.08929299
_symmetry_Int_Tables_number   1
_chemical_formula_structural   Cs2Cd5Sb4
_chemical_formula_sum   'Cs4 Cd10 Sb8'
_cell_volume   725.13231823
_cell_formula_units_Z   2
loop_
 _symmetry_equiv_pos_site_id
 _symmetry_equiv_pos_as_xyz
  1  'x, y, z'
loop_
 _atom_site_type_symbol
 _atom_site_label
 _atom_site_symmetry_multiplicity
 _atom_site_fract_x
 _atom_site_fract_y
 _atom_site_fract_z
 _atom_site_occupancy
  Cs  Cs0  1  0.21770659  0.78229341  0.50000000  1
  Cs  Cs1  1  0.21770659  0.78229341  0.00000000  1
  Cs  Cs2  1  0.78229341  0.21770659  0.50000000  1
  Cs  Cs3  1  0.78229341  0.21770659  0.00000000  1
  Cd  Cd0  1  0.53063397  0.24157646  0.25000000  1
  Cd  Cd1  1  0.75842354  0.46936603  0.75000000  1
  Cd  Cd2  1  0.46936603  0.75842354  0.75000000  1
  Cd  Cd3  1  0.24157646  0.53063397  0.25000000  1
  Cd  Cd4  1  0.65539063  0.65539063  0.39226709  1
  Cd  Cd5  1  0.34460937  0.34460937  0.60773291  1
  Cd  Cd6  1  0.65539063  0.65539063  0.10773291  1
  Cd  Cd7  1  0.34460937  0.34460937  0.89226709  1
  Cd  Cd8  1  0.00930672  0.00930672  0.25000000  1
  Cd  Cd9  1  0.99069328  0.99069328  0.75000000  1
  Sb  Sb0  1  0.59910937  0.91307704  0.25000000  1
  Sb  Sb1  1  0.08692296  0.40089063  0.75000000  1
  Sb  Sb2  1  0.40089063  0.08692296  0.75000000  1
  Sb  Sb3  1  0.91307704  0.59910937  0.25000000  1
  Sb  Sb4  1  0.27829861  0.27829861  0.40023794  1
  Sb  Sb5  1  0.72170139  0.72170139  0.59976206  1
  Sb  Sb6  1  0.27829861  0.27829861  0.09976206  1
  Sb  Sb7  1  0.72170139  0.72170139  0.90023794  1
loop_
_geom_bond_atom_site_label_1
_geom_bond_atom_site_label_2
_geom_bond_distance
_geom_bond_site_symmetry_2
Cs0 Sb4 3.912120 1_565
Cs0 Sb5 3.912120 1_455
Cs0 Sb2 3.975617 1_565
Cs0 Sb3 3.975617 1_455
Cs0 Cs2 4.159020 1_455
Cs0 Cs2 4.159020 1_565
Cs0 Sb1 4.282037 1_555
Cs0 Sb0 4.282037 1_555
Cs0 Sb4 4.375646 1_555
Cs0 Sb5 4.375646 1_555
Cs1 Sb6 3.912120 1_565
Cs1 Sb7 3.912120 1_454
Cs1 Sb2 3.975617 1_564
Cs1 Sb3 3.975617 1_455
Cs1 Cs3 4.159020 1_455
Cs1 Cs3 4.159020 1_565
Cs1 Sb1 4.282037 1_554
Cs1 Sb0 4.282037 1_555
Cs1 Sb6 4.375646 1_555
Cs1 Sb7 4.375646 1_554
Cs2 Sb5 3.912120 1_545
Cs2 Sb4 3.912120 1_655
Cs2 Sb0 3.975617 1_545
Cs2 Sb1 3.975617 1_655
Cs2 Sb3 4.282037 1_555
Cs2 Sb2 4.282037 1_555
Cs2 Sb5 4.375646 1_555
Cs2 Sb4 4.375646 1_555
Cs3 Sb7 3.912120 1_544
Cs3 Sb6 3.912120 1_655
Cs3 Sb0 3.975617 1_545
Cs3 Sb1 3.975617 1_654
Cs3 Sb3 4.282037 1_555
Cs3 Sb2 4.282037 1_554
Cs3 Sb7 4.375646 1_554
Cs3 Sb6 4.375646 1_555
Cd0 Sb0 2.844818 1_545
Cd0 Sb4 2.918292 1_555
Cd0 Sb6 2.918292 1_555
Cd0 Sb3 3.015730 1_555
Cd0 Cs3 3.928231 1_555
Cd0 Cs2 3.928231 1_555
Cd1 Sb1 2.844818 1_655
Cd1 Sb7 2.918292 1_555
Cd1 Sb5 2.918292 1_555
Cd1 Sb2 3.015730 1_555
Cd1 Cs3 3.928231 1_556
Cd1 Cs2 3.928231 1_555
Cd2 Sb2 2.844818 1_565
Cd2 Sb7 2.918292 1_555
Cd2 Sb5 2.918292 1_555
Cd2 Sb1 3.015730 1_555
Cd2 Cs1 3.928231 1_556
Cd2 Cs0 3.928231 1_555
Cd3 Sb3 2.844818 1_455
Cd3 Sb4 2.918292 1_555
Cd3 Sb6 2.918292 1_555
Cd3 Sb0 3.015730 1_555
Cd3 Cs0 3.928231 1_555
Cd3 Cs1 3.928231 1_555
Cd4 Sb5 2.831100 1_555
Cd4 Sb0 2.943594 1_555
Cd4 Sb3 2.943594 1_555
Cd4 Sb4 3.070847 1_555
Cd4 Cs2 4.217432 1_555
Cd4 Cs0 4.217432 1_555
Cd4 Cs2 4.282210 1_565
Cd4 Cs0 4.282210 1_655
Cd5 Sb4 2.831100 1_555
Cd5 Sb2 2.943594 1_555
Cd5 Sb1 2.943594 1_555
Cd5 Sb5 3.070847 1_555
Cd5 Cs0 4.217432 1_555
Cd5 Cs2 4.217432 1_555
Cd5 Cs0 4.282210 1_545
Cd5 Cs2 4.282210 1_455
Cd6 Sb7 2.831100 1_554
Cd6 Sb0 2.943594 1_555
Cd6 Sb3 2.943594 1_555
Cd6 Sb6 3.070847 1_555
Cd6 Cs3 4.217432 1_555
Cd6 Cs1 4.217432 1_555
Cd6 Cs3 4.282210 1_565
Cd6 Cs1 4.282210 1_655
Cd7 Sb6 2.831100 1_556
Cd7 Sb2 2.943594 1_555
Cd7 Sb1 2.943594 1_555
Cd7 Sb7 3.070847 1_555
Cd7 Cs1 4.217432 1_556
Cd7 Cs3 4.217432 1_556
Cd7 Cs1 4.282210 1_546
Cd7 Cs3 4.282210 1_456
Cd8 Sb3 2.934093 1_445
Cd8 Sb0 2.934093 1_445
Cd8 Sb4 2.973539 1_555
Cd8 Sb6 2.973539 1_555
Cd8 Cs0 4.428023 1_545
Cd8 Cs1 4.428023 1_545
Cd8 Cs2 4.428023 1_455
Cd8 Cs3 4.428023 1_455
Cd9 Sb1 2.934093 1_665
Cd9 Sb2 2.934093 1_665
Cd9 Sb7 2.973539 1_555
Cd9 Sb5 2.973539 1_555
Cd9 Cs3 4.428023 1_566
Cd9 Cs2 4.428023 1_565
Cd9 Cs0 4.428023 1_655
Cd9 Cs1 4.428023 1_656
