# generated using pymatgen
data_Sr2Li2Si2P
_symmetry_space_group_name_H-M   'P 1'
_cell_length_a   9.86135996
_cell_length_b   9.86135953
_cell_length_c   7.02050071
_cell_angle_alpha   90.00000000
_cell_angle_beta   90.00000000
_cell_angle_gamma   153.78840044
_symmetry_Int_Tables_number   1
_chemical_formula_structural   Sr2Li2Si2P
_chemical_formula_sum   'Sr4 Li4 Si4 P2'
_cell_volume   301.54823797
_cell_formula_units_Z   2
loop_
 _symmetry_equiv_pos_site_id
 _symmetry_equiv_pos_as_xyz
  1  'x, y, z'
loop_
 _atom_site_type_symbol
 _atom_site_label
 _atom_site_symmetry_multiplicity
 _atom_site_fract_x
 _atom_site_fract_y
 _atom_site_fract_z
 _atom_site_occupancy
  Sr  Sr0  1  0.56051310  0.43948690  0.75000000  1
  Sr  Sr1  1  0.43948690  0.56051310  0.25000000  1
  Sr  Sr2  1  0.33959869  0.66040131  0.75000000  1
  Sr  Sr3  1  0.66040131  0.33959869  0.25000000  1
  Li  Li0  1  0.80659702  0.19340298  0.44322967  1
  Li  Li1  1  0.19340298  0.80659702  0.55677033  1
  Li  Li2  1  0.80659702  0.19340298  0.05677033  1
  Li  Li3  1  0.19340298  0.80659702  0.94322967  1
  Si  Si0  1  0.94663031  0.05336969  0.91720399  1
  Si  Si1  1  0.05336969  0.94663031  0.08279601  1
  Si  Si2  1  0.94663031  0.05336969  0.58279601  1
  Si  Si3  1  0.05336969  0.94663031  0.41720399  1
  P  P0  1  0.72258342  0.27741658  0.75000000  1
  P  P1  1  0.27741658  0.72258342  0.25000000  1
loop_
_geom_bond_atom_site_label_1
_geom_bond_atom_site_label_2
_geom_bond_distance
_geom_bond_site_symmetry_2
Li0 P1 2.674779 1_655
Li0 P1 2.674779 1_545
Li0 P0 2.691236 1_555
Li0 Si2 2.862799 1_555
Li0 Sr3 3.118763 1_555
Li0 Sr2 3.168625 1_545
Li0 Sr2 3.168625 1_655
Li1 P0 2.674779 1_455
Li1 P0 2.674779 1_565
Li1 P1 2.691236 1_555
Li1 Si3 2.862799 1_555
Li1 Sr2 3.118763 1_555
Li1 Sr3 3.168625 1_565
Li1 Sr3 3.168625 1_455
Li2 P1 2.674779 1_655
Li2 P1 2.674779 1_545
Li2 P0 2.691236 1_554
Li2 Si0 2.862799 1_554
Li2 Sr3 3.118763 1_555
Li2 Sr2 3.168625 1_544
Li2 Sr2 3.168625 1_654
Li3 P0 2.674779 1_455
Li3 P0 2.674779 1_565
Li3 P1 2.691236 1_556
Li3 Si1 2.862799 1_556
Li3 Sr2 3.118763 1_555
Li3 Sr3 3.168625 1_566
Li3 Sr3 3.168625 1_456
Si0 Si2 2.347711 1_555
Si0 Si1 2.357002 1_646
Si0 Sr1 3.236903 1_656
Si0 Sr1 3.236903 1_546
Si0 Sr2 3.256521 1_655
Si0 Sr2 3.256521 1_545
Si0 Sr0 3.341167 1_545
Si0 Sr0 3.341167 1_655
Si1 Si3 2.347711 1_555
Si1 Sr0 3.236903 1_454
Si1 Sr0 3.236903 1_564
Si1 Sr3 3.256521 1_455
Si1 Sr3 3.256521 1_565
Si1 Sr1 3.341167 1_565
Si1 Sr1 3.341167 1_455
Si2 Si3 2.357002 1_645
Si2 Sr1 3.236903 1_655
Si2 Sr1 3.236903 1_545
Si2 Sr2 3.256521 1_655
Si2 Sr2 3.256521 1_545
Si2 Sr0 3.341167 1_545
Si2 Sr0 3.341167 1_655
Si3 Sr0 3.236903 1_455
Si3 Sr0 3.236903 1_565
Si3 Sr3 3.256521 1_455
Si3 Sr3 3.256521 1_565
Si3 Sr1 3.341167 1_565
Si3 Sr1 3.341167 1_455
P0 Sr0 3.113209 1_555
P0 Sr2 3.170542 1_545
P0 Sr2 3.170543 1_655
P1 Sr1 3.113209 1_555
P1 Sr3 3.170542 1_565
P1 Sr3 3.170543 1_455
