# generated using pymatgen
data_SnAu5
_symmetry_space_group_name_H-M   'P 1'
_cell_length_a   5.72875091
_cell_length_b   5.72874969
_cell_length_c   5.72874999
_cell_angle_alpha   52.87891717
_cell_angle_beta   52.87891947
_cell_angle_gamma   52.87891284
_symmetry_Int_Tables_number   1
_chemical_formula_structural   SnAu5
_chemical_formula_sum   'Sn1 Au5'
_cell_volume   110.74464139
_cell_formula_units_Z   1
loop_
 _symmetry_equiv_pos_site_id
 _symmetry_equiv_pos_as_xyz
  1  'x, y, z'
loop_
 _atom_site_type_symbol
 _atom_site_label
 _atom_site_symmetry_multiplicity
 _atom_site_fract_x
 _atom_site_fract_y
 _atom_site_fract_z
 _atom_site_occupancy
  Sn  Sn0  1  0.00010675  0.00010675  0.00010675  1
  Au  Au0  1  0.67014715  0.67014715  0.67014715  1
  Au  Au1  1  0.50013051  0.17070813  0.82918679  1
  Au  Au2  1  0.82918679  0.50013051  0.17070813  1
  Au  Au3  1  0.17070813  0.82918679  0.50013051  1
  Au  Au4  1  0.32982168  0.32982168  0.32982168  1
loop_
_geom_bond_atom_site_label_1
_geom_bond_atom_site_label_2
_geom_bond_distance
_geom_bond_site_symmetry_2
Au0 Sn0 2.945757 1_656
Au0 Sn0 2.945757 1_665
Au0 Sn0 2.945757 1_566
Au0 Au4 2.947140 1_565
Au0 Au4 2.947140 1_655
Au0 Au4 2.947140 1_556
Au0 Au1 2.951790 1_565
Au0 Au2 2.951790 1_556
Au0 Au3 2.951791 1_655
Au0 Au2 3.018454 1_555
Au0 Au1 3.018454 1_555
Au0 Au3 3.018455 1_555
Au1 Au3 2.909163 1_555
Au1 Au2 2.909163 1_555
Au1 Au4 2.951750 1_556
Au1 Au2 2.962786 1_546
Au1 Au3 2.962787 1_645
Au1 Au3 2.964394 1_546
Au1 Au2 2.964394 1_456
Au1 Sn0 2.992990 1_556
Au1 Sn0 2.994837 1_656
Au1 Au4 3.019044 1_555
Au2 Au3 2.909163 1_555
Au2 Au4 2.951751 1_655
Au2 Au3 2.962787 1_654
Au2 Au3 2.964394 1_645
Au2 Sn0 2.992989 1_655
Au2 Sn0 2.994837 1_665
Au2 Au4 3.019044 1_555
Au3 Au4 2.951750 1_565
Au3 Sn0 2.992990 1_565
Au3 Sn0 2.994836 1_566
Au3 Au4 3.019044 1_555
Au4 Sn0 2.945820 1_565
Au4 Sn0 2.945821 1_556
Au4 Sn0 2.945821 1_655
