# generated using pymatgen
data_HfZrTaW3
_symmetry_space_group_name_H-M   'P 1'
_cell_length_a   5.38070863
_cell_length_b   5.38070880
_cell_length_c   5.45597532
_cell_angle_alpha   60.45530402
_cell_angle_beta   60.45530149
_cell_angle_gamma   59.99999839
_symmetry_Int_Tables_number   1
_chemical_formula_structural   HfZrTaW3
_chemical_formula_sum   'Hf1 Zr1 Ta1 W3'
_cell_volume   112.45819194
_cell_formula_units_Z   1
loop_
 _symmetry_equiv_pos_site_id
 _symmetry_equiv_pos_as_xyz
  1  'x, y, z'
loop_
 _atom_site_type_symbol
 _atom_site_label
 _atom_site_symmetry_multiplicity
 _atom_site_fract_x
 _atom_site_fract_y
 _atom_site_fract_z
 _atom_site_occupancy
  Hf  Hf0  1  0.24912505  0.24912505  0.25262485  1
  Zr  Zr0  1  0.00080811  0.00080811  0.99757666  1
  Ta  Ta0  1  0.62500262  0.62500262  0.12499114  1
  W  W0  1  0.62493688  0.12519046  0.62493578  1
  W  W1  1  0.12519046  0.62493688  0.62493578  1
  W  W2  1  0.62493688  0.62493688  0.62493578  1
loop_
_geom_bond_atom_site_label_1
_geom_bond_atom_site_label_2
_geom_bond_distance
_geom_bond_site_symmetry_2
Hf0 Ta0 3.158856 1_555
Hf0 Ta0 3.158860 1_455
Hf0 Ta0 3.158860 1_545
Hf0 W2 3.166470 1_455
Hf0 W0 3.166470 1_455
Hf0 W1 3.166470 1_555
Hf0 W0 3.166470 1_555
Hf0 W2 3.166470 1_545
Hf0 W1 3.166470 1_545
Hf0 W0 3.214994 1_554
Hf0 W2 3.214994 1_554
Hf0 W1 3.214994 1_554
Hf0 Zr0 3.310477 1_554
Hf0 Zr0 3.310481 1_654
Hf0 Zr0 3.310481 1_564
Hf0 Zr0 3.341255 1_555
Ta0 W1 2.727334 1_555
Ta0 W0 2.727334 1_555
Ta0 W2 2.727337 1_555
Ta0 W2 2.728639 1_554
Ta0 W1 2.728641 1_654
Ta0 W0 2.728641 1_564
Ta0 Zr0 3.158678 1_564
Ta0 Zr0 3.158678 1_654
Ta0 Zr0 3.158687 1_664
W0 W1 2.688990 1_555
W0 W2 2.688990 1_555
W0 W1 2.691719 1_645
W0 W2 2.691719 1_545
W0 Zr0 3.167248 1_555
W0 Zr0 3.167253 1_655
W0 Zr0 3.214459 1_654
W1 W2 2.688990 1_555
W1 W2 2.691719 1_455
W1 Zr0 3.167248 1_555
W1 Zr0 3.167253 1_565
W1 Zr0 3.214459 1_564
W2 Zr0 3.167251 1_565
W2 Zr0 3.167251 1_655
W2 Zr0 3.214461 1_664
