# generated using pymatgen
data_K4ZrTeI12
_symmetry_space_group_name_H-M   'P 1'
_cell_length_a   8.43467369
_cell_length_b   8.06040391
_cell_length_c   13.94363703
_cell_angle_alpha   54.97033381
_cell_angle_beta   89.99086982
_cell_angle_gamma   89.67288293
_symmetry_Int_Tables_number   1
_chemical_formula_structural   K4ZrTeI12
_chemical_formula_sum   'K4 Zr1 Te1 I12'
_cell_volume   776.24338781
_cell_formula_units_Z   1
loop_
 _symmetry_equiv_pos_site_id
 _symmetry_equiv_pos_as_xyz
  1  'x, y, z'
loop_
 _atom_site_type_symbol
 _atom_site_label
 _atom_site_symmetry_multiplicity
 _atom_site_fract_x
 _atom_site_fract_y
 _atom_site_fract_z
 _atom_site_occupancy
  K  K0  1  0.58307752  0.72187649  0.25135001  1
  K  K1  1  0.08177550  0.27336529  0.24659424  1
  K  K2  1  0.41692248  0.27812351  0.74864999  1
  K  K3  1  0.91822450  0.72663471  0.75340576  1
  Zr  Zr0  1  0.00000000  0.00000000  0.00000000  1
  Te  Te0  1  0.50000000  0.00000000  0.50000000  1
  I  I0  1  0.99210676  0.83901226  0.24443832  1
  I  I1  1  0.49133041  0.15739524  0.24889587  1
  I  I2  1  0.00789324  0.16098774  0.75556168  1
  I  I3  1  0.50866959  0.84260476  0.75110413  1
  I  I4  1  0.69697842  0.65042334  0.55125143  1
  I  I5  1  0.18555859  0.33739677  0.95563782  1
  I  I6  1  0.30302158  0.34957666  0.44874857  1
  I  I7  1  0.81444141  0.66260323  0.04436218  1
  I  I8  1  0.71108237  0.22370207  0.96145900  1
  I  I9  1  0.20528583  0.76782053  0.54209653  1
  I  I10  1  0.28891763  0.77629793  0.03854100  1
  I  I11  1  0.79471417  0.23217947  0.45790347  1
loop_
_geom_bond_atom_site_label_1
_geom_bond_atom_site_label_2
_geom_bond_distance
_geom_bond_site_symmetry_2
I0 Zr0 2.868578 1_665
I0 K0 3.568761 1_555
I0 K1 3.602975 1_665
I1 Te0 2.962028 1_555
I1 K1 3.568872 1_555
I1 K0 3.571333 1_545
I2 Zr0 2.868578 1_556
I2 K2 3.568761 1_555
I2 K3 3.602975 1_445
I3 Te0 2.962028 1_565
I3 K3 3.568872 1_555
I3 K2 3.571333 1_565
I4 Te0 2.974218 1_565
I4 K2 3.571810 1_555
I4 K3 3.715894 1_555
I4 K0 3.996440 1_555
I5 Zr0 2.888825 1_556
I5 K3 3.555872 1_455
I5 K2 3.733232 1_555
I5 K1 3.884852 1_556
I6 Te0 2.974218 1_555
I6 K0 3.571810 1_555
I6 K1 3.715894 1_555
I6 K2 3.996440 1_555
I7 Zr0 2.888825 1_665
I7 K1 3.555872 1_655
I7 K0 3.733232 1_555
I7 K3 3.884852 1_554
I8 Zr0 2.883836 1_656
I8 K2 3.694479 1_555
I8 K3 3.805341 1_555
I8 K0 3.891588 1_546
I9 Te0 2.969472 1_565
I9 K3 3.679421 1_455
I9 K2 3.732563 1_555
I9 K1 3.917320 1_565
I10 Zr0 2.883836 1_565
I10 K0 3.694479 1_555
I10 K1 3.805341 1_555
I10 K2 3.891588 1_564
I11 Te0 2.969472 1_555
I11 K1 3.679421 1_655
I11 K0 3.732563 1_555
I11 K3 3.917320 1_545
