# generated using pymatgen
data_Ti8Al15Pd2Ru5
_symmetry_space_group_name_H-M   'P 1'
_cell_length_a   8.63216528
_cell_length_b   8.61881709
_cell_length_c   8.63217729
_cell_angle_alpha   120.28471655
_cell_angle_beta   119.90999219
_cell_angle_gamma   89.87648295
_symmetry_Int_Tables_number   1
_chemical_formula_structural   Ti8Al15Pd2Ru5
_chemical_formula_sum   'Ti8 Al15 Pd2 Ru5'
_cell_volume   453.26904985
_cell_formula_units_Z   1
loop_
 _symmetry_equiv_pos_site_id
 _symmetry_equiv_pos_as_xyz
  1  'x, y, z'
loop_
 _atom_site_type_symbol
 _atom_site_label
 _atom_site_symmetry_multiplicity
 _atom_site_fract_x
 _atom_site_fract_y
 _atom_site_fract_z
 _atom_site_occupancy
  Ti  Ti0  1  0.79358057  0.28718505  0.06756890  1
  Ti  Ti1  1  0.21961368  0.28718332  0.49360291  1
  Ti  Ti2  1  0.21030974  0.70581389  0.49550524  1
  Ti  Ti3  1  0.21282282  0.71799656  0.92971131  1
  Ti  Ti4  1  0.78828387  0.71799503  0.50517165  1
  Ti  Ti5  1  0.77873129  0.28633730  0.50760776  1
  Ti  Ti6  1  0.38646065  0.12888307  0.74242254  1
  Ti  Ti7  1  0.37854780  0.63530833  0.25676143  1
  Al  Al0  1  0.99524947  0.49489822  0.49964871  1
  Al  Al1  1  0.15698978  0.34275958  0.18576955  1
  Al  Al2  1  0.15441827  0.96562261  0.81120488  1
  Al  Al3  1  0.15194056  0.34802726  0.80472430  1
  Al  Al4  1  0.54330054  0.34802523  0.19608584  1
  Al  Al5  1  0.84486619  0.65564972  0.81078418  1
  Al  Al6  1  0.84815938  0.04474841  0.19658941  1
  Al  Al7  1  0.84253101  0.65102322  0.18813998  1
  Al  Al8  1  0.46288375  0.65102192  0.80849270  1
  Al  Al9  1  0.37757035  0.12266863  0.26029724  1
  Al  Al10  1  0.86237119  0.12266812  0.74509823  1
  Al  Al11  1  0.61751260  0.87304790  0.25552792  1
  Al  Al12  1  0.62181054  0.36683785  0.74503091  1
  Al  Al13  1  0.62215292  0.87558748  0.73972737  1
  Al  Al14  1  0.13586033  0.87558731  0.25343659  1
  Pd  Pd0  1  0.99814619  0.99910413  0.49875539  1
  Pd  Pd1  1  0.50034994  0.99910416  0.00095362  1
  Ru  Ru0  1  0.49769772  0.49734347  0.99965061  1
  Ru  Ru1  1  0.49872562  0.49904541  0.49866658  1
  Ru  Ru2  1  0.00037615  0.49904221  0.00031800  1
  Ru  Ru3  1  0.99971918  0.00128660  0.00156719  1
  Ru  Ru4  1  0.49901590  0.00019400  0.50118104  1
loop_
_geom_bond_atom_site_label_1
_geom_bond_atom_site_label_2
_geom_bond_distance
_geom_bond_site_symmetry_2
Ti0 Ti6 2.900198 1_554
Ti1 Ti6 2.900210 1_555
Ti2 Ti7 2.905756 1_555
Ti2 Ti6 3.017287 1_565
Ti3 Ti7 2.919212 1_556
Ti4 Ti7 2.919189 1_555
Al0 Ti3 2.620877 1_655
Al0 Ti4 2.620882 1_555
Al0 Ti2 2.626506 1_655
Al0 Ti0 2.636352 1_555
Al0 Ti1 2.636353 1_655
Al0 Ti5 2.645041 1_555
Al1 Ru3 2.485491 1_455
Al1 Ru2 2.492667 1_555
Al1 Ru1 2.492667 1_555
Al1 Ti0 2.726318 1_455
Al1 Ti1 2.726329 1_555
Al1 Ti2 2.737249 1_555
Al2 Ru3 2.501033 1_466
Al2 Pd1 2.516414 1_556
Al2 Pd0 2.516414 1_455
Al2 Ti3 2.745668 1_555
Al2 Ti4 2.745670 1_455
Al2 Ti2 2.797383 1_555
Al3 Ru0 2.493916 1_555
Al3 Ru2 2.497133 1_556
Al3 Pd0 2.508279 1_445
Al3 Ti3 2.753163 1_555
Al3 Ti5 2.762477 1_455
Al3 Ti1 2.823437 1_555
Al4 Ru0 2.493910 1_554
Al4 Ru1 2.497120 1_555
Al4 Pd1 2.508273 1_545
Al4 Ti4 2.753161 1_555
Al4 Ti5 2.762495 1_555
Al4 Ti0 2.823457 1_555
Al5 Ru3 2.499384 1_566
Al5 Ru1 2.515916 1_555
Al5 Ru2 2.515930 1_656
Al5 Ti5 2.724466 1_555
Al5 Ti3 2.762317 1_655
Al5 Ti4 2.762332 1_555
Al6 Ru3 2.498864 1_555
Al6 Pd1 2.509851 1_545
Al6 Pd0 2.509863 1_545
Al6 Ti1 2.765480 1_655
Al6 Ti0 2.765513 1_555
Al6 Ti5 2.804231 1_555
Al7 Ru2 2.500882 1_655
Al7 Ru0 2.505107 1_554
Al7 Pd0 2.511238 1_555
Al7 Ti0 2.714900 1_555
Al7 Ti2 2.771991 1_655
Al7 Ti4 2.779470 1_555
Al8 Ru1 2.500887 1_555
Al8 Ru0 2.505131 1_555
Al8 Pd1 2.511251 1_556
Al8 Ti1 2.714903 1_555
Al8 Ti2 2.771998 1_555
Al8 Ti3 2.779476 1_555
Al9 Ru4 2.563606 1_555
Al9 Ru1 2.643299 1_555
Al9 Ru3 2.667281 1_455
Al9 Pd1 2.688114 1_545
Al9 Ti1 2.788486 1_555
Al9 Ti5 2.854845 1_555
Al9 Ti3 2.875098 1_544
Al10 Ru4 2.563575 1_555
Al10 Ru2 2.643279 1_656
Al10 Ru3 2.667285 1_556
Al10 Pd0 2.688076 1_545
Al10 Ti0 2.788479 1_556
Al10 Ti5 2.854848 1_555
Al10 Ti4 2.875107 1_545
Al11 Ru4 2.560928 1_565
Al11 Ru0 2.637479 1_554
Al11 Pd1 2.686863 1_555
Al11 Pd0 2.686873 1_555
Al11 Ti3 2.886264 1_554
Al11 Ti4 2.886326 1_555
Al11 Ti5 2.922961 1_565
Al12 Ru4 2.573057 1_555
Al12 Ru0 2.663372 1_555
Al12 Ru2 2.671171 1_656
Al12 Ru1 2.671225 1_555
Al12 Ti5 2.801241 1_555
Al12 Ti0 2.868455 1_556
Al12 Ti1 2.868490 1_555
Al13 Ru4 2.562454 1_565
Al13 Ru1 2.643894 1_555
Al13 Ru3 2.665296 1_566
Al13 Pd1 2.694819 1_556
Al13 Ti4 2.848596 1_555
Al13 Ti0 2.916141 1_566
Al13 Ti2 2.942956 1_555
Al14 Ru4 2.562463 1_565
Al14 Ru2 2.643915 1_555
Al14 Ru3 2.665322 1_465
Al14 Pd0 2.694846 1_455
Al14 Ti3 2.848605 1_554
Al14 Ti1 2.916136 1_565
Al14 Ti2 2.942958 1_555
Pd0 Ti6 2.742829 1_665
Pd0 Ti4 3.067453 1_555
Pd0 Ti5 3.107272 1_565
Pd0 Ti2 3.115209 1_655
Pd0 Ti1 3.168310 1_665
Pd1 Ti6 2.742806 1_564
Pd1 Ti3 3.067475 1_554
Pd1 Ti5 3.107295 1_565
Pd1 Ti2 3.115171 1_554
Pd1 Ti0 3.168293 1_565
Ru0 Ti6 2.590792 1_555
Ru0 Ti7 2.647094 1_556
Ru0 Ti4 3.112115 1_556
Ru0 Ti3 3.112169 1_555
Ru0 Ti0 3.115420 1_556
Ru0 Ti1 3.115456 1_555
Ru1 Ti7 2.669040 1_555
Ru1 Ti1 2.995755 1_555
Ru1 Ti5 3.024341 1_555
Ru1 Ti2 3.055677 1_555
Ru1 Ti4 3.096015 1_555
Ru2 Ti7 2.669055 1_555
Ru2 Ti0 2.995718 1_455
Ru2 Ti5 3.024316 1_454
Ru2 Ti2 3.055686 1_555
Ru2 Ti3 3.096046 1_554
Ru3 Ti1 3.023053 1_655
Ru3 Ti0 3.023069 1_555
Ru3 Ti3 3.053074 1_644
Ru3 Ti4 3.053078 1_544
Ru4 Ti6 2.488837 1_555
Ru4 Ti7 2.560650 1_545
