# generated using pymatgen
data_ZrScFe3Os
_symmetry_space_group_name_H-M   'P 1'
_cell_length_a   5.00568131
_cell_length_b   5.00568184
_cell_length_c   5.13571693
_cell_angle_alpha   60.83409788
_cell_angle_beta   60.83409139
_cell_angle_gamma   59.99999306
_symmetry_Int_Tables_number   1
_chemical_formula_structural   ZrScFe3Os
_chemical_formula_sum   'Zr1 Sc1 Fe3 Os1'
_cell_volume   92.12431230
_cell_formula_units_Z   1
loop_
 _symmetry_equiv_pos_site_id
 _symmetry_equiv_pos_as_xyz
  1  'x, y, z'
loop_
 _atom_site_type_symbol
 _atom_site_label
 _atom_site_symmetry_multiplicity
 _atom_site_fract_x
 _atom_site_fract_y
 _atom_site_fract_z
 _atom_site_occupancy
  Zr  Zr0  1  0.99970756  0.99970756  0.00087833  1
  Sc  Sc0  1  0.24944040  0.24944040  0.25167779  1
  Fe  Fe0  1  0.62509778  0.12574695  0.62405850  1
  Fe  Fe1  1  0.12574695  0.62509778  0.62405850  1
  Fe  Fe2  1  0.62509778  0.62509778  0.62405850  1
  Os  Os0  1  0.62491154  0.62491154  0.12526738  1
loop_
_geom_bond_atom_site_label_1
_geom_bond_atom_site_label_2
_geom_bond_distance
_geom_bond_site_symmetry_2
Sc0 Zr0 3.079922 1_445
Sc0 Zr0 3.079930 1_545
Sc0 Zr0 3.079931 1_455
Sc0 Zr0 3.180646 1_446
Fe0 Fe1 2.499591 1_555
Fe0 Fe2 2.499591 1_555
Fe0 Fe1 2.506090 1_645
Fe0 Fe2 2.506090 1_545
Fe0 Os0 2.562562 1_555
Fe0 Os0 2.573156 1_546
Fe0 Sc0 2.960310 1_655
Fe0 Sc0 2.960318 1_555
Fe0 Zr0 2.970421 1_446
Fe0 Zr0 2.970421 1_546
Fe0 Zr0 3.015445 1_545
Fe0 Sc0 3.030203 1_556
Fe1 Fe2 2.499591 1_555
Fe1 Fe2 2.506090 1_455
Fe1 Os0 2.562561 1_555
Fe1 Os0 2.573156 1_456
Fe1 Sc0 2.960310 1_565
Fe1 Sc0 2.960318 1_555
Fe1 Zr0 2.970421 1_456
Fe1 Zr0 2.970421 1_446
Fe1 Zr0 3.015445 1_455
Fe1 Sc0 3.030203 1_556
Fe2 Os0 2.562559 1_555
Fe2 Os0 2.573159 1_556
Fe2 Sc0 2.960314 1_655
Fe2 Sc0 2.960314 1_565
Fe2 Zr0 2.970421 1_456
Fe2 Zr0 2.970421 1_546
Fe2 Zr0 3.015445 1_555
Fe2 Sc0 3.030207 1_556
Os0 Zr0 2.937879 1_555
Os0 Zr0 2.937883 1_455
Os0 Zr0 2.937883 1_545
Os0 Sc0 2.939432 1_655
Os0 Sc0 2.939432 1_565
Os0 Sc0 2.939445 1_555
