# generated using pymatgen
data_SrWSeO6
_symmetry_space_group_name_H-M   'P 1'
_cell_length_a   6.84981738
_cell_length_b   7.24391970
_cell_length_c   10.89529303
_cell_angle_alpha   99.12014446
_cell_angle_beta   102.00352447
_cell_angle_gamma   89.43185226
_symmetry_Int_Tables_number   1
_chemical_formula_structural   SrWSeO6
_chemical_formula_sum   'Sr4 W4 Se4 O24'
_cell_volume   521.96483519
_cell_formula_units_Z   4
loop_
 _symmetry_equiv_pos_site_id
 _symmetry_equiv_pos_as_xyz
  1  'x, y, z'
loop_
 _atom_site_type_symbol
 _atom_site_label
 _atom_site_symmetry_multiplicity
 _atom_site_fract_x
 _atom_site_fract_y
 _atom_site_fract_z
 _atom_site_occupancy
  Sr  Sr0  1  0.76223109  0.85916929  0.51403998  1
  Sr  Sr1  1  0.23776891  0.14083071  0.48596002  1
  Sr  Sr2  1  0.67204356  0.71074621  0.84746876  1
  Sr  Sr3  1  0.32795644  0.28925379  0.15253124  1
  W  W0  1  0.17386049  0.95765871  0.79813529  1
  W  W1  1  0.82613951  0.04234129  0.20186471  1
  W  W2  1  0.17673536  0.45375646  0.79386037  1
  W  W3  1  0.82326464  0.54624354  0.20613963  1
  Se  Se0  1  0.28362669  0.64269742  0.52695548  1
  Se  Se1  1  0.71637331  0.35730258  0.47304452  1
  Se  Se2  1  0.62742822  0.19134223  0.78271482  1
  Se  Se3  1  0.37257178  0.80865777  0.21728518  1
  O  O0  1  0.18726172  0.05113890  0.95664397  1
  O  O1  1  0.81273828  0.94886110  0.04335603  1
  O  O2  1  0.91526226  0.89019785  0.75157332  1
  O  O3  1  0.08473774  0.10980215  0.24842668  1
  O  O4  1  0.14438174  0.18634902  0.72394329  1
  O  O5  1  0.85561826  0.81365098  0.27605671  1
  O  O6  1  0.27678860  0.71283612  0.82009506  1
  O  O7  1  0.72321140  0.28716388  0.17990494  1
  O  O8  1  0.16951459  0.84523375  0.58814283  1
  O  O9  1  0.83048541  0.15476625  0.41185717  1
  O  O10  1  0.48325103  0.01847396  0.81728553  1
  O  O11  1  0.51674897  0.98152604  0.18271447  1
  O  O12  1  0.21613384  0.43504292  0.95490186  1
  O  O13  1  0.78386616  0.56495708  0.04509814  1
  O  O14  1  0.92111269  0.50161811  0.76004515  1
  O  O15  1  0.07888731  0.49838189  0.23995485  1
  O  O16  1  0.19841018  0.47078484  0.59984733  1
  O  O17  1  0.80158982  0.52921516  0.40015267  1
  O  O18  1  0.49081081  0.38956998  0.80120855  1
  O  O19  1  0.50918919  0.61043002  0.19879145  1
  O  O20  1  0.52177898  0.67875180  0.60652530  1
  O  O21  1  0.47822102  0.32124820  0.39347470  1
  O  O22  1  0.58476167  0.13183043  0.62292625  1
  O  O23  1  0.41523833  0.86816957  0.37707375  1
loop_
_geom_bond_atom_site_label_1
_geom_bond_atom_site_label_2
_geom_bond_distance
_geom_bond_site_symmetry_2
O0 W0 1.736105 1_545
O0 Sr3 2.543510 1_556
O1 W1 1.736105 1_565
O1 Sr2 2.543510 1_554
O2 W0 1.788478 1_655
O2 Sr0 2.557132 1_555
O2 Sr2 2.598950 1_555
O3 W1 1.788478 1_455
O3 Sr1 2.557132 1_555
O3 Sr3 2.598950 1_555
O4 W0 1.946420 1_545
O4 W2 1.962699 1_555
O4 Sr1 2.766898 1_555
O5 W1 1.946420 1_565
O5 W3 1.962699 1_555
O5 Sr0 2.766898 1_555
O6 W0 1.933673 1_555
O6 W2 1.961522 1_555
O6 Sr2 2.661593 1_555
O7 W1 1.933673 1_555
O7 W3 1.961522 1_555
O7 Sr3 2.661593 1_555
O8 Se0 1.758376 1_555
O8 W0 2.297873 1_555
O8 Sr1 2.652397 1_565
O8 Sr0 2.743810 1_455
O9 Se1 1.758376 1_555
O9 W1 2.297873 1_555
O9 Sr0 2.652397 1_545
O9 Sr1 2.743810 1_655
O10 Se2 1.736113 1_555
O10 W0 2.129405 1_545
O10 Sr2 2.597684 1_545
O11 Se3 1.736113 1_555
O11 W1 2.129405 1_565
O11 Sr3 2.597684 1_565
O12 W2 1.745717 1_555
O12 Sr3 2.521356 1_556
O13 W3 1.745717 1_555
O13 Sr2 2.521356 1_554
O14 W2 1.755552 1_655
O14 Sr2 2.506023 1_555
O15 W3 1.755552 1_455
O15 Sr3 2.506023 1_555
O16 Se0 1.744429 1_555
O16 W2 2.172347 1_555
O16 Sr1 2.551745 1_555
O17 Se1 1.744429 1_555
O17 W3 2.172347 1_555
O17 Sr0 2.551745 1_555
O18 Se2 1.714155 1_555
O18 W2 2.184323 1_555
O18 Sr2 2.575534 1_555
O19 Se3 1.714155 1_555
O19 W3 2.184323 1_555
O19 Sr3 2.575534 1_555
O20 Se0 1.682070 1_555
O20 Sr0 2.566459 1_555
O20 Sr2 2.586990 1_555
O21 Se1 1.682070 1_555
O21 Sr1 2.566459 1_555
O21 Sr3 2.586990 1_555
O22 Se2 1.689700 1_555
O22 Sr1 2.536331 1_555
O22 Sr0 2.568223 1_545
O23 Se3 1.689700 1_555
O23 Sr0 2.536331 1_555
O23 Sr1 2.568223 1_565
