# generated using pymatgen
data_Hf6Ti6Si5As
_symmetry_space_group_name_H-M   'P 1'
_cell_length_a   7.86131511
_cell_length_b   7.86476140
_cell_length_c   7.86283099
_cell_angle_alpha   127.54818664
_cell_angle_beta   124.14743171
_cell_angle_gamma   80.15957096
_symmetry_Int_Tables_number   1
_chemical_formula_structural   Hf6Ti6Si5As
_chemical_formula_sum   'Hf6 Ti6 Si5 As1'
_cell_volume   307.93394748
_cell_formula_units_Z   1
loop_
 _symmetry_equiv_pos_site_id
 _symmetry_equiv_pos_as_xyz
  1  'x, y, z'
loop_
 _atom_site_type_symbol
 _atom_site_label
 _atom_site_symmetry_multiplicity
 _atom_site_fract_x
 _atom_site_fract_y
 _atom_site_fract_z
 _atom_site_occupancy
  Hf  Hf0  1  0.45062581  0.66029702  0.70601359  1
  Hf  Hf1  1  0.54450595  0.25142126  0.20301964  1
  Hf  Hf2  1  0.74877962  0.84835218  0.59551170  1
  Hf  Hf3  1  0.25297356  0.84854640  0.09949549  1
  Hf  Hf4  1  0.04865938  0.25155255  0.70692441  1
  Hf  Hf5  1  0.95406311  0.65996305  0.20939447  1
  Ti  Ti0  1  0.50022088  0.50240907  0.00217133  1
  Ti  Ti1  1  0.00075903  0.50016245  0.49931598  1
  Ti  Ti2  1  0.12369680  0.25337234  0.12904730  1
  Ti  Ti3  1  0.87654543  0.00839250  0.13241427  1
  Ti  Ti4  1  0.37541681  0.00406257  0.62777193  1
  Ti  Ti5  1  0.62347428  0.25115955  0.62841375  1
  Si  Si0  1  0.25099444  0.25367711  0.50396633  1
  Si  Si1  1  0.74922685  0.25302484  0.00273540  1
  Si  Si2  1  0.33324736  0.58639501  0.25313473  1
  Si  Si3  1  0.66727855  0.92034039  0.25326551  1
  Si  Si4  1  0.16597575  0.91945283  0.75334853  1
  As  As0  1  0.83355640  0.58701486  0.75365465  1
loop_
_geom_bond_atom_site_label_1
_geom_bond_atom_site_label_2
_geom_bond_distance
_geom_bond_site_symmetry_2
Hf0 Si4 2.784170 1_555
Hf0 Si3 2.799236 1_556
Hf0 Si2 2.800217 1_555
Hf0 Si0 2.817419 1_555
Hf0 Ti4 3.018319 1_565
Hf0 Ti3 3.047899 1_566
Hf0 Ti1 3.051167 1_555
Hf0 Ti2 3.074748 1_555
Hf0 Ti0 3.075096 1_556
Hf0 Ti5 3.100958 1_555
Hf1 Si4 2.786594 1_544
Hf1 Si2 2.797825 1_555
Hf1 Si3 2.799024 1_545
Hf1 Si1 2.818987 1_555
Hf1 Ti2 3.019202 1_555
Hf1 Ti5 3.041371 1_555
Hf1 Ti3 3.066457 1_555
Hf1 Ti4 3.069022 1_554
Hf1 Ti0 3.075579 1_555
Hf1 Ti1 3.095439 1_655
Hf2 Si3 2.787485 1_555
Hf2 Si4 2.796590 1_655
Hf2 Si2 2.798279 1_555
Hf2 Si1 2.819915 1_566
Hf2 Ti0 3.016254 1_555
Hf2 Ti5 3.048588 1_565
Hf2 Ti1 3.049316 1_655
Hf2 Ti4 3.067180 1_565
Hf2 Ti2 3.077817 1_666
Hf2 Ti3 3.100026 1_566
Hf3 Si3 2.786432 1_555
Hf3 Si4 2.795754 1_554
Hf3 Si2 2.800654 1_555
Hf3 Si0 2.820349 1_565
Hf3 Ti0 3.016032 1_555
Hf3 Ti1 3.049782 1_554
Hf3 Ti5 3.050977 1_565
Hf3 Ti4 3.065547 1_565
Hf3 Ti2 3.079153 1_565
Hf3 Ti3 3.097757 1_465
Hf4 Si4 2.786846 1_545
Hf4 Si2 2.797662 1_556
Hf4 Si3 2.799314 1_445
Hf4 Si0 2.822812 1_555
Hf4 Ti2 3.018514 1_556
Hf4 Ti5 3.039447 1_455
Hf4 Ti4 3.063277 1_555
Hf4 Ti3 3.063826 1_455
Hf4 Ti0 3.072946 1_556
Hf4 Ti1 3.094843 1_555
Hf5 Si4 2.785178 1_655
Hf5 Si3 2.798090 1_555
Hf5 Si2 2.800147 1_655
Hf5 Si1 2.821662 1_555
Hf5 Ti4 3.016211 1_665
Hf5 Ti3 3.046938 1_565
Hf5 Ti1 3.050531 1_655
Hf5 Ti2 3.070648 1_655
Hf5 Ti0 3.073025 1_555
Hf5 Ti5 3.096055 1_554
Si0 Ti5 2.513811 1_555
Si0 Ti1 2.516200 1_555
Si0 Ti3 2.517687 1_455
Si0 Ti4 2.522372 1_555
Si0 Ti0 2.522746 1_556
Si0 Ti2 2.524290 1_555
Si1 Ti5 2.515144 1_554
Si1 Ti1 2.515792 1_655
Si1 Ti3 2.516010 1_555
Si1 Ti4 2.523052 1_554
Si1 Ti0 2.523349 1_555
Si1 Ti2 2.523815 1_655
Si2 Ti4 2.656945 1_565
Si2 Ti0 2.660073 1_555
Si2 Ti2 2.661063 1_555
Si3 Ti3 2.652423 1_565
Si3 Ti5 2.658707 1_565
Si3 Ti0 2.661110 1_555
Si4 Ti1 2.659725 1_555
Si4 Ti2 2.661187 1_566
Si4 Ti4 2.670035 1_565
As0 Ti5 2.677545 1_555
As0 Ti1 2.678200 1_655
As0 Ti3 2.681332 1_566
As0 Hf2 2.816263 1_555
As0 Hf3 2.816336 1_656
As0 Hf5 2.817144 1_556
As0 Hf0 2.817584 1_555
As0 Hf4 2.818912 1_655
As0 Hf1 2.819881 1_555
