# generated using pymatgen
data_BaNbCu4P4O17
_symmetry_space_group_name_H-M   'P 1'
_cell_length_a   9.71417938
_cell_length_b   9.71417938
_cell_length_c   7.23004989
_cell_angle_alpha   90.00000000
_cell_angle_beta   90.00000000
_cell_angle_gamma   90.00000000
_symmetry_Int_Tables_number   1
_chemical_formula_structural   BaNbCu4P4O17
_chemical_formula_sum   'Ba2 Nb2 Cu8 P8 O34'
_cell_volume   682.26568925
_cell_formula_units_Z   2
loop_
 _symmetry_equiv_pos_site_id
 _symmetry_equiv_pos_as_xyz
  1  'x, y, z'
loop_
 _atom_site_type_symbol
 _atom_site_label
 _atom_site_symmetry_multiplicity
 _atom_site_fract_x
 _atom_site_fract_y
 _atom_site_fract_z
 _atom_site_occupancy
  Ba  Ba0  1  0.50000000  0.50000000  0.00000000  1
  Ba  Ba1  1  0.00000000  0.00000000  0.00000000  1
  Nb  Nb0  1  0.00000000  0.50000000  0.97571610  1
  Nb  Nb1  1  0.50000000  0.00000000  0.02428390  1
  Cu  Cu0  1  0.76538971  0.51226217  0.40698788  1
  Cu  Cu1  1  0.23461029  0.48773783  0.40698788  1
  Cu  Cu2  1  0.73461029  0.01226217  0.59301212  1
  Cu  Cu3  1  0.26538971  0.98773783  0.59301212  1
  Cu  Cu4  1  0.51226217  0.76538971  0.59301212  1
  Cu  Cu5  1  0.48773783  0.23461029  0.59301212  1
  Cu  Cu6  1  0.01226217  0.73461029  0.40698788  1
  Cu  Cu7  1  0.98773783  0.26538971  0.40698788  1
  P  P0  1  0.77956000  0.30490183  0.73594094  1
  P  P1  1  0.22044000  0.69509817  0.73594094  1
  P  P2  1  0.72044000  0.80490183  0.26405906  1
  P  P3  1  0.27956000  0.19509817  0.26405906  1
  P  P4  1  0.30490183  0.77956000  0.26405906  1
  P  P5  1  0.69509817  0.22044000  0.26405906  1
  P  P6  1  0.80490183  0.72044000  0.73594094  1
  P  P7  1  0.19509817  0.27956000  0.73594094  1
  O  O0  1  0.84836472  0.36294692  0.55847974  1
  O  O1  1  0.15163528  0.63705308  0.55847974  1
  O  O2  1  0.65163528  0.86294692  0.44152026  1
  O  O3  1  0.34836472  0.13705308  0.44152026  1
  O  O4  1  0.36294692  0.84836472  0.44152026  1
  O  O5  1  0.63705308  0.15163528  0.44152026  1
  O  O6  1  0.86294692  0.65163528  0.55847974  1
  O  O7  1  0.13705308  0.34836472  0.55847974  1
  O  O8  1  0.62575904  0.33537355  0.73463874  1
  O  O9  1  0.37424096  0.66462645  0.73463874  1
  O  O10  1  0.87424096  0.83537355  0.26536126  1
  O  O11  1  0.12575904  0.16462645  0.26536126  1
  O  O12  1  0.33537355  0.62575904  0.26536126  1
  O  O13  1  0.66462645  0.37424096  0.26536126  1
  O  O14  1  0.83537355  0.87424096  0.73463874  1
  O  O15  1  0.16462645  0.12575904  0.73463874  1
  O  O16  1  0.83738452  0.38617144  0.90471086  1
  O  O17  1  0.16261548  0.61382856  0.90471086  1
  O  O18  1  0.66261548  0.88617144  0.09528914  1
  O  O19  1  0.33738452  0.11382856  0.09528914  1
  O  O20  1  0.38617144  0.83738452  0.09528914  1
  O  O21  1  0.61382856  0.16261548  0.09528914  1
  O  O22  1  0.88617144  0.66261548  0.90471086  1
  O  O23  1  0.11382856  0.33738452  0.90471086  1
  O  O24  1  0.00000000  0.50000000  0.22122617  1
  O  O25  1  0.50000000  0.00000000  0.77877383  1
  O  O26  1  0.81774106  0.15363126  0.75630205  1
  O  O27  1  0.18225894  0.84636874  0.75630205  1
  O  O28  1  0.68225894  0.65363126  0.24369795  1
  O  O29  1  0.31774106  0.34636874  0.24369795  1
  O  O30  1  0.15363126  0.81774106  0.24369795  1
  O  O31  1  0.84636874  0.18225894  0.24369795  1
  O  O32  1  0.65363126  0.68225894  0.75630205  1
  O  O33  1  0.34636874  0.31774106  0.75630205  1
loop_
_geom_bond_atom_site_label_1
_geom_bond_atom_site_label_2
_geom_bond_distance
_geom_bond_site_symmetry_2
Ba0 O13 2.780436 1_555
Ba0 O12 2.780436 1_555
Ba0 O9 2.780436 1_554
Ba0 O8 2.780436 1_554
Ba0 O28 2.909705 1_555
Ba0 O32 2.909705 1_554
Ba0 O29 2.909705 1_555
Ba0 O33 2.909705 1_554
Ba1 O11 2.780436 1_555
Ba1 O15 2.780436 1_554
Ba1 O10 2.780436 1_445
Ba1 O14 2.780436 1_444
Ba1 O31 2.909705 1_455
Ba1 O30 2.909705 1_545
Ba1 O27 2.909705 1_544
Ba1 O26 2.909705 1_454
Nb0 O24 1.775050 1_556
Nb0 O22 1.995398 1_455
Nb0 O17 1.995398 1_555
Nb0 O23 1.995398 1_555
Nb0 O16 1.995398 1_455
Nb1 O25 1.775050 1_554
Nb1 O18 1.995398 1_545
Nb1 O21 1.995398 1_555
Nb1 O19 1.995398 1_555
Nb1 O20 1.995398 1_545
Cu0 O13 1.950453 1_555
Cu0 O6 1.982628 1_555
Cu0 O28 1.982888 1_555
Cu0 O0 1.988275 1_555
Cu1 O12 1.950453 1_555
Cu1 O7 1.982628 1_555
Cu1 O29 1.982888 1_555
Cu1 O1 1.988275 1_555
Cu2 O14 1.950453 1_545
Cu2 O5 1.982628 1_555
Cu2 O26 1.982888 1_555
Cu2 O2 1.988275 1_545
Cu3 O15 1.950453 1_565
Cu3 O4 1.982628 1_555
Cu3 O27 1.982888 1_555
Cu3 O3 1.988275 1_565
Cu4 O9 1.950453 1_555
Cu4 O2 1.982628 1_555
Cu4 O32 1.982888 1_555
Cu4 O4 1.988275 1_555
Cu5 O8 1.950453 1_555
Cu5 O3 1.982628 1_555
Cu5 O33 1.982888 1_555
Cu5 O5 1.988275 1_555
Cu6 O10 1.950453 1_455
Cu6 O1 1.982628 1_555
Cu6 O30 1.982888 1_555
Cu6 O6 1.988275 1_455
Cu7 O11 1.950453 1_655
Cu7 O0 1.982628 1_555
Cu7 O31 1.982888 1_555
Cu7 O7 1.988275 1_655
O0 P0 1.552707 1_555
O1 P1 1.552707 1_555
O2 P2 1.552707 1_555
O3 P3 1.552707 1_555
O4 P4 1.552707 1_555
O5 P5 1.552707 1_555
O6 P6 1.552707 1_555
O7 P7 1.552707 1_555
O8 P0 1.523120 1_555
O9 P1 1.523120 1_555
O10 P2 1.523120 1_555
O11 P3 1.523120 1_555
O12 P4 1.523120 1_555
O13 P5 1.523120 1_555
O14 P6 1.523120 1_555
O15 P7 1.523120 1_555
O16 P0 1.558111 1_555
O17 P1 1.558111 1_555
O18 P2 1.558111 1_555
O19 P3 1.558111 1_555
O20 P4 1.558111 1_555
O21 P5 1.558111 1_555
O22 P6 1.558111 1_555
O23 P7 1.558111 1_555
O26 P0 1.522687 1_555
O27 P1 1.522687 1_555
O28 P2 1.522687 1_555
O29 P3 1.522687 1_555
O30 P4 1.522687 1_555
O31 P5 1.522687 1_555
O32 P6 1.522687 1_555
O33 P7 1.522687 1_555
