# generated using pymatgen
data_Lu12AlCo4Rh
_symmetry_space_group_name_H-M   'P 1'
_cell_length_a   8.01791299
_cell_length_b   8.01791219
_cell_length_c   8.01791233
_cell_angle_alpha   110.88014825
_cell_angle_beta   110.95732495
_cell_angle_gamma   106.61343475
_symmetry_Int_Tables_number   1
_chemical_formula_structural   Lu12AlCo4Rh
_chemical_formula_sum   'Lu12 Al1 Co4 Rh1'
_cell_volume   396.05539164
_cell_formula_units_Z   1
loop_
 _symmetry_equiv_pos_site_id
 _symmetry_equiv_pos_as_xyz
  1  'x, y, z'
loop_
 _atom_site_type_symbol
 _atom_site_label
 _atom_site_symmetry_multiplicity
 _atom_site_fract_x
 _atom_site_fract_y
 _atom_site_fract_z
 _atom_site_occupancy
  Lu  Lu0  1  0.58495787  0.28056624  0.30439163  1
  Lu  Lu1  1  0.18675154  0.21141391  0.39816545  1
  Lu  Lu2  1  0.18675154  0.78858609  0.97533863  1
  Lu  Lu3  1  0.68452474  0.48658659  0.80206185  1
  Lu  Lu4  1  0.68452474  0.88246289  0.19793815  1
  Lu  Lu5  1  0.97617361  0.28056624  0.69560837  1
  Lu  Lu6  1  0.02382639  0.71943376  0.30439163  1
  Lu  Lu7  1  0.31547526  0.11753711  0.80206185  1
  Lu  Lu8  1  0.31547526  0.51341341  0.19793815  1
  Lu  Lu9  1  0.81324846  0.21141391  0.02466137  1
  Lu  Lu10  1  0.81324846  0.78858609  0.60183455  1
  Lu  Lu11  1  0.41504213  0.71943376  0.69560837  1
  Al  Al0  1  0.50000000  0.00000000  0.50000000  1
  Co  Co0  1  0.88751677  0.88751677  1.00000000  1
  Co  Co1  1  0.37675808  0.50000000  0.87675808  1
  Co  Co2  1  0.62324192  0.50000000  0.12324192  1
  Co  Co3  1  0.11248323  0.11248323  0.00000000  1
  Rh  Rh0  1  0.00000000  0.50000000  0.50000000  1
loop_
_geom_bond_atom_site_label_1
_geom_bond_atom_site_label_2
_geom_bond_distance
_geom_bond_site_symmetry_2
Lu0 Rh0 2.753339 1_655
Lu1 Rh0 3.125977 1_555
Lu2 Rh0 3.125984 1_555
Lu5 Rh0 2.753340 1_655
Lu6 Rh0 2.753340 1_555
Lu9 Rh0 3.125984 1_655
Lu10 Rh0 3.125977 1_655
Lu11 Rh0 2.753339 1_555
Al0 Lu5 3.222920 1_555
Al0 Lu6 3.222920 1_545
Al0 Lu0 3.222926 1_555
Al0 Lu11 3.222926 1_545
Al0 Lu7 3.267451 1_555
Al0 Lu4 3.267451 1_545
Al0 Lu3 3.267451 1_555
Al0 Lu8 3.267451 1_545
Al0 Lu2 3.435437 1_544
Al0 Lu9 3.435437 1_556
Al0 Lu10 3.435444 1_545
Al0 Lu1 3.435444 1_555
Co0 Co3 2.155607 1_666
Co0 Lu4 2.650520 1_556
Co0 Lu3 2.650520 1_555
Co0 Lu2 2.782167 1_655
Co0 Lu10 2.782169 1_555
Co0 Lu1 2.782169 1_666
Co0 Lu9 2.782170 1_566
Co0 Lu11 3.200919 1_555
Co0 Lu6 3.200920 1_656
Co1 Co2 2.239974 1_556
Co1 Lu11 2.670392 1_555
Co1 Lu5 2.670399 1_455
Co1 Lu7 2.760902 1_555
Co1 Lu8 2.760902 1_556
Co1 Lu3 2.760902 1_555
Co1 Lu4 2.760902 1_556
Co1 Lu1 3.142136 1_555
Co1 Lu2 3.142137 1_555
Co2 Lu0 2.670392 1_555
Co2 Lu6 2.670399 1_655
Co2 Lu4 2.760902 1_555
Co2 Lu3 2.760902 1_554
Co2 Lu8 2.760902 1_555
Co2 Lu7 2.760902 1_554
Co2 Lu10 3.142136 1_555
Co2 Lu9 3.142137 1_555
Co3 Lu7 2.650520 1_554
Co3 Lu8 2.650520 1_555
Co3 Lu9 2.782167 1_455
Co3 Lu1 2.782169 1_555
Co3 Lu10 2.782169 1_444
Co3 Lu2 2.782170 1_544
Co3 Lu0 3.200919 1_555
Co3 Lu5 3.200920 1_454
