# generated using pymatgen
data_Sc5GaNiBi
_symmetry_space_group_name_H-M   'P 1'
_cell_length_a   8.06865084
_cell_length_b   8.06865061
_cell_length_c   8.19878758
_cell_angle_alpha   125.40443359
_cell_angle_beta   125.40442964
_cell_angle_gamma   79.78301935
_symmetry_Int_Tables_number   1
_chemical_formula_structural   Sc5GaNiBi
_chemical_formula_sum   'Sc10 Ga2 Ni2 Bi2'
_cell_volume   344.40457647
_cell_formula_units_Z   2
loop_
 _symmetry_equiv_pos_site_id
 _symmetry_equiv_pos_as_xyz
  1  'x, y, z'
loop_
 _atom_site_type_symbol
 _atom_site_label
 _atom_site_symmetry_multiplicity
 _atom_site_fract_x
 _atom_site_fract_y
 _atom_site_fract_z
 _atom_site_occupancy
  Sc  Sc0  1  0.00000000  0.00000000  0.00000000  1
  Sc  Sc1  1  0.50000000  0.50000000  0.00000000  1
  Sc  Sc2  1  0.77829656  0.27829656  0.79010387  1
  Sc  Sc3  1  0.22170344  0.72170344  0.20989613  1
  Sc  Sc4  1  0.48819369  0.98819369  0.20989613  1
  Sc  Sc5  1  0.30719630  0.45834326  0.50000000  1
  Sc  Sc6  1  0.04165674  0.19280370  0.50000000  1
  Sc  Sc7  1  0.51180631  0.01180631  0.79010387  1
  Sc  Sc8  1  0.69280370  0.54165674  0.50000000  1
  Sc  Sc9  1  0.95834326  0.80719630  0.50000000  1
  Ga  Ga0  1  0.13596472  0.63596472  0.77192943  1
  Ga  Ga1  1  0.86403528  0.36403528  0.22807057  1
  Ni  Ni0  1  0.62997788  0.87002212  0.50000000  1
  Ni  Ni1  1  0.37002212  0.12997788  0.50000000  1
  Bi  Bi0  1  0.25000000  0.25000000  0.00000000  1
  Bi  Bi1  1  0.75000000  0.75000000  0.00000000  1
loop_
_geom_bond_atom_site_label_1
_geom_bond_atom_site_label_2
_geom_bond_distance
_geom_bond_site_symmetry_2
Ga0 Sc6 2.845665 1_555
Ga0 Sc8 2.845665 1_455
Ga0 Sc5 2.845665 1_555
Ga0 Sc9 2.845666 1_455
Ga0 Sc0 2.863112 1_566
Ga0 Sc1 2.863112 1_556
Ga0 Sc3 2.874746 1_556
Ga0 Sc4 2.874753 1_556
Ga1 Sc9 2.845665 1_555
Ga1 Sc5 2.845665 1_655
Ga1 Sc8 2.845665 1_555
Ga1 Sc6 2.845666 1_655
Ga1 Sc0 2.863112 1_655
Ga1 Sc1 2.863112 1_555
Ga1 Sc2 2.874746 1_554
Ga1 Sc7 2.874753 1_554
Ni0 Sc8 2.607715 1_555
Ni0 Sc9 2.607715 1_555
Ni0 Sc2 2.638764 1_565
Ni0 Sc3 2.638764 1_555
Ni0 Sc7 2.638772 1_565
Ni0 Sc4 2.638772 1_555
Ni0 Ni1 2.690394 1_565
Ni0 Sc1 2.960849 1_555
Ni0 Sc0 2.960850 1_666
Ni1 Sc5 2.607715 1_555
Ni1 Sc6 2.607715 1_555
Ni1 Sc3 2.638764 1_545
Ni1 Sc2 2.638764 1_555
Ni1 Sc4 2.638772 1_545
Ni1 Sc7 2.638772 1_555
Ni1 Sc1 2.960849 1_556
Ni1 Sc0 2.960850 1_555
Bi0 Sc1 3.095377 1_555
Bi0 Sc0 3.095377 1_555
Bi0 Sc9 3.153130 1_444
Bi0 Sc8 3.153130 1_555
Bi0 Sc5 3.153130 1_555
Bi0 Sc6 3.153130 1_554
Bi0 Sc7 3.171303 1_554
Bi0 Sc4 3.171303 1_545
Bi0 Sc3 3.171308 1_555
Bi0 Sc2 3.171308 1_454
Bi1 Sc1 3.095377 1_555
Bi1 Sc0 3.095377 1_665
Bi1 Sc6 3.153130 1_665
Bi1 Sc5 3.153130 1_554
Bi1 Sc8 3.153130 1_554
Bi1 Sc9 3.153130 1_555
Bi1 Sc4 3.171303 1_555
Bi1 Sc7 3.171303 1_564
Bi1 Sc2 3.171308 1_554
Bi1 Sc3 3.171308 1_655
