# generated using pymatgen
data_Ir3Pt(Pb2O7)2
_symmetry_space_group_name_H-M   'P 1'
_cell_length_a   7.30249631
_cell_length_b   7.28299771
_cell_length_c   7.30277144
_cell_angle_alpha   59.90806159
_cell_angle_beta   59.99674031
_cell_angle_gamma   59.90680649
_symmetry_Int_Tables_number   1
_chemical_formula_structural   Ir3Pt(Pb2O7)2
_chemical_formula_sum   'Ir3 Pt1 Pb4 O14'
_cell_volume   274.24233969
_cell_formula_units_Z   1
loop_
 _symmetry_equiv_pos_site_id
 _symmetry_equiv_pos_as_xyz
  1  'x, y, z'
loop_
 _atom_site_type_symbol
 _atom_site_label
 _atom_site_symmetry_multiplicity
 _atom_site_fract_x
 _atom_site_fract_y
 _atom_site_fract_z
 _atom_site_occupancy
  Ir  Ir0  1  0.12500000  0.62500000  0.62500000  1
  Ir  Ir1  1  0.62500000  0.62500000  0.12500000  1
  Ir  Ir2  1  0.62500000  0.62500000  0.62500000  1
  Pt  Pt0  1  0.62500000  0.12500000  0.62500000  1
  Pb  Pb0  1  0.62500000  0.12500000  0.12500000  1
  Pb  Pb1  1  0.12500000  0.62500000  0.12500000  1
  Pb  Pb2  1  0.12500000  0.12500000  0.62500000  1
  Pb  Pb3  1  0.12500000  0.12500000  0.12500000  1
  O  O0  1  0.70501601  0.70605503  0.29446533  1
  O  O1  1  0.29200768  0.29504585  0.70647294  1
  O  O2  1  0.70649148  0.29503648  0.70648143  1
  O  O3  1  0.29447948  0.70604948  0.29446902  1
  O  O4  1  0.29447417  0.70605514  0.70500641  1
  O  O5  1  0.70648423  0.29504277  0.29199590  1
  O  O6  1  0.54498399  0.54394497  0.95553467  1
  O  O7  1  0.95799232  0.95495415  0.54352706  1
  O  O8  1  0.54350852  0.95496352  0.54351857  1
  O  O9  1  0.95552052  0.54395052  0.95553098  1
  O  O10  1  0.95552583  0.54394486  0.54499359  1
  O  O11  1  0.54351577  0.95495723  0.95800410  1
  O  O12  1  0.25183304  0.24448331  0.25184623  1
  O  O13  1  0.99816696  0.00551669  0.99815377  1
loop_
_geom_bond_atom_site_label_1
_geom_bond_atom_site_label_2
_geom_bond_distance
_geom_bond_site_symmetry_2
Ir0 O7 1.992243 1_455
Ir0 O1 1.992243 1_555
Ir0 O9 2.005668 1_455
Ir0 O3 2.005668 1_555
Ir0 O4 2.005772 1_555
Ir0 O10 2.005772 1_455
Ir1 O11 1.992268 1_554
Ir1 O5 1.992268 1_555
Ir1 O9 2.005518 1_554
Ir1 O3 2.005518 1_555
Ir1 O0 2.005787 1_555
Ir1 O6 2.005787 1_554
Ir2 O8 1.992314 1_555
Ir2 O2 1.992314 1_555
Ir2 O10 2.005559 1_555
Ir2 O4 2.005559 1_555
Ir2 O6 2.005710 1_555
Ir2 O0 2.005710 1_555
O0 Pb0 2.516242 1_565
O0 Pb1 2.531251 1_655
O1 Pt0 2.018111 1_555
O1 Pb3 2.520669 1_556
O1 Pb2 2.520776 1_555
O2 Pt0 2.018383 1_555
O2 Pb2 2.520442 1_655
O2 Pb0 2.520630 1_556
O3 Pb3 2.516257 1_565
O3 Pb1 2.531556 1_555
O4 Pb2 2.516233 1_565
O4 Pb1 2.531427 1_556
O5 Pt0 2.018276 1_555
O5 Pb3 2.520478 1_655
O5 Pb0 2.520760 1_555
O6 Pb0 2.516242 1_556
O6 Pb1 2.531251 1_556
O7 Pt0 2.018111 1_565
O7 Pb3 2.520669 1_665
O7 Pb2 2.520776 1_665
O8 Pt0 2.018383 1_565
O8 Pb2 2.520442 1_565
O8 Pb0 2.520630 1_565
O9 Pb3 2.516257 1_656
O9 Pb1 2.531556 1_656
O10 Pb2 2.516233 1_655
O10 Pb1 2.531427 1_655
O11 Pt0 2.018276 1_565
O11 Pb3 2.520478 1_566
O11 Pb0 2.520760 1_566
O12 Pb0 2.224187 1_555
O12 Pb2 2.224219 1_555
O12 Pb3 2.224363 1_555
O12 Pb1 2.259606 1_555
O13 Pb0 2.224187 1_556
O13 Pb2 2.224219 1_655
O13 Pb3 2.224363 1_656
O13 Pb1 2.259606 1_646
