# generated using pymatgen
data_Cs3NaVCl6
_symmetry_space_group_name_H-M   'P 1'
_cell_length_a   8.89008976
_cell_length_b   8.89009018
_cell_length_c   8.89008936
_cell_angle_alpha   94.39426700
_cell_angle_beta   94.39426487
_cell_angle_gamma   94.39427103
_symmetry_Int_Tables_number   1
_chemical_formula_structural   Cs3NaVCl6
_chemical_formula_sum   'Cs6 Na2 V2 Cl12'
_cell_volume   696.08316202
_cell_formula_units_Z   2
loop_
 _symmetry_equiv_pos_site_id
 _symmetry_equiv_pos_as_xyz
  1  'x, y, z'
loop_
 _atom_site_type_symbol
 _atom_site_label
 _atom_site_symmetry_multiplicity
 _atom_site_fract_x
 _atom_site_fract_y
 _atom_site_fract_z
 _atom_site_occupancy
  Cs  Cs0  1  0.37635754  0.75000000  0.12364246  1
  Cs  Cs1  1  0.12364246  0.37635754  0.75000000  1
  Cs  Cs2  1  0.75000000  0.12364246  0.37635754  1
  Cs  Cs3  1  0.62364246  0.25000000  0.87635754  1
  Cs  Cs4  1  0.87635754  0.62364246  0.25000000  1
  Cs  Cs5  1  0.25000000  0.87635754  0.62364246  1
  Na  Na0  1  0.25000000  0.25000000  0.25000000  1
  Na  Na1  1  0.75000000  0.75000000  0.75000000  1
  V  V0  1  0.50000000  0.50000000  0.50000000  1
  V  V1  1  0.00000000  0.00000000  0.00000000  1
  Cl  Cl0  1  0.41416241  0.22745982  0.53272732  1
  Cl  Cl1  1  0.53272732  0.41416241  0.22745982  1
  Cl  Cl2  1  0.22745982  0.53272732  0.41416241  1
  Cl  Cl3  1  0.08583759  0.96727268  0.27254018  1
  Cl  Cl4  1  0.27254018  0.08583759  0.96727268  1
  Cl  Cl5  1  0.96727268  0.27254018  0.08583759  1
  Cl  Cl6  1  0.03272732  0.72745982  0.91416241  1
  Cl  Cl7  1  0.72745982  0.91416241  0.03272732  1
  Cl  Cl8  1  0.91416241  0.03272732  0.72745982  1
  Cl  Cl9  1  0.77254018  0.46727268  0.58583759  1
  Cl  Cl10  1  0.46727268  0.58583759  0.77254018  1
  Cl  Cl11  1  0.58583759  0.77254018  0.46727268  1
loop_
_geom_bond_atom_site_label_1
_geom_bond_atom_site_label_2
_geom_bond_distance
_geom_bond_site_symmetry_2
Cl0 V0 2.529066 1_555
Cl0 Na0 2.836808 1_555
Cl0 Cs3 3.437725 1_555
Cl0 Cs5 3.520676 1_545
Cl0 Cs2 3.544001 1_555
Cl0 Cs1 3.612526 1_555
Cl1 V0 2.529066 1_555
Cl1 Na0 2.836808 1_555
Cl1 Cs4 3.437725 1_555
Cl1 Cs3 3.520676 1_554
Cl1 Cs0 3.544001 1_555
Cl1 Cs2 3.612526 1_555
Cl2 V0 2.529066 1_555
Cl2 Na0 2.836808 1_555
Cl2 Cs5 3.437725 1_555
Cl2 Cs4 3.520676 1_455
Cl2 Cs1 3.544001 1_555
Cl2 Cs0 3.612526 1_555
Cl3 V1 2.529066 1_565
Cl3 Na0 2.836808 1_565
Cl3 Cs4 3.437725 1_455
Cl3 Cs5 3.520676 1_555
Cl3 Cs2 3.544001 1_465
Cl3 Cs0 3.612526 1_555
Cl4 V1 2.529066 1_556
Cl4 Na0 2.836808 1_556
Cl4 Cs5 3.437725 1_545
Cl4 Cs3 3.520676 1_555
Cl4 Cs0 3.544001 1_546
Cl4 Cs1 3.612526 1_555
Cl5 V1 2.529066 1_655
Cl5 Na0 2.836808 1_655
Cl5 Cs3 3.437725 1_554
Cl5 Cs4 3.520676 1_555
Cl5 Cs1 3.544001 1_654
Cl5 Cs2 3.612526 1_555
Cl6 V1 2.529066 1_566
Cl6 Na1 2.836808 1_455
Cl6 Cs0 3.437725 1_556
Cl6 Cs1 3.520676 1_555
Cl6 Cs4 3.544001 1_456
Cl6 Cs5 3.612526 1_555
Cl7 V1 2.529066 1_665
Cl7 Na1 2.836808 1_554
Cl7 Cs2 3.437725 1_565
Cl7 Cs0 3.520676 1_555
Cl7 Cs3 3.544001 1_564
Cl7 Cs4 3.612526 1_555
Cl8 V1 2.529066 1_656
Cl8 Na1 2.836808 1_545
Cl8 Cs1 3.437725 1_655
Cl8 Cs2 3.520676 1_555
Cl8 Cs5 3.544001 1_645
Cl8 Cs3 3.612526 1_555
Cl9 V0 2.529066 1_555
Cl9 Na1 2.836808 1_555
Cl9 Cs2 3.437725 1_555
Cl9 Cs1 3.520676 1_655
Cl9 Cs4 3.544001 1_555
Cl9 Cs3 3.612526 1_555
Cl10 V0 2.529066 1_555
Cl10 Na1 2.836808 1_555
Cl10 Cs1 3.437725 1_555
Cl10 Cs0 3.520676 1_556
Cl10 Cs3 3.544001 1_555
Cl10 Cs5 3.612526 1_555
Cl11 V0 2.529066 1_555
Cl11 Na1 2.836808 1_555
Cl11 Cs0 3.437725 1_555
Cl11 Cs2 3.520676 1_565
Cl11 Cs5 3.544001 1_555
Cl11 Cs4 3.612526 1_555
