# generated using pymatgen
data_KTiAg3S4
_symmetry_space_group_name_H-M   'P 1'
_cell_length_a   6.16300881
_cell_length_b   6.16300881
_cell_length_c   6.16300881
_cell_angle_alpha   90.00000000
_cell_angle_beta   90.00000000
_cell_angle_gamma   90.00000000
_symmetry_Int_Tables_number   1
_chemical_formula_structural   KTiAg3S4
_chemical_formula_sum   'K1 Ti1 Ag3 S4'
_cell_volume   234.08757643
_cell_formula_units_Z   1
loop_
 _symmetry_equiv_pos_site_id
 _symmetry_equiv_pos_as_xyz
  1  'x, y, z'
loop_
 _atom_site_type_symbol
 _atom_site_label
 _atom_site_symmetry_multiplicity
 _atom_site_fract_x
 _atom_site_fract_y
 _atom_site_fract_z
 _atom_site_occupancy
  K  K0  1  0.50000000  0.50000000  0.50000000  1
  Ti  Ti0  1  0.00000000  0.00000000  0.00000000  1
  Ag  Ag0  1  0.00000000  0.50000000  0.00000000  1
  Ag  Ag1  1  0.00000000  0.00000000  0.50000000  1
  Ag  Ag2  1  0.50000000  0.00000000  0.00000000  1
  S  S0  1  0.21492291  0.21492291  0.21492291  1
  S  S1  1  0.78507709  0.78507709  0.21492291  1
  S  S2  1  0.21492291  0.78507709  0.78507709  1
  S  S3  1  0.78507709  0.21492291  0.78507709  1
loop_
_geom_bond_atom_site_label_1
_geom_bond_atom_site_label_2
_geom_bond_distance
_geom_bond_site_symmetry_2
K0 S3 3.043097 1_555
K0 S2 3.043097 1_555
K0 S1 3.043097 1_555
K0 S0 3.043097 1_555
Ag0 S2 2.568228 1_554
Ag0 S1 2.568228 1_455
Ag0 S0 2.568228 1_555
Ag0 S3 2.568228 1_454
Ag1 S3 2.568228 1_455
Ag1 S2 2.568228 1_545
Ag1 S0 2.568228 1_555
Ag1 S1 2.568228 1_445
Ag2 S3 2.568228 1_554
Ag2 S1 2.568228 1_545
Ag2 S0 2.568228 1_555
Ag2 S2 2.568228 1_544
S0 Ti0 2.294226 1_555
S1 Ti0 2.294226 1_665
S2 Ti0 2.294226 1_566
S3 Ti0 2.294226 1_656
