# generated using pymatgen
data_Co2CuO4
_symmetry_space_group_name_H-M   'P 1'
_cell_length_a   5.87064282
_cell_length_b   5.86417684
_cell_length_c   5.86417600
_cell_angle_alpha   59.99999346
_cell_angle_beta   60.03642112
_cell_angle_gamma   60.03642259
_symmetry_Int_Tables_number   1
_chemical_formula_structural   Co2CuO4
_chemical_formula_sum   'Co4 Cu2 O8'
_cell_volume   142.83135638
_cell_formula_units_Z   2
loop_
 _symmetry_equiv_pos_site_id
 _symmetry_equiv_pos_as_xyz
  1  'x, y, z'
loop_
 _atom_site_type_symbol
 _atom_site_label
 _atom_site_symmetry_multiplicity
 _atom_site_fract_x
 _atom_site_fract_y
 _atom_site_fract_z
 _atom_site_occupancy
  Co  Co0  1  0.24898500  0.25033800  0.25033800  1
  Co  Co1  1  0.62577200  0.62545000  0.12332800  1
  Co  Co2  1  0.62577200  0.12332800  0.62545000  1
  Co  Co3  1  0.62577200  0.62545000  0.62545000  1
  Cu  Cu0  1  0.99984700  0.00005100  0.00005100  1
  Cu  Cu1  1  0.12608300  0.62463900  0.62463900  1
  O  O0  1  0.39265800  0.38169600  0.38169600  1
  O  O1  1  0.39265800  0.38169600  0.84395100  1
  O  O2  1  0.39265800  0.84395100  0.38169600  1
  O  O3  1  0.83684500  0.38771800  0.38771800  1
  O  O4  1  0.41349200  0.86216900  0.86216900  1
  O  O5  1  0.85648600  0.86832800  0.40685700  1
  O  O6  1  0.85648600  0.40685700  0.86832800  1
  O  O7  1  0.85648600  0.86832800  0.86832800  1
loop_
_geom_bond_atom_site_label_1
_geom_bond_atom_site_label_2
_geom_bond_distance
_geom_bond_site_symmetry_2
Co0 O1 1.946662 1_554
Co0 O2 1.946663 1_545
Co0 O0 1.946672 1_555
Co0 O3 1.976622 1_455
Co1 O7 1.968045 1_554
Co1 O6 1.968049 1_554
Co1 O4 1.969254 1_554
Co1 O3 1.978597 1_555
Co1 O0 1.982119 1_555
Co1 O2 1.982123 1_555
Co2 O7 1.968045 1_545
Co2 O5 1.968049 1_545
Co2 O4 1.969254 1_545
Co2 O3 1.978597 1_555
Co2 O0 1.982119 1_555
Co2 O1 1.982123 1_555
Co3 O6 1.968045 1_555
Co3 O5 1.968045 1_555
Co3 O4 1.969250 1_555
Co3 O3 1.978601 1_555
Co3 O2 1.982118 1_555
Co3 O1 1.982118 1_555
Cu0 O5 1.948618 1_545
Cu0 O6 1.948618 1_554
Cu0 O7 1.948623 1_544
Cu0 O4 1.983840 1_644
Cu1 O0 2.020869 1_555
Cu1 O1 2.020873 1_555
Cu1 O2 2.020873 1_555
Cu1 O7 2.028024 1_455
Cu1 O5 2.028028 1_455
Cu1 O6 2.028028 1_455
