# generated using pymatgen
data_Ta3Mn2CrN
_symmetry_space_group_name_H-M   'P 1'
_cell_length_a   8.06015340
_cell_length_b   8.06010350
_cell_length_c   8.06010402
_cell_angle_alpha   59.99708548
_cell_angle_beta   59.99688823
_cell_angle_gamma   59.99707222
_symmetry_Int_Tables_number   1
_chemical_formula_structural   Ta3Mn2CrN
_chemical_formula_sum   'Ta12 Mn8 Cr4 N4'
_cell_volume   370.23731221
_cell_formula_units_Z   4
loop_
 _symmetry_equiv_pos_site_id
 _symmetry_equiv_pos_as_xyz
  1  'x, y, z'
loop_
 _atom_site_type_symbol
 _atom_site_label
 _atom_site_symmetry_multiplicity
 _atom_site_fract_x
 _atom_site_fract_y
 _atom_site_fract_z
 _atom_site_occupancy
  Ta  Ta0  1  0.80695556  0.80692012  0.19306894  1
  Ta  Ta1  1  0.19310503  0.19307601  0.80689571  1
  Ta  Ta2  1  0.80691929  0.19307454  0.80687790  1
  Ta  Ta3  1  0.19305824  0.80690949  0.19309527  1
  Ta  Ta4  1  0.19306780  0.80692724  0.80692420  1
  Ta  Ta5  1  0.80692854  0.19304242  0.19311045  1
  Ta  Ta6  1  0.44304444  0.44307988  0.05693106  1
  Ta  Ta7  1  0.05689497  0.05692399  0.44310429  1
  Ta  Ta8  1  0.44308071  0.05692546  0.44312210  1
  Ta  Ta9  1  0.05694176  0.44309051  0.05690473  1
  Ta  Ta10  1  0.05693220  0.44307276  0.44307580  1
  Ta  Ta11  1  0.44307146  0.05695758  0.05688955  1
  Mn  Mn0  1  0.73434727  0.42182185  0.42191905  1
  Mn  Mn1  1  0.42186224  0.73433830  0.42188868  1
  Mn  Mn2  1  0.42191036  0.42183025  0.73434346  1
  Mn  Mn3  1  0.42187955  0.42183732  0.42189825  1
  Mn  Mn4  1  0.51565273  0.82817815  0.82808095  1
  Mn  Mn5  1  0.82813776  0.51566170  0.82811132  1
  Mn  Mn6  1  0.82808964  0.82816975  0.51565654  1
  Mn  Mn7  1  0.82812045  0.82816268  0.82810175  1
  Cr  Cr0  1  0.12500000  0.62500000  0.62500000  1
  Cr  Cr1  1  0.62500000  0.12500000  0.62500000  1
  Cr  Cr2  1  0.62500000  0.62500000  0.12500000  1
  Cr  Cr3  1  0.62500000  0.62500000  0.62500000  1
  N  N0  1  0.62500000  0.12500000  0.12500000  1
  N  N1  1  0.12500000  0.62500000  0.12500000  1
  N  N2  1  0.12500000  0.12500000  0.62500000  1
  N  N3  1  0.12500000  0.12500000  0.12500000  1
loop_
_geom_bond_atom_site_label_1
_geom_bond_atom_site_label_2
_geom_bond_distance
_geom_bond_site_symmetry_2
Mn0 Mn2 2.518113 1_555
Mn0 Mn3 2.518559 1_555
Mn0 Mn1 2.518685 1_555
Mn0 Ta7 2.780821 1_655
Mn0 Ta9 2.781503 1_655
Mn0 Ta10 2.781525 1_655
Mn0 Ta2 2.895554 1_555
Mn0 Ta5 2.896004 1_555
Mn0 Ta0 2.896634 1_555
Mn1 Mn2 2.518522 1_555
Mn1 Mn3 2.518682 1_555
Mn1 Ta7 2.781269 1_565
Mn1 Ta11 2.781522 1_565
Mn1 Ta8 2.781727 1_565
Mn1 Ta3 2.896120 1_555
Mn1 Ta4 2.896130 1_555
Mn1 Ta0 2.896520 1_555
Mn2 Mn3 2.518437 1_555
Mn2 Ta11 2.780695 1_556
Mn2 Ta9 2.781182 1_556
Mn2 Ta6 2.781423 1_556
Mn2 Ta2 2.895786 1_555
Mn2 Ta1 2.895921 1_555
Mn2 Ta4 2.896530 1_555
Mn3 Ta8 2.780769 1_555
Mn3 Ta10 2.781114 1_555
Mn3 Ta6 2.781274 1_555
Mn3 Ta1 2.895655 1_555
Mn3 Ta5 2.895997 1_555
Mn3 Ta3 2.896225 1_555
Mn4 Mn6 2.518113 1_555
Mn4 Mn7 2.518559 1_555
Mn4 Mn5 2.518685 1_555
Mn4 Ta1 2.780821 1_565
Mn4 Ta3 2.781503 1_556
Mn4 Ta4 2.781525 1_555
Mn4 Ta8 2.895554 1_565
Mn4 Ta11 2.896004 1_566
Mn4 Ta6 2.896634 1_556
Mn5 Mn6 2.518522 1_555
Mn5 Mn7 2.518682 1_555
Mn5 Ta1 2.781269 1_655
Mn5 Ta5 2.781522 1_556
Mn5 Ta2 2.781727 1_555
Mn5 Ta9 2.896120 1_656
Mn5 Ta10 2.896130 1_655
Mn5 Ta6 2.896520 1_556
Mn6 Mn7 2.518437 1_555
Mn6 Ta5 2.780695 1_565
Mn6 Ta3 2.781182 1_655
Mn6 Ta0 2.781423 1_555
Mn6 Ta8 2.895786 1_565
Mn6 Ta7 2.895921 1_665
Mn6 Ta10 2.896530 1_655
Mn7 Ta2 2.780769 1_565
Mn7 Ta4 2.781114 1_655
Mn7 Ta0 2.781274 1_556
Mn7 Ta7 2.895655 1_665
Mn7 Ta11 2.895997 1_566
Mn7 Ta9 2.896225 1_656
Cr0 Mn1 2.435257 1_555
Cr0 Mn5 2.435257 1_455
Cr0 Mn7 2.435524 1_455
Cr0 Mn3 2.435524 1_555
Cr0 Mn2 2.435607 1_555
Cr0 Mn6 2.435607 1_455
Cr0 Ta9 2.891255 1_556
Cr0 Ta3 2.891255 1_555
Cr0 Ta7 2.891331 1_565
Cr0 Ta1 2.891331 1_555
Cr0 Ta4 2.891501 1_555
Cr0 Ta10 2.891501 1_555
Cr1 Mn0 2.435019 1_555
Cr1 Mn4 2.435019 1_545
Cr1 Mn2 2.435056 1_555
Cr1 Mn6 2.435056 1_545
Cr1 Mn7 2.435252 1_545
Cr1 Mn3 2.435252 1_555
Cr1 Ta11 2.891168 1_556
Cr1 Ta5 2.891168 1_555
Cr1 Ta2 2.891171 1_555
Cr1 Ta8 2.891171 1_555
Cr1 Ta7 2.891181 1_655
Cr1 Ta1 2.891181 1_555
Cr2 Mn1 2.435421 1_555
Cr2 Mn5 2.435421 1_554
Cr2 Mn7 2.435650 1_554
Cr2 Mn3 2.435650 1_555
Cr2 Mn0 2.435671 1_555
Cr2 Mn4 2.435671 1_554
Cr2 Ta9 2.891482 1_655
Cr2 Ta3 2.891482 1_555
Cr2 Ta11 2.891556 1_565
Cr2 Ta5 2.891556 1_555
Cr2 Ta0 2.891680 1_555
Cr2 Ta6 2.891680 1_555
Cr3 Mn5 2.435640 1_555
Cr3 Mn1 2.435640 1_555
Cr3 Mn4 2.435669 1_555
Cr3 Mn0 2.435669 1_555
Cr3 Mn6 2.435691 1_555
Cr3 Mn2 2.435691 1_555
Cr3 Ta8 2.891286 1_565
Cr3 Ta2 2.891286 1_555
Cr3 Ta4 2.891399 1_555
Cr3 Ta10 2.891399 1_655
Cr3 Ta6 2.891411 1_556
Cr3 Ta0 2.891411 1_555
N0 Ta6 2.159266 1_555
N0 Ta0 2.159266 1_545
N0 Ta5 2.159364 1_555
N0 Ta11 2.159364 1_555
N0 Ta8 2.159443 1_555
N0 Ta2 2.159443 1_554
N1 Ta0 2.159006 1_455
N1 Ta6 2.159006 1_555
N1 Ta10 2.159189 1_555
N1 Ta4 2.159189 1_554
N1 Ta3 2.159217 1_555
N1 Ta9 2.159217 1_555
N2 Ta2 2.159141 1_455
N2 Ta8 2.159141 1_555
N2 Ta10 2.159169 1_555
N2 Ta4 2.159169 1_545
N2 Ta1 2.159274 1_555
N2 Ta7 2.159274 1_555
N3 Ta11 2.159202 1_555
N3 Ta5 2.159202 1_455
N3 Ta9 2.159331 1_555
N3 Ta3 2.159331 1_545
N3 Ta7 2.159385 1_555
N3 Ta1 2.159385 1_554
