# generated using pymatgen
data_BaTcNiAs2
_symmetry_space_group_name_H-M   'P 1'
_cell_length_a   7.17748757
_cell_length_b   7.17748757
_cell_length_c   7.17748841
_cell_angle_alpha   147.64252957
_cell_angle_beta   147.64252560
_cell_angle_gamma   46.41334610
_symmetry_Int_Tables_number   1
_chemical_formula_structural   BaTcNiAs2
_chemical_formula_sum   'Ba1 Tc1 Ni1 As2'
_cell_volume   105.53720094
_cell_formula_units_Z   1
loop_
 _symmetry_equiv_pos_site_id
 _symmetry_equiv_pos_as_xyz
  1  'x, y, z'
loop_
 _atom_site_type_symbol
 _atom_site_label
 _atom_site_symmetry_multiplicity
 _atom_site_fract_x
 _atom_site_fract_y
 _atom_site_fract_z
 _atom_site_occupancy
  Ba  Ba0  1  0.00000000  0.00000000  0.00000000  1
  Tc  Tc0  1  0.75000000  0.25000000  0.50000000  1
  Ni  Ni0  1  0.25000000  0.75000000  0.50000000  1
  As  As0  1  0.35115610  0.35115610  1.00000000  1
  As  As1  1  0.64884390  0.64884390  0.00000000  1
loop_
_geom_bond_atom_site_label_1
_geom_bond_atom_site_label_2
_geom_bond_distance
_geom_bond_site_symmetry_2
As0 Ni0 2.404320 1_545
As0 Tc0 2.404320 1_455
As0 Ni0 2.404320 1_556
As0 Tc0 2.404321 1_556
As0 Ba0 3.443193 1_566
As0 Ba0 3.443193 1_656
As0 Ba0 3.443193 1_667
As0 Ba0 3.443194 1_555
As1 Tc0 2.404320 1_565
As1 Ni0 2.404320 1_655
As1 Tc0 2.404320 1_554
As1 Ni0 2.404321 1_554
As1 Ba0 3.443193 1_655
As1 Ba0 3.443193 1_565
As1 Ba0 3.443193 1_554
As1 Ba0 3.443194 1_666
