# generated using pymatgen
data_Na5P2Au
_symmetry_space_group_name_H-M   'P 1'
_cell_length_a   4.97400244
_cell_length_b   4.97400230
_cell_length_c   17.33016690
_cell_angle_alpha   90.00000000
_cell_angle_beta   90.00000000
_cell_angle_gamma   120.00000738
_symmetry_Int_Tables_number   1
_chemical_formula_structural   Na5P2Au
_chemical_formula_sum   'Na10 P4 Au2'
_cell_volume   371.31741707
_cell_formula_units_Z   2
loop_
 _symmetry_equiv_pos_site_id
 _symmetry_equiv_pos_as_xyz
  1  'x, y, z'
loop_
 _atom_site_type_symbol
 _atom_site_label
 _atom_site_symmetry_multiplicity
 _atom_site_fract_x
 _atom_site_fract_y
 _atom_site_fract_z
 _atom_site_occupancy
  Na  Na0  1  0.33333300  0.66666700  0.55123631  1
  Na  Na1  1  0.66666700  0.33333300  0.05123631  1
  Na  Na2  1  0.66666700  0.33333300  0.44876369  1
  Na  Na3  1  0.33333300  0.66666700  0.94876369  1
  Na  Na4  1  0.00000000  0.00000000  0.13759600  1
  Na  Na5  1  0.00000000  0.00000000  0.63759600  1
  Na  Na6  1  0.00000000  0.00000000  0.86240400  1
  Na  Na7  1  0.00000000  0.00000000  0.36240400  1
  Na  Na8  1  0.33333300  0.66666700  0.75000000  1
  Na  Na9  1  0.66666700  0.33333300  0.25000000  1
  P  P0  1  0.33333300  0.66666700  0.11381584  1
  P  P1  1  0.66666700  0.33333300  0.61381584  1
  P  P2  1  0.33333300  0.66666700  0.38618416  1
  P  P3  1  0.66666700  0.33333300  0.88618416  1
  Au  Au0  1  0.66666700  0.33333300  0.75000000  1
  Au  Au1  1  0.33333300  0.66666700  0.25000000  1
loop_
_geom_bond_atom_site_label_1
_geom_bond_atom_site_label_2
_geom_bond_distance
_geom_bond_site_symmetry_2
Na0 P2 2.860381 1_555
Na0 P1 3.069699 1_565
Na0 P1 3.069699 1_455
Na0 P1 3.069707 1_555
Na1 P3 2.860381 1_554
Na1 P0 3.069699 1_545
Na1 P0 3.069699 1_655
Na1 P0 3.069707 1_555
Na2 P1 2.860381 1_555
Na2 P2 3.069699 1_545
Na2 P2 3.069699 1_655
Na2 P2 3.069707 1_555
Na3 P0 2.860381 1_556
Na3 P3 3.069699 1_565
Na3 P3 3.069699 1_455
Na3 P3 3.069707 1_555
Na4 P0 2.901159 1_545
Na4 P0 2.901163 1_555
Na4 P0 2.901163 1_445
Na5 P1 2.901159 1_455
Na5 P1 2.901163 1_445
Na5 P1 2.901163 1_555
Na6 P3 2.901159 1_455
Na6 P3 2.901163 1_445
Na6 P3 2.901163 1_555
Na7 P2 2.901159 1_545
Na7 P2 2.901163 1_555
Na7 P2 2.901163 1_445
Au0 P3 2.360094 1_555
Au0 P1 2.360094 1_555
Au0 Na8 2.871738 1_545
Au0 Na8 2.871739 1_655
Au0 Na8 2.871747 1_555
Au1 P2 2.360094 1_555
Au1 P0 2.360094 1_555
Au1 Na9 2.871738 1_565
Au1 Na9 2.871739 1_455
Au1 Na9 2.871747 1_555
