# generated using pymatgen
data_Y6ScCrO12
_symmetry_space_group_name_H-M   'P 1'
_cell_length_a   6.50969195
_cell_length_b   6.50969339
_cell_length_c   6.50969219
_cell_angle_alpha   93.16749155
_cell_angle_beta   93.16749250
_cell_angle_gamma   93.16749967
_symmetry_Int_Tables_number   1
_chemical_formula_structural   Y6ScCrO12
_chemical_formula_sum   'Y6 Sc1 Cr1 O12'
_cell_volume   274.54236725
_cell_formula_units_Z   1
loop_
 _symmetry_equiv_pos_site_id
 _symmetry_equiv_pos_as_xyz
  1  'x, y, z'
loop_
 _atom_site_type_symbol
 _atom_site_label
 _atom_site_symmetry_multiplicity
 _atom_site_fract_x
 _atom_site_fract_y
 _atom_site_fract_z
 _atom_site_occupancy
  Y  Y0  1  0.74087677  0.92380925  0.43333004  1
  Y  Y1  1  0.92380925  0.43333004  0.74087677  1
  Y  Y2  1  0.43333004  0.74087677  0.92380925  1
  Y  Y3  1  0.25912323  0.07619075  0.56666996  1
  Y  Y4  1  0.07619075  0.56666996  0.25912323  1
  Y  Y5  1  0.56666996  0.25912323  0.07619075  1
  Sc  Sc0  1  0.00000000  0.00000000  0.00000000  1
  Cr  Cr0  1  0.50000000  0.50000000  0.50000000  1
  O  O0  1  0.58543661  0.45823995  0.79679642  1
  O  O1  1  0.45823995  0.79679642  0.58543661  1
  O  O2  1  0.79679642  0.58543661  0.45823995  1
  O  O3  1  0.41456339  0.54176005  0.20320358  1
  O  O4  1  0.54176005  0.20320358  0.41456339  1
  O  O5  1  0.20320358  0.41456339  0.54176005  1
  O  O6  1  0.06794648  0.91682481  0.30839278  1
  O  O7  1  0.91682481  0.30839278  0.06794648  1
  O  O8  1  0.69160722  0.93205352  0.08317519  1
  O  O9  1  0.08317519  0.69160722  0.93205352  1
  O  O10  1  0.93205352  0.08317519  0.69160722  1
  O  O11  1  0.30839278  0.06794648  0.91682481  1
loop_
_geom_bond_atom_site_label_1
_geom_bond_atom_site_label_2
_geom_bond_distance
_geom_bond_site_symmetry_2
Cr0 O2 2.017933 1_555
Cr0 O5 2.017933 1_555
Cr0 O0 2.017933 1_555
Cr0 O3 2.017933 1_555
Cr0 O1 2.017933 1_555
Cr0 O4 2.017933 1_555
O0 Y1 2.265449 1_555
O0 Y2 2.274400 1_555
O0 Y5 2.295765 1_556
O1 Y2 2.265449 1_555
O1 Y0 2.274399 1_555
O1 Y3 2.295765 1_565
O2 Y0 2.265449 1_555
O2 Y1 2.274400 1_555
O2 Y4 2.295765 1_655
O3 Y4 2.265449 1_555
O3 Y5 2.274400 1_555
O3 Y2 2.295765 1_554
O4 Y5 2.265449 1_555
O4 Y3 2.274399 1_555
O4 Y0 2.295765 1_545
O5 Y3 2.265449 1_555
O5 Y4 2.274400 1_555
O5 Y1 2.295765 1_455
O6 Sc0 2.137168 1_565
O6 Y3 2.210239 1_565
O6 Y4 2.288241 1_555
O6 Y0 2.322642 1_455
O7 Sc0 2.137168 1_655
O7 Y4 2.210239 1_655
O7 Y5 2.288240 1_555
O7 Y1 2.322642 1_554
O8 Sc0 2.137168 1_665
O8 Y2 2.210239 1_554
O8 Y0 2.288240 1_555
O8 Y5 2.322643 1_565
O9 Sc0 2.137168 1_566
O9 Y1 2.210239 1_455
O9 Y2 2.288240 1_555
O9 Y4 2.322642 1_556
O10 Sc0 2.137168 1_656
O10 Y0 2.210239 1_545
O10 Y1 2.288241 1_555
O10 Y3 2.322642 1_655
O11 Sc0 2.137168 1_556
O11 Y5 2.210239 1_556
O11 Y3 2.288240 1_555
O11 Y2 2.322643 1_545
