# generated using pymatgen
data_Sr3Al2O6
_symmetry_space_group_name_H-M   'P 1'
_cell_length_a   15.99991462
_cell_length_b   15.99991462
_cell_length_c   15.99991462
_cell_angle_alpha   90.00000000
_cell_angle_beta   90.00000000
_cell_angle_gamma   90.00000000
_symmetry_Int_Tables_number   1
_chemical_formula_structural   Sr3Al2O6
_chemical_formula_sum   'Sr72 Al48 O144'
_cell_volume   4095.93442851
_cell_formula_units_Z   24
loop_
 _symmetry_equiv_pos_site_id
 _symmetry_equiv_pos_as_xyz
  1  'x, y, z'
loop_
 _atom_site_type_symbol
 _atom_site_label
 _atom_site_symmetry_multiplicity
 _atom_site_fract_x
 _atom_site_fract_y
 _atom_site_fract_z
 _atom_site_occupancy
  O  O0  1  0.26308370  0.12522085  0.00282982  1
  O  O1  1  0.00282982  0.26308370  0.12522085  1
  O  O2  1  0.12522085  0.00282982  0.26308370  1
  O  O3  1  0.37477915  0.99717018  0.76308370  1
  O  O4  1  0.50282982  0.23691630  0.87477915  1
  O  O5  1  0.87477915  0.50282982  0.23691630  1
  O  O6  1  0.49717018  0.73691630  0.62522085  1
  O  O7  1  0.99717018  0.76308370  0.37477915  1
  O  O8  1  0.62522085  0.49717018  0.73691630  1
  O  O9  1  0.76308370  0.37477915  0.99717018  1
  O  O10  1  0.73691630  0.62522085  0.49717018  1
  O  O11  1  0.23691630  0.87477915  0.50282982  1
  O  O12  1  0.73691630  0.87477915  0.99717018  1
  O  O13  1  0.99717018  0.73691630  0.87477915  1
  O  O14  1  0.87477915  0.99717018  0.73691630  1
  O  O15  1  0.62522085  0.00282982  0.23691630  1
  O  O16  1  0.49717018  0.76308370  0.12522085  1
  O  O17  1  0.12522085  0.49717018  0.76308370  1
  O  O18  1  0.50282982  0.26308370  0.37477915  1
  O  O19  1  0.00282982  0.23691630  0.62522085  1
  O  O20  1  0.37477915  0.50282982  0.26308370  1
  O  O21  1  0.23691630  0.62522085  0.00282982  1
  O  O22  1  0.26308370  0.37477915  0.50282982  1
  O  O23  1  0.76308370  0.12522085  0.49717018  1
  O  O24  1  0.49236305  0.12936601  0.24425445  1
  O  O25  1  0.24425445  0.49236305  0.12936601  1
  O  O26  1  0.12936601  0.24425445  0.49236305  1
  O  O27  1  0.37063399  0.75574555  0.99236305  1
  O  O28  1  0.74425445  0.00763695  0.87063399  1
  O  O29  1  0.87063399  0.74425445  0.00763695  1
  O  O30  1  0.25574555  0.50763695  0.62936601  1
  O  O31  1  0.75574555  0.99236305  0.37063399  1
  O  O32  1  0.62936601  0.25574555  0.50763695  1
  O  O33  1  0.99236305  0.37063399  0.75574555  1
  O  O34  1  0.50763695  0.62936601  0.25574555  1
  O  O35  1  0.00763695  0.87063399  0.74425445  1
  O  O36  1  0.50763695  0.87063399  0.75574555  1
  O  O37  1  0.75574555  0.50763695  0.87063399  1
  O  O38  1  0.87063399  0.75574555  0.50763695  1
  O  O39  1  0.62936601  0.24425445  0.00763695  1
  O  O40  1  0.25574555  0.99236305  0.12936601  1
  O  O41  1  0.12936601  0.25574555  0.99236305  1
  O  O42  1  0.74425445  0.49236305  0.37063399  1
  O  O43  1  0.24425445  0.00763695  0.62936601  1
  O  O44  1  0.37063399  0.74425445  0.49236305  1
  O  O45  1  0.00763695  0.62936601  0.24425445  1
  O  O46  1  0.49236305  0.37063399  0.74425445  1
  O  O47  1  0.99236305  0.12936601  0.25574555  1
  O  O48  1  0.26980406  0.27710803  0.10025450  1
  O  O49  1  0.10025450  0.26980406  0.27710803  1
  O  O50  1  0.27710803  0.10025450  0.26980406  1
  O  O51  1  0.22289197  0.89974550  0.76980406  1
  O  O52  1  0.60025450  0.23019594  0.72289197  1
  O  O53  1  0.72289197  0.60025450  0.23019594  1
  O  O54  1  0.39974550  0.73019594  0.77710803  1
  O  O55  1  0.89974550  0.76980406  0.22289197  1
  O  O56  1  0.77710803  0.39974550  0.73019594  1
  O  O57  1  0.76980406  0.22289197  0.89974550  1
  O  O58  1  0.73019594  0.77710803  0.39974550  1
  O  O59  1  0.23019594  0.72289197  0.60025450  1
  O  O60  1  0.73019594  0.72289197  0.89974550  1
  O  O61  1  0.89974550  0.73019594  0.72289197  1
  O  O62  1  0.72289197  0.89974550  0.73019594  1
  O  O63  1  0.77710803  0.10025450  0.23019594  1
  O  O64  1  0.39974550  0.76980406  0.27710803  1
  O  O65  1  0.27710803  0.39974550  0.76980406  1
  O  O66  1  0.60025450  0.26980406  0.22289197  1
  O  O67  1  0.10025450  0.23019594  0.77710803  1
  O  O68  1  0.22289197  0.60025450  0.26980406  1
  O  O69  1  0.23019594  0.77710803  0.10025450  1
  O  O70  1  0.26980406  0.22289197  0.60025450  1
  O  O71  1  0.76980406  0.27710803  0.39974550  1
  O  O72  1  0.23440971  0.40586727  0.27958581  1
  O  O73  1  0.27958581  0.23440971  0.40586727  1
  O  O74  1  0.40586727  0.27958581  0.23440971  1
  O  O75  1  0.09413273  0.72041419  0.73440971  1
  O  O76  1  0.77958581  0.26559029  0.59413273  1
  O  O77  1  0.59413273  0.77958581  0.26559029  1
  O  O78  1  0.22041419  0.76559029  0.90586727  1
  O  O79  1  0.72041419  0.73440971  0.09413273  1
  O  O80  1  0.90586727  0.22041419  0.76559029  1
  O  O81  1  0.73440971  0.09413273  0.72041419  1
  O  O82  1  0.76559029  0.90586727  0.22041419  1
  O  O83  1  0.26559029  0.59413273  0.77958581  1
  O  O84  1  0.76559029  0.59413273  0.72041419  1
  O  O85  1  0.72041419  0.76559029  0.59413273  1
  O  O86  1  0.59413273  0.72041419  0.76559029  1
  O  O87  1  0.90586727  0.27958581  0.26559029  1
  O  O88  1  0.22041419  0.73440971  0.40586727  1
  O  O89  1  0.40586727  0.22041419  0.73440971  1
  O  O90  1  0.77958581  0.23440971  0.09413273  1
  O  O91  1  0.27958581  0.26559029  0.90586727  1
  O  O92  1  0.09413273  0.77958581  0.23440971  1
  O  O93  1  0.26559029  0.90586727  0.27958581  1
  O  O94  1  0.23440971  0.09413273  0.77958581  1
  O  O95  1  0.73440971  0.40586727  0.22041419  1
  O  O96  1  0.34662024  0.97390418  0.98006348  1
  O  O97  1  0.98006348  0.34662024  0.97390418  1
  O  O98  1  0.97390418  0.98006348  0.34662024  1
  O  O99  1  0.52609582  0.01993652  0.84662024  1
  O  O100  1  0.48006348  0.15337976  0.02609582  1
  O  O101  1  0.02609582  0.48006348  0.15337976  1
  O  O102  1  0.51993652  0.65337976  0.47390418  1
  O  O103  1  0.01993652  0.84662024  0.52609582  1
  O  O104  1  0.47390418  0.51993652  0.65337976  1
  O  O105  1  0.84662024  0.52609582  0.01993652  1
  O  O106  1  0.65337976  0.47390418  0.51993652  1
  O  O107  1  0.15337976  0.02609582  0.48006348  1
  O  O108  1  0.65337976  0.02609582  0.01993652  1
  O  O109  1  0.01993652  0.65337976  0.02609582  1
  O  O110  1  0.02609582  0.01993652  0.65337976  1
  O  O111  1  0.47390418  0.98006348  0.15337976  1
  O  O112  1  0.51993652  0.84662024  0.97390418  1
  O  O113  1  0.97390418  0.51993652  0.84662024  1
  O  O114  1  0.48006348  0.34662024  0.52609582  1
  O  O115  1  0.98006348  0.15337976  0.47390418  1
  O  O116  1  0.52609582  0.48006348  0.34662024  1
  O  O117  1  0.15337976  0.47390418  0.98006348  1
  O  O118  1  0.34662024  0.52609582  0.48006348  1
  O  O119  1  0.84662024  0.97390418  0.51993652  1
  O  O120  1  0.15395483  0.98312829  0.98241583  1
  O  O121  1  0.98241583  0.15395483  0.98312829  1
  O  O122  1  0.98312829  0.98241583  0.15395483  1
  O  O123  1  0.51687171  0.01758417  0.65395483  1
  O  O124  1  0.48241583  0.34604517  0.01687171  1
  O  O125  1  0.01687171  0.48241583  0.34604517  1
  O  O126  1  0.51758417  0.84604517  0.48312829  1
  O  O127  1  0.01758417  0.65395483  0.51687171  1
  O  O128  1  0.48312829  0.51758417  0.84604517  1
  O  O129  1  0.65395483  0.51687171  0.01758417  1
  O  O130  1  0.84604517  0.48312829  0.51758417  1
  O  O131  1  0.34604517  0.01687171  0.48241583  1
  O  O132  1  0.84604517  0.01687171  0.01758417  1
  O  O133  1  0.01758417  0.84604517  0.01687171  1
  O  O134  1  0.01687171  0.01758417  0.84604517  1
  O  O135  1  0.48312829  0.98241583  0.34604517  1
  O  O136  1  0.51758417  0.65395483  0.98312829  1
  O  O137  1  0.98312829  0.51758417  0.65395483  1
  O  O138  1  0.48241583  0.15395483  0.51687171  1
  O  O139  1  0.98241583  0.34604517  0.48312829  1
  O  O140  1  0.51687171  0.48241583  0.15395483  1
  O  O141  1  0.34604517  0.48312829  0.98241583  1
  O  O142  1  0.15395483  0.51687171  0.48241583  1
  O  O143  1  0.65395483  0.98312829  0.51758417  1
  Al  Al0  1  0.25162436  0.01590410  0.02008892  1
  Al  Al1  1  0.02008892  0.25162436  0.01590410  1
  Al  Al2  1  0.01590410  0.02008892  0.25162436  1
  Al  Al3  1  0.48409590  0.97991108  0.75162436  1
  Al  Al4  1  0.52008892  0.24837564  0.98409590  1
  Al  Al5  1  0.98409590  0.52008892  0.24837564  1
  Al  Al6  1  0.47991108  0.74837564  0.51590410  1
  Al  Al7  1  0.97991108  0.75162436  0.48409590  1
  Al  Al8  1  0.51590410  0.47991108  0.74837564  1
  Al  Al9  1  0.75162436  0.48409590  0.97991108  1
  Al  Al10  1  0.74837564  0.51590410  0.47991108  1
  Al  Al11  1  0.24837564  0.98409590  0.52008892  1
  Al  Al12  1  0.74837564  0.98409590  0.97991108  1
  Al  Al13  1  0.97991108  0.74837564  0.98409590  1
  Al  Al14  1  0.98409590  0.97991108  0.74837564  1
  Al  Al15  1  0.51590410  0.02008892  0.24837564  1
  Al  Al16  1  0.47991108  0.75162436  0.01590410  1
  Al  Al17  1  0.01590410  0.47991108  0.75162436  1
  Al  Al18  1  0.52008892  0.25162436  0.48409590  1
  Al  Al19  1  0.02008892  0.24837564  0.51590410  1
  Al  Al20  1  0.48409590  0.52008892  0.25162436  1
  Al  Al21  1  0.24837564  0.51590410  0.02008892  1
  Al  Al22  1  0.25162436  0.48409590  0.52008892  1
  Al  Al23  1  0.75162436  0.01590410  0.47991108  1
  Al  Al24  1  0.23859991  0.23395493  0.00412636  1
  Al  Al25  1  0.00412636  0.23859991  0.23395493  1
  Al  Al26  1  0.23395493  0.00412636  0.23859991  1
  Al  Al27  1  0.26604507  0.99587364  0.73859991  1
  Al  Al28  1  0.50412636  0.26140009  0.76604507  1
  Al  Al29  1  0.76604507  0.50412636  0.26140009  1
  Al  Al30  1  0.49587364  0.76140009  0.73395493  1
  Al  Al31  1  0.99587364  0.73859991  0.26604507  1
  Al  Al32  1  0.73395493  0.49587364  0.76140009  1
  Al  Al33  1  0.73859991  0.26604507  0.99587364  1
  Al  Al34  1  0.76140009  0.73395493  0.49587364  1
  Al  Al35  1  0.26140009  0.76604507  0.50412636  1
  Al  Al36  1  0.76140009  0.76604507  0.99587364  1
  Al  Al37  1  0.99587364  0.76140009  0.76604507  1
  Al  Al38  1  0.76604507  0.99587364  0.76140009  1
  Al  Al39  1  0.73395493  0.00412636  0.26140009  1
  Al  Al40  1  0.49587364  0.73859991  0.23395493  1
  Al  Al41  1  0.23395493  0.49587364  0.73859991  1
  Al  Al42  1  0.50412636  0.23859991  0.26604507  1
  Al  Al43  1  0.00412636  0.26140009  0.73395493  1
  Al  Al44  1  0.26604507  0.50412636  0.23859991  1
  Al  Al45  1  0.26140009  0.73395493  0.00412636  1
  Al  Al46  1  0.23859991  0.26604507  0.50412636  1
  Al  Al47  1  0.73859991  0.23395493  0.49587364  1
  Sr  Sr0  1  0.00000000  0.00000000  0.00000000  1
  Sr  Sr1  1  0.50000000  0.00000000  0.50000000  1
  Sr  Sr2  1  0.50000000  0.50000000  0.00000000  1
  Sr  Sr3  1  0.00000000  0.50000000  0.50000000  1
  Sr  Sr4  1  0.50000000  0.00000000  0.00000000  1
  Sr  Sr5  1  0.00000000  0.50000000  0.00000000  1
  Sr  Sr6  1  0.00000000  0.00000000  0.50000000  1
  Sr  Sr7  1  0.50000000  0.50000000  0.50000000  1
  Sr  Sr8  1  0.25227153  0.25227153  0.25227153  1
  Sr  Sr9  1  0.24772847  0.74772847  0.75227153  1
  Sr  Sr10  1  0.75227153  0.24772847  0.74772847  1
  Sr  Sr11  1  0.74772847  0.75227153  0.24772847  1
  Sr  Sr12  1  0.74772847  0.74772847  0.74772847  1
  Sr  Sr13  1  0.75227153  0.25227153  0.24772847  1
  Sr  Sr14  1  0.24772847  0.75227153  0.25227153  1
  Sr  Sr15  1  0.25227153  0.24772847  0.75227153  1
  Sr  Sr16  1  0.37563243  0.37563243  0.37563243  1
  Sr  Sr17  1  0.12436757  0.62436757  0.87563243  1
  Sr  Sr18  1  0.87563243  0.12436757  0.62436757  1
  Sr  Sr19  1  0.62436757  0.87563243  0.12436757  1
  Sr  Sr20  1  0.62436757  0.62436757  0.62436757  1
  Sr  Sr21  1  0.87563243  0.37563243  0.12436757  1
  Sr  Sr22  1  0.12436757  0.87563243  0.37563243  1
  Sr  Sr23  1  0.37563243  0.12436757  0.87563243  1
  Sr  Sr24  1  0.13466962  0.37542833  0.13172051  1
  Sr  Sr25  1  0.13172051  0.13466962  0.37542833  1
  Sr  Sr26  1  0.37542833  0.13172051  0.13466962  1
  Sr  Sr27  1  0.12457167  0.86827949  0.63466962  1
  Sr  Sr28  1  0.63172051  0.36533038  0.62457167  1
  Sr  Sr29  1  0.62457167  0.63172051  0.36533038  1
  Sr  Sr30  1  0.36827949  0.86533038  0.87542833  1
  Sr  Sr31  1  0.86827949  0.63466962  0.12457167  1
  Sr  Sr32  1  0.87542833  0.36827949  0.86533038  1
  Sr  Sr33  1  0.63466962  0.12457167  0.86827949  1
  Sr  Sr34  1  0.86533038  0.87542833  0.36827949  1
  Sr  Sr35  1  0.36533038  0.62457167  0.63172051  1
  Sr  Sr36  1  0.86533038  0.62457167  0.86827949  1
  Sr  Sr37  1  0.86827949  0.86533038  0.62457167  1
  Sr  Sr38  1  0.62457167  0.86827949  0.86533038  1
  Sr  Sr39  1  0.87542833  0.13172051  0.36533038  1
  Sr  Sr40  1  0.36827949  0.63466962  0.37542833  1
  Sr  Sr41  1  0.37542833  0.36827949  0.63466962  1
  Sr  Sr42  1  0.63172051  0.13466962  0.12457167  1
  Sr  Sr43  1  0.13172051  0.36533038  0.87542833  1
  Sr  Sr44  1  0.12457167  0.63172051  0.13466962  1
  Sr  Sr45  1  0.36533038  0.87542833  0.13172051  1
  Sr  Sr46  1  0.13466962  0.12457167  0.63172051  1
  Sr  Sr47  1  0.63466962  0.37542833  0.36827949  1
  Sr  Sr48  1  0.38013872  0.38404598  0.12474275  1
  Sr  Sr49  1  0.12474275  0.38013872  0.38404598  1
  Sr  Sr50  1  0.38404598  0.12474275  0.38013872  1
  Sr  Sr51  1  0.11595402  0.87525725  0.88013872  1
  Sr  Sr52  1  0.62474275  0.11986128  0.61595402  1
  Sr  Sr53  1  0.61595402  0.62474275  0.11986128  1
  Sr  Sr54  1  0.37525725  0.61986128  0.88404598  1
  Sr  Sr55  1  0.87525725  0.88013872  0.11595402  1
  Sr  Sr56  1  0.88404598  0.37525725  0.61986128  1
  Sr  Sr57  1  0.88013872  0.11595402  0.87525725  1
  Sr  Sr58  1  0.61986128  0.88404598  0.37525725  1
  Sr  Sr59  1  0.11986128  0.61595402  0.62474275  1
  Sr  Sr60  1  0.61986128  0.61595402  0.87525725  1
  Sr  Sr61  1  0.87525725  0.61986128  0.61595402  1
  Sr  Sr62  1  0.61595402  0.87525725  0.61986128  1
  Sr  Sr63  1  0.88404598  0.12474275  0.11986128  1
  Sr  Sr64  1  0.37525725  0.88013872  0.38404598  1
  Sr  Sr65  1  0.38404598  0.37525725  0.88013872  1
  Sr  Sr66  1  0.62474275  0.38013872  0.11595402  1
  Sr  Sr67  1  0.12474275  0.11986128  0.88404598  1
  Sr  Sr68  1  0.11595402  0.62474275  0.38013872  1
  Sr  Sr69  1  0.11986128  0.88404598  0.12474275  1
  Sr  Sr70  1  0.38013872  0.11595402  0.62474275  1
  Sr  Sr71  1  0.88013872  0.38404598  0.37525725  1
loop_
_geom_bond_atom_site_label_1
_geom_bond_atom_site_label_2
_geom_bond_distance
_geom_bond_site_symmetry_2
O0 Sr23 2.717496 1_554
O0 Sr26 2.773358 1_555
O0 Sr67 2.918682 1_554
O1 Sr21 2.717496 1_455
O1 Sr24 2.773358 1_555
O1 Sr63 2.918682 1_455
O2 Sr22 2.717496 1_545
O2 Sr25 2.773358 1_555
O2 Sr69 2.918682 1_545
O3 Sr23 2.717496 1_565
O3 Sr30 2.773358 1_555
O3 Sr70 2.918682 1_565
O4 Sr23 2.717496 1_555
O4 Sr33 2.773358 1_555
O4 Sr65 2.918682 1_555
O5 Sr21 2.717496 1_555
O5 Sr31 2.773358 1_555
O5 Sr71 2.918682 1_555
O6 Sr20 2.717496 1_555
O6 Sr35 2.773358 1_555
O6 Sr62 2.918682 1_555
O7 Sr22 2.717496 1_655
O7 Sr34 2.773358 1_555
O7 Sr68 2.918682 1_655
O8 Sr20 2.717496 1_555
O8 Sr28 2.773358 1_555
O8 Sr60 2.918682 1_555
O9 Sr21 2.717496 1_556
O9 Sr32 2.773358 1_555
O9 Sr66 2.918682 1_556
O10 Sr20 2.717496 1_555
O10 Sr29 2.773358 1_555
O10 Sr61 2.918682 1_555
O11 Sr22 2.717496 1_555
O11 Sr27 2.773358 1_555
O11 Sr64 2.918682 1_555
O12 Sr19 2.717496 1_556
O12 Sr38 2.773358 1_555
O12 Sr55 2.918682 1_556
O13 Sr17 2.717496 1_655
O13 Sr36 2.773358 1_555
O13 Sr51 2.918682 1_655
O14 Sr18 2.717496 1_565
O14 Sr37 2.773358 1_555
O14 Sr57 2.918682 1_565
O15 Sr19 2.717496 1_545
O15 Sr42 2.773358 1_555
O15 Sr58 2.918682 1_545
O16 Sr19 2.717496 1_555
O16 Sr45 2.773358 1_555
O16 Sr53 2.918682 1_555
O17 Sr17 2.717496 1_555
O17 Sr43 2.773358 1_555
O17 Sr59 2.918682 1_555
O18 Sr16 2.717496 1_555
O18 Sr47 2.773358 1_555
O18 Sr50 2.918682 1_555
O19 Sr18 2.717496 1_455
O19 Sr46 2.773358 1_555
O19 Sr56 2.918682 1_455
O20 Sr16 2.717496 1_555
O20 Sr40 2.773358 1_555
O20 Sr48 2.918682 1_555
O21 Sr17 2.717496 1_554
O21 Sr44 2.773358 1_555
O21 Sr54 2.918682 1_554
O22 Sr16 2.717496 1_555
O22 Sr41 2.773358 1_555
O22 Sr49 2.918682 1_555
O23 Sr18 2.717496 1_555
O23 Sr39 2.773358 1_555
O23 Sr52 2.918682 1_555
O24 Sr26 2.564388 1_555
O24 Sr50 2.781340 1_555
O24 Sr42 2.940356 1_555
O25 Sr24 2.564388 1_555
O25 Sr48 2.781340 1_555
O25 Sr44 2.940356 1_555
O26 Sr25 2.564388 1_555
O26 Sr49 2.781340 1_555
O26 Sr46 2.940356 1_555
O27 Sr30 2.564388 1_555
O27 Sr54 2.781340 1_555
O27 Sr45 2.940356 1_556
O28 Sr33 2.564388 1_555
O28 Sr57 2.781340 1_555
O28 Sr38 2.940356 1_545
O29 Sr31 2.564388 1_555
O29 Sr55 2.781340 1_555
O29 Sr36 2.940356 1_554
O30 Sr35 2.564388 1_555
O30 Sr59 2.781340 1_555
O30 Sr41 2.940356 1_555
O31 Sr34 2.564388 1_555
O31 Sr58 2.781340 1_555
O31 Sr39 2.940356 1_565
O32 Sr28 2.564388 1_555
O32 Sr52 2.781340 1_555
O32 Sr47 2.940356 1_555
O33 Sr32 2.564388 1_555
O33 Sr56 2.781340 1_555
O33 Sr43 2.940356 1_655
O34 Sr29 2.564388 1_555
O34 Sr53 2.781340 1_555
O34 Sr40 2.940356 1_555
O35 Sr27 2.564388 1_555
O35 Sr51 2.781340 1_555
O35 Sr37 2.940356 1_455
O36 Sr38 2.564388 1_555
O36 Sr62 2.781340 1_555
O36 Sr30 2.940356 1_555
O37 Sr36 2.564388 1_555
O37 Sr60 2.781340 1_555
O37 Sr32 2.940356 1_555
O38 Sr37 2.564388 1_555
O38 Sr61 2.781340 1_555
O38 Sr34 2.940356 1_555
O39 Sr42 2.564388 1_555
O39 Sr66 2.781340 1_555
O39 Sr33 2.940356 1_554
O40 Sr45 2.564388 1_555
O40 Sr69 2.781340 1_555
O40 Sr26 2.940356 1_565
O41 Sr43 2.564388 1_555
O41 Sr67 2.781340 1_555
O41 Sr24 2.940356 1_556
O42 Sr47 2.564388 1_555
O42 Sr71 2.781340 1_555
O42 Sr29 2.940356 1_555
O43 Sr46 2.564388 1_555
O43 Sr70 2.781340 1_555
O43 Sr27 2.940356 1_545
O44 Sr40 2.564388 1_555
O44 Sr64 2.781340 1_555
O44 Sr35 2.940356 1_555
O45 Sr44 2.564388 1_555
O45 Sr68 2.781340 1_555
O45 Sr31 2.940356 1_455
O46 Sr41 2.564388 1_555
O46 Sr65 2.781340 1_555
O46 Sr28 2.940356 1_555
O47 Sr39 2.564388 1_555
O47 Sr63 2.781340 1_555
O47 Sr25 2.940356 1_655
O48 Sr8 2.480421 1_555
O48 Sr48 2.489472 1_555
O48 Sr24 2.720847 1_555
O48 Sr26 2.927522 1_555
O49 Sr8 2.480421 1_555
O49 Sr49 2.489472 1_555
O49 Sr25 2.720847 1_555
O49 Sr24 2.927522 1_555
O50 Sr8 2.480421 1_555
O50 Sr50 2.489472 1_555
O50 Sr26 2.720847 1_555
O50 Sr25 2.927522 1_555
O51 Sr9 2.480421 1_555
O51 Sr51 2.489472 1_555
O51 Sr27 2.720847 1_555
O51 Sr30 2.927522 1_555
O52 Sr10 2.480421 1_555
O52 Sr52 2.489472 1_555
O52 Sr28 2.720847 1_555
O52 Sr33 2.927522 1_555
O53 Sr11 2.480421 1_555
O53 Sr53 2.489472 1_555
O53 Sr29 2.720847 1_555
O53 Sr31 2.927522 1_555
O54 Sr9 2.480421 1_555
O54 Sr54 2.489472 1_555
O54 Sr30 2.720847 1_555
O54 Sr35 2.927522 1_555
O55 Sr11 2.480421 1_555
O55 Sr55 2.489472 1_555
O55 Sr31 2.720847 1_555
O55 Sr34 2.927522 1_555
O56 Sr10 2.480421 1_555
O56 Sr56 2.489472 1_555
O56 Sr32 2.720847 1_555
O56 Sr28 2.927522 1_555
O57 Sr10 2.480421 1_555
O57 Sr57 2.489472 1_555
O57 Sr33 2.720847 1_555
O57 Sr32 2.927522 1_555
O58 Sr11 2.480421 1_555
O58 Sr58 2.489472 1_555
O58 Sr34 2.720847 1_555
O58 Sr29 2.927522 1_555
O59 Sr9 2.480421 1_555
O59 Sr59 2.489472 1_555
O59 Sr35 2.720847 1_555
O59 Sr27 2.927522 1_555
O60 Sr12 2.480421 1_555
O60 Sr60 2.489472 1_555
O60 Sr36 2.720847 1_555
O60 Sr38 2.927522 1_555
O61 Sr12 2.480421 1_555
O61 Sr61 2.489472 1_555
O61 Sr37 2.720847 1_555
O61 Sr36 2.927522 1_555
O62 Sr12 2.480421 1_555
O62 Sr62 2.489472 1_555
O62 Sr38 2.720847 1_555
O62 Sr37 2.927522 1_555
O63 Sr13 2.480421 1_555
O63 Sr63 2.489472 1_555
O63 Sr39 2.720847 1_555
O63 Sr42 2.927522 1_555
O64 Sr14 2.480421 1_555
O64 Sr64 2.489472 1_555
O64 Sr40 2.720847 1_555
O64 Sr45 2.927522 1_555
O65 Sr15 2.480421 1_555
O65 Sr65 2.489472 1_555
O65 Sr41 2.720847 1_555
O65 Sr43 2.927522 1_555
O66 Sr13 2.480421 1_555
O66 Sr66 2.489472 1_555
O66 Sr42 2.720847 1_555
O66 Sr47 2.927522 1_555
O67 Sr15 2.480421 1_555
O67 Sr67 2.489472 1_555
O67 Sr43 2.720847 1_555
O67 Sr46 2.927522 1_555
O68 Sr14 2.480421 1_555
O68 Sr68 2.489472 1_555
O68 Sr44 2.720847 1_555
O68 Sr40 2.927522 1_555
O69 Sr14 2.480421 1_555
O69 Sr69 2.489472 1_555
O69 Sr45 2.720847 1_555
O69 Sr44 2.927522 1_555
O70 Sr15 2.480421 1_555
O70 Sr70 2.489472 1_555
O70 Sr46 2.720847 1_555
O70 Sr41 2.927522 1_555
O71 Sr13 2.480421 1_555
O71 Sr71 2.489472 1_555
O71 Sr47 2.720847 1_555
O71 Sr39 2.927522 1_555
O72 Sr49 2.457991 1_555
O72 Sr8 2.512382 1_555
O72 Sr16 2.775095 1_555
O72 Sr24 2.895001 1_555
O73 Sr50 2.457991 1_555
O73 Sr8 2.512382 1_555
O73 Sr16 2.775095 1_555
O73 Sr25 2.895001 1_555
O74 Sr48 2.457991 1_555
O74 Sr8 2.512382 1_555
O74 Sr16 2.775095 1_555
O74 Sr26 2.895001 1_555
O75 Sr59 2.457991 1_555
O75 Sr9 2.512382 1_555
O75 Sr17 2.775095 1_555
O75 Sr27 2.895001 1_555
O76 Sr56 2.457991 1_555
O76 Sr10 2.512382 1_555
O76 Sr18 2.775095 1_555
O76 Sr28 2.895001 1_555
O77 Sr58 2.457991 1_555
O77 Sr11 2.512382 1_555
O77 Sr19 2.775095 1_555
O77 Sr29 2.895001 1_555
O78 Sr51 2.457991 1_555
O78 Sr9 2.512382 1_555
O78 Sr17 2.775095 1_555
O78 Sr30 2.895001 1_555
O79 Sr53 2.457991 1_555
O79 Sr11 2.512382 1_555
O79 Sr19 2.775095 1_555
O79 Sr31 2.895001 1_555
O80 Sr57 2.457991 1_555
O80 Sr10 2.512382 1_555
O80 Sr18 2.775095 1_555
O80 Sr32 2.895001 1_555
O81 Sr52 2.457991 1_555
O81 Sr10 2.512382 1_555
O81 Sr18 2.775095 1_555
O81 Sr33 2.895001 1_555
O82 Sr55 2.457991 1_555
O82 Sr11 2.512382 1_555
O82 Sr19 2.775095 1_555
O82 Sr34 2.895001 1_555
O83 Sr54 2.457991 1_555
O83 Sr9 2.512382 1_555
O83 Sr17 2.775095 1_555
O83 Sr35 2.895001 1_555
O84 Sr61 2.457991 1_555
O84 Sr12 2.512382 1_555
O84 Sr20 2.775095 1_555
O84 Sr36 2.895001 1_555
O85 Sr62 2.457991 1_555
O85 Sr12 2.512382 1_555
O85 Sr20 2.775095 1_555
O85 Sr37 2.895001 1_555
O86 Sr60 2.457991 1_555
O86 Sr12 2.512382 1_555
O86 Sr20 2.775095 1_555
O86 Sr38 2.895001 1_555
O87 Sr71 2.457991 1_555
O87 Sr13 2.512382 1_555
O87 Sr21 2.775095 1_555
O87 Sr39 2.895001 1_555
O88 Sr68 2.457991 1_555
O88 Sr14 2.512382 1_555
O88 Sr22 2.775095 1_555
O88 Sr40 2.895001 1_555
O89 Sr70 2.457991 1_555
O89 Sr15 2.512382 1_555
O89 Sr23 2.775095 1_555
O89 Sr41 2.895001 1_555
O90 Sr63 2.457991 1_555
O90 Sr13 2.512382 1_555
O90 Sr21 2.775095 1_555
O90 Sr42 2.895001 1_555
O91 Sr65 2.457991 1_555
O91 Sr15 2.512382 1_555
O91 Sr23 2.775095 1_555
O91 Sr43 2.895001 1_555
O92 Sr69 2.457991 1_555
O92 Sr14 2.512382 1_555
O92 Sr22 2.775095 1_555
O92 Sr44 2.895001 1_555
O93 Sr64 2.457991 1_555
O93 Sr14 2.512382 1_555
O93 Sr22 2.775095 1_555
O93 Sr45 2.895001 1_555
O94 Sr67 2.457991 1_555
O94 Sr15 2.512382 1_555
O94 Sr23 2.775095 1_555
O94 Sr46 2.895001 1_555
O95 Sr66 2.457991 1_555
O95 Sr13 2.512382 1_555
O95 Sr21 2.775095 1_555
O95 Sr47 2.895001 1_555
O96 Sr30 2.437345 1_555
O96 Sr4 2.509683 1_566
O96 Sr45 2.908616 1_556
O96 Sr23 2.966972 1_565
O97 Sr32 2.437345 1_555
O97 Sr5 2.509683 1_656
O97 Sr43 2.908616 1_655
O97 Sr21 2.966972 1_556
O98 Sr34 2.437345 1_555
O98 Sr6 2.509683 1_665
O98 Sr39 2.908616 1_565
O98 Sr22 2.966972 1_655
O99 Sr33 2.437345 1_555
O99 Sr4 2.509683 1_556
O99 Sr38 2.908616 1_545
O99 Sr23 2.966972 1_555
O100 Sr26 2.437345 1_555
O100 Sr4 2.509683 1_555
O100 Sr42 2.908616 1_555
O100 Sr23 2.966972 1_554
O101 Sr24 2.437345 1_555
O101 Sr5 2.509683 1_555
O101 Sr44 2.908616 1_555
O101 Sr21 2.966972 1_455
O102 Sr29 2.437345 1_555
O102 Sr7 2.509683 1_555
O102 Sr40 2.908616 1_555
O102 Sr20 2.966972 1_555
O103 Sr27 2.437345 1_555
O103 Sr6 2.509683 1_565
O103 Sr37 2.908616 1_455
O103 Sr22 2.966972 1_555
O104 Sr35 2.437345 1_555
O104 Sr7 2.509683 1_555
O104 Sr41 2.908616 1_555
O104 Sr20 2.966972 1_555
O105 Sr31 2.437345 1_555
O105 Sr5 2.509683 1_655
O105 Sr36 2.908616 1_554
O105 Sr21 2.966972 1_555
O106 Sr28 2.437345 1_555
O106 Sr7 2.509683 1_555
O106 Sr47 2.908616 1_555
O106 Sr20 2.966972 1_555
O107 Sr25 2.437345 1_555
O107 Sr6 2.509683 1_555
O107 Sr46 2.908616 1_555
O107 Sr22 2.966972 1_545
O108 Sr42 2.437345 1_555
O108 Sr4 2.509683 1_555
O108 Sr33 2.908616 1_554
O108 Sr19 2.966972 1_545
O109 Sr44 2.437345 1_555
O109 Sr5 2.509683 1_555
O109 Sr31 2.908616 1_455
O109 Sr17 2.966972 1_554
O110 Sr46 2.437345 1_555
O110 Sr6 2.509683 1_555
O110 Sr27 2.908616 1_545
O110 Sr18 2.966972 1_455
O111 Sr45 2.437345 1_555
O111 Sr4 2.509683 1_565
O111 Sr26 2.908616 1_565
O111 Sr19 2.966972 1_555
O112 Sr38 2.437345 1_555
O112 Sr4 2.509683 1_566
O112 Sr30 2.908616 1_555
O112 Sr19 2.966972 1_556
O113 Sr36 2.437345 1_555
O113 Sr5 2.509683 1_656
O113 Sr32 2.908616 1_555
O113 Sr17 2.966972 1_655
O114 Sr41 2.437345 1_555
O114 Sr7 2.509683 1_555
O114 Sr28 2.908616 1_555
O114 Sr16 2.966972 1_555
O115 Sr39 2.437345 1_555
O115 Sr6 2.509683 1_655
O115 Sr25 2.908616 1_655
O115 Sr18 2.966972 1_555
O116 Sr47 2.437345 1_555
O116 Sr7 2.509683 1_555
O116 Sr29 2.908616 1_555
O116 Sr16 2.966972 1_555
O117 Sr43 2.437345 1_555
O117 Sr5 2.509683 1_556
O117 Sr24 2.908616 1_556
O117 Sr17 2.966972 1_555
O118 Sr40 2.437345 1_555
O118 Sr7 2.509683 1_555
O118 Sr35 2.908616 1_555
O118 Sr16 2.966972 1_555
O119 Sr37 2.437345 1_555
O119 Sr6 2.509683 1_665
O119 Sr34 2.908616 1_555
O119 Sr18 2.966972 1_565
O120 Sr51 2.454870 1_555
O120 Sr0 2.493932 1_566
O120 Sr67 2.735278 1_565
O120 Sr69 2.827807 1_556
O121 Sr57 2.454870 1_555
O121 Sr0 2.493932 1_656
O121 Sr63 2.735278 1_556
O121 Sr67 2.827807 1_655
O122 Sr55 2.454870 1_555
O122 Sr0 2.493932 1_665
O122 Sr69 2.735278 1_655
O122 Sr63 2.827807 1_565
O123 Sr52 2.454870 1_555
O123 Sr1 2.493932 1_555
O123 Sr70 2.735278 1_555
O123 Sr62 2.827807 1_545
O124 Sr48 2.454870 1_555
O124 Sr2 2.493932 1_555
O124 Sr65 2.735278 1_554
O124 Sr66 2.827807 1_555
O125 Sr49 2.454870 1_555
O125 Sr3 2.493932 1_555
O125 Sr71 2.735278 1_455
O125 Sr68 2.827807 1_555
O126 Sr58 2.454870 1_555
O126 Sr1 2.493932 1_565
O126 Sr62 2.735278 1_555
O126 Sr64 2.827807 1_555
O127 Sr59 2.454870 1_555
O127 Sr3 2.493932 1_555
O127 Sr68 2.735278 1_555
O127 Sr61 2.827807 1_455
O128 Sr54 2.454870 1_555
O128 Sr2 2.493932 1_556
O128 Sr60 2.735278 1_555
O128 Sr65 2.827807 1_555
O129 Sr53 2.454870 1_555
O129 Sr2 2.493932 1_555
O129 Sr66 2.735278 1_555
O129 Sr60 2.827807 1_554
O130 Sr56 2.454870 1_555
O130 Sr3 2.493932 1_655
O130 Sr61 2.735278 1_555
O130 Sr71 2.827807 1_555
O131 Sr50 2.454870 1_555
O131 Sr1 2.493932 1_555
O131 Sr64 2.735278 1_545
O131 Sr70 2.827807 1_555
O132 Sr63 2.454870 1_555
O132 Sr0 2.493932 1_655
O132 Sr55 2.735278 1_545
O132 Sr57 2.827807 1_554
O133 Sr69 2.454870 1_555
O133 Sr0 2.493932 1_565
O133 Sr51 2.735278 1_554
O133 Sr55 2.827807 1_455
O134 Sr67 2.454870 1_555
O134 Sr0 2.493932 1_556
O134 Sr57 2.735278 1_455
O134 Sr51 2.827807 1_545
O135 Sr64 2.454870 1_555
O135 Sr1 2.493932 1_565
O135 Sr58 2.735278 1_555
O135 Sr50 2.827807 1_565
O136 Sr60 2.454870 1_555
O136 Sr2 2.493932 1_556
O136 Sr53 2.735278 1_556
O136 Sr54 2.827807 1_555
O137 Sr61 2.454870 1_555
O137 Sr3 2.493932 1_655
O137 Sr59 2.735278 1_655
O137 Sr56 2.827807 1_555
O138 Sr70 2.454870 1_555
O138 Sr1 2.493932 1_555
O138 Sr50 2.735278 1_555
O138 Sr52 2.827807 1_555
O139 Sr71 2.454870 1_555
O139 Sr3 2.493932 1_655
O139 Sr56 2.735278 1_555
O139 Sr49 2.827807 1_655
O140 Sr66 2.454870 1_555
O140 Sr2 2.493932 1_555
O140 Sr48 2.735278 1_555
O140 Sr53 2.827807 1_555
O141 Sr65 2.454870 1_555
O141 Sr2 2.493932 1_556
O141 Sr54 2.735278 1_555
O141 Sr48 2.827807 1_556
O142 Sr68 2.454870 1_555
O142 Sr3 2.493932 1_555
O142 Sr49 2.735278 1_555
O142 Sr59 2.827807 1_555
O143 Sr62 2.454870 1_555
O143 Sr1 2.493932 1_565
O143 Sr52 2.735278 1_565
O143 Sr58 2.827807 1_555
Al0 O120 1.755100 1_544
Al0 O0 1.780191 1_555
Al0 O96 1.780974 1_544
Al0 O40 1.789750 1_545
Al1 O121 1.755100 1_454
Al1 O1 1.780191 1_555
Al1 O97 1.780974 1_454
Al1 O41 1.789750 1_554
Al2 O122 1.755100 1_445
Al2 O2 1.780191 1_555
Al2 O98 1.780974 1_445
Al2 O47 1.789750 1_455
Al3 O123 1.755100 1_565
Al3 O3 1.780191 1_555
Al3 O99 1.780974 1_565
Al3 O36 1.789750 1_555
Al4 O124 1.755100 1_556
Al4 O4 1.780191 1_555
Al4 O100 1.780974 1_556
Al4 O39 1.789750 1_556
Al5 O125 1.755100 1_655
Al5 O5 1.780191 1_555
Al5 O101 1.780974 1_655
Al5 O45 1.789750 1_655
Al6 O126 1.755100 1_555
Al6 O6 1.780191 1_555
Al6 O102 1.780974 1_555
Al6 O44 1.789750 1_555
Al7 O127 1.755100 1_655
Al7 O7 1.780191 1_555
Al7 O103 1.780974 1_655
Al7 O38 1.789750 1_555
Al8 O128 1.755100 1_555
Al8 O8 1.780191 1_555
Al8 O104 1.780974 1_555
Al8 O46 1.789750 1_555
Al9 O129 1.755100 1_556
Al9 O9 1.780191 1_555
Al9 O105 1.780974 1_556
Al9 O37 1.789750 1_555
Al10 O130 1.755100 1_555
Al10 O10 1.780191 1_555
Al10 O106 1.780974 1_555
Al10 O42 1.789750 1_555
Al11 O131 1.755100 1_565
Al11 O11 1.780191 1_555
Al11 O107 1.780974 1_565
Al11 O43 1.789750 1_565
Al12 O132 1.755100 1_566
Al12 O12 1.780191 1_555
Al12 O108 1.780974 1_566
Al12 O28 1.789750 1_565
Al13 O133 1.755100 1_656
Al13 O13 1.780191 1_555
Al13 O109 1.780974 1_656
Al13 O29 1.789750 1_556
Al14 O134 1.755100 1_665
Al14 O14 1.780191 1_555
Al14 O110 1.780974 1_665
Al14 O35 1.789750 1_655
Al15 O135 1.755100 1_545
Al15 O15 1.780191 1_555
Al15 O111 1.780974 1_545
Al15 O24 1.789750 1_555
Al16 O136 1.755100 1_554
Al16 O16 1.780191 1_555
Al16 O112 1.780974 1_554
Al16 O27 1.789750 1_554
Al17 O137 1.755100 1_455
Al17 O17 1.780191 1_555
Al17 O113 1.780974 1_455
Al17 O33 1.789750 1_455
Al18 O138 1.755100 1_555
Al18 O18 1.780191 1_555
Al18 O114 1.780974 1_555
Al18 O32 1.789750 1_555
Al19 O139 1.755100 1_455
Al19 O19 1.780191 1_555
Al19 O115 1.780974 1_455
Al19 O26 1.789750 1_555
Al20 O140 1.755100 1_555
Al20 O20 1.780191 1_555
Al20 O116 1.780974 1_555
Al20 O34 1.789750 1_555
Al21 O141 1.755100 1_554
Al21 O21 1.780191 1_555
Al21 O117 1.780974 1_554
Al21 O25 1.789750 1_555
Al22 O142 1.755100 1_555
Al22 O22 1.780191 1_555
Al22 O118 1.780974 1_555
Al22 O30 1.789750 1_555
Al23 O143 1.755100 1_545
Al23 O23 1.780191 1_555
Al23 O119 1.780974 1_545
Al23 O31 1.789750 1_545
Al24 O48 1.758281 1_555
Al24 O91 1.777034 1_554
Al24 O0 1.783415 1_555
Al24 O41 1.792080 1_554
Al25 O49 1.758281 1_555
Al25 O87 1.777034 1_455
Al25 O1 1.783415 1_555
Al25 O47 1.792080 1_455
Al26 O50 1.758281 1_555
Al26 O93 1.777034 1_545
Al26 O2 1.783415 1_555
Al26 O40 1.792080 1_545
Al27 O51 1.758281 1_555
Al27 O94 1.777034 1_565
Al27 O3 1.783415 1_555
Al27 O43 1.792080 1_565
Al28 O52 1.758281 1_555
Al28 O89 1.777034 1_555
Al28 O4 1.783415 1_555
Al28 O46 1.792080 1_555
Al29 O53 1.758281 1_555
Al29 O95 1.777034 1_555
Al29 O5 1.783415 1_555
Al29 O42 1.792080 1_555
Al30 O54 1.758281 1_555
Al30 O86 1.777034 1_555
Al30 O6 1.783415 1_555
Al30 O36 1.792080 1_555
Al31 O55 1.758281 1_555
Al31 O92 1.777034 1_655
Al31 O7 1.783415 1_555
Al31 O45 1.792080 1_655
Al32 O56 1.758281 1_555
Al32 O84 1.777034 1_555
Al32 O8 1.783415 1_555
Al32 O37 1.792080 1_555
Al33 O57 1.758281 1_555
Al33 O90 1.777034 1_556
Al33 O9 1.783415 1_555
Al33 O39 1.792080 1_556
Al34 O58 1.758281 1_555
Al34 O85 1.777034 1_555
Al34 O10 1.783415 1_555
Al34 O38 1.792080 1_555
Al35 O59 1.758281 1_555
Al35 O88 1.777034 1_555
Al35 O11 1.783415 1_555
Al35 O44 1.792080 1_555
Al36 O60 1.758281 1_555
Al36 O79 1.777034 1_556
Al36 O12 1.783415 1_555
Al36 O29 1.792080 1_556
Al37 O61 1.758281 1_555
Al37 O75 1.777034 1_655
Al37 O13 1.783415 1_555
Al37 O35 1.792080 1_655
Al38 O62 1.758281 1_555
Al38 O81 1.777034 1_565
Al38 O14 1.783415 1_555
Al38 O28 1.792080 1_565
Al39 O63 1.758281 1_555
Al39 O82 1.777034 1_545
Al39 O15 1.783415 1_555
Al39 O31 1.792080 1_545
Al40 O64 1.758281 1_555
Al40 O77 1.777034 1_555
Al40 O16 1.783415 1_555
Al40 O34 1.792080 1_555
Al41 O65 1.758281 1_555
Al41 O83 1.777034 1_555
Al41 O17 1.783415 1_555
Al41 O30 1.792080 1_555
Al42 O66 1.758281 1_555
Al42 O74 1.777034 1_555
Al42 O18 1.783415 1_555
Al42 O24 1.792080 1_555
Al43 O67 1.758281 1_555
Al43 O80 1.777034 1_455
Al43 O19 1.783415 1_555
Al43 O33 1.792080 1_455
Al44 O68 1.758281 1_555
Al44 O72 1.777034 1_555
Al44 O20 1.783415 1_555
Al44 O25 1.792080 1_555
Al45 O69 1.758281 1_555
Al45 O78 1.777034 1_554
Al45 O21 1.783415 1_555
Al45 O27 1.792080 1_554
Al46 O70 1.758281 1_555
Al46 O73 1.777034 1_555
Al46 O22 1.783415 1_555
Al46 O26 1.792080 1_555
Al47 O71 1.758281 1_555
Al47 O76 1.777034 1_555
Al47 O23 1.783415 1_555
Al47 O32 1.792080 1_555
