# generated using pymatgen
data_Ca5Si2Bi
_symmetry_space_group_name_H-M   'P 1'
_cell_length_a   9.29315326
_cell_length_b   9.29315201
_cell_length_c   9.29315287
_cell_angle_alpha   130.22145574
_cell_angle_beta   130.22146058
_cell_angle_gamma   73.05297980
_symmetry_Int_Tables_number   1
_chemical_formula_structural   Ca5Si2Bi
_chemical_formula_sum   'Ca10 Si4 Bi2'
_cell_volume   456.94810305
_cell_formula_units_Z   2
loop_
 _symmetry_equiv_pos_site_id
 _symmetry_equiv_pos_as_xyz
  1  'x, y, z'
loop_
 _atom_site_type_symbol
 _atom_site_label
 _atom_site_symmetry_multiplicity
 _atom_site_fract_x
 _atom_site_fract_y
 _atom_site_fract_z
 _atom_site_occupancy
  Ca  Ca0  1  0.80805470  0.30805470  0.83994027  1
  Ca  Ca1  1  0.19194530  0.69194530  0.16005973  1
  Ca  Ca2  1  0.46811443  0.96811443  0.16005973  1
  Ca  Ca3  1  0.30805470  0.46811443  0.50000000  1
  Ca  Ca4  1  0.03188557  0.19194530  0.50000000  1
  Ca  Ca5  1  0.53188557  0.03188557  0.83994027  1
  Ca  Ca6  1  0.69194530  0.53188557  0.50000000  1
  Ca  Ca7  1  0.96811443  0.80805470  0.50000000  1
  Ca  Ca8  1  0.00000000  0.00000000  0.00000000  1
  Ca  Ca9  1  0.50000000  0.50000000  0.00000000  1
  Si  Si0  1  0.11380948  0.61380948  0.72761996  1
  Si  Si1  1  0.88619052  0.38619052  0.27238004  1
  Si  Si2  1  0.61380948  0.88619052  0.50000000  1
  Si  Si3  1  0.38619052  0.11380948  0.50000000  1
  Bi  Bi0  1  0.25000000  0.25000000  0.00000000  1
  Bi  Bi1  1  0.75000000  0.75000000  0.00000000  1
loop_
_geom_bond_atom_site_label_1
_geom_bond_atom_site_label_2
_geom_bond_distance
_geom_bond_site_symmetry_2
Ca0 Si2 3.061699 1_545
Ca0 Si3 3.061699 1_555
Ca0 Si1 3.158271 1_556
Ca1 Si3 3.061699 1_565
Ca1 Si2 3.061699 1_555
Ca1 Si0 3.158271 1_554
Ca2 Si2 3.061699 1_555
Ca2 Si3 3.061700 1_565
Ca2 Si0 3.158281 1_554
Ca3 Si1 3.061697 1_455
Ca3 Si0 3.061707 1_555
Ca3 Si3 3.158280 1_555
Ca4 Si0 3.061696 1_555
Ca4 Si1 3.061706 1_455
Ca4 Si3 3.158280 1_555
Ca5 Si3 3.061699 1_555
Ca5 Si2 3.061700 1_545
Ca5 Si1 3.158281 1_556
Ca6 Si0 3.061697 1_655
Ca6 Si1 3.061707 1_555
Ca6 Si2 3.158280 1_555
Ca7 Si1 3.061696 1_555
Ca7 Si0 3.061706 1_655
Ca7 Si2 3.158280 1_555
Ca8 Si1 3.149360 1_455
Ca8 Si0 3.149360 1_544
Ca8 Si3 3.149362 1_555
Ca8 Si2 3.149362 1_444
Ca9 Si0 3.149360 1_554
Ca9 Si1 3.149360 1_555
Ca9 Si2 3.149362 1_555
Ca9 Si3 3.149362 1_554
Si0 Si1 2.518037 1_455
Si2 Si3 2.518027 1_565
Bi0 Ca7 3.350587 1_444
Bi0 Ca6 3.350587 1_555
Bi0 Ca1 3.350587 1_555
Bi0 Ca2 3.350587 1_545
Bi0 Ca4 3.350587 1_554
Bi0 Ca3 3.350587 1_555
Bi0 Ca0 3.350588 1_454
Bi0 Ca5 3.350588 1_554
Bi0 Ca8 3.733904 1_555
Bi0 Ca9 3.733904 1_555
Bi1 Ca4 3.350587 1_665
Bi1 Ca3 3.350587 1_554
Bi1 Ca0 3.350587 1_554
Bi1 Ca5 3.350587 1_564
Bi1 Ca7 3.350587 1_555
Bi1 Ca6 3.350587 1_554
Bi1 Ca1 3.350588 1_655
Bi1 Ca2 3.350588 1_555
Bi1 Ca8 3.733904 1_665
Bi1 Ca9 3.733904 1_555
