# generated using pymatgen
data_CsBi(SO4)2
_symmetry_space_group_name_H-M   'P 1'
_cell_length_a   5.15041432
_cell_length_b   5.15041484
_cell_length_c   9.00253145
_cell_angle_alpha   90.00000000
_cell_angle_beta   90.00000000
_cell_angle_gamma   120.00000278
_symmetry_Int_Tables_number   1
_chemical_formula_structural   CsBi(SO4)2
_chemical_formula_sum   'Cs1 Bi1 S2 O8'
_cell_volume   206.81386200
_cell_formula_units_Z   1
loop_
 _symmetry_equiv_pos_site_id
 _symmetry_equiv_pos_as_xyz
  1  'x, y, z'
loop_
 _atom_site_type_symbol
 _atom_site_label
 _atom_site_symmetry_multiplicity
 _atom_site_fract_x
 _atom_site_fract_y
 _atom_site_fract_z
 _atom_site_occupancy
  Cs  Cs0  1  0.00000000  0.00000000  0.50000100  1
  Bi  Bi0  1  0.00000000  0.00000000  0.00000000  1
  S  S0  1  0.33333300  0.66666600  0.21760096  1
  S  S1  1  0.66666600  0.33333300  0.78239904  1
  O  O0  1  0.06954748  0.38865668  0.16004006  1
  O  O1  1  0.61134532  0.68089280  0.16004006  1
  O  O2  1  0.31910820  0.93045252  0.16004006  1
  O  O3  1  0.33333300  0.66666600  0.37816595  1
  O  O4  1  0.66666600  0.33333300  0.62183405  1
  O  O5  1  0.68089180  0.06954848  0.83995994  1
  O  O6  1  0.38865668  0.31910820  0.83995994  1
  O  O7  1  0.93045152  0.61134432  0.83995994  1
loop_
_geom_bond_atom_site_label_1
_geom_bond_atom_site_label_2
_geom_bond_distance
_geom_bond_site_symmetry_2
Cs0 O4 3.169420 1_555
Cs0 O4 3.169424 1_455
Cs0 O4 3.169424 1_445
Cs0 O3 3.169426 1_555
Cs0 O3 3.169430 1_445
Cs0 O3 3.169430 1_545
Cs0 O7 3.575590 1_445
Cs0 O6 3.575592 1_555
Cs0 O5 3.575592 1_455
Cs0 O1 3.575603 1_445
Cs0 O2 3.575606 1_545
Cs0 O0 3.575609 1_555
Bi0 O1 2.343934 1_445
Bi0 O7 2.343937 1_444
Bi0 O2 2.343938 1_545
Bi0 O6 2.343941 1_554
Bi0 O5 2.343941 1_454
Bi0 O0 2.343942 1_555
O0 S0 1.489707 1_555
O1 S0 1.489715 1_555
O2 S0 1.489715 1_555
O3 S0 1.445491 1_555
O4 S1 1.445491 1_555
O5 S1 1.489708 1_555
O6 S1 1.489705 1_555
O7 S1 1.489712 1_555
