# generated using pymatgen
data_EuIBr
_symmetry_space_group_name_H-M   'P 1'
_cell_length_a   4.79349331
_cell_length_b   8.42823777
_cell_length_c   9.77024448
_cell_angle_alpha   90.00000000
_cell_angle_beta   90.00000000
_cell_angle_gamma   90.00000000
_symmetry_Int_Tables_number   1
_chemical_formula_structural   EuIBr
_chemical_formula_sum   'Eu4 I4 Br4'
_cell_volume   394.72472951
_cell_formula_units_Z   4
loop_
 _symmetry_equiv_pos_site_id
 _symmetry_equiv_pos_as_xyz
  1  'x, y, z'
loop_
 _atom_site_type_symbol
 _atom_site_label
 _atom_site_symmetry_multiplicity
 _atom_site_fract_x
 _atom_site_fract_y
 _atom_site_fract_z
 _atom_site_occupancy
  Eu  Eu0  1  0.75000000  0.22625156  0.87180097  1
  Eu  Eu1  1  0.25000000  0.77374844  0.12819903  1
  Eu  Eu2  1  0.75000000  0.72625156  0.62819903  1
  Eu  Eu3  1  0.25000000  0.27374844  0.37180097  1
  I  I0  1  0.75000000  0.97345767  0.33301262  1
  I  I1  1  0.25000000  0.02654233  0.66698738  1
  I  I2  1  0.75000000  0.47345767  0.16698738  1
  I  I3  1  0.25000000  0.52654233  0.83301262  1
  Br  Br0  1  0.25000000  0.14478684  0.06479360  1
  Br  Br1  1  0.75000000  0.85521316  0.93520640  1
  Br  Br2  1  0.25000000  0.64478684  0.43520640  1
  Br  Br3  1  0.75000000  0.35521316  0.56479360  1
loop_
_geom_bond_atom_site_label_1
_geom_bond_atom_site_label_2
_geom_bond_distance
_geom_bond_site_symmetry_2
Eu0 I3 3.506220 1_655
Eu0 I3 3.506220 1_555
Eu0 I1 3.547092 1_555
Eu0 I1 3.547092 1_655
Eu0 I2 3.557911 1_556
Eu1 I2 3.506220 1_555
Eu1 I2 3.506220 1_455
Eu1 I0 3.547092 1_455
Eu1 I0 3.547092 1_555
Eu1 I3 3.557911 1_554
Eu2 I1 3.506220 1_665
Eu2 I1 3.506220 1_565
Eu2 I3 3.547092 1_555
Eu2 I3 3.547092 1_655
Eu2 I0 3.557911 1_555
Eu3 I0 3.506220 1_545
Eu3 I0 3.506220 1_445
Eu3 I2 3.547092 1_555
Eu3 I2 3.547092 1_455
Eu3 I1 3.557911 1_555
Br0 Eu0 3.125900 1_454
Br0 Eu0 3.125900 1_554
Br0 Eu1 3.187968 1_545
Br0 Eu3 3.190394 1_555
Br1 Eu1 3.125900 1_656
Br1 Eu1 3.125900 1_556
Br1 Eu0 3.187968 1_565
Br1 Eu2 3.190394 1_555
Br2 Eu2 3.125900 1_555
Br2 Eu2 3.125900 1_455
Br2 Eu3 3.187968 1_555
Br2 Eu1 3.190394 1_555
Br3 Eu3 3.125900 1_555
Br3 Eu3 3.125900 1_655
Br3 Eu2 3.187968 1_555
Br3 Eu0 3.190394 1_555
