# generated using pymatgen
data_K3Li2SiP3
_symmetry_space_group_name_H-M   'P 1'
_cell_length_a   9.64454006
_cell_length_b   9.64453945
_cell_length_c   14.57808471
_cell_angle_alpha   90.00000000
_cell_angle_beta   90.00000000
_cell_angle_gamma   143.03630787
_symmetry_Int_Tables_number   1
_chemical_formula_structural   K3Li2SiP3
_chemical_formula_sum   'K12 Li8 Si4 P12'
_cell_volume   815.38187715
_cell_formula_units_Z   4
loop_
 _symmetry_equiv_pos_site_id
 _symmetry_equiv_pos_as_xyz
  1  'x, y, z'
loop_
 _atom_site_type_symbol
 _atom_site_label
 _atom_site_symmetry_multiplicity
 _atom_site_fract_x
 _atom_site_fract_y
 _atom_site_fract_z
 _atom_site_occupancy
  K  K0  1  0.10775377  0.44491981  0.66961271  1
  K  K1  1  0.72099761  0.72099761  0.67702085  1
  K  K2  1  0.22099761  0.22099761  0.82297915  1
  K  K3  1  0.77900239  0.77900239  0.17702085  1
  K  K4  1  0.94491981  0.60775377  0.83038729  1
  K  K5  1  0.55508019  0.89224623  0.33038729  1
  K  K6  1  0.39224623  0.05508019  0.16961271  1
  K  K7  1  0.05508019  0.39224623  0.16961271  1
  K  K8  1  0.89224623  0.55508019  0.33038729  1
  K  K9  1  0.44491981  0.10775377  0.66961271  1
  K  K10  1  0.60775377  0.94492081  0.83038729  1
  K  K11  1  0.27900239  0.27900239  0.32297915  1
  Li  Li0  1  0.91923070  0.08076930  0.00000000  1
  Li  Li1  1  0.58076930  0.41923070  0.50000000  1
  Li  Li2  1  0.08076930  0.91923070  0.00000000  1
  Li  Li3  1  0.41923070  0.58076930  0.50000000  1
  Li  Li4  1  0.75288290  0.24711710  0.00000000  1
  Li  Li5  1  0.74711710  0.25288290  0.50000000  1
  Li  Li6  1  0.24711710  0.75288290  0.00000000  1
  Li  Li7  1  0.25288290  0.74711710  0.50000000  1
  Si  Si0  1  0.08744996  0.91255004  0.50000000  1
  Si  Si1  1  0.41255004  0.58744996  0.00000000  1
  Si  Si2  1  0.91255004  0.08744996  0.50000000  1
  Si  Si3  1  0.58744996  0.41255004  0.00000000  1
  P  P0  1  0.87716870  0.56177136  0.08871577  1
  P  P1  1  0.43822864  0.12283130  0.91128423  1
  P  P2  1  0.62283130  0.93822864  0.58871577  1
  P  P3  1  0.93822864  0.62283130  0.58871577  1
  P  P4  1  0.12283130  0.43822864  0.91128423  1
  P  P5  1  0.56177136  0.87716870  0.08871577  1
  P  P6  1  0.37716870  0.06177136  0.41128423  1
  P  P7  1  0.20179530  0.20179530  0.58126081  1
  P  P8  1  0.70179530  0.70179530  0.91873919  1
  P  P9  1  0.29820470  0.29820470  0.08126081  1
  P  P10  1  0.06177136  0.37716870  0.41128423  1
  P  P11  1  0.79820470  0.79820470  0.41873919  1
loop_
_geom_bond_atom_site_label_1
_geom_bond_atom_site_label_2
_geom_bond_distance
_geom_bond_site_symmetry_2
K0 Li7 3.169935 1_555
K0 Li3 3.250402 1_555
K0 P2 3.259106 1_445
K0 P2 3.306862 1_555
K0 Si2 3.342469 1_455
K0 Li5 3.368596 1_455
K0 P7 3.373181 1_555
K0 P3 3.389899 1_455
K0 P4 3.528824 1_555
K1 P2 3.180061 1_555
K1 P3 3.180061 1_555
K1 P7 3.254547 1_665
K1 P7 3.468143 1_555
K1 P8 3.525746 1_555
K2 P4 3.180061 1_555
K2 P1 3.180061 1_555
K2 P8 3.254547 1_555
K2 P8 3.468143 1_445
K2 P7 3.525746 1_555
K3 P0 3.180061 1_555
K3 P5 3.180061 1_555
K3 P9 3.254547 1_555
K3 P9 3.468143 1_665
K3 P11 3.525746 1_555
K4 Li6 3.169935 1_656
K4 Li2 3.250402 1_656
K4 P1 3.259106 1_555
K4 P1 3.306862 1_665
K4 Si3 3.342469 1_556
K4 Li4 3.368596 1_556
K4 P8 3.373181 1_555
K4 P4 3.389899 1_655
K4 P3 3.528824 1_555
K5 Li7 3.169935 1_555
K5 Li3 3.250402 1_555
K5 P10 3.259106 1_665
K5 P10 3.306862 1_555
K5 Si2 3.342469 1_565
K5 Li5 3.368596 1_565
K5 P11 3.373181 1_555
K5 P6 3.389899 1_565
K5 P5 3.528824 1_555
K6 Li6 3.169935 1_545
K6 Li2 3.250402 1_545
K6 P0 3.259106 1_555
K6 P0 3.306862 1_445
K6 Si3 3.342469 1_555
K6 Li4 3.368596 1_555
K6 P9 3.373181 1_555
K6 P5 3.389899 1_545
K6 P6 3.528824 1_555
K7 Li4 3.169935 1_455
K7 Li0 3.250402 1_455
K7 P5 3.259106 1_555
K7 P5 3.306862 1_445
K7 Si1 3.342469 1_555
K7 Li6 3.368596 1_555
K7 P9 3.373181 1_555
K7 P0 3.389899 1_455
K7 P10 3.528824 1_555
K8 Li5 3.169935 1_555
K8 Li1 3.250402 1_555
K8 P6 3.259106 1_665
K8 P6 3.306862 1_555
K8 Si0 3.342469 1_655
K8 Li7 3.368596 1_655
K8 P11 3.373181 1_555
K8 P10 3.389899 1_655
K8 P0 3.528824 1_555
K9 Li5 3.169935 1_555
K9 Li1 3.250402 1_555
K9 P3 3.259106 1_445
K9 P3 3.306862 1_555
K9 Si0 3.342469 1_545
K9 Li7 3.368596 1_545
K9 P7 3.373181 1_555
K9 P2 3.389899 1_545
K9 P1 3.528824 1_555
K10 Li4 3.169930 1_566
K10 Li0 3.250406 1_566
K10 P4 3.259109 1_555
K10 P4 3.306860 1_665
K10 Si1 3.342475 1_556
K10 Li6 3.368593 1_556
K10 P8 3.373190 1_555
K10 P1 3.389890 1_565
K10 P2 3.528824 1_555
K11 P6 3.180061 1_555
K11 P10 3.180061 1_555
K11 P11 3.254547 1_445
K11 P11 3.468143 1_555
K11 P9 3.525746 1_555
Li0 P4 2.568225 1_654
Li0 P5 2.568225 1_545
Li0 P8 2.628993 1_544
Li0 P9 2.628993 1_655
Li1 P6 2.568225 1_555
Li1 P3 2.568225 1_555
Li1 P11 2.628993 1_555
Li1 P7 2.628993 1_555
Li2 P0 2.568225 1_455
Li2 P1 2.568225 1_564
Li2 P9 2.628993 1_565
Li2 P8 2.628993 1_454
Li3 P2 2.568225 1_555
Li3 P10 2.568225 1_555
Li3 P7 2.628993 1_555
Li3 P11 2.628993 1_555
Li4 P0 2.550647 1_555
Li4 P1 2.550647 1_554
Li4 P5 2.700200 1_545
Li4 P4 2.700201 1_654
Li5 P2 2.550647 1_545
Li5 P10 2.550647 1_655
Li5 P3 2.700200 1_555
Li5 P6 2.700201 1_555
Li6 P4 2.550647 1_554
Li6 P5 2.550647 1_555
Li6 P1 2.700200 1_564
Li6 P0 2.700201 1_455
Li7 P6 2.550647 1_565
Li7 P3 2.550647 1_455
Li7 P10 2.700200 1_555
Li7 P2 2.700201 1_555
P0 Si3 2.263890 1_555
P1 Si3 2.263890 1_556
P2 Si2 2.263890 1_565
P3 Si0 2.263890 1_655
P4 Si1 2.263890 1_556
P5 Si1 2.263890 1_555
P6 Si0 2.263890 1_545
P7 Si0 2.342084 1_545
P7 Si2 2.342084 1_455
P8 Si3 2.342084 1_556
P8 Si1 2.342084 1_556
P9 Si1 2.342084 1_555
P9 Si3 2.342084 1_555
P10 Si2 2.263890 1_455
P11 Si2 2.342084 1_565
P11 Si0 2.342084 1_655
