# generated using pymatgen
data_ZnGa3Re
_symmetry_space_group_name_H-M   'P 1'
_cell_length_a   4.93975025
_cell_length_b   5.17445011
_cell_length_c   4.93975003
_cell_angle_alpha   110.43660530
_cell_angle_beta   108.48882023
_cell_angle_gamma   110.43660940
_symmetry_Int_Tables_number   1
_chemical_formula_structural   ZnGa3Re
_chemical_formula_sum   'Zn1 Ga3 Re1'
_cell_volume   96.01492633
_cell_formula_units_Z   1
loop_
 _symmetry_equiv_pos_site_id
 _symmetry_equiv_pos_as_xyz
  1  'x, y, z'
loop_
 _atom_site_type_symbol
 _atom_site_label
 _atom_site_symmetry_multiplicity
 _atom_site_fract_x
 _atom_site_fract_y
 _atom_site_fract_z
 _atom_site_occupancy
  Zn  Zn0  1  0.00000000  0.50000000  0.00000000  1
  Ga  Ga0  1  0.00000000  0.00000000  0.50000000  1
  Ga  Ga1  1  0.50000000  0.00000000  0.00000000  1
  Ga  Ga2  1  0.50000000  0.50000000  0.50000000  1
  Re  Re0  1  0.00000000  0.00000000  0.00000000  1
loop_
_geom_bond_atom_site_label_1
_geom_bond_atom_site_label_2
_geom_bond_distance
_geom_bond_site_symmetry_2
Ga0 Re0 2.469875 1_555
Ga0 Re0 2.469875 1_556
Ga0 Ga1 2.886438 1_556
Ga0 Ga1 2.886438 1_455
Ga0 Ga2 2.886439 1_445
Ga0 Ga2 2.886439 1_555
Ga0 Zn0 2.886439 1_556
Ga0 Zn0 2.886439 1_545
Ga1 Re0 2.469875 1_555
Ga1 Re0 2.469875 1_655
Ga1 Zn0 2.886439 1_655
Ga1 Zn0 2.886439 1_545
Ga1 Ga2 2.886439 1_544
Ga1 Ga2 2.886439 1_555
Ga2 Re0 2.469875 1_666
Ga2 Re0 2.469875 1_555
Ga2 Zn0 2.886438 1_656
Ga2 Zn0 2.886438 1_555
Re0 Zn0 2.587225 1_555
Re0 Zn0 2.587225 1_545
