# generated using pymatgen
data_TaNbV3Tc
_symmetry_space_group_name_H-M   'P 1'
_cell_length_a   5.09422871
_cell_length_b   5.09422847
_cell_length_c   5.02988253
_cell_angle_alpha   59.57592475
_cell_angle_beta   59.57592323
_cell_angle_gamma   60.00000016
_symmetry_Int_Tables_number   1
_chemical_formula_structural   TaNbV3Tc
_chemical_formula_sum   'Ta1 Nb1 V3 Tc1'
_cell_volume   91.70351252
_cell_formula_units_Z   1
loop_
 _symmetry_equiv_pos_site_id
 _symmetry_equiv_pos_as_xyz
  1  'x, y, z'
loop_
 _atom_site_type_symbol
 _atom_site_label
 _atom_site_symmetry_multiplicity
 _atom_site_fract_x
 _atom_site_fract_y
 _atom_site_fract_z
 _atom_site_occupancy
  Ta  Ta0  1  0.99987465  0.99987465  0.00037806  1
  Nb  Nb0  1  0.25002015  0.25002015  0.24993955  1
  V  V0  1  0.62502641  0.12491934  0.62502885  1
  V  V1  1  0.12491934  0.62502641  0.62502885  1
  V  V2  1  0.62502641  0.62502641  0.62502885  1
  Tc  Tc0  1  0.62513406  0.62513406  0.12459783  1
loop_
_geom_bond_atom_site_label_1
_geom_bond_atom_site_label_2
_geom_bond_distance
_geom_bond_site_symmetry_2
Ta0 V0 2.942456 1_565
Ta0 V1 2.942456 1_655
Ta0 V2 2.942459 1_555
Ta0 V1 2.972113 1_664
Ta0 V0 2.972113 1_664
Ta0 V2 2.972115 1_654
Ta0 V2 2.972115 1_564
Ta0 V1 2.972117 1_654
Ta0 V0 2.972117 1_564
Ta0 Tc0 2.984506 1_565
Ta0 Tc0 2.984507 1_655
Ta0 Tc0 2.984515 1_555
Nb0 V0 2.943689 1_554
Nb0 V1 2.943689 1_554
Nb0 V2 2.943692 1_554
Nb0 V1 2.971567 1_545
Nb0 V0 2.971567 1_455
Nb0 V2 2.971569 1_455
Nb0 V2 2.971569 1_545
Nb0 V1 2.971570 1_555
Nb0 V0 2.971570 1_555
Nb0 Tc0 2.985290 1_545
Nb0 Tc0 2.985290 1_455
Nb0 Tc0 2.985291 1_555
Nb0 Ta0 3.062059 1_446
Nb0 Ta0 3.112441 1_445
Nb0 Ta0 3.112450 1_455
Nb0 Ta0 3.112450 1_545
V0 V2 2.546569 1_545
V0 V1 2.546569 1_645
V0 V2 2.547660 1_555
V0 V1 2.547660 1_555
V1 V2 2.546569 1_455
V1 V2 2.547660 1_555
Tc0 V2 2.513329 1_554
Tc0 V0 2.513332 1_564
Tc0 V1 2.513332 1_654
Tc0 V0 2.516552 1_555
Tc0 V1 2.516552 1_555
Tc0 V2 2.516554 1_555
