# generated using pymatgen
data_CaY6RhBr12
_symmetry_space_group_name_H-M   'P 1'
_cell_length_a   9.17269908
_cell_length_b   9.17269888
_cell_length_c   9.17269869
_cell_angle_alpha   106.86680762
_cell_angle_beta   106.86681103
_cell_angle_gamma   106.86680740
_symmetry_Int_Tables_number   1
_chemical_formula_structural   CaY6RhBr12
_chemical_formula_sum   'Ca1 Y6 Rh1 Br12'
_cell_volume   645.06368433
_cell_formula_units_Z   1
loop_
 _symmetry_equiv_pos_site_id
 _symmetry_equiv_pos_as_xyz
  1  'x, y, z'
loop_
 _atom_site_type_symbol
 _atom_site_label
 _atom_site_symmetry_multiplicity
 _atom_site_fract_x
 _atom_site_fract_y
 _atom_site_fract_z
 _atom_site_occupancy
  Ca  Ca0  1  0.50000000  0.50000000  0.50000000  1
  Y  Y0  1  0.31288291  0.10270410  0.02146710  1
  Y  Y1  1  0.02146710  0.31288291  0.10270410  1
  Y  Y2  1  0.10270410  0.02146710  0.31288291  1
  Y  Y3  1  0.68711709  0.89729590  0.97853290  1
  Y  Y4  1  0.97853290  0.68711709  0.89729590  1
  Y  Y5  1  0.89729590  0.97853290  0.68711709  1
  Rh  Rh0  1  0.00000000  0.00000000  0.00000000  1
  Br  Br0  1  0.67571010  0.22318839  0.07429220  1
  Br  Br1  1  0.07429220  0.67571010  0.22318839  1
  Br  Br2  1  0.22318839  0.07429220  0.67571010  1
  Br  Br3  1  0.32428990  0.77681161  0.92570780  1
  Br  Br4  1  0.92570780  0.32428990  0.77681161  1
  Br  Br5  1  0.77681161  0.92570780  0.32428990  1
  Br  Br6  1  0.45654389  0.15494336  0.37559679  1
  Br  Br7  1  0.37559679  0.45654389  0.15494336  1
  Br  Br8  1  0.15494336  0.37559679  0.45654389  1
  Br  Br9  1  0.54345611  0.84505664  0.62440321  1
  Br  Br10  1  0.62440321  0.54345611  0.84505664  1
  Br  Br11  1  0.84505664  0.62440321  0.54345611  1
loop_
_geom_bond_atom_site_label_1
_geom_bond_atom_site_label_2
_geom_bond_distance
_geom_bond_site_symmetry_2
Rh0 Y2 2.675539 1_555
Rh0 Y5 2.675539 1_444
Rh0 Y1 2.675539 1_555
Rh0 Y4 2.675539 1_444
Rh0 Y3 2.675539 1_444
Rh0 Y0 2.675539 1_555
Br0 Y3 2.903381 1_544
Br0 Y1 2.947056 1_655
Br0 Y0 3.025147 1_555
Br1 Y4 2.903381 1_454
Br1 Y2 2.947056 1_565
Br1 Y1 3.025147 1_555
Br2 Y5 2.903381 1_445
Br2 Y0 2.947055 1_556
Br2 Y2 3.025147 1_555
Br3 Y0 2.903381 1_566
Br3 Y4 2.947056 1_455
Br3 Y3 3.025147 1_555
Br4 Y1 2.903381 1_656
Br4 Y5 2.947056 1_545
Br4 Y4 3.025147 1_555
Br5 Y2 2.903381 1_665
Br5 Y3 2.947055 1_554
Br5 Y5 3.025147 1_555
Br6 Ca0 2.896021 1_555
Br6 Y2 2.926795 1_555
Br6 Y0 2.960421 1_555
Br7 Ca0 2.896021 1_555
Br7 Y0 2.926794 1_555
Br7 Y1 2.960421 1_555
Br8 Ca0 2.896021 1_555
Br8 Y1 2.926794 1_555
Br8 Y2 2.960421 1_555
Br9 Ca0 2.896021 1_555
Br9 Y5 2.926795 1_555
Br9 Y3 2.960421 1_555
Br10 Ca0 2.896021 1_555
Br10 Y3 2.926794 1_555
Br10 Y4 2.960421 1_555
Br11 Ca0 2.896021 1_555
Br11 Y4 2.926794 1_555
Br11 Y5 2.960421 1_555
