# generated using pymatgen
data_Ca(Re2P)2
_symmetry_space_group_name_H-M   'P 1'
_cell_length_a   7.13850382
_cell_length_b   7.13850414
_cell_length_c   4.02792626
_cell_angle_alpha   90.00000000
_cell_angle_beta   90.00000000
_cell_angle_gamma   146.73666739
_symmetry_Int_Tables_number   1
_chemical_formula_structural   Ca(Re2P)2
_chemical_formula_sum   'Ca1 Re4 P2'
_cell_volume   112.58043131
_cell_formula_units_Z   1
loop_
 _symmetry_equiv_pos_site_id
 _symmetry_equiv_pos_as_xyz
  1  'x, y, z'
loop_
 _atom_site_type_symbol
 _atom_site_label
 _atom_site_symmetry_multiplicity
 _atom_site_fract_x
 _atom_site_fract_y
 _atom_site_fract_z
 _atom_site_occupancy
  Ca  Ca0  1  0.00000000  0.00000000  0.00000000  1
  Re  Re0  1  0.69493243  0.30506757  0.00000000  1
  Re  Re1  1  0.30506757  0.69493243  0.00000000  1
  Re  Re2  1  0.81729638  0.18270262  0.50000000  1
  Re  Re3  1  0.18270262  0.81729638  0.50000000  1
  P  P0  1  0.58706382  0.41293518  0.50000000  1
  P  P1  1  0.41293518  0.58706382  0.50000000  1
loop_
_geom_bond_atom_site_label_1
_geom_bond_atom_site_label_2
_geom_bond_distance
_geom_bond_site_symmetry_2
Ca0 P0 3.106299 1_555
Ca0 P0 3.106299 1_554
Ca0 P1 3.106299 1_555
Ca0 P1 3.106299 1_554
Ca0 P1 3.106302 1_445
Ca0 P1 3.106302 1_444
Ca0 P0 3.106302 1_444
Ca0 P0 3.106302 1_445
Ca0 Re2 3.209780 1_454
Ca0 Re2 3.209780 1_455
Ca0 Re3 3.209780 1_544
Ca0 Re3 3.209780 1_545
Ca0 Re0 3.359376 1_555
Ca0 Re1 3.359376 1_445
Ca0 Re1 3.359376 1_555
Ca0 Re0 3.359376 1_445
P0 P1 2.382031 1_555
P0 Re3 2.426153 1_655
P0 Re3 2.426153 1_545
P0 Re0 2.496690 1_556
P0 Re0 2.496690 1_555
P1 Re2 2.426153 1_455
P1 Re2 2.426153 1_565
P1 Re1 2.496690 1_555
P1 Re1 2.496690 1_556
