# generated using pymatgen
data_Sr3TaNbNiO9
_symmetry_space_group_name_H-M   'P 1'
_cell_length_a   5.65696174
_cell_length_b   5.65696170
_cell_length_c   6.95804736
_cell_angle_alpha   90.00000000
_cell_angle_beta   90.00000000
_cell_angle_gamma   120.00000587
_symmetry_Int_Tables_number   1
_chemical_formula_structural   Sr3TaNbNiO9
_chemical_formula_sum   'Sr3 Ta1 Nb1 Ni1 O9'
_cell_volume   192.83438017
_cell_formula_units_Z   1
loop_
 _symmetry_equiv_pos_site_id
 _symmetry_equiv_pos_as_xyz
  1  'x, y, z'
loop_
 _atom_site_type_symbol
 _atom_site_label
 _atom_site_symmetry_multiplicity
 _atom_site_fract_x
 _atom_site_fract_y
 _atom_site_fract_z
 _atom_site_occupancy
  Sr  Sr0  1  0.33333300  0.66666700  0.00257556  1
  Sr  Sr1  1  0.66666700  0.33333300  0.65979708  1
  Sr  Sr2  1  0.00000000  0.00000000  0.33524253  1
  Ta  Ta0  1  0.66666700  0.33333300  0.17923845  1
  Nb  Nb0  1  0.00000000  0.00000000  0.81845920  1
  Ni  Ni0  1  0.33333300  0.66666700  0.49907646  1
  O  O0  1  0.99624473  0.49812236  0.32959771  1
  O  O1  1  0.50187764  0.49812236  0.32959771  1
  O  O2  1  0.50187764  0.00375527  0.32959771  1
  O  O3  1  0.66779999  0.83389900  0.67046305  1
  O  O4  1  0.16610100  0.83389900  0.67046305  1
  O  O5  1  0.16610100  0.33220001  0.67046305  1
  O  O6  1  0.83244459  0.16755541  0.00180781  1
  O  O7  1  0.83244459  0.66488918  0.00180781  1
  O  O8  1  0.33511082  0.16755541  0.00180781  1
loop_
_geom_bond_atom_site_label_1
_geom_bond_atom_site_label_2
_geom_bond_distance
_geom_bond_site_symmetry_2
Nb0 O5 1.925897 1_555
Nb0 O3 1.925897 1_445
Nb0 O4 1.925905 1_545
Nb0 O7 2.079139 1_446
Nb0 O8 2.079139 1_556
Nb0 O6 2.079139 1_456
Ni0 O4 2.026570 1_555
Ni0 O5 2.026581 1_555
Ni0 O3 2.026581 1_555
Ni0 O2 2.029236 1_565
Ni0 O0 2.029236 1_455
Ni0 O1 2.029240 1_555
O0 Ta0 1.923945 1_555
O0 Sr1 2.808152 1_555
O0 Sr0 2.811547 1_655
O0 Sr2 2.828813 1_665
O0 Sr2 2.828813 1_655
O1 Ta0 1.923949 1_555
O1 Sr1 2.808155 1_555
O1 Sr0 2.811550 1_555
O1 Sr2 2.828813 1_665
O1 Sr2 2.828813 1_555
O2 Ta0 1.923945 1_555
O2 Sr1 2.808152 1_555
O2 Sr0 2.811547 1_545
O2 Sr2 2.828813 1_555
O2 Sr2 2.828813 1_655
O3 Sr1 2.829457 1_555
O3 Sr1 2.829463 1_565
O3 Sr0 2.832841 1_556
O3 Sr2 2.844139 1_665
O4 Sr1 2.829460 1_455
O4 Sr1 2.829460 1_565
O4 Sr0 2.832832 1_556
O4 Sr2 2.844145 1_565
O5 Sr1 2.829457 1_555
O5 Sr1 2.829463 1_455
O5 Sr0 2.832841 1_556
O5 Sr2 2.844139 1_555
O6 Ta0 2.040235 1_555
O6 Sr0 2.828499 1_545
O6 Sr0 2.828499 1_655
O6 Sr2 2.842171 1_655
O6 Sr1 2.881231 1_554
O7 Ta0 2.040238 1_555
O7 Sr0 2.828496 1_655
O7 Sr0 2.828502 1_555
O7 Sr2 2.842171 1_665
O7 Sr1 2.881234 1_554
O8 Ta0 2.040238 1_555
O8 Sr0 2.828496 1_545
O8 Sr0 2.828502 1_555
O8 Sr2 2.842171 1_555
O8 Sr1 2.881234 1_554
