# generated using pymatgen
data_Rb20Hf3SnAs12
_symmetry_space_group_name_H-M   'P 1'
_cell_length_a   8.73445342
_cell_length_b   9.37644696
_cell_length_c   18.30132085
_cell_angle_alpha   60.30442928
_cell_angle_beta   89.97049353
_cell_angle_gamma   90.05159663
_symmetry_Int_Tables_number   1
_chemical_formula_structural   Rb20Hf3SnAs12
_chemical_formula_sum   'Rb20 Hf3 Sn1 As12'
_cell_volume   1301.99931927
_cell_formula_units_Z   1
loop_
 _symmetry_equiv_pos_site_id
 _symmetry_equiv_pos_as_xyz
  1  'x, y, z'
loop_
 _atom_site_type_symbol
 _atom_site_label
 _atom_site_symmetry_multiplicity
 _atom_site_fract_x
 _atom_site_fract_y
 _atom_site_fract_z
 _atom_site_occupancy
  Rb  Rb0  1  0.17754782  0.84597132  0.74115399  1
  Rb  Rb1  1  0.68133184  0.15777076  0.75768809  1
  Rb  Rb2  1  0.82026699  0.15973026  0.25453029  1
  Rb  Rb3  1  0.32108940  0.83485659  0.24479285  1
  Rb  Rb4  1  0.16009643  0.16485099  0.41987691  1
  Rb  Rb5  1  0.66176801  0.84354585  0.08177082  1
  Rb  Rb6  1  0.83912548  0.83708430  0.58201467  1
  Rb  Rb7  1  0.34157760  0.16014675  0.91623565  1
  Rb  Rb8  1  0.00867103  0.08200715  0.09179107  1
  Rb  Rb9  1  0.51186596  0.92231697  0.40859341  1
  Rb  Rb10  1  0.99044397  0.91587002  0.91245117  1
  Rb  Rb11  1  0.49385725  0.07839427  0.59232090  1
  Rb  Rb12  1  0.50379086  0.27364792  0.07446425  1
  Rb  Rb13  1  0.01396936  0.73605921  0.42050052  1
  Rb  Rb14  1  0.48061171  0.73338056  0.92165539  1
  Rb  Rb15  1  0.98763026  0.26836397  0.57787766  1
  Rb  Rb16  1  0.97418391  0.54139080  0.24996080  1
  Rb  Rb17  1  0.47696389  0.45527773  0.24298840  1
  Rb  Rb18  1  0.02117871  0.45719258  0.74499551  1
  Rb  Rb19  1  0.52468599  0.54419525  0.75560146  1
  Hf  Hf0  1  0.37422852  0.49611396  0.57930780  1
  Hf  Hf1  1  0.87453438  0.50517142  0.92333121  1
  Hf  Hf2  1  0.62864529  0.50349083  0.42118813  1
  Sn  Sn0  1  0.12775661  0.49167321  0.07936586  1
  As  As0  1  0.32650270  0.48230002  0.44000124  1
  As  As1  1  0.81559703  0.51933356  0.06218454  1
  As  As2  1  0.67667083  0.51714843  0.56116732  1
  As  As3  1  0.17835633  0.47914465  0.93596590  1
  As  As4  1  0.20564695  0.21364804  0.21763225  1
  As  As5  1  0.70536318  0.77241786  0.28641804  1
  As  As6  1  0.79597081  0.77326793  0.78805590  1
  As  As7  1  0.29672185  0.22665382  0.71404612  1
  As  As8  1  0.25040628  0.75550439  0.07651022  1
  As  As9  1  0.74982625  0.24788819  0.42343806  1
  As  As10  1  0.75132233  0.25158303  0.92412335  1
  As  As11  1  0.25179521  0.75260941  0.57600425  1
loop_
_geom_bond_atom_site_label_1
_geom_bond_atom_site_label_2
_geom_bond_distance
_geom_bond_site_symmetry_2
Rb16 Sn0 3.633598 1_655
As0 Hf0 2.649273 1_555
As0 Hf2 2.655739 1_555
As0 Rb3 3.463047 1_555
As0 Rb4 3.490981 1_555
As0 Rb13 3.523058 1_555
As0 Rb11 3.715465 1_555
As0 Rb15 3.757448 1_455
As1 Hf1 2.659595 1_554
As1 Sn0 2.742541 1_655
As1 Rb2 3.464510 1_555
As1 Rb12 3.499956 1_555
As1 Rb5 3.501663 1_555
As1 Rb10 3.681920 1_554
As1 Rb14 3.756021 1_554
As1 Rb16 3.805253 1_555
As2 Hf0 2.657219 1_555
As2 Hf2 2.661062 1_555
As2 Rb15 3.495356 1_555
As2 Rb1 3.504942 1_555
As2 Rb6 3.505005 1_555
As2 Rb9 3.715571 1_555
As2 Rb13 3.777046 1_655
As3 Hf1 2.664795 1_455
As3 Sn0 2.720479 1_556
As3 Rb14 3.477126 1_555
As3 Rb7 3.490928 1_555
As3 Rb0 3.520225 1_555
As3 Rb12 3.659988 1_556
As3 Rb8 3.695927 1_556
As3 Rb18 3.854789 1_555
As4 Sn0 2.670408 1_555
As4 Rb2 3.420301 1_455
As4 Rb17 3.463745 1_555
As4 Rb3 3.483716 1_545
As4 Rb4 3.519635 1_555
As4 Rb12 3.534554 1_555
As4 Rb8 3.550276 1_555
As5 Hf2 2.593075 1_555
As5 Rb3 3.428256 1_555
As5 Rb16 3.477115 1_555
As5 Rb5 3.484862 1_555
As5 Rb2 3.525543 1_565
As5 Rb13 3.547273 1_655
As5 Rb9 3.597998 1_555
As6 Hf1 2.599614 1_555
As6 Rb0 3.423845 1_655
As6 Rb19 3.440514 1_555
As6 Rb1 3.511597 1_565
As6 Rb6 3.532964 1_555
As6 Rb14 3.576385 1_555
As6 Rb10 3.587745 1_555
As7 Hf0 2.597089 1_555
As7 Rb1 3.440339 1_555
As7 Rb7 3.456954 1_555
As7 Rb18 3.465090 1_555
As7 Rb0 3.508399 1_545
As7 Rb15 3.563025 1_455
As7 Rb11 3.595668 1_555
As8 Sn0 2.671540 1_555
As8 Rb10 3.460027 1_454
As8 Rb7 3.549505 1_564
As8 Rb17 3.555517 1_555
As8 Rb3 3.562498 1_555
As8 Rb14 3.563035 1_554
As8 Rb16 3.687448 1_455
As8 Rb5 3.697877 1_555
As8 Rb8 3.842918 1_565
As9 Hf2 2.602451 1_555
As9 Rb11 3.492412 1_555
As9 Rb6 3.577694 1_545
As9 Rb16 3.580596 1_555
As9 Rb15 3.589282 1_555
As9 Rb2 3.626046 1_555
As9 Rb4 3.675172 1_655
As9 Rb17 3.744536 1_555
As9 Rb9 3.810987 1_545
As10 Hf1 2.602566 1_555
As10 Rb8 3.489439 1_656
As10 Rb19 3.548315 1_555
As10 Rb5 3.553784 1_546
As10 Rb12 3.584181 1_556
As10 Rb1 3.616776 1_555
As10 Rb7 3.698920 1_555
As10 Rb18 3.706950 1_655
As10 Rb10 3.872220 1_545
As11 Hf0 2.606143 1_555
As11 Rb9 3.497881 1_555
As11 Rb18 3.576446 1_555
As11 Rb4 3.579383 1_565
As11 Rb13 3.589084 1_555
As11 Rb0 3.597588 1_555
As11 Rb6 3.704397 1_455
As11 Rb19 3.735795 1_555
As11 Rb11 3.844914 1_565
