# generated using pymatgen
data_Ta(Ti3P2)2
_symmetry_space_group_name_H-M   'P 1'
_cell_length_a   7.50516645
_cell_length_b   7.50516604
_cell_length_c   13.72341959
_cell_angle_alpha   75.48373848
_cell_angle_beta   75.48373958
_cell_angle_gamma   26.16484634
_symmetry_Int_Tables_number   1
_chemical_formula_structural   Ta(Ti3P2)2
_chemical_formula_sum   'Ta2 Ti12 P8'
_cell_volume   329.38182672
_cell_formula_units_Z   2
loop_
 _symmetry_equiv_pos_site_id
 _symmetry_equiv_pos_as_xyz
  1  'x, y, z'
loop_
 _atom_site_type_symbol
 _atom_site_label
 _atom_site_symmetry_multiplicity
 _atom_site_fract_x
 _atom_site_fract_y
 _atom_site_fract_z
 _atom_site_occupancy
  Ta  Ta0  1  0.00000000  0.00000000  0.00000000  1
  Ta  Ta1  1  0.50000000  0.50000000  0.50000000  1
  Ti  Ti0  1  0.42894348  0.42894348  0.16659127  1
  Ti  Ti1  1  0.57105652  0.57105652  0.83340873  1
  Ti  Ti2  1  0.19440303  0.19440303  0.69299949  1
  Ti  Ti3  1  0.80559697  0.80559697  0.30700051  1
  Ti  Ti4  1  0.20620718  0.20620718  0.20596538  1
  Ti  Ti5  1  0.79379282  0.79379282  0.79403462  1
  Ti  Ti6  1  0.33936347  0.33936347  0.96754398  1
  Ti  Ti7  1  0.66063653  0.66063653  0.03245602  1
  Ti  Ti8  1  0.00455722  0.00455722  0.33854139  1
  Ti  Ti9  1  0.99544278  0.99544278  0.66145861  1
  Ti  Ti10  1  0.17854811  0.17854811  0.45793028  1
  Ti  Ti11  1  0.82145189  0.82145189  0.54206972  1
  P  P0  1  0.17967403  0.17967403  0.89104541  1
  P  P1  1  0.82032597  0.82032597  0.10895459  1
  P  P2  1  0.37177760  0.37177760  0.39645694  1
  P  P3  1  0.62822240  0.62822240  0.60354306  1
  P  P4  1  0.36705500  0.36705500  0.65948577  1
  P  P5  1  0.63294500  0.63294500  0.34051423  1
  P  P6  1  0.06204504  0.06204504  0.15235181  1
  P  P7  1  0.93795496  0.93795496  0.84764819  1
loop_
_geom_bond_atom_site_label_1
_geom_bond_atom_site_label_2
_geom_bond_distance
_geom_bond_site_symmetry_2
P0 Ti5 2.509789 1_455
P0 Ti5 2.509789 1_545
P0 Ti7 2.539982 1_546
P0 Ti7 2.539982 1_456
P0 Ti1 2.584579 1_545
P0 Ti1 2.584579 1_455
P0 Ta0 2.667415 1_556
P0 Ti2 2.670571 1_555
P0 Ti6 2.795500 1_555
P1 Ti4 2.509789 1_655
P1 Ti4 2.509789 1_565
P1 Ti6 2.539982 1_564
P1 Ti6 2.539982 1_654
P1 Ti0 2.584579 1_565
P1 Ti0 2.584579 1_655
P1 Ta0 2.667415 1_665
P1 Ti3 2.670571 1_555
P1 Ti7 2.795500 1_555
P2 Ti3 2.437359 1_545
P2 Ti3 2.437360 1_455
P2 Ti8 2.548008 1_565
P2 Ti8 2.548008 1_655
P2 Ti11 2.581443 1_545
P2 Ti11 2.581443 1_455
P2 Ta1 2.627677 1_555
P2 Ti10 2.732505 1_555
P2 Ti0 3.048401 1_555
P3 Ti2 2.437359 1_565
P3 Ti2 2.437360 1_655
P3 Ti9 2.548008 1_545
P3 Ti9 2.548008 1_455
P3 Ti10 2.581443 1_565
P3 Ti10 2.581443 1_655
P3 Ta1 2.627677 1_555
P3 Ti11 2.732505 1_555
P3 Ti1 3.048401 1_555
P4 Ti2 2.446651 1_555
P4 Ta1 2.525670 1_555
P4 Ti5 2.534728 1_545
P4 Ti5 2.534728 1_455
P4 Ti9 2.537017 1_455
P4 Ti9 2.537017 1_545
P4 Ti11 2.545568 1_545
P4 Ti11 2.545568 1_455
P5 Ti3 2.446651 1_555
P5 Ta1 2.525670 1_555
P5 Ti4 2.534728 1_565
P5 Ti4 2.534728 1_655
P5 Ti8 2.537017 1_655
P5 Ti8 2.537017 1_565
P5 Ti10 2.545568 1_565
P5 Ti10 2.545568 1_655
P6 Ti4 2.404608 1_555
P6 Ti8 2.475878 1_555
P6 Ta0 2.484039 1_555
P6 Ti7 2.539770 1_455
P6 Ti7 2.539770 1_545
P6 Ti0 2.552552 1_545
P6 Ti0 2.552552 1_455
P7 Ti5 2.404608 1_555
P7 Ti9 2.475878 1_555
P7 Ta0 2.484039 1_666
P7 Ti6 2.539770 1_655
P7 Ti6 2.539770 1_565
P7 Ti1 2.552552 1_565
P7 Ti1 2.552552 1_655
