# generated using pymatgen
data_K3Mg2H9Ru
_symmetry_space_group_name_H-M   'P 1'
_cell_length_a   7.80562024
_cell_length_b   7.80562040
_cell_length_c   7.80561957
_cell_angle_alpha   43.56916487
_cell_angle_beta   43.56917560
_cell_angle_gamma   43.56917309
_symmetry_Int_Tables_number   1
_chemical_formula_structural   K3Mg2H9Ru
_chemical_formula_sum   'K3 Mg2 H9 Ru1'
_cell_volume   205.01154318
_cell_formula_units_Z   1
loop_
 _symmetry_equiv_pos_site_id
 _symmetry_equiv_pos_as_xyz
  1  'x, y, z'
loop_
 _atom_site_type_symbol
 _atom_site_label
 _atom_site_symmetry_multiplicity
 _atom_site_fract_x
 _atom_site_fract_y
 _atom_site_fract_z
 _atom_site_occupancy
  K  K0  1  0.00000000  0.00000000  0.00000000  1
  K  K1  1  0.79002011  0.79002011  0.79002011  1
  K  K2  1  0.20997989  0.20997989  0.20997989  1
  Mg  Mg0  1  0.61860983  0.61860983  0.61860983  1
  Mg  Mg1  1  0.38139017  0.38139017  0.38139017  1
  H  H0  1  0.00000000  0.50000000  0.50000000  1
  H  H1  1  0.50000000  0.00000000  0.50000000  1
  H  H2  1  0.50000000  0.50000000  0.00000000  1
  H  H3  1  0.73363740  0.31188508  0.31188508  1
  H  H4  1  0.31188508  0.73363740  0.31188508  1
  H  H5  1  0.31188508  0.31188508  0.73363740  1
  H  H6  1  0.68811492  0.68811492  0.26636260  1
  H  H7  1  0.68811492  0.26636260  0.68811492  1
  H  H8  1  0.26636260  0.68811492  0.68811492  1
  Ru  Ru0  1  0.50000000  0.50000000  0.50000000  1
loop_
_geom_bond_atom_site_label_1
_geom_bond_atom_site_label_2
_geom_bond_distance
_geom_bond_site_symmetry_2
H0 Mg1 1.957293 1_555
H0 Mg0 1.957293 1_455
H0 K0 2.896806 1_556
H0 K0 2.896806 1_565
H1 Mg1 1.957293 1_555
H1 Mg0 1.957293 1_545
H1 K0 2.896807 1_655
H1 K0 2.896807 1_556
H2 Mg1 1.957293 1_555
H2 Mg0 1.957293 1_554
H2 K0 2.896807 1_565
H2 K0 2.896807 1_655
H3 Ru0 1.732486 1_555
H3 Mg1 2.061994 1_555
H3 K2 2.726804 1_655
H3 K1 2.909975 1_545
H3 K1 2.909975 1_554
H4 Ru0 1.732485 1_555
H4 Mg1 2.061994 1_555
H4 K2 2.726804 1_565
H4 K1 2.909975 1_554
H4 K1 2.909975 1_455
H5 Ru0 1.732485 1_555
H5 Mg1 2.061994 1_555
H5 K2 2.726803 1_556
H5 K1 2.909975 1_545
H5 K1 2.909975 1_455
H6 Ru0 1.732485 1_555
H6 Mg0 2.061994 1_555
H6 K1 2.726803 1_554
H6 K2 2.909975 1_565
H6 K2 2.909975 1_655
H7 Ru0 1.732485 1_555
H7 Mg0 2.061994 1_555
H7 K1 2.726804 1_545
H7 K2 2.909975 1_556
H7 K2 2.909975 1_655
H8 Ru0 1.732486 1_555
H8 Mg0 2.061994 1_555
H8 K1 2.726804 1_455
H8 K2 2.909975 1_565
H8 K2 2.909975 1_556
