# generated using pymatgen
data_HfGaNi3Au
_symmetry_space_group_name_H-M   'P 1'
_cell_length_a   4.90419302
_cell_length_b   4.90419217
_cell_length_c   4.78611055
_cell_angle_alpha   59.18044930
_cell_angle_beta   59.18045292
_cell_angle_gamma   59.99999262
_symmetry_Int_Tables_number   1
_chemical_formula_structural   HfGaNi3Au
_chemical_formula_sum   'Hf1 Ga1 Ni3 Au1'
_cell_volume   80.37303280
_cell_formula_units_Z   1
loop_
 _symmetry_equiv_pos_site_id
 _symmetry_equiv_pos_as_xyz
  1  'x, y, z'
loop_
 _atom_site_type_symbol
 _atom_site_label
 _atom_site_symmetry_multiplicity
 _atom_site_fract_x
 _atom_site_fract_y
 _atom_site_fract_z
 _atom_site_occupancy
  Hf  Hf0  1  0.00561191  0.00561191  0.98316428  1
  Ga  Ga0  1  0.62210146  0.62210146  0.13369462  1
  Ni  Ni0  1  0.62343197  0.12359911  0.62953396  1
  Ni  Ni1  1  0.12359911  0.62343197  0.62953396  1
  Ni  Ni2  1  0.62343197  0.62343197  0.62953396  1
  Au  Au0  1  0.25182159  0.25182159  0.24453624  1
loop_
_geom_bond_atom_site_label_1
_geom_bond_atom_site_label_2
_geom_bond_distance
_geom_bond_site_symmetry_2
Hf0 Ni1 2.806203 1_555
Hf0 Ni0 2.806204 1_555
Hf0 Ni2 2.806210 1_455
Hf0 Ni2 2.806210 1_545
Hf0 Ni1 2.806216 1_545
Hf0 Ni0 2.806216 1_455
Hf0 Ni1 2.868181 1_546
Hf0 Ni0 2.868181 1_456
Hf0 Ni2 2.868187 1_446
Ga0 Ni2 2.379845 1_555
Ga0 Ni0 2.379850 1_555
Ga0 Ni1 2.379851 1_555
Ga0 Ni0 2.406295 1_564
Ga0 Ni1 2.406295 1_654
Ga0 Ni2 2.406300 1_554
Ga0 Hf0 2.890401 1_654
Ga0 Hf0 2.890402 1_564
Ga0 Hf0 2.890406 1_664
Ni0 Ni1 2.451276 1_555
Ni0 Ni2 2.451276 1_555
Ni0 Ni1 2.452916 1_645
Ni0 Ni2 2.452916 1_545
Ni1 Ni2 2.451277 1_555
Ni1 Ni2 2.452916 1_455
Au0 Ni2 2.763084 1_554
Au0 Ni1 2.763092 1_554
Au0 Ni0 2.763092 1_554
Au0 Hf0 2.850168 1_555
Au0 Ga0 2.863553 1_555
Au0 Ga0 2.863561 1_545
Au0 Ga0 2.863562 1_455
Au0 Ni1 2.867010 1_555
Au0 Ni0 2.867010 1_555
Au0 Ni2 2.867018 1_545
Au0 Ni2 2.867018 1_455
Au0 Ni1 2.867026 1_545
Au0 Ni0 2.867027 1_455
Au0 Hf0 3.005699 1_564
Au0 Hf0 3.005700 1_654
Au0 Hf0 3.005704 1_554
