# generated using pymatgen
data_CaRhIO6
_symmetry_space_group_name_H-M   'P 1'
_cell_length_a   5.17865618
_cell_length_b   5.17865810
_cell_length_c   5.00292924
_cell_angle_alpha   90.00000000
_cell_angle_beta   90.00000000
_cell_angle_gamma   119.99999998
_symmetry_Int_Tables_number   1
_chemical_formula_structural   CaRhIO6
_chemical_formula_sum   'Ca1 Rh1 I1 O6'
_cell_volume   116.19549999
_cell_formula_units_Z   1
loop_
 _symmetry_equiv_pos_site_id
 _symmetry_equiv_pos_as_xyz
  1  'x, y, z'
loop_
 _atom_site_type_symbol
 _atom_site_label
 _atom_site_symmetry_multiplicity
 _atom_site_fract_x
 _atom_site_fract_y
 _atom_site_fract_z
 _atom_site_occupancy
  Ca  Ca0  1  0.33333300  0.66666700  0.00000000  1
  Rh  Rh0  1  0.66666700  0.33333300  0.50000000  1
  I  I0  1  0.00000000  0.00000000  0.50000000  1
  O  O0  1  0.31559970  0.02190027  0.71220620  1
  O  O1  1  0.97809973  0.68440030  0.28779380  1
  O  O2  1  0.31559970  0.29369943  0.28779380  1
  O  O3  1  0.70630057  0.02190027  0.28779380  1
  O  O4  1  0.97809973  0.29369943  0.71220620  1
  O  O5  1  0.70630057  0.68440030  0.71220620  1
loop_
_geom_bond_atom_site_label_1
_geom_bond_atom_site_label_2
_geom_bond_distance
_geom_bond_site_symmetry_2
Ca0 O1 2.373747 1_455
Ca0 O0 2.373748 1_564
Ca0 O3 2.373750 1_565
Ca0 O4 2.373750 1_454
Ca0 O5 2.373751 1_554
Ca0 O2 2.373752 1_555
I0 O0 1.904157 1_555
I0 O3 1.904157 1_455
I0 O2 1.904157 1_555
I0 O5 1.904157 1_445
I0 O4 1.904157 1_455
I0 O1 1.904157 1_445
O0 Rh0 2.025192 1_555
O1 Rh0 2.025192 1_555
O2 Rh0 2.025194 1_555
O3 Rh0 2.025190 1_555
O4 Rh0 2.025190 1_555
O5 Rh0 2.025194 1_555
