# generated using pymatgen
data_V2NiB5Mo8
_symmetry_space_group_name_H-M   'P 1'
_cell_length_a   5.87387838
_cell_length_b   5.87387736
_cell_length_c   6.83156835
_cell_angle_alpha   115.46165332
_cell_angle_beta   115.46164814
_cell_angle_gamma   89.99999820
_symmetry_Int_Tables_number   1
_chemical_formula_structural   V2NiB5Mo8
_chemical_formula_sum   'V2 Ni1 B5 Mo8'
_cell_volume   187.13913619
_cell_formula_units_Z   1
loop_
 _symmetry_equiv_pos_site_id
 _symmetry_equiv_pos_as_xyz
  1  'x, y, z'
loop_
 _atom_site_type_symbol
 _atom_site_label
 _atom_site_symmetry_multiplicity
 _atom_site_fract_x
 _atom_site_fract_y
 _atom_site_fract_z
 _atom_site_occupancy
  V  V0  1  0.49610466  0.49610466  0.99220832  1
  V  V1  1  0.00389534  0.00389534  0.00779168  1
  Ni  Ni0  1  0.25000000  0.25000000  0.50000000  1
  B  B0  1  0.75000000  0.75000000  0.50000000  1
  B  B1  1  0.61988838  0.11988838  0.00000000  1
  B  B2  1  0.38011162  0.88011162  1.00000000  1
  B  B3  1  0.88011162  0.61988838  1.00000000  1
  B  B4  1  0.11988838  0.38011162  0.00000000  1
  Mo  Mo0  1  0.01927954  0.53296329  0.71553921  1
  Mo  Mo1  1  0.69625967  0.18257592  0.71553921  1
  Mo  Mo2  1  0.18257592  0.01927954  0.71553921  1
  Mo  Mo3  1  0.53296329  0.69625967  0.71553921  1
  Mo  Mo4  1  0.96703671  0.48072046  0.28446079  1
  Mo  Mo5  1  0.31742408  0.80374033  0.28446079  1
  Mo  Mo6  1  0.80374033  0.96703671  0.28446079  1
  Mo  Mo7  1  0.48072046  0.31742408  0.28446079  1
loop_
_geom_bond_atom_site_label_1
_geom_bond_atom_site_label_2
_geom_bond_distance
_geom_bond_site_symmetry_2
Ni0 V0 2.669708 1_555
Ni0 V1 2.669708 1_555
B0 Mo6 2.430374 1_555
B0 Mo1 2.430374 1_565
B0 Mo4 2.430374 1_555
B0 Mo3 2.430374 1_555
B0 Mo0 2.430374 1_655
B0 Mo7 2.430374 1_555
B0 Mo5 2.430374 1_555
B0 Mo2 2.430374 1_665
B0 V1 2.754231 1_666
B0 V0 2.754231 1_554
B1 B2 1.991806 1_544
B1 Mo7 2.284325 1_555
B1 Mo3 2.284325 1_544
B1 Mo6 2.333356 1_545
B1 Mo2 2.333356 1_554
B1 Mo1 2.340533 1_554
B1 Mo4 2.340534 1_555
B1 V1 2.341531 1_655
B1 V0 2.341535 1_554
B2 Mo2 2.284325 1_565
B2 Mo6 2.284326 1_556
B2 Mo3 2.333356 1_555
B2 Mo7 2.333356 1_566
B2 Mo5 2.340533 1_556
B2 Mo0 2.340534 1_555
B2 V0 2.341531 1_555
B2 V1 2.341535 1_566
B3 B4 1.991806 1_656
B3 Mo4 2.284325 1_556
B3 Mo0 2.284325 1_655
B3 Mo1 2.333356 1_555
B3 Mo5 2.333356 1_656
B3 Mo6 2.340533 1_556
B3 Mo3 2.340533 1_555
B3 V1 2.341529 1_666
B3 V0 2.341530 1_555
B4 Mo5 2.284325 1_555
B4 Mo1 2.284326 1_454
B4 Mo0 2.333356 1_554
B4 Mo4 2.333356 1_455
B4 Mo2 2.340533 1_554
B4 Mo7 2.340533 1_555
B4 V1 2.341537 1_555
B4 V0 2.341537 1_554
Mo0 Ni0 2.525637 1_555
Mo0 V1 2.655695 1_566
Mo0 V0 2.695186 1_555
Mo1 Ni0 2.525637 1_555
Mo1 V1 2.655697 1_656
Mo1 V0 2.695184 1_555
Mo2 Ni0 2.525637 1_555
Mo2 V1 2.655699 1_556
Mo2 V0 2.695188 1_555
Mo3 Ni0 2.525637 1_555
Mo3 V1 2.655693 1_666
Mo3 V0 2.695181 1_555
Mo4 Ni0 2.525637 1_655
Mo4 V0 2.655695 1_554
Mo4 V1 2.695186 1_655
Mo5 Ni0 2.525637 1_565
Mo5 V0 2.655697 1_554
Mo5 V1 2.695184 1_565
Mo6 Ni0 2.525637 1_665
Mo6 V0 2.655693 1_554
Mo6 V1 2.695182 1_665
Mo7 Ni0 2.525637 1_555
Mo7 V0 2.655699 1_554
Mo7 V1 2.695189 1_555
