# generated using pymatgen
data_Cr2CuPt5
_symmetry_space_group_name_H-M   'P 1'
_cell_length_a   5.44565723
_cell_length_b   5.50228558
_cell_length_c   5.44565720
_cell_angle_alpha   59.65542609
_cell_angle_beta   60.68917394
_cell_angle_gamma   59.65542575
_symmetry_Int_Tables_number   1
_chemical_formula_structural   Cr2CuPt5
_chemical_formula_sum   'Cr2 Cu1 Pt5'
_cell_volume   115.35432807
_cell_formula_units_Z   1
loop_
 _symmetry_equiv_pos_site_id
 _symmetry_equiv_pos_as_xyz
  1  'x, y, z'
loop_
 _atom_site_type_symbol
 _atom_site_label
 _atom_site_symmetry_multiplicity
 _atom_site_fract_x
 _atom_site_fract_y
 _atom_site_fract_z
 _atom_site_occupancy
  Cr  Cr0  1  0.00000000  0.50000000  0.00000000  1
  Cr  Cr1  1  0.50000000  0.00000000  0.50000000  1
  Cu  Cu0  1  0.50000000  0.50000000  0.50000000  1
  Pt  Pt0  1  0.00000000  0.00000000  0.00000000  1
  Pt  Pt1  1  0.50000000  0.00000000  0.00000000  1
  Pt  Pt2  1  0.00000000  0.50000000  0.50000000  1
  Pt  Pt3  1  0.00000000  0.00000000  0.50000000  1
  Pt  Pt4  1  0.50000000  0.50000000  0.00000000  1
loop_
_geom_bond_atom_site_label_1
_geom_bond_atom_site_label_2
_geom_bond_distance
_geom_bond_site_symmetry_2
Cr0 Pt2 2.722829 1_555
Cr0 Pt2 2.722829 1_554
Cr0 Pt4 2.722829 1_555
Cr0 Pt4 2.722829 1_455
Cr0 Pt1 2.722829 1_555
Cr0 Pt1 2.722829 1_465
Cr0 Pt3 2.722829 1_564
Cr0 Pt3 2.722829 1_555
Cr0 Cu0 2.751143 1_455
Cr0 Cu0 2.751143 1_554
Cr0 Pt0 2.751143 1_555
Cr0 Pt0 2.751143 1_565
Cr1 Pt1 2.722829 1_556
Cr1 Pt1 2.722829 1_555
Cr1 Pt3 2.722829 1_555
Cr1 Pt3 2.722829 1_655
Cr1 Pt2 2.722829 1_645
Cr1 Pt2 2.722829 1_555
Cr1 Pt4 2.722829 1_546
Cr1 Pt4 2.722829 1_555
Cr1 Pt0 2.751143 1_655
Cr1 Pt0 2.751143 1_556
Cr1 Cu0 2.751143 1_545
Cr1 Cu0 2.751143 1_555
Cu0 Pt4 2.722829 1_556
Cu0 Pt4 2.722829 1_555
Cu0 Pt2 2.722829 1_555
Cu0 Pt2 2.722829 1_655
Cu0 Pt3 2.722829 1_565
Cu0 Pt3 2.722829 1_655
Cu0 Pt1 2.722829 1_565
Cu0 Pt1 2.722829 1_556
Pt0 Pt3 2.722829 1_554
Pt0 Pt3 2.722829 1_555
Pt0 Pt1 2.722829 1_455
Pt0 Pt1 2.722829 1_555
Pt0 Pt4 2.722829 1_455
Pt0 Pt4 2.722829 1_545
Pt0 Pt2 2.722829 1_554
Pt0 Pt2 2.722829 1_545
Pt1 Pt3 2.751143 1_555
Pt1 Pt3 2.751143 1_654
Pt1 Pt4 2.751143 1_555
Pt1 Pt4 2.751143 1_545
Pt2 Pt4 2.751143 1_456
Pt2 Pt4 2.751143 1_555
Pt2 Pt3 2.751143 1_555
Pt2 Pt3 2.751143 1_565
