# generated using pymatgen
data_Lu12InTc3Hg
_symmetry_space_group_name_H-M   'P 1'
_cell_length_a   8.20972568
_cell_length_b   8.20972601
_cell_length_c   8.20972555
_cell_angle_alpha   108.04900520
_cell_angle_beta   110.24197059
_cell_angle_gamma   110.13199089
_symmetry_Int_Tables_number   1
_chemical_formula_structural   Lu12InTc3Hg
_chemical_formula_sum   'Lu12 In1 Tc3 Hg1'
_cell_volume   425.75872512
_cell_formula_units_Z   1
loop_
 _symmetry_equiv_pos_site_id
 _symmetry_equiv_pos_as_xyz
  1  'x, y, z'
loop_
 _atom_site_type_symbol
 _atom_site_label
 _atom_site_symmetry_multiplicity
 _atom_site_fract_x
 _atom_site_fract_y
 _atom_site_fract_z
 _atom_site_occupancy
  Lu  Lu0  1  0.30572167  0.30497423  0.61069590  1
  Lu  Lu1  1  0.69427833  0.69502577  0.38930410  1
  Lu  Lu2  1  0.69427833  0.30497423  0.99925257  1
  Lu  Lu3  1  0.30572167  0.69502577  0.00074743  1
  Lu  Lu4  1  0.18763222  0.42347003  0.23583681  1
  Lu  Lu5  1  0.81236778  0.57652997  0.76416319  1
  Lu  Lu6  1  0.18763222  0.95179442  0.76416319  1
  Lu  Lu7  1  0.94288682  0.18991250  0.75297632  1
  Lu  Lu8  1  0.81236778  0.04820558  0.23583681  1
  Lu  Lu9  1  0.05711318  0.81008750  0.24702368  1
  Lu  Lu10  1  0.43693619  0.18991250  0.24702368  1
  Lu  Lu11  1  0.56306381  0.81008750  0.75297632  1
  In  In0  1  0.00000000  0.50000000  0.50000000  1
  Tc  Tc0  1  0.37237517  0.37237517  1.00000000  1
  Tc  Tc1  1  0.62762483  0.62762483  0.00000000  1
  Tc  Tc2  1  0.00000000  0.00000000  0.00000000  1
  Hg  Hg0  1  0.50000000  0.00000000  0.50000000  1
loop_
_geom_bond_atom_site_label_1
_geom_bond_atom_site_label_2
_geom_bond_distance
_geom_bond_site_symmetry_2
Lu0 Tc0 2.882018 1_555
Lu0 Tc1 2.882019 1_556
Lu1 Tc1 2.882018 1_555
Lu1 Tc0 2.882019 1_554
Lu2 Tc0 2.882018 1_555
Lu2 Tc1 2.882018 1_556
Lu3 Tc1 2.882018 1_555
Lu3 Tc0 2.882018 1_554
Lu4 Tc0 2.862112 1_554
Lu4 Tc2 2.878686 1_555
Lu5 Tc1 2.862112 1_556
Lu5 Tc2 2.878686 1_666
Lu6 Tc0 2.862118 1_565
Lu6 Tc2 2.878680 1_566
Lu7 Tc0 2.884941 1_655
Lu7 Tc2 2.927125 1_656
Lu8 Tc1 2.862118 1_545
Lu8 Tc2 2.878680 1_655
Lu9 Tc1 2.884941 1_455
Lu9 Tc2 2.927125 1_565
Lu10 Tc0 2.884927 1_554
Lu10 Tc2 2.927123 1_555
Lu11 Tc1 2.884927 1_556
Lu11 Tc2 2.927123 1_666
In0 Lu6 3.099100 1_555
In0 Lu8 3.099100 1_455
In0 Lu4 3.099105 1_555
In0 Lu5 3.099105 1_455
In0 Lu1 3.431991 1_455
In0 Lu0 3.431991 1_555
In0 Lu3 3.431991 1_556
In0 Lu2 3.431991 1_454
In0 Lu11 3.760637 1_555
In0 Lu10 3.760637 1_455
In0 Lu9 3.760638 1_555
In0 Lu7 3.760638 1_455
Tc0 Tc1 2.399937 1_556
Hg0 Lu7 2.971593 1_555
Hg0 Lu9 2.971593 1_545
Hg0 Lu11 2.971606 1_545
Hg0 Lu10 2.971606 1_555
Hg0 Lu1 3.461300 1_545
Hg0 Lu0 3.461300 1_555
Hg0 Lu2 3.461300 1_555
Hg0 Lu3 3.461300 1_545
