# generated using pymatgen
data_La12Ni6O25
_symmetry_space_group_name_H-M   'P 1'
_cell_length_a   5.48932600
_cell_length_b   5.59190833
_cell_length_c   19.23555145
_cell_angle_alpha   81.68123712
_cell_angle_beta   89.97985546
_cell_angle_gamma   89.98044001
_symmetry_Int_Tables_number   1
_chemical_formula_structural   La12Ni6O25
_chemical_formula_sum   'La12 Ni6 O25'
_cell_volume   584.23827852
_cell_formula_units_Z   1
loop_
 _symmetry_equiv_pos_site_id
 _symmetry_equiv_pos_as_xyz
  1  'x, y, z'
loop_
 _atom_site_type_symbol
 _atom_site_label
 _atom_site_symmetry_multiplicity
 _atom_site_fract_x
 _atom_site_fract_y
 _atom_site_fract_z
 _atom_site_occupancy
  La  La0  1  0.48985100  0.61742300  0.76032800  1
  La  La1  1  0.99668700  0.57391200  0.90923500  1
  La  La2  1  0.49100100  0.31411900  0.42753900  1
  La  La3  1  0.99220900  0.20952500  0.57634900  1
  La  La4  1  0.00946600  0.14404700  0.76034300  1
  La  La5  1  0.49242700  0.04186500  0.90929400  1
  La  La6  1  0.49462800  0.97045400  0.09894600  1
  La  La7  1  0.99692900  0.90078100  0.23778900  1
  La  La8  1  0.01311900  0.78315300  0.42760700  1
  La  La9  1  0.51200100  0.73665200  0.57640900  1
  La  La10  1  0.99551800  0.46296800  0.09908600  1
  La  La11  1  0.49339700  0.39504200  0.23755400  1
  Ni  Ni0  1  0.50171700  0.17676300  0.66831400  1
  Ni  Ni1  1  0.98991500  0.01824700  0.00235700  1
  Ni  Ni2  1  0.50507400  0.85211900  0.33458400  1
  Ni  Ni3  1  0.00064700  0.67639800  0.66834900  1
  Ni  Ni4  1  0.49906500  0.50781500  0.00241400  1
  Ni  Ni5  1  0.99476700  0.34118900  0.33463100  1
  O  O0  1  0.02642100  0.56722800  0.78493800  1
  O  O1  1  0.50369800  0.62722000  0.87918500  1
  O  O2  1  0.75208300  0.42757800  0.66458000  1
  O  O3  1  0.25198400  0.43416100  0.65453000  1
  O  O4  1  0.53429800  0.18584400  0.55178000  1
  O  O5  1  0.47235500  0.17023200  0.78483900  1
  O  O6  1  0.99356600  0.01934000  0.87935200  1
  O  O7  1  0.75292500  0.08128600  0.35970800  1
  O  O8  1  0.25257400  0.09561900  0.34188200  1
  O  O9  1  0.94516400  0.02911600  0.11035500  1
  O  O10  1  0.75045600  0.91880200  0.68257500  1
  O  O11  1  0.25082900  0.92527400  0.67169400  1
  O  O12  1  0.55137200  0.96637300  0.22654900  1
  O  O13  1  0.46880700  0.73465100  0.45755300  1
  O  O14  1  0.96946800  0.78476200  0.55190600  1
  O  O15  1  0.24492400  0.68381300  0.16782400  1
  O  O16  1  0.74433000  0.76183300  0.00492900  1
  O  O17  1  0.24417800  0.76202100  0.00339000  1
  O  O18  1  0.03335900  0.33334900  0.45758100  1
  O  O19  1  0.74746300  0.59326100  0.33636300  1
  O  O20  1  0.24798700  0.60091300  0.32978900  1
  O  O21  1  0.54170300  0.39258700  0.11075300  1
  O  O22  1  0.94656400  0.33660400  0.22647500  1
  O  O23  1  0.74382700  0.27355500  0.97965100  1
  O  O24  1  0.24424600  0.26844200  0.99202200  1
loop_
_geom_bond_atom_site_label_1
_geom_bond_atom_site_label_2
_geom_bond_distance
_geom_bond_site_symmetry_2
La0 O1 2.296132 1_555
La0 O5 2.478658 1_555
La0 O10 2.528700 1_555
La0 O0 2.595302 1_555
La0 O11 2.596638 1_555
La0 O2 2.674702 1_555
La0 O3 2.739147 1_555
La0 O0 2.990029 1_655
La0 O5 3.195136 1_565
La1 O0 2.402108 1_655
La1 O23 2.433970 1_555
La1 O6 2.473953 1_565
La1 O24 2.552106 1_655
La1 O17 2.605050 1_656
La1 O16 2.639778 1_556
La1 O1 2.774358 1_555
La1 O1 2.849293 1_655
La1 O6 3.234729 1_555
La2 O4 2.405538 1_555
La2 O7 2.440033 1_555
La2 O13 2.504132 1_555
La2 O8 2.550639 1_555
La2 O18 2.583245 1_555
La2 O19 2.588809 1_555
La2 O20 2.648515 1_555
La2 O18 3.037846 1_655
La2 O13 3.210422 1_545
La3 O18 2.300375 1_655
La3 O14 2.490339 1_545
La3 O3 2.534220 1_655
La3 O4 2.564831 1_555
La3 O2 2.588584 1_555
La3 O11 2.657497 1_645
La3 O10 2.759979 1_545
La3 O4 3.018699 1_655
La3 O14 3.185242 1_555
La4 O6 2.296158 1_455
La4 O0 2.481212 1_555
La4 O10 2.528562 1_445
La4 O5 2.592478 1_555
La4 O11 2.600135 1_545
La4 O2 2.656745 1_455
La4 O3 2.755164 1_555
La4 O5 2.992505 1_455
La4 O0 3.192918 1_545
La5 O5 2.400278 1_555
La5 O23 2.434022 1_555
La5 O1 2.470603 1_545
La5 O24 2.564034 1_555
La5 O17 2.600384 1_546
La5 O16 2.629643 1_546
La5 O6 2.805141 1_455
La5 O6 2.816871 1_555
La5 O1 3.241141 1_555
La6 O15 2.364134 1_555
La6 O21 2.417859 1_565
La6 O12 2.471135 1_555
La6 O9 2.508775 1_565
La6 O16 2.667946 1_555
La6 O17 2.692554 1_555
La6 O24 2.811512 1_564
La6 O23 2.980538 1_564
La6 O9 3.045134 1_465
La6 O21 3.216719 1_555
La7 O15 2.367805 1_655
La7 O22 2.430901 1_565
La7 O9 2.468961 1_565
La7 O12 2.477915 1_555
La7 O20 2.642773 1_655
La7 O19 2.735679 1_555
La7 O8 2.792806 1_665
La7 O7 2.999092 1_565
La7 O12 3.069468 1_655
La7 O22 3.205626 1_555
La8 O14 2.404164 1_455
La8 O7 2.427922 1_465
La8 O18 2.500308 1_555
La8 O13 2.572511 1_555
La8 O8 2.581897 1_565
La8 O20 2.606396 1_555
La8 O19 2.622349 1_455
La8 O13 3.047472 1_455
La8 O18 3.213113 1_565
La9 O13 2.300243 1_555
La9 O4 2.490903 1_565
La9 O3 2.534001 1_555
La9 O14 2.561936 1_555
La9 O2 2.598500 1_555
La9 O11 2.661537 1_555
La9 O10 2.743347 1_555
La9 O14 3.021191 1_455
La9 O4 3.185620 1_555
La10 O15 2.371203 1_655
La10 O9 2.420208 1_555
La10 O22 2.464672 1_555
La10 O21 2.527004 1_555
La10 O16 2.664370 1_555
La10 O17 2.675285 1_655
La10 O24 2.816723 1_654
La10 O23 3.002683 1_554
La10 O21 3.027952 1_655
La10 O9 3.216196 1_565
La11 O15 2.374869 1_555
La11 O21 2.455378 1_555
La11 O12 2.457302 1_545
La11 O22 2.521802 1_555
La11 O20 2.622229 1_555
La11 O19 2.720042 1_555
La11 O8 2.757833 1_555
La11 O22 3.030502 1_455
La11 O7 3.071916 1_555
La11 O12 3.187159 1_555
Ni0 O2 1.957849 1_555
Ni0 O11 1.963012 1_545
Ni0 O10 1.976057 1_545
Ni0 O3 1.977314 1_555
Ni0 O4 2.241897 1_555
Ni0 O5 2.242175 1_555
Ni1 O16 1.963788 1_545
Ni1 O24 1.966388 1_654
Ni1 O23 1.967855 1_554
Ni1 O17 1.997942 1_645
Ni1 O9 2.101381 1_555
Ni1 O6 2.365270 1_554
Ni2 O8 1.961830 1_565
Ni2 O19 1.962450 1_555
Ni2 O7 1.976780 1_565
Ni2 O20 2.003064 1_555
Ni2 O12 2.099259 1_555
Ni2 O13 2.369870 1_555
Ni3 O2 1.957924 1_455
Ni3 O11 1.963227 1_555
Ni3 O10 1.975913 1_455
Ni3 O3 1.977791 1_555
Ni3 O14 2.240725 1_455
Ni3 O0 2.241918 1_555
Ni4 O16 1.963128 1_555
Ni4 O24 1.966514 1_554
Ni4 O23 1.969080 1_554
Ni4 O17 1.996245 1_555
Ni4 O21 2.103460 1_555
Ni4 O1 2.367944 1_554
Ni5 O19 1.960389 1_555
Ni5 O8 1.962470 1_655
Ni5 O7 1.976187 1_555
Ni5 O20 2.003065 1_655
Ni5 O22 2.101126 1_555
Ni5 O18 2.368633 1_655
