# generated using pymatgen
data_Y4Sn2Sb4Rh7
_symmetry_space_group_name_H-M   'P 1'
_cell_length_a   7.57141568
_cell_length_b   7.57141598
_cell_length_c   7.56928419
_cell_angle_alpha   109.47440270
_cell_angle_beta   109.47440494
_cell_angle_gamma   109.47627248
_symmetry_Int_Tables_number   1
_chemical_formula_structural   Y4Sn2Sb4Rh7
_chemical_formula_sum   'Y4 Sn2 Sb4 Rh7'
_cell_volume   333.98418620
_cell_formula_units_Z   1
loop_
 _symmetry_equiv_pos_site_id
 _symmetry_equiv_pos_as_xyz
  1  'x, y, z'
loop_
 _atom_site_type_symbol
 _atom_site_label
 _atom_site_symmetry_multiplicity
 _atom_site_fract_x
 _atom_site_fract_y
 _atom_site_fract_z
 _atom_site_occupancy
  Y  Y0  1  0.50820504  0.99975345  0.00000000  1
  Y  Y1  1  0.00024655  0.49179496  1.00000000  1
  Y  Y2  1  0.00083227  0.99916773  0.50000000  1
  Y  Y3  1  0.50083227  0.49916773  0.50000000  1
  Sn  Sn0  1  0.31274776  0.99657225  0.30932001  1
  Sn  Sn1  1  0.00342775  0.68725224  0.69067999  1
  Sb  Sb0  1  0.68546783  0.68011491  1.00000000  1
  Sb  Sb1  1  0.67499064  0.99716200  0.67215364  1
  Sb  Sb2  1  0.00283800  0.32500936  0.32784636  1
  Sb  Sb3  1  0.31988509  0.31453217  0.00000000  1
  Rh  Rh0  1  0.25318836  0.50138295  0.75457231  1
  Rh  Rh1  1  0.49869269  0.24923878  0.74793147  1
  Rh  Rh2  1  0.74850318  0.25149682  0.50000000  1
  Rh  Rh3  1  0.49861705  0.74681164  0.24542769  1
  Rh  Rh4  1  0.99226112  0.00773888  0.00000000  1
  Rh  Rh5  1  0.24850318  0.75149682  0.50000000  1
  Rh  Rh6  1  0.75076122  0.50130731  0.25206853  1
loop_
_geom_bond_atom_site_label_1
_geom_bond_atom_site_label_2
_geom_bond_distance
_geom_bond_site_symmetry_2
Sn0 Y3 3.153675 1_565
Sn0 Y2 3.153675 1_555
Sn0 Y1 3.161742 1_554
Sn0 Y0 3.161742 1_555
Sn1 Y3 3.153675 1_455
Sn1 Y2 3.153675 1_555
Sn1 Y0 3.161742 1_556
Sn1 Y1 3.161742 1_555
Sb0 Y0 3.134362 1_556
Sb0 Y2 3.145258 1_656
Sb0 Y3 3.145258 1_555
Sb0 Y1 3.159008 1_655
Sb1 Y0 3.134764 1_556
Sb1 Y1 3.134769 1_665
Sb1 Y3 3.149041 1_555
Sb1 Y2 3.149047 1_655
Sb2 Y1 3.134764 1_554
Sb2 Y0 3.134769 1_445
Sb2 Y3 3.149040 1_555
Sb2 Y2 3.149047 1_545
Sb3 Y1 3.134362 1_554
Sb3 Y2 3.145258 1_544
Sb3 Y3 3.145258 1_555
Sb3 Y0 3.159008 1_545
Rh0 Sb2 2.676368 1_555
Rh0 Sb3 2.703852 1_556
Rh0 Sb0 2.703857 1_555
Rh0 Sn1 2.721951 1_555
Rh0 Y1 3.081152 1_555
Rh0 Y0 3.081158 1_556
Rh0 Y2 3.104427 1_545
Rh0 Y3 3.104433 1_555
Rh1 Sb1 2.689392 1_545
Rh1 Sb0 2.693941 1_555
Rh1 Sb3 2.693941 1_556
Rh1 Sn0 2.741658 1_545
Rh1 Y2 3.077447 1_545
Rh1 Y3 3.077448 1_555
Rh1 Y1 3.100955 1_655
Rh1 Y0 3.100956 1_546
Rh2 Sb2 2.675453 1_655
Rh2 Sb1 2.675453 1_545
Rh2 Sn0 2.723021 1_545
Rh2 Sn1 2.723021 1_655
Rh2 Y3 3.062316 1_555
Rh2 Y1 3.090814 1_655
Rh2 Y0 3.090814 1_545
Rh2 Y2 3.119912 1_645
Rh3 Sb1 2.676368 1_555
Rh3 Sb0 2.703852 1_554
Rh3 Sb3 2.703857 1_555
Rh3 Sn0 2.721951 1_555
Rh3 Y0 3.081152 1_555
Rh3 Y1 3.081158 1_554
Rh3 Y2 3.104426 1_655
Rh3 Y3 3.104433 1_555
Rh4 Sb1 2.774804 1_544
Rh4 Sb2 2.774804 1_655
Rh4 Sb3 2.776081 1_655
Rh4 Sb0 2.776081 1_544
Rh4 Sn0 2.803161 1_645
Rh4 Sn1 2.803161 1_644
Rh5 Sb1 2.675445 1_555
Rh5 Sb2 2.675445 1_555
Rh5 Sn1 2.723021 1_555
Rh5 Sn0 2.723021 1_555
Rh5 Y2 3.062316 1_555
Rh5 Y0 3.090814 1_556
Rh5 Y1 3.090814 1_554
Rh5 Y3 3.119912 1_555
Rh6 Sb2 2.689392 1_655
Rh6 Sb3 2.693941 1_555
Rh6 Sb0 2.693941 1_554
Rh6 Sn1 2.741658 1_655
Rh6 Y2 3.077447 1_655
Rh6 Y3 3.077448 1_555
Rh6 Y0 3.100955 1_545
Rh6 Y1 3.100956 1_654
