# generated using pymatgen
data_InCu(RhS2)4
_symmetry_space_group_name_H-M   'P 1'
_cell_length_a   7.09562075
_cell_length_b   7.09562117
_cell_length_c   7.09562027
_cell_angle_alpha   60.00000420
_cell_angle_beta   60.00000227
_cell_angle_gamma   60.00000344
_symmetry_Int_Tables_number   1
_chemical_formula_structural   InCu(RhS2)4
_chemical_formula_sum   'In1 Cu1 Rh4 S8'
_cell_volume   252.61330224
_cell_formula_units_Z   1
loop_
 _symmetry_equiv_pos_site_id
 _symmetry_equiv_pos_as_xyz
  1  'x, y, z'
loop_
 _atom_site_type_symbol
 _atom_site_label
 _atom_site_symmetry_multiplicity
 _atom_site_fract_x
 _atom_site_fract_y
 _atom_site_fract_z
 _atom_site_occupancy
  In  In0  1  0.75000000  0.75000000  0.75000000  1
  Cu  Cu0  1  0.50000000  0.50000000  0.50000000  1
  Rh  Rh0  1  0.12718483  0.12718483  0.61844552  1
  Rh  Rh1  1  0.12718483  0.61844552  0.12718483  1
  Rh  Rh2  1  0.61844552  0.12718483  0.12718483  1
  Rh  Rh3  1  0.12718483  0.12718483  0.12718483  1
  S  S0  1  0.89149934  0.32549998  0.89149934  1
  S  S1  1  0.36354037  0.36354037  0.90938088  1
  S  S2  1  0.36354037  0.36354037  0.36354037  1
  S  S3  1  0.90938088  0.36354037  0.36354037  1
  S  S4  1  0.89149934  0.89149934  0.89149934  1
  S  S5  1  0.32549998  0.89149934  0.89149934  1
  S  S6  1  0.36354037  0.90938088  0.36354037  1
  S  S7  1  0.89149934  0.89149934  0.32549998  1
loop_
_geom_bond_atom_site_label_1
_geom_bond_atom_site_label_2
_geom_bond_distance
_geom_bond_site_symmetry_2
In0 S4 2.459350 1_555
In0 S7 2.459362 1_555
In0 S5 2.459362 1_555
In0 S0 2.459362 1_555
Cu0 S2 2.371757 1_555
Cu0 S1 2.371769 1_555
Cu0 S3 2.371769 1_555
Cu0 S6 2.371769 1_555
Rh0 S6 2.375402 1_545
Rh0 S3 2.375402 1_455
Rh0 S2 2.375412 1_555
Rh0 S0 2.379846 1_455
Rh0 S5 2.379846 1_545
Rh0 S4 2.379856 1_445
Rh1 S1 2.375402 1_554
Rh1 S3 2.375402 1_455
Rh1 S2 2.375412 1_555
Rh1 S7 2.379847 1_455
Rh1 S5 2.379847 1_554
Rh1 S4 2.379856 1_454
Rh2 S1 2.375402 1_554
Rh2 S6 2.375402 1_545
Rh2 S2 2.375412 1_555
Rh2 S7 2.379846 1_545
Rh2 S0 2.379847 1_554
Rh2 S4 2.379856 1_544
Rh3 S6 2.375413 1_545
Rh3 S3 2.375413 1_455
Rh3 S1 2.375413 1_554
Rh3 S0 2.379857 1_454
Rh3 S5 2.379857 1_544
Rh3 S7 2.379857 1_445
