# generated using pymatgen
data_Cs4Ca(VSe4)2
_symmetry_space_group_name_H-M   'P 1'
_cell_length_a   9.91483481
_cell_length_b   9.95645931
_cell_length_c   11.90278609
_cell_angle_alpha   105.25086864
_cell_angle_beta   102.77246866
_cell_angle_gamma   93.83705053
_symmetry_Int_Tables_number   1
_chemical_formula_structural   Cs4Ca(VSe4)2
_chemical_formula_sum   'Cs8 Ca2 V4 Se16'
_cell_volume   1095.76157226
_cell_formula_units_Z   2
loop_
 _symmetry_equiv_pos_site_id
 _symmetry_equiv_pos_as_xyz
  1  'x, y, z'
loop_
 _atom_site_type_symbol
 _atom_site_label
 _atom_site_symmetry_multiplicity
 _atom_site_fract_x
 _atom_site_fract_y
 _atom_site_fract_z
 _atom_site_occupancy
  Cs  Cs0  1  0.93332585  0.52105444  0.25235991  1
  Cs  Cs1  1  0.06667415  0.47894556  0.74764009  1
  Cs  Cs2  1  0.76052720  0.98622634  0.46636992  1
  Cs  Cs3  1  0.23947280  0.01377366  0.53363008  1
  Cs  Cs4  1  0.59860336  0.74362570  0.01665461  1
  Cs  Cs5  1  0.40139664  0.25637430  0.98334539  1
  Cs  Cs6  1  0.61414095  0.68265538  0.61495573  1
  Cs  Cs7  1  0.38585905  0.31734462  0.38504427  1
  Ca  Ca0  1  0.85160854  0.13570951  0.92477719  1
  Ca  Ca1  1  0.14839146  0.86429049  0.07522281  1
  V  V0  1  0.95132339  0.11255176  0.22979487  1
  V  V1  1  0.04867661  0.88744824  0.77020513  1
  V  V2  1  0.36994639  0.68757100  0.25767363  1
  V  V3  1  0.63005361  0.31242900  0.74232637  1
  Se  Se0  1  0.95726829  0.88498039  0.23385758  1
  Se  Se1  1  0.04273171  0.11501961  0.76614242  1
  Se  Se2  1  0.59151302  0.07760722  0.73216111  1
  Se  Se3  1  0.40848698  0.92239278  0.26783889  1
  Se  Se4  1  0.28320090  0.66281324  0.41210591  1
  Se  Se5  1  0.71679910  0.33718676  0.58789409  1
  Se  Se6  1  0.78928699  0.42219414  0.92046574  1
  Se  Se7  1  0.21071301  0.57780586  0.07953426  1
  Se  Se8  1  0.01457751  0.25477782  0.41785832  1
  Se  Se9  1  0.98542249  0.74522218  0.58214168  1
  Se  Se10  1  0.10619884  0.16918692  0.12511435  1
  Se  Se11  1  0.89380116  0.83081308  0.87488565  1
  Se  Se12  1  0.73273889  0.13908032  0.13380719  1
  Se  Se13  1  0.26726111  0.86091968  0.86619281  1
  Se  Se14  1  0.57159265  0.59065206  0.26920797  1
  Se  Se15  1  0.42840735  0.40934794  0.73079203  1
loop_
_geom_bond_atom_site_label_1
_geom_bond_atom_site_label_2
_geom_bond_distance
_geom_bond_site_symmetry_2
Cs0 Se4 3.557740 1_655
Cs0 Se0 3.682633 1_555
Cs0 Se6 3.726418 1_554
Cs0 Se8 3.726912 1_655
Cs0 Se14 3.736454 1_555
Cs0 Se9 3.872535 1_555
Cs0 Se7 3.875550 1_655
Cs0 Se12 3.915820 1_555
Cs0 Se10 4.082312 1_655
Cs1 Se5 3.557740 1_455
Cs1 Se1 3.682633 1_555
Cs1 Se7 3.726418 1_556
Cs1 Se9 3.726912 1_455
Cs1 Se15 3.736454 1_555
Cs1 Se8 3.872535 1_555
Cs1 Se6 3.875550 1_455
Cs1 Se13 3.915820 1_555
Cs1 Se11 4.082312 1_455
Cs2 Se5 3.508776 1_565
Cs2 Se3 3.665661 1_555
Cs2 Se0 3.696351 1_555
Cs2 Se9 3.704835 1_555
Cs2 Se8 3.792279 1_665
Cs2 Se2 3.831253 1_565
Cs2 Se1 3.860447 1_665
Cs2 Se14 4.090792 1_555
Cs3 Se4 3.508776 1_545
Cs3 Se2 3.665661 1_555
Cs3 Se1 3.696351 1_555
Cs3 Se8 3.704835 1_555
Cs3 Se9 3.792279 1_445
Cs3 Se3 3.831253 1_545
Cs3 Se0 3.860447 1_445
Cs3 Se15 4.090792 1_555
Cs4 Se14 3.760071 1_555
Cs4 Se13 3.791584 1_554
Cs4 Se0 3.829019 1_555
Cs4 Se11 3.844707 1_554
Cs4 Se12 3.847919 1_565
Cs4 Se6 3.868652 1_554
Cs4 Se3 3.975084 1_555
Cs4 Se15 4.031612 1_554
Cs5 Se15 3.760071 1_555
Cs5 Se12 3.791584 1_556
Cs5 Se1 3.829019 1_555
Cs5 Se10 3.844707 1_556
Cs5 Se13 3.847919 1_545
Cs5 Se7 3.868652 1_556
Cs5 Se2 3.975084 1_555
Cs5 Se14 4.031612 1_556
Cs6 Se11 3.562989 1_555
Cs6 Se4 3.576930 1_555
Cs6 Se5 3.605767 1_555
Cs6 Se9 3.814267 1_555
Cs6 Se2 3.850988 1_565
Cs6 Se15 3.888807 1_555
Cs6 Se14 3.892386 1_555
Cs7 Se10 3.562989 1_555
Cs7 Se5 3.576930 1_555
Cs7 Se4 3.605767 1_555
Cs7 Se8 3.814267 1_555
Cs7 Se3 3.850988 1_545
Cs7 Se14 3.888807 1_555
Cs7 Se15 3.892386 1_555
Ca0 Se1 2.937389 1_655
Ca0 Se2 2.954589 1_555
Ca0 Se6 2.969739 1_555
Ca0 Se12 2.972949 1_556
Ca0 Se10 2.996126 1_656
Ca0 Se11 3.012386 1_545
Ca1 Se0 2.937389 1_455
Ca1 Se3 2.954589 1_555
Ca1 Se7 2.969739 1_555
Ca1 Se13 2.972949 1_554
Ca1 Se11 2.996126 1_454
Ca1 Se10 3.012386 1_565
Se0 V0 2.283406 1_565
Se1 V1 2.283406 1_545
Se2 V3 2.310418 1_555
Se3 V2 2.310418 1_555
Se4 V2 2.255748 1_555
Se5 V3 2.255748 1_555
Se6 V3 2.291859 1_555
Se7 V2 2.291859 1_555
Se8 V0 2.236546 1_455
Se9 V1 2.236546 1_655
Se10 V0 2.308277 1_455
Se11 V1 2.308277 1_655
Se12 V0 2.283099 1_555
Se13 V1 2.283099 1_555
Se14 V2 2.270179 1_555
Se15 V3 2.270179 1_555
