# generated using pymatgen
data_Sr6IrRh4O15
_symmetry_space_group_name_H-M   'P 1'
_cell_length_a   7.12051378
_cell_length_b   7.12051401
_cell_length_c   7.12051443
_cell_angle_alpha   84.68621794
_cell_angle_beta   84.68621551
_cell_angle_gamma   84.68622493
_symmetry_Int_Tables_number   1
_chemical_formula_structural   Sr6IrRh4O15
_chemical_formula_sum   'Sr6 Ir1 Rh4 O15'
_cell_volume   356.63791650
_cell_formula_units_Z   1
loop_
 _symmetry_equiv_pos_site_id
 _symmetry_equiv_pos_as_xyz
  1  'x, y, z'
loop_
 _atom_site_type_symbol
 _atom_site_label
 _atom_site_symmetry_multiplicity
 _atom_site_fract_x
 _atom_site_fract_y
 _atom_site_fract_z
 _atom_site_occupancy
  Sr  Sr0  1  0.31947898  0.68052102  0.00000000  1
  Sr  Sr1  1  0.68052102  0.00000000  0.31947898  1
  Sr  Sr2  1  1.00000000  0.31947898  0.68052102  1
  Sr  Sr3  1  0.13978677  0.86021323  0.50000000  1
  Sr  Sr4  1  0.86021323  0.50000000  0.13978677  1
  Sr  Sr5  1  0.50000000  0.13978677  0.86021323  1
  Ir  Ir0  1  0.50000000  0.50000000  0.50000000  1
  Rh  Rh0  1  0.90378929  0.90378929  0.90378929  1
  Rh  Rh1  1  0.09621071  0.09621071  0.09621071  1
  Rh  Rh2  1  0.70687576  0.70687576  0.70687576  1
  Rh  Rh3  1  0.29312424  0.29312424  0.29312424  1
  O  O0  1  0.26922980  0.56610811  0.35453000  1
  O  O1  1  0.35453000  0.26922980  0.56610811  1
  O  O2  1  0.56610811  0.35453000  0.26922980  1
  O  O3  1  0.73077020  0.64547000  0.43389189  1
  O  O4  1  0.43389189  0.73077020  0.64547000  1
  O  O5  1  0.64547000  0.43389189  0.73077020  1
  O  O6  1  0.00000000  0.83509404  0.16490596  1
  O  O7  1  0.16490596  1.00000000  0.83509404  1
  O  O8  1  0.83509404  0.16490596  1.00000000  1
  O  O9  1  0.34833488  0.02172941  0.21007798  1
  O  O10  1  0.21007798  0.34833488  0.02172941  1
  O  O11  1  0.78992202  0.97827059  0.65166512  1
  O  O12  1  0.97827059  0.65166512  0.78992202  1
  O  O13  1  0.65166512  0.78992202  0.97827059  1
  O  O14  1  0.02172941  0.21007798  0.34833488  1
loop_
_geom_bond_atom_site_label_1
_geom_bond_atom_site_label_2
_geom_bond_distance
_geom_bond_site_symmetry_2
Ir0 O3 2.018985 1_555
Ir0 O1 2.018985 1_555
Ir0 O4 2.018985 1_555
Ir0 O0 2.018985 1_555
Ir0 O2 2.018985 1_555
Ir0 O5 2.018985 1_555
O0 Rh3 2.020102 1_555
O0 Sr3 2.485051 1_555
O0 Sr0 2.582686 1_555
O1 Rh3 2.020102 1_555
O1 Sr5 2.485051 1_555
O1 Sr2 2.582686 1_455
O2 Rh3 2.020102 1_555
O2 Sr4 2.485051 1_555
O2 Sr1 2.582686 1_555
O3 Rh2 2.020102 1_555
O3 Sr4 2.485051 1_555
O3 Sr1 2.582686 1_565
O4 Rh2 2.020102 1_555
O4 Sr3 2.485051 1_555
O4 Sr0 2.582686 1_556
O5 Rh2 2.020102 1_555
O5 Sr5 2.485051 1_555
O5 Sr2 2.582686 1_555
O6 Rh1 2.042285 1_565
O6 Rh0 2.042285 1_454
O6 Sr0 2.654434 1_555
O6 Sr1 2.654434 1_465
O6 Sr4 2.695891 1_455
O6 Sr3 2.695891 1_555
O7 Rh0 2.042285 1_455
O7 Rh1 2.042285 1_566
O7 Sr0 2.654434 1_556
O7 Sr2 2.654434 1_465
O7 Sr5 2.695891 1_565
O7 Sr3 2.695891 1_555
O8 Rh1 2.042285 1_656
O8 Rh0 2.042285 1_545
O8 Sr2 2.654434 1_555
O8 Sr1 2.654434 1_556
O8 Sr5 2.695891 1_555
O8 Sr4 2.695891 1_556
O9 Rh1 2.043330 1_555
O9 Rh3 2.065563 1_555
O9 Sr1 2.544947 1_555
O9 Sr3 2.664264 1_545
O9 Sr5 2.713122 1_554
O9 Sr0 3.000870 1_545
O10 Rh1 2.043330 1_555
O10 Rh3 2.065564 1_555
O10 Sr0 2.544947 1_555
O10 Sr5 2.664265 1_554
O10 Sr4 2.713122 1_455
O10 Sr2 3.000870 1_454
O11 Rh0 2.043330 1_555
O11 Rh2 2.065563 1_555
O11 Sr1 2.544947 1_565
O11 Sr5 2.664265 1_565
O11 Sr3 2.713122 1_655
O11 Sr2 3.000869 1_565
O12 Rh0 2.043330 1_555
O12 Rh2 2.065563 1_555
O12 Sr2 2.544947 1_555
O12 Sr3 2.664264 1_655
O12 Sr4 2.713122 1_556
O12 Sr0 3.000870 1_656
O13 Rh0 2.043330 1_555
O13 Rh2 2.065563 1_555
O13 Sr0 2.544947 1_556
O13 Sr4 2.664265 1_556
O13 Sr5 2.713122 1_565
O13 Sr1 3.000870 1_566
O14 Rh1 2.043330 1_555
O14 Rh3 2.065563 1_555
O14 Sr2 2.544947 1_455
O14 Sr4 2.664265 1_455
O14 Sr3 2.713122 1_545
O14 Sr1 3.000869 1_455
