# generated using pymatgen
data_Gd2MgS4
_symmetry_space_group_name_H-M   'P 1'
_cell_length_a   7.23331305
_cell_length_b   7.23331305
_cell_length_c   7.23331305
_cell_angle_alpha   110.71393921
_cell_angle_beta   110.71393921
_cell_angle_gamma   107.01338936
_symmetry_Int_Tables_number   1
_chemical_formula_structural   Gd2MgS4
_chemical_formula_sum   'Gd4 Mg2 S8'
_cell_volume   290.93322776
_cell_formula_units_Z   2
loop_
 _symmetry_equiv_pos_site_id
 _symmetry_equiv_pos_as_xyz
  1  'x, y, z'
loop_
 _atom_site_type_symbol
 _atom_site_label
 _atom_site_symmetry_multiplicity
 _atom_site_fract_x
 _atom_site_fract_y
 _atom_site_fract_z
 _atom_site_occupancy
  Gd  Gd0  1  0.50733600  0.12500000  0.88233600  1
  Gd  Gd1  1  0.37500000  0.49266400  0.61766400  1
  Gd  Gd2  1  0.24266400  0.62500000  0.11766400  1
  Gd  Gd3  1  0.87500000  0.75733600  0.38233600  1
  Mg  Mg0  1  0.00000000  0.00000000  0.00000000  1
  Mg  Mg1  1  0.75000000  0.25000000  0.50000000  1
  S  S0  1  0.63571700  0.87222000  0.62830400  1
  S  S1  1  0.24391600  0.00741400  0.37169600  1
  S  S2  1  0.11428300  0.24258600  0.73650300  1
  S  S3  1  0.99258600  0.36428300  0.23650300  1
  S  S4  1  0.75741400  0.49391600  0.87169600  1
  S  S5  1  0.50608400  0.37778000  0.26349700  1
  S  S6  1  0.62222000  0.88571700  0.12830400  1
  S  S7  1  0.12778000  0.75608400  0.76349700  1
loop_
_geom_bond_atom_site_label_1
_geom_bond_atom_site_label_2
_geom_bond_distance
_geom_bond_site_symmetry_2
Gd0 S0 2.721374 1_545
Gd0 S5 2.721374 1_556
Gd0 S7 2.796044 1_545
Gd0 S4 2.796047 1_555
Gd0 S3 2.970827 1_556
Gd0 S6 2.970832 1_546
Gd0 S2 3.138061 1_555
Gd0 S1 3.138068 1_555
Gd1 S3 2.721378 1_455
Gd1 S4 2.721380 1_555
Gd1 S0 2.796044 1_555
Gd1 S2 2.796048 1_555
Gd1 S1 2.970825 1_555
Gd1 S5 2.970832 1_555
Gd1 S7 3.138066 1_555
Gd1 S6 3.138066 1_556
Gd2 S2 2.721378 1_554
Gd2 S1 2.721380 1_565
Gd2 S6 2.796044 1_555
Gd2 S3 2.796048 1_455
Gd2 S4 2.970825 1_454
Gd2 S7 2.970832 1_554
Gd2 S5 3.138066 1_555
Gd2 S0 3.138066 1_555
Gd3 S7 2.721374 1_655
Gd3 S6 2.721374 1_555
Gd3 S5 2.796044 1_555
Gd3 S1 2.796047 1_665
Gd3 S2 2.970827 1_665
Gd3 S0 2.970832 1_555
Gd3 S3 3.138061 1_555
Gd3 S4 3.138068 1_554
Mg0 S1 2.613670 1_555
Mg0 S7 2.613674 1_544
Mg0 S0 2.613674 1_444
Mg0 S3 2.613678 1_455
Mg0 S2 3.166471 1_554
Mg0 S4 3.166476 1_444
Mg0 S5 3.166476 1_555
Mg0 S6 3.166476 1_445
Mg1 S4 2.613670 1_555
Mg1 S6 2.613674 1_545
Mg1 S5 2.613674 1_555
Mg1 S2 2.613678 1_655
Mg1 S3 3.166471 1_555
Mg1 S1 3.166476 1_555
Mg1 S0 3.166476 1_545
Mg1 S7 3.166476 1_655
