# generated using pymatgen
data_RbCr3Ge2O9
_symmetry_space_group_name_H-M   'P 1'
_cell_length_a   5.83030409
_cell_length_b   5.83027507
_cell_length_c   13.71885541
_cell_angle_alpha   89.99146270
_cell_angle_beta   90.01755774
_cell_angle_gamma   120.00015458
_symmetry_Int_Tables_number   1
_chemical_formula_structural   RbCr3Ge2O9
_chemical_formula_sum   'Rb2 Cr6 Ge4 O18'
_cell_volume   403.85741883
_cell_formula_units_Z   2
loop_
 _symmetry_equiv_pos_site_id
 _symmetry_equiv_pos_as_xyz
  1  'x, y, z'
loop_
 _atom_site_type_symbol
 _atom_site_label
 _atom_site_symmetry_multiplicity
 _atom_site_fract_x
 _atom_site_fract_y
 _atom_site_fract_z
 _atom_site_occupancy
  Rb  Rb0  1  0.33329356  0.66657212  0.74999859  1
  Rb  Rb1  1  0.66671365  0.33343660  0.25000135  1
  Cr  Cr0  1  0.50001539  0.50000805  0.50000357  1
  Cr  Cr1  1  0.49998473  0.99999119  0.99999566  1
  Cr  Cr2  1  0.49998712  0.49999614  0.99999603  1
  Cr  Cr3  1  0.00001734  0.50000449  0.50000423  1
  Cr  Cr4  1  0.50000883  0.00000457  0.50000433  1
  Cr  Cr5  1  0.99998566  0.49999122  0.99999527  1
  Ge  Ge0  1  0.00006155  0.99993786  0.62183516  1
  Ge  Ge1  1  0.99996159  0.00007154  0.37816726  1
  Ge  Ge2  1  0.00010150  0.00006683  0.12185156  1
  Ge  Ge3  1  0.99987758  0.99992515  0.87814612  1
  O  O0  1  0.99984661  0.99963576  0.75000778  1
  O  O1  1  0.00014345  0.00036920  0.24999187  1
  O  O2  1  0.66675648  0.33334897  0.56867986  1
  O  O3  1  0.33327380  0.66666329  0.43133647  1
  O  O4  1  0.33338385  0.66665029  0.06866222  1
  O  O5  1  0.66658210  0.33333135  0.93132202  1
  O  O6  1  0.16659931  0.83349772  0.58219278  1
  O  O7  1  0.66703900  0.83346858  0.58217002  1
  O  O8  1  0.16657015  0.33295322  0.58218470  1
  O  O9  1  0.83343366  0.16651941  0.41781753  1
  O  O10  1  0.33298213  0.16653448  0.41783795  1
  O  O11  1  0.83346008  0.66705889  0.41782453  1
  O  O12  1  0.83354829  0.16653104  0.08215948  1
  O  O13  1  0.33308220  0.16650325  0.08218860  1
  O  O14  1  0.83359123  0.66705158  0.08217485  1
  O  O15  1  0.16642691  0.83345440  0.91783026  1
  O  O16  1  0.66689245  0.83347922  0.91780301  1
  O  O17  1  0.16637578  0.33294359  0.91781495  1
loop_
_geom_bond_atom_site_label_1
_geom_bond_atom_site_label_2
_geom_bond_distance
_geom_bond_site_symmetry_2
Cr0 O3 1.928825 1_555
Cr0 O2 1.928902 1_555
Cr0 O7 2.026193 1_555
Cr0 O10 2.026242 1_555
Cr0 O11 2.026486 1_555
Cr0 O8 2.026504 1_555
Cr1 O4 1.928788 1_556
Cr1 O5 1.928833 1_565
Cr1 O15 2.026354 1_555
Cr1 O12 2.026366 1_566
Cr1 O13 2.026460 1_566
Cr1 O16 2.026480 1_555
Cr2 O4 1.928637 1_556
Cr2 O5 1.928700 1_555
Cr2 O16 2.026500 1_555
Cr2 O13 2.026537 1_556
Cr2 O14 2.026651 1_556
Cr2 O17 2.026698 1_555
Cr3 O3 1.928648 1_555
Cr3 O2 1.928720 1_455
Cr3 O9 2.026451 1_455
Cr3 O6 2.026499 1_555
Cr3 O8 2.026668 1_555
Cr3 O11 2.026694 1_455
Cr4 O3 1.928791 1_545
Cr4 O2 1.928856 1_555
Cr4 O10 2.026361 1_555
Cr4 O7 2.026396 1_545
Cr4 O6 2.026410 1_545
Cr4 O9 2.026461 1_555
Cr5 O4 1.928827 1_656
Cr5 O5 1.928893 1_555
Cr5 O12 2.026184 1_556
Cr5 O15 2.026203 1_655
Cr5 O17 2.026461 1_655
Cr5 O14 2.026527 1_556
Ge0 O0 1.758383 1_455
Ge0 O6 1.767175 1_555
Ge0 O7 1.767211 1_455
Ge0 O8 1.767248 1_565
Ge1 O1 1.758420 1_655
Ge1 O9 1.767198 1_555
Ge1 O10 1.767225 1_655
Ge1 O11 1.767264 1_545
Ge2 O1 1.757939 1_555
Ge2 O13 1.767278 1_555
Ge2 O12 1.767303 1_455
Ge2 O14 1.767353 1_445
Ge3 O0 1.757912 1_555
Ge3 O16 1.767274 1_555
Ge3 O15 1.767282 1_655
Ge3 O17 1.767335 1_665
O0 Rb0 3.365334 1_655
O0 Rb0 3.365549 1_555
O0 Rb0 3.367467 1_665
O1 Rb1 3.365266 1_455
O1 Rb1 3.365635 1_555
O1 Rb1 3.367448 1_445
O6 Rb0 2.852229 1_555
O7 Rb0 2.853577 1_555
O8 Rb0 2.852661 1_555
O9 Rb1 2.852395 1_555
O10 Rb1 2.853624 1_555
O11 Rb1 2.852774 1_555
O12 Rb1 2.853702 1_555
O13 Rb1 2.852334 1_555
O14 Rb1 2.852803 1_555
O15 Rb0 2.853615 1_555
O16 Rb0 2.852144 1_555
O17 Rb0 2.852731 1_555
