# generated using pymatgen
data_Sc6Te2Rh
_symmetry_space_group_name_H-M   'P 1'
_cell_length_a   7.78747728
_cell_length_b   7.78753396
_cell_length_c   3.80242290
_cell_angle_alpha   90.00000000
_cell_angle_beta   90.00000000
_cell_angle_gamma   120.00024891
_symmetry_Int_Tables_number   1
_chemical_formula_structural   Sc6Te2Rh
_chemical_formula_sum   'Sc6 Te2 Rh1'
_cell_volume   199.70397328
_cell_formula_units_Z   1
loop_
 _symmetry_equiv_pos_site_id
 _symmetry_equiv_pos_as_xyz
  1  'x, y, z'
loop_
 _atom_site_type_symbol
 _atom_site_label
 _atom_site_symmetry_multiplicity
 _atom_site_fract_x
 _atom_site_fract_y
 _atom_site_fract_z
 _atom_site_occupancy
  Sc  Sc0  1  0.24053524  0.00000065  0.00000000  1
  Sc  Sc1  1  0.75946476  0.75946641  0.00000000  1
  Sc  Sc2  1  -0.00000000  0.24053456  0.00000000  1
  Sc  Sc3  1  0.60881838  -0.00000042  0.50000000  1
  Sc  Sc4  1  0.39118162  0.39118120  0.50000000  1
  Sc  Sc5  1  -0.00000000  0.60881563  0.50000000  1
  Te  Te0  1  0.66666722  0.33333405  0.00000000  1
  Te  Te1  1  0.33333278  0.66666783  0.00000000  1
  Rh  Rh0  1  -0.00000000  0.00000009  0.50000000  1
loop_
_geom_bond_atom_site_label_1
_geom_bond_atom_site_label_2
_geom_bond_distance
_geom_bond_site_symmetry_2
Sc0 Te0 3.022656 1_555
Sc0 Te1 3.022672 1_545
Sc1 Te1 3.022656 1_555
Sc1 Te0 3.022687 1_555
Sc2 Te0 3.022667 1_455
Sc2 Te1 3.022672 1_555
Sc3 Te1 3.063731 1_546
Sc3 Te1 3.063731 1_545
Sc3 Te0 3.063752 1_555
Sc3 Te0 3.063752 1_556
Sc4 Te0 3.063735 1_555
Sc4 Te0 3.063735 1_556
Sc4 Te1 3.063758 1_555
Sc4 Te1 3.063758 1_556
Sc5 Te1 3.063719 1_555
Sc5 Te1 3.063719 1_556
Sc5 Te0 3.063721 1_455
Sc5 Te0 3.063721 1_456
Rh0 Sc1 2.668955 1_446
Rh0 Sc1 2.668955 1_445
Rh0 Sc0 2.668958 1_555
Rh0 Sc0 2.668958 1_556
Rh0 Sc2 2.668965 1_556
Rh0 Sc2 2.668965 1_555
Rh0 Sc4 3.046316 1_555
Rh0 Sc3 3.046316 1_455
Rh0 Sc5 3.046362 1_545
