# generated using pymatgen
data_Zr10AlSb5C2
_symmetry_space_group_name_H-M   'P 1'
_cell_length_a   8.41457903
_cell_length_b   8.41457863
_cell_length_c   5.80514282
_cell_angle_alpha   90.00000000
_cell_angle_beta   90.00000000
_cell_angle_gamma   120.38833888
_symmetry_Int_Tables_number   1
_chemical_formula_structural   Zr10AlSb5C2
_chemical_formula_sum   'Zr10 Al1 Sb5 C2'
_cell_volume   354.56471013
_cell_formula_units_Z   1
loop_
 _symmetry_equiv_pos_site_id
 _symmetry_equiv_pos_as_xyz
  1  'x, y, z'
loop_
 _atom_site_type_symbol
 _atom_site_label
 _atom_site_symmetry_multiplicity
 _atom_site_fract_x
 _atom_site_fract_y
 _atom_site_fract_z
 _atom_site_occupancy
  Zr  Zr0  1  0.66518806  0.33428520  0.49765341  1
  Zr  Zr1  1  0.33428520  0.66518806  0.49765341  1
  Zr  Zr2  1  0.33428520  0.66518806  0.00234659  1
  Zr  Zr3  1  0.66518806  0.33428520  0.00234659  1
  Zr  Zr4  1  0.77318177  0.77318177  0.25000000  1
  Zr  Zr5  1  0.22442380  0.00709494  0.25000000  1
  Zr  Zr6  1  0.00709494  0.22442380  0.25000000  1
  Zr  Zr7  1  0.22335059  0.22335059  0.75000000  1
  Zr  Zr8  1  0.77829713  0.99838361  0.75000000  1
  Zr  Zr9  1  0.99838361  0.77829713  0.75000000  1
  Al  Al0  1  0.40771446  0.40771446  0.25000000  1
  Sb  Sb0  1  0.59917890  0.00100796  0.25000000  1
  Sb  Sb1  1  0.00100796  0.59917890  0.25000000  1
  Sb  Sb2  1  0.58762769  0.58762769  0.75000000  1
  Sb  Sb3  1  0.40251583  0.99969650  0.75000000  1
  Sb  Sb4  1  0.99969650  0.40251583  0.75000000  1
  C  C0  1  0.99929065  0.99929065  0.50009289  1
  C  C1  1  0.99929065  0.99929065  0.99990711  1
loop_
_geom_bond_atom_site_label_1
_geom_bond_atom_site_label_2
_geom_bond_distance
_geom_bond_site_symmetry_2
Al0 Zr5 2.912481 1_555
Al0 Zr6 2.912482 1_555
Al0 Zr1 2.914934 1_555
Al0 Zr2 2.914934 1_555
Al0 Zr0 2.914934 1_555
Al0 Zr3 2.914934 1_555
Al0 Zr4 3.057185 1_555
Al0 Sb2 3.269548 1_555
Al0 Sb2 3.269548 1_554
Al0 Zr7 3.286851 1_555
Al0 Zr7 3.286851 1_554
Sb0 Zr1 2.940722 1_545
Sb0 Zr2 2.940722 1_545
Sb0 Zr4 2.942561 1_545
Sb0 Zr0 2.943478 1_555
Sb0 Zr3 2.943478 1_555
Sb0 Zr6 2.964363 1_655
Sb0 Zr5 3.179623 1_555
Sb0 Zr8 3.275782 1_544
Sb0 Zr8 3.275782 1_545
Sb1 Zr0 2.940723 1_455
Sb1 Zr3 2.940723 1_455
Sb1 Zr4 2.942561 1_455
Sb1 Zr1 2.943478 1_555
Sb1 Zr2 2.943478 1_555
Sb1 Zr5 2.964362 1_565
Sb1 Zr6 3.179623 1_555
Sb1 Zr9 3.275782 1_455
Sb1 Zr9 3.275782 1_454
Sb2 Zr3 2.919574 1_556
Sb2 Zr0 2.919574 1_555
Sb2 Zr2 2.919574 1_556
Sb2 Zr1 2.919574 1_555
Sb2 Zr8 2.984971 1_555
Sb2 Zr9 2.984971 1_555
Sb2 Zr7 3.047229 1_555
Sb2 Zr4 3.291535 1_555
Sb2 Zr4 3.291535 1_556
Sb3 Zr9 2.936888 1_455
Sb3 Zr3 2.943146 1_566
Sb3 Zr0 2.943146 1_565
Sb3 Zr7 2.947048 1_565
Sb3 Zr2 2.960307 1_556
Sb3 Zr1 2.960307 1_555
Sb3 Zr8 3.167644 1_555
Sb3 Zr5 3.281599 1_566
Sb3 Zr5 3.281599 1_565
Sb4 Zr8 2.936888 1_545
Sb4 Zr2 2.943146 1_656
Sb4 Zr1 2.943146 1_655
Sb4 Zr7 2.947048 1_655
Sb4 Zr3 2.960307 1_556
Sb4 Zr0 2.960307 1_555
Sb4 Zr9 3.167644 1_555
Sb4 Zr6 3.281599 1_655
Sb4 Zr6 3.281599 1_656
C0 Zr9 2.355495 1_555
C0 Zr8 2.355495 1_555
C0 Zr6 2.361144 1_665
C0 Zr5 2.361144 1_665
C0 Zr7 2.370156 1_665
C0 Zr4 2.384389 1_555
C1 Zr9 2.355495 1_555
C1 Zr8 2.355495 1_555
C1 Zr6 2.361144 1_666
C1 Zr5 2.361144 1_666
C1 Zr7 2.370156 1_665
C1 Zr4 2.384389 1_556
