# generated using pymatgen
data_Ba4Si6AgHg
_symmetry_space_group_name_H-M   'P 1'
_cell_length_a   12.60095559
_cell_length_b   11.03621334
_cell_length_c   8.59979198
_cell_angle_alpha   78.76888260
_cell_angle_beta   59.21020627
_cell_angle_gamma   42.02091187
_symmetry_Int_Tables_number   1
_chemical_formula_structural   Ba4Si6AgHg
_chemical_formula_sum   'Ba8 Si12 Ag2 Hg2'
_cell_volume   650.95789339
_cell_formula_units_Z   2
loop_
 _symmetry_equiv_pos_site_id
 _symmetry_equiv_pos_as_xyz
  1  'x, y, z'
loop_
 _atom_site_type_symbol
 _atom_site_label
 _atom_site_symmetry_multiplicity
 _atom_site_fract_x
 _atom_site_fract_y
 _atom_site_fract_z
 _atom_site_occupancy
  Ba  Ba0  1  0.12787247  0.12108729  0.87405036  1
  Ba  Ba1  1  0.87405136  0.87698989  0.12787147  1
  Ba  Ba2  1  0.12891371  0.12212853  0.37301011  1
  Ba  Ba3  1  0.37301111  0.37594964  0.12891271  1
  Ba  Ba4  1  0.62199589  0.62409455  0.37673395  1
  Ba  Ba5  1  0.37673395  0.37717560  0.62199589  1
  Ba  Ba6  1  0.62590645  0.62800411  0.87282440  1
  Ba  Ba7  1  0.87282540  0.87326705  0.62590545  1
  Si  Si0  1  0.90915722  0.59437024  0.43315786  1
  Si  Si1  1  0.07151488  0.42202250  0.59100757  1
  Si  Si2  1  0.43315786  0.06331569  0.90915722  1
  Si  Si3  1  0.59100757  0.91545505  0.07151488  1
  Si  Si4  1  0.33454495  0.65899243  0.82797750  1
  Si  Si5  1  0.65562976  0.34084278  0.18668431  1
  Si  Si6  1  0.82797750  0.17848512  0.33454495  1
  Si  Si7  1  0.18668431  0.81684214  0.65562976  1
  Si  Si8  1  0.90761647  0.59238453  0.90761547  1
  Si  Si9  1  0.58721547  0.91278553  0.58721447  1
  Si  Si10  1  0.33721547  0.66278553  0.33721547  1
  Si  Si11  1  0.65761547  0.34238453  0.65761547  1
  Ag  Ag0  1  0.16693122  0.83306878  0.16693122  1
  Ag  Ag1  1  0.41693122  0.08306878  0.41693122  1
  Hg  Hg0  1  0.08274763  0.41725237  0.08274763  1
  Hg  Hg1  1  0.83274763  0.16725237  0.83274763  1
loop_
_geom_bond_atom_site_label_1
_geom_bond_atom_site_label_2
_geom_bond_distance
_geom_bond_site_symmetry_2
Ba0 Si6 3.530436 1_456
Ba0 Si1 3.546235 1_555
Ba0 Hg1 3.561221 1_455
Ba0 Si7 3.561770 1_545
Ba0 Si9 3.562801 1_545
Ba0 Hg0 3.564645 1_556
Ba0 Si2 3.572959 1_555
Ba0 Si4 3.597836 1_545
Ba0 Si8 3.627110 1_455
Ba0 Si5 3.638504 1_456
Ba1 Si4 3.530427 1_654
Ba1 Si3 3.546242 1_555
Ba1 Hg1 3.561214 1_564
Ba1 Si5 3.561756 1_565
Ba1 Si9 3.562797 1_555
Ba1 Hg0 3.564650 1_655
Ba1 Si0 3.572959 1_555
Ba1 Si6 3.597832 1_565
Ba1 Si8 3.627101 1_554
Ba1 Si7 3.638489 1_654
Ba2 Si1 3.530417 1_555
Ba2 Si6 3.546255 1_455
Ba2 Hg0 3.561212 1_555
Ba2 Si2 3.561756 1_554
Ba2 Si10 3.562801 1_545
Ba2 Hg1 3.564655 1_455
Ba2 Si7 3.572963 1_545
Ba2 Si3 3.597822 1_545
Ba2 Si11 3.627121 1_455
Ba2 Si0 3.638489 1_455
Ba3 Si3 3.530441 1_545
Ba3 Si4 3.546234 1_554
Ba3 Hg0 3.561234 1_555
Ba3 Si0 3.561770 1_455
Ba3 Si10 3.562797 1_555
Ba3 Hg1 3.564636 1_554
Ba3 Si5 3.572934 1_555
Ba3 Si1 3.597841 1_555
Ba3 Si11 3.627102 1_554
Ba3 Si2 3.638504 1_554
Ba4 Si7 3.398203 1_555
Ba4 Si11 3.437064 1_555
Ba4 Si6 3.437886 1_555
Ba4 Si5 3.454768 1_555
Ba4 Si10 3.477145 1_555
Ba4 Si4 3.527954 1_555
Ba4 Hg0 3.583281 1_655
Ba4 Si9 3.602646 1_555
Ba4 Si8 3.628368 1_554
Ba4 Si3 3.643861 1_555
Ba4 Si0 3.661767 1_555
Ba5 Si5 3.398198 1_555
Ba5 Si11 3.437064 1_555
Ba5 Si4 3.437886 1_555
Ba5 Si7 3.454758 1_555
Ba5 Si10 3.477160 1_555
Ba5 Si6 3.527954 1_555
Ba5 Hg0 3.583281 1_556
Ba5 Si9 3.602631 1_545
Ba5 Si8 3.628354 1_455
Ba5 Si1 3.643861 1_555
Ba5 Si2 3.661760 1_555
Ba6 Si2 3.398198 1_565
Ba6 Si8 3.437064 1_555
Ba6 Si1 3.437876 1_655
Ba6 Si0 3.454758 1_555
Ba6 Si9 3.477163 1_555
Ba6 Si3 3.527944 1_556
Ba6 Hg1 3.583286 1_555
Ba6 Si10 3.602641 1_556
Ba6 Si11 3.628374 1_555
Ba6 Si4 3.643873 1_555
Ba6 Si5 3.661764 1_556
Ba7 Si0 3.398213 1_555
Ba7 Si8 3.437071 1_555
Ba7 Si3 3.437895 1_556
Ba7 Si2 3.454773 1_565
Ba7 Si9 3.477170 1_555
Ba7 Si1 3.527968 1_655
Ba7 Hg1 3.583261 1_565
Ba7 Si10 3.602631 1_655
Ba7 Si11 3.628350 1_565
Ba7 Si6 3.643851 1_565
Ba7 Si7 3.661735 1_655
Si0 Si9 2.385625 1_555
Si0 Si1 2.387848 1_655
Si1 Si8 2.383587 1_455
Si2 Si9 2.385629 1_545
Si2 Si3 2.387847 1_546
Si3 Si8 2.383586 1_554
Si4 Si7 2.387855 1_555
Si5 Si6 2.387855 1_555
Si10 Si7 2.385613 1_555
Si10 Si5 2.385625 1_555
Si11 Si6 2.383583 1_555
Si11 Si4 2.383583 1_555
Ag0 Si10 2.536521 1_555
Ag0 Si4 2.549137 1_554
Ag0 Si6 2.549138 1_465
Ag0 Ba1 3.537775 1_455
Ag0 Ba0 3.537782 1_564
Ag0 Ba3 3.550980 1_555
Ag0 Ba2 3.551005 1_565
Ag0 Ba7 3.574113 1_455
Ag0 Ba6 3.574133 1_554
Ag1 Si9 2.536514 1_545
Ag1 Si3 2.549137 1_545
Ag1 Si1 2.549138 1_555
Ag1 Ba2 3.537763 1_555
Ag1 Ba3 3.537784 1_555
Ag1 Ba0 3.550985 1_555
Ag1 Ba1 3.550995 1_545
Ag1 Ba5 3.574123 1_555
Ag1 Ba4 3.574123 1_545
Hg0 Si8 2.608727 1_454
Hg0 Si2 2.622928 1_554
Hg0 Si0 2.622932 1_455
Hg1 Si11 2.608735 1_555
Hg1 Si5 2.622924 1_556
Hg1 Si7 2.622928 1_645
