# generated using pymatgen
data_Co2CuO4
_symmetry_space_group_name_H-M   'P 1'
_cell_length_a   5.86499962
_cell_length_b   5.86499962
_cell_length_c   5.86499962
_cell_angle_alpha   60.00000000
_cell_angle_beta   60.00000000
_cell_angle_gamma   60.00000000
_symmetry_Int_Tables_number   1
_chemical_formula_structural   Co2CuO4
_chemical_formula_sum   'Co4 Cu2 O8'
_cell_volume   142.65564646
_cell_formula_units_Z   2
loop_
 _symmetry_equiv_pos_site_id
 _symmetry_equiv_pos_as_xyz
  1  'x, y, z'
loop_
 _atom_site_type_symbol
 _atom_site_label
 _atom_site_symmetry_multiplicity
 _atom_site_fract_x
 _atom_site_fract_y
 _atom_site_fract_z
 _atom_site_occupancy
  Co  Co0  1  0.62500000  0.12500000  0.62500000  1
  Co  Co1  1  0.62500000  0.62500000  0.12500000  1
  Co  Co2  1  0.12500000  0.62500000  0.62500000  1
  Co  Co3  1  0.62500000  0.62500000  0.62500000  1
  Cu  Cu0  1  0.00000000  0.00000000  0.00000000  1
  Cu  Cu1  1  0.25000000  0.25000000  0.25000000  1
  O  O0  1  0.38608300  0.38608300  0.38608300  1
  O  O1  1  0.84175200  0.38608300  0.38608300  1
  O  O2  1  0.38608300  0.38608300  0.84175200  1
  O  O3  1  0.38608300  0.84175200  0.38608300  1
  O  O4  1  0.86391700  0.40824800  0.86391700  1
  O  O5  1  0.86391700  0.86391700  0.40824800  1
  O  O6  1  0.40824800  0.86391700  0.86391700  1
  O  O7  1  0.86391700  0.86391700  0.86391700  1
loop_
_geom_bond_atom_site_label_1
_geom_bond_atom_site_label_2
_geom_bond_distance
_geom_bond_site_symmetry_2
Co0 O7 1.985924 1_545
Co0 O0 1.985924 1_555
Co0 O1 1.985928 1_555
Co0 O2 1.985928 1_555
Co0 O5 1.985928 1_545
Co0 O6 1.985928 1_545
Co1 O7 1.985924 1_554
Co1 O0 1.985924 1_555
Co1 O1 1.985928 1_555
Co1 O3 1.985928 1_555
Co1 O6 1.985928 1_554
Co1 O4 1.985928 1_554
Co2 O7 1.985924 1_455
Co2 O0 1.985924 1_555
Co2 O2 1.985928 1_555
Co2 O3 1.985928 1_555
Co2 O4 1.985928 1_455
Co2 O5 1.985928 1_455
Co3 O4 1.985923 1_555
Co3 O5 1.985923 1_555
Co3 O6 1.985923 1_555
Co3 O2 1.985923 1_555
Co3 O3 1.985923 1_555
Co3 O1 1.985923 1_555
Cu0 O6 1.954998 1_544
Cu0 O4 1.954998 1_454
Cu0 O5 1.954998 1_445
Cu0 O7 1.955003 1_444
Cu1 O1 1.954998 1_455
Cu1 O2 1.954998 1_554
Cu1 O3 1.954998 1_545
Cu1 O0 1.955003 1_555
