# generated using pymatgen
data_Tl4Te3Mo
_symmetry_space_group_name_H-M   'P 1'
_cell_length_a   9.06800182
_cell_length_b   9.06800182
_cell_length_c   9.06800182
_cell_angle_alpha   123.24474774
_cell_angle_beta   123.24474774
_cell_angle_gamma   84.46618907
_symmetry_Int_Tables_number   1
_chemical_formula_structural   Tl4Te3Mo
_chemical_formula_sum   'Tl8 Te6 Mo2'
_cell_volume   498.85137274
_cell_formula_units_Z   2
loop_
 _symmetry_equiv_pos_site_id
 _symmetry_equiv_pos_as_xyz
  1  'x, y, z'
loop_
 _atom_site_type_symbol
 _atom_site_label
 _atom_site_symmetry_multiplicity
 _atom_site_fract_x
 _atom_site_fract_y
 _atom_site_fract_z
 _atom_site_occupancy
  Tl  Tl0  1  0.19407200  0.69407200  0.21094000  1
  Tl  Tl1  1  0.98313200  0.19407200  0.50000000  1
  Tl  Tl2  1  0.69407200  0.48313200  0.50000000  1
  Tl  Tl3  1  0.51686800  0.01686800  0.21094000  1
  Tl  Tl4  1  0.48313200  0.98313200  0.78906000  1
  Tl  Tl5  1  0.30592800  0.51686800  0.50000000  1
  Tl  Tl6  1  0.01686800  0.80592800  0.50000000  1
  Tl  Tl7  1  0.80592800  0.30592800  0.78906000  1
  Te  Te0  1  0.82748500  0.32748500  0.15497000  1
  Te  Te1  1  0.25000000  0.25000000  0.00000000  1
  Te  Te2  1  0.67251500  0.82748500  0.50000000  1
  Te  Te3  1  0.32748500  0.17251500  0.50000000  1
  Te  Te4  1  0.75000000  0.75000000  0.00000000  1
  Te  Te5  1  0.17251500  0.67251500  0.84503000  1
  Mo  Mo0  1  0.50000000  0.50000000  0.00000000  1
  Mo  Mo1  1  0.00000000  0.00000000  0.00000000  1
loop_
_geom_bond_atom_site_label_1
_geom_bond_atom_site_label_2
_geom_bond_distance
_geom_bond_site_symmetry_2
Te0 Tl4 3.109836 1_544
Te0 Tl7 3.109836 1_554
Te0 Tl1 3.496236 1_555
Te0 Tl2 3.496236 1_555
Te0 Tl6 3.496236 1_655
Te0 Tl5 3.496236 1_655
Te1 Tl4 3.515099 1_544
Te1 Tl7 3.515099 1_454
Te1 Tl1 3.515099 1_454
Te1 Tl6 3.515099 1_544
Te1 Tl5 3.515099 1_555
Te1 Tl2 3.515099 1_555
Te1 Tl0 3.515099 1_555
Te1 Tl3 3.515099 1_555
Te2 Tl6 3.109836 1_655
Te2 Tl2 3.109836 1_555
Te2 Tl0 3.496236 1_555
Te2 Tl3 3.496236 1_565
Te2 Tl4 3.496236 1_555
Te2 Tl7 3.496236 1_565
Te3 Tl1 3.109836 1_455
Te3 Tl5 3.109836 1_555
Te3 Tl0 3.496236 1_545
Te3 Tl4 3.496236 1_545
Te3 Tl3 3.496236 1_555
Te3 Tl7 3.496236 1_555
Te4 Tl3 3.515099 1_565
Te4 Tl4 3.515099 1_554
Te4 Tl5 3.515099 1_554
Te4 Tl0 3.515099 1_655
Te4 Tl7 3.515099 1_554
Te4 Tl6 3.515099 1_655
Te4 Tl1 3.515099 1_565
Te4 Tl2 3.515099 1_554
Te5 Tl3 3.109836 1_566
Te5 Tl0 3.109836 1_556
Te5 Tl6 3.496236 1_555
Te5 Tl1 3.496236 1_455
Te5 Tl2 3.496236 1_455
Te5 Tl5 3.496236 1_555
Mo0 Te2 3.190542 1_555
Mo0 Te3 3.190542 1_554
Mo0 Te5 3.190542 1_554
Mo0 Te0 3.190542 1_555
Mo0 Te1 3.357049 1_555
Mo0 Te4 3.357049 1_555
Mo1 Te2 3.190542 1_444
Mo1 Te3 3.190542 1_555
Mo1 Te5 3.190542 1_544
Mo1 Te0 3.190542 1_455
Mo1 Te1 3.357049 1_555
Mo1 Te4 3.357049 1_445
