# generated using pymatgen
data_Zr2Al3Ag
_symmetry_space_group_name_H-M   'P 1'
_cell_length_a   5.28716293
_cell_length_b   5.28716218
_cell_length_c   5.28716236
_cell_angle_alpha   61.02298041
_cell_angle_beta   61.02298607
_cell_angle_gamma   61.02297939
_symmetry_Int_Tables_number   1
_chemical_formula_structural   Zr2Al3Ag
_chemical_formula_sum   'Zr2 Al3 Ag1'
_cell_volume   106.91660164
_cell_formula_units_Z   1
loop_
 _symmetry_equiv_pos_site_id
 _symmetry_equiv_pos_as_xyz
  1  'x, y, z'
loop_
 _atom_site_type_symbol
 _atom_site_label
 _atom_site_symmetry_multiplicity
 _atom_site_fract_x
 _atom_site_fract_y
 _atom_site_fract_z
 _atom_site_occupancy
  Zr  Zr0  1  0.12352044  0.12352044  0.12352044  1
  Zr  Zr1  1  0.87647956  0.87647956  0.87647956  1
  Al  Al0  1  0.00000000  0.50000000  0.50000000  1
  Al  Al1  1  0.50000000  0.50000000  0.00000000  1
  Al  Al2  1  0.50000000  0.00000000  0.50000000  1
  Ag  Ag0  1  0.50000000  0.50000000  0.50000000  1
loop_
_geom_bond_atom_site_label_1
_geom_bond_atom_site_label_2
_geom_bond_distance
_geom_bond_site_symmetry_2
Zr0 Zr1 3.174431 1_444
Zr0 Zr1 3.291988 1_454
Zr0 Zr1 3.291988 1_445
Zr0 Zr1 3.291989 1_544
Al0 Al2 2.684351 1_555
Al0 Al2 2.684351 1_465
Al0 Al1 2.684352 1_555
Al0 Al1 2.684352 1_456
Al0 Zr1 3.109765 1_455
Al0 Zr0 3.109765 1_555
Al0 Zr0 3.118492 1_556
Al0 Zr1 3.118492 1_454
Al0 Zr0 3.118492 1_565
Al0 Zr1 3.118492 1_445
Al1 Al2 2.684351 1_564
Al1 Al2 2.684351 1_555
Al1 Zr1 3.109766 1_554
Al1 Zr0 3.109766 1_555
Al1 Zr0 3.118492 1_565
Al1 Zr1 3.118492 1_544
Al1 Zr0 3.118493 1_655
Al1 Zr1 3.118493 1_454
Al2 Zr1 3.109766 1_545
Al2 Zr0 3.109766 1_555
Al2 Zr0 3.118493 1_556
Al2 Zr1 3.118493 1_544
Al2 Zr0 3.118493 1_655
Al2 Zr1 3.118493 1_445
Ag0 Al2 2.643581 1_565
Ag0 Al2 2.643581 1_555
Ag0 Al1 2.643581 1_556
Ag0 Al1 2.643581 1_555
Ag0 Al0 2.643581 1_555
Ag0 Al0 2.643581 1_655
Ag0 Zr1 3.148815 1_545
Ag0 Zr0 3.148815 1_565
Ag0 Zr1 3.148816 1_554
Ag0 Zr0 3.148816 1_556
Ag0 Zr1 3.148816 1_455
Ag0 Zr0 3.148816 1_655
