# generated using pymatgen
data_Mn2SnO4
_symmetry_space_group_name_H-M   'P 1'
_cell_length_a   6.30655998
_cell_length_b   6.20971776
_cell_length_c   6.30656057
_cell_angle_alpha   60.50668040
_cell_angle_beta   60.22951315
_cell_angle_gamma   60.50668150
_symmetry_Int_Tables_number   1
_chemical_formula_structural   Mn2SnO4
_chemical_formula_sum   'Mn4 Sn2 O8'
_cell_volume   176.27263347
_cell_formula_units_Z   2
loop_
 _symmetry_equiv_pos_site_id
 _symmetry_equiv_pos_as_xyz
  1  'x, y, z'
loop_
 _atom_site_type_symbol
 _atom_site_label
 _atom_site_symmetry_multiplicity
 _atom_site_fract_x
 _atom_site_fract_y
 _atom_site_fract_z
 _atom_site_occupancy
  Mn  Mn0  1  0.01361065  0.98638935  0.01361065  1
  Mn  Mn1  1  0.23638935  0.26361065  0.23638935  1
  Mn  Mn2  1  0.62500000  0.12500000  0.62500000  1
  Mn  Mn3  1  0.62500000  0.62500000  0.62500000  1
  Sn  Sn0  1  0.12500000  0.62500000  0.62500000  1
  Sn  Sn1  1  0.62500000  0.62500000  0.12500000  1
  O  O0  1  0.37556511  0.39801884  0.37556511  1
  O  O1  1  0.37556511  0.85085194  0.37556511  1
  O  O2  1  0.36753131  0.39713115  0.83820739  1
  O  O3  1  0.83820739  0.39713115  0.36753131  1
  O  O4  1  0.41179261  0.85286885  0.88246869  1
  O  O5  1  0.88246869  0.85286885  0.41179261  1
  O  O6  1  0.87443489  0.39914806  0.87443489  1
  O  O7  1  0.87443489  0.85198116  0.87443489  1
loop_
_geom_bond_atom_site_label_1
_geom_bond_atom_site_label_2
_geom_bond_distance
_geom_bond_site_symmetry_2
Mn0 O4 2.059139 1_554
Mn0 O5 2.059139 1_455
Mn0 O6 2.108336 1_464
Mn0 O7 2.108341 1_454
Mn1 O3 2.059139 1_455
Mn1 O2 2.059139 1_554
Mn1 O1 2.108336 1_545
Mn1 O0 2.108341 1_555
Mn2 O4 2.160448 1_545
Mn2 O3 2.160448 1_555
Mn2 O2 2.160448 1_555
Mn2 O5 2.160448 1_545
Mn2 O7 2.242501 1_545
Mn2 O0 2.242501 1_555
Mn3 O2 2.160443 1_555
Mn3 O5 2.160443 1_555
Mn3 O4 2.160444 1_555
Mn3 O3 2.160444 1_555
Mn3 O1 2.242501 1_555
Mn3 O6 2.242501 1_555
O0 Sn1 2.116569 1_555
O0 Sn0 2.116569 1_555
O1 Sn0 2.116573 1_555
O1 Sn1 2.116573 1_555
O2 Sn0 2.046351 1_555
O3 Sn1 2.046351 1_555
O4 Sn1 2.046351 1_556
O5 Sn0 2.046351 1_655
O6 Sn0 2.116573 1_655
O6 Sn1 2.116573 1_556
O7 Sn1 2.116569 1_556
O7 Sn0 2.116569 1_655
