# generated using pymatgen
data_RbYSiS4
_symmetry_space_group_name_H-M   'P 1'
_cell_length_a   6.66180104
_cell_length_b   6.40042302
_cell_length_c   8.94001285
_cell_angle_alpha   72.08856927
_cell_angle_beta   90.00000000
_cell_angle_gamma   90.00000000
_symmetry_Int_Tables_number   1
_chemical_formula_structural   RbYSiS4
_chemical_formula_sum   'Rb2 Y2 Si2 S8'
_cell_volume   362.71236764
_cell_formula_units_Z   2
loop_
 _symmetry_equiv_pos_site_id
 _symmetry_equiv_pos_as_xyz
  1  'x, y, z'
loop_
 _atom_site_type_symbol
 _atom_site_label
 _atom_site_symmetry_multiplicity
 _atom_site_fract_x
 _atom_site_fract_y
 _atom_site_fract_z
 _atom_site_occupancy
  Rb  Rb0  1  0.97561147  0.72970563  0.06462764  1
  Rb  Rb1  1  0.47561147  0.27029437  0.93537236  1
  Y  Y0  1  0.50016135  0.23033273  0.45221045  1
  Y  Y1  1  0.00016135  0.76966727  0.54778955  1
  Si  Si0  1  0.46195615  0.78173991  0.33073737  1
  Si  Si1  1  0.96195615  0.21826009  0.66926263  1
  S  S0  1  0.46559814  0.58620848  0.18045191  1
  S  S1  1  0.23070048  0.02177804  0.28641454  1
  S  S2  1  0.72551524  0.97814933  0.30659290  1
  S  S3  1  0.90745816  0.42087465  0.43625270  1
  S  S4  1  0.40745816  0.57912535  0.56374730  1
  S  S5  1  0.22551524  0.02185067  0.69340710  1
  S  S6  1  0.73070048  0.97822196  0.71358546  1
  S  S7  1  0.96559814  0.41379152  0.81954809  1
loop_
_geom_bond_atom_site_label_1
_geom_bond_atom_site_label_2
_geom_bond_distance
_geom_bond_site_symmetry_2
Rb0 S3 3.333438 1_555
Rb0 S7 3.408577 1_554
Rb0 S6 3.459856 1_554
Rb0 S0 3.462041 1_655
Rb0 S2 3.478435 1_555
Rb0 S1 3.548761 1_665
Rb0 S0 3.588106 1_555
Rb0 S5 3.669448 1_664
Rb1 S4 3.333438 1_555
Rb1 S0 3.408577 1_556
Rb1 S1 3.459856 1_556
Rb1 S7 3.462041 1_555
Rb1 S5 3.478435 1_555
Rb1 S6 3.548761 1_545
Rb1 S7 3.588106 1_455
Rb1 S2 3.669448 1_546
S0 Si0 2.099090 1_555
S0 Y0 2.782074 1_555
S1 Si0 2.125159 1_545
S1 Y1 2.846643 1_545
S1 Y0 2.901396 1_555
S2 Si0 2.131374 1_555
S2 Y0 2.801116 1_565
S2 Y1 2.829832 1_655
S3 Si1 2.119264 1_555
S3 Y1 2.780037 1_655
S3 Y0 2.960202 1_555
S4 Si0 2.119264 1_555
S4 Y0 2.780037 1_555
S4 Y1 2.960202 1_555
S5 Si1 2.131374 1_455
S5 Y1 2.801116 1_545
S5 Y0 2.829832 1_555
S6 Si1 2.125159 1_565
S6 Y0 2.846643 1_565
S6 Y1 2.901396 1_655
S7 Si1 2.099090 1_555
S7 Y1 2.782074 1_655
