# generated using pymatgen
data_Zr6Zn19Pt4Se
_symmetry_space_group_name_H-M   'P 1'
_cell_length_a   8.72506191
_cell_length_b   8.72505979
_cell_length_c   8.72506102
_cell_angle_alpha   59.99727735
_cell_angle_beta   59.99728792
_cell_angle_gamma   59.99727543
_symmetry_Int_Tables_number   1
_chemical_formula_structural   Zr6Zn19Pt4Se
_chemical_formula_sum   'Zr6 Zn19 Pt4 Se1'
_cell_volume   469.63842433
_cell_formula_units_Z   1
loop_
 _symmetry_equiv_pos_site_id
 _symmetry_equiv_pos_as_xyz
  1  'x, y, z'
loop_
 _atom_site_type_symbol
 _atom_site_label
 _atom_site_symmetry_multiplicity
 _atom_site_fract_x
 _atom_site_fract_y
 _atom_site_fract_z
 _atom_site_occupancy
  Zr  Zr0  1  0.70979503  0.28759673  0.28759673  1
  Zr  Zr1  1  0.29020497  0.71240327  0.71240327  1
  Zr  Zr2  1  0.28759673  0.70979503  0.28759673  1
  Zr  Zr3  1  0.71240327  0.29020497  0.71240327  1
  Zr  Zr4  1  0.28759673  0.28759673  0.70979503  1
  Zr  Zr5  1  0.71240327  0.71240327  0.29020497  1
  Zn  Zn0  1  0.12148885  0.12148885  0.12148885  1
  Zn  Zn1  1  0.87851115  0.87851115  0.87851115  1
  Zn  Zn2  1  0.12333881  0.12333881  0.63200767  1
  Zn  Zn3  1  0.12333881  0.63200767  0.12333881  1
  Zn  Zn4  1  0.87666119  0.87666119  0.36799233  1
  Zn  Zn5  1  0.87666119  0.36799233  0.87666119  1
  Zn  Zn6  1  0.63200767  0.12333881  0.12333881  1
  Zn  Zn7  1  0.36799233  0.87666119  0.87666119  1
  Zn  Zn8  1  0.50000000  0.00000000  0.00000000  1
  Zn  Zn9  1  0.00000000  0.50000000  0.00000000  1
  Zn  Zn10  1  0.00000000  0.00000000  0.50000000  1
  Zn  Zn11  1  0.33502653  0.33502653  0.33502653  1
  Zn  Zn12  1  0.66497347  0.66497347  0.66497347  1
  Zn  Zn13  1  0.33327376  0.33327376  0.99477828  1
  Zn  Zn14  1  0.33327376  0.99477828  0.33327376  1
  Zn  Zn15  1  0.66672624  0.66672624  0.00522172  1
  Zn  Zn16  1  0.66672624  0.00522172  0.66672624  1
  Zn  Zn17  1  0.99477828  0.33327376  0.33327376  1
  Zn  Zn18  1  0.00522172  0.66672624  0.66672624  1
  Pt  Pt0  1  0.00000000  0.50000000  0.50000000  1
  Pt  Pt1  1  0.50000000  0.00000000  0.50000000  1
  Pt  Pt2  1  0.50000000  0.50000000  0.00000000  1
  Pt  Pt3  1  0.00000000  0.00000000  0.00000000  1
  Se  Se0  1  0.50000000  0.50000000  0.50000000  1
loop_
_geom_bond_atom_site_label_1
_geom_bond_atom_site_label_2
_geom_bond_distance
_geom_bond_site_symmetry_2
Zn0 Zn9 2.697345 1_555
Zn0 Zn10 2.697345 1_555
Zn0 Zn8 2.697346 1_555
Zn1 Zn9 2.697345 1_656
Zn1 Zn10 2.697345 1_665
Zn1 Zn8 2.697346 1_566
Zn3 Zn9 2.698156 1_555
Zn5 Zn9 2.698156 1_656
Zn6 Zn8 2.698156 1_555
Zn7 Zn8 2.698156 1_566
Zn8 Zr5 3.135335 1_545
Zn8 Zr4 3.135335 1_554
Zn8 Zr3 3.135335 1_554
Zn8 Zr2 3.135335 1_545
Zn9 Zr5 3.135335 1_455
Zn9 Zr4 3.135335 1_554
Zn9 Zr1 3.135335 1_554
Zn9 Zr0 3.135335 1_455
Zn10 Zn17 2.505422 1_455
Zn10 Zn18 2.505422 1_545
Zn10 Zn14 2.505423 1_545
Zn10 Zn16 2.505423 1_455
Zn10 Zn2 2.698156 1_555
Zn10 Zn4 2.698156 1_445
Zn10 Zr1 3.135335 1_545
Zn10 Zr0 3.135335 1_455
Zn10 Zr3 3.135335 1_455
Zn10 Zr2 3.135335 1_545
Zn13 Zn8 2.505422 1_556
Zn13 Zn9 2.505423 1_556
Zn14 Zn8 2.505423 1_565
Zn15 Zn8 2.505422 1_565
Zn15 Zn9 2.505423 1_655
Zn16 Zn8 2.505423 1_556
Zn17 Zn9 2.505422 1_655
Zn18 Zn9 2.505422 1_556
Pt0 Zn11 2.518865 1_555
Pt0 Zn12 2.518865 1_455
Pt0 Zn18 2.546220 1_555
Pt0 Zn17 2.546220 1_455
Pt0 Zn4 2.683692 1_455
Pt0 Zn2 2.683692 1_555
Pt0 Zn3 2.683692 1_555
Pt0 Zn5 2.683692 1_455
Pt0 Zr4 3.103547 1_555
Pt0 Zr5 3.103547 1_455
Pt0 Zr2 3.103547 1_555
Pt0 Zr3 3.103547 1_455
Pt1 Zn11 2.518864 1_555
Pt1 Zn12 2.518864 1_545
Pt1 Zn16 2.546221 1_555
Pt1 Zn14 2.546221 1_545
Pt1 Zn7 2.683692 1_545
Pt1 Zn6 2.683692 1_555
Pt1 Zn2 2.683693 1_555
Pt1 Zn4 2.683693 1_545
Pt1 Zr4 3.103547 1_555
Pt1 Zr5 3.103547 1_545
Pt1 Zr0 3.103547 1_555
Pt1 Zr1 3.103547 1_545
Pt2 Zn11 2.518865 1_555
Pt2 Zn12 2.518865 1_554
Pt2 Zn13 2.546221 1_554
Pt2 Zn15 2.546221 1_555
Pt2 Zn7 2.683692 1_554
Pt2 Zn6 2.683692 1_555
Pt2 Zn5 2.683693 1_554
Pt2 Zn3 2.683693 1_555
Pt2 Zr0 3.103547 1_555
Pt2 Zr1 3.103547 1_554
Pt2 Zr2 3.103547 1_555
Pt2 Zr3 3.103547 1_554
Pt3 Zn0 2.596507 1_555
Pt3 Zn1 2.596507 1_444
Pt3 Zn5 2.621500 1_454
Pt3 Zn3 2.621500 1_545
Pt3 Zn4 2.621501 1_445
Pt3 Zn2 2.621501 1_554
Pt3 Zn7 2.621501 1_544
Pt3 Zn6 2.621501 1_455
Se0 Zr3 2.620911 1_555
Se0 Zr2 2.620911 1_555
Se0 Zr1 2.620911 1_555
Se0 Zr0 2.620911 1_555
Se0 Zr5 2.620912 1_555
Se0 Zr4 2.620912 1_555
