# generated using pymatgen
data_Ca10Ga5Bi
_symmetry_space_group_name_H-M   'P 1'
_cell_length_a   9.32553078
_cell_length_b   9.32553072
_cell_length_c   9.32553067
_cell_angle_alpha   128.97663429
_cell_angle_beta   128.97663586
_cell_angle_gamma   75.04817230
_symmetry_Int_Tables_number   1
_chemical_formula_structural   Ca10Ga5Bi
_chemical_formula_sum   'Ca10 Ga5 Bi1'
_cell_volume   477.25124882
_cell_formula_units_Z   1
loop_
 _symmetry_equiv_pos_site_id
 _symmetry_equiv_pos_as_xyz
  1  'x, y, z'
loop_
 _atom_site_type_symbol
 _atom_site_label
 _atom_site_symmetry_multiplicity
 _atom_site_fract_x
 _atom_site_fract_y
 _atom_site_fract_z
 _atom_site_occupancy
  Ca  Ca0  1  0.49546606  0.49546606  0.00000000  1
  Ca  Ca1  1  0.00453394  0.00453394  0.00000000  1
  Ca  Ca2  1  0.54318125  0.03116179  0.85295020  1
  Ca  Ca3  1  0.17821158  0.69023105  0.14704980  1
  Ca  Ca4  1  0.03116179  0.17821158  0.48798054  1
  Ca  Ca5  1  0.69023105  0.54318125  0.51201946  1
  Ca  Ca6  1  0.46883821  0.95681875  0.14704980  1
  Ca  Ca7  1  0.80976895  0.32178842  0.85295020  1
  Ca  Ca8  1  0.95681875  0.80976895  0.48798054  1
  Ca  Ca9  1  0.32178842  0.46883821  0.51201946  1
  Ga  Ga0  1  0.75000000  0.75000000  0.00000000  1
  Ga  Ga1  1  0.88866111  0.38866111  0.27732321  1
  Ga  Ga2  1  0.11133889  0.61133889  0.72267679  1
  Ga  Ga3  1  0.38866111  0.11133889  0.50000000  1
  Ga  Ga4  1  0.61133889  0.88866111  0.50000000  1
  Bi  Bi0  1  0.25000000  0.25000000  0.00000000  1
loop_
_geom_bond_atom_site_label_1
_geom_bond_atom_site_label_2
_geom_bond_distance
_geom_bond_site_symmetry_2
Ca0 Ga4 3.248356 1_555
Ca0 Ga3 3.248356 1_554
Ca0 Ga1 3.248358 1_555
Ca0 Ga2 3.248359 1_554
Ca1 Ga3 3.248356 1_555
Ca1 Ga4 3.248356 1_444
Ca1 Ga2 3.248359 1_544
Ca1 Ga1 3.248359 1_455
Ca2 Ga4 3.114010 1_545
Ca2 Ga3 3.168986 1_555
Ca2 Ga1 3.171934 1_556
Ca2 Ga0 3.325913 1_546
Ca3 Ga3 3.114010 1_565
Ca3 Ga4 3.168986 1_555
Ca3 Ga2 3.171943 1_554
Ca3 Ga0 3.325913 1_455
Ca4 Ga1 3.114003 1_455
Ca4 Ga2 3.168988 1_555
Ca4 Ga3 3.171934 1_555
Ca4 Ga0 3.325913 1_445
Ca5 Ga2 3.114013 1_655
Ca5 Ga1 3.168979 1_555
Ca5 Ga4 3.171934 1_555
Ca5 Ga0 3.325913 1_556
Ca6 Ga4 3.114010 1_555
Ca6 Ga3 3.168986 1_565
Ca6 Ga2 3.171934 1_554
Ca6 Ga0 3.325913 1_555
Ca7 Ga3 3.114010 1_555
Ca7 Ga4 3.168986 1_545
Ca7 Ga1 3.171943 1_556
Ca7 Ga0 3.325913 1_556
Ca8 Ga1 3.114013 1_555
Ca8 Ga2 3.168979 1_655
Ca8 Ga4 3.171934 1_555
Ca8 Ga0 3.325913 1_555
Ca9 Ga2 3.114003 1_555
Ca9 Ga1 3.168988 1_455
Ca9 Ga3 3.171934 1_555
Ca9 Ga0 3.325913 1_556
Ga1 Ga2 2.529668 1_655
Ga3 Ga4 2.529679 1_545
Bi0 Ca4 3.440536 1_554
Bi0 Ca5 3.440536 1_555
Bi0 Ca6 3.440536 1_545
Bi0 Ca9 3.440536 1_555
Bi0 Ca8 3.440536 1_444
Bi0 Ca7 3.440536 1_454
Bi0 Ca3 3.440536 1_555
Bi0 Ca2 3.440536 1_554
Bi0 Ca0 3.630960 1_555
Bi0 Ca1 3.630960 1_555
