# generated using pymatgen
data_Ho3CrB7
_symmetry_space_group_name_H-M   'P 1'
_cell_length_a   8.03972524
_cell_length_b   8.03972524
_cell_length_c   9.31385099
_cell_angle_alpha   90.00000000
_cell_angle_beta   90.00000000
_cell_angle_gamma   155.35052037
_symmetry_Int_Tables_number   1
_chemical_formula_structural   Ho3CrB7
_chemical_formula_sum   'Ho6 Cr2 B14'
_cell_volume   251.08242605
_cell_formula_units_Z   2
loop_
 _symmetry_equiv_pos_site_id
 _symmetry_equiv_pos_as_xyz
  1  'x, y, z'
loop_
 _atom_site_type_symbol
 _atom_site_label
 _atom_site_symmetry_multiplicity
 _atom_site_fract_x
 _atom_site_fract_y
 _atom_site_fract_z
 _atom_site_occupancy
  Ho  Ho0  1  0.10529624  0.89470376  0.05952385  1
  Ho  Ho1  1  0.89470376  0.10529624  0.94047615  1
  Ho  Ho2  1  0.75772715  0.24227285  0.25000000  1
  Ho  Ho3  1  0.24227285  0.75772715  0.75000000  1
  Ho  Ho4  1  0.10529624  0.89470376  0.44047615  1
  Ho  Ho5  1  0.89470376  0.10529624  0.55952385  1
  Cr  Cr0  1  0.05349554  0.94650446  0.75000000  1
  Cr  Cr1  1  0.94650446  0.05349554  0.25000000  1
  B  B0  1  0.72694809  0.27305191  0.53238321  1
  B  B1  1  0.27305191  0.72694809  0.46761679  1
  B  B2  1  0.27305191  0.72694809  0.03238321  1
  B  B3  1  0.72694809  0.27305191  0.96761679  1
  B  B4  1  0.52081573  0.47918427  0.90318219  1
  B  B5  1  0.47918427  0.52081573  0.09681781  1
  B  B6  1  0.47918427  0.52081573  0.40318219  1
  B  B7  1  0.52081573  0.47918427  0.59681781  1
  B  B8  1  0.45784535  0.54215465  0.75000000  1
  B  B9  1  0.54215465  0.45784535  0.25000000  1
  B  B10  1  0.63107963  0.36892037  0.65133509  1
  B  B11  1  0.36892037  0.63107963  0.34866491  1
  B  B12  1  0.36892037  0.63107963  0.15133509  1
  B  B13  1  0.63107963  0.36892037  0.84866491  1
loop_
_geom_bond_atom_site_label_1
_geom_bond_atom_site_label_2
_geom_bond_distance
_geom_bond_site_symmetry_2
B0 B10 1.869608 1_555
B0 B1 1.957905 1_545
B0 B1 1.957905 1_655
B0 Ho5 2.647349 1_555
B0 Ho3 2.666658 1_545
B0 Ho3 2.666658 1_655
B0 Ho2 2.674149 1_555
B0 Ho4 2.707345 1_655
B0 Ho4 2.707345 1_545
B1 B11 1.869608 1_555
B1 Ho4 2.647349 1_555
B1 Ho2 2.666658 1_455
B1 Ho2 2.666658 1_565
B1 Ho3 2.674149 1_555
B1 Ho5 2.707345 1_565
B1 Ho5 2.707345 1_455
B2 B3 1.957905 1_564
B2 B3 1.957905 1_454
B2 Ho0 2.647349 1_555
B2 Ho2 2.666658 1_455
B2 Ho2 2.666658 1_565
B2 Ho3 2.674149 1_554
B2 Ho1 2.707345 1_564
B2 Ho1 2.707345 1_454
B3 Ho1 2.647349 1_555
B3 Ho3 2.666658 1_545
B3 Ho3 2.666658 1_655
B3 Ho2 2.674149 1_556
B3 Ho0 2.707345 1_656
B3 Ho0 2.707345 1_546
B4 B8 1.736094 1_555
B4 B5 1.918406 1_556
B4 Cr0 2.289989 1_655
B4 Cr0 2.289989 1_545
B4 Ho0 2.612761 1_656
B4 Ho0 2.612761 1_546
B4 Ho1 2.643919 1_565
B4 Ho1 2.643919 1_455
B5 B9 1.736094 1_555
B5 Cr1 2.289989 1_565
B5 Cr1 2.289989 1_455
B5 Ho1 2.612761 1_564
B5 Ho1 2.612761 1_454
B5 Ho0 2.643919 1_655
B5 Ho0 2.643919 1_545
B6 B9 1.736094 1_555
B6 B7 1.918406 1_555
B6 Cr1 2.289989 1_565
B6 Cr1 2.289989 1_455
B6 Ho5 2.612761 1_565
B6 Ho5 2.612761 1_455
B6 Ho4 2.643919 1_655
B6 Ho4 2.643919 1_545
B7 B8 1.736094 1_555
B7 Cr0 2.289989 1_655
B7 Cr0 2.289989 1_545
B7 Ho4 2.612761 1_655
B7 Ho4 2.612761 1_545
B7 Ho5 2.643919 1_565
B7 Ho5 2.643919 1_455
B8 Cr0 2.280936 1_655
B8 Cr0 2.280936 1_545
B8 Ho5 2.660101 1_565
B8 Ho1 2.660101 1_565
B8 Ho1 2.660101 1_455
B8 Ho5 2.660101 1_455
B9 Cr1 2.280936 1_565
B9 Cr1 2.280936 1_455
B9 Ho4 2.660101 1_655
B9 Ho0 2.660101 1_655
B9 Ho0 2.660101 1_545
B9 Ho4 2.660101 1_545
B10 B7 1.805013 1_555
B10 B13 1.837901 1_555
B10 Cr0 2.296700 1_545
B10 Cr0 2.296700 1_655
B10 Ho3 2.615433 1_545
B10 Ho3 2.615433 1_655
B10 Ho4 2.639313 1_545
B10 Ho4 2.639313 1_655
B11 B6 1.805013 1_555
B11 B12 1.837901 1_555
B11 Cr1 2.296700 1_455
B11 Cr1 2.296700 1_565
B11 Ho2 2.615433 1_565
B11 Ho2 2.615433 1_455
B11 Ho5 2.639313 1_565
B11 Ho5 2.639313 1_455
B12 B5 1.805013 1_555
B12 B2 1.869608 1_555
B12 Cr1 2.296700 1_455
B12 Cr1 2.296700 1_565
B12 Ho2 2.615433 1_565
B12 Ho2 2.615433 1_455
B12 Ho1 2.639313 1_564
B12 Ho1 2.639313 1_454
B13 B4 1.805013 1_555
B13 B3 1.869608 1_555
B13 Cr0 2.296700 1_545
B13 Cr0 2.296700 1_655
B13 Ho3 2.615433 1_545
B13 Ho3 2.615433 1_655
B13 Ho0 2.639313 1_546
B13 Ho0 2.639313 1_656
