# generated using pymatgen
data_Y4BS3
_symmetry_space_group_name_H-M   'P 1'
_cell_length_a   6.75170533
_cell_length_b   6.75170504
_cell_length_c   6.75170538
_cell_angle_alpha   131.96880838
_cell_angle_beta   131.96880725
_cell_angle_gamma   70.27829108
_symmetry_Int_Tables_number   1
_chemical_formula_structural   Y4BS3
_chemical_formula_sum   'Y4 B1 S3'
_cell_volume   166.75618594
_cell_formula_units_Z   1
loop_
 _symmetry_equiv_pos_site_id
 _symmetry_equiv_pos_as_xyz
  1  'x, y, z'
loop_
 _atom_site_type_symbol
 _atom_site_label
 _atom_site_symmetry_multiplicity
 _atom_site_fract_x
 _atom_site_fract_y
 _atom_site_fract_z
 _atom_site_occupancy
  Y  Y0  1  0.23347583  0.23347583  0.00000000  1
  Y  Y1  1  0.76652417  0.76652417  1.00000000  1
  Y  Y2  1  0.50000000  0.00000000  0.50000000  1
  Y  Y3  1  0.00000000  0.50000000  0.50000000  1
  B  B0  1  0.00000000  0.00000000  0.00000000  1
  S  S0  1  0.75000000  0.25000000  0.50000000  1
  S  S1  1  0.25000000  0.75000000  0.50000000  1
  S  S2  1  0.50000000  0.50000000  0.00000000  1
loop_
_geom_bond_atom_site_label_1
_geom_bond_atom_site_label_2
_geom_bond_distance
_geom_bond_site_symmetry_2
B0 Y0 2.578158 1_555
B0 Y1 2.578158 1_444
B0 Y3 2.747845 1_544
B0 Y3 2.747845 1_555
B0 Y2 2.747845 1_555
B0 Y2 2.747845 1_454
S0 Y1 2.753896 1_544
S0 Y1 2.753896 1_555
S0 Y0 2.753896 1_656
S0 Y0 2.753897 1_555
S0 Y3 2.760626 1_655
S0 Y2 2.760626 1_555
S1 Y0 2.753896 1_566
S1 Y0 2.753896 1_555
S1 Y1 2.753896 1_454
S1 Y1 2.753897 1_555
S1 Y3 2.760626 1_555
S1 Y2 2.760626 1_565
S2 Y2 2.747845 1_554
S2 Y2 2.747845 1_565
S2 Y3 2.747845 1_655
S2 Y3 2.747845 1_554
S2 Y1 2.943094 1_554
S2 Y0 2.943094 1_555
