# generated using pymatgen
data_Nd(FeSi)2
_symmetry_space_group_name_H-M   'P 1'
_cell_length_a   4.00998409
_cell_length_b   4.00998337
_cell_length_c   5.61290551
_cell_angle_alpha   110.92902945
_cell_angle_beta   110.92902896
_cell_angle_gamma   89.99997629
_symmetry_Int_Tables_number   1
_chemical_formula_structural   Nd(FeSi)2
_chemical_formula_sum   'Nd1 Fe2 Si2'
_cell_volume   77.89200417
_cell_formula_units_Z   1
loop_
 _symmetry_equiv_pos_site_id
 _symmetry_equiv_pos_as_xyz
  1  'x, y, z'
loop_
 _atom_site_type_symbol
 _atom_site_label
 _atom_site_symmetry_multiplicity
 _atom_site_fract_x
 _atom_site_fract_y
 _atom_site_fract_z
 _atom_site_occupancy
  Nd  Nd0  1  0.00000000  0.00000000  0.00000000  1
  Fe  Fe0  1  0.25000000  0.75000000  0.50000000  1
  Fe  Fe1  1  0.75000000  0.25000000  0.50000000  1
  Si  Si0  1  0.64325592  0.64325592  0.28651383  1
  Si  Si1  1  0.35674408  0.35674408  0.71348617  1
loop_
_geom_bond_atom_site_label_1
_geom_bond_atom_site_label_2
_geom_bond_distance
_geom_bond_site_symmetry_2
Nd0 Si0 3.156925 1_555
Nd0 Si1 3.156925 1_444
Nd0 Si0 3.156929 1_455
Nd0 Si1 3.156929 1_544
Nd0 Si1 3.156930 1_454
Nd0 Si0 3.156930 1_545
Nd0 Si1 3.156936 1_554
Nd0 Si0 3.156936 1_445
Fe0 Si1 2.255973 1_555
Fe0 Si0 2.255973 1_555
Fe0 Si1 2.255979 1_565
Fe0 Si0 2.255980 1_455
Fe0 Nd0 3.144228 1_555
Fe0 Nd0 3.144228 1_666
Fe0 Nd0 3.144228 1_565
Fe0 Nd0 3.144228 1_566
Fe1 Si0 2.255973 1_555
Fe1 Si1 2.255973 1_555
Fe1 Si0 2.255979 1_545
Fe1 Si1 2.255980 1_655
Fe1 Nd0 3.144228 1_666
Fe1 Nd0 3.144228 1_555
Fe1 Nd0 3.144228 1_656
Fe1 Nd0 3.144228 1_655
