# generated using pymatgen
data_SrCdSn2Hg
_symmetry_space_group_name_H-M   'P 1'
_cell_length_a   6.95114529
_cell_length_b   6.95114455
_cell_length_c   10.09182081
_cell_angle_alpha   62.80050181
_cell_angle_beta   62.80050606
_cell_angle_gamma   41.79145838
_symmetry_Int_Tables_number   1
_chemical_formula_structural   SrCdSn2Hg
_chemical_formula_sum   'Sr2 Cd2 Sn4 Hg2'
_cell_volume   283.40913605
_cell_formula_units_Z   2
loop_
 _symmetry_equiv_pos_site_id
 _symmetry_equiv_pos_as_xyz
  1  'x, y, z'
loop_
 _atom_site_type_symbol
 _atom_site_label
 _atom_site_symmetry_multiplicity
 _atom_site_fract_x
 _atom_site_fract_y
 _atom_site_fract_z
 _atom_site_occupancy
  Sr  Sr0  1  0.16279346  0.16279346  0.27363839  1
  Sr  Sr1  1  0.83720654  0.83720654  0.72636161  1
  Cd  Cd0  1  0.16788097  0.16788097  0.62714575  1
  Cd  Cd1  1  0.83211903  0.83211903  0.37285425  1
  Sn  Sn0  1  0.12636362  0.12636362  0.93436968  1
  Sn  Sn1  1  0.87363638  0.87363638  0.06563032  1
  Sn  Sn2  1  0.43718195  0.43718195  0.41159362  1
  Sn  Sn3  1  0.56281805  0.56281805  0.58840638  1
  Hg  Hg0  1  0.39508687  0.39508687  0.91384135  1
  Hg  Hg1  1  0.60491313  0.60491313  0.08615865  1
loop_
_geom_bond_atom_site_label_1
_geom_bond_atom_site_label_2
_geom_bond_distance
_geom_bond_site_symmetry_2
Cd0 Sn0 2.875341 1_555
Cd0 Sn3 2.946789 1_545
Cd0 Sn3 2.946789 1_455
Cd0 Sn2 3.085521 1_555
Cd0 Cd1 3.453395 1_455
Cd0 Cd1 3.453396 1_545
Cd0 Sr0 3.600323 1_555
Cd0 Sr1 3.760373 1_455
Cd0 Sr1 3.760373 1_545
Cd0 Sr1 3.903814 1_445
Cd1 Sn1 2.875341 1_555
Cd1 Sn2 2.946789 1_565
Cd1 Sn2 2.946789 1_655
Cd1 Sn3 3.085521 1_555
Cd1 Sr1 3.600323 1_555
Cd1 Sr0 3.760373 1_655
Cd1 Sr0 3.760373 1_565
Cd1 Sr0 3.903814 1_665
Sn0 Sn1 2.876487 1_446
Sn0 Sr1 3.525213 1_455
Sn0 Sr1 3.525214 1_545
Sn0 Sr0 3.678554 1_556
Sn1 Sr0 3.525213 1_655
Sn1 Sr0 3.525214 1_565
Sn1 Sr1 3.678554 1_554
Sn2 Sn3 2.948852 1_555
Sn2 Sr0 3.560794 1_565
Sn2 Sr0 3.560795 1_655
Sn2 Sr1 3.726556 1_545
Sn2 Sr1 3.726557 1_455
Sn3 Sr1 3.560794 1_545
Sn3 Sr1 3.560795 1_455
Sn3 Sr0 3.726556 1_565
Sn3 Sr0 3.726557 1_655
Hg0 Sn1 2.855382 1_546
Hg0 Sn1 2.855382 1_456
Hg0 Sn3 2.920767 1_555
Hg0 Sn0 3.393616 1_555
Hg0 Sr0 3.401016 1_556
Hg0 Sr1 3.418087 1_545
Hg0 Sr1 3.418087 1_455
Hg1 Sn0 2.855382 1_564
Hg1 Sn0 2.855382 1_654
Hg1 Sn2 2.920767 1_555
Hg1 Sn1 3.393616 1_555
Hg1 Sr1 3.401016 1_554
Hg1 Sr0 3.418087 1_565
Hg1 Sr0 3.418087 1_655
