# generated using pymatgen
data_LiZn(Sn4Ru)2
_symmetry_space_group_name_H-M   'P 1'
_cell_length_a   7.28808299
_cell_length_b   7.28808308
_cell_length_c   7.28808241
_cell_angle_alpha   124.99734337
_cell_angle_beta   124.99734081
_cell_angle_gamma   81.54243214
_symmetry_Int_Tables_number   1
_chemical_formula_structural   LiZn(Sn4Ru)2
_chemical_formula_sum   'Li1 Zn1 Sn8 Ru2'
_cell_volume   250.05242097
_cell_formula_units_Z   1
loop_
 _symmetry_equiv_pos_site_id
 _symmetry_equiv_pos_as_xyz
  1  'x, y, z'
loop_
 _atom_site_type_symbol
 _atom_site_label
 _atom_site_symmetry_multiplicity
 _atom_site_fract_x
 _atom_site_fract_y
 _atom_site_fract_z
 _atom_site_occupancy
  Li  Li0  1  0.00000000  0.00000000  0.00000000  1
  Zn  Zn0  1  0.50000000  0.50000000  0.00000000  1
  Sn  Sn0  1  0.71065798  0.52467629  0.51081511  1
  Sn  Sn1  1  0.52467629  0.01386218  0.81401931  1
  Sn  Sn2  1  0.19984287  0.71065798  0.18598069  1
  Sn  Sn3  1  0.80015713  0.28934202  0.81401931  1
  Sn  Sn4  1  0.47532371  0.98613782  0.18598069  1
  Sn  Sn5  1  0.28934202  0.47532371  0.48918489  1
  Sn  Sn6  1  0.98613782  0.80015713  0.51081511  1
  Sn  Sn7  1  0.01386218  0.19984287  0.48918489  1
  Ru  Ru0  1  0.26193624  0.26193624  1.00000000  1
  Ru  Ru1  1  0.73806376  0.73806376  0.00000000  1
loop_
_geom_bond_atom_site_label_1
_geom_bond_atom_site_label_2
_geom_bond_distance
_geom_bond_site_symmetry_2
Li0 Ru0 2.891480 1_554
Li0 Ru1 2.891480 1_445
Li0 Sn7 2.918230 1_555
Li0 Sn6 2.918230 1_444
Li0 Sn3 2.918230 1_454
Li0 Sn2 2.918230 1_545
Li0 Sn5 2.918235 1_555
Li0 Sn0 2.918235 1_444
Li0 Sn4 2.918237 1_545
Li0 Sn1 2.918237 1_454
Sn0 Sn7 2.990862 1_655
Sn0 Zn0 3.001010 1_555
Sn0 Sn6 3.040991 1_555
Sn0 Sn5 3.047508 1_555
Sn0 Sn4 3.258112 1_545
Sn0 Sn3 3.258114 1_555
Sn1 Sn2 2.990866 1_545
Sn1 Zn0 3.001005 1_556
Sn1 Sn3 3.040991 1_555
Sn1 Sn4 3.047502 1_546
Sn1 Sn5 3.258112 1_545
Sn1 Sn6 3.258114 1_445
Sn2 Zn0 3.001006 1_555
Sn2 Sn4 3.040991 1_555
Sn2 Sn3 3.047512 1_454
Sn2 Sn5 3.258114 1_555
Sn2 Sn6 3.258120 1_455
Sn3 Sn4 2.990866 1_545
Sn3 Zn0 3.001006 1_556
Sn3 Sn7 3.258120 1_655
Sn4 Zn0 3.001005 1_555
Sn4 Sn7 3.258114 1_665
Sn5 Sn6 2.990862 1_455
Sn5 Zn0 3.001010 1_556
Sn5 Sn7 3.040991 1_555
Sn6 Zn0 3.001006 1_555
Sn6 Sn7 3.047512 1_665
Sn7 Zn0 3.001006 1_556
Ru0 Zn0 2.627955 1_556
Ru0 Sn1 2.814351 1_555
Ru0 Sn0 2.814357 1_556
Ru0 Sn7 2.814358 1_555
Ru0 Sn2 2.814358 1_556
Ru0 Sn5 2.843197 1_556
Ru0 Sn3 2.843198 1_455
Ru0 Sn6 2.843198 1_445
Ru0 Sn4 2.843199 1_546
Ru1 Zn0 2.627955 1_555
Ru1 Sn4 2.814351 1_555
Ru1 Sn5 2.814357 1_554
Ru1 Sn6 2.814358 1_555
Ru1 Sn3 2.814358 1_554
Ru1 Sn0 2.843197 1_554
Ru1 Sn2 2.843198 1_655
Ru1 Sn7 2.843198 1_665
Ru1 Sn1 2.843199 1_564
