# generated using pymatgen
data_Ta3Nb2AlSi2
_symmetry_space_group_name_H-M   'P 1'
_cell_length_a   7.59052873
_cell_length_b   7.59052792
_cell_length_c   7.59052900
_cell_angle_alpha   128.23980273
_cell_angle_beta   128.23979311
_cell_angle_gamma   76.23688571
_symmetry_Int_Tables_number   1
_chemical_formula_structural   Ta3Nb2AlSi2
_chemical_formula_sum   'Ta6 Nb4 Al2 Si4'
_cell_volume   262.21199863
_cell_formula_units_Z   2
loop_
 _symmetry_equiv_pos_site_id
 _symmetry_equiv_pos_as_xyz
  1  'x, y, z'
loop_
 _atom_site_type_symbol
 _atom_site_label
 _atom_site_symmetry_multiplicity
 _atom_site_fract_x
 _atom_site_fract_y
 _atom_site_fract_z
 _atom_site_occupancy
  Ta  Ta0  1  0.98208542  0.81249599  0.50000000  1
  Ta  Ta1  1  0.31249599  0.48208542  0.50000000  1
  Ta  Ta2  1  0.48208542  0.98208542  0.16958944  1
  Ta  Ta3  1  0.81249599  0.31249599  0.83041056  1
  Ta  Ta4  1  0.00066419  0.00066419  0.00000000  1
  Ta  Ta5  1  0.50066419  0.50066419  0.00000000  1
  Nb  Nb0  1  0.01821013  0.18673275  0.50000000  1
  Nb  Nb1  1  0.68673275  0.51821013  0.50000000  1
  Nb  Nb2  1  0.51821013  0.01821013  0.83147739  1
  Nb  Nb3  1  0.18673275  0.68673275  0.16852261  1
  Al  Al0  1  0.74978094  0.74978094  1.00000000  1
  Al  Al1  1  0.24978094  0.24978094  1.00000000  1
  Si  Si0  1  0.37111546  0.12891612  0.50000000  1
  Si  Si1  1  0.62891612  0.87111546  0.50000000  1
  Si  Si2  1  0.87111546  0.37111546  0.24220034  1
  Si  Si3  1  0.12891612  0.62891612  0.75779966  1
loop_
_geom_bond_atom_site_label_1
_geom_bond_atom_site_label_2
_geom_bond_distance
_geom_bond_site_symmetry_2
Nb0 Si0 2.609381 1_555
Nb0 Si2 2.641344 1_455
Nb0 Si3 2.641352 1_555
Nb0 Ta0 2.918070 1_445
Nb1 Si1 2.609381 1_555
Nb1 Si2 2.641344 1_555
Nb1 Si3 2.641352 1_655
Nb1 Ta1 2.918070 1_555
Nb2 Si2 2.609381 1_556
Nb2 Si1 2.641350 1_545
Nb2 Si0 2.641351 1_555
Nb2 Ta2 2.918070 1_546
Nb3 Si3 2.609389 1_554
Nb3 Si0 2.641350 1_565
Nb3 Si1 2.641350 1_555
Nb3 Ta3 2.918070 1_454
Al0 Nb0 2.759775 1_666
Al0 Nb2 2.759775 1_565
Al0 Nb1 2.759775 1_555
Al0 Nb3 2.759775 1_656
Al0 Ta3 2.760148 1_555
Al0 Ta2 2.760148 1_556
Al0 Ta1 2.760148 1_555
Al0 Ta0 2.760148 1_556
Al0 Ta5 2.975323 1_556
Al0 Ta4 2.996421 1_666
Al1 Nb3 2.759775 1_556
Al1 Nb2 2.759775 1_555
Al1 Nb1 2.759775 1_556
Al1 Nb0 2.759775 1_555
Al1 Ta0 2.760148 1_445
Al1 Ta2 2.760148 1_546
Al1 Ta1 2.760148 1_556
Al1 Ta3 2.760148 1_455
Al1 Ta4 2.975323 1_556
Al1 Ta5 2.996421 1_556
Si0 Si1 2.415876 1_545
Si0 Ta5 2.603173 1_556
Si0 Ta4 2.603174 1_555
Si0 Ta1 2.610901 1_555
Si0 Ta2 2.636266 1_545
Si0 Ta3 2.636266 1_555
Si1 Ta5 2.603173 1_555
Si1 Ta4 2.603174 1_666
Si1 Ta0 2.610901 1_555
Si1 Ta3 2.636266 1_565
Si1 Ta2 2.636266 1_555
Si2 Si3 2.415867 1_655
Si2 Ta4 2.603175 1_655
Si2 Ta5 2.603176 1_555
Si2 Ta3 2.610909 1_554
Si2 Ta0 2.636267 1_555
Si2 Ta1 2.636268 1_655
Si3 Ta4 2.603175 1_566
Si3 Ta5 2.603176 1_556
Si3 Ta2 2.610900 1_556
Si3 Ta1 2.636260 1_555
Si3 Ta0 2.636260 1_455
