# generated using pymatgen
data_MnIn2O4
_symmetry_space_group_name_H-M   'P 1'
_cell_length_a   6.39410775
_cell_length_b   6.39410712
_cell_length_c   6.39410771
_cell_angle_alpha   59.99995545
_cell_angle_beta   59.99995813
_cell_angle_gamma   59.99995399
_symmetry_Int_Tables_number   1
_chemical_formula_structural   MnIn2O4
_chemical_formula_sum   'Mn2 In4 O8'
_cell_volume   184.85209346
_cell_formula_units_Z   2
loop_
 _symmetry_equiv_pos_site_id
 _symmetry_equiv_pos_as_xyz
  1  'x, y, z'
loop_
 _atom_site_type_symbol
 _atom_site_label
 _atom_site_symmetry_multiplicity
 _atom_site_fract_x
 _atom_site_fract_y
 _atom_site_fract_z
 _atom_site_occupancy
  Mn  Mn0  1  -0.00000000  0.00000000  -0.00000000  1
  Mn  Mn1  1  0.25000000  0.25000000  0.25000000  1
  In  In0  1  0.12500000  0.62500000  0.62500000  1
  In  In1  1  0.62500000  0.12500000  0.62500000  1
  In  In2  1  0.62500000  0.62500000  0.12500000  1
  In  In3  1  0.62500000  0.62500000  0.62500000  1
  O  O0  1  0.84984668  0.38338444  0.38338444  1
  O  O1  1  0.86661556  0.86661556  0.86661556  1
  O  O2  1  0.38338444  0.38338444  0.84984668  1
  O  O3  1  0.38338444  0.84984668  0.38338444  1
  O  O4  1  0.86661556  0.40015332  0.86661556  1
  O  O5  1  0.86661556  0.86661556  0.40015332  1
  O  O6  1  0.38338444  0.38338444  0.38338444  1
  O  O7  1  0.40015332  0.86661556  0.86661556  1
loop_
_geom_bond_atom_site_label_1
_geom_bond_atom_site_label_2
_geom_bond_distance
_geom_bond_site_symmetry_2
Mn0 O4 2.089106 1_454
Mn0 O7 2.089106 1_544
Mn0 O5 2.089106 1_445
Mn0 O1 2.089108 1_444
Mn1 O3 2.089106 1_545
Mn1 O0 2.089106 1_455
Mn1 O2 2.089106 1_554
Mn1 O6 2.089108 1_555
In0 O1 2.187470 1_455
In0 O6 2.187470 1_555
In0 O5 2.187470 1_455
In0 O2 2.187470 1_555
In0 O3 2.187470 1_555
In0 O4 2.187470 1_455
In1 O1 2.187470 1_545
In1 O6 2.187470 1_555
In1 O2 2.187470 1_555
In1 O5 2.187470 1_545
In1 O0 2.187470 1_555
In1 O7 2.187470 1_545
In2 O1 2.187470 1_554
In2 O6 2.187470 1_555
In2 O3 2.187470 1_555
In2 O4 2.187470 1_554
In2 O0 2.187470 1_555
In2 O7 2.187470 1_554
In3 O7 2.187470 1_555
In3 O0 2.187470 1_555
In3 O4 2.187470 1_555
In3 O3 2.187470 1_555
In3 O5 2.187470 1_555
In3 O2 2.187470 1_555
