# generated using pymatgen
data_Zr10Sn3Bi3Se
_symmetry_space_group_name_H-M   'P 1'
_cell_length_a   5.88862556
_cell_length_b   8.66390285
_cell_length_c   8.66394164
_cell_angle_alpha   119.99965609
_cell_angle_beta   90.00018593
_cell_angle_gamma   89.99982958
_symmetry_Int_Tables_number   1
_chemical_formula_structural   Zr10Sn3Bi3Se
_chemical_formula_sum   'Zr10 Sn3 Bi3 Se1'
_cell_volume   382.80285533
_cell_formula_units_Z   1
loop_
 _symmetry_equiv_pos_site_id
 _symmetry_equiv_pos_as_xyz
  1  'x, y, z'
loop_
 _atom_site_type_symbol
 _atom_site_label
 _atom_site_symmetry_multiplicity
 _atom_site_fract_x
 _atom_site_fract_y
 _atom_site_fract_z
 _atom_site_occupancy
  Zr  Zr0  1  0.49579237  0.33333650  0.66666361  1
  Zr  Zr1  1  0.49580380  0.66666509  0.33333704  1
  Zr  Zr2  1  0.00476388  0.66666219  0.33333571  1
  Zr  Zr3  1  0.00478479  0.33333753  0.66666524  1
  Zr  Zr4  1  0.76737709  0.25368932  0.00001583  1
  Zr  Zr5  1  0.76737700  0.74631608  0.74629758  1
  Zr  Zr6  1  0.76737230  0.99998011  0.25367270  1
  Zr  Zr7  1  0.23395131  0.74357047  0.99999990  1
  Zr  Zr8  1  0.23396215  0.25643686  0.25643924  1
  Zr  Zr9  1  0.23395570  0.00000348  0.74356603  1
  Sn  Sn0  1  0.25104008  0.38972931  0.00002723  1
  Sn  Sn1  1  0.25103524  0.61032867  0.61028497  1
  Sn  Sn2  1  0.25103448  0.99995444  0.38970158  1
  Bi  Bi0  1  0.74776275  0.60598648  0.00000566  1
  Bi  Bi1  1  0.74776743  0.39401226  0.39401041  1
  Bi  Bi2  1  0.74776789  0.99999941  0.60598236  1
  Se  Se0  1  0.49844973  0.99999377  0.99999190  1
loop_
_geom_bond_atom_site_label_1
_geom_bond_atom_site_label_2
_geom_bond_distance
_geom_bond_site_symmetry_2
Sn0 Zr8 2.973965 1_555
Sn0 Zr9 2.974194 1_554
Sn0 Zr1 3.040528 1_555
Sn0 Zr0 3.040850 1_554
Sn0 Zr2 3.044748 1_555
Sn0 Zr3 3.045038 1_554
Sn0 Zr7 3.067415 1_554
Sn0 Zr4 3.082340 1_455
Sn0 Zr4 3.260948 1_555
Sn1 Zr9 2.973742 1_565
Sn1 Zr7 2.974146 1_555
Sn1 Zr1 3.040446 1_555
Sn1 Zr0 3.040934 1_555
Sn1 Zr2 3.044639 1_555
Sn1 Zr3 3.045120 1_555
Sn1 Zr8 3.067555 1_555
Sn1 Zr5 3.082201 1_455
Sn1 Zr5 3.260873 1_555
Sn2 Zr7 2.973923 1_554
Sn2 Zr8 2.974333 1_565
Sn2 Zr1 3.040396 1_555
Sn2 Zr0 3.040929 1_565
Sn2 Zr2 3.044622 1_555
Sn2 Zr3 3.045111 1_565
Sn2 Zr9 3.067298 1_565
Sn2 Zr6 3.082356 1_455
Sn2 Zr6 3.260984 1_555
Bi0 Zr6 2.998932 1_555
Bi0 Zr5 2.999276 1_554
Bi0 Zr1 3.049565 1_555
Bi0 Zr0 3.049643 1_554
Bi0 Zr4 3.054497 1_555
Bi0 Zr2 3.064111 1_655
Bi0 Zr3 3.064218 1_654
Bi0 Zr7 3.101233 1_654
Bi0 Zr7 3.251992 1_554
Bi1 Zr4 2.998952 1_555
Bi1 Zr6 2.999218 1_545
Bi1 Zr1 3.049531 1_555
Bi1 Zr0 3.049595 1_555
Bi1 Zr5 3.054460 1_555
Bi1 Zr2 3.064053 1_655
Bi1 Zr3 3.064149 1_655
Bi1 Zr8 3.101222 1_655
Bi1 Zr8 3.251921 1_555
Bi2 Zr5 2.998972 1_555
Bi2 Zr4 2.999240 1_566
Bi2 Zr1 3.049572 1_555
Bi2 Zr0 3.049629 1_565
Bi2 Zr6 3.054489 1_555
Bi2 Zr2 3.064115 1_655
Bi2 Zr3 3.064193 1_665
Bi2 Zr9 3.101207 1_665
Bi2 Zr9 3.251988 1_565
Se0 Zr4 2.708979 1_566
Se0 Zr6 2.708991 1_556
Se0 Zr5 2.709006 1_555
Se0 Zr7 2.713246 1_555
Se0 Zr9 2.713256 1_565
Se0 Zr8 2.713347 1_566
