# generated using pymatgen
data_KRb2GaSe3
_symmetry_space_group_name_H-M   'P 1'
_cell_length_a   13.22024569
_cell_length_b   8.27167066
_cell_length_c   10.79684992
_cell_angle_alpha   52.81038135
_cell_angle_beta   90.00000000
_cell_angle_gamma   90.00000000
_symmetry_Int_Tables_number   1
_chemical_formula_structural   KRb2GaSe3
_chemical_formula_sum   'K4 Rb8 Ga4 Se12'
_cell_volume   940.57111040
_cell_formula_units_Z   4
loop_
 _symmetry_equiv_pos_site_id
 _symmetry_equiv_pos_as_xyz
  1  'x, y, z'
loop_
 _atom_site_type_symbol
 _atom_site_label
 _atom_site_symmetry_multiplicity
 _atom_site_fract_x
 _atom_site_fract_y
 _atom_site_fract_z
 _atom_site_occupancy
  K  K0  1  0.62095243  0.36560313  0.47803876  1
  K  K1  1  0.12095243  0.63439687  0.02196124  1
  K  K2  1  0.37904757  0.63439687  0.52196124  1
  K  K3  1  0.87904757  0.36560313  0.97803876  1
  Rb  Rb0  1  0.90966694  0.33641526  0.39433404  1
  Rb  Rb1  1  0.40966694  0.66358474  0.10566596  1
  Rb  Rb2  1  0.09033306  0.66358474  0.60566596  1
  Rb  Rb3  1  0.59033306  0.33641526  0.89433404  1
  Rb  Rb4  1  0.19049539  0.14131792  0.57847433  1
  Rb  Rb5  1  0.69049539  0.85868208  0.92152567  1
  Rb  Rb6  1  0.80950461  0.85868208  0.42152567  1
  Rb  Rb7  1  0.30950461  0.14131792  0.07847433  1
  Ga  Ga0  1  0.93821795  0.06033645  0.84013337  1
  Ga  Ga1  1  0.43821795  0.93966355  0.65986663  1
  Ga  Ga2  1  0.06178205  0.93966355  0.15986663  1
  Ga  Ga3  1  0.56178205  0.06033645  0.34013337  1
  Se  Se0  1  0.39385040  0.15106867  0.37788838  1
  Se  Se1  1  0.89385040  0.84893133  0.12211162  1
  Se  Se2  1  0.60614960  0.84893133  0.62211162  1
  Se  Se3  1  0.10614960  0.15106867  0.87788838  1
  Se  Se4  1  0.67803558  0.33914136  0.19572417  1
  Se  Se5  1  0.17803558  0.66085864  0.30427583  1
  Se  Se6  1  0.32196442  0.66085864  0.80427583  1
  Se  Se7  1  0.82196442  0.33914136  0.69572417  1
  Se  Se8  1  0.55361434  0.86235570  0.24733316  1
  Se  Se9  1  0.05361434  0.13764430  0.25266684  1
  Se  Se10  1  0.44638566  0.13764430  0.75266684  1
  Se  Se11  1  0.94638566  0.86235570  0.74733316  1
loop_
_geom_bond_atom_site_label_1
_geom_bond_atom_site_label_2
_geom_bond_distance
_geom_bond_site_symmetry_2
K0 Se4 3.273368 1_555
K0 Se10 3.303692 1_555
K0 Se8 3.392272 1_555
K0 Se7 3.465819 1_555
K0 Se2 3.561750 1_545
K1 Se5 3.273368 1_555
K1 Se11 3.303692 1_454
K1 Se9 3.392272 1_555
K1 Se6 3.465819 1_554
K1 Se3 3.561750 1_564
K2 Se6 3.273368 1_555
K2 Se8 3.303692 1_555
K2 Se10 3.392272 1_555
K2 Se5 3.465819 1_555
K2 Se0 3.561750 1_565
K3 Se7 3.273368 1_555
K3 Se9 3.303692 1_656
K3 Se11 3.392272 1_555
K3 Se4 3.465819 1_556
K3 Se1 3.561750 1_546
Rb0 Se1 3.404609 1_555
Rb0 Se9 3.421192 1_655
Rb0 Se7 3.467343 1_555
Rb0 Se11 3.474278 1_545
Rb0 Se4 3.730623 1_555
Rb1 Se0 3.404609 1_555
Rb1 Se8 3.421192 1_555
Rb1 Se6 3.467343 1_554
Rb1 Se10 3.474278 1_564
Rb1 Se5 3.730623 1_555
Rb2 Se3 3.404609 1_555
Rb2 Se11 3.421192 1_455
Rb2 Se5 3.467343 1_555
Rb2 Se9 3.474278 1_565
Rb2 Se6 3.730623 1_555
Rb3 Se2 3.404609 1_555
Rb3 Se10 3.421192 1_555
Rb3 Se4 3.467343 1_556
Rb3 Se8 3.474278 1_546
Rb3 Se7 3.730623 1_555
Rb4 Se0 3.422440 1_555
Rb4 Se5 3.446648 1_555
Rb4 Se3 3.466357 1_555
Rb4 Se6 3.611882 1_545
Rb4 Se11 3.738631 1_445
Rb4 Se10 3.861763 1_555
Rb4 Se9 3.972276 1_555
Rb5 Se1 3.422440 1_556
Rb5 Se4 3.446648 1_556
Rb5 Se2 3.466357 1_555
Rb5 Se7 3.611882 1_565
Rb5 Se10 3.738631 1_565
Rb5 Se11 3.861763 1_555
Rb5 Se8 3.972276 1_556
Rb6 Se2 3.422440 1_555
Rb6 Se7 3.446648 1_555
Rb6 Se1 3.466357 1_555
Rb6 Se4 3.611882 1_565
Rb6 Se9 3.738631 1_665
Rb6 Se8 3.861763 1_555
Rb6 Se11 3.972276 1_555
Rb7 Se3 3.422440 1_554
Rb7 Se6 3.446648 1_554
Rb7 Se0 3.466357 1_555
Rb7 Se5 3.611882 1_545
Rb7 Se8 3.738631 1_545
Rb7 Se9 3.861763 1_555
Rb7 Se10 3.972276 1_554
Ga0 Se11 2.383487 1_545
Ga0 Se7 2.400966 1_555
Ga0 Se3 2.455220 1_655
Ga0 Se1 2.496948 1_546
Ga0 Rb5 3.536639 1_545
Ga1 Se10 2.383487 1_565
Ga1 Se6 2.400966 1_555
Ga1 Se2 2.455220 1_555
Ga1 Se0 2.496948 1_565
Ga1 Rb4 3.536639 1_565
Ga2 Se9 2.383487 1_565
Ga2 Se5 2.400966 1_555
Ga2 Se1 2.455220 1_455
Ga2 Se3 2.496948 1_564
Ga2 Rb7 3.536639 1_565
Ga3 Se8 2.383487 1_545
Ga3 Se4 2.400966 1_555
Ga3 Se0 2.455220 1_555
Ga3 Se2 2.496948 1_545
Ga3 Rb6 3.536639 1_545
