# generated using pymatgen
data_Y2Si14Ir5Rh
_symmetry_space_group_name_H-M   'P 1'
_cell_length_a   7.99833442
_cell_length_b   7.99833387
_cell_length_c   8.00704861
_cell_angle_alpha   56.65284354
_cell_angle_beta   56.65283689
_cell_angle_gamma   56.66864096
_symmetry_Int_Tables_number   1
_chemical_formula_structural   Y2Si14Ir5Rh
_chemical_formula_sum   'Y2 Si14 Ir5 Rh1'
_cell_volume   334.24985544
_cell_formula_units_Z   1
loop_
 _symmetry_equiv_pos_site_id
 _symmetry_equiv_pos_as_xyz
  1  'x, y, z'
loop_
 _atom_site_type_symbol
 _atom_site_label
 _atom_site_symmetry_multiplicity
 _atom_site_fract_x
 _atom_site_fract_y
 _atom_site_fract_z
 _atom_site_occupancy
  Y  Y0  1  0.00024344  0.99911233  0.00025159  1
  Y  Y1  1  0.50088767  0.49975656  0.49974841  1
  Si  Si0  1  0.75134950  0.74865050  0.75000000  1
  Si  Si1  1  0.24984441  0.25015559  0.25000000  1
  Si  Si2  1  0.85041591  0.06346206  0.67329856  1
  Si  Si3  1  0.67289295  0.85121003  0.06226781  1
  Si  Si4  1  0.06013399  0.67434918  0.85025867  1
  Si  Si5  1  0.64878997  0.82710705  0.43773219  1
  Si  Si6  1  0.43653794  0.64958409  0.82670144  1
  Si  Si7  1  0.82565082  0.43986601  0.64974133  1
  Si  Si8  1  0.17526244  0.55959013  0.35079380  1
  Si  Si9  1  0.56454447  0.35032467  0.17237255  1
  Si  Si10  1  0.35007540  0.17503412  0.56343812  1
  Si  Si11  1  0.94040987  0.32473756  0.14920620  1
  Si  Si12  1  0.32496588  0.14992460  0.93656188  1
  Si  Si13  1  0.14967533  0.93545553  0.32762745  1
  Ir  Ir0  1  0.24961424  0.92980140  0.57112390  1
  Ir  Ir1  1  0.57019860  0.25038576  0.92887610  1
  Ir  Ir2  1  0.92800884  0.57199116  0.25000000  1
  Ir  Ir3  1  0.42926358  0.74943885  0.07108855  1
  Ir  Ir4  1  0.75056115  0.07073642  0.42891145  1
  Rh  Rh0  1  0.07067460  0.42932540  0.75000000  1
loop_
_geom_bond_atom_site_label_1
_geom_bond_atom_site_label_2
_geom_bond_distance
_geom_bond_site_symmetry_2
Si2 Y0 3.137594 1_646
Si2 Y1 3.184767 1_555
Si3 Y0 3.135266 1_655
Si3 Y1 3.192337 1_555
Si4 Y0 3.138328 1_556
Si4 Y1 3.205576 1_555
Si5 Y1 3.135265 1_555
Si5 Y0 3.192337 1_655
Si6 Y1 3.137594 1_555
Si6 Y0 3.184767 1_556
Si7 Y1 3.138328 1_555
Si7 Y0 3.205576 1_646
Si8 Y1 3.138883 1_555
Si8 Y0 3.203061 1_555
Si9 Y1 3.141250 1_555
Si9 Y0 3.186337 1_645
Si10 Y1 3.125892 1_555
Si10 Y0 3.193551 1_546
Si11 Y0 3.138883 1_645
Si11 Y1 3.203061 1_555
Si12 Y0 3.125892 1_546
Si12 Y1 3.193551 1_555
Si13 Y0 3.141250 1_555
Si13 Y1 3.186338 1_555
Ir0 Si1 2.435851 1_565
Ir0 Si13 2.453372 1_555
Ir0 Si10 2.457986 1_565
Ir0 Si6 2.466794 1_555
Ir0 Si4 2.474903 1_555
Ir0 Si5 2.518425 1_555
Ir0 Si2 2.519011 1_465
Ir0 Y0 3.071859 1_556
Ir0 Y1 3.081942 1_555
Ir1 Si1 2.435851 1_556
Ir1 Si9 2.453372 1_556
Ir1 Si12 2.457987 1_555
Ir1 Si2 2.466794 1_555
Ir1 Si7 2.474903 1_555
Ir1 Si3 2.518425 1_546
Ir1 Si6 2.519011 1_555
Ir1 Y1 3.071860 1_555
Ir1 Y0 3.081943 1_646
Ir2 Si1 2.443462 1_655
Ir2 Si11 2.454245 1_555
Ir2 Si8 2.454245 1_655
Ir2 Si5 2.466612 1_555
Ir2 Si3 2.466613 1_555
Ir2 Si4 2.526439 1_654
Ir2 Si7 2.526439 1_555
Ir2 Y0 3.064572 1_655
Ir2 Y1 3.064572 1_555
Ir3 Si0 2.442286 1_554
Ir3 Si3 2.448137 1_555
Ir3 Si6 2.452020 1_554
Ir3 Si13 2.467231 1_555
Ir3 Si8 2.469399 1_555
Ir3 Si9 2.518235 1_555
Ir3 Si12 2.524815 1_564
Ir3 Y0 3.073812 1_555
Ir3 Y1 3.076624 1_555
Ir4 Si0 2.442286 1_545
Ir4 Si5 2.448137 1_545
Ir4 Si2 2.452020 1_555
Ir4 Si9 2.467231 1_555
Ir4 Si11 2.469399 1_555
Ir4 Si13 2.518236 1_645
Ir4 Si10 2.524815 1_555
Ir4 Y1 3.073812 1_555
Ir4 Y0 3.076624 1_645
Rh0 Si0 2.424401 1_455
Rh0 Si4 2.442540 1_555
Rh0 Si7 2.442540 1_455
Rh0 Si10 2.457116 1_555
Rh0 Si12 2.457117 1_555
Rh0 Si11 2.521757 1_456
Rh0 Si8 2.521757 1_555
Rh0 Y0 3.079223 1_546
Rh0 Y1 3.079223 1_555
