# generated using pymatgen
data_Cs6Cr(RhBr6)3
_symmetry_space_group_name_H-M   'P 1'
_cell_length_a   7.59694841
_cell_length_b   7.59632521
_cell_length_c   19.11739257
_cell_angle_alpha   90.00295715
_cell_angle_beta   90.00430147
_cell_angle_gamma   119.99869205
_symmetry_Int_Tables_number   1
_chemical_formula_structural   Cs6Cr(RhBr6)3
_chemical_formula_sum   'Cs6 Cr1 Rh3 Br18'
_cell_volume   955.44949811
_cell_formula_units_Z   1
loop_
 _symmetry_equiv_pos_site_id
 _symmetry_equiv_pos_as_xyz
  1  'x, y, z'
loop_
 _atom_site_type_symbol
 _atom_site_label
 _atom_site_symmetry_multiplicity
 _atom_site_fract_x
 _atom_site_fract_y
 _atom_site_fract_z
 _atom_site_occupancy
  Cs  Cs0  1  0.66671377  0.33338011  0.92960203  1
  Cs  Cs1  1  0.33331213  0.66666321  0.42885837  1
  Cs  Cs2  1  0.66667740  0.33335389  0.57235864  1
  Cs  Cs3  1  0.33331587  0.66666512  0.07124317  1
  Cs  Cs4  1  0.99999812  0.00000317  0.74852150  1
  Cs  Cs5  1  0.00001275  0.99999636  0.25041133  1
  Cr  Cr0  1  0.33333702  0.66666188  0.83654505  1
  Rh  Rh0  1  0.33328175  0.66662603  0.66607421  1
  Rh  Rh1  1  0.66666677  0.33334451  0.16575573  1
  Rh  Rh2  1  0.66669924  0.33333415  0.33481027  1
  Br  Br0  1  0.82170318  0.64348544  0.40726070  1
  Br  Br1  1  0.17632085  0.35254694  0.90611926  1
  Br  Br2  1  0.17633150  0.82369671  0.90615250  1
  Br  Br3  1  0.17870332  0.35741291  0.59291898  1
  Br  Br4  1  0.64739878  0.82374113  0.90613806  1
  Br  Br5  1  0.35655599  0.17823455  0.40722316  1
  Br  Br6  1  0.03042732  0.51518077  0.74887038  1
  Br  Br7  1  0.82176939  0.17828450  0.40726867  1
  Br  Br8  1  0.51643014  0.03280656  0.25022645  1
  Br  Br9  1  0.48476773  0.51522158  0.74886042  1
  Br  Br10  1  0.51643240  0.48364050  0.25023885  1
  Br  Br11  1  0.96718761  0.48351746  0.25022979  1
  Br  Br12  1  0.35664532  0.17840568  0.09316393  1
  Br  Br13  1  0.48475027  0.96954357  0.74886465  1
  Br  Br14  1  0.82176904  0.64344019  0.09321368  1
  Br  Br15  1  0.17877596  0.82133276  0.59294791  1
  Br  Br16  1  0.64242014  0.82121287  0.59295182  1
  Br  Br17  1  0.82159722  0.17826645  0.09316953  1
loop_
_geom_bond_atom_site_label_1
_geom_bond_atom_site_label_2
_geom_bond_distance
_geom_bond_site_symmetry_2
Br0 Rh2 2.465972 1_555
Br0 Cs2 3.758438 1_555
Br0 Cs5 3.807040 1_655
Br0 Cs1 3.823757 1_555
Br0 Cs1 3.824020 1_655
Br1 Cr0 2.457633 1_555
Br1 Cs3 3.772801 1_556
Br1 Cs4 3.801964 1_455
Br1 Cs0 3.826770 1_555
Br1 Cs0 3.827211 1_455
Br2 Cr0 2.457501 1_555
Br2 Cs3 3.772080 1_556
Br2 Cs4 3.803047 1_465
Br2 Cs0 3.826684 1_455
Br2 Cs0 3.827043 1_565
Br3 Rh0 2.468475 1_555
Br3 Cs1 3.738640 1_555
Br3 Cs4 3.791956 1_455
Br3 Cs2 3.821988 1_455
Br3 Cs2 3.822079 1_555
Br4 Cr0 2.457430 1_555
Br4 Cs3 3.772846 1_556
Br4 Cs4 3.802991 1_565
Br4 Cs0 3.826502 1_565
Br4 Cs0 3.826834 1_555
Br5 Rh2 2.465915 1_555
Br5 Cs2 3.758719 1_555
Br5 Cs5 3.806319 1_545
Br5 Cs1 3.823314 1_545
Br5 Cs1 3.824042 1_555
Br6 Rh0 2.544877 1_555
Br6 Cr0 2.603897 1_555
Br6 Cs4 3.803155 1_455
Br6 Cs4 3.803727 1_465
Br6 Cs2 4.136712 1_455
Br6 Cs0 4.203095 1_455
Br7 Rh2 2.466024 1_555
Br7 Cs2 3.758287 1_555
Br7 Cs5 3.807109 1_645
Br7 Cs1 3.823456 1_655
Br7 Cs1 3.824124 1_545
Br8 Rh1 2.552948 1_555
Br8 Rh2 2.554006 1_555
Br8 Cs5 3.804495 1_645
Br8 Cs5 3.804712 1_545
Br8 Cs1 4.179213 1_545
Br8 Cs3 4.184291 1_545
Br9 Rh0 2.544688 1_555
Br9 Cr0 2.603899 1_555
Br9 Cs4 3.803612 1_455
Br9 Cs4 3.803743 1_565
Br9 Cs2 4.136831 1_555
Br9 Cs0 4.203191 1_555
Br10 Rh1 2.552980 1_555
Br10 Rh2 2.554233 1_555
Br10 Cs5 3.804247 1_655
Br10 Cs5 3.804773 1_545
Br10 Cs1 4.178871 1_555
Br10 Cs3 4.184689 1_555
Br11 Rh1 2.552753 1_555
Br11 Rh2 2.554166 1_555
Br11 Cs5 3.803801 1_645
Br11 Cs5 3.804797 1_655
Br11 Cs1 4.178771 1_655
Br11 Cs3 4.184839 1_655
Br12 Rh1 2.466907 1_555
Br12 Cs0 3.733698 1_554
Br12 Cs5 3.813672 1_545
Br12 Cs3 3.823744 1_555
Br12 Cs3 3.824838 1_545
Br13 Rh0 2.544734 1_555
Br13 Cr0 2.603983 1_555
Br13 Cs4 3.803610 1_465
Br13 Cs4 3.803913 1_565
Br13 Cs2 4.137167 1_565
Br13 Cs0 4.203103 1_565
Br14 Rh1 2.466889 1_555
Br14 Cs0 3.733999 1_554
Br14 Cs5 3.812089 1_655
Br14 Cs3 3.824227 1_655
Br14 Cs3 3.825134 1_555
Br15 Rh0 2.468297 1_555
Br15 Cs1 3.738816 1_555
Br15 Cs4 3.791546 1_465
Br15 Cs2 3.821771 1_565
Br15 Cs2 3.822286 1_455
Br16 Rh0 2.468105 1_555
Br16 Cs1 3.738374 1_555
Br16 Cs4 3.791865 1_565
Br16 Cs2 3.821737 1_555
Br16 Cs2 3.821957 1_565
Br17 Rh1 2.466823 1_555
Br17 Cs0 3.733242 1_554
Br17 Cs5 3.813474 1_645
Br17 Cs3 3.824022 1_545
Br17 Cs3 3.825041 1_655
