# generated using pymatgen
data_Ca10NbMoN10
_symmetry_space_group_name_H-M   'P 1'
_cell_length_a   6.91840364
_cell_length_b   6.91840350
_cell_length_c   8.88065627
_cell_angle_alpha   80.43053371
_cell_angle_beta   80.43053380
_cell_angle_gamma   59.71556116
_symmetry_Int_Tables_number   1
_chemical_formula_structural   Ca10NbMoN10
_chemical_formula_sum   'Ca10 Nb1 Mo1 N10'
_cell_volume   360.25202481
_cell_formula_units_Z   1
loop_
 _symmetry_equiv_pos_site_id
 _symmetry_equiv_pos_as_xyz
  1  'x, y, z'
loop_
 _atom_site_type_symbol
 _atom_site_label
 _atom_site_symmetry_multiplicity
 _atom_site_fract_x
 _atom_site_fract_y
 _atom_site_fract_z
 _atom_site_occupancy
  Ca  Ca0  1  0.87485716  0.35196600  0.83386793  1
  Ca  Ca1  1  0.87307479  0.87307479  0.82527288  1
  Ca  Ca2  1  0.73898767  0.73898767  0.52840326  1
  Ca  Ca3  1  0.75350824  0.24803683  0.50600011  1
  Ca  Ca4  1  0.63083846  0.13688568  0.15241625  1
  Ca  Ca5  1  0.35196600  0.87485716  0.83386793  1
  Ca  Ca6  1  0.24803683  0.75350824  0.50600011  1
  Ca  Ca7  1  0.24073241  0.24073241  0.49485460  1
  Ca  Ca8  1  0.14190582  0.14190582  0.15991678  1
  Ca  Ca9  1  0.13688568  0.63083846  0.15241625  1
  Nb  Nb0  1  0.36936104  0.36936104  0.77423808  1
  Mo  Mo0  1  0.63253654  0.63253654  0.22529290  1
  N  N0  1  0.90793112  0.47070311  0.31871662  1
  N  N1  1  0.99721959  0.99721959  0.01693757  1
  N  N2  1  0.67835366  0.67835366  0.01585292  1
  N  N3  1  0.53637529  0.53637529  0.69130155  1
  N  N4  1  0.47070311  0.90793112  0.31871662  1
  N  N5  1  0.53839102  0.08309244  0.67595474  1
  N  N6  1  0.47368216  0.47368216  0.29648368  1
  N  N7  1  0.32231754  0.32231754  0.99653401  1
  N  N8  1  0.06153142  0.06153142  0.64680349  1
  N  N9  1  0.08309244  0.53839102  0.67595474  1
loop_
_geom_bond_atom_site_label_1
_geom_bond_atom_site_label_2
_geom_bond_distance
_geom_bond_site_symmetry_2
Ca0 N3 2.479899 1_555
Ca0 N8 2.498870 1_655
Ca0 N9 2.511289 1_655
Ca0 N1 2.533519 1_546
Ca0 N2 2.635476 1_556
Ca1 N1 2.467526 1_556
Ca1 N9 2.493595 1_655
Ca1 N5 2.493595 1_565
Ca1 N8 2.500456 1_665
Ca1 N2 2.609293 1_556
Ca2 N5 2.531967 1_565
Ca2 N9 2.531967 1_655
Ca2 N0 2.552709 1_555
Ca2 N4 2.552709 1_555
Ca2 N3 2.579910 1_555
Ca3 N8 2.312138 1_655
Ca3 N5 2.487689 1_555
Ca3 N3 2.488204 1_555
Ca3 N0 2.549120 1_555
Ca3 N6 2.613555 1_555
Ca4 N1 2.389256 1_545
Ca4 N7 2.397566 1_554
Ca4 N6 2.494370 1_555
Ca4 N4 2.523035 1_545
Ca5 N3 2.479899 1_555
Ca5 N8 2.498870 1_565
Ca5 N5 2.511289 1_565
Ca5 N1 2.533519 1_456
Ca5 N2 2.635476 1_556
Ca6 N8 2.312138 1_565
Ca6 N9 2.487689 1_555
Ca6 N3 2.488204 1_555
Ca6 N4 2.549120 1_555
Ca6 N6 2.613555 1_555
Ca7 N8 2.309288 1_555
Ca7 N9 2.503923 1_555
Ca7 N5 2.503923 1_555
Ca7 N4 2.637182 1_545
Ca7 N0 2.637182 1_455
Ca7 N6 3.004987 1_555
Ca8 N1 2.339241 1_445
Ca8 N7 2.363909 1_554
Ca8 N0 2.525343 1_455
Ca8 N4 2.525343 1_545
Ca9 N1 2.389256 1_455
Ca9 N7 2.397566 1_554
Ca9 N6 2.494370 1_555
Ca9 N0 2.523035 1_455
Mo0 N2 1.835677 1_555
Mo0 N6 1.889858 1_555
Mo0 N4 1.907154 1_555
Mo0 N0 1.907154 1_555
N3 Nb0 1.998342 1_555
N5 Nb0 1.987778 1_555
N7 Nb0 1.946444 1_555
N9 Nb0 1.987778 1_555
