# generated using pymatgen
data_HfBi2PbO7
_symmetry_space_group_name_H-M   'P 1'
_cell_length_a   7.73880153
_cell_length_b   7.73388972
_cell_length_c   7.71780510
_cell_angle_alpha   60.18155096
_cell_angle_beta   60.13374789
_cell_angle_gamma   90.43785076
_symmetry_Int_Tables_number   1
_chemical_formula_structural   HfBi2PbO7
_chemical_formula_sum   'Hf2 Bi4 Pb2 O14'
_cell_volume   326.92453189
_cell_formula_units_Z   2
loop_
 _symmetry_equiv_pos_site_id
 _symmetry_equiv_pos_as_xyz
  1  'x, y, z'
loop_
 _atom_site_type_symbol
 _atom_site_label
 _atom_site_symmetry_multiplicity
 _atom_site_fract_x
 _atom_site_fract_y
 _atom_site_fract_z
 _atom_site_occupancy
  Hf  Hf0  1  0.12317396  0.87770067  0.25264842  1
  Hf  Hf1  1  0.11969001  0.37505295  0.75273312  1
  Bi  Bi0  1  0.68388853  0.41295985  0.71730203  1
  Bi  Bi1  1  0.12204002  0.34929776  0.21528298  1
  Bi  Bi2  1  0.56835486  0.87538889  0.79598879  1
  Bi  Bi3  1  0.57792113  0.38269740  0.29931218  1
  Pb  Pb0  1  0.62721950  0.87801735  0.24751716  1
  Pb  Pb1  1  0.12423198  0.87552476  0.74795196  1
  O  O0  1  0.80651582  0.20526050  0.95997037  1
  O  O1  1  0.46533272  0.51028951  0.00789810  1
  O  O2  1  0.22230751  0.21201271  0.59465804  1
  O  O3  1  0.44436869  0.93398177  0.09388947  1
  O  O4  1  0.15665367  0.18981165  0.03011642  1
  O  O5  1  0.47341761  0.96481090  0.50099463  1
  O  O6  1  0.44483089  0.54042583  0.49088027  1
  O  O7  1  0.08738948  0.98488075  0.45837877  1
  O  O8  1  0.72132959  0.26926151  0.51457703  1
  O  O9  1  0.03065478  0.56390014  0.53036281  1
  O  O10  1  0.78530386  0.77629702  0.00098733  1
  O  O11  1  0.08175044  0.54460062  0.89939154  1
  O  O12  1  0.80674712  0.76938217  0.39913930  1
  O  O13  1  0.21987884  0.81544329  0.99001827  1
loop_
_geom_bond_atom_site_label_1
_geom_bond_atom_site_label_2
_geom_bond_distance
_geom_bond_site_symmetry_2
Hf0 O7 2.039452 1_555
Hf0 O12 2.060545 1_455
Hf0 O4 2.065855 1_565
Hf0 O9 2.065996 1_555
Hf0 O3 2.071002 1_555
Hf0 O13 2.089418 1_554
Hf1 O0 2.039185 1_455
Hf1 O11 2.058570 1_555
Hf1 O9 2.062420 1_555
Hf1 O4 2.069613 1_556
Hf1 O2 2.071052 1_555
Hf1 O6 2.089738 1_555
Bi0 O8 2.247146 1_555
Bi0 O9 2.250965 1_655
Bi0 O12 2.331355 1_555
Bi0 O0 2.406245 1_555
Bi0 O1 2.525415 1_556
Bi1 O1 2.214171 1_555
Bi1 O4 2.238799 1_555
Bi1 O11 2.329056 1_554
Bi1 O7 2.400788 1_545
Bi1 O8 2.598027 1_455
Bi2 O13 2.235722 1_555
Bi2 O3 2.292969 1_556
Bi2 O1 2.314667 1_556
Bi2 O8 2.490429 1_565
Bi2 O5 2.511829 1_555
Bi2 O10 2.714525 1_556
Bi3 O6 2.242987 1_555
Bi3 O8 2.272268 1_555
Bi3 O2 2.283932 1_555
Bi3 O10 2.533387 1_555
Bi3 O1 2.559086 1_555
Bi3 O5 2.688002 1_545
O0 Pb0 2.132913 1_546
O2 Pb1 2.182114 1_545
O3 Pb0 2.182999 1_555
O5 Pb0 2.166437 1_555
O5 Pb1 2.223695 1_555
O6 Pb0 2.182472 1_555
O7 Pb1 2.133020 1_555
O10 Pb1 2.158605 1_654
O10 Pb0 2.218273 1_555
O11 Pb1 2.157288 1_555
O12 Pb0 2.159803 1_555
O13 Pb1 2.184771 1_555
