# generated using pymatgen
data_HfZr3Pd2N
_symmetry_space_group_name_H-M   'P 1'
_cell_length_a   8.79740451
_cell_length_b   8.79740423
_cell_length_c   8.79740470
_cell_angle_alpha   60.00000194
_cell_angle_beta   60.00000300
_cell_angle_gamma   60.00000094
_symmetry_Int_Tables_number   1
_chemical_formula_structural   HfZr3Pd2N
_chemical_formula_sum   'Hf4 Zr12 Pd8 N4'
_cell_volume   481.44724002
_cell_formula_units_Z   4
loop_
 _symmetry_equiv_pos_site_id
 _symmetry_equiv_pos_as_xyz
  1  'x, y, z'
loop_
 _atom_site_type_symbol
 _atom_site_label
 _atom_site_symmetry_multiplicity
 _atom_site_fract_x
 _atom_site_fract_y
 _atom_site_fract_z
 _atom_site_occupancy
  Hf  Hf0  1  0.12500000  0.62500000  0.62500000  1
  Hf  Hf1  1  0.62500000  0.12500000  0.62500000  1
  Hf  Hf2  1  0.62500000  0.62500000  0.12500000  1
  Hf  Hf3  1  0.62500000  0.62500000  0.62500000  1
  Zr  Zr0  1  0.81843563  0.81843563  0.18156437  1
  Zr  Zr1  1  0.18156437  0.18156437  0.81843563  1
  Zr  Zr2  1  0.81843563  0.18156437  0.81843563  1
  Zr  Zr3  1  0.18156437  0.81843563  0.18156437  1
  Zr  Zr4  1  0.18156437  0.81843563  0.81843563  1
  Zr  Zr5  1  0.81843563  0.18156437  0.18156437  1
  Zr  Zr6  1  0.43156437  0.43156437  0.06843563  1
  Zr  Zr7  1  0.06843563  0.06843563  0.43156437  1
  Zr  Zr8  1  0.43156437  0.06843563  0.43156437  1
  Zr  Zr9  1  0.06843563  0.43156437  0.06843563  1
  Zr  Zr10  1  0.06843563  0.43156437  0.43156437  1
  Zr  Zr11  1  0.43156437  0.06843563  0.06843563  1
  Pd  Pd0  1  0.76677441  0.41107553  0.41107553  1
  Pd  Pd1  1  0.41107553  0.76677441  0.41107553  1
  Pd  Pd2  1  0.41107553  0.41107553  0.76677441  1
  Pd  Pd3  1  0.41107553  0.41107553  0.41107553  1
  Pd  Pd4  1  0.48322559  0.83892447  0.83892447  1
  Pd  Pd5  1  0.83892447  0.48322559  0.83892447  1
  Pd  Pd6  1  0.83892447  0.83892447  0.48322559  1
  Pd  Pd7  1  0.83892447  0.83892447  0.83892447  1
  N  N0  1  0.62500000  0.12500000  0.12500000  1
  N  N1  1  0.12500000  0.62500000  0.12500000  1
  N  N2  1  0.12500000  0.12500000  0.62500000  1
  N  N3  1  0.12500000  0.12500000  0.12500000  1
loop_
_geom_bond_atom_site_label_1
_geom_bond_atom_site_label_2
_geom_bond_distance
_geom_bond_site_symmetry_2
Hf0 Pd7 2.736164 1_455
Hf0 Pd3 2.736164 1_555
Hf0 Pd2 2.736169 1_555
Hf0 Pd6 2.736169 1_455
Hf0 Pd1 2.736170 1_555
Hf0 Pd5 2.736170 1_455
Hf1 Pd7 2.736164 1_545
Hf1 Pd3 2.736164 1_555
Hf1 Pd2 2.736169 1_555
Hf1 Pd6 2.736169 1_545
Hf1 Pd0 2.736169 1_555
Hf1 Pd4 2.736169 1_545
Hf2 Pd7 2.736165 1_554
Hf2 Pd3 2.736165 1_555
Hf2 Pd0 2.736169 1_555
Hf2 Pd4 2.736169 1_554
Hf2 Pd1 2.736170 1_555
Hf2 Pd5 2.736170 1_554
Hf3 Pd6 2.736162 1_555
Hf3 Pd2 2.736162 1_555
Hf3 Pd4 2.736162 1_555
Hf3 Pd0 2.736162 1_555
Hf3 Pd5 2.736162 1_555
Hf3 Pd1 2.736162 1_555
Pd0 Zr10 2.845525 1_655
Pd0 Zr7 2.845530 1_655
Pd0 Zr9 2.845530 1_655
Pd1 Zr8 2.845525 1_565
Pd1 Zr7 2.845530 1_565
Pd1 Zr11 2.845530 1_565
Pd2 Zr6 2.845525 1_556
Pd2 Zr11 2.845530 1_556
Pd2 Zr9 2.845530 1_556
Pd3 Zr8 2.845534 1_555
Pd3 Zr10 2.845534 1_555
Pd3 Zr6 2.845534 1_555
Pd4 Zr4 2.845525 1_555
Pd4 Zr1 2.845530 1_565
Pd4 Zr3 2.845530 1_556
Pd5 Zr2 2.845525 1_555
Pd5 Zr1 2.845530 1_655
Pd5 Zr5 2.845530 1_556
Pd6 Zr0 2.845525 1_555
Pd6 Zr5 2.845530 1_565
Pd6 Zr3 2.845530 1_655
Pd7 Zr2 2.845534 1_565
Pd7 Zr4 2.845534 1_655
Pd7 Zr0 2.845534 1_556
N0 Zr6 2.309198 1_555
N0 Zr0 2.309198 1_545
N0 Zr5 2.309198 1_555
N0 Zr11 2.309198 1_555
N0 Zr8 2.309198 1_555
N0 Zr2 2.309198 1_554
N1 Zr3 2.309198 1_555
N1 Zr9 2.309198 1_555
N1 Zr6 2.309198 1_555
N1 Zr0 2.309198 1_455
N1 Zr4 2.309198 1_554
N1 Zr10 2.309198 1_555
N2 Zr1 2.309198 1_555
N2 Zr7 2.309198 1_555
N2 Zr10 2.309198 1_555
N2 Zr4 2.309198 1_545
N2 Zr8 2.309198 1_555
N2 Zr2 2.309198 1_455
N3 Zr9 2.309198 1_555
N3 Zr3 2.309198 1_545
N3 Zr11 2.309198 1_555
N3 Zr5 2.309198 1_455
N3 Zr7 2.309198 1_555
N3 Zr1 2.309198 1_554
