# generated using pymatgen
data_Zr5Bi2BPb
_symmetry_space_group_name_H-M   'P 1'
_cell_length_a   8.66888061
_cell_length_b   8.66888114
_cell_length_c   5.87877735
_cell_angle_alpha   90.00000000
_cell_angle_beta   90.00000000
_cell_angle_gamma   119.89862388
_symmetry_Int_Tables_number   1
_chemical_formula_structural   Zr5Bi2BPb
_chemical_formula_sum   'Zr10 Bi4 B2 Pb2'
_cell_volume   382.98913595
_cell_formula_units_Z   2
loop_
 _symmetry_equiv_pos_site_id
 _symmetry_equiv_pos_as_xyz
  1  'x, y, z'
loop_
 _atom_site_type_symbol
 _atom_site_label
 _atom_site_symmetry_multiplicity
 _atom_site_fract_x
 _atom_site_fract_y
 _atom_site_fract_z
 _atom_site_occupancy
  Zr  Zr0  1  0.66682309  0.33387988  0.00097833  1
  Zr  Zr1  1  0.33387988  0.66682309  0.00097833  1
  Zr  Zr2  1  0.33387988  0.66682309  0.49902167  1
  Zr  Zr3  1  0.66682309  0.33387988  0.49902167  1
  Zr  Zr4  1  0.77319256  0.77319256  0.75000000  1
  Zr  Zr5  1  0.22501326  0.99887048  0.75000000  1
  Zr  Zr6  1  0.99887048  0.22501326  0.75000000  1
  Zr  Zr7  1  0.22670110  0.22670110  0.25000000  1
  Zr  Zr8  1  0.77302119  0.00248081  0.25000000  1
  Zr  Zr9  1  0.00248081  0.77302119  0.25000000  1
  Bi  Bi0  1  0.39766689  0.39766689  0.75000000  1
  Bi  Bi1  1  0.59864533  0.00065434  0.75000000  1
  Bi  Bi2  1  0.00065434  0.59864533  0.75000000  1
  Bi  Bi3  1  0.60300430  0.60300430  0.25000000  1
  B  B0  1  0.99970918  0.99970918  0.00112709  1
  B  B1  1  0.99970918  0.99970918  0.49887291  1
  Pb  Pb0  1  0.39925683  0.00066762  0.25000000  1
  Pb  Pb1  1  0.00066762  0.39925683  0.25000000  1
loop_
_geom_bond_atom_site_label_1
_geom_bond_atom_site_label_2
_geom_bond_distance
_geom_bond_site_symmetry_2
Bi0 Zr6 3.005556 1_455
Bi0 Zr5 3.005556 1_545
Bi0 Zr0 3.035322 1_556
Bi0 Zr3 3.035322 1_555
Bi0 Zr1 3.035322 1_556
Bi0 Zr2 3.035322 1_555
Bi0 Zr4 3.260374 1_555
Bi0 Zr7 3.292918 1_555
Bi0 Zr7 3.292918 1_556
Bi1 Zr6 3.015454 1_555
Bi1 Zr4 3.025262 1_545
Bi1 Zr0 3.027993 1_556
Bi1 Zr3 3.027993 1_555
Bi1 Zr1 3.032823 1_546
Bi1 Zr2 3.032823 1_545
Bi1 Zr5 3.231291 1_545
Bi1 Zr8 3.301736 1_556
Bi1 Zr8 3.301736 1_555
Bi1 Pb0 3.409961 1_555
Bi1 Pb0 3.409961 1_556
Bi2 Zr5 3.015454 1_555
Bi2 Zr4 3.025262 1_455
Bi2 Zr1 3.027993 1_556
Bi2 Zr2 3.027993 1_555
Bi2 Zr0 3.032823 1_456
Bi2 Zr3 3.032823 1_455
Bi2 Zr6 3.231292 1_455
Bi2 Zr9 3.301736 1_555
Bi2 Zr9 3.301736 1_556
Bi2 Pb1 3.409961 1_555
Bi2 Pb1 3.409961 1_556
Bi3 Zr9 3.012704 1_655
Bi3 Zr8 3.012704 1_565
Bi3 Zr2 3.029666 1_555
Bi3 Zr1 3.029666 1_555
Bi3 Zr3 3.029666 1_555
Bi3 Zr0 3.029666 1_555
Bi3 Zr7 3.267125 1_555
Bi3 Zr4 3.289880 1_554
Bi3 Zr4 3.289880 1_555
B0 Zr5 2.451217 1_654
B0 Zr6 2.451217 1_564
B0 Zr7 2.454495 1_665
B0 Zr4 2.459115 1_554
B0 Zr8 2.459666 1_565
B0 Zr9 2.459666 1_655
B1 Zr5 2.451217 1_655
B1 Zr6 2.451217 1_565
B1 Zr7 2.454495 1_665
B1 Zr4 2.459115 1_555
B1 Zr8 2.459666 1_565
B1 Zr9 2.459666 1_655
Pb0 Zr9 2.993042 1_545
Pb0 Zr7 2.999864 1_555
Pb0 Zr3 3.031102 1_555
Pb0 Zr0 3.031102 1_555
Pb0 Zr2 3.033931 1_545
Pb0 Zr1 3.033931 1_545
Pb0 Zr8 3.232312 1_555
Pb0 Zr5 3.301271 1_545
Pb0 Zr5 3.301271 1_544
Pb1 Zr8 2.993042 1_455
Pb1 Zr7 2.999864 1_555
Pb1 Zr2 3.031102 1_555
Pb1 Zr1 3.031102 1_555
Pb1 Zr3 3.033931 1_455
Pb1 Zr0 3.033931 1_455
Pb1 Zr9 3.232313 1_555
Pb1 Zr6 3.301271 1_455
Pb1 Zr6 3.301271 1_454
