# generated using pymatgen
data_Sr11(CdSb2)6
_symmetry_space_group_name_H-M   'P 1'
_cell_length_a   16.85528955
_cell_length_b   16.85528955
_cell_length_c   12.76217451
_cell_angle_alpha   70.29066612
_cell_angle_beta   70.29066612
_cell_angle_gamma   16.47703724
_symmetry_Int_Tables_number   1
_chemical_formula_structural   Sr11(CdSb2)6
_chemical_formula_sum   'Sr11 Cd6 Sb12'
_cell_volume   966.82372662
_cell_formula_units_Z   1
loop_
 _symmetry_equiv_pos_site_id
 _symmetry_equiv_pos_as_xyz
  1  'x, y, z'
loop_
 _atom_site_type_symbol
 _atom_site_label
 _atom_site_symmetry_multiplicity
 _atom_site_fract_x
 _atom_site_fract_y
 _atom_site_fract_z
 _atom_site_occupancy
  Sr  Sr0  1  0.98102100  0.98102100  0.68111500  1
  Sr  Sr1  1  0.01897900  0.01897900  0.31888500  1
  Sr  Sr2  1  0.88641600  0.88641600  0.50606400  1
  Sr  Sr3  1  0.11358400  0.11358400  0.49393600  1
  Sr  Sr4  1  0.87379200  0.87379200  0.01553500  1
  Sr  Sr5  1  0.12620800  0.12620800  0.98446500  1
  Sr  Sr6  1  0.79941900  0.79941900  0.34313600  1
  Sr  Sr7  1  0.20058100  0.20058100  0.65686400  1
  Sr  Sr8  1  0.72187200  0.72187200  0.13324900  1
  Sr  Sr9  1  0.27812800  0.27812800  0.86675100  1
  Sr  Sr10  1  0.00000000  0.00000000  0.00000000  1
  Cd  Cd0  1  0.45247100  0.45247100  0.24480600  1
  Cd  Cd1  1  0.39963000  0.39963000  0.74513700  1
  Cd  Cd2  1  0.60037000  0.60037000  0.25486300  1
  Cd  Cd3  1  0.54752900  0.54752900  0.75519400  1
  Cd  Cd4  1  0.21906500  0.21906500  0.33335300  1
  Cd  Cd5  1  0.78093500  0.78093500  0.66664700  1
  Sb  Sb0  1  0.54655900  0.54655900  0.11558600  1
  Sb  Sb1  1  0.45344100  0.45344100  0.88441400  1
  Sb  Sb2  1  0.54300700  0.54300700  0.49964900  1
  Sb  Sb3  1  0.45699300  0.45699300  0.50035100  1
  Sb  Sb4  1  0.29515200  0.29515200  0.13479800  1
  Sb  Sb5  1  0.70484800  0.70484800  0.86520200  1
  Sb  Sb6  1  0.30921700  0.30921700  0.52955700  1
  Sb  Sb7  1  0.69078300  0.69078300  0.47044300  1
  Sb  Sb8  1  0.84997100  0.84997100  0.78359500  1
  Sb  Sb9  1  0.09005400  0.09005400  0.76731600  1
  Sb  Sb10  1  0.90994600  0.90994600  0.23268400  1
  Sb  Sb11  1  0.15002900  0.15002900  0.21640500  1
loop_
_geom_bond_atom_site_label_1
_geom_bond_atom_site_label_2
_geom_bond_distance
_geom_bond_site_symmetry_2
Cd0 Sb10 2.831939 1_545
Cd0 Sb10 2.831939 1_455
Cd0 Sb0 3.007503 1_555
Cd0 Sb3 3.315755 1_555
Cd0 Sr1 3.616691 1_655
Cd0 Sr1 3.616691 1_565
Cd0 Sr10 3.838299 1_655
Cd0 Sr10 3.838299 1_565
Cd1 Sb8 2.874903 1_545
Cd1 Sb8 2.874903 1_455
Cd1 Sb1 2.925281 1_555
Cd1 Sb3 3.057338 1_555
Cd1 Sr0 3.516040 1_545
Cd1 Sr0 3.516040 1_455
Cd2 Sb11 2.874903 1_655
Cd2 Sb11 2.874903 1_565
Cd2 Sb0 2.925281 1_555
Cd2 Sb2 3.057338 1_555
Cd2 Sr1 3.516040 1_565
Cd2 Sr1 3.516040 1_655
Cd3 Sb9 2.831939 1_565
Cd3 Sb9 2.831939 1_655
Cd3 Sb1 3.007503 1_555
Cd3 Sb2 3.315755 1_555
Cd3 Sr0 3.616691 1_545
Cd3 Sr0 3.616691 1_455
Cd3 Sr10 3.838299 1_566
Cd3 Sr10 3.838299 1_656
Cd4 Sb4 2.912219 1_555
Cd4 Sb7 2.942740 1_455
Cd4 Sb7 2.942740 1_545
Cd4 Sb11 3.142493 1_555
Cd4 Sr3 3.415996 1_555
Cd4 Sr8 3.492992 1_455
Cd4 Sr8 3.492992 1_545
Cd4 Sr6 3.641983 1_455
Cd4 Sr6 3.641983 1_545
Cd4 Sr7 3.961219 1_555
Cd5 Sb5 2.912219 1_555
Cd5 Sb6 2.942740 1_655
Cd5 Sb6 2.942740 1_565
Cd5 Sb8 3.142493 1_555
Cd5 Sr2 3.415996 1_555
Cd5 Sr9 3.492992 1_565
Cd5 Sr9 3.492992 1_655
Cd5 Sr7 3.641983 1_565
Cd5 Sr7 3.641983 1_655
Cd5 Sr6 3.961219 1_555
Sb0 Sr1 3.432893 1_655
Sb0 Sr1 3.432893 1_565
Sb0 Sr10 3.461792 1_655
Sb0 Sr10 3.461792 1_565
Sb0 Sr5 3.558715 1_564
Sb0 Sr5 3.558715 1_654
Sb1 Sr0 3.432893 1_545
Sb1 Sr0 3.432893 1_455
Sb1 Sr10 3.461792 1_566
Sb1 Sr10 3.461792 1_656
Sb1 Sr4 3.558715 1_546
Sb1 Sr4 3.558715 1_456
Sb2 Sb3 2.866618 1_555
Sb2 Sr3 3.356509 1_565
Sb2 Sr3 3.356509 1_655
Sb2 Sr0 3.494216 1_545
Sb2 Sr0 3.494216 1_455
Sb2 Sr1 3.613654 1_655
Sb2 Sr1 3.613654 1_565
Sb3 Sr2 3.356509 1_455
Sb3 Sr2 3.356509 1_545
Sb3 Sr1 3.494216 1_655
Sb3 Sr1 3.494216 1_565
Sb3 Sr0 3.613654 1_545
Sb3 Sr0 3.613654 1_455
Sb4 Sr8 3.441508 1_545
Sb4 Sr8 3.441508 1_455
Sb4 Sr4 3.508859 1_545
Sb4 Sr4 3.508859 1_455
Sb4 Sr6 3.630593 1_545
Sb4 Sr6 3.630593 1_455
Sb4 Sr9 3.653636 1_554
Sb5 Sr9 3.441508 1_655
Sb5 Sr9 3.441508 1_565
Sb5 Sr5 3.508859 1_565
Sb5 Sr5 3.508859 1_655
Sb5 Sr7 3.630593 1_655
Sb5 Sr7 3.630593 1_565
Sb5 Sr8 3.653636 1_556
Sb6 Sr7 3.429670 1_555
Sb6 Sr2 3.468525 1_545
Sb6 Sr2 3.468525 1_455
Sb6 Sr6 3.482915 1_455
Sb6 Sr6 3.482915 1_545
Sb7 Sr6 3.429670 1_555
Sb7 Sr3 3.468525 1_655
Sb7 Sr3 3.468525 1_565
Sb7 Sr7 3.482915 1_655
Sb7 Sr7 3.482915 1_565
Sb8 Sr9 3.312277 1_565
Sb8 Sr9 3.312277 1_655
Sb8 Sr4 3.316145 1_556
Sb8 Sr2 3.329923 1_555
Sb9 Sr3 3.304877 1_555
Sb9 Sr5 3.378334 1_555
Sb9 Sr10 3.429929 1_556
Sb9 Sr7 3.470153 1_555
Sb10 Sr2 3.304877 1_555
Sb10 Sr4 3.378334 1_555
Sb10 Sr10 3.429929 1_665
Sb10 Sr6 3.470153 1_555
Sb11 Sr8 3.312277 1_455
Sb11 Sr8 3.312277 1_545
Sb11 Sr5 3.316145 1_554
Sb11 Sr3 3.329923 1_555
