# generated using pymatgen
data_Zr5CoBi2Pb
_symmetry_space_group_name_H-M   'P 1'
_cell_length_a   5.87850975
_cell_length_b   8.80141364
_cell_length_c   8.80141366
_cell_angle_alpha   120.18593113
_cell_angle_beta   90.00000000
_cell_angle_gamma   90.00000000
_symmetry_Int_Tables_number   1
_chemical_formula_structural   Zr5CoBi2Pb
_chemical_formula_sum   'Zr10 Co2 Bi4 Pb2'
_cell_volume   393.62802155
_cell_formula_units_Z   2
loop_
 _symmetry_equiv_pos_site_id
 _symmetry_equiv_pos_as_xyz
  1  'x, y, z'
loop_
 _atom_site_type_symbol
 _atom_site_label
 _atom_site_symmetry_multiplicity
 _atom_site_fract_x
 _atom_site_fract_y
 _atom_site_fract_z
 _atom_site_occupancy
  Zr  Zr0  1  0.75000000  0.75750810  0.75750810  1
  Zr  Zr1  1  0.25000000  0.24249190  0.24249190  1
  Zr  Zr2  1  0.75000000  0.00366769  0.24595129  1
  Zr  Zr3  1  0.25000000  0.99633231  0.75404871  1
  Zr  Zr4  1  0.75000000  0.24595129  0.00366769  1
  Zr  Zr5  1  0.25000000  0.75404871  0.99633231  1
  Zr  Zr6  1  0.00000000  0.66688890  0.33311110  1
  Zr  Zr7  1  0.00000000  0.33311110  0.66688890  1
  Zr  Zr8  1  0.50000000  0.33311110  0.66688890  1
  Zr  Zr9  1  0.50000000  0.66688890  0.33311110  1
  Co  Co0  1  0.00000000  0.00000000  0.00000000  1
  Co  Co1  1  0.50000000  0.00000000  0.00000000  1
  Bi  Bi0  1  0.75000000  0.00091386  0.60863570  1
  Bi  Bi1  1  0.25000000  0.99908614  0.39136430  1
  Bi  Bi2  1  0.75000000  0.60863570  0.00091386  1
  Bi  Bi3  1  0.25000000  0.39136430  0.99908614  1
  Pb  Pb0  1  0.75000000  0.39731796  0.39731796  1
  Pb  Pb1  1  0.25000000  0.60268204  0.60268204  1
loop_
_geom_bond_atom_site_label_1
_geom_bond_atom_site_label_2
_geom_bond_distance
_geom_bond_site_symmetry_2
Co0 Zr0 2.586376 1_444
Co0 Zr1 2.586376 1_555
Co0 Zr4 2.603187 1_455
Co0 Zr5 2.603187 1_544
Co0 Zr2 2.603187 1_455
Co0 Zr3 2.603187 1_544
Co1 Zr0 2.586376 1_544
Co1 Zr1 2.586376 1_555
Co1 Zr4 2.603187 1_555
Co1 Zr5 2.603187 1_544
Co1 Zr2 2.603187 1_555
Co1 Zr3 2.603187 1_544
Bi0 Zr0 3.021453 1_545
Bi0 Zr4 3.033009 1_556
Bi0 Zr7 3.076334 1_655
Bi0 Zr8 3.076334 1_555
Bi0 Zr6 3.084499 1_645
Bi0 Zr9 3.084499 1_545
Bi0 Zr2 3.204391 1_555
Bi0 Zr3 3.214146 1_545
Bi0 Zr3 3.214146 1_645
Bi1 Zr1 3.021453 1_565
Bi1 Zr5 3.033009 1_554
Bi1 Zr9 3.076334 1_555
Bi1 Zr6 3.076334 1_555
Bi1 Zr7 3.084499 1_565
Bi1 Zr8 3.084499 1_565
Bi1 Zr3 3.204391 1_555
Bi1 Zr2 3.214146 1_565
Bi1 Zr2 3.214146 1_465
Bi2 Zr0 3.021453 1_554
Bi2 Zr2 3.033009 1_565
Bi2 Zr6 3.076334 1_655
Bi2 Zr9 3.076334 1_555
Bi2 Zr8 3.084499 1_554
Bi2 Zr7 3.084499 1_654
Bi2 Zr4 3.204391 1_555
Bi2 Zr5 3.214146 1_554
Bi2 Zr5 3.214146 1_654
Bi3 Zr1 3.021453 1_556
Bi3 Zr3 3.033009 1_545
Bi3 Zr8 3.076334 1_555
Bi3 Zr7 3.076334 1_555
Bi3 Zr6 3.084499 1_556
Bi3 Zr9 3.084499 1_556
Bi3 Zr5 3.204391 1_555
Bi3 Zr4 3.214146 1_456
Bi3 Zr4 3.214146 1_556
Pb0 Zr2 3.022773 1_555
Pb0 Zr4 3.022773 1_555
Pb0 Zr9 3.075179 1_555
Pb0 Zr6 3.075179 1_655
Pb0 Zr7 3.075179 1_655
Pb0 Zr8 3.075179 1_555
Pb0 Zr0 3.161269 1_555
Pb0 Zr1 3.238165 1_655
Pb0 Zr1 3.238165 1_555
Pb1 Zr3 3.022773 1_555
Pb1 Zr5 3.022773 1_555
Pb1 Zr8 3.075179 1_555
Pb1 Zr7 3.075179 1_555
Pb1 Zr9 3.075179 1_555
Pb1 Zr6 3.075179 1_555
Pb1 Zr1 3.161269 1_555
Pb1 Zr0 3.238165 1_455
Pb1 Zr0 3.238165 1_555
