# generated using pymatgen
data_Ca6MgSi3Pd4
_symmetry_space_group_name_H-M   'P 1'
_cell_length_a   5.70551242
_cell_length_b   8.11924833
_cell_length_c   13.53248239
_cell_angle_alpha   90.00000000
_cell_angle_beta   90.00000000
_cell_angle_gamma   90.00000000
_symmetry_Int_Tables_number   1
_chemical_formula_structural   Ca6MgSi3Pd4
_chemical_formula_sum   'Ca12 Mg2 Si6 Pd8'
_cell_volume   626.88510439
_cell_formula_units_Z   2
loop_
 _symmetry_equiv_pos_site_id
 _symmetry_equiv_pos_as_xyz
  1  'x, y, z'
loop_
 _atom_site_type_symbol
 _atom_site_label
 _atom_site_symmetry_multiplicity
 _atom_site_fract_x
 _atom_site_fract_y
 _atom_site_fract_z
 _atom_site_occupancy
  Ca  Ca0  1  0.13555994  0.61656185  0.10451273  1
  Ca  Ca1  1  0.13555994  0.88343815  0.89548727  1
  Ca  Ca2  1  0.86444006  0.11656185  0.39548727  1
  Ca  Ca3  1  0.86444006  0.38343815  0.60451273  1
  Ca  Ca4  1  0.85839226  0.40111751  0.89309586  1
  Ca  Ca5  1  0.85839226  0.09888249  0.10690414  1
  Ca  Ca6  1  0.14160774  0.90111751  0.60690414  1
  Ca  Ca7  1  0.14160774  0.59888249  0.39309586  1
  Ca  Ca8  1  0.34717697  0.25461558  0.25136787  1
  Ca  Ca9  1  0.34717697  0.24538442  0.74863213  1
  Ca  Ca10  1  0.65282303  0.75461558  0.24863213  1
  Ca  Ca11  1  0.65282303  0.74538442  0.75136787  1
  Mg  Mg0  1  0.37604559  0.25000000  0.00000000  1
  Mg  Mg1  1  0.62395441  0.75000000  0.50000000  1
  Si  Si0  1  0.62849144  0.75000000  0.00000000  1
  Si  Si1  1  0.37150856  0.25000000  0.50000000  1
  Si  Si2  1  0.83346358  0.40452628  0.24620141  1
  Si  Si3  1  0.83346358  0.09547372  0.75379859  1
  Si  Si4  1  0.16653642  0.90452628  0.25379859  1
  Si  Si5  1  0.16653642  0.59547372  0.74620141  1
  Pd  Pd0  1  0.63433155  0.48302176  0.09037198  1
  Pd  Pd1  1  0.63433155  0.01697824  0.90962802  1
  Pd  Pd2  1  0.36566845  0.98302176  0.40962802  1
  Pd  Pd3  1  0.36566845  0.51697824  0.59037198  1
  Pd  Pd4  1  0.37818492  0.54749009  0.90655943  1
  Pd  Pd5  1  0.37818492  0.95250991  0.09344057  1
  Pd  Pd6  1  0.62181508  0.04749009  0.59344057  1
  Pd  Pd7  1  0.62181508  0.45250991  0.40655943  1
loop_
_geom_bond_atom_site_label_1
_geom_bond_atom_site_label_2
_geom_bond_distance
_geom_bond_site_symmetry_2
Ca0 Pd0 3.051309 1_555
Ca0 Pd5 3.062481 1_555
Ca0 Pd0 3.064386 1_455
Ca0 Pd4 3.067044 1_554
Ca0 Si4 3.094992 1_555
Ca0 Si2 3.100172 1_455
Ca1 Pd1 3.051309 1_565
Ca1 Pd4 3.062481 1_555
Ca1 Pd1 3.064386 1_465
Ca1 Pd5 3.067044 1_556
Ca1 Si5 3.094992 1_555
Ca1 Si3 3.100172 1_465
Ca2 Pd2 3.051309 1_545
Ca2 Pd7 3.062481 1_555
Ca2 Pd2 3.064386 1_645
Ca2 Pd6 3.067044 1_555
Ca2 Si2 3.094992 1_555
Ca2 Si4 3.100172 1_645
Ca3 Pd3 3.051309 1_555
Ca3 Pd6 3.062481 1_555
Ca3 Pd3 3.064386 1_655
Ca3 Pd7 3.067044 1_555
Ca3 Si3 3.094992 1_555
Ca3 Si5 3.100172 1_655
Ca4 Pd4 2.992029 1_555
Ca4 Pd0 3.033717 1_556
Ca4 Si5 3.087505 1_655
Ca4 Si3 3.119603 1_555
Ca4 Pd4 3.200133 1_655
Ca4 Mg0 3.342455 1_556
Ca4 Pd1 3.378163 1_555
Ca4 Si0 3.440556 1_556
Ca4 Mg0 3.510177 1_656
Ca5 Pd5 2.992029 1_545
Ca5 Pd1 3.033717 1_554
Ca5 Si4 3.087505 1_645
Ca5 Si2 3.119603 1_555
Ca5 Pd5 3.200133 1_645
Ca5 Mg0 3.342455 1_555
Ca5 Pd0 3.378163 1_555
Ca5 Si0 3.440556 1_545
Ca5 Mg0 3.510177 1_655
Ca6 Pd6 2.992029 1_565
Ca6 Pd2 3.033717 1_555
Ca6 Si3 3.087505 1_465
Ca6 Si5 3.119603 1_555
Ca6 Pd6 3.200133 1_465
Ca6 Mg1 3.342455 1_555
Ca6 Pd3 3.378163 1_555
Ca6 Si1 3.440556 1_565
Ca6 Mg1 3.510177 1_455
Ca7 Pd7 2.992029 1_555
Ca7 Pd3 3.033717 1_555
Ca7 Si2 3.087505 1_455
Ca7 Si4 3.119603 1_555
Ca7 Pd7 3.200133 1_455
Ca7 Mg1 3.342455 1_555
Ca7 Pd2 3.378163 1_555
Ca7 Si1 3.440556 1_555
Ca7 Mg1 3.510177 1_455
Ca8 Si4 3.023724 1_545
Ca8 Si2 3.030561 1_555
Ca8 Pd7 3.073683 1_555
Ca8 Pd2 3.075783 1_545
Ca8 Si2 3.174448 1_455
Ca8 Pd5 3.258110 1_545
Ca8 Pd0 3.296965 1_555
Ca8 Si1 3.367681 1_555
Ca8 Mg0 3.405823 1_555
Ca9 Si5 3.023724 1_555
Ca9 Si3 3.030561 1_555
Ca9 Pd6 3.073683 1_555
Ca9 Pd3 3.075783 1_555
Ca9 Si3 3.174448 1_455
Ca9 Pd4 3.258110 1_555
Ca9 Pd1 3.296965 1_555
Ca9 Si1 3.367681 1_555
Ca9 Mg0 3.405823 1_556
Ca10 Si2 3.023724 1_555
Ca10 Si4 3.030561 1_555
Ca10 Pd5 3.073683 1_555
Ca10 Pd0 3.075783 1_555
Ca10 Si4 3.174448 1_655
Ca10 Pd7 3.258110 1_555
Ca10 Pd2 3.296965 1_555
Ca10 Si0 3.367681 1_555
Ca10 Mg1 3.405823 1_555
Ca11 Si3 3.023724 1_565
Ca11 Si5 3.030561 1_555
Ca11 Pd4 3.073683 1_555
Ca11 Pd1 3.075783 1_565
Ca11 Si5 3.174448 1_655
Ca11 Pd6 3.258110 1_565
Ca11 Pd3 3.296965 1_555
Ca11 Si0 3.367681 1_556
Ca11 Mg1 3.405823 1_555
Mg0 Pd0 2.691988 1_555
Mg0 Pd1 2.691988 1_554
Mg0 Pd4 2.726390 1_554
Mg0 Pd5 2.726390 1_545
Mg1 Pd3 2.691988 1_555
Mg1 Pd2 2.691988 1_555
Mg1 Pd6 2.726390 1_565
Mg1 Pd7 2.726390 1_555
Pd0 Si2 2.478686 1_555
Pd0 Si0 2.489075 1_555
Pd0 Pd4 2.932093 1_554
Pd1 Si3 2.478686 1_555
Pd1 Si0 2.489075 1_546
Pd1 Pd5 2.932093 1_546
Pd2 Si4 2.478686 1_555
Pd2 Si1 2.489075 1_565
Pd2 Pd6 2.932093 1_565
Pd3 Si5 2.478686 1_555
Pd3 Si1 2.489075 1_555
Pd3 Pd7 2.932093 1_555
Pd4 Si5 2.513777 1_555
Pd4 Si0 2.518323 1_556
Pd5 Si4 2.513777 1_555
Pd5 Si0 2.518323 1_555
Pd6 Si3 2.513777 1_555
Pd6 Si1 2.518323 1_555
Pd7 Si2 2.513777 1_555
Pd7 Si1 2.518323 1_555
