# generated using pymatgen
data_Sn4PtRh5
_symmetry_space_group_name_H-M   'P 1'
_cell_length_a   5.57843269
_cell_length_b   7.34296882
_cell_length_c   8.58166057
_cell_angle_alpha   90.00000000
_cell_angle_beta   90.23930726
_cell_angle_gamma   90.00000000
_symmetry_Int_Tables_number   1
_chemical_formula_structural   Sn4PtRh5
_chemical_formula_sum   'Sn8 Pt2 Rh10'
_cell_volume   351.52112230
_cell_formula_units_Z   2
loop_
 _symmetry_equiv_pos_site_id
 _symmetry_equiv_pos_as_xyz
  1  'x, y, z'
loop_
 _atom_site_type_symbol
 _atom_site_label
 _atom_site_symmetry_multiplicity
 _atom_site_fract_x
 _atom_site_fract_y
 _atom_site_fract_z
 _atom_site_occupancy
  Sn  Sn0  1  0.75329849  0.91028046  0.85312389  1
  Sn  Sn1  1  0.74670151  0.41028046  0.64687611  1
  Sn  Sn2  1  0.25416026  0.10184617  0.13922600  1
  Sn  Sn3  1  0.24583974  0.60184617  0.36077400  1
  Sn  Sn4  1  0.74591329  0.93524813  0.40958439  1
  Sn  Sn5  1  0.75408671  0.43524813  0.09041561  1
  Sn  Sn6  1  0.25634366  0.06006456  0.59691927  1
  Sn  Sn7  1  0.24365634  0.56006456  0.90308073  1
  Pt  Pt0  1  0.99809731  0.25257017  0.37973269  1
  Pt  Pt1  1  0.50190269  0.75257017  0.12026731  1
  Rh  Rh0  1  0.74487170  0.58432654  0.36981917  1
  Rh  Rh1  1  0.75512830  0.08432654  0.13018083  1
  Rh  Rh2  1  0.24829195  0.41210458  0.62653740  1
  Rh  Rh3  1  0.25170805  0.91210458  0.87346260  1
  Rh  Rh4  1  0.49842016  0.74589402  0.62298059  1
  Rh  Rh5  1  0.00157984  0.24589402  0.87701941  1
  Rh  Rh6  1  0.00380831  0.74958303  0.61942162  1
  Rh  Rh7  1  0.49619169  0.24958303  0.88057838  1
  Rh  Rh8  1  0.50182352  0.24808234  0.38091518  1
  Rh  Rh9  1  0.99817648  0.74808234  0.11908482  1
loop_
_geom_bond_atom_site_label_1
_geom_bond_atom_site_label_2
_geom_bond_distance
_geom_bond_site_symmetry_2
Pt0 Sn4 2.734410 1_545
Pt0 Sn6 2.743158 1_655
Pt0 Sn2 2.747697 1_655
Pt0 Rh8 2.768687 1_555
Pt0 Rh2 2.789530 1_655
Pt0 Rh8 2.810172 1_655
Pt0 Rh1 2.815205 1_555
Pt0 Rh0 2.817117 1_555
Pt0 Sn3 2.918238 1_655
Pt0 Sn1 2.930936 1_555
Pt0 Sn5 3.128638 1_555
Pt1 Sn5 2.734410 1_555
Pt1 Sn7 2.743158 1_554
Pt1 Sn3 2.747697 1_555
Pt1 Rh9 2.768687 1_555
Pt1 Rh3 2.789530 1_554
Pt1 Rh9 2.810172 1_455
Pt1 Rh0 2.815205 1_555
Pt1 Rh1 2.817117 1_565
Pt1 Sn2 2.918238 1_565
Pt1 Sn0 2.930936 1_554
Pt1 Sn4 3.128638 1_555
Rh0 Sn4 2.599308 1_555
Rh0 Sn5 2.636509 1_555
Rh0 Sn1 2.699305 1_555
Rh0 Sn3 2.787544 1_555
Rh0 Sn3 2.798976 1_655
Rh0 Rh8 2.818604 1_555
Rh0 Rh4 2.835935 1_555
Rh0 Rh9 2.845676 1_555
Rh0 Rh6 2.849792 1_655
Rh1 Sn5 2.599308 1_555
Rh1 Sn4 2.636509 1_545
Rh1 Sn0 2.699305 1_544
Rh1 Sn2 2.787544 1_655
Rh1 Sn2 2.798976 1_555
Rh1 Rh9 2.818604 1_545
Rh1 Rh5 2.835935 1_654
Rh1 Rh8 2.845676 1_555
Rh1 Rh7 2.849792 1_554
Rh2 Sn6 2.597891 1_555
Rh2 Sn7 2.610301 1_555
Rh2 Sn3 2.672578 1_555
Rh2 Sn1 2.785122 1_555
Rh2 Sn1 2.804286 1_455
Rh2 Rh8 2.814035 1_555
Rh2 Rh4 2.820575 1_555
Rh2 Rh6 2.829139 1_555
Rh2 Rh5 2.833543 1_555
Rh2 Rh7 2.839753 1_555
Rh3 Sn7 2.597891 1_555
Rh3 Sn6 2.610301 1_565
Rh3 Sn2 2.672578 1_566
Rh3 Sn0 2.785122 1_455
Rh3 Sn0 2.804286 1_555
Rh3 Rh9 2.814035 1_456
Rh3 Rh5 2.820575 1_565
Rh3 Rh7 2.829139 1_565
Rh3 Rh4 2.833543 1_555
Rh3 Rh6 2.839753 1_555
Rh4 Sn6 2.681994 1_565
Rh4 Sn4 2.685917 1_555
Rh4 Sn0 2.712166 1_555
Rh4 Rh6 2.759333 1_555
Rh4 Rh6 2.819697 1_655
Rh4 Sn1 2.833942 1_555
Rh4 Sn3 2.853221 1_555
Rh4 Sn7 3.112580 1_555
Rh5 Sn7 2.681994 1_555
Rh5 Sn5 2.685917 1_456
Rh5 Sn1 2.712166 1_455
Rh5 Rh7 2.759333 1_555
Rh5 Rh7 2.819697 1_455
Rh5 Sn0 2.833942 1_445
Rh5 Sn2 2.853221 1_556
Rh5 Sn6 3.112580 1_555
Rh6 Sn4 2.673847 1_455
Rh6 Sn6 2.687357 1_565
Rh6 Sn0 2.718625 1_455
Rh6 Sn3 2.819848 1_555
Rh6 Sn1 2.884949 1_455
Rh6 Sn7 3.102459 1_555
Rh7 Sn5 2.673847 1_556
Rh7 Sn7 2.687357 1_555
Rh7 Sn1 2.718625 1_555
Rh7 Sn2 2.819848 1_556
Rh7 Sn0 2.884949 1_545
Rh7 Sn6 3.102459 1_555
Rh8 Sn4 2.681158 1_545
Rh8 Sn6 2.690470 1_555
Rh8 Sn2 2.709195 1_555
Rh8 Sn1 2.909951 1_555
Rh8 Sn3 2.968988 1_555
Rh8 Sn5 3.180149 1_555
Rh9 Sn5 2.681158 1_555
Rh9 Sn7 2.690470 1_654
Rh9 Sn3 2.709195 1_655
Rh9 Sn0 2.909951 1_554
Rh9 Sn2 2.968988 1_665
Rh9 Sn4 3.180149 1_555
