# generated using pymatgen
data_Ca2FeReO6
_symmetry_space_group_name_H-M   'P 1'
_cell_length_a   5.38510141
_cell_length_b   9.47742997
_cell_length_c   9.47713667
_cell_angle_alpha   71.78998146
_cell_angle_beta   90.13026304
_cell_angle_gamma   90.12641162
_symmetry_Int_Tables_number   1
_chemical_formula_structural   Ca2FeReO6
_chemical_formula_sum   'Ca8 Fe4 Re4 O24'
_cell_volume   459.45798819
_cell_formula_units_Z   4
loop_
 _symmetry_equiv_pos_site_id
 _symmetry_equiv_pos_as_xyz
  1  'x, y, z'
loop_
 _atom_site_type_symbol
 _atom_site_label
 _atom_site_symmetry_multiplicity
 _atom_site_fract_x
 _atom_site_fract_y
 _atom_site_fract_z
 _atom_site_occupancy
  Ca  Ca0  1  0.01240285  0.15034058  0.09861997  1
  Ca  Ca1  1  0.01237771  0.65039458  0.59865002  1
  Ca  Ca2  1  0.48754772  0.40135422  0.84964681  1
  Ca  Ca3  1  0.48753221  0.90135167  0.34959384  1
  Ca  Ca4  1  0.98761714  0.84962843  0.90136822  1
  Ca  Ca5  1  0.98760664  0.34964016  0.40135769  1
  Ca  Ca6  1  0.51244132  0.59867107  0.15038637  1
  Ca  Ca7  1  0.51247455  0.09862095  0.65038448  1
  Fe  Fe0  1  0.00000463  0.74999775  0.25001035  1
  Fe  Fe1  1  0.50000550  0.74999961  0.74999894  1
  Fe  Fe2  1  -0.00000590  0.25000744  0.74999004  1
  Fe  Fe3  1  0.49999549  0.24999520  0.24999953  1
  Re  Re0  1  0.50003947  0.00000835  0.00000598  1
  Re  Re1  1  0.49996172  0.49999367  0.49999240  1
  Re  Re2  1  -0.00002610  0.49999381  -0.00002839  1
  Re  Re3  1  0.00002419  0.00000782  0.50002926  1
  O  O0  1  0.08536568  0.63535817  0.11011699  1
  O  O1  1  0.08539259  0.13532122  0.61011091  1
  O  O2  1  0.41459328  0.38990886  0.36466331  1
  O  O3  1  0.41461375  0.88988494  0.86468198  1
  O  O4  1  0.91461815  0.36465489  0.88990931  1
  O  O5  1  0.91462392  0.86466450  0.38986962  1
  O  O6  1  0.58537129  0.61009887  0.63533370  1
  O  O7  1  0.58542647  0.11010512  0.13531626  1
  O  O8  1  0.79237069  0.57809694  0.37745141  1
  O  O9  1  0.79242248  0.07806916  0.87748972  1
  O  O10  1  0.70758662  0.62253264  0.92189447  1
  O  O11  1  0.70759112  0.12251251  0.42190866  1
  O  O12  1  0.20759261  0.42192972  0.62252227  1
  O  O13  1  0.20762014  0.92190717  0.12252996  1
  O  O14  1  0.29239078  0.37746590  0.07809843  1
  O  O15  1  0.29242230  0.87748387  0.57810316  1
  O  O16  1  0.30307972  0.16816773  0.87750842  1
  O  O17  1  0.30305830  0.66820004  0.37748456  1
  O  O18  1  0.19691483  0.62250142  0.83181362  1
  O  O19  1  0.19694511  0.12248592  0.33178041  1
  O  O20  1  0.80303190  0.37751699  0.16818973  1
  O  O21  1  0.80309893  0.87749861  0.66821857  1
  O  O22  1  0.69697629  0.83182911  0.12249315  1
  O  O23  1  0.69689393  0.33180543  0.62250887  1
loop_
_geom_bond_atom_site_label_1
_geom_bond_atom_site_label_2
_geom_bond_distance
_geom_bond_site_symmetry_2
Ca0 O7 2.338819 1_455
Ca0 O13 2.354976 1_545
Ca0 O19 2.359368 1_555
Ca0 O4 2.409201 1_454
Ca0 O16 2.581161 1_554
Ca0 O14 2.582647 1_555
Ca0 O9 2.673318 1_454
Ca0 O20 2.691256 1_455
Ca1 O6 2.339031 1_455
Ca1 O12 2.355304 1_555
Ca1 O18 2.359318 1_555
Ca1 O5 2.409286 1_455
Ca1 O17 2.581617 1_555
Ca1 O15 2.582505 1_555
Ca1 O8 2.674065 1_455
Ca1 O21 2.690439 1_455
Ca2 O4 2.339300 1_555
Ca2 O14 2.355034 1_556
Ca2 O16 2.359544 1_555
Ca2 O6 2.409476 1_555
Ca2 O18 2.581234 1_555
Ca2 O12 2.582298 1_555
Ca2 O10 2.673826 1_555
Ca2 O23 2.690775 1_555
Ca3 O5 2.339416 1_555
Ca3 O15 2.355445 1_555
Ca3 O17 2.359210 1_555
Ca3 O7 2.409408 1_565
Ca3 O19 2.581023 1_565
Ca3 O13 2.581733 1_555
Ca3 O11 2.674048 1_565
Ca3 O22 2.690564 1_555
Ca4 O3 2.338939 1_655
Ca4 O9 2.355040 1_565
Ca4 O21 2.359195 1_555
Ca4 O0 2.409115 1_656
Ca4 O22 2.581194 1_556
Ca4 O10 2.582546 1_555
Ca4 O13 2.673664 1_656
Ca4 O18 2.690608 1_655
Ca5 O2 2.338907 1_655
Ca5 O8 2.355225 1_555
Ca5 O20 2.359468 1_555
Ca5 O1 2.409453 1_655
Ca5 O23 2.581563 1_555
Ca5 O11 2.582701 1_555
Ca5 O12 2.673698 1_655
Ca5 O19 2.691033 1_655
Ca6 O0 2.339324 1_555
Ca6 O10 2.355395 1_554
Ca6 O22 2.359398 1_555
Ca6 O2 2.409396 1_555
Ca6 O20 2.581201 1_555
Ca6 O8 2.581763 1_555
Ca6 O14 2.674263 1_555
Ca6 O17 2.690435 1_555
Ca7 O1 2.339374 1_555
Ca7 O11 2.355135 1_555
Ca7 O23 2.359393 1_555
Ca7 O3 2.409387 1_545
Ca7 O21 2.581018 1_545
Ca7 O9 2.582168 1_555
Ca7 O15 2.673679 1_545
Ca7 O16 2.690759 1_555
Fe0 O5 2.013587 1_455
Fe0 O0 2.013638 1_555
Fe0 O8 2.032598 1_455
Fe0 O13 2.032722 1_555
Fe0 O17 2.033490 1_555
Fe0 O22 2.033636 1_455
Fe1 O6 2.013888 1_555
Fe1 O3 2.013926 1_555
Fe1 O10 2.032373 1_555
Fe1 O15 2.032437 1_555
Fe1 O21 2.033860 1_555
Fe1 O18 2.033909 1_555
Fe2 O1 2.013903 1_555
Fe2 O4 2.013915 1_455
Fe2 O12 2.032706 1_555
Fe2 O9 2.032824 1_455
Fe2 O23 2.033722 1_455
Fe2 O16 2.033904 1_555
Fe3 O7 2.014013 1_555
Fe3 O2 2.014025 1_555
Fe3 O14 2.032487 1_555
Fe3 O11 2.032546 1_555
Fe3 O19 2.033721 1_555
Fe3 O20 2.033771 1_555
O0 Re2 1.944005 1_555
O1 Re3 1.943128 1_555
O2 Re1 1.943261 1_555
O3 Re0 1.943565 1_566
O4 Re2 1.943176 1_656
O5 Re3 1.943952 1_665
O6 Re1 1.943552 1_555
O7 Re0 1.943221 1_555
O8 Re1 1.960115 1_555
O9 Re0 1.959814 1_556
O10 Re2 1.959874 1_656
O11 Re3 1.959997 1_655
O12 Re1 1.959821 1_555
O13 Re0 1.960079 1_565
O14 Re2 1.960043 1_555
O15 Re3 1.959848 1_565
O16 Re0 1.964218 1_556
O17 Re1 1.964366 1_555
O18 Re2 1.964268 1_556
O19 Re3 1.964656 1_555
O20 Re2 1.964531 1_655
O21 Re3 1.964414 1_665
O22 Re0 1.964236 1_565
O23 Re1 1.964370 1_555
