# generated using pymatgen
data_ScAlInNi3
_symmetry_space_group_name_H-M   'P 1'
_cell_length_a   4.82987993
_cell_length_b   4.82988040
_cell_length_c   4.82988046
_cell_angle_alpha   62.69071258
_cell_angle_beta   62.69070160
_cell_angle_gamma   62.69071466
_symmetry_Int_Tables_number   1
_chemical_formula_structural   ScAlInNi3
_chemical_formula_sum   'Sc1 Al1 In1 Ni3'
_cell_volume   84.44025900
_cell_formula_units_Z   1
loop_
 _symmetry_equiv_pos_site_id
 _symmetry_equiv_pos_as_xyz
  1  'x, y, z'
loop_
 _atom_site_type_symbol
 _atom_site_label
 _atom_site_symmetry_multiplicity
 _atom_site_fract_x
 _atom_site_fract_y
 _atom_site_fract_z
 _atom_site_occupancy
  Sc  Sc0  1  0.25029374  0.25029374  0.25029374  1
  Al  Al0  1  0.62429459  0.62429459  0.62429459  1
  In  In0  1  0.99915349  0.99915349  0.99915349  1
  Ni  Ni0  1  0.62607102  0.62607102  0.12411515  1
  Ni  Ni1  1  0.62607102  0.12411515  0.62607102  1
  Ni  Ni2  1  0.12411515  0.62607102  0.62607102  1
loop_
_geom_bond_atom_site_label_1
_geom_bond_atom_site_label_2
_geom_bond_distance
_geom_bond_site_symmetry_2
Al0 Ni2 2.407966 1_555
Al0 Ni1 2.407966 1_555
Al0 Ni0 2.407966 1_555
Al0 Ni2 2.421978 1_655
Al0 Ni1 2.421978 1_565
Al0 Ni0 2.421978 1_556
Al0 Sc0 2.939165 1_556
Al0 Sc0 2.939165 1_655
Al0 Sc0 2.939166 1_565
Al0 In0 2.940775 1_554
Al0 In0 2.940775 1_455
Al0 In0 2.940775 1_545
In0 Ni0 2.800324 1_556
In0 Ni2 2.800324 1_655
In0 Ni1 2.800324 1_565
In0 Ni1 2.907254 1_665
In0 Ni1 2.907254 1_566
In0 Ni2 2.907254 1_665
In0 Ni0 2.907254 1_656
In0 Ni0 2.907254 1_566
In0 Ni2 2.907254 1_656
In0 Sc0 2.909316 1_666
In0 Sc0 3.053417 1_566
In0 Sc0 3.053417 1_665
In0 Sc0 3.053418 1_656
Ni0 Ni2 2.502653 1_654
Ni0 Ni1 2.502653 1_564
Ni0 Ni2 2.522309 1_555
Ni0 Ni1 2.522310 1_555
Ni0 Sc0 2.819982 1_555
Ni0 Sc0 2.899181 1_655
Ni0 Sc0 2.899181 1_565
Ni1 Ni2 2.502653 1_645
Ni1 Ni2 2.522309 1_555
Ni1 Sc0 2.819982 1_555
Ni1 Sc0 2.899181 1_655
Ni1 Sc0 2.899181 1_556
Ni2 Sc0 2.819982 1_555
Ni2 Sc0 2.899181 1_565
Ni2 Sc0 2.899181 1_556
