# generated using pymatgen
data_Na16ZrGeP8
_symmetry_space_group_name_H-M   'P 1'
_cell_length_a   9.53498288
_cell_length_b   9.53498338
_cell_length_c   9.53498290
_cell_angle_alpha   60.00000168
_cell_angle_beta   59.99999993
_cell_angle_gamma   59.99999780
_symmetry_Int_Tables_number   1
_chemical_formula_structural   Na16ZrGeP8
_chemical_formula_sum   'Na16 Zr1 Ge1 P8'
_cell_volume   612.97784374
_cell_formula_units_Z   1
loop_
 _symmetry_equiv_pos_site_id
 _symmetry_equiv_pos_as_xyz
  1  'x, y, z'
loop_
 _atom_site_type_symbol
 _atom_site_label
 _atom_site_symmetry_multiplicity
 _atom_site_fract_x
 _atom_site_fract_y
 _atom_site_fract_z
 _atom_site_occupancy
  Na  Na0  1  0.62961968  0.62961968  0.11113995  1
  Na  Na1  1  0.62961968  0.11113995  0.62961968  1
  Na  Na2  1  0.11113995  0.62961968  0.62961968  1
  Na  Na3  1  0.62961968  0.62961968  0.62961968  1
  Na  Na4  1  0.03142637  0.46857363  0.46857363  1
  Na  Na5  1  0.77303773  0.22696227  0.22696227  1
  Na  Na6  1  0.46857363  0.03142637  0.46857363  1
  Na  Na7  1  0.46857363  0.46857363  0.03142637  1
  Na  Na8  1  0.03142637  0.03142637  0.46857363  1
  Na  Na9  1  0.03142637  0.46857363  0.03142637  1
  Na  Na10  1  0.46857363  0.03142637  0.03142637  1
  Na  Na11  1  0.77303773  0.22696227  0.77303773  1
  Na  Na12  1  0.22696227  0.77303773  0.22696227  1
  Na  Na13  1  0.22696227  0.22696227  0.77303773  1
  Na  Na14  1  0.77303773  0.77303773  0.22696227  1
  Na  Na15  1  0.22696227  0.77303773  0.77303773  1
  Zr  Zr0  1  0.50000000  0.50000000  0.50000000  1
  Ge  Ge0  1  0.75000000  0.75000000  0.75000000  1
  P  P0  1  0.85321893  0.85321893  0.44034621  1
  P  P1  1  0.85321893  0.44034621  0.85321893  1
  P  P2  1  0.39211318  0.39211318  0.82365947  1
  P  P3  1  0.39211318  0.82365947  0.39211318  1
  P  P4  1  0.82365947  0.39211318  0.39211318  1
  P  P5  1  0.85321893  0.85321893  0.85321893  1
  P  P6  1  0.44034621  0.85321893  0.85321893  1
  P  P7  1  0.39211318  0.39211318  0.39211318  1
loop_
_geom_bond_atom_site_label_1
_geom_bond_atom_site_label_2
_geom_bond_distance
_geom_bond_site_symmetry_2
Na0 Zr0 3.027385 1_555
Na0 P1 3.032808 1_554
Na0 P6 3.032808 1_554
Na0 P5 3.032833 1_554
Na0 P3 3.229363 1_555
Na0 P4 3.229363 1_555
Na0 P7 3.229363 1_555
Na1 Zr0 3.027385 1_555
Na1 P0 3.032808 1_545
Na1 P6 3.032808 1_545
Na1 P5 3.032833 1_545
Na1 P2 3.229363 1_555
Na1 P7 3.229363 1_555
Na1 P4 3.229363 1_555
Na2 Zr0 3.027385 1_555
Na2 P0 3.032808 1_455
Na2 P1 3.032808 1_455
Na2 P5 3.032833 1_455
Na2 P7 3.229363 1_555
Na2 P2 3.229363 1_555
Na2 P3 3.229363 1_555
Na3 Zr0 3.027377 1_555
Na3 P1 3.032837 1_555
Na3 P6 3.032837 1_555
Na3 P0 3.032837 1_555
Na3 P3 3.229363 1_555
Na3 P4 3.229363 1_555
Na3 P2 3.229363 1_555
Na4 P7 2.899592 1_555
Na4 P4 2.899601 1_455
Na4 P1 3.106310 1_455
Na4 P0 3.106310 1_455
Na5 P1 3.000676 1_554
Na5 P0 3.000676 1_545
Na5 P4 3.031877 1_555
Na5 P7 3.031883 1_555
Na6 P7 2.899592 1_555
Na6 P3 2.899601 1_545
Na6 P0 3.106310 1_545
Na6 P6 3.106310 1_545
Na7 P7 2.899592 1_555
Na7 P2 2.899601 1_554
Na7 P1 3.106310 1_554
Na7 P6 3.106310 1_554
Na8 P3 2.899594 1_545
Na8 P4 2.899594 1_455
Na8 P0 3.106285 1_445
Na8 P5 3.106303 1_445
Na9 P2 2.899594 1_554
Na9 P4 2.899594 1_455
Na9 P1 3.106285 1_454
Na9 P5 3.106303 1_454
Na10 P3 2.899594 1_545
Na10 P2 2.899594 1_554
Na10 P6 3.106285 1_544
Na10 P5 3.106303 1_544
Na11 P5 3.000670 1_545
Na11 P1 3.000696 1_555
Na11 P2 3.031885 1_555
Na11 P4 3.031885 1_555
Na12 P0 3.000676 1_455
Na12 P6 3.000676 1_554
Na12 P3 3.031877 1_555
Na12 P7 3.031883 1_555
Na13 P1 3.000676 1_455
Na13 P6 3.000676 1_545
Na13 P2 3.031877 1_555
Na13 P7 3.031883 1_555
Na14 P5 3.000670 1_554
Na14 P0 3.000696 1_555
Na14 P3 3.031885 1_555
Na14 P4 3.031885 1_555
Na15 P5 3.000670 1_455
Na15 P6 3.000696 1_555
Na15 P3 3.031885 1_555
Na15 P2 3.031885 1_555
Ge0 P6 2.410742 1_555
Ge0 P0 2.410742 1_555
Ge0 P1 2.410742 1_555
Ge0 P5 2.410765 1_555
Ge0 Na2 2.811576 1_655
Ge0 Na0 2.811576 1_556
Ge0 Na1 2.811576 1_565
Ge0 Na3 2.811584 1_555
P2 Zr0 2.519780 1_555
P3 Zr0 2.519780 1_555
P4 Zr0 2.519780 1_555
P7 Zr0 2.519788 1_555
