# generated using pymatgen
data_Y6Ti5Al11Ir7
_symmetry_space_group_name_H-M   'P 1'
_cell_length_a   8.97618556
_cell_length_b   8.97618623
_cell_length_c   8.94705060
_cell_angle_alpha   59.89221475
_cell_angle_beta   59.89221053
_cell_angle_gamma   60.00000317
_symmetry_Int_Tables_number   1
_chemical_formula_structural   Y6Ti5Al11Ir7
_chemical_formula_sum   'Y6 Ti5 Al11 Ir7'
_cell_volume   508.90779480
_cell_formula_units_Z   1
loop_
 _symmetry_equiv_pos_site_id
 _symmetry_equiv_pos_as_xyz
  1  'x, y, z'
loop_
 _atom_site_type_symbol
 _atom_site_label
 _atom_site_symmetry_multiplicity
 _atom_site_fract_x
 _atom_site_fract_y
 _atom_site_fract_z
 _atom_site_occupancy
  Y  Y0  1  0.70424548  0.70424548  0.29836246  1
  Y  Y1  1  0.29314657  0.70424548  0.29836246  1
  Y  Y2  1  0.70424548  0.29314657  0.29836246  1
  Y  Y3  1  0.29823888  0.29823888  0.70450658  1
  Y  Y4  1  0.69901566  0.29823888  0.70450658  1
  Y  Y5  1  0.29823888  0.69901566  0.70450658  1
  Ti  Ti0  1  0.88068016  0.88068016  0.35796151  1
  Ti  Ti1  1  0.87856979  0.36064110  0.88222032  1
  Ti  Ti2  1  0.36064110  0.87856979  0.88222032  1
  Ti  Ti3  1  0.87856979  0.87856979  0.88222032  1
  Ti  Ti4  1  0.12349498  0.12349498  0.62951506  1
  Al  Al0  1  0.11834573  0.64308092  0.12022662  1
  Al  Al1  1  0.64308092  0.11834573  0.12022662  1
  Al  Al2  1  0.11834573  0.11834573  0.12022662  1
  Al  Al3  1  0.66909294  0.66909294  0.99271917  1
  Al  Al4  1  0.66990812  0.99048252  0.66969924  1
  Al  Al5  1  0.99048252  0.66990812  0.66969924  1
  Al  Al6  1  0.66990812  0.66990812  0.66969924  1
  Al  Al7  1  0.32792903  0.32792903  0.01621391  1
  Al  Al8  1  0.32905252  0.01659286  0.32530310  1
  Al  Al9  1  0.01659286  0.32905252  0.32530310  1
  Al  Al10  1  0.32905252  0.32905252  0.32530310  1
  Ir  Ir0  1  0.00434505  0.00434505  0.98696384  1
  Ir  Ir1  1  0.99864147  0.99864147  0.50498702  1
  Ir  Ir2  1  0.49773104  0.99864147  0.50498702  1
  Ir  Ir3  1  0.99864147  0.49773104  0.50498702  1
  Ir  Ir4  1  0.50043444  0.50043444  0.00023783  1
  Ir  Ir5  1  0.99889429  0.50043444  0.00023783  1
  Ir  Ir6  1  0.50043444  0.99889429  0.00023783  1
loop_
_geom_bond_atom_site_label_1
_geom_bond_atom_site_label_2
_geom_bond_distance
_geom_bond_site_symmetry_2
Y0 Y5 3.633468 1_555
Y0 Y4 3.633468 1_555
Y0 Y1 3.690100 1_555
Y0 Y2 3.690100 1_555
Y1 Y3 3.633468 1_555
Y1 Y5 3.633468 1_555
Y1 Y2 3.690100 1_555
Y2 Y3 3.633468 1_555
Y2 Y4 3.633468 1_555
Y3 Y4 3.597447 1_555
Y3 Y5 3.597447 1_555
Y4 Y5 3.597447 1_555
Ti0 Y1 3.082717 1_655
Ti0 Y2 3.082717 1_565
Ti0 Y0 3.082732 1_555
Ti1 Y2 3.085136 1_556
Ti1 Ti4 3.104564 1_655
Ti1 Y3 3.131571 1_655
Ti1 Y4 3.131580 1_555
Ti2 Y1 3.085136 1_556
Ti2 Ti4 3.104565 1_565
Ti2 Y3 3.131572 1_565
Ti2 Y5 3.131580 1_555
Ti3 Y0 3.085137 1_556
Ti3 Ti4 3.104558 1_665
Ti3 Y5 3.131573 1_655
Ti3 Y4 3.131573 1_565
Ti4 Y4 3.153213 1_455
Ti4 Y3 3.153213 1_555
Ti4 Y5 3.153213 1_545
Al0 Ir0 2.647845 1_564
Al0 Ir5 2.801502 1_455
Al0 Ir4 2.801516 1_555
Al0 Al9 2.801916 1_555
Al0 Al10 2.801925 1_555
Al0 Ir3 2.809323 1_455
Al0 Al7 2.823211 1_555
Al0 Ti0 3.012109 1_455
Al0 Ti3 3.027825 1_454
Al0 Ti2 3.027838 1_554
Al0 Y0 3.090573 1_455
Al0 Y1 3.090581 1_555
Al0 Y5 3.099283 1_554
Al1 Ir0 2.647844 1_654
Al1 Ir6 2.801502 1_545
Al1 Ir4 2.801517 1_555
Al1 Al8 2.801916 1_555
Al1 Al10 2.801925 1_555
Al1 Ir2 2.809323 1_545
Al1 Al7 2.823211 1_555
Al1 Ti0 3.012109 1_545
Al1 Ti3 3.027825 1_544
Al1 Ti1 3.027838 1_554
Al1 Y0 3.090574 1_545
Al1 Y2 3.090581 1_555
Al1 Y4 3.099283 1_554
Al2 Ir0 2.647844 1_554
Al2 Ir6 2.801517 1_545
Al2 Ir5 2.801517 1_455
Al2 Al8 2.801931 1_555
Al2 Al9 2.801931 1_555
Al2 Ir1 2.809324 1_445
Al2 Al7 2.823226 1_555
Al2 Ti0 3.012089 1_445
Al2 Ti2 3.027826 1_544
Al2 Ti1 3.027826 1_454
Al2 Y2 3.090575 1_455
Al2 Y1 3.090575 1_545
Al2 Y3 3.099285 1_554
Al3 Ir4 2.583786 1_556
Al3 Ir5 2.583810 1_556
Al3 Ir6 2.583810 1_556
Al3 Ti2 2.802483 1_555
Al3 Ti1 2.802483 1_555
Al3 Ti3 2.802505 1_555
Al3 Al5 2.882753 1_555
Al3 Al4 2.882753 1_555
Al3 Al6 2.882753 1_555
Al3 Y1 3.083511 1_556
Al3 Y2 3.083512 1_556
Al3 Y0 3.083522 1_556
Al4 Ir2 2.574723 1_555
Al4 Ir1 2.574746 1_555
Al4 Ir6 2.580977 1_556
Al4 Ti2 2.812059 1_555
Al4 Ti3 2.812082 1_555
Al4 Ti0 2.815900 1_555
Al4 Al6 2.877536 1_555
Al4 Al5 2.877536 1_555
Al4 Y2 3.044417 1_565
Al4 Y3 3.076194 1_565
Al4 Y4 3.076205 1_565
Al5 Ir3 2.574723 1_555
Al5 Ir1 2.574747 1_555
Al5 Ir5 2.580977 1_556
Al5 Ti1 2.812060 1_555
Al5 Ti3 2.812082 1_555
Al5 Ti0 2.815901 1_555
Al5 Al6 2.877535 1_555
Al5 Y1 3.044416 1_655
Al5 Y3 3.076194 1_655
Al5 Y5 3.076204 1_655
Al6 Ir3 2.574738 1_555
Al6 Ir2 2.574738 1_555
Al6 Ir4 2.580968 1_556
Al6 Ti2 2.812073 1_555
Al6 Ti1 2.812074 1_555
Al6 Ti0 2.815918 1_555
Al6 Y0 3.044410 1_555
Al6 Y5 3.076186 1_555
Al6 Y4 3.076187 1_555
Al7 Ir4 2.601794 1_555
Al7 Ir5 2.601794 1_455
Al7 Ir6 2.601794 1_545
Al7 Al9 2.775590 1_555
Al7 Al8 2.775591 1_555
Al7 Y4 3.079304 1_554
Al7 Y5 3.079304 1_554
Al7 Y3 3.079310 1_554
Al8 Ir6 2.565325 1_545
Al8 Ir1 2.615553 1_445
Al8 Ir2 2.615553 1_545
Al8 Ti4 2.746777 1_555
Al8 Al9 2.804696 1_555
Al8 Y0 3.111619 1_545
Al8 Y1 3.111625 1_545
Al8 Y5 3.139648 1_545
Al9 Ir5 2.565325 1_455
Al9 Ir1 2.615553 1_445
Al9 Ir3 2.615553 1_455
Al9 Ti4 2.746777 1_555
Al9 Y0 3.111619 1_455
Al9 Y2 3.111624 1_455
Al9 Y4 3.139648 1_455
Al10 Ir4 2.565325 1_555
Al10 Ir3 2.615553 1_455
Al10 Ir2 2.615553 1_545
Al10 Ti4 2.746781 1_555
Al10 Al7 2.775591 1_555
Al10 Al9 2.804696 1_555
Al10 Al8 2.804696 1_555
Al10 Y2 3.111615 1_555
Al10 Y1 3.111616 1_555
Al10 Y3 3.139644 1_555
Ir0 Ti4 2.606985 1_555
Ir0 Ti3 2.612466 1_445
Ir0 Ti2 2.612480 1_545
Ir0 Ti1 2.612480 1_455
Ir0 Ti0 2.705802 1_446
Ir1 Ti4 2.741302 1_665
Ir1 Ti3 2.752693 1_555
Ir1 Ti0 2.808667 1_555
Ir1 Y1 3.225132 1_655
Ir1 Y2 3.225132 1_565
Ir1 Y4 3.227828 1_565
Ir1 Y5 3.227828 1_655
Ir2 Ti4 2.741309 1_565
Ir2 Ti2 2.752693 1_555
Ir2 Ti0 2.808673 1_555
Ir2 Y2 3.225126 1_565
Ir2 Y0 3.225134 1_555
Ir2 Y3 3.227827 1_565
Ir2 Y5 3.227834 1_555
Ir3 Ti4 2.741309 1_655
Ir3 Ti1 2.752693 1_555
Ir3 Ti0 2.808674 1_555
Ir3 Y1 3.225126 1_655
Ir3 Y0 3.225134 1_555
Ir3 Y3 3.227827 1_655
Ir3 Y4 3.227834 1_555
Ir4 Ti1 2.772131 1_554
Ir4 Ti2 2.772131 1_554
Ir4 Y4 3.212977 1_554
Ir4 Y5 3.212977 1_554
Ir4 Y1 3.230497 1_555
Ir4 Y2 3.230497 1_555
Ir5 Ti1 2.772131 1_554
Ir5 Ti3 2.772131 1_554
Ir5 Y5 3.212970 1_654
Ir5 Y3 3.212976 1_654
Ir5 Y0 3.230498 1_555
Ir5 Y2 3.230502 1_555
Ir6 Ti3 2.772131 1_554
Ir6 Ti2 2.772131 1_554
Ir6 Y4 3.212970 1_564
Ir6 Y3 3.212976 1_564
Ir6 Y0 3.230498 1_555
Ir6 Y1 3.230502 1_555
