# generated using pymatgen
data_Mg2TiO4
_symmetry_space_group_name_H-M   'P 1'
_cell_length_a   6.02724662
_cell_length_b   6.02724662
_cell_length_c   6.02724662
_cell_angle_alpha   120.18093074
_cell_angle_beta   119.96399989
_cell_angle_gamma   89.87463504
_symmetry_Int_Tables_number   1
_chemical_formula_structural   Mg2TiO4
_chemical_formula_sum   'Mg4 Ti2 O8'
_cell_volume   154.65460739
_cell_formula_units_Z   2
loop_
 _symmetry_equiv_pos_site_id
 _symmetry_equiv_pos_as_xyz
  1  'x, y, z'
loop_
 _atom_site_type_symbol
 _atom_site_label
 _atom_site_symmetry_multiplicity
 _atom_site_fract_x
 _atom_site_fract_y
 _atom_site_fract_z
 _atom_site_occupancy
  Mg  Mg0  1  0.88583200  0.13583200  0.75000000  1
  Mg  Mg1  1  0.50000000  0.50000000  0.50000000  1
  Mg  Mg2  1  0.50000000  0.00000000  0.00000000  1
  Mg  Mg3  1  0.11416800  0.86416800  0.25000000  1
  Ti  Ti0  1  0.00000000  0.50000000  0.50000000  1
  Ti  Ti1  1  0.50000000  0.50000000  0.00000000  1
  O  O0  1  0.74848400  0.27433800  0.02585400  1
  O  O1  1  0.74848400  0.72263000  0.47414600  1
  O  O2  1  0.28766200  0.27264800  0.01501400  1
  O  O3  1  0.75763400  0.27264800  0.48498600  1
  O  O4  1  0.24236600  0.72735200  0.51501400  1
  O  O5  1  0.25151600  0.27737000  0.52585400  1
  O  O6  1  0.71233800  0.72735200  0.98498600  1
  O  O7  1  0.25151600  0.72566200  0.97414600  1
loop_
_geom_bond_atom_site_label_1
_geom_bond_atom_site_label_2
_geom_bond_distance
_geom_bond_site_symmetry_2
Mg0 O3 1.979178 1_555
Mg0 O2 1.979178 1_656
Mg0 O0 2.030485 1_556
Mg0 O1 2.030485 1_545
Mg1 O6 2.074504 1_555
Mg1 O3 2.074504 1_555
Mg1 O4 2.074504 1_555
Mg1 O2 2.074504 1_555
Mg1 O1 2.126034 1_555
Mg1 O5 2.126034 1_555
Mg2 O3 2.074504 1_555
Mg2 O6 2.074504 1_544
Mg2 O2 2.074504 1_555
Mg2 O4 2.074504 1_544
Mg2 O0 2.126034 1_555
Mg2 O7 2.126034 1_544
Mg3 O6 1.979178 1_454
Mg3 O4 1.979178 1_555
Mg3 O5 2.030485 1_565
Mg3 O7 2.030485 1_554
O0 Ti1 2.021955 1_555
O0 Ti0 2.021955 1_655
O1 Ti0 2.021955 1_655
O1 Ti1 2.021955 1_555
O2 Ti1 1.942137 1_555
O3 Ti0 1.942137 1_655
O4 Ti0 1.942137 1_555
O5 Ti1 2.021955 1_556
O5 Ti0 2.021955 1_555
O6 Ti1 1.942137 1_556
O7 Ti0 2.021955 1_555
O7 Ti1 2.021955 1_556
