# generated using pymatgen
data_CsRbSnTe5
_symmetry_space_group_name_H-M   'P 1'
_cell_length_a   10.10486673
_cell_length_b   10.10486726
_cell_length_c   10.10486699
_cell_angle_alpha   127.44724784
_cell_angle_beta   127.44724863
_cell_angle_gamma   77.52218681
_symmetry_Int_Tables_number   1
_chemical_formula_structural   CsRbSnTe5
_chemical_formula_sum   'Cs2 Rb2 Sn2 Te10'
_cell_volume   630.71998412
_cell_formula_units_Z   2
loop_
 _symmetry_equiv_pos_site_id
 _symmetry_equiv_pos_as_xyz
  1  'x, y, z'
loop_
 _atom_site_type_symbol
 _atom_site_label
 _atom_site_symmetry_multiplicity
 _atom_site_fract_x
 _atom_site_fract_y
 _atom_site_fract_z
 _atom_site_occupancy
  Cs  Cs0  1  0.99645544  0.99645544  0.00000000  1
  Cs  Cs1  1  0.49645544  0.49645544  0.00000000  1
  Rb  Rb0  1  0.24645509  0.24645509  0.00000000  1
  Rb  Rb1  1  0.74645509  0.74645509  0.00000000  1
  Sn  Sn0  1  0.24673496  0.74673496  0.50000000  1
  Sn  Sn1  1  0.74673496  0.24673496  0.50000000  1
  Te  Te0  1  0.96483336  0.46483336  0.15848025  1
  Te  Te1  1  0.46483336  0.30635311  0.50000000  1
  Te  Te2  1  0.80635311  0.96483336  0.50000000  1
  Te  Te3  1  0.30635311  0.80635311  0.84151975  1
  Te  Te4  1  0.68710274  0.18710274  0.15859378  1
  Te  Te5  1  0.18710274  0.02850896  0.50000000  1
  Te  Te6  1  0.52850896  0.68710274  0.50000000  1
  Te  Te7  1  0.02850896  0.52850896  0.84140622  1
  Te  Te8  1  0.99665633  0.49665633  0.50000000  1
  Te  Te9  1  0.49665633  0.99665633  0.50000000  1
loop_
_geom_bond_atom_site_label_1
_geom_bond_atom_site_label_2
_geom_bond_distance
_geom_bond_site_symmetry_2
Cs0 Te4 3.973225 1_565
Cs0 Te5 3.973225 1_665
Cs0 Te7 3.973225 1_654
Cs0 Te6 3.973225 1_554
Cs0 Te3 3.977279 1_654
Cs0 Te2 3.977280 1_554
Cs0 Te0 3.977280 1_565
Cs0 Te1 3.977280 1_665
Cs1 Te7 3.973225 1_554
Cs1 Te4 3.973225 1_555
Cs1 Te6 3.973225 1_555
Cs1 Te5 3.973225 1_554
Cs1 Te0 3.977280 1_555
Cs1 Te3 3.977280 1_554
Cs1 Te1 3.977280 1_554
Cs1 Te2 3.977280 1_555
Rb0 Te0 3.750099 1_455
Rb0 Te1 3.750099 1_555
Rb0 Te3 3.750099 1_544
Rb0 Te2 3.750099 1_444
Rb0 Te4 3.753886 1_555
Rb0 Te7 3.753887 1_554
Rb0 Te5 3.753887 1_554
Rb0 Te6 3.753887 1_555
Rb1 Te3 3.750099 1_554
Rb1 Te0 3.750099 1_555
Rb1 Te2 3.750099 1_555
Rb1 Te1 3.750100 1_554
Rb1 Te7 3.753886 1_654
Rb1 Te6 3.753887 1_554
Rb1 Te4 3.753887 1_565
Rb1 Te5 3.753887 1_665
Sn0 Te6 2.780064 1_555
Sn0 Te5 2.780064 1_565
Sn0 Te3 2.781325 1_555
Sn0 Te0 2.781325 1_455
Sn1 Te4 2.780064 1_555
Sn1 Te7 2.780064 1_655
Sn1 Te1 2.781324 1_555
Sn1 Te2 2.781325 1_545
Te0 Te8 3.076032 1_555
Te1 Te9 3.076032 1_545
Te2 Te9 3.076032 1_555
Te3 Te8 3.076032 1_455
Te4 Te8 3.074558 1_555
Te5 Te9 3.074558 1_545
Te6 Te9 3.074558 1_555
Te7 Te8 3.074558 1_455
