# generated using pymatgen
data_Y2P6Pd20Pb
_symmetry_space_group_name_H-M   'P 1'
_cell_length_a   8.63354095
_cell_length_b   8.63353954
_cell_length_c   8.63354005
_cell_angle_alpha   59.99999427
_cell_angle_beta   59.99999969
_cell_angle_gamma   59.99999871
_symmetry_Int_Tables_number   1
_chemical_formula_structural   Y2P6Pd20Pb
_chemical_formula_sum   'Y2 P6 Pd20 Pb1'
_cell_volume   455.04224936
_cell_formula_units_Z   1
loop_
 _symmetry_equiv_pos_site_id
 _symmetry_equiv_pos_as_xyz
  1  'x, y, z'
loop_
 _atom_site_type_symbol
 _atom_site_label
 _atom_site_symmetry_multiplicity
 _atom_site_fract_x
 _atom_site_fract_y
 _atom_site_fract_z
 _atom_site_occupancy
  Y  Y0  1  0.00000000  0.00000000  0.00000000  1
  Y  Y1  1  0.25000000  0.25000000  0.25000000  1
  P  P0  1  0.73695287  0.26304713  0.26304713  1
  P  P1  1  0.73695287  0.73695287  0.26304713  1
  P  P2  1  0.73695287  0.26304713  0.73695287  1
  P  P3  1  0.26304713  0.73695287  0.26304713  1
  P  P4  1  0.26304713  0.73695287  0.73695287  1
  P  P5  1  0.26304713  0.26304713  0.73695287  1
  Pd  Pd0  1  0.34197186  0.00333284  0.00333284  1
  Pd  Pd1  1  0.00333284  0.65136246  0.34197186  1
  Pd  Pd2  1  0.34197186  0.00333284  0.65136246  1
  Pd  Pd3  1  0.00333284  0.65136246  0.00333284  1
  Pd  Pd4  1  0.65136246  0.34197186  0.00333284  1
  Pd  Pd5  1  0.61606480  0.61606480  0.15180259  1
  Pd  Pd6  1  0.38533421  0.84399738  0.38533421  1
  Pd  Pd7  1  0.15180259  0.61606480  0.61606480  1
  Pd  Pd8  1  0.65136246  0.00333284  0.34197186  1
  Pd  Pd9  1  0.00333284  0.34197186  0.65136246  1
  Pd  Pd10  1  0.65136246  0.00333284  0.00333284  1
  Pd  Pd11  1  0.00333284  0.00333284  0.34197186  1
  Pd  Pd12  1  0.61606480  0.15180259  0.61606480  1
  Pd  Pd13  1  0.34197186  0.65136246  0.00333284  1
  Pd  Pd14  1  0.38533421  0.38533421  0.38533421  1
  Pd  Pd15  1  0.61606480  0.61606480  0.61606480  1
  Pd  Pd16  1  0.38533421  0.38533421  0.84399738  1
  Pd  Pd17  1  0.00333284  0.00333284  0.65136246  1
  Pd  Pd18  1  0.84399738  0.38533421  0.38533421  1
  Pd  Pd19  1  0.00333284  0.34197186  0.00333284  1
  Pb  Pb0  1  0.75000000  0.75000000  0.75000000  1
loop_
_geom_bond_atom_site_label_1
_geom_bond_atom_site_label_2
_geom_bond_distance
_geom_bond_site_symmetry_2
P0 Pd8 2.379826 1_555
P0 Pd4 2.379826 1_555
P0 Pd11 2.379826 1_655
P0 Pd19 2.379826 1_655
P0 Pd18 2.479814 1_555
P0 Pd14 2.479814 1_555
P0 Pd5 2.488976 1_555
P0 Pd12 2.488976 1_555
P0 Y0 3.211718 1_655
P1 Pd10 2.379826 1_565
P1 Pd8 2.379826 1_565
P1 Pd3 2.379826 1_655
P1 Pd1 2.379826 1_655
P1 Pd18 2.479814 1_555
P1 Pd6 2.479814 1_555
P1 Pd15 2.488976 1_555
P1 Pd5 2.488997 1_555
P1 Y0 3.211718 1_665
P2 Pd10 2.379826 1_556
P2 Pd4 2.379826 1_556
P2 Pd17 2.379826 1_655
P2 Pd9 2.379826 1_655
P2 Pd18 2.479814 1_555
P2 Pd16 2.479814 1_555
P2 Pd15 2.488976 1_555
P2 Pd12 2.488997 1_555
P2 Y0 3.211718 1_656
P3 Pd0 2.379826 1_565
P3 Pd11 2.379826 1_565
P3 Pd13 2.379826 1_555
P3 Pd1 2.379826 1_555
P3 Pd14 2.479814 1_555
P3 Pd6 2.479814 1_555
P3 Pd7 2.488976 1_555
P3 Pd5 2.488976 1_555
P3 Y0 3.211718 1_565
P4 Pd2 2.379826 1_565
P4 Pd13 2.379826 1_556
P4 Pd17 2.379826 1_565
P4 Pd3 2.379826 1_556
P4 Pd16 2.479814 1_555
P4 Pd6 2.479814 1_555
P4 Pd15 2.488977 1_555
P4 Pd7 2.488997 1_555
P4 Y0 3.211718 1_566
P5 Pd0 2.379826 1_556
P5 Pd2 2.379826 1_555
P5 Pd19 2.379826 1_556
P5 Pd9 2.379826 1_555
P5 Pd14 2.479814 1_555
P5 Pd16 2.479814 1_555
P5 Pd7 2.488976 1_555
P5 Pd12 2.488976 1_555
P5 Y0 3.211718 1_556
Pd0 Pd10 2.671136 1_555
Pd0 Pd19 2.923654 1_555
Pd0 Pd11 2.923654 1_555
Pd0 Y0 2.981480 1_555
Pd0 Pd16 3.015344 1_554
Pd0 Pd6 3.015344 1_545
Pd0 Pd13 3.038750 1_545
Pd0 Pd2 3.038750 1_554
Pd0 Pd5 3.042588 1_545
Pd0 Pd12 3.042588 1_554
Pd0 Y1 3.294575 1_555
Pd1 Pd9 2.671136 1_555
Pd1 Pd3 2.923654 1_555
Pd1 Pd13 2.923654 1_555
Pd1 Y0 2.981479 1_565
Pd1 Pd18 3.015344 1_455
Pd1 Pd14 3.015345 1_555
Pd1 Pd11 3.038750 1_565
Pd1 Pd8 3.038750 1_465
Pd1 Pd7 3.042575 1_555
Pd1 Pd15 3.042595 1_455
Pd1 Y1 3.294575 1_555
Pd2 Pd8 2.671136 1_555
Pd2 Pd9 2.923654 1_555
Pd2 Y0 2.981480 1_556
Pd2 Pd6 3.015344 1_545
Pd2 Y1 3.294575 1_555
Pd3 Y0 2.981479 1_565
Pd3 Pd7 3.042599 1_554
Pd3 Pd5 3.042599 1_455
Pd3 Y1 3.294575 1_555
Pd4 Pd8 2.923653 1_555
Pd4 Y0 2.981480 1_655
Pd4 Pd9 3.038751 1_654
Pd4 Pd5 3.042575 1_555
Pd4 Y1 3.294576 1_555
Pd6 Y1 2.862016 1_565
Pd6 Pd8 3.015345 1_565
Pd7 Pd9 3.042575 1_555
Pd8 Y0 2.981480 1_655
Pd8 Y1 3.294576 1_555
Pd9 Y0 2.981479 1_556
Pd9 Y1 3.294575 1_555
Pd10 Pd4 2.923653 1_555
Pd10 Pd8 2.923654 1_555
Pd10 Y0 2.981480 1_655
Pd10 Pd16 3.015344 1_554
Pd10 Pd6 3.015344 1_545
Pd10 Pd3 3.038750 1_645
Pd10 Pd17 3.038751 1_654
Pd10 Pd5 3.042599 1_545
Pd10 Pd12 3.042599 1_554
Pd10 Y1 3.294575 1_555
Pd11 Pd17 2.671136 1_555
Pd11 Pd19 2.923653 1_555
Pd11 Y0 2.981480 1_555
Pd11 Pd18 3.015344 1_455
Pd11 Pd6 3.015345 1_545
Pd11 Pd8 3.038751 1_455
Pd11 Pd7 3.042587 1_545
Pd11 Pd12 3.042588 1_455
Pd11 Y1 3.294575 1_555
Pd12 Pd8 3.042575 1_555
Pd12 Pd2 3.042575 1_555
Pd12 Pd17 3.042599 1_655
Pd13 Pd4 2.671136 1_555
Pd13 Pd3 2.923654 1_555
Pd13 Y0 2.981480 1_565
Pd13 Pd14 3.015344 1_555
Pd13 Pd16 3.015344 1_554
Pd13 Pd2 3.038750 1_564
Pd13 Pd5 3.042575 1_555
Pd13 Pd15 3.042595 1_554
Pd13 Y1 3.294575 1_555
Pd14 Y1 2.862016 1_555
Pd14 Pd2 3.015344 1_555
Pd14 Pd8 3.015344 1_555
Pd14 Pd4 3.015344 1_555
Pd14 Pd9 3.015345 1_555
Pd15 Pd8 3.042594 1_565
Pd15 Pd4 3.042594 1_556
Pd15 Pd2 3.042594 1_565
Pd15 Pd9 3.042595 1_655
Pd16 Y1 2.862016 1_556
Pd16 Pd3 3.015345 1_556
Pd16 Pd4 3.015345 1_556
Pd16 Pd19 3.015345 1_556
Pd17 Pd9 2.923653 1_555
Pd17 Pd2 2.923654 1_555
Pd17 Y0 2.981480 1_556
Pd17 Pd18 3.015344 1_455
Pd17 Pd6 3.015345 1_545
Pd17 Pd3 3.038750 1_546
Pd17 Pd7 3.042599 1_545
Pd17 Y1 3.294575 1_555
Pd18 Y1 2.862017 1_655
Pd18 Pd3 3.015344 1_655
Pd18 Pd19 3.015344 1_655
Pd18 Pd9 3.015345 1_655
Pd19 Pd3 2.671136 1_555
Pd19 Y0 2.981479 1_555
Pd19 Pd9 3.038750 1_554
Pd19 Pd4 3.038751 1_455
Pd19 Pd7 3.042587 1_554
Pd19 Pd5 3.042588 1_455
Pd19 Y1 3.294575 1_555
Pb0 Pd12 2.832409 1_565
Pb0 Pd5 2.832409 1_556
Pb0 Pd7 2.832410 1_655
Pb0 Pd15 2.832431 1_555
Pb0 Pd4 3.369135 1_556
Pb0 Pd19 3.369135 1_656
Pb0 Pd8 3.369135 1_565
Pb0 Pd9 3.369135 1_655
Pb0 Pd11 3.369135 1_665
Pb0 Pd10 3.369135 1_566
Pb0 Pd1 3.369135 1_655
Pb0 Pd17 3.369135 1_665
Pb0 Pd0 3.369136 1_566
Pb0 Pd3 3.369136 1_656
Pb0 Pd2 3.369136 1_565
Pb0 Pd13 3.369136 1_556
