# generated using pymatgen
data_Ta8V2Si5Ge
_symmetry_space_group_name_H-M   'P 1'
_cell_length_a   7.49274870
_cell_length_b   7.49274847
_cell_length_c   7.49274779
_cell_angle_alpha   129.35696108
_cell_angle_beta   129.35695980
_cell_angle_gamma   74.43688237
_symmetry_Int_Tables_number   1
_chemical_formula_structural   Ta8V2Si5Ge
_chemical_formula_sum   'Ta8 V2 Si5 Ge1'
_cell_volume   245.10524239
_cell_formula_units_Z   1
loop_
 _symmetry_equiv_pos_site_id
 _symmetry_equiv_pos_as_xyz
  1  'x, y, z'
loop_
 _atom_site_type_symbol
 _atom_site_label
 _atom_site_symmetry_multiplicity
 _atom_site_fract_x
 _atom_site_fract_y
 _atom_site_fract_z
 _atom_site_occupancy
  Ta  Ta0  1  0.01849071  0.51332309  0.82985396  1
  Ta  Ta1  1  0.68346912  0.18863675  0.17014604  1
  Ta  Ta2  1  0.51332309  0.68346912  0.49483238  1
  Ta  Ta3  1  0.18863675  0.01849071  0.50516762  1
  Ta  Ta4  1  0.98667691  0.48150929  0.17014604  1
  Ta  Ta5  1  0.31136325  0.81653088  0.82985396  1
  Ta  Ta6  1  0.48150929  0.31136325  0.49483238  1
  Ta  Ta7  1  0.81653088  0.98667691  0.50516762  1
  V  V0  1  0.00171206  0.00171206  1.00000000  1
  V  V1  1  0.49828794  0.49828794  0.00000000  1
  Si  Si0  1  0.25000000  0.25000000  0.00000000  1
  Si  Si1  1  0.63305813  0.13305813  0.76611527  1
  Si  Si2  1  0.36694187  0.86694187  0.23388473  1
  Si  Si3  1  0.13305813  0.36694187  0.50000000  1
  Si  Si4  1  0.86694187  0.63305813  0.50000000  1
  Ge  Ge0  1  0.75000000  0.75000000  0.00000000  1
loop_
_geom_bond_atom_site_label_1
_geom_bond_atom_site_label_2
_geom_bond_distance
_geom_bond_site_symmetry_2
Si0 Ta3 2.660068 1_554
Si0 Ta6 2.660068 1_555
Si0 Ta0 2.660068 1_554
Si0 Ta4 2.660068 1_455
Si0 Ta2 2.660068 1_555
Si0 Ta5 2.660068 1_544
Si0 Ta7 2.660069 1_444
Si0 Ta1 2.660069 1_555
Si0 V1 2.962939 1_555
Si0 V0 2.962939 1_554
Si1 Si2 2.412084 1_545
Si1 V0 2.501756 1_655
Si1 V1 2.501756 1_556
Si1 Ta4 2.552613 1_556
Si1 Ta1 2.552621 1_556
Si1 Ta7 2.606871 1_545
Si1 Ta3 2.606879 1_555
Si1 Ta6 2.628451 1_555
Si1 Ta2 2.628460 1_545
Si2 V1 2.501756 1_555
Si2 V0 2.501756 1_564
Si2 Ta0 2.552613 1_554
Si2 Ta5 2.552621 1_554
Si2 Ta2 2.606871 1_555
Si2 Ta6 2.606879 1_565
Si2 Ta3 2.628451 1_565
Si2 Ta7 2.628460 1_555
Si3 Si4 2.412094 1_455
Si3 V0 2.501754 1_554
Si3 V1 2.501754 1_556
Si3 Ta3 2.552613 1_555
Si3 Ta6 2.552613 1_555
Si3 Ta0 2.606877 1_555
Si3 Ta4 2.606877 1_455
Si3 Ta5 2.628458 1_555
Si3 Ta1 2.628458 1_455
Si4 V0 2.501754 1_665
Si4 V1 2.501754 1_555
Si4 Ta7 2.552613 1_555
Si4 Ta2 2.552613 1_555
Si4 Ta1 2.606877 1_555
Si4 Ta5 2.606877 1_655
Si4 Ta4 2.628457 1_555
Si4 Ta0 2.628457 1_655
Ge0 Ta7 2.699674 1_555
Ge0 Ta2 2.699674 1_554
Ge0 Ta4 2.699675 1_555
Ge0 Ta0 2.699675 1_654
Ge0 Ta6 2.699675 1_554
Ge0 Ta1 2.699675 1_565
Ge0 Ta3 2.699675 1_665
Ge0 Ta5 2.699675 1_554
Ge0 V0 3.003801 1_664
Ge0 V1 3.003801 1_555
