# generated using pymatgen
data_SrFe2(As6Ir)2
_symmetry_space_group_name_H-M   'P 1'
_cell_length_a   7.32371400
_cell_length_b   7.29374368
_cell_length_c   7.29374354
_cell_angle_alpha   109.34329617
_cell_angle_beta   109.48576797
_cell_angle_gamma   109.41833707
_symmetry_Int_Tables_number   1
_chemical_formula_structural   SrFe2(As6Ir)2
_chemical_formula_sum   'Sr1 Fe2 As12 Ir2'
_cell_volume   300.53696625
_cell_formula_units_Z   1
loop_
 _symmetry_equiv_pos_site_id
 _symmetry_equiv_pos_as_xyz
  1  'x, y, z'
loop_
 _atom_site_type_symbol
 _atom_site_label
 _atom_site_symmetry_multiplicity
 _atom_site_fract_x
 _atom_site_fract_y
 _atom_site_fract_z
 _atom_site_occupancy
  Sr  Sr0  1  0.00000000  0.00000000  0.00000000  1
  Fe  Fe0  1  0.50000000  0.50000000  0.50000000  1
  Fe  Fe1  1  0.50000000  0.00000000  0.00000000  1
  As  As0  1  0.84072964  0.64396921  0.50175264  1
  As  As1  1  0.15927036  0.35603079  0.49824736  1
  As  As2  1  0.15927036  0.66102299  0.80324056  1
  As  As3  1  0.84072964  0.33897701  0.19675944  1
  As  As4  1  0.64363602  0.50139855  0.84038927  1
  As  As5  1  0.35636398  0.49860145  0.15961073  1
  As  As6  1  0.64363602  0.80324875  0.14223747  1
  As  As7  1  0.35636398  0.19675125  0.85776253  1
  As  As8  1  0.50289351  0.84454495  0.65834756  1
  As  As9  1  0.49710649  0.15545505  0.34165244  1
  As  As10  1  0.20854731  0.85428512  0.35426319  1
  As  As11  1  0.79145269  0.14571488  0.64573681  1
  Ir  Ir0  1  0.00000000  0.50000000  0.00000000  1
  Ir  Ir1  1  0.00000000  0.00000000  0.50000000  1
loop_
_geom_bond_atom_site_label_1
_geom_bond_atom_site_label_2
_geom_bond_distance
_geom_bond_site_symmetry_2
As0 Fe0 2.357404 1_555
As0 Ir1 2.474264 1_665
As0 As2 2.548882 1_655
As0 As3 2.572730 1_555
As0 Sr0 3.196385 1_666
As1 Fe0 2.357404 1_555
As1 Ir1 2.474264 1_555
As1 As3 2.548882 1_455
As1 As2 2.572730 1_555
As1 Sr0 3.196385 1_555
As2 Fe1 2.357404 1_566
As2 Ir0 2.474257 1_556
As2 Sr0 3.196383 1_566
As3 Fe1 2.357404 1_555
As3 Ir0 2.474257 1_655
As3 Sr0 3.196383 1_655
As4 Fe0 2.346119 1_555
As4 Ir0 2.483050 1_656
As4 As6 2.546213 1_556
As4 As7 2.575992 1_555
As4 Sr0 3.201495 1_666
As5 Fe0 2.346119 1_555
As5 Ir0 2.483050 1_555
As5 As7 2.546213 1_554
As5 As6 2.575992 1_555
As5 Sr0 3.201495 1_555
As6 Fe1 2.346106 1_565
As6 Ir1 2.483052 1_665
As6 Sr0 3.201490 1_665
As7 Fe1 2.346106 1_556
As7 Ir1 2.483052 1_555
As7 Sr0 3.201490 1_556
As8 Fe0 2.382264 1_555
As8 Fe1 2.382271 1_566
As8 Sr0 3.175011 1_666
As9 Fe0 2.382264 1_555
As9 Fe1 2.382271 1_555
As9 Sr0 3.175011 1_555
As10 Ir1 2.450777 1_565
As10 Ir0 2.450784 1_555
As10 As9 2.544932 1_565
As10 As8 2.566658 1_555
As10 Sr0 3.225614 1_565
As11 Ir1 2.450777 1_655
As11 Ir0 2.450784 1_656
As11 As8 2.544932 1_545
As11 As9 2.566658 1_555
As11 Sr0 3.225614 1_656
