# generated using pymatgen
data_K3Ba3ScP4
_symmetry_space_group_name_H-M   'P 1'
_cell_length_a   10.39533769
_cell_length_b   10.39533759
_cell_length_c   7.92006763
_cell_angle_alpha   90.00000000
_cell_angle_beta   90.00000000
_cell_angle_gamma   119.99999401
_symmetry_Int_Tables_number   1
_chemical_formula_structural   K3Ba3ScP4
_chemical_formula_sum   'K6 Ba6 Sc2 P8'
_cell_volume   741.20228127
_cell_formula_units_Z   2
loop_
 _symmetry_equiv_pos_site_id
 _symmetry_equiv_pos_as_xyz
  1  'x, y, z'
loop_
 _atom_site_type_symbol
 _atom_site_label
 _atom_site_symmetry_multiplicity
 _atom_site_fract_x
 _atom_site_fract_y
 _atom_site_fract_z
 _atom_site_occupancy
  K  K0  1  0.73311548  0.86655674  0.16731516  1
  K  K1  1  0.86655674  0.13344326  0.66731516  1
  K  K2  1  0.86655674  0.73311548  0.66731516  1
  K  K3  1  0.13344326  0.26688452  0.16731516  1
  K  K4  1  0.13344326  0.86655674  0.16731516  1
  K  K5  1  0.26688452  0.13344326  0.66731516  1
  Ba  Ba0  1  0.05785668  0.52892834  0.49611661  1
  Ba  Ba1  1  0.47107166  0.94214332  0.49611661  1
  Ba  Ba2  1  0.47107166  0.52892834  0.49611661  1
  Ba  Ba3  1  0.52892834  0.47107166  0.99611661  1
  Ba  Ba4  1  0.52892834  0.05785668  0.99611661  1
  Ba  Ba5  1  0.94214332  0.47107166  0.99611661  1
  Sc  Sc0  1  0.33333300  0.66666700  0.88941438  1
  Sc  Sc1  1  0.66666700  0.33333300  0.38941438  1
  P  P0  1  0.66666700  0.33333300  0.72066740  1
  P  P1  1  0.60191071  0.80095636  0.77627398  1
  P  P2  1  0.80095636  0.19904364  0.27627398  1
  P  P3  1  0.80095636  0.60191071  0.27627398  1
  P  P4  1  0.33333300  0.66666700  0.22066740  1
  P  P5  1  0.19904364  0.39808929  0.77627398  1
  P  P6  1  0.19904364  0.80095636  0.77627398  1
  P  P7  1  0.39808929  0.19904364  0.27627398  1
loop_
_geom_bond_atom_site_label_1
_geom_bond_atom_site_label_2
_geom_bond_distance
_geom_bond_site_symmetry_2
K0 P3 3.278820 1_555
K0 P2 3.278820 1_565
K0 P1 3.314674 1_554
K0 P4 3.623813 1_555
K1 P1 3.278820 1_545
K1 P5 3.278820 1_655
K1 P2 3.314661 1_555
K1 P0 3.623786 1_555
K2 P1 3.278820 1_555
K2 P6 3.278820 1_655
K2 P3 3.314674 1_555
K2 P0 3.623813 1_555
K3 P7 3.278820 1_555
K3 P2 3.278820 1_455
K3 P5 3.314674 1_554
K3 P4 3.623813 1_555
K4 P7 3.278820 1_565
K4 P3 3.278820 1_455
K4 P6 3.314661 1_554
K4 P4 3.623786 1_555
K5 P5 3.278820 1_555
K5 P6 3.278820 1_545
K5 P7 3.314674 1_555
K5 P0 3.623813 1_555
Ba0 P4 3.302988 1_555
Ba0 P5 3.305088 1_555
Ba0 P6 3.305101 1_555
Ba0 P3 3.572852 1_455
Ba0 P2 3.572865 1_455
Ba1 P4 3.302988 1_555
Ba1 P1 3.305088 1_555
Ba1 P6 3.305101 1_555
Ba1 P7 3.572852 1_565
Ba1 P2 3.572865 1_565
Ba2 P4 3.302994 1_555
Ba2 P1 3.305101 1_555
Ba2 P5 3.305101 1_555
Ba2 P7 3.572870 1_555
Ba2 P3 3.572870 1_555
Ba3 P0 3.302994 1_555
Ba3 P7 3.305101 1_556
Ba3 P3 3.305101 1_556
Ba3 P1 3.572870 1_555
Ba3 P5 3.572870 1_555
Ba4 P0 3.302988 1_555
Ba4 P7 3.305088 1_556
Ba4 P2 3.305101 1_556
Ba4 P1 3.572852 1_545
Ba4 P6 3.572865 1_545
Ba5 P0 3.302988 1_555
Ba5 P3 3.305088 1_556
Ba5 P2 3.305101 1_556
Ba5 P5 3.572852 1_655
Ba5 P6 3.572865 1_655
P0 Sc1 2.623546 1_555
P1 Sc0 2.578609 1_555
P2 Sc1 2.578617 1_555
P3 Sc1 2.578609 1_555
P4 Sc0 2.623546 1_554
P5 Sc0 2.578609 1_555
P6 Sc0 2.578617 1_555
P7 Sc1 2.578609 1_555
