# generated using pymatgen
data_GaAg(PO3)6
_symmetry_space_group_name_H-M   'P 1'
_cell_length_a   5.02542529
_cell_length_b   7.03476081
_cell_length_c   10.43170115
_cell_angle_alpha   98.39312015
_cell_angle_beta   92.13350322
_cell_angle_gamma   90.81661840
_symmetry_Int_Tables_number   1
_chemical_formula_structural   GaAg(PO3)6
_chemical_formula_sum   'Ga1 Ag1 P6 O18'
_cell_volume   364.51346189
_cell_formula_units_Z   1
loop_
 _symmetry_equiv_pos_site_id
 _symmetry_equiv_pos_as_xyz
  1  'x, y, z'
loop_
 _atom_site_type_symbol
 _atom_site_label
 _atom_site_symmetry_multiplicity
 _atom_site_fract_x
 _atom_site_fract_y
 _atom_site_fract_z
 _atom_site_occupancy
  Ga  Ga0  1  0.00000000  0.50000000  0.50000000  1
  Ag  Ag0  1  0.00000000  0.00000000  0.00000000  1
  P  P0  1  0.52750956  0.95352916  0.18760327  1
  P  P1  1  0.23603831  0.31588059  0.23199491  1
  P  P2  1  0.50655916  0.33535280  0.63689809  1
  P  P3  1  0.47249044  0.04647084  0.81239673  1
  P  P4  1  0.76396169  0.68411941  0.76800509  1
  P  P5  1  0.49344084  0.66464720  0.36310191  1
  O  O0  1  0.47639331  0.17185872  0.23712493  1
  O  O1  1  0.09535939  0.27986718  0.10210097  1
  O  O2  1  0.35105650  0.87687038  0.07254357  1
  O  O3  1  0.21611897  0.35722358  0.61269581  1
  O  O4  1  0.68600492  0.34283069  0.52735896  1
  O  O5  1  0.18010313  0.07347014  0.82886185  1
  O  O6  1  0.60642552  0.48567485  0.75979539  1
  O  O7  1  0.90464061  0.72013282  0.89789903  1
  O  O8  1  0.55317139  0.13798462  0.68854137  1
  O  O9  1  0.78388103  0.64277642  0.38730419  1
  O  O10  1  0.92024632  0.68659672  0.64982954  1
  O  O11  1  0.81989687  0.92652986  0.17113815  1
  O  O12  1  0.52360669  0.82814128  0.76287507  1
  O  O13  1  0.64894350  0.12312962  0.92745643  1
  O  O14  1  0.44682861  0.86201538  0.31145863  1
  O  O15  1  0.07975368  0.31340328  0.35017046  1
  O  O16  1  0.39357448  0.51432515  0.24020461  1
  O  O17  1  0.31399508  0.65716931  0.47264104  1
loop_
_geom_bond_atom_site_label_1
_geom_bond_atom_site_label_2
_geom_bond_distance
_geom_bond_site_symmetry_2
Ga0 O10 1.946617 1_455
Ga0 O15 1.946617 1_555
Ga0 O3 1.962446 1_555
Ga0 O9 1.962446 1_455
Ga0 O17 1.967177 1_555
Ga0 O4 1.967177 1_455
Ag0 O1 2.136160 1_555
Ag0 O7 2.136160 1_444
Ag0 O2 2.137966 1_545
Ag0 O13 2.137966 1_454
Ag0 O11 2.156345 1_445
Ag0 O5 2.156345 1_554
O0 P0 1.575226 1_545
O0 P1 1.591931 1_555
O1 P1 1.491111 1_555
O2 P0 1.495311 1_555
O3 P2 1.485970 1_555
O4 P2 1.488164 1_555
O5 P3 1.497280 1_555
O6 P4 1.584769 1_555
O6 P2 1.598414 1_555
O7 P4 1.491111 1_555
O8 P2 1.578319 1_555
O8 P3 1.588253 1_555
O9 P5 1.485970 1_555
O10 P4 1.488237 1_555
O11 P0 1.497280 1_555
O12 P3 1.575226 1_565
O12 P4 1.591931 1_555
O13 P3 1.495311 1_555
O14 P5 1.578319 1_555
O14 P0 1.588253 1_555
O15 P1 1.488237 1_555
O16 P1 1.584769 1_555
O16 P5 1.598414 1_555
O17 P5 1.488164 1_555
