# generated using pymatgen
data_Y2(TcB2)3
_symmetry_space_group_name_H-M   'P 1'
_cell_length_a   6.18056689
_cell_length_b   6.18056785
_cell_length_c   7.48265524
_cell_angle_alpha   89.32358624
_cell_angle_beta   89.32358259
_cell_angle_gamma   113.75380857
_symmetry_Int_Tables_number   1
_chemical_formula_structural   Y2(TcB2)3
_chemical_formula_sum   'Y4 Tc6 B12'
_cell_volume   261.55754645
_cell_formula_units_Z   2
loop_
 _symmetry_equiv_pos_site_id
 _symmetry_equiv_pos_as_xyz
  1  'x, y, z'
loop_
 _atom_site_type_symbol
 _atom_site_label
 _atom_site_symmetry_multiplicity
 _atom_site_fract_x
 _atom_site_fract_y
 _atom_site_fract_z
 _atom_site_occupancy
  Y  Y0  1  0.90029241  0.55890561  0.32227964  1
  Y  Y1  1  0.44109439  0.09970759  0.17772036  1
  Y  Y2  1  0.09970759  0.44109439  0.67772036  1
  Y  Y3  1  0.55890561  0.90029241  0.82227964  1
  Tc  Tc0  1  0.41273949  0.58726051  0.25000000  1
  Tc  Tc1  1  0.58726051  0.41273949  0.75000000  1
  Tc  Tc2  1  0.01066255  0.19529305  0.08900027  1
  Tc  Tc3  1  0.80470695  0.98933745  0.41099973  1
  Tc  Tc4  1  0.98933745  0.80470695  0.91099973  1
  Tc  Tc5  1  0.19529305  0.01066255  0.58900027  1
  B  B0  1  0.75434093  0.85027625  0.12921902  1
  B  B1  1  0.14972375  0.24565907  0.37078098  1
  B  B2  1  0.24565907  0.14972375  0.87078098  1
  B  B3  1  0.85027625  0.75434093  0.62921902  1
  B  B4  1  0.41472783  0.84156893  0.48132965  1
  B  B5  1  0.15843107  0.58527217  0.01867035  1
  B  B6  1  0.58527217  0.15843107  0.51867035  1
  B  B7  1  0.84156893  0.41472783  0.98132965  1
  B  B8  1  0.55769289  0.64977530  0.53411050  1
  B  B9  1  0.35022470  0.44230711  0.96588950  1
  B  B10  1  0.44230711  0.35022470  0.46588950  1
  B  B11  1  0.64977530  0.55769289  0.03411050  1
loop_
_geom_bond_atom_site_label_1
_geom_bond_atom_site_label_2
_geom_bond_distance
_geom_bond_site_symmetry_2
B0 B11 1.814921 1_555
B0 Tc2 2.097501 1_665
B0 Tc0 2.252152 1_555
B0 Tc3 2.263622 1_555
B0 Tc4 2.267039 1_554
B0 Y3 2.679378 1_554
B0 Y0 2.724271 1_555
B0 Y1 2.942394 1_565
B1 B10 1.814921 1_555
B1 Tc3 2.097500 1_445
B1 Tc0 2.252152 1_555
B1 Tc2 2.263622 1_555
B1 Tc5 2.267039 1_555
B1 Y2 2.679378 1_555
B1 Y1 2.724271 1_555
B1 Y0 2.942394 1_455
B2 B9 1.814921 1_555
B2 Tc4 2.097501 1_445
B2 Tc1 2.252152 1_555
B2 Tc5 2.263622 1_555
B2 Tc2 2.267039 1_556
B2 Y1 2.679378 1_556
B2 Y2 2.724271 1_555
B2 Y3 2.942394 1_545
B3 B8 1.814921 1_555
B3 Tc5 2.097500 1_665
B3 Tc1 2.252152 1_555
B3 Tc4 2.263622 1_555
B3 Tc3 2.267039 1_555
B3 Y0 2.679378 1_555
B3 Y3 2.724271 1_555
B3 Y2 2.942394 1_655
B4 B8 1.784068 1_555
B4 B6 1.838823 1_565
B4 Tc5 2.171780 1_565
B4 Tc3 2.259614 1_555
B4 Tc0 2.348620 1_555
B4 Y3 2.692481 1_555
B4 Y1 2.725677 1_565
B4 Y2 2.835654 1_555
B4 Y0 3.200189 1_455
B5 B9 1.784068 1_554
B5 B7 1.838823 1_454
B5 Tc4 2.171780 1_454
B5 Tc2 2.259615 1_555
B5 Tc0 2.348620 1_555
B5 Y2 2.692481 1_554
B5 Y0 2.725677 1_455
B5 Y3 2.835653 1_554
B5 Y1 3.200190 1_565
B6 Tc3 2.171780 1_545
B6 Tc5 2.259614 1_555
B6 Tc1 2.348620 1_555
B6 Y1 2.692481 1_555
B6 Y3 2.725677 1_545
B6 Y0 2.835654 1_555
B6 Y2 3.200189 1_655
B7 Tc2 2.171780 1_656
B7 Tc4 2.259615 1_555
B7 Tc1 2.348620 1_555
B7 Y0 2.692481 1_556
B7 Y2 2.725677 1_655
B7 Y1 2.835653 1_556
B7 Y3 3.200190 1_545
B8 Tc3 2.218961 1_555
B8 Tc1 2.226218 1_555
B8 Tc0 2.292785 1_555
B8 Y3 2.667727 1_555
B8 Y2 2.790138 1_555
B8 Y0 2.865535 1_555
B9 Tc2 2.218961 1_556
B9 Tc1 2.226218 1_555
B9 Tc0 2.292785 1_556
B9 Y2 2.667727 1_555
B9 Y3 2.790139 1_555
B9 Y1 2.865536 1_556
B10 B8 1.778781 1_555
B10 B6 1.784068 1_555
B10 Tc5 2.218961 1_555
B10 Tc0 2.226218 1_555
B10 Tc1 2.292785 1_555
B10 Y1 2.667727 1_555
B10 Y0 2.790138 1_555
B10 Y2 2.865535 1_555
B11 B9 1.778781 1_554
B11 B7 1.784068 1_554
B11 Tc4 2.218961 1_554
B11 Tc0 2.226218 1_555
B11 Tc1 2.292785 1_554
B11 Y0 2.667727 1_555
B11 Y1 2.790139 1_555
B11 Y3 2.865536 1_554
