# generated using pymatgen
data_NaTiAg3Se4
_symmetry_space_group_name_H-M   'P 1'
_cell_length_a   6.22978927
_cell_length_b   6.22978927
_cell_length_c   6.22978927
_cell_angle_alpha   90.00000000
_cell_angle_beta   90.00000000
_cell_angle_gamma   90.00000000
_symmetry_Int_Tables_number   1
_chemical_formula_structural   NaTiAg3Se4
_chemical_formula_sum   'Na1 Ti1 Ag3 Se4'
_cell_volume   241.77983015
_cell_formula_units_Z   1
loop_
 _symmetry_equiv_pos_site_id
 _symmetry_equiv_pos_as_xyz
  1  'x, y, z'
loop_
 _atom_site_type_symbol
 _atom_site_label
 _atom_site_symmetry_multiplicity
 _atom_site_fract_x
 _atom_site_fract_y
 _atom_site_fract_z
 _atom_site_occupancy
  Na  Na0  1  0.50000000  0.50000000  0.50000000  1
  Ti  Ti0  1  0.00000000  0.00000000  0.00000000  1
  Ag  Ag0  1  0.00000000  0.50000000  0.00000000  1
  Ag  Ag1  1  0.00000000  0.00000000  0.50000000  1
  Ag  Ag2  1  0.50000000  0.00000000  0.00000000  1
  Se  Se0  1  0.22719443  0.22719443  0.22719443  1
  Se  Se1  1  0.77280557  0.77280557  0.22719443  1
  Se  Se2  1  0.22719443  0.77280557  0.77280557  1
  Se  Se3  1  0.77280557  0.22719443  0.77280557  1
loop_
_geom_bond_atom_site_label_1
_geom_bond_atom_site_label_2
_geom_bond_distance
_geom_bond_site_symmetry_2
Na0 Se0 2.943657 1_555
Na0 Se3 2.943657 1_555
Na0 Se2 2.943657 1_555
Na0 Se1 2.943657 1_555
Ag0 Se3 2.625821 1_454
Ag0 Se1 2.625821 1_455
Ag0 Se0 2.625821 1_555
Ag0 Se2 2.625821 1_554
Ag1 Se1 2.625821 1_445
Ag1 Se0 2.625821 1_555
Ag1 Se2 2.625821 1_545
Ag1 Se3 2.625821 1_455
Ag2 Se2 2.625821 1_544
Ag2 Se1 2.625821 1_545
Ag2 Se0 2.625821 1_555
Ag2 Se3 2.625821 1_554
Se0 Ti0 2.451499 1_555
Se1 Ti0 2.451499 1_665
Se2 Ti0 2.451499 1_566
Se3 Ti0 2.451499 1_656
