# generated using pymatgen
data_Hf(NbS2)4
_symmetry_space_group_name_H-M   'P 1'
_cell_length_a   6.72214899
_cell_length_b   6.72214851
_cell_length_c   12.73032808
_cell_angle_alpha   90.00000000
_cell_angle_beta   90.00000000
_cell_angle_gamma   119.99999743
_symmetry_Int_Tables_number   1
_chemical_formula_structural   Hf(NbS2)4
_chemical_formula_sum   'Hf2 Nb8 S16'
_cell_volume   498.18021476
_cell_formula_units_Z   2
loop_
 _symmetry_equiv_pos_site_id
 _symmetry_equiv_pos_as_xyz
  1  'x, y, z'
loop_
 _atom_site_type_symbol
 _atom_site_label
 _atom_site_symmetry_multiplicity
 _atom_site_fract_x
 _atom_site_fract_y
 _atom_site_fract_z
 _atom_site_occupancy
  Hf  Hf0  1  0.00000000  0.00000000  0.00000000  1
  Hf  Hf1  1  0.00000000  0.00000000  0.50000000  1
  Nb  Nb0  1  0.98827349  0.49413625  0.25000000  1
  Nb  Nb1  1  0.01172651  0.50586375  0.75000000  1
  Nb  Nb2  1  0.49413625  0.50586375  0.75000000  1
  Nb  Nb3  1  0.50586375  0.01172651  0.25000000  1
  Nb  Nb4  1  0.00000000  0.00000000  0.75000000  1
  Nb  Nb5  1  0.00000000  0.00000000  0.25000000  1
  Nb  Nb6  1  0.50586375  0.49413625  0.25000000  1
  Nb  Nb7  1  0.49413625  0.98827349  0.75000000  1
  S  S0  1  0.33333300  0.66666700  0.62417424  1
  S  S1  1  0.66666700  0.33333300  0.12417424  1
  S  S2  1  0.66666700  0.33333300  0.37582576  1
  S  S3  1  0.33333300  0.66666700  0.87582576  1
  S  S4  1  0.16805470  0.33610939  0.37451047  1
  S  S5  1  0.83194530  0.16805470  0.87451047  1
  S  S6  1  0.33610939  0.16805470  0.87451047  1
  S  S7  1  0.66389061  0.83194530  0.37451047  1
  S  S8  1  0.16805470  0.83194530  0.37451047  1
  S  S9  1  0.83194530  0.66389061  0.87451047  1
  S  S10  1  0.16805470  0.33610939  0.12548953  1
  S  S11  1  0.83194530  0.16805470  0.62548953  1
  S  S12  1  0.33610939  0.16805470  0.62548953  1
  S  S13  1  0.66389061  0.83194530  0.12548953  1
  S  S14  1  0.16805470  0.83194530  0.12548953  1
  S  S15  1  0.83194530  0.66389061  0.62548953  1
loop_
_geom_bond_atom_site_label_1
_geom_bond_atom_site_label_2
_geom_bond_distance
_geom_bond_site_symmetry_2
Hf0 S14 2.525999 1_545
Hf0 S5 2.525999 1_454
Hf0 S10 2.525999 1_555
Hf0 S9 2.525999 1_444
Hf0 S13 2.525999 1_445
Hf0 S6 2.525999 1_554
Hf1 S11 2.525999 1_455
Hf1 S8 2.525999 1_545
Hf1 S15 2.525999 1_445
Hf1 S4 2.525999 1_555
Hf1 S12 2.525999 1_555
Hf1 S7 2.525999 1_445
Nb0 S2 2.463958 1_555
Nb0 S1 2.463958 1_555
Nb0 S4 2.526884 1_655
Nb0 S10 2.526884 1_655
Nb0 S8 2.526889 1_655
Nb0 S14 2.526889 1_655
Nb1 S3 2.463958 1_555
Nb1 S0 2.463958 1_555
Nb1 S9 2.526884 1_455
Nb1 S15 2.526884 1_455
Nb1 S5 2.526889 1_455
Nb1 S11 2.526889 1_455
Nb2 S3 2.463958 1_555
Nb2 S0 2.463958 1_555
Nb2 S6 2.526889 1_555
Nb2 S12 2.526889 1_555
Nb2 S9 2.526889 1_555
Nb2 S15 2.526889 1_555
Nb3 S2 2.463958 1_555
Nb3 S1 2.463958 1_555
Nb3 S7 2.526884 1_545
Nb3 S13 2.526884 1_545
Nb3 S8 2.526889 1_545
Nb3 S14 2.526889 1_545
Nb4 S5 2.518135 1_455
Nb4 S11 2.518135 1_455
Nb4 S9 2.518135 1_445
Nb4 S15 2.518135 1_445
Nb4 S6 2.518135 1_555
Nb4 S12 2.518135 1_555
Nb5 S8 2.518135 1_545
Nb5 S14 2.518135 1_545
Nb5 S4 2.518135 1_555
Nb5 S10 2.518135 1_555
Nb5 S7 2.518135 1_445
Nb5 S13 2.518135 1_445
Nb6 S2 2.463958 1_555
Nb6 S1 2.463958 1_555
Nb6 S7 2.526889 1_555
Nb6 S13 2.526889 1_555
Nb6 S4 2.526889 1_555
Nb6 S10 2.526889 1_555
Nb7 S3 2.463958 1_555
Nb7 S0 2.463958 1_555
Nb7 S6 2.526884 1_565
Nb7 S12 2.526884 1_565
Nb7 S5 2.526889 1_565
Nb7 S11 2.526889 1_565
