# generated using pymatgen
data_Cs10Al5GaSe14
_symmetry_space_group_name_H-M   'P 1'
_cell_length_a   11.20827662
_cell_length_b   11.20827700
_cell_length_c   9.67678555
_cell_angle_alpha   76.41692077
_cell_angle_beta   76.41692024
_cell_angle_gamma   71.58527934
_symmetry_Int_Tables_number   1
_chemical_formula_structural   Cs10Al5GaSe14
_chemical_formula_sum   'Cs10 Al5 Ga1 Se14'
_cell_volume   1103.99912276
_cell_formula_units_Z   1
loop_
 _symmetry_equiv_pos_site_id
 _symmetry_equiv_pos_as_xyz
  1  'x, y, z'
loop_
 _atom_site_type_symbol
 _atom_site_label
 _atom_site_symmetry_multiplicity
 _atom_site_fract_x
 _atom_site_fract_y
 _atom_site_fract_z
 _atom_site_occupancy
  Cs  Cs0  1  0.02973481  0.43622685  0.71937925  1
  Cs  Cs1  1  0.43622685  0.02973481  0.71937925  1
  Cs  Cs2  1  0.96864707  0.56586828  0.28046864  1
  Cs  Cs3  1  0.56586828  0.96864707  0.28046864  1
  Cs  Cs4  1  0.29218149  0.70836844  0.00045126  1
  Cs  Cs5  1  0.70836844  0.29218149  0.00045126  1
  Cs  Cs6  1  0.84802044  0.15021847  0.49904565  1
  Cs  Cs7  1  0.15021847  0.84802044  0.49904565  1
  Cs  Cs8  1  0.42608400  0.42608400  0.69100516  1
  Cs  Cs9  1  0.57328679  0.57328679  0.30958587  1
  Al  Al0  1  0.21099138  0.21099138  0.18235231  1
  Al  Al1  1  0.78949678  0.78949678  0.81873456  1
  Al  Al2  1  0.07120864  0.07120864  0.05668982  1
  Al  Al3  1  0.92980509  0.92980509  0.94318976  1
  Al  Al4  1  0.34367696  0.34367696  0.33104479  1
  Ga  Ga0  1  0.65485882  0.65485882  0.66732390  1
  Se  Se0  1  0.00246831  0.28224690  0.11395701  1
  Se  Se1  1  0.28224690  0.00246831  0.11395701  1
  Se  Se2  1  0.99833723  0.71855769  0.88665801  1
  Se  Se3  1  0.71855769  0.99833723  0.88665801  1
  Se  Se4  1  0.20327623  0.20327623  0.43145311  1
  Se  Se5  1  0.79751560  0.79751560  0.56918392  1
  Se  Se6  1  0.06380298  0.06380298  0.81335815  1
  Se  Se7  1  0.93715032  0.93715032  0.18671464  1
  Se  Se8  1  0.34643591  0.34643591  0.07447783  1
  Se  Se9  1  0.65406655  0.65406655  0.92700177  1
  Se  Se10  1  0.25119575  0.54838213  0.39152779  1
  Se  Se11  1  0.54838213  0.25119575  0.39152779  1
  Se  Se12  1  0.74964657  0.44824552  0.60745509  1
  Se  Se13  1  0.44824552  0.74964657  0.60745509  1
loop_
_geom_bond_atom_site_label_1
_geom_bond_atom_site_label_2
_geom_bond_distance
_geom_bond_site_symmetry_2
Cs0 Se12 3.508243 1_455
Cs0 Se2 3.767318 1_455
Cs0 Se10 3.769053 1_555
Cs0 Se0 3.786927 1_556
Cs0 Se6 3.971154 1_555
Cs0 Se4 4.003293 1_555
Cs1 Se13 3.508243 1_545
Cs1 Se3 3.767318 1_545
Cs1 Se11 3.769053 1_555
Cs1 Se1 3.786927 1_556
Cs1 Se6 3.971154 1_555
Cs1 Se4 4.003293 1_555
Cs2 Se10 3.511423 1_655
Cs2 Se0 3.768703 1_655
Cs2 Se12 3.769899 1_555
Cs2 Se2 3.776603 1_554
Cs2 Se7 3.964109 1_555
Cs2 Se5 3.996182 1_555
Cs3 Se11 3.511424 1_565
Cs3 Se1 3.768703 1_565
Cs3 Se13 3.769899 1_555
Cs3 Se3 3.776603 1_554
Cs3 Se7 3.964109 1_555
Cs3 Se5 3.996182 1_555
Cs4 Se2 3.671431 1_454
Cs4 Se1 3.673698 1_565
Cs4 Se10 3.776811 1_555
Cs4 Se13 3.781060 1_554
Cs4 Se9 3.823220 1_554
Cs4 Se8 3.823664 1_555
Cs5 Se3 3.671431 1_544
Cs5 Se0 3.673698 1_655
Cs5 Se11 3.776811 1_555
Cs5 Se12 3.781060 1_554
Cs5 Se9 3.823220 1_554
Cs5 Se8 3.823664 1_555
Cs6 Se12 3.500007 1_555
Cs6 Se11 3.511296 1_555
Cs6 Se0 3.882140 1_655
Cs6 Se3 3.882944 1_545
Cs6 Se7 4.037399 1_545
Cs6 Se5 4.047454 1_545
Cs6 Se6 4.077986 1_655
Cs6 Se4 4.089773 1_655
Cs7 Se13 3.500007 1_555
Cs7 Se10 3.511297 1_555
Cs7 Se1 3.882140 1_565
Cs7 Se2 3.882944 1_455
Cs7 Se7 4.037399 1_455
Cs7 Se5 4.047454 1_455
Cs7 Se6 4.077986 1_565
Cs7 Se4 4.089773 1_565
Cs8 Se8 3.571456 1_556
Cs8 Se12 3.600695 1_555
Cs8 Se13 3.600695 1_555
Cs8 Se10 3.636536 1_555
Cs8 Se11 3.636536 1_555
Cs9 Se9 3.565765 1_554
Cs9 Se10 3.595483 1_555
Cs9 Se11 3.595483 1_555
Cs9 Se12 3.634325 1_555
Cs9 Se13 3.634325 1_555
Al0 Se4 2.373678 1_555
Al0 Se8 2.380390 1_555
Al0 Se0 2.416055 1_555
Al0 Se1 2.416055 1_555
Al1 Se5 2.376733 1_555
Al1 Se9 2.380685 1_555
Al1 Se2 2.417567 1_555
Al1 Se3 2.417567 1_555
Al2 Se6 2.397124 1_554
Al2 Se7 2.397679 1_445
Al2 Se1 2.399890 1_555
Al2 Se0 2.399890 1_555
Al3 Se6 2.396298 1_665
Al3 Se7 2.398617 1_556
Al3 Se3 2.399450 1_555
Al3 Se2 2.399450 1_555
Al4 Se11 2.350421 1_555
Al4 Se10 2.350421 1_555
Al4 Se4 2.454582 1_555
Al4 Se8 2.468686 1_555
Ga0 Se13 2.369359 1_555
Ga0 Se12 2.369359 1_555
Ga0 Se5 2.490747 1_555
Ga0 Se9 2.508714 1_555
