# generated using pymatgen
data_Zn22CoPt2
_symmetry_space_group_name_H-M   'P 1'
_cell_length_a   7.65384123
_cell_length_b   7.65384132
_cell_length_c   7.65092388
_cell_angle_alpha   72.02949305
_cell_angle_beta   72.02947713
_cell_angle_gamma   58.41667771
_symmetry_Int_Tables_number   1
_chemical_formula_structural   Zn22CoPt2
_chemical_formula_sum   'Zn22 Co1 Pt2'
_cell_volume   357.16541225
_cell_formula_units_Z   1
loop_
 _symmetry_equiv_pos_site_id
 _symmetry_equiv_pos_as_xyz
  1  'x, y, z'
loop_
 _atom_site_type_symbol
 _atom_site_label
 _atom_site_symmetry_multiplicity
 _atom_site_fract_x
 _atom_site_fract_y
 _atom_site_fract_z
 _atom_site_occupancy
  Zn  Zn0  1  0.33240217  0.74682795  0.31774101  1
  Zn  Zn1  1  0.66759783  0.25317205  0.68225899  1
  Zn  Zn2  1  0.25317205  0.66759783  0.68225899  1
  Zn  Zn3  1  0.74682795  0.33240217  0.31774101  1
  Zn  Zn4  1  0.68328470  0.31671530  1.00000000  1
  Zn  Zn5  1  0.31671530  0.68328470  0.00000000  1
  Zn  Zn6  1  0.83487506  0.83487506  0.77610141  1
  Zn  Zn7  1  0.16512494  0.16512494  0.22389859  1
  Zn  Zn8  1  0.97603500  0.97603500  0.17641951  1
  Zn  Zn9  1  0.02396500  0.02396500  0.82358049  1
  Zn  Zn10  1  0.35230664  0.35230664  0.27887684  1
  Zn  Zn11  1  0.64769336  0.64769336  0.72112316  1
  Zn  Zn12  1  0.68297150  0.68297150  0.38396446  1
  Zn  Zn13  1  0.31702850  0.31702850  0.61603554  1
  Zn  Zn14  1  0.66296976  0.02152678  0.46199424  1
  Zn  Zn15  1  0.33703024  0.97847322  0.53800576  1
  Zn  Zn16  1  0.97847322  0.33703024  0.53800576  1
  Zn  Zn17  1  0.02152678  0.66296976  0.46199424  1
  Zn  Zn18  1  0.62311840  0.99694250  0.10924006  1
  Zn  Zn19  1  0.37688160  0.00305750  0.89075994  1
  Zn  Zn20  1  0.00305750  0.37688160  0.89075994  1
  Zn  Zn21  1  0.99694250  0.62311840  0.10924006  1
  Co  Co0  1  0.00000000  0.00000000  0.50000000  1
  Pt  Pt0  1  0.65742391  0.65742391  0.05599939  1
  Pt  Pt1  1  0.34257609  0.34257609  0.94400061  1
loop_
_geom_bond_atom_site_label_1
_geom_bond_atom_site_label_2
_geom_bond_distance
_geom_bond_site_symmetry_2
Zn0 Zn17 2.614134 1_555
Zn0 Zn12 2.647183 1_555
Zn0 Zn5 2.670506 1_555
Zn0 Zn8 2.706201 1_455
Zn0 Zn15 2.816202 1_555
Zn1 Zn16 2.614134 1_555
Zn1 Zn13 2.647183 1_555
Zn1 Zn4 2.670506 1_555
Zn1 Zn9 2.706201 1_655
Zn1 Zn14 2.816202 1_555
Zn2 Zn5 2.670506 1_556
Zn2 Zn9 2.706201 1_565
Zn3 Zn4 2.670506 1_554
Zn3 Zn8 2.706201 1_545
Zn4 Zn9 2.686280 1_655
Zn4 Zn8 2.686280 1_546
Zn4 Zn5 2.738254 1_556
Zn5 Zn8 2.686280 1_455
Zn5 Zn9 2.686280 1_564
Zn6 Zn9 2.676552 1_665
Zn7 Zn8 2.676552 1_445
Zn8 Zn9 2.544699 1_664
Zn10 Zn13 2.452919 1_555
Zn10 Zn4 2.710103 1_554
Zn10 Zn5 2.710104 1_555
Zn10 Zn17 2.754546 1_555
Zn10 Zn14 2.754547 1_555
Zn10 Zn16 2.972901 1_455
Zn10 Zn15 2.972901 1_545
Zn11 Zn12 2.452919 1_555
Zn11 Zn5 2.710103 1_556
Zn11 Zn4 2.710104 1_555
Zn11 Zn16 2.754546 1_555
Zn11 Zn15 2.754547 1_555
Zn11 Zn17 2.972901 1_655
Zn11 Zn14 2.972901 1_565
Zn12 Zn21 2.593626 1_555
Zn12 Zn18 2.593627 1_555
Zn12 Zn15 2.638469 1_555
Zn12 Zn16 2.638469 1_555
Zn12 Zn3 2.647183 1_555
Zn12 Zn14 2.752646 1_565
Zn12 Zn17 2.752646 1_655
Zn13 Zn20 2.593626 1_555
Zn13 Zn19 2.593627 1_555
Zn13 Zn14 2.638469 1_555
Zn13 Zn17 2.638469 1_555
Zn13 Zn2 2.647183 1_555
Zn13 Zn15 2.752646 1_545
Zn13 Zn16 2.752646 1_455
Zn14 Zn15 2.553014 1_545
Zn14 Zn3 2.614134 1_555
Zn14 Zn8 2.646054 1_545
Zn14 Zn17 2.678401 1_645
Zn14 Zn6 2.722354 1_545
Zn14 Zn18 2.879917 1_545
Zn15 Zn2 2.614134 1_555
Zn15 Zn9 2.646054 1_565
Zn15 Zn16 2.678401 1_465
Zn15 Zn7 2.722354 1_565
Zn15 Zn19 2.879917 1_565
Zn16 Zn17 2.553015 1_655
Zn16 Zn9 2.646055 1_655
Zn16 Zn7 2.722354 1_655
Zn16 Zn3 2.816203 1_555
Zn16 Zn20 2.879917 1_655
Zn17 Zn8 2.646055 1_455
Zn17 Zn6 2.722354 1_455
Zn17 Zn2 2.816203 1_555
Zn17 Zn21 2.879917 1_455
Zn18 Zn4 2.565476 1_564
Zn18 Zn8 2.817670 1_555
Zn19 Zn5 2.565476 1_546
Zn19 Zn9 2.817670 1_555
Zn20 Zn4 2.565476 1_455
Zn20 Zn9 2.817670 1_555
Zn21 Zn5 2.565476 1_655
Zn21 Zn8 2.817670 1_555
Co0 Zn7 2.456680 1_555
Co0 Zn6 2.456680 1_445
Co0 Zn1 2.546819 1_455
Co0 Zn0 2.546819 1_545
Co0 Zn3 2.546820 1_455
Co0 Zn2 2.546820 1_545
Co0 Zn16 2.598846 1_455
Co0 Zn17 2.598846 1_545
Co0 Zn15 2.598846 1_545
Co0 Zn14 2.598846 1_455
Co0 Zn9 2.606143 1_555
Co0 Zn8 2.606143 1_445
Pt0 Zn6 2.572558 1_554
Pt0 Zn0 2.579821 1_555
Pt0 Zn3 2.579821 1_555
Pt0 Zn11 2.610903 1_554
Pt0 Zn18 2.619191 1_555
Pt0 Zn21 2.619191 1_555
Pt0 Zn20 2.620780 1_654
Pt0 Zn19 2.620781 1_564
Pt0 Zn12 2.649207 1_555
Pt0 Zn4 2.668225 1_554
Pt0 Zn5 2.668225 1_555
Pt1 Zn7 2.572558 1_556
Pt1 Zn1 2.579821 1_555
Pt1 Zn2 2.579821 1_555
Pt1 Zn10 2.610903 1_556
Pt1 Zn19 2.619191 1_555
Pt1 Zn20 2.619191 1_555
Pt1 Zn21 2.620780 1_456
Pt1 Zn18 2.620781 1_546
Pt1 Zn13 2.649207 1_555
Pt1 Zn5 2.668225 1_556
Pt1 Zn4 2.668225 1_555
