# generated using pymatgen
data_Mn4Cu5Pd4Pt3
_symmetry_space_group_name_H-M   'P 1'
_cell_length_a   6.62312404
_cell_length_b   6.61368656
_cell_length_c   6.62312407
_cell_angle_alpha   107.21558955
_cell_angle_beta   114.50330660
_cell_angle_gamma   106.86522150
_symmetry_Int_Tables_number   1
_chemical_formula_structural   Mn4Cu5Pd4Pt3
_chemical_formula_sum   'Mn4 Cu5 Pd4 Pt3'
_cell_volume   221.89355114
_cell_formula_units_Z   1
loop_
 _symmetry_equiv_pos_site_id
 _symmetry_equiv_pos_as_xyz
  1  'x, y, z'
loop_
 _atom_site_type_symbol
 _atom_site_label
 _atom_site_symmetry_multiplicity
 _atom_site_fract_x
 _atom_site_fract_y
 _atom_site_fract_z
 _atom_site_occupancy
  Mn  Mn0  1  0.24827049  0.24975315  0.49931814  1
  Mn  Mn1  1  0.74865136  0.75036534  0.49799260  1
  Mn  Mn2  1  0.25237174  0.75036534  0.00171399  1
  Mn  Mn3  1  0.75043701  0.24975315  0.00148266  1
  Cu  Cu0  1  0.50013872  0.24689233  0.24659475  1
  Cu  Cu1  1  0.49866604  0.75286364  0.75240923  1
  Cu  Cu2  1  0.00029858  0.24689233  0.74675461  1
  Cu  Cu3  1  0.25036120  0.99959530  0.74923210  1
  Cu  Cu4  1  0.00045440  0.75286364  0.25419659  1
  Pd  Pd0  1  0.75065329  0.00018203  0.24952974  1
  Pd  Pd1  1  0.24921964  0.49901806  0.24979742  1
  Pd  Pd2  1  0.75049614  0.50106234  0.75056720  1
  Pd  Pd3  1  0.00422969  0.99939124  0.99516155  1
  Pt  Pt0  1  0.49611371  0.00082351  0.50470980  1
  Pt  Pt1  1  0.00411919  0.50949144  0.50537225  1
  Pt  Pt2  1  0.49551978  0.49068715  0.99516637  1
loop_
_geom_bond_atom_site_label_1
_geom_bond_atom_site_label_2
_geom_bond_distance
_geom_bond_site_symmetry_2
Mn0 Pt2 2.633101 1_555
Mn0 Pt0 2.638275 1_555
Mn0 Pd0 2.651018 1_455
Mn0 Pd1 2.657854 1_555
Mn0 Pd2 2.675711 1_555
Mn0 Pt1 2.681825 1_555
Mn0 Pd3 2.683518 1_544
Mn1 Pt1 2.635261 1_655
Mn1 Pd3 2.639923 1_655
Mn1 Pd0 2.655703 1_565
Mn1 Pd1 2.662453 1_555
Mn1 Pd2 2.672921 1_555
Mn1 Pt2 2.676468 1_554
Mn1 Pt0 2.677511 1_565
Mn2 Pt1 2.635262 1_554
Mn2 Pd3 2.639918 1_554
Mn2 Pd0 2.655714 1_565
Mn2 Pd1 2.662447 1_555
Mn2 Pd2 2.672911 1_454
Mn2 Pt2 2.676468 1_554
Mn2 Pt0 2.677510 1_565
Mn3 Pt2 2.633116 1_554
Mn3 Pt0 2.638274 1_554
Mn3 Pd0 2.651024 1_555
Mn3 Pd1 2.657838 1_655
Mn3 Pd2 2.675705 1_554
Mn3 Pt1 2.681826 1_655
Mn3 Pd3 2.683507 1_644
Cu0 Pt2 2.636182 1_554
Cu0 Pd3 2.640120 1_544
Cu0 Pd0 2.641684 1_555
Cu0 Cu3 2.642619 1_544
Cu0 Pd1 2.675627 1_555
Cu0 Pd2 2.680851 1_555
Cu0 Pt1 2.687818 1_655
Cu0 Pt0 2.689083 1_555
Cu0 Mn3 2.759763 1_555
Cu0 Mn2 2.760434 1_545
Cu0 Mn1 2.798908 1_555
Cu0 Mn0 2.810770 1_555
Cu1 Cu3 2.629933 1_555
Cu1 Pt1 2.633053 1_555
Cu1 Pt0 2.639441 1_565
Cu1 Pd0 2.640351 1_566
Cu1 Pd1 2.673929 1_555
Cu1 Pd2 2.678046 1_555
Cu1 Pt2 2.692424 1_555
Cu1 Pd3 2.696315 1_655
Cu1 Mn2 2.760852 1_556
Cu1 Mn3 2.762440 1_566
Cu1 Mn0 2.796863 1_555
Cu1 Mn1 2.809711 1_555
Cu2 Pt2 2.636173 1_555
Cu2 Pd3 2.640115 1_545
Cu2 Pd0 2.641684 1_455
Cu2 Cu3 2.642604 1_545
Cu2 Pd1 2.675618 1_556
Cu2 Pd2 2.680851 1_455
Cu2 Pt1 2.687822 1_555
Cu2 Pt0 2.689088 1_455
Cu2 Mn0 2.759751 1_555
Cu2 Mn1 2.760434 1_445
Cu2 Mn2 2.798908 1_556
Cu2 Mn3 2.810759 1_456
Cu3 Cu4 2.629928 1_555
Cu3 Mn0 2.663168 1_565
Cu3 Mn3 2.663188 1_566
Cu3 Mn1 2.671944 1_455
Cu3 Mn2 2.671954 1_556
Cu3 Pt1 2.724665 1_555
Cu3 Pt2 2.730056 1_565
Cu3 Pt0 2.731068 1_565
Cu3 Pd3 2.740986 1_555
Cu4 Pt1 2.633058 1_555
Cu4 Pt0 2.639441 1_565
Cu4 Pd0 2.640346 1_465
Cu4 Pd1 2.673923 1_555
Cu4 Pd2 2.678036 1_454
Cu4 Pt2 2.692429 1_454
Cu4 Pd3 2.696310 1_554
Cu4 Mn1 2.760852 1_455
Cu4 Mn0 2.762440 1_565
Cu4 Mn3 2.796863 1_455
Cu4 Mn2 2.809699 1_555
Pd0 Pd3 2.829444 1_644
Pd0 Pt1 2.831321 1_655
Pd0 Pt2 2.832397 1_544
Pd0 Pt0 2.839334 1_555
Pd1 Pd3 2.777815 1_544
Pd1 Pt1 2.789333 1_555
Pd1 Pt0 2.789802 1_565
Pd1 Pt2 2.790584 1_554
Pd2 Pd3 2.770981 1_655
Pd2 Pt1 2.779209 1_655
Pd2 Pt0 2.781522 1_555
Pd2 Pt2 2.783676 1_555
