# generated using pymatgen
data_Hf11Zr3(Pt9Au)2
_symmetry_space_group_name_H-M   'P 1'
_cell_length_a   8.13181809
_cell_length_b   8.13181766
_cell_length_c   9.62604305
_cell_angle_alpha   90.09840764
_cell_angle_beta   90.09839349
_cell_angle_gamma   107.16298537
_symmetry_Int_Tables_number   1
_chemical_formula_structural   Hf11Zr3(Pt9Au)2
_chemical_formula_sum   'Hf11 Zr3 Pt18 Au2'
_cell_volume   608.18815903
_cell_formula_units_Z   1
loop_
 _symmetry_equiv_pos_site_id
 _symmetry_equiv_pos_as_xyz
  1  'x, y, z'
loop_
 _atom_site_type_symbol
 _atom_site_label
 _atom_site_symmetry_multiplicity
 _atom_site_fract_x
 _atom_site_fract_y
 _atom_site_fract_z
 _atom_site_occupancy
  Hf  Hf0  1  0.19034836  0.80965164  0.50000000  1
  Hf  Hf1  1  0.99997906  0.00002094  0.00000000  1
  Hf  Hf2  1  0.50046653  0.49953347  0.50000000  1
  Hf  Hf3  1  0.00020874  0.50161130  0.25099272  1
  Hf  Hf4  1  0.00032896  0.49899818  0.74898669  1
  Hf  Hf5  1  0.49838870  0.99979126  0.74900728  1
  Hf  Hf6  1  0.50100182  0.99967104  0.25101331  1
  Hf  Hf7  1  0.30964503  0.30991298  0.19101252  1
  Hf  Hf8  1  0.69008702  0.69035497  0.80898748  1
  Hf  Hf9  1  0.17571446  0.17537350  0.67525959  1
  Hf  Hf10  1  0.82462650  0.82428554  0.32473941  1
  Zr  Zr0  1  0.69619224  0.30380776  1.00000000  1
  Zr  Zr1  1  0.30377951  0.69622049  0.00000000  1
  Zr  Zr2  1  0.80960799  0.19039201  0.50000000  1
  Pt  Pt0  1  0.85104284  0.14190528  0.20815572  1
  Pt  Pt1  1  0.14929444  0.85820316  0.79106259  1
  Pt  Pt2  1  0.65041641  0.35983890  0.70755633  1
  Pt  Pt3  1  0.64016010  0.34958359  0.29244367  1
  Pt  Pt4  1  0.34935785  0.64087949  0.29287994  1
  Pt  Pt5  1  0.35911951  0.65064215  0.70712006  1
  Pt  Pt6  1  0.85809472  0.14895716  0.79184428  1
  Pt  Pt7  1  0.14179584  0.85070556  0.20893741  1
  Pt  Pt8  1  0.93534961  0.64596244  0.99577988  1
  Pt  Pt9  1  0.06464867  0.35474496  0.00418300  1
  Pt  Pt10  1  0.56243983  0.85339144  0.49769003  1
  Pt  Pt11  1  0.14660856  0.43756017  0.50230997  1
  Pt  Pt12  1  0.43614044  0.14466978  0.50257552  1
  Pt  Pt13  1  0.85533022  0.56386056  0.49742448  1
  Pt  Pt14  1  0.35403756  0.06464939  0.00422012  1
  Pt  Pt15  1  0.64525504  0.93535133  0.99581700  1
  Pt  Pt16  1  0.10716054  0.10614670  0.39297555  1
  Pt  Pt17  1  0.89385330  0.89283946  0.60702445  1
  Au  Au0  1  0.39072775  0.39121019  0.88908002  1
  Au  Au1  1  0.60878981  0.60927225  0.11091998  1
loop_
_geom_bond_atom_site_label_1
_geom_bond_atom_site_label_2
_geom_bond_distance
_geom_bond_site_symmetry_2
Hf0 Pt1 2.862605 1_555
Hf0 Pt7 2.862606 1_555
Hf0 Pt13 2.864148 1_455
Hf0 Pt12 2.864152 1_565
Hf0 Pt17 2.881114 1_455
Hf0 Pt16 2.881114 1_565
Hf0 Pt5 2.928699 1_555
Hf0 Pt4 2.928704 1_555
Hf0 Pt11 2.940653 1_555
Hf0 Pt10 2.940653 1_555
Hf1 Pt0 2.763691 1_555
Hf1 Pt6 2.763692 1_554
Hf1 Pt8 2.770161 1_544
Hf1 Pt14 2.770163 1_655
Hf1 Pt7 2.770586 1_645
Hf1 Pt1 2.770590 1_644
Hf1 Pt9 2.775441 1_655
Hf1 Pt15 2.775441 1_544
Hf2 Pt3 2.754264 1_555
Hf2 Pt2 2.754269 1_555
Hf2 Pt4 2.763888 1_555
Hf2 Pt5 2.763892 1_555
Hf2 Pt10 2.771089 1_555
Hf2 Pt11 2.771089 1_555
Hf2 Pt13 2.776842 1_555
Hf2 Pt12 2.776842 1_555
Hf3 Pt4 2.757374 1_555
Hf3 Pt7 2.761287 1_555
Hf3 Pt13 2.762031 1_455
Hf3 Pt9 2.776550 1_555
Hf3 Pt11 2.810951 1_555
Hf3 Pt8 2.839407 1_454
Hf3 Pt0 2.845612 1_455
Hf3 Pt3 2.851201 1_455
Hf4 Pt2 2.762292 1_455
Hf4 Pt11 2.767539 1_555
Hf4 Pt6 2.770015 1_455
Hf4 Pt8 2.778194 1_455
Hf4 Pt13 2.809628 1_455
Hf4 Pt9 2.837556 1_556
Hf4 Pt1 2.840702 1_555
Hf4 Pt5 2.842169 1_555
Hf5 Pt5 2.757374 1_555
Hf5 Pt1 2.761288 1_555
Hf5 Pt12 2.762028 1_565
Hf5 Pt15 2.776550 1_555
Hf5 Pt10 2.810951 1_555
Hf5 Pt14 2.839405 1_566
Hf5 Pt6 2.845612 1_565
Hf5 Pt2 2.851194 1_565
Hf6 Pt3 2.762291 1_565
Hf6 Pt10 2.767539 1_555
Hf6 Pt0 2.770016 1_565
Hf6 Pt14 2.778192 1_565
Hf6 Pt12 2.809625 1_565
Hf6 Pt15 2.837555 1_554
Hf6 Pt7 2.840709 1_555
Hf6 Pt4 2.842176 1_555
Hf7 Pt16 2.765535 1_555
Hf7 Pt9 2.784776 1_555
Hf7 Pt14 2.784958 1_555
Hf7 Pt3 2.785544 1_555
Hf7 Pt4 2.790365 1_555
Hf8 Pt17 2.765535 1_555
Hf8 Pt15 2.784776 1_555
Hf8 Pt8 2.784952 1_555
Hf8 Pt2 2.785551 1_555
Hf8 Pt5 2.790373 1_555
Hf9 Pt1 2.761261 1_545
Hf9 Pt12 2.762787 1_555
Hf9 Pt6 2.767655 1_455
Hf9 Pt11 2.771635 1_555
Hf9 Pt16 2.795640 1_555
Hf9 Pt17 2.800932 1_445
Hf10 Pt7 2.761250 1_655
Hf10 Pt13 2.762787 1_555
Hf10 Pt0 2.767651 1_565
Hf10 Pt10 2.771641 1_555
Hf10 Pt17 2.795650 1_555
Hf10 Pt16 2.800934 1_665
Pt0 Pt16 2.816703 1_655
Pt0 Pt9 2.849032 1_655
Pt0 Pt15 2.849046 1_544
Pt0 Pt3 2.856637 1_555
Pt0 Zr2 2.870373 1_555
Pt0 Zr0 2.883168 1_554
Pt1 Pt17 2.804796 1_455
Pt1 Pt5 2.848296 1_555
Pt1 Pt14 2.850842 1_566
Pt1 Pt8 2.853101 1_455
Pt1 Zr1 2.887094 1_556
Pt2 Pt6 2.856631 1_555
Pt2 Zr0 2.893393 1_555
Pt2 Zr2 2.935703 1_555
Pt3 Zr0 2.893394 1_554
Pt3 Zr2 2.935709 1_555
Pt4 Pt7 2.848309 1_555
Pt4 Zr1 2.896103 1_555
Pt5 Zr1 2.896101 1_556
Pt6 Pt9 2.849046 1_656
Pt6 Zr2 2.870373 1_555
Pt6 Zr0 2.883168 1_555
Pt7 Pt8 2.850842 1_454
Pt7 Zr1 2.887098 1_555
Pt8 Pt9 2.861812 1_656
Pt8 Zr0 2.886591 1_555
Pt8 Zr1 2.902001 1_656
Pt9 Zr1 2.882277 1_555
Pt9 Zr0 2.901310 1_454
Pt10 Pt5 2.816051 1_555
Pt10 Pt17 2.820008 1_555
Pt10 Pt4 2.843406 1_555
Pt10 Pt12 2.846561 1_565
Pt10 Zr2 2.880820 1_565
Pt11 Pt4 2.816048 1_555
Pt11 Pt16 2.820007 1_555
Pt11 Pt5 2.843402 1_555
Pt11 Pt13 2.846566 1_455
Pt11 Zr2 2.880820 1_455
Pt12 Pt16 2.804012 1_555
Pt12 Pt3 2.830563 1_555
Pt12 Pt2 2.857967 1_555
Pt12 Zr2 2.948885 1_555
Pt13 Pt17 2.804004 1_555
Pt13 Pt2 2.830570 1_555
Pt13 Pt3 2.857974 1_555
Pt13 Zr2 2.948893 1_555
Pt14 Pt7 2.853101 1_545
Pt14 Pt15 2.861807 1_544
Pt14 Zr0 2.886594 1_554
Pt14 Zr1 2.901993 1_545
Pt15 Pt6 2.849032 1_565
Pt15 Zr1 2.882277 1_556
Pt15 Zr0 2.901310 1_565
Pt16 Pt7 2.804793 1_545
Pt16 Zr2 2.893057 1_455
Pt16 Pt17 2.917495 1_445
Pt17 Pt6 2.816702 1_565
Pt17 Zr2 2.893058 1_565
Au0 Pt9 2.809591 1_556
Au0 Pt2 2.811914 1_555
Au0 Pt14 2.812995 1_556
Au0 Pt5 2.813506 1_555
Au0 Hf9 2.921998 1_555
Au0 Zr1 2.969892 1_556
Au0 Zr0 2.975027 1_555
Au0 Hf8 2.992636 1_555
Au0 Au1 2.994512 1_556
Au0 Hf7 3.012468 1_556
Au1 Pt15 2.809591 1_554
Au1 Pt3 2.811912 1_555
Au1 Pt8 2.812988 1_554
Au1 Pt4 2.813504 1_555
Au1 Hf10 2.921991 1_555
Au1 Zr1 2.969892 1_555
Au1 Zr0 2.975027 1_554
Au1 Hf7 2.992636 1_555
Au1 Hf8 3.012468 1_554
