# generated using pymatgen
data_KBa(FeN3)2
_symmetry_space_group_name_H-M   'P 1'
_cell_length_a   6.64168859
_cell_length_b   6.64168698
_cell_length_c   5.78318579
_cell_angle_alpha   90.00000000
_cell_angle_beta   90.00000000
_cell_angle_gamma   143.24555000
_symmetry_Int_Tables_number   1
_chemical_formula_structural   KBa(FeN3)2
_chemical_formula_sum   'K1 Ba1 Fe2 N6'
_cell_volume   152.65325998
_cell_formula_units_Z   1
loop_
 _symmetry_equiv_pos_site_id
 _symmetry_equiv_pos_as_xyz
  1  'x, y, z'
loop_
 _atom_site_type_symbol
 _atom_site_label
 _atom_site_symmetry_multiplicity
 _atom_site_fract_x
 _atom_site_fract_y
 _atom_site_fract_z
 _atom_site_occupancy
  K  K0  1  0.12660794  0.87339106  0.24999900  1
  Ba  Ba0  1  0.87884661  0.12115239  0.75000000  1
  Fe  Fe0  1  0.41760875  0.58239025  0.24999900  1
  Fe  Fe1  1  0.58207443  0.41792457  0.75000000  1
  N  N0  1  0.49767550  0.50232450  0.99744073  1
  N  N1  1  0.68037283  0.02802734  0.24999900  1
  N  N2  1  0.97197166  0.31962617  0.24999900  1
  N  N3  1  0.49767550  0.50232450  0.50256027  1
  N  N4  1  0.02964481  0.68248202  0.75000000  1
  N  N5  1  0.31751698  0.97035419  0.75000000  1
loop_
_geom_bond_atom_site_label_1
_geom_bond_atom_site_label_2
_geom_bond_distance
_geom_bond_site_symmetry_2
K0 N2 2.920453 1_455
K0 N1 2.920454 1_565
K0 N4 3.012516 1_554
K0 N5 3.012516 1_554
K0 N4 3.012527 1_555
K0 N5 3.012528 1_555
K0 N0 3.026477 1_454
K0 N0 3.026479 1_564
K0 N3 3.026485 1_455
K0 N3 3.026487 1_565
Ba0 N3 2.945527 1_545
Ba0 N0 2.945530 1_545
Ba0 N3 2.945531 1_655
Ba0 N0 2.945534 1_655
Ba0 N4 2.986475 1_655
Ba0 N5 2.986476 1_545
Ba0 N2 3.029027 1_556
Ba0 N1 3.029027 1_556
Ba0 N2 3.029038 1_555
Ba0 N1 3.029038 1_555
Fe0 N0 1.775397 1_554
Fe0 N3 1.775411 1_555
Fe0 N1 1.878538 1_565
Fe0 N2 1.878539 1_455
Fe1 N3 1.783168 1_555
Fe1 N0 1.783173 1_555
Fe1 N5 1.885245 1_545
Fe1 N4 1.885246 1_655
N4 N5 1.205572 1_555
