# generated using pymatgen
data_RbYSiSe4
_symmetry_space_group_name_H-M   'P 1'
_cell_length_a   6.99802239
_cell_length_b   6.67820888
_cell_length_c   9.29284442
_cell_angle_alpha   71.94052526
_cell_angle_beta   90.00000000
_cell_angle_gamma   90.00000000
_symmetry_Int_Tables_number   1
_chemical_formula_structural   RbYSiSe4
_chemical_formula_sum   'Rb2 Y2 Si2 Se8'
_cell_volume   412.89876350
_cell_formula_units_Z   2
loop_
 _symmetry_equiv_pos_site_id
 _symmetry_equiv_pos_as_xyz
  1  'x, y, z'
loop_
 _atom_site_type_symbol
 _atom_site_label
 _atom_site_symmetry_multiplicity
 _atom_site_fract_x
 _atom_site_fract_y
 _atom_site_fract_z
 _atom_site_occupancy
  Rb  Rb0  1  0.98972477  0.74066476  0.06209099  1
  Rb  Rb1  1  0.48972477  0.25933524  0.93790901  1
  Y  Y0  1  0.50928920  0.23135950  0.45147513  1
  Y  Y1  1  0.00928920  0.76864050  0.54852487  1
  Si  Si0  1  0.47156620  0.78276083  0.33044126  1
  Si  Si1  1  0.97156620  0.21723917  0.66955874  1
  Se  Se0  1  0.47492821  0.58457430  0.17428612  1
  Se  Se1  1  0.23619488  0.02960366  0.28431555  1
  Se  Se2  1  0.73960698  0.98522457  0.30270234  1
  Se  Se3  1  0.91169174  0.42623687  0.43058610  1
  Se  Se4  1  0.41169174  0.57376313  0.56941390  1
  Se  Se5  1  0.23960698  0.01477543  0.69729766  1
  Se  Se6  1  0.73619488  0.97039634  0.71568445  1
  Se  Se7  1  0.97492821  0.41542570  0.82571388  1
loop_
_geom_bond_atom_site_label_1
_geom_bond_atom_site_label_2
_geom_bond_distance
_geom_bond_site_symmetry_2
Rb0 Se3 3.460567 1_555
Rb0 Se7 3.537174 1_554
Rb0 Se6 3.578007 1_554
Rb0 Se2 3.604825 1_555
Rb0 Se0 3.609569 1_655
Rb0 Se1 3.665177 1_665
Rb0 Se5 3.748766 1_664
Rb0 Se0 3.805027 1_555
Rb1 Se4 3.460567 1_555
Rb1 Se0 3.537174 1_556
Rb1 Se1 3.578007 1_556
Rb1 Se5 3.604825 1_555
Rb1 Se7 3.609569 1_555
Rb1 Se6 3.665177 1_545
Rb1 Se2 3.748766 1_546
Rb1 Se7 3.805027 1_455
Se0 Si0 2.246964 1_555
Se0 Y0 2.913738 1_555
Se1 Si0 2.275111 1_545
Se1 Y1 2.988970 1_545
Se1 Y0 3.029598 1_555
Se2 Si0 2.279687 1_555
Se2 Y0 2.935988 1_565
Se2 Y1 2.970453 1_655
Se3 Si1 2.265733 1_555
Se3 Y1 2.906926 1_655
Se3 Y0 3.082978 1_555
Se4 Si0 2.265733 1_555
Se4 Y0 2.906926 1_555
Se4 Y1 3.082978 1_555
Se5 Si1 2.279687 1_455
Se5 Y1 2.935988 1_545
Se5 Y0 2.970453 1_555
Se6 Si1 2.275111 1_565
Se6 Y0 2.988970 1_565
Se6 Y1 3.029598 1_655
Se7 Si1 2.246964 1_555
Se7 Y1 2.913738 1_655
