# generated using pymatgen
data_In12Tc2IrRh
_symmetry_space_group_name_H-M   'P 1'
_cell_length_a   7.06386392
_cell_length_b   7.06386456
_cell_length_c   7.33801018
_cell_angle_alpha   90.00000000
_cell_angle_beta   90.00000000
_cell_angle_gamma   90.41193548
_symmetry_Int_Tables_number   1
_chemical_formula_structural   In12Tc2IrRh
_chemical_formula_sum   'In12 Tc2 Ir1 Rh1'
_cell_volume   366.14387472
_cell_formula_units_Z   1
loop_
 _symmetry_equiv_pos_site_id
 _symmetry_equiv_pos_as_xyz
  1  'x, y, z'
loop_
 _atom_site_type_symbol
 _atom_site_label
 _atom_site_symmetry_multiplicity
 _atom_site_fract_x
 _atom_site_fract_y
 _atom_site_fract_z
 _atom_site_occupancy
  In  In0  1  0.99898223  0.49848906  0.50000000  1
  In  In1  1  0.50031432  0.00053695  0.00000000  1
  In  In2  1  0.50151094  0.00101777  0.50000000  1
  In  In3  1  0.99946305  0.49968568  0.00000000  1
  In  In4  1  0.34329434  0.65670566  0.23389327  1
  In  In5  1  0.65671181  0.34328819  0.23400238  1
  In  In6  1  0.15440414  0.15399604  0.73880103  1
  In  In7  1  0.84600396  0.84559586  0.73880103  1
  In  In8  1  0.65671181  0.34328819  0.76599762  1
  In  In9  1  0.34329434  0.65670566  0.76610673  1
  In  In10  1  0.84600396  0.84559586  0.26119897  1
  In  In11  1  0.15440414  0.15399604  0.26119897  1
  Tc  Tc0  1  0.34194895  0.34267751  0.00000000  1
  Tc  Tc1  1  0.65732249  0.65805105  0.00000000  1
  Ir  Ir0  1  0.15477927  0.84522073  0.50000000  1
  Rh  Rh0  1  0.84485226  0.15514774  0.50000000  1
loop_
_geom_bond_atom_site_label_1
_geom_bond_atom_site_label_2
_geom_bond_distance
_geom_bond_site_symmetry_2
In0 Rh0 2.651335 1_555
In0 Ir0 2.677930 1_655
In1 Tc1 2.668621 1_545
In1 Tc0 2.670466 1_555
In2 Rh0 2.651334 1_555
In2 Ir0 2.677930 1_545
In3 Tc0 2.668621 1_655
In3 Tc1 2.670466 1_555
In4 Ir0 2.717548 1_555
In4 Tc1 2.804666 1_555
In4 Tc0 2.804667 1_555
In5 Rh0 2.714362 1_555
In5 Tc0 2.809279 1_555
In5 Tc1 2.809279 1_555
In6 Tc0 2.679507 1_556
In6 Ir0 2.797880 1_545
In6 Rh0 2.802200 1_455
In7 Tc1 2.679507 1_556
In7 Ir0 2.797880 1_655
In7 Rh0 2.802200 1_565
In8 Rh0 2.714362 1_555
In8 Tc0 2.809279 1_556
In8 Tc1 2.809279 1_556
In9 Ir0 2.717548 1_555
In9 Tc1 2.804666 1_556
In9 Tc0 2.804667 1_556
In10 Tc1 2.679507 1_555
In10 Ir0 2.797880 1_655
In10 Rh0 2.802200 1_565
In11 Tc0 2.679507 1_555
In11 Ir0 2.797880 1_545
In11 Rh0 2.802200 1_455
