# generated using pymatgen
data_LiCa2AlGe2
_symmetry_space_group_name_H-M   'P 1'
_cell_length_a   4.33772559
_cell_length_b   7.11648369
_cell_length_c   16.45010863
_cell_angle_alpha   90.00000000
_cell_angle_beta   90.00000000
_cell_angle_gamma   90.00000000
_symmetry_Int_Tables_number   1
_chemical_formula_structural   LiCa2AlGe2
_chemical_formula_sum   'Li4 Ca8 Al4 Ge8'
_cell_volume   507.80421654
_cell_formula_units_Z   4
loop_
 _symmetry_equiv_pos_site_id
 _symmetry_equiv_pos_as_xyz
  1  'x, y, z'
loop_
 _atom_site_type_symbol
 _atom_site_label
 _atom_site_symmetry_multiplicity
 _atom_site_fract_x
 _atom_site_fract_y
 _atom_site_fract_z
 _atom_site_occupancy
  Li  Li0  1  0.25000000  0.98381698  0.06753066  1
  Li  Li1  1  0.75000000  0.51618302  0.56753066  1
  Li  Li2  1  0.75000000  0.01618302  0.93246934  1
  Li  Li3  1  0.25000000  0.48381698  0.43246934  1
  Ca  Ca0  1  0.25000000  0.34323783  0.93864642  1
  Ca  Ca1  1  0.25000000  0.84323783  0.56135358  1
  Ca  Ca2  1  0.75000000  0.15676217  0.43864642  1
  Ca  Ca3  1  0.75000000  0.49557724  0.27731846  1
  Ca  Ca4  1  0.75000000  0.99557724  0.22268154  1
  Ca  Ca5  1  0.75000000  0.65676217  0.06135358  1
  Ca  Ca6  1  0.25000000  0.50442276  0.72268154  1
  Ca  Ca7  1  0.25000000  0.00442276  0.77731846  1
  Al  Al0  1  0.75000000  0.16592508  0.65632999  1
  Al  Al1  1  0.25000000  0.83407492  0.34367001  1
  Al  Al2  1  0.75000000  0.66592508  0.84367001  1
  Al  Al3  1  0.25000000  0.33407492  0.15632999  1
  Ge  Ge0  1  0.75000000  0.23302541  0.07185687  1
  Ge  Ge1  1  0.75000000  0.79433551  0.68883848  1
  Ge  Ge2  1  0.25000000  0.20566449  0.31116152  1
  Ge  Ge3  1  0.25000000  0.70566449  0.18883848  1
  Ge  Ge4  1  0.25000000  0.26697459  0.57185687  1
  Ge  Ge5  1  0.75000000  0.29433551  0.81116152  1
  Ge  Ge6  1  0.25000000  0.76697459  0.92814313  1
  Ge  Ge7  1  0.75000000  0.73302541  0.42814313  1
loop_
_geom_bond_atom_site_label_1
_geom_bond_atom_site_label_2
_geom_bond_distance
_geom_bond_site_symmetry_2
Ca0 Ge6 3.020462 1_555
Ca0 Ge5 3.036952 1_555
Ca0 Ge5 3.036952 1_455
Ca0 Ge0 3.181359 1_556
Ca0 Ge0 3.181359 1_456
Ca1 Ge4 3.020462 1_565
Ca1 Ge1 3.036952 1_455
Ca1 Ge1 3.036952 1_555
Ca1 Ge7 3.181359 1_555
Ca1 Ge7 3.181359 1_455
Ca2 Ge7 3.020462 1_545
Ca2 Ge2 3.036952 1_555
Ca2 Ge2 3.036952 1_655
Ca2 Ge4 3.181359 1_555
Ca2 Ge4 3.181359 1_655
Ca3 Ge7 3.001863 1_555
Ca3 Ge3 3.009607 1_555
Ca3 Ge3 3.009607 1_655
Ca3 Ge2 3.044755 1_555
Ca3 Ge2 3.044755 1_655
Ca4 Ge0 3.001863 1_565
Ca4 Ge2 3.009607 1_565
Ca4 Ge2 3.009607 1_665
Ca4 Ge3 3.044755 1_555
Ca4 Ge3 3.044755 1_655
Ca5 Ge0 3.020462 1_555
Ca5 Ge3 3.036952 1_555
Ca5 Ge3 3.036952 1_655
Ca5 Ge6 3.181359 1_554
Ca5 Ge6 3.181359 1_654
Ca6 Ge4 3.001863 1_555
Ca6 Ge5 3.009607 1_455
Ca6 Ge5 3.009607 1_555
Ca6 Ge1 3.044755 1_455
Ca6 Ge1 3.044755 1_555
Ca7 Ge6 3.001863 1_545
Ca7 Ge1 3.009607 1_445
Ca7 Ge1 3.009607 1_545
Ca7 Ge5 3.044755 1_455
Ca7 Ge5 3.044755 1_555
Al0 Ge4 2.674334 1_655
Al0 Ge4 2.674334 1_555
Al0 Ge1 2.697941 1_545
Al0 Ge5 2.705970 1_555
Al0 Li1 2.889099 1_555
Al0 Ca7 3.160081 1_655
Al0 Ca7 3.160081 1_555
Al1 Ge7 2.674334 1_555
Al1 Ge7 2.674334 1_455
Al1 Ge2 2.697941 1_565
Al1 Ge3 2.705970 1_555
Al1 Li3 2.889099 1_555
Al1 Ca4 3.160081 1_555
Al1 Ca4 3.160081 1_455
Al2 Ge6 2.674334 1_555
Al2 Ge6 2.674334 1_655
Al2 Ge5 2.697941 1_555
Al2 Ge1 2.705970 1_555
Al2 Li2 2.889099 1_565
Al2 Ca6 3.160081 1_655
Al2 Ca6 3.160081 1_555
Al3 Ge0 2.674334 1_455
Al3 Ge0 2.674334 1_555
Al3 Ge3 2.697941 1_555
Al3 Ge2 2.705970 1_555
Al3 Li0 2.889099 1_545
Al3 Ca3 3.160081 1_455
Al3 Ca3 3.160081 1_555
Ge0 Li2 2.763856 1_554
Ge0 Li0 2.802550 1_645
Ge0 Li0 2.802550 1_545
Ge1 Li1 2.810768 1_555
Ge2 Li3 2.810768 1_555
Ge3 Li0 2.810768 1_555
Ge4 Li3 2.763856 1_555
Ge4 Li1 2.802550 1_455
Ge4 Li1 2.802550 1_555
Ge5 Li2 2.810768 1_555
Ge6 Li0 2.763856 1_556
Ge6 Li2 2.802550 1_465
Ge6 Li2 2.802550 1_565
Ge7 Li1 2.763856 1_555
Ge7 Li3 2.802550 1_555
Ge7 Li3 2.802550 1_655
