# generated using pymatgen
data_Lu7MnI12
_symmetry_space_group_name_H-M   'P 1'
_cell_length_a   9.54472051
_cell_length_b   9.54472124
_cell_length_c   9.54472021
_cell_angle_alpha   107.17239188
_cell_angle_beta   107.17239119
_cell_angle_gamma   107.17239018
_symmetry_Int_Tables_number   1
_chemical_formula_structural   Lu7MnI12
_chemical_formula_sum   'Lu7 Mn1 I12'
_cell_volume   720.72882236
_cell_formula_units_Z   1
loop_
 _symmetry_equiv_pos_site_id
 _symmetry_equiv_pos_as_xyz
  1  'x, y, z'
loop_
 _atom_site_type_symbol
 _atom_site_label
 _atom_site_symmetry_multiplicity
 _atom_site_fract_x
 _atom_site_fract_y
 _atom_site_fract_z
 _atom_site_occupancy
  Lu  Lu0  1  0.90914306  0.71456246  0.97833774  1
  Lu  Lu1  1  0.97833774  0.90914306  0.71456246  1
  Lu  Lu2  1  0.71456246  0.97833774  0.90914306  1
  Lu  Lu3  1  0.09085694  0.28543754  0.02166226  1
  Lu  Lu4  1  0.02166226  0.09085694  0.28543754  1
  Lu  Lu5  1  0.28543754  0.02166226  0.09085694  1
  Lu  Lu6  1  0.50000000  0.50000000  0.50000000  1
  Mn  Mn0  1  0.00000000  0.00000000  0.00000000  1
  I  I0  1  0.77582138  0.31975841  0.92681398  1
  I  I1  1  0.92681398  0.77582138  0.31975841  1
  I  I2  1  0.31975841  0.92681398  0.77582138  1
  I  I3  1  0.22417862  0.68024159  0.07318602  1
  I  I4  1  0.07318602  0.22417862  0.68024159  1
  I  I5  1  0.68024159  0.07318602  0.22417862  1
  I  I6  1  0.53704506  0.61315006  0.83982071  1
  I  I7  1  0.83982071  0.53704506  0.61315006  1
  I  I8  1  0.61315006  0.83982071  0.53704506  1
  I  I9  1  0.46295494  0.38684994  0.16017929  1
  I  I10  1  0.16017929  0.46295494  0.38684994  1
  I  I11  1  0.38684994  0.16017929  0.46295494  1
loop_
_geom_bond_atom_site_label_1
_geom_bond_atom_site_label_2
_geom_bond_distance
_geom_bond_site_symmetry_2
Lu0 Mn0 2.526587 1_666
Lu1 Mn0 2.526586 1_666
Lu2 Mn0 2.526586 1_666
Lu3 Mn0 2.526587 1_555
Lu4 Mn0 2.526586 1_555
Lu5 Mn0 2.526586 1_555
I0 Lu3 3.019573 1_656
I0 Lu2 3.079278 1_545
I0 Lu0 3.430134 1_555
I1 Lu4 3.019573 1_665
I1 Lu0 3.079277 1_554
I1 Lu1 3.430133 1_555
I2 Lu5 3.019573 1_566
I2 Lu1 3.079277 1_455
I2 Lu2 3.430133 1_555
I3 Lu0 3.019573 1_454
I3 Lu5 3.079278 1_565
I3 Lu3 3.430134 1_555
I4 Lu1 3.019573 1_445
I4 Lu3 3.079277 1_556
I4 Lu4 3.430133 1_555
I5 Lu2 3.019573 1_544
I5 Lu4 3.079277 1_655
I5 Lu5 3.430133 1_555
I6 Lu6 2.973294 1_555
I6 Lu0 3.120929 1_555
I6 Lu2 3.153870 1_555
I7 Lu6 2.973295 1_555
I7 Lu1 3.120929 1_555
I7 Lu0 3.153870 1_555
I8 Lu6 2.973295 1_555
I8 Lu2 3.120929 1_555
I8 Lu1 3.153870 1_555
I9 Lu6 2.973294 1_555
I9 Lu3 3.120929 1_555
I9 Lu5 3.153870 1_555
I10 Lu6 2.973295 1_555
I10 Lu4 3.120929 1_555
I10 Lu3 3.153870 1_555
I11 Lu6 2.973295 1_555
I11 Lu5 3.120929 1_555
I11 Lu4 3.153870 1_555
