# generated using pymatgen
data_Y6PdI10
_symmetry_space_group_name_H-M   'P 1'
_cell_length_a   7.69449659
_cell_length_b   9.67696380
_cell_length_c   9.69257921
_cell_angle_alpha   107.14584824
_cell_angle_beta   96.83204362
_cell_angle_gamma   104.60692249
_symmetry_Int_Tables_number   1
_chemical_formula_structural   Y6PdI10
_chemical_formula_sum   'Y6 Pd1 I10'
_cell_volume   652.59399450
_cell_formula_units_Z   1
loop_
 _symmetry_equiv_pos_site_id
 _symmetry_equiv_pos_as_xyz
  1  'x, y, z'
loop_
 _atom_site_type_symbol
 _atom_site_label
 _atom_site_symmetry_multiplicity
 _atom_site_fract_x
 _atom_site_fract_y
 _atom_site_fract_z
 _atom_site_occupancy
  Y  Y0  1  0.11714487  0.04219104  0.75677662  1
  Y  Y1  1  0.88285513  0.95780896  0.24322338  1
  Y  Y2  1  0.96849756  0.28858065  0.08704855  1
  Y  Y3  1  0.03150244  0.71141935  0.91295145  1
  Y  Y4  1  0.34992585  0.12534426  0.16703235  1
  Y  Y5  1  0.65007415  0.87465574  0.83296765  1
  Pd  Pd0  1  0.00000000  0.00000000  0.00000000  1
  I  I0  1  0.35290892  0.45372908  0.27540417  1
  I  I1  1  0.64709108  0.54627092  0.72459583  1
  I  I2  1  0.26019670  0.08561038  0.46396393  1
  I  I3  1  0.73980330  0.91438962  0.53603607  1
  I  I4  1  0.08822349  0.37479853  0.81816413  1
  I  I5  1  0.91177651  0.62520147  0.18183587  1
  I  I6  1  0.45287822  0.81362448  0.09253194  1
  I  I7  1  0.54712178  0.18637552  0.90746806  1
  I  I8  1  0.77662012  0.25876516  0.35035836  1
  I  I9  1  0.22337988  0.74123484  0.64964164  1
loop_
_geom_bond_atom_site_label_1
_geom_bond_atom_site_label_2
_geom_bond_distance
_geom_bond_site_symmetry_2
Pd0 Y1 2.724746 1_445
Pd0 Y0 2.724746 1_554
Pd0 Y4 2.738565 1_555
Pd0 Y5 2.738565 1_444
Pd0 Y2 2.751364 1_455
Pd0 Y3 2.751364 1_544
I0 Y4 3.031745 1_555
I0 Y2 3.040839 1_455
I1 Y5 3.031745 1_555
I1 Y3 3.040839 1_655
I2 Y1 3.112556 1_445
I2 Y4 3.146256 1_555
I2 Y0 3.264361 1_555
I3 Y0 3.112556 1_665
I3 Y5 3.146256 1_555
I3 Y1 3.264361 1_555
I4 Y2 3.130905 1_456
I4 Y0 3.166503 1_555
I4 Y3 3.270100 1_555
I5 Y3 3.130905 1_654
I5 Y1 3.166503 1_555
I5 Y2 3.270100 1_555
I6 Y4 3.210182 1_565
I6 Y5 3.211367 1_554
I6 Y1 3.216587 1_555
I6 Y3 3.247325 1_554
I7 Y5 3.210182 1_545
I7 Y4 3.211367 1_556
I7 Y0 3.216587 1_555
I7 Y2 3.247325 1_556
I8 Y1 3.138118 1_545
I8 Y2 3.145198 1_555
I8 Y4 3.274912 1_555
I9 Y0 3.138118 1_565
I9 Y3 3.145198 1_555
I9 Y5 3.274912 1_555
