# generated using pymatgen
data_LiAs(PS3)2
_symmetry_space_group_name_H-M   'P 1'
_cell_length_a   6.37820222
_cell_length_b   6.37820310
_cell_length_c   12.07344235
_cell_angle_alpha   87.76132430
_cell_angle_beta   87.76132062
_cell_angle_gamma   113.83818128
_symmetry_Int_Tables_number   1
_chemical_formula_structural   LiAs(PS3)2
_chemical_formula_sum   'Li2 As2 P4 S12'
_cell_volume   448.11235011
_cell_formula_units_Z   2
loop_
 _symmetry_equiv_pos_site_id
 _symmetry_equiv_pos_as_xyz
  1  'x, y, z'
loop_
 _atom_site_type_symbol
 _atom_site_label
 _atom_site_symmetry_multiplicity
 _atom_site_fract_x
 _atom_site_fract_y
 _atom_site_fract_z
 _atom_site_occupancy
  Li  Li0  1  0.84499871  0.15500129  0.25000000  1
  Li  Li1  1  0.15500129  0.84499871  0.75000000  1
  As  As0  1  0.48056840  0.51943160  0.25000000  1
  As  As1  1  0.51943160  0.48056840  0.75000000  1
  P  P0  1  0.01569658  0.68932774  0.22143091  1
  P  P1  1  0.31067226  0.98430342  0.27856909  1
  P  P2  1  0.98430342  0.31067226  0.77856909  1
  P  P3  1  0.68932774  0.01569658  0.72143091  1
  S  S0  1  0.82821574  0.81122527  0.12774237  1
  S  S1  1  0.18877473  0.17178426  0.37225763  1
  S  S2  1  0.17178426  0.18877473  0.87225763  1
  S  S3  1  0.81122527  0.82821574  0.62774237  1
  S  S4  1  0.83056289  0.50630972  0.35822821  1
  S  S5  1  0.49369028  0.16943711  0.14177179  1
  S  S6  1  0.16943711  0.49369028  0.64177179  1
  S  S7  1  0.50630972  0.83056289  0.85822821  1
  S  S8  1  0.16812085  0.52421422  0.12845510  1
  S  S9  1  0.47578578  0.83187915  0.37154490  1
  S  S10  1  0.83187915  0.47578578  0.87154490  1
  S  S11  1  0.52421422  0.16812085  0.62845510  1
loop_
_geom_bond_atom_site_label_1
_geom_bond_atom_site_label_2
_geom_bond_distance
_geom_bond_site_symmetry_2
Li0 S1 2.659611 1_655
Li0 S0 2.659612 1_545
Li0 S5 2.668862 1_555
Li0 S4 2.668863 1_555
Li0 S9 2.741768 1_545
Li0 S8 2.741768 1_655
Li1 S3 2.659611 1_455
Li1 S2 2.659612 1_565
Li1 S7 2.668862 1_555
Li1 S6 2.668863 1_555
Li1 S11 2.741768 1_565
Li1 S10 2.741768 1_455
As0 S8 2.529815 1_555
As0 S9 2.529815 1_555
As0 S0 2.598695 1_555
As0 S1 2.598696 1_555
As0 S4 2.658594 1_555
As0 S5 2.658594 1_555
As1 S10 2.529815 1_555
As1 S11 2.529815 1_555
As1 S2 2.598695 1_555
As1 S3 2.598696 1_555
As1 S6 2.658594 1_555
As1 S7 2.658594 1_555
P0 S4 2.016843 1_455
P0 S0 2.025425 1_455
P0 S8 2.036911 1_555
P1 S5 2.016843 1_565
P1 S1 2.025425 1_565
P1 S9 2.036911 1_555
P2 S6 2.016843 1_655
P2 S2 2.025425 1_655
P2 S10 2.036911 1_555
P3 S7 2.016843 1_545
P3 S3 2.025425 1_545
P3 S11 2.036911 1_555
