# generated using pymatgen
data_HfH3NF4
_symmetry_space_group_name_H-M   'P 1'
_cell_length_a   5.80038012
_cell_length_b   7.61933663
_cell_length_c   5.98255585
_cell_angle_alpha   123.29342279
_cell_angle_beta   90.18273059
_cell_angle_gamma   100.18856308
_symmetry_Int_Tables_number   1
_chemical_formula_structural   HfH3NF4
_chemical_formula_sum   'Hf2 H6 N2 F8'
_cell_volume   215.89632521
_cell_formula_units_Z   2
loop_
 _symmetry_equiv_pos_site_id
 _symmetry_equiv_pos_as_xyz
  1  'x, y, z'
loop_
 _atom_site_type_symbol
 _atom_site_label
 _atom_site_symmetry_multiplicity
 _atom_site_fract_x
 _atom_site_fract_y
 _atom_site_fract_z
 _atom_site_occupancy
  Hf  Hf0  1  0.42514811  0.75047809  0.19710121  1
  Hf  Hf1  1  0.57484998  0.24951924  0.80289739  1
  H  H0  1  0.79036593  0.13708844  0.10461991  1
  H  H1  1  0.93777194  0.38207388  0.21123233  1
  H  H2  1  0.00588405  0.82776530  0.06172024  1
  H  H3  1  0.99410999  0.17222361  0.93827053  1
  H  H4  1  0.06224406  0.61793093  0.78875263  1
  H  H5  1  0.20963946  0.86292861  0.89539669  1
  N  N0  1  0.86008367  0.23571544  0.04463270  1
  N  N1  1  0.13992120  0.76428568  0.95536421  1
  F  F0  1  0.66769647  0.86468007  0.05473863  1
  F  F1  1  0.64604539  0.55091499  0.17227305  1
  F  F2  1  0.19366398  0.64913078  0.35736642  1
  F  F3  1  0.35631994  0.06060366  0.43471198  1
  F  F4  1  0.64367417  0.93939269  0.56529030  1
  F  F5  1  0.80632776  0.35086180  0.64262495  1
  F  F6  1  0.35394994  0.44908243  0.82772629  1
  F  F7  1  0.33230794  0.13532437  0.94527156  1
loop_
_geom_bond_atom_site_label_1
_geom_bond_atom_site_label_2
_geom_bond_distance
_geom_bond_site_symmetry_2
Hf0 N1 2.247899 1_554
Hf1 N0 2.247906 1_556
H0 N0 1.022999 1_555
H1 N0 1.019390 1_555
H2 N1 1.020573 1_554
H3 N0 1.020558 1_556
H4 N1 1.019387 1_555
H5 N1 1.023015 1_555
F0 Hf0 1.962139 1_555
F1 Hf1 2.101150 1_554
F1 Hf0 2.101976 1_555
F2 Hf0 1.942331 1_555
F3 Hf1 2.094357 1_555
F3 Hf0 2.100792 1_545
F4 Hf0 2.094361 1_555
F4 Hf1 2.100788 1_565
F5 Hf1 1.942319 1_555
F6 Hf0 2.101148 1_556
F6 Hf1 2.101987 1_555
F7 Hf1 1.962132 1_555
