# generated using pymatgen
data_Ca10TiMoN10
_symmetry_space_group_name_H-M   'P 1'
_cell_length_a   6.88497205
_cell_length_b   6.88497076
_cell_length_c   8.74252256
_cell_angle_alpha   81.79829666
_cell_angle_beta   81.79830082
_cell_angle_gamma   60.24407819
_symmetry_Int_Tables_number   1
_chemical_formula_structural   Ca10TiMoN10
_chemical_formula_sum   'Ca10 Ti1 Mo1 N10'
_cell_volume   354.85086454
_cell_formula_units_Z   1
loop_
 _symmetry_equiv_pos_site_id
 _symmetry_equiv_pos_as_xyz
  1  'x, y, z'
loop_
 _atom_site_type_symbol
 _atom_site_label
 _atom_site_symmetry_multiplicity
 _atom_site_fract_x
 _atom_site_fract_y
 _atom_site_fract_z
 _atom_site_occupancy
  Ca  Ca0  1  0.88741206  0.36065581  0.83940967  1
  Ca  Ca1  1  0.87954622  0.87954622  0.81720970  1
  Ca  Ca2  1  0.73491137  0.73491137  0.54023309  1
  Ca  Ca3  1  0.74123862  0.26059123  0.51415002  1
  Ca  Ca4  1  0.61516968  0.13399538  0.13690417  1
  Ca  Ca5  1  0.36065581  0.88741206  0.83940967  1
  Ca  Ca6  1  0.26059123  0.74123862  0.51415002  1
  Ca  Ca7  1  0.24120669  0.24120669  0.49682197  1
  Ca  Ca8  1  0.13903912  0.13903912  0.16839793  1
  Ca  Ca9  1  0.13399538  0.61516968  0.13690417  1
  Ti  Ti0  1  0.36954958  0.36954958  0.77126473  1
  Mo  Mo0  1  0.63358549  0.63358549  0.22522313  1
  N  N0  1  0.90703485  0.47305258  0.32215615  1
  N  N1  1  0.99195012  0.99195012  0.03044252  1
  N  N2  1  0.68949381  0.68949381  0.01721603  1
  N  N3  1  0.53789017  0.53789017  0.69990695  1
  N  N4  1  0.47305258  0.90703485  0.32215615  1
  N  N5  1  0.54109658  0.08801950  0.66957531  1
  N  N6  1  0.47291335  0.47291335  0.28580413  1
  N  N7  1  0.30367542  0.30367542  0.98484468  1
  N  N8  1  0.06025635  0.06025635  0.64404654  1
  N  N9  1  0.08801950  0.54109658  0.66957531  1
loop_
_geom_bond_atom_site_label_1
_geom_bond_atom_site_label_2
_geom_bond_distance
_geom_bond_site_symmetry_2
Ca0 N9 2.499480 1_655
Ca0 N3 2.503084 1_555
Ca0 N8 2.568233 1_655
Ca0 N2 2.595490 1_556
Ca0 N1 2.659165 1_546
Ca1 N8 2.418589 1_665
Ca1 N1 2.467953 1_556
Ca1 N9 2.483064 1_655
Ca1 N5 2.483064 1_565
Ca1 N2 2.622168 1_556
Ca2 N5 2.470508 1_565
Ca2 N9 2.470509 1_655
Ca2 N3 2.524817 1_555
Ca2 N0 2.550493 1_555
Ca2 N4 2.550493 1_555
Ca3 N8 2.296522 1_655
Ca3 N5 2.405651 1_555
Ca3 N3 2.413541 1_555
Ca3 N0 2.582714 1_555
Ca3 N6 2.659725 1_555
Ca4 N1 2.367439 1_545
Ca4 N7 2.369575 1_554
Ca4 N6 2.516575 1_555
Ca4 N4 2.523025 1_545
Ca5 N5 2.499480 1_565
Ca5 N3 2.503084 1_555
Ca5 N8 2.568233 1_565
Ca5 N2 2.595490 1_556
Ca5 N1 2.659166 1_456
Ca6 N8 2.296522 1_565
Ca6 N9 2.405651 1_555
Ca6 N3 2.413541 1_555
Ca6 N4 2.582714 1_555
Ca6 N6 2.659725 1_555
Ca7 N8 2.320884 1_555
Ca7 N9 2.435195 1_555
Ca7 N5 2.435195 1_555
Ca7 N4 2.614345 1_545
Ca7 N0 2.614345 1_455
Ca7 N6 3.056154 1_555
Ca8 N1 2.284891 1_445
Ca8 N7 2.319965 1_554
Ca8 N0 2.504018 1_455
Ca8 N4 2.504018 1_545
Ca9 N1 2.367438 1_455
Ca9 N7 2.369575 1_554
Ca9 N6 2.516575 1_555
Ca9 N0 2.523025 1_455
Mo0 N2 1.830557 1_555
Mo0 N4 1.899148 1_555
Mo0 N0 1.899148 1_555
Mo0 N6 1.899560 1_555
N3 Ti0 1.999162 1_555
N5 Ti0 1.965221 1_555
N7 Ti0 1.902333 1_555
N9 Ti0 1.965221 1_555
