# generated using pymatgen
data_Rb2BeS2
_symmetry_space_group_name_H-M   'P 1'
_cell_length_a   7.92112053
_cell_length_b   7.92112042
_cell_length_c   7.92112020
_cell_angle_alpha   136.46490734
_cell_angle_beta   128.70710729
_cell_angle_gamma   69.49481860
_symmetry_Int_Tables_number   1
_chemical_formula_structural   Rb2BeS2
_chemical_formula_sum   'Rb4 Be2 S4'
_cell_volume   262.18716399
_cell_formula_units_Z   2
loop_
 _symmetry_equiv_pos_site_id
 _symmetry_equiv_pos_as_xyz
  1  'x, y, z'
loop_
 _atom_site_type_symbol
 _atom_site_label
 _atom_site_symmetry_multiplicity
 _atom_site_fract_x
 _atom_site_fract_y
 _atom_site_fract_z
 _atom_site_occupancy
  Rb  Rb0  1  0.68442317  0.35270070  0.33172146  1
  Rb  Rb1  1  0.02097824  0.85270070  0.16827854  1
  Rb  Rb2  1  0.31557683  0.64729930  0.66827854  1
  Rb  Rb3  1  0.97902176  0.14729930  0.83172146  1
  Be  Be0  1  0.50000000  0.25000000  0.75000000  1
  Be  Be1  1  0.50000000  0.75000000  0.25000000  1
  S  S0  1  0.24886722  0.40995569  0.83891252  1
  S  S1  1  0.57104317  0.90995569  0.66108748  1
  S  S2  1  0.75113278  0.59004431  0.16108748  1
  S  S3  1  0.42895683  0.09004431  0.33891252  1
loop_
_geom_bond_atom_site_label_1
_geom_bond_atom_site_label_2
_geom_bond_distance
_geom_bond_site_symmetry_2
Rb0 S1 3.248562 1_544
Rb0 S1 3.248567 1_555
Rb0 S2 3.303653 1_555
Rb0 S3 3.419396 1_555
Rb0 S0 3.460305 1_554
Rb0 S0 3.556656 1_655
Rb1 S0 3.248565 1_565
Rb1 S0 3.248565 1_554
Rb1 S3 3.303660 1_565
Rb1 S2 3.419377 1_455
Rb1 S1 3.460306 1_555
Rb1 S1 3.556663 1_454
Rb2 S3 3.248562 1_566
Rb2 S3 3.248567 1_555
Rb2 S0 3.303653 1_555
Rb2 S1 3.419396 1_555
Rb2 S2 3.460305 1_556
Rb2 S2 3.556656 1_455
Rb3 S2 3.248565 1_545
Rb3 S2 3.248565 1_556
Rb3 S1 3.303660 1_545
Rb3 S0 3.419377 1_655
Rb3 S3 3.460306 1_555
Rb3 S3 3.556663 1_656
Be0 S3 2.179697 1_555
Be0 S1 2.179697 1_545
Be0 S2 2.179700 1_556
Be0 S0 2.179704 1_555
Be0 Rb0 3.317712 1_556
Be0 Rb2 3.317714 1_555
Be0 Rb1 3.317719 1_545
Be0 Rb3 3.317722 1_555
Be1 S1 2.179697 1_555
Be1 S3 2.179697 1_565
Be1 S0 2.179700 1_554
Be1 S2 2.179704 1_555
Be1 Rb2 3.317712 1_554
Be1 Rb0 3.317714 1_555
Be1 Rb3 3.317719 1_565
Be1 Rb1 3.317722 1_555
