# generated using pymatgen
data_KP2OsRu
_symmetry_space_group_name_H-M   'P 1'
_cell_length_a   6.88215468
_cell_length_b   6.88215438
_cell_length_c   6.88215459
_cell_angle_alpha   146.03160678
_cell_angle_beta   146.03160180
_cell_angle_gamma   48.79982065
_symmetry_Int_Tables_number   1
_chemical_formula_structural   KP2OsRu
_chemical_formula_sum   'K1 P2 Os1 Ru1'
_cell_volume   101.31828915
_cell_formula_units_Z   1
loop_
 _symmetry_equiv_pos_site_id
 _symmetry_equiv_pos_as_xyz
  1  'x, y, z'
loop_
 _atom_site_type_symbol
 _atom_site_label
 _atom_site_symmetry_multiplicity
 _atom_site_fract_x
 _atom_site_fract_y
 _atom_site_fract_z
 _atom_site_occupancy
  K  K0  1  0.00000000  0.00000000  0.00000000  1
  P  P0  1  0.34065567  0.34065567  0.00000000  1
  P  P1  1  0.65934433  0.65934433  1.00000000  1
  Os  Os0  1  0.75000000  0.25000000  0.50000000  1
  Ru  Ru0  1  0.25000000  0.75000000  0.50000000  1
loop_
_geom_bond_atom_site_label_1
_geom_bond_atom_site_label_2
_geom_bond_distance
_geom_bond_site_symmetry_2
K0 P1 3.474530 1_454
K0 P0 3.474530 1_545
K0 P1 3.474531 1_544
K0 P0 3.474531 1_455
K0 P1 3.474531 1_443
K0 P0 3.474531 1_556
K0 P1 3.474531 1_555
K0 P0 3.474531 1_444
P0 Ru0 2.309276 1_544
P0 Ru0 2.309276 1_555
P1 Ru0 2.309276 1_555
P1 Ru0 2.309276 1_656
Os0 P1 2.309276 1_544
Os0 P1 2.309276 1_555
Os0 P0 2.309276 1_555
Os0 P0 2.309276 1_656
