# generated using pymatgen
data_Ba2Na2SrP4
_symmetry_space_group_name_H-M   'P 1'
_cell_length_a   7.53401120
_cell_length_b   8.20919777
_cell_length_c   17.82390799
_cell_angle_alpha   62.36432239
_cell_angle_beta   90.00000000
_cell_angle_gamma   90.00000000
_symmetry_Int_Tables_number   1
_chemical_formula_structural   Ba2Na2SrP4
_chemical_formula_sum   'Ba8 Na8 Sr4 P16'
_cell_volume   976.61170689
_cell_formula_units_Z   4
loop_
 _symmetry_equiv_pos_site_id
 _symmetry_equiv_pos_as_xyz
  1  'x, y, z'
loop_
 _atom_site_type_symbol
 _atom_site_label
 _atom_site_symmetry_multiplicity
 _atom_site_fract_x
 _atom_site_fract_y
 _atom_site_fract_z
 _atom_site_occupancy
  Ba  Ba0  1  0.53344154  0.58381438  0.10279663  1
  Ba  Ba1  1  0.03344154  0.41618562  0.39720337  1
  Ba  Ba2  1  0.46702420  0.71262017  0.60250845  1
  Ba  Ba3  1  0.96702420  0.28737983  0.89749155  1
  Ba  Ba4  1  0.46655846  0.41618562  0.89720337  1
  Ba  Ba5  1  0.96655846  0.58381438  0.60279663  1
  Ba  Ba6  1  0.53297580  0.28737983  0.39749155  1
  Ba  Ba7  1  0.03297580  0.71262017  0.10250845  1
  Na  Na0  1  0.86325325  0.24420558  0.25092670  1
  Na  Na1  1  0.36325325  0.75579442  0.24907330  1
  Na  Na2  1  0.13674675  0.75579442  0.74907330  1
  Na  Na3  1  0.63674675  0.24420558  0.75092670  1
  Na  Na4  1  0.68265774  0.05427327  0.12148515  1
  Na  Na5  1  0.18265774  0.94572673  0.37851485  1
  Na  Na6  1  0.31734226  0.94572673  0.87851485  1
  Na  Na7  1  0.81734226  0.05427327  0.62148515  1
  Sr  Sr0  1  0.31946022  0.18507203  0.62637678  1
  Sr  Sr1  1  0.81946022  0.81492797  0.87362322  1
  Sr  Sr2  1  0.68053978  0.81492797  0.37362322  1
  Sr  Sr3  1  0.18053978  0.18507203  0.12637678  1
  P  P0  1  0.86911621  0.43918280  0.03297687  1
  P  P1  1  0.36911621  0.56081720  0.46702313  1
  P  P2  1  0.12828751  0.99752297  0.53415074  1
  P  P3  1  0.62828751  0.00247703  0.96584926  1
  P  P4  1  0.13088379  0.56081720  0.96702313  1
  P  P5  1  0.63088379  0.43918280  0.53297687  1
  P  P6  1  0.87171249  0.00247703  0.46584926  1
  P  P7  1  0.37171249  0.99752297  0.03415074  1
  P  P8  1  0.96825303  0.84458524  0.24767801  1
  P  P9  1  0.46825303  0.15541476  0.25232199  1
  P  P10  1  0.03174697  0.15541476  0.75232199  1
  P  P11  1  0.53174697  0.84458524  0.74767801  1
  P  P12  1  0.74954450  0.65015678  0.25095028  1
  P  P13  1  0.24954450  0.34984322  0.24904972  1
  P  P14  1  0.25045550  0.34984322  0.74904972  1
  P  P15  1  0.75045550  0.65015678  0.75095028  1
loop_
_geom_bond_atom_site_label_1
_geom_bond_atom_site_label_2
_geom_bond_distance
_geom_bond_site_symmetry_2
Ba0 P13 3.227148 1_555
Ba0 P3 3.240111 1_564
Ba0 P7 3.265126 1_555
Ba0 P0 3.274880 1_555
Ba0 P9 3.319193 1_555
Ba0 P12 3.354808 1_555
Ba1 P12 3.227148 1_455
Ba1 P2 3.240111 1_545
Ba1 P6 3.265126 1_455
Ba1 P1 3.274880 1_555
Ba1 P8 3.319193 1_455
Ba1 P13 3.354808 1_555
Ba2 P15 3.250305 1_555
Ba2 P5 3.267938 1_555
Ba2 P11 3.272139 1_555
Ba2 P1 3.274217 1_555
Ba2 P2 3.289977 1_555
Ba2 P14 3.337269 1_555
Ba2 P6 3.938802 1_565
Ba3 P14 3.250305 1_655
Ba3 P4 3.267938 1_655
Ba3 P10 3.272139 1_655
Ba3 P0 3.274217 1_556
Ba3 P3 3.289977 1_555
Ba3 P15 3.337269 1_555
Ba3 P7 3.938802 1_646
Ba4 P15 3.227148 1_555
Ba4 P7 3.240111 1_546
Ba4 P3 3.265126 1_555
Ba4 P4 3.274880 1_555
Ba4 P11 3.319193 1_555
Ba4 P14 3.354808 1_555
Ba5 P14 3.227148 1_655
Ba5 P6 3.240111 1_565
Ba5 P2 3.265126 1_655
Ba5 P5 3.274880 1_555
Ba5 P10 3.319193 1_655
Ba5 P15 3.354808 1_555
Ba6 P13 3.250305 1_555
Ba6 P1 3.267938 1_555
Ba6 P9 3.272139 1_555
Ba6 P5 3.274217 1_555
Ba6 P6 3.289977 1_555
Ba6 P12 3.337269 1_555
Ba6 P2 3.938802 1_545
Ba7 P12 3.250305 1_455
Ba7 P0 3.267938 1_455
Ba7 P8 3.272139 1_455
Ba7 P4 3.274217 1_554
Ba7 P7 3.289977 1_555
Ba7 P13 3.337269 1_555
Ba7 P3 3.938802 1_464
Na0 P13 3.032527 1_655
Na0 P9 3.061257 1_555
Na0 P6 3.400663 1_555
Na0 P8 3.401097 1_545
Na0 P12 3.441073 1_555
Na1 P12 3.032527 1_555
Na1 P8 3.061257 1_455
Na1 P7 3.400663 1_555
Na1 P9 3.401097 1_565
Na1 P13 3.441073 1_555
Na2 P15 3.032527 1_455
Na2 P11 3.061257 1_555
Na2 P2 3.400663 1_555
Na2 P10 3.401097 1_565
Na2 P14 3.441073 1_555
Na3 P14 3.032527 1_555
Na3 P10 3.061257 1_655
Na3 P3 3.400663 1_555
Na3 P11 3.401097 1_545
Na3 P15 3.441073 1_555
Na4 P7 2.966650 1_545
Na4 P8 3.010003 1_545
Na4 P3 3.022936 1_554
Na4 P12 3.079393 1_545
Na4 P0 3.134020 1_555
Na4 P9 3.245498 1_555
Na5 P6 2.966650 1_465
Na5 P9 3.010003 1_565
Na5 P2 3.022936 1_555
Na5 P13 3.079393 1_565
Na5 P1 3.134020 1_555
Na5 P8 3.245498 1_455
Na6 P3 2.966650 1_565
Na6 P10 3.010003 1_565
Na6 P7 3.022936 1_556
Na6 P14 3.079393 1_565
Na6 P4 3.134020 1_555
Na6 P11 3.245498 1_555
Na7 P2 2.966650 1_645
Na7 P11 3.010003 1_545
Na7 P6 3.022936 1_555
Na7 P15 3.079393 1_545
Na7 P5 3.134020 1_555
Na7 P10 3.245498 1_655
P0 P4 2.275839 1_654
P0 Sr3 3.066970 1_655
P0 Sr1 3.097450 1_554
P1 P5 2.275839 1_555
P1 Sr2 3.066970 1_555
P1 Sr0 3.097450 1_555
P2 P6 2.274736 1_465
P2 Sr0 3.081391 1_565
P3 P7 2.274736 1_546
P3 Sr1 3.081391 1_545
P4 Sr1 3.066970 1_455
P4 Sr3 3.097450 1_556
P5 Sr0 3.066970 1_555
P5 Sr2 3.097450 1_555
P6 Sr2 3.081391 1_545
P7 Sr3 3.081391 1_565
P8 Sr2 3.047981 1_555
P8 Sr3 3.072285 1_665
P9 Sr3 3.047981 1_555
P9 Sr2 3.072285 1_545
P10 P14 2.275889 1_555
P10 Sr0 3.047981 1_555
P10 Sr1 3.072285 1_445
P11 P15 2.275889 1_555
P11 Sr1 3.047981 1_555
P11 Sr0 3.072285 1_565
P12 P8 2.275889 1_555
P12 Sr2 3.102331 1_555
P13 P9 2.275889 1_555
P13 Sr3 3.102331 1_555
P14 Sr0 3.102331 1_555
P15 Sr1 3.102331 1_555
