# generated using pymatgen
data_TaNi2B6W5
_symmetry_space_group_name_H-M   'P 1'
_cell_length_a   4.52254562
_cell_length_b   4.52254502
_cell_length_c   10.76780322
_cell_angle_alpha   90.00000000
_cell_angle_beta   90.00000000
_cell_angle_gamma   138.55610526
_symmetry_Int_Tables_number   1
_chemical_formula_structural   TaNi2B6W5
_chemical_formula_sum   'Ta1 Ni2 B6 W5'
_cell_volume   145.77276169
_cell_formula_units_Z   1
loop_
 _symmetry_equiv_pos_site_id
 _symmetry_equiv_pos_as_xyz
  1  'x, y, z'
loop_
 _atom_site_type_symbol
 _atom_site_label
 _atom_site_symmetry_multiplicity
 _atom_site_fract_x
 _atom_site_fract_y
 _atom_site_fract_z
 _atom_site_occupancy
  Ta  Ta0  1  0.49984039  0.50015961  0.25000000  1
  Ni  Ni0  1  0.50022288  0.49977712  0.50233071  1
  Ni  Ni1  1  0.50022288  0.49977712  0.99766929  1
  B  B0  1  0.08917129  0.91082871  0.39715805  1
  B  B1  1  0.91182685  0.08817315  0.60410970  1
  B  B2  1  0.08917129  0.91082871  0.10284195  1
  B  B3  1  0.91182685  0.08817315  0.89589030  1
  B  B4  1  0.20982763  0.79017237  0.25000000  1
  B  B5  1  0.79080995  0.20919005  0.75000000  1
  W  W0  1  0.78838276  0.21161724  0.39468698  1
  W  W1  1  0.21171276  0.78828724  0.60837253  1
  W  W2  1  0.78838276  0.21161724  0.10531302  1
  W  W3  1  0.21171276  0.78828724  0.89162747  1
  W  W4  1  0.49688996  0.50311004  0.75000000  1
loop_
_geom_bond_atom_site_label_1
_geom_bond_atom_site_label_2
_geom_bond_distance
_geom_bond_site_symmetry_2
Ta0 W0 2.861504 1_565
Ta0 W2 2.861504 1_565
Ta0 W0 2.861504 1_455
Ta0 W2 2.861504 1_455
Ni0 W1 2.658144 1_545
Ni0 W1 2.658145 1_655
Ni0 W4 2.667003 1_555
Ni0 W0 2.667589 1_565
Ni0 W0 2.667590 1_455
Ni0 W1 2.694663 1_555
Ni0 W0 2.699341 1_555
Ni0 Ta0 2.717049 1_555
Ni1 W3 2.658144 1_545
Ni1 W3 2.658145 1_655
Ni1 W4 2.667003 1_555
Ni1 W2 2.667589 1_566
Ni1 W2 2.667590 1_456
Ni1 W3 2.694663 1_555
Ni1 W2 2.699341 1_556
Ni1 Ta0 2.717049 1_556
B0 B4 1.884883 1_555
B0 Ni0 2.099878 1_565
B0 Ni0 2.099878 1_455
B0 W0 2.324163 1_455
B0 W0 2.324163 1_565
B0 Ta0 2.375441 1_565
B0 Ta0 2.375441 1_455
B0 W1 2.499450 1_555
B0 W0 2.544795 1_465
B1 B5 1.875085 1_555
B1 Ni0 2.078712 1_545
B1 Ni0 2.078712 1_655
B1 W1 2.330006 1_655
B1 W1 2.330007 1_545
B1 W4 2.355074 1_545
B1 W4 2.355074 1_655
B1 W0 2.485107 1_555
B1 W1 2.537435 1_645
B2 B4 1.884883 1_555
B2 Ni1 2.099878 1_564
B2 Ni1 2.099878 1_454
B2 W2 2.324163 1_455
B2 W2 2.324163 1_565
B2 Ta0 2.375441 1_565
B2 Ta0 2.375441 1_455
B2 W3 2.499450 1_554
B2 W2 2.544795 1_465
B3 B5 1.875085 1_555
B3 Ni1 2.078712 1_545
B3 Ni1 2.078712 1_655
B3 W3 2.330006 1_655
B3 W3 2.330007 1_545
B3 W4 2.355074 1_545
B3 W4 2.355074 1_655
B3 W2 2.485107 1_556
B3 W3 2.537435 1_645
B4 W0 2.330155 1_455
B4 W2 2.330155 1_455
B4 W0 2.330155 1_565
B4 W2 2.330155 1_565
B4 Ta0 2.390943 1_565
B4 Ta0 2.390944 1_455
B4 Ta0 2.453494 1_555
B5 W3 2.309583 1_655
B5 W1 2.309583 1_655
B5 W3 2.309583 1_545
B5 W1 2.309583 1_545
B5 W4 2.366487 1_545
B5 W4 2.366487 1_655
B5 W4 2.486549 1_555
