# generated using pymatgen
data_BaP2IrRu
_symmetry_space_group_name_H-M   'P 1'
_cell_length_a   6.89629134
_cell_length_b   6.89629156
_cell_length_c   6.89629179
_cell_angle_alpha   146.23118192
_cell_angle_beta   146.23118273
_cell_angle_gamma   48.50350837
_symmetry_Int_Tables_number   1
_chemical_formula_structural   BaP2IrRu
_chemical_formula_sum   'Ba1 P2 Ir1 Ru1'
_cell_volume   100.90220231
_cell_formula_units_Z   1
loop_
 _symmetry_equiv_pos_site_id
 _symmetry_equiv_pos_as_xyz
  1  'x, y, z'
loop_
 _atom_site_type_symbol
 _atom_site_label
 _atom_site_symmetry_multiplicity
 _atom_site_fract_x
 _atom_site_fract_y
 _atom_site_fract_z
 _atom_site_occupancy
  Ba  Ba0  1  0.00000000  0.00000000  0.00000000  1
  P  P0  1  0.34517906  0.34517906  1.00000000  1
  P  P1  1  0.65482094  0.65482094  0.00000000  1
  Ir  Ir0  1  0.75000000  0.25000000  0.50000000  1
  Ru  Ru0  1  0.25000000  0.75000000  0.50000000  1
loop_
_geom_bond_atom_site_label_1
_geom_bond_atom_site_label_2
_geom_bond_distance
_geom_bond_site_symmetry_2
Ba0 P1 3.437198 1_556
Ba0 P0 3.437198 1_443
Ba0 P1 3.437199 1_545
Ba0 P0 3.437199 1_454
Ba0 P1 3.437199 1_455
Ba0 P0 3.437199 1_544
Ba0 P1 3.437199 1_444
Ba0 P0 3.437199 1_555
P0 Ru0 2.333344 1_545
P0 Ru0 2.333344 1_556
P1 Ru0 2.333344 1_655
P1 Ru0 2.333344 1_554
Ir0 P0 2.333344 1_655
Ir0 P1 2.333344 1_545
Ir0 P0 2.333344 1_554
Ir0 P1 2.333344 1_556
