# generated using pymatgen
data_LiY19(Cd3Ru)2
_symmetry_space_group_name_H-M   'P 1'
_cell_length_a   9.56171437
_cell_length_b   9.56171400
_cell_length_c   9.80426602
_cell_angle_alpha   90.00000000
_cell_angle_beta   90.00000000
_cell_angle_gamma   120.00000130
_symmetry_Int_Tables_number   1
_chemical_formula_structural   LiY19(Cd3Ru)2
_chemical_formula_sum   'Li1 Y19 Cd6 Ru2'
_cell_volume   776.27791045
_cell_formula_units_Z   1
loop_
 _symmetry_equiv_pos_site_id
 _symmetry_equiv_pos_as_xyz
  1  'x, y, z'
loop_
 _atom_site_type_symbol
 _atom_site_label
 _atom_site_symmetry_multiplicity
 _atom_site_fract_x
 _atom_site_fract_y
 _atom_site_fract_z
 _atom_site_occupancy
  Li  Li0  1  0.00000000  0.00000000  0.50000000  1
  Y  Y0  1  0.00000000  0.00000000  0.00000000  1
  Y  Y1  1  0.20717239  0.79282761  0.43789332  1
  Y  Y2  1  0.20717239  0.41434478  0.43789332  1
  Y  Y3  1  0.58565522  0.79282761  0.43789332  1
  Y  Y4  1  0.79282761  0.20717239  0.56210668  1
  Y  Y5  1  0.79282761  0.58565522  0.56210668  1
  Y  Y6  1  0.41434478  0.20717239  0.56210668  1
  Y  Y7  1  0.78958758  0.21041242  0.93973207  1
  Y  Y8  1  0.78958758  0.57917417  0.93973207  1
  Y  Y9  1  0.42082583  0.21041242  0.93973207  1
  Y  Y10  1  0.21041242  0.78958758  0.06026793  1
  Y  Y11  1  0.21041242  0.42082583  0.06026793  1
  Y  Y12  1  0.57917417  0.78958758  0.06026793  1
  Y  Y13  1  0.54191592  0.45808408  0.25152690  1
  Y  Y14  1  0.54191592  0.08383085  0.25152690  1
  Y  Y15  1  0.91616915  0.45808408  0.25152690  1
  Y  Y16  1  0.45808408  0.54191592  0.74847310  1
  Y  Y17  1  0.45808408  0.91616915  0.74847310  1
  Y  Y18  1  0.08383085  0.54191592  0.74847310  1
  Cd  Cd0  1  0.88946456  0.11053544  0.25878882  1
  Cd  Cd1  1  0.88946456  0.77893112  0.25878882  1
  Cd  Cd2  1  0.22106888  0.11053544  0.25878882  1
  Cd  Cd3  1  0.11053544  0.88946456  0.74121118  1
  Cd  Cd4  1  0.11053544  0.22106888  0.74121118  1
  Cd  Cd5  1  0.77893112  0.88946456  0.74121118  1
  Ru  Ru0  1  0.33333300  0.66666700  0.25009262  1
  Ru  Ru1  1  0.66666700  0.33333300  0.74990738  1
loop_
_geom_bond_atom_site_label_1
_geom_bond_atom_site_label_2
_geom_bond_distance
_geom_bond_site_symmetry_2
Cd0 Li0 2.990637 1_655
Cd0 Y0 3.128694 1_655
Cd0 Cd1 3.170706 1_545
Cd0 Cd2 3.170706 1_655
Cd0 Y15 3.203923 1_555
Cd0 Y14 3.203923 1_555
Cd0 Y4 3.377122 1_555
Cd0 Y3 3.453385 1_545
Cd0 Y2 3.453385 1_655
Cd0 Y7 3.538526 1_554
Cd0 Y12 3.592151 1_545
Cd0 Y11 3.592151 1_655
Cd1 Li0 2.990627 1_665
Cd1 Y0 3.128684 1_665
Cd1 Cd2 3.170706 1_665
Cd1 Y13 3.203936 1_555
Cd1 Y15 3.203952 1_555
Cd1 Y5 3.377129 1_555
Cd1 Y3 3.453376 1_555
Cd1 Y1 3.453393 1_655
Cd1 Y8 3.538537 1_554
Cd1 Y12 3.592147 1_555
Cd1 Y10 3.592155 1_655
Cd2 Li0 2.990627 1_555
Cd2 Y0 3.128684 1_555
Cd2 Y13 3.203936 1_555
Cd2 Y14 3.203952 1_555
Cd2 Y6 3.377130 1_555
Cd2 Y2 3.453376 1_555
Cd2 Y1 3.453393 1_545
Cd2 Y9 3.538537 1_554
Cd2 Y11 3.592147 1_555
Cd2 Y10 3.592155 1_545
Cd3 Li0 2.990637 1_565
Cd3 Y0 3.128694 1_566
Cd3 Cd4 3.170706 1_565
Cd3 Cd5 3.170706 1_455
Cd3 Y18 3.203923 1_555
Cd3 Y17 3.203923 1_555
Cd3 Y1 3.377122 1_555
Cd3 Y6 3.453385 1_565
Cd3 Y5 3.453385 1_455
Cd3 Y10 3.538526 1_556
Cd3 Y9 3.592151 1_565
Cd3 Y8 3.592151 1_455
Cd4 Li0 2.990627 1_555
Cd4 Y0 3.128684 1_556
Cd4 Cd5 3.170706 1_445
Cd4 Y16 3.203936 1_555
Cd4 Y18 3.203952 1_555
Cd4 Y2 3.377129 1_555
Cd4 Y6 3.453376 1_555
Cd4 Y4 3.453393 1_455
Cd4 Y11 3.538537 1_556
Cd4 Y9 3.592147 1_555
Cd4 Y7 3.592155 1_455
Cd5 Li0 2.990627 1_665
Cd5 Y0 3.128684 1_666
Cd5 Y16 3.203936 1_555
Cd5 Y17 3.203952 1_555
Cd5 Y3 3.377130 1_555
Cd5 Y5 3.453376 1_555
Cd5 Y4 3.453393 1_565
Cd5 Y12 3.538537 1_556
Cd5 Y8 3.592147 1_555
Cd5 Y7 3.592155 1_565
Ru0 Y11 2.758238 1_555
Ru0 Y12 2.758238 1_555
Ru0 Y10 2.758238 1_555
Ru0 Y1 2.784916 1_555
Ru0 Y2 2.784922 1_555
Ru0 Y3 2.784922 1_555
Ru0 Y14 3.454432 1_565
Ru0 Y15 3.454432 1_455
Ru0 Y13 3.454449 1_555
Ru1 Y8 2.758238 1_555
Ru1 Y9 2.758238 1_555
Ru1 Y7 2.758238 1_555
Ru1 Y4 2.784916 1_555
Ru1 Y5 2.784922 1_555
Ru1 Y6 2.784922 1_555
Ru1 Y17 3.454432 1_545
Ru1 Y18 3.454432 1_655
Ru1 Y16 3.454449 1_555
