# generated using pymatgen
data_Ba2LiAlS4
_symmetry_space_group_name_H-M   'P 1'
_cell_length_a   7.00460914
_cell_length_b   8.27273333
_cell_length_c   14.51411409
_cell_angle_alpha   73.37341343
_cell_angle_beta   90.00000000
_cell_angle_gamma   90.00000000
_symmetry_Int_Tables_number   1
_chemical_formula_structural   Ba2LiAlS4
_chemical_formula_sum   'Ba8 Li4 Al4 S16'
_cell_volume   805.88867916
_cell_formula_units_Z   4
loop_
 _symmetry_equiv_pos_site_id
 _symmetry_equiv_pos_as_xyz
  1  'x, y, z'
loop_
 _atom_site_type_symbol
 _atom_site_label
 _atom_site_symmetry_multiplicity
 _atom_site_fract_x
 _atom_site_fract_y
 _atom_site_fract_z
 _atom_site_occupancy
  Ba  Ba0  1  0.76052201  0.81086149  0.12978620  1
  Ba  Ba1  1  0.26052201  0.68913851  0.37021380  1
  Ba  Ba2  1  0.23947799  0.18913851  0.87021380  1
  Ba  Ba3  1  0.73947799  0.31086149  0.62978620  1
  Ba  Ba4  1  0.75972206  0.31499370  0.12012150  1
  Ba  Ba5  1  0.25972206  0.18500630  0.37987850  1
  Ba  Ba6  1  0.24027794  0.68500630  0.87987850  1
  Ba  Ba7  1  0.74027794  0.81499370  0.62012150  1
  Li  Li0  1  0.75692968  0.94686318  0.35766293  1
  Li  Li1  1  0.25692968  0.55313682  0.14233707  1
  Li  Li2  1  0.24307032  0.05313682  0.64233707  1
  Li  Li3  1  0.74307032  0.44686318  0.85766293  1
  Al  Al0  1  0.75538799  0.44290976  0.35941658  1
  Al  Al1  1  0.25538799  0.05709024  0.14058342  1
  Al  Al2  1  0.24461201  0.55709024  0.64058342  1
  Al  Al3  1  0.74461201  0.94290976  0.85941658  1
  S  S0  1  0.24967480  0.86556473  0.05614755  1
  S  S1  1  0.74967480  0.63443527  0.44385245  1
  S  S2  1  0.75032520  0.13443527  0.94385245  1
  S  S3  1  0.25032520  0.36556473  0.55614755  1
  S  S4  1  0.00417738  0.48912624  0.25845393  1
  S  S5  1  0.50417738  0.01087376  0.24154607  1
  S  S6  1  0.99582262  0.51087376  0.74154607  1
  S  S7  1  0.49582262  0.98912624  0.75845393  1
  S  S8  1  0.51184173  0.49070492  0.25496071  1
  S  S9  1  0.01184173  0.00929508  0.24503929  1
  S  S10  1  0.48815827  0.50929508  0.74503929  1
  S  S11  1  0.98815827  0.99070492  0.75496071  1
  S  S12  1  0.74953974  0.16757975  0.44857553  1
  S  S13  1  0.24953974  0.33242025  0.05142447  1
  S  S14  1  0.25046026  0.83242025  0.55142447  1
  S  S15  1  0.75046026  0.66757975  0.94857553  1
loop_
_geom_bond_atom_site_label_1
_geom_bond_atom_site_label_2
_geom_bond_distance
_geom_bond_site_symmetry_2
Ba0 S15 3.179865 1_554
Ba0 S5 3.182636 1_565
Ba0 S9 3.188028 1_665
Ba0 S2 3.212378 1_564
Ba0 S8 3.255184 1_555
Ba0 S4 3.261930 1_655
Ba0 S0 3.579111 1_655
Ba0 S0 3.724844 1_555
Ba1 S14 3.179865 1_555
Ba1 S4 3.182636 1_555
Ba1 S8 3.188028 1_555
Ba1 S3 3.212378 1_555
Ba1 S9 3.255184 1_565
Ba1 S5 3.261930 1_565
Ba1 S1 3.579111 1_555
Ba1 S1 3.724844 1_455
Ba2 S13 3.179865 1_556
Ba2 S7 3.182636 1_545
Ba2 S11 3.188028 1_445
Ba2 S0 3.212378 1_546
Ba2 S10 3.255184 1_555
Ba2 S6 3.261930 1_455
Ba2 S2 3.579111 1_455
Ba2 S2 3.724844 1_555
Ba3 S12 3.179865 1_555
Ba3 S6 3.182636 1_555
Ba3 S10 3.188028 1_555
Ba3 S1 3.212378 1_555
Ba3 S11 3.255184 1_545
Ba3 S7 3.261930 1_545
Ba3 S3 3.579111 1_555
Ba3 S3 3.724844 1_655
Ba4 S5 3.178425 1_555
Ba4 S9 3.190249 1_655
Ba4 S15 3.248914 1_554
Ba4 S8 3.253593 1_555
Ba4 S4 3.270096 1_655
Ba4 S2 3.311763 1_554
Ba4 S13 3.564312 1_655
Ba4 S13 3.701824 1_555
Ba5 S4 3.178425 1_555
Ba5 S8 3.190249 1_555
Ba5 S14 3.248914 1_545
Ba5 S9 3.253593 1_555
Ba5 S5 3.270096 1_555
Ba5 S3 3.311763 1_555
Ba5 S12 3.564312 1_555
Ba5 S12 3.701824 1_455
Ba6 S7 3.178425 1_555
Ba6 S11 3.190249 1_455
Ba6 S13 3.248914 1_556
Ba6 S10 3.253593 1_555
Ba6 S6 3.270096 1_455
Ba6 S0 3.311763 1_556
Ba6 S15 3.564312 1_455
Ba6 S15 3.701824 1_555
Ba7 S6 3.178425 1_555
Ba7 S10 3.190249 1_555
Ba7 S12 3.248914 1_565
Ba7 S11 3.253593 1_555
Ba7 S7 3.270096 1_555
Ba7 S1 3.311763 1_555
Ba7 S14 3.564312 1_555
Ba7 S14 3.701824 1_655
Li0 S9 2.375681 1_665
Li0 S5 2.396762 1_565
Li0 S1 2.529332 1_555
Li0 S12 2.540985 1_565
Li1 S8 2.375681 1_555
Li1 S4 2.396762 1_555
Li1 S0 2.529332 1_555
Li1 S13 2.540985 1_555
Li2 S11 2.375681 1_445
Li2 S7 2.396762 1_545
Li2 S3 2.529332 1_555
Li2 S14 2.540985 1_545
Li3 S10 2.375681 1_555
Li3 S6 2.396762 1_555
Li3 S2 2.529332 1_555
Li3 S15 2.540985 1_555
Al0 S4 2.238261 1_655
Al0 S8 2.240994 1_555
Al0 S1 2.263874 1_555
Al0 S12 2.275427 1_555
Al1 S5 2.238261 1_555
Al1 S9 2.240994 1_555
Al1 S0 2.263874 1_545
Al1 S13 2.275427 1_555
Al2 S6 2.238261 1_455
Al2 S10 2.240994 1_555
Al2 S3 2.263874 1_555
Al2 S14 2.275427 1_555
Al3 S7 2.238261 1_555
Al3 S11 2.240994 1_555
Al3 S2 2.263874 1_565
Al3 S15 2.275427 1_555
