# generated using pymatgen
data_Rb3AgPb4
_symmetry_space_group_name_H-M   'P 1'
_cell_length_a   6.93549964
_cell_length_b   7.27472665
_cell_length_c   13.33928406
_cell_angle_alpha   90.00000000
_cell_angle_beta   90.00000000
_cell_angle_gamma   90.00000000
_symmetry_Int_Tables_number   1
_chemical_formula_structural   Rb3AgPb4
_chemical_formula_sum   'Rb6 Ag2 Pb8'
_cell_volume   673.01842430
_cell_formula_units_Z   2
loop_
 _symmetry_equiv_pos_site_id
 _symmetry_equiv_pos_as_xyz
  1  'x, y, z'
loop_
 _atom_site_type_symbol
 _atom_site_label
 _atom_site_symmetry_multiplicity
 _atom_site_fract_x
 _atom_site_fract_y
 _atom_site_fract_z
 _atom_site_occupancy
  Rb  Rb0  1  0.16845080  0.00000000  0.75416930  1
  Rb  Rb1  1  0.16845080  0.00000000  0.24583070  1
  Rb  Rb2  1  0.44294052  0.50000000  0.50000000  1
  Rb  Rb3  1  0.55705948  0.00000000  0.00000000  1
  Rb  Rb4  1  0.83154920  0.50000000  0.25416930  1
  Rb  Rb5  1  0.83154920  0.50000000  0.74583070  1
  Ag  Ag0  1  0.31170846  0.00000000  0.50000000  1
  Ag  Ag1  1  0.68829154  0.50000000  0.00000000  1
  Pb  Pb0  1  0.04139771  0.27508365  0.00000000  1
  Pb  Pb1  1  0.04139771  0.72491635  0.00000000  1
  Pb  Pb2  1  0.33542559  0.50000000  0.87841532  1
  Pb  Pb3  1  0.33542559  0.50000000  0.12158468  1
  Pb  Pb4  1  0.66457441  0.00000000  0.37841532  1
  Pb  Pb5  1  0.66457441  0.00000000  0.62158468  1
  Pb  Pb6  1  0.95860229  0.77508365  0.50000000  1
  Pb  Pb7  1  0.95860229  0.22491635  0.50000000  1
loop_
_geom_bond_atom_site_label_1
_geom_bond_atom_site_label_2
_geom_bond_distance
_geom_bond_site_symmetry_2
Rb0 Rb3 4.244675 1_556
Rb0 Rb5 4.324627 1_445
Rb0 Rb5 4.324627 1_455
Rb1 Rb3 4.244675 1_555
Rb1 Rb4 4.324627 1_455
Rb1 Rb4 4.324627 1_445
Rb2 Rb5 4.244675 1_555
Rb2 Rb4 4.244675 1_555
Ag0 Pb5 2.935931 1_555
Ag0 Pb4 2.935931 1_555
Ag0 Pb7 2.945269 1_455
Ag0 Pb6 2.945269 1_445
Ag0 Rb0 3.533020 1_555
Ag0 Rb1 3.533020 1_555
Ag0 Rb2 3.749507 1_545
Ag0 Rb2 3.749507 1_555
Ag1 Pb3 2.935931 1_555
Ag1 Pb2 2.935931 1_554
Ag1 Pb1 2.945269 1_655
Ag1 Pb0 2.945269 1_655
Ag1 Rb4 3.533020 1_555
Ag1 Rb5 3.533020 1_554
Ag1 Rb3 3.749507 1_565
Ag1 Rb3 3.749507 1_555
Pb0 Pb3 3.076692 1_555
Pb0 Pb2 3.076692 1_554
Pb0 Pb1 3.272410 1_555
Pb0 Rb3 3.910035 1_455
Pb0 Rb1 3.941357 1_555
Pb0 Rb0 3.941357 1_554
Pb0 Rb4 4.036140 1_455
Pb0 Rb5 4.036140 1_454
Pb0 Rb3 4.098179 1_555
Pb1 Pb3 3.076692 1_555
Pb1 Pb2 3.076692 1_554
Pb1 Rb3 3.910035 1_465
Pb1 Rb1 3.941357 1_565
Pb1 Rb0 3.941357 1_564
Pb1 Rb4 4.036140 1_455
Pb1 Rb5 4.036140 1_454
Pb1 Rb3 4.098179 1_565
Pb2 Rb5 3.868778 1_555
Pb2 Rb5 3.916677 1_455
Pb2 Rb0 4.161528 1_555
Pb2 Rb0 4.161528 1_565
Pb2 Rb3 4.268914 1_556
Pb2 Rb3 4.268914 1_566
Pb3 Rb4 3.868778 1_555
Pb3 Rb4 3.916677 1_455
Pb3 Rb1 4.161528 1_565
Pb3 Rb1 4.161528 1_555
Pb3 Rb3 4.268914 1_555
Pb3 Rb3 4.268914 1_565
Pb4 Pb7 3.076692 1_555
Pb4 Pb6 3.076692 1_545
Pb4 Rb1 3.868778 1_555
Pb4 Rb1 3.916677 1_655
Pb4 Rb4 4.161528 1_545
Pb4 Rb4 4.161528 1_555
Pb4 Rb2 4.268914 1_545
Pb4 Rb2 4.268914 1_555
Pb5 Pb7 3.076692 1_555
Pb5 Pb6 3.076692 1_545
Pb5 Rb0 3.868778 1_555
Pb5 Rb0 3.916677 1_655
Pb5 Rb5 4.161528 1_555
Pb5 Rb5 4.161528 1_545
Pb5 Rb2 4.268914 1_555
Pb5 Rb2 4.268914 1_545
Pb6 Pb7 3.272410 1_565
Pb6 Rb2 3.910035 1_655
Pb6 Rb5 3.941357 1_555
Pb6 Rb4 3.941357 1_555
Pb6 Rb0 4.036140 1_665
Pb6 Rb1 4.036140 1_665
Pb6 Rb2 4.098179 1_555
Pb7 Rb2 3.910035 1_655
Pb7 Rb5 3.941357 1_555
Pb7 Rb4 3.941357 1_555
Pb7 Rb0 4.036140 1_655
Pb7 Rb1 4.036140 1_655
Pb7 Rb2 4.098179 1_555
