# generated using pymatgen
data_Sr3Te(IO2)2
_symmetry_space_group_name_H-M   'P 1'
_cell_length_a   7.50194107
_cell_length_b   7.50194167
_cell_length_c   5.80291145
_cell_angle_alpha   90.00000000
_cell_angle_beta   90.00000000
_cell_angle_gamma   134.36874387
_symmetry_Int_Tables_number   1
_chemical_formula_structural   Sr3Te(IO2)2
_chemical_formula_sum   'Sr3 Te1 I2 O4'
_cell_volume   233.45908620
_cell_formula_units_Z   1
loop_
 _symmetry_equiv_pos_site_id
 _symmetry_equiv_pos_as_xyz
  1  'x, y, z'
loop_
 _atom_site_type_symbol
 _atom_site_label
 _atom_site_symmetry_multiplicity
 _atom_site_fract_x
 _atom_site_fract_y
 _atom_site_fract_z
 _atom_site_occupancy
  Sr  Sr0  1  0.15325242  0.84674758  0.00000000  1
  Sr  Sr1  1  0.65567770  0.34432230  0.50000000  1
  Sr  Sr2  1  0.33234639  0.66765361  0.50000000  1
  Te  Te0  1  0.80317731  0.19682269  0.00000000  1
  I  I0  1  0.50021211  0.49978789  0.00000000  1
  I  I1  1  0.01256091  0.98743909  0.50000000  1
  O  O0  1  0.97675705  0.47550647  0.77358421  1
  O  O1  1  0.52449353  0.02324295  0.22641579  1
  O  O2  1  0.52449353  0.02324295  0.77358421  1
  O  O3  1  0.97675705  0.47550647  0.22641579  1
loop_
_geom_bond_atom_site_label_1
_geom_bond_atom_site_label_2
_geom_bond_distance
_geom_bond_site_symmetry_2
I0 Sr0 3.597505 1_655
I0 Sr0 3.597506 1_545
I0 Sr1 3.611272 1_554
I0 Sr1 3.611272 1_555
I0 Sr2 3.715931 1_555
I0 Sr2 3.715931 1_554
I1 Sr0 3.493481 1_555
I1 Sr0 3.493481 1_556
I1 Sr1 3.518512 1_565
I1 Sr1 3.518512 1_455
I1 Sr2 3.830685 1_455
I1 Sr2 3.830686 1_565
O0 Te0 1.996342 1_556
O0 Sr1 2.444506 1_555
O0 Sr0 2.465477 1_656
O0 Sr2 2.517260 1_655
O1 Te0 1.996342 1_555
O1 Sr1 2.444506 1_555
O1 Sr0 2.465477 1_545
O1 Sr2 2.517260 1_545
O2 Te0 1.996342 1_556
O2 Sr1 2.444506 1_555
O2 Sr0 2.465477 1_546
O2 Sr2 2.517260 1_545
O3 Te0 1.996342 1_555
O3 Sr1 2.444506 1_555
O3 Sr0 2.465477 1_655
O3 Sr2 2.517260 1_655
