# generated using pymatgen
data_KSrCoH6
_symmetry_space_group_name_H-M   'P 1'
_cell_length_a   5.33341334
_cell_length_b   5.33341400
_cell_length_c   5.33341363
_cell_angle_alpha   60.00000226
_cell_angle_beta   59.99999817
_cell_angle_gamma   60.00000994
_symmetry_Int_Tables_number   1
_chemical_formula_structural   KSrCoH6
_chemical_formula_sum   'K1 Sr1 Co1 H6'
_cell_volume   107.27557281
_cell_formula_units_Z   1
loop_
 _symmetry_equiv_pos_site_id
 _symmetry_equiv_pos_as_xyz
  1  'x, y, z'
loop_
 _atom_site_type_symbol
 _atom_site_label
 _atom_site_symmetry_multiplicity
 _atom_site_fract_x
 _atom_site_fract_y
 _atom_site_fract_z
 _atom_site_occupancy
  K  K0  1  0.25000000  0.25000000  0.25000000  1
  Sr  Sr0  1  0.75000000  0.75000000  0.75000000  1
  Co  Co0  1  0.00000000  0.00000000  0.00000000  1
  H  H0  1  0.79490095  0.20509905  0.20509905  1
  H  H1  1  0.20509905  0.79490095  0.20509905  1
  H  H2  1  0.79490095  0.79490095  0.20509905  1
  H  H3  1  0.20509905  0.79490095  0.79490095  1
  H  H4  1  0.79490095  0.20509905  0.79490095  1
  H  H5  1  0.20509905  0.20509905  0.79490095  1
loop_
_geom_bond_atom_site_label_1
_geom_bond_atom_site_label_2
_geom_bond_distance
_geom_bond_site_symmetry_2
Co0 H5 1.546977 1_554
Co0 H2 1.546977 1_445
Co0 H1 1.546977 1_545
Co0 H0 1.546977 1_455
Co0 H4 1.546977 1_454
Co0 H3 1.546977 1_544
H0 K0 2.688126 1_655
H0 K0 2.688126 1_555
H0 Sr0 2.688126 1_545
H0 Sr0 2.688126 1_554
H1 Sr0 2.688126 1_455
H1 Sr0 2.688126 1_554
H1 K0 2.688126 1_565
H1 K0 2.688126 1_555
H2 Sr0 2.688126 1_554
H2 Sr0 2.688126 1_555
H2 K0 2.688126 1_565
H2 K0 2.688127 1_655
H3 Sr0 2.688126 1_455
H3 Sr0 2.688126 1_555
H3 K0 2.688126 1_565
H3 K0 2.688126 1_556
H4 K0 2.688126 1_655
H4 K0 2.688126 1_556
H4 Sr0 2.688126 1_545
H4 Sr0 2.688126 1_555
H5 K0 2.688126 1_555
H5 K0 2.688126 1_556
H5 Sr0 2.688126 1_545
H5 Sr0 2.688127 1_455
