# generated using pymatgen
data_Cs6Sc(RhBr6)3
_symmetry_space_group_name_H-M   'P 1'
_cell_length_a   7.63079941
_cell_length_b   7.63079913
_cell_length_c   19.15410137
_cell_angle_alpha   90.00000000
_cell_angle_beta   90.00000000
_cell_angle_gamma   119.99998913
_symmetry_Int_Tables_number   1
_chemical_formula_structural   Cs6Sc(RhBr6)3
_chemical_formula_sum   'Cs6 Sc1 Rh3 Br18'
_cell_volume   965.90078733
_cell_formula_units_Z   1
loop_
 _symmetry_equiv_pos_site_id
 _symmetry_equiv_pos_as_xyz
  1  'x, y, z'
loop_
 _atom_site_type_symbol
 _atom_site_label
 _atom_site_symmetry_multiplicity
 _atom_site_fract_x
 _atom_site_fract_y
 _atom_site_fract_z
 _atom_site_occupancy
  Cs  Cs0  1  0.33333300  0.66666700  0.07412989  1
  Cs  Cs1  1  0.66666700  0.33333300  0.93109502  1
  Cs  Cs2  1  0.66666700  0.33333300  0.57265431  1
  Cs  Cs3  1  0.33333300  0.66666700  0.42856768  1
  Cs  Cs4  1  0.00000000  0.00000000  0.25083117  1
  Cs  Cs5  1  0.00000000  0.00000000  0.74573981  1
  Sc  Sc0  1  0.33333300  0.66666700  0.84043425  1
  Rh  Rh0  1  0.33333300  0.66666700  0.66498985  1
  Rh  Rh1  1  0.66666700  0.33333300  0.33470295  1
  Rh  Rh2  1  0.66666700  0.33333300  0.16608480  1
  Br  Br0  1  0.17952099  0.35904198  0.59169859  1
  Br  Br1  1  0.82100576  0.64201252  0.40684385  1
  Br  Br2  1  0.64095802  0.82047901  0.59169859  1
  Br  Br3  1  0.82111191  0.64222382  0.09385064  1
  Br  Br4  1  0.35798748  0.17899424  0.40684385  1
  Br  Br5  1  0.16816444  0.33632888  0.91021615  1
  Br  Br6  1  0.17952099  0.82047901  0.59169859  1
  Br  Br7  1  0.35777618  0.17888809  0.09385064  1
  Br  Br8  1  0.82100576  0.17899424  0.40684385  1
  Br  Br9  1  0.66367112  0.83183556  0.91021615  1
  Br  Br10  1  0.82111191  0.17888809  0.09385064  1
  Br  Br11  1  0.16816444  0.83183556  0.91021615  1
  Br  Br12  1  0.51706228  0.03412556  0.25025007  1
  Br  Br13  1  0.48895791  0.97791582  0.74406446  1
  Br  Br14  1  0.96587444  0.48293772  0.25025007  1
  Br  Br15  1  0.02208418  0.51104209  0.74406446  1
  Br  Br16  1  0.51706228  0.48293772  0.25025007  1
  Br  Br17  1  0.48895791  0.51104209  0.74406446  1
loop_
_geom_bond_atom_site_label_1
_geom_bond_atom_site_label_2
_geom_bond_distance
_geom_bond_site_symmetry_2
Br0 Rh0 2.470534 1_555
Br0 Cs3 3.727746 1_555
Br0 Cs5 3.786207 1_555
Br0 Cs2 3.836557 1_455
Br0 Cs2 3.836565 1_555
Br1 Rh1 2.463847 1_555
Br1 Cs2 3.774632 1_555
Br1 Cs4 3.811377 1_665
Br1 Cs3 3.841479 1_555
Br1 Cs3 3.841479 1_655
Br2 Rh0 2.470534 1_555
Br2 Cs3 3.727746 1_555
Br2 Cs5 3.786207 1_665
Br2 Cs2 3.836557 1_565
Br2 Cs2 3.836565 1_555
Br3 Rh2 2.466005 1_555
Br3 Cs1 3.726299 1_554
Br3 Cs4 3.825066 1_665
Br3 Cs0 3.837450 1_655
Br3 Cs0 3.837457 1_555
Br4 Rh1 2.463847 1_555
Br4 Cs2 3.774632 1_555
Br4 Cs4 3.811377 1_555
Br4 Cs3 3.841479 1_555
Br4 Cs3 3.841479 1_545
Br5 Sc0 2.559714 1_555
Br5 Cs0 3.823981 1_556
Br5 Cs1 3.836349 1_455
Br5 Cs1 3.836356 1_555
Br5 Cs5 3.855519 1_555
Br6 Rh0 2.470528 1_555
Br6 Cs3 3.727742 1_555
Br6 Cs5 3.786206 1_565
Br6 Cs2 3.836561 1_565
Br6 Cs2 3.836561 1_455
Br7 Rh2 2.466005 1_555
Br7 Cs1 3.726299 1_554
Br7 Cs4 3.825066 1_555
Br7 Cs0 3.837450 1_545
Br7 Cs0 3.837457 1_555
Br8 Rh1 2.463835 1_555
Br8 Cs2 3.774625 1_555
Br8 Cs4 3.811381 1_655
Br8 Cs3 3.841479 1_545
Br8 Cs3 3.841479 1_655
Br9 Sc0 2.559715 1_555
Br9 Cs0 3.823981 1_556
Br9 Cs1 3.836348 1_565
Br9 Cs1 3.836356 1_555
Br9 Cs5 3.855519 1_665
Br10 Rh2 2.465999 1_555
Br10 Cs1 3.726295 1_554
Br10 Cs4 3.825066 1_655
Br10 Cs0 3.837454 1_545
Br10 Cs0 3.837454 1_655
Br11 Sc0 2.559709 1_555
Br11 Cs0 3.823977 1_556
Br11 Cs1 3.836353 1_565
Br11 Cs1 3.836353 1_455
Br11 Cs5 3.855519 1_565
Br12 Rh2 2.551200 1_555
Br12 Rh1 2.554685 1_555
Br12 Cs4 3.822071 1_555
Br12 Cs4 3.822079 1_655
Br12 Cs0 4.156538 1_545
Br12 Cs3 4.190770 1_545
Br13 Rh0 2.554362 1_555
Br13 Sc0 2.763694 1_555
Br13 Cs5 3.818325 1_565
Br13 Cs5 3.818325 1_665
Br13 Cs2 4.036847 1_565
Br13 Cs1 4.283724 1_565
Br14 Rh2 2.551200 1_555
Br14 Rh1 2.554685 1_555
Br14 Cs4 3.822071 1_665
Br14 Cs4 3.822079 1_655
Br14 Cs0 4.156538 1_655
Br14 Cs3 4.190770 1_655
Br15 Rh0 2.554362 1_555
Br15 Sc0 2.763694 1_555
Br15 Cs5 3.818325 1_565
Br15 Cs5 3.818325 1_555
Br15 Cs2 4.036847 1_455
Br15 Cs1 4.283724 1_455
Br16 Rh2 2.551210 1_555
Br16 Rh1 2.554695 1_555
Br16 Cs4 3.822075 1_665
Br16 Cs4 3.822075 1_555
Br16 Cs0 4.156538 1_555
Br16 Cs3 4.190770 1_555
Br17 Rh0 2.554367 1_555
Br17 Sc0 2.763699 1_555
Br17 Cs5 3.818325 1_555
Br17 Cs5 3.818325 1_665
Br17 Cs2 4.036851 1_555
Br17 Cs1 4.283728 1_555
