# generated using pymatgen
data_Eu(YS2)2
_symmetry_space_group_name_H-M   'P 1'
_cell_length_a   7.32026000
_cell_length_b   7.32026000
_cell_length_c   7.32026000
_cell_angle_alpha   109.27287947
_cell_angle_beta   109.27287947
_cell_angle_gamma   109.86863539
_symmetry_Int_Tables_number   1
_chemical_formula_structural   Eu(YS2)2
_chemical_formula_sum   'Eu2 Y4 S8'
_cell_volume   301.95480559
_cell_formula_units_Z   2
loop_
 _symmetry_equiv_pos_site_id
 _symmetry_equiv_pos_as_xyz
  1  'x, y, z'
loop_
 _atom_site_type_symbol
 _atom_site_label
 _atom_site_symmetry_multiplicity
 _atom_site_fract_x
 _atom_site_fract_y
 _atom_site_fract_z
 _atom_site_occupancy
  Eu  Eu0  1  0.50000000  0.50000000  0.00000000  1
  Eu  Eu1  1  0.75000000  0.25000000  0.50000000  1
  Y  Y0  1  0.00040800  0.37500000  0.12540800  1
  Y  Y1  1  0.12500000  0.99959200  0.37459200  1
  Y  Y2  1  0.24959200  0.87500000  0.87459200  1
  Y  Y3  1  0.62500000  0.75040800  0.62540800  1
  S  S0  1  0.88413400  0.63635300  0.89892200  1
  S  S1  1  0.88635300  0.63413400  0.39892200  1
  S  S2  1  0.01478800  0.11586600  0.75221800  1
  S  S3  1  0.23521200  0.48743100  0.60107800  1
  S  S4  1  0.36586600  0.76478800  0.25221800  1
  S  S5  1  0.51256900  0.11364700  0.74778200  1
  S  S6  1  0.36364700  0.26256900  0.24778200  1
  S  S7  1  0.73743100  0.98521200  0.10107800  1
loop_
_geom_bond_atom_site_label_1
_geom_bond_atom_site_label_2
_geom_bond_distance
_geom_bond_site_symmetry_2
Eu0 S4 2.873674 1_555
Eu0 S5 2.873676 1_554
Eu0 S1 2.873678 1_555
Eu0 S3 2.873678 1_554
Eu0 S2 3.066609 1_554
Eu0 S0 3.066609 1_554
Eu0 S7 3.066609 1_555
Eu0 S6 3.066616 1_555
Eu1 S2 2.873674 1_655
Eu1 S6 2.873676 1_555
Eu1 S7 2.873678 1_545
Eu1 S0 2.873678 1_555
Eu1 S4 3.066609 1_545
Eu1 S3 3.066609 1_655
Eu1 S1 3.066609 1_555
Eu1 S5 3.066616 1_555
S0 Y2 2.753854 1_655
S0 Y3 2.824366 1_555
S0 Y1 2.991983 1_656
S0 Y0 3.066376 1_656
S1 Y1 2.753854 1_655
S1 Y0 2.824366 1_655
S1 Y2 2.991983 1_655
S1 Y3 3.066376 1_555
S2 Y3 2.753856 1_445
S2 Y0 2.824371 1_556
S2 Y2 2.991985 1_545
S2 Y1 3.066369 1_545
S3 Y3 2.753854 1_555
S3 Y2 2.824366 1_555
S3 Y0 2.991983 1_555
S3 Y1 3.066376 1_545
S4 Y0 2.753856 1_555
S4 Y3 2.824371 1_555
S4 Y1 2.991985 1_555
S4 Y2 3.066369 1_554
S5 Y2 2.753848 1_545
S5 Y1 2.824370 1_545
S5 Y3 2.991984 1_545
S5 Y0 3.066373 1_656
S6 Y1 2.753848 1_545
S6 Y2 2.824370 1_544
S6 Y0 2.991984 1_555
S6 Y3 3.066373 1_555
S7 Y0 2.753854 1_665
S7 Y1 2.824366 1_655
S7 Y3 2.991983 1_554
S7 Y2 3.066376 1_554
