# generated using pymatgen
data_LiNiP2O7
_symmetry_space_group_name_H-M   'P 1'
_cell_length_a   6.47031700
_cell_length_b   9.26768351
_cell_length_c   10.46085266
_cell_angle_alpha   114.61971748
_cell_angle_beta   86.05692498
_cell_angle_gamma   106.76383752
_symmetry_Int_Tables_number   1
_chemical_formula_structural   LiNiP2O7
_chemical_formula_sum   'Li4 Ni4 P8 O28'
_cell_volume   545.07139176
_cell_formula_units_Z   4
loop_
 _symmetry_equiv_pos_site_id
 _symmetry_equiv_pos_as_xyz
  1  'x, y, z'
loop_
 _atom_site_type_symbol
 _atom_site_label
 _atom_site_symmetry_multiplicity
 _atom_site_fract_x
 _atom_site_fract_y
 _atom_site_fract_z
 _atom_site_occupancy
  Li  Li0  1  0.03389200  0.16521900  0.47627300  1
  Li  Li1  1  0.94092400  0.92991900  0.94575100  1
  Li  Li2  1  0.34795900  0.93646400  0.40326000  1
  Li  Li3  1  0.54103300  0.50009700  0.97953800  1
  Ni  Ni0  1  0.63275200  0.48687200  0.25091300  1
  Ni  Ni1  1  0.37008200  0.50306100  0.74176000  1
  Ni  Ni2  1  0.71242000  0.09799700  0.21779200  1
  Ni  Ni3  1  0.28850900  0.89171200  0.76888500  1
  P  P0  1  0.87977800  0.54514100  0.70405800  1
  P  P1  1  0.57793600  0.30054000  0.45955800  1
  P  P2  1  0.42008200  0.68966600  0.53093700  1
  P  P3  1  0.09048800  0.19253200  0.79391000  1
  P  P4  1  0.11427700  0.43282100  0.29653400  1
  P  P5  1  0.69963100  0.18920800  0.94960300  1
  P  P6  1  0.30242800  0.80387800  0.04263800  1
  P  P7  1  0.91871400  0.80857100  0.19814900  1
  O  O0  1  0.37395900  0.32103300  0.53863900  1
  O  O1  1  0.99041300  0.12229000  0.64510900  1
  O  O2  1  0.95634400  0.51060300  0.26574000  1
  O  O3  1  0.77893800  0.45657200  0.54230100  1
  O  O4  1  0.30212300  0.33008400  0.82113800  1
  O  O5  1  0.07302100  0.71190400  0.08600400  1
  O  O6  1  0.57026800  0.29583800  0.30898500  1
  O  O7  1  0.30935600  0.45089000  0.20677900  1
  O  O8  1  0.04615400  0.45846100  0.70767000  1
  O  O9  1  0.92864000  0.27811700  0.90516300  1
  O  O10  1  0.40164500  0.66803800  0.95020100  1
  O  O11  1  0.25468400  0.90293700  0.96712200  1
  O  O12  1  0.74464900  0.08738200  0.02280700  1
  O  O13  1  0.36530500  0.84747500  0.54981000  1
  O  O14  1  0.56223900  0.07428700  0.81325100  1
  O  O15  1  0.98182600  0.72793800  0.73605600  1
  O  O16  1  0.20596400  0.53843600  0.45863900  1
  O  O17  1  0.68599800  0.51880000  0.79245000  1
  O  O18  1  0.71019900  0.67123600  0.18626700  1
  O  O19  1  0.86462800  0.91740300  0.13445200  1
  O  O20  1  0.04068200  0.91340300  0.34104500  1
  O  O21  1  0.61005700  0.33195800  0.04238000  1
  O  O22  1  0.61344600  0.65274900  0.44687500  1
  O  O23  1  0.01033200  0.25934200  0.29056400  1
  O  O24  1  0.43062300  0.91906800  0.18377700  1
  O  O25  1  0.43421900  0.69838600  0.68243700  1
  O  O26  1  0.11152700  0.05412900  0.83175200  1
  O  O27  1  0.63431300  0.13965900  0.43290300  1
loop_
_geom_bond_atom_site_label_1
_geom_bond_atom_site_label_2
_geom_bond_distance
_geom_bond_site_symmetry_2
Li0 O1 1.951753 1_455
Li0 O20 2.179310 1_545
Li0 O0 2.220805 1_555
Li0 O23 2.467283 1_555
Li0 O27 2.581616 1_455
Li1 O19 2.043881 1_556
Li1 O26 2.048282 1_665
Li1 O12 2.083352 1_566
Li1 O11 2.153082 1_655
Li1 O15 2.273892 1_555
Li2 O13 2.042902 1_555
Li2 O20 2.058896 1_555
Li2 O27 2.157556 1_565
Li2 O24 2.270689 1_555
Li3 O21 2.086887 1_556
Li3 O4 2.095181 1_555
Li3 O10 2.139115 1_555
Li3 O17 2.162513 1_555
Li3 O18 2.203775 1_556
Ni0 O22 2.007732 1_555
Ni0 O18 2.012471 1_555
Ni0 O6 2.028887 1_555
Ni0 O21 2.038243 1_555
Ni0 O2 2.051048 1_555
Ni0 O7 2.074818 1_555
Ni1 O4 2.026085 1_555
Ni1 O8 2.042333 1_555
Ni1 O10 2.058463 1_555
Ni1 O25 2.073980 1_555
Ni1 O0 2.095682 1_555
Ni1 O17 2.096028 1_555
Ni2 O12 1.999932 1_555
Ni2 O24 2.013549 1_545
Ni2 O23 2.030202 1_655
Ni2 O19 2.036712 1_545
Ni2 O6 2.124299 1_555
Ni2 O27 2.168026 1_555
Ni3 O14 1.986280 1_565
Ni3 O26 2.018787 1_565
Ni3 O11 2.032250 1_555
Ni3 O15 2.069129 1_455
Ni3 O25 2.103321 1_555
Ni3 O13 2.201138 1_555
O0 P1 1.525062 1_555
O1 P3 1.522235 1_655
O2 P4 1.526864 1_655
O3 P1 1.599620 1_555
O3 P0 1.627385 1_555
O4 P3 1.524946 1_555
O5 P6 1.623369 1_555
O5 P7 1.629384 1_455
O6 P1 1.561308 1_555
O7 P4 1.532609 1_555
O8 P0 1.528187 1_455
O9 P5 1.615792 1_555
O9 P3 1.619451 1_655
O10 P6 1.516112 1_556
O11 P6 1.537429 1_556
O12 P5 1.534002 1_554
O13 P2 1.533749 1_555
O14 P5 1.523676 1_555
O15 P0 1.526653 1_555
O16 P2 1.611377 1_555
O16 P4 1.614325 1_555
O17 P0 1.529282 1_555
O18 P7 1.535034 1_555
O19 P7 1.542535 1_555
O20 P7 1.520229 1_455
O21 P5 1.524208 1_554
O22 P2 1.516770 1_555
O23 P4 1.529527 1_555
O24 P6 1.533594 1_555
O25 P2 1.560613 1_555
O26 P3 1.533521 1_555
O27 P1 1.545069 1_555
