# generated using pymatgen
data_Mn2Nb3ReC
_symmetry_space_group_name_H-M   'P 1'
_cell_length_a   8.28040237
_cell_length_b   8.28040240
_cell_length_c   8.28040185
_cell_angle_alpha   59.99999814
_cell_angle_beta   59.99999802
_cell_angle_gamma   59.99999646
_symmetry_Int_Tables_number   1
_chemical_formula_structural   Mn2Nb3ReC
_chemical_formula_sum   'Mn8 Nb12 Re4 C4'
_cell_volume   401.45722227
_cell_formula_units_Z   4
loop_
 _symmetry_equiv_pos_site_id
 _symmetry_equiv_pos_as_xyz
  1  'x, y, z'
loop_
 _atom_site_type_symbol
 _atom_site_label
 _atom_site_symmetry_multiplicity
 _atom_site_fract_x
 _atom_site_fract_y
 _atom_site_fract_z
 _atom_site_occupancy
  Mn  Mn0  1  0.32892591  0.32892591  0.32892591  1
  Mn  Mn1  1  0.23677672  0.92107409  0.92107409  1
  Mn  Mn2  1  0.92107409  0.23677672  0.92107409  1
  Mn  Mn3  1  0.92107409  0.92107409  0.23677672  1
  Mn  Mn4  1  0.32892591  0.01322328  0.32892591  1
  Mn  Mn5  1  0.32892591  0.32892591  0.01322328  1
  Mn  Mn6  1  0.01322328  0.32892591  0.32892591  1
  Mn  Mn7  1  0.92107409  0.92107409  0.92107409  1
  Nb  Nb0  1  0.69087776  0.30912224  0.69087776  1
  Nb  Nb1  1  0.94087776  0.55912224  0.55912224  1
  Nb  Nb2  1  0.55912224  0.94087776  0.94087776  1
  Nb  Nb3  1  0.94087776  0.55912224  0.94087776  1
  Nb  Nb4  1  0.55912224  0.55912224  0.94087776  1
  Nb  Nb5  1  0.94087776  0.94087776  0.55912224  1
  Nb  Nb6  1  0.69087776  0.69087776  0.30912224  1
  Nb  Nb7  1  0.30912224  0.69087776  0.69087776  1
  Nb  Nb8  1  0.69087776  0.30912224  0.30912224  1
  Nb  Nb9  1  0.30912224  0.30912224  0.69087776  1
  Nb  Nb10  1  0.55912224  0.94087776  0.55912224  1
  Nb  Nb11  1  0.30912224  0.69087776  0.30912224  1
  Re  Re0  1  0.12500000  0.12500000  0.12500000  1
  Re  Re1  1  0.62500000  0.12500000  0.12500000  1
  Re  Re2  1  0.12500000  0.62500000  0.12500000  1
  Re  Re3  1  0.12500000  0.12500000  0.62500000  1
  C  C0  1  0.62500000  0.62500000  0.62500000  1
  C  C1  1  0.12500000  0.62500000  0.62500000  1
  C  C2  1  0.62500000  0.12500000  0.62500000  1
  C  C3  1  0.62500000  0.62500000  0.12500000  1
loop_
_geom_bond_atom_site_label_1
_geom_bond_atom_site_label_2
_geom_bond_distance
_geom_bond_site_symmetry_2
Mn0 Re1 2.506964 1_555
Mn0 Re2 2.506964 1_555
Mn0 Re3 2.506964 1_555
Mn0 Mn5 2.614145 1_555
Mn0 Mn6 2.614145 1_555
Mn0 Mn4 2.614145 1_555
Mn0 Nb9 2.842600 1_555
Mn0 Nb8 2.842600 1_555
Mn0 Nb11 2.842600 1_555
Mn0 Nb1 2.995834 1_455
Mn0 Nb10 2.995834 1_545
Mn0 Nb4 2.995834 1_554
Mn1 Re3 2.506959 1_565
Mn1 Re2 2.506960 1_556
Mn1 Re0 2.506966 1_566
Mn1 Mn3 2.614145 1_456
Mn1 Mn2 2.614145 1_465
Mn1 Mn7 2.614145 1_455
Mn1 Nb10 2.842604 1_555
Mn1 Nb4 2.842604 1_555
Mn1 Nb2 2.842608 1_555
Mn1 Nb7 2.995831 1_555
Mn1 Nb11 2.995838 1_556
Mn1 Nb9 2.995838 1_565
Mn2 Re3 2.506959 1_655
Mn2 Re1 2.506960 1_556
Mn2 Re0 2.506966 1_656
Mn2 Mn3 2.614145 1_546
Mn2 Mn7 2.614145 1_545
Mn2 Nb1 2.842604 1_555
Mn2 Nb4 2.842604 1_555
Mn2 Nb3 2.842608 1_555
Mn2 Nb0 2.995831 1_555
Mn2 Nb8 2.995838 1_556
Mn2 Nb9 2.995838 1_655
Mn3 Re1 2.506960 1_565
Mn3 Re2 2.506960 1_655
Mn3 Re0 2.506967 1_665
Mn3 Mn7 2.614145 1_554
Mn3 Nb10 2.842604 1_555
Mn3 Nb1 2.842604 1_555
Mn3 Nb5 2.842608 1_555
Mn3 Nb6 2.995831 1_555
Mn3 Nb11 2.995838 1_655
Mn3 Nb8 2.995838 1_565
Mn4 Re3 2.506959 1_555
Mn4 Re1 2.506960 1_555
Mn4 Re0 2.506966 1_555
Mn4 Mn5 2.614145 1_555
Mn4 Mn6 2.614145 1_555
Mn4 Nb7 2.842604 1_545
Mn4 Nb6 2.842604 1_545
Mn4 Nb11 2.842608 1_545
Mn4 Nb10 2.995831 1_545
Mn4 Nb2 2.995838 1_544
Mn4 Nb5 2.995838 1_445
Mn5 Re1 2.506960 1_555
Mn5 Re2 2.506960 1_555
Mn5 Re0 2.506967 1_555
Mn5 Mn6 2.614145 1_555
Mn5 Nb0 2.842604 1_554
Mn5 Nb7 2.842604 1_554
Mn5 Nb9 2.842608 1_554
Mn5 Nb4 2.995831 1_554
Mn5 Nb3 2.995838 1_454
Mn5 Nb2 2.995838 1_544
Mn6 Re3 2.506959 1_555
Mn6 Re2 2.506960 1_555
Mn6 Re0 2.506966 1_555
Mn6 Nb0 2.842604 1_455
Mn6 Nb6 2.842604 1_455
Mn6 Nb8 2.842608 1_455
Mn6 Nb1 2.995831 1_455
Mn6 Nb3 2.995838 1_454
Mn6 Nb5 2.995838 1_445
Mn7 Re1 2.506964 1_566
Mn7 Re2 2.506964 1_656
Mn7 Re3 2.506964 1_665
Mn7 Nb5 2.842600 1_555
Mn7 Nb2 2.842600 1_555
Mn7 Nb3 2.842600 1_555
Mn7 Nb7 2.995834 1_655
Mn7 Nb0 2.995834 1_565
Mn7 Nb6 2.995834 1_556
Nb0 Re1 2.989007 1_556
Nb0 Re3 2.989007 1_655
Nb1 Re2 2.989007 1_655
Nb1 Re3 2.989007 1_655
Nb2 Re0 2.989007 1_566
Nb2 Re1 2.989007 1_566
Nb3 Re0 2.989007 1_656
Nb3 Re2 2.989007 1_656
Nb4 Re2 2.989007 1_556
Nb4 Re1 2.989007 1_556
Nb5 Re0 2.989007 1_665
Nb5 Re3 2.989007 1_665
Nb6 Re2 2.989007 1_655
Nb6 Re1 2.989007 1_565
Nb7 Re2 2.989007 1_556
Nb7 Re3 2.989007 1_565
Nb8 Re0 2.989007 1_655
Nb8 Re1 2.989007 1_555
Nb9 Re0 2.989007 1_556
Nb9 Re3 2.989007 1_555
Nb10 Re1 2.989007 1_565
Nb10 Re3 2.989007 1_565
Nb11 Re0 2.989007 1_565
Nb11 Re2 2.989007 1_555
C0 Nb4 2.209173 1_555
C0 Nb6 2.209173 1_555
C0 Nb1 2.209173 1_555
C0 Nb7 2.209173 1_555
C0 Nb10 2.209173 1_555
C0 Nb0 2.209173 1_555
C1 Nb3 2.209173 1_455
C1 Nb11 2.209173 1_555
C1 Nb5 2.209173 1_455
C1 Nb9 2.209173 1_555
C1 Nb7 2.209173 1_555
C1 Nb1 2.209173 1_455
C2 Nb2 2.209173 1_545
C2 Nb8 2.209173 1_555
C2 Nb5 2.209173 1_545
C2 Nb9 2.209173 1_555
C2 Nb0 2.209173 1_555
C2 Nb10 2.209173 1_545
C3 Nb3 2.209173 1_554
C3 Nb11 2.209173 1_555
C3 Nb2 2.209173 1_554
C3 Nb8 2.209173 1_555
C3 Nb6 2.209173 1_555
C3 Nb4 2.209173 1_554
