# generated using pymatgen
data_Ti6GaSiN2
_symmetry_space_group_name_H-M   'P 1'
_cell_length_a   5.46983455
_cell_length_b   5.46983422
_cell_length_c   8.15730564
_cell_angle_alpha   90.00000000
_cell_angle_beta   90.00000000
_cell_angle_gamma   146.96582052
_symmetry_Int_Tables_number   1
_chemical_formula_structural   Ti6GaSiN2
_chemical_formula_sum   'Ti6 Ga1 Si1 N2'
_cell_volume   133.04621846
_cell_formula_units_Z   1
loop_
 _symmetry_equiv_pos_site_id
 _symmetry_equiv_pos_as_xyz
  1  'x, y, z'
loop_
 _atom_site_type_symbol
 _atom_site_label
 _atom_site_symmetry_multiplicity
 _atom_site_fract_x
 _atom_site_fract_y
 _atom_site_fract_z
 _atom_site_occupancy
  Ti  Ti0  1  0.62931830  0.37068170  0.54965011  1
  Ti  Ti1  1  0.37279681  0.62720319  0.04059035  1
  Ti  Ti2  1  0.37279681  0.62720319  0.45940965  1
  Ti  Ti3  1  0.62931830  0.37068170  0.95034989  1
  Ti  Ti4  1  0.94990182  0.05009818  0.75000000  1
  Ti  Ti5  1  0.04404239  0.95595761  0.25000000  1
  Ga  Ga0  1  0.74696502  0.25303498  0.25000000  1
  Si  Si0  1  0.25410307  0.74589693  0.75000000  1
  N  N0  1  0.00037824  0.99962176  0.50080501  1
  N  N1  1  0.00037824  0.99962176  0.99919499  1
loop_
_geom_bond_atom_site_label_1
_geom_bond_atom_site_label_2
_geom_bond_distance
_geom_bond_site_symmetry_2
Ga0 Ti5 2.635896 1_655
Ga0 Ti5 2.635896 1_545
Ga0 Ti2 2.660458 1_545
Ga0 Ti1 2.660458 1_545
Ga0 Ti2 2.660459 1_655
Ga0 Ti1 2.660459 1_655
Ga0 Ti0 2.738122 1_555
Ga0 Ti3 2.738122 1_554
Si0 Ti4 2.575944 1_455
Si0 Ti4 2.575944 1_565
Si0 Ti3 2.608093 1_565
Si0 Ti0 2.608093 1_565
Si0 Ti3 2.608093 1_455
Si0 Ti0 2.608093 1_455
Si0 Ti1 2.677444 1_556
Si0 Ti2 2.677444 1_555
N0 Ti2 2.079141 1_565
N0 Ti2 2.079141 1_455
N0 Ti5 2.096522 1_555
N0 Ti0 2.099023 1_455
N0 Ti0 2.099023 1_565
N0 Ti4 2.100568 1_465
N1 Ti1 2.079141 1_566
N1 Ti1 2.079141 1_456
N1 Ti5 2.096522 1_556
N1 Ti3 2.099023 1_455
N1 Ti3 2.099023 1_565
N1 Ti4 2.100568 1_465
