# generated using pymatgen
data_Nb4VGeB2
_symmetry_space_group_name_H-M   'P 1'
_cell_length_a   7.29425080
_cell_length_b   7.29425082
_cell_length_c   7.29326826
_cell_angle_alpha   129.92596898
_cell_angle_beta   129.92596528
_cell_angle_gamma   73.50238966
_symmetry_Int_Tables_number   1
_chemical_formula_structural   Nb4VGeB2
_chemical_formula_sum   'Nb8 V2 Ge2 B4'
_cell_volume   222.74385396
_cell_formula_units_Z   2
loop_
 _symmetry_equiv_pos_site_id
 _symmetry_equiv_pos_as_xyz
  1  'x, y, z'
loop_
 _atom_site_type_symbol
 _atom_site_label
 _atom_site_symmetry_multiplicity
 _atom_site_fract_x
 _atom_site_fract_y
 _atom_site_fract_z
 _atom_site_occupancy
  Nb  Nb0  1  0.53558623  0.69608682  0.49989419  1
  Nb  Nb1  1  0.19608682  0.03558623  0.49989419  1
  Nb  Nb2  1  0.03559741  0.53559741  0.83937918  1
  Nb  Nb3  1  0.69623306  0.19623306  0.16068951  1
  Nb  Nb4  1  0.46441377  0.30391318  0.50010581  1
  Nb  Nb5  1  0.80391318  0.96441377  0.50010581  1
  Nb  Nb6  1  0.96440259  0.46440259  0.16062082  1
  Nb  Nb7  1  0.30376694  0.80376694  0.83931049  1
  V  V0  1  0.50000000  0.50000000  0.00000000  1
  V  V1  1  0.00000000  0.00000000  0.00000000  1
  Ge  Ge0  1  0.24997725  0.25002275  0.00000000  1
  Ge  Ge1  1  0.75002275  0.74997725  1.00000000  1
  B  B0  1  0.88072801  0.61927199  0.50000000  1
  B  B1  1  0.11927199  0.38072801  0.50000000  1
  B  B2  1  0.38052205  0.88052205  0.26113376  1
  B  B3  1  0.61947795  0.11947795  0.73886624  1
loop_
_geom_bond_atom_site_label_1
_geom_bond_atom_site_label_2
_geom_bond_distance
_geom_bond_site_symmetry_2
Ge0 Nb6 2.662245 1_455
Ge0 Nb2 2.662245 1_554
Ge0 Nb1 2.662793 1_554
Ge0 Nb4 2.662793 1_555
Ge0 Nb7 2.662946 1_544
Ge0 Nb3 2.662946 1_555
Ge0 Nb0 2.663213 1_555
Ge0 Nb5 2.663213 1_444
Ge0 V0 2.922228 1_555
Ge0 V1 2.922228 1_555
Ge1 Nb2 2.662245 1_655
Ge1 Nb6 2.662245 1_556
Ge1 Nb5 2.662793 1_556
Ge1 Nb0 2.662793 1_555
Ge1 Nb3 2.662946 1_566
Ge1 Nb7 2.662946 1_555
Ge1 Nb4 2.663213 1_555
Ge1 Nb1 2.663213 1_666
Ge1 V0 2.922228 1_556
Ge1 V1 2.922228 1_666
B0 B1 2.082227 1_655
B0 Nb6 2.394506 1_555
B0 Nb2 2.394506 1_655
B0 Nb3 2.395590 1_555
B0 Nb7 2.395590 1_655
B0 Nb0 2.418453 1_555
B0 Nb5 2.418453 1_555
B0 V1 2.463337 1_666
B0 V0 2.463337 1_555
B1 Nb2 2.394506 1_555
B1 Nb6 2.394506 1_455
B1 Nb7 2.395590 1_555
B1 Nb3 2.395590 1_455
B1 Nb4 2.418453 1_555
B1 Nb1 2.418453 1_555
B1 V1 2.463337 1_555
B1 V0 2.463337 1_556
B2 B3 2.085869 1_565
B2 Nb1 2.395022 1_565
B2 Nb0 2.395022 1_555
B2 Nb4 2.396897 1_565
B2 Nb5 2.396898 1_555
B2 Nb7 2.418225 1_554
B2 Nb2 2.418548 1_554
B2 V0 2.462127 1_555
B2 V1 2.462127 1_565
B3 Nb5 2.395022 1_545
B3 Nb4 2.395022 1_555
B3 Nb0 2.396897 1_545
B3 Nb1 2.396898 1_555
B3 Nb3 2.418225 1_556
B3 Nb6 2.418548 1_556
B3 V0 2.462127 1_556
B3 V1 2.462127 1_656
