# generated using pymatgen
data_Cs2Mg3ZrAs4
_symmetry_space_group_name_H-M   'P 1'
_cell_length_a   8.21588632
_cell_length_b   8.21588541
_cell_length_c   6.37264494
_cell_angle_alpha   90.00000000
_cell_angle_beta   90.00000000
_cell_angle_gamma   134.35953579
_symmetry_Int_Tables_number   1
_chemical_formula_structural   Cs2Mg3ZrAs4
_chemical_formula_sum   'Cs2 Mg3 Zr1 As4'
_cell_volume   307.54897730
_cell_formula_units_Z   1
loop_
 _symmetry_equiv_pos_site_id
 _symmetry_equiv_pos_as_xyz
  1  'x, y, z'
loop_
 _atom_site_type_symbol
 _atom_site_label
 _atom_site_symmetry_multiplicity
 _atom_site_fract_x
 _atom_site_fract_y
 _atom_site_fract_z
 _atom_site_occupancy
  Cs  Cs0  1  0.50000000  0.00000000  0.25594118  1
  Cs  Cs1  1  0.00000000  0.50000000  0.74405882  1
  Mg  Mg0  1  0.50000000  0.50000000  0.50000000  1
  Mg  Mg1  1  0.50000000  0.50000000  0.00000000  1
  Mg  Mg2  1  0.00000000  0.00000000  0.50000000  1
  Zr  Zr0  1  0.00000000  0.00000000  0.00000000  1
  As  As0  1  0.66148032  0.85094630  0.75662898  1
  As  As1  1  0.14905370  0.33851968  0.24337102  1
  As  As2  1  0.85094630  0.66148032  0.24337102  1
  As  As3  1  0.33851968  0.14905370  0.75662898  1
loop_
_geom_bond_atom_site_label_1
_geom_bond_atom_site_label_2
_geom_bond_distance
_geom_bond_site_symmetry_2
As0 Zr0 2.622543 1_666
As0 Mg1 2.670221 1_556
As0 Mg2 2.673376 1_665
As0 Mg0 2.720163 1_555
As0 Cs1 3.929278 1_665
As0 Cs0 3.956815 1_566
As0 Cs0 3.963868 1_565
As0 Cs1 3.992985 1_555
As1 Zr0 2.622543 1_555
As1 Mg1 2.670221 1_555
As1 Mg2 2.673376 1_555
As1 Mg0 2.720163 1_555
As1 Cs0 3.929279 1_455
As1 Cs1 3.956815 1_554
As1 Cs1 3.963868 1_555
As1 Cs0 3.992984 1_565
As2 Zr0 2.622543 1_665
As2 Mg1 2.670221 1_555
As2 Mg2 2.673376 1_665
As2 Mg0 2.720163 1_555
As2 Cs0 3.929279 1_665
As2 Cs1 3.956815 1_654
As2 Cs1 3.963868 1_655
As2 Cs0 3.992984 1_555
As3 Zr0 2.622543 1_556
As3 Mg1 2.670221 1_556
As3 Mg2 2.673376 1_555
As3 Mg0 2.720163 1_555
As3 Cs1 3.929278 1_545
As3 Cs0 3.956815 1_556
As3 Cs0 3.963868 1_555
As3 Cs1 3.992985 1_655
