# generated using pymatgen
data_Nb2Ir2SeS7
_symmetry_space_group_name_H-M   'P 1'
_cell_length_a   3.51123428
_cell_length_b   11.39938676
_cell_length_c   12.37631288
_cell_angle_alpha   90.00000000
_cell_angle_beta   90.00000000
_cell_angle_gamma   90.00000000
_symmetry_Int_Tables_number   1
_chemical_formula_structural   Nb2Ir2SeS7
_chemical_formula_sum   'Nb4 Ir4 Se2 S14'
_cell_volume   495.37327946
_cell_formula_units_Z   2
loop_
 _symmetry_equiv_pos_site_id
 _symmetry_equiv_pos_as_xyz
  1  'x, y, z'
loop_
 _atom_site_type_symbol
 _atom_site_label
 _atom_site_symmetry_multiplicity
 _atom_site_fract_x
 _atom_site_fract_y
 _atom_site_fract_z
 _atom_site_occupancy
  Nb  Nb0  1  0.00000000  0.04497065  0.99831527  1
  Nb  Nb1  1  0.50000000  0.95502935  0.49831527  1
  Nb  Nb2  1  0.00000000  0.26262919  0.49405114  1
  Nb  Nb3  1  0.50000000  0.73737081  0.99405114  1
  Ir  Ir0  1  0.00000000  0.52756507  0.99884612  1
  Ir  Ir1  1  0.50000000  0.47243493  0.49884612  1
  Ir  Ir2  1  0.00000000  0.74789837  0.49231066  1
  Ir  Ir3  1  0.50000000  0.25210163  0.99231066  1
  Se  Se0  1  0.00000000  0.41585709  0.63603811  1
  Se  Se1  1  0.50000000  0.58414291  0.13603811  1
  S  S0  1  0.50000000  0.10209265  0.12744183  1
  S  S1  1  0.00000000  0.89790735  0.62744183  1
  S  S2  1  0.50000000  0.15498629  0.60117714  1
  S  S3  1  0.00000000  0.84501371  0.10117714  1
  S  S4  1  0.50000000  0.32076388  0.36533364  1
  S  S5  1  0.00000000  0.67923612  0.86533364  1
  S  S6  1  0.50000000  0.43622590  0.89869324  1
  S  S7  1  0.00000000  0.56377410  0.39869324  1
  S  S8  1  0.00000000  0.06249030  0.39116938  1
  S  S9  1  0.50000000  0.93750970  0.89116938  1
  S  S10  1  0.00000000  0.19508993  0.86795111  1
  S  S11  1  0.50000000  0.80491007  0.36795111  1
  S  S12  1  0.00000000  0.34346586  0.09173135  1
  S  S13  1  0.50000000  0.65653414  0.59173135  1
loop_
_geom_bond_atom_site_label_1
_geom_bond_atom_site_label_2
_geom_bond_distance
_geom_bond_site_symmetry_2
Nb0 S10 2.351932 1_555
Nb0 S0 2.461738 1_556
Nb0 S0 2.461738 1_456
Nb0 S9 2.518185 1_445
Nb0 S9 2.518185 1_545
Nb0 S3 2.610797 1_546
Nb1 S11 2.351932 1_555
Nb1 S1 2.461738 1_555
Nb1 S1 2.461738 1_655
Nb1 S8 2.518185 1_565
Nb1 S8 2.518185 1_665
Nb1 S2 2.610797 1_565
Nb2 S4 2.461537 1_455
Nb2 S4 2.461537 1_555
Nb2 Se0 2.477699 1_555
Nb2 S2 2.519065 1_455
Nb2 S2 2.519065 1_555
Nb2 S8 2.612728 1_555
Nb3 S5 2.461537 1_555
Nb3 S5 2.461537 1_655
Nb3 Se1 2.477699 1_556
Nb3 S3 2.519065 1_656
Nb3 S3 2.519065 1_556
Nb3 S9 2.612728 1_555
Ir0 S6 2.388039 1_555
Ir0 S6 2.388039 1_455
Ir0 S5 2.391588 1_555
Ir0 S12 2.392849 1_556
Ir0 Se1 2.526089 1_556
Ir0 Se1 2.526089 1_456
Ir1 S7 2.388039 1_555
Ir1 S7 2.388039 1_655
Ir1 S4 2.391588 1_555
Ir1 S13 2.392849 1_555
Ir1 Se0 2.526089 1_555
Ir1 Se0 2.526089 1_655
Ir2 S13 2.383473 1_555
Ir2 S13 2.383473 1_455
Ir2 S1 2.391891 1_555
Ir2 S7 2.397465 1_555
Ir2 S11 2.423516 1_455
Ir2 S11 2.423516 1_555
Ir3 S12 2.383473 1_556
Ir3 S12 2.383473 1_656
Ir3 S0 2.391891 1_556
Ir3 S6 2.397465 1_555
Ir3 S10 2.423516 1_555
Ir3 S10 2.423516 1_655
