# generated using pymatgen
data_Cd2IrRhO7
_symmetry_space_group_name_H-M   'P 1'
_cell_length_a   7.15417694
_cell_length_b   7.12966935
_cell_length_c   7.15417725
_cell_angle_alpha   60.11325568
_cell_angle_beta   60.38483675
_cell_angle_gamma   60.11326234
_symmetry_Int_Tables_number   1
_chemical_formula_structural   Cd2IrRhO7
_chemical_formula_sum   'Cd4 Ir2 Rh2 O14'
_cell_volume   259.21889859
_cell_formula_units_Z   2
loop_
 _symmetry_equiv_pos_site_id
 _symmetry_equiv_pos_as_xyz
  1  'x, y, z'
loop_
 _atom_site_type_symbol
 _atom_site_label
 _atom_site_symmetry_multiplicity
 _atom_site_fract_x
 _atom_site_fract_y
 _atom_site_fract_z
 _atom_site_occupancy
  Cd  Cd0  1  0.62500000  0.12500000  0.12500000  1
  Cd  Cd1  1  0.12500000  0.62500000  0.12500000  1
  Cd  Cd2  1  0.12500000  0.12500000  0.62500000  1
  Cd  Cd3  1  0.12500000  0.12500000  0.12500000  1
  Ir  Ir0  1  0.12500000  0.62500000  0.62500000  1
  Ir  Ir1  1  0.62500000  0.62500000  0.12500000  1
  Rh  Rh0  1  0.62500000  0.12500000  0.62500000  1
  Rh  Rh1  1  0.62500000  0.62500000  0.62500000  1
  O  O0  1  0.70359787  0.69633513  0.29812089  1
  O  O1  1  0.29812089  0.30194610  0.70359787  1
  O  O2  1  0.70274261  0.29725739  0.70274261  1
  O  O3  1  0.30131195  0.69868805  0.30131195  1
  O  O4  1  0.29812089  0.69633513  0.70359787  1
  O  O5  1  0.70359787  0.30194610  0.29812089  1
  O  O6  1  0.54640213  0.55366487  0.95187911  1
  O  O7  1  0.95187911  0.94805390  0.54640213  1
  O  O8  1  0.54725739  0.95274261  0.54725739  1
  O  O9  1  0.94868805  0.55131195  0.94868805  1
  O  O10  1  0.95187911  0.55366487  0.54640213  1
  O  O11  1  0.54640213  0.94805390  0.95187911  1
  O  O12  1  0.25011233  0.24988767  0.25011233  1
  O  O13  1  0.99988767  0.00011233  0.99988767  1
loop_
_geom_bond_atom_site_label_1
_geom_bond_atom_site_label_2
_geom_bond_distance
_geom_bond_site_symmetry_2
Cd0 O13 2.197477 1_554
Cd0 O12 2.197477 1_555
Cd0 O8 2.503255 1_545
Cd0 O2 2.503255 1_554
Cd0 O5 2.528661 1_555
Cd0 O11 2.528661 1_544
Cd0 O6 2.528661 1_554
Cd0 O0 2.528661 1_545
Cd1 O13 2.185286 1_464
Cd1 O12 2.185286 1_555
Cd1 O6 2.508162 1_554
Cd1 O0 2.508162 1_455
Cd1 O10 2.508162 1_455
Cd1 O4 2.508162 1_554
Cd1 O3 2.520207 1_555
Cd1 O9 2.520207 1_454
Cd2 O13 2.197477 1_455
Cd2 O12 2.197477 1_555
Cd2 O8 2.503255 1_545
Cd2 O2 2.503255 1_455
Cd2 O1 2.528661 1_555
Cd2 O7 2.528661 1_445
Cd2 O10 2.528661 1_455
Cd2 O4 2.528661 1_545
Cd3 O12 2.185286 1_555
Cd3 O13 2.185286 1_454
Cd3 O7 2.508162 1_445
Cd3 O1 2.508162 1_554
Cd3 O11 2.508162 1_544
Cd3 O5 2.508162 1_455
Cd3 O9 2.520207 1_454
Cd3 O3 2.520207 1_545
Ir0 O4 1.926112 1_555
Ir0 O10 1.926112 1_455
Ir0 O7 1.926112 1_455
Ir0 O1 1.926112 1_555
Ir0 O9 1.946964 1_455
Ir0 O3 1.946964 1_555
Ir1 O0 1.926112 1_555
Ir1 O6 1.926112 1_554
Ir1 O5 1.926112 1_555
Ir1 O11 1.926112 1_554
Ir1 O9 1.946964 1_554
Ir1 O3 1.946964 1_555
O0 Rh1 1.960543 1_555
O1 Rh0 1.960544 1_555
O2 Rh0 1.947872 1_555
O2 Rh1 1.947872 1_555
O4 Rh1 1.960543 1_555
O5 Rh0 1.960543 1_555
O6 Rh1 1.960543 1_555
O7 Rh0 1.960544 1_565
O8 Rh0 1.947872 1_565
O8 Rh1 1.947872 1_555
O10 Rh1 1.960543 1_555
O11 Rh0 1.960543 1_565
