# generated using pymatgen
data_Fe5Ge(Mo3N)2
_symmetry_space_group_name_H-M   'P 1'
_cell_length_a   7.84158509
_cell_length_b   7.89023684
_cell_length_c   7.89023536
_cell_angle_alpha   60.41520947
_cell_angle_beta   60.20376635
_cell_angle_gamma   60.20376497
_symmetry_Int_Tables_number   1
_chemical_formula_structural   Fe5Ge(Mo3N)2
_chemical_formula_sum   'Fe10 Ge2 Mo12 N4'
_cell_volume   347.33799021
_cell_formula_units_Z   2
loop_
 _symmetry_equiv_pos_site_id
 _symmetry_equiv_pos_as_xyz
  1  'x, y, z'
loop_
 _atom_site_type_symbol
 _atom_site_label
 _atom_site_symmetry_multiplicity
 _atom_site_fract_x
 _atom_site_fract_y
 _atom_site_fract_z
 _atom_site_occupancy
  Fe  Fe0  1  0.12500000  0.62500000  0.62500000  1
  Fe  Fe1  1  0.62500000  0.62500000  0.62500000  1
  Fe  Fe2  1  0.74473290  0.42105071  0.42105071  1
  Fe  Fe3  1  0.41561535  0.74600765  0.42276166  1
  Fe  Fe4  1  0.41561535  0.42276166  0.74600765  1
  Fe  Fe5  1  0.41316468  0.42105071  0.42105071  1
  Fe  Fe6  1  0.50526710  0.82894929  0.82894929  1
  Fe  Fe7  1  0.83438465  0.50399235  0.82723834  1
  Fe  Fe8  1  0.83438465  0.82723834  0.50399235  1
  Fe  Fe9  1  0.83683532  0.82894929  0.82894929  1
  Ge  Ge0  1  0.62500000  0.12500000  0.62500000  1
  Ge  Ge1  1  0.62500000  0.62500000  0.12500000  1
  Mo  Mo0  1  0.80675881  0.80771437  0.19383382  1
  Mo  Mo1  1  0.19169300  0.19383382  0.80771437  1
  Mo  Mo2  1  0.80675881  0.19383382  0.80771437  1
  Mo  Mo3  1  0.19169300  0.80771437  0.19383382  1
  Mo  Mo4  1  0.19194753  0.80805247  0.80805247  1
  Mo  Mo5  1  0.80486919  0.19513081  0.19513081  1
  Mo  Mo6  1  0.44324119  0.44228563  0.05616618  1
  Mo  Mo7  1  0.05830700  0.05616618  0.44228563  1
  Mo  Mo8  1  0.44324119  0.05616618  0.44228563  1
  Mo  Mo9  1  0.05830700  0.44228563  0.05616618  1
  Mo  Mo10  1  0.05805247  0.44194753  0.44194753  1
  Mo  Mo11  1  0.44513081  0.05486919  0.05486919  1
  N  N0  1  0.62500000  0.12500000  0.12500000  1
  N  N1  1  0.12500000  0.62500000  0.12500000  1
  N  N2  1  0.12500000  0.12500000  0.62500000  1
  N  N3  1  0.12500000  0.12500000  0.12500000  1
loop_
_geom_bond_atom_site_label_1
_geom_bond_atom_site_label_2
_geom_bond_distance
_geom_bond_site_symmetry_2
Fe0 Fe9 2.369488 1_455
Fe0 Fe5 2.369488 1_555
Fe0 Fe4 2.386466 1_555
Fe0 Fe8 2.386466 1_455
Fe0 Fe3 2.386466 1_555
Fe0 Fe7 2.386466 1_455
Fe0 Mo4 2.831029 1_555
Fe0 Mo10 2.831029 1_555
Fe0 Mo9 2.839679 1_556
Fe0 Mo3 2.839679 1_555
Fe0 Mo7 2.839679 1_565
Fe0 Mo1 2.839679 1_555
Fe1 Fe6 2.369490 1_555
Fe1 Fe2 2.369490 1_555
Fe1 Fe7 2.386466 1_555
Fe1 Fe3 2.386466 1_555
Fe1 Fe8 2.386466 1_555
Fe1 Fe4 2.386466 1_555
Fe1 Mo4 2.831029 1_555
Fe1 Mo10 2.831029 1_655
Fe1 Mo6 2.839679 1_556
Fe1 Mo0 2.839679 1_555
Fe1 Mo2 2.839679 1_555
Fe1 Mo8 2.839679 1_565
Fe2 Ge1 2.427747 1_555
Fe2 Ge0 2.427747 1_555
Fe2 Fe4 2.580303 1_555
Fe2 Fe3 2.580303 1_555
Fe2 Fe5 2.600020 1_555
Fe2 Mo10 2.631137 1_655
Fe2 Mo9 2.694557 1_655
Fe2 Mo7 2.694558 1_655
Fe2 Mo2 2.822378 1_555
Fe2 Mo0 2.822379 1_555
Fe2 Mo5 2.836224 1_555
Fe3 Ge1 2.439349 1_555
Fe3 Fe4 2.566477 1_555
Fe3 Fe5 2.580307 1_555
Fe3 Mo8 2.644212 1_565
Fe3 Mo7 2.644212 1_565
Fe3 Mo11 2.706722 1_565
Fe3 Mo4 2.806207 1_555
Fe3 Mo3 2.831440 1_555
Fe3 Mo0 2.831440 1_555
Fe4 Ge0 2.439349 1_555
Fe4 Fe5 2.580307 1_555
Fe4 Mo6 2.644211 1_556
Fe4 Mo9 2.644212 1_556
Fe4 Mo11 2.706722 1_556
Fe4 Mo4 2.806207 1_555
Fe4 Mo2 2.831440 1_555
Fe4 Mo1 2.831440 1_555
Fe5 Ge0 2.427751 1_555
Fe5 Ge1 2.427751 1_555
Fe5 Mo10 2.631130 1_555
Fe5 Mo6 2.694554 1_555
Fe5 Mo8 2.694554 1_555
Fe5 Mo1 2.822375 1_555
Fe5 Mo3 2.822375 1_555
Fe5 Mo5 2.836227 1_555
Fe6 Ge1 2.427747 1_556
Fe6 Ge0 2.427747 1_565
Fe6 Fe8 2.580303 1_555
Fe6 Fe7 2.580303 1_555
Fe6 Fe9 2.600020 1_555
Fe6 Mo4 2.631137 1_555
Fe6 Mo3 2.694557 1_556
Fe6 Mo1 2.694558 1_565
Fe6 Mo8 2.822378 1_565
Fe6 Mo6 2.822379 1_556
Fe6 Mo11 2.836224 1_566
Fe7 Ge1 2.439349 1_556
Fe7 Fe8 2.566477 1_555
Fe7 Fe9 2.580307 1_555
Fe7 Mo2 2.644212 1_555
Fe7 Mo1 2.644212 1_655
Fe7 Mo5 2.706722 1_556
Fe7 Mo10 2.806207 1_655
Fe7 Mo9 2.831440 1_656
Fe7 Mo6 2.831440 1_556
Fe8 Ge0 2.439349 1_565
Fe8 Fe9 2.580307 1_555
Fe8 Mo0 2.644211 1_555
Fe8 Mo3 2.644212 1_655
Fe8 Mo5 2.706722 1_565
Fe8 Mo10 2.806207 1_655
Fe8 Mo8 2.831440 1_565
Fe8 Mo7 2.831440 1_665
Fe9 Ge0 2.427751 1_565
Fe9 Ge1 2.427751 1_556
Fe9 Mo4 2.631130 1_655
Fe9 Mo0 2.694554 1_556
Fe9 Mo2 2.694554 1_565
Fe9 Mo7 2.822375 1_665
Fe9 Mo9 2.822375 1_656
Fe9 Mo11 2.836227 1_566
Ge0 Mo11 2.822707 1_556
Ge0 Mo5 2.822707 1_555
Ge0 Mo2 2.826539 1_555
Ge0 Mo8 2.826539 1_555
Ge0 Mo7 2.826539 1_655
Ge0 Mo1 2.826539 1_555
Ge1 Mo11 2.822707 1_565
Ge1 Mo5 2.822707 1_555
Ge1 Mo0 2.826539 1_555
Ge1 Mo6 2.826539 1_555
Ge1 Mo9 2.826539 1_655
Ge1 Mo3 2.826539 1_555
Mo0 N1 2.109881 1_655
Mo0 N0 2.115260 1_565
Mo1 N2 2.109881 1_555
Mo1 N3 2.115260 1_556
Mo2 N2 2.109881 1_655
Mo2 N0 2.115260 1_556
Mo3 N1 2.109881 1_555
Mo3 N3 2.115260 1_565
Mo4 N1 2.120827 1_556
Mo4 N2 2.120827 1_565
Mo5 N0 2.110795 1_555
Mo5 N3 2.110795 1_655
Mo6 N1 2.109881 1_555
Mo6 N0 2.115260 1_555
Mo7 N2 2.109881 1_555
Mo7 N3 2.115260 1_555
Mo8 N2 2.109881 1_555
Mo8 N0 2.115260 1_555
Mo9 N1 2.109881 1_555
Mo9 N3 2.115260 1_555
Mo10 N1 2.120827 1_555
Mo10 N2 2.120827 1_555
Mo11 N0 2.110795 1_555
Mo11 N3 2.110795 1_555
