# generated using pymatgen
data_TiAlTcPt
_symmetry_space_group_name_H-M   'P 1'
_cell_length_a   4.33540287
_cell_length_b   4.33540234
_cell_length_c   4.33540266
_cell_angle_alpha   59.99999759
_cell_angle_beta   60.00000160
_cell_angle_gamma   60.00000138
_symmetry_Int_Tables_number   1
_chemical_formula_structural   TiAlTcPt
_chemical_formula_sum   'Ti1 Al1 Tc1 Pt1'
_cell_volume   57.62000763
_cell_formula_units_Z   1
loop_
 _symmetry_equiv_pos_site_id
 _symmetry_equiv_pos_as_xyz
  1  'x, y, z'
loop_
 _atom_site_type_symbol
 _atom_site_label
 _atom_site_symmetry_multiplicity
 _atom_site_fract_x
 _atom_site_fract_y
 _atom_site_fract_z
 _atom_site_occupancy
  Ti  Ti0  1  0.75000000  0.75000000  0.75000000  1
  Al  Al0  1  0.25000000  0.25000000  0.25000000  1
  Tc  Tc0  1  0.00000000  0.00000000  0.00000000  1
  Pt  Pt0  1  0.50000000  0.50000000  0.50000000  1
loop_
_geom_bond_atom_site_label_1
_geom_bond_atom_site_label_2
_geom_bond_distance
_geom_bond_site_symmetry_2
Al0 Tc0 2.654881 1_565
Al0 Pt0 2.654881 1_545
Al0 Tc0 2.654881 1_556
Al0 Tc0 2.654881 1_555
Al0 Pt0 2.654881 1_554
Al0 Pt0 2.654881 1_555
Al0 Tc0 2.654881 1_655
Al0 Pt0 2.654881 1_455
Tc0 Ti0 2.654881 1_454
Tc0 Ti0 2.654881 1_444
Tc0 Ti0 2.654881 1_445
Tc0 Ti0 2.654881 1_544
Pt0 Ti0 2.654881 1_545
Pt0 Ti0 2.654881 1_555
Pt0 Ti0 2.654881 1_554
Pt0 Ti0 2.654881 1_455
