# generated using pymatgen
data_Sc4As6Ir4Ru3
_symmetry_space_group_name_H-M   'P 1'
_cell_length_a   7.04936839
_cell_length_b   7.05387010
_cell_length_c   7.05387057
_cell_angle_alpha   109.42465398
_cell_angle_beta   109.50746989
_cell_angle_gamma   109.50746294
_symmetry_Int_Tables_number   1
_chemical_formula_structural   Sc4As6Ir4Ru3
_chemical_formula_sum   'Sc4 As6 Ir4 Ru3'
_cell_volume   269.92555579
_cell_formula_units_Z   1
loop_
 _symmetry_equiv_pos_site_id
 _symmetry_equiv_pos_as_xyz
  1  'x, y, z'
loop_
 _atom_site_type_symbol
 _atom_site_label
 _atom_site_symmetry_multiplicity
 _atom_site_fract_x
 _atom_site_fract_y
 _atom_site_fract_z
 _atom_site_occupancy
  Sc  Sc0  1  0.00000000  0.00159213  0.50054753  1
  Sc  Sc1  1  0.50000000  0.99950265  0.00049735  1
  Sc  Sc2  1  0.00000000  0.49945247  0.99840787  1
  Sc  Sc3  1  0.50000000  0.49950265  0.50049735  1
  As  As0  1  0.68345998  0.68635789  0.99710209  1
  As  As1  1  0.31024940  0.31346576  0.99678364  1
  As  As2  1  0.00000000  0.68176634  0.68807064  1
  As  As3  1  0.00000000  0.31192936  0.31823366  1
  As  As4  1  0.68975060  0.00321636  0.68653424  1
  As  As5  1  0.31654002  0.00289791  0.31364211  1
  Ir  Ir0  1  0.50000000  0.25044424  0.74955576  1
  Ir  Ir1  1  0.50000000  0.75044424  0.24955576  1
  Ir  Ir2  1  0.74917914  0.49956391  0.24961523  1
  Ir  Ir3  1  0.25082086  0.75038477  0.50043609  1
  Ru  Ru0  1  0.00000000  0.99977121  0.00022879  1
  Ru  Ru1  1  0.25073734  0.50022374  0.75051460  1
  Ru  Ru2  1  0.74926266  0.24948540  0.49977626  1
loop_
_geom_bond_atom_site_label_1
_geom_bond_atom_site_label_2
_geom_bond_distance
_geom_bond_site_symmetry_2
As0 Ru1 2.513365 1_555
As0 Ir0 2.537952 1_555
As0 Ir1 2.537952 1_556
As0 Ru0 2.550932 1_656
As0 Ir2 2.557538 1_556
As0 Sc1 2.906144 1_556
As0 Sc3 2.906144 1_555
As0 Sc0 2.945604 1_666
As0 Sc2 2.945604 1_655
As1 Ru1 2.516677 1_555
As1 Ir1 2.543125 1_556
As1 Ir0 2.543126 1_555
As1 Ru0 2.553299 1_546
As1 Ir2 2.553920 1_556
As1 Sc0 2.903020 1_555
As1 Sc2 2.903020 1_555
As1 Sc3 2.947583 1_556
As1 Sc1 2.947583 1_546
As2 Ru1 2.514952 1_555
As2 Ru2 2.514957 1_455
As2 Ir2 2.555349 1_455
As2 Ir3 2.555350 1_555
As2 Ru0 2.568068 1_556
As2 Sc2 2.884162 1_555
As2 Sc1 2.924802 1_556
As2 Sc3 2.924802 1_455
As2 Sc0 2.970548 1_565
As3 Ru2 2.514952 1_455
As3 Ru1 2.514957 1_555
As3 Ir3 2.555349 1_555
As3 Ir2 2.555349 1_455
As3 Ru0 2.568068 1_545
As3 Sc0 2.884162 1_555
As3 Sc1 2.924802 1_445
As3 Sc3 2.924802 1_555
As3 Sc2 2.970548 1_554
As4 Ru2 2.516677 1_555
As4 Ir1 2.543125 1_545
As4 Ir0 2.543126 1_555
As4 Ru0 2.553299 1_646
As4 Ir3 2.553920 1_545
As4 Sc2 2.903020 1_655
As4 Sc0 2.903020 1_655
As4 Sc3 2.947583 1_545
As4 Sc1 2.947584 1_546
As5 Ru2 2.513365 1_555
As5 Ir0 2.537952 1_555
As5 Ir1 2.537952 1_545
As5 Ru0 2.550932 1_545
As5 Ir3 2.557538 1_545
As5 Sc3 2.906144 1_555
As5 Sc1 2.906144 1_545
As5 Sc2 2.945604 1_544
As5 Sc0 2.945605 1_555
Ir0 Sc3 2.868060 1_555
Ir0 Sc0 2.876158 1_555
Ir0 Sc2 2.876158 1_655
Ir0 Sc1 2.889746 1_546
Ir1 Sc1 2.868060 1_555
Ir1 Sc2 2.876158 1_554
Ir1 Sc0 2.876158 1_665
Ir1 Sc3 2.889746 1_555
Ir2 Sc1 2.879821 1_545
Ir2 Sc3 2.879822 1_555
Ir2 Sc0 2.891137 1_665
Ir2 Sc2 2.891138 1_654
Ir3 Sc1 2.879821 1_556
Ir3 Sc3 2.879821 1_555
Ir3 Sc2 2.891137 1_554
Ir3 Sc0 2.891137 1_565
Ru1 Sc2 2.871573 1_555
Ru1 Sc0 2.871579 1_555
Ru1 Sc1 2.875311 1_556
Ru1 Sc3 2.875317 1_555
Ru2 Sc0 2.871573 1_655
Ru2 Sc2 2.871579 1_655
Ru2 Sc1 2.875311 1_545
Ru2 Sc3 2.875317 1_555
