# generated using pymatgen
data_GaIrS3
_symmetry_space_group_name_H-M   'P 1'
_cell_length_a   3.64345479
_cell_length_b   9.76585285
_cell_length_c   11.94746480
_cell_angle_alpha   90.00000000
_cell_angle_beta   90.00000000
_cell_angle_gamma   90.00000000
_symmetry_Int_Tables_number   1
_chemical_formula_structural   GaIrS3
_chemical_formula_sum   'Ga4 Ir4 S12'
_cell_volume   425.10804110
_cell_formula_units_Z   4
loop_
 _symmetry_equiv_pos_site_id
 _symmetry_equiv_pos_as_xyz
  1  'x, y, z'
loop_
 _atom_site_type_symbol
 _atom_site_label
 _atom_site_symmetry_multiplicity
 _atom_site_fract_x
 _atom_site_fract_y
 _atom_site_fract_z
 _atom_site_occupancy
  Ga  Ga0  1  0.75000000  0.25095213  0.79560059  1
  Ga  Ga1  1  0.25000000  0.74904787  0.20439941  1
  Ga  Ga2  1  0.75000000  0.75095213  0.70439941  1
  Ga  Ga3  1  0.25000000  0.24904787  0.29560059  1
  Ir  Ir0  1  0.25000000  0.40423771  0.60652925  1
  Ir  Ir1  1  0.75000000  0.59576229  0.39347075  1
  Ir  Ir2  1  0.25000000  0.90423771  0.89347075  1
  Ir  Ir3  1  0.75000000  0.09576229  0.10652925  1
  S  S0  1  0.25000000  0.94028337  0.09064869  1
  S  S1  1  0.75000000  0.05971663  0.90935131  1
  S  S2  1  0.25000000  0.44028337  0.40935131  1
  S  S3  1  0.75000000  0.55971663  0.59064869  1
  S  S4  1  0.75000000  0.10727763  0.30824242  1
  S  S5  1  0.25000000  0.89272237  0.69175758  1
  S  S6  1  0.75000000  0.60727763  0.19175758  1
  S  S7  1  0.25000000  0.39272237  0.80824242  1
  S  S8  1  0.25000000  0.25818672  0.10458492  1
  S  S9  1  0.75000000  0.74181328  0.89541508  1
  S  S10  1  0.25000000  0.75818672  0.39541508  1
  S  S11  1  0.75000000  0.24181328  0.60458492  1
loop_
_geom_bond_atom_site_label_1
_geom_bond_atom_site_label_2
_geom_bond_distance
_geom_bond_site_symmetry_2
Ga0 S11 2.283897 1_555
Ga0 S7 2.293112 1_555
Ga0 S7 2.293112 1_655
Ga0 S1 2.309722 1_555
Ga1 S10 2.283897 1_555
Ga1 S6 2.293112 1_555
Ga1 S6 2.293112 1_455
Ga1 S0 2.309722 1_555
Ga2 S9 2.283897 1_555
Ga2 S5 2.293112 1_555
Ga2 S5 2.293112 1_655
Ga2 S3 2.309722 1_555
Ga3 S8 2.283897 1_555
Ga3 S4 2.293112 1_555
Ga3 S4 2.293112 1_455
Ga3 S2 2.309722 1_555
Ir0 S3 2.379113 1_455
Ir0 S3 2.379113 1_555
Ir0 S2 2.381932 1_555
Ir0 S7 2.412583 1_555
Ir0 S11 2.415637 1_555
Ir0 S11 2.415637 1_455
Ir1 S2 2.379113 1_655
Ir1 S2 2.379113 1_555
Ir1 S3 2.381932 1_555
Ir1 S6 2.412583 1_555
Ir1 S10 2.415637 1_555
Ir1 S10 2.415637 1_655
Ir2 S1 2.379113 1_565
Ir2 S1 2.379113 1_465
Ir2 S0 2.381932 1_556
Ir2 S5 2.412583 1_555
Ir2 S9 2.415637 1_555
Ir2 S9 2.415637 1_455
Ir3 S0 2.379113 1_545
Ir3 S0 2.379113 1_645
Ir3 S1 2.381932 1_554
Ir3 S4 2.412583 1_555
Ir3 S8 2.415637 1_555
Ir3 S8 2.415637 1_655
