# generated using pymatgen
data_Rb2Li14Hf3O14
_symmetry_space_group_name_H-M   'P 1'
_cell_length_a   8.16203097
_cell_length_b   8.16203051
_cell_length_c   8.16203056
_cell_angle_alpha   127.38571962
_cell_angle_beta   123.52819070
_cell_angle_gamma   80.82067185
_symmetry_Int_Tables_number   1
_chemical_formula_structural   Rb2Li14Hf3O14
_chemical_formula_sum   'Rb2 Li14 Hf3 O14'
_cell_volume   347.23091043
_cell_formula_units_Z   1
loop_
 _symmetry_equiv_pos_site_id
 _symmetry_equiv_pos_as_xyz
  1  'x, y, z'
loop_
 _atom_site_type_symbol
 _atom_site_label
 _atom_site_symmetry_multiplicity
 _atom_site_fract_x
 _atom_site_fract_y
 _atom_site_fract_z
 _atom_site_occupancy
  Rb  Rb0  1  0.50000000  0.77167741  0.27167741  1
  Rb  Rb1  1  0.50000000  0.22832259  0.72832259  1
  Li  Li0  1  0.70551028  0.13730416  0.11389234  1
  Li  Li1  1  0.97658819  0.86269584  0.56820612  1
  Li  Li2  1  0.02341181  0.59161794  0.88610766  1
  Li  Li3  1  0.29448972  0.40838206  0.43179388  1
  Li  Li4  1  0.02341181  0.13730416  0.43179388  1
  Li  Li5  1  0.84411192  0.50000000  0.34411192  1
  Li  Li6  1  0.15588808  0.50000000  0.65588808  1
  Li  Li7  1  0.41260595  0.77011378  0.64249217  1
  Li  Li8  1  0.58739405  0.22988622  0.35750783  1
  Li  Li9  1  0.87237839  0.22988622  0.64249217  1
  Li  Li10  1  0.12762161  0.77011378  0.35750783  1
  Li  Li11  1  0.70551028  0.59161794  0.56820612  1
  Li  Li12  1  0.29448972  0.86269584  0.88610766  1
  Li  Li13  1  0.97658819  0.40838206  0.11389234  1
  Hf  Hf0  1  0.00000000  0.00000000  0.00000000  1
  Hf  Hf1  1  0.27003104  0.27003104  1.00000000  1
  Hf  Hf2  1  0.72996896  0.72996896  0.00000000  1
  O  O0  1  0.05088050  0.87271102  0.17816947  1
  O  O1  1  0.42273519  0.63172132  0.79101387  1
  O  O2  1  0.84070645  0.63172132  0.20898613  1
  O  O3  1  0.57726481  0.36827868  0.20898613  1
  O  O4  1  0.15929355  0.36827868  0.79101387  1
  O  O5  1  0.74561360  0.02996010  0.28434750  1
  O  O6  1  0.25438640  0.53873489  0.28434750  1
  O  O7  1  0.25438640  0.97003990  0.71565250  1
  O  O8  1  0.74561360  0.46126511  0.71565250  1
  O  O9  1  0.00000000  0.71365521  0.71365521  1
  O  O10  1  1.00000000  0.28634479  0.28634479  1
  O  O11  1  0.69454055  0.87271102  0.82183053  1
  O  O12  1  0.30545945  0.12728898  0.17816947  1
  O  O13  1  0.94911950  0.12728898  0.82183053  1
loop_
_geom_bond_atom_site_label_1
_geom_bond_atom_site_label_2
_geom_bond_distance
_geom_bond_site_symmetry_2
Li0 O5 1.922509 1_555
Li0 O3 1.934728 1_555
Li0 O11 1.982119 1_544
Li0 O10 2.086772 1_555
Li1 O7 1.922505 1_655
Li1 O2 1.934727 1_555
Li1 O13 1.982122 1_565
Li1 O9 2.086772 1_655
Li2 O8 1.922505 1_455
Li2 O4 1.934733 1_555
Li2 O0 1.982122 1_556
Li2 O9 2.086772 1_555
Li3 O6 1.922510 1_555
Li3 O1 1.934728 1_555
Li3 O12 1.982126 1_555
Li3 O10 2.086772 1_455
Li4 O5 1.922505 1_455
Li4 O4 1.934727 1_555
Li4 O0 1.982122 1_545
Li4 O10 2.086772 1_455
Li5 O2 1.941532 1_555
Li5 O3 1.941535 1_555
Li5 O9 1.959235 1_655
Li5 O10 1.959235 1_555
Li6 O4 1.941532 1_555
Li6 O1 1.941535 1_555
Li6 O10 1.959235 1_455
Li6 O9 1.959235 1_555
Li7 O11 1.882678 1_555
Li7 O6 1.919189 1_555
Li7 O7 1.919195 1_555
Li7 O1 2.067506 1_555
Li8 O12 1.882678 1_555
Li8 O8 1.919189 1_555
Li8 O5 1.919195 1_555
Li8 O3 2.067506 1_555
Li9 O13 1.882685 1_555
Li9 O8 1.919184 1_555
Li9 O5 1.919190 1_555
Li9 O4 2.067513 1_655
Li10 O0 1.882685 1_555
Li10 O6 1.919184 1_555
Li10 O7 1.919190 1_555
Li10 O2 2.067513 1_455
Li11 O8 1.922510 1_555
Li11 O3 1.934728 1_555
Li11 O11 1.982126 1_555
Li11 O9 2.086772 1_655
Li12 O7 1.922509 1_555
Li12 O1 1.934728 1_555
Li12 O12 1.982119 1_566
Li12 O9 2.086772 1_555
Li13 O6 1.922505 1_655
Li13 O2 1.934733 1_555
Li13 O13 1.982122 1_554
Li13 O10 2.086772 1_555
Hf0 O10 2.071574 1_455
Hf0 O9 2.071574 1_544
Hf0 O13 2.096789 1_454
Hf0 O0 2.096789 1_545
Hf0 O12 2.096796 1_555
Hf0 O11 2.096796 1_444
Hf1 O3 2.023912 1_556
Hf1 O4 2.023913 1_555
Hf1 O7 2.066291 1_545
Hf1 O6 2.066298 1_556
Hf1 O12 2.245257 1_556
Hf1 O13 2.245259 1_455
Hf2 O1 2.023912 1_554
Hf2 O2 2.023913 1_555
Hf2 O5 2.066291 1_565
Hf2 O8 2.066298 1_554
Hf2 O11 2.245257 1_554
Hf2 O0 2.245259 1_655
O1 Rb0 3.024654 1_556
O1 Rb1 3.024654 1_555
O2 Rb0 3.024646 1_555
O2 Rb1 3.024651 1_554
O3 Rb1 3.024654 1_554
O3 Rb0 3.024654 1_555
O4 Rb1 3.024646 1_555
O4 Rb0 3.024651 1_556
O5 Rb0 3.054221 1_545
O6 Rb0 3.054221 1_555
O7 Rb1 3.054221 1_565
O8 Rb1 3.054221 1_555
