# generated using pymatgen
data_Mg2Zn2GaPd
_symmetry_space_group_name_H-M   'P 1'
_cell_length_a   5.16267044
_cell_length_b   5.22813714
_cell_length_c   5.22813673
_cell_angle_alpha   58.50524549
_cell_angle_beta   59.03170828
_cell_angle_gamma   59.03171294
_symmetry_Int_Tables_number   1
_chemical_formula_structural   Mg2Zn2GaPd
_chemical_formula_sum   'Mg2 Zn2 Ga1 Pd1'
_cell_volume   97.17110695
_cell_formula_units_Z   1
loop_
 _symmetry_equiv_pos_site_id
 _symmetry_equiv_pos_as_xyz
  1  'x, y, z'
loop_
 _atom_site_type_symbol
 _atom_site_label
 _atom_site_symmetry_multiplicity
 _atom_site_fract_x
 _atom_site_fract_y
 _atom_site_fract_z
 _atom_site_occupancy
  Mg  Mg0  1  0.75205826  0.75312427  0.75312427  1
  Mg  Mg1  1  0.49794174  0.49687573  0.49687573  1
  Zn  Zn0  1  0.12500000  0.12500000  0.62500000  1
  Zn  Zn1  1  0.12500000  0.62500000  0.12500000  1
  Ga  Ga0  1  0.62500000  0.12500000  0.12500000  1
  Pd  Pd0  1  0.12500000  0.12500000  0.12500000  1
loop_
_geom_bond_atom_site_label_1
_geom_bond_atom_site_label_2
_geom_bond_distance
_geom_bond_site_symmetry_2
Mg0 Pd0 2.990931 1_665
Mg0 Pd0 2.990931 1_656
Mg0 Pd0 3.005804 1_566
Mg0 Zn1 3.016640 1_656
Mg0 Zn0 3.016640 1_665
Mg0 Zn1 3.017012 1_556
Mg0 Zn0 3.017012 1_565
Mg0 Zn1 3.066602 1_655
Mg0 Zn0 3.066603 1_655
Mg0 Mg1 3.110454 1_655
Mg0 Mg1 3.122786 1_556
Mg0 Mg1 3.122787 1_565
Mg0 Mg1 3.286879 1_555
Mg1 Pd0 2.990931 1_556
Mg1 Pd0 2.990931 1_565
Mg1 Pd0 3.005804 1_655
Mg1 Zn1 3.016640 1_555
Mg1 Zn0 3.016640 1_555
Mg1 Zn1 3.017012 1_655
Mg1 Zn0 3.017012 1_655
Mg1 Zn1 3.066602 1_556
Mg1 Zn0 3.066603 1_565
Zn0 Zn1 2.554788 1_555
Zn0 Zn1 2.554788 1_546
Ga0 Zn0 2.559749 1_654
Ga0 Zn0 2.559749 1_555
Ga0 Zn1 2.559749 1_645
Ga0 Zn1 2.559749 1_555
Ga0 Pd0 2.581335 1_655
Ga0 Pd0 2.581335 1_555
Ga0 Mg0 3.037735 1_545
Ga0 Mg1 3.037735 1_554
Ga0 Mg0 3.037735 1_554
Ga0 Mg1 3.037735 1_545
Ga0 Mg1 3.052011 1_555
Ga0 Mg0 3.052011 1_544
Pd0 Zn0 2.614068 1_555
Pd0 Zn0 2.614068 1_554
Pd0 Zn1 2.614069 1_545
Pd0 Zn1 2.614069 1_555
