# generated using pymatgen
data_Ba2CuF6
_symmetry_space_group_name_H-M   'P 1'
_cell_length_a   5.92529361
_cell_length_b   5.84306226
_cell_length_c   8.44374550
_cell_angle_alpha   110.23299046
_cell_angle_beta   89.99984184
_cell_angle_gamma   90.00038136
_symmetry_Int_Tables_number   1
_chemical_formula_structural   Ba2CuF6
_chemical_formula_sum   'Ba4 Cu2 F12'
_cell_volume   274.29916480
_cell_formula_units_Z   2
loop_
 _symmetry_equiv_pos_site_id
 _symmetry_equiv_pos_as_xyz
  1  'x, y, z'
loop_
 _atom_site_type_symbol
 _atom_site_label
 _atom_site_symmetry_multiplicity
 _atom_site_fract_x
 _atom_site_fract_y
 _atom_site_fract_z
 _atom_site_occupancy
  Ba  Ba0  1  0.49999849  0.64943839  0.29887682  1
  Ba  Ba1  1  -0.00000264  0.85056119  0.70112267  1
  Ba  Ba2  1  0.50000148  0.35056191  0.70112316  1
  Ba  Ba3  1  0.00000265  0.14943844  0.29887732  1
  Cu  Cu0  1  0.49999956  0.00000034  -0.00000000  1
  Cu  Cu1  1  -0.00000037  0.49999947  0.00000013  1
  F  F0  1  0.49999762  0.88153887  0.76305090  1
  F  F1  1  -0.00000267  0.61846156  0.23694830  1
  F  F2  1  0.50000246  0.11846136  0.23694921  1
  F  F3  1  0.00000270  0.38153800  0.76305151  1
  F  F4  1  0.67357589  0.71756350  0.00000533  1
  F  F5  1  0.17357830  0.78243611  -0.00000646  1
  F  F6  1  0.25000310  0.99776615  0.50003340  1
  F  F7  1  0.75000220  0.50222689  0.49996208  1
  F  F8  1  0.74999681  0.00223381  0.49996659  1
  F  F9  1  0.24999773  0.49777313  0.50003791  1
  F  F10  1  0.32642448  0.28243577  -0.00000534  1
  F  F11  1  0.82642220  0.21756412  0.00000646  1
loop_
_geom_bond_atom_site_label_1
_geom_bond_atom_site_label_2
_geom_bond_distance
_geom_bond_site_symmetry_2
Ba0 F7 2.612928 1_555
Ba0 F6 2.613532 1_555
Ba0 F8 2.627872 1_565
Ba0 F9 2.627899 1_555
Ba0 F4 2.877427 1_555
Ba0 F10 2.877851 1_555
Ba0 F2 2.962284 1_565
Ba0 F2 2.962602 1_555
Ba0 F1 3.002992 1_655
Ba0 F1 3.003006 1_555
Ba1 F6 2.612928 1_555
Ba1 F7 2.613555 1_455
Ba1 F9 2.627849 1_555
Ba1 F8 2.627902 1_465
Ba1 F5 2.877436 1_556
Ba1 F11 2.877868 1_466
Ba1 F3 2.962290 1_555
Ba1 F3 2.962599 1_565
Ba1 F0 3.002997 1_455
Ba1 F0 3.003001 1_555
Ba2 F9 2.612927 1_555
Ba2 F8 2.613532 1_555
Ba2 F6 2.627873 1_545
Ba2 F7 2.627898 1_555
Ba2 F10 2.877429 1_556
Ba2 F4 2.877849 1_556
Ba2 F0 2.962284 1_545
Ba2 F0 2.962601 1_555
Ba2 F3 3.002992 1_555
Ba2 F3 3.003007 1_655
Ba3 F8 2.612927 1_455
Ba3 F9 2.613556 1_555
Ba3 F7 2.627850 1_455
Ba3 F6 2.627901 1_545
Ba3 F11 2.877437 1_455
Ba3 F5 2.877867 1_545
Ba3 F1 2.962290 1_555
Ba3 F1 2.962599 1_545
Ba3 F2 3.002998 1_555
Ba3 F2 3.003000 1_455
Cu0 F0 1.877280 1_544
Cu0 F2 1.877281 1_555
Cu0 F10 1.944557 1_555
Cu0 F4 1.944568 1_545
Cu0 F5 2.314493 1_545
Cu0 F11 2.314499 1_555
Cu1 F1 1.877273 1_555
Cu1 F3 1.877277 1_554
Cu1 F11 1.944555 1_455
Cu1 F5 1.944566 1_555
Cu1 F4 2.314521 1_455
Cu1 F10 2.314525 1_555
