# generated using pymatgen
data_LiCa3As2F
_symmetry_space_group_name_H-M   'P 1'
_cell_length_a   4.26264039
_cell_length_b   11.39727697
_cell_length_c   12.00379693
_cell_angle_alpha   90.00000000
_cell_angle_beta   90.00000000
_cell_angle_gamma   90.00000000
_symmetry_Int_Tables_number   1
_chemical_formula_structural   LiCa3As2F
_chemical_formula_sum   'Li4 Ca12 As8 F4'
_cell_volume   583.17438201
_cell_formula_units_Z   4
loop_
 _symmetry_equiv_pos_site_id
 _symmetry_equiv_pos_as_xyz
  1  'x, y, z'
loop_
 _atom_site_type_symbol
 _atom_site_label
 _atom_site_symmetry_multiplicity
 _atom_site_fract_x
 _atom_site_fract_y
 _atom_site_fract_z
 _atom_site_occupancy
  Li  Li0  1  0.25000000  0.13241723  0.85938866  1
  Li  Li1  1  0.25000000  0.63241723  0.64061134  1
  Li  Li2  1  0.75000000  0.86758277  0.14061134  1
  Li  Li3  1  0.75000000  0.36758277  0.35938866  1
  Ca  Ca0  1  0.25000000  0.06155555  0.62128888  1
  Ca  Ca1  1  0.25000000  0.56155555  0.87871112  1
  Ca  Ca2  1  0.75000000  0.93844445  0.37871112  1
  Ca  Ca3  1  0.75000000  0.43844445  0.12128888  1
  Ca  Ca4  1  0.25000000  0.36452144  0.56121445  1
  Ca  Ca5  1  0.25000000  0.86452144  0.93878555  1
  Ca  Ca6  1  0.75000000  0.63547856  0.43878555  1
  Ca  Ca7  1  0.75000000  0.13547856  0.06121445  1
  Ca  Ca8  1  0.25000000  0.20693581  0.29778414  1
  Ca  Ca9  1  0.25000000  0.70693581  0.20221586  1
  Ca  Ca10  1  0.75000000  0.79306419  0.70221586  1
  Ca  Ca11  1  0.75000000  0.29306419  0.79778414  1
  As  As0  1  0.25000000  0.48175641  0.32618133  1
  As  As1  1  0.25000000  0.98175641  0.17381867  1
  As  As2  1  0.75000000  0.51824359  0.67381867  1
  As  As3  1  0.75000000  0.01824359  0.82618133  1
  As  As4  1  0.25000000  0.31792241  0.98352690  1
  As  As5  1  0.25000000  0.81792241  0.51647310  1
  As  As6  1  0.75000000  0.68207759  0.01647310  1
  As  As7  1  0.75000000  0.18207759  0.48352690  1
  F  F0  1  0.25000000  0.24026628  0.71893061  1
  F  F1  1  0.25000000  0.74026628  0.78106939  1
  F  F2  1  0.75000000  0.75973372  0.28106939  1
  F  F3  1  0.75000000  0.25973372  0.21893061  1
loop_
_geom_bond_atom_site_label_1
_geom_bond_atom_site_label_2
_geom_bond_distance
_geom_bond_site_symmetry_2
Ca0 F0 2.349972 1_555
Ca1 F1 2.349972 1_555
Ca2 F2 2.349972 1_555
Ca3 F3 2.349972 1_555
Ca4 F0 2.364258 1_555
Ca5 F1 2.364258 1_555
Ca6 F2 2.364258 1_555
Ca7 F3 2.364258 1_555
Ca8 F3 2.408438 1_555
Ca8 F3 2.408438 1_455
Ca9 F2 2.408438 1_455
Ca9 F2 2.408438 1_555
Ca10 F1 2.408438 1_655
Ca10 F1 2.408438 1_555
Ca11 F0 2.408438 1_555
Ca11 F0 2.408438 1_655
As0 Li3 2.528778 1_555
As0 Li3 2.528778 1_455
As0 Ca9 2.966629 1_555
As0 Ca6 3.072314 1_455
As0 Ca6 3.072314 1_555
As0 Ca4 3.121698 1_555
As0 Ca8 3.150700 1_555
As0 Ca3 3.291699 1_555
As0 Ca3 3.291699 1_455
As1 Li2 2.528778 1_455
As1 Li2 2.528778 1_555
As1 Ca8 2.966629 1_565
As1 Ca7 3.072314 1_465
As1 Ca7 3.072314 1_565
As1 Ca5 3.121698 1_554
As1 Ca9 3.150700 1_555
As1 Ca2 3.291699 1_455
As1 Ca2 3.291699 1_555
As2 Li1 2.528778 1_555
As2 Li1 2.528778 1_655
As2 Ca11 2.966629 1_555
As2 Ca4 3.072314 1_555
As2 Ca4 3.072314 1_655
As2 Ca6 3.121698 1_555
As2 Ca10 3.150700 1_555
As2 Ca1 3.291699 1_655
As2 Ca1 3.291699 1_555
As3 Li0 2.528778 1_555
As3 Li0 2.528778 1_655
As3 Ca10 2.966629 1_545
As3 Ca5 3.072314 1_645
As3 Ca5 3.072314 1_545
As3 Ca7 3.121698 1_556
As3 Ca11 3.150700 1_555
As3 Ca0 3.291699 1_555
As3 Ca0 3.291699 1_655
As4 Li0 2.586611 1_555
As4 Ca3 3.027207 1_456
As4 Ca3 3.027207 1_556
As4 Ca1 3.048508 1_555
As4 Ca11 3.097417 1_555
As4 Ca11 3.097417 1_455
As4 Ca7 3.120243 1_556
As4 Ca7 3.120243 1_456
As5 Li1 2.586611 1_555
As5 Ca2 3.027207 1_455
As5 Ca2 3.027207 1_555
As5 Ca0 3.048508 1_565
As5 Ca10 3.097417 1_555
As5 Ca10 3.097417 1_455
As5 Ca6 3.120243 1_555
As5 Ca6 3.120243 1_455
As6 Li2 2.586611 1_555
As6 Ca1 3.027207 1_654
As6 Ca1 3.027207 1_554
As6 Ca3 3.048508 1_555
As6 Ca9 3.097417 1_655
As6 Ca9 3.097417 1_555
As6 Ca5 3.120243 1_654
As6 Ca5 3.120243 1_554
As7 Li3 2.586611 1_555
As7 Ca0 3.027207 1_655
As7 Ca0 3.027207 1_555
As7 Ca2 3.048508 1_545
As7 Ca8 3.097417 1_555
As7 Ca8 3.097417 1_655
As7 Ca4 3.120243 1_555
As7 Ca4 3.120243 1_655
F0 Li0 2.086527 1_555
F1 Li1 2.086527 1_555
F2 Li2 2.086527 1_555
F3 Li3 2.086527 1_555
