# generated using pymatgen
data_Ba4CrH12Au
_symmetry_space_group_name_H-M   'P 1'
_cell_length_a   7.86575845
_cell_length_b   7.86575953
_cell_length_c   6.07331605
_cell_angle_alpha   89.99618356
_cell_angle_beta   89.99621290
_cell_angle_gamma   134.69394989
_symmetry_Int_Tables_number   1
_chemical_formula_structural   Ba4CrH12Au
_chemical_formula_sum   'Ba4 Cr1 H12 Au1'
_cell_volume   267.11582610
_cell_formula_units_Z   1
loop_
 _symmetry_equiv_pos_site_id
 _symmetry_equiv_pos_as_xyz
  1  'x, y, z'
loop_
 _atom_site_type_symbol
 _atom_site_label
 _atom_site_symmetry_multiplicity
 _atom_site_fract_x
 _atom_site_fract_y
 _atom_site_fract_z
 _atom_site_occupancy
  Ba  Ba0  1  0.35835812  0.64164135  0.99999999  1
  Ba  Ba1  1  0.85455437  0.14544519  0.50000026  1
  Ba  Ba2  1  0.64164188  0.35835865  0.00000001  1
  Ba  Ba3  1  0.14544563  0.85455481  0.49999974  1
  Cr  Cr0  1  0.50000000  0.50000000  0.50000000  1
  H  H0  1  0.00007347  0.50020733  0.24294055  1
  H  H1  1  0.49979264  0.99992642  0.75705947  1
  H  H2  1  0.99992653  0.49979267  0.75705945  1
  H  H3  1  0.50020736  0.00007358  0.24294053  1
  H  H4  1  0.11448054  0.88551937  0.00000003  1
  H  H5  1  0.61962919  0.38036983  0.50000006  1
  H  H6  1  0.88551946  0.11448063  0.99999997  1
  H  H7  1  0.38037081  0.61963017  0.49999994  1
  H  H8  1  0.70291235  0.70291228  0.29754147  1
  H  H9  1  0.29708765  0.29708772  0.70245853  1
  H  H10  1  0.70312447  0.70312453  0.70220191  1
  H  H11  1  0.29687553  0.29687547  0.29779809  1
  Au  Au0  1  0.00000000  0.00000000  0.00000000  1
loop_
_geom_bond_atom_site_label_1
_geom_bond_atom_site_label_2
_geom_bond_distance
_geom_bond_site_symmetry_2
Ba0 H0 2.635505 1_556
Ba0 H1 2.635506 1_555
Ba0 H2 2.635615 1_455
Ba0 H3 2.635618 1_566
Ba0 H9 3.001049 1_555
Ba0 H8 3.001051 1_556
Ba0 H11 3.002260 1_556
Ba0 H10 3.002261 1_555
Ba0 H7 3.053426 1_556
Ba0 H7 3.053427 1_555
Ba0 H6 3.055047 1_455
Ba0 H6 3.055050 1_565
Ba1 H3 2.651634 1_555
Ba1 H2 2.651634 1_555
Ba1 H1 2.653409 1_545
Ba1 H0 2.653412 1_655
Ba1 H10 3.033405 1_545
Ba1 H11 3.033409 1_655
Ba1 H9 3.035051 1_655
Ba1 H8 3.035052 1_545
Ba1 H7 3.052585 1_545
Ba1 H7 3.052593 1_655
Ba1 H6 3.069751 1_555
Ba1 H6 3.069755 1_554
Ba2 H2 2.635505 1_554
Ba2 H3 2.635506 1_555
Ba2 H0 2.635615 1_655
Ba2 H1 2.635618 1_544
Ba2 H8 3.001049 1_555
Ba2 H9 3.001051 1_554
Ba2 H10 3.002260 1_554
Ba2 H11 3.002261 1_555
Ba2 H5 3.053426 1_554
Ba2 H5 3.053427 1_555
Ba2 H4 3.055047 1_655
Ba2 H4 3.055050 1_545
Ba3 H1 2.651634 1_555
Ba3 H0 2.651634 1_555
Ba3 H3 2.653409 1_565
Ba3 H2 2.653412 1_455
Ba3 H11 3.033405 1_565
Ba3 H10 3.033409 1_455
Ba3 H8 3.035051 1_455
Ba3 H9 3.035052 1_565
Ba3 H5 3.052585 1_565
Ba3 H5 3.052593 1_455
Ba3 H4 3.069751 1_555
Ba3 H4 3.069755 1_556
Cr0 H7 1.736771 1_555
Cr0 H5 1.736771 1_555
Cr0 H9 1.738652 1_555
Cr0 H8 1.738652 1_555
Cr0 H10 1.738760 1_555
Cr0 H11 1.738760 1_555
Au0 H6 1.662017 1_454
Au0 H4 1.662017 1_545
