# generated using pymatgen
data_LiIn(IrS2)4
_symmetry_space_group_name_H-M   'P 1'
_cell_length_a   7.20135129
_cell_length_b   7.20135109
_cell_length_c   7.20135145
_cell_angle_alpha   59.99999835
_cell_angle_beta   59.99999924
_cell_angle_gamma   60.00000120
_symmetry_Int_Tables_number   1
_chemical_formula_structural   LiIn(IrS2)4
_chemical_formula_sum   'Li1 In1 Ir4 S8'
_cell_volume   264.07481609
_cell_formula_units_Z   1
loop_
 _symmetry_equiv_pos_site_id
 _symmetry_equiv_pos_as_xyz
  1  'x, y, z'
loop_
 _atom_site_type_symbol
 _atom_site_label
 _atom_site_symmetry_multiplicity
 _atom_site_fract_x
 _atom_site_fract_y
 _atom_site_fract_z
 _atom_site_occupancy
  Li  Li0  1  0.00000000  0.00000000  0.00000000  1
  In  In0  1  0.75000000  0.75000000  0.75000000  1
  Ir  Ir0  1  0.37294432  0.37294432  0.37294432  1
  Ir  Ir1  1  0.37294432  0.37294432  0.88116603  1
  Ir  Ir2  1  0.37294432  0.88116603  0.37294432  1
  Ir  Ir3  1  0.88116603  0.37294432  0.37294432  1
  S  S0  1  0.14116164  0.14116164  0.14116164  1
  S  S1  1  0.14116164  0.14116164  0.57651508  1
  S  S2  1  0.14116164  0.57651508  0.14116164  1
  S  S3  1  0.57651508  0.14116164  0.14116164  1
  S  S4  1  0.60705310  0.60705310  0.60705310  1
  S  S5  1  0.60705310  0.60705310  0.17884271  1
  S  S6  1  0.60705310  0.17884271  0.60705310  1
  S  S7  1  0.17884271  0.60705310  0.60705310  1
loop_
_geom_bond_atom_site_label_1
_geom_bond_atom_site_label_2
_geom_bond_distance
_geom_bond_site_symmetry_2
Li0 S2 2.490040 1_545
Li0 S0 2.490040 1_555
Li0 S1 2.490040 1_554
Li0 S3 2.490040 1_455
In0 S4 2.521531 1_555
In0 S6 2.521543 1_565
In0 S5 2.521543 1_556
In0 S7 2.521543 1_655
Ir0 S1 2.369259 1_555
Ir0 S3 2.369259 1_555
Ir0 S2 2.369259 1_555
Ir0 S5 2.401566 1_555
Ir0 S7 2.401566 1_555
Ir0 S6 2.401566 1_555
Ir1 S0 2.369260 1_556
Ir1 S3 2.369265 1_556
Ir1 S2 2.369265 1_556
Ir1 S7 2.401550 1_555
Ir1 S6 2.401550 1_555
Ir1 S4 2.401563 1_555
Ir2 S0 2.369260 1_565
Ir2 S3 2.369264 1_565
Ir2 S1 2.369265 1_565
Ir2 S7 2.401549 1_555
Ir2 S5 2.401550 1_555
Ir2 S4 2.401563 1_555
Ir3 S0 2.369260 1_655
Ir3 S2 2.369265 1_655
Ir3 S1 2.369265 1_655
Ir3 S6 2.401549 1_555
Ir3 S5 2.401550 1_555
Ir3 S4 2.401563 1_555
