# generated using pymatgen
data_LuMg(TcSn4)2
_symmetry_space_group_name_H-M   'P 1'
_cell_length_a   7.49602368
_cell_length_b   7.49602394
_cell_length_c   7.49602380
_cell_angle_alpha   125.30704901
_cell_angle_beta   125.30705813
_cell_angle_gamma   81.03006492
_symmetry_Int_Tables_number   1
_chemical_formula_structural   LuMg(TcSn4)2
_chemical_formula_sum   'Lu1 Mg1 Tc2 Sn8'
_cell_volume   270.28790728
_cell_formula_units_Z   1
loop_
 _symmetry_equiv_pos_site_id
 _symmetry_equiv_pos_as_xyz
  1  'x, y, z'
loop_
 _atom_site_type_symbol
 _atom_site_label
 _atom_site_symmetry_multiplicity
 _atom_site_fract_x
 _atom_site_fract_y
 _atom_site_fract_z
 _atom_site_occupancy
  Lu  Lu0  1  0.50000000  0.50000000  0.00000000  1
  Mg  Mg0  1  0.00000000  0.00000000  0.00000000  1
  Tc  Tc0  1  0.75457054  0.75457054  0.00000000  1
  Tc  Tc1  1  0.24542946  0.24542946  1.00000000  1
  Sn  Sn0  1  0.70461928  0.51389634  0.50449284  1
  Sn  Sn1  1  0.51389634  0.00940350  0.80927706  1
  Sn  Sn2  1  0.20012544  0.70461928  0.19072294  1
  Sn  Sn3  1  0.79987456  0.29538072  0.80927706  1
  Sn  Sn4  1  0.48610366  0.99059650  0.19072294  1
  Sn  Sn5  1  0.29538072  0.48610366  0.49550716  1
  Sn  Sn6  1  0.99059650  0.79987456  0.50449284  1
  Sn  Sn7  1  0.00940350  0.20012544  0.49550716  1
loop_
_geom_bond_atom_site_label_1
_geom_bond_atom_site_label_2
_geom_bond_distance
_geom_bond_site_symmetry_2
Lu0 Tc0 2.901465 1_555
Lu0 Tc1 2.901465 1_554
Lu0 Sn0 3.091000 1_555
Lu0 Sn5 3.091000 1_554
Lu0 Sn4 3.091001 1_555
Lu0 Sn1 3.091001 1_554
Lu0 Sn6 3.091002 1_555
Lu0 Sn7 3.091002 1_554
Lu0 Sn3 3.091007 1_554
Lu0 Sn2 3.091007 1_555
Mg0 Tc1 2.797279 1_554
Mg0 Tc0 2.797279 1_445
Mg0 Sn3 3.056335 1_454
Mg0 Sn2 3.056335 1_545
Mg0 Sn4 3.056336 1_545
Mg0 Sn1 3.056336 1_454
Mg0 Sn5 3.056336 1_555
Mg0 Sn0 3.056336 1_444
Mg0 Sn7 3.056338 1_555
Mg0 Sn6 3.056338 1_444
Sn0 Tc0 2.836979 1_556
Sn0 Tc1 2.918164 1_554
Sn0 Sn7 3.012541 1_655
Sn0 Sn5 3.066385 1_555
Sn0 Sn3 3.238513 1_555
Sn0 Sn4 3.238515 1_545
Sn0 Sn6 3.259428 1_555
Sn1 Tc0 2.836979 1_546
Sn1 Tc1 2.918164 1_555
Sn1 Sn2 3.012536 1_545
Sn1 Sn4 3.066385 1_546
Sn1 Sn6 3.238513 1_445
Sn1 Sn5 3.238515 1_545
Sn1 Sn3 3.259428 1_555
Sn2 Tc0 2.836972 1_455
Sn2 Tc1 2.918166 1_554
Sn2 Sn3 3.066376 1_454
Sn2 Sn6 3.238506 1_455
Sn2 Sn5 3.238513 1_555
Sn2 Sn4 3.259428 1_555
Sn3 Tc1 2.836972 1_655
Sn3 Tc0 2.918166 1_556
Sn3 Sn4 3.012536 1_545
Sn3 Sn7 3.238506 1_655
Sn4 Tc1 2.836979 1_564
Sn4 Tc0 2.918164 1_555
Sn4 Sn7 3.238513 1_665
Sn5 Tc1 2.836979 1_554
Sn5 Tc0 2.918164 1_556
Sn5 Sn6 3.012541 1_455
Sn5 Sn7 3.259428 1_555
Sn6 Tc1 2.836975 1_665
Sn6 Tc0 2.918160 1_555
Sn6 Sn7 3.066370 1_665
Sn7 Tc0 2.836975 1_445
Sn7 Tc1 2.918160 1_555
