# generated using pymatgen
data_Sc(NbRe6)4
_symmetry_space_group_name_H-M   'P 1'
_cell_length_a   8.38743689
_cell_length_b   8.38743577
_cell_length_c   8.38743612
_cell_angle_alpha   109.47122623
_cell_angle_beta   109.47122352
_cell_angle_gamma   109.47121708
_symmetry_Int_Tables_number   1
_chemical_formula_structural   Sc(NbRe6)4
_chemical_formula_sum   'Sc1 Nb4 Re24'
_cell_volume   454.21950698
_cell_formula_units_Z   1
loop_
 _symmetry_equiv_pos_site_id
 _symmetry_equiv_pos_as_xyz
  1  'x, y, z'
loop_
 _atom_site_type_symbol
 _atom_site_label
 _atom_site_symmetry_multiplicity
 _atom_site_fract_x
 _atom_site_fract_y
 _atom_site_fract_z
 _atom_site_occupancy
  Sc  Sc0  1  0.00000000  0.00000000  0.00000000  1
  Nb  Nb0  1  0.36855313  0.36855313  0.36855313  1
  Nb  Nb1  1  1.00000000  0.63144687  1.00000000  1
  Nb  Nb2  1  0.63144687  0.00000000  0.00000000  1
  Nb  Nb3  1  1.00000000  1.00000000  0.63144687  1
  Re  Re0  1  1.00000000  0.39964304  0.68160437  1
  Re  Re1  1  0.28196233  0.60035696  0.60035696  1
  Re  Re2  1  0.71803767  0.31839563  0.31839563  1
  Re  Re3  1  0.31839563  0.71803767  0.31839563  1
  Re  Re4  1  0.68160437  0.00000000  0.39964304  1
  Re  Re5  1  1.00000000  0.68160437  0.39964304  1
  Re  Re6  1  0.60035696  0.60035696  0.28196233  1
  Re  Re7  1  0.80541071  0.80541071  0.18201900  1
  Re  Re8  1  0.37660829  0.19458929  0.00000000  1
  Re  Re9  1  0.19458929  0.37660829  0.00000000  1
  Re  Re10  1  0.62339171  0.81798100  0.62339171  1
  Re  Re11  1  0.37660829  0.00000000  0.19458929  1
  Re  Re12  1  0.00000000  0.37660829  0.19458929  1
  Re  Re13  1  0.81798100  0.62339171  0.62339171  1
  Re  Re14  1  0.18201900  0.80541071  0.80541071  1
  Re  Re15  1  0.80541071  0.18201900  0.80541071  1
  Re  Re16  1  0.19458929  1.00000000  0.37660829  1
  Re  Re17  1  0.00000000  0.19458929  0.37660829  1
  Re  Re18  1  0.62339171  0.62339171  0.81798100  1
  Re  Re19  1  0.39964304  1.00000000  0.68160437  1
  Re  Re20  1  0.60035696  0.28196233  0.60035696  1
  Re  Re21  1  0.68160437  0.39964304  1.00000000  1
  Re  Re22  1  0.39964304  0.68160437  1.00000000  1
  Re  Re23  1  0.31839563  0.31839563  0.71803767  1
loop_
_geom_bond_atom_site_label_1
_geom_bond_atom_site_label_2
_geom_bond_distance
_geom_bond_site_symmetry_2
Nb0 Re1 2.729524 1_555
Nb0 Re20 2.729524 1_555
Nb0 Re6 2.729525 1_555
Nb0 Re11 2.981138 1_555
Nb0 Re8 2.981138 1_555
Nb0 Re9 2.981138 1_555
Nb0 Re16 2.981138 1_545
Nb0 Re12 2.981139 1_555
Nb0 Re17 2.981139 1_555
Nb0 Sc0 3.091216 1_555
Nb0 Re18 3.091620 1_555
Nb0 Re10 3.091620 1_555
Nb0 Re13 3.091620 1_555
Nb0 Re3 3.236139 1_555
Nb0 Re23 3.236140 1_555
Nb0 Re2 3.236140 1_555
Nb1 Re0 2.729530 1_555
Nb1 Re21 2.729531 1_555
Nb1 Re3 2.729534 1_656
Nb1 Re16 2.981138 1_656
Nb1 Re13 2.981138 1_555
Nb1 Re7 2.981138 1_556
Nb1 Re11 2.981138 1_666
Nb1 Re18 2.981139 1_555
Nb1 Re14 2.981139 1_655
Nb1 Sc0 3.091216 1_666
Nb1 Re15 3.091620 1_555
Nb1 Re9 3.091620 1_656
Nb1 Re12 3.091620 1_656
Nb1 Re20 3.236146 1_555
Nb1 Re5 3.236148 1_556
Nb1 Re22 3.236148 1_655
Nb2 Re19 2.729531 1_544
Nb2 Re22 2.729531 1_544
Nb2 Re2 2.729533 1_555
Nb2 Re18 2.981138 1_544
Nb2 Re10 2.981138 1_544
Nb2 Re17 2.981138 1_655
Nb2 Re7 2.981138 1_545
Nb2 Re12 2.981138 1_655
Nb2 Re15 2.981139 1_554
Nb2 Sc0 3.091216 1_655
Nb2 Re8 3.091620 1_555
Nb2 Re11 3.091620 1_555
Nb2 Re14 3.091620 1_544
Nb2 Re1 3.236146 1_544
Nb2 Re21 3.236148 1_554
Nb2 Re4 3.236148 1_555
Nb3 Re5 2.729530 1_555
Nb3 Re4 2.729531 1_565
Nb3 Re23 2.729534 1_665
Nb3 Re9 2.981138 1_666
Nb3 Re8 2.981138 1_666
Nb3 Re13 2.981138 1_555
Nb3 Re14 2.981138 1_655
Nb3 Re15 2.981138 1_565
Nb3 Re10 2.981139 1_555
Nb3 Sc0 3.091216 1_666
Nb3 Re7 3.091620 1_555
Nb3 Re17 3.091620 1_665
Nb3 Re16 3.091620 1_655
Nb3 Re6 3.236146 1_555
Nb3 Re0 3.236148 1_565
Nb3 Re19 3.236148 1_655
Re0 Re17 2.562988 1_655
Re0 Re9 2.735189 1_656
Re0 Re15 2.735189 1_555
Re0 Re2 2.841902 1_555
Re0 Re1 2.841905 1_655
Re0 Re14 2.848687 1_655
Re0 Re13 2.848687 1_555
Re0 Re4 2.915042 1_555
Re0 Re22 2.915042 1_655
Re0 Re23 2.915043 1_655
Re0 Re20 2.915043 1_555
Re1 Re14 2.562995 1_555
Re1 Re18 2.735182 1_555
Re1 Re10 2.735182 1_555
Re1 Re5 2.841905 1_455
Re1 Re12 2.848689 1_555
Re1 Re17 2.848689 1_555
Re1 Re23 2.915035 1_555
Re1 Re3 2.915035 1_555
Re1 Re19 2.915043 1_555
Re1 Re22 2.915043 1_555
Re2 Re8 2.735184 1_555
Re2 Re5 2.841902 1_555
Re2 Re6 2.915035 1_555
Re2 Re20 2.915035 1_555
Re2 Re4 2.915043 1_555
Re2 Re21 2.915043 1_554
Re3 Re9 2.735183 1_555
Re3 Re4 2.841902 1_565
Re3 Re6 2.915035 1_555
Re3 Re5 2.915043 1_455
Re4 Re7 2.735189 1_545
Re4 Re6 2.915043 1_545
Re5 Re7 2.735189 1_555
Re5 Re6 2.915043 1_555
Re6 Re7 2.562995 1_555
Re6 Re8 2.848689 1_555
Re6 Re9 2.848689 1_555
Re7 Sc0 3.033921 1_665
Re8 Re9 2.493046 1_555
Re8 Sc0 3.033921 1_555
Re9 Sc0 3.033921 1_555
Re10 Re15 2.493046 1_565
Re10 Re3 2.562986 1_555
Re10 Re13 2.665217 1_555
Re10 Re18 2.665217 1_555
Re10 Re6 2.735182 1_555
Re10 Re19 2.848687 1_555
Re10 Re4 2.848687 1_565
Re10 Sc0 3.033920 1_666
Re11 Re16 2.493046 1_545
Re11 Re4 2.562989 1_555
Re11 Re14 2.665217 1_544
Re11 Re8 2.665217 1_555
Re11 Re2 2.735184 1_555
Re11 Re22 2.735188 1_544
Re11 Re20 2.848689 1_555
Re11 Re3 2.848695 1_545
Re11 Sc0 3.033921 1_555
Re12 Re17 2.493046 1_555
Re12 Re5 2.562988 1_455
Re12 Re15 2.665217 1_454
Re12 Re9 2.665217 1_555
Re12 Re3 2.735184 1_555
Re12 Re21 2.735189 1_454
Re12 Re2 2.848695 1_455
Re12 Sc0 3.033920 1_555
Re13 Re14 2.493046 1_655
Re13 Re2 2.562985 1_555
Re13 Re18 2.665217 1_555
Re13 Re6 2.735182 1_555
Re13 Re20 2.735182 1_555
Re13 Re5 2.848687 1_555
Re13 Sc0 3.033920 1_666
Re14 Re8 2.665217 1_566
Re14 Re22 2.735189 1_555
Re14 Re19 2.735189 1_555
Re14 Re5 2.848687 1_455
Re14 Sc0 3.033921 1_566
Re15 Re20 2.562995 1_555
Re15 Re9 2.665217 1_656
Re15 Re21 2.735189 1_555
Re15 Re4 2.848687 1_555
Re15 Re19 2.848687 1_545
Re15 Sc0 3.033921 1_656
Re16 Re19 2.562989 1_555
Re16 Re17 2.665217 1_565
Re16 Re7 2.665217 1_455
Re16 Re23 2.735183 1_565
Re16 Re5 2.735189 1_455
Re16 Re20 2.848689 1_565
Re16 Re3 2.848694 1_555
Re16 Sc0 3.033920 1_565
Re17 Re7 2.665217 1_445
Re17 Re23 2.735184 1_555
Re17 Re4 2.735189 1_455
Re17 Re2 2.848695 1_455
Re17 Sc0 3.033920 1_555
Re18 Re7 2.493046 1_556
Re18 Re23 2.562986 1_555
Re18 Re20 2.735182 1_555
Re18 Re21 2.848687 1_555
Re18 Re22 2.848687 1_555
Re18 Sc0 3.033921 1_666
Re19 Re8 2.735189 1_566
Re19 Re3 2.841902 1_555
Re19 Re20 2.841905 1_565
Re19 Re21 2.915041 1_565
Re19 Re5 2.915042 1_455
Re19 Re23 2.915043 1_565
Re20 Re4 2.841904 1_555
Re20 Re23 2.915035 1_555
Re20 Re21 2.915043 1_555
Re21 Re8 2.562989 1_556
Re21 Re23 2.841902 1_555
Re21 Re6 2.841904 1_556
Re21 Re7 2.848687 1_556
Re21 Re5 2.915042 1_556
Re22 Re9 2.562989 1_556
Re22 Re23 2.841902 1_555
Re22 Re6 2.841905 1_556
Re22 Re7 2.848687 1_556
Re22 Re4 2.915041 1_566
Re22 Re3 2.915043 1_556
Re23 Re8 2.848695 1_556
Re23 Re9 2.848695 1_556
