# generated using pymatgen
data_Hf3Nb2Sn3P
_symmetry_space_group_name_H-M   'P 1'
_cell_length_a   8.40852296
_cell_length_b   8.40852259
_cell_length_c   5.73187059
_cell_angle_alpha   90.00000000
_cell_angle_beta   90.00000000
_cell_angle_gamma   120.00000147
_symmetry_Int_Tables_number   1
_chemical_formula_structural   Hf3Nb2Sn3P
_chemical_formula_sum   'Hf6 Nb4 Sn6 P2'
_cell_volume   350.96710376
_cell_formula_units_Z   2
loop_
 _symmetry_equiv_pos_site_id
 _symmetry_equiv_pos_as_xyz
  1  'x, y, z'
loop_
 _atom_site_type_symbol
 _atom_site_label
 _atom_site_symmetry_multiplicity
 _atom_site_fract_x
 _atom_site_fract_y
 _atom_site_fract_z
 _atom_site_occupancy
  Hf  Hf0  1  0.74662711  0.74662711  0.75000000  1
  Hf  Hf1  1  0.25337289  0.00000000  0.75000000  1
  Hf  Hf2  1  1.00000000  0.25337289  0.75000000  1
  Hf  Hf3  1  0.25337289  0.25337289  0.25000000  1
  Hf  Hf4  1  0.74662711  0.00000000  0.25000000  1
  Hf  Hf5  1  0.00000000  0.74662711  0.25000000  1
  Nb  Nb0  1  0.66666700  0.33333300  0.00000000  1
  Nb  Nb1  1  0.33333300  0.66666700  0.00000000  1
  Nb  Nb2  1  0.33333300  0.66666700  0.50000000  1
  Nb  Nb3  1  0.66666700  0.33333300  0.50000000  1
  Sn  Sn0  1  0.40081155  0.40081155  0.75000000  1
  Sn  Sn1  1  0.59918845  0.00000000  0.75000000  1
  Sn  Sn2  1  1.00000000  0.59918845  0.75000000  1
  Sn  Sn3  1  0.59918845  0.59918845  0.25000000  1
  Sn  Sn4  1  0.40081155  0.00000000  0.25000000  1
  Sn  Sn5  1  0.00000000  0.40081155  0.25000000  1
  P  P0  1  0.00000000  0.00000000  0.00000000  1
  P  P1  1  0.00000000  0.00000000  0.50000000  1
loop_
_geom_bond_atom_site_label_1
_geom_bond_atom_site_label_2
_geom_bond_distance
_geom_bond_site_symmetry_2
Hf0 P1 2.567565 1_665
Hf0 P0 2.567565 1_666
Hf0 Sn0 2.907798 1_555
Hf0 Sn1 2.952493 1_565
Hf0 Sn2 2.952493 1_555
Hf0 Sn3 3.122586 1_556
Hf0 Sn3 3.122586 1_555
Hf0 Nb3 3.499411 1_555
Hf0 Nb0 3.499411 1_556
Hf0 Nb1 3.499411 1_556
Hf0 Nb2 3.499411 1_555
Hf1 P1 2.567565 1_555
Hf1 P0 2.567565 1_556
Hf1 Sn1 2.907798 1_555
Hf1 Sn0 2.952492 1_555
Hf1 Sn2 2.952492 1_445
Hf1 Sn4 3.122586 1_556
Hf1 Sn4 3.122586 1_555
Hf1 Nb1 3.499404 1_546
Hf1 Nb2 3.499404 1_545
Hf1 Nb3 3.499409 1_555
Hf1 Nb0 3.499409 1_556
Hf2 P1 2.567565 1_655
Hf2 P0 2.567565 1_656
Hf2 Sn2 2.907798 1_555
Hf2 Sn1 2.952493 1_555
Hf2 Sn0 2.952493 1_655
Hf2 Sn5 3.122586 1_656
Hf2 Sn5 3.122586 1_655
Hf2 Nb3 3.499404 1_555
Hf2 Nb0 3.499404 1_556
Hf2 Nb2 3.499409 1_655
Hf2 Nb1 3.499409 1_656
Hf3 P1 2.567565 1_555
Hf3 P0 2.567565 1_555
Hf3 Sn3 2.907798 1_555
Hf3 Sn4 2.952493 1_555
Hf3 Sn5 2.952493 1_555
Hf3 Sn0 3.122586 1_555
Hf3 Sn0 3.122586 1_554
Hf3 Nb1 3.499411 1_555
Hf3 Nb2 3.499411 1_555
Hf3 Nb0 3.499411 1_555
Hf3 Nb3 3.499411 1_555
Hf4 P0 2.567565 1_655
Hf4 P1 2.567565 1_655
Hf4 Sn4 2.907798 1_555
Hf4 Sn5 2.952492 1_655
Hf4 Sn3 2.952492 1_545
Hf4 Sn1 3.122586 1_554
Hf4 Sn1 3.122586 1_555
Hf4 Nb3 3.499404 1_555
Hf4 Nb0 3.499404 1_555
Hf4 Nb2 3.499409 1_545
Hf4 Nb1 3.499409 1_545
Hf5 P1 2.567565 1_565
Hf5 P0 2.567565 1_565
Hf5 Sn5 2.907798 1_555
Hf5 Sn4 2.952493 1_565
Hf5 Sn3 2.952493 1_455
Hf5 Sn2 3.122586 1_455
Hf5 Sn2 3.122586 1_454
Hf5 Nb1 3.499404 1_555
Hf5 Nb2 3.499404 1_555
Hf5 Nb0 3.499409 1_455
Hf5 Nb3 3.499409 1_455
Nb0 Nb3 2.865935 1_555
Nb0 Nb3 2.865935 1_554
Nb0 Sn1 2.939544 1_554
Nb0 Sn5 2.939544 1_655
Nb0 Sn4 2.939546 1_555
Nb0 Sn2 2.939546 1_554
Nb0 Sn3 2.939551 1_555
Nb0 Sn0 2.939551 1_554
Nb1 Nb2 2.865935 1_554
Nb1 Nb2 2.865935 1_555
Nb1 Sn4 2.939544 1_565
Nb1 Sn2 2.939544 1_454
Nb1 Sn1 2.939546 1_564
Nb1 Sn5 2.939546 1_555
Nb1 Sn0 2.939551 1_554
Nb1 Sn3 2.939551 1_555
Nb2 Sn4 2.939544 1_565
Nb2 Sn2 2.939544 1_455
Nb2 Sn1 2.939546 1_565
Nb2 Sn5 2.939546 1_555
Nb2 Sn0 2.939551 1_555
Nb2 Sn3 2.939551 1_555
Nb3 Sn1 2.939544 1_555
Nb3 Sn5 2.939544 1_655
Nb3 Sn4 2.939546 1_555
Nb3 Sn2 2.939546 1_555
Nb3 Sn3 2.939551 1_555
Nb3 Sn0 2.939551 1_555
