# generated using pymatgen
data_Ca4Si6HgPd
_symmetry_space_group_name_H-M   'P 1'
_cell_length_a   8.38287586
_cell_length_b   8.25721565
_cell_length_c   6.01115822
_cell_angle_alpha   69.94446348
_cell_angle_beta   67.71055368
_cell_angle_gamma   42.34498999
_symmetry_Int_Tables_number   1
_chemical_formula_structural   Ca4Si6HgPd
_chemical_formula_sum   'Ca4 Si6 Hg1 Pd1'
_cell_volume   258.02020679
_cell_formula_units_Z   1
loop_
 _symmetry_equiv_pos_site_id
 _symmetry_equiv_pos_as_xyz
  1  'x, y, z'
loop_
 _atom_site_type_symbol
 _atom_site_label
 _atom_site_symmetry_multiplicity
 _atom_site_fract_x
 _atom_site_fract_y
 _atom_site_fract_z
 _atom_site_occupancy
  Ca  Ca0  1  0.74567711  0.74567711  0.75432289  1
  Ca  Ca1  1  0.75512566  0.25268791  0.74731209  1
  Ca  Ca2  1  0.24567711  0.24567711  0.25432289  1
  Ca  Ca3  1  0.25268791  0.75512566  0.24487434  1
  Si  Si0  1  0.83053499  0.33750308  0.16946501  1
  Si  Si1  1  0.68626226  0.15696252  0.31373774  1
  Si  Si2  1  0.15696252  0.68626226  0.84303748  1
  Si  Si3  1  0.33750308  0.83053499  0.66249692  1
  Si  Si4  1  0.15726374  0.15726374  0.84273626  1
  Si  Si5  1  0.83142824  0.83142824  0.16857176  1
  Hg  Hg0  1  0.33429450  0.33429450  0.66570550  1
  Pd  Pd0  1  0.66658590  0.66658590  0.33341410  1
loop_
_geom_bond_atom_site_label_1
_geom_bond_atom_site_label_2
_geom_bond_distance
_geom_bond_site_symmetry_2
Ca0 Si0 3.182277 1_556
Ca0 Si3 3.182277 1_555
Ca0 Pd0 3.211482 1_556
Ca0 Pd0 3.211482 1_555
Ca0 Si5 3.246271 1_555
Ca0 Si5 3.246272 1_556
Ca0 Si4 3.260854 1_655
Ca0 Si4 3.260854 1_565
Ca0 Hg0 3.261987 1_565
Ca0 Hg0 3.261987 1_655
Ca0 Si1 3.335719 1_565
Ca0 Si2 3.335719 1_655
Ca1 Si4 3.089410 1_655
Ca1 Si1 3.144648 1_556
Ca1 Si2 3.144649 1_645
Ca1 Pd0 3.200084 1_555
Ca1 Si0 3.205590 1_555
Ca1 Si3 3.205591 1_555
Ca1 Si0 3.227977 1_556
Ca1 Si3 3.227978 1_645
Ca1 Hg0 3.272918 1_555
Ca1 Si5 3.289295 1_546
Ca1 Si1 3.313525 1_555
Ca1 Si2 3.313526 1_555
Ca2 Si3 3.182277 1_545
Ca2 Si0 3.182277 1_455
Ca2 Pd0 3.211483 1_545
Ca2 Pd0 3.211483 1_455
Ca2 Si5 3.246272 1_455
Ca2 Si5 3.246272 1_545
Ca2 Si4 3.260853 1_555
Ca2 Si4 3.260853 1_554
Ca2 Hg0 3.261986 1_554
Ca2 Hg0 3.261986 1_555
Ca2 Si2 3.335719 1_554
Ca2 Si1 3.335719 1_555
Ca3 Si4 3.089410 1_564
Ca3 Si2 3.144649 1_554
Ca3 Si1 3.144649 1_465
Ca3 Pd0 3.200084 1_555
Ca3 Si3 3.205590 1_555
Ca3 Si0 3.205591 1_555
Ca3 Si3 3.227977 1_554
Ca3 Si0 3.227978 1_465
Ca3 Hg0 3.272918 1_555
Ca3 Si5 3.289296 1_455
Ca3 Si2 3.313525 1_555
Ca3 Si1 3.313526 1_555
Si0 Si1 2.328082 1_555
Si0 Si4 2.339373 1_654
Si1 Si5 2.331447 1_545
Si2 Si3 2.328082 1_555
Si2 Si5 2.331447 1_456
Si3 Si4 2.339373 1_565
Hg0 Si2 2.515747 1_555
Hg0 Si1 2.515747 1_555
Hg0 Si4 2.532470 1_555
Pd0 Si0 2.352167 1_555
Pd0 Si3 2.352167 1_555
Pd0 Si5 2.358112 1_555
