# generated using pymatgen
data_KRb2RuO4
_symmetry_space_group_name_H-M   'P 1'
_cell_length_a   6.36538120
_cell_length_b   6.67167712
_cell_length_c   7.93102340
_cell_angle_alpha   85.69563049
_cell_angle_beta   90.00000000
_cell_angle_gamma   90.00000000
_symmetry_Int_Tables_number   1
_chemical_formula_structural   KRb2RuO4
_chemical_formula_sum   'K2 Rb4 Ru2 O8'
_cell_volume   335.86285227
_cell_formula_units_Z   2
loop_
 _symmetry_equiv_pos_site_id
 _symmetry_equiv_pos_as_xyz
  1  'x, y, z'
loop_
 _atom_site_type_symbol
 _atom_site_label
 _atom_site_symmetry_multiplicity
 _atom_site_fract_x
 _atom_site_fract_y
 _atom_site_fract_z
 _atom_site_occupancy
  K  K0  1  0.75000000  0.59649515  0.05164296  1
  K  K1  1  0.25000000  0.40350485  0.94835704  1
  Rb  Rb0  1  0.75000000  0.07928813  0.84301360  1
  Rb  Rb1  1  0.25000000  0.92071187  0.15698640  1
  Rb  Rb2  1  0.25000000  0.32423673  0.47233470  1
  Rb  Rb3  1  0.75000000  0.67576327  0.52766530  1
  Ru  Ru0  1  0.25000000  0.83138303  0.71362491  1
  Ru  Ru1  1  0.75000000  0.16861697  0.28637509  1
  O  O0  1  0.51191055  0.27883550  0.18360777  1
  O  O1  1  0.01191055  0.72116450  0.81639123  1
  O  O2  1  0.48808945  0.72116450  0.81639123  1
  O  O3  1  0.98808945  0.27883550  0.18360777  1
  O  O4  1  0.75000000  0.23831084  0.50189253  1
  O  O5  1  0.75000000  0.91585696  0.21245180  1
  O  O6  1  0.25000000  0.76168916  0.49810747  1
  O  O7  1  0.25000000  0.08414304  0.78754820  1
loop_
_geom_bond_atom_site_label_1
_geom_bond_atom_site_label_2
_geom_bond_distance
_geom_bond_site_symmetry_2
K0 O5 2.564039 1_555
K0 O1 2.592190 1_654
K0 O2 2.592190 1_554
K0 O3 2.747873 1_555
K0 O0 2.747873 1_555
K1 O7 2.564039 1_555
K1 O0 2.592184 1_556
K1 O3 2.592184 1_456
K1 O2 2.747875 1_555
K1 O1 2.747875 1_555
O0 Ru1 1.847133 1_555
O0 Rb2 2.866868 1_555
O0 Rb1 2.934009 1_545
O0 Rb0 3.450488 1_554
O1 Ru0 1.847130 1_555
O1 Rb3 2.866862 1_455
O1 Rb0 2.934010 1_465
O1 Rb1 3.450495 1_556
O2 Ru0 1.847130 1_555
O2 Rb3 2.866862 1_555
O2 Rb0 2.934010 1_565
O2 Rb1 3.450495 1_556
O3 Ru1 1.847133 1_555
O3 Rb2 2.866868 1_655
O3 Rb1 2.934009 1_645
O3 Rb0 3.450488 1_554
O4 Ru1 1.804750 1_555
O4 Rb0 2.830927 1_555
O4 Rb3 2.940955 1_555
O4 Rb2 3.239281 1_655
O4 Rb2 3.239281 1_555
O5 Ru1 1.826434 1_565
O5 Rb3 2.866106 1_555
O5 Rb0 3.048664 1_564
O5 Rb1 3.212778 1_555
O5 Rb1 3.212778 1_655
O6 Ru0 1.804750 1_555
O6 Rb1 2.830927 1_555
O6 Rb2 2.940955 1_555
O6 Rb3 3.239281 1_555
O6 Rb3 3.239281 1_455
O7 Ru0 1.826434 1_545
O7 Rb2 2.866106 1_555
O7 Rb1 3.048664 1_546
O7 Rb0 3.212778 1_455
O7 Rb0 3.212778 1_555
