# generated using pymatgen
data_Sr2AuClO2
_symmetry_space_group_name_H-M   'P 1'
_cell_length_a   9.71042228
_cell_length_b   9.71042222
_cell_length_c   9.71042389
_cell_angle_alpha   24.03951949
_cell_angle_beta   24.03952144
_cell_angle_gamma   24.03952053
_symmetry_Int_Tables_number   1
_chemical_formula_structural   Sr2AuClO2
_chemical_formula_sum   'Sr2 Au1 Cl1 O2'
_cell_volume   133.51716829
_cell_formula_units_Z   1
loop_
 _symmetry_equiv_pos_site_id
 _symmetry_equiv_pos_as_xyz
  1  'x, y, z'
loop_
 _atom_site_type_symbol
 _atom_site_label
 _atom_site_symmetry_multiplicity
 _atom_site_fract_x
 _atom_site_fract_y
 _atom_site_fract_z
 _atom_site_occupancy
  Sr  Sr0  1  0.25824909  0.25824909  0.25824909  1
  Sr  Sr1  1  0.74175091  0.74175091  0.74175091  1
  Au  Au0  1  0.50000000  0.50000000  0.50000000  1
  Cl  Cl0  1  0.00000000  0.00000000  0.00000000  1
  O  O0  1  0.42895670  0.42895670  0.42895670  1
  O  O1  1  0.57104330  0.57104330  0.57104330  1
loop_
_geom_bond_atom_site_label_1
_geom_bond_atom_site_label_2
_geom_bond_distance
_geom_bond_site_symmetry_2
Au0 O1 2.008855 1_555
Au0 O0 2.008855 1_555
Cl0 Sr1 3.155938 1_454
Cl0 Sr0 3.155938 1_545
Cl0 Sr1 3.155938 1_544
Cl0 Sr0 3.155938 1_455
Cl0 Sr1 3.155939 1_445
Cl0 Sr0 3.155939 1_554
O0 Sr1 2.406161 1_545
O0 Sr1 2.406162 1_455
O0 Sr1 2.406162 1_554
O1 Sr0 2.406161 1_565
O1 Sr0 2.406162 1_655
O1 Sr0 2.406162 1_556
