# generated using pymatgen
data_K3Rb(Bi2Pt)2
_symmetry_space_group_name_H-M   'P 1'
_cell_length_a   8.04540620
_cell_length_b   8.04540569
_cell_length_c   6.82344124
_cell_angle_alpha   90.00000000
_cell_angle_beta   90.00000000
_cell_angle_gamma   126.26779885
_symmetry_Int_Tables_number   1
_chemical_formula_structural   K3Rb(Bi2Pt)2
_chemical_formula_sum   'K3 Rb1 Bi4 Pt2'
_cell_volume   356.10245342
_cell_formula_units_Z   1
loop_
 _symmetry_equiv_pos_site_id
 _symmetry_equiv_pos_as_xyz
  1  'x, y, z'
loop_
 _atom_site_type_symbol
 _atom_site_label
 _atom_site_symmetry_multiplicity
 _atom_site_fract_x
 _atom_site_fract_y
 _atom_site_fract_z
 _atom_site_occupancy
  K  K0  1  0.18867919  0.81132081  0.25000000  1
  K  K1  1  0.81161922  0.18838078  0.75000100  1
  K  K2  1  0.39693504  0.60306396  0.75000100  1
  Rb  Rb0  1  0.60758348  0.39241552  0.25000000  1
  Bi  Bi0  1  0.09678870  0.31546413  0.25000000  1
  Bi  Bi1  1  0.68453487  0.90321030  0.25000000  1
  Bi  Bi2  1  0.31318504  0.09906550  0.75000100  1
  Bi  Bi3  1  0.90093350  0.68681396  0.75000100  1
  Pt  Pt0  1  0.99986948  0.00013052  0.00165142  1
  Pt  Pt1  1  0.99986948  0.00013052  0.49834858  1
loop_
_geom_bond_atom_site_label_1
_geom_bond_atom_site_label_2
_geom_bond_distance
_geom_bond_site_symmetry_2
K0 Pt1 3.196364 1_465
K0 Pt0 3.196364 1_465
K1 Pt0 3.201584 1_556
K1 Pt1 3.201592 1_555
Bi0 Pt1 2.752359 1_455
Bi0 Pt0 2.752359 1_455
Bi0 Bi1 2.997725 1_445
Bi0 K0 3.601695 1_555
Bi0 Rb0 3.776448 1_555
Bi0 K1 3.895338 1_454
Bi0 K1 3.895350 1_455
Bi0 K2 4.026698 1_554
Bi0 K2 4.026710 1_555
Bi0 Rb0 4.330954 1_455
Bi1 Pt1 2.752363 1_565
Bi1 Pt0 2.752363 1_565
Bi1 K0 3.601691 1_555
Bi1 Rb0 3.776447 1_555
Bi1 K1 3.895341 1_564
Bi1 K1 3.895353 1_565
Bi1 K2 4.026698 1_554
Bi1 K2 4.026710 1_555
Bi1 Rb0 4.330954 1_565
Bi2 Pt0 2.749981 1_456
Bi2 Pt1 2.749990 1_455
Bi2 Bi3 2.997708 1_445
Bi2 K1 3.631536 1_555
Bi2 K2 3.696417 1_555
Bi2 K0 3.906266 1_546
Bi2 K0 3.906278 1_545
Bi2 Rb0 4.025702 1_556
Bi2 Rb0 4.025714 1_555
Bi3 Pt0 2.749985 1_566
Bi3 Pt1 2.749993 1_565
Bi3 K1 3.631531 1_555
Bi3 K2 3.696417 1_555
Bi3 K0 3.906269 1_656
Bi3 K0 3.906281 1_655
Bi3 Rb0 4.025702 1_556
Bi3 Rb0 4.025714 1_555
