# generated using pymatgen
data_La2Zn17
_symmetry_space_group_name_H-M   'P 1'
_cell_length_a   6.81349394
_cell_length_b   6.81349378
_cell_length_c   6.81349398
_cell_angle_alpha   83.00066900
_cell_angle_beta   83.00066422
_cell_angle_gamma   83.00065840
_symmetry_Int_Tables_number   1
_chemical_formula_structural   La2Zn17
_chemical_formula_sum   'La2 Zn17'
_cell_volume   309.76689091
_cell_formula_units_Z   1
loop_
 _symmetry_equiv_pos_site_id
 _symmetry_equiv_pos_as_xyz
  1  'x, y, z'
loop_
 _atom_site_type_symbol
 _atom_site_label
 _atom_site_symmetry_multiplicity
 _atom_site_fract_x
 _atom_site_fract_y
 _atom_site_fract_z
 _atom_site_occupancy
  La  La0  1  0.66263574  0.66263574  0.66263574  1
  La  La1  1  0.33736426  0.33736426  0.33736426  1
  Zn  Zn0  1  0.34713408  0.34713408  0.84079659  1
  Zn  Zn1  1  0.34713408  0.84079659  0.34713408  1
  Zn  Zn2  1  0.09826524  0.09826524  0.09826524  1
  Zn  Zn3  1  0.90173476  0.90173476  0.90173476  1
  Zn  Zn4  1  0.00000000  0.00000000  0.50000000  1
  Zn  Zn5  1  0.50000000  0.00000000  0.00000000  1
  Zn  Zn6  1  0.00000000  0.50000000  0.00000000  1
  Zn  Zn7  1  0.71082442  0.28917558  0.00000000  1
  Zn  Zn8  1  0.00000000  0.71082442  0.28917558  1
  Zn  Zn9  1  0.28917558  -0.00000000  0.71082442  1
  Zn  Zn10  1  0.28917558  0.71082442  -0.00000000  1
  Zn  Zn11  1  -0.00000000  0.28917558  0.71082442  1
  Zn  Zn12  1  0.71082442  0.00000000  0.28917558  1
  Zn  Zn13  1  0.65286592  0.15920341  0.65286592  1
  Zn  Zn14  1  0.65286592  0.65286592  0.15920341  1
  Zn  Zn15  1  0.15920341  0.65286592  0.65286592  1
  Zn  Zn16  1  0.84079659  0.34713408  0.34713408  1
loop_
_geom_bond_atom_site_label_1
_geom_bond_atom_site_label_2
_geom_bond_distance
_geom_bond_site_symmetry_2
La0 Zn3 3.146798 1_555
La0 Zn9 3.228180 1_565
La0 Zn11 3.228181 1_655
La0 Zn10 3.228181 1_556
La0 Zn8 3.228181 1_655
La0 Zn7 3.228181 1_556
La0 Zn12 3.228181 1_565
La0 Zn16 3.251151 1_555
La0 Zn1 3.251151 1_555
La0 Zn0 3.251152 1_555
La0 Zn13 3.368574 1_565
La0 Zn15 3.368574 1_655
La0 Zn14 3.368574 1_556
La0 Zn5 3.441144 1_566
La0 Zn6 3.441145 1_656
La0 Zn4 3.441145 1_665
La0 Zn13 3.447760 1_555
La0 Zn15 3.447760 1_555
La0 Zn14 3.447760 1_555
La1 Zn2 3.146798 1_555
La1 Zn12 3.228180 1_555
La1 Zn8 3.228181 1_555
La1 Zn7 3.228181 1_555
La1 Zn11 3.228181 1_555
La1 Zn10 3.228181 1_555
La1 Zn9 3.228181 1_555
La1 Zn15 3.251151 1_555
La1 Zn13 3.251151 1_555
La1 Zn14 3.251152 1_555
La1 Zn1 3.368574 1_545
La1 Zn16 3.368574 1_455
La1 Zn0 3.368574 1_554
La1 Zn5 3.441144 1_555
La1 Zn6 3.441145 1_555
La1 Zn4 3.441145 1_555
La1 Zn1 3.447760 1_555
La1 Zn16 3.447760 1_555
La1 Zn0 3.447760 1_555
Zn0 Zn13 2.591899 1_555
Zn0 Zn15 2.591899 1_555
Zn0 Zn6 2.627795 1_556
Zn0 Zn5 2.627795 1_556
Zn0 Zn9 2.712500 1_555
Zn0 Zn11 2.712500 1_555
Zn0 Zn10 2.790213 1_556
Zn0 Zn7 2.790214 1_556
Zn0 Zn2 2.842326 1_556
Zn1 Zn14 2.591899 1_555
Zn1 Zn15 2.591899 1_555
Zn1 Zn4 2.627795 1_565
Zn1 Zn5 2.627796 1_565
Zn1 Zn10 2.712500 1_555
Zn1 Zn8 2.712500 1_555
Zn1 Zn9 2.790214 1_565
Zn1 Zn12 2.790214 1_565
Zn1 Zn2 2.842326 1_565
Zn2 Zn3 2.586551 1_444
Zn2 Zn5 2.757691 1_555
Zn2 Zn6 2.757691 1_555
Zn2 Zn4 2.757691 1_555
Zn2 Zn7 2.913859 1_455
Zn2 Zn9 2.913859 1_554
Zn2 Zn8 2.913859 1_545
Zn3 Zn5 2.757691 1_566
Zn3 Zn6 2.757691 1_656
Zn3 Zn4 2.757691 1_665
Zn3 Zn7 2.913859 1_566
Zn3 Zn8 2.913859 1_656
Zn3 Zn9 2.913859 1_665
Zn4 Zn8 2.575894 1_545
Zn4 Zn9 2.575894 1_555
Zn5 Zn9 2.575894 1_554
Zn5 Zn7 2.575894 1_555
Zn6 Zn8 2.575894 1_555
Zn6 Zn7 2.575894 1_455
Zn10 Zn5 2.575894 1_565
Zn10 Zn6 2.575894 1_555
Zn10 Zn8 2.611132 1_555
Zn10 Zn9 2.611133 1_564
Zn10 Zn15 2.712500 1_554
Zn10 Zn14 2.790214 1_555
Zn10 Zn2 2.913859 1_565
Zn10 Zn3 2.913859 1_454
Zn11 Zn4 2.575894 1_555
Zn11 Zn6 2.575894 1_556
Zn11 Zn9 2.611132 1_555
Zn11 Zn7 2.611132 1_456
Zn11 Zn13 2.712500 1_455
Zn11 Zn16 2.790214 1_455
Zn11 Zn15 2.790214 1_555
Zn11 Zn2 2.913859 1_556
Zn11 Zn3 2.913859 1_445
Zn12 Zn4 2.575894 1_655
Zn12 Zn5 2.575894 1_555
Zn12 Zn8 2.611132 1_645
Zn12 Zn7 2.611133 1_555
Zn12 Zn14 2.712500 1_545
Zn12 Zn16 2.712500 1_555
Zn12 Zn13 2.790214 1_555
Zn12 Zn3 2.913859 1_544
Zn12 Zn2 2.913859 1_655
Zn13 Zn16 2.591899 1_555
Zn13 Zn4 2.627795 1_655
Zn13 Zn5 2.627796 1_556
Zn13 Zn7 2.712500 1_556
Zn13 Zn9 2.790214 1_555
Zn13 Zn3 2.842326 1_545
Zn14 Zn16 2.591899 1_555
Zn14 Zn6 2.627795 1_655
Zn14 Zn5 2.627795 1_565
Zn14 Zn8 2.712500 1_655
Zn14 Zn7 2.790213 1_555
Zn14 Zn3 2.842326 1_554
Zn15 Zn4 2.627795 1_565
Zn15 Zn6 2.627796 1_556
Zn15 Zn9 2.712500 1_565
Zn15 Zn8 2.790214 1_555
Zn15 Zn3 2.842326 1_455
Zn16 Zn4 2.627795 1_655
Zn16 Zn6 2.627796 1_655
Zn16 Zn7 2.712500 1_555
Zn16 Zn8 2.790214 1_655
Zn16 Zn2 2.842326 1_655
