# generated using pymatgen
data_YbBO3
_symmetry_space_group_name_H-M   'P 1'
_cell_length_a   3.80986606
_cell_length_b   3.80986606
_cell_length_c   8.26258533
_cell_angle_alpha   90.00000000
_cell_angle_beta   90.00000000
_cell_angle_gamma   111.00111115
_symmetry_Int_Tables_number   1
_chemical_formula_structural   YbBO3
_chemical_formula_sum   'Yb2 B2 O6'
_cell_volume   111.96541111
_cell_formula_units_Z   2
loop_
 _symmetry_equiv_pos_site_id
 _symmetry_equiv_pos_as_xyz
  1  'x, y, z'
loop_
 _atom_site_type_symbol
 _atom_site_label
 _atom_site_symmetry_multiplicity
 _atom_site_fract_x
 _atom_site_fract_y
 _atom_site_fract_z
 _atom_site_occupancy
  Yb  Yb0  1  0.92304029  0.92304029  0.50000000  1
  Yb  Yb1  1  0.92304029  0.92304029  0.00000000  1
  B  B0  1  0.50908574  0.23196845  0.25000000  1
  B  B1  1  0.23196845  0.50908574  0.75000000  1
  O  O0  1  0.67900110  0.33437401  0.39913533  1
  O  O1  1  0.33437401  0.67900110  0.60086467  1
  O  O2  1  0.33437401  0.67900110  0.89913533  1
  O  O3  1  0.67900110  0.33437401  0.10086467  1
  O  O4  1  0.14404746  0.98879653  0.25000000  1
  O  O5  1  0.98879653  0.14404746  0.75000000  1
loop_
_geom_bond_atom_site_label_1
_geom_bond_atom_site_label_2
_geom_bond_distance
_geom_bond_site_symmetry_2
B0 O4 1.367099 1_545
B0 O0 1.381549 1_555
B0 O3 1.381549 1_555
B1 O5 1.367099 1_455
B1 O2 1.381549 1_555
B1 O1 1.381549 1_555
O0 Yb0 2.249281 1_545
O0 Yb0 2.257050 1_555
O1 Yb0 2.249281 1_455
O1 Yb0 2.257050 1_555
O2 Yb1 2.249281 1_456
O2 Yb1 2.257050 1_556
O3 Yb1 2.249281 1_545
O3 Yb1 2.257050 1_555
O4 Yb0 2.210755 1_455
O4 Yb1 2.210755 1_455
O5 Yb1 2.210755 1_546
O5 Yb0 2.210755 1_545
