# generated using pymatgen
data_Sc2Ga9TcRu4
_symmetry_space_group_name_H-M   'P 1'
_cell_length_a   7.81308396
_cell_length_b   7.81308379
_cell_length_c   7.81308510
_cell_angle_alpha   134.11932672
_cell_angle_beta   134.11932857
_cell_angle_gamma   66.90169097
_symmetry_Int_Tables_number   1
_chemical_formula_structural   Sc2Ga9TcRu4
_chemical_formula_sum   'Sc2 Ga9 Tc1 Ru4'
_cell_volume   241.82577095
_cell_formula_units_Z   1
loop_
 _symmetry_equiv_pos_site_id
 _symmetry_equiv_pos_as_xyz
  1  'x, y, z'
loop_
 _atom_site_type_symbol
 _atom_site_label
 _atom_site_symmetry_multiplicity
 _atom_site_fract_x
 _atom_site_fract_y
 _atom_site_fract_z
 _atom_site_occupancy
  Sc  Sc0  1  0.00031784  0.50031784  0.50000000  1
  Sc  Sc1  1  0.50031784  0.00031784  0.50000000  1
  Ga  Ga0  1  0.43261882  0.85593375  0.00000000  1
  Ga  Ga1  1  0.14377490  0.14377490  0.57731708  1
  Ga  Ga2  1  0.85593375  0.43261882  0.00000000  1
  Ga  Ga3  1  0.85593375  0.85593375  0.42331393  1
  Ga  Ga4  1  0.56645782  0.14377490  1.00000000  1
  Ga  Ga5  1  0.14377490  0.56645782  1.00000000  1
  Ga  Ga6  1  0.56645782  0.56645782  0.42268292  1
  Ga  Ga7  1  0.99990556  0.99990556  0.00000000  1
  Ga  Ga8  1  0.43261882  0.43261882  0.57668607  1
  Tc  Tc0  1  0.18474136  0.18474136  1.00000000  1
  Ru  Ru0  1  0.81495224  0.81495224  0.00000000  1
  Ru  Ru1  1  0.25099715  0.75099715  0.50000000  1
  Ru  Ru2  1  0.75099715  0.25099715  0.50000000  1
  Ru  Ru3  1  0.50020129  0.50020129  0.00000000  1
loop_
_geom_bond_atom_site_label_1
_geom_bond_atom_site_label_2
_geom_bond_distance
_geom_bond_site_symmetry_2
Ga0 Tc0 2.539048 1_564
Ga0 Ga3 2.578259 1_555
Ga0 Ga8 2.578260 1_554
Ga0 Ru2 2.584974 1_565
Ga0 Ru1 2.584975 1_554
Ga0 Ru3 2.617671 1_555
Ga0 Sc0 2.875561 1_554
Ga0 Sc1 2.875561 1_565
Ga0 Ru0 2.876705 1_555
Ga1 Ru0 2.540899 1_445
Ga1 Ru1 2.567227 1_545
Ga1 Ru2 2.567227 1_455
Ga1 Ru3 2.625248 1_556
Ga1 Sc0 2.886478 1_555
Ga1 Sc1 2.886478 1_555
Ga2 Tc0 2.539048 1_654
Ga2 Ga8 2.578259 1_554
Ga2 Ga3 2.578260 1_555
Ga2 Ru1 2.584974 1_655
Ga2 Ru2 2.584975 1_554
Ga2 Ru3 2.617671 1_555
Ga2 Sc1 2.875561 1_554
Ga2 Sc0 2.875561 1_655
Ga2 Ru0 2.876705 1_555
Ga3 Tc0 2.539051 1_665
Ga3 Ru2 2.584971 1_565
Ga3 Ru1 2.584971 1_655
Ga3 Ru3 2.617673 1_555
Ga3 Sc0 2.875566 1_655
Ga3 Sc1 2.875566 1_565
Ga3 Ru0 2.876698 1_555
Ga4 Ru0 2.540899 1_546
Ga4 Ru1 2.567227 1_545
Ga4 Ru2 2.567228 1_556
Ga4 Ru3 2.625248 1_556
Ga4 Sc0 2.886478 1_656
Ga4 Sc1 2.886479 1_555
Ga5 Ru0 2.540899 1_456
Ga5 Ru2 2.567227 1_455
Ga5 Ru1 2.567228 1_556
Ga5 Ru3 2.625248 1_556
Ga5 Sc1 2.886478 1_566
Ga5 Sc0 2.886479 1_555
Ga6 Ru0 2.540899 1_556
Ga6 Ru2 2.567227 1_555
Ga6 Ru1 2.567227 1_555
Ga6 Ru3 2.625248 1_555
Ga6 Sc1 2.886478 1_565
Ga6 Sc0 2.886478 1_655
Ga7 Tc0 2.409858 1_664
Ga7 Ru0 2.411391 1_555
Ga7 Sc1 3.045329 1_665
Ga7 Sc1 3.045329 1_564
Ga7 Sc0 3.045329 1_665
Ga7 Sc0 3.045329 1_654
Ga8 Tc0 2.539054 1_554
Ga8 Ru1 2.584978 1_555
Ga8 Ru2 2.584979 1_555
Ga8 Ru3 2.617664 1_556
Ga8 Sc1 2.875557 1_555
Ga8 Sc0 2.875557 1_555
Ga8 Ru0 2.876707 1_556
Ru1 Sc1 3.250602 1_565
Ru1 Sc0 3.268315 1_555
Ru2 Sc0 3.250602 1_655
Ru2 Sc1 3.268315 1_555
Ru3 Sc0 3.045325 1_655
Ru3 Sc0 3.045325 1_554
Ru3 Sc1 3.045325 1_565
Ru3 Sc1 3.045325 1_554
