# generated using pymatgen
data_KBaTaS4
_symmetry_space_group_name_H-M   'P 1'
_cell_length_a   13.92800788
_cell_length_b   6.99676374
_cell_length_c   8.96677475
_cell_angle_alpha   90.00005329
_cell_angle_beta   90.00022832
_cell_angle_gamma   90.00019612
_symmetry_Int_Tables_number   1
_chemical_formula_structural   KBaTaS4
_chemical_formula_sum   'K4 Ba4 Ta4 S16'
_cell_volume   873.82099026
_cell_formula_units_Z   4
loop_
 _symmetry_equiv_pos_site_id
 _symmetry_equiv_pos_as_xyz
  1  'x, y, z'
loop_
 _atom_site_type_symbol
 _atom_site_label
 _atom_site_symmetry_multiplicity
 _atom_site_fract_x
 _atom_site_fract_y
 _atom_site_fract_z
 _atom_site_occupancy
  K  K0  1  0.60450939  0.25000295  0.11830281  1
  K  K1  1  0.10450586  0.24999984  0.38169184  1
  K  K2  1  0.89549302  0.75000020  0.61830185  1
  K  K3  1  0.39549416  0.75000096  0.88169663  1
  Ba  Ba0  1  0.86139586  0.75000031  0.11382704  1
  Ba  Ba1  1  0.36139714  0.75000202  0.38616941  1
  Ba  Ba2  1  0.63860378  0.24999934  0.61382749  1
  Ba  Ba3  1  0.13860272  0.24999969  0.88616932  1
  Ta  Ta0  1  0.14117586  0.75000368  0.12970817  1
  Ta  Ta1  1  0.64118095  0.75000190  0.37029128  1
  Ta  Ta2  1  0.35882022  0.25000024  0.62970927  1
  Ta  Ta3  1  0.85882076  0.24999862  0.87029579  1
  S  S0  1  0.94369591  0.25000019  0.08663948  1
  S  S1  1  0.24150072  0.00505249  0.14186152  1
  S  S2  1  0.24150235  0.49494374  0.14186185  1
  S  S3  1  0.54219722  0.75000202  0.16834975  1
  S  S4  1  0.04219360  0.75000003  0.33165014  1
  S  S5  1  0.74150986  0.00505049  0.35813711  1
  S  S6  1  0.74150132  0.49494382  0.35813709  1
  S  S7  1  0.44370115  0.24999946  0.41334799  1
  S  S8  1  0.55630330  0.75000307  0.58663795  1
  S  S9  1  0.25849280  0.50506871  0.64186822  1
  S  S10  1  0.25849151  0.99492744  0.64186838  1
  S  S11  1  0.95780501  0.25000003  0.66834851  1
  S  S12  1  0.45781299  0.24999972  0.83166602  1
  S  S13  1  0.75849707  0.50505176  0.85813715  1
  S  S14  1  0.75849729  0.99494978  0.85813650  1
  S  S15  1  0.05630118  0.74999951  0.91335942  1
loop_
_geom_bond_atom_site_label_1
_geom_bond_atom_site_label_2
_geom_bond_distance
_geom_bond_site_symmetry_2
K0 S12 3.283374 1_554
K0 S6 3.347000 1_555
K0 S5 3.347118 1_555
K0 S7 3.466366 1_555
K0 S3 3.632253 1_555
K0 S3 3.632260 1_545
K0 S13 3.636841 1_554
K0 S14 3.636866 1_544
K1 S11 3.283565 1_455
K1 S2 3.347034 1_555
K1 S1 3.347040 1_555
K1 S0 3.466417 1_455
K1 S4 3.632246 1_545
K1 S4 3.632255 1_555
K1 S9 3.636952 1_555
K1 S10 3.636964 1_545
K2 S4 3.283528 1_655
K2 S13 3.347076 1_555
K2 S14 3.347080 1_555
K2 S15 3.466437 1_655
K2 S11 3.632250 1_565
K2 S11 3.632259 1_555
K2 S5 3.636800 1_565
K2 S6 3.636882 1_555
K3 S3 3.283546 1_556
K3 S10 3.347007 1_555
K3 S9 3.347010 1_555
K3 S8 3.466467 1_555
K3 S12 3.632250 1_565
K3 S12 3.632271 1_555
K3 S1 3.636898 1_566
K3 S2 3.636901 1_556
Ba0 S4 3.186837 1_655
Ba0 S13 3.201210 1_554
Ba0 S14 3.201224 1_554
Ba0 S15 3.255841 1_654
Ba0 S5 3.282037 1_565
Ba0 S6 3.282117 1_555
Ba0 S0 3.689448 1_565
Ba0 S0 3.689456 1_555
Ba1 S3 3.186856 1_555
Ba1 S10 3.201238 1_555
Ba1 S9 3.201256 1_555
Ba1 S8 3.255844 1_555
Ba1 S1 3.282092 1_565
Ba1 S2 3.282100 1_555
Ba1 S7 3.689442 1_565
Ba1 S7 3.689484 1_555
Ba2 S12 3.186857 1_555
Ba2 S6 3.201201 1_555
Ba2 S5 3.201274 1_555
Ba2 S7 3.255857 1_555
Ba2 S14 3.282075 1_545
Ba2 S13 3.282080 1_555
Ba2 S8 3.689426 1_545
Ba2 S8 3.689483 1_555
Ba3 S11 3.186824 1_455
Ba3 S2 3.201216 1_556
Ba3 S1 3.201223 1_556
Ba3 S0 3.255871 1_456
Ba3 S9 3.282080 1_555
Ba3 S10 3.282086 1_545
Ba3 S15 3.689458 1_545
Ba3 S15 3.689462 1_555
S0 Ta3 2.271711 1_554
S1 Ta0 2.269113 1_545
S2 Ta0 2.269196 1_555
S3 Ta1 2.275854 1_555
S4 Ta0 2.275854 1_555
S5 Ta1 2.269148 1_545
S6 Ta1 2.269134 1_555
S7 Ta2 2.271896 1_555
S8 Ta1 2.271760 1_555
S9 Ta2 2.269254 1_555
S10 Ta2 2.269281 1_565
S11 Ta3 2.275908 1_555
S12 Ta2 2.276039 1_555
S13 Ta3 2.269137 1_555
S14 Ta3 2.269104 1_565
S15 Ta0 2.271747 1_556
