# generated using pymatgen
data_KBaTcN3
_symmetry_space_group_name_H-M   'P 1'
_cell_length_a   6.65734067
_cell_length_b   6.65733928
_cell_length_c   13.24666906
_cell_angle_alpha   90.00000000
_cell_angle_beta   90.00000000
_cell_angle_gamma   127.25283744
_symmetry_Int_Tables_number   1
_chemical_formula_structural   KBaTcN3
_chemical_formula_sum   'K4 Ba4 Tc4 N12'
_cell_volume   467.31095618
_cell_formula_units_Z   4
loop_
 _symmetry_equiv_pos_site_id
 _symmetry_equiv_pos_as_xyz
  1  'x, y, z'
loop_
 _atom_site_type_symbol
 _atom_site_label
 _atom_site_symmetry_multiplicity
 _atom_site_fract_x
 _atom_site_fract_y
 _atom_site_fract_z
 _atom_site_occupancy
  K  K0  1  0.55088458  0.44911542  0.63501962  1
  K  K1  1  0.44911542  0.55088458  0.36498038  1
  K  K2  1  0.94911542  0.05088458  0.13501962  1
  K  K3  1  0.05088458  0.94911542  0.86498038  1
  Ba  Ba0  1  0.85325111  0.14674889  0.58615706  1
  Ba  Ba1  1  0.14674889  0.85325111  0.41384294  1
  Ba  Ba2  1  0.64674889  0.35325111  0.08615706  1
  Ba  Ba3  1  0.35325111  0.64674889  0.91384294  1
  Tc  Tc0  1  0.72421745  0.27578255  0.83428108  1
  Tc  Tc1  1  0.27578255  0.72421745  0.16571892  1
  Tc  Tc2  1  0.77578255  0.22421745  0.33428108  1
  Tc  Tc3  1  0.22421745  0.77578255  0.66571892  1
  N  N0  1  0.81981448  0.18018552  0.93956138  1
  N  N1  1  0.18018552  0.81981448  0.06043862  1
  N  N2  1  0.68018552  0.31981448  0.43956138  1
  N  N3  1  0.31981448  0.68018552  0.56043862  1
  N  N4  1  0.58377406  0.41622594  0.87674780  1
  N  N5  1  0.41622594  0.58377406  0.12325220  1
  N  N6  1  0.91622594  0.08377406  0.37674780  1
  N  N7  1  0.08377406  0.91622594  0.62325220  1
  N  N8  1  0.50555023  0.99444977  0.75000000  1
  N  N9  1  0.99444977  0.50555023  0.25000000  1
  N  N10  1  0.49444977  0.00555023  0.25000000  1
  N  N11  1  0.00555023  0.49444977  0.75000000  1
loop_
_geom_bond_atom_site_label_1
_geom_bond_atom_site_label_2
_geom_bond_distance
_geom_bond_site_symmetry_2
K0 N3 2.928102 1_555
K0 N7 2.987318 1_545
K0 N7 2.987318 1_655
K0 N2 3.013774 1_555
K0 N4 3.226039 1_555
K0 N8 3.235254 1_545
K0 N11 3.235255 1_655
K1 N2 2.928102 1_555
K1 N6 2.987318 1_565
K1 N6 2.987318 1_455
K1 N3 3.013774 1_555
K1 N5 3.226039 1_555
K1 N10 3.235254 1_565
K1 N9 3.235255 1_455
K2 N1 2.928102 1_645
K2 N5 2.987318 1_655
K2 N5 2.987318 1_545
K2 N0 3.013774 1_554
K2 N6 3.226039 1_555
K2 N9 3.235254 1_555
K2 N10 3.235255 1_555
K3 N0 2.928102 1_465
K3 N4 2.987318 1_455
K3 N4 2.987318 1_565
K3 N1 3.013774 1_556
K3 N7 3.226039 1_555
K3 N11 3.235254 1_555
K3 N8 3.235255 1_555
Ba0 N7 2.793431 1_645
Ba0 N2 2.834262 1_555
Ba0 N11 2.873199 1_655
Ba0 N8 2.873200 1_545
Ba0 N6 2.873894 1_555
Ba0 N3 3.003498 1_655
Ba0 N3 3.003498 1_545
Ba1 N6 2.793431 1_465
Ba1 N3 2.834262 1_555
Ba1 N9 2.873199 1_455
Ba1 N10 2.873200 1_565
Ba1 N7 2.873894 1_555
Ba1 N2 3.003498 1_455
Ba1 N2 3.003498 1_565
Ba2 N5 2.793431 1_555
Ba2 N0 2.834262 1_554
Ba2 N10 2.873199 1_555
Ba2 N9 2.873200 1_555
Ba2 N4 2.873894 1_554
Ba2 N1 3.003498 1_545
Ba2 N1 3.003498 1_655
Ba3 N4 2.793431 1_555
Ba3 N1 2.834262 1_556
Ba3 N8 2.873199 1_555
Ba3 N11 2.873200 1_555
Ba3 N5 2.873894 1_556
Ba3 N0 3.003498 1_565
Ba3 N0 3.003498 1_455
N0 Tc0 1.801492 1_555
N1 Tc1 1.801492 1_555
N2 Tc2 1.801492 1_555
N3 Tc3 1.801492 1_555
N4 Tc0 1.767251 1_555
N5 Tc1 1.767251 1_555
N6 Tc2 1.767251 1_555
N7 Tc3 1.767251 1_555
N8 Tc0 1.890134 1_565
N8 Tc3 1.890134 1_555
N9 Tc2 1.890134 1_555
N9 Tc1 1.890134 1_655
N10 Tc1 1.890134 1_545
N10 Tc2 1.890134 1_555
N11 Tc3 1.890134 1_555
N11 Tc0 1.890134 1_455
