# generated using pymatgen
data_Hf16Nb3Ni4Ir
_symmetry_space_group_name_H-M   'P 1'
_cell_length_a   8.67796156
_cell_length_b   8.67796118
_cell_length_c   8.67796144
_cell_angle_alpha   60.26532227
_cell_angle_beta   60.26532842
_cell_angle_gamma   60.26532578
_symmetry_Int_Tables_number   1
_chemical_formula_structural   Hf16Nb3Ni4Ir
_chemical_formula_sum   'Hf16 Nb3 Ni4 Ir1'
_cell_volume   464.87744522
_cell_formula_units_Z   1
loop_
 _symmetry_equiv_pos_site_id
 _symmetry_equiv_pos_as_xyz
  1  'x, y, z'
loop_
 _atom_site_type_symbol
 _atom_site_label
 _atom_site_symmetry_multiplicity
 _atom_site_fract_x
 _atom_site_fract_y
 _atom_site_fract_z
 _atom_site_occupancy
  Hf  Hf0  1  0.69857546  0.10081867  0.10081867  1
  Hf  Hf1  1  0.10081867  0.69857546  0.10081867  1
  Hf  Hf2  1  0.10081867  0.10081867  0.69857546  1
  Hf  Hf3  1  0.10101018  0.10101018  0.10101018  1
  Hf  Hf4  1  0.31416244  0.31416244  0.68344185  1
  Hf  Hf5  1  0.68546829  0.68546829  0.31452845  1
  Hf  Hf6  1  0.31416244  0.68344185  0.31416244  1
  Hf  Hf7  1  0.68546829  0.31452845  0.68546829  1
  Hf  Hf8  1  0.68344185  0.31416244  0.31416244  1
  Hf  Hf9  1  0.31452845  0.68546829  0.68546829  1
  Hf  Hf10  1  0.95002576  0.95002576  0.54950285  1
  Hf  Hf11  1  0.55016626  0.55016626  0.94941702  1
  Hf  Hf12  1  0.95002576  0.54950285  0.95002576  1
  Hf  Hf13  1  0.55016626  0.94941702  0.55016626  1
  Hf  Hf14  1  0.54950285  0.95002576  0.95002576  1
  Hf  Hf15  1  0.94941702  0.55016626  0.55016626  1
  Nb  Nb0  1  0.00052924  0.33360155  0.33360155  1
  Nb  Nb1  1  0.33360155  0.00052924  0.33360155  1
  Nb  Nb2  1  0.33360155  0.33360155  0.00052924  1
  Ni  Ni0  1  0.32589759  0.89017907  0.89017907  1
  Ni  Ni1  1  0.89017907  0.32589759  0.89017907  1
  Ni  Ni2  1  0.89017907  0.89017907  0.32589759  1
  Ni  Ni3  1  0.89157297  0.89157297  0.89157297  1
  Ir  Ir0  1  0.33667830  0.33667830  0.33667830  1
loop_
_geom_bond_atom_site_label_1
_geom_bond_atom_site_label_2
_geom_bond_distance
_geom_bond_site_symmetry_2
Hf0 Ni2 2.566332 1_545
Hf0 Ni1 2.566332 1_554
Hf0 Ni3 2.576179 1_544
Hf0 Nb2 3.084345 1_555
Hf0 Nb1 3.084345 1_555
Hf0 Ir0 3.105562 1_555
Hf0 Hf8 3.128940 1_555
Hf0 Hf5 3.163944 1_545
Hf0 Hf7 3.163944 1_554
Hf1 Ni0 2.566332 1_554
Hf1 Ni2 2.566332 1_455
Hf1 Ni3 2.576179 1_454
Hf1 Nb0 3.084345 1_555
Hf1 Nb2 3.084345 1_555
Hf1 Ir0 3.105562 1_555
Hf1 Hf6 3.128940 1_555
Hf1 Hf9 3.163945 1_554
Hf1 Hf5 3.163945 1_455
Hf2 Ni0 2.566332 1_545
Hf2 Ni1 2.566332 1_455
Hf2 Ni3 2.576179 1_445
Hf2 Nb0 3.084345 1_555
Hf2 Nb1 3.084345 1_555
Hf2 Ir0 3.105562 1_555
Hf2 Hf4 3.128940 1_555
Hf2 Hf9 3.163945 1_545
Hf2 Hf7 3.163945 1_455
Hf3 Ni1 2.596171 1_454
Hf3 Ni2 2.596171 1_445
Hf3 Ni0 2.596171 1_544
Hf3 Nb1 3.075374 1_555
Hf3 Nb2 3.075374 1_555
Hf3 Nb0 3.075374 1_555
Hf3 Hf6 3.173317 1_545
Hf3 Hf4 3.173317 1_554
Hf3 Hf8 3.173317 1_455
Hf4 Ir0 2.828960 1_555
Hf4 Nb2 2.928780 1_556
Hf4 Ni0 3.166704 1_545
Hf4 Ni1 3.166705 1_455
Hf4 Hf6 3.217435 1_555
Hf4 Hf8 3.217436 1_555
Hf4 Hf9 3.232517 1_555
Hf4 Hf7 3.232517 1_555
Hf5 Nb0 2.914192 1_655
Hf5 Nb1 2.914192 1_565
Hf5 Ni2 3.130442 1_555
Hf5 Ni3 3.165275 1_554
Hf5 Hf7 3.231902 1_555
Hf5 Hf9 3.231903 1_555
Hf5 Hf8 3.232517 1_555
Hf5 Hf6 3.232517 1_555
Hf6 Ir0 2.828960 1_555
Hf6 Nb1 2.928780 1_565
Hf6 Ni0 3.166704 1_554
Hf6 Ni2 3.166704 1_455
Hf6 Hf8 3.217436 1_555
Hf6 Hf9 3.232517 1_555
Hf7 Nb0 2.914192 1_655
Hf7 Nb2 2.914192 1_556
Hf7 Ni1 3.130442 1_555
Hf7 Ni3 3.165275 1_545
Hf7 Hf9 3.231902 1_555
Hf7 Hf8 3.232517 1_555
Hf8 Ir0 2.828960 1_555
Hf8 Nb0 2.928781 1_655
Hf8 Ni2 3.166704 1_545
Hf8 Ni1 3.166705 1_554
Hf9 Nb2 2.914192 1_556
Hf9 Nb1 2.914192 1_565
Hf9 Ni0 3.130443 1_555
Hf9 Ni3 3.165276 1_455
Hf10 Ni2 2.563519 1_555
Hf10 Ni3 2.567943 1_555
Hf10 Nb0 3.037845 1_665
Hf10 Nb1 3.037846 1_665
Hf10 Hf9 3.237263 1_655
Hf10 Hf7 3.237264 1_565
Hf10 Hf8 3.246770 1_565
Hf10 Hf6 3.246770 1_655
Hf11 Ni0 2.559206 1_555
Hf11 Ni1 2.559206 1_555
Hf11 Nb2 3.018337 1_556
Hf11 Ir0 3.034972 1_556
Hf11 Hf8 3.225235 1_556
Hf11 Hf6 3.225235 1_556
Hf11 Hf9 3.225417 1_555
Hf11 Hf7 3.225417 1_555
Hf12 Ni1 2.563519 1_555
Hf12 Ni3 2.567943 1_555
Hf12 Nb0 3.037846 1_656
Hf12 Nb2 3.037846 1_656
Hf12 Hf9 3.237264 1_655
Hf12 Hf5 3.237264 1_556
Hf12 Hf8 3.246770 1_556
Hf12 Hf4 3.246770 1_655
Hf13 Ni0 2.559206 1_555
Hf13 Ni2 2.559206 1_555
Hf13 Nb1 3.018337 1_565
Hf13 Ir0 3.034972 1_565
Hf13 Hf8 3.225235 1_565
Hf13 Hf4 3.225235 1_565
Hf13 Hf9 3.225417 1_555
Hf13 Hf5 3.225417 1_555
Hf14 Ni0 2.563519 1_555
Hf14 Ni3 2.567943 1_555
Hf14 Nb2 3.037846 1_566
Hf14 Nb1 3.037846 1_566
Hf14 Hf5 3.237263 1_556
Hf14 Hf7 3.237263 1_565
Hf14 Hf4 3.246770 1_565
Hf14 Hf6 3.246770 1_556
Hf15 Ni2 2.559206 1_555
Hf15 Ni1 2.559206 1_555
Hf15 Nb0 3.018337 1_655
Hf15 Ir0 3.034972 1_655
Hf15 Hf4 3.225235 1_655
Hf15 Hf6 3.225235 1_655
Hf15 Hf5 3.225417 1_555
Hf15 Hf7 3.225417 1_555
Nb0 Nb1 2.901973 1_555
Nb0 Nb2 2.901973 1_555
Nb1 Nb2 2.901972 1_555
Ir0 Nb1 2.943817 1_555
Ir0 Nb2 2.943817 1_555
Ir0 Nb0 2.943817 1_555
