# generated using pymatgen
data_Zr(TeCl)6
_symmetry_space_group_name_H-M   'P 1'
_cell_length_a   11.38149100
_cell_length_b   11.44097100
_cell_length_c   13.14108200
_cell_angle_alpha   90.00000000
_cell_angle_beta   90.00000000
_cell_angle_gamma   90.00000000
_symmetry_Int_Tables_number   1
_chemical_formula_structural   Zr(TeCl)6
_chemical_formula_sum   'Zr4 Te24 Cl24'
_cell_volume   1711.17004623
_cell_formula_units_Z   4
loop_
 _symmetry_equiv_pos_site_id
 _symmetry_equiv_pos_as_xyz
  1  'x, y, z'
loop_
 _atom_site_type_symbol
 _atom_site_label
 _atom_site_symmetry_multiplicity
 _atom_site_fract_x
 _atom_site_fract_y
 _atom_site_fract_z
 _atom_site_occupancy
  Zr  Zr0  1  0.73684800  0.20745300  0.25000000  1
  Zr  Zr1  1  0.26315200  0.70745300  0.25000000  1
  Zr  Zr2  1  0.73684800  0.29254700  0.75000000  1
  Zr  Zr3  1  0.26315200  0.79254700  0.75000000  1
  Te  Te0  1  0.72598900  0.75814700  0.25000000  1
  Te  Te1  1  0.27401100  0.25814700  0.25000000  1
  Te  Te2  1  0.72598900  0.74185300  0.75000000  1
  Te  Te3  1  0.27401100  0.24185300  0.75000000  1
  Te  Te4  1  0.02370700  0.25000000  0.50000000  1
  Te  Te5  1  0.97629300  0.75000000  0.00000000  1
  Te  Te6  1  0.97629300  0.75000000  0.50000000  1
  Te  Te7  1  0.02370700  0.25000000  0.00000000  1
  Te  Te8  1  0.38586200  0.36459700  0.46853700  1
  Te  Te9  1  0.61413800  0.86459700  0.03146300  1
  Te  Te10  1  0.38586200  0.13540300  0.53146300  1
  Te  Te11  1  0.61413800  0.63540300  0.96853700  1
  Te  Te12  1  0.61413800  0.63540300  0.53146300  1
  Te  Te13  1  0.38586200  0.13540300  0.96853700  1
  Te  Te14  1  0.61413800  0.86459700  0.46853700  1
  Te  Te15  1  0.38586200  0.36459700  0.03146300  1
  Te  Te16  1  0.18476300  0.39908400  0.59634700  1
  Te  Te17  1  0.81523700  0.89908400  0.90365300  1
  Te  Te18  1  0.18476300  0.10091600  0.40365300  1
  Te  Te19  1  0.81523700  0.60091600  0.09634700  1
  Te  Te20  1  0.81523700  0.60091600  0.40365300  1
  Te  Te21  1  0.18476300  0.10091600  0.09634700  1
  Te  Te22  1  0.81523700  0.89908400  0.59634700  1
  Te  Te23  1  0.18476300  0.39908400  0.90365300  1
  Cl  Cl0  1  0.84355900  0.09042500  0.11499200  1
  Cl  Cl1  1  0.15644100  0.59042500  0.38500800  1
  Cl  Cl2  1  0.84355900  0.40957500  0.88500800  1
  Cl  Cl3  1  0.15644100  0.90957500  0.61499200  1
  Cl  Cl4  1  0.15644100  0.90957500  0.88500800  1
  Cl  Cl5  1  0.84355900  0.40957500  0.61499200  1
  Cl  Cl6  1  0.15644100  0.59042500  0.11499200  1
  Cl  Cl7  1  0.84355900  0.09042500  0.38500800  1
  Cl  Cl8  1  0.63564800  0.32826100  0.38165700  1
  Cl  Cl9  1  0.36435200  0.82826100  0.11834300  1
  Cl  Cl10  1  0.63564800  0.17173900  0.61834300  1
  Cl  Cl11  1  0.36435200  0.67173900  0.88165700  1
  Cl  Cl12  1  0.36435200  0.67173900  0.61834300  1
  Cl  Cl13  1  0.63564800  0.17173900  0.88165700  1
  Cl  Cl14  1  0.36435200  0.82826100  0.38165700  1
  Cl  Cl15  1  0.63564800  0.32826100  0.11834300  1
  Cl  Cl16  1  0.09848400  0.65471500  0.75000000  1
  Cl  Cl17  1  0.90151600  0.15471500  0.75000000  1
  Cl  Cl18  1  0.09848400  0.84528500  0.25000000  1
  Cl  Cl19  1  0.90151600  0.34528500  0.25000000  1
  Cl  Cl20  1  0.41951300  0.94291200  0.75000000  1
  Cl  Cl21  1  0.58048700  0.44291200  0.75000000  1
  Cl  Cl22  1  0.41951300  0.55708800  0.25000000  1
  Cl  Cl23  1  0.58048700  0.05708800  0.25000000  1
loop_
_geom_bond_atom_site_label_1
_geom_bond_atom_site_label_2
_geom_bond_distance
_geom_bond_site_symmetry_2
Te0 Te20 2.888734 1_555
Te0 Te19 2.888734 1_555
Te0 Te14 3.369151 1_555
Te0 Te9 3.369151 1_555
Te1 Te21 2.888734 1_555
Te1 Te18 2.888734 1_555
Te1 Te8 3.369151 1_555
Te1 Te15 3.369151 1_555
Te2 Te22 2.888734 1_555
Te10 Te8 2.749497 1_555
Te10 Te18 2.866225 1_555
Te10 Te3 3.369151 1_555
Te11 Te9 2.749497 1_556
Te11 Te19 2.866225 1_556
Te11 Te2 3.369151 1_555
Te12 Te14 2.749497 1_555
Te12 Te20 2.866225 1_555
Te12 Te2 3.369151 1_555
Te13 Te15 2.749497 1_556
Te13 Te21 2.866225 1_556
Te13 Te3 3.369151 1_555
Te14 Te22 2.866225 1_555
Te15 Te23 2.866225 1_554
Te16 Te4 2.805782 1_555
Te16 Te8 2.866225 1_555
Te16 Te3 2.888734 1_555
Te17 Te5 2.805782 1_556
Te17 Te9 2.866225 1_556
Te17 Te2 2.888734 1_555
Te18 Te4 2.805782 1_555
Te19 Te5 2.805782 1_555
Te20 Te6 2.805782 1_555
Te21 Te7 2.805782 1_555
Te22 Te6 2.805782 1_555
Te23 Te7 2.805782 1_556
Te23 Te3 2.888734 1_555
Cl0 Zr0 2.532861 1_555
Cl0 Te7 3.133781 1_655
Cl1 Zr1 2.532861 1_555
Cl1 Te6 3.133781 1_455
Cl2 Zr2 2.532861 1_555
Cl2 Te7 3.133781 1_656
Cl3 Zr3 2.532861 1_555
Cl3 Te6 3.133781 1_455
Cl4 Zr3 2.532861 1_555
Cl4 Te5 3.133781 1_456
Cl5 Zr2 2.532861 1_555
Cl5 Te4 3.133781 1_655
Cl6 Zr1 2.532861 1_555
Cl6 Te5 3.133781 1_455
Cl7 Zr0 2.532861 1_555
Cl7 Te4 3.133781 1_655
Cl8 Zr0 2.496062 1_555
Cl8 Te8 3.091696 1_555
Cl9 Zr1 2.496062 1_555
Cl9 Te9 3.091696 1_555
Cl10 Zr2 2.496062 1_555
Cl10 Te10 3.091696 1_555
Cl11 Zr3 2.496062 1_555
Cl11 Te11 3.091696 1_555
Cl12 Zr3 2.496062 1_555
Cl12 Te12 3.091696 1_555
Cl13 Zr2 2.496062 1_555
Cl13 Te13 3.091696 1_555
Cl14 Zr1 2.496062 1_555
Cl14 Te14 3.091696 1_555
Cl15 Zr0 2.496062 1_555
Cl15 Te15 3.091696 1_555
Cl16 Zr3 2.449330 1_555
Cl17 Zr2 2.449330 1_555
Cl18 Zr1 2.449330 1_555
Cl19 Zr0 2.449330 1_555
Cl20 Zr3 2.475189 1_555
Cl21 Zr2 2.475189 1_555
Cl22 Zr1 2.475189 1_555
Cl23 Zr0 2.475189 1_555
