# generated using pymatgen
data_NiAg2RhF7
_symmetry_space_group_name_H-M   'P 1'
_cell_length_a   7.40370047
_cell_length_b   7.40371329
_cell_length_c   7.40357915
_cell_angle_alpha   120.36757663
_cell_angle_beta   117.50471454
_cell_angle_gamma   91.86923072
_symmetry_Int_Tables_number   1
_chemical_formula_structural   NiAg2RhF7
_chemical_formula_sum   'Ni2 Ag4 Rh2 F14'
_cell_volume   291.19258720
_cell_formula_units_Z   2
loop_
 _symmetry_equiv_pos_site_id
 _symmetry_equiv_pos_as_xyz
  1  'x, y, z'
loop_
 _atom_site_type_symbol
 _atom_site_label
 _atom_site_symmetry_multiplicity
 _atom_site_fract_x
 _atom_site_fract_y
 _atom_site_fract_z
 _atom_site_occupancy
  Ni  Ni0  1  0.50000000  0.50000000  0.50000000  1
  Ni  Ni1  1  0.50000000  0.00000000  0.00000000  1
  Ag  Ag0  1  0.50000000  0.50000000  0.00000000  1
  Ag  Ag1  1  0.00000000  0.00000000  0.00000000  1
  Ag  Ag2  1  0.00000000  0.50000000  0.00000000  1
  Ag  Ag3  1  0.00000000  0.00000000  0.50000000  1
  Rh  Rh0  1  0.00000000  0.50000000  0.50000000  1
  Rh  Rh1  1  0.50000000  0.00000000  0.50000000  1
  F  F0  1  0.87304079  0.59718737  0.27584136  1
  F  F1  1  0.17865962  0.90280904  0.27585075  1
  F  F2  1  0.18290504  0.82028290  0.76943579  1
  F  F3  1  0.44914149  0.67971238  0.36261461  1
  F  F4  1  0.44916760  0.08656014  0.76946020  1
  F  F5  1  0.18291054  0.41345742  0.36262710  1
  F  F6  1  0.81708946  0.58654258  0.63737290  1
  F  F7  1  0.55083240  0.91343986  0.23053980  1
  F  F8  1  0.55085851  0.32028762  0.63738539  1
  F  F9  1  0.81709496  0.17971710  0.23056421  1
  F  F10  1  0.41031168  0.24998109  0.16032986  1
  F  F11  1  0.12695921  0.40281263  0.72415864  1
  F  F12  1  0.82134038  0.09719096  0.72414925  1
  F  F13  1  0.58968832  0.75001891  0.83967014  1
loop_
_geom_bond_atom_site_label_1
_geom_bond_atom_site_label_2
_geom_bond_distance
_geom_bond_site_symmetry_2
Ag0 F0 2.343350 1_555
Ag0 F11 2.343350 1_554
Ag0 F7 2.544320 1_555
Ag0 F4 2.544320 1_554
Ag0 F8 2.544440 1_554
Ag0 F3 2.544440 1_555
Ag1 F12 2.343326 1_454
Ag1 F1 2.343326 1_545
Ag1 F5 2.544441 1_555
Ag1 F6 2.544441 1_444
Ag1 F9 2.544445 1_455
Ag1 F2 2.544445 1_544
Ag2 F0 2.429675 1_455
Ag2 F11 2.429675 1_554
Ag2 F1 2.429788 1_555
Ag2 F12 2.429788 1_454
Ag3 F1 2.429732 1_545
Ag3 F12 2.429732 1_455
Ag3 F0 2.429799 1_445
Ag3 F11 2.429799 1_555
F0 Rh0 1.991521 1_655
F1 Rh1 1.991522 1_565
F2 Rh0 1.987150 1_555
F2 Ni1 1.998527 1_566
F3 Rh1 1.987156 1_565
F3 Ni0 1.998497 1_555
F4 Rh1 1.987152 1_555
F4 Ni1 1.998495 1_556
F5 Rh0 1.987131 1_555
F5 Ni0 1.998489 1_555
F6 Rh0 1.987131 1_655
F6 Ni0 1.998489 1_555
F7 Rh1 1.987152 1_565
F7 Ni1 1.998495 1_565
F8 Rh1 1.987156 1_555
F8 Ni0 1.998497 1_555
F9 Rh0 1.987150 1_655
F9 Ni1 1.998527 1_555
F10 Ni1 1.965266 1_555
F10 Ni0 1.965266 1_555
F11 Rh0 1.991521 1_555
F12 Rh1 1.991522 1_555
F13 Ni1 1.965266 1_566
F13 Ni0 1.965266 1_555
