# generated using pymatgen
data_YAlSi
_symmetry_space_group_name_H-M   'P 1'
_cell_length_a   3.98024695
_cell_length_b   5.53916600
_cell_length_c   5.70503156
_cell_angle_alpha   90.00000000
_cell_angle_beta   90.00000000
_cell_angle_gamma   111.05610560
_symmetry_Int_Tables_number   1
_chemical_formula_structural   YAlSi
_chemical_formula_sum   'Y2 Al2 Si2'
_cell_volume   117.38178293
_cell_formula_units_Z   2
loop_
 _symmetry_equiv_pos_site_id
 _symmetry_equiv_pos_as_xyz
  1  'x, y, z'
loop_
 _atom_site_type_symbol
 _atom_site_label
 _atom_site_symmetry_multiplicity
 _atom_site_fract_x
 _atom_site_fract_y
 _atom_site_fract_z
 _atom_site_occupancy
  Y  Y0  1  0.69480264  0.38960528  0.25000000  1
  Y  Y1  1  0.30519736  0.61039472  0.75000000  1
  Al  Al0  1  -0.00000000  -0.00000000  0.50000000  1
  Al  Al1  1  -0.00000000  -0.00000000  0.00000000  1
  Si  Si0  1  0.59830685  0.19661370  0.75000000  1
  Si  Si1  1  0.40169315  0.80338630  0.25000000  1
loop_
_geom_bond_atom_site_label_1
_geom_bond_atom_site_label_2
_geom_bond_distance
_geom_bond_site_symmetry_2
Al0 Si1 2.650997 1_545
Al0 Si0 2.650997 1_455
Al0 Si1 2.650997 1_445
Al0 Si0 2.650997 1_555
Al0 Y1 3.170325 1_545
Al0 Y0 3.170325 1_455
Al0 Y0 3.170325 1_555
Al0 Y1 3.170325 1_445
Al1 Si1 2.650997 1_545
Al1 Si0 2.650997 1_454
Al1 Si1 2.650997 1_445
Al1 Si0 2.650997 1_554
Al1 Y1 3.170325 1_544
Al1 Y0 3.170325 1_455
Al1 Y0 3.170325 1_555
Al1 Y1 3.170325 1_444
Si0 Y1 2.921601 1_555
Si0 Y1 2.921601 1_655
Si0 Y0 3.021940 1_556
Si0 Y0 3.021940 1_555
Si0 Y1 3.030348 1_545
Si1 Y0 2.921601 1_555
Si1 Y0 2.921601 1_455
Si1 Y1 3.021940 1_555
Si1 Y1 3.021940 1_554
Si1 Y0 3.030348 1_565
