# generated using pymatgen
data_RbBe3VF9
_symmetry_space_group_name_H-M   'P 1'
_cell_length_a   6.71315124
_cell_length_b   6.71315077
_cell_length_c   9.81143835
_cell_angle_alpha   90.00000000
_cell_angle_beta   90.00000000
_cell_angle_gamma   119.99999764
_symmetry_Int_Tables_number   1
_chemical_formula_structural   RbBe3VF9
_chemical_formula_sum   'Rb2 Be6 V2 F18'
_cell_volume   382.92714504
_cell_formula_units_Z   2
loop_
 _symmetry_equiv_pos_site_id
 _symmetry_equiv_pos_as_xyz
  1  'x, y, z'
loop_
 _atom_site_type_symbol
 _atom_site_label
 _atom_site_symmetry_multiplicity
 _atom_site_fract_x
 _atom_site_fract_y
 _atom_site_fract_z
 _atom_site_occupancy
  Rb  Rb0  1  0.33333300  0.66666700  0.50000000  1
  Rb  Rb1  1  0.33333300  0.66666700  0.00000000  1
  Be  Be0  1  0.88056574  0.27317856  0.25000000  1
  Be  Be1  1  0.88056574  0.60738718  0.75000000  1
  Be  Be2  1  0.39261282  0.27317856  0.75000000  1
  Be  Be3  1  0.72682144  0.11943426  0.75000000  1
  Be  Be4  1  0.72682144  0.60738718  0.25000000  1
  Be  Be5  1  0.39261282  0.11943426  0.25000000  1
  V  V0  1  0.00000000  0.00000000  0.50000000  1
  V  V1  1  0.00000000  0.00000000  0.00000000  1
  F  F0  1  0.74768386  0.00367994  0.62055978  1
  F  F1  1  0.25599607  0.25231614  0.62055978  1
  F  F2  1  0.99632006  0.74400393  0.62055978  1
  F  F3  1  0.99632006  0.25231614  0.37944022  1
  F  F4  1  0.90579099  0.52090169  0.25000000  1
  F  F5  1  0.61511070  0.09420901  0.25000000  1
  F  F6  1  0.47909831  0.38488930  0.25000000  1
  F  F7  1  0.47909831  0.09420901  0.75000000  1
  F  F8  1  0.61511070  0.52090169  0.75000000  1
  F  F9  1  0.90579099  0.38488930  0.75000000  1
  F  F10  1  0.99632006  0.25231614  0.12055978  1
  F  F11  1  0.25599607  0.00367994  0.37944022  1
  F  F12  1  0.74768386  0.74400393  0.37944022  1
  F  F13  1  0.74768386  0.74400393  0.12055978  1
  F  F14  1  0.25599607  0.00367994  0.12055978  1
  F  F15  1  0.74768386  0.00367994  0.87944022  1
  F  F16  1  0.25599607  0.25231614  0.87944022  1
  F  F17  1  0.99632006  0.74400393  0.87944022  1
loop_
_geom_bond_atom_site_label_1
_geom_bond_atom_site_label_2
_geom_bond_distance
_geom_bond_site_symmetry_2
Be0 F10 1.531398 1_555
Be0 F3 1.531398 1_555
Be0 F5 1.574203 1_555
Be0 F4 1.585131 1_555
Be1 F2 1.531398 1_555
Be1 F17 1.531398 1_555
Be1 F8 1.574203 1_555
Be1 F9 1.585131 1_555
Be2 F1 1.531398 1_555
Be2 F16 1.531398 1_555
Be2 F7 1.574203 1_555
Be2 F8 1.585131 1_555
Be3 F0 1.531398 1_555
Be3 F15 1.531398 1_555
Be3 F9 1.574203 1_555
Be3 F7 1.585131 1_555
Be4 F13 1.531398 1_555
Be4 F12 1.531398 1_555
Be4 F4 1.574203 1_555
Be4 F6 1.585131 1_555
Be5 F14 1.531398 1_555
Be5 F11 1.531398 1_555
Be5 F6 1.574203 1_555
Be5 F5 1.585131 1_555
F0 V0 2.076224 1_655
F0 Rb0 2.821677 1_545
F1 V0 2.076224 1_555
F1 Rb0 2.821679 1_555
F2 V0 2.076224 1_665
F2 Rb0 2.821673 1_655
F3 V0 2.076224 1_655
F3 Rb0 2.821677 1_655
F10 V1 2.076224 1_655
F10 Rb1 2.821677 1_655
F11 V0 2.076224 1_555
F11 Rb0 2.821673 1_545
F12 V0 2.076224 1_665
F12 Rb0 2.821679 1_555
F13 V1 2.076224 1_665
F13 Rb1 2.821679 1_555
F14 V1 2.076224 1_555
F14 Rb1 2.821673 1_545
F15 V1 2.076224 1_656
F15 Rb1 2.821677 1_546
F16 V1 2.076224 1_556
F16 Rb1 2.821679 1_556
F17 V1 2.076224 1_666
F17 Rb1 2.821673 1_656
