# generated using pymatgen
data_Na2Ta4O11
_symmetry_space_group_name_H-M   'P 1'
_cell_length_a   12.75042520
_cell_length_b   12.75042520
_cell_length_c   12.75042475
_cell_angle_alpha   28.22657600
_cell_angle_beta   28.22657600
_cell_angle_gamma   28.22657941
_symmetry_Int_Tables_number   1
_chemical_formula_structural   Na2Ta4O11
_chemical_formula_sum   'Na4 Ta8 O22'
_cell_volume   409.67434156
_cell_formula_units_Z   2
loop_
 _symmetry_equiv_pos_site_id
 _symmetry_equiv_pos_as_xyz
  1  'x, y, z'
loop_
 _atom_site_type_symbol
 _atom_site_label
 _atom_site_symmetry_multiplicity
 _atom_site_fract_x
 _atom_site_fract_y
 _atom_site_fract_z
 _atom_site_occupancy
  Na  Na0  1  0.16544653  0.16544653  0.16544653  1
  Na  Na1  1  0.33455347  0.33455347  0.33455347  1
  Na  Na2  1  0.83455347  0.83455347  0.83455347  1
  Na  Na3  1  0.66544653  0.66544653  0.66544653  1
  Ta  Ta0  1  0.61315574  0.25000000  0.88684426  1
  Ta  Ta1  1  0.88684426  0.61315574  0.25000000  1
  Ta  Ta2  1  0.50000000  0.50000000  0.50000000  1
  Ta  Ta3  1  -0.00000000  0.00000000  0.00000000  1
  Ta  Ta4  1  0.25000000  0.88684426  0.61315574  1
  Ta  Ta5  1  0.11315574  0.38684426  0.75000000  1
  Ta  Ta6  1  0.38684426  0.75000000  0.11315574  1
  Ta  Ta7  1  0.75000000  0.11315574  0.38684426  1
  O  O0  1  0.43807398  0.74712720  0.22294839  1
  O  O1  1  0.22294839  0.43807398  0.74712720  1
  O  O2  1  0.74712720  0.22294839  0.43807398  1
  O  O3  1  0.06192602  0.27705161  0.75287280  1
  O  O4  1  0.75287280  0.06192602  0.27705161  1
  O  O5  1  0.27705161  0.75287280  0.06192602  1
  O  O6  1  0.56192602  0.25287280  0.77705161  1
  O  O7  1  0.77705161  0.56192602  0.25287280  1
  O  O8  1  0.25287280  0.77705161  0.56192602  1
  O  O9  1  0.93807398  0.72294839  0.24712720  1
  O  O10  1  0.24712720  0.93807398  0.72294839  1
  O  O11  1  0.72294839  0.24712720  0.93807398  1
  O  O12  1  0.49814333  0.00185667  0.25000000  1
  O  O13  1  0.00185667  0.25000000  0.49814333  1
  O  O14  1  0.25000000  0.49814333  0.00185667  1
  O  O15  1  0.50185667  0.99814333  0.75000000  1
  O  O16  1  0.99814333  0.75000000  0.50185667  1
  O  O17  1  0.75000000  0.50185667  0.99814333  1
  O  O18  1  0.09397961  0.09397961  0.09397961  1
  O  O19  1  0.40602039  0.40602039  0.40602039  1
  O  O20  1  0.90602039  0.90602039  0.90602039  1
  O  O21  1  0.59397961  0.59397961  0.59397961  1
loop_
_geom_bond_atom_site_label_1
_geom_bond_atom_site_label_2
_geom_bond_distance
_geom_bond_site_symmetry_2
Na0 O1 2.449061 1_554
Na0 O2 2.449062 1_455
Na0 O0 2.449062 1_545
Na0 O18 2.623103 1_555
Na0 O8 2.722091 1_545
Na0 O6 2.722091 1_554
Na0 O7 2.722091 1_455
Na1 O3 2.449061 1_555
Na1 O5 2.449062 1_555
Na1 O4 2.449062 1_555
Na1 O19 2.623103 1_555
Na1 O11 2.722091 1_554
Na1 O10 2.722091 1_545
Na1 O9 2.722091 1_455
Na2 O7 2.449061 1_556
Na2 O8 2.449062 1_655
Na2 O6 2.449062 1_565
Na2 O20 2.623103 1_555
Na2 O2 2.722091 1_565
Na2 O0 2.722091 1_556
Na2 O1 2.722091 1_655
Na3 O9 2.449061 1_555
Na3 O11 2.449062 1_555
Na3 O10 2.449062 1_555
Na3 O21 2.623103 1_555
Na3 O5 2.722091 1_556
Na3 O4 2.722091 1_565
Na3 O3 2.722091 1_655
O0 Ta6 1.966361 1_555
O0 Ta2 1.986752 1_555
O1 Ta5 1.966361 1_555
O1 Ta2 1.986752 1_555
O2 Ta7 1.966361 1_555
O2 Ta2 1.986752 1_555
O3 Ta5 1.966361 1_555
O3 Ta3 1.986752 1_556
O4 Ta7 1.966361 1_555
O4 Ta3 1.986752 1_655
O5 Ta6 1.966361 1_555
O5 Ta3 1.986752 1_565
O6 Ta0 1.966361 1_555
O6 Ta2 1.986752 1_555
O7 Ta1 1.966361 1_555
O7 Ta2 1.986752 1_555
O8 Ta4 1.966361 1_555
O8 Ta2 1.986752 1_555
O9 Ta1 1.966361 1_555
O9 Ta3 1.986752 1_665
O10 Ta4 1.966361 1_555
O10 Ta3 1.986752 1_566
O11 Ta0 1.966361 1_555
O11 Ta3 1.986752 1_656
O12 Ta0 1.998937 1_554
O12 Ta4 1.998937 1_545
O12 Ta1 2.416992 1_545
O13 Ta1 1.998937 1_455
O13 Ta4 1.998937 1_545
O13 Ta0 2.416991 1_455
O14 Ta1 1.998937 1_455
O14 Ta0 1.998937 1_554
O14 Ta4 2.416991 1_554
O15 Ta7 1.998937 1_565
O15 Ta6 1.998937 1_556
O15 Ta5 2.416992 1_565
O16 Ta5 1.998937 1_655
O16 Ta7 1.998937 1_565
O16 Ta6 2.416991 1_655
O17 Ta5 1.998937 1_655
O17 Ta6 1.998937 1_556
O17 Ta7 2.416991 1_556
O18 Ta5 2.024559 1_554
O18 Ta7 2.024559 1_455
O18 Ta6 2.024559 1_545
O19 Ta5 2.024559 1_555
O19 Ta6 2.024559 1_555
O19 Ta7 2.024559 1_555
O20 Ta1 2.024559 1_556
O20 Ta4 2.024559 1_655
O20 Ta0 2.024559 1_565
O21 Ta1 2.024559 1_555
O21 Ta0 2.024559 1_555
O21 Ta4 2.024559 1_555
