# generated using pymatgen
data_SnHg2WO7
_symmetry_space_group_name_H-M   'P 1'
_cell_length_a   7.40804195
_cell_length_b   7.40804247
_cell_length_c   7.40944557
_cell_angle_alpha   59.99373442
_cell_angle_beta   59.99373208
_cell_angle_gamma   59.83004854
_symmetry_Int_Tables_number   1
_chemical_formula_structural   SnHg2WO7
_chemical_formula_sum   'Sn2 Hg4 W2 O14'
_cell_volume   287.12807195
_cell_formula_units_Z   2
loop_
 _symmetry_equiv_pos_site_id
 _symmetry_equiv_pos_as_xyz
  1  'x, y, z'
loop_
 _atom_site_type_symbol
 _atom_site_label
 _atom_site_symmetry_multiplicity
 _atom_site_fract_x
 _atom_site_fract_y
 _atom_site_fract_z
 _atom_site_occupancy
  Sn  Sn0  1  0.62500000  0.12500000  0.62500000  1
  Sn  Sn1  1  0.12500000  0.62500000  0.62500000  1
  Hg  Hg0  1  0.12500000  0.12500000  0.12500000  1
  Hg  Hg1  1  0.62500000  0.12500000  0.12500000  1
  Hg  Hg2  1  0.12500000  0.62500000  0.12500000  1
  Hg  Hg3  1  0.12500000  0.12500000  0.62500000  1
  W  W0  1  0.62500000  0.62500000  0.12500000  1
  W  W1  1  0.62500000  0.62500000  0.62500000  1
  O  O0  1  0.68565411  0.31975457  0.29781977  1
  O  O1  1  0.68565411  0.31975457  0.69677155  1
  O  O2  1  0.98841633  0.98841633  0.01158367  1
  O  O3  1  0.31975457  0.68565411  0.29781977  1
  O  O4  1  0.67703568  0.67703568  0.32296432  1
  O  O5  1  0.93024543  0.56434589  0.55322845  1
  O  O6  1  0.31975457  0.68565411  0.69677155  1
  O  O7  1  0.26158367  0.26158367  0.23841633  1
  O  O8  1  0.93024543  0.56434589  0.95218023  1
  O  O9  1  0.56434589  0.93024543  0.55322845  1
  O  O10  1  0.57296432  0.57296432  0.92703568  1
  O  O11  1  0.95981636  0.95981636  0.54018364  1
  O  O12  1  0.56434589  0.93024543  0.95218023  1
  O  O13  1  0.29018364  0.29018364  0.70981636  1
loop_
_geom_bond_atom_site_label_1
_geom_bond_atom_site_label_2
_geom_bond_distance
_geom_bond_site_symmetry_2
Hg0 O7 2.341722 1_555
Hg0 O2 2.341722 1_445
Hg0 O11 2.536372 1_445
Hg0 O13 2.536372 1_554
Hg0 O12 2.696996 1_544
Hg0 O0 2.696996 1_455
Hg0 O8 2.696996 1_454
Hg0 O3 2.696996 1_545
Hg1 O2 2.197166 1_545
Hg1 O7 2.197166 1_555
Hg2 O2 2.197167 1_455
Hg2 O7 2.197167 1_555
Hg3 O2 2.341722 1_446
Hg3 O7 2.341722 1_555
Hg3 O13 2.536372 1_555
Hg3 O11 2.536372 1_445
Hg3 O9 2.696996 1_545
Hg3 O1 2.696996 1_455
Hg3 O5 2.696996 1_455
Hg3 O6 2.696996 1_545
O0 W0 1.900795 1_555
O0 Sn0 2.055284 1_555
O1 W1 1.900795 1_555
O1 Sn0 2.055284 1_555
O3 W0 1.900795 1_555
O3 Sn1 2.055284 1_555
O4 W0 1.931099 1_555
O4 W1 1.931099 1_555
O5 W1 1.900795 1_555
O5 Sn1 2.055284 1_655
O6 W1 1.900795 1_555
O6 Sn1 2.055284 1_555
O8 W0 1.900795 1_556
O8 Sn1 2.055284 1_655
O9 W1 1.900795 1_555
O9 Sn0 2.055284 1_565
O10 W1 1.931099 1_555
O10 W0 1.931099 1_556
O11 Sn0 2.050315 1_565
O11 Sn1 2.050316 1_655
O12 W0 1.900795 1_556
O12 Sn0 2.055284 1_565
O13 Sn0 2.050315 1_555
O13 Sn1 2.050316 1_555
