# generated using pymatgen
data_CsCoMoF6
_symmetry_space_group_name_H-M   'P 1'
_cell_length_a   7.55243775
_cell_length_b   7.55243769
_cell_length_c   7.55243795
_cell_angle_alpha   120.92191924
_cell_angle_beta   120.04361780
_cell_angle_gamma   89.16754026
_symmetry_Int_Tables_number   1
_chemical_formula_structural   CsCoMoF6
_chemical_formula_sum   'Cs2 Co2 Mo2 F12'
_cell_volume   302.33165795
_cell_formula_units_Z   2
loop_
 _symmetry_equiv_pos_site_id
 _symmetry_equiv_pos_as_xyz
  1  'x, y, z'
loop_
 _atom_site_type_symbol
 _atom_site_label
 _atom_site_symmetry_multiplicity
 _atom_site_fract_x
 _atom_site_fract_y
 _atom_site_fract_z
 _atom_site_occupancy
  Cs  Cs0  1  0.65087321  0.90087321  0.75000000  1
  Cs  Cs1  1  0.34912679  0.09912679  0.25000000  1
  Co  Co0  1  0.00000000  0.50000000  0.00000000  1
  Co  Co1  1  0.00000000  0.00000000  0.50000000  1
  Mo  Mo0  1  0.50000000  0.50000000  0.00000000  1
  Mo  Mo1  1  0.00000000  0.50000000  0.50000000  1
  F  F0  1  0.05962404  0.80962404  0.25000000  1
  F  F1  1  0.66868547  0.41868547  0.25000000  1
  F  F2  1  0.06190686  0.82477124  0.64770505  1
  F  F3  1  0.67706519  0.41420081  0.85229495  1
  F  F4  1  0.67706519  0.82477124  0.26286538  1
  F  F5  1  0.06190686  0.41420081  0.23713462  1
  F  F6  1  0.94037596  0.19037596  0.75000000  1
  F  F7  1  0.33131453  0.58131453  0.75000000  1
  F  F8  1  0.93809314  0.17522876  0.35229495  1
  F  F9  1  0.32293481  0.58579919  0.14770505  1
  F  F10  1  0.32293481  0.17522876  0.73713462  1
  F  F11  1  0.93809314  0.58579919  0.76286538  1
loop_
_geom_bond_atom_site_label_1
_geom_bond_atom_site_label_2
_geom_bond_distance
_geom_bond_site_symmetry_2
Cs0 F6 3.114490 1_565
Cs0 F10 3.202169 1_565
Cs0 F11 3.202170 1_555
Cs0 F9 3.202174 1_555
Cs0 F8 3.202175 1_566
Cs0 F7 3.437834 1_555
Cs1 F0 3.114490 1_545
Cs1 F4 3.202169 1_545
Cs1 F5 3.202170 1_555
Cs1 F3 3.202174 1_555
Cs1 F2 3.202175 1_544
Cs1 F1 3.437834 1_555
Co0 F0 1.969140 1_555
Co0 F6 1.969140 1_454
Co0 F5 2.047298 1_555
Co0 F11 2.047298 1_454
Co0 F3 2.047307 1_454
Co0 F9 2.047307 1_555
Co1 F6 1.969140 1_455
Co1 F0 1.969140 1_545
Co1 F8 2.047299 1_455
Co1 F2 2.047299 1_545
Co1 F10 2.047306 1_555
Co1 F4 2.047306 1_445
F1 Mo0 2.079786 1_555
F1 Mo1 2.079786 1_655
F2 Mo1 2.044087 1_555
F3 Mo0 2.044080 1_556
F4 Mo0 2.044085 1_555
F5 Mo1 2.044092 1_555
F7 Mo0 2.079786 1_556
F7 Mo1 2.079786 1_555
F8 Mo1 2.044087 1_655
F9 Mo0 2.044080 1_555
F10 Mo0 2.044085 1_556
F11 Mo1 2.044092 1_655
