# generated using pymatgen
data_Ti12As4C3N
_symmetry_space_group_name_H-M   'P 1'
_cell_length_a   5.40779923
_cell_length_b   5.40779867
_cell_length_c   16.16167040
_cell_angle_alpha   89.80812648
_cell_angle_beta   89.80812602
_cell_angle_gamma   35.17374844
_symmetry_Int_Tables_number   1
_chemical_formula_structural   Ti12As4C3N
_chemical_formula_sum   'Ti12 As4 C3 N1'
_cell_volume   272.26432949
_cell_formula_units_Z   1
loop_
 _symmetry_equiv_pos_site_id
 _symmetry_equiv_pos_as_xyz
  1  'x, y, z'
loop_
 _atom_site_type_symbol
 _atom_site_label
 _atom_site_symmetry_multiplicity
 _atom_site_fract_x
 _atom_site_fract_y
 _atom_site_fract_z
 _atom_site_occupancy
  Ti  Ti0  1  0.86957043  0.86957043  0.22509804  1
  Ti  Ti1  1  0.87223657  0.87223657  0.72166680  1
  Ti  Ti2  1  0.12776343  0.12776343  0.27833320  1
  Ti  Ti3  1  0.13042957  0.13042957  0.77490196  1
  Ti  Ti4  1  0.87063955  0.87063955  0.02647281  1
  Ti  Ti5  1  0.87102975  0.87102975  0.52530776  1
  Ti  Ti6  1  0.12897025  0.12897025  0.47469224  1
  Ti  Ti7  1  0.12936045  0.12936045  0.97352719  1
  Ti  Ti8  1  0.55361345  0.55361345  0.12576002  1
  Ti  Ti9  1  0.55490505  0.55490505  0.62280780  1
  Ti  Ti10  1  0.44509495  0.44509495  0.37719220  1
  Ti  Ti11  1  0.44638655  0.44638655  0.87423998  1
  As  As0  1  0.24605229  0.24605229  0.12581758  1
  As  As1  1  0.24658018  0.24658018  0.62391822  1
  As  As2  1  0.75341982  0.75341982  0.37608178  1
  As  As3  1  0.75394771  0.75394771  0.87418242  1
  C  C0  1  0.49881848  0.49881848  0.25145195  1
  C  C1  1  0.50118152  0.50118152  0.74854805  1
  C  C2  1  0.50000000  0.50000000  0.00000000  1
  N  N0  1  0.50000000  0.50000000  0.50000000  1
loop_
_geom_bond_atom_site_label_1
_geom_bond_atom_site_label_2
_geom_bond_distance
_geom_bond_site_symmetry_2
As0 Ti8 2.570287 1_545
As0 Ti8 2.570288 1_455
As0 Ti0 2.623076 1_455
As0 Ti0 2.623076 1_545
As0 Ti4 2.623588 1_455
As0 Ti4 2.623588 1_545
As0 Ti7 2.743373 1_554
As0 Ti2 2.746268 1_555
As1 Ti9 2.564323 1_545
As1 Ti9 2.564323 1_455
As1 Ti5 2.615669 1_455
As1 Ti5 2.615669 1_545
As1 Ti1 2.618845 1_455
As1 Ti1 2.618845 1_545
As1 Ti6 2.703213 1_555
As1 Ti3 2.714380 1_555
As2 Ti10 2.564323 1_565
As2 Ti10 2.564323 1_655
As2 Ti6 2.615669 1_655
As2 Ti6 2.615669 1_565
As2 Ti2 2.618845 1_655
As2 Ti2 2.618845 1_565
As2 Ti5 2.703213 1_555
As2 Ti0 2.714380 1_555
As3 Ti11 2.570287 1_565
As3 Ti11 2.570288 1_655
As3 Ti3 2.623076 1_655
As3 Ti3 2.623076 1_565
As3 Ti7 2.623588 1_655
As3 Ti7 2.623588 1_565
As3 Ti4 2.743373 1_556
As3 Ti1 2.746268 1_555
C0 Ti10 2.104427 1_555
C0 Ti8 2.106572 1_555
C0 Ti2 2.151758 1_565
C0 Ti2 2.151759 1_655
C0 Ti0 2.151971 1_545
C0 Ti0 2.151971 1_455
C1 Ti9 2.104427 1_555
C1 Ti11 2.106572 1_555
C1 Ti1 2.151758 1_545
C1 Ti1 2.151759 1_455
C1 Ti3 2.151971 1_565
C1 Ti3 2.151971 1_655
C2 Ti8 2.108189 1_555
C2 Ti11 2.108189 1_554
C2 Ti7 2.151212 1_564
C2 Ti4 2.151212 1_545
C2 Ti7 2.151212 1_654
C2 Ti4 2.151212 1_455
N0 Ti9 2.065837 1_555
N0 Ti10 2.065837 1_555
N0 Ti6 2.145094 1_565
N0 Ti5 2.145094 1_545
N0 Ti6 2.145094 1_655
N0 Ti5 2.145094 1_455
