# generated using pymatgen
data_Ca5Y(RuO6)2
_symmetry_space_group_name_H-M   'P 1'
_cell_length_a   5.78085788
_cell_length_b   5.53037710
_cell_length_c   9.67405175
_cell_angle_alpha   55.43934348
_cell_angle_beta   89.82958265
_cell_angle_gamma   89.90535570
_symmetry_Int_Tables_number   1
_chemical_formula_structural   Ca5Y(RuO6)2
_chemical_formula_sum   'Ca5 Y1 Ru2 O12'
_cell_volume   254.70114044
_cell_formula_units_Z   1
loop_
 _symmetry_equiv_pos_site_id
 _symmetry_equiv_pos_as_xyz
  1  'x, y, z'
loop_
 _atom_site_type_symbol
 _atom_site_label
 _atom_site_symmetry_multiplicity
 _atom_site_fract_x
 _atom_site_fract_y
 _atom_site_fract_z
 _atom_site_occupancy
  Ca  Ca0  1  0.44176638  0.22901376  0.75231079  1
  Ca  Ca1  1  0.55823362  0.77098624  0.24768921  1
  Ca  Ca2  1  0.93781514  0.75993186  0.75706035  1
  Ca  Ca3  1  0.06218486  0.24006814  0.24293965  1
  Ca  Ca4  1  0.50000000  0.50000000  0.00000000  1
  Y  Y0  1  0.00000000  0.50000000  0.50000000  1
  Ru  Ru0  1  0.00000000  0.00000000  0.00000000  1
  Ru  Ru1  1  0.50000000  0.00000000  0.50000000  1
  O  O0  1  0.72172823  0.89351763  0.93809388  1
  O  O1  1  0.27827177  0.10648237  0.06190612  1
  O  O2  1  0.21937442  0.11127062  0.56710017  1
  O  O3  1  0.78062558  0.88872938  0.43289983  1
  O  O4  1  0.04510624  0.34238419  0.76748970  1
  O  O5  1  0.95489376  0.65761581  0.23251030  1
  O  O6  1  0.54537168  0.66155176  0.72489027  1
  O  O7  1  0.45462832  0.33844824  0.27510973  1
  O  O8  1  0.17685676  0.76838901  0.94867266  1
  O  O9  1  0.82314324  0.23161099  0.05132734  1
  O  O10  1  0.68706217  0.22670597  0.55651476  1
  O  O11  1  0.31293783  0.77329403  0.44348524  1
loop_
_geom_bond_atom_site_label_1
_geom_bond_atom_site_label_2
_geom_bond_distance
_geom_bond_site_symmetry_2
Ca0 O6 2.331325 1_555
Ca0 O0 2.348625 1_545
Ca0 O10 2.368566 1_555
Ca0 O4 2.402162 1_555
Ca0 O2 2.574358 1_555
Ca0 O8 2.635990 1_545
Ca0 O1 2.829377 1_556
Ca0 O11 2.888564 1_555
Ca1 O7 2.331325 1_555
Ca1 O1 2.348625 1_565
Ca1 O11 2.368566 1_555
Ca1 O5 2.402162 1_555
Ca1 O3 2.574358 1_555
Ca1 O9 2.635990 1_565
Ca1 O0 2.829377 1_554
Ca1 O10 2.888564 1_555
Ca2 O4 2.336357 1_655
Ca2 O8 2.337015 1_655
Ca2 O6 2.395847 1_555
Ca2 O2 2.396506 1_665
Ca2 O0 2.573955 1_555
Ca2 O10 2.617492 1_565
Ca2 O9 2.763825 1_556
Ca2 O3 2.940708 1_555
Ca3 O5 2.336357 1_455
Ca3 O9 2.337015 1_455
Ca3 O7 2.395847 1_555
Ca3 O3 2.396506 1_445
Ca3 O1 2.573955 1_555
Ca3 O11 2.617492 1_545
Ca3 O8 2.763825 1_554
Ca3 O2 2.940708 1_555
Ca4 O9 2.258195 1_555
Ca4 O8 2.258195 1_554
Ca4 O7 2.291083 1_555
Ca4 O6 2.291083 1_554
Ca4 O0 2.294304 1_554
Ca4 O1 2.294304 1_555
O0 Ru0 1.924108 1_666
O1 Ru0 1.924108 1_555
O2 Ru1 1.968605 1_555
O2 Y0 2.250324 1_555
O3 Ru1 1.968605 1_565
O3 Y0 2.250324 1_655
O4 Ru0 1.969454 1_556
O4 Y0 2.228937 1_555
O5 Ru0 1.969454 1_665
O5 Y0 2.228937 1_655
O6 Ru1 1.920189 1_565
O7 Ru1 1.920189 1_555
O8 Ru0 1.909653 1_566
O9 Ru0 1.909653 1_655
O10 Ru1 1.955999 1_555
O10 Y0 2.218464 1_655
O11 Ru1 1.955999 1_565
O11 Y0 2.218464 1_555
