# generated using pymatgen
data_NiH9C4NO6
_symmetry_space_group_name_H-M   'P 1'
_cell_length_a   8.08494966
_cell_length_b   11.50366126
_cell_length_c   8.13938158
_cell_angle_alpha   90.00000000
_cell_angle_beta   90.00000000
_cell_angle_gamma   90.00000000
_symmetry_Int_Tables_number   1
_chemical_formula_structural   NiH9C4NO6
_chemical_formula_sum   'Ni4 H36 C16 N4 O24'
_cell_volume   757.01557300
_cell_formula_units_Z   4
loop_
 _symmetry_equiv_pos_site_id
 _symmetry_equiv_pos_as_xyz
  1  'x, y, z'
loop_
 _atom_site_type_symbol
 _atom_site_label
 _atom_site_symmetry_multiplicity
 _atom_site_fract_x
 _atom_site_fract_y
 _atom_site_fract_z
 _atom_site_occupancy
  Ni  Ni0  1  0.00000000  0.00000000  0.00000000  1
  Ni  Ni1  1  0.50000000  0.00000000  0.50000000  1
  Ni  Ni2  1  0.00000000  0.50000000  0.00000000  1
  Ni  Ni3  1  0.50000000  0.50000000  0.50000000  1
  H  H0  1  0.01726528  0.75000000  0.08049441  1
  H  H1  1  0.48273472  0.25000000  0.58049441  1
  H  H2  1  0.98273472  0.25000000  0.91950559  1
  H  H3  1  0.51726528  0.75000000  0.41950559  1
  H  H4  1  0.35211401  0.32752829  0.02118331  1
  H  H5  1  0.14788599  0.67247171  0.52118331  1
  H  H6  1  0.64788599  0.82752829  0.97881669  1
  H  H7  1  0.85211401  0.17247171  0.47881669  1
  H  H8  1  0.64788599  0.67247171  0.97881669  1
  H  H9  1  0.85211401  0.32752829  0.47881669  1
  H  H10  1  0.35211401  0.17247171  0.02118331  1
  H  H11  1  0.14788599  0.82752829  0.52118331  1
  H  H12  1  0.65040854  0.32341903  0.98853417  1
  H  H13  1  0.84959146  0.67658097  0.48853417  1
  H  H14  1  0.34959146  0.82341903  0.01146583  1
  H  H15  1  0.15040854  0.17658097  0.51146583  1
  H  H16  1  0.34959146  0.67658097  0.01146583  1
  H  H17  1  0.15040854  0.32341903  0.51146583  1
  H  H18  1  0.65040854  0.17658097  0.98853417  1
  H  H19  1  0.84959146  0.82341903  0.48853417  1
  H  H20  1  0.41154675  0.25000000  0.84133016  1
  H  H21  1  0.08845325  0.75000000  0.34133016  1
  H  H22  1  0.58845325  0.75000000  0.15866984  1
  H  H23  1  0.91154675  0.25000000  0.65866984  1
  H  H24  1  0.29293188  0.96182581  0.78856028  1
  H  H25  1  0.20706812  0.03817419  0.28856028  1
  H  H26  1  0.70706812  0.46182581  0.21143972  1
  H  H27  1  0.79293188  0.53817419  0.71143972  1
  H  H28  1  0.70706812  0.03817419  0.21143972  1
  H  H29  1  0.79293188  0.96182581  0.71143972  1
  H  H30  1  0.29293188  0.53817419  0.78856028  1
  H  H31  1  0.20706812  0.46182581  0.28856028  1
  H  H32  1  0.58960946  0.25000000  0.15720267  1
  H  H33  1  0.91039054  0.75000000  0.65720267  1
  H  H34  1  0.41039054  0.75000000  0.84279733  1
  H  H35  1  0.08960946  0.25000000  0.34279733  1
  C  C0  1  0.99192344  0.75000000  0.94799302  1
  C  C1  1  0.50807656  0.25000000  0.44799302  1
  C  C2  1  0.00807656  0.25000000  0.05200698  1
  C  C3  1  0.49192344  0.75000000  0.55200698  1
  C  C4  1  0.22122960  0.02804660  0.72290054  1
  C  C5  1  0.27877040  0.97195340  0.22290054  1
  C  C6  1  0.77877040  0.52804660  0.27709946  1
  C  C7  1  0.72122960  0.47195340  0.77709946  1
  C  C8  1  0.77877040  0.97195340  0.27709946  1
  C  C9  1  0.72122960  0.02804660  0.77709946  1
  C  C10  1  0.22122960  0.47195340  0.72290054  1
  C  C11  1  0.27877040  0.52804660  0.22290054  1
  C  C12  1  0.41320992  0.25000000  0.97469011  1
  C  C13  1  0.08679008  0.75000000  0.47469011  1
  C  C14  1  0.58679008  0.75000000  0.02530989  1
  C  C15  1  0.91320992  0.25000000  0.52530989  1
  N  N0  1  0.58765780  0.25000000  0.03087625  1
  N  N1  1  0.91234220  0.75000000  0.53087625  1
  N  N2  1  0.41234220  0.75000000  0.96912375  1
  N  N3  1  0.08765780  0.25000000  0.46912375  1
  O  O0  1  0.09542846  0.07107936  0.79001748  1
  O  O1  1  0.40457154  0.92892064  0.29001748  1
  O  O2  1  0.90457154  0.57107936  0.20998252  1
  O  O3  1  0.59542846  0.42892064  0.70998252  1
  O  O4  1  0.90457154  0.92892064  0.20998252  1
  O  O5  1  0.59542846  0.07107936  0.70998252  1
  O  O6  1  0.09542846  0.42892064  0.79001748  1
  O  O7  1  0.40457154  0.57107936  0.29001748  1
  O  O8  1  0.77170373  0.05725842  0.91931261  1
  O  O9  1  0.72829627  0.94274158  0.41931261  1
  O  O10  1  0.22829627  0.55725842  0.08068739  1
  O  O11  1  0.27170373  0.44274158  0.58068739  1
  O  O12  1  0.22829627  0.94274158  0.08068739  1
  O  O13  1  0.27170373  0.05725842  0.58068739  1
  O  O14  1  0.77170373  0.44274158  0.91931261  1
  O  O15  1  0.72829627  0.55725842  0.41931261  1
  O  O16  1  0.97709797  0.84641134  0.87492307  1
  O  O17  1  0.52290203  0.15358866  0.37492307  1
  O  O18  1  0.02290203  0.34641134  0.12507693  1
  O  O19  1  0.47709797  0.65358866  0.62507693  1
  O  O20  1  0.02290203  0.15358866  0.12507693  1
  O  O21  1  0.47709797  0.84641134  0.62507693  1
  O  O22  1  0.97709797  0.65358866  0.87492307  1
  O  O23  1  0.52290203  0.34641134  0.37492307  1
loop_
_geom_bond_atom_site_label_1
_geom_bond_atom_site_label_2
_geom_bond_distance
_geom_bond_site_symmetry_2
Ni0 O4 2.045720 1_445
Ni0 O0 2.045720 1_554
Ni0 O20 2.047536 1_555
Ni0 O16 2.047536 1_444
Ni0 O8 2.066887 1_454
Ni0 O12 2.066887 1_545
Ni1 O5 2.045720 1_555
Ni1 O1 2.045720 1_545
Ni1 O17 2.047536 1_555
Ni1 O21 2.047536 1_545
Ni1 O13 2.066887 1_555
Ni1 O9 2.066887 1_545
Ni2 O2 2.045720 1_455
Ni2 O6 2.045720 1_554
Ni2 O22 2.047536 1_454
Ni2 O18 2.047536 1_555
Ni2 O10 2.066887 1_555
Ni2 O14 2.066887 1_454
Ni3 O3 2.045720 1_555
Ni3 O7 2.045720 1_555
Ni3 O19 2.047536 1_555
Ni3 O23 2.047536 1_555
Ni3 O15 2.066887 1_555
Ni3 O11 2.066887 1_555
H12 N0 1.043788 1_556
H13 N1 1.043788 1_555
H14 N2 1.043788 1_554
H15 N3 1.043788 1_555
H16 N2 1.043788 1_554
H17 N3 1.043788 1_555
H18 N0 1.043788 1_556
H19 N1 1.043788 1_555
H32 N0 1.028340 1_555
H33 N1 1.028340 1_555
H34 N2 1.028340 1_555
H35 N3 1.028340 1_555
C0 H0 1.097769 1_656
C0 O16 1.264181 1_555
C0 O22 1.264181 1_555
C1 H1 1.097769 1_555
C1 O23 1.264181 1_555
C1 O17 1.264181 1_555
C2 H2 1.097769 1_454
C2 O18 1.264181 1_555
C2 O20 1.264181 1_555
C3 H3 1.097769 1_555
C3 O21 1.264181 1_555
C3 O19 1.264181 1_555
C4 H24 1.096353 1_545
C4 O0 1.256175 1_555
C4 O13 1.272526 1_555
C5 H25 1.096353 1_565
C5 O1 1.256175 1_555
C5 O12 1.272526 1_555
C6 H26 1.096353 1_555
C6 O2 1.256175 1_555
C6 O15 1.272526 1_555
C7 H27 1.096353 1_555
C7 O3 1.256175 1_555
C7 O14 1.272526 1_555
C8 H28 1.096353 1_565
C8 O4 1.256175 1_555
C8 O9 1.272526 1_555
C9 H29 1.096353 1_545
C9 O5 1.256175 1_555
C9 O8 1.272526 1_555
C10 H30 1.096353 1_555
C10 O6 1.256175 1_555
C10 O11 1.272526 1_555
C11 H31 1.096353 1_555
C11 O7 1.256175 1_555
C11 O10 1.272526 1_555
C12 H20 1.085551 1_555
C12 H4 1.087480 1_556
C12 H10 1.087480 1_556
C12 N0 1.482692 1_556
C13 H21 1.085551 1_555
C13 H11 1.087480 1_555
C13 H5 1.087480 1_555
C13 N1 1.482692 1_455
C14 H22 1.085551 1_555
C14 H6 1.087480 1_554
C14 H8 1.087480 1_554
C14 N2 1.482692 1_554
C15 H23 1.085551 1_555
C15 H9 1.087480 1_555
C15 H7 1.087480 1_555
C15 N3 1.482692 1_655
