# generated using pymatgen
data_SrLi2LuSi4
_symmetry_space_group_name_H-M   'P 1'
_cell_length_a   3.79575122
_cell_length_b   7.91366901
_cell_length_c   10.50314650
_cell_angle_alpha   89.21273632
_cell_angle_beta   90.00000000
_cell_angle_gamma   90.00000000
_symmetry_Int_Tables_number   1
_chemical_formula_structural   SrLi2LuSi4
_chemical_formula_sum   'Sr2 Li4 Lu2 Si8'
_cell_volume   315.46708094
_cell_formula_units_Z   2
loop_
 _symmetry_equiv_pos_site_id
 _symmetry_equiv_pos_as_xyz
  1  'x, y, z'
loop_
 _atom_site_type_symbol
 _atom_site_label
 _atom_site_symmetry_multiplicity
 _atom_site_fract_x
 _atom_site_fract_y
 _atom_site_fract_z
 _atom_site_occupancy
  Sr  Sr0  1  0.25000000  0.64036368  0.63496668  1
  Sr  Sr1  1  0.75000000  0.35963632  0.36503332  1
  Li  Li0  1  0.25000000  0.00229488  0.38710293  1
  Li  Li1  1  0.75000000  0.99770512  0.61289707  1
  Li  Li2  1  0.25000000  0.48832580  0.10702597  1
  Li  Li3  1  0.75000000  0.51167420  0.89297403  1
  Lu  Lu0  1  0.25000000  0.12182321  0.86888990  1
  Lu  Lu1  1  0.75000000  0.87817679  0.13111010  1
  Si  Si0  1  0.75000000  0.25529465  0.05551450  1
  Si  Si1  1  0.25000000  0.74470535  0.94448550  1
  Si  Si2  1  0.75000000  0.78401852  0.41295179  1
  Si  Si3  1  0.25000000  0.21598148  0.58704821  1
  Si  Si4  1  0.75000000  0.84766414  0.83398877  1
  Si  Si5  1  0.25000000  0.15233586  0.16601123  1
  Si  Si6  1  0.75000000  0.32290496  0.69258993  1
  Si  Si7  1  0.25000000  0.67709504  0.30741007  1
loop_
_geom_bond_atom_site_label_1
_geom_bond_atom_site_label_2
_geom_bond_distance
_geom_bond_site_symmetry_2
Li0 Si2 2.578090 1_445
Li0 Si2 2.578090 1_545
Li0 Si5 2.593551 1_555
Li0 Si3 2.714305 1_555
Li0 Si7 2.717137 1_545
Li1 Si3 2.578090 1_565
Li1 Si3 2.578090 1_665
Li1 Si4 2.593551 1_555
Li1 Si2 2.714305 1_555
Li1 Si6 2.717137 1_565
Li2 Si7 2.597618 1_555
Li2 Si1 2.633581 1_554
Li2 Si0 2.706083 1_455
Li2 Si0 2.706083 1_555
Li2 Si5 2.721832 1_555
Li3 Si6 2.597618 1_555
Li3 Si0 2.633581 1_556
Li3 Si1 2.706083 1_555
Li3 Si1 2.706083 1_655
Li3 Si4 2.721832 1_555
Lu0 Si4 2.909526 1_545
Lu0 Si4 2.909526 1_445
Lu0 Si0 2.935414 1_556
Lu0 Si0 2.935414 1_456
Lu0 Si3 3.042621 1_555
Lu0 Si1 3.077640 1_545
Lu0 Si6 3.079283 1_555
Lu0 Si6 3.079283 1_455
Lu0 Si5 3.133343 1_556
Lu1 Si5 2.909526 1_665
Lu1 Si5 2.909526 1_565
Lu1 Si1 2.935414 1_654
Lu1 Si1 2.935414 1_554
Lu1 Si2 3.042621 1_555
Lu1 Si0 3.077640 1_565
Lu1 Si7 3.079283 1_655
Lu1 Si7 3.079283 1_555
Lu1 Si4 3.133343 1_554
Si0 Si5 2.363625 1_555
Si0 Si5 2.363625 1_655
Si0 Sr1 3.365127 1_555
Si1 Si4 2.363625 1_455
Si1 Si4 2.363625 1_555
Si1 Sr0 3.365127 1_555
Si2 Si7 2.360616 1_555
Si2 Si7 2.360616 1_655
Si2 Sr0 3.202972 1_655
Si2 Sr0 3.202972 1_555
Si2 Sr1 3.402755 1_555
Si3 Si6 2.360616 1_555
Si3 Si6 2.360616 1_455
Si3 Sr1 3.202972 1_555
Si3 Sr1 3.202972 1_455
Si3 Sr0 3.402755 1_555
Si4 Sr0 3.279791 1_555
Si4 Sr0 3.279791 1_655
Si5 Sr1 3.279791 1_455
Si5 Sr1 3.279791 1_555
Si6 Sr0 3.199674 1_555
Si6 Sr0 3.199674 1_655
Si6 Sr1 3.448651 1_555
Si7 Sr1 3.199674 1_555
Si7 Sr1 3.199674 1_455
Si7 Sr0 3.448651 1_555
