# generated using pymatgen
data_Sc57Rh13
_symmetry_space_group_name_H-M   'P 1'
_cell_length_a   14.44288800
_cell_length_b   14.44288800
_cell_length_c   14.44288800
_cell_angle_alpha   90.00000000
_cell_angle_beta   90.00000000
_cell_angle_gamma   90.00000000
_symmetry_Int_Tables_number   1
_chemical_formula_structural   Sc57Rh13
_chemical_formula_sum   'Sc114 Rh26'
_cell_volume   3012.74330717
_cell_formula_units_Z   2
loop_
 _symmetry_equiv_pos_site_id
 _symmetry_equiv_pos_as_xyz
  1  'x, y, z'
loop_
 _atom_site_type_symbol
 _atom_site_label
 _atom_site_symmetry_multiplicity
 _atom_site_fract_x
 _atom_site_fract_y
 _atom_site_fract_z
 _atom_site_occupancy
  Sc  Sc0  1  0.37538500  0.00000000  0.00000000  1
  Sc  Sc1  1  0.00000000  0.37538500  0.00000000  1
  Sc  Sc2  1  0.00000000  0.00000000  0.37538500  1
  Sc  Sc3  1  0.00000000  0.62461500  0.00000000  1
  Sc  Sc4  1  0.00000000  0.00000000  0.62461500  1
  Sc  Sc5  1  0.62461500  0.00000000  0.00000000  1
  Sc  Sc6  1  0.22964100  0.50000000  0.00000000  1
  Sc  Sc7  1  0.00000000  0.22964100  0.50000000  1
  Sc  Sc8  1  0.50000000  0.00000000  0.22964100  1
  Sc  Sc9  1  0.00000000  0.77035900  0.50000000  1
  Sc  Sc10  1  0.50000000  0.00000000  0.77035900  1
  Sc  Sc11  1  0.77035900  0.50000000  0.00000000  1
  Sc  Sc12  1  0.86194100  0.50000000  0.50000000  1
  Sc  Sc13  1  0.50000000  0.86194100  0.50000000  1
  Sc  Sc14  1  0.50000000  0.50000000  0.86194100  1
  Sc  Sc15  1  0.50000000  0.13805900  0.50000000  1
  Sc  Sc16  1  0.50000000  0.50000000  0.13805900  1
  Sc  Sc17  1  0.13805900  0.50000000  0.50000000  1
  Sc  Sc18  1  0.00000000  0.39327200  0.36795200  1
  Sc  Sc19  1  0.36795200  0.00000000  0.39327200  1
  Sc  Sc20  1  0.39327200  0.36795200  0.00000000  1
  Sc  Sc21  1  0.60672800  0.63204800  0.00000000  1
  Sc  Sc22  1  0.36795200  0.00000000  0.60672800  1
  Sc  Sc23  1  0.60672800  0.36795200  0.00000000  1
  Sc  Sc24  1  0.63204800  0.00000000  0.39327200  1
  Sc  Sc25  1  0.63204800  0.00000000  0.60672800  1
  Sc  Sc26  1  0.39327200  0.63204800  0.00000000  1
  Sc  Sc27  1  0.00000000  0.60672800  0.63204800  1
  Sc  Sc28  1  0.00000000  0.39327200  0.63204800  1
  Sc  Sc29  1  0.00000000  0.60672800  0.36795200  1
  Sc  Sc30  1  0.00000000  0.17849100  0.10717800  1
  Sc  Sc31  1  0.10717800  0.00000000  0.17849100  1
  Sc  Sc32  1  0.17849100  0.10717800  0.00000000  1
  Sc  Sc33  1  0.82150900  0.89282200  0.00000000  1
  Sc  Sc34  1  0.10717800  0.00000000  0.82150900  1
  Sc  Sc35  1  0.82150900  0.10717800  0.00000000  1
  Sc  Sc36  1  0.89282200  0.00000000  0.17849100  1
  Sc  Sc37  1  0.89282200  0.00000000  0.82150900  1
  Sc  Sc38  1  0.17849100  0.89282200  0.00000000  1
  Sc  Sc39  1  0.00000000  0.82150900  0.89282200  1
  Sc  Sc40  1  0.00000000  0.17849100  0.89282200  1
  Sc  Sc41  1  0.00000000  0.82150900  0.10717800  1
  Sc  Sc42  1  0.50000000  0.82565600  0.89687400  1
  Sc  Sc43  1  0.89687400  0.50000000  0.82565600  1
  Sc  Sc44  1  0.82565600  0.89687400  0.50000000  1
  Sc  Sc45  1  0.17434400  0.10312600  0.50000000  1
  Sc  Sc46  1  0.89687400  0.50000000  0.17434400  1
  Sc  Sc47  1  0.17434400  0.89687400  0.50000000  1
  Sc  Sc48  1  0.10312600  0.50000000  0.82565600  1
  Sc  Sc49  1  0.10312600  0.50000000  0.17434400  1
  Sc  Sc50  1  0.82565600  0.10312600  0.50000000  1
  Sc  Sc51  1  0.50000000  0.17434400  0.10312600  1
  Sc  Sc52  1  0.50000000  0.82565600  0.10312600  1
  Sc  Sc53  1  0.50000000  0.17434400  0.89687400  1
  Sc  Sc54  1  0.50000000  0.67485300  0.60879900  1
  Sc  Sc55  1  0.60879900  0.50000000  0.67485300  1
  Sc  Sc56  1  0.67485300  0.60879900  0.50000000  1
  Sc  Sc57  1  0.32514700  0.39120100  0.50000000  1
  Sc  Sc58  1  0.60879900  0.50000000  0.32514700  1
  Sc  Sc59  1  0.32514700  0.60879900  0.50000000  1
  Sc  Sc60  1  0.39120100  0.50000000  0.67485300  1
  Sc  Sc61  1  0.39120100  0.50000000  0.32514700  1
  Sc  Sc62  1  0.67485300  0.39120100  0.50000000  1
  Sc  Sc63  1  0.50000000  0.32514700  0.39120100  1
  Sc  Sc64  1  0.50000000  0.67485300  0.39120100  1
  Sc  Sc65  1  0.50000000  0.32514700  0.60879900  1
  Sc  Sc66  1  0.11098400  0.18952500  0.29678000  1
  Sc  Sc67  1  0.29678000  0.11098400  0.18952500  1
  Sc  Sc68  1  0.18952500  0.29678000  0.11098400  1
  Sc  Sc69  1  0.81047500  0.70322000  0.11098400  1
  Sc  Sc70  1  0.29678000  0.88901600  0.81047500  1
  Sc  Sc71  1  0.81047500  0.29678000  0.88901600  1
  Sc  Sc72  1  0.70322000  0.88901600  0.18952500  1
  Sc  Sc73  1  0.70322000  0.11098400  0.81047500  1
  Sc  Sc74  1  0.18952500  0.70322000  0.88901600  1
  Sc  Sc75  1  0.11098400  0.81047500  0.70322000  1
  Sc  Sc76  1  0.88901600  0.18952500  0.70322000  1
  Sc  Sc77  1  0.88901600  0.81047500  0.29678000  1
  Sc  Sc78  1  0.88901600  0.81047500  0.70322000  1
  Sc  Sc79  1  0.70322000  0.88901600  0.81047500  1
  Sc  Sc80  1  0.81047500  0.70322000  0.88901600  1
  Sc  Sc81  1  0.18952500  0.29678000  0.88901600  1
  Sc  Sc82  1  0.70322000  0.11098400  0.18952500  1
  Sc  Sc83  1  0.18952500  0.70322000  0.11098400  1
  Sc  Sc84  1  0.29678000  0.11098400  0.81047500  1
  Sc  Sc85  1  0.29678000  0.88901600  0.18952500  1
  Sc  Sc86  1  0.81047500  0.29678000  0.11098400  1
  Sc  Sc87  1  0.88901600  0.18952500  0.29678000  1
  Sc  Sc88  1  0.11098400  0.81047500  0.29678000  1
  Sc  Sc89  1  0.11098400  0.18952500  0.70322000  1
  Sc  Sc90  1  0.61466500  0.67893600  0.79191700  1
  Sc  Sc91  1  0.79191700  0.61466500  0.67893600  1
  Sc  Sc92  1  0.67893600  0.79191700  0.61466500  1
  Sc  Sc93  1  0.32106400  0.20808300  0.61466500  1
  Sc  Sc94  1  0.79191700  0.38533500  0.32106400  1
  Sc  Sc95  1  0.32106400  0.79191700  0.38533500  1
  Sc  Sc96  1  0.20808300  0.38533500  0.67893600  1
  Sc  Sc97  1  0.20808300  0.61466500  0.32106400  1
  Sc  Sc98  1  0.67893600  0.20808300  0.38533500  1
  Sc  Sc99  1  0.61466500  0.32106400  0.20808300  1
  Sc  Sc100  1  0.38533500  0.67893600  0.20808300  1
  Sc  Sc101  1  0.38533500  0.32106400  0.79191700  1
  Sc  Sc102  1  0.38533500  0.32106400  0.20808300  1
  Sc  Sc103  1  0.20808300  0.38533500  0.32106400  1
  Sc  Sc104  1  0.32106400  0.20808300  0.38533500  1
  Sc  Sc105  1  0.67893600  0.79191700  0.38533500  1
  Sc  Sc106  1  0.20808300  0.61466500  0.67893600  1
  Sc  Sc107  1  0.67893600  0.20808300  0.61466500  1
  Sc  Sc108  1  0.79191700  0.61466500  0.32106400  1
  Sc  Sc109  1  0.79191700  0.38533500  0.67893600  1
  Sc  Sc110  1  0.32106400  0.79191700  0.61466500  1
  Sc  Sc111  1  0.38533500  0.67893600  0.79191700  1
  Sc  Sc112  1  0.61466500  0.32106400  0.79191700  1
  Sc  Sc113  1  0.61466500  0.67893600  0.20808300  1
  Rh  Rh0  1  0.00000000  0.00000000  0.00000000  1
  Rh  Rh1  1  0.50000000  0.50000000  0.50000000  1
  Rh  Rh2  1  0.00000000  0.33288900  0.20221200  1
  Rh  Rh3  1  0.20221200  0.00000000  0.33288900  1
  Rh  Rh4  1  0.33288900  0.20221200  0.00000000  1
  Rh  Rh5  1  0.66711100  0.79778800  0.00000000  1
  Rh  Rh6  1  0.20221200  0.00000000  0.66711100  1
  Rh  Rh7  1  0.66711100  0.20221200  0.00000000  1
  Rh  Rh8  1  0.79778800  0.00000000  0.33288900  1
  Rh  Rh9  1  0.79778800  0.00000000  0.66711100  1
  Rh  Rh10  1  0.33288900  0.79778800  0.00000000  1
  Rh  Rh11  1  0.00000000  0.66711100  0.79778800  1
  Rh  Rh12  1  0.00000000  0.33288900  0.79778800  1
  Rh  Rh13  1  0.00000000  0.66711100  0.20221200  1
  Rh  Rh14  1  0.50000000  0.83193900  0.70036700  1
  Rh  Rh15  1  0.70036700  0.50000000  0.83193900  1
  Rh  Rh16  1  0.83193900  0.70036700  0.50000000  1
  Rh  Rh17  1  0.16806100  0.29963300  0.50000000  1
  Rh  Rh18  1  0.70036700  0.50000000  0.16806100  1
  Rh  Rh19  1  0.16806100  0.70036700  0.50000000  1
  Rh  Rh20  1  0.29963300  0.50000000  0.83193900  1
  Rh  Rh21  1  0.29963300  0.50000000  0.16806100  1
  Rh  Rh22  1  0.83193900  0.29963300  0.50000000  1
  Rh  Rh23  1  0.50000000  0.16806100  0.29963300  1
  Rh  Rh24  1  0.50000000  0.83193900  0.29963300  1
  Rh  Rh25  1  0.50000000  0.16806100  0.70036700  1
loop_
_geom_bond_atom_site_label_1
_geom_bond_atom_site_label_2
_geom_bond_distance
_geom_bond_site_symmetry_2
Sc0 Sc32 3.237732 1_555
Sc0 Sc38 3.237732 1_545
Sc0 Sc67 3.369124 1_555
Sc0 Sc84 3.369124 1_554
Sc0 Sc85 3.369124 1_545
Sc0 Sc70 3.369124 1_544
Sc0 Sc51 3.434849 1_555
Sc0 Sc53 3.434849 1_554
Sc0 Sc52 3.434849 1_545
Sc0 Sc42 3.434849 1_544
Sc0 Sc5 3.599601 1_555
Sc0 Sc8 3.773545 1_555
Sc0 Sc10 3.773545 1_554
Sc1 Sc30 3.237732 1_555
Sc1 Sc40 3.237732 1_554
Sc1 Sc68 3.369124 1_555
Sc1 Sc86 3.369124 1_455
Sc1 Sc81 3.369124 1_554
Sc1 Sc71 3.369124 1_454
Sc1 Sc49 3.434849 1_555
Sc1 Sc46 3.434849 1_455
Sc1 Sc48 3.434849 1_554
Sc1 Sc43 3.434849 1_454
Sc1 Sc3 3.599601 1_555
Sc1 Sc6 3.773545 1_555
Sc1 Sc11 3.773545 1_455
Sc2 Sc36 3.237732 1_455
Sc2 Sc31 3.237732 1_555
Sc2 Sc66 3.369124 1_555
Sc2 Sc88 3.369124 1_545
Sc2 Sc87 3.369124 1_455
Sc2 Sc77 3.369124 1_445
Sc2 Sc47 3.434849 1_545
Sc2 Sc45 3.434849 1_555
Sc2 Sc50 3.434849 1_455
Sc2 Sc44 3.434849 1_445
Sc2 Sc4 3.599601 1_555
Sc2 Sc7 3.773545 1_555
Sc2 Sc9 3.773545 1_545
Sc3 Sc41 3.237732 1_555
Sc3 Sc39 3.237732 1_554
Sc3 Sc83 3.369124 1_555
Sc3 Sc69 3.369124 1_455
Sc3 Sc74 3.369124 1_554
Sc3 Sc80 3.369124 1_454
Sc3 Sc49 3.434849 1_555
Sc3 Sc46 3.434849 1_455
Sc3 Sc48 3.434849 1_554
Sc3 Sc43 3.434849 1_454
Sc3 Sc6 3.773545 1_555
Sc4 Sc89 3.369124 1_555
Sc4 Sc75 3.369124 1_545
Sc4 Sc76 3.369124 1_455
Sc4 Sc78 3.369124 1_445
Sc4 Sc45 3.434849 1_555
Sc4 Sc47 3.434849 1_545
Sc4 Sc50 3.434849 1_455
Sc4 Sc44 3.434849 1_445
Sc4 Sc7 3.773545 1_555
Sc4 Sc9 3.773545 1_545
Sc5 Sc82 3.369124 1_555
Sc5 Sc73 3.369124 1_554
Sc5 Sc72 3.369124 1_545
Sc5 Sc79 3.369124 1_544
Sc5 Sc51 3.434849 1_555
Sc5 Sc52 3.434849 1_545
Sc5 Sc53 3.434849 1_554
Sc5 Sc8 3.773545 1_555
Sc6 Sc68 3.394082 1_555
Sc6 Sc83 3.394082 1_555
Sc6 Sc81 3.394082 1_554
Sc6 Sc74 3.394082 1_554
Sc7 Sc89 3.394082 1_555
Sc7 Sc87 3.394082 1_455
Sc7 Sc76 3.394082 1_455
Sc8 Sc82 3.394082 1_555
Sc8 Sc85 3.394082 1_545
Sc10 Sc25 3.036848 1_555
Sc10 Sc22 3.036848 1_555
Sc10 Sc53 3.111156 1_555
Sc10 Sc42 3.111156 1_545
Sc10 Sc84 3.394082 1_555
Sc10 Sc73 3.394082 1_555
Sc10 Sc70 3.394082 1_545
Sc10 Sc79 3.394082 1_545
Sc10 Sc5 3.773545 1_556
Sc11 Sc21 3.036848 1_555
Sc11 Sc23 3.036848 1_555
Sc11 Sc46 3.111156 1_555
Sc11 Sc43 3.111156 1_554
Sc11 Sc86 3.394082 1_555
Sc11 Sc69 3.394082 1_555
Sc11 Sc71 3.394082 1_554
Sc11 Sc80 3.394082 1_554
Sc11 Sc3 3.773545 1_655
Sc12 Sc56 3.125781 1_555
Sc12 Sc62 3.125781 1_555
Sc12 Sc27 3.160579 1_655
Sc12 Sc29 3.160579 1_655
Sc12 Sc28 3.160579 1_655
Sc12 Sc18 3.160579 1_655
Sc12 Sc91 3.231772 1_555
Sc12 Sc94 3.231772 1_555
Sc13 Sc54 3.125781 1_555
Sc13 Sc64 3.125781 1_555
Sc13 Sc25 3.160579 1_565
Sc13 Sc22 3.160579 1_565
Sc13 Sc24 3.160579 1_565
Sc13 Sc19 3.160579 1_565
Sc13 Sc92 3.231772 1_555
Sc13 Sc95 3.231772 1_555
Sc14 Sc55 3.125781 1_555
Sc14 Sc60 3.125781 1_555
Sc14 Sc21 3.160579 1_556
Sc14 Sc23 3.160579 1_556
Sc14 Sc26 3.160579 1_556
Sc14 Sc20 3.160579 1_556
Sc14 Sc90 3.231772 1_555
Sc15 Sc65 3.125781 1_555
Sc15 Sc63 3.125781 1_555
Sc15 Sc25 3.160579 1_555
Sc15 Sc22 3.160579 1_555
Sc15 Sc24 3.160579 1_555
Sc15 Sc19 3.160579 1_555
Sc15 Sc98 3.231772 1_555
Sc15 Sc93 3.231772 1_555
Sc16 Sc58 3.125781 1_555
Sc16 Sc61 3.125781 1_555
Sc16 Sc21 3.160579 1_555
Sc16 Sc23 3.160579 1_555
Sc16 Sc26 3.160579 1_555
Sc16 Sc20 3.160579 1_555
Sc16 Sc99 3.231772 1_555
Sc17 Sc59 3.125781 1_555
Sc17 Sc57 3.125781 1_555
Sc17 Sc27 3.160579 1_555
Sc17 Sc29 3.160579 1_555
Sc17 Sc28 3.160579 1_555
Sc17 Sc18 3.160579 1_555
Sc17 Sc96 3.231772 1_555
Sc17 Sc97 3.231772 1_555
Sc18 Sc7 3.036848 1_555
Sc18 Sc94 3.082804 1_455
Sc18 Sc66 3.505064 1_555
Sc18 Sc87 3.505064 1_455
Sc18 Sc49 3.523292 1_555
Sc18 Sc46 3.523292 1_455
Sc19 Sc8 3.036848 1_555
Sc19 Sc95 3.082804 1_545
Sc19 Sc67 3.505064 1_555
Sc19 Sc85 3.505064 1_545
Sc19 Sc45 3.523292 1_555
Sc19 Sc47 3.523292 1_545
Sc20 Sc6 3.036848 1_555
Sc20 Sc68 3.505064 1_555
Sc20 Sc81 3.505064 1_554
Sc20 Sc51 3.523292 1_555
Sc20 Sc53 3.523292 1_554
Sc21 Sc90 3.082804 1_554
Sc21 Sc69 3.505064 1_555
Sc21 Sc80 3.505064 1_554
Sc21 Sc52 3.523292 1_555
Sc21 Sc42 3.523292 1_554
Sc22 Sc93 3.082804 1_555
Sc22 Sc84 3.505064 1_555
Sc22 Sc70 3.505064 1_545
Sc22 Sc45 3.523292 1_555
Sc22 Sc47 3.523292 1_545
Sc23 Sc99 3.082804 1_555
Sc23 Sc86 3.505064 1_555
Sc23 Sc71 3.505064 1_554
Sc23 Sc51 3.523292 1_555
Sc23 Sc53 3.523292 1_554
Sc24 Sc8 3.036848 1_555
Sc24 Sc98 3.082804 1_555
Sc24 Sc82 3.505064 1_555
Sc24 Sc72 3.505064 1_545
Sc24 Sc50 3.523292 1_555
Sc24 Sc44 3.523292 1_545
Sc25 Sc92 3.082804 1_545
Sc25 Sc73 3.505064 1_555
Sc25 Sc79 3.505064 1_545
Sc25 Sc50 3.523292 1_555
Sc25 Sc44 3.523292 1_545
Sc26 Sc6 3.036848 1_555
Sc26 Sc83 3.505064 1_555
Sc26 Sc74 3.505064 1_554
Sc26 Sc52 3.523292 1_555
Sc26 Sc42 3.523292 1_554
Sc27 Sc9 3.036848 1_555
Sc27 Sc91 3.082804 1_455
Sc27 Sc75 3.505064 1_555
Sc27 Sc78 3.505064 1_455
Sc27 Sc48 3.523292 1_555
Sc27 Sc43 3.523292 1_455
Sc28 Sc7 3.036848 1_555
Sc28 Sc96 3.082804 1_555
Sc28 Sc89 3.505064 1_555
Sc28 Sc76 3.505064 1_455
Sc28 Sc48 3.523292 1_555
Sc28 Sc43 3.523292 1_455
Sc29 Sc9 3.036848 1_555
Sc29 Sc97 3.082804 1_555
Sc29 Sc88 3.505064 1_555
Sc29 Sc77 3.505064 1_455
Sc29 Sc49 3.523292 1_555
Sc29 Sc46 3.523292 1_455
Sc30 Sc40 3.095920 1_554
Sc30 Sc66 3.177045 1_555
Sc30 Sc87 3.177045 1_455
Sc30 Sc31 3.178476 1_555
Sc30 Sc36 3.178476 1_455
Sc30 Sc32 3.178476 1_555
Sc30 Sc35 3.178476 1_455
Sc30 Sc68 3.227153 1_555
Sc30 Sc86 3.227153 1_455
Sc31 Sc36 3.095920 1_455
Sc31 Sc67 3.177045 1_555
Sc31 Sc85 3.177045 1_545
Sc31 Sc32 3.178476 1_555
Sc31 Sc38 3.178476 1_545
Sc31 Sc41 3.178476 1_545
Sc31 Sc66 3.227153 1_555
Sc31 Sc88 3.227153 1_545
Sc32 Sc38 3.095920 1_545
Sc32 Sc68 3.177045 1_555
Sc32 Sc81 3.177045 1_554
Sc32 Sc40 3.178476 1_554
Sc32 Sc34 3.178476 1_554
Sc32 Sc67 3.227153 1_555
Sc32 Sc84 3.227153 1_554
Sc33 Sc35 3.095920 1_565
Sc33 Sc69 3.177045 1_555
Sc33 Sc80 3.177045 1_554
Sc33 Sc36 3.178476 1_565
Sc33 Sc39 3.178476 1_654
Sc33 Sc37 3.178476 1_564
Sc33 Sc41 3.178476 1_655
Sc33 Sc72 3.227153 1_555
Sc33 Sc79 3.227153 1_554
Sc33 Sc5 3.237732 1_565
Sc34 Sc37 3.095920 1_455
Sc34 Sc84 3.177045 1_555
Sc34 Sc70 3.177045 1_545
Sc34 Sc40 3.178476 1_555
Sc34 Sc38 3.178476 1_546
Sc34 Sc39 3.178476 1_545
Sc34 Sc89 3.227153 1_555
Sc34 Sc75 3.227153 1_545
Sc34 Sc4 3.237732 1_555
Sc35 Sc86 3.177045 1_555
Sc35 Sc71 3.177045 1_554
Sc35 Sc36 3.178476 1_555
Sc35 Sc40 3.178476 1_654
Sc35 Sc37 3.178476 1_554
Sc35 Sc82 3.227153 1_555
Sc35 Sc73 3.227153 1_554
Sc35 Sc5 3.237732 1_555
Sc36 Sc82 3.177045 1_555
Sc36 Sc72 3.177045 1_545
Sc36 Sc41 3.178476 1_645
Sc36 Sc87 3.227153 1_555
Sc36 Sc77 3.227153 1_545
Sc37 Sc73 3.177045 1_555
Sc37 Sc79 3.177045 1_545
Sc37 Sc40 3.178476 1_655
Sc37 Sc39 3.178476 1_645
Sc37 Sc76 3.227153 1_555
Sc37 Sc78 3.227153 1_545
Sc37 Sc4 3.237732 1_655
Sc38 Sc83 3.177045 1_555
Sc38 Sc74 3.177045 1_554
Sc38 Sc41 3.178476 1_555
Sc38 Sc39 3.178476 1_554
Sc38 Sc85 3.227153 1_555
Sc38 Sc70 3.227153 1_554
Sc39 Sc41 3.095920 1_556
Sc39 Sc75 3.177045 1_555
Sc39 Sc78 3.177045 1_455
Sc39 Sc74 3.227153 1_555
Sc39 Sc80 3.227153 1_455
Sc40 Sc89 3.177045 1_555
Sc40 Sc76 3.177045 1_455
Sc40 Sc81 3.227153 1_555
Sc40 Sc71 3.227153 1_455
Sc41 Sc88 3.177045 1_555
Sc41 Sc77 3.177045 1_455
Sc41 Sc83 3.227153 1_555
Sc41 Sc69 3.227153 1_455
Sc42 Sc52 2.978875 1_556
Sc42 Sc90 3.087226 1_555
Sc42 Sc70 3.318020 1_555
Sc42 Sc79 3.318020 1_555
Sc42 Sc5 3.434849 1_566
Sc43 Sc48 2.978875 1_655
Sc43 Sc91 3.087226 1_555
Sc43 Sc71 3.318020 1_555
Sc43 Sc80 3.318020 1_555
Sc44 Sc50 2.978875 1_565
Sc44 Sc92 3.087226 1_555
Sc44 Sc9 3.111156 1_655
Sc44 Sc77 3.318020 1_555
Sc44 Sc78 3.318020 1_555
Sc45 Sc47 2.978875 1_545
Sc45 Sc93 3.087226 1_555
Sc45 Sc7 3.111156 1_555
Sc45 Sc66 3.318020 1_555
Sc45 Sc89 3.318020 1_555
Sc46 Sc49 2.978875 1_655
Sc46 Sc94 3.087226 1_555
Sc46 Sc86 3.318020 1_555
Sc46 Sc69 3.318020 1_555
Sc47 Sc95 3.087226 1_555
Sc47 Sc9 3.111156 1_555
Sc47 Sc88 3.318020 1_555
Sc47 Sc75 3.318020 1_555
Sc48 Sc96 3.087226 1_555
Sc48 Sc6 3.111156 1_556
Sc48 Sc81 3.318020 1_555
Sc48 Sc74 3.318020 1_555
Sc49 Sc97 3.087226 1_555
Sc49 Sc6 3.111156 1_555
Sc49 Sc68 3.318020 1_555
Sc49 Sc83 3.318020 1_555
Sc50 Sc98 3.087226 1_555
Sc50 Sc7 3.111156 1_655
Sc50 Sc87 3.318020 1_555
Sc50 Sc76 3.318020 1_555
Sc51 Sc53 2.978875 1_554
Sc51 Sc99 3.087226 1_555
Sc51 Sc8 3.111156 1_555
Sc51 Sc67 3.318020 1_555
Sc51 Sc82 3.318020 1_555
Sc52 Sc8 3.111156 1_565
Sc52 Sc85 3.318020 1_555
Sc52 Sc72 3.318020 1_555
Sc53 Sc84 3.318020 1_555
Sc53 Sc73 3.318020 1_555
Sc54 Sc92 3.089444 1_555
Sc54 Sc90 3.121032 1_555
Sc54 Sc56 3.123604 1_555
Sc54 Sc55 3.123604 1_555
Sc54 Sc60 3.123604 1_555
Sc54 Sc59 3.123604 1_555
Sc54 Sc64 3.142744 1_555
Sc55 Sc90 3.089444 1_555
Sc55 Sc91 3.121032 1_555
Sc55 Sc56 3.123604 1_555
Sc55 Sc62 3.123604 1_555
Sc55 Sc65 3.123604 1_555
Sc55 Sc60 3.142744 1_555
Sc56 Sc91 3.089444 1_555
Sc56 Sc92 3.121032 1_555
Sc56 Sc64 3.123604 1_555
Sc56 Sc58 3.123604 1_555
Sc56 Sc62 3.142744 1_555
Sc57 Sc96 3.089444 1_555
Sc57 Sc93 3.121032 1_555
Sc57 Sc60 3.123604 1_555
Sc57 Sc65 3.123604 1_555
Sc57 Sc63 3.123604 1_555
Sc57 Sc61 3.123604 1_555
Sc57 Sc59 3.142744 1_555
Sc58 Sc99 3.089444 1_555
Sc58 Sc94 3.121032 1_555
Sc58 Sc64 3.123604 1_555
Sc58 Sc63 3.123604 1_555
Sc58 Sc62 3.123604 1_555
Sc58 Sc61 3.142744 1_555
Sc59 Sc97 3.089444 1_555
Sc59 Sc95 3.121032 1_555
Sc59 Sc60 3.123604 1_555
Sc59 Sc61 3.123604 1_555
Sc59 Sc64 3.123604 1_555
Sc60 Sc96 3.121032 1_555
Sc60 Sc65 3.123604 1_555
Sc61 Sc97 3.121032 1_555
Sc61 Sc64 3.123604 1_555
Sc61 Sc63 3.123604 1_555
Sc62 Sc94 3.089444 1_555
Sc62 Sc98 3.121032 1_555
Sc62 Sc65 3.123604 1_555
Sc62 Sc63 3.123604 1_555
Sc63 Sc98 3.089444 1_555
Sc63 Sc99 3.121032 1_555
Sc63 Sc65 3.142744 1_555
Sc64 Sc95 3.089444 1_555
Sc65 Sc93 3.089444 1_555
Sc66 Sc87 3.205859 1_455
Sc66 Sc67 3.299575 1_555
Sc66 Sc68 3.299575 1_555
Sc66 Sc7 3.394082 1_555
Sc67 Sc85 3.205859 1_545
Sc67 Sc68 3.299575 1_555
Sc67 Sc8 3.394082 1_555
Sc68 Sc81 3.205859 1_554
Sc69 Sc80 3.205859 1_554
Sc69 Sc72 3.299575 1_555
Sc69 Sc77 3.299575 1_555
Sc70 Sc84 3.205859 1_565
Sc70 Sc74 3.299575 1_555
Sc70 Sc75 3.299575 1_555
Sc71 Sc86 3.205859 1_556
Sc71 Sc76 3.299575 1_555
Sc71 Sc73 3.299575 1_555
Sc72 Sc82 3.205859 1_565
Sc72 Sc77 3.299575 1_555
Sc72 Sc8 3.394082 1_565
Sc73 Sc79 3.205859 1_545
Sc73 Sc76 3.299575 1_555
Sc74 Sc83 3.205859 1_556
Sc74 Sc75 3.299575 1_555
Sc75 Sc78 3.205859 1_455
Sc75 Sc9 3.394082 1_555
Sc76 Sc89 3.205859 1_655
Sc77 Sc88 3.205859 1_655
Sc77 Sc9 3.394082 1_655
Sc78 Sc91 3.176105 1_555
Sc78 Sc79 3.299575 1_555
Sc78 Sc80 3.299575 1_555
Sc78 Sc92 3.303603 1_555
Sc78 Sc9 3.394082 1_655
Sc79 Sc92 3.176105 1_555
Sc79 Sc80 3.299575 1_555
Sc79 Sc90 3.303603 1_555
Sc80 Sc90 3.176105 1_555
Sc80 Sc91 3.303603 1_555
Sc81 Sc89 3.299575 1_555
Sc81 Sc84 3.299575 1_555
Sc81 Sc96 3.303603 1_555
Sc82 Sc98 3.176105 1_555
Sc82 Sc87 3.299575 1_555
Sc82 Sc86 3.299575 1_555
Sc82 Sc99 3.303603 1_555
Sc83 Sc85 3.299575 1_555
Sc83 Sc88 3.299575 1_555
Sc83 Sc97 3.303603 1_555
Sc84 Sc93 3.176105 1_555
Sc84 Sc89 3.299575 1_555
Sc85 Sc95 3.176105 1_555
Sc85 Sc88 3.299575 1_555
Sc86 Sc99 3.176105 1_555
Sc86 Sc87 3.299575 1_555
Sc86 Sc94 3.303603 1_555
Sc87 Sc94 3.176105 1_555
Sc87 Sc98 3.303603 1_555
Sc88 Sc97 3.176105 1_555
Sc88 Sc95 3.303603 1_555
Sc88 Sc9 3.394082 1_555
Sc89 Sc96 3.176105 1_555
Sc89 Sc93 3.303603 1_555
Sc90 Sc91 3.174603 1_555
Sc90 Sc92 3.174603 1_555
Sc91 Sc92 3.174603 1_555
Sc93 Sc96 3.174603 1_555
Sc94 Sc99 3.174603 1_555
Sc94 Sc98 3.174603 1_555
Sc95 Sc97 3.174603 1_555
Sc98 Sc99 3.174603 1_555
Sc100 Sc26 3.082804 1_555
Sc100 Sc52 3.087226 1_555
Sc100 Sc61 3.089444 1_555
Sc100 Sc64 3.121032 1_555
Sc100 Sc97 3.174603 1_555
Sc100 Sc95 3.174603 1_555
Sc100 Sc83 3.176105 1_555
Sc100 Sc16 3.231772 1_555
Sc100 Sc85 3.303603 1_555
Sc100 Sc113 3.312188 1_555
Sc101 Sc20 3.082804 1_556
Sc101 Sc53 3.087226 1_555
Sc101 Sc60 3.089444 1_555
Sc101 Sc65 3.121032 1_555
Sc101 Sc93 3.174603 1_555
Sc101 Sc96 3.174603 1_555
Sc101 Sc81 3.176105 1_555
Sc101 Sc14 3.231772 1_555
Sc101 Sc84 3.303603 1_555
Sc101 Sc112 3.312188 1_555
Sc102 Sc20 3.082804 1_555
Sc102 Sc51 3.087226 1_555
Sc102 Sc61 3.089444 1_555
Sc102 Sc63 3.121032 1_555
Sc102 Sc104 3.174603 1_555
Sc102 Sc103 3.174603 1_555
Sc102 Sc68 3.176105 1_555
Sc102 Sc16 3.231772 1_555
Sc102 Sc67 3.303603 1_555
Sc102 Sc99 3.312188 1_555
Sc103 Sc18 3.082804 1_555
Sc103 Sc49 3.087226 1_555
Sc103 Sc57 3.089444 1_555
Sc103 Sc61 3.121032 1_555
Sc103 Sc104 3.174603 1_555
Sc103 Sc66 3.176105 1_555
Sc103 Sc17 3.231772 1_555
Sc103 Sc68 3.303603 1_555
Sc103 Sc97 3.312188 1_555
Sc104 Sc19 3.082804 1_555
Sc104 Sc45 3.087226 1_555
Sc104 Sc63 3.089444 1_555
Sc104 Sc57 3.121032 1_555
Sc104 Sc67 3.176105 1_555
Sc104 Sc15 3.231772 1_555
Sc104 Sc66 3.303603 1_555
Sc104 Sc93 3.312188 1_555
Sc105 Sc24 3.082804 1_565
Sc105 Sc44 3.087226 1_555
Sc105 Sc64 3.089444 1_555
Sc105 Sc56 3.121032 1_555
Sc105 Sc113 3.174603 1_555
Sc105 Sc108 3.174603 1_555
Sc105 Sc72 3.176105 1_555
Sc105 Sc13 3.231772 1_555
Sc105 Sc77 3.303603 1_555
Sc105 Sc92 3.312188 1_555
Sc106 Sc27 3.082804 1_555
Sc106 Sc48 3.087226 1_555
Sc106 Sc59 3.089444 1_555
Sc106 Sc60 3.121032 1_555
Sc106 Sc110 3.174603 1_555
Sc106 Sc111 3.174603 1_555
Sc106 Sc75 3.176105 1_555
Sc106 Sc17 3.231772 1_555
Sc106 Sc74 3.303603 1_555
Sc106 Sc96 3.312188 1_555
Sc107 Sc25 3.082804 1_555
Sc107 Sc50 3.087226 1_555
Sc107 Sc65 3.089444 1_555
Sc107 Sc62 3.121032 1_555
Sc107 Sc112 3.174603 1_555
Sc107 Sc109 3.174603 1_555
Sc107 Sc73 3.176105 1_555
Sc107 Sc15 3.231772 1_555
Sc107 Sc76 3.303603 1_555
Sc107 Sc98 3.312188 1_555
Sc108 Sc29 3.082804 1_655
Sc108 Sc46 3.087226 1_555
Sc108 Sc56 3.089444 1_555
Sc108 Sc58 3.121032 1_555
Sc108 Sc113 3.174603 1_555
Sc108 Sc77 3.176105 1_555
Sc108 Sc12 3.231772 1_555
Sc108 Sc69 3.303603 1_555
Sc108 Sc94 3.312188 1_555
Sc109 Sc28 3.082804 1_655
Sc109 Sc43 3.087226 1_555
Sc109 Sc62 3.089444 1_555
Sc109 Sc55 3.121032 1_555
Sc109 Sc112 3.174603 1_555
Sc109 Sc76 3.176105 1_555
Sc109 Sc12 3.231772 1_555
Sc109 Sc71 3.303603 1_555
Sc109 Sc91 3.312188 1_555
Sc110 Sc22 3.082804 1_565
Sc110 Sc47 3.087226 1_555
Sc110 Sc54 3.089444 1_555
Sc110 Sc59 3.121032 1_555
Sc110 Sc111 3.174603 1_555
Sc110 Sc70 3.176105 1_555
Sc110 Sc13 3.231772 1_555
Sc110 Sc75 3.303603 1_555
Sc110 Sc95 3.312188 1_555
Sc111 Sc26 3.082804 1_556
Sc111 Sc42 3.087226 1_555
Sc111 Sc60 3.089444 1_555
Sc111 Sc54 3.121032 1_555
Sc111 Sc74 3.176105 1_555
Sc111 Sc14 3.231772 1_555
Sc111 Sc70 3.303603 1_555
Sc111 Sc90 3.312188 1_555
Sc112 Sc23 3.082804 1_556
Sc112 Sc53 3.087226 1_555
Sc112 Sc55 3.089444 1_555
Sc112 Sc65 3.121032 1_555
Sc112 Sc71 3.176105 1_555
Sc112 Sc14 3.231772 1_555
Sc112 Sc73 3.303603 1_555
Sc113 Sc21 3.082804 1_555
Sc113 Sc52 3.087226 1_555
Sc113 Sc58 3.089444 1_555
Sc113 Sc64 3.121032 1_555
Sc113 Sc69 3.176105 1_555
Sc113 Sc16 3.231772 1_555
Sc113 Sc72 3.303603 1_555
Rh0 Sc38 3.006972 1_545
Rh0 Sc40 3.006972 1_554
Rh0 Sc31 3.006972 1_555
Rh0 Sc32 3.006972 1_555
Rh0 Sc36 3.006972 1_455
Rh0 Sc30 3.006972 1_555
Rh0 Sc41 3.006972 1_545
Rh0 Sc33 3.006972 1_445
Rh0 Sc34 3.006972 1_554
Rh0 Sc35 3.006972 1_455
Rh0 Sc39 3.006972 1_544
Rh0 Sc37 3.006972 1_454
Rh1 Sc56 2.974351 1_555
Rh1 Sc55 2.974351 1_555
Rh1 Sc54 2.974351 1_555
Rh1 Sc62 2.974351 1_555
Rh1 Sc60 2.974351 1_555
Rh1 Sc64 2.974351 1_555
Rh1 Sc58 2.974351 1_555
Rh1 Sc59 2.974351 1_555
Rh1 Sc65 2.974351 1_555
Rh1 Sc61 2.974351 1_555
Rh1 Sc57 2.974351 1_555
Rh1 Sc63 2.974351 1_555
Rh2 Sc18 2.547680 1_555
Rh2 Sc30 2.618516 1_555
Rh2 Sc49 2.864563 1_555
Rh2 Sc46 2.864563 1_455
Rh2 Sc66 2.953343 1_555
Rh2 Sc87 2.953343 1_455
Rh2 Sc1 2.984322 1_555
Rh2 Sc68 3.082335 1_555
Rh2 Sc86 3.082335 1_455
Rh3 Sc19 2.547680 1_555
Rh3 Sc31 2.618516 1_555
Rh3 Sc45 2.864563 1_555
Rh3 Sc47 2.864563 1_545
Rh3 Sc67 2.953343 1_555
Rh3 Sc85 2.953343 1_545
Rh3 Sc2 2.984322 1_555
Rh3 Sc66 3.082335 1_555
Rh3 Sc88 3.082335 1_545
Rh4 Sc20 2.547680 1_555
Rh4 Sc32 2.618516 1_555
Rh4 Sc51 2.864563 1_555
Rh4 Sc53 2.864563 1_554
Rh4 Sc68 2.953343 1_555
Rh4 Sc81 2.953343 1_554
Rh4 Sc0 2.984322 1_555
Rh4 Sc67 3.082335 1_555
Rh4 Sc84 3.082335 1_554
Rh5 Sc21 2.547680 1_555
Rh5 Sc33 2.618516 1_555
Rh5 Sc52 2.864563 1_555
Rh5 Sc42 2.864563 1_554
Rh5 Sc69 2.953343 1_555
Rh5 Sc80 2.953343 1_554
Rh5 Sc5 2.984322 1_565
Rh5 Sc72 3.082335 1_555
Rh5 Sc79 3.082335 1_554
Rh6 Sc22 2.547680 1_555
Rh6 Sc34 2.618516 1_555
Rh6 Sc45 2.864563 1_555
Rh6 Sc47 2.864563 1_545
Rh6 Sc84 2.953343 1_555
Rh6 Sc70 2.953343 1_545
Rh6 Sc4 2.984322 1_555
Rh6 Sc89 3.082335 1_555
Rh6 Sc75 3.082335 1_545
Rh7 Sc23 2.547680 1_555
Rh7 Sc35 2.618516 1_555
Rh7 Sc51 2.864563 1_555
Rh7 Sc53 2.864563 1_554
Rh7 Sc86 2.953343 1_555
Rh7 Sc71 2.953343 1_554
Rh7 Sc5 2.984322 1_555
Rh7 Sc82 3.082335 1_555
Rh7 Sc73 3.082335 1_554
Rh8 Sc24 2.547680 1_555
Rh8 Sc36 2.618516 1_555
Rh8 Sc50 2.864563 1_555
Rh8 Sc44 2.864563 1_545
Rh8 Sc82 2.953343 1_555
Rh8 Sc72 2.953343 1_545
Rh8 Sc2 2.984322 1_655
Rh8 Sc87 3.082335 1_555
Rh8 Sc77 3.082335 1_545
Rh9 Sc25 2.547680 1_555
Rh9 Sc37 2.618516 1_555
Rh9 Sc50 2.864563 1_555
Rh9 Sc44 2.864563 1_545
Rh9 Sc73 2.953343 1_555
Rh9 Sc79 2.953343 1_545
Rh9 Sc4 2.984322 1_655
Rh9 Sc76 3.082335 1_555
Rh9 Sc78 3.082335 1_545
Rh10 Sc26 2.547680 1_555
Rh10 Sc38 2.618516 1_555
Rh10 Sc52 2.864563 1_555
Rh10 Sc42 2.864563 1_554
Rh10 Sc83 2.953343 1_555
Rh10 Sc74 2.953343 1_554
Rh10 Sc0 2.984322 1_565
Rh10 Sc85 3.082335 1_555
Rh10 Sc70 3.082335 1_554
Rh11 Sc27 2.547680 1_555
Rh11 Sc39 2.618516 1_555
Rh11 Sc48 2.864563 1_555
Rh11 Sc43 2.864563 1_455
Rh11 Sc75 2.953343 1_555
Rh11 Sc78 2.953343 1_455
Rh11 Sc3 2.984322 1_556
Rh11 Sc74 3.082335 1_555
Rh11 Sc80 3.082335 1_455
Rh12 Sc28 2.547680 1_555
Rh12 Sc40 2.618516 1_555
Rh12 Sc48 2.864563 1_555
Rh12 Sc43 2.864563 1_455
Rh12 Sc89 2.953343 1_555
Rh12 Sc76 2.953343 1_455
Rh12 Sc1 2.984322 1_556
Rh12 Sc81 3.082335 1_555
Rh12 Sc71 3.082335 1_455
Rh13 Sc29 2.547680 1_555
Rh13 Sc41 2.618516 1_555
Rh13 Sc49 2.864563 1_555
Rh13 Sc46 2.864563 1_455
Rh13 Sc88 2.953343 1_555
Rh13 Sc77 2.953343 1_455
Rh13 Sc3 2.984322 1_555
Rh13 Sc83 3.082335 1_555
Rh13 Sc69 3.082335 1_455
Rh14 Sc54 2.626093 1_555
Rh14 Sc10 2.629374 1_565
Rh14 Sc42 2.839579 1_555
Rh14 Sc92 2.923202 1_555
Rh14 Sc110 2.923202 1_555
Rh14 Sc13 2.926140 1_555
Rh14 Sc111 3.061735 1_555
Rh14 Sc90 3.061735 1_555
Rh14 Sc25 3.370162 1_565
Rh14 Sc22 3.370162 1_565
Rh14 Sc70 3.438497 1_555
Rh14 Sc79 3.438497 1_555
Rh15 Sc55 2.626093 1_555
Rh15 Sc11 2.629374 1_556
Rh15 Sc43 2.839579 1_555
Rh15 Sc90 2.923202 1_555
Rh15 Sc112 2.923202 1_555
Rh15 Sc14 2.926140 1_555
Rh15 Sc109 3.061735 1_555
Rh15 Sc91 3.061735 1_555
Rh15 Sc21 3.370162 1_556
Rh15 Sc23 3.370162 1_556
Rh15 Sc71 3.438497 1_555
Rh15 Sc80 3.438497 1_555
Rh16 Sc56 2.626093 1_555
Rh16 Sc9 2.629374 1_655
Rh16 Sc44 2.839579 1_555
Rh16 Sc91 2.923202 1_555
Rh16 Sc108 2.923202 1_555
Rh16 Sc12 2.926140 1_555
Rh16 Sc105 3.061735 1_555
Rh16 Sc92 3.061735 1_555
Rh16 Sc27 3.370162 1_655
Rh16 Sc29 3.370162 1_655
Rh16 Sc77 3.438497 1_555
Rh16 Sc78 3.438497 1_555
Rh17 Sc57 2.626093 1_555
Rh17 Sc7 2.629374 1_555
Rh17 Sc45 2.839579 1_555
Rh17 Sc96 2.923202 1_555
Rh17 Sc103 2.923202 1_555
Rh17 Sc17 2.926140 1_555
Rh17 Sc104 3.061735 1_555
Rh17 Sc93 3.061735 1_555
Rh17 Sc28 3.370162 1_555
Rh17 Sc18 3.370162 1_555
Rh17 Sc66 3.438497 1_555
Rh17 Sc89 3.438497 1_555
Rh18 Sc58 2.626093 1_555
Rh18 Sc11 2.629374 1_555
Rh18 Sc46 2.839579 1_555
Rh18 Sc113 2.923202 1_555
Rh18 Sc99 2.923202 1_555
Rh18 Sc16 2.926140 1_555
Rh18 Sc94 3.061735 1_555
Rh18 Sc108 3.061735 1_555
Rh18 Sc21 3.370162 1_555
Rh18 Sc23 3.370162 1_555
Rh18 Sc86 3.438497 1_555
Rh18 Sc69 3.438497 1_555
Rh19 Sc59 2.626093 1_555
Rh19 Sc9 2.629374 1_555
Rh19 Sc47 2.839579 1_555
Rh19 Sc106 2.923202 1_555
Rh19 Sc97 2.923202 1_555
Rh19 Sc17 2.926140 1_555
Rh19 Sc95 3.061735 1_555
Rh19 Sc110 3.061735 1_555
Rh19 Sc27 3.370162 1_555
Rh19 Sc29 3.370162 1_555
Rh19 Sc88 3.438497 1_555
Rh19 Sc75 3.438497 1_555
Rh20 Sc60 2.626093 1_555
Rh20 Sc6 2.629374 1_556
Rh20 Sc48 2.839579 1_555
Rh20 Sc111 2.923202 1_555
Rh20 Sc101 2.923202 1_555
Rh20 Sc14 2.926140 1_555
Rh20 Sc96 3.061735 1_555
Rh20 Sc106 3.061735 1_555
Rh20 Sc26 3.370162 1_556
Rh20 Sc20 3.370162 1_556
Rh20 Sc81 3.438497 1_555
Rh20 Sc74 3.438497 1_555
Rh21 Sc61 2.626093 1_555
Rh21 Sc6 2.629374 1_555
Rh21 Sc49 2.839579 1_555
Rh21 Sc100 2.923202 1_555
Rh21 Sc102 2.923202 1_555
Rh21 Sc16 2.926140 1_555
Rh21 Sc97 3.061735 1_555
Rh21 Sc103 3.061735 1_555
Rh21 Sc26 3.370162 1_555
Rh21 Sc20 3.370162 1_555
Rh21 Sc68 3.438497 1_555
Rh21 Sc83 3.438497 1_555
Rh22 Sc62 2.626093 1_555
Rh22 Sc7 2.629374 1_655
Rh22 Sc50 2.839579 1_555
Rh22 Sc109 2.923202 1_555
Rh22 Sc94 2.923202 1_555
Rh22 Sc12 2.926140 1_555
Rh22 Sc107 3.061735 1_555
Rh22 Sc98 3.061735 1_555
Rh22 Sc28 3.370162 1_655
Rh22 Sc18 3.370162 1_655
Rh22 Sc87 3.438497 1_555
Rh22 Sc76 3.438497 1_555
Rh23 Sc63 2.626093 1_555
Rh23 Sc8 2.629374 1_555
Rh23 Sc51 2.839579 1_555
Rh23 Sc98 2.923202 1_555
Rh23 Sc104 2.923202 1_555
Rh23 Sc15 2.926140 1_555
Rh23 Sc102 3.061735 1_555
Rh23 Sc99 3.061735 1_555
Rh23 Sc24 3.370162 1_555
Rh23 Sc19 3.370162 1_555
Rh23 Sc67 3.438497 1_555
Rh23 Sc82 3.438497 1_555
Rh24 Sc64 2.626093 1_555
Rh24 Sc8 2.629374 1_565
Rh24 Sc52 2.839579 1_555
Rh24 Sc105 2.923202 1_555
Rh24 Sc95 2.923202 1_555
Rh24 Sc13 2.926140 1_555
Rh24 Sc100 3.061735 1_555
Rh24 Sc113 3.061735 1_555
Rh24 Sc24 3.370162 1_565
Rh24 Sc19 3.370162 1_565
Rh24 Sc85 3.438497 1_555
Rh24 Sc72 3.438497 1_555
Rh25 Sc65 2.626093 1_555
Rh25 Sc10 2.629374 1_555
Rh25 Sc53 2.839579 1_555
Rh25 Sc107 2.923202 1_555
Rh25 Sc93 2.923202 1_555
Rh25 Sc15 2.926140 1_555
Rh25 Sc101 3.061735 1_555
Rh25 Sc112 3.061735 1_555
Rh25 Sc25 3.370162 1_555
Rh25 Sc22 3.370162 1_555
Rh25 Sc84 3.438497 1_555
Rh25 Sc73 3.438497 1_555
