# generated using pymatgen
data_Sc4CuSb4Ir3
_symmetry_space_group_name_H-M   'P 1'
_cell_length_a   4.44868274
_cell_length_b   4.44868354
_cell_length_c   14.79935329
_cell_angle_alpha   89.99999942
_cell_angle_beta   81.35569368
_cell_angle_gamma   120.00000481
_symmetry_Int_Tables_number   1
_chemical_formula_structural   Sc4CuSb4Ir3
_chemical_formula_sum   'Sc4 Cu1 Sb4 Ir3'
_cell_volume   249.80163699
_cell_formula_units_Z   1
loop_
 _symmetry_equiv_pos_site_id
 _symmetry_equiv_pos_as_xyz
  1  'x, y, z'
loop_
 _atom_site_type_symbol
 _atom_site_label
 _atom_site_symmetry_multiplicity
 _atom_site_fract_x
 _atom_site_fract_y
 _atom_site_fract_z
 _atom_site_occupancy
  Sc  Sc0  1  0.25191805  0.62595852  0.12212343  1
  Sc  Sc1  1  0.74830370  0.87415185  0.37754444  1
  Sc  Sc2  1  0.25002512  0.12501206  0.62496282  1
  Sc  Sc3  1  0.74972330  0.37486115  0.87541555  1
  Cu  Cu0  1  0.87664712  0.93832306  0.18502981  1
  Sb  Sb0  1  0.99932800  0.49966400  0.50100800  1
  Sb  Sb1  1  0.49798306  0.74899203  0.75302491  1
  Sb  Sb2  1  0.00089070  0.00044585  0.99866345  1
  Sb  Sb3  1  0.50100507  0.25050253  0.24849240  1
  Ir  Ir0  1  0.37662300  0.18831100  0.43506600  1
  Ir  Ir1  1  0.87564065  0.43782032  0.68653903  1
  Ir  Ir2  1  0.37191323  0.68595562  0.94213115  1
loop_
_geom_bond_atom_site_label_1
_geom_bond_atom_site_label_2
_geom_bond_distance
_geom_bond_site_symmetry_2
Cu0 Sb2 2.716247 1_664
Cu0 Sc0 2.727184 1_555
Cu0 Sc0 2.727184 1_655
Cu0 Sc0 2.727184 1_665
Cu0 Sb3 2.729919 1_665
Cu0 Sb3 2.729919 1_555
Cu0 Sb3 2.729923 1_565
Cu0 Sc1 2.805857 1_555
Sb0 Sc1 3.136073 1_655
Sb0 Sc1 3.136074 1_555
Sb0 Sc1 3.136074 1_545
Sb0 Sc2 3.140186 1_555
Sb0 Sc2 3.140187 1_665
Sb0 Sc2 3.140190 1_655
Sb1 Sc3 3.127125 1_455
Sb1 Sc3 3.127125 1_565
Sb1 Sc3 3.127132 1_555
Sb1 Sc2 3.175001 1_565
Sb1 Sc2 3.175007 1_665
Sb1 Sc2 3.175007 1_555
Sb2 Sc3 3.134267 1_455
Sb2 Sc3 3.134273 1_555
Sb2 Sc3 3.134273 1_445
Sb2 Sc0 3.136041 1_446
Sb2 Sc0 3.136042 1_556
Sb2 Sc0 3.136048 1_546
Sb3 Sc0 3.160560 1_555
Sb3 Sc0 3.160562 1_655
Sb3 Sc0 3.160563 1_545
Sb3 Sc1 3.183508 1_445
Sb3 Sc1 3.183509 1_545
Sb3 Sc1 3.183509 1_555
Ir0 Sc1 2.701808 1_545
Ir0 Sc1 2.701811 1_445
Ir0 Sc1 2.701812 1_555
Ir0 Sb3 2.719267 1_555
Ir0 Sb0 2.742373 1_555
Ir0 Sb0 2.742374 1_445
Ir0 Sb0 2.742377 1_455
Ir0 Sc2 2.767703 1_555
Ir1 Sb0 2.704072 1_555
Ir1 Sc2 2.720726 1_555
Ir1 Sc2 2.720727 1_665
Ir1 Sc2 2.720730 1_655
Ir1 Sb1 2.745162 1_655
Ir1 Sb1 2.745162 1_545
Ir1 Sb1 2.745165 1_555
Ir1 Sc3 2.752832 1_555
Ir2 Sc0 2.623346 1_556
Ir2 Sb2 2.697368 1_665
Ir2 Sb2 2.697368 1_555
Ir2 Sb2 2.697379 1_565
Ir2 Sc3 2.746344 1_555
Ir2 Sc3 2.746348 1_455
Ir2 Sc3 2.746348 1_565
Ir2 Sb1 2.756180 1_555
