# generated using pymatgen
data_Rb6ScInAs4
_symmetry_space_group_name_H-M   'P 1'
_cell_length_a   9.44391363
_cell_length_b   9.44391384
_cell_length_c   9.44391373
_cell_angle_alpha   137.15218676
_cell_angle_beta   127.87228370
_cell_angle_gamma   69.69202693
_symmetry_Int_Tables_number   1
_chemical_formula_structural   Rb6ScInAs4
_chemical_formula_sum   'Rb6 Sc1 In1 As4'
_cell_volume   443.74841179
_cell_formula_units_Z   1
loop_
 _symmetry_equiv_pos_site_id
 _symmetry_equiv_pos_as_xyz
  1  'x, y, z'
loop_
 _atom_site_type_symbol
 _atom_site_label
 _atom_site_symmetry_multiplicity
 _atom_site_fract_x
 _atom_site_fract_y
 _atom_site_fract_z
 _atom_site_occupancy
  Rb  Rb0  1  0.01651460  0.80403695  0.19020608  1
  Rb  Rb1  1  0.50000000  0.75000000  0.25000000  1
  Rb  Rb2  1  0.61383087  0.32630753  0.30979392  1
  Rb  Rb3  1  0.38616913  0.69596305  0.71247765  1
  Rb  Rb4  1  0.50000000  0.25000000  0.75000000  1
  Rb  Rb5  1  0.98348540  0.17369247  0.78752235  1
  Sc  Sc0  1  0.00000000  0.25000000  0.25000000  1
  In  In0  1  0.00000000  0.75000000  0.75000000  1
  As  As0  1  0.08759957  0.40188648  0.67905199  1
  As  As1  1  0.91240043  0.59145142  0.31428590  1
  As  As2  1  0.27716552  0.09811352  0.18571410  1
  As  As3  1  0.72283448  0.90854858  0.82094801  1
loop_
_geom_bond_atom_site_label_1
_geom_bond_atom_site_label_2
_geom_bond_distance
_geom_bond_site_symmetry_2
Rb0 Sc0 3.774382 1_565
Rb2 Sc0 3.774384 1_655
Rb3 Sc0 3.774383 1_555
Rb5 Sc0 3.774388 1_656
In0 Rb3 3.703502 1_555
In0 Rb0 3.703502 1_556
In0 Rb2 3.703508 1_455
In0 Rb5 3.703512 1_465
As0 Sc0 2.710275 1_555
As0 In0 2.739364 1_555
As0 Rb4 3.464448 1_555
As0 Rb2 3.478345 1_455
As0 Rb1 3.487253 1_556
As0 Rb5 3.550338 1_455
As0 Rb0 3.674729 1_556
As0 Rb0 3.774474 1_545
As1 Sc0 2.710271 1_655
As1 In0 2.739369 1_655
As1 Rb4 3.464446 1_554
As1 Rb3 3.478346 1_655
As1 Rb1 3.487256 1_555
As1 Rb0 3.550346 1_655
As1 Rb5 3.674742 1_565
As1 Rb5 3.774467 1_554
As2 Sc0 2.710271 1_555
As2 In0 2.739365 1_544
As2 Rb4 3.464441 1_555
As2 Rb5 3.478360 1_454
As2 Rb1 3.487248 1_545
As2 Rb2 3.550347 1_555
As2 Rb3 3.674735 1_544
As2 Rb3 3.774473 1_555
As3 Sc0 2.710272 1_666
As3 In0 2.739364 1_655
As3 Rb4 3.464440 1_565
As3 Rb0 3.478353 1_656
As3 Rb1 3.487248 1_555
As3 Rb3 3.550353 1_555
As3 Rb2 3.674742 1_555
As3 Rb2 3.774472 1_566
