# generated using pymatgen
data_Hf9Nb2Re2Ge
_symmetry_space_group_name_H-M   'P 1'
_cell_length_a   8.65739387
_cell_length_b   8.65739450
_cell_length_c   8.78175526
_cell_angle_alpha   90.00000000
_cell_angle_beta   90.00000000
_cell_angle_gamma   120.26572351
_symmetry_Int_Tables_number   1
_chemical_formula_structural   Hf9Nb2Re2Ge
_chemical_formula_sum   'Hf18 Nb4 Re4 Ge2'
_cell_volume   568.48268001
_cell_formula_units_Z   2
loop_
 _symmetry_equiv_pos_site_id
 _symmetry_equiv_pos_as_xyz
  1  'x, y, z'
loop_
 _atom_site_type_symbol
 _atom_site_label
 _atom_site_symmetry_multiplicity
 _atom_site_fract_x
 _atom_site_fract_y
 _atom_site_fract_z
 _atom_site_occupancy
  Hf  Hf0  1  0.19785900  0.80214100  0.45688405  1
  Hf  Hf1  1  0.19691033  0.39353652  0.46046637  1
  Hf  Hf2  1  0.60646348  0.80308967  0.46046637  1
  Hf  Hf3  1  0.80544320  0.19455680  0.55116070  1
  Hf  Hf4  1  0.80405302  0.60934681  0.54877629  1
  Hf  Hf5  1  0.39065319  0.19594698  0.54877629  1
  Hf  Hf6  1  0.80544320  0.19455680  0.94883930  1
  Hf  Hf7  1  0.80405302  0.60934681  0.95122371  1
  Hf  Hf8  1  0.39065319  0.19594698  0.95122371  1
  Hf  Hf9  1  0.19785900  0.80214100  0.04311595  1
  Hf  Hf10  1  0.19691033  0.39353652  0.03953363  1
  Hf  Hf11  1  0.60646348  0.80308967  0.03953363  1
  Hf  Hf12  1  0.53727413  0.46272587  0.25000000  1
  Hf  Hf13  1  0.53892816  0.07634312  0.25000000  1
  Hf  Hf14  1  0.92365688  0.46107184  0.25000000  1
  Hf  Hf15  1  0.45997597  0.54002403  0.75000000  1
  Hf  Hf16  1  0.46304401  0.92165284  0.75000000  1
  Hf  Hf17  1  0.07834716  0.53695599  0.75000000  1
  Nb  Nb0  1  0.88963427  0.11036573  0.25000000  1
  Nb  Nb1  1  0.88910537  0.77790926  0.25000000  1
  Nb  Nb2  1  0.22209074  0.11089463  0.25000000  1
  Nb  Nb3  1  0.10799491  0.89200509  0.75000000  1
  Re  Re0  1  0.10854097  0.22153334  0.75000000  1
  Re  Re1  1  0.77846666  0.89145903  0.75000000  1
  Re  Re2  1  0.99938705  0.00061295  0.50005509  1
  Re  Re3  1  0.99938705  0.00061295  0.99994491  1
  Ge  Ge0  1  0.33444919  0.66555081  0.25000000  1
  Ge  Ge1  1  0.66695405  0.33304595  0.75000000  1
loop_
_geom_bond_atom_site_label_1
_geom_bond_atom_site_label_2
_geom_bond_distance
_geom_bond_site_symmetry_2
Hf0 Nb3 2.906287 1_555
Hf0 Re2 3.004091 1_465
Hf0 Nb1 3.150314 1_455
Hf0 Nb2 3.150314 1_565
Hf1 Re0 2.849426 1_555
Hf1 Re2 2.958535 1_455
Hf1 Nb0 3.151012 1_455
Hf1 Nb2 3.160512 1_555
Hf2 Re1 2.849426 1_555
Hf2 Re2 2.958535 1_565
Hf2 Nb0 3.151012 1_565
Hf2 Nb1 3.160512 1_555
Hf3 Nb0 2.931310 1_555
Hf3 Re2 2.946463 1_555
Hf3 Re0 3.061279 1_655
Hf3 Re1 3.061279 1_545
Hf4 Nb1 2.910814 1_555
Hf4 Re2 2.956805 1_565
Hf4 Nb3 3.089345 1_655
Hf4 Re1 3.111616 1_555
Hf5 Nb2 2.910814 1_555
Hf5 Re2 2.956805 1_455
Hf5 Nb3 3.089345 1_545
Hf5 Re0 3.111616 1_555
Hf6 Nb0 2.931310 1_556
Hf6 Re3 2.946463 1_555
Hf6 Re0 3.061279 1_655
Hf6 Re1 3.061279 1_545
Hf7 Nb1 2.910814 1_556
Hf7 Re3 2.956805 1_565
Hf7 Nb3 3.089345 1_655
Hf7 Re1 3.111616 1_555
Hf8 Nb2 2.910814 1_556
Hf8 Re3 2.956805 1_455
Hf8 Nb3 3.089345 1_545
Hf8 Re0 3.111616 1_555
Hf9 Nb3 2.906287 1_554
Hf9 Re3 3.004091 1_464
Hf9 Nb1 3.150314 1_455
Hf9 Nb2 3.150314 1_565
Hf10 Re0 2.849426 1_554
Hf10 Re3 2.958535 1_454
Hf10 Nb0 3.151012 1_455
Hf10 Nb2 3.160512 1_555
Hf11 Re1 2.849426 1_554
Hf11 Re3 2.958535 1_564
Hf11 Nb0 3.151012 1_565
Hf11 Nb1 3.160512 1_555
Hf12 Nb1 2.888832 1_555
Hf12 Nb2 2.888832 1_555
Hf13 Nb0 2.898930 1_555
Hf13 Nb2 2.905259 1_555
Hf14 Nb0 2.898930 1_555
Hf14 Nb1 2.905259 1_555
Hf15 Re0 2.898821 1_555
Hf15 Re1 2.898821 1_555
Hf16 Re1 2.871376 1_555
Hf16 Nb3 2.952768 1_555
Hf17 Re0 2.871376 1_555
Hf17 Nb3 2.952768 1_555
Nb0 Re2 2.745506 1_555
Nb0 Re3 2.745506 1_554
Nb0 Nb2 2.875902 1_655
Nb0 Nb1 2.875902 1_545
Nb1 Re2 2.755972 1_565
Nb1 Re3 2.755972 1_564
Nb1 Nb2 2.871199 1_665
Nb2 Re2 2.755972 1_455
Nb2 Re3 2.755972 1_454
Nb3 Re3 2.734446 1_465
Nb3 Re2 2.734446 1_465
Nb3 Re1 2.850476 1_455
Nb3 Re0 2.850476 1_565
Re0 Re3 2.747175 1_455
Re0 Re2 2.747175 1_455
Re0 Re1 2.846099 1_445
Re1 Re3 2.747175 1_565
Re1 Re2 2.747175 1_565
Ge0 Hf0 2.739895 1_555
Ge0 Hf9 2.739895 1_555
Ge0 Hf2 2.748281 1_555
Ge0 Hf11 2.748281 1_555
Ge0 Hf1 2.748281 1_555
Ge0 Hf10 2.748281 1_555
Ge0 Hf12 3.045433 1_555
Ge0 Hf14 3.071725 1_455
Ge0 Hf13 3.071725 1_565
Ge1 Hf6 2.715342 1_555
Ge1 Hf3 2.715342 1_555
Ge1 Hf8 2.718704 1_555
Ge1 Hf5 2.718704 1_555
Ge1 Hf7 2.718704 1_555
Ge1 Hf4 2.718704 1_555
Ge1 Hf17 3.076281 1_655
Ge1 Hf16 3.076281 1_545
Ge1 Hf15 3.107793 1_555
