# generated using pymatgen
data_MgAg7(SO4)6
_symmetry_space_group_name_H-M   'P 1'
_cell_length_a   8.44966080
_cell_length_b   8.44966072
_cell_length_c   8.44966027
_cell_angle_alpha   108.24455861
_cell_angle_beta   108.24456766
_cell_angle_gamma   108.24457726
_symmetry_Int_Tables_number   1
_chemical_formula_structural   MgAg7(SO4)6
_chemical_formula_sum   'Mg1 Ag7 S6 O24'
_cell_volume   484.34748075
_cell_formula_units_Z   1
loop_
 _symmetry_equiv_pos_site_id
 _symmetry_equiv_pos_as_xyz
  1  'x, y, z'
loop_
 _atom_site_type_symbol
 _atom_site_label
 _atom_site_symmetry_multiplicity
 _atom_site_fract_x
 _atom_site_fract_y
 _atom_site_fract_z
 _atom_site_occupancy
  Mg  Mg0  1  0.00000000  0.00000000  0.00000000  1
  Ag  Ag0  1  0.50000000  0.50000000  0.50000000  1
  Ag  Ag1  1  0.82840237  0.33176103  0.66647646  1
  Ag  Ag2  1  0.33176103  0.66647646  0.82840237  1
  Ag  Ag3  1  0.66647646  0.82840237  0.33176103  1
  Ag  Ag4  1  0.17159763  0.66823897  0.33352354  1
  Ag  Ag5  1  0.66823897  0.33352354  0.17159763  1
  Ag  Ag6  1  0.33352354  0.17159763  0.66823897  1
  S  S0  1  0.96642149  0.76215250  0.59408379  1
  S  S1  1  0.76215250  0.59408379  0.96642149  1
  S  S2  1  0.59408379  0.96642149  0.76215250  1
  S  S3  1  0.03357851  0.23784750  0.40591621  1
  S  S4  1  0.23784750  0.40591621  0.03357851  1
  S  S5  1  0.40591621  0.03357851  0.23784750  1
  O  O0  1  0.48512671  0.91270290  0.15850883  1
  O  O1  1  0.91270290  0.15850883  0.48512671  1
  O  O2  1  0.15850883  0.48512671  0.91270290  1
  O  O3  1  0.51487329  0.08729710  0.84149117  1
  O  O4  1  0.08729710  0.84149117  0.51487329  1
  O  O5  1  0.84149117  0.51487329  0.08729710  1
  O  O6  1  0.33960598  0.98023616  0.36226517  1
  O  O7  1  0.98023616  0.36226517  0.33960598  1
  O  O8  1  0.36226517  0.33960598  0.98023616  1
  O  O9  1  0.66039402  0.01976384  0.63773483  1
  O  O10  1  0.01976384  0.63773483  0.66039402  1
  O  O11  1  0.63773483  0.66039402  0.01976384  1
  O  O12  1  0.73688287  0.97280721  0.91741330  1
  O  O13  1  0.97280721  0.91741330  0.73688287  1
  O  O14  1  0.64810860  0.43814714  0.76715550  1
  O  O15  1  0.76715550  0.64810860  0.43814714  1
  O  O16  1  0.43814714  0.76715550  0.64810860  1
  O  O17  1  0.35189140  0.56185286  0.23284450  1
  O  O18  1  0.23284450  0.35189140  0.56185286  1
  O  O19  1  0.56185286  0.23284450  0.35189140  1
  O  O20  1  0.08258670  0.26311713  0.02719279  1
  O  O21  1  0.02719279  0.08258670  0.26311713  1
  O  O22  1  0.26311713  0.02719279  0.08258670  1
  O  O23  1  0.91741330  0.73688287  0.97280721  1
loop_
_geom_bond_atom_site_label_1
_geom_bond_atom_site_label_2
_geom_bond_distance
_geom_bond_site_symmetry_2
Mg0 O20 2.022600 1_555
Mg0 O23 2.022600 1_444
Mg0 O21 2.022600 1_555
Mg0 O13 2.022600 1_444
Mg0 O22 2.022600 1_555
Mg0 O12 2.022600 1_444
Ag0 O15 2.512852 1_555
Ag0 O18 2.512852 1_555
Ag0 O14 2.512852 1_555
Ag0 O17 2.512852 1_555
Ag0 O16 2.512852 1_555
Ag0 O19 2.512852 1_555
Ag1 O1 2.220430 1_555
Ag1 O14 2.245596 1_555
Ag1 O9 2.462539 1_555
Ag1 O2 2.490571 1_655
Ag1 O19 2.553133 1_555
Ag1 O10 2.611319 1_655
Ag2 O2 2.220429 1_555
Ag2 O16 2.245595 1_555
Ag2 O10 2.462540 1_555
Ag2 O0 2.490571 1_556
Ag2 O18 2.553133 1_555
Ag2 O11 2.611319 1_556
Ag3 O0 2.220430 1_555
Ag3 O15 2.245595 1_555
Ag3 O11 2.462540 1_555
Ag3 O1 2.490571 1_565
Ag3 O17 2.553133 1_555
Ag3 O9 2.611319 1_565
Ag4 O4 2.220430 1_555
Ag4 O17 2.245596 1_555
Ag4 O6 2.462539 1_555
Ag4 O5 2.490571 1_455
Ag4 O16 2.553133 1_555
Ag4 O7 2.611319 1_455
Ag5 O5 2.220429 1_555
Ag5 O19 2.245595 1_555
Ag5 O7 2.462540 1_555
Ag5 O3 2.490571 1_554
Ag5 O15 2.553133 1_555
Ag5 O8 2.611319 1_554
Ag6 O3 2.220430 1_555
Ag6 O18 2.245595 1_555
Ag6 O8 2.462540 1_555
Ag6 O4 2.490571 1_545
Ag6 O14 2.553133 1_555
Ag6 O6 2.611319 1_545
O0 S5 1.490237 1_565
O1 S3 1.490237 1_655
O2 S4 1.490237 1_556
O3 S2 1.490237 1_545
O4 S0 1.490237 1_455
O5 S1 1.490237 1_554
O6 S5 1.459343 1_565
O7 S3 1.459343 1_655
O8 S4 1.459343 1_556
O9 S2 1.459343 1_545
O10 S0 1.459343 1_455
O11 S1 1.459343 1_554
O12 S2 1.450394 1_555
O13 S0 1.450394 1_555
O14 S1 1.516439 1_555
O15 S0 1.516439 1_555
O16 S2 1.516439 1_555
O17 S4 1.516439 1_555
O18 S3 1.516439 1_555
O19 S5 1.516439 1_555
O20 S4 1.450394 1_555
O21 S3 1.450394 1_555
O22 S5 1.450394 1_555
O23 S1 1.450394 1_555
