# generated using pymatgen
data_Cs11Rb(SbTe3)4
_symmetry_space_group_name_H-M   'P 1'
_cell_length_a   11.33489299
_cell_length_b   11.33489299
_cell_length_c   11.33489299
_cell_angle_alpha   89.96898876
_cell_angle_beta   89.96898876
_cell_angle_gamma   89.96898876
_symmetry_Int_Tables_number   1
_chemical_formula_structural   Cs11Rb(SbTe3)4
_chemical_formula_sum   'Cs11 Rb1 Sb4 Te12'
_cell_volume   1456.30413456
_cell_formula_units_Z   1
loop_
 _symmetry_equiv_pos_site_id
 _symmetry_equiv_pos_as_xyz
  1  'x, y, z'
loop_
 _atom_site_type_symbol
 _atom_site_label
 _atom_site_symmetry_multiplicity
 _atom_site_fract_x
 _atom_site_fract_y
 _atom_site_fract_z
 _atom_site_occupancy
  Cs  Cs0  1  0.81939808  0.18026829  0.67807900  1
  Cs  Cs1  1  0.18636399  0.31419916  0.69010592  1
  Cs  Cs2  1  0.31419916  0.69010592  0.18636399  1
  Cs  Cs3  1  0.69010592  0.18636399  0.31419916  1
  Cs  Cs4  1  0.81356996  0.81356996  0.81356996  1
  Cs  Cs5  1  0.42373366  0.07793678  0.92430034  1
  Cs  Cs6  1  0.07793678  0.92430034  0.42373366  1
  Cs  Cs7  1  0.92430034  0.42373366  0.07793678  1
  Cs  Cs8  1  0.57492518  0.57492518  0.57492518  1
  Cs  Cs9  1  0.67807900  0.81939808  0.18026829  1
  Cs  Cs10  1  0.18026829  0.67807900  0.81939808  1
  Rb  Rb0  1  0.32099414  0.32099414  0.32099414  1
  Sb  Sb0  1  0.02417559  0.02417559  0.02417559  1
  Sb  Sb1  1  0.47204321  0.98040537  0.52150494  1
  Sb  Sb2  1  0.52150494  0.47204321  0.98040537  1
  Sb  Sb3  1  0.98040537  0.52150494  0.47204321  1
  Te  Te0  1  0.21552465  0.59555696  0.49414440  1
  Te  Te1  1  0.78955979  0.10034154  0.00321890  1
  Te  Te2  1  0.00437224  0.28653729  0.39760027  1
  Te  Te3  1  0.70607074  0.90054968  0.50451892  1
  Te  Te4  1  0.10034154  0.00321890  0.78955979  1
  Te  Te5  1  0.50451892  0.70607074  0.90054968  1
  Te  Te6  1  0.00321890  0.78955979  0.10034154  1
  Te  Te7  1  0.39760027  0.00437224  0.28653729  1
  Te  Te8  1  0.49414440  0.21552465  0.59555696  1
  Te  Te9  1  0.90054968  0.50451892  0.70607074  1
  Te  Te10  1  0.59555696  0.49414440  0.21552465  1
  Te  Te11  1  0.28653729  0.39760027  0.00437224  1
loop_
_geom_bond_atom_site_label_1
_geom_bond_atom_site_label_2
_geom_bond_distance
_geom_bond_site_symmetry_2
Cs0 Te9 3.802656 1_555
Cs0 Te1 3.809578 1_556
Cs0 Te8 3.824688 1_555
Cs0 Te3 3.948008 1_545
Cs0 Te4 3.969841 1_655
Cs0 Te2 3.993193 1_655
Cs1 Te8 3.816185 1_555
Cs1 Te4 3.826863 1_555
Cs1 Te11 3.857617 1_556
Cs1 Te9 3.895408 1_455
Cs1 Te0 3.899541 1_555
Cs1 Te2 3.918621 1_555
Cs2 Te0 3.816185 1_555
Cs2 Te6 3.826863 1_555
Cs2 Te7 3.857617 1_565
Cs2 Te5 3.895408 1_554
Cs2 Te10 3.899541 1_555
Cs2 Te11 3.918621 1_555
Cs3 Te10 3.816185 1_555
Cs3 Te1 3.826863 1_555
Cs3 Te2 3.857617 1_655
Cs3 Te3 3.895408 1_545
Cs3 Te8 3.899541 1_555
Cs3 Te7 3.918621 1_555
Cs4 Te3 3.837675 1_555
Cs4 Te5 3.837675 1_555
Cs4 Te9 3.837675 1_555
Cs4 Te1 3.907295 1_566
Cs4 Te6 3.907295 1_656
Cs4 Te4 3.907295 1_665
Cs5 Te11 4.045579 1_556
Cs5 Te4 4.061697 1_555
Cs5 Te8 4.116561 1_555
Cs5 Te7 4.199624 1_556
Cs5 Te1 4.250221 1_556
Cs5 Te5 4.321400 1_545
Cs6 Te7 4.045579 1_565
Cs6 Te6 4.061697 1_555
Cs6 Te0 4.116561 1_555
Cs6 Te2 4.199624 1_565
Cs6 Te4 4.250221 1_565
Cs6 Te3 4.321400 1_455
Cs7 Te2 4.045579 1_655
Cs7 Te1 4.061697 1_555
Cs7 Te10 4.116561 1_555
Cs7 Te11 4.199624 1_655
Cs7 Te6 4.250221 1_655
Cs7 Te9 4.321400 1_554
Cs8 Te5 4.058445 1_555
Cs8 Te9 4.058445 1_555
Cs8 Te3 4.058445 1_555
Cs8 Te0 4.182277 1_555
Cs8 Te10 4.182277 1_555
Cs8 Te8 4.182277 1_555
Cs9 Te3 3.802656 1_555
Cs9 Te6 3.809578 1_655
Cs9 Te10 3.824688 1_555
Cs9 Te5 3.948008 1_554
Cs9 Te1 3.969841 1_565
Cs9 Te7 3.993193 1_565
Cs10 Te5 3.802656 1_555
Cs10 Te4 3.809578 1_565
Cs10 Te0 3.824688 1_555
Cs10 Te9 3.948008 1_455
Cs10 Te6 3.969841 1_556
Cs10 Te11 3.993193 1_556
Rb0 Te11 3.712725 1_555
Rb0 Te7 3.712725 1_555
Rb0 Te2 3.712725 1_555
Rb0 Te0 3.868669 1_555
Rb0 Te10 3.868669 1_555
Rb0 Te8 3.868669 1_555
Sb0 Te1 2.805684 1_455
Sb0 Te4 2.805684 1_554
Sb0 Te6 2.805684 1_545
Sb1 Te8 2.805918 1_565
Sb1 Te7 2.807232 1_565
Sb1 Te3 2.808934 1_555
Sb2 Te10 2.805918 1_556
Sb2 Te11 2.807232 1_556
Sb2 Te5 2.808934 1_555
Sb3 Te0 2.805918 1_655
Sb3 Te2 2.807232 1_655
Sb3 Te9 2.808934 1_555
