# generated using pymatgen
data_Ta2Ti(NbN3)2
_symmetry_space_group_name_H-M   'P 1'
_cell_length_a   5.20673697
_cell_length_b   5.19671549
_cell_length_c   10.29709513
_cell_angle_alpha   90.07330404
_cell_angle_beta   89.96341989
_cell_angle_gamma   119.93636568
_symmetry_Int_Tables_number   1
_chemical_formula_structural   Ta2Ti(NbN3)2
_chemical_formula_sum   'Ta4 Ti2 Nb4 N12'
_cell_volume   241.44471482
_cell_formula_units_Z   2
loop_
 _symmetry_equiv_pos_site_id
 _symmetry_equiv_pos_as_xyz
  1  'x, y, z'
loop_
 _atom_site_type_symbol
 _atom_site_label
 _atom_site_symmetry_multiplicity
 _atom_site_fract_x
 _atom_site_fract_y
 _atom_site_fract_z
 _atom_site_occupancy
  Ta  Ta0  1  0.66733281  0.33366591  0.50000000  1
  Ta  Ta1  1  0.33069251  0.66534676  0.00000000  1
  Ta  Ta2  1  0.67805388  0.99964121  0.74997121  1
  Ta  Ta3  1  0.67805388  0.67841267  0.25002879  1
  Ti  Ti0  1  0.33203057  0.66601579  0.50000000  1
  Ti  Ti1  1  0.66697274  0.33348587  0.00000000  1
  Nb  Nb0  1  0.99983350  0.32290867  0.25000164  1
  Nb  Nb1  1  0.99983350  0.67692483  0.74999836  1
  Nb  Nb2  1  0.32293522  0.32284722  0.74993038  1
  Nb  Nb3  1  0.32293522  0.00008700  0.25006962  1
  N  N0  1  0.35053408  0.35240461  0.38041384  1
  N  N1  1  0.65277153  0.99442949  0.38105800  1
  N  N2  1  0.99726093  0.65598392  0.38120004  1
  N  N3  1  0.99395805  0.33998118  0.88127473  1
  N  N4  1  0.65405322  0.99688283  0.11914020  1
  N  N5  1  0.65405322  0.65717040  0.88085980  1
  N  N6  1  0.35208427  0.00161829  0.88038850  1
  N  N7  1  0.65277153  0.65834304  0.61894200  1
  N  N8  1  0.99726093  0.34127801  0.61879996  1
  N  N9  1  0.99395805  0.65397587  0.11872527  1
  N  N10  1  0.35053408  0.99813047  0.61958616  1
  N  N11  1  0.35208427  0.35046498  0.11961150  1
loop_
_geom_bond_atom_site_label_1
_geom_bond_atom_site_label_2
_geom_bond_distance
_geom_bond_site_symmetry_2
N0 Ti0 2.081612 1_555
N0 Ta0 2.099960 1_555
N0 Ta3 2.167996 1_555
N0 Nb0 2.210053 1_455
N0 Nb3 2.214859 1_555
N1 Ti0 2.088004 1_555
N1 Ta0 2.115382 1_565
N1 Ta3 2.178205 1_555
N1 Nb3 2.196120 1_565
N1 Nb0 2.219133 1_565
N2 Ta0 2.093746 1_555
N2 Ti0 2.109332 1_655
N2 Ta3 2.190178 1_555
N2 Nb0 2.199640 1_555
N2 Nb3 2.207514 1_665
N3 Ti1 2.081921 1_556
N3 Ta1 2.113324 1_656
N3 Ta2 2.180551 1_545
N3 Nb1 2.201533 1_555
N3 Nb2 2.218122 1_655
N4 Ta1 2.100036 1_555
N4 Ti1 2.111234 1_565
N4 Ta3 2.187114 1_555
N4 Nb3 2.194506 1_565
N4 Nb0 2.209175 1_565
N5 Ta1 2.100038 1_556
N5 Ti1 2.111238 1_556
N5 Ta2 2.187114 1_555
N5 Nb2 2.194508 1_555
N5 Nb1 2.209175 1_555
N6 Ti1 2.086714 1_556
N6 Ta1 2.096239 1_546
N6 Ta2 2.167628 1_545
N6 Nb2 2.207520 1_555
N6 Nb1 2.218609 1_445
N7 Ti0 2.088005 1_555
N7 Ta0 2.115390 1_555
N7 Ta2 2.178201 1_555
N7 Nb2 2.196124 1_555
N7 Nb1 2.219135 1_555
N8 Ta0 2.093742 1_555
N8 Ti0 2.109332 1_655
N8 Ta2 2.190180 1_545
N8 Nb1 2.199636 1_555
N8 Nb2 2.207518 1_655
N9 Ti1 2.081921 1_555
N9 Ta1 2.113320 1_655
N9 Ta3 2.180554 1_555
N9 Nb0 2.201529 1_555
N9 Nb3 2.218122 1_665
N10 Ti0 2.081612 1_555
N10 Ta0 2.099955 1_565
N10 Ta2 2.167998 1_555
N10 Nb1 2.210054 1_455
N10 Nb2 2.214851 1_565
N11 Ti1 2.086714 1_555
N11 Ta1 2.096248 1_555
N11 Ta3 2.167630 1_555
N11 Nb3 2.207520 1_555
N11 Nb0 2.218611 1_455
