# generated using pymatgen
data_Er2Pd2Pb
_symmetry_space_group_name_H-M   'P 1'
_cell_length_a   7.18367974
_cell_length_b   15.57142764
_cell_length_c   15.57142764
_cell_angle_alpha   90.00000000
_cell_angle_beta   90.00000000
_cell_angle_gamma   90.00000000
_symmetry_Int_Tables_number   1
_chemical_formula_structural   Er2Pd2Pb
_chemical_formula_sum   'Er32 Pd32 Pb16'
_cell_volume   1741.82222001
_cell_formula_units_Z   16
loop_
 _symmetry_equiv_pos_site_id
 _symmetry_equiv_pos_as_xyz
  1  'x, y, z'
loop_
 _atom_site_type_symbol
 _atom_site_label
 _atom_site_symmetry_multiplicity
 _atom_site_fract_x
 _atom_site_fract_y
 _atom_site_fract_z
 _atom_site_occupancy
  Er  Er0_0  1  0.25000000  0.08532950  0.33532950  1
  Er  Er0_1  1  0.25000000  0.08532950  0.83532950  1
  Er  Er0_2  1  0.25000000  0.58532949  0.33532950  1
  Er  Er0_3  1  0.25000000  0.58532949  0.83532950  1
  Er  Er0_4  1  0.75000000  0.08532950  0.33532950  1
  Er  Er0_5  1  0.75000000  0.08532950  0.83532950  1
  Er  Er0_6  1  0.75000000  0.58532949  0.33532950  1
  Er  Er0_7  1  0.75000000  0.58532949  0.83532950  1
  Er  Er1_0  1  0.25000000  0.16467050  0.08532950  1
  Er  Er1_1  1  0.25000000  0.16467050  0.58532949  1
  Er  Er1_2  1  0.25000000  0.66467051  0.08532950  1
  Er  Er1_3  1  0.25000000  0.66467051  0.58532949  1
  Er  Er1_4  1  0.75000000  0.16467050  0.08532950  1
  Er  Er1_5  1  0.75000000  0.16467050  0.58532949  1
  Er  Er1_6  1  0.75000000  0.66467051  0.08532950  1
  Er  Er1_7  1  0.75000000  0.66467051  0.58532949  1
  Er  Er2_0  1  0.25000000  0.33532950  0.41467051  1
  Er  Er2_1  1  0.25000000  0.33532950  0.91467051  1
  Er  Er2_2  1  0.25000000  0.83532950  0.41467051  1
  Er  Er2_3  1  0.25000000  0.83532950  0.91467051  1
  Er  Er2_4  1  0.75000000  0.33532950  0.41467051  1
  Er  Er2_5  1  0.75000000  0.33532950  0.91467051  1
  Er  Er2_6  1  0.75000000  0.83532950  0.41467051  1
  Er  Er2_7  1  0.75000000  0.83532950  0.91467051  1
  Er  Er3_0  1  0.25000000  0.41467051  0.16467050  1
  Er  Er3_1  1  0.25000000  0.41467051  0.66467051  1
  Er  Er3_2  1  0.25000000  0.91467051  0.16467050  1
  Er  Er3_3  1  0.25000000  0.91467051  0.66467051  1
  Er  Er3_4  1  0.75000000  0.41467051  0.16467050  1
  Er  Er3_5  1  0.75000000  0.41467051  0.66467051  1
  Er  Er3_6  1  0.75000000  0.91467051  0.16467050  1
  Er  Er3_7  1  0.75000000  0.91467051  0.66467051  1
  Pd  Pd0_0  1  0.00000000  0.06279927  0.18720023  1
  Pd  Pd0_1  1  0.00000000  0.06279927  0.68720023  1
  Pd  Pd0_2  1  0.00000000  0.56279926  0.18720023  1
  Pd  Pd0_3  1  0.00000000  0.56279926  0.68720023  1
  Pd  Pd0_4  1  0.50000000  0.06279927  0.18720023  1
  Pd  Pd0_5  1  0.50000000  0.06279927  0.68720023  1
  Pd  Pd0_6  1  0.50000000  0.56279926  0.18720023  1
  Pd  Pd0_7  1  0.50000000  0.56279926  0.68720023  1
  Pd  Pd1_0  1  0.00000000  0.31279926  0.06279927  1
  Pd  Pd1_1  1  0.00000000  0.31279926  0.56279926  1
  Pd  Pd1_2  1  0.00000000  0.81279927  0.06279927  1
  Pd  Pd1_3  1  0.00000000  0.81279927  0.56279926  1
  Pd  Pd1_4  1  0.50000000  0.31279926  0.06279927  1
  Pd  Pd1_5  1  0.50000000  0.31279926  0.56279926  1
  Pd  Pd1_6  1  0.50000000  0.81279927  0.06279927  1
  Pd  Pd1_7  1  0.50000000  0.81279927  0.56279926  1
  Pd  Pd2_0  1  0.00000000  0.43720074  0.31279926  1
  Pd  Pd2_1  1  0.00000000  0.43720074  0.81279927  1
  Pd  Pd2_2  1  0.00000000  0.93720074  0.31279926  1
  Pd  Pd2_3  1  0.00000000  0.93720074  0.81279927  1
  Pd  Pd2_4  1  0.50000000  0.43720074  0.31279926  1
  Pd  Pd2_5  1  0.50000000  0.43720074  0.81279927  1
  Pd  Pd2_6  1  0.50000000  0.93720074  0.31279926  1
  Pd  Pd2_7  1  0.50000000  0.93720074  0.81279927  1
  Pd  Pd3_0  1  0.00000000  0.18720023  0.43720074  1
  Pd  Pd3_1  1  0.00000000  0.18720023  0.93720074  1
  Pd  Pd3_2  1  0.00000000  0.68720023  0.43720074  1
  Pd  Pd3_3  1  0.00000000  0.68720023  0.93720074  1
  Pd  Pd3_4  1  0.50000000  0.18720023  0.43720074  1
  Pd  Pd3_5  1  0.50000000  0.18720023  0.93720074  1
  Pd  Pd3_6  1  0.50000000  0.68720023  0.43720074  1
  Pd  Pd3_7  1  0.50000000  0.68720023  0.93720074  1
  Pb  Pb0_0  1  0.00000000  0.00000000  0.00000000  1
  Pb  Pb0_1  1  0.00000000  0.00000000  0.50000000  1
  Pb  Pb0_2  1  0.00000000  0.50000000  0.00000000  1
  Pb  Pb0_3  1  0.00000000  0.50000000  0.50000000  1
  Pb  Pb0_4  1  0.50000000  0.00000000  0.00000000  1
  Pb  Pb0_5  1  0.50000000  0.00000000  0.50000000  1
  Pb  Pb0_6  1  0.50000000  0.50000000  0.00000000  1
  Pb  Pb0_7  1  0.50000000  0.50000000  0.50000000  1
  Pb  Pb1_0  1  0.00000000  0.25000000  0.25000000  1
  Pb  Pb1_1  1  0.00000000  0.25000000  0.75000000  1
  Pb  Pb1_2  1  0.00000000  0.75000000  0.25000000  1
  Pb  Pb1_3  1  0.00000000  0.75000000  0.75000000  1
  Pb  Pb1_4  1  0.50000000  0.25000000  0.25000000  1
  Pb  Pb1_5  1  0.50000000  0.25000000  0.75000000  1
  Pb  Pb1_6  1  0.50000000  0.75000000  0.25000000  1
  Pb  Pb1_7  1  0.50000000  0.75000000  0.75000000  1
loop_
_geom_bond_atom_site_label_1
_geom_bond_atom_site_label_2
_geom_bond_distance
_geom_bond_site_symmetry_2
Er0_0 Pd3_4 2.873652 1_555
Er0_0 Pd3_0 2.873652 1_555
Er0_0 Pd2_2 2.944266 1_545
Er0_0 Pd2_6 2.944266 1_545
Er0_0 Pd0_0 2.944272 1_555
Er0_0 Pd0_4 2.944272 1_555
Er0_0 Pb0_5 3.400833 1_555
Er0_0 Pb0_1 3.400833 1_555
Er0_0 Pb1_0 3.400833 1_555
Er0_0 Pb1_4 3.400833 1_555
Er0_1 Pd3_1 2.873652 1_555
Er0_1 Pd3_5 2.873652 1_555
Er0_1 Pd2_3 2.944266 1_545
Er0_1 Pd2_7 2.944266 1_545
Er0_1 Pd0_1 2.944272 1_555
Er0_1 Pd0_5 2.944272 1_555
Er0_1 Pb0_0 3.400833 1_556
Er0_1 Pb0_4 3.400833 1_556
Er0_1 Pb1_1 3.400833 1_555
Er0_1 Pb1_5 3.400833 1_555
Er0_2 Pd3_6 2.873652 1_555
Er0_2 Pd3_2 2.873652 1_555
Er0_2 Pd2_0 2.944266 1_555
Er0_2 Pd2_4 2.944266 1_555
Er0_2 Pd0_2 2.944272 1_555
Er0_2 Pd0_6 2.944272 1_555
Er0_2 Pb0_3 3.400833 1_555
Er0_2 Pb0_7 3.400833 1_555
Er0_2 Pb1_6 3.400833 1_555
Er0_2 Pb1_2 3.400833 1_555
Er0_3 Pd3_3 2.873652 1_555
Er0_3 Pd3_7 2.873652 1_555
Er0_3 Pd2_1 2.944266 1_555
Er0_3 Pd2_5 2.944266 1_555
Er0_3 Pd0_7 2.944272 1_555
Er0_3 Pd0_3 2.944272 1_555
Er0_3 Pb0_2 3.400833 1_556
Er0_3 Pb0_6 3.400833 1_556
Er0_3 Pb1_3 3.400833 1_555
Er0_3 Pb1_7 3.400833 1_555
Er0_4 Pd3_4 2.873652 1_555
Er0_4 Pd3_0 2.873652 1_655
Er0_4 Pd2_2 2.944266 1_645
Er0_4 Pd2_6 2.944266 1_545
Er0_4 Pd0_0 2.944272 1_655
Er0_4 Pd0_4 2.944272 1_555
Er0_4 Pb0_5 3.400833 1_555
Er0_4 Pb0_1 3.400833 1_655
Er0_4 Pb1_0 3.400833 1_655
Er0_4 Pb1_4 3.400833 1_555
Er0_5 Pd3_1 2.873652 1_655
Er0_5 Pd3_5 2.873652 1_555
Er0_5 Pd2_3 2.944266 1_645
Er0_5 Pd2_7 2.944266 1_545
Er0_5 Pd0_1 2.944272 1_655
Er0_5 Pd0_5 2.944272 1_555
Er0_5 Pb0_0 3.400833 1_656
Er0_5 Pb0_4 3.400833 1_556
Er0_5 Pb1_1 3.400833 1_655
Er0_5 Pb1_5 3.400833 1_555
Er0_6 Pd3_2 2.873652 1_655
Er0_6 Pd3_6 2.873652 1_555
Er0_6 Pd2_0 2.944266 1_655
Er0_6 Pd2_4 2.944266 1_555
Er0_6 Pd0_2 2.944272 1_655
Er0_6 Pd0_6 2.944272 1_555
Er0_6 Pb0_7 3.400833 1_555
Er0_6 Pb0_3 3.400833 1_655
Er0_6 Pb1_6 3.400833 1_555
Er0_6 Pb1_2 3.400833 1_655
Er0_7 Pd3_3 2.873652 1_655
Er0_7 Pd3_7 2.873652 1_555
Er0_7 Pd2_5 2.944266 1_555
Er0_7 Pd2_1 2.944266 1_655
Er0_7 Pd0_7 2.944272 1_555
Er0_7 Pd0_3 2.944272 1_655
Er0_7 Pb0_2 3.400833 1_656
Er0_7 Pb0_6 3.400833 1_556
Er0_7 Pb1_3 3.400833 1_655
Er0_7 Pb1_7 3.400833 1_555
Er1_0 Pd0_0 2.873652 1_555
Er1_0 Pd0_4 2.873652 1_555
Er1_0 Pd3_5 2.944265 1_554
Er1_0 Pd3_1 2.944265 1_554
Er1_0 Pd1_0 2.944266 1_555
Er1_0 Pd1_4 2.944266 1_555
Er1_0 Pb0_0 3.400833 1_555
Er1_0 Pb0_4 3.400833 1_555
Er1_0 Pb1_0 3.400833 1_555
Er1_0 Pb1_4 3.400833 1_555
Er1_1 Pd0_1 2.873652 1_555
Er1_1 Pd0_5 2.873652 1_555
Er1_1 Pd3_4 2.944265 1_555
Er1_1 Pd3_0 2.944265 1_555
Er1_1 Pd1_1 2.944266 1_555
Er1_1 Pd1_5 2.944266 1_555
Er1_1 Pb0_5 3.400833 1_555
Er1_1 Pb0_1 3.400833 1_555
Er1_1 Pb1_1 3.400833 1_555
Er1_1 Pb1_5 3.400833 1_555
Er1_2 Pd0_2 2.873652 1_555
Er1_2 Pd0_6 2.873652 1_555
Er1_2 Pd3_7 2.944265 1_554
Er1_2 Pd3_3 2.944265 1_554
Er1_2 Pd1_2 2.944266 1_555
Er1_2 Pd1_6 2.944266 1_555
Er1_2 Pb0_6 3.400833 1_555
Er1_2 Pb0_2 3.400833 1_555
Er1_2 Pb1_6 3.400833 1_555
Er1_2 Pb1_2 3.400833 1_555
Er1_3 Pd0_3 2.873652 1_555
Er1_3 Pd0_7 2.873652 1_555
Er1_3 Pd3_6 2.944265 1_555
Er1_3 Pd3_2 2.944265 1_555
Er1_3 Pd1_3 2.944266 1_555
Er1_3 Pd1_7 2.944266 1_555
Er1_3 Pb0_7 3.400833 1_555
Er1_3 Pb0_3 3.400833 1_555
Er1_3 Pb1_7 3.400833 1_555
Er1_3 Pb1_3 3.400833 1_555
Er1_4 Pd0_0 2.873652 1_655
Er1_4 Pd0_4 2.873652 1_555
Er1_4 Pd3_5 2.944265 1_554
Er1_4 Pd3_1 2.944265 1_654
Er1_4 Pd1_0 2.944266 1_655
Er1_4 Pd1_4 2.944266 1_555
Er1_4 Pb1_0 3.400833 1_655
Er1_4 Pb0_0 3.400833 1_655
Er1_4 Pb0_4 3.400833 1_555
Er1_4 Pb1_4 3.400833 1_555
Er1_5 Pd0_1 2.873652 1_655
Er1_5 Pd0_5 2.873652 1_555
Er1_5 Pd3_0 2.944265 1_655
Er1_5 Pd3_4 2.944265 1_555
Er1_5 Pd1_5 2.944266 1_555
Er1_5 Pd1_1 2.944266 1_655
Er1_5 Pb0_5 3.400833 1_555
Er1_5 Pb0_1 3.400833 1_655
Er1_5 Pb1_1 3.400833 1_655
Er1_5 Pb1_5 3.400833 1_555
Er1_6 Pd0_6 2.873652 1_555
Er1_6 Pd0_2 2.873652 1_655
Er1_6 Pd3_7 2.944265 1_554
Er1_6 Pd3_3 2.944265 1_654
Er1_6 Pd1_2 2.944266 1_655
Er1_6 Pd1_6 2.944266 1_555
Er1_6 Pb0_6 3.400833 1_555
Er1_6 Pb0_2 3.400833 1_655
Er1_6 Pb1_2 3.400833 1_655
Er1_6 Pb1_6 3.400833 1_555
Er1_7 Pd0_3 2.873652 1_655
Er1_7 Pd0_7 2.873652 1_555
Er1_7 Pd3_2 2.944265 1_655
Er1_7 Pd3_6 2.944265 1_555
Er1_7 Pd1_7 2.944266 1_555
Er1_7 Pd1_3 2.944266 1_655
Er1_7 Pb0_7 3.400833 1_555
Er1_7 Pb0_3 3.400833 1_655
Er1_7 Pb1_7 3.400833 1_555
Er1_7 Pb1_3 3.400833 1_655
Er2_0 Pd2_0 2.873656 1_555
Er2_0 Pd2_4 2.873656 1_555
Er2_0 Pd1_1 2.944266 1_555
Er2_0 Pd1_5 2.944266 1_555
Er2_0 Pd3_4 2.944272 1_555
Er2_0 Pd3_0 2.944272 1_555
Er2_0 Pb0_7 3.400833 1_555
Er2_0 Pb0_3 3.400833 1_555
Er2_0 Pb1_0 3.400833 1_555
Er2_0 Pb1_4 3.400833 1_555
Er2_1 Pd2_1 2.873656 1_555
Er2_1 Pd2_5 2.873656 1_555
Er2_1 Pd1_0 2.944266 1_556
Er2_1 Pd1_4 2.944266 1_556
Er2_1 Pd3_1 2.944272 1_555
Er2_1 Pd3_5 2.944272 1_555
Er2_1 Pb1_1 3.400833 1_555
Er2_1 Pb1_5 3.400833 1_555
Er2_1 Pb0_6 3.400833 1_556
Er2_1 Pb0_2 3.400833 1_556
Er2_2 Pd2_2 2.873656 1_555
Er2_2 Pd2_6 2.873656 1_555
Er2_2 Pd1_3 2.944266 1_555
Er2_2 Pd1_7 2.944266 1_555
Er2_2 Pd3_6 2.944272 1_555
Er2_2 Pd3_2 2.944272 1_555
Er2_2 Pb0_1 3.400833 1_565
Er2_2 Pb0_5 3.400833 1_565
Er2_2 Pb1_2 3.400833 1_555
Er2_2 Pb1_6 3.400833 1_555
Er2_3 Pd2_3 2.873656 1_555
Er2_3 Pd2_7 2.873656 1_555
Er2_3 Pd1_2 2.944266 1_556
Er2_3 Pd1_6 2.944266 1_556
Er2_3 Pd3_3 2.944272 1_555
Er2_3 Pd3_7 2.944272 1_555
Er2_3 Pb1_7 3.400833 1_555
Er2_3 Pb0_0 3.400833 1_566
Er2_3 Pb1_3 3.400833 1_555
Er2_3 Pb0_4 3.400833 1_566
Er2_4 Pd2_4 2.873656 1_555
Er2_4 Pd2_0 2.873656 1_655
Er2_4 Pd1_5 2.944266 1_555
Er2_4 Pd1_1 2.944266 1_655
Er2_4 Pd3_4 2.944272 1_555
Er2_4 Pd3_0 2.944272 1_655
Er2_4 Pb0_3 3.400833 1_655
Er2_4 Pb0_7 3.400833 1_555
Er2_4 Pb1_0 3.400833 1_655
Er2_4 Pb1_4 3.400833 1_555
Er2_5 Pd2_5 2.873656 1_555
Er2_5 Pd2_1 2.873656 1_655
Er2_5 Pd1_0 2.944266 1_656
Er2_5 Pd1_4 2.944266 1_556
Er2_5 Pd3_1 2.944272 1_655
Er2_5 Pd3_5 2.944272 1_555
Er2_5 Pb1_1 3.400833 1_655
Er2_5 Pb1_5 3.400833 1_555
Er2_5 Pb0_2 3.400833 1_656
Er2_5 Pb0_6 3.400833 1_556
Er2_6 Pd2_2 2.873656 1_655
Er2_6 Pd2_6 2.873656 1_555
Er2_6 Pd1_3 2.944266 1_655
Er2_6 Pd1_7 2.944266 1_555
Er2_6 Pd3_2 2.944272 1_655
Er2_6 Pd3_6 2.944272 1_555
Er2_6 Pb0_1 3.400833 1_665
Er2_6 Pb0_5 3.400833 1_565
Er2_6 Pb1_2 3.400833 1_655
Er2_6 Pb1_6 3.400833 1_555
Er2_7 Pd2_7 2.873656 1_555
Er2_7 Pd2_3 2.873656 1_655
Er2_7 Pd1_6 2.944266 1_556
Er2_7 Pd1_2 2.944266 1_656
Er2_7 Pd3_3 2.944272 1_655
Er2_7 Pd3_7 2.944272 1_555
Er2_7 Pb1_7 3.400833 1_555
Er2_7 Pb0_0 3.400833 1_666
Er2_7 Pb0_4 3.400833 1_566
Er2_7 Pb1_3 3.400833 1_655
Er3_0 Pd1_0 2.873656 1_555
Er3_0 Pd1_4 2.873656 1_555
Er3_0 Pd0_2 2.944265 1_555
Er3_0 Pd0_6 2.944265 1_555
Er3_0 Pd2_4 2.944266 1_555
Er3_0 Pd2_0 2.944266 1_555
Er3_0 Pb0_6 3.400833 1_555
Er3_0 Pb0_2 3.400833 1_555
Er3_0 Pb1_0 3.400833 1_555
Er3_0 Pb1_4 3.400833 1_555
Er3_1 Pd1_1 2.873656 1_555
Er3_1 Pd1_5 2.873656 1_555
Er3_1 Pd0_3 2.944265 1_555
Er3_1 Pd0_7 2.944265 1_555
Er3_1 Pd2_5 2.944266 1_555
Er3_1 Pd2_1 2.944266 1_555
Er3_1 Pb0_7 3.400833 1_555
Er3_1 Pb0_3 3.400833 1_555
Er3_1 Pb1_1 3.400833 1_555
Er3_1 Pb1_5 3.400833 1_555
Er3_2 Pd1_2 2.873656 1_555
Er3_2 Pd1_6 2.873656 1_555
Er3_2 Pd0_0 2.944265 1_565
Er3_2 Pd0_4 2.944265 1_565
Er3_2 Pd2_2 2.944266 1_555
Er3_2 Pd2_6 2.944266 1_555
Er3_2 Pb1_6 3.400833 1_555
Er3_2 Pb1_2 3.400833 1_555
Er3_2 Pb0_4 3.400833 1_565
Er3_2 Pb0_0 3.400833 1_565
Er3_3 Pd1_3 2.873656 1_555
Er3_3 Pd1_7 2.873656 1_555
Er3_3 Pd0_1 2.944265 1_565
Er3_3 Pd0_5 2.944265 1_565
Er3_3 Pd2_3 2.944266 1_555
Er3_3 Pd2_7 2.944266 1_555
Er3_3 Pb1_7 3.400833 1_555
Er3_3 Pb1_3 3.400833 1_555
Er3_3 Pb0_5 3.400833 1_565
Er3_3 Pb0_1 3.400833 1_565
Er3_4 Pd1_0 2.873656 1_655
Er3_4 Pd1_4 2.873656 1_555
Er3_4 Pd0_2 2.944265 1_655
Er3_4 Pd0_6 2.944265 1_555
Er3_4 Pd2_4 2.944266 1_555
Er3_4 Pd2_0 2.944266 1_655
Er3_4 Pb0_6 3.400833 1_555
Er3_4 Pb0_2 3.400833 1_655
Er3_4 Pb1_0 3.400833 1_655
Er3_4 Pb1_4 3.400833 1_555
Er3_5 Pd1_5 2.873656 1_555
Er3_5 Pd1_1 2.873656 1_655
Er3_5 Pd0_3 2.944265 1_655
Er3_5 Pd0_7 2.944265 1_555
Er3_5 Pd2_5 2.944266 1_555
Er3_5 Pd2_1 2.944266 1_655
Er3_5 Pb0_7 3.400833 1_555
Er3_5 Pb0_3 3.400833 1_655
Er3_5 Pb1_1 3.400833 1_655
Er3_5 Pb1_5 3.400833 1_555
Er3_6 Pd1_6 2.873656 1_555
Er3_6 Pd1_2 2.873656 1_655
Er3_6 Pd0_0 2.944265 1_665
Er3_6 Pd0_4 2.944265 1_565
Er3_6 Pd2_6 2.944266 1_555
Er3_6 Pd2_2 2.944266 1_655
Er3_6 Pb1_2 3.400833 1_655
Er3_6 Pb1_6 3.400833 1_555
Er3_6 Pb0_0 3.400833 1_665
Er3_6 Pb0_4 3.400833 1_565
Er3_7 Pd1_7 2.873656 1_555
Er3_7 Pd1_3 2.873656 1_655
Er3_7 Pd0_1 2.944265 1_665
Er3_7 Pd0_5 2.944265 1_565
Er3_7 Pd2_7 2.944266 1_555
Er3_7 Pd2_3 2.944266 1_655
Er3_7 Pb1_7 3.400833 1_555
Er3_7 Pb1_3 3.400833 1_655
Er3_7 Pb0_5 3.400833 1_565
Er3_7 Pb0_1 3.400833 1_665
Pd0_0 Pd2_2 2.765851 1_545
Pd0_1 Pd2_3 2.765851 1_545
Pd0_2 Pd2_0 2.765851 1_555
Pd0_3 Pd2_1 2.765851 1_555
Pd0_4 Pd2_6 2.765851 1_545
Pd0_5 Pd2_7 2.765851 1_545
Pd0_6 Pd2_4 2.765851 1_555
Pd0_7 Pd2_5 2.765851 1_555
Pd1_0 Pd3_1 2.765851 1_554
Pd1_1 Pd3_0 2.765851 1_555
Pd1_2 Pd3_3 2.765851 1_554
Pd1_3 Pd3_2 2.765851 1_555
Pd1_4 Pd3_5 2.765851 1_554
Pd1_5 Pd3_4 2.765851 1_555
Pd1_6 Pd3_7 2.765851 1_554
Pd1_7 Pd3_6 2.765851 1_555
Pb0_0 Pd3_1 3.074625 1_554
Pb0_0 Pd0_0 3.074625 1_555
Pb0_0 Pd1_2 3.074632 1_545
Pb0_0 Pd2_3 3.074632 1_544
Pb0_0 Pb0_4 3.591840 1_455
Pb0_0 Pb0_4 3.591840 1_555
Pb0_1 Pd0_1 3.074625 1_555
Pb0_1 Pd3_0 3.074625 1_555
Pb0_1 Pd1_3 3.074632 1_545
Pb0_1 Pd2_2 3.074632 1_545
Pb0_1 Pb0_5 3.591840 1_555
Pb0_1 Pb0_5 3.591840 1_455
Pb0_2 Pd3_3 3.074625 1_554
Pb0_2 Pd0_2 3.074625 1_555
Pb0_2 Pd2_1 3.074632 1_554
Pb0_2 Pd1_0 3.074632 1_555
Pb0_2 Pb0_6 3.591840 1_555
Pb0_2 Pb0_6 3.591840 1_455
Pb0_3 Pd0_3 3.074625 1_555
Pb0_3 Pd3_2 3.074625 1_555
Pb0_3 Pd1_1 3.074632 1_555
Pb0_3 Pd2_0 3.074632 1_555
Pb0_3 Pb0_7 3.591840 1_455
Pb0_3 Pb0_7 3.591840 1_555
Pb0_4 Pd3_5 3.074625 1_554
Pb0_4 Pd0_4 3.074625 1_555
Pb0_4 Pd1_6 3.074632 1_545
Pb0_4 Pd2_7 3.074632 1_544
Pb0_5 Pd0_5 3.074625 1_555
Pb0_5 Pd3_4 3.074625 1_555
Pb0_5 Pd1_7 3.074632 1_545
Pb0_5 Pd2_6 3.074632 1_545
Pb0_6 Pd3_7 3.074625 1_554
Pb0_6 Pd0_6 3.074625 1_555
Pb0_6 Pd2_5 3.074632 1_554
Pb0_6 Pd1_4 3.074632 1_555
Pb0_7 Pd3_6 3.074625 1_555
Pb0_7 Pd0_7 3.074625 1_555
Pb0_7 Pd1_5 3.074632 1_555
Pb0_7 Pd2_4 3.074632 1_555
Pb1_0 Pd2_0 3.074632 1_555
Pb1_0 Pd1_0 3.074632 1_555
Pb1_0 Pd0_0 3.074635 1_555
Pb1_0 Pd3_0 3.074635 1_555
Pb1_0 Pb1_4 3.591840 1_455
Pb1_0 Pb1_4 3.591840 1_555
Pb1_1 Pd2_1 3.074632 1_555
Pb1_1 Pd1_1 3.074632 1_555
Pb1_1 Pd3_1 3.074635 1_555
Pb1_1 Pd0_1 3.074635 1_555
Pb1_1 Pb1_5 3.591840 1_455
Pb1_1 Pb1_5 3.591840 1_555
Pb1_2 Pd2_2 3.074632 1_555
Pb1_2 Pd1_2 3.074632 1_555
Pb1_2 Pd3_2 3.074635 1_555
Pb1_2 Pd0_2 3.074635 1_555
Pb1_2 Pb1_6 3.591840 1_555
Pb1_2 Pb1_6 3.591840 1_455
Pb1_3 Pd2_3 3.074632 1_555
Pb1_3 Pd1_3 3.074632 1_555
Pb1_3 Pd3_3 3.074635 1_555
Pb1_3 Pd0_3 3.074635 1_555
Pb1_3 Pb1_7 3.591840 1_455
Pb1_3 Pb1_7 3.591840 1_555
Pb1_4 Pd1_4 3.074632 1_555
Pb1_4 Pd2_4 3.074632 1_555
Pb1_4 Pd3_4 3.074635 1_555
Pb1_4 Pd0_4 3.074635 1_555
Pb1_5 Pd2_5 3.074632 1_555
Pb1_5 Pd1_5 3.074632 1_555
Pb1_5 Pd3_5 3.074635 1_555
Pb1_5 Pd0_5 3.074635 1_555
Pb1_6 Pd2_6 3.074632 1_555
Pb1_6 Pd1_6 3.074632 1_555
Pb1_6 Pd3_6 3.074635 1_555
Pb1_6 Pd0_6 3.074635 1_555
Pb1_7 Pd2_7 3.074632 1_555
Pb1_7 Pd1_7 3.074632 1_555
Pb1_7 Pd3_7 3.074635 1_555
Pb1_7 Pd0_7 3.074635 1_555
