# generated using pymatgen
data_Lu4GaSiRh11
_symmetry_space_group_name_H-M   'P 1'
_cell_length_a   7.04492174
_cell_length_b   7.04492170
_cell_length_c   7.04487075
_cell_angle_alpha   107.82980386
_cell_angle_beta   107.82980586
_cell_angle_gamma   112.80624693
_symmetry_Int_Tables_number   1
_chemical_formula_structural   Lu4GaSiRh11
_chemical_formula_sum   'Lu4 Ga1 Si1 Rh11'
_cell_volume   268.46795992
_cell_formula_units_Z   1
loop_
 _symmetry_equiv_pos_site_id
 _symmetry_equiv_pos_as_xyz
  1  'x, y, z'
loop_
 _atom_site_type_symbol
 _atom_site_label
 _atom_site_symmetry_multiplicity
 _atom_site_fract_x
 _atom_site_fract_y
 _atom_site_fract_z
 _atom_site_occupancy
  Lu  Lu0  1  0.01160087  0.98839913  0.50000000  1
  Lu  Lu1  1  0.01160413  0.51160190  0.02320475  1
  Lu  Lu2  1  0.48839810  0.98839587  0.97679525  1
  Lu  Lu3  1  0.48839466  0.51160534  0.50000000  1
  Ga  Ga0  1  0.75000173  0.24999827  0.50000000  1
  Si  Si0  1  0.99999983  0.00000017  0.00000000  1
  Rh  Rh0  1  0.74946842  0.49147046  0.25800436  1
  Rh  Rh1  1  0.50852954  0.25053158  0.74199564  1
  Rh  Rh2  1  0.23346731  0.49146736  0.74200305  1
  Rh  Rh3  1  0.24999459  0.75000541  0.50000000  1
  Rh  Rh4  1  0.50853264  0.76653269  0.25799695  1
  Rh  Rh5  1  0.70877779  0.70877068  0.00000200  1
  Rh  Rh6  1  0.29081315  0.01530398  0.27551292  1
  Rh  Rh7  1  0.98470074  0.26020883  0.27552479  1
  Rh  Rh8  1  0.29122932  0.29122221  0.99999800  1
  Rh  Rh9  1  0.73979117  0.01529926  0.72447521  1
  Rh  Rh10  1  0.98469602  0.70918685  0.72448708  1
loop_
_geom_bond_atom_site_label_1
_geom_bond_atom_site_label_2
_geom_bond_distance
_geom_bond_site_symmetry_2
Lu0 Rh3 2.797826 1_555
Lu0 Rh1 2.824502 1_565
Lu0 Rh0 2.824502 1_455
Lu0 Rh7 2.855818 1_465
Lu0 Rh9 2.855818 1_465
Lu0 Rh10 2.864569 1_455
Lu0 Rh6 2.864569 1_565
Lu0 Rh4 2.878151 1_455
Lu0 Rh2 2.878151 1_565
Lu0 Rh5 2.954705 1_455
Lu0 Rh8 2.954705 1_565
Lu1 Rh3 2.797857 1_555
Lu1 Rh4 2.824501 1_555
Lu1 Rh0 2.824526 1_455
Lu1 Rh10 2.855914 1_454
Lu1 Rh9 2.855944 1_454
Lu1 Rh6 2.864599 1_565
Lu1 Rh7 2.864647 1_455
Lu1 Rh2 2.878115 1_554
Lu1 Rh1 2.878190 1_454
Lu1 Rh5 2.954703 1_455
Lu1 Rh8 2.954760 1_554
Lu2 Rh3 2.797857 1_555
Lu2 Rh2 2.824501 1_555
Lu2 Rh1 2.824526 1_565
Lu2 Rh6 2.855914 1_566
Lu2 Rh7 2.855944 1_566
Lu2 Rh10 2.864599 1_455
Lu2 Rh9 2.864647 1_565
Lu2 Rh4 2.878115 1_556
Lu2 Rh0 2.878190 1_566
Lu2 Rh8 2.954703 1_565
Lu2 Rh5 2.954760 1_556
Lu3 Rh3 2.797900 1_555
Lu3 Rh4 2.824497 1_555
Lu3 Rh2 2.824497 1_555
Lu3 Rh10 2.855927 1_555
Lu3 Rh6 2.855927 1_555
Lu3 Rh7 2.864552 1_455
Lu3 Rh9 2.864552 1_565
Lu3 Rh1 2.878145 1_555
Lu3 Rh0 2.878145 1_555
Lu3 Rh5 2.954729 1_556
Lu3 Rh8 2.954729 1_554
Ga0 Rh9 2.611230 1_555
Ga0 Rh7 2.611230 1_555
Ga0 Rh6 2.611327 1_555
Ga0 Rh10 2.611327 1_555
Ga0 Rh0 2.752711 1_555
Ga0 Rh1 2.752711 1_555
Ga0 Rh2 2.752713 1_655
Ga0 Rh4 2.752713 1_545
Ga0 Lu0 3.070168 1_645
Ga0 Lu2 3.070190 1_544
Ga0 Lu1 3.070190 1_656
Ga0 Lu3 3.070261 1_555
Rh5 Si0 2.270567 1_565
Rh6 Si0 2.289494 1_455
Rh7 Si0 2.289537 1_555
Rh8 Si0 2.270567 1_456
Rh9 Si0 2.289537 1_556
Rh10 Si0 2.289494 1_566
