# generated using pymatgen
data_Cs5Na(NbS4)2
_symmetry_space_group_name_H-M   'P 1'
_cell_length_a   9.64431538
_cell_length_b   9.93037428
_cell_length_c   12.32987324
_cell_angle_alpha   93.83842994
_cell_angle_beta   90.00000000
_cell_angle_gamma   90.00000000
_symmetry_Int_Tables_number   1
_chemical_formula_structural   Cs5Na(NbS4)2
_chemical_formula_sum   'Cs10 Na2 Nb4 S16'
_cell_volume   1178.20354696
_cell_formula_units_Z   2
loop_
 _symmetry_equiv_pos_site_id
 _symmetry_equiv_pos_as_xyz
  1  'x, y, z'
loop_
 _atom_site_type_symbol
 _atom_site_label
 _atom_site_symmetry_multiplicity
 _atom_site_fract_x
 _atom_site_fract_y
 _atom_site_fract_z
 _atom_site_occupancy
  Cs  Cs0  1  0.37994096  0.61679518  0.69155723  1
  Cs  Cs1  1  0.11233263  0.10261229  0.18583612  1
  Cs  Cs2  1  0.61233263  0.39738771  0.31416388  1
  Cs  Cs3  1  0.87994096  0.88320482  0.80844277  1
  Cs  Cs4  1  0.94380847  0.72201032  0.47450025  1
  Cs  Cs5  1  0.44380847  0.77798968  0.02549975  1
  Cs  Cs6  1  0.58994298  0.15278139  0.56212818  1
  Cs  Cs7  1  0.08994298  0.34721861  0.93787182  1
  Cs  Cs8  1  0.08324949  0.26563956  0.53438923  1
  Cs  Cs9  1  0.58324949  0.23436044  0.96561077  1
  Na  Na0  1  0.36989909  0.81554087  0.37473678  1
  Na  Na1  1  0.86989909  0.68445913  0.12526322  1
  Nb  Nb0  1  0.18894032  0.54261900  0.24195665  1
  Nb  Nb1  1  0.68894032  0.95738100  0.25804335  1
  Nb  Nb2  1  0.31144799  0.02988911  0.75740472  1
  Nb  Nb3  1  0.81144799  0.47011089  0.74259528  1
  S  S0  1  0.27695872  0.53576655  0.41400007  1
  S  S1  1  0.71559678  0.56661262  0.90086210  1
  S  S2  1  0.77695872  0.96423345  0.08599993  1
  S  S3  1  0.21559678  0.93338738  0.59913790  1
  S  S4  1  0.02584060  0.56136997  0.72132496  1
  S  S5  1  0.52584060  0.93863003  0.77867504  1
  S  S6  1  0.47603560  0.06072456  0.27740951  1
  S  S7  1  0.97603560  0.43927544  0.22259049  1
  S  S8  1  0.83550640  0.24221797  0.75544530  1
  S  S9  1  0.33550640  0.25778203  0.74455470  1
  S  S10  1  0.65520304  0.73540829  0.29062940  1
  S  S11  1  0.15520304  0.76459171  0.20937060  1
  S  S12  1  0.68972790  0.50389505  0.58759489  1
  S  S13  1  0.18972790  0.99610495  0.91240511  1
  S  S14  1  0.84557004  0.05286070  0.37820315  1
  S  S15  1  0.34557004  0.44713930  0.12179685  1
loop_
_geom_bond_atom_site_label_1
_geom_bond_atom_site_label_2
_geom_bond_distance
_geom_bond_site_symmetry_2
Cs0 S12 3.410852 1_555
Cs0 S4 3.482427 1_555
Cs0 S5 3.590007 1_555
Cs0 S0 3.602355 1_555
Cs0 S9 3.692254 1_555
Cs0 S3 3.764879 1_555
Cs1 S11 3.413619 1_545
Cs1 S13 3.544646 1_544
Cs1 S14 3.556080 1_455
Cs1 S7 3.592679 1_455
Cs1 S2 3.693072 1_445
Cs1 S6 3.716782 1_555
Cs2 S10 3.413619 1_555
Cs2 S12 3.544646 1_555
Cs2 S15 3.556080 1_555
Cs2 S6 3.592679 1_555
Cs2 S0 3.693072 1_555
Cs2 S7 3.716782 1_555
Cs3 S13 3.410852 1_655
Cs3 S5 3.482427 1_555
Cs3 S4 3.590007 1_655
Cs3 S2 3.602355 1_556
Cs3 S8 3.692254 1_565
Cs3 S1 3.764879 1_555
Cs4 S10 3.597940 1_555
Cs4 S12 3.611770 1_555
Cs4 S4 3.616960 1_655
Cs4 S3 3.634081 1_655
Cs4 S14 3.691068 1_565
Cs4 S0 3.757085 1_655
Cs4 S11 3.899597 1_655
Cs4 S7 4.057010 1_555
Cs5 S11 3.597940 1_555
Cs5 S13 3.611770 1_554
Cs5 S5 3.616960 1_554
Cs5 S1 3.634081 1_554
Cs5 S15 3.691068 1_555
Cs5 S2 3.757085 1_555
Cs5 S10 3.899597 1_555
Cs5 S6 4.057010 1_565
Cs6 S8 3.434472 1_555
Cs6 S9 3.442964 1_555
Cs6 S14 3.450220 1_555
Cs6 S5 3.576832 1_545
Cs6 S12 3.610423 1_555
Cs6 S6 3.733199 1_555
Cs7 S9 3.434472 1_555
Cs7 S8 3.442964 1_455
Cs7 S15 3.450220 1_556
Cs7 S4 3.576832 1_555
Cs7 S13 3.610423 1_545
Cs7 S7 3.733199 1_456
Cs8 S9 3.559045 1_555
Cs8 S14 3.589266 1_455
Cs8 S8 3.643713 1_455
Cs8 S4 3.652002 1_555
Cs8 S0 3.663639 1_555
Cs8 S3 3.674938 1_545
Cs9 S8 3.559045 1_555
Cs9 S15 3.589266 1_556
Cs9 S9 3.643713 1_555
Cs9 S5 3.652002 1_545
Cs9 S2 3.663639 1_546
Cs9 S1 3.674938 1_555
Na0 S11 2.926179 1_555
Na0 S6 2.967682 1_565
Na0 S0 2.989419 1_555
Na0 S10 3.028078 1_555
Na0 S3 3.287240 1_555
Na1 S10 2.926179 1_555
Na1 S7 2.967682 1_555
Na1 S2 2.989419 1_555
Na1 S11 3.028078 1_655
Na1 S1 3.287240 1_554
Nb0 S15 2.277672 1_555
Nb0 S0 2.290055 1_555
Nb0 S11 2.290128 1_555
Nb0 S7 2.300761 1_455
Nb1 S14 2.277672 1_565
Nb1 S2 2.290055 1_555
Nb1 S10 2.290128 1_555
Nb1 S6 2.300761 1_565
Nb2 S5 2.279720 1_545
Nb2 S13 2.286677 1_545
Nb2 S9 2.290938 1_555
Nb2 S3 2.308791 1_545
Nb3 S4 2.279720 1_655
Nb3 S12 2.286677 1_555
Nb3 S8 2.290938 1_555
Nb3 S1 2.308791 1_555
