# generated using pymatgen
data_Y6Ti15AlIr7
_symmetry_space_group_name_H-M   'P 1'
_cell_length_a   9.13428352
_cell_length_b   9.14109778
_cell_length_c   9.14109743
_cell_angle_alpha   60.00000844
_cell_angle_beta   59.97532761
_cell_angle_gamma   59.97533419
_symmetry_Int_Tables_number   1
_chemical_formula_structural   Y6Ti15AlIr7
_chemical_formula_sum   'Y6 Ti15 Al1 Ir7'
_cell_volume   539.50338251
_cell_formula_units_Z   1
loop_
 _symmetry_equiv_pos_site_id
 _symmetry_equiv_pos_as_xyz
  1  'x, y, z'
loop_
 _atom_site_type_symbol
 _atom_site_label
 _atom_site_symmetry_multiplicity
 _atom_site_fract_x
 _atom_site_fract_y
 _atom_site_fract_z
 _atom_site_occupancy
  Y  Y0  1  0.70089580  0.30033762  0.30033762  1
  Y  Y1  1  0.30036138  0.70075608  0.70075608  1
  Y  Y2  1  0.30036138  0.70075608  0.29812746  1
  Y  Y3  1  0.70089580  0.30033762  0.69843096  1
  Y  Y4  1  0.30036138  0.29812746  0.70075608  1
  Y  Y5  1  0.70089580  0.69843096  0.30033762  1
  Ti  Ti0  1  0.32365989  0.32673754  0.32673754  1
  Ti  Ti1  1  0.67372710  0.67145678  0.67145678  1
  Ti  Ti2  1  0.32365989  0.32673754  0.02286503  1
  Ti  Ti3  1  0.32365989  0.02286503  0.32673754  1
  Ti  Ti4  1  0.67372710  0.67145678  0.98335934  1
  Ti  Ti5  1  0.67372710  0.98335934  0.67145678  1
  Ti  Ti6  1  0.02274048  0.32575317  0.32575317  1
  Ti  Ti7  1  0.97272959  0.67575614  0.67575614  1
  Ti  Ti8  1  0.12607971  0.11495090  0.11495090  1
  Ti  Ti9  1  0.88117671  0.88091211  0.88091211  1
  Ti  Ti10  1  0.12607971  0.11495090  0.64402048  1
  Ti  Ti11  1  0.12607971  0.64402048  0.11495090  1
  Ti  Ti12  1  0.88117671  0.88091211  0.35699907  1
  Ti  Ti13  1  0.88117671  0.35699907  0.88091211  1
  Ti  Ti14  1  0.64201566  0.11932845  0.11932845  1
  Al  Al0  1  0.35958207  0.88013931  0.88013931  1
  Ir  Ir0  1  0.49803948  0.99956608  0.99956608  1
  Ir  Ir1  1  0.99948495  0.50047230  0.50047230  1
  Ir  Ir2  1  0.99948495  0.50047230  0.99957045  1
  Ir  Ir3  1  0.49803948  0.99956608  0.50282736  1
  Ir  Ir4  1  0.99948495  0.99957045  0.50047230  1
  Ir  Ir5  1  0.49803948  0.50282736  0.99956608  1
  Ir  Ir6  1  0.99266116  0.00244695  0.00244695  1
loop_
_geom_bond_atom_site_label_1
_geom_bond_atom_site_label_2
_geom_bond_distance
_geom_bond_site_symmetry_2
Ti0 Y4 3.199413 1_555
Ti0 Y2 3.199413 1_555
Ti0 Y0 3.222386 1_555
Ti1 Y5 3.164371 1_555
Ti1 Y3 3.164371 1_555
Ti1 Y1 3.165129 1_555
Ti2 Y4 3.199404 1_554
Ti2 Y1 3.199410 1_554
Ti2 Y3 3.222378 1_554
Ti3 Y2 3.199404 1_545
Ti3 Y1 3.199410 1_545
Ti3 Y5 3.222379 1_545
Ti4 Y0 3.164379 1_556
Ti4 Y5 3.164389 1_556
Ti4 Y2 3.165133 1_556
Ti5 Y0 3.164379 1_565
Ti5 Y3 3.164389 1_565
Ti5 Y4 3.165133 1_565
Ti6 Y0 3.189276 1_455
Ti6 Y3 3.189287 1_455
Ti6 Y5 3.189288 1_455
Ti7 Y2 3.237523 1_655
Ti7 Y4 3.237523 1_655
Ti7 Y1 3.237538 1_655
Ti8 Y4 3.157410 1_554
Ti8 Y2 3.157410 1_545
Ti8 Y0 3.244379 1_455
Ti9 Y1 3.190037 1_655
Ti9 Y5 3.198289 1_556
Ti9 Y3 3.198289 1_565
Ti10 Y4 3.157403 1_555
Ti10 Y1 3.157412 1_545
Ti10 Y3 3.244379 1_455
Ti11 Y2 3.157403 1_555
Ti11 Y1 3.157412 1_554
Ti11 Y5 3.244379 1_455
Ti12 Y2 3.190038 1_655
Ti12 Y5 3.198276 1_555
Ti12 Y0 3.198292 1_565
Ti13 Y4 3.190038 1_655
Ti13 Y3 3.198276 1_555
Ti13 Y0 3.198292 1_556
Ti14 Y3 3.206816 1_554
Ti14 Y5 3.206816 1_545
Ti14 Y0 3.206823 1_555
Al0 Ir6 2.735516 1_466
Al0 Ir0 2.817493 1_555
Al0 Ir3 2.817501 1_555
Al0 Ir5 2.817501 1_555
Al0 Ti5 2.862668 1_555
Al0 Ti4 2.862668 1_555
Al0 Ti1 2.862669 1_555
Al0 Ti11 3.034411 1_556
Al0 Ti10 3.034411 1_565
Al0 Ti8 3.034424 1_566
Al0 Y1 3.183456 1_555
Al0 Y2 3.183464 1_556
Al0 Y4 3.183464 1_565
Ir0 Ti5 2.642458 1_555
Ir0 Ti4 2.642458 1_555
Ir0 Ti3 2.656504 1_566
Ir0 Ti2 2.656505 1_566
Ir0 Ti8 2.776425 1_566
Ir0 Ti9 2.860012 1_555
Ir0 Ti14 2.864727 1_566
Ir0 Y2 3.274003 1_556
Ir0 Y4 3.274003 1_565
Ir0 Y3 3.315947 1_565
Ir0 Y5 3.315947 1_556
Ir1 Ti1 2.621887 1_555
Ir1 Ti0 2.631036 1_655
Ir1 Ti7 2.641579 1_555
Ir1 Ti6 2.649247 1_655
Ir1 Ti13 2.842234 1_555
Ir1 Ti12 2.842235 1_555
Ir1 Ti11 2.879979 1_655
Ir1 Ti10 2.879979 1_655
Ir1 Y3 3.286927 1_555
Ir1 Y5 3.286927 1_555
Ir1 Y2 3.299699 1_655
Ir1 Y4 3.299699 1_655
Ir2 Ti4 2.621887 1_555
Ir2 Ti2 2.631036 1_656
Ir2 Ti7 2.641595 1_555
Ir2 Ti6 2.649247 1_656
Ir2 Ti13 2.842234 1_555
Ir2 Ti9 2.842235 1_555
Ir2 Ti8 2.879978 1_656
Ir2 Ti11 2.879993 1_656
Ir2 Y0 3.286929 1_556
Ir2 Y5 3.286940 1_556
Ir2 Y4 3.299693 1_655
Ir2 Y1 3.299697 1_655
Ir3 Ti1 2.642461 1_555
Ir3 Ti5 2.642465 1_555
Ir3 Ti3 2.656496 1_565
Ir3 Ti0 2.656502 1_565
Ir3 Ti10 2.776426 1_565
Ir3 Ti12 2.860012 1_555
Ir3 Ti14 2.864712 1_565
Ir3 Y1 3.274000 1_555
Ir3 Y4 3.274016 1_565
Ir3 Y5 3.315928 1_555
Ir3 Y0 3.315950 1_565
Ir4 Ti5 2.621887 1_555
Ir4 Ti3 2.631036 1_665
Ir4 Ti7 2.641595 1_555
Ir4 Ti6 2.649247 1_665
Ir4 Ti12 2.842234 1_555
Ir4 Ti9 2.842234 1_555
Ir4 Ti8 2.879978 1_665
Ir4 Ti10 2.879993 1_665
Ir4 Y0 3.286930 1_565
Ir4 Y3 3.286940 1_565
Ir4 Y2 3.299693 1_655
Ir4 Y1 3.299698 1_655
Ir5 Ti1 2.642461 1_555
Ir5 Ti4 2.642465 1_555
Ir5 Ti2 2.656496 1_556
Ir5 Ti0 2.656501 1_556
Ir5 Ti11 2.776426 1_556
Ir5 Ti13 2.860012 1_555
Ir5 Ti14 2.864713 1_556
Ir5 Y1 3.274000 1_555
Ir5 Y2 3.274016 1_556
Ir5 Y3 3.315928 1_555
Ir5 Y0 3.315950 1_556
Ir6 Ti14 2.614178 1_555
Ir6 Ti12 2.646501 1_545
Ir6 Ti13 2.646501 1_554
Ir6 Ti9 2.646516 1_544
Ir6 Ti8 2.677041 1_655
Ir6 Ti10 2.677041 1_654
Ir6 Ti11 2.677041 1_645
