# generated using pymatgen
data_Rb2NaNbO4
_symmetry_space_group_name_H-M   'P 1'
_cell_length_a   6.20011594
_cell_length_b   6.06683123
_cell_length_c   8.18774745
_cell_angle_alpha   85.94424298
_cell_angle_beta   90.00000000
_cell_angle_gamma   90.00000000
_symmetry_Int_Tables_number   1
_chemical_formula_structural   Rb2NaNbO4
_chemical_formula_sum   'Rb4 Na2 Nb2 O8'
_cell_volume   307.21130473
_cell_formula_units_Z   2
loop_
 _symmetry_equiv_pos_site_id
 _symmetry_equiv_pos_as_xyz
  1  'x, y, z'
loop_
 _atom_site_type_symbol
 _atom_site_label
 _atom_site_symmetry_multiplicity
 _atom_site_fract_x
 _atom_site_fract_y
 _atom_site_fract_z
 _atom_site_occupancy
  Rb  Rb0  1  0.75000000  0.15111863  0.82663434  1
  Rb  Rb1  1  0.25000000  0.84888137  0.17336566  1
  Rb  Rb2  1  0.25000000  0.31747935  0.47304750  1
  Rb  Rb3  1  0.75000000  0.68252065  0.52695250  1
  Na  Na0  1  0.75000000  0.61883814  0.02850060  1
  Na  Na1  1  0.25000000  0.38116186  0.97149940  1
  Nb  Nb0  1  0.25000000  0.81245554  0.73965731  1
  Nb  Nb1  1  0.75000000  0.18754446  0.26034269  1
  O  O0  1  0.50959949  0.33727652  0.16959325  1
  O  O1  1  0.00959949  0.66272348  0.83040575  1
  O  O2  1  0.49040051  0.66272348  0.83040575  1
  O  O3  1  0.99040051  0.33727652  0.16959325  1
  O  O4  1  0.75000000  0.19835946  0.48861793  1
  O  O5  1  0.75000000  0.89555167  0.19888350  1
  O  O6  1  0.25000000  0.80164054  0.51138207  1
  O  O7  1  0.25000000  0.10444833  0.80111650  1
loop_
_geom_bond_atom_site_label_1
_geom_bond_atom_site_label_2
_geom_bond_distance
_geom_bond_site_symmetry_2
Na0 O5 2.257374 1_555
Na0 O1 2.287174 1_654
Na0 O2 2.287174 1_554
Na0 O3 2.488965 1_555
Na0 O0 2.488965 1_555
Na1 O7 2.257374 1_555
Na1 O0 2.287169 1_556
Na1 O3 2.287169 1_456
Na1 O2 2.488968 1_555
Na1 O1 2.488968 1_555
Nb0 O2 1.871743 1_555
Nb0 O1 1.871743 1_555
Nb0 O6 1.874843 1_555
Nb0 O7 1.875481 1_565
Nb1 O3 1.871746 1_555
Nb1 O0 1.871746 1_555
Nb1 O4 1.874843 1_555
Nb1 O5 1.875481 1_545
O0 Rb2 2.955694 1_555
O1 Rb3 2.955687 1_455
O2 Rb3 2.955687 1_555
O3 Rb2 2.955694 1_655
O4 Rb0 2.762157 1_555
O4 Rb3 2.976038 1_555
O4 Rb3 3.123041 1_545
O4 Rb2 3.183684 1_655
O4 Rb2 3.183684 1_555
O5 Rb3 2.897354 1_555
O6 Rb1 2.762157 1_555
O6 Rb2 2.976038 1_555
O6 Rb2 3.123041 1_565
O6 Rb3 3.183684 1_555
O6 Rb3 3.183684 1_455
O7 Rb2 2.897354 1_555
