# generated using pymatgen
data_Cd2Ge(PdO4)2
_symmetry_space_group_name_H-M   'P 1'
_cell_length_a   5.15170973
_cell_length_b   5.96818082
_cell_length_c   6.18973273
_cell_angle_alpha   118.82285214
_cell_angle_beta   106.30475669
_cell_angle_gamma   90.00000173
_symmetry_Int_Tables_number   1
_chemical_formula_structural   Cd2Ge(PdO4)2
_chemical_formula_sum   'Cd2 Ge1 Pd2 O8'
_cell_volume   157.94234641
_cell_formula_units_Z   1
loop_
 _symmetry_equiv_pos_site_id
 _symmetry_equiv_pos_as_xyz
  1  'x, y, z'
loop_
 _atom_site_type_symbol
 _atom_site_label
 _atom_site_symmetry_multiplicity
 _atom_site_fract_x
 _atom_site_fract_y
 _atom_site_fract_z
 _atom_site_occupancy
  Cd  Cd0  1  0.65547101  0.72289102  0.43601066  1
  Cd  Cd1  1  0.34452999  0.28688036  0.56399034  1
  Ge  Ge0  1  0.00000000  0.73728252  0.99999900  1
  Pd  Pd0  1  0.50000100  0.99799087  0.00000000  1
  Pd  Pd1  1  0.00000100  0.25253612  0.00000100  1
  O  O0  1  0.05722347  0.40573949  0.79047641  1
  O  O1  1  0.94277753  0.61526507  0.20952459  1
  O  O2  1  0.09504464  0.89199128  0.80419064  1
  O  O3  1  0.90495436  0.08780064  0.19580936  1
  O  O4  1  0.38942709  0.33478912  0.22108687  1
  O  O5  1  0.37135194  0.88223834  0.21134344  1
  O  O6  1  0.61057391  0.11370025  0.77891313  1
  O  O7  1  0.62864906  0.67089591  0.78865656  1
loop_
_geom_bond_atom_site_label_1
_geom_bond_atom_site_label_2
_geom_bond_distance
_geom_bond_site_symmetry_2
Cd0 O1 2.205780 1_555
Cd0 O4 2.240192 1_555
Cd0 O5 2.261187 1_555
Cd0 O6 2.345405 1_565
Cd0 O7 2.387969 1_555
Cd0 O2 2.494979 1_655
Cd1 O0 2.205780 1_555
Cd1 O6 2.240197 1_555
Cd1 O7 2.261192 1_555
Cd1 O4 2.345417 1_555
Cd1 O5 2.387976 1_545
Cd1 O3 2.494989 1_455
Ge0 O0 1.850533 1_555
Ge0 O1 1.850535 1_456
Ge0 O7 1.903475 1_455
Ge0 O5 1.903482 1_556
Ge0 O2 1.993357 1_555
Ge0 O3 1.993366 1_466
O0 Pd1 1.990709 1_556
O1 Pd1 1.990715 1_655
O2 Pd0 2.015549 1_556
O2 Pd1 2.038997 1_566
O3 Pd0 2.015536 1_545
O3 Pd1 2.038997 1_655
O4 Pd1 1.987280 1_555
O4 Pd0 2.005751 1_545
O5 Pd0 1.996489 1_555
O6 Pd1 1.987289 1_656
O6 Pd0 2.005740 1_546
O7 Pd0 1.996483 1_556
