# generated using pymatgen
data_Hf10Cu2Sn5Bi
_symmetry_space_group_name_H-M   'P 1'
_cell_length_a   8.57010162
_cell_length_b   8.55092969
_cell_length_c   5.80077277
_cell_angle_alpha   90.00000000
_cell_angle_beta   90.00000000
_cell_angle_gamma   120.07419162
_symmetry_Int_Tables_number   1
_chemical_formula_structural   Hf10Cu2Sn5Bi
_chemical_formula_sum   'Hf10 Cu2 Sn5 Bi1'
_cell_volume   367.86682702
_cell_formula_units_Z   1
loop_
 _symmetry_equiv_pos_site_id
 _symmetry_equiv_pos_as_xyz
  1  'x, y, z'
loop_
 _atom_site_type_symbol
 _atom_site_label
 _atom_site_symmetry_multiplicity
 _atom_site_fract_x
 _atom_site_fract_y
 _atom_site_fract_z
 _atom_site_occupancy
  Hf  Hf0  1  0.33094155  0.66344194  0.99754393  1
  Hf  Hf1  1  0.66750062  0.33655806  0.50245607  1
  Hf  Hf2  1  0.66750062  0.33655806  0.99754393  1
  Hf  Hf3  1  0.33094155  0.66344194  0.50245607  1
  Hf  Hf4  1  0.24945786  0.00000000  0.25000000  1
  Hf  Hf5  1  0.26502103  0.26625502  0.75000000  1
  Hf  Hf6  1  0.99876601  0.73374498  0.75000000  1
  Hf  Hf7  1  0.00856956  0.25875662  0.25000000  1
  Hf  Hf8  1  0.74981293  0.74124338  0.25000000  1
  Hf  Hf9  1  0.73335959  1.00000000  0.75000000  1
  Cu  Cu0  1  0.99802153  1.00000000  0.98308296  1
  Cu  Cu1  1  0.99802153  1.00000000  0.51691704  1
  Sn  Sn0  1  0.61380287  0.61523660  0.75000000  1
  Sn  Sn1  1  0.99856627  0.38476340  0.75000000  1
  Sn  Sn2  1  0.00161672  0.60726508  0.25000000  1
  Sn  Sn3  1  0.39435064  0.39273492  0.25000000  1
  Sn  Sn4  1  0.38334432  1.00000000  0.75000000  1
  Bi  Bi0  1  0.61040482  0.00000000  0.25000000  1
loop_
_geom_bond_atom_site_label_1
_geom_bond_atom_site_label_2
_geom_bond_distance
_geom_bond_site_symmetry_2
Hf0 Hf3 2.871892 1_555
Hf0 Hf3 2.928881 1_556
Hf0 Sn2 2.997029 1_556
Hf0 Sn1 3.008534 1_455
Hf0 Sn3 3.009802 1_556
Hf0 Sn0 3.018250 1_555
Hf0 Sn4 3.041464 1_555
Hf1 Hf2 2.871892 1_555
Hf1 Hf2 2.928881 1_554
Hf1 Sn3 2.997044 1_555
Hf1 Sn0 3.008539 1_555
Hf1 Sn2 3.009802 1_655
Hf1 Sn1 3.018242 1_555
Hf1 Sn4 3.041466 1_545
Hf2 Sn3 2.997044 1_556
Hf2 Sn0 3.008539 1_555
Hf2 Sn2 3.009802 1_656
Hf2 Sn1 3.018242 1_555
Hf2 Sn4 3.041466 1_545
Hf3 Sn2 2.997029 1_555
Hf3 Sn1 3.008534 1_455
Hf3 Sn3 3.009802 1_555
Hf3 Sn0 3.018250 1_555
Hf3 Sn4 3.041464 1_555
Hf4 Sn2 2.939442 1_545
Hf4 Sn3 2.939443 1_555
Hf4 Sn4 3.119105 1_544
Hf4 Sn4 3.119105 1_545
Hf5 Sn4 2.919871 1_545
Hf5 Sn1 2.925867 1_455
Hf5 Sn0 2.983260 1_555
Hf5 Sn3 3.099838 1_556
Hf5 Sn3 3.099838 1_555
Hf6 Sn4 2.919871 1_655
Hf6 Sn0 2.925868 1_555
Hf6 Sn1 2.983260 1_555
Hf6 Sn2 3.099840 1_655
Hf6 Sn2 3.099840 1_656
Hf7 Sn3 2.906398 1_555
Hf7 Sn2 3.010373 1_555
Hf7 Sn1 3.110164 1_455
Hf7 Sn1 3.110164 1_454
Hf8 Sn2 2.906406 1_655
Hf8 Sn3 3.010378 1_555
Hf8 Sn0 3.110164 1_554
Hf8 Sn0 3.110164 1_555
Hf9 Sn0 2.914767 1_555
Hf9 Sn1 2.914767 1_565
Hf9 Sn4 2.999666 1_555
Cu0 Hf9 2.640589 1_555
Cu0 Hf6 2.650690 1_555
Cu0 Hf5 2.650690 1_665
Cu0 Hf4 2.653417 1_666
Cu0 Hf7 2.664707 1_666
Cu0 Hf8 2.664707 1_556
Cu0 Cu1 2.704123 1_555
Cu1 Hf9 2.640589 1_555
Cu1 Hf6 2.650690 1_555
Cu1 Hf5 2.650690 1_665
Cu1 Hf4 2.653417 1_665
Cu1 Hf7 2.664707 1_665
Cu1 Hf8 2.664707 1_555
Bi0 Hf8 2.995409 1_545
Bi0 Hf7 2.995409 1_655
Bi0 Hf1 3.042184 1_555
Bi0 Hf2 3.042184 1_554
Bi0 Hf3 3.042186 1_545
Bi0 Hf0 3.042186 1_544
Bi0 Hf9 3.085871 1_545
Bi0 Hf9 3.085871 1_544
Bi0 Hf4 3.093352 1_555
