# generated using pymatgen
data_Hf8Ti9Re3Si16
_symmetry_space_group_name_H-M   'P 1'
_cell_length_a   6.50541326
_cell_length_b   6.67581773
_cell_length_c   12.81406584
_cell_angle_alpha   90.00000000
_cell_angle_beta   90.00000000
_cell_angle_gamma   90.02138904
_symmetry_Int_Tables_number   1
_chemical_formula_structural   Hf8Ti9Re3Si16
_chemical_formula_sum   'Hf8 Ti9 Re3 Si16'
_cell_volume   556.50142644
_cell_formula_units_Z   1
loop_
 _symmetry_equiv_pos_site_id
 _symmetry_equiv_pos_as_xyz
  1  'x, y, z'
loop_
 _atom_site_type_symbol
 _atom_site_label
 _atom_site_symmetry_multiplicity
 _atom_site_fract_x
 _atom_site_fract_y
 _atom_site_fract_z
 _atom_site_occupancy
  Hf  Hf0  1  0.99426206  0.17226593  0.09127377  1
  Hf  Hf1  1  0.00463089  0.82742702  0.90723898  1
  Hf  Hf2  1  0.50288960  0.67267902  0.90748955  1
  Hf  Hf3  1  0.00463089  0.82742702  0.59276102  1
  Hf  Hf4  1  0.49442965  0.32796928  0.09071023  1
  Hf  Hf5  1  0.99426206  0.17226593  0.40872623  1
  Hf  Hf6  1  0.49442965  0.32796928  0.40928977  1
  Hf  Hf7  1  0.50288960  0.67267902  0.59251045  1
  Ti  Ti0  1  0.16279892  0.49348915  0.75000000  1
  Ti  Ti1  1  0.33396089  0.17061729  0.62440813  1
  Ti  Ti2  1  0.66535767  0.83191145  0.37521664  1
  Ti  Ti3  1  0.16694225  0.66801193  0.37418875  1
  Ti  Ti4  1  0.66535767  0.83191145  0.12478336  1
  Ti  Ti5  1  0.83612195  0.33043720  0.62415280  1
  Ti  Ti6  1  0.33396089  0.17061729  0.87559187  1
  Ti  Ti7  1  0.83612195  0.33043720  0.87584720  1
  Ti  Ti8  1  0.16694225  0.66801193  0.12581125  1
  Re  Re0  1  0.83917024  0.50486345  0.25000000  1
  Re  Re1  1  0.33826630  0.99264022  0.25000000  1
  Re  Re2  1  0.66197604  0.00493921  0.75000000  1
  Si  Si0  1  0.03422745  0.11553619  0.75000000  1
  Si  Si1  1  0.96557117  0.88529697  0.25000000  1
  Si  Si2  1  0.46742106  0.61331096  0.25000000  1
  Si  Si3  1  0.53731973  0.38287482  0.75000000  1
  Si  Si4  1  0.29816047  0.86175468  0.75000000  1
  Si  Si5  1  0.70027826  0.14160766  0.25000000  1
  Si  Si6  1  0.20181568  0.35741855  0.25000000  1
  Si  Si7  1  0.79797363  0.63949493  0.75000000  1
  Si  Si8  1  0.17018495  0.46218148  0.53855801  1
  Si  Si9  1  0.82959680  0.53975060  0.46025931  1
  Si  Si10  1  0.32876705  0.96068994  0.46155780  1
  Si  Si11  1  0.82959680  0.53975060  0.03974069  1
  Si  Si12  1  0.67036727  0.03944547  0.53996548  1
  Si  Si13  1  0.17018495  0.46218148  0.96144199  1
  Si  Si14  1  0.67036727  0.03944547  0.96003452  1
  Si  Si15  1  0.32876705  0.96068994  0.03844220  1
loop_
_geom_bond_atom_site_label_1
_geom_bond_atom_site_label_2
_geom_bond_distance
_geom_bond_site_symmetry_2
Hf0 Si15 2.681601 1_645
Hf0 Si6 2.736152 1_655
Hf0 Si11 2.757537 1_555
Hf0 Si13 2.796746 1_654
Hf0 Si5 2.799297 1_555
Hf0 Si1 2.800275 1_545
Hf0 Si14 2.837728 1_554
Hf0 Re0 3.175923 1_555
Hf0 Re1 3.253456 1_645
Hf1 Si14 2.681769 1_465
Hf1 Si7 2.727609 1_455
Hf1 Si13 2.754935 1_555
Hf1 Si4 2.785355 1_555
Hf1 Si0 2.792101 1_565
Hf1 Si11 2.804635 1_456
Hf1 Si15 2.839544 1_556
Hf1 Re2 3.230314 1_465
Hf2 Si13 2.671133 1_555
Hf2 Si4 2.727813 1_555
Hf2 Si14 2.762858 1_565
Hf2 Si15 2.792371 1_556
Hf2 Si7 2.794115 1_555
Hf2 Si3 2.804662 1_555
Hf2 Si11 2.859720 1_556
Hf2 Re2 3.172067 1_565
Hf3 Si12 2.681769 1_465
Hf3 Si7 2.727609 1_455
Hf3 Si8 2.754935 1_555
Hf3 Si4 2.785355 1_555
Hf3 Si0 2.792101 1_565
Hf3 Si9 2.804635 1_455
Hf3 Si10 2.839544 1_555
Hf3 Re2 3.230314 1_465
Hf4 Si11 2.679046 1_555
Hf4 Si5 2.740188 1_555
Hf4 Si15 2.760403 1_545
Hf4 Si14 2.797414 1_554
Hf4 Si2 2.797502 1_555
Hf4 Si6 2.798003 1_555
Hf4 Si13 2.827960 1_554
Hf4 Re1 3.194992 1_545
Hf4 Re0 3.253995 1_555
Hf5 Si10 2.681601 1_645
Hf5 Si6 2.736152 1_655
Hf5 Si9 2.757537 1_555
Hf5 Si8 2.796746 1_655
Hf5 Si5 2.799297 1_555
Hf5 Si1 2.800275 1_545
Hf5 Si12 2.837728 1_555
Hf5 Re0 3.175923 1_555
Hf5 Re1 3.253456 1_645
Hf6 Si9 2.679046 1_555
Hf6 Si5 2.740188 1_555
Hf6 Si10 2.760403 1_545
Hf6 Si12 2.797414 1_555
Hf6 Si2 2.797502 1_555
Hf6 Si6 2.798003 1_555
Hf6 Si8 2.827960 1_555
Hf6 Re1 3.194992 1_545
Hf6 Re0 3.253995 1_555
Hf7 Si8 2.671133 1_555
Hf7 Si4 2.727813 1_555
Hf7 Si12 2.762858 1_565
Hf7 Si10 2.792371 1_555
Hf7 Si7 2.794115 1_555
Hf7 Si3 2.804662 1_555
Hf7 Si9 2.859720 1_555
Hf7 Re2 3.172067 1_565
Re0 Si2 2.524682 1_555
Re0 Si6 2.556607 1_655
Re0 Si5 2.587573 1_555
Re0 Si1 2.669214 1_555
Re0 Si9 2.705043 1_555
Re0 Si11 2.705043 1_555
Re0 Ti3 2.874651 1_655
Re0 Ti8 2.874651 1_655
Re0 Ti2 2.936284 1_555
Re0 Ti4 2.936284 1_555
Re1 Si1 2.527963 1_455
Re1 Si5 2.556060 1_565
Re1 Si6 2.592245 1_565
Re1 Si2 2.668378 1_555
Re1 Si10 2.719994 1_555
Re1 Si15 2.719994 1_555
Re1 Ti2 2.873215 1_555
Re1 Ti4 2.873215 1_555
Re1 Ti8 2.910223 1_555
Re1 Ti3 2.910223 1_555
Re2 Si0 2.531437 1_655
Re2 Si4 2.552177 1_545
Re2 Si7 2.595416 1_545
Re2 Si3 2.650439 1_555
Re2 Si14 2.701786 1_555
Re2 Si12 2.701786 1_555
Re2 Ti6 2.892833 1_555
Re2 Ti1 2.892833 1_555
Re2 Ti7 2.933242 1_555
Re2 Ti5 2.933242 1_555
Si0 Si4 2.412581 1_545
Si0 Ti7 2.514159 1_455
Si0 Ti5 2.514159 1_455
Si0 Ti6 2.554747 1_555
Si0 Ti1 2.554747 1_555
Si0 Ti0 2.657869 1_555
Si1 Si5 2.430748 1_565
Si1 Ti3 2.520728 1_655
Si1 Ti8 2.520728 1_655
Si1 Ti2 2.552506 1_555
Si1 Ti4 2.552506 1_555
Si2 Si6 2.429321 1_555
Si2 Ti2 2.522074 1_555
Si2 Ti4 2.522074 1_555
Si2 Ti8 2.547023 1_555
Si2 Ti3 2.547023 1_555
Si3 Si7 2.409975 1_555
Si3 Ti6 2.519247 1_555
Si3 Ti1 2.519247 1_555
Si3 Ti0 2.546124 1_555
Si3 Ti7 2.549914 1_555
Si3 Ti5 2.549914 1_555
Si4 Ti0 2.611111 1_555
Si4 Ti6 2.625898 1_565
Si4 Ti1 2.625898 1_565
Si5 Ti2 2.626831 1_545
Si5 Ti4 2.626831 1_545
Si6 Ti3 2.623645 1_555
Si6 Ti8 2.623645 1_555
Si7 Ti0 2.566032 1_655
Si7 Ti7 2.630465 1_555
Si7 Ti5 2.630465 1_555
Si8 Ti1 2.476989 1_555
Si8 Si9 2.486936 1_455
Si8 Ti3 2.514920 1_555
Si8 Ti5 2.588045 1_455
Si8 Ti0 2.717907 1_555
Si9 Ti2 2.476848 1_555
Si9 Ti5 2.522894 1_555
Si9 Ti3 2.600831 1_655
Si10 Ti3 2.485499 1_555
Si10 Si12 2.494677 1_565
Si10 Ti1 2.513913 1_565
Si10 Ti2 2.599844 1_555
Si11 Ti4 2.476848 1_555
Si11 Si13 2.486936 1_654
Si11 Ti7 2.522894 1_554
Si11 Ti8 2.600831 1_655
Si12 Ti5 2.469548 1_555
Si12 Ti2 2.525328 1_545
Si12 Ti1 2.593926 1_555
Si13 Ti6 2.476989 1_555
Si13 Ti8 2.514920 1_556
Si13 Ti7 2.588045 1_455
Si13 Ti0 2.717907 1_555
Si14 Ti7 2.469548 1_555
Si14 Si15 2.494677 1_546
Si14 Ti4 2.525328 1_546
Si14 Ti6 2.593926 1_555
Si15 Ti8 2.485499 1_555
Si15 Ti6 2.513913 1_564
Si15 Ti4 2.599844 1_555
