# generated using pymatgen
data_Lu2C(NO)2
_symmetry_space_group_name_H-M   'P 1'
_cell_length_a   3.58250040
_cell_length_b   3.58252424
_cell_length_c   8.05518958
_cell_angle_alpha   90.00019030
_cell_angle_beta   89.99979197
_cell_angle_gamma   119.99991634
_symmetry_Int_Tables_number   1
_chemical_formula_structural   Lu2C(NO)2
_chemical_formula_sum   'Lu2 C1 N2 O2'
_cell_volume   89.53279638
_cell_formula_units_Z   1
loop_
 _symmetry_equiv_pos_site_id
 _symmetry_equiv_pos_as_xyz
  1  'x, y, z'
loop_
 _atom_site_type_symbol
 _atom_site_label
 _atom_site_symmetry_multiplicity
 _atom_site_fract_x
 _atom_site_fract_y
 _atom_site_fract_z
 _atom_site_occupancy
  Lu  Lu0  1  0.33331721  0.66667733  0.17494401  1
  Lu  Lu1  1  0.66666922  0.33333522  0.82504423  1
  C  C0  1  0.00000375  0.99999718  0.49999752  1
  N  N0  1  0.99999880  0.99999441  0.34754205  1
  N  N1  1  0.00001236  0.00000287  0.65246424  1
  O  O0  1  0.66667046  0.33333405  0.10224493  1
  O  O1  1  0.33333320  0.66666494  0.89775903  1
loop_
_geom_bond_atom_site_label_1
_geom_bond_atom_site_label_2
_geom_bond_distance
_geom_bond_site_symmetry_2
Lu0 O0 2.149603 1_455
Lu0 O0 2.149646 1_565
Lu0 O0 2.149752 1_555
Lu0 O1 2.232778 1_554
Lu0 N0 2.492121 1_455
Lu0 N0 2.492243 1_555
Lu0 N0 2.492258 1_445
Lu1 O1 2.149689 1_655
Lu1 O1 2.149695 1_555
Lu1 O1 2.149721 1_545
Lu1 O0 2.232904 1_556
Lu1 N1 2.492098 1_555
Lu1 N1 2.492137 1_665
Lu1 N1 2.492143 1_655
C0 N0 1.228058 1_455
C0 N1 1.228148 1_565
