# generated using pymatgen
data_Cs5BaVAs4
_symmetry_space_group_name_H-M   'P 1'
_cell_length_a   11.05105197
_cell_length_b   11.05105077
_cell_length_c   8.50854066
_cell_angle_alpha   87.81997646
_cell_angle_beta   87.81997771
_cell_angle_gamma   121.27379987
_symmetry_Int_Tables_number   1
_chemical_formula_structural   Cs5BaVAs4
_chemical_formula_sum   'Cs10 Ba2 V2 As8'
_cell_volume   885.44851259
_cell_formula_units_Z   2
loop_
 _symmetry_equiv_pos_site_id
 _symmetry_equiv_pos_as_xyz
  1  'x, y, z'
loop_
 _atom_site_type_symbol
 _atom_site_label
 _atom_site_symmetry_multiplicity
 _atom_site_fract_x
 _atom_site_fract_y
 _atom_site_fract_z
 _atom_site_occupancy
  Cs  Cs0  1  0.46452987  0.52574674  0.49316617  1
  Cs  Cs1  1  0.06454535  0.52827866  0.49877880  1
  Cs  Cs2  1  0.52574674  0.46452987  0.99316617  1
  Cs  Cs3  1  0.52827866  0.06454535  0.99877880  1
  Cs  Cs4  1  0.86787617  0.14172352  0.68122133  1
  Cs  Cs5  1  0.29321156  0.15220619  0.72590829  1
  Cs  Cs6  1  0.85636202  0.71531383  0.65167817  1
  Cs  Cs7  1  0.14172352  0.86787617  0.18122133  1
  Cs  Cs8  1  0.71531383  0.85636202  0.15167817  1
  Cs  Cs9  1  0.15220619  0.29321156  0.22590829  1
  Ba  Ba0  1  0.46855818  0.94258633  0.49962734  1
  Ba  Ba1  1  0.94258633  0.46855818  0.99962734  1
  V  V0  1  0.66971068  0.32777994  0.39134753  1
  V  V1  1  0.32777994  0.66971068  0.89134753  1
  As  As0  1  0.68104310  0.33228093  0.67078952  1
  As  As1  1  0.33228093  0.68104310  0.17078952  1
  As  As2  1  0.78335352  0.20605782  0.29489218  1
  As  As3  1  0.42547209  0.19902464  0.33233323  1
  As  As4  1  0.79073031  0.56360754  0.27454344  1
  As  As5  1  0.20605782  0.78335352  0.79489218  1
  As  As6  1  0.56360754  0.79073031  0.77454344  1
  As  As7  1  0.19902464  0.42547209  0.83233323  1
loop_
_geom_bond_atom_site_label_1
_geom_bond_atom_site_label_2
_geom_bond_distance
_geom_bond_site_symmetry_2
As0 V0 2.386740 1_555
As0 Cs6 3.620302 1_555
As0 Cs4 3.635870 1_555
As0 Cs3 3.635885 1_555
As0 Cs5 3.670167 1_555
As0 Cs1 3.814590 1_655
As0 Ba1 3.855762 1_555
As0 Cs2 3.893077 1_555
As1 V1 2.386740 1_554
As1 Cs8 3.620302 1_555
As1 Cs7 3.635870 1_555
As1 Cs1 3.635885 1_555
As1 Cs9 3.670166 1_555
As1 Cs3 3.814590 1_564
As1 Ba0 3.855762 1_555
As1 Cs0 3.893077 1_555
As2 V0 2.412417 1_555
As2 Ba1 3.410646 1_554
As2 Ba0 3.500127 1_545
As2 Cs4 3.595585 1_555
As2 Cs3 3.605904 1_554
As2 Cs9 3.685981 1_655
As2 Cs8 3.794162 1_545
As2 Cs1 3.838894 1_655
As3 V0 2.394134 1_555
As3 Ba0 3.380766 1_545
As3 Cs5 3.511238 1_555
As3 Cs3 3.658219 1_554
As3 Cs7 3.691679 1_545
As3 Cs0 3.728047 1_555
As3 Cs2 3.728492 1_554
As3 Cs9 3.797747 1_555
As4 V0 2.377258 1_555
As4 Ba1 3.333105 1_554
As4 Cs2 3.593003 1_554
As4 Cs6 3.599644 1_555
As4 Cs7 3.606005 1_655
As4 Cs0 3.807218 1_555
As4 Cs1 3.815501 1_655
As4 Cs8 3.855226 1_555
As5 V1 2.412417 1_555
As5 Ba0 3.410646 1_555
As5 Ba1 3.500126 1_455
As5 Cs7 3.595585 1_556
As5 Cs1 3.605904 1_555
As5 Cs5 3.685980 1_565
As5 Cs6 3.794162 1_455
As5 Cs3 3.838894 1_565
As6 V1 2.377258 1_555
As6 Ba0 3.333105 1_555
As6 Cs0 3.593002 1_555
As6 Cs8 3.599644 1_556
As6 Cs4 3.606005 1_565
As6 Cs2 3.807218 1_555
As6 Cs3 3.815501 1_565
As6 Cs6 3.855226 1_555
As7 V1 2.394134 1_555
As7 Ba1 3.380766 1_455
As7 Cs9 3.511238 1_556
As7 Cs1 3.658219 1_555
As7 Cs4 3.691679 1_455
As7 Cs2 3.728047 1_555
As7 Cs0 3.728493 1_555
As7 Cs5 3.797747 1_555
