# generated using pymatgen
data_MnInAsO6
_symmetry_space_group_name_H-M   'P 1'
_cell_length_a   4.87025591
_cell_length_b   4.87027026
_cell_length_c   4.58799018
_cell_angle_alpha   90.02014634
_cell_angle_beta   90.01997722
_cell_angle_gamma   119.99442102
_symmetry_Int_Tables_number   1
_chemical_formula_structural   MnInAsO6
_chemical_formula_sum   'Mn1 In1 As1 O6'
_cell_volume   94.25019575
_cell_formula_units_Z   1
loop_
 _symmetry_equiv_pos_site_id
 _symmetry_equiv_pos_as_xyz
  1  'x, y, z'
loop_
 _atom_site_type_symbol
 _atom_site_label
 _atom_site_symmetry_multiplicity
 _atom_site_fract_x
 _atom_site_fract_y
 _atom_site_fract_z
 _atom_site_occupancy
  Mn  Mn0  1  0.85041908  0.14957622  0.99999553  1
  In  In0  1  0.51707697  0.48292586  0.50000371  1
  As  As0  1  0.18380238  0.81620492  0.00000261  1
  O  O0  1  0.15669898  0.11444536  0.22149299  1
  O  O1  1  0.88627091  0.49126352  0.22175021  1
  O  O2  1  0.50921382  0.84399707  0.22177380  1
  O  O3  1  0.15600397  0.49078743  0.77823153  1
  O  O4  1  0.50873679  0.11372609  0.77826246  1
  O  O5  1  0.88556010  0.84330254  0.77851417  1
loop_
_geom_bond_atom_site_label_1
_geom_bond_atom_site_label_2
_geom_bond_distance
_geom_bond_site_symmetry_2
Mn0 O5 1.881791 1_545
Mn0 O3 1.881802 1_655
Mn0 O2 1.881813 1_546
Mn0 O0 1.881831 1_656
Mn0 O4 1.882222 1_555
Mn0 O1 1.882296 1_556
In0 O0 2.186654 1_555
In0 O5 2.186656 1_555
In0 O3 2.189103 1_555
In0 O2 2.189111 1_555
In0 O1 2.189316 1_555
In0 O4 2.189356 1_555
As0 O4 1.829871 1_564
As0 O1 1.829925 1_455
As0 O2 1.830192 1_555
As0 O3 1.830207 1_554
As0 O5 1.830459 1_454
As0 O0 1.830471 1_565
