# generated using pymatgen
data_NaSrVS4
_symmetry_space_group_name_H-M   'P 1'
_cell_length_a   9.17245359
_cell_length_b   6.38515410
_cell_length_c   11.94024785
_cell_angle_alpha   70.81573973
_cell_angle_beta   90.00000000
_cell_angle_gamma   90.00000000
_symmetry_Int_Tables_number   1
_chemical_formula_structural   NaSrVS4
_chemical_formula_sum   'Na4 Sr4 V4 S16'
_cell_volume   660.47576684
_cell_formula_units_Z   4
loop_
 _symmetry_equiv_pos_site_id
 _symmetry_equiv_pos_as_xyz
  1  'x, y, z'
loop_
 _atom_site_type_symbol
 _atom_site_label
 _atom_site_symmetry_multiplicity
 _atom_site_fract_x
 _atom_site_fract_y
 _atom_site_fract_z
 _atom_site_occupancy
  Na  Na0  1  0.12188741  0.22183113  0.02358812  1
  Na  Na1  1  0.37811259  0.22183113  0.52358812  1
  Na  Na2  1  0.87811259  0.77816887  0.97641188  1
  Na  Na3  1  0.62188741  0.77816887  0.47641188  1
  Sr  Sr0  1  0.88273978  0.38846530  0.34071454  1
  Sr  Sr1  1  0.61726022  0.38846530  0.84071454  1
  Sr  Sr2  1  0.11726022  0.61153470  0.65928546  1
  Sr  Sr3  1  0.38273978  0.61153470  0.15928546  1
  V  V0  1  0.62467675  0.12489708  0.17885895  1
  V  V1  1  0.87532325  0.12489708  0.67885895  1
  V  V2  1  0.37532325  0.87510292  0.82114105  1
  V  V3  1  0.12467675  0.87510292  0.32114105  1
  S  S0  1  0.80775828  0.32005411  0.08976790  1
  S  S1  1  0.69224172  0.32005411  0.58976790  1
  S  S2  1  0.19224172  0.67994589  0.91023210  1
  S  S3  1  0.30775828  0.67994589  0.41023210  1
  S  S4  1  0.93774199  0.80270824  0.43295625  1
  S  S5  1  0.56225801  0.80270824  0.93295625  1
  S  S6  1  0.06225801  0.19729176  0.56704375  1
  S  S7  1  0.43774199  0.19729176  0.06704375  1
  S  S8  1  0.57288620  0.21825773  0.33261623  1
  S  S9  1  0.92711380  0.21825773  0.83261623  1
  S  S10  1  0.42711380  0.78174227  0.66738377  1
  S  S11  1  0.07288620  0.78174227  0.16738377  1
  S  S12  1  0.16932305  0.22201872  0.27210525  1
  S  S13  1  0.33067695  0.22201872  0.77210525  1
  S  S14  1  0.83067695  0.77798128  0.72789475  1
  S  S15  1  0.66932305  0.77798128  0.22789475  1
loop_
_geom_bond_atom_site_label_1
_geom_bond_atom_site_label_2
_geom_bond_distance
_geom_bond_site_symmetry_2
Na0 S11 2.806311 1_545
Na0 S2 2.864050 1_554
Na0 S9 2.902762 1_454
Na0 S7 2.938348 1_555
Na0 S12 2.999475 1_555
Na0 S0 3.105730 1_455
Na1 S10 2.806311 1_545
Na1 S3 2.864050 1_555
Na1 S8 2.902762 1_555
Na1 S6 2.938348 1_555
Na1 S13 2.999475 1_555
Na1 S1 3.105730 1_555
Na2 S9 2.806311 1_565
Na2 S0 2.864050 1_556
Na2 S11 2.902762 1_656
Na2 S5 2.938348 1_555
Na2 S14 2.999475 1_555
Na2 S2 3.105730 1_655
Na3 S8 2.806311 1_565
Na3 S1 2.864050 1_555
Na3 S10 2.902762 1_555
Na3 S4 2.938348 1_555
Na3 S15 2.999475 1_555
Na3 S3 3.105730 1_555
S0 V0 2.152505 1_555
S0 Sr0 3.240715 1_555
S0 Sr1 3.351644 1_554
S1 V1 2.152505 1_555
S1 Sr1 3.240715 1_555
S1 Sr0 3.351644 1_555
S2 V2 2.152505 1_555
S2 Sr2 3.240715 1_555
S2 Sr3 3.351644 1_556
S3 V3 2.152505 1_555
S3 Sr3 3.240715 1_555
S3 Sr2 3.351644 1_555
S4 V3 2.128520 1_655
S4 Sr2 3.055571 1_655
S4 Sr0 3.221524 1_555
S4 Sr0 3.570574 1_565
S5 V2 2.128520 1_555
S5 Sr3 3.055571 1_556
S5 Sr1 3.221524 1_555
S5 Sr1 3.570574 1_565
S6 V1 2.128520 1_455
S6 Sr0 3.055571 1_455
S6 Sr2 3.221524 1_555
S6 Sr2 3.570574 1_545
S7 V0 2.128520 1_555
S7 Sr1 3.055571 1_554
S7 Sr3 3.221524 1_555
S7 Sr3 3.570574 1_545
S8 V0 2.161210 1_555
S8 Sr0 3.055681 1_555
S8 Sr3 3.196156 1_555
S9 V1 2.161210 1_555
S9 Sr1 3.055681 1_555
S9 Sr2 3.196156 1_655
S10 V2 2.161210 1_555
S10 Sr2 3.055681 1_555
S10 Sr1 3.196156 1_555
S11 V3 2.161210 1_555
S11 Sr3 3.055681 1_555
S11 Sr0 3.196156 1_455
S12 V3 2.136553 1_545
S12 Sr0 3.046759 1_455
S12 Sr3 3.103309 1_555
S13 V2 2.136553 1_545
S13 Sr1 3.046759 1_555
S13 Sr2 3.103309 1_555
S14 V1 2.136553 1_565
S14 Sr2 3.046759 1_655
S14 Sr1 3.103309 1_555
S15 V0 2.136553 1_565
S15 Sr3 3.046759 1_555
S15 Sr0 3.103309 1_555
