# generated using pymatgen
data_Y6AlNiOs
_symmetry_space_group_name_H-M   'P 1'
_cell_length_a   8.40510924
_cell_length_b   8.40510916
_cell_length_c   8.40510889
_cell_angle_alpha   112.86184799
_cell_angle_beta   110.18941744
_cell_angle_gamma   105.44805220
_symmetry_Int_Tables_number   1
_chemical_formula_structural   Y6AlNiOs
_chemical_formula_sum   'Y12 Al2 Ni2 Os2'
_cell_volume   455.15464202
_cell_formula_units_Z   2
loop_
 _symmetry_equiv_pos_site_id
 _symmetry_equiv_pos_as_xyz
  1  'x, y, z'
loop_
 _atom_site_type_symbol
 _atom_site_label
 _atom_site_symmetry_multiplicity
 _atom_site_fract_x
 _atom_site_fract_y
 _atom_site_fract_z
 _atom_site_occupancy
  Y  Y0  1  0.43463849  0.24122156  0.19341693  1
  Y  Y1  1  0.56536151  0.75877844  0.80658307  1
  Y  Y2  1  0.04780563  0.24122156  0.80658307  1
  Y  Y3  1  0.95219437  0.75877844  0.19341693  1
  Y  Y4  1  0.18106177  0.27903031  0.46009207  1
  Y  Y5  1  0.81893823  0.72096969  0.53990793  1
  Y  Y6  1  0.18106177  0.72096969  0.90203246  1
  Y  Y7  1  0.81893823  0.27903031  0.09796754  1
  Y  Y8  1  0.32950506  0.64421017  0.31470511  1
  Y  Y9  1  0.67049494  0.35578983  0.68529489  1
  Y  Y10  1  0.32950506  0.01479894  0.68529489  1
  Y  Y11  1  0.67049494  0.98520106  0.31470511  1
  Al  Al0  1  0.50000000  0.50000000  0.00000000  1
  Al  Al1  1  0.00000000  0.00000000  0.00000000  1
  Ni  Ni0  1  0.11349870  0.61349870  0.50000000  1
  Ni  Ni1  1  0.88650130  0.38650130  0.50000000  1
  Os  Os0  1  0.32538902  1.00000000  0.32538902  1
  Os  Os1  1  0.67461098  0.00000000  0.67461098  1
loop_
_geom_bond_atom_site_label_1
_geom_bond_atom_site_label_2
_geom_bond_distance
_geom_bond_site_symmetry_2
Al0 Y3 3.225361 1_555
Al0 Y2 3.225361 1_554
Al0 Y1 3.225368 1_554
Al0 Y0 3.225368 1_555
Al0 Y9 3.401468 1_554
Al0 Y8 3.401468 1_555
Al0 Y11 3.401475 1_555
Al0 Y10 3.401475 1_554
Al0 Y7 3.691985 1_555
Al0 Y6 3.691985 1_554
Al0 Y5 3.691987 1_555
Al0 Y4 3.691987 1_554
Al1 Y0 3.081080 1_555
Al1 Y1 3.081080 1_444
Al1 Y3 3.081081 1_445
Al1 Y2 3.081081 1_554
Al1 Y6 3.124129 1_544
Al1 Y7 3.124129 1_455
Al1 Y4 3.124131 1_555
Al1 Y5 3.124131 1_444
Al1 Os1 3.129972 1_454
Al1 Os0 3.129972 1_545
Ni0 Ni1 2.311103 1_455
Ni0 Y10 2.793362 1_565
Ni0 Y8 2.793368 1_555
Ni0 Y5 2.930413 1_455
Ni0 Y4 2.930413 1_555
Ni0 Y7 2.930417 1_455
Ni0 Y6 2.930421 1_555
Ni0 Y1 3.299218 1_555
Ni0 Y3 3.299220 1_455
Ni1 Y11 2.793362 1_545
Ni1 Y9 2.793368 1_555
Ni1 Y4 2.930413 1_655
Ni1 Y5 2.930413 1_555
Ni1 Y6 2.930417 1_655
Ni1 Y7 2.930421 1_555
Ni1 Y0 3.299218 1_555
Ni1 Y2 3.299220 1_655
Os0 Y0 2.764613 1_565
Os0 Y3 2.764620 1_455
Os0 Y6 2.941796 1_554
Os0 Y4 2.941802 1_565
Os0 Y11 2.966589 1_555
Os0 Y8 2.966591 1_555
Os0 Y9 2.966591 1_565
Os0 Y10 2.966594 1_565
Os1 Y1 2.764613 1_545
Os1 Y2 2.764620 1_655
Os1 Y7 2.941796 1_556
Os1 Y5 2.941802 1_545
Os1 Y10 2.966589 1_555
Os1 Y9 2.966591 1_555
Os1 Y8 2.966591 1_545
Os1 Y11 2.966594 1_545
