# generated using pymatgen
data_ThZr2H7
_symmetry_space_group_name_H-M   'P 1'
_cell_length_a   6.61413541
_cell_length_b   6.61413541
_cell_length_c   6.61413541
_cell_angle_alpha   60.00000000
_cell_angle_beta   60.00000000
_cell_angle_gamma   60.00000000
_symmetry_Int_Tables_number   1
_chemical_formula_structural   ThZr2H7
_chemical_formula_sum   'Th2 Zr4 H14'
_cell_volume   204.59934915
_cell_formula_units_Z   2
loop_
 _symmetry_equiv_pos_site_id
 _symmetry_equiv_pos_as_xyz
  1  'x, y, z'
loop_
 _atom_site_type_symbol
 _atom_site_label
 _atom_site_symmetry_multiplicity
 _atom_site_fract_x
 _atom_site_fract_y
 _atom_site_fract_z
 _atom_site_occupancy
  Th  Th0  1  0.25000000  0.25000000  0.25000000  1
  Th  Th1  1  0.00000000  0.00000000  0.00000000  1
  Zr  Zr0  1  0.62500000  0.62500000  0.12500000  1
  Zr  Zr1  1  0.62500000  0.12500000  0.62500000  1
  Zr  Zr2  1  0.12500000  0.62500000  0.62500000  1
  Zr  Zr3  1  0.62500000  0.62500000  0.62500000  1
  H  H0  1  0.75180400  0.24819600  0.75180400  1
  H  H1  1  0.00180400  0.49819600  0.00180400  1
  H  H2  1  0.75180400  0.75180400  0.24819600  1
  H  H3  1  0.24819600  0.75180400  0.75180400  1
  H  H4  1  0.75180400  0.24819600  0.24819600  1
  H  H5  1  0.24819600  0.24819600  0.75180400  1
  H  H6  1  0.50000000  0.50000000  0.50000000  1
  H  H7  1  0.75000000  0.75000000  0.75000000  1
  H  H8  1  0.24819600  0.75180400  0.24819600  1
  H  H9  1  0.49819600  0.00180400  0.00180400  1
  H  H10  1  0.00180400  0.49819600  0.49819600  1
  H  H11  1  0.49819600  0.00180400  0.49819600  1
  H  H12  1  0.00180400  0.00180400  0.49819600  1
  H  H13  1  0.49819600  0.49819600  0.00180400  1
loop_
_geom_bond_atom_site_label_1
_geom_bond_atom_site_label_2
_geom_bond_distance
_geom_bond_site_symmetry_2
H0 Zr1 2.034946 1_555
H0 Zr3 2.034946 1_555
H0 Th1 2.321576 1_656
H1 Zr0 2.034946 1_455
H1 Zr2 2.034946 1_554
H1 Th0 2.321576 1_555
H2 Zr0 2.034946 1_555
H2 Zr3 2.034946 1_555
H2 Th1 2.321576 1_665
H3 Zr2 2.034946 1_555
H3 Zr3 2.034946 1_555
H3 Th1 2.321576 1_566
H4 Zr0 2.034946 1_555
H4 Zr1 2.034946 1_555
H4 Th1 2.321576 1_655
H5 Zr2 2.034946 1_555
H5 Zr1 2.034946 1_555
H5 Th1 2.321576 1_556
H6 Zr0 2.025157 1_555
H6 Zr2 2.025157 1_555
H6 Zr1 2.025157 1_555
H6 Zr3 2.025157 1_555
H7 Zr1 2.025157 1_565
H7 Zr3 2.025157 1_555
H7 Zr0 2.025157 1_556
H7 Zr2 2.025157 1_655
H8 Zr2 2.034946 1_555
H8 Zr0 2.034946 1_555
H8 Th1 2.321576 1_565
H9 Zr1 2.034946 1_554
H9 Zr0 2.034946 1_545
H9 Th0 2.321576 1_555
H10 Zr3 2.034946 1_455
H10 Zr2 2.034946 1_555
H10 Th0 2.321576 1_555
H11 Zr3 2.034946 1_545
H11 Zr1 2.034946 1_555
H11 Th0 2.321576 1_555
H12 Zr1 2.034946 1_455
H12 Zr2 2.034946 1_545
H12 Th0 2.321576 1_555
H13 Zr0 2.034946 1_555
H13 Zr3 2.034946 1_554
H13 Th0 2.321576 1_555
