# generated using pymatgen
data_CsK3SnSe4
_symmetry_space_group_name_H-M   'P 1'
_cell_length_a   8.26415392
_cell_length_b   10.46670171
_cell_length_c   15.59964865
_cell_angle_alpha   90.00000000
_cell_angle_beta   90.00000000
_cell_angle_gamma   90.00000000
_symmetry_Int_Tables_number   1
_chemical_formula_structural   CsK3SnSe4
_chemical_formula_sum   'Cs4 K12 Sn4 Se16'
_cell_volume   1349.34517927
_cell_formula_units_Z   4
loop_
 _symmetry_equiv_pos_site_id
 _symmetry_equiv_pos_as_xyz
  1  'x, y, z'
loop_
 _atom_site_type_symbol
 _atom_site_label
 _atom_site_symmetry_multiplicity
 _atom_site_fract_x
 _atom_site_fract_y
 _atom_site_fract_z
 _atom_site_occupancy
  Cs  Cs0  1  0.00000000  0.00000000  0.00000000  1
  Cs  Cs1  1  0.50000000  0.00000000  0.50000000  1
  Cs  Cs2  1  0.00000000  0.50000000  0.00000000  1
  Cs  Cs3  1  0.50000000  0.50000000  0.50000000  1
  K  K0  1  0.96791826  0.75000000  0.42297319  1
  K  K1  1  0.46791826  0.25000000  0.07702681  1
  K  K2  1  0.03208174  0.25000000  0.57702681  1
  K  K3  1  0.53208174  0.75000000  0.92297319  1
  K  K4  1  0.81797741  0.05011960  0.26433091  1
  K  K5  1  0.31797741  0.94988040  0.23566909  1
  K  K6  1  0.18202259  0.55011960  0.73566909  1
  K  K7  1  0.68202259  0.44988040  0.76433091  1
  K  K8  1  0.18202259  0.94988040  0.73566909  1
  K  K9  1  0.68202259  0.05011960  0.76433091  1
  K  K10  1  0.81797741  0.44988040  0.26433091  1
  K  K11  1  0.31797741  0.55011960  0.23566909  1
  Sn  Sn0  1  0.79225905  0.75000000  0.67286657  1
  Sn  Sn1  1  0.20774095  0.25000000  0.32713343  1
  Sn  Sn2  1  0.70774095  0.75000000  0.17286657  1
  Sn  Sn3  1  0.29225905  0.25000000  0.82713343  1
  Se  Se0  1  0.98472188  0.25000000  0.81438735  1
  Se  Se1  1  0.51527812  0.25000000  0.31438735  1
  Se  Se2  1  0.48472188  0.75000000  0.68561265  1
  Se  Se3  1  0.01527812  0.75000000  0.18561265  1
  Se  Se4  1  0.60801176  0.55596883  0.09334015  1
  Se  Se5  1  0.10801176  0.44403117  0.40665985  1
  Se  Se6  1  0.39198824  0.05596883  0.90665985  1
  Se  Se7  1  0.89198824  0.94403117  0.59334015  1
  Se  Se8  1  0.39198824  0.44403117  0.90665985  1
  Se  Se9  1  0.89198824  0.55596883  0.59334015  1
  Se  Se10  1  0.60801176  0.94403117  0.09334015  1
  Se  Se11  1  0.10801176  0.05596883  0.40665985  1
  Se  Se12  1  0.59666156  0.75000000  0.32663177  1
  Se  Se13  1  0.09666156  0.25000000  0.17336823  1
  Se  Se14  1  0.40333844  0.25000000  0.67336823  1
  Se  Se15  1  0.90333844  0.75000000  0.82663177  1
loop_
_geom_bond_atom_site_label_1
_geom_bond_atom_site_label_2
_geom_bond_distance
_geom_bond_site_symmetry_2
Cs0 Se6 3.599634 1_554
Cs0 Se10 3.599634 1_445
Cs0 Se13 3.846992 1_555
Cs0 Se15 3.846992 1_444
Cs0 Se3 3.904716 1_545
Cs0 Se0 3.904716 1_454
Cs1 Se7 3.599634 1_545
Cs1 Se11 3.599634 1_555
Cs1 Se14 3.846992 1_555
Cs1 Se12 3.846992 1_545
Cs1 Se2 3.904716 1_545
Cs1 Se1 3.904716 1_555
Cs2 Se8 3.599634 1_554
Cs2 Se4 3.599634 1_455
Cs2 Se13 3.846992 1_555
Cs2 Se15 3.846992 1_454
Cs2 Se3 3.904716 1_555
Cs2 Se0 3.904716 1_454
Cs3 Se9 3.599634 1_555
Cs3 Se5 3.599634 1_555
Cs3 Se14 3.846992 1_555
Cs3 Se12 3.846992 1_555
Cs3 Se2 3.904716 1_555
Cs3 Se1 3.904716 1_555
K0 Se9 3.403139 1_555
K0 Se7 3.403139 1_555
K0 Se5 3.414830 1_655
K0 Se11 3.414830 1_665
K0 Se12 3.416440 1_555
K0 Se3 3.723369 1_655
K1 Se6 3.403139 1_554
K1 Se8 3.403139 1_554
K1 Se10 3.414830 1_545
K1 Se4 3.414830 1_555
K1 Se13 3.416440 1_555
K1 Se1 3.723369 1_555
K2 Se11 3.403139 1_555
K2 Se5 3.403139 1_555
K2 Se7 3.414830 1_445
K2 Se9 3.414830 1_455
K2 Se14 3.416440 1_555
K2 Se0 3.723369 1_455
K3 Se4 3.403139 1_556
K3 Se10 3.403139 1_556
K3 Se8 3.414830 1_555
K3 Se6 3.414830 1_565
K3 Se15 3.416440 1_555
K3 Se2 3.723369 1_555
K4 Se11 3.267793 1_655
K4 Se1 3.353260 1_555
K4 Se10 3.370291 1_545
K4 Se13 3.419733 1_655
K4 Sn2 3.568370 1_545
K4 Se3 3.746207 1_645
K4 Se12 3.762614 1_545
K5 Se10 3.267793 1_555
K5 Se3 3.353260 1_555
K5 Se11 3.370291 1_565
K5 Se12 3.419733 1_555
K5 Sn1 3.568370 1_565
K5 Se1 3.746207 1_565
K5 Se13 3.762614 1_565
K6 Se9 3.267793 1_455
K6 Se2 3.353260 1_555
K6 Se8 3.370291 1_555
K6 Se15 3.419733 1_455
K6 Sn3 3.568370 1_555
K6 Se0 3.746207 1_455
K6 Se14 3.762614 1_555
K7 Se8 3.267793 1_555
K7 Se0 3.353260 1_555
K7 Se9 3.370291 1_555
K7 Se14 3.419733 1_555
K7 Sn0 3.568370 1_555
K7 Se2 3.746207 1_555
K7 Se15 3.762614 1_555
K8 Se7 3.267793 1_455
K8 Se2 3.353260 1_555
K8 Se6 3.370291 1_565
K8 Se15 3.419733 1_455
K8 Sn3 3.568370 1_565
K8 Se0 3.746207 1_465
K8 Se14 3.762614 1_565
K9 Se6 3.267793 1_555
K9 Se0 3.353260 1_555
K9 Se7 3.370291 1_545
K9 Se14 3.419733 1_555
K9 Sn0 3.568370 1_545
K9 Se2 3.746207 1_545
K9 Se15 3.762614 1_545
K10 Se5 3.267793 1_655
K10 Se1 3.353260 1_555
K10 Se4 3.370291 1_555
K10 Se13 3.419733 1_655
K10 Sn2 3.568370 1_555
K10 Se3 3.746207 1_655
K10 Se12 3.762614 1_555
K11 Se4 3.267793 1_555
K11 Se3 3.353260 1_555
K11 Se5 3.370291 1_555
K11 Se12 3.419733 1_555
K11 Sn1 3.568370 1_555
K11 Se1 3.746207 1_555
K11 Se13 3.762614 1_555
Se0 Sn3 2.549300 1_655
Se1 Sn1 2.549300 1_555
Se2 Sn0 2.549300 1_555
Se3 Sn2 2.549300 1_455
Se4 Sn2 2.518479 1_555
Se5 Sn1 2.518479 1_555
Se6 Sn3 2.518479 1_555
Se7 Sn0 2.518479 1_555
Se8 Sn3 2.518479 1_555
Se9 Sn0 2.518479 1_555
Se10 Sn2 2.518479 1_555
Se11 Sn1 2.518479 1_555
Se12 Sn2 2.568338 1_555
Se13 Sn1 2.568338 1_555
Se14 Sn3 2.568338 1_555
Se15 Sn0 2.568338 1_555
