# generated using pymatgen
data_NaAs(PSe3)2
_symmetry_space_group_name_H-M   'P 1'
_cell_length_a   12.73269283
_cell_length_b   12.14199596
_cell_length_c   7.22598650
_cell_angle_alpha   77.65326991
_cell_angle_beta   68.67811279
_cell_angle_gamma   33.66861875
_symmetry_Int_Tables_number   1
_chemical_formula_structural   NaAs(PSe3)2
_chemical_formula_sum   'Na2 As2 P4 Se12'
_cell_volume   568.34771357
_cell_formula_units_Z   2
loop_
 _symmetry_equiv_pos_site_id
 _symmetry_equiv_pos_as_xyz
  1  'x, y, z'
loop_
 _atom_site_type_symbol
 _atom_site_label
 _atom_site_symmetry_multiplicity
 _atom_site_fract_x
 _atom_site_fract_y
 _atom_site_fract_z
 _atom_site_occupancy
  Na  Na0  1  0.33174741  0.33174741  0.66825259  1
  Na  Na1  1  0.58174741  0.58174741  0.91825259  1
  As  As0  1  0.00393771  0.00393771  0.99606229  1
  As  As1  1  0.25393771  0.25393771  0.24606229  1
  P  P0  1  0.12075046  0.20254483  0.99918003  1
  P  P1  1  0.20254483  0.12075046  0.67752468  1
  P  P2  1  0.25081997  0.57247532  0.12924954  1
  P  P3  1  0.57247532  0.25081997  0.04745517  1
  Se  Se0  1  0.87013534  0.28739318  0.16039739  1
  Se  Se1  1  0.28739318  0.87013534  0.68207310  1
  Se  Se2  1  0.08960261  0.56792690  0.37986466  1
  Se  Se3  1  0.56792690  0.08960261  0.96260682  1
  Se  Se4  1  0.00637050  0.46788119  0.02729078  1
  Se  Se5  1  0.46788119  0.00637050  0.49845754  1
  Se  Se6  1  0.22270922  0.75154246  0.24362950  1
  Se  Se7  1  0.75154246  0.22270922  0.78211881  1
  Se  Se8  1  0.38859527  0.94741311  0.08178565  1
  Se  Se9  1  0.94741311  0.38859527  0.58220597  1
  Se  Se10  1  0.16821435  0.66779403  0.86140473  1
  Se  Se11  1  0.66779403  0.16821435  0.30258689  1
loop_
_geom_bond_atom_site_label_1
_geom_bond_atom_site_label_2
_geom_bond_distance
_geom_bond_site_symmetry_2
Na0 Se10 3.018705 1_555
Na0 Se11 3.018705 1_555
Na0 Se5 3.040709 1_555
Na0 Se4 3.040709 1_556
Na0 Se2 3.077642 1_555
Na0 Se3 3.077648 1_555
Na1 Se8 3.018705 1_556
Na1 Se9 3.018705 1_555
Na1 Se7 3.040709 1_555
Na1 Se6 3.040709 1_556
Na1 Se0 3.077643 1_556
Na1 Se1 3.077648 1_555
As0 Se0 2.583537 1_456
As0 Se1 2.583541 1_545
As0 Se6 2.724194 1_546
As0 Se7 2.724194 1_455
As0 Se10 2.826367 1_545
As0 Se11 2.826367 1_456
As1 Se3 2.583545 1_554
As1 Se2 2.583548 1_555
As1 Se5 2.724194 1_555
As1 Se4 2.724194 1_555
As1 Se8 2.826367 1_545
As1 Se9 2.826367 1_455
P0 Se8 2.165156 1_546
P0 Se4 2.190100 1_556
P0 Se0 2.222363 1_456
P0 P1 2.231243 1_555
P1 Se9 2.165156 1_455
P1 Se5 2.190100 1_555
P1 Se1 2.222364 1_545
P2 Se10 2.165156 1_554
P2 Se6 2.190100 1_555
P2 Se2 2.222356 1_555
P2 P3 2.231243 1_555
P3 Se11 2.165156 1_555
P3 Se7 2.190100 1_554
P3 Se3 2.222352 1_554
