# generated using pymatgen
data_YBeBOs
_symmetry_space_group_name_H-M   'P 1'
_cell_length_a   6.10552364
_cell_length_b   5.45650324
_cell_length_c   6.40645547
_cell_angle_alpha   90.00000000
_cell_angle_beta   90.00000000
_cell_angle_gamma   90.00000000
_symmetry_Int_Tables_number   1
_chemical_formula_structural   YBeBOs
_chemical_formula_sum   'Y4 Be4 B4 Os4'
_cell_volume   213.42984401
_cell_formula_units_Z   4
loop_
 _symmetry_equiv_pos_site_id
 _symmetry_equiv_pos_as_xyz
  1  'x, y, z'
loop_
 _atom_site_type_symbol
 _atom_site_label
 _atom_site_symmetry_multiplicity
 _atom_site_fract_x
 _atom_site_fract_y
 _atom_site_fract_z
 _atom_site_occupancy
  Y  Y0  1  0.00205203  0.25659999  0.34937760  1
  Y  Y1  1  0.50205203  0.24340001  0.15062240  1
  Y  Y2  1  0.99794797  0.75659999  0.65062240  1
  Y  Y3  1  0.49794797  0.74340001  0.84937760  1
  Be  Be0  1  0.36440753  0.06330833  0.54370496  1
  Be  Be1  1  0.86440753  0.43669167  0.95629504  1
  Be  Be2  1  0.63559247  0.56330833  0.45629504  1
  Be  Be3  1  0.13559247  0.93669167  0.04370496  1
  B  B0  1  0.64254150  0.93229032  0.44569140  1
  B  B1  1  0.14254150  0.56770968  0.05430860  1
  B  B2  1  0.35745850  0.43229032  0.55430860  1
  B  B3  1  0.85745850  0.06770968  0.94569140  1
  Os  Os0  1  0.17475883  0.26603575  0.81251096  1
  Os  Os1  1  0.67475883  0.23396425  0.68748904  1
  Os  Os2  1  0.82524117  0.76603575  0.18748904  1
  Os  Os3  1  0.32524117  0.73396425  0.31251096  1
loop_
_geom_bond_atom_site_label_1
_geom_bond_atom_site_label_2
_geom_bond_distance
_geom_bond_site_symmetry_2
Be0 Os1 2.303497 1_555
Be0 Os3 2.341024 1_545
Be0 Os0 2.351593 1_555
Be0 Y3 2.747121 1_545
Be0 Y0 2.748975 1_555
Be0 Y1 2.830824 1_555
Be0 Y2 2.876811 1_445
Be1 Os0 2.303497 1_655
Be1 Os2 2.341024 1_556
Be1 Os1 2.351593 1_555
Be1 Y2 2.747121 1_555
Be1 Y1 2.748975 1_556
Be1 Y0 2.830824 1_656
Be1 Y3 2.876811 1_555
Be2 Os3 2.303497 1_555
Be2 Os1 2.341024 1_555
Be2 Os2 2.351593 1_555
Be2 Y1 2.747121 1_555
Be2 Y2 2.748975 1_555
Be2 Y3 2.830824 1_555
Be2 Y0 2.876811 1_655
Be3 Os2 2.303497 1_455
Be3 Os0 2.341024 1_564
Be3 Os3 2.351593 1_555
Be3 Y0 2.747121 1_565
Be3 Y3 2.748975 1_554
Be3 Y2 2.830824 1_454
Be3 Y1 2.876811 1_565
B0 Be0 1.946559 1_565
B0 Be2 2.014944 1_555
B0 Os2 2.191688 1_555
B0 Os1 2.268897 1_565
B0 Os3 2.377421 1_555
B0 Y1 2.681588 1_565
B0 Y2 2.711333 1_555
B0 Y0 2.886213 1_665
B0 Y3 2.920632 1_555
B1 Be1 1.946559 1_454
B1 Be3 2.014944 1_555
B1 Os3 2.191688 1_555
B1 Os0 2.268897 1_554
B1 Os2 2.377421 1_455
B1 Y0 2.681588 1_555
B1 Y3 2.711333 1_554
B1 Y1 2.886213 1_555
B1 Y2 2.920632 1_454
B2 Be2 1.946559 1_555
B2 Be0 2.014944 1_555
B2 Os0 2.191688 1_555
B2 Os3 2.268897 1_555
B2 Os1 2.377421 1_555
B2 Y3 2.681588 1_555
B2 Y0 2.711333 1_555
B2 Y2 2.886213 1_455
B2 Y1 2.920632 1_555
B3 Be3 1.946559 1_646
B3 Be1 2.014944 1_555
B3 Os1 2.191688 1_555
B3 Os2 2.268897 1_546
B3 Os0 2.377421 1_655
B3 Y2 2.681588 1_545
B3 Y1 2.711333 1_556
B3 Y3 2.886213 1_545
B3 Y0 2.920632 1_656
Os0 Y1 2.949647 1_556
Os0 Y2 3.066934 1_455
Os0 Y0 3.149269 1_555
Os0 Y2 3.157207 1_445
Os1 Y0 2.949647 1_655
Os1 Y3 3.066934 1_545
Os1 Y1 3.149269 1_556
Os1 Y3 3.157207 1_555
Os2 Y3 2.949647 1_554
Os2 Y0 3.066934 1_665
Os2 Y2 3.149269 1_555
Os2 Y0 3.157207 1_655
Os3 Y2 2.949647 1_455
Os3 Y1 3.066934 1_555
Os3 Y3 3.149269 1_554
Os3 Y1 3.157207 1_565
