# generated using pymatgen
data_Rb2Co(SiO3)2
_symmetry_space_group_name_H-M   'P 1'
_cell_length_a   5.86120595
_cell_length_b   5.86120520
_cell_length_c   10.47427247
_cell_angle_alpha   90.00000000
_cell_angle_beta   90.00000000
_cell_angle_gamma   111.57909126
_symmetry_Int_Tables_number   1
_chemical_formula_structural   Rb2Co(SiO3)2
_chemical_formula_sum   'Rb4 Co2 Si4 O12'
_cell_volume   334.61010262
_cell_formula_units_Z   2
loop_
 _symmetry_equiv_pos_site_id
 _symmetry_equiv_pos_as_xyz
  1  'x, y, z'
loop_
 _atom_site_type_symbol
 _atom_site_label
 _atom_site_symmetry_multiplicity
 _atom_site_fract_x
 _atom_site_fract_y
 _atom_site_fract_z
 _atom_site_occupancy
  Rb  Rb0  1  0.28000318  0.93345151  0.57754019  1
  Rb  Rb1  1  0.06654849  0.71999682  0.92245981  1
  Rb  Rb2  1  0.71999682  0.06654849  0.07754019  1
  Rb  Rb3  1  0.93345151  0.28000318  0.42245981  1
  Co  Co0  1  0.18922943  0.81077057  0.25000000  1
  Co  Co1  1  0.81077057  0.18922943  0.75000000  1
  Si  Si0  1  0.36977076  0.33109428  0.86103129  1
  Si  Si1  1  0.33109428  0.36977076  0.13896871  1
  Si  Si2  1  0.66890572  0.63022924  0.63896871  1
  Si  Si3  1  0.63022924  0.66890572  0.36103129  1
  O  O0  1  0.54584815  0.45415185  0.25000000  1
  O  O1  1  0.50645673  0.86830085  0.33471309  1
  O  O2  1  0.52692477  0.52692477  0.50000000  1
  O  O3  1  0.86830085  0.50645673  0.66528691  1
  O  O4  1  0.49354327  0.13169915  0.83471309  1
  O  O5  1  0.07464247  0.21889807  0.86783368  1
  O  O6  1  0.92535753  0.78110293  0.36783368  1
  O  O7  1  0.45415185  0.54584815  0.75000000  1
  O  O8  1  0.13169915  0.49354327  0.16528691  1
  O  O9  1  0.21889707  0.07464247  0.13216632  1
  O  O10  1  0.78110193  0.92535753  0.63216632  1
  O  O11  1  0.47307523  0.47307523  0.00000000  1
loop_
_geom_bond_atom_site_label_1
_geom_bond_atom_site_label_2
_geom_bond_distance
_geom_bond_site_symmetry_2
Co0 O9 1.935901 1_565
Co0 O6 1.935901 1_455
Co0 O8 1.974074 1_555
Co0 O1 1.974074 1_555
Co1 O10 1.935900 1_545
Co1 O5 1.935900 1_655
Co1 O3 1.974074 1_555
Co1 O4 1.974074 1_555
O0 Si3 1.650321 1_555
O0 Si1 1.650322 1_555
O0 Rb2 3.342426 1_555
O0 Rb3 3.342426 1_555
O1 Si3 1.609898 1_555
O1 Rb3 2.913571 1_565
O1 Rb0 2.957940 1_555
O1 Rb2 3.017108 1_565
O2 Si3 1.675489 1_555
O2 Si2 1.675489 1_555
O2 Rb0 3.311826 1_555
O2 Rb3 3.311826 1_555
O2 Rb0 3.339295 1_545
O2 Rb3 3.339295 1_455
O3 Si2 1.609898 1_555
O3 Rb0 2.913571 1_655
O3 Rb3 2.957940 1_555
O3 Rb1 3.017108 1_655
O4 Si0 1.609898 1_555
O4 Rb1 2.913571 1_545
O4 Rb2 2.957940 1_556
O4 Rb0 3.017108 1_545
O5 Si0 1.610286 1_555
O5 Rb2 2.928745 1_456
O5 Rb1 2.962822 1_545
O5 Rb1 3.009707 1_555
O6 Si3 1.610286 1_555
O6 Rb0 2.928745 1_655
O6 Rb3 2.962816 1_565
O6 Rb3 3.009713 1_555
O7 Si0 1.650321 1_555
O7 Si2 1.650322 1_555
O7 Rb0 3.342426 1_555
O7 Rb1 3.342426 1_555
O8 Si1 1.609898 1_555
O8 Rb2 2.913571 1_455
O8 Rb1 2.957940 1_554
O8 Rb3 3.017108 1_455
O9 Si1 1.610286 1_555
O9 Rb1 2.928745 1_544
O9 Rb2 2.962817 1_455
O9 Rb2 3.009713 1_555
O10 Si2 1.610286 1_555
O10 Rb3 2.928745 1_565
O10 Rb0 2.962822 1_655
O10 Rb0 3.009708 1_555
O11 Si0 1.675489 1_554
O11 Si1 1.675489 1_555
O11 Rb2 3.311826 1_555
O11 Rb1 3.311826 1_554
O11 Rb2 3.339295 1_565
O11 Rb1 3.339295 1_654
