# generated using pymatgen
data_Ti8Al14SiRh7
_symmetry_space_group_name_H-M   'P 1'
_cell_length_a   8.57669107
_cell_length_b   8.57669124
_cell_length_c   8.57669073
_cell_angle_alpha   120.07539655
_cell_angle_beta   119.88676412
_cell_angle_gamma   90.03285220
_symmetry_Int_Tables_number   1
_chemical_formula_structural   Ti8Al14SiRh7
_chemical_formula_sum   'Ti8 Al14 Si1 Rh7'
_cell_volume   446.23837892
_cell_formula_units_Z   1
loop_
 _symmetry_equiv_pos_site_id
 _symmetry_equiv_pos_as_xyz
  1  'x, y, z'
loop_
 _atom_site_type_symbol
 _atom_site_label
 _atom_site_symmetry_multiplicity
 _atom_site_fract_x
 _atom_site_fract_y
 _atom_site_fract_z
 _atom_site_occupancy
  Ti  Ti0  1  0.79780970  0.29627940  0.08723459  1
  Ti  Ti1  1  0.20904581  0.29627940  0.49846970  1
  Ti  Ti2  1  0.20224527  0.70224527  0.50000000  1
  Ti  Ti3  1  0.20904581  0.71057611  0.91276541  1
  Ti  Ti4  1  0.79780970  0.71057611  0.50153030  1
  Ti  Ti5  1  0.79020751  0.29020751  0.50000000  1
  Ti  Ti6  1  0.37983444  0.12270549  0.74287105  1
  Ti  Ti7  1  0.37983444  0.63696338  0.25712895  1
  Al  Al0  1  0.15785540  0.33924261  0.18138622  1
  Al  Al1  1  0.15785540  0.97646918  0.81861378  1
  Al  Al2  1  0.15303627  0.34249846  0.81053781  1
  Al  Al3  1  0.53196065  0.34249846  0.18946219  1
  Al  Al4  1  0.84132238  0.65696939  0.81564801  1
  Al  Al5  1  0.84132238  0.02567437  0.18435199  1
  Al  Al6  1  0.83938541  0.65878673  0.18059868  1
  Al  Al7  1  0.47818705  0.65878673  0.81940132  1
  Al  Al8  1  0.38005615  0.12021927  0.25983688  1
  Al  Al9  1  0.86038339  0.12021927  0.74016312  1
  Al  Al10  1  0.62097992  0.87958439  0.25860448  1
  Al  Al11  1  0.62097992  0.36237544  0.74139552  1
  Al  Al12  1  0.62204010  0.87899953  0.74304057  1
  Al  Al13  1  0.13595796  0.87899953  0.25695943  1
  Si  Si0  1  0.99666269  0.49666269  0.50000000  1
  Rh  Rh0  1  0.00217760  0.99998549  0.50180699  1
  Rh  Rh1  1  0.49817850  0.99998549  0.99780789  1
  Rh  Rh2  1  0.49740666  0.49740666  0.00000000  1
  Rh  Rh3  1  0.49817850  0.50037061  0.49819301  1
  Rh  Rh4  1  0.00217760  0.50037061  0.00219211  1
  Rh  Rh5  1  0.99996411  0.99996411  1.00000000  1
  Rh  Rh6  1  0.49809630  0.99809630  0.50000000  1
loop_
_geom_bond_atom_site_label_1
_geom_bond_atom_site_label_2
_geom_bond_distance
_geom_bond_site_symmetry_2
Al0 Rh5 2.465813 1_444
Al0 Rh4 2.477982 1_555
Al0 Rh3 2.477989 1_555
Al1 Rh5 2.465806 1_455
Al1 Rh0 2.477990 1_555
Al1 Rh1 2.477990 1_555
Al2 Rh0 2.469856 1_545
Al2 Rh4 2.469856 1_556
Al2 Rh2 2.485531 1_556
Al3 Rh3 2.469856 1_555
Al3 Rh1 2.469856 1_544
Al3 Rh2 2.485531 1_555
Al4 Rh5 2.488930 1_555
Al4 Rh4 2.494630 1_656
Al4 Rh3 2.494638 1_555
Al5 Rh5 2.488922 1_544
Al5 Rh0 2.494638 1_645
Al5 Rh1 2.494638 1_544
Al6 Rh0 2.486831 1_655
Al6 Rh4 2.486831 1_655
Al6 Rh2 2.497346 1_555
Al7 Rh1 2.486829 1_555
Al7 Rh3 2.486836 1_555
Al7 Rh2 2.497344 1_556
Al8 Rh6 2.539726 1_545
Al8 Rh1 2.662278 1_544
Al8 Rh3 2.662279 1_555
Al8 Rh5 2.666406 1_444
Al9 Rh6 2.539733 1_545
Al9 Rh0 2.662271 1_645
Al9 Rh4 2.662278 1_656
Al9 Rh5 2.666405 1_545
Al10 Rh6 2.548915 1_555
Al10 Rh1 2.673448 1_554
Al10 Rh0 2.673448 1_655
Al10 Rh2 2.674595 1_555
Al11 Rh6 2.548915 1_545
Al11 Rh4 2.673448 1_656
Al11 Rh3 2.673448 1_555
Al11 Rh2 2.674595 1_556
Al12 Rh6 2.538800 1_555
Al12 Rh1 2.649867 1_555
Al12 Rh3 2.649867 1_555
Al12 Rh5 2.650494 1_555
Al13 Rh6 2.538807 1_555
Al13 Rh0 2.649860 1_555
Al13 Rh4 2.649867 1_555
Al13 Rh5 2.650494 1_454
Si0 Ti2 2.492852 1_655
Si0 Ti5 2.503433 1_555
Si0 Ti0 2.505323 1_555
Si0 Ti3 2.505324 1_655
Si0 Ti1 2.505330 1_655
Si0 Ti4 2.505330 1_555
Rh0 Ti6 2.648589 1_565
Rh1 Ti6 2.648589 1_565
Rh2 Ti7 2.623896 1_555
Rh2 Ti6 2.623897 1_554
Rh3 Ti7 2.648589 1_555
Rh4 Ti7 2.648589 1_555
Rh6 Ti6 2.526962 1_565
Rh6 Ti7 2.526962 1_555
