# generated using pymatgen
data_V3Sb4AsO20
_symmetry_space_group_name_H-M   'P 1'
_cell_length_a   4.99970103
_cell_length_b   8.95743765
_cell_length_c   9.39791170
_cell_angle_alpha   90.91180620
_cell_angle_beta   89.86510101
_cell_angle_gamma   90.12982571
_symmetry_Int_Tables_number   1
_chemical_formula_structural   V3Sb4AsO20
_chemical_formula_sum   'V3 Sb4 As1 O20'
_cell_volume   420.82536741
_cell_formula_units_Z   1
loop_
 _symmetry_equiv_pos_site_id
 _symmetry_equiv_pos_as_xyz
  1  'x, y, z'
loop_
 _atom_site_type_symbol
 _atom_site_label
 _atom_site_symmetry_multiplicity
 _atom_site_fract_x
 _atom_site_fract_y
 _atom_site_fract_z
 _atom_site_occupancy
  V  V0  1  0.89627447  0.02790558  0.71407076  1
  V  V1  1  0.38680860  0.46999322  0.28441326  1
  V  V2  1  0.10780986  0.52851524  0.78561958  1
  Sb  Sb0  1  0.88015883  0.65759501  0.10159538  1
  Sb  Sb1  1  0.38271428  0.84920559  0.90424870  1
  Sb  Sb2  1  0.11941982  0.14957857  0.39723483  1
  Sb  Sb3  1  0.62001968  0.34410121  0.59695320  1
  As  As0  1  0.60693448  0.97100894  0.21447433  1
  O  O0  1  0.04386884  0.51165933  0.96476422  1
  O  O1  1  0.55066834  0.99825872  0.03806571  1
  O  O2  1  0.95983989  0.00684149  0.53396355  1
  O  O3  1  0.45703155  0.48814185  0.46294022  1
  O  O4  1  0.22183382  0.70734289  0.76085266  1
  O  O5  1  0.71845049  0.79587825  0.24864249  1
  O  O6  1  0.78026634  0.20631489  0.73996556  1
  O  O7  1  0.27732210  0.28936293  0.25532962  1
  O  O8  1  0.92024098  0.31994041  0.46797011  1
  O  O9  1  0.41932739  0.17428563  0.52637841  1
  O  O10  1  0.08884552  0.82550162  0.03702078  1
  O  O11  1  0.58747633  0.68184002  0.96986443  1
  O  O12  1  0.15892632  0.60461527  0.24139521  1
  O  O13  1  0.66886203  0.89571696  0.76392190  1
  O  O14  1  0.82496925  0.10819205  0.25818234  1
  O  O15  1  0.33153296  0.39288620  0.73572997  1
  O  O16  1  0.67314602  0.49185407  0.18598388  1
  O  O17  1  0.18307676  0.01261545  0.81408168  1
  O  O18  1  0.31611953  0.97979780  0.30782379  1
  O  O19  1  0.81805352  0.51104980  0.68851642  1
loop_
_geom_bond_atom_site_label_1
_geom_bond_atom_site_label_2
_geom_bond_distance
_geom_bond_site_symmetry_2
As0 O14 1.687308 1_565
As0 O18 1.697713 1_555
As0 O5 1.701675 1_555
As0 O1 1.703715 1_555
O0 V2 1.721857 1_555
O0 Sb0 1.994679 1_456
O1 Sb1 2.003927 1_554
O2 V0 1.728924 1_555
O2 Sb2 1.991294 1_655
O3 V1 1.720022 1_555
O3 Sb3 1.994057 1_555
O4 V2 1.718185 1_555
O4 Sb1 2.005939 1_555
O5 Sb0 2.010595 1_555
O6 V0 1.714841 1_555
O6 Sb3 2.008459 1_555
O7 V1 1.724773 1_555
O7 Sb2 2.003313 1_555
O8 Sb2 1.932298 1_655
O8 Sb3 1.937474 1_555
O9 Sb3 1.929926 1_555
O9 Sb2 1.941355 1_555
O10 Sb0 1.933371 1_455
O10 Sb1 1.938849 1_554
O11 Sb1 1.927478 1_555
O11 Sb0 1.933816 1_556
O12 V1 1.714519 1_555
O12 Sb0 1.981253 1_455
O13 V0 1.709771 1_565
O13 Sb1 1.991337 1_555
O14 Sb2 2.000900 1_655
O15 V2 1.712452 1_555
O15 Sb3 1.986996 1_555
O16 V1 1.715158 1_555
O16 Sb0 1.982655 1_555
O17 V0 1.723263 1_455
O17 Sb1 1.976591 1_545
O18 Sb2 1.987025 1_565
O19 V2 1.719484 1_655
O19 Sb3 1.978243 1_555
