# generated using pymatgen
data_LiGa2Co3O8
_symmetry_space_group_name_H-M   'P 1'
_cell_length_a   5.71735045
_cell_length_b   5.71735009
_cell_length_c   5.71735056
_cell_angle_alpha   59.65327263
_cell_angle_beta   59.65327464
_cell_angle_gamma   59.65326768
_symmetry_Int_Tables_number   1
_chemical_formula_structural   LiGa2Co3O8
_chemical_formula_sum   'Li1 Ga2 Co3 O8'
_cell_volume   131.10958215
_cell_formula_units_Z   1
loop_
 _symmetry_equiv_pos_site_id
 _symmetry_equiv_pos_as_xyz
  1  'x, y, z'
loop_
 _atom_site_type_symbol
 _atom_site_label
 _atom_site_symmetry_multiplicity
 _atom_site_fract_x
 _atom_site_fract_y
 _atom_site_fract_z
 _atom_site_occupancy
  Li  Li0  1  0.87796841  0.87796841  0.87796841  1
  Ga  Ga0  1  0.50226689  0.50226689  0.50226689  1
  Ga  Ga1  1  0.12332375  0.12332375  0.12332375  1
  Co  Co0  1  0.50221909  0.50221909  0.99127748  1
  Co  Co1  1  0.99127748  0.50221909  0.50221909  1
  Co  Co2  1  0.50221909  0.99127748  0.50221909  1
  O  O0  1  0.28590417  0.74286588  0.74286588  1
  O  O1  1  0.73528915  0.73528915  0.73528915  1
  O  O2  1  0.74286588  0.28590417  0.74286588  1
  O  O3  1  0.74286588  0.74286588  0.28590417  1
  O  O4  1  0.25676962  0.25676962  0.72147687  1
  O  O5  1  0.25676962  0.72147687  0.25676962  1
  O  O6  1  0.72147687  0.25676962  0.25676962  1
  O  O7  1  0.25878208  0.25878208  0.25878208  1
loop_
_geom_bond_atom_site_label_1
_geom_bond_atom_site_label_2
_geom_bond_distance
_geom_bond_site_symmetry_2
Li0 O2 1.896067 1_565
Li0 O0 1.896067 1_655
Li0 O3 1.896067 1_556
Li0 O1 2.003385 1_555
Ga0 O0 1.946247 1_555
Ga0 O2 1.946247 1_555
Ga0 O3 1.946248 1_555
Ga0 O6 1.986590 1_555
Ga0 O5 1.986590 1_555
Ga0 O4 1.986590 1_555
Ga1 O5 1.867735 1_545
Ga1 O6 1.867736 1_455
Ga1 O4 1.867736 1_554
Ga1 O7 1.901994 1_555
Co0 O0 1.876333 1_555
Co0 O2 1.876333 1_555
Co0 O1 1.883157 1_555
Co0 O6 1.958968 1_556
Co0 O5 1.958968 1_556
Co0 O7 1.966966 1_556
Co1 O3 1.876333 1_555
Co1 O2 1.876333 1_555
Co1 O1 1.883157 1_555
Co1 O4 1.958968 1_655
Co1 O5 1.958969 1_655
Co1 O7 1.966966 1_655
Co2 O3 1.876333 1_555
Co2 O0 1.876333 1_555
Co2 O1 1.883157 1_555
Co2 O4 1.958968 1_565
Co2 O6 1.958969 1_565
Co2 O7 1.966966 1_565
