# generated using pymatgen
data_Ba2Cd(BrO)2
_symmetry_space_group_name_H-M   'P 1'
_cell_length_a   6.62780396
_cell_length_b   6.62780427
_cell_length_c   8.10691984
_cell_angle_alpha   119.76811852
_cell_angle_beta   119.76812157
_cell_angle_gamma   37.62678231
_symmetry_Int_Tables_number   1
_chemical_formula_structural   Ba2Cd(BrO)2
_chemical_formula_sum   'Ba2 Cd1 Br2 O2'
_cell_volume   185.10856378
_cell_formula_units_Z   1
loop_
 _symmetry_equiv_pos_site_id
 _symmetry_equiv_pos_as_xyz
  1  'x, y, z'
loop_
 _atom_site_type_symbol
 _atom_site_label
 _atom_site_symmetry_multiplicity
 _atom_site_fract_x
 _atom_site_fract_y
 _atom_site_fract_z
 _atom_site_occupancy
  Ba  Ba0  1  0.80431917  0.80431917  0.24139764  1
  Ba  Ba1  1  0.19568083  0.19568083  0.75860336  1
  Cd  Cd0  1  0.00000000  0.00000000  0.00000000  1
  Br  Br0  1  0.56618172  0.56618172  0.34088289  1
  Br  Br1  1  0.43381828  0.43381828  0.65911811  1
  O  O0  1  0.18108741  0.18108741  0.06780779  1
  O  O1  1  0.81891259  0.81891259  0.93219121  1
loop_
_geom_bond_atom_site_label_1
_geom_bond_atom_site_label_2
_geom_bond_distance
_geom_bond_site_symmetry_2
Ba0 O0 2.580118 1_565
Ba0 O0 2.580119 1_655
Ba0 O1 2.607420 1_554
Ba0 Br0 3.479469 1_555
Ba0 Br1 3.592242 1_655
Ba0 Br1 3.592242 1_565
Ba0 Br0 3.637963 1_655
Ba0 Br0 3.637963 1_565
Ba1 O1 2.580115 1_545
Ba1 O1 2.580115 1_455
Ba1 O0 2.607404 1_556
Ba1 Br1 3.479469 1_555
Ba1 Br0 3.592242 1_455
Ba1 Br0 3.592242 1_545
Ba1 Br1 3.637963 1_455
Ba1 Br1 3.637963 1_545
Cd0 O1 2.038305 1_444
Cd0 O0 2.038307 1_555
Br0 Cd0 3.238457 1_565
Br0 Cd0 3.238458 1_655
Br1 Cd0 3.238452 1_656
Br1 Cd0 3.238452 1_566
