# generated using pymatgen
data_BrNF8
_symmetry_space_group_name_H-M   'P 1'
_cell_length_a   5.00650581
_cell_length_b   4.66571283
_cell_length_c   7.66884580
_cell_angle_alpha   84.08868140
_cell_angle_beta   85.66576964
_cell_angle_gamma   58.76285140
_symmetry_Int_Tables_number   1
_chemical_formula_structural   BrNF8
_chemical_formula_sum   'Br1 N1 F8'
_cell_volume   152.30006736
_cell_formula_units_Z   1
loop_
 _symmetry_equiv_pos_site_id
 _symmetry_equiv_pos_as_xyz
  1  'x, y, z'
loop_
 _atom_site_type_symbol
 _atom_site_label
 _atom_site_symmetry_multiplicity
 _atom_site_fract_x
 _atom_site_fract_y
 _atom_site_fract_z
 _atom_site_occupancy
  Br  Br0  1  0.83566038  0.46436753  0.78949833  1
  N  N0  1  0.34409413  0.19576857  0.21764296  1
  F  F0  1  0.08885336  0.15091215  0.64415293  1
  F  F1  1  0.10359032  0.14749826  0.28296467  1
  F  F2  1  0.77573038  0.78046775  0.61739921  1
  F  F3  1  0.84164436  0.13972961  0.94159662  1
  F  F4  1  0.19145244  0.45082345  0.08156100  1
  F  F5  1  0.35749999  0.38083254  0.34327284  1
  F  F6  1  0.52403045  0.77722554  0.91879935  1
  F  F7  1  0.53738418  0.45523259  0.69295509  1
loop_
_geom_bond_atom_site_label_1
_geom_bond_atom_site_label_2
_geom_bond_distance
_geom_bond_site_symmetry_2
Br0 F7 1.737701 1_555
Br0 F0 1.785377 1_655
Br0 F2 1.790810 1_555
Br0 F3 1.802763 1_555
Br0 F6 1.802890 1_555
F1 N0 1.385038 1_555
F4 N0 1.418010 1_555
F5 N0 1.385460 1_555
