# generated using pymatgen
data_Rb2Sb(TeO4)3
_symmetry_space_group_name_H-M   'P 1'
_cell_length_a   7.25895695
_cell_length_b   7.25895713
_cell_length_c   7.25746594
_cell_angle_alpha   60.20822108
_cell_angle_beta   60.20822357
_cell_angle_gamma   60.21275028
_symmetry_Int_Tables_number   1
_chemical_formula_structural   Rb2Sb(TeO4)3
_chemical_formula_sum   'Rb2 Sb1 Te3 O12'
_cell_volume   271.69144370
_cell_formula_units_Z   1
loop_
 _symmetry_equiv_pos_site_id
 _symmetry_equiv_pos_as_xyz
  1  'x, y, z'
loop_
 _atom_site_type_symbol
 _atom_site_label
 _atom_site_symmetry_multiplicity
 _atom_site_fract_x
 _atom_site_fract_y
 _atom_site_fract_z
 _atom_site_occupancy
  Rb  Rb0  1  0.86557931  0.88162810  0.37299922  1
  Rb  Rb1  1  0.11837190  0.13442069  0.62700078  1
  Sb  Sb0  1  0.49627420  0.50372580  0.00000000  1
  Te  Te0  1  0.99644836  0.50359533  0.00004273  1
  Te  Te1  1  0.49640467  0.00355164  0.99995727  1
  Te  Te2  1  0.49638949  0.50361051  0.50000000  1
  O  O0  1  0.17746807  0.18453658  0.06979847  1
  O  O1  1  0.56806493  0.57429992  0.67472570  1
  O  O2  1  0.17104814  0.57464855  0.07152212  1
  O  O3  1  0.56659736  0.18454068  0.68101084  1
  O  O4  1  0.56769769  0.17846580  0.07078398  1
  O  O5  1  0.17744537  0.57329597  0.68100490  1
  O  O6  1  0.81546342  0.82253193  0.93020153  1
  O  O7  1  0.42570008  0.43193507  0.32527430  1
  O  O8  1  0.82153420  0.43230231  0.92921602  1
  O  O9  1  0.42670403  0.82255463  0.31899510  1
  O  O10  1  0.42535145  0.82895186  0.92847788  1
  O  O11  1  0.81545932  0.43340264  0.31898916  1
loop_
_geom_bond_atom_site_label_1
_geom_bond_atom_site_label_2
_geom_bond_distance
_geom_bond_site_symmetry_2
O0 Te1 1.953574 1_554
O0 Te0 1.954265 1_455
O0 Rb0 3.160709 1_445
O1 Te2 1.925991 1_555
O1 Sb0 1.986914 1_556
O1 Rb0 3.109537 1_555
O2 Te0 1.926180 1_455
O2 Sb0 1.986992 1_555
O2 Rb0 3.127948 1_455
O3 Te1 1.953173 1_555
O3 Te2 1.954204 1_555
O3 Rb0 3.140696 1_545
O4 Te1 1.926108 1_554
O4 Sb0 1.987568 1_555
O4 Rb0 3.084867 1_545
O5 Te2 1.953516 1_555
O5 Te0 1.953645 1_456
O5 Rb0 3.186507 1_455
O6 Te0 1.953574 1_556
O6 Te1 1.954265 1_565
O6 Rb1 3.160709 1_665
O7 Te2 1.925991 1_555
O7 Sb0 1.986914 1_555
O7 Rb1 3.109537 1_555
O8 Te0 1.926108 1_556
O8 Sb0 1.987568 1_556
O8 Rb1 3.084868 1_655
O9 Te2 1.953516 1_555
O9 Te1 1.953645 1_564
O9 Rb1 3.186507 1_565
O10 Te1 1.926180 1_565
O10 Sb0 1.986992 1_556
O10 Rb1 3.127948 1_565
O11 Te0 1.953173 1_555
O11 Te2 1.954204 1_555
O11 Rb1 3.140696 1_655
