# generated using pymatgen
data_SrP2OsRu
_symmetry_space_group_name_H-M   'P 1'
_cell_length_a   6.35852472
_cell_length_b   6.35852468
_cell_length_c   6.35852488
_cell_angle_alpha   142.89027402
_cell_angle_beta   142.89027479
_cell_angle_gamma   53.49000706
_symmetry_Int_Tables_number   1
_chemical_formula_structural   SrP2OsRu
_chemical_formula_sum   'Sr1 P2 Os1 Ru1'
_cell_volume   92.98738746
_cell_formula_units_Z   1
loop_
 _symmetry_equiv_pos_site_id
 _symmetry_equiv_pos_as_xyz
  1  'x, y, z'
loop_
 _atom_site_type_symbol
 _atom_site_label
 _atom_site_symmetry_multiplicity
 _atom_site_fract_x
 _atom_site_fract_y
 _atom_site_fract_z
 _atom_site_occupancy
  Sr  Sr0  1  0.00000000  0.00000000  0.00000000  1
  P  P0  1  0.65032450  0.65032450  0.00000000  1
  P  P1  1  0.34967550  0.34967550  1.00000000  1
  Os  Os0  1  0.25000000  0.75000000  0.50000000  1
  Ru  Ru0  1  0.75000000  0.25000000  0.50000000  1
loop_
_geom_bond_atom_site_label_1
_geom_bond_atom_site_label_2
_geom_bond_distance
_geom_bond_site_symmetry_2
P0 Ru0 2.318481 1_565
P0 Ru0 2.318481 1_554
P0 Sr0 3.332028 1_554
P0 Sr0 3.332029 1_666
P0 Sr0 3.332029 1_655
P0 Sr0 3.332029 1_565
P1 Ru0 2.318481 1_455
P1 Ru0 2.318481 1_556
P1 Sr0 3.332028 1_667
P1 Sr0 3.332029 1_555
P1 Sr0 3.332029 1_566
P1 Sr0 3.332029 1_656
Os0 P0 2.318481 1_455
Os0 P1 2.318481 1_565
Os0 P0 2.318481 1_556
Os0 P1 2.318481 1_554
Os0 Sr0 3.486360 1_666
Os0 Sr0 3.486360 1_555
Os0 Sr0 3.486360 1_565
Os0 Sr0 3.486360 1_566
Ru0 Sr0 3.486360 1_555
Ru0 Sr0 3.486360 1_666
Ru0 Sr0 3.486360 1_656
Ru0 Sr0 3.486360 1_655
