# generated using pymatgen
data_Zr4InRh10Pb
_symmetry_space_group_name_H-M   'P 1'
_cell_length_a   5.62550483
_cell_length_b   5.62550371
_cell_length_c   8.23349082
_cell_angle_alpha   90.00000000
_cell_angle_beta   90.00000000
_cell_angle_gamma   96.12898750
_symmetry_Int_Tables_number   1
_chemical_formula_structural   Zr4InRh10Pb
_chemical_formula_sum   'Zr4 In1 Rh10 Pb1'
_cell_volume   259.07016281
_cell_formula_units_Z   1
loop_
 _symmetry_equiv_pos_site_id
 _symmetry_equiv_pos_as_xyz
  1  'x, y, z'
loop_
 _atom_site_type_symbol
 _atom_site_label
 _atom_site_symmetry_multiplicity
 _atom_site_fract_x
 _atom_site_fract_y
 _atom_site_fract_z
 _atom_site_occupancy
  Zr  Zr0  1  0.78091184  0.21909177  0.49738913  1
  Zr  Zr1  1  0.21909177  0.78091184  0.00261087  1
  Zr  Zr2  1  0.21909177  0.78091184  0.49738913  1
  Zr  Zr3  1  0.78091184  0.21909177  0.00261087  1
  In  In0  1  0.49950981  0.49950981  0.25000000  1
  Rh  Rh0  1  0.73753133  0.73753133  0.00162771  1
  Rh  Rh1  1  0.73753133  0.73753133  0.49837229  1
  Rh  Rh2  1  0.26246484  0.26246484  0.00120280  1
  Rh  Rh3  1  0.26246484  0.26246484  0.49879720  1
  Rh  Rh4  1  0.49997487  0.00022819  0.75000000  1
  Rh  Rh5  1  0.50002954  0.99977282  0.25000000  1
  Rh  Rh6  1  0.00012948  0.00012948  0.25000000  1
  Rh  Rh7  1  0.99989347  0.99989347  0.75000000  1
  Rh  Rh8  1  0.00022819  0.49997487  0.75000000  1
  Rh  Rh9  1  0.99977282  0.50002954  0.25000000  1
  Pb  Pb0  1  0.50046126  0.50046126  0.75000000  1
loop_
_geom_bond_atom_site_label_1
_geom_bond_atom_site_label_2
_geom_bond_distance
_geom_bond_site_symmetry_2
In0 Rh3 2.715317 1_555
In0 Rh2 2.715317 1_555
In0 Rh1 2.717509 1_555
In0 Rh0 2.717509 1_555
In0 Rh5 2.811586 1_545
In0 Rh9 2.811586 1_455
In0 Rh5 2.813921 1_555
In0 Rh9 2.813921 1_555
In0 Zr2 3.110718 1_555
In0 Zr1 3.110718 1_555
In0 Zr0 3.110718 1_555
In0 Zr3 3.110718 1_555
Rh0 Zr3 2.693927 1_565
Rh0 Zr1 2.693927 1_655
Rh0 Rh4 2.946821 1_564
Rh0 Rh8 2.946821 1_654
Rh0 Zr3 2.952537 1_555
Rh0 Zr1 2.952538 1_555
Rh1 Zr0 2.693927 1_565
Rh1 Zr2 2.693927 1_655
Rh1 Rh4 2.946821 1_565
Rh1 Rh8 2.946821 1_655
Rh1 Zr0 2.952537 1_555
Rh1 Zr2 2.952538 1_555
Rh2 Zr1 2.693899 1_545
Rh2 Zr3 2.693899 1_455
Rh2 Rh6 2.843758 1_555
Rh2 Rh7 2.859283 1_444
Rh2 Rh5 2.930492 1_545
Rh2 Rh9 2.930492 1_455
Rh2 Rh4 2.942806 1_554
Rh2 Rh8 2.942806 1_554
Rh2 Zr1 2.952583 1_555
Rh2 Zr3 2.952583 1_555
Rh3 Zr2 2.693899 1_545
Rh3 Zr0 2.693899 1_455
Rh3 Rh6 2.843758 1_555
Rh3 Rh7 2.859283 1_445
Rh3 Rh5 2.930492 1_545
Rh3 Rh9 2.930492 1_455
Rh3 Rh4 2.942806 1_555
Rh3 Rh8 2.942806 1_555
Rh3 Zr2 2.952583 1_555
Rh3 Zr0 2.952583 1_555
Rh4 Rh7 2.812496 1_545
Rh4 Rh7 2.813010 1_445
Rh4 Zr3 2.814952 1_556
Rh4 Zr0 2.814952 1_555
Rh4 Zr1 2.815758 1_546
Rh4 Zr2 2.815758 1_545
Rh5 Zr2 2.783333 1_555
Rh5 Zr1 2.783333 1_555
Rh5 Zr0 2.784156 1_565
Rh5 Zr3 2.784156 1_565
Rh6 Zr2 2.740676 1_545
Rh6 Zr1 2.740676 1_545
Rh6 Zr0 2.740676 1_455
Rh6 Zr3 2.740676 1_455
Rh7 Zr3 2.772777 1_566
Rh7 Zr0 2.772777 1_565
Rh7 Zr1 2.772777 1_656
Rh7 Zr2 2.772777 1_655
Rh7 Rh8 2.812496 1_655
Rh7 Rh8 2.813009 1_665
Rh8 Zr1 2.814952 1_556
Rh8 Zr2 2.814952 1_555
Rh8 Zr3 2.815758 1_456
Rh8 Zr0 2.815758 1_455
Rh9 Zr0 2.783333 1_555
Rh9 Zr3 2.783333 1_555
Rh9 Zr2 2.784155 1_655
Rh9 Zr1 2.784155 1_655
Pb0 Rh0 2.733065 1_556
Pb0 Rh1 2.733065 1_555
Pb0 Rh2 2.734966 1_556
Pb0 Rh3 2.734966 1_555
Pb0 Rh4 2.811734 1_565
Pb0 Rh8 2.811735 1_655
Pb0 Rh4 2.813772 1_555
Pb0 Rh8 2.813773 1_555
Pb0 Zr3 3.139038 1_556
Pb0 Zr0 3.139038 1_555
Pb0 Zr1 3.139038 1_556
Pb0 Zr2 3.139038 1_555
