# generated using pymatgen
data_Rb20Si4(AsP3)3
_symmetry_space_group_name_H-M   'P 1'
_cell_length_a   5.62538711
_cell_length_b   13.90211064
_cell_length_c   15.23168720
_cell_angle_alpha   89.96148674
_cell_angle_beta   90.00000000
_cell_angle_gamma   90.00000000
_symmetry_Int_Tables_number   1
_chemical_formula_structural   Rb20Si4(AsP3)3
_chemical_formula_sum   'Rb20 Si4 As3 P9'
_cell_volume   1191.19008183
_cell_formula_units_Z   1
loop_
 _symmetry_equiv_pos_site_id
 _symmetry_equiv_pos_as_xyz
  1  'x, y, z'
loop_
 _atom_site_type_symbol
 _atom_site_label
 _atom_site_symmetry_multiplicity
 _atom_site_fract_x
 _atom_site_fract_y
 _atom_site_fract_z
 _atom_site_occupancy
  Rb  Rb0  1  0.75000000  0.44565965  0.14959722  1
  Rb  Rb1  1  0.25000000  0.55246599  0.84902948  1
  Rb  Rb2  1  0.75000000  0.94538045  0.34836797  1
  Rb  Rb3  1  0.25000000  0.05390934  0.65086850  1
  Rb  Rb4  1  0.25000000  0.27880283  0.78974635  1
  Rb  Rb5  1  0.75000000  0.71757799  0.21027933  1
  Rb  Rb6  1  0.25000000  0.78036493  0.71170380  1
  Rb  Rb7  1  0.75000000  0.21886237  0.28870582  1
  Rb  Rb8  1  0.25000000  0.85653211  0.45526186  1
  Rb  Rb9  1  0.75000000  0.14314598  0.54449440  1
  Rb  Rb10  1  0.25000000  0.35574281  0.04418941  1
  Rb  Rb11  1  0.75000000  0.64432165  0.95344769  1
  Rb  Rb12  1  0.25000000  0.62136522  0.31596594  1
  Rb  Rb13  1  0.75000000  0.37758176  0.68464565  1
  Rb  Rb14  1  0.25000000  0.12104592  0.18351400  1
  Rb  Rb15  1  0.75000000  0.88494613  0.81681666  1
  Rb  Rb16  1  0.25000000  0.56386152  0.55085249  1
  Rb  Rb17  1  0.75000000  0.43583367  0.44976424  1
  Rb  Rb18  1  0.25000000  0.06556930  0.94822508  1
  Rb  Rb19  1  0.75000000  0.93582944  0.05220475  1
  Si  Si0  1  0.75000000  0.23913036  0.92909840  1
  Si  Si1  1  0.25000000  0.75928256  0.06889124  1
  Si  Si2  1  0.75000000  0.74108462  0.56954228  1
  Si  Si3  1  0.25000000  0.25878344  0.43089330  1
  As  As0  1  0.25000000  0.86683401  0.18564814  1
  As  As1  1  0.75000000  0.63259932  0.68558287  1
  As  As2  1  0.25000000  0.36712037  0.31458966  1
  P  P0  1  0.25000000  0.30905557  0.56637281  1
  P  P1  1  0.75000000  0.69064852  0.43426815  1
  P  P2  1  0.25000000  0.81104006  0.93388674  1
  P  P3  1  0.75000000  0.18941349  0.06514949  1
  P  P4  1  0.25000000  0.10427612  0.40734426  1
  P  P5  1  0.75000000  0.89580353  0.59317537  1
  P  P6  1  0.25000000  0.60468738  0.09197006  1
  P  P7  1  0.75000000  0.39445689  0.90698037  1
  P  P8  1  0.75000000  0.13698372  0.81892521  1
loop_
_geom_bond_atom_site_label_1
_geom_bond_atom_site_label_2
_geom_bond_distance
_geom_bond_site_symmetry_2
Rb5 Si1 3.589375 1_655
Rb5 Si1 3.589375 1_555
Rb6 Si2 3.591632 1_455
Rb6 Si2 3.591632 1_555
Rb7 Si3 3.593239 1_555
Rb7 Si3 3.593239 1_655
As0 Si1 2.324198 1_555
As0 Rb5 3.515177 1_555
As0 Rb5 3.515177 1_455
As0 Rb14 3.534210 1_565
As0 Rb19 3.599998 1_455
As0 Rb19 3.599998 1_555
As0 Rb2 3.905152 1_555
As0 Rb2 3.905152 1_455
As1 Si2 2.322723 1_555
As1 Rb6 3.505795 1_655
As1 Rb6 3.505795 1_555
As1 Rb13 3.545321 1_555
As1 Rb16 3.610881 1_555
As1 Rb16 3.610881 1_655
As1 Rb1 3.917462 1_555
As1 Rb1 3.917462 1_655
As2 Si3 2.324436 1_555
As2 Rb7 3.509402 1_555
As2 Rb7 3.509402 1_455
As2 Rb12 3.534616 1_555
As2 Rb17 3.614641 1_455
As2 Rb17 3.614641 1_555
As2 Rb0 3.926252 1_455
As2 Rb0 3.926252 1_555
P0 Si3 2.179163 1_555
P0 Rb4 3.427971 1_555
P0 Rb13 3.473686 1_455
P0 Rb13 3.473686 1_555
P0 Rb16 3.550061 1_555
P0 Rb9 3.652840 1_555
P0 Rb9 3.652840 1_455
P0 Rb3 3.772529 1_555
P1 Si2 2.176935 1_555
P1 Rb5 3.431957 1_555
P1 Rb12 3.476823 1_555
P1 Rb12 3.476823 1_655
P1 Rb17 3.550160 1_555
P1 Rb8 3.651402 1_655
P1 Rb8 3.651402 1_555
P1 Rb2 3.774464 1_555
P2 Si1 2.178143 1_556
P2 Rb6 3.411268 1_555
P2 Rb15 3.484846 1_455
P2 Rb15 3.484846 1_555
P2 Rb18 3.545374 1_565
P2 Rb11 3.656637 1_555
P2 Rb11 3.656637 1_455
P2 Rb19 3.764700 1_556
P2 Rb19 3.764700 1_456
P2 Rb1 3.820851 1_555
P3 Si0 2.184071 1_554
P3 Rb7 3.429936 1_555
P3 Rb14 3.473143 1_655
P3 Rb14 3.473143 1_555
P3 Rb19 3.530995 1_545
P3 Rb10 3.655002 1_655
P3 Rb10 3.655002 1_555
P3 Rb18 3.748521 1_654
P3 Rb18 3.748521 1_554
P3 Rb0 3.788285 1_555
P4 Si3 2.177959 1_555
P4 Rb14 3.417118 1_555
P4 Rb8 3.520170 1_545
P4 Rb9 3.545251 1_455
P4 Rb9 3.545251 1_555
P4 Rb2 3.687884 1_445
P4 Rb2 3.687884 1_545
P4 Rb7 3.702766 1_555
P4 Rb7 3.702766 1_455
P4 Rb3 3.774333 1_555
P5 Si2 2.181072 1_555
P5 Rb15 3.409675 1_555
P5 Rb9 3.517134 1_565
P5 Rb8 3.552972 1_555
P5 Rb8 3.552972 1_655
P5 Rb3 3.676587 1_665
P5 Rb3 3.676587 1_565
P5 Rb6 3.707059 1_555
P5 Rb6 3.707059 1_655
P5 Rb2 3.791536 1_555
P6 Si1 2.177525 1_555
P6 Rb12 3.419860 1_555
P6 Rb10 3.537028 1_555
P6 Rb11 3.558804 1_454
P6 Rb11 3.558804 1_554
P6 Rb0 3.683317 1_455
P6 Rb0 3.683317 1_555
P6 Rb5 3.691274 1_455
P6 Rb5 3.691274 1_555
P6 Rb1 3.771418 1_554
P7 Si0 2.185265 1_555
P7 Rb13 3.394806 1_555
P7 Rb10 3.545023 1_556
P7 Rb10 3.545023 1_656
P7 Rb11 3.545487 1_555
P7 Rb1 3.676016 1_655
P7 Rb1 3.676016 1_555
P7 Rb4 3.699846 1_655
P7 Rb4 3.699846 1_555
P7 Rb0 3.763866 1_556
P8 Si0 2.199058 1_555
P8 Rb4 3.463343 1_555
P8 Rb4 3.463343 1_655
P8 Rb15 3.504023 1_545
P8 Rb18 3.573940 1_555
P8 Rb18 3.573940 1_655
