# generated using pymatgen
data_Zr3Ta2ZnSn3
_symmetry_space_group_name_H-M   'P 1'
_cell_length_a   8.51069909
_cell_length_b   8.51062983
_cell_length_c   5.71951112
_cell_angle_alpha   90.00000000
_cell_angle_beta   90.00000000
_cell_angle_gamma   120.01289373
_symmetry_Int_Tables_number   1
_chemical_formula_structural   Zr3Ta2ZnSn3
_chemical_formula_sum   'Zr6 Ta4 Zn2 Sn6'
_cell_volume   358.72367196
_cell_formula_units_Z   2
loop_
 _symmetry_equiv_pos_site_id
 _symmetry_equiv_pos_as_xyz
  1  'x, y, z'
loop_
 _atom_site_type_symbol
 _atom_site_label
 _atom_site_symmetry_multiplicity
 _atom_site_fract_x
 _atom_site_fract_y
 _atom_site_fract_z
 _atom_site_occupancy
  Zr  Zr0  1  0.72989447  0.72989909  0.75000000  1
  Zr  Zr1  1  0.27011789  0.99999865  0.75000000  1
  Zr  Zr2  1  0.99998582  0.27005650  0.75000000  1
  Zr  Zr3  1  0.27010553  0.27010091  0.25000000  1
  Zr  Zr4  1  0.72988211  0.00000135  0.25000000  1
  Zr  Zr5  1  0.00001418  0.72994350  0.25000000  1
  Ta  Ta0  1  0.66662326  0.33329541  0.00000014  1
  Ta  Ta1  1  0.33337674  0.66670459  0.99999986  1
  Ta  Ta2  1  0.33337674  0.66670459  0.50000014  1
  Ta  Ta3  1  0.66662326  0.33329541  0.49999986  1
  Zn  Zn0  1  0.00000000  0.00000000  0.00000000  1
  Zn  Zn1  1  0.00000000  0.00000000  0.50000000  1
  Sn  Sn0  1  0.38752770  0.38748564  0.75000000  1
  Sn  Sn1  1  0.61251024  0.99995018  0.75000000  1
  Sn  Sn2  1  0.99999305  0.61235025  0.75000000  1
  Sn  Sn3  1  0.61247230  0.61251436  0.25000000  1
  Sn  Sn4  1  0.38748976  0.00004982  0.25000000  1
  Sn  Sn5  1  0.00000695  0.38764975  0.25000000  1
loop_
_geom_bond_atom_site_label_1
_geom_bond_atom_site_label_2
_geom_bond_distance
_geom_bond_site_symmetry_2
Ta0 Ta3 2.859754 1_555
Ta0 Ta3 2.859757 1_554
Ta1 Ta2 2.859754 1_555
Ta1 Ta2 2.859757 1_556
Zn0 Zr3 2.706802 1_555
Zn0 Zr0 2.706802 1_444
Zn0 Zr2 2.706888 1_454
Zn0 Zr5 2.706888 1_545
Zn0 Zr4 2.707302 1_455
Zn0 Zr1 2.707302 1_544
Zn0 Zn1 2.859756 1_555
Zn0 Zn1 2.859756 1_554
Zn1 Zr3 2.706802 1_555
Zn1 Zr0 2.706802 1_445
Zn1 Zr2 2.706888 1_455
Zn1 Zr5 2.706888 1_545
Zn1 Zr4 2.707302 1_455
Zn1 Zr1 2.707302 1_545
Sn0 Zr0 2.913399 1_555
Sn0 Zr1 2.928678 1_545
Sn0 Zr2 2.929115 1_455
Sn0 Ta0 2.999199 1_556
Sn0 Ta3 2.999199 1_555
Sn0 Ta1 2.999912 1_555
Sn0 Ta2 2.999912 1_555
Sn0 Zr3 3.029220 1_555
Sn0 Zr3 3.029220 1_556
Sn1 Zr1 2.914205 1_555
Sn1 Zr2 2.928398 1_565
Sn1 Zr0 2.928686 1_555
Sn1 Ta1 2.998593 1_555
Sn1 Ta2 2.998593 1_555
Sn1 Ta0 2.999674 1_566
Sn1 Ta3 2.999674 1_565
Sn1 Zr4 3.029126 1_566
Sn1 Zr4 3.029126 1_565
Sn2 Zr2 2.913105 1_555
Sn2 Zr1 2.929496 1_655
Sn2 Zr0 2.930112 1_555
Sn2 Ta0 2.998968 1_556
Sn2 Ta3 2.998968 1_555
Sn2 Ta1 2.999323 1_655
Sn2 Ta2 2.999323 1_655
Sn2 Zr5 3.029787 1_655
Sn2 Zr5 3.029787 1_656
Sn3 Zr3 2.913399 1_555
Sn3 Zr4 2.928678 1_565
Sn3 Zr5 2.929115 1_655
Sn3 Ta2 2.999199 1_555
Sn3 Ta1 2.999199 1_554
Sn3 Ta3 2.999912 1_555
Sn3 Ta0 2.999912 1_555
Sn3 Zr0 3.029220 1_555
Sn3 Zr0 3.029220 1_554
Sn4 Zr4 2.914205 1_555
Sn4 Zr5 2.928398 1_545
Sn4 Zr3 2.928686 1_555
Sn4 Ta3 2.998593 1_555
Sn4 Ta0 2.998593 1_555
Sn4 Ta2 2.999674 1_545
Sn4 Ta1 2.999674 1_544
Sn4 Zr1 3.029126 1_545
Sn4 Zr1 3.029126 1_544
Sn5 Zr5 2.913105 1_555
Sn5 Zr4 2.929496 1_455
Sn5 Zr3 2.930112 1_555
Sn5 Ta2 2.998968 1_555
Sn5 Ta1 2.998968 1_554
Sn5 Ta3 2.999323 1_455
Sn5 Ta0 2.999323 1_455
Sn5 Zr2 3.029787 1_455
Sn5 Zr2 3.029787 1_454
