# generated using pymatgen
data_KLuSiS4
_symmetry_space_group_name_H-M   'P 1'
_cell_length_a   6.55861683
_cell_length_b   6.30091233
_cell_length_c   8.57685641
_cell_angle_alpha   72.41262587
_cell_angle_beta   90.00000000
_cell_angle_gamma   90.00000000
_symmetry_Int_Tables_number   1
_chemical_formula_structural   KLuSiS4
_chemical_formula_sum   'K2 Lu2 Si2 S8'
_cell_volume   337.87337063
_cell_formula_units_Z   2
loop_
 _symmetry_equiv_pos_site_id
 _symmetry_equiv_pos_as_xyz
  1  'x, y, z'
loop_
 _atom_site_type_symbol
 _atom_site_label
 _atom_site_symmetry_multiplicity
 _atom_site_fract_x
 _atom_site_fract_y
 _atom_site_fract_z
 _atom_site_occupancy
  K  K0  1  0.97838667  0.73113410  0.06503420  1
  K  K1  1  0.47838667  0.26886590  0.93496580  1
  Lu  Lu0  1  0.50198048  0.23053883  0.45107484  1
  Lu  Lu1  1  0.00198048  0.76946117  0.54892516  1
  Si  Si0  1  0.46201321  0.77805981  0.32898381  1
  Si  Si1  1  0.96201321  0.22194019  0.67101619  1
  S  S0  1  0.46379828  0.57818886  0.17330171  1
  S  S1  1  0.22964283  0.02342327  0.28337672  1
  S  S2  1  0.72799234  0.97896500  0.30479421  1
  S  S3  1  0.90318718  0.42878939  0.43067586  1
  S  S4  1  0.40318718  0.57121061  0.56932414  1
  S  S5  1  0.22799234  0.02103500  0.69520579  1
  S  S6  1  0.72964283  0.97657673  0.71662328  1
  S  S7  1  0.96379828  0.42181114  0.82669829  1
loop_
_geom_bond_atom_site_label_1
_geom_bond_atom_site_label_2
_geom_bond_distance
_geom_bond_site_symmetry_2
K0 S3 3.177561 1_555
K0 S7 3.223996 1_554
K0 S6 3.345172 1_554
K0 S2 3.362251 1_555
K0 S0 3.374269 1_655
K0 S1 3.420320 1_665
K0 S5 3.546339 1_664
K0 S0 3.555383 1_555
K1 S4 3.177561 1_555
K1 S0 3.223996 1_556
K1 S1 3.345172 1_556
K1 S5 3.362251 1_555
K1 S7 3.374269 1_555
K1 S6 3.420320 1_545
K1 S2 3.546339 1_546
K1 S7 3.555383 1_455
Lu0 S4 2.715092 1_555
Lu0 S0 2.717206 1_555
Lu0 S2 2.736040 1_545
Lu0 S5 2.772303 1_555
Lu0 S6 2.788363 1_545
Lu0 S1 2.845441 1_555
Lu0 S3 2.895340 1_555
Lu1 S3 2.715092 1_455
Lu1 S7 2.717206 1_455
Lu1 S5 2.736040 1_565
Lu1 S2 2.772303 1_455
Lu1 S1 2.788363 1_565
Lu1 S6 2.845441 1_455
Lu1 S4 2.895340 1_555
S0 Si0 2.094109 1_555
S1 Si0 2.121408 1_545
S2 Si0 2.128361 1_555
S3 Si1 2.114987 1_555
S4 Si0 2.114987 1_555
S5 Si1 2.128361 1_455
S6 Si1 2.121408 1_565
S7 Si1 2.094109 1_555
