# generated using pymatgen
data_V2ZnCo4Si
_symmetry_space_group_name_H-M   'P 1'
_cell_length_a   6.93696851
_cell_length_b   6.93696858
_cell_length_c   6.93696897
_cell_angle_alpha   33.51430864
_cell_angle_beta   33.51431003
_cell_angle_gamma   33.51431506
_symmetry_Int_Tables_number   1
_chemical_formula_structural   V2ZnCo4Si
_chemical_formula_sum   'V2 Zn1 Co4 Si1'
_cell_volume   90.64171851
_cell_formula_units_Z   1
loop_
 _symmetry_equiv_pos_site_id
 _symmetry_equiv_pos_as_xyz
  1  'x, y, z'
loop_
 _atom_site_type_symbol
 _atom_site_label
 _atom_site_symmetry_multiplicity
 _atom_site_fract_x
 _atom_site_fract_y
 _atom_site_fract_z
 _atom_site_occupancy
  V  V0  1  0.25153303  0.25153303  0.25153303  1
  V  V1  1  0.74846697  0.74846697  0.74846697  1
  Zn  Zn0  1  0.00000000  0.00000000  0.00000000  1
  Co  Co0  1  0.87161783  0.87161783  0.87161783  1
  Co  Co1  1  0.37890444  0.37890444  0.37890444  1
  Co  Co2  1  0.12838217  0.12838217  0.12838217  1
  Co  Co3  1  0.62109556  0.62109556  0.62109556  1
  Si  Si0  1  0.50000000  0.50000000  0.50000000  1
loop_
_geom_bond_atom_site_label_1
_geom_bond_atom_site_label_2
_geom_bond_distance
_geom_bond_site_symmetry_2
Co0 V1 2.416683 1_555
Co0 Si0 2.428573 1_556
Co0 Si0 2.428573 1_565
Co0 Si0 2.428573 1_655
Co0 V0 2.483774 1_665
Co0 V0 2.483775 1_656
Co0 V0 2.483775 1_566
Co0 Zn0 2.519341 1_666
Co1 Si0 2.376350 1_555
Co1 V1 2.416400 1_554
Co1 V1 2.416400 1_545
Co1 V1 2.416401 1_455
Co1 Zn0 2.476543 1_556
Co1 Zn0 2.476543 1_565
Co1 Zn0 2.476544 1_655
Co1 V0 2.499506 1_555
Co2 V0 2.416683 1_555
Co2 Si0 2.428573 1_554
Co2 Si0 2.428573 1_545
Co2 Si0 2.428573 1_455
Co2 V1 2.483774 1_445
Co2 V1 2.483775 1_454
Co2 V1 2.483775 1_544
Co2 Zn0 2.519341 1_555
Co3 Si0 2.376350 1_555
Co3 V0 2.416400 1_556
Co3 V0 2.416400 1_565
Co3 V0 2.416401 1_655
Co3 Zn0 2.476543 1_665
Co3 Zn0 2.476543 1_656
Co3 Zn0 2.476544 1_566
Co3 V1 2.499506 1_555
Si0 V0 2.847294 1_565
Si0 V1 2.847294 1_545
Si0 V0 2.847294 1_655
Si0 V1 2.847294 1_455
Si0 V0 2.847294 1_556
Si0 V1 2.847294 1_554
