# generated using pymatgen
data_Nb12Al9Ir3C4
_symmetry_space_group_name_H-M   'P 1'
_cell_length_a   8.35023939
_cell_length_b   8.32855727
_cell_length_c   8.35023926
_cell_angle_alpha   59.91384508
_cell_angle_beta   60.00000050
_cell_angle_gamma   59.91384946
_symmetry_Int_Tables_number   1
_chemical_formula_structural   Nb12Al9Ir3C4
_chemical_formula_sum   'Nb12 Al9 Ir3 C4'
_cell_volume   410.09630827
_cell_formula_units_Z   1
loop_
 _symmetry_equiv_pos_site_id
 _symmetry_equiv_pos_as_xyz
  1  'x, y, z'
loop_
 _atom_site_type_symbol
 _atom_site_label
 _atom_site_symmetry_multiplicity
 _atom_site_fract_x
 _atom_site_fract_y
 _atom_site_fract_z
 _atom_site_occupancy
  Nb  Nb0  1  0.81405527  0.81603429  0.18495522  1
  Nb  Nb1  1  0.19326198  0.18671529  0.81001186  1
  Nb  Nb2  1  0.81001186  0.18671529  0.81001186  1
  Nb  Nb3  1  0.18495522  0.81603429  0.18495522  1
  Nb  Nb4  1  0.18495522  0.81603429  0.81405527  1
  Nb  Nb5  1  0.81001186  0.18671529  0.19326198  1
  Nb  Nb6  1  0.43594473  0.43396571  0.06504478  1
  Nb  Nb7  1  0.05673802  0.06328471  0.43998814  1
  Nb  Nb8  1  0.43998814  0.06328471  0.43998814  1
  Nb  Nb9  1  0.06504478  0.43396571  0.06504478  1
  Nb  Nb10  1  0.06504478  0.43396571  0.43594473  1
  Nb  Nb11  1  0.43998814  0.06328471  0.05673802  1
  Al  Al0  1  0.62500000  0.12500000  0.62500000  1
  Al  Al1  1  0.75180373  0.42535794  0.41142017  1
  Al  Al2  1  0.41551619  0.75345344  0.41551619  1
  Al  Al3  1  0.41142017  0.42535794  0.75180373  1
  Al  Al4  1  0.41142017  0.42535794  0.41142017  1
  Al  Al5  1  0.49819627  0.82464206  0.83857983  1
  Al  Al6  1  0.83448381  0.49654656  0.83448381  1
  Al  Al7  1  0.83857983  0.82464206  0.49819627  1
  Al  Al8  1  0.83857983  0.82464206  0.83857983  1
  Ir  Ir0  1  0.12500000  0.62500000  0.62500000  1
  Ir  Ir1  1  0.62500000  0.62500000  0.12500000  1
  Ir  Ir2  1  0.62500000  0.62500000  0.62500000  1
  C  C0  1  0.62500000  0.12500000  0.12500000  1
  C  C1  1  0.12500000  0.62500000  0.12500000  1
  C  C2  1  0.12500000  0.12500000  0.62500000  1
  C  C3  1  0.12500000  0.12500000  0.12500000  1
loop_
_geom_bond_atom_site_label_1
_geom_bond_atom_site_label_2
_geom_bond_distance
_geom_bond_site_symmetry_2
Al0 Al8 2.617973 1_545
Al0 Al4 2.617973 1_555
Al0 Al1 2.617982 1_555
Al0 Al5 2.617982 1_545
Al0 Al3 2.617982 1_555
Al0 Al7 2.617982 1_545
Al0 Nb11 3.002752 1_556
Al0 Nb5 3.002752 1_555
Al0 Nb7 3.002752 1_655
Al0 Nb1 3.002752 1_555
Al0 Nb2 3.002759 1_555
Al0 Nb8 3.002759 1_555
Al1 Ir2 2.527065 1_555
Al1 Ir1 2.527078 1_555
Al2 Ir2 2.563500 1_555
Al2 Ir0 2.563514 1_555
Al2 Ir1 2.563514 1_555
Al3 Ir2 2.527065 1_555
Al3 Ir0 2.527078 1_555
Al4 Ir1 2.527069 1_555
Al4 Ir0 2.527069 1_555
Al5 Ir2 2.527065 1_555
Al5 Ir1 2.527078 1_556
Al6 Ir2 2.563500 1_555
Al6 Ir0 2.563514 1_655
Al6 Ir1 2.563514 1_556
Al7 Ir2 2.527065 1_555
Al7 Ir0 2.527078 1_655
Al8 Ir1 2.527069 1_556
Al8 Ir0 2.527069 1_655
Ir0 Nb7 3.029302 1_565
Ir0 Nb1 3.029302 1_555
Ir0 Nb4 3.062908 1_555
Ir0 Nb9 3.062908 1_556
Ir0 Nb3 3.062908 1_555
Ir0 Nb10 3.062908 1_555
Ir1 Nb11 3.029302 1_565
Ir1 Nb5 3.029302 1_555
Ir1 Nb0 3.062908 1_555
Ir1 Nb6 3.062908 1_555
Ir1 Nb9 3.062908 1_655
Ir1 Nb3 3.062908 1_555
Ir2 Nb8 3.029303 1_565
Ir2 Nb2 3.029303 1_555
Ir2 Nb6 3.062908 1_556
Ir2 Nb0 3.062908 1_555
Ir2 Nb10 3.062908 1_655
Ir2 Nb4 3.062908 1_555
C0 Nb6 2.188661 1_555
C0 Nb0 2.188661 1_545
C0 Nb8 2.224016 1_555
C0 Nb2 2.224016 1_554
C0 Nb5 2.224022 1_555
C0 Nb11 2.224022 1_555
C1 Nb3 2.209198 1_555
C1 Nb10 2.209198 1_555
C1 Nb4 2.209198 1_554
C1 Nb9 2.209198 1_555
C1 Nb6 2.209198 1_555
C1 Nb0 2.209198 1_455
C2 Nb10 2.188661 1_555
C2 Nb4 2.188661 1_545
C2 Nb8 2.224017 1_555
C2 Nb2 2.224017 1_455
C2 Nb1 2.224022 1_555
C2 Nb7 2.224022 1_555
C3 Nb9 2.188661 1_555
C3 Nb3 2.188661 1_545
C3 Nb7 2.224015 1_555
C3 Nb1 2.224015 1_554
C3 Nb11 2.224015 1_555
C3 Nb5 2.224015 1_455
