# generated using pymatgen
data_Cs2Be3AlAs4
_symmetry_space_group_name_H-M   'P 1'
_cell_length_a   8.32742894
_cell_length_b   8.32742761
_cell_length_c   5.42652646
_cell_angle_alpha   90.00000000
_cell_angle_beta   90.00000000
_cell_angle_gamma   141.91815290
_symmetry_Int_Tables_number   1
_chemical_formula_structural   Cs2Be3AlAs4
_chemical_formula_sum   'Cs2 Be3 Al1 As4'
_cell_volume   232.10184933
_cell_formula_units_Z   1
loop_
 _symmetry_equiv_pos_site_id
 _symmetry_equiv_pos_as_xyz
  1  'x, y, z'
loop_
 _atom_site_type_symbol
 _atom_site_label
 _atom_site_symmetry_multiplicity
 _atom_site_fract_x
 _atom_site_fract_y
 _atom_site_fract_z
 _atom_site_occupancy
  Cs  Cs0  1  0.50000000  0.00000000  0.24706647  1
  Cs  Cs1  1  0.00000000  0.50000000  0.75293353  1
  Be  Be0  1  0.50000000  0.50000000  0.50000000  1
  Be  Be1  1  0.50000000  0.50000000  0.00000000  1
  Be  Be2  1  0.00000000  0.00000000  0.50000000  1
  Al  Al0  1  0.00000000  0.00000000  0.00000000  1
  As  As0  1  0.64944601  0.82858342  0.73895833  1
  As  As1  1  0.17141658  0.35055399  0.26104167  1
  As  As2  1  0.82858342  0.64944601  0.26104167  1
  As  As3  1  0.35055399  0.17141658  0.73895833  1
loop_
_geom_bond_atom_site_label_1
_geom_bond_atom_site_label_2
_geom_bond_distance
_geom_bond_site_symmetry_2
Al0 As2 2.450718 1_445
Al0 As1 2.450718 1_555
Al0 As0 2.450719 1_444
Al0 As3 2.450719 1_554
As0 Be0 2.314423 1_555
As0 Be2 2.383459 1_665
As0 Be1 2.383631 1_556
As0 Cs1 3.666786 1_555
As0 Cs0 3.675327 1_565
As0 Cs0 3.739726 1_566
As0 Cs1 3.754192 1_665
As1 Be0 2.314423 1_555
As1 Be2 2.383459 1_555
As1 Be1 2.383632 1_555
As1 Cs0 3.666785 1_565
As1 Cs1 3.675327 1_555
As1 Cs1 3.739726 1_554
As1 Cs0 3.754193 1_455
As2 Be0 2.314423 1_555
As2 Be2 2.383459 1_665
As2 Be1 2.383632 1_555
As2 Cs0 3.666785 1_555
As2 Cs1 3.675327 1_655
As2 Cs1 3.739726 1_654
As2 Cs0 3.754193 1_665
As3 Be0 2.314423 1_555
As3 Be2 2.383459 1_555
As3 Be1 2.383631 1_556
As3 Cs1 3.666786 1_655
As3 Cs0 3.675327 1_555
As3 Cs0 3.739726 1_556
As3 Cs1 3.754192 1_545
