# generated using pymatgen
data_TaNi4Au
_symmetry_space_group_name_H-M   'P 1'
_cell_length_a   4.71786235
_cell_length_b   4.71786261
_cell_length_c   4.71786184
_cell_angle_alpha   59.99999859
_cell_angle_beta   59.99999674
_cell_angle_gamma   59.99999968
_symmetry_Int_Tables_number   1
_chemical_formula_structural   TaNi4Au
_chemical_formula_sum   'Ta1 Ni4 Au1'
_cell_volume   74.25415504
_cell_formula_units_Z   1
loop_
 _symmetry_equiv_pos_site_id
 _symmetry_equiv_pos_as_xyz
  1  'x, y, z'
loop_
 _atom_site_type_symbol
 _atom_site_label
 _atom_site_symmetry_multiplicity
 _atom_site_fract_x
 _atom_site_fract_y
 _atom_site_fract_z
 _atom_site_occupancy
  Ta  Ta0  1  0.25000000  0.25000000  0.25000000  1
  Ni  Ni0  1  0.62489202  0.62489202  0.62489202  1
  Ni  Ni1  1  0.62489202  0.62489202  0.12532393  1
  Ni  Ni2  1  0.62489202  0.12532393  0.62489202  1
  Ni  Ni3  1  0.12532393  0.62489202  0.62489202  1
  Au  Au0  1  0.00000000  0.00000000  0.00000000  1
loop_
_geom_bond_atom_site_label_1
_geom_bond_atom_site_label_2
_geom_bond_distance
_geom_bond_site_symmetry_2
Ni0 Ni1 2.356893 1_555
Ni0 Ni3 2.356894 1_555
Ni0 Ni2 2.356894 1_555
Ni0 Ni1 2.360969 1_556
Ni0 Ni3 2.360969 1_655
Ni0 Ni2 2.360969 1_565
Ni0 Ta0 2.765875 1_556
Ni0 Ta0 2.765875 1_655
Ni0 Ta0 2.765875 1_565
Ni1 Ni3 2.356893 1_555
Ni1 Ni2 2.356893 1_555
Ni1 Ni3 2.360969 1_654
Ni1 Ni2 2.360969 1_564
Ni1 Ta0 2.765875 1_655
Ni1 Ta0 2.765875 1_555
Ni1 Ta0 2.765875 1_565
Ni2 Ni3 2.356894 1_555
Ni2 Ni3 2.360969 1_645
Ni2 Ta0 2.765875 1_556
Ni2 Ta0 2.765875 1_555
Ni2 Ta0 2.765875 1_655
Ni3 Ta0 2.765875 1_556
Ni3 Ta0 2.765875 1_555
Ni3 Ta0 2.765875 1_565
Au0 Ni2 2.766309 1_455
Au0 Ni3 2.766309 1_545
Au0 Ni0 2.766309 1_445
Au0 Ni2 2.766309 1_454
Au0 Ni0 2.766309 1_544
Au0 Ni2 2.766309 1_554
Au0 Ni3 2.766309 1_544
Au0 Ni1 2.766309 1_545
Au0 Ni0 2.766309 1_454
Au0 Ni3 2.766310 1_554
Au0 Ni1 2.766310 1_445
Au0 Ni1 2.766310 1_455
Au0 Ta0 2.889088 1_554
Au0 Ta0 2.889089 1_455
Au0 Ta0 2.889089 1_555
Au0 Ta0 2.889089 1_545
