# generated using pymatgen
data_Rb2Cd(BrF)2
_symmetry_space_group_name_H-M   'P 1'
_cell_length_a   6.60897205
_cell_length_b   6.61316673
_cell_length_c   8.82200129
_cell_angle_alpha   90.00000000
_cell_angle_beta   111.99794415
_cell_angle_gamma   90.00000000
_symmetry_Int_Tables_number   1
_chemical_formula_structural   Rb2Cd(BrF)2
_chemical_formula_sum   'Rb4 Cd2 Br4 F4'
_cell_volume   357.50544510
_cell_formula_units_Z   2
loop_
 _symmetry_equiv_pos_site_id
 _symmetry_equiv_pos_as_xyz
  1  'x, y, z'
loop_
 _atom_site_type_symbol
 _atom_site_label
 _atom_site_symmetry_multiplicity
 _atom_site_fract_x
 _atom_site_fract_y
 _atom_site_fract_z
 _atom_site_occupancy
  Rb  Rb0  1  0.61757403  0.00000000  0.23514707  1
  Rb  Rb1  1  0.11757403  0.50000000  0.23514707  1
  Rb  Rb2  1  0.38242597  0.00000000  0.76485293  1
  Rb  Rb3  1  0.88242597  0.50000000  0.76485293  1
  Cd  Cd0  1  0.00000000  0.00000000  0.00000000  1
  Cd  Cd1  1  0.50000000  0.50000000  0.00000000  1
  Br  Br0  1  0.16389342  0.00000000  0.32778584  1
  Br  Br1  1  0.66389342  0.50000000  0.32778584  1
  Br  Br2  1  0.83610758  0.00000000  0.67221416  1
  Br  Br3  1  0.33610658  0.50000000  0.67221416  1
  F  F0  1  0.25011884  0.24987831  0.00000000  1
  F  F1  1  0.75011884  0.25012269  0.00000000  1
  F  F2  1  0.24988116  0.74987831  0.00000000  1
  F  F3  1  0.74988216  0.75012169  0.00000000  1
loop_
_geom_bond_atom_site_label_1
_geom_bond_atom_site_label_2
_geom_bond_distance
_geom_bond_site_symmetry_2
Cd0 F3 2.337348 1_445
Cd0 F0 2.337352 1_555
Cd0 F2 2.337380 1_545
Cd0 F1 2.337385 1_455
Cd1 F1 2.337348 1_555
Cd1 F2 2.337352 1_555
Cd1 F0 2.337380 1_555
Cd1 F3 2.337385 1_555
Br0 Cd0 2.681202 1_555
Br0 Rb0 3.390255 1_455
Br0 Rb0 3.390255 1_555
Br0 Rb1 3.392299 1_545
Br0 Rb1 3.392299 1_555
Br0 Rb2 3.575093 1_555
Br1 Cd1 2.681202 1_555
Br1 Rb1 3.390255 1_555
Br1 Rb1 3.390255 1_655
Br1 Rb0 3.392299 1_565
Br1 Rb0 3.392299 1_555
Br1 Rb3 3.575093 1_555
Br2 Cd0 2.681202 1_656
Br2 Rb2 3.390249 1_655
Br2 Rb2 3.390261 1_555
Br2 Rb3 3.392299 1_545
Br2 Rb3 3.392299 1_555
Br2 Rb0 3.575093 1_555
Br3 Cd1 2.681202 1_556
Br3 Rb3 3.390255 1_555
Br3 Rb3 3.390255 1_455
Br3 Rb2 3.392299 1_555
Br3 Rb2 3.392299 1_565
Br3 Rb1 3.575093 1_555
F0 Rb2 3.026159 1_554
F0 Rb0 3.026163 1_555
F0 Rb1 3.027896 1_555
F0 Rb3 3.027899 1_454
F1 Rb3 3.026156 1_554
F1 Rb1 3.026159 1_655
F1 Rb0 3.027899 1_555
F1 Rb2 3.027903 1_554
F2 Rb1 3.026159 1_555
F2 Rb3 3.026163 1_454
F2 Rb2 3.027896 1_564
F2 Rb0 3.027899 1_565
F3 Rb0 3.026163 1_565
F3 Rb2 3.026166 1_564
F3 Rb3 3.027892 1_554
F3 Rb1 3.027896 1_655
