# generated using pymatgen
data_SrReNiP2
_symmetry_space_group_name_H-M   'P 1'
_cell_length_a   6.66541428
_cell_length_b   6.66541466
_cell_length_c   6.66541410
_cell_angle_alpha   146.31131991
_cell_angle_beta   146.31132889
_cell_angle_gamma   48.38457986
_symmetry_Int_Tables_number   1
_chemical_formula_structural   SrReNiP2
_chemical_formula_sum   'Sr1 Re1 Ni1 P2'
_cell_volume   90.72649743
_cell_formula_units_Z   1
loop_
 _symmetry_equiv_pos_site_id
 _symmetry_equiv_pos_as_xyz
  1  'x, y, z'
loop_
 _atom_site_type_symbol
 _atom_site_label
 _atom_site_symmetry_multiplicity
 _atom_site_fract_x
 _atom_site_fract_y
 _atom_site_fract_z
 _atom_site_occupancy
  Sr  Sr0  1  0.00000000  0.00000000  0.00000000  1
  Re  Re0  1  0.75000000  0.25000000  0.50000000  1
  Ni  Ni0  1  0.25000000  0.75000000  0.50000000  1
  P  P0  1  0.64640016  0.64640016  0.00000000  1
  P  P1  1  0.35359984  0.35359984  1.00000000  1
loop_
_geom_bond_atom_site_label_1
_geom_bond_atom_site_label_2
_geom_bond_distance
_geom_bond_site_symmetry_2
Ni0 P0 2.305983 1_455
Ni0 P0 2.305983 1_556
Ni0 P1 2.305983 1_554
Ni0 P1 2.305983 1_565
P0 Re0 2.305983 1_554
P0 Re0 2.305983 1_565
P0 Sr0 3.260408 1_554
P0 Sr0 3.260408 1_666
P0 Sr0 3.260408 1_565
P0 Sr0 3.260409 1_655
P1 Re0 2.305983 1_455
P1 Re0 2.305983 1_556
P1 Sr0 3.260408 1_667
P1 Sr0 3.260408 1_555
P1 Sr0 3.260408 1_656
P1 Sr0 3.260409 1_566
