# generated using pymatgen
data_Lu4Si2Ge4Ir7
_symmetry_space_group_name_H-M   'P 1'
_cell_length_a   7.12297444
_cell_length_b   7.12297363
_cell_length_c   7.13108256
_cell_angle_alpha   109.58170848
_cell_angle_beta   109.58169890
_cell_angle_gamma   109.20418323
_symmetry_Int_Tables_number   1
_chemical_formula_structural   Lu4Si2Ge4Ir7
_chemical_formula_sum   'Lu4 Si2 Ge4 Ir7'
_cell_volume   278.67516911
_cell_formula_units_Z   1
loop_
 _symmetry_equiv_pos_site_id
 _symmetry_equiv_pos_as_xyz
  1  'x, y, z'
loop_
 _atom_site_type_symbol
 _atom_site_label
 _atom_site_symmetry_multiplicity
 _atom_site_fract_x
 _atom_site_fract_y
 _atom_site_fract_z
 _atom_site_occupancy
  Lu  Lu0  1  0.99935099  0.99935099  0.51757550  1
  Lu  Lu1  1  0.99970363  0.49970363  0.99940727  1
  Lu  Lu2  1  0.49970363  0.99970363  0.99940727  1
  Lu  Lu3  1  0.51822450  0.51822450  0.51757550  1
  Si  Si0  1  0.67182942  0.00131128  0.67314071  1
  Si  Si1  1  0.00131128  0.67182942  0.67314071  1
  Ge  Ge0  1  0.68563876  0.68563876  0.00310267  1
  Ge  Ge1  1  0.31149484  0.00164247  0.31313732  1
  Ge  Ge2  1  0.00164247  0.31149484  0.31313732  1
  Ge  Ge3  1  0.31746391  0.31746391  0.00310267  1
  Ir  Ir0  1  0.75132666  0.25132666  0.50265431  1
  Ir  Ir1  1  0.75246306  0.50129256  0.25375563  1
  Ir  Ir2  1  0.50155915  0.24941603  0.75097519  1
  Ir  Ir3  1  0.24941603  0.50155915  0.75097519  1
  Ir  Ir4  1  0.25132666  0.75132666  0.50265431  1
  Ir  Ir5  1  0.50129256  0.75246306  0.25375563  1
  Ir  Ir6  1  0.98625142  0.98625142  0.97250383  1
loop_
_geom_bond_atom_site_label_1
_geom_bond_atom_site_label_2
_geom_bond_distance
_geom_bond_site_symmetry_2
Lu0 Si1 2.901587 1_655
Lu0 Si0 2.901587 1_565
Lu1 Si0 2.972751 1_555
Lu1 Si1 2.972751 1_655
Lu2 Si1 2.972751 1_555
Lu2 Si0 2.972751 1_565
Lu3 Si0 2.901587 1_565
Lu3 Si1 2.901587 1_655
Ge0 Ir5 2.561211 1_555
Ge0 Ir1 2.561211 1_555
Ge0 Ir2 2.569316 1_554
Ge0 Ir3 2.569316 1_554
Ge0 Ir6 2.612970 1_554
Ge0 Lu3 2.891580 1_554
Ge0 Lu2 2.953732 1_554
Ge0 Lu1 2.953732 1_554
Ge0 Lu0 3.028366 1_555
Ge1 Ir2 2.568515 1_555
Ge1 Ir5 2.572120 1_545
Ge1 Ir0 2.586479 1_555
Ge1 Ir4 2.586486 1_545
Ge1 Ir6 2.676171 1_444
Ge1 Lu1 2.967239 1_444
Ge1 Lu2 2.967239 1_544
Ge1 Lu3 3.038734 1_555
Ge1 Lu0 3.038735 1_445
Ge2 Ir3 2.568515 1_555
Ge2 Ir1 2.572120 1_455
Ge2 Ir4 2.586479 1_555
Ge2 Ir0 2.586486 1_455
Ge2 Ir6 2.676171 1_444
Ge2 Lu2 2.967239 1_444
Ge2 Lu1 2.967239 1_454
Ge2 Lu0 3.038735 1_445
Ge2 Lu3 3.038735 1_555
Ge3 Ir5 2.561211 1_555
Ge3 Ir1 2.561211 1_555
Ge3 Ir2 2.569316 1_554
Ge3 Ir3 2.569316 1_554
Ge3 Ir6 2.612978 1_444
Ge3 Lu0 2.891580 1_444
Ge3 Lu2 2.953732 1_544
Ge3 Lu1 2.953733 1_454
Ge3 Lu3 3.028366 1_555
Ir0 Si0 2.493880 1_555
Ir0 Si1 2.493886 1_655
Ir0 Lu1 2.889229 1_555
Ir0 Lu0 2.905483 1_545
Ir0 Lu3 2.905483 1_555
Ir0 Lu2 2.927000 1_544
Ir1 Si1 2.481258 1_655
Ir1 Lu0 2.902077 1_555
Ir1 Lu3 2.902077 1_555
Ir1 Lu2 2.920924 1_544
Ir1 Lu1 2.920925 1_554
Ir2 Si0 2.471027 1_555
Ir2 Lu2 2.900843 1_545
Ir2 Lu1 2.900843 1_555
Ir2 Lu3 2.927367 1_555
Ir2 Lu0 2.927367 1_445
Ir3 Si1 2.471027 1_555
Ir3 Lu2 2.900842 1_555
Ir3 Lu1 2.900843 1_455
Ir3 Lu0 2.927367 1_445
Ir3 Lu3 2.927367 1_555
Ir4 Si1 2.493880 1_555
Ir4 Si0 2.493887 1_565
Ir4 Lu2 2.889229 1_555
Ir4 Lu0 2.905483 1_455
Ir4 Lu3 2.905483 1_555
Ir4 Lu1 2.927000 1_454
Ir5 Si0 2.481258 1_565
Ir5 Lu3 2.902077 1_555
Ir5 Lu0 2.902077 1_555
Ir5 Lu2 2.920925 1_554
Ir5 Lu1 2.920925 1_454
Ir6 Si1 2.586788 1_655
Ir6 Si0 2.586788 1_565
