# generated using pymatgen
data_BaSr2(H6Ir)2
_symmetry_space_group_name_H-M   'P 1'
_cell_length_a   5.27877879
_cell_length_b   5.27877952
_cell_length_c   8.65232180
_cell_angle_alpha   90.00000000
_cell_angle_beta   90.00000000
_cell_angle_gamma   120.00000168
_symmetry_Int_Tables_number   1
_chemical_formula_structural   BaSr2(H6Ir)2
_chemical_formula_sum   'Ba1 Sr2 H12 Ir2'
_cell_volume   208.79989418
_cell_formula_units_Z   1
loop_
 _symmetry_equiv_pos_site_id
 _symmetry_equiv_pos_as_xyz
  1  'x, y, z'
loop_
 _atom_site_type_symbol
 _atom_site_label
 _atom_site_symmetry_multiplicity
 _atom_site_fract_x
 _atom_site_fract_y
 _atom_site_fract_z
 _atom_site_occupancy
  Ba  Ba0  1  0.00000000  0.00000000  0.00000000  1
  Sr  Sr0  1  0.66666700  0.33333300  0.36298646  1
  Sr  Sr1  1  0.33333300  0.66666700  0.63701354  1
  H  H0  1  0.18133257  0.81866743  0.36286061  1
  H  H1  1  0.63733586  0.81866743  0.36286061  1
  H  H2  1  0.18133257  0.36266414  0.36286061  1
  H  H3  1  0.81866743  0.18133257  0.63713939  1
  H  H4  1  0.36266414  0.18133257  0.63713939  1
  H  H5  1  0.81866743  0.63733586  0.63713939  1
  H  H6  1  0.52044658  0.04089317  0.86168935  1
  H  H7  1  0.52044658  0.47955342  0.86168935  1
  H  H8  1  0.95910683  0.47955342  0.86168935  1
  H  H9  1  0.47955342  0.95910683  0.13831065  1
  H  H10  1  0.47955342  0.52044658  0.13831065  1
  H  H11  1  0.04089317  0.52044658  0.13831065  1
  Ir  Ir0  1  0.66666700  0.33333300  0.74636719  1
  Ir  Ir1  1  0.33333300  0.66666700  0.25363281  1
loop_
_geom_bond_atom_site_label_1
_geom_bond_atom_site_label_2
_geom_bond_distance
_geom_bond_site_symmetry_2
Ba0 H6 2.904038 1_554
Ba0 H9 2.904038 1_445
Ba0 H9 2.904038 1_545
Ba0 H6 2.904038 1_454
Ba0 H7 2.904038 1_554
Ba0 H10 2.904038 1_445
Ba0 H10 2.904038 1_555
Ba0 H7 2.904038 1_444
Ba0 H8 2.904038 1_454
Ba0 H11 2.904038 1_545
Ba0 H11 2.904038 1_555
Ba0 H8 2.904038 1_444
H0 Ir1 1.680652 1_555
H0 Sr0 2.642794 1_455
H0 Sr0 2.642794 1_565
H0 Sr1 2.749198 1_555
H1 Ir1 1.680659 1_555
H1 Sr0 2.642794 1_555
H1 Sr0 2.642794 1_565
H1 Sr1 2.749203 1_555
H2 Ir1 1.680659 1_555
H2 Sr0 2.642793 1_455
H2 Sr0 2.642794 1_555
H2 Sr1 2.749203 1_555
H3 Ir0 1.680652 1_555
H3 Sr1 2.642794 1_655
H3 Sr1 2.642794 1_545
H3 Sr0 2.749198 1_555
H4 Ir0 1.680659 1_555
H4 Sr1 2.642794 1_555
H4 Sr1 2.642794 1_545
H4 Sr0 2.749203 1_555
H5 Ir0 1.680659 1_555
H5 Sr1 2.642793 1_655
H5 Sr1 2.642794 1_555
H5 Sr0 2.749203 1_555
H6 Ir0 1.668212 1_555
H6 Sr1 2.589562 1_545
H7 Ir0 1.668215 1_555
H7 Sr1 2.589565 1_555
H8 Ir0 1.668211 1_555
H8 Sr1 2.589562 1_655
H9 Ir1 1.668212 1_555
H9 Sr0 2.589562 1_565
H10 Ir1 1.668215 1_555
H10 Sr0 2.589565 1_555
H11 Ir1 1.668211 1_555
H11 Sr0 2.589562 1_455
