# generated using pymatgen
data_RbLuZnS3
_symmetry_space_group_name_H-M   'P 1'
_cell_length_a   7.63644579
_cell_length_b   7.63644569
_cell_length_c   10.34360473
_cell_angle_alpha   90.00000000
_cell_angle_beta   90.00000000
_cell_angle_gamma   150.19491947
_symmetry_Int_Tables_number   1
_chemical_formula_structural   RbLuZnS3
_chemical_formula_sum   'Rb2 Lu2 Zn2 S6'
_cell_volume   299.81635907
_cell_formula_units_Z   2
loop_
 _symmetry_equiv_pos_site_id
 _symmetry_equiv_pos_as_xyz
  1  'x, y, z'
loop_
 _atom_site_type_symbol
 _atom_site_label
 _atom_site_symmetry_multiplicity
 _atom_site_fract_x
 _atom_site_fract_y
 _atom_site_fract_z
 _atom_site_occupancy
  Rb  Rb0  1  0.25787347  0.74212453  0.25000000  1
  Rb  Rb1  1  0.74212453  0.25787347  0.75000000  1
  Lu  Lu0  1  0.00000000  0.00000000  0.00000000  1
  Lu  Lu1  1  0.00000000  0.00000000  0.50000000  1
  Zn  Zn0  1  0.53880799  0.46119001  0.25000000  1
  Zn  Zn1  1  0.46119001  0.53880799  0.75000000  1
  S  S0  1  0.61682775  0.38317025  0.05885355  1
  S  S1  1  0.94423101  0.05576699  0.25000000  1
  S  S2  1  0.61682775  0.38317025  0.44114545  1
  S  S3  1  0.38317025  0.61682775  0.55885455  1
  S  S4  1  0.05576699  0.94423101  0.75000000  1
  S  S5  1  0.38317025  0.61682775  0.94114545  1
loop_
_geom_bond_atom_site_label_1
_geom_bond_atom_site_label_2
_geom_bond_distance
_geom_bond_site_symmetry_2
Rb0 S1 3.379660 1_455
Rb0 S1 3.379660 1_565
Rb0 S2 3.478440 1_565
Rb0 S2 3.478440 1_455
Rb0 S0 3.478446 1_565
Rb0 S0 3.478446 1_455
Rb0 S3 3.691306 1_555
Rb0 S5 3.691306 1_554
Rb1 S4 3.379660 1_655
Rb1 S4 3.379660 1_545
Rb1 S5 3.478440 1_545
Rb1 S3 3.478440 1_545
Rb1 S5 3.478440 1_655
Rb1 S3 3.478440 1_655
Rb1 S0 3.691297 1_556
Rb1 S2 3.691306 1_555
Lu0 S0 2.683413 1_555
Lu0 S5 2.683415 1_554
Lu0 S0 2.683419 1_445
Lu0 S5 2.683421 1_444
Lu0 S4 2.713736 1_544
Lu0 S1 2.713736 1_455
Lu1 S3 2.683415 1_555
Lu1 S2 2.683415 1_555
Lu1 S2 2.683421 1_445
Lu1 S3 2.683421 1_445
Lu1 S4 2.713736 1_545
Lu1 S1 2.713736 1_455
S0 Zn0 2.288027 1_555
S1 Zn0 2.409442 1_545
S1 Zn0 2.409442 1_655
S2 Zn0 2.288018 1_555
S3 Zn1 2.288018 1_555
S4 Zn1 2.409442 1_565
S4 Zn1 2.409442 1_455
S5 Zn1 2.288018 1_555
