# generated using pymatgen
data_LuSn5SbRu4
_symmetry_space_group_name_H-M   'P 1'
_cell_length_a   6.90016333
_cell_length_b   6.90016363
_cell_length_c   6.90016381
_cell_angle_alpha   120.45720944
_cell_angle_beta   121.20397154
_cell_angle_gamma   88.56854825
_symmetry_Int_Tables_number   1
_chemical_formula_structural   LuSn5SbRu4
_chemical_formula_sum   'Lu1 Sn5 Sb1 Ru4'
_cell_volume   229.30077177
_cell_formula_units_Z   1
loop_
 _symmetry_equiv_pos_site_id
 _symmetry_equiv_pos_as_xyz
  1  'x, y, z'
loop_
 _atom_site_type_symbol
 _atom_site_label
 _atom_site_symmetry_multiplicity
 _atom_site_fract_x
 _atom_site_fract_y
 _atom_site_fract_z
 _atom_site_occupancy
  Lu  Lu0  1  0.00000000  0.00000000  0.00000000  1
  Sn  Sn0  1  0.45992239  0.46203026  0.34020775  1
  Sn  Sn1  1  0.54007761  0.88028536  0.00210787  1
  Sn  Sn2  1  0.87817749  0.53796974  0.99789213  1
  Sn  Sn3  1  0.12182251  0.11971464  0.65979225  1
  Sn  Sn4  1  0.50000000  0.00000000  0.50000000  1
  Sb  Sb0  1  0.00000000  0.50000000  0.50000000  1
  Ru  Ru0  1  0.39625639  0.39995211  0.64499208  1
  Ru  Ru1  1  0.75496003  0.75126431  0.35500792  1
  Ru  Ru2  1  0.24503997  0.60004789  0.99630428  1
  Ru  Ru3  1  0.60374361  0.24873569  0.00369572  1
loop_
_geom_bond_atom_site_label_1
_geom_bond_atom_site_label_2
_geom_bond_distance
_geom_bond_site_symmetry_2
Lu0 Ru0 3.196223 1_555
Lu0 Ru3 3.196223 1_455
Lu0 Ru1 3.196223 1_444
Lu0 Ru2 3.196223 1_544
Lu0 Sn0 3.308309 1_555
Lu0 Sn1 3.308309 1_445
Lu0 Sn2 3.308309 1_444
Lu0 Sn3 3.308309 1_554
Lu0 Sn4 3.387108 1_555
Lu0 Sn4 3.387108 1_454
Lu0 Sb0 3.426212 1_555
Lu0 Sb0 3.426212 1_544
Lu0 Sn0 3.791109 1_444
Lu0 Sn1 3.791109 1_545
Lu0 Sn2 3.791110 1_454
Lu0 Sn3 3.791110 1_555
Ru0 Sn0 2.584438 1_555
Ru0 Sb0 2.593255 1_555
Ru0 Sn4 2.640795 1_555
Ru0 Sn2 2.703935 1_555
Ru0 Sn1 2.718954 1_556
Ru0 Sn3 2.814064 1_555
Ru1 Sn3 2.584437 1_665
Ru1 Sb0 2.593255 1_655
Ru1 Sn4 2.640795 1_565
Ru1 Sn1 2.703936 1_555
Ru1 Sn2 2.718954 1_554
Ru1 Sn0 2.814064 1_555
Ru2 Sn2 2.584437 1_455
Ru2 Sb0 2.593255 1_555
Ru2 Sn4 2.640795 1_566
Ru2 Sn0 2.703936 1_556
Ru2 Sn3 2.718954 1_555
Ru2 Sn1 2.814064 1_556
Ru3 Sn1 2.584437 1_545
Ru3 Sb0 2.593255 1_655
Ru3 Sn4 2.640795 1_554
Ru3 Sn3 2.703935 1_554
Ru3 Sn0 2.718954 1_555
Ru3 Sn2 2.814064 1_554
