# generated using pymatgen
data_Cu2Bi2SeSO2
_symmetry_space_group_name_H-M   'P 1'
_cell_length_a   3.88931317
_cell_length_b   3.88931317
_cell_length_c   8.80543438
_cell_angle_alpha   90.00000000
_cell_angle_beta   90.00000000
_cell_angle_gamma   90.00000000
_symmetry_Int_Tables_number   1
_chemical_formula_structural   Cu2Bi2SeSO2
_chemical_formula_sum   'Cu2 Bi2 Se1 S1 O2'
_cell_volume   133.19766559
_cell_formula_units_Z   1
loop_
 _symmetry_equiv_pos_site_id
 _symmetry_equiv_pos_as_xyz
  1  'x, y, z'
loop_
 _atom_site_type_symbol
 _atom_site_label
 _atom_site_symmetry_multiplicity
 _atom_site_fract_x
 _atom_site_fract_y
 _atom_site_fract_z
 _atom_site_occupancy
  Cu  Cu0  1  0.00000000  0.50000000  0.48549639  1
  Cu  Cu1  1  0.50000000  0.00000000  0.48549639  1
  Bi  Bi0  1  0.50000000  0.50000000  0.85977088  1
  Bi  Bi1  1  0.00000000  0.00000000  0.14664644  1
  Se  Se0  1  0.00000000  0.00000000  0.67288348  1
  S  S0  1  0.50000000  0.50000000  0.33638186  1
  O  O0  1  0.00000000  0.50000000  0.00666178  1
  O  O1  1  0.50000000  0.00000000  0.00666178  1
loop_
_geom_bond_atom_site_label_1
_geom_bond_atom_site_label_2
_geom_bond_distance
_geom_bond_site_symmetry_2
Cu0 S0 2.346424 1_555
Cu0 S0 2.346424 1_455
Cu0 Se0 2.550347 1_555
Cu0 Se0 2.550347 1_565
Cu1 S0 2.346424 1_555
Cu1 S0 2.346424 1_545
Cu1 Se0 2.550347 1_655
Cu1 Se0 2.550347 1_555
Bi0 O0 2.335524 1_556
Bi0 O1 2.335524 1_566
Bi0 O1 2.335524 1_556
Bi0 O0 2.335524 1_656
Bi0 Se0 3.204912 1_665
Bi0 Se0 3.204912 1_555
Bi0 Se0 3.204912 1_655
Bi0 Se0 3.204912 1_565
Bi1 O1 2.302402 1_455
Bi1 O0 2.302402 1_545
Bi1 O1 2.302402 1_555
Bi1 O0 2.302402 1_555
