# generated using pymatgen
data_NaCa7(NbN4)2
_symmetry_space_group_name_H-M   'P 1'
_cell_length_a   6.07944962
_cell_length_b   6.04528609
_cell_length_c   9.15660966
_cell_angle_alpha   71.92412873
_cell_angle_beta   81.48209641
_cell_angle_gamma   68.02933855
_symmetry_Int_Tables_number   1
_chemical_formula_structural   NaCa7(NbN4)2
_chemical_formula_sum   'Na1 Ca7 Nb2 N8'
_cell_volume   296.48560754
_cell_formula_units_Z   1
loop_
 _symmetry_equiv_pos_site_id
 _symmetry_equiv_pos_as_xyz
  1  'x, y, z'
loop_
 _atom_site_type_symbol
 _atom_site_label
 _atom_site_symmetry_multiplicity
 _atom_site_fract_x
 _atom_site_fract_y
 _atom_site_fract_z
 _atom_site_occupancy
  Na  Na0  1  0.23877298  0.95252805  0.59986763  1
  Ca  Ca0  1  0.75183374  0.61450142  0.18600978  1
  Ca  Ca1  1  0.75682408  0.23194233  0.99693868  1
  Ca  Ca2  1  0.25387864  0.52931457  0.42224028  1
  Ca  Ca3  1  0.75892080  0.04449360  0.40039475  1
  Ca  Ca4  1  0.25817366  0.41151703  0.80585118  1
  Ca  Ca5  1  0.73228996  0.47551131  0.57113778  1
  Ca  Ca6  1  0.24476583  0.76159146  0.02118201  1
  Nb  Nb0  1  0.71215939  0.84670641  0.76073231  1
  Nb  Nb1  1  0.27875764  0.14669987  0.24135459  1
  N  N0  1  0.96205348  0.69425805  0.62022701  1
  N  N1  1  0.52451554  0.18278055  0.63104211  1
  N  N2  1  0.01568725  0.29364959  0.37712596  1
  N  N3  1  0.52238020  0.62357869  0.81634143  1
  N  N4  1  0.16456733  0.16995980  0.04422085  1
  N  N5  1  0.48230478  0.81452483  0.36332162  1
  N  N6  1  0.48188145  0.35757663  0.20582270  1
  N  N7  1  0.86023425  0.84886480  0.93619034  1
loop_
_geom_bond_atom_site_label_1
_geom_bond_atom_site_label_2
_geom_bond_distance
_geom_bond_site_symmetry_2
Ca0 N5 2.393892 1_555
Ca0 N2 2.407242 1_655
Ca0 N7 2.432112 1_554
Ca0 N6 2.604417 1_555
Ca1 N7 2.382021 1_545
Ca1 N4 2.448429 1_656
Ca1 N6 2.456320 1_556
Ca1 N3 2.472861 1_555
Ca2 N5 2.486926 1_555
Ca2 N0 2.504726 1_455
Ca2 N6 2.512437 1_555
Ca2 N2 2.526522 1_555
Ca2 N1 2.572627 1_555
Ca3 N6 2.450349 1_555
Ca3 N0 2.488962 1_545
Ca3 N2 2.492480 1_655
Ca3 N1 2.550020 1_555
Ca3 N5 2.662205 1_545
Ca4 N4 2.344407 1_556
Ca4 N0 2.419199 1_455
Ca4 N3 2.428078 1_555
Ca4 N1 2.454867 1_555
Ca5 N0 2.416384 1_555
Ca5 N1 2.427564 1_555
Ca5 N2 2.494184 1_655
Ca5 N5 2.497385 1_555
Ca5 N3 2.648481 1_555
Ca6 N7 2.389623 1_454
Ca6 N4 2.401829 1_565
Ca6 N3 2.458110 1_554
Ca6 N6 2.535101 1_555
N0 Nb0 1.980327 1_555
N0 Na0 2.644706 1_655
N1 Nb0 2.002284 1_545
N1 Na0 2.690629 1_545
N2 Nb1 1.981362 1_555
N2 Na0 2.523577 1_545
N3 Nb0 1.993520 1_555
N3 Na0 2.618603 1_555
N4 Nb1 1.975013 1_555
N5 Nb1 1.992316 1_565
N5 Na0 2.612760 1_555
N6 Nb1 2.014317 1_555
N7 Nb0 1.960092 1_555
