# generated using pymatgen
data_Na2Zr6MnBr15
_symmetry_space_group_name_H-M   'P 1'
_cell_length_a   9.64426037
_cell_length_b   9.64425942
_cell_length_c   9.64425937
_cell_angle_alpha   108.43928927
_cell_angle_beta   108.43928538
_cell_angle_gamma   111.55540891
_symmetry_Int_Tables_number   1
_chemical_formula_structural   Na2Zr6MnBr15
_chemical_formula_sum   'Na2 Zr6 Mn1 Br15'
_cell_volume   689.84549374
_cell_formula_units_Z   1
loop_
 _symmetry_equiv_pos_site_id
 _symmetry_equiv_pos_as_xyz
  1  'x, y, z'
loop_
 _atom_site_type_symbol
 _atom_site_label
 _atom_site_symmetry_multiplicity
 _atom_site_fract_x
 _atom_site_fract_y
 _atom_site_fract_z
 _atom_site_occupancy
  Na  Na0  1  0.25000000  0.75000000  0.50000000  1
  Na  Na1  1  0.75000000  0.25000000  0.50000000  1
  Zr  Zr0  1  0.77184190  0.77184190  0.00000000  1
  Zr  Zr1  1  0.00000000  0.21539854  0.21539854  1
  Zr  Zr2  1  0.21539854  1.00000000  0.21539854  1
  Zr  Zr3  1  0.22815810  0.22815810  0.00000000  1
  Zr  Zr4  1  1.00000000  0.78460146  0.78460146  1
  Zr  Zr5  1  0.78460146  0.00000000  0.78460146  1
  Mn  Mn0  1  0.00000000  0.00000000  0.00000000  1
  Br  Br0  1  0.50000000  0.50000000  0.00000000  1
  Br  Br1  1  0.00000000  0.50000000  0.50000000  1
  Br  Br2  1  0.50000000  0.00000000  0.50000000  1
  Br  Br3  1  0.23881872  0.23881872  0.47763744  1
  Br  Br4  1  0.99059758  0.75020087  0.24039671  1
  Br  Br5  1  0.75020087  0.99059758  0.24039671  1
  Br  Br6  1  0.23881872  0.76118128  0.00000000  1
  Br  Br7  1  0.49019483  0.24979913  0.24039671  1
  Br  Br8  1  0.24979913  0.00940242  0.75960329  1
  Br  Br9  1  0.76118128  0.23881872  1.00000000  1
  Br  Br10  1  0.00940242  0.24979913  0.75960329  1
  Br  Br11  1  0.24979913  0.49019483  0.24039671  1
  Br  Br12  1  0.76118128  0.76118128  0.52236256  1
  Br  Br13  1  0.50980517  0.75020087  0.75960329  1
  Br  Br14  1  0.75020087  0.50980517  0.75960329  1
loop_
_geom_bond_atom_site_label_1
_geom_bond_atom_site_label_2
_geom_bond_distance
_geom_bond_site_symmetry_2
Mn0 Zr1 2.429179 1_555
Mn0 Zr4 2.429179 1_444
Mn0 Zr2 2.429179 1_545
Mn0 Zr5 2.429179 1_454
Mn0 Zr3 2.475051 1_555
Mn0 Zr0 2.475051 1_445
Br0 Zr0 2.948931 1_555
Br0 Zr3 2.948931 1_555
Br1 Na1 2.711991 1_455
Br1 Na0 2.711991 1_555
Br1 Zr4 3.209622 1_455
Br1 Zr1 3.209622 1_555
Br2 Na0 2.711991 1_545
Br2 Na1 2.711991 1_555
Br2 Zr5 3.209622 1_555
Br2 Zr2 3.209622 1_545
Br3 Zr2 2.706222 1_545
Br3 Zr1 2.706223 1_555
Br4 Zr0 2.721244 1_555
Br4 Zr2 2.724437 1_655
Br4 Na0 2.927704 1_655
Br5 Zr0 2.721244 1_555
Br5 Zr1 2.724437 1_665
Br5 Na1 2.927704 1_565
Br6 Zr2 2.706223 1_555
Br6 Zr4 2.706223 1_454
Br7 Zr3 2.721238 1_555
Br7 Zr2 2.724431 1_545
Br7 Na1 2.927710 1_555
Br8 Zr3 2.721244 1_556
Br8 Zr4 2.724437 1_445
Br8 Na0 2.927704 1_545
Br9 Zr5 2.706223 1_555
Br9 Zr1 2.706223 1_656
Br10 Zr3 2.721244 1_556
Br10 Zr5 2.724437 1_455
Br10 Na1 2.927704 1_455
Br11 Zr3 2.721238 1_555
Br11 Zr1 2.724431 1_555
Br11 Na0 2.927709 1_555
Br12 Zr5 2.706222 1_565
Br12 Zr4 2.706223 1_555
Br13 Zr0 2.721238 1_556
Br13 Zr5 2.724431 1_565
Br13 Na0 2.927710 1_555
Br14 Zr0 2.721238 1_556
Br14 Zr4 2.724431 1_555
Br14 Na1 2.927709 1_555
