# generated using pymatgen
data_Zr6Al16Cu2Rh5
_symmetry_space_group_name_H-M   'P 1'
_cell_length_a   8.62539510
_cell_length_b   8.62539454
_cell_length_c   8.70637243
_cell_angle_alpha   59.68894815
_cell_angle_beta   59.68895035
_cell_angle_gamma   60.62209597
_symmetry_Int_Tables_number   1
_chemical_formula_structural   Zr6Al16Cu2Rh5
_chemical_formula_sum   'Zr6 Al16 Cu2 Rh5'
_cell_volume   457.93401278
_cell_formula_units_Z   1
loop_
 _symmetry_equiv_pos_site_id
 _symmetry_equiv_pos_as_xyz
  1  'x, y, z'
loop_
 _atom_site_type_symbol
 _atom_site_label
 _atom_site_symmetry_multiplicity
 _atom_site_fract_x
 _atom_site_fract_y
 _atom_site_fract_z
 _atom_site_occupancy
  Zr  Zr0  1  0.67467009  0.67467009  0.32532991  1
  Zr  Zr1  1  0.30189914  0.69810086  0.30189914  1
  Zr  Zr2  1  0.69810086  0.30189914  0.30189914  1
  Zr  Zr3  1  0.32532991  0.32532991  0.67467009  1
  Zr  Zr4  1  0.69810086  0.30189914  0.69810086  1
  Zr  Zr5  1  0.30189914  0.69810086  0.69810086  1
  Al  Al0  1  0.87636673  0.87636673  0.35852189  1
  Al  Al1  1  0.88874265  0.35852189  0.87636673  1
  Al  Al2  1  0.35852189  0.88874265  0.87636673  1
  Al  Al3  1  0.87636673  0.87636673  0.88874265  1
  Al  Al4  1  0.12363327  0.12363327  0.64147811  1
  Al  Al5  1  0.11125735  0.64147811  0.12363327  1
  Al  Al6  1  0.64147811  0.11125735  0.12363327  1
  Al  Al7  1  0.12363327  0.12363327  0.11125735  1
  Al  Al8  1  0.66463488  0.66463488  0.00114342  1
  Al  Al9  1  0.66958482  0.00114342  0.66463488  1
  Al  Al10  1  0.00114342  0.66958482  0.66463488  1
  Al  Al11  1  0.66463488  0.66463488  0.66958482  1
  Al  Al12  1  0.33536512  0.33536512  0.99885658  1
  Al  Al13  1  0.33041518  0.99885658  0.33536512  1
  Al  Al14  1  0.99885658  0.33041518  0.33536512  1
  Al  Al15  1  0.33536512  0.33536512  0.33041518  1
  Cu  Cu0  1  0.00000000  0.00000000  0.50000000  1
  Cu  Cu1  1  0.50000000  0.50000000  0.00000000  1
  Rh  Rh0  1  0.00000000  0.00000000  0.00000000  1
  Rh  Rh1  1  0.50000000  0.00000000  0.50000000  1
  Rh  Rh2  1  0.00000000  0.50000000  0.50000000  1
  Rh  Rh3  1  0.00000000  0.50000000  0.00000000  1
  Rh  Rh4  1  0.50000000  0.00000000  0.00000000  1
loop_
_geom_bond_atom_site_label_1
_geom_bond_atom_site_label_2
_geom_bond_distance
_geom_bond_site_symmetry_2
Zr0 Zr4 3.225445 1_555
Zr0 Zr2 3.225445 1_555
Zr0 Zr1 3.225445 1_555
Zr0 Zr5 3.225445 1_555
Zr1 Zr3 3.225445 1_555
Zr2 Zr3 3.225445 1_555
Zr3 Zr5 3.225445 1_555
Zr3 Zr4 3.225445 1_555
Al0 Rh0 2.532507 1_665
Al0 Rh2 2.661969 1_655
Al0 Rh1 2.661970 1_565
Al0 Al11 2.700481 1_555
Al0 Cu0 2.749372 1_665
Al0 Al10 2.766986 1_655
Al0 Al9 2.766986 1_565
Al0 Al6 2.892106 1_565
Al0 Al5 2.892106 1_655
Al0 Al7 2.987609 1_665
Al0 Zr2 3.079051 1_565
Al0 Zr1 3.079052 1_655
Al0 Zr0 3.181376 1_555
Al1 Rh0 2.532507 1_656
Al1 Rh2 2.661969 1_655
Al1 Rh3 2.661983 1_656
Al1 Al10 2.700480 1_655
Al1 Cu1 2.749358 1_556
Al1 Al8 2.766986 1_556
Al1 Al11 2.766986 1_555
Al1 Al4 2.892106 1_655
Al1 Al7 2.892131 1_656
Al1 Al6 2.987585 1_556
Al1 Zr4 3.079037 1_555
Al1 Zr2 3.079052 1_556
Al1 Zr3 3.181391 1_655
Al2 Rh0 2.532507 1_566
Al2 Rh1 2.661969 1_565
Al2 Rh4 2.661983 1_566
Al2 Al9 2.700481 1_565
Al2 Cu1 2.749358 1_556
Al2 Al8 2.766986 1_556
Al2 Al4 2.892106 1_565
Al2 Al7 2.892131 1_566
Al2 Al5 2.987585 1_556
Al2 Zr5 3.079037 1_555
Al2 Zr1 3.079052 1_556
Al2 Zr3 3.181390 1_565
Al3 Rh0 2.532521 1_666
Al3 Rh3 2.661969 1_656
Al3 Rh4 2.661969 1_566
Al3 Al8 2.700481 1_556
Al3 Cu0 2.749358 1_665
Al3 Al9 2.766986 1_565
Al3 Al6 2.892131 1_566
Al3 Al5 2.892131 1_656
Al3 Al4 2.987609 1_665
Al3 Zr4 3.079048 1_565
Al3 Zr5 3.079048 1_655
Al3 Zr0 3.181387 1_556
Al4 Rh0 2.532507 1_556
Al4 Rh2 2.661969 1_555
Al4 Rh1 2.661970 1_555
Al4 Cu0 2.749372 1_555
Al4 Zr5 3.079051 1_545
Al4 Zr4 3.079052 1_455
Al4 Zr3 3.181376 1_555
Al5 Rh0 2.532507 1_565
Al5 Rh2 2.661969 1_555
Al5 Rh3 2.661983 1_555
Al5 Cu1 2.749358 1_555
Al5 Zr1 3.079037 1_555
Al5 Zr5 3.079052 1_554
Al5 Zr0 3.181391 1_455
Al6 Rh0 2.532507 1_655
Al6 Rh1 2.661969 1_555
Al6 Rh4 2.661983 1_555
Al6 Cu1 2.749358 1_555
Al6 Zr2 3.079037 1_555
Al6 Zr4 3.079052 1_554
Al6 Zr0 3.181390 1_545
Al7 Rh0 2.532521 1_555
Al7 Rh3 2.661969 1_555
Al7 Rh4 2.661969 1_555
Al7 Cu0 2.749358 1_555
Al7 Zr1 3.079048 1_545
Al7 Zr2 3.079048 1_455
Al7 Zr3 3.181387 1_554
Al8 Cu1 2.457671 1_555
Al8 Rh4 2.517753 1_565
Al8 Rh3 2.517753 1_655
Al8 Zr2 2.887245 1_555
Al8 Zr1 2.887245 1_555
Al8 Zr0 2.912384 1_555
Al9 Cu0 2.457686 1_655
Al9 Rh1 2.517738 1_555
Al9 Rh4 2.517753 1_556
Al9 Zr2 2.887245 1_555
Al9 Zr4 2.887255 1_555
Al9 Zr3 2.912374 1_555
Al10 Cu0 2.457685 1_565
Al10 Rh2 2.517738 1_555
Al10 Rh3 2.517753 1_556
Al10 Al3 2.766986 1_455
Al10 Zr1 2.887245 1_555
Al10 Zr5 2.887255 1_555
Al10 Zr3 2.912374 1_555
Al11 Cu1 2.457681 1_556
Al11 Rh1 2.517748 1_565
Al11 Rh2 2.517748 1_655
Al11 Al2 2.766986 1_555
Al11 Zr4 2.887238 1_555
Al11 Zr5 2.887238 1_555
Al11 Zr0 2.912366 1_555
Al12 Cu1 2.457671 1_556
Al12 Rh4 2.517753 1_556
Al12 Rh3 2.517753 1_556
Al12 Al7 2.700481 1_556
Al12 Al5 2.766986 1_556
Al12 Al6 2.766986 1_556
Al12 Zr5 2.887245 1_555
Al12 Zr4 2.887245 1_555
Al12 Zr3 2.912384 1_555
Al13 Cu0 2.457686 1_565
Al13 Rh1 2.517738 1_565
Al13 Rh4 2.517753 1_565
Al13 Al6 2.700481 1_565
Al13 Al4 2.766986 1_565
Al13 Al7 2.766986 1_565
Al13 Zr5 2.887245 1_555
Al13 Zr1 2.887255 1_555
Al13 Zr0 2.912374 1_555
Al14 Cu0 2.457685 1_655
Al14 Rh2 2.517738 1_655
Al14 Rh3 2.517753 1_655
Al14 Al5 2.700480 1_655
Al14 Al4 2.766986 1_655
Al14 Al7 2.766986 1_655
Al14 Zr4 2.887245 1_555
Al14 Zr2 2.887255 1_555
Al14 Zr0 2.912374 1_555
Al15 Cu1 2.457681 1_555
Al15 Rh1 2.517748 1_555
Al15 Rh2 2.517748 1_555
Al15 Al4 2.700481 1_555
Al15 Al5 2.766986 1_555
Al15 Al6 2.766986 1_555
Al15 Zr1 2.887238 1_555
Al15 Zr2 2.887238 1_555
Al15 Zr3 2.912366 1_555
Cu0 Zr4 3.143797 1_455
Cu0 Zr1 3.143797 1_545
Cu0 Zr5 3.143797 1_545
Cu0 Zr2 3.143797 1_455
Cu1 Zr2 3.143797 1_555
Cu1 Zr5 3.143797 1_554
Cu1 Zr1 3.143797 1_555
Cu1 Zr4 3.143797 1_554
Rh1 Zr2 3.087489 1_555
Rh1 Zr5 3.087489 1_545
Rh1 Zr3 3.209912 1_555
Rh1 Zr0 3.209912 1_545
Rh2 Zr1 3.087489 1_555
Rh2 Zr4 3.087489 1_455
Rh2 Zr3 3.209912 1_555
Rh2 Zr0 3.209912 1_455
Rh3 Zr5 3.087489 1_554
Rh3 Zr2 3.087489 1_455
Rh3 Zr0 3.209912 1_455
Rh3 Zr3 3.209912 1_554
Rh4 Zr4 3.087489 1_554
Rh4 Zr1 3.087489 1_545
Rh4 Zr0 3.209912 1_545
Rh4 Zr3 3.209912 1_554
