# generated using pymatgen
data_H18SO12
_symmetry_space_group_name_H-M   'P 1'
_cell_length_a   7.34269965
_cell_length_b   7.34269965
_cell_length_c   11.57721716
_cell_angle_alpha   71.57521752
_cell_angle_beta   71.57521752
_cell_angle_gamma   89.97114682
_symmetry_Int_Tables_number   1
_chemical_formula_structural   H18SO12
_chemical_formula_sum   'H36 S2 O24'
_cell_volume   558.40038022
_cell_formula_units_Z   2
loop_
 _symmetry_equiv_pos_site_id
 _symmetry_equiv_pos_as_xyz
  1  'x, y, z'
loop_
 _atom_site_type_symbol
 _atom_site_label
 _atom_site_symmetry_multiplicity
 _atom_site_fract_x
 _atom_site_fract_y
 _atom_site_fract_z
 _atom_site_occupancy
  H  H0  1  0.84355981  0.32310658  0.60512637  1
  H  H1  1  0.32310658  0.84355981  0.10512637  1
  H  H2  1  0.94552543  0.16281979  0.54879866  1
  H  H3  1  0.16281979  0.94552543  0.04879866  1
  H  H4  1  0.15771092  0.67818059  0.89413386  1
  H  H5  1  0.67818059  0.15771092  0.39413386  1
  H  H6  1  0.05528291  0.46138916  0.95116293  1
  H  H7  1  0.46138916  0.05528291  0.45116293  1
  H  H8  1  0.10913724  0.35935998  0.53387013  1
  H  H9  1  0.35935998  0.10913724  0.03387013  1
  H  H10  1  0.25310163  0.53846704  0.54998200  1
  H  H11  1  0.53846704  0.25310163  0.04998200  1
  H  H12  1  0.29664110  0.31905016  0.60652084  1
  H  H13  1  0.31905016  0.29664110  0.10652084  1
  H  H14  1  0.70401760  0.67521735  0.89407322  1
  H  H15  1  0.67521735  0.70401760  0.39407322  1
  H  H16  1  0.74784940  0.83847631  0.94988494  1
  H  H17  1  0.83847631  0.74784940  0.44988494  1
  H  H18  1  0.89340496  0.64329981  0.96601672  1
  H  H19  1  0.64329981  0.89340496  0.46601672  1
  H  H20  1  0.54883592  0.27709364  0.73368233  1
  H  H21  1  0.27709364  0.54883592  0.23368233  1
  H  H22  1  0.70544206  0.23616037  0.80457790  1
  H  H23  1  0.23616037  0.70544206  0.30457790  1
  H  H24  1  0.29556993  0.79077470  0.69486851  1
  H  H25  1  0.79077470  0.29556993  0.19486851  1
  H  H26  1  0.54296945  0.66056926  0.25569593  1
  H  H27  1  0.66056926  0.54296945  0.75569593  1
  H  H28  1  0.75817644  0.76555564  0.19535483  1
  H  H29  1  0.76555564  0.75817644  0.69535483  1
  H  H30  1  0.20308571  0.23452847  0.30517307  1
  H  H31  1  0.23452847  0.20308571  0.80517307  1
  H  H32  1  0.04867535  0.33978203  0.24424657  1
  H  H33  1  0.33978203  0.04867535  0.74424657  1
  H  H34  1  0.76080089  0.45159708  0.26631187  1
  H  H35  1  0.45159708  0.76080089  0.76631187  1
  S  S0  1  0.12508097  0.87488986  0.50001029  1
  S  S1  1  0.87488986  0.12508097  0.00001029  1
  O  O0  1  0.95225525  0.30420176  0.53272288  1
  O  O1  1  0.30420176  0.95225525  0.03272288  1
  O  O2  1  0.04918420  0.58711561  0.96686809  1
  O  O3  1  0.58711561  0.04918420  0.46686809  1
  O  O4  1  0.26155835  0.41267816  0.53388098  1
  O  O5  1  0.41267816  0.26155835  0.03388098  1
  O  O6  1  0.73963971  0.69666341  0.96636574  1
  O  O7  1  0.69666341  0.73963971  0.46636574  1
  O  O8  1  0.67465356  0.32920221  0.73247313  1
  O  O9  1  0.32920221  0.67465356  0.23247313  1
  O  O10  1  0.32560515  0.81143224  0.76734107  1
  O  O11  1  0.81143224  0.32560515  0.26734107  1
  O  O12  1  0.33997345  0.18915732  0.73154881  1
  O  O13  1  0.18915732  0.33997345  0.23154881  1
  O  O14  1  0.66000522  0.67061618  0.76869802  1
  O  O15  1  0.67061618  0.66000522  0.26869802  1
  O  O16  1  0.94761066  0.92615691  0.58191428  1
  O  O17  1  0.92615691  0.94761066  0.08191428  1
  O  O18  1  0.25772127  0.05281595  0.41918043  1
  O  O19  1  0.05281595  0.25772127  0.91918043  1
  O  O20  1  0.22248607  0.74116287  0.58051763  1
  O  O21  1  0.74116287  0.22248607  0.08051763  1
  O  O22  1  0.07258475  0.77911319  0.41839696  1
  O  O23  1  0.77911319  0.07258475  0.91839696  1
loop_
_geom_bond_atom_site_label_1
_geom_bond_atom_site_label_2
_geom_bond_distance
_geom_bond_site_symmetry_2
H0 O0 1.004709 1_555
H0 O8 1.612334 1_555
H1 O1 1.004709 1_555
H1 O9 1.612334 1_555
H2 O0 0.993424 1_555
H2 O16 1.658169 1_545
H3 O1 0.993424 1_555
H3 O17 1.658169 1_455
H4 O2 1.005806 1_555
H4 O10 1.606642 1_555
H5 O3 1.005806 1_555
H5 O11 1.606642 1_555
H6 O2 0.994095 1_555
H6 O19 1.651712 1_555
H7 O3 0.994095 1_555
H7 O18 1.651712 1_555
H8 O4 1.185918 1_555
H8 O0 1.226667 1_455
H9 O5 1.185918 1_555
H9 O1 1.226667 1_545
H10 O4 0.996570 1_555
H10 O20 1.634830 1_555
H11 O5 0.996570 1_555
H11 O21 1.634830 1_555
H12 O4 1.008721 1_555
H12 O12 1.588784 1_555
H13 O5 1.008721 1_555
H13 O13 1.588784 1_555
H14 O6 1.007682 1_555
H14 O14 1.593720 1_555
H15 O7 1.007682 1_555
H15 O15 1.593720 1_555
H16 O6 0.995754 1_555
H16 O23 1.640699 1_565
H17 O7 0.995754 1_555
H17 O22 1.640699 1_655
H18 O6 1.194144 1_555
H18 O2 1.217678 1_655
H19 O7 1.194144 1_555
H19 O3 1.217678 1_565
H20 O8 0.994419 1_555
H21 O9 0.994419 1_555
H22 O8 0.986573 1_555
H22 O23 1.709113 1_555
H23 O9 0.986573 1_555
H23 O22 1.709113 1_555
H24 O10 0.986441 1_555
H24 O20 1.710970 1_555
H25 O11 0.986441 1_555
H25 O21 1.710970 1_555
H26 O15 0.994957 1_555
H27 O14 0.994957 1_555
H28 O15 0.987138 1_555
H28 O17 1.703254 1_555
H29 O14 0.987138 1_555
H29 O16 1.703254 1_555
H30 O13 0.987071 1_555
H30 O18 1.704188 1_555
H31 O12 0.987071 1_555
H31 O19 1.704188 1_555
H32 O13 0.994815 1_555
H33 O12 0.994815 1_555
H34 O11 0.994832 1_555
H35 O10 0.994832 1_555
O16 S0 1.477497 1_655
O17 S1 1.477497 1_565
O18 S0 1.477649 1_545
O19 S1 1.477649 1_456
O20 S0 1.478708 1_555
O21 S1 1.478708 1_555
O22 S0 1.478659 1_555
O23 S1 1.478659 1_556
