# generated using pymatgen
data_YSc5H18
_symmetry_space_group_name_H-M   'P 1'
_cell_length_a   5.90926027
_cell_length_b   5.92348836
_cell_length_c   6.19764004
_cell_angle_alpha   90.13076377
_cell_angle_beta   89.93445544
_cell_angle_gamma   120.07967294
_symmetry_Int_Tables_number   1
_chemical_formula_structural   YSc5H18
_chemical_formula_sum   'Y1 Sc5 H18'
_cell_volume   187.72291044
_cell_formula_units_Z   1
loop_
 _symmetry_equiv_pos_site_id
 _symmetry_equiv_pos_as_xyz
  1  'x, y, z'
loop_
 _atom_site_type_symbol
 _atom_site_label
 _atom_site_symmetry_multiplicity
 _atom_site_fract_x
 _atom_site_fract_y
 _atom_site_fract_z
 _atom_site_occupancy
  Y  Y0  1  1.00000000  0.66830235  0.25032738  1
  Sc  Sc0  1  0.67393023  0.67562234  0.75146895  1
  Sc  Sc1  1  0.32606977  0.00169211  0.75146895  1
  Sc  Sc2  1  1.00000000  0.31987384  0.75170061  1
  Sc  Sc3  1  0.33228324  0.33315284  0.24799707  1
  Sc  Sc4  1  0.66771676  0.00086960  0.24799707  1
  H  H0  1  0.28162496  0.27905250  0.58648980  1
  H  H1  1  0.71837504  0.99742753  0.58648980  1
  H  H2  1  0.00000000  0.73100023  0.59494804  1
  H  H3  1  0.67604214  0.68514471  0.08634318  1
  H  H4  1  0.32395786  0.00910357  0.08634318  1
  H  H5  1  0.00000000  0.31300833  0.08992605  1
  H  H6  1  0.35132403  0.35194584  0.90681349  1
  H  H7  1  0.64867597  0.00062181  0.90681349  1
  H  H8  1  1.00000000  0.64535638  0.89622374  1
  H  H9  1  0.63057688  0.63414953  0.41586818  1
  H  H10  1  0.36942312  0.00357365  0.41586818  1
  H  H11  1  0.00000000  0.35030391  0.42015525  1
  H  H12  1  1.00000000  0.99819812  0.82976116  1
  H  H13  1  1.00000000  0.01515506  0.29117094  1
  H  H14  1  0.33087331  0.66578596  0.70782785  1
  H  H15  1  0.66912669  0.33491165  0.70782785  1
  H  H16  1  0.65263558  0.31919136  0.21309239  1
  H  H17  1  0.34736442  0.66655677  0.21309239  1
loop_
_geom_bond_atom_site_label_1
_geom_bond_atom_site_label_2
_geom_bond_distance
_geom_bond_site_symmetry_2
H0 Sc1 2.062648 1_555
H0 Sc2 2.067552 1_455
H0 Sc3 2.121032 1_555
H1 Sc0 2.062648 1_555
H1 Sc2 2.067552 1_565
H1 Sc4 2.121032 1_565
H2 Sc0 2.030984 1_455
H2 Sc1 2.030984 1_565
H2 Y0 2.167049 1_455
H3 Sc0 2.075949 1_554
H3 Sc4 2.141811 1_565
H3 Y0 2.214487 1_555
H3 Sc3 2.288392 1_555
H4 Sc1 2.075950 1_554
H4 Sc3 2.141806 1_555
H4 Y0 2.214489 1_445
H4 Sc4 2.288395 1_555
H5 Sc2 2.096687 1_454
H5 Sc3 2.144414 1_555
H5 Sc4 2.144414 1_455
H5 Y0 2.325502 1_455
H6 Sc3 2.117611 1_556
H6 Sc0 2.139517 1_555
H6 Sc2 2.208773 1_455
H6 Sc1 2.221378 1_555
H7 Sc4 2.117611 1_556
H7 Sc1 2.139517 1_555
H7 Sc2 2.208773 1_555
H7 Sc0 2.221378 1_545
H8 Sc2 2.124042 1_555
H8 Y0 2.198502 1_556
H8 Sc0 2.213739 1_555
H8 Sc1 2.213739 1_665
H9 Sc3 2.052757 1_555
H9 Sc0 2.094732 1_555
H9 Sc4 2.319748 1_565
H9 Y0 2.326417 1_555
H10 Sc4 2.052759 1_555
H10 Sc1 2.094732 1_555
H10 Sc3 2.319743 1_555
H10 Y0 2.326420 1_445
H11 Sc2 2.063099 1_455
H11 Y0 2.159872 1_455
H11 Sc3 2.280122 1_555
H11 Sc4 2.280122 1_455
H12 Sc2 1.966970 1_565
H12 Sc1 1.976483 1_665
H12 Sc0 1.976483 1_555
H13 Sc4 1.941346 1_555
H13 Sc3 1.941346 1_655
H13 Y0 2.069539 1_545
H14 Sc0 2.017157 1_555
H14 Sc2 2.020065 1_455
H14 Sc1 2.021671 1_565
H15 Sc1 2.017154 1_555
H15 Sc2 2.020062 1_555
H15 Sc0 2.021676 1_555
H16 Sc4 1.944347 1_555
H16 Sc3 1.947607 1_555
H16 Y0 2.070506 1_555
H17 Sc3 1.944352 1_555
H17 Sc4 1.947604 1_565
H17 Y0 2.070503 1_455
