# generated using pymatgen
data_Hf16Co5Pd2W
_symmetry_space_group_name_H-M   'P 1'
_cell_length_a   8.51001684
_cell_length_b   8.59534639
_cell_length_c   8.53840764
_cell_angle_alpha   60.21889525
_cell_angle_beta   59.88958293
_cell_angle_gamma   60.20942855
_symmetry_Int_Tables_number   1
_chemical_formula_structural   Hf16Co5Pd2W
_chemical_formula_sum   'Hf16 Co5 Pd2 W1'
_cell_volume   442.67798043
_cell_formula_units_Z   1
loop_
 _symmetry_equiv_pos_site_id
 _symmetry_equiv_pos_as_xyz
  1  'x, y, z'
loop_
 _atom_site_type_symbol
 _atom_site_label
 _atom_site_symmetry_multiplicity
 _atom_site_fract_x
 _atom_site_fract_y
 _atom_site_fract_z
 _atom_site_occupancy
  Hf  Hf0  1  0.19397124  0.60133951  0.60234362  1
  Hf  Hf1  1  0.60634189  0.17437894  0.60964008  1
  Hf  Hf2  1  0.60152810  0.60096434  0.19523229  1
  Hf  Hf3  1  0.60152810  0.60096434  0.60227627  1
  Hf  Hf4  1  0.81438381  0.81432974  0.18564373  1
  Hf  Hf5  1  0.18190041  0.19440457  0.81184701  1
  Hf  Hf6  1  0.81295506  0.19829804  0.81224770  1
  Hf  Hf7  1  0.19617920  0.81550056  0.17606822  1
  Hf  Hf8  1  0.19617920  0.81550056  0.81225202  1
  Hf  Hf9  1  0.81295506  0.19829804  0.17649919  1
  Hf  Hf10  1  0.45092024  0.44853514  0.05027181  1
  Hf  Hf11  1  0.05461615  0.05560786  0.44488799  1
  Hf  Hf12  1  0.44430435  0.05538696  0.44575750  1
  Hf  Hf13  1  0.05599778  0.44091529  0.05536385  1
  Hf  Hf14  1  0.05599778  0.44091529  0.44772309  1
  Hf  Hf15  1  0.44430435  0.05538696  0.05455019  1
  Co  Co0  1  0.82149847  0.38476476  0.39686739  1
  Co  Co1  1  0.39060179  0.82760755  0.39089433  1
  Co  Co2  1  0.39556507  0.38586445  0.82119597  1
  Co  Co3  1  0.39556507  0.38586445  0.39737252  1
  Co  Co4  1  0.48345573  0.82917977  0.84368275  1
  Pd  Pd0  1  0.83138864  0.83300171  0.49797358  1
  Pd  Pd1  1  0.83138864  0.83300171  0.83763707  1
  W  W0  1  0.82647788  0.50998346  0.83176983  1
loop_
_geom_bond_atom_site_label_1
_geom_bond_atom_site_label_2
_geom_bond_distance
_geom_bond_site_symmetry_2
Hf0 W0 2.999977 1_455
Hf0 Pd0 3.028362 1_455
Hf0 Pd1 3.028375 1_455
Hf0 Hf5 3.066256 1_555
Hf0 Hf7 3.153817 1_555
Hf0 Hf8 3.153831 1_555
Hf1 Pd0 2.924013 1_545
Hf1 Pd1 2.924013 1_545
Hf1 Hf5 3.078555 1_555
Hf1 Hf15 3.108791 1_556
Hf1 Hf12 3.108805 1_555
Hf1 Hf11 3.121925 1_655
Hf1 Hf6 3.144984 1_555
Hf1 Hf9 3.144992 1_555
Hf2 W0 2.978217 1_554
Hf2 Pd1 2.993598 1_554
Hf2 Hf7 3.045049 1_555
Hf2 Hf9 3.052071 1_555
Hf2 Hf4 3.107135 1_555
Hf3 W0 2.978216 1_555
Hf3 Pd0 2.993598 1_555
Hf3 Hf8 3.045046 1_555
Hf3 Hf6 3.052068 1_555
Hf3 Hf4 3.107135 1_555
Hf4 Pd0 2.827360 1_555
Hf4 Pd1 2.827360 1_554
Hf4 Hf7 3.213796 1_655
Hf4 Hf8 3.213800 1_654
Hf4 Hf9 3.256315 1_565
Hf4 Hf6 3.256319 1_564
Hf5 W0 2.885289 1_455
Hf5 Hf6 3.121534 1_455
Hf5 Hf9 3.121538 1_456
Hf5 Hf8 3.196497 1_545
Hf5 Hf7 3.196502 1_546
Hf6 W0 2.826218 1_555
Hf6 Pd1 2.966274 1_545
Hf6 Hf9 3.110128 1_556
Hf6 Hf8 3.286220 1_645
Hf7 Pd0 2.932579 1_455
Hf7 Hf8 3.106411 1_554
Hf7 Hf9 3.286220 1_465
Hf8 Pd1 2.932575 1_455
Hf9 W0 2.826213 1_554
Hf9 Pd0 2.966278 1_545
Hf10 W0 2.947882 1_554
Hf10 Hf6 3.118344 1_554
Hf10 Hf9 3.118349 1_555
Hf10 Hf3 3.124471 1_554
Hf10 Hf2 3.124485 1_555
Hf10 Hf8 3.168110 1_554
Hf10 Hf7 3.168115 1_555
Hf10 Hf13 3.372005 1_555
Hf10 Hf14 3.372010 1_555
Hf10 Hf15 3.389419 1_555
Hf10 Hf12 3.389419 1_555
Hf11 Pd0 3.059657 1_445
Hf11 Pd1 3.059662 1_445
Hf11 Hf9 3.227276 1_455
Hf11 Hf6 3.227276 1_455
Hf11 Hf7 3.231059 1_545
Hf11 Hf8 3.231059 1_545
Hf12 Pd0 3.012286 1_545
Hf12 Hf8 3.128818 1_545
Hf12 Hf4 3.195864 1_545
Hf12 Hf5 3.200096 1_555
Hf12 Hf9 3.228602 1_555
Hf13 W0 3.045590 1_454
Hf13 Pd1 3.067241 1_454
Hf13 Hf9 3.113404 1_455
Hf13 Hf5 3.137855 1_554
Hf13 Hf4 3.234352 1_455
Hf13 Hf8 3.285013 1_554
Hf14 W0 3.045597 1_455
Hf14 Pd0 3.067244 1_455
Hf14 Hf6 3.113404 1_455
Hf14 Hf5 3.137848 1_555
Hf14 Hf4 3.234347 1_455
Hf14 Hf7 3.285013 1_555
Hf15 Pd1 3.012280 1_544
Hf15 Hf7 3.128815 1_545
Hf15 Hf4 3.195873 1_545
Hf15 Hf5 3.200096 1_554
Hf15 Hf6 3.228602 1_554
Co0 Hf11 2.488943 1_655
Co0 Hf13 2.537415 1_655
Co0 Hf14 2.537426 1_655
Co0 Hf2 2.553504 1_555
Co0 Hf3 2.553522 1_555
Co0 Hf1 2.571412 1_555
Co0 Hf9 3.059944 1_555
Co0 Hf6 3.059960 1_555
Co0 Hf4 3.187728 1_555
Co1 Hf11 2.497091 1_565
Co1 Hf15 2.505267 1_565
Co1 Hf12 2.505273 1_565
Co1 Hf0 2.560590 1_555
Co1 Hf2 2.560783 1_555
Co1 Hf3 2.560801 1_555
Co1 Hf7 3.085222 1_555
Co1 Hf8 3.085237 1_555
Co1 Hf4 3.088489 1_555
Co2 Hf15 2.499402 1_556
Co2 Hf13 2.521143 1_556
Co2 Hf3 2.546410 1_555
Co2 Hf0 2.546865 1_555
Co2 Hf1 2.560405 1_555
Co2 Hf10 2.561455 1_556
Co2 Hf5 3.044703 1_555
Co2 Hf6 3.062930 1_555
Co2 Hf8 3.185244 1_555
Co3 Hf12 2.499399 1_555
Co3 Hf14 2.521137 1_555
Co3 Hf2 2.546411 1_555
Co3 Hf0 2.546865 1_555
Co3 Hf1 2.560423 1_555
Co3 Hf10 2.561447 1_555
Co3 Hf5 3.044708 1_555
Co3 Hf9 3.062925 1_555
Co3 Hf7 3.185239 1_555
Co4 Hf7 2.652878 1_556
Co4 Hf8 2.652883 1_555
Co4 W0 2.842558 1_555
Co4 Hf5 2.891630 1_565
Co4 Hf10 2.927418 1_556
Co4 Pd1 2.951673 1_555
Co4 Pd0 2.951673 1_555
Co4 Hf1 2.997859 1_565
Co4 Hf3 3.014312 1_555
Co4 Hf2 3.014312 1_556
Co4 Hf15 3.060238 1_566
Co4 Hf12 3.060253 1_565
Pd0 W0 2.822856 1_555
Pd0 Pd1 2.900185 1_555
Pd1 W0 2.822856 1_555
