# generated using pymatgen
data_Na3Cd2BiO6
_symmetry_space_group_name_H-M   'P 1'
_cell_length_a   10.99525011
_cell_length_b   10.46371668
_cell_length_c   5.78211952
_cell_angle_alpha   79.51187628
_cell_angle_beta   69.35097915
_cell_angle_gamma   31.13714306
_symmetry_Int_Tables_number   1
_chemical_formula_structural   Na3Cd2BiO6
_chemical_formula_sum   'Na6 Cd4 Bi2 O12'
_cell_volume   311.86637333
_cell_formula_units_Z   2
loop_
 _symmetry_equiv_pos_site_id
 _symmetry_equiv_pos_as_xyz
  1  'x, y, z'
loop_
 _atom_site_type_symbol
 _atom_site_label
 _atom_site_symmetry_multiplicity
 _atom_site_fract_x
 _atom_site_fract_y
 _atom_site_fract_z
 _atom_site_occupancy
  Na  Na0  1  0.58740932  0.58740932  0.91259068  1
  Na  Na1  1  0.91259068  0.91259068  0.58740932  1
  Na  Na2  1  0.66259068  0.66259068  0.33740932  1
  Na  Na3  1  0.33740932  0.33740932  0.66259068  1
  Na  Na4  1  0.50000000  0.50000000  0.50000000  1
  Na  Na5  1  0.75000000  0.75000000  0.75000000  1
  Cd  Cd0  1  0.08159947  0.08159947  0.41840053  1
  Cd  Cd1  1  0.83159947  0.83159947  0.16840053  1
  Cd  Cd2  1  0.41840053  0.41840053  0.08159947  1
  Cd  Cd3  1  0.16840053  0.16840053  0.83159947  1
  Bi  Bi0  1  0.25000000  0.25000000  0.25000000  1
  Bi  Bi1  1  0.00000000  0.00000000  0.00000000  1
  O  O0  1  0.39663198  0.94905925  0.09596469  1
  O  O1  1  0.09596469  0.55834309  0.39663198  1
  O  O2  1  0.55834309  0.09596469  0.94905925  1
  O  O3  1  0.15403531  0.69165691  0.85336802  1
  O  O4  1  0.22535411  0.77464589  0.22535411  1
  O  O5  1  0.30094075  0.85336802  0.69165691  1
  O  O6  1  0.02464589  0.47535411  0.02464589  1
  O  O7  1  0.47535411  0.02464589  0.47535411  1
  O  O8  1  0.69165691  0.15403531  0.30094075  1
  O  O9  1  0.85336802  0.30094075  0.15403531  1
  O  O10  1  0.94905925  0.39663198  0.55834309  1
  O  O11  1  0.77464589  0.22535411  0.77464589  1
loop_
_geom_bond_atom_site_label_1
_geom_bond_atom_site_label_2
_geom_bond_distance
_geom_bond_site_symmetry_2
Na0 O4 2.411927 1_556
Na0 O11 2.411927 1_555
Na0 O5 2.415744 1_555
Na0 O9 2.415749 1_556
Na0 O0 2.479518 1_556
Na0 O10 2.479520 1_555
Na1 O4 2.411927 1_655
Na1 O11 2.411927 1_565
Na1 O8 2.415745 1_565
Na1 O3 2.415750 1_655
Na1 O2 2.479524 1_565
Na1 O1 2.479527 1_655
Na2 O6 2.411927 1_655
Na2 O7 2.411927 1_565
Na2 O10 2.415744 1_555
Na2 O0 2.415749 1_555
Na2 O9 2.479518 1_555
Na2 O5 2.479520 1_555
Na3 O6 2.411927 1_556
Na3 O7 2.411927 1_555
Na3 O2 2.415745 1_555
Na3 O1 2.415750 1_555
Na3 O8 2.479524 1_555
Na3 O3 2.479527 1_555
Na4 O8 2.370140 1_555
Na4 O3 2.370142 1_555
Na4 O9 2.370146 1_555
Na4 O5 2.370149 1_555
Na4 O11 2.600857 1_555
Na4 O4 2.600857 1_555
Na5 O2 2.370140 1_565
Na5 O1 2.370142 1_655
Na5 O0 2.370146 1_556
Na5 O10 2.370149 1_555
Na5 O6 2.600857 1_656
Na5 O7 2.600857 1_565
Cd0 O11 2.330367 1_455
Cd0 O4 2.330368 1_545
Cd0 O9 2.338855 1_455
Cd0 O5 2.338860 1_545
Cd0 O10 2.358095 1_455
Cd0 O0 2.358096 1_545
Cd1 O7 2.330367 1_565
Cd1 O6 2.330368 1_655
Cd1 O1 2.338856 1_655
Cd1 O2 2.338860 1_564
Cd1 O3 2.358102 1_654
Cd1 O8 2.358104 1_565
Cd2 O11 2.330367 1_554
Cd2 O4 2.330368 1_555
Cd2 O3 2.338856 1_554
Cd2 O8 2.338860 1_555
Cd2 O1 2.358102 1_555
Cd2 O2 2.358104 1_554
Cd3 O7 2.330367 1_555
Cd3 O6 2.330368 1_556
Cd3 O0 2.338855 1_546
Cd3 O10 2.338860 1_455
Cd3 O5 2.358095 1_545
Cd3 O9 2.358096 1_456
Bi0 O7 2.134071 1_555
Bi0 O6 2.134071 1_555
Bi0 O1 2.150773 1_555
Bi0 O2 2.150775 1_554
Bi0 O10 2.150779 1_455
Bi0 O0 2.150782 1_545
Bi1 O4 2.134071 1_545
Bi1 O11 2.134071 1_454
Bi1 O3 2.150773 1_544
Bi1 O8 2.150775 1_455
Bi1 O5 2.150779 1_544
Bi1 O9 2.150782 1_455
