# generated using pymatgen
data_Sr5Bi2Pb
_symmetry_space_group_name_H-M   'P 1'
_cell_length_a   9.83406256
_cell_length_b   9.84026897
_cell_length_c   7.55873422
_cell_angle_alpha   90.00000000
_cell_angle_beta   90.00000000
_cell_angle_gamma   120.02087943
_symmetry_Int_Tables_number   1
_chemical_formula_structural   Sr5Bi2Pb
_chemical_formula_sum   'Sr10 Bi4 Pb2'
_cell_volume   633.32733216
_cell_formula_units_Z   2
loop_
 _symmetry_equiv_pos_site_id
 _symmetry_equiv_pos_as_xyz
  1  'x, y, z'
loop_
 _atom_site_type_symbol
 _atom_site_label
 _atom_site_symmetry_multiplicity
 _atom_site_fract_x
 _atom_site_fract_y
 _atom_site_fract_z
 _atom_site_occupancy
  Sr  Sr0  1  0.33412982  0.66706541  0.00000000  1
  Sr  Sr1  1  0.66036049  0.33017974  0.50000000  1
  Sr  Sr2  1  0.66036049  0.33017974  0.00000000  1
  Sr  Sr3  1  0.33412982  0.66706541  0.50000000  1
  Sr  Sr4  1  0.72106550  0.00097353  0.25000000  1
  Sr  Sr5  1  0.72106550  0.72009097  0.75000000  1
  Sr  Sr6  1  0.00556911  0.27831053  0.75000000  1
  Sr  Sr7  1  0.00556911  0.72725858  0.25000000  1
  Sr  Sr8  1  0.27519137  0.27070825  0.25000000  1
  Sr  Sr9  1  0.27519137  0.00448412  0.75000000  1
  Bi  Bi0  1  0.99877575  0.62294241  0.75000000  1
  Bi  Bi1  1  0.99877575  0.37583334  0.25000000  1
  Bi  Bi2  1  0.62811025  0.62706490  0.25000000  1
  Bi  Bi3  1  0.62811025  0.00104535  0.75000000  1
  Pb  Pb0  1  0.37679771  0.99779319  0.25000000  1
  Pb  Pb1  1  0.37679771  0.37900452  0.75000000  1
loop_
_geom_bond_atom_site_label_1
_geom_bond_atom_site_label_2
_geom_bond_distance
_geom_bond_site_symmetry_2
Sr0 Sr3 3.779367 1_554
Sr0 Sr3 3.779367 1_555
Sr0 Sr7 4.034439 1_555
Sr0 Sr6 4.034444 1_554
Sr0 Sr4 4.041726 1_565
Sr0 Sr5 4.041733 1_554
Sr0 Sr8 4.105709 1_555
Sr0 Sr9 4.105709 1_564
Sr1 Sr2 3.779367 1_556
Sr1 Sr2 3.779367 1_555
Sr1 Sr9 4.005312 1_555
Sr1 Sr8 4.005318 1_555
Sr1 Sr5 4.044331 1_555
Sr1 Sr4 4.044331 1_555
Sr1 Sr6 4.133997 1_655
Sr1 Sr7 4.134002 1_655
Sr2 Sr9 4.005312 1_554
Sr2 Sr8 4.005318 1_555
Sr2 Sr5 4.044331 1_554
Sr2 Sr4 4.044331 1_555
Sr2 Sr6 4.133997 1_654
Sr2 Sr7 4.134002 1_655
Sr3 Sr7 4.034439 1_555
Sr3 Sr6 4.034444 1_555
Sr3 Sr4 4.041726 1_565
Sr3 Sr5 4.041733 1_555
Sr3 Sr8 4.105709 1_555
Sr3 Sr9 4.105709 1_565
Bi0 Sr5 3.314326 1_555
Bi0 Sr9 3.357526 1_665
Bi0 Sr6 3.425183 1_655
Bi0 Sr3 3.633555 1_655
Bi0 Sr0 3.633555 1_656
Bi0 Sr2 3.654078 1_556
Bi0 Sr1 3.654078 1_555
Bi0 Sr7 3.908089 1_655
Bi0 Sr7 3.908089 1_656
Bi1 Sr4 3.314333 1_555
Bi1 Sr8 3.357519 1_655
Bi1 Sr7 3.425183 1_655
Bi1 Sr0 3.633559 1_655
Bi1 Sr3 3.633559 1_655
Bi1 Sr1 3.654075 1_555
Bi1 Sr2 3.654075 1_555
Bi1 Sr6 3.908089 1_654
Bi1 Sr6 3.908089 1_655
Bi2 Sr4 3.317801 1_565
Bi2 Sr7 3.329958 1_655
Bi2 Sr8 3.487674 1_555
Bi2 Sr2 3.623998 1_555
Bi2 Sr1 3.623998 1_555
Bi2 Sr3 3.636278 1_555
Bi2 Sr0 3.636278 1_555
Bi2 Sr5 3.888429 1_555
Bi2 Sr5 3.888429 1_554
Bi3 Sr5 3.317810 1_545
Bi3 Sr6 3.329958 1_655
Bi3 Sr9 3.487679 1_555
Bi3 Sr2 3.623989 1_556
Bi3 Sr1 3.623989 1_555
Bi3 Sr0 3.636273 1_546
Bi3 Sr3 3.636273 1_545
Bi3 Sr4 3.888431 1_555
Bi3 Sr4 3.888431 1_556
Pb0 Sr7 3.269513 1_555
Pb0 Sr8 3.300869 1_565
Pb0 Sr4 3.370002 1_565
Pb0 Sr1 3.594225 1_565
Pb0 Sr2 3.594225 1_565
Pb0 Sr3 3.601665 1_555
Pb0 Sr0 3.601665 1_555
Pb0 Sr9 3.918187 1_565
Pb0 Sr9 3.918187 1_564
Pb1 Sr6 3.269513 1_555
Pb1 Sr9 3.300860 1_555
Pb1 Sr5 3.369997 1_555
Pb1 Sr1 3.594231 1_555
Pb1 Sr2 3.594231 1_556
Pb1 Sr0 3.601673 1_556
Pb1 Sr3 3.601673 1_555
Pb1 Sr8 3.918185 1_556
Pb1 Sr8 3.918185 1_555
