# generated using pymatgen
data_CaCdIn4O8
_symmetry_space_group_name_H-M   'P 1'
_cell_length_a   6.54926936
_cell_length_b   6.54926978
_cell_length_c   6.54926932
_cell_angle_alpha   60.00000233
_cell_angle_beta   60.00000024
_cell_angle_gamma   60.00000507
_symmetry_Int_Tables_number   1
_chemical_formula_structural   CaCdIn4O8
_chemical_formula_sum   'Ca1 Cd1 In4 O8'
_cell_volume   198.63858377
_cell_formula_units_Z   1
loop_
 _symmetry_equiv_pos_site_id
 _symmetry_equiv_pos_as_xyz
  1  'x, y, z'
loop_
 _atom_site_type_symbol
 _atom_site_label
 _atom_site_symmetry_multiplicity
 _atom_site_fract_x
 _atom_site_fract_y
 _atom_site_fract_z
 _atom_site_occupancy
  Ca  Ca0  1  0.00000000  0.00000000  0.00000000  1
  Cd  Cd0  1  0.25000000  0.25000000  0.25000000  1
  In  In0  1  0.62561174  0.62561174  0.62561174  1
  In  In1  1  0.62561174  0.12316578  0.62561174  1
  In  In2  1  0.62561174  0.62561174  0.12316578  1
  In  In3  1  0.12316578  0.62561174  0.62561174  1
  O  O0  1  0.41730971  0.86089710  0.86089710  1
  O  O1  1  0.86089710  0.86089710  0.41730971  1
  O  O2  1  0.86089710  0.86089710  0.86089710  1
  O  O3  1  0.83515911  0.38827996  0.38827996  1
  O  O4  1  0.38827996  0.83515911  0.38827996  1
  O  O5  1  0.38827996  0.38827996  0.83515911  1
  O  O6  1  0.86089710  0.41730971  0.86089710  1
  O  O7  1  0.38827996  0.38827996  0.38827996  1
loop_
_geom_bond_atom_site_label_1
_geom_bond_atom_site_label_2
_geom_bond_distance
_geom_bond_site_symmetry_2
Ca0 O2 2.231540 1_444
Ca0 O1 2.231545 1_445
Ca0 O0 2.231545 1_544
Ca0 O6 2.231546 1_454
Cd0 O7 2.218338 1_555
Cd0 O5 2.218343 1_554
Cd0 O3 2.218343 1_455
Cd0 O4 2.218344 1_545
In0 O1 2.186382 1_555
In0 O6 2.186382 1_555
In0 O0 2.186382 1_555
In0 O5 2.205701 1_555
In0 O4 2.205701 1_555
In0 O3 2.205701 1_555
In1 O0 2.186382 1_545
In1 O2 2.186382 1_545
In1 O1 2.186382 1_545
In1 O3 2.205692 1_555
In1 O5 2.205692 1_555
In1 O7 2.205700 1_555
In2 O2 2.186382 1_554
In2 O6 2.186382 1_554
In2 O0 2.186382 1_554
In2 O4 2.205692 1_555
In2 O3 2.205692 1_555
In2 O7 2.205700 1_555
In3 O6 2.186382 1_455
In3 O2 2.186382 1_455
In3 O1 2.186382 1_455
In3 O4 2.205692 1_555
In3 O5 2.205692 1_555
In3 O7 2.205700 1_555
