# generated using pymatgen
data_HfPd(SeO3)4
_symmetry_space_group_name_H-M   'P 1'
_cell_length_a   7.99062405
_cell_length_b   8.32486814
_cell_length_c   8.17747023
_cell_angle_alpha   90.93951205
_cell_angle_beta   90.00000000
_cell_angle_gamma   90.00000000
_symmetry_Int_Tables_number   1
_chemical_formula_structural   HfPd(SeO3)4
_chemical_formula_sum   'Hf2 Pd2 Se8 O24'
_cell_volume   543.89947963
_cell_formula_units_Z   2
loop_
 _symmetry_equiv_pos_site_id
 _symmetry_equiv_pos_as_xyz
  1  'x, y, z'
loop_
 _atom_site_type_symbol
 _atom_site_label
 _atom_site_symmetry_multiplicity
 _atom_site_fract_x
 _atom_site_fract_y
 _atom_site_fract_z
 _atom_site_occupancy
  Hf  Hf0  1  0.00000000  0.50000000  0.00000000  1
  Hf  Hf1  1  0.50000000  0.50000000  0.50000000  1
  Pd  Pd0  1  0.00000000  0.00000000  0.50000000  1
  Pd  Pd1  1  0.50000000  0.00000000  0.00000000  1
  Se  Se0  1  0.34558094  0.69343059  0.15975012  1
  Se  Se1  1  0.84558094  0.30656941  0.34024988  1
  Se  Se2  1  0.68586846  0.85291636  0.68338293  1
  Se  Se3  1  0.18586846  0.14708364  0.81661707  1
  Se  Se4  1  0.65441906  0.30656941  0.84024988  1
  Se  Se5  1  0.15441906  0.69343059  0.65975012  1
  Se  Se6  1  0.31413154  0.14708364  0.31661707  1
  Se  Se7  1  0.81413154  0.85291636  0.18338293  1
  O  O0  1  0.24668870  0.55661365  0.03771195  1
  O  O1  1  0.74668870  0.44338635  0.46228805  1
  O  O2  1  0.75315656  0.98451630  0.53425179  1
  O  O3  1  0.25315656  0.01548370  0.96574821  1
  O  O4  1  0.53106577  0.98101582  0.75838014  1
  O  O5  1  0.47688911  0.56994203  0.26124131  1
  O  O6  1  0.97688911  0.43005797  0.23875869  1
  O  O7  1  0.03106577  0.01898418  0.74161986  1
  O  O8  1  0.98927127  0.23757808  0.48245494  1
  O  O9  1  0.56334029  0.73190944  0.56593138  1
  O  O10  1  0.48927127  0.76242192  0.01754506  1
  O  O11  1  0.06334029  0.26809056  0.93406862  1
  O  O12  1  0.75331130  0.44338635  0.96228805  1
  O  O13  1  0.25331130  0.55661365  0.53771195  1
  O  O14  1  0.24684344  0.01548370  0.46574821  1
  O  O15  1  0.74684344  0.98451630  0.03425179  1
  O  O16  1  0.46893423  0.01898418  0.24161986  1
  O  O17  1  0.52311089  0.43005797  0.73875869  1
  O  O18  1  0.02311089  0.56994203  0.76124131  1
  O  O19  1  0.96893423  0.98101582  0.25838014  1
  O  O20  1  0.01072873  0.76242192  0.51754506  1
  O  O21  1  0.43665971  0.26809056  0.43406862  1
  O  O22  1  0.51072873  0.23757808  0.98245494  1
  O  O23  1  0.93665971  0.73190944  0.06593138  1
loop_
_geom_bond_atom_site_label_1
_geom_bond_atom_site_label_2
_geom_bond_distance
_geom_bond_site_symmetry_2
Hf0 O0 2.048921 1_555
Hf0 O12 2.048921 1_454
Hf0 O6 2.054857 1_455
Hf0 O18 2.054857 1_554
Hf0 O11 2.059124 1_554
Hf0 O23 2.059124 1_455
Hf1 O1 2.048921 1_555
Hf1 O13 2.048921 1_555
Hf1 O17 2.054857 1_555
Hf1 O5 2.054857 1_555
Hf1 O9 2.059124 1_555
Hf1 O21 2.059124 1_555
O0 Se0 1.697166 1_555
O1 Se1 1.697166 1_555
O2 Se2 1.737918 1_555
O2 Pd0 1.996683 1_665
O3 Se3 1.737918 1_555
O3 Pd1 1.996683 1_556
O4 Se2 1.738391 1_555
O4 Pd1 1.995068 1_566
O5 Se0 1.695439 1_555
O6 Se1 1.695439 1_555
O7 Se3 1.738391 1_555
O7 Pd0 1.995068 1_555
O8 Se1 1.738495 1_555
O8 Pd0 1.987198 1_655
O9 Se2 1.692373 1_555
O10 Se0 1.738495 1_555
O10 Pd1 1.987198 1_565
O11 Se3 1.692373 1_555
O12 Se4 1.697166 1_555
O13 Se5 1.697166 1_555
O14 Se6 1.737918 1_555
O14 Pd0 1.996683 1_555
O15 Se7 1.737918 1_555
O15 Pd1 1.996683 1_565
O16 Se6 1.738391 1_555
O16 Pd1 1.995068 1_555
O17 Se4 1.695439 1_555
O18 Se5 1.695439 1_555
O19 Se7 1.738391 1_555
O19 Pd0 1.995068 1_665
O20 Se5 1.738495 1_555
O20 Pd0 1.987198 1_565
O21 Se6 1.692373 1_555
O22 Se4 1.738495 1_555
O22 Pd1 1.987198 1_556
O23 Se7 1.692373 1_555
