# generated using pymatgen
data_Sc3Nb3(Si2Ru5)2
_symmetry_space_group_name_H-M   'P 1'
_cell_length_a   9.78956157
_cell_length_b   9.78956165
_cell_length_c   3.18745257
_cell_angle_alpha   90.00000000
_cell_angle_beta   90.00000000
_cell_angle_gamma   90.32248401
_symmetry_Int_Tables_number   1
_chemical_formula_structural   Sc3Nb3(Si2Ru5)2
_chemical_formula_sum   'Sc3 Nb3 Si4 Ru10'
_cell_volume   305.46632465
_cell_formula_units_Z   1
loop_
 _symmetry_equiv_pos_site_id
 _symmetry_equiv_pos_as_xyz
  1  'x, y, z'
loop_
 _atom_site_type_symbol
 _atom_site_label
 _atom_site_symmetry_multiplicity
 _atom_site_fract_x
 _atom_site_fract_y
 _atom_site_fract_z
 _atom_site_occupancy
  Sc  Sc0  1  0.17289643  0.82710357  0.00000000  1
  Sc  Sc1  1  0.32648670  0.32914157  0.00000000  1
  Sc  Sc2  1  0.67085843  0.67351330  0.00000000  1
  Nb  Nb0  1  0.49857240  0.99906069  0.00000000  1
  Nb  Nb1  1  0.00093931  0.50142760  0.00000000  1
  Nb  Nb2  1  0.82652643  0.17347357  0.00000000  1
  Si  Si0  1  0.62596277  0.37403723  0.00000000  1
  Si  Si1  1  0.37301958  0.62698042  0.00000000  1
  Si  Si2  1  0.12793369  0.12685046  0.00000000  1
  Si  Si3  1  0.87314954  0.87206631  0.00000000  1
  Ru  Ru0  1  0.50085797  0.49914203  0.50000000  1
  Ru  Ru1  1  0.99544243  0.00455757  0.50000000  1
  Ru  Ru2  1  0.57870526  0.20554896  0.50000000  1
  Ru  Ru3  1  0.43257839  0.79228148  0.50000000  1
  Ru  Ru4  1  0.06186557  0.28928879  0.50000000  1
  Ru  Ru5  1  0.92869609  0.70737277  0.50000000  1
  Ru  Ru6  1  0.29262723  0.07130391  0.50000000  1
  Ru  Ru7  1  0.71071121  0.93813443  0.50000000  1
  Ru  Ru8  1  0.20771852  0.56742161  0.50000000  1
  Ru  Ru9  1  0.79445104  0.42129474  0.50000000  1
loop_
_geom_bond_atom_site_label_1
_geom_bond_atom_site_label_2
_geom_bond_distance
_geom_bond_site_symmetry_2
Sc0 Si1 2.778397 1_555
Sc0 Si3 2.969669 1_455
Sc0 Si2 2.969669 1_565
Sc1 Si2 2.767051 1_555
Sc1 Si1 2.948548 1_555
Sc1 Si0 2.962053 1_555
Sc2 Si3 2.767051 1_555
Sc2 Si1 2.948548 1_555
Sc2 Si0 2.962053 1_555
Nb0 Ru3 2.653361 1_555
Nb0 Ru3 2.653361 1_554
Nb0 Ru6 2.668501 1_565
Nb0 Ru6 2.668501 1_564
Nb0 Ru7 2.687475 1_555
Nb0 Ru7 2.687475 1_554
Nb0 Ru2 2.687690 1_564
Nb0 Ru2 2.687690 1_565
Nb1 Ru8 2.653361 1_555
Nb1 Ru8 2.653361 1_554
Nb1 Ru5 2.668501 1_455
Nb1 Ru5 2.668501 1_454
Nb1 Ru4 2.687475 1_554
Nb1 Ru4 2.687475 1_555
Nb1 Ru9 2.687690 1_454
Nb1 Ru9 2.687690 1_455
Nb2 Si0 2.784513 1_555
Nb2 Ru1 2.835422 1_555
Nb2 Ru1 2.835422 1_554
Nb2 Ru2 2.921114 1_555
Nb2 Ru2 2.921114 1_554
Nb2 Ru9 2.921114 1_555
Nb2 Ru9 2.921114 1_554
Nb2 Si2 2.988274 1_655
Nb2 Si3 2.988274 1_545
Nb2 Ru4 3.017254 1_654
Nb2 Ru4 3.017254 1_655
Nb2 Ru7 3.017254 1_544
Nb2 Ru7 3.017254 1_545
Ru0 Si0 2.357272 1_556
Ru0 Si0 2.357272 1_555
Ru0 Si1 2.385374 1_555
Ru0 Si1 2.385374 1_556
Ru0 Sc1 2.862090 1_555
Ru0 Sc1 2.862090 1_556
Ru0 Sc2 2.862090 1_555
Ru0 Sc2 2.862090 1_556
Ru1 Si2 2.374457 1_656
Ru1 Si2 2.374457 1_655
Ru1 Si3 2.374457 1_545
Ru1 Si3 2.374457 1_546
Ru1 Sc0 2.934219 1_645
Ru1 Sc0 2.934219 1_646
Ru2 Si0 2.337949 1_556
Ru2 Si0 2.337949 1_555
Ru2 Sc1 3.183393 1_555
Ru2 Sc1 3.183393 1_556
Ru3 Si1 2.342637 1_555
Ru3 Si1 2.342637 1_556
Ru3 Sc0 3.021352 1_555
Ru3 Sc0 3.021352 1_556
Ru3 Sc2 3.060005 1_556
Ru3 Sc2 3.060005 1_555
Ru4 Si2 2.344909 1_555
Ru4 Si2 2.344909 1_556
Ru4 Sc1 3.064574 1_555
Ru4 Sc1 3.064574 1_556
Ru5 Si3 2.333445 1_556
Ru5 Si3 2.333445 1_555
Ru5 Sc2 3.001931 1_555
Ru5 Sc2 3.001931 1_556
Ru5 Sc0 3.097952 1_656
Ru5 Sc0 3.097952 1_655
Ru6 Si2 2.333445 1_556
Ru6 Si2 2.333445 1_555
Ru6 Sc1 3.001931 1_555
Ru6 Sc1 3.001931 1_556
Ru6 Sc0 3.097952 1_545
Ru6 Sc0 3.097952 1_546
Ru7 Si3 2.344909 1_556
Ru7 Si3 2.344909 1_555
Ru7 Sc2 3.064574 1_556
Ru7 Sc2 3.064574 1_555
Ru8 Si1 2.342637 1_555
Ru8 Si1 2.342637 1_556
Ru8 Sc0 3.021352 1_555
Ru8 Sc0 3.021352 1_556
Ru8 Sc1 3.060005 1_555
Ru8 Sc1 3.060005 1_556
Ru9 Si0 2.337949 1_555
Ru9 Si0 2.337949 1_556
Ru9 Sc2 3.183393 1_555
Ru9 Sc2 3.183393 1_556
