# generated using pymatgen
data_Lu12InGaTc3
_symmetry_space_group_name_H-M   'P 1'
_cell_length_a   8.18443355
_cell_length_b   8.18443306
_cell_length_c   8.18443356
_cell_angle_alpha   108.43843183
_cell_angle_beta   109.94895649
_cell_angle_gamma   110.03119406
_symmetry_Int_Tables_number   1
_chemical_formula_structural   Lu12InGaTc3
_chemical_formula_sum   'Lu12 In1 Ga1 Tc3'
_cell_volume   421.92778330
_cell_formula_units_Z   1
loop_
 _symmetry_equiv_pos_site_id
 _symmetry_equiv_pos_as_xyz
  1  'x, y, z'
loop_
 _atom_site_type_symbol
 _atom_site_label
 _atom_site_symmetry_multiplicity
 _atom_site_fract_x
 _atom_site_fract_y
 _atom_site_fract_z
 _atom_site_occupancy
  Lu  Lu0  1  0.30614717  0.30264759  0.60879576  1
  Lu  Lu1  1  0.69385283  0.69735241  0.39120424  1
  Lu  Lu2  1  0.69385283  0.30264759  0.99650042  1
  Lu  Lu3  1  0.30614717  0.69735241  0.00349958  1
  Lu  Lu4  1  0.18713965  0.42344159  0.23630293  1
  Lu  Lu5  1  0.81286035  0.57655841  0.76369707  1
  Lu  Lu6  1  0.18713965  0.95083572  0.76369707  1
  Lu  Lu7  1  0.93861905  0.18800548  0.75061558  1
  Lu  Lu8  1  0.81286035  0.04916428  0.23630293  1
  Lu  Lu9  1  0.06138095  0.81199452  0.24938442  1
  Lu  Lu10  1  0.43738990  0.18800548  0.24938442  1
  Lu  Lu11  1  0.56261010  0.81199452  0.75061558  1
  In  In0  1  0.00000000  0.50000000  0.50000000  1
  Ga  Ga0  1  0.50000000  0.00000000  0.50000000  1
  Tc  Tc0  1  0.37288267  0.37288267  0.00000000  1
  Tc  Tc1  1  0.62711733  0.62711733  1.00000000  1
  Tc  Tc2  1  0.00000000  0.00000000  0.00000000  1
loop_
_geom_bond_atom_site_label_1
_geom_bond_atom_site_label_2
_geom_bond_distance
_geom_bond_site_symmetry_2
Lu0 Tc0 2.882280 1_556
Lu0 Tc1 2.882284 1_555
Lu1 Tc1 2.882280 1_554
Lu1 Tc0 2.882284 1_555
Lu2 Tc1 2.882288 1_555
Lu2 Tc0 2.882288 1_556
Lu3 Tc0 2.882288 1_555
Lu3 Tc1 2.882288 1_554
Lu4 Tc0 2.855439 1_555
Lu4 Tc2 2.863454 1_555
Lu5 Tc1 2.855439 1_555
Lu5 Tc2 2.863454 1_666
Lu6 Tc0 2.855446 1_566
Lu6 Tc2 2.863462 1_566
Lu7 Tc0 2.915453 1_656
Lu7 Tc2 2.933010 1_656
Lu8 Tc1 2.855446 1_544
Lu8 Tc2 2.863462 1_655
Lu9 Tc1 2.915453 1_454
Lu9 Tc2 2.933010 1_565
Lu10 Tc0 2.915440 1_555
Lu10 Tc2 2.933008 1_555
Lu11 Tc1 2.915440 1_555
Lu11 Tc2 2.933008 1_666
In0 Lu6 3.074732 1_555
In0 Lu8 3.074732 1_455
In0 Lu5 3.074740 1_455
In0 Lu4 3.074740 1_555
In0 Lu2 3.440922 1_454
In0 Lu3 3.440922 1_556
In0 Lu0 3.440923 1_555
In0 Lu1 3.440923 1_455
In0 Lu11 3.757314 1_555
In0 Lu10 3.757314 1_455
In0 Lu9 3.757315 1_555
In0 Lu7 3.757315 1_455
Ga0 Lu7 2.942243 1_555
Ga0 Lu9 2.942243 1_545
Ga0 Lu11 2.942256 1_545
Ga0 Lu10 2.942256 1_555
Ga0 Lu3 3.421502 1_545
Ga0 Lu2 3.421502 1_555
Ga0 Lu0 3.421503 1_555
Ga0 Lu1 3.421503 1_545
Tc0 Tc1 2.386029 1_554
