# generated using pymatgen
data_TcNiO4F
_symmetry_space_group_name_H-M   'P 1'
_cell_length_a   5.51515631
_cell_length_b   5.57583964
_cell_length_c   7.32654403
_cell_angle_alpha   104.60354135
_cell_angle_beta   106.38555005
_cell_angle_gamma   100.41843926
_symmetry_Int_Tables_number   1
_chemical_formula_structural   TcNiO4F
_chemical_formula_sum   'Tc2 Ni2 O8 F2'
_cell_volume   201.31881587
_cell_formula_units_Z   2
loop_
 _symmetry_equiv_pos_site_id
 _symmetry_equiv_pos_as_xyz
  1  'x, y, z'
loop_
 _atom_site_type_symbol
 _atom_site_label
 _atom_site_symmetry_multiplicity
 _atom_site_fract_x
 _atom_site_fract_y
 _atom_site_fract_z
 _atom_site_occupancy
  Tc  Tc0  1  0.32157221  0.64304222  0.76980829  1
  Tc  Tc1  1  0.67842779  0.35695778  0.23019171  1
  Ni  Ni0  1  0.00000000  0.00000000  0.00000000  1
  Ni  Ni1  1  0.00000000  0.00000000  0.50000000  1
  O  O0  1  0.89680663  0.32716538  0.10621632  1
  O  O1  1  0.36455622  0.21361544  0.06079364  1
  O  O2  1  0.75270230  0.21216558  0.41118041  1
  O  O3  1  0.70863324  0.67502835  0.34263994  1
  O  O4  1  0.63544378  0.78638456  0.93920636  1
  O  O5  1  0.24729770  0.78783442  0.58881959  1
  O  O6  1  0.29136676  0.32497165  0.65736006  1
  O  O7  1  0.10319337  0.67283462  0.89378368  1
  F  F0  1  0.11233621  0.97839469  0.26954168  1
  F  F1  1  0.88766379  0.02160531  0.73045832  1
loop_
_geom_bond_atom_site_label_1
_geom_bond_atom_site_label_2
_geom_bond_distance
_geom_bond_site_symmetry_2
Ni0 O4 2.005150 1_444
Ni0 O1 2.005150 1_555
Ni0 O0 2.041276 1_455
Ni0 O7 2.041276 1_544
Ni1 O6 2.010710 1_555
Ni1 O3 2.010710 1_445
Ni1 O5 2.038169 1_545
Ni1 O2 2.038169 1_455
O0 Tc1 1.707828 1_555
O1 Tc1 1.721324 1_555
O2 Tc1 1.711989 1_555
O3 Tc1 1.711947 1_555
O4 Tc0 1.721324 1_555
O5 Tc0 1.711989 1_555
O6 Tc0 1.711947 1_555
O7 Tc0 1.707828 1_555
F0 Ni0 1.937754 1_565
F0 Ni1 1.940075 1_565
F1 Ni0 1.937754 1_656
F1 Ni1 1.940075 1_655
