# generated using pymatgen
data_Na2MnH2F8
_symmetry_space_group_name_H-M   'P 1'
_cell_length_a   5.28456022
_cell_length_b   5.37057997
_cell_length_c   5.37063842
_cell_angle_alpha   94.47964301
_cell_angle_beta   106.62362515
_cell_angle_gamma   106.62381155
_symmetry_Int_Tables_number   1
_chemical_formula_structural   Na2MnH2F8
_chemical_formula_sum   'Na2 Mn1 H2 F8'
_cell_volume   137.80977063
_cell_formula_units_Z   1
loop_
 _symmetry_equiv_pos_site_id
 _symmetry_equiv_pos_as_xyz
  1  'x, y, z'
loop_
 _atom_site_type_symbol
 _atom_site_label
 _atom_site_symmetry_multiplicity
 _atom_site_fract_x
 _atom_site_fract_y
 _atom_site_fract_z
 _atom_site_occupancy
  Na  Na0  1  0.50000462  0.73409824  0.26590519  1
  Na  Na1  1  0.49999338  0.26589976  0.73409281  1
  Mn  Mn0  1  0.00000000  0.00000000  0.00000000  1
  H  H0  1  0.78509487  0.34928874  0.34929564  1
  H  H1  1  0.21490513  0.65071226  0.65070536  1
  F  F0  1  0.77419079  0.67604372  0.00109775  1
  F  F1  1  0.78186337  0.13989960  0.13991698  1
  F  F2  1  0.22582008  0.99889353  0.32394568  1
  F  F3  1  0.73411836  0.46154076  0.46154100  1
  F  F4  1  0.26588164  0.53845924  0.53845900  1
  F  F5  1  0.77417992  0.00110747  0.67605532  1
  F  F6  1  0.21813663  0.86009940  0.86008202  1
  F  F7  1  0.22580921  0.32395728  0.99890325  1
loop_
_geom_bond_atom_site_label_1
_geom_bond_atom_site_label_2
_geom_bond_distance
_geom_bond_site_symmetry_2
F0 Mn0 1.807965 1_665
F0 Na1 2.345070 1_554
F0 Na0 2.363802 1_555
F1 H0 1.519825 1_555
F1 Mn0 1.833311 1_655
F1 Na0 2.525036 1_545
F1 Na1 2.525200 1_554
F2 Mn0 1.807974 1_565
F2 Na1 2.345076 1_565
F2 Na0 2.363717 1_555
F3 H0 0.963577 1_555
F3 Na0 2.304334 1_555
F3 Na1 2.304359 1_555
F4 H1 0.963585 1_555
F4 Na1 2.304333 1_555
F4 Na0 2.304357 1_555
F5 Mn0 1.807971 1_656
F5 Na0 2.345095 1_545
F5 Na1 2.363709 1_555
F6 H1 1.519811 1_555
F6 Mn0 1.833317 1_566
F6 Na1 2.525031 1_565
F6 Na0 2.525194 1_556
F7 Mn0 1.807967 1_556
F7 Na0 2.345051 1_556
F7 Na1 2.363810 1_555
