# generated using pymatgen
data_Rb2Re(ClO)3
_symmetry_space_group_name_H-M   'P 1'
_cell_length_a   6.74820116
_cell_length_b   10.53506639
_cell_length_c   11.92817756
_cell_angle_alpha   90.00000000
_cell_angle_beta   90.00000000
_cell_angle_gamma   90.00000000
_symmetry_Int_Tables_number   1
_chemical_formula_structural   Rb2Re(ClO)3
_chemical_formula_sum   'Rb8 Re4 Cl12 O12'
_cell_volume   848.00691237
_cell_formula_units_Z   4
loop_
 _symmetry_equiv_pos_site_id
 _symmetry_equiv_pos_as_xyz
  1  'x, y, z'
loop_
 _atom_site_type_symbol
 _atom_site_label
 _atom_site_symmetry_multiplicity
 _atom_site_fract_x
 _atom_site_fract_y
 _atom_site_fract_z
 _atom_site_occupancy
  Rb  Rb0  1  0.25000000  0.65743526  0.91614356  1
  Rb  Rb1  1  0.25000000  0.15743526  0.58385644  1
  Rb  Rb2  1  0.75000000  0.34256474  0.08385644  1
  Rb  Rb3  1  0.75000000  0.84256474  0.41614356  1
  Rb  Rb4  1  0.25000000  0.96154259  0.17468777  1
  Rb  Rb5  1  0.25000000  0.46154259  0.32531223  1
  Rb  Rb6  1  0.75000000  0.03845741  0.82531223  1
  Rb  Rb7  1  0.75000000  0.53845741  0.67468777  1
  Re  Re0  1  0.25000000  0.68757095  0.56764985  1
  Re  Re1  1  0.25000000  0.18757095  0.93235015  1
  Re  Re2  1  0.75000000  0.31242905  0.43235015  1
  Re  Re3  1  0.75000000  0.81242905  0.06764985  1
  Cl  Cl0  1  0.25000000  0.88522534  0.44309965  1
  Cl  Cl1  1  0.25000000  0.38522534  0.05690035  1
  Cl  Cl2  1  0.75000000  0.11477466  0.55690035  1
  Cl  Cl3  1  0.75000000  0.61477466  0.94309965  1
  Cl  Cl4  1  0.01046249  0.82131353  0.67673599  1
  Cl  Cl5  1  0.48953751  0.32131353  0.82326401  1
  Cl  Cl6  1  0.51046249  0.17868647  0.32326401  1
  Cl  Cl7  1  0.98953751  0.67868647  0.17673599  1
  Cl  Cl8  1  0.98953751  0.17868647  0.32326401  1
  Cl  Cl9  1  0.51046249  0.67868647  0.17673599  1
  Cl  Cl10  1  0.48953751  0.82131353  0.67673599  1
  Cl  Cl11  1  0.01046249  0.32131353  0.82326401  1
  O  O0  1  0.25000000  0.58262322  0.67931745  1
  O  O1  1  0.25000000  0.08262322  0.82068255  1
  O  O2  1  0.75000000  0.41737678  0.32068255  1
  O  O3  1  0.75000000  0.91737678  0.17931745  1
  O  O4  1  0.04778810  0.63734150  0.48888895  1
  O  O5  1  0.45221190  0.13734150  0.01111105  1
  O  O6  1  0.54778810  0.36265850  0.51111105  1
  O  O7  1  0.95221190  0.86265850  0.98888895  1
  O  O8  1  0.95221190  0.36265850  0.51111105  1
  O  O9  1  0.54778810  0.86265850  0.98888895  1
  O  O10  1  0.45221190  0.63734150  0.48888895  1
  O  O11  1  0.04778810  0.13734150  0.01111105  1
loop_
_geom_bond_atom_site_label_1
_geom_bond_atom_site_label_2
_geom_bond_distance
_geom_bond_site_symmetry_2
Cl0 Re0 2.557960 1_555
Cl0 Rb4 3.301073 1_555
Cl0 Rb1 3.323091 1_565
Cl0 Rb3 3.419054 1_555
Cl0 Rb3 3.419054 1_455
Cl1 Re1 2.557960 1_554
Cl1 Rb5 3.301073 1_555
Cl1 Rb0 3.323091 1_554
Cl1 Rb2 3.419054 1_555
Cl1 Rb2 3.419054 1_455
Cl2 Re2 2.557960 1_555
Cl2 Rb6 3.301073 1_555
Cl2 Rb3 3.323091 1_545
Cl2 Rb1 3.419054 1_555
Cl2 Rb1 3.419054 1_655
Cl3 Re3 2.557960 1_556
Cl3 Rb7 3.301073 1_555
Cl3 Rb2 3.323091 1_556
Cl3 Rb0 3.419054 1_555
Cl3 Rb0 3.419054 1_655
Cl4 Re0 2.508239 1_555
Cl4 Rb6 3.385768 1_465
Cl4 Rb7 3.459739 1_455
Cl4 Rb3 3.577929 1_455
Cl4 Rb0 3.707910 1_555
Cl5 Re1 2.508239 1_555
Cl5 Rb7 3.385768 1_555
Cl5 Rb6 3.459739 1_555
Cl5 Rb2 3.577929 1_556
Cl5 Rb1 3.707910 1_555
Cl6 Re2 2.508239 1_555
Cl6 Rb4 3.385768 1_545
Cl6 Rb5 3.459739 1_555
Cl6 Rb1 3.577929 1_555
Cl6 Rb2 3.707910 1_555
Cl7 Re3 2.508239 1_555
Cl7 Rb5 3.385768 1_655
Cl7 Rb4 3.459739 1_655
Cl7 Rb0 3.577929 1_654
Cl7 Rb3 3.707910 1_555
Cl8 Re2 2.508239 1_555
Cl8 Rb4 3.385768 1_645
Cl8 Rb5 3.459739 1_655
Cl8 Rb1 3.577929 1_655
Cl8 Rb2 3.707910 1_555
Cl9 Re3 2.508239 1_555
Cl9 Rb5 3.385768 1_555
Cl9 Rb4 3.459739 1_555
Cl9 Rb0 3.577929 1_554
Cl9 Rb3 3.707910 1_555
Cl10 Re0 2.508239 1_555
Cl10 Rb6 3.385768 1_565
Cl10 Rb7 3.459739 1_555
Cl10 Rb3 3.577929 1_555
Cl10 Rb0 3.707910 1_555
Cl11 Re1 2.508239 1_555
Cl11 Rb7 3.385768 1_455
Cl11 Rb6 3.459739 1_455
Cl11 Rb2 3.577929 1_456
Cl11 Rb1 3.707910 1_555
O0 Re0 1.731075 1_555
O0 Rb0 2.932791 1_555
O0 Rb7 3.406479 1_555
O0 Rb7 3.406479 1_455
O1 Re1 1.731075 1_555
O1 Rb1 2.932791 1_555
O1 Rb6 3.406479 1_555
O1 Rb6 3.406479 1_455
O2 Re2 1.731075 1_555
O2 Rb2 2.932791 1_555
O2 Rb5 3.406479 1_555
O2 Rb5 3.406479 1_655
O3 Re3 1.731075 1_555
O3 Rb3 2.932791 1_555
O3 Rb4 3.406479 1_555
O3 Rb4 3.406479 1_655
O4 Re0 1.739159 1_555
O4 Rb5 3.016491 1_555
O4 Rb3 3.076619 1_455
O4 Rb7 3.167838 1_455
O5 Re1 1.739159 1_554
O5 Rb4 3.016491 1_545
O5 Rb2 3.076619 1_555
O5 Rb6 3.167838 1_554
O6 Re2 1.739159 1_555
O6 Rb7 3.016491 1_555
O6 Rb1 3.076619 1_555
O6 Rb5 3.167838 1_555
O7 Re3 1.739159 1_556
O7 Rb6 3.016491 1_565
O7 Rb0 3.076619 1_655
O7 Rb4 3.167838 1_656
O8 Re2 1.739159 1_555
O8 Rb7 3.016491 1_555
O8 Rb1 3.076619 1_655
O8 Rb5 3.167838 1_655
O9 Re3 1.739159 1_556
O9 Rb6 3.016491 1_565
O9 Rb0 3.076619 1_555
O9 Rb4 3.167838 1_556
O10 Re0 1.739159 1_555
O10 Rb5 3.016491 1_555
O10 Rb3 3.076619 1_555
O10 Rb7 3.167838 1_555
O11 Re1 1.739159 1_554
O11 Rb4 3.016491 1_545
O11 Rb2 3.076619 1_455
O11 Rb6 3.167838 1_454
