# generated using pymatgen
data_Ta3NiOs2C
_symmetry_space_group_name_H-M   'P 1'
_cell_length_a   8.20019426
_cell_length_b   8.20019460
_cell_length_c   8.20019275
_cell_angle_alpha   59.99999950
_cell_angle_beta   59.99999815
_cell_angle_gamma   59.99999782
_symmetry_Int_Tables_number   1
_chemical_formula_structural   Ta3NiOs2C
_chemical_formula_sum   'Ta12 Ni4 Os8 C4'
_cell_volume   389.90369178
_cell_formula_units_Z   4
loop_
 _symmetry_equiv_pos_site_id
 _symmetry_equiv_pos_as_xyz
  1  'x, y, z'
loop_
 _atom_site_type_symbol
 _atom_site_label
 _atom_site_symmetry_multiplicity
 _atom_site_fract_x
 _atom_site_fract_y
 _atom_site_fract_z
 _atom_site_occupancy
  Ta  Ta0  1  0.55634757  0.94365243  0.55634757  1
  Ta  Ta1  1  0.30634757  0.69365243  0.69365243  1
  Ta  Ta2  1  0.69365243  0.30634757  0.30634757  1
  Ta  Ta3  1  0.30634757  0.69365243  0.30634757  1
  Ta  Ta4  1  0.69365243  0.69365243  0.30634757  1
  Ta  Ta5  1  0.30634757  0.30634757  0.69365243  1
  Ta  Ta6  1  0.55634757  0.55634757  0.94365243  1
  Ta  Ta7  1  0.94365243  0.55634757  0.55634757  1
  Ta  Ta8  1  0.55634757  0.94365243  0.94365243  1
  Ta  Ta9  1  0.94365243  0.94365243  0.55634757  1
  Ta  Ta10  1  0.69365243  0.30634757  0.69365243  1
  Ta  Ta11  1  0.94365243  0.55634757  0.94365243  1
  Ni  Ni0  1  0.12500000  0.12500000  0.12500000  1
  Ni  Ni1  1  0.62500000  0.12500000  0.12500000  1
  Ni  Ni2  1  0.12500000  0.62500000  0.12500000  1
  Ni  Ni3  1  0.12500000  0.12500000  0.62500000  1
  Os  Os0  1  0.91751103  0.91751103  0.91751103  1
  Os  Os1  1  0.00253009  0.33248897  0.33248897  1
  Os  Os2  1  0.33248897  0.00253009  0.33248897  1
  Os  Os3  1  0.33248897  0.33248897  0.00253009  1
  Os  Os4  1  0.91751103  0.24746991  0.91751103  1
  Os  Os5  1  0.91751103  0.91751103  0.24746991  1
  Os  Os6  1  0.24746991  0.91751103  0.91751103  1
  Os  Os7  1  0.33248897  0.33248897  0.33248897  1
  C  C0  1  0.62500000  0.62500000  0.62500000  1
  C  C1  1  0.12500000  0.62500000  0.62500000  1
  C  C2  1  0.62500000  0.12500000  0.62500000  1
  C  C3  1  0.62500000  0.62500000  0.12500000  1
loop_
_geom_bond_atom_site_label_1
_geom_bond_atom_site_label_2
_geom_bond_distance
_geom_bond_site_symmetry_2
Ni0 Os2 2.505177 1_555
Ni0 Os4 2.505177 1_454
Ni0 Os1 2.505177 1_555
Ni0 Os6 2.505177 1_544
Ni0 Os3 2.505177 1_555
Ni0 Os5 2.505177 1_445
Ni0 Ta9 2.936927 1_445
Ni0 Ta5 2.936927 1_554
Ni0 Ta2 2.936928 1_455
Ni0 Ta8 2.936928 1_544
Ni0 Ta11 2.936928 1_454
Ni0 Ta3 2.936928 1_545
Ni1 Os7 2.505184 1_555
Ni1 Os0 2.505184 1_544
Ni1 Os5 2.505197 1_545
Ni1 Os3 2.505197 1_555
Ni1 Os4 2.505197 1_554
Ni1 Os2 2.505197 1_555
Ni1 Ta0 2.936927 1_545
Ni1 Ta10 2.936927 1_554
Ni1 Ta2 2.936928 1_555
Ni1 Ta8 2.936928 1_544
Ni1 Ta6 2.936928 1_554
Ni1 Ta4 2.936928 1_545
Ni2 Os7 2.505184 1_555
Ni2 Os0 2.505184 1_454
Ni2 Os5 2.505197 1_455
Ni2 Os3 2.505197 1_555
Ni2 Os6 2.505197 1_554
Ni2 Os1 2.505197 1_555
Ni2 Ta7 2.936927 1_455
Ni2 Ta1 2.936927 1_554
Ni2 Ta3 2.936928 1_555
Ni2 Ta11 2.936928 1_454
Ni2 Ta6 2.936928 1_554
Ni2 Ta4 2.936928 1_455
Ni3 Os7 2.505184 1_555
Ni3 Os0 2.505184 1_445
Ni3 Os4 2.505197 1_455
Ni3 Os2 2.505197 1_555
Ni3 Os6 2.505197 1_545
Ni3 Os1 2.505197 1_555
Ni3 Ta0 2.936928 1_545
Ni3 Ta10 2.936928 1_455
Ni3 Ta5 2.936928 1_555
Ni3 Ta9 2.936928 1_445
Ni3 Ta7 2.936928 1_455
Ni3 Ta1 2.936928 1_545
Os0 Os5 2.705726 1_556
Os0 Os6 2.705727 1_655
Os0 Os4 2.705727 1_565
Os0 Ta9 2.763921 1_555
Os0 Ta8 2.763922 1_555
Os0 Ta11 2.763922 1_555
Os0 Ta4 2.927401 1_556
Os0 Ta1 2.927401 1_655
Os0 Ta10 2.927401 1_565
Os1 Os3 2.705727 1_555
Os1 Os2 2.705727 1_555
Os1 Os7 2.705727 1_555
Os1 Ta2 2.763898 1_455
Os1 Ta10 2.763911 1_455
Os1 Ta4 2.763912 1_455
Os1 Ta11 2.927391 1_454
Os1 Ta9 2.927392 1_445
Os1 Ta7 2.927412 1_455
Os2 Os3 2.705727 1_555
Os2 Os7 2.705727 1_555
Os2 Ta3 2.763898 1_545
Os2 Ta1 2.763911 1_545
Os2 Ta4 2.763912 1_545
Os2 Ta8 2.927391 1_544
Os2 Ta9 2.927391 1_445
Os2 Ta0 2.927412 1_545
Os3 Os7 2.705726 1_555
Os3 Ta5 2.763897 1_554
Os3 Ta10 2.763911 1_554
Os3 Ta1 2.763912 1_554
Os3 Ta11 2.927391 1_454
Os3 Ta8 2.927391 1_544
Os3 Ta6 2.927413 1_554
Os4 Os5 2.705727 1_546
Os4 Os6 2.705727 1_645
Os4 Ta11 2.763898 1_555
Os4 Ta7 2.763911 1_555
Os4 Ta6 2.763912 1_555
Os4 Ta2 2.927391 1_556
Os4 Ta5 2.927391 1_655
Os4 Ta10 2.927412 1_555
Os5 Os6 2.705727 1_654
Os5 Ta9 2.763897 1_555
Os5 Ta0 2.763911 1_555
Os5 Ta7 2.763912 1_555
Os5 Ta3 2.927391 1_655
Os5 Ta2 2.927391 1_565
Os5 Ta4 2.927413 1_555
Os6 Ta8 2.763898 1_555
Os6 Ta0 2.763911 1_555
Os6 Ta6 2.763912 1_555
Os6 Ta3 2.927391 1_556
Os6 Ta5 2.927392 1_565
Os6 Ta1 2.927412 1_555
Os7 Ta5 2.763921 1_555
Os7 Ta2 2.763922 1_555
Os7 Ta3 2.763922 1_555
Os7 Ta6 2.927401 1_554
Os7 Ta7 2.927401 1_455
Os7 Ta0 2.927401 1_545
C0 Ta6 2.199216 1_555
C0 Ta4 2.199216 1_555
C0 Ta7 2.199217 1_555
C0 Ta1 2.199217 1_555
C0 Ta0 2.199217 1_555
C0 Ta10 2.199217 1_555
C1 Ta11 2.199216 1_455
C1 Ta3 2.199216 1_555
C1 Ta1 2.199217 1_555
C1 Ta7 2.199217 1_455
C1 Ta9 2.199217 1_455
C1 Ta5 2.199217 1_555
C2 Ta8 2.199216 1_545
C2 Ta2 2.199216 1_555
C2 Ta9 2.199217 1_545
C2 Ta5 2.199217 1_555
C2 Ta10 2.199217 1_555
C2 Ta0 2.199217 1_545
C3 Ta4 2.199217 1_555
C3 Ta6 2.199217 1_554
C3 Ta11 2.199217 1_554
C3 Ta3 2.199217 1_555
C3 Ta2 2.199217 1_555
C3 Ta8 2.199217 1_554
