# generated using pymatgen
data_CsK3GeSe4
_symmetry_space_group_name_H-M   'P 1'
_cell_length_a   8.14793605
_cell_length_b   10.20178116
_cell_length_c   15.40989515
_cell_angle_alpha   90.00000000
_cell_angle_beta   90.00000000
_cell_angle_gamma   90.00000000
_symmetry_Int_Tables_number   1
_chemical_formula_structural   CsK3GeSe4
_chemical_formula_sum   'Cs4 K12 Ge4 Se16'
_cell_volume   1280.92381069
_cell_formula_units_Z   4
loop_
 _symmetry_equiv_pos_site_id
 _symmetry_equiv_pos_as_xyz
  1  'x, y, z'
loop_
 _atom_site_type_symbol
 _atom_site_label
 _atom_site_symmetry_multiplicity
 _atom_site_fract_x
 _atom_site_fract_y
 _atom_site_fract_z
 _atom_site_occupancy
  Cs  Cs0  1  0.00000000  0.00000000  0.00000000  1
  Cs  Cs1  1  0.50000000  0.00000000  0.50000000  1
  Cs  Cs2  1  0.00000000  0.50000000  0.00000000  1
  Cs  Cs3  1  0.50000000  0.50000000  0.50000000  1
  K  K0  1  0.97018902  0.75000000  0.41971683  1
  K  K1  1  0.47018902  0.25000000  0.08028317  1
  K  K2  1  0.02981098  0.25000000  0.58028317  1
  K  K3  1  0.52981098  0.75000000  0.91971683  1
  K  K4  1  0.80834010  0.04574064  0.26626638  1
  K  K5  1  0.30834010  0.95425936  0.23373362  1
  K  K6  1  0.19165990  0.54574064  0.73373362  1
  K  K7  1  0.69165990  0.45425936  0.76626638  1
  K  K8  1  0.19165990  0.95425936  0.73373362  1
  K  K9  1  0.69165990  0.04574064  0.76626638  1
  K  K10  1  0.80834010  0.45425936  0.26626638  1
  K  K11  1  0.30834010  0.54574064  0.23373362  1
  Ge  Ge0  1  0.79961718  0.75000000  0.67155353  1
  Ge  Ge1  1  0.20038282  0.25000000  0.32844647  1
  Ge  Ge2  1  0.70038282  0.75000000  0.17155353  1
  Ge  Ge3  1  0.29961718  0.25000000  0.82844647  1
  Se  Se0  1  0.00732989  0.25000000  0.81536276  1
  Se  Se1  1  0.49267011  0.25000000  0.31536276  1
  Se  Se2  1  0.50732989  0.75000000  0.68463724  1
  Se  Se3  1  0.99267011  0.75000000  0.18463724  1
  Se  Se4  1  0.60717520  0.56476876  0.09477650  1
  Se  Se5  1  0.10717520  0.43523124  0.40522350  1
  Se  Se6  1  0.39282480  0.06476876  0.90522350  1
  Se  Se7  1  0.89282480  0.93523124  0.59477650  1
  Se  Se8  1  0.39282480  0.43523124  0.90522350  1
  Se  Se9  1  0.89282480  0.56476876  0.59477650  1
  Se  Se10  1  0.60717520  0.93523124  0.09477650  1
  Se  Se11  1  0.10717520  0.06476876  0.40522350  1
  Se  Se12  1  0.59587007  0.75000000  0.31764663  1
  Se  Se13  1  0.09587007  0.25000000  0.18235337  1
  Se  Se14  1  0.40412993  0.25000000  0.68235337  1
  Se  Se15  1  0.90412993  0.75000000  0.81764663  1
loop_
_geom_bond_atom_site_label_1
_geom_bond_atom_site_label_2
_geom_bond_distance
_geom_bond_site_symmetry_2
Cs0 Se6 3.579693 1_554
Cs0 Se10 3.579693 1_445
Cs0 Se3 3.821483 1_445
Cs0 Se0 3.821483 1_554
Cs0 Se13 3.874444 1_555
Cs0 Se15 3.874444 1_444
Cs1 Se7 3.579693 1_545
Cs1 Se11 3.579693 1_555
Cs1 Se2 3.821483 1_545
Cs1 Se1 3.821483 1_555
Cs1 Se14 3.874444 1_555
Cs1 Se12 3.874444 1_545
Cs2 Se4 3.579693 1_455
Cs2 Se8 3.579693 1_554
Cs2 Se3 3.821483 1_455
Cs2 Se0 3.821483 1_554
Cs2 Se13 3.874444 1_555
Cs2 Se15 3.874444 1_454
Cs3 Se9 3.579693 1_555
Cs3 Se5 3.579693 1_555
Cs3 Se2 3.821483 1_555
Cs3 Se1 3.821483 1_555
Cs3 Se14 3.874444 1_555
Cs3 Se12 3.874444 1_555
K0 Se7 3.353445 1_555
K0 Se9 3.353445 1_555
K0 Se11 3.406978 1_665
K0 Se5 3.406978 1_655
K0 Se12 3.431624 1_555
K0 Se3 3.627180 1_555
K1 Se8 3.353445 1_554
K1 Se6 3.353445 1_554
K1 Se4 3.406978 1_555
K1 Se10 3.406978 1_545
K1 Se13 3.431624 1_555
K1 Se1 3.627180 1_555
K2 Se5 3.353445 1_555
K2 Se11 3.353445 1_555
K2 Se9 3.406978 1_455
K2 Se7 3.406978 1_445
K2 Se14 3.431624 1_555
K2 Se0 3.627180 1_555
K3 Se10 3.353445 1_556
K3 Se4 3.353445 1_556
K3 Se6 3.406978 1_565
K3 Se8 3.406978 1_555
K3 Se15 3.431624 1_555
K3 Se2 3.627180 1_555
K4 Se11 3.248322 1_655
K4 Se10 3.307740 1_545
K4 Se13 3.391599 1_655
K4 Se1 3.395607 1_555
K4 Se12 3.567450 1_545
K4 Se3 3.597334 1_545
K5 Se10 3.248322 1_555
K5 Se11 3.307740 1_565
K5 Se12 3.391599 1_555
K5 Se3 3.395607 1_455
K5 Se13 3.567450 1_565
K5 Se1 3.597334 1_565
K6 Se9 3.248322 1_455
K6 Se8 3.307740 1_555
K6 Se15 3.391599 1_455
K6 Se2 3.395607 1_555
K6 Se14 3.567450 1_555
K6 Se0 3.597334 1_555
K7 Se8 3.248322 1_555
K7 Se9 3.307740 1_555
K7 Se14 3.391599 1_555
K7 Se0 3.395607 1_655
K7 Se15 3.567450 1_555
K7 Se2 3.597334 1_555
K8 Se7 3.248322 1_455
K8 Se6 3.307740 1_565
K8 Se15 3.391599 1_455
K8 Se2 3.395607 1_555
K8 Se14 3.567450 1_565
K8 Se0 3.597334 1_565
K9 Se6 3.248322 1_555
K9 Se7 3.307740 1_545
K9 Se14 3.391599 1_555
K9 Se0 3.395607 1_655
K9 Se15 3.567450 1_545
K9 Se2 3.597334 1_545
K10 Se5 3.248322 1_655
K10 Se4 3.307740 1_555
K10 Se13 3.391599 1_655
K10 Se1 3.395607 1_555
K10 Se12 3.567450 1_555
K10 Se3 3.597334 1_555
K11 Se4 3.248322 1_555
K11 Se5 3.307740 1_555
K11 Se12 3.391599 1_555
K11 Se3 3.395607 1_455
K11 Se13 3.567450 1_555
K11 Se1 3.597334 1_555
Ge0 Se7 2.355308 1_555
Ge0 Se9 2.355308 1_555
Ge0 Se2 2.390057 1_555
Ge0 Se15 2.406952 1_555
Ge0 K9 3.465070 1_565
Ge0 K7 3.465070 1_555
Ge1 Se5 2.355308 1_555
Ge1 Se11 2.355308 1_555
Ge1 Se1 2.390057 1_555
Ge1 Se13 2.406952 1_555
Ge1 K11 3.465070 1_555
Ge1 K5 3.465070 1_545
Ge2 Se10 2.355308 1_555
Ge2 Se4 2.355308 1_555
Ge2 Se3 2.390057 1_555
Ge2 Se12 2.406952 1_555
Ge2 K4 3.465070 1_565
Ge2 K10 3.465070 1_555
Ge3 Se8 2.355308 1_555
Ge3 Se6 2.355308 1_555
Ge3 Se0 2.390057 1_555
Ge3 Se14 2.406952 1_555
Ge3 K6 3.465070 1_555
Ge3 K8 3.465070 1_545
