# generated using pymatgen
data_Ta10Ga5As
_symmetry_space_group_name_H-M   'P 1'
_cell_length_a   6.67411342
_cell_length_b   7.60698257
_cell_length_c   6.67411342
_cell_angle_alpha   115.94897010
_cell_angle_beta   90.14535355
_cell_angle_gamma   115.94897010
_symmetry_Int_Tables_number   1
_chemical_formula_structural   Ta10Ga5As
_chemical_formula_sum   'Ta10 Ga5 As1'
_cell_volume   265.96246460
_cell_formula_units_Z   1
loop_
 _symmetry_equiv_pos_site_id
 _symmetry_equiv_pos_as_xyz
  1  'x, y, z'
loop_
 _atom_site_type_symbol
 _atom_site_label
 _atom_site_symmetry_multiplicity
 _atom_site_fract_x
 _atom_site_fract_y
 _atom_site_fract_z
 _atom_site_occupancy
  Ta  Ta0  1  0.99818113  0.00000000  0.99883310  1
  Ta  Ta1  1  0.50116690  0.00000000  0.50181887  1
  Ta  Ta2  1  0.50753397  0.69108665  0.68355168  1
  Ta  Ta3  1  0.18201381  0.68954124  0.00752543  1
  Ta  Ta4  1  0.68418903  0.69370256  0.18398416  1
  Ta  Ta5  1  0.00971840  0.69370256  0.50951253  1
  Ta  Ta6  1  0.49247457  0.31045876  0.31798619  1
  Ta  Ta7  1  0.81644832  0.30891335  0.99246603  1
  Ta  Ta8  1  0.31601584  0.30629744  0.81581097  1
  Ta  Ta9  1  0.99048747  0.30629744  0.49028160  1
  Ga  Ga0  1  0.74939349  0.50000000  0.75060651  1
  Ga  Ga1  1  0.24939349  0.50000000  0.25060651  1
  Ga  Ga2  1  0.13896881  0.00000000  0.36103119  1
  Ga  Ga3  1  0.63088273  0.00000000  0.13316418  1
  Ga  Ga4  1  0.36683582  0.00000000  0.86911727  1
  As  As0  1  0.86629824  0.00000000  0.63370176  1
loop_
_geom_bond_atom_site_label_1
_geom_bond_atom_site_label_2
_geom_bond_distance
_geom_bond_site_symmetry_2
Ga0 Ta3 2.742971 1_656
Ga0 Ta6 2.742971 1_555
Ga0 Ta2 2.745525 1_555
Ga0 Ta7 2.745525 1_555
Ga0 Ta4 2.750339 1_556
Ga0 Ta8 2.750339 1_555
Ga0 Ta5 2.761831 1_655
Ga0 Ta9 2.761831 1_555
Ga0 Ta1 2.985448 1_555
Ga0 Ta0 2.985448 1_565
Ga1 Ta6 2.742987 1_555
Ga1 Ta3 2.742987 1_555
Ga1 Ta2 2.745517 1_555
Ga1 Ta7 2.745517 1_454
Ga1 Ta5 2.750336 1_555
Ga1 Ta9 2.750336 1_455
Ga1 Ta4 2.761826 1_555
Ga1 Ta8 2.761826 1_554
Ga1 Ta1 2.985448 1_565
Ga1 Ta0 2.985448 1_454
Ga2 Ta0 2.591326 1_454
Ga2 Ta1 2.591326 1_555
Ga2 Ta6 2.635789 1_555
Ga2 Ta3 2.635789 1_545
Ga2 Ta9 2.724174 1_455
Ga2 Ta5 2.724174 1_545
Ga2 Ta8 2.724179 1_555
Ga2 Ta4 2.724179 1_445
Ga3 Ga4 2.489076 1_554
Ga3 Ta1 2.610381 1_555
Ga3 Ta0 2.612328 1_554
Ga3 Ta4 2.662134 1_545
Ga3 Ta9 2.662138 1_555
Ga3 Ta6 2.705154 1_555
Ga3 Ta3 2.705163 1_545
Ga3 Ta7 2.706980 1_554
Ga3 Ta2 2.706984 1_544
Ga4 Ta0 2.610381 1_455
Ga4 Ta1 2.612328 1_555
Ga4 Ta8 2.662134 1_555
Ga4 Ta5 2.662138 1_545
Ga4 Ta3 2.705154 1_546
Ga4 Ta6 2.705163 1_556
Ga4 Ta2 2.706980 1_545
Ga4 Ta7 2.706984 1_555
As0 Ga2 2.576897 1_655
As0 Ta0 2.588917 1_555
As0 Ta1 2.588917 1_555
As0 Ta7 2.670232 1_555
As0 Ta2 2.670232 1_545
As0 Ta9 2.701457 1_555
As0 Ta5 2.701457 1_645
As0 Ta8 2.701458 1_655
As0 Ta4 2.701458 1_545
