# generated using pymatgen
data_Na4LuBiO6
_symmetry_space_group_name_H-M   'P 1'
_cell_length_a   5.69737857
_cell_length_b   5.69736409
_cell_length_c   5.79962364
_cell_angle_alpha   99.59987243
_cell_angle_beta   99.59882418
_cell_angle_gamma   119.88679078
_symmetry_Int_Tables_number   1
_chemical_formula_structural   Na4LuBiO6
_chemical_formula_sum   'Na4 Lu1 Bi1 O6'
_cell_volume   153.90780706
_cell_formula_units_Z   1
loop_
 _symmetry_equiv_pos_site_id
 _symmetry_equiv_pos_as_xyz
  1  'x, y, z'
loop_
 _atom_site_type_symbol
 _atom_site_label
 _atom_site_symmetry_multiplicity
 _atom_site_fract_x
 _atom_site_fract_y
 _atom_site_fract_z
 _atom_site_occupancy
  Na  Na0  1  0.50050772  0.49949488  0.00001130  1
  Na  Na1  1  0.99675779  0.00326759  0.50000843  1
  Na  Na2  1  0.65884228  0.34117247  0.49999823  1
  Na  Na3  1  0.34233642  0.65767047  0.50000137  1
  Lu  Lu0  1  0.16719130  0.83276754  0.99999053  1
  Bi  Bi0  1  0.83271918  0.16728708  0.99999451  1
  O  O0  1  0.58388744  0.94140419  0.21735387  1
  O  O1  1  0.93277443  0.56486437  0.22066633  1
  O  O2  1  0.20706556  0.21580154  0.22035439  1
  O  O3  1  0.78420922  0.79293787  0.77965052  1
  O  O4  1  0.43513191  0.06723822  0.77932427  1
  O  O5  1  0.05858176  0.41609777  0.78265125  1
loop_
_geom_bond_atom_site_label_1
_geom_bond_atom_site_label_2
_geom_bond_distance
_geom_bond_site_symmetry_2
Na0 O0 2.388161 1_555
Na0 O5 2.388260 1_554
Na0 O4 2.391117 1_554
Na0 O1 2.391146 1_555
Na0 O2 2.397711 1_555
Na0 O3 2.397811 1_554
Na1 O2 2.321566 1_655
Na1 O3 2.321584 1_545
Na1 O5 2.457456 1_655
Na1 O0 2.457596 1_545
Na1 O4 2.557644 1_655
Na1 O1 2.557782 1_545
Na2 O5 2.368328 1_655
Na2 O0 2.368329 1_545
Na2 O3 2.480862 1_555
Na2 O2 2.480911 1_555
Na2 O1 2.496812 1_555
Na2 O4 2.496824 1_555
Na3 O4 2.360710 1_565
Na3 O1 2.360723 1_455
Na3 O2 2.418652 1_555
Na3 O3 2.418708 1_555
Na3 O0 2.571650 1_555
Na3 O5 2.571755 1_555
Lu0 O5 2.210236 1_555
Lu0 O0 2.210380 1_556
Lu0 O3 2.219350 1_455
Lu0 O2 2.219504 1_566
Lu0 O1 2.222943 1_456
Lu0 O4 2.223110 1_565
Bi0 O5 2.138529 1_655
Bi0 O0 2.138701 1_546
Bi0 O1 2.143996 1_556
Bi0 O4 2.144076 1_555
Bi0 O3 2.154996 1_545
Bi0 O2 2.155033 1_656
