# generated using pymatgen
data_CaAs12(RuRh)2
_symmetry_space_group_name_H-M   'P 1'
_cell_length_a   7.38395513
_cell_length_b   7.40228361
_cell_length_c   7.40228454
_cell_angle_alpha   109.55533641
_cell_angle_beta   109.48786799
_cell_angle_gamma   109.47084480
_symmetry_Int_Tables_number   1
_chemical_formula_structural   CaAs12(RuRh)2
_chemical_formula_sum   'Ca1 As12 Ru2 Rh2'
_cell_volume   311.07079085
_cell_formula_units_Z   1
loop_
 _symmetry_equiv_pos_site_id
 _symmetry_equiv_pos_as_xyz
  1  'x, y, z'
loop_
 _atom_site_type_symbol
 _atom_site_label
 _atom_site_symmetry_multiplicity
 _atom_site_fract_x
 _atom_site_fract_y
 _atom_site_fract_z
 _atom_site_occupancy
  Ca  Ca0  1  0.00000000  0.00000000  0.00000000  1
  As  As0  1  0.85090409  0.64979127  0.50315533  1
  As  As1  1  0.14909591  0.35020873  0.49684467  1
  As  As2  1  0.14909591  0.65225125  0.79888919  1
  As  As3  1  0.85090409  0.34774875  0.20111081  1
  As  As4  1  0.64941229  0.50321324  0.85046225  1
  As  As5  1  0.35058771  0.49678676  0.14953775  1
  As  As6  1  0.64941229  0.79895005  0.14619905  1
  As  As7  1  0.35058771  0.20104995  0.85380095  1
  As  As8  1  0.50406579  0.85096518  0.65310162  1
  As  As9  1  0.49593421  0.14903482  0.34689838  1
  As  As10  1  0.20375527  0.85325344  0.35050183  1
  As  As11  1  0.79624473  0.14674656  0.64949817  1
  Ru  Ru0  1  0.50000000  0.50000000  0.50000000  1
  Ru  Ru1  1  0.50000000  0.00000000  0.00000000  1
  Rh  Rh0  1  0.00000000  0.50000000  0.00000000  1
  Rh  Rh1  1  0.00000000  0.00000000  0.50000000  1
loop_
_geom_bond_atom_site_label_1
_geom_bond_atom_site_label_2
_geom_bond_distance
_geom_bond_site_symmetry_2
As0 Ru0 2.443477 1_555
As0 Rh1 2.467367 1_665
As0 As2 2.524118 1_655
As0 As3 2.579012 1_555
As0 Ca0 3.236019 1_666
As1 Ru0 2.443477 1_555
As1 Rh1 2.467367 1_555
As1 As3 2.524118 1_455
As1 As2 2.579012 1_555
As1 Ca0 3.236019 1_555
As2 Ru1 2.443479 1_566
As2 Rh0 2.467354 1_556
As2 Ca0 3.236014 1_566
As3 Ru1 2.443479 1_555
As3 Rh0 2.467354 1_655
As3 Ca0 3.236014 1_655
As4 Ru0 2.445259 1_555
As4 Rh0 2.464568 1_656
As4 As6 2.525162 1_556
As4 As7 2.579799 1_555
As4 Ca0 3.235200 1_666
As5 Ru0 2.445259 1_555
As5 Rh0 2.464568 1_555
As5 As7 2.525162 1_554
As5 As6 2.579799 1_555
As5 Ca0 3.235200 1_555
As6 Ru1 2.445259 1_565
As6 Rh1 2.464567 1_665
As6 Ca0 3.235201 1_665
As7 Ru1 2.445259 1_556
As7 Rh1 2.464567 1_555
As7 Ca0 3.235201 1_556
As8 Ru1 2.447217 1_566
As8 Ru0 2.447224 1_555
As8 Ca0 3.218253 1_666
As9 Ru1 2.447217 1_555
As9 Ru0 2.447224 1_555
As9 Ca0 3.218253 1_555
As10 Rh0 2.462485 1_555
As10 Rh1 2.462486 1_565
As10 As9 2.525360 1_565
As10 As8 2.582861 1_555
As10 Ca0 3.247578 1_565
As11 Rh0 2.462485 1_656
As11 Rh1 2.462486 1_655
As11 As8 2.525360 1_545
As11 As9 2.582861 1_555
As11 Ca0 3.247578 1_656
