# generated using pymatgen
data_K4H11Os2
_symmetry_space_group_name_H-M   'P 1'
_cell_length_a   5.88324327
_cell_length_b   8.83127360
_cell_length_c   9.97450925
_cell_angle_alpha   70.09872267
_cell_angle_beta   89.99932836
_cell_angle_gamma   89.94865527
_symmetry_Int_Tables_number   1
_chemical_formula_structural   K4H11Os2
_chemical_formula_sum   'K8 H22 Os4'
_cell_volume   487.29161226
_cell_formula_units_Z   2
loop_
 _symmetry_equiv_pos_site_id
 _symmetry_equiv_pos_as_xyz
  1  'x, y, z'
loop_
 _atom_site_type_symbol
 _atom_site_label
 _atom_site_symmetry_multiplicity
 _atom_site_fract_x
 _atom_site_fract_y
 _atom_site_fract_z
 _atom_site_occupancy
  K  K0  1  0.74341098  0.34777804  0.51545495  1
  K  K1  1  0.25663395  0.65221743  0.48454945  1
  K  K2  1  0.75490284  0.52107111  0.11469951  1
  K  K3  1  0.24507464  0.47894105  0.88530486  1
  K  K4  1  0.75596348  0.97465888  0.38598057  1
  K  K5  1  0.24405462  0.02534730  0.61401604  1
  K  K6  1  0.74409644  0.15355393  0.98005375  1
  K  K7  1  0.25589163  0.84644998  0.01995295  1
  H  H0  1  0.60357916  0.80809163  0.65422654  1
  H  H1  1  0.39638487  0.19194713  0.34572769  1
  H  H2  1  0.55376932  0.48676218  0.69483923  1
  H  H3  1  0.44626208  0.51325085  0.30516389  1
  H  H4  1  0.76517838  0.03187401  0.62561342  1
  H  H5  1  0.23481794  0.96810306  0.37441294  1
  H  H6  1  0.61075786  0.68639875  0.84796687  1
  H  H7  1  0.38921628  0.31356358  0.15207977  1
  H  H8  1  0.97092115  0.75122360  0.74549392  1
  H  H9  1  0.02919122  0.24876377  0.25449792  1
  H  H10  1  0.76142966  0.66300133  0.53635974  1
  H  H11  1  0.23853133  0.33697123  0.46367332  1
  H  H12  1  0.93104106  0.01299357  0.80921107  1
  H  H13  1  0.06894076  0.98700262  0.19078202  1
  H  H14  1  0.76864088  0.83289290  0.96270192  1
  H  H15  1  0.23136840  0.16712639  0.03726301  1
  H  H16  1  0.77794599  0.46720231  0.87404054  1
  H  H17  1  0.22201538  0.53280937  0.12593217  1
  H  H18  1  0.93388163  0.48541063  0.68799345  1
  H  H19  1  0.06606333  0.51458510  0.31200884  1
  H  H20  1  0.54999203  0.00507996  0.81002888  1
  H  H21  1  0.45004508  0.99492122  0.18997113  1
  Os  Os0  1  0.74817218  0.88292016  0.78399683  1
  Os  Os1  1  0.25183470  0.11706548  0.21599848  1
  Os  Os2  1  0.74967835  0.61371326  0.71534738  1
  Os  Os3  1  0.25031541  0.38630719  0.28465294  1
loop_
_geom_bond_atom_site_label_1
_geom_bond_atom_site_label_2
_geom_bond_distance
_geom_bond_site_symmetry_2
H0 Os2 1.828144 1_555
H0 Os0 1.849103 1_555
H0 K4 2.729343 1_555
H0 K5 2.790136 1_565
H1 Os3 1.827922 1_555
H1 Os1 1.848930 1_555
H1 K5 2.729635 1_555
H1 K4 2.790522 1_545
H2 Os2 1.669040 1_555
H2 K3 2.612114 1_555
H2 K0 2.728639 1_555
H2 K1 2.738534 1_555
H3 Os3 1.669157 1_555
H3 K2 2.611886 1_555
H3 K1 2.728512 1_555
H3 K0 2.738634 1_555
H4 Os0 1.679765 1_545
H4 K4 2.606469 1_545
H4 K0 2.630460 1_555
H4 K5 2.821060 1_655
H5 Os1 1.680012 1_565
H5 K5 2.606310 1_565
H5 K1 2.630312 1_555
H5 K4 2.820926 1_455
H6 Os0 1.822465 1_555
H6 Os2 1.845801 1_555
H6 K2 2.698627 1_556
H6 K3 2.768827 1_555
H7 Os1 1.822195 1_555
H7 Os3 1.845668 1_555
H7 K3 2.699049 1_554
H7 K2 2.769075 1_555
H8 Os2 1.873723 1_555
H8 Os0 1.875872 1_555
H8 K5 2.829859 1_665
H8 K3 2.835226 1_655
H9 Os3 1.873476 1_555
H9 Os1 1.875435 1_555
H9 K4 2.830066 1_445
H9 K2 2.835800 1_455
H10 Os2 1.688961 1_555
H10 K4 2.648675 1_555
H10 K0 2.863582 1_555
H10 K1 2.965982 1_655
H10 K1 3.021607 1_555
H11 Os3 1.689242 1_555
H11 K5 2.648350 1_555
H11 K1 2.863687 1_555
H11 K0 2.965462 1_455
H11 K0 3.022059 1_555
H12 Os0 1.655047 1_545
H12 K5 2.655095 1_655
H12 K6 2.663084 1_555
H12 K7 2.850379 1_646
H13 Os1 1.655082 1_565
H13 K4 2.654990 1_455
H13 K7 2.662944 1_555
H13 K6 2.850296 1_464
H14 Os0 1.688417 1_555
H14 K2 2.654517 1_556
H14 K6 2.898810 1_565
H14 K7 2.933447 1_656
H14 K7 3.079990 1_556
H15 Os1 1.688680 1_555
H15 K3 2.654372 1_554
H15 K7 2.898776 1_545
H15 K6 2.933497 1_454
H15 K6 3.079799 1_554
H16 Os2 1.677082 1_555
H16 K2 2.604652 1_556
H16 K6 2.614798 1_555
H16 K3 2.754014 1_655
H17 Os3 1.677254 1_555
H17 K3 2.604344 1_554
H17 K7 2.614732 1_555
H17 K2 2.753903 1_455
H18 Os2 1.655596 1_555
H18 K0 2.668608 1_555
H18 K3 2.674300 1_655
H18 K1 2.804155 1_655
H19 Os3 1.655630 1_555
H19 K1 2.668871 1_555
H19 K2 2.674121 1_455
H19 K0 2.803769 1_455
H20 Os0 1.667080 1_545
H20 K5 2.618300 1_555
H20 K7 2.710712 1_546
H20 K6 2.723256 1_555
H21 Os1 1.667091 1_565
H21 K4 2.618207 1_555
H21 K6 2.710494 1_564
H21 K7 2.723308 1_555
