# generated using pymatgen
data_Sr4Ga(Si2Pt)5
_symmetry_space_group_name_H-M   'P 1'
_cell_length_a   8.40536217
_cell_length_b   8.40536163
_cell_length_c   8.40536248
_cell_angle_alpha   137.82030890
_cell_angle_beta   105.67520807
_cell_angle_gamma   89.35675143
_symmetry_Int_Tables_number   1
_chemical_formula_structural   Sr4Ga(Si2Pt)5
_chemical_formula_sum   'Sr4 Ga1 Si10 Pt5'
_cell_volume   367.13802773
_cell_formula_units_Z   1
loop_
 _symmetry_equiv_pos_site_id
 _symmetry_equiv_pos_as_xyz
  1  'x, y, z'
loop_
 _atom_site_type_symbol
 _atom_site_label
 _atom_site_symmetry_multiplicity
 _atom_site_fract_x
 _atom_site_fract_y
 _atom_site_fract_z
 _atom_site_occupancy
  Sr  Sr0  1  0.11515748  0.87380199  0.23915259  1
  Sr  Sr1  1  0.88484252  0.12399511  0.75864451  1
  Sr  Sr2  1  0.63464939  0.37600489  0.26084741  1
  Sr  Sr3  1  0.36535061  0.62619801  0.74135549  1
  Ga  Ga0  1  0.50000000  0.75000000  0.25000000  1
  Si  Si0  1  0.00000000  0.75000000  0.75000000  1
  Si  Si1  1  0.00000000  0.25000000  0.25000000  1
  Si  Si2  1  0.26413785  0.01413785  0.75000000  1
  Si  Si3  1  0.73586215  0.48586215  0.75000000  1
  Si  Si4  1  0.74310275  0.99310275  0.25000000  1
  Si  Si5  1  0.25689725  0.50689725  0.25000000  1
  Si  Si6  1  0.76440261  0.61800053  0.14095358  1
  Si  Si7  1  0.23559739  0.37655298  0.85359893  1
  Si  Si8  1  0.47704695  0.12344702  0.35904642  1
  Si  Si9  1  0.52295305  0.88199947  0.64640107  1
  Pt  Pt0  1  0.50000000  0.25000000  0.75000000  1
  Pt  Pt1  1  0.01782090  0.63465181  0.38768361  1
  Pt  Pt2  1  0.98217910  0.36986271  0.61682991  1
  Pt  Pt3  1  0.24696820  0.13013729  0.11231639  1
  Pt  Pt4  1  0.75303180  0.86534819  0.88317009  1
loop_
_geom_bond_atom_site_label_1
_geom_bond_atom_site_label_2
_geom_bond_distance
_geom_bond_site_symmetry_2
Ga0 Si8 2.558955 1_565
Ga0 Si9 2.558963 1_555
Ga0 Si7 2.558965 1_554
Ga0 Si6 2.558971 1_555
Ga0 Si4 2.905933 1_555
Ga0 Si5 2.905933 1_555
Ga0 Pt0 3.024514 1_554
Ga0 Pt0 3.024514 1_565
Ga0 Sr2 3.385318 1_555
Ga0 Sr0 3.385318 1_555
Ga0 Sr3 3.385318 1_554
Ga0 Sr1 3.385318 1_565
Si0 Sr1 3.233472 1_465
Si0 Sr3 3.233472 1_555
Si0 Sr0 3.233473 1_556
Si0 Sr2 3.233473 1_455
Si1 Sr0 3.239698 1_545
Si1 Sr2 3.239698 1_455
Si1 Sr1 3.239699 1_454
Si1 Sr3 3.239699 1_555
Si2 Si9 2.502071 1_545
Si2 Si7 2.502080 1_555
Si2 Sr3 3.313856 1_545
Si2 Sr1 3.313856 1_455
Si2 Sr0 3.319293 1_545
Si2 Sr2 3.319293 1_556
Si3 Si6 2.502069 1_556
Si3 Si8 2.502073 1_555
Si3 Sr2 3.313856 1_555
Si3 Sr0 3.313856 1_656
Si3 Sr1 3.319293 1_555
Si3 Sr3 3.319293 1_555
Si4 Si8 2.570165 1_565
Si4 Si6 2.570167 1_555
Si4 Sr2 3.277458 1_565
Si4 Sr0 3.277459 1_655
Si4 Sr1 3.348744 1_565
Si4 Sr3 3.348744 1_554
Si5 Si9 2.570166 1_555
Si5 Si7 2.570168 1_554
Si5 Sr3 3.277459 1_555
Si5 Sr1 3.277459 1_454
Si5 Sr0 3.348744 1_555
Si5 Sr2 3.348744 1_555
Si6 Sr2 3.166095 1_555
Si6 Sr0 3.192705 1_655
Si6 Sr1 3.237342 1_554
Si6 Sr1 3.255633 1_565
Si7 Sr3 3.166087 1_555
Si7 Sr1 3.192709 1_455
Si7 Sr0 3.237349 1_545
Si7 Sr0 3.255623 1_556
Si8 Sr0 3.166088 1_545
Si8 Sr2 3.192719 1_555
Si8 Sr3 3.237352 1_555
Si8 Sr3 3.255631 1_544
Si9 Sr1 3.166091 1_565
Si9 Sr3 3.192712 1_555
Si9 Sr2 3.237348 1_566
Si9 Sr2 3.255632 1_555
Pt0 Si8 2.539411 1_555
Pt0 Si9 2.539415 1_545
Pt0 Si6 2.539420 1_556
Pt0 Si7 2.539424 1_555
Pt0 Si3 2.819382 1_555
Pt0 Si2 2.819382 1_555
Pt0 Sr3 3.391265 1_555
Pt0 Sr1 3.391265 1_555
Pt0 Sr2 3.391266 1_556
Pt0 Sr0 3.391266 1_545
Pt1 Si5 2.428371 1_555
Pt1 Si6 2.459091 1_455
Pt1 Si2 2.465665 1_565
Pt1 Si0 2.470644 1_555
Pt1 Si1 2.487303 1_555
Pt1 Sr0 3.252225 1_555
Pt1 Sr1 3.265225 1_465
Pt1 Sr1 3.302649 1_454
Pt1 Sr2 3.332050 1_455
Pt2 Si4 2.428371 1_545
Pt2 Si7 2.459091 1_655
Pt2 Si3 2.465668 1_555
Pt2 Si0 2.470639 1_655
Pt2 Si1 2.487295 1_655
Pt2 Sr1 3.252233 1_555
Pt2 Sr0 3.265230 1_656
Pt2 Sr0 3.302648 1_645
Pt2 Sr3 3.332046 1_655
Pt3 Si5 2.428371 1_555
Pt3 Si8 2.459102 1_555
Pt3 Si2 2.465665 1_554
Pt3 Si0 2.470644 1_544
Pt3 Si1 2.487303 1_555
Pt3 Sr2 3.252226 1_555
Pt3 Sr3 3.265225 1_544
Pt3 Sr3 3.302649 1_555
Pt3 Sr0 3.332049 1_545
Pt4 Si4 2.428364 1_556
Pt4 Si9 2.459102 1_555
Pt4 Si3 2.465660 1_555
Pt4 Si0 2.470647 1_655
Pt4 Si1 2.487303 1_666
Pt4 Sr3 3.252223 1_555
Pt4 Sr2 3.265231 1_555
Pt4 Sr2 3.302648 1_566
Pt4 Sr1 3.332057 1_565
