# generated using pymatgen
data_Sr2Pd(RhO4)2
_symmetry_space_group_name_H-M   'P 1'
_cell_length_a   6.58941606
_cell_length_b   6.58941687
_cell_length_c   5.26347782
_cell_angle_alpha   72.44465573
_cell_angle_beta   72.44464360
_cell_angle_gamma   56.52179641
_symmetry_Int_Tables_number   1
_chemical_formula_structural   Sr2Pd(RhO4)2
_chemical_formula_sum   'Sr2 Pd1 Rh2 O8'
_cell_volume   179.10044762
_cell_formula_units_Z   1
loop_
 _symmetry_equiv_pos_site_id
 _symmetry_equiv_pos_as_xyz
  1  'x, y, z'
loop_
 _atom_site_type_symbol
 _atom_site_label
 _atom_site_symmetry_multiplicity
 _atom_site_fract_x
 _atom_site_fract_y
 _atom_site_fract_z
 _atom_site_occupancy
  Sr  Sr0  1  0.72196679  0.72196679  0.33002942  1
  Sr  Sr1  1  0.27803321  0.27803321  0.66997058  1
  Pd  Pd0  1  0.00000000  0.00000000  0.50000000  1
  Rh  Rh0  1  0.74432049  0.25567951  0.00000000  1
  Rh  Rh1  1  0.25567951  0.74432049  1.00000000  1
  O  O0  1  0.40311808  0.40311808  0.95864671  1
  O  O1  1  0.59688192  0.59688192  0.04135329  1
  O  O2  1  0.90656538  0.90656538  0.90276029  1
  O  O3  1  0.09343462  0.09343462  0.09723971  1
  O  O4  1  0.32064251  0.88084080  0.61087729  1
  O  O5  1  0.88084080  0.32064251  0.61087729  1
  O  O6  1  0.11915920  0.67935749  0.38912271  1
  O  O7  1  0.67935749  0.11915920  0.38912271  1
loop_
_geom_bond_atom_site_label_1
_geom_bond_atom_site_label_2
_geom_bond_distance
_geom_bond_site_symmetry_2
O0 Rh0 1.950394 1_556
O0 Rh1 1.950394 1_555
O0 Sr1 2.434736 1_555
O1 Rh1 1.950394 1_554
O1 Rh0 1.950394 1_555
O1 Sr0 2.434736 1_555
O2 Pd0 2.023772 1_665
O2 Rh1 2.088996 1_655
O2 Rh0 2.088996 1_566
O2 Sr0 2.519676 1_556
O3 Pd0 2.023772 1_555
O3 Rh0 2.088996 1_455
O3 Rh1 2.088996 1_544
O3 Sr1 2.519676 1_554
O4 Rh1 1.992946 1_555
O4 Pd0 2.014545 1_565
O4 Sr0 2.407390 1_555
O4 Sr1 2.579408 1_565
O5 Rh0 1.992946 1_556
O5 Pd0 2.014545 1_655
O5 Sr0 2.407391 1_555
O5 Sr1 2.579408 1_655
O6 Rh1 1.992946 1_554
O6 Pd0 2.014545 1_565
O6 Sr1 2.407391 1_555
O6 Sr0 2.579408 1_455
O7 Rh0 1.992946 1_555
O7 Pd0 2.014545 1_655
O7 Sr1 2.407390 1_555
O7 Sr0 2.579408 1_545
