# generated using pymatgen
data_K3Sc(AsO4)2
_symmetry_space_group_name_H-M   'P 1'
_cell_length_a   5.68977950
_cell_length_b   5.68977898
_cell_length_c   7.44821281
_cell_angle_alpha   90.00000000
_cell_angle_beta   90.00000000
_cell_angle_gamma   119.99999748
_symmetry_Int_Tables_number   1
_chemical_formula_structural   K3Sc(AsO4)2
_chemical_formula_sum   'K3 Sc1 As2 O8'
_cell_volume   208.82070213
_cell_formula_units_Z   1
loop_
 _symmetry_equiv_pos_site_id
 _symmetry_equiv_pos_as_xyz
  1  'x, y, z'
loop_
 _atom_site_type_symbol
 _atom_site_label
 _atom_site_symmetry_multiplicity
 _atom_site_fract_x
 _atom_site_fract_y
 _atom_site_fract_z
 _atom_site_occupancy
  K  K0  1  0.66666700  0.33333300  0.31285881  1
  K  K1  1  0.33333300  0.66666700  0.68714119  1
  K  K2  1  0.00000000  0.00000000  0.00000000  1
  Sc  Sc0  1  0.00000000  0.00000000  0.50000000  1
  As  As0  1  0.66666700  0.33333300  0.75330220  1
  As  As1  1  0.33333300  0.66666700  0.24669780  1
  O  O0  1  0.66666700  0.33333300  0.97504814  1
  O  O1  1  0.33333300  0.66666700  0.02495186  1
  O  O2  1  0.82739064  0.65478227  0.66619245  1
  O  O3  1  0.17260936  0.34521773  0.33380755  1
  O  O4  1  0.82739064  0.17260936  0.66619245  1
  O  O5  1  0.17260936  0.82739064  0.33380755  1
  O  O6  1  0.34521773  0.17260936  0.66619245  1
  O  O7  1  0.65478227  0.82739064  0.33380755  1
loop_
_geom_bond_atom_site_label_1
_geom_bond_atom_site_label_2
_geom_bond_distance
_geom_bond_site_symmetry_2
K0 O0 2.516086 1_554
K0 O7 2.849767 1_545
K0 O7 2.849767 1_555
K0 O5 2.849767 1_545
K0 O5 2.849767 1_655
K0 O3 2.849767 1_555
K0 O3 2.849767 1_655
K0 O4 3.071595 1_555
K0 O2 3.071601 1_555
K0 O6 3.071601 1_555
K1 O1 2.516086 1_556
K1 O6 2.849767 1_565
K1 O6 2.849767 1_555
K1 O4 2.849767 1_565
K1 O4 2.849767 1_455
K1 O2 2.849767 1_555
K1 O2 2.849767 1_455
K1 O5 3.071595 1_555
K1 O3 3.071601 1_555
K1 O7 3.071601 1_555
K2 O3 3.012497 1_555
K2 O2 3.012497 1_444
K2 O7 3.012497 1_445
K2 O6 3.012497 1_554
K2 O5 3.012499 1_545
K2 O4 3.012499 1_454
K2 O1 3.290245 1_545
K2 O0 3.290245 1_454
K2 O1 3.290250 1_555
K2 O0 3.290250 1_444
K2 O0 3.290250 1_554
K2 O1 3.290250 1_445
As0 O0 1.651611 1_555
As0 O4 1.711663 1_555
As0 O2 1.711672 1_555
As0 O6 1.711672 1_555
As1 O1 1.651611 1_555
As1 O5 1.711663 1_555
As1 O3 1.711672 1_555
As1 O7 1.711672 1_555
O2 Sc0 2.103768 1_665
O3 Sc0 2.103768 1_555
O4 Sc0 2.103772 1_655
O5 Sc0 2.103772 1_565
O6 Sc0 2.103768 1_555
O7 Sc0 2.103768 1_665
