# generated using pymatgen
data_Ag2AsRhF12
_symmetry_space_group_name_H-M   'P 1'
_cell_length_a   5.07202626
_cell_length_b   5.58483577
_cell_length_c   7.66497686
_cell_angle_alpha   98.08719878
_cell_angle_beta   89.83138524
_cell_angle_gamma   90.51570454
_symmetry_Int_Tables_number   1
_chemical_formula_structural   Ag2AsRhF12
_chemical_formula_sum   'Ag2 As1 Rh1 F12'
_cell_volume   214.95319473
_cell_formula_units_Z   1
loop_
 _symmetry_equiv_pos_site_id
 _symmetry_equiv_pos_as_xyz
  1  'x, y, z'
loop_
 _atom_site_type_symbol
 _atom_site_label
 _atom_site_symmetry_multiplicity
 _atom_site_fract_x
 _atom_site_fract_y
 _atom_site_fract_z
 _atom_site_occupancy
  Ag  Ag0  1  0.00000000  0.00000000  0.00000000  1
  Ag  Ag1  1  0.50000000  0.50000000  0.50000000  1
  As  As0  1  0.50000000  0.50000000  0.00000000  1
  Rh  Rh0  1  0.00000000  0.00000000  0.50000000  1
  F  F0  1  0.85035044  0.99742804  0.72895940  1
  F  F1  1  0.15375433  0.31627524  0.57800906  1
  F  F2  1  0.22776488  0.62294819  0.90643290  1
  F  F3  1  0.31872365  0.48392084  0.19129929  1
  F  F4  1  0.39146310  0.20865361  0.91506723  1
  F  F5  1  0.31130905  0.84877288  0.57371561  1
  F  F6  1  0.68869095  0.15122712  0.42628439  1
  F  F7  1  0.60853690  0.79134639  0.08493277  1
  F  F8  1  0.68127635  0.51607916  0.80870071  1
  F  F9  1  0.77223512  0.37705181  0.09356710  1
  F  F10  1  0.84624567  0.68372476  0.42199094  1
  F  F11  1  0.14964956  0.00257196  0.27104060  1
loop_
_geom_bond_atom_site_label_1
_geom_bond_atom_site_label_2
_geom_bond_distance
_geom_bond_site_symmetry_2
Ag0 F11 2.212036 1_555
Ag0 F0 2.212036 1_444
Ag0 F4 2.426555 1_554
Ag0 F7 2.426555 1_445
Ag0 F9 2.428412 1_455
Ag0 F2 2.428412 1_544
Ag1 F10 2.151391 1_555
Ag1 F1 2.151391 1_555
Ag1 F5 2.179446 1_555
Ag1 F6 2.179446 1_555
Ag1 F8 2.530571 1_555
Ag1 F3 2.530571 1_555
As0 F3 1.741007 1_555
As0 F8 1.741007 1_554
As0 F9 1.747530 1_555
As0 F2 1.747530 1_554
As0 F7 1.749954 1_555
As0 F4 1.749954 1_554
F0 Rh0 1.911883 1_665
F1 Rh0 1.940735 1_555
F5 Rh0 1.920738 1_565
F6 Rh0 1.920738 1_655
F10 Rh0 1.940735 1_665
F11 Rh0 1.911883 1_555
