# generated using pymatgen
data_Co8IrS8
_symmetry_space_group_name_H-M   'P 1'
_cell_length_a   6.93002635
_cell_length_b   6.93002610
_cell_length_c   6.93002676
_cell_angle_alpha   59.99999688
_cell_angle_beta   59.99999805
_cell_angle_gamma   59.99999485
_symmetry_Int_Tables_number   1
_chemical_formula_structural   Co8IrS8
_chemical_formula_sum   'Co8 Ir1 S8'
_cell_volume   235.33668739
_cell_formula_units_Z   1
loop_
 _symmetry_equiv_pos_site_id
 _symmetry_equiv_pos_as_xyz
  1  'x, y, z'
loop_
 _atom_site_type_symbol
 _atom_site_label
 _atom_site_symmetry_multiplicity
 _atom_site_fract_x
 _atom_site_fract_y
 _atom_site_fract_z
 _atom_site_occupancy
  Co  Co0  1  0.62104221  0.12631960  0.12631960  1
  Co  Co1  1  0.12631960  0.62104221  0.12631960  1
  Co  Co2  1  0.12631960  0.12631960  0.62104221  1
  Co  Co3  1  0.12631960  0.12631960  0.12631960  1
  Co  Co4  1  0.37895779  0.87368040  0.87368040  1
  Co  Co5  1  0.87368040  0.37895779  0.87368040  1
  Co  Co6  1  0.87368040  0.87368040  0.37895779  1
  Co  Co7  1  0.87368040  0.87368040  0.87368040  1
  Ir  Ir0  1  0.50000000  0.50000000  0.50000000  1
  S  S0  1  0.25000000  0.25000000  0.25000000  1
  S  S1  1  0.75000000  0.75000000  0.75000000  1
  S  S2  1  0.74321358  0.25678642  0.25678642  1
  S  S3  1  0.74321358  0.25678642  0.74321358  1
  S  S4  1  0.74321358  0.74321358  0.25678642  1
  S  S5  1  0.25678642  0.74321358  0.74321358  1
  S  S6  1  0.25678642  0.74321358  0.25678642  1
  S  S7  1  0.25678642  0.25678642  0.74321358  1
loop_
_geom_bond_atom_site_label_1
_geom_bond_atom_site_label_2
_geom_bond_distance
_geom_bond_site_symmetry_2
Co0 S0 2.099484 1_555
Co0 S2 2.167994 1_555
Co0 S4 2.167999 1_545
Co0 S3 2.167999 1_554
Co1 S0 2.099484 1_555
Co1 S6 2.167994 1_555
Co1 S4 2.167999 1_455
Co1 S5 2.167999 1_554
Co2 S0 2.099484 1_555
Co2 S7 2.167994 1_555
Co2 S5 2.167999 1_545
Co2 S3 2.167999 1_455
Co3 S0 2.099478 1_555
Co3 S6 2.167999 1_545
Co3 S2 2.167999 1_455
Co3 S7 2.167999 1_554
Co4 S1 2.099484 1_555
Co4 S5 2.167994 1_555
Co4 S7 2.167999 1_565
Co4 S6 2.167999 1_556
Co5 S1 2.099484 1_555
Co5 S3 2.167994 1_555
Co5 S7 2.167999 1_655
Co5 S2 2.167999 1_556
Co6 S1 2.099484 1_555
Co6 S4 2.167994 1_555
Co6 S2 2.167999 1_565
Co6 S6 2.167999 1_655
Co7 S1 2.099478 1_555
Co7 S3 2.167999 1_565
Co7 S5 2.167999 1_655
Co7 S4 2.167999 1_556
Ir0 S3 2.383624 1_555
Ir0 S5 2.383624 1_555
Ir0 S6 2.383624 1_555
Ir0 S2 2.383624 1_555
Ir0 S4 2.383624 1_555
Ir0 S7 2.383624 1_555
