# generated using pymatgen
data_Zr6Zn17InPt6
_symmetry_space_group_name_H-M   'P 1'
_cell_length_a   8.83001321
_cell_length_b   8.83001330
_cell_length_c   8.83001390
_cell_angle_alpha   60.00000138
_cell_angle_beta   60.00000106
_cell_angle_gamma   59.99999893
_symmetry_Int_Tables_number   1
_chemical_formula_structural   Zr6Zn17InPt6
_chemical_formula_sum   'Zr6 Zn17 In1 Pt6'
_cell_volume   486.82077706
_cell_formula_units_Z   1
loop_
 _symmetry_equiv_pos_site_id
 _symmetry_equiv_pos_as_xyz
  1  'x, y, z'
loop_
 _atom_site_type_symbol
 _atom_site_label
 _atom_site_symmetry_multiplicity
 _atom_site_fract_x
 _atom_site_fract_y
 _atom_site_fract_z
 _atom_site_occupancy
  Zr  Zr0  1  0.74966653  0.25033347  0.25033347  1
  Zr  Zr1  1  0.25033347  0.74966653  0.74966653  1
  Zr  Zr2  1  0.25033347  0.74966653  0.25033347  1
  Zr  Zr3  1  0.74966653  0.25033347  0.74966653  1
  Zr  Zr4  1  0.25033347  0.25033347  0.74966653  1
  Zr  Zr5  1  0.74966653  0.74966653  0.25033347  1
  Zn  Zn0  1  0.13786821  0.13786821  0.13786821  1
  Zn  Zn1  1  0.86213179  0.86213179  0.86213179  1
  Zn  Zn2  1  0.13786821  0.13786821  0.58639638  1
  Zn  Zn3  1  0.13786821  0.58639638  0.13786821  1
  Zn  Zn4  1  0.86213179  0.86213179  0.41360362  1
  Zn  Zn5  1  0.86213179  0.41360362  0.86213179  1
  Zn  Zn6  1  0.58639638  0.13786821  0.13786821  1
  Zn  Zn7  1  0.41360362  0.86213179  0.86213179  1
  Zn  Zn8  1  0.35733695  0.35733695  0.35733695  1
  Zn  Zn9  1  0.64266305  0.64266305  0.64266305  1
  Zn  Zn10  1  0.35733695  0.35733695  0.92799214  1
  Zn  Zn11  1  0.35733695  0.92799214  0.35733695  1
  Zn  Zn12  1  0.64266305  0.64266305  0.07200786  1
  Zn  Zn13  1  0.64266305  0.07200786  0.64266305  1
  Zn  Zn14  1  0.92799214  0.35733695  0.35733695  1
  Zn  Zn15  1  0.07200786  0.64266305  0.64266305  1
  Zn  Zn16  1  0.00000000  0.00000000  0.00000000  1
  In  In0  1  0.50000000  0.50000000  0.50000000  1
  Pt  Pt0  1  0.50000000  0.00000000  0.00000000  1
  Pt  Pt1  1  0.00000000  0.50000000  0.50000000  1
  Pt  Pt2  1  0.00000000  0.50000000  0.00000000  1
  Pt  Pt3  1  0.50000000  0.00000000  0.50000000  1
  Pt  Pt4  1  0.00000000  0.00000000  0.50000000  1
  Pt  Pt5  1  0.50000000  0.50000000  0.00000000  1
loop_
_geom_bond_atom_site_label_1
_geom_bond_atom_site_label_2
_geom_bond_distance
_geom_bond_site_symmetry_2
Zn0 Zn10 2.741930 1_554
Zn0 Zn11 2.741930 1_545
Zn0 Zn14 2.741930 1_455
Zn0 Zr0 2.810767 1_455
Zn0 Zr2 2.810767 1_545
Zn0 Zr4 2.810768 1_554
Zn0 Zn16 2.981955 1_555
Zn1 Zn12 2.741930 1_556
Zn1 Zn13 2.741930 1_565
Zn1 Zn15 2.741930 1_655
Zn1 Zr1 2.810767 1_655
Zn1 Zr3 2.810767 1_565
Zn1 Zr5 2.810768 1_556
Zn1 Zn16 2.981955 1_666
Zn2 Zn8 2.741930 1_555
Zn2 Zr4 2.810760 1_555
Zn2 Zr3 2.810767 1_455
Zn2 Zr1 2.810767 1_545
Zn3 Zn8 2.741930 1_555
Zn3 Zr2 2.810760 1_555
Zn3 Zr5 2.810767 1_455
Zn3 Zr1 2.810767 1_554
Zn4 Zn9 2.741930 1_555
Zn4 Zr5 2.810760 1_555
Zn4 Zr2 2.810767 1_655
Zn4 Zr0 2.810767 1_565
Zn5 Zn9 2.741930 1_555
Zn5 Zr3 2.810760 1_555
Zn5 Zr4 2.810767 1_655
Zn5 Zr0 2.810767 1_556
Zn6 Zn8 2.741930 1_555
Zn6 Zr0 2.810760 1_555
Zn6 Zr5 2.810767 1_545
Zn6 Zr3 2.810767 1_554
Zn7 Zn9 2.741930 1_555
Zn7 Zr1 2.810760 1_555
Zn7 Zr4 2.810767 1_565
Zn7 Zr2 2.810767 1_556
Zn8 Zr0 2.851841 1_555
Zn8 Zr2 2.851841 1_555
Zn8 Zr4 2.851841 1_555
Zn9 Zr1 2.851841 1_555
Zn9 Zr3 2.851841 1_555
Zn9 Zr5 2.851841 1_555
Zn10 Zn6 2.741917 1_556
Zn10 Zn3 2.741917 1_556
Zn10 Zr3 2.851844 1_555
Zn10 Zr1 2.851844 1_555
Zn10 Zr4 2.851864 1_555
Zn11 Zn6 2.741917 1_565
Zn11 Zn2 2.741917 1_565
Zn11 Zr5 2.851844 1_555
Zn11 Zr1 2.851844 1_555
Zn11 Zr2 2.851864 1_555
Zn12 Zn7 2.741917 1_554
Zn12 Zn5 2.741917 1_554
Zn12 Zr2 2.851844 1_555
Zn12 Zr0 2.851844 1_555
Zn12 Zr5 2.851864 1_555
Zn13 Zn7 2.741917 1_545
Zn13 Zn4 2.741917 1_545
Zn13 Zr4 2.851844 1_555
Zn13 Zr0 2.851844 1_555
Zn13 Zr3 2.851864 1_555
Zn14 Zn3 2.741917 1_655
Zn14 Zn2 2.741917 1_655
Zn14 Zr5 2.851844 1_555
Zn14 Zr3 2.851844 1_555
Zn14 Zr0 2.851864 1_555
Zn15 Zn5 2.741917 1_455
Zn15 Zn4 2.741917 1_455
Zn15 Zr4 2.851844 1_555
Zn15 Zr2 2.851844 1_555
Zn15 Zr1 2.851864 1_555
Zn16 Zn7 2.981948 1_544
Zn16 Zn6 2.981948 1_455
Zn16 Zn3 2.981948 1_545
Zn16 Zn5 2.981948 1_454
Zn16 Zn4 2.981948 1_445
Zn16 Zn2 2.981948 1_554
Zn16 Zr4 3.126045 1_554
Zn16 Zr5 3.126045 1_445
Zn16 Zr0 3.126045 1_455
Zn16 Zr1 3.126045 1_544
Zn16 Zr2 3.126045 1_545
Zn16 Zr3 3.126045 1_454
In0 Zn9 3.085663 1_555
In0 Zn8 3.085663 1_555
In0 Zn14 3.085684 1_555
In0 Zn15 3.085684 1_555
In0 Zn13 3.085684 1_555
In0 Zn11 3.085684 1_555
In0 Zn10 3.085685 1_555
In0 Zn12 3.085685 1_555
In0 Zr5 3.117717 1_555
In0 Zr4 3.117717 1_555
In0 Zr3 3.117717 1_555
In0 Zr2 3.117717 1_555
In0 Zr1 3.117717 1_555
In0 Zr0 3.117717 1_555
Pt0 Zn10 2.601343 1_554
Pt0 Zn12 2.601343 1_545
Pt0 Zn13 2.601344 1_554
Pt0 Zn11 2.601344 1_545
Pt0 Zn1 2.624007 1_544
Pt0 Zn0 2.624007 1_555
Pt0 Zn6 2.624013 1_555
Pt0 Zn7 2.624013 1_544
Pt0 Zr3 3.121884 1_554
Pt0 Zr2 3.121884 1_545
Pt0 Zr5 3.121884 1_545
Pt0 Zr4 3.121884 1_554
Pt1 Zn14 2.601321 1_455
Pt1 Zn15 2.601321 1_555
Pt1 Zn8 2.601340 1_555
Pt1 Zn9 2.601340 1_455
Pt1 Zn4 2.624006 1_455
Pt1 Zn2 2.624006 1_555
Pt1 Zn5 2.624006 1_455
Pt1 Zn3 2.624006 1_555
Pt1 Zr2 3.121884 1_555
Pt1 Zr3 3.121884 1_455
Pt1 Zr4 3.121884 1_555
Pt1 Zr5 3.121884 1_455
Pt2 Zn10 2.601343 1_554
Pt2 Zn12 2.601343 1_455
Pt2 Zn14 2.601344 1_455
Pt2 Zn15 2.601344 1_554
Pt2 Zn1 2.624007 1_454
Pt2 Zn0 2.624007 1_555
Pt2 Zn3 2.624013 1_555
Pt2 Zn5 2.624013 1_454
Pt2 Zr1 3.121884 1_554
Pt2 Zr0 3.121884 1_455
Pt2 Zr5 3.121884 1_455
Pt2 Zr4 3.121884 1_554
Pt3 Zn11 2.601321 1_545
Pt3 Zn13 2.601321 1_555
Pt3 Zn8 2.601340 1_555
Pt3 Zn9 2.601340 1_545
Pt3 Zn4 2.624006 1_545
Pt3 Zn2 2.624006 1_555
Pt3 Zn7 2.624006 1_545
Pt3 Zn6 2.624006 1_555
Pt3 Zr0 3.121884 1_555
Pt3 Zr1 3.121884 1_545
Pt3 Zr4 3.121884 1_555
Pt3 Zr5 3.121884 1_545
Pt4 Zn13 2.601343 1_455
Pt4 Zn11 2.601343 1_545
Pt4 Zn15 2.601343 1_545
Pt4 Zn14 2.601343 1_455
Pt4 Zn1 2.624007 1_445
Pt4 Zn0 2.624007 1_555
Pt4 Zn2 2.624013 1_555
Pt4 Zn4 2.624013 1_445
Pt4 Zr3 3.121884 1_455
Pt4 Zr2 3.121884 1_545
Pt4 Zr1 3.121884 1_545
Pt4 Zr0 3.121884 1_455
Pt5 Zn12 2.601321 1_555
Pt5 Zn10 2.601321 1_554
Pt5 Zn9 2.601340 1_554
Pt5 Zn8 2.601340 1_555
Pt5 Zn5 2.624006 1_554
Pt5 Zn3 2.624006 1_555
Pt5 Zn7 2.624006 1_554
Pt5 Zn6 2.624006 1_555
Pt5 Zr0 3.121884 1_555
Pt5 Zr1 3.121884 1_554
Pt5 Zr2 3.121884 1_555
Pt5 Zr3 3.121884 1_554
