# generated using pymatgen
data_Li2B2OsRh
_symmetry_space_group_name_H-M   'P 1'
_cell_length_a   6.82726377
_cell_length_b   5.99996143
_cell_length_c   5.49824333
_cell_angle_alpha   72.70151008
_cell_angle_beta   57.04240048
_cell_angle_gamma   50.90418768
_symmetry_Int_Tables_number   1
_chemical_formula_structural   Li2B2OsRh
_chemical_formula_sum   'Li4 B4 Os2 Rh2'
_cell_volume   146.30513357
_cell_formula_units_Z   2
loop_
 _symmetry_equiv_pos_site_id
 _symmetry_equiv_pos_as_xyz
  1  'x, y, z'
loop_
 _atom_site_type_symbol
 _atom_site_label
 _atom_site_symmetry_multiplicity
 _atom_site_fract_x
 _atom_site_fract_y
 _atom_site_fract_z
 _atom_site_occupancy
  Li  Li0  1  0.12500000  0.62500000  0.62500000  1
  Li  Li1  1  0.62500000  0.62500000  0.62500000  1
  Li  Li2  1  0.62500000  0.62500000  0.12500000  1
  Li  Li3  1  0.62500000  0.12500000  0.62500000  1
  B  B0  1  0.43347202  0.07137359  0.42568167  1
  B  B1  1  0.17862641  0.81652798  0.18052728  1
  B  B2  1  0.07137359  0.43347202  0.06947272  1
  B  B3  1  0.81652798  0.17862641  0.82431833  1
  Os  Os0  1  0.38339971  0.38339971  0.11660029  1
  Os  Os1  1  0.86660029  0.86660029  0.13339971  1
  Rh  Rh0  1  0.13591023  0.13591023  0.86408977  1
  Rh  Rh1  1  0.11408977  0.11408977  0.38591023  1
loop_
_geom_bond_atom_site_label_1
_geom_bond_atom_site_label_2
_geom_bond_distance
_geom_bond_site_symmetry_2
Li0 Os1 2.616519 1_456
Li0 Os0 2.616519 1_555
Li0 Rh1 2.807450 1_565
Li0 Rh0 2.807450 1_555
Li1 Rh0 2.642999 1_565
Li1 Rh1 2.642999 1_655
Li1 Os1 2.821806 1_555
Li1 Os0 2.821806 1_556
Li2 Rh1 2.642999 1_565
Li2 Rh0 2.642999 1_654
Li2 Os1 2.821806 1_555
Li2 Os0 2.821806 1_555
Li3 Os0 2.616519 1_556
Li3 Os1 2.616519 1_545
Li3 Rh1 2.807450 1_655
Li3 Rh0 2.807450 1_555
B0 Os1 2.063457 1_545
B0 Rh0 2.079017 1_555
B0 Os0 2.107750 1_555
B0 Rh1 2.156092 1_555
B0 Li3 2.305187 1_555
B0 Li1 2.341039 1_545
B0 Li2 2.734956 1_545
B0 Li0 2.738756 1_555
B1 Os0 2.063457 1_555
B1 Rh1 2.079017 1_565
B1 Os1 2.107750 1_455
B1 Rh0 2.156092 1_564
B1 Li0 2.305187 1_555
B1 Li2 2.341039 1_555
B1 Li1 2.734956 1_554
B1 Li3 2.738757 1_465
B2 Os1 2.063457 1_455
B2 Rh0 2.079017 1_554
B2 Os0 2.107750 1_555
B2 Rh1 2.156092 1_555
B2 Li0 2.305187 1_554
B2 Li2 2.341039 1_455
B2 Li1 2.734956 1_455
B2 Li3 2.738757 1_554
B3 Os0 2.063457 1_556
B3 Rh1 2.079017 1_655
B3 Os1 2.107750 1_546
B3 Rh0 2.156092 1_655
B3 Li3 2.305187 1_555
B3 Li1 2.341039 1_555
B3 Li2 2.734956 1_556
B3 Li0 2.738756 1_645
