# generated using pymatgen
data_KNa2AsSe3
_symmetry_space_group_name_H-M   'P 1'
_cell_length_a   9.15843144
_cell_length_b   9.15843144
_cell_length_c   9.15843144
_cell_angle_alpha   90.00000000
_cell_angle_beta   90.00000000
_cell_angle_gamma   90.00000000
_symmetry_Int_Tables_number   1
_chemical_formula_structural   KNa2AsSe3
_chemical_formula_sum   'K4 Na8 As4 Se12'
_cell_volume   768.18053105
_cell_formula_units_Z   4
loop_
 _symmetry_equiv_pos_site_id
 _symmetry_equiv_pos_as_xyz
  1  'x, y, z'
loop_
 _atom_site_type_symbol
 _atom_site_label
 _atom_site_symmetry_multiplicity
 _atom_site_fract_x
 _atom_site_fract_y
 _atom_site_fract_z
 _atom_site_occupancy
  K  K0  1  0.92188352  0.42188352  0.07811648  1
  K  K1  1  0.42188352  0.07811648  0.92188352  1
  K  K2  1  0.07811648  0.92188352  0.42188352  1
  K  K3  1  0.57811648  0.57811648  0.57811648  1
  Na  Na0  1  0.18296177  0.68296177  0.81703823  1
  Na  Na1  1  0.68296177  0.81703823  0.18296177  1
  Na  Na2  1  0.81703823  0.18296177  0.68296177  1
  Na  Na3  1  0.31703823  0.31703823  0.31703823  1
  Na  Na4  1  0.68767398  0.18767398  0.31232602  1
  Na  Na5  1  0.18767398  0.31232602  0.68767398  1
  Na  Na6  1  0.31232602  0.68767398  0.18767398  1
  Na  Na7  1  0.81232602  0.81232602  0.81232602  1
  As  As0  1  0.47561736  0.97561736  0.52438264  1
  As  As1  1  0.97561736  0.52438264  0.47561736  1
  As  As2  1  0.52438264  0.47561736  0.97561736  1
  As  As3  1  0.02438264  0.02438264  0.02438264  1
  Se  Se0  1  0.00358795  0.77309023  0.09499485  1
  Se  Se1  1  0.90500515  0.50358795  0.72690977  1
  Se  Se2  1  0.27309023  0.40500515  0.99641205  1
  Se  Se3  1  0.50358795  0.72690977  0.90500515  1
  Se  Se4  1  0.40500515  0.99641205  0.27309023  1
  Se  Se5  1  0.77309023  0.09499485  0.00358795  1
  Se  Se6  1  0.99641205  0.27309023  0.40500515  1
  Se  Se7  1  0.09499485  0.00358795  0.77309023  1
  Se  Se8  1  0.72690977  0.90500515  0.50358795  1
  Se  Se9  1  0.49641205  0.22690977  0.59499485  1
  Se  Se10  1  0.59499485  0.49641205  0.22690977  1
  Se  Se11  1  0.22690977  0.59499485  0.49641205  1
loop_
_geom_bond_atom_site_label_1
_geom_bond_atom_site_label_2
_geom_bond_distance
_geom_bond_site_symmetry_2
K0 Se2 3.306012 1_654
K0 Se1 3.306012 1_554
K0 Se0 3.306012 1_655
K0 Se5 3.359411 1_555
K0 Se6 3.359411 1_555
K0 Se10 3.359411 1_555
K1 Se4 3.306012 1_546
K1 Se3 3.306012 1_545
K1 Se5 3.306012 1_556
K1 Se2 3.359411 1_555
K1 Se9 3.359411 1_555
K1 Se7 3.359411 1_555
K2 Se6 3.306012 1_465
K2 Se8 3.306012 1_455
K2 Se7 3.306012 1_565
K2 Se11 3.359411 1_555
K2 Se0 3.359411 1_555
K2 Se4 3.359411 1_555
K3 Se9 3.306012 1_555
K3 Se10 3.306012 1_555
K3 Se11 3.306012 1_555
K3 Se8 3.359411 1_555
K3 Se1 3.359411 1_555
K3 Se3 3.359411 1_555
Na0 Se7 3.071432 1_565
Na0 Se11 3.071432 1_555
Na0 Se3 3.071432 1_555
Na0 Se0 3.140127 1_556
Na0 Se2 3.140127 1_555
Na0 Se1 3.140127 1_455
Na1 Se0 3.071432 1_655
Na1 Se8 3.071432 1_555
Na1 Se10 3.071432 1_555
Na1 Se4 3.140127 1_555
Na1 Se3 3.140127 1_554
Na1 Se5 3.140127 1_565
Na2 Se5 3.071432 1_556
Na2 Se1 3.071432 1_555
Na2 Se9 3.071432 1_555
Na2 Se8 3.140127 1_545
Na2 Se7 3.140127 1_655
Na2 Se6 3.140127 1_555
Na3 Se6 3.071432 1_455
Na3 Se2 3.071432 1_554
Na3 Se4 3.071432 1_545
Na3 Se9 3.140127 1_555
Na3 Se10 3.140127 1_555
Na3 Se11 3.140127 1_555
Na4 Se10 3.054094 1_555
Na4 Se5 3.054094 1_555
Na4 Se6 3.054094 1_555
Na4 Se8 3.146321 1_545
Na4 Se4 3.146321 1_545
Na4 Se9 3.146321 1_555
Na5 Se9 3.054094 1_555
Na5 Se7 3.054094 1_555
Na5 Se2 3.054094 1_555
Na5 Se6 3.146321 1_455
Na5 Se1 3.146321 1_455
Na5 Se11 3.146321 1_555
Na6 Se0 3.054094 1_555
Na6 Se11 3.054094 1_555
Na6 Se4 3.054094 1_555
Na6 Se3 3.146321 1_554
Na6 Se2 3.146321 1_554
Na6 Se10 3.146321 1_555
Na7 Se3 3.054094 1_555
Na7 Se8 3.054094 1_555
Na7 Se1 3.054094 1_555
Na7 Se5 3.146321 1_566
Na7 Se0 3.146321 1_656
Na7 Se7 3.146321 1_665
As0 Se9 2.398152 1_565
As0 Se8 2.398152 1_555
As0 Se4 2.398152 1_555
As1 Se11 2.398152 1_655
As1 Se1 2.398152 1_555
As1 Se6 2.398152 1_555
As2 Se10 2.398152 1_556
As2 Se3 2.398152 1_555
As2 Se2 2.398152 1_555
As3 Se0 2.398152 1_545
As3 Se5 2.398152 1_455
As3 Se7 2.398152 1_554
