# generated using pymatgen
data_Cs5Al3Se7
_symmetry_space_group_name_H-M   'P 1'
_cell_length_a   11.20777100
_cell_length_b   11.20777156
_cell_length_c   9.66152684
_cell_angle_alpha   76.52297217
_cell_angle_beta   76.52296999
_cell_angle_gamma   71.58606657
_symmetry_Int_Tables_number   1
_chemical_formula_structural   Cs5Al3Se7
_chemical_formula_sum   'Cs10 Al6 Se14'
_cell_volume   1102.93295375
_cell_formula_units_Z   2
loop_
 _symmetry_equiv_pos_site_id
 _symmetry_equiv_pos_as_xyz
  1  'x, y, z'
loop_
 _atom_site_type_symbol
 _atom_site_label
 _atom_site_symmetry_multiplicity
 _atom_site_fract_x
 _atom_site_fract_y
 _atom_site_fract_z
 _atom_site_occupancy
  Cs  Cs0  1  0.03183214  0.43401344  0.71901512  1
  Cs  Cs1  1  0.43401344  0.03183214  0.71901512  1
  Cs  Cs2  1  0.96816786  0.56598656  0.28098488  1
  Cs  Cs3  1  0.56598656  0.96816786  0.28098488  1
  Cs  Cs4  1  0.29178412  0.70821588  0.00000000  1
  Cs  Cs5  1  0.70821588  0.29178412  1.00000000  1
  Cs  Cs6  1  0.84843015  0.15156985  0.50000000  1
  Cs  Cs7  1  0.15156985  0.84843015  0.50000000  1
  Cs  Cs8  1  0.42644430  0.42644430  0.69035449  1
  Cs  Cs9  1  0.57355570  0.57355570  0.30964551  1
  Al  Al0  1  0.21082858  0.21082858  0.18211981  1
  Al  Al1  1  0.78917142  0.78917142  0.81788019  1
  Al  Al2  1  0.07075284  0.07075284  0.05672273  1
  Al  Al3  1  0.92924716  0.92924716  0.94327727  1
  Al  Al4  1  0.34396532  0.34396532  0.33014555  1
  Al  Al5  1  0.65603468  0.65603468  0.66985445  1
  Se  Se0  1  0.00215159  0.28195530  0.11415639  1
  Se  Se1  1  0.28195530  0.00215159  0.11415639  1
  Se  Se2  1  0.99784841  0.71804470  0.88584361  1
  Se  Se3  1  0.71804470  0.99784841  0.88584361  1
  Se  Se4  1  0.20375849  0.20375849  0.43125301  1
  Se  Se5  1  0.79624151  0.79624151  0.56874699  1
  Se  Se6  1  0.06302957  0.06302957  0.81319178  1
  Se  Se7  1  0.93697043  0.93697043  0.18680822  1
  Se  Se8  1  0.34611566  0.34611566  0.07368563  1
  Se  Se9  1  0.65388434  0.65388434  0.92631437  1
  Se  Se10  1  0.25128008  0.54875759  0.39084854  1
  Se  Se11  1  0.54875759  0.25128008  0.39084854  1
  Se  Se12  1  0.74871992  0.45124241  0.60915146  1
  Se  Se13  1  0.45124241  0.74871992  0.60915146  1
loop_
_geom_bond_atom_site_label_1
_geom_bond_atom_site_label_2
_geom_bond_distance
_geom_bond_site_symmetry_2
Cs0 Se12 3.509917 1_455
Cs0 Se2 3.770445 1_455
Cs0 Se10 3.770765 1_555
Cs0 Se0 3.784609 1_556
Cs0 Se6 3.962919 1_555
Cs0 Se4 3.975925 1_555
Cs1 Se13 3.509917 1_545
Cs1 Se3 3.770445 1_545
Cs1 Se11 3.770765 1_555
Cs1 Se1 3.784608 1_556
Cs1 Se6 3.962919 1_555
Cs1 Se4 3.975925 1_555
Cs2 Se10 3.509917 1_655
Cs2 Se0 3.770445 1_655
Cs2 Se12 3.770765 1_555
Cs2 Se2 3.784609 1_554
Cs2 Se7 3.962919 1_555
Cs2 Se5 3.975925 1_555
Cs3 Se11 3.509917 1_565
Cs3 Se1 3.770445 1_565
Cs3 Se13 3.770765 1_555
Cs3 Se3 3.784608 1_554
Cs3 Se7 3.962919 1_555
Cs3 Se5 3.975925 1_555
Cs4 Se2 3.672751 1_454
Cs4 Se1 3.672751 1_565
Cs4 Se13 3.771946 1_554
Cs4 Se10 3.771946 1_555
Cs4 Se9 3.826468 1_554
Cs4 Se8 3.826468 1_555
Cs5 Se0 3.672751 1_656
Cs5 Se3 3.672751 1_545
Cs5 Se11 3.771946 1_556
Cs5 Se12 3.771946 1_555
Cs5 Se8 3.826468 1_556
Cs5 Se9 3.826468 1_555
Cs6 Se11 3.517381 1_555
Cs6 Se12 3.517381 1_555
Cs6 Se0 3.880503 1_655
Cs6 Se3 3.880503 1_545
Cs6 Se7 4.051000 1_545
Cs6 Se6 4.051000 1_655
Cs6 Se4 4.086651 1_655
Cs6 Se5 4.086651 1_545
Cs7 Se13 3.517381 1_555
Cs7 Se10 3.517381 1_555
Cs7 Se2 3.880503 1_455
Cs7 Se1 3.880503 1_565
Cs7 Se6 4.051000 1_565
Cs7 Se7 4.051000 1_455
Cs7 Se5 4.086651 1_455
Cs7 Se4 4.086651 1_565
Cs8 Se8 3.569484 1_556
Cs8 Se12 3.598745 1_555
Cs8 Se13 3.598745 1_555
Cs8 Se11 3.633940 1_555
Cs8 Se10 3.633941 1_555
Cs9 Se9 3.569484 1_554
Cs9 Se10 3.598745 1_555
Cs9 Se11 3.598745 1_555
Cs9 Se13 3.633940 1_555
Cs9 Se12 3.633941 1_555
Al0 Se4 2.373269 1_555
Al0 Se8 2.380609 1_555
Al0 Se0 2.414667 1_555
Al0 Se1 2.414667 1_555
Al1 Se5 2.373269 1_555
Al1 Se9 2.380609 1_555
Al1 Se2 2.414667 1_555
Al1 Se3 2.414667 1_555
Al2 Se7 2.395745 1_445
Al2 Se6 2.397004 1_554
Al2 Se1 2.401218 1_555
Al2 Se0 2.401218 1_555
Al3 Se6 2.395745 1_665
Al3 Se7 2.397004 1_556
Al3 Se3 2.401218 1_555
Al3 Se2 2.401218 1_555
Al4 Se11 2.351269 1_555
Al4 Se10 2.351269 1_555
Al4 Se4 2.453956 1_555
Al4 Se8 2.466845 1_555
Al5 Se13 2.351269 1_555
Al5 Se12 2.351269 1_555
Al5 Se5 2.453956 1_555
Al5 Se9 2.466845 1_555
