# generated using pymatgen
data_Lu2Co9SnB6
_symmetry_space_group_name_H-M   'P 1'
_cell_length_a   5.71281772
_cell_length_b   5.71281737
_cell_length_c   5.71281788
_cell_angle_alpha   95.55556283
_cell_angle_beta   95.55556467
_cell_angle_gamma   95.55558506
_symmetry_Int_Tables_number   1
_chemical_formula_structural   Lu2Co9SnB6
_chemical_formula_sum   'Lu2 Co9 Sn1 B6'
_cell_volume   183.63362184
_cell_formula_units_Z   1
loop_
 _symmetry_equiv_pos_site_id
 _symmetry_equiv_pos_as_xyz
  1  'x, y, z'
loop_
 _atom_site_type_symbol
 _atom_site_label
 _atom_site_symmetry_multiplicity
 _atom_site_fract_x
 _atom_site_fract_y
 _atom_site_fract_z
 _atom_site_occupancy
  Lu  Lu0  1  0.67116677  0.67116677  0.67116677  1
  Lu  Lu1  1  0.32883323  0.32883323  0.32883323  1
  Co  Co0  1  0.00000000  0.00000000  0.50000000  1
  Co  Co1  1  0.50000000  0.00000000  0.00000000  1
  Co  Co2  1  0.00000000  0.50000000  0.00000000  1
  Co  Co3  1  0.70244302  0.19612248  0.70244302  1
  Co  Co4  1  0.70244302  0.70244302  0.19612248  1
  Co  Co5  1  0.19612248  0.70244302  0.70244302  1
  Co  Co6  1  0.29755698  0.80387752  0.29755698  1
  Co  Co7  1  0.29755698  0.29755698  0.80387752  1
  Co  Co8  1  0.80387752  0.29755698  0.29755698  1
  Sn  Sn0  1  0.00000000  0.00000000  0.00000000  1
  B  B0  1  0.61534079  0.38465921  1.00000000  1
  B  B1  1  1.00000000  0.61534079  0.38465921  1
  B  B2  1  0.38465921  0.00000000  0.61534079  1
  B  B3  1  0.00000000  0.38465921  0.61534079  1
  B  B4  1  0.61534079  1.00000000  0.38465921  1
  B  B5  1  0.38465921  0.61534079  0.00000000  1
loop_
_geom_bond_atom_site_label_1
_geom_bond_atom_site_label_2
_geom_bond_distance
_geom_bond_site_symmetry_2
Lu0 Sn0 2.921837 1_666
Lu0 Lu1 3.041793 1_555
Lu1 Sn0 2.921837 1_555
Co0 Lu1 2.835884 1_555
Co0 Lu0 2.835884 1_445
Co0 Sn0 2.856409 1_555
Co0 Sn0 2.856409 1_556
Co1 Lu1 2.835885 1_555
Co1 Lu0 2.835885 1_544
Co1 Sn0 2.856409 1_655
Co1 Sn0 2.856409 1_555
Co2 Lu1 2.835885 1_555
Co2 Lu0 2.835885 1_454
Co2 Sn0 2.856409 1_565
Co2 Sn0 2.856409 1_555
Co3 Sn0 2.685630 1_656
Co3 Lu0 2.758691 1_555
Co3 Lu0 2.973890 1_545
Co3 Lu1 3.070896 1_555
Co4 Sn0 2.685629 1_665
Co4 Lu0 2.758691 1_555
Co4 Lu0 2.973891 1_554
Co4 Lu1 3.070895 1_555
Co5 Sn0 2.685630 1_566
Co5 Lu0 2.758691 1_555
Co5 Lu0 2.973890 1_455
Co5 Lu1 3.070896 1_555
Co6 Sn0 2.685630 1_565
Co6 Lu1 2.758691 1_555
Co6 Lu1 2.973890 1_565
Co6 Lu0 3.070896 1_555
Co7 Sn0 2.685629 1_556
Co7 Lu1 2.758691 1_555
Co7 Lu1 2.973891 1_556
Co7 Lu0 3.070895 1_555
Co8 Sn0 2.685630 1_655
Co8 Lu1 2.758691 1_555
Co8 Lu1 2.973890 1_655
Co8 Lu0 3.070896 1_555
B0 B5 1.951840 1_556
B0 Co4 2.030286 1_556
B0 Co7 2.030286 1_555
B0 Co8 2.051917 1_556
B0 Co3 2.051918 1_555
B0 Co1 2.232212 1_556
B0 Co2 2.232212 1_656
B0 Lu0 2.630588 1_555
B0 Lu1 2.630588 1_556
B1 B3 1.951840 1_655
B1 Co8 2.030285 1_555
B1 Co5 2.030286 1_655
B1 Co6 2.051917 1_655
B1 Co4 2.051918 1_555
B1 Co0 2.232212 1_665
B1 Co2 2.232212 1_655
B1 Lu0 2.630588 1_555
B1 Lu1 2.630588 1_655
B2 B4 1.951840 1_545
B2 Co3 2.030285 1_555
B2 Co6 2.030286 1_545
B2 Co5 2.051917 1_545
B2 Co7 2.051917 1_555
B2 Co0 2.232212 1_555
B2 Co1 2.232212 1_556
B2 Lu1 2.630588 1_555
B2 Lu0 2.630588 1_545
B3 Co5 2.030285 1_555
B3 Co8 2.030286 1_455
B3 Co3 2.051917 1_455
B3 Co7 2.051918 1_555
B3 Co0 2.232212 1_555
B3 Co2 2.232212 1_556
B3 Lu1 2.630588 1_555
B3 Lu0 2.630588 1_455
B4 Co6 2.030285 1_555
B4 Co3 2.030286 1_565
B4 Co8 2.051917 1_565
B4 Co4 2.051917 1_555
B4 Co0 2.232212 1_665
B4 Co1 2.232212 1_565
B4 Lu0 2.630588 1_555
B4 Lu1 2.630588 1_565
B5 Co7 2.030286 1_554
B5 Co4 2.030286 1_555
B5 Co5 2.051917 1_554
B5 Co6 2.051918 1_555
B5 Co1 2.232212 1_565
B5 Co2 2.232212 1_555
B5 Lu1 2.630588 1_555
B5 Lu0 2.630588 1_554
