# generated using pymatgen
data_Y3Hg(Ir2O7)2
_symmetry_space_group_name_H-M   'P 1'
_cell_length_a   7.15339538
_cell_length_b   7.30183441
_cell_length_c   7.28231823
_cell_angle_alpha   59.90776242
_cell_angle_beta   59.23298239
_cell_angle_gamma   59.30816866
_symmetry_Int_Tables_number   1
_chemical_formula_structural   Y3Hg(Ir2O7)2
_chemical_formula_sum   'Y3 Hg1 Ir4 O14'
_cell_volume   265.78132040
_cell_formula_units_Z   1
loop_
 _symmetry_equiv_pos_site_id
 _symmetry_equiv_pos_as_xyz
  1  'x, y, z'
loop_
 _atom_site_type_symbol
 _atom_site_label
 _atom_site_symmetry_multiplicity
 _atom_site_fract_x
 _atom_site_fract_y
 _atom_site_fract_z
 _atom_site_occupancy
  Y  Y0  1  0.12500000  0.62500000  0.12500000  1
  Y  Y1  1  0.12500000  0.12500000  0.62500000  1
  Y  Y2  1  0.12500000  0.12500000  0.12500000  1
  Hg  Hg0  1  0.62500000  0.12500000  0.12500000  1
  Ir  Ir0  1  0.12500000  0.62500000  0.62500000  1
  Ir  Ir1  1  0.62500000  0.12500000  0.62500000  1
  Ir  Ir2  1  0.62500000  0.62500000  0.12500000  1
  Ir  Ir3  1  0.62500000  0.62500000  0.62500000  1
  O  O0  1  0.71321026  0.69108879  0.29741697  1
  O  O1  1  0.28436184  0.28895454  0.71178215  1
  O  O2  1  0.71567990  0.29696872  0.69052026  1
  O  O3  1  0.28455887  0.71310940  0.28919728  1
  O  O4  1  0.28450874  0.71463095  0.71185391  1
  O  O5  1  0.71306573  0.29836002  0.29748765  1
  O  O6  1  0.53678974  0.55891121  0.95258303  1
  O  O7  1  0.96563816  0.96104546  0.53821785  1
  O  O8  1  0.53432010  0.95303128  0.55947974  1
  O  O9  1  0.96544113  0.53689060  0.96080272  1
  O  O10  1  0.96549126  0.53536905  0.53814609  1
  O  O11  1  0.53693427  0.95163998  0.95251235  1
  O  O12  1  0.25093149  0.25041619  0.24822168  1
  O  O13  1  0.99906851  0.99958381  0.00177832  1
loop_
_geom_bond_atom_site_label_1
_geom_bond_atom_site_label_2
_geom_bond_distance
_geom_bond_site_symmetry_2
Hg0 O13 2.161012 1_545
Hg0 O12 2.161012 1_555
Hg0 O8 2.599259 1_545
Hg0 O2 2.599259 1_554
Hg0 O0 2.606443 1_545
Hg0 O6 2.606443 1_554
Hg0 O5 2.606753 1_555
Hg0 O11 2.606753 1_544
Ir0 O9 2.003268 1_455
Ir0 O3 2.003268 1_555
Ir0 O4 2.011501 1_555
Ir0 O10 2.011501 1_455
Ir0 O7 2.011556 1_455
Ir0 O1 2.011556 1_555
Ir1 O11 1.984193 1_545
Ir1 O5 1.984193 1_555
Ir1 O2 1.993526 1_555
Ir1 O8 1.993526 1_545
Ir1 O1 1.993846 1_555
Ir1 O7 1.993846 1_545
Ir2 O11 1.983615 1_554
Ir2 O5 1.983615 1_555
Ir2 O0 1.984084 1_555
Ir2 O6 1.984084 1_554
Ir2 O9 1.991780 1_554
Ir2 O3 1.991780 1_555
Ir3 O6 1.984522 1_555
Ir3 O0 1.984522 1_555
Ir3 O8 1.992506 1_555
Ir3 O2 1.992506 1_555
Ir3 O10 1.993123 1_555
Ir3 O4 1.993123 1_555
O0 Y0 2.420529 1_655
O1 Y1 2.453796 1_555
O1 Y2 2.461496 1_556
O2 Y1 2.407470 1_655
O3 Y2 2.462453 1_565
O3 Y0 2.462488 1_555
O4 Y1 2.455249 1_565
O4 Y0 2.461265 1_556
O5 Y2 2.421387 1_655
O6 Y0 2.420529 1_556
O7 Y1 2.453796 1_665
O7 Y2 2.461496 1_665
O8 Y1 2.407470 1_565
O9 Y2 2.462453 1_656
O9 Y0 2.462488 1_656
O10 Y1 2.455249 1_655
O10 Y0 2.461265 1_655
O11 Y2 2.421387 1_566
O12 Y0 2.224482 1_555
O12 Y2 2.224541 1_555
O12 Y1 2.229867 1_555
O13 Y0 2.224482 1_655
O13 Y2 2.224541 1_665
O13 Y1 2.229867 1_664
