# generated using pymatgen
data_Li3AlH6
_symmetry_space_group_name_H-M   'P 1'
_cell_length_a   5.55819930
_cell_length_b   5.55819961
_cell_length_c   5.55819896
_cell_angle_alpha   91.39896208
_cell_angle_beta   91.39896783
_cell_angle_gamma   91.39896047
_symmetry_Int_Tables_number   1
_chemical_formula_structural   Li3AlH6
_chemical_formula_sum   'Li6 Al2 H12'
_cell_volume   171.55657762
_cell_formula_units_Z   2
loop_
 _symmetry_equiv_pos_site_id
 _symmetry_equiv_pos_as_xyz
  1  'x, y, z'
loop_
 _atom_site_type_symbol
 _atom_site_label
 _atom_site_symmetry_multiplicity
 _atom_site_fract_x
 _atom_site_fract_y
 _atom_site_fract_z
 _atom_site_occupancy
  Li  Li0  1  0.74940464  0.56741285  0.06095176  1
  Li  Li1  1  0.06095176  0.74940464  0.56741285  1
  Li  Li2  1  0.25059536  0.43258715  0.93904824  1
  Li  Li3  1  0.93904824  0.25059536  0.43258715  1
  Li  Li4  1  0.56741285  0.06095176  0.74940464  1
  Li  Li5  1  0.43258715  0.93904824  0.25059536  1
  Al  Al0  1  0.50000000  0.50000000  0.50000000  1
  Al  Al1  1  -0.00000000  0.00000000  0.00000000  1
  H  H0  1  0.08894065  0.95173727  0.29501901  1
  H  H1  1  0.91105935  0.04826273  0.70498099  1
  H  H2  1  0.20508770  0.42669059  0.56940799  1
  H  H3  1  0.56940799  0.20508770  0.42669059  1
  H  H4  1  0.42669059  0.56940799  0.20508770  1
  H  H5  1  0.79491230  0.57330941  0.43059201  1
  H  H6  1  0.43059201  0.79491230  0.57330941  1
  H  H7  1  0.57330941  0.43059201  0.79491230  1
  H  H8  1  0.70498099  0.91105935  0.04826273  1
  H  H9  1  0.95173727  0.29501901  0.08894065  1
  H  H10  1  0.29501901  0.08894065  0.95173727  1
  H  H11  1  0.04826273  0.70498099  0.91105935  1
loop_
_geom_bond_atom_site_label_1
_geom_bond_atom_site_label_2
_geom_bond_distance
_geom_bond_site_symmetry_2
Al0 H7 1.734276 1_555
Al0 H4 1.734276 1_555
Al0 H5 1.734276 1_555
Al0 H2 1.734276 1_555
Al0 H6 1.734276 1_555
Al0 H3 1.734276 1_555
Al1 H1 1.730195 1_454
Al1 H0 1.730195 1_545
Al1 H8 1.730195 1_445
Al1 H10 1.730195 1_554
Al1 H11 1.730195 1_544
Al1 H9 1.730195 1_455
H0 Li1 1.915017 1_555
H0 Li5 1.934686 1_555
H0 Li3 2.018595 1_465
H1 Li3 1.915017 1_555
H1 Li4 1.934686 1_555
H1 Li1 2.018595 1_645
H2 Li3 1.887049 1_455
H2 Li1 1.982432 1_555
H2 Li2 2.063273 1_555
H3 Li5 1.887049 1_545
H3 Li4 1.982432 1_555
H3 Li3 2.063273 1_555
H4 Li2 1.887049 1_554
H4 Li0 1.982432 1_555
H4 Li5 2.063273 1_555
H5 Li1 1.887049 1_655
H5 Li3 1.982432 1_555
H5 Li0 2.063273 1_555
H6 Li4 1.887049 1_565
H6 Li5 1.982432 1_555
H6 Li1 2.063273 1_555
H7 Li0 1.887049 1_556
H7 Li2 1.982432 1_555
H7 Li4 2.063273 1_555
H8 Li5 1.915017 1_555
H8 Li0 1.934686 1_555
H8 Li4 2.018595 1_564
H9 Li0 1.915017 1_555
H9 Li3 1.934686 1_555
H9 Li2 2.018595 1_654
H10 Li4 1.915017 1_555
H10 Li2 1.934686 1_555
H10 Li5 2.018595 1_546
H11 Li2 1.915017 1_555
H11 Li1 1.934686 1_555
H11 Li0 2.018595 1_456
