# generated using pymatgen
data_CaCoIO6
_symmetry_space_group_name_H-M   'P 1'
_cell_length_a   4.98292784
_cell_length_b   4.98292826
_cell_length_c   5.08387382
_cell_angle_alpha   90.00000000
_cell_angle_beta   90.00000000
_cell_angle_gamma   120.00000356
_symmetry_Int_Tables_number   1
_chemical_formula_structural   CaCoIO6
_chemical_formula_sum   'Ca1 Co1 I1 O6'
_cell_volume   109.31873848
_cell_formula_units_Z   1
loop_
 _symmetry_equiv_pos_site_id
 _symmetry_equiv_pos_as_xyz
  1  'x, y, z'
loop_
 _atom_site_type_symbol
 _atom_site_label
 _atom_site_symmetry_multiplicity
 _atom_site_fract_x
 _atom_site_fract_y
 _atom_site_fract_z
 _atom_site_occupancy
  Ca  Ca0  1  0.33333400  0.66666800  0.00000000  1
  Co  Co0  1  0.66666800  0.33333400  0.50000000  1
  I  I0  1  0.00000000  0.00000000  0.50000000  1
  O  O0  1  0.70503427  0.03564355  0.29289178  1
  O  O1  1  0.33060928  0.29496473  0.29289178  1
  O  O2  1  0.96435645  0.66938972  0.29289178  1
  O  O3  1  0.33060928  0.03564355  0.70710722  1
  O  O4  1  0.96435545  0.29496473  0.70710722  1
  O  O5  1  0.70503327  0.66938972  0.70710722  1
loop_
_geom_bond_atom_site_label_1
_geom_bond_atom_site_label_2
_geom_bond_distance
_geom_bond_site_symmetry_2
Ca0 O0 2.371226 1_565
Ca0 O2 2.371228 1_455
Ca0 O3 2.371229 1_564
Ca0 O5 2.371231 1_554
Ca0 O1 2.371238 1_555
Ca0 O4 2.371241 1_454
Co0 O4 1.905023 1_555
Co0 O2 1.905025 1_555
Co0 O5 1.905026 1_555
Co0 O0 1.905031 1_555
Co0 O3 1.905033 1_555
Co0 O1 1.905034 1_555
I0 O4 1.887192 1_455
I0 O3 1.887193 1_555
I0 O1 1.887194 1_555
I0 O0 1.887196 1_455
I0 O5 1.887197 1_445
I0 O2 1.887200 1_445
