# generated using pymatgen
data_CaInSn5Rh4
_symmetry_space_group_name_H-M   'P 1'
_cell_length_a   6.88630044
_cell_length_b   6.96925315
_cell_length_c   6.90922778
_cell_angle_alpha   120.26590147
_cell_angle_beta   119.86824133
_cell_angle_gamma   90.03786081
_symmetry_Int_Tables_number   1
_chemical_formula_structural   CaInSn5Rh4
_chemical_formula_sum   'Ca1 In1 Sn5 Rh4'
_cell_volume   233.91261633
_cell_formula_units_Z   1
loop_
 _symmetry_equiv_pos_site_id
 _symmetry_equiv_pos_as_xyz
  1  'x, y, z'
loop_
 _atom_site_type_symbol
 _atom_site_label
 _atom_site_symmetry_multiplicity
 _atom_site_fract_x
 _atom_site_fract_y
 _atom_site_fract_z
 _atom_site_occupancy
  Ca  Ca0  1  0.00159476  0.00007839  0.00000100  1
  In  In0  1  0.46781475  0.12011109  0.00000300  1
  Sn  Sn0  1  0.12752862  0.46222413  0.00000100  1
  Sn  Sn1  1  0.87325188  0.87553715  0.33907802  1
  Sn  Sn2  1  0.49990052  0.00237418  0.50134847  1
  Sn  Sn3  1  0.99855205  0.50102671  0.49865153  1
  Sn  Sn4  1  0.53417585  0.53645912  0.66092498  1
  Rh  Rh0  1  0.75626988  0.40529091  0.99999800  1
  Rh  Rh1  1  0.39885664  0.74850597  0.99999800  1
  Rh  Rh2  1  0.60117396  0.60434311  0.36029186  1
  Rh  Rh3  1  0.24088210  0.24404825  0.63970414  1
loop_
_geom_bond_atom_site_label_1
_geom_bond_atom_site_label_2
_geom_bond_distance
_geom_bond_site_symmetry_2
Ca0 Rh3 3.210650 1_555
Ca0 Rh2 3.210681 1_444
Ca0 Rh1 3.250259 1_544
Ca0 Rh0 3.291728 1_454
Ca0 In0 3.317183 1_555
Ca0 Sn0 3.334966 1_555
Ca0 Sn1 3.336768 1_445
Ca0 Sn4 3.336774 1_444
Ca0 Sn2 3.446613 1_555
Ca0 Sn3 3.446618 1_444
Ca0 Sn3 3.465012 1_455
Ca0 Sn2 3.465014 1_454
In0 Rh1 2.632657 1_544
In0 Rh2 2.771215 1_555
In0 Rh3 2.771236 1_554
In0 Rh0 2.809053 1_554
Rh0 Sn0 2.586935 1_656
Rh0 Sn2 2.656109 1_555
Rh0 Sn3 2.656122 1_556
Rh0 Sn4 2.693523 1_555
Rh0 Sn1 2.693555 1_556
Rh1 Sn3 2.652010 1_455
Rh1 Sn2 2.652026 1_566
Rh1 Sn4 2.688298 1_555
Rh1 Sn1 2.688316 1_556
Rh1 Sn0 2.732572 1_556
Rh2 Sn4 2.587666 1_555
Rh2 Sn3 2.647921 1_555
Rh2 Sn2 2.661857 1_565
Rh2 Sn0 2.690648 1_555
Rh2 Sn1 2.766254 1_555
Rh3 Sn1 2.587649 1_445
Rh3 Sn2 2.647905 1_555
Rh3 Sn3 2.661869 1_455
Rh3 Sn0 2.690677 1_556
Rh3 Sn4 2.766246 1_555
