# generated using pymatgen
data_SiAg2F6
_symmetry_space_group_name_H-M   'P 1'
_cell_length_a   5.39781929
_cell_length_b   5.39781988
_cell_length_c   5.39781929
_cell_angle_alpha   120.00000191
_cell_angle_beta   90.00000000
_cell_angle_gamma   120.00000191
_symmetry_Int_Tables_number   1
_chemical_formula_structural   SiAg2F6
_chemical_formula_sum   'Si1 Ag2 F6'
_cell_volume   111.20902864
_cell_formula_units_Z   1
loop_
 _symmetry_equiv_pos_site_id
 _symmetry_equiv_pos_as_xyz
  1  'x, y, z'
loop_
 _atom_site_type_symbol
 _atom_site_label
 _atom_site_symmetry_multiplicity
 _atom_site_fract_x
 _atom_site_fract_y
 _atom_site_fract_z
 _atom_site_occupancy
  Si  Si0  1  0.00000000  0.00000000  0.00000000  1
  Ag  Ag0  1  0.74999900  0.49999900  0.25000000  1
  Ag  Ag1  1  0.25000000  0.49999900  0.74999900  1
  F  F0  1  0.22257621  1.00000000  0.22257621  1
  F  F1  1  0.22257621  0.44515343  0.22257621  1
  F  F2  1  0.77742279  0.00000000  0.22257621  1
  F  F3  1  0.22257621  0.00000000  0.77742279  1
  F  F4  1  0.77742279  0.00000000  0.77742279  1
  F  F5  1  0.77742279  0.55484557  0.77742279  1
loop_
_geom_bond_atom_site_label_1
_geom_bond_atom_site_label_2
_geom_bond_distance
_geom_bond_site_symmetry_2
Ag0 F0 2.707011 1_545
Ag0 F2 2.707011 1_555
Ag0 F5 2.707013 1_555
Ag0 F3 2.707016 1_554
Ag0 F3 2.707016 1_665
Ag0 F1 2.707016 1_555
Ag0 F1 2.707016 1_655
Ag0 F4 2.707016 1_565
Ag0 F4 2.707016 1_554
Ag0 F5 2.707019 1_554
Ag0 F0 2.707022 1_655
Ag0 F2 2.707022 1_565
Ag1 F0 2.707011 1_545
Ag1 F3 2.707011 1_555
Ag1 F5 2.707013 1_555
Ag1 F2 2.707016 1_455
Ag1 F2 2.707016 1_566
Ag1 F1 2.707016 1_555
Ag1 F1 2.707016 1_556
Ag1 F4 2.707016 1_565
Ag1 F4 2.707016 1_455
Ag1 F5 2.707019 1_455
Ag1 F0 2.707022 1_556
Ag1 F3 2.707022 1_565
F0 Si0 1.699073 1_565
F1 Si0 1.699077 1_555
F2 Si0 1.699077 1_655
F3 Si0 1.699077 1_556
F4 Si0 1.699081 1_656
F5 Si0 1.699081 1_666
