# generated using pymatgen
data_K2ZnCrF7
_symmetry_space_group_name_H-M   'P 1'
_cell_length_a   7.58277022
_cell_length_b   7.58276996
_cell_length_c   7.58276916
_cell_angle_alpha   120.91051411
_cell_angle_beta   116.71073223
_cell_angle_gamma   92.10981972
_symmetry_Int_Tables_number   1
_chemical_formula_structural   K2ZnCrF7
_chemical_formula_sum   'K4 Zn2 Cr2 F14'
_cell_volume   313.10516853
_cell_formula_units_Z   2
loop_
 _symmetry_equiv_pos_site_id
 _symmetry_equiv_pos_as_xyz
  1  'x, y, z'
loop_
 _atom_site_type_symbol
 _atom_site_label
 _atom_site_symmetry_multiplicity
 _atom_site_fract_x
 _atom_site_fract_y
 _atom_site_fract_z
 _atom_site_occupancy
  K  K0  1  0.00000000  0.00000000  0.00000000  1
  K  K1  1  0.00000000  0.50000000  0.00000000  1
  K  K2  1  0.00000000  0.00000000  0.50000000  1
  K  K3  1  0.50000000  0.50000000  0.00000000  1
  Zn  Zn0  1  0.50000000  0.50000000  0.50000000  1
  Zn  Zn1  1  0.50000000  0.00000000  0.00000000  1
  Cr  Cr0  1  0.50000000  0.00000000  0.50000000  1
  Cr  Cr1  1  0.00000000  0.50000000  0.50000000  1
  F  F0  1  0.81203067  0.19938362  0.24057897  1
  F  F1  1  0.20406190  0.91352188  0.29054002  1
  F  F2  1  0.45880566  0.69938362  0.38735396  1
  F  F3  1  0.12298186  0.41352188  0.70945998  1
  F  F4  1  0.54119434  0.30061538  0.61264604  1
  F  F5  1  0.87701814  0.58647812  0.29054002  1
  F  F6  1  0.81203067  0.57145170  0.61264604  1
  F  F7  1  0.40146773  0.25000000  0.15146773  1
  F  F8  1  0.59853227  0.75000000  0.84853227  1
  F  F9  1  0.18796933  0.80061538  0.75942103  1
  F  F10  1  0.54119434  0.92854830  0.24057897  1
  F  F11  1  0.18796933  0.42854830  0.38735396  1
  F  F12  1  0.45880566  0.07145170  0.75942103  1
  F  F13  1  0.79593810  0.08647812  0.70945998  1
loop_
_geom_bond_atom_site_label_1
_geom_bond_atom_site_label_2
_geom_bond_distance
_geom_bond_site_symmetry_2
Cr0 F13 1.898908 1_555
Cr0 F1 1.898908 1_545
Cr0 F12 1.931470 1_555
Cr0 F10 1.931470 1_545
Cr0 F4 1.931471 1_555
Cr0 F2 1.931478 1_545
Cr1 F3 1.898908 1_555
Cr1 F5 1.898908 1_455
Cr1 F9 1.931471 1_555
Cr1 F11 1.931471 1_555
Cr1 F6 1.931471 1_455
Cr1 F0 1.931475 1_455
F0 Zn1 2.057833 1_555
F0 K0 2.703289 1_655
F0 K2 2.980035 1_655
F1 K0 2.484417 1_565
F1 K2 2.561441 1_565
F1 K1 2.561441 1_555
F2 Zn0 2.057828 1_555
F2 K3 2.703290 1_555
F2 K1 2.980042 1_555
F3 K3 2.484418 1_556
F3 K1 2.561441 1_556
F3 K2 2.561441 1_555
F4 Zn0 2.057835 1_555
F4 K3 2.703291 1_556
F4 K1 2.980042 1_656
F5 K3 2.484418 1_555
F5 K1 2.561441 1_655
F5 K2 2.561441 1_665
F6 Zn0 2.057835 1_555
F6 K0 2.703291 1_666
F6 K1 2.980042 1_656
F7 Zn0 2.027269 1_555
F7 Zn1 2.027269 1_555
F7 K3 2.893981 1_555
F7 K0 2.893981 1_555
F8 Zn0 2.027269 1_555
F8 Zn1 2.027269 1_566
F8 K3 2.893981 1_556
F8 K0 2.893981 1_666
F9 Zn1 2.057835 1_566
F9 K0 2.703291 1_566
F9 K2 2.980042 1_565
F10 Zn1 2.057835 1_565
F10 K3 2.703291 1_555
F10 K2 2.980042 1_665
F11 Zn0 2.057835 1_555
F11 K0 2.703291 1_555
F11 K1 2.980042 1_555
F12 Zn1 2.057835 1_556
F12 K3 2.703291 1_556
F12 K2 2.980042 1_555
F13 K0 2.484417 1_656
F13 K2 2.561441 1_655
F13 K1 2.561441 1_656
