# generated using pymatgen
data_Sm2CdSe4
_symmetry_space_group_name_H-M   'P 1'
_cell_length_a   7.71403788
_cell_length_b   7.71403788
_cell_length_c   7.71403788
_cell_angle_alpha   110.67624624
_cell_angle_beta   110.67624624
_cell_angle_gamma   107.08715305
_symmetry_Int_Tables_number   1
_chemical_formula_structural   Sm2CdSe4
_chemical_formula_sum   'Sm4 Cd2 Se8'
_cell_volume   352.90843566
_cell_formula_units_Z   2
loop_
 _symmetry_equiv_pos_site_id
 _symmetry_equiv_pos_as_xyz
  1  'x, y, z'
loop_
 _atom_site_type_symbol
 _atom_site_label
 _atom_site_symmetry_multiplicity
 _atom_site_fract_x
 _atom_site_fract_y
 _atom_site_fract_z
 _atom_site_occupancy
  Sm  Sm0  1  0.37500000  0.76031500  0.88531500  1
  Sm  Sm1  1  0.23968500  0.12500000  0.61468500  1
  Sm  Sm2  1  0.87500000  0.48968500  0.11468500  1
  Sm  Sm3  1  0.51031500  0.62500000  0.38531500  1
  Cd  Cd0  1  0.00000000  0.00000000  0.00000000  1
  Cd  Cd1  1  0.75000000  0.25000000  0.50000000  1
  Se  Se0  1  0.50569600  0.24454900  0.12409100  1
  Se  Se1  1  0.99454900  0.75569600  0.62409100  1
  Se  Se2  1  0.75545100  0.87954200  0.26114700  1
  Se  Se3  1  0.13160500  0.37045800  0.37590900  1
  Se  Se4  1  0.24430400  0.86839500  0.23885300  1
  Se  Se5  1  0.62954200  0.00545100  0.76114700  1
  Se  Se6  1  0.61839500  0.49430400  0.73885300  1
  Se  Se7  1  0.12045800  0.38160500  0.87590900  1
loop_
_geom_bond_atom_site_label_1
_geom_bond_atom_site_label_2
_geom_bond_distance
_geom_bond_site_symmetry_2
Cd0 Se1 2.823168 1_444
Cd0 Se3 2.823168 1_555
Cd0 Se4 2.823168 1_545
Cd0 Se5 2.823168 1_454
Cd1 Se7 2.823168 1_655
Cd1 Se6 2.823168 1_555
Cd1 Se2 2.823168 1_545
Cd1 Se0 2.823168 1_555
Se0 Sm3 2.895960 1_555
Se0 Sm2 2.962099 1_555
Se0 Sm0 3.158982 1_544
Se0 Sm1 3.337273 1_554
Se1 Sm0 2.895960 1_655
Se1 Sm1 2.962099 1_665
Se1 Sm3 3.158982 1_555
Se1 Sm2 3.337273 1_555
Se2 Sm0 2.895960 1_554
Se2 Sm3 2.962099 1_555
Se2 Sm1 3.158982 1_665
Se2 Sm2 3.337273 1_555
Se3 Sm2 2.895960 1_455
Se3 Sm3 2.962099 1_555
Se3 Sm1 3.158982 1_555
Se3 Sm0 3.337273 1_555
Se4 Sm1 2.895960 1_565
Se4 Sm2 2.962099 1_455
Se4 Sm0 3.158982 1_554
Se4 Sm3 3.337273 1_555
Se5 Sm3 2.895960 1_545
Se5 Sm0 2.962099 1_545
Se5 Sm2 3.158982 1_556
Se5 Sm1 3.337273 1_555
Se6 Sm2 2.895960 1_556
Se6 Sm1 2.962099 1_555
Se6 Sm3 3.158982 1_555
Se6 Sm0 3.337273 1_555
Se7 Sm1 2.895960 1_555
Se7 Sm0 2.962099 1_555
Se7 Sm2 3.158982 1_456
Se7 Sm3 3.337273 1_556
