# generated using pymatgen
data_Li4B4OsRh3
_symmetry_space_group_name_H-M   'P 1'
_cell_length_a   6.86914304
_cell_length_b   6.00739952
_cell_length_c   5.51083230
_cell_angle_alpha   73.07723809
_cell_angle_beta   56.79108703
_cell_angle_gamma   50.15642690
_symmetry_Int_Tables_number   1
_chemical_formula_structural   Li4B4OsRh3
_chemical_formula_sum   'Li4 B4 Os1 Rh3'
_cell_volume   145.45213027
_cell_formula_units_Z   1
loop_
 _symmetry_equiv_pos_site_id
 _symmetry_equiv_pos_as_xyz
  1  'x, y, z'
loop_
 _atom_site_type_symbol
 _atom_site_label
 _atom_site_symmetry_multiplicity
 _atom_site_fract_x
 _atom_site_fract_y
 _atom_site_fract_z
 _atom_site_occupancy
  Li  Li0  1  0.12466431  0.62298992  0.62690352  1
  Li  Li1  1  0.61404181  0.63086996  0.62717998  1
  Li  Li2  1  0.63086996  0.61404181  0.12790825  1
  Li  Li3  1  0.62298992  0.12466431  0.62544224  1
  B  B0  1  0.42823451  0.06580808  0.41826780  1
  B  B1  1  0.18657633  0.82011002  0.17552381  1
  B  B2  1  0.06580808  0.42823451  0.08768861  1
  B  B3  1  0.82011002  0.18657633  0.81778984  1
  Os  Os0  1  0.11643030  0.11643030  0.38356970  1
  Rh  Rh0  1  0.38517146  0.38517146  0.11482854  1
  Rh  Rh1  1  0.86916247  0.86916247  0.13083753  1
  Rh  Rh2  1  0.13594083  0.13594083  0.86405917  1
loop_
_geom_bond_atom_site_label_1
_geom_bond_atom_site_label_2
_geom_bond_distance
_geom_bond_site_symmetry_2
Li0 Rh1 2.589535 1_456
Li0 Rh0 2.597385 1_555
Li0 Rh2 2.805219 1_555
Li0 Os0 2.853517 1_565
Li1 Rh2 2.556764 1_565
Li1 Os0 2.633786 1_655
Li2 Rh2 2.556764 1_654
Li2 Os0 2.633786 1_565
Li3 Rh1 2.589535 1_545
Li3 Rh0 2.597385 1_556
Li3 Rh2 2.805220 1_555
Li3 Os0 2.853517 1_655
B0 Os0 2.072826 1_555
B0 Rh1 2.080265 1_545
B0 Rh2 2.087977 1_555
B0 Rh0 2.124029 1_555
B0 Li1 2.316582 1_545
B0 Li3 2.394243 1_555
B0 Li2 2.666676 1_545
B0 Li0 2.746716 1_555
B1 Os0 2.049239 1_565
B1 Rh0 2.059476 1_555
B1 Rh2 2.139950 1_564
B1 Rh1 2.150363 1_455
B1 Li2 2.320829 1_555
B1 Li0 2.354228 1_555
B1 Li1 2.654978 1_554
B1 Li3 2.744603 1_465
B2 Os0 2.072829 1_555
B2 Rh1 2.080265 1_455
B2 Rh2 2.087973 1_554
B2 Rh0 2.124032 1_555
B2 Li2 2.316580 1_455
B2 Li0 2.394238 1_554
B2 Li1 2.666680 1_455
B2 Li3 2.746715 1_554
B3 Os0 2.049239 1_655
B3 Rh0 2.059477 1_556
B3 Rh2 2.139950 1_655
B3 Rh1 2.150362 1_546
B3 Li1 2.320829 1_555
B3 Li3 2.354228 1_555
B3 Li2 2.654977 1_556
B3 Li0 2.744602 1_645
