# generated using pymatgen
data_Lu12Ni4OsPb
_symmetry_space_group_name_H-M   'P 1'
_cell_length_a   8.08946453
_cell_length_b   8.08946577
_cell_length_c   8.08946521
_cell_angle_alpha   111.74936530
_cell_angle_beta   109.99244971
_cell_angle_gamma   106.71172137
_symmetry_Int_Tables_number   1
_chemical_formula_structural   Lu12Ni4OsPb
_chemical_formula_sum   'Lu12 Ni4 Os1 Pb1'
_cell_volume   406.70397560
_cell_formula_units_Z   1
loop_
 _symmetry_equiv_pos_site_id
 _symmetry_equiv_pos_as_xyz
  1  'x, y, z'
loop_
 _atom_site_type_symbol
 _atom_site_label
 _atom_site_symmetry_multiplicity
 _atom_site_fract_x
 _atom_site_fract_y
 _atom_site_fract_z
 _atom_site_occupancy
  Lu  Lu0  1  0.67830706  0.87044233  0.19213627  1
  Lu  Lu1  1  0.32169294  0.51382922  0.19213627  1
  Lu  Lu2  1  0.82175347  0.77638673  0.59814020  1
  Lu  Lu3  1  0.17824653  0.77638673  0.95463326  1
  Lu  Lu4  1  0.82175347  0.22361327  0.04536674  1
  Lu  Lu5  1  0.17824653  0.22361327  0.40185980  1
  Lu  Lu6  1  0.67830706  0.48617078  0.80786373  1
  Lu  Lu7  1  0.32169294  0.12955767  0.80786373  1
  Lu  Lu8  1  0.58473412  0.27796133  0.30677179  1
  Lu  Lu9  1  0.41526588  0.72203867  0.69322821  1
  Lu  Lu10  1  0.02881147  0.72203867  0.30677179  1
  Lu  Lu11  1  0.97118853  0.27796133  0.69322821  1
  Ni  Ni0  1  0.35673546  0.50000000  0.85673546  1
  Ni  Ni1  1  0.64326454  0.50000000  0.14326454  1
  Ni  Ni2  1  0.88139418  0.88139418  1.00000000  1
  Ni  Ni3  1  0.11860582  0.11860582  0.00000000  1
  Os  Os0  1  0.00000000  0.50000000  0.50000000  1
  Pb  Pb0  1  0.50000000  0.00000000  0.50000000  1
loop_
_geom_bond_atom_site_label_1
_geom_bond_atom_site_label_2
_geom_bond_distance
_geom_bond_site_symmetry_2
Lu0 Ni2 2.624315 1_554
Lu0 Ni1 2.788113 1_555
Lu0 Ni0 2.788118 1_554
Lu0 Pb0 3.282183 1_565
Lu1 Ni3 2.624315 1_555
Lu1 Ni1 2.788121 1_555
Lu1 Ni0 2.788121 1_554
Lu1 Pb0 3.282182 1_565
Lu2 Ni2 2.857902 1_555
Lu2 Ni3 2.857902 1_666
Lu2 Os0 3.004947 1_655
Lu2 Ni1 3.006186 1_555
Lu2 Pb0 3.610564 1_565
Lu3 Ni2 2.857902 1_455
Lu3 Ni3 2.857902 1_566
Lu3 Os0 3.004947 1_555
Lu3 Ni0 3.006186 1_555
Lu3 Pb0 3.610564 1_566
Lu4 Ni3 2.857902 1_655
Lu4 Ni2 2.857902 1_544
Lu4 Os0 3.004947 1_655
Lu4 Ni1 3.006186 1_555
Lu4 Pb0 3.610564 1_554
Lu5 Ni3 2.857902 1_555
Lu5 Ni2 2.857902 1_444
Lu5 Os0 3.004947 1_555
Lu5 Ni0 3.006186 1_555
Lu5 Pb0 3.610564 1_555
Lu6 Ni2 2.624315 1_555
Lu6 Ni0 2.788121 1_555
Lu6 Ni1 2.788121 1_556
Lu6 Pb0 3.282182 1_555
Lu7 Ni3 2.624315 1_556
Lu7 Ni0 2.788113 1_555
Lu7 Ni1 2.788118 1_556
Lu7 Pb0 3.282183 1_555
Lu8 Ni1 2.626733 1_555
Lu8 Os0 2.795158 1_655
Lu8 Pb0 3.228030 1_555
Lu8 Ni3 3.236305 1_555
Lu9 Ni0 2.626733 1_555
Lu9 Os0 2.795158 1_555
Lu9 Pb0 3.228030 1_565
Lu9 Ni2 3.236305 1_555
Lu10 Ni1 2.626741 1_455
Lu10 Os0 2.795166 1_555
Lu10 Pb0 3.228022 1_565
Lu10 Ni2 3.236301 1_454
Lu11 Ni0 2.626741 1_655
Lu11 Os0 2.795166 1_655
Lu11 Pb0 3.228022 1_555
Lu11 Ni3 3.236301 1_656
Ni2 Ni3 2.290583 1_666
