# generated using pymatgen
data_Cs2NbAuS4
_symmetry_space_group_name_H-M   'P 1'
_cell_length_a   14.39331901
_cell_length_b   12.82152335
_cell_length_c   7.74095559
_cell_angle_alpha   85.04471715
_cell_angle_beta   62.55671607
_cell_angle_gamma   32.39857204
_symmetry_Int_Tables_number   1
_chemical_formula_structural   Cs2NbAuS4
_chemical_formula_sum   'Cs4 Nb2 Au2 S8'
_cell_volume   523.81245784
_cell_formula_units_Z   2
loop_
 _symmetry_equiv_pos_site_id
 _symmetry_equiv_pos_as_xyz
  1  'x, y, z'
loop_
 _atom_site_type_symbol
 _atom_site_label
 _atom_site_symmetry_multiplicity
 _atom_site_fract_x
 _atom_site_fract_y
 _atom_site_fract_z
 _atom_site_occupancy
  Cs  Cs0  1  0.82123350  0.82123350  0.17876650  1
  Cs  Cs1  1  0.17876650  0.17876650  0.82123350  1
  Cs  Cs2  1  0.42876650  0.42876650  0.07123350  1
  Cs  Cs3  1  0.07123350  0.07123350  0.42876650  1
  Nb  Nb0  1  0.25000000  0.25000000  0.25000000  1
  Nb  Nb1  1  0.00000000  0.00000000  0.00000000  1
  Au  Au0  1  0.50000000  0.50000000  0.50000000  1
  Au  Au1  1  0.75000000  0.75000000  0.75000000  1
  S  S0  1  0.73673111  0.37075244  0.07275299  1
  S  S1  1  0.43023553  0.17724701  0.87924756  1
  S  S2  1  0.87924756  0.51326889  0.43023553  1
  S  S3  1  0.17724701  0.43023553  0.51326889  1
  S  S4  1  0.07275299  0.81976447  0.73673111  1
  S  S5  1  0.37075244  0.73673111  0.81976447  1
  S  S6  1  0.51326889  0.87924756  0.17724701  1
  S  S7  1  0.81976447  0.07275299  0.37075244  1
loop_
_geom_bond_atom_site_label_1
_geom_bond_atom_site_label_2
_geom_bond_distance
_geom_bond_site_symmetry_2
Cs0 S1 3.569417 1_654
Cs0 S3 3.569420 1_565
Cs0 S4 3.645911 1_654
Cs0 S7 3.645915 1_565
Cs0 S1 3.831198 1_565
Cs0 S3 3.831205 1_654
Cs0 S2 3.831498 1_555
Cs0 S6 3.831503 1_555
Cs1 S2 3.569414 1_456
Cs1 S6 3.569420 1_545
Cs1 S0 3.645901 1_456
Cs1 S5 3.645903 1_545
Cs1 S2 3.831199 1_545
Cs1 S6 3.831201 1_456
Cs1 S1 3.831488 1_555
Cs1 S3 3.831493 1_555
Cs2 S7 3.569417 1_465
Cs2 S4 3.569420 1_644
Cs2 S3 3.645911 1_555
Cs2 S1 3.645915 1_554
Cs2 S7 3.831198 1_554
Cs2 S4 3.831205 1_555
Cs2 S5 3.831498 1_554
Cs2 S0 3.831503 1_555
Cs3 S5 3.569414 1_544
Cs3 S0 3.569420 1_456
Cs3 S6 3.645901 1_545
Cs3 S2 3.645903 1_455
Cs3 S5 3.831199 1_455
Cs3 S0 3.831201 1_545
Cs3 S7 3.831488 1_455
Cs3 S4 3.831493 1_545
Nb0 S3 2.313045 1_555
Nb0 S1 2.313051 1_554
Nb0 S6 2.313054 1_545
Nb0 S2 2.313057 1_455
Nb1 S4 2.313045 1_544
Nb1 S7 2.313051 1_455
Nb1 S0 2.313054 1_455
Nb1 S5 2.313057 1_544
Au0 S4 2.513736 1_555
Au0 S7 2.513737 1_555
Au0 S0 2.513740 1_555
Au0 S5 2.513746 1_555
Au0 Nb1 2.927988 1_566
Au0 Nb1 2.927988 1_655
Au1 S3 2.513736 1_655
Au1 S1 2.513737 1_565
Au1 S6 2.513740 1_556
Au1 S2 2.513746 1_555
Au1 Nb0 2.927988 1_655
Au1 Nb0 2.927988 1_566
