# generated using pymatgen
data_Hf3ScSi6Rh7
_symmetry_space_group_name_H-M   'P 1'
_cell_length_a   6.91540107
_cell_length_b   6.91540263
_cell_length_c   6.93125847
_cell_angle_alpha   109.51767341
_cell_angle_beta   109.51767799
_cell_angle_gamma   109.42472285
_symmetry_Int_Tables_number   1
_chemical_formula_structural   Hf3ScSi6Rh7
_chemical_formula_sum   'Hf3 Sc1 Si6 Rh7'
_cell_volume   255.02088706
_cell_formula_units_Z   1
loop_
 _symmetry_equiv_pos_site_id
 _symmetry_equiv_pos_as_xyz
  1  'x, y, z'
loop_
 _atom_site_type_symbol
 _atom_site_label
 _atom_site_symmetry_multiplicity
 _atom_site_fract_x
 _atom_site_fract_y
 _atom_site_fract_z
 _atom_site_occupancy
  Hf  Hf0  1  0.50000000  0.50000000  0.50000000  1
  Hf  Hf1  1  0.00000000  0.50000000  0.00000000  1
  Hf  Hf2  1  0.50000000  0.00000000  0.00000000  1
  Sc  Sc0  1  0.00000000  0.00000000  0.50000000  1
  Si  Si0  1  1.00000000  0.31986248  0.32129886  1
  Si  Si1  1  0.00000000  0.68013752  0.67870114  1
  Si  Si2  1  0.31986248  0.00000000  0.32129886  1
  Si  Si3  1  0.68013752  1.00000000  0.67870114  1
  Si  Si4  1  0.31986248  0.31986248  0.99856463  1
  Si  Si5  1  0.68013752  0.68013752  0.00143537  1
  Rh  Rh0  1  0.49801570  0.74900735  0.24900735  1
  Rh  Rh1  1  0.50198430  0.25099265  0.75099265  1
  Rh  Rh2  1  0.25099265  0.50198430  0.75099265  1
  Rh  Rh3  1  0.74900735  0.49801570  0.24900735  1
  Rh  Rh4  1  0.74900735  0.25099265  0.50000000  1
  Rh  Rh5  1  0.25099265  0.74900735  0.50000000  1
  Rh  Rh6  1  0.00000000  0.00000000  0.00000000  1
loop_
_geom_bond_atom_site_label_1
_geom_bond_atom_site_label_2
_geom_bond_distance
_geom_bond_site_symmetry_2
Hf0 Rh5 2.811184 1_555
Hf0 Rh4 2.811184 1_555
Hf0 Rh3 2.827271 1_555
Hf0 Rh2 2.827271 1_555
Hf0 Rh0 2.827271 1_555
Hf0 Rh1 2.827271 1_555
Hf0 Si1 2.878192 1_655
Hf0 Si0 2.878192 1_455
Hf0 Si2 2.878193 1_555
Hf0 Si3 2.878193 1_555
Hf0 Si5 2.892243 1_556
Hf0 Si4 2.892243 1_554
Hf1 Rh0 2.811190 1_555
Hf1 Rh1 2.811190 1_454
Hf1 Rh2 2.827271 1_554
Hf1 Rh3 2.827271 1_455
Hf1 Rh5 2.827271 1_555
Hf1 Rh4 2.827271 1_454
Hf1 Si4 2.878191 1_554
Hf1 Si5 2.878191 1_455
Hf1 Si2 2.878192 1_565
Hf1 Si3 2.878192 1_444
Hf1 Si1 2.892250 1_554
Hf1 Si0 2.892250 1_455
Hf2 Rh3 2.811190 1_555
Hf2 Rh2 2.811190 1_544
Hf2 Rh4 2.827271 1_555
Hf2 Rh5 2.827271 1_544
Hf2 Rh1 2.827271 1_554
Hf2 Rh0 2.827271 1_545
Hf2 Si4 2.878191 1_554
Hf2 Si5 2.878191 1_545
Hf2 Si0 2.878192 1_555
Hf2 Si1 2.878192 1_544
Hf2 Si2 2.892250 1_555
Hf2 Si3 2.892250 1_544
Sc0 Si2 2.873632 1_555
Sc0 Si3 2.873632 1_445
Sc0 Si0 2.873632 1_455
Sc0 Si1 2.873632 1_545
Sc0 Si4 2.873637 1_555
Sc0 Si5 2.873637 1_445
Rh0 Si4 2.456675 1_554
Rh0 Si2 2.456682 1_565
Rh0 Si5 2.460612 1_555
Rh0 Si3 2.460613 1_555
Rh0 Sc0 2.833591 1_665
Rh1 Si5 2.456675 1_556
Rh1 Si3 2.456682 1_545
Rh1 Si4 2.460612 1_555
Rh1 Si2 2.460613 1_555
Rh1 Sc0 2.833591 1_555
Rh2 Si5 2.456674 1_556
Rh2 Si1 2.456682 1_555
Rh2 Si4 2.460612 1_555
Rh2 Si0 2.460612 1_455
Rh2 Sc0 2.833592 1_555
Rh3 Si4 2.456674 1_554
Rh3 Si0 2.456682 1_555
Rh3 Si5 2.460612 1_555
Rh3 Si1 2.460612 1_655
Rh3 Sc0 2.833592 1_665
Rh4 Si2 2.456676 1_555
Rh4 Si1 2.456676 1_655
Rh4 Si0 2.460612 1_555
Rh4 Si3 2.460612 1_545
Rh4 Sc0 2.833597 1_655
Rh5 Si3 2.456676 1_555
Rh5 Si0 2.456676 1_455
Rh5 Si1 2.460612 1_555
Rh5 Si2 2.460612 1_565
Rh5 Sc0 2.833597 1_565
Rh6 Si4 2.561404 1_554
Rh6 Si5 2.561404 1_445
Rh6 Si2 2.561408 1_555
Rh6 Si3 2.561408 1_444
Rh6 Si0 2.561408 1_455
Rh6 Si1 2.561408 1_544
