# generated using pymatgen
data_NiPd7S8
_symmetry_space_group_name_H-M   'P 1'
_cell_length_a   6.38301796
_cell_length_b   6.48422477
_cell_length_c   6.59015720
_cell_angle_alpha   90.00000000
_cell_angle_beta   90.00000000
_cell_angle_gamma   91.53796361
_symmetry_Int_Tables_number   1
_chemical_formula_structural   NiPd7S8
_chemical_formula_sum   'Ni1 Pd7 S8'
_cell_volume   272.66125095
_cell_formula_units_Z   1
loop_
 _symmetry_equiv_pos_site_id
 _symmetry_equiv_pos_as_xyz
  1  'x, y, z'
loop_
 _atom_site_type_symbol
 _atom_site_label
 _atom_site_symmetry_multiplicity
 _atom_site_fract_x
 _atom_site_fract_y
 _atom_site_fract_z
 _atom_site_occupancy
  Ni  Ni0  1  0.50000000  0.00000000  0.50000000  1
  Pd  Pd0  1  0.53283875  0.74722395  0.00000000  1
  Pd  Pd1  1  0.26277067  0.53971196  0.50000000  1
  Pd  Pd2  1  0.73722933  0.46028804  0.50000000  1
  Pd  Pd3  1  0.46716125  0.25277605  0.00000000  1
  Pd  Pd4  1  0.00000000  0.00000000  0.74186719  1
  Pd  Pd5  1  0.00000000  0.00000000  0.25813281  1
  Pd  Pd6  1  0.00000000  0.50000000  0.00000000  1
  S  S0  1  0.19376542  0.31209007  0.76941323  1
  S  S1  1  0.68414812  0.18037228  0.27864193  1
  S  S2  1  0.31585188  0.81962772  0.27864193  1
  S  S3  1  0.80623458  0.68790993  0.76941323  1
  S  S4  1  0.80623458  0.68790993  0.23058677  1
  S  S5  1  0.31585188  0.81962772  0.72135807  1
  S  S6  1  0.68414812  0.18037228  0.72135807  1
  S  S7  1  0.19376542  0.31209007  0.23058677  1
loop_
_geom_bond_atom_site_label_1
_geom_bond_atom_site_label_2
_geom_bond_distance
_geom_bond_site_symmetry_2
Ni0 S6 2.191752 1_555
Ni0 S5 2.191752 1_545
Ni0 S1 2.191752 1_555
Ni0 S2 2.191752 1_545
Pd0 S4 2.353398 1_555
Pd0 S3 2.353398 1_554
Pd0 S2 2.354911 1_555
Pd0 S5 2.354911 1_554
Pd1 S0 2.343044 1_555
Pd1 S7 2.343044 1_555
Pd1 S5 2.346103 1_555
Pd1 S2 2.346103 1_555
Pd2 S3 2.343044 1_555
Pd2 S4 2.343044 1_555
Pd2 S6 2.346103 1_555
Pd2 S1 2.346103 1_555
Pd3 S7 2.353398 1_555
Pd3 S0 2.353398 1_554
Pd3 S1 2.354911 1_555
Pd3 S6 2.354911 1_554
Pd4 S0 2.350214 1_555
Pd4 S3 2.350214 1_445
Pd4 S6 2.361643 1_455
Pd4 S5 2.361643 1_545
Pd5 S7 2.350214 1_555
Pd5 S4 2.350214 1_445
Pd5 S1 2.361643 1_455
Pd5 S2 2.361643 1_545
Pd6 S4 2.324737 1_455
Pd6 S3 2.324737 1_454
Pd6 S7 2.324737 1_555
Pd6 S0 2.324737 1_554
