# generated using pymatgen
data_CuOsF7
_symmetry_space_group_name_H-M   'P 1'
_cell_length_a   7.45847487
_cell_length_b   7.45847482
_cell_length_c   7.45847546
_cell_angle_alpha   123.87201855
_cell_angle_beta   124.03907901
_cell_angle_gamma   83.27535658
_symmetry_Int_Tables_number   1
_chemical_formula_structural   CuOsF7
_chemical_formula_sum   'Cu2 Os2 F14'
_cell_volume   273.77365639
_cell_formula_units_Z   2
loop_
 _symmetry_equiv_pos_site_id
 _symmetry_equiv_pos_as_xyz
  1  'x, y, z'
loop_
 _atom_site_type_symbol
 _atom_site_label
 _atom_site_symmetry_multiplicity
 _atom_site_fract_x
 _atom_site_fract_y
 _atom_site_fract_z
 _atom_site_occupancy
  Cu  Cu0  1  0.50000000  0.00000000  0.00000000  1
  Cu  Cu1  1  0.00000000  0.00000000  0.50000000  1
  Os  Os0  1  0.50000000  0.00000000  0.50000000  1
  Os  Os1  1  0.00000000  0.50000000  0.50000000  1
  F  F0  1  0.25000000  0.08439578  0.83439578  1
  F  F1  1  0.75000000  0.91560422  0.16560422  1
  F  F2  1  0.53498314  0.29681793  0.76183479  1
  F  F3  1  0.96501686  0.72685065  0.76183479  1
  F  F4  1  0.07148081  0.33786744  0.64939155  1
  F  F5  1  0.42851919  0.07791173  0.26638663  1
  F  F6  1  0.31152510  0.66213256  0.73361337  1
  F  F7  1  0.18847490  0.92208827  0.35060845  1
  F  F8  1  0.92851919  0.66213256  0.35060845  1
  F  F9  1  0.57148081  0.92208827  0.73361337  1
  F  F10  1  0.68847490  0.33786744  0.26638663  1
  F  F11  1  0.81152510  0.07791173  0.64939155  1
  F  F12  1  0.03498314  0.27314935  0.23816521  1
  F  F13  1  0.46501686  0.70318207  0.23816521  1
loop_
_geom_bond_atom_site_label_1
_geom_bond_atom_site_label_2
_geom_bond_distance
_geom_bond_site_symmetry_2
Cu0 F1 1.847175 1_545
Cu0 F0 1.847175 1_554
Cu0 F10 2.096612 1_555
Cu0 F6 2.096612 1_544
Cu0 F9 2.096612 1_544
Cu0 F5 2.096612 1_555
Cu1 F0 1.847175 1_555
Cu1 F1 1.847175 1_445
Cu1 F7 2.096607 1_545
Cu1 F11 2.096607 1_455
Cu1 F4 2.096614 1_555
Cu1 F8 2.096614 1_445
F2 Os0 1.878434 1_555
F3 Os1 1.878432 1_655
F4 Os1 1.916757 1_555
F5 Os0 1.916763 1_555
F6 Os1 1.916763 1_555
F7 Os0 1.916765 1_565
F8 Os1 1.916757 1_655
F9 Os0 1.916763 1_565
F10 Os1 1.916763 1_655
F11 Os0 1.916765 1_555
F12 Os1 1.878432 1_555
F13 Os0 1.878434 1_565
