# generated using pymatgen
data_GeIr(SeF6)4
_symmetry_space_group_name_H-M   'P 1'
_cell_length_a   6.08439316
_cell_length_b   7.72607348
_cell_length_c   9.67004136
_cell_angle_alpha   89.23647718
_cell_angle_beta   90.00000000
_cell_angle_gamma   90.00000000
_symmetry_Int_Tables_number   1
_chemical_formula_structural   GeIr(SeF6)4
_chemical_formula_sum   'Ge1 Ir1 Se4 F24'
_cell_volume   454.53347455
_cell_formula_units_Z   1
loop_
 _symmetry_equiv_pos_site_id
 _symmetry_equiv_pos_as_xyz
  1  'x, y, z'
loop_
 _atom_site_type_symbol
 _atom_site_label
 _atom_site_symmetry_multiplicity
 _atom_site_fract_x
 _atom_site_fract_y
 _atom_site_fract_z
 _atom_site_occupancy
  Ge  Ge0  1  0.50000000  0.00000000  0.50000000  1
  Ir  Ir0  1  0.00000000  0.50000000  0.00000000  1
  Se  Se0  1  0.50000000  0.60551350  0.24412000  1
  Se  Se1  1  0.50000000  0.39448650  0.75588000  1
  Se  Se2  1  0.00000000  0.10286454  0.26392051  1
  Se  Se3  1  0.00000000  0.89713546  0.73607949  1
  F  F0  1  0.22331031  0.35212639  0.92242099  1
  F  F1  1  0.22331031  0.64787361  0.07757901  1
  F  F2  1  0.29079424  0.86453856  0.57746621  1
  F  F3  1  0.29079424  0.13546144  0.42253379  1
  F  F4  1  0.77668969  0.64787361  0.07757901  1
  F  F5  1  0.77668969  0.35212639  0.92242099  1
  F  F6  1  0.79685427  0.93577299  0.85408950  1
  F  F7  1  0.79685427  0.06422701  0.14591050  1
  F  F8  1  0.70361861  0.44184952  0.64000024  1
  F  F9  1  0.70361861  0.55815048  0.35999976  1
  F  F10  1  0.20314573  0.06422701  0.14591050  1
  F  F11  1  0.20314573  0.93577299  0.85408950  1
  F  F12  1  0.29638139  0.55815048  0.35999976  1
  F  F13  1  0.29638139  0.44184952  0.64000024  1
  F  F14  1  0.00000000  0.63285995  0.82225683  1
  F  F15  1  0.00000000  0.36714005  0.17774317  1
  F  F16  1  0.50000000  0.13247521  0.65390855  1
  F  F17  1  0.50000000  0.86752479  0.34609145  1
  F  F18  1  0.50000000  0.60221309  0.81687649  1
  F  F19  1  0.50000000  0.39778691  0.18312351  1
  F  F20  1  0.00000000  0.11145061  0.68348085  1
  F  F21  1  0.00000000  0.88854939  0.31651915  1
  F  F22  1  0.70920576  0.86453856  0.57746621  1
  F  F23  1  0.70920576  0.13546144  0.42253379  1
loop_
_geom_bond_atom_site_label_1
_geom_bond_atom_site_label_2
_geom_bond_distance
_geom_bond_site_symmetry_2
F0 Ir0 1.933128 1_556
F0 Se1 2.349633 1_555
F1 Ir0 1.933128 1_555
F1 Se0 2.349633 1_555
F2 Ge0 1.804397 1_565
F2 Se3 2.357265 1_555
F3 Ge0 1.804397 1_555
F3 Se2 2.357265 1_555
F4 Ir0 1.933128 1_655
F4 Se0 2.349633 1_555
F5 Ir0 1.933128 1_656
F5 Se1 2.349633 1_555
F6 Se3 1.711193 1_655
F7 Se2 1.711193 1_655
F8 Se1 1.706897 1_555
F9 Se0 1.706897 1_555
F10 Se2 1.711193 1_555
F11 Se3 1.711193 1_555
F12 Se0 1.706897 1_555
F13 Se1 1.706897 1_555
F14 Ir0 1.990193 1_556
F14 Se3 2.195017 1_555
F15 Ir0 1.990193 1_555
F15 Se2 2.195017 1_555
F16 Ge0 1.817476 1_555
F16 Se1 2.263492 1_555
F17 Ge0 1.817476 1_565
F17 Se0 2.263492 1_555
F18 Se1 1.717230 1_555
F19 Se0 1.717230 1_555
F20 Se3 1.725683 1_545
F21 Se2 1.725683 1_565
F22 Ge0 1.804397 1_565
F22 Se3 2.357265 1_655
F23 Ge0 1.804397 1_555
F23 Se2 2.357265 1_655
