# generated using pymatgen
data_Hf12Ti4Mn5Os3
_symmetry_space_group_name_H-M   'P 1'
_cell_length_a   8.48991242
_cell_length_b   8.48991140
_cell_length_c   8.48991236
_cell_angle_alpha   59.96906527
_cell_angle_beta   59.96906951
_cell_angle_gamma   59.96906466
_symmetry_Int_Tables_number   1
_chemical_formula_structural   Hf12Ti4Mn5Os3
_chemical_formula_sum   'Hf12 Ti4 Mn5 Os3'
_cell_volume   432.40411962
_cell_formula_units_Z   1
loop_
 _symmetry_equiv_pos_site_id
 _symmetry_equiv_pos_as_xyz
  1  'x, y, z'
loop_
 _atom_site_type_symbol
 _atom_site_label
 _atom_site_symmetry_multiplicity
 _atom_site_fract_x
 _atom_site_fract_y
 _atom_site_fract_z
 _atom_site_occupancy
  Hf  Hf0  1  0.43177557  0.81923164  0.81923164  1
  Hf  Hf1  1  0.81838498  0.43218785  0.43218785  1
  Hf  Hf2  1  0.81923164  0.43177557  0.81923164  1
  Hf  Hf3  1  0.43218785  0.81838498  0.43218785  1
  Hf  Hf4  1  0.81923164  0.81923164  0.43177557  1
  Hf  Hf5  1  0.43218785  0.43218785  0.81838498  1
  Hf  Hf6  1  0.56702165  0.18309688  0.18309688  1
  Hf  Hf7  1  0.18290039  0.56696615  0.56696615  1
  Hf  Hf8  1  0.18309688  0.56702165  0.18309688  1
  Hf  Hf9  1  0.56696615  0.18290039  0.56696615  1
  Hf  Hf10  1  0.18309688  0.18309688  0.56702165  1
  Hf  Hf11  1  0.56696615  0.56696615  0.18290039  1
  Ti  Ti0  1  0.99685207  0.99685207  0.50800120  1
  Ti  Ti1  1  0.99685207  0.50800120  0.99685207  1
  Ti  Ti2  1  0.50800120  0.99685207  0.99685207  1
  Ti  Ti3  1  0.99686628  0.99686628  0.99686628  1
  Mn  Mn0  1  0.20759739  0.20759739  0.20759739  1
  Mn  Mn1  1  0.79100140  0.79100140  0.12680596  1
  Mn  Mn2  1  0.79100140  0.12680596  0.79100140  1
  Mn  Mn3  1  0.12680596  0.79100140  0.79100140  1
  Mn  Mn4  1  0.79080040  0.79080040  0.79080040  1
  Os  Os0  1  0.20991509  0.20991509  0.87134604  1
  Os  Os1  1  0.20991509  0.87134604  0.20991509  1
  Os  Os2  1  0.87134604  0.20991509  0.20991509  1
loop_
_geom_bond_atom_site_label_1
_geom_bond_atom_site_label_2
_geom_bond_distance
_geom_bond_site_symmetry_2
Hf0 Mn4 2.827160 1_555
Hf0 Mn3 2.849284 1_555
Hf0 Os0 3.021020 1_565
Hf0 Os1 3.021021 1_556
Hf0 Ti2 3.032583 1_555
Hf0 Ti3 3.051452 1_455
Hf0 Hf9 3.147196 1_565
Hf0 Hf11 3.147196 1_556
Hf0 Hf10 3.156151 1_565
Hf0 Hf8 3.156151 1_556
Hf0 Hf5 3.287818 1_555
Hf0 Hf3 3.287819 1_555
Hf0 Hf2 3.287930 1_555
Hf0 Hf4 3.287930 1_555
Hf1 Mn1 2.836355 1_555
Hf1 Mn2 2.836355 1_555
Hf1 Os2 3.031517 1_555
Hf1 Mn0 3.035851 1_655
Hf1 Ti0 3.059401 1_545
Hf1 Ti1 3.059402 1_554
Hf1 Hf10 3.152880 1_655
Hf1 Hf8 3.152880 1_655
Hf1 Hf9 3.161937 1_555
Hf1 Hf11 3.161938 1_555
Hf1 Hf3 3.277246 1_555
Hf1 Hf5 3.277247 1_555
Hf1 Hf4 3.287818 1_555
Hf1 Hf2 3.287819 1_555
Hf2 Mn4 2.827159 1_555
Hf2 Mn2 2.849284 1_555
Hf2 Os2 3.021021 1_556
Hf2 Os0 3.021021 1_655
Hf2 Ti1 3.032583 1_555
Hf2 Ti3 3.051452 1_545
Hf2 Hf7 3.147196 1_655
Hf2 Hf6 3.156151 1_556
Hf2 Hf5 3.287819 1_555
Hf2 Hf4 3.287930 1_555
Hf3 Mn3 2.836355 1_555
Hf3 Mn1 2.836355 1_555
Hf3 Os1 3.031517 1_555
Hf3 Mn0 3.035851 1_565
Hf3 Ti2 3.059402 1_554
Hf3 Ti0 3.059402 1_455
Hf3 Hf6 3.152880 1_565
Hf3 Hf7 3.161937 1_555
Hf3 Hf5 3.277246 1_555
Hf3 Hf4 3.287819 1_555
Hf4 Mn4 2.827160 1_555
Hf4 Mn1 2.849284 1_555
Hf4 Os2 3.021020 1_565
Hf4 Os1 3.021021 1_655
Hf4 Ti0 3.032583 1_555
Hf4 Ti3 3.051452 1_554
Hf4 Hf9 3.147196 1_565
Hf4 Hf7 3.147196 1_655
Hf4 Hf6 3.156151 1_565
Hf4 Hf8 3.156151 1_655
Hf5 Mn3 2.836355 1_555
Hf5 Mn2 2.836355 1_555
Hf5 Os0 3.031517 1_555
Hf5 Mn0 3.035851 1_556
Hf5 Ti2 3.059401 1_545
Hf5 Ti1 3.059402 1_455
Hf5 Hf6 3.152880 1_556
Hf5 Hf8 3.152880 1_556
Hf5 Hf9 3.161937 1_555
Hf5 Hf7 3.161938 1_555
Hf6 Os2 2.829954 1_555
Hf6 Mn0 2.858449 1_555
Hf6 Ti3 3.044485 1_544
Hf6 Mn1 3.045064 1_545
Hf6 Mn2 3.045065 1_554
Hf6 Ti2 3.056160 1_544
Hf6 Hf9 3.257946 1_555
Hf6 Hf8 3.257963 1_555
Hf7 Os0 2.824186 1_555
Hf7 Os1 2.824186 1_555
Hf7 Mn4 3.042181 1_455
Hf7 Ti0 3.042743 1_455
Hf7 Ti1 3.042744 1_455
Hf7 Mn3 3.044686 1_555
Hf7 Hf8 3.257946 1_555
Hf7 Hf9 3.259160 1_555
Hf8 Os1 2.829954 1_555
Hf8 Mn0 2.858448 1_555
Hf8 Ti3 3.044485 1_454
Hf8 Mn3 3.045065 1_554
Hf8 Mn1 3.045065 1_455
Hf8 Ti1 3.056160 1_454
Hf9 Os2 2.824187 1_555
Hf9 Os0 2.824187 1_555
Hf9 Mn4 3.042181 1_545
Hf9 Ti2 3.042744 1_545
Hf9 Ti0 3.042744 1_545
Hf9 Mn2 3.044686 1_555
Hf10 Os0 2.829954 1_555
Hf10 Mn0 2.858448 1_555
Hf10 Ti3 3.044485 1_445
Hf10 Mn3 3.045064 1_545
Hf10 Mn2 3.045065 1_455
Hf10 Ti0 3.056160 1_445
Hf10 Hf3 3.152880 1_545
Hf10 Hf2 3.156151 1_455
Hf10 Hf7 3.257946 1_555
Hf10 Hf9 3.257946 1_555
Hf10 Hf8 3.257963 1_555
Hf10 Hf6 3.257964 1_555
Hf11 Os2 2.824186 1_555
Hf11 Os1 2.824186 1_555
Hf11 Mn4 3.042181 1_554
Hf11 Ti2 3.042743 1_554
Hf11 Ti1 3.042744 1_554
Hf11 Mn1 3.044686 1_555
Hf11 Hf2 3.147196 1_554
Hf11 Hf3 3.161937 1_555
Hf11 Hf6 3.257946 1_555
Hf11 Hf8 3.257946 1_555
Hf11 Hf9 3.259160 1_555
Hf11 Hf7 3.259160 1_555
Mn0 Ti1 2.641290 1_454
Mn0 Ti2 2.641290 1_544
Mn0 Ti0 2.641290 1_445
Mn0 Os1 2.835185 1_545
Mn0 Os0 2.835186 1_554
Mn0 Os2 2.835186 1_455
Mn1 Ti3 2.554249 1_554
Mn1 Ti1 2.562162 1_554
Mn1 Ti2 2.562163 1_554
Mn1 Mn2 2.849618 1_564
Mn1 Mn3 2.849618 1_654
Mn1 Mn4 2.854367 1_554
Mn2 Ti3 2.554250 1_545
Mn2 Ti0 2.562163 1_545
Mn2 Ti2 2.562163 1_545
Mn2 Mn3 2.849618 1_645
Mn2 Mn4 2.854366 1_545
Mn3 Ti3 2.554249 1_455
Mn3 Ti1 2.562162 1_455
Mn3 Ti0 2.562163 1_455
Mn3 Mn4 2.854367 1_455
Mn4 Ti1 2.557359 1_555
Mn4 Ti2 2.557360 1_555
Mn4 Ti0 2.557360 1_555
Os0 Ti1 2.645712 1_455
Os0 Ti2 2.645712 1_545
Os0 Ti3 2.663632 1_445
Os0 Os1 2.873077 1_546
Os0 Os2 2.873078 1_456
Os1 Ti0 2.645712 1_455
Os1 Ti2 2.645712 1_554
Os1 Ti3 2.663632 1_454
Os1 Os2 2.873077 1_465
Os2 Ti1 2.645712 1_554
Os2 Ti0 2.645712 1_545
Os2 Ti3 2.663632 1_544
