# generated using pymatgen
data_Ca(LaTe2)2
_symmetry_space_group_name_H-M   'P 1'
_cell_length_a   8.40734864
_cell_length_b   8.40731722
_cell_length_c   8.40704541
_cell_angle_alpha   109.84342515
_cell_angle_beta   109.84274426
_cell_angle_gamma   108.72833216
_symmetry_Int_Tables_number   1
_chemical_formula_structural   Ca(LaTe2)2
_chemical_formula_sum   'Ca2 La4 Te8'
_cell_volume   457.39616406
_cell_formula_units_Z   2
loop_
 _symmetry_equiv_pos_site_id
 _symmetry_equiv_pos_as_xyz
  1  'x, y, z'
loop_
 _atom_site_type_symbol
 _atom_site_label
 _atom_site_symmetry_multiplicity
 _atom_site_fract_x
 _atom_site_fract_y
 _atom_site_fract_z
 _atom_site_occupancy
  Ca  Ca0  1  0.75001099  0.25001001  0.50001599  1
  Ca  Ca1  1  -0.00000104  0.00000430  0.00000143  1
  La  La0  1  0.24852675  0.62496902  0.12346466  1
  La  La1  1  0.37503338  0.49849237  0.62355825  1
  La  La2  1  0.50150507  0.12505923  0.87653626  1
  La  La3  1  0.87493648  0.75147439  0.37645293  1
  Te  Te0  1  0.26617388  0.01930670  0.39296967  1
  Te  Te1  1  0.48336085  0.37638760  0.25313425  1
  Te  Te2  1  0.76976409  0.51664697  0.89300639  1
  Te  Te3  1  0.62363268  0.87676156  0.10699966  1
  Te  Te4  1  0.62633105  0.87321705  0.60700822  1
  Te  Te5  1  0.12678714  0.73378440  0.75310577  1
  Te  Te6  1  0.98068566  0.37366220  0.24687620  1
  Te  Te7  1  0.12325202  0.23022420  0.74686833  1
loop_
_geom_bond_atom_site_label_1
_geom_bond_atom_site_label_2
_geom_bond_distance
_geom_bond_site_symmetry_2
Ca0 Te2 3.213838 1_555
Ca0 Te3 3.213990 1_545
Ca0 Te7 3.214021 1_655
Ca0 Te1 3.214104 1_555
Ca0 Te4 3.518459 1_545
Ca0 Te5 3.518470 1_655
Ca0 Te6 3.518544 1_555
Ca0 Te0 3.518804 1_555
Ca1 Te0 3.214410 1_555
Ca1 Te6 3.214444 1_455
Ca1 Te4 3.214608 1_444
Ca1 Te5 3.214699 1_544
Ca1 Te7 3.514881 1_554
Ca1 Te3 3.514954 1_445
Ca1 Te2 3.514959 1_444
Ca1 Te1 3.515086 1_555
La0 Te0 3.240863 1_565
La0 Te7 3.241211 1_554
La0 Te6 3.260414 1_455
La0 Te3 3.264070 1_555
La0 Te2 3.455237 1_454
La0 Te5 3.456997 1_554
La0 Te4 3.491072 1_555
La0 Te1 3.491322 1_555
La1 Te6 3.240912 1_455
La1 Te2 3.241070 1_555
La1 Te4 3.260544 1_555
La1 Te7 3.264007 1_555
La1 Te1 3.454970 1_555
La1 Te0 3.457094 1_555
La1 Te5 3.490993 1_555
La1 Te3 3.491493 1_556
La2 Te4 3.240827 1_545
La2 Te1 3.241163 1_556
La2 Te5 3.260553 1_545
La2 Te2 3.264166 1_555
La2 Te3 3.455097 1_546
La2 Te6 3.457140 1_556
La2 Te0 3.491162 1_555
La2 Te7 3.491363 1_555
La3 Te5 3.240777 1_655
La3 Te3 3.241122 1_555
La3 Te0 3.260423 1_665
La3 Te1 3.264036 1_555
La3 Te7 3.455074 1_665
La3 Te4 3.456928 1_555
La3 Te6 3.491192 1_555
La3 Te2 3.491449 1_554
