# generated using pymatgen
data_Mn3CdP7N12
_symmetry_space_group_name_H-M   'P 1'
_cell_length_a   7.20578130
_cell_length_b   7.20578182
_cell_length_c   7.20578226
_cell_angle_alpha   109.35713718
_cell_angle_beta   109.35714340
_cell_angle_gamma   109.35713819
_symmetry_Int_Tables_number   1
_chemical_formula_structural   Mn3CdP7N12
_chemical_formula_sum   'Mn3 Cd1 P7 N12'
_cell_volume   289.22931414
_cell_formula_units_Z   1
loop_
 _symmetry_equiv_pos_site_id
 _symmetry_equiv_pos_as_xyz
  1  'x, y, z'
loop_
 _atom_site_type_symbol
 _atom_site_label
 _atom_site_symmetry_multiplicity
 _atom_site_fract_x
 _atom_site_fract_y
 _atom_site_fract_z
 _atom_site_occupancy
  Mn  Mn0  1  0.65662418  0.00146831  0.00146831  1
  Mn  Mn1  1  0.00146831  0.00146831  0.65662418  1
  Mn  Mn2  1  0.00146831  0.65662418  0.00146831  1
  Cd  Cd0  1  0.29653507  0.29653507  0.29653507  1
  P  P0  1  0.25465998  0.75438479  0.50503543  1
  P  P1  1  0.75438479  0.25465998  0.50503543  1
  P  P2  1  0.75438479  0.50503543  0.25465998  1
  P  P3  1  0.25465998  0.50503543  0.75438479  1
  P  P4  1  0.50503543  0.75438479  0.25465998  1
  P  P5  1  0.50503543  0.25465998  0.75438479  1
  P  P6  1  0.95992817  0.95992817  0.95992817  1
  N  N0  1  0.72277216  0.28296127  0.28296127  1
  N  N1  1  0.28296127  0.72277216  0.28296127  1
  N  N2  1  0.28868239  0.56883206  0.56883206  1
  N  N3  1  0.56883206  0.56883206  0.28868239  1
  N  N4  1  0.43882605  0.72767101  0.00388960  1
  N  N5  1  0.00388960  0.72767101  0.43882605  1
  N  N6  1  0.56883206  0.28868239  0.56883206  1
  N  N7  1  0.72767101  0.00388960  0.43882605  1
  N  N8  1  0.43882605  0.00388960  0.72767101  1
  N  N9  1  0.72767101  0.43882605  0.00388960  1
  N  N10  1  0.28296127  0.28296127  0.72277216  1
  N  N11  1  0.00388960  0.43882605  0.72767101  1
loop_
_geom_bond_atom_site_label_1
_geom_bond_atom_site_label_2
_geom_bond_distance
_geom_bond_site_symmetry_2
Mn0 N8 2.084263 1_554
Mn0 N4 2.084263 1_545
Mn0 N0 2.108688 1_555
Mn0 P6 2.400780 1_544
Mn1 N7 2.084263 1_455
Mn1 N5 2.084264 1_545
Mn1 N10 2.108687 1_555
Mn1 P6 2.400780 1_445
Mn2 N9 2.084263 1_455
Mn2 N11 2.084264 1_554
Mn2 N1 2.108687 1_555
Mn2 P6 2.400780 1_454
Cd0 N6 2.301748 1_555
Cd0 N3 2.301748 1_555
Cd0 N2 2.301748 1_555
Cd0 P6 2.439142 1_444
N0 P2 1.630846 1_555
N0 P1 1.630846 1_555
N1 P4 1.630846 1_555
N1 P0 1.630846 1_555
N2 P0 1.615296 1_555
N2 P3 1.615297 1_555
N3 P2 1.615296 1_555
N3 P4 1.615296 1_555
N4 P3 1.631612 1_554
N4 P4 1.633079 1_555
N5 P2 1.631612 1_455
N5 P0 1.633079 1_555
N6 P1 1.615296 1_555
N6 P5 1.615297 1_555
N7 P4 1.631612 1_545
N7 P1 1.633079 1_555
N8 P0 1.631612 1_545
N8 P5 1.633079 1_555
N9 P5 1.631612 1_554
N9 P2 1.633079 1_555
N10 P5 1.630846 1_555
N10 P3 1.630846 1_555
N11 P1 1.631612 1_455
N11 P3 1.633079 1_555
