# generated using pymatgen
data_Lu7Co6AgSn22
_symmetry_space_group_name_H-M   'P 1'
_cell_length_a   9.56839247
_cell_length_b   9.56839390
_cell_length_c   9.73339731
_cell_angle_alpha   90.00000000
_cell_angle_beta   90.00000000
_cell_angle_gamma   120.00000196
_symmetry_Int_Tables_number   1
_chemical_formula_structural   Lu7Co6AgSn22
_chemical_formula_sum   'Lu7 Co6 Ag1 Sn22'
_cell_volume   771.74371359
_cell_formula_units_Z   1
loop_
 _symmetry_equiv_pos_site_id
 _symmetry_equiv_pos_as_xyz
  1  'x, y, z'
loop_
 _atom_site_type_symbol
 _atom_site_label
 _atom_site_symmetry_multiplicity
 _atom_site_fract_x
 _atom_site_fract_y
 _atom_site_fract_z
 _atom_site_occupancy
  Lu  Lu0  1  0.00000000  0.00000000  0.00000000  1
  Lu  Lu1  1  0.03642041  0.51820970  0.30698878  1
  Lu  Lu2  1  0.48179030  0.96357959  0.30698878  1
  Lu  Lu3  1  0.48179030  0.51820970  0.30698878  1
  Lu  Lu4  1  0.96357959  0.48179030  0.69301122  1
  Lu  Lu5  1  0.51820970  0.03642041  0.69301122  1
  Lu  Lu6  1  0.51820970  0.48179030  0.69301122  1
  Co  Co0  1  0.16962707  0.83037293  0.80184517  1
  Co  Co1  1  0.66074686  0.83037293  0.80184517  1
  Co  Co2  1  0.16962707  0.33925314  0.80184517  1
  Co  Co3  1  0.83037293  0.16962707  0.19815483  1
  Co  Co4  1  0.33925314  0.16962707  0.19815483  1
  Co  Co5  1  0.83037293  0.66074686  0.19815483  1
  Ag  Ag0  1  0.00000000  0.00000000  0.50000000  1
  Sn  Sn0  1  0.11322078  0.88677922  0.27716290  1
  Sn  Sn1  1  0.77355845  0.88677922  0.27716290  1
  Sn  Sn2  1  0.11322078  0.22644155  0.27716290  1
  Sn  Sn3  1  0.88677922  0.11322078  0.72283710  1
  Sn  Sn4  1  0.22644155  0.11322078  0.72283710  1
  Sn  Sn5  1  0.88677922  0.77355845  0.72283710  1
  Sn  Sn6  1  0.34589010  1.00000000  0.00000000  1
  Sn  Sn7  1  0.65410990  0.65410990  0.00000000  1
  Sn  Sn8  1  0.00000000  0.34589010  0.00000000  1
  Sn  Sn9  1  0.34589010  0.34589010  0.00000000  1
  Sn  Sn10  1  1.00000000  0.65410990  0.00000000  1
  Sn  Sn11  1  0.65410990  0.00000000  0.00000000  1
  Sn  Sn12  1  0.78175539  0.56350879  0.45647066  1
  Sn  Sn13  1  0.78175539  0.21824461  0.45647066  1
  Sn  Sn14  1  0.43649121  0.21824461  0.45647066  1
  Sn  Sn15  1  0.21824461  0.43649121  0.54352934  1
  Sn  Sn16  1  0.21824461  0.78175539  0.54352934  1
  Sn  Sn17  1  0.56350879  0.78175539  0.54352934  1
  Sn  Sn18  1  0.66666700  0.33333300  0.17613515  1
  Sn  Sn19  1  0.33333300  0.66666700  0.82386485  1
  Sn  Sn20  1  0.66666700  0.33333300  0.87286574  1
  Sn  Sn21  1  0.33333300  0.66666700  0.12713426  1
loop_
_geom_bond_atom_site_label_1
_geom_bond_atom_site_label_2
_geom_bond_distance
_geom_bond_site_symmetry_2
Lu0 Sn1 3.286132 1_445
Lu0 Sn4 3.286132 1_554
Lu0 Sn0 3.286132 1_545
Lu0 Sn3 3.286132 1_454
Lu0 Sn2 3.286132 1_555
Lu0 Sn5 3.286132 1_444
Lu0 Sn11 3.309612 1_455
Lu0 Sn6 3.309612 1_545
Lu0 Sn7 3.309612 1_445
Lu0 Sn9 3.309612 1_555
Lu0 Sn8 3.309613 1_555
Lu0 Sn10 3.309613 1_445
Lu1 Sn21 3.019593 1_555
Lu1 Sn12 3.049369 1_455
Lu1 Sn13 3.049374 1_455
Lu1 Sn15 3.209253 1_555
Lu1 Sn16 3.209268 1_555
Lu1 Sn2 3.235693 1_555
Lu1 Sn0 3.235703 1_555
Lu1 Sn18 3.318129 1_455
Lu1 Sn8 3.345724 1_555
Lu1 Sn10 3.345729 1_455
Lu2 Sn21 3.019594 1_555
Lu2 Sn14 3.049369 1_565
Lu2 Sn13 3.049374 1_565
Lu2 Sn17 3.209253 1_555
Lu2 Sn16 3.209268 1_555
Lu2 Sn1 3.235693 1_555
Lu2 Sn0 3.235702 1_555
Lu2 Sn18 3.318129 1_565
Lu2 Sn11 3.345724 1_565
Lu2 Sn6 3.345729 1_555
Lu3 Sn21 3.019607 1_555
Lu3 Sn12 3.049377 1_555
Lu3 Sn14 3.049378 1_555
Lu3 Sn15 3.209272 1_555
Lu3 Sn17 3.209272 1_555
Lu3 Sn2 3.235699 1_555
Lu3 Sn1 3.235699 1_555
Lu3 Sn18 3.318129 1_555
Lu3 Sn7 3.345726 1_555
Lu3 Sn9 3.345726 1_555
Lu4 Sn20 3.019593 1_555
Lu4 Sn15 3.049369 1_655
Lu4 Sn16 3.049374 1_655
Lu4 Sn12 3.209253 1_555
Lu4 Sn13 3.209268 1_555
Lu4 Sn5 3.235693 1_555
Lu4 Sn3 3.235703 1_555
Lu4 Sn19 3.318129 1_655
Lu4 Sn10 3.345724 1_556
Lu4 Sn8 3.345729 1_656
Lu5 Sn20 3.019594 1_555
Lu5 Sn17 3.049369 1_545
Lu5 Sn16 3.049374 1_545
Lu5 Sn14 3.209253 1_555
Lu5 Sn13 3.209268 1_555
Lu5 Sn4 3.235693 1_555
Lu5 Sn3 3.235702 1_555
Lu5 Sn19 3.318129 1_545
Lu5 Sn6 3.345724 1_546
Lu5 Sn11 3.345729 1_556
Lu6 Sn20 3.019607 1_555
Lu6 Sn15 3.049377 1_555
Lu6 Sn17 3.049378 1_555
Lu6 Sn12 3.209272 1_555
Lu6 Sn14 3.209272 1_555
Lu6 Sn5 3.235699 1_555
Lu6 Sn4 3.235699 1_555
Lu6 Sn19 3.318129 1_555
Lu6 Sn9 3.345726 1_556
Lu6 Sn7 3.345726 1_556
Co0 Sn6 2.541922 1_556
Co0 Sn10 2.541922 1_456
Co0 Sn5 2.596199 1_455
Co0 Sn4 2.596199 1_565
Co0 Sn16 2.640240 1_555
Co0 Sn19 2.721542 1_555
Co0 Lu5 3.091608 1_565
Co0 Lu4 3.091609 1_455
Co0 Lu0 3.409240 1_566
Co1 Sn7 2.541919 1_556
Co1 Sn11 2.541925 1_566
Co1 Sn5 2.596190 1_555
Co1 Sn3 2.596196 1_565
Co1 Sn17 2.640248 1_555
Co1 Sn19 2.721558 1_555
Co1 Lu6 3.091607 1_555
Co1 Lu5 3.091623 1_565
Co1 Lu0 3.409233 1_666
Co2 Sn9 2.541919 1_556
Co2 Sn8 2.541925 1_556
Co2 Sn4 2.596190 1_555
Co2 Sn3 2.596196 1_455
Co2 Sn15 2.640248 1_555
Co2 Sn19 2.721558 1_555
Co2 Lu6 3.091607 1_555
Co2 Lu4 3.091623 1_455
Co2 Lu0 3.409233 1_556
Co3 Sn11 2.541922 1_555
Co3 Sn8 2.541922 1_655
Co3 Sn2 2.596199 1_655
Co3 Sn1 2.596199 1_545
Co3 Sn13 2.640240 1_555
Co3 Sn18 2.721542 1_555
Co3 Lu2 3.091608 1_545
Co3 Lu1 3.091609 1_655
Co3 Lu0 3.409240 1_655
Co4 Sn9 2.541919 1_555
Co4 Sn6 2.541925 1_545
Co4 Sn2 2.596190 1_555
Co4 Sn0 2.596196 1_545
Co4 Sn14 2.640248 1_555
Co4 Sn18 2.721558 1_555
Co4 Lu3 3.091607 1_555
Co4 Lu2 3.091623 1_545
Co4 Lu0 3.409233 1_555
Co5 Sn7 2.541919 1_555
Co5 Sn10 2.541925 1_555
Co5 Sn1 2.596190 1_555
Co5 Sn0 2.596196 1_655
Co5 Sn12 2.640248 1_555
Co5 Sn18 2.721558 1_555
Co5 Lu3 3.091607 1_555
Co5 Lu1 3.091623 1_655
Co5 Lu0 3.409233 1_665
Ag0 Sn4 2.867975 1_555
Ag0 Sn1 2.867975 1_445
Ag0 Sn3 2.867975 1_455
Ag0 Sn0 2.867975 1_545
Ag0 Sn2 2.867975 1_555
Ag0 Sn5 2.867975 1_445
Sn18 Sn20 2.951842 1_554
Sn19 Sn21 2.951842 1_556
