# generated using pymatgen
data_LiTaIrRh
_symmetry_space_group_name_H-M   'P 1'
_cell_length_a   4.32083093
_cell_length_b   4.32083071
_cell_length_c   4.32083034
_cell_angle_alpha   59.99998789
_cell_angle_beta   59.99998958
_cell_angle_gamma   59.99999568
_symmetry_Int_Tables_number   1
_chemical_formula_structural   LiTaIrRh
_chemical_formula_sum   'Li1 Ta1 Ir1 Rh1'
_cell_volume   57.04093712
_cell_formula_units_Z   1
loop_
 _symmetry_equiv_pos_site_id
 _symmetry_equiv_pos_as_xyz
  1  'x, y, z'
loop_
 _atom_site_type_symbol
 _atom_site_label
 _atom_site_symmetry_multiplicity
 _atom_site_fract_x
 _atom_site_fract_y
 _atom_site_fract_z
 _atom_site_occupancy
  Li  Li0  1  0.50000000  0.50000000  0.50000000  1
  Ta  Ta0  1  0.00000000  0.00000000  0.00000000  1
  Ir  Ir0  1  0.25000000  0.25000000  0.25000000  1
  Rh  Rh0  1  0.75000000  0.75000000  0.75000000  1
loop_
_geom_bond_atom_site_label_1
_geom_bond_atom_site_label_2
_geom_bond_distance
_geom_bond_site_symmetry_2
Li0 Rh0 2.645957 1_554
Li0 Rh0 2.645957 1_545
Li0 Rh0 2.645958 1_455
Li0 Rh0 2.645958 1_555
Ir0 Ta0 2.645957 1_556
Ir0 Li0 2.645957 1_554
Ir0 Li0 2.645957 1_545
Ir0 Ta0 2.645957 1_565
Ir0 Li0 2.645958 1_455
Ir0 Ta0 2.645958 1_655
Ir0 Ta0 2.645958 1_555
Ir0 Li0 2.645958 1_555
Rh0 Ta0 2.645957 1_665
Rh0 Ta0 2.645957 1_656
Rh0 Ta0 2.645958 1_566
Rh0 Ta0 2.645958 1_666
