# generated using pymatgen
data_Zr6Zn16Pt7Se
_symmetry_space_group_name_H-M   'P 1'
_cell_length_a   8.74739908
_cell_length_b   8.74739847
_cell_length_c   8.74739834
_cell_angle_alpha   60.00000048
_cell_angle_beta   60.00000282
_cell_angle_gamma   59.99999742
_symmetry_Int_Tables_number   1
_chemical_formula_structural   Zr6Zn16Pt7Se
_chemical_formula_sum   'Zr6 Zn16 Pt7 Se1'
_cell_volume   473.28393109
_cell_formula_units_Z   1
loop_
 _symmetry_equiv_pos_site_id
 _symmetry_equiv_pos_as_xyz
  1  'x, y, z'
loop_
 _atom_site_type_symbol
 _atom_site_label
 _atom_site_symmetry_multiplicity
 _atom_site_fract_x
 _atom_site_fract_y
 _atom_site_fract_z
 _atom_site_occupancy
  Zr  Zr0  1  0.71622589  0.28377411  0.28377411  1
  Zr  Zr1  1  0.28377411  0.71622589  0.71622589  1
  Zr  Zr2  1  0.28377411  0.71622589  0.28377411  1
  Zr  Zr3  1  0.71622589  0.28377411  0.71622589  1
  Zr  Zr4  1  0.28377411  0.28377411  0.71622589  1
  Zr  Zr5  1  0.71622589  0.71622589  0.28377411  1
  Zn  Zn0  1  0.12257700  0.12257700  0.12257700  1
  Zn  Zn1  1  0.87742300  0.87742300  0.87742300  1
  Zn  Zn2  1  0.12257700  0.12257700  0.63227001  1
  Zn  Zn3  1  0.12257700  0.63227001  0.12257700  1
  Zn  Zn4  1  0.87742300  0.87742300  0.36772999  1
  Zn  Zn5  1  0.87742300  0.36772999  0.87742300  1
  Zn  Zn6  1  0.63227001  0.12257700  0.12257700  1
  Zn  Zn7  1  0.36772999  0.87742300  0.87742300  1
  Zn  Zn8  1  0.33791755  0.33791755  0.33791755  1
  Zn  Zn9  1  0.66208245  0.66208245  0.66208245  1
  Zn  Zn10  1  0.33791755  0.33791755  0.98624634  1
  Zn  Zn11  1  0.33791755  0.98624634  0.33791755  1
  Zn  Zn12  1  0.66208245  0.66208245  0.01375366  1
  Zn  Zn13  1  0.66208245  0.01375366  0.66208245  1
  Zn  Zn14  1  0.98624634  0.33791755  0.33791755  1
  Zn  Zn15  1  0.01375366  0.66208245  0.66208245  1
  Pt  Pt0  1  0.50000000  0.00000000  0.00000000  1
  Pt  Pt1  1  0.00000000  0.50000000  0.50000000  1
  Pt  Pt2  1  0.00000000  0.50000000  0.00000000  1
  Pt  Pt3  1  0.50000000  0.00000000  0.50000000  1
  Pt  Pt4  1  0.00000000  0.00000000  0.50000000  1
  Pt  Pt5  1  0.50000000  0.50000000  0.00000000  1
  Pt  Pt6  1  0.00000000  0.00000000  0.00000000  1
  Se  Se0  1  0.50000000  0.50000000  0.50000000  1
loop_
_geom_bond_atom_site_label_1
_geom_bond_atom_site_label_2
_geom_bond_distance
_geom_bond_site_symmetry_2
Pt0 Zn10 2.527064 1_554
Pt0 Zn12 2.527064 1_545
Pt0 Zn11 2.527064 1_545
Pt0 Zn13 2.527064 1_554
Pt0 Zn1 2.696083 1_544
Pt0 Zn0 2.696083 1_555
Pt0 Zn6 2.696090 1_555
Pt0 Zn7 2.696090 1_544
Pt0 Zr5 3.120767 1_545
Pt0 Zr4 3.120767 1_554
Pt0 Zr3 3.120767 1_554
Pt0 Zr2 3.120767 1_545
Pt1 Zn8 2.527066 1_555
Pt1 Zn9 2.527066 1_455
Pt1 Zn15 2.527071 1_555
Pt1 Zn14 2.527071 1_455
Pt1 Zn4 2.696083 1_455
Pt1 Zn2 2.696083 1_555
Pt1 Zn5 2.696083 1_455
Pt1 Zn3 2.696083 1_555
Pt1 Zr4 3.120767 1_555
Pt1 Zr5 3.120767 1_455
Pt1 Zr2 3.120767 1_555
Pt1 Zr3 3.120767 1_455
Pt2 Zn14 2.527064 1_455
Pt2 Zn15 2.527064 1_554
Pt2 Zn10 2.527064 1_554
Pt2 Zn12 2.527064 1_455
Pt2 Zn1 2.696083 1_454
Pt2 Zn0 2.696083 1_555
Pt2 Zn3 2.696090 1_555
Pt2 Zn5 2.696090 1_454
Pt2 Zr5 3.120767 1_455
Pt2 Zr4 3.120767 1_554
Pt2 Zr1 3.120767 1_554
Pt2 Zr0 3.120767 1_455
Pt3 Zn9 2.527066 1_545
Pt3 Zn8 2.527066 1_555
Pt3 Zn13 2.527071 1_555
Pt3 Zn11 2.527071 1_545
Pt3 Zn7 2.696083 1_545
Pt3 Zn6 2.696083 1_555
Pt3 Zn4 2.696083 1_545
Pt3 Zn2 2.696083 1_555
Pt3 Zr4 3.120767 1_555
Pt3 Zr5 3.120767 1_545
Pt3 Zr0 3.120767 1_555
Pt3 Zr1 3.120767 1_545
Pt4 Zn14 2.527064 1_455
Pt4 Zn15 2.527064 1_545
Pt4 Zn11 2.527064 1_545
Pt4 Zn13 2.527064 1_455
Pt4 Zn1 2.696083 1_445
Pt4 Zn0 2.696083 1_555
Pt4 Zn2 2.696090 1_555
Pt4 Zn4 2.696090 1_445
Pt4 Zr1 3.120767 1_545
Pt4 Zr3 3.120767 1_455
Pt4 Zr2 3.120767 1_545
Pt4 Zr0 3.120767 1_455
Pt5 Zn8 2.527066 1_555
Pt5 Zn9 2.527066 1_554
Pt5 Zn12 2.527072 1_555
Pt5 Zn10 2.527072 1_554
Pt5 Zn7 2.696083 1_554
Pt5 Zn6 2.696083 1_555
Pt5 Zn5 2.696083 1_554
Pt5 Zn3 2.696083 1_555
Pt5 Zr0 3.120767 1_555
Pt5 Zr2 3.120767 1_555
Pt5 Zr1 3.120767 1_554
Pt5 Zr3 3.120767 1_554
Pt6 Zn5 2.626409 1_454
Pt6 Zn3 2.626409 1_545
Pt6 Zn4 2.626409 1_445
Pt6 Zn2 2.626409 1_554
Pt6 Zn7 2.626409 1_544
Pt6 Zn6 2.626409 1_455
Pt6 Zn0 2.626416 1_555
Pt6 Zn1 2.626416 1_444
Se0 Zr3 2.674863 1_555
Se0 Zr1 2.674863 1_555
Se0 Zr0 2.674863 1_555
Se0 Zr2 2.674863 1_555
Se0 Zr5 2.674864 1_555
Se0 Zr4 2.674864 1_555
