# generated using pymatgen
data_CsHfScSe4
_symmetry_space_group_name_H-M   'P 1'
_cell_length_a   9.48302041
_cell_length_b   9.48302110
_cell_length_c   6.64382740
_cell_angle_alpha   71.23000285
_cell_angle_beta   71.23000096
_cell_angle_gamma   23.77265582
_symmetry_Int_Tables_number   1
_chemical_formula_structural   CsHfScSe4
_chemical_formula_sum   'Cs1 Hf1 Sc1 Se4'
_cell_volume   227.45018892
_cell_formula_units_Z   1
loop_
 _symmetry_equiv_pos_site_id
 _symmetry_equiv_pos_as_xyz
  1  'x, y, z'
loop_
 _atom_site_type_symbol
 _atom_site_label
 _atom_site_symmetry_multiplicity
 _atom_site_fract_x
 _atom_site_fract_y
 _atom_site_fract_z
 _atom_site_occupancy
  Cs  Cs0  1  0.49890334  0.49890334  0.48756116  1
  Hf  Hf0  1  0.75269310  0.75269310  0.24564432  1
  Sc  Sc0  1  0.24735081  0.24735081  0.75709869  1
  Se  Se0  1  0.33853324  0.33853324  0.00895523  1
  Se  Se1  1  0.66313493  0.66313493  0.00523256  1
  Se  Se2  1  0.83459803  0.83459803  0.50625037  1
  Se  Se3  1  0.16478656  0.16478656  0.48925668  1
loop_
_geom_bond_atom_site_label_1
_geom_bond_atom_site_label_2
_geom_bond_distance
_geom_bond_site_symmetry_2
Cs0 Se2 3.588921 1_455
Cs0 Se2 3.588922 1_545
Cs0 Se1 3.624350 1_555
Cs0 Se3 3.649156 1_655
Cs0 Se3 3.649157 1_565
Cs0 Se0 3.752060 1_556
Hf0 Se2 2.653189 1_555
Hf0 Se1 2.657046 1_555
Hf0 Se0 2.679263 1_655
Hf0 Se0 2.679263 1_565
Hf0 Se3 2.712910 1_565
Hf0 Se3 2.712911 1_655
Sc0 Se1 2.698378 1_456
Sc0 Se1 2.698379 1_546
Sc0 Se3 2.703318 1_555
Sc0 Se2 2.727612 1_545
Sc0 Se2 2.727612 1_455
Sc0 Se0 2.743352 1_556
