# generated using pymatgen
data_Ba5Sr(ScSb3)2
_symmetry_space_group_name_H-M   'P 1'
_cell_length_a   4.99192067
_cell_length_b   14.15920198
_cell_length_c   15.80765155
_cell_angle_alpha   90.33356707
_cell_angle_beta   90.00000000
_cell_angle_gamma   90.00000000
_symmetry_Int_Tables_number   1
_chemical_formula_structural   Ba5Sr(ScSb3)2
_chemical_formula_sum   'Ba10 Sr2 Sc4 Sb12'
_cell_volume   1117.29137438
_cell_formula_units_Z   2
loop_
 _symmetry_equiv_pos_site_id
 _symmetry_equiv_pos_as_xyz
  1  'x, y, z'
loop_
 _atom_site_type_symbol
 _atom_site_label
 _atom_site_symmetry_multiplicity
 _atom_site_fract_x
 _atom_site_fract_y
 _atom_site_fract_z
 _atom_site_occupancy
  Ba  Ba0  1  0.25000000  0.07242912  0.89651498  1
  Ba  Ba1  1  0.75000000  0.92757088  0.10348502  1
  Ba  Ba2  1  0.25000000  0.56965878  0.60363580  1
  Ba  Ba3  1  0.75000000  0.43034122  0.39636420  1
  Ba  Ba4  1  0.25000000  0.85160817  0.49137244  1
  Ba  Ba5  1  0.75000000  0.14839183  0.50862756  1
  Ba  Ba6  1  0.25000000  0.35129103  0.00545483  1
  Ba  Ba7  1  0.75000000  0.64870897  0.99454517  1
  Ba  Ba8  1  0.75000000  0.23061408  0.21418174  1
  Ba  Ba9  1  0.25000000  0.76938592  0.78581826  1
  Sr  Sr0  1  0.75000000  0.72635924  0.28307188  1
  Sr  Sr1  1  0.25000000  0.27364076  0.71692812  1
  Sc  Sc0  1  0.25000000  0.05371670  0.29515180  1
  Sc  Sc1  1  0.75000000  0.94628330  0.70484820  1
  Sc  Sc2  1  0.25000000  0.55734891  0.20506624  1
  Sc  Sc3  1  0.75000000  0.44265109  0.79493376  1
  Sb  Sb0  1  0.25000000  0.23726533  0.37409045  1
  Sb  Sb1  1  0.75000000  0.76273467  0.62590955  1
  Sb  Sb2  1  0.25000000  0.73921833  0.12988122  1
  Sb  Sb3  1  0.75000000  0.26078167  0.87011878  1
  Sb  Sb4  1  0.25000000  0.10144727  0.11805678  1
  Sb  Sb5  1  0.75000000  0.89855273  0.88194322  1
  Sb  Sb6  1  0.25000000  0.60862985  0.38068778  1
  Sb  Sb7  1  0.75000000  0.39137015  0.61931222  1
  Sb  Sb8  1  0.25000000  0.03880206  0.65588986  1
  Sb  Sb9  1  0.75000000  0.96119794  0.34411014  1
  Sb  Sb10  1  0.25000000  0.53086158  0.84627515  1
  Sb  Sb11  1  0.75000000  0.46913842  0.15372485  1
loop_
_geom_bond_atom_site_label_1
_geom_bond_atom_site_label_2
_geom_bond_distance
_geom_bond_site_symmetry_2
Ba0 Sb5 3.512474 1_445
Ba0 Sb5 3.512474 1_545
Ba0 Sb4 3.523699 1_556
Ba0 Sb3 3.678227 1_455
Ba0 Sb3 3.678227 1_555
Ba0 Sb8 3.830651 1_555
Ba1 Sb4 3.512474 1_565
Ba1 Sb4 3.512474 1_665
Ba1 Sb5 3.523699 1_554
Ba1 Sb2 3.678227 1_555
Ba1 Sb2 3.678227 1_655
Ba1 Sb9 3.830651 1_555
Ba2 Sb7 3.559667 1_555
Ba2 Sb7 3.559667 1_455
Ba2 Sb6 3.570393 1_555
Ba2 Sb1 3.717021 1_455
Ba2 Sb1 3.717021 1_555
Ba2 Sb10 3.877862 1_555
Ba3 Sb6 3.559667 1_555
Ba3 Sb6 3.559667 1_655
Ba3 Sb7 3.570393 1_555
Ba3 Sb0 3.717021 1_555
Ba3 Sb0 3.717021 1_655
Ba3 Sb11 3.877862 1_555
Ba4 Sb1 3.516733 1_455
Ba4 Sb1 3.516733 1_555
Ba4 Sb8 3.702468 1_565
Ba4 Sb9 3.754816 1_455
Ba4 Sb9 3.754816 1_555
Ba4 Sb6 3.850642 1_555
Ba5 Sb0 3.516733 1_555
Ba5 Sb0 3.516733 1_655
Ba5 Sb9 3.702468 1_545
Ba5 Sb8 3.754816 1_555
Ba5 Sb8 3.754816 1_655
Ba5 Sb7 3.850642 1_555
Ba6 Sb3 3.523782 1_554
Ba6 Sb3 3.523782 1_454
Ba6 Sb10 3.587580 1_554
Ba6 Sb11 3.802893 1_455
Ba6 Sb11 3.802893 1_555
Ba6 Sb4 3.969402 1_555
Ba7 Sb2 3.523782 1_556
Ba7 Sb2 3.523782 1_656
Ba7 Sb11 3.587580 1_556
Ba7 Sb10 3.802893 1_555
Ba7 Sb10 3.802893 1_655
Ba7 Sb5 3.969402 1_555
Ba8 Sb4 3.442563 1_555
Ba8 Sb4 3.442563 1_655
Ba8 Sb11 3.515275 1_555
Ba8 Sb0 3.553251 1_555
Ba8 Sb0 3.553251 1_655
Ba9 Sb5 3.442563 1_455
Ba9 Sb5 3.442563 1_555
Ba9 Sb10 3.515275 1_555
Ba9 Sb1 3.553251 1_455
Ba9 Sb1 3.553251 1_555
Sb0 Sc0 2.876391 1_555
Sb1 Sc1 2.876391 1_555
Sb2 Sc2 2.842435 1_555
Sb2 Sr0 3.483127 1_455
Sb2 Sr0 3.483127 1_555
Sb3 Sc3 2.842435 1_555
Sb3 Sr1 3.483127 1_555
Sb3 Sr1 3.483127 1_655
Sb4 Sc0 2.883700 1_555
Sb5 Sc1 2.883700 1_555
Sb6 Sc2 2.865455 1_555
Sb6 Sr0 3.379289 1_455
Sb6 Sr0 3.379289 1_555
Sb7 Sc3 2.865455 1_555
Sb7 Sr1 3.379289 1_555
Sb7 Sr1 3.379289 1_655
Sb8 Sc1 2.925175 1_545
Sb8 Sc1 2.925175 1_445
Sb8 Sr1 3.456892 1_555
Sb9 Sc0 2.925175 1_565
Sb9 Sc0 2.925175 1_665
Sb9 Sr0 3.456892 1_555
Sb10 Sc3 2.904594 1_555
Sb10 Sc3 2.904594 1_455
Sb11 Sc2 2.904594 1_555
Sb11 Sc2 2.904594 1_655
