# generated using pymatgen
data_Lu4Sn5GeIr7
_symmetry_space_group_name_H-M   'P 1'
_cell_length_a   7.43544922
_cell_length_b   7.43544891
_cell_length_c   7.43545002
_cell_angle_alpha   109.40377559
_cell_angle_beta   109.50496142
_cell_angle_gamma   109.50494832
_symmetry_Int_Tables_number   1
_chemical_formula_structural   Lu4Sn5GeIr7
_chemical_formula_sum   'Lu4 Sn5 Ge1 Ir7'
_cell_volume   316.44578120
_cell_formula_units_Z   1
loop_
 _symmetry_equiv_pos_site_id
 _symmetry_equiv_pos_as_xyz
  1  'x, y, z'
loop_
 _atom_site_type_symbol
 _atom_site_label
 _atom_site_symmetry_multiplicity
 _atom_site_fract_x
 _atom_site_fract_y
 _atom_site_fract_z
 _atom_site_occupancy
  Lu  Lu0  1  1.00000000  0.98903896  0.52799034  1
  Lu  Lu1  1  0.00000000  0.52799034  0.98903896  1
  Lu  Lu2  1  0.46104763  0.98903896  0.98903896  1
  Lu  Lu3  1  0.53895237  0.52799034  0.52799034  1
  Sn  Sn0  1  0.68756698  0.70081747  0.01325049  1
  Sn  Sn1  1  0.31243302  0.01325049  0.32568351  1
  Sn  Sn2  1  0.00000000  0.29262307  0.29262307  1
  Sn  Sn3  1  0.31243302  0.32568351  0.01325049  1
  Sn  Sn4  1  0.68756698  0.01325049  0.70081747  1
  Ge  Ge0  1  0.00000000  0.65938058  0.65938058  1
  Ir  Ir0  1  0.75407983  0.24873329  0.49465346  1
  Ir  Ir1  1  0.75407983  0.49465346  0.24873329  1
  Ir  Ir2  1  0.50000000  0.25911849  0.75911849  1
  Ir  Ir3  1  0.24592017  0.49465346  0.74057363  1
  Ir  Ir4  1  0.24592017  0.74057363  0.49465346  1
  Ir  Ir5  1  0.50000000  0.75911849  0.25911849  1
  Ir  Ir6  1  1.00000000  0.96408695  0.96408695  1
loop_
_geom_bond_atom_site_label_1
_geom_bond_atom_site_label_2
_geom_bond_distance
_geom_bond_site_symmetry_2
Lu0 Sn3 3.033069 1_666
Lu0 Sn4 3.033069 1_565
Lu0 Sn0 3.150562 1_555
Lu0 Sn1 3.150563 1_665
Lu0 Sn2 3.283728 1_665
Lu1 Sn0 3.033069 1_456
Lu1 Sn1 3.033069 1_566
Lu1 Sn3 3.150562 1_556
Lu1 Sn4 3.150562 1_455
Lu1 Sn2 3.283728 1_556
Lu2 Sn3 3.033064 1_566
Lu2 Sn1 3.033064 1_566
Lu2 Sn0 3.150568 1_556
Lu2 Sn4 3.150568 1_565
Lu2 Sn2 3.283733 1_666
Lu3 Sn4 3.033070 1_565
Lu3 Sn0 3.033070 1_556
Lu3 Sn1 3.150562 1_555
Lu3 Sn3 3.150562 1_555
Lu3 Sn2 3.283734 1_555
Ge0 Ir3 2.541236 1_555
Ge0 Ir0 2.541236 1_455
Ge0 Ir1 2.541236 1_455
Ge0 Ir4 2.541236 1_555
Ge0 Ir6 2.618300 1_455
Ge0 Lu3 2.924666 1_455
Ge0 Lu2 2.924669 1_555
Ge0 Lu0 2.924673 1_455
Ge0 Lu1 2.924674 1_555
Ir0 Sn1 2.715060 1_555
Ir0 Sn4 2.715060 1_555
Ir0 Sn2 2.732776 1_655
Ir0 Lu3 3.012011 1_555
Ir0 Lu1 3.012017 1_655
Ir0 Lu0 3.083282 1_545
Ir0 Lu2 3.083283 1_544
Ir1 Sn3 2.715060 1_555
Ir1 Sn0 2.715060 1_555
Ir1 Sn2 2.732776 1_655
Ir1 Lu3 3.012012 1_555
Ir1 Lu0 3.012017 1_555
Ir1 Lu1 3.083283 1_654
Ir1 Lu2 3.083283 1_544
Ir2 Sn4 2.656080 1_555
Ir2 Sn1 2.656080 1_555
Ir2 Sn0 2.712906 1_556
Ir2 Sn3 2.712906 1_556
Ir2 Lu0 3.043443 1_445
Ir2 Lu1 3.043443 1_655
Ir2 Lu2 3.043444 1_545
Ir2 Lu3 3.043444 1_555
Ir3 Sn0 2.715060 1_556
Ir3 Sn3 2.715060 1_556
Ir3 Sn2 2.732776 1_555
Ir3 Lu1 3.012018 1_555
Ir3 Lu2 3.012018 1_555
Ir3 Lu0 3.083282 1_445
Ir3 Lu3 3.083289 1_555
Ir4 Sn4 2.715060 1_565
Ir4 Sn1 2.715060 1_565
Ir4 Sn2 2.732776 1_555
Ir4 Lu0 3.012017 1_455
Ir4 Lu2 3.012018 1_555
Ir4 Lu1 3.083283 1_554
Ir4 Lu3 3.083289 1_555
Ir5 Sn3 2.656080 1_555
Ir5 Sn0 2.656081 1_555
Ir5 Sn1 2.712906 1_565
Ir5 Sn4 2.712906 1_565
Ir5 Lu1 3.043443 1_554
Ir5 Lu0 3.043443 1_555
Ir5 Lu2 3.043444 1_554
Ir5 Lu3 3.043444 1_555
Ir6 Sn4 2.714420 1_565
Ir6 Sn1 2.714420 1_666
Ir6 Sn3 2.714420 1_666
Ir6 Sn0 2.714421 1_556
Ir6 Sn2 2.823066 1_666
Ir6 Lu2 3.308835 1_655
Ir6 Lu3 3.308839 1_555
Ir6 Lu1 3.308842 1_655
Ir6 Lu0 3.308842 1_555
