# generated using pymatgen
data_Zr6Zn21SiNi2
_symmetry_space_group_name_H-M   'P 1'
_cell_length_a   8.67763952
_cell_length_b   8.61713801
_cell_length_c   8.61713886
_cell_angle_alpha   59.91361224
_cell_angle_beta   59.76747202
_cell_angle_gamma   59.76747212
_symmetry_Int_Tables_number   1
_chemical_formula_structural   Zr6Zn21SiNi2
_chemical_formula_sum   'Zr6 Zn21 Si1 Ni2'
_cell_volume   453.72743615
_cell_formula_units_Z   1
loop_
 _symmetry_equiv_pos_site_id
 _symmetry_equiv_pos_as_xyz
  1  'x, y, z'
loop_
 _atom_site_type_symbol
 _atom_site_label
 _atom_site_symmetry_multiplicity
 _atom_site_fract_x
 _atom_site_fract_y
 _atom_site_fract_z
 _atom_site_occupancy
  Zr  Zr0  1  0.71211838  0.28788162  0.28788162  1
  Zr  Zr1  1  0.28788162  0.71211838  0.71211838  1
  Zr  Zr2  1  0.28891649  0.70755968  0.29244032  1
  Zr  Zr3  1  0.71108351  0.29244032  0.70755968  1
  Zr  Zr4  1  0.28891649  0.29244032  0.70755968  1
  Zr  Zr5  1  0.71108351  0.70755968  0.29244032  1
  Zn  Zn0  1  0.11896229  0.11877485  0.11877485  1
  Zn  Zn1  1  0.88103771  0.88122515  0.88122515  1
  Zn  Zn2  1  0.11498534  0.13014154  0.63988878  1
  Zn  Zn3  1  0.11498534  0.63988878  0.13014154  1
  Zn  Zn4  1  0.88501466  0.86985846  0.36011122  1
  Zn  Zn5  1  0.88501466  0.36011122  0.86985846  1
  Zn  Zn6  1  0.64349002  0.11877485  0.11877485  1
  Zn  Zn7  1  0.35650998  0.88122515  0.88122515  1
  Zn  Zn8  1  0.50000000  0.00000000  0.00000000  1
  Zn  Zn9  1  0.00000000  0.50000000  0.00000000  1
  Zn  Zn10  1  0.50000000  0.00000000  0.50000000  1
  Zn  Zn11  1  0.00000000  0.00000000  0.50000000  1
  Zn  Zn12  1  0.50000000  0.50000000  0.00000000  1
  Zn  Zn13  1  0.32628258  0.33661751  0.33661751  1
  Zn  Zn14  1  0.67371742  0.66338249  0.66338249  1
  Zn  Zn15  1  0.33260914  0.33399213  0.00079059  1
  Zn  Zn16  1  0.33260914  0.00079059  0.33399213  1
  Zn  Zn17  1  0.66739086  0.66600787  0.99920941  1
  Zn  Zn18  1  0.66739086  0.99920941  0.66600787  1
  Zn  Zn19  1  0.00048339  0.33661751  0.33661751  1
  Zn  Zn20  1  0.99951661  0.66338249  0.66338249  1
  Si  Si0  1  0.50000000  0.50000000  0.50000000  1
  Ni  Ni0  1  0.00000000  0.50000000  0.50000000  1
  Ni  Ni1  1  0.00000000  0.00000000  0.00000000  1
loop_
_geom_bond_atom_site_label_1
_geom_bond_atom_site_label_2
_geom_bond_distance
_geom_bond_site_symmetry_2
Zn0 Zn9 2.680079 1_555
Zn0 Zn11 2.680079 1_555
Zn0 Zn8 2.694892 1_555
Zn0 Zn15 2.753909 1_555
Zn0 Zn16 2.753910 1_555
Zn0 Zn19 2.783993 1_555
Zn0 Zn7 2.886572 1_544
Zn0 Zr0 2.911793 1_455
Zn0 Zr2 2.934984 1_545
Zn0 Zr4 2.934984 1_554
Zn0 Zn4 2.950967 1_445
Zn0 Zn5 2.950968 1_454
Zn1 Zn9 2.680079 1_656
Zn1 Zn11 2.680079 1_665
Zn1 Zn8 2.694892 1_566
Zn1 Zn17 2.753909 1_555
Zn1 Zn18 2.753910 1_555
Zn1 Zn20 2.783993 1_555
Zn1 Zn6 2.886572 1_566
Zn1 Zr1 2.911793 1_655
Zn1 Zr3 2.934984 1_565
Zn1 Zr5 2.934984 1_556
Zn1 Zn2 2.950967 1_665
Zn1 Zn3 2.950968 1_656
Zn2 Zn5 2.794464 1_455
Zn2 Zr4 2.898904 1_555
Zn2 Zr3 2.898912 1_455
Zn2 Zn7 2.950949 1_545
Zn2 Zr1 2.977261 1_545
Zn3 Zn9 2.720254 1_555
Zn3 Zn4 2.794464 1_455
Zn3 Zr2 2.898904 1_555
Zn3 Zr5 2.898912 1_455
Zn3 Zn7 2.950949 1_554
Zn3 Zr1 2.977262 1_554
Zn4 Zr5 2.898904 1_555
Zn4 Zr2 2.898912 1_655
Zn4 Zn6 2.950949 1_565
Zn4 Zr0 2.977261 1_565
Zn5 Zn9 2.720254 1_656
Zn5 Zr3 2.898904 1_555
Zn5 Zr4 2.898912 1_655
Zn5 Zn6 2.950949 1_556
Zn5 Zr0 2.977262 1_556
Zn6 Zn8 2.694907 1_555
Zn6 Zr0 2.911781 1_555
Zn6 Zr5 2.934986 1_545
Zn6 Zr3 2.934987 1_554
Zn7 Zn8 2.694907 1_566
Zn7 Zr1 2.911781 1_555
Zn7 Zr4 2.934986 1_565
Zn7 Zr2 2.934987 1_556
Zn8 Zr3 3.112710 1_554
Zn8 Zr2 3.112710 1_545
Zn8 Zr5 3.112710 1_545
Zn8 Zr4 3.112710 1_554
Zn9 Zr4 3.078318 1_554
Zn9 Zr5 3.078318 1_455
Zn9 Zr0 3.089831 1_455
Zn9 Zr1 3.089831 1_554
Zn10 Zn18 2.495815 1_545
Zn10 Zn16 2.495815 1_555
Zn10 Zn13 2.511555 1_555
Zn10 Zn14 2.511555 1_545
Zn10 Zn7 2.680079 1_545
Zn10 Zn6 2.680079 1_555
Zn10 Zn4 2.720247 1_545
Zn10 Zn2 2.720247 1_555
Zn10 Zr5 3.078318 1_545
Zn10 Zr4 3.078318 1_555
Zn10 Zr1 3.089831 1_545
Zn10 Zr0 3.089831 1_555
Zn11 Zn16 2.495822 1_555
Zn11 Zn18 2.495822 1_445
Zn11 Zn19 2.511558 1_555
Zn11 Zn20 2.511558 1_445
Zn11 Zn2 2.720254 1_555
Zn11 Zn4 2.720254 1_445
Zn11 Zr3 3.078318 1_455
Zn11 Zr2 3.078318 1_545
Zn11 Zr1 3.089831 1_545
Zn11 Zr0 3.089831 1_455
Zn12 Zn17 2.495815 1_554
Zn12 Zn15 2.495815 1_555
Zn12 Zn14 2.511555 1_554
Zn12 Zn13 2.511555 1_555
Zn12 Zn7 2.680079 1_554
Zn12 Zn6 2.680079 1_555
Zn12 Zn5 2.720247 1_554
Zn12 Zn3 2.720247 1_555
Zn12 Zr2 3.078318 1_555
Zn12 Zr3 3.078318 1_554
Zn12 Zr0 3.089832 1_555
Zn12 Zr1 3.089832 1_554
Zn13 Zn2 2.674910 1_555
Zn13 Zn3 2.674910 1_555
Zn13 Zn6 2.783996 1_555
Zn13 Zn19 2.827168 1_555
Zn13 Zn16 2.877915 1_555
Zn13 Zn15 2.877915 1_555
Zn13 Zr2 2.885824 1_555
Zn13 Zr4 2.885824 1_555
Zn13 Zr0 2.984576 1_555
Zn14 Zn4 2.674910 1_555
Zn14 Zn5 2.674910 1_555
Zn14 Zn7 2.783996 1_555
Zn14 Zn20 2.827168 1_555
Zn14 Zn18 2.877915 1_555
Zn14 Zn17 2.877915 1_555
Zn14 Zr3 2.885824 1_555
Zn14 Zr5 2.885824 1_555
Zn14 Zr1 2.984576 1_555
Zn15 Zn8 2.488569 1_555
Zn15 Zn9 2.495822 1_555
Zn15 Zn3 2.751395 1_555
Zn15 Zn6 2.753917 1_555
Zn15 Zn16 2.867494 1_555
Zn15 Zn19 2.877915 1_555
Zn15 Zr1 2.920218 1_554
Zn15 Zr3 2.943685 1_554
Zn15 Zr4 2.943691 1_554
Zn16 Zn8 2.488569 1_555
Zn16 Zn2 2.751395 1_555
Zn16 Zn6 2.753917 1_555
Zn16 Zn19 2.877915 1_555
Zn16 Zr1 2.920218 1_545
Zn16 Zr5 2.943685 1_545
Zn16 Zr2 2.943691 1_545
Zn17 Zn8 2.488569 1_566
Zn17 Zn9 2.495822 1_656
Zn17 Zn5 2.751395 1_555
Zn17 Zn7 2.753917 1_555
Zn17 Zn18 2.867494 1_555
Zn17 Zn20 2.877915 1_555
Zn17 Zr0 2.920218 1_556
Zn17 Zr2 2.943685 1_556
Zn17 Zr5 2.943691 1_556
Zn18 Zn8 2.488569 1_566
Zn18 Zn4 2.751395 1_555
Zn18 Zn7 2.753917 1_555
Zn18 Zn20 2.877915 1_555
Zn18 Zr0 2.920218 1_565
Zn18 Zr4 2.943685 1_565
Zn18 Zr3 2.943691 1_565
Zn19 Zn9 2.511558 1_555
Zn19 Zn3 2.674910 1_555
Zn19 Zn2 2.674910 1_555
Zn19 Zr5 2.885827 1_455
Zn19 Zr3 2.885827 1_455
Zn19 Zr0 2.984584 1_455
Zn20 Zn9 2.511558 1_656
Zn20 Zn5 2.674910 1_555
Zn20 Zn4 2.674910 1_555
Zn20 Zr4 2.885827 1_655
Zn20 Zr2 2.885827 1_655
Zn20 Zr1 2.984584 1_655
Si0 Zr5 2.558473 1_555
Si0 Zr4 2.558473 1_555
Si0 Zr3 2.558473 1_555
Si0 Zr2 2.558473 1_555
Si0 Zr0 2.577545 1_555
Si0 Zr1 2.577545 1_555
Ni0 Zn20 2.437161 1_455
Ni0 Zn19 2.437161 1_555
Ni0 Zn13 2.437166 1_555
Ni0 Zn14 2.437166 1_455
Ni0 Zn4 2.600638 1_455
Ni0 Zn2 2.600638 1_555
Ni0 Zn5 2.600638 1_455
Ni0 Zn3 2.600638 1_555
Ni0 Zr2 3.078352 1_555
Ni0 Zr3 3.078352 1_455
Ni0 Zr4 3.078352 1_555
Ni0 Zr5 3.078352 1_455
Ni1 Zn7 2.517729 1_544
Ni1 Zn6 2.517729 1_455
Ni1 Zn0 2.517743 1_555
Ni1 Zn1 2.517743 1_444
Ni1 Zn5 2.530291 1_454
Ni1 Zn3 2.530291 1_545
Ni1 Zn4 2.530291 1_445
Ni1 Zn2 2.530291 1_554
