# generated using pymatgen
data_Hf8CrTcBi4
_symmetry_space_group_name_H-M   'P 1'
_cell_length_a   8.23250042
_cell_length_b   8.23249927
_cell_length_c   8.23250080
_cell_angle_alpha   96.20940797
_cell_angle_beta   96.20940283
_cell_angle_gamma   141.59828304
_symmetry_Int_Tables_number   1
_chemical_formula_structural   Hf8CrTcBi4
_chemical_formula_sum   'Hf8 Cr1 Tc1 Bi4'
_cell_volume   327.30260405
_cell_formula_units_Z   1
loop_
 _symmetry_equiv_pos_site_id
 _symmetry_equiv_pos_as_xyz
  1  'x, y, z'
loop_
 _atom_site_type_symbol
 _atom_site_label
 _atom_site_symmetry_multiplicity
 _atom_site_fract_x
 _atom_site_fract_y
 _atom_site_fract_z
 _atom_site_occupancy
  Hf  Hf0  1  0.07886612  0.19263028  0.27912054  1
  Hf  Hf1  1  0.91350874  0.79974458  0.72087946  1
  Hf  Hf2  1  0.79974458  0.07886612  0.88623484  1
  Hf  Hf3  1  0.42113388  0.70025542  0.11376516  1
  Hf  Hf4  1  0.19263028  0.91350874  0.11376516  1
  Hf  Hf5  1  0.58649126  0.30736972  0.88623484  1
  Hf  Hf6  1  0.70025542  0.58649126  0.27912054  1
  Hf  Hf7  1  0.30736972  0.42113388  0.72087946  1
  Cr  Cr0  1  0.75000000  0.75000000  0.00000000  1
  Tc  Tc0  1  0.25000000  0.25000000  0.00000000  1
  Bi  Bi0  1  0.13817384  0.63817384  0.77634669  1
  Bi  Bi1  1  0.86182616  0.36182616  0.22365331  1
  Bi  Bi2  1  0.36182616  0.13817384  0.50000000  1
  Bi  Bi3  1  0.63817384  0.86182616  0.50000000  1
loop_
_geom_bond_atom_site_label_1
_geom_bond_atom_site_label_2
_geom_bond_distance
_geom_bond_site_symmetry_2
Hf0 Tc0 2.716669 1_555
Hf1 Tc0 2.716672 1_666
Hf2 Tc0 2.716678 1_656
Hf3 Tc0 2.716677 1_555
Hf4 Tc0 2.716680 1_565
Hf5 Tc0 2.716681 1_556
Hf6 Tc0 2.716672 1_555
Hf7 Tc0 2.716669 1_556
Cr0 Hf6 2.696015 1_555
Cr0 Hf1 2.696015 1_554
Cr0 Hf0 2.696018 1_665
Cr0 Hf7 2.696018 1_554
Cr0 Hf5 2.696023 1_554
Cr0 Hf4 2.696024 1_655
Cr0 Hf2 2.696026 1_564
Cr0 Hf3 2.696027 1_555
Cr0 Tc0 2.707511 1_555
Cr0 Tc0 2.707511 1_665
Bi0 Hf7 3.033682 1_555
Bi0 Hf1 3.033682 1_455
Bi0 Hf4 3.135420 1_556
Bi0 Hf3 3.135420 1_556
Bi0 Hf5 3.301212 1_455
Bi0 Hf2 3.301212 1_565
Bi0 Hf5 3.334904 1_565
Bi0 Hf2 3.334904 1_455
Bi1 Hf6 3.033682 1_555
Bi1 Hf0 3.033682 1_655
Bi1 Hf2 3.135420 1_554
Bi1 Hf5 3.135420 1_554
Bi1 Hf3 3.301212 1_545
Bi1 Hf4 3.301212 1_655
Bi1 Hf3 3.334905 1_655
Bi1 Hf4 3.334905 1_545
Bi2 Hf4 3.033677 1_545
Bi2 Hf5 3.033677 1_555
Bi2 Hf7 3.135411 1_555
Bi2 Hf0 3.135411 1_555
Bi2 Hf1 3.301214 1_555
Bi2 Hf6 3.301214 1_445
Bi2 Hf6 3.334911 1_555
Bi2 Hf1 3.334911 1_445
Bi3 Hf2 3.033677 1_565
Bi3 Hf3 3.033677 1_555
Bi3 Hf6 3.135411 1_555
Bi3 Hf1 3.135411 1_555
Bi3 Hf7 3.301218 1_555
Bi3 Hf0 3.301218 1_665
Bi3 Hf0 3.334906 1_555
Bi3 Hf7 3.334907 1_665
