# generated using pymatgen
data_Zr5TiBI12
_symmetry_space_group_name_H-M   'P 1'
_cell_length_a   9.13247461
_cell_length_b   9.34197439
_cell_length_c   9.16665674
_cell_angle_alpha   106.81698775
_cell_angle_beta   106.96929495
_cell_angle_gamma   107.26937792
_symmetry_Int_Tables_number   1
_chemical_formula_structural   Zr5TiBI12
_chemical_formula_sum   'Zr5 Ti1 B1 I12'
_cell_volume   650.96606352
_cell_formula_units_Z   1
loop_
 _symmetry_equiv_pos_site_id
 _symmetry_equiv_pos_as_xyz
  1  'x, y, z'
loop_
 _atom_site_type_symbol
 _atom_site_label
 _atom_site_symmetry_multiplicity
 _atom_site_fract_x
 _atom_site_fract_y
 _atom_site_fract_z
 _atom_site_occupancy
  Zr  Zr0  1  0.27681076  0.09037541  0.02839257  1
  Zr  Zr1  1  0.09021081  0.02826185  0.27593185  1
  Zr  Zr2  1  0.90870111  0.97002252  0.72371712  1
  Zr  Zr3  1  0.72123527  0.90835177  0.97141556  1
  Zr  Zr4  1  0.02651688  0.27246177  0.08832514  1
  Ti  Ti0  1  0.97590046  0.74674811  0.91773386  1
  B  B0  1  0.99926488  0.00240892  0.00092071  1
  I  I0  1  0.91783025  0.29631153  0.76826408  1
  I  I1  1  0.68710750  0.22101336  0.07601921  1
  I  I2  1  0.44732109  0.14505139  0.37199804  1
  I  I3  1  0.86386659  0.63474304  0.56861949  1
  I  I4  1  0.22804321  0.07580336  0.68923330  1
  I  I5  1  0.64080946  0.56292373  0.85972004  1
  I  I6  1  0.37029911  0.43964465  0.14007120  1
  I  I7  1  0.77059367  0.91818748  0.30828313  1
  I  I8  1  0.14172742  0.36585662  0.44391345  1
  I  I9  1  0.55077482  0.85092732  0.62691303  1
  I  I10  1  0.30590002  0.77612744  0.92425606  1
  I  I11  1  0.07708669  0.69478073  0.21627314  1
loop_
_geom_bond_atom_site_label_1
_geom_bond_atom_site_label_2
_geom_bond_distance
_geom_bond_site_symmetry_2
B0 Ti0 2.209065 1_544
B0 Zr1 2.325873 1_655
B0 Zr4 2.325888 1_655
B0 Zr2 2.326424 1_544
B0 Zr3 2.330072 1_544
B0 Zr0 2.331160 1_655
I0 Zr4 2.907276 1_656
I0 Zr2 2.928162 1_545
I1 Zr3 2.939803 1_544
I1 Zr4 2.954919 1_655
I1 Zr0 3.426652 1_555
I2 Zr1 2.873495 1_555
I2 Zr0 2.887959 1_555
I3 Ti0 2.810440 1_555
I3 Zr2 2.884705 1_555
I4 Zr2 2.930786 1_445
I4 Zr0 2.965362 1_556
I4 Zr1 3.470720 1_555
I5 Ti0 2.828107 1_555
I5 Zr3 2.871092 1_555
I6 Zr4 2.883049 1_555
I6 Zr0 2.885527 1_555
I7 Zr1 2.926593 1_665
I7 Zr3 2.957329 1_554
I7 Zr2 3.477631 1_555
I8 Zr4 2.881050 1_555
I8 Zr1 2.902590 1_555
I9 Zr2 2.878605 1_555
I9 Zr3 2.887571 1_555
I10 Ti0 2.924995 1_455
I10 Zr0 2.930810 1_566
I10 Zr3 3.471588 1_555
I11 Ti0 2.852649 1_454
I11 Zr1 2.961959 1_565
I11 Zr4 3.616457 1_555
