# generated using pymatgen
data_Hf2Zr4Zn23As
_symmetry_space_group_name_H-M   'P 1'
_cell_length_a   8.65277321
_cell_length_b   8.68526079
_cell_length_c   8.68526125
_cell_angle_alpha   59.75268289
_cell_angle_beta   60.12365924
_cell_angle_gamma   60.12365852
_symmetry_Int_Tables_number   1
_chemical_formula_structural   Hf2Zr4Zn23As
_chemical_formula_sum   'Hf2 Zr4 Zn23 As1'
_cell_volume   461.52365664
_cell_formula_units_Z   1
loop_
 _symmetry_equiv_pos_site_id
 _symmetry_equiv_pos_as_xyz
  1  'x, y, z'
loop_
 _atom_site_type_symbol
 _atom_site_label
 _atom_site_symmetry_multiplicity
 _atom_site_fract_x
 _atom_site_fract_y
 _atom_site_fract_z
 _atom_site_occupancy
  Hf  Hf0  1  0.71022404  0.28977596  0.28977596  1
  Hf  Hf1  1  0.28977596  0.71022404  0.71022404  1
  Zr  Zr0  1  0.28581301  0.71418699  0.28581301  1
  Zr  Zr1  1  0.71418699  0.28581301  0.71418699  1
  Zr  Zr2  1  0.28581301  0.28581301  0.71418699  1
  Zr  Zr3  1  0.71418699  0.71418699  0.28581301  1
  Zn  Zn0  1  0.11924844  0.12520878  0.12520878  1
  Zn  Zn1  1  0.88075156  0.87479122  0.87479122  1
  Zn  Zn2  1  0.12520878  0.11924844  0.63033399  1
  Zn  Zn3  1  0.12520878  0.63033399  0.11924844  1
  Zn  Zn4  1  0.87479122  0.88075156  0.36966601  1
  Zn  Zn5  1  0.87479122  0.36966601  0.88075156  1
  Zn  Zn6  1  0.63033399  0.12520878  0.12520878  1
  Zn  Zn7  1  0.36966601  0.87479122  0.87479122  1
  Zn  Zn8  1  0.50000000  0.00000000  0.00000000  1
  Zn  Zn9  1  0.00000000  0.50000000  0.50000000  1
  Zn  Zn10  1  0.00000000  0.50000000  0.00000000  1
  Zn  Zn11  1  0.50000000  0.00000000  0.50000000  1
  Zn  Zn12  1  0.00000000  0.00000000  0.50000000  1
  Zn  Zn13  1  0.50000000  0.50000000  0.00000000  1
  Zn  Zn14  1  0.33272527  0.33394786  0.33394786  1
  Zn  Zn15  1  0.66727473  0.66605214  0.66605214  1
  Zn  Zn16  1  0.33394786  0.33272527  0.99938201  1
  Zn  Zn17  1  0.33394786  0.99938201  0.33272527  1
  Zn  Zn18  1  0.66605214  0.66727473  0.00061799  1
  Zn  Zn19  1  0.66605214  0.00061799  0.66727473  1
  Zn  Zn20  1  0.99938201  0.33394786  0.33394786  1
  Zn  Zn21  1  0.00061799  0.66605214  0.66605214  1
  Zn  Zn22  1  0.00000000  0.00000000  0.00000000  1
  As  As0  1  0.50000000  0.50000000  0.50000000  1
loop_
_geom_bond_atom_site_label_1
_geom_bond_atom_site_label_2
_geom_bond_distance
_geom_bond_site_symmetry_2
Hf0 Zn0 2.930967 1_655
Hf0 Zn4 2.930967 1_545
Hf0 Zn6 2.930967 1_555
Hf0 Zn5 2.930967 1_554
Hf0 Zn14 2.935163 1_555
Hf0 Zn18 2.935173 1_555
Hf0 Zn19 2.935173 1_555
Hf0 Zn20 2.935189 1_555
Hf0 Zn11 3.098271 1_555
Hf0 Zn10 3.098271 1_655
Hf0 Zn12 3.098271 1_655
Hf0 Zn13 3.098271 1_555
Hf1 Zn1 2.930967 1_455
Hf1 Zn2 2.930967 1_565
Hf1 Zn7 2.930967 1_555
Hf1 Zn3 2.930967 1_556
Hf1 Zn15 2.935163 1_555
Hf1 Zn16 2.935173 1_555
Hf1 Zn17 2.935173 1_555
Hf1 Zn21 2.935189 1_555
Hf1 Zn11 3.098271 1_565
Hf1 Zn10 3.098271 1_556
Hf1 Zn12 3.098271 1_565
Hf1 Zn13 3.098271 1_556
Zn0 Zn22 2.618598 1_555
Zn0 Zn10 2.654936 1_555
Zn0 Zn12 2.654936 1_555
Zn0 Zn20 2.685896 1_455
Zn0 Zn16 2.687506 1_554
Zn0 Zn17 2.687506 1_545
Zn0 Zn8 2.696673 1_555
Zn0 Zr0 2.937175 1_545
Zn0 Zr2 2.937175 1_554
Zn0 Zn4 2.991391 1_445
Zn0 Zn5 2.991391 1_454
Zn0 Zn7 3.087295 1_544
Zn1 Zn22 2.618598 1_666
Zn1 Zn10 2.654936 1_656
Zn1 Zn12 2.654936 1_665
Zn1 Zn21 2.685896 1_655
Zn1 Zn18 2.687506 1_556
Zn1 Zn19 2.687506 1_565
Zn1 Zn8 2.696673 1_566
Zn1 Zr1 2.937175 1_565
Zn1 Zr3 2.937175 1_556
Zn1 Zn2 2.991391 1_665
Zn1 Zn3 2.991391 1_656
Zn1 Zn6 3.087295 1_566
Zn2 Zn22 2.618599 1_556
Zn2 Zn20 2.687485 1_455
Zn2 Zn9 2.696673 1_555
Zn2 Zr1 2.937175 1_455
Zn2 Zr2 2.937175 1_555
Zn2 Zn7 2.991391 1_545
Zn2 Zn5 3.087295 1_455
Zn3 Zn9 2.696674 1_555
Zn3 Zr3 2.937175 1_455
Zn3 Zr0 2.937175 1_555
Zn3 Zn7 2.991391 1_554
Zn3 Zn4 3.087295 1_455
Zn4 Zn9 2.696673 1_655
Zn4 Zr0 2.937175 1_655
Zn4 Zr3 2.937175 1_555
Zn4 Zn6 2.991391 1_565
Zn5 Zn9 2.696674 1_655
Zn5 Zr2 2.937175 1_655
Zn5 Zr1 2.937175 1_555
Zn5 Zn6 2.991391 1_556
Zn6 Zn8 2.696674 1_555
Zn6 Zr3 2.937175 1_545
Zn6 Zr1 2.937176 1_554
Zn7 Zn8 2.696674 1_566
Zn7 Zr2 2.937175 1_565
Zn7 Zr0 2.937176 1_556
Zn8 Zr1 3.090447 1_554
Zn8 Zr0 3.090447 1_545
Zn8 Zr2 3.090447 1_554
Zn8 Zr3 3.090447 1_545
Zn9 Zr0 3.090447 1_555
Zn9 Zr1 3.090447 1_455
Zn9 Zr2 3.090447 1_555
Zn9 Zr3 3.090447 1_455
Zn10 Zn18 2.504083 1_455
Zn10 Zn16 2.504083 1_554
Zn10 Zn21 2.504084 1_554
Zn10 Zn20 2.504084 1_455
Zn10 Zn3 2.654936 1_555
Zn10 Zn5 2.654936 1_454
Zn10 Zr3 3.113147 1_455
Zn10 Zr2 3.113147 1_554
Zn11 Zn19 2.504061 1_555
Zn11 Zn17 2.504061 1_545
Zn11 Zn15 2.504076 1_545
Zn11 Zn14 2.504076 1_555
Zn11 Zn2 2.654936 1_555
Zn11 Zn4 2.654936 1_545
Zn11 Zn7 2.654936 1_545
Zn11 Zn6 2.654936 1_555
Zn11 Zr2 3.113147 1_555
Zn11 Zr3 3.113147 1_545
Zn12 Zn17 2.504084 1_545
Zn12 Zn19 2.504084 1_455
Zn12 Zn21 2.504084 1_545
Zn12 Zn20 2.504084 1_455
Zn12 Zn2 2.654936 1_555
Zn12 Zn4 2.654936 1_445
Zn12 Zr1 3.113147 1_455
Zn12 Zr0 3.113147 1_545
Zn13 Zn18 2.504061 1_555
Zn13 Zn16 2.504061 1_554
Zn13 Zn14 2.504076 1_555
Zn13 Zn15 2.504076 1_554
Zn13 Zn5 2.654936 1_554
Zn13 Zn3 2.654936 1_555
Zn13 Zn7 2.654936 1_554
Zn13 Zn6 2.654936 1_555
Zn13 Zr0 3.113147 1_555
Zn13 Zr1 3.113147 1_554
Zn14 Zn9 2.504172 1_555
Zn14 Zn6 2.685889 1_555
Zn14 Zn3 2.687499 1_555
Zn14 Zn2 2.687499 1_555
Zn14 Zn20 2.884344 1_455
Zn14 Zn17 2.905890 1_545
Zn14 Zn16 2.905890 1_554
Zn14 Zr0 2.947622 1_555
Zn14 Zr2 2.947623 1_555
Zn15 Zn9 2.504172 1_655
Zn15 Zn7 2.685889 1_555
Zn15 Zn5 2.687499 1_555
Zn15 Zn4 2.687499 1_555
Zn15 Zn21 2.884344 1_655
Zn15 Zn19 2.905890 1_565
Zn15 Zn18 2.905890 1_556
Zn15 Zr1 2.947622 1_555
Zn15 Zr3 2.947623 1_555
Zn16 Zn8 2.504179 1_556
Zn16 Zn3 2.685875 1_556
Zn16 Zn6 2.687485 1_556
Zn16 Zn17 2.884344 1_546
Zn16 Zn20 2.905890 1_456
Zn16 Zr1 2.947632 1_555
Zn16 Zr2 2.947648 1_555
Zn17 Zn8 2.504180 1_565
Zn17 Zn2 2.685875 1_565
Zn17 Zn6 2.687485 1_565
Zn17 Zn20 2.905890 1_465
Zn17 Zr3 2.947632 1_555
Zn17 Zr0 2.947648 1_555
Zn18 Zn8 2.504179 1_565
Zn18 Zn5 2.685875 1_554
Zn18 Zn7 2.687485 1_554
Zn18 Zn19 2.884344 1_564
Zn18 Zn21 2.905890 1_654
Zn18 Zr0 2.947632 1_555
Zn18 Zr3 2.947648 1_555
Zn19 Zn8 2.504180 1_556
Zn19 Zn4 2.685875 1_545
Zn19 Zn7 2.687485 1_545
Zn19 Zn21 2.905890 1_645
Zn19 Zr2 2.947632 1_555
Zn19 Zr1 2.947648 1_555
Zn20 Zn9 2.504157 1_655
Zn20 Zn3 2.687485 1_655
Zn20 Zr3 2.947631 1_555
Zn20 Zr1 2.947632 1_555
Zn21 Zn9 2.504157 1_555
Zn21 Zn5 2.687485 1_455
Zn21 Zn4 2.687485 1_455
Zn21 Zr2 2.947631 1_555
Zn21 Zr0 2.947632 1_555
Zn22 Zn7 2.618598 1_544
Zn22 Zn6 2.618598 1_455
Zn22 Zn5 2.618598 1_454
Zn22 Zn3 2.618598 1_545
Zn22 Zn4 2.618599 1_445
As0 Hf1 2.591765 1_555
As0 Hf0 2.591765 1_555
As0 Zr3 2.620978 1_555
As0 Zr2 2.620978 1_555
As0 Zr1 2.620978 1_555
As0 Zr0 2.620978 1_555
