# generated using pymatgen
data_Zn2NiRh3O8
_symmetry_space_group_name_H-M   'P 1'
_cell_length_a   5.93512689
_cell_length_b   6.03372320
_cell_length_c   6.03372424
_cell_angle_alpha   60.00000465
_cell_angle_beta   59.44893478
_cell_angle_gamma   59.44893778
_symmetry_Int_Tables_number   1
_chemical_formula_structural   Zn2NiRh3O8
_chemical_formula_sum   'Zn2 Ni1 Rh3 O8'
_cell_volume   151.50180818
_cell_formula_units_Z   1
loop_
 _symmetry_equiv_pos_site_id
 _symmetry_equiv_pos_as_xyz
  1  'x, y, z'
loop_
 _atom_site_type_symbol
 _atom_site_label
 _atom_site_symmetry_multiplicity
 _atom_site_fract_x
 _atom_site_fract_y
 _atom_site_fract_z
 _atom_site_occupancy
  Zn  Zn0  1  0.48679190  0.50440270  0.50440270  1
  Zn  Zn1  1  0.76320810  0.74559730  0.74559730  1
  Ni  Ni0  1  0.62500000  0.12500000  0.12500000  1
  Rh  Rh0  1  0.12500000  0.12500000  0.12500000  1
  Rh  Rh1  1  0.12500000  0.62500000  0.12500000  1
  Rh  Rh2  1  0.12500000  0.12500000  0.62500000  1
  O  O0  1  0.36343540  0.36514395  0.36514395  1
  O  O1  1  0.34781797  0.88406101  0.88406101  1
  O  O2  1  0.88656460  0.88485605  0.34372430  1
  O  O3  1  0.88656460  0.34372430  0.88485605  1
  O  O4  1  0.36343540  0.36514395  0.90627570  1
  O  O5  1  0.36343540  0.90627570  0.36514395  1
  O  O6  1  0.88656460  0.88485605  0.88485605  1
  O  O7  1  0.90218203  0.36593899  0.36593899  1
loop_
_geom_bond_atom_site_label_1
_geom_bond_atom_site_label_2
_geom_bond_distance
_geom_bond_site_symmetry_2
Ni0 O0 2.033458 1_555
Ni0 O6 2.033458 1_544
Ni0 O3 2.033462 1_554
Ni0 O5 2.033462 1_545
Ni0 O2 2.033462 1_545
Ni0 O4 2.033462 1_554
O0 Zn0 1.976075 1_555
O0 Rh2 2.029162 1_555
O0 Rh1 2.029162 1_555
O1 Zn1 1.996055 1_555
O1 Rh0 2.044553 1_566
O1 Rh1 2.044558 1_556
O1 Rh2 2.044558 1_565
O2 Zn1 1.976070 1_555
O2 Rh0 2.029161 1_665
O2 Rh1 2.029166 1_655
O3 Zn1 1.976070 1_555
O3 Rh0 2.029162 1_656
O3 Rh2 2.029166 1_655
O4 Zn0 1.976070 1_555
O4 Rh0 2.029161 1_556
O4 Rh1 2.029166 1_556
O5 Zn0 1.976070 1_555
O5 Rh0 2.029162 1_565
O5 Rh2 2.029166 1_565
O6 Zn1 1.976075 1_555
O6 Rh2 2.029162 1_665
O6 Rh1 2.029162 1_656
O7 Zn0 1.996055 1_555
O7 Rh0 2.044553 1_655
O7 Rh1 2.044558 1_655
O7 Rh2 2.044558 1_655
