# generated using pymatgen
data_SrSb12Ru3Pt
_symmetry_space_group_name_H-M   'P 1'
_cell_length_a   8.11460303
_cell_length_b   8.13999074
_cell_length_c   8.11460387
_cell_angle_alpha   109.53461287
_cell_angle_beta   109.40775291
_cell_angle_gamma   109.53461290
_symmetry_Int_Tables_number   1
_chemical_formula_structural   SrSb12Ru3Pt
_chemical_formula_sum   'Sr1 Sb12 Ru3 Pt1'
_cell_volume   412.28379222
_cell_formula_units_Z   1
loop_
 _symmetry_equiv_pos_site_id
 _symmetry_equiv_pos_as_xyz
  1  'x, y, z'
loop_
 _atom_site_type_symbol
 _atom_site_label
 _atom_site_symmetry_multiplicity
 _atom_site_fract_x
 _atom_site_fract_y
 _atom_site_fract_z
 _atom_site_occupancy
  Sr  Sr0  1  0.00000000  0.00000000  0.00000000  1
  Sb  Sb0  1  0.15796926  0.81909599  0.66005231  1
  Sb  Sb1  1  0.84203074  0.18090401  0.33994769  1
  Sb  Sb2  1  0.84102735  0.50135896  0.65158196  1
  Sb  Sb3  1  0.15897265  0.49864104  0.34841804  1
  Sb  Sb4  1  0.81055461  0.66033161  0.15897265  1
  Sb  Sb5  1  0.18944539  0.33966839  0.84102735  1
  Sb  Sb6  1  0.50208405  0.66112673  0.84203074  1
  Sb  Sb7  1  0.49791595  0.33887327  0.15796926  1
  Sb  Sb8  1  0.65158196  0.15022300  0.81055461  1
  Sb  Sb9  1  0.34841804  0.84977700  0.18944539  1
  Sb  Sb10  1  0.66005231  0.84095732  0.50208405  1
  Sb  Sb11  1  0.33994769  0.15904268  0.49791595  1
  Ru  Ru0  1  0.00000000  0.00000000  0.50000000  1
  Ru  Ru1  1  0.50000000  0.00000000  0.00000000  1
  Ru  Ru2  1  0.50000000  0.50000000  0.50000000  1
  Pt  Pt0  1  0.00000000  0.50000000  0.00000000  1
loop_
_geom_bond_atom_site_label_1
_geom_bond_atom_site_label_2
_geom_bond_distance
_geom_bond_site_symmetry_2
Sb0 Sb2 2.936623 1_455
Sb0 Sb3 2.969120 1_555
Sb0 Sr0 3.509546 1_566
Sb1 Sb3 2.936623 1_655
Sb1 Sb2 2.969120 1_555
Sb1 Sr0 3.509546 1_655
Sb2 Sr0 3.540150 1_666
Sb3 Sr0 3.540150 1_555
Sb4 Sb6 2.936619 1_554
Sb4 Sb7 2.969125 1_555
Sb4 Sr0 3.540150 1_665
Sb5 Sb7 2.936619 1_556
Sb5 Sb6 2.969125 1_555
Sb5 Sr0 3.540150 1_556
Sb6 Sr0 3.509539 1_666
Sb7 Sr0 3.509539 1_555
Sb8 Sr0 3.540151 1_656
Sb9 Sr0 3.540151 1_565
Sb10 Sb8 2.936613 1_565
Sb10 Sb9 2.969121 1_555
Sb10 Sr0 3.509542 1_666
Sb11 Sb9 2.936613 1_545
Sb11 Sb8 2.969121 1_555
Sb11 Sr0 3.509542 1_555
Ru0 Sb5 2.622851 1_555
Ru0 Sb4 2.622851 1_445
Ru0 Sb1 2.633114 1_455
Ru0 Sb0 2.633114 1_545
Ru0 Sb11 2.634998 1_555
Ru0 Sb10 2.634998 1_445
Ru1 Sb8 2.622852 1_554
Ru1 Sb9 2.622852 1_545
Ru1 Sb7 2.633118 1_555
Ru1 Sb6 2.633118 1_544
Ru1 Sb1 2.634996 1_555
Ru1 Sb0 2.634996 1_544
Ru2 Sb2 2.622852 1_555
Ru2 Sb3 2.622852 1_555
Ru2 Sb10 2.633117 1_555
Ru2 Sb11 2.633117 1_555
Ru2 Sb6 2.634991 1_555
Ru2 Sb7 2.634991 1_555
Pt0 Sb9 2.695241 1_555
Pt0 Sb8 2.695241 1_454
Pt0 Sb4 2.695241 1_455
Pt0 Sb5 2.695241 1_554
Pt0 Sb3 2.695241 1_555
Pt0 Sb2 2.695241 1_454
