# generated using pymatgen
data_TaTi(Be4Re)2
_symmetry_space_group_name_H-M   'P 1'
_cell_length_a   4.44863324
_cell_length_b   4.44863336
_cell_length_c   7.27897855
_cell_angle_alpha   90.00000000
_cell_angle_beta   90.00000000
_cell_angle_gamma   120.00000645
_symmetry_Int_Tables_number   1
_chemical_formula_structural   TaTi(Be4Re)2
_chemical_formula_sum   'Ta1 Ti1 Be8 Re2'
_cell_volume   124.75393692
_cell_formula_units_Z   1
loop_
 _symmetry_equiv_pos_site_id
 _symmetry_equiv_pos_as_xyz
  1  'x, y, z'
loop_
 _atom_site_type_symbol
 _atom_site_label
 _atom_site_symmetry_multiplicity
 _atom_site_fract_x
 _atom_site_fract_y
 _atom_site_fract_z
 _atom_site_occupancy
  Ta  Ta0  1  0.66666700  0.33333300  0.56383353  1
  Ti  Ti0  1  0.33333300  0.66666700  0.06554315  1
  Be  Be0  1  0.00000000  0.00000000  0.99860516  1
  Be  Be1  1  0.00000000  0.00000000  0.49450835  1
  Be  Be2  1  0.82962645  0.65925091  0.24734891  1
  Be  Be3  1  0.16977326  0.83022674  0.75381111  1
  Be  Be4  1  0.66045447  0.83022674  0.75381111  1
  Be  Be5  1  0.34074909  0.17037355  0.24734891  1
  Be  Be6  1  0.82962645  0.17037355  0.24734891  1
  Be  Be7  1  0.16977326  0.33954553  0.75381111  1
  Re  Re0  1  0.66666700  0.33333300  0.93627465  1
  Re  Re1  1  0.33333300  0.66666700  0.43775509  1
loop_
_geom_bond_atom_site_label_1
_geom_bond_atom_site_label_2
_geom_bond_distance
_geom_bond_site_symmetry_2
Be0 Be4 2.210482 1_445
Be0 Be7 2.210482 1_555
Be0 Be3 2.210484 1_545
Be0 Be6 2.236436 1_456
Be0 Be5 2.236440 1_556
Be0 Be2 2.236440 1_446
Be0 Re0 2.608182 1_455
Be0 Re0 2.608185 1_555
Be0 Re0 2.608185 1_445
Be0 Ti0 2.614224 1_546
Be0 Ti0 2.614228 1_446
Be0 Ti0 2.614228 1_556
Be1 Be6 2.227110 1_455
Be1 Be5 2.227114 1_555
Be1 Be2 2.227114 1_445
Be1 Be4 2.296463 1_445
Be1 Be7 2.296463 1_555
Be1 Be3 2.296465 1_545
Be1 Re1 2.601427 1_545
Be1 Re1 2.601431 1_445
Be1 Re1 2.601431 1_555
Be1 Ta0 2.617519 1_455
Be1 Ta0 2.617522 1_555
Be1 Ta0 2.617522 1_445
Be2 Be5 2.174836 1_555
Be2 Be6 2.174836 1_555
Be2 Be5 2.273797 1_665
Be2 Be6 2.273797 1_565
Be2 Ti0 2.588369 1_655
Be2 Ti0 2.588380 1_555
Be2 Re0 2.589151 1_554
Be2 Re1 2.620928 1_655
Be2 Re1 2.620939 1_555
Be2 Ta0 2.623661 1_555
Be3 Be4 2.182861 1_555
Be3 Be7 2.182861 1_555
Be3 Be4 2.265773 1_455
Be3 Be7 2.265773 1_565
Be3 Re0 2.590779 1_455
Be3 Re0 2.590779 1_565
Be3 Ti0 2.595584 1_556
Be3 Ta0 2.619239 1_455
Be3 Ta0 2.619239 1_565
Be3 Re1 2.623143 1_555
Be4 Be7 2.182861 1_555
Be4 Be7 2.265772 1_665
Be4 Re0 2.590779 1_565
Be4 Re0 2.590779 1_555
Be4 Ti0 2.595587 1_556
Be4 Ta0 2.619239 1_565
Be4 Ta0 2.619239 1_555
Be4 Re1 2.623147 1_555
Be5 Be6 2.174836 1_555
Be5 Be6 2.273797 1_455
Be5 Ti0 2.588369 1_545
Be5 Ti0 2.588380 1_555
Be5 Re0 2.589151 1_554
Be5 Re1 2.620928 1_545
Be5 Re1 2.620939 1_555
Be5 Ta0 2.623661 1_555
Be6 Ti0 2.588374 1_655
Be6 Ti0 2.588374 1_545
Be6 Re0 2.589153 1_554
Be6 Re1 2.620933 1_655
Be6 Re1 2.620933 1_545
Be6 Ta0 2.623663 1_555
Be7 Re0 2.590779 1_455
Be7 Re0 2.590779 1_555
Be7 Ti0 2.595587 1_556
Be7 Ta0 2.619239 1_455
Be7 Ta0 2.619239 1_555
Be7 Re1 2.623147 1_555
Re0 Ta0 2.710991 1_555
Re0 Ti0 2.735350 1_656
Re0 Ti0 2.735350 1_546
Re0 Ti0 2.735357 1_556
Re1 Ti0 2.709323 1_555
Re1 Ta0 2.727449 1_455
Re1 Ta0 2.727449 1_565
Re1 Ta0 2.727457 1_555
