# generated using pymatgen
data_Hf16FeMoPt6
_symmetry_space_group_name_H-M   'P 1'
_cell_length_a   8.77819522
_cell_length_b   8.77819655
_cell_length_c   8.77819550
_cell_angle_alpha   59.43891638
_cell_angle_beta   59.43892003
_cell_angle_gamma   59.43891727
_symmetry_Int_Tables_number   1
_chemical_formula_structural   Hf16FeMoPt6
_chemical_formula_sum   'Hf16 Fe1 Mo1 Pt6'
_cell_volume   472.19483119
_cell_formula_units_Z   1
loop_
 _symmetry_equiv_pos_site_id
 _symmetry_equiv_pos_as_xyz
  1  'x, y, z'
loop_
 _atom_site_type_symbol
 _atom_site_label
 _atom_site_symmetry_multiplicity
 _atom_site_fract_x
 _atom_site_fract_y
 _atom_site_fract_z
 _atom_site_occupancy
  Hf  Hf0  1  0.12775028  0.12775028  0.12775028  1
  Hf  Hf1  1  0.67366530  0.10280015  0.10280015  1
  Hf  Hf2  1  0.10280015  0.67366530  0.10280015  1
  Hf  Hf3  1  0.10280015  0.10280015  0.67366530  1
  Hf  Hf4  1  0.68327527  0.31108211  0.68327527  1
  Hf  Hf5  1  0.95276892  0.54933531  0.54933531  1
  Hf  Hf6  1  0.57037454  0.93946272  0.93946272  1
  Hf  Hf7  1  0.93946272  0.57037454  0.93946272  1
  Hf  Hf8  1  0.54933531  0.54933531  0.95276892  1
  Hf  Hf9  1  0.93946272  0.93946272  0.57037454  1
  Hf  Hf10  1  0.68327527  0.68327527  0.31108211  1
  Hf  Hf11  1  0.31108211  0.68327527  0.68327527  1
  Hf  Hf12  1  0.67446381  0.31233493  0.31233493  1
  Hf  Hf13  1  0.31233493  0.31233493  0.67446381  1
  Hf  Hf14  1  0.54933531  0.95276892  0.54933531  1
  Hf  Hf15  1  0.31233493  0.67446381  0.31233493  1
  Fe  Fe0  1  0.89191101  0.89191101  0.89191101  1
  Mo  Mo0  1  0.33083903  0.33083903  0.33083903  1
  Pt  Pt0  1  0.30532909  0.90618613  0.90618613  1
  Pt  Pt1  1  0.90618613  0.30532909  0.90618613  1
  Pt  Pt2  1  0.90618613  0.90618613  0.30532909  1
  Pt  Pt3  1  0.35042706  0.97417576  0.35042706  1
  Pt  Pt4  1  0.35042706  0.35042706  0.97417576  1
  Pt  Pt5  1  0.97417576  0.35042706  0.35042706  1
loop_
_geom_bond_atom_site_label_1
_geom_bond_atom_site_label_2
_geom_bond_distance
_geom_bond_site_symmetry_2
Hf0 Pt1 2.770566 1_454
Hf0 Pt2 2.770567 1_445
Hf0 Pt0 2.770567 1_544
Hf0 Pt3 2.825800 1_545
Hf0 Pt4 2.825800 1_554
Hf0 Pt5 2.825801 1_455
Hf1 Pt2 2.700577 1_545
Hf1 Pt1 2.700577 1_554
Hf1 Pt4 2.922493 1_554
Hf1 Pt3 2.922493 1_545
Hf1 Mo0 2.982193 1_555
Hf2 Pt0 2.700577 1_554
Hf2 Pt2 2.700577 1_455
Hf2 Pt5 2.922493 1_455
Hf2 Pt4 2.922493 1_554
Hf2 Mo0 2.982193 1_555
Hf3 Pt0 2.700577 1_545
Hf3 Pt1 2.700577 1_455
Hf3 Pt5 2.922493 1_455
Hf3 Pt3 2.922493 1_545
Hf3 Mo0 2.982193 1_555
Hf4 Pt4 2.731378 1_555
Hf4 Pt5 2.731378 1_555
Hf5 Pt1 2.707891 1_555
Hf5 Pt2 2.707891 1_555
Hf5 Pt5 2.926720 1_555
Hf5 Mo0 3.027628 1_655
Hf6 Pt0 2.655716 1_555
Hf6 Pt3 3.204909 1_556
Hf6 Pt4 3.204909 1_565
Hf7 Pt1 2.655717 1_555
Hf7 Pt4 3.204908 1_655
Hf7 Pt5 3.204909 1_556
Hf8 Pt1 2.707891 1_555
Hf8 Pt0 2.707891 1_555
Hf8 Pt4 2.926720 1_555
Hf8 Mo0 3.027628 1_556
Hf9 Pt2 2.655716 1_555
Hf9 Pt3 3.204909 1_655
Hf9 Pt5 3.204909 1_565
Hf10 Pt3 2.731378 1_555
Hf10 Pt5 2.731378 1_555
Hf11 Pt3 2.731378 1_555
Hf11 Pt4 2.731378 1_555
Hf12 Mo0 2.860385 1_555
Hf12 Pt5 3.008045 1_555
Hf12 Pt1 3.094091 1_554
Hf12 Pt2 3.094091 1_545
Hf13 Mo0 2.860385 1_555
Hf13 Pt4 3.008045 1_555
Hf13 Pt1 3.094091 1_455
Hf13 Pt0 3.094091 1_545
Hf14 Pt2 2.707891 1_555
Hf14 Pt0 2.707891 1_555
Hf14 Pt3 2.926720 1_555
Hf14 Mo0 3.027628 1_565
Hf15 Mo0 2.860385 1_555
Hf15 Pt3 3.008045 1_555
Hf15 Pt2 3.094091 1_455
Hf15 Pt0 3.094091 1_554
Fe0 Hf6 2.469015 1_555
Fe0 Hf9 2.469015 1_555
Fe0 Hf7 2.469016 1_555
Fe0 Hf2 2.606960 1_656
Fe0 Hf3 2.606960 1_665
Fe0 Hf1 2.606960 1_566
Mo0 Pt5 2.965903 1_455
Mo0 Pt4 2.965904 1_554
Mo0 Pt3 2.965904 1_545
