# generated using pymatgen
data_MnBeIrRu
_symmetry_space_group_name_H-M   'P 1'
_cell_length_a   4.08471782
_cell_length_b   4.08471663
_cell_length_c   4.08471626
_cell_angle_alpha   59.99999498
_cell_angle_beta   60.00000465
_cell_angle_gamma   59.99999804
_symmetry_Int_Tables_number   1
_chemical_formula_structural   MnBeIrRu
_chemical_formula_sum   'Mn1 Be1 Ir1 Ru1'
_cell_volume   48.19154869
_cell_formula_units_Z   1
loop_
 _symmetry_equiv_pos_site_id
 _symmetry_equiv_pos_as_xyz
  1  'x, y, z'
loop_
 _atom_site_type_symbol
 _atom_site_label
 _atom_site_symmetry_multiplicity
 _atom_site_fract_x
 _atom_site_fract_y
 _atom_site_fract_z
 _atom_site_occupancy
  Mn  Mn0  1  0.00000000  0.00000000  0.00000000  1
  Be  Be0  1  0.50000000  0.50000000  0.50000000  1
  Ir  Ir0  1  0.25000000  0.25000000  0.25000000  1
  Ru  Ru0  1  0.75000000  0.75000000  0.75000000  1
loop_
_geom_bond_atom_site_label_1
_geom_bond_atom_site_label_2
_geom_bond_distance
_geom_bond_site_symmetry_2
Mn0 Ru0 2.501368 1_445
Mn0 Ru0 2.501368 1_454
Mn0 Ru0 2.501368 1_444
Mn0 Ru0 2.501369 1_544
Be0 Ir0 2.501368 1_556
Be0 Ru0 2.501368 1_554
Be0 Ru0 2.501368 1_545
Be0 Ir0 2.501368 1_565
Be0 Ru0 2.501368 1_555
Be0 Ir0 2.501368 1_555
Be0 Ir0 2.501369 1_655
Be0 Ru0 2.501369 1_455
Ir0 Mn0 2.501368 1_556
Ir0 Mn0 2.501368 1_565
Ir0 Mn0 2.501368 1_555
Ir0 Mn0 2.501369 1_655
