# generated using pymatgen
data_TiInIr3Se8
_symmetry_space_group_name_H-M   'P 1'
_cell_length_a   7.25954228
_cell_length_b   7.25954276
_cell_length_c   7.25954204
_cell_angle_alpha   63.07607144
_cell_angle_beta   63.07607344
_cell_angle_gamma   63.07606902
_symmetry_Int_Tables_number   1
_chemical_formula_structural   TiInIr3Se8
_chemical_formula_sum   'Ti1 In1 Ir3 Se8'
_cell_volume   288.99189720
_cell_formula_units_Z   1
loop_
 _symmetry_equiv_pos_site_id
 _symmetry_equiv_pos_as_xyz
  1  'x, y, z'
loop_
 _atom_site_type_symbol
 _atom_site_label
 _atom_site_symmetry_multiplicity
 _atom_site_fract_x
 _atom_site_fract_y
 _atom_site_fract_z
 _atom_site_occupancy
  Ti  Ti0  1  0.59099929  0.59099929  0.59099929  1
  In  In0  1  0.01756779  0.01756779  0.01756779  1
  Ir  Ir0  1  0.62612363  0.62612363  0.13868113  1
  Ir  Ir1  1  0.62612363  0.13868113  0.62612363  1
  Ir  Ir2  1  0.13868113  0.62612363  0.62612363  1
  Se  Se0  1  0.36628110  0.36628110  0.87092675  1
  Se  Se1  1  0.36628110  0.87092675  0.36628110  1
  Se  Se2  1  0.87092675  0.36628110  0.36628110  1
  Se  Se3  1  0.38859477  0.38859477  0.38859477  1
  Se  Se4  1  0.85468455  0.85468455  0.43238136  1
  Se  Se5  1  0.85468455  0.43238136  0.85468455  1
  Se  Se6  1  0.43238136  0.85468455  0.85468455  1
  Se  Se7  1  0.86666634  0.86666634  0.86666634  1
loop_
_geom_bond_atom_site_label_1
_geom_bond_atom_site_label_2
_geom_bond_distance
_geom_bond_site_symmetry_2
In0 Se6 2.584858 1_544
In0 Se4 2.584858 1_445
In0 Se5 2.584858 1_454
In0 Se7 2.619273 1_444
Ir0 Se2 2.499457 1_555
Ir0 Se1 2.499457 1_555
Ir0 Se3 2.502952 1_555
Ir0 Se6 2.529123 1_554
Ir0 Se5 2.529123 1_554
Ir0 Se7 2.552247 1_554
Ir1 Se0 2.499457 1_555
Ir1 Se2 2.499458 1_555
Ir1 Se3 2.502951 1_555
Ir1 Se4 2.529123 1_545
Ir1 Se6 2.529123 1_545
Ir1 Se7 2.552247 1_545
Ir2 Se0 2.499457 1_555
Ir2 Se1 2.499458 1_555
Ir2 Se3 2.502951 1_555
Ir2 Se4 2.529123 1_455
Ir2 Se5 2.529123 1_455
Ir2 Se7 2.552247 1_455
Se0 Ti0 2.420303 1_555
Se1 Ti0 2.420302 1_555
Se2 Ti0 2.420303 1_555
Se4 Ti0 2.824995 1_555
Se5 Ti0 2.824995 1_555
Se6 Ti0 2.824995 1_555
