# generated using pymatgen
data_Hf7Zr3(ZnSn3)2
_symmetry_space_group_name_H-M   'P 1'
_cell_length_a   8.60555580
_cell_length_b   8.60555543
_cell_length_c   5.81701989
_cell_angle_alpha   90.00000000
_cell_angle_beta   90.00000000
_cell_angle_gamma   119.99999765
_symmetry_Int_Tables_number   1
_chemical_formula_structural   Hf7Zr3(ZnSn3)2
_chemical_formula_sum   'Hf7 Zr3 Zn2 Sn6'
_cell_volume   373.06887870
_cell_formula_units_Z   1
loop_
 _symmetry_equiv_pos_site_id
 _symmetry_equiv_pos_as_xyz
  1  'x, y, z'
loop_
 _atom_site_type_symbol
 _atom_site_label
 _atom_site_symmetry_multiplicity
 _atom_site_fract_x
 _atom_site_fract_y
 _atom_site_fract_z
 _atom_site_occupancy
  Hf  Hf0  1  0.66666700  0.33333300  0.99912313  1
  Hf  Hf1  1  0.33333300  0.66666700  0.99912313  1
  Hf  Hf2  1  0.33333300  0.66666700  0.50087687  1
  Hf  Hf3  1  0.66666700  0.33333300  0.50087687  1
  Hf  Hf4  1  0.72958803  0.72958803  0.75000000  1
  Hf  Hf5  1  0.27041197  0.00000000  0.75000000  1
  Hf  Hf6  1  0.00000000  0.27041197  0.75000000  1
  Zr  Zr0  1  0.26410961  0.26410961  0.25000000  1
  Zr  Zr1  1  0.73589039  1.00000000  0.25000000  1
  Zr  Zr2  1  1.00000000  0.73589039  0.25000000  1
  Zn  Zn0  1  0.00000000  0.00000000  0.99046147  1
  Zn  Zn1  1  0.00000000  0.00000000  0.50953853  1
  Sn  Sn0  1  0.38464600  0.38464600  0.75000000  1
  Sn  Sn1  1  0.61535400  0.00000000  0.75000000  1
  Sn  Sn2  1  0.00000000  0.61535400  0.75000000  1
  Sn  Sn3  1  0.61236976  0.61236976  0.25000000  1
  Sn  Sn4  1  0.38763024  1.00000000  0.25000000  1
  Sn  Sn5  1  1.00000000  0.38763024  0.25000000  1
loop_
_geom_bond_atom_site_label_1
_geom_bond_atom_site_label_2
_geom_bond_distance
_geom_bond_site_symmetry_2
Hf0 Sn5 3.039094 1_556
Hf0 Sn4 3.039097 1_546
Hf0 Sn3 3.039102 1_556
Hf0 Sn1 3.042491 1_555
Hf0 Sn2 3.042494 1_655
Hf0 Sn0 3.042498 1_555
Hf1 Sn4 3.039094 1_556
Hf1 Sn5 3.039097 1_456
Hf1 Sn3 3.039102 1_556
Hf1 Sn2 3.042491 1_555
Hf1 Sn1 3.042494 1_565
Hf1 Sn0 3.042498 1_555
Hf2 Sn4 3.039094 1_555
Hf2 Sn5 3.039097 1_455
Hf2 Sn3 3.039102 1_555
Hf2 Sn2 3.042491 1_555
Hf2 Sn1 3.042494 1_565
Hf2 Sn0 3.042498 1_555
Hf3 Sn5 3.039094 1_555
Hf3 Sn4 3.039097 1_545
Hf3 Sn3 3.039102 1_555
Hf3 Sn1 3.042491 1_555
Hf3 Sn2 3.042494 1_655
Hf3 Sn0 3.042498 1_555
Hf4 Zn0 2.715087 1_665
Hf4 Zn1 2.715087 1_665
Hf4 Sn1 2.944336 1_565
Hf4 Sn2 2.944336 1_655
Hf4 Sn0 2.968418 1_555
Hf4 Sn3 3.078468 1_556
Hf4 Sn3 3.078468 1_555
Hf5 Zn0 2.715087 1_555
Hf5 Zn1 2.715087 1_555
Hf5 Sn0 2.944336 1_555
Hf5 Sn2 2.944336 1_545
Hf5 Sn1 2.968418 1_555
Hf5 Sn4 3.078468 1_546
Hf5 Sn4 3.078468 1_545
Hf6 Zn0 2.715086 1_555
Hf6 Zn1 2.715086 1_555
Hf6 Sn0 2.944337 1_555
Hf6 Sn1 2.944337 1_455
Hf6 Sn2 2.968418 1_555
Hf6 Sn5 3.078468 1_455
Hf6 Sn5 3.078468 1_456
Zn0 Zr2 2.728549 1_446
Zn0 Zr1 2.728550 1_446
Zn0 Zr0 2.728550 1_556
Zn1 Zr2 2.728549 1_445
Zn1 Zr1 2.728550 1_445
Zn1 Zr0 2.728550 1_555
Sn0 Zr0 3.087942 1_555
Sn0 Zr0 3.087942 1_556
Sn1 Zr1 3.087942 1_545
Sn1 Zr1 3.087942 1_546
Sn2 Zr2 3.087942 1_455
Sn2 Zr2 3.087942 1_456
Sn3 Zr1 2.951520 1_555
Sn3 Zr2 2.951520 1_555
Sn3 Zr0 2.996972 1_555
Sn4 Zr0 2.951520 1_565
Sn4 Zr2 2.951520 1_455
Sn4 Zr1 2.996972 1_555
Sn5 Zr0 2.951520 1_655
Sn5 Zr1 2.951520 1_545
Sn5 Zr2 2.996972 1_555
