# generated using pymatgen
data_Hf6Ti2Bi9
_symmetry_space_group_name_H-M   'P 1'
_cell_length_a   10.63407151
_cell_length_b   10.63407151
_cell_length_c   7.56829052
_cell_angle_alpha   90.00000000
_cell_angle_beta   90.00000000
_cell_angle_gamma   90.00000000
_symmetry_Int_Tables_number   1
_chemical_formula_structural   Hf6Ti2Bi9
_chemical_formula_sum   'Hf12 Ti4 Bi18'
_cell_volume   855.84860569
_cell_formula_units_Z   2
loop_
 _symmetry_equiv_pos_site_id
 _symmetry_equiv_pos_as_xyz
  1  'x, y, z'
loop_
 _atom_site_type_symbol
 _atom_site_label
 _atom_site_symmetry_multiplicity
 _atom_site_fract_x
 _atom_site_fract_y
 _atom_site_fract_z
 _atom_site_occupancy
  Hf  Hf0  1  0.25000000  0.25000000  0.08268322  1
  Hf  Hf1  1  0.60313543  0.25000000  0.15413848  1
  Hf  Hf2  1  0.89686457  0.25000000  0.15413848  1
  Hf  Hf3  1  0.25000000  0.60313543  0.15413848  1
  Hf  Hf4  1  0.25000000  0.89686457  0.15413848  1
  Hf  Hf5  1  0.75000000  0.75000000  0.43396191  1
  Hf  Hf6  1  0.25000000  0.25000000  0.56603809  1
  Hf  Hf7  1  0.75000000  0.10313543  0.84586152  1
  Hf  Hf8  1  0.75000000  0.39686457  0.84586152  1
  Hf  Hf9  1  0.10313543  0.75000000  0.84586152  1
  Hf  Hf10  1  0.39686457  0.75000000  0.84586152  1
  Hf  Hf11  1  0.75000000  0.75000000  0.91731678  1
  Ti  Ti0  1  0.00000000  0.00000000  0.00000000  1
  Ti  Ti1  1  0.50000000  0.00000000  0.00000000  1
  Ti  Ti2  1  0.00000000  0.50000000  0.00000000  1
  Ti  Ti3  1  0.50000000  0.50000000  0.00000000  1
  Bi  Bi0  1  0.75000000  0.51775222  0.19130064  1
  Bi  Bi1  1  0.51775222  0.75000000  0.19130064  1
  Bi  Bi2  1  0.98224778  0.75000000  0.19130064  1
  Bi  Bi3  1  0.75000000  0.98224778  0.19130064  1
  Bi  Bi4  1  0.08199554  0.08199554  0.34563679  1
  Bi  Bi5  1  0.41800446  0.08199554  0.34563679  1
  Bi  Bi6  1  0.08199554  0.41800446  0.34563679  1
  Bi  Bi7  1  0.41800446  0.41800446  0.34563679  1
  Bi  Bi8  1  0.75000000  0.25000000  0.49999900  1
  Bi  Bi9  1  0.25000000  0.75000000  0.49999900  1
  Bi  Bi10  1  0.58199554  0.58199554  0.65436321  1
  Bi  Bi11  1  0.91800446  0.58199554  0.65436321  1
  Bi  Bi12  1  0.58199554  0.91800446  0.65436321  1
  Bi  Bi13  1  0.91800446  0.91800446  0.65436321  1
  Bi  Bi14  1  0.25000000  0.01775222  0.80869936  1
  Bi  Bi15  1  0.01775222  0.25000000  0.80869936  1
  Bi  Bi16  1  0.48224878  0.25000000  0.80869936  1
  Bi  Bi17  1  0.25000000  0.48224878  0.80869936  1
loop_
_geom_bond_atom_site_label_1
_geom_bond_atom_site_label_2
_geom_bond_distance
_geom_bond_site_symmetry_2
Hf1 Ti3 3.103458 1_555
Hf1 Ti1 3.103458 1_555
Hf1 Hf2 3.123537 1_555
Hf1 Hf8 3.212746 1_554
Hf1 Hf7 3.212746 1_554
Hf2 Ti2 3.103458 1_655
Hf2 Ti0 3.103458 1_655
Hf2 Hf8 3.212746 1_554
Hf2 Hf7 3.212746 1_554
Hf3 Ti2 3.103458 1_555
Hf3 Ti3 3.103458 1_555
Hf3 Hf4 3.123537 1_555
Hf3 Hf9 3.212746 1_554
Hf4 Ti0 3.103458 1_565
Hf4 Ti1 3.103458 1_565
Hf4 Hf9 3.212746 1_554
Hf7 Ti1 3.103458 1_556
Hf7 Ti0 3.103458 1_656
Hf7 Hf8 3.123537 1_555
Hf8 Ti2 3.103458 1_656
Hf8 Ti3 3.103458 1_556
Hf9 Ti2 3.103458 1_556
Hf9 Ti0 3.103458 1_566
Hf10 Ti1 3.103458 1_566
Hf10 Ti3 3.103458 1_556
Hf10 Hf9 3.123537 1_555
Hf10 Hf4 3.212746 1_556
Hf10 Hf3 3.212746 1_556
Bi0 Hf8 2.913346 1_554
Bi0 Ti3 3.033073 1_555
Bi0 Ti2 3.033073 1_655
Bi0 Hf5 3.077736 1_555
Bi0 Hf11 3.224808 1_554
Bi0 Hf2 3.259650 1_555
Bi0 Hf1 3.259650 1_555
Bi0 Bi2 3.492739 1_555
Bi0 Bi1 3.492739 1_555
Bi0 Bi8 3.683135 1_555
Bi1 Hf10 2.913346 1_554
Bi1 Ti1 3.033073 1_565
Bi1 Ti3 3.033073 1_555
Bi1 Hf5 3.077736 1_555
Bi1 Hf11 3.224808 1_554
Bi1 Hf4 3.259650 1_555
Bi1 Hf3 3.259650 1_555
Bi1 Bi3 3.492739 1_555
Bi1 Bi9 3.683135 1_555
Bi2 Hf9 2.913346 1_654
Bi2 Ti2 3.033073 1_655
Bi2 Ti0 3.033073 1_665
Bi2 Hf5 3.077736 1_555
Bi2 Hf11 3.224808 1_554
Bi2 Hf4 3.259650 1_655
Bi2 Hf3 3.259650 1_655
Bi2 Bi3 3.492739 1_555
Bi2 Bi9 3.683135 1_655
Bi3 Hf7 2.913346 1_564
Bi3 Ti1 3.033073 1_565
Bi3 Ti0 3.033073 1_665
Bi3 Hf5 3.077736 1_555
Bi3 Hf11 3.224808 1_554
Bi3 Hf2 3.259650 1_565
Bi3 Hf1 3.259650 1_565
Bi3 Bi8 3.683135 1_565
Bi4 Ti0 2.891956 1_555
Bi4 Hf6 3.027557 1_555
Bi4 Hf2 3.027889 1_455
Bi4 Hf4 3.027889 1_545
Bi4 Hf0 3.216241 1_555
Bi5 Ti1 2.891956 1_555
Bi5 Hf6 3.027557 1_555
Bi5 Hf4 3.027889 1_545
Bi5 Hf1 3.027889 1_555
Bi5 Hf0 3.216241 1_555
Bi6 Ti2 2.891956 1_555
Bi6 Hf6 3.027557 1_555
Bi6 Hf2 3.027889 1_455
Bi6 Hf3 3.027889 1_555
Bi6 Hf0 3.216241 1_555
Bi7 Ti3 2.891956 1_555
Bi7 Hf6 3.027557 1_555
Bi7 Hf3 3.027889 1_555
Bi7 Hf1 3.027889 1_555
Bi7 Hf0 3.216241 1_555
Bi8 Hf2 3.048083 1_555
Bi8 Hf1 3.048083 1_555
Bi8 Hf8 3.048096 1_555
Bi8 Hf7 3.048096 1_555
Bi9 Hf4 3.048083 1_555
Bi9 Hf3 3.048083 1_555
Bi9 Hf10 3.048096 1_555
Bi9 Hf9 3.048096 1_555
Bi10 Ti3 2.891956 1_556
Bi10 Hf5 3.027557 1_555
Bi10 Hf8 3.027889 1_555
Bi10 Hf10 3.027889 1_555
Bi10 Hf11 3.216241 1_555
Bi10 Bi7 3.397308 1_555
Bi11 Ti2 2.891956 1_656
Bi11 Hf5 3.027557 1_555
Bi11 Hf8 3.027889 1_555
Bi11 Hf9 3.027889 1_655
Bi11 Hf11 3.216241 1_555
Bi11 Bi6 3.397308 1_655
Bi12 Ti1 2.891956 1_566
Bi12 Hf5 3.027557 1_555
Bi12 Hf10 3.027889 1_555
Bi12 Hf7 3.027889 1_565
Bi12 Hf11 3.216241 1_555
Bi12 Bi5 3.397308 1_565
Bi13 Ti0 2.891956 1_666
Bi13 Hf5 3.027557 1_555
Bi13 Hf9 3.027889 1_655
Bi13 Hf7 3.027889 1_565
Bi13 Hf11 3.216241 1_555
Bi13 Bi4 3.397308 1_665
Bi14 Hf4 2.913346 1_546
Bi14 Ti1 3.033073 1_556
Bi14 Ti0 3.033073 1_556
Bi14 Hf6 3.077736 1_555
Bi14 Hf0 3.224808 1_556
Bi14 Hf10 3.259650 1_545
Bi14 Hf9 3.259650 1_545
Bi14 Bi15 3.492739 1_555
Bi14 Bi16 3.492747 1_555
Bi14 Bi9 3.683144 1_545
Bi15 Hf2 2.913346 1_456
Bi15 Ti0 3.033073 1_556
Bi15 Ti2 3.033073 1_556
Bi15 Hf6 3.077736 1_555
Bi15 Hf0 3.224808 1_556
Bi15 Hf8 3.259650 1_455
Bi15 Hf7 3.259650 1_455
Bi15 Bi17 3.492747 1_555
Bi15 Bi8 3.683144 1_455
Bi16 Hf1 2.913341 1_556
Bi16 Ti3 3.033073 1_556
Bi16 Ti1 3.033073 1_556
Bi16 Hf6 3.077745 1_555
Bi16 Hf0 3.224816 1_556
Bi16 Hf8 3.259641 1_555
Bi16 Hf7 3.259641 1_555
Bi16 Bi17 3.492754 1_555
Bi16 Bi8 3.683136 1_555
Bi17 Hf3 2.913341 1_556
Bi17 Ti3 3.033073 1_556
Bi17 Ti2 3.033073 1_556
Bi17 Hf6 3.077745 1_555
Bi17 Hf0 3.224816 1_556
Bi17 Hf10 3.259641 1_555
Bi17 Hf9 3.259641 1_555
Bi17 Bi9 3.683136 1_555
