# generated using pymatgen
data_BaCoP3N5O2
_symmetry_space_group_name_H-M   'P 1'
_cell_length_a   6.70335936
_cell_length_b   7.15429334
_cell_length_c   14.12485439
_cell_angle_alpha   60.38974385
_cell_angle_beta   90.00000000
_cell_angle_gamma   90.00000000
_symmetry_Int_Tables_number   1
_chemical_formula_structural   BaCoP3N5O2
_chemical_formula_sum   'Ba4 Co4 P12 N20 O8'
_cell_volume   588.93329289
_cell_formula_units_Z   4
loop_
 _symmetry_equiv_pos_site_id
 _symmetry_equiv_pos_as_xyz
  1  'x, y, z'
loop_
 _atom_site_type_symbol
 _atom_site_label
 _atom_site_symmetry_multiplicity
 _atom_site_fract_x
 _atom_site_fract_y
 _atom_site_fract_z
 _atom_site_occupancy
  Ba  Ba0  1  0.75867426  0.49628136  0.61472408  1
  Ba  Ba1  1  0.25867426  0.50371864  0.88527592  1
  Ba  Ba2  1  0.24132574  0.50371864  0.38527592  1
  Ba  Ba3  1  0.74132574  0.49628136  0.11472408  1
  Co  Co0  1  0.51270949  0.99591987  0.87646300  1
  Co  Co1  1  0.01270949  0.00408013  0.62353700  1
  Co  Co2  1  0.48729051  0.00408013  0.12353700  1
  Co  Co3  1  0.98729051  0.99591987  0.37646300  1
  P  P0  1  0.00915886  0.96188354  0.87379726  1
  P  P1  1  0.50915886  0.03811646  0.62620274  1
  P  P2  1  0.99084114  0.03811646  0.12620274  1
  P  P3  1  0.49084114  0.96188354  0.37379726  1
  P  P4  1  0.28666944  0.73825659  0.58327822  1
  P  P5  1  0.78666944  0.26174341  0.91672178  1
  P  P6  1  0.71333056  0.26174341  0.41672178  1
  P  P7  1  0.21333056  0.73825659  0.08327822  1
  P  P8  1  0.76765252  0.73116546  0.79406585  1
  P  P9  1  0.26765252  0.26883454  0.70593415  1
  P  P10  1  0.23234748  0.26883454  0.20593415  1
  P  P11  1  0.73234748  0.73116546  0.29406585  1
  N  N0  1  0.30443645  0.91313181  0.62597148  1
  N  N1  1  0.80443645  0.08686819  0.87402852  1
  N  N2  1  0.69556355  0.08686819  0.37402852  1
  N  N3  1  0.19556355  0.91313181  0.12597148  1
  N  N4  1  0.70115545  0.87837355  0.66648872  1
  N  N5  1  0.20115545  0.12162645  0.83351128  1
  N  N6  1  0.29884455  0.12162645  0.33351128  1
  N  N7  1  0.79884455  0.87837355  0.16648872  1
  N  N8  1  0.97116349  0.85824777  0.79505768  1
  N  N9  1  0.47116349  0.14175223  0.70494232  1
  N  N10  1  0.02883651  0.14175223  0.20494232  1
  N  N11  1  0.52883651  0.85824777  0.29505768  1
  N  N12  1  0.82061992  0.49655831  0.81184324  1
  N  N13  1  0.32061992  0.50344169  0.68815676  1
  N  N14  1  0.17938008  0.50344169  0.18815676  1
  N  N15  1  0.67938008  0.49655831  0.31184324  1
  N  N16  1  0.55505144  0.23840611  0.50705636  1
  N  N17  1  0.05505144  0.76159389  0.99294364  1
  N  N18  1  0.44494856  0.76159389  0.49294364  1
  N  N19  1  0.94494856  0.23840611  0.00705636  1
  O  O0  1  0.06990265  0.77500565  0.53818099  1
  O  O1  1  0.56990265  0.22499435  0.96181901  1
  O  O2  1  0.93009735  0.22499435  0.46181901  1
  O  O3  1  0.43009735  0.77500565  0.03818099  1
  O  O4  1  0.61210537  0.71438065  0.87796918  1
  O  O5  1  0.11210537  0.28561935  0.62203082  1
  O  O6  1  0.38789463  0.28561935  0.12203082  1
  O  O7  1  0.88789463  0.71438065  0.37796918  1
loop_
_geom_bond_atom_site_label_1
_geom_bond_atom_site_label_2
_geom_bond_distance
_geom_bond_site_symmetry_2
Ba0 O0 2.714282 1_655
Ba0 O5 2.782337 1_655
Ba0 N18 2.785305 1_555
Ba0 N12 2.816043 1_555
Ba0 N9 2.928762 1_555
Ba0 O7 3.035094 1_555
Ba0 N13 3.123079 1_555
Ba0 N4 3.182917 1_555
Ba0 N16 3.217489 1_555
Ba0 N1 3.389244 1_555
Ba1 O1 2.714282 1_555
Ba1 O4 2.782337 1_555
Ba1 N19 2.785305 1_456
Ba1 N13 2.816043 1_555
Ba1 N8 2.928762 1_455
Ba1 O6 3.035094 1_556
Ba1 N12 3.123079 1_455
Ba1 N5 3.182917 1_555
Ba1 N17 3.217489 1_555
Ba1 N0 3.389244 1_555
Ba2 O2 2.714282 1_455
Ba2 O7 2.782337 1_455
Ba2 N16 2.785305 1_555
Ba2 N14 2.816043 1_555
Ba2 N11 2.928762 1_555
Ba2 O5 3.035094 1_555
Ba2 N15 3.123079 1_555
Ba2 N6 3.182917 1_555
Ba2 N18 3.217489 1_555
Ba2 N3 3.389244 1_555
Ba3 O3 2.714282 1_555
Ba3 O6 2.782337 1_555
Ba3 N17 2.785305 1_654
Ba3 N15 2.816043 1_555
Ba3 N10 2.928762 1_655
Ba3 O4 3.035094 1_554
Ba3 N14 3.123079 1_655
Ba3 N7 3.182917 1_555
Ba3 N19 3.217489 1_555
Ba3 N2 3.389244 1_555
Co0 N1 2.055875 1_565
Co0 O3 2.110634 1_556
Co0 O4 2.111659 1_555
Co0 N9 2.130201 1_565
Co0 N5 2.235926 1_565
Co0 O1 2.497798 1_565
Co1 N0 2.055875 1_545
Co1 O2 2.110634 1_455
Co1 O5 2.111659 1_555
Co1 N8 2.130201 1_445
Co1 N4 2.235926 1_445
Co1 O0 2.497798 1_545
Co2 N3 2.055875 1_545
Co2 O1 2.110634 1_554
Co2 O6 2.111659 1_555
Co2 N11 2.130201 1_545
Co2 N7 2.235926 1_545
Co2 O3 2.497798 1_545
Co3 N2 2.055875 1_565
Co3 O0 2.110634 1_655
Co3 O7 2.111659 1_555
Co3 N10 2.130201 1_665
Co3 N6 2.235926 1_665
Co3 O2 2.497798 1_565
N0 P1 1.638821 1_565
N0 P4 1.639716 1_555
N1 P0 1.638821 1_645
N1 P5 1.639716 1_555
N2 P3 1.638821 1_545
N2 P6 1.639716 1_555
N3 P2 1.638821 1_465
N3 P7 1.639716 1_555
N4 P1 1.625941 1_565
N4 P8 1.636973 1_555
N5 P0 1.625941 1_545
N5 P9 1.636973 1_555
N6 P3 1.625941 1_545
N6 P10 1.636973 1_555
N7 P2 1.625941 1_565
N7 P11 1.636973 1_555
N8 P0 1.632925 1_655
N8 P8 1.643308 1_555
N9 P1 1.632925 1_555
N9 P9 1.643308 1_555
N10 P2 1.632925 1_455
N10 P10 1.643308 1_555
N11 P3 1.632925 1_555
N11 P11 1.643308 1_555
N12 P8 1.609292 1_555
N12 P5 1.615313 1_555
N13 P9 1.609292 1_555
N13 P4 1.615313 1_555
N14 P10 1.609292 1_555
N14 P7 1.615313 1_555
N15 P11 1.609292 1_555
N15 P6 1.615313 1_555
N16 P6 1.603484 1_555
N16 P1 1.611558 1_555
N17 P7 1.603484 1_556
N17 P0 1.611558 1_555
N18 P4 1.603484 1_555
N18 P3 1.611558 1_555
N19 P5 1.603484 1_554
N19 P2 1.611558 1_555
O0 P4 1.555887 1_555
O1 P5 1.555887 1_555
O2 P6 1.555887 1_555
O3 P7 1.555887 1_555
O4 P8 1.538018 1_555
O5 P9 1.538018 1_555
O6 P10 1.538018 1_555
O7 P11 1.538018 1_555
