# generated using pymatgen
data_NaSr4Bi2As
_symmetry_space_group_name_H-M   'P 1'
_cell_length_a   8.62079128
_cell_length_b   9.90032389
_cell_length_c   13.27995832
_cell_angle_alpha   90.00000000
_cell_angle_beta   90.00000000
_cell_angle_gamma   90.00000000
_symmetry_Int_Tables_number   1
_chemical_formula_structural   NaSr4Bi2As
_chemical_formula_sum   'Na4 Sr16 Bi8 As4'
_cell_volume   1133.42619432
_cell_formula_units_Z   4
loop_
 _symmetry_equiv_pos_site_id
 _symmetry_equiv_pos_as_xyz
  1  'x, y, z'
loop_
 _atom_site_type_symbol
 _atom_site_label
 _atom_site_symmetry_multiplicity
 _atom_site_fract_x
 _atom_site_fract_y
 _atom_site_fract_z
 _atom_site_occupancy
  Na  Na0  1  0.00745816  0.75000000  0.50031751  1
  Na  Na1  1  0.99254184  0.25000000  0.49968249  1
  Na  Na2  1  0.50745816  0.25000000  0.99968249  1
  Na  Na3  1  0.49254184  0.75000000  0.00031751  1
  Sr  Sr0  1  0.84751948  0.75000000  0.79494892  1
  Sr  Sr1  1  0.15248052  0.25000000  0.20505108  1
  Sr  Sr2  1  0.34751948  0.25000000  0.70505108  1
  Sr  Sr3  1  0.65248052  0.75000000  0.29494892  1
  Sr  Sr4  1  0.69996899  0.50304567  0.56215269  1
  Sr  Sr5  1  0.30003101  0.49695433  0.43784731  1
  Sr  Sr6  1  0.19996899  0.49695433  0.93784731  1
  Sr  Sr7  1  0.30003101  0.00304567  0.43784731  1
  Sr  Sr8  1  0.80003101  0.50304567  0.06215269  1
  Sr  Sr9  1  0.69996899  0.99695433  0.56215269  1
  Sr  Sr10  1  0.80003101  0.99695433  0.06215269  1
  Sr  Sr11  1  0.19996899  0.00304567  0.93784731  1
  Sr  Sr12  1  0.34431417  0.75000000  0.70666658  1
  Sr  Sr13  1  0.65568583  0.25000000  0.29333342  1
  Sr  Sr14  1  0.84431417  0.25000000  0.79333342  1
  Sr  Sr15  1  0.15568583  0.75000000  0.20666658  1
  Bi  Bi0  1  0.56572651  0.50106026  0.82982769  1
  Bi  Bi1  1  0.43427349  0.49893974  0.17017231  1
  Bi  Bi2  1  0.06572651  0.49893974  0.67017231  1
  Bi  Bi3  1  0.43427349  0.00106026  0.17017231  1
  Bi  Bi4  1  0.93427349  0.50106026  0.32982769  1
  Bi  Bi5  1  0.56572651  0.99893974  0.82982769  1
  Bi  Bi6  1  0.93427349  0.99893974  0.32982769  1
  Bi  Bi7  1  0.06572651  0.00106026  0.67017231  1
  As  As0  1  0.00589815  0.75000000  0.99932858  1
  As  As1  1  0.99410185  0.25000000  0.00067142  1
  As  As2  1  0.50589815  0.25000000  0.50067142  1
  As  As3  1  0.49410185  0.75000000  0.49932858  1
loop_
_geom_bond_atom_site_label_1
_geom_bond_atom_site_label_2
_geom_bond_distance
_geom_bond_site_symmetry_2
Bi0 Na2 3.393884 1_555
Bi0 Na3 3.405636 1_556
Bi0 Sr6 3.464331 1_555
Bi0 Sr14 3.490112 1_555
Bi0 Sr0 3.491434 1_555
Bi0 Sr12 3.520313 1_555
Bi0 Sr2 3.530218 1_555
Bi0 Sr8 3.687711 1_556
Bi0 Sr4 3.738403 1_555
Bi1 Na3 3.393884 1_555
Bi1 Na2 3.405636 1_554
Bi1 Sr8 3.464331 1_555
Bi1 Sr15 3.490112 1_555
Bi1 Sr1 3.491434 1_555
Bi1 Sr13 3.520313 1_555
Bi1 Sr3 3.530218 1_555
Bi1 Sr6 3.687711 1_554
Bi1 Sr5 3.738403 1_555
Bi2 Na0 3.393884 1_555
Bi2 Na1 3.405636 1_455
Bi2 Sr4 3.464331 1_455
Bi2 Sr12 3.490112 1_555
Bi2 Sr2 3.491434 1_555
Bi2 Sr14 3.520313 1_455
Bi2 Sr0 3.530218 1_455
Bi2 Sr5 3.687711 1_555
Bi2 Sr6 3.738403 1_555
Bi3 Na3 3.393884 1_545
Bi3 Na2 3.405636 1_554
Bi3 Sr10 3.464331 1_545
Bi3 Sr15 3.490112 1_545
Bi3 Sr1 3.491434 1_555
Bi3 Sr13 3.520313 1_555
Bi3 Sr3 3.530218 1_545
Bi3 Sr11 3.687711 1_554
Bi3 Sr7 3.738403 1_555
Bi4 Na1 3.393884 1_555
Bi4 Na0 3.405636 1_655
Bi4 Sr5 3.464331 1_655
Bi4 Sr13 3.490112 1_555
Bi4 Sr3 3.491434 1_555
Bi4 Sr15 3.520313 1_655
Bi4 Sr1 3.530218 1_655
Bi4 Sr4 3.687711 1_555
Bi4 Sr8 3.738403 1_555
Bi5 Na2 3.393884 1_565
Bi5 Na3 3.405636 1_556
Bi5 Sr11 3.464331 1_565
Bi5 Sr14 3.490112 1_565
Bi5 Sr0 3.491434 1_555
Bi5 Sr12 3.520313 1_555
Bi5 Sr2 3.530218 1_565
Bi5 Sr10 3.687711 1_556
Bi5 Sr9 3.738403 1_555
Bi6 Na1 3.393884 1_565
Bi6 Na0 3.405636 1_655
Bi6 Sr7 3.464331 1_665
Bi6 Sr13 3.490112 1_565
Bi6 Sr3 3.491434 1_555
Bi6 Sr15 3.520313 1_655
Bi6 Sr1 3.530218 1_665
Bi6 Sr9 3.687711 1_555
Bi6 Sr10 3.738403 1_555
Bi7 Na0 3.393884 1_545
Bi7 Na1 3.405636 1_455
Bi7 Sr9 3.464331 1_445
Bi7 Sr12 3.490112 1_545
Bi7 Sr2 3.491434 1_555
Bi7 Sr14 3.520313 1_455
Bi7 Sr0 3.530218 1_445
Bi7 Sr7 3.687711 1_555
Bi7 Sr11 3.738403 1_555
As0 Sr0 3.038224 1_455
As0 Sr15 3.041193 1_556
As0 Sr11 3.121201 1_565
As0 Sr6 3.121201 1_555
As0 Sr10 3.134234 1_456
As0 Sr8 3.134234 1_456
As1 Sr1 3.038224 1_655
As1 Sr14 3.041193 1_554
As1 Sr8 3.121201 1_555
As1 Sr10 3.121201 1_545
As1 Sr6 3.134234 1_654
As1 Sr11 3.134234 1_654
As2 Sr2 3.038224 1_555
As2 Sr13 3.041193 1_555
As2 Sr4 3.121201 1_555
As2 Sr9 3.121201 1_545
As2 Sr5 3.134234 1_555
As2 Sr7 3.134234 1_555
As3 Sr3 3.038224 1_555
As3 Sr12 3.041193 1_555
As3 Sr7 3.121201 1_565
As3 Sr5 3.121201 1_555
As3 Sr9 3.134234 1_555
As3 Sr4 3.134234 1_555
