# generated using pymatgen
data_Lu(Zr3Sn2)3
_symmetry_space_group_name_H-M   'P 1'
_cell_length_a   8.56346648
_cell_length_b   8.50624692
_cell_length_c   5.83696830
_cell_angle_alpha   90.00000000
_cell_angle_beta   90.00000000
_cell_angle_gamma   119.77921542
_symmetry_Int_Tables_number   1
_chemical_formula_structural   Lu(Zr3Sn2)3
_chemical_formula_sum   'Lu1 Zr9 Sn6'
_cell_volume   369.03492323
_cell_formula_units_Z   1
loop_
 _symmetry_equiv_pos_site_id
 _symmetry_equiv_pos_as_xyz
  1  'x, y, z'
loop_
 _atom_site_type_symbol
 _atom_site_label
 _atom_site_symmetry_multiplicity
 _atom_site_fract_x
 _atom_site_fract_y
 _atom_site_fract_z
 _atom_site_occupancy
  Lu  Lu0  1  1.00000000  0.76065294  0.25000000  1
  Zr  Zr0  1  0.66723532  0.33249021  0.99921360  1
  Zr  Zr1  1  0.33276468  0.66525589  0.99921360  1
  Zr  Zr2  1  0.33276468  0.66525589  0.50078640  1
  Zr  Zr3  1  0.66723532  0.33249021  0.50078640  1
  Zr  Zr4  1  0.74908755  0.74843459  0.75000000  1
  Zr  Zr5  1  0.25091245  0.99934704  0.75000000  1
  Zr  Zr6  1  0.00000000  0.24516029  0.75000000  1
  Zr  Zr7  1  0.25019604  0.25186745  0.25000000  1
  Zr  Zr8  1  0.74980396  0.00167040  0.25000000  1
  Sn  Sn0  1  0.39017737  0.38937582  0.75000000  1
  Sn  Sn1  1  0.60982263  0.99919945  0.75000000  1
  Sn  Sn2  1  1.00000000  0.60820738  0.75000000  1
  Sn  Sn3  1  0.60652402  0.60784063  0.25000000  1
  Sn  Sn4  1  0.39347598  0.00131661  0.25000000  1
  Sn  Sn5  1  0.00000000  0.39143422  0.25000000  1
loop_
_geom_bond_atom_site_label_1
_geom_bond_atom_site_label_2
_geom_bond_distance
_geom_bond_site_symmetry_2
Lu0 Sn4 2.948331 1_665
Lu0 Sn3 2.948331 1_555
Lu0 Sn5 3.140666 1_655
Lu0 Sn2 3.193600 1_554
Lu0 Sn2 3.193600 1_555
Sn0 Zr5 2.915319 1_545
Sn0 Zr6 2.932150 1_555
Sn0 Zr1 3.001800 1_555
Sn0 Zr2 3.001800 1_555
Sn0 Zr0 3.019876 1_555
Sn0 Zr3 3.019876 1_555
Sn0 Zr4 3.074143 1_555
Sn0 Zr7 3.151172 1_556
Sn0 Zr7 3.151172 1_555
Sn1 Zr4 2.915327 1_555
Sn1 Zr6 2.932149 1_665
Sn1 Zr0 3.001786 1_565
Sn1 Zr3 3.001786 1_565
Sn1 Zr1 3.019876 1_555
Sn1 Zr2 3.019876 1_555
Sn1 Zr5 3.074139 1_555
Sn1 Zr8 3.151176 1_566
Sn1 Zr8 3.151176 1_565
Sn2 Zr5 2.930094 1_655
Sn2 Zr4 2.930094 1_555
Sn2 Zr1 3.016328 1_655
Sn2 Zr2 3.016328 1_655
Sn2 Zr0 3.016331 1_555
Sn2 Zr3 3.016331 1_555
Sn2 Zr6 3.088168 1_655
Sn3 Zr8 2.940262 1_565
Sn3 Zr2 3.002416 1_555
Sn3 Zr1 3.002416 1_554
Sn3 Zr3 3.018040 1_555
Sn3 Zr0 3.018040 1_554
Sn3 Zr7 3.049905 1_555
Sn3 Zr4 3.160373 1_555
Sn3 Zr4 3.160373 1_554
Sn4 Zr7 2.940270 1_555
Sn4 Zr3 3.002411 1_555
Sn4 Zr0 3.002411 1_554
Sn4 Zr2 3.018033 1_545
Sn4 Zr1 3.018033 1_544
Sn4 Zr8 3.049909 1_555
Sn4 Zr5 3.160373 1_545
Sn4 Zr5 3.160373 1_544
Sn5 Zr7 2.920022 1_555
Sn5 Zr8 2.920029 1_455
Sn5 Zr3 3.015841 1_455
Sn5 Zr0 3.015841 1_454
Sn5 Zr2 3.015844 1_555
Sn5 Zr1 3.015844 1_554
Sn5 Zr6 3.172647 1_554
Sn5 Zr6 3.172647 1_555
