# generated using pymatgen
data_Zr6FeBr15
_symmetry_space_group_name_H-M   'P 1'
_cell_length_a   9.32843834
_cell_length_b   9.32843946
_cell_length_c   9.32843897
_cell_angle_alpha   109.47121750
_cell_angle_beta   109.47121993
_cell_angle_gamma   109.47122185
_symmetry_Int_Tables_number   1
_chemical_formula_structural   Zr6FeBr15
_chemical_formula_sum   'Zr6 Fe1 Br15'
_cell_volume   624.89210941
_cell_formula_units_Z   1
loop_
 _symmetry_equiv_pos_site_id
 _symmetry_equiv_pos_as_xyz
  1  'x, y, z'
loop_
 _atom_site_type_symbol
 _atom_site_label
 _atom_site_symmetry_multiplicity
 _atom_site_fract_x
 _atom_site_fract_y
 _atom_site_fract_z
 _atom_site_occupancy
  Zr  Zr0  1  0.23095182  0.00000000  0.23095182  1
  Zr  Zr1  1  0.23095182  0.23095182  1.00000000  1
  Zr  Zr2  1  0.76904818  1.00000000  0.76904818  1
  Zr  Zr3  1  1.00000000  0.23095182  0.23095182  1
  Zr  Zr4  1  0.00000000  0.76904818  0.76904818  1
  Zr  Zr5  1  0.76904818  0.76904818  0.00000000  1
  Fe  Fe0  1  0.00000000  0.00000000  0.00000000  1
  Br  Br0  1  0.00000000  0.75134564  0.24865436  1
  Br  Br1  1  0.24865436  0.75134564  0.00000000  1
  Br  Br2  1  0.50269127  0.75134564  0.75134564  1
  Br  Br3  1  1.00000000  0.24865436  0.75134564  1
  Br  Br4  1  0.75134564  1.00000000  0.24865436  1
  Br  Br5  1  0.24865436  0.49730873  0.24865436  1
  Br  Br6  1  0.75134564  0.24865436  1.00000000  1
  Br  Br7  1  0.50000000  0.50000000  0.00000000  1
  Br  Br8  1  0.24865436  0.24865436  0.49730873  1
  Br  Br9  1  0.75134564  0.50269127  0.75134564  1
  Br  Br10  1  0.75134564  0.75134564  0.50269127  1
  Br  Br11  1  0.49730873  0.24865436  0.24865436  1
  Br  Br12  1  0.24865436  0.00000000  0.75134564  1
  Br  Br13  1  0.00000000  0.50000000  0.50000000  1
  Br  Br14  1  0.50000000  0.00000000  0.50000000  1
loop_
_geom_bond_atom_site_label_1
_geom_bond_atom_site_label_2
_geom_bond_distance
_geom_bond_site_symmetry_2
Fe0 Zr0 2.487710 1_555
Fe0 Zr2 2.487710 1_444
Fe0 Zr1 2.487710 1_554
Fe0 Zr5 2.487710 1_445
Fe0 Zr3 2.487710 1_455
Fe0 Zr4 2.487710 1_544
Br0 Zr5 2.685173 1_455
Br0 Zr0 2.685173 1_565
Br1 Zr4 2.685173 1_554
Br1 Zr0 2.685173 1_565
Br2 Zr5 2.685173 1_556
Br2 Zr2 2.685173 1_555
Br3 Zr1 2.685173 1_655
Br3 Zr2 2.685173 1_545
Br4 Zr3 2.685173 1_565
Br4 Zr5 2.685173 1_555
Br5 Zr3 2.685173 1_455
Br5 Zr1 2.685173 1_554
Br6 Zr3 2.685173 1_556
Br6 Zr2 2.685173 1_545
Br7 Zr5 2.898067 1_555
Br7 Zr1 2.898067 1_554
Br8 Zr3 2.685173 1_455
Br8 Zr0 2.685173 1_555
Br9 Zr4 2.685173 1_655
Br9 Zr5 2.685173 1_556
Br10 Zr4 2.685173 1_655
Br10 Zr2 2.685173 1_555
Br11 Zr1 2.685173 1_554
Br11 Zr0 2.685173 1_555
Br12 Zr4 2.685173 1_545
Br12 Zr1 2.685173 1_555
Br13 Zr4 2.898067 1_555
Br13 Zr3 2.898067 1_455
Br14 Zr2 2.898067 1_545
Br14 Zr0 2.898067 1_555
