# generated using pymatgen
data_Hf16PdPt7N4
_symmetry_space_group_name_H-M   'P 1'
_cell_length_a   8.72278022
_cell_length_b   8.72278028
_cell_length_c   8.72278028
_cell_angle_alpha   60.03600313
_cell_angle_beta   60.03600271
_cell_angle_gamma   60.03600062
_symmetry_Int_Tables_number   1
_chemical_formula_structural   Hf16PdPt7N4
_chemical_formula_sum   'Hf16 Pd1 Pt7 N4'
_cell_volume   469.68216524
_cell_formula_units_Z   1
loop_
 _symmetry_equiv_pos_site_id
 _symmetry_equiv_pos_as_xyz
  1  'x, y, z'
loop_
 _atom_site_type_symbol
 _atom_site_label
 _atom_site_symmetry_multiplicity
 _atom_site_fract_x
 _atom_site_fract_y
 _atom_site_fract_z
 _atom_site_occupancy
  Hf  Hf0  1  0.12560168  0.62490501  0.62490501  1
  Hf  Hf1  1  0.62490501  0.12560168  0.62490501  1
  Hf  Hf2  1  0.62490501  0.62490501  0.12560168  1
  Hf  Hf3  1  0.62516171  0.62516171  0.62516171  1
  Hf  Hf4  1  0.81707662  0.81707662  0.18316601  1
  Hf  Hf5  1  0.18297699  0.18297699  0.81704860  1
  Hf  Hf6  1  0.81707662  0.18316601  0.81707662  1
  Hf  Hf7  1  0.18297699  0.81704860  0.18297699  1
  Hf  Hf8  1  0.18316601  0.81707662  0.81707662  1
  Hf  Hf9  1  0.81704860  0.18297699  0.18297699  1
  Hf  Hf10  1  0.43319110  0.43319110  0.06718468  1
  Hf  Hf11  1  0.06759325  0.06759325  0.43263282  1
  Hf  Hf12  1  0.43319110  0.06718468  0.43319110  1
  Hf  Hf13  1  0.06759325  0.43263282  0.06759325  1
  Hf  Hf14  1  0.06718468  0.43319110  0.43319110  1
  Hf  Hf15  1  0.43263282  0.06759325  0.06759325  1
  Pd  Pd0  1  0.84216167  0.84216167  0.84216167  1
  Pt  Pt0  1  0.78382589  0.40538071  0.40538071  1
  Pt  Pt1  1  0.40538071  0.78382589  0.40538071  1
  Pt  Pt2  1  0.40538071  0.40538071  0.78382589  1
  Pt  Pt3  1  0.40575206  0.40575206  0.40575206  1
  Pt  Pt4  1  0.46670800  0.84452408  0.84452408  1
  Pt  Pt5  1  0.84452408  0.46670800  0.84452408  1
  Pt  Pt6  1  0.84452408  0.84452408  0.46670800  1
  N  N0  1  0.62498178  0.12492053  0.12492053  1
  N  N1  1  0.12492053  0.62498178  0.12492053  1
  N  N2  1  0.12492053  0.12492053  0.62498178  1
  N  N3  1  0.12463952  0.12463952  0.12463952  1
loop_
_geom_bond_atom_site_label_1
_geom_bond_atom_site_label_2
_geom_bond_distance
_geom_bond_site_symmetry_2
Hf0 Pd0 2.742671 1_455
Hf0 Pt3 2.756428 1_555
Hf0 Pt2 2.757515 1_555
Hf0 Pt1 2.757516 1_555
Hf0 Pt6 2.762693 1_455
Hf0 Pt5 2.762694 1_455
Hf1 Pd0 2.742671 1_545
Hf1 Pt3 2.756428 1_555
Hf1 Pt2 2.757515 1_555
Hf1 Pt0 2.757516 1_555
Hf1 Pt6 2.762693 1_545
Hf1 Pt4 2.762694 1_545
Hf2 Pd0 2.742671 1_554
Hf2 Pt3 2.756428 1_555
Hf2 Pt1 2.757515 1_555
Hf2 Pt0 2.757515 1_555
Hf2 Pt5 2.762693 1_554
Hf2 Pt4 2.762694 1_554
Hf3 Pt4 2.758011 1_555
Hf3 Pt5 2.758011 1_555
Hf3 Pt6 2.758011 1_555
Hf3 Pt0 2.763428 1_555
Hf3 Pt1 2.763428 1_555
Hf3 Pt2 2.763428 1_555
Hf4 N1 2.295524 1_655
Hf4 N0 2.295525 1_565
Hf4 Pt6 2.733495 1_555
Hf4 Pd0 2.773261 1_554
Hf4 Pt1 3.203609 1_555
Hf4 Pt0 3.203609 1_555
Hf5 N3 2.290775 1_556
Hf5 N2 2.295845 1_555
Hf5 Pt5 2.735974 1_455
Hf5 Pt4 2.735974 1_545
Hf5 Pt2 3.201136 1_555
Hf5 Pt3 3.204281 1_555
Hf6 N2 2.295525 1_655
Hf6 N0 2.295525 1_556
Hf6 Pt5 2.733495 1_555
Hf6 Pd0 2.773260 1_545
Hf6 Pt2 3.203609 1_555
Hf6 Pt0 3.203609 1_555
Hf7 N3 2.290775 1_565
Hf7 N1 2.295845 1_555
Hf7 Pt6 2.735974 1_455
Hf7 Pt4 2.735974 1_554
Hf7 Pt1 3.201136 1_555
Hf7 Pt3 3.204281 1_555
Hf8 N2 2.295525 1_565
Hf8 N1 2.295525 1_556
Hf8 Pt4 2.733495 1_555
Hf8 Pd0 2.773260 1_455
Hf8 Pt2 3.203609 1_555
Hf8 Pt1 3.203609 1_555
Hf9 N3 2.290775 1_655
Hf9 N0 2.295845 1_555
Hf9 Pt6 2.735974 1_545
Hf9 Pt5 2.735974 1_554
Hf9 Pt0 3.201136 1_555
Hf9 Pt3 3.204281 1_555
Hf10 N1 2.297439 1_555
Hf10 N0 2.297439 1_555
Hf10 Pt3 2.735201 1_555
Hf10 Pt2 2.735605 1_554
Hf11 N2 2.289351 1_555
Hf11 N3 2.299866 1_555
Hf11 Pt1 2.732719 1_545
Hf11 Pt0 2.732719 1_455
Hf12 N2 2.297439 1_555
Hf12 N0 2.297439 1_555
Hf12 Pt3 2.735201 1_555
Hf12 Pt1 2.735605 1_545
Hf13 N1 2.289351 1_555
Hf13 N3 2.299866 1_555
Hf13 Pt2 2.732719 1_554
Hf13 Pt0 2.732719 1_455
Hf14 N2 2.297439 1_555
Hf14 N1 2.297439 1_555
Hf14 Pt3 2.735201 1_555
Hf14 Pt0 2.735605 1_455
Hf15 N0 2.289351 1_555
Hf15 N3 2.299866 1_555
Hf15 Pt2 2.732719 1_554
Hf15 Pt1 2.732719 1_545
