# generated using pymatgen
data_Ta5Mn6B6Mo
_symmetry_space_group_name_H-M   'P 1'
_cell_length_a   6.79764590
_cell_length_b   6.80671164
_cell_length_c   6.79764453
_cell_angle_alpha   126.92445221
_cell_angle_beta   126.80624676
_cell_angle_gamma   78.43928444
_symmetry_Int_Tables_number   1
_chemical_formula_structural   Ta5Mn6B6Mo
_chemical_formula_sum   'Ta5 Mn6 B6 Mo1'
_cell_volume   194.96724645
_cell_formula_units_Z   1
loop_
 _symmetry_equiv_pos_site_id
 _symmetry_equiv_pos_as_xyz
  1  'x, y, z'
loop_
 _atom_site_type_symbol
 _atom_site_label
 _atom_site_symmetry_multiplicity
 _atom_site_fract_x
 _atom_site_fract_y
 _atom_site_fract_z
 _atom_site_occupancy
  Ta  Ta0  1  0.45409277  0.49742876  0.54333598  1
  Ta  Ta1  1  0.95476005  0.49776620  0.04300715  1
  Ta  Ta2  1  0.04572458  0.08827481  0.54254924  1
  Ta  Ta3  1  0.75068045  0.90559935  0.65491990  1
  Ta  Ta4  1  0.25013793  0.90568940  0.15555047  1
  Mn  Mn0  1  0.12684094  0.74349734  0.62365294  1
  Mn  Mn1  1  0.87380458  0.49492385  0.61498311  1
  Mn  Mn2  1  0.61984640  0.74349734  0.11665740  1
  Mn  Mn3  1  0.37994074  0.49492385  0.12112026  1
  Mn  Mn4  1  0.50119041  0.25045855  0.75358948  1
  Mn  Mn5  1  0.99686807  0.25045855  0.24926814  1
  B  B0  1  0.33518467  0.83236304  0.50118912  1
  B  B1  1  0.66583974  0.16315658  0.49333587  1
  B  B2  1  0.83117492  0.83236304  0.99717937  1
  B  B3  1  0.16982271  0.16315658  0.99731784  1
  B  B4  1  0.74976038  0.49574279  0.24598341  1
  B  B5  1  0.24905507  0.49540766  0.74635159  1
  Mo  Mo0  1  0.54527961  0.08728933  0.04201172  1
loop_
_geom_bond_atom_site_label_1
_geom_bond_atom_site_label_2
_geom_bond_distance
_geom_bond_site_symmetry_2
Mn0 Mo0 2.575565 1_566
Mn0 Ta3 2.653204 1_455
Mn1 Mo0 2.632968 1_555
Mn1 Ta3 2.647809 1_555
Mn2 Mo0 2.575561 1_565
Mn2 Ta3 2.653206 1_555
Mn3 Mo0 2.632975 1_555
Mn3 Ta3 2.647811 1_555
Mn4 Ta3 2.590720 1_545
Mn4 Mo0 2.635552 1_556
Mn5 Ta3 2.590717 1_544
Mn5 Mo0 2.635539 1_555
B0 Mn4 2.327359 1_565
B0 Mn0 2.329312 1_555
B0 Mn3 2.361088 1_555
B0 Mo0 2.367141 1_566
B0 Ta2 2.384452 1_565
B0 Ta0 2.387808 1_555
B0 Ta3 2.391565 1_555
B0 Ta1 2.400381 1_455
B0 Ta4 2.401960 1_555
B1 Mn1 2.327463 1_555
B1 Mn2 2.329003 1_545
B1 Mn4 2.361856 1_555
B1 Mo0 2.367271 1_555
B1 Ta2 2.383758 1_655
B1 Ta4 2.388317 1_545
B1 Ta0 2.389279 1_555
B1 Ta3 2.400392 1_545
B1 Ta1 2.404293 1_556
B2 Mn5 2.327357 1_566
B2 Mn2 2.329306 1_556
B2 Mn1 2.361092 1_555
B2 Mo0 2.367138 1_566
B2 Ta2 2.384443 1_666
B2 Ta0 2.387812 1_555
B2 Ta3 2.391565 1_555
B2 Ta1 2.400381 1_556
B2 Ta4 2.401953 1_656
B3 Mn3 2.327455 1_556
B3 Mn0 2.328999 1_545
B3 Mn5 2.361868 1_456
B3 Mo0 2.367269 1_556
B3 Ta2 2.383763 1_555
B3 Ta4 2.388311 1_546
B3 Ta0 2.389274 1_556
B3 Ta3 2.400397 1_445
B3 Ta1 2.404296 1_456
B4 Mn1 2.117397 1_555
B4 Mn3 2.117404 1_555
B4 Mn5 2.117861 1_555
B4 Mn4 2.117869 1_554
B4 Mn2 2.156566 1_555
B4 Mn0 2.156566 1_655
B4 Ta3 2.485662 1_555
B4 Ta1 2.485997 1_555
B4 Mo0 2.488398 1_555
B5 Mn0 2.130069 1_555
B5 Mn2 2.130082 1_556
B5 Mn5 2.138218 1_455
B5 Mn4 2.138223 1_555
B5 Mn1 2.138825 1_455
B5 Mn3 2.138835 1_556
B5 Ta2 2.477371 1_555
B5 Ta0 2.486460 1_555
B5 Ta4 2.487267 1_556
