# generated using pymatgen
data_Ca3CuAs2H
_symmetry_space_group_name_H-M   'P 1'
_cell_length_a   4.20439289
_cell_length_b   11.32836911
_cell_length_c   11.87790060
_cell_angle_alpha   90.00000000
_cell_angle_beta   90.00000000
_cell_angle_gamma   90.00000000
_symmetry_Int_Tables_number   1
_chemical_formula_structural   Ca3CuAs2H
_chemical_formula_sum   'Ca12 Cu4 As8 H4'
_cell_volume   565.73151227
_cell_formula_units_Z   4
loop_
 _symmetry_equiv_pos_site_id
 _symmetry_equiv_pos_as_xyz
  1  'x, y, z'
loop_
 _atom_site_type_symbol
 _atom_site_label
 _atom_site_symmetry_multiplicity
 _atom_site_fract_x
 _atom_site_fract_y
 _atom_site_fract_z
 _atom_site_occupancy
  Ca  Ca0  1  0.25000000  0.06550177  0.62090406  1
  Ca  Ca1  1  0.25000000  0.56550177  0.87909594  1
  Ca  Ca2  1  0.75000000  0.93449823  0.37909594  1
  Ca  Ca3  1  0.75000000  0.43449823  0.12090406  1
  Ca  Ca4  1  0.25000000  0.37170380  0.55560390  1
  Ca  Ca5  1  0.25000000  0.87170380  0.94439610  1
  Ca  Ca6  1  0.75000000  0.62829620  0.44439610  1
  Ca  Ca7  1  0.75000000  0.12829620  0.05560390  1
  Ca  Ca8  1  0.25000000  0.20749366  0.29662558  1
  Ca  Ca9  1  0.25000000  0.70749366  0.20337442  1
  Ca  Ca10  1  0.75000000  0.79250634  0.70337442  1
  Ca  Ca11  1  0.75000000  0.29250634  0.79662558  1
  Cu  Cu0  1  0.25000000  0.13377441  0.85868266  1
  Cu  Cu1  1  0.25000000  0.63377441  0.64131734  1
  Cu  Cu2  1  0.75000000  0.86622559  0.14131734  1
  Cu  Cu3  1  0.75000000  0.36622559  0.35868266  1
  As  As0  1  0.25000000  0.47556945  0.31980012  1
  As  As1  1  0.25000000  0.97556945  0.18019988  1
  As  As2  1  0.75000000  0.52443055  0.68019988  1
  As  As3  1  0.75000000  0.02443055  0.81980012  1
  As  As4  1  0.25000000  0.31162590  0.98501088  1
  As  As5  1  0.25000000  0.81162590  0.51498912  1
  As  As6  1  0.75000000  0.68837410  0.01498912  1
  As  As7  1  0.75000000  0.18837410  0.48501088  1
  H  H0  1  0.25000000  0.24021352  0.72275607  1
  H  H1  1  0.25000000  0.74021352  0.77724393  1
  H  H2  1  0.75000000  0.75978648  0.27724393  1
  H  H3  1  0.75000000  0.25978648  0.22275607  1
loop_
_geom_bond_atom_site_label_1
_geom_bond_atom_site_label_2
_geom_bond_distance
_geom_bond_site_symmetry_2
Ca0 H0 2.319659 1_555
Ca0 Cu0 2.928294 1_555
Ca1 H1 2.319659 1_555
Ca1 Cu1 2.928294 1_555
Ca2 H2 2.319659 1_555
Ca2 Cu2 2.928294 1_555
Ca3 H3 2.319659 1_555
Ca3 Cu3 2.928294 1_555
Ca4 H0 2.482076 1_555
Ca4 Cu1 3.138548 1_555
Ca4 Cu3 3.145481 1_555
Ca4 Cu3 3.145481 1_455
Ca5 H1 2.482076 1_555
Ca5 Cu0 3.138548 1_565
Ca5 Cu2 3.145481 1_456
Ca5 Cu2 3.145481 1_556
Ca6 H2 2.482076 1_555
Ca6 Cu3 3.138548 1_555
Ca6 Cu1 3.145481 1_655
Ca6 Cu1 3.145481 1_555
Ca7 H3 2.482076 1_555
Ca7 Cu2 3.138548 1_545
Ca7 Cu0 3.145481 1_654
Ca7 Cu0 3.145481 1_554
Ca8 H3 2.353724 1_555
Ca8 H3 2.353724 1_455
Ca8 Cu3 2.862863 1_555
Ca8 Cu3 2.862863 1_455
Ca9 H2 2.353724 1_555
Ca9 H2 2.353724 1_455
Ca9 Cu2 2.862863 1_555
Ca9 Cu2 2.862863 1_455
Ca10 H1 2.353724 1_555
Ca10 H1 2.353724 1_655
Ca10 Cu1 2.862863 1_555
Ca10 Cu1 2.862863 1_655
Ca11 H0 2.353724 1_555
Ca11 H0 2.353724 1_655
Ca11 Cu0 2.862863 1_555
Ca11 Cu0 2.862863 1_655
Cu0 H0 2.015091 1_555
Cu1 H1 2.015091 1_555
Cu2 H2 2.015091 1_555
Cu3 H3 2.015091 1_555
As0 Cu3 2.483320 1_455
As0 Cu3 2.483320 1_555
As0 Ca9 2.969043 1_555
As0 Ca4 3.037966 1_555
As0 Ca8 3.049311 1_555
As0 Ca6 3.098847 1_555
As0 Ca6 3.098847 1_455
As0 Ca3 3.196398 1_555
As0 Ca3 3.196398 1_455
As1 Cu2 2.483320 1_555
As1 Cu2 2.483320 1_455
As1 Ca8 2.969043 1_565
As1 Ca5 3.037966 1_554
As1 Ca9 3.049311 1_555
As1 Ca7 3.098847 1_565
As1 Ca7 3.098847 1_465
As1 Ca2 3.196398 1_455
As1 Ca2 3.196398 1_555
As2 Cu1 2.483320 1_555
As2 Cu1 2.483320 1_655
As2 Ca11 2.969043 1_555
As2 Ca6 3.037966 1_555
As2 Ca10 3.049311 1_555
As2 Ca4 3.098847 1_555
As2 Ca4 3.098847 1_655
As2 Ca1 3.196398 1_555
As2 Ca1 3.196398 1_655
As3 Cu0 2.483320 1_555
As3 Cu0 2.483320 1_655
As3 Ca10 2.969043 1_545
As3 Ca7 3.037966 1_556
As3 Ca11 3.049311 1_555
As3 Ca5 3.098847 1_645
As3 Ca5 3.098847 1_545
As3 Ca0 3.196398 1_555
As3 Ca0 3.196398 1_655
As4 Cu0 2.512137 1_555
As4 Ca3 2.993683 1_556
As4 Ca3 2.993683 1_456
As4 Ca7 3.071728 1_556
As4 Ca7 3.071728 1_456
As4 Ca11 3.077839 1_455
As4 Ca11 3.077839 1_555
As4 Ca1 3.139117 1_555
As5 Cu1 2.512137 1_555
As5 Ca2 2.993683 1_555
As5 Ca2 2.993683 1_455
As5 Ca6 3.071728 1_455
As5 Ca6 3.071728 1_555
As5 Ca10 3.077839 1_455
As5 Ca10 3.077839 1_555
As5 Ca0 3.139117 1_565
As6 Cu2 2.512137 1_555
As6 Ca1 2.993683 1_654
As6 Ca1 2.993683 1_554
As6 Ca5 3.071728 1_554
As6 Ca5 3.071728 1_654
As6 Ca9 3.077839 1_555
As6 Ca9 3.077839 1_655
As6 Ca3 3.139117 1_555
As7 Cu3 2.512137 1_555
As7 Ca0 2.993683 1_555
As7 Ca0 2.993683 1_655
As7 Ca4 3.071728 1_655
As7 Ca4 3.071728 1_555
As7 Ca8 3.077839 1_555
As7 Ca8 3.077839 1_655
As7 Ca2 3.139117 1_545
