# generated using pymatgen
data_YZrBRh6
_symmetry_space_group_name_H-M   'P 1'
_cell_length_a   5.72269712
_cell_length_b   5.72269729
_cell_length_c   5.72269626
_cell_angle_alpha   60.00000032
_cell_angle_beta   59.99999933
_cell_angle_gamma   59.99999730
_symmetry_Int_Tables_number   1
_chemical_formula_structural   YZrBRh6
_chemical_formula_sum   'Y1 Zr1 B1 Rh6'
_cell_volume   132.52176835
_cell_formula_units_Z   1
loop_
 _symmetry_equiv_pos_site_id
 _symmetry_equiv_pos_as_xyz
  1  'x, y, z'
loop_
 _atom_site_type_symbol
 _atom_site_label
 _atom_site_symmetry_multiplicity
 _atom_site_fract_x
 _atom_site_fract_y
 _atom_site_fract_z
 _atom_site_occupancy
  Y  Y0  1  0.75000000  0.75000000  0.75000000  1
  Zr  Zr0  1  0.25000000  0.25000000  0.25000000  1
  B  B0  1  0.00000000  0.00000000  0.00000000  1
  Rh  Rh0  1  0.74267731  0.74267731  0.25732269  1
  Rh  Rh1  1  0.25732269  0.74267731  0.25732269  1
  Rh  Rh2  1  0.74267731  0.25732269  0.25732269  1
  Rh  Rh3  1  0.25732269  0.25732269  0.74267731  1
  Rh  Rh4  1  0.74267731  0.25732269  0.74267731  1
  Rh  Rh5  1  0.25732269  0.74267731  0.74267731  1
loop_
_geom_bond_atom_site_label_1
_geom_bond_atom_site_label_2
_geom_bond_distance
_geom_bond_site_symmetry_2
B0 Rh2 2.082542 1_455
B0 Rh1 2.082542 1_545
B0 Rh5 2.082542 1_544
B0 Rh4 2.082542 1_454
B0 Rh3 2.082542 1_554
B0 Rh0 2.082542 1_445
Rh0 Y0 2.861962 1_554
Rh0 Y0 2.861962 1_555
Rh0 Zr0 2.861962 1_655
Rh0 Zr0 2.861962 1_565
Rh1 Y0 2.861962 1_554
Rh1 Y0 2.861962 1_455
Rh1 Zr0 2.861962 1_555
Rh1 Zr0 2.861962 1_565
Rh2 Y0 2.861962 1_554
Rh2 Y0 2.861962 1_545
Rh2 Zr0 2.861962 1_555
Rh2 Zr0 2.861962 1_655
Rh3 Zr0 2.861962 1_556
Rh3 Zr0 2.861962 1_555
Rh3 Y0 2.861962 1_455
Rh3 Y0 2.861962 1_545
Rh4 Zr0 2.861962 1_556
Rh4 Zr0 2.861962 1_655
Rh4 Y0 2.861962 1_555
Rh4 Y0 2.861962 1_545
Rh5 Zr0 2.861962 1_556
Rh5 Zr0 2.861962 1_565
Rh5 Y0 2.861962 1_555
Rh5 Y0 2.861962 1_455
