# generated using pymatgen
data_Ba5Sb2I2O9
_symmetry_space_group_name_H-M   'P 1'
_cell_length_a   6.01498383
_cell_length_b   6.01498404
_cell_length_c   26.94412764
_cell_angle_alpha   90.00000000
_cell_angle_beta   90.00000000
_cell_angle_gamma   120.00000412
_symmetry_Int_Tables_number   1
_chemical_formula_structural   Ba5Sb2I2O9
_chemical_formula_sum   'Ba10 Sb4 I4 O18'
_cell_volume   844.23564423
_cell_formula_units_Z   2
loop_
 _symmetry_equiv_pos_site_id
 _symmetry_equiv_pos_as_xyz
  1  'x, y, z'
loop_
 _atom_site_type_symbol
 _atom_site_label
 _atom_site_symmetry_multiplicity
 _atom_site_fract_x
 _atom_site_fract_y
 _atom_site_fract_z
 _atom_site_occupancy
  Ba  Ba0  1  0.33333300  0.66666700  0.90623749  1
  Ba  Ba1  1  0.66666700  0.33333300  0.40623749  1
  Ba  Ba2  1  0.66666700  0.33333300  0.09376251  1
  Ba  Ba3  1  0.33333300  0.66666700  0.17563657  1
  Ba  Ba4  1  0.66666700  0.33333300  0.67563657  1
  Ba  Ba5  1  0.33333300  0.66666700  0.32436343  1
  Ba  Ba6  1  0.66666700  0.33333300  0.82436343  1
  Ba  Ba7  1  0.66666700  0.33333300  0.25000000  1
  Ba  Ba8  1  0.33333300  0.66666700  0.59376251  1
  Ba  Ba9  1  0.33333300  0.66666700  0.75000000  1
  Sb  Sb0  1  0.00000000  0.00000000  0.80464599  1
  Sb  Sb1  1  0.00000000  0.00000000  0.30464599  1
  Sb  Sb2  1  0.00000000  0.00000000  0.69535401  1
  Sb  Sb3  1  0.00000000  0.00000000  0.19535401  1
  I  I0  1  0.33333300  0.66666700  0.45371602  1
  I  I1  1  0.33333300  0.66666700  0.04628398  1
  I  I2  1  0.66666700  0.33333300  0.54628398  1
  I  I3  1  0.66666700  0.33333300  0.95371602  1
  O  O0  1  0.16406499  0.83593501  0.66264823  1
  O  O1  1  0.67187102  0.83593501  0.83735177  1
  O  O2  1  0.16406499  0.32812898  0.66264823  1
  O  O3  1  0.85485740  0.14514260  0.75000000  1
  O  O4  1  0.29028621  0.14514260  0.75000000  1
  O  O5  1  0.14514260  0.29028621  0.25000000  1
  O  O6  1  0.14514260  0.85485740  0.25000000  1
  O  O7  1  0.70971379  0.85485740  0.25000000  1
  O  O8  1  0.83593501  0.16406499  0.33735177  1
  O  O9  1  0.32812898  0.16406499  0.16264823  1
  O  O10  1  0.85485740  0.70971379  0.75000000  1
  O  O11  1  0.83593501  0.67187102  0.16264823  1
  O  O12  1  0.32812898  0.16406499  0.33735177  1
  O  O13  1  0.83593501  0.16406499  0.16264823  1
  O  O14  1  0.16406499  0.32812898  0.83735177  1
  O  O15  1  0.83593501  0.67187102  0.33735177  1
  O  O16  1  0.67187102  0.83593501  0.66264823  1
  O  O17  1  0.16406499  0.83593501  0.83735177  1
loop_
_geom_bond_atom_site_label_1
_geom_bond_atom_site_label_2
_geom_bond_distance
_geom_bond_site_symmetry_2
Ba0 O17 2.560241 1_555
Ba0 O1 2.560248 1_555
Ba0 O14 2.560248 1_555
Ba0 I3 3.700880 1_455
Ba0 I3 3.700880 1_565
Ba0 I3 3.700890 1_555
Ba0 I1 3.773431 1_556
Ba1 O8 2.560241 1_555
Ba1 O12 2.560248 1_555
Ba1 O15 2.560248 1_555
Ba1 I0 3.700880 1_655
Ba1 I0 3.700880 1_545
Ba1 I0 3.700890 1_555
Ba1 I2 3.773431 1_555
Ba2 O13 2.560241 1_555
Ba2 O9 2.560248 1_555
Ba2 O11 2.560248 1_555
Ba2 I1 3.700880 1_655
Ba2 I1 3.700880 1_545
Ba2 I1 3.700890 1_555
Ba2 I3 3.773431 1_554
Ba3 O7 2.803330 1_555
Ba3 O5 2.803330 1_555
Ba3 O6 2.803330 1_555
Ba3 O13 3.027906 1_565
Ba3 O13 3.027906 1_455
Ba3 O11 3.027906 1_555
Ba3 O11 3.027906 1_455
Ba3 O9 3.027906 1_555
Ba3 O9 3.027906 1_565
Ba3 I1 3.485293 1_555
Ba4 O4 2.803330 1_555
Ba4 O10 2.803330 1_555
Ba4 O3 2.803330 1_555
Ba4 O0 3.027906 1_545
Ba4 O0 3.027906 1_655
Ba4 O2 3.027906 1_555
Ba4 O2 3.027906 1_655
Ba4 O16 3.027906 1_555
Ba4 O16 3.027906 1_545
Ba4 I2 3.485293 1_555
Ba5 O7 2.803330 1_555
Ba5 O5 2.803330 1_555
Ba5 O6 2.803330 1_555
Ba5 O8 3.027906 1_565
Ba5 O8 3.027906 1_455
Ba5 O15 3.027906 1_555
Ba5 O15 3.027906 1_455
Ba5 O12 3.027906 1_555
Ba5 O12 3.027906 1_565
Ba5 I0 3.485293 1_555
Ba6 O4 2.803330 1_555
Ba6 O10 2.803330 1_555
Ba6 O3 2.803330 1_555
Ba6 O17 3.027906 1_545
Ba6 O17 3.027906 1_655
Ba6 O14 3.027906 1_555
Ba6 O14 3.027906 1_655
Ba6 O1 3.027906 1_555
Ba6 O1 3.027906 1_545
Ba6 I3 3.485293 1_555
Ba7 O8 2.940981 1_555
Ba7 O13 2.940981 1_555
Ba7 O12 2.940987 1_555
Ba7 O9 2.940987 1_555
Ba7 O15 2.940987 1_555
Ba7 O11 2.940987 1_555
Ba7 O5 3.015834 1_655
Ba7 O7 3.015834 1_545
Ba7 O6 3.015840 1_545
Ba7 O6 3.015840 1_655
Ba7 O5 3.015846 1_555
Ba7 O7 3.015846 1_555
Ba8 O0 2.560241 1_555
Ba8 O16 2.560248 1_555
Ba8 O2 2.560248 1_555
Ba8 I2 3.700880 1_455
Ba8 I2 3.700880 1_565
Ba8 I2 3.700890 1_555
Ba8 I0 3.773431 1_555
Ba9 O17 2.940981 1_555
Ba9 O0 2.940981 1_555
Ba9 O1 2.940987 1_555
Ba9 O16 2.940987 1_555
Ba9 O14 2.940987 1_555
Ba9 O2 2.940987 1_555
Ba9 O10 3.015834 1_455
Ba9 O4 3.015834 1_565
Ba9 O3 3.015840 1_565
Ba9 O3 3.015840 1_455
Ba9 O10 3.015846 1_555
Ba9 O4 3.015846 1_555
O0 Sb2 1.923063 1_565
O1 Sb0 1.923059 1_665
O2 Sb2 1.923059 1_555
O3 Sb0 2.110563 1_655
O3 Sb2 2.110563 1_655
O4 Sb0 2.110566 1_555
O4 Sb2 2.110566 1_555
O5 Sb1 2.110566 1_555
O5 Sb3 2.110566 1_555
O6 Sb1 2.110563 1_565
O6 Sb3 2.110563 1_565
O7 Sb1 2.110566 1_665
O7 Sb3 2.110566 1_665
O8 Sb1 1.923063 1_655
O9 Sb3 1.923059 1_555
O10 Sb0 2.110566 1_665
O10 Sb2 2.110566 1_665
O11 Sb3 1.923059 1_665
O12 Sb1 1.923059 1_555
O13 Sb3 1.923063 1_655
O14 Sb0 1.923059 1_555
O15 Sb1 1.923059 1_665
O16 Sb2 1.923059 1_665
O17 Sb0 1.923063 1_565
