# generated using pymatgen
data_V10B4AsSe
_symmetry_space_group_name_H-M   'P 1'
_cell_length_a   6.76114364
_cell_length_b   6.76114438
_cell_length_c   6.76114456
_cell_angle_alpha   129.43144365
_cell_angle_beta   129.43144615
_cell_angle_gamma   74.31735137
_symmetry_Int_Tables_number   1
_chemical_formula_structural   V10B4AsSe
_chemical_formula_sum   'V10 B4 As1 Se1'
_cell_volume   179.73772774
_cell_formula_units_Z   1
loop_
 _symmetry_equiv_pos_site_id
 _symmetry_equiv_pos_as_xyz
  1  'x, y, z'
loop_
 _atom_site_type_symbol
 _atom_site_label
 _atom_site_symmetry_multiplicity
 _atom_site_fract_x
 _atom_site_fract_y
 _atom_site_fract_z
 _atom_site_occupancy
  V  V0  1  0.53160950  0.69639508  0.50011183  1
  V  V1  1  0.03149768  0.53160950  0.83521442  1
  V  V2  1  0.69639508  0.19628325  0.16478558  1
  V  V3  1  0.96839050  0.46850232  0.16478558  1
  V  V4  1  0.19628325  0.03149768  0.49988817  1
  V  V5  1  0.46850232  0.30371675  0.50011183  1
  V  V6  1  0.80360492  0.96839050  0.49988817  1
  V  V7  1  0.30371675  0.80360492  0.83521442  1
  V  V8  1  0.00109140  0.00109140  0.00000000  1
  V  V9  1  0.49890860  0.49890860  1.00000000  1
  B  B0  1  0.61607168  0.11607168  0.73214337  1
  B  B1  1  0.11607168  0.38392832  0.50000000  1
  B  B2  1  0.88392832  0.61607168  0.50000000  1
  B  B3  1  0.38392832  0.88392832  0.26785663  1
  As  As0  1  0.25000000  0.25000000  0.00000000  1
  Se  Se0  1  0.75000000  0.75000000  0.00000000  1
loop_
_geom_bond_atom_site_label_1
_geom_bond_atom_site_label_2
_geom_bond_distance
_geom_bond_site_symmetry_2
B0 B3 1.896099 1_545
B0 V0 2.218524 1_545
B0 V5 2.218524 1_555
B0 V4 2.218914 1_555
B0 V6 2.218915 1_545
B0 V3 2.296002 1_556
B0 V2 2.296002 1_556
B0 V8 2.316529 1_656
B0 V9 2.316529 1_555
B1 B2 1.896099 1_455
B1 V2 2.218524 1_455
B1 V7 2.218524 1_555
B1 V1 2.218915 1_555
B1 V3 2.218915 1_455
B1 V5 2.296002 1_555
B1 V4 2.296002 1_555
B1 V9 2.316528 1_555
B1 V8 2.316529 1_555
B2 V3 2.218524 1_555
B2 V1 2.218524 1_655
B2 V7 2.218914 1_655
B2 V2 2.218914 1_555
B2 V0 2.296002 1_555
B2 V6 2.296002 1_555
B2 V9 2.316528 1_554
B2 V8 2.316529 1_666
B3 V6 2.218524 1_555
B3 V4 2.218524 1_565
B3 V5 2.218915 1_565
B3 V0 2.218915 1_555
B3 V1 2.296002 1_554
B3 V7 2.296002 1_554
B3 V8 2.316529 1_565
B3 V9 2.316529 1_554
As0 V6 2.476334 1_444
As0 V0 2.476334 1_555
As0 V2 2.476334 1_555
As0 V3 2.476334 1_455
As0 V7 2.476334 1_544
As0 V5 2.476334 1_555
As0 V4 2.476334 1_554
As0 V1 2.476334 1_554
As0 V9 2.682438 1_554
As0 V8 2.682438 1_555
Se0 V4 2.475580 1_665
Se0 V5 2.475581 1_554
Se0 V7 2.475581 1_554
Se0 V1 2.475581 1_654
Se0 V2 2.475581 1_565
Se0 V0 2.475581 1_554
Se0 V6 2.475581 1_555
Se0 V3 2.475581 1_555
Se0 V8 2.705962 1_665
Se0 V9 2.705962 1_554
