# generated using pymatgen
data_TcOsF14
_symmetry_space_group_name_H-M   'P 1'
_cell_length_a   5.15958699
_cell_length_b   5.15958813
_cell_length_c   8.94066288
_cell_angle_alpha   89.76313225
_cell_angle_beta   90.23686541
_cell_angle_gamma   109.15420969
_symmetry_Int_Tables_number   1
_chemical_formula_structural   TcOsF14
_chemical_formula_sum   'Tc1 Os1 F14'
_cell_volume   224.83293424
_cell_formula_units_Z   1
loop_
 _symmetry_equiv_pos_site_id
 _symmetry_equiv_pos_as_xyz
  1  'x, y, z'
loop_
 _atom_site_type_symbol
 _atom_site_label
 _atom_site_symmetry_multiplicity
 _atom_site_fract_x
 _atom_site_fract_y
 _atom_site_fract_z
 _atom_site_occupancy
  Tc  Tc0  1  0.86562387  0.86562387  0.50000000  1
  Os  Os0  1  0.36764388  0.36764388  1.00000000  1
  F  F0  1  0.10161957  0.44072955  0.11740067  1
  F  F1  1  0.20789504  0.02431925  0.58836651  1
  F  F2  1  0.72002714  0.52432770  0.91601535  1
  F  F3  1  0.73647867  0.98612721  0.66426317  1
  F  F4  1  0.98612722  0.73647867  0.33573683  1
  F  F5  1  0.50265532  0.23394744  0.16388496  1
  F  F6  1  0.23394744  0.50265532  0.83611504  1
  F  F7  1  0.94897755  0.59179269  0.60581696  1
  F  F8  1  0.05008887  0.05008887  0.00000000  1
  F  F9  1  0.52432770  0.72002714  0.08398465  1
  F  F10  1  0.55414523  0.55414523  0.50000000  1
  F  F11  1  0.59179270  0.94897755  0.39418304  1
  F  F12  1  0.44072955  0.10161957  0.88259933  1
  F  F13  1  0.02431925  0.20789504  0.41163349  1
loop_
_geom_bond_atom_site_label_1
_geom_bond_atom_site_label_2
_geom_bond_distance
_geom_bond_site_symmetry_2
F0 Os0 1.866211 1_554
F1 Tc0 1.859630 1_445
F2 Os0 1.888060 1_555
F3 Tc0 1.809678 1_555
F4 Tc0 1.809678 1_555
F5 Os0 1.845690 1_554
F6 Os0 1.845690 1_555
F7 Tc0 1.860243 1_555
F8 Os0 1.899317 1_554
F9 Os0 1.888061 1_554
F10 Tc0 1.862974 1_555
F11 Tc0 1.860242 1_555
F12 Os0 1.866211 1_555
F13 Tc0 1.859630 1_445
