# generated using pymatgen
data_Nb10C7
_symmetry_space_group_name_H-M   'P 1'
_cell_length_a   6.34977871
_cell_length_b   15.83781289
_cell_length_c   5.49998459
_cell_angle_alpha   29.75594962
_cell_angle_beta   54.90322997
_cell_angle_gamma   60.04888407
_symmetry_Int_Tables_number   1
_chemical_formula_structural   Nb10C7
_chemical_formula_sum   'Nb10 C7'
_cell_volume   224.60289219
_cell_formula_units_Z   1
loop_
 _symmetry_equiv_pos_site_id
 _symmetry_equiv_pos_as_xyz
  1  'x, y, z'
loop_
 _atom_site_type_symbol
 _atom_site_label
 _atom_site_symmetry_multiplicity
 _atom_site_fract_x
 _atom_site_fract_y
 _atom_site_fract_z
 _atom_site_occupancy
  Nb  Nb0  1  0.01890586  0.99161381  0.99551932  1
  Nb  Nb1  1  0.01898436  0.20842768  0.95358610  1
  Nb  Nb2  1  0.48101571  0.99155852  0.04644566  1
  Nb  Nb3  1  0.99015730  0.39524421  0.02070426  1
  Nb  Nb4  1  0.48109568  0.20837322  0.00451416  1
  Nb  Nb5  1  0.98567661  0.59994169  0.02906655  1
  Nb  Nb6  1  0.50986742  0.39521255  0.00305682  1
  Nb  Nb7  1  0.99012850  0.80479399  0.99692456  1
  Nb  Nb8  1  0.51432144  0.60007164  0.97090194  1
  Nb  Nb9  1  0.50984650  0.80476235  0.97928014  1
  C  C0  1  0.25001391  0.99875368  0.50307139  1
  C  C1  1  0.24998709  0.20123922  0.49694567  1
  C  C2  1  0.25001600  0.39768930  0.50583137  1
  C  C3  1  0.74996013  0.39817028  0.50457465  1
  C  C4  1  0.24998384  0.80231068  0.49416904  1
  C  C5  1  0.74999985  0.60000507  0.49998815  1
  C  C6  1  0.75003980  0.80183209  0.49542022  1
loop_
_geom_bond_atom_site_label_1
_geom_bond_atom_site_label_2
_geom_bond_distance
_geom_bond_site_symmetry_2
C0 Nb0 2.136695 1_555
C0 Nb2 2.136765 1_555
C0 Nb9 2.226455 1_555
C0 Nb7 2.226564 1_455
C0 Nb1 2.263082 1_564
C0 Nb4 2.263861 1_565
C1 Nb4 2.136686 1_555
C1 Nb1 2.136754 1_555
C1 Nb3 2.226513 1_455
C1 Nb6 2.226611 1_555
C1 Nb2 2.263112 1_546
C1 Nb0 2.263888 1_545
C2 Nb1 2.149713 1_555
C2 Nb4 2.149825 1_556
C2 Nb5 2.249995 1_455
C2 Nb8 2.250828 1_554
C2 Nb3 2.289871 1_456
C2 Nb6 2.290780 1_555
C3 Nb6 2.210200 1_556
C3 Nb4 2.210473 1_556
C3 Nb3 2.210623 1_555
C3 Nb1 2.210685 1_655
C3 Nb8 2.248443 1_554
C3 Nb5 2.248475 1_555
C4 Nb2 2.149631 1_555
C4 Nb0 2.149745 1_554
C4 Nb8 2.249916 1_555
C4 Nb5 2.250759 1_456
C4 Nb9 2.289870 1_554
C4 Nb7 2.290770 1_455
C5 Nb5 2.119866 1_555
C5 Nb8 2.119867 1_555
C5 Nb9 2.236562 1_554
C5 Nb3 2.236599 1_556
C5 Nb7 2.237271 1_554
C5 Nb6 2.237317 1_556
C6 Nb7 2.210214 1_554
C6 Nb0 2.210400 1_654
C6 Nb2 2.210606 1_555
C6 Nb9 2.210624 1_555
C6 Nb5 2.248376 1_556
C6 Nb8 2.248420 1_555
