# generated using pymatgen
data_Hf12TaTi4Os7
_symmetry_space_group_name_H-M   'P 1'
_cell_length_a   8.57800871
_cell_length_b   8.55767302
_cell_length_c   8.55767246
_cell_angle_alpha   59.99999836
_cell_angle_beta   60.07838880
_cell_angle_gamma   60.07838937
_symmetry_Int_Tables_number   1
_chemical_formula_structural   Hf12TaTi4Os7
_chemical_formula_sum   'Hf12 Ta1 Ti4 Os7'
_cell_volume   444.72995960
_cell_formula_units_Z   1
loop_
 _symmetry_equiv_pos_site_id
 _symmetry_equiv_pos_as_xyz
  1  'x, y, z'
loop_
 _atom_site_type_symbol
 _atom_site_label
 _atom_site_symmetry_multiplicity
 _atom_site_fract_x
 _atom_site_fract_y
 _atom_site_fract_z
 _atom_site_occupancy
  Hf  Hf0  1  0.81123342  0.80753924  0.19061317  1
  Hf  Hf1  1  0.19284515  0.19278621  0.80718432  1
  Hf  Hf2  1  0.81123342  0.19061317  0.80753924  1
  Hf  Hf3  1  0.19284515  0.80718432  0.19278621  1
  Hf  Hf4  1  0.19284515  0.80718432  0.80718432  1
  Hf  Hf5  1  0.81123342  0.19061317  0.19061317  1
  Hf  Hf6  1  0.44360118  0.44234406  0.05702738  1
  Hf  Hf7  1  0.05713237  0.05548354  0.44369204  1
  Hf  Hf8  1  0.44360118  0.05702738  0.44234406  1
  Hf  Hf9  1  0.05713237  0.44369204  0.05548354  1
  Hf  Hf10  1  0.05713237  0.44369204  0.44369204  1
  Hf  Hf11  1  0.44360118  0.05702738  0.05702738  1
  Ta  Ta0  1  0.74871824  0.41709292  0.41709292  1
  Ti  Ti0  1  0.12712303  0.62429199  0.62429199  1
  Ti  Ti1  1  0.62281844  0.11953653  0.62882201  1
  Ti  Ti2  1  0.62281844  0.62882201  0.11953653  1
  Ti  Ti3  1  0.62281844  0.62882201  0.62882201  1
  Os  Os0  1  0.41159123  0.76010165  0.41415256  1
  Os  Os1  1  0.41159123  0.41415256  0.76010165  1
  Os  Os2  1  0.41159123  0.41415256  0.41415256  1
  Os  Os3  1  0.49404895  0.83531802  0.83531802  1
  Os  Os4  1  0.83748113  0.49254662  0.83498763  1
  Os  Os5  1  0.83748113  0.83498763  0.49254662  1
  Os  Os6  1  0.83748113  0.83498763  0.83498763  1
loop_
_geom_bond_atom_site_label_1
_geom_bond_atom_site_label_2
_geom_bond_distance
_geom_bond_site_symmetry_2
Hf0 Os6 2.832317 1_554
Hf0 Os5 2.832351 1_555
Hf0 Ta0 3.079459 1_555
Hf0 Os0 3.105765 1_555
Hf0 Ti3 3.114198 1_555
Hf0 Ti2 3.114198 1_555
Hf0 Hf9 3.177507 1_655
Hf0 Hf10 3.177512 1_655
Hf0 Hf11 3.201400 1_565
Hf0 Hf8 3.201404 1_565
Hf0 Hf2 3.278221 1_564
Hf0 Hf5 3.278221 1_565
Hf0 Hf4 3.281262 1_654
Hf0 Hf3 3.281266 1_655
Hf1 Os4 2.831074 1_455
Hf1 Os3 2.844403 1_545
Hf1 Os1 3.049688 1_555
Hf1 Os2 3.049696 1_555
Hf1 Ti1 3.059460 1_555
Hf1 Ti0 3.070384 1_555
Hf1 Hf10 3.175151 1_555
Hf1 Hf9 3.175151 1_556
Hf1 Hf8 3.187302 1_555
Hf1 Hf11 3.187302 1_556
Hf1 Hf5 3.281262 1_456
Hf1 Hf2 3.281266 1_455
Hf1 Hf3 3.299855 1_546
Hf1 Hf4 3.299855 1_545
Hf2 Os6 2.832317 1_545
Hf2 Os4 2.832351 1_555
Hf2 Ta0 3.079459 1_555
Hf2 Os1 3.105765 1_555
Hf2 Ti3 3.114198 1_555
Hf2 Ti1 3.114198 1_555
Hf2 Hf7 3.177507 1_655
Hf2 Hf6 3.201404 1_556
Hf2 Hf5 3.278221 1_556
Hf2 Hf4 3.281262 1_645
Hf3 Os5 2.831074 1_455
Hf3 Os3 2.844403 1_554
Hf3 Os0 3.049688 1_555
Hf3 Os2 3.049696 1_555
Hf3 Ti2 3.059460 1_555
Hf3 Ti0 3.070384 1_555
Hf3 Hf7 3.175151 1_565
Hf3 Hf6 3.187302 1_555
Hf3 Hf5 3.281262 1_465
Hf3 Hf4 3.299855 1_554
Hf4 Os6 2.831063 1_455
Hf4 Os3 2.844418 1_555
Hf4 Os0 3.049702 1_555
Hf4 Os1 3.049702 1_555
Hf4 Ti3 3.059461 1_555
Hf4 Ti0 3.070391 1_555
Hf4 Hf7 3.175151 1_565
Hf4 Hf9 3.175151 1_556
Hf4 Hf8 3.187302 1_565
Hf4 Hf6 3.187302 1_556
Hf5 Os4 2.832331 1_554
Hf5 Os5 2.832331 1_545
Hf5 Ta0 3.079444 1_555
Hf5 Os2 3.105762 1_555
Hf5 Ti1 3.114198 1_555
Hf5 Ti2 3.114198 1_555
Hf5 Hf7 3.177515 1_655
Hf5 Hf9 3.177515 1_655
Hf5 Hf6 3.201400 1_555
Hf5 Hf8 3.201400 1_555
Hf6 Os2 2.822289 1_555
Hf6 Os1 2.822306 1_554
Hf6 Ti2 3.052493 1_555
Hf6 Ti3 3.052498 1_554
Hf6 Os3 3.057552 1_554
Hf6 Os4 3.072090 1_554
Hf6 Hf8 3.297414 1_555
Hf6 Hf9 3.315992 1_555
Hf7 Os0 2.811246 1_545
Hf7 Ta0 2.890674 1_455
Hf7 Os5 3.042616 1_445
Hf7 Os6 3.042628 1_445
Hf7 Ti0 3.062311 1_545
Hf7 Ti1 3.103694 1_455
Hf7 Hf8 3.315992 1_555
Hf7 Hf9 3.322161 1_555
Hf8 Os2 2.822289 1_555
Hf8 Os0 2.822306 1_545
Hf8 Ti1 3.052493 1_555
Hf8 Ti3 3.052498 1_545
Hf8 Os3 3.057552 1_545
Hf8 Os5 3.072090 1_545
Hf9 Os1 2.811246 1_554
Hf9 Ta0 2.890674 1_455
Hf9 Os4 3.042616 1_454
Hf9 Os6 3.042629 1_454
Hf9 Ti0 3.062311 1_554
Hf9 Ti2 3.103694 1_455
Hf10 Os2 2.811239 1_555
Hf10 Ta0 2.890689 1_455
Hf10 Os4 3.042638 1_455
Hf10 Os5 3.042638 1_455
Hf10 Ti0 3.062304 1_555
Hf10 Ti3 3.103692 1_455
Hf10 Hf3 3.175151 1_555
Hf10 Hf2 3.177512 1_455
Hf10 Hf6 3.315992 1_555
Hf10 Hf8 3.315992 1_555
Hf10 Hf9 3.322161 1_555
Hf10 Hf7 3.322161 1_555
Hf11 Os0 2.822296 1_545
Hf11 Os1 2.822296 1_554
Hf11 Ti1 3.052500 1_554
Hf11 Ti2 3.052500 1_545
Hf11 Os3 3.057530 1_544
Hf11 Os6 3.072080 1_544
Hf11 Hf3 3.187302 1_545
Hf11 Hf2 3.201400 1_554
Hf11 Hf8 3.297414 1_555
Hf11 Hf6 3.297414 1_555
Hf11 Hf7 3.315992 1_555
Hf11 Hf9 3.315992 1_555
Ta0 Ti2 2.666638 1_555
Ta0 Ti1 2.666639 1_555
Ta0 Ti3 2.666652 1_555
Os0 Ti0 2.626894 1_555
Os0 Ti2 2.673208 1_555
Os0 Ti3 2.673215 1_555
Os0 Ta0 2.917203 1_555
Os0 Os1 2.960519 1_555
Os0 Os2 2.960519 1_555
Os1 Ti0 2.626894 1_555
Os1 Ti1 2.673208 1_555
Os1 Ti3 2.673215 1_555
Os1 Ta0 2.917203 1_555
Os1 Os2 2.960519 1_555
Os2 Ti0 2.626899 1_555
Os2 Ti2 2.673213 1_555
Os2 Ti1 2.673213 1_555
Os2 Ta0 2.917199 1_555
Os3 Ti2 2.587186 1_556
Os3 Ti1 2.587186 1_565
Os3 Ti3 2.587214 1_555
Os3 Os5 2.943146 1_555
Os3 Os4 2.943146 1_555
Os3 Os6 2.943146 1_555
Os4 Ti2 2.627639 1_556
Os4 Ti3 2.627667 1_555
Os4 Ti0 2.643415 1_655
Os4 Os5 2.930498 1_555
Os4 Os6 2.930498 1_555
Os5 Ti1 2.627639 1_565
Os5 Ti3 2.627667 1_555
Os5 Ti0 2.643415 1_655
Os5 Os6 2.930498 1_555
Os6 Ti1 2.627659 1_565
Os6 Ti2 2.627659 1_556
Os6 Ti0 2.643434 1_655
