# generated using pymatgen
data_SrLiCu12
_symmetry_space_group_name_H-M   'P 1'
_cell_length_a   8.12234663
_cell_length_b   8.12234621
_cell_length_c   8.12234685
_cell_angle_alpha   60.00000133
_cell_angle_beta   60.00000306
_cell_angle_gamma   59.99999574
_symmetry_Int_Tables_number   1
_chemical_formula_structural   SrLiCu12
_chemical_formula_sum   'Sr2 Li2 Cu24'
_cell_volume   378.90431451
_cell_formula_units_Z   2
loop_
 _symmetry_equiv_pos_site_id
 _symmetry_equiv_pos_as_xyz
  1  'x, y, z'
loop_
 _atom_site_type_symbol
 _atom_site_label
 _atom_site_symmetry_multiplicity
 _atom_site_fract_x
 _atom_site_fract_y
 _atom_site_fract_z
 _atom_site_occupancy
  Sr  Sr0  1  0.75000000  0.75000000  0.75000000  1
  Sr  Sr1  1  0.25000000  0.25000000  0.25000000  1
  Li  Li0  1  0.00000000  0.00000000  0.00000000  1
  Li  Li1  1  0.50000000  0.50000000  0.50000000  1
  Cu  Cu0  1  0.70499274  0.93538862  0.29500726  1
  Cu  Cu1  1  0.93538862  0.70499274  0.06461138  1
  Cu  Cu2  1  0.06461138  0.29500726  0.93538862  1
  Cu  Cu3  1  0.79500726  0.56461138  0.43538862  1
  Cu  Cu4  1  0.56461138  0.79500726  0.20499274  1
  Cu  Cu5  1  0.20499274  0.56461138  0.79500726  1
  Cu  Cu6  1  0.79500726  0.43538862  0.20499274  1
  Cu  Cu7  1  0.56461138  0.43538862  0.79500726  1
  Cu  Cu8  1  0.20499274  0.79500726  0.43538862  1
  Cu  Cu9  1  0.93538862  0.06461138  0.29500726  1
  Cu  Cu10  1  0.29500726  0.93538862  0.06461138  1
  Cu  Cu11  1  0.06461138  0.70499274  0.29500726  1
  Cu  Cu12  1  0.06461138  0.93538862  0.70499274  1
  Cu  Cu13  1  0.29500726  0.70499274  0.93538862  1
  Cu  Cu14  1  0.70499274  0.06461138  0.93538862  1
  Cu  Cu15  1  0.70499274  0.29500726  0.06461138  1
  Cu  Cu16  1  0.93538862  0.29500726  0.70499274  1
  Cu  Cu17  1  0.43538862  0.79500726  0.56461138  1
  Cu  Cu18  1  0.43538862  0.20499274  0.79500726  1
  Cu  Cu19  1  0.79500726  0.20499274  0.56461138  1
  Cu  Cu20  1  0.43538862  0.56461138  0.20499274  1
  Cu  Cu21  1  0.20499274  0.43538862  0.56461138  1
  Cu  Cu22  1  0.56461138  0.20499274  0.43538862  1
  Cu  Cu23  1  0.29500726  0.06461138  0.70499274  1
loop_
_geom_bond_atom_site_label_1
_geom_bond_atom_site_label_2
_geom_bond_distance
_geom_bond_site_symmetry_2
Cu0 Li0 2.452948 1_665
Cu0 Cu22 2.468890 1_565
Cu0 Cu17 2.468890 1_555
Cu0 Cu3 2.470263 1_555
Cu0 Cu4 2.470263 1_555
Cu0 Cu11 2.562767 1_655
Cu0 Cu15 2.562767 1_565
Cu0 Cu9 2.562767 1_565
Cu0 Cu14 2.562767 1_564
Cu0 Cu1 2.646496 1_555
Cu0 Sr1 3.360695 1_565
Cu0 Sr0 3.360696 1_555
Cu1 Li0 2.452947 1_665
Cu1 Cu6 2.468890 1_555
Cu1 Cu5 2.468890 1_654
Cu1 Cu4 2.470263 1_555
Cu1 Cu3 2.470264 1_555
Cu1 Cu14 2.562766 1_564
Cu1 Cu11 2.562767 1_655
Cu1 Cu13 2.562767 1_654
Cu1 Cu12 2.562767 1_654
Cu1 Sr1 3.360695 1_655
Cu1 Sr0 3.360695 1_554
Cu2 Li0 2.452947 1_556
Cu2 Cu5 2.468890 1_555
Cu2 Cu6 2.468890 1_456
Cu2 Cu21 2.470264 1_555
Cu2 Cu9 2.562767 1_456
Cu2 Cu23 2.646496 1_555
Cu2 Sr0 3.360695 1_455
Cu2 Sr1 3.360695 1_556
Cu3 Li1 2.452948 1_555
Cu3 Cu6 2.562767 1_555
Cu3 Cu7 2.562767 1_555
Cu3 Cu4 2.646496 1_555
Cu3 Sr1 3.360695 1_655
Cu3 Sr0 3.360695 1_555
Cu4 Li1 2.452948 1_555
Cu4 Cu6 2.562766 1_555
Cu4 Cu8 2.562767 1_555
Cu4 Sr1 3.360695 1_565
Cu4 Sr0 3.360696 1_554
Cu5 Li1 2.452948 1_555
Cu5 Cu7 2.562767 1_555
Cu5 Cu8 2.562767 1_555
Cu5 Sr0 3.360695 1_455
Cu5 Sr1 3.360696 1_556
Cu6 Li1 2.452948 1_555
Cu6 Cu9 2.470263 1_555
Cu6 Sr1 3.360695 1_655
Cu6 Sr0 3.360696 1_554
Cu7 Li1 2.452948 1_555
Cu7 Sr0 3.360695 1_555
Cu7 Sr1 3.360696 1_556
Cu8 Li1 2.452947 1_555
Cu8 Cu9 2.468890 1_465
Cu8 Sr1 3.360695 1_565
Cu8 Sr0 3.360696 1_455
Cu9 Li0 2.452948 1_655
Cu9 Sr1 3.360695 1_655
Cu9 Sr0 3.360696 1_545
Cu10 Li0 2.452947 1_565
Cu10 Cu4 2.468890 1_555
Cu10 Cu18 2.468890 1_564
Cu10 Cu20 2.470263 1_555
Cu10 Cu8 2.470264 1_555
Cu10 Cu2 2.562766 1_564
Cu10 Cu13 2.562767 1_554
Cu10 Cu9 2.562767 1_465
Cu10 Cu23 2.562767 1_564
Cu10 Cu11 2.646496 1_555
Cu10 Sr1 3.360695 1_565
Cu10 Sr0 3.360695 1_554
Cu11 Li0 2.452947 1_565
Cu11 Cu21 2.468890 1_555
Cu11 Cu3 2.468890 1_455
Cu11 Cu20 2.470263 1_555
Cu11 Cu8 2.470263 1_555
Cu11 Cu9 2.562766 1_465
Cu11 Cu13 2.562767 1_554
Cu11 Sr1 3.360695 1_555
Cu11 Sr0 3.360696 1_455
Cu12 Li0 2.452948 1_566
Cu12 Cu19 2.468890 1_465
Cu12 Cu8 2.468890 1_555
Cu12 Cu5 2.470263 1_555
Cu12 Cu17 2.470263 1_555
Cu12 Cu16 2.562766 1_465
Cu12 Cu23 2.562767 1_565
Cu12 Cu14 2.562767 1_465
Cu12 Cu13 2.646496 1_555
Cu12 Sr0 3.360695 1_455
Cu12 Sr1 3.360696 1_565
Cu13 Li0 2.452947 1_566
Cu13 Cu7 2.468890 1_555
Cu13 Cu20 2.468890 1_556
Cu13 Cu5 2.470263 1_555
Cu13 Cu17 2.470264 1_555
Cu13 Cu23 2.562767 1_565
Cu13 Sr1 3.360695 1_556
Cu13 Sr0 3.360696 1_555
Cu14 Li0 2.452947 1_656
Cu14 Cu18 2.468890 1_555
Cu14 Cu4 2.468890 1_546
Cu14 Cu7 2.470263 1_555
Cu14 Cu19 2.470264 1_555
Cu14 Cu15 2.562767 1_556
Cu14 Cu16 2.646496 1_555
Cu14 Sr0 3.360695 1_545
Cu14 Sr1 3.360695 1_556
Cu15 Li0 2.452947 1_655
Cu15 Cu20 2.468890 1_555
Cu15 Cu7 2.468890 1_554
Cu15 Cu6 2.470263 1_555
Cu15 Cu22 2.470264 1_555
Cu15 Cu2 2.562767 1_654
Cu15 Cu16 2.562767 1_554
Cu15 Cu9 2.646496 1_555
Cu15 Sr0 3.360695 1_554
Cu15 Sr1 3.360696 1_555
Cu16 Li0 2.452947 1_656
Cu16 Cu3 2.468890 1_555
Cu16 Cu21 2.468890 1_655
Cu16 Cu7 2.470263 1_555
Cu16 Cu19 2.470263 1_555
Cu16 Cu23 2.562767 1_655
Cu16 Cu2 2.562767 1_655
Cu16 Sr0 3.360695 1_555
Cu16 Sr1 3.360696 1_655
Cu17 Li1 2.452947 1_555
Cu17 Cu23 2.468890 1_565
Cu17 Cu7 2.562767 1_555
Cu17 Cu3 2.562767 1_555
Cu17 Cu8 2.562767 1_555
Cu17 Cu4 2.562767 1_555
Cu17 Cu5 2.646496 1_555
Cu17 Sr1 3.360695 1_565
Cu17 Sr0 3.360695 1_555
Cu18 Li1 2.452948 1_555
Cu18 Cu23 2.470263 1_555
Cu18 Cu2 2.470263 1_555
Cu18 Cu5 2.562766 1_555
Cu18 Cu7 2.562767 1_555
Cu18 Cu19 2.562767 1_555
Cu18 Cu22 2.562767 1_555
Cu18 Cu21 2.646496 1_555
Cu18 Sr0 3.360695 1_545
Cu18 Sr1 3.360696 1_556
Cu19 Li1 2.452947 1_555
Cu19 Cu9 2.468890 1_555
Cu19 Cu3 2.562767 1_555
Cu19 Cu22 2.562767 1_555
Cu19 Cu6 2.562767 1_555
Cu19 Cu7 2.646496 1_555
Cu19 Sr0 3.360695 1_545
Cu19 Sr1 3.360696 1_655
Cu20 Li1 2.452948 1_555
Cu20 Cu22 2.562767 1_555
Cu20 Cu6 2.562767 1_555
Cu20 Cu4 2.562767 1_555
Cu20 Cu21 2.562767 1_555
Cu20 Cu8 2.646496 1_555
Cu20 Sr1 3.360695 1_555
Cu20 Sr0 3.360696 1_554
Cu21 Li1 2.452948 1_555
Cu21 Cu23 2.470263 1_555
Cu21 Cu22 2.562767 1_555
Cu21 Cu8 2.562767 1_555
Cu21 Cu5 2.562767 1_555
Cu21 Sr0 3.360695 1_455
Cu21 Sr1 3.360695 1_555
Cu22 Li1 2.452947 1_555
Cu22 Cu23 2.468890 1_555
Cu22 Cu9 2.470263 1_555
Cu22 Cu6 2.646496 1_555
Cu22 Sr0 3.360695 1_545
Cu22 Sr1 3.360695 1_555
Cu23 Li0 2.452948 1_556
Cu23 Sr0 3.360695 1_545
Cu23 Sr1 3.360696 1_555
