# generated using pymatgen
data_Rb2Sr(NbBr3)6
_symmetry_space_group_name_H-M   'P 1'
_cell_length_a   10.86182866
_cell_length_b   10.86182852
_cell_length_c   10.86182938
_cell_angle_alpha   54.79335638
_cell_angle_beta   54.79335666
_cell_angle_gamma   54.79335291
_symmetry_Int_Tables_number   1
_chemical_formula_structural   Rb2Sr(NbBr3)6
_chemical_formula_sum   'Rb2 Sr1 Nb6 Br18'
_cell_volume   796.27299830
_cell_formula_units_Z   1
loop_
 _symmetry_equiv_pos_site_id
 _symmetry_equiv_pos_as_xyz
  1  'x, y, z'
loop_
 _atom_site_type_symbol
 _atom_site_label
 _atom_site_symmetry_multiplicity
 _atom_site_fract_x
 _atom_site_fract_y
 _atom_site_fract_z
 _atom_site_occupancy
  Rb  Rb0  1  0.22144364  0.22144364  0.22144364  1
  Rb  Rb1  1  0.77855636  0.77855636  0.77855636  1
  Sr  Sr0  1  0.50000000  0.50000000  0.50000000  1
  Nb  Nb0  1  0.92654697  0.80144355  0.14062388  1
  Nb  Nb1  1  0.07345303  0.19855645  0.85937612  1
  Nb  Nb2  1  0.14062388  0.92654697  0.80144355  1
  Nb  Nb3  1  0.85937612  0.07345303  0.19855645  1
  Nb  Nb4  1  0.80144355  0.14062388  0.92654697  1
  Nb  Nb5  1  0.19855645  0.85937612  0.07345303  1
  Br  Br0  1  0.16687696  0.47439366  0.67098863  1
  Br  Br1  1  0.92826666  0.08139492  0.66635218  1
  Br  Br2  1  0.33364782  0.07173334  0.91860508  1
  Br  Br3  1  0.66635218  0.92826666  0.08139492  1
  Br  Br4  1  0.58512960  0.26322807  0.15265792  1
  Br  Br5  1  0.08139492  0.66635218  0.92826666  1
  Br  Br6  1  0.67098863  0.16687696  0.47439366  1
  Br  Br7  1  0.73677193  0.84734208  0.41487040  1
  Br  Br8  1  0.41487040  0.73677193  0.84734208  1
  Br  Br9  1  0.32901137  0.83312304  0.52560634  1
  Br  Br10  1  0.26322807  0.15265792  0.58512960  1
  Br  Br11  1  0.84734208  0.41487040  0.73677193  1
  Br  Br12  1  0.07173334  0.91860508  0.33364782  1
  Br  Br13  1  0.52560634  0.32901137  0.83312304  1
  Br  Br14  1  0.15265792  0.58512960  0.26322807  1
  Br  Br15  1  0.91860508  0.33364782  0.07173334  1
  Br  Br16  1  0.83312304  0.52560634  0.32901137  1
  Br  Br17  1  0.47439366  0.67098863  0.16687696  1
loop_
_geom_bond_atom_site_label_1
_geom_bond_atom_site_label_2
_geom_bond_distance
_geom_bond_site_symmetry_2
Br0 Nb1 2.869800 1_555
Br0 Sr0 3.071663 1_555
Br0 Rb1 3.573693 1_455
Br1 Nb4 2.623817 1_555
Br1 Nb2 2.624099 1_645
Br1 Rb1 3.769567 1_545
Br1 Rb0 3.895249 1_655
Br2 Nb1 2.623817 1_555
Br2 Nb5 2.624099 1_546
Br2 Rb0 3.769567 1_556
Br2 Rb1 3.895248 1_545
Br3 Nb0 2.623817 1_555
Br3 Nb4 2.624099 1_564
Br3 Rb1 3.769567 1_554
Br3 Rb0 3.895248 1_565
Br4 Nb3 2.611181 1_555
Br4 Nb4 2.614469 1_554
Br4 Rb0 3.826507 1_555
Br5 Nb2 2.623817 1_555
Br5 Nb0 2.624099 1_456
Br5 Rb1 3.769567 1_455
Br5 Rb0 3.895249 1_556
Br6 Nb3 2.869800 1_555
Br6 Sr0 3.071663 1_555
Br6 Rb1 3.573693 1_545
Br7 Nb0 2.611181 1_555
Br7 Nb3 2.614469 1_565
Br7 Rb1 3.826508 1_555
Br8 Nb2 2.611181 1_555
Br8 Nb5 2.614469 1_556
Br8 Rb1 3.826507 1_555
Br9 Nb2 2.869800 1_555
Br9 Sr0 3.071663 1_555
Br9 Rb0 3.573693 1_565
Br10 Nb1 2.611181 1_555
Br10 Nb2 2.614469 1_545
Br10 Rb0 3.826508 1_555
Br11 Nb4 2.611181 1_555
Br11 Nb1 2.614469 1_655
Br11 Rb1 3.826507 1_555
Br12 Nb5 2.623817 1_555
Br12 Nb3 2.624099 1_465
Br12 Rb0 3.769567 1_565
Br12 Rb1 3.895249 1_455
Br13 Nb4 2.869800 1_555
Br13 Sr0 3.071663 1_555
Br13 Rb0 3.573693 1_556
Br14 Nb5 2.611181 1_555
Br14 Nb0 2.614469 1_455
Br14 Rb0 3.826507 1_555
Br15 Nb3 2.623817 1_555
Br15 Nb1 2.624099 1_654
Br15 Rb0 3.769567 1_655
Br15 Rb1 3.895249 1_554
Br16 Nb0 2.869800 1_555
Br16 Sr0 3.071663 1_555
Br16 Rb0 3.573693 1_655
Br17 Nb5 2.869800 1_555
Br17 Sr0 3.071663 1_555
Br17 Rb1 3.573693 1_554
