# generated using pymatgen
data_Zr10HgBi5B2
_symmetry_space_group_name_H-M   'P 1'
_cell_length_a   8.65715619
_cell_length_b   8.65470636
_cell_length_c   5.87126369
_cell_angle_alpha   90.00000000
_cell_angle_beta   90.00000000
_cell_angle_gamma   119.99064378
_symmetry_Int_Tables_number   1
_chemical_formula_structural   Zr10HgBi5B2
_chemical_formula_sum   'Zr10 Hg1 Bi5 B2'
_cell_volume   381.00506163
_cell_formula_units_Z   1
loop_
 _symmetry_equiv_pos_site_id
 _symmetry_equiv_pos_as_xyz
  1  'x, y, z'
loop_
 _atom_site_type_symbol
 _atom_site_label
 _atom_site_symmetry_multiplicity
 _atom_site_fract_x
 _atom_site_fract_y
 _atom_site_fract_z
 _atom_site_occupancy
  Zr  Zr0  1  0.66810629  0.33428884  0.00153965  1
  Zr  Zr1  1  0.33189371  0.66618455  0.00153965  1
  Zr  Zr2  1  0.33189371  0.66618455  0.49846035  1
  Zr  Zr3  1  0.66810629  0.33428884  0.49846035  1
  Zr  Zr4  1  0.77356219  0.77226168  0.75000000  1
  Zr  Zr5  1  0.22643781  0.99869949  0.75000000  1
  Zr  Zr6  1  1.00000000  0.22368782  0.75000000  1
  Zr  Zr7  1  0.22188920  0.22862603  0.25000000  1
  Zr  Zr8  1  0.77811080  0.00673683  0.25000000  1
  Zr  Zr9  1  1.00000000  0.77026080  0.25000000  1
  Hg  Hg0  1  1.00000000  0.39865854  0.25000000  1
  Bi  Bi0  1  0.39797548  0.39851182  0.75000000  1
  Bi  Bi1  1  0.60202452  0.00053534  0.75000000  1
  Bi  Bi2  1  1.00000000  0.59548919  0.75000000  1
  Bi  Bi3  1  0.60208354  0.60409255  0.25000000  1
  Bi  Bi4  1  0.39791646  0.00200901  0.25000000  1
  B  B0  1  0.00000000  0.99974257  0.00065813  1
  B  B1  1  0.00000000  0.99974257  0.49934187  1
loop_
_geom_bond_atom_site_label_1
_geom_bond_atom_site_label_2
_geom_bond_distance
_geom_bond_site_symmetry_2
Hg0 Zr8 2.946443 1_555
Hg0 Zr7 2.946443 1_655
Hg0 Zr3 3.015584 1_555
Hg0 Zr0 3.015584 1_555
Hg0 Zr2 3.015589 1_655
Hg0 Zr1 3.015589 1_655
Hg0 Zr9 3.216108 1_555
Hg0 Zr6 3.303195 1_554
Hg0 Zr6 3.303195 1_555
Bi0 Zr6 2.991349 1_455
Bi0 Zr5 3.006920 1_545
Bi0 Zr1 3.033162 1_556
Bi0 Zr2 3.033162 1_555
Bi0 Zr0 3.042764 1_556
Bi0 Zr3 3.042764 1_555
Bi0 Zr4 3.243595 1_555
Bi0 Zr7 3.295883 1_556
Bi0 Zr7 3.295883 1_555
Bi1 Zr6 2.991350 1_555
Bi1 Zr4 3.006912 1_545
Bi1 Zr0 3.033154 1_556
Bi1 Zr3 3.033154 1_555
Bi1 Zr1 3.042749 1_546
Bi1 Zr2 3.042749 1_545
Bi1 Zr5 3.243600 1_545
Bi1 Zr8 3.295882 1_556
Bi1 Zr8 3.295882 1_555
Bi2 Zr1 3.008914 1_656
Bi2 Zr2 3.008914 1_655
Bi2 Zr0 3.008918 1_556
Bi2 Zr3 3.008918 1_555
Bi2 Zr5 3.030131 1_655
Bi2 Zr4 3.030131 1_555
Bi2 Zr6 3.217832 1_555
Bi2 Zr9 3.302406 1_556
Bi2 Zr9 3.302406 1_555
Bi3 Zr9 2.997053 1_555
Bi3 Zr2 3.024025 1_555
Bi3 Zr1 3.024025 1_555
Bi3 Zr8 3.026044 1_565
Bi3 Zr3 3.039993 1_555
Bi3 Zr0 3.039993 1_555
Bi3 Zr7 3.271140 1_555
Bi3 Zr4 3.283297 1_555
Bi3 Zr4 3.283297 1_554
Bi4 Zr9 2.997053 1_445
Bi4 Zr3 3.024015 1_555
Bi4 Zr0 3.024015 1_555
Bi4 Zr7 3.026045 1_555
Bi4 Zr2 3.039978 1_545
Bi4 Zr1 3.039978 1_545
Bi4 Zr8 3.271141 1_555
Bi4 Zr5 3.283297 1_545
Bi4 Zr5 3.283297 1_544
B0 Zr6 2.433595 1_464
B0 Zr7 2.439884 1_565
B0 Zr8 2.439885 1_465
B0 Zr4 2.454877 1_454
B0 Zr5 2.454877 1_554
B0 Zr9 2.467334 1_455
B1 Zr6 2.433595 1_465
B1 Zr7 2.439884 1_565
B1 Zr8 2.439885 1_465
B1 Zr4 2.454877 1_455
B1 Zr5 2.454877 1_555
B1 Zr9 2.467334 1_455
