# generated using pymatgen
data_K3CuPtO4
_symmetry_space_group_name_H-M   'P 1'
_cell_length_a   5.51201110
_cell_length_b   5.51201134
_cell_length_c   11.07931256
_cell_angle_alpha   90.00000000
_cell_angle_beta   90.00000000
_cell_angle_gamma   113.14711678
_symmetry_Int_Tables_number   1
_chemical_formula_structural   K3CuPtO4
_chemical_formula_sum   'K6 Cu2 Pt2 O8'
_cell_volume   309.51667357
_cell_formula_units_Z   2
loop_
 _symmetry_equiv_pos_site_id
 _symmetry_equiv_pos_as_xyz
  1  'x, y, z'
loop_
 _atom_site_type_symbol
 _atom_site_label
 _atom_site_symmetry_multiplicity
 _atom_site_fract_x
 _atom_site_fract_y
 _atom_site_fract_z
 _atom_site_occupancy
  K  K0  1  0.35115963  0.64884037  0.92926370  1
  K  K1  1  0.64884037  0.35115963  0.42926370  1
  K  K2  1  0.64884037  0.35115963  0.07073630  1
  K  K3  1  0.35115963  0.64884037  0.57073630  1
  K  K4  1  0.70031926  0.29968074  0.75000000  1
  K  K5  1  0.29968074  0.70031926  0.25000000  1
  Cu  Cu0  1  0.00000000  0.00000000  0.00000000  1
  Cu  Cu1  1  0.00000000  0.00000000  0.50000000  1
  Pt  Pt0  1  0.07281142  0.92718858  0.75000000  1
  Pt  Pt1  1  0.92718858  0.07281142  0.25000000  1
  O  O0  1  0.71704018  0.86938622  0.10509582  1
  O  O1  1  0.28295982  0.13061378  0.60509582  1
  O  O2  1  0.86938622  0.71704018  0.89490418  1
  O  O3  1  0.13061378  0.28295982  0.39490418  1
  O  O4  1  0.28295982  0.13061378  0.89490418  1
  O  O5  1  0.71704018  0.86938622  0.39490418  1
  O  O6  1  0.13061378  0.28295982  0.10509582  1
  O  O7  1  0.86938622  0.71704018  0.60509582  1
loop_
_geom_bond_atom_site_label_1
_geom_bond_atom_site_label_2
_geom_bond_distance
_geom_bond_site_symmetry_2
K0 O0 2.722623 1_556
K0 O6 2.722623 1_556
K0 O2 2.757073 1_555
K0 O4 2.757073 1_555
K0 O2 2.850079 1_455
K0 O4 2.850079 1_565
K1 O1 2.722623 1_555
K1 O7 2.722623 1_555
K1 O3 2.757073 1_555
K1 O5 2.757073 1_555
K1 O3 2.850079 1_655
K1 O5 2.850079 1_545
K2 O4 2.722623 1_554
K2 O2 2.722623 1_554
K2 O6 2.757073 1_555
K2 O0 2.757073 1_555
K2 O6 2.850079 1_655
K2 O0 2.850079 1_545
K3 O5 2.722623 1_555
K3 O3 2.722623 1_555
K3 O7 2.757073 1_555
K3 O1 2.757073 1_555
K3 O7 2.850079 1_455
K3 O1 2.850079 1_565
K4 O4 2.655688 1_555
K4 O1 2.655688 1_555
K4 O2 2.655688 1_555
K4 O7 2.655688 1_555
K5 O5 2.655688 1_555
K5 O0 2.655688 1_555
K5 O3 2.655688 1_555
K5 O6 2.655688 1_555
Cu0 O0 1.850385 1_445
Cu0 O4 1.850385 1_554
Cu0 O6 1.850385 1_555
Cu0 O2 1.850385 1_444
Cu1 O1 1.850385 1_555
Cu1 O5 1.850385 1_445
Cu1 O7 1.850385 1_445
Cu1 O3 1.850385 1_555
O0 Pt1 2.038465 1_565
O1 Pt0 2.038465 1_545
O2 Pt0 2.038465 1_655
O3 Pt1 2.038465 1_455
O4 Pt0 2.038465 1_545
O5 Pt1 2.038465 1_565
O6 Pt1 2.038465 1_455
O7 Pt0 2.038465 1_655
