# generated using pymatgen
data_Ba9Sr(BiSb3)2
_symmetry_space_group_name_H-M   'P 1'
_cell_length_a   10.07537696
_cell_length_b   10.07537683
_cell_length_c   9.18768063
_cell_angle_alpha   90.14241966
_cell_angle_beta   90.14241816
_cell_angle_gamma   126.04401919
_symmetry_Int_Tables_number   1
_chemical_formula_structural   Ba9Sr(BiSb3)2
_chemical_formula_sum   'Ba9 Sr1 Bi2 Sb6'
_cell_volume   754.11400002
_cell_formula_units_Z   1
loop_
 _symmetry_equiv_pos_site_id
 _symmetry_equiv_pos_as_xyz
  1  'x, y, z'
loop_
 _atom_site_type_symbol
 _atom_site_label
 _atom_site_symmetry_multiplicity
 _atom_site_fract_x
 _atom_site_fract_y
 _atom_site_fract_z
 _atom_site_occupancy
  Ba  Ba0  1  0.99781827  0.99781827  0.00585247  1
  Ba  Ba1  1  0.31685127  0.02164411  0.66220027  1
  Ba  Ba2  1  0.52061949  0.81404315  0.83720459  1
  Ba  Ba3  1  0.18720004  0.47855758  0.16538957  1
  Ba  Ba4  1  0.97741712  0.68374833  0.33498744  1
  Ba  Ba5  1  0.68374833  0.97741712  0.33498744  1
  Ba  Ba6  1  0.47855758  0.18720004  0.16538957  1
  Ba  Ba7  1  0.81404315  0.52061949  0.83720459  1
  Ba  Ba8  1  0.02164411  0.31685127  0.66220027  1
  Sr  Sr0  1  0.49794205  0.49794205  0.49396876  1
  Bi  Bi0  1  0.87918051  0.87918051  0.61136807  1
  Bi  Bi1  1  0.38843764  0.38843764  0.87844369  1
  Sb  Sb0  1  0.61208443  0.61208443  0.12079873  1
  Sb  Sb1  1  0.12125427  0.12125427  0.39032250  1
  Sb  Sb2  1  0.19841686  0.80309740  0.99998467  1
  Sb  Sb3  1  0.30677902  0.69490847  0.49985736  1
  Sb  Sb4  1  0.80309740  0.19841686  0.99998467  1
  Sb  Sb5  1  0.69490847  0.30677902  0.49985736  1
loop_
_geom_bond_atom_site_label_1
_geom_bond_atom_site_label_2
_geom_bond_distance
_geom_bond_site_symmetry_2
Ba0 Sb2 3.550080 1_654
Ba0 Sb4 3.550080 1_564
Ba0 Sb0 3.686424 1_555
Ba0 Sb1 3.702338 1_665
Ba0 Bi1 3.763858 1_664
Ba0 Bi0 3.777478 1_554
Ba1 Sb5 3.486949 1_555
Ba1 Sb3 3.557231 1_545
Ba1 Sb2 3.586665 1_545
Ba1 Sb1 3.666893 1_555
Ba1 Bi0 3.776448 1_445
Ba1 Bi1 3.865803 1_555
Ba2 Sb4 3.509122 1_565
Ba2 Sb2 3.520098 1_555
Ba2 Sb3 3.548829 1_555
Ba2 Bi1 3.687178 1_555
Ba2 Sb0 3.741637 1_556
Ba2 Bi0 3.878277 1_555
Ba3 Sb4 3.513945 1_454
Ba3 Sb3 3.536109 1_555
Ba3 Sb2 3.550337 1_554
Ba3 Sb0 3.679344 1_555
Ba3 Bi1 3.750600 1_554
Ba3 Sb1 3.860191 1_555
Ba4 Sb5 3.485644 1_555
Ba4 Sb2 3.574766 1_654
Ba4 Sb3 3.585291 1_655
Ba4 Bi0 3.685917 1_555
Ba4 Sb1 3.775841 1_665
Ba4 Sb0 3.843435 1_555
Ba5 Sb3 3.485644 1_555
Ba5 Sb4 3.574766 1_564
Ba5 Sb5 3.585291 1_565
Ba5 Bi0 3.685917 1_555
Ba5 Sb1 3.775841 1_665
Ba5 Sb0 3.843435 1_555
Ba6 Sb2 3.513945 1_544
Ba6 Sb5 3.536109 1_555
Ba6 Sb4 3.550337 1_554
Ba6 Sb0 3.679344 1_555
Ba6 Bi1 3.750600 1_554
Ba6 Sb1 3.860191 1_555
Ba7 Sb2 3.509122 1_655
Ba7 Sb4 3.520098 1_555
Ba7 Sb5 3.548829 1_555
Ba7 Bi1 3.687178 1_555
Ba7 Sb0 3.741637 1_556
Ba7 Bi0 3.878277 1_555
Ba8 Sb3 3.486949 1_555
Ba8 Sb5 3.557231 1_455
Ba8 Sb4 3.586665 1_455
Ba8 Sb1 3.666893 1_555
Ba8 Bi0 3.776448 1_445
Ba8 Bi1 3.865803 1_555
Bi0 Sb1 3.011749 1_665
Bi0 Sr0 3.642487 1_555
Bi1 Sb0 3.014620 1_556
Bi1 Sr0 3.676802 1_555
Sb0 Sr0 3.589289 1_555
Sb1 Sr0 3.567651 1_555
Sb3 Sr0 3.485526 1_555
Sb5 Sr0 3.485526 1_555
