# generated using pymatgen
data_Zr10In3Ga2Te3
_symmetry_space_group_name_H-M   'P 1'
_cell_length_a   8.69724135
_cell_length_b   8.69724263
_cell_length_c   5.85928169
_cell_angle_alpha   90.00000000
_cell_angle_beta   90.00000000
_cell_angle_gamma   119.99999513
_symmetry_Int_Tables_number   1
_chemical_formula_structural   Zr10In3Ga2Te3
_chemical_formula_sum   'Zr10 In3 Ga2 Te3'
_cell_volume   383.82931305
_cell_formula_units_Z   1
loop_
 _symmetry_equiv_pos_site_id
 _symmetry_equiv_pos_as_xyz
  1  'x, y, z'
loop_
 _atom_site_type_symbol
 _atom_site_label
 _atom_site_symmetry_multiplicity
 _atom_site_fract_x
 _atom_site_fract_y
 _atom_site_fract_z
 _atom_site_occupancy
  Zr  Zr0  1  0.74337963  0.74337963  0.25000000  1
  Zr  Zr1  1  0.25662037  0.00000000  0.25000000  1
  Zr  Zr2  1  0.00000000  0.25662037  0.25000000  1
  Zr  Zr3  1  0.27610755  0.27610755  0.75000000  1
  Zr  Zr4  1  0.72389245  0.00000000  0.75000000  1
  Zr  Zr5  1  1.00000000  0.72389245  0.75000000  1
  Zr  Zr6  1  0.66666700  0.33333300  0.50531235  1
  Zr  Zr7  1  0.33333300  0.66666700  0.50531235  1
  Zr  Zr8  1  0.33333300  0.66666700  0.99468765  1
  Zr  Zr9  1  0.66666700  0.33333300  0.99468765  1
  In  In0  1  0.62044139  0.62044139  0.75000000  1
  In  In1  1  0.37955861  0.00000000  0.75000000  1
  In  In2  1  0.00000000  0.37955861  0.75000000  1
  Ga  Ga0  1  0.00000000  0.00000000  0.52056835  1
  Ga  Ga1  1  0.00000000  0.00000000  0.97943165  1
  Te  Te0  1  0.39812882  0.39812882  0.25000000  1
  Te  Te1  1  0.60187118  0.00000000  0.25000000  1
  Te  Te2  1  0.00000000  0.60187118  0.25000000  1
loop_
_geom_bond_atom_site_label_1
_geom_bond_atom_site_label_2
_geom_bond_distance
_geom_bond_site_symmetry_2
Zr6 Zr9 2.867388 1_555
Zr6 Zr9 2.991894 1_554
Zr7 Zr8 2.867388 1_555
Zr7 Zr8 2.991894 1_554
In0 Zr5 2.955797 1_555
In0 Zr4 2.955798 1_565
In0 Zr3 2.994755 1_555
In0 Zr8 3.075106 1_555
In0 Zr7 3.075106 1_555
In0 Zr9 3.075106 1_555
In0 Zr6 3.075106 1_555
In0 Zr0 3.118659 1_555
In0 Zr0 3.118659 1_556
In1 Zr3 2.955797 1_555
In1 Zr5 2.955797 1_445
In1 Zr4 2.994755 1_555
In1 Zr8 3.075099 1_545
In1 Zr7 3.075099 1_545
In1 Zr9 3.075102 1_555
In1 Zr6 3.075102 1_555
In1 Zr1 3.118659 1_555
In1 Zr1 3.118659 1_556
In2 Zr3 2.955797 1_555
In2 Zr4 2.955798 1_455
In2 Zr5 2.994755 1_455
In2 Zr9 3.075098 1_455
In2 Zr6 3.075098 1_455
In2 Zr8 3.075102 1_555
In2 Zr7 3.075102 1_555
In2 Zr2 3.118659 1_556
In2 Zr2 3.118659 1_555
Ga0 Zr1 2.737630 1_555
Ga0 Zr2 2.737631 1_555
Ga0 Zr0 2.737631 1_445
Ga0 Zr4 2.752045 1_455
Ga0 Zr5 2.752045 1_445
Ga0 Zr3 2.752045 1_555
Ga1 Zr1 2.737630 1_556
Ga1 Zr2 2.737631 1_556
Ga1 Zr0 2.737631 1_446
Ga1 Zr4 2.752045 1_455
Ga1 Zr5 2.752045 1_445
Ga1 Zr3 2.752045 1_555
Te0 Zr0 3.002730 1_555
Te0 Zr2 3.040213 1_555
Te0 Zr1 3.040213 1_555
Te0 Zr6 3.053912 1_555
Te0 Zr9 3.053912 1_554
Te0 Zr7 3.053912 1_555
Te0 Zr8 3.053912 1_554
Te0 Zr3 3.115934 1_554
Te0 Zr3 3.115934 1_555
Te1 Zr1 3.002730 1_555
Te1 Zr0 3.040213 1_545
Te1 Zr2 3.040213 1_655
Te1 Zr6 3.053905 1_555
Te1 Zr9 3.053905 1_554
Te1 Zr7 3.053907 1_545
Te1 Zr8 3.053907 1_544
Te1 Zr4 3.115934 1_555
Te1 Zr4 3.115934 1_554
Te2 Zr2 3.002730 1_555
Te2 Zr0 3.040213 1_455
Te2 Zr1 3.040213 1_565
Te2 Zr7 3.053904 1_555
Te2 Zr8 3.053904 1_554
Te2 Zr6 3.053907 1_455
Te2 Zr9 3.053907 1_454
Te2 Zr5 3.115934 1_455
Te2 Zr5 3.115934 1_454
