# generated using pymatgen
data_Cs4AsRhCl12
_symmetry_space_group_name_H-M   'P 1'
_cell_length_a   7.25498419
_cell_length_b   7.25498419
_cell_length_c   10.40247001
_cell_angle_alpha   90.00000000
_cell_angle_beta   90.00000000
_cell_angle_gamma   90.00000000
_symmetry_Int_Tables_number   1
_chemical_formula_structural   Cs4AsRhCl12
_chemical_formula_sum   'Cs4 As1 Rh1 Cl12'
_cell_volume   547.53188261
_cell_formula_units_Z   1
loop_
 _symmetry_equiv_pos_site_id
 _symmetry_equiv_pos_as_xyz
  1  'x, y, z'
loop_
 _atom_site_type_symbol
 _atom_site_label
 _atom_site_symmetry_multiplicity
 _atom_site_fract_x
 _atom_site_fract_y
 _atom_site_fract_z
 _atom_site_occupancy
  Cs  Cs0  1  0.50000000  0.00000000  0.76424945  1
  Cs  Cs1  1  0.00000000  0.50000000  0.23575055  1
  Cs  Cs2  1  0.50000000  0.00000000  0.23575055  1
  Cs  Cs3  1  0.00000000  0.50000000  0.76424945  1
  As  As0  1  0.50000000  0.50000000  0.50000000  1
  Rh  Rh0  1  0.00000000  0.00000000  0.00000000  1
  Cl  Cl0  1  0.00000000  0.00000000  0.77285139  1
  Cl  Cl1  1  0.50000000  0.50000000  0.27718937  1
  Cl  Cl2  1  0.72586543  0.72586543  0.50000000  1
  Cl  Cl3  1  0.22886117  0.22886117  0.00000000  1
  Cl  Cl4  1  0.72586543  0.27413457  0.50000000  1
  Cl  Cl5  1  0.22886117  0.77113883  0.00000000  1
  Cl  Cl6  1  0.00000000  0.00000000  0.22714861  1
  Cl  Cl7  1  0.50000000  0.50000000  0.72281063  1
  Cl  Cl8  1  0.27413457  0.27413457  0.50000000  1
  Cl  Cl9  1  0.77113883  0.77113883  0.00000000  1
  Cl  Cl10  1  0.27413457  0.72586543  0.50000000  1
  Cl  Cl11  1  0.77113883  0.22886117  0.00000000  1
loop_
_geom_bond_atom_site_label_1
_geom_bond_atom_site_label_2
_geom_bond_distance
_geom_bond_site_symmetry_2
As0 Cl2 2.317401 1_555
As0 Cl4 2.317401 1_555
As0 Cl10 2.317401 1_555
As0 Cl8 2.317401 1_555
As0 Cl7 2.317781 1_555
As0 Cl1 2.317781 1_555
Cl0 Rh0 2.362907 1_556
Cl0 Cs0 3.628596 1_455
Cl0 Cs3 3.628596 1_545
Cl0 Cs3 3.628596 1_555
Cl0 Cs0 3.628596 1_555
Cl1 Cs1 3.653015 1_655
Cl1 Cs1 3.653015 1_555
Cl1 Cs2 3.653015 1_565
Cl1 Cs2 3.653015 1_555
Cl2 Cs3 3.767868 1_655
Cl2 Cs0 3.767868 1_565
Cl2 Cs1 3.767868 1_655
Cl2 Cs2 3.767868 1_565
Cl3 Rh0 2.348138 1_555
Cl3 Cs2 3.555362 1_555
Cl3 Cs1 3.555362 1_555
Cl3 Cs3 3.555362 1_554
Cl3 Cs0 3.555362 1_554
Cl4 Cs0 3.767868 1_555
Cl4 Cs3 3.767868 1_655
Cl4 Cs2 3.767868 1_555
Cl4 Cs1 3.767868 1_655
Cl5 Rh0 2.348138 1_565
Cl5 Cs1 3.555362 1_555
Cl5 Cs3 3.555362 1_554
Cl5 Cs2 3.555362 1_565
Cl5 Cs0 3.555362 1_564
Cl6 Rh0 2.362907 1_555
Cl6 Cs1 3.628596 1_545
Cl6 Cs2 3.628596 1_555
Cl6 Cs1 3.628596 1_555
Cl6 Cs2 3.628596 1_455
Cl7 Cs3 3.653015 1_555
Cl7 Cs3 3.653015 1_655
Cl7 Cs0 3.653015 1_555
Cl7 Cs0 3.653015 1_565
Cl8 Cs3 3.767868 1_555
Cl8 Cs0 3.767868 1_555
Cl8 Cs1 3.767868 1_555
Cl8 Cs2 3.767868 1_555
Cl9 Rh0 2.348138 1_665
Cl9 Cs2 3.555362 1_565
Cl9 Cs1 3.555362 1_655
Cl9 Cs0 3.555362 1_564
Cl9 Cs3 3.555362 1_654
Cl10 Cs3 3.767868 1_555
Cl10 Cs1 3.767868 1_555
Cl10 Cs0 3.767868 1_565
Cl10 Cs2 3.767868 1_565
Cl11 Rh0 2.348138 1_655
Cl11 Cs2 3.555362 1_555
Cl11 Cs0 3.555362 1_554
Cl11 Cs1 3.555362 1_655
Cl11 Cs3 3.555362 1_654
