# generated using pymatgen
data_Na2SrZnSb2
_symmetry_space_group_name_H-M   'P 1'
_cell_length_a   4.70717593
_cell_length_b   8.04061728
_cell_length_c   8.88540475
_cell_angle_alpha   90.00000000
_cell_angle_beta   90.00000000
_cell_angle_gamma   90.00000000
_symmetry_Int_Tables_number   1
_chemical_formula_structural   Na2SrZnSb2
_chemical_formula_sum   'Na4 Sr2 Zn2 Sb4'
_cell_volume   336.30013137
_cell_formula_units_Z   2
loop_
 _symmetry_equiv_pos_site_id
 _symmetry_equiv_pos_as_xyz
  1  'x, y, z'
loop_
 _atom_site_type_symbol
 _atom_site_label
 _atom_site_symmetry_multiplicity
 _atom_site_fract_x
 _atom_site_fract_y
 _atom_site_fract_z
 _atom_site_occupancy
  Na  Na0  1  0.50000000  0.02483380  0.42111745  1
  Na  Na1  1  0.00000000  0.35103500  0.34175437  1
  Na  Na2  1  0.50000000  0.52483380  0.57888255  1
  Na  Na3  1  0.00000000  0.85103500  0.65824563  1
  Sr  Sr0  1  0.00000000  0.50149450  0.95077592  1
  Sr  Sr1  1  0.00000000  0.00149450  0.04922408  1
  Zn  Zn0  1  0.50000000  0.15171910  0.81967496  1
  Zn  Zn1  1  0.50000000  0.65171910  0.18032504  1
  Sb  Sb0  1  0.00000000  0.23169251  0.67106877  1
  Sb  Sb1  1  0.50000000  0.28474509  0.12630784  1
  Sb  Sb2  1  0.00000000  0.73169251  0.32893123  1
  Sb  Sb3  1  0.50000000  0.78474509  0.87369216  1
loop_
_geom_bond_atom_site_label_1
_geom_bond_atom_site_label_2
_geom_bond_distance
_geom_bond_site_symmetry_2
Na0 Sb1 3.351008 1_555
Na0 Sb2 3.430152 1_545
Na0 Sb2 3.430152 1_645
Na0 Sb0 3.638451 1_655
Na0 Sb0 3.638451 1_555
Na1 Sb2 3.062841 1_555
Na1 Sb0 3.079419 1_555
Na1 Sb1 3.080282 1_455
Na1 Sb1 3.080282 1_555
Na2 Sb3 3.351008 1_555
Na2 Sb0 3.430152 1_655
Na2 Sb0 3.430152 1_555
Na2 Sb2 3.638451 1_555
Na2 Sb2 3.638451 1_655
Na3 Sb0 3.062841 1_565
Na3 Sb2 3.079419 1_555
Na3 Sb3 3.080282 1_555
Na3 Sb3 3.080282 1_455
Sr0 Zn1 3.340436 1_556
Sr0 Zn1 3.340436 1_456
Sr1 Zn0 3.340436 1_554
Sr1 Zn0 3.340436 1_454
Sb0 Zn0 2.774238 1_555
Sb0 Zn0 2.774238 1_455
Sb0 Sr0 3.298933 1_555
Sb0 Sr1 3.836141 1_556
Sb1 Zn0 2.926992 1_554
Sb1 Zn1 2.989479 1_555
Sb1 Sr0 3.318027 1_654
Sb1 Sr0 3.318027 1_554
Sb1 Sr1 3.345974 1_555
Sb1 Sr1 3.345974 1_655
Sb2 Zn1 2.774238 1_555
Sb2 Zn1 2.774238 1_455
Sb2 Sr1 3.298933 1_565
Sb2 Sr0 3.836141 1_554
Sb3 Zn1 2.926992 1_556
Sb3 Zn0 2.989479 1_565
Sb3 Sr1 3.318027 1_566
Sb3 Sr1 3.318027 1_666
Sb3 Sr0 3.345974 1_655
Sb3 Sr0 3.345974 1_555
