# generated using pymatgen
data_NaCa(Si2Pd3)2
_symmetry_space_group_name_H-M   'P 1'
_cell_length_a   6.70256139
_cell_length_b   6.70256119
_cell_length_c   6.70256162
_cell_angle_alpha   129.70277396
_cell_angle_beta   116.05455408
_cell_angle_gamma   85.52455520
_symmetry_Int_Tables_number   1
_chemical_formula_structural   NaCa(Si2Pd3)2
_chemical_formula_sum   'Na1 Ca1 Si4 Pd6'
_cell_volume   198.98377721
_cell_formula_units_Z   1
loop_
 _symmetry_equiv_pos_site_id
 _symmetry_equiv_pos_as_xyz
  1  'x, y, z'
loop_
 _atom_site_type_symbol
 _atom_site_label
 _atom_site_symmetry_multiplicity
 _atom_site_fract_x
 _atom_site_fract_y
 _atom_site_fract_z
 _atom_site_occupancy
  Na  Na0  1  0.50000000  0.02241414  0.52241414  1
  Ca  Ca0  1  0.00000000  0.95499392  0.95499392  1
  Si  Si0  1  0.31697458  0.38975534  0.07278077  1
  Si  Si1  1  0.83772140  0.27402107  0.43630067  1
  Si  Si2  1  0.68302542  0.75580519  0.07278077  1
  Si  Si3  1  0.16227860  0.59857927  0.43630067  1
  Pd  Pd0  1  0.95017384  0.49472227  0.94789245  1
  Pd  Pd1  1  0.54682982  0.49472227  0.54454843  1
  Pd  Pd2  1  0.04982616  0.99771761  0.54454843  1
  Pd  Pd3  1  0.72741939  0.50227615  0.22969554  1
  Pd  Pd4  1  0.27258061  0.50227615  0.77485575  1
  Pd  Pd5  1  0.45317018  0.99771761  0.94789245  1
loop_
_geom_bond_atom_site_label_1
_geom_bond_atom_site_label_2
_geom_bond_distance
_geom_bond_site_symmetry_2
Na0 Pd1 3.107436 1_555
Na0 Pd0 3.107437 1_555
Na0 Pd2 3.107438 1_545
Na0 Pd5 3.107441 1_545
Na0 Si2 3.131395 1_545
Na0 Si0 3.131396 1_545
Na0 Pd4 3.174700 1_555
Na0 Pd3 3.174700 1_556
Na0 Si1 3.359767 1_555
Na0 Si3 3.359771 1_545
Na0 Pd3 3.374284 1_545
Na0 Pd4 3.374289 1_544
Na0 Pd5 3.617499 1_544
Na0 Pd1 3.617503 1_545
Na0 Pd2 3.617503 1_645
Na0 Pd0 3.617503 1_444
Ca0 Pd2 3.096806 1_555
Ca0 Pd5 3.096809 1_555
Ca0 Pd0 3.096811 1_455
Ca0 Pd1 3.096811 1_455
Ca0 Si3 3.173113 1_566
Ca0 Si1 3.173113 1_466
Ca0 Si0 3.190927 1_566
Ca0 Si2 3.190932 1_456
Ca0 Pd4 3.224116 1_555
Ca0 Pd3 3.224116 1_455
Ca0 Si3 3.358861 1_555
Ca0 Si1 3.358866 1_455
Ca0 Na0 3.569831 1_465
Ca0 Na0 3.569831 1_566
Ca0 Pd0 3.635662 1_465
Ca0 Pd5 3.635662 1_455
Ca0 Pd1 3.635662 1_566
Ca0 Pd2 3.635666 1_556
Ca0 Pd4 3.669302 1_566
Ca0 Pd3 3.669306 1_466
Si0 Si3 2.570307 1_555
Si1 Si2 2.570307 1_545
Pd0 Si0 2.431990 1_656
Pd0 Si2 2.434193 1_556
Pd0 Si1 2.436666 1_555
Pd0 Si3 2.525244 1_656
Pd1 Si0 2.431990 1_555
Pd1 Si2 2.434197 1_556
Pd1 Si1 2.436670 1_555
Pd1 Si3 2.525244 1_555
Pd2 Si2 2.431990 1_455
Pd2 Si0 2.434197 1_566
Pd2 Si3 2.436662 1_555
Pd2 Si1 2.525244 1_465
Pd3 Si2 2.451898 1_555
Pd3 Si0 2.451904 1_555
Pd3 Si3 2.536847 1_655
Pd3 Si1 2.536853 1_555
Pd4 Si2 2.451901 1_556
Pd4 Si0 2.451910 1_556
Pd4 Si3 2.536841 1_555
Pd4 Si1 2.536848 1_455
Pd5 Si2 2.431990 1_556
Pd5 Si0 2.434201 1_566
Pd5 Si3 2.436666 1_555
Pd5 Si1 2.525244 1_566
