# generated using pymatgen
data_Sr2NbRhO6
_symmetry_space_group_name_H-M   'P 1'
_cell_length_a   5.65487985
_cell_length_b   5.61909438
_cell_length_c   7.97336761
_cell_angle_alpha   90.00000000
_cell_angle_beta   89.97057543
_cell_angle_gamma   90.00000000
_symmetry_Int_Tables_number   1
_chemical_formula_structural   Sr2NbRhO6
_chemical_formula_sum   'Sr4 Nb2 Rh2 O12'
_cell_volume   253.35614322
_cell_formula_units_Z   2
loop_
 _symmetry_equiv_pos_site_id
 _symmetry_equiv_pos_as_xyz
  1  'x, y, z'
loop_
 _atom_site_type_symbol
 _atom_site_label
 _atom_site_symmetry_multiplicity
 _atom_site_fract_x
 _atom_site_fract_y
 _atom_site_fract_z
 _atom_site_occupancy
  Sr  Sr0  1  0.00279970  0.98203536  0.75098584  1
  Sr  Sr1  1  0.49720030  0.48203536  0.74901416  1
  Sr  Sr2  1  0.50279970  0.51796464  0.25098584  1
  Sr  Sr3  1  0.99720030  0.01796464  0.24901416  1
  Nb  Nb0  1  0.00000000  0.50000000  0.50000000  1
  Nb  Nb1  1  0.50000000  0.00000000  0.00000000  1
  Rh  Rh0  1  0.50000000  0.00000000  0.50000000  1
  Rh  Rh1  1  0.00000000  0.50000000  0.00000000  1
  O  O0  1  0.72661970  0.27748913  0.47435266  1
  O  O1  1  0.77338030  0.77748913  0.02564734  1
  O  O2  1  0.22203332  0.22557392  0.52609771  1
  O  O3  1  0.27796668  0.72557392  0.97390229  1
  O  O4  1  0.27338030  0.72251087  0.52564734  1
  O  O5  1  0.22661970  0.22251087  0.97435266  1
  O  O6  1  0.77796668  0.77442608  0.47390229  1
  O  O7  1  0.72203332  0.27442608  0.02609771  1
  O  O8  1  0.05016968  0.49535498  0.25189869  1
  O  O9  1  0.44983032  0.99535498  0.24810131  1
  O  O10  1  0.55016968  0.00464502  0.75189869  1
  O  O11  1  0.94983032  0.50464502  0.74810131  1
loop_
_geom_bond_atom_site_label_1
_geom_bond_atom_site_label_2
_geom_bond_distance
_geom_bond_site_symmetry_2
Nb0 O11 1.998469 1_455
Nb0 O8 1.998469 1_555
Nb0 O4 1.998831 1_555
Nb0 O0 1.998831 1_455
Nb0 O6 1.999468 1_455
Nb0 O2 1.999468 1_555
Nb1 O10 1.998469 1_554
Nb1 O9 1.998469 1_545
Nb1 O5 1.998831 1_554
Nb1 O1 1.998831 1_545
Nb1 O7 1.999468 1_555
Nb1 O3 1.999468 1_544
O0 Rh0 2.028554 1_555
O0 Sr2 2.569445 1_555
O0 Sr3 2.773654 1_555
O0 Sr1 2.792348 1_555
O0 Sr0 3.172374 1_645
O1 Rh1 2.028554 1_655
O1 Sr3 2.569445 1_565
O1 Sr2 2.773654 1_555
O1 Sr0 2.792348 1_654
O1 Sr1 3.172374 1_554
O2 Rh0 2.029863 1_555
O2 Sr0 2.573448 1_545
O2 Sr1 2.767659 1_555
O2 Sr3 2.803785 1_455
O2 Sr2 3.166751 1_555
O3 Rh1 2.029863 1_556
O3 Sr1 2.573448 1_555
O3 Sr0 2.767659 1_555
O3 Sr2 2.803785 1_556
O3 Sr3 3.166751 1_466
O4 Rh0 2.028554 1_565
O4 Sr1 2.569445 1_555
O4 Sr0 2.773654 1_555
O4 Sr2 2.792348 1_555
O4 Sr3 3.172374 1_465
O5 Rh1 2.028554 1_556
O5 Sr0 2.569445 1_545
O5 Sr1 2.773654 1_555
O5 Sr3 2.792348 1_456
O5 Sr2 3.172374 1_556
O6 Rh0 2.029863 1_565
O6 Sr3 2.573448 1_565
O6 Sr2 2.767659 1_555
O6 Sr0 2.803785 1_655
O6 Sr1 3.166751 1_555
O7 Rh1 2.029863 1_655
O7 Sr2 2.573448 1_555
O7 Sr3 2.767659 1_555
O7 Sr1 2.803785 1_554
O7 Sr0 3.166751 1_644
O8 Rh1 2.028731 1_555
O8 Sr2 2.562726 1_555
O8 Sr3 2.699272 1_455
O8 Sr3 2.951921 1_465
O8 Sr2 3.097930 1_455
O9 Rh0 2.028731 1_565
O9 Sr3 2.562726 1_465
O9 Sr2 2.699272 1_555
O9 Sr2 2.951921 1_565
O9 Sr3 3.097930 1_565
O10 Rh0 2.028731 1_555
O10 Sr0 2.562726 1_645
O10 Sr1 2.699272 1_555
O10 Sr1 2.951921 1_545
O10 Sr0 3.097930 1_545
O11 Rh1 2.028731 1_656
O11 Sr1 2.562726 1_555
O11 Sr0 2.699272 1_655
O11 Sr0 2.951921 1_645
O11 Sr1 3.097930 1_655
