# generated using pymatgen
data_Na2TaCr3S8
_symmetry_space_group_name_H-M   'P 1'
_cell_length_a   13.77189393
_cell_length_b   6.03053559
_cell_length_c   6.94450969
_cell_angle_alpha   90.01460727
_cell_angle_beta   90.00000000
_cell_angle_gamma   90.00000000
_symmetry_Int_Tables_number   1
_chemical_formula_structural   Na2TaCr3S8
_chemical_formula_sum   'Na4 Ta2 Cr6 S16'
_cell_volume   576.75468085
_cell_formula_units_Z   2
loop_
 _symmetry_equiv_pos_site_id
 _symmetry_equiv_pos_as_xyz
  1  'x, y, z'
loop_
 _atom_site_type_symbol
 _atom_site_label
 _atom_site_symmetry_multiplicity
 _atom_site_fract_x
 _atom_site_fract_y
 _atom_site_fract_z
 _atom_site_occupancy
  Na  Na0  1  0.25000000  0.66199771  0.73372080  1
  Na  Na1  1  0.75000000  0.33800229  0.26627920  1
  Na  Na2  1  0.75000000  0.99066529  0.73317352  1
  Na  Na3  1  0.25000000  0.00933471  0.26682648  1
  Ta  Ta0  1  0.50000000  0.50000000  0.00000000  1
  Ta  Ta1  1  0.00000000  0.50000000  0.00000000  1
  Cr  Cr0  1  0.49868322  0.99982080  0.74876716  1
  Cr  Cr1  1  0.00131678  0.99982080  0.74876716  1
  Cr  Cr2  1  0.50131678  0.00017920  0.25123284  1
  Cr  Cr3  1  0.99868322  0.00017920  0.25123284  1
  Cr  Cr4  1  0.00000000  0.50000000  0.50000000  1
  Cr  Cr5  1  0.50000000  0.50000000  0.50000000  1
  S  S0  1  0.60117363  0.16454609  0.99995398  1
  S  S1  1  0.90483833  0.16606350  0.50019739  1
  S  S2  1  0.40483833  0.83393650  0.49980261  1
  S  S3  1  0.10117363  0.83545391  0.00004602  1
  S  S4  1  0.39882637  0.83545391  0.00004602  1
  S  S5  1  0.09516167  0.83393650  0.49980261  1
  S  S6  1  0.59516167  0.16606350  0.50019739  1
  S  S7  1  0.89882637  0.16454609  0.99995398  1
  S  S8  1  0.40007703  0.33110554  0.74733095  1
  S  S9  1  0.09992297  0.33110554  0.74733095  1
  S  S10  1  0.59992297  0.66889446  0.25266905  1
  S  S11  1  0.90007703  0.66889446  0.25266905  1
  S  S12  1  0.59909758  0.66862700  0.74714188  1
  S  S13  1  0.90090242  0.66862700  0.74714188  1
  S  S14  1  0.40090242  0.33137300  0.25285812  1
  S  S15  1  0.09909758  0.33137300  0.25285812  1
loop_
_geom_bond_atom_site_label_1
_geom_bond_atom_site_label_2
_geom_bond_distance
_geom_bond_site_symmetry_2
Na0 S5 2.874372 1_555
Na0 S2 2.874372 1_555
Na0 S8 2.874496 1_555
Na0 S9 2.874496 1_555
Na0 S4 2.952082 1_556
Na0 S3 2.952082 1_556
Na1 S6 2.874372 1_555
Na1 S1 2.874372 1_555
Na1 S11 2.874496 1_555
Na1 S10 2.874496 1_555
Na1 S7 2.952082 1_554
Na1 S0 2.952082 1_554
Na2 S13 2.846064 1_555
Na2 S12 2.846064 1_555
Na2 S6 2.878284 1_565
Na2 S1 2.878284 1_565
Na2 S7 2.954971 1_565
Na2 S0 2.954971 1_565
Na3 S14 2.846064 1_555
Na3 S15 2.846064 1_555
Na3 S5 2.878284 1_545
Na3 S2 2.878284 1_545
Na3 S4 2.954971 1_545
Na3 S3 2.954971 1_545
Cr0 S2 2.378957 1_555
Cr0 S6 2.398150 1_565
Cr0 S8 2.415690 1_565
Cr0 S12 2.429327 1_555
Cr0 S4 2.433039 1_556
Cr0 S0 2.453782 1_565
Cr1 S5 2.378957 1_555
Cr1 S1 2.398150 1_465
Cr1 S9 2.415690 1_565
Cr1 S13 2.429327 1_455
Cr1 S3 2.433039 1_556
Cr1 S7 2.453782 1_465
Cr2 S6 2.378957 1_555
Cr2 S2 2.398150 1_545
Cr2 S10 2.415690 1_545
Cr2 S14 2.429327 1_555
Cr2 S0 2.433039 1_554
Cr2 S4 2.453782 1_545
Cr3 S1 2.378957 1_555
Cr3 S5 2.398150 1_645
Cr3 S11 2.415690 1_545
Cr3 S15 2.429327 1_655
Cr3 S7 2.433039 1_554
Cr3 S3 2.453782 1_645
Cr4 S5 2.402710 1_555
Cr4 S1 2.402710 1_455
Cr4 S15 2.416900 1_555
Cr4 S13 2.416900 1_455
Cr4 S9 2.425311 1_555
Cr4 S11 2.425311 1_455
Cr5 S2 2.402710 1_555
Cr5 S6 2.402710 1_555
Cr5 S12 2.416900 1_555
Cr5 S14 2.416900 1_555
Cr5 S10 2.425311 1_555
Cr5 S8 2.425311 1_555
S0 Ta0 2.456385 1_556
S3 Ta1 2.456385 1_555
S4 Ta0 2.456385 1_555
S7 Ta1 2.456385 1_656
S8 Ta0 2.451337 1_556
S9 Ta1 2.451337 1_556
S10 Ta0 2.451337 1_555
S11 Ta1 2.451337 1_655
S12 Ta0 2.445617 1_556
S13 Ta1 2.445617 1_656
S14 Ta0 2.445617 1_555
S15 Ta1 2.445617 1_555
