# generated using pymatgen
data_Y8In3Ag4Os
_symmetry_space_group_name_H-M   'P 1'
_cell_length_a   7.32999457
_cell_length_b   7.27261932
_cell_length_c   7.33466340
_cell_angle_alpha   90.00000000
_cell_angle_beta   90.00150325
_cell_angle_gamma   90.00000000
_symmetry_Int_Tables_number   1
_chemical_formula_structural   Y8In3Ag4Os
_chemical_formula_sum   'Y8 In3 Ag4 Os1'
_cell_volume   390.99814441
_cell_formula_units_Z   1
loop_
 _symmetry_equiv_pos_site_id
 _symmetry_equiv_pos_as_xyz
  1  'x, y, z'
loop_
 _atom_site_type_symbol
 _atom_site_label
 _atom_site_symmetry_multiplicity
 _atom_site_fract_x
 _atom_site_fract_y
 _atom_site_fract_z
 _atom_site_occupancy
  Y  Y0  1  0.76005034  0.48877440  0.23987375  1
  Y  Y1  1  0.76005034  0.01122460  0.23987375  1
  Y  Y2  1  0.23993579  0.01146736  0.23990591  1
  Y  Y3  1  0.23993579  0.48853164  0.23990591  1
  Y  Y4  1  0.76007815  0.48876214  0.76015360  1
  Y  Y5  1  0.76007815  0.01123686  0.76015360  1
  Y  Y6  1  0.23996383  0.01145785  0.76006494  1
  Y  Y7  1  0.23996383  0.48854115  0.76006494  1
  In  In0  1  0.00024262  0.74999900  0.99999876  1
  In  In1  1  0.50016804  0.25000000  0.49999889  1
  In  In2  1  0.49983725  0.74999900  0.50000059  1
  Ag  Ag0  1  0.50030131  0.25000000  0.00000502  1
  Ag  Ag1  1  0.49950189  0.74999900  0.99999341  1
  Ag  Ag2  1  0.00045490  0.74999900  0.50000116  1
  Ag  Ag3  1  0.99952819  0.25000000  0.49999673  1
  Os  Os0  1  0.99990758  0.25000000  0.00000008  1
loop_
_geom_bond_atom_site_label_1
_geom_bond_atom_site_label_2
_geom_bond_distance
_geom_bond_site_symmetry_2
In0 Y3 3.130326 1_556
In0 Y2 3.130330 1_566
In0 Y7 3.130561 1_555
In0 Y6 3.130565 1_565
In0 Y4 3.130993 1_455
In0 Y5 3.130997 1_465
In0 Y0 3.131228 1_456
In0 Y1 3.131233 1_466
In1 Y0 3.206970 1_555
In1 Y1 3.206974 1_555
In1 Y4 3.207112 1_555
In1 Y5 3.207116 1_555
In1 Y7 3.207196 1_555
In1 Y6 3.207200 1_555
In1 Y3 3.207339 1_555
In1 Y2 3.207343 1_555
In2 Y7 3.298918 1_555
In2 Y6 3.298922 1_565
In2 Y3 3.299147 1_555
In2 Y2 3.299152 1_565
In2 Y0 3.299644 1_555
In2 Y1 3.299648 1_565
In2 Y4 3.299866 1_555
In2 Y5 3.299871 1_565
Ag0 Y0 3.120209 1_555
Ag0 Y1 3.120213 1_555
Ag0 Y4 3.120269 1_554
Ag0 Y5 3.120273 1_554
Ag0 Y3 3.122176 1_555
Ag0 Y2 3.122180 1_555
Ag0 Y7 3.122195 1_554
Ag0 Y6 3.122199 1_554
Ag1 Y7 3.214267 1_555
Ag1 Y6 3.214272 1_565
Ag1 Y3 3.214420 1_556
Ag1 Y2 3.214425 1_566
Ag1 Y0 3.217461 1_556
Ag1 Y1 3.217466 1_566
Ag1 Y4 3.217527 1_555
Ag1 Y5 3.217531 1_565
Ag2 Y7 3.214976 1_555
Ag2 Y6 3.214981 1_565
Ag2 Y3 3.215097 1_555
Ag2 Y2 3.215101 1_565
Ag2 Y0 3.217841 1_455
Ag2 Y1 3.217845 1_465
Ag2 Y4 3.217945 1_455
Ag2 Y5 3.217950 1_465
Ag3 Y0 3.120381 1_555
Ag3 Y1 3.120385 1_555
Ag3 Y4 3.120425 1_555
Ag3 Y5 3.120429 1_555
Ag3 Y7 3.123148 1_655
Ag3 Y3 3.123151 1_655
Ag3 Y6 3.123152 1_655
Ag3 Y2 3.123155 1_655
Os0 Y4 3.033176 1_554
Os0 Y5 3.033180 1_554
Os0 Y3 3.033314 1_655
Os0 Y2 3.033318 1_655
Os0 Y0 3.033514 1_555
Os0 Y1 3.033519 1_555
Os0 Y7 3.033651 1_654
Os0 Y6 3.033655 1_654
