# generated using pymatgen
data_CsScNiF6
_symmetry_space_group_name_H-M   'P 1'
_cell_length_a   7.46746871
_cell_length_b   7.46746756
_cell_length_c   7.46746883
_cell_angle_alpha   120.98717148
_cell_angle_beta   118.65612574
_cell_angle_gamma   90.32098077
_symmetry_Int_Tables_number   1
_chemical_formula_structural   CsScNiF6
_chemical_formula_sum   'Cs2 Sc2 Ni2 F12'
_cell_volume   295.08274267
_cell_formula_units_Z   2
loop_
 _symmetry_equiv_pos_site_id
 _symmetry_equiv_pos_as_xyz
  1  'x, y, z'
loop_
 _atom_site_type_symbol
 _atom_site_label
 _atom_site_symmetry_multiplicity
 _atom_site_fract_x
 _atom_site_fract_y
 _atom_site_fract_z
 _atom_site_occupancy
  Cs  Cs0  1  0.35495642  0.60495642  0.75000000  1
  Cs  Cs1  1  0.64504358  0.39504358  0.25000000  1
  Sc  Sc0  1  0.00000000  0.00000000  0.00000000  1
  Sc  Sc1  1  0.50000000  0.00000000  0.50000000  1
  Ni  Ni0  1  0.00000000  0.00000000  0.50000000  1
  Ni  Ni1  1  0.00000000  0.50000000  0.00000000  1
  F  F0  1  0.32199794  0.07199794  0.25000000  1
  F  F1  1  0.93309666  0.68309666  0.25000000  1
  F  F2  1  0.31727062  0.67913007  0.24318985  1
  F  F3  1  0.93594022  0.07408078  0.25681015  1
  F  F4  1  0.31727062  0.07408078  0.63814056  1
  F  F5  1  0.93594022  0.67913007  0.86185944  1
  F  F6  1  0.67800206  0.92800206  0.75000000  1
  F  F7  1  0.06690334  0.31690334  0.75000000  1
  F  F8  1  0.68272938  0.32086993  0.75681015  1
  F  F9  1  0.06405978  0.92591922  0.74318985  1
  F  F10  1  0.68272938  0.92591922  0.36185944  1
  F  F11  1  0.06405978  0.32086993  0.13814056  1
loop_
_geom_bond_atom_site_label_1
_geom_bond_atom_site_label_2
_geom_bond_distance
_geom_bond_site_symmetry_2
Cs0 F7 3.033479 1_555
Cs0 F9 3.247114 1_555
Cs0 F8 3.247114 1_555
Cs0 F10 3.247114 1_556
Cs0 F11 3.247114 1_555
Cs0 F6 3.401985 1_555
Cs1 F1 3.033479 1_555
Cs1 F3 3.247114 1_555
Cs1 F2 3.247114 1_555
Cs1 F4 3.247114 1_554
Cs1 F5 3.247114 1_555
Cs1 F0 3.401985 1_555
F0 Sc1 2.050026 1_555
F0 Sc0 2.050026 1_555
F1 Ni0 1.969292 1_665
F1 Ni1 1.969292 1_655
F2 Sc1 2.000739 1_565
F2 Ni1 2.009223 1_555
F3 Sc0 2.000739 1_655
F3 Ni0 2.009223 1_655
F4 Sc1 2.000739 1_555
F4 Ni0 2.009223 1_555
F5 Sc0 2.000739 1_666
F5 Ni1 2.009223 1_656
F6 Sc1 2.050026 1_565
F6 Sc0 2.050026 1_666
F7 Ni0 1.969292 1_555
F7 Ni1 1.969292 1_556
F8 Sc1 2.000739 1_555
F8 Ni1 2.009223 1_656
F9 Sc0 2.000739 1_566
F9 Ni0 2.009223 1_565
F10 Sc1 2.000739 1_565
F10 Ni0 2.009223 1_665
F11 Sc0 2.000739 1_555
F11 Ni1 2.009223 1_555
