# generated using pymatgen
data_CsMn(CuS2)2
_symmetry_space_group_name_H-M   'P 1'
_cell_length_a   9.83949669
_cell_length_b   9.83949616
_cell_length_c   7.43116097
_cell_angle_alpha   90.00000000
_cell_angle_beta   90.00000000
_cell_angle_gamma   147.65065733
_symmetry_Int_Tables_number   1
_chemical_formula_structural   CsMn(CuS2)2
_chemical_formula_sum   'Cs2 Mn2 Cu4 S8'
_cell_volume   384.96495826
_cell_formula_units_Z   2
loop_
 _symmetry_equiv_pos_site_id
 _symmetry_equiv_pos_as_xyz
  1  'x, y, z'
loop_
 _atom_site_type_symbol
 _atom_site_label
 _atom_site_symmetry_multiplicity
 _atom_site_fract_x
 _atom_site_fract_y
 _atom_site_fract_z
 _atom_site_occupancy
  Cs  Cs0  1  0.16735928  0.53777855  0.75000000  1
  Cs  Cs1  1  0.53777855  0.16735928  0.25000000  1
  Mn  Mn0  1  0.70748845  0.49799826  0.75000000  1
  Mn  Mn1  1  0.49799826  0.70748845  0.25000000  1
  Cu  Cu0  1  0.62401836  0.62401836  0.50000000  1
  Cu  Cu1  1  0.00195278  0.20471366  0.25000000  1
  Cu  Cu2  1  0.20471366  0.00195278  0.75000000  1
  Cu  Cu3  1  0.62401836  0.62401836  0.00000000  1
  S  S0  1  0.73225871  0.93805009  0.01536646  1
  S  S1  1  0.38766969  0.36866987  0.75000000  1
  S  S2  1  0.36866987  0.38766969  0.25000000  1
  S  S3  1  0.93805009  0.73225871  0.51536646  1
  S  S4  1  0.55868384  0.17083131  0.75000000  1
  S  S5  1  0.93805009  0.73225871  0.98463354  1
  S  S6  1  0.17083131  0.55868384  0.25000000  1
  S  S7  1  0.73225871  0.93805009  0.48463354  1
loop_
_geom_bond_atom_site_label_1
_geom_bond_atom_site_label_2
_geom_bond_distance
_geom_bond_site_symmetry_2
Cs0 S4 3.516988 1_455
Cs0 S4 3.619637 1_565
Cs0 S0 3.647964 1_556
Cs0 S7 3.647964 1_555
Cs0 S1 3.682693 1_555
Cs0 S6 3.719831 1_555
Cs0 S6 3.719831 1_556
Cs0 S0 3.788707 1_446
Cs0 S7 3.788707 1_445
Cs1 S6 3.516988 1_545
Cs1 S6 3.619637 1_655
Cs1 S3 3.647964 1_555
Cs1 S5 3.647964 1_554
Cs1 S2 3.682693 1_555
Cs1 S4 3.719831 1_555
Cs1 S4 3.719831 1_554
Cs1 S3 3.788707 1_445
Cs1 S5 3.788707 1_444
Mn0 S4 2.131438 1_555
Mn0 S5 2.159764 1_555
Mn0 S3 2.159764 1_555
Mn0 S1 2.180845 1_555
Mn1 S6 2.131438 1_555
Mn1 S7 2.159764 1_555
Mn1 S0 2.159764 1_555
Mn1 S2 2.180844 1_555
Cu0 S7 2.265980 1_555
Cu0 S3 2.265980 1_555
Cu0 S1 2.302166 1_555
Cu0 S2 2.302166 1_555
Cu1 S6 2.261240 1_555
Cu1 S7 2.280844 1_445
Cu1 S0 2.280844 1_445
Cu1 S2 2.299026 1_555
Cu2 S4 2.261241 1_555
Cu2 S5 2.280844 1_445
Cu2 S3 2.280844 1_445
Cu2 S1 2.299026 1_555
Cu3 S0 2.265980 1_555
Cu3 S5 2.265980 1_554
Cu3 S1 2.302166 1_554
Cu3 S2 2.302166 1_555
