# generated using pymatgen
data_Zr6Zn22SiAu
_symmetry_space_group_name_H-M   'P 1'
_cell_length_a   8.70246557
_cell_length_b   8.70246602
_cell_length_c   8.70246609
_cell_angle_alpha   60.00000341
_cell_angle_beta   60.00000168
_cell_angle_gamma   60.00000073
_symmetry_Int_Tables_number   1
_chemical_formula_structural   Zr6Zn22SiAu
_chemical_formula_sum   'Zr6 Zn22 Si1 Au1'
_cell_volume   466.02800002
_cell_formula_units_Z   1
loop_
 _symmetry_equiv_pos_site_id
 _symmetry_equiv_pos_as_xyz
  1  'x, y, z'
loop_
 _atom_site_type_symbol
 _atom_site_label
 _atom_site_symmetry_multiplicity
 _atom_site_fract_x
 _atom_site_fract_y
 _atom_site_fract_z
 _atom_site_occupancy
  Zr  Zr0  1  0.71152314  0.28847686  0.28847686  1
  Zr  Zr1  1  0.28847686  0.71152314  0.71152314  1
  Zr  Zr2  1  0.28847686  0.71152314  0.28847686  1
  Zr  Zr3  1  0.71152314  0.28847686  0.71152314  1
  Zr  Zr4  1  0.28847686  0.28847686  0.71152314  1
  Zr  Zr5  1  0.71152314  0.71152314  0.28847686  1
  Zn  Zn0  1  0.12538069  0.12538069  0.12538069  1
  Zn  Zn1  1  0.87461931  0.87461931  0.87461931  1
  Zn  Zn2  1  0.12538069  0.12538069  0.62385893  1
  Zn  Zn3  1  0.12538069  0.62385893  0.12538069  1
  Zn  Zn4  1  0.87461931  0.87461931  0.37614107  1
  Zn  Zn5  1  0.87461931  0.37614107  0.87461931  1
  Zn  Zn6  1  0.62385893  0.12538069  0.12538069  1
  Zn  Zn7  1  0.37614107  0.87461931  0.87461931  1
  Zn  Zn8  1  0.50000000  0.00000000  0.00000000  1
  Zn  Zn9  1  0.00000000  0.50000000  0.50000000  1
  Zn  Zn10  1  0.00000000  0.50000000  0.00000000  1
  Zn  Zn11  1  0.50000000  0.00000000  0.50000000  1
  Zn  Zn12  1  0.00000000  0.00000000  0.50000000  1
  Zn  Zn13  1  0.50000000  0.50000000  0.00000000  1
  Zn  Zn14  1  0.33513717  0.33513717  0.33513717  1
  Zn  Zn15  1  0.66486283  0.66486283  0.66486283  1
  Zn  Zn16  1  0.33513717  0.33513717  0.99458750  1
  Zn  Zn17  1  0.33513717  0.99458750  0.33513717  1
  Zn  Zn18  1  0.66486283  0.66486283  0.00541250  1
  Zn  Zn19  1  0.66486283  0.00541250  0.66486283  1
  Zn  Zn20  1  0.99458750  0.33513717  0.33513717  1
  Zn  Zn21  1  0.00541250  0.66486283  0.66486283  1
  Si  Si0  1  0.50000000  0.50000000  0.50000000  1
  Au  Au0  1  0.00000000  0.00000000  0.00000000  1
loop_
_geom_bond_atom_site_label_1
_geom_bond_atom_site_label_2
_geom_bond_distance
_geom_bond_site_symmetry_2
Zn0 Zn8 2.661881 1_555
Zn0 Zn10 2.661881 1_555
Zn0 Zn12 2.661881 1_555
Zn0 Zn17 2.671398 1_545
Zn0 Zn16 2.671398 1_554
Zn0 Zn20 2.671398 1_455
Zn1 Zn8 2.661881 1_566
Zn1 Zn10 2.661881 1_656
Zn1 Zn12 2.661881 1_665
Zn1 Zn19 2.671398 1_565
Zn1 Zn18 2.671398 1_556
Zn1 Zn21 2.671398 1_655
Zn2 Zn9 2.661881 1_555
Zn2 Zn20 2.671413 1_455
Zn3 Zn9 2.661881 1_555
Zn4 Zn9 2.661881 1_655
Zn5 Zn9 2.661881 1_655
Zn6 Zn8 2.661888 1_555
Zn7 Zn8 2.661888 1_566
Zn8 Zr5 3.113014 1_545
Zn8 Zr4 3.113014 1_554
Zn8 Zr3 3.113014 1_554
Zn8 Zr2 3.113014 1_545
Zn9 Zr4 3.113014 1_555
Zn9 Zr5 3.113014 1_455
Zn9 Zr2 3.113014 1_555
Zn9 Zr3 3.113014 1_455
Zn10 Zn16 2.512477 1_554
Zn10 Zn18 2.512477 1_455
Zn10 Zn20 2.512478 1_455
Zn10 Zn21 2.512478 1_554
Zn10 Zn3 2.661888 1_555
Zn10 Zn5 2.661888 1_454
Zn10 Zr4 3.113014 1_554
Zn10 Zr5 3.113014 1_455
Zn10 Zr1 3.113014 1_554
Zn10 Zr0 3.113014 1_455
Zn11 Zn14 2.512480 1_555
Zn11 Zn15 2.512480 1_545
Zn11 Zn19 2.512485 1_555
Zn11 Zn17 2.512485 1_545
Zn11 Zn4 2.661881 1_545
Zn11 Zn2 2.661881 1_555
Zn11 Zn7 2.661881 1_545
Zn11 Zn6 2.661881 1_555
Zn11 Zr4 3.113014 1_555
Zn11 Zr5 3.113014 1_545
Zn11 Zr0 3.113014 1_555
Zn11 Zr1 3.113014 1_545
Zn12 Zn17 2.512477 1_545
Zn12 Zn19 2.512477 1_455
Zn12 Zn20 2.512477 1_455
Zn12 Zn21 2.512477 1_545
Zn12 Zn2 2.661888 1_555
Zn12 Zn4 2.661888 1_445
Zn12 Zr1 3.113014 1_545
Zn12 Zr0 3.113014 1_455
Zn12 Zr3 3.113014 1_455
Zn12 Zr2 3.113014 1_545
Zn13 Zn14 2.512480 1_555
Zn13 Zn15 2.512480 1_554
Zn13 Zn18 2.512485 1_555
Zn13 Zn16 2.512485 1_554
Zn13 Zn3 2.661881 1_555
Zn13 Zn5 2.661881 1_554
Zn13 Zn6 2.661881 1_555
Zn13 Zn7 2.661881 1_554
Zn13 Zr2 3.113014 1_555
Zn13 Zr3 3.113014 1_554
Zn13 Zr0 3.113014 1_555
Zn13 Zr1 3.113014 1_554
Zn14 Zn9 2.512480 1_555
Zn14 Zn6 2.671403 1_555
Zn14 Zn3 2.671403 1_555
Zn14 Zn2 2.671403 1_555
Zn14 Zr0 2.926325 1_555
Zn14 Zr2 2.926325 1_555
Zn14 Zr4 2.926325 1_555
Zn14 Zn20 2.963622 1_455
Zn14 Zn17 2.963622 1_545
Zn14 Zn16 2.963622 1_554
Zn15 Zn9 2.512480 1_655
Zn15 Zn7 2.671403 1_555
Zn15 Zn5 2.671403 1_555
Zn15 Zn4 2.671403 1_555
Zn15 Zr1 2.926325 1_555
Zn15 Zr3 2.926325 1_555
Zn15 Zr5 2.926325 1_555
Zn15 Zn21 2.963622 1_655
Zn15 Zn19 2.963622 1_565
Zn15 Zn18 2.963622 1_556
Zn16 Zn8 2.512477 1_556
Zn16 Zn6 2.671413 1_556
Zn16 Zn3 2.671413 1_556
Zn16 Zr4 2.926316 1_555
Zn16 Zr3 2.926322 1_555
Zn16 Zr1 2.926322 1_555
Zn16 Zn20 2.963622 1_456
Zn16 Zn17 2.963622 1_546
Zn17 Zn8 2.512477 1_565
Zn17 Zn6 2.671413 1_565
Zn17 Zn2 2.671413 1_565
Zn17 Zr2 2.926316 1_555
Zn17 Zr5 2.926322 1_555
Zn17 Zr1 2.926322 1_555
Zn17 Zn20 2.963622 1_465
Zn18 Zn8 2.512477 1_565
Zn18 Zn7 2.671413 1_554
Zn18 Zn5 2.671413 1_554
Zn18 Zr5 2.926316 1_555
Zn18 Zr2 2.926322 1_555
Zn18 Zr0 2.926322 1_555
Zn18 Zn21 2.963622 1_654
Zn18 Zn19 2.963622 1_564
Zn19 Zn8 2.512477 1_556
Zn19 Zn7 2.671413 1_545
Zn19 Zn4 2.671413 1_545
Zn19 Zr3 2.926316 1_555
Zn19 Zr4 2.926322 1_555
Zn19 Zr0 2.926322 1_555
Zn19 Zn21 2.963622 1_645
Zn20 Zn9 2.512485 1_655
Zn20 Zn3 2.671413 1_655
Zn20 Zr0 2.926316 1_555
Zn20 Zr5 2.926322 1_555
Zn20 Zr3 2.926322 1_555
Zn21 Zn9 2.512485 1_555
Zn21 Zn4 2.671413 1_455
Zn21 Zn5 2.671413 1_455
Zn21 Zr1 2.926316 1_555
Zn21 Zr4 2.926322 1_555
Zn21 Zr2 2.926322 1_555
Si0 Zr1 2.603246 1_555
Si0 Zr3 2.603246 1_555
Si0 Zr2 2.603246 1_555
Si0 Zr0 2.603246 1_555
Si0 Zr5 2.603246 1_555
Si0 Zr4 2.603246 1_555
Au0 Zn7 2.672683 1_544
Au0 Zn6 2.672683 1_455
Au0 Zn5 2.672683 1_454
Au0 Zn3 2.672683 1_545
Au0 Zn4 2.672683 1_445
Au0 Zn2 2.672683 1_554
Au0 Zn0 2.672690 1_555
Au0 Zn1 2.672690 1_444
