# generated using pymatgen
data_Sc6TiAl15Os7
_symmetry_space_group_name_H-M   'P 1'
_cell_length_a   8.75440119
_cell_length_b   8.75440132
_cell_length_c   8.73383210
_cell_angle_alpha   59.92206743
_cell_angle_beta   59.92206315
_cell_angle_gamma   60.00000329
_symmetry_Int_Tables_number   1
_chemical_formula_structural   Sc6TiAl15Os7
_chemical_formula_sum   'Sc6 Ti1 Al15 Os7'
_cell_volume   472.74849162
_cell_formula_units_Z   1
loop_
 _symmetry_equiv_pos_site_id
 _symmetry_equiv_pos_as_xyz
  1  'x, y, z'
loop_
 _atom_site_type_symbol
 _atom_site_label
 _atom_site_symmetry_multiplicity
 _atom_site_fract_x
 _atom_site_fract_y
 _atom_site_fract_z
 _atom_site_occupancy
  Sc  Sc0  1  0.71263208  0.71263208  0.28278907  1
  Sc  Sc1  1  0.29194677  0.71263208  0.28278907  1
  Sc  Sc2  1  0.71263208  0.29194677  0.28278907  1
  Sc  Sc3  1  0.28493592  0.28493592  0.71755376  1
  Sc  Sc4  1  0.71257439  0.28493592  0.71755376  1
  Sc  Sc5  1  0.28493592  0.71257439  0.71755376  1
  Ti  Ti0  1  0.88009844  0.88009844  0.35970367  1
  Al  Al0  1  0.87895907  0.36322507  0.87885578  1
  Al  Al1  1  0.36322507  0.87895907  0.87885578  1
  Al  Al2  1  0.87895907  0.87895907  0.87885578  1
  Al  Al3  1  0.12228498  0.12228498  0.63314706  1
  Al  Al4  1  0.12005580  0.63678424  0.12310515  1
  Al  Al5  1  0.63678424  0.12005580  0.12310515  1
  Al  Al6  1  0.12005580  0.12005580  0.12310515  1
  Al  Al7  1  0.66546567  0.66546567  0.00360499  1
  Al  Al8  1  0.66327298  0.00974369  0.66371035  1
  Al  Al9  1  0.00974369  0.66327298  0.66371035  1
  Al  Al10  1  0.66327298  0.66327298  0.66371035  1
  Al  Al11  1  0.33507735  0.33507735  0.99476595  1
  Al  Al12  1  0.33668952  0.98943908  0.33718088  1
  Al  Al13  1  0.98943908  0.33668952  0.33718088  1
  Al  Al14  1  0.33668952  0.33668952  0.33718088  1
  Os  Os0  1  0.99959136  0.99959136  0.00122691  1
  Os  Os1  1  0.99969241  0.99969241  0.49987397  1
  Os  Os2  1  0.50074121  0.99969241  0.49987397  1
  Os  Os3  1  0.99969241  0.50074121  0.49987397  1
  Os  Os4  1  0.49997270  0.49997270  0.99944884  1
  Os  Os5  1  0.00060576  0.49997270  0.99944884  1
  Os  Os6  1  0.49997270  0.00060576  0.99944884  1
loop_
_geom_bond_atom_site_label_1
_geom_bond_atom_site_label_2
_geom_bond_distance
_geom_bond_site_symmetry_2
Sc0 Ti0 2.978868 1_555
Sc1 Ti0 2.978875 1_455
Sc2 Ti0 2.978875 1_545
Al0 Os0 2.598210 1_546
Al0 Os3 2.700718 1_555
Al0 Os4 2.709161 1_555
Al0 Os5 2.709168 1_655
Al0 Al7 2.753992 1_556
Al0 Al10 2.764968 1_555
Al0 Al9 2.764973 1_655
Al0 Sc2 2.916942 1_556
Al0 Sc4 2.932421 1_555
Al0 Sc3 2.932428 1_655
Al0 Al5 3.000885 1_556
Al0 Al6 3.000898 1_656
Al0 Al3 3.008966 1_655
Al1 Os0 2.598210 1_456
Al1 Os2 2.700718 1_555
Al1 Os4 2.709162 1_555
Al1 Os6 2.709168 1_565
Al1 Al7 2.753992 1_556
Al1 Al10 2.764968 1_555
Al1 Al8 2.764973 1_565
Al1 Sc1 2.916942 1_556
Al1 Sc5 2.932421 1_555
Al1 Sc3 2.932429 1_565
Al1 Al4 3.000885 1_556
Al1 Al6 3.000898 1_566
Al1 Al3 3.008966 1_565
Al2 Os0 2.598224 1_556
Al2 Os1 2.700718 1_555
Al2 Os6 2.709161 1_565
Al2 Os5 2.709161 1_655
Al2 Al7 2.753970 1_556
Al2 Al9 2.764966 1_655
Al2 Al8 2.764966 1_565
Al2 Sc0 2.916941 1_556
Al2 Sc5 2.932427 1_655
Al2 Sc4 2.932427 1_565
Al2 Al5 3.000898 1_566
Al2 Al4 3.000898 1_656
Al2 Al3 3.008985 1_665
Al3 Os0 2.621734 1_446
Al3 Os2 2.704540 1_545
Al3 Os3 2.704540 1_455
Al3 Os1 2.704554 1_445
Al3 Sc3 2.954720 1_555
Al3 Sc4 2.954735 1_455
Al3 Sc5 2.954735 1_545
Al4 Os0 2.592303 1_455
Al4 Os3 2.684793 1_455
Al4 Os4 2.715768 1_554
Al4 Os5 2.715775 1_554
Al4 Sc5 2.923520 1_554
Al4 Sc1 2.946427 1_555
Al4 Sc0 2.946434 1_455
Al4 Ti0 2.967557 1_455
Al5 Os0 2.592303 1_545
Al5 Os2 2.684793 1_545
Al5 Os4 2.715768 1_554
Al5 Os6 2.715775 1_554
Al5 Sc4 2.923520 1_554
Al5 Sc2 2.946427 1_555
Al5 Sc0 2.946434 1_545
Al5 Ti0 2.967557 1_545
Al6 Os0 2.592302 1_445
Al6 Os1 2.684793 1_445
Al6 Os6 2.715767 1_554
Al6 Os5 2.715767 1_554
Al6 Sc3 2.923519 1_554
Al6 Sc2 2.946433 1_455
Al6 Sc1 2.946433 1_545
Al6 Ti0 2.967569 1_445
Al7 Os5 2.530546 1_654
Al7 Os6 2.530546 1_564
Al7 Os4 2.530561 1_554
Al7 Sc0 2.911258 1_555
Al7 Sc1 2.911269 1_555
Al7 Sc2 2.911270 1_555
Al7 Al9 2.987938 1_654
Al7 Al8 2.987938 1_564
Al8 Os6 2.515117 1_555
Al8 Os2 2.524290 1_545
Al8 Os1 2.524290 1_545
Al8 Ti0 2.784859 1_545
Al8 Sc4 2.930909 1_555
Al8 Sc3 2.930909 1_555
Al8 Sc2 2.957447 1_555
Al8 Al9 3.033144 1_645
Al9 Os5 2.515117 1_555
Al9 Os3 2.524290 1_455
Al9 Os1 2.524291 1_455
Al9 Ti0 2.784859 1_455
Al9 Sc5 2.930909 1_555
Al9 Sc3 2.930909 1_555
Al9 Sc1 2.957447 1_555
Al10 Os4 2.515117 1_555
Al10 Os3 2.524290 1_555
Al10 Os2 2.524291 1_555
Al10 Ti0 2.784854 1_555
Al10 Sc5 2.930909 1_555
Al10 Sc4 2.930909 1_555
Al10 Sc0 2.957447 1_555
Al10 Al7 2.987947 1_556
Al10 Al9 3.033144 1_655
Al10 Al8 3.033144 1_565
Al11 Os5 2.524194 1_555
Al11 Os6 2.524194 1_555
Al11 Os4 2.524209 1_555
Al11 Al6 2.767070 1_556
Al11 Al4 2.767092 1_556
Al11 Al5 2.767092 1_556
Al11 Sc3 2.927533 1_555
Al11 Sc4 2.927544 1_555
Al11 Sc5 2.927544 1_555
Al11 Al13 3.004803 1_456
Al11 Al12 3.004803 1_546
Al11 Al14 3.004807 1_556
Al12 Os6 2.525454 1_564
Al12 Os1 2.528229 1_455
Al12 Os2 2.528237 1_555
Al12 Al3 2.743088 1_565
Al12 Al6 2.764539 1_565
Al12 Al5 2.764554 1_565
Al12 Sc1 2.922494 1_555
Al12 Sc0 2.922499 1_555
Al12 Sc5 2.938510 1_555
Al12 Al14 3.039970 1_565
Al12 Al13 3.039970 1_465
Al13 Os5 2.525454 1_654
Al13 Os1 2.528230 1_545
Al13 Os3 2.528237 1_555
Al13 Al3 2.743088 1_655
Al13 Al6 2.764539 1_655
Al13 Al4 2.764554 1_655
Al13 Sc2 2.922494 1_555
Al13 Sc0 2.922500 1_555
Al13 Sc4 2.938510 1_555
Al13 Al14 3.039970 1_655
Al14 Os4 2.525456 1_554
Al14 Os3 2.528232 1_455
Al14 Os2 2.528232 1_545
Al14 Al3 2.743074 1_555
Al14 Al5 2.764544 1_555
Al14 Al4 2.764544 1_555
Al14 Sc2 2.922502 1_555
Al14 Sc1 2.922502 1_555
Al14 Sc3 2.938513 1_555
Os0 Ti0 2.553334 1_555
Os1 Ti0 2.712320 1_555
Os1 Sc4 3.140087 1_565
Os1 Sc5 3.140087 1_655
Os2 Ti0 2.712313 1_555
Os2 Sc3 3.140087 1_565
Os2 Sc5 3.140087 1_555
Os3 Ti0 2.712314 1_555
Os3 Sc4 3.140087 1_555
Os3 Sc3 3.140087 1_655
Os4 Sc1 3.101059 1_556
Os4 Sc2 3.101059 1_556
Os4 Sc4 3.101350 1_555
Os4 Sc5 3.101350 1_555
Os5 Sc0 3.101059 1_456
Os5 Sc2 3.101059 1_456
Os5 Sc3 3.101350 1_555
Os5 Sc5 3.101350 1_555
Os6 Sc1 3.101059 1_546
Os6 Sc0 3.101059 1_546
Os6 Sc4 3.101350 1_555
Os6 Sc3 3.101350 1_555
