# generated using pymatgen
data_K3CrH6
_symmetry_space_group_name_H-M   'P 1'
_cell_length_a   5.99732848
_cell_length_b   5.99732826
_cell_length_c   5.99732825
_cell_angle_alpha   60.00000002
_cell_angle_beta   60.00000126
_cell_angle_gamma   59.99999960
_symmetry_Int_Tables_number   1
_chemical_formula_structural   K3CrH6
_chemical_formula_sum   'K3 Cr1 H6'
_cell_volume   152.53112772
_cell_formula_units_Z   1
loop_
 _symmetry_equiv_pos_site_id
 _symmetry_equiv_pos_as_xyz
  1  'x, y, z'
loop_
 _atom_site_type_symbol
 _atom_site_label
 _atom_site_symmetry_multiplicity
 _atom_site_fract_x
 _atom_site_fract_y
 _atom_site_fract_z
 _atom_site_occupancy
  K  K0  1  0.75000000  0.75000000  0.75000000  1
  K  K1  1  0.25000000  0.25000000  0.25000000  1
  K  K2  1  0.50000000  0.50000000  0.50000000  1
  Cr  Cr0  1  0.00000000  0.00000000  0.00000000  1
  H  H0  1  0.79567416  0.79567416  0.20432584  1
  H  H1  1  0.20432584  0.79567416  0.20432584  1
  H  H2  1  0.79567416  0.20432584  0.20432584  1
  H  H3  1  0.20432584  0.20432584  0.79567416  1
  H  H4  1  0.79567416  0.20432584  0.79567416  1
  H  H5  1  0.20432584  0.79567416  0.79567416  1
loop_
_geom_bond_atom_site_label_1
_geom_bond_atom_site_label_2
_geom_bond_distance
_geom_bond_site_symmetry_2
Cr0 H2 1.732990 1_455
Cr0 H1 1.732990 1_545
Cr0 H5 1.732990 1_544
Cr0 H4 1.732990 1_454
Cr0 H3 1.732990 1_554
Cr0 H0 1.732990 1_445
H0 K2 2.507761 1_555
H0 K0 3.023583 1_554
H0 K0 3.023583 1_555
H0 K1 3.023583 1_655
H0 K1 3.023583 1_565
H1 K2 2.507761 1_555
H1 K1 3.023583 1_555
H1 K1 3.023583 1_565
H1 K0 3.023583 1_455
H1 K0 3.023583 1_554
H2 K2 2.507761 1_555
H2 K0 3.023583 1_554
H2 K0 3.023583 1_545
H2 K1 3.023583 1_655
H2 K1 3.023583 1_555
H3 K2 2.507761 1_555
H3 K1 3.023583 1_556
H3 K1 3.023583 1_555
H3 K0 3.023583 1_455
H3 K0 3.023583 1_545
H4 K2 2.507761 1_555
H4 K0 3.023583 1_555
H4 K0 3.023583 1_545
H4 K1 3.023583 1_655
H4 K1 3.023583 1_556
H5 K2 2.507761 1_555
H5 K1 3.023583 1_556
H5 K1 3.023583 1_565
H5 K0 3.023583 1_455
H5 K0 3.023583 1_555
