# generated using pymatgen
data_Cs3BaNaI6
_symmetry_space_group_name_H-M   'P 1'
_cell_length_a   10.28354876
_cell_length_b   10.28354914
_cell_length_c   10.28355008
_cell_angle_alpha   92.08134609
_cell_angle_beta   92.08134644
_cell_angle_gamma   92.08134809
_symmetry_Int_Tables_number   1
_chemical_formula_structural   Cs3BaNaI6
_chemical_formula_sum   'Cs6 Ba2 Na2 I12'
_cell_volume   1085.29361049
_cell_formula_units_Z   2
loop_
 _symmetry_equiv_pos_site_id
 _symmetry_equiv_pos_as_xyz
  1  'x, y, z'
loop_
 _atom_site_type_symbol
 _atom_site_label
 _atom_site_symmetry_multiplicity
 _atom_site_fract_x
 _atom_site_fract_y
 _atom_site_fract_z
 _atom_site_occupancy
  Cs  Cs0  1  0.86542021  0.63457979  0.25000000  1
  Cs  Cs1  1  0.63457979  0.25000000  0.86542021  1
  Cs  Cs2  1  0.25000000  0.86542021  0.63457979  1
  Cs  Cs3  1  0.13457979  0.36542021  0.75000000  1
  Cs  Cs4  1  0.36542021  0.75000000  0.13457979  1
  Cs  Cs5  1  0.75000000  0.13457979  0.36542021  1
  Ba  Ba0  1  0.25000000  0.25000000  0.25000000  1
  Ba  Ba1  1  0.75000000  0.75000000  0.75000000  1
  Na  Na0  1  0.00000000  0.00000000  0.00000000  1
  Na  Na1  1  0.50000000  0.50000000  0.50000000  1
  I  I0  1  0.19884858  0.54339067  0.41510388  1
  I  I1  1  0.04339067  0.69884858  0.91510388  1
  I  I2  1  0.91510388  0.04339067  0.69884858  1
  I  I3  1  0.80115142  0.45660933  0.58489612  1
  I  I4  1  0.69884858  0.91510388  0.04339067  1
  I  I5  1  0.45660933  0.58489612  0.80115142  1
  I  I6  1  0.58489612  0.80115142  0.45660933  1
  I  I7  1  0.54339067  0.41510388  0.19884858  1
  I  I8  1  0.08489612  0.95660933  0.30115142  1
  I  I9  1  0.95660933  0.30115142  0.08489612  1
  I  I10  1  0.30115142  0.08489612  0.95660933  1
  I  I11  1  0.41510388  0.19884858  0.54339067  1
loop_
_geom_bond_atom_site_label_1
_geom_bond_atom_site_label_2
_geom_bond_distance
_geom_bond_site_symmetry_2
Cs0 I0 3.930047 1_655
Cs0 I9 3.930047 1_555
Cs0 I7 3.947375 1_555
Cs0 I8 3.947375 1_655
Cs0 I1 4.022711 1_654
Cs0 I3 4.022711 1_555
Cs0 I6 4.038589 1_555
Cs0 I4 4.038589 1_555
Cs1 I10 3.930047 1_555
Cs1 I7 3.930047 1_556
Cs1 I9 3.947375 1_556
Cs1 I11 3.947375 1_555
Cs1 I5 4.022711 1_555
Cs1 I4 4.022711 1_546
Cs1 I2 4.038589 1_555
Cs1 I3 4.038589 1_555
Cs2 I11 3.930047 1_565
Cs2 I8 3.930047 1_555
Cs2 I0 3.947375 1_555
Cs2 I10 3.947375 1_565
Cs2 I2 4.022711 1_465
Cs2 I6 4.022711 1_555
Cs2 I5 4.038589 1_555
Cs2 I1 4.038589 1_555
Cs3 I3 3.930047 1_455
Cs3 I1 3.930047 1_555
Cs3 I5 3.947375 1_555
Cs3 I2 3.947375 1_455
Cs3 I9 4.022711 1_456
Cs3 I0 4.022711 1_555
Cs3 I11 4.038589 1_555
Cs3 I10 4.038589 1_555
Cs4 I4 3.930047 1_555
Cs4 I5 3.930047 1_554
Cs4 I1 3.947375 1_554
Cs4 I6 3.947375 1_555
Cs4 I7 4.022711 1_555
Cs4 I10 4.022711 1_564
Cs4 I8 4.038589 1_555
Cs4 I0 4.038589 1_555
Cs5 I6 3.930047 1_545
Cs5 I2 3.930047 1_555
Cs5 I3 3.947375 1_555
Cs5 I4 3.947375 1_545
Cs5 I8 4.022711 1_645
Cs5 I11 4.022711 1_555
Cs5 I7 4.038589 1_555
Cs5 I9 4.038589 1_555
Ba0 I7 3.474239 1_555
Ba0 I8 3.474240 1_545
Ba0 I9 3.474240 1_455
Ba0 I0 3.474240 1_555
Ba0 I11 3.474240 1_555
Ba0 I10 3.474240 1_554
Ba1 I5 3.474239 1_555
Ba1 I2 3.474240 1_565
Ba1 I1 3.474240 1_655
Ba1 I3 3.474240 1_555
Ba1 I6 3.474240 1_555
Ba1 I4 3.474240 1_556
I0 Na1 3.237962 1_555
I1 Na0 3.237962 1_566
I2 Na0 3.237962 1_656
I3 Na1 3.237962 1_555
I4 Na0 3.237962 1_665
I5 Na1 3.237962 1_555
I6 Na1 3.237962 1_555
I7 Na1 3.237962 1_555
I8 Na0 3.237962 1_565
I9 Na0 3.237962 1_655
I10 Na0 3.237962 1_556
I11 Na1 3.237962 1_555
