# generated using pymatgen
data_Hf6Sn6Rh5Au
_symmetry_space_group_name_H-M   'P 1'
_cell_length_a   7.27457298
_cell_length_b   7.27457295
_cell_length_c   7.43422319
_cell_angle_alpha   90.00000000
_cell_angle_beta   90.00000000
_cell_angle_gamma   119.99999572
_symmetry_Int_Tables_number   1
_chemical_formula_structural   Hf6Sn6Rh5Au
_chemical_formula_sum   'Hf6 Sn6 Rh5 Au1'
_cell_volume   340.70715496
_cell_formula_units_Z   1
loop_
 _symmetry_equiv_pos_site_id
 _symmetry_equiv_pos_as_xyz
  1  'x, y, z'
loop_
 _atom_site_type_symbol
 _atom_site_label
 _atom_site_symmetry_multiplicity
 _atom_site_fract_x
 _atom_site_fract_y
 _atom_site_fract_z
 _atom_site_occupancy
  Hf  Hf0  1  0.01265141  0.40342011  0.75754610  1
  Hf  Hf1  1  0.59657989  0.60923130  0.75754610  1
  Hf  Hf2  1  0.39076870  0.98734859  0.75754610  1
  Hf  Hf3  1  0.96452329  0.38047104  0.24377467  1
  Hf  Hf4  1  0.61952896  0.58405125  0.24377467  1
  Hf  Hf5  1  0.41594875  0.03547671  0.24377467  1
  Sn  Sn0  1  0.26733879  0.26359304  0.50487381  1
  Sn  Sn1  1  0.99625325  0.73266121  0.50487381  1
  Sn  Sn2  1  0.00442068  0.73568168  0.00278843  1
  Sn  Sn3  1  0.73640696  0.00374675  0.50487381  1
  Sn  Sn4  1  0.73126100  0.99557932  0.00278843  1
  Sn  Sn5  1  0.26431832  0.26873900  0.00278843  1
  Rh  Rh0  1  0.66666700  0.33333300  0.53440717  1
  Rh  Rh1  1  0.33333300  0.66666700  0.03149417  1
  Rh  Rh2  1  0.00000000  0.00000000  0.75426881  1
  Rh  Rh3  1  0.00000000  0.00000000  0.25392848  1
  Rh  Rh4  1  0.66666700  0.33333300  0.95657023  1
  Au  Au0  1  0.33333300  0.66666700  0.44238010  1
loop_
_geom_bond_atom_site_label_1
_geom_bond_atom_site_label_2
_geom_bond_distance
_geom_bond_site_symmetry_2
Hf0 Rh4 2.738726 1_455
Hf0 Rh0 2.839589 1_455
Hf0 Rh2 2.889894 1_555
Hf0 Rh1 2.964734 1_556
Hf0 Sn2 3.051966 1_556
Hf0 Sn5 3.070720 1_556
Hf0 Sn1 3.092710 1_455
Hf0 Sn0 3.143304 1_555
Hf0 Sn3 3.190201 1_455
Hf0 Sn4 3.200521 1_446
Hf1 Rh4 2.738732 1_555
Hf1 Rh0 2.839595 1_555
Hf1 Rh2 2.889894 1_665
Hf1 Rh1 2.964737 1_556
Hf1 Sn5 3.051967 1_556
Hf1 Sn4 3.070720 1_556
Hf1 Sn0 3.092707 1_555
Hf1 Sn3 3.143309 1_565
Hf1 Sn1 3.190200 1_555
Hf1 Sn2 3.200521 1_656
Hf2 Rh4 2.738728 1_565
Hf2 Rh0 2.839591 1_565
Hf2 Rh2 2.889894 1_565
Hf2 Rh1 2.964732 1_556
Hf2 Sn4 3.051966 1_556
Hf2 Sn2 3.070720 1_556
Hf2 Sn3 3.092705 1_565
Hf2 Sn1 3.143308 1_455
Hf2 Sn0 3.190205 1_565
Hf2 Sn5 3.200521 1_566
Hf3 Rh1 2.904728 1_655
Hf3 Rh3 2.906393 1_655
Hf3 Rh4 2.937403 1_554
Hf3 Rh0 2.955979 1_555
Hf3 Sn4 3.029435 1_545
Hf3 Sn2 3.036608 1_655
Hf3 Sn3 3.079638 1_555
Hf3 Sn1 3.129484 1_555
Hf3 Sn5 3.224771 1_655
Hf3 Sn0 3.349054 1_655
Hf4 Rh1 2.904736 1_555
Hf4 Rh3 2.906397 1_665
Hf4 Rh4 2.937403 1_554
Hf4 Rh0 2.955979 1_555
Hf4 Sn2 3.029434 1_655
Hf4 Sn5 3.036605 1_555
Hf4 Sn1 3.079637 1_555
Hf4 Sn0 3.129479 1_555
Hf4 Sn4 3.224777 1_555
Hf4 Sn3 3.349066 1_565
Hf5 Rh1 2.904725 1_545
Hf5 Rh3 2.906400 1_555
Hf5 Rh4 2.937403 1_554
Hf5 Rh0 2.955979 1_555
Hf5 Sn5 3.029439 1_555
Hf5 Sn4 3.036602 1_545
Hf5 Sn0 3.079647 1_555
Hf5 Sn3 3.129472 1_555
Hf5 Sn2 3.224776 1_545
Hf5 Sn1 3.349063 1_445
Rh0 Sn3 2.696375 1_555
Rh0 Sn1 2.696385 1_555
Rh0 Sn0 2.696390 1_555
Rh1 Sn2 2.687723 1_555
Rh1 Sn4 2.687728 1_555
Rh1 Sn5 2.687730 1_555
Rh2 Sn1 2.677204 1_445
Rh2 Sn0 2.677206 1_555
Rh2 Sn3 2.677209 1_455
Rh2 Sn2 2.678336 1_546
Rh2 Sn4 2.678336 1_446
Rh2 Sn5 2.678336 1_556
Rh3 Sn1 2.685198 1_445
Rh3 Sn0 2.685201 1_555
Rh3 Sn3 2.685204 1_455
Rh3 Sn2 2.691811 1_545
Rh3 Sn4 2.691811 1_445
Rh3 Sn5 2.691811 1_555
Rh4 Sn4 2.744141 1_546
Rh4 Sn2 2.744146 1_656
Rh4 Sn5 2.744148 1_556
Au0 Sn1 2.763400 1_455
Au0 Sn0 2.763400 1_555
Au0 Sn3 2.763400 1_565
Au0 Hf5 2.850769 1_565
Au0 Hf3 2.850772 1_455
Au0 Hf4 2.850781 1_555
Au0 Rh1 3.054618 1_555
Au0 Hf2 3.183025 1_555
Au0 Hf0 3.183027 1_555
Au0 Hf1 3.183030 1_555
