# generated using pymatgen
data_Ir3W
_symmetry_space_group_name_H-M   'P 1'
_cell_length_a   5.51517354
_cell_length_b   5.51517199
_cell_length_c   4.40916781
_cell_angle_alpha   90.00000000
_cell_angle_beta   90.00000000
_cell_angle_gamma   120.00000316
_symmetry_Int_Tables_number   1
_chemical_formula_structural   Ir3W
_chemical_formula_sum   'Ir6 W2'
_cell_volume   116.14632935
_cell_formula_units_Z   2
loop_
 _symmetry_equiv_pos_site_id
 _symmetry_equiv_pos_as_xyz
  1  'x, y, z'
loop_
 _atom_site_type_symbol
 _atom_site_label
 _atom_site_symmetry_multiplicity
 _atom_site_fract_x
 _atom_site_fract_y
 _atom_site_fract_z
 _atom_site_occupancy
  Ir  Ir0  1  0.66754759  0.83377329  0.75000000  1
  Ir  Ir1  1  0.33245241  0.16622671  0.25000000  1
  Ir  Ir2  1  0.83377329  0.16622671  0.25000000  1
  Ir  Ir3  1  0.16622671  0.33245241  0.75000000  1
  Ir  Ir4  1  0.16622671  0.83377329  0.75000000  1
  Ir  Ir5  1  0.83377329  0.66754759  0.25000000  1
  W  W0  1  0.66666700  0.33333300  0.75000000  1
  W  W1  1  0.33333300  0.66666700  0.25000000  1
loop_
_geom_bond_atom_site_label_1
_geom_bond_atom_site_label_2
_geom_bond_distance
_geom_bond_site_symmetry_2
Ir0 Ir5 2.716902 1_556
Ir0 Ir5 2.716902 1_555
Ir0 Ir2 2.716907 1_566
Ir0 Ir2 2.716907 1_565
Ir0 W1 2.721832 1_555
Ir0 W1 2.721832 1_556
Ir0 Ir3 2.750301 1_665
Ir0 Ir4 2.750302 1_655
Ir0 W0 2.757589 1_555
Ir0 W0 2.757589 1_565
Ir0 Ir3 2.764871 1_555
Ir0 Ir4 2.764872 1_555
Ir1 Ir3 2.716902 1_555
Ir1 Ir3 2.716902 1_554
Ir1 Ir4 2.716907 1_545
Ir1 Ir4 2.716907 1_544
Ir1 W0 2.721832 1_555
Ir1 W0 2.721832 1_554
Ir1 Ir5 2.750301 1_445
Ir1 Ir2 2.750302 1_455
Ir1 W1 2.757589 1_555
Ir1 W1 2.757589 1_545
Ir1 Ir5 2.764871 1_555
Ir1 Ir2 2.764872 1_555
Ir2 Ir3 2.716908 1_655
Ir2 Ir3 2.716908 1_654
Ir2 W0 2.721827 1_554
Ir2 W0 2.721827 1_555
Ir2 Ir5 2.750301 1_545
Ir2 W1 2.757589 1_655
Ir2 W1 2.757589 1_545
Ir2 Ir5 2.764871 1_555
Ir3 W1 2.721832 1_555
Ir3 W1 2.721832 1_556
Ir3 Ir4 2.750301 1_545
Ir3 W0 2.757590 1_555
Ir3 W0 2.757590 1_455
Ir3 Ir4 2.764871 1_555
Ir4 Ir5 2.716908 1_455
Ir4 Ir5 2.716908 1_456
Ir4 W1 2.721827 1_556
Ir4 W1 2.721827 1_555
Ir4 W0 2.757589 1_455
Ir4 W0 2.757589 1_565
Ir5 W0 2.721832 1_555
Ir5 W0 2.721832 1_554
Ir5 W1 2.757590 1_555
Ir5 W1 2.757590 1_655
