# generated using pymatgen
data_Ti4Nb3(WN4)3
_symmetry_space_group_name_H-M   'P 1'
_cell_length_a   5.10559754
_cell_length_b   5.10272786
_cell_length_c   10.24134903
_cell_angle_alpha   90.00000000
_cell_angle_beta   90.00000000
_cell_angle_gamma   120.01861791
_symmetry_Int_Tables_number   1
_chemical_formula_structural   Ti4Nb3(WN4)3
_chemical_formula_sum   'Ti4 Nb3 W3 N12'
_cell_volume   231.02303061
_cell_formula_units_Z   1
loop_
 _symmetry_equiv_pos_site_id
 _symmetry_equiv_pos_as_xyz
  1  'x, y, z'
loop_
 _atom_site_type_symbol
 _atom_site_label
 _atom_site_symmetry_multiplicity
 _atom_site_fract_x
 _atom_site_fract_y
 _atom_site_fract_z
 _atom_site_occupancy
  Ti  Ti0  1  0.33119429  0.66616795  0.50253672  1
  Ti  Ti1  1  0.66502734  0.33383205  0.99746328  1
  Ti  Ti2  1  0.66502734  0.33383205  0.50253672  1
  Ti  Ti3  1  0.33119429  0.66616795  0.99746328  1
  Nb  Nb0  1  0.99969958  0.67515530  0.75000000  1
  Nb  Nb1  1  0.32454328  0.32484470  0.75000000  1
  Nb  Nb2  1  0.32646070  1.00000000  0.25000000  1
  W  W0  1  0.67672152  0.00000000  0.75000000  1
  W  W1  1  0.67520156  0.67583148  0.25000000  1
  W  W2  1  0.99937009  0.32416852  0.25000000  1
  N  N0  1  0.34549944  0.35202596  0.37719747  1
  N  N1  1  0.66267859  1.00000000  0.37798476  1
  N  N2  1  0.99347348  0.64797404  0.37719747  1
  N  N3  1  0.99410156  0.33848559  0.88104178  1
  N  N4  1  0.66267859  1.00000000  0.12201524  1
  N  N5  1  0.65561598  0.66151441  0.88104178  1
  N  N6  1  0.35141246  0.00000000  0.88014174  1
  N  N7  1  0.65561598  0.66151441  0.61895822  1
  N  N8  1  0.99410156  0.33848559  0.61895822  1
  N  N9  1  0.99347348  0.64797404  0.12280253  1
  N  N10  1  0.35141246  0.00000000  0.61985826  1
  N  N11  1  0.34549944  0.35202596  0.12280253  1
loop_
_geom_bond_atom_site_label_1
_geom_bond_atom_site_label_2
_geom_bond_distance
_geom_bond_site_symmetry_2
N0 Ti0 2.083210 1_555
N0 Ti2 2.114072 1_555
N0 W1 2.116058 1_555
N0 W2 2.142149 1_455
N0 Nb2 2.181369 1_545
N1 Ti2 2.123338 1_565
N1 Ti0 2.123340 1_555
N1 W2 2.136382 1_565
N1 W1 2.136383 1_555
N1 Nb2 2.159797 1_555
N2 Ti2 2.083208 1_555
N2 Ti0 2.114068 1_655
N2 W2 2.116058 1_555
N2 W1 2.142150 1_555
N2 Nb2 2.181368 1_655
N3 Ti1 2.050625 1_555
N3 Ti3 2.073676 1_655
N3 W0 2.147019 1_555
N3 Nb0 2.168887 1_555
N3 Nb1 2.183974 1_655
N4 Ti1 2.123338 1_564
N4 Ti3 2.123340 1_554
N4 W2 2.136382 1_565
N4 W1 2.136383 1_555
N4 Nb2 2.159797 1_555
N5 Ti3 2.050629 1_555
N5 Ti1 2.073678 1_555
N5 W0 2.147020 1_565
N5 Nb1 2.168888 1_555
N5 Nb0 2.183978 1_555
N6 Ti3 2.044541 1_545
N6 Ti1 2.044543 1_555
N6 W0 2.129556 1_555
N6 Nb0 2.184119 1_445
N6 Nb1 2.184122 1_555
N7 Ti0 2.050629 1_555
N7 Ti2 2.073678 1_555
N7 W0 2.147020 1_565
N7 Nb1 2.168888 1_555
N7 Nb0 2.183978 1_555
N8 Ti2 2.050625 1_555
N8 Ti0 2.073676 1_655
N8 W0 2.147019 1_555
N8 Nb0 2.168887 1_555
N8 Nb1 2.183974 1_655
N9 Ti1 2.083208 1_554
N9 Ti3 2.114068 1_654
N9 W2 2.116058 1_555
N9 W1 2.142150 1_555
N9 Nb2 2.181368 1_655
N10 Ti0 2.044541 1_545
N10 Ti2 2.044543 1_555
N10 W0 2.129556 1_555
N10 Nb0 2.184119 1_445
N10 Nb1 2.184122 1_555
N11 Ti3 2.083210 1_554
N11 Ti1 2.114072 1_554
N11 W1 2.116058 1_555
N11 W2 2.142149 1_455
N11 Nb2 2.181369 1_545
