# generated using pymatgen
data_Ba2NiP2Pd
_symmetry_space_group_name_H-M   'P 1'
_cell_length_a   6.30634698
_cell_length_b   6.23828996
_cell_length_c   7.60456558
_cell_angle_alpha   89.38055814
_cell_angle_beta   89.09367936
_cell_angle_gamma   104.72012359
_symmetry_Int_Tables_number   1
_chemical_formula_structural   Ba2NiP2Pd
_chemical_formula_sum   'Ba4 Ni2 P4 Pd2'
_cell_volume   289.28044874
_cell_formula_units_Z   2
loop_
 _symmetry_equiv_pos_site_id
 _symmetry_equiv_pos_as_xyz
  1  'x, y, z'
loop_
 _atom_site_type_symbol
 _atom_site_label
 _atom_site_symmetry_multiplicity
 _atom_site_fract_x
 _atom_site_fract_y
 _atom_site_fract_z
 _atom_site_occupancy
  Ba  Ba0  1  0.18365218  0.81110648  0.51859955  1
  Ba  Ba1  1  0.68217226  0.31222706  0.98111886  1
  Ba  Ba2  1  0.81634782  0.18889352  0.48140045  1
  Ba  Ba3  1  0.31782774  0.68777294  0.01888114  1
  Ni  Ni0  1  0.38431173  0.38624125  0.61674641  1
  Ni  Ni1  1  0.61568827  0.61375875  0.38325359  1
  P  P0  1  0.15594677  0.21383220  0.81575427  1
  P  P1  1  0.63916632  0.69152189  0.66412423  1
  P  P2  1  0.84405323  0.78616780  0.18424573  1
  P  P3  1  0.36083368  0.30847811  0.33587577  1
  Pd  Pd0  1  0.12294250  0.12228473  0.12418107  1
  Pd  Pd1  1  0.87705750  0.87771527  0.87581893  1
loop_
_geom_bond_atom_site_label_1
_geom_bond_atom_site_label_2
_geom_bond_distance
_geom_bond_site_symmetry_2
Ba0 Ni0 3.297684 1_555
Ba0 P3 3.301842 1_565
Ba0 P2 3.329740 1_455
Ba0 P1 3.347384 1_555
Ba0 Pd1 3.399552 1_455
Ba0 Ni1 3.411974 1_555
Ba0 P0 3.432493 1_565
Ba0 P1 3.483070 1_455
Ba0 Pd0 3.633088 1_565
Ba1 P2 3.283957 1_556
Ba1 P3 3.344655 1_556
Ba1 Pd1 3.347819 1_545
Ba1 P1 3.421509 1_555
Ba1 P0 3.422695 1_655
Ba1 Ni0 3.463701 1_555
Ba1 Pd0 3.472128 1_656
Ba1 P0 3.476278 1_555
Ba1 Pd1 3.507233 1_555
Ba1 Pd0 3.571034 1_556
Ba2 Ni1 3.297684 1_555
Ba2 P1 3.301842 1_545
Ba2 P0 3.329740 1_655
Ba2 P3 3.347384 1_555
Ba2 Pd0 3.399552 1_655
Ba2 Ni0 3.411974 1_555
Ba2 P2 3.432493 1_545
Ba2 P3 3.483070 1_655
Ba2 Pd1 3.633088 1_545
Ba3 P0 3.283957 1_554
Ba3 P1 3.344655 1_554
Ba3 Pd0 3.347819 1_565
Ba3 P3 3.421509 1_555
Ba3 P2 3.422695 1_455
Ba3 Ni1 3.463701 1_555
Ba3 Pd1 3.472128 1_454
Ba3 P2 3.476278 1_555
Ba3 Pd0 3.507233 1_555
Ba3 Pd1 3.571034 1_554
Ni0 P0 2.151695 1_555
Ni0 P3 2.194362 1_555
Ni0 P1 2.194863 1_555
Ni1 P2 2.151695 1_555
Ni1 P1 2.194362 1_555
Ni1 P3 2.194863 1_555
P0 Pd0 2.401209 1_556
P0 Pd1 2.403794 1_445
P1 Pd1 2.328670 1_555
P2 Pd1 2.401209 1_554
P2 Pd0 2.403794 1_665
P3 Pd0 2.328670 1_555
Pd0 Pd1 2.692958 1_444
