# generated using pymatgen
data_Sr(NiGe)2
_symmetry_space_group_name_H-M   'P 1'
_cell_length_a   4.15522533
_cell_length_b   4.15522412
_cell_length_c   5.94154504
_cell_angle_alpha   110.46746479
_cell_angle_beta   110.46745179
_cell_angle_gamma   90.00000335
_symmetry_Int_Tables_number   1
_chemical_formula_structural   Sr(NiGe)2
_chemical_formula_sum   'Sr1 Ni2 Ge2'
_cell_volume   89.16461291
_cell_formula_units_Z   1
loop_
 _symmetry_equiv_pos_site_id
 _symmetry_equiv_pos_as_xyz
  1  'x, y, z'
loop_
 _atom_site_type_symbol
 _atom_site_label
 _atom_site_symmetry_multiplicity
 _atom_site_fract_x
 _atom_site_fract_y
 _atom_site_fract_z
 _atom_site_occupancy
  Sr  Sr0  1  -0.00000000  -0.00000000  0.00000000  1
  Ni  Ni0  1  0.75000000  0.25000000  0.50000000  1
  Ni  Ni1  1  0.25000000  0.75000000  0.50000000  1
  Ge  Ge0  1  0.64300412  0.64300412  0.28600724  1
  Ge  Ge1  1  0.35699588  0.35699588  0.71399276  1
loop_
_geom_bond_atom_site_label_1
_geom_bond_atom_site_label_2
_geom_bond_distance
_geom_bond_site_symmetry_2
Ni0 Sr0 3.314170 1_666
Ni0 Sr0 3.314170 1_655
Ni0 Sr0 3.314171 1_656
Ni0 Sr0 3.314171 1_555
Ni1 Sr0 3.314170 1_555
Ni1 Sr0 3.314170 1_566
Ni1 Sr0 3.314171 1_565
Ni1 Sr0 3.314171 1_666
Ge0 Ni0 2.353235 1_565
Ge0 Ni1 2.353236 1_655
Ge0 Ni0 2.353239 1_555
Ge0 Ni1 2.353239 1_555
Ge0 Sr0 3.288534 1_665
Ge0 Sr0 3.288537 1_655
Ge0 Sr0 3.288537 1_565
Ge0 Sr0 3.288540 1_555
Ge1 Ni1 2.353235 1_545
Ge1 Ni0 2.353236 1_455
Ge1 Ni1 2.353239 1_555
Ge1 Ni0 2.353239 1_555
Ge1 Sr0 3.288534 1_556
Ge1 Sr0 3.288537 1_566
Ge1 Sr0 3.288537 1_656
Ge1 Sr0 3.288540 1_666
