# generated using pymatgen
data_Sr6Sn8HgP
_symmetry_space_group_name_H-M   'P 1'
_cell_length_a   8.90764791
_cell_length_b   8.90764830
_cell_length_c   8.90764752
_cell_angle_alpha   120.51970091
_cell_angle_beta   120.51970277
_cell_angle_gamma   89.10217816
_symmetry_Int_Tables_number   1
_chemical_formula_structural   Sr6Sn8HgP
_chemical_formula_sum   'Sr6 Sn8 Hg1 P1'
_cell_volume   495.78268507
_cell_formula_units_Z   1
loop_
 _symmetry_equiv_pos_site_id
 _symmetry_equiv_pos_as_xyz
  1  'x, y, z'
loop_
 _atom_site_type_symbol
 _atom_site_label
 _atom_site_symmetry_multiplicity
 _atom_site_fract_x
 _atom_site_fract_y
 _atom_site_fract_z
 _atom_site_occupancy
  Sr  Sr0  1  0.26924233  0.26924233  0.00000000  1
  Sr  Sr1  1  0.73075767  0.73075767  1.00000000  1
  Sr  Sr2  1  0.18615386  0.64291894  0.82907280  1
  Sr  Sr3  1  0.81384614  0.35708106  0.17092720  1
  Sr  Sr4  1  0.64291894  0.81384614  0.45676508  1
  Sr  Sr5  1  0.35708106  0.18615386  0.54323492  1
  Sn  Sn0  1  0.84101061  0.32510317  0.78708457  1
  Sn  Sn1  1  0.15898939  0.67489683  0.21291543  1
  Sn  Sn2  1  0.53801960  0.05392604  0.21291543  1
  Sn  Sn3  1  0.32510317  0.53801960  0.48409256  1
  Sn  Sn4  1  0.94607396  0.15898939  0.48409256  1
  Sn  Sn5  1  0.46198040  0.94607396  0.78708457  1
  Sn  Sn6  1  0.67489683  0.46198040  0.51590744  1
  Sn  Sn7  1  0.05392604  0.84101061  0.51590744  1
  Hg  Hg0  1  0.00000000  0.00000000  0.00000000  1
  P  P0  1  0.50000000  0.50000000  0.00000000  1
loop_
_geom_bond_atom_site_label_1
_geom_bond_atom_site_label_2
_geom_bond_distance
_geom_bond_site_symmetry_2
Sn0 Sn6 2.969083 1_555
Sn0 Sn4 2.969090 1_555
Sn0 Sn1 3.078877 1_656
Sn0 Sr3 3.417472 1_556
Sn0 Sr0 3.456355 1_656
Sn0 Sr1 3.526817 1_555
Sn0 Sr5 3.571910 1_555
Sn0 Sr4 3.725545 1_545
Sn1 Sn3 2.969083 1_555
Sn1 Sn7 2.969090 1_555
Sn1 Sr2 3.417472 1_554
Sn1 Sr1 3.456355 1_454
Sn1 Sr0 3.526817 1_555
Sn1 Sr4 3.571910 1_555
Sn1 Sr5 3.725545 1_565
Sn2 Sn4 2.969083 1_555
Sn2 Sn6 2.969084 1_555
Sn2 Sn5 3.078870 1_544
Sn2 Sr2 3.417476 1_544
Sn2 Sr0 3.456359 1_555
Sn2 Sr1 3.526810 1_544
Sn2 Sr4 3.571910 1_545
Sn2 Sr5 3.725552 1_555
Sn3 Sn5 2.969084 1_555
Sn3 Sn6 3.078881 1_555
Sn3 Sr5 3.417481 1_555
Sn3 Sr0 3.456355 1_555
Sn3 Sr1 3.526818 1_555
Sn3 Sr2 3.571911 1_555
Sn3 Sr3 3.725546 1_455
Sn4 Sn7 3.078877 1_645
Sn4 Sr5 3.417472 1_655
Sn4 Sr1 3.456355 1_544
Sn4 Sr0 3.526816 1_656
Sn4 Sr2 3.571910 1_655
Sn4 Sr3 3.725545 1_555
Sn5 Sn7 2.969083 1_555
Sn5 Sr3 3.417476 1_566
Sn5 Sr1 3.456359 1_555
Sn5 Sr0 3.526810 1_566
Sn5 Sr5 3.571910 1_565
Sn5 Sr4 3.725552 1_555
Sn6 Sr4 3.417481 1_555
Sn6 Sr1 3.456355 1_555
Sn6 Sr0 3.526818 1_555
Sn6 Sr3 3.571911 1_555
Sn6 Sr2 3.725546 1_655
Sn7 Sr4 3.417472 1_455
Sn7 Sr0 3.456355 1_566
Sn7 Sr1 3.526816 1_454
Sn7 Sr3 3.571910 1_455
Sn7 Sr2 3.725545 1_555
Hg0 Sr0 3.418201 1_555
Hg0 Sr1 3.418201 1_444
Hg0 Sr5 3.558817 1_555
Hg0 Sr4 3.558817 1_444
Hg0 Sr3 3.558817 1_455
Hg0 Sr2 3.558817 1_544
P0 Sr1 2.929614 1_554
P0 Sr0 2.929614 1_555
P0 Sr3 3.047688 1_555
P0 Sr2 3.047688 1_554
P0 Sr4 3.047688 1_555
P0 Sr5 3.047688 1_554
