# generated using pymatgen
data_Ba4SrCrN5
_symmetry_space_group_name_H-M   'P 1'
_cell_length_a   7.93528928
_cell_length_b   7.93528854
_cell_length_c   9.07066703
_cell_angle_alpha   76.15203250
_cell_angle_beta   76.15203417
_cell_angle_gamma   95.22886317
_symmetry_Int_Tables_number   1
_chemical_formula_structural   Ba4SrCrN5
_chemical_formula_sum   'Ba8 Sr2 Cr2 N10'
_cell_volume   531.73347224
_cell_formula_units_Z   2
loop_
 _symmetry_equiv_pos_site_id
 _symmetry_equiv_pos_as_xyz
  1  'x, y, z'
loop_
 _atom_site_type_symbol
 _atom_site_label
 _atom_site_symmetry_multiplicity
 _atom_site_fract_x
 _atom_site_fract_y
 _atom_site_fract_z
 _atom_site_occupancy
  Ba  Ba0  1  0.66708276  0.66708276  0.00342027  1
  Ba  Ba1  1  0.33291724  0.33291724  0.99657973  1
  Ba  Ba2  1  0.92374878  0.92374878  0.20973399  1
  Ba  Ba3  1  0.07625122  0.07625122  0.79026601  1
  Ba  Ba4  1  0.56331828  0.09074512  0.74728372  1
  Ba  Ba5  1  0.90925488  0.43668172  0.25271628  1
  Ba  Ba6  1  0.43668172  0.90925488  0.25271628  1
  Ba  Ba7  1  0.09074512  0.56331828  0.74728372  1
  Sr  Sr0  1  0.40456972  0.40456972  0.37768280  1
  Sr  Sr1  1  0.59543028  0.59543028  0.62231720  1
  Cr  Cr0  1  0.75419335  0.24580665  0.00000000  1
  Cr  Cr1  1  0.24580665  0.75419335  1.00000000  1
  N  N0  1  0.65337974  0.65337974  0.32293280  1
  N  N1  1  0.34662026  0.34662026  0.67706720  1
  N  N2  1  0.71521155  0.02855284  0.99242179  1
  N  N3  1  0.97144716  0.28478845  0.00757821  1
  N  N4  1  0.28478845  0.97144716  0.00757821  1
  N  N5  1  0.02855284  0.71521155  0.99242179  1
  N  N6  1  0.38937502  0.72502078  0.83156095  1
  N  N7  1  0.27497922  0.61062498  0.16843805  1
  N  N8  1  0.61062498  0.27497922  0.16843805  1
  N  N9  1  0.72502078  0.38937502  0.83156095  1
loop_
_geom_bond_atom_site_label_1
_geom_bond_atom_site_label_2
_geom_bond_distance
_geom_bond_site_symmetry_2
Ba0 N2 2.833454 1_564
Ba0 N5 2.833455 1_654
Ba0 N0 2.849438 1_555
Ba0 N9 2.997293 1_554
Ba0 N6 2.997293 1_554
Ba0 N8 3.052514 1_555
Ba0 N7 3.052515 1_555
Ba1 N4 2.833454 1_546
Ba1 N3 2.833455 1_456
Ba1 N1 2.849438 1_555
Ba1 N7 2.997287 1_556
Ba1 N8 2.997287 1_556
Ba1 N6 3.052516 1_555
Ba1 N9 3.052517 1_555
Ba2 N0 2.704113 1_555
Ba2 N5 2.888437 1_654
Ba2 N2 2.888437 1_564
Ba2 N3 2.944311 1_565
Ba2 N4 2.944311 1_655
Ba3 N1 2.704113 1_555
Ba3 N3 2.888437 1_456
Ba3 N4 2.888437 1_546
Ba3 N5 2.944311 1_545
Ba3 N2 2.944311 1_455
Ba4 N4 2.721477 1_546
Ba4 N2 2.739828 1_555
Ba4 N1 2.833169 1_555
Ba4 N6 2.935083 1_545
Ba4 N9 2.937502 1_555
Ba5 N5 2.721477 1_654
Ba5 N3 2.739828 1_555
Ba5 N0 2.833169 1_555
Ba5 N7 2.935082 1_655
Ba5 N8 2.937507 1_555
Ba6 N2 2.721477 1_564
Ba6 N4 2.739828 1_555
Ba6 N0 2.833169 1_555
Ba6 N8 2.935082 1_565
Ba6 N7 2.937507 1_555
Ba7 N3 2.721477 1_456
Ba7 N5 2.739828 1_555
Ba7 N1 2.833169 1_555
Ba7 N9 2.935083 1_455
Ba7 N6 2.937502 1_555
Cr0 N2 1.744189 1_554
Cr0 N3 1.744189 1_555
Cr0 N8 1.752132 1_555
Cr0 N9 1.752139 1_554
Cr1 N4 1.744189 1_556
Cr1 N5 1.744189 1_555
Cr1 N7 1.752132 1_556
Cr1 N6 1.752139 1_555
N0 Sr0 2.528583 1_555
N0 Sr1 2.561913 1_555
N1 Sr1 2.528583 1_555
N1 Sr0 2.561913 1_555
N6 Sr1 2.662439 1_555
N7 Sr0 2.662445 1_555
N8 Sr0 2.662445 1_555
N9 Sr1 2.662439 1_555
