# generated using pymatgen
data_Hf2Zr3AlSn3
_symmetry_space_group_name_H-M   'P 1'
_cell_length_a   8.66937591
_cell_length_b   8.66937578
_cell_length_c   5.86064574
_cell_angle_alpha   90.00000000
_cell_angle_beta   90.00000000
_cell_angle_gamma   120.00000423
_symmetry_Int_Tables_number   1
_chemical_formula_structural   Hf2Zr3AlSn3
_chemical_formula_sum   'Hf4 Zr6 Al2 Sn6'
_cell_volume   381.46240844
_cell_formula_units_Z   2
loop_
 _symmetry_equiv_pos_site_id
 _symmetry_equiv_pos_as_xyz
  1  'x, y, z'
loop_
 _atom_site_type_symbol
 _atom_site_label
 _atom_site_symmetry_multiplicity
 _atom_site_fract_x
 _atom_site_fract_y
 _atom_site_fract_z
 _atom_site_occupancy
  Hf  Hf0  1  0.33333300  0.66666700  0.00000000  1
  Hf  Hf1  1  0.66666700  0.33333300  0.50000000  1
  Hf  Hf2  1  0.66666700  0.33333300  0.00000000  1
  Hf  Hf3  1  0.33333300  0.66666700  0.50000000  1
  Zr  Zr0  1  0.26869708  1.00000000  0.25000000  1
  Zr  Zr1  1  0.26869708  0.26869708  0.75000000  1
  Zr  Zr2  1  0.00000000  0.73130292  0.75000000  1
  Zr  Zr3  1  1.00000000  0.26869708  0.25000000  1
  Zr  Zr4  1  0.73130292  0.73130292  0.25000000  1
  Zr  Zr5  1  0.73130292  0.00000000  0.75000000  1
  Al  Al0  1  0.00000000  0.00000000  0.00000000  1
  Al  Al1  1  0.00000000  0.00000000  0.50000000  1
  Sn  Sn0  1  0.61293199  1.00000000  0.25000000  1
  Sn  Sn1  1  0.61293199  0.61293199  0.75000000  1
  Sn  Sn2  1  0.00000000  0.38706801  0.75000000  1
  Sn  Sn3  1  1.00000000  0.61293199  0.25000000  1
  Sn  Sn4  1  0.38706801  0.38706801  0.25000000  1
  Sn  Sn5  1  0.38706801  0.00000000  0.75000000  1
loop_
_geom_bond_atom_site_label_1
_geom_bond_atom_site_label_2
_geom_bond_distance
_geom_bond_site_symmetry_2
Hf0 Sn5 3.060782 1_564
Hf0 Sn3 3.060782 1_455
Hf0 Sn0 3.060785 1_555
Hf0 Sn2 3.060785 1_554
Hf0 Sn4 3.060790 1_555
Hf0 Sn1 3.060790 1_554
Hf1 Sn0 3.060782 1_545
Hf1 Sn2 3.060782 1_655
Hf1 Sn5 3.060785 1_555
Hf1 Sn3 3.060785 1_555
Hf1 Sn1 3.060790 1_555
Hf1 Sn4 3.060790 1_555
Hf2 Sn0 3.060782 1_545
Hf2 Sn2 3.060782 1_654
Hf2 Sn5 3.060785 1_554
Hf2 Sn3 3.060785 1_555
Hf2 Sn1 3.060790 1_554
Hf2 Sn4 3.060790 1_555
Hf3 Sn5 3.060782 1_565
Hf3 Sn3 3.060782 1_455
Hf3 Sn0 3.060785 1_555
Hf3 Sn2 3.060785 1_555
Hf3 Sn4 3.060790 1_555
Hf3 Sn1 3.060790 1_555
Al0 Zr1 2.751903 1_554
Al0 Zr4 2.751903 1_445
Al0 Zr3 2.751903 1_455
Al0 Zr2 2.751903 1_544
Al0 Zr0 2.751903 1_545
Al0 Zr5 2.751903 1_454
Al1 Zr1 2.751903 1_555
Al1 Zr4 2.751903 1_445
Al1 Zr3 2.751903 1_455
Al1 Zr2 2.751903 1_545
Al1 Zr0 2.751903 1_545
Al1 Zr5 2.751903 1_455
Sn0 Zr3 2.978227 1_565
Sn0 Zr4 2.978227 1_555
Sn0 Zr0 2.984302 1_555
Sn0 Zr5 3.104816 1_565
Sn0 Zr5 3.104816 1_564
Sn1 Zr5 2.978227 1_565
Sn1 Zr2 2.978227 1_655
Sn1 Zr1 2.984302 1_555
Sn1 Zr4 3.104816 1_556
Sn1 Zr4 3.104816 1_555
Sn2 Zr5 2.978227 1_455
Sn2 Zr1 2.978227 1_555
Sn2 Zr2 2.984302 1_555
Sn2 Zr3 3.104816 1_456
Sn2 Zr3 3.104816 1_455
Sn3 Zr0 2.978227 1_655
Sn3 Zr4 2.978227 1_555
Sn3 Zr3 2.984302 1_555
Sn3 Zr2 3.104816 1_654
Sn3 Zr2 3.104816 1_655
Sn4 Zr0 2.978227 1_545
Sn4 Zr3 2.978227 1_455
Sn4 Zr4 2.984302 1_555
Sn4 Zr1 3.104816 1_555
Sn4 Zr1 3.104816 1_554
Sn5 Zr2 2.978227 1_545
Sn5 Zr1 2.978227 1_555
Sn5 Zr5 2.984302 1_555
Sn5 Zr0 3.104816 1_545
Sn5 Zr0 3.104816 1_546
