# generated using pymatgen
data_YRe2BC
_symmetry_space_group_name_H-M   'P 1'
_cell_length_a   5.76158689
_cell_length_b   5.76158674
_cell_length_c   7.24638755
_cell_angle_alpha   90.00000000
_cell_angle_beta   90.00000000
_cell_angle_gamma   145.39317629
_symmetry_Int_Tables_number   1
_chemical_formula_structural   YRe2BC
_chemical_formula_sum   'Y2 Re4 B2 C2'
_cell_volume   136.61852460
_cell_formula_units_Z   2
loop_
 _symmetry_equiv_pos_site_id
 _symmetry_equiv_pos_as_xyz
  1  'x, y, z'
loop_
 _atom_site_type_symbol
 _atom_site_label
 _atom_site_symmetry_multiplicity
 _atom_site_fract_x
 _atom_site_fract_y
 _atom_site_fract_z
 _atom_site_occupancy
  Y  Y0  1  0.54459737  0.45540263  0.25000000  1
  Y  Y1  1  0.45540263  0.54459737  0.75000000  1
  Re  Re0  1  0.82745657  0.17254343  0.06507791  1
  Re  Re1  1  0.17254343  0.82745657  0.93492209  1
  Re  Re2  1  0.17254343  0.82745657  0.56507791  1
  Re  Re3  1  0.82745657  0.17254343  0.43492209  1
  B  B0  1  0.26097046  0.73902954  0.25000000  1
  B  B1  1  0.73902954  0.26097046  0.75000000  1
  C  C0  1  0.00000000  0.00000000  0.00000000  1
  C  C1  1  0.00000000  0.00000000  0.50000000  1
loop_
_geom_bond_atom_site_label_1
_geom_bond_atom_site_label_2
_geom_bond_distance
_geom_bond_site_symmetry_2
B0 Re0 2.295076 1_455
B0 Re3 2.295076 1_455
B0 Re0 2.295076 1_565
B0 Re3 2.295076 1_565
B0 Re2 2.481798 1_555
B0 Re1 2.481798 1_554
B0 Y0 2.933140 1_565
B0 Y0 2.933140 1_455
B0 Y0 3.120370 1_555
B1 Re1 2.295076 1_655
B1 Re2 2.295076 1_655
B1 Re1 2.295076 1_545
B1 Re2 2.295076 1_545
B1 Re3 2.481798 1_555
B1 Re0 2.481798 1_556
B1 Y1 2.933140 1_545
B1 Y1 2.933140 1_655
B1 Y1 3.120370 1_555
C0 Re1 1.955965 1_544
C0 Re0 1.955965 1_455
C0 Y1 2.541517 1_554
C0 Y0 2.541517 1_445
C0 Y0 2.541517 1_555
C0 Y1 2.541517 1_444
C1 Re2 1.955965 1_545
C1 Re3 1.955965 1_455
C1 Y1 2.541517 1_555
C1 Y0 2.541517 1_445
C1 Y0 2.541517 1_555
C1 Y1 2.541517 1_445
