# generated using pymatgen
data_KAg3(BiO3)4
_symmetry_space_group_name_H-M   'P 1'
_cell_length_a   7.19195905
_cell_length_b   7.19195936
_cell_length_c   7.19195946
_cell_angle_alpha   109.47122091
_cell_angle_beta   109.47122181
_cell_angle_gamma   109.47121856
_symmetry_Int_Tables_number   1
_chemical_formula_structural   KAg3(BiO3)4
_chemical_formula_sum   'K1 Ag3 Bi4 O12'
_cell_volume   286.36489266
_cell_formula_units_Z   1
loop_
 _symmetry_equiv_pos_site_id
 _symmetry_equiv_pos_as_xyz
  1  'x, y, z'
loop_
 _atom_site_type_symbol
 _atom_site_label
 _atom_site_symmetry_multiplicity
 _atom_site_fract_x
 _atom_site_fract_y
 _atom_site_fract_z
 _atom_site_occupancy
  K  K0  1  0.00000000  0.00000000  0.00000000  1
  Ag  Ag0  1  0.50000000  0.50000000  0.00000000  1
  Ag  Ag1  1  0.50000000  0.00000000  0.50000000  1
  Ag  Ag2  1  0.00000000  0.50000000  0.50000000  1
  Bi  Bi0  1  0.50000000  0.50000000  0.50000000  1
  Bi  Bi1  1  0.00000000  0.50000000  0.00000000  1
  Bi  Bi2  1  0.00000000  0.00000000  0.50000000  1
  Bi  Bi3  1  0.50000000  0.00000000  0.00000000  1
  O  O0  1  0.31883293  0.83057129  0.14940422  1
  O  O1  1  0.68116707  0.16942871  0.85059578  1
  O  O2  1  0.68116707  0.83057129  0.51173836  1
  O  O3  1  0.85059578  0.68116707  0.16942871  1
  O  O4  1  0.83057129  0.14940422  0.31883293  1
  O  O5  1  0.16942871  0.48826164  0.31883293  1
  O  O6  1  0.48826164  0.31883293  0.16942871  1
  O  O7  1  0.16942871  0.85059578  0.68116707  1
  O  O8  1  0.31883293  0.16942871  0.48826164  1
  O  O9  1  0.14940422  0.31883293  0.83057129  1
  O  O10  1  0.83057129  0.51173836  0.68116707  1
  O  O11  1  0.51173836  0.68116707  0.83057129  1
loop_
_geom_bond_atom_site_label_1
_geom_bond_atom_site_label_2
_geom_bond_distance
_geom_bond_site_symmetry_2
K0 O0 2.998400 1_545
K0 O1 2.998400 1_454
K0 O6 2.998400 1_555
K0 O11 2.998400 1_444
K0 O4 2.998400 1_455
K0 O7 2.998400 1_544
K0 O8 2.998400 1_555
K0 O2 2.998400 1_444
K0 O5 2.998401 1_555
K0 O10 2.998401 1_444
K0 O9 2.998401 1_554
K0 O3 2.998401 1_445
Ag0 O3 2.059926 1_555
Ag0 O9 2.059926 1_554
Ag0 O11 2.059926 1_554
Ag0 O6 2.059926 1_555
Ag1 O2 2.059926 1_545
Ag1 O8 2.059926 1_555
Ag1 O1 2.059926 1_555
Ag1 O0 2.059926 1_545
Ag2 O5 2.059926 1_555
Ag2 O10 2.059926 1_455
Ag2 O7 2.059926 1_555
Ag2 O4 2.059926 1_455
Bi0 O10 2.254955 1_555
Bi0 O5 2.254955 1_555
Bi0 O6 2.254955 1_555
Bi0 O11 2.254955 1_555
Bi0 O8 2.254955 1_555
Bi0 O2 2.254955 1_555
Bi1 O3 2.254955 1_455
Bi1 O9 2.254955 1_554
Bi1 O5 2.254955 1_555
Bi1 O10 2.254955 1_454
Bi1 O0 2.254955 1_555
Bi1 O1 2.254955 1_454
Bi2 O7 2.254955 1_545
Bi2 O4 2.254955 1_455
Bi2 O2 2.254955 1_445
Bi2 O8 2.254955 1_555
Bi2 O9 2.254955 1_555
Bi2 O3 2.254955 1_445
Bi3 O4 2.254955 1_555
Bi3 O7 2.254955 1_544
Bi3 O6 2.254955 1_555
Bi3 O11 2.254955 1_544
Bi3 O1 2.254955 1_554
Bi3 O0 2.254955 1_545
