# generated using pymatgen
data_Zr10Sn3GeSb3
_symmetry_space_group_name_H-M   'P 1'
_cell_length_a   5.86292046
_cell_length_b   8.57587014
_cell_length_c   8.57597762
_cell_angle_alpha   119.99987077
_cell_angle_beta   90.00088392
_cell_angle_gamma   89.99885403
_symmetry_Int_Tables_number   1
_chemical_formula_structural   Zr10Sn3GeSb3
_chemical_formula_sum   'Zr10 Sn3 Ge1 Sb3'
_cell_volume   373.42813373
_cell_formula_units_Z   1
loop_
 _symmetry_equiv_pos_site_id
 _symmetry_equiv_pos_as_xyz
  1  'x, y, z'
loop_
 _atom_site_type_symbol
 _atom_site_label
 _atom_site_symmetry_multiplicity
 _atom_site_fract_x
 _atom_site_fract_y
 _atom_site_fract_z
 _atom_site_occupancy
  Zr  Zr0  1  0.49978332  0.33333058  0.66665394  1
  Zr  Zr1  1  0.49978487  0.66667379  0.33333895  1
  Zr  Zr2  1  0.00175169  0.66665359  0.33331683  1
  Zr  Zr3  1  0.00174721  0.33334145  0.66667748  1
  Zr  Zr4  1  0.76278084  0.25564253  0.99998638  1
  Zr  Zr5  1  0.76272964  0.74432594  0.74435677  1
  Zr  Zr6  1  0.76270356  0.00001817  0.25567512  1
  Zr  Zr7  1  0.23644432  0.74232103  0.99997534  1
  Zr  Zr8  1  0.23645512  0.25766164  0.25768149  1
  Zr  Zr9  1  0.23647273  0.00002468  0.74233290  1
  Sn  Sn0  1  0.25252234  0.38924214  0.99995884  1
  Sn  Sn1  1  0.25246963  0.61071780  0.61075600  1
  Sn  Sn2  1  0.25245477  0.00004182  0.38927872  1
  Ge  Ge0  1  0.49683907  0.00000310  0.00000111  1
  Sb  Sb0  1  0.74834664  0.60837279  0.99997747  1
  Sb  Sb1  1  0.74834527  0.39160291  0.39162955  1
  Sb  Sb2  1  0.74836598  0.00002403  0.60840411  1
loop_
_geom_bond_atom_site_label_1
_geom_bond_atom_site_label_2
_geom_bond_distance
_geom_bond_site_symmetry_2
Sn0 Zr9 2.942287 1_555
Sn0 Zr8 2.943016 1_556
Sn0 Zr0 3.021840 1_555
Sn0 Zr1 3.022282 1_556
Sn0 Zr7 3.029353 1_555
Sn0 Zr3 3.031600 1_555
Sn0 Zr2 3.032039 1_556
Sn0 Zr4 3.091530 1_455
Sn0 Zr4 3.203520 1_555
Sn1 Zr7 2.942311 1_555
Sn1 Zr9 2.943011 1_565
Sn1 Zr0 3.021806 1_555
Sn1 Zr1 3.022379 1_555
Sn1 Zr8 3.029323 1_555
Sn1 Zr3 3.031530 1_555
Sn1 Zr2 3.032024 1_555
Sn1 Zr5 3.091471 1_455
Sn1 Zr5 3.203530 1_555
Sn2 Zr8 2.942262 1_555
Sn2 Zr7 2.943014 1_544
Sn2 Zr0 3.021880 1_555
Sn2 Zr1 3.022355 1_545
Sn2 Zr9 3.029309 1_555
Sn2 Zr3 3.031531 1_555
Sn2 Zr2 3.032030 1_545
Sn2 Zr6 3.091482 1_455
Sn2 Zr6 3.203443 1_555
Ge0 Zr8 2.685803 1_555
Ge0 Zr9 2.685806 1_554
Ge0 Zr7 2.685853 1_544
Ge0 Zr6 2.690172 1_555
Ge0 Zr5 2.690226 1_544
Ge0 Zr4 2.690319 1_554
Sb0 Zr5 2.954339 1_555
Sb0 Zr6 2.954904 1_566
Sb0 Zr0 3.019309 1_555
Sb0 Zr1 3.019556 1_556
Sb0 Zr4 3.026189 1_555
Sb0 Zr3 3.032955 1_655
Sb0 Zr2 3.033219 1_656
Sb0 Zr7 3.083653 1_655
Sb0 Zr7 3.213550 1_555
Sb1 Zr6 2.954394 1_555
Sb1 Zr4 2.954913 1_554
Sb1 Zr0 3.019151 1_555
Sb1 Zr1 3.019507 1_555
Sb1 Zr5 3.026125 1_555
Sb1 Zr3 3.033027 1_655
Sb1 Zr2 3.033331 1_655
Sb1 Zr8 3.083682 1_655
Sb1 Zr8 3.213499 1_555
Sb2 Zr4 2.954408 1_555
Sb2 Zr5 2.954938 1_545
Sb2 Zr0 3.019270 1_555
Sb2 Zr1 3.019545 1_545
Sb2 Zr6 3.026140 1_555
Sb2 Zr3 3.033017 1_655
Sb2 Zr2 3.033375 1_645
Sb2 Zr9 3.083604 1_655
Sb2 Zr9 3.213480 1_555
