# generated using pymatgen
data_Y4Al3(GaPt6)3
_symmetry_space_group_name_H-M   'P 1'
_cell_length_a   7.67490296
_cell_length_b   7.66932256
_cell_length_c   10.15045933
_cell_angle_alpha   67.99812937
_cell_angle_beta   68.03207129
_cell_angle_gamma   59.99460080
_symmetry_Int_Tables_number   1
_chemical_formula_structural   Y4Al3(GaPt6)3
_chemical_formula_sum   'Y4 Al3 Ga3 Pt18'
_cell_volume   466.55962896
_cell_formula_units_Z   1
loop_
 _symmetry_equiv_pos_site_id
 _symmetry_equiv_pos_as_xyz
  1  'x, y, z'
loop_
 _atom_site_type_symbol
 _atom_site_label
 _atom_site_symmetry_multiplicity
 _atom_site_fract_x
 _atom_site_fract_y
 _atom_site_fract_z
 _atom_site_occupancy
  Y  Y0  1  0.41443386  0.24575149  0.25049496  1
  Y  Y1  1  0.58576245  0.75367531  0.74960470  1
  Y  Y2  1  0.75345513  0.58559753  0.24989639  1
  Y  Y3  1  0.24666754  0.41410211  0.74995690  1
  Al  Al0  1  0.50014689  0.99976199  0.00005748  1
  Al  Al1  1  0.00008450  0.49964027  0.50014297  1
  Al  Al2  1  0.17841974  0.64469129  0.99969820  1
  Ga  Ga0  1  0.64045119  0.18007802  0.49997988  1
  Ga  Ga1  1  0.35973431  0.81964764  0.49978076  1
  Ga  Ga2  1  0.81978250  0.35971483  0.99989530  1
  Pt  Pt0  1  0.29580905  0.91859389  0.25044915  1
  Pt  Pt1  1  0.70376517  0.08177672  0.74944414  1
  Pt  Pt2  1  0.08188756  0.70424889  0.24761023  1
  Pt  Pt3  1  0.91806965  0.29512336  0.75174163  1
  Pt  Pt4  1  0.46857710  0.64674432  0.07628728  1
  Pt  Pt5  1  0.52745024  0.35460068  0.92404654  1
  Pt  Pt6  1  0.35169974  0.53059049  0.42294194  1
  Pt  Pt7  1  0.64795568  0.46944889  0.57640025  1
  Pt  Pt8  1  0.86433609  0.13602816  0.24950352  1
  Pt  Pt9  1  0.13632000  0.86322379  0.75103605  1
  Pt  Pt10  1  0.81016175  0.97631320  0.07249297  1
  Pt  Pt11  1  0.19181758  0.02068441  0.92735577  1
  Pt  Pt12  1  0.02286343  0.19115247  0.42587260  1
  Pt  Pt13  1  0.97747630  0.80757493  0.57543421  1
  Pt  Pt14  1  0.69989496  0.85640710  0.42606035  1
  Pt  Pt15  1  0.30087643  0.14278722  0.57409891  1
  Pt  Pt16  1  0.14326176  0.30381756  0.07350436  1
  Pt  Pt17  1  0.85884139  0.69822444  0.92621156  1
loop_
_geom_bond_atom_site_label_1
_geom_bond_atom_site_label_2
_geom_bond_distance
_geom_bond_site_symmetry_2
Al0 Pt0 2.472947 1_555
Al0 Pt1 2.473641 1_564
Al0 Pt17 2.622234 1_554
Al0 Pt16 2.623462 1_565
Al0 Pt5 2.630824 1_564
Al0 Pt4 2.633182 1_555
Al0 Pt11 2.647300 1_564
Al0 Pt10 2.648774 1_555
Al1 Pt3 2.482319 1_455
Al1 Pt2 2.488903 1_555
Al1 Pt14 2.609546 1_455
Al1 Pt15 2.611744 1_555
Al1 Pt6 2.621460 1_555
Al1 Pt7 2.623554 1_455
Al1 Pt12 2.649613 1_555
Al1 Pt13 2.652327 1_455
Al2 Pt9 2.486570 1_555
Al2 Pt2 2.493553 1_556
Al2 Pt5 2.548643 1_555
Al2 Pt16 2.560330 1_556
Al2 Pt17 2.621651 1_455
Al2 Pt4 2.627423 1_556
Al2 Pt11 2.741991 1_565
Al2 Pt10 2.767452 1_456
Ga0 Pt8 2.514987 1_555
Ga0 Pt1 2.517982 1_555
Ga0 Pt6 2.551914 1_555
Ga0 Pt15 2.560739 1_555
Ga0 Pt14 2.634362 1_545
Ga0 Pt7 2.642228 1_555
Ga0 Pt12 2.781511 1_655
Ga0 Pt13 2.809054 1_545
Ga1 Pt0 2.517795 1_555
Ga1 Pt9 2.519886 1_555
Ga1 Pt7 2.547843 1_555
Ga1 Pt14 2.563518 1_555
Ga1 Pt15 2.634585 1_565
Ga1 Pt6 2.644785 1_555
Ga1 Pt13 2.781771 1_455
Ga1 Pt12 2.801289 1_565
Ga2 Pt8 2.506795 1_556
Ga2 Pt3 2.509728 1_555
Ga2 Pt4 2.548189 1_556
Ga2 Pt17 2.558310 1_555
Ga2 Pt16 2.643683 1_656
Ga2 Pt5 2.651628 1_555
Ga2 Pt10 2.783437 1_546
Ga2 Pt11 2.809240 1_655
Pt0 Y0 3.067616 1_565
Pt0 Y2 3.143801 1_555
Pt1 Y1 3.070372 1_545
Pt1 Y3 3.139548 1_555
Pt2 Y2 3.068715 1_455
Pt2 Y0 3.143618 1_555
Pt3 Y3 3.073806 1_655
Pt3 Y1 3.144261 1_555
Pt4 Y1 2.990980 1_554
Pt4 Y2 3.056742 1_555
Pt4 Y0 3.067739 1_555
Pt5 Y0 2.988377 1_556
Pt5 Y3 3.039097 1_555
Pt5 Y1 3.069125 1_555
Pt6 Y3 2.993736 1_555
Pt6 Y0 3.041460 1_555
Pt6 Y2 3.076436 1_555
Pt7 Y2 2.989056 1_555
Pt7 Y1 3.045221 1_555
Pt7 Y3 3.075224 1_555
Pt8 Y2 3.112123 1_555
Pt8 Y0 3.115338 1_555
Pt9 Y1 3.110905 1_555
Pt9 Y3 3.112135 1_555
Pt10 Y2 3.014327 1_555
Pt10 Y0 3.028820 1_565
Pt11 Y1 3.014087 1_545
Pt11 Y3 3.025855 1_555
Pt12 Y0 3.012209 1_555
Pt12 Y2 3.012615 1_455
Pt13 Y3 3.001694 1_655
Pt13 Y1 3.008897 1_555
Pt14 Y1 2.961880 1_555
Pt14 Y2 3.009801 1_555
Pt14 Y0 3.046792 1_565
Pt15 Y0 2.962361 1_555
Pt15 Y3 3.008444 1_555
Pt15 Y1 3.043807 1_545
Pt16 Y3 2.961576 1_554
Pt16 Y0 3.004716 1_555
Pt16 Y2 3.041631 1_455
Pt17 Y2 2.962980 1_556
Pt17 Y1 3.022472 1_555
Pt17 Y3 3.042768 1_655
