# generated using pymatgen
data_Ta2TlO6
_symmetry_space_group_name_H-M   'P 1'
_cell_length_a   7.54396625
_cell_length_b   7.54396625
_cell_length_c   7.54396625
_cell_angle_alpha   120.08047560
_cell_angle_beta   119.96611260
_cell_angle_gamma   89.95968672
_symmetry_Int_Tables_number   1
_chemical_formula_structural   Ta2TlO6
_chemical_formula_sum   'Ta4 Tl2 O12'
_cell_volume   303.48037875
_cell_formula_units_Z   2
loop_
 _symmetry_equiv_pos_site_id
 _symmetry_equiv_pos_as_xyz
  1  'x, y, z'
loop_
 _atom_site_type_symbol
 _atom_site_label
 _atom_site_symmetry_multiplicity
 _atom_site_fract_x
 _atom_site_fract_y
 _atom_site_fract_z
 _atom_site_occupancy
  Ta  Ta0  1  0.00000000  0.00000000  0.50000000  1
  Ta  Ta1  1  0.50000000  0.00000000  0.50000000  1
  Ta  Ta2  1  0.00000000  0.00000000  0.00000000  1
  Ta  Ta3  1  0.00000000  0.50000000  0.00000000  1
  Tl  Tl0  1  0.50000000  0.50000000  0.50000000  1
  Tl  Tl1  1  0.50000000  0.00000000  0.00000000  1
  O  O0  1  0.05726700  0.30726700  0.75000000  1
  O  O1  1  0.68743000  0.94187700  0.37596500  1
  O  O2  1  0.06591100  0.94187700  0.75444700  1
  O  O3  1  0.68743000  0.31146500  0.74555300  1
  O  O4  1  0.31380300  0.06380300  0.25000000  1
  O  O5  1  0.93408900  0.68853500  0.87596500  1
  O  O6  1  0.06591100  0.31146500  0.12403500  1
  O  O7  1  0.68619700  0.93619700  0.75000000  1
  O  O8  1  0.31257000  0.68853500  0.25444700  1
  O  O9  1  0.93408900  0.05812300  0.24555300  1
  O  O10  1  0.94273300  0.69273300  0.25000000  1
  O  O11  1  0.31257000  0.05812300  0.62403500  1
loop_
_geom_bond_atom_site_label_1
_geom_bond_atom_site_label_2
_geom_bond_distance
_geom_bond_site_symmetry_2
O0 Ta3 1.980369 1_556
O0 Ta0 1.980369 1_555
O1 Ta1 1.994161 1_565
O1 Ta0 2.003514 1_665
O1 Tl1 2.734134 1_565
O2 Ta2 1.994156 1_566
O2 Ta0 2.003515 1_565
O2 Tl1 2.734141 1_566
O3 Ta1 1.994161 1_555
O3 Ta3 2.003514 1_656
O3 Tl0 2.734134 1_555
O4 Ta2 2.006063 1_555
O4 Ta1 2.006063 1_555
O4 Tl0 2.738111 1_555
O4 Tl1 2.738111 1_555
O5 Ta2 1.994161 1_666
O5 Ta3 2.003513 1_656
O5 Tl0 2.734140 1_555
O6 Ta2 1.994161 1_555
O6 Ta3 2.003513 1_555
O6 Tl0 2.734140 1_555
O7 Ta2 2.006063 1_666
O7 Ta1 2.006063 1_565
O7 Tl0 2.738111 1_555
O7 Tl1 2.738111 1_566
O8 Ta1 1.994161 1_565
O8 Ta3 2.003514 1_555
O8 Tl0 2.734134 1_555
O9 Ta2 1.994156 1_655
O9 Ta0 2.003515 1_655
O9 Tl1 2.734141 1_555
O10 Ta0 1.980369 1_665
O10 Ta3 1.980369 1_655
O11 Ta1 1.994161 1_555
O11 Ta0 2.003514 1_555
O11 Tl1 2.734134 1_556
