# generated using pymatgen
data_TiBe3AlRe
_symmetry_space_group_name_H-M   'P 1'
_cell_length_a   4.55330876
_cell_length_b   4.55330838
_cell_length_c   7.51029054
_cell_angle_alpha   90.00000000
_cell_angle_beta   90.00000000
_cell_angle_gamma   120.00000275
_symmetry_Int_Tables_number   1
_chemical_formula_structural   TiBe3AlRe
_chemical_formula_sum   'Ti2 Be6 Al2 Re2'
_cell_volume   134.84707265
_cell_formula_units_Z   2
loop_
 _symmetry_equiv_pos_site_id
 _symmetry_equiv_pos_as_xyz
  1  'x, y, z'
loop_
 _atom_site_type_symbol
 _atom_site_label
 _atom_site_symmetry_multiplicity
 _atom_site_fract_x
 _atom_site_fract_y
 _atom_site_fract_z
 _atom_site_occupancy
  Ti  Ti0  1  0.33333300  0.66666700  0.06722400  1
  Ti  Ti1  1  0.66666700  0.33333300  0.56722400  1
  Be  Be0  1  0.82339826  0.64679651  0.24958901  1
  Be  Be1  1  0.17660174  0.82339826  0.74958901  1
  Be  Be2  1  0.64679651  0.82339826  0.74958901  1
  Be  Be3  1  0.35320349  0.17660174  0.24958901  1
  Be  Be4  1  0.82339826  0.17660174  0.24958901  1
  Be  Be5  1  0.17660174  0.35320349  0.74958901  1
  Al  Al0  1  0.00000000  0.00000000  0.99615713  1
  Al  Al1  1  0.00000000  0.00000000  0.49615713  1
  Re  Re0  1  0.66666700  0.33333300  0.93784985  1
  Re  Re1  1  0.33333300  0.66666700  0.43784985  1
loop_
_geom_bond_atom_site_label_1
_geom_bond_atom_site_label_2
_geom_bond_distance
_geom_bond_site_symmetry_2
Be0 Be4 2.140942 1_555
Be0 Be3 2.140942 1_555
Be0 Be4 2.412367 1_565
Be0 Be3 2.412367 1_665
Be0 Re0 2.647516 1_554
Be0 Ti0 2.658031 1_655
Be0 Ti0 2.658035 1_555
Be0 Re1 2.681115 1_655
Be0 Re1 2.681119 1_555
Be0 Ti1 2.686753 1_555
Be1 Be5 2.140942 1_555
Be1 Be2 2.140942 1_555
Be1 Be5 2.412367 1_565
Be1 Be2 2.412367 1_455
Be1 Re1 2.647514 1_555
Be1 Ti1 2.658032 1_565
Be1 Ti1 2.658032 1_455
Be1 Re0 2.681117 1_565
Be1 Re0 2.681117 1_455
Be1 Ti0 2.686751 1_556
Be2 Be5 2.140942 1_555
Be2 Be5 2.412367 1_665
Be2 Re1 2.647516 1_555
Be2 Ti1 2.658031 1_565
Be2 Ti1 2.658034 1_555
Be2 Re0 2.681115 1_565
Be2 Re0 2.681119 1_555
Be2 Ti0 2.686753 1_556
Be3 Be4 2.140942 1_555
Be3 Be4 2.412367 1_455
Be3 Re0 2.647516 1_554
Be3 Ti0 2.658031 1_545
Be3 Ti0 2.658034 1_555
Be3 Re1 2.681115 1_545
Be3 Re1 2.681119 1_555
Be3 Ti1 2.686753 1_555
Be4 Re0 2.647514 1_554
Be4 Ti0 2.658032 1_545
Be4 Ti0 2.658032 1_655
Be4 Re1 2.681117 1_545
Be4 Re1 2.681117 1_655
Be4 Ti1 2.686751 1_555
Be5 Re1 2.647516 1_555
Be5 Ti1 2.658031 1_455
Be5 Ti1 2.658035 1_555
Be5 Re0 2.681115 1_455
Be5 Re0 2.681119 1_555
Be5 Ti0 2.686753 1_556
Al0 Be5 2.317109 1_555
Al0 Be2 2.317109 1_445
Al0 Be1 2.317109 1_545
Al0 Be0 2.358510 1_446
Al0 Be3 2.358510 1_556
Al0 Be4 2.358510 1_456
Al0 Re0 2.665074 1_455
Al0 Re0 2.665078 1_445
Al0 Re0 2.665078 1_555
Al0 Ti0 2.682486 1_546
Al0 Ti0 2.682489 1_556
Al0 Ti0 2.682490 1_446
Al1 Be0 2.317109 1_445
Al1 Be3 2.317109 1_555
Al1 Be4 2.317109 1_455
Al1 Be5 2.358510 1_555
Al1 Be2 2.358510 1_445
Al1 Be1 2.358510 1_545
Al1 Re1 2.665074 1_545
Al1 Re1 2.665078 1_555
Al1 Re1 2.665078 1_445
Al1 Ti1 2.682486 1_455
Al1 Ti1 2.682489 1_445
Al1 Ti1 2.682490 1_555
Re0 Ti1 2.783508 1_555
Re0 Ti0 2.802666 1_546
Re0 Ti0 2.802666 1_656
Re0 Ti0 2.802674 1_556
Re1 Ti0 2.783508 1_555
Re1 Ti1 2.802666 1_565
Re1 Ti1 2.802666 1_455
Re1 Ti1 2.802674 1_555
