# generated using pymatgen
data_K5BaTaSb4
_symmetry_space_group_name_H-M   'P 1'
_cell_length_a   11.04833462
_cell_length_b   11.04833418
_cell_length_c   8.60507905
_cell_angle_alpha   89.30578682
_cell_angle_beta   89.30579082
_cell_angle_gamma   120.42397279
_symmetry_Int_Tables_number   1
_chemical_formula_structural   K5BaTaSb4
_chemical_formula_sum   'K10 Ba2 Ta2 Sb8'
_cell_volume   905.47948561
_cell_formula_units_Z   2
loop_
 _symmetry_equiv_pos_site_id
 _symmetry_equiv_pos_as_xyz
  1  'x, y, z'
loop_
 _atom_site_type_symbol
 _atom_site_label
 _atom_site_symmetry_multiplicity
 _atom_site_fract_x
 _atom_site_fract_y
 _atom_site_fract_z
 _atom_site_occupancy
  K  K0  1  0.46902223  0.52477791  0.60975231  1
  K  K1  1  0.05367076  0.52532259  0.61104089  1
  K  K2  1  0.52477791  0.46902223  0.10975231  1
  K  K3  1  0.52532259  0.05367076  0.11104089  1
  K  K4  1  0.86464570  0.14376068  0.78581424  1
  K  K5  1  0.29414854  0.15343861  0.81221692  1
  K  K6  1  0.85363855  0.71271952  0.77268902  1
  K  K7  1  0.14376068  0.86464570  0.28581424  1
  K  K8  1  0.71271952  0.85363855  0.27268902  1
  K  K9  1  0.15343861  0.29414854  0.31221692  1
  Ba  Ba0  1  0.46871622  0.94148633  0.60616971  1
  Ba  Ba1  1  0.94148633  0.46871622  0.10616971  1
  Ta  Ta0  1  0.66822094  0.33333339  0.49978205  1
  Ta  Ta1  1  0.33333339  0.66822094  0.99978205  1
  Sb  Sb0  1  0.67609812  0.33239203  0.81256557  1
  Sb  Sb1  1  0.33239203  0.67609812  0.31256557  1
  Sb  Sb2  1  0.19561468  0.79790274  0.89564418  1
  Sb  Sb3  1  0.59804739  0.80155858  0.88650578  1
  Sb  Sb4  1  0.19391081  0.39757568  0.91501933  1
  Sb  Sb5  1  0.79790274  0.19561468  0.39564418  1
  Sb  Sb6  1  0.39757568  0.19391081  0.41501933  1
  Sb  Sb7  1  0.80155858  0.59804739  0.38650578  1
loop_
_geom_bond_atom_site_label_1
_geom_bond_atom_site_label_2
_geom_bond_distance
_geom_bond_site_symmetry_2
K0 Sb3 3.591452 1_555
K0 Sb4 3.674897 1_555
K0 Sb6 3.748597 1_555
K0 Sb1 3.762913 1_555
K0 Sb7 3.824000 1_555
K1 Sb2 3.607653 1_555
K1 Sb1 3.655643 1_555
K1 Sb4 3.668578 1_555
K1 Sb7 3.807466 1_455
K1 Ta0 3.814546 1_455
K1 Sb5 3.815148 1_455
K1 Sb0 3.960063 1_455
K2 Sb7 3.591452 1_555
K2 Sb6 3.674897 1_555
K2 Sb4 3.748597 1_554
K2 Sb0 3.762913 1_554
K2 Sb3 3.824000 1_554
K3 Sb5 3.607653 1_555
K3 Sb0 3.655642 1_554
K3 Sb6 3.668578 1_555
K3 Sb3 3.807466 1_544
K3 Ta1 3.814546 1_544
K3 Sb2 3.815148 1_544
K3 Sb1 3.960063 1_545
K4 Sb4 3.489333 1_655
K4 Sb3 3.507269 1_545
K4 Sb5 3.547625 1_555
K4 Sb0 3.623904 1_555
K5 Sb4 3.513394 1_555
K5 Sb6 3.541001 1_555
K5 Sb2 3.565404 1_545
K5 Sb0 3.642404 1_555
K6 Sb7 3.519871 1_555
K6 Sb3 3.558116 1_555
K6 Sb2 3.577729 1_655
K6 Sb0 3.636350 1_555
K7 Sb6 3.489333 1_565
K7 Sb7 3.507269 1_455
K7 Sb2 3.547625 1_554
K7 Sb1 3.623904 1_555
K8 Sb3 3.519871 1_554
K8 Sb7 3.558116 1_555
K8 Sb5 3.577729 1_565
K8 Sb1 3.636351 1_555
K9 Sb6 3.513394 1_555
K9 Sb4 3.541001 1_554
K9 Sb5 3.565404 1_455
K9 Sb1 3.642404 1_555
Ba0 Sb3 3.532909 1_555
Ba0 Sb2 3.563696 1_555
Ba0 Sb1 3.612185 1_555
Ba0 Sb6 3.638867 1_565
Ba0 Sb5 3.710460 1_565
Ba1 Sb7 3.532910 1_555
Ba1 Sb5 3.563696 1_555
Ba1 Sb0 3.612185 1_554
Ba1 Sb4 3.638868 1_654
Ba1 Sb2 3.710460 1_654
Sb0 Ta0 2.694052 1_555
Sb1 Ta1 2.694052 1_554
Sb2 Ta1 2.716772 1_555
Sb3 Ta1 2.684485 1_555
Sb4 Ta1 2.694644 1_555
Sb5 Ta0 2.716772 1_555
Sb6 Ta0 2.694645 1_555
Sb7 Ta0 2.684484 1_555
