# generated using pymatgen
data_Lu12Co3Ag2
_symmetry_space_group_name_H-M   'P 1'
_cell_length_a   8.02002429
_cell_length_b   8.02002418
_cell_length_c   8.02002347
_cell_angle_alpha   109.26909926
_cell_angle_beta   109.26910548
_cell_angle_gamma   109.87621841
_symmetry_Int_Tables_number   1
_chemical_formula_structural   Lu12Co3Ag2
_chemical_formula_sum   'Lu12 Co3 Ag2'
_cell_volume   397.08987979
_cell_formula_units_Z   1
loop_
 _symmetry_equiv_pos_site_id
 _symmetry_equiv_pos_as_xyz
  1  'x, y, z'
loop_
 _atom_site_type_symbol
 _atom_site_label
 _atom_site_symmetry_multiplicity
 _atom_site_fract_x
 _atom_site_fract_y
 _atom_site_fract_z
 _atom_site_occupancy
  Lu  Lu0  1  0.31979241  0.31979241  0.63958383  1
  Lu  Lu1  1  0.68020759  0.68020759  0.36041617  1
  Lu  Lu2  1  0.68020759  0.31979241  1.00000000  1
  Lu  Lu3  1  0.31979241  0.68020759  0.00000000  1
  Lu  Lu4  1  0.18568771  0.43139010  0.24570239  1
  Lu  Lu5  1  0.81431229  0.56860990  0.75429761  1
  Lu  Lu6  1  0.18568771  0.93998532  0.75429761  1
  Lu  Lu7  1  0.93998532  0.18568771  0.75429761  1
  Lu  Lu8  1  0.81431229  0.06001468  0.24570239  1
  Lu  Lu9  1  0.06001468  0.81431229  0.24570239  1
  Lu  Lu10  1  0.43139010  0.18568771  0.24570239  1
  Lu  Lu11  1  0.56860990  0.81431229  0.75429761  1
  Co  Co0  1  0.34667619  0.34667619  1.00000000  1
  Co  Co1  1  0.65332381  0.65332381  0.00000000  1
  Co  Co2  1  0.00000000  0.00000000  0.00000000  1
  Ag  Ag0  1  0.00000000  0.50000000  0.50000000  1
  Ag  Ag1  1  0.50000000  0.00000000  0.50000000  1
loop_
_geom_bond_atom_site_label_1
_geom_bond_atom_site_label_2
_geom_bond_distance
_geom_bond_site_symmetry_2
Lu0 Lu2 3.346031 1_555
Lu0 Lu3 3.346031 1_556
Lu0 Lu5 3.399501 1_555
Lu0 Lu11 3.399501 1_555
Lu0 Lu6 3.399509 1_545
Lu0 Lu7 3.399509 1_455
Lu0 Lu4 3.494983 1_555
Lu0 Lu10 3.494983 1_555
Lu0 Lu8 3.494987 1_455
Lu0 Lu9 3.494988 1_545
Lu1 Lu3 3.346031 1_555
Lu1 Lu2 3.346031 1_554
Lu1 Lu4 3.399501 1_555
Lu1 Lu10 3.399501 1_555
Lu1 Lu8 3.399509 1_565
Lu1 Lu9 3.399509 1_655
Lu1 Lu5 3.494983 1_555
Lu1 Lu11 3.494983 1_555
Lu1 Lu6 3.494987 1_655
Lu1 Lu7 3.494988 1_565
Lu2 Lu5 3.399503 1_555
Lu2 Lu6 3.399503 1_545
Lu2 Lu9 3.399504 1_656
Lu2 Lu8 3.494990 1_556
Lu2 Lu4 3.494990 1_656
Lu2 Lu7 3.494990 1_555
Lu3 Lu4 3.399503 1_555
Lu3 Lu8 3.399503 1_565
Lu3 Lu7 3.399504 1_454
Lu3 Lu6 3.494990 1_554
Lu3 Lu5 3.494990 1_454
Lu3 Lu9 3.494990 1_555
Lu10 Lu2 3.399503 1_554
Lu10 Lu3 3.494990 1_545
Lu11 Lu3 3.399503 1_556
Lu11 Lu2 3.494990 1_565
Co0 Lu10 2.720976 1_556
Co0 Lu7 2.720977 1_455
Co0 Lu4 2.720977 1_556
Co0 Lu6 2.720977 1_545
Co0 Lu3 2.755704 1_556
Co0 Lu2 2.755704 1_555
Co0 Lu1 2.755707 1_556
Co0 Lu0 2.755712 1_555
Co0 Co1 2.825568 1_556
Co1 Lu11 2.720976 1_554
Co1 Lu9 2.720977 1_655
Co1 Lu5 2.720977 1_554
Co1 Lu8 2.720977 1_565
Co1 Lu2 2.755704 1_554
Co1 Lu3 2.755704 1_555
Co1 Lu0 2.755707 1_554
Co1 Lu1 2.755712 1_555
Co2 Lu7 2.851442 1_454
Co2 Lu9 2.851442 1_545
Co2 Lu10 2.851442 1_555
Co2 Lu11 2.851442 1_444
Co2 Lu8 2.851442 1_455
Co2 Lu6 2.851442 1_544
Co2 Lu4 2.851442 1_555
Co2 Lu5 2.851442 1_444
Ag0 Lu4 2.915670 1_555
Ag0 Lu5 2.915670 1_455
Ag0 Lu6 2.915670 1_555
Ag0 Lu8 2.915670 1_455
Ag0 Lu0 3.407827 1_555
Ag0 Lu1 3.407827 1_455
Ag0 Lu3 3.407828 1_556
Ag0 Lu2 3.407828 1_454
Ag1 Lu11 2.915670 1_545
Ag1 Lu10 2.915670 1_555
Ag1 Lu9 2.915670 1_545
Ag1 Lu7 2.915670 1_555
Ag1 Lu0 3.407827 1_555
Ag1 Lu1 3.407827 1_545
Ag1 Lu2 3.407829 1_555
Ag1 Lu3 3.407829 1_545
