# generated using pymatgen
data_Na3NiP4Ir3
_symmetry_space_group_name_H-M   'P 1'
_cell_length_a   6.25424008
_cell_length_b   6.05048234
_cell_length_c   6.25423917
_cell_angle_alpha   108.81260214
_cell_angle_beta   110.12175715
_cell_angle_gamma   108.81257372
_symmetry_Int_Tables_number   1
_chemical_formula_structural   Na3NiP4Ir3
_chemical_formula_sum   'Na3 Ni1 P4 Ir3'
_cell_volume   183.64656918
_cell_formula_units_Z   1
loop_
 _symmetry_equiv_pos_site_id
 _symmetry_equiv_pos_as_xyz
  1  'x, y, z'
loop_
 _atom_site_type_symbol
 _atom_site_label
 _atom_site_symmetry_multiplicity
 _atom_site_fract_x
 _atom_site_fract_y
 _atom_site_fract_z
 _atom_site_occupancy
  Na  Na0  1  0.47298444  0.96111841  0.47298444  1
  Na  Na1  1  0.52701556  0.48813297  1.00000000  1
  Na  Na2  1  0.00000000  0.48813297  0.52701556  1
  Ni  Ni0  1  1.00000000  0.74085500  0.00000000  1
  P  P0  1  0.00000000  0.38069372  1.00000000  1
  P  P1  1  0.63765629  0.63678217  0.63765629  1
  P  P2  1  0.00000000  0.99912588  0.36234371  1
  P  P3  1  0.36234371  0.99912588  0.00000000  1
  Ir  Ir0  1  0.00000000  0.00773146  0.71716239  1
  Ir  Ir1  1  0.28283761  0.29056908  0.28283761  1
  Ir  Ir2  1  0.71716239  0.00773146  1.00000000  1
loop_
_geom_bond_atom_site_label_1
_geom_bond_atom_site_label_2
_geom_bond_distance
_geom_bond_site_symmetry_2
Na0 P1 2.801700 1_555
Na0 Ni0 2.858587 1_455
Na0 P3 2.900930 1_555
Na0 P2 2.900930 1_555
Na0 P0 3.147193 1_665
Na0 P0 3.226997 1_554
Na1 P3 2.801694 1_546
Na1 Ni0 2.858590 1_556
Na1 P2 2.900933 1_656
Na1 P1 2.900933 1_555
Na1 P0 3.147195 1_555
Na1 P0 3.226995 1_655
Na2 P2 2.801694 1_545
Na2 Ni0 2.858589 1_456
Na2 P3 2.900933 1_556
Na2 P1 2.900933 1_455
Na2 P0 3.147194 1_554
Na2 P0 3.226995 1_555
Ni0 P0 2.179149 1_654
Ni0 P2 2.300775 1_655
Ni0 P1 2.300775 1_554
Ni0 P3 2.300776 1_655
Ir0 P2 2.202882 1_545
Ir0 P3 2.375878 1_546
Ir0 P1 2.375879 1_445
Ir0 P0 2.376318 1_555
Ir0 Ni0 2.752941 1_446
Ir0 Na2 2.981039 1_545
Ir0 Na1 2.989190 1_555
Ir0 Na0 2.989192 1_445
Ir1 P1 2.202882 1_555
Ir1 P3 2.375878 1_545
Ir1 P2 2.375879 1_545
Ir1 P0 2.376319 1_554
Ir1 Ni0 2.752941 1_445
Ir1 Na0 2.981034 1_545
Ir1 Na2 2.989190 1_555
Ir1 Na1 2.989190 1_554
Ir2 P3 2.202882 1_546
Ir2 P1 2.375878 1_545
Ir2 P2 2.375878 1_646
Ir2 P0 2.376319 1_655
Ir2 Ni0 2.752941 1_546
Ir2 Na1 2.981040 1_545
Ir2 Na2 2.989189 1_656
Ir2 Na0 2.989192 1_545
