# generated using pymatgen
data_ZrZn3CuRh
_symmetry_space_group_name_H-M   'P 1'
_cell_length_a   4.91273430
_cell_length_b   4.91273472
_cell_length_c   4.91273447
_cell_angle_alpha   60.62254743
_cell_angle_beta   60.62253851
_cell_angle_gamma   60.62254276
_symmetry_Int_Tables_number   1
_chemical_formula_structural   ZrZn3CuRh
_chemical_formula_sum   'Zr1 Zn3 Cu1 Rh1'
_cell_volume   85.01933811
_cell_formula_units_Z   1
loop_
 _symmetry_equiv_pos_site_id
 _symmetry_equiv_pos_as_xyz
  1  'x, y, z'
loop_
 _atom_site_type_symbol
 _atom_site_label
 _atom_site_symmetry_multiplicity
 _atom_site_fract_x
 _atom_site_fract_y
 _atom_site_fract_z
 _atom_site_occupancy
  Zr  Zr0  1  0.99959649  0.99959649  0.99959649  1
  Zn  Zn0  1  0.62383338  0.62383338  0.12857989  1
  Zn  Zn1  1  0.62383338  0.12857989  0.62383338  1
  Zn  Zn2  1  0.12857989  0.62383338  0.62383338  1
  Cu  Cu0  1  0.62588870  0.62588870  0.62588870  1
  Rh  Rh0  1  0.24826715  0.24826715  0.24826715  1
loop_
_geom_bond_atom_site_label_1
_geom_bond_atom_site_label_2
_geom_bond_distance
_geom_bond_site_symmetry_2
Zn0 Zn2 2.455907 1_555
Zn0 Zn1 2.455907 1_555
Zn0 Zn2 2.502982 1_654
Zn0 Zn1 2.502982 1_564
Zn0 Zr0 2.874938 1_554
Zn0 Zr0 2.901481 1_454
Zn0 Zr0 2.901481 1_544
Zn1 Zn2 2.455907 1_555
Zn1 Zn2 2.502982 1_645
Zn1 Zr0 2.874938 1_545
Zn1 Zr0 2.901481 1_445
Zn1 Zr0 2.901481 1_544
Zn2 Zr0 2.874938 1_455
Zn2 Zr0 2.901481 1_454
Zn2 Zr0 2.901482 1_445
Cu0 Zn2 2.453095 1_555
Cu0 Zn0 2.453095 1_555
Cu0 Zn1 2.453095 1_555
Cu0 Zn2 2.459723 1_655
Cu0 Zn0 2.459724 1_556
Cu0 Zn1 2.459724 1_565
Cu0 Zr0 2.903564 1_455
Cu0 Zr0 2.903564 1_554
Cu0 Zr0 2.903565 1_545
Cu0 Rh0 2.911737 1_655
Cu0 Rh0 2.911738 1_556
Cu0 Rh0 2.911738 1_565
Rh0 Zn1 2.883183 1_455
Rh0 Zn1 2.883183 1_554
Rh0 Zn0 2.883183 1_455
Rh0 Zn0 2.883183 1_545
Rh0 Zn2 2.883183 1_554
Rh0 Zn2 2.883183 1_545
Rh0 Zn2 2.892297 1_555
Rh0 Zn0 2.892297 1_555
Rh0 Zn1 2.892297 1_555
Rh0 Zr0 2.978270 1_444
Rh0 Zr0 3.037273 1_544
Rh0 Zr0 3.037273 1_445
Rh0 Zr0 3.037273 1_454
