# generated using pymatgen
data_Rb3Ta2PSe11
_symmetry_space_group_name_H-M   'P 1'
_cell_length_a   10.18325795
_cell_length_b   10.18325823
_cell_length_c   10.14435312
_cell_angle_alpha   83.46354737
_cell_angle_beta   83.46354693
_cell_angle_gamma   84.15923511
_symmetry_Int_Tables_number   1
_chemical_formula_structural   Rb3Ta2PSe11
_chemical_formula_sum   'Rb6 Ta4 P2 Se22'
_cell_volume   1034.11383442
_cell_formula_units_Z   2
loop_
 _symmetry_equiv_pos_site_id
 _symmetry_equiv_pos_as_xyz
  1  'x, y, z'
loop_
 _atom_site_type_symbol
 _atom_site_label
 _atom_site_symmetry_multiplicity
 _atom_site_fract_x
 _atom_site_fract_y
 _atom_site_fract_z
 _atom_site_occupancy
  Rb  Rb0  1  0.50956504  0.35110832  0.92848796  1
  Rb  Rb1  1  0.99926818  0.15295217  0.01716886  1
  Rb  Rb2  1  0.75554281  0.88845952  0.68706801  1
  Rb  Rb3  1  0.35110832  0.50956504  0.42848796  1
  Rb  Rb4  1  0.88845952  0.75554281  0.18706801  1
  Rb  Rb5  1  0.15295217  0.99926818  0.51716886  1
  Ta  Ta0  1  0.78933213  0.24897825  0.41426554  1
  Ta  Ta1  1  0.24897825  0.78933213  0.91426554  1
  Ta  Ta2  1  0.50178162  0.90723953  0.09832805  1
  Ta  Ta3  1  0.90723953  0.50178162  0.59832805  1
  P  P0  1  0.12352235  0.44768457  0.85305321  1
  P  P1  1  0.44768457  0.12352235  0.35305321  1
  Se  Se0  1  0.57540619  0.65976716  0.16477194  1
  Se  Se1  1  0.40430707  0.88744292  0.71109770  1
  Se  Se2  1  0.35873619  0.01865766  0.89231004  1
  Se  Se3  1  0.27262963  0.59384180  0.76094645  1
  Se  Se4  1  0.82245122  0.23370638  0.66908405  1
  Se  Se5  1  0.90927983  0.53394058  0.85170332  1
  Se  Se6  1  0.65976716  0.57540619  0.66477194  1
  Se  Se7  1  0.53394058  0.90927983  0.35170332  1
  Se  Se8  1  0.23370638  0.82245122  0.16908405  1
  Se  Se9  1  0.03686570  0.87436692  0.85709946  1
  Se  Se10  1  0.21200180  0.60627644  0.10859443  1
  Se  Se11  1  0.68987157  0.01711299  0.01265076  1
  Se  Se12  1  0.11378142  0.33124007  0.67192484  1
  Se  Se13  1  0.71812387  0.52711711  0.44258338  1
  Se  Se14  1  0.87436692  0.03686570  0.35709946  1
  Se  Se15  1  0.52711711  0.71812387  0.94258338  1
  Se  Se16  1  0.88744292  0.40430707  0.21109770  1
  Se  Se17  1  0.60627644  0.21200180  0.60859443  1
  Se  Se18  1  0.33124007  0.11378142  0.17192484  1
  Se  Se19  1  0.01865766  0.35873619  0.39231004  1
  Se  Se20  1  0.59384180  0.27262963  0.26094645  1
  Se  Se21  1  0.01711299  0.68987157  0.51265076  1
loop_
_geom_bond_atom_site_label_1
_geom_bond_atom_site_label_2
_geom_bond_distance
_geom_bond_site_symmetry_2
Rb0 Se20 3.557417 1_556
Rb0 Se6 3.619623 1_555
Rb0 Se17 3.679989 1_555
Rb0 Se3 3.685557 1_555
Rb0 Se18 3.708135 1_556
Rb0 Se11 3.754050 1_556
Rb0 Se15 3.779432 1_555
Rb0 Se2 3.927394 1_555
Rb1 Se9 3.393748 1_644
Rb1 Se16 3.429536 1_555
Rb1 Se11 3.574439 1_555
Rb1 Se14 3.644976 1_555
Rb1 Se18 3.852675 1_655
Rb1 Se12 3.869809 1_654
Rb1 Se2 3.897959 1_654
Rb2 Se6 3.465876 1_555
Rb2 Se9 3.491087 1_655
Rb2 Se17 3.529645 1_565
Rb2 Se1 3.558222 1_555
Rb2 Se21 3.600064 1_655
Rb2 Se4 3.629206 1_565
Rb2 Se14 3.640180 1_565
Rb2 Se11 3.657354 1_566
Rb2 Se15 3.682810 1_555
Rb3 Se3 3.557417 1_555
Rb3 Se0 3.619623 1_555
Rb3 Se10 3.679989 1_555
Rb3 Se20 3.685557 1_555
Rb3 Se12 3.708135 1_555
Rb3 Se21 3.754050 1_555
Rb3 Se13 3.779432 1_555
Rb3 Se19 3.927393 1_555
Rb4 Se0 3.465876 1_555
Rb4 Se14 3.491087 1_565
Rb4 Se10 3.529645 1_655
Rb4 Se16 3.558222 1_555
Rb4 Se11 3.600064 1_565
Rb4 Se8 3.629206 1_655
Rb4 Se9 3.640180 1_654
Rb4 Se21 3.657354 1_655
Rb4 Se13 3.682810 1_555
Rb5 Se14 3.393747 1_465
Rb5 Se1 3.429536 1_555
Rb5 Se21 3.574439 1_555
Rb5 Se9 3.644976 1_555
Rb5 Se12 3.852675 1_565
Rb5 Se18 3.869809 1_565
Rb5 Se19 3.897959 1_565
P0 Se5 2.268372 1_455
P0 Se3 2.283443 1_555
P0 Se12 2.313776 1_555
P0 Rb1 3.540686 1_456
P1 Se7 2.268372 1_545
P1 Se20 2.283443 1_555
P1 Se18 2.313775 1_555
P1 Rb5 3.540686 1_545
Se0 Se15 2.358644 1_554
Se0 Ta2 2.590557 1_555
Se1 Se2 2.370411 1_565
Se1 Ta1 2.618873 1_555
Se2 Ta1 2.666182 1_545
Se2 Ta2 2.755690 1_546
Se3 Ta1 2.638577 1_555
Se4 Ta0 2.629882 1_555
Se4 Ta3 2.933506 1_555
Se5 Ta3 2.630484 1_555
Se6 Ta3 2.590557 1_555
Se7 Ta2 2.630484 1_555
Se8 Ta1 2.629882 1_554
Se8 Ta2 2.933506 1_555
Se9 Ta1 2.354123 1_555
Se10 Se8 2.389318 1_555
Se10 Ta1 2.576833 1_554
Se11 Ta2 2.347695 1_545
Se12 Ta3 2.704820 1_455
Se13 Se6 2.358644 1_555
Se13 Ta3 2.601978 1_555
Se13 Ta0 2.889707 1_555
Se14 Ta0 2.354123 1_555
Se15 Ta2 2.601978 1_556
Se15 Ta1 2.889707 1_555
Se16 Se19 2.370411 1_655
Se16 Ta0 2.618873 1_555
Se17 Se4 2.389318 1_555
Se17 Ta0 2.576833 1_555
Se18 Ta2 2.704820 1_545
Se19 Ta0 2.666182 1_455
Se19 Ta3 2.755690 1_455
Se20 Ta0 2.638577 1_555
Se21 Ta3 2.347695 1_455
