# generated using pymatgen
data_Y2Ga3SiIr4
_symmetry_space_group_name_H-M   'P 1'
_cell_length_a   4.13948642
_cell_length_b   4.13948642
_cell_length_c   10.23573273
_cell_angle_alpha   90.00000000
_cell_angle_beta   90.00000000
_cell_angle_gamma   90.00000000
_symmetry_Int_Tables_number   1
_chemical_formula_structural   Y2Ga3SiIr4
_chemical_formula_sum   'Y2 Ga3 Si1 Ir4'
_cell_volume   175.39284058
_cell_formula_units_Z   1
loop_
 _symmetry_equiv_pos_site_id
 _symmetry_equiv_pos_as_xyz
  1  'x, y, z'
loop_
 _atom_site_type_symbol
 _atom_site_label
 _atom_site_symmetry_multiplicity
 _atom_site_fract_x
 _atom_site_fract_y
 _atom_site_fract_z
 _atom_site_occupancy
  Y  Y0  1  0.50000000  0.00000000  0.23992421  1
  Y  Y1  1  0.00000000  0.50000000  0.75840195  1
  Ga  Ga0  1  0.50000000  0.50000000  0.50380712  1
  Ga  Ga1  1  0.00000000  0.00000000  0.50380712  1
  Ga  Ga2  1  0.00000000  0.50000000  0.12679431  1
  Si  Si0  1  0.50000000  0.00000000  0.87560269  1
  Ir  Ir0  1  0.00000000  0.50000000  0.36592498  1
  Ir  Ir1  1  0.50000000  0.00000000  0.64557419  1
  Ir  Ir2  1  0.50000000  0.50000000  0.99008271  1
  Ir  Ir3  1  0.00000000  0.00000000  0.99008271  1
loop_
_geom_bond_atom_site_label_1
_geom_bond_atom_site_label_2
_geom_bond_distance
_geom_bond_site_symmetry_2
Ga0 Ir0 2.505130 1_655
Ga0 Ir0 2.505130 1_555
Ga0 Ir1 2.527746 1_555
Ga0 Ir1 2.527746 1_565
Ga0 Y1 3.327896 1_655
Ga0 Y1 3.327896 1_555
Ga0 Y0 3.402856 1_555
Ga0 Y0 3.402856 1_565
Ga1 Ir0 2.505130 1_545
Ga1 Ir0 2.505130 1_555
Ga1 Ir1 2.527746 1_555
Ga1 Ir1 2.527746 1_455
Ga1 Y1 3.327896 1_545
Ga1 Y1 3.327896 1_555
Ga1 Y0 3.402856 1_455
Ga1 Y0 3.402856 1_555
Ga2 Ir0 2.447678 1_555
Ga2 Ir3 2.498399 1_554
Ga2 Ir2 2.498399 1_454
Ga2 Ir3 2.498399 1_564
Ga2 Ir2 2.498399 1_554
Ga2 Y0 3.147787 1_455
Ga2 Y0 3.147787 1_555
Ga2 Y0 3.147787 1_565
Ga2 Y0 3.147787 1_465
Si0 Y1 3.163353 1_645
Si0 Y1 3.163353 1_545
Si0 Y1 3.163353 1_555
Si0 Y1 3.163353 1_655
Ir0 Y0 3.198598 1_465
Ir0 Y0 3.198598 1_455
Ir0 Y0 3.198598 1_555
Ir0 Y0 3.198598 1_565
Ir1 Si0 2.354510 1_555
Ir1 Y1 3.146651 1_645
Ir1 Y1 3.146651 1_545
Ir1 Y1 3.146651 1_555
Ir1 Y1 3.146651 1_655
Ir2 Si0 2.378428 1_565
Ir2 Si0 2.378428 1_555
Ir2 Y1 3.147615 1_555
Ir2 Y1 3.147615 1_655
Ir2 Y0 3.289935 1_566
Ir2 Y0 3.289935 1_556
Ir3 Si0 2.378428 1_455
Ir3 Si0 2.378428 1_555
Ir3 Y1 3.147615 1_555
Ir3 Y1 3.147615 1_545
Ir3 Y0 3.289935 1_456
Ir3 Y0 3.289935 1_556
