# generated using pymatgen
data_Hf3AsC2
_symmetry_space_group_name_H-M   'P 1'
_cell_length_a   3.38297233
_cell_length_b   3.38297295
_cell_length_c   17.67646837
_cell_angle_alpha   90.00000000
_cell_angle_beta   90.00000000
_cell_angle_gamma   120.00000361
_symmetry_Int_Tables_number   1
_chemical_formula_structural   Hf3AsC2
_chemical_formula_sum   'Hf6 As2 C4'
_cell_volume   175.19555637
_cell_formula_units_Z   2
loop_
 _symmetry_equiv_pos_site_id
 _symmetry_equiv_pos_as_xyz
  1  'x, y, z'
loop_
 _atom_site_type_symbol
 _atom_site_label
 _atom_site_symmetry_multiplicity
 _atom_site_fract_x
 _atom_site_fract_y
 _atom_site_fract_z
 _atom_site_occupancy
  Hf  Hf0  1  0.00000000  0.00000000  0.50000000  1
  Hf  Hf1  1  0.00000000  0.00000000  0.00000000  1
  Hf  Hf2  1  0.66666700  0.33333300  0.35707628  1
  Hf  Hf3  1  0.33333300  0.66666700  0.64292372  1
  Hf  Hf4  1  0.33333300  0.66666700  0.85707628  1
  Hf  Hf5  1  0.66666700  0.33333300  0.14292372  1
  As  As0  1  0.00000000  0.00000000  0.25000000  1
  As  As1  1  0.00000000  0.00000000  0.75000000  1
  C  C0  1  0.66666700  0.33333300  0.92290030  1
  C  C1  1  0.33333300  0.66666700  0.07709970  1
  C  C2  1  0.33333300  0.66666700  0.42290030  1
  C  C3  1  0.66666700  0.33333300  0.57709970  1
loop_
_geom_bond_atom_site_label_1
_geom_bond_atom_site_label_2
_geom_bond_distance
_geom_bond_site_symmetry_2
As0 Hf2 2.719790 1_455
As0 Hf5 2.719790 1_455
As0 Hf2 2.719792 1_555
As0 Hf5 2.719792 1_555
As0 Hf2 2.719792 1_445
As0 Hf5 2.719792 1_445
As1 Hf4 2.719790 1_545
As1 Hf3 2.719790 1_545
As1 Hf4 2.719792 1_445
As1 Hf3 2.719792 1_445
As1 Hf4 2.719792 1_555
As1 Hf3 2.719792 1_555
C0 Hf4 2.273465 1_655
C0 Hf4 2.273465 1_545
C0 Hf4 2.273470 1_555
C0 Hf1 2.381636 1_656
C0 Hf1 2.381638 1_556
C0 Hf1 2.381638 1_666
C1 Hf5 2.273465 1_455
C1 Hf5 2.273465 1_565
C1 Hf5 2.273470 1_555
C1 Hf1 2.381636 1_565
C1 Hf1 2.381638 1_665
C1 Hf1 2.381638 1_555
C2 Hf2 2.273465 1_455
C2 Hf2 2.273465 1_565
C2 Hf2 2.273470 1_555
C2 Hf0 2.381636 1_565
C2 Hf0 2.381638 1_665
C2 Hf0 2.381638 1_555
C3 Hf3 2.273465 1_655
C3 Hf3 2.273465 1_545
C3 Hf3 2.273470 1_555
C3 Hf0 2.381636 1_655
C3 Hf0 2.381638 1_555
C3 Hf0 2.381638 1_665
