# generated using pymatgen
data_Lu2CuPt4Rh
_symmetry_space_group_name_H-M   'P 1'
_cell_length_a   5.65469132
_cell_length_b   5.65469283
_cell_length_c   5.69065071
_cell_angle_alpha   59.78941258
_cell_angle_beta   59.78940364
_cell_angle_gamma   60.42115715
_symmetry_Int_Tables_number   1
_chemical_formula_structural   Lu2CuPt4Rh
_chemical_formula_sum   'Lu2 Cu1 Pt4 Rh1'
_cell_volume   128.65581320
_cell_formula_units_Z   1
loop_
 _symmetry_equiv_pos_site_id
 _symmetry_equiv_pos_as_xyz
  1  'x, y, z'
loop_
 _atom_site_type_symbol
 _atom_site_label
 _atom_site_symmetry_multiplicity
 _atom_site_fract_x
 _atom_site_fract_y
 _atom_site_fract_z
 _atom_site_occupancy
  Lu  Lu0  1  0.00000000  0.00000000  0.50000000  1
  Lu  Lu1  1  0.50000000  0.50000000  0.00000000  1
  Cu  Cu0  1  0.50000000  0.50000000  0.50000000  1
  Pt  Pt0  1  0.00000000  0.50000000  0.00000000  1
  Pt  Pt1  1  0.50000000  0.00000000  0.00000000  1
  Pt  Pt2  1  0.00000000  0.50000000  0.50000000  1
  Pt  Pt3  1  0.50000000  0.00000000  0.50000000  1
  Rh  Rh0  1  0.00000000  0.00000000  0.00000000  1
loop_
_geom_bond_atom_site_label_1
_geom_bond_atom_site_label_2
_geom_bond_distance
_geom_bond_site_symmetry_2
Lu0 Pt1 2.827345 1_456
Lu0 Pt1 2.827345 1_555
Lu0 Pt3 2.827346 1_455
Lu0 Pt3 2.827346 1_555
Lu0 Pt0 2.827346 1_546
Lu0 Pt0 2.827346 1_555
Lu0 Pt2 2.827346 1_555
Lu0 Pt2 2.827346 1_545
Lu0 Rh0 2.845325 1_555
Lu0 Rh0 2.845325 1_556
Lu1 Pt2 2.827345 1_555
Lu1 Pt2 2.827345 1_654
Lu1 Pt0 2.827346 1_655
Lu1 Pt0 2.827346 1_555
Lu1 Pt3 2.827346 1_564
Lu1 Pt3 2.827346 1_555
Lu1 Pt1 2.827346 1_555
Lu1 Pt1 2.827346 1_565
Lu1 Rh0 2.845325 1_655
Lu1 Rh0 2.845325 1_565
Cu0 Pt0 2.827345 1_655
Cu0 Pt0 2.827345 1_556
Cu0 Pt2 2.827346 1_555
Cu0 Pt2 2.827346 1_655
Cu0 Pt1 2.827346 1_565
Cu0 Pt1 2.827346 1_556
Cu0 Pt3 2.827346 1_555
Cu0 Pt3 2.827346 1_565
Cu0 Lu0 2.845325 1_655
Cu0 Lu0 2.845325 1_565
Cu0 Lu1 2.845325 1_555
Cu0 Lu1 2.845325 1_556
Pt0 Rh0 2.827346 1_555
Pt0 Rh0 2.827346 1_565
Pt0 Pt1 2.845325 1_465
Pt0 Pt1 2.845325 1_555
Pt0 Pt2 2.845325 1_554
Pt0 Pt2 2.845325 1_555
Pt1 Rh0 2.827346 1_555
Pt1 Rh0 2.827346 1_655
Pt1 Pt3 2.845325 1_554
Pt1 Pt3 2.845325 1_555
Pt2 Rh0 2.827346 1_565
Pt2 Rh0 2.827346 1_556
Pt2 Pt3 2.845325 1_555
Pt2 Pt3 2.845325 1_465
Pt3 Rh0 2.827345 1_556
Pt3 Rh0 2.827345 1_655
