# generated using pymatgen
data_Ca4Nb2O9
_symmetry_space_group_name_H-M   'P 1'
_cell_length_a   5.55053255
_cell_length_b   9.87659647
_cell_length_c   17.13854418
_cell_angle_alpha   56.03760424
_cell_angle_beta   90.00000000
_cell_angle_gamma   90.00000000
_symmetry_Int_Tables_number   1
_chemical_formula_structural   Ca4Nb2O9
_chemical_formula_sum   'Ca16 Nb8 O36'
_cell_volume   779.25972023
_cell_formula_units_Z   4
loop_
 _symmetry_equiv_pos_site_id
 _symmetry_equiv_pos_as_xyz
  1  'x, y, z'
loop_
 _atom_site_type_symbol
 _atom_site_label
 _atom_site_symmetry_multiplicity
 _atom_site_fract_x
 _atom_site_fract_y
 _atom_site_fract_z
 _atom_site_occupancy
  Ca  Ca0  1  -0.00000000  -0.00000000  0.00000000  1
  Ca  Ca1  1  0.47884921  0.54477442  0.60846521  1
  Ca  Ca2  1  0.97884921  0.45522558  0.89153479  1
  Ca  Ca3  1  0.52115079  0.45522558  0.39153479  1
  Ca  Ca4  1  0.02115079  0.54477442  0.10846521  1
  Ca  Ca5  1  0.00233776  0.21289776  0.77085471  1
  Ca  Ca6  1  0.50233776  0.78710224  0.72914529  1
  Ca  Ca7  1  0.99766224  0.78710224  0.22914529  1
  Ca  Ca8  1  -0.00000000  0.50000000  0.50000000  1
  Ca  Ca9  1  0.49766224  0.21289776  0.27085471  1
  Ca  Ca10  1  0.50000000  0.50000000  0.00000000  1
  Ca  Ca11  1  0.50000000  -0.00000000  0.50000000  1
  Ca  Ca12  1  0.51663293  0.12333416  0.07344571  1
  Ca  Ca13  1  0.01663293  0.87666584  0.42655429  1
  Ca  Ca14  1  0.48336707  0.87666584  0.92655429  1
  Ca  Ca15  1  0.98336707  0.12333416  0.57344571  1
  Nb  Nb0  1  0.49182590  0.17005009  0.66204520  1
  Nb  Nb1  1  0.01064770  0.32320376  0.33715629  1
  Nb  Nb2  1  0.51064770  0.67679624  0.16284371  1
  Nb  Nb3  1  0.98935230  0.67679624  0.66284371  1
  Nb  Nb4  1  0.48935230  0.32320376  0.83715629  1
  Nb  Nb5  1  0.00817410  0.17005009  0.16204520  1
  Nb  Nb6  1  0.50817410  0.82994991  0.33795480  1
  Nb  Nb7  1  0.99182590  0.82994991  0.83795480  1
  O  O0  1  0.61967864  0.94461646  0.39341796  1
  O  O1  1  0.38032136  0.05538354  0.60658204  1
  O  O2  1  0.88032136  0.94461646  0.89341796  1
  O  O3  1  0.11967864  0.05538354  0.10658204  1
  O  O4  1  0.88192331  0.62559406  0.57425805  1
  O  O5  1  0.38192331  0.37440594  0.92574195  1
  O  O6  1  0.11807669  0.37440594  0.42574195  1
  O  O7  1  0.61807669  0.62559406  0.07425805  1
  O  O8  1  0.09444524  0.72191046  0.76647946  1
  O  O9  1  0.59444524  0.27808954  0.73352054  1
  O  O10  1  0.90555476  0.27808954  0.23352054  1
  O  O11  1  0.40555476  0.72191046  0.26647946  1
  O  O12  1  0.20794355  0.76390143  0.09709175  1
  O  O13  1  0.70794355  0.23609857  0.40290825  1
  O  O14  1  0.79205645  0.23609857  0.90290825  1
  O  O15  1  0.67069695  0.32906426  0.55035262  1
  O  O16  1  0.71127204  0.02113108  0.21729079  1
  O  O17  1  0.21127204  0.97886892  0.28270921  1
  O  O18  1  0.28872796  0.97886892  0.78270921  1
  O  O19  1  0.78872796  0.02113108  0.71729079  1
  O  O20  1  0.80190964  0.54789731  0.25001139  1
  O  O21  1  0.30190964  0.45210269  0.24998861  1
  O  O22  1  0.19809036  0.45210269  0.74998861  1
  O  O23  1  0.69809036  0.54789731  0.75001139  1
  O  O24  1  0.29988767  0.30131992  0.12913321  1
  O  O25  1  0.79988767  0.69868008  0.37086679  1
  O  O26  1  0.70011233  0.69868008  0.87086679  1
  O  O27  1  0.20011233  0.30131992  0.62913321  1
  O  O28  1  0.67861239  0.88130155  0.10119734  1
  O  O29  1  0.17861239  0.11869845  0.39880266  1
  O  O30  1  0.32138761  0.11869845  0.89880266  1
  O  O31  1  0.82138761  0.88130155  0.60119734  1
  O  O32  1  0.82930305  0.32906426  0.05035262  1
  O  O33  1  0.32930305  0.67093574  0.44964738  1
  O  O34  1  0.17069695  0.67093574  0.94964738  1
  O  O35  1  0.29205645  0.76390143  0.59709175  1
loop_
_geom_bond_atom_site_label_1
_geom_bond_atom_site_label_2
_geom_bond_distance
_geom_bond_site_symmetry_2
Ca0 O3 2.278937 1_555
Ca0 O2 2.278937 1_444
Ca0 O14 2.281067 1_454
Ca0 O12 2.281067 1_545
Ca0 O28 2.300622 1_445
Ca0 O30 2.300622 1_554
Ca1 O35 2.307703 1_555
Ca1 O4 2.337393 1_555
Ca1 O9 2.373920 1_555
Ca1 O33 2.420942 1_555
Ca1 O22 2.582418 1_555
Ca1 O27 2.710924 1_555
Ca1 O23 2.729538 1_555
Ca1 O15 3.005927 1_555
Ca2 O14 2.307703 1_555
Ca2 O5 2.337393 1_655
Ca2 O8 2.373920 1_655
Ca2 O32 2.420942 1_556
Ca2 O23 2.582418 1_555
Ca2 O26 2.710924 1_555
Ca2 O22 2.729538 1_655
Ca2 O34 3.005927 1_655
Ca3 O13 2.307703 1_555
Ca3 O6 2.337393 1_555
Ca3 O11 2.373920 1_555
Ca3 O15 2.420942 1_555
Ca3 O20 2.582418 1_555
Ca3 O25 2.710924 1_555
Ca3 O21 2.729538 1_555
Ca3 O33 3.005927 1_555
Ca4 O12 2.307703 1_555
Ca4 O7 2.337393 1_455
Ca4 O10 2.373920 1_455
Ca4 O34 2.420942 1_554
Ca4 O21 2.582418 1_555
Ca4 O24 2.710924 1_555
Ca4 O20 2.729538 1_455
Ca4 O32 3.005927 1_455
Ca5 O9 2.342961 1_455
Ca5 O27 2.344632 1_555
Ca5 O2 2.381856 1_445
Ca5 O22 2.438445 1_555
Ca5 O30 2.555535 1_555
Ca5 O14 2.667646 1_455
Ca5 O18 2.717735 1_545
Ca5 O19 2.788978 1_455
Ca6 O8 2.342961 1_555
Ca6 O26 2.344632 1_555
Ca6 O1 2.381856 1_565
Ca6 O23 2.438445 1_555
Ca6 O31 2.555535 1_555
Ca6 O35 2.667646 1_555
Ca6 O19 2.717735 1_565
Ca6 O18 2.788978 1_555
Ca7 O11 2.342961 1_655
Ca7 O25 2.344632 1_555
Ca7 O3 2.381856 1_665
Ca7 O20 2.438445 1_555
Ca7 O28 2.555535 1_555
Ca7 O12 2.667646 1_655
Ca7 O16 2.717735 1_565
Ca7 O17 2.788978 1_655
Ca8 O27 2.264971 1_555
Ca8 O25 2.264971 1_455
Ca8 O15 2.303913 1_455
Ca8 O33 2.303913 1_555
Ca8 O4 2.313393 1_455
Ca8 O6 2.313393 1_555
Ca9 O10 2.342961 1_555
Ca9 O24 2.344632 1_555
Ca9 O0 2.381856 1_545
Ca9 O21 2.438445 1_555
Ca9 O29 2.555535 1_555
Ca9 O13 2.667646 1_555
Ca9 O17 2.717735 1_545
Ca9 O16 2.788978 1_555
Ca10 O24 2.264971 1_555
Ca10 O26 2.264971 1_554
Ca10 O32 2.303913 1_555
Ca10 O34 2.303913 1_554
Ca10 O7 2.313393 1_555
Ca10 O5 2.313393 1_554
Ca11 O0 2.278937 1_545
Ca11 O1 2.278937 1_555
Ca11 O13 2.281067 1_555
Ca11 O35 2.281067 1_545
Ca11 O29 2.300622 1_555
Ca11 O31 2.300622 1_545
Ca12 O3 2.280712 1_555
Ca12 O28 2.340624 1_545
Ca12 O16 2.341656 1_555
Ca12 O5 2.470365 1_554
Ca12 O32 2.529565 1_555
Ca12 O24 2.706093 1_555
Ca12 O14 2.912562 1_554
Ca13 O0 2.280712 1_455
Ca13 O29 2.340624 1_565
Ca13 O17 2.341656 1_555
Ca13 O4 2.470365 1_455
Ca13 O33 2.529565 1_555
Ca13 O25 2.706093 1_455
Ca13 O35 2.912562 1_555
Ca14 O2 2.280712 1_555
Ca14 O30 2.340624 1_565
Ca14 O18 2.341656 1_555
Ca14 O7 2.470365 1_556
Ca14 O34 2.529565 1_555
Ca14 O26 2.706093 1_555
Ca14 O12 2.912562 1_556
Ca15 O1 2.280712 1_655
Ca15 O31 2.340624 1_545
Ca15 O19 2.341656 1_555
Ca15 O6 2.470365 1_655
Ca15 O15 2.529565 1_555
Ca15 O27 2.706093 1_655
Ca15 O13 2.912562 1_555
Nb0 O15 1.938449 1_555
Nb0 O1 1.942162 1_555
Nb0 O27 1.950304 1_555
Nb0 O19 2.054168 1_555
Nb0 O9 2.103354 1_555
Nb0 O18 2.179438 1_545
Nb1 O29 1.918535 1_555
Nb1 O13 1.936438 1_455
Nb1 O6 1.942716 1_555
Nb1 O21 2.083546 1_555
Nb1 O10 2.139582 1_455
Nb1 O20 2.189671 1_455
Nb2 O28 1.918535 1_555
Nb2 O12 1.936438 1_555
Nb2 O7 1.942716 1_555
Nb2 O20 2.083546 1_555
Nb2 O11 2.139582 1_555
Nb2 O21 2.189671 1_555
Nb3 O31 1.918535 1_555
Nb3 O35 1.936438 1_655
Nb3 O4 1.942716 1_555
Nb3 O23 2.083546 1_555
Nb3 O8 2.139582 1_655
Nb3 O22 2.189671 1_655
Nb4 O30 1.918535 1_555
Nb4 O14 1.936438 1_555
Nb4 O5 1.942716 1_555
Nb4 O22 2.083546 1_555
Nb4 O9 2.139582 1_555
Nb4 O23 2.189671 1_555
Nb5 O32 1.938449 1_455
Nb5 O3 1.942162 1_555
Nb5 O24 1.950304 1_555
Nb5 O16 2.054168 1_455
Nb5 O10 2.103354 1_455
Nb5 O17 2.179438 1_545
Nb6 O33 1.938449 1_555
Nb6 O0 1.942162 1_555
Nb6 O25 1.950304 1_555
Nb6 O17 2.054168 1_555
Nb6 O11 2.103354 1_555
Nb6 O16 2.179438 1_565
Nb7 O34 1.938449 1_655
Nb7 O2 1.942162 1_555
Nb7 O26 1.950304 1_555
Nb7 O18 2.054168 1_655
Nb7 O8 2.103354 1_655
Nb7 O19 2.179438 1_565
