# generated using pymatgen
data_Y7Sn23Ir5Rh
_symmetry_space_group_name_H-M   'P 1'
_cell_length_a   9.84285594
_cell_length_b   9.83873421
_cell_length_c   10.01594324
_cell_angle_alpha   90.12011125
_cell_angle_beta   89.99999999
_cell_angle_gamma   120.01386893
_symmetry_Int_Tables_number   1
_chemical_formula_structural   Y7Sn23Ir5Rh
_chemical_formula_sum   'Y7 Sn23 Ir5 Rh1'
_cell_volume   839.88700235
_cell_formula_units_Z   1
loop_
 _symmetry_equiv_pos_site_id
 _symmetry_equiv_pos_as_xyz
  1  'x, y, z'
loop_
 _atom_site_type_symbol
 _atom_site_label
 _atom_site_symmetry_multiplicity
 _atom_site_fract_x
 _atom_site_fract_y
 _atom_site_fract_z
 _atom_site_occupancy
  Y  Y0  1  0.00242760  0.00485520  0.99719238  1
  Y  Y1  1  0.04071242  0.51947864  0.30877620  1
  Y  Y2  1  0.47986771  0.95973442  0.30789121  1
  Y  Y3  1  0.47876622  0.51947864  0.30877620  1
  Y  Y4  1  0.96037054  0.48013524  0.69266195  1
  Y  Y5  1  0.51994783  0.03989565  0.69253754  1
  Y  Y6  1  0.51976470  0.48013524  0.69266195  1
  Sn  Sn0  1  0.99941395  0.99882790  0.49941905  1
  Sn  Sn1  1  0.11682229  0.88104931  0.28225061  1
  Sn  Sn2  1  0.76422503  0.88104931  0.28225061  1
  Sn  Sn3  1  0.11704467  0.23409034  0.28549364  1
  Sn  Sn4  1  0.88180452  0.11724794  0.71451410  1
  Sn  Sn5  1  0.23544542  0.11724794  0.71451410  1
  Sn  Sn6  1  0.88212574  0.76425247  0.71454566  1
  Sn  Sn7  1  0.35297969  0.00009158  0.99990547  1
  Sn  Sn8  1  0.64969127  0.64868213  0.00079780  1
  Sn  Sn9  1  0.00026394  0.35452290  0.00075183  1
  Sn  Sn10  1  0.35425997  0.35452290  0.00075183  1
  Sn  Sn11  1  0.99899086  0.64868213  0.00079780  1
  Sn  Sn12  1  0.64711190  0.00009158  0.99990547  1
  Sn  Sn13  1  0.77802013  0.55603826  0.45546356  1
  Sn  Sn14  1  0.77831167  0.22131707  0.45651391  1
  Sn  Sn15  1  0.44300540  0.22131707  0.45651391  1
  Sn  Sn16  1  0.22120395  0.44240691  0.54431344  1
  Sn  Sn17  1  0.22162429  0.77840106  0.54359332  1
  Sn  Sn18  1  0.55677677  0.77840106  0.54359332  1
  Sn  Sn19  1  0.66658502  0.33316904  0.17314332  1
  Sn  Sn20  1  0.33324108  0.66648115  0.82849357  1
  Sn  Sn21  1  0.66722610  0.33445021  0.88151133  1
  Sn  Sn22  1  0.33312412  0.66624924  0.11959228  1
  Ir  Ir0  1  0.16844780  0.83093851  0.80121136  1
  Ir  Ir1  1  0.66249071  0.83093851  0.80121136  1
  Ir  Ir2  1  0.16820779  0.33641458  0.80201385  1
  Ir  Ir3  1  0.83141845  0.16879857  0.19872758  1
  Ir  Ir4  1  0.33738012  0.16879857  0.19872758  1
  Rh  Rh0  1  0.83090236  0.66180371  0.19897986  1
loop_
_geom_bond_atom_site_label_1
_geom_bond_atom_site_label_2
_geom_bond_distance
_geom_bond_site_symmetry_2
Sn0 Sn3 2.937517 1_665
Sn0 Sn6 2.942335 1_555
Sn0 Sn4 2.945788 1_565
Sn0 Sn5 2.945799 1_665
Sn0 Sn1 2.956127 1_655
Sn0 Sn2 2.956138 1_555
Sn1 Sn17 3.160564 1_555
Sn1 Y1 3.259560 1_555
Sn1 Y2 3.265901 1_555
Sn1 Y0 3.505710 1_564
Sn2 Y3 3.259554 1_555
Sn2 Y2 3.265872 1_555
Sn2 Y0 3.505720 1_664
Sn3 Y1 3.257408 1_555
Sn3 Y3 3.257414 1_555
Sn3 Y0 3.482094 1_554
Sn4 Y5 3.255904 1_555
Sn4 Y4 3.261050 1_555
Sn4 Y0 3.460519 1_655
Sn5 Y5 3.255885 1_555
Sn5 Y6 3.261043 1_555
Sn5 Y0 3.460529 1_555
Sn6 Y6 3.256734 1_555
Sn6 Y4 3.256741 1_555
Sn6 Y0 3.491126 1_665
Sn7 Y5 3.419518 1_555
Sn7 Y2 3.425574 1_546
Sn7 Y0 3.474222 1_555
Sn8 Y6 3.430364 1_554
Sn8 Y3 3.440729 1_555
Sn8 Y0 3.487757 1_664
Sn9 Y1 3.412222 1_555
Sn9 Y4 3.421294 1_454
Sn9 Y0 3.451099 1_554
Sn10 Y3 3.412221 1_555
Sn10 Y6 3.421291 1_554
Sn10 Y0 3.451104 1_554
Sn11 Y4 3.430364 1_554
Sn11 Y1 3.440729 1_655
Sn11 Y0 3.487757 1_664
Sn12 Y5 3.419518 1_555
Sn12 Y2 3.425570 1_546
Sn12 Y0 3.474222 1_655
Sn13 Sn6 3.139756 1_555
Sn13 Y1 3.146704 1_655
Sn13 Y3 3.146721 1_555
Sn13 Y4 3.282044 1_555
Sn13 Y6 3.282057 1_555
Sn14 Sn4 3.133412 1_555
Sn14 Y2 3.144724 1_545
Sn14 Y1 3.147112 1_655
Sn14 Y4 3.271026 1_555
Sn14 Y5 3.273863 1_555
Sn15 Sn5 3.133402 1_555
Sn15 Y2 3.144730 1_545
Sn15 Y3 3.147112 1_555
Sn15 Y6 3.271026 1_555
Sn15 Y5 3.273864 1_555
Sn16 Sn3 3.138080 1_555
Sn16 Y6 3.144492 1_555
Sn16 Y4 3.144501 1_455
Sn16 Y3 3.263707 1_555
Sn16 Y1 3.263713 1_555
Sn17 Y5 3.145319 1_565
Sn17 Y4 3.149989 1_455
Sn17 Y1 3.260166 1_555
Sn17 Y2 3.270800 1_555
Sn18 Y5 3.145320 1_565
Sn18 Y6 3.149990 1_555
Sn18 Sn2 3.160554 1_555
Sn18 Y3 3.260166 1_555
Sn18 Y2 3.270796 1_555
Sn19 Y2 3.458879 1_545
Sn19 Y1 3.464506 1_655
Sn19 Y3 3.464514 1_555
Sn20 Sn22 2.915634 1_556
Sn20 Y6 3.455412 1_555
Sn20 Y4 3.455419 1_455
Sn20 Y5 3.463488 1_565
Sn21 Y4 3.135533 1_555
Sn21 Y6 3.135547 1_555
Sn21 Y5 3.139545 1_555
Sn22 Y2 3.128214 1_555
Sn22 Y1 3.132589 1_555
Sn22 Y3 3.132596 1_555
Ir0 Sn7 2.644110 1_565
Ir0 Sn11 2.648877 1_456
Ir0 Sn6 2.697063 1_455
Ir0 Sn5 2.697374 1_565
Ir0 Sn17 2.732051 1_555
Ir0 Sn20 2.819798 1_555
Ir0 Y4 3.194010 1_455
Ir0 Y5 3.205451 1_565
Ir0 Y0 3.497803 1_565
Ir1 Sn12 2.644111 1_565
Ir1 Sn8 2.648877 1_556
Ir1 Sn6 2.697054 1_555
Ir1 Sn4 2.697379 1_565
Ir1 Sn18 2.732051 1_555
Ir1 Sn20 2.819789 1_555
Ir1 Y6 3.194010 1_555
Ir1 Y5 3.205451 1_565
Ir1 Y0 3.497802 1_665
Ir2 Sn10 2.649479 1_556
Ir2 Sn9 2.649479 1_556
Ir2 Sn4 2.697313 1_455
Ir2 Sn5 2.697320 1_555
Ir2 Sn16 2.736571 1_555
Ir2 Sn20 2.823811 1_555
Ir2 Y6 3.206924 1_555
Ir2 Y4 3.206933 1_455
Ir2 Y0 3.439073 1_555
Ir3 Sn12 2.643004 1_554
Ir3 Sn9 2.647646 1_655
Ir3 Sn3 2.694931 1_655
Ir3 Sn2 2.699824 1_545
Ir3 Sn14 2.733393 1_555
Ir3 Sn19 2.817784 1_555
Ir3 Y1 3.199429 1_655
Ir3 Y2 3.207613 1_545
Ir3 Y0 3.494581 1_654
Ir4 Sn7 2.643004 1_554
Ir4 Sn10 2.647644 1_555
Ir4 Sn3 2.694940 1_555
Ir4 Sn1 2.699829 1_545
Ir4 Sn15 2.733393 1_555
Ir4 Sn19 2.817792 1_555
Ir4 Y3 3.199429 1_555
Ir4 Y2 3.207621 1_545
Ir4 Y0 3.494580 1_554
Rh0 Sn11 2.628059 1_555
Rh0 Sn8 2.628066 1_555
Rh0 Sn1 2.681055 1_655
Rh0 Sn2 2.681074 1_555
Rh0 Sn13 2.724426 1_555
Rh0 Sn19 2.811081 1_555
Rh0 Y1 3.214722 1_655
Rh0 Y3 3.214730 1_555
Rh0 Y0 3.557382 1_664
