# generated using pymatgen
data_Rb3Ca2BiO6
_symmetry_space_group_name_H-M   'P 1'
_cell_length_a   6.02901142
_cell_length_b   6.02901072
_cell_length_c   6.77456524
_cell_angle_alpha   98.52719098
_cell_angle_beta   98.52718339
_cell_angle_gamma   119.99166327
_symmetry_Int_Tables_number   1
_chemical_formula_structural   Rb3Ca2BiO6
_chemical_formula_sum   'Rb3 Ca2 Bi1 O6'
_cell_volume   203.68365865
_cell_formula_units_Z   1
loop_
 _symmetry_equiv_pos_site_id
 _symmetry_equiv_pos_as_xyz
  1  'x, y, z'
loop_
 _atom_site_type_symbol
 _atom_site_label
 _atom_site_symmetry_multiplicity
 _atom_site_fract_x
 _atom_site_fract_y
 _atom_site_fract_z
 _atom_site_occupancy
  Rb  Rb0  1  0.82867057  0.17132843  0.50000200  1
  Rb  Rb1  1  0.50000100  0.50000100  0.50000100  1
  Rb  Rb2  1  0.17132843  0.82867057  0.50000200  1
  Ca  Ca0  1  0.66637991  0.33362209  0.99999900  1
  Ca  Ca1  1  0.33362209  0.66637991  0.99999900  1
  Bi  Bi0  1  0.00000100  0.00000100  0.00000100  1
  O  O0  1  0.75818924  0.75818924  0.18289409  1
  O  O1  1  0.36396618  0.06051191  0.18003048  1
  O  O2  1  0.06051191  0.36396618  0.18003048  1
  O  O3  1  0.93948809  0.63603482  0.81997052  1
  O  O4  1  0.63603482  0.93948809  0.81997052  1
  O  O5  1  0.24180976  0.24180976  0.81710791  1
loop_
_geom_bond_atom_site_label_1
_geom_bond_atom_site_label_2
_geom_bond_distance
_geom_bond_site_symmetry_2
Ca0 O3 2.403441 1_555
Ca0 O1 2.403463 1_556
Ca0 O2 2.409811 1_656
Ca0 O4 2.409811 1_545
Ca0 O0 2.415226 1_556
Ca0 O5 2.415226 1_555
Ca1 O4 2.403441 1_555
Ca1 O2 2.403463 1_556
Ca1 O1 2.409811 1_566
Ca1 O3 2.409812 1_455
Ca1 O5 2.415226 1_555
Ca1 O0 2.415226 1_556
Bi0 O2 2.170202 1_555
Bi0 O1 2.170203 1_555
Bi0 O3 2.170205 1_444
Bi0 O4 2.170205 1_444
Bi0 O5 2.175419 1_554
Bi0 O0 2.175434 1_445
O0 Rb0 2.843249 1_565
O0 Rb2 2.843249 1_655
O0 Rb1 3.003680 1_555
O1 Rb1 2.826499 1_555
O1 Rb2 2.832596 1_545
O1 Rb0 2.982081 1_555
O2 Rb1 2.826499 1_555
O2 Rb0 2.832596 1_455
O2 Rb2 2.982081 1_555
O3 Rb1 2.826489 1_555
O3 Rb2 2.832572 1_655
O3 Rb0 2.982076 1_555
O4 Rb1 2.826488 1_555
O4 Rb0 2.832572 1_565
O4 Rb2 2.982076 1_555
O5 Rb2 2.843241 1_545
O5 Rb0 2.843241 1_455
O5 Rb1 3.003693 1_555
