# generated using pymatgen
data_Y6ZrAl15Os7
_symmetry_space_group_name_H-M   'P 1'
_cell_length_a   8.96246347
_cell_length_b   8.96246459
_cell_length_c   8.95648253
_cell_angle_alpha   59.97790961
_cell_angle_beta   59.97790646
_cell_angle_gamma   60.00000413
_symmetry_Int_Tables_number   1
_chemical_formula_structural   Y6ZrAl15Os7
_chemical_formula_sum   'Y6 Zr1 Al15 Os7'
_cell_volume   508.54835081
_cell_formula_units_Z   1
loop_
 _symmetry_equiv_pos_site_id
 _symmetry_equiv_pos_as_xyz
  1  'x, y, z'
loop_
 _atom_site_type_symbol
 _atom_site_label
 _atom_site_symmetry_multiplicity
 _atom_site_fract_x
 _atom_site_fract_y
 _atom_site_fract_z
 _atom_site_occupancy
  Y  Y0  1  0.70730310  0.70730310  0.28710216  1
  Y  Y1  1  0.29829163  0.70730310  0.28710216  1
  Y  Y2  1  0.70730310  0.29829163  0.28710216  1
  Y  Y3  1  0.28789915  0.28789915  0.71415663  1
  Y  Y4  1  0.71004507  0.28789915  0.71415663  1
  Y  Y5  1  0.28789915  0.71004507  0.71415663  1
  Zr  Zr0  1  0.88085692  0.88085692  0.35742825  1
  Al  Al0  1  0.87816137  0.36412054  0.87955571  1
  Al  Al1  1  0.36412054  0.87816137  0.87955571  1
  Al  Al2  1  0.87816137  0.87816137  0.87955571  1
  Al  Al3  1  0.12397760  0.12397760  0.62806720  1
  Al  Al4  1  0.12146004  0.63594142  0.12114150  1
  Al  Al5  1  0.63594142  0.12146004  0.12114150  1
  Al  Al6  1  0.12146004  0.12146004  0.12114150  1
  Al  Al7  1  0.66995566  0.66995566  0.99013303  1
  Al  Al8  1  0.66651530  0.99298473  0.67398667  1
  Al  Al9  1  0.99298473  0.66651530  0.67398667  1
  Al  Al10  1  0.66651530  0.66651530  0.67398667  1
  Al  Al11  1  0.33045169  0.33045169  0.00864493  1
  Al  Al12  1  0.33155518  0.00680307  0.33008658  1
  Al  Al13  1  0.00680307  0.33155518  0.33008658  1
  Al  Al14  1  0.33155518  0.33155518  0.33008658  1
  Os  Os0  1  0.00325738  0.00325738  0.99022687  1
  Os  Os1  1  0.00056426  0.00056426  0.50202454  1
  Os  Os2  1  0.49684595  0.00056426  0.50202454  1
  Os  Os3  1  0.00056426  0.49684595  0.50202454  1
  Os  Os4  1  0.49945426  0.49945426  0.00044646  1
  Os  Os5  1  0.00064603  0.49945426  0.00044646  1
  Os  Os6  1  0.49945426  0.00064603  0.00044646  1
loop_
_geom_bond_atom_site_label_1
_geom_bond_atom_site_label_2
_geom_bond_distance
_geom_bond_site_symmetry_2
Y0 Zr0 3.100969 1_555
Y0 Y1 3.665750 1_555
Y0 Y2 3.665751 1_555
Y0 Y5 3.791366 1_555
Y0 Y4 3.791366 1_555
Y1 Zr0 3.100977 1_455
Y1 Y2 3.665751 1_555
Y1 Y5 3.791366 1_555
Y1 Y3 3.791366 1_555
Y2 Zr0 3.100977 1_545
Y2 Y3 3.791366 1_555
Y2 Y4 3.791366 1_555
Al0 Os0 2.641539 1_655
Al0 Os3 2.760456 1_655
Al0 Os4 2.771937 1_556
Al0 Os5 2.771952 1_656
Al0 Al10 2.773779 1_555
Al0 Al9 2.773794 1_555
Al0 Al7 2.780022 1_555
Al0 Y2 3.028529 1_556
Al0 Y4 3.034299 1_555
Al0 Y3 3.034307 1_655
Al0 Al5 3.071883 1_556
Al0 Al6 3.071908 1_656
Al0 Al3 3.115002 1_655
Al1 Os0 2.641538 1_565
Al1 Os2 2.760456 1_565
Al1 Os4 2.771938 1_556
Al1 Os6 2.771952 1_566
Al1 Al10 2.773779 1_555
Al1 Al8 2.773793 1_555
Al1 Al7 2.780022 1_555
Al1 Y1 3.028529 1_556
Al1 Y5 3.034299 1_555
Al1 Y3 3.034307 1_565
Al1 Al4 3.071883 1_556
Al1 Al6 3.071908 1_566
Al1 Al3 3.115001 1_565
Al2 Os0 2.641538 1_665
Al2 Os1 2.760456 1_665
Al2 Os6 2.771937 1_566
Al2 Os5 2.771937 1_656
Al2 Al8 2.773771 1_555
Al2 Al9 2.773771 1_555
Al2 Al7 2.780015 1_555
Al2 Y0 3.028528 1_556
Al2 Y5 3.034306 1_655
Al2 Y4 3.034306 1_565
Al2 Al4 3.071908 1_656
Al2 Al5 3.071908 1_566
Al2 Al3 3.115008 1_665
Al3 Os0 2.647566 1_555
Al3 Os2 2.728306 1_555
Al3 Os3 2.728306 1_555
Al3 Os1 2.728313 1_555
Al3 Y4 3.055611 1_455
Al3 Y3 3.055611 1_555
Al3 Y5 3.055611 1_545
Al4 Os0 2.688416 1_564
Al4 Os4 2.767010 1_555
Al4 Os5 2.767024 1_555
Al4 Os3 2.786036 1_555
Al4 Y5 3.013381 1_554
Al4 Zr0 3.048844 1_455
Al4 Y1 3.074496 1_555
Al4 Y0 3.074519 1_455
Al5 Os0 2.688416 1_654
Al5 Os4 2.767010 1_555
Al5 Os6 2.767024 1_555
Al5 Os2 2.786036 1_555
Al5 Y4 3.013381 1_554
Al5 Zr0 3.048844 1_545
Al5 Y2 3.074496 1_555
Al5 Y0 3.074520 1_545
Al6 Os0 2.688445 1_554
Al6 Os6 2.767009 1_555
Al6 Os5 2.767010 1_555
Al6 Os1 2.786035 1_555
Al6 Y3 3.013377 1_554
Al6 Zr0 3.048870 1_445
Al6 Y2 3.074515 1_455
Al6 Y1 3.074516 1_545
Al7 Os4 2.594498 1_556
Al7 Os5 2.594506 1_656
Al7 Os6 2.594506 1_566
Al7 Al9 2.862755 1_555
Al7 Al8 2.862755 1_555
Al7 Y1 3.031904 1_556
Al7 Y0 3.031904 1_556
Al7 Y2 3.031905 1_556
Al8 Os6 2.552090 1_566
Al8 Os1 2.612407 1_665
Al8 Os2 2.612431 1_565
Al8 Zr0 2.865189 1_555
Al8 Al9 2.925971 1_555
Al8 Y4 3.064503 1_565
Al8 Y3 3.064514 1_565
Al8 Y2 3.142107 1_565
Al9 Os5 2.552090 1_656
Al9 Os1 2.612408 1_665
Al9 Os3 2.612431 1_655
Al9 Zr0 2.865189 1_555
Al9 Y5 3.064503 1_655
Al9 Y3 3.064515 1_655
Al9 Y1 3.142107 1_655
Al10 Os4 2.552093 1_556
Al10 Os3 2.612416 1_655
Al10 Os2 2.612416 1_565
Al10 Al7 2.862746 1_555
Al10 Zr0 2.865175 1_555
Al10 Al9 2.925970 1_555
Al10 Al8 2.925971 1_555
Al10 Y5 3.064521 1_555
Al10 Y4 3.064521 1_555
Al10 Y0 3.142114 1_555
Al11 Os5 2.581767 1_555
Al11 Os6 2.581767 1_555
Al11 Os4 2.581775 1_555
Al11 Al6 2.786295 1_555
Al11 Al5 2.786317 1_555
Al11 Al4 2.786317 1_555
Al11 Al13 2.888917 1_555
Al11 Al14 2.888917 1_555
Al11 Al12 2.888917 1_555
Al11 Y4 3.066974 1_554
Al11 Y3 3.066974 1_554
Al11 Y5 3.066974 1_554
Al12 Os6 2.572636 1_555
Al12 Os2 2.585155 1_555
Al12 Os1 2.585162 1_555
Al12 Al3 2.751216 1_555
Al12 Al6 2.787578 1_555
Al12 Al5 2.787600 1_555
Al12 Al13 2.910579 1_555
Al12 Al14 2.910579 1_555
Al12 Y0 3.064560 1_545
Al12 Y1 3.064560 1_545
Al12 Y5 3.098170 1_545
Al13 Os5 2.572636 1_555
Al13 Os3 2.585155 1_555
Al13 Os1 2.585163 1_555
Al13 Al3 2.751216 1_555
Al13 Al6 2.787578 1_555
Al13 Al4 2.787600 1_555
Al13 Al14 2.910579 1_555
Al13 Y2 3.064559 1_455
Al13 Y0 3.064560 1_455
Al13 Y4 3.098169 1_455
Al14 Os4 2.572639 1_555
Al14 Os3 2.585160 1_555
Al14 Os2 2.585160 1_555
Al14 Al3 2.751216 1_555
Al14 Al5 2.787586 1_555
Al14 Al4 2.787586 1_555
Al14 Y2 3.064559 1_555
Al14 Y1 3.064560 1_555
Al14 Y3 3.098169 1_555
Os0 Zr0 2.684424 1_446
Os1 Zr0 2.812675 1_445
Os1 Y5 3.203387 1_545
Os1 Y4 3.203387 1_455
Os1 Y2 3.262410 1_455
Os1 Y1 3.262410 1_545
Os2 Zr0 2.812675 1_545
Os2 Y5 3.203381 1_545
Os2 Y3 3.203389 1_555
Os2 Y0 3.262409 1_545
Os2 Y2 3.262416 1_555
Os3 Zr0 2.812675 1_455
Os3 Y4 3.203381 1_455
Os3 Y3 3.203388 1_555
Os3 Y0 3.262409 1_455
Os3 Y1 3.262416 1_555
Os4 Y2 3.179271 1_555
Os4 Y1 3.179271 1_555
Os4 Y5 3.189946 1_554
Os4 Y4 3.189946 1_554
Os5 Y0 3.179272 1_455
Os5 Y2 3.179277 1_455
Os5 Y5 3.189939 1_554
Os5 Y3 3.189945 1_554
Os6 Y0 3.179272 1_545
Os6 Y1 3.179277 1_545
Os6 Y4 3.189939 1_554
Os6 Y3 3.189945 1_554
