# generated using pymatgen
data_MgAl2O4
_symmetry_space_group_name_H-M   'P 1'
_cell_length_a   5.71369910
_cell_length_b   5.71369870
_cell_length_c   5.71369965
_cell_angle_alpha   60.00000602
_cell_angle_beta   60.00000836
_cell_angle_gamma   60.00000320
_symmetry_Int_Tables_number   1
_chemical_formula_structural   MgAl2O4
_chemical_formula_sum   'Mg2 Al4 O8'
_cell_volume   131.89768341
_cell_formula_units_Z   2
loop_
 _symmetry_equiv_pos_site_id
 _symmetry_equiv_pos_as_xyz
  1  'x, y, z'
loop_
 _atom_site_type_symbol
 _atom_site_label
 _atom_site_symmetry_multiplicity
 _atom_site_fract_x
 _atom_site_fract_y
 _atom_site_fract_z
 _atom_site_occupancy
  Mg  Mg0  1  0.12500000  0.12500000  0.12500000  1
  Mg  Mg1  1  0.87500000  0.87500000  0.87500000  1
  Al  Al0  1  0.50000000  0.50000000  0.00000000  1
  Al  Al1  1  0.50000000  0.50000000  0.50000000  1
  Al  Al2  1  0.00000000  0.50000000  0.50000000  1
  Al  Al3  1  0.50000000  -0.00000000  0.50000000  1
  O  O0  1  0.73627934  0.73627934  0.73627934  1
  O  O1  1  0.26372066  0.26372066  0.70883902  1
  O  O2  1  0.26372066  0.70883902  0.26372066  1
  O  O3  1  0.70883902  0.26372066  0.26372066  1
  O  O4  1  0.73627934  0.29116098  0.73627934  1
  O  O5  1  0.29116098  0.73627934  0.73627934  1
  O  O6  1  0.26372066  0.26372066  0.26372066  1
  O  O7  1  0.73627934  0.73627934  0.29116098  1
loop_
_geom_bond_atom_site_label_1
_geom_bond_atom_site_label_2
_geom_bond_distance
_geom_bond_site_symmetry_2
Mg0 O2 1.941481 1_545
Mg0 O3 1.941481 1_455
Mg0 O1 1.941481 1_554
Mg0 O6 1.941485 1_555
Mg1 O4 1.941481 1_565
Mg1 O5 1.941481 1_655
Mg1 O7 1.941481 1_556
Mg1 O0 1.941485 1_555
Al0 O0 1.915657 1_554
Al0 O6 1.915657 1_555
Al0 O3 1.915661 1_555
Al0 O5 1.915661 1_554
Al0 O2 1.915661 1_555
Al0 O4 1.915661 1_554
Al1 O7 1.915656 1_555
Al1 O1 1.915656 1_555
Al1 O5 1.915656 1_555
Al1 O3 1.915656 1_555
Al1 O4 1.915656 1_555
Al1 O2 1.915656 1_555
Al2 O0 1.915657 1_455
Al2 O6 1.915657 1_555
Al2 O1 1.915661 1_555
Al2 O7 1.915661 1_455
Al2 O2 1.915661 1_555
Al2 O4 1.915661 1_455
Al3 O0 1.915657 1_545
Al3 O6 1.915657 1_555
Al3 O1 1.915661 1_555
Al3 O7 1.915661 1_545
Al3 O3 1.915661 1_555
Al3 O5 1.915661 1_545
