# generated using pymatgen
data_Cs3Mn3(AsO4)4
_symmetry_space_group_name_H-M   'P 1'
_cell_length_a   5.18402685
_cell_length_b   7.15710089
_cell_length_c   11.86930343
_cell_angle_alpha   101.49238164
_cell_angle_beta   90.32177392
_cell_angle_gamma   97.65963364
_symmetry_Int_Tables_number   1
_chemical_formula_structural   Cs3Mn3(AsO4)4
_chemical_formula_sum   'Cs3 Mn3 As4 O16'
_cell_volume   427.46760394
_cell_formula_units_Z   1
loop_
 _symmetry_equiv_pos_site_id
 _symmetry_equiv_pos_as_xyz
  1  'x, y, z'
loop_
 _atom_site_type_symbol
 _atom_site_label
 _atom_site_symmetry_multiplicity
 _atom_site_fract_x
 _atom_site_fract_y
 _atom_site_fract_z
 _atom_site_occupancy
  Cs  Cs0  1  0.87087907  0.25858597  0.52177425  1
  Cs  Cs1  1  0.00000000  0.00000000  0.00000000  1
  Cs  Cs2  1  0.12912093  0.74141403  0.47822575  1
  Mn  Mn0  1  0.00946954  0.55020021  0.12857169  1
  Mn  Mn1  1  0.99053046  0.44979979  0.87142831  1
  Mn  Mn2  1  0.50000000  0.50000000  0.00000000  1
  As  As0  1  0.48595683  0.68300154  0.76094085  1
  As  As1  1  0.52629343  0.86032497  0.22956518  1
  As  As2  1  0.51404317  0.31699846  0.23905915  1
  As  As3  1  0.47370657  0.13967503  0.77043482  1
  O  O0  1  0.66622563  0.62172997  0.86603331  1
  O  O1  1  0.79499148  0.23070099  0.77095175  1
  O  O2  1  0.33377437  0.37827003  0.13396669  1
  O  O3  1  0.38690312  0.33045750  0.36642159  1
  O  O4  1  0.32050108  0.27680034  0.87778341  1
  O  O5  1  0.61309688  0.66954250  0.63357841  1
  O  O6  1  0.82535916  0.43310337  0.24428013  1
  O  O7  1  0.33602068  0.09818518  0.64131676  1
  O  O8  1  0.67949892  0.72319966  0.12221659  1
  O  O9  1  0.46327874  0.92790942  0.82867954  1
  O  O10  1  0.19760446  0.61429804  0.99688789  1
  O  O11  1  0.66397932  0.90181482  0.35868324  1
  O  O12  1  0.20500852  0.76929901  0.22904825  1
  O  O13  1  0.53672126  0.07209058  0.17132046  1
  O  O14  1  0.80239554  0.38570196  0.00311211  1
  O  O15  1  0.17464084  0.56689663  0.75571987  1
loop_
_geom_bond_atom_site_label_1
_geom_bond_atom_site_label_2
_geom_bond_distance
_geom_bond_site_symmetry_2
Cs0 O11 2.948679 1_545
Cs0 O1 3.028055 1_555
Cs0 O7 3.239464 1_655
Cs0 O3 3.260291 1_555
Cs0 O7 3.296036 1_555
Cs0 O3 3.299587 1_655
Cs0 O15 3.412087 1_655
Cs0 O5 3.422024 1_555
Cs1 O8 3.014022 1_445
Cs1 O4 3.014022 1_554
Cs1 O14 3.063456 1_455
Cs1 O10 3.063456 1_544
Cs1 O2 3.139557 1_555
Cs1 O0 3.139557 1_444
Cs1 O13 3.183737 1_455
Cs1 O9 3.183737 1_544
Cs1 O13 3.358342 1_555
Cs1 O9 3.358342 1_444
Cs2 O7 2.948679 1_565
Cs2 O12 3.028055 1_555
Cs2 O11 3.239464 1_455
Cs2 O5 3.260291 1_555
Cs2 O11 3.296036 1_555
Cs2 O5 3.299587 1_455
Cs2 O6 3.412087 1_455
Cs2 O3 3.422024 1_555
Mn0 O14 1.924180 1_455
Mn0 O12 1.930356 1_555
Mn0 O6 1.938972 1_455
Mn0 O10 1.946325 1_554
Mn0 O2 2.219551 1_555
Mn0 O8 2.250602 1_455
Mn1 O10 1.924180 1_655
Mn1 O1 1.930356 1_555
Mn1 O15 1.938972 1_655
Mn1 O14 1.946325 1_556
Mn1 O0 2.219551 1_555
Mn1 O4 2.250602 1_655
Mn2 O14 1.865812 1_555
Mn2 O10 1.865812 1_554
Mn2 O8 2.046281 1_555
Mn2 O4 2.046281 1_554
Mn2 O2 2.096968 1_555
Mn2 O0 2.096968 1_554
As0 O5 1.642871 1_555
As0 O15 1.708740 1_555
As0 O0 1.713387 1_555
As0 O9 1.796412 1_555
As1 O11 1.642010 1_555
As1 O12 1.705157 1_555
As1 O8 1.714149 1_555
As1 O13 1.781594 1_565
As2 O3 1.642871 1_555
As2 O6 1.708740 1_555
As2 O2 1.713387 1_555
As2 O13 1.796412 1_555
As3 O7 1.642010 1_555
As3 O1 1.705157 1_555
As3 O4 1.714149 1_555
As3 O9 1.781594 1_545
