# generated using pymatgen
data_Ti2Ga3
_symmetry_space_group_name_H-M   'P 1'
_cell_length_a   3.97643212
_cell_length_b   6.24279741
_cell_length_c   6.24279741
_cell_angle_alpha   90.00000000
_cell_angle_beta   90.00000000
_cell_angle_gamma   90.00000000
_symmetry_Int_Tables_number   1
_chemical_formula_structural   Ti2Ga3
_chemical_formula_sum   'Ti4 Ga6'
_cell_volume   154.97157839
_cell_formula_units_Z   2
loop_
 _symmetry_equiv_pos_site_id
 _symmetry_equiv_pos_as_xyz
  1  'x, y, z'
loop_
 _atom_site_type_symbol
 _atom_site_label
 _atom_site_symmetry_multiplicity
 _atom_site_fract_x
 _atom_site_fract_y
 _atom_site_fract_z
 _atom_site_occupancy
  Ti  Ti0  1  0.50000000  0.69645063  0.87276787  1
  Ti  Ti1  1  0.50000000  0.12723213  0.69645063  1
  Ti  Ti2  1  0.50000000  0.87276787  0.30354937  1
  Ti  Ti3  1  0.50000000  0.30354937  0.12723213  1
  Ga  Ga0  1  0.00000000  0.39580039  0.81765508  1
  Ga  Ga1  1  -0.00000000  0.81765508  0.60419961  1
  Ga  Ga2  1  -0.00000000  0.60419961  0.18234492  1
  Ga  Ga3  1  0.00000000  0.18234492  0.39580039  1
  Ga  Ga4  1  0.50000000  0.50000000  0.50000000  1
  Ga  Ga5  1  0.00000000  0.00000000  0.00000000  1
loop_
_geom_bond_atom_site_label_1
_geom_bond_atom_site_label_2
_geom_bond_distance
_geom_bond_site_symmetry_2
Ti0 Ti1 2.905822 1_565
Ti0 Ti2 2.905822 1_556
Ti0 Ti3 2.922292 1_556
Ti1 Ti3 2.905822 1_556
Ti1 Ti2 2.922292 1_545
Ti2 Ti3 2.905822 1_565
Ga0 Ga2 2.622190 1_556
Ga0 Ti1 2.708611 1_455
Ga0 Ti1 2.708611 1_555
Ga0 Ga5 2.720511 1_556
Ga0 Ti0 2.755744 1_555
Ga0 Ti0 2.755744 1_455
Ga0 Ti3 2.831910 1_556
Ga0 Ti3 2.831910 1_456
Ga0 Ga4 2.882475 1_555
Ga0 Ga4 2.882475 1_455
Ga0 Ga3 2.951494 1_555
Ga0 Ga1 2.951494 1_555
Ga1 Ga3 2.622190 1_565
Ga1 Ti0 2.708611 1_555
Ga1 Ti0 2.708611 1_455
Ga1 Ga5 2.720511 1_566
Ga1 Ti2 2.755744 1_455
Ga1 Ti2 2.755744 1_555
Ga1 Ti1 2.831910 1_465
Ga1 Ti1 2.831910 1_565
Ga1 Ga4 2.882475 1_555
Ga1 Ga4 2.882475 1_455
Ga1 Ga2 2.951494 1_555
Ga2 Ti2 2.708611 1_455
Ga2 Ti2 2.708611 1_555
Ga2 Ga5 2.720511 1_565
Ga2 Ti3 2.755744 1_455
Ga2 Ti3 2.755744 1_555
Ga2 Ti0 2.831910 1_554
Ga2 Ti0 2.831910 1_454
Ga2 Ga4 2.882475 1_555
Ga2 Ga4 2.882475 1_455
Ga2 Ga3 2.951494 1_555
Ga3 Ti3 2.708611 1_455
Ga3 Ti3 2.708611 1_555
Ga3 Ga5 2.720511 1_555
Ga3 Ti1 2.755744 1_455
Ga3 Ti1 2.755744 1_555
Ga3 Ti2 2.831910 1_545
Ga3 Ti2 2.831910 1_445
Ga3 Ga4 2.882475 1_555
Ga3 Ga4 2.882475 1_455
Ga4 Ti0 2.630498 1_555
Ga4 Ti1 2.630498 1_555
Ga4 Ti2 2.630498 1_555
Ga4 Ti3 2.630498 1_555
Ga5 Ti1 2.859179 1_454
Ga5 Ti0 2.859179 1_544
Ga5 Ti0 2.859179 1_444
Ga5 Ti1 2.859179 1_554
Ga5 Ti3 2.859179 1_455
Ga5 Ti2 2.859179 1_445
Ga5 Ti2 2.859179 1_545
Ga5 Ti3 2.859179 1_555
