# generated using pymatgen
data_Na16TiGeP8
_symmetry_space_group_name_H-M   'P 1'
_cell_length_a   9.44553334
_cell_length_b   9.44553346
_cell_length_c   9.44553463
_cell_angle_alpha   60.00000278
_cell_angle_beta   60.00000232
_cell_angle_gamma   60.00000200
_symmetry_Int_Tables_number   1
_chemical_formula_structural   Na16TiGeP8
_chemical_formula_sum   'Na16 Ti1 Ge1 P8'
_cell_volume   595.88787159
_cell_formula_units_Z   1
loop_
 _symmetry_equiv_pos_site_id
 _symmetry_equiv_pos_as_xyz
  1  'x, y, z'
loop_
 _atom_site_type_symbol
 _atom_site_label
 _atom_site_symmetry_multiplicity
 _atom_site_fract_x
 _atom_site_fract_y
 _atom_site_fract_z
 _atom_site_occupancy
  Na  Na0  1  0.62682943  0.62682943  0.11951272  1
  Na  Na1  1  0.62682943  0.11951272  0.62682943  1
  Na  Na2  1  0.11951272  0.62682943  0.62682943  1
  Na  Na3  1  0.62682943  0.62682943  0.62682943  1
  Na  Na4  1  0.03141009  0.46858991  0.46858991  1
  Na  Na5  1  0.77349169  0.22650831  0.22650831  1
  Na  Na6  1  0.46858991  0.03141009  0.46858991  1
  Na  Na7  1  0.46858991  0.46858991  0.03141009  1
  Na  Na8  1  0.03141009  0.03141009  0.46858991  1
  Na  Na9  1  0.03141009  0.46858991  0.03141009  1
  Na  Na10  1  0.46858991  0.03141009  0.03141009  1
  Na  Na11  1  0.77349169  0.22650831  0.77349169  1
  Na  Na12  1  0.22650831  0.77349169  0.22650831  1
  Na  Na13  1  0.22650831  0.22650831  0.77349169  1
  Na  Na14  1  0.77349169  0.77349169  0.22650831  1
  Na  Na15  1  0.22650831  0.77349169  0.77349169  1
  Ti  Ti0  1  0.50000000  0.50000000  0.50000000  1
  Ge  Ge0  1  0.75000000  0.75000000  0.75000000  1
  P  P0  1  0.85387400  0.85387400  0.43838001  1
  P  P1  1  0.85387400  0.43838001  0.85387400  1
  P  P2  1  0.39590067  0.39590067  0.81229598  1
  P  P3  1  0.39590067  0.81229598  0.39590067  1
  P  P4  1  0.81229598  0.39590067  0.39590067  1
  P  P5  1  0.85387400  0.85387400  0.85387400  1
  P  P6  1  0.43838001  0.85387400  0.85387400  1
  P  P7  1  0.39590067  0.39590067  0.39590067  1
loop_
_geom_bond_atom_site_label_1
_geom_bond_atom_site_label_2
_geom_bond_distance
_geom_bond_site_symmetry_2
Na0 Ti0 2.934412 1_555
Na0 P1 3.054686 1_554
Na0 P6 3.054686 1_554
Na0 P5 3.054692 1_554
Na0 P3 3.114470 1_555
Na0 P4 3.114470 1_555
Na0 P7 3.114488 1_555
Na1 Ti0 2.934411 1_555
Na1 P6 3.054686 1_545
Na1 P0 3.054686 1_545
Na1 P5 3.054692 1_545
Na1 P4 3.114470 1_555
Na1 P2 3.114470 1_555
Na1 P7 3.114488 1_555
Na2 Ti0 2.934411 1_555
Na2 P1 3.054686 1_455
Na2 P0 3.054686 1_455
Na2 P5 3.054692 1_455
Na2 P3 3.114470 1_555
Na2 P2 3.114470 1_555
Na2 P7 3.114488 1_555
Na3 Ti0 2.934419 1_555
Na3 P0 3.054693 1_555
Na3 P1 3.054693 1_555
Na3 P6 3.054693 1_555
Na3 P2 3.114492 1_555
Na3 P3 3.114492 1_555
Na3 P4 3.114492 1_555
Na4 P7 2.922251 1_555
Na4 P4 2.922269 1_455
Na4 P0 3.078109 1_455
Na4 P1 3.078109 1_455
Na5 P0 2.961956 1_545
Na5 P1 2.961957 1_554
Na5 P4 2.997873 1_555
Na5 P7 2.997885 1_555
Na6 P7 2.922251 1_555
Na6 P3 2.922269 1_545
Na6 P0 3.078109 1_545
Na6 P6 3.078109 1_545
Na7 P7 2.922252 1_555
Na7 P2 2.922269 1_554
Na7 P1 3.078109 1_554
Na7 P6 3.078109 1_554
Na8 P3 2.922256 1_545
Na8 P4 2.922256 1_455
Na8 P0 3.078092 1_445
Na8 P5 3.078105 1_445
Na9 P2 2.922256 1_554
Na9 P4 2.922256 1_455
Na9 P1 3.078092 1_454
Na9 P5 3.078105 1_454
Na10 P2 2.922256 1_554
Na10 P3 2.922256 1_545
Na10 P6 3.078092 1_544
Na10 P5 3.078104 1_544
Na11 P5 2.961952 1_545
Na11 P1 2.961970 1_555
Na11 P2 2.997889 1_555
Na11 P4 2.997890 1_555
Na12 P0 2.961956 1_455
Na12 P6 2.961957 1_554
Na12 P3 2.997873 1_555
Na12 P7 2.997885 1_555
Na13 P1 2.961956 1_455
Na13 P6 2.961956 1_545
Na13 P2 2.997873 1_555
Na13 P7 2.997886 1_555
Na14 P5 2.961953 1_554
Na14 P0 2.961970 1_555
Na14 P3 2.997889 1_555
Na14 P4 2.997889 1_555
Na15 P5 2.961952 1_455
Na15 P6 2.961970 1_555
Na15 P2 2.997889 1_555
Na15 P3 2.997890 1_555
Ge0 P6 2.403290 1_555
Ge0 P1 2.403290 1_555
Ge0 P0 2.403290 1_555
Ge0 P5 2.403305 1_555
Ge0 Na3 2.849765 1_555
Ge0 Na2 2.849773 1_655
Ge0 Na1 2.849773 1_565
Ge0 Na0 2.849773 1_556
P2 Ti0 2.408504 1_555
P3 Ti0 2.408503 1_555
P4 Ti0 2.408503 1_555
P7 Ti0 2.408519 1_555
