# generated using pymatgen
data_Ba4GaCuIr2
_symmetry_space_group_name_H-M   'P 1'
_cell_length_a   4.41252287
_cell_length_b   4.41252148
_cell_length_c   17.44128905
_cell_angle_alpha   90.00000000
_cell_angle_beta   90.00000000
_cell_angle_gamma   120.00000311
_symmetry_Int_Tables_number   1
_chemical_formula_structural   Ba4GaCuIr2
_chemical_formula_sum   'Ba4 Ga1 Cu1 Ir2'
_cell_volume   294.09185698
_cell_formula_units_Z   1
loop_
 _symmetry_equiv_pos_site_id
 _symmetry_equiv_pos_as_xyz
  1  'x, y, z'
loop_
 _atom_site_type_symbol
 _atom_site_label
 _atom_site_symmetry_multiplicity
 _atom_site_fract_x
 _atom_site_fract_y
 _atom_site_fract_z
 _atom_site_occupancy
  Ba  Ba0  1  0.33333300  0.66666700  0.12511048  1
  Ba  Ba1  1  0.66666700  0.33333300  0.86718512  1
  Ba  Ba2  1  0.33333300  0.66666700  0.37488952  1
  Ba  Ba3  1  0.66666700  0.33333300  0.63281488  1
  Ga  Ga0  1  0.00000000  0.00000000  0.25000000  1
  Cu  Cu0  1  0.00000000  0.00000000  0.75000000  1
  Ir  Ir0  1  0.66666700  0.33333300  0.25000000  1
  Ir  Ir1  1  0.33333300  0.66666700  0.75000000  1
loop_
_geom_bond_atom_site_label_1
_geom_bond_atom_site_label_2
_geom_bond_distance
_geom_bond_site_symmetry_2
Ba0 Ir0 3.351836 1_565
Ba0 Ga0 3.351837 1_565
Ba0 Ir0 3.351837 1_455
Ba0 Ga0 3.351839 1_555
Ba0 Ga0 3.351840 1_665
Ba0 Ir0 3.351842 1_555
Ba1 Ir1 3.266108 1_545
Ba1 Cu0 3.266109 1_655
Ba1 Ir1 3.266109 1_655
Ba1 Cu0 3.266111 1_665
Ba1 Cu0 3.266112 1_555
Ba1 Ir1 3.266115 1_555
Ba2 Ir0 3.351836 1_565
Ba2 Ga0 3.351837 1_565
Ba2 Ir0 3.351837 1_455
Ba2 Ga0 3.351839 1_555
Ba2 Ga0 3.351840 1_665
Ba2 Ir0 3.351842 1_555
Ba3 Ir1 3.266108 1_545
Ba3 Cu0 3.266109 1_655
Ba3 Ir1 3.266109 1_655
Ba3 Cu0 3.266111 1_665
Ba3 Cu0 3.266112 1_555
Ba3 Ir1 3.266115 1_555
Ga0 Ir0 2.547568 1_455
Ga0 Ir0 2.547572 1_445
Ga0 Ir0 2.547572 1_555
Cu0 Ir1 2.547568 1_545
Cu0 Ir1 2.547572 1_555
Cu0 Ir1 2.547572 1_445
