# generated using pymatgen
data_Zr5Sc(SnC2)2
_symmetry_space_group_name_H-M   'P 1'
_cell_length_a   3.36929678
_cell_length_b   3.36929606
_cell_length_c   20.09546170
_cell_angle_alpha   90.00000000
_cell_angle_beta   90.00000000
_cell_angle_gamma   119.99998756
_symmetry_Int_Tables_number   1
_chemical_formula_structural   Zr5Sc(SnC2)2
_chemical_formula_sum   'Zr5 Sc1 Sn2 C4'
_cell_volume   197.56368421
_cell_formula_units_Z   1
loop_
 _symmetry_equiv_pos_site_id
 _symmetry_equiv_pos_as_xyz
  1  'x, y, z'
loop_
 _atom_site_type_symbol
 _atom_site_label
 _atom_site_symmetry_multiplicity
 _atom_site_fract_x
 _atom_site_fract_y
 _atom_site_fract_z
 _atom_site_occupancy
  Zr  Zr0  1  0.00000000  0.00000000  0.00062105  1
  Zr  Zr1  1  0.33333400  0.66666700  0.37259572  1
  Zr  Zr2  1  0.00000000  0.00000000  0.50081649  1
  Zr  Zr3  1  0.66666600  0.33333400  0.62856552  1
  Zr  Zr4  1  0.66666600  0.33333400  0.87086702  1
  Sc  Sc0  1  0.33333400  0.66666700  0.12646946  1
  Sn  Sn0  1  0.00000000  0.00000000  0.25094203  1
  Sn  Sn1  1  0.00000000  0.00000000  0.75017488  1
  C  C0  1  0.66666600  0.33333400  0.06852810  1
  C  C1  1  0.66666600  0.33333400  0.43062147  1
  C  C2  1  0.33333400  0.66666700  0.57031045  1
  C  C3  1  0.33333400  0.66666700  0.92948682  1
loop_
_geom_bond_atom_site_label_1
_geom_bond_atom_site_label_2
_geom_bond_distance
_geom_bond_site_symmetry_2
Sc0 Sn0 3.168709 1_665
Sc0 Sn0 3.168711 1_565
Sc0 Sn0 3.168711 1_555
Sn0 Zr1 3.124187 1_445
Sn0 Zr1 3.124188 1_545
Sn0 Zr1 3.124188 1_555
Sn1 Zr4 3.109089 1_445
Sn1 Zr4 3.109090 1_555
Sn1 Zr4 3.109093 1_455
Sn1 Zr3 3.123489 1_445
Sn1 Zr3 3.123490 1_555
Sn1 Zr3 3.123493 1_455
C0 Sc0 2.267105 1_555
C0 Sc0 2.267110 1_545
C0 Sc0 2.267113 1_655
C0 Zr0 2.376182 1_665
C0 Zr0 2.376183 1_555
C0 Zr0 2.376187 1_655
C1 Zr1 2.267976 1_555
C1 Zr1 2.267981 1_545
C1 Zr1 2.267984 1_655
C1 Zr2 2.402882 1_665
C1 Zr2 2.402882 1_555
C1 Zr2 2.402886 1_655
C2 Zr3 2.270349 1_555
C2 Zr3 2.270354 1_565
C2 Zr3 2.270357 1_455
C2 Zr2 2.394639 1_665
C2 Zr2 2.394641 1_565
C2 Zr2 2.394641 1_555
C3 Zr4 2.274137 1_555
C3 Zr4 2.274142 1_565
C3 Zr4 2.274145 1_455
C3 Zr0 2.414010 1_666
C3 Zr0 2.414012 1_566
C3 Zr0 2.414012 1_556
