# generated using pymatgen
data_Ca4Zn4OsRu3
_symmetry_space_group_name_H-M   'P 1'
_cell_length_a   5.45028247
_cell_length_b   5.40840808
_cell_length_c   8.60981676
_cell_angle_alpha   90.00000000
_cell_angle_beta   90.00000000
_cell_angle_gamma   119.47438385
_symmetry_Int_Tables_number   1
_chemical_formula_structural   Ca4Zn4OsRu3
_chemical_formula_sum   'Ca4 Zn4 Os1 Ru3'
_cell_volume   220.94742554
_cell_formula_units_Z   1
loop_
 _symmetry_equiv_pos_site_id
 _symmetry_equiv_pos_as_xyz
  1  'x, y, z'
loop_
 _atom_site_type_symbol
 _atom_site_label
 _atom_site_symmetry_multiplicity
 _atom_site_fract_x
 _atom_site_fract_y
 _atom_site_fract_z
 _atom_site_occupancy
  Ca  Ca0  1  0.33533308  0.66244567  0.05844675  1
  Ca  Ca1  1  0.66465424  0.32676315  0.55806335  1
  Ca  Ca2  1  0.66465424  0.32676315  0.94193665  1
  Ca  Ca3  1  0.33533308  0.66244567  0.44155325  1
  Zn  Zn0  1  0.65544467  0.84765066  0.75000000  1
  Zn  Zn1  1  0.34191227  0.18977638  0.25000000  1
  Zn  Zn2  1  0.85270724  0.19113801  0.25000000  1
  Zn  Zn3  1  0.14656714  0.33999561  0.75000000  1
  Os  Os0  1  0.15306378  0.84746638  0.75000000  1
  Ru  Ru0  1  0.00193313  0.95459445  0.99939211  1
  Ru  Ru1  1  0.00193313  0.95459445  0.50060789  1
  Ru  Ru2  1  0.84646401  0.69636641  0.25000000  1
loop_
_geom_bond_atom_site_label_1
_geom_bond_atom_site_label_2
_geom_bond_distance
_geom_bond_site_symmetry_2
Ca0 Ru0 2.980348 1_554
Ca0 Zn1 3.057221 1_555
Ca0 Zn0 3.062699 1_554
Ca0 Zn3 3.063784 1_554
Ca0 Zn2 3.088448 1_455
Ca0 Ru2 3.164085 1_555
Ca0 Os0 3.165288 1_554
Ca0 Ru0 3.210265 1_654
Ca0 Ru2 3.214669 1_455
Ca0 Zn1 3.279428 1_565
Ca0 Zn2 3.303482 1_565
Ca0 Ru0 3.372085 1_544
Ca1 Ru1 3.001882 1_655
Ca1 Zn0 3.052854 1_545
Ca1 Zn2 3.059975 1_555
Ca1 Zn1 3.065240 1_555
Ca1 Zn3 3.074061 1_655
Ca1 Ru2 3.172316 1_555
Ca1 Os0 3.180006 1_545
Ca1 Ru1 3.191914 1_545
Ca1 Os0 3.220352 1_655
Ca1 Zn0 3.287707 1_555
Ca1 Zn3 3.302767 1_555
Ca1 Ru1 3.364021 1_645
Ca2 Ru0 3.001882 1_655
Ca2 Zn0 3.052854 1_545
Ca2 Zn2 3.059975 1_556
Ca2 Zn1 3.065240 1_556
Ca2 Zn3 3.074061 1_655
Ca2 Ru2 3.172316 1_556
Ca2 Os0 3.180006 1_545
Ca2 Ru0 3.191914 1_545
Ca2 Os0 3.220352 1_655
Ca2 Zn0 3.287707 1_555
Ca2 Zn3 3.302767 1_555
Ca2 Ru0 3.364021 1_645
Ca3 Ru1 2.980348 1_555
Ca3 Zn1 3.057221 1_555
Ca3 Zn0 3.062699 1_555
Ca3 Zn3 3.063784 1_555
Ca3 Zn2 3.088448 1_455
Ca3 Ru2 3.164085 1_555
Ca3 Os0 3.165288 1_555
Ca3 Ru1 3.210265 1_655
Ca3 Ru2 3.214669 1_455
Ca3 Zn1 3.279428 1_565
Ca3 Zn2 3.303482 1_565
Ca3 Ru1 3.372085 1_545
Zn0 Zn3 2.690989 1_665
Zn0 Zn3 2.781565 1_555
Zn1 Zn2 2.669937 1_455
Zn1 Zn2 2.780361 1_555
Os0 Ru0 2.468681 1_555
Os0 Ru1 2.468681 1_555
Os0 Zn3 2.681398 1_565
Os0 Zn0 2.712655 1_455
Os0 Zn3 2.727361 1_555
Os0 Zn0 2.737627 1_555
Ru0 Ru2 2.481846 1_456
Ru0 Zn1 2.718027 1_566
Ru0 Zn0 2.726995 1_455
Ru0 Zn3 2.821306 1_565
Ru0 Zn2 2.824484 1_466
Ru1 Ru2 2.481846 1_455
Ru1 Zn1 2.718027 1_565
Ru1 Zn0 2.726995 1_455
Ru1 Zn3 2.821306 1_565
Ru1 Zn2 2.824484 1_465
Ru2 Zn2 2.659349 1_565
Ru2 Zn1 2.705886 1_665
Ru2 Zn2 2.749384 1_555
Ru2 Zn1 2.766690 1_555
