# generated using pymatgen
data_Ca6Al24Ir5Os3
_symmetry_space_group_name_H-M   'P 1'
_cell_length_a   8.80632883
_cell_length_b   8.80297852
_cell_length_c   9.56182455
_cell_angle_alpha   89.99999867
_cell_angle_beta   89.82715113
_cell_angle_gamma   119.98740456
_symmetry_Int_Tables_number   1
_chemical_formula_structural   Ca6Al24Ir5Os3
_chemical_formula_sum   'Ca6 Al24 Ir5 Os3'
_cell_volume   642.01978993
_cell_formula_units_Z   1
loop_
 _symmetry_equiv_pos_site_id
 _symmetry_equiv_pos_as_xyz
  1  'x, y, z'
loop_
 _atom_site_type_symbol
 _atom_site_label
 _atom_site_symmetry_multiplicity
 _atom_site_fract_x
 _atom_site_fract_y
 _atom_site_fract_z
 _atom_site_occupancy
  Ca  Ca0  1  0.19258893  0.38717313  0.25055998  1
  Ca  Ca1  1  0.80741107  0.61282687  0.74944002  1
  Ca  Ca2  1  0.61443980  0.80721940  0.25012962  1
  Ca  Ca3  1  0.38556020  0.19278060  0.74987038  1
  Ca  Ca4  1  0.19258893  0.80541780  0.25055998  1
  Ca  Ca5  1  0.80741107  0.19458220  0.74944002  1
  Al  Al0  1  0.33333094  0.66666597  0.99795767  1
  Al  Al1  1  0.66666906  0.33333403  0.00204233  1
  Al  Al2  1  0.66790808  0.33395404  0.49979927  1
  Al  Al3  1  0.33209192  0.66604596  0.50020073  1
  Al  Al4  1  0.16070933  0.32465099  0.57480204  1
  Al  Al5  1  0.83929067  0.67534901  0.42519796  1
  Al  Al6  1  0.67543344  0.83771622  0.57486209  1
  Al  Al7  1  0.83761069  0.67578786  0.07517146  1
  Al  Al8  1  0.32456656  0.16228378  0.42513791  1
  Al  Al9  1  0.16238931  0.32421214  0.92482854  1
  Al  Al10  1  0.16070933  0.83605934  0.57480204  1
  Al  Al11  1  0.32396531  0.16198216  0.07547645  1
  Al  Al12  1  0.83929067  0.16394066  0.42519796  1
  Al  Al13  1  0.67603469  0.83801784  0.92452355  1
  Al  Al14  1  0.83761069  0.16182284  0.07517146  1
  Al  Al15  1  0.16238931  0.83817716  0.92482854  1
  Al  Al16  1  0.56172818  0.12363633  0.24982884  1
  Al  Al17  1  0.43827182  0.87636367  0.75017116  1
  Al  Al18  1  0.87607870  0.43803935  0.25054675  1
  Al  Al19  1  0.12392130  0.56196065  0.74945325  1
  Al  Al20  1  0.56172818  0.43808984  0.24982884  1
  Al  Al21  1  0.43827182  0.56191016  0.75017116  1
  Al  Al22  1  0.00028381  0.00014241  0.25003241  1
  Al  Al23  1  0.99971619  0.99985759  0.74996759  1
  Ir  Ir0  1  0.50000000  0.00000000  0.00000000  1
  Ir  Ir1  1  0.00000000  0.50000000  0.00000000  1
  Ir  Ir2  1  0.50000000  0.00000000  0.50000000  1
  Ir  Ir3  1  0.50000000  0.50000000  0.00000000  1
  Ir  Ir4  1  0.50000000  0.50000000  0.50000000  1
  Os  Os0  1  0.00000000  0.50000000  0.50000000  1
  Os  Os1  1  0.00000000  0.00000000  0.00000000  1
  Os  Os2  1  0.00000000  0.00000000  0.50000000  1
loop_
_geom_bond_atom_site_label_1
_geom_bond_atom_site_label_2
_geom_bond_distance
_geom_bond_site_symmetry_2
Ca0 Os0 3.348290 1_555
Ca0 Ir1 3.363207 1_555
Ca0 Ir3 3.365741 1_555
Ca0 Ir4 3.369734 1_555
Ca0 Ca4 3.681799 1_555
Ca0 Ca2 3.707034 1_555
Ca1 Os0 3.348290 1_655
Ca1 Ir1 3.363207 1_656
Ca1 Ir3 3.365741 1_556
Ca1 Ir4 3.369734 1_555
Ca1 Ca5 3.681799 1_555
Ca1 Ca3 3.707034 1_555
Ca2 Ir4 3.361401 1_555
Ca2 Ir2 3.361407 1_565
Ca2 Ir3 3.367483 1_555
Ca2 Ir0 3.367488 1_565
Ca2 Ca4 3.707046 1_555
Ca3 Ir4 3.361401 1_555
Ca3 Ir2 3.361407 1_555
Ca3 Ir3 3.367483 1_556
Ca3 Ir0 3.367488 1_556
Ca3 Ca5 3.707046 1_555
Ca4 Os0 3.348300 1_555
Ca4 Ir1 3.363218 1_555
Ca4 Ir0 3.365739 1_565
Ca4 Ir2 3.369732 1_565
Ca5 Os0 3.348300 1_655
Ca5 Ir1 3.363218 1_656
Ca5 Ir0 3.365739 1_556
Ca5 Ir2 3.369732 1_555
Al0 Ir0 2.541638 1_566
Al0 Ir3 2.541645 1_556
Al0 Ir1 2.542479 1_556
Al0 Al15 2.704239 1_555
Al0 Al9 2.704247 1_555
Al0 Al13 2.704266 1_555
Al0 Al21 2.855984 1_555
Al0 Al17 2.855988 1_555
Al0 Al19 2.867719 1_555
Al0 Ca0 3.218246 1_556
Al0 Ca4 3.218251 1_556
Al0 Ca2 3.232243 1_556
Al1 Ir0 2.541638 1_555
Al1 Ir3 2.541645 1_555
Al1 Ir1 2.542479 1_655
Al1 Al14 2.704239 1_555
Al1 Al7 2.704247 1_555
Al1 Al11 2.704266 1_555
Al1 Al20 2.855984 1_555
Al1 Al16 2.855988 1_555
Al1 Al18 2.867719 1_555
Al1 Ca1 3.218246 1_554
Al1 Ca5 3.218251 1_554
Al1 Ca3 3.232243 1_554
Al2 Os0 2.533029 1_655
Al2 Ir4 2.546270 1_555
Al2 Ir2 2.546271 1_555
Al2 Al5 2.697767 1_555
Al2 Al8 2.716788 1_555
Al2 Al20 2.880613 1_555
Al2 Ca1 3.199477 1_555
Al2 Ca5 3.199487 1_555
Al2 Ca3 3.212422 1_555
Al3 Os0 2.533029 1_555
Al3 Ir4 2.546270 1_555
Al3 Ir2 2.546271 1_565
Al3 Al4 2.697767 1_555
Al3 Al6 2.716788 1_555
Al3 Ca0 3.199477 1_555
Al3 Ca4 3.199487 1_555
Al3 Ca2 3.212422 1_555
Al4 Os2 2.577806 1_555
Al4 Os0 2.662156 1_555
Al4 Ir4 2.683018 1_555
Al4 Al8 2.867456 1_555
Al4 Ca0 3.135948 1_555
Al4 Ca5 3.191710 1_455
Al4 Ca3 3.223095 1_555
Al5 Os2 2.577806 1_665
Al5 Os0 2.662156 1_655
Al5 Ir4 2.683018 1_555
Al5 Al6 2.867456 1_555
Al5 Ca1 3.135948 1_555
Al5 Ca4 3.191710 1_655
Al5 Ca2 3.223095 1_555
Al6 Os2 2.574637 1_665
Al6 Ir4 2.674486 1_555
Al6 Ir2 2.674493 1_565
Al6 Ca2 3.141296 1_555
Al6 Ca5 3.219964 1_565
Al6 Ca1 3.219971 1_555
Al7 Os1 2.573155 1_665
Al7 Ir1 2.676232 1_655
Al7 Ir3 2.676665 1_555
Al7 Ca1 3.152177 1_554
Al7 Ca2 3.202015 1_555
Al7 Ca4 3.217545 1_655
Al8 Os2 2.574637 1_555
Al8 Ir4 2.674486 1_555
Al8 Ir2 2.674493 1_555
Al8 Ca3 3.141296 1_555
Al8 Ca4 3.219964 1_545
Al8 Ca0 3.219971 1_555
Al9 Os1 2.573155 1_556
Al9 Ir1 2.676232 1_556
Al9 Ir3 2.676665 1_556
Al9 Ca0 3.152177 1_556
Al9 Ca3 3.202015 1_555
Al9 Ca5 3.217545 1_455
Al10 Os2 2.577798 1_565
Al10 Os0 2.662164 1_555
Al10 Ir2 2.683018 1_565
Al10 Al3 2.697774 1_555
Al10 Al19 2.816230 1_555
Al10 Al17 2.840803 1_555
Al10 Al5 2.842732 1_455
Al10 Al8 2.867456 1_565
Al10 Al23 2.987244 1_455
Al10 Ca4 3.135947 1_555
Al10 Ca1 3.191714 1_455
Al10 Ca3 3.223095 1_565
Al11 Os1 2.576681 1_555
Al11 Ir0 2.675853 1_555
Al11 Ir3 2.675861 1_555
Al11 Al20 2.829290 1_555
Al11 Al16 2.829294 1_555
Al11 Al15 2.860535 1_544
Al11 Al9 2.860541 1_554
Al11 Al22 2.975303 1_555
Al11 Ca3 3.147018 1_554
Al11 Ca4 3.217403 1_545
Al11 Ca0 3.217424 1_555
Al12 Os2 2.577798 1_655
Al12 Os0 2.662164 1_655
Al12 Ir2 2.683018 1_555
Al12 Al2 2.697774 1_555
Al12 Al18 2.816230 1_555
Al12 Al16 2.840803 1_555
Al12 Al4 2.842732 1_655
Al12 Al6 2.867456 1_545
Al12 Al22 2.987244 1_655
Al12 Ca5 3.135947 1_555
Al12 Ca0 3.191714 1_655
Al12 Ca2 3.223095 1_545
Al13 Os1 2.576681 1_666
Al13 Ir0 2.675853 1_566
Al13 Ir3 2.675861 1_556
Al13 Al21 2.829290 1_555
Al13 Al17 2.829294 1_555
Al13 Al14 2.860535 1_566
Al13 Al7 2.860541 1_556
Al13 Al23 2.975303 1_555
Al13 Ca2 3.147018 1_556
Al13 Ca5 3.217403 1_565
Al13 Ca1 3.217424 1_555
Al14 Os1 2.573155 1_655
Al14 Ir1 2.676232 1_655
Al14 Ir0 2.676665 1_555
Al14 Al16 2.822005 1_555
Al14 Al18 2.831809 1_555
Al14 Al9 2.859802 1_654
Al14 Al22 2.987647 1_655
Al14 Ca5 3.152175 1_554
Al14 Ca2 3.202021 1_545
Al14 Ca0 3.217548 1_655
Al15 Os1 2.573155 1_566
Al15 Ir1 2.676232 1_556
Al15 Ir0 2.676665 1_566
Al15 Al17 2.822005 1_555
Al15 Al19 2.831809 1_555
Al15 Al7 2.859802 1_456
Al15 Al23 2.987647 1_455
Al15 Ca4 3.152175 1_556
Al15 Ca3 3.202021 1_565
Al15 Ca1 3.217548 1_455
Al16 Ir2 2.569610 1_555
Al16 Ir0 2.569616 1_555
Al16 Al20 2.768128 1_555
Al16 Al18 2.768535 1_555
Al16 Al8 2.824309 1_555
Al16 Al2 2.880622 1_555
Al16 Ca2 3.044092 1_545
Al16 Ca4 3.051505 1_545
Al17 Ir2 2.569610 1_565
Al17 Ir0 2.569616 1_566
Al17 Al21 2.768128 1_555
Al17 Al19 2.768535 1_555
Al17 Al6 2.824309 1_555
Al17 Al3 2.880622 1_555
Al17 Ca3 3.044092 1_565
Al17 Ca5 3.051505 1_565
Al18 Os0 2.568742 1_655
Al18 Ir1 2.572342 1_655
Al18 Al20 2.768526 1_555
Al18 Al5 2.816223 1_555
Al18 Al7 2.831808 1_555
Al18 Al2 2.859188 1_555
Al18 Ca0 3.035969 1_655
Al18 Ca4 3.035981 1_655
Al19 Os0 2.568742 1_555
Al19 Ir1 2.572342 1_556
Al19 Al21 2.768526 1_555
Al19 Al4 2.816223 1_555
Al19 Al9 2.831808 1_555
Al19 Al3 2.859188 1_555
Al19 Ca1 3.035969 1_455
Al19 Ca5 3.035981 1_455
Al20 Ir4 2.569616 1_555
Al20 Ir3 2.569622 1_555
Al20 Al7 2.822011 1_555
Al20 Al8 2.824296 1_555
Al20 Al5 2.840806 1_555
Al20 Ca2 3.044101 1_555
Al20 Ca0 3.051519 1_555
Al21 Ir4 2.569616 1_555
Al21 Ir3 2.569622 1_556
Al21 Al9 2.822011 1_555
Al21 Al6 2.824296 1_555
Al21 Al4 2.840806 1_555
Al21 Al3 2.880613 1_555
Al21 Ca3 3.044101 1_555
Al21 Ca1 3.051519 1_555
Al22 Os2 2.390140 1_555
Al22 Os1 2.390775 1_555
Al22 Ca2 2.943011 1_445
Al22 Ca4 2.950963 1_545
Al22 Ca0 2.950971 1_555
Al22 Al5 2.987257 1_445
Al22 Al7 2.987654 1_445
Al22 Al8 2.991691 1_555
Al23 Os2 2.390140 1_665
Al23 Os1 2.390775 1_666
Al23 Ca3 2.943011 1_665
Al23 Ca5 2.950963 1_565
Al23 Ca1 2.950971 1_555
Al23 Al4 2.987257 1_665
Al23 Al9 2.987654 1_665
Al23 Al6 2.991691 1_555
