# generated using pymatgen
data_Hf4Re3Tc21Sn
_symmetry_space_group_name_H-M   'P 1'
_cell_length_a   8.34266543
_cell_length_b   8.34266444
_cell_length_c   8.34266466
_cell_angle_alpha   109.35355390
_cell_angle_beta   109.35354818
_cell_angle_gamma   109.35355661
_symmetry_Int_Tables_number   1
_chemical_formula_structural   Hf4Re3Tc21Sn
_chemical_formula_sum   'Hf4 Re3 Tc21 Sn1'
_cell_volume   448.92127984
_cell_formula_units_Z   1
loop_
 _symmetry_equiv_pos_site_id
 _symmetry_equiv_pos_as_xyz
  1  'x, y, z'
loop_
 _atom_site_type_symbol
 _atom_site_label
 _atom_site_symmetry_multiplicity
 _atom_site_fract_x
 _atom_site_fract_y
 _atom_site_fract_z
 _atom_site_occupancy
  Hf  Hf0  1  0.62644698  0.00042891  0.00042891  1
  Hf  Hf1  1  0.00042891  0.62644698  0.00042891  1
  Hf  Hf2  1  0.00042891  0.00042891  0.62644698  1
  Hf  Hf3  1  0.37337492  0.37337492  0.37337492  1
  Re  Re0  1  0.62427888  0.62427888  0.82004859  1
  Re  Re1  1  0.82004859  0.62427888  0.62427888  1
  Re  Re2  1  0.62427888  0.82004859  0.62427888  1
  Tc  Tc0  1  0.39209991  0.67179921  0.99900712  1
  Tc  Tc1  1  0.71557388  0.32403921  0.32403921  1
  Tc  Tc2  1  0.39209991  0.99900712  0.67179921  1
  Tc  Tc3  1  0.67179921  0.39209991  0.99900712  1
  Tc  Tc4  1  0.99900712  0.39209991  0.67179921  1
  Tc  Tc5  1  0.32403921  0.71557388  0.32403921  1
  Tc  Tc6  1  0.32403921  0.32403921  0.71557388  1
  Tc  Tc7  1  0.99900712  0.67179921  0.39209991  1
  Tc  Tc8  1  0.67179921  0.99900712  0.39209991  1
  Tc  Tc9  1  0.60921314  0.60921314  0.28277187  1
  Tc  Tc10  1  0.28277187  0.60921314  0.60921314  1
  Tc  Tc11  1  0.60921314  0.28277187  0.60921314  1
  Tc  Tc12  1  0.37460976  0.19539472  0.99917802  1
  Tc  Tc13  1  0.18307718  0.80800131  0.80800131  1
  Tc  Tc14  1  0.37460976  0.99917802  0.19539472  1
  Tc  Tc15  1  0.19539472  0.37460976  0.99917802  1
  Tc  Tc16  1  0.99917802  0.37460976  0.19539472  1
  Tc  Tc17  1  0.80800131  0.18307718  0.80800131  1
  Tc  Tc18  1  0.80800131  0.80800131  0.18307718  1
  Tc  Tc19  1  0.99917802  0.19539472  0.37460976  1
  Tc  Tc20  1  0.19539472  0.99917802  0.37460976  1
  Sn  Sn0  1  0.00260420  0.00260420  0.00260420  1
loop_
_geom_bond_atom_site_label_1
_geom_bond_atom_site_label_2
_geom_bond_distance
_geom_bond_site_symmetry_2
Hf0 Tc1 2.763774 1_555
Hf0 Tc0 2.783796 1_544
Hf0 Tc2 2.783796 1_544
Hf0 Tc17 2.982691 1_554
Hf0 Tc18 2.982691 1_545
Hf0 Tc16 2.984705 1_555
Hf0 Tc19 2.984705 1_555
Hf0 Re0 2.987796 1_544
Hf0 Re2 2.987796 1_544
Hf0 Tc13 3.042466 1_544
Hf0 Tc14 3.053130 1_545
Hf0 Tc12 3.053130 1_554
Hf0 Sn0 3.126173 1_655
Hf0 Tc3 3.166957 1_554
Hf0 Tc8 3.166957 1_545
Hf0 Tc10 3.171808 1_544
Hf1 Tc5 2.763775 1_555
Hf1 Tc4 2.783796 1_454
Hf1 Tc3 2.783796 1_454
Hf1 Tc13 2.982691 1_554
Hf1 Tc18 2.982691 1_455
Hf1 Tc20 2.984705 1_555
Hf1 Tc14 2.984705 1_555
Hf1 Re1 2.987796 1_454
Hf1 Re0 2.987797 1_454
Hf1 Tc17 3.042465 1_454
Hf1 Tc16 3.053130 1_455
Hf1 Tc15 3.053130 1_554
Hf1 Sn0 3.126173 1_565
Hf1 Tc7 3.166957 1_455
Hf1 Tc0 3.166957 1_554
Hf1 Tc11 3.171808 1_454
Hf2 Tc6 2.763774 1_555
Hf2 Tc7 2.783796 1_445
Hf2 Tc8 2.783796 1_445
Hf2 Tc17 2.982691 1_455
Hf2 Tc13 2.982691 1_545
Hf2 Tc15 2.984705 1_555
Hf2 Tc12 2.984705 1_555
Hf2 Re1 2.987796 1_445
Hf2 Re2 2.987796 1_445
Hf2 Tc18 3.042466 1_445
Hf2 Tc19 3.053130 1_455
Hf2 Tc20 3.053130 1_545
Hf2 Sn0 3.126173 1_556
Hf2 Tc4 3.166957 1_455
Hf2 Tc2 3.166957 1_545
Hf2 Tc9 3.171808 1_445
Hf3 Tc9 2.778353 1_555
Hf3 Tc10 2.778353 1_555
Hf3 Tc11 2.778353 1_555
Hf3 Tc20 2.984902 1_545
Hf3 Tc14 2.984902 1_545
Hf3 Tc12 2.984902 1_554
Hf3 Tc15 2.984902 1_554
Hf3 Tc19 2.984902 1_455
Hf3 Tc16 2.984902 1_455
Hf3 Re2 3.066846 1_555
Hf3 Re0 3.066846 1_555
Hf3 Re1 3.066846 1_555
Hf3 Sn0 3.111138 1_555
Hf3 Tc5 3.151875 1_555
Hf3 Tc6 3.151875 1_555
Hf3 Tc1 3.151875 1_555
Re0 Tc18 2.482049 1_556
Re0 Tc6 2.501071 1_555
Re0 Re2 2.665134 1_555
Re0 Re1 2.665134 1_555
Re0 Tc11 2.742541 1_555
Re0 Tc10 2.742542 1_555
Re0 Tc3 2.858589 1_555
Re0 Tc0 2.858589 1_555
Re0 Sn0 3.044432 1_666
Re1 Tc13 2.482049 1_655
Re1 Tc1 2.501071 1_555
Re1 Re2 2.665134 1_555
Re1 Tc11 2.742541 1_555
Re1 Tc9 2.742542 1_555
Re1 Tc7 2.858589 1_555
Re1 Tc4 2.858589 1_555
Re1 Sn0 3.044432 1_666
Re2 Tc17 2.482049 1_565
Re2 Tc5 2.501071 1_555
Re2 Tc9 2.742542 1_555
Re2 Tc10 2.742542 1_555
Re2 Tc8 2.858589 1_555
Re2 Tc2 2.858589 1_555
Re2 Sn0 3.044433 1_666
Tc0 Tc15 2.479392 1_555
Tc0 Tc13 2.746437 1_555
Tc0 Tc14 2.760773 1_556
Tc0 Tc9 2.786010 1_556
Tc0 Tc6 2.793250 1_555
Tc0 Tc10 2.876217 1_555
Tc0 Tc5 2.882761 1_556
Tc0 Tc18 2.896059 1_556
Tc0 Tc8 2.902443 1_556
Tc0 Tc4 2.902444 1_455
Tc1 Tc14 2.743639 1_545
Tc1 Tc12 2.743640 1_554
Tc1 Tc7 2.793250 1_555
Tc1 Tc4 2.793250 1_555
Tc1 Tc16 2.872175 1_555
Tc1 Tc19 2.872175 1_555
Tc1 Tc11 2.881953 1_555
Tc1 Tc9 2.881953 1_555
Tc1 Tc8 2.882761 1_545
Tc1 Tc3 2.882761 1_554
Tc2 Tc20 2.479393 1_555
Tc2 Tc5 2.793250 1_555
Tc2 Tc6 2.882761 1_565
Tc2 Tc3 2.902443 1_565
Tc2 Tc7 2.902443 1_455
Tc3 Tc9 2.786010 1_556
Tc3 Tc6 2.793250 1_555
Tc3 Tc7 2.902443 1_556
Tc4 Tc6 2.882761 1_655
Tc4 Tc8 2.902443 1_545
Tc5 Tc8 2.793250 1_555
Tc5 Tc9 2.881953 1_555
Tc5 Tc7 2.882761 1_455
Tc7 Tc9 2.876217 1_555
Tc8 Tc9 2.876216 1_555
Tc10 Tc13 2.489579 1_555
Tc10 Tc4 2.786010 1_455
Tc10 Tc7 2.786010 1_455
Tc10 Tc2 2.876216 1_555
Tc10 Tc5 2.881953 1_555
Tc10 Tc6 2.881953 1_555
Tc10 Tc19 2.895805 1_455
Tc10 Tc16 2.895805 1_455
Tc11 Tc17 2.489579 1_555
Tc11 Tc2 2.786010 1_545
Tc11 Tc8 2.786010 1_545
Tc11 Tc3 2.876217 1_555
Tc11 Tc4 2.876217 1_555
Tc11 Tc6 2.881953 1_555
Tc11 Tc14 2.895805 1_545
Tc11 Tc20 2.895805 1_545
Tc12 Tc15 2.439765 1_555
Tc12 Tc3 2.479393 1_555
Tc12 Tc13 2.648355 1_545
Tc12 Tc14 2.671219 1_546
Tc12 Tc2 2.760773 1_545
Tc12 Tc6 2.872175 1_555
Tc12 Tc9 2.895805 1_556
Tc13 Tc14 2.648355 1_556
Tc13 Tc2 2.746437 1_555
Tc13 Tc4 2.896058 1_455
Tc13 Tc7 2.896058 1_455
Tc14 Tc20 2.439765 1_555
Tc14 Tc8 2.479393 1_555
Tc14 Tc5 2.872175 1_555
Tc15 Tc17 2.648355 1_455
Tc15 Tc16 2.671219 1_456
Tc15 Tc5 2.743639 1_556
Tc15 Tc4 2.760774 1_455
Tc15 Tc6 2.872175 1_555
Tc15 Tc9 2.895806 1_556
Tc16 Tc19 2.439765 1_555
Tc16 Tc7 2.479392 1_555
Tc16 Tc17 2.648355 1_554
Tc16 Tc5 2.743639 1_655
Tc16 Tc3 2.760774 1_554
Tc17 Tc4 2.746437 1_555
Tc17 Tc3 2.746437 1_555
Tc17 Tc8 2.896058 1_545
Tc17 Tc2 2.896059 1_545
Tc18 Tc9 2.489579 1_555
Tc18 Tc19 2.648355 1_565
Tc18 Tc20 2.648355 1_655
Tc18 Tc8 2.746437 1_555
Tc18 Tc7 2.746437 1_555
Tc18 Tc3 2.896058 1_554
Tc19 Tc4 2.479393 1_555
Tc19 Tc20 2.671219 1_645
Tc19 Tc6 2.743640 1_655
Tc19 Tc8 2.760773 1_545
Tc20 Tc6 2.743639 1_565
Tc20 Tc7 2.760773 1_455
Tc20 Tc5 2.872175 1_555
Sn0 Tc15 3.000063 1_554
Sn0 Tc16 3.000063 1_455
Sn0 Tc19 3.000063 1_455
Sn0 Tc12 3.000063 1_554
Sn0 Tc20 3.000063 1_545
Sn0 Tc14 3.000064 1_545
Sn0 Tc18 3.005285 1_445
Sn0 Tc13 3.005285 1_544
Sn0 Tc17 3.005285 1_454
