# generated using pymatgen
data_RbLi(NbBr3)3
_symmetry_space_group_name_H-M   'P 1'
_cell_length_a   9.87221017
_cell_length_b   9.91286987
_cell_length_c   9.94193640
_cell_angle_alpha   119.50082253
_cell_angle_beta   105.22162457
_cell_angle_gamma   96.42047992
_symmetry_Int_Tables_number   1
_chemical_formula_structural   RbLi(NbBr3)3
_chemical_formula_sum   'Rb2 Li2 Nb6 Br18'
_cell_volume   782.68675149
_cell_formula_units_Z   2
loop_
 _symmetry_equiv_pos_site_id
 _symmetry_equiv_pos_as_xyz
  1  'x, y, z'
loop_
 _atom_site_type_symbol
 _atom_site_label
 _atom_site_symmetry_multiplicity
 _atom_site_fract_x
 _atom_site_fract_y
 _atom_site_fract_z
 _atom_site_occupancy
  Rb  Rb0  1  0.33360434  0.26647331  0.47730651  1
  Rb  Rb1  1  0.66639566  0.73352669  0.52269349  1
  Li  Li0  1  0.61672236  0.04660391  0.18545877  1
  Li  Li1  1  0.38327764  0.95339609  0.81454123  1
  Nb  Nb0  1  0.13436109  0.56966769  0.23867569  1
  Nb  Nb1  1  0.86563891  0.43033231  0.76132431  1
  Nb  Nb2  1  0.12713155  0.35028784  0.89729829  1
  Nb  Nb3  1  0.86345180  0.30756103  0.97922484  1
  Nb  Nb4  1  0.87286845  0.64971216  0.10270171  1
  Nb  Nb5  1  0.13654820  0.69243897  0.02077516  1
  Br  Br0  1  0.00472209  0.64927470  0.73160204  1
  Br  Br1  1  0.67944354  0.59943341  0.83211256  1
  Br  Br2  1  0.33016594  0.96408679  0.05803025  1
  Br  Br3  1  0.98943225  0.08025870  0.85184847  1
  Br  Br4  1  0.01014311  0.76847536  0.41757850  1
  Br  Br5  1  0.67499850  0.33628585  0.43566668  1
  Br  Br6  1  0.32365703  0.55512421  0.90363756  1
  Br  Br7  1  0.32055646  0.40056659  0.16788744  1
  Br  Br8  1  0.29945170  0.15268090  0.75383999  1
  Br  Br9  1  0.99527791  0.35072530  0.26839796  1
  Br  Br10  1  0.67634297  0.44487579  0.09636244  1
  Br  Br11  1  0.66748230  0.17621176  0.68019976  1
  Br  Br12  1  0.70054830  0.84731910  0.24616001  1
  Br  Br13  1  0.01056775  0.91974130  0.14815153  1
  Br  Br14  1  0.98985689  0.23152464  0.58242150  1
  Br  Br15  1  0.32500150  0.66371415  0.56433332  1
  Br  Br16  1  0.66983406  0.03591321  0.94196975  1
  Br  Br17  1  0.33251770  0.82378824  0.31980024  1
loop_
_geom_bond_atom_site_label_1
_geom_bond_atom_site_label_2
_geom_bond_distance
_geom_bond_site_symmetry_2
Br0 Nb5 2.615588 1_556
Br0 Nb1 2.619394 1_455
Br0 Rb1 3.854428 1_455
Br1 Nb1 2.624992 1_555
Br1 Nb4 2.626966 1_556
Br1 Rb0 3.831799 1_555
Br1 Rb1 3.886397 1_555
Br2 Li1 2.563682 1_554
Br2 Li0 2.618574 1_565
Br2 Nb5 2.921779 1_555
Br2 Rb0 3.736179 1_565
Br3 Nb3 2.621263 1_555
Br3 Nb2 2.624808 1_655
Br3 Rb1 3.699154 1_545
Br4 Nb0 2.604778 1_555
Br4 Nb4 2.609260 1_455
Br4 Rb1 3.831995 1_455
Br5 Li0 2.570750 1_555
Br5 Nb1 2.885979 1_555
Br5 Rb0 3.535887 1_555
Br5 Rb1 3.608315 1_555
Br6 Nb5 2.598428 1_556
Br6 Nb2 2.611477 1_555
Br6 Rb0 3.807785 1_555
Br7 Nb0 2.624992 1_555
Br7 Nb2 2.626966 1_554
Br7 Rb1 3.831799 1_555
Br7 Rb0 3.886397 1_555
Br8 Li1 2.495815 1_545
Br8 Nb2 2.834274 1_555
Br8 Rb0 3.521449 1_555
Br9 Nb3 2.615588 1_554
Br9 Nb0 2.619394 1_655
Br9 Rb0 3.854428 1_655
Br10 Nb3 2.598428 1_554
Br10 Nb4 2.611477 1_555
Br10 Rb1 3.807785 1_555
Br11 Nb3 2.623063 1_555
Br11 Nb1 2.625162 1_555
Br11 Rb0 3.831405 1_555
Br11 Rb1 3.862917 1_545
Br12 Li0 2.495815 1_565
Br12 Nb4 2.834274 1_555
Br12 Rb1 3.521449 1_555
Br13 Nb5 2.621263 1_555
Br13 Nb4 2.624808 1_455
Br13 Rb0 3.699154 1_565
Br14 Nb1 2.604778 1_555
Br14 Nb2 2.609260 1_655
Br14 Rb0 3.831995 1_655
Br15 Li1 2.570750 1_555
Br15 Nb0 2.885979 1_555
Br15 Rb1 3.535887 1_555
Br15 Rb0 3.608315 1_555
Br16 Li0 2.563682 1_556
Br16 Li1 2.618574 1_545
Br16 Nb3 2.921779 1_555
Br16 Rb1 3.736179 1_545
Br17 Nb5 2.623063 1_555
Br17 Nb0 2.625162 1_555
Br17 Rb1 3.831405 1_555
Br17 Rb0 3.862917 1_565
