# generated using pymatgen
data_LuGeF7
_symmetry_space_group_name_H-M   'P 1'
_cell_length_a   5.33001986
_cell_length_b   5.64692490
_cell_length_c   7.74021737
_cell_angle_alpha   102.50482210
_cell_angle_beta   90.00000000
_cell_angle_gamma   90.00000000
_symmetry_Int_Tables_number   1
_chemical_formula_structural   LuGeF7
_chemical_formula_sum   'Lu2 Ge2 F14'
_cell_volume   227.44029211
_cell_formula_units_Z   2
loop_
 _symmetry_equiv_pos_site_id
 _symmetry_equiv_pos_as_xyz
  1  'x, y, z'
loop_
 _atom_site_type_symbol
 _atom_site_label
 _atom_site_symmetry_multiplicity
 _atom_site_fract_x
 _atom_site_fract_y
 _atom_site_fract_z
 _atom_site_occupancy
  Lu  Lu0  1  0.69835383  0.65969962  0.69017823  1
  Lu  Lu1  1  0.19835383  0.34030038  0.30982177  1
  Ge  Ge0  1  0.71024558  0.81146957  0.22417223  1
  Ge  Ge1  1  0.21024558  0.18853043  0.77582777  1
  F  F0  1  0.88516645  0.44527131  0.47776371  1
  F  F1  1  0.38516645  0.55472869  0.52223629  1
  F  F2  1  0.42255289  0.93957065  0.77397756  1
  F  F3  1  0.92255289  0.06042935  0.22602244  1
  F  F4  1  0.95295525  0.97377815  0.76304821  1
  F  F5  1  0.45295525  0.02622185  0.23695179  1
  F  F6  1  0.00264245  0.44375359  0.79319531  1
  F  F7  1  0.50264245  0.55624641  0.20680469  1
  F  F8  1  0.70386260  0.76422436  0.98756952  1
  F  F9  1  0.20386260  0.23577564  0.01243048  1
  F  F10  1  0.71585415  0.87119773  0.46130376  1
  F  F11  1  0.21585415  0.12880227  0.53869624  1
  F  F12  1  0.48472680  0.38240042  0.79095984  1
  F  F13  1  0.98472680  0.61759958  0.20904016  1
loop_
_geom_bond_atom_site_label_1
_geom_bond_atom_site_label_2
_geom_bond_distance
_geom_bond_site_symmetry_2
F0 Lu0 2.073331 1_555
F0 Lu1 2.119905 1_655
F1 Lu1 2.073331 1_555
F1 Lu0 2.119905 1_555
F2 Ge1 1.802344 1_565
F2 Lu0 2.153015 1_555
F3 Ge0 1.802344 1_545
F3 Lu1 2.153015 1_655
F4 Ge1 1.819091 1_665
F4 Lu0 2.207271 1_555
F5 Ge0 1.819091 1_545
F5 Lu1 2.207271 1_555
F6 Ge1 1.798808 1_555
F6 Lu0 2.274715 1_455
F7 Ge0 1.798808 1_555
F7 Lu1 2.274715 1_555
F8 Ge0 1.792936 1_556
F8 Lu0 2.249335 1_555
F9 Ge1 1.792936 1_554
F9 Lu1 2.249335 1_555
F10 Ge0 1.793167 1_555
F10 Lu0 2.343001 1_555
F11 Ge1 1.793167 1_555
F11 Lu1 2.343001 1_555
F12 Ge1 1.815779 1_555
F12 Lu0 2.210424 1_555
F13 Ge0 1.815779 1_555
F13 Lu1 2.210424 1_655
