# generated using pymatgen
data_Zr6Zn16PPd7
_symmetry_space_group_name_H-M   'P 1'
_cell_length_a   8.72113537
_cell_length_b   8.72113530
_cell_length_c   8.72113458
_cell_angle_alpha   59.99999904
_cell_angle_beta   59.99999931
_cell_angle_gamma   59.99999928
_symmetry_Int_Tables_number   1
_chemical_formula_structural   Zr6Zn16PPd7
_chemical_formula_sum   'Zr6 Zn16 P1 Pd7'
_cell_volume   469.03368587
_cell_formula_units_Z   1
loop_
 _symmetry_equiv_pos_site_id
 _symmetry_equiv_pos_as_xyz
  1  'x, y, z'
loop_
 _atom_site_type_symbol
 _atom_site_label
 _atom_site_symmetry_multiplicity
 _atom_site_fract_x
 _atom_site_fract_y
 _atom_site_fract_z
 _atom_site_occupancy
  Zr  Zr0  1  0.70886565  0.29113435  0.29113435  1
  Zr  Zr1  1  0.29113435  0.70886565  0.70886565  1
  Zr  Zr2  1  0.29113435  0.70886565  0.29113435  1
  Zr  Zr3  1  0.70886565  0.29113435  0.70886565  1
  Zr  Zr4  1  0.29113435  0.29113435  0.70886565  1
  Zr  Zr5  1  0.70886565  0.70886565  0.29113435  1
  Zn  Zn0  1  0.12164211  0.12164211  0.12164211  1
  Zn  Zn1  1  0.87835789  0.87835789  0.87835789  1
  Zn  Zn2  1  0.12164211  0.12164211  0.63507368  1
  Zn  Zn3  1  0.12164211  0.63507368  0.12164211  1
  Zn  Zn4  1  0.87835789  0.87835789  0.36492632  1
  Zn  Zn5  1  0.87835789  0.36492632  0.87835789  1
  Zn  Zn6  1  0.63507368  0.12164211  0.12164211  1
  Zn  Zn7  1  0.36492632  0.87835789  0.87835789  1
  Zn  Zn8  1  0.33604934  0.33604934  0.33604934  1
  Zn  Zn9  1  0.66395066  0.66395066  0.66395066  1
  Zn  Zn10  1  0.33604934  0.33604934  0.99185397  1
  Zn  Zn11  1  0.33604934  0.99185397  0.33604934  1
  Zn  Zn12  1  0.66395066  0.66395066  0.00814603  1
  Zn  Zn13  1  0.66395066  0.00814603  0.66395066  1
  Zn  Zn14  1  0.99185397  0.33604934  0.33604934  1
  Zn  Zn15  1  0.00814603  0.66395066  0.66395066  1
  P  P0  1  0.50000000  0.50000000  0.50000000  1
  Pd  Pd0  1  0.50000000  0.00000000  0.00000000  1
  Pd  Pd1  1  0.00000000  0.50000000  0.50000000  1
  Pd  Pd2  1  0.00000000  0.50000000  0.00000000  1
  Pd  Pd3  1  0.50000000  0.00000000  0.50000000  1
  Pd  Pd4  1  0.00000000  0.00000000  0.50000000  1
  Pd  Pd5  1  0.50000000  0.50000000  0.00000000  1
  Pd  Pd6  1  0.00000000  0.00000000  0.00000000  1
loop_
_geom_bond_atom_site_label_1
_geom_bond_atom_site_label_2
_geom_bond_distance
_geom_bond_site_symmetry_2
P0 Zr1 2.576054 1_555
P0 Zr0 2.576054 1_555
P0 Zr3 2.576054 1_555
P0 Zr2 2.576054 1_555
P0 Zr5 2.576054 1_555
P0 Zr4 2.576054 1_555
Pd0 Zn11 2.518248 1_545
Pd0 Zn13 2.518248 1_554
Pd0 Zn10 2.518248 1_554
Pd0 Zn12 2.518248 1_545
Pd0 Zn6 2.695051 1_555
Pd0 Zn7 2.695051 1_544
Pd0 Zn1 2.695051 1_544
Pd0 Zn0 2.695051 1_555
Pd0 Zr5 3.124846 1_545
Pd0 Zr4 3.124846 1_554
Pd0 Zr3 3.124846 1_554
Pd0 Zr2 3.124846 1_545
Pd1 Zn15 2.518233 1_555
Pd1 Zn14 2.518233 1_455
Pd1 Zn8 2.518243 1_555
Pd1 Zn9 2.518243 1_455
Pd1 Zn3 2.695051 1_555
Pd1 Zn5 2.695051 1_455
Pd1 Zn2 2.695051 1_555
Pd1 Zn4 2.695051 1_455
Pd1 Zr4 3.124846 1_555
Pd1 Zr5 3.124846 1_455
Pd1 Zr2 3.124846 1_555
Pd1 Zr3 3.124846 1_455
Pd2 Zn14 2.518248 1_455
Pd2 Zn15 2.518248 1_554
Pd2 Zn10 2.518248 1_554
Pd2 Zn12 2.518248 1_455
Pd2 Zn3 2.695051 1_555
Pd2 Zn5 2.695051 1_454
Pd2 Zn1 2.695051 1_454
Pd2 Zn0 2.695051 1_555
Pd2 Zr5 3.124846 1_455
Pd2 Zr4 3.124846 1_554
Pd2 Zr1 3.124846 1_554
Pd2 Zr0 3.124846 1_455
Pd3 Zn13 2.518233 1_555
Pd3 Zn11 2.518233 1_545
Pd3 Zn8 2.518243 1_555
Pd3 Zn9 2.518243 1_545
Pd3 Zn6 2.695051 1_555
Pd3 Zn7 2.695051 1_545
Pd3 Zn2 2.695051 1_555
Pd3 Zn4 2.695051 1_545
Pd3 Zr4 3.124846 1_555
Pd3 Zr5 3.124846 1_545
Pd3 Zr0 3.124846 1_555
Pd3 Zr1 3.124846 1_545
Pd4 Zn14 2.518248 1_455
Pd4 Zn15 2.518248 1_545
Pd4 Zn11 2.518248 1_545
Pd4 Zn13 2.518248 1_455
Pd4 Zn1 2.695051 1_445
Pd4 Zn0 2.695051 1_555
Pd4 Zn2 2.695051 1_555
Pd4 Zn4 2.695051 1_445
Pd4 Zr1 3.124846 1_545
Pd4 Zr0 3.124846 1_455
Pd4 Zr3 3.124846 1_455
Pd4 Zr2 3.124846 1_545
Pd5 Zn12 2.518233 1_555
Pd5 Zn10 2.518233 1_554
Pd5 Zn9 2.518243 1_554
Pd5 Zn8 2.518243 1_555
Pd5 Zn7 2.695051 1_554
Pd5 Zn6 2.695051 1_555
Pd5 Zn5 2.695051 1_554
Pd5 Zn3 2.695051 1_555
Pd5 Zr2 3.124846 1_555
Pd5 Zr3 3.124846 1_554
Pd5 Zr0 3.124846 1_555
Pd5 Zr1 3.124846 1_554
Pd6 Zn4 2.598559 1_445
Pd6 Zn2 2.598559 1_554
Pd6 Zn0 2.598559 1_555
Pd6 Zn1 2.598559 1_444
Pd6 Zn5 2.598559 1_454
Pd6 Zn3 2.598559 1_545
Pd6 Zn7 2.598559 1_544
Pd6 Zn6 2.598559 1_455
