# generated using pymatgen
data_LiZr2BIr5
_symmetry_space_group_name_H-M   'P 1'
_cell_length_a   5.66442009
_cell_length_b   5.66442025
_cell_length_c   5.76263975
_cell_angle_alpha   59.42471808
_cell_angle_beta   59.42471710
_cell_angle_gamma   61.15054000
_symmetry_Int_Tables_number   1
_chemical_formula_structural   LiZr2BIr5
_chemical_formula_sum   'Li1 Zr2 B1 Ir5'
_cell_volume   130.66264440
_cell_formula_units_Z   1
loop_
 _symmetry_equiv_pos_site_id
 _symmetry_equiv_pos_as_xyz
  1  'x, y, z'
loop_
 _atom_site_type_symbol
 _atom_site_label
 _atom_site_symmetry_multiplicity
 _atom_site_fract_x
 _atom_site_fract_y
 _atom_site_fract_z
 _atom_site_occupancy
  Li  Li0  1  0.72415352  0.72415352  0.27584648  1
  Zr  Zr0  1  0.75031103  0.75031103  0.74968897  1
  Zr  Zr1  1  0.25031103  0.25031103  0.24968897  1
  B  B0  1  0.00036251  0.00036251  0.99963749  1
  Ir  Ir0  1  0.25717241  0.74742152  0.25257848  1
  Ir  Ir1  1  0.74742152  0.25717241  0.25257848  1
  Ir  Ir2  1  0.26567406  0.26567406  0.73432594  1
  Ir  Ir3  1  0.74742152  0.25717241  0.74282759  1
  Ir  Ir4  1  0.25717241  0.74742152  0.74282759  1
loop_
_geom_bond_atom_site_label_1
_geom_bond_atom_site_label_2
_geom_bond_distance
_geom_bond_site_symmetry_2
Li0 Zr1 2.888663 1_655
Li0 Zr1 2.888663 1_565
Li0 Zr0 2.888663 1_554
Li0 Zr0 2.888663 1_555
B0 Ir4 2.077190 1_545
B0 Ir3 2.077190 1_455
B0 Ir0 2.077190 1_546
B0 Ir1 2.077190 1_456
B0 Ir2 2.087828 1_555
B0 Li0 2.173583 1_446
Ir0 Li0 2.653059 1_555
Ir0 Zr0 2.821656 1_554
Ir0 Zr1 2.821657 1_565
Ir0 Zr0 2.843365 1_455
Ir0 Zr1 2.843366 1_555
Ir1 Li0 2.653059 1_555
Ir1 Zr0 2.821656 1_554
Ir1 Zr1 2.821657 1_655
Ir1 Zr0 2.843365 1_545
Ir1 Zr1 2.843366 1_555
Ir2 Zr0 2.883855 1_455
Ir2 Zr0 2.883855 1_545
Ir2 Zr1 2.883855 1_556
Ir2 Zr1 2.883855 1_555
Ir3 Li0 2.653059 1_555
Ir3 Zr1 2.821656 1_655
Ir3 Zr0 2.821657 1_555
Ir3 Zr1 2.843365 1_556
Ir3 Zr0 2.843366 1_545
Ir4 Li0 2.653059 1_555
Ir4 Zr1 2.821656 1_565
Ir4 Zr0 2.821657 1_555
Ir4 Zr1 2.843365 1_556
Ir4 Zr0 2.843366 1_455
