# generated using pymatgen
data_Na3AgO2
_symmetry_space_group_name_H-M   'P 1'
_cell_length_a   5.42130979
_cell_length_b   5.86537206
_cell_length_c   6.72426420
_cell_angle_alpha   115.85753028
_cell_angle_beta   113.77308845
_cell_angle_gamma   89.99999597
_symmetry_Int_Tables_number   1
_chemical_formula_structural   Na3AgO2
_chemical_formula_sum   'Na6 Ag2 O4'
_cell_volume   172.02520760
_cell_formula_units_Z   2
loop_
 _symmetry_equiv_pos_site_id
 _symmetry_equiv_pos_as_xyz
  1  'x, y, z'
loop_
 _atom_site_type_symbol
 _atom_site_label
 _atom_site_symmetry_multiplicity
 _atom_site_fract_x
 _atom_site_fract_y
 _atom_site_fract_z
 _atom_site_occupancy
  Na  Na0  1  0.76045912  0.01045912  0.52091924  1
  Na  Na1  1  0.50000000  0.25000000  -0.00000000  1
  Na  Na2  1  0.76045912  0.51045912  0.52091924  1
  Na  Na3  1  0.23954088  0.98954088  0.47908076  1
  Na  Na4  1  0.50000000  0.75000000  -0.00000000  1
  Na  Na5  1  0.23954088  0.48954088  0.47908076  1
  Ag  Ag0  1  0.00000000  0.50000000  -0.00000000  1
  Ag  Ag1  1  0.00000000  -0.00000000  -0.00000000  1
  O  O0  1  0.13902757  0.36436403  0.72872605  1
  O  O1  1  0.41030152  0.13563597  0.27127395  1
  O  O2  1  0.86097243  0.63563597  0.27127395  1
  O  O3  1  0.58969848  0.86436403  0.72872605  1
loop_
_geom_bond_atom_site_label_1
_geom_bond_atom_site_label_2
_geom_bond_distance
_geom_bond_site_symmetry_2
Na0 O1 2.338057 1_555
Na0 O2 2.338064 1_545
Na0 O3 2.373025 1_545
Na0 O0 2.373039 1_655
Na1 O3 2.407542 1_544
Na1 O2 2.407543 1_555
Na1 O0 2.407550 1_554
Na1 O1 2.407550 1_555
Na2 O2 2.338060 1_555
Na2 O1 2.338061 1_555
Na2 O0 2.373028 1_655
Na2 O3 2.373036 1_555
Na3 O3 2.338057 1_555
Na3 O0 2.338064 1_565
Na3 O1 2.373025 1_565
Na3 O2 2.373039 1_455
Na4 O1 2.407542 1_565
Na4 O0 2.407543 1_554
Na4 O2 2.407550 1_555
Na4 O3 2.407550 1_554
Na5 O0 2.338060 1_555
Na5 O3 2.338061 1_555
Na5 O2 2.373028 1_455
Na5 O1 2.373036 1_555
Ag0 O2 2.090699 1_455
Ag0 O0 2.090699 1_554
Ag1 O3 2.090699 1_444
Ag1 O1 2.090699 1_555
