# generated using pymatgen
data_YbOF
_symmetry_space_group_name_H-M   'P 1'
_cell_length_a   3.73940494
_cell_length_b   3.73940494
_cell_length_c   5.31778284
_cell_angle_alpha   90.17519307
_cell_angle_beta   90.17519307
_cell_angle_gamma   89.99436885
_symmetry_Int_Tables_number   1
_chemical_formula_structural   YbOF
_chemical_formula_sum   'Yb2 O2 F2'
_cell_volume   74.35865604
_cell_formula_units_Z   2
loop_
 _symmetry_equiv_pos_site_id
 _symmetry_equiv_pos_as_xyz
  1  'x, y, z'
loop_
 _atom_site_type_symbol
 _atom_site_label
 _atom_site_symmetry_multiplicity
 _atom_site_fract_x
 _atom_site_fract_y
 _atom_site_fract_z
 _atom_site_occupancy
  Yb  Yb0  1  0.75091007  0.75091007  0.71027324  1
  Yb  Yb1  1  0.24908993  0.24908993  0.28972676  1
  O  O0  1  0.24984314  0.75015686  0.50000000  1
  O  O1  1  0.75015686  0.24984314  0.50000000  1
  F  F0  1  0.24995921  0.75004079  0.00000000  1
  F  F1  1  0.75004079  0.24995921  0.00000000  1
loop_
_geom_bond_atom_site_label_1
_geom_bond_atom_site_label_2
_geom_bond_distance
_geom_bond_site_symmetry_2
O0 Yb1 2.178066 1_565
O0 Yb0 2.178066 1_455
O0 Yb0 2.179046 1_555
O0 Yb1 2.179046 1_555
O1 Yb1 2.178066 1_655
O1 Yb0 2.178066 1_545
O1 Yb0 2.179046 1_555
O1 Yb1 2.179046 1_555
F0 Yb1 2.416346 1_565
F0 Yb0 2.416346 1_454
F0 Yb1 2.429106 1_555
F0 Yb0 2.429106 1_554
F1 Yb1 2.416346 1_655
F1 Yb0 2.416346 1_544
F1 Yb1 2.429106 1_555
F1 Yb0 2.429106 1_554
