# generated using pymatgen
data_HoAl2
_symmetry_space_group_name_H-M   'P 1'
_cell_length_a   5.51752019
_cell_length_b   5.51752072
_cell_length_c   5.51752099
_cell_angle_alpha   60.00001042
_cell_angle_beta   60.00000726
_cell_angle_gamma   60.00000105
_symmetry_Int_Tables_number   1
_chemical_formula_structural   HoAl2
_chemical_formula_sum   'Ho2 Al4'
_cell_volume   118.77279083
_cell_formula_units_Z   2
loop_
 _symmetry_equiv_pos_site_id
 _symmetry_equiv_pos_as_xyz
  1  'x, y, z'
loop_
 _atom_site_type_symbol
 _atom_site_label
 _atom_site_symmetry_multiplicity
 _atom_site_fract_x
 _atom_site_fract_y
 _atom_site_fract_z
 _atom_site_occupancy
  Ho  Ho0  1  0.87500000  0.87500000  0.87500000  1
  Ho  Ho1  1  0.12500000  0.12500000  0.12500000  1
  Al  Al0  1  0.50000000  0.50000000  0.50000000  1
  Al  Al1  1  0.50000000  0.50000000  0.00000000  1
  Al  Al2  1  -0.00000000  0.50000000  0.50000000  1
  Al  Al3  1  0.50000000  -0.00000000  0.50000000  1
loop_
_geom_bond_atom_site_label_1
_geom_bond_atom_site_label_2
_geom_bond_distance
_geom_bond_site_symmetry_2
Ho0 Ho1 3.378777 1_666
Ho0 Ho1 3.378777 1_566
Ho0 Ho1 3.378778 1_656
Ho0 Ho1 3.378778 1_665
Al0 Al2 2.758760 1_555
Al0 Al2 2.758760 1_655
Al0 Al3 2.758760 1_555
Al0 Al3 2.758760 1_565
Al0 Al1 2.758760 1_555
Al0 Al1 2.758760 1_556
Al0 Ho0 3.234933 1_455
Al0 Ho1 3.234933 1_655
Al0 Ho1 3.234933 1_565
Al0 Ho0 3.234933 1_545
Al0 Ho0 3.234934 1_554
Al0 Ho1 3.234934 1_556
Al1 Al2 2.758761 1_555
Al1 Al2 2.758761 1_654
Al1 Al3 2.758761 1_555
Al1 Al3 2.758761 1_564
Al1 Ho0 3.234933 1_454
Al1 Ho1 3.234933 1_655
Al1 Ho1 3.234933 1_555
Al1 Ho0 3.234933 1_554
Al1 Ho0 3.234933 1_544
Al1 Ho1 3.234933 1_565
Al2 Al3 2.758760 1_555
Al2 Al3 2.758760 1_465
Al2 Ho0 3.234933 1_455
Al2 Ho1 3.234933 1_555
Al2 Ho0 3.234934 1_445
Al2 Ho1 3.234934 1_565
Al2 Ho0 3.234934 1_454
Al2 Ho1 3.234934 1_556
Al3 Ho1 3.234933 1_555
Al3 Ho0 3.234933 1_545
Al3 Ho0 3.234933 1_445
Al3 Ho1 3.234933 1_655
Al3 Ho1 3.234934 1_556
Al3 Ho0 3.234934 1_544
