# generated using pymatgen
data_Y8Ge(Pd7Pt)3
_symmetry_space_group_name_H-M   'P 1'
_cell_length_a   8.30628204
_cell_length_b   8.29554464
_cell_length_c   8.28997120
_cell_angle_alpha   90.00000000
_cell_angle_beta   90.00000000
_cell_angle_gamma   90.00000000
_symmetry_Int_Tables_number   1
_chemical_formula_structural   Y8Ge(Pd7Pt)3
_chemical_formula_sum   'Y8 Ge1 Pd21 Pt3'
_cell_volume   571.22157140
_cell_formula_units_Z   1
loop_
 _symmetry_equiv_pos_site_id
 _symmetry_equiv_pos_as_xyz
  1  'x, y, z'
loop_
 _atom_site_type_symbol
 _atom_site_label
 _atom_site_symmetry_multiplicity
 _atom_site_fract_x
 _atom_site_fract_y
 _atom_site_fract_z
 _atom_site_occupancy
  Y  Y0  1  0.25345669  0.25355848  0.25383889  1
  Y  Y1  1  0.74683621  0.74638681  0.74632623  1
  Y  Y2  1  0.74683621  0.74638681  0.25367377  1
  Y  Y3  1  0.74654331  0.25355848  0.74616111  1
  Y  Y4  1  0.25345669  0.25355848  0.74616111  1
  Y  Y5  1  0.25316379  0.74638681  0.25367377  1
  Y  Y6  1  0.25316379  0.74638681  0.74632623  1
  Y  Y7  1  0.74654331  0.25355848  0.25383889  1
  Ge  Ge0  1  0.00000000  0.00016519  0.00000000  1
  Pd  Pd0  1  0.25999901  0.50011300  0.00000000  1
  Pd  Pd1  1  0.74000099  0.50011300  0.00000000  1
  Pd  Pd2  1  0.00000000  0.25988863  0.50000000  1
  Pd  Pd3  1  0.50000000  0.25979917  0.00000000  1
  Pd  Pd4  1  0.00000000  0.73986507  0.50000000  1
  Pd  Pd5  1  0.50000000  0.74023641  0.00000000  1
  Pd  Pd6  1  0.50000000  0.99985839  0.25974724  1
  Pd  Pd7  1  0.26012107  0.99993557  0.50000000  1
  Pd  Pd8  1  0.50000000  0.99985839  0.74025276  1
  Pd  Pd9  1  0.73987893  0.99993557  0.50000000  1
  Pd  Pd10  1  0.00000000  0.50009825  0.25981712  1
  Pd  Pd11  1  0.00000000  0.50009825  0.74018288  1
  Pd  Pd12  1  0.50000000  0.74705886  0.50000000  1
  Pd  Pd13  1  0.50000000  0.50027706  0.25264541  1
  Pd  Pd14  1  0.50000000  0.50027706  0.74735459  1
  Pd  Pd15  1  0.28944124  0.99986029  0.00000000  1
  Pd  Pd16  1  0.71055876  0.99986029  0.00000000  1
  Pd  Pd17  1  0.00000000  0.28964253  0.00000000  1
  Pd  Pd18  1  0.00000000  0.71067998  0.00000000  1
  Pd  Pd19  1  0.00000000  0.99984606  0.28949110  1
  Pd  Pd20  1  0.00000000  0.99984606  0.71050890  1
  Pt  Pt0  1  0.25280690  0.50008989  0.50000000  1
  Pt  Pt1  1  0.74719310  0.50008989  0.50000000  1
  Pt  Pt2  1  0.50000000  0.25272702  0.50000000  1
loop_
_geom_bond_atom_site_label_1
_geom_bond_atom_site_label_2
_geom_bond_distance
_geom_bond_site_symmetry_2
Ge0 Pd19 2.399874 1_545
Ge0 Pd20 2.399874 1_544
Ge0 Pd17 2.401372 1_555
Ge0 Pd18 2.401437 1_545
Ge0 Pd15 2.404182 1_545
Ge0 Pd16 2.404182 1_445
Pd0 Pd13 2.891490 1_555
Pd0 Pd14 2.891490 1_554
Pd0 Y5 2.932467 1_555
Pd0 Y6 2.932467 1_554
Pd0 Y0 2.935025 1_555
Pd0 Y4 2.935025 1_554
Pd0 Pd11 3.050109 1_554
Pd0 Pd10 3.050109 1_555
Pd1 Pd13 2.891490 1_555
Pd1 Pd14 2.891490 1_554
Pd1 Y2 2.932467 1_555
Pd1 Y1 2.932467 1_554
Pd1 Y7 2.935025 1_555
Pd1 Y3 2.935025 1_554
Pd1 Pd11 3.050109 1_654
Pd1 Pd10 3.050109 1_655
Pd2 Pd20 2.774691 1_545
Pd2 Pt0 2.894819 1_555
Pd2 Pt1 2.894819 1_455
Pd2 Y4 2.932456 1_555
Pd2 Y0 2.932456 1_555
Pd2 Y3 2.932456 1_455
Pd2 Y7 2.932456 1_455
Pd2 Pd7 3.052646 1_545
Pd2 Pd9 3.052646 1_445
Pd3 Y7 2.936759 1_555
Pd3 Y3 2.936759 1_554
Pd3 Y0 2.936759 1_555
Pd3 Y4 2.936759 1_554
Pd3 Pd6 3.047382 1_545
Pd3 Pd8 3.047382 1_544
Pd4 Pt0 2.892387 1_555
Pd4 Pt1 2.892387 1_455
Pd4 Y6 2.931692 1_555
Pd4 Y5 2.931692 1_555
Pd4 Y1 2.931692 1_455
Pd4 Y2 2.931692 1_455
Pd4 Pd7 3.053334 1_555
Pd4 Pd9 3.053334 1_455
Pd5 Y2 2.937463 1_555
Pd5 Y5 2.937463 1_555
Pd5 Y1 2.937463 1_554
Pd5 Y6 2.937463 1_554
Pd5 Pd6 3.045511 1_555
Pd5 Pd8 3.045511 1_554
Pd6 Pd9 2.817248 1_555
Pd6 Pd7 2.817248 1_555
Pd6 Pt2 2.892593 1_565
Pd6 Y7 2.936900 1_565
Pd6 Y0 2.936900 1_565
Pd6 Y2 2.937263 1_555
Pd6 Y5 2.937263 1_555
Pd7 Pd8 2.817248 1_555
Pd7 Pt2 2.892690 1_565
Pd7 Y4 2.931545 1_565
Pd7 Y0 2.931545 1_565
Pd7 Y6 2.932104 1_555
Pd7 Y5 2.932104 1_555
Pd8 Pd9 2.817248 1_555
Pd8 Pt2 2.892593 1_565
Pd8 Y3 2.936900 1_565
Pd8 Y4 2.936900 1_565
Pd8 Y1 2.937263 1_555
Pd8 Y6 2.937263 1_555
Pd9 Pt2 2.892690 1_565
Pd9 Y3 2.931545 1_565
Pd9 Y7 2.931545 1_565
Pd9 Y1 2.932104 1_555
Pd9 Y2 2.932104 1_555
Pd10 Pd17 2.772572 1_555
Pd10 Pd18 2.773231 1_555
Pd10 Pd4 2.814360 1_555
Pd10 Pd2 2.816957 1_555
Pd10 Pt0 2.893792 1_555
Pd10 Pt1 2.893792 1_455
Pd10 Y5 2.932374 1_555
Pd10 Y2 2.932374 1_455
Pd10 Y0 2.935548 1_555
Pd10 Y7 2.935548 1_455
Pd11 Pd17 2.772572 1_556
Pd11 Pd18 2.773231 1_556
Pd11 Pd4 2.814360 1_555
Pd11 Pd2 2.816957 1_555
Pd11 Pt0 2.893792 1_555
Pd11 Pt1 2.893792 1_455
Pd11 Y6 2.932374 1_555
Pd11 Y1 2.932374 1_455
Pd11 Y4 2.935548 1_555
Pd11 Y3 2.935548 1_455
Pd12 Pd8 2.892178 1_555
Pd12 Pd6 2.892178 1_555
Pd12 Pd9 2.893202 1_555
Pd12 Pd7 2.893202 1_555
Pd12 Y1 2.893724 1_555
Pd12 Y6 2.893724 1_555
Pd12 Y2 2.893724 1_555
Pd12 Y5 2.893724 1_555
Pd12 Pd14 2.897549 1_555
Pd12 Pd13 2.897549 1_555
Pd12 Pt1 2.900552 1_555
Pd12 Pt0 2.900552 1_555
Pd13 Pd5 2.889476 1_555
Pd13 Pd3 2.892441 1_555
Pd13 Y2 2.893433 1_555
Pd13 Y5 2.893433 1_555
Pd13 Y7 2.895282 1_555
Pd13 Y0 2.895282 1_555
Pd13 Pt1 2.901839 1_555
Pd13 Pt0 2.901839 1_555
Pd13 Pt2 2.902055 1_555
Pd14 Pd5 2.889476 1_556
Pd14 Pd3 2.892441 1_556
Pd14 Y1 2.893433 1_555
Pd14 Y6 2.893433 1_555
Pd14 Y3 2.895282 1_555
Pd14 Y4 2.895282 1_555
Pd14 Pt1 2.901839 1_555
Pd14 Pt0 2.901839 1_555
Pd14 Pt2 2.902055 1_555
Pd15 Pd6 2.774086 1_555
Pd15 Pd8 2.774086 1_554
Pd15 Y5 2.989070 1_555
Pd15 Y6 2.989070 1_554
Pd15 Y0 2.991101 1_565
Pd15 Y4 2.991101 1_564
Pd16 Pd6 2.774086 1_555
Pd16 Pd8 2.774086 1_554
Pd16 Y2 2.989070 1_555
Pd16 Y1 2.989070 1_554
Pd16 Y7 2.991101 1_565
Pd16 Y3 2.991101 1_564
Pd17 Y0 2.991650 1_555
Pd17 Y7 2.991650 1_455
Pd17 Y4 2.991650 1_554
Pd17 Y3 2.991650 1_454
Pd18 Y5 2.988663 1_555
Pd18 Y2 2.988663 1_455
Pd18 Y6 2.988663 1_554
Pd18 Y1 2.988663 1_454
Pd19 Pd4 2.774293 1_555
Pd19 Pd2 2.774691 1_565
Pd19 Pd7 2.777369 1_555
Pd19 Pd9 2.777369 1_455
Pd19 Y5 2.988477 1_555
Pd19 Y2 2.988477 1_455
Pd19 Y0 2.991531 1_565
Pd19 Y7 2.991531 1_465
Pd20 Pd4 2.774293 1_555
Pd20 Pd7 2.777369 1_555
Pd20 Pd9 2.777369 1_455
Pd20 Y6 2.988477 1_555
Pd20 Y1 2.988477 1_455
Pd20 Y4 2.991531 1_565
Pd20 Y3 2.991531 1_465
Pt0 Y6 2.888677 1_555
Pt0 Y5 2.888677 1_555
Pt0 Y4 2.889090 1_555
Pt0 Y0 2.889090 1_555
Pt0 Pt2 2.902861 1_555
Pt1 Y1 2.888677 1_555
Pt1 Y2 2.888677 1_555
Pt1 Y3 2.889090 1_555
Pt1 Y7 2.889090 1_555
Pt1 Pt2 2.902861 1_555
Pt2 Y3 2.891038 1_555
Pt2 Y4 2.891038 1_555
Pt2 Y7 2.891038 1_555
Pt2 Y0 2.891038 1_555
