# generated using pymatgen
data_Ba5Hg2(Sb2O)2
_symmetry_space_group_name_H-M   'P 1'
_cell_length_a   5.05973068
_cell_length_b   8.99473750
_cell_length_c   9.36166917
_cell_angle_alpha   85.06679140
_cell_angle_beta   74.32166679
_cell_angle_gamma   73.66454453
_symmetry_Int_Tables_number   1
_chemical_formula_structural   Ba5Hg2(Sb2O)2
_chemical_formula_sum   'Ba5 Hg2 Sb4 O2'
_cell_volume   393.62407113
_cell_formula_units_Z   1
loop_
 _symmetry_equiv_pos_site_id
 _symmetry_equiv_pos_as_xyz
  1  'x, y, z'
loop_
 _atom_site_type_symbol
 _atom_site_label
 _atom_site_symmetry_multiplicity
 _atom_site_fract_x
 _atom_site_fract_y
 _atom_site_fract_z
 _atom_site_occupancy
  Ba  Ba0  1  0.96782640  0.35573615  0.70861004  1
  Ba  Ba1  1  0.03217360  0.64426385  0.29138996  1
  Ba  Ba2  1  0.69822059  0.95503403  0.64852379  1
  Ba  Ba3  1  0.30177941  0.04496597  0.35147621  1
  Ba  Ba4  1  0.00000000  0.00000000  0.00000000  1
  Hg  Hg0  1  0.73968275  0.39366827  0.12696523  1
  Hg  Hg1  1  0.26031725  0.60633173  0.87303477  1
  Sb  Sb0  1  0.63467245  0.71759098  0.01306311  1
  Sb  Sb1  1  0.36532755  0.28240902  0.98693689  1
  Sb  Sb2  1  0.60683132  0.34868288  0.43765547  1
  Sb  Sb3  1  0.39316868  0.65131712  0.56234453  1
  O  O0  1  0.87148478  0.94317176  0.31385767  1
  O  O1  1  0.12851522  0.05682824  0.68614233  1
loop_
_geom_bond_atom_site_label_1
_geom_bond_atom_site_label_2
_geom_bond_distance
_geom_bond_site_symmetry_2
Ba0 O1 2.590180 1_655
Ba0 Sb2 3.517315 1_555
Ba0 Sb2 3.517323 1_655
Ba0 Sb1 3.613841 1_555
Ba0 Sb1 3.613847 1_655
Ba0 Hg1 3.653035 1_555
Ba0 Hg1 3.653041 1_655
Ba0 Hg0 3.788498 1_556
Ba0 Sb3 3.817708 1_555
Ba0 Sb3 3.817709 1_655
Ba1 O0 2.590180 1_455
Ba1 Sb3 3.517315 1_555
Ba1 Sb3 3.517323 1_455
Ba1 Sb0 3.613841 1_555
Ba1 Sb0 3.613847 1_455
Ba1 Hg0 3.653035 1_555
Ba1 Hg0 3.653041 1_455
Ba1 Hg1 3.788498 1_554
Ba1 Sb2 3.817708 1_555
Ba1 Sb2 3.817709 1_455
Ba2 O1 2.700672 1_565
Ba2 O1 2.700681 1_665
Ba2 O0 3.019309 1_555
Ba2 Sb3 3.730985 1_555
Ba2 Sb3 3.730985 1_655
Ba2 Sb0 3.853690 1_556
Ba2 Sb2 3.875312 1_565
Ba3 O0 2.700672 1_545
Ba3 O0 2.700681 1_445
Ba3 O1 3.019309 1_555
Ba3 Sb2 3.730985 1_555
Ba3 Sb2 3.730985 1_455
Ba3 Sb1 3.853690 1_554
Ba3 Sb3 3.875312 1_545
Ba4 O1 2.865895 1_554
Ba4 O0 2.865895 1_445
Ba4 Sb0 3.514258 1_545
Ba4 Sb1 3.514258 1_454
Ba4 Sb1 3.514261 1_554
Ba4 Sb0 3.514261 1_445
Ba4 Hg0 3.597233 1_455
Ba4 Hg1 3.597233 1_544
Hg0 Sb2 2.822994 1_555
Hg0 Sb0 2.968071 1_555
Hg0 Sb1 2.990256 1_554
Hg0 Sb1 2.990265 1_654
Hg1 Sb3 2.822994 1_555
Hg1 Sb1 2.968071 1_555
Hg1 Sb0 2.990256 1_556
Hg1 Sb0 2.990265 1_456
Sb2 Sb3 2.854870 1_555
