# generated using pymatgen
data_K3Rb3(YBi2)2
_symmetry_space_group_name_H-M   'P 1'
_cell_length_a   10.31138979
_cell_length_b   10.31139052
_cell_length_c   10.20721437
_cell_angle_alpha   131.64019847
_cell_angle_beta   67.70433556
_cell_angle_gamma   135.87442514
_symmetry_Int_Tables_number   1
_chemical_formula_structural   K3Rb3(YBi2)2
_chemical_formula_sum   'K3 Rb3 Y2 Bi4'
_cell_volume   554.67345215
_cell_formula_units_Z   1
loop_
 _symmetry_equiv_pos_site_id
 _symmetry_equiv_pos_as_xyz
  1  'x, y, z'
loop_
 _atom_site_type_symbol
 _atom_site_label
 _atom_site_symmetry_multiplicity
 _atom_site_fract_x
 _atom_site_fract_y
 _atom_site_fract_z
 _atom_site_occupancy
  K  K0  1  0.24966673  0.24950303  0.99689728  1
  K  K1  1  0.74739424  0.74723055  0.99689728  1
  K  K2  1  0.31433574  0.78565150  0.09998624  1
  Rb  Rb0  1  0.18350955  0.27027968  0.45379023  1
  Rb  Rb1  1  0.81787298  0.72868889  0.54656187  1
  Rb  Rb2  1  0.68278992  0.23422070  0.91701062  1
  Y  Y0  1  0.75113823  0.24744907  0.49830591  1
  Y  Y1  1  0.25085684  0.74716668  0.49830491  1
  Bi  Bi0  1  0.89884165  0.29172727  0.19056691  1
  Bi  Bi1  1  0.60153195  0.79528816  0.39682011  1
  Bi  Bi2  1  0.39917126  0.19648879  0.59566004  1
  Bi  Bi3  1  0.10289091  0.70630368  0.80919660  1
loop_
_geom_bond_atom_site_label_1
_geom_bond_atom_site_label_2
_geom_bond_distance
_geom_bond_site_symmetry_2
K0 K1 3.855586 1_555
K0 K1 3.890793 1_445
K0 Y1 4.193201 1_556
K0 Y1 4.212263 1_545
K0 Rb1 4.265082 1_445
K0 Rb2 4.325755 1_555
K0 Rb0 4.327656 1_556
K0 K2 4.429990 1_556
K1 Y0 4.193209 1_566
K1 Y0 4.212255 1_555
K1 Rb1 4.265083 1_555
K1 Rb2 4.325755 1_555
K1 Rb0 4.327652 1_666
K1 K2 4.429986 1_556
K2 Y0 4.107055 1_565
K2 Y1 4.107056 1_555
K2 Rb2 4.492680 1_564
K2 Rb2 4.492686 1_454
K2 Rb0 4.672555 1_565
K2 Rb0 4.842025 1_554
Rb0 Y1 4.151748 1_555
Rb0 Y0 4.151748 1_455
Rb0 Rb1 4.515516 1_445
Rb0 Rb1 4.515522 1_555
Rb1 Y0 4.176955 1_555
Rb1 Y1 4.176959 1_655
Rb1 Rb2 4.720749 1_554
Rb1 Rb2 4.862567 1_565
Rb2 Y0 4.139079 1_555
Rb2 Y1 4.139082 1_545
Bi0 Y1 3.110047 1_655
Bi0 Y0 3.110062 1_555
Bi0 K0 3.588168 1_654
Bi0 K1 3.588176 1_544
Bi0 Rb2 3.706011 1_554
Bi0 Rb1 3.942518 1_555
Bi0 K2 4.132261 1_655
Bi0 K2 4.132268 1_545
Bi1 Y1 3.107961 1_555
Bi1 Y0 3.107965 1_565
Bi1 K0 3.590886 1_554
Bi1 K1 3.590887 1_554
Bi1 Rb1 3.737031 1_555
Bi1 Rb2 3.921133 1_565
Bi1 Rb0 4.123825 1_665
Bi1 Rb0 4.123833 1_555
Bi2 Y0 3.107210 1_555
Bi2 Y1 3.107214 1_545
Bi2 K1 3.590632 1_555
Bi2 K0 3.590633 1_555
Bi2 K2 3.723540 1_545
Bi2 Rb0 3.736026 1_555
Bi2 Rb1 4.123740 1_445
Bi2 Rb1 4.123740 1_555
Bi3 Y0 3.123396 1_455
Bi3 Y1 3.123411 1_555
Bi3 K1 3.619858 1_455
Bi3 K0 3.619866 1_565
Bi3 K2 3.654467 1_556
Bi3 Rb0 3.932965 1_555
Bi3 Rb2 4.111047 1_455
Bi3 Rb2 4.111061 1_565
