# generated using pymatgen
data_CaYIr2O7
_symmetry_space_group_name_H-M   'P 1'
_cell_length_a   7.21213560
_cell_length_b   7.21213414
_cell_length_c   7.21213565
_cell_angle_alpha   120.21919091
_cell_angle_beta   119.84320964
_cell_angle_gamma   89.94627553
_symmetry_Int_Tables_number   1
_chemical_formula_structural   CaYIr2O7
_chemical_formula_sum   'Ca2 Y2 Ir4 O14'
_cell_volume   265.13414205
_cell_formula_units_Z   2
loop_
 _symmetry_equiv_pos_site_id
 _symmetry_equiv_pos_as_xyz
  1  'x, y, z'
loop_
 _atom_site_type_symbol
 _atom_site_label
 _atom_site_symmetry_multiplicity
 _atom_site_fract_x
 _atom_site_fract_y
 _atom_site_fract_z
 _atom_site_occupancy
  Ca  Ca0  1  0.50000000  0.50000000  0.50000000  1
  Ca  Ca1  1  0.50000000  0.00000000  0.00000000  1
  Y  Y0  1  0.50000000  0.50000000  0.00000000  1
  Y  Y1  1  0.00000000  0.50000000  0.50000000  1
  Ir  Ir0  1  0.00000000  0.00000000  0.50000000  1
  Ir  Ir1  1  0.00000000  0.50000000  0.00000000  1
  Ir  Ir2  1  0.00000000  0.00000000  0.00000000  1
  Ir  Ir3  1  0.50000000  0.00000000  0.50000000  1
  O  O0  1  0.36790577  0.61790577  0.75000000  1
  O  O1  1  0.63209423  0.38209423  0.25000000  1
  O  O2  1  0.32692344  0.07692344  0.25000000  1
  O  O3  1  0.91846105  0.66846105  0.25000000  1
  O  O4  1  0.32894690  0.66937509  0.24244647  1
  O  O5  1  0.92692862  0.08650143  0.25755353  1
  O  O6  1  0.32894690  0.08650143  0.65957281  1
  O  O7  1  0.92692862  0.66937509  0.84042719  1
  O  O8  1  0.67307656  0.92307656  0.75000000  1
  O  O9  1  0.08153895  0.33153895  0.75000000  1
  O  O10  1  0.67105310  0.33062491  0.75755353  1
  O  O11  1  0.07307138  0.91349857  0.74244647  1
  O  O12  1  0.67105310  0.91349857  0.34042719  1
  O  O13  1  0.07307138  0.33062491  0.15957281  1
loop_
_geom_bond_atom_site_label_1
_geom_bond_atom_site_label_2
_geom_bond_distance
_geom_bond_site_symmetry_2
Ca0 O0 2.246402 1_555
Ca0 O1 2.246402 1_555
Ca0 O8 2.519642 1_555
Ca0 O2 2.519642 1_555
Ca0 O7 2.542644 1_555
Ca0 O13 2.542644 1_555
Ca0 O10 2.542644 1_555
Ca0 O4 2.542644 1_555
Ca1 O1 2.246401 1_555
Ca1 O0 2.246401 1_544
Ca1 O8 2.519643 1_544
Ca1 O2 2.519643 1_555
Ca1 O12 2.542644 1_545
Ca1 O6 2.542644 1_554
Ca1 O5 2.542644 1_555
Ca1 O11 2.542644 1_544
Ir0 O6 1.976030 1_555
Ir0 O12 1.976030 1_445
Ir0 O5 1.976037 1_455
Ir0 O11 1.976037 1_545
Ir0 O9 1.980332 1_555
Ir0 O3 1.980332 1_445
Ir1 O4 1.976031 1_555
Ir1 O10 1.976031 1_454
Ir1 O7 1.976036 1_454
Ir1 O13 1.976036 1_555
Ir1 O3 1.980332 1_455
Ir1 O9 1.980332 1_554
Ir2 O2 1.970405 1_555
Ir2 O8 1.970405 1_444
Ir2 O13 1.981017 1_555
Ir2 O7 1.981017 1_444
Ir2 O5 1.981018 1_455
Ir2 O11 1.981018 1_544
Ir3 O8 1.970405 1_545
Ir3 O2 1.970405 1_555
Ir3 O10 1.981018 1_555
Ir3 O4 1.981018 1_545
Ir3 O12 1.981024 1_545
Ir3 O6 1.981024 1_555
O0 Y0 2.171153 1_556
O0 Y1 2.171153 1_555
O1 Y0 2.171153 1_555
O1 Y1 2.171153 1_655
O3 Y1 2.494272 1_655
O3 Y0 2.494272 1_555
O4 Y0 2.462829 1_555
O5 Y1 2.462823 1_655
O6 Y0 2.462823 1_556
O7 Y1 2.462823 1_655
O9 Y1 2.494272 1_555
O9 Y0 2.494272 1_556
O10 Y0 2.462829 1_556
O11 Y1 2.462823 1_555
O12 Y0 2.462823 1_555
O13 Y1 2.462823 1_555
