# generated using pymatgen
data_CuI
_symmetry_space_group_name_H-M   'P 1'
_cell_length_a   14.15331379
_cell_length_b   14.15331379
_cell_length_c   14.15331335
_cell_angle_alpha   17.25973566
_cell_angle_beta   17.25973566
_cell_angle_gamma   17.25973587
_symmetry_Int_Tables_number   1
_chemical_formula_structural   CuI
_chemical_formula_sum   'Cu4 I4'
_cell_volume   217.78236245
_cell_formula_units_Z   4
loop_
 _symmetry_equiv_pos_site_id
 _symmetry_equiv_pos_as_xyz
  1  'x, y, z'
loop_
 _atom_site_type_symbol
 _atom_site_label
 _atom_site_symmetry_multiplicity
 _atom_site_fract_x
 _atom_site_fract_y
 _atom_site_fract_z
 _atom_site_occupancy
  Cu  Cu0  1  0.72972572  0.72972572  0.72972572  1
  Cu  Cu1  1  0.56245171  0.56245171  0.56245171  1
  Cu  Cu2  1  0.31295494  0.31295494  0.31295494  1
  Cu  Cu3  1  0.14611220  0.14611220  0.14611220  1
  I  I0  1  0.79177832  0.79177832  0.79177832  1
  I  I1  1  0.62485667  0.62485667  0.62485667  1
  I  I2  1  0.37514242  0.37514242  0.37514242  1
  I  I3  1  0.20817902  0.20817902  0.20817902  1
loop_
_geom_bond_atom_site_label_1
_geom_bond_atom_site_label_2
_geom_bond_distance
_geom_bond_site_symmetry_2
Cu0 I0 2.594900 1_555
Cu0 I2 2.608297 1_655
Cu0 I2 2.608297 1_565
Cu0 I2 2.608297 1_556
Cu1 I3 2.603900 1_565
Cu1 I3 2.603900 1_655
Cu1 I3 2.603900 1_556
Cu1 I1 2.609635 1_555
Cu2 I2 2.600541 1_555
Cu2 I1 2.610894 1_554
Cu2 I1 2.610894 1_455
Cu2 I1 2.610894 1_545
Cu3 I3 2.595495 1_555
Cu3 I0 2.604762 1_454
Cu3 I0 2.604762 1_544
Cu3 I0 2.604762 1_445
