# generated using pymatgen
data_Cs2Ta3Cl7O5
_symmetry_space_group_name_H-M   'P 1'
_cell_length_a   9.79211218
_cell_length_b   9.79211263
_cell_length_c   11.13538668
_cell_angle_alpha   73.06170106
_cell_angle_beta   73.06169927
_cell_angle_gamma   53.86245505
_symmetry_Int_Tables_number   1
_chemical_formula_structural   Cs2Ta3Cl7O5
_chemical_formula_sum   'Cs4 Ta6 Cl14 O10'
_cell_volume   814.95601629
_cell_formula_units_Z   2
loop_
 _symmetry_equiv_pos_site_id
 _symmetry_equiv_pos_as_xyz
  1  'x, y, z'
loop_
 _atom_site_type_symbol
 _atom_site_label
 _atom_site_symmetry_multiplicity
 _atom_site_fract_x
 _atom_site_fract_y
 _atom_site_fract_z
 _atom_site_occupancy
  Cs  Cs0  1  0.75206226  0.84276910  0.85394346  1
  Cs  Cs1  1  0.15723090  0.24793774  0.64605654  1
  Cs  Cs2  1  0.24793774  0.15723090  0.14605654  1
  Cs  Cs3  1  0.84276910  0.75206226  0.35394346  1
  Ta  Ta0  1  0.21594271  0.78810484  0.52749013  1
  Ta  Ta1  1  0.21189516  0.78405729  0.97250987  1
  Ta  Ta2  1  0.78405729  0.21189516  0.47250987  1
  Ta  Ta3  1  0.78810484  0.21594271  0.02749013  1
  Ta  Ta4  1  0.45894350  0.54105650  0.25000000  1
  Ta  Ta5  1  0.54105650  0.45894350  0.75000000  1
  Cl  Cl0  1  0.06373781  0.64764841  0.61221066  1
  Cl  Cl1  1  0.35235159  0.93626219  0.88778934  1
  Cl  Cl2  1  0.93626219  0.35235159  0.38778934  1
  Cl  Cl3  1  0.64764841  0.06373781  0.11221066  1
  Cl  Cl4  1  0.36323357  0.93148641  0.46159635  1
  Cl  Cl5  1  0.06851359  0.63676643  0.03840365  1
  Cl  Cl6  1  0.63676643  0.06851359  0.53840365  1
  Cl  Cl7  1  0.93148641  0.36323357  0.96159635  1
  Cl  Cl8  1  0.29637893  0.41310306  0.32394352  1
  Cl  Cl9  1  0.58689694  0.70362107  0.17605648  1
  Cl  Cl10  1  0.70362107  0.58689694  0.67605648  1
  Cl  Cl11  1  0.41310306  0.29637893  0.82394352  1
  Cl  Cl12  1  0.09249357  0.90750643  0.75000000  1
  Cl  Cl13  1  0.90750643  0.09249357  0.25000000  1
  O  O0  1  0.29109867  0.70962803  0.37642489  1
  O  O1  1  0.29037197  0.70890133  0.12357511  1
  O  O2  1  0.70890133  0.29037197  0.62357511  1
  O  O3  1  0.70962803  0.29109867  0.87642489  1
  O  O4  1  0.39612909  0.60395000  0.62544303  1
  O  O5  1  0.39605000  0.60387091  0.87455697  1
  O  O6  1  0.60387091  0.39605000  0.37455697  1
  O  O7  1  0.60395000  0.39612909  0.12544303  1
  O  O8  1  0.00000000  0.00000000  0.50000000  1
  O  O9  1  0.00000000  0.00000000  0.00000000  1
loop_
_geom_bond_atom_site_label_1
_geom_bond_atom_site_label_2
_geom_bond_distance
_geom_bond_site_symmetry_2
Cl0 Ta0 2.417711 1_555
Cl0 Cs1 3.378593 1_555
Cl0 Cs0 3.397501 1_455
Cl0 Cs3 3.647092 1_455
Cl1 Ta1 2.417711 1_555
Cl1 Cs0 3.378593 1_555
Cl1 Cs1 3.397501 1_565
Cl1 Cs2 3.647092 1_566
Cl2 Ta2 2.417711 1_555
Cl2 Cs3 3.378593 1_555
Cl2 Cs2 3.397501 1_655
Cl2 Cs1 3.647092 1_655
Cl3 Ta3 2.417711 1_555
Cl3 Cs2 3.378593 1_555
Cl3 Cs3 3.397501 1_545
Cl3 Cs0 3.647092 1_544
Cl4 Ta0 2.400267 1_555
Cl4 Cs1 3.436893 1_565
Cl4 Cs2 3.653632 1_565
Cl4 Cs3 3.845772 1_555
Cl5 Ta1 2.400267 1_554
Cl5 Cs0 3.436893 1_454
Cl5 Cs3 3.653632 1_455
Cl5 Cs2 3.845773 1_555
Cl6 Ta2 2.400267 1_555
Cl6 Cs3 3.436893 1_545
Cl6 Cs0 3.653632 1_545
Cl6 Cs1 3.845772 1_555
Cl7 Ta3 2.400267 1_556
Cl7 Cs2 3.436893 1_656
Cl7 Cs1 3.653632 1_655
Cl7 Cs0 3.845773 1_555
Cl8 Ta4 2.401946 1_555
Cl8 Cs3 3.640154 1_455
Cl8 Cs1 3.702565 1_555
Cl8 Cs2 3.907369 1_555
Cl9 Ta4 2.401946 1_555
Cl9 Cs2 3.640154 1_565
Cl9 Cs0 3.702565 1_554
Cl9 Cs3 3.907369 1_555
Cl10 Ta5 2.401946 1_555
Cl10 Cs1 3.640154 1_655
Cl10 Cs3 3.702565 1_555
Cl10 Cs0 3.907369 1_555
Cl11 Ta5 2.401946 1_555
Cl11 Cs0 3.640154 1_545
Cl11 Cs2 3.702565 1_556
Cl11 Cs1 3.907369 1_555
Cl12 Ta0 2.691327 1_555
Cl12 Ta1 2.691327 1_555
Cl12 Cs0 3.559589 1_455
Cl12 Cs1 3.559589 1_565
Cl13 Ta2 2.691327 1_555
Cl13 Ta3 2.691327 1_555
Cl13 Cs2 3.559589 1_655
Cl13 Cs3 3.559589 1_545
O0 Ta0 1.823917 1_555
O0 Ta4 2.052775 1_555
O1 Ta1 1.823917 1_554
O1 Ta4 2.052775 1_555
O2 Ta2 1.823917 1_555
O2 Ta5 2.052775 1_555
O3 Ta3 1.823917 1_556
O3 Ta5 2.052775 1_555
O4 Ta5 1.891185 1_555
O4 Ta0 1.943519 1_555
O5 Ta5 1.891185 1_555
O5 Ta1 1.943519 1_555
O6 Ta4 1.891185 1_555
O6 Ta2 1.943519 1_555
O7 Ta4 1.891185 1_555
O7 Ta3 1.943519 1_555
O8 Ta0 1.924179 1_545
O8 Ta2 1.924179 1_455
O9 Ta1 1.924179 1_544
O9 Ta3 1.924179 1_455
