# generated using pymatgen
data_Sr4TiFe2WO12
_symmetry_space_group_name_H-M   'P 1'
_cell_length_a   5.54549001
_cell_length_b   5.57234929
_cell_length_c   9.64913953
_cell_angle_alpha   89.66906425
_cell_angle_beta   106.74075854
_cell_angle_gamma   119.78584469
_symmetry_Int_Tables_number   1
_chemical_formula_structural   Sr4TiFe2WO12
_chemical_formula_sum   'Sr4 Ti1 Fe2 W1 O12'
_cell_volume   244.40672769
_cell_formula_units_Z   1
loop_
 _symmetry_equiv_pos_site_id
 _symmetry_equiv_pos_as_xyz
  1  'x, y, z'
loop_
 _atom_site_type_symbol
 _atom_site_label
 _atom_site_symmetry_multiplicity
 _atom_site_fract_x
 _atom_site_fract_y
 _atom_site_fract_z
 _atom_site_occupancy
  Sr  Sr0  1  0.75547075  0.62864599  0.38323551  1
  Sr  Sr1  1  0.74312555  0.12123639  0.86457286  1
  Sr  Sr2  1  0.25687445  0.87876361  0.13542714  1
  Sr  Sr3  1  0.24452925  0.37135401  0.61676449  1
  Ti  Ti0  1  0.50000000  0.00000000  0.50000000  1
  Fe  Fe0  1  0.00629675  0.25440426  0.26001727  1
  Fe  Fe1  1  0.99370325  0.74559574  0.73998273  1
  W  W0  1  0.50000000  0.50000000  0.00000000  1
  O  O0  1  0.74647893  0.86449592  0.12083504  1
  O  O1  1  0.74306057  0.36948579  0.62605950  1
  O  O2  1  0.25693943  0.63051421  0.37394050  1
  O  O3  1  0.25352107  0.13550408  0.87916496  1
  O  O4  1  0.22223010  0.10533995  0.38823390  1
  O  O5  1  0.22649469  0.61053649  0.89748651  1
  O  O6  1  0.77776990  0.89466005  0.61176610  1
  O  O7  1  0.77350531  0.38946351  0.10251349  1
  O  O8  1  0.70948098  0.63628637  0.86260053  1
  O  O9  1  0.72134342  0.14259945  0.36197654  1
  O  O10  1  0.27865658  0.85740055  0.63802346  1
  O  O11  1  0.29051902  0.36371363  0.13739947  1
loop_
_geom_bond_atom_site_label_1
_geom_bond_atom_site_label_2
_geom_bond_distance
_geom_bond_site_symmetry_2
Fe0 O9 1.939976 1_455
Fe0 O4 1.943544 1_555
Fe0 O2 1.945504 1_555
Fe0 O7 2.089129 1_455
Fe0 O11 2.089803 1_555
Fe0 O0 2.099767 1_445
Fe1 O10 1.939976 1_655
Fe1 O6 1.943544 1_555
Fe1 O1 1.945504 1_555
Fe1 O5 2.089129 1_655
Fe1 O8 2.089803 1_555
Fe1 O3 2.099767 1_665
O0 W0 1.924613 1_555
O0 Sr2 2.753951 1_655
O0 Sr2 2.798700 1_555
O0 Sr0 2.845059 1_555
O0 Sr1 2.849643 1_564
O1 Ti0 1.965368 1_555
O1 Sr1 2.678342 1_555
O1 Sr0 2.745025 1_555
O1 Sr3 2.745343 1_555
O1 Sr3 2.802929 1_655
O2 Ti0 1.965368 1_565
O2 Sr2 2.678342 1_555
O2 Sr3 2.745025 1_555
O2 Sr0 2.745343 1_555
O2 Sr0 2.802929 1_455
O3 W0 1.924613 1_556
O3 Sr1 2.753951 1_455
O3 Sr1 2.798700 1_555
O3 Sr3 2.845059 1_555
O3 Sr2 2.849643 1_546
O4 Ti0 1.953039 1_555
O4 Sr3 2.602633 1_555
O4 Sr0 2.618523 1_445
O4 Sr2 2.850972 1_545
O4 Sr0 2.960306 1_555
O5 W0 1.927465 1_556
O5 Sr1 2.641685 1_455
O5 Sr2 2.664634 1_556
O5 Sr1 2.970005 1_565
O5 Sr3 3.074699 1_555
O6 Ti0 1.953039 1_565
O6 Sr0 2.602633 1_555
O6 Sr3 2.618523 1_665
O6 Sr1 2.850972 1_565
O6 Sr3 2.960306 1_555
O7 W0 1.927465 1_555
O7 Sr2 2.641685 1_655
O7 Sr1 2.664634 1_554
O7 Sr2 2.970005 1_545
O7 Sr0 3.074699 1_555
O8 W0 1.919129 1_556
O8 Sr1 2.614438 1_565
O8 Sr3 2.681348 1_555
O8 Sr1 2.966753 1_555
O8 Sr2 3.055007 1_656
O9 Ti0 1.967806 1_555
O9 Sr2 2.570135 1_545
O9 Sr0 2.624546 1_555
O9 Sr3 2.887803 1_655
O9 Sr0 2.964679 1_545
O10 Ti0 1.967806 1_565
O10 Sr1 2.570135 1_565
O10 Sr3 2.624546 1_555
O10 Sr0 2.887803 1_455
O10 Sr3 2.964679 1_565
O11 W0 1.919129 1_555
O11 Sr2 2.614438 1_545
O11 Sr0 2.681348 1_555
O11 Sr2 2.966753 1_555
O11 Sr1 3.055007 1_454
