# generated using pymatgen
data_Sc10Sb3Te7
_symmetry_space_group_name_H-M   'P 1'
_cell_length_a   8.00976903
_cell_length_b   8.00976833
_cell_length_c   10.82412527
_cell_angle_alpha   70.45145351
_cell_angle_beta   70.45145405
_cell_angle_gamma   53.94400900
_symmetry_Int_Tables_number   1
_chemical_formula_structural   Sc10Sb3Te7
_chemical_formula_sum   'Sc10 Sb3 Te7'
_cell_volume   520.34222629
_cell_formula_units_Z   1
loop_
 _symmetry_equiv_pos_site_id
 _symmetry_equiv_pos_as_xyz
  1  'x, y, z'
loop_
 _atom_site_type_symbol
 _atom_site_label
 _atom_site_symmetry_multiplicity
 _atom_site_fract_x
 _atom_site_fract_y
 _atom_site_fract_z
 _atom_site_occupancy
  Sc  Sc0  1  0.00679207  0.79530333  0.95076936  1
  Sc  Sc1  1  0.39622527  0.20791254  0.15071756  1
  Sc  Sc2  1  0.80312110  0.59792888  0.35394140  1
  Sc  Sc3  1  0.20469667  0.99320793  0.04923064  1
  Sc  Sc4  1  0.20660309  0.00017028  0.54856904  1
  Sc  Sc5  1  0.59186741  0.40360415  0.24931916  1
  Sc  Sc6  1  0.59639585  0.40813259  0.75068084  1
  Sc  Sc7  1  0.99982972  0.79339691  0.45143096  1
  Sc  Sc8  1  0.40207112  0.19687890  0.64605860  1
  Sc  Sc9  1  0.79208746  0.60377473  0.84928244  1
  Sb  Sb0  1  0.43369836  0.56630164  1.00000000  1
  Sb  Sb1  1  0.23339265  0.36628232  0.40017556  1
  Sb  Sb2  1  0.63371768  0.76660735  0.59982444  1
  Te  Te0  1  0.96467368  0.43281868  0.10020058  1
  Te  Te1  1  0.83369588  0.96657837  0.19958252  1
  Te  Te2  1  0.36679716  0.83446538  0.29965462  1
  Te  Te3  1  0.76820025  0.23179975  0.50000000  1
  Te  Te4  1  0.16553462  0.63320284  0.70034538  1
  Te  Te5  1  0.03342163  0.16630412  0.80041748  1
  Te  Te6  1  0.56718132  0.03532632  0.89979942  1
loop_
_geom_bond_atom_site_label_1
_geom_bond_atom_site_label_2
_geom_bond_distance
_geom_bond_site_symmetry_2
Sc0 Te4 2.958954 1_555
Sc0 Te1 2.965175 1_456
Sc0 Te5 2.966825 1_565
Sc0 Te0 2.967314 1_456
Sc0 Te6 3.003437 1_465
Sc1 Te0 2.961101 1_455
Sc1 Te1 2.979495 1_545
Sc1 Te2 2.991740 1_545
Sc1 Te6 2.992987 1_554
Sc2 Te3 2.957167 1_555
Sc2 Te1 2.974289 1_555
Sc2 Te2 2.997288 1_555
Sc2 Te0 3.000786 1_555
Sc3 Te2 2.958954 1_555
Sc3 Te5 2.965175 1_564
Sc3 Te1 2.966825 1_455
Sc3 Te6 2.967314 1_564
Sc3 Te0 3.003437 1_465
Sc4 Te2 2.956691 1_545
Sc4 Te5 2.974956 1_555
Sc4 Te3 2.993802 1_455
Sc4 Te4 2.998629 1_545
Sc5 Te2 2.955372 1_555
Sc5 Te1 2.979401 1_545
Sc5 Te0 2.986817 1_555
Sc5 Te3 3.004832 1_555
Sc6 Te4 2.955373 1_555
Sc6 Te5 2.979401 1_655
Sc6 Te6 2.986816 1_555
Sc6 Te3 3.004832 1_555
Sc7 Te4 2.956691 1_655
Sc7 Te1 2.974956 1_555
Sc7 Te3 2.993802 1_565
Sc7 Te2 2.998629 1_655
Sc8 Te3 2.957167 1_555
Sc8 Te5 2.974289 1_555
Sc8 Te4 2.997288 1_555
Sc8 Te6 3.000786 1_555
Sc9 Te6 2.961101 1_565
Sc9 Te5 2.979495 1_655
Sc9 Te4 2.991740 1_655
Sc9 Te0 2.992987 1_556
Sb0 Sc3 2.919414 1_556
Sb0 Sc0 2.919414 1_555
Sb0 Sc1 2.923103 1_556
Sb0 Sc9 2.923103 1_555
Sb0 Sc6 2.928668 1_555
Sb0 Sc5 2.928668 1_556
Sb1 Sc5 2.923386 1_555
Sb1 Sc7 2.924579 1_455
Sb1 Sc2 2.928494 1_455
Sb1 Sc8 2.929436 1_555
Sb1 Sc4 2.929735 1_555
Sb1 Sc1 2.930689 1_555
Sb2 Sc6 2.923386 1_555
Sb2 Sc4 2.924579 1_565
Sb2 Sc8 2.928493 1_565
Sb2 Sc2 2.929436 1_555
Sb2 Sc7 2.929735 1_555
Sb2 Sc9 2.930689 1_555
