# generated using pymatgen
data_Cs2Si3PbO9
_symmetry_space_group_name_H-M   'P 1'
_cell_length_a   7.25923253
_cell_length_b   7.25923175
_cell_length_c   10.32448267
_cell_angle_alpha   90.00000000
_cell_angle_beta   90.00000000
_cell_angle_gamma   119.99999484
_symmetry_Int_Tables_number   1
_chemical_formula_structural   Cs2Si3PbO9
_chemical_formula_sum   'Cs4 Si6 Pb2 O18'
_cell_volume   471.17292162
_cell_formula_units_Z   2
loop_
 _symmetry_equiv_pos_site_id
 _symmetry_equiv_pos_as_xyz
  1  'x, y, z'
loop_
 _atom_site_type_symbol
 _atom_site_label
 _atom_site_symmetry_multiplicity
 _atom_site_fract_x
 _atom_site_fract_y
 _atom_site_fract_z
 _atom_site_occupancy
  Cs  Cs0  1  0.33333300  0.66666700  0.43587814  1
  Cs  Cs1  1  0.66666700  0.33333300  0.93587814  1
  Cs  Cs2  1  0.66666700  0.33333300  0.56412186  1
  Cs  Cs3  1  0.33333300  0.66666700  0.06412186  1
  Si  Si0  1  0.60950304  0.75899605  0.75000000  1
  Si  Si1  1  0.85050699  0.60950304  0.25000000  1
  Si  Si2  1  0.75899605  0.14949301  0.25000000  1
  Si  Si3  1  0.24100395  0.85050699  0.75000000  1
  Si  Si4  1  0.14949301  0.39049696  0.75000000  1
  Si  Si5  1  0.39049696  0.24100395  0.25000000  1
  Pb  Pb0  1  0.00000000  0.00000000  0.50000000  1
  Pb  Pb1  1  0.00000000  0.00000000  0.00000000  1
  O  O0  1  0.26591033  0.21503709  0.38319229  1
  O  O1  1  0.05087224  0.26591033  0.88319229  1
  O  O2  1  0.21503709  0.94912776  0.88319229  1
  O  O3  1  0.78496291  0.05087224  0.38319229  1
  O  O4  1  0.94912776  0.73408967  0.38319229  1
  O  O5  1  0.73408967  0.78496291  0.88319229  1
  O  O6  1  0.73408967  0.78496291  0.61680771  1
  O  O7  1  0.94912776  0.73408967  0.11680771  1
  O  O8  1  0.78496291  0.05087224  0.11680771  1
  O  O9  1  0.21503709  0.94912776  0.61680771  1
  O  O10  1  0.05087224  0.26591033  0.61680771  1
  O  O11  1  0.26591033  0.21503709  0.11680771  1
  O  O12  1  0.50778836  0.09649713  0.25000000  1
  O  O13  1  0.41129023  0.50778836  0.75000000  1
  O  O14  1  0.09649713  0.58870977  0.75000000  1
  O  O15  1  0.90350287  0.41129023  0.25000000  1
  O  O16  1  0.58870977  0.49221164  0.25000000  1
  O  O17  1  0.49221164  0.90350287  0.75000000  1
loop_
_geom_bond_atom_site_label_1
_geom_bond_atom_site_label_2
_geom_bond_distance
_geom_bond_site_symmetry_2
Cs0 O4 3.111143 1_455
Cs0 O3 3.111151 1_565
Cs0 O0 3.111156 1_555
Cs0 O9 3.192492 1_555
Cs0 O10 3.192492 1_555
Cs0 O6 3.192492 1_555
Cs0 O12 3.327326 1_565
Cs0 O15 3.327328 1_455
Cs0 O16 3.327337 1_555
Cs1 O1 3.111143 1_655
Cs1 O2 3.111151 1_545
Cs1 O5 3.111156 1_555
Cs1 O8 3.192492 1_556
Cs1 O7 3.192492 1_556
Cs1 O11 3.192492 1_556
Cs1 O17 3.327326 1_545
Cs1 O14 3.327328 1_655
Cs1 O13 3.327337 1_555
Cs2 O10 3.111143 1_655
Cs2 O9 3.111151 1_545
Cs2 O6 3.111156 1_555
Cs2 O3 3.192492 1_555
Cs2 O4 3.192492 1_555
Cs2 O0 3.192492 1_555
Cs2 O17 3.327326 1_545
Cs2 O14 3.327328 1_655
Cs2 O13 3.327337 1_555
Cs3 O7 3.111143 1_455
Cs3 O8 3.111151 1_565
Cs3 O11 3.111156 1_555
Cs3 O2 3.192492 1_554
Cs3 O1 3.192492 1_554
Cs3 O5 3.192492 1_554
Cs3 O12 3.327326 1_565
Cs3 O15 3.327328 1_455
Cs3 O16 3.327337 1_555
O0 Si5 1.604373 1_555
O0 Pb0 2.145689 1_555
O1 Si4 1.604374 1_555
O1 Pb1 2.145691 1_556
O2 Si3 1.604376 1_555
O2 Pb1 2.145685 1_566
O3 Si2 1.604376 1_555
O3 Pb0 2.145685 1_655
O4 Si1 1.604374 1_555
O4 Pb0 2.145691 1_665
O5 Si0 1.604373 1_555
O5 Pb1 2.145689 1_666
O6 Si0 1.604373 1_555
O6 Pb0 2.145689 1_665
O7 Si1 1.604374 1_555
O7 Pb1 2.145691 1_665
O8 Si2 1.604376 1_555
O8 Pb1 2.145685 1_655
O9 Si3 1.604376 1_555
O9 Pb0 2.145685 1_565
O10 Si4 1.604374 1_555
O10 Pb0 2.145691 1_555
O11 Si5 1.604373 1_555
O11 Pb1 2.145689 1_555
O12 Si5 1.648803 1_555
O12 Si2 1.664897 1_555
O13 Si4 1.648797 1_555
O13 Si0 1.664899 1_555
O14 Si3 1.648797 1_555
O14 Si4 1.664904 1_555
O15 Si2 1.648797 1_555
O15 Si1 1.664904 1_555
O16 Si1 1.648797 1_555
O16 Si5 1.664899 1_555
O17 Si0 1.648803 1_555
O17 Si3 1.664897 1_555
