# generated using pymatgen
data_BaCdIn2Ga
_symmetry_space_group_name_H-M   'P 1'
_cell_length_a   6.90104248
_cell_length_b   6.90104303
_cell_length_c   6.90104360
_cell_angle_alpha   139.42814535
_cell_angle_beta   139.42815709
_cell_angle_gamma   58.72260471
_symmetry_Int_Tables_number   1
_chemical_formula_structural   BaCdIn2Ga
_chemical_formula_sum   'Ba1 Cd1 In2 Ga1'
_cell_volume   137.72567034
_cell_formula_units_Z   1
loop_
 _symmetry_equiv_pos_site_id
 _symmetry_equiv_pos_as_xyz
  1  'x, y, z'
loop_
 _atom_site_type_symbol
 _atom_site_label
 _atom_site_symmetry_multiplicity
 _atom_site_fract_x
 _atom_site_fract_y
 _atom_site_fract_z
 _atom_site_occupancy
  Ba  Ba0  1  0.00154052  0.00154052  0.00000000  1
  Cd  Cd0  1  0.39073588  0.39073588  1.00000000  1
  In  In0  1  0.74678193  0.24678193  0.50000000  1
  In  In1  1  0.24678193  0.74678193  0.50000000  1
  Ga  Ga0  1  0.61415973  0.61415973  0.00000000  1
loop_
_geom_bond_atom_site_label_1
_geom_bond_atom_site_label_2
_geom_bond_distance
_geom_bond_site_symmetry_2
Ba0 Cd0 3.636745 1_454
Ba0 Cd0 3.636745 1_544
Ba0 Cd0 3.636746 1_443
Ba0 Cd0 3.636746 1_555
Ba0 Ga0 3.644801 1_545
Ba0 Ga0 3.644802 1_455
Ba0 Ga0 3.644802 1_556
Ba0 Ga0 3.644802 1_444
Ba0 In0 3.798344 1_555
Ba0 In0 3.798345 1_454
Ba0 In1 3.798345 1_555
Ba0 In1 3.798345 1_544
Ba0 In1 3.887929 1_444
Ba0 In1 3.887929 1_545
Ba0 In0 3.887929 1_444
Ba0 In0 3.887929 1_455
Cd0 Ga0 2.687597 1_556
Cd0 In0 2.953515 1_455
Cd0 In0 2.953515 1_556
Cd0 In1 2.953516 1_545
Cd0 In1 2.953516 1_556
In0 In1 3.383686 1_645
In0 In1 3.383686 1_555
In0 In1 3.383687 1_656
In0 In1 3.383687 1_544
Ga0 In1 2.875717 1_655
Ga0 In1 2.875717 1_554
Ga0 In0 2.875717 1_565
Ga0 In0 2.875718 1_554
