# generated using pymatgen
data_Zr3(TiRe12)2
_symmetry_space_group_name_H-M   'P 1'
_cell_length_a   8.39543490
_cell_length_b   8.39543447
_cell_length_c   8.40656624
_cell_angle_alpha   109.46995861
_cell_angle_beta   109.46995490
_cell_angle_gamma   109.42003443
_symmetry_Int_Tables_number   1
_chemical_formula_structural   Zr3(TiRe12)2
_chemical_formula_sum   'Zr3 Ti2 Re24'
_cell_volume   456.42623739
_cell_formula_units_Z   1
loop_
 _symmetry_equiv_pos_site_id
 _symmetry_equiv_pos_as_xyz
  1  'x, y, z'
loop_
 _atom_site_type_symbol
 _atom_site_label
 _atom_site_symmetry_multiplicity
 _atom_site_fract_x
 _atom_site_fract_y
 _atom_site_fract_z
 _atom_site_occupancy
  Zr  Zr0  1  0.00328413  0.00328413  1.00000000  1
  Zr  Zr1  1  0.62908494  0.99949285  0.00000000  1
  Zr  Zr2  1  0.99949285  0.62908494  0.00000000  1
  Ti  Ti0  1  0.99982089  0.99982089  0.62784141  1
  Ti  Ti1  1  0.37197948  0.37197948  0.37215859  1
  Re  Re0  1  0.39496094  0.67589793  0.00000000  1
  Re  Re1  1  0.71984940  0.32385650  0.32414755  1
  Re  Re2  1  0.39570185  0.99970895  0.67585245  1
  Re  Re3  1  0.67589793  0.39496094  0.00000000  1
  Re  Re4  1  0.99970895  0.39570185  0.67585245  1
  Re  Re5  1  0.32385650  0.71984940  0.32414755  1
  Re  Re6  1  0.31743767  0.31743767  0.71931560  1
  Re  Re7  1  0.99956428  0.68270158  0.39975824  1
  Re  Re8  1  0.68270158  0.99956428  0.39975824  1
  Re  Re9  1  0.59812207  0.59812207  0.28068440  1
  Re  Re10  1  0.28294333  0.59980604  0.60024176  1
  Re  Re11  1  0.59980604  0.28294333  0.60024176  1
  Re  Re12  1  0.37450821  0.19329007  1.00000000  1
  Re  Re13  1  0.18282774  0.80669100  0.80429778  1
  Re  Re14  1  0.37852996  0.00239322  0.19570222  1
  Re  Re15  1  0.19329007  0.37450821  1.00000000  1
  Re  Re16  1  0.00239322  0.37852996  0.19570222  1
  Re  Re17  1  0.80669100  0.18282774  0.80429778  1
  Re  Re18  1  0.80579031  0.80579031  0.18513926  1
  Re  Re19  1  0.00280611  0.19540724  0.37765955  1
  Re  Re20  1  0.19540724  0.00280611  0.37765955  1
  Re  Re21  1  0.62065105  0.62065105  0.81486074  1
  Re  Re22  1  0.81774769  0.62514656  0.62234045  1
  Re  Re23  1  0.62514656  0.81774769  0.62234045  1
loop_
_geom_bond_atom_site_label_1
_geom_bond_atom_site_label_2
_geom_bond_distance
_geom_bond_site_symmetry_2
Zr0 Zr2 3.131126 1_446
Zr0 Zr1 3.131126 1_446
Ti0 Zr0 3.109315 1_665
Ti1 Zr0 3.109315 1_554
Re0 Re15 2.533812 1_554
Re0 Re14 2.763270 1_565
Re0 Re13 2.763270 1_554
Re0 Zr1 2.773644 1_555
Re0 Re6 2.826303 1_554
Re0 Re9 2.826303 1_555
Re0 Re21 2.880392 1_554
Re0 Re18 2.880392 1_555
Re0 Re5 2.911792 1_555
Re0 Re4 2.911792 1_454
Re0 Re10 2.940860 1_554
Re0 Re8 2.940860 1_555
Re0 Zr2 3.210918 1_455
Re1 Re22 2.524829 1_555
Re1 Re14 2.740961 1_555
Re1 Re12 2.767971 1_554
Re1 Zr1 2.776859 1_545
Re1 Re4 2.804236 1_555
Re1 Re7 2.831722 1_555
Re1 Re16 2.883954 1_655
Re1 Re19 2.884965 1_655
Re1 Re9 2.890755 1_555
Re1 Re11 2.895052 1_555
Re1 Re3 2.911792 1_555
Re1 Re8 2.938508 1_545
Re1 Ti1 3.212051 1_555
Re2 Re20 2.524829 1_565
Re2 Zr1 2.776860 1_556
Re2 Re5 2.804235 1_555
Re2 Re23 2.884965 1_555
Re2 Re6 2.890755 1_565
Re2 Re7 2.895052 1_455
Re2 Re3 2.911792 1_566
Re2 Ti0 3.212051 1_455
Re3 Zr2 2.773644 1_555
Re3 Re9 2.826303 1_555
Re3 Re6 2.826303 1_554
Re3 Re7 2.940860 1_555
Re3 Zr1 3.210918 1_545
Re4 Zr2 2.776859 1_556
Re4 Re6 2.890755 1_655
Re4 Re8 2.895052 1_545
Re4 Ti0 3.212050 1_545
Re5 Zr2 2.776860 1_455
Re5 Re8 2.831722 1_555
Re5 Re9 2.890755 1_555
Re5 Re7 2.938508 1_455
Re5 Ti1 3.212050 1_555
Re6 Ti0 2.711084 1_445
Re6 Ti1 3.252483 1_555
Re7 Ti0 2.712010 1_555
Re7 Re9 2.924176 1_555
Re7 Zr2 3.238252 1_555
Re8 Ti0 2.712010 1_555
Re8 Re9 2.924176 1_555
Re8 Zr1 3.238252 1_555
Re9 Ti1 2.711084 1_555
Re9 Ti0 3.252483 1_555
Re10 Re13 2.571310 1_555
Re10 Ti1 2.712010 1_555
Re10 Re21 2.715467 1_555
Re10 Re23 2.749219 1_555
Re10 Re4 2.831722 1_455
Re10 Re19 2.842698 1_555
Re10 Re16 2.846616 1_555
Re10 Re7 2.862671 1_455
Re10 Re5 2.895052 1_555
Re10 Re6 2.924176 1_555
Re10 Re2 2.938508 1_555
Re10 Zr1 3.238252 1_556
Re11 Re17 2.571310 1_555
Re11 Ti1 2.712010 1_555
Re11 Re21 2.715467 1_555
Re11 Re22 2.749219 1_555
Re11 Re2 2.831722 1_545
Re11 Re20 2.842698 1_555
Re11 Re14 2.846616 1_555
Re11 Re8 2.862671 1_545
Re11 Re6 2.924176 1_555
Re11 Re4 2.938509 1_555
Re11 Re3 2.940860 1_556
Re11 Zr2 3.238252 1_556
Re12 Re15 2.483659 1_555
Re12 Re3 2.533813 1_556
Re12 Re14 2.651966 1_556
Re12 Re13 2.651966 1_545
Re12 Re2 2.767971 1_545
Re12 Re6 2.846306 1_555
Re12 Re9 2.846306 1_556
Re12 Zr0 2.991948 1_555
Re12 Ti1 2.995943 1_556
Re12 Ti0 2.995943 1_445
Re12 Zr1 3.086671 1_546
Re13 Re22 2.504209 1_455
Re13 Re14 2.687505 1_566
Re13 Re2 2.740961 1_555
Re13 Re7 2.846616 1_455
Re13 Re4 2.883954 1_455
Re13 Ti0 2.988417 1_455
Re13 Zr2 3.015991 1_456
Re13 Zr0 3.033186 1_565
Re13 Zr1 3.073490 1_556
Re14 Re20 2.504209 1_555
Re14 Re8 2.571311 1_545
Re14 Re5 2.883954 1_545
Re14 Ti1 2.988417 1_555
Re14 Zr2 3.015991 1_445
Re14 Zr0 3.033186 1_554
Re14 Zr1 3.073489 1_545
Re15 Re16 2.651966 1_556
Re15 Re17 2.651966 1_455
Re15 Re5 2.767971 1_556
Re15 Re4 2.767971 1_455
Re15 Re6 2.846306 1_555
Re15 Re9 2.846306 1_556
Re15 Zr0 2.991948 1_555
Re15 Ti1 2.995943 1_556
Re15 Ti0 2.995943 1_445
Re15 Zr2 3.086671 1_456
Re16 Re19 2.504209 1_555
Re16 Re7 2.571310 1_455
Re16 Re17 2.687505 1_454
Re16 Re5 2.740961 1_555
Re16 Re3 2.763270 1_455
Re16 Ti1 2.988417 1_555
Re16 Zr1 3.015991 1_445
Re16 Zr0 3.033186 1_554
Re16 Zr2 3.073489 1_455
Re17 Re23 2.504209 1_545
Re17 Re4 2.740961 1_555
Re17 Re3 2.763270 1_556
Re17 Re8 2.846616 1_545
Re17 Re2 2.883954 1_545
Re17 Ti0 2.988417 1_545
Re17 Zr1 3.015991 1_546
Re17 Zr0 3.033186 1_655
Re17 Zr2 3.073490 1_556
Re18 Re21 2.542448 1_554
Re18 Re9 2.563238 1_555
Re18 Re19 2.672689 1_665
Re18 Re20 2.672689 1_665
Re18 Re8 2.715467 1_555
Re18 Re7 2.715467 1_555
Re18 Re3 2.880392 1_555
Re18 Zr2 3.003345 1_555
Re18 Zr1 3.003345 1_555
Re18 Ti0 3.051262 1_555
Re18 Zr0 3.087554 1_664
Re19 Re4 2.524829 1_455
Re19 Re20 2.639667 1_555
Re19 Re6 2.730864 1_555
Re19 Re8 2.749219 1_445
Re19 Ti1 2.981900 1_555
Re19 Zr1 3.012626 1_445
Re19 Zr0 3.046349 1_554
Re19 Ti0 3.070858 1_445
Re20 Re6 2.730864 1_555
Re20 Re7 2.749219 1_445
Re20 Re5 2.884965 1_545
Re20 Ti1 2.981900 1_555
Re20 Zr2 3.012626 1_445
Re20 Zr0 3.046349 1_554
Re20 Ti0 3.070858 1_445
Re21 Re6 2.563238 1_555
Re21 Re23 2.672689 1_555
Re21 Re22 2.672689 1_555
Re21 Re3 2.880392 1_556
Re21 Zr1 3.003345 1_556
Re21 Zr2 3.003345 1_556
Re21 Ti1 3.051262 1_555
Re21 Zr0 3.087554 1_665
Re22 Re23 2.639667 1_555
Re22 Re9 2.730864 1_555
Re22 Re7 2.842698 1_555
Re22 Re4 2.884965 1_555
Re22 Ti0 2.981900 1_555
Re22 Zr2 3.012626 1_556
Re22 Zr0 3.046349 1_665
Re22 Ti1 3.070858 1_555
Re23 Re5 2.524829 1_555
Re23 Re9 2.730864 1_555
Re23 Re8 2.842698 1_555
Re23 Ti0 2.981900 1_555
Re23 Zr1 3.012626 1_556
Re23 Zr0 3.046349 1_665
Re23 Ti1 3.070858 1_555
