# generated using pymatgen
data_Ti8Al14Ru7Se
_symmetry_space_group_name_H-M   'P 1'
_cell_length_a   8.59858001
_cell_length_b   8.59857936
_cell_length_c   8.59857927
_cell_angle_alpha   120.07350772
_cell_angle_beta   119.89675003
_cell_angle_gamma   90.02582694
_symmetry_Int_Tables_number   1
_chemical_formula_structural   Ti8Al14Ru7Se
_chemical_formula_sum   'Ti8 Al14 Ru7 Se1'
_cell_volume   449.63635091
_cell_formula_units_Z   1
loop_
 _symmetry_equiv_pos_site_id
 _symmetry_equiv_pos_as_xyz
  1  'x, y, z'
loop_
 _atom_site_type_symbol
 _atom_site_label
 _atom_site_symmetry_multiplicity
 _atom_site_fract_x
 _atom_site_fract_y
 _atom_site_fract_z
 _atom_site_occupancy
  Ti  Ti0  1  0.79568125  0.29160173  0.07918033  1
  Ti  Ti1  1  0.21242241  0.29160173  0.49592049  1
  Ti  Ti2  1  0.20746422  0.70746422  0.50000000  1
  Ti  Ti3  1  0.21242241  0.71650192  0.92081967  1
  Ti  Ti4  1  0.79568125  0.71650192  0.50407951  1
  Ti  Ti5  1  0.78463939  0.28463939  0.50000000  1
  Ti  Ti6  1  0.38002954  0.11921858  0.73918903  1
  Ti  Ti7  1  0.38002954  0.64084051  0.26081097  1
  Al  Al0  1  0.16215444  0.33634061  0.17418517  1
  Al  Al1  1  0.16215444  0.98796827  0.82581483  1
  Al  Al2  1  0.15947509  0.33905842  0.82041567  1
  Al  Al3  1  0.51864175  0.33905842  0.17958433  1
  Al  Al4  1  0.83848130  0.66096644  0.82248714  1
  Al  Al5  1  0.83848130  0.01599415  0.17751286  1
  Al  Al6  1  0.83761321  0.66156943  0.17604378  1
  Al  Al7  1  0.48552665  0.66156943  0.82395622  1
  Al  Al8  1  0.38054208  0.11933896  0.26120312  1
  Al  Al9  1  0.85813685  0.11933896  0.73879688  1
  Al  Al10  1  0.61932731  0.87857304  0.25924573  1
  Al  Al11  1  0.61932731  0.36008257  0.74075427  1
  Al  Al12  1  0.62050389  0.87961082  0.74089407  1
  Al  Al13  1  0.13871575  0.87961082  0.25910593  1
  Ru  Ru0  1  0.00013431  0.00015417  0.50106064  1
  Ru  Ru1  1  0.49909352  0.00015417  0.00001986  1
  Ru  Ru2  1  0.49868442  0.49868442  0.00000000  1
  Ru  Ru3  1  0.49909352  0.49907367  0.49893936  1
  Ru  Ru4  1  0.00013431  0.49907367  0.99998014  1
  Ru  Ru5  1  0.00008592  0.00008592  0.00000000  1
  Ru  Ru6  1  0.49836818  0.99836818  0.50000000  1
  Se  Se0  1  0.99695444  0.49695444  0.50000000  1
loop_
_geom_bond_atom_site_label_1
_geom_bond_atom_site_label_2
_geom_bond_distance
_geom_bond_site_symmetry_2
Al0 Ru5 2.473976 1_555
Al0 Ru4 2.482877 1_554
Al0 Ru3 2.482884 1_555
Al1 Ru5 2.473966 1_566
Al1 Ru1 2.482882 1_566
Al1 Ru0 2.482889 1_565
Al2 Ru0 2.477017 1_555
Al2 Ru4 2.477025 1_555
Al2 Ru2 2.481531 1_556
Al3 Ru3 2.477012 1_555
Al3 Ru1 2.477019 1_555
Al3 Ru2 2.481541 1_555
Al4 Ru5 2.486914 1_666
Al4 Ru4 2.493059 1_655
Al4 Ru3 2.493074 1_555
Al5 Ru5 2.486899 1_655
Al5 Ru0 2.493074 1_655
Al5 Ru1 2.493074 1_555
Al6 Ru0 2.487528 1_665
Al6 Ru4 2.487528 1_654
Al6 Ru2 2.493993 1_555
Al7 Ru3 2.487523 1_555
Al7 Ru1 2.487530 1_566
Al7 Ru2 2.493995 1_556
Al8 Ru6 2.528285 1_545
Al8 Ru3 2.666359 1_555
Al8 Ru1 2.666359 1_555
Al8 Ru5 2.676216 1_555
Al9 Ru6 2.528292 1_545
Al9 Ru0 2.666352 1_655
Al9 Ru4 2.666358 1_655
Al9 Ru5 2.676215 1_656
Al10 Ru6 2.537425 1_555
Al10 Ru2 2.666327 1_555
Al10 Ru1 2.677543 1_565
Al10 Ru0 2.677543 1_665
Al11 Ru6 2.537432 1_545
Al11 Ru2 2.666327 1_556
Al11 Ru3 2.677535 1_555
Al11 Ru4 2.677543 1_655
Al12 Ru6 2.527530 1_555
Al12 Ru5 2.669183 1_666
Al12 Ru1 2.670929 1_566
Al12 Ru3 2.670936 1_555
Al13 Ru6 2.527537 1_555
Al13 Ru5 2.669176 1_565
Al13 Ru0 2.670929 1_565
Al13 Ru4 2.670936 1_554
Ru0 Ti6 2.671989 1_555
Ru0 Ti4 3.024085 1_445
Ru0 Ti5 3.070317 1_455
Ru0 Ti2 3.083727 1_545
Ru0 Ti1 3.130730 1_555
Ru1 Ti6 2.671989 1_554
Ru1 Ti3 3.024080 1_544
Ru1 Ti5 3.070317 1_555
Ru1 Ti2 3.083727 1_544
Ru1 Ti0 3.130725 1_555
Ru2 Ti6 2.664402 1_554
Ru2 Ti7 2.664402 1_555
Ru3 Ti7 2.671989 1_555
Ru3 Ti1 3.024085 1_555
Ru3 Ti5 3.070317 1_555
Ru3 Ti2 3.083727 1_555
Ru3 Ti4 3.130731 1_555
Ru4 Ti7 2.671989 1_556
Ru4 Ti0 3.024092 1_456
Ru4 Ti5 3.070317 1_455
Ru4 Ti2 3.083727 1_556
Ru4 Ti3 3.130737 1_555
Ru5 Ti4 3.053242 1_444
Ru5 Ti1 3.053242 1_555
Ru5 Ti0 3.053243 1_455
Ru5 Ti3 3.053243 1_544
Ru6 Ti7 2.508071 1_555
Ru6 Ti6 2.508071 1_565
Se0 Ti2 2.559270 1_655
Se0 Ti0 2.560716 1_555
Se0 Ti3 2.560716 1_655
Se0 Ti4 2.560722 1_555
Se0 Ti1 2.560722 1_655
Se0 Ti5 2.581217 1_555
