# generated using pymatgen
data_Sr2CuRh3
_symmetry_space_group_name_H-M   'P 1'
_cell_length_a   5.44671163
_cell_length_b   5.41660116
_cell_length_c   5.44671225
_cell_angle_alpha   59.81594956
_cell_angle_beta   60.00000798
_cell_angle_gamma   59.81593977
_symmetry_Int_Tables_number   1
_chemical_formula_structural   Sr2CuRh3
_chemical_formula_sum   'Sr2 Cu1 Rh3'
_cell_volume   113.30964461
_cell_formula_units_Z   1
loop_
 _symmetry_equiv_pos_site_id
 _symmetry_equiv_pos_as_xyz
  1  'x, y, z'
loop_
 _atom_site_type_symbol
 _atom_site_label
 _atom_site_symmetry_multiplicity
 _atom_site_fract_x
 _atom_site_fract_y
 _atom_site_fract_z
 _atom_site_occupancy
  Sr  Sr0  1  0.24780758  0.25657825  0.24780758  1
  Sr  Sr1  1  0.00219242  0.99342175  0.00219242  1
  Cu  Cu0  1  0.62500000  0.12500000  0.62500000  1
  Rh  Rh0  1  0.62500000  0.62500000  0.12500000  1
  Rh  Rh1  1  0.12500000  0.62500000  0.62500000  1
  Rh  Rh2  1  0.62500000  0.62500000  0.62500000  1
loop_
_geom_bond_atom_site_label_1
_geom_bond_atom_site_label_2
_geom_bond_distance
_geom_bond_site_symmetry_2
Cu0 Rh1 2.708301 1_645
Cu0 Rh1 2.708301 1_555
Cu0 Rh2 2.708301 1_545
Cu0 Rh2 2.708301 1_555
Cu0 Rh0 2.708301 1_555
Cu0 Rh0 2.708301 1_546
Cu0 Sr1 3.197752 1_646
Cu0 Sr0 3.197752 1_555
Cu0 Sr0 3.197757 1_655
Cu0 Sr1 3.197757 1_546
Cu0 Sr0 3.197757 1_556
Cu0 Sr1 3.197757 1_645
Rh0 Rh2 2.723356 1_554
Rh0 Rh2 2.723356 1_555
Rh0 Rh1 2.723356 1_654
Rh0 Rh1 2.723356 1_555
Rh0 Sr1 3.171243 1_655
Rh0 Sr0 3.171243 1_555
Rh0 Sr0 3.171248 1_655
Rh0 Sr1 3.171248 1_555
Rh0 Sr0 3.198582 1_565
Rh0 Sr1 3.198582 1_645
Rh1 Rh2 2.723356 1_455
Rh1 Rh2 2.723356 1_555
Rh1 Sr1 3.171243 1_556
Rh1 Sr0 3.171243 1_555
Rh1 Sr0 3.171248 1_556
Rh1 Sr1 3.171248 1_555
Rh1 Sr0 3.198583 1_565
Rh1 Sr1 3.198583 1_546
Rh2 Sr1 3.171245 1_556
Rh2 Sr0 3.171245 1_655
Rh2 Sr1 3.171246 1_655
Rh2 Sr0 3.171246 1_556
Rh2 Sr1 3.198580 1_646
Rh2 Sr0 3.198580 1_565
