# generated using pymatgen
data_Hf4Re6MoW
_symmetry_space_group_name_H-M   'P 1'
_cell_length_a   5.27680706
_cell_length_b   5.26994462
_cell_length_c   8.65276590
_cell_angle_alpha   90.00000000
_cell_angle_beta   90.00000000
_cell_angle_gamma   119.96817530
_symmetry_Int_Tables_number   1
_chemical_formula_structural   Hf4Re6MoW
_chemical_formula_sum   'Hf4 Re6 Mo1 W1'
_cell_volume   208.45006543
_cell_formula_units_Z   1
loop_
 _symmetry_equiv_pos_site_id
 _symmetry_equiv_pos_as_xyz
  1  'x, y, z'
loop_
 _atom_site_type_symbol
 _atom_site_label
 _atom_site_symmetry_multiplicity
 _atom_site_fract_x
 _atom_site_fract_y
 _atom_site_fract_z
 _atom_site_occupancy
  Hf  Hf0  1  0.33292648  0.66597240  0.06158595  1
  Hf  Hf1  1  0.66712904  0.33378565  0.56053257  1
  Hf  Hf2  1  0.66712904  0.33378565  0.93946743  1
  Hf  Hf3  1  0.33292648  0.66597240  0.43841405  1
  Re  Re0  1  0.99951824  0.00111035  0.99916143  1
  Re  Re1  1  0.99951824  0.00111035  0.50083857  1
  Re  Re2  1  0.65705154  0.82725080  0.75000000  1
  Re  Re3  1  0.34230221  0.16993305  0.25000000  1
  Re  Re4  1  0.82731054  0.16954454  0.25000000  1
  Re  Re5  1  0.17287104  0.34233030  0.75000000  1
  Mo  Mo0  1  0.17149078  0.82923821  0.75000000  1
  W  W0  1  0.82982539  0.65996631  0.25000000  1
loop_
_geom_bond_atom_site_label_1
_geom_bond_atom_site_label_2
_geom_bond_distance
_geom_bond_site_symmetry_2
Hf0 Re5 3.074418 1_554
Hf0 Re2 3.076400 1_554
Hf0 Mo0 3.076858 1_554
Hf0 Re0 3.083039 1_454
Hf0 Re0 3.094716 1_564
Hf0 Re3 3.095574 1_565
Hf0 Re4 3.096727 1_565
Hf0 Re0 3.100094 1_464
Hf0 W0 3.101112 1_555
Hf0 W0 3.102053 1_455
Hf0 Re3 3.102105 1_555
Hf0 Re4 3.106006 1_455
Hf0 Hf2 3.221092 1_554
Hf0 Hf2 3.221780 1_454
Hf0 Hf2 3.226737 1_564
Hf0 Hf3 3.260605 1_555
Hf1 Re4 3.068270 1_555
Hf1 Re3 3.069971 1_555
Hf1 W0 3.072020 1_555
Hf1 Re1 3.080394 1_555
Hf1 Re1 3.090060 1_565
Hf1 Re1 3.095266 1_455
Hf1 Re2 3.097007 1_555
Hf1 Re5 3.099880 1_555
Hf1 Mo0 3.105786 1_655
Hf1 Mo0 3.106514 1_545
Hf1 Re2 3.110379 1_545
Hf1 Re5 3.113139 1_655
Hf1 Hf3 3.221092 1_555
Hf1 Hf3 3.221780 1_655
Hf1 Hf3 3.226737 1_545
Hf1 Hf2 3.278835 1_555
Hf2 Re4 3.068270 1_556
Hf2 Re3 3.069971 1_556
Hf2 W0 3.072020 1_556
Hf2 Re0 3.080394 1_555
Hf2 Re0 3.090060 1_565
Hf2 Re0 3.095266 1_455
Hf2 Re2 3.097007 1_555
Hf2 Re5 3.099880 1_555
Hf2 Mo0 3.105786 1_655
Hf2 Mo0 3.106514 1_545
Hf2 Re2 3.110379 1_545
Hf2 Re5 3.113139 1_655
Hf3 Re5 3.074418 1_555
Hf3 Re2 3.076400 1_555
Hf3 Mo0 3.076858 1_555
Hf3 Re1 3.083039 1_455
Hf3 Re1 3.094716 1_565
Hf3 Re3 3.095574 1_565
Hf3 Re4 3.096727 1_565
Hf3 Re1 3.100094 1_465
Hf3 W0 3.101112 1_555
Hf3 W0 3.102053 1_455
Hf3 Re3 3.102105 1_555
Hf3 Re4 3.106006 1_455
Re0 Re5 2.659898 1_655
Re0 Re2 2.664414 1_545
Re0 Re4 2.670266 1_556
Re0 W0 2.671422 1_546
Re0 Re3 2.677020 1_656
Re1 Re5 2.659898 1_655
Re1 Re2 2.664414 1_545
Re1 Re4 2.670266 1_555
Re1 W0 2.671422 1_545
Re1 Re3 2.677020 1_655
Re2 Re5 2.556445 1_555
Re2 Re5 2.719475 1_665
Re3 Re4 2.560319 1_555
Re3 W0 2.578761 1_555
Re3 W0 2.697205 1_445
Re3 Re4 2.716490 1_455
Re4 W0 2.577892 1_555
Re4 W0 2.692102 1_545
Mo0 Re2 2.567458 1_555
Mo0 Re5 2.569624 1_555
Mo0 Re0 2.667040 1_465
Mo0 Re1 2.667040 1_465
Mo0 Re5 2.700336 1_565
Mo0 Re2 2.709380 1_455
