# generated using pymatgen
data_Ba3P4O13
_symmetry_space_group_name_H-M   'P 1'
_cell_length_a   7.60628504
_cell_length_b   8.67596467
_cell_length_c   10.62290596
_cell_angle_alpha   108.00114326
_cell_angle_beta   104.57568471
_cell_angle_gamma   102.51083200
_symmetry_Int_Tables_number   1
_chemical_formula_structural   Ba3P4O13
_chemical_formula_sum   'Ba6 P8 O26'
_cell_volume   611.35849291
_cell_formula_units_Z   2
loop_
 _symmetry_equiv_pos_site_id
 _symmetry_equiv_pos_as_xyz
  1  'x, y, z'
loop_
 _atom_site_type_symbol
 _atom_site_label
 _atom_site_symmetry_multiplicity
 _atom_site_fract_x
 _atom_site_fract_y
 _atom_site_fract_z
 _atom_site_occupancy
  Ba  Ba0  1  0.14841512  0.22886700  0.22851755  1
  Ba  Ba1  1  0.85158488  0.77113300  0.77148245  1
  Ba  Ba2  1  0.63296062  0.22192794  0.72854476  1
  Ba  Ba3  1  0.36703938  0.77807206  0.27145524  1
  Ba  Ba4  1  -0.00000000  -0.00000000  0.50000000  1
  Ba  Ba5  1  0.50000000  -0.00000000  -0.00000000  1
  P  P0  1  0.15310828  0.52126058  0.86546381  1
  P  P1  1  0.84689172  0.47873942  0.13453619  1
  P  P2  1  0.33695022  0.46102634  0.63400102  1
  P  P3  1  0.66304978  0.53897366  0.36599898  1
  P  P4  1  0.32760511  0.79721948  0.63677148  1
  P  P5  1  0.67239489  0.20278052  0.36322852  1
  P  P6  1  0.84095119  0.81667260  0.14470978  1
  P  P7  1  0.15904881  0.18332740  0.85529022  1
  O  O0  1  0.29774685  0.16635725  0.77640017  1
  O  O1  1  0.70225315  0.83364275  0.22359983  1
  O  O2  1  0.95031982  0.10639793  0.75719295  1
  O  O3  1  0.04968018  0.89360207  0.24280705  1
  O  O4  1  0.18977551  0.11852681  0.97340784  1
  O  O5  1  0.81022449  0.88147319  0.02659216  1
  O  O6  1  0.19956200  0.38786312  0.93109538  1
  O  O7  1  0.80043800  0.61213688  0.06890462  1
  O  O8  1  0.70448544  0.14241303  0.48389657  1
  O  O9  1  0.29551456  0.85758697  0.51610343  1
  O  O10  1  0.82013134  0.19870181  0.29206430  1
  O  O11  1  0.17986866  0.80129819  0.70793570  1
  O  O12  1  0.46686456  0.11492110  0.26007664  1
  O  O13  1  0.53313544  0.88507890  0.73992336  1
  O  O14  1  0.69351764  0.40651576  0.43772426  1
  O  O15  1  0.30648236  0.59348424  0.56227574  1
  O  O16  1  0.28401589  0.69314617  0.96977098  1
  O  O17  1  0.71598411  0.30685383  0.03022902  1
  O  O18  1  0.73434082  0.71176588  0.48289862  1
  O  O19  1  0.26565918  0.28823412  0.51710138  1
  O  O20  1  0.46163894  0.48431363  0.26929025  1
  O  O21  1  0.53836106  0.51568637  0.73070975  1
  O  O22  1  0.80653240  0.53681378  0.27994600  1
  O  O23  1  0.19346760  0.46318622  0.72005400  1
  O  O24  1  0.94391059  0.49889771  0.82186479  1
  O  O25  1  0.05608941  0.50110229  0.17813521  1
loop_
_geom_bond_atom_site_label_1
_geom_bond_atom_site_label_2
_geom_bond_distance
_geom_bond_site_symmetry_2
Ba0 O4 2.704749 1_554
Ba0 O20 2.715736 1_555
Ba0 O10 2.726493 1_455
Ba0 O25 2.769286 1_555
Ba0 O12 2.791131 1_555
Ba0 O19 2.812035 1_555
Ba0 O3 2.903741 1_545
Ba0 O5 3.189079 1_445
Ba1 O5 2.704749 1_556
Ba1 O21 2.715736 1_555
Ba1 O11 2.726493 1_655
Ba1 O24 2.769286 1_555
Ba1 O13 2.791131 1_555
Ba1 O18 2.812035 1_555
Ba1 O2 2.903741 1_565
Ba1 O4 3.189079 1_665
Ba2 O24 2.690036 1_555
Ba2 O0 2.695052 1_555
Ba2 O8 2.700399 1_555
Ba2 O21 2.789348 1_555
Ba2 O2 2.791304 1_555
Ba2 O13 2.904346 1_545
Ba2 O17 2.921049 1_556
Ba3 O25 2.690036 1_555
Ba3 O1 2.695052 1_555
Ba3 O9 2.700399 1_555
Ba3 O20 2.789348 1_555
Ba3 O3 2.791304 1_555
Ba3 O12 2.904346 1_565
Ba3 O16 2.921049 1_554
Ba4 O3 2.751626 1_545
Ba4 O2 2.751626 1_455
Ba4 O19 2.777568 1_555
Ba4 O18 2.777568 1_445
Ba4 O9 2.783651 1_545
Ba4 O8 2.783651 1_455
Ba4 O1 2.907058 1_445
Ba4 O0 2.907058 1_555
Ba5 O17 2.683436 1_555
Ba5 O16 2.683436 1_544
Ba5 O13 2.728978 1_544
Ba5 O12 2.728978 1_555
Ba5 O5 2.756914 1_545
Ba5 O4 2.756914 1_554
O0 P7 1.507644 1_555
O1 P6 1.507644 1_555
O2 P7 1.526546 1_655
O3 P6 1.526546 1_455
O4 P7 1.513419 1_555
O5 P6 1.513419 1_555
O6 P0 1.581867 1_555
O6 P7 1.627083 1_555
O7 P1 1.581867 1_555
O7 P6 1.627083 1_555
O8 P5 1.513233 1_555
O9 P4 1.513233 1_555
O10 P5 1.504582 1_555
O11 P4 1.504582 1_555
O12 P5 1.526759 1_555
O13 P4 1.526759 1_555
O14 P3 1.588272 1_555
O14 P5 1.650720 1_555
O15 P2 1.588272 1_555
O15 P4 1.650720 1_555
O16 P0 1.491033 1_555
O17 P1 1.491033 1_555
O18 P3 1.497266 1_555
O19 P2 1.497266 1_555
O20 P3 1.489717 1_555
O21 P2 1.489717 1_555
O22 P3 1.589808 1_555
O22 P1 1.599616 1_555
O23 P2 1.589808 1_555
O23 P0 1.599616 1_555
O24 P0 1.491274 1_655
O25 P1 1.491274 1_455
