# generated using pymatgen
data_AgBiSe2
_symmetry_space_group_name_H-M   'P 1'
_cell_length_a   7.24469575
_cell_length_b   7.24469575
_cell_length_c   7.24469575
_cell_angle_alpha   132.26735235
_cell_angle_beta   132.26735235
_cell_angle_gamma   69.80709928
_symmetry_Int_Tables_number   1
_chemical_formula_structural   AgBiSe2
_chemical_formula_sum   'Ag2 Bi2 Se4'
_cell_volume   204.20042103
_cell_formula_units_Z   2
loop_
 _symmetry_equiv_pos_site_id
 _symmetry_equiv_pos_as_xyz
  1  'x, y, z'
loop_
 _atom_site_type_symbol
 _atom_site_label
 _atom_site_symmetry_multiplicity
 _atom_site_fract_x
 _atom_site_fract_y
 _atom_site_fract_z
 _atom_site_occupancy
  Ag  Ag0  1  0.50000000  0.50000000  0.00000000  1
  Ag  Ag1  1  0.25000000  0.75000000  0.50000000  1
  Bi  Bi0  1  0.00000000  0.00000000  0.00000000  1
  Bi  Bi1  1  0.75000000  0.25000000  0.50000000  1
  Se  Se0  1  0.74963900  0.74963900  0.00000000  1
  Se  Se1  1  0.25036100  0.25036100  0.00000000  1
  Se  Se2  1  0.00036100  0.50036100  0.50000000  1
  Se  Se3  1  0.49963900  0.99963900  0.50000000  1
loop_
_geom_bond_atom_site_label_1
_geom_bond_atom_site_label_2
_geom_bond_distance
_geom_bond_site_symmetry_2
Ag0 Se3 2.931237 1_555
Ag0 Se2 2.931237 1_655
Ag0 Se2 2.931237 1_554
Ag0 Se3 2.931237 1_544
Ag0 Se0 2.966457 1_555
Ag0 Se1 2.966457 1_555
Ag1 Se0 2.931237 1_556
Ag1 Se1 2.931237 1_555
Ag1 Se1 2.931237 1_566
Ag1 Se0 2.931237 1_455
Ag1 Se3 2.966457 1_555
Ag1 Se2 2.966457 1_555
Bi0 Se3 2.931237 1_444
Bi0 Se2 2.931237 1_544
Bi0 Se2 2.931237 1_555
Bi0 Se3 2.931237 1_545
Bi0 Se1 2.975037 1_555
Bi0 Se0 2.975037 1_445
Bi1 Se0 2.931237 1_545
Bi1 Se1 2.931237 1_656
Bi1 Se0 2.931237 1_556
Bi1 Se1 2.931237 1_555
Bi1 Se2 2.975037 1_655
Bi1 Se3 2.975037 1_545
