# generated using pymatgen
data_Cs4Cd(PS4)2
_symmetry_space_group_name_H-M   'P 1'
_cell_length_a   9.42220558
_cell_length_b   9.48372992
_cell_length_c   11.40809262
_cell_angle_alpha   104.83383829
_cell_angle_beta   103.27322900
_cell_angle_gamma   92.27348295
_symmetry_Int_Tables_number   1
_chemical_formula_structural   Cs4Cd(PS4)2
_chemical_formula_sum   'Cs8 Cd2 P4 S16'
_cell_volume   953.83653627
_cell_formula_units_Z   2
loop_
 _symmetry_equiv_pos_site_id
 _symmetry_equiv_pos_as_xyz
  1  'x, y, z'
loop_
 _atom_site_type_symbol
 _atom_site_label
 _atom_site_symmetry_multiplicity
 _atom_site_fract_x
 _atom_site_fract_y
 _atom_site_fract_z
 _atom_site_occupancy
  Cs  Cs0  1  0.92865661  0.52284883  0.24208466  1
  Cs  Cs1  1  0.07134339  0.47715117  0.75791534  1
  Cs  Cs2  1  0.76153081  0.98220405  0.45870810  1
  Cs  Cs3  1  0.23846919  0.01779595  0.54129190  1
  Cs  Cs4  1  0.59260223  0.74306619  0.01117062  1
  Cs  Cs5  1  0.40739777  0.25693381  0.98882938  1
  Cs  Cs6  1  0.61602101  0.68607370  0.61894673  1
  Cs  Cs7  1  0.38397899  0.31392630  0.38105327  1
  Cd  Cd0  1  0.84668583  0.13380457  0.92481140  1
  Cd  Cd1  1  0.15331417  0.86619543  0.07518860  1
  P  P0  1  0.95262183  0.11292034  0.22525983  1
  P  P1  1  0.04737817  0.88707966  0.77474017  1
  P  P2  1  0.36864557  0.68912436  0.25546304  1
  P  P3  1  0.63135443  0.31087564  0.74453696  1
  S  S0  1  0.97101110  0.89867804  0.22773089  1
  S  S1  1  0.02898890  0.10132196  0.77226911  1
  S  S2  1  0.59724119  0.09215351  0.74325933  1
  S  S3  1  0.40275881  0.90784649  0.25674067  1
  S  S4  1  0.28391967  0.66971588  0.39829094  1
  S  S5  1  0.71608033  0.33028412  0.60170906  1
  S  S6  1  0.77809168  0.40800354  0.91414001  1
  S  S7  1  0.22190832  0.59199646  0.08585999  1
  S  S8  1  0.00152774  0.24652974  0.40018535  1
  S  S9  1  0.99847226  0.75347026  0.59981465  1
  S  S10  1  0.09163518  0.16766681  0.12317856  1
  S  S11  1  0.90836482  0.83233319  0.87682144  1
  S  S12  1  0.74516595  0.13346048  0.12773548  1
  S  S13  1  0.25483405  0.86653952  0.87226452  1
  S  S14  1  0.56081634  0.59594201  0.26663322  1
  S  S15  1  0.43918366  0.40405799  0.73336678  1
loop_
_geom_bond_atom_site_label_1
_geom_bond_atom_site_label_2
_geom_bond_distance
_geom_bond_site_symmetry_2
Cs0 S4 3.455507 1_655
Cs0 S6 3.542517 1_554
Cs0 S8 3.547664 1_655
Cs0 S0 3.620227 1_555
Cs0 S14 3.620510 1_555
Cs0 S7 3.735893 1_655
Cs0 S12 3.784064 1_555
Cs0 S10 3.817321 1_655
Cs0 S9 3.994230 1_555
Cs1 S5 3.455507 1_455
Cs1 S7 3.542517 1_556
Cs1 S9 3.547664 1_455
Cs1 S1 3.620227 1_555
Cs1 S15 3.620510 1_555
Cs1 S6 3.735893 1_455
Cs1 S13 3.784064 1_555
Cs1 S11 3.817321 1_455
Cs1 S8 3.994230 1_555
Cs2 S5 3.378980 1_565
Cs2 S3 3.554670 1_555
Cs2 S9 3.578136 1_555
Cs2 S0 3.593048 1_555
Cs2 S8 3.597733 1_665
Cs2 S1 3.740094 1_665
Cs2 S2 3.837126 1_565
Cs2 S14 3.903138 1_555
Cs3 S4 3.378980 1_545
Cs3 S2 3.554670 1_555
Cs3 S8 3.578136 1_555
Cs3 S1 3.593048 1_555
Cs3 S9 3.597733 1_445
Cs3 S0 3.740094 1_445
Cs3 S3 3.837126 1_545
Cs3 S15 3.903138 1_555
Cs4 S13 3.597333 1_554
Cs4 S14 3.602727 1_555
Cs4 S12 3.704249 1_565
Cs4 S3 3.710961 1_555
Cs4 S6 3.728964 1_554
Cs4 S11 3.804722 1_554
Cs4 S0 3.829460 1_555
Cs4 S15 3.844544 1_554
Cs4 S7 4.070947 1_555
Cs5 S12 3.597333 1_556
Cs5 S15 3.602727 1_555
Cs5 S13 3.704249 1_545
Cs5 S2 3.710961 1_555
Cs5 S7 3.728964 1_556
Cs5 S10 3.804722 1_556
Cs5 S1 3.829460 1_555
Cs5 S14 3.844544 1_556
Cs5 S6 4.070947 1_555
Cs6 S11 3.471655 1_555
Cs6 S4 3.506662 1_555
Cs6 S5 3.508644 1_555
Cs6 S9 3.700201 1_555
Cs6 S15 3.750474 1_555
Cs6 S2 3.774475 1_565
Cs6 S14 3.794865 1_555
Cs7 S10 3.471655 1_555
Cs7 S5 3.506662 1_555
Cs7 S4 3.508644 1_555
Cs7 S8 3.700201 1_555
Cs7 S14 3.750474 1_555
Cs7 S3 3.774475 1_545
Cs7 S15 3.794865 1_555
Cd0 S1 2.685855 1_655
Cd0 S2 2.691076 1_555
Cd0 S12 2.700840 1_556
Cd0 S6 2.730215 1_555
Cd0 S10 2.778800 1_656
Cd0 S11 2.878927 1_545
Cd1 S0 2.685855 1_455
Cd1 S3 2.691076 1_555
Cd1 S13 2.700840 1_554
Cd1 S7 2.730215 1_555
Cd1 S11 2.778800 1_454
Cd1 S10 2.878927 1_565
P0 S8 2.009202 1_655
P0 S0 2.052829 1_545
P0 S12 2.058917 1_555
P0 S10 2.073023 1_655
P1 S9 2.009202 1_455
P1 S1 2.052829 1_565
P1 S13 2.058917 1_555
P1 S11 2.073023 1_455
P2 S4 2.016258 1_555
P2 S14 2.038232 1_555
P2 S7 2.064384 1_555
P2 S3 2.082240 1_555
P3 S5 2.016258 1_555
P3 S15 2.038232 1_555
P3 S6 2.064384 1_555
P3 S2 2.082240 1_555
