# generated using pymatgen
data_Cs2Tc5(WSe2)7
_symmetry_space_group_name_H-M   'P 1'
_cell_length_a   9.88676966
_cell_length_b   9.90580028
_cell_length_c   9.91395280
_cell_angle_alpha   60.54544299
_cell_angle_beta   60.12604825
_cell_angle_gamma   60.23805655
_symmetry_Int_Tables_number   1
_chemical_formula_structural   Cs2Tc5(WSe2)7
_chemical_formula_sum   'Cs2 Tc5 W7 Se14'
_cell_volume   691.24629058
_cell_formula_units_Z   1
loop_
 _symmetry_equiv_pos_site_id
 _symmetry_equiv_pos_as_xyz
  1  'x, y, z'
loop_
 _atom_site_type_symbol
 _atom_site_label
 _atom_site_symmetry_multiplicity
 _atom_site_fract_x
 _atom_site_fract_y
 _atom_site_fract_z
 _atom_site_occupancy
  Cs  Cs0  1  0.37514514  0.37693465  0.37943484  1
  Cs  Cs1  1  0.62456252  0.62105736  0.62154235  1
  Tc  Tc0  1  0.87566249  0.00594745  0.70330497  1
  Tc  Tc1  1  0.12308696  0.99381894  0.29482109  1
  Tc  Tc2  1  0.00747659  0.70479458  0.87619205  1
  Tc  Tc3  1  0.70402498  0.87649841  0.00779954  1
  Tc  Tc4  1  0.05908745  0.19979020  0.88175721  1
  W  W0  1  0.29353258  0.12439983  0.99332696  1
  W  W1  1  0.19373814  0.88802027  0.05809943  1
  W  W2  1  0.88671245  0.05844295  0.19484306  1
  W  W3  1  0.94107469  0.80495601  0.11366616  1
  W  W4  1  0.80709132  0.11335410  0.94006819  1
  W  W5  1  0.11209354  0.94372874  0.80383550  1
  W  W6  1  0.99438052  0.29434855  0.12238051  1
  Se  Se0  1  0.98142309  0.24488889  0.63995940  1
  Se  Se1  1  0.24465158  0.63658045  0.97781110  1
  Se  Se2  1  0.63662292  0.97761958  0.24566726  1
  Se  Se3  1  0.01946860  0.75635296  0.36300120  1
  Se  Se4  1  0.75825755  0.36052911  0.01711331  1
  Se  Se5  1  0.35901271  0.02278008  0.75504545  1
  Se  Se6  1  0.16881800  0.42079792  0.81398267  1
  Se  Se7  1  0.41835556  0.81419885  0.16935807  1
  Se  Se8  1  0.81770806  0.16533029  0.42122765  1
  Se  Se9  1  0.83188411  0.58421606  0.18003322  1
  Se  Se10  1  0.58363315  0.17815153  0.83508442  1
  Se  Se11  1  0.18090688  0.83224121  0.58373829  1
  Se  Se12  1  0.78163856  0.78123662  0.78295425  1
  Se  Se13  1  0.21995187  0.21898541  0.22395284  1
loop_
_geom_bond_atom_site_label_1
_geom_bond_atom_site_label_2
_geom_bond_distance
_geom_bond_site_symmetry_2
Cs0 Se5 3.649039 1_555
Cs0 Se3 3.655867 1_555
Cs0 Se4 3.699363 1_555
Cs0 Se13 3.780171 1_555
Cs0 Se6 3.887929 1_555
Cs0 Se0 3.905291 1_455
Cs0 Se7 3.919237 1_555
Cs0 Se8 3.944223 1_555
Cs0 Se2 3.959760 1_545
Cs0 Se1 3.985591 1_554
Cs1 Se0 3.645115 1_555
Cs1 Se1 3.654011 1_555
Cs1 Se2 3.661543 1_555
Cs1 Se12 3.861244 1_555
Cs1 Se9 3.922276 1_555
Cs1 Se3 3.931556 1_655
Cs1 Se11 3.938690 1_555
Cs1 Se4 3.951039 1_556
Cs1 Se10 3.958396 1_555
Cs1 Se5 3.978193 1_565
Tc0 Tc2 2.621509 1_645
Tc0 Tc3 2.624308 1_546
Tc0 W5 2.669025 1_645
Tc0 W4 2.693686 1_555
Tc1 W0 2.605953 1_564
Tc1 W6 2.608699 1_465
Tc1 W2 2.655556 1_465
Tc1 W1 2.674510 1_555
Tc2 W3 2.658771 1_456
Tc2 W5 2.684745 1_555
Tc3 W4 2.671448 1_564
Tc3 W3 2.677031 1_555
Tc4 W6 2.657006 1_456
Tc4 W0 2.678988 1_555
Tc4 W1 2.700604 1_546
Tc4 W2 2.706365 1_456
Tc4 W4 2.733272 1_455
Tc4 W5 2.740309 1_545
W0 W6 2.573726 1_456
W0 W1 2.655613 1_546
W1 W2 2.639280 1_465
W1 W3 2.728476 1_455
W1 W5 2.743547 1_554
W2 W6 2.677092 1_555
W2 W3 2.730983 1_545
W2 W4 2.738577 1_554
W3 W4 2.670598 1_564
W3 W5 2.676691 1_654
W4 W5 2.623917 1_645
Se0 W5 2.589640 1_645
Se0 W4 2.613253 1_555
Se0 Tc4 2.641116 1_655
Se0 Tc0 2.725995 1_555
Se1 W3 2.610856 1_456
Se1 Tc2 2.660989 1_555
Se1 W5 2.661146 1_555
Se1 W1 2.719653 1_556
Se2 W3 2.619981 1_555
Se2 W4 2.642763 1_564
Se2 Tc3 2.665246 1_555
Se2 W2 2.708506 1_565
Se3 W2 2.613595 1_465
Se3 W1 2.640516 1_555
Se3 Tc1 2.679286 1_555
Se3 W3 2.703787 1_455
Se4 Tc4 2.570184 1_654
Se4 W2 2.634927 1_555
Se4 W4 2.666419 1_554
Se4 W6 2.683940 1_555
Se5 Tc4 2.595958 1_555
Se5 W1 2.609475 1_546
Se5 W5 2.675036 1_545
Se5 W0 2.679755 1_555
Se6 Tc4 2.570296 1_555
Se6 W0 2.599598 1_555
Se6 W6 2.648905 1_456
Se6 Tc2 2.666491 1_555
Se7 Tc1 2.576348 1_555
Se7 W1 2.591861 1_555
Se7 W0 2.667857 1_564
Se7 Tc3 2.678626 1_555
Se8 W2 2.591961 1_555
Se8 W6 2.607553 1_555
Se8 Tc1 2.608585 1_645
Se8 Tc0 2.645250 1_555
Se9 Tc3 2.559482 1_555
Se9 W3 2.569162 1_555
Se9 Tc2 2.612462 1_654
Se9 W6 2.696662 1_555
Se10 Tc0 2.548961 1_555
Se10 W4 2.569431 1_555
Se10 Tc3 2.597092 1_546
Se10 W0 2.680151 1_555
Se11 Tc2 2.556761 1_555
Se11 W5 2.566886 1_555
Se11 Tc0 2.600067 1_465
Se11 Tc1 2.703134 1_555
Se12 Tc0 2.457015 1_565
Se12 Tc3 2.468611 1_556
Se12 Tc2 2.470299 1_655
Se13 Tc1 2.508967 1_545
Se13 W6 2.527837 1_455
Se13 W0 2.531391 1_554
