# generated using pymatgen
data_CaSn6RuRh3
_symmetry_space_group_name_H-M   'P 1'
_cell_length_a   6.92498784
_cell_length_b   6.92498756
_cell_length_c   6.88878909
_cell_angle_alpha   119.77157296
_cell_angle_beta   119.77157038
_cell_angle_gamma   90.73955126
_symmetry_Int_Tables_number   1
_chemical_formula_structural   CaSn6RuRh3
_chemical_formula_sum   'Ca1 Sn6 Ru1 Rh3'
_cell_volume   233.67991034
_cell_formula_units_Z   1
loop_
 _symmetry_equiv_pos_site_id
 _symmetry_equiv_pos_as_xyz
  1  'x, y, z'
loop_
 _atom_site_type_symbol
 _atom_site_label
 _atom_site_symmetry_multiplicity
 _atom_site_fract_x
 _atom_site_fract_y
 _atom_site_fract_z
 _atom_site_occupancy
  Ca  Ca0  1  0.99915068  0.99915068  0.99896982  1
  Sn  Sn0  1  0.87616558  0.53534672  0.00311857  1
  Sn  Sn1  1  0.53534672  0.87616558  0.00311857  1
  Sn  Sn2  1  0.12328199  0.12328199  0.65827130  1
  Sn  Sn3  1  0.00194560  0.50578243  0.50188915  1
  Sn  Sn4  1  0.46843234  0.46843234  0.34320756  1
  Sn  Sn5  1  0.50578243  0.00194560  0.50188915  1
  Ru  Ru0  1  0.75074484  0.75074484  0.34584137  1
  Rh  Rh0  1  0.24043361  0.59760931  0.99799302  1
  Rh  Rh1  1  0.40110692  0.40110692  0.64771046  1
  Rh  Rh2  1  0.59760931  0.24043361  0.99799302  1
loop_
_geom_bond_atom_site_label_1
_geom_bond_atom_site_label_2
_geom_bond_distance
_geom_bond_site_symmetry_2
Ca0 Rh1 3.249767 1_666
Ca0 Rh0 3.261370 1_655
Ca0 Rh2 3.261370 1_565
Ca0 Ru0 3.273056 1_555
Ca0 Sn2 3.312747 1_665
Ca0 Sn0 3.329680 1_556
Ca0 Sn1 3.329681 1_556
Ca0 Sn4 3.341631 1_666
Ca0 Sn3 3.442113 1_655
Ca0 Sn5 3.442113 1_565
Ca0 Sn3 3.488972 1_666
Ca0 Sn5 3.488972 1_666
Ca0 Sn4 3.754648 1_555
Ca0 Sn2 3.785801 1_666
Ca0 Sn0 3.809733 1_566
Ca0 Sn1 3.809734 1_656
Ru0 Sn2 2.596769 1_665
Ru0 Sn5 2.662585 1_565
Ru0 Sn3 2.662585 1_655
Ru0 Sn0 2.669439 1_555
Ru0 Sn1 2.669439 1_555
Ru0 Sn4 2.734108 1_555
Rh0 Sn0 2.574085 1_456
Rh0 Sn3 2.649739 1_555
Rh0 Sn5 2.673304 1_566
Rh0 Sn2 2.708528 1_555
Rh0 Sn4 2.714552 1_556
Rh0 Sn1 2.766261 1_556
Rh0 Ru0 2.885337 1_556
Rh0 Rh1 2.890834 1_555
Rh1 Sn4 2.602256 1_555
Rh1 Sn5 2.681901 1_555
Rh1 Sn3 2.681902 1_555
Rh1 Sn1 2.709823 1_556
Rh1 Sn0 2.709823 1_556
Rh1 Sn2 2.755139 1_555
Rh1 Rh2 2.890834 1_555
Rh2 Sn1 2.574085 1_546
Rh2 Sn5 2.649739 1_555
Rh2 Sn3 2.673304 1_656
Rh2 Sn2 2.708528 1_555
Rh2 Sn4 2.714552 1_556
Rh2 Sn0 2.766261 1_556
Rh2 Ru0 2.885337 1_556
