# generated using pymatgen
data_Zr10BeNiBi6
_symmetry_space_group_name_H-M   'P 1'
_cell_length_a   8.76117176
_cell_length_b   8.76117116
_cell_length_c   5.87561455
_cell_angle_alpha   90.00000000
_cell_angle_beta   90.00000000
_cell_angle_gamma   119.99999482
_symmetry_Int_Tables_number   1
_chemical_formula_structural   Zr10BeNiBi6
_chemical_formula_sum   'Zr10 Be1 Ni1 Bi6'
_cell_volume   390.57848045
_cell_formula_units_Z   1
loop_
 _symmetry_equiv_pos_site_id
 _symmetry_equiv_pos_as_xyz
  1  'x, y, z'
loop_
 _atom_site_type_symbol
 _atom_site_label
 _atom_site_symmetry_multiplicity
 _atom_site_fract_x
 _atom_site_fract_y
 _atom_site_fract_z
 _atom_site_occupancy
  Zr  Zr0  1  0.75195778  0.75195778  0.75191238  1
  Zr  Zr1  1  0.24804222  0.00000000  0.75191238  1
  Zr  Zr2  1  0.00000000  0.24804222  0.75191238  1
  Zr  Zr3  1  0.24804222  0.24804222  0.24808762  1
  Zr  Zr4  1  0.75195778  1.00000000  0.24808762  1
  Zr  Zr5  1  1.00000000  0.75195778  0.24808762  1
  Zr  Zr6  1  0.66666700  0.33333300  0.00000000  1
  Zr  Zr7  1  0.33333300  0.66666700  0.00000000  1
  Zr  Zr8  1  0.33333300  0.66666700  0.50000000  1
  Zr  Zr9  1  0.66666700  0.33333300  0.50000000  1
  Be  Be0  1  0.00000000  0.00000000  0.00000000  1
  Ni  Ni0  1  0.00000000  0.00000000  0.50000000  1
  Bi  Bi0  1  0.39008101  0.39008101  0.74919126  1
  Bi  Bi1  1  0.60991899  1.00000000  0.74919126  1
  Bi  Bi2  1  1.00000000  0.60991899  0.74919126  1
  Bi  Bi3  1  0.60991899  0.60991899  0.25080874  1
  Bi  Bi4  1  0.39008101  0.00000000  0.25080874  1
  Bi  Bi5  1  0.00000000  0.39008101  0.25080874  1
loop_
_geom_bond_atom_site_label_1
_geom_bond_atom_site_label_2
_geom_bond_distance
_geom_bond_site_symmetry_2
Zr6 Zr9 2.937807 1_555
Zr6 Zr9 2.937807 1_554
Zr7 Zr8 2.937807 1_554
Zr7 Zr8 2.937807 1_555
Be0 Zr2 2.616741 1_554
Be0 Zr5 2.616741 1_445
Be0 Zr4 2.616741 1_445
Be0 Zr1 2.616741 1_554
Be0 Zr3 2.616741 1_555
Be0 Zr0 2.616741 1_444
Ni0 Zr2 2.629326 1_555
Ni0 Zr5 2.629326 1_445
Ni0 Zr4 2.629326 1_445
Ni0 Zr1 2.629326 1_555
Ni0 Zr3 2.629326 1_555
Ni0 Zr0 2.629326 1_445
Bi0 Zr1 2.995948 1_555
Bi0 Zr2 2.995948 1_555
Bi0 Zr8 3.076960 1_555
Bi0 Zr9 3.076960 1_555
Bi0 Zr7 3.081493 1_556
Bi0 Zr6 3.081494 1_556
Bi0 Zr0 3.170505 1_555
Bi0 Zr3 3.184533 1_556
Bi0 Zr3 3.196475 1_555
Bi1 Zr0 2.995948 1_555
Bi1 Zr2 2.995948 1_665
Bi1 Zr9 3.076952 1_565
Bi1 Zr8 3.076955 1_555
Bi1 Zr6 3.081486 1_566
Bi1 Zr7 3.081489 1_556
Bi1 Zr1 3.170505 1_565
Bi1 Zr4 3.184533 1_556
Bi1 Zr4 3.196475 1_555
Bi2 Zr0 2.995948 1_555
Bi2 Zr1 2.995948 1_665
Bi2 Zr8 3.076952 1_655
Bi2 Zr9 3.076955 1_555
Bi2 Zr7 3.081486 1_656
Bi2 Zr6 3.081489 1_556
Bi2 Zr2 3.170505 1_655
Bi2 Zr5 3.184533 1_556
Bi2 Zr5 3.196475 1_555
Bi3 Zr4 2.995948 1_555
Bi3 Zr5 2.995948 1_555
Bi3 Zr9 3.076960 1_555
Bi3 Zr8 3.076960 1_555
Bi3 Zr6 3.081493 1_555
Bi3 Zr7 3.081494 1_555
Bi3 Zr3 3.170505 1_555
Bi3 Zr0 3.184533 1_554
Bi3 Zr0 3.196475 1_555
Bi4 Zr3 2.995948 1_555
Bi4 Zr5 2.995948 1_445
Bi4 Zr8 3.076952 1_545
Bi4 Zr9 3.076955 1_555
Bi4 Zr7 3.081486 1_545
Bi4 Zr6 3.081489 1_555
Bi4 Zr4 3.170505 1_545
Bi4 Zr1 3.184533 1_554
Bi4 Zr1 3.196475 1_555
Bi5 Zr3 2.995948 1_555
Bi5 Zr4 2.995948 1_445
Bi5 Zr9 3.076952 1_455
Bi5 Zr8 3.076955 1_555
Bi5 Zr6 3.081486 1_455
Bi5 Zr7 3.081489 1_555
Bi5 Zr5 3.170505 1_455
Bi5 Zr2 3.184533 1_554
Bi5 Zr2 3.196475 1_555
