# generated using pymatgen
data_Hf2Sc2Si6Rh7
_symmetry_space_group_name_H-M   'P 1'
_cell_length_a   6.93267401
_cell_length_b   6.91568231
_cell_length_c   6.91568198
_cell_angle_alpha   109.38290926
_cell_angle_beta   109.46562745
_cell_angle_gamma   109.46563218
_symmetry_Int_Tables_number   1
_chemical_formula_structural   Hf2Sc2Si6Rh7
_chemical_formula_sum   'Hf2 Sc2 Si6 Rh7'
_cell_volume   255.55290798
_cell_formula_units_Z   1
loop_
 _symmetry_equiv_pos_site_id
 _symmetry_equiv_pos_as_xyz
  1  'x, y, z'
loop_
 _atom_site_type_symbol
 _atom_site_label
 _atom_site_symmetry_multiplicity
 _atom_site_fract_x
 _atom_site_fract_y
 _atom_site_fract_z
 _atom_site_occupancy
  Hf  Hf0  1  0.00000000  0.00000000  0.50000000  1
  Hf  Hf1  1  0.00000000  0.50000000  0.00000000  1
  Sc  Sc0  1  0.50000000  0.00000000  0.00000000  1
  Sc  Sc1  1  0.50000000  0.50000000  0.50000000  1
  Si  Si0  1  0.67704148  0.67937312  0.99766836  1
  Si  Si1  1  0.32295852  0.00233164  0.32062688  1
  Si  Si2  1  1.00000000  0.32065951  0.32065951  1
  Si  Si3  1  0.32295852  0.32062688  0.00233164  1
  Si  Si4  1  0.67704148  0.99766836  0.67937312  1
  Si  Si5  1  0.00000000  0.67934049  0.67934049  1
  Rh  Rh0  1  0.75173748  0.24996868  0.50176880  1
  Rh  Rh1  1  0.75173748  0.50176880  0.24996868  1
  Rh  Rh2  1  0.50000000  0.25000000  0.75000000  1
  Rh  Rh3  1  0.24826252  0.49823120  0.75003132  1
  Rh  Rh4  1  0.24826252  0.75003132  0.49823120  1
  Rh  Rh5  1  0.50000000  0.75000000  0.25000000  1
  Rh  Rh6  1  0.00000000  0.00000000  0.00000000  1
loop_
_geom_bond_atom_site_label_1
_geom_bond_atom_site_label_2
_geom_bond_distance
_geom_bond_site_symmetry_2
Hf0 Rh3 2.816704 1_555
Hf0 Rh1 2.816704 1_445
Hf0 Rh4 2.816704 1_545
Hf0 Rh0 2.816704 1_455
Hf0 Rh5 2.832181 1_445
Hf0 Rh2 2.832181 1_555
Hf0 Si2 2.877759 1_455
Hf0 Si5 2.877759 1_545
Hf0 Si4 2.896955 1_445
Hf0 Si1 2.896955 1_555
Hf0 Si3 2.896955 1_556
Hf0 Si0 2.896955 1_444
Hf1 Rh3 2.816704 1_554
Hf1 Rh1 2.816704 1_455
Hf1 Rh4 2.816704 1_555
Hf1 Rh0 2.816704 1_454
Hf1 Rh2 2.832181 1_454
Hf1 Rh5 2.832181 1_555
Hf1 Si2 2.877759 1_455
Hf1 Si5 2.877759 1_554
Hf1 Si3 2.896955 1_555
Hf1 Si0 2.896955 1_454
Hf1 Si1 2.896955 1_565
Hf1 Si4 2.896955 1_444
Sc0 Si1 2.868215 1_555
Sc0 Si4 2.868215 1_544
Sc0 Si3 2.868215 1_555
Sc0 Si0 2.868215 1_544
Sc0 Si2 2.887962 1_555
Sc0 Si5 2.887962 1_544
Sc1 Si0 2.868215 1_555
Sc1 Si3 2.868215 1_555
Sc1 Si1 2.868215 1_555
Sc1 Si4 2.868215 1_555
Sc1 Si5 2.887962 1_655
Sc1 Si2 2.887962 1_455
Rh0 Si1 2.457579 1_555
Rh0 Si2 2.460159 1_555
Rh0 Si5 2.460159 1_655
Rh0 Si4 2.462806 1_545
Rh0 Sc0 2.836706 1_555
Rh0 Sc1 2.836706 1_555
Rh1 Si3 2.457579 1_555
Rh1 Si5 2.460159 1_655
Rh1 Si2 2.460159 1_555
Rh1 Si0 2.462806 1_554
Rh1 Sc1 2.836706 1_555
Rh1 Sc0 2.836706 1_555
Rh2 Si3 2.459975 1_556
Rh2 Si1 2.459975 1_555
Rh2 Si4 2.459975 1_545
Rh2 Si0 2.459975 1_555
Rh2 Sc1 2.821776 1_555
Rh2 Sc0 2.821776 1_556
Rh3 Si0 2.457579 1_555
Rh3 Si2 2.460159 1_455
Rh3 Si5 2.460159 1_555
Rh3 Si3 2.462806 1_556
Rh3 Sc1 2.836706 1_555
Rh3 Sc0 2.836706 1_566
Rh4 Si4 2.457579 1_555
Rh4 Si5 2.460159 1_555
Rh4 Si2 2.460159 1_455
Rh4 Si1 2.462806 1_565
Rh4 Sc0 2.836706 1_566
Rh4 Sc1 2.836706 1_555
Rh5 Si0 2.459975 1_554
Rh5 Si4 2.459975 1_555
Rh5 Si1 2.459975 1_565
Rh5 Si3 2.459975 1_555
Rh5 Sc1 2.821776 1_555
Rh5 Sc0 2.821776 1_565
Rh6 Si2 2.563430 1_455
Rh6 Si5 2.563430 1_544
Rh6 Si3 2.563842 1_555
Rh6 Si0 2.563842 1_444
Rh6 Si1 2.563842 1_555
Rh6 Si4 2.563842 1_444
