# generated using pymatgen
data_Ba2InReN4
_symmetry_space_group_name_H-M   'P 1'
_cell_length_a   5.98062473
_cell_length_b   7.05864533
_cell_length_c   8.09045219
_cell_angle_alpha   92.63786473
_cell_angle_beta   90.00000000
_cell_angle_gamma   90.00000000
_symmetry_Int_Tables_number   1
_chemical_formula_structural   Ba2InReN4
_chemical_formula_sum   'Ba4 In2 Re2 N8'
_cell_volume   341.17741519
_cell_formula_units_Z   2
loop_
 _symmetry_equiv_pos_site_id
 _symmetry_equiv_pos_as_xyz
  1  'x, y, z'
loop_
 _atom_site_type_symbol
 _atom_site_label
 _atom_site_symmetry_multiplicity
 _atom_site_fract_x
 _atom_site_fract_y
 _atom_site_fract_z
 _atom_site_occupancy
  Ba  Ba0  1  0.25000000  0.27477778  0.09083250  1
  Ba  Ba1  1  0.75000000  0.72522222  0.90916750  1
  Ba  Ba2  1  0.75000000  0.95226460  0.34581017  1
  Ba  Ba3  1  0.25000000  0.04773540  0.65418983  1
  In  In0  1  0.75000000  0.44794879  0.30741392  1
  In  In1  1  0.25000000  0.55205121  0.69258608  1
  Re  Re0  1  0.25000000  0.77825687  0.16403129  1
  Re  Re1  1  0.75000000  0.22174313  0.83596871  1
  N  N0  1  0.49630704  0.36110637  0.80740825  1
  N  N1  1  0.99630704  0.63889363  0.19259175  1
  N  N2  1  0.50369296  0.63889363  0.19259175  1
  N  N3  1  0.00369296  0.36110637  0.80740825  1
  N  N4  1  0.75000000  0.01540922  0.69188276  1
  N  N5  1  0.25000000  0.98459078  0.30811724  1
  N  N6  1  0.75000000  0.14227262  0.04700912  1
  N  N7  1  0.25000000  0.85772738  0.95299088  1
loop_
_geom_bond_atom_site_label_1
_geom_bond_atom_site_label_2
_geom_bond_distance
_geom_bond_site_symmetry_2
Ba0 N5 2.759966 1_545
Ba0 N0 2.815646 1_554
Ba0 N3 2.815646 1_554
Ba0 N1 3.064440 1_455
Ba0 N2 3.064440 1_555
Ba0 N7 3.099599 1_544
Ba0 N6 3.148325 1_455
Ba0 N6 3.148325 1_555
Ba1 N4 2.759966 1_565
Ba1 N2 2.815646 1_556
Ba1 N1 2.815646 1_556
Ba1 N3 3.064440 1_655
Ba1 N0 3.064440 1_555
Ba1 N6 3.099599 1_566
Ba1 N7 3.148325 1_655
Ba1 N7 3.148325 1_555
Ba2 N4 2.814808 1_565
Ba2 N6 2.818022 1_565
Ba2 N2 2.889118 1_555
Ba2 N1 2.889118 1_555
Ba2 N5 3.015532 1_555
Ba2 N5 3.015532 1_655
Ba3 N5 2.814808 1_545
Ba3 N7 2.818022 1_545
Ba3 N3 2.889118 1_555
Ba3 N0 2.889118 1_555
Ba3 N4 3.015532 1_555
Ba3 N4 3.015532 1_455
In0 N2 2.228173 1_555
In0 N1 2.228173 1_555
In1 N0 2.228173 1_555
In1 N3 2.228173 1_555
N0 Re1 1.828670 1_555
N1 Re0 1.828670 1_655
N2 Re0 1.828670 1_555
N3 Re1 1.828670 1_455
N4 Re1 1.823140 1_555
N5 Re0 1.823140 1_555
N6 Re1 1.821562 1_554
N7 Re0 1.821562 1_556
