# generated using pymatgen
data_YMgCu3Rh
_symmetry_space_group_name_H-M   'P 1'
_cell_length_a   5.00068119
_cell_length_b   5.19838900
_cell_length_c   5.00068024
_cell_angle_alpha   61.25032217
_cell_angle_beta   59.99999366
_cell_angle_gamma   61.25031716
_symmetry_Int_Tables_number   1
_chemical_formula_structural   YMgCu3Rh
_chemical_formula_sum   'Y1 Mg1 Cu3 Rh1'
_cell_volume   93.61945000
_cell_formula_units_Z   1
loop_
 _symmetry_equiv_pos_site_id
 _symmetry_equiv_pos_as_xyz
  1  'x, y, z'
loop_
 _atom_site_type_symbol
 _atom_site_label
 _atom_site_symmetry_multiplicity
 _atom_site_fract_x
 _atom_site_fract_y
 _atom_site_fract_z
 _atom_site_occupancy
  Y  Y0  1  0.74822366  0.75532903  0.74822366  1
  Mg  Mg0  1  0.99857004  0.00429088  0.99857004  1
  Cu  Cu0  1  0.37562098  0.37131843  0.87743961  1
  Cu  Cu1  1  0.87743961  0.37131843  0.37562098  1
  Cu  Cu2  1  0.37562098  0.37131843  0.37562098  1
  Rh  Rh0  1  0.37452573  0.87642381  0.37452573  1
loop_
_geom_bond_atom_site_label_1
_geom_bond_atom_site_label_2
_geom_bond_distance
_geom_bond_site_symmetry_2
Mg0 Rh0 2.939582 1_645
Mg0 Rh0 2.939582 1_646
Mg0 Rh0 2.939583 1_546
Mg0 Y0 3.081215 1_546
Mg0 Y0 3.081216 1_645
Mg0 Y0 3.081220 1_545
Mg0 Y0 3.246678 1_555
Cu0 Cu1 2.491246 1_456
Cu0 Cu2 2.491246 1_556
Cu0 Cu1 2.509434 1_555
Cu0 Cu2 2.509434 1_555
Cu0 Rh0 2.577937 1_546
Cu0 Rh0 2.620475 1_555
Cu0 Mg0 2.961270 1_455
Cu0 Mg0 2.961273 1_555
Cu0 Y0 3.001247 1_455
Cu0 Y0 3.001248 1_555
Cu0 Y0 3.031498 1_545
Cu0 Mg0 3.091287 1_465
Cu1 Cu2 2.491246 1_655
Cu1 Cu2 2.509435 1_555
Cu1 Rh0 2.577937 1_645
Cu1 Rh0 2.620475 1_555
Cu1 Mg0 2.961269 1_554
Cu1 Mg0 2.961273 1_555
Cu1 Y0 3.001247 1_554
Cu1 Y0 3.001247 1_555
Cu1 Y0 3.031498 1_545
Cu1 Mg0 3.091287 1_564
Cu2 Rh0 2.577935 1_545
Cu2 Rh0 2.620477 1_555
Cu2 Mg0 2.961271 1_554
Cu2 Mg0 2.961271 1_455
Cu2 Y0 3.001247 1_455
Cu2 Y0 3.001247 1_554
Cu2 Y0 3.031498 1_545
Cu2 Mg0 3.091284 1_464
Rh0 Y0 2.934215 1_555
Rh0 Y0 2.934219 1_554
Rh0 Y0 2.934220 1_455
