# generated using pymatgen
data_Sr8Ti3VO16
_symmetry_space_group_name_H-M   'P 1'
_cell_length_a   5.50925709
_cell_length_b   8.78696386
_cell_length_c   8.78698699
_cell_angle_alpha   89.03273210
_cell_angle_beta   71.73042032
_cell_angle_gamma   108.26975448
_symmetry_Int_Tables_number   1
_chemical_formula_structural   Sr8Ti3VO16
_chemical_formula_sum   'Sr8 Ti3 V1 O16'
_cell_volume   380.43009450
_cell_formula_units_Z   1
loop_
 _symmetry_equiv_pos_site_id
 _symmetry_equiv_pos_as_xyz
  1  'x, y, z'
loop_
 _atom_site_type_symbol
 _atom_site_label
 _atom_site_symmetry_multiplicity
 _atom_site_fract_x
 _atom_site_fract_y
 _atom_site_fract_z
 _atom_site_occupancy
  Sr  Sr0  1  0.24979629  0.39328169  0.89326735  1
  Sr  Sr1  1  0.00116520  0.64528450  0.64300866  1
  Sr  Sr2  1  0.75011445  0.89481671  0.39490814  1
  Sr  Sr3  1  0.49887932  0.14304775  0.14521388  1
  Sr  Sr4  1  0.00118415  0.35701575  0.35469004  1
  Sr  Sr5  1  0.75018439  0.60516141  0.10513654  1
  Sr  Sr6  1  0.49877566  0.85469840  0.85704357  1
  Sr  Sr7  1  0.24980929  0.10673753  0.60670168  1
  Ti  Ti0  1  0.49820956  0.49829512  0.50168443  1
  Ti  Ti1  1  0.25012985  0.75001934  0.25003147  1
  Ti  Ti2  1  0.00170772  0.00171099  0.99830712  1
  V  V0  1  0.74985211  0.24998944  0.74995902  1
  O  O0  1  0.25004585  0.59066966  0.09060627  1
  O  O1  1  0.99953893  0.84061983  0.84193771  1
  O  O2  1  0.75004071  0.09774258  0.59763002  1
  O  O3  1  0.50034828  0.34175049  0.34074532  1
  O  O4  1  0.99973996  0.15830871  0.15916441  1
  O  O5  1  0.74992805  0.40224873  0.90232154  1
  O  O6  1  0.50040896  0.65932060  0.65815680  1
  O  O7  1  0.24993385  0.90925685  0.40951782  1
  O  O8  1  0.87395013  0.12453357  0.87536170  1
  O  O9  1  0.62555161  0.37531859  0.62470292  1
  O  O10  1  0.37649163  0.62570869  0.37422653  1
  O  O11  1  0.12414835  0.87446503  0.12567943  1
  O  O12  1  0.37504171  0.12466499  0.87523122  1
  O  O13  1  0.12471402  0.37543856  0.62458565  1
  O  O14  1  0.87518115  0.62562907  0.37432273  1
  O  O15  1  0.62512982  0.87426743  0.12585205  1
loop_
_geom_bond_atom_site_label_1
_geom_bond_atom_site_label_2
_geom_bond_distance
_geom_bond_site_symmetry_2
O0 Ti1 1.997302 1_555
O0 Sr0 2.473183 1_554
O0 Sr6 2.748621 1_554
O0 Sr4 2.749411 1_555
O0 Sr5 2.759757 1_455
O0 Sr5 2.761491 1_555
O1 Ti2 1.989237 1_665
O1 Sr1 2.470365 1_655
O1 Sr5 2.753351 1_556
O1 Sr6 2.759324 1_655
O1 Sr6 2.762069 1_555
O1 Sr7 2.769486 1_665
O2 V0 1.908337 1_555
O2 Sr2 2.541609 1_545
O2 Sr7 2.755890 1_655
O2 Sr7 2.758016 1_555
O2 Sr4 2.769345 1_655
O2 Sr6 2.770701 1_545
O3 Ti0 1.989359 1_555
O3 Sr3 2.470158 1_555
O3 Sr5 2.755368 1_555
O3 Sr4 2.759746 1_555
O3 Sr4 2.761676 1_655
O3 Sr7 2.767400 1_555
O4 Ti2 1.989170 1_654
O4 Sr4 2.470149 1_655
O4 Sr2 2.756534 1_545
O4 Sr3 2.759583 1_655
O4 Sr3 2.761841 1_555
O4 Sr0 2.766847 1_654
O5 V0 1.908625 1_555
O5 Sr5 2.542109 1_556
O5 Sr0 2.755977 1_655
O5 Sr0 2.757907 1_555
O5 Sr3 2.768679 1_556
O5 Sr1 2.770079 1_655
O6 Ti0 1.989458 1_555
O6 Sr6 2.470362 1_555
O6 Sr2 2.753838 1_555
O6 Sr1 2.759597 1_555
O6 Sr1 2.761799 1_655
O6 Sr0 2.768382 1_555
O7 Ti1 1.996982 1_555
O7 Sr7 2.472793 1_565
O7 Sr1 2.747923 1_555
O7 Sr3 2.751411 1_565
O7 Sr2 2.760108 1_455
O7 Sr2 2.761163 1_555
O8 Ti2 1.934139 1_655
O8 V0 1.949550 1_555
O8 Sr7 2.652516 1_655
O8 Sr0 2.653277 1_655
O8 Sr6 2.658702 1_545
O8 Sr3 2.659064 1_556
O9 Ti0 1.933828 1_555
O9 V0 1.948739 1_555
O9 Sr0 2.652144 1_555
O9 Sr7 2.652298 1_555
O9 Sr1 2.660664 1_655
O9 Sr4 2.660987 1_655
O10 Ti1 1.944627 1_555
O10 Ti0 1.963853 1_555
O10 Sr4 2.656025 1_555
O10 Sr5 2.656563 1_555
O10 Sr1 2.656707 1_555
O10 Sr2 2.656842 1_555
O11 Ti1 1.944845 1_555
O11 Ti2 1.965153 1_564
O11 Sr3 2.653742 1_565
O11 Sr6 2.654418 1_554
O11 Sr2 2.657766 1_455
O11 Sr5 2.658530 1_455
O12 Ti2 1.933883 1_555
O12 V0 1.948469 1_555
O12 Sr7 2.652070 1_555
O12 Sr0 2.652841 1_555
O12 Sr6 2.660052 1_545
O12 Sr3 2.660480 1_556
O13 Ti0 1.934002 1_555
O13 V0 1.949112 1_455
O13 Sr0 2.652944 1_555
O13 Sr7 2.653140 1_555
O13 Sr1 2.658483 1_555
O13 Sr4 2.658858 1_555
O14 Ti1 1.945284 1_655
O14 Ti0 1.964972 1_555
O14 Sr4 2.654921 1_655
O14 Sr1 2.655491 1_655
O14 Sr5 2.656944 1_555
O14 Sr2 2.657153 1_555
O15 Ti1 1.944996 1_555
O15 Ti2 1.964045 1_664
O15 Sr2 2.655799 1_555
O15 Sr5 2.656423 1_555
O15 Sr3 2.657063 1_565
O15 Sr6 2.657599 1_554
