# generated using pymatgen
data_Cs6K3InAs4
_symmetry_space_group_name_H-M   'P 1'
_cell_length_a   10.58803833
_cell_length_b   10.58803809
_cell_length_c   11.25875571
_cell_angle_alpha   90.00000000
_cell_angle_beta   90.00000000
_cell_angle_gamma   120.00000075
_symmetry_Int_Tables_number   1
_chemical_formula_structural   Cs6K3InAs4
_chemical_formula_sum   'Cs12 K6 In2 As8'
_cell_volume   1093.08019144
_cell_formula_units_Z   2
loop_
 _symmetry_equiv_pos_site_id
 _symmetry_equiv_pos_as_xyz
  1  'x, y, z'
loop_
 _atom_site_type_symbol
 _atom_site_label
 _atom_site_symmetry_multiplicity
 _atom_site_fract_x
 _atom_site_fract_y
 _atom_site_fract_z
 _atom_site_occupancy
  Cs  Cs0  1  0.20742267  0.79257733  0.95170267  1
  Cs  Cs1  1  0.20742267  0.41484435  0.95170267  1
  Cs  Cs2  1  0.58515565  0.79257733  0.95170267  1
  Cs  Cs3  1  0.41484435  0.20742267  0.45170267  1
  Cs  Cs4  1  0.79257733  0.58515565  0.04829733  1
  Cs  Cs5  1  0.79257733  0.20742267  0.45170267  1
  Cs  Cs6  1  0.79257733  0.58515565  0.45170267  1
  Cs  Cs7  1  0.20742267  0.79257733  0.54829733  1
  Cs  Cs8  1  0.58515565  0.79257733  0.54829733  1
  Cs  Cs9  1  0.41484435  0.20742267  0.04829733  1
  Cs  Cs10  1  0.79257733  0.20742267  0.04829733  1
  Cs  Cs11  1  0.20742267  0.41484435  0.54829733  1
  K  K0  1  0.24472565  0.12236283  0.75000000  1
  K  K1  1  0.87763717  0.12236283  0.75000000  1
  K  K2  1  0.75527435  0.87763717  0.25000000  1
  K  K3  1  0.12236283  0.24472565  0.25000000  1
  K  K4  1  0.12236283  0.87763717  0.25000000  1
  K  K5  1  0.87763717  0.75527435  0.75000000  1
  In  In0  1  0.33333300  0.66666700  0.25000000  1
  In  In1  1  0.66666700  0.33333300  0.75000000  1
  As  As0  1  0.00000000  0.00000000  0.00000000  1
  As  As1  1  0.04664454  0.52332177  0.25000000  1
  As  As2  1  0.47667823  0.95335546  0.25000000  1
  As  As3  1  0.52332177  0.04664454  0.75000000  1
  As  As4  1  0.52332177  0.47667823  0.75000000  1
  As  As5  1  0.00000000  0.00000000  0.50000000  1
  As  As6  1  0.47667823  0.52332177  0.25000000  1
  As  As7  1  0.95335546  0.47667823  0.75000000  1
loop_
_geom_bond_atom_site_label_1
_geom_bond_atom_site_label_2
_geom_bond_distance
_geom_bond_site_symmetry_2
As0 K3 3.599732 1_555
As0 K5 3.599732 1_444
As0 K2 3.599733 1_445
As0 K0 3.599733 1_554
As0 K1 3.599733 1_454
As0 K4 3.599733 1_545
As0 Cs1 3.842588 1_554
As0 Cs4 3.842588 1_445
As0 Cs9 3.842588 1_555
As0 Cs2 3.842588 1_444
As0 Cs10 3.842598 1_455
As0 Cs0 3.842598 1_544
As1 In0 2.628793 1_555
As1 K3 3.421819 1_555
As1 K4 3.421829 1_555
As1 Cs5 3.818810 1_455
As1 Cs10 3.818810 1_455
As1 Cs6 3.818822 1_455
As1 Cs4 3.818822 1_455
As2 In0 2.628793 1_555
As2 K2 3.421819 1_555
As2 K4 3.421829 1_555
As2 Cs5 3.818811 1_565
As2 Cs10 3.818811 1_565
As2 Cs3 3.818822 1_565
As2 Cs9 3.818822 1_565
As3 In1 2.628793 1_555
As3 K0 3.421819 1_555
As3 K1 3.421829 1_555
As3 Cs0 3.818811 1_545
As3 Cs7 3.818811 1_545
As3 Cs2 3.818822 1_545
As3 Cs8 3.818822 1_545
As4 In1 2.628811 1_555
As4 K0 3.421826 1_555
As4 K5 3.421826 1_555
As4 Cs2 3.818805 1_555
As4 Cs8 3.818805 1_555
As4 Cs1 3.818805 1_555
As4 Cs11 3.818805 1_555
As5 K3 3.599732 1_555
As5 K5 3.599732 1_445
As5 K2 3.599733 1_445
As5 K1 3.599733 1_455
As5 K0 3.599733 1_555
As5 K4 3.599733 1_545
As5 Cs11 3.842588 1_555
As5 Cs6 3.842588 1_445
As5 Cs8 3.842588 1_445
As5 Cs3 3.842588 1_555
As5 Cs7 3.842598 1_545
As5 Cs5 3.842598 1_455
As6 In0 2.628811 1_555
As6 K2 3.421826 1_555
As6 K3 3.421826 1_555
As6 Cs3 3.818805 1_555
As6 Cs9 3.818805 1_555
As6 Cs6 3.818805 1_555
As6 Cs4 3.818805 1_555
As7 In1 2.628793 1_555
As7 K5 3.421819 1_555
As7 K1 3.421829 1_555
As7 Cs0 3.818810 1_655
As7 Cs7 3.818810 1_655
As7 Cs1 3.818822 1_655
As7 Cs11 3.818822 1_655
