# generated using pymatgen
data_Te(PtBr6)2
_symmetry_space_group_name_H-M   'P 1'
_cell_length_a   11.43556339
_cell_length_b   9.01587088
_cell_length_c   9.85847753
_cell_angle_alpha   90.90317598
_cell_angle_beta   90.00000000
_cell_angle_gamma   90.00000000
_symmetry_Int_Tables_number   1
_chemical_formula_structural   Te(PtBr6)2
_chemical_formula_sum   'Te2 Pt4 Br24'
_cell_volume   1016.29816167
_cell_formula_units_Z   2
loop_
 _symmetry_equiv_pos_site_id
 _symmetry_equiv_pos_as_xyz
  1  'x, y, z'
loop_
 _atom_site_type_symbol
 _atom_site_label
 _atom_site_symmetry_multiplicity
 _atom_site_fract_x
 _atom_site_fract_y
 _atom_site_fract_z
 _atom_site_occupancy
  Te  Te0  1  0.25000000  0.82417799  0.92454544  1
  Te  Te1  1  0.75000000  0.17582201  0.07545456  1
  Pt  Pt0  1  0.25000000  0.09926211  0.64095477  1
  Pt  Pt1  1  0.75000000  0.66911067  0.60885609  1
  Pt  Pt2  1  0.75000000  0.90073789  0.35904523  1
  Pt  Pt3  1  0.25000000  0.33088933  0.39114391  1
  Br  Br0  1  0.90153791  0.65865372  0.78265795  1
  Br  Br1  1  0.58384967  0.18038705  0.90834440  1
  Br  Br2  1  0.25000000  0.60003074  0.41723479  1
  Br  Br3  1  0.09846209  0.34134628  0.21734205  1
  Br  Br4  1  0.09681029  0.91183154  0.68115893  1
  Br  Br5  1  0.75000000  0.39996926  0.58276521  1
  Br  Br6  1  0.39779743  0.29889698  0.58174785  1
  Br  Br7  1  0.08384967  0.81961295  0.09165560  1
  Br  Br8  1  0.41615033  0.81961295  0.09165560  1
  Br  Br9  1  0.25000000  0.55342999  0.86704660  1
  Br  Br10  1  0.25000000  0.17087708  0.88375583  1
  Br  Br11  1  0.89779743  0.70110302  0.41825215  1
  Br  Br12  1  0.40153791  0.34134628  0.21734205  1
  Br  Br13  1  0.75000000  0.44657001  0.13295340  1
  Br  Br14  1  0.40318971  0.91183154  0.68115893  1
  Br  Br15  1  0.10220257  0.29889698  0.58174785  1
  Br  Br16  1  0.75000000  0.82912292  0.11624417  1
  Br  Br17  1  0.25000000  0.04721752  0.38997654  1
  Br  Br18  1  0.59681029  0.08816846  0.31884107  1
  Br  Br19  1  0.91615033  0.18038705  0.90834440  1
  Br  Br20  1  0.75000000  0.95278248  0.61002346  1
  Br  Br21  1  0.60220257  0.70110302  0.41825215  1
  Br  Br22  1  0.59846209  0.65865372  0.78265795  1
  Br  Br23  1  0.90318971  0.08816846  0.31884107  1
loop_
_geom_bond_atom_site_label_1
_geom_bond_atom_site_label_2
_geom_bond_distance
_geom_bond_site_symmetry_2
Br0 Pt1 2.439838 1_555
Br1 Te1 2.515555 1_556
Br2 Pt3 2.436104 1_555
Br3 Pt3 2.439838 1_555
Br4 Pt0 2.470353 1_565
Br4 Te0 3.083889 1_555
Br5 Pt1 2.436104 1_555
Br6 Pt0 2.543617 1_555
Br6 Pt3 2.547109 1_555
Br7 Te0 2.515555 1_554
Br8 Te0 2.515555 1_554
Br9 Te0 2.497263 1_555
Br10 Pt0 2.469357 1_555
Br10 Te0 3.157834 1_545
Br11 Pt2 2.543617 1_555
Br11 Pt1 2.547109 1_555
Br12 Pt3 2.439838 1_555
Br13 Te1 2.497263 1_555
Br14 Pt0 2.470353 1_565
Br14 Te0 3.083889 1_555
Br15 Pt0 2.543617 1_555
Br15 Pt3 2.547109 1_555
Br16 Pt2 2.469357 1_555
Br16 Te1 3.157834 1_565
Br17 Pt0 2.511086 1_555
Br17 Pt3 2.557393 1_555
Br18 Pt2 2.470353 1_545
Br18 Te1 3.083889 1_555
Br19 Te1 2.515555 1_556
Br20 Pt2 2.511086 1_555
Br20 Pt1 2.557393 1_555
Br21 Pt2 2.543617 1_555
Br21 Pt1 2.547109 1_555
Br22 Pt1 2.439838 1_555
Br23 Pt2 2.470353 1_545
Br23 Te1 3.083889 1_555
