# generated using pymatgen
data_LiSc(CO3)2
_symmetry_space_group_name_H-M   'P 1'
_cell_length_a   5.73995349
_cell_length_b   5.73995225
_cell_length_c   5.73995343
_cell_angle_alpha   48.54617860
_cell_angle_beta   48.54618950
_cell_angle_gamma   48.54618051
_symmetry_Int_Tables_number   1
_chemical_formula_structural   LiSc(CO3)2
_chemical_formula_sum   'Li1 Sc1 C2 O6'
_cell_volume   97.44107330
_cell_formula_units_Z   1
loop_
 _symmetry_equiv_pos_site_id
 _symmetry_equiv_pos_as_xyz
  1  'x, y, z'
loop_
 _atom_site_type_symbol
 _atom_site_label
 _atom_site_symmetry_multiplicity
 _atom_site_fract_x
 _atom_site_fract_y
 _atom_site_fract_z
 _atom_site_occupancy
  Li  Li0  1  0.00000000  0.00000000  0.00000000  1
  Sc  Sc0  1  0.50000000  0.50000000  0.50000000  1
  C  C0  1  0.24890384  0.24890384  0.24890384  1
  C  C1  1  0.75109616  0.75109616  0.75109616  1
  O  O0  1  0.74612787  0.02701125  0.48098357  1
  O  O1  1  0.97298875  0.51901643  0.25387213  1
  O  O2  1  0.51901643  0.25387213  0.97298875  1
  O  O3  1  0.48098357  0.74612787  0.02701125  1
  O  O4  1  0.02701125  0.48098357  0.74612787  1
  O  O5  1  0.25387213  0.97298875  0.51901643  1
loop_
_geom_bond_atom_site_label_1
_geom_bond_atom_site_label_2
_geom_bond_distance
_geom_bond_site_symmetry_2
Li0 O4 2.170376 1_554
Li0 O1 2.170376 1_445
Li0 O3 2.170377 1_545
Li0 O2 2.170377 1_454
Li0 O0 2.170377 1_455
Li0 O5 2.170377 1_544
C0 O5 1.288601 1_545
C0 O1 1.288601 1_455
C0 O2 1.288601 1_554
C1 O0 1.288601 1_565
C1 O4 1.288601 1_655
C1 O3 1.288601 1_556
O0 Sc0 2.118600 1_555
O1 Sc0 2.118601 1_555
O2 Sc0 2.118601 1_555
O3 Sc0 2.118601 1_555
O4 Sc0 2.118601 1_555
O5 Sc0 2.118600 1_555
