# generated using pymatgen
data_KCo3Sb12Ru
_symmetry_space_group_name_H-M   'P 1'
_cell_length_a   7.96801995
_cell_length_b   7.91453857
_cell_length_c   7.96801918
_cell_angle_alpha   109.33532498
_cell_angle_beta   109.60679068
_cell_angle_gamma   109.33531166
_symmetry_Int_Tables_number   1
_chemical_formula_structural   KCo3Sb12Ru
_chemical_formula_sum   'K1 Co3 Sb12 Ru1'
_cell_volume   387.46287492
_cell_formula_units_Z   1
loop_
 _symmetry_equiv_pos_site_id
 _symmetry_equiv_pos_as_xyz
  1  'x, y, z'
loop_
 _atom_site_type_symbol
 _atom_site_label
 _atom_site_symmetry_multiplicity
 _atom_site_fract_x
 _atom_site_fract_y
 _atom_site_fract_z
 _atom_site_occupancy
  K  K0  1  0.00000000  0.00000000  0.00000000  1
  Co  Co0  1  0.50000000  0.50000000  0.50000000  1
  Co  Co1  1  0.50000000  0.00000000  0.00000000  1
  Co  Co2  1  0.00000000  0.00000000  0.50000000  1
  Sb  Sb0  1  0.16359265  0.49835314  0.34383220  1
  Sb  Sb1  1  0.50166672  0.66174862  0.83924394  1
  Sb  Sb2  1  0.34383220  0.84547906  0.18024056  1
  Sb  Sb3  1  0.81975944  0.66523950  0.16359265  1
  Sb  Sb4  1  0.66242178  0.83991910  0.50166672  1
  Sb  Sb5  1  0.18024056  0.33476050  0.83640735  1
  Sb  Sb6  1  0.65616780  0.15452094  0.81975944  1
  Sb  Sb7  1  0.33757822  0.16008090  0.49833328  1
  Sb  Sb8  1  0.49833328  0.33825138  0.16075606  1
  Sb  Sb9  1  0.83640735  0.50164686  0.65616780  1
  Sb  Sb10  1  0.83924394  0.17749832  0.33757822  1
  Sb  Sb11  1  0.16075606  0.82250168  0.66242178  1
  Ru  Ru0  1  0.00000000  0.50000000  0.00000000  1
loop_
_geom_bond_atom_site_label_1
_geom_bond_atom_site_label_2
_geom_bond_distance
_geom_bond_site_symmetry_2
K0 Sb0 3.435846 1_555
K0 Sb9 3.435846 1_444
K0 Sb6 3.435849 1_454
K0 Sb2 3.435849 1_545
K0 Sb5 3.435850 1_554
K0 Sb3 3.435850 1_445
K0 Sb8 3.442526 1_555
K0 Sb1 3.442526 1_444
K0 Sb7 3.442530 1_555
K0 Sb4 3.442530 1_444
K0 Sb10 3.442538 1_455
K0 Sb11 3.442538 1_544
Co0 Sb0 2.541900 1_555
Co0 Sb9 2.541900 1_555
Co0 Sb4 2.563598 1_555
Co0 Sb7 2.563598 1_555
Co0 Sb1 2.572732 1_555
Co0 Sb8 2.572732 1_555
Co1 Sb2 2.541907 1_545
Co1 Sb6 2.541907 1_554
Co1 Sb1 2.563592 1_544
Co1 Sb8 2.563592 1_555
Co1 Sb10 2.572732 1_555
Co1 Sb11 2.572732 1_544
Co2 Sb5 2.541898 1_555
Co2 Sb3 2.541898 1_445
Co2 Sb11 2.563609 1_545
Co2 Sb10 2.563609 1_455
Co2 Sb7 2.572738 1_555
Co2 Sb4 2.572738 1_445
Sb0 Sb10 2.934996 1_455
Sb0 Sb11 2.964910 1_555
Sb1 Sb3 2.935000 1_556
Sb1 Sb5 2.964924 1_555
Sb2 Sb7 2.934990 1_565
Sb2 Sb4 2.964915 1_555
Sb3 Sb8 2.964924 1_555
Sb4 Sb6 2.934990 1_565
Sb5 Sb8 2.935000 1_556
Sb6 Sb7 2.964915 1_555
Sb10 Sb9 2.964910 1_555
Sb11 Sb9 2.934996 1_455
Ru0 Sb2 2.615957 1_555
Ru0 Sb6 2.615957 1_454
Ru0 Sb0 2.615959 1_555
Ru0 Sb9 2.615959 1_454
Ru0 Sb3 2.615966 1_455
Ru0 Sb5 2.615966 1_554
