# generated using pymatgen
data_Ca20Zn8GaHg3
_symmetry_space_group_name_H-M   'P 1'
_cell_length_a   7.84347286
_cell_length_b   7.84347286
_cell_length_c   15.42558663
_cell_angle_alpha   90.00000000
_cell_angle_beta   90.00000000
_cell_angle_gamma   90.00000000
_symmetry_Int_Tables_number   1
_chemical_formula_structural   Ca20Zn8GaHg3
_chemical_formula_sum   'Ca20 Zn8 Ga1 Hg3'
_cell_volume   948.98311565
_cell_formula_units_Z   1
loop_
 _symmetry_equiv_pos_site_id
 _symmetry_equiv_pos_as_xyz
  1  'x, y, z'
loop_
 _atom_site_type_symbol
 _atom_site_label
 _atom_site_symmetry_multiplicity
 _atom_site_fract_x
 _atom_site_fract_y
 _atom_site_fract_z
 _atom_site_occupancy
  Ca  Ca0  1  0.67634341  0.16865854  0.10087997  1
  Ca  Ca1  1  0.17228190  0.67166846  0.60487157  1
  Ca  Ca2  1  0.32365659  0.83134146  0.10087997  1
  Ca  Ca3  1  0.82771810  0.32833154  0.60487157  1
  Ca  Ca4  1  0.83134146  0.67634341  0.10087997  1
  Ca  Ca5  1  0.32833154  0.17228190  0.60487157  1
  Ca  Ca6  1  0.16865854  0.32365659  0.10087997  1
  Ca  Ca7  1  0.67166846  0.82771810  0.60487157  1
  Ca  Ca8  1  0.83134146  0.32365659  0.89912003  1
  Ca  Ca9  1  0.32833154  0.82771810  0.39512843  1
  Ca  Ca10  1  0.16865854  0.67634341  0.89912003  1
  Ca  Ca11  1  0.67166846  0.17228190  0.39512843  1
  Ca  Ca12  1  0.67634341  0.83134146  0.89912003  1
  Ca  Ca13  1  0.17228190  0.32833154  0.39512843  1
  Ca  Ca14  1  0.32365659  0.16865854  0.89912003  1
  Ca  Ca15  1  0.82771810  0.67166846  0.39512843  1
  Ca  Ca16  1  0.50000000  0.50000000  0.75662883  1
  Ca  Ca17  1  0.00000000  0.00000000  0.24853561  1
  Ca  Ca18  1  0.00000000  0.00000000  0.75146439  1
  Ca  Ca19  1  0.50000000  0.50000000  0.24337117  1
  Zn  Zn0  1  0.61367528  0.11414875  0.75093591  1
  Zn  Zn1  1  0.11414875  0.61367528  0.24906409  1
  Zn  Zn2  1  0.88585125  0.38632472  0.24906409  1
  Zn  Zn3  1  0.38632472  0.88585125  0.75093591  1
  Zn  Zn4  1  0.88585125  0.61367528  0.75093591  1
  Zn  Zn5  1  0.38632472  0.11414875  0.24906409  1
  Zn  Zn6  1  0.11414875  0.38632472  0.75093591  1
  Zn  Zn7  1  0.61367528  0.88585125  0.24906409  1
  Ga  Ga0  1  0.00000000  0.00000000  0.00000000  1
  Hg  Hg0  1  0.50000000  0.50000000  0.50000000  1
  Hg  Hg1  1  0.50000000  0.50000000  0.00000000  1
  Hg  Hg2  1  0.00000000  0.00000000  0.50000000  1
loop_
_geom_bond_atom_site_label_1
_geom_bond_atom_site_label_2
_geom_bond_distance
_geom_bond_site_symmetry_2
Ca0 Zn7 3.222885 1_545
Ca0 Zn5 3.253046 1_555
Ca0 Ga0 3.258217 1_655
Ca0 Zn2 3.292426 1_555
Ca0 Hg1 3.329978 1_555
Ca0 Ca8 3.555582 1_554
Ca0 Ca17 3.658173 1_655
Ca0 Ca19 3.674024 1_555
Ca0 Ca2 3.827830 1_545
Ca0 Ca6 4.048316 1_655
Ca0 Ca4 4.048316 1_545
Ca0 Ca12 4.084865 1_544
Ca0 Ca6 4.163461 1_555
Ca0 Ca4 4.163461 1_555
Ca0 Ca14 4.163959 1_554
Ca1 Zn6 3.208351 1_555
Ca1 Zn4 3.214149 1_455
Ca1 Zn3 3.273725 1_555
Ca1 Hg0 3.322224 1_555
Ca1 Hg2 3.327899 1_565
Ca1 Ca9 3.669345 1_555
Ca1 Ca18 3.683929 1_565
Ca1 Ca16 3.728301 1_555
Ca1 Ca3 3.815222 1_455
Ca2 Zn5 3.222885 1_565
Ca2 Zn7 3.253046 1_555
Ca2 Ga0 3.258217 1_565
Ca2 Zn1 3.292426 1_555
Ca2 Hg1 3.329978 1_555
Ca2 Ca6 4.048316 1_565
Ca2 Ca4 4.048316 1_455
Ca2 Ca6 4.163461 1_555
Ca2 Ca4 4.163461 1_555
Ca3 Zn4 3.208351 1_555
Ca3 Zn6 3.214149 1_655
Ca3 Zn0 3.273725 1_555
Ca3 Hg0 3.322224 1_555
Ca3 Hg2 3.327899 1_655
Ca4 Zn1 3.222885 1_655
Ca4 Zn2 3.253046 1_555
Ca4 Ga0 3.258217 1_665
Ca4 Zn7 3.292426 1_555
Ca4 Hg1 3.329978 1_555
Ca4 Ca6 3.827830 1_655
Ca4 Ca8 4.163959 1_554
Ca5 Zn0 3.208351 1_555
Ca5 Zn3 3.214149 1_545
Ca5 Zn6 3.273725 1_555
Ca5 Hg0 3.322224 1_555
Ca5 Hg2 3.327899 1_555
Ca5 Ca7 3.815222 1_545
Ca6 Zn2 3.222885 1_455
Ca6 Zn1 3.253046 1_555
Ca6 Ga0 3.258217 1_555
Ca6 Zn5 3.292426 1_555
Ca6 Hg1 3.329978 1_555
Ca6 Ca8 4.084865 1_454
Ca7 Zn3 3.208351 1_555
Ca7 Zn0 3.214149 1_565
Ca7 Zn4 3.273725 1_555
Ca7 Hg0 3.322224 1_555
Ca7 Hg2 3.327899 1_665
Ca8 Zn6 3.222885 1_655
Ca8 Zn4 3.253046 1_555
Ca8 Ga0 3.258217 1_656
Ca8 Zn0 3.292426 1_555
Ca8 Hg1 3.329978 1_556
Ca9 Zn7 3.208351 1_555
Ca9 Zn5 3.214149 1_565
Ca9 Zn1 3.273725 1_555
Ca9 Hg0 3.322224 1_555
Ca9 Hg2 3.327899 1_565
Ca10 Zn4 3.222885 1_455
Ca10 Zn6 3.253046 1_555
Ca10 Ga0 3.258217 1_566
Ca10 Zn3 3.292426 1_555
Ca10 Hg1 3.329978 1_556
Ca10 Ca2 3.555582 1_556
Ca10 Ca18 3.658173 1_565
Ca10 Ca16 3.674024 1_555
Ca10 Ca8 3.827830 1_455
Ca10 Ca14 4.048316 1_565
Ca10 Ca12 4.048316 1_455
Ca10 Ca4 4.084865 1_456
Ca10 Ca14 4.163461 1_555
Ca10 Ca12 4.163461 1_555
Ca10 Ca6 4.163959 1_556
Ca11 Zn5 3.208351 1_555
Ca11 Zn7 3.214149 1_545
Ca11 Zn2 3.273725 1_555
Ca11 Hg0 3.322224 1_555
Ca11 Hg2 3.327899 1_655
Ca11 Ca3 3.669345 1_555
Ca11 Ca17 3.683929 1_655
Ca11 Ca19 3.728301 1_555
Ca11 Ca9 3.815222 1_545
Ca12 Zn0 3.222885 1_565
Ca12 Zn3 3.253046 1_555
Ca12 Ga0 3.258217 1_666
Ca12 Zn4 3.292426 1_555
Ca12 Hg1 3.329978 1_556
Ca12 Ca4 3.555582 1_556
Ca12 Ca18 3.658173 1_665
Ca12 Ca16 3.674024 1_555
Ca12 Ca14 3.827830 1_565
Ca12 Ca8 4.048316 1_565
Ca12 Ca8 4.163461 1_555
Ca12 Ca2 4.163959 1_556
Ca13 Zn1 3.208351 1_555
Ca13 Zn2 3.214149 1_455
Ca13 Zn5 3.273725 1_555
Ca13 Hg0 3.322224 1_555
Ca13 Hg2 3.327899 1_555
Ca13 Ca5 3.669345 1_555
Ca13 Ca17 3.683929 1_555
Ca13 Ca19 3.728301 1_555
Ca13 Ca15 3.815222 1_455
Ca14 Zn3 3.222885 1_545
Ca14 Zn0 3.253046 1_555
Ca14 Ga0 3.258217 1_556
Ca14 Zn6 3.292426 1_555
Ca14 Hg1 3.329978 1_556
Ca14 Ca6 3.555582 1_556
Ca14 Ca18 3.658173 1_555
Ca14 Ca16 3.674024 1_555
Ca14 Ca8 4.048316 1_455
Ca14 Ca2 4.084865 1_546
Ca14 Ca8 4.163461 1_555
Ca15 Zn2 3.208351 1_555
Ca15 Zn1 3.214149 1_655
Ca15 Zn7 3.273725 1_555
Ca15 Hg0 3.322224 1_555
Ca15 Hg2 3.327899 1_665
Ca15 Ca7 3.669345 1_555
Ca15 Ca17 3.683929 1_665
Ca15 Ca19 3.728301 1_555
Ca16 Zn4 3.156241 1_555
Ca16 Zn3 3.156241 1_555
Ca16 Zn0 3.156241 1_555
Ca16 Zn6 3.156241 1_555
Ca16 Ca8 3.674024 1_555
Ca16 Ca7 3.728301 1_555
Ca16 Ca3 3.728301 1_555
Ca16 Ca5 3.728301 1_555
Ca17 Zn5 3.159643 1_555
Ca17 Zn2 3.159643 1_455
Ca17 Zn1 3.159643 1_545
Ca17 Zn7 3.159643 1_445
Ca17 Ca6 3.658173 1_555
Ca17 Ca2 3.658173 1_545
Ca17 Ca4 3.658173 1_445
Ca17 Ca9 3.683929 1_545
Ca18 Zn6 3.159643 1_555
Ca18 Zn3 3.159643 1_545
Ca18 Zn0 3.159643 1_455
Ca18 Zn4 3.159643 1_445
Ca18 Ca8 3.658173 1_455
Ca18 Ca5 3.683929 1_555
Ca18 Ca3 3.683929 1_455
Ca18 Ca7 3.683929 1_445
Ca19 Zn7 3.156241 1_555
Ca19 Zn2 3.156241 1_555
Ca19 Zn1 3.156241 1_555
Ca19 Zn5 3.156241 1_555
Ca19 Ca4 3.674024 1_555
Ca19 Ca2 3.674024 1_555
Ca19 Ca6 3.674024 1_555
Ca19 Ca9 3.728301 1_555
Zn0 Zn3 2.527108 1_545
Zn1 Zn2 2.527108 1_455
Zn4 Zn6 2.527108 1_655
Zn5 Zn7 2.527108 1_545
