# generated using pymatgen
data_K4Ca(GeO3)3
_symmetry_space_group_name_H-M   'P 1'
_cell_length_a   7.25027214
_cell_length_b   7.25031460
_cell_length_c   11.23285772
_cell_angle_alpha   89.87150408
_cell_angle_beta   89.87162154
_cell_angle_gamma   112.65122266
_symmetry_Int_Tables_number   1
_chemical_formula_structural   K4Ca(GeO3)3
_chemical_formula_sum   'K8 Ca2 Ge6 O18'
_cell_volume   544.92489507
_cell_formula_units_Z   2
loop_
 _symmetry_equiv_pos_site_id
 _symmetry_equiv_pos_as_xyz
  1  'x, y, z'
loop_
 _atom_site_type_symbol
 _atom_site_label
 _atom_site_symmetry_multiplicity
 _atom_site_fract_x
 _atom_site_fract_y
 _atom_site_fract_z
 _atom_site_occupancy
  K  K0  1  0.28553303  0.14069311  0.74927013  1
  K  K1  1  0.01787533  0.98211875  0.99999920  1
  K  K2  1  0.85931436  0.71447293  0.25072537  1
  K  K3  1  0.59029466  0.40970276  0.99999727  1
  K  K4  1  0.59345318  0.40654909  0.50000088  1
  K  K5  1  0.30862963  0.58000488  0.25017398  1
  K  K6  1  0.00052831  0.99947085  0.50000055  1
  K  K7  1  0.41999257  0.69138144  0.74982339  1
  Ca  Ca0  1  0.83139747  0.20798555  0.24570990  1
  Ca  Ca1  1  0.79201662  0.16860212  0.75429101  1
  Ge  Ge0  1  0.89274556  0.66760686  0.74882383  1
  Ge  Ge1  1  0.33239221  0.10725293  0.25117696  1
  Ge  Ge2  1  0.48835542  0.90612787  0.47108573  1
  Ge  Ge3  1  0.09754916  0.50820871  0.96968587  1
  Ge  Ge4  1  0.09387224  0.51164505  0.52891427  1
  Ge  Ge5  1  0.49178868  0.90244860  0.03031465  1
  O  O0  1  0.35998753  0.64001352  0.49999990  1
  O  O1  1  0.11763174  0.15419995  0.24578922  1
  O  O2  1  0.84580024  0.88236743  0.75421282  1
  O  O3  1  0.03882640  0.69522660  0.61499611  1
  O  O4  1  0.36308424  0.63691523  0.00000001  1
  O  O5  1  0.52537013  0.04285163  0.90171928  1
  O  O6  1  0.31047714  0.94074814  0.12852650  1
  O  O7  1  0.30477266  0.96117387  0.38500509  1
  O  O8  1  0.05925194  0.68952114  0.87147383  1
  O  O9  1  0.69732208  0.92593759  0.11396520  1
  O  O10  1  0.55607977  0.31340272  0.24857384  1
  O  O11  1  0.07254759  0.31591130  0.62195672  1
  O  O12  1  0.68408909  0.92745234  0.37804355  1
  O  O13  1  0.53661182  0.04009809  0.60232219  1
  O  O14  1  0.95714604  0.47462753  0.09828104  1
  O  O15  1  0.07406405  0.30267568  0.88603657  1
  O  O16  1  0.95990113  0.46338798  0.39767849  1
  O  O17  1  0.68659697  0.44391877  0.75142663  1
loop_
_geom_bond_atom_site_label_1
_geom_bond_atom_site_label_2
_geom_bond_distance
_geom_bond_site_symmetry_2
K0 O5 2.723491 1_555
K0 O15 2.733973 1_555
K0 O11 2.748885 1_555
K0 O13 2.754083 1_555
K0 O17 2.892387 1_555
K0 O2 3.012460 1_445
K1 O9 2.541915 1_456
K1 O15 2.541918 1_565
K1 O8 2.678939 1_555
K1 O6 2.678946 1_556
K1 O2 3.005234 1_455
K1 O1 3.005292 1_566
K2 O14 2.723474 1_555
K2 O9 2.733956 1_555
K2 O12 2.748920 1_555
K2 O16 2.754123 1_555
K2 O10 2.892450 1_555
K2 O1 3.012425 1_665
K3 O4 2.741855 1_556
K3 O5 2.750613 1_555
K3 O14 2.750625 1_556
K3 O17 2.863554 1_555
K3 O10 2.863616 1_556
K4 O16 2.773191 1_555
K4 O13 2.773214 1_555
K4 O0 2.817320 1_555
K4 O17 2.894267 1_555
K4 O10 2.894287 1_555
K5 O4 2.843858 1_555
K5 O0 2.844013 1_555
K5 O1 2.856411 1_555
K5 O16 2.860285 1_455
K5 O14 2.917977 1_455
K5 O6 2.943657 1_555
K5 O10 3.102652 1_555
K5 O7 3.163886 1_555
K5 O12 3.251321 1_555
K5 O9 3.330570 1_555
K6 O12 2.550998 1_455
K6 O11 2.551013 1_565
K6 O7 2.659334 1_555
K6 O3 2.659345 1_555
K6 O1 3.061780 1_565
K6 O2 3.061787 1_455
K7 O4 2.843893 1_556
K7 O0 2.843989 1_555
K7 O2 2.856408 1_555
K7 O13 2.860206 1_565
K7 O5 2.917936 1_565
K7 O8 2.943613 1_555
K7 O17 3.102739 1_555
K7 O3 3.163801 1_555
K7 O11 3.251343 1_555
K7 O15 3.330635 1_555
Ca0 O1 2.254372 1_655
Ca0 O10 2.396805 1_555
Ca0 O12 2.406949 1_545
Ca0 O9 2.409486 1_545
Ca0 O16 2.429702 1_555
Ca0 O14 2.435652 1_555
Ca1 O2 2.254378 1_545
Ca1 O17 2.396818 1_555
Ca1 O11 2.406937 1_655
Ca1 O15 2.409479 1_655
Ca1 O13 2.429707 1_555
Ca1 O5 2.435664 1_555
Ge0 O2 1.718301 1_555
Ge0 O17 1.731349 1_555
Ge0 O8 1.800388 1_655
Ge0 O3 1.802724 1_655
Ge1 O1 1.718299 1_555
Ge1 O10 1.731349 1_555
Ge1 O6 1.800390 1_545
Ge1 O7 1.802723 1_545
Ge2 O12 1.718644 1_555
Ge2 O13 1.728007 1_565
Ge2 O7 1.810819 1_555
Ge2 O0 1.818525 1_555
Ge3 O15 1.715830 1_555
Ge3 O14 1.727139 1_456
Ge3 O8 1.816113 1_555
Ge3 O4 1.820370 1_556
Ge4 O11 1.718652 1_555
Ge4 O16 1.728000 1_455
Ge4 O3 1.810825 1_555
Ge4 O0 1.818523 1_555
Ge5 O9 1.715824 1_555
Ge5 O5 1.727143 1_564
Ge5 O6 1.816111 1_555
Ge5 O4 1.820369 1_555
