# generated using pymatgen
data_Sr6BiRh4O15
_symmetry_space_group_name_H-M   'P 1'
_cell_length_a   7.14774165
_cell_length_b   7.14774154
_cell_length_c   7.14774277
_cell_angle_alpha   84.07948139
_cell_angle_beta   84.07947849
_cell_angle_gamma   84.07948247
_symmetry_Int_Tables_number   1
_chemical_formula_structural   Sr6BiRh4O15
_chemical_formula_sum   'Sr6 Bi1 Rh4 O15'
_cell_volume   359.71142514
_cell_formula_units_Z   1
loop_
 _symmetry_equiv_pos_site_id
 _symmetry_equiv_pos_as_xyz
  1  'x, y, z'
loop_
 _atom_site_type_symbol
 _atom_site_label
 _atom_site_symmetry_multiplicity
 _atom_site_fract_x
 _atom_site_fract_y
 _atom_site_fract_z
 _atom_site_occupancy
  Sr  Sr0  1  0.32846790  0.67153210  0.00000000  1
  Sr  Sr1  1  0.67153210  0.00000000  0.32846790  1
  Sr  Sr2  1  1.00000000  0.32846790  0.67153210  1
  Sr  Sr3  1  0.13395946  0.86604054  0.50000000  1
  Sr  Sr4  1  0.86604054  0.50000000  0.13395946  1
  Sr  Sr5  1  0.50000000  0.13395946  0.86604054  1
  Bi  Bi0  1  0.50000000  0.50000000  0.50000000  1
  Rh  Rh0  1  0.90650368  0.90650368  0.90650368  1
  Rh  Rh1  1  0.09349632  0.09349632  0.09349632  1
  Rh  Rh2  1  0.71140408  0.71140408  0.71140408  1
  Rh  Rh3  1  0.28859592  0.28859592  0.28859592  1
  O  O0  1  0.22888213  0.54931948  0.37425045  1
  O  O1  1  0.37425045  0.22888213  0.54931948  1
  O  O2  1  0.54931948  0.37425045  0.22888213  1
  O  O3  1  0.77111787  0.62574955  0.45068052  1
  O  O4  1  0.45068052  0.77111787  0.62574955  1
  O  O5  1  0.62574955  0.45068052  0.77111787  1
  O  O6  1  0.00000000  0.83495586  0.16504414  1
  O  O7  1  0.16504414  1.00000000  0.83495586  1
  O  O8  1  0.83495586  0.16504414  1.00000000  1
  O  O9  1  0.34804773  0.01994239  0.20045510  1
  O  O10  1  0.20045510  0.34804773  0.01994239  1
  O  O11  1  0.79954490  0.98005761  0.65195227  1
  O  O12  1  0.98005761  0.65195227  0.79954490  1
  O  O13  1  0.65195227  0.79954490  0.98005761  1
  O  O14  1  0.01994239  0.20045510  0.34804773  1
loop_
_geom_bond_atom_site_label_1
_geom_bond_atom_site_label_2
_geom_bond_distance
_geom_bond_site_symmetry_2
Bi0 O1 2.200130 1_555
Bi0 O3 2.200130 1_555
Bi0 O4 2.200130 1_555
Bi0 O0 2.200131 1_555
Bi0 O2 2.200131 1_555
Bi0 O5 2.200131 1_555
O0 Rh3 2.011798 1_555
O0 Sr3 2.523945 1_555
O0 Sr0 2.771104 1_555
O0 Sr2 2.967695 1_455
O1 Rh3 2.011798 1_555
O1 Sr5 2.523945 1_555
O1 Sr2 2.771103 1_455
O1 Sr1 2.967695 1_555
O2 Rh3 2.011798 1_555
O2 Sr4 2.523945 1_555
O2 Sr1 2.771103 1_555
O2 Sr0 2.967695 1_555
O3 Rh2 2.011798 1_555
O3 Sr4 2.523945 1_555
O3 Sr1 2.771103 1_565
O3 Sr2 2.967695 1_555
O4 Rh2 2.011798 1_555
O4 Sr3 2.523945 1_555
O4 Sr0 2.771104 1_556
O4 Sr1 2.967695 1_565
O5 Rh2 2.011798 1_555
O5 Sr5 2.523945 1_555
O5 Sr2 2.771103 1_555
O5 Sr0 2.967695 1_556
O6 Rh1 2.027925 1_565
O6 Rh0 2.027925 1_454
O6 Sr4 2.706442 1_455
O6 Sr3 2.706443 1_555
O6 Sr1 2.723136 1_465
O6 Sr0 2.723136 1_555
O7 Rh0 2.027925 1_455
O7 Rh1 2.027925 1_566
O7 Sr5 2.706442 1_565
O7 Sr3 2.706443 1_555
O7 Sr2 2.723136 1_465
O7 Sr0 2.723136 1_556
O8 Rh0 2.027925 1_545
O8 Rh1 2.027925 1_656
O8 Sr4 2.706442 1_556
O8 Sr5 2.706442 1_555
O8 Sr2 2.723136 1_555
O8 Sr1 2.723136 1_556
O9 Rh1 2.044029 1_555
O9 Rh3 2.071452 1_555
O9 Sr1 2.558377 1_555
O9 Sr5 2.608169 1_554
O9 Sr3 2.705813 1_545
O9 Sr0 3.020547 1_545
O10 Rh1 2.044029 1_555
O10 Rh3 2.071453 1_555
O10 Sr0 2.558377 1_555
O10 Sr4 2.608169 1_455
O10 Sr5 2.705813 1_554
O10 Sr2 3.020548 1_454
O11 Rh0 2.044029 1_555
O11 Rh2 2.071452 1_555
O11 Sr1 2.558377 1_565
O11 Sr3 2.608169 1_655
O11 Sr5 2.705813 1_565
O11 Sr2 3.020547 1_565
O12 Rh0 2.044029 1_555
O12 Rh2 2.071453 1_555
O12 Sr2 2.558377 1_555
O12 Sr4 2.608169 1_556
O12 Sr3 2.705813 1_655
O12 Sr0 3.020547 1_656
O13 Rh0 2.044029 1_555
O13 Rh2 2.071453 1_555
O13 Sr0 2.558377 1_556
O13 Sr5 2.608169 1_565
O13 Sr4 2.705813 1_556
O13 Sr1 3.020548 1_566
O14 Rh1 2.044029 1_555
O14 Rh3 2.071452 1_555
O14 Sr2 2.558377 1_455
O14 Sr3 2.608169 1_545
O14 Sr4 2.705813 1_455
O14 Sr1 3.020547 1_455
