# generated using pymatgen
data_Y8TaW3C8
_symmetry_space_group_name_H-M   'P 1'
_cell_length_a   5.76930555
_cell_length_b   5.76930491
_cell_length_c   9.87609800
_cell_angle_alpha   90.00000000
_cell_angle_beta   90.00000000
_cell_angle_gamma   90.45476829
_symmetry_Int_Tables_number   1
_chemical_formula_structural   Y8TaW3C8
_chemical_formula_sum   'Y8 Ta1 W3 C8'
_cell_volume   328.71440993
_cell_formula_units_Z   1
loop_
 _symmetry_equiv_pos_site_id
 _symmetry_equiv_pos_as_xyz
  1  'x, y, z'
loop_
 _atom_site_type_symbol
 _atom_site_label
 _atom_site_symmetry_multiplicity
 _atom_site_fract_x
 _atom_site_fract_y
 _atom_site_fract_z
 _atom_site_occupancy
  Y  Y0  1  0.19854030  0.19854030  0.34352735  1
  Y  Y1  1  0.79976877  0.79976877  0.65639316  1
  Y  Y2  1  0.29915568  0.70053986  0.84111379  1
  Y  Y3  1  0.79976877  0.79976877  0.34360684  1
  Y  Y4  1  0.19854030  0.19854030  0.65647265  1
  Y  Y5  1  0.70053986  0.29915568  0.15888621  1
  Y  Y6  1  0.70053986  0.29915568  0.84111379  1
  Y  Y7  1  0.29915568  0.70053986  0.15888621  1
  Ta  Ta0  1  0.18329622  0.18329622  0.00000000  1
  W  W0  1  0.82482891  0.82482891  0.00000000  1
  W  W1  1  0.32207930  0.67685398  0.50000000  1
  W  W2  1  0.67685398  0.32207930  0.50000000  1
  C  C0  1  0.99877292  0.99877292  0.15332529  1
  C  C1  1  0.49983800  0.49983800  0.34751518  1
  C  C2  1  0.49983800  0.49983800  0.65248482  1
  C  C3  1  0.50656299  0.99291303  0.00000000  1
  C  C4  1  0.99291303  0.50656299  0.00000000  1
  C  C5  1  0.99877292  0.99877292  0.84667471  1
  C  C6  1  0.50036600  0.99986850  0.50000000  1
  C  C7  1  0.99986850  0.50036600  0.50000000  1
loop_
_geom_bond_atom_site_label_1
_geom_bond_atom_site_label_2
_geom_bond_distance
_geom_bond_site_symmetry_2
C0 W0 2.071510 1_555
C0 Ta0 2.131104 1_665
C0 Y5 2.452365 1_565
C0 Y7 2.452365 1_655
C0 Y3 2.479305 1_555
C0 Y0 2.482761 1_665
C1 W2 2.092663 1_555
C1 W1 2.092663 1_555
C1 Y3 2.437719 1_555
C1 Y0 2.448838 1_555
C1 Y7 2.484552 1_555
C1 Y5 2.484552 1_555
C2 W2 2.092663 1_555
C2 W1 2.092663 1_555
C2 Y1 2.437719 1_555
C2 Y4 2.448838 1_555
C2 Y2 2.484552 1_555
C2 Y6 2.484552 1_555
C3 W0 2.083308 1_555
C3 Ta0 2.171928 1_565
C3 Y7 2.589860 1_555
C3 Y2 2.589860 1_554
C3 Y5 2.608629 1_565
C3 Y6 2.608629 1_564
C4 W0 2.083308 1_555
C4 Ta0 2.171928 1_655
C4 Y5 2.589860 1_555
C4 Y6 2.589860 1_554
C4 Y7 2.608629 1_655
C4 Y2 2.608629 1_654
C5 W0 2.071510 1_556
C5 Ta0 2.131104 1_666
C5 Y6 2.452365 1_565
C5 Y2 2.452365 1_655
C5 Y1 2.479305 1_555
C5 Y4 2.482761 1_665
C6 W2 2.112425 1_565
C6 W1 2.121429 1_555
C6 Y1 2.594947 1_555
C6 Y3 2.594947 1_555
C6 Y4 2.601103 1_565
C6 Y0 2.601103 1_565
C7 W1 2.112425 1_655
C7 W2 2.121429 1_555
C7 Y1 2.594947 1_555
C7 Y3 2.594947 1_555
C7 Y4 2.601103 1_655
C7 Y0 2.601103 1_655
