# generated using pymatgen
data_Zr3Ta2Nb5N12
_symmetry_space_group_name_H-M   'P 1'
_cell_length_a   5.30641564
_cell_length_b   5.31644102
_cell_length_c   10.55670766
_cell_angle_alpha   89.98510258
_cell_angle_beta   90.00471242
_cell_angle_gamma   120.09013509
_symmetry_Int_Tables_number   1
_chemical_formula_structural   Zr3Ta2Nb5N12
_chemical_formula_sum   'Zr3 Ta2 Nb5 N12'
_cell_volume   257.68325976
_cell_formula_units_Z   1
loop_
 _symmetry_equiv_pos_site_id
 _symmetry_equiv_pos_as_xyz
  1  'x, y, z'
loop_
 _atom_site_type_symbol
 _atom_site_label
 _atom_site_symmetry_multiplicity
 _atom_site_fract_x
 _atom_site_fract_y
 _atom_site_fract_z
 _atom_site_occupancy
  Zr  Zr0  1  0.66550376  0.33187415  0.00011010  1
  Zr  Zr1  1  0.33464249  0.66634295  0.00023492  1
  Zr  Zr2  1  0.33460135  0.66665678  0.49941062  1
  Ta  Ta0  1  0.00211279  0.68117948  0.25190109  1
  Ta  Ta1  1  0.66549848  0.33241397  0.50008294  1
  Nb  Nb0  1  0.67758829  0.67950167  0.74776200  1
  Nb  Nb1  1  0.32003787  0.99691268  0.74771129  1
  Nb  Nb2  1  0.00261932  0.32245916  0.74775430  1
  Nb  Nb3  1  0.32007728  0.32286013  0.25245120  1
  Nb  Nb4  1  0.67758846  0.99833428  0.25244806  1
  N  N0  1  0.66444122  0.65037190  0.37885655  1
  N  N1  1  0.34524456  0.00596483  0.37883948  1
  N  N2  1  0.98974610  0.34644104  0.37793378  1
  N  N3  1  0.35070037  0.34031788  0.62054219  1
  N  N4  1  0.65947633  0.00999746  0.62044359  1
  N  N5  1  0.98981550  0.64765798  0.62068483  1
  N  N6  1  0.34493967  0.34421368  0.87211425  1
  N  N7  1  0.65553812  0.00004173  0.87210386  1
  N  N8  1  0.99975341  0.65362244  0.87206098  1
  N  N9  1  0.66073231  0.65592471  0.12861347  1
  N  N10  1  0.33973211  0.99601269  0.12857712  1
  N  N11  1  0.99961218  0.35090043  0.12936241  1
loop_
_geom_bond_atom_site_label_1
_geom_bond_atom_site_label_2
_geom_bond_distance
_geom_bond_site_symmetry_2
N0 Ta1 2.122180 1_555
N0 Ta0 2.177083 1_655
N0 Zr2 2.200670 1_555
N0 Nb3 2.227556 1_555
N0 Nb4 2.253259 1_555
N1 Ta1 2.140488 1_555
N1 Zr2 2.184961 1_545
N1 Nb3 2.204734 1_555
N1 Ta0 2.222793 1_545
N1 Nb4 2.228053 1_545
N2 Ta1 2.121426 1_555
N2 Zr2 2.183663 1_655
N2 Ta0 2.196185 1_655
N2 Nb4 2.202436 1_545
N2 Nb3 2.250309 1_655
N3 Ta1 2.116608 1_555
N3 Zr2 2.190899 1_555
N3 Nb1 2.205176 1_545
N3 Nb0 2.220068 1_555
N3 Nb2 2.246918 1_555
N4 Ta1 2.120753 1_555
N4 Zr2 2.186749 1_545
N4 Nb2 2.202064 1_655
N4 Nb1 2.220122 1_545
N4 Nb0 2.251908 1_545
N5 Ta1 2.121353 1_555
N5 Zr2 2.193542 1_655
N5 Nb0 2.203423 1_555
N5 Nb2 2.215790 1_655
N5 Nb1 2.248299 1_655
N6 Nb2 2.196720 1_555
N6 Zr0 2.198890 1_556
N6 Zr1 2.204612 1_556
N6 Nb0 2.204699 1_555
N6 Nb1 2.215396 1_545
N7 Nb0 2.200434 1_545
N7 Zr1 2.201489 1_546
N7 Zr0 2.202009 1_556
N7 Nb1 2.205475 1_545
N7 Nb2 2.210688 1_655
N8 Nb1 2.198070 1_655
N8 Nb2 2.202290 1_655
N8 Zr0 2.203672 1_556
N8 Zr1 2.207381 1_656
N8 Nb0 2.213298 1_555
N9 Ta0 2.179297 1_655
N9 Zr0 2.203160 1_555
N9 Nb4 2.206536 1_555
N9 Nb3 2.213993 1_555
N9 Zr1 2.220278 1_555
N10 Ta0 2.167616 1_555
N10 Zr1 2.204999 1_555
N10 Nb4 2.213987 1_555
N10 Zr0 2.218088 1_565
N10 Nb3 2.218868 1_565
N11 Ta0 2.175919 1_655
N11 Zr0 2.198892 1_555
N11 Zr1 2.200204 1_655
N11 Nb3 2.203678 1_655
N11 Nb4 2.215658 1_545
