# generated using pymatgen
data_Cr3InAsSe8
_symmetry_space_group_name_H-M   'P 1'
_cell_length_a   7.59564021
_cell_length_b   7.59563860
_cell_length_c   7.59563858
_cell_angle_alpha   59.75739838
_cell_angle_beta   59.75740262
_cell_angle_gamma   59.75740125
_symmetry_Int_Tables_number   1
_chemical_formula_structural   Cr3InAsSe8
_chemical_formula_sum   'Cr3 In1 As1 Se8'
_cell_volume   308.16192286
_cell_formula_units_Z   1
loop_
 _symmetry_equiv_pos_site_id
 _symmetry_equiv_pos_as_xyz
  1  'x, y, z'
loop_
 _atom_site_type_symbol
 _atom_site_label
 _atom_site_symmetry_multiplicity
 _atom_site_fract_x
 _atom_site_fract_y
 _atom_site_fract_z
 _atom_site_occupancy
  Cr  Cr0  1  0.85668211  0.38142711  0.38142711  1
  Cr  Cr1  1  0.38142711  0.85668211  0.38142711  1
  Cr  Cr2  1  0.38142711  0.38142711  0.85668211  1
  In  In0  1  0.99939262  0.99939262  0.99939262  1
  As  As0  1  0.38960821  0.38960821  0.38960821  1
  Se  Se0  1  0.13779648  0.13779648  0.13779648  1
  Se  Se1  1  0.58265139  0.13259077  0.13259077  1
  Se  Se2  1  0.13259077  0.58265139  0.13259077  1
  Se  Se3  1  0.13259077  0.13259077  0.58265139  1
  Se  Se4  1  0.61427981  0.61427981  0.61427981  1
  Se  Se5  1  0.14869121  0.62143070  0.62143070  1
  Se  Se6  1  0.62143070  0.14869121  0.62143070  1
  Se  Se7  1  0.62143070  0.62143070  0.14869121  1
loop_
_geom_bond_atom_site_label_1
_geom_bond_atom_site_label_2
_geom_bond_distance
_geom_bond_site_symmetry_2
Cr0 Se4 2.497363 1_555
Cr0 Se7 2.509116 1_555
Cr0 Se6 2.509116 1_555
Cr0 Se3 2.574292 1_655
Cr0 Se2 2.574293 1_655
Cr0 Se0 2.626249 1_655
Cr1 Se4 2.497363 1_555
Cr1 Se7 2.509116 1_555
Cr1 Se5 2.509116 1_555
Cr1 Se3 2.574292 1_565
Cr1 Se1 2.574292 1_565
Cr1 Se0 2.626249 1_565
Cr2 Se4 2.497363 1_555
Cr2 Se6 2.509116 1_555
Cr2 Se5 2.509116 1_555
Cr2 Se2 2.574292 1_556
Cr2 Se1 2.574292 1_556
Cr2 Se0 2.626249 1_556
In0 Se2 2.578011 1_656
In0 Se3 2.578011 1_665
In0 Se1 2.578012 1_566
In0 Se0 2.579776 1_666
As0 Se5 2.486241 1_555
As0 Se6 2.486241 1_555
As0 Se7 2.486241 1_555
As0 Se1 2.800779 1_555
As0 Se2 2.800780 1_555
As0 Se3 2.800780 1_555
