# generated using pymatgen
data_Zn3In9Ir3Ru
_symmetry_space_group_name_H-M   'P 1'
_cell_length_a   6.79474402
_cell_length_b   6.89407045
_cell_length_c   7.31856016
_cell_angle_alpha   90.00000000
_cell_angle_beta   90.00000000
_cell_angle_gamma   89.54839691
_symmetry_Int_Tables_number   1
_chemical_formula_structural   Zn3In9Ir3Ru
_chemical_formula_sum   'Zn3 In9 Ir3 Ru1'
_cell_volume   342.81591384
_cell_formula_units_Z   1
loop_
 _symmetry_equiv_pos_site_id
 _symmetry_equiv_pos_as_xyz
  1  'x, y, z'
loop_
 _atom_site_type_symbol
 _atom_site_label
 _atom_site_symmetry_multiplicity
 _atom_site_fract_x
 _atom_site_fract_y
 _atom_site_fract_z
 _atom_site_occupancy
  Zn  Zn0  1  0.00134044  0.50021889  0.00000000  1
  Zn  Zn1  1  0.49964770  0.99901097  0.00000000  1
  Zn  Zn2  1  0.99776569  0.49873801  0.50000000  1
  In  In0  1  0.33501124  0.34505771  0.26551179  1
  In  In1  1  0.15744576  0.83341952  0.77288282  1
  In  In2  1  0.15744576  0.83341952  0.22711718  1
  In  In3  1  0.84062287  0.16981222  0.22934813  1
  In  In4  1  0.84062287  0.16981222  0.77065187  1
  In  In5  1  0.67022638  0.65030057  0.26576715  1
  In  In6  1  0.67022638  0.65030057  0.73423285  1
  In  In7  1  0.33501124  0.34505771  0.73448821  1
  In  In8  1  0.50314520  0.00050228  0.50000000  1
  Ir  Ir0  1  0.15878903  0.15745580  0.00000000  1
  Ir  Ir1  1  0.33697103  0.65622221  0.50000000  1
  Ir  Ir2  1  0.83949252  0.84389410  0.00000000  1
  Ru  Ru0  1  0.65623588  0.34677668  0.50000000  1
loop_
_geom_bond_atom_site_label_1
_geom_bond_atom_site_label_2
_geom_bond_distance
_geom_bond_site_symmetry_2
In0 Ir0 2.628071 1_555
In0 Ir1 2.747275 1_555
In0 Ru0 2.776602 1_555
In0 Zn2 3.046350 1_455
In0 In5 3.113172 1_555
In0 In8 3.138454 1_555
In0 Zn0 3.165774 1_555
In1 Ir1 2.635388 1_555
In1 Ir2 2.726342 1_456
In1 Ir0 2.784538 1_566
In1 Zn0 3.033645 1_556
In1 Zn1 3.084532 1_556
In1 In4 3.151842 1_465
In1 Zn2 3.244814 1_455
In1 In8 3.297793 1_565
In1 In2 3.324341 1_556
In2 Ir1 2.635388 1_555
In2 Ir2 2.726342 1_455
In2 Ir0 2.784538 1_565
In2 Zn0 3.033645 1_555
In2 Zn1 3.084532 1_555
In2 In3 3.151842 1_465
In2 Zn2 3.244814 1_455
In2 In8 3.297793 1_565
In3 Ru0 2.637704 1_555
In3 Ir0 2.737761 1_655
In3 Ir2 2.804685 1_545
In3 Zn0 3.039358 1_655
In3 Zn1 3.100750 1_545
In3 Zn2 3.200613 1_555
In3 In8 3.253662 1_555
In4 Ru0 2.637704 1_555
In4 Ir0 2.737761 1_656
In4 Ir2 2.804685 1_546
In4 Zn0 3.039358 1_656
In4 Zn1 3.100750 1_546
In4 Zn2 3.200613 1_555
In4 In8 3.253662 1_555
In5 Ir2 2.628956 1_555
In5 Ru0 2.707293 1_555
In5 Ir1 2.840122 1_555
In5 Zn2 2.991124 1_555
In5 Zn0 3.143050 1_655
In5 In8 3.164364 1_565
In6 Ir2 2.628956 1_556
In6 Ru0 2.707293 1_555
In6 Ir1 2.840122 1_555
In6 Zn2 2.991124 1_555
In6 In7 3.113172 1_555
In6 Zn0 3.143050 1_656
In6 In8 3.164364 1_565
In7 Ir0 2.628071 1_556
In7 Ir1 2.747275 1_555
In7 Ru0 2.776602 1_555
In7 Zn2 3.046350 1_455
In7 In8 3.138454 1_555
In7 Zn0 3.165774 1_556
In8 Ru0 2.611532 1_555
In8 Ir1 2.636399 1_545
Ir0 Zn1 2.552916 1_545
Ir0 Zn0 2.586232 1_555
Ir0 Ir2 3.074710 1_445
Ir1 Zn2 2.555459 1_455
Ir1 Ru0 3.030535 1_555
Ir2 Zn1 2.537100 1_555
Ir2 Zn0 2.604224 1_655
Ru0 Zn2 2.553640 1_555
