# generated using pymatgen
data_Li2ZnSiSe4
_symmetry_space_group_name_H-M   'P 1'
_cell_length_a   6.54461481
_cell_length_b   7.13975734
_cell_length_c   7.74205285
_cell_angle_alpha   90.00000000
_cell_angle_beta   90.00000000
_cell_angle_gamma   90.00000000
_symmetry_Int_Tables_number   1
_chemical_formula_structural   Li2ZnSiSe4
_chemical_formula_sum   'Li4 Zn2 Si2 Se8'
_cell_volume   361.76260637
_cell_formula_units_Z   2
loop_
 _symmetry_equiv_pos_site_id
 _symmetry_equiv_pos_as_xyz
  1  'x, y, z'
loop_
 _atom_site_type_symbol
 _atom_site_label
 _atom_site_symmetry_multiplicity
 _atom_site_fract_x
 _atom_site_fract_y
 _atom_site_fract_z
 _atom_site_occupancy
  Li  Li0  1  0.50794412  0.82842210  0.25328679  1
  Li  Li1  1  0.00794412  0.17157790  0.24671321  1
  Li  Li2  1  0.00794412  0.17157790  0.75328679  1
  Li  Li3  1  0.50794412  0.82842210  0.74671321  1
  Zn  Zn0  1  0.50335398  0.35463217  0.00000000  1
  Zn  Zn1  1  0.00335398  0.64536783  0.50000000  1
  Si  Si0  1  0.00575752  0.66410357  0.00000000  1
  Si  Si1  1  0.50575752  0.33589643  0.50000000  1
  Se  Se0  1  0.88156039  0.36787200  0.00000000  1
  Se  Se1  1  0.38156039  0.63212800  0.50000000  1
  Se  Se2  1  0.89597243  0.82597300  0.23844406  1
  Se  Se3  1  0.39597243  0.17402700  0.26155594  1
  Se  Se4  1  0.39597243  0.17402700  0.73844406  1
  Se  Se5  1  0.89597243  0.82597300  0.76155594  1
  Se  Se6  1  0.35399501  0.66686016  0.00000000  1
  Se  Se7  1  0.85399501  0.33313984  0.50000000  1
loop_
_geom_bond_atom_site_label_1
_geom_bond_atom_site_label_2
_geom_bond_distance
_geom_bond_site_symmetry_2
Li0 Se6 2.488190 1_555
Li0 Se1 2.509319 1_555
Li0 Se2 2.542155 1_555
Li0 Se3 2.574848 1_565
Li1 Se7 2.488190 1_455
Li1 Se0 2.509319 1_455
Li1 Se3 2.542155 1_555
Li1 Se2 2.574848 1_445
Li2 Se7 2.488190 1_455
Li2 Se0 2.509319 1_456
Li2 Se4 2.542155 1_555
Li2 Se5 2.574848 1_445
Li3 Se6 2.488190 1_556
Li3 Se1 2.509319 1_555
Li3 Se5 2.542155 1_555
Li3 Se4 2.574848 1_565
Se0 Si0 2.265832 1_655
Se0 Zn0 2.477020 1_555
Se1 Si1 2.265832 1_555
Se1 Zn1 2.477020 1_555
Se2 Si0 2.293424 1_655
Se2 Zn1 2.501436 1_655
Se3 Si1 2.293424 1_555
Se3 Zn0 2.501436 1_555
Se4 Si1 2.293424 1_555
Se4 Zn0 2.501436 1_556
Se5 Si0 2.293424 1_656
Se5 Zn1 2.501436 1_655
Se6 Si0 2.279165 1_555
Se6 Zn0 2.434127 1_555
Se7 Si1 2.279165 1_555
Se7 Zn1 2.434127 1_655
