# generated using pymatgen
data_Ba2NbReF14
_symmetry_space_group_name_H-M   'P 1'
_cell_length_a   7.51910956
_cell_length_b   5.01494756
_cell_length_c   6.96679351
_cell_angle_alpha   85.66372304
_cell_angle_beta   90.00000000
_cell_angle_gamma   90.00000000
_symmetry_Int_Tables_number   1
_chemical_formula_structural   Ba2NbReF14
_chemical_formula_sum   'Ba2 Nb1 Re1 F14'
_cell_volume   261.95143338
_cell_formula_units_Z   1
loop_
 _symmetry_equiv_pos_site_id
 _symmetry_equiv_pos_as_xyz
  1  'x, y, z'
loop_
 _atom_site_type_symbol
 _atom_site_label
 _atom_site_symmetry_multiplicity
 _atom_site_fract_x
 _atom_site_fract_y
 _atom_site_fract_z
 _atom_site_occupancy
  Ba  Ba0  1  0.25000000  0.04224730  0.69313555  1
  Ba  Ba1  1  0.75000000  0.97090023  0.30252028  1
  Nb  Nb0  1  0.25000000  0.45812102  0.21758616  1
  Re  Re0  1  0.75000000  0.54744798  0.77597738  1
  F  F0  1  0.25000000  0.61522586  0.94828363  1
  F  F1  1  0.54455039  0.31271841  0.79581662  1
  F  F2  1  0.75000000  0.39768104  0.04528859  1
  F  F3  1  0.03635941  0.67487071  0.20928097  1
  F  F4  1  0.25000000  0.14903079  0.06315136  1
  F  F5  1  0.07645791  0.20104770  0.35817780  1
  F  F6  1  0.42354209  0.20104770  0.35817780  1
  F  F7  1  0.57497713  0.79402339  0.64534251  1
  F  F8  1  0.95544961  0.31271841  0.79581662  1
  F  F9  1  0.75000000  0.84861094  0.93572290  1
  F  F10  1  0.46364059  0.67487071  0.20928097  1
  F  F11  1  0.75000000  0.42284044  0.51539234  1
  F  F12  1  0.92502287  0.79402339  0.64534251  1
  F  F13  1  0.25000000  0.58256995  0.48570302  1
loop_
_geom_bond_atom_site_label_1
_geom_bond_atom_site_label_2
_geom_bond_distance
_geom_bond_site_symmetry_2
Ba0 F4 2.672209 1_556
Ba0 F0 2.677699 1_545
Ba0 F1 2.720925 1_555
Ba0 F8 2.720925 1_455
Ba0 F6 2.738888 1_555
Ba0 F5 2.738888 1_555
Ba0 F7 2.773811 1_545
Ba0 F12 2.773811 1_445
Ba0 F13 2.811836 1_545
Ba0 F13 2.972993 1_555
Ba1 F9 2.672671 1_554
Ba1 F2 2.685582 1_565
Ba1 F3 2.721740 1_655
Ba1 F10 2.721740 1_555
Ba1 F5 2.752376 1_665
Ba1 F6 2.752376 1_565
Ba1 F11 2.800805 1_565
Ba1 F12 2.811169 1_555
Ba1 F7 2.811169 1_555
Ba1 F11 3.022782 1_555
F0 Nb0 1.979203 1_556
F1 Re0 1.940773 1_555
F2 Re0 1.967555 1_554
F3 Nb0 1.938004 1_555
F4 Nb0 1.952565 1_555
F5 Nb0 2.033025 1_555
F6 Nb0 2.033025 1_555
F7 Re0 1.979671 1_555
F8 Re0 1.940773 1_555
F9 Re0 1.942630 1_555
F10 Nb0 1.938004 1_555
F11 Re0 1.964150 1_555
F12 Re0 1.979671 1_555
F13 Nb0 2.013678 1_555
