# generated using pymatgen
data_CsTaTeO6
_symmetry_space_group_name_H-M   'P 1'
_cell_length_a   7.30050839
_cell_length_b   7.30050882
_cell_length_c   7.30050898
_cell_angle_alpha   120.65592146
_cell_angle_beta   119.44157732
_cell_angle_gamma   89.91880439
_symmetry_Int_Tables_number   1
_chemical_formula_structural   CsTaTeO6
_chemical_formula_sum   'Cs2 Ta2 Te2 O12'
_cell_volume   274.89238391
_cell_formula_units_Z   2
loop_
 _symmetry_equiv_pos_site_id
 _symmetry_equiv_pos_as_xyz
  1  'x, y, z'
loop_
 _atom_site_type_symbol
 _atom_site_label
 _atom_site_symmetry_multiplicity
 _atom_site_fract_x
 _atom_site_fract_y
 _atom_site_fract_z
 _atom_site_occupancy
  Cs  Cs0  1  0.62137392  0.87137392  0.75000000  1
  Cs  Cs1  1  0.37862608  0.12862608  0.25000000  1
  Ta  Ta0  1  0.50000000  0.50000000  0.00000000  1
  Ta  Ta1  1  0.00000000  0.50000000  0.50000000  1
  Te  Te0  1  0.00000000  0.50000000  0.00000000  1
  Te  Te1  1  0.00000000  0.00000000  0.50000000  1
  O  O0  1  0.06928575  0.81928575  0.25000000  1
  O  O1  1  0.68650014  0.43650014  0.25000000  1
  O  O2  1  0.06311505  0.82231778  0.62937343  1
  O  O3  1  0.69294435  0.43374162  0.87062657  1
  O  O4  1  0.69294435  0.82231778  0.25920372  1
  O  O5  1  0.06311505  0.43374162  0.24079628  1
  O  O6  1  0.93071425  0.18071425  0.75000000  1
  O  O7  1  0.31349986  0.56349986  0.75000000  1
  O  O8  1  0.93688495  0.17768222  0.37062657  1
  O  O9  1  0.30705565  0.56625838  0.12937343  1
  O  O10  1  0.30705565  0.17768222  0.74079628  1
  O  O11  1  0.93688495  0.56625838  0.75920372  1
loop_
_geom_bond_atom_site_label_1
_geom_bond_atom_site_label_2
_geom_bond_distance
_geom_bond_site_symmetry_2
Cs0 O7 3.180890 1_555
Cs0 O6 3.196040 1_565
Cs0 O11 3.202782 1_555
Cs0 O10 3.202782 1_565
Cs0 O8 3.202782 1_566
Cs0 O9 3.202782 1_555
Cs1 O1 3.180890 1_555
Cs1 O0 3.196040 1_545
Cs1 O5 3.202782 1_555
Cs1 O4 3.202782 1_545
Cs1 O2 3.202782 1_544
Cs1 O3 3.202782 1_555
O0 Te1 1.943629 1_565
O0 Te0 1.943629 1_555
O1 Ta1 1.953946 1_655
O1 Ta0 1.953946 1_555
O2 Te1 1.899180 1_565
O2 Ta1 1.987519 1_555
O3 Te0 1.899180 1_656
O3 Ta0 1.987519 1_556
O4 Te1 1.899180 1_665
O4 Ta0 1.987519 1_555
O5 Te0 1.899173 1_555
O5 Ta1 1.987526 1_555
O6 Te1 1.943629 1_655
O6 Te0 1.943629 1_656
O7 Ta1 1.953946 1_555
O7 Ta0 1.953946 1_556
O8 Te1 1.899180 1_655
O8 Ta1 1.987519 1_655
O9 Te0 1.899180 1_555
O9 Ta0 1.987519 1_555
O10 Te1 1.899180 1_555
O10 Ta0 1.987519 1_556
O11 Te0 1.899173 1_656
O11 Ta1 1.987526 1_655
