# generated using pymatgen
data_Cs2Te4Pt3
_symmetry_space_group_name_H-M   'P 1'
_cell_length_a   9.49046888
_cell_length_b   8.07549280
_cell_length_c   7.04238509
_cell_angle_alpha   77.43723939
_cell_angle_beta   56.15357943
_cell_angle_gamma   46.40918027
_symmetry_Int_Tables_number   1
_chemical_formula_structural   Cs2Te4Pt3
_chemical_formula_sum   'Cs2 Te4 Pt3'
_cell_volume   311.98132654
_cell_formula_units_Z   1
loop_
 _symmetry_equiv_pos_site_id
 _symmetry_equiv_pos_as_xyz
  1  'x, y, z'
loop_
 _atom_site_type_symbol
 _atom_site_label
 _atom_site_symmetry_multiplicity
 _atom_site_fract_x
 _atom_site_fract_y
 _atom_site_fract_z
 _atom_site_occupancy
  Cs  Cs0  1  0.63711523  0.63711523  0.36288477  1
  Cs  Cs1  1  0.36288477  0.36288477  0.63711523  1
  Te  Te0  1  0.05101913  0.71791316  0.28208684  1
  Te  Te1  1  0.71791316  0.05101913  0.94898087  1
  Te  Te2  1  0.94898087  0.28208684  0.71791316  1
  Te  Te3  1  0.28208684  0.94898087  0.05101913  1
  Pt  Pt0  1  0.50000000  0.50000000  0.00000000  1
  Pt  Pt1  1  0.00000000  0.00000000  0.00000000  1
  Pt  Pt2  1  0.00000000  0.00000000  0.50000000  1
loop_
_geom_bond_atom_site_label_1
_geom_bond_atom_site_label_2
_geom_bond_distance
_geom_bond_site_symmetry_2
Cs0 Pt1 4.042754 1_655
Cs0 Pt1 4.042754 1_566
Cs0 Pt0 4.046328 1_556
Cs0 Pt0 4.046328 1_555
Cs0 Pt2 4.046328 1_655
Cs0 Pt2 4.046328 1_565
Cs0 Te3 4.074168 1_556
Cs0 Te2 4.074168 1_554
Cs0 Te3 4.074168 1_645
Cs0 Te2 4.074168 1_465
Cs0 Te2 4.080970 1_555
Cs0 Te3 4.080970 1_555
Cs0 Te1 4.130731 1_564
Cs0 Te0 4.130731 1_655
Cs1 Pt1 4.042754 1_566
Cs1 Pt1 4.042754 1_655
Cs1 Pt0 4.046328 1_555
Cs1 Pt0 4.046328 1_556
Cs1 Pt2 4.046328 1_565
Cs1 Pt2 4.046328 1_655
Cs1 Te1 4.074168 1_554
Cs1 Te0 4.074168 1_556
Cs1 Te1 4.074168 1_465
Cs1 Te0 4.074168 1_645
Cs1 Te0 4.080970 1_555
Cs1 Te1 4.080970 1_555
Cs1 Te3 4.130731 1_546
Cs1 Te2 4.130731 1_455
Pt0 Te1 2.636433 1_554
Pt0 Te3 2.636433 1_555
Pt0 Te2 2.636433 1_554
Pt0 Te0 2.636433 1_555
Pt1 Te0 2.636655 1_545
Pt1 Te2 2.636655 1_454
Pt1 Te3 2.636655 1_545
Pt1 Te1 2.636655 1_454
Pt2 Te1 2.636433 1_455
Pt2 Te3 2.636433 1_545
Pt2 Te2 2.636433 1_455
Pt2 Te0 2.636433 1_545
