# generated using pymatgen
data_Y19Mg(Cd3Os)2
_symmetry_space_group_name_H-M   'P 1'
_cell_length_a   9.60047487
_cell_length_b   9.60047425
_cell_length_c   9.80432350
_cell_angle_alpha   90.00000000
_cell_angle_beta   90.00000000
_cell_angle_gamma   120.00000557
_symmetry_Int_Tables_number   1
_chemical_formula_structural   Y19Mg(Cd3Os)2
_chemical_formula_sum   'Y19 Mg1 Cd6 Os2'
_cell_volume   782.58882575
_cell_formula_units_Z   1
loop_
 _symmetry_equiv_pos_site_id
 _symmetry_equiv_pos_as_xyz
  1  'x, y, z'
loop_
 _atom_site_type_symbol
 _atom_site_label
 _atom_site_symmetry_multiplicity
 _atom_site_fract_x
 _atom_site_fract_y
 _atom_site_fract_z
 _atom_site_occupancy
  Y  Y0  1  0.00000000  0.00000000  0.00000000  1
  Y  Y1  1  0.20726708  0.79273292  0.43830266  1
  Y  Y2  1  0.20726708  0.41453417  0.43830266  1
  Y  Y3  1  0.58546583  0.79273292  0.43830266  1
  Y  Y4  1  0.79273292  0.20726708  0.56169734  1
  Y  Y5  1  0.79273292  0.58546583  0.56169734  1
  Y  Y6  1  0.41453417  0.20726708  0.56169734  1
  Y  Y7  1  0.78928669  0.21071331  0.94073939  1
  Y  Y8  1  0.78928669  0.57857339  0.94073939  1
  Y  Y9  1  0.42142661  0.21071331  0.94073939  1
  Y  Y10  1  0.21071331  0.78928669  0.05926061  1
  Y  Y11  1  0.21071331  0.42142661  0.05926061  1
  Y  Y12  1  0.57857339  0.78928669  0.05926061  1
  Y  Y13  1  0.54044937  0.45955063  0.25121839  1
  Y  Y14  1  0.54044937  0.08089874  0.25121839  1
  Y  Y15  1  0.91910126  0.45955063  0.25121839  1
  Y  Y16  1  0.45955063  0.54044937  0.74878161  1
  Y  Y17  1  0.45955063  0.91910126  0.74878161  1
  Y  Y18  1  0.08089874  0.54044937  0.74878161  1
  Mg  Mg0  1  0.00000000  0.00000000  0.50000000  1
  Cd  Cd0  1  0.88851036  0.11148964  0.25665220  1
  Cd  Cd1  1  0.88851036  0.77702272  0.25665220  1
  Cd  Cd2  1  0.22297728  0.11148964  0.25665220  1
  Cd  Cd3  1  0.11148964  0.88851036  0.74334780  1
  Cd  Cd4  1  0.11148964  0.22297728  0.74334780  1
  Cd  Cd5  1  0.77702272  0.88851036  0.74334780  1
  Os  Os0  1  0.33333300  0.66666700  0.25061001  1
  Os  Os1  1  0.66666700  0.33333300  0.74938999  1
loop_
_geom_bond_atom_site_label_1
_geom_bond_atom_site_label_2
_geom_bond_distance
_geom_bond_site_symmetry_2
Y0 Y11 3.551693 1_555
Y0 Y8 3.551693 1_444
Y0 Y9 3.551693 1_554
Y0 Y12 3.551693 1_445
Y0 Y7 3.551693 1_454
Y0 Y10 3.551693 1_545
Y1 Y15 3.521436 1_455
Y1 Y14 3.521436 1_565
Y1 Y18 3.696738 1_555
Y1 Y17 3.696738 1_555
Y10 Y15 3.540970 1_455
Y10 Y14 3.540970 1_565
Y10 Y18 3.680921 1_554
Y10 Y17 3.680921 1_554
Y11 Y13 3.540970 1_555
Y11 Y15 3.540970 1_455
Y11 Y16 3.680921 1_554
Y11 Y18 3.680921 1_554
Y12 Y13 3.540970 1_555
Y12 Y14 3.540970 1_565
Y12 Y16 3.680921 1_554
Y12 Y17 3.680921 1_554
Y13 Y3 3.521436 1_555
Y13 Y2 3.521436 1_555
Y13 Y14 3.635238 1_555
Y13 Y15 3.635238 1_555
Y13 Y9 3.680921 1_554
Y13 Y8 3.680921 1_554
Y13 Y6 3.696738 1_555
Y13 Y5 3.696738 1_555
Y14 Y3 3.521436 1_545
Y14 Y15 3.635238 1_555
Y14 Y7 3.680921 1_554
Y14 Y9 3.680921 1_554
Y14 Y4 3.696738 1_555
Y14 Y6 3.696738 1_555
Y15 Y2 3.521436 1_655
Y15 Y7 3.680921 1_554
Y15 Y8 3.680921 1_554
Y15 Y4 3.696738 1_555
Y15 Y5 3.696738 1_555
Y16 Y6 3.521436 1_555
Y16 Y5 3.521436 1_555
Y16 Y9 3.540970 1_555
Y16 Y8 3.540970 1_555
Y16 Y17 3.635238 1_555
Y16 Y18 3.635238 1_555
Y16 Y3 3.696738 1_555
Y16 Y2 3.696738 1_555
Y17 Y4 3.521436 1_565
Y17 Y6 3.521436 1_565
Y17 Y7 3.540970 1_565
Y17 Y9 3.540970 1_565
Y17 Y18 3.635238 1_555
Y17 Y3 3.696738 1_555
Y18 Y4 3.521436 1_455
Y18 Y5 3.521436 1_455
Y18 Y7 3.540970 1_455
Y18 Y8 3.540970 1_455
Y18 Y2 3.696738 1_555
Mg0 Y2 3.499223 1_555
Mg0 Y5 3.499223 1_445
Mg0 Y6 3.499223 1_555
Mg0 Y3 3.499223 1_445
Mg0 Y4 3.499223 1_455
Mg0 Y1 3.499223 1_545
Cd0 Mg0 3.021473 1_655
Cd0 Y0 3.125499 1_655
Cd0 Y15 3.205258 1_555
Cd0 Y14 3.205258 1_555
Cd0 Cd1 3.211041 1_545
Cd0 Cd2 3.211041 1_655
Cd0 Y4 3.388384 1_555
Cd0 Y3 3.478200 1_545
Cd0 Y2 3.478200 1_655
Cd0 Y7 3.509365 1_554
Cd0 Y12 3.600481 1_545
Cd0 Y11 3.600481 1_655
Cd1 Mg0 3.021463 1_665
Cd1 Y0 3.125489 1_665
Cd1 Y13 3.205266 1_555
Cd1 Y15 3.205277 1_555
Cd1 Cd2 3.211041 1_665
Cd1 Y5 3.388391 1_555
Cd1 Y3 3.478191 1_555
Cd1 Y1 3.478208 1_655
Cd1 Y8 3.509373 1_554
Cd1 Y12 3.600473 1_555
Cd1 Y10 3.600489 1_655
Cd2 Mg0 3.021463 1_555
Cd2 Y0 3.125489 1_555
Cd2 Y13 3.205266 1_555
Cd2 Y14 3.205278 1_555
Cd2 Y6 3.388391 1_555
Cd2 Y2 3.478191 1_555
Cd2 Y1 3.478208 1_545
Cd2 Y9 3.509373 1_554
Cd2 Y11 3.600473 1_555
Cd2 Y10 3.600489 1_545
Cd3 Mg0 3.021473 1_565
Cd3 Y0 3.125499 1_566
Cd3 Y18 3.205258 1_555
Cd3 Y17 3.205258 1_555
Cd3 Cd4 3.211041 1_565
Cd3 Cd5 3.211041 1_455
Cd3 Y1 3.388384 1_555
Cd3 Y6 3.478200 1_565
Cd3 Y5 3.478200 1_455
Cd3 Y10 3.509365 1_556
Cd3 Y9 3.600481 1_565
Cd3 Y8 3.600481 1_455
Cd4 Mg0 3.021463 1_555
Cd4 Y0 3.125489 1_556
Cd4 Y16 3.205266 1_555
Cd4 Y18 3.205277 1_555
Cd4 Cd5 3.211041 1_445
Cd4 Y2 3.388391 1_555
Cd4 Y6 3.478191 1_555
Cd4 Y4 3.478208 1_455
Cd4 Y11 3.509373 1_556
Cd4 Y9 3.600473 1_555
Cd4 Y7 3.600489 1_455
Cd5 Mg0 3.021463 1_665
Cd5 Y0 3.125489 1_666
Cd5 Y16 3.205266 1_555
Cd5 Y17 3.205278 1_555
Cd5 Y3 3.388391 1_555
Cd5 Y5 3.478191 1_555
Cd5 Y4 3.478208 1_565
Cd5 Y12 3.509373 1_556
Cd5 Y8 3.600473 1_555
Cd5 Y7 3.600489 1_565
Os0 Y10 2.770744 1_555
Os0 Y11 2.770750 1_555
Os0 Y12 2.770750 1_555
Os0 Y1 2.789401 1_555
Os0 Y2 2.789407 1_555
Os0 Y3 2.789407 1_555
Os0 Y14 3.444033 1_565
Os0 Y15 3.444033 1_455
Os0 Y13 3.444042 1_555
Os1 Y7 2.770744 1_555
Os1 Y8 2.770750 1_555
Os1 Y9 2.770750 1_555
Os1 Y4 2.789401 1_555
Os1 Y5 2.789407 1_555
Os1 Y6 2.789407 1_555
Os1 Y17 3.444033 1_545
Os1 Y18 3.444033 1_655
Os1 Y16 3.444042 1_555
