# generated using pymatgen
data_Rb6AsP3W
_symmetry_space_group_name_H-M   'P 1'
_cell_length_a   10.48920933
_cell_length_b   10.48920821
_cell_length_c   8.38617856
_cell_angle_alpha   90.04556982
_cell_angle_beta   89.95442869
_cell_angle_gamma   120.20347006
_symmetry_Int_Tables_number   1
_chemical_formula_structural   Rb6AsP3W
_chemical_formula_sum   'Rb12 As2 P6 W2'
_cell_volume   797.41779490
_cell_formula_units_Z   2
loop_
 _symmetry_equiv_pos_site_id
 _symmetry_equiv_pos_as_xyz
  1  'x, y, z'
loop_
 _atom_site_type_symbol
 _atom_site_label
 _atom_site_symmetry_multiplicity
 _atom_site_fract_x
 _atom_site_fract_y
 _atom_site_fract_z
 _atom_site_occupancy
  Rb  Rb0  1  0.14384253  0.29439382  0.28735539  1
  Rb  Rb1  1  0.85401494  0.14598506  0.78586729  1
  Rb  Rb2  1  0.53209173  0.46790827  0.10154909  1
  Rb  Rb3  1  0.06972609  0.53459978  0.60445561  1
  Rb  Rb4  1  0.46540022  0.93027391  0.60445561  1
  Rb  Rb5  1  0.53448436  0.06544917  0.10242738  1
  Rb  Rb6  1  0.93455083  0.46551564  0.10242738  1
  Rb  Rb7  1  0.46562276  0.53437724  0.60474600  1
  Rb  Rb8  1  0.14793878  0.85206122  0.28460832  1
  Rb  Rb9  1  0.70560618  0.85615747  0.28735539  1
  Rb  Rb10  1  0.85428755  0.70675219  0.79549885  1
  Rb  Rb11  1  0.29324781  0.14571245  0.79549885  1
  As  As0  1  0.79431514  0.58732339  0.40785023  1
  As  As1  1  0.41267661  0.20568486  0.40785023  1
  P  P0  1  0.33370822  0.66629178  0.27192663  1
  P  P1  1  0.66788394  0.33211606  0.77342273  1
  P  P2  1  0.78791456  0.21208544  0.40998950  1
  P  P3  1  0.21244324  0.78755676  0.90871403  1
  P  P4  1  0.21073382  0.42189050  0.90887953  1
  P  P5  1  0.57810950  0.78926618  0.90887953  1
  W  W0  1  0.66760160  0.33239840  0.49958253  1
  W  W1  1  0.33379960  0.66620040  0.99645890  1
loop_
_geom_bond_atom_site_label_1
_geom_bond_atom_site_label_2
_geom_bond_distance
_geom_bond_site_symmetry_2
As0 W0 2.436025 1_555
As0 Rb10 3.425959 1_555
As0 Rb8 3.488947 1_655
As0 Rb6 3.498046 1_555
As0 Rb2 3.503171 1_555
As0 Rb9 3.533338 1_555
As0 Rb3 3.603630 1_655
As0 Rb7 3.603830 1_555
As1 W0 2.436025 1_555
As1 Rb11 3.425959 1_555
As1 Rb8 3.488947 1_545
As1 Rb5 3.498046 1_555
As1 Rb2 3.503171 1_555
As1 Rb0 3.533339 1_555
As1 Rb4 3.603630 1_545
As1 Rb7 3.603830 1_555
P0 W1 2.310121 1_554
P0 Rb0 3.374009 1_555
P0 Rb9 3.374010 1_555
P0 Rb8 3.380061 1_555
P0 Rb4 3.673864 1_555
P0 Rb3 3.673864 1_555
P0 Rb7 3.682105 1_555
P0 Rb2 3.879294 1_555
P0 Rb5 3.888246 1_565
P0 Rb6 3.888247 1_455
P1 W0 2.296483 1_555
P1 Rb1 3.386764 1_555
P1 Rb10 3.401192 1_555
P1 Rb11 3.401192 1_555
P1 Rb5 3.669142 1_556
P1 Rb6 3.669142 1_556
P1 Rb2 3.695719 1_556
P2 W0 2.312818 1_555
P2 Rb1 3.374655 1_555
P2 Rb6 3.460581 1_555
P2 Rb5 3.460581 1_555
P2 Rb9 3.534630 1_545
P2 Rb0 3.534630 1_655
P2 Rb3 3.574796 1_655
P2 Rb4 3.574796 1_545
P3 W1 2.327117 1_555
P3 Rb8 3.362513 1_556
P3 Rb3 3.433726 1_555
P3 Rb4 3.433726 1_555
P3 Rb11 3.540314 1_565
P3 Rb10 3.540315 1_455
P3 Rb6 3.555348 1_456
P3 Rb5 3.555348 1_566
P4 W1 2.333016 1_555
P4 Rb0 3.378454 1_556
P4 Rb7 3.444612 1_555
P4 Rb3 3.445722 1_555
P4 Rb1 3.542060 1_455
P4 Rb6 3.544193 1_456
P4 Rb11 3.544311 1_555
P4 Rb2 3.546305 1_556
P5 W1 2.333016 1_555
P5 Rb9 3.378454 1_556
P5 Rb7 3.444612 1_555
P5 Rb4 3.445722 1_555
P5 Rb1 3.542060 1_565
P5 Rb5 3.544193 1_566
P5 Rb10 3.544311 1_555
P5 Rb2 3.546305 1_556
