# generated using pymatgen
data_CaCd2(BO3)2
_symmetry_space_group_name_H-M   'P 1'
_cell_length_a   4.81484507
_cell_length_b   6.03334464
_cell_length_c   9.15971299
_cell_angle_alpha   90.00000000
_cell_angle_beta   90.00000000
_cell_angle_gamma   90.00000000
_symmetry_Int_Tables_number   1
_chemical_formula_structural   CaCd2(BO3)2
_chemical_formula_sum   'Ca2 Cd4 B4 O12'
_cell_volume   266.08617925
_cell_formula_units_Z   2
loop_
 _symmetry_equiv_pos_site_id
 _symmetry_equiv_pos_as_xyz
  1  'x, y, z'
loop_
 _atom_site_type_symbol
 _atom_site_label
 _atom_site_symmetry_multiplicity
 _atom_site_fract_x
 _atom_site_fract_y
 _atom_site_fract_z
 _atom_site_occupancy
  Ca  Ca0  1  0.00000000  0.50000000  0.18740974  1
  Ca  Ca1  1  0.50000000  0.00000000  0.31259026  1
  Cd  Cd0  1  0.00000000  0.50000000  0.81196527  1
  Cd  Cd1  1  0.50000000  0.00000000  0.68803473  1
  Cd  Cd2  1  0.50000000  0.50000000  0.51005457  1
  Cd  Cd3  1  0.00000000  0.00000000  0.98994543  1
  B  B0  1  0.03518267  0.24195785  0.50336018  1
  B  B1  1  0.46481733  0.74195785  0.99663982  1
  B  B2  1  0.96481733  0.75804215  0.50336018  1
  B  B3  1  0.53518267  0.25804215  0.99663982  1
  O  O0  1  0.32121337  0.78199178  0.86645828  1
  O  O1  1  0.82121337  0.71800822  0.63354172  1
  O  O2  1  0.32147417  0.78204471  0.12527645  1
  O  O3  1  0.67852583  0.21795529  0.12527645  1
  O  O4  1  0.82147417  0.71795529  0.37472355  1
  O  O5  1  0.17852583  0.28204471  0.37472355  1
  O  O6  1  0.74095898  0.68207689  0.99823443  1
  O  O7  1  0.24095898  0.81792311  0.50176557  1
  O  O8  1  0.75904102  0.18207689  0.50176557  1
  O  O9  1  0.25904102  0.31792311  0.99823443  1
  O  O10  1  0.67878663  0.21800822  0.86645828  1
  O  O11  1  0.17878663  0.28199178  0.63354172  1
loop_
_geom_bond_atom_site_label_1
_geom_bond_atom_site_label_2
_geom_bond_distance
_geom_bond_site_symmetry_2
Ca0 O4 2.326340 1_455
Ca0 O5 2.326340 1_555
Ca0 O2 2.369689 1_555
Ca0 O3 2.369689 1_455
Ca0 O6 2.401032 1_454
Ca0 O9 2.401032 1_554
Ca1 O3 2.326340 1_555
Ca1 O2 2.326340 1_545
Ca1 O5 2.369689 1_555
Ca1 O4 2.369689 1_545
Ca1 O8 2.401032 1_555
Ca1 O7 2.401032 1_545
Cd0 O1 2.267610 1_455
Cd0 O11 2.267610 1_555
Cd0 O0 2.352806 1_555
Cd0 O10 2.352806 1_455
Cd0 O9 2.381892 1_555
Cd0 O6 2.381892 1_455
Cd1 O10 2.267610 1_555
Cd1 O0 2.267610 1_545
Cd1 O11 2.352806 1_555
Cd1 O1 2.352806 1_545
Cd1 O8 2.381892 1_555
Cd1 O7 2.381892 1_545
Cd2 O7 2.289244 1_555
Cd2 O8 2.289244 1_555
Cd2 O1 2.324094 1_555
Cd2 O11 2.324094 1_555
Cd2 O4 2.379422 1_555
Cd2 O5 2.379422 1_555
Cd3 O9 2.289244 1_555
Cd3 O6 2.289244 1_445
Cd3 O10 2.324094 1_455
Cd3 O0 2.324094 1_545
Cd3 O2 2.379422 1_546
Cd3 O3 2.379422 1_456
B0 O8 1.377868 1_455
B0 O5 1.386783 1_555
B0 O11 1.399391 1_555
B1 O6 1.377868 1_555
B1 O2 1.386783 1_556
B1 O0 1.399391 1_555
B2 O7 1.377868 1_655
B2 O4 1.386783 1_555
B2 O1 1.399391 1_555
B3 O9 1.377868 1_555
B3 O3 1.386783 1_556
B3 O10 1.399391 1_555
