# generated using pymatgen
data_Ta6Si6Mo5Ru
_symmetry_space_group_name_H-M   'P 1'
_cell_length_a   7.62914867
_cell_length_b   7.64471368
_cell_length_c   7.62926957
_cell_angle_alpha   126.41884500
_cell_angle_beta   128.36489383
_cell_angle_gamma   77.58048710
_symmetry_Int_Tables_number   1
_chemical_formula_structural   Ta6Si6Mo5Ru
_chemical_formula_sum   'Ta6 Si6 Mo5 Ru1'
_cell_volume   272.31869804
_cell_formula_units_Z   1
loop_
 _symmetry_equiv_pos_site_id
 _symmetry_equiv_pos_as_xyz
  1  'x, y, z'
loop_
 _atom_site_type_symbol
 _atom_site_label
 _atom_site_symmetry_multiplicity
 _atom_site_fract_x
 _atom_site_fract_y
 _atom_site_fract_z
 _atom_site_occupancy
  Ta  Ta0  1  0.95175541  0.91474965  0.46532920  1
  Ta  Ta1  1  0.05599348  0.50282531  0.95116059  1
  Ta  Ta2  1  0.55178960  0.50328230  0.44737084  1
  Ta  Ta3  1  0.44956309  0.91447076  0.96257439  1
  Ta  Ta4  1  0.74705391  0.09192138  0.84959879  1
  Ta  Ta5  1  0.24227061  0.09215588  0.34483340  1
  Si  Si0  1  0.75308714  0.50349465  0.24853083  1
  Si  Si1  1  0.25512530  0.50352953  0.75033540  1
  Si  Si2  1  0.66519923  0.17745117  0.51200302  1
  Si  Si3  1  0.33131257  0.83425945  0.50261592  1
  Si  Si4  1  0.16570975  0.17232033  0.00679866  1
  Si  Si5  1  0.82777796  0.82842166  0.00104745  1
  Mo  Mo0  1  0.50143950  0.76137080  0.25995563  1
  Mo  Mo1  1  0.99853794  0.75923406  0.76083097  1
  Mo  Mo2  1  0.87093309  0.24517859  0.37421228  1
  Mo  Mo3  1  0.13078381  0.50317371  0.37210138  1
  Mo  Mo4  1  0.37218817  0.24696140  0.87463862  1
  Ru  Ru0  1  0.62947944  0.50299938  0.87386161  1
loop_
_geom_bond_atom_site_label_1
_geom_bond_atom_site_label_2
_geom_bond_distance
_geom_bond_site_symmetry_2
Si0 Ta2 2.748765 1_555
Si0 Ta0 2.771386 1_555
Si0 Ta4 2.771816 1_554
Si1 Ta1 2.749219 1_555
Si1 Ta3 2.770281 1_555
Si1 Ta5 2.770285 1_555
Si2 Ta0 2.677330 1_545
Si2 Ta3 2.678665 1_544
Si2 Ta1 2.682573 1_655
Si2 Ta2 2.682914 1_555
Si2 Ta5 2.696648 1_555
Si2 Ta4 2.697896 1_555
Si3 Ta4 2.649714 1_565
Si3 Ta5 2.650339 1_565
Si3 Ta2 2.681815 1_555
Si3 Ta1 2.682248 1_554
Si3 Ta3 2.693918 1_555
Si3 Ta0 2.695088 1_455
Si4 Ta0 2.638316 1_444
Si4 Ta3 2.640120 1_544
Si4 Ta1 2.680916 1_554
Si4 Ta2 2.682014 1_555
Si4 Ta5 2.687099 1_555
Si4 Ta4 2.689195 1_454
Si5 Ta5 2.666783 1_665
Si5 Ta4 2.668093 1_564
Si5 Ta2 2.683035 1_554
Si5 Ta1 2.684299 1_654
Si5 Ta3 2.684441 1_554
Si5 Ta0 2.685305 1_555
Mo0 Si0 2.440400 1_555
Mo0 Si1 2.440775 1_554
Mo0 Si2 2.615479 1_565
Mo0 Si3 2.620936 1_555
Mo0 Ta4 2.865136 1_565
Mo0 Ta5 2.866670 1_565
Mo0 Ta2 2.902872 1_555
Mo0 Ta1 2.903046 1_554
Mo0 Ta0 2.915810 1_555
Mo0 Ta3 2.917709 1_554
Mo1 Si0 2.453863 1_555
Mo1 Si1 2.454048 1_655
Mo1 Si4 2.616423 1_666
Mo1 Si5 2.617632 1_556
Mo1 Ta5 2.841415 1_666
Mo1 Ta4 2.842003 1_565
Mo1 Ta2 2.891159 1_555
Mo1 Ta1 2.891863 1_655
Mo1 Ta0 2.936753 1_555
Mo1 Ta3 2.937817 1_655
Mo2 Si0 2.458019 1_555
Mo2 Si1 2.458900 1_655
Mo2 Si2 2.623123 1_555
Mo2 Si5 2.623338 1_545
Mo2 Ta3 2.850423 1_544
Mo2 Ta0 2.850833 1_545
Mo2 Ta1 2.904368 1_655
Mo2 Ta2 2.906172 1_555
Mo2 Ta5 2.914778 1_655
Mo2 Ta4 2.915145 1_554
Mo3 Si0 2.412347 1_455
Mo3 Si1 2.412600 1_555
Mo3 Si4 2.549053 1_555
Mo3 Si3 2.553495 1_555
Mo3 Ta1 2.890496 1_554
Mo3 Ta2 2.890878 1_555
Mo3 Ta5 2.988904 1_555
Mo3 Ta4 2.989475 1_454
Mo3 Ta3 2.994281 1_555
Mo3 Ta0 2.995218 1_455
Mo4 Si0 2.438567 1_556
Mo4 Si1 2.438806 1_555
Mo4 Si3 2.607475 1_545
Mo4 Si4 2.620123 1_556
Mo4 Ta0 2.853662 1_445
Mo4 Ta3 2.854303 1_545
Mo4 Ta1 2.889409 1_555
Mo4 Ta2 2.892465 1_556
Mo4 Ta4 2.927743 1_555
Mo4 Ta5 2.927887 1_555
Ru0 Si0 2.388016 1_556
Ru0 Si1 2.388173 1_555
Ru0 Si5 2.519836 1_556
Ru0 Si2 2.524626 1_555
Ru0 Ta2 2.924453 1_555
Ru0 Ta1 2.924535 1_655
Ru0 Ta3 3.000827 1_555
Ru0 Ta0 3.001154 1_556
Ru0 Ta4 3.002922 1_555
Ru0 Ta5 3.003328 1_555
