# generated using pymatgen
data_Ba2FeCuSeO3
_symmetry_space_group_name_H-M   'P 1'
_cell_length_a   4.06267378
_cell_length_b   4.06267378
_cell_length_c   16.93598844
_cell_angle_alpha   90.00000000
_cell_angle_beta   90.00000000
_cell_angle_gamma   90.00000000
_symmetry_Int_Tables_number   1
_chemical_formula_structural   Ba2FeCuSeO3
_chemical_formula_sum   'Ba4 Fe2 Cu2 Se2 O6'
_cell_volume   279.53387929
_cell_formula_units_Z   2
loop_
 _symmetry_equiv_pos_site_id
 _symmetry_equiv_pos_as_xyz
  1  'x, y, z'
loop_
 _atom_site_type_symbol
 _atom_site_label
 _atom_site_symmetry_multiplicity
 _atom_site_fract_x
 _atom_site_fract_y
 _atom_site_fract_z
 _atom_site_occupancy
  Ba  Ba0  1  0.74999900  0.74999900  0.18807697  1
  Ba  Ba1  1  0.74999900  0.74999900  0.41204408  1
  Ba  Ba2  1  0.25000000  0.25000000  0.58795592  1
  Ba  Ba3  1  0.25000000  0.25000000  0.81192303  1
  Fe  Fe0  1  0.25000000  0.25000000  0.31454240  1
  Fe  Fe1  1  0.74999900  0.74999900  0.68545760  1
  Cu  Cu0  1  0.74999900  0.25000000  0.00000000  1
  Cu  Cu1  1  0.25000000  0.74999900  0.00000000  1
  Se  Se0  1  0.25000000  0.25000000  0.08547279  1
  Se  Se1  1  0.74999900  0.74999900  0.91452721  1
  O  O0  1  0.74999900  0.25000000  0.29420503  1
  O  O1  1  0.25000000  0.74999900  0.29420503  1
  O  O2  1  0.25000000  0.25000000  0.42577291  1
  O  O3  1  0.74999900  0.74999900  0.57422709  1
  O  O4  1  0.74999900  0.25000000  0.70579497  1
  O  O5  1  0.25000000  0.74999900  0.70579497  1
loop_
_geom_bond_atom_site_label_1
_geom_bond_atom_site_label_2
_geom_bond_distance
_geom_bond_site_symmetry_2
Ba0 O0 2.712361 1_555
Ba0 O1 2.712361 1_555
Ba0 O1 2.712367 1_655
Ba0 O0 2.712367 1_565
Ba0 Se0 3.357415 1_555
Ba0 Se0 3.357420 1_655
Ba0 Se0 3.357420 1_565
Ba0 Se0 3.357425 1_665
Ba1 O3 2.746730 1_555
Ba1 O0 2.847668 1_555
Ba1 O1 2.847668 1_555
Ba1 O1 2.847674 1_655
Ba1 O0 2.847674 1_565
Ba1 O2 2.882132 1_555
Ba1 O2 2.882138 1_565
Ba1 O2 2.882138 1_655
Ba1 O2 2.882144 1_665
Ba2 O2 2.746730 1_555
Ba2 O5 2.847668 1_555
Ba2 O4 2.847668 1_555
Ba2 O5 2.847674 1_545
Ba2 O4 2.847674 1_455
Ba2 O3 2.882132 1_555
Ba2 O3 2.882138 1_455
Ba2 O3 2.882138 1_545
Ba2 O3 2.882144 1_445
Ba3 O4 2.712361 1_555
Ba3 O5 2.712361 1_555
Ba3 O4 2.712367 1_455
Ba3 O5 2.712367 1_545
Ba3 Se1 3.357415 1_555
Ba3 Se1 3.357420 1_455
Ba3 Se1 3.357420 1_545
Ba3 Se1 3.357425 1_445
Fe0 O2 1.883799 1_555
Fe0 O1 2.060327 1_555
Fe0 O0 2.060327 1_555
Fe0 O1 2.060335 1_545
Fe0 O0 2.060335 1_455
Fe1 O3 1.883799 1_555
Fe1 O4 2.060327 1_555
Fe1 O5 2.060327 1_555
Fe1 O4 2.060335 1_565
Fe1 O5 2.060335 1_655
Cu0 Se0 2.494346 1_555
Cu0 Se1 2.494346 1_554
Cu0 Se0 2.494352 1_655
Cu0 Se1 2.494352 1_544
Cu1 Se0 2.494346 1_555
Cu1 Se1 2.494346 1_554
Cu1 Se0 2.494352 1_565
Cu1 Se1 2.494352 1_454
