# generated using pymatgen
data_KNa(BeH3)2
_symmetry_space_group_name_H-M   'P 1'
_cell_length_a   5.41521424
_cell_length_b   6.91245516
_cell_length_c   7.54816049
_cell_angle_alpha   66.22109760
_cell_angle_beta   90.00000000
_cell_angle_gamma   90.00000000
_symmetry_Int_Tables_number   1
_chemical_formula_structural   KNa(BeH3)2
_chemical_formula_sum   'K2 Na2 Be4 H12'
_cell_volume   258.56012163
_cell_formula_units_Z   2
loop_
 _symmetry_equiv_pos_site_id
 _symmetry_equiv_pos_as_xyz
  1  'x, y, z'
loop_
 _atom_site_type_symbol
 _atom_site_label
 _atom_site_symmetry_multiplicity
 _atom_site_fract_x
 _atom_site_fract_y
 _atom_site_fract_z
 _atom_site_occupancy
  K  K0  1  0.24915749  0.74966639  0.24986622  1
  K  K1  1  0.74915749  0.25033361  0.25013378  1
  Na  Na0  1  0.24990530  0.75275272  0.74816805  1
  Na  Na1  1  0.74990530  0.24724728  0.75183195  1
  Be  Be0  1  0.25041713  0.30583089  0.59923032  1
  Be  Be1  1  0.75041713  0.69416911  0.90076968  1
  Be  Be2  1  0.24972110  0.19442915  0.90102405  1
  Be  Be3  1  0.74972110  0.80557085  0.59897595  1
  H  H0  1  0.02807268  0.34845791  0.49422046  1
  H  H1  1  0.25948892  0.09364020  0.75900729  1
  H  H2  1  0.74101095  0.59348803  0.75872060  1
  H  H3  1  0.24101095  0.40651197  0.74127940  1
  H  H4  1  0.75948892  0.90635980  0.74099271  1
  H  H5  1  0.52807268  0.65154209  0.00577954  1
  H  H6  1  0.47194496  0.15091095  0.00636594  1
  H  H7  1  0.02740207  0.13757507  0.00625309  1
  H  H8  1  0.97287940  0.63766338  0.00596180  1
  H  H9  1  0.47287940  0.36233662  0.49403820  1
  H  H10  1  0.52740207  0.86242493  0.49374691  1
  H  H11  1  0.97194496  0.84908905  0.49363406  1
loop_
_geom_bond_atom_site_label_1
_geom_bond_atom_site_label_2
_geom_bond_distance
_geom_bond_site_symmetry_2
Be0 H0 1.405868 1_555
Be0 H9 1.408605 1_555
Be0 H1 1.477084 1_555
Be0 H3 1.496106 1_555
Be1 H5 1.405868 1_556
Be1 H8 1.408605 1_556
Be1 H4 1.477084 1_555
Be1 H2 1.496106 1_555
Be2 H6 1.406412 1_556
Be2 H7 1.408190 1_556
Be2 H3 1.476424 1_555
Be2 H1 1.496516 1_555
Be3 H11 1.406412 1_555
Be3 H10 1.408190 1_555
Be3 H2 1.476424 1_555
Be3 H4 1.496516 1_555
H0 Na1 2.332920 1_455
H0 K1 2.672740 1_455
H0 K0 2.898559 1_555
H1 Na0 2.391094 1_545
H2 Na1 2.415288 1_555
H3 Na0 2.415288 1_555
H4 Na1 2.391094 1_565
H5 Na0 2.332920 1_554
H5 K0 2.672740 1_555
H5 K1 2.898559 1_555
H6 Na1 2.317032 1_554
H6 K1 2.670424 1_555
H6 K0 2.900948 1_545
H7 Na1 2.312311 1_454
H7 K1 2.724635 1_455
H7 K0 2.834979 1_545
H8 Na0 2.328391 1_654
H8 K0 2.715982 1_655
H8 K1 2.837906 1_555
H9 Na1 2.328391 1_555
H9 K1 2.715982 1_555
H9 K0 2.837906 1_555
H10 Na0 2.312311 1_555
H10 K0 2.724635 1_555
H10 K1 2.834979 1_565
H11 Na0 2.317032 1_655
H11 K0 2.670424 1_655
H11 K1 2.900948 1_565
