# generated using pymatgen
data_K2RbSbSe3
_symmetry_space_group_name_H-M   'P 1'
_cell_length_a   9.95618493
_cell_length_b   9.95618493
_cell_length_c   9.95618493
_cell_angle_alpha   90.00000000
_cell_angle_beta   90.00000000
_cell_angle_gamma   90.00000000
_symmetry_Int_Tables_number   1
_chemical_formula_structural   K2RbSbSe3
_chemical_formula_sum   'K8 Rb4 Sb4 Se12'
_cell_volume   986.91298727
_cell_formula_units_Z   4
loop_
 _symmetry_equiv_pos_site_id
 _symmetry_equiv_pos_as_xyz
  1  'x, y, z'
loop_
 _atom_site_type_symbol
 _atom_site_label
 _atom_site_symmetry_multiplicity
 _atom_site_fract_x
 _atom_site_fract_y
 _atom_site_fract_z
 _atom_site_occupancy
  K  K0  1  0.18337809  0.68337809  0.81662191  1
  K  K1  1  0.68337809  0.81662191  0.18337809  1
  K  K2  1  0.81662191  0.18337809  0.68337809  1
  K  K3  1  0.31662191  0.31662191  0.31662191  1
  K  K4  1  0.68906284  0.18906284  0.31093716  1
  K  K5  1  0.18906284  0.31093716  0.68906284  1
  K  K6  1  0.31093716  0.68906284  0.18906284  1
  K  K7  1  0.81093716  0.81093716  0.81093716  1
  Rb  Rb0  1  0.92579072  0.42579072  0.07420928  1
  Rb  Rb1  1  0.42579072  0.07420928  0.92579072  1
  Rb  Rb2  1  0.07420928  0.92579072  0.42579072  1
  Rb  Rb3  1  0.57420928  0.57420928  0.57420928  1
  Sb  Sb0  1  0.47325781  0.97325781  0.52674219  1
  Sb  Sb1  1  0.97325781  0.52674219  0.47325781  1
  Sb  Sb2  1  0.52674219  0.47325781  0.97325781  1
  Sb  Sb3  1  0.02674219  0.02674219  0.02674219  1
  Se  Se0  1  0.00245365  0.77931116  0.09735051  1
  Se  Se1  1  0.90264949  0.50245365  0.72068884  1
  Se  Se2  1  0.27931116  0.40264949  0.99754635  1
  Se  Se3  1  0.50245365  0.72068884  0.90264949  1
  Se  Se4  1  0.40264949  0.99754635  0.27931116  1
  Se  Se5  1  0.77931116  0.09735051  0.00245365  1
  Se  Se6  1  0.99754635  0.27931116  0.40264949  1
  Se  Se7  1  0.09735051  0.00245365  0.77931116  1
  Se  Se8  1  0.72068884  0.90264949  0.50245365  1
  Se  Se9  1  0.49754635  0.22068884  0.59735051  1
  Se  Se10  1  0.59735051  0.49754635  0.22068884  1
  Se  Se11  1  0.22068884  0.59735051  0.49754635  1
loop_
_geom_bond_atom_site_label_1
_geom_bond_atom_site_label_2
_geom_bond_distance
_geom_bond_site_symmetry_2
K0 Se7 3.311117 1_565
K0 Se11 3.311117 1_555
K0 Se3 3.311117 1_555
K0 Se1 3.459618 1_455
K0 Se0 3.459618 1_556
K0 Se2 3.459618 1_555
K1 Se0 3.311117 1_655
K1 Se10 3.311117 1_555
K1 Se8 3.311117 1_555
K1 Se3 3.459618 1_554
K1 Se5 3.459618 1_565
K1 Se4 3.459618 1_555
K2 Se5 3.311117 1_556
K2 Se9 3.311117 1_555
K2 Se1 3.311117 1_555
K2 Se8 3.459618 1_545
K2 Se7 3.459618 1_655
K2 Se6 3.459618 1_555
K3 Se6 3.311117 1_455
K3 Se2 3.311117 1_554
K3 Se4 3.311117 1_545
K3 Se11 3.459618 1_555
K3 Se9 3.459618 1_555
K3 Se10 3.459618 1_555
K4 Se5 3.327779 1_555
K4 Se10 3.327779 1_555
K4 Se6 3.327779 1_555
K4 Se4 3.444773 1_545
K4 Se8 3.444773 1_545
K4 Se9 3.444773 1_555
K5 Se9 3.327779 1_555
K5 Se7 3.327779 1_555
K5 Se2 3.327779 1_555
K5 Se6 3.444773 1_455
K5 Se1 3.444773 1_455
K5 Se11 3.444773 1_555
K6 Se4 3.327779 1_555
K6 Se11 3.327779 1_555
K6 Se0 3.327779 1_555
K6 Se2 3.444773 1_554
K6 Se3 3.444773 1_554
K6 Se10 3.444773 1_555
K7 Se8 3.327779 1_555
K7 Se1 3.327779 1_555
K7 Se3 3.327779 1_555
K7 Se0 3.444773 1_656
K7 Se5 3.444773 1_566
K7 Se7 3.444773 1_665
Rb0 Se0 3.608886 1_655
Rb0 Se2 3.608886 1_654
Rb0 Se1 3.608886 1_554
Rb0 Se6 3.651058 1_555
Rb0 Se10 3.651058 1_555
Rb0 Se5 3.651058 1_555
Rb1 Se5 3.608886 1_556
Rb1 Se4 3.608886 1_546
Rb1 Se3 3.608886 1_545
Rb1 Se2 3.651058 1_555
Rb1 Se9 3.651058 1_555
Rb1 Se7 3.651058 1_555
Rb2 Se7 3.608886 1_565
Rb2 Se6 3.608886 1_465
Rb2 Se8 3.608886 1_455
Rb2 Se4 3.651058 1_555
Rb2 Se11 3.651058 1_555
Rb2 Se0 3.651058 1_555
Rb3 Se10 3.608886 1_555
Rb3 Se9 3.608886 1_555
Rb3 Se11 3.608886 1_555
Rb3 Se8 3.651058 1_555
Rb3 Se1 3.651058 1_555
Rb3 Se3 3.651058 1_555
Sb0 Se9 2.573199 1_565
Sb0 Se8 2.573199 1_555
Sb0 Se4 2.573199 1_555
Sb1 Se11 2.573199 1_655
Sb1 Se1 2.573199 1_555
Sb1 Se6 2.573199 1_555
Sb2 Se10 2.573199 1_556
Sb2 Se3 2.573199 1_555
Sb2 Se2 2.573199 1_555
Sb3 Se0 2.573199 1_545
Sb3 Se5 2.573199 1_455
Sb3 Se7 2.573199 1_554
