# generated using pymatgen
data_LiCaAsPd3
_symmetry_space_group_name_H-M   'P 1'
_cell_length_a   5.07786522
_cell_length_b   5.07786452
_cell_length_c   5.07786473
_cell_angle_alpha   66.04639203
_cell_angle_beta   66.04639450
_cell_angle_gamma   66.04639032
_symmetry_Int_Tables_number   1
_chemical_formula_structural   LiCaAsPd3
_chemical_formula_sum   'Li1 Ca1 As1 Pd3'
_cell_volume   104.69128102
_cell_formula_units_Z   1
loop_
 _symmetry_equiv_pos_site_id
 _symmetry_equiv_pos_as_xyz
  1  'x, y, z'
loop_
 _atom_site_type_symbol
 _atom_site_label
 _atom_site_symmetry_multiplicity
 _atom_site_fract_x
 _atom_site_fract_y
 _atom_site_fract_z
 _atom_site_occupancy
  Li  Li0  1  0.86274458  0.86274458  0.86274458  1
  Ca  Ca0  1  0.12272226  0.12272226  0.12272226  1
  As  As0  1  0.50375938  0.50375938  0.50375938  1
  Pd  Pd0  1  0.50438762  0.50438762  0.00199755  1
  Pd  Pd1  1  0.00199755  0.50438762  0.50438762  1
  Pd  Pd2  1  0.50438762  0.00199755  0.50438762  1
loop_
_geom_bond_atom_site_label_1
_geom_bond_atom_site_label_2
_geom_bond_distance
_geom_bond_site_symmetry_2
Li0 Pd1 2.778785 1_655
Li0 Pd2 2.778785 1_565
Li0 Pd0 2.778785 1_556
Li0 Pd0 3.230900 1_566
Li0 Pd1 3.230900 1_665
Li0 Pd1 3.230900 1_656
Li0 Pd2 3.230900 1_566
Li0 Pd0 3.230900 1_656
Li0 Pd2 3.230900 1_665
Ca0 Pd1 3.001382 1_555
Ca0 Pd2 3.001382 1_555
Ca0 Pd0 3.001382 1_555
Ca0 Li0 3.077912 1_444
Ca0 Pd0 3.106030 1_545
Ca0 Pd1 3.106030 1_545
Ca0 Pd1 3.106030 1_554
Ca0 Pd2 3.106030 1_554
Ca0 Pd0 3.106030 1_455
Ca0 Pd2 3.106030 1_455
Ca0 Li0 3.311349 1_454
Ca0 Li0 3.311350 1_445
Ca0 Li0 3.311350 1_544
As0 Pd2 2.532581 1_565
As0 Pd0 2.532581 1_556
As0 Pd1 2.532581 1_655
As0 Pd2 2.545293 1_555
As0 Pd0 2.545293 1_555
As0 Pd1 2.545293 1_555
As0 Li0 3.209833 1_545
As0 Li0 3.209834 1_554
As0 Li0 3.209834 1_455
As0 Ca0 3.244960 1_565
As0 Ca0 3.244960 1_655
As0 Ca0 3.244960 1_556
Pd0 Pd2 2.754099 1_564
Pd0 Pd1 2.754099 1_654
Pd0 Pd2 2.780555 1_555
Pd0 Pd1 2.780556 1_555
Pd1 Pd2 2.754099 1_465
Pd1 Pd2 2.780555 1_555
