# generated using pymatgen
data_Hf5(SiSb)2
_symmetry_space_group_name_H-M   'P 1'
_cell_length_a   7.89984864
_cell_length_b   7.89984907
_cell_length_c   7.14202231
_cell_angle_alpha   90.00000000
_cell_angle_beta   90.00000000
_cell_angle_gamma   125.80608861
_symmetry_Int_Tables_number   1
_chemical_formula_structural   Hf5(SiSb)2
_chemical_formula_sum   'Hf10 Si4 Sb4'
_cell_volume   361.47686408
_cell_formula_units_Z   2
loop_
 _symmetry_equiv_pos_site_id
 _symmetry_equiv_pos_as_xyz
  1  'x, y, z'
loop_
 _atom_site_type_symbol
 _atom_site_label
 _atom_site_symmetry_multiplicity
 _atom_site_fract_x
 _atom_site_fract_y
 _atom_site_fract_z
 _atom_site_occupancy
  Hf  Hf0  1  0.04119384  0.28709824  0.33176041  1
  Hf  Hf1  1  0.95880616  0.71290176  0.66823959  1
  Hf  Hf2  1  0.45880616  0.21290176  0.83176041  1
  Hf  Hf3  1  0.78709824  0.54119384  0.16823959  1
  Hf  Hf4  1  0.54119384  0.78709824  0.16823959  1
  Hf  Hf5  1  0.21290176  0.45880616  0.83176041  1
  Hf  Hf6  1  0.71290176  0.95880616  0.66823959  1
  Hf  Hf7  1  0.28709824  0.04119384  0.33176041  1
  Hf  Hf8  1  0.00000000  0.00000000  0.00000000  1
  Hf  Hf9  1  0.50000000  0.50000000  0.50000000  1
  Si  Si0  1  0.37385954  0.37385954  0.12440148  1
  Si  Si1  1  0.62614046  0.62614046  0.87559852  1
  Si  Si2  1  0.12614046  0.12614046  0.62440148  1
  Si  Si3  1  0.87385954  0.87385954  0.37559852  1
  Sb  Sb0  1  0.79180330  0.20819670  0.00000000  1
  Sb  Sb1  1  0.20819670  0.79180330  0.00000000  1
  Sb  Sb2  1  0.70819670  0.29180330  0.50000000  1
  Sb  Sb3  1  0.29180330  0.70819670  0.50000000  1
loop_
_geom_bond_atom_site_label_1
_geom_bond_atom_site_label_2
_geom_bond_distance
_geom_bond_site_symmetry_2
Hf0 Si2 2.726513 1_555
Hf0 Si3 2.730050 1_445
Hf0 Si0 2.731638 1_555
Hf0 Sb0 2.906434 1_455
Hf0 Sb2 2.912003 1_455
Hf0 Sb3 2.953558 1_555
Hf1 Si3 2.726513 1_555
Hf1 Si2 2.730050 1_665
Hf1 Si1 2.731638 1_555
Hf1 Sb1 2.906434 1_656
Hf1 Sb3 2.912003 1_655
Hf1 Sb2 2.953558 1_555
Hf2 Si0 2.726513 1_556
Hf2 Si1 2.730050 1_555
Hf2 Si2 2.731638 1_555
Hf2 Sb2 2.906434 1_555
Hf2 Sb0 2.912003 1_556
Hf2 Sb1 2.953558 1_546
Hf3 Si1 2.726513 1_554
Hf3 Si0 2.730050 1_555
Hf3 Si3 2.731638 1_555
Hf3 Sb2 2.906434 1_555
Hf3 Sb0 2.912003 1_555
Hf3 Sb1 2.953558 1_655
Hf4 Si1 2.726513 1_554
Hf4 Si0 2.730050 1_555
Hf4 Si3 2.731638 1_555
Hf4 Sb3 2.906434 1_555
Hf4 Sb1 2.912003 1_555
Hf4 Sb0 2.953558 1_565
Hf5 Si0 2.726513 1_556
Hf5 Si1 2.730050 1_555
Hf5 Si2 2.731638 1_555
Hf5 Sb3 2.906434 1_555
Hf5 Sb1 2.912003 1_556
Hf5 Sb0 2.953558 1_456
Hf6 Si3 2.726513 1_555
Hf6 Si2 2.730050 1_665
Hf6 Si1 2.731638 1_555
Hf6 Sb0 2.906434 1_566
Hf6 Sb2 2.912003 1_565
Hf6 Sb3 2.953558 1_555
Hf7 Si2 2.726513 1_555
Hf7 Si3 2.730050 1_445
Hf7 Si0 2.731638 1_555
Hf7 Sb1 2.906434 1_545
Hf7 Sb3 2.912003 1_545
Hf7 Sb2 2.953558 1_555
Hf8 Si3 2.831975 1_445
Hf8 Si2 2.831975 1_554
Hf8 Si0 2.833466 1_555
Hf8 Si1 2.833466 1_444
Hf8 Sb1 2.928386 1_545
Hf8 Sb0 2.928386 1_455
Hf9 Si1 2.831975 1_555
Hf9 Si0 2.831975 1_555
Hf9 Si3 2.833466 1_555
Hf9 Si2 2.833466 1_555
Hf9 Sb3 2.928386 1_555
Hf9 Sb2 2.928386 1_555
Si0 Si1 2.540465 1_554
Si2 Si3 2.540465 1_445
