# generated using pymatgen
data_Be2Al2Ru3
_symmetry_space_group_name_H-M   'P 1'
_cell_length_a   8.85101672
_cell_length_b   8.85101731
_cell_length_c   3.02547819
_cell_angle_alpha   90.00000000
_cell_angle_beta   90.00000000
_cell_angle_gamma   159.89581992
_symmetry_Int_Tables_number   1
_chemical_formula_structural   Be2Al2Ru3
_chemical_formula_sum   'Be2 Al2 Ru3'
_cell_volume   81.46959365
_cell_formula_units_Z   1
loop_
 _symmetry_equiv_pos_site_id
 _symmetry_equiv_pos_as_xyz
  1  'x, y, z'
loop_
 _atom_site_type_symbol
 _atom_site_label
 _atom_site_symmetry_multiplicity
 _atom_site_fract_x
 _atom_site_fract_y
 _atom_site_fract_z
 _atom_site_occupancy
  Be  Be0  1  0.28526874  0.71473126  0.50000000  1
  Be  Be1  1  0.71473126  0.28526874  0.50000000  1
  Al  Al0  1  0.42074105  0.57925895  0.50000000  1
  Al  Al1  1  0.57925895  0.42074105  0.50000000  1
  Ru  Ru0  1  0.17374344  0.82625656  0.00000000  1
  Ru  Ru1  1  0.00000000  0.00000000  0.00000000  1
  Ru  Ru2  1  0.82625656  0.17374344  0.00000000  1
loop_
_geom_bond_atom_site_label_1
_geom_bond_atom_site_label_2
_geom_bond_distance
_geom_bond_site_symmetry_2
Be0 Be1 1.974416 1_455
Be0 Be1 1.974417 1_565
Be0 Ru2 2.277162 1_566
Be0 Ru2 2.277162 1_565
Be0 Ru2 2.277162 1_455
Be0 Ru2 2.277162 1_456
Be0 Ru0 2.463169 1_556
Be0 Ru0 2.463169 1_555
Be1 Ru0 2.277162 1_546
Be1 Ru0 2.277162 1_545
Be1 Ru0 2.277162 1_656
Be1 Ru0 2.277162 1_655
Be1 Ru2 2.463169 1_555
Be1 Ru2 2.463169 1_556
Al0 Be0 2.361323 1_555
Al0 Ru1 2.565856 1_666
Al0 Ru1 2.565856 1_665
Al0 Ru1 2.565856 1_555
Al0 Ru1 2.565856 1_556
Al0 Ru2 2.717961 1_455
Al0 Ru2 2.717961 1_456
Al0 Ru2 2.717961 1_565
Al0 Ru2 2.717961 1_566
Al0 Al1 2.763014 1_555
Al1 Be1 2.361323 1_555
Al1 Ru1 2.565856 1_556
Al1 Ru1 2.565856 1_555
Al1 Ru1 2.565856 1_666
Al1 Ru1 2.565856 1_665
Al1 Ru0 2.717961 1_656
Al1 Ru0 2.717961 1_655
Al1 Ru0 2.717961 1_545
Al1 Ru0 2.717961 1_546
