# generated using pymatgen
data_GaAu
_symmetry_space_group_name_H-M   'P 1'
_cell_length_a   3.64196013
_cell_length_b   6.25732029
_cell_length_c   6.25878973
_cell_angle_alpha   90.00000000
_cell_angle_beta   90.00000000
_cell_angle_gamma   90.00000000
_symmetry_Int_Tables_number   1
_chemical_formula_structural   GaAu
_chemical_formula_sum   'Ga4 Au4'
_cell_volume   142.63100223
_cell_formula_units_Z   4
loop_
 _symmetry_equiv_pos_site_id
 _symmetry_equiv_pos_as_xyz
  1  'x, y, z'
loop_
 _atom_site_type_symbol
 _atom_site_label
 _atom_site_symmetry_multiplicity
 _atom_site_fract_x
 _atom_site_fract_y
 _atom_site_fract_z
 _atom_site_occupancy
  Ga  Ga0  1  0.25000000  0.67939137  0.92416307  1
  Ga  Ga1  1  0.75000000  0.32060863  0.07583693  1
  Ga  Ga2  1  0.25000000  0.17939137  0.57583693  1
  Ga  Ga3  1  0.75000000  0.82060863  0.42416307  1
  Au  Au0  1  0.25000000  0.50487208  0.31234692  1
  Au  Au1  1  0.75000000  0.49512792  0.68765308  1
  Au  Au2  1  0.25000000  0.00487308  0.18765308  1
  Au  Au3  1  0.75000000  0.99512792  0.81234692  1
loop_
_geom_bond_atom_site_label_1
_geom_bond_atom_site_label_2
_geom_bond_distance
_geom_bond_site_symmetry_2
Ga0 Ga1 3.042571 1_456
Ga0 Ga1 3.042571 1_556
Ga2 Ga3 3.042571 1_445
Ga2 Ga3 3.042571 1_545
Au0 Ga1 2.614681 1_455
Au0 Ga1 2.614681 1_555
Au0 Ga2 2.620594 1_555
Au0 Ga0 2.663697 1_554
Au0 Ga3 2.776506 1_455
Au0 Ga3 2.776506 1_555
Au0 Au1 2.972761 1_455
Au0 Au1 2.972761 1_555
Au1 Ga0 2.614681 1_655
Au1 Ga0 2.614681 1_555
Au1 Ga3 2.620594 1_555
Au1 Ga1 2.663697 1_556
Au1 Ga2 2.776506 1_555
Au1 Ga2 2.776506 1_655
Au2 Ga3 2.614683 1_445
Au2 Ga3 2.614683 1_545
Au2 Ga0 2.620599 1_544
Au2 Ga2 2.663694 1_555
Au2 Ga1 2.776502 1_555
Au2 Ga1 2.776502 1_455
Au2 Au3 2.972761 1_544
Au2 Au3 2.972761 1_444
Au3 Ga2 2.614681 1_565
Au3 Ga2 2.614681 1_665
Au3 Ga1 2.620594 1_566
Au3 Ga3 2.663697 1_555
Au3 Ga0 2.776506 1_655
Au3 Ga0 2.776506 1_555
