# generated using pymatgen
data_ThAg2
_symmetry_space_group_name_H-M   'P 1'
_cell_length_a   9.76763100
_cell_length_b   9.76763315
_cell_length_c   6.65683036
_cell_angle_alpha   90.00000000
_cell_angle_beta   90.00000000
_cell_angle_gamma   119.99999973
_symmetry_Int_Tables_number   1
_chemical_formula_structural   ThAg2
_chemical_formula_sum   'Th8 Ag16'
_cell_volume   550.01775296
_cell_formula_units_Z   8
loop_
 _symmetry_equiv_pos_site_id
 _symmetry_equiv_pos_as_xyz
  1  'x, y, z'
loop_
 _atom_site_type_symbol
 _atom_site_label
 _atom_site_symmetry_multiplicity
 _atom_site_fract_x
 _atom_site_fract_y
 _atom_site_fract_z
 _atom_site_occupancy
  Th  Th0_0  1  0.00000000  0.00000000  0.00000000  1
  Th  Th0_1  1  0.00000000  0.00000000  0.50000000  1
  Th  Th0_2  1  0.00000000  0.50000000  0.00000000  1
  Th  Th0_3  1  0.00000000  0.50000000  0.50000000  1
  Th  Th0_4  1  0.50000000  0.00000000  0.00000000  1
  Th  Th0_5  1  0.50000000  0.00000000  0.50000000  1
  Th  Th0_6  1  0.50000000  0.50000000  0.00000000  1
  Th  Th0_7  1  0.50000000  0.50000000  0.50000000  1
  Ag  Ag0_0  1  0.16666650  0.33333350  0.25000000  1
  Ag  Ag0_1  1  0.16666650  0.33333350  0.75000000  1
  Ag  Ag0_2  1  0.16666650  0.83333350  0.25000000  1
  Ag  Ag0_3  1  0.16666650  0.83333350  0.75000000  1
  Ag  Ag0_4  1  0.66666650  0.33333350  0.25000000  1
  Ag  Ag0_5  1  0.66666650  0.33333350  0.75000000  1
  Ag  Ag0_6  1  0.66666650  0.83333350  0.25000000  1
  Ag  Ag0_7  1  0.66666650  0.83333350  0.75000000  1
  Ag  Ag1_0  1  0.33333350  0.16666650  0.25000000  1
  Ag  Ag1_1  1  0.33333350  0.16666650  0.75000000  1
  Ag  Ag1_2  1  0.33333350  0.66666650  0.25000000  1
  Ag  Ag1_3  1  0.33333350  0.66666650  0.75000000  1
  Ag  Ag1_4  1  0.83333350  0.16666650  0.25000000  1
  Ag  Ag1_5  1  0.83333350  0.16666650  0.75000000  1
  Ag  Ag1_6  1  0.83333350  0.66666650  0.25000000  1
  Ag  Ag1_7  1  0.83333350  0.66666650  0.75000000  1
loop_
_geom_bond_atom_site_label_1
_geom_bond_atom_site_label_2
_geom_bond_distance
_geom_bond_site_symmetry_2
Th0_0 Th0_1 3.328415 1_554
Th0_0 Th0_1 3.328415 1_555
Th0_2 Th0_3 3.328415 1_554
Th0_2 Th0_3 3.328415 1_555
Th0_4 Th0_5 3.328415 1_555
Th0_4 Th0_5 3.328415 1_554
Th0_6 Th0_7 3.328415 1_555
Th0_6 Th0_7 3.328415 1_554
Ag0_0 Ag1_4 2.819669 1_455
Ag0_0 Ag1_2 2.819670 1_555
Ag0_0 Ag1_0 2.819678 1_555
Ag0_0 Th0_3 3.274160 1_555
Ag0_0 Th0_2 3.274160 1_555
Ag0_0 Th0_6 3.274163 1_555
Ag0_0 Th0_7 3.274163 1_555
Ag0_0 Th0_0 3.274164 1_555
Ag0_0 Th0_1 3.274164 1_555
Ag0_0 Ag0_1 3.328415 1_555
Ag0_0 Ag0_1 3.328415 1_554
Ag0_1 Ag1_5 2.819669 1_455
Ag0_1 Ag1_3 2.819670 1_555
Ag0_1 Ag1_1 2.819678 1_555
Ag0_1 Th0_3 3.274160 1_555
Ag0_1 Th0_2 3.274160 1_556
Ag0_1 Th0_7 3.274163 1_555
Ag0_1 Th0_6 3.274163 1_556
Ag0_1 Th0_0 3.274164 1_556
Ag0_1 Th0_1 3.274164 1_555
Ag0_2 Ag1_6 2.819669 1_455
Ag0_2 Ag1_0 2.819670 1_565
Ag0_2 Ag1_2 2.819678 1_555
Ag0_2 Th0_0 3.274160 1_565
Ag0_2 Th0_1 3.274160 1_565
Ag0_2 Th0_4 3.274163 1_565
Ag0_2 Th0_5 3.274163 1_565
Ag0_2 Th0_2 3.274164 1_555
Ag0_2 Th0_3 3.274164 1_555
Ag0_2 Ag0_3 3.328415 1_554
Ag0_2 Ag0_3 3.328415 1_555
Ag0_3 Ag1_7 2.819669 1_455
Ag0_3 Ag1_1 2.819670 1_565
Ag0_3 Ag1_3 2.819678 1_555
Ag0_3 Th0_1 3.274160 1_565
Ag0_3 Th0_0 3.274160 1_566
Ag0_3 Th0_4 3.274163 1_566
Ag0_3 Th0_5 3.274163 1_565
Ag0_3 Th0_2 3.274164 1_556
Ag0_3 Th0_3 3.274164 1_555
Ag0_4 Ag1_0 2.819669 1_555
Ag0_4 Ag1_6 2.819670 1_555
Ag0_4 Ag1_4 2.819678 1_555
Ag0_4 Th0_7 3.274160 1_555
Ag0_4 Th0_6 3.274160 1_555
Ag0_4 Th0_3 3.274163 1_655
Ag0_4 Th0_2 3.274163 1_655
Ag0_4 Th0_5 3.274164 1_555
Ag0_4 Th0_4 3.274164 1_555
Ag0_4 Ag0_5 3.328415 1_554
Ag0_4 Ag0_5 3.328415 1_555
Ag0_5 Ag1_1 2.819669 1_555
Ag0_5 Ag1_7 2.819670 1_555
Ag0_5 Ag1_5 2.819678 1_555
Ag0_5 Th0_6 3.274160 1_556
Ag0_5 Th0_7 3.274160 1_555
Ag0_5 Th0_3 3.274163 1_655
Ag0_5 Th0_2 3.274163 1_656
Ag0_5 Th0_4 3.274164 1_556
Ag0_5 Th0_5 3.274164 1_555
Ag0_6 Ag1_2 2.819669 1_555
Ag0_6 Ag1_4 2.819670 1_565
Ag0_6 Ag1_6 2.819678 1_555
Ag0_6 Th0_4 3.274160 1_565
Ag0_6 Th0_5 3.274160 1_565
Ag0_6 Th0_0 3.274163 1_665
Ag0_6 Th0_1 3.274163 1_665
Ag0_6 Th0_6 3.274164 1_555
Ag0_6 Th0_7 3.274164 1_555
Ag0_6 Ag0_7 3.328415 1_555
Ag0_6 Ag0_7 3.328415 1_554
Ag0_7 Ag1_3 2.819669 1_555
Ag0_7 Ag1_5 2.819670 1_565
Ag0_7 Ag1_7 2.819678 1_555
Ag0_7 Th0_4 3.274160 1_566
Ag0_7 Th0_5 3.274160 1_565
Ag0_7 Th0_0 3.274163 1_666
Ag0_7 Th0_1 3.274163 1_665
Ag0_7 Th0_6 3.274164 1_556
Ag0_7 Th0_7 3.274164 1_555
Ag1_0 Th0_4 3.274160 1_555
Ag1_0 Th0_5 3.274160 1_555
Ag1_0 Th0_0 3.274163 1_555
Ag1_0 Th0_1 3.274163 1_555
Ag1_0 Th0_7 3.274164 1_555
Ag1_0 Th0_6 3.274164 1_555
Ag1_0 Ag1_1 3.328415 1_554
Ag1_0 Ag1_1 3.328415 1_555
Ag1_1 Th0_4 3.274160 1_556
Ag1_1 Th0_5 3.274160 1_555
Ag1_1 Th0_0 3.274163 1_556
Ag1_1 Th0_1 3.274163 1_555
Ag1_1 Th0_6 3.274164 1_556
Ag1_1 Th0_7 3.274164 1_555
Ag1_2 Th0_6 3.274160 1_555
Ag1_2 Th0_7 3.274160 1_555
Ag1_2 Th0_3 3.274163 1_555
Ag1_2 Th0_2 3.274163 1_555
Ag1_2 Th0_4 3.274164 1_565
Ag1_2 Th0_5 3.274164 1_565
Ag1_2 Ag1_3 3.328415 1_554
Ag1_2 Ag1_3 3.328415 1_555
Ag1_3 Th0_6 3.274160 1_556
Ag1_3 Th0_7 3.274160 1_555
Ag1_3 Th0_3 3.274163 1_555
Ag1_3 Th0_2 3.274163 1_556
Ag1_3 Th0_5 3.274164 1_565
Ag1_3 Th0_4 3.274164 1_566
Ag1_4 Th0_0 3.274160 1_655
Ag1_4 Th0_1 3.274160 1_655
Ag1_4 Th0_5 3.274163 1_555
Ag1_4 Th0_4 3.274163 1_555
Ag1_4 Th0_3 3.274164 1_655
Ag1_4 Th0_2 3.274164 1_655
Ag1_4 Ag1_5 3.328415 1_555
Ag1_4 Ag1_5 3.328415 1_554
Ag1_5 Th0_0 3.274160 1_656
Ag1_5 Th0_1 3.274160 1_655
Ag1_5 Th0_4 3.274163 1_556
Ag1_5 Th0_5 3.274163 1_555
Ag1_5 Th0_2 3.274164 1_656
Ag1_5 Th0_3 3.274164 1_655
Ag1_6 Th0_3 3.274160 1_655
Ag1_6 Th0_2 3.274160 1_655
Ag1_6 Th0_6 3.274163 1_555
Ag1_6 Th0_7 3.274163 1_555
Ag1_6 Th0_0 3.274164 1_665
Ag1_6 Th0_1 3.274164 1_665
Ag1_6 Ag1_7 3.328415 1_555
Ag1_6 Ag1_7 3.328415 1_554
Ag1_7 Th0_2 3.274160 1_656
Ag1_7 Th0_3 3.274160 1_655
Ag1_7 Th0_6 3.274163 1_556
Ag1_7 Th0_7 3.274163 1_555
Ag1_7 Th0_0 3.274164 1_666
Ag1_7 Th0_1 3.274164 1_665
