# generated using pymatgen
data_Sc4TaSb3Ru8
_symmetry_space_group_name_H-M   'P 1'
_cell_length_a   6.36334195
_cell_length_b   4.48518577
_cell_length_c   8.99323638
_cell_angle_alpha   90.00000000
_cell_angle_beta   90.00013239
_cell_angle_gamma   90.00000000
_symmetry_Int_Tables_number   1
_chemical_formula_structural   Sc4TaSb3Ru8
_chemical_formula_sum   'Sc4 Ta1 Sb3 Ru8'
_cell_volume   256.67389772
_cell_formula_units_Z   1
loop_
 _symmetry_equiv_pos_site_id
 _symmetry_equiv_pos_as_xyz
  1  'x, y, z'
loop_
 _atom_site_type_symbol
 _atom_site_label
 _atom_site_symmetry_multiplicity
 _atom_site_fract_x
 _atom_site_fract_y
 _atom_site_fract_z
 _atom_site_occupancy
  Sc  Sc0  1  0.75002325  0.25000000  0.12876013  1
  Sc  Sc1  1  0.25002179  0.75000000  0.37496829  1
  Sc  Sc2  1  0.74997591  0.25000000  0.62125055  1
  Sc  Sc3  1  0.24998806  0.75000000  0.87500656  1
  Ta  Ta0  1  0.74998184  0.75000000  0.87502214  1
  Sb  Sb0  1  0.25000269  0.25000000  0.12317184  1
  Sb  Sb1  1  0.74999767  0.75000000  0.37501143  1
  Sb  Sb2  1  0.24999711  0.25000000  0.62683883  1
  Ru  Ru0  1  0.50416721  0.75000000  0.11946686  1
  Ru  Ru1  1  0.99586833  0.75000000  0.11947481  1
  Ru  Ru2  1  0.49827088  0.25000000  0.37497553  1
  Ru  Ru3  1  0.00175206  0.25000000  0.37497854  1
  Ru  Ru4  1  0.99584657  0.75000000  0.63051917  1
  Ru  Ru5  1  0.50412601  0.75000000  0.63052266  1
  Ru  Ru6  1  0.99152046  0.25000000  0.87501416  1
  Ru  Ru7  1  0.50846017  0.25000000  0.87501650  1
loop_
_geom_bond_atom_site_label_1
_geom_bond_atom_site_label_2
_geom_bond_distance
_geom_bond_site_symmetry_2
Sb0 Sc3 3.163889 1_554
Sb0 Sc3 3.163889 1_544
Sb0 Sc0 3.181937 1_455
Sb0 Sc0 3.182199 1_555
Sb0 Sc1 3.187009 1_545
Sb0 Sc1 3.187009 1_555
Sb1 Sc2 3.151694 1_565
Sb1 Sc2 3.151694 1_555
Sb1 Sc0 3.151771 1_565
Sb1 Sc0 3.151771 1_555
Sb1 Sc1 3.181517 1_555
Sb1 Sc1 3.181825 1_655
Sb2 Sc3 3.163905 1_545
Sb2 Sc3 3.163905 1_555
Sb2 Sc2 3.181933 1_555
Sb2 Sc2 3.182203 1_455
Sb2 Sc1 3.187482 1_545
Sb2 Sc1 3.187482 1_555
Ru0 Ta0 2.698052 1_554
Ru0 Sc3 2.729362 1_554
Ru0 Sc0 2.735646 1_565
Ru0 Sc0 2.735646 1_555
Ru0 Sb0 2.765160 1_565
Ru0 Sb0 2.765160 1_555
Ru0 Sb1 2.780041 1_555
Ru0 Sc1 2.809842 1_555
Ru1 Ta0 2.698369 1_554
Ru1 Sc3 2.729201 1_654
Ru1 Sc0 2.735605 1_565
Ru1 Sc0 2.735605 1_555
Ru1 Sb0 2.765047 1_665
Ru1 Sb0 2.765047 1_655
Ru1 Sb1 2.780131 1_555
Ru1 Sc1 2.809807 1_655
Ru2 Sc0 2.733017 1_555
Ru2 Sc2 2.733269 1_555
Ru2 Sc1 2.743111 1_545
Ru2 Sc1 2.743111 1_555
Ru2 Sb1 2.755914 1_545
Ru2 Sb1 2.755914 1_555
Ru2 Sb0 2.761141 1_555
Ru2 Sb2 2.761606 1_555
Ru3 Sc0 2.732945 1_455
Ru3 Sc2 2.733518 1_455
Ru3 Sc1 2.743186 1_555
Ru3 Sc1 2.743186 1_545
Ru3 Sb1 2.756016 1_445
Ru3 Sb1 2.756016 1_455
Ru3 Sb0 2.761105 1_555
Ru3 Sb2 2.761474 1_555
Ru4 Ta0 2.698664 1_555
Ru4 Sc3 2.729416 1_655
Ru4 Sc2 2.735693 1_565
Ru4 Sc2 2.735693 1_555
Ru4 Sb2 2.765105 1_655
Ru4 Sb2 2.765105 1_665
Ru4 Sb1 2.779833 1_555
Ru4 Sc1 2.810315 1_655
Ru5 Ta0 2.698599 1_555
Ru5 Sc3 2.729383 1_555
Ru5 Sc2 2.735618 1_565
Ru5 Sc2 2.735618 1_555
Ru5 Sb2 2.765025 1_555
Ru5 Sb2 2.765025 1_565
Ru5 Sb1 2.779946 1_555
Ru5 Sc1 2.810075 1_555
Ru6 Ta0 2.718744 1_555
Ru6 Ta0 2.718744 1_545
Ru6 Sc0 2.751194 1_556
Ru6 Sc2 2.751487 1_555
Ru6 Sb0 2.772373 1_656
Ru6 Sb2 2.772486 1_655
Ru6 Sc3 2.781064 1_645
Ru6 Sc3 2.781064 1_655
Ru7 Ta0 2.718683 1_555
Ru7 Ta0 2.718683 1_545
Ru7 Sc0 2.751404 1_556
Ru7 Sc2 2.751408 1_555
Ru7 Sb0 2.772269 1_556
Ru7 Sb2 2.772445 1_555
Ru7 Sc3 2.781081 1_555
Ru7 Sc3 2.781081 1_545
