# generated using pymatgen
data_La3(Sn3Pd2)2
_symmetry_space_group_name_H-M   'P 1'
_cell_length_a   4.68543600
_cell_length_b   15.84529300
_cell_length_c   17.11487200
_cell_angle_alpha   90.00000000
_cell_angle_beta   90.00000000
_cell_angle_gamma   90.00000000
_symmetry_Int_Tables_number   1
_chemical_formula_structural   La3(Sn3Pd2)2
_chemical_formula_sum   'La12 Sn24 Pd16'
_cell_volume   1270.64414553
_cell_formula_units_Z   4
loop_
 _symmetry_equiv_pos_site_id
 _symmetry_equiv_pos_as_xyz
  1  'x, y, z'
loop_
 _atom_site_type_symbol
 _atom_site_label
 _atom_site_symmetry_multiplicity
 _atom_site_fract_x
 _atom_site_fract_y
 _atom_site_fract_z
 _atom_site_occupancy
  La  La0  1  0.25000000  0.88196600  0.14163300  1
  La  La1  1  0.75000000  0.11803400  0.85836700  1
  La  La2  1  0.75000000  0.38196600  0.35836700  1
  La  La3  1  0.25000000  0.61803400  0.64163300  1
  La  La4  1  0.25000000  0.01721100  0.35066100  1
  La  La5  1  0.75000000  0.98278900  0.64933900  1
  La  La6  1  0.75000000  0.51721100  0.14933900  1
  La  La7  1  0.25000000  0.48278900  0.85066100  1
  La  La8  1  0.25000000  0.75137000  0.38405900  1
  La  La9  1  0.75000000  0.24863000  0.61594100  1
  La  La10  1  0.75000000  0.25137000  0.11594100  1
  La  La11  1  0.25000000  0.74863000  0.88405900  1
  Sn  Sn0  1  0.25000000  0.58228800  0.02582100  1
  Sn  Sn1  1  0.75000000  0.41771200  0.97417900  1
  Sn  Sn2  1  0.75000000  0.08228800  0.47417900  1
  Sn  Sn3  1  0.25000000  0.91771200  0.52582100  1
  Sn  Sn4  1  0.25000000  0.10570900  0.17118000  1
  Sn  Sn5  1  0.75000000  0.89429100  0.82882000  1
  Sn  Sn6  1  0.75000000  0.60570900  0.32882000  1
  Sn  Sn7  1  0.25000000  0.39429100  0.67118000  1
  Sn  Sn8  1  0.25000000  0.66334800  0.18909200  1
  Sn  Sn9  1  0.75000000  0.33665200  0.81090800  1
  Sn  Sn10  1  0.75000000  0.16334800  0.31090800  1
  Sn  Sn11  1  0.25000000  0.83665200  0.68909200  1
  Sn  Sn12  1  0.25000000  0.37959300  0.20631000  1
  Sn  Sn13  1  0.75000000  0.62040700  0.79369000  1
  Sn  Sn14  1  0.75000000  0.87959300  0.29369000  1
  Sn  Sn15  1  0.25000000  0.12040700  0.70631000  1
  Sn  Sn16  1  0.25000000  0.22986200  0.44294600  1
  Sn  Sn17  1  0.75000000  0.77013800  0.55705400  1
  Sn  Sn18  1  0.75000000  0.72986200  0.05705400  1
  Sn  Sn19  1  0.25000000  0.27013800  0.94294600  1
  Sn  Sn20  1  0.25000000  0.53833400  0.44760300  1
  Sn  Sn21  1  0.75000000  0.46166600  0.55239700  1
  Sn  Sn22  1  0.75000000  0.03833400  0.05239700  1
  Sn  Sn23  1  0.25000000  0.96166600  0.94760300  1
  Pd  Pd0  1  0.25000000  0.12130100  0.01129400  1
  Pd  Pd1  1  0.75000000  0.87869900  0.98870600  1
  Pd  Pd2  1  0.75000000  0.62130100  0.48870600  1
  Pd  Pd3  1  0.25000000  0.37869900  0.51129400  1
  Pd  Pd4  1  0.25000000  0.40028500  0.04781100  1
  Pd  Pd5  1  0.75000000  0.59971500  0.95218900  1
  Pd  Pd6  1  0.75000000  0.90028500  0.45218900  1
  Pd  Pd7  1  0.25000000  0.09971500  0.54781100  1
  Pd  Pd8  1  0.25000000  0.23354700  0.28257900  1
  Pd  Pd9  1  0.75000000  0.76645300  0.71742100  1
  Pd  Pd10  1  0.75000000  0.73354700  0.21742100  1
  Pd  Pd11  1  0.25000000  0.26645300  0.78257900  1
  Pd  Pd12  1  0.25000000  0.52535100  0.29071800  1
  Pd  Pd13  1  0.75000000  0.47464900  0.70928200  1
  Pd  Pd14  1  0.75000000  0.02535100  0.20928200  1
  Pd  Pd15  1  0.25000000  0.97464900  0.79071800  1
loop_
_geom_bond_atom_site_label_1
_geom_bond_atom_site_label_2
_geom_bond_distance
_geom_bond_site_symmetry_2
La0 Pd14 3.462762 1_565
La0 Pd14 3.462762 1_465
La0 Sn14 3.501773 1_555
La0 Sn14 3.501773 1_455
La0 Pd1 3.513033 1_554
La0 Pd1 3.513033 1_454
La0 Sn23 3.552822 1_554
La0 Sn8 3.558021 1_555
La0 Pd10 3.563916 1_455
La0 Pd10 3.563916 1_555
La0 Sn4 3.581157 1_565
La0 Sn18 3.659575 1_555
La0 Sn18 3.659575 1_455
La0 Sn22 3.736287 1_565
La0 Sn22 3.736287 1_465
La1 Pd15 3.462762 1_645
La1 Pd15 3.462762 1_545
La1 Sn15 3.501773 1_655
La1 Sn15 3.501773 1_555
La1 Pd0 3.513033 1_556
La1 Pd0 3.513033 1_656
La1 Sn22 3.552822 1_556
La1 Sn9 3.558021 1_555
La1 Pd11 3.563916 1_555
La1 Pd11 3.563916 1_655
La1 Sn5 3.581157 1_545
La1 Sn19 3.659575 1_555
La1 Sn19 3.659575 1_655
La1 Sn23 3.736287 1_645
La1 Sn23 3.736287 1_545
La2 Pd12 3.462762 1_655
La2 Pd12 3.462762 1_555
La2 Sn12 3.501773 1_555
La2 Sn12 3.501773 1_655
La2 Pd3 3.513033 1_655
La2 Pd3 3.513033 1_555
La2 Sn21 3.552822 1_555
La2 Sn10 3.558021 1_555
La2 Pd8 3.563916 1_555
La2 Pd8 3.563916 1_655
La2 Sn6 3.581157 1_555
La2 Sn16 3.659575 1_555
La2 Sn16 3.659575 1_655
La2 Sn20 3.736287 1_655
La2 Sn20 3.736287 1_555
La3 Pd13 3.462762 1_455
La3 Pd13 3.462762 1_555
La3 Sn13 3.501773 1_555
La3 Sn13 3.501773 1_455
La3 Pd2 3.513033 1_555
La3 Pd2 3.513033 1_455
La3 Sn20 3.552822 1_555
La3 Sn11 3.558021 1_555
La3 Pd9 3.563916 1_555
La3 Pd9 3.563916 1_455
La3 Sn7 3.581157 1_555
La3 Sn17 3.659575 1_455
La3 Sn17 3.659575 1_555
La3 Sn21 3.736287 1_455
La3 Sn21 3.736287 1_555
La4 Sn2 3.319729 1_455
La4 Sn2 3.319729 1_555
La4 Sn14 3.345752 1_545
La4 Sn14 3.345752 1_445
La4 Sn10 3.363503 1_555
La4 Sn10 3.363503 1_455
La4 Pd14 3.370435 1_555
La4 Pd14 3.370435 1_455
La4 Sn4 3.376729 1_555
La4 Sn3 3.387136 1_545
La4 Pd6 3.455476 1_545
La4 Pd6 3.455476 1_445
La4 Pd7 3.618596 1_555
La4 Pd8 3.620535 1_555
La4 Sn16 3.721330 1_555
La5 Sn3 3.319729 1_555
La5 Sn3 3.319729 1_655
La5 Sn15 3.345752 1_665
La5 Sn15 3.345752 1_565
La5 Sn11 3.363503 1_555
La5 Sn11 3.363503 1_655
La5 Pd15 3.370435 1_555
La5 Pd15 3.370435 1_655
La5 Sn5 3.376729 1_555
La5 Sn2 3.387136 1_565
La5 Pd7 3.455476 1_565
La5 Pd7 3.455476 1_665
La5 Pd6 3.618596 1_555
La5 Pd9 3.620535 1_555
La5 Sn17 3.721330 1_555
La6 Sn0 3.319729 1_555
La6 Sn0 3.319729 1_655
La6 Sn12 3.345752 1_655
La6 Sn12 3.345752 1_555
La6 Sn8 3.363503 1_555
La6 Sn8 3.363503 1_655
La6 Pd12 3.370435 1_655
La6 Pd12 3.370435 1_555
La6 Sn6 3.376729 1_555
La6 Sn1 3.387136 1_554
La6 Pd4 3.455476 1_655
La6 Pd4 3.455476 1_555
La6 Pd5 3.618596 1_554
La6 Pd10 3.620535 1_555
La6 Sn18 3.721330 1_555
La7 Sn1 3.319729 1_555
La7 Sn1 3.319729 1_455
La7 Sn13 3.345752 1_555
La7 Sn13 3.345752 1_455
La7 Sn9 3.363503 1_455
La7 Sn9 3.363503 1_555
La7 Pd13 3.370435 1_455
La7 Pd13 3.370435 1_555
La7 Sn7 3.376729 1_555
La7 Sn0 3.387136 1_556
La7 Pd5 3.455476 1_455
La7 Pd5 3.455476 1_555
La7 Pd4 3.618596 1_556
La7 Pd11 3.620535 1_555
La7 Sn19 3.721330 1_555
La8 Sn6 3.421868 1_455
La8 Sn6 3.421868 1_555
La8 Sn14 3.465313 1_455
La8 Sn14 3.465313 1_555
La8 Pd6 3.523590 1_555
La8 Pd6 3.523590 1_455
La8 Sn20 3.546485 1_555
La8 Sn3 3.582422 1_555
La8 Pd2 3.597739 1_555
La8 Pd2 3.597739 1_455
La8 Sn8 3.616594 1_555
La8 Pd10 3.701610 1_455
La8 Pd10 3.701610 1_555
La8 Sn17 3.787219 1_455
La8 Sn17 3.787219 1_555
La9 Sn7 3.421868 1_555
La9 Sn7 3.421868 1_655
La9 Sn15 3.465313 1_555
La9 Sn15 3.465313 1_655
La9 Pd7 3.523590 1_655
La9 Pd7 3.523590 1_555
La9 Sn21 3.546485 1_555
La9 Sn2 3.582422 1_555
La9 Pd3 3.597739 1_655
La9 Pd3 3.597739 1_555
La9 Sn9 3.616594 1_555
La9 Pd11 3.701610 1_655
La9 Pd11 3.701610 1_555
La9 Sn16 3.787219 1_655
La9 Sn16 3.787219 1_555
La10 Sn4 3.421868 1_555
La10 Sn4 3.421868 1_655
La10 Sn12 3.465313 1_655
La10 Sn12 3.465313 1_555
La10 Pd4 3.523590 1_555
La10 Pd4 3.523590 1_655
La10 Sn22 3.546485 1_555
La10 Sn1 3.582422 1_554
La10 Pd0 3.597739 1_655
La10 Pd0 3.597739 1_555
La10 Sn10 3.616594 1_555
La10 Pd8 3.701610 1_655
La10 Pd8 3.701610 1_555
La10 Sn19 3.787219 1_554
La10 Sn19 3.787219 1_654
La11 Sn5 3.421868 1_555
La11 Sn5 3.421868 1_455
La11 Sn13 3.465313 1_455
La11 Sn13 3.465313 1_555
La11 Pd5 3.523590 1_455
La11 Pd5 3.523590 1_555
La11 Sn23 3.546485 1_555
La11 Sn0 3.582422 1_556
La11 Pd1 3.597739 1_555
La11 Pd1 3.597739 1_455
La11 Sn11 3.616594 1_555
La11 Pd9 3.701610 1_555
La11 Pd9 3.701610 1_455
La11 Sn18 3.787219 1_456
La11 Sn18 3.787219 1_556
Sn0 Sn8 3.075418 1_555
Sn0 Sn18 3.352904 1_555
Sn0 Sn18 3.352904 1_455
Sn1 Sn9 3.075418 1_555
Sn1 Sn19 3.352904 1_555
Sn1 Sn19 3.352904 1_655
Sn10 Sn2 3.075418 1_555
Sn11 Sn3 3.075418 1_555
Sn16 Sn2 3.352904 1_555
Sn16 Sn2 3.352904 1_455
Sn17 Sn3 3.352904 1_655
Sn17 Sn3 3.352904 1_555
Pd0 Sn19 2.632536 1_554
Pd0 Sn4 2.747559 1_555
Pd0 Sn23 2.754346 1_544
Pd0 Sn22 2.776953 1_555
Pd0 Sn22 2.776953 1_455
Pd1 Sn18 2.632536 1_556
Pd1 Sn5 2.747559 1_555
Pd1 Sn22 2.754346 1_566
Pd1 Sn23 2.776953 1_655
Pd1 Sn23 2.776953 1_555
Pd2 Sn17 2.632536 1_555
Pd2 Sn6 2.747559 1_555
Pd2 Sn21 2.754346 1_555
Pd2 Sn20 2.776953 1_555
Pd2 Sn20 2.776953 1_655
Pd3 Sn16 2.632536 1_555
Pd3 Sn7 2.747559 1_555
Pd3 Sn20 2.754346 1_555
Pd3 Sn21 2.776953 1_455
Pd3 Sn21 2.776953 1_555
Pd4 Sn1 2.674451 1_554
Pd4 Sn1 2.674451 1_454
Pd4 Sn12 2.732432 1_555
Pd4 Sn19 2.733838 1_554
Pd4 Sn0 2.908345 1_555
Pd5 Sn0 2.674451 1_556
Pd5 Sn0 2.674451 1_656
Pd5 Sn13 2.732432 1_555
Pd5 Sn18 2.733838 1_556
Pd5 Sn1 2.908345 1_555
Pd6 Sn3 2.674451 1_555
Pd6 Sn3 2.674451 1_655
Pd6 Sn14 2.732432 1_555
Pd6 Sn17 2.733838 1_555
Pd6 Sn2 2.908345 1_565
Pd7 Sn2 2.674451 1_555
Pd7 Sn2 2.674451 1_455
Pd7 Sn15 2.732432 1_555
Pd7 Sn16 2.733838 1_555
Pd7 Sn3 2.908345 1_545
Pd8 Sn10 2.638308 1_555
Pd8 Sn10 2.638308 1_455
Pd8 Sn12 2.656906 1_555
Pd8 Sn16 2.745282 1_555
Pd8 Sn4 2.781767 1_555
Pd9 Sn11 2.638308 1_655
Pd9 Sn11 2.638308 1_555
Pd9 Sn13 2.656906 1_555
Pd9 Sn17 2.745282 1_555
Pd9 Sn5 2.781767 1_555
Pd10 Sn8 2.638308 1_655
Pd10 Sn8 2.638308 1_555
Pd10 Sn14 2.656906 1_555
Pd10 Sn18 2.745282 1_555
Pd10 Sn6 2.781767 1_555
Pd11 Sn9 2.638308 1_555
Pd11 Sn9 2.638308 1_455
Pd11 Sn15 2.656906 1_555
Pd11 Sn19 2.745282 1_555
Pd11 Sn7 2.781767 1_555
Pd12 Sn20 2.692936 1_555
Pd12 Sn12 2.724172 1_555
Pd12 Sn6 2.744970 1_455
Pd12 Sn6 2.744970 1_555
Pd12 Sn8 2.794003 1_555
Pd13 Sn21 2.692936 1_555
Pd13 Sn13 2.724172 1_555
Pd13 Sn7 2.744970 1_555
Pd13 Sn7 2.744970 1_655
Pd13 Sn9 2.794003 1_555
Pd14 Sn22 2.692936 1_555
Pd14 Sn14 2.724172 1_545
Pd14 Sn4 2.744970 1_655
Pd14 Sn4 2.744970 1_555
Pd14 Sn10 2.794003 1_555
Pd15 Sn23 2.692936 1_555
Pd15 Sn15 2.724172 1_565
Pd15 Sn5 2.744970 1_555
Pd15 Sn5 2.744970 1_455
Pd15 Sn11 2.794003 1_555
