# generated using pymatgen
data_Zr10ZnSn6As
_symmetry_space_group_name_H-M   'P 1'
_cell_length_a   8.68694085
_cell_length_b   8.68694135
_cell_length_c   5.89287695
_cell_angle_alpha   90.00000000
_cell_angle_beta   90.00000000
_cell_angle_gamma   119.99999812
_symmetry_Int_Tables_number   1
_chemical_formula_structural   Zr10ZnSn6As
_chemical_formula_sum   'Zr10 Zn1 Sn6 As1'
_cell_volume   385.11618076
_cell_formula_units_Z   1
loop_
 _symmetry_equiv_pos_site_id
 _symmetry_equiv_pos_as_xyz
  1  'x, y, z'
loop_
 _atom_site_type_symbol
 _atom_site_label
 _atom_site_symmetry_multiplicity
 _atom_site_fract_x
 _atom_site_fract_y
 _atom_site_fract_z
 _atom_site_occupancy
  Zr  Zr0  1  0.66666700  0.33333300  0.00000000  1
  Zr  Zr1  1  0.33333300  0.66666700  0.00000000  1
  Zr  Zr2  1  0.33333300  0.66666700  0.50000000  1
  Zr  Zr3  1  0.66666700  0.33333300  0.50000000  1
  Zr  Zr4  1  0.73663767  0.73663767  0.74834059  1
  Zr  Zr5  1  0.26336233  0.00000000  0.74834059  1
  Zr  Zr6  1  0.00000000  0.26336233  0.74834059  1
  Zr  Zr7  1  0.26336233  0.26336233  0.25165941  1
  Zr  Zr8  1  0.73663767  0.00000000  0.25165941  1
  Zr  Zr9  1  1.00000000  0.73663767  0.25165941  1
  Zn  Zn0  1  0.00000000  0.00000000  0.00000000  1
  Sn  Sn0  1  0.39042277  0.39042277  0.75357322  1
  Sn  Sn1  1  0.60957723  0.00000000  0.75357322  1
  Sn  Sn2  1  0.00000000  0.60957723  0.75357322  1
  Sn  Sn3  1  0.60957723  0.60957723  0.24642678  1
  Sn  Sn4  1  0.39042277  0.00000000  0.24642678  1
  Sn  Sn5  1  1.00000000  0.39042277  0.24642678  1
  As  As0  1  0.00000000  0.00000000  0.50000000  1
loop_
_geom_bond_atom_site_label_1
_geom_bond_atom_site_label_2
_geom_bond_distance
_geom_bond_site_symmetry_2
Zn0 Zr5 2.726421 1_554
Zn0 Zr8 2.726421 1_455
Zn0 Zr6 2.726421 1_554
Zn0 Zr7 2.726421 1_555
Zn0 Zr9 2.726421 1_445
Zn0 Zr4 2.726421 1_444
Sn0 Zr6 2.996423 1_555
Sn0 Zr5 2.996423 1_555
Sn0 Zr4 3.007707 1_555
Sn0 Zr0 3.050160 1_556
Sn0 Zr1 3.050160 1_556
Sn0 Zr3 3.070433 1_555
Sn0 Zr2 3.070433 1_555
Sn0 Zr7 3.135836 1_556
Sn0 Zr7 3.156958 1_555
Sn1 Zr4 2.996423 1_545
Sn1 Zr6 2.996423 1_655
Sn1 Zr5 3.007706 1_555
Sn1 Zr0 3.050153 1_556
Sn1 Zr1 3.050155 1_546
Sn1 Zr3 3.070426 1_555
Sn1 Zr2 3.070429 1_545
Sn1 Zr8 3.135836 1_556
Sn1 Zr8 3.156958 1_555
Sn2 Zr4 2.996423 1_455
Sn2 Zr5 2.996423 1_565
Sn2 Zr6 3.007707 1_555
Sn2 Zr1 3.050153 1_556
Sn2 Zr0 3.050155 1_456
Sn2 Zr2 3.070426 1_555
Sn2 Zr3 3.070429 1_455
Sn2 Zr9 3.135836 1_456
Sn2 Zr9 3.156958 1_455
Sn3 Zr9 2.996423 1_555
Sn3 Zr8 2.996423 1_565
Sn3 Zr7 3.007707 1_555
Sn3 Zr1 3.050160 1_555
Sn3 Zr0 3.050160 1_555
Sn3 Zr2 3.070433 1_555
Sn3 Zr3 3.070433 1_555
Sn3 Zr4 3.135836 1_554
Sn3 Zr4 3.156958 1_555
Sn4 Zr7 2.996423 1_555
Sn4 Zr9 2.996423 1_445
Sn4 Zr8 3.007706 1_555
Sn4 Zr1 3.050153 1_545
Sn4 Zr0 3.050155 1_555
Sn4 Zr2 3.070426 1_545
Sn4 Zr3 3.070429 1_555
Sn4 Zr5 3.135836 1_554
Sn4 Zr5 3.156958 1_555
Sn5 Zr7 2.996423 1_655
Sn5 Zr8 2.996423 1_555
Sn5 Zr9 3.007707 1_555
Sn5 Zr0 3.050153 1_555
Sn5 Zr1 3.050155 1_655
Sn5 Zr3 3.070426 1_555
Sn5 Zr2 3.070429 1_655
Sn5 Zr6 3.135836 1_654
Sn5 Zr6 3.156958 1_655
As0 Zr5 2.715833 1_555
As0 Zr8 2.715833 1_455
As0 Zr6 2.715833 1_555
As0 Zr7 2.715833 1_555
As0 Zr9 2.715833 1_445
As0 Zr4 2.715833 1_445
As0 Zn0 2.946438 1_555
As0 Zn0 2.946438 1_556
