# generated using pymatgen
data_Zr3CoSn3Ir2
_symmetry_space_group_name_H-M   'P 1'
_cell_length_a   7.29786320
_cell_length_b   7.29786363
_cell_length_c   7.23216335
_cell_angle_alpha   90.00000000
_cell_angle_beta   90.00000000
_cell_angle_gamma   119.99999804
_symmetry_Int_Tables_number   1
_chemical_formula_structural   Zr3CoSn3Ir2
_chemical_formula_sum   'Zr6 Co2 Sn6 Ir4'
_cell_volume   333.57256833
_cell_formula_units_Z   2
loop_
 _symmetry_equiv_pos_site_id
 _symmetry_equiv_pos_as_xyz
  1  'x, y, z'
loop_
 _atom_site_type_symbol
 _atom_site_label
 _atom_site_symmetry_multiplicity
 _atom_site_fract_x
 _atom_site_fract_y
 _atom_site_fract_z
 _atom_site_occupancy
  Zr  Zr0  1  0.40649881  0.02011652  0.25000000  1
  Zr  Zr1  1  0.59350119  0.61361871  0.75000000  1
  Zr  Zr2  1  0.61361871  0.59350119  0.25000000  1
  Zr  Zr3  1  0.97988348  0.38638129  0.25000000  1
  Zr  Zr4  1  0.02011652  0.40649881  0.75000000  1
  Zr  Zr5  1  0.38638129  0.97988348  0.75000000  1
  Co  Co0  1  0.00000000  0.00000000  0.75000000  1
  Co  Co1  1  0.00000000  0.00000000  0.25000000  1
  Sn  Sn0  1  0.25912219  0.25912219  0.50000000  1
  Sn  Sn1  1  0.25912219  0.25912219  0.00000000  1
  Sn  Sn2  1  0.74087781  0.00000000  0.00000000  1
  Sn  Sn3  1  1.00000000  0.74087781  0.50000000  1
  Sn  Sn4  1  0.74087781  0.00000000  0.50000000  1
  Sn  Sn5  1  1.00000000  0.74087781  0.00000000  1
  Ir  Ir0  1  0.66666700  0.33333300  0.53552954  1
  Ir  Ir1  1  0.66666700  0.33333300  0.96447046  1
  Ir  Ir2  1  0.33333300  0.66666700  0.03552954  1
  Ir  Ir3  1  0.33333300  0.66666700  0.46447046  1
loop_
_geom_bond_atom_site_label_1
_geom_bond_atom_site_label_2
_geom_bond_distance
_geom_bond_site_symmetry_2
Co0 Sn4 2.616302 1_455
Co0 Sn2 2.616302 1_456
Co0 Sn0 2.616302 1_555
Co0 Sn1 2.616302 1_556
Co0 Sn5 2.616302 1_446
Co0 Sn3 2.616302 1_445
Co0 Zr5 2.895954 1_545
Co0 Zr1 2.895958 1_445
Co0 Zr4 2.895961 1_555
Co1 Sn4 2.616302 1_455
Co1 Sn2 2.616302 1_455
Co1 Sn0 2.616302 1_555
Co1 Sn1 2.616302 1_555
Co1 Sn5 2.616302 1_445
Co1 Sn3 2.616302 1_445
Co1 Zr3 2.895954 1_455
Co1 Zr2 2.895958 1_445
Co1 Zr0 2.895961 1_555
Sn0 Zr4 3.056813 1_555
Sn0 Zr0 3.056813 1_555
Sn0 Zr2 3.098978 1_555
Sn0 Zr1 3.098978 1_555
Sn0 Zr3 3.190131 1_455
Sn0 Zr5 3.190131 1_545
Sn1 Zr4 3.056813 1_554
Sn1 Zr0 3.056813 1_555
Sn1 Zr2 3.098978 1_555
Sn1 Zr1 3.098978 1_554
Sn1 Zr3 3.190131 1_455
Sn1 Zr5 3.190131 1_544
Sn2 Zr1 3.056808 1_544
Sn2 Zr3 3.056809 1_555
Sn2 Zr0 3.098974 1_555
Sn2 Zr5 3.098980 1_544
Sn2 Zr4 3.190135 1_654
Sn2 Zr2 3.190137 1_545
Sn3 Zr2 3.056808 1_555
Sn3 Zr5 3.056809 1_655
Sn3 Zr4 3.098975 1_655
Sn3 Zr3 3.098980 1_555
Sn3 Zr0 3.190135 1_665
Sn3 Zr1 3.190137 1_555
Sn4 Zr1 3.056808 1_545
Sn4 Zr3 3.056809 1_555
Sn4 Zr0 3.098974 1_555
Sn4 Zr5 3.098980 1_545
Sn4 Zr4 3.190135 1_655
Sn4 Zr2 3.190137 1_545
Sn5 Zr2 3.056808 1_555
Sn5 Zr5 3.056809 1_654
Sn5 Zr4 3.098975 1_654
Sn5 Zr3 3.098980 1_555
Sn5 Zr0 3.190135 1_665
Sn5 Zr1 3.190137 1_554
Ir0 Sn4 2.755799 1_555
Ir0 Sn3 2.755804 1_555
Ir0 Sn0 2.755806 1_555
Ir0 Zr4 2.822608 1_655
Ir0 Zr5 2.822612 1_545
Ir0 Zr1 2.822620 1_555
Ir0 Zr3 2.958731 1_555
Ir0 Zr2 2.958731 1_555
Ir0 Zr0 2.958732 1_555
Ir0 Ir1 3.102171 1_555
Ir1 Sn2 2.755799 1_556
Ir1 Sn5 2.755804 1_556
Ir1 Sn1 2.755806 1_556
Ir1 Zr4 2.822608 1_655
Ir1 Zr5 2.822612 1_545
Ir1 Zr1 2.822620 1_555
Ir1 Zr3 2.958731 1_556
Ir1 Zr2 2.958731 1_556
Ir1 Zr0 2.958732 1_556
Ir2 Sn5 2.755799 1_455
Ir2 Sn2 2.755804 1_565
Ir2 Sn1 2.755806 1_555
Ir2 Zr0 2.822608 1_565
Ir2 Zr3 2.822612 1_455
Ir2 Zr2 2.822620 1_555
Ir2 Zr1 2.958731 1_554
Ir2 Zr4 2.958731 1_554
Ir2 Zr5 2.958732 1_554
Ir2 Ir3 3.102171 1_555
Ir3 Sn3 2.755799 1_455
Ir3 Sn4 2.755804 1_565
Ir3 Sn0 2.755806 1_555
Ir3 Zr0 2.822608 1_565
Ir3 Zr3 2.822612 1_455
Ir3 Zr2 2.822620 1_555
Ir3 Zr1 2.958731 1_555
Ir3 Zr4 2.958731 1_555
Ir3 Zr5 2.958732 1_555
