# generated using pymatgen
data_Zr4TaNb5N12
_symmetry_space_group_name_H-M   'P 1'
_cell_length_a   5.32917742
_cell_length_b   5.33991323
_cell_length_c   10.63702472
_cell_angle_alpha   90.00000000
_cell_angle_beta   90.00000000
_cell_angle_gamma   120.06666871
_symmetry_Int_Tables_number   1
_chemical_formula_structural   Zr4TaNb5N12
_chemical_formula_sum   'Zr4 Ta1 Nb5 N12'
_cell_volume   261.97088577
_cell_formula_units_Z   1
loop_
 _symmetry_equiv_pos_site_id
 _symmetry_equiv_pos_as_xyz
  1  'x, y, z'
loop_
 _atom_site_type_symbol
 _atom_site_label
 _atom_site_symmetry_multiplicity
 _atom_site_fract_x
 _atom_site_fract_y
 _atom_site_fract_z
 _atom_site_occupancy
  Zr  Zr0  1  0.66552445  0.33209656  0.99983849  1
  Zr  Zr1  1  0.33447555  0.66657312  0.99983849  1
  Zr  Zr2  1  0.33447555  0.66657312  0.50016151  1
  Zr  Zr3  1  0.66552445  0.33209656  0.50016151  1
  Ta  Ta0  1  0.00000000  0.68202502  0.25000000  1
  Nb  Nb0  1  0.68034477  0.67967727  0.75000000  1
  Nb  Nb1  1  0.31965523  0.99933250  0.75000000  1
  Nb  Nb2  1  1.00000000  0.31948232  0.75000000  1
  Nb  Nb3  1  0.31913602  0.31984196  0.25000000  1
  Nb  Nb4  1  0.68086398  0.00070693  0.25000000  1
  N  N0  1  0.65867406  0.65453930  0.37258402  1
  N  N1  1  0.34132594  0.99586424  0.37258402  1
  N  N2  1  0.00000000  0.35254648  0.37179367  1
  N  N3  1  0.34594527  0.34559683  0.62667452  1
  N  N4  1  0.65405473  0.99965055  0.62667452  1
  N  N5  1  1.00000000  0.65260093  0.62673573  1
  N  N6  1  0.34594527  0.34559683  0.87332548  1
  N  N7  1  0.65405473  0.99965055  0.87332548  1
  N  N8  1  1.00000000  0.65260093  0.87326427  1
  N  N9  1  0.65867406  0.65453930  0.12741598  1
  N  N10  1  0.34132594  0.99586424  0.12741598  1
  N  N11  1  0.00000000  0.35254648  0.12820633  1
loop_
_geom_bond_atom_site_label_1
_geom_bond_atom_site_label_2
_geom_bond_distance
_geom_bond_site_symmetry_2
N0 Ta0 2.182423 1_655
N0 Zr3 2.206930 1_555
N0 Nb4 2.216338 1_565
N0 Nb3 2.219949 1_555
N0 Zr2 2.223046 1_555
N1 Ta0 2.182421 1_555
N1 Zr2 2.206922 1_555
N1 Nb3 2.216338 1_565
N1 Nb4 2.219945 1_565
N1 Zr3 2.223046 1_565
N2 Ta0 2.184907 1_555
N2 Zr3 2.204218 1_455
N2 Zr2 2.204220 1_555
N2 Nb4 2.213362 1_455
N2 Nb3 2.213364 1_555
N3 Zr3 2.199936 1_555
N3 Zr2 2.203957 1_555
N3 Nb2 2.209429 1_455
N3 Nb0 2.212151 1_555
N3 Nb1 2.213548 1_545
N4 Zr2 2.199931 1_555
N4 Zr3 2.203957 1_565
N4 Nb2 2.209431 1_565
N4 Nb1 2.212153 1_555
N4 Nb0 2.213543 1_555
N5 Zr2 2.205054 1_655
N5 Zr3 2.205055 1_555
N5 Nb2 2.209835 1_555
N5 Nb1 2.211055 1_655
N5 Nb0 2.211055 1_555
N6 Zr0 2.199936 1_555
N6 Zr1 2.203957 1_555
N6 Nb2 2.209429 1_455
N6 Nb0 2.212151 1_555
N6 Nb1 2.213548 1_545
N7 Zr1 2.199931 1_555
N7 Zr0 2.203957 1_565
N7 Nb2 2.209431 1_565
N7 Nb1 2.212153 1_555
N7 Nb0 2.213543 1_555
N8 Zr1 2.205054 1_655
N8 Zr0 2.205055 1_555
N8 Nb2 2.209835 1_555
N8 Nb1 2.211055 1_655
N8 Nb0 2.211055 1_555
N9 Ta0 2.182423 1_655
N9 Zr0 2.206930 1_554
N9 Nb4 2.216338 1_565
N9 Nb3 2.219949 1_555
N9 Zr1 2.223046 1_554
N10 Ta0 2.182421 1_555
N10 Zr1 2.206922 1_554
N10 Nb3 2.216338 1_565
N10 Nb4 2.219945 1_565
N10 Zr0 2.223046 1_564
N11 Ta0 2.184907 1_555
N11 Zr0 2.204218 1_454
N11 Zr1 2.204220 1_554
N11 Nb4 2.213362 1_455
N11 Nb3 2.213364 1_555
