# generated using pymatgen
data_SrMnP3N5O2
_symmetry_space_group_name_H-M   'P 1'
_cell_length_a   6.61390132
_cell_length_b   7.04520553
_cell_length_c   14.17775220
_cell_angle_alpha   60.86420369
_cell_angle_beta   90.00000000
_cell_angle_gamma   90.00000000
_symmetry_Int_Tables_number   1
_chemical_formula_structural   SrMnP3N5O2
_chemical_formula_sum   'Sr4 Mn4 P12 N20 O8'
_cell_volume   577.03992479
_cell_formula_units_Z   4
loop_
 _symmetry_equiv_pos_site_id
 _symmetry_equiv_pos_as_xyz
  1  'x, y, z'
loop_
 _atom_site_type_symbol
 _atom_site_label
 _atom_site_symmetry_multiplicity
 _atom_site_fract_x
 _atom_site_fract_y
 _atom_site_fract_z
 _atom_site_occupancy
  Sr  Sr0  1  0.74605455  0.51371936  0.61170807  1
  Sr  Sr1  1  0.24605455  0.48628064  0.88829193  1
  Sr  Sr2  1  0.25394545  0.48628064  0.38829193  1
  Sr  Sr3  1  0.75394545  0.51371936  0.11170807  1
  Mn  Mn0  1  0.50282327  0.97727600  0.88244048  1
  Mn  Mn1  1  0.00282327  0.02272400  0.61755952  1
  Mn  Mn2  1  0.49717673  0.02272400  0.11755952  1
  Mn  Mn3  1  0.99717673  0.97727600  0.38244048  1
  P  P0  1  0.01333968  0.94201231  0.88001154  1
  P  P1  1  0.51333968  0.05798769  0.61998846  1
  P  P2  1  0.98666032  0.05798769  0.11998846  1
  P  P3  1  0.48666032  0.94201231  0.38001154  1
  P  P4  1  0.27922862  0.73808820  0.58903561  1
  P  P5  1  0.77922862  0.26191180  0.91096439  1
  P  P6  1  0.72077138  0.26191180  0.41096439  1
  P  P7  1  0.22077138  0.73808820  0.08903561  1
  P  P8  1  0.76109361  0.72206740  0.79158260  1
  P  P9  1  0.26109361  0.27793260  0.70841740  1
  P  P10  1  0.23890639  0.27793260  0.20841740  1
  P  P11  1  0.73890639  0.72206740  0.29158260  1
  N  N0  1  0.30861535  0.93719701  0.61472158  1
  N  N1  1  0.80861535  0.06280299  0.88527842  1
  N  N2  1  0.69138465  0.06280299  0.38527842  1
  N  N3  1  0.19138465  0.93719701  0.11472158  1
  N  N4  1  0.70026843  0.88567078  0.66530463  1
  N  N5  1  0.20026843  0.11432922  0.83469537  1
  N  N6  1  0.29973157  0.11432922  0.33469537  1
  N  N7  1  0.79973157  0.88567078  0.16530463  1
  N  N8  1  0.97145391  0.82753557  0.80622703  1
  N  N9  1  0.47145391  0.17246443  0.69377297  1
  N  N10  1  0.02854609  0.17246443  0.19377297  1
  N  N11  1  0.52854609  0.82753557  0.30622703  1
  N  N12  1  0.81337530  0.48919606  0.80102038  1
  N  N13  1  0.31337530  0.51080394  0.69897962  1
  N  N14  1  0.18662470  0.51080394  0.19897962  1
  N  N15  1  0.68662470  0.48919606  0.30102038  1
  N  N16  1  0.57448850  0.25939483  0.50265586  1
  N  N17  1  0.07448850  0.74060517  0.99734414  1
  N  N18  1  0.42551150  0.74060517  0.49734414  1
  N  N19  1  0.92551150  0.25939483  0.00265586  1
  O  O0  1  0.05409025  0.76644512  0.55202467  1
  O  O1  1  0.55409025  0.23355488  0.94797533  1
  O  O2  1  0.94590975  0.23355488  0.44797533  1
  O  O3  1  0.44590975  0.76644512  0.05202467  1
  O  O4  1  0.59232685  0.70052575  0.87184201  1
  O  O5  1  0.09232685  0.29947425  0.62815799  1
  O  O6  1  0.40767315  0.29947425  0.12815799  1
  O  O7  1  0.90767315  0.70052575  0.37184201  1
loop_
_geom_bond_atom_site_label_1
_geom_bond_atom_site_label_2
_geom_bond_distance
_geom_bond_site_symmetry_2
Mn0 O4 2.111840 1_555
Mn0 N1 2.116299 1_565
Mn0 O3 2.156656 1_556
Mn0 N5 2.181365 1_565
Mn0 N9 2.346747 1_565
Mn0 O1 2.423181 1_565
Mn1 O5 2.111840 1_555
Mn1 N0 2.116299 1_545
Mn1 O2 2.156656 1_455
Mn1 N4 2.181365 1_445
Mn1 N8 2.346747 1_445
Mn1 O0 2.423181 1_545
Mn2 O6 2.111840 1_555
Mn2 N3 2.116299 1_545
Mn2 O1 2.156656 1_554
Mn2 N7 2.181365 1_545
Mn2 N11 2.346747 1_545
Mn2 O3 2.423181 1_545
Mn3 O7 2.111840 1_555
Mn3 N2 2.116299 1_565
Mn3 O0 2.156656 1_655
Mn3 N6 2.181365 1_665
Mn3 N10 2.346747 1_665
Mn3 O2 2.423181 1_565
N0 P1 1.620196 1_565
N0 P4 1.623446 1_555
N1 P0 1.620196 1_645
N1 P5 1.623446 1_555
N2 P3 1.620196 1_545
N2 P6 1.623446 1_555
N3 P2 1.620196 1_465
N3 P7 1.623446 1_555
N4 P1 1.629599 1_565
N4 P8 1.638977 1_555
N4 Sr0 3.078149 1_555
N5 P0 1.629599 1_545
N5 P9 1.638977 1_555
N5 Sr1 3.078149 1_555
N6 P3 1.629599 1_545
N6 P10 1.638977 1_555
N6 Sr2 3.078149 1_555
N7 P2 1.629599 1_565
N7 P11 1.638977 1_555
N7 Sr3 3.078149 1_555
N8 P0 1.625756 1_655
N8 P8 1.637429 1_555
N8 Sr1 2.776432 1_655
N9 P1 1.625756 1_555
N9 P9 1.637429 1_555
N9 Sr0 2.776432 1_555
N10 P2 1.625756 1_455
N10 P10 1.637429 1_555
N10 Sr3 2.776432 1_455
N11 P3 1.625756 1_555
N11 P11 1.637429 1_555
N11 Sr2 2.776432 1_555
N12 P5 1.616875 1_555
N12 P8 1.617208 1_555
N12 Sr0 2.642068 1_555
N12 Sr1 3.113830 1_655
N13 P4 1.616875 1_555
N13 P9 1.617208 1_555
N13 Sr1 2.642068 1_555
N13 Sr0 3.113830 1_555
N14 P7 1.616875 1_555
N14 P10 1.617208 1_555
N14 Sr2 2.642068 1_555
N14 Sr3 3.113830 1_455
N15 P6 1.616875 1_555
N15 P11 1.617208 1_555
N15 Sr3 2.642068 1_555
N15 Sr2 3.113830 1_555
N16 P6 1.613651 1_555
N16 P1 1.626578 1_555
N16 Sr2 2.674860 1_555
N16 Sr0 3.096142 1_555
N17 P7 1.613651 1_556
N17 P0 1.626578 1_555
N17 Sr3 2.674860 1_456
N17 Sr1 3.096142 1_555
N18 P4 1.613651 1_555
N18 P3 1.626578 1_555
N18 Sr0 2.674860 1_555
N18 Sr2 3.096142 1_555
N19 P5 1.613651 1_554
N19 P2 1.626578 1_555
N19 Sr1 2.674860 1_654
N19 Sr3 3.096142 1_555
O0 P4 1.558982 1_555
O0 Sr0 2.563159 1_455
O1 P5 1.558982 1_555
O1 Sr1 2.563159 1_555
O2 P6 1.558982 1_555
O2 Sr2 2.563159 1_655
O3 P7 1.558982 1_555
O3 Sr3 2.563159 1_555
O4 P8 1.547772 1_555
O4 Sr1 2.689788 1_555
O4 Sr3 3.175154 1_556
O5 P9 1.547772 1_555
O5 Sr0 2.689788 1_455
O5 Sr2 3.175154 1_555
O6 P10 1.547772 1_555
O6 Sr3 2.689788 1_555
O6 Sr1 3.175154 1_554
O7 P11 1.547772 1_555
O7 Sr2 2.689788 1_655
O7 Sr0 3.175154 1_555
