# generated using pymatgen
data_KCdSiAs2
_symmetry_space_group_name_H-M   'P 1'
_cell_length_a   8.10739248
_cell_length_b   8.37145818
_cell_length_c   8.60086355
_cell_angle_alpha   70.76312839
_cell_angle_beta   75.69432816
_cell_angle_gamma   73.56777754
_symmetry_Int_Tables_number   1
_chemical_formula_structural   KCdSiAs2
_chemical_formula_sum   'K4 Cd4 Si4 As8'
_cell_volume   520.95211015
_cell_formula_units_Z   4
loop_
 _symmetry_equiv_pos_site_id
 _symmetry_equiv_pos_as_xyz
  1  'x, y, z'
loop_
 _atom_site_type_symbol
 _atom_site_label
 _atom_site_symmetry_multiplicity
 _atom_site_fract_x
 _atom_site_fract_y
 _atom_site_fract_z
 _atom_site_occupancy
  K  K0  1  0.45185999  0.76401571  0.32191067  1
  K  K1  1  0.54814001  0.23598429  0.67808933  1
  K  K2  1  0.43481675  0.80204791  0.81222960  1
  K  K3  1  0.56518325  0.19795209  0.18777040  1
  Cd  Cd0  1  0.99421243  0.89940127  0.68764945  1
  Cd  Cd1  1  0.00578757  0.10059873  0.31235055  1
  Cd  Cd2  1  0.96848669  0.82313106  0.16817688  1
  Cd  Cd3  1  0.03151331  0.17686894  0.83182312  1
  Si  Si0  1  0.95799689  0.58388564  0.59700741  1
  Si  Si1  1  0.04200311  0.41611436  0.40299259  1
  Si  Si2  1  0.15068819  0.44918853  0.97623623  1
  Si  Si3  1  0.84931181  0.55081147  0.02376377  1
  As  As0  1  0.79855522  0.86497995  0.46959648  1
  As  As1  1  0.20144478  0.13502005  0.53040352  1
  As  As2  1  0.78111613  0.41293015  0.31556327  1
  As  As3  1  0.21888387  0.58706985  0.68443673  1
  As  As4  1  0.75752413  0.85938169  0.96451855  1
  As  As5  1  0.24247587  0.14061831  0.03548145  1
  As  As6  1  0.76148210  0.45132678  0.83013746  1
  As  As7  1  0.23851790  0.54867322  0.16986254  1
loop_
_geom_bond_atom_site_label_1
_geom_bond_atom_site_label_2
_geom_bond_distance
_geom_bond_site_symmetry_2
Si2 Si3 2.328190 1_456
As0 Si0 2.385182 1_555
As0 Cd2 2.702227 1_555
As0 Cd1 2.745302 1_665
As0 Cd0 2.863824 1_555
As0 K3 3.472120 1_565
As0 K2 3.635882 1_555
As0 K0 3.747588 1_555
As0 K1 3.909871 1_565
As1 Si1 2.385182 1_555
As1 Cd3 2.702227 1_555
As1 Cd0 2.745302 1_445
As1 Cd1 2.863824 1_555
As1 K2 3.472120 1_545
As1 K3 3.635882 1_555
As1 K1 3.747588 1_555
As1 K0 3.909871 1_545
As2 Si3 2.388131 1_555
As2 Si1 2.423011 1_655
As2 Cd1 2.735571 1_655
As2 K1 3.333618 1_555
As2 K0 3.370751 1_555
As2 K3 3.398321 1_555
As3 Si2 2.388131 1_555
As3 Si0 2.423011 1_455
As3 Cd0 2.735571 1_455
As3 K0 3.333618 1_555
As3 K1 3.370751 1_555
As3 K2 3.398321 1_555
As4 Si3 2.391385 1_556
As4 Cd2 2.631021 1_556
As4 Cd0 2.654232 1_555
As4 K2 3.407249 1_555
As4 K0 3.459049 1_556
As4 K1 3.579271 1_565
As4 K3 3.709184 1_566
As5 Si2 2.391385 1_554
As5 Cd3 2.631021 1_554
As5 Cd1 2.654232 1_555
As5 K3 3.407249 1_555
As5 K1 3.459049 1_554
As5 K0 3.579271 1_545
As5 K2 3.709184 1_544
As6 Si0 2.397004 1_555
As6 Si3 2.410299 1_556
As6 Cd3 2.687000 1_655
As6 K2 3.341028 1_555
As6 K3 3.418297 1_556
As6 K1 3.519534 1_555
As7 Si1 2.397004 1_555
As7 Si2 2.410299 1_554
As7 Cd2 2.687000 1_455
As7 K3 3.341028 1_555
As7 K2 3.418297 1_554
As7 K0 3.519534 1_555
