# generated using pymatgen
data_ZrGaNi3Pd
_symmetry_space_group_name_H-M   'P 1'
_cell_length_a   4.80174140
_cell_length_b   4.80174108
_cell_length_c   4.80174227
_cell_angle_alpha   60.78430062
_cell_angle_beta   60.78429942
_cell_angle_gamma   60.78430127
_symmetry_Int_Tables_number   1
_chemical_formula_structural   ZrGaNi3Pd
_chemical_formula_sum   'Zr1 Ga1 Ni3 Pd1'
_cell_volume   79.67052232
_cell_formula_units_Z   1
loop_
 _symmetry_equiv_pos_site_id
 _symmetry_equiv_pos_as_xyz
  1  'x, y, z'
loop_
 _atom_site_type_symbol
 _atom_site_label
 _atom_site_symmetry_multiplicity
 _atom_site_fract_x
 _atom_site_fract_y
 _atom_site_fract_z
 _atom_site_occupancy
  Zr  Zr0  1  0.74446749  0.74446749  0.74446749  1
  Ga  Ga0  1  0.12883828  0.12883828  0.12883828  1
  Ni  Ni0  1  0.62570886  0.12636736  0.12636736  1
  Ni  Ni1  1  0.12636736  0.62570886  0.12636736  1
  Ni  Ni2  1  0.12636736  0.12636736  0.62570886  1
  Pd  Pd0  1  0.49825265  0.49825265  0.49825265  1
loop_
_geom_bond_atom_site_label_1
_geom_bond_atom_site_label_2
_geom_bond_distance
_geom_bond_site_symmetry_2
Ga0 Ni1 2.374322 1_555
Ga0 Ni0 2.374322 1_555
Ga0 Ni2 2.374322 1_555
Ga0 Ni1 2.427538 1_545
Ga0 Ni0 2.427538 1_455
Ga0 Ni2 2.427539 1_554
Ga0 Pd0 2.836629 1_455
Ga0 Pd0 2.836629 1_545
Ga0 Pd0 2.836629 1_554
Ga0 Zr0 2.867851 1_544
Ga0 Zr0 2.867851 1_445
Ga0 Zr0 2.867851 1_454
Ni0 Ni1 2.426076 1_555
Ni0 Ni2 2.426077 1_555
Ni0 Ni1 2.432475 1_645
Ni0 Ni2 2.432475 1_654
Ni0 Pd0 2.780484 1_555
Ni0 Zr0 2.795538 1_554
Ni0 Zr0 2.795539 1_545
Ni0 Pd0 2.852597 1_545
Ni0 Pd0 2.852598 1_554
Ni0 Zr0 2.879548 1_544
Ni1 Ni2 2.426077 1_555
Ni1 Ni2 2.432475 1_564
Ni1 Pd0 2.780484 1_555
Ni1 Zr0 2.795539 1_554
Ni1 Zr0 2.795539 1_455
Ni1 Pd0 2.852597 1_455
Ni1 Pd0 2.852598 1_554
Ni1 Zr0 2.879548 1_454
Ni2 Pd0 2.780484 1_555
Ni2 Zr0 2.795538 1_455
Ni2 Zr0 2.795539 1_545
Ni2 Pd0 2.852597 1_545
Ni2 Pd0 2.852597 1_455
Ni2 Zr0 2.879547 1_445
Pd0 Zr0 2.878650 1_555
Pd0 Zr0 2.984286 1_545
Pd0 Zr0 2.984286 1_455
Pd0 Zr0 2.984287 1_554
