# generated using pymatgen
data_ZrGa(Ni7B2)3
_symmetry_space_group_name_H-M   'P 1'
_cell_length_a   7.37846730
_cell_length_b   7.37844741
_cell_length_c   7.37845896
_cell_angle_alpha   60.00549588
_cell_angle_beta   60.00547145
_cell_angle_gamma   60.00515247
_symmetry_Int_Tables_number   1
_chemical_formula_structural   ZrGa(Ni7B2)3
_chemical_formula_sum   'Zr1 Ga1 Ni21 B6'
_cell_volume   284.07611092
_cell_formula_units_Z   1
loop_
 _symmetry_equiv_pos_site_id
 _symmetry_equiv_pos_as_xyz
  1  'x, y, z'
loop_
 _atom_site_type_symbol
 _atom_site_label
 _atom_site_symmetry_multiplicity
 _atom_site_fract_x
 _atom_site_fract_y
 _atom_site_fract_z
 _atom_site_occupancy
  Zr  Zr0  1  0.75000428  0.75000824  0.74999121  1
  Ga  Ga0  1  0.24999018  0.25000655  0.25000740  1
  Ni  Ni0  1  0.00000112  0.00000150  0.00000113  1
  Ni  Ni1  1  0.61115489  0.61115488  0.16653175  1
  Ni  Ni2  1  0.61114997  0.16655393  0.61115290  1
  Ni  Ni3  1  0.16655080  0.61114830  0.61115431  1
  Ni  Ni4  1  0.61114363  0.61113911  0.61115258  1
  Ni  Ni5  1  0.37966943  0.37966664  0.86098412  1
  Ni  Ni6  1  0.37967342  0.86097066  0.37967050  1
  Ni  Ni7  1  0.86096432  0.37967307  0.37967093  1
  Ni  Ni8  1  0.37968804  0.37968426  0.37968351  1
  Ni  Ni9  1  0.99906197  0.99906423  0.33910471  1
  Ni  Ni10  1  0.66276054  0.99906464  0.33911629  1
  Ni  Ni11  1  0.99906444  0.66275419  0.33912144  1
  Ni  Ni12  1  0.66277477  0.33911816  0.99905619  1
  Ni  Ni13  1  0.99905487  0.33911236  0.99905306  1
  Ni  Ni14  1  0.99905914  0.33911483  0.66277515  1
  Ni  Ni15  1  0.33912547  0.66275999  0.99906025  1
  Ni  Ni16  1  0.33911640  0.99906191  0.66276939  1
  Ni  Ni17  1  0.33911056  0.99906152  0.99905731  1
  Ni  Ni18  1  0.99906026  0.99906063  0.66276301  1
  Ni  Ni19  1  0.99905953  0.66275339  0.99905915  1
  Ni  Ni20  1  0.66276372  0.99905906  0.99905785  1
  B  B0  1  0.72937539  0.72937768  0.27062385  1
  B  B1  1  0.27062239  0.72937911  0.27062139  1
  B  B2  1  0.72937421  0.27062399  0.27062465  1
  B  B3  1  0.27062785  0.27062575  0.72937616  1
  B  B4  1  0.72937585  0.27062269  0.72937921  1
  B  B5  1  0.27062155  0.72937873  0.72938159  1
loop_
_geom_bond_atom_site_label_1
_geom_bond_atom_site_label_2
_geom_bond_distance
_geom_bond_site_symmetry_2
Ga0 Ni8 2.343741 1_555
Ga0 Ni5 2.343829 1_554
Ga0 Ni7 2.343839 1_455
Ga0 Ni6 2.343894 1_545
Ni0 Ni13 2.495144 1_454
Ni0 Ni9 2.495160 1_445
Ni0 Ni17 2.495179 1_544
Ni0 Ni18 2.495258 1_444
Ni0 Ni20 2.495270 1_444
Ni0 Ni19 2.495335 1_444
Ni0 Ni14 2.495396 1_454
Ni0 Ni12 2.495398 1_454
Ni0 Ni16 2.495426 1_544
Ni0 Ni10 2.495459 1_445
Ni0 Ni15 2.495482 1_544
Ni0 Ni11 2.495500 1_445
Ni1 Zr0 2.509618 1_554
Ni2 Zr0 2.509637 1_545
Ni3 Zr0 2.509648 1_455
Ni4 Zr0 2.509509 1_555
Ni9 Zr0 2.860252 1_555
Ni10 Zr0 2.860139 1_555
Ni11 Zr0 2.860138 1_555
Ni12 Zr0 2.860190 1_555
Ni13 Zr0 2.860261 1_555
Ni14 Zr0 2.860154 1_555
Ni15 Zr0 2.860185 1_555
Ni16 Zr0 2.860145 1_555
Ni17 Zr0 2.860276 1_555
Ni18 Zr0 2.859961 1_555
Ni19 Zr0 2.859967 1_555
Ni20 Zr0 2.859969 1_555
B0 Ni1 2.052351 1_555
B0 Ni4 2.052548 1_555
B0 Ni10 2.058098 1_555
B0 Ni11 2.058119 1_555
B0 Ni20 2.058238 1_554
B0 Ni19 2.058263 1_554
B0 Ni6 2.109107 1_555
B0 Ni7 2.109116 1_555
B1 Ni1 2.052553 1_555
B1 Ni3 2.052563 1_555
B1 Ni15 2.058071 1_554
B1 Ni11 2.058087 1_455
B1 Ni9 2.058209 1_455
B1 Ni17 2.058228 1_554
B1 Ni6 2.108815 1_555
B1 Ni8 2.109041 1_555
B2 Ni2 2.052535 1_555
B2 Ni1 2.052537 1_555
B2 Ni12 2.058061 1_554
B2 Ni10 2.058065 1_545
B2 Ni9 2.058215 1_545
B2 Ni13 2.058243 1_554
B2 Ni7 2.108778 1_555
B2 Ni8 2.108996 1_555
B3 Ni3 2.052490 1_555
B3 Ni2 2.052493 1_555
B3 Ni16 2.058070 1_545
B3 Ni14 2.058083 1_455
B3 Ni17 2.058209 1_545
B3 Ni13 2.058221 1_455
B3 Ni5 2.108812 1_555
B3 Ni8 2.109040 1_555
B4 Ni2 2.052267 1_555
B4 Ni4 2.052463 1_555
B4 Ni12 2.058082 1_555
B4 Ni14 2.058110 1_555
B4 Ni20 2.058225 1_545
B4 Ni18 2.058229 1_545
B4 Ni5 2.109138 1_555
B4 Ni7 2.109149 1_555
B5 Ni3 2.052312 1_555
B5 Ni4 2.052503 1_555
B5 Ni15 2.058086 1_555
B5 Ni16 2.058095 1_555
B5 Ni18 2.058224 1_455
B5 Ni19 2.058241 1_455
B5 Ni5 2.109166 1_555
B5 Ni6 2.109166 1_555
