# generated using pymatgen
data_Nb3Al2TcC
_symmetry_space_group_name_H-M   'P 1'
_cell_length_a   8.34782250
_cell_length_b   8.34831868
_cell_length_c   8.34792965
_cell_angle_alpha   59.99937108
_cell_angle_beta   59.99623243
_cell_angle_gamma   59.99899231
_symmetry_Int_Tables_number   1
_chemical_formula_structural   Nb3Al2TcC
_chemical_formula_sum   'Nb12 Al8 Tc4 C4'
_cell_volume   411.35640951
_cell_formula_units_Z   4
loop_
 _symmetry_equiv_pos_site_id
 _symmetry_equiv_pos_as_xyz
  1  'x, y, z'
loop_
 _atom_site_type_symbol
 _atom_site_label
 _atom_site_symmetry_multiplicity
 _atom_site_fract_x
 _atom_site_fract_y
 _atom_site_fract_z
 _atom_site_occupancy
  Nb  Nb0  1  0.55624417  0.94373213  0.55628727  1
  Nb  Nb1  1  0.30625145  0.69376339  0.69371271  1
  Nb  Nb2  1  0.69370813  0.30629738  0.30629520  1
  Nb  Nb3  1  0.30630760  0.69370312  0.30632737  1
  Nb  Nb4  1  0.69369635  0.69371457  0.30629856  1
  Nb  Nb5  1  0.30627165  0.30627371  0.69372172  1
  Nb  Nb6  1  0.55630365  0.55628543  0.94370144  1
  Nb  Nb7  1  0.94374855  0.55623661  0.55628729  1
  Nb  Nb8  1  0.55629187  0.94370262  0.94370480  1
  Nb  Nb9  1  0.94372835  0.94372629  0.55627828  1
  Nb  Nb10  1  0.69375583  0.30626787  0.69371273  1
  Nb  Nb11  1  0.94369240  0.55629688  0.94367263  1
  Al  Al0  1  0.91628692  0.91628620  0.91626908  1
  Al  Al1  1  0.99886041  0.33370634  0.33372350  1
  Al  Al2  1  0.33371902  0.99884180  0.33372986  1
  Al  Al3  1  0.33371128  0.33372008  0.99884745  1
  Al  Al4  1  0.91628098  0.25115820  0.91627014  1
  Al  Al5  1  0.91628872  0.91627992  0.25115255  1
  Al  Al6  1  0.25113959  0.91629366  0.91627650  1
  Al  Al7  1  0.33371308  0.33371380  0.33373092  1
  Tc  Tc0  1  0.12500000  0.12500000  0.12500000  1
  Tc  Tc1  1  0.62500000  0.12500000  0.12500000  1
  Tc  Tc2  1  0.12500000  0.62500000  0.12500000  1
  Tc  Tc3  1  0.12500000  0.12500000  0.62500000  1
  C  C0  1  0.62500000  0.62500000  0.62500000  1
  C  C1  1  0.12500000  0.62500000  0.62500000  1
  C  C2  1  0.62500000  0.12500000  0.62500000  1
  C  C3  1  0.62500000  0.62500000  0.12500000  1
loop_
_geom_bond_atom_site_label_1
_geom_bond_atom_site_label_2
_geom_bond_distance
_geom_bond_site_symmetry_2
Nb0 Tc3 2.988918 1_565
Nb0 Tc1 2.989222 1_565
Nb1 Tc3 2.989094 1_565
Nb1 Tc2 2.989154 1_556
Nb2 Tc0 2.989235 1_655
Nb2 Tc1 2.989515 1_555
Nb3 Tc0 2.989578 1_565
Nb3 Tc2 2.989758 1_555
Nb4 Tc2 2.989289 1_655
Nb4 Tc1 2.989472 1_565
Nb5 Tc0 2.989138 1_556
Nb5 Tc3 2.989249 1_555
Nb6 Tc2 2.989289 1_556
Nb6 Tc1 2.989472 1_556
Nb7 Tc3 2.989094 1_655
Nb7 Tc2 2.989154 1_655
Nb8 Tc0 2.989235 1_566
Nb8 Tc1 2.989515 1_566
Nb9 Tc0 2.989138 1_665
Nb9 Tc3 2.989249 1_665
Nb10 Tc3 2.988918 1_655
Nb10 Tc1 2.989222 1_556
Nb11 Tc0 2.989578 1_656
Nb11 Tc2 2.989758 1_656
Al0 Tc3 2.558523 1_665
Al0 Tc1 2.558632 1_566
Al0 Tc2 2.558744 1_656
Al1 Tc3 2.558573 1_655
Al1 Tc0 2.558673 1_655
Al1 Tc2 2.558711 1_655
Al2 Tc3 2.558523 1_565
Al2 Tc1 2.558581 1_565
Al2 Tc0 2.558750 1_565
Al3 Tc0 2.558644 1_556
Al3 Tc2 2.558669 1_556
Al3 Tc1 2.558692 1_556
Al4 Tc3 2.558523 1_655
Al4 Tc1 2.558581 1_556
Al4 Tc0 2.558750 1_656
Al5 Tc0 2.558644 1_665
Al5 Tc2 2.558669 1_655
Al5 Tc1 2.558692 1_565
Al6 Tc3 2.558573 1_565
Al6 Tc0 2.558673 1_566
Al6 Tc2 2.558711 1_556
Al7 Tc3 2.558523 1_555
Al7 Tc1 2.558632 1_555
Al7 Tc2 2.558744 1_555
C0 Nb6 2.238986 1_555
C0 Nb4 2.238986 1_555
C0 Nb7 2.239201 1_555
C0 Nb1 2.239201 1_555
C0 Nb0 2.239280 1_555
C0 Nb10 2.239280 1_555
C1 Nb11 2.238783 1_455
C1 Nb3 2.238783 1_555
C1 Nb1 2.239153 1_555
C1 Nb7 2.239153 1_455
C1 Nb9 2.239224 1_455
C1 Nb5 2.239224 1_555
C2 Nb8 2.239031 1_545
C2 Nb2 2.239031 1_555
C2 Nb9 2.239094 1_545
C2 Nb5 2.239094 1_555
C2 Nb10 2.239283 1_555
C2 Nb0 2.239283 1_545
C3 Nb11 2.238910 1_554
C3 Nb3 2.238910 1_555
C3 Nb2 2.239133 1_555
C3 Nb8 2.239133 1_554
C3 Nb4 2.239138 1_555
C3 Nb6 2.239138 1_554
