# generated using pymatgen
data_TiGaIr3Se8
_symmetry_space_group_name_H-M   'P 1'
_cell_length_a   7.17101922
_cell_length_b   7.17101875
_cell_length_c   7.17101807
_cell_angle_alpha   62.81110500
_cell_angle_beta   62.81110606
_cell_angle_gamma   62.81109625
_symmetry_Int_Tables_number   1
_chemical_formula_structural   TiGaIr3Se8
_chemical_formula_sum   'Ti1 Ga1 Ir3 Se8'
_cell_volume   277.04862045
_cell_formula_units_Z   1
loop_
 _symmetry_equiv_pos_site_id
 _symmetry_equiv_pos_as_xyz
  1  'x, y, z'
loop_
 _atom_site_type_symbol
 _atom_site_label
 _atom_site_symmetry_multiplicity
 _atom_site_fract_x
 _atom_site_fract_y
 _atom_site_fract_z
 _atom_site_occupancy
  Ti  Ti0  1  0.40821629  0.40821629  0.40821629  1
  Ga  Ga0  1  0.98668118  0.98668118  0.98668118  1
  Ir  Ir0  1  0.86047513  0.37398153  0.37398153  1
  Ir  Ir1  1  0.37398153  0.86047513  0.37398153  1
  Ir  Ir2  1  0.37398153  0.37398153  0.86047513  1
  Se  Se0  1  0.13008592  0.13008592  0.13008592  1
  Se  Se1  1  0.58139929  0.14000389  0.14000389  1
  Se  Se2  1  0.14000389  0.58139929  0.14000389  1
  Se  Se3  1  0.14000389  0.14000389  0.58139929  1
  Se  Se4  1  0.61292545  0.61292545  0.61292545  1
  Se  Se5  1  0.12207907  0.63508443  0.63508443  1
  Se  Se6  1  0.63508443  0.12207907  0.63508443  1
  Se  Se7  1  0.63508443  0.63508443  0.12207907  1
loop_
_geom_bond_atom_site_label_1
_geom_bond_atom_site_label_2
_geom_bond_distance
_geom_bond_site_symmetry_2
Ga0 Se0 2.464104 1_666
Ga0 Se2 2.475615 1_656
Ga0 Se3 2.475615 1_665
Ga0 Se1 2.475616 1_566
Ir0 Se4 2.479300 1_555
Ir0 Se7 2.488553 1_555
Ir0 Se6 2.488553 1_555
Ir0 Se3 2.532995 1_655
Ir0 Se2 2.532996 1_655
Ir0 Se0 2.543808 1_655
Ir1 Se4 2.479300 1_555
Ir1 Se7 2.488553 1_555
Ir1 Se5 2.488553 1_555
Ir1 Se3 2.532995 1_565
Ir1 Se1 2.532996 1_565
Ir1 Se0 2.543808 1_565
Ir2 Se4 2.479300 1_555
Ir2 Se6 2.488553 1_555
Ir2 Se5 2.488553 1_555
Ir2 Se2 2.532995 1_556
Ir2 Se1 2.532995 1_556
Ir2 Se0 2.543808 1_556
Se1 Ti0 2.820610 1_555
Se2 Ti0 2.820610 1_555
Se3 Ti0 2.820611 1_555
Se5 Ti0 2.412724 1_555
Se6 Ti0 2.412724 1_555
Se7 Ti0 2.412725 1_555
