# generated using pymatgen
data_Ca6Ta3Al13Ir7
_symmetry_space_group_name_H-M   'P 1'
_cell_length_a   9.00808774
_cell_length_b   9.00808629
_cell_length_c   9.00810705
_cell_angle_alpha   59.71109222
_cell_angle_beta   59.71113313
_cell_angle_gamma   59.71089786
_symmetry_Int_Tables_number   1
_chemical_formula_structural   Ca6Ta3Al13Ir7
_chemical_formula_sum   'Ca6 Ta3 Al13 Ir7'
_cell_volume   513.48045619
_cell_formula_units_Z   1
loop_
 _symmetry_equiv_pos_site_id
 _symmetry_equiv_pos_as_xyz
  1  'x, y, z'
loop_
 _atom_site_type_symbol
 _atom_site_label
 _atom_site_symmetry_multiplicity
 _atom_site_fract_x
 _atom_site_fract_y
 _atom_site_fract_z
 _atom_site_occupancy
  Ca  Ca0  1  0.70646570  0.70646570  0.28836237  1
  Ca  Ca1  1  0.29563183  0.70429368  0.29563083  1
  Ca  Ca2  1  0.70429468  0.29563183  0.29562883  1
  Ca  Ca3  1  0.29563083  0.29562983  0.70429568  1
  Ca  Ca4  1  0.70646570  0.28836337  0.70646670  1
  Ca  Ca5  1  0.28836337  0.70646470  0.70646670  1
  Ta  Ta0  1  0.87831824  0.87831824  0.36129590  1
  Ta  Ta1  1  0.87831824  0.36129690  0.87831924  1
  Ta  Ta2  1  0.36129690  0.87831824  0.87831824  1
  Al  Al0  1  0.88245617  0.88245617  0.88245717  1
  Al  Al1  1  0.11980449  0.11980449  0.63948771  1
  Al  Al2  1  0.11980549  0.63948671  0.11980449  1
  Al  Al3  1  0.63948671  0.11980549  0.11980449  1
  Al  Al4  1  0.12162075  0.12162075  0.12161975  1
  Al  Al5  1  0.67516165  0.67516065  0.98223992  1
  Al  Al6  1  0.67515965  0.98223892  0.67516265  1
  Al  Al7  1  0.98223892  0.67515965  0.67516265  1
  Al  Al8  1  0.67193966  0.67193966  0.67194166  1
  Al  Al9  1  0.32654765  0.32654865  0.02225216  1
  Al  Al10  1  0.32654965  0.02225316  0.32654665  1
  Al  Al11  1  0.02225316  0.32654965  0.32654665  1
  Al  Al12  1  0.32608194  0.32608194  0.32608094  1
  Ir  Ir0  1  0.00345638  0.00345638  0.00345538  1
  Ir  Ir1  1  0.99848049  0.99848149  0.49462735  1
  Ir  Ir2  1  0.50300191  0.99506006  0.50300191  1
  Ir  Ir3  1  0.99506006  0.50300191  0.50300291  1
  Ir  Ir4  1  0.50300191  0.50300191  0.99506106  1
  Ir  Ir5  1  0.99848249  0.49462735  0.99848149  1
  Ir  Ir6  1  0.49462735  0.99848149  0.99848149  1
loop_
_geom_bond_atom_site_label_1
_geom_bond_atom_site_label_2
_geom_bond_distance
_geom_bond_site_symmetry_2
Ca0 Ta0 3.113506 1_555
Ca0 Ir6 3.227050 1_554
Ca0 Ir5 3.227053 1_554
Ca0 Ir2 3.247355 1_555
Ca0 Ir3 3.247361 1_555
Ca0 Ca1 3.678059 1_555
Ca0 Ca2 3.678063 1_555
Ca0 Ca4 3.749856 1_555
Ca0 Ca5 3.749859 1_555
Ca1 Ta0 3.112364 1_455
Ca1 Ta2 3.112370 1_554
Ca1 Ir1 3.193353 1_455
Ca1 Ir6 3.193355 1_554
Ca1 Ir4 3.246842 1_554
Ca1 Ir3 3.246856 1_455
Ca1 Ca2 3.665168 1_555
Ca1 Ca3 3.665201 1_555
Ca1 Ca5 3.678080 1_555
Ca2 Ta1 3.112348 1_554
Ca2 Ta0 3.112360 1_545
Ca2 Ir1 3.193348 1_545
Ca2 Ir5 3.193353 1_554
Ca2 Ir4 3.246831 1_554
Ca2 Ir2 3.246861 1_545
Ca2 Ca3 3.665212 1_555
Ca2 Ca4 3.678098 1_555
Ca3 Ta2 3.112350 1_545
Ca3 Ta1 3.112358 1_455
Ca3 Ir6 3.193339 1_545
Ca3 Ir5 3.193347 1_455
Ca3 Ir3 3.246848 1_455
Ca3 Ir2 3.246849 1_545
Ca3 Ca5 3.678067 1_555
Ca3 Ca4 3.678072 1_555
Ca4 Ta1 3.113506 1_555
Ca4 Ir1 3.227059 1_545
Ca4 Ir6 3.227062 1_545
Ca4 Ir4 3.247352 1_555
Ca4 Ir3 3.247355 1_555
Ca4 Ca5 3.749828 1_555
Ca5 Ta2 3.113506 1_555
Ca5 Ir5 3.227051 1_455
Ca5 Ir1 3.227065 1_455
Ca5 Ir4 3.247352 1_555
Ca5 Ir2 3.247360 1_555
Al0 Ir0 2.675699 1_666
Al0 Al5 2.812998 1_555
Al0 Al6 2.813004 1_555
Al0 Al7 2.813005 1_555
Al0 Ir5 2.850503 1_555
Al0 Ir6 2.850505 1_555
Al0 Ir1 2.850524 1_555
Al0 Al2 3.017176 1_656
Al0 Al3 3.017177 1_566
Al0 Al1 3.017183 1_665
Al0 Ca4 3.039221 1_565
Al0 Ca0 3.039224 1_556
Al0 Ca5 3.039225 1_655
Al1 Ir0 2.668724 1_556
Al1 Al11 2.782008 1_555
Al1 Al10 2.782010 1_555
Al1 Al12 2.788457 1_555
Al1 Ir3 2.808849 1_455
Al1 Ir2 2.808851 1_545
Al1 Ir1 2.858954 1_445
Al1 Ta2 3.052796 1_545
Al1 Ta1 3.052804 1_455
Al1 Ca4 3.080308 1_455
Al1 Ca5 3.080315 1_545
Al1 Ca3 3.123127 1_555
Al2 Ir0 2.668726 1_565
Al2 Al9 2.781982 1_555
Al2 Ir4 2.808843 1_554
Al2 Ir3 2.808869 1_455
Al2 Ir5 2.858939 1_454
Al2 Ta0 3.052798 1_455
Al2 Ta2 3.052804 1_554
Al2 Ca5 3.080316 1_554
Al2 Ca0 3.080320 1_455
Al2 Ca1 3.123129 1_555
Al3 Ir0 2.668727 1_655
Al3 Al9 2.781989 1_555
Al3 Ir4 2.808841 1_554
Al3 Ir2 2.808862 1_545
Al3 Ir6 2.858946 1_544
Al3 Ta0 3.052796 1_545
Al3 Ta1 3.052804 1_554
Al3 Ca4 3.080314 1_554
Al3 Ca0 3.080318 1_545
Al3 Ca2 3.123120 1_555
Al4 Ir0 2.613004 1_555
Al4 Ir5 2.733640 1_454
Al4 Ir6 2.733641 1_544
Al4 Ir1 2.733660 1_445
Al4 Al9 2.778592 1_555
Al4 Ta1 3.093113 1_454
Al4 Ta2 3.093121 1_544
Al4 Ta0 3.093133 1_445
Al4 Ca3 3.104313 1_554
Al4 Ca2 3.104314 1_455
Al4 Ca1 3.104321 1_545
Al5 Ir5 2.561406 1_555
Al5 Ir6 2.561406 1_555
Al5 Ir4 2.624530 1_555
Al5 Al7 2.754095 1_555
Al5 Al6 2.754098 1_555
Al5 Ta1 2.818075 1_555
Al5 Ta2 2.818086 1_555
Al5 Al8 2.824769 1_555
Al5 Ca0 3.067952 1_556
Al5 Ca2 3.135830 1_556
Al5 Ca1 3.135845 1_556
Al6 Ir6 2.561405 1_555
Al6 Ir1 2.561417 1_555
Al6 Ir2 2.624530 1_555
Al6 Al7 2.754100 1_555
Al6 Ta2 2.818075 1_555
Al6 Ta0 2.818106 1_555
Al6 Al8 2.824763 1_555
Al6 Ca4 3.067970 1_565
Al6 Ca3 3.135827 1_565
Al6 Ca2 3.135875 1_565
Al7 Ir5 2.561407 1_555
Al7 Ir1 2.561420 1_555
Al7 Ir3 2.624523 1_555
Al7 Ta1 2.818074 1_555
Al7 Ta0 2.818104 1_555
Al7 Al8 2.824763 1_555
Al7 Ca5 3.067965 1_655
Al7 Ca3 3.135836 1_655
Al7 Ca1 3.135866 1_655
Al8 Ir3 2.550244 1_555
Al8 Ir2 2.550245 1_555
Al8 Ir4 2.550246 1_555
Al8 Ta2 2.780972 1_555
Al8 Ta1 2.780975 1_555
Al8 Ta0 2.780999 1_555
Al8 Ca4 3.172071 1_555
Al8 Ca5 3.172076 1_555
Al8 Ca0 3.172104 1_555
Al9 Ir5 2.620973 1_454
Al9 Ir6 2.620989 1_544
Al9 Ir4 2.622254 1_554
Al9 Ca5 3.146730 1_554
Al9 Ca4 3.146743 1_554
Al9 Ca3 3.169585 1_554
Al10 Ir6 2.620988 1_544
Al10 Ir1 2.621014 1_445
Al10 Ir2 2.622244 1_545
Al10 Al9 2.729140 1_555
Al10 Al11 2.729142 1_555
Al10 Al12 2.732681 1_555
Al10 Al4 2.778597 1_555
Al10 Al3 2.781983 1_555
Al10 Ca0 3.146728 1_545
Al10 Ca5 3.146767 1_545
Al10 Ca1 3.169595 1_545
Al11 Ir5 2.620984 1_454
Al11 Ir1 2.621008 1_445
Al11 Ir3 2.622253 1_455
Al11 Al9 2.729137 1_555
Al11 Al12 2.732682 1_555
Al11 Al4 2.778598 1_555
Al11 Al2 2.781982 1_555
Al11 Ca0 3.146727 1_455
Al11 Ca4 3.146765 1_455
Al11 Ca2 3.169597 1_455
Al12 Ir4 2.635541 1_554
Al12 Ir2 2.635541 1_545
Al12 Ir3 2.635546 1_455
Al12 Al9 2.732692 1_555
Al12 Al2 2.788430 1_555
Al12 Al3 2.788432 1_555
Al12 Ca1 3.154113 1_555
Al12 Ca2 3.154115 1_555
Al12 Ca3 3.154138 1_555
Ir0 Ta1 2.623577 1_454
Ir0 Ta2 2.623578 1_544
Ir0 Ta0 2.623590 1_445
Ir1 Ta0 2.755106 1_555
Ir2 Ta0 2.753192 1_555
Ir2 Ta2 2.753202 1_555
Ir3 Ta0 2.753190 1_555
Ir3 Ta1 2.753202 1_555
Ir4 Ta2 2.753189 1_555
Ir4 Ta1 2.753190 1_555
Ir5 Ta1 2.755106 1_555
Ir6 Ta2 2.755106 1_555
