# generated using pymatgen
data_ZrGaRh3Se8
_symmetry_space_group_name_H-M   'P 1'
_cell_length_a   7.29934034
_cell_length_b   7.29934048
_cell_length_c   7.29934095
_cell_angle_alpha   61.61020234
_cell_angle_beta   61.61019376
_cell_angle_gamma   61.61019584
_symmetry_Int_Tables_number   1
_chemical_formula_structural   ZrGaRh3Se8
_chemical_formula_sum   'Zr1 Ga1 Rh3 Se8'
_cell_volume   284.93421356
_cell_formula_units_Z   1
loop_
 _symmetry_equiv_pos_site_id
 _symmetry_equiv_pos_as_xyz
  1  'x, y, z'
loop_
 _atom_site_type_symbol
 _atom_site_label
 _atom_site_symmetry_multiplicity
 _atom_site_fract_x
 _atom_site_fract_y
 _atom_site_fract_z
 _atom_site_occupancy
  Zr  Zr0  1  0.59609820  0.59609820  0.59609820  1
  Ga  Ga0  1  0.01029234  0.01029234  0.01029234  1
  Rh  Rh0  1  0.62520565  0.62520565  0.14037309  1
  Rh  Rh1  1  0.62520565  0.14037309  0.62520565  1
  Rh  Rh2  1  0.14037309  0.62520565  0.62520565  1
  Se  Se0  1  0.35689134  0.35689134  0.88239814  1
  Se  Se1  1  0.35689134  0.88239814  0.35689134  1
  Se  Se2  1  0.88239814  0.35689134  0.35689134  1
  Se  Se3  1  0.39017791  0.39017791  0.39017791  1
  Se  Se4  1  0.86633651  0.86633651  0.41365303  1
  Se  Se5  1  0.86633651  0.41365303  0.86633651  1
  Se  Se6  1  0.41365303  0.86633651  0.86633651  1
  Se  Se7  1  0.87013829  0.87013829  0.87013829  1
loop_
_geom_bond_atom_site_label_1
_geom_bond_atom_site_label_2
_geom_bond_distance
_geom_bond_site_symmetry_2
Ga0 Se6 2.458249 1_544
Ga0 Se5 2.458249 1_454
Ga0 Se4 2.458249 1_445
Ga0 Se7 2.474978 1_444
Rh0 Se3 2.461788 1_555
Rh0 Se1 2.497913 1_555
Rh0 Se2 2.497913 1_555
Rh0 Se5 2.547228 1_554
Rh0 Se6 2.547228 1_554
Rh0 Se7 2.572185 1_554
Rh1 Se3 2.461788 1_555
Rh1 Se0 2.497913 1_555
Rh1 Se2 2.497913 1_555
Rh1 Se4 2.547228 1_545
Rh1 Se6 2.547228 1_545
Rh1 Se7 2.572185 1_545
Rh2 Se3 2.461788 1_555
Rh2 Se1 2.497913 1_555
Rh2 Se0 2.497913 1_555
Rh2 Se5 2.547228 1_455
Rh2 Se4 2.547228 1_455
Rh2 Se7 2.572185 1_455
Se0 Zr0 2.534569 1_555
Se1 Zr0 2.534569 1_555
Se2 Zr0 2.534569 1_555
Se4 Zr0 2.873940 1_555
Se5 Zr0 2.873940 1_555
Se6 Zr0 2.873940 1_555
