# generated using pymatgen
data_K2Ca(SeO3)2
_symmetry_space_group_name_H-M   'P 1'
_cell_length_a   5.77796597
_cell_length_b   7.15383347
_cell_length_c   9.19628461
_cell_angle_alpha   74.36325447
_cell_angle_beta   90.00082973
_cell_angle_gamma   89.99493260
_symmetry_Int_Tables_number   1
_chemical_formula_structural   K2Ca(SeO3)2
_chemical_formula_sum   'K4 Ca2 Se4 O12'
_cell_volume   366.05634625
_cell_formula_units_Z   2
loop_
 _symmetry_equiv_pos_site_id
 _symmetry_equiv_pos_as_xyz
  1  'x, y, z'
loop_
 _atom_site_type_symbol
 _atom_site_label
 _atom_site_symmetry_multiplicity
 _atom_site_fract_x
 _atom_site_fract_y
 _atom_site_fract_z
 _atom_site_occupancy
  K  K0  1  0.99999373  0.60811974  0.80393458  1
  K  K1  1  0.50001513  0.10811524  0.30394080  1
  K  K2  1  0.00000627  0.39188126  0.19606542  1
  K  K3  1  0.49998487  0.89188576  0.69605920  1
  Ca  Ca0  1  0.50000000  0.50000000  0.50000000  1
  Ca  Ca1  1  0.00000000  0.00000000  0.00000000  1
  Se  Se0  1  0.00003655  0.24440369  0.62289248  1
  Se  Se1  1  0.50009617  0.74436835  0.12290095  1
  Se  Se2  1  0.99996345  0.75559631  0.37710752  1
  Se  Se3  1  0.49990383  0.25563165  0.87709905  1
  O  O0  1  0.23239539  0.75125466  0.49150305  1
  O  O1  1  0.73238074  0.25126372  0.99149847  1
  O  O2  1  0.76760561  0.24874634  0.50849695  1
  O  O3  1  0.26761926  0.74873728  0.00850153  1
  O  O4  1  0.23238727  0.24882727  0.50836181  1
  O  O5  1  0.73235953  0.74881337  0.00836150  1
  O  O6  1  0.76761273  0.75117273  0.49163819  1
  O  O7  1  0.26764047  0.25118663  0.99163750  1
  O  O8  1  0.99986593  0.98417310  0.25929126  1
  O  O9  1  0.49986255  0.48419773  0.75929679  1
  O  O10  1  0.00013407  0.01582790  0.74070974  1
  O  O11  1  0.50013745  0.51580227  0.24070421  1
loop_
_geom_bond_atom_site_label_1
_geom_bond_atom_site_label_2
_geom_bond_distance
_geom_bond_site_symmetry_2
K0 O10 2.816181 1_665
K0 O5 2.821073 1_556
K0 O3 2.821804 1_656
K0 O9 3.080914 1_655
K0 O9 3.082471 1_555
K0 O1 3.083892 1_555
K0 O6 3.084405 1_555
K0 O7 3.084541 1_655
K0 O0 3.085666 1_655
K0 Se0 3.446369 1_655
K1 O11 2.816025 1_555
K1 O4 2.821082 1_555
K1 O2 2.821669 1_555
K1 O8 3.080885 1_545
K1 O8 3.082638 1_445
K1 O0 3.083928 1_545
K1 O6 3.084428 1_545
K1 O7 3.084453 1_554
K1 O1 3.085666 1_554
K1 Se1 3.446550 1_545
K2 O8 2.816180 1_445
K2 O7 2.821084 1_554
K2 O1 2.821804 1_454
K2 O11 3.080913 1_455
K2 O11 3.082470 1_555
K2 O3 3.083892 1_555
K2 O4 3.084406 1_555
K2 O5 3.084540 1_455
K2 O2 3.085663 1_455
K2 Se2 3.446362 1_455
K3 O9 2.816031 1_555
K3 O6 2.821086 1_555
K3 O0 2.821666 1_555
K3 O10 3.080887 1_565
K3 O10 3.082639 1_665
K3 O2 3.083931 1_565
K3 O4 3.084423 1_565
K3 O5 3.084446 1_556
K3 O3 3.085666 1_556
K3 Se3 3.446543 1_565
Ca0 O2 2.356146 1_555
Ca0 O0 2.356148 1_555
Ca0 O6 2.356161 1_555
Ca0 O4 2.356161 1_555
Ca0 O11 2.356603 1_555
Ca0 O9 2.356613 1_555
Ca1 O3 2.356239 1_545
Ca1 O1 2.356245 1_454
Ca1 O7 2.356340 1_554
Ca1 O5 2.356342 1_445
Ca1 O10 2.356511 1_554
Ca1 O8 2.356522 1_445
O0 Se2 1.701071 1_455
O1 Se3 1.701270 1_555
O2 Se0 1.701065 1_655
O3 Se1 1.701269 1_555
O4 Se0 1.701404 1_555
O5 Se1 1.701033 1_555
O6 Se2 1.701404 1_555
O7 Se3 1.701027 1_555
O8 Se2 1.700799 1_555
O9 Se3 1.700689 1_555
O10 Se0 1.700796 1_555
O11 Se1 1.700693 1_555
