# generated using pymatgen
data_Na2HF4
_symmetry_space_group_name_H-M   'P 1'
_cell_length_a   4.66098453
_cell_length_b   9.36298245
_cell_length_c   8.68585109
_cell_angle_alpha   21.92400373
_cell_angle_beta   39.13743344
_cell_angle_gamma   43.98345844
_symmetry_Int_Tables_number   1
_chemical_formula_structural   Na2HF4
_chemical_formula_sum   'Na2 H1 F4'
_cell_volume   89.33183756
_cell_formula_units_Z   1
loop_
 _symmetry_equiv_pos_site_id
 _symmetry_equiv_pos_as_xyz
  1  'x, y, z'
loop_
 _atom_site_type_symbol
 _atom_site_label
 _atom_site_symmetry_multiplicity
 _atom_site_fract_x
 _atom_site_fract_y
 _atom_site_fract_z
 _atom_site_occupancy
  Na  Na0  1  0.00000466  -0.00000000  0.99999433  1
  Na  Na1  1  0.99999378  0.50000000  -0.00000297  1
  H  H0  1  0.50000491  0.50000000  0.49999564  1
  F  F0  1  0.41901775  0.00000000  0.42475183  1
  F  F1  1  0.42102634  0.50000000  0.40557385  1
  F  F2  1  0.57897312  0.50000000  0.59442616  1
  F  F3  1  0.58097943  -0.00000000  0.57526015  1
loop_
_geom_bond_atom_site_label_1
_geom_bond_atom_site_label_2
_geom_bond_distance
_geom_bond_site_symmetry_2
F0 Na1 2.305827 1_455
F0 Na1 2.305827 1_446
F0 Na0 2.333736 1_654
F1 H0 1.129808 1_555
F1 Na1 2.223775 1_555
F1 Na0 2.254392 1_564
F1 Na0 2.254393 1_555
F2 H0 1.129840 1_555
F2 Na1 2.223741 1_456
F2 Na0 2.254389 1_655
F2 Na0 2.254389 1_664
F3 Na1 2.305740 1_546
F3 Na1 2.305741 1_555
F3 Na0 2.333602 1_555
