# generated using pymatgen
data_CsAlSnSe4
_symmetry_space_group_name_H-M   'P 1'
_cell_length_a   7.56012336
_cell_length_b   9.01924462
_cell_length_c   15.90797159
_cell_angle_alpha   85.15353606
_cell_angle_beta   86.42352221
_cell_angle_gamma   65.05800486
_symmetry_Int_Tables_number   1
_chemical_formula_structural   CsAlSnSe4
_chemical_formula_sum   'Cs4 Al4 Sn4 Se16'
_cell_volume   979.59895429
_cell_formula_units_Z   4
loop_
 _symmetry_equiv_pos_site_id
 _symmetry_equiv_pos_as_xyz
  1  'x, y, z'
loop_
 _atom_site_type_symbol
 _atom_site_label
 _atom_site_symmetry_multiplicity
 _atom_site_fract_x
 _atom_site_fract_y
 _atom_site_fract_z
 _atom_site_occupancy
  Cs  Cs0  1  0.10140008  0.76979259  0.14065099  1
  Cs  Cs1  1  0.35406980  0.81411299  0.47646345  1
  Cs  Cs2  1  0.64596351  0.18588879  0.52350754  1
  Cs  Cs3  1  0.89855736  0.23022298  0.85935282  1
  Al  Al0  1  0.00460228  0.23421768  0.24189038  1
  Al  Al1  1  0.51174068  0.24976732  0.26167386  1
  Al  Al2  1  0.48826290  0.75022304  0.73831204  1
  Al  Al3  1  0.99538146  0.76575526  0.75813007  1
  Sn  Sn0  1  0.36745623  0.15634671  0.06403252  1
  Sn  Sn1  1  0.06872926  0.48398466  0.39188519  1
  Sn  Sn2  1  0.93130944  0.51591256  0.60814725  1
  Sn  Sn3  1  0.63244289  0.84380196  0.93595886  1
  Se  Se0  1  0.00889149  0.22918604  0.09018981  1
  Se  Se1  1  0.57536275  0.84854285  0.09785170  1
  Se  Se2  1  0.49409197  0.34888435  0.11635281  1
  Se  Se3  1  0.84807205  0.51910438  0.27335354  1
  Se  Se4  1  0.32453025  0.09638744  0.29648009  1
  Se  Se5  1  0.83541752  0.07913534  0.30384488  1
  Se  Se6  1  0.38899804  0.49312689  0.34314951  1
  Se  Se7  1  0.89732219  0.73188966  0.48631005  1
  Se  Se8  1  0.10284946  0.26798511  0.51373236  1
  Se  Se9  1  0.61094999  0.50687584  0.65685002  1
  Se  Se10  1  0.16455456  0.92079905  0.69618459  1
  Se  Se11  1  0.67557599  0.90346223  0.70346369  1
  Se  Se12  1  0.15190730  0.48082544  0.72668418  1
  Se  Se13  1  0.50600051  0.65115701  0.88363188  1
  Se  Se14  1  0.42457947  0.15159433  0.90213122  1
  Se  Se15  1  0.99098058  0.77101550  0.90978470  1
loop_
_geom_bond_atom_site_label_1
_geom_bond_atom_site_label_2
_geom_bond_distance
_geom_bond_site_symmetry_2
Cs0 Se2 3.738209 1_555
Cs0 Se5 3.795829 1_465
Cs0 Se15 3.814836 1_454
Cs0 Se1 3.828524 1_455
Cs0 Se0 3.919843 1_565
Cs0 Se1 3.945616 1_555
Cs0 Se3 3.946877 1_455
Cs0 Se6 4.033712 1_555
Cs1 Se4 3.619087 1_565
Cs1 Se6 3.643002 1_555
Cs1 Se10 3.738540 1_555
Cs1 Se8 3.798482 1_565
Cs1 Se9 3.807578 1_555
Cs1 Se7 3.817174 1_455
Cs1 Se7 3.864484 1_555
Cs2 Se11 3.619504 1_545
Cs2 Se9 3.643109 1_555
Cs2 Se5 3.737678 1_555
Cs2 Se7 3.799282 1_545
Cs2 Se6 3.807415 1_555
Cs2 Se8 3.817584 1_655
Cs2 Se8 3.863649 1_555
Cs3 Se13 3.737960 1_555
Cs3 Se10 3.795975 1_645
Cs3 Se0 3.814488 1_656
Cs3 Se14 3.828631 1_655
Cs3 Se15 3.918330 1_545
Cs3 Se14 3.945093 1_555
Cs3 Se12 3.946179 1_655
Cs3 Se9 4.033751 1_555
Al0 Se5 2.383789 1_455
Al0 Se4 2.386071 1_555
Al0 Se3 2.414947 1_455
Al0 Se0 2.415446 1_555
Al1 Se4 2.376465 1_555
Al1 Se5 2.379212 1_555
Al1 Se2 2.397895 1_555
Al1 Se6 2.443665 1_555
Al2 Se11 2.376173 1_555
Al2 Se10 2.379098 1_555
Al2 Se13 2.397726 1_555
Al2 Se9 2.443465 1_555
Al3 Se10 2.383404 1_655
Al3 Se11 2.385713 1_555
Al3 Se15 2.414869 1_555
Al3 Se12 2.415213 1_655
Se0 Sn0 2.521232 1_555
Se1 Sn0 2.576809 1_565
Se1 Sn3 2.585547 1_554
Se2 Sn0 2.524030 1_555
Se3 Sn1 2.506901 1_655
Se6 Sn1 2.528597 1_555
Se7 Sn2 2.572766 1_555
Se7 Sn1 2.610720 1_655
Se8 Sn1 2.572835 1_555
Se8 Sn2 2.610863 1_455
Se9 Sn2 2.528732 1_555
Se12 Sn2 2.506735 1_455
Se13 Sn3 2.523913 1_555
Se14 Sn3 2.576692 1_545
Se14 Sn0 2.585715 1_556
Se15 Sn3 2.521155 1_555
