# generated using pymatgen
data_Lu4Ga4Si2Ir7
_symmetry_space_group_name_H-M   'P 1'
_cell_length_a   7.11713932
_cell_length_b   7.11713849
_cell_length_c   7.14710385
_cell_angle_alpha   109.70191720
_cell_angle_beta   109.70191307
_cell_angle_gamma   108.83886246
_symmetry_Int_Tables_number   1
_chemical_formula_structural   Lu4Ga4Si2Ir7
_chemical_formula_sum   'Lu4 Ga4 Si2 Ir7'
_cell_volume   279.25919108
_cell_formula_units_Z   1
loop_
 _symmetry_equiv_pos_site_id
 _symmetry_equiv_pos_as_xyz
  1  'x, y, z'
loop_
 _atom_site_type_symbol
 _atom_site_label
 _atom_site_symmetry_multiplicity
 _atom_site_fract_x
 _atom_site_fract_y
 _atom_site_fract_z
 _atom_site_occupancy
  Lu  Lu0  1  0.00065799  0.00065799  0.52406672  1
  Lu  Lu1  1  0.00062774  0.50062774  0.00125548  1
  Lu  Lu2  1  0.50062774  0.00062774  0.00125548  1
  Lu  Lu3  1  0.52340873  0.52340873  0.52406672  1
  Ga  Ga0  1  0.69167373  0.69167373  0.01078115  1
  Ga  Ga1  1  0.30086570  0.00659607  0.30746176  1
  Ga  Ga2  1  0.00659607  0.30086570  0.30746176  1
  Ga  Ga3  1  0.31910742  0.31910742  0.01078115  1
  Si  Si0  1  0.66983705  0.00335426  0.67319231  1
  Si  Si1  1  0.00335426  0.66983705  0.67319231  1
  Ir  Ir0  1  0.75077712  0.25077712  0.50155524  1
  Ir  Ir1  1  0.75583955  0.49964182  0.25548237  1
  Ir  Ir2  1  0.50094476  0.25085342  0.75179818  1
  Ir  Ir3  1  0.25085342  0.50094476  0.75179818  1
  Ir  Ir4  1  0.25077712  0.75077712  0.50155524  1
  Ir  Ir5  1  0.49964182  0.75583955  0.25548237  1
  Ir  Ir6  1  0.97440678  0.97440678  0.94881256  1
loop_
_geom_bond_atom_site_label_1
_geom_bond_atom_site_label_2
_geom_bond_distance
_geom_bond_site_symmetry_2
Lu0 Si1 2.896100 1_545
Lu0 Si0 2.896101 1_455
Lu1 Si1 2.977881 1_554
Lu1 Si0 2.977887 1_454
Lu2 Si0 2.977881 1_554
Lu2 Si1 2.977887 1_544
Lu3 Si0 2.896095 1_565
Lu3 Si1 2.896095 1_655
Ga0 Ir1 2.571255 1_555
Ga0 Ir5 2.571255 1_555
Ga0 Ir2 2.598431 1_554
Ga0 Ir3 2.598432 1_554
Ga0 Ir6 2.623217 1_554
Ga0 Lu3 2.902601 1_554
Ga0 Lu2 2.942418 1_565
Ga0 Lu1 2.942419 1_655
Ga0 Lu0 3.021233 1_665
Ga1 Ir2 2.600932 1_555
Ga1 Ir5 2.619613 1_545
Ga1 Ir0 2.642641 1_555
Ga1 Ir4 2.642647 1_545
Ga1 Ir6 2.695565 1_444
Ga1 Lu1 2.981080 1_545
Ga1 Lu2 2.981080 1_555
Ga1 Lu3 3.029779 1_555
Ga1 Lu0 3.029779 1_555
Ga2 Ir3 2.600932 1_555
Ga2 Ir1 2.619613 1_455
Ga2 Ir4 2.642640 1_555
Ga2 Ir0 2.642647 1_455
Ga2 Ir6 2.695565 1_444
Ga2 Lu1 2.981080 1_555
Ga2 Lu2 2.981081 1_455
Ga2 Lu0 3.029779 1_555
Ga2 Lu3 3.029780 1_555
Ga3 Ir5 2.571249 1_555
Ga3 Ir1 2.571250 1_555
Ga3 Ir3 2.598431 1_554
Ga3 Ir2 2.598431 1_554
Ga3 Ir6 2.623209 1_444
Ga3 Lu0 2.902601 1_554
Ga3 Lu2 2.942418 1_555
Ga3 Lu1 2.942419 1_555
Ga3 Lu3 3.021233 1_555
Ir0 Si0 2.493075 1_555
Ir0 Si1 2.493075 1_655
Ir0 Lu0 2.898678 1_655
Ir0 Lu3 2.898679 1_555
Ir0 Lu1 2.910834 1_656
Ir0 Lu2 2.914326 1_555
Ir1 Si1 2.474045 1_655
Ir1 Lu2 2.910629 1_555
Ir1 Lu1 2.910635 1_655
Ir1 Lu3 2.924527 1_555
Ir1 Lu0 2.924532 1_665
Ir2 Si0 2.453331 1_555
Ir2 Lu2 2.913978 1_556
Ir2 Lu1 2.913979 1_656
Ir2 Lu3 2.922595 1_555
Ir2 Lu0 2.922595 1_555
Ir3 Si1 2.453331 1_555
Ir3 Lu2 2.913978 1_566
Ir3 Lu1 2.913978 1_556
Ir3 Lu0 2.922595 1_555
Ir3 Lu3 2.922595 1_555
Ir4 Si1 2.493075 1_555
Ir4 Si0 2.493075 1_565
Ir4 Lu0 2.898678 1_565
Ir4 Lu3 2.898679 1_555
Ir4 Lu2 2.910834 1_566
Ir4 Lu1 2.914326 1_555
Ir5 Si0 2.474045 1_565
Ir5 Lu1 2.910629 1_555
Ir5 Lu2 2.910635 1_565
Ir5 Lu3 2.924526 1_555
Ir5 Lu0 2.924532 1_665
Ir6 Si1 2.510901 1_655
Ir6 Si0 2.510902 1_565
Ir6 Lu0 3.166638 1_665
Ir6 Lu3 3.166643 1_555
