# generated using pymatgen
data_Hg3S2ClF
_symmetry_space_group_name_H-M   'P 1'
_cell_length_a   9.64121027
_cell_length_b   9.64120972
_cell_length_c   8.51325599
_cell_angle_alpha   87.76976931
_cell_angle_beta   87.76976793
_cell_angle_gamma   55.53977252
_symmetry_Int_Tables_number   1
_chemical_formula_structural   Hg3S2ClF
_chemical_formula_sum   'Hg12 S8 Cl4 F4'
_cell_volume   651.83714093
_cell_formula_units_Z   4
loop_
 _symmetry_equiv_pos_site_id
 _symmetry_equiv_pos_as_xyz
  1  'x, y, z'
loop_
 _atom_site_type_symbol
 _atom_site_label
 _atom_site_symmetry_multiplicity
 _atom_site_fract_x
 _atom_site_fract_y
 _atom_site_fract_z
 _atom_site_occupancy
  Hg  Hg0  1  0.34215672  0.89243078  0.32950646  1
  Hg  Hg1  1  0.65784328  0.10756922  0.67049354  1
  Hg  Hg2  1  0.10756922  0.65784328  0.67049354  1
  Hg  Hg3  1  0.89243078  0.34215672  0.32950646  1
  Hg  Hg4  1  0.46855177  0.46855177  0.30353502  1
  Hg  Hg5  1  0.53144823  0.53144823  0.69646498  1
  Hg  Hg6  1  0.50000000  0.00000000  0.00000000  1
  Hg  Hg7  1  0.00000000  0.50000000  0.00000000  1
  Hg  Hg8  1  0.76729963  0.76729963  0.32268611  1
  Hg  Hg9  1  0.23270037  0.23270037  0.67731389  1
  Hg  Hg10  1  0.76846214  0.23153786  1.00000000  1
  Hg  Hg11  1  0.23153786  0.76846214  0.00000000  1
  S  S0  1  0.49452269  0.02262025  0.28428166  1
  S  S1  1  0.50547731  0.97737975  0.71571834  1
  S  S2  1  0.97737975  0.50547731  0.71571834  1
  S  S3  1  0.02262025  0.49452269  0.28428166  1
  S  S4  1  0.74579103  0.21111606  0.28397523  1
  S  S5  1  0.25420897  0.78888394  0.71602477  1
  S  S6  1  0.78888394  0.25420897  0.71602477  1
  S  S7  1  0.21111606  0.74579103  0.28397523  1
  Cl  Cl0  1  0.12721453  0.12721453  0.02139518  1
  Cl  Cl1  1  0.87278547  0.87278547  0.97860482  1
  Cl  Cl2  1  0.62226059  0.62226059  0.01549166  1
  Cl  Cl3  1  0.37773941  0.37773941  0.98450834  1
  F  F0  1  0.60982597  0.60982597  0.44565841  1
  F  F1  1  0.39017403  0.39017403  0.55434159  1
  F  F2  1  0.86511542  0.86511542  0.51892601  1
  F  F3  1  0.13488458  0.13488458  0.48107399  1
loop_
_geom_bond_atom_site_label_1
_geom_bond_atom_site_label_2
_geom_bond_distance
_geom_bond_site_symmetry_2
Hg0 S7 2.418119 1_555
Hg0 S0 2.426244 1_565
Hg1 S6 2.418119 1_555
Hg1 S1 2.426244 1_545
Hg2 S5 2.418119 1_555
Hg2 S2 2.426244 1_455
Hg3 S4 2.418119 1_555
Hg3 S3 2.426244 1_655
Hg4 S7 2.412959 1_555
Hg4 S4 2.412959 1_555
Hg5 S6 2.412959 1_555
Hg5 S5 2.412959 1_555
Hg6 S0 2.434263 1_555
Hg6 S1 2.434263 1_544
Hg7 S3 2.434263 1_555
Hg7 S2 2.434263 1_454
Hg8 S3 2.400182 1_655
Hg8 S0 2.400182 1_565
Hg9 S2 2.400182 1_455
Hg9 S1 2.400182 1_545
Hg10 S4 2.429328 1_556
Hg10 S6 2.429328 1_555
Hg11 S5 2.429328 1_554
Hg11 S7 2.429328 1_555
Cl0 Hg11 3.017615 1_545
Cl0 Hg10 3.017615 1_454
Cl0 Hg7 3.071304 1_555
Cl0 Hg6 3.071304 1_555
Cl1 Hg10 3.017615 1_565
Cl1 Hg11 3.017615 1_656
Cl1 Hg7 3.071304 1_656
Cl1 Hg6 3.071304 1_566
F0 Hg5 2.469024 1_555
F0 Hg3 2.663272 1_555
F0 Hg0 2.663272 1_555
F1 Hg4 2.469024 1_555
F1 Hg2 2.663272 1_555
F1 Hg1 2.663272 1_555
F2 Hg8 2.412776 1_555
F2 Hg1 2.422864 1_565
F2 Hg2 2.422864 1_655
F3 Hg9 2.412776 1_555
F3 Hg0 2.422864 1_545
F3 Hg3 2.422864 1_455
