# generated using pymatgen
data_Zr3Al2CuC
_symmetry_space_group_name_H-M   'P 1'
_cell_length_a   8.62940115
_cell_length_b   8.62940185
_cell_length_c   8.62940203
_cell_angle_alpha   60.00000310
_cell_angle_beta   60.00000041
_cell_angle_gamma   60.00000296
_symmetry_Int_Tables_number   1
_chemical_formula_structural   Zr3Al2CuC
_chemical_formula_sum   'Zr12 Al8 Cu4 C4'
_cell_volume   454.38823430
_cell_formula_units_Z   4
loop_
 _symmetry_equiv_pos_site_id
 _symmetry_equiv_pos_as_xyz
  1  'x, y, z'
loop_
 _atom_site_type_symbol
 _atom_site_label
 _atom_site_symmetry_multiplicity
 _atom_site_fract_x
 _atom_site_fract_y
 _atom_site_fract_z
 _atom_site_occupancy
  Zr  Zr0  1  0.56129726  0.93870274  0.56129726  1
  Zr  Zr1  1  0.31129726  0.68870274  0.68870274  1
  Zr  Zr2  1  0.68870274  0.31129726  0.31129726  1
  Zr  Zr3  1  0.31129726  0.68870274  0.31129726  1
  Zr  Zr4  1  0.68870274  0.68870274  0.31129726  1
  Zr  Zr5  1  0.31129726  0.31129726  0.68870274  1
  Zr  Zr6  1  0.56129726  0.56129726  0.93870274  1
  Zr  Zr7  1  0.93870274  0.56129726  0.56129726  1
  Zr  Zr8  1  0.56129726  0.93870274  0.93870274  1
  Zr  Zr9  1  0.93870274  0.93870274  0.56129726  1
  Zr  Zr10  1  0.68870274  0.31129726  0.68870274  1
  Zr  Zr11  1  0.93870274  0.56129726  0.93870274  1
  Al  Al0  1  0.92011579  0.92011579  0.92011579  1
  Al  Al1  1  0.01034837  0.32988421  0.32988421  1
  Al  Al2  1  0.32988421  0.01034837  0.32988421  1
  Al  Al3  1  0.32988421  0.32988421  0.01034837  1
  Al  Al4  1  0.92011579  0.23965163  0.92011579  1
  Al  Al5  1  0.92011579  0.92011579  0.23965163  1
  Al  Al6  1  0.23965163  0.92011579  0.92011579  1
  Al  Al7  1  0.32988421  0.32988421  0.32988421  1
  Cu  Cu0  1  0.12500000  0.12500000  0.12500000  1
  Cu  Cu1  1  0.62500000  0.12500000  0.12500000  1
  Cu  Cu2  1  0.12500000  0.62500000  0.12500000  1
  Cu  Cu3  1  0.12500000  0.12500000  0.62500000  1
  C  C0  1  0.62500000  0.62500000  0.62500000  1
  C  C1  1  0.12500000  0.62500000  0.62500000  1
  C  C2  1  0.62500000  0.12500000  0.62500000  1
  C  C3  1  0.62500000  0.62500000  0.12500000  1
loop_
_geom_bond_atom_site_label_1
_geom_bond_atom_site_label_2
_geom_bond_distance
_geom_bond_site_symmetry_2
Al0 Cu3 2.618804 1_665
Al0 Cu1 2.618804 1_566
Al0 Cu2 2.618804 1_656
Al0 Al6 2.757403 1_655
Al0 Al4 2.757403 1_565
Al0 Al5 2.757403 1_556
Al0 Zr8 2.944744 1_555
Al0 Zr11 2.944744 1_555
Al0 Zr9 2.944744 1_555
Al0 Zr1 3.142690 1_655
Al0 Zr4 3.142690 1_556
Al0 Zr10 3.142690 1_565
Al1 Cu2 2.618799 1_555
Al1 Cu3 2.618800 1_555
Al1 Cu0 2.618807 1_555
Al1 Al7 2.757403 1_555
Al1 Al3 2.757403 1_555
Al1 Al2 2.757403 1_555
Al1 Zr10 2.944748 1_455
Al1 Zr4 2.944748 1_455
Al1 Zr2 2.944753 1_455
Al1 Zr7 3.142686 1_455
Al1 Zr9 3.142693 1_445
Al1 Zr11 3.142693 1_454
Al2 Cu1 2.618799 1_555
Al2 Cu3 2.618800 1_555
Al2 Cu0 2.618807 1_555
Al2 Al7 2.757403 1_555
Al2 Al3 2.757403 1_555
Al2 Zr4 2.944748 1_545
Al2 Zr1 2.944748 1_545
Al2 Zr3 2.944753 1_545
Al2 Zr0 3.142686 1_545
Al2 Zr9 3.142693 1_445
Al2 Zr8 3.142693 1_544
Al3 Cu1 2.618799 1_555
Al3 Cu2 2.618800 1_555
Al3 Cu0 2.618806 1_555
Al3 Al7 2.757403 1_555
Al3 Zr10 2.944748 1_554
Al3 Zr1 2.944748 1_554
Al3 Zr5 2.944753 1_554
Al3 Zr6 3.142686 1_554
Al3 Zr11 3.142693 1_454
Al3 Zr8 3.142693 1_544
Al4 Cu1 2.618799 1_556
Al4 Cu3 2.618800 1_655
Al4 Cu0 2.618807 1_656
Al4 Al6 2.757403 1_645
Al4 Al5 2.757403 1_546
Al4 Zr6 2.944748 1_555
Al4 Zr7 2.944748 1_555
Al4 Zr11 2.944753 1_555
Al4 Zr10 3.142686 1_555
Al4 Zr5 3.142693 1_655
Al4 Zr2 3.142693 1_556
Al5 Cu1 2.618799 1_565
Al5 Cu2 2.618800 1_655
Al5 Cu0 2.618806 1_665
Al5 Al6 2.757403 1_654
Al5 Zr0 2.944748 1_555
Al5 Zr7 2.944748 1_555
Al5 Zr9 2.944753 1_555
Al5 Zr4 3.142686 1_555
Al5 Zr3 3.142693 1_655
Al5 Zr2 3.142693 1_565
Al6 Cu2 2.618799 1_556
Al6 Cu3 2.618800 1_565
Al6 Cu0 2.618807 1_566
Al6 Zr0 2.944748 1_555
Al6 Zr6 2.944748 1_555
Al6 Zr8 2.944753 1_555
Al6 Zr1 3.142686 1_555
Al6 Zr5 3.142693 1_565
Al6 Zr3 3.142693 1_556
Al7 Cu3 2.618804 1_555
Al7 Cu1 2.618804 1_555
Al7 Cu2 2.618804 1_555
Al7 Zr2 2.944744 1_555
Al7 Zr3 2.944744 1_555
Al7 Zr5 2.944744 1_555
Al7 Zr7 3.142690 1_455
Al7 Zr6 3.142690 1_554
Al7 Zr0 3.142690 1_545
Cu0 Zr8 3.134188 1_544
Cu0 Zr2 3.134188 1_455
Cu0 Zr9 3.134188 1_445
Cu0 Zr5 3.134188 1_554
Cu0 Zr11 3.134188 1_454
Cu0 Zr3 3.134188 1_545
Cu1 Zr2 3.134188 1_555
Cu1 Zr8 3.134188 1_544
Cu1 Zr6 3.134188 1_554
Cu1 Zr4 3.134188 1_545
Cu1 Zr0 3.134188 1_545
Cu1 Zr10 3.134188 1_554
Cu2 Zr6 3.134188 1_554
Cu2 Zr4 3.134188 1_455
Cu2 Zr3 3.134188 1_555
Cu2 Zr11 3.134188 1_454
Cu2 Zr7 3.134188 1_455
Cu2 Zr1 3.134188 1_554
Cu3 Zr0 3.134188 1_545
Cu3 Zr10 3.134188 1_455
Cu3 Zr5 3.134188 1_555
Cu3 Zr9 3.134188 1_445
Cu3 Zr7 3.134188 1_455
Cu3 Zr1 3.134188 1_545
C0 Zr7 2.293150 1_555
C0 Zr1 2.293150 1_555
C0 Zr0 2.293150 1_555
C0 Zr10 2.293150 1_555
C0 Zr6 2.293150 1_555
C0 Zr4 2.293150 1_555
C1 Zr1 2.293150 1_555
C1 Zr7 2.293150 1_455
C1 Zr11 2.293150 1_455
C1 Zr3 2.293150 1_555
C1 Zr9 2.293150 1_455
C1 Zr5 2.293150 1_555
C2 Zr9 2.293150 1_545
C2 Zr5 2.293150 1_555
C2 Zr10 2.293150 1_555
C2 Zr0 2.293150 1_545
C2 Zr8 2.293150 1_545
C2 Zr2 2.293150 1_555
C3 Zr11 2.293150 1_554
C3 Zr3 2.293150 1_555
C3 Zr4 2.293150 1_555
C3 Zr6 2.293150 1_554
C3 Zr8 2.293150 1_554
C3 Zr2 2.293150 1_555
