# generated using pymatgen
data_Y3Lu(Si2Tc)2
_symmetry_space_group_name_H-M   'P 1'
_cell_length_a   5.75239277
_cell_length_b   5.75239310
_cell_length_c   10.04807616
_cell_angle_alpha   63.70392280
_cell_angle_beta   63.70392182
_cell_angle_gamma   42.54132965
_symmetry_Int_Tables_number   1
_chemical_formula_structural   Y3Lu(Si2Tc)2
_chemical_formula_sum   'Y3 Lu1 Si4 Tc2'
_cell_volume   197.77678701
_cell_formula_units_Z   1
loop_
 _symmetry_equiv_pos_site_id
 _symmetry_equiv_pos_as_xyz
  1  'x, y, z'
loop_
 _atom_site_type_symbol
 _atom_site_label
 _atom_site_symmetry_multiplicity
 _atom_site_fract_x
 _atom_site_fract_y
 _atom_site_fract_z
 _atom_site_occupancy
  Y  Y0  1  0.18849865  0.18849865  0.89135678  1
  Y  Y1  1  0.99620369  0.99620369  0.67590188  1
  Y  Y2  1  0.81252334  0.81252334  0.11049365  1
  Lu  Lu0  1  0.00056495  0.00056495  0.32625150  1
  Si  Si0  1  0.35630327  0.35630327  0.55828049  1
  Si  Si1  1  0.49983264  0.49983264  0.87817177  1
  Si  Si2  1  0.64272761  0.64272761  0.43883148  1
  Si  Si3  1  0.50316545  0.50316545  0.12433550  1
  Tc  Tc0  1  0.72814806  0.72814806  0.62754446  1
  Tc  Tc1  1  0.27203234  0.27203234  0.36883150  1
loop_
_geom_bond_atom_site_label_1
_geom_bond_atom_site_label_2
_geom_bond_distance
_geom_bond_site_symmetry_2
Lu0 Si3 2.901399 1_455
Lu0 Si3 2.901399 1_545
Lu0 Si0 2.958730 1_455
Lu0 Si0 2.958730 1_545
Lu0 Tc0 3.047682 1_445
Lu0 Tc1 3.089371 1_455
Lu0 Tc1 3.089371 1_545
Lu0 Si2 3.097856 1_545
Lu0 Si2 3.097856 1_455
Lu0 Tc1 3.136479 1_555
Si0 Tc0 2.412006 1_455
Si0 Tc0 2.412006 1_545
Si0 Tc1 2.464785 1_555
Si0 Si2 2.714021 1_555
Si0 Y0 2.951739 1_555
Si0 Y1 3.112345 1_545
Si0 Y1 3.112346 1_455
Si1 Si3 2.490657 1_556
Si1 Tc0 2.544134 1_555
Si1 Y1 2.926133 1_455
Si1 Y1 2.926133 1_545
Si1 Y0 2.952704 1_655
Si1 Y0 2.952704 1_565
Si1 Y2 3.062635 1_456
Si1 Y2 3.062636 1_546
Si1 Y0 3.276917 1_555
Si2 Tc1 2.417485 1_655
Si2 Tc1 2.417486 1_565
Si2 Tc0 2.466850 1_555
Si2 Y2 2.913430 1_555
Si2 Y1 2.989823 1_455
Si2 Y1 2.989823 1_545
Si3 Tc1 2.527398 1_555
Si3 Y2 2.970168 1_455
Si3 Y2 2.970168 1_545
Si3 Y0 3.059495 1_654
Si3 Y0 3.059495 1_564
Si3 Y2 3.252823 1_555
Tc0 Y1 3.102532 1_455
Tc0 Y1 3.102532 1_545
Tc0 Y1 3.134121 1_555
Tc0 Y0 3.238969 1_655
Tc0 Y0 3.238969 1_565
Tc1 Y1 3.096727 1_445
Tc1 Y2 3.195314 1_545
Tc1 Y2 3.195314 1_455
