# generated using pymatgen
data_Ga9Ir2
_symmetry_space_group_name_H-M   'P 1'
_cell_length_a   6.41045399
_cell_length_b   6.42963837
_cell_length_c   8.77489240
_cell_angle_alpha   86.64552498
_cell_angle_beta   90.00000000
_cell_angle_gamma   90.00000000
_symmetry_Int_Tables_number   1
_chemical_formula_structural   Ga9Ir2
_chemical_formula_sum   'Ga18 Ir4'
_cell_volume   361.05419198
_cell_formula_units_Z   2
loop_
 _symmetry_equiv_pos_site_id
 _symmetry_equiv_pos_as_xyz
  1  'x, y, z'
loop_
 _atom_site_type_symbol
 _atom_site_label
 _atom_site_symmetry_multiplicity
 _atom_site_fract_x
 _atom_site_fract_y
 _atom_site_fract_z
 _atom_site_occupancy
  Ga  Ga0  1  0.73126370  0.04602287  0.45409609  1
  Ga  Ga1  1  0.26873630  0.04602287  0.95409609  1
  Ga  Ga2  1  0.66286157  0.22582842  0.96446716  1
  Ga  Ga3  1  0.33713843  0.22582842  0.46446716  1
  Ga  Ga4  1  0.75222144  0.59826581  0.77999635  1
  Ga  Ga5  1  0.24777856  0.59826581  0.27999635  1
  Ga  Ga6  1  0.74588008  0.39441814  0.23323350  1
  Ga  Ga7  1  0.25411992  0.39441814  0.73323350  1
  Ga  Ga8  1  0.56017478  0.61517734  0.50142482  1
  Ga  Ga9  1  0.43982522  0.61517734  0.00142482  1
  Ga  Ga10  1  0.94378952  0.39804690  0.51312996  1
  Ga  Ga11  1  0.05621048  0.39804690  0.01312996  1
  Ga  Ga12  1  0.47125519  0.88618734  0.71107379  1
  Ga  Ga13  1  0.52874481  0.88618734  0.21107379  1
  Ga  Ga14  1  0.05672298  0.08437944  0.27321952  1
  Ga  Ga15  1  0.94327702  0.08437944  0.77321952  1
  Ga  Ga16  1  0.13198191  0.79882453  0.54693421  1
  Ga  Ga17  1  0.86801809  0.79882453  0.04693421  1
  Ir  Ir0  1  0.61768649  0.25468146  0.67008983  1
  Ir  Ir1  1  0.38231351  0.25468146  0.17008983  1
  Ir  Ir2  1  0.87936911  0.73531974  0.33396477  1
  Ir  Ir3  1  0.12063089  0.73531974  0.83396477  1
loop_
_geom_bond_atom_site_label_1
_geom_bond_atom_site_label_2
_geom_bond_distance
_geom_bond_site_symmetry_2
Ga0 Ir0 2.493954 1_555
Ga0 Ir2 2.499979 1_545
Ga0 Ga14 2.624300 1_655
Ga0 Ga10 2.717457 1_555
Ga0 Ga13 2.746918 1_545
Ga0 Ga3 2.782164 1_555
Ga0 Ga6 2.876560 1_555
Ga0 Ga12 2.940728 1_545
Ga0 Ga8 2.985737 1_545
Ga0 Ga16 3.104345 1_645
Ga0 Ga15 3.135336 1_555
Ga1 Ir1 2.493954 1_556
Ga1 Ir3 2.499979 1_545
Ga1 Ga15 2.624300 1_455
Ga1 Ga11 2.717457 1_556
Ga1 Ga12 2.746918 1_545
Ga1 Ga2 2.782164 1_555
Ga1 Ga7 2.876560 1_555
Ga1 Ga13 2.940728 1_546
Ga1 Ga9 2.985737 1_546
Ga1 Ga17 3.104345 1_446
Ga1 Ga14 3.135336 1_556
Ga2 Ir1 2.561940 1_556
Ga2 Ir0 2.595141 1_555
Ga2 Ga6 2.705442 1_556
Ga2 Ga4 2.868630 1_555
Ga2 Ga9 2.917409 1_556
Ga3 Ir0 2.561940 1_555
Ga3 Ir1 2.595141 1_555
Ga3 Ga7 2.705442 1_555
Ga3 Ga5 2.868630 1_555
Ga3 Ga8 2.917409 1_555
Ga4 Ir3 2.574320 1_655
Ga4 Ir0 2.608340 1_555
Ga4 Ga8 2.733424 1_555
Ga4 Ga9 2.796829 1_556
Ga5 Ir2 2.574320 1_455
Ga5 Ir1 2.608340 1_555
Ga5 Ga9 2.733424 1_555
Ga5 Ga8 2.796829 1_555
Ga6 Ir2 2.558241 1_555
Ga6 Ir1 2.569884 1_555
Ga6 Ga8 3.059583 1_555
Ga6 Ga9 3.108636 1_555
Ga7 Ir3 2.558241 1_555
Ga7 Ir0 2.569884 1_555
Ga7 Ga9 3.059583 1_556
Ga7 Ga8 3.108636 1_555
Ga8 Ir2 2.609597 1_555
Ga8 Ir0 2.701367 1_555
Ga9 Ir3 2.609597 1_554
Ga9 Ir1 2.701367 1_555
Ga10 Ir2 2.635491 1_555
Ga10 Ir0 2.639725 1_555
Ga10 Ga6 2.765693 1_555
Ga10 Ga7 2.771835 1_655
Ga10 Ga3 2.796780 1_655
Ga10 Ga8 2.826689 1_555
Ga10 Ga16 2.876286 1_655
Ga10 Ga15 2.955913 1_555
Ga10 Ga4 3.000294 1_555
Ga10 Ga5 3.054747 1_655
Ga10 Ga14 3.085472 1_655
Ga11 Ir3 2.635491 1_554
Ga11 Ir1 2.639725 1_555
Ga11 Ga7 2.765693 1_554
Ga11 Ga6 2.771835 1_455
Ga11 Ga2 2.796780 1_454
Ga11 Ga9 2.826689 1_555
Ga11 Ga17 2.876286 1_455
Ga11 Ga14 2.955913 1_555
Ga11 Ga5 3.000294 1_555
Ga11 Ga4 3.054747 1_454
Ga11 Ga15 3.085472 1_454
Ga12 Ir0 2.554264 1_565
Ga12 Ga4 2.627897 1_555
Ga12 Ir3 2.652049 1_555
Ga12 Ga8 2.668454 1_555
Ga12 Ga16 2.686048 1_555
Ga12 Ga9 3.008093 1_556
Ga12 Ga3 3.104459 1_565
Ga13 Ir1 2.554264 1_565
Ga13 Ga5 2.627897 1_555
Ga13 Ir2 2.652049 1_555
Ga13 Ga9 2.668454 1_555
Ga13 Ga17 2.686048 1_555
Ga13 Ga8 3.008093 1_555
Ga13 Ga2 3.104459 1_564
Ga14 Ir1 2.501658 1_555
Ga14 Ir2 2.544350 1_445
Ga14 Ga3 2.655814 1_555
Ga14 Ga6 2.825894 1_455
Ga14 Ga16 2.975965 1_545
Ga14 Ga17 3.033751 1_445
Ga15 Ir0 2.501658 1_555
Ga15 Ir3 2.544350 1_645
Ga15 Ga2 2.655814 1_555
Ga15 Ga7 2.825894 1_655
Ga15 Ga17 2.975965 1_546
Ga15 Ga16 3.033751 1_645
Ga16 Ir2 2.524026 1_455
Ga16 Ir3 2.528898 1_555
Ga16 Ga5 2.837952 1_555
Ga16 Ga8 3.023813 1_555
Ga16 Ga7 3.090143 1_555
Ga16 Ga3 3.091671 1_565
Ga17 Ir3 2.524026 1_654
Ga17 Ir2 2.528898 1_555
Ga17 Ga4 2.837952 1_554
Ga17 Ga9 3.023813 1_555
Ga17 Ga6 3.090143 1_555
Ga17 Ga2 3.091671 1_564
