# generated using pymatgen
data_CsH3Br4
_symmetry_space_group_name_H-M   'P 1'
_cell_length_a   7.87792831
_cell_length_b   7.87792858
_cell_length_c   7.87792766
_cell_angle_alpha   94.15091561
_cell_angle_beta   85.84907167
_cell_angle_gamma   94.15092653
_symmetry_Int_Tables_number   1
_chemical_formula_structural   CsH3Br4
_chemical_formula_sum   'Cs2 H6 Br8'
_cell_volume   485.24719167
_cell_formula_units_Z   2
loop_
 _symmetry_equiv_pos_site_id
 _symmetry_equiv_pos_as_xyz
  1  'x, y, z'
loop_
 _atom_site_type_symbol
 _atom_site_label
 _atom_site_symmetry_multiplicity
 _atom_site_fract_x
 _atom_site_fract_y
 _atom_site_fract_z
 _atom_site_occupancy
  Cs  Cs0  1  0.00000000  0.00000000  0.00000000  1
  Cs  Cs1  1  0.50000000  0.50000000  0.50000100  1
  H  H0  1  0.44538732  0.75000200  0.05461468  1
  H  H1  1  0.05461568  0.55461568  0.25000100  1
  H  H2  1  0.25000000  0.94538732  0.44538832  1
  H  H3  1  0.75000000  0.05461368  0.55461568  1
  H  H4  1  0.94538732  0.44538732  0.75000100  1
  H  H5  1  0.55461568  0.25000100  0.94538632  1
  Br  Br0  1  0.41573828  0.25000000  0.08426072  1
  Br  Br1  1  0.25000000  0.75000000  0.25000100  1
  Br  Br2  1  0.91574028  0.41574128  0.25000100  1
  Br  Br3  1  0.74999900  0.91573928  0.41573928  1
  Br  Br4  1  0.25000000  0.08426172  0.58426172  1
  Br  Br5  1  0.08426072  0.58426072  0.74999900  1
  Br  Br6  1  0.75000000  0.25000000  0.75000100  1
  Br  Br7  1  0.58426072  0.74999900  0.91573828  1
loop_
_geom_bond_atom_site_label_1
_geom_bond_atom_site_label_2
_geom_bond_distance
_geom_bond_site_symmetry_2
Br0 H5 1.490178 1_554
Br0 Cs0 3.773302 1_555
Br0 Cs1 3.773317 1_555
Br1 H1 2.096529 1_555
Br1 H0 2.096556 1_555
Br1 H2 2.096561 1_555
Br1 Cs1 3.649819 1_555
Br1 Cs0 3.649824 1_565
Br2 H1 1.490167 1_655
Br2 Cs1 3.773312 1_555
Br2 Cs0 3.773324 1_655
Br3 H3 1.490172 1_565
Br3 Cs1 3.773306 1_555
Br3 Cs0 3.773311 1_665
Br4 H2 1.490156 1_545
Br4 Cs1 3.773302 1_555
Br4 Cs0 3.773303 1_556
Br5 H4 1.490151 1_455
Br5 Cs1 3.773301 1_555
Br5 Cs0 3.773312 1_566
Br6 H5 2.096534 1_555
Br6 H3 2.096545 1_555
Br6 H4 2.096561 1_555
Br6 Cs0 3.649814 1_656
Br6 Cs1 3.649819 1_555
Br7 H0 1.490167 1_556
Br7 Cs1 3.773292 1_555
Br7 Cs0 3.773313 1_666
