# generated using pymatgen
data_Ba5SnRh2
_symmetry_space_group_name_H-M   'P 1'
_cell_length_a   8.57152894
_cell_length_b   8.57152894
_cell_length_c   15.98957765
_cell_angle_alpha   90.00000000
_cell_angle_beta   90.00000000
_cell_angle_gamma   90.00000000
_symmetry_Int_Tables_number   1
_chemical_formula_structural   Ba5SnRh2
_chemical_formula_sum   'Ba20 Sn4 Rh8'
_cell_volume   1174.77199096
_cell_formula_units_Z   4
loop_
 _symmetry_equiv_pos_site_id
 _symmetry_equiv_pos_as_xyz
  1  'x, y, z'
loop_
 _atom_site_type_symbol
 _atom_site_label
 _atom_site_symmetry_multiplicity
 _atom_site_fract_x
 _atom_site_fract_y
 _atom_site_fract_z
 _atom_site_occupancy
  Ba  Ba0  1  0.32372766  0.67374349  0.11855958  1
  Ba  Ba1  1  0.17374349  0.17627234  0.11855958  1
  Ba  Ba2  1  0.50000000  0.00000000  0.74763958  1
  Ba  Ba3  1  0.32625651  0.67627234  0.38144042  1
  Ba  Ba4  1  0.67374349  0.67627234  0.88144042  1
  Ba  Ba5  1  0.17627234  0.17374349  0.38144042  1
  Ba  Ba6  1  0.67374349  0.32372766  0.38144042  1
  Ba  Ba7  1  0.17374349  0.82372766  0.61855958  1
  Ba  Ba8  1  0.32625651  0.32372766  0.88144042  1
  Ba  Ba9  1  0.17627234  0.82625651  0.88144042  1
  Ba  Ba10  1  0.50000000  0.00000000  0.24763958  1
  Ba  Ba11  1  0.82625651  0.17627234  0.61855958  1
  Ba  Ba12  1  0.32372766  0.32625651  0.61855958  1
  Ba  Ba13  1  0.82372766  0.82625651  0.38144042  1
  Ba  Ba14  1  0.82372766  0.17374349  0.88144042  1
  Ba  Ba15  1  0.82625651  0.82372766  0.11855958  1
  Ba  Ba16  1  0.00000000  0.50000000  0.25236042  1
  Ba  Ba17  1  0.00000000  0.50000000  0.75236042  1
  Ba  Ba18  1  0.67627234  0.32625651  0.11855958  1
  Ba  Ba19  1  0.67627234  0.67374349  0.61855958  1
  Sn  Sn0  1  0.00000000  0.50000000  0.99877010  1
  Sn  Sn1  1  0.50000000  0.00000000  0.00122990  1
  Sn  Sn2  1  0.50000000  0.00000000  0.50122990  1
  Sn  Sn3  1  0.00000000  0.50000000  0.49877010  1
  Rh  Rh0  1  0.11129017  0.11129017  0.75000000  1
  Rh  Rh1  1  0.38870983  0.61129017  0.75000000  1
  Rh  Rh2  1  0.61129017  0.61129017  0.25000000  1
  Rh  Rh3  1  0.11129017  0.88870983  0.25000000  1
  Rh  Rh4  1  0.61129017  0.38870983  0.75000000  1
  Rh  Rh5  1  0.88870983  0.88870983  0.75000000  1
  Rh  Rh6  1  0.38870983  0.38870983  0.25000000  1
  Rh  Rh7  1  0.88870983  0.11129017  0.25000000  1
loop_
_geom_bond_atom_site_label_1
_geom_bond_atom_site_label_2
_geom_bond_distance
_geom_bond_site_symmetry_2
Ba0 Rh6 3.270534 1_555
Ba0 Rh2 3.283154 1_555
Ba0 Rh3 3.335853 1_555
Ba0 Sn0 3.685959 1_554
Ba0 Sn1 3.690931 1_565
Ba0 Ba10 3.789885 1_565
Ba0 Ba16 3.807192 1_555
Ba1 Rh7 3.270534 1_455
Ba1 Rh3 3.283154 1_545
Ba1 Rh6 3.335853 1_555
Ba1 Sn0 3.685959 1_554
Ba1 Sn1 3.690931 1_555
Ba1 Ba10 3.789885 1_555
Ba1 Ba16 3.807192 1_555
Ba2 Rh1 3.465912 1_545
Ba2 Rh5 3.465912 1_545
Ba2 Rh0 3.465912 1_555
Ba2 Rh4 3.465912 1_555
Ba2 Ba7 3.789885 1_545
Ba2 Ba8 3.807192 1_555
Ba2 Ba4 3.807192 1_545
Ba2 Ba9 3.807192 1_545
Ba2 Sn2 3.939987 1_555
Ba2 Sn1 4.054802 1_556
Ba3 Rh2 3.270534 1_555
Ba3 Rh6 3.283154 1_555
Ba3 Rh3 3.335853 1_555
Ba3 Sn2 3.685959 1_565
Ba3 Sn3 3.690931 1_555
Ba4 Rh1 3.270534 1_555
Ba4 Rh4 3.283154 1_555
Ba4 Rh5 3.335853 1_555
Ba4 Sn1 3.685959 1_566
Ba4 Sn0 3.690931 1_655
Ba5 Rh3 3.270534 1_545
Ba5 Rh7 3.283154 1_455
Ba5 Rh6 3.335853 1_555
Ba5 Sn2 3.685959 1_555
Ba5 Sn3 3.690931 1_555
Ba6 Rh6 3.270534 1_555
Ba6 Rh2 3.283154 1_555
Ba6 Rh7 3.335853 1_555
Ba6 Sn2 3.685959 1_555
Ba6 Sn3 3.690931 1_655
Ba7 Rh5 3.270534 1_455
Ba7 Rh0 3.283154 1_565
Ba7 Rh1 3.335853 1_555
Ba7 Sn3 3.685959 1_555
Ba7 Sn2 3.690931 1_565
Ba8 Rh4 3.270534 1_555
Ba8 Rh1 3.283154 1_555
Ba8 Rh0 3.335853 1_555
Ba8 Sn1 3.685959 1_556
Ba8 Sn0 3.690931 1_555
Ba9 Rh0 3.270534 1_565
Ba9 Rh5 3.283154 1_455
Ba9 Rh1 3.335853 1_555
Ba9 Sn1 3.685959 1_566
Ba9 Sn0 3.690931 1_555
Ba10 Rh7 3.465912 1_555
Ba10 Rh2 3.465912 1_545
Ba10 Rh6 3.465912 1_555
Ba10 Rh3 3.465912 1_545
Ba10 Ba18 3.789885 1_555
Ba10 Ba15 3.789885 1_545
Ba10 Ba6 3.807192 1_555
Ba10 Ba13 3.807192 1_545
Ba10 Ba5 3.807192 1_555
Ba10 Ba3 3.807192 1_545
Ba10 Sn1 3.939987 1_555
Ba10 Sn2 4.054802 1_555
Ba11 Rh0 3.270534 1_655
Ba11 Rh5 3.283154 1_545
Ba11 Rh4 3.335853 1_555
Ba11 Sn3 3.685959 1_655
Ba11 Sn2 3.690931 1_555
Ba11 Ba2 3.789885 1_555
Ba11 Ba17 3.807192 1_655
Ba12 Rh1 3.270534 1_555
Ba12 Rh4 3.283154 1_555
Ba12 Rh0 3.335853 1_555
Ba12 Sn3 3.685959 1_555
Ba12 Sn2 3.690931 1_555
Ba12 Ba2 3.789885 1_555
Ba12 Ba17 3.807192 1_555
Ba13 Rh7 3.270534 1_565
Ba13 Rh3 3.283154 1_655
Ba13 Rh2 3.335853 1_555
Ba13 Sn2 3.685959 1_565
Ba13 Sn3 3.690931 1_655
Ba13 Ba16 3.789885 1_655
Ba14 Rh5 3.270534 1_545
Ba14 Rh0 3.283154 1_655
Ba14 Rh4 3.335853 1_555
Ba14 Sn1 3.685959 1_556
Ba14 Sn0 3.690931 1_655
Ba14 Ba17 3.789885 1_655
Ba14 Ba2 3.807192 1_555
Ba15 Rh3 3.270534 1_655
Ba15 Rh7 3.283154 1_565
Ba15 Rh2 3.335853 1_555
Ba15 Sn0 3.685959 1_654
Ba15 Sn1 3.690931 1_565
Ba15 Ba16 3.807192 1_655
Ba16 Rh3 3.465912 1_555
Ba16 Rh2 3.465912 1_455
Ba16 Rh6 3.465912 1_555
Ba16 Rh7 3.465912 1_455
Ba16 Ba3 3.789885 1_555
Ba16 Ba5 3.789885 1_555
Ba16 Ba6 3.789885 1_455
Ba16 Ba18 3.807192 1_455
Ba16 Sn3 3.939987 1_555
Ba16 Sn0 4.054802 1_554
Ba17 Rh4 3.465912 1_455
Ba17 Rh5 3.465912 1_455
Ba17 Rh0 3.465912 1_555
Ba17 Rh1 3.465912 1_555
Ba17 Ba9 3.789885 1_555
Ba17 Ba8 3.789885 1_555
Ba17 Ba4 3.789885 1_455
Ba17 Ba7 3.807192 1_555
Ba17 Ba19 3.807192 1_455
Ba17 Sn0 3.939987 1_555
Ba17 Sn3 4.054802 1_555
Ba18 Rh2 3.270534 1_555
Ba18 Rh6 3.283154 1_555
Ba18 Rh7 3.335853 1_555
Ba18 Sn0 3.685959 1_654
Ba18 Sn1 3.690931 1_555
Ba19 Rh4 3.270534 1_555
Ba19 Rh1 3.283154 1_555
Ba19 Rh5 3.335853 1_555
Ba19 Sn3 3.685959 1_655
Ba19 Sn2 3.690931 1_565
Ba19 Ba2 3.789885 1_565
Rh0 Rh5 2.698113 1_445
Rh1 Rh4 2.698113 1_555
Rh2 Rh6 2.698113 1_555
Rh3 Rh7 2.698113 1_465
