# generated using pymatgen
data_NaFe3NiP12
_symmetry_space_group_name_H-M   'P 1'
_cell_length_a   6.70949856
_cell_length_b   6.70949936
_cell_length_c   6.70949825
_cell_angle_alpha   109.41281321
_cell_angle_beta   109.41282120
_cell_angle_gamma   109.41282061
_symmetry_Int_Tables_number   1
_chemical_formula_structural   NaFe3NiP12
_chemical_formula_sum   'Na1 Fe3 Ni1 P12'
_cell_volume   233.01499048
_cell_formula_units_Z   1
loop_
 _symmetry_equiv_pos_site_id
 _symmetry_equiv_pos_as_xyz
  1  'x, y, z'
loop_
 _atom_site_type_symbol
 _atom_site_label
 _atom_site_symmetry_multiplicity
 _atom_site_fract_x
 _atom_site_fract_y
 _atom_site_fract_z
 _atom_site_occupancy
  Na  Na0  1  0.00000000  0.00000000  0.00000000  1
  Fe  Fe0  1  0.50000000  0.00000000  0.00000000  1
  Fe  Fe1  1  0.00000000  0.50000000  0.00000000  1
  Fe  Fe2  1  0.00000000  0.00000000  0.50000000  1
  Ni  Ni0  1  0.50000000  0.50000000  0.50000000  1
  P  P0  1  0.14832806  0.79710728  0.64955845  1
  P  P1  1  0.13951762  0.50003795  0.34858257  1
  P  P2  1  0.86048238  0.49996205  0.65141743  1
  P  P3  1  0.34858257  0.13951762  0.50003795  1
  P  P4  1  0.79710728  0.64955845  0.14832806  1
  P  P5  1  0.85167194  0.20289272  0.35044155  1
  P  P6  1  0.64955845  0.14832806  0.79710728  1
  P  P7  1  0.49996205  0.65141743  0.86048238  1
  P  P8  1  0.65141743  0.86048238  0.49996205  1
  P  P9  1  0.50003795  0.34858257  0.13951762  1
  P  P10  1  0.35044155  0.85167194  0.20289272  1
  P  P11  1  0.20289272  0.35044155  0.85167194  1
loop_
_geom_bond_atom_site_label_1
_geom_bond_atom_site_label_2
_geom_bond_distance
_geom_bond_site_symmetry_2
Na0 P10 2.949663 1_545
Na0 P6 2.949663 1_454
Na0 P11 2.949664 1_554
Na0 P4 2.949664 1_445
Na0 P5 2.949664 1_455
Na0 P0 2.949664 1_544
Na0 P3 2.973761 1_555
Na0 P8 2.973761 1_444
Na0 P9 2.973761 1_555
Na0 P7 2.973761 1_444
Na0 P1 2.973761 1_555
Na0 P2 2.973761 1_444
Fe0 P9 2.211428 1_555
Fe0 P7 2.211428 1_544
Fe0 P6 2.235022 1_554
Fe0 P10 2.235022 1_545
Fe0 P5 2.235675 1_555
Fe0 P0 2.235675 1_544
Fe1 P1 2.211427 1_555
Fe1 P2 2.211427 1_454
Fe1 P4 2.235022 1_455
Fe1 P11 2.235022 1_554
Fe1 P10 2.235675 1_555
Fe1 P6 2.235675 1_454
Fe2 P3 2.211428 1_555
Fe2 P8 2.211428 1_445
Fe2 P0 2.235022 1_545
Fe2 P5 2.235022 1_455
Fe2 P11 2.235675 1_555
Fe2 P4 2.235675 1_445
Ni0 P2 2.291112 1_555
Ni0 P1 2.291112 1_555
Ni0 P7 2.291112 1_555
Ni0 P9 2.291112 1_555
Ni0 P8 2.291112 1_555
Ni0 P3 2.291112 1_555
P0 P2 2.275499 1_455
P0 P1 2.284941 1_555
P1 P5 2.275499 1_455
P2 P5 2.284941 1_555
P3 P6 2.284941 1_555
P4 P7 2.275498 1_554
P4 P9 2.284941 1_555
P6 P8 2.275499 1_545
P10 P3 2.275499 1_565
P10 P8 2.284941 1_555
P11 P9 2.275498 1_556
P11 P7 2.284941 1_555
