# generated using pymatgen
data_K6ScInP4
_symmetry_space_group_name_H-M   'P 1'
_cell_length_a   8.96745136
_cell_length_b   8.96745181
_cell_length_c   8.96745096
_cell_angle_alpha   137.00523735
_cell_angle_beta   128.71699642
_cell_angle_gamma   69.09066294
_symmetry_Int_Tables_number   1
_chemical_formula_structural   K6ScInP4
_chemical_formula_sum   'K6 Sc1 In1 P4'
_cell_volume   376.76919810
_cell_formula_units_Z   1
loop_
 _symmetry_equiv_pos_site_id
 _symmetry_equiv_pos_as_xyz
  1  'x, y, z'
loop_
 _atom_site_type_symbol
 _atom_site_label
 _atom_site_symmetry_multiplicity
 _atom_site_fract_x
 _atom_site_fract_y
 _atom_site_fract_z
 _atom_site_occupancy
  K  K0  1  0.00806727  0.80205212  0.18729722  1
  K  K1  1  0.50000000  0.75000000  0.25000000  1
  K  K2  1  0.61475490  0.32077005  0.31270278  1
  K  K3  1  0.38524510  0.69794788  0.70601615  1
  K  K4  1  0.50000000  0.25000000  0.75000000  1
  K  K5  1  0.99193273  0.17922995  0.79398385  1
  Sc  Sc0  1  0.00000000  0.25000000  0.25000000  1
  In  In0  1  0.00000000  0.75000000  0.75000000  1
  P  P0  1  0.09048133  0.39975847  0.68471925  1
  P  P1  1  0.90951867  0.59423693  0.30927615  1
  P  P2  1  0.28496078  0.10024153  0.19072385  1
  P  P3  1  0.71503922  0.90576307  0.81528075  1
loop_
_geom_bond_atom_site_label_1
_geom_bond_atom_site_label_2
_geom_bond_distance
_geom_bond_site_symmetry_2
K0 P3 3.275238 1_454
K0 P1 3.288927 1_455
K0 P0 3.514557 1_554
K0 P0 3.591842 1_565
K1 P3 3.271463 1_555
K1 P2 3.271463 1_565
K1 P0 3.271468 1_554
K1 P1 3.271471 1_555
K2 P0 3.275232 1_655
K2 P2 3.288933 1_555
K2 P3 3.514563 1_555
K2 P3 3.591841 1_544
K3 P1 3.275232 1_455
K3 P3 3.288939 1_555
K3 P2 3.514557 1_566
K3 P2 3.591842 1_555
K4 P2 3.251581 1_555
K4 P3 3.251581 1_545
K4 P1 3.251586 1_556
K4 P0 3.251589 1_555
K5 P2 3.275245 1_656
K5 P0 3.288919 1_655
K5 P1 3.514563 1_545
K5 P1 3.591841 1_556
In0 P0 2.636498 1_555
In0 P3 2.636498 1_455
In0 P2 2.636498 1_566
In0 P1 2.636501 1_455
P0 Sc0 2.611791 1_555
P1 Sc0 2.611787 1_655
P2 Sc0 2.611787 1_555
P3 Sc0 2.611787 1_666
