# generated using pymatgen
data_Lu2ReTcC3
_symmetry_space_group_name_H-M   'P 1'
_cell_length_a   5.93247936
_cell_length_b   5.93247900
_cell_length_c   5.57027111
_cell_angle_alpha   68.18210131
_cell_angle_beta   68.18209248
_cell_angle_gamma   31.54029635
_symmetry_Int_Tables_number   1
_chemical_formula_structural   Lu2ReTcC3
_chemical_formula_sum   'Lu2 Re1 Tc1 C3'
_cell_volume   94.59309049
_cell_formula_units_Z   1
loop_
 _symmetry_equiv_pos_site_id
 _symmetry_equiv_pos_as_xyz
  1  'x, y, z'
loop_
 _atom_site_type_symbol
 _atom_site_label
 _atom_site_symmetry_multiplicity
 _atom_site_fract_x
 _atom_site_fract_y
 _atom_site_fract_z
 _atom_site_occupancy
  Lu  Lu0  1  0.61096237  0.61096237  0.17766260  1
  Lu  Lu1  1  0.38899556  0.38899556  0.82634827  1
  Re  Re0  1  0.15533903  0.15533903  0.67498556  1
  Tc  Tc0  1  0.84542848  0.84542848  0.32177802  1
  C  C0  1  0.75496559  0.75496559  0.73554003  1
  C  C1  1  0.24431385  0.24431385  0.26481768  1
  C  C2  1  0.99999512  0.99999512  0.99886884  1
loop_
_geom_bond_atom_site_label_1
_geom_bond_atom_site_label_2
_geom_bond_distance
_geom_bond_site_symmetry_2
C0 Re0 2.074560 1_655
C0 Re0 2.074560 1_565
C0 Tc0 2.130751 1_555
C0 Lu0 2.375083 1_556
C0 Lu1 2.407383 1_565
C0 Lu1 2.407384 1_655
C1 Tc0 2.077550 1_455
C1 Tc0 2.077550 1_545
C1 Re0 2.111720 1_555
C1 Lu1 2.361772 1_554
C1 Lu0 2.392637 1_545
C1 Lu0 2.392637 1_455
C2 Tc0 1.974386 1_556
C2 Re0 1.982269 1_665
C2 Lu1 2.463782 1_655
C2 Lu1 2.463783 1_565
C2 Lu0 2.484269 1_566
C2 Lu0 2.484269 1_656
