# generated using pymatgen
data_Lu6InGaRu
_symmetry_space_group_name_H-M   'P 1'
_cell_length_a   8.34296930
_cell_length_b   8.34293312
_cell_length_c   8.34296741
_cell_angle_alpha   113.03805023
_cell_angle_beta   111.16643840
_cell_angle_gamma   104.33447421
_symmetry_Int_Tables_number   1
_chemical_formula_structural   Lu6InGaRu
_chemical_formula_sum   'Lu12 In2 Ga2 Ru2'
_cell_volume   444.23714335
_cell_formula_units_Z   2
loop_
 _symmetry_equiv_pos_site_id
 _symmetry_equiv_pos_as_xyz
  1  'x, y, z'
loop_
 _atom_site_type_symbol
 _atom_site_label
 _atom_site_symmetry_multiplicity
 _atom_site_fract_x
 _atom_site_fract_y
 _atom_site_fract_z
 _atom_site_occupancy
  Lu  Lu0  1  0.43990432  0.23704814  0.20280624  1
  Lu  Lu1  1  0.56009568  0.76295186  0.79719376  1
  Lu  Lu2  1  0.03424191  0.23704814  0.79714383  1
  Lu  Lu3  1  0.96575809  0.76295186  0.20285617  1
  Lu  Lu4  1  0.19006866  0.27552055  0.46554437  1
  Lu  Lu5  1  0.80993134  0.72447945  0.53445563  1
  Lu  Lu6  1  0.19002382  0.72447945  0.91455011  1
  Lu  Lu7  1  0.80997618  0.27552055  0.08544989  1
  Lu  Lu8  1  0.33591948  0.64584729  0.30992681  1
  Lu  Lu9  1  0.66408052  0.35415271  0.69007319  1
  Lu  Lu10  1  0.33596568  0.02602021  0.69005453  1
  Lu  Lu11  1  0.66403432  0.97397979  0.30994547  1
  In  In0  1  0.50000000  0.50000000  0.00000000  1
  In  In1  1  0.00000000  0.00000000  0.00000000  1
  Ga  Ga0  1  0.11928971  0.61930932  0.50001961  1
  Ga  Ga1  1  0.88071029  0.38069068  0.49998039  1
  Ru  Ru0  1  0.33263357  1.00000000  0.33263357  1
  Ru  Ru1  1  0.66736643  0.00000000  0.66736643  1
loop_
_geom_bond_atom_site_label_1
_geom_bond_atom_site_label_2
_geom_bond_distance
_geom_bond_site_symmetry_2
Lu0 Ru0 2.717643 1_545
Lu1 Ru1 2.717643 1_565
Lu2 Ru1 2.717643 1_455
Lu3 Ru0 2.717643 1_655
Lu4 Ru0 2.870429 1_545
Lu5 Ru1 2.870429 1_565
Lu6 Ru0 2.870416 1_556
Lu7 Ru1 2.870416 1_554
Lu8 Ru0 2.893525 1_555
Lu8 Ru1 2.893530 1_565
Lu9 Ru1 2.893525 1_555
Lu9 Ru0 2.893530 1_545
Lu10 Ru0 2.893168 1_545
Lu10 Ru1 2.893168 1_555
Lu11 Ru1 2.893168 1_565
Lu11 Ru0 2.893168 1_555
In0 Lu1 3.301548 1_554
In0 Lu0 3.301548 1_555
In0 Lu3 3.301548 1_555
In0 Lu2 3.301548 1_554
In0 Lu11 3.310301 1_555
In0 Lu10 3.310301 1_554
In0 Lu8 3.310413 1_555
In0 Lu9 3.310413 1_554
In0 Lu6 3.579879 1_554
In0 Lu7 3.579879 1_555
In0 Lu5 3.579880 1_555
In0 Lu4 3.579880 1_554
In1 Lu2 3.089693 1_554
In1 Lu3 3.089693 1_445
In1 Lu0 3.089694 1_555
In1 Lu1 3.089694 1_444
In1 Lu7 3.105393 1_455
In1 Lu6 3.105393 1_544
In1 Lu4 3.105394 1_555
In1 Lu5 3.105394 1_444
In1 Ru0 3.137079 1_545
In1 Ru1 3.137079 1_454
Ga0 Ga1 2.441728 1_455
Ga0 Lu8 2.824412 1_555
Ga0 Lu10 2.824434 1_565
Ga0 Lu5 2.995555 1_455
Ga0 Lu6 2.995570 1_555
Ga0 Lu4 2.995606 1_555
Ga0 Lu7 2.995614 1_455
Ga0 Lu3 3.164752 1_455
Ga0 Lu1 3.164753 1_555
Ga1 Lu9 2.824412 1_555
Ga1 Lu11 2.824434 1_545
Ga1 Lu4 2.995555 1_655
Ga1 Lu7 2.995570 1_555
Ga1 Lu5 2.995606 1_555
Ga1 Lu6 2.995614 1_655
Ga1 Lu2 3.164752 1_655
Ga1 Lu0 3.164753 1_555
