# generated using pymatgen
data_NaZnF3
_symmetry_space_group_name_H-M   'P 1'
_cell_length_a   5.35051557
_cell_length_b   5.58325960
_cell_length_c   7.70171572
_cell_angle_alpha   90.00000000
_cell_angle_beta   90.00000000
_cell_angle_gamma   90.00000000
_symmetry_Int_Tables_number   1
_chemical_formula_structural   NaZnF3
_chemical_formula_sum   'Na4 Zn4 F12'
_cell_volume   230.07579839
_cell_formula_units_Z   4
loop_
 _symmetry_equiv_pos_site_id
 _symmetry_equiv_pos_as_xyz
  1  'x, y, z'
loop_
 _atom_site_type_symbol
 _atom_site_label
 _atom_site_symmetry_multiplicity
 _atom_site_fract_x
 _atom_site_fract_y
 _atom_site_fract_z
 _atom_site_occupancy
  Na  Na0  1  0.01888281  0.93754469  0.75000000  1
  Na  Na1  1  0.51888281  0.56245531  0.25000000  1
  Na  Na2  1  0.48111719  0.43754469  0.75000000  1
  Na  Na3  1  0.98111719  0.06245531  0.25000000  1
  Zn  Zn0  1  0.50000000  0.00000000  0.50000000  1
  Zn  Zn1  1  0.00000000  0.50000000  0.50000000  1
  Zn  Zn2  1  -0.00000000  0.50000000  0.00000000  1
  Zn  Zn3  1  0.50000000  0.00000000  0.00000000  1
  F  F0  1  0.69411441  0.30140205  0.44189527  1
  F  F1  1  0.19411441  0.19859795  0.55810473  1
  F  F2  1  0.80588559  0.80140205  0.05810473  1
  F  F3  1  0.30588559  0.69859795  0.94189527  1
  F  F4  1  0.30588559  0.69859795  0.55810473  1
  F  F5  1  0.80588559  0.80140205  0.44189527  1
  F  F6  1  0.19411441  0.19859795  0.94189527  1
  F  F7  1  0.69411441  0.30140205  0.05810473  1
  F  F8  1  0.11136990  0.45928356  0.25000000  1
  F  F9  1  0.61136990  0.04071644  0.75000000  1
  F  F10  1  0.38863010  0.95928356  0.25000000  1
  F  F11  1  0.88863010  0.54071644  0.75000000  1
loop_
_geom_bond_atom_site_label_1
_geom_bond_atom_site_label_2
_geom_bond_distance
_geom_bond_site_symmetry_2
F0 Zn1 2.026909 1_655
F0 Zn0 2.027514 1_555
F0 Na1 2.277652 1_555
F0 Na3 2.514397 1_555
F0 Na2 2.739962 1_555
F1 Zn0 2.026909 1_555
F1 Zn1 2.027514 1_555
F1 Na0 2.277652 1_545
F1 Na2 2.514397 1_555
F1 Na3 2.739962 1_455
F2 Zn3 2.026909 1_565
F2 Zn2 2.027514 1_655
F2 Na3 2.277652 1_565
F2 Na1 2.514397 1_555
F2 Na0 2.739962 1_654
F3 Zn2 2.026909 1_556
F3 Zn3 2.027514 1_566
F3 Na2 2.277652 1_555
F3 Na0 2.514397 1_555
F3 Na1 2.739962 1_556
F4 Zn1 2.026909 1_555
F4 Zn0 2.027514 1_565
F4 Na2 2.277652 1_555
F4 Na0 2.514397 1_555
F4 Na1 2.739962 1_555
F5 Zn0 2.026909 1_565
F5 Zn1 2.027514 1_655
F5 Na3 2.277652 1_565
F5 Na1 2.514397 1_555
F5 Na0 2.739962 1_655
F6 Zn3 2.026909 1_556
F6 Zn2 2.027514 1_556
F6 Na0 2.277652 1_545
F6 Na2 2.514397 1_555
F6 Na3 2.739962 1_456
F7 Zn2 2.026909 1_655
F7 Zn3 2.027514 1_555
F7 Na1 2.277652 1_555
F7 Na3 2.514397 1_555
F7 Na2 2.739962 1_554
F8 Zn2 2.028309 1_555
F8 Zn1 2.028309 1_555
F8 Na1 2.255211 1_555
F8 Na3 2.322619 1_455
F9 Zn0 2.028309 1_555
F9 Zn3 2.028309 1_556
F9 Na0 2.255211 1_645
F9 Na2 2.322619 1_555
F10 Zn3 2.028309 1_565
F10 Zn0 2.028309 1_565
F10 Na3 2.255211 1_465
F10 Na1 2.322619 1_555
F11 Zn2 2.028309 1_656
F11 Zn1 2.028309 1_655
F11 Na2 2.255211 1_555
F11 Na0 2.322619 1_655
