# generated using pymatgen
data_HfZr6(Pd4Au)2
_symmetry_space_group_name_H-M   'P 1'
_cell_length_a   8.13326297
_cell_length_b   8.13326224
_cell_length_c   9.70234690
_cell_angle_alpha   90.00000000
_cell_angle_beta   90.00000000
_cell_angle_gamma   106.30380524
_symmetry_Int_Tables_number   1
_chemical_formula_structural   HfZr6(Pd4Au)2
_chemical_formula_sum   'Hf2 Zr12 Pd16 Au4'
_cell_volume   616.00054017
_cell_formula_units_Z   2
loop_
 _symmetry_equiv_pos_site_id
 _symmetry_equiv_pos_as_xyz
  1  'x, y, z'
loop_
 _atom_site_type_symbol
 _atom_site_label
 _atom_site_symmetry_multiplicity
 _atom_site_fract_x
 _atom_site_fract_y
 _atom_site_fract_z
 _atom_site_occupancy
  Hf  Hf0  1  0.00000000  0.00000000  0.00000000  1
  Hf  Hf1  1  0.50000000  0.50000000  0.50000000  1
  Zr  Zr0  1  0.69529396  0.30470604  0.00000000  1
  Zr  Zr1  1  0.30470604  0.69529396  0.00000000  1
  Zr  Zr2  1  0.80470604  0.19529396  0.50000000  1
  Zr  Zr3  1  0.19529396  0.80470604  0.50000000  1
  Zr  Zr4  1  0.99994479  0.49994479  0.25000000  1
  Zr  Zr5  1  0.00005521  0.50005521  0.75000000  1
  Zr  Zr6  1  0.50005521  0.00005521  0.75000000  1
  Zr  Zr7  1  0.49994479  0.99994479  0.25000000  1
  Zr  Zr8  1  0.31368373  0.31368373  0.18705088  1
  Zr  Zr9  1  0.68631627  0.68631627  0.81294912  1
  Zr  Zr10  1  0.18631627  0.18631627  0.68705088  1
  Zr  Zr11  1  0.81368373  0.81368373  0.31294912  1
  Pd  Pd0  1  0.85469772  0.14677472  0.20524355  1
  Pd  Pd1  1  0.14530228  0.85322528  0.79475645  1
  Pd  Pd2  1  0.64530228  0.35322528  0.70524355  1
  Pd  Pd3  1  0.64677472  0.35469772  0.29475645  1
  Pd  Pd4  1  0.35469772  0.64677472  0.29475645  1
  Pd  Pd5  1  0.35322528  0.64530228  0.70524355  1
  Pd  Pd6  1  0.85322528  0.14530228  0.79475645  1
  Pd  Pd7  1  0.14677472  0.85469772  0.20524355  1
  Pd  Pd8  1  0.93888509  0.64773033  0.00137570  1
  Pd  Pd9  1  0.06111491  0.35226967  0.99862430  1
  Pd  Pd10  1  0.56111491  0.85226967  0.50137570  1
  Pd  Pd11  1  0.14773033  0.43888509  0.49862430  1
  Pd  Pd12  1  0.43888509  0.14773033  0.49862430  1
  Pd  Pd13  1  0.85226967  0.56111491  0.50137570  1
  Pd  Pd14  1  0.35226967  0.06111491  0.99862430  1
  Pd  Pd15  1  0.64773033  0.93888509  0.00137570  1
  Au  Au0  1  0.10587264  0.10587264  0.39338876  1
  Au  Au1  1  0.89412736  0.89412736  0.60661124  1
  Au  Au2  1  0.39412736  0.39412736  0.89338876  1
  Au  Au3  1  0.60587264  0.60587264  0.10661124  1
loop_
_geom_bond_atom_site_label_1
_geom_bond_atom_site_label_2
_geom_bond_distance
_geom_bond_site_symmetry_2
Hf0 Pd0 2.753035 1_455
Hf0 Pd1 2.753035 1_544
Hf0 Pd7 2.753035 1_545
Hf0 Pd6 2.753035 1_454
Hf0 Pd9 2.767031 1_554
Hf0 Pd8 2.767031 1_445
Hf0 Pd14 2.767031 1_554
Hf0 Pd15 2.767031 1_445
Hf1 Pd2 2.753035 1_555
Hf1 Pd4 2.753035 1_555
Hf1 Pd5 2.753035 1_555
Hf1 Pd3 2.753035 1_555
Hf1 Pd12 2.767031 1_555
Hf1 Pd10 2.767031 1_555
Hf1 Pd13 2.767031 1_555
Hf1 Pd11 2.767031 1_555
Pd0 Zr4 2.815979 1_555
Pd0 Zr7 2.829320 1_545
Pd0 Pd15 2.829644 1_545
Pd0 Zr11 2.834645 1_545
Pd0 Pd9 2.838183 1_654
Pd0 Pd3 2.842449 1_555
Pd0 Zr0 2.869013 1_555
Pd0 Zr2 2.930828 1_555
Pd1 Zr5 2.815979 1_555
Pd1 Zr6 2.829320 1_565
Pd1 Pd14 2.829644 1_565
Pd1 Zr10 2.834645 1_565
Pd1 Pd8 2.838183 1_456
Pd1 Pd5 2.842449 1_555
Pd1 Zr1 2.869013 1_556
Pd1 Zr3 2.930828 1_555
Pd2 Zr6 2.815979 1_555
Pd2 Zr5 2.829320 1_655
Pd2 Zr9 2.834645 1_555
Pd2 Pd6 2.842449 1_555
Pd2 Zr2 2.869013 1_555
Pd2 Zr0 2.930828 1_556
Pd3 Zr4 2.815979 1_555
Pd3 Zr7 2.829320 1_545
Pd3 Zr8 2.834645 1_555
Pd3 Zr2 2.869013 1_555
Pd3 Zr0 2.930828 1_555
Pd4 Zr7 2.815979 1_555
Pd4 Zr4 2.829320 1_455
Pd4 Zr8 2.834645 1_555
Pd4 Pd7 2.842449 1_555
Pd4 Zr3 2.869013 1_555
Pd4 Zr1 2.930828 1_555
Pd5 Zr5 2.815979 1_555
Pd5 Zr6 2.829320 1_565
Pd5 Zr9 2.834645 1_555
Pd5 Zr3 2.869013 1_555
Pd5 Zr1 2.930828 1_556
Pd6 Zr6 2.815979 1_555
Pd6 Zr5 2.829320 1_655
Pd6 Pd9 2.829644 1_655
Pd6 Zr10 2.834645 1_655
Pd6 Zr0 2.869013 1_556
Pd6 Zr2 2.930828 1_555
Pd7 Zr7 2.815979 1_555
Pd7 Zr4 2.829320 1_455
Pd7 Pd8 2.829644 1_455
Pd7 Zr11 2.834645 1_455
Pd7 Zr1 2.869013 1_555
Pd7 Zr3 2.930828 1_555
Pd8 Zr4 2.800968 1_555
Pd8 Zr5 2.823830 1_654
Pd8 Zr9 2.832395 1_554
Pd8 Pd9 2.846927 1_654
Pd8 Zr1 2.890693 1_655
Pd8 Zr0 2.933511 1_555
Pd9 Zr5 2.800968 1_555
Pd9 Zr4 2.823830 1_456
Pd9 Zr8 2.832395 1_556
Pd9 Zr0 2.890693 1_456
Pd9 Zr1 2.933511 1_556
Pd10 Zr6 2.800968 1_565
Pd10 Zr7 2.823830 1_555
Pd10 Pd5 2.829644 1_555
Pd10 Zr11 2.832395 1_555
Pd10 Pd4 2.838183 1_555
Pd10 Pd12 2.846927 1_565
Pd10 Zr3 2.890693 1_555
Pd10 Zr2 2.933511 1_565
Pd11 Zr4 2.800968 1_455
Pd11 Zr5 2.823830 1_555
Pd11 Pd4 2.829644 1_555
Pd11 Zr10 2.832395 1_555
Pd11 Pd5 2.838183 1_555
Pd11 Pd13 2.846927 1_455
Pd11 Zr3 2.890693 1_555
Pd11 Zr2 2.933512 1_455
Pd12 Zr7 2.800968 1_545
Pd12 Zr6 2.823830 1_555
Pd12 Pd3 2.829644 1_555
Pd12 Zr10 2.832395 1_555
Pd12 Pd2 2.838183 1_555
Pd12 Zr2 2.890693 1_555
Pd12 Zr3 2.933511 1_545
Pd13 Zr5 2.800968 1_655
Pd13 Zr4 2.823830 1_555
Pd13 Pd2 2.829644 1_555
Pd13 Zr11 2.832395 1_555
Pd13 Pd3 2.838183 1_555
Pd13 Zr2 2.890693 1_555
Pd13 Zr3 2.933512 1_655
Pd14 Zr6 2.800968 1_555
Pd14 Zr7 2.823830 1_546
Pd14 Zr8 2.832395 1_556
Pd14 Pd7 2.838183 1_546
Pd14 Pd15 2.846927 1_546
Pd14 Zr1 2.890693 1_546
Pd14 Zr0 2.933512 1_556
Pd15 Zr7 2.800968 1_555
Pd15 Zr6 2.823830 1_564
Pd15 Zr9 2.832395 1_554
Pd15 Pd6 2.838183 1_564
Pd15 Zr0 2.890693 1_565
Pd15 Zr1 2.933512 1_555
Au0 Pd11 2.824278 1_555
Au0 Pd12 2.824278 1_555
Au0 Pd7 2.828043 1_545
Au0 Pd0 2.828043 1_455
Au0 Zr8 2.849096 1_555
Au0 Au1 2.923411 1_445
Au0 Zr3 2.932405 1_545
Au0 Zr2 2.932405 1_455
Au0 Zr11 2.955211 1_445
Au0 Zr10 2.955300 1_555
Au1 Pd13 2.824278 1_555
Au1 Pd10 2.824278 1_555
Au1 Pd6 2.828043 1_565
Au1 Pd1 2.828043 1_655
Au1 Zr9 2.849096 1_555
Au1 Zr2 2.932405 1_565
Au1 Zr3 2.932405 1_655
Au1 Zr10 2.955211 1_665
Au1 Zr11 2.955300 1_555
Au2 Pd14 2.824278 1_555
Au2 Pd9 2.824278 1_555
Au2 Pd5 2.828043 1_555
Au2 Pd2 2.828043 1_555
Au2 Zr10 2.849096 1_555
Au2 Au3 2.923411 1_556
Au2 Zr1 2.932405 1_556
Au2 Zr0 2.932405 1_556
Au2 Zr9 2.955211 1_555
Au2 Zr8 2.955300 1_556
Au3 Pd15 2.824278 1_555
Au3 Pd8 2.824278 1_555
Au3 Pd3 2.828043 1_555
Au3 Pd4 2.828043 1_555
Au3 Zr11 2.849096 1_555
Au3 Zr0 2.932405 1_555
Au3 Zr1 2.932405 1_555
Au3 Zr8 2.955211 1_555
Au3 Zr9 2.955300 1_554
