# generated using pymatgen
data_Sc2P7(Rh3W)3
_symmetry_space_group_name_H-M   'P 1'
_cell_length_a   3.88367095
_cell_length_b   9.38786703
_cell_length_c   9.38790984
_cell_angle_alpha   119.99965461
_cell_angle_beta   90.00026560
_cell_angle_gamma   89.99972222
_symmetry_Int_Tables_number   1
_chemical_formula_structural   Sc2P7(Rh3W)3
_chemical_formula_sum   'Sc2 P7 Rh9 W3'
_cell_volume   296.42198396
_cell_formula_units_Z   1
loop_
 _symmetry_equiv_pos_site_id
 _symmetry_equiv_pos_as_xyz
  1  'x, y, z'
loop_
 _atom_site_type_symbol
 _atom_site_label
 _atom_site_symmetry_multiplicity
 _atom_site_fract_x
 _atom_site_fract_y
 _atom_site_fract_z
 _atom_site_occupancy
  Sc  Sc0  1  0.26202546  0.66666782  0.33333863  1
  Sc  Sc1  1  0.76192769  0.33333986  0.66666958  1
  P  P0  1  0.26192087  0.00000279  0.00000231  1
  P  P1  1  0.76193919  0.87648622  0.58876095  1
  P  P2  1  0.76192826  0.41123196  0.28772910  1
  P  P3  1  0.76193153  0.71226688  0.12350060  1
  P  P4  1  0.26200408  0.12083163  0.41632089  1
  P  P5  1  0.26200563  0.58367991  0.70451146  1
  P  P6  1  0.26200651  0.29549360  0.87917266  1
  Rh  Rh0  1  0.26188649  0.88593846  0.16193768  1
  Rh  Rh1  1  0.26188877  0.83806029  0.72399540  1
  Rh  Rh2  1  0.26188483  0.27599535  0.11405940  1
  Rh  Rh3  1  0.76189758  0.61238157  0.55589451  1
  Rh  Rh4  1  0.76189697  0.44410836  0.05649325  1
  Rh  Rh5  1  0.76189920  0.94350188  0.38761649  1
  Rh  Rh6  1  0.26188038  0.36924663  0.44043446  1
  Rh  Rh7  1  0.26188069  0.55956356  0.92882062  1
  Rh  Rh8  1  0.26188397  0.07118464  0.63074754  1
  W  W0  1  0.76177396  0.08957720  0.86907098  1
  W  W1  1  0.76177223  0.13091879  0.22049269  1
  W  W2  1  0.76176471  0.77952258  0.91042979  1
loop_
_geom_bond_atom_site_label_1
_geom_bond_atom_site_label_2
_geom_bond_distance
_geom_bond_site_symmetry_2
P0 Rh2 2.255088 1_555
P0 Rh0 2.255139 1_545
P0 Rh1 2.255217 1_544
P0 W2 2.649374 1_544
P0 W1 2.649463 1_555
P0 W0 2.649558 1_554
P0 W2 2.650272 1_444
P0 W1 2.650314 1_455
P0 W0 2.650380 1_454
P1 Rh5 2.269269 1_555
P1 Rh3 2.340411 1_555
P1 W0 2.379616 1_565
P1 Rh1 2.443327 1_655
P1 Rh1 2.443651 1_555
P1 Rh8 2.558456 1_665
P1 Rh8 2.558771 1_565
P1 Sc0 2.945503 1_555
P1 Sc0 2.945947 1_655
P2 Rh3 2.269330 1_555
P2 Rh4 2.340452 1_555
P2 W1 2.379581 1_555
P2 Rh2 2.443400 1_655
P2 Rh2 2.443666 1_555
P2 Rh6 2.558424 1_655
P2 Rh6 2.558720 1_555
P2 Sc0 2.945538 1_555
P2 Sc0 2.946048 1_655
P3 Rh4 2.269274 1_555
P3 Rh5 2.340480 1_555
P3 W2 2.379654 1_554
P3 Rh0 2.443396 1_655
P3 Rh0 2.443664 1_555
P3 Rh7 2.558382 1_654
P3 Rh7 2.558679 1_554
P3 Sc0 2.945598 1_555
P3 Sc0 2.946064 1_655
P4 Rh6 2.227544 1_555
P4 Rh8 2.282036 1_555
P4 Rh0 2.302109 1_545
P4 Rh5 2.482845 1_545
P4 Rh5 2.483492 1_445
P4 W1 2.707416 1_555
P4 W1 2.708694 1_455
P4 Sc1 2.929944 1_555
P4 Sc1 2.930338 1_455
P5 Rh7 2.227639 1_555
P5 Rh6 2.282089 1_555
P5 Rh1 2.302090 1_555
P5 Rh3 2.482790 1_555
P5 Rh3 2.483434 1_455
P5 W2 2.707443 1_555
P5 W2 2.708785 1_455
P5 Sc1 2.929858 1_555
P5 Sc1 2.930272 1_455
P6 Rh8 2.227645 1_555
P6 Rh7 2.281994 1_555
P6 Rh2 2.302083 1_556
P6 Rh4 2.482786 1_556
P6 Rh4 2.483453 1_456
P6 W0 2.707359 1_555
P6 W0 2.708667 1_455
P6 Sc1 2.929927 1_555
P6 Sc1 2.930318 1_455
Rh0 Rh5 2.721466 1_455
Rh0 Rh5 2.721526 1_555
Rh0 Sc0 3.184150 1_555
Rh1 Rh3 2.721446 1_455
Rh1 Rh3 2.721491 1_555
Rh1 Sc0 3.184055 1_555
Rh2 Rh4 2.721443 1_455
Rh2 Rh4 2.721525 1_555
Rh2 Sc0 3.184175 1_555
Rh3 Rh6 2.771493 1_655
Rh3 Rh6 2.771595 1_555
Rh3 W2 2.884009 1_555
Rh3 Sc0 3.075479 1_555
Rh3 Sc0 3.076122 1_655
Rh3 Sc1 3.266198 1_555
Rh4 Rh7 2.771463 1_654
Rh4 Rh7 2.771536 1_554
Rh4 W0 2.883972 1_554
Rh4 Sc0 3.075521 1_555
Rh4 Sc0 3.076148 1_655
Rh4 Sc1 3.266298 1_554
Rh5 Rh8 2.771485 1_665
Rh5 Rh8 2.771575 1_565
Rh5 W1 2.884037 1_565
Rh5 Sc0 3.075456 1_555
Rh5 Sc0 3.076062 1_655
Rh5 Sc1 3.266386 1_565
Rh6 Sc1 3.018353 1_455
Rh6 Sc1 3.018574 1_555
Rh6 Sc0 3.407956 1_555
Rh7 Sc1 3.018362 1_455
Rh7 Sc1 3.018598 1_555
Rh7 Sc0 3.407968 1_556
Rh8 Sc1 3.018395 1_455
Rh8 Sc1 3.018627 1_555
Rh8 Sc0 3.407945 1_545
