# generated using pymatgen
data_CsZnSiAs2
_symmetry_space_group_name_H-M   'P 1'
_cell_length_a   8.73506483
_cell_length_b   8.30697006
_cell_length_c   8.42993411
_cell_angle_alpha   71.21340578
_cell_angle_beta   76.46661883
_cell_angle_gamma   73.15783227
_symmetry_Int_Tables_number   1
_chemical_formula_structural   CsZnSiAs2
_chemical_formula_sum   'Cs4 Zn4 Si4 As8'
_cell_volume   547.54114422
_cell_formula_units_Z   4
loop_
 _symmetry_equiv_pos_site_id
 _symmetry_equiv_pos_as_xyz
  1  'x, y, z'
loop_
 _atom_site_type_symbol
 _atom_site_label
 _atom_site_symmetry_multiplicity
 _atom_site_fract_x
 _atom_site_fract_y
 _atom_site_fract_z
 _atom_site_occupancy
  Cs  Cs0  1  0.45096485  0.76984653  0.31993723  1
  Cs  Cs1  1  0.54903515  0.23015347  0.68006277  1
  Cs  Cs2  1  0.43858859  0.79633821  0.82003621  1
  Cs  Cs3  1  0.56141141  0.20366179  0.17996379  1
  Zn  Zn0  1  0.99928044  0.89199832  0.68675328  1
  Zn  Zn1  1  0.00071956  0.10800168  0.31324672  1
  Zn  Zn2  1  0.96130126  0.80760108  0.17547531  1
  Zn  Zn3  1  0.03869874  0.19239892  0.82452469  1
  Si  Si0  1  0.96473550  0.58922638  0.59268371  1
  Si  Si1  1  0.03526450  0.41077362  0.40731629  1
  Si  Si2  1  0.13823873  0.44825555  0.98014494  1
  Si  Si3  1  0.86176127  0.55174445  0.01985506  1
  As  As0  1  0.83396218  0.87685674  0.45042268  1
  As  As1  1  0.16603782  0.12314326  0.54957732  1
  As  As2  1  0.80053420  0.40324202  0.31143517  1
  As  As3  1  0.19946580  0.59675798  0.68856483  1
  As  As4  1  0.79877622  0.86202210  0.95447896  1
  As  As5  1  0.20122378  0.13797790  0.04552104  1
  As  As6  1  0.79269534  0.44361606  0.82115677  1
  As  As7  1  0.20730466  0.55638394  0.17884323  1
loop_
_geom_bond_atom_site_label_1
_geom_bond_atom_site_label_2
_geom_bond_distance
_geom_bond_site_symmetry_2
Si0 Si1 2.351831 1_655
Si2 Si3 2.299450 1_456
As0 Si0 2.380335 1_555
As0 Zn2 2.494349 1_555
As0 Zn1 2.558926 1_665
As0 Zn0 2.771884 1_555
As0 Cs3 3.611740 1_565
As0 Cs1 3.965703 1_565
As0 Cs2 4.128328 1_555
As0 Cs0 4.155479 1_555
As1 Si1 2.380335 1_555
As1 Zn3 2.494349 1_555
As1 Zn0 2.558926 1_445
As1 Zn1 2.771884 1_555
As1 Cs2 3.611740 1_545
As1 Cs0 3.965703 1_545
As1 Cs3 4.128328 1_555
As1 Cs1 4.155479 1_555
As2 Si3 2.379838 1_555
As2 Si1 2.396631 1_655
As2 Zn1 2.564411 1_655
As2 Cs1 3.508225 1_555
As2 Cs3 3.551547 1_555
As2 Cs0 3.640461 1_555
As3 Si2 2.379838 1_555
As3 Si0 2.396631 1_455
As3 Zn0 2.564411 1_455
As3 Cs0 3.508225 1_555
As3 Cs2 3.551547 1_555
As3 Cs1 3.640461 1_555
As4 Si3 2.378030 1_556
As4 Zn2 2.452349 1_556
As4 Zn0 2.502770 1_555
As4 Cs1 3.660842 1_565
As4 Cs3 3.766497 1_566
As4 Cs2 3.813543 1_555
As4 Cs0 3.841346 1_556
As5 Si2 2.378030 1_554
As5 Zn3 2.452349 1_554
As5 Zn1 2.502770 1_555
As5 Cs0 3.660842 1_545
As5 Cs2 3.766497 1_544
As5 Cs3 3.813543 1_555
As5 Cs1 3.841346 1_554
As6 Si0 2.372582 1_555
As6 Si3 2.394253 1_556
As6 Zn3 2.522931 1_655
As6 Cs3 3.576859 1_556
As6 Cs2 3.591224 1_555
As6 Cs1 3.717436 1_555
As7 Si1 2.372582 1_555
As7 Si2 2.394253 1_554
As7 Zn2 2.522931 1_455
As7 Cs2 3.576859 1_554
As7 Cs3 3.591224 1_555
As7 Cs0 3.717436 1_555
