# generated using pymatgen
data_LiTaMoN3
_symmetry_space_group_name_H-M   'P 1'
_cell_length_a   5.07756750
_cell_length_b   5.07756674
_cell_length_c   10.33650270
_cell_angle_alpha   90.00000000
_cell_angle_beta   90.00000000
_cell_angle_gamma   120.15945839
_symmetry_Int_Tables_number   1
_chemical_formula_structural   LiTaMoN3
_chemical_formula_sum   'Li4 Ta4 Mo4 N12'
_cell_volume   230.41753571
_cell_formula_units_Z   4
loop_
 _symmetry_equiv_pos_site_id
 _symmetry_equiv_pos_as_xyz
  1  'x, y, z'
loop_
 _atom_site_type_symbol
 _atom_site_label
 _atom_site_symmetry_multiplicity
 _atom_site_fract_x
 _atom_site_fract_y
 _atom_site_fract_z
 _atom_site_occupancy
  Li  Li0  1  0.33435752  0.66564248  0.00000000  1
  Li  Li1  1  0.33435752  0.66564248  0.50000000  1
  Li  Li2  1  0.66641273  0.33358727  0.50000000  1
  Li  Li3  1  0.66641273  0.33358727  0.00000000  1
  Ta  Ta0  1  0.00002543  0.99997457  0.50000000  1
  Ta  Ta1  1  0.00002543  0.99997457  0.00000000  1
  Ta  Ta2  1  0.33920068  0.99984020  0.25000000  1
  Ta  Ta3  1  0.00015980  0.66079932  0.75000000  1
  Mo  Mo0  1  0.00020363  0.33862039  0.25000000  1
  Mo  Mo1  1  0.66137961  0.99979637  0.75000000  1
  Mo  Mo2  1  0.33862772  0.33837501  0.75000000  1
  Mo  Mo3  1  0.66162499  0.66137228  0.25000000  1
  N  N0  1  0.67283475  0.67404975  0.62373794  1
  N  N1  1  0.67283475  0.67404975  0.87626206  1
  N  N2  1  0.32595025  0.32716525  0.12373794  1
  N  N3  1  0.32595025  0.32716525  0.37626206  1
  N  N4  1  0.32738993  0.00121639  0.87610554  1
  N  N5  1  0.32738993  0.00121639  0.62389446  1
  N  N6  1  0.99878361  0.67261007  0.37610554  1
  N  N7  1  0.99878361  0.67261007  0.12389446  1
  N  N8  1  0.67360925  0.99996218  0.12367420  1
  N  N9  1  0.67360925  0.99996218  0.37632580  1
  N  N10  1  0.00003782  0.32639075  0.87632580  1
  N  N11  1  0.00003782  0.32639075  0.62367420  1
loop_
_geom_bond_atom_site_label_1
_geom_bond_atom_site_label_2
_geom_bond_distance
_geom_bond_site_symmetry_2
Li0 N2 2.125492 1_555
Li0 N1 2.125492 1_554
Li0 N10 2.131869 1_554
Li0 N8 2.131869 1_555
Li0 N4 2.145955 1_564
Li0 N7 2.145955 1_455
Li1 N3 2.125492 1_555
Li1 N0 2.125492 1_555
Li1 N11 2.131869 1_555
Li1 N9 2.131869 1_555
Li1 N5 2.145955 1_565
Li1 N6 2.145955 1_455
Li2 N6 2.128917 1_555
Li2 N5 2.128917 1_555
Li2 N9 2.137144 1_545
Li2 N11 2.137144 1_655
Li2 N0 2.137471 1_555
Li2 N3 2.137471 1_555
Li3 N7 2.128917 1_555
Li3 N4 2.128917 1_554
Li3 N8 2.137144 1_545
Li3 N10 2.137144 1_654
Li3 N1 2.137471 1_554
Li3 N2 2.137471 1_555
Mo0 N2 2.130510 1_555
Mo0 N3 2.130510 1_555
Mo0 N9 2.132276 1_445
Mo0 N8 2.132276 1_445
Mo0 N6 2.141810 1_455
Mo0 N7 2.141810 1_455
Mo1 N0 2.130510 1_555
Mo1 N1 2.130510 1_555
Mo1 N10 2.132276 1_665
Mo1 N11 2.132276 1_665
Mo1 N4 2.141810 1_565
Mo1 N5 2.141810 1_565
Mo2 N4 2.129541 1_555
Mo2 N5 2.129541 1_555
Mo2 N10 2.135253 1_555
Mo2 N11 2.135253 1_555
Mo2 N0 2.140502 1_555
Mo2 N1 2.140502 1_555
Mo3 N6 2.129541 1_555
Mo3 N7 2.129541 1_555
Mo3 N9 2.135253 1_555
Mo3 N8 2.135253 1_555
Mo3 N2 2.140502 1_555
Mo3 N3 2.140502 1_555
N0 Ta0 2.090941 1_655
N0 Ta3 2.140674 1_655
N1 Ta1 2.090941 1_656
N1 Ta3 2.140674 1_655
N2 Ta1 2.090941 1_545
N2 Ta2 2.140674 1_545
N3 Ta0 2.090941 1_545
N3 Ta2 2.140674 1_545
N4 Ta1 2.095828 1_546
N4 Ta3 2.135809 1_545
N5 Ta0 2.095828 1_545
N5 Ta3 2.135809 1_545
N6 Ta0 2.095828 1_655
N6 Ta2 2.135809 1_655
N7 Ta1 2.095828 1_655
N7 Ta2 2.135809 1_655
N8 Ta1 2.093101 1_655
N8 Ta2 2.141755 1_555
N9 Ta0 2.093101 1_655
N9 Ta2 2.141755 1_555
N10 Ta1 2.093101 1_546
N10 Ta3 2.141755 1_555
N11 Ta0 2.093101 1_545
N11 Ta3 2.141755 1_555
