# generated using pymatgen
data_MgNb8SnSe16
_symmetry_space_group_name_H-M   'P 1'
_cell_length_a   7.02284815
_cell_length_b   7.02285039
_cell_length_c   14.22812462
_cell_angle_alpha   90.00000000
_cell_angle_beta   90.00000000
_cell_angle_gamma   119.99999886
_symmetry_Int_Tables_number   1
_chemical_formula_structural   MgNb8SnSe16
_chemical_formula_sum   'Mg1 Nb8 Sn1 Se16'
_cell_volume   607.72204613
_cell_formula_units_Z   1
loop_
 _symmetry_equiv_pos_site_id
 _symmetry_equiv_pos_as_xyz
  1  'x, y, z'
loop_
 _atom_site_type_symbol
 _atom_site_label
 _atom_site_symmetry_multiplicity
 _atom_site_fract_x
 _atom_site_fract_y
 _atom_site_fract_z
 _atom_site_occupancy
  Mg  Mg0  1  0.00000000  0.00000000  0.00000000  1
  Nb  Nb0  1  0.00000000  0.00000000  0.23626069  1
  Nb  Nb1  1  0.00000000  0.00000000  0.76373931  1
  Nb  Nb2  1  0.51047010  0.02094120  0.23627850  1
  Nb  Nb3  1  0.97905880  0.48952990  0.23627850  1
  Nb  Nb4  1  0.51047010  0.48952990  0.23627850  1
  Nb  Nb5  1  0.48952990  0.97905880  0.76372150  1
  Nb  Nb6  1  0.02094120  0.51047010  0.76372150  1
  Nb  Nb7  1  0.48952990  0.51047010  0.76372150  1
  Sn  Sn0  1  0.00000000  0.00000000  0.50000000  1
  Se  Se0  1  0.33333300  0.66666700  0.88596443  1
  Se  Se1  1  0.66666700  0.33333300  0.11403557  1
  Se  Se2  1  0.66666700  0.33333300  0.35911465  1
  Se  Se3  1  0.33333300  0.66666700  0.64088535  1
  Se  Se4  1  0.16880914  0.83119086  0.35074343  1
  Se  Se5  1  0.16880914  0.33761828  0.35074343  1
  Se  Se6  1  0.66238172  0.83119086  0.35074343  1
  Se  Se7  1  0.83119086  0.16880914  0.64925657  1
  Se  Se8  1  0.83119086  0.66238172  0.64925657  1
  Se  Se9  1  0.33761828  0.16880914  0.64925657  1
  Se  Se10  1  0.83083371  0.16916629  0.87883961  1
  Se  Se11  1  0.83083371  0.66166842  0.87883961  1
  Se  Se12  1  0.33833158  0.16916629  0.87883961  1
  Se  Se13  1  0.16916629  0.83083371  0.12116039  1
  Se  Se14  1  0.16916629  0.33833158  0.12116039  1
  Se  Se15  1  0.66166842  0.83083371  0.12116039  1
loop_
_geom_bond_atom_site_label_1
_geom_bond_atom_site_label_2
_geom_bond_distance
_geom_bond_site_symmetry_2
Mg0 Se15 2.684398 1_445
Mg0 Se12 2.684398 1_554
Mg0 Se14 2.684399 1_555
Mg0 Se11 2.684399 1_444
Mg0 Se13 2.684403 1_545
Mg0 Se10 2.684403 1_454
Nb0 Se6 2.620995 1_445
Nb0 Se4 2.620995 1_545
Nb0 Se5 2.620995 1_555
Nb0 Se15 2.629857 1_445
Nb0 Se14 2.629858 1_555
Nb0 Se13 2.629862 1_545
Nb1 Se9 2.620995 1_555
Nb1 Se7 2.620995 1_455
Nb1 Se8 2.620995 1_445
Nb1 Se12 2.629857 1_555
Nb1 Se11 2.629858 1_445
Nb1 Se10 2.629862 1_455
Nb2 Se1 2.575841 1_555
Nb2 Se2 2.581548 1_555
Nb2 Se4 2.643487 1_545
Nb2 Se6 2.643491 1_545
Nb2 Se13 2.647710 1_545
Nb2 Se15 2.647720 1_545
Nb3 Se1 2.575840 1_555
Nb3 Se2 2.581547 1_555
Nb3 Se4 2.643487 1_655
Nb3 Se5 2.643491 1_655
Nb3 Se13 2.647711 1_655
Nb3 Se14 2.647720 1_655
Nb4 Se1 2.575850 1_555
Nb4 Se2 2.581556 1_555
Nb4 Se5 2.643486 1_555
Nb4 Se6 2.643487 1_555
Nb4 Se14 2.647710 1_555
Nb4 Se15 2.647710 1_555
Nb5 Se0 2.575841 1_555
Nb5 Se3 2.581548 1_555
Nb5 Se7 2.643487 1_565
Nb5 Se9 2.643491 1_565
Nb5 Se10 2.647710 1_565
Nb5 Se12 2.647720 1_565
Nb6 Se0 2.575840 1_555
Nb6 Se3 2.581547 1_555
Nb6 Se7 2.643487 1_455
Nb6 Se8 2.643491 1_455
Nb6 Se10 2.647711 1_455
Nb6 Se11 2.647720 1_455
Nb7 Se0 2.575850 1_555
Nb7 Se3 2.581556 1_555
Nb7 Se8 2.643486 1_555
Nb7 Se9 2.643487 1_555
Nb7 Se11 2.647710 1_555
Nb7 Se12 2.647710 1_555
Se4 Sn0 2.954020 1_565
Se5 Sn0 2.954020 1_555
Se6 Sn0 2.954020 1_665
Se7 Sn0 2.954020 1_655
Se8 Sn0 2.954020 1_665
Se9 Sn0 2.954020 1_555
