# generated using pymatgen
data_K3NaH6Os
_symmetry_space_group_name_H-M   'P 1'
_cell_length_a   7.00548032
_cell_length_b   7.00548158
_cell_length_c   7.00548136
_cell_angle_alpha   92.68883158
_cell_angle_beta   92.68883157
_cell_angle_gamma   92.68880699
_symmetry_Int_Tables_number   1
_chemical_formula_structural   K3NaH6Os
_chemical_formula_sum   'K6 Na2 H12 Os2'
_cell_volume   342.63393677
_cell_formula_units_Z   2
loop_
 _symmetry_equiv_pos_site_id
 _symmetry_equiv_pos_as_xyz
  1  'x, y, z'
loop_
 _atom_site_type_symbol
 _atom_site_label
 _atom_site_symmetry_multiplicity
 _atom_site_fract_x
 _atom_site_fract_y
 _atom_site_fract_z
 _atom_site_occupancy
  K  K0  1  0.89425477  0.60574523  0.25000000  1
  K  K1  1  0.25000000  0.89425477  0.60574523  1
  K  K2  1  0.60574523  0.25000000  0.89425477  1
  K  K3  1  0.75000000  0.10574523  0.39425477  1
  K  K4  1  0.39425477  0.75000000  0.10574523  1
  K  K5  1  0.10574523  0.39425477  0.75000000  1
  Na  Na0  1  0.25000000  0.25000000  0.25000000  1
  Na  Na1  1  0.75000000  0.75000000  0.75000000  1
  H  H0  1  0.26465501  0.54484517  0.42698754  1
  H  H1  1  0.42698754  0.26465501  0.54484517  1
  H  H2  1  0.54484517  0.42698754  0.26465501  1
  H  H3  1  0.92698754  0.04484517  0.76465501  1
  H  H4  1  0.76465501  0.92698754  0.04484517  1
  H  H5  1  0.04484517  0.76465501  0.92698754  1
  H  H6  1  0.73534499  0.45515483  0.57301246  1
  H  H7  1  0.57301246  0.73534499  0.45515483  1
  H  H8  1  0.45515483  0.57301246  0.73534499  1
  H  H9  1  0.07301246  0.95515483  0.23534499  1
  H  H10  1  0.23534499  0.07301246  0.95515483  1
  H  H11  1  0.95515483  0.23534499  0.07301246  1
  Os  Os0  1  0.50000000  0.50000000  0.50000000  1
  Os  Os1  1  0.00000000  0.00000000  0.00000000  1
loop_
_geom_bond_atom_site_label_1
_geom_bond_atom_site_label_2
_geom_bond_distance
_geom_bond_site_symmetry_2
H0 Os0 1.750170 1_555
H0 Na0 2.354177 1_555
H0 K1 2.705261 1_555
H0 K5 2.796946 1_555
H0 K0 2.881686 1_455
H0 K4 2.885682 1_555
H1 Os0 1.750171 1_555
H1 Na0 2.354177 1_555
H1 K2 2.705261 1_555
H1 K3 2.796945 1_555
H1 K1 2.881687 1_545
H1 K5 2.885681 1_555
H2 Os0 1.750171 1_555
H2 Na0 2.354178 1_555
H2 K0 2.705261 1_555
H2 K4 2.796945 1_555
H2 K2 2.881687 1_554
H2 K3 2.885681 1_555
H3 Os1 1.750171 1_656
H3 Na1 2.354178 1_545
H3 K5 2.705261 1_655
H3 K1 2.796945 1_645
H3 K3 2.881687 1_555
H3 K2 2.885681 1_555
H4 Os1 1.750171 1_665
H4 Na1 2.354177 1_554
H4 K3 2.705261 1_565
H4 K2 2.796945 1_564
H4 K4 2.881687 1_555
H4 K0 2.885681 1_555
H5 Os1 1.750171 1_566
H5 Na1 2.354177 1_455
H5 K4 2.705260 1_556
H5 K0 2.796946 1_456
H5 K5 2.881687 1_555
H5 K1 2.885682 1_555
H6 Os0 1.750170 1_555
H6 Na1 2.354177 1_555
H6 K3 2.705261 1_555
H6 K0 2.796946 1_555
H6 K5 2.881686 1_655
H6 K2 2.885682 1_555
H7 Os0 1.750171 1_555
H7 Na1 2.354177 1_555
H7 K4 2.705261 1_555
H7 K1 2.796945 1_555
H7 K3 2.881687 1_565
H7 K0 2.885681 1_555
H8 Os0 1.750171 1_555
H8 Na1 2.354178 1_555
H8 K5 2.705261 1_555
H8 K2 2.796945 1_555
H8 K4 2.881687 1_556
H8 K1 2.885681 1_555
H9 Os1 1.750171 1_565
H9 Na0 2.354178 1_565
H9 K0 2.705261 1_455
H9 K3 2.796945 1_465
H9 K1 2.881687 1_555
H9 K4 2.885681 1_555
H10 Os1 1.750171 1_556
H10 Na0 2.354177 1_556
H10 K1 2.705261 1_545
H10 K4 2.796945 1_546
H10 K2 2.881687 1_555
H10 K5 2.885681 1_555
H11 Os1 1.750171 1_655
H11 Na0 2.354177 1_655
H11 K2 2.705260 1_554
H11 K5 2.796946 1_654
H11 K0 2.881687 1_555
H11 K3 2.885682 1_555
