# generated using pymatgen
data_Rb6Si2Se6O
_symmetry_space_group_name_H-M   'P 1'
_cell_length_a   12.65244032
_cell_length_b   9.05123909
_cell_length_c   9.26129460
_cell_angle_alpha   67.66002052
_cell_angle_beta   90.00000000
_cell_angle_gamma   90.00000000
_symmetry_Int_Tables_number   1
_chemical_formula_structural   Rb6Si2Se6O
_chemical_formula_sum   'Rb12 Si4 Se12 O2'
_cell_volume   981.00181566
_cell_formula_units_Z   2
loop_
 _symmetry_equiv_pos_site_id
 _symmetry_equiv_pos_as_xyz
  1  'x, y, z'
loop_
 _atom_site_type_symbol
 _atom_site_label
 _atom_site_symmetry_multiplicity
 _atom_site_fract_x
 _atom_site_fract_y
 _atom_site_fract_z
 _atom_site_occupancy
  Rb  Rb0  1  0.33160132  0.99214792  0.00311697  1
  Rb  Rb1  1  0.22252353  0.70448320  0.44927729  1
  Rb  Rb2  1  0.56041235  0.27865076  0.22946407  1
  Rb  Rb3  1  0.83160132  0.50785208  0.99688303  1
  Rb  Rb4  1  0.43958765  0.72134924  0.77053593  1
  Rb  Rb5  1  0.77747647  0.29551680  0.55072271  1
  Rb  Rb6  1  0.06041235  0.22134924  0.77053593  1
  Rb  Rb7  1  0.93958765  0.77865076  0.22946407  1
  Rb  Rb8  1  0.27747647  0.20448320  0.44927729  1
  Rb  Rb9  1  0.72252353  0.79551680  0.55072271  1
  Rb  Rb10  1  0.66839868  0.00785208  0.99688303  1
  Rb  Rb11  1  0.16839868  0.49214792  0.00311697  1
  Si  Si0  1  0.48986346  0.35977894  0.67466174  1
  Si  Si1  1  0.98986346  0.14022106  0.32533826  1
  Si  Si2  1  0.51013654  0.64022106  0.32533826  1
  Si  Si3  1  0.01013654  0.85977894  0.67466174  1
  Se  Se0  1  0.98104062  0.61996537  0.65563784  1
  Se  Se1  1  0.88325440  0.91346472  0.82180895  1
  Se  Se2  1  0.82253661  0.12246534  0.24491866  1
  Se  Se3  1  0.61674560  0.41346472  0.82180895  1
  Se  Se4  1  0.32253661  0.37753466  0.75508134  1
  Se  Se5  1  0.11674560  0.08653528  0.17819105  1
  Se  Se6  1  0.48104062  0.88003463  0.34436216  1
  Se  Se7  1  0.38325440  0.58653528  0.17819105  1
  Se  Se8  1  0.01895938  0.38003463  0.34436216  1
  Se  Se9  1  0.67746339  0.62246534  0.24491866  1
  Se  Se10  1  0.51895938  0.11996537  0.65563784  1
  Se  Se11  1  0.17746339  0.87753466  0.75508134  1
  O  O0  1  0.50000000  0.50000000  0.50000000  1
  O  O1  1  0.00000000  0.00000000  0.50000000  1
loop_
_geom_bond_atom_site_label_1
_geom_bond_atom_site_label_2
_geom_bond_distance
_geom_bond_site_symmetry_2
Rb0 Se4 3.371387 1_564
Rb0 Se5 3.435382 1_565
Rb0 Se11 3.459471 1_554
Rb0 Se7 3.465438 1_555
Rb0 Se6 3.486362 1_555
Rb0 Se10 3.805760 1_564
Rb1 Se4 3.465302 1_555
Rb1 Se0 3.530082 1_455
Rb1 Se6 3.604693 1_555
Rb1 Se5 3.667762 1_565
Rb1 Se7 3.690001 1_555
Rb1 Se11 3.764541 1_555
Rb2 Se7 3.465494 1_555
Rb2 Se9 3.498087 1_555
Rb2 Se6 3.498522 1_545
Rb2 Se3 3.570514 1_554
Rb2 Se2 3.586695 1_555
Rb2 Se10 3.688720 1_555
Rb3 Se2 3.371387 1_556
Rb3 Se3 3.435382 1_555
Rb3 Se9 3.459471 1_556
Rb3 Se1 3.465438 1_555
Rb3 Se0 3.486362 1_555
Rb3 Se8 3.805760 1_656
Rb4 Se3 3.465494 1_555
Rb4 Se4 3.498087 1_555
Rb4 Se10 3.498522 1_565
Rb4 Se7 3.570514 1_556
Rb4 Se11 3.586695 1_555
Rb4 Se6 3.688720 1_555
Rb5 Se9 3.465302 1_555
Rb5 Se8 3.530082 1_655
Rb5 Se10 3.604693 1_555
Rb5 Se1 3.667762 1_545
Rb5 Se3 3.690001 1_555
Rb5 Se2 3.764541 1_555
Rb6 Se1 3.465494 1_445
Rb6 Se11 3.498087 1_545
Rb6 Se0 3.498522 1_455
Rb6 Se5 3.570514 1_556
Rb6 Se4 3.586695 1_555
Rb6 Se8 3.688720 1_555
Rb7 Se5 3.465494 1_665
Rb7 Se2 3.498087 1_565
Rb7 Se8 3.498522 1_655
Rb7 Se1 3.570514 1_554
Rb7 Se9 3.586695 1_555
Rb7 Se0 3.688720 1_555
Rb8 Se11 3.465302 1_545
Rb8 Se10 3.530082 1_555
Rb8 Se8 3.604693 1_555
Rb8 Se7 3.667762 1_555
Rb8 Se5 3.690001 1_555
Rb8 Se4 3.764541 1_555
Rb9 Se2 3.465302 1_565
Rb9 Se6 3.530082 1_555
Rb9 Se0 3.604693 1_555
Rb9 Se3 3.667762 1_555
Rb9 Se1 3.690001 1_555
Rb9 Se9 3.764541 1_555
Rb10 Se9 3.371387 1_546
Rb10 Se1 3.435382 1_545
Rb10 Se2 3.459471 1_556
Rb10 Se3 3.465438 1_555
Rb10 Se10 3.486362 1_555
Rb10 Se6 3.805760 1_546
Rb11 Se11 3.371387 1_554
Rb11 Se7 3.435382 1_555
Rb11 Se4 3.459471 1_554
Rb11 Se5 3.465438 1_555
Rb11 Se8 3.486362 1_555
Rb11 Se0 3.805760 1_454
Se0 Si3 2.273508 1_655
Se1 Si3 2.274619 1_655
Se2 Si1 2.270158 1_555
Se3 Si0 2.274619 1_555
Se4 Si0 2.270158 1_555
Se5 Si1 2.274619 1_455
Se6 Si2 2.273508 1_555
Se7 Si2 2.274619 1_555
Se8 Si1 2.273508 1_455
Se9 Si2 2.270158 1_555
Se10 Si0 2.273508 1_555
Se11 Si3 2.270158 1_555
O0 Si0 1.638035 1_555
O0 Si2 1.638035 1_555
O1 Si3 1.638035 1_545
O1 Si1 1.638035 1_455
