# generated using pymatgen
data_Zr6Zn22SiAg
_symmetry_space_group_name_H-M   'P 1'
_cell_length_a   8.69933053
_cell_length_b   8.69715536
_cell_length_c   8.69444243
_cell_angle_alpha   60.01031815
_cell_angle_beta   60.01858558
_cell_angle_gamma   60.02485473
_symmetry_Int_Tables_number   1
_chemical_formula_structural   Zr6Zn22SiAg
_chemical_formula_sum   'Zr6 Zn22 Si1 Ag1'
_cell_volume   465.33548694
_cell_formula_units_Z   1
loop_
 _symmetry_equiv_pos_site_id
 _symmetry_equiv_pos_as_xyz
  1  'x, y, z'
loop_
 _atom_site_type_symbol
 _atom_site_label
 _atom_site_symmetry_multiplicity
 _atom_site_fract_x
 _atom_site_fract_y
 _atom_site_fract_z
 _atom_site_occupancy
  Zr  Zr0  1  0.71205135  0.28795791  0.28794388  1
  Zr  Zr1  1  0.28794865  0.71204209  0.71205612  1
  Zr  Zr2  1  0.28794865  0.71204209  0.28795314  1
  Zr  Zr3  1  0.71205135  0.28795791  0.71204686  1
  Zr  Zr4  1  0.28791545  0.28799308  0.71204574  1
  Zr  Zr5  1  0.71208455  0.71200692  0.28795426  1
  Zn  Zn0  1  0.12541106  0.12541911  0.12538926  1
  Zn  Zn1  1  0.87458894  0.87458089  0.87461074  1
  Zn  Zn2  1  0.12541106  0.12541911  0.62378057  1
  Zn  Zn3  1  0.12539479  0.62380518  0.12540002  1
  Zn  Zn4  1  0.87458894  0.87458089  0.37621943  1
  Zn  Zn5  1  0.87460521  0.37619482  0.87459998  1
  Zn  Zn6  1  0.62377233  0.12542272  0.12540248  1
  Zn  Zn7  1  0.37622767  0.87457728  0.87459752  1
  Zn  Zn8  1  0.50000000  0.00000000  0.00000000  1
  Zn  Zn9  1  0.00000000  0.50000000  0.50000000  1
  Zn  Zn10  1  0.00000000  0.50000000  0.00000000  1
  Zn  Zn11  1  0.50000000  0.00000000  0.50000000  1
  Zn  Zn12  1  0.00000000  0.00000000  0.50000000  1
  Zn  Zn13  1  0.50000000  0.50000000  0.00000000  1
  Zn  Zn14  1  0.33508483  0.33506942  0.33509155  1
  Zn  Zn15  1  0.66491517  0.66493058  0.66490845  1
  Zn  Zn16  1  0.33508483  0.33506942  0.99475420  1
  Zn  Zn17  1  0.33504692  0.99481076  0.33507116  1
  Zn  Zn18  1  0.66491517  0.66493058  0.00524580  1
  Zn  Zn19  1  0.66495308  0.00518924  0.66492884  1
  Zn  Zn20  1  0.99481061  0.33504855  0.33507042  1
  Zn  Zn21  1  0.00518939  0.66495145  0.66492958  1
  Si  Si0  1  0.50000000  0.50000000  0.50000000  1
  Ag  Ag0  1  0.00000000  0.00000000  0.00000000  1
loop_
_geom_bond_atom_site_label_1
_geom_bond_atom_site_label_2
_geom_bond_distance
_geom_bond_site_symmetry_2
Zn0 Zn12 2.659786 1_555
Zn0 Zn10 2.660570 1_555
Zn0 Zn8 2.661513 1_555
Zn0 Zn20 2.668551 1_455
Zn0 Zn17 2.668775 1_545
Zn0 Zn16 2.669121 1_554
Zn0 Zr4 2.958542 1_554
Zn0 Zr2 2.959784 1_545
Zn0 Zr0 2.960588 1_455
Zn1 Zn12 2.659786 1_665
Zn1 Zn10 2.660570 1_656
Zn1 Zn8 2.661513 1_566
Zn1 Zn21 2.668551 1_655
Zn1 Zn19 2.668775 1_565
Zn1 Zn18 2.669121 1_556
Zn1 Zr5 2.958542 1_556
Zn1 Zr3 2.959784 1_565
Zn1 Zr1 2.960588 1_655
Zn2 Zn9 2.660570 1_555
Zn2 Zn20 2.668551 1_455
Zn2 Zr4 2.958542 1_555
Zn2 Zr1 2.959784 1_545
Zn2 Zr3 2.960588 1_455
Zn3 Zn9 2.659705 1_555
Zn3 Zr1 2.958404 1_554
Zn3 Zr2 2.958404 1_555
Zn3 Zr5 2.960185 1_455
Zn4 Zn9 2.660570 1_655
Zn4 Zr5 2.958542 1_555
Zn4 Zr0 2.959784 1_565
Zn4 Zr2 2.960588 1_655
Zn5 Zn9 2.659705 1_655
Zn5 Zr0 2.958404 1_556
Zn5 Zr3 2.958404 1_555
Zn5 Zr4 2.960185 1_655
Zn6 Zn8 2.659685 1_555
Zn6 Zr3 2.958331 1_554
Zn6 Zr0 2.958331 1_555
Zn6 Zr5 2.959815 1_545
Zn7 Zn8 2.659685 1_566
Zn7 Zr2 2.958331 1_556
Zn7 Zr1 2.958331 1_555
Zn7 Zr4 2.959815 1_565
Zn8 Zr3 3.110557 1_554
Zn8 Zr2 3.110557 1_545
Zn8 Zr5 3.110562 1_545
Zn8 Zr4 3.110562 1_554
Zn9 Zr4 3.110320 1_555
Zn9 Zr5 3.110320 1_455
Zn9 Zr2 3.110675 1_555
Zn9 Zr3 3.110675 1_455
Zn10 Zn20 2.510452 1_455
Zn10 Zn21 2.510452 1_554
Zn10 Zn16 2.512222 1_554
Zn10 Zn18 2.512222 1_455
Zn10 Zn3 2.659705 1_555
Zn10 Zn5 2.659705 1_454
Zn10 Zr5 3.110320 1_455
Zn10 Zr4 3.110320 1_554
Zn10 Zr1 3.110675 1_554
Zn10 Zr0 3.110675 1_455
Zn11 Zn19 2.510663 1_555
Zn11 Zn17 2.510663 1_545
Zn11 Zn14 2.511465 1_555
Zn11 Zn15 2.511465 1_545
Zn11 Zn7 2.659685 1_545
Zn11 Zn6 2.659685 1_555
Zn11 Zn4 2.661513 1_545
Zn11 Zn2 2.661513 1_555
Zn11 Zr0 3.110557 1_555
Zn11 Zr1 3.110557 1_545
Zn11 Zr4 3.110562 1_555
Zn11 Zr5 3.110562 1_545
Zn12 Zn20 2.511082 1_455
Zn12 Zn21 2.511082 1_545
Zn12 Zn17 2.511916 1_545
Zn12 Zn19 2.511916 1_455
Zn12 Zn2 2.659786 1_555
Zn12 Zn4 2.659786 1_445
Zn12 Zr1 3.110835 1_545
Zn12 Zr3 3.110835 1_455
Zn12 Zr2 3.110835 1_545
Zn12 Zr0 3.110835 1_455
Zn13 Zn14 2.510984 1_555
Zn13 Zn15 2.510984 1_554
Zn13 Zn18 2.510984 1_555
Zn13 Zn16 2.510984 1_554
Zn13 Zn7 2.660539 1_554
Zn13 Zn6 2.660539 1_555
Zn13 Zn5 2.661626 1_554
Zn13 Zn3 2.661626 1_555
Zn13 Zr0 3.110026 1_555
Zn13 Zr2 3.110026 1_555
Zn13 Zr3 3.110026 1_554
Zn13 Zr1 3.110026 1_554
Zn14 Zn9 2.512222 1_555
Zn14 Zn2 2.669121 1_555
Zn14 Zn6 2.669620 1_555
Zn14 Zn3 2.669670 1_555
Zn14 Zr4 2.925702 1_555
Zn14 Zr2 2.926868 1_555
Zn14 Zr0 2.927767 1_555
Zn14 Zn16 2.959043 1_554
Zn14 Zn17 2.959536 1_545
Zn14 Zn20 2.960340 1_455
Zn15 Zn9 2.512222 1_655
Zn15 Zn4 2.669121 1_555
Zn15 Zn7 2.669620 1_555
Zn15 Zn5 2.669670 1_555
Zn15 Zr5 2.925702 1_555
Zn15 Zr3 2.926868 1_555
Zn15 Zr1 2.927767 1_555
Zn15 Zn18 2.959043 1_556
Zn15 Zn19 2.959536 1_565
Zn15 Zn21 2.960340 1_655
Zn16 Zn8 2.511465 1_556
Zn16 Zn6 2.669620 1_556
Zn16 Zn3 2.669670 1_556
Zn16 Zr4 2.925702 1_555
Zn16 Zr1 2.926868 1_555
Zn16 Zr3 2.927767 1_555
Zn16 Zn17 2.959536 1_546
Zn16 Zn20 2.960340 1_456
Zn17 Zn8 2.510663 1_565
Zn17 Zn2 2.668775 1_565
Zn17 Zn6 2.669646 1_565
Zn17 Zr2 2.926698 1_555
Zn17 Zr1 2.926698 1_555
Zn17 Zr5 2.928936 1_555
Zn17 Zn20 2.960576 1_465
Zn18 Zn8 2.511465 1_565
Zn18 Zn7 2.669620 1_554
Zn18 Zn5 2.669670 1_554
Zn18 Zr5 2.925702 1_555
Zn18 Zr0 2.926868 1_555
Zn18 Zr2 2.927767 1_555
Zn18 Zn19 2.959536 1_564
Zn18 Zn21 2.960340 1_654
Zn19 Zn8 2.510663 1_556
Zn19 Zn4 2.668775 1_545
Zn19 Zn7 2.669646 1_545
Zn19 Zr3 2.926698 1_555
Zn19 Zr0 2.926698 1_555
Zn19 Zr4 2.928936 1_555
Zn19 Zn21 2.960576 1_645
Zn20 Zn9 2.510452 1_655
Zn20 Zn3 2.669262 1_655
Zn20 Zr0 2.927125 1_555
Zn20 Zr3 2.927125 1_555
Zn20 Zr5 2.927863 1_555
Zn21 Zn9 2.510452 1_555
Zn21 Zn4 2.668551 1_455
Zn21 Zn5 2.669262 1_455
Zn21 Zr1 2.927125 1_555
Zn21 Zr2 2.927125 1_555
Zn21 Zr4 2.927863 1_555
Si0 Zr3 2.608373 1_555
Si0 Zr1 2.608373 1_555
Si0 Zr0 2.608373 1_555
Si0 Zr2 2.608373 1_555
Si0 Zr5 2.608491 1_555
Si0 Zr4 2.608491 1_555
Ag0 Zn0 2.671192 1_555
Ag0 Zn1 2.671192 1_444
Ag0 Zn4 2.671192 1_445
Ag0 Zn2 2.671192 1_554
Ag0 Zn5 2.672019 1_454
Ag0 Zn3 2.672019 1_545
Ag0 Zn7 2.673143 1_544
Ag0 Zn6 2.673143 1_455
