# generated using pymatgen
data_RbV2Tc4Te7
_symmetry_space_group_name_H-M   'P 1'
_cell_length_a   10.18000651
_cell_length_b   10.21833520
_cell_length_c   10.19539258
_cell_angle_alpha   60.80189500
_cell_angle_beta   60.91775961
_cell_angle_gamma   60.72190439
_symmetry_Int_Tables_number   1
_chemical_formula_structural   RbV2Tc4Te7
_chemical_formula_sum   'Rb2 V4 Tc8 Te14'
_cell_volume   763.68420306
_cell_formula_units_Z   2
loop_
 _symmetry_equiv_pos_site_id
 _symmetry_equiv_pos_as_xyz
  1  'x, y, z'
loop_
 _atom_site_type_symbol
 _atom_site_label
 _atom_site_symmetry_multiplicity
 _atom_site_fract_x
 _atom_site_fract_y
 _atom_site_fract_z
 _atom_site_occupancy
  Rb  Rb0  1  0.62983360  0.61944149  0.62758885  1
  Rb  Rb1  1  0.37942991  0.37453640  0.37845253  1
  V  V0  1  0.81726343  0.09615654  0.94747663  1
  V  V1  1  0.04869234  0.18625789  0.90529421  1
  V  V2  1  0.90266842  0.05570065  0.18227549  1
  V  V3  1  0.18634591  0.90130540  0.05214732  1
  Tc  Tc0  1  0.71355686  0.87834351  0.00872806  1
  Tc  Tc1  1  0.00576056  0.71653272  0.87651630  1
  Tc  Tc2  1  0.87529269  0.00982505  0.71413063  1
  Tc  Tc3  1  0.28261052  0.12430554  0.99016092  1
  Tc  Tc4  1  0.98882789  0.28838359  0.12139759  1
  Tc  Tc5  1  0.11960774  0.99453970  0.28383472  1
  Tc  Tc6  1  0.95012621  0.81109341  0.10762471  1
  Tc  Tc7  1  0.10773073  0.94790319  0.81118158  1
  Te  Te0  1  0.42364080  0.81358518  0.15900839  1
  Te  Te1  1  0.15407067  0.42744866  0.80944922  1
  Te  Te2  1  0.80839015  0.16141804  0.42413592  1
  Te  Te3  1  0.57436206  0.18919057  0.84282799  1
  Te  Te4  1  0.83963578  0.57785931  0.18856409  1
  Te  Te5  1  0.18728787  0.84079320  0.57507289  1
  Te  Te6  1  0.64309087  0.96535183  0.25360669  1
  Te  Te7  1  0.25061844  0.63850001  0.97011278  1
  Te  Te8  1  0.97783184  0.24629466  0.63727801  1
  Te  Te9  1  0.36390002  0.02479338  0.74433732  1
  Te  Te10  1  0.74281818  0.36184595  0.02870079  1
  Te  Te11  1  0.03062703  0.74291826  0.36188276  1
  Te  Te12  1  0.77455543  0.78267333  0.77854436  1
  Te  Te13  1  0.22142306  0.22300355  0.21966524  1
loop_
_geom_bond_atom_site_label_1
_geom_bond_atom_site_label_2
_geom_bond_distance
_geom_bond_site_symmetry_2
Rb0 Te8 3.722795 1_555
Rb0 Te6 3.723864 1_555
Rb0 Te7 3.736130 1_555
Rb0 Te12 3.799164 1_555
Rb0 Te10 4.010530 1_556
Rb0 Te3 4.034094 1_555
Rb0 Te4 4.056048 1_555
Rb0 Te11 4.066100 1_655
Rb0 Te9 4.075791 1_565
Rb0 Te5 4.110395 1_555
Rb1 Te10 3.684478 1_555
Rb1 Te9 3.699288 1_555
Rb1 Te11 3.700770 1_555
Rb1 Te13 3.875431 1_555
Rb1 Te2 3.964173 1_555
Rb1 Te1 4.021083 1_555
Rb1 Te0 4.066747 1_555
Rb1 Te8 4.095510 1_455
Rb1 Te6 4.147432 1_545
Rb1 Te7 4.149520 1_554
V0 V1 2.708024 1_655
V0 V2 2.713596 1_556
V1 V2 2.479378 1_456
V1 V3 2.545364 1_546
V2 V3 2.539715 1_645
Tc0 V0 2.599907 1_564
Tc0 Tc1 2.620158 1_654
Tc0 Tc2 2.637473 1_564
Tc0 Te12 2.660219 1_554
Tc0 Te6 2.709072 1_555
Tc0 Tc6 2.711925 1_555
Tc0 Te4 2.716096 1_555
Tc0 Te3 2.764743 1_564
Tc0 Te0 2.832127 1_555
Tc1 Tc2 2.624903 1_465
Tc1 Te12 2.658044 1_455
Tc1 Tc6 2.682359 1_456
Tc1 Tc7 2.702324 1_555
Tc1 Te7 2.717656 1_555
Tc1 Te5 2.727475 1_555
Tc1 Te4 2.775724 1_456
Tc1 Te1 2.842147 1_555
Tc2 V0 2.637950 1_555
Tc2 Te12 2.656456 1_545
Tc2 Tc7 2.679407 1_645
Tc2 Te8 2.714205 1_555
Tc2 Te3 2.722623 1_555
Tc2 Te5 2.779756 1_645
Tc2 Te2 2.839388 1_555
Tc3 V3 2.594077 1_546
Tc3 V1 2.610374 1_555
Tc3 Tc5 2.631578 1_546
Tc3 Tc4 2.634358 1_456
Tc3 Te13 2.674190 1_556
Tc3 Te1 2.740972 1_555
Tc3 Te9 2.765391 1_555
Tc3 Te0 2.777935 1_546
Tc3 Te3 2.852089 1_555
Tc4 V1 2.575012 1_654
Tc4 V2 2.622670 1_555
Tc4 Tc5 2.629185 1_645
Tc4 Te13 2.676290 1_655
Tc4 Te2 2.737953 1_555
Tc4 Te10 2.738344 1_555
Tc4 Te1 2.773412 1_654
Tc4 Te4 2.845397 1_555
Tc5 V2 2.565458 1_465
Tc5 V3 2.636550 1_555
Tc5 Te13 2.677618 1_565
Tc5 Te0 2.736279 1_555
Tc5 Te11 2.765082 1_555
Tc5 Te2 2.771548 1_465
Tc5 Te5 2.852764 1_555
Tc6 V0 2.575497 1_564
Tc6 Tc7 2.649642 1_654
Tc6 V3 2.699918 1_655
Tc6 V2 2.716164 1_565
Tc6 Te7 2.720281 1_654
Tc6 Te6 2.723411 1_555
Tc6 Te4 2.725234 1_555
Tc6 Te11 2.760714 1_655
Tc7 V0 2.578276 1_465
Tc7 Te8 2.692607 1_465
Tc7 V3 2.701867 1_556
Tc7 Te5 2.730719 1_555
Tc7 V1 2.738926 1_565
Tc7 Te7 2.744449 1_555
Tc7 Te9 2.763393 1_565
Te0 V3 2.704384 1_555
Te1 V1 2.719738 1_555
Te2 V2 2.729973 1_555
Te3 V0 2.726245 1_555
Te6 V0 2.745865 1_564
Te6 V2 2.868263 1_565
Te7 V3 2.877495 1_556
Te8 V0 2.778675 1_555
Te8 V1 2.865528 1_655
Te9 V3 2.749697 1_546
Te9 V1 2.838308 1_555
Te10 V1 2.725342 1_654
Te10 V2 2.757664 1_555
Te10 V0 2.863880 1_554
Te11 V3 2.785859 1_555
Te11 V2 2.793145 1_465
