# generated using pymatgen
data_K5Rb3(Sn2Se5)2
_symmetry_space_group_name_H-M   'P 1'
_cell_length_a   7.95880791
_cell_length_b   9.17226181
_cell_length_c   11.86380182
_cell_angle_alpha   73.52905381
_cell_angle_beta   70.14605231
_cell_angle_gamma   80.58725916
_symmetry_Int_Tables_number   1
_chemical_formula_structural   K5Rb3(Sn2Se5)2
_chemical_formula_sum   'K5 Rb3 Sn4 Se10'
_cell_volume   778.98132862
_cell_formula_units_Z   1
loop_
 _symmetry_equiv_pos_site_id
 _symmetry_equiv_pos_as_xyz
  1  'x, y, z'
loop_
 _atom_site_type_symbol
 _atom_site_label
 _atom_site_symmetry_multiplicity
 _atom_site_fract_x
 _atom_site_fract_y
 _atom_site_fract_z
 _atom_site_occupancy
  K  K0  1  0.91986097  0.51506978  0.68729360  1
  K  K1  1  0.08013903  0.48493022  0.31270640  1
  K  K2  1  0.50000000  0.50000000  0.50000000  1
  K  K3  1  0.27237621  0.51056073  0.90132998  1
  K  K4  1  0.72762379  0.48943927  0.09867002  1
  Rb  Rb0  1  0.20426537  0.00130979  0.59291986  1
  Rb  Rb1  1  0.79573463  0.99869021  0.40708014  1
  Rb  Rb2  1  0.00000000  0.00000000  0.00000000  1
  Sn  Sn0  1  0.42959556  0.83572907  0.22676749  1
  Sn  Sn1  1  0.57040444  0.16427093  0.77323251  1
  Sn  Sn2  1  0.38039710  0.15911539  0.16238859  1
  Sn  Sn3  1  0.61960290  0.84088461  0.83761141  1
  Se  Se0  1  0.07068133  0.25123783  0.15073854  1
  Se  Se1  1  0.92931867  0.74876217  0.84926146  1
  Se  Se2  1  0.62416924  0.26315445  0.94717500  1
  Se  Se3  1  0.37583076  0.73684555  0.05282500  1
  Se  Se4  1  0.82245987  0.25710233  0.58017534  1
  Se  Se5  1  0.17754013  0.74289767  0.41982466  1
  Se  Se6  1  0.54805092  0.74507060  0.68216982  1
  Se  Se7  1  0.45194908  0.25492940  0.31783018  1
  Se  Se8  1  0.26810375  0.25940620  0.74827272  1
  Se  Se9  1  0.73189625  0.74059380  0.25172728  1
loop_
_geom_bond_atom_site_label_1
_geom_bond_atom_site_label_2
_geom_bond_distance
_geom_bond_site_symmetry_2
K0 Se1 3.283171 1_555
K0 Se4 3.284634 1_555
K0 Se6 3.349389 1_555
K0 Se5 3.444296 1_655
K0 Se8 3.460962 1_655
K0 Se2 3.632309 1_555
K1 Se0 3.283171 1_555
K1 Se5 3.284634 1_555
K1 Se7 3.349389 1_555
K1 Se4 3.444296 1_455
K1 Se9 3.460962 1_455
K1 Se3 3.632309 1_555
K2 Se8 3.302386 1_555
K2 Se9 3.302386 1_555
K2 Se4 3.322798 1_555
K2 Se5 3.322798 1_555
K2 Se6 3.669797 1_555
K2 Se7 3.669797 1_555
K3 Se6 3.270828 1_555
K3 Se0 3.319843 1_556
K3 Se1 3.322488 1_455
K3 Se8 3.323382 1_555
K3 Se2 3.397187 1_555
K3 Se3 3.449008 1_556
K4 Se7 3.270828 1_555
K4 Se1 3.319843 1_554
K4 Se0 3.322488 1_655
K4 Se9 3.323382 1_555
K4 Se3 3.397187 1_555
K4 Se2 3.449008 1_554
Rb0 Se4 3.541221 1_455
Rb0 Se1 3.542039 1_445
Rb0 Se6 3.547487 1_545
Rb0 Se8 3.572529 1_555
Rb0 Se7 3.573999 1_555
Rb0 Se5 3.619674 1_545
Rb1 Se5 3.541221 1_655
Rb1 Se0 3.542039 1_665
Rb1 Se7 3.547487 1_565
Rb1 Se9 3.572529 1_555
Rb1 Se6 3.573999 1_555
Rb1 Se4 3.619674 1_565
Rb2 Se0 3.502736 1_555
Rb2 Se1 3.502736 1_444
Rb2 Se9 3.526464 1_445
Rb2 Se8 3.526464 1_554
Rb2 Se2 3.635912 1_454
Rb2 Se3 3.635912 1_545
Se0 Sn2 2.508598 1_555
Se1 Sn3 2.508598 1_555
Se2 Sn1 2.655624 1_555
Se2 Sn2 2.655757 1_556
Se3 Sn0 2.655624 1_555
Se3 Sn3 2.655757 1_554
Se4 Sn1 2.515371 1_555
Se5 Sn0 2.515371 1_555
Se6 Sn3 2.508683 1_555
Se7 Sn2 2.508683 1_555
Se8 Sn1 2.507674 1_555
Se9 Sn0 2.507674 1_555
