# generated using pymatgen
data_Sr6TcBiO12
_symmetry_space_group_name_H-M   'P 1'
_cell_length_a   6.93523670
_cell_length_b   6.93523725
_cell_length_c   6.93523692
_cell_angle_alpha   91.98481122
_cell_angle_beta   91.98480914
_cell_angle_gamma   91.98480112
_symmetry_Int_Tables_number   1
_chemical_formula_structural   Sr6TcBiO12
_chemical_formula_sum   'Sr6 Tc1 Bi1 O12'
_cell_volume   332.95301999
_cell_formula_units_Z   1
loop_
 _symmetry_equiv_pos_site_id
 _symmetry_equiv_pos_as_xyz
  1  'x, y, z'
loop_
 _atom_site_type_symbol
 _atom_site_label
 _atom_site_symmetry_multiplicity
 _atom_site_fract_x
 _atom_site_fract_y
 _atom_site_fract_z
 _atom_site_occupancy
  Sr  Sr0  1  0.06516064  0.25512554  0.56520023  1
  Sr  Sr1  1  0.43479977  0.93483936  0.74487446  1
  Sr  Sr2  1  0.74487446  0.43479977  0.93483936  1
  Sr  Sr3  1  0.25512554  0.56520023  0.06516064  1
  Sr  Sr4  1  0.56520023  0.06516064  0.25512554  1
  Sr  Sr5  1  0.93483936  0.74487446  0.43479977  1
  Tc  Tc0  1  0.50000000  0.50000000  0.50000000  1
  Bi  Bi0  1  0.00000000  0.00000000  0.00000000  1
  O  O0  1  0.06969751  0.29154627  0.92924957  1
  O  O1  1  0.07075043  0.93030249  0.70845373  1
  O  O2  1  0.45438283  0.56959519  0.75896182  1
  O  O3  1  0.70845373  0.07075043  0.93030249  1
  O  O4  1  0.24103818  0.54561717  0.43040481  1
  O  O5  1  0.43040481  0.24103818  0.54561717  1
  O  O6  1  0.56959519  0.75896182  0.45438283  1
  O  O7  1  0.75896182  0.45438283  0.56959519  1
  O  O8  1  0.29154627  0.92924957  0.06969751  1
  O  O9  1  0.54561717  0.43040481  0.24103818  1
  O  O10  1  0.92924957  0.06969751  0.29154627  1
  O  O11  1  0.93030249  0.70845373  0.07075043  1
loop_
_geom_bond_atom_site_label_1
_geom_bond_atom_site_label_2
_geom_bond_distance
_geom_bond_site_symmetry_2
Bi0 O8 2.140118 1_545
Bi0 O3 2.140118 1_454
Bi0 O10 2.140118 1_455
Bi0 O1 2.140118 1_544
Bi0 O0 2.140118 1_554
Bi0 O11 2.140118 1_445
O0 Sr3 2.401485 1_556
O0 Sr2 2.494337 1_455
O0 Sr0 2.527651 1_555
O1 Sr5 2.401485 1_455
O1 Sr0 2.494337 1_565
O1 Sr1 2.527651 1_555
O2 Tc0 1.883724 1_555
O2 Sr2 2.541588 1_555
O2 Sr1 2.546451 1_555
O2 Sr3 2.573892 1_556
O3 Sr1 2.401485 1_545
O3 Sr4 2.494337 1_556
O3 Sr2 2.527651 1_555
O4 Tc0 1.883724 1_555
O4 Sr0 2.541589 1_555
O4 Sr3 2.546451 1_555
O4 Sr5 2.573892 1_455
O5 Tc0 1.883724 1_555
O5 Sr4 2.541588 1_555
O5 Sr0 2.546450 1_555
O5 Sr1 2.573892 1_545
O6 Tc0 1.883724 1_555
O6 Sr1 2.541588 1_555
O6 Sr5 2.546450 1_555
O6 Sr4 2.573892 1_565
O7 Tc0 1.883724 1_555
O7 Sr5 2.541589 1_555
O7 Sr2 2.546451 1_555
O7 Sr0 2.573892 1_655
O8 Sr4 2.401485 1_565
O8 Sr1 2.494337 1_554
O8 Sr3 2.527651 1_555
O9 Tc0 1.883724 1_555
O9 Sr3 2.541588 1_555
O9 Sr4 2.546451 1_555
O9 Sr2 2.573892 1_554
O10 Sr0 2.401485 1_655
O10 Sr5 2.494337 1_545
O10 Sr4 2.527651 1_555
O11 Sr2 2.401485 1_554
O11 Sr3 2.494337 1_655
O11 Sr5 2.527651 1_555
