# generated using pymatgen
data_Na3Li2SnSb3
_symmetry_space_group_name_H-M   'P 1'
_cell_length_a   10.44212779
_cell_length_b   10.44212814
_cell_length_c   15.15234261
_cell_angle_alpha   90.00000000
_cell_angle_beta   90.00000000
_cell_angle_gamma   144.38270432
_symmetry_Int_Tables_number   1
_chemical_formula_structural   Na3Li2SnSb3
_chemical_formula_sum   'Na12 Li8 Sn4 Sb12'
_cell_volume   962.17839094
_cell_formula_units_Z   4
loop_
 _symmetry_equiv_pos_site_id
 _symmetry_equiv_pos_as_xyz
  1  'x, y, z'
loop_
 _atom_site_type_symbol
 _atom_site_label
 _atom_site_symmetry_multiplicity
 _atom_site_fract_x
 _atom_site_fract_y
 _atom_site_fract_z
 _atom_site_occupancy
  Na  Na0  1  0.58382828  0.92586679  0.82541702  1
  Na  Na1  1  0.26355264  0.26355264  0.32485037  1
  Na  Na2  1  0.23644736  0.23644736  0.82485037  1
  Na  Na3  1  0.73644736  0.73644736  0.67514963  1
  Na  Na4  1  0.42586679  0.08382828  0.67458298  1
  Na  Na5  1  0.91617172  0.57413321  0.32541702  1
  Na  Na6  1  0.07413321  0.41617172  0.17458298  1
  Na  Na7  1  0.41617172  0.07413321  0.17458298  1
  Na  Na8  1  0.57413321  0.91617172  0.32541702  1
  Na  Na9  1  0.08382828  0.42586679  0.67458298  1
  Na  Na10  1  0.92586679  0.58382828  0.82541702  1
  Na  Na11  1  0.76355264  0.76355264  0.17514963  1
  Li  Li0  1  0.08467916  0.91532084  0.00000000  1
  Li  Li1  1  0.58467916  0.41532084  0.50000000  1
  Li  Li2  1  0.91532084  0.08467916  0.00000000  1
  Li  Li3  1  0.75400775  0.24599225  0.00000000  1
  Li  Li4  1  0.74599225  0.25400775  0.50000000  1
  Li  Li5  1  0.24599225  0.75400775  0.00000000  1
  Li  Li6  1  0.25400775  0.74599225  0.50000000  1
  Li  Li7  1  0.41532084  0.58467916  0.50000000  1
  Sn  Sn0  1  0.09283851  0.90716149  0.50000000  1
  Sn  Sn1  1  0.40716149  0.59283851  0.00000000  1
  Sn  Sn2  1  0.90716149  0.09283851  0.50000000  1
  Sn  Sn3  1  0.59283851  0.40716149  0.00000000  1
  Sb  Sb0  1  0.08471721  0.41978572  0.38321735  1
  Sb  Sb1  1  0.91978572  0.58471721  0.11678265  1
  Sb  Sb2  1  0.41528279  0.08021428  0.88321735  1
  Sb  Sb3  1  0.58021428  0.91528279  0.61678265  1
  Sb  Sb4  1  0.91528279  0.58021428  0.61678265  1
  Sb  Sb5  1  0.08021428  0.41528279  0.88321735  1
  Sb  Sb6  1  0.58471721  0.91978572  0.11678265  1
  Sb  Sb7  1  0.41978572  0.08471721  0.38321735  1
  Sb  Sb8  1  0.23618516  0.23618516  0.60836225  1
  Sb  Sb9  1  0.73618516  0.73618516  0.89163775  1
  Sb  Sb10  1  0.26381484  0.26381484  0.10836225  1
  Sb  Sb11  1  0.76381484  0.76381484  0.39163775  1
loop_
_geom_bond_atom_site_label_1
_geom_bond_atom_site_label_2
_geom_bond_distance
_geom_bond_site_symmetry_2
Na0 Sb3 3.162384 1_555
Na0 Sb5 3.268552 1_665
Na0 Sb2 3.327767 1_565
Na0 Sb5 3.355989 1_555
Na0 Sn1 3.473321 1_556
Na0 Sb9 3.547424 1_555
Na1 Sb10 3.280303 1_555
Na1 Sb11 3.348517 1_445
Na1 Sb11 3.351710 1_555
Na1 Sb0 3.447332 1_555
Na1 Sb7 3.447332 1_555
Na1 Sn2 3.644808 1_455
Na1 Sn0 3.644808 1_545
Na2 Sb8 3.280303 1_555
Na2 Sb9 3.348517 1_555
Na2 Sb9 3.351710 1_445
Na2 Sb2 3.447332 1_555
Na2 Sb5 3.447332 1_555
Na2 Sn3 3.644808 1_556
Na2 Sn1 3.644808 1_556
Na3 Sb9 3.280303 1_555
Na3 Sb8 3.348517 1_665
Na3 Sb8 3.351710 1_555
Na3 Sb4 3.447332 1_555
Na3 Sb3 3.447332 1_555
Na3 Sn0 3.644808 1_655
Na3 Sn2 3.644808 1_565
Na4 Sb2 3.162384 1_555
Na4 Sb4 3.268552 1_555
Na4 Sb3 3.327767 1_545
Na4 Sb4 3.355989 1_445
Na4 Sn0 3.473321 1_545
Na4 Sb8 3.547424 1_555
Na5 Sb1 3.162384 1_555
Na5 Sb7 3.268552 1_555
Na5 Sb0 3.327767 1_655
Na5 Sb7 3.355989 1_665
Na5 Sn0 3.473321 1_655
Na5 Sb11 3.547424 1_555
Na6 Sb0 3.162384 1_555
Na6 Sb6 3.268552 1_445
Na6 Sb1 3.327767 1_455
Na6 Sb6 3.355989 1_555
Na6 Sn1 3.473321 1_555
Na6 Sb10 3.547424 1_555
Na7 Sb7 3.162384 1_555
Na7 Sb1 3.268552 1_445
Na7 Sb6 3.327767 1_545
Na7 Sb1 3.355989 1_555
Na7 Sn3 3.473321 1_555
Na7 Sb10 3.547424 1_555
Na8 Sb6 3.162384 1_555
Na8 Sb0 3.268552 1_555
Na8 Sb7 3.327767 1_565
Na8 Sb0 3.355989 1_665
Na8 Sn2 3.473321 1_565
Na8 Sb11 3.547424 1_555
Na9 Sb5 3.162384 1_555
Na9 Sb3 3.268552 1_555
Na9 Sb4 3.327767 1_455
Na9 Sb3 3.355989 1_445
Na9 Sn2 3.473321 1_455
Na9 Sb8 3.547424 1_555
Na10 Sb4 3.162384 1_555
Na10 Sb2 3.268552 1_665
Na10 Sb5 3.327767 1_655
Na10 Sb2 3.355989 1_555
Na10 Sn3 3.473321 1_556
Na10 Sb9 3.547424 1_555
Na11 Sb11 3.280303 1_555
Na11 Sb10 3.348517 1_555
Na11 Sb10 3.351710 1_665
Na11 Sb6 3.447332 1_555
Na11 Sb1 3.447332 1_555
Na11 Sn1 3.644808 1_555
Na11 Sn3 3.644808 1_555
Li0 Sb2 2.889534 1_564
Li0 Sb1 2.889534 1_455
Li0 Sb9 2.893141 1_454
Li0 Sb10 2.893141 1_565
Li0 Sn3 3.197728 1_565
Li0 Sn3 3.197728 1_455
Li1 Sb4 2.889534 1_555
Li1 Sb7 2.889534 1_555
Li1 Sb8 2.893141 1_555
Li1 Sb11 2.893141 1_555
Li1 Sn0 3.197728 1_655
Li1 Sn0 3.197728 1_545
Li2 Sb6 2.889534 1_545
Li2 Sb5 2.889534 1_654
Li2 Sb10 2.893141 1_655
Li2 Sb9 2.893141 1_544
Li2 Sn1 3.197728 1_545
Li2 Sn1 3.197728 1_655
Li3 Sb5 2.840595 1_654
Li3 Sb6 2.840595 1_545
Li3 Sb2 2.946777 1_554
Li3 Sb1 2.946777 1_555
Li3 Sn3 3.204617 1_555
Li4 Sb7 2.840595 1_555
Li4 Sb4 2.840595 1_555
Li4 Sb0 2.946777 1_655
Li4 Sb3 2.946777 1_545
Li4 Sn2 3.204617 1_555
Li5 Sb1 2.840595 1_455
Li5 Sb2 2.840595 1_564
Li5 Sb6 2.946777 1_555
Li5 Sb5 2.946777 1_554
Li5 Sn1 3.204617 1_555
Li6 Sb3 2.840595 1_555
Li6 Sb0 2.840595 1_555
Li6 Sb4 2.946777 1_455
Li6 Sb7 2.946777 1_565
Li6 Sn0 3.204617 1_555
Li7 Sb0 2.889534 1_555
Li7 Sb3 2.889534 1_555
Li7 Sb11 2.893141 1_555
Li7 Sb8 2.893141 1_555
Li7 Sn2 3.197728 1_455
Li7 Sn2 3.197728 1_565
Sb0 Sn2 2.816563 1_455
Sb1 Sn3 2.816563 1_555
Sb2 Sn3 2.816563 1_556
Sb3 Sn2 2.816563 1_565
Sb4 Sn0 2.816563 1_655
Sb5 Sn1 2.816563 1_556
Sb6 Sn1 2.816563 1_555
Sb7 Sn0 2.816563 1_545
Sb8 Sn2 2.894704 1_455
Sb8 Sn0 2.894704 1_545
Sb9 Sn1 2.894704 1_556
Sb9 Sn3 2.894704 1_556
Sb10 Sn3 2.894704 1_555
Sb10 Sn1 2.894704 1_555
Sb11 Sn0 2.894704 1_655
Sb11 Sn2 2.894704 1_565
