# generated using pymatgen
data_Hf3Sn(PN3)4
_symmetry_space_group_name_H-M   'P 1'
_cell_length_a   6.52661481
_cell_length_b   6.52661558
_cell_length_c   5.22608102
_cell_angle_alpha   78.62047483
_cell_angle_beta   78.62048136
_cell_angle_gamma   83.50619765
_symmetry_Int_Tables_number   1
_chemical_formula_structural   Hf3Sn(PN3)4
_chemical_formula_sum   'Hf3 Sn1 P4 N12'
_cell_volume   213.30946976
_cell_formula_units_Z   1
loop_
 _symmetry_equiv_pos_site_id
 _symmetry_equiv_pos_as_xyz
  1  'x, y, z'
loop_
 _atom_site_type_symbol
 _atom_site_label
 _atom_site_symmetry_multiplicity
 _atom_site_fract_x
 _atom_site_fract_y
 _atom_site_fract_z
 _atom_site_occupancy
  Hf  Hf0  1  0.67415716  0.32584284  0.75000000  1
  Hf  Hf1  1  0.90037581  0.09962419  0.25000000  1
  Hf  Hf2  1  0.32600178  0.67399822  0.25000000  1
  Sn  Sn0  1  0.09565934  0.90434066  0.75000000  1
  P  P0  1  0.19755805  0.38713591  0.75596186  1
  P  P1  1  0.38475982  0.19634920  0.25720673  1
  P  P2  1  0.80365080  0.61524018  0.24279327  1
  P  P3  1  0.61286409  0.80244195  0.74403814  1
  N  N0  1  0.32456509  0.38981475  0.00609051  1
  N  N1  1  0.01514845  0.22626156  0.84506423  1
  N  N2  1  0.98733935  0.77365679  0.15526474  1
  N  N3  1  0.38959335  0.32227522  0.50714233  1
  N  N4  1  0.61748444  0.12747485  0.13253557  1
  N  N5  1  0.38207517  0.87175253  0.87195777  1
  N  N6  1  0.87252515  0.38251556  0.36746443  1
  N  N7  1  0.67772478  0.61040665  0.99285767  1
  N  N8  1  0.77373844  0.98485155  0.65493577  1
  N  N9  1  0.12824747  0.61792483  0.62804223  1
  N  N10  1  0.22634321  0.01266065  0.34473526  1
  N  N11  1  0.61018525  0.67543491  0.49390949  1
loop_
_geom_bond_atom_site_label_1
_geom_bond_atom_site_label_2
_geom_bond_distance
_geom_bond_site_symmetry_2
Hf0 N4 2.145878 1_556
Hf0 N6 2.145878 1_555
Hf0 N1 2.367253 1_655
Hf0 N8 2.367254 1_545
Hf0 N0 2.443657 1_556
Hf0 N11 2.443657 1_555
Hf0 N3 2.452010 1_555
Hf0 N7 2.452011 1_555
Hf1 N4 2.036201 1_555
Hf1 N6 2.036201 1_555
Hf1 N1 2.132354 1_654
Hf1 N8 2.132354 1_545
Hf1 N10 2.263845 1_655
Hf1 N2 2.263845 1_545
Hf2 N5 2.125638 1_554
Hf2 N9 2.125638 1_555
Hf2 N2 2.352289 1_455
Hf2 N10 2.352289 1_565
Hf2 N11 2.450848 1_555
Hf2 N0 2.450848 1_555
Hf2 N7 2.456631 1_554
Hf2 N3 2.456631 1_555
N0 P0 1.684062 1_554
N0 P1 1.705377 1_555
N1 P0 1.614817 1_555
N1 Sn0 2.235293 1_545
N2 P2 1.610234 1_555
N2 Sn0 2.132054 1_654
N3 P1 1.681764 1_555
N3 P0 1.701486 1_555
N4 P1 1.582484 1_555
N5 P3 1.577419 1_555
N5 Sn0 2.067021 1_555
N6 P2 1.582484 1_555
N7 P2 1.681764 1_556
N7 P3 1.701485 1_555
N8 P3 1.614817 1_555
N8 Sn0 2.235293 1_655
N9 P0 1.577419 1_555
N9 Sn0 2.067022 1_555
N10 P1 1.610234 1_555
N10 Sn0 2.132054 1_545
N11 P3 1.684062 1_555
N11 P2 1.705377 1_555
