# generated using pymatgen
data_K2LiLuSb2
_symmetry_space_group_name_H-M   'P 1'
_cell_length_a   10.78644186
_cell_length_b   10.78644098
_cell_length_c   7.01960894
_cell_angle_alpha   90.00000000
_cell_angle_beta   90.00000000
_cell_angle_gamma   98.80569455
_symmetry_Int_Tables_number   1
_chemical_formula_structural   K2LiLuSb2
_chemical_formula_sum   'K8 Li4 Lu4 Sb8'
_cell_volume   807.08622418
_cell_formula_units_Z   4
loop_
 _symmetry_equiv_pos_site_id
 _symmetry_equiv_pos_as_xyz
  1  'x, y, z'
loop_
 _atom_site_type_symbol
 _atom_site_label
 _atom_site_symmetry_multiplicity
 _atom_site_fract_x
 _atom_site_fract_y
 _atom_site_fract_z
 _atom_site_occupancy
  K  K0  1  0.07075186  0.42924814  0.75000000  1
  K  K1  1  0.67615156  0.32384844  0.78413222  1
  K  K2  1  0.32384844  0.67615156  0.21586778  1
  K  K3  1  0.57075186  0.92924814  0.75000000  1
  K  K4  1  0.42924814  0.07075186  0.25000000  1
  K  K5  1  0.92924814  0.57075186  0.25000000  1
  K  K6  1  0.82384844  0.17615156  0.28413222  1
  K  K7  1  0.17615156  0.82384844  0.71586778  1
  Li  Li0  1  0.12125033  0.12125033  0.50000000  1
  Li  Li1  1  0.87874967  0.87874967  0.50000000  1
  Li  Li2  1  0.37874967  0.37874967  0.00000000  1
  Li  Li3  1  0.62125033  0.62125033  0.00000000  1
  Lu  Lu0  1  0.87036736  0.87036736  0.00000000  1
  Lu  Lu1  1  0.37036736  0.37036736  0.50000000  1
  Lu  Lu2  1  0.62963264  0.62963264  0.50000000  1
  Lu  Lu3  1  0.12963264  0.12963264  0.00000000  1
  Sb  Sb0  1  0.84971553  0.65028447  0.75000000  1
  Sb  Sb1  1  0.09915394  0.90084606  0.23702841  1
  Sb  Sb2  1  0.40084606  0.59915394  0.73702841  1
  Sb  Sb3  1  0.59915394  0.40084606  0.26297159  1
  Sb  Sb4  1  0.65028447  0.84971553  0.25000000  1
  Sb  Sb5  1  0.15028447  0.34971553  0.25000000  1
  Sb  Sb6  1  0.34971553  0.15028447  0.75000000  1
  Sb  Sb7  1  0.90084606  0.09915394  0.76297159  1
loop_
_geom_bond_atom_site_label_1
_geom_bond_atom_site_label_2
_geom_bond_distance
_geom_bond_site_symmetry_2
K0 Sb0 3.620657 1_455
K0 Sb5 3.743788 1_556
K0 Sb5 3.743788 1_555
K0 Sb7 3.747881 1_455
K0 Sb2 3.747881 1_555
K1 Sb3 3.590105 1_556
K1 Sb7 3.683575 1_555
K1 Sb0 3.733910 1_555
K1 Sb6 3.733910 1_555
K1 Sb3 3.869655 1_555
K2 Sb2 3.590105 1_554
K2 Sb1 3.683575 1_555
K2 Sb5 3.733910 1_555
K2 Sb4 3.733910 1_555
K2 Sb2 3.869655 1_555
K3 Sb6 3.620657 1_565
K3 Sb4 3.743788 1_555
K3 Sb4 3.743788 1_556
K3 Sb2 3.747881 1_555
K3 Sb7 3.747881 1_565
K4 Sb4 3.620657 1_545
K4 Sb6 3.743788 1_554
K4 Sb6 3.743788 1_555
K4 Sb3 3.747881 1_555
K4 Sb1 3.747881 1_545
K5 Sb5 3.620657 1_655
K5 Sb0 3.743788 1_554
K5 Sb0 3.743788 1_555
K5 Sb1 3.747881 1_655
K5 Sb3 3.747881 1_555
K6 Sb7 3.590105 1_555
K6 Sb3 3.683575 1_555
K6 Sb4 3.733910 1_545
K6 Sb5 3.733910 1_655
K6 Sb7 3.869655 1_554
K7 Sb1 3.590105 1_555
K7 Sb2 3.683575 1_555
K7 Sb6 3.733910 1_565
K7 Sb0 3.733910 1_455
K7 Sb1 3.869655 1_556
Li0 Sb1 2.990453 1_545
Li0 Sb7 2.990453 1_455
Li0 Sb5 3.002395 1_555
Li0 Sb6 3.002395 1_555
Li1 Sb7 2.990453 1_565
Li1 Sb1 2.990453 1_655
Li1 Sb0 3.002395 1_555
Li1 Sb4 3.002395 1_555
Li2 Sb2 2.990453 1_554
Li2 Sb3 2.990453 1_555
Li2 Sb6 3.002395 1_554
Li2 Sb5 3.002395 1_555
Li3 Sb3 2.990453 1_555
Li3 Sb2 2.990453 1_554
Li3 Sb4 3.002395 1_555
Li3 Sb0 3.002395 1_554
Lu0 Sb0 2.933062 1_554
Lu0 Sb4 2.933062 1_555
Lu0 Sb7 2.952638 1_564
Lu0 Sb1 2.952639 1_655
Lu1 Sb6 2.933062 1_555
Lu1 Sb5 2.933062 1_555
Lu1 Sb2 2.952638 1_555
Lu1 Sb3 2.952639 1_555
Lu2 Sb4 2.933062 1_555
Lu2 Sb0 2.933062 1_555
Lu2 Sb3 2.952638 1_555
Lu2 Sb2 2.952639 1_555
Lu3 Sb5 2.933062 1_555
Lu3 Sb6 2.933062 1_554
Lu3 Sb1 2.952638 1_545
Lu3 Sb7 2.952639 1_454
