# generated using pymatgen
data_CsMgBe3F9
_symmetry_space_group_name_H-M   'P 1'
_cell_length_a   6.76480325
_cell_length_b   6.76480258
_cell_length_c   9.68158582
_cell_angle_alpha   90.00000000
_cell_angle_beta   90.00000000
_cell_angle_gamma   119.99999859
_symmetry_Int_Tables_number   1
_chemical_formula_structural   CsMgBe3F9
_chemical_formula_sum   'Cs2 Mg2 Be6 F18'
_cell_volume   383.69614356
_cell_formula_units_Z   2
loop_
 _symmetry_equiv_pos_site_id
 _symmetry_equiv_pos_as_xyz
  1  'x, y, z'
loop_
 _atom_site_type_symbol
 _atom_site_label
 _atom_site_symmetry_multiplicity
 _atom_site_fract_x
 _atom_site_fract_y
 _atom_site_fract_z
 _atom_site_occupancy
  Cs  Cs0  1  0.33333300  0.66666700  0.50000000  1
  Cs  Cs1  1  0.33333300  0.66666700  0.00000000  1
  Mg  Mg0  1  0.00000000  0.00000000  0.50000000  1
  Mg  Mg1  1  0.00000000  0.00000000  0.00000000  1
  Be  Be0  1  0.86704345  0.25414566  0.25000000  1
  Be  Be1  1  0.86704345  0.61289779  0.75000000  1
  Be  Be2  1  0.38710221  0.25414566  0.75000000  1
  Be  Be3  1  0.74585434  0.13295655  0.75000000  1
  Be  Be4  1  0.74585434  0.61289779  0.25000000  1
  Be  Be5  1  0.38710221  0.13295655  0.25000000  1
  F  F0  1  0.77495309  0.02281727  0.61945352  1
  F  F1  1  0.24786417  0.22504691  0.61945352  1
  F  F2  1  0.97718273  0.75213583  0.61945352  1
  F  F3  1  0.97718273  0.22504691  0.38054648  1
  F  F4  1  0.90875854  0.50836758  0.25000000  1
  F  F5  1  0.59961004  0.09124146  0.25000000  1
  F  F6  1  0.49163242  0.40038996  0.25000000  1
  F  F7  1  0.49163242  0.09124146  0.75000000  1
  F  F8  1  0.59961004  0.50836758  0.75000000  1
  F  F9  1  0.90875854  0.40038996  0.75000000  1
  F  F10  1  0.97718273  0.22504691  0.11945352  1
  F  F11  1  0.24786417  0.02281727  0.38054648  1
  F  F12  1  0.77495309  0.75213583  0.38054648  1
  F  F13  1  0.77495309  0.75213583  0.11945352  1
  F  F14  1  0.24786417  0.02281727  0.11945352  1
  F  F15  1  0.77495309  0.02281727  0.88054648  1
  F  F16  1  0.24786417  0.22504691  0.88054648  1
  F  F17  1  0.97718273  0.75213583  0.88054648  1
loop_
_geom_bond_atom_site_label_1
_geom_bond_atom_site_label_2
_geom_bond_distance
_geom_bond_site_symmetry_2
Cs0 F11 2.978161 1_565
Cs0 F2 2.978161 1_455
Cs0 F3 2.978165 1_455
Cs0 F0 2.978165 1_565
Cs0 F1 2.978167 1_555
Cs0 F12 2.978168 1_555
Cs0 F7 3.489798 1_565
Cs0 F4 3.489798 1_455
Cs0 F5 3.489799 1_565
Cs0 F9 3.489800 1_455
Cs0 F6 3.489807 1_555
Cs0 F8 3.489807 1_555
Cs1 F14 2.978161 1_565
Cs1 F17 2.978161 1_454
Cs1 F10 2.978165 1_455
Cs1 F15 2.978165 1_564
Cs1 F16 2.978167 1_554
Cs1 F13 2.978168 1_555
Cs1 F7 3.489798 1_564
Cs1 F4 3.489798 1_455
Cs1 F5 3.489799 1_565
Cs1 F9 3.489800 1_454
Cs1 F6 3.489807 1_555
Cs1 F8 3.489807 1_554
Be0 F3 1.529045 1_555
Be0 F10 1.529045 1_555
Be0 F5 1.579149 1_555
Be0 F4 1.597468 1_555
Be1 F17 1.529045 1_555
Be1 F2 1.529045 1_555
Be1 F8 1.579148 1_555
Be1 F9 1.597475 1_555
Be2 F16 1.529045 1_555
Be2 F1 1.529045 1_555
Be2 F7 1.579154 1_555
Be2 F8 1.597471 1_555
Be3 F15 1.529045 1_555
Be3 F0 1.529045 1_555
Be3 F9 1.579149 1_555
Be3 F7 1.597468 1_555
Be4 F12 1.529045 1_555
Be4 F13 1.529045 1_555
Be4 F4 1.579154 1_555
Be4 F6 1.597471 1_555
Be5 F11 1.529045 1_555
Be5 F14 1.529045 1_555
Be5 F6 1.579148 1_555
Be5 F5 1.597475 1_555
F0 Mg0 1.978383 1_655
F1 Mg0 1.978383 1_555
F2 Mg0 1.978383 1_665
F3 Mg0 1.978383 1_655
F10 Mg1 1.978383 1_655
F11 Mg0 1.978383 1_555
F12 Mg0 1.978383 1_665
F13 Mg1 1.978383 1_665
F14 Mg1 1.978383 1_555
F15 Mg1 1.978383 1_656
F16 Mg1 1.978383 1_556
F17 Mg1 1.978383 1_666
