# generated using pymatgen
data_ErZn12
_symmetry_space_group_name_H-M   'P 1'
_cell_length_a   5.07964527
_cell_length_b   6.69489587
_cell_length_c   6.69489561
_cell_angle_alpha   81.72529148
_cell_angle_beta   67.70552274
_cell_angle_gamma   67.70551021
_symmetry_Int_Tables_number   1
_chemical_formula_structural   ErZn12
_chemical_formula_sum   'Er1 Zn12'
_cell_volume   194.91070267
_cell_formula_units_Z   1
loop_
 _symmetry_equiv_pos_site_id
 _symmetry_equiv_pos_as_xyz
  1  'x, y, z'
loop_
 _atom_site_type_symbol
 _atom_site_label
 _atom_site_symmetry_multiplicity
 _atom_site_fract_x
 _atom_site_fract_y
 _atom_site_fract_z
 _atom_site_occupancy
  Er  Er0  1  0.00000000  0.00000000  0.00000000  1
  Zn  Zn0  1  0.71583247  0.78416753  0.78416753  1
  Zn  Zn1  1  0.50000000  0.00000000  0.50000000  1
  Zn  Zn2  1  0.00000000  0.50000000  0.00000000  1
  Zn  Zn3  1  0.50000000  0.50000000  0.00000000  1
  Zn  Zn4  1  0.00000000  0.00000000  0.50000000  1
  Zn  Zn5  1  0.35356261  0.64643739  0.64643739  1
  Zn  Zn6  1  0.00000000  0.35356261  0.64643739  1
  Zn  Zn7  1  -0.00000000  0.64643739  0.35356261  1
  Zn  Zn8  1  0.64643739  0.35356261  0.35356261  1
  Zn  Zn9  1  0.28416753  0.21583247  0.21583247  1
  Zn  Zn10  1  0.50000000  0.78416753  0.21583247  1
  Zn  Zn11  1  0.50000000  0.21583247  0.78416753  1
loop_
_geom_bond_atom_site_label_1
_geom_bond_atom_site_label_2
_geom_bond_distance
_geom_bond_site_symmetry_2
Er0 Zn7 3.097294 1_545
Er0 Zn6 3.097294 1_554
Er0 Zn5 3.097294 1_544
Er0 Zn8 3.097294 1_455
Er0 Zn11 3.166325 1_454
Er0 Zn10 3.166325 1_545
Er0 Zn9 3.166325 1_455
Er0 Zn0 3.166325 1_544
Er0 Zn0 3.166325 1_444
Er0 Zn9 3.166325 1_555
Er0 Zn10 3.166325 1_445
Er0 Zn11 3.166325 1_554
Er0 Zn3 3.347448 1_455
Er0 Zn3 3.347448 1_545
Er0 Zn4 3.347448 1_555
Er0 Zn4 3.347448 1_554
Er0 Zn1 3.347448 1_554
Er0 Zn1 3.347448 1_455
Er0 Zn2 3.347448 1_555
Er0 Zn2 3.347448 1_545
Zn0 Zn2 2.549241 1_656
Zn0 Zn1 2.549241 1_565
Zn0 Zn4 2.549241 1_665
Zn0 Zn3 2.549241 1_556
Zn0 Zn11 2.673917 1_565
Zn0 Zn10 2.673917 1_556
Zn0 Zn6 2.800472 1_655
Zn0 Zn7 2.800472 1_655
Zn0 Zn5 2.811843 1_655
Zn0 Zn5 2.811843 1_555
Zn1 Zn4 2.539823 1_555
Zn1 Zn4 2.539823 1_655
Zn1 Zn9 2.549241 1_555
Zn1 Zn11 2.549241 1_555
Zn1 Zn10 2.549241 1_545
Zn1 Zn7 2.689259 1_645
Zn1 Zn6 2.689259 1_555
Zn1 Zn8 2.689259 1_555
Zn1 Zn5 2.689259 1_545
Zn2 Zn3 2.539823 1_555
Zn2 Zn3 2.539823 1_455
Zn2 Zn9 2.549241 1_555
Zn2 Zn6 2.689259 1_554
Zn2 Zn7 2.689259 1_555
Zn2 Zn8 2.689259 1_455
Zn2 Zn5 2.689259 1_554
Zn3 Zn9 2.549241 1_555
Zn3 Zn5 2.689259 1_554
Zn3 Zn8 2.689259 1_555
Zn3 Zn6 2.689259 1_654
Zn3 Zn7 2.689259 1_555
Zn4 Zn9 2.549241 1_555
Zn4 Zn5 2.689259 1_545
Zn4 Zn8 2.689259 1_455
Zn4 Zn7 2.689259 1_545
Zn4 Zn6 2.689259 1_555
Zn5 Zn8 2.565654 1_555
Zn6 Zn7 2.565654 1_555
Zn6 Zn9 2.800472 1_555
Zn7 Zn9 2.800472 1_555
Zn8 Zn9 2.811843 1_655
Zn8 Zn9 2.811843 1_555
Zn10 Zn2 2.549241 1_655
Zn10 Zn4 2.549241 1_565
Zn10 Zn3 2.549241 1_555
Zn10 Zn9 2.673917 1_565
Zn10 Zn8 2.800472 1_555
Zn10 Zn5 2.800472 1_555
Zn10 Zn7 2.811843 1_655
Zn10 Zn7 2.811843 1_555
Zn11 Zn2 2.549241 1_556
Zn11 Zn4 2.549241 1_655
Zn11 Zn3 2.549241 1_556
Zn11 Zn9 2.673917 1_556
Zn11 Zn5 2.800472 1_555
Zn11 Zn8 2.800472 1_555
Zn11 Zn6 2.811843 1_555
Zn11 Zn6 2.811843 1_655
