# generated using pymatgen
data_Sr12Ta3SbO22
_symmetry_space_group_name_H-M   'P 1'
_cell_length_a   5.97463236
_cell_length_b   5.96326605
_cell_length_c   23.76239582
_cell_angle_alpha   58.65784856
_cell_angle_beta   59.17226139
_cell_angle_gamma   60.10185424
_symmetry_Int_Tables_number   1
_chemical_formula_structural   Sr12Ta3SbO22
_chemical_formula_sum   'Sr12 Ta3 Sb1 O22'
_cell_volume   589.05348266
_cell_formula_units_Z   1
loop_
 _symmetry_equiv_pos_site_id
 _symmetry_equiv_pos_as_xyz
  1  'x, y, z'
loop_
 _atom_site_type_symbol
 _atom_site_label
 _atom_site_symmetry_multiplicity
 _atom_site_fract_x
 _atom_site_fract_y
 _atom_site_fract_z
 _atom_site_occupancy
  Sr  Sr0  1  0.11956823  0.33020984  0.07769252  1
  Sr  Sr1  1  0.44126586  0.61496793  0.10810632  1
  Sr  Sr2  1  0.18117164  0.35722795  0.29073197  1
  Sr  Sr3  1  0.36610865  0.54231240  0.38855256  1
  Sr  Sr4  1  0.62965306  0.80235714  0.20504765  1
  Sr  Sr5  1  0.22059687  0.24295210  0.57805720  1
  Sr  Sr6  1  0.50485645  0.51499777  0.60857440  1
  Sr  Sr7  1  0.22699476  0.29281525  0.79184872  1
  Sr  Sr8  1  0.65085001  0.85687874  0.41949762  1
  Sr  Sr9  1  0.45576917  0.47653449  0.88853362  1
  Sr  Sr10  1  0.68296415  0.74470189  0.70605536  1
  Sr  Sr11  1  0.72667507  0.76188009  0.91842357  1
  Ta  Ta0  1  0.00043336  0.04676559  0.99830923  1
  Ta  Ta1  1  0.90526723  0.08067522  0.24865461  1
  Ta  Ta2  1  0.93646809  0.96931827  0.49846361  1
  Sb  Sb0  1  0.96379236  0.01383793  0.74837699  1
  O  O0  1  0.08876474  0.37782386  0.18421081  1
  O  O1  1  0.20708185  0.84688219  0.19136478  1
  O  O2  1  0.81384970  0.37536575  0.02635123  1
  O  O3  1  0.78309024  0.83268372  0.07912325  1
  O  O4  1  0.68656195  0.23374767  0.18773325  1
  O  O5  1  0.60889416  0.32876799  0.30141838  1
  O  O6  1  0.14391747  0.19382727  0.41787398  1
  O  O7  1  0.11363420  0.92571546  0.31249296  1
  O  O8  1  0.73097912  0.77517775  0.31364931  1
  O  O9  1  0.60706275  0.15993036  0.47005488  1
  O  O10  1  0.73125270  0.06738921  0.57890873  1
  O  O11  1  0.14609059  0.79186530  0.68591452  1
  O  O12  1  0.26606065  0.71154062  0.52686282  1
  O  O13  1  0.33071905  0.04553088  0.99856134  1
  O  O14  1  0.93531813  0.63843639  0.49877464  1
  O  O15  1  0.75511331  0.32495546  0.68440717  1
  O  O16  1  0.25676304  0.19050002  0.69340310  1
  O  O17  1  0.78049226  0.22789415  0.81118985  1
  O  O18  1  0.25551737  0.72026318  0.96916325  1
  O  O19  1  0.18562956  0.70819292  0.81069320  1
  O  O20  1  0.65989480  0.84646769  0.80515846  1
  O  O21  1  0.89638543  0.26010455  0.91798711  1
loop_
_geom_bond_atom_site_label_1
_geom_bond_atom_site_label_2
_geom_bond_distance
_geom_bond_site_symmetry_2
O0 Ta1 2.019902 1_455
O0 Sr1 2.472015 1_555
O0 Sr0 2.596000 1_555
O0 Sr4 2.677216 1_455
O0 Sr2 2.787139 1_555
O1 Ta1 2.000195 1_465
O1 Sr1 2.421693 1_555
O1 Sr4 2.575578 1_555
O1 Sr2 2.651206 1_555
O1 Sr0 2.778999 1_565
O2 Ta0 1.986403 1_654
O2 Sr1 2.460765 1_555
O2 Sr11 2.486757 1_554
O2 Sr0 2.519726 1_655
O3 Ta0 1.884203 1_664
O3 Sr1 2.569502 1_555
O3 Sr4 2.572476 1_555
O3 Sr0 2.655498 1_655
O4 Ta1 2.002821 1_555
O4 Sr1 2.437609 1_555
O4 Sr4 2.555420 1_545
O4 Sr0 2.616608 1_655
O4 Sr2 2.780971 1_555
O5 Ta1 1.984645 1_555
O5 Sr3 2.415766 1_555
O5 Sr4 2.562314 1_555
O5 Sr2 2.609921 1_555
O5 Sr8 2.767319 1_545
O6 Ta2 1.884223 1_445
O6 Sr2 2.567325 1_555
O6 Sr3 2.619589 1_555
O6 Sr8 2.680346 1_545
O7 Ta1 2.008806 1_465
O7 Sr3 2.413831 1_555
O7 Sr2 2.547302 1_565
O7 Sr8 2.668120 1_455
O7 Sr4 2.861833 1_555
O8 Ta1 2.025912 1_565
O8 Sr3 2.513651 1_555
O8 Sr8 2.569236 1_555
O8 Sr2 2.640194 1_655
O8 Sr4 2.849687 1_555
O9 Ta2 1.988547 1_545
O9 Sr3 2.452283 1_555
O9 Sr8 2.498542 1_545
O9 Sr5 2.504325 1_555
O10 Ta2 1.882922 1_545
O10 Sr10 2.554671 1_545
O10 Sr6 2.613815 1_555
O10 Sr5 2.694786 1_555
O11 Sb0 2.022656 1_465
O11 Sr6 2.507775 1_555
O11 Sr5 2.618226 1_565
O11 Sr10 2.691285 1_455
O11 Sr7 2.728825 1_555
O12 Ta2 1.990283 1_455
O12 Sr6 2.446234 1_555
O12 Sr8 2.494000 1_555
O12 Sr5 2.498723 1_555
O13 Ta0 1.972747 1_555
O13 Sr0 2.600684 1_556
O13 Sr11 2.613104 1_545
O13 Sr9 2.630874 1_555
O13 Sr1 2.631192 1_546
O14 Ta2 1.972730 1_555
O14 Sr8 2.579881 1_555
O14 Sr5 2.584174 1_655
O14 Sr6 2.641138 1_555
O14 Sr3 2.644780 1_655
O15 Sb0 2.002442 1_555
O15 Sr6 2.390559 1_555
O15 Sr10 2.598520 1_555
O15 Sr5 2.662045 1_655
O15 Sr7 2.889340 1_555
O16 Sb0 1.985778 1_455
O16 Sr6 2.396700 1_555
O16 Sr7 2.612744 1_555
O16 Sr10 2.616554 1_545
O16 Sr5 2.702740 1_555
O17 Sb0 1.992387 1_555
O17 Sr9 2.377558 1_555
O17 Sr11 2.646423 1_545
O17 Sr7 2.658113 1_655
O17 Sr10 2.787631 1_555
O18 Ta0 1.988979 1_565
O18 Sr9 2.455333 1_555
O18 Sr0 2.493409 1_556
O18 Sr11 2.519139 1_555
O19 Sb0 2.016673 1_465
O19 Sr9 2.472534 1_555
O19 Sr7 2.612915 1_555
O19 Sr11 2.637751 1_455
O19 Sr10 2.751082 1_555
O20 Sb0 2.002034 1_565
O20 Sr9 2.436804 1_555
O20 Sr7 2.640795 1_565
O20 Sr10 2.646429 1_555
O20 Sr11 2.673048 1_555
O21 Ta0 1.884009 1_655
O21 Sr7 2.575196 1_655
O21 Sr9 2.578229 1_555
O21 Sr11 2.641680 1_555
