# generated using pymatgen
data_Lu12AlCo4Sn
_symmetry_space_group_name_H-M   'P 1'
_cell_length_a   8.07856720
_cell_length_b   8.07856680
_cell_length_c   8.07856694
_cell_angle_alpha   111.64145627
_cell_angle_beta   109.65416948
_cell_angle_gamma   107.14918751
_symmetry_Int_Tables_number   1
_chemical_formula_structural   Lu12AlCo4Sn
_chemical_formula_sum   'Lu12 Al1 Co4 Sn1'
_cell_volume   405.23974741
_cell_formula_units_Z   1
loop_
 _symmetry_equiv_pos_site_id
 _symmetry_equiv_pos_as_xyz
  1  'x, y, z'
loop_
 _atom_site_type_symbol
 _atom_site_label
 _atom_site_symmetry_multiplicity
 _atom_site_fract_x
 _atom_site_fract_y
 _atom_site_fract_z
 _atom_site_occupancy
  Lu  Lu0  1  0.43806090  0.23439806  0.20366184  1
  Lu  Lu1  1  0.56193910  0.76560194  0.79633816  1
  Lu  Lu2  1  0.03073523  0.23439806  0.79633816  1
  Lu  Lu3  1  0.96926477  0.76560194  0.20366184  1
  Lu  Lu4  1  0.18149475  0.28109552  0.46259127  1
  Lu  Lu5  1  0.81850525  0.71890448  0.53740873  1
  Lu  Lu6  1  0.18149475  0.71890448  0.90039923  1
  Lu  Lu7  1  0.81850525  0.28109552  0.09960077  1
  Lu  Lu8  1  0.32383154  0.63645499  0.31262346  1
  Lu  Lu9  1  0.67616846  0.36354501  0.68737654  1
  Lu  Lu10  1  0.32383154  0.01120808  0.68737654  1
  Lu  Lu11  1  0.67616846  0.98879192  0.31262346  1
  Al  Al0  1  0.00000000  0.00000000  0.00000000  1
  Co  Co0  1  0.33734604  1.00000000  0.33734604  1
  Co  Co1  1  0.66265396  0.00000000  0.66265396  1
  Co  Co2  1  0.11476904  0.61476904  0.50000000  1
  Co  Co3  1  0.88523096  0.38523096  0.50000000  1
  Sn  Sn0  1  0.50000000  0.50000000  0.00000000  1
loop_
_geom_bond_atom_site_label_1
_geom_bond_atom_site_label_2
_geom_bond_distance
_geom_bond_site_symmetry_2
Lu0 Sn0 3.175830 1_555
Lu0 Lu7 3.403425 1_555
Lu0 Lu5 3.403430 1_555
Lu0 Lu6 3.407250 1_544
Lu0 Lu4 3.407263 1_555
Lu1 Sn0 3.175830 1_556
Lu1 Lu6 3.403425 1_555
Lu1 Lu4 3.403430 1_555
Lu1 Lu7 3.407250 1_566
Lu1 Lu5 3.407263 1_555
Lu2 Sn0 3.175838 1_556
Lu2 Lu4 3.403430 1_555
Lu2 Lu6 3.403432 1_555
Lu2 Lu7 3.407243 1_456
Lu2 Lu5 3.407250 1_445
Lu3 Sn0 3.175838 1_555
Lu3 Lu5 3.403430 1_555
Lu3 Lu7 3.403432 1_555
Lu3 Lu6 3.407243 1_654
Lu3 Lu4 3.407250 1_665
Lu4 Lu7 3.378439 1_455
Lu4 Lu9 3.516792 1_555
Lu4 Lu8 3.547854 1_555
Lu4 Sn0 3.568707 1_556
Lu5 Lu6 3.378439 1_655
Lu5 Lu8 3.516792 1_555
Lu5 Lu9 3.547854 1_555
Lu5 Sn0 3.568707 1_555
Lu6 Lu8 3.516793 1_556
Lu6 Lu9 3.547848 1_455
Lu6 Sn0 3.568714 1_556
Lu7 Lu9 3.516793 1_554
Lu7 Lu8 3.547848 1_655
Lu7 Sn0 3.568714 1_555
Lu8 Sn0 3.302817 1_555
Lu9 Sn0 3.302817 1_556
Lu10 Sn0 3.302817 1_556
Lu10 Lu4 3.516787 1_555
Lu10 Lu7 3.516793 1_556
Lu10 Lu5 3.547846 1_445
Lu10 Lu6 3.547848 1_545
Lu11 Sn0 3.302817 1_555
Lu11 Lu5 3.516787 1_555
Lu11 Lu6 3.516793 1_554
Lu11 Lu4 3.547846 1_665
Lu11 Lu7 3.547848 1_565
Al0 Lu2 2.941072 1_554
Al0 Lu3 2.941072 1_445
Al0 Lu0 2.941080 1_555
Al0 Lu1 2.941080 1_444
Al0 Lu7 3.059963 1_455
Al0 Lu6 3.059963 1_544
Al0 Lu5 3.059969 1_444
Al0 Lu4 3.059969 1_555
Al0 Co0 3.139765 1_545
Al0 Co1 3.139765 1_454
Co0 Lu3 2.570010 1_455
Co0 Lu0 2.570018 1_565
Co0 Lu8 2.835650 1_555
Co0 Lu9 2.835650 1_565
Co0 Lu10 2.835650 1_565
Co0 Lu11 2.835650 1_555
Co0 Lu6 2.934962 1_554
Co0 Lu4 2.934964 1_565
Co0 Co1 3.027723 1_565
Co1 Lu2 2.570010 1_655
Co1 Lu1 2.570018 1_545
Co1 Lu9 2.835650 1_555
Co1 Lu8 2.835650 1_545
Co1 Lu11 2.835650 1_545
Co1 Lu10 2.835650 1_555
Co1 Lu7 2.934962 1_556
Co1 Lu5 2.934964 1_545
Co2 Co3 2.202123 1_455
Co2 Lu10 2.629722 1_565
Co2 Lu8 2.629722 1_555
Co2 Lu5 2.830861 1_455
Co2 Lu7 2.830864 1_455
Co2 Lu6 2.830864 1_555
Co2 Lu4 2.830865 1_555
Co2 Lu1 3.114641 1_555
Co2 Lu3 3.114646 1_455
Co3 Lu11 2.629722 1_545
Co3 Lu9 2.629722 1_555
Co3 Lu4 2.830861 1_655
Co3 Lu6 2.830864 1_655
Co3 Lu7 2.830864 1_555
Co3 Lu5 2.830865 1_555
Co3 Lu0 3.114641 1_555
Co3 Lu2 3.114646 1_655
