# generated using pymatgen
data_NaSr2InSn2
_symmetry_space_group_name_H-M   'P 1'
_cell_length_a   4.90562763
_cell_length_b   8.19990600
_cell_length_c   18.51045363
_cell_angle_alpha   90.00000000
_cell_angle_beta   90.00000000
_cell_angle_gamma   90.00000000
_symmetry_Int_Tables_number   1
_chemical_formula_structural   NaSr2InSn2
_chemical_formula_sum   'Na4 Sr8 In4 Sn8'
_cell_volume   744.59568527
_cell_formula_units_Z   4
loop_
 _symmetry_equiv_pos_site_id
 _symmetry_equiv_pos_as_xyz
  1  'x, y, z'
loop_
 _atom_site_type_symbol
 _atom_site_label
 _atom_site_symmetry_multiplicity
 _atom_site_fract_x
 _atom_site_fract_y
 _atom_site_fract_z
 _atom_site_occupancy
  Na  Na0  1  0.25000000  0.98993955  0.06912550  1
  Na  Na1  1  0.75000000  0.51006045  0.56912550  1
  Na  Na2  1  0.75000000  0.01006045  0.93087450  1
  Na  Na3  1  0.25000000  0.48993955  0.43087450  1
  Sr  Sr0  1  0.25000000  0.35089271  0.93912513  1
  Sr  Sr1  1  0.25000000  0.85089271  0.56087487  1
  Sr  Sr2  1  0.75000000  0.14910729  0.43912513  1
  Sr  Sr3  1  0.75000000  0.49813609  0.27554819  1
  Sr  Sr4  1  0.75000000  0.99813609  0.22445181  1
  Sr  Sr5  1  0.75000000  0.64910729  0.06087487  1
  Sr  Sr6  1  0.25000000  0.50186391  0.72445181  1
  Sr  Sr7  1  0.25000000  0.00186391  0.77554819  1
  In  In0  1  0.75000000  0.15846388  0.65806495  1
  In  In1  1  0.25000000  0.84153612  0.34193505  1
  In  In2  1  0.75000000  0.65846388  0.84193505  1
  In  In3  1  0.25000000  0.34153612  0.15806495  1
  Sn  Sn0  1  0.75000000  0.24256973  0.07158758  1
  Sn  Sn1  1  0.75000000  0.78946022  0.68786249  1
  Sn  Sn2  1  0.25000000  0.21053978  0.31213751  1
  Sn  Sn3  1  0.25000000  0.71053978  0.18786249  1
  Sn  Sn4  1  0.25000000  0.25743027  0.57158758  1
  Sn  Sn5  1  0.75000000  0.28946022  0.81213751  1
  Sn  Sn6  1  0.25000000  0.75743027  0.92841242  1
  Sn  Sn7  1  0.75000000  0.74256973  0.42841242  1
loop_
_geom_bond_atom_site_label_1
_geom_bond_atom_site_label_2
_geom_bond_distance
_geom_bond_site_symmetry_2
Na0 Sn3 3.174835 1_555
Na0 Sn0 3.210867 1_565
Na0 Sn0 3.210867 1_465
Na0 Sn6 3.227881 1_554
Na0 Na2 3.548585 1_564
Na0 Na2 3.548585 1_464
Na0 Sr5 3.721624 1_455
Na0 Sr5 3.721624 1_555
Na0 Sr4 3.779862 1_555
Na0 Sr4 3.779862 1_455
Na0 Sr0 3.814565 1_564
Na1 Sn1 3.174835 1_555
Na1 Sn4 3.210867 1_555
Na1 Sn4 3.210867 1_655
Na1 Sn7 3.227881 1_555
Na1 Na3 3.548585 1_555
Na1 Na3 3.548585 1_655
Na1 Sr1 3.721624 1_655
Na1 Sr1 3.721624 1_555
Na1 Sr6 3.779862 1_555
Na1 Sr6 3.779862 1_655
Na1 Sr2 3.814565 1_555
Na2 Sn5 3.174835 1_555
Na2 Sn6 3.210867 1_645
Na2 Sn6 3.210867 1_545
Na2 Sn0 3.227881 1_556
Na2 Sr0 3.721624 1_555
Na2 Sr0 3.721624 1_655
Na2 Sr7 3.779862 1_555
Na2 Sr7 3.779862 1_655
Na2 Sr5 3.814565 1_546
Na3 Sn2 3.174835 1_555
Na3 Sn7 3.210867 1_455
Na3 Sn7 3.210867 1_555
Na3 Sn4 3.227881 1_555
Na3 Sr2 3.721624 1_455
Na3 Sr2 3.721624 1_555
Na3 Sr3 3.779862 1_455
Na3 Sr3 3.779862 1_555
Na3 Sr1 3.814565 1_555
Sr0 Sr5 4.132172 1_456
Sr0 Sr5 4.132172 1_556
Sr0 Sr6 4.162069 1_555
Sr0 Sr7 4.166430 1_555
Sr1 Sr2 4.132172 1_565
Sr1 Sr2 4.132172 1_465
Sr1 Sr7 4.162069 1_565
Sr1 Sr6 4.166430 1_555
Sr2 Sr4 4.162069 1_545
Sr2 Sr3 4.166430 1_555
Sr3 Sr5 4.162069 1_555
Sr3 Sr4 4.207634 1_555
Sr3 Sr4 4.207634 1_545
Sr4 Sr5 4.166430 1_555
Sr6 Sr7 4.207634 1_565
Sr6 Sr7 4.207634 1_555
In0 Sn4 3.039277 1_555
In0 Sn4 3.039277 1_655
In0 Sn5 3.047532 1_555
In0 Sn1 3.075656 1_545
In0 Na1 3.319994 1_555
In0 Sr7 3.520568 1_555
In0 Sr7 3.520568 1_655
In0 Sr6 3.931332 1_655
In0 Sr6 3.931332 1_555
In0 Sr1 3.951401 1_645
In0 Sr1 3.951401 1_545
In0 Sr2 4.053402 1_555
In1 Sn7 3.039277 1_455
In1 Sn7 3.039277 1_555
In1 Sn3 3.047532 1_555
In1 Sn2 3.075656 1_565
In1 Na3 3.319994 1_555
In1 Sr4 3.520568 1_555
In1 Sr4 3.520568 1_455
In1 Sr3 3.931332 1_555
In1 Sr3 3.931332 1_455
In1 Sr2 3.951401 1_465
In1 Sr2 3.951401 1_565
In1 Sr1 4.053402 1_555
In2 Sn6 3.039277 1_555
In2 Sn6 3.039277 1_655
In2 Sn1 3.047532 1_555
In2 Sn5 3.075656 1_555
In2 Na2 3.319994 1_565
In2 Sr6 3.520568 1_555
In2 Sr6 3.520568 1_655
In2 Sr7 3.931332 1_565
In2 Sr7 3.931332 1_665
In2 Sr0 3.951401 1_655
In2 Sr0 3.951401 1_555
In2 Sr5 4.053402 1_556
In3 Sn0 3.039277 1_455
In3 Sn0 3.039277 1_555
In3 Sn2 3.047532 1_555
In3 Sn3 3.075656 1_555
In3 Na0 3.319994 1_545
In3 Sr3 3.520568 1_455
In3 Sr3 3.520568 1_555
In3 Sr4 3.931332 1_545
In3 Sr4 3.931332 1_445
In3 Sr5 3.951401 1_455
In3 Sr5 3.951401 1_555
In3 Sr0 4.053402 1_554
Sn0 Sr5 3.339462 1_555
Sn0 Sr4 3.467551 1_545
Sn0 Sr0 3.580122 1_554
Sn0 Sr0 3.580122 1_654
Sn1 Sr7 3.418222 1_565
Sn1 Sr7 3.418222 1_665
Sn1 Sr1 3.434438 1_555
Sn1 Sr1 3.434438 1_655
Sn1 Sr6 3.469353 1_655
Sn1 Sr6 3.469353 1_555
Sn2 Sr4 3.418222 1_545
Sn2 Sr4 3.418222 1_445
Sn2 Sr2 3.434438 1_455
Sn2 Sr2 3.434438 1_555
Sn2 Sr3 3.469353 1_455
Sn2 Sr3 3.469353 1_555
Sn3 Sr3 3.418222 1_455
Sn3 Sr3 3.418222 1_555
Sn3 Sr5 3.434438 1_455
Sn3 Sr5 3.434438 1_555
Sn3 Sr4 3.469353 1_555
Sn3 Sr4 3.469353 1_455
Sn4 Sr1 3.339462 1_545
Sn4 Sr6 3.467551 1_555
Sn4 Sr2 3.580122 1_555
Sn4 Sr2 3.580122 1_455
Sn5 Sr6 3.418222 1_655
Sn5 Sr6 3.418222 1_555
Sn5 Sr0 3.434438 1_655
Sn5 Sr0 3.434438 1_555
Sn5 Sr7 3.469353 1_555
Sn5 Sr7 3.469353 1_655
Sn6 Sr0 3.339462 1_555
Sn6 Sr7 3.467551 1_565
Sn6 Sr5 3.580122 1_556
Sn6 Sr5 3.580122 1_456
Sn7 Sr2 3.339462 1_565
Sn7 Sr3 3.467551 1_555
Sn7 Sr1 3.580122 1_655
Sn7 Sr1 3.580122 1_555
