# generated using pymatgen
data_SrNi(As4Ru)3
_symmetry_space_group_name_H-M   'P 1'
_cell_length_a   7.36707760
_cell_length_b   7.41120589
_cell_length_c   7.36707709
_cell_angle_alpha   109.59261246
_cell_angle_beta   109.34956374
_cell_angle_gamma   109.59261407
_symmetry_Int_Tables_number   1
_chemical_formula_structural   SrNi(As4Ru)3
_chemical_formula_sum   'Sr1 Ni1 As12 Ru3'
_cell_volume   309.17514406
_cell_formula_units_Z   1
loop_
 _symmetry_equiv_pos_site_id
 _symmetry_equiv_pos_as_xyz
  1  'x, y, z'
loop_
 _atom_site_type_symbol
 _atom_site_label
 _atom_site_symmetry_multiplicity
 _atom_site_fract_x
 _atom_site_fract_y
 _atom_site_fract_z
 _atom_site_occupancy
  Sr  Sr0  1  0.00000000  0.00000000  0.00000000  1
  Ni  Ni0  1  0.00000000  0.50000000  0.00000000  1
  As  As0  1  0.85060491  0.65105927  0.50072461  1
  As  As1  1  0.14939509  0.34894073  0.49927539  1
  As  As2  1  0.14820510  0.64879439  0.80035682  1
  As  As3  1  0.85179490  0.35120561  0.19964318  1
  As  As4  1  0.65215172  0.50059029  0.85179490  1
  As  As5  1  0.34784828  0.49940971  0.14820510  1
  As  As6  1  0.65011970  0.80045436  0.14939509  1
  As  As7  1  0.34988030  0.19954564  0.85060491  1
  As  As8  1  0.50072461  0.84966734  0.65011970  1
  As  As9  1  0.49927539  0.15033266  0.34988030  1
  As  As10  1  0.19964318  0.84843857  0.34784828  1
  As  As11  1  0.80035682  0.15156143  0.65215172  1
  Ru  Ru0  1  0.50000000  0.50000000  0.50000000  1
  Ru  Ru1  1  0.50000000  0.00000000  0.00000000  1
  Ru  Ru2  1  0.00000000  0.00000000  0.50000000  1
loop_
_geom_bond_atom_site_label_1
_geom_bond_atom_site_label_2
_geom_bond_distance
_geom_bond_site_symmetry_2
As0 Ru0 2.443859 1_555
As0 Ru2 2.450187 1_665
As0 As2 2.553872 1_655
As0 As3 2.564886 1_555
As0 Sr0 3.233790 1_666
As1 Ru0 2.443859 1_555
As1 Ru2 2.450187 1_555
As1 As3 2.553872 1_455
As1 As2 2.564886 1_555
As1 Sr0 3.233790 1_555
As2 Ni0 2.432236 1_556
As2 Ru1 2.457116 1_566
As2 Sr0 3.245432 1_566
As3 Ni0 2.432236 1_655
As3 Ru1 2.457116 1_555
As3 Sr0 3.245432 1_655
As4 Ni0 2.432240 1_656
As4 Ru0 2.457113 1_555
As4 As6 2.553867 1_556
As4 As7 2.564891 1_555
As4 Sr0 3.245426 1_666
As5 Ni0 2.432240 1_555
As5 Ru0 2.457113 1_555
As5 As7 2.553867 1_554
As5 As6 2.564891 1_555
As5 Sr0 3.245426 1_555
As6 Ru2 2.443859 1_665
As6 Ru1 2.450187 1_565
As6 Sr0 3.233790 1_665
As7 Ru2 2.443859 1_555
As7 Ru1 2.450187 1_556
As7 Sr0 3.233790 1_556
As8 Ru1 2.443858 1_566
As8 Ru0 2.450200 1_555
As8 Sr0 3.233795 1_666
As9 Ru1 2.443858 1_555
As9 Ru0 2.450200 1_555
As9 Sr0 3.233795 1_555
As10 Ni0 2.432239 1_555
As10 Ru2 2.457113 1_565
As10 As9 2.553858 1_565
As10 As8 2.564882 1_555
As10 Sr0 3.245426 1_565
As11 Ni0 2.432239 1_656
As11 Ru2 2.457113 1_655
As11 As8 2.553858 1_545
As11 As9 2.564882 1_555
As11 Sr0 3.245426 1_656
