# generated using pymatgen
data_Be9NbV2
_symmetry_space_group_name_H-M   'P 1'
_cell_length_a   7.29051834
_cell_length_b   7.29051854
_cell_length_c   7.29051821
_cell_angle_alpha   35.14725320
_cell_angle_beta   35.14724770
_cell_angle_gamma   35.14725345
_symmetry_Int_Tables_number   1
_chemical_formula_structural   Be9NbV2
_chemical_formula_sum   'Be9 Nb1 V2'
_cell_volume   114.69383486
_cell_formula_units_Z   1
loop_
 _symmetry_equiv_pos_site_id
 _symmetry_equiv_pos_as_xyz
  1  'x, y, z'
loop_
 _atom_site_type_symbol
 _atom_site_label
 _atom_site_symmetry_multiplicity
 _atom_site_fract_x
 _atom_site_fract_y
 _atom_site_fract_z
 _atom_site_occupancy
  Be  Be0  1  0.50000000  0.50000000  0.50000000  1
  Be  Be1  1  0.33424591  0.33424591  0.33424691  1
  Be  Be2  1  0.66575409  0.66575409  0.66575309  1
  Be  Be3  1  0.07833131  0.58724584  0.58724584  1
  Be  Be4  1  0.58724584  0.58724584  0.07833131  1
  Be  Be5  1  0.58724584  0.07833131  0.58724584  1
  Be  Be6  1  0.41275416  0.92166869  0.41275416  1
  Be  Be7  1  0.92166869  0.41275416  0.41275416  1
  Be  Be8  1  0.41275416  0.41275416  0.92166869  1
  Nb  Nb0  1  0.00000000  0.00000000  0.00000000  1
  V  V0  1  0.14194380  0.14194380  0.14194380  1
  V  V1  1  0.85805620  0.85805620  0.85805620  1
loop_
_geom_bond_atom_site_label_1
_geom_bond_atom_site_label_2
_geom_bond_distance
_geom_bond_site_symmetry_2
Be0 Be8 2.127419 1_555
Be0 Be4 2.127419 1_555
Be0 Be7 2.127419 1_555
Be0 Be3 2.127419 1_555
Be0 Be6 2.127419 1_555
Be0 Be5 2.127419 1_555
Be0 V1 2.591799 1_554
Be0 V0 2.591799 1_556
Be0 V1 2.591799 1_455
Be0 V0 2.591799 1_655
Be0 V1 2.591799 1_545
Be0 V0 2.591799 1_565
Be1 Be3 2.143223 1_555
Be1 Be5 2.143223 1_555
Be1 Be4 2.143226 1_555
Be1 Be7 2.146518 1_455
Be1 Be6 2.146518 1_545
Be1 Be8 2.146520 1_554
Be1 Nb0 2.541832 1_556
Be1 Nb0 2.541836 1_655
Be1 Nb0 2.541837 1_565
Be1 Be2 2.542039 1_455
Be1 Be2 2.542040 1_545
Be1 Be2 2.542047 1_554
Be2 Be7 2.143223 1_555
Be2 Be6 2.143223 1_555
Be2 Be8 2.143226 1_555
Be2 Be3 2.146518 1_655
Be2 Be5 2.146518 1_565
Be2 Be4 2.146520 1_556
Be2 Nb0 2.541832 1_665
Be2 Nb0 2.541836 1_566
Be2 Nb0 2.541837 1_656
Be3 Be4 2.161988 1_456
Be3 Be5 2.161988 1_465
Be3 Be4 2.240480 1_555
Be3 Be5 2.240480 1_555
Be3 V0 2.498699 1_556
Be3 V0 2.498699 1_565
Be3 V1 2.525772 1_455
Be3 Nb0 2.798288 1_565
Be3 Nb0 2.798288 1_556
Be4 Be5 2.161988 1_564
Be4 Be5 2.240480 1_555
Be4 V0 2.498699 1_655
Be4 V0 2.498699 1_565
Be4 V1 2.525772 1_554
Be4 Nb0 2.798288 1_565
Be4 Nb0 2.798288 1_655
Be5 V0 2.498699 1_556
Be5 V0 2.498699 1_655
Be5 V1 2.525772 1_545
Be5 Nb0 2.798287 1_655
Be5 Nb0 2.798288 1_556
Be6 Be8 2.161988 1_564
Be6 Be7 2.161988 1_465
Be6 Be8 2.240480 1_555
Be6 Be7 2.240480 1_555
Be6 V1 2.498699 1_554
Be6 V1 2.498699 1_455
Be6 V0 2.525772 1_565
Be6 Nb0 2.798287 1_566
Be6 Nb0 2.798288 1_665
Be7 Be8 2.161988 1_654
Be7 Be8 2.240480 1_555
Be7 V1 2.498699 1_554
Be7 V1 2.498699 1_545
Be7 V0 2.525772 1_655
Be7 Nb0 2.798288 1_656
Be7 Nb0 2.798288 1_665
Be8 V1 2.498699 1_455
Be8 V1 2.498699 1_545
Be8 V0 2.525772 1_556
Be8 Nb0 2.798288 1_656
Be8 Nb0 2.798288 1_566
Nb0 V0 2.909743 1_555
Nb0 V1 2.909743 1_444
V0 V1 2.736414 1_445
V0 V1 2.736414 1_544
V0 V1 2.736415 1_454
