# generated using pymatgen
data_CaY(ZnGa)2
_symmetry_space_group_name_H-M   'P 1'
_cell_length_a   4.40444371
_cell_length_b   4.40444320
_cell_length_c   7.44804126
_cell_angle_alpha   90.00000000
_cell_angle_beta   90.00000000
_cell_angle_gamma   120.00000377
_symmetry_Int_Tables_number   1
_chemical_formula_structural   CaY(ZnGa)2
_chemical_formula_sum   'Ca1 Y1 Zn2 Ga2'
_cell_volume   125.12807595
_cell_formula_units_Z   1
loop_
 _symmetry_equiv_pos_site_id
 _symmetry_equiv_pos_as_xyz
  1  'x, y, z'
loop_
 _atom_site_type_symbol
 _atom_site_label
 _atom_site_symmetry_multiplicity
 _atom_site_fract_x
 _atom_site_fract_y
 _atom_site_fract_z
 _atom_site_occupancy
  Ca  Ca0  1  0.00000000  0.00000000  0.50000000  1
  Y  Y0  1  0.00000000  0.00000000  0.00000000  1
  Zn  Zn0  1  0.33333300  0.66666700  0.77549209  1
  Zn  Zn1  1  0.66666700  0.33333300  0.22450791  1
  Ga  Ga0  1  0.33333300  0.66666700  0.22528731  1
  Ga  Ga1  1  0.66666700  0.33333300  0.77471269  1
loop_
_geom_bond_atom_site_label_1
_geom_bond_atom_site_label_2
_geom_bond_distance
_geom_bond_site_symmetry_2
Ca0 Ga1 3.263858 1_455
Ca0 Ga0 3.263858 1_545
Ca0 Ga1 3.263861 1_445
Ca0 Ga0 3.263861 1_555
Ca0 Ga1 3.263861 1_555
Ca0 Ga0 3.263861 1_445
Ca0 Zn0 3.267500 1_545
Ca0 Zn1 3.267500 1_455
Ca0 Zn0 3.267503 1_555
Ca0 Zn1 3.267503 1_445
Ca0 Zn0 3.267503 1_445
Ca0 Zn1 3.267503 1_555
Y0 Zn1 3.043424 1_455
Y0 Zn0 3.043424 1_544
Y0 Zn1 3.043427 1_445
Y0 Zn0 3.043427 1_554
Y0 Zn1 3.043427 1_555
Y0 Zn0 3.043427 1_444
Ga0 Zn1 2.542910 1_565
Ga0 Zn1 2.542911 1_455
Ga0 Zn1 2.542918 1_555
Ga0 Y0 3.046617 1_565
Ga0 Y0 3.046620 1_555
Ga0 Y0 3.046620 1_665
Ga1 Zn0 2.542910 1_545
Ga1 Zn0 2.542911 1_655
Ga1 Zn0 2.542918 1_555
Ga1 Y0 3.046617 1_656
Ga1 Y0 3.046620 1_666
Ga1 Y0 3.046620 1_556
