# generated using pymatgen
data_V(PtRh)4
_symmetry_space_group_name_H-M   'P 1'
_cell_length_a   6.10768613
_cell_length_b   6.10768597
_cell_length_c   6.10768592
_cell_angle_alpha   95.63167380
_cell_angle_beta   95.63166442
_cell_angle_gamma   143.48816915
_symmetry_Int_Tables_number   1
_chemical_formula_structural   V(PtRh)4
_chemical_formula_sum   'V1 Pt4 Rh4'
_cell_volume   128.73899780
_cell_formula_units_Z   1
loop_
 _symmetry_equiv_pos_site_id
 _symmetry_equiv_pos_as_xyz
  1  'x, y, z'
loop_
 _atom_site_type_symbol
 _atom_site_label
 _atom_site_symmetry_multiplicity
 _atom_site_fract_x
 _atom_site_fract_y
 _atom_site_fract_z
 _atom_site_occupancy
  V  V0  1  0.00000000  0.00000000  0.00000000  1
  Pt  Pt0  1  0.00000000  0.32509701  0.32509701  1
  Pt  Pt1  1  0.00000000  0.67490299  0.67490299  1
  Pt  Pt2  1  0.67490299  1.00000000  0.67490299  1
  Pt  Pt3  1  0.32509701  0.00000000  0.32509701  1
  Rh  Rh0  1  0.34077031  0.34077031  0.68154162  1
  Rh  Rh1  1  0.65922969  0.65922969  0.31845838  1
  Rh  Rh2  1  0.65922969  0.34077031  0.00000000  1
  Rh  Rh3  1  0.34077031  0.65922969  1.00000000  1
loop_
_geom_bond_atom_site_label_1
_geom_bond_atom_site_label_2
_geom_bond_distance
_geom_bond_site_symmetry_2
Pt0 V0 2.666711 1_555
Pt0 Rh1 2.686612 1_445
Pt0 Rh3 2.686613 1_554
Pt0 Rh3 2.686614 1_444
Pt0 Rh1 2.686615 1_555
Pt0 Pt2 2.788807 1_445
Pt0 Pt3 2.788807 1_565
Pt0 Pt2 2.788808 1_555
Pt0 Pt3 2.788808 1_455
Pt0 Rh2 2.798231 1_455
Pt0 Rh0 2.798236 1_555
Pt0 Pt1 2.869394 1_555
Pt1 V0 2.666711 1_566
Pt1 Rh0 2.686612 1_565
Pt1 Rh2 2.686613 1_456
Pt1 Rh2 2.686614 1_566
Pt1 Rh0 2.686615 1_455
Pt1 Pt3 2.788807 1_565
Pt1 Pt2 2.788807 1_445
Pt1 Pt3 2.788808 1_455
Pt1 Pt2 2.788808 1_555
Pt1 Rh3 2.798231 1_555
Pt1 Rh1 2.798236 1_455
Pt2 V0 2.666711 1_666
Pt2 Rh0 2.686612 1_665
Pt2 Rh3 2.686613 1_555
Pt2 Rh3 2.686614 1_665
Pt2 Rh0 2.686615 1_555
Pt2 Rh2 2.798231 1_566
Pt2 Rh1 2.798235 1_555
Pt2 Pt3 2.869394 1_565
Pt3 V0 2.666711 1_555
Pt3 Rh1 2.686612 1_445
Pt3 Rh2 2.686613 1_555
Pt3 Rh2 2.686614 1_445
Pt3 Rh1 2.686615 1_555
Pt3 Rh3 2.798231 1_544
Pt3 Rh0 2.798235 1_555
Rh0 Rh3 2.612259 1_555
Rh0 Rh2 2.612260 1_556
Rh0 V0 2.659449 1_556
Rh0 V0 2.659452 1_666
Rh0 Rh1 2.845325 1_445
Rh0 Rh1 2.845330 1_555
Rh1 Rh2 2.612259 1_555
Rh1 Rh3 2.612260 1_554
Rh1 V0 2.659449 1_665
Rh1 V0 2.659452 1_555
Rh2 V0 2.659454 1_665
Rh2 V0 2.659454 1_555
Rh2 Rh3 2.845318 1_544
Rh2 Rh3 2.845319 1_654
Rh3 V0 2.659454 1_556
Rh3 V0 2.659454 1_666
