# generated using pymatgen
data_RbMnCrF6
_symmetry_space_group_name_H-M   'P 1'
_cell_length_a   7.39008068
_cell_length_b   7.39008091
_cell_length_c   7.39008089
_cell_angle_alpha   120.29336362
_cell_angle_beta   120.30511443
_cell_angle_gamma   89.48248434
_symmetry_Int_Tables_number   1
_chemical_formula_structural   RbMnCrF6
_chemical_formula_sum   'Rb2 Mn2 Cr2 F12'
_cell_volume   284.08256142
_cell_formula_units_Z   2
loop_
 _symmetry_equiv_pos_site_id
 _symmetry_equiv_pos_as_xyz
  1  'x, y, z'
loop_
 _atom_site_type_symbol
 _atom_site_label
 _atom_site_symmetry_multiplicity
 _atom_site_fract_x
 _atom_site_fract_y
 _atom_site_fract_z
 _atom_site_occupancy
  Rb  Rb0  1  0.61457641  0.36457641  0.25000000  1
  Rb  Rb1  1  0.38542359  0.63542359  0.75000000  1
  Mn  Mn0  1  0.50000000  0.00000000  0.50000000  1
  Mn  Mn1  1  0.00000000  0.00000000  0.00000000  1
  Cr  Cr0  1  0.00000000  0.00000000  0.50000000  1
  Cr  Cr1  1  0.00000000  0.50000000  0.00000000  1
  F  F0  1  0.05339637  0.30339637  0.75000000  1
  F  F1  1  0.66249940  0.91249940  0.75000000  1
  F  F2  1  0.06308475  0.33870983  0.14815304  1
  F  F3  1  0.69055678  0.91493171  0.35184696  1
  F  F4  1  0.69055678  0.33870983  0.77562508  1
  F  F5  1  0.06308475  0.91493171  0.72437492  1
  F  F6  1  0.94660363  0.69660363  0.25000000  1
  F  F7  1  0.33750060  0.08750060  0.25000000  1
  F  F8  1  0.93691525  0.66129017  0.85184696  1
  F  F9  1  0.30944322  0.08506829  0.64815304  1
  F  F10  1  0.30944322  0.66129017  0.22437492  1
  F  F11  1  0.93691525  0.08506829  0.27562508  1
loop_
_geom_bond_atom_site_label_1
_geom_bond_atom_site_label_2
_geom_bond_distance
_geom_bond_site_symmetry_2
Cr0 F9 1.904788 1_555
Cr0 F3 1.904788 1_445
Cr0 F11 1.904788 1_455
Cr0 F5 1.904788 1_545
Cr0 F0 1.922847 1_555
Cr0 F6 1.922847 1_445
Cr1 F10 1.904788 1_555
Cr1 F4 1.904788 1_454
Cr1 F8 1.904788 1_454
Cr1 F2 1.904788 1_555
Cr1 F6 1.922847 1_455
Cr1 F0 1.922847 1_554
F1 Mn1 2.055657 1_666
F1 Mn0 2.055657 1_565
F1 Rb1 2.908810 1_555
F2 Mn1 2.103018 1_555
F2 Rb1 3.134875 1_555
F3 Mn0 2.103018 1_565
F3 Rb1 3.134876 1_554
F4 Mn0 2.103018 1_555
F4 Rb1 3.134876 1_555
F5 Mn1 2.103018 1_566
F5 Rb1 3.134876 1_555
F7 Mn1 2.055657 1_555
F7 Mn0 2.055657 1_555
F7 Rb0 2.908810 1_555
F8 Mn1 2.103018 1_666
F8 Rb0 3.134875 1_555
F9 Mn0 2.103018 1_555
F9 Rb0 3.134876 1_556
F10 Mn0 2.103018 1_565
F10 Rb0 3.134876 1_555
F11 Mn1 2.103018 1_655
F11 Rb0 3.134876 1_555
