# generated using pymatgen
data_Cs3K9(VTe4)4
_symmetry_space_group_name_H-M   'P 1'
_cell_length_a   10.56213177
_cell_length_b   10.49848629
_cell_length_c   11.56434297
_cell_angle_alpha   90.00000000
_cell_angle_beta   90.00000000
_cell_angle_gamma   90.82043181
_symmetry_Int_Tables_number   1
_chemical_formula_structural   Cs3K9(VTe4)4
_chemical_formula_sum   'Cs3 K9 V4 Te16'
_cell_volume   1282.19684673
_cell_formula_units_Z   1
loop_
 _symmetry_equiv_pos_site_id
 _symmetry_equiv_pos_as_xyz
  1  'x, y, z'
loop_
 _atom_site_type_symbol
 _atom_site_label
 _atom_site_symmetry_multiplicity
 _atom_site_fract_x
 _atom_site_fract_y
 _atom_site_fract_z
 _atom_site_occupancy
  Cs  Cs0  1  0.14426760  0.39780225  0.75000000  1
  Cs  Cs1  1  0.34762412  0.89657617  0.25000000  1
  Cs  Cs2  1  0.64313538  0.10391444  0.75000000  1
  K  K0  1  0.04372530  0.19771887  0.04694097  1
  K  K1  1  0.87783438  0.57792091  0.25000000  1
  K  K2  1  0.95121746  0.79450448  0.54704102  1
  K  K3  1  0.54866570  0.29859712  0.44950277  1
  K  K4  1  0.45634700  0.70290803  0.95198627  1
  K  K5  1  0.54866570  0.29859712  0.05049723  1
  K  K6  1  0.04372530  0.19771887  0.45305903  1
  K  K7  1  0.45634700  0.70290803  0.54801373  1
  K  K8  1  0.95121746  0.79450448  0.95295898  1
  V  V0  1  0.77782272  0.01709195  0.25000000  1
  V  V1  1  0.71785828  0.51978023  0.75000000  1
  V  V2  1  0.28893818  0.48649952  0.25000000  1
  V  V3  1  0.21530432  0.98364090  0.75000000  1
  Te  Te0  1  0.32666592  0.05940291  0.92737024  1
  Te  Te1  1  0.20499259  0.74662750  0.75000000  1
  Te  Te2  1  0.29305031  0.24910974  0.25000000  1
  Te  Te3  1  0.70541607  0.75624006  0.75000000  1
  Te  Te4  1  0.80189237  0.25458772  0.25000000  1
  Te  Te5  1  0.99283526  0.06434330  0.75000000  1
  Te  Te6  1  0.51377590  0.57001708  0.25000000  1
  Te  Te7  1  0.49575769  0.43270761  0.75000000  1
  Te  Te8  1  0.99213124  0.91523483  0.25000000  1
  Te  Te9  1  0.66325522  0.95138573  0.42823798  1
  Te  Te10  1  0.82993001  0.44945607  0.57140338  1
  Te  Te11  1  0.17387469  0.55998067  0.07434612  1
  Te  Te12  1  0.66325522  0.95138573  0.07176202  1
  Te  Te13  1  0.32666592  0.05940291  0.57262976  1
  Te  Te14  1  0.17387469  0.55998067  0.42565388  1
  Te  Te15  1  0.82993001  0.44945607  0.92859662  1
loop_
_geom_bond_atom_site_label_1
_geom_bond_atom_site_label_2
_geom_bond_distance
_geom_bond_site_symmetry_2
Cs0 Te1 3.708822 1_555
Cs0 Te7 3.725301 1_555
Cs0 Te5 3.828000 1_455
Cs0 Te15 3.954012 1_455
Cs0 Te10 3.954012 1_455
Cs0 Te11 4.129208 1_556
Cs0 Te14 4.129208 1_555
Cs1 Te2 3.753833 1_565
Cs1 Te8 3.762669 1_455
Cs1 Te6 3.873731 1_555
Cs1 Te9 3.954559 1_555
Cs1 Te12 3.954559 1_555
Cs1 Te13 4.111250 1_565
Cs1 Te0 4.111250 1_564
Cs2 Te3 3.718115 1_545
Cs2 Te5 3.722773 1_555
Cs2 Te7 3.806847 1_555
Cs2 Te0 3.943838 1_555
Cs2 Te13 3.943838 1_555
Cs2 Te12 4.057675 1_546
Cs2 Te9 4.057675 1_545
K0 Te4 3.526851 1_455
K0 Te2 3.563631 1_555
K0 Te0 3.616045 1_554
K0 Te5 3.744315 1_454
K0 Te15 3.758694 1_454
K0 Te8 3.815762 1_445
K0 Te11 4.037912 1_555
K1 Te4 3.476794 1_555
K1 Te8 3.725004 1_555
K1 Te14 3.735718 1_655
K1 Te11 3.735718 1_655
K1 Te6 3.844941 1_555
K1 Te10 3.983737 1_555
K1 Te15 3.983737 1_554
K2 Te3 3.518595 1_555
K2 Te1 3.603418 1_655
K2 Te8 3.684750 1_555
K2 Te5 3.700230 1_565
K2 Te14 3.705292 1_655
K2 Te9 3.740903 1_555
K2 Te10 3.835360 1_555
K3 Te4 3.567242 1_555
K3 Te2 3.583532 1_555
K3 Te10 3.631290 1_555
K3 Te6 3.688944 1_555
K3 Te13 3.696332 1_555
K3 Te7 3.793831 1_555
K3 Te9 3.865114 1_545
K4 Te3 3.556408 1_555
K4 Te1 3.570697 1_555
K4 Te11 3.609286 1_556
K4 Te12 3.651884 1_556
K4 Te7 3.702711 1_555
K4 Te6 3.770388 1_556
K4 Te0 4.013904 1_565
K5 Te4 3.567242 1_555
K5 Te2 3.583532 1_555
K5 Te15 3.631290 1_554
K5 Te6 3.688944 1_555
K5 Te0 3.696332 1_554
K5 Te7 3.793831 1_554
K5 Te12 3.865114 1_545
K6 Te4 3.526851 1_455
K6 Te2 3.563631 1_555
K6 Te13 3.616045 1_555
K6 Te5 3.744315 1_455
K6 Te10 3.758694 1_455
K6 Te8 3.815762 1_445
K6 Te14 4.037912 1_555
K7 Te3 3.556408 1_555
K7 Te1 3.570697 1_555
K7 Te14 3.609286 1_555
K7 Te9 3.651884 1_555
K7 Te7 3.702711 1_555
K7 Te6 3.770388 1_555
K7 Te13 4.013904 1_565
K8 Te3 3.518595 1_555
K8 Te1 3.603418 1_655
K8 Te8 3.684750 1_556
K8 Te5 3.700230 1_565
K8 Te11 3.705292 1_656
K8 Te12 3.740903 1_556
K8 Te15 3.835360 1_555
Te0 V3 2.489303 1_545
Te1 V3 2.489106 1_555
Te2 V2 2.493234 1_555
Te3 V1 2.487825 1_555
Te4 V0 2.502649 1_555
Te5 V3 2.509216 1_645
Te6 V2 2.519658 1_555
Te7 V1 2.505447 1_555
Te8 V0 2.517240 1_565
Te9 V0 2.482900 1_565
Te10 V1 2.497394 1_555
Te11 V2 2.495041 1_555
Te12 V0 2.482900 1_565
Te13 V3 2.489303 1_545
Te14 V2 2.495041 1_555
Te15 V1 2.497394 1_555
