# generated using pymatgen
data_Zr3Nb2Sn3S
_symmetry_space_group_name_H-M   'P 1'
_cell_length_a   8.45713442
_cell_length_b   8.45713528
_cell_length_c   5.81325255
_cell_angle_alpha   90.00000000
_cell_angle_beta   90.00000000
_cell_angle_gamma   120.00000052
_symmetry_Int_Tables_number   1
_chemical_formula_structural   Zr3Nb2Sn3S
_chemical_formula_sum   'Zr6 Nb4 Sn6 S2'
_cell_volume   360.07778736
_cell_formula_units_Z   2
loop_
 _symmetry_equiv_pos_site_id
 _symmetry_equiv_pos_as_xyz
  1  'x, y, z'
loop_
 _atom_site_type_symbol
 _atom_site_label
 _atom_site_symmetry_multiplicity
 _atom_site_fract_x
 _atom_site_fract_y
 _atom_site_fract_z
 _atom_site_occupancy
  Zr  Zr0  1  0.74767321  0.74767321  0.75000000  1
  Zr  Zr1  1  0.25232679  0.00000000  0.75000000  1
  Zr  Zr2  1  1.00000000  0.25232679  0.75000000  1
  Zr  Zr3  1  0.25232679  0.25232679  0.25000000  1
  Zr  Zr4  1  0.74767321  1.00000000  0.25000000  1
  Zr  Zr5  1  0.00000000  0.74767321  0.25000000  1
  Nb  Nb0  1  0.66666700  0.33333300  0.00000000  1
  Nb  Nb1  1  0.33333300  0.66666700  0.00000000  1
  Nb  Nb2  1  0.33333300  0.66666700  0.50000000  1
  Nb  Nb3  1  0.66666700  0.33333300  0.50000000  1
  Sn  Sn0  1  0.40257388  0.40257388  0.75000000  1
  Sn  Sn1  1  0.59742612  0.00000000  0.75000000  1
  Sn  Sn2  1  1.00000000  0.59742612  0.75000000  1
  Sn  Sn3  1  0.59742612  0.59742612  0.25000000  1
  Sn  Sn4  1  0.40257388  1.00000000  0.25000000  1
  Sn  Sn5  1  0.00000000  0.40257388  0.25000000  1
  S  S0  1  0.00000000  0.00000000  0.00000000  1
  S  S1  1  0.00000000  0.00000000  0.50000000  1
loop_
_geom_bond_atom_site_label_1
_geom_bond_atom_site_label_2
_geom_bond_distance
_geom_bond_site_symmetry_2
Nb0 Sn5 2.958251 1_655
Nb0 Sn1 2.958251 1_554
Nb0 Sn2 2.958253 1_554
Nb0 Sn4 2.958253 1_545
Nb0 Sn0 2.958258 1_554
Nb0 Sn3 2.958258 1_555
Nb1 Sn2 2.958251 1_454
Nb1 Sn4 2.958251 1_555
Nb1 Sn5 2.958253 1_555
Nb1 Sn1 2.958253 1_564
Nb1 Sn3 2.958258 1_555
Nb1 Sn0 2.958258 1_554
Nb2 Sn2 2.958251 1_455
Nb2 Sn4 2.958251 1_555
Nb2 Sn5 2.958253 1_555
Nb2 Sn1 2.958253 1_565
Nb2 Sn3 2.958258 1_555
Nb2 Sn0 2.958258 1_555
Nb3 Sn5 2.958251 1_655
Nb3 Sn1 2.958251 1_555
Nb3 Sn2 2.958253 1_555
Nb3 Sn4 2.958253 1_545
Nb3 Sn0 2.958258 1_555
Nb3 Sn3 2.958258 1_555
Sn0 Zr0 2.918552 1_555
Sn0 Zr2 2.979917 1_455
Sn0 Zr1 2.979918 1_555
Sn0 Zr3 3.172232 1_556
Sn0 Zr3 3.172232 1_555
Sn1 Zr1 2.918551 1_555
Sn1 Zr2 2.979917 1_555
Sn1 Zr0 2.979918 1_545
Sn1 Zr4 3.172232 1_546
Sn1 Zr4 3.172232 1_545
Sn2 Zr2 2.918552 1_555
Sn2 Zr0 2.979917 1_555
Sn2 Zr1 2.979918 1_665
Sn2 Zr5 3.172232 1_655
Sn2 Zr5 3.172232 1_656
Sn3 Zr3 2.918552 1_555
Sn3 Zr5 2.979917 1_655
Sn3 Zr4 2.979918 1_555
Sn3 Zr0 3.172232 1_555
Sn3 Zr0 3.172232 1_554
Sn4 Zr4 2.918551 1_555
Sn4 Zr5 2.979917 1_555
Sn4 Zr3 2.979918 1_565
Sn4 Zr1 3.172232 1_565
Sn4 Zr1 3.172232 1_564
Sn5 Zr5 2.918552 1_555
Sn5 Zr3 2.979917 1_555
Sn5 Zr4 2.979918 1_445
Sn5 Zr2 3.172232 1_455
Sn5 Zr2 3.172232 1_454
S0 Zr4 2.581843 1_445
S0 Zr1 2.581843 1_554
S0 Zr3 2.581843 1_555
S0 Zr0 2.581843 1_444
S0 Zr2 2.581843 1_454
S0 Zr5 2.581843 1_545
S1 Zr4 2.581843 1_445
S1 Zr1 2.581843 1_555
S1 Zr3 2.581843 1_555
S1 Zr0 2.581843 1_445
S1 Zr2 2.581843 1_455
S1 Zr5 2.581843 1_545
