# generated using pymatgen
data_LiMn2(PO3)5
_symmetry_space_group_name_H-M   'P 1'
_cell_length_a   9.03898200
_cell_length_b   5.34416400
_cell_length_c   13.39133304
_cell_angle_alpha   68.44024329
_cell_angle_beta   90.00000000
_cell_angle_gamma   90.00000000
_symmetry_Int_Tables_number   1
_chemical_formula_structural   LiMn2(PO3)5
_chemical_formula_sum   'Li2 Mn4 P10 O30'
_cell_volume   601.62007277
_cell_formula_units_Z   2
loop_
 _symmetry_equiv_pos_site_id
 _symmetry_equiv_pos_as_xyz
  1  'x, y, z'
loop_
 _atom_site_type_symbol
 _atom_site_label
 _atom_site_symmetry_multiplicity
 _atom_site_fract_x
 _atom_site_fract_y
 _atom_site_fract_z
 _atom_site_occupancy
  Li  Li0  1  0.01336000  0.08443200  0.97069900  1
  Li  Li1  1  0.98664000  0.08443200  0.47069900  1
  Mn  Mn0  1  0.30768900  0.95423400  0.42730400  1
  Mn  Mn1  1  0.68874000  0.04197400  0.57542200  1
  Mn  Mn2  1  0.69231100  0.95423400  0.92730400  1
  Mn  Mn3  1  0.31126000  0.04197400  0.07542200  1
  P  P0  1  0.19123400  0.33692700  0.57901400  1
  P  P1  1  0.80876600  0.33692700  0.07901400  1
  P  P2  1  0.81269100  0.66362700  0.41957100  1
  P  P3  1  0.48160700  0.54133500  0.85409600  1
  P  P4  1  0.48296000  0.45585000  0.64690200  1
  P  P5  1  0.51839300  0.54133500  0.35409600  1
  P  P6  1  0.18730900  0.66362700  0.91957100  1
  P  P7  1  0.02336800  0.00424500  0.24948600  1
  P  P8  1  0.97663200  0.00424500  0.74948600  1
  P  P9  1  0.51704000  0.45585000  0.14690200  1
  O  O0  1  0.50842200  0.73391500  0.05952200  1
  O  O1  1  0.16451400  0.36533800  0.97446500  1
  O  O2  1  0.90030400  0.08994900  0.83184300  1
  O  O3  1  0.88850700  0.92324200  0.67178200  1
  O  O4  1  0.17333800  0.15577800  0.51655500  1
  O  O5  1  0.48969200  0.26497100  0.94242700  1
  O  O6  1  0.61902700  0.28184700  0.67142800  1
  O  O7  1  0.41632100  0.49622600  0.75078600  1
  O  O8  1  0.17102200  0.63357500  0.52285500  1
  O  O9  1  0.82855300  0.84336200  0.48281000  1
  O  O10  1  0.51030800  0.26497100  0.44242700  1
  O  O11  1  0.82666200  0.15577800  0.01655500  1
  O  O12  1  0.38339700  0.71820200  0.32904900  1
  O  O13  1  0.09046200  0.24433000  0.68551600  1
  O  O14  1  0.82897800  0.63357500  0.02285500  1
  O  O15  1  0.35167700  0.72353900  0.87164100  1
  O  O16  1  0.38097300  0.28184700  0.17142800  1
  O  O17  1  0.08803500  0.75650900  0.81241300  1
  O  O18  1  0.83548600  0.36533800  0.47446500  1
  O  O19  1  0.35477200  0.27119100  0.62881600  1
  O  O20  1  0.58367900  0.49622600  0.25078600  1
  O  O21  1  0.91196500  0.75650900  0.31241300  1
  O  O22  1  0.61660300  0.71820200  0.82904900  1
  O  O23  1  0.11149300  0.92324200  0.17178200  1
  O  O24  1  0.09969600  0.08994900  0.33184300  1
  O  O25  1  0.49157800  0.73391500  0.55952200  1
  O  O26  1  0.17144700  0.84336200  0.98281000  1
  O  O27  1  0.64832300  0.72353900  0.37164100  1
  O  O28  1  0.90953800  0.24433000  0.18551600  1
  O  O29  1  0.64522800  0.27119100  0.12881600  1
loop_
_geom_bond_atom_site_label_1
_geom_bond_atom_site_label_2
_geom_bond_distance
_geom_bond_site_symmetry_2
Li0 O11 1.882126 1_456
Li0 O26 1.890606 1_545
Li0 O1 2.044144 1_555
Li0 O2 2.112462 1_455
Li1 O4 1.882126 1_655
Li1 O9 1.890606 1_545
Li1 O18 2.044144 1_555
Li1 O24 2.112462 1_655
Mn0 O8 2.118583 1_555
Mn0 O4 2.238181 1_565
Mn0 O12 2.238400 1_555
Mn0 O24 2.239056 1_565
Mn0 O25 2.398316 1_555
Mn0 O10 2.529852 1_565
Mn1 O3 2.174048 1_545
Mn1 O18 2.203747 1_555
Mn1 O6 2.214620 1_555
Mn1 O9 2.286756 1_545
Mn1 O10 2.373500 1_555
Mn1 O25 2.487842 1_545
Mn2 O14 2.118583 1_556
Mn2 O11 2.238181 1_566
Mn2 O22 2.238400 1_555
Mn2 O2 2.239056 1_565
Mn2 O0 2.398316 1_556
Mn2 O5 2.529852 1_565
Mn3 O23 2.174048 1_545
Mn3 O1 2.203747 1_554
Mn3 O16 2.214620 1_555
Mn3 O26 2.286756 1_544
Mn3 O5 2.373500 1_554
Mn3 O0 2.487842 1_545
O0 P9 1.518420 1_555
O1 P6 1.504252 1_555
O2 P8 1.507761 1_555
O3 P8 1.495235 1_565
O4 P0 1.502679 1_555
O5 P3 1.517200 1_555
O6 P4 1.503594 1_555
O7 P4 1.601649 1_555
O7 P3 1.601694 1_555
O8 P0 1.495328 1_555
O9 P2 1.502721 1_555
O10 P5 1.517200 1_555
O11 P1 1.502679 1_555
O12 P5 1.503950 1_555
O13 P0 1.609328 1_555
O13 P8 1.622013 1_455
O14 P1 1.495328 1_555
O15 P3 1.597118 1_555
O15 P6 1.603374 1_555
O16 P9 1.503594 1_555
O17 P6 1.608508 1_555
O17 P8 1.630022 1_465
O18 P2 1.504252 1_555
O19 P4 1.597106 1_555
O19 P0 1.606588 1_555
O20 P9 1.601649 1_555
O20 P5 1.601694 1_555
O21 P2 1.608508 1_555
O21 P7 1.630022 1_665
O22 P3 1.503950 1_555
O23 P7 1.495235 1_565
O24 P7 1.507761 1_555
O25 P4 1.518420 1_555
O26 P6 1.502721 1_555
O27 P5 1.597118 1_555
O27 P2 1.603374 1_555
O28 P1 1.609328 1_555
O28 P7 1.622013 1_655
O29 P9 1.597106 1_555
O29 P1 1.606588 1_555
