# generated using pymatgen
data_TeOsBr9
_symmetry_space_group_name_H-M   'P 1'
_cell_length_a   11.52913629
_cell_length_b   6.71975593
_cell_length_c   10.08292660
_cell_angle_alpha   75.50598241
_cell_angle_beta   90.00000000
_cell_angle_gamma   90.00000000
_symmetry_Int_Tables_number   1
_chemical_formula_structural   TeOsBr9
_chemical_formula_sum   'Te2 Os2 Br18'
_cell_volume   756.29319698
_cell_formula_units_Z   2
loop_
 _symmetry_equiv_pos_site_id
 _symmetry_equiv_pos_as_xyz
  1  'x, y, z'
loop_
 _atom_site_type_symbol
 _atom_site_label
 _atom_site_symmetry_multiplicity
 _atom_site_fract_x
 _atom_site_fract_y
 _atom_site_fract_z
 _atom_site_occupancy
  Te  Te0  1  0.25000000  0.75748441  0.46342953  1
  Te  Te1  1  0.75000000  0.24251559  0.53657047  1
  Os  Os0  1  0.25000000  0.64490505  0.85231276  1
  Os  Os1  1  0.75000000  0.35509495  0.14768724  1
  Br  Br0  1  0.59826911  0.46231923  0.29979141  1
  Br  Br1  1  0.09826911  0.53768077  0.70020859  1
  Br  Br2  1  0.40173089  0.53768077  0.70020859  1
  Br  Br3  1  0.90173089  0.46231923  0.29979141  1
  Br  Br4  1  0.75000000  0.69950130  0.00225520  1
  Br  Br5  1  0.25000000  0.30049870  0.99774480  1
  Br  Br6  1  0.75000000  0.53431136  0.65368831  1
  Br  Br7  1  0.25000000  0.46568864  0.34631169  1
  Br  Br8  1  0.75000000  0.00478945  0.31886754  1
  Br  Br9  1  0.25000000  0.99521055  0.68113246  1
  Br  Br10  1  0.90304433  0.23947307  0.02171467  1
  Br  Br11  1  0.40304433  0.76052693  0.97828533  1
  Br  Br12  1  0.09695567  0.76052693  0.97828533  1
  Br  Br13  1  0.59695567  0.23947307  0.02171467  1
  Br  Br14  1  0.91377037  0.04129221  0.67468309  1
  Br  Br15  1  0.41377037  0.95870779  0.32531691  1
  Br  Br16  1  0.08622963  0.95870779  0.32531691  1
  Br  Br17  1  0.58622963  0.04129221  0.67468309  1
loop_
_geom_bond_atom_site_label_1
_geom_bond_atom_site_label_2
_geom_bond_distance
_geom_bond_site_symmetry_2
Br0 Os1 2.546473 1_555
Br0 Te1 3.029264 1_555
Br1 Os0 2.546473 1_555
Br1 Te0 3.029264 1_555
Br2 Os0 2.546473 1_555
Br2 Te0 3.029264 1_555
Br3 Os1 2.546473 1_555
Br3 Te1 3.029264 1_555
Br4 Os1 2.409906 1_555
Br5 Os0 2.409906 1_555
Br6 Te1 2.529478 1_555
Br7 Te0 2.529478 1_555
Br8 Os1 2.546860 1_555
Br8 Te1 3.020846 1_555
Br9 Os0 2.546860 1_555
Br9 Te0 3.020846 1_555
Br10 Os1 2.413363 1_555
Br11 Os0 2.413363 1_555
Br12 Os0 2.413363 1_555
Br13 Os1 2.413363 1_555
Br14 Te1 2.527871 1_555
Br15 Te0 2.527871 1_555
Br16 Te0 2.527871 1_555
Br17 Te1 2.527871 1_555
