# generated using pymatgen
data_Cs3KCaCl6
_symmetry_space_group_name_H-M   'P 1'
_cell_length_a   9.22629039
_cell_length_b   9.22629087
_cell_length_c   9.22629041
_cell_angle_alpha   91.54161736
_cell_angle_beta   91.54161927
_cell_angle_gamma   91.54161970
_symmetry_Int_Tables_number   1
_chemical_formula_structural   Cs3KCaCl6
_chemical_formula_sum   'Cs6 K2 Ca2 Cl12'
_cell_volume   784.51435874
_cell_formula_units_Z   2
loop_
 _symmetry_equiv_pos_site_id
 _symmetry_equiv_pos_as_xyz
  1  'x, y, z'
loop_
 _atom_site_type_symbol
 _atom_site_label
 _atom_site_symmetry_multiplicity
 _atom_site_fract_x
 _atom_site_fract_y
 _atom_site_fract_z
 _atom_site_occupancy
  Cs  Cs0  1  0.37853426  0.12146574  0.75000000  1
  Cs  Cs1  1  0.12146574  0.75000000  0.37853426  1
  Cs  Cs2  1  0.75000000  0.37853426  0.12146574  1
  Cs  Cs3  1  0.62146574  0.87853426  0.25000000  1
  Cs  Cs4  1  0.25000000  0.62146574  0.87853426  1
  Cs  Cs5  1  0.87853426  0.25000000  0.62146574  1
  K  K0  1  0.25000000  0.25000000  0.25000000  1
  K  K1  1  0.75000000  0.75000000  0.75000000  1
  Ca  Ca0  1  0.00000000  0.00000000  0.00000000  1
  Ca  Ca1  1  0.50000000  0.50000000  0.50000000  1
  Cl  Cl0  1  0.95258176  0.08164467  0.28302005  1
  Cl  Cl1  1  0.08164467  0.28302005  0.95258176  1
  Cl  Cl2  1  0.28302005  0.95258176  0.08164467  1
  Cl  Cl3  1  0.58164467  0.45258176  0.78302005  1
  Cl  Cl4  1  0.78302005  0.58164467  0.45258176  1
  Cl  Cl5  1  0.45258176  0.78302005  0.58164467  1
  Cl  Cl6  1  0.21697995  0.41835533  0.54741824  1
  Cl  Cl7  1  0.41835533  0.54741824  0.21697995  1
  Cl  Cl8  1  0.54741824  0.21697995  0.41835533  1
  Cl  Cl9  1  0.91835533  0.71697995  0.04741824  1
  Cl  Cl10  1  0.04741824  0.91835533  0.71697995  1
  Cl  Cl11  1  0.71697995  0.04741824  0.91835533  1
loop_
_geom_bond_atom_site_label_1
_geom_bond_atom_site_label_2
_geom_bond_distance
_geom_bond_site_symmetry_2
Ca0 Cl2 2.747852 1_545
Ca0 Cl11 2.747852 1_454
Ca0 Cl10 2.747852 1_544
Ca0 Cl0 2.747852 1_455
Ca0 Cl1 2.747852 1_554
Ca0 Cl9 2.747852 1_445
Ca1 Cl3 2.747852 1_555
Ca1 Cl7 2.747852 1_555
Ca1 Cl4 2.747852 1_555
Ca1 Cl6 2.747852 1_555
Ca1 Cl5 2.747852 1_555
Ca1 Cl8 2.747852 1_555
Cl0 K0 3.142697 1_655
Cl0 Cs5 3.541326 1_555
Cl0 Cs3 3.542393 1_545
Cl0 Cs1 3.590949 1_645
Cl0 Cs2 3.682880 1_555
Cl1 K0 3.142697 1_556
Cl1 Cs4 3.541326 1_555
Cl1 Cs5 3.542393 1_455
Cl1 Cs2 3.590948 1_456
Cl1 Cs0 3.682880 1_555
Cl2 K0 3.142697 1_565
Cl2 Cs3 3.541326 1_555
Cl2 Cs4 3.542393 1_554
Cl2 Cs0 3.590948 1_564
Cl2 Cs1 3.682880 1_555
Cl3 K1 3.142697 1_555
Cl3 Cs2 3.541326 1_556
Cl3 Cs0 3.542393 1_555
Cl3 Cs4 3.590948 1_555
Cl3 Cs5 3.682880 1_555
Cl4 K1 3.142697 1_555
Cl4 Cs1 3.541326 1_655
Cl4 Cs2 3.542393 1_555
Cl4 Cs5 3.590949 1_555
Cl4 Cs3 3.682880 1_555
Cl5 K1 3.142697 1_555
Cl5 Cs0 3.541327 1_565
Cl5 Cs1 3.542393 1_555
Cl5 Cs3 3.590948 1_555
Cl5 Cs4 3.682880 1_555
Cl6 K0 3.142697 1_555
Cl6 Cs5 3.541326 1_455
Cl6 Cs4 3.542393 1_555
Cl6 Cs1 3.590949 1_555
Cl6 Cs0 3.682880 1_555
Cl7 K0 3.142697 1_555
Cl7 Cs4 3.541326 1_554
Cl7 Cs3 3.542393 1_555
Cl7 Cs2 3.590948 1_555
Cl7 Cs1 3.682880 1_555
Cl8 K0 3.142697 1_555
Cl8 Cs3 3.541327 1_545
Cl8 Cs5 3.542393 1_555
Cl8 Cs0 3.590948 1_555
Cl8 Cs2 3.682880 1_555
Cl9 K1 3.142697 1_554
Cl9 Cs2 3.541326 1_555
Cl9 Cs1 3.542393 1_655
Cl9 Cs4 3.590948 1_654
Cl9 Cs3 3.682880 1_555
Cl10 K1 3.142697 1_455
Cl10 Cs1 3.541326 1_555
Cl10 Cs0 3.542393 1_565
Cl10 Cs5 3.590949 1_465
Cl10 Cs4 3.682880 1_555
Cl11 K1 3.142697 1_545
Cl11 Cs0 3.541326 1_555
Cl11 Cs2 3.542393 1_556
Cl11 Cs3 3.590948 1_546
Cl11 Cs5 3.682880 1_555
