# generated using pymatgen
data_ZrNi4Au
_symmetry_space_group_name_H-M   'P 1'
_cell_length_a   4.78999015
_cell_length_b   4.78999007
_cell_length_c   4.78998956
_cell_angle_alpha   59.99999686
_cell_angle_beta   59.99999744
_cell_angle_gamma   59.99999389
_symmetry_Int_Tables_number   1
_chemical_formula_structural   ZrNi4Au
_chemical_formula_sum   'Zr1 Ni4 Au1'
_cell_volume   77.71212134
_cell_formula_units_Z   1
loop_
 _symmetry_equiv_pos_site_id
 _symmetry_equiv_pos_as_xyz
  1  'x, y, z'
loop_
 _atom_site_type_symbol
 _atom_site_label
 _atom_site_symmetry_multiplicity
 _atom_site_fract_x
 _atom_site_fract_y
 _atom_site_fract_z
 _atom_site_occupancy
  Zr  Zr0  1  0.00000000  0.00000000  0.00000000  1
  Ni  Ni0  1  0.37550890  0.87347330  0.37550890  1
  Ni  Ni1  1  0.37550890  0.37550890  0.87347330  1
  Ni  Ni2  1  0.87347330  0.37550890  0.37550890  1
  Ni  Ni3  1  0.37550890  0.37550890  0.37550890  1
  Au  Au0  1  0.75000000  0.75000000  0.75000000  1
loop_
_geom_bond_atom_site_label_1
_geom_bond_atom_site_label_2
_geom_bond_distance
_geom_bond_site_symmetry_2
Ni0 Ni1 2.385244 1_555
Ni0 Ni2 2.385244 1_555
Ni0 Ni3 2.385245 1_555
Ni0 Ni1 2.404745 1_564
Ni0 Ni2 2.404745 1_465
Ni0 Ni3 2.404746 1_565
Ni0 Zr0 2.809426 1_566
Ni0 Zr0 2.809426 1_565
Ni0 Zr0 2.809426 1_665
Ni1 Ni3 2.385244 1_555
Ni1 Ni2 2.385244 1_555
Ni1 Ni3 2.404745 1_556
Ni1 Ni2 2.404745 1_456
Ni1 Zr0 2.809426 1_566
Ni1 Zr0 2.809426 1_656
Ni1 Zr0 2.809426 1_556
Ni2 Ni3 2.385245 1_555
Ni2 Ni3 2.404746 1_655
Ni2 Zr0 2.809426 1_656
Ni2 Zr0 2.809426 1_655
Ni2 Zr0 2.809426 1_665
Ni3 Zr0 2.809426 1_565
Ni3 Zr0 2.809426 1_655
Ni3 Zr0 2.809426 1_556
Au0 Ni2 2.807347 1_556
Au0 Ni0 2.807347 1_556
Au0 Ni3 2.807347 1_565
Au0 Ni3 2.807347 1_655
Au0 Ni1 2.807347 1_565
Au0 Ni3 2.807347 1_556
Au0 Ni2 2.807347 1_555
Au0 Ni1 2.807347 1_655
Au0 Ni0 2.807347 1_555
Au0 Ni2 2.807347 1_565
Au0 Ni0 2.807347 1_655
Au0 Ni1 2.807347 1_555
Au0 Zr0 2.933257 1_665
Au0 Zr0 2.933258 1_656
Au0 Zr0 2.933258 1_566
Au0 Zr0 2.933258 1_666
