# generated using pymatgen
data_KBe(Cu2Si)4
_symmetry_space_group_name_H-M   'P 1'
_cell_length_a   8.07085477
_cell_length_b   8.07085509
_cell_length_c   8.07085470
_cell_angle_alpha   120.51881395
_cell_angle_beta   120.51881454
_cell_angle_gamma   89.10371118
_symmetry_Int_Tables_number   1
_chemical_formula_structural   KBe(Cu2Si)4
_chemical_formula_sum   'K2 Be2 Cu16 Si8'
_cell_volume   368.77960504
_cell_formula_units_Z   2
loop_
 _symmetry_equiv_pos_site_id
 _symmetry_equiv_pos_as_xyz
  1  'x, y, z'
loop_
 _atom_site_type_symbol
 _atom_site_label
 _atom_site_symmetry_multiplicity
 _atom_site_fract_x
 _atom_site_fract_y
 _atom_site_fract_z
 _atom_site_occupancy
  K  K0  1  0.25000000  0.25000000  0.00000000  1
  K  K1  1  0.75000000  0.75000000  0.00000000  1
  Be  Be0  1  0.50000000  0.00000000  0.50000000  1
  Be  Be1  1  0.00000000  0.50000000  0.50000000  1
  Cu  Cu0  1  0.94170101  0.21203990  0.15373991  1
  Cu  Cu1  1  0.21203990  0.05829899  0.27033989  1
  Cu  Cu2  1  0.78796010  0.94170101  0.72966011  1
  Cu  Cu3  1  0.44170101  0.28796010  0.72966011  1
  Cu  Cu4  1  0.05829899  0.78796010  0.84626009  1
  Cu  Cu5  1  0.79705426  0.06081237  0.50000000  1
  Cu  Cu6  1  0.56081237  0.29705426  0.50000000  1
  Cu  Cu7  1  0.20294574  0.93918763  0.50000000  1
  Cu  Cu8  1  0.43918763  0.70294574  0.50000000  1
  Cu  Cu9  1  0.93918763  0.43918763  0.73624089  1
  Cu  Cu10  1  0.70294574  0.20294574  0.26375911  1
  Cu  Cu11  1  0.06081237  0.56081237  0.26375911  1
  Cu  Cu12  1  0.71203990  0.44170101  0.15373991  1
  Cu  Cu13  1  0.55829899  0.71203990  0.27033989  1
  Cu  Cu14  1  0.29705426  0.79705426  0.73624089  1
  Cu  Cu15  1  0.28796010  0.55829899  0.84626009  1
  Si  Si0  1  0.79302271  0.29302271  0.85622379  1
  Si  Si1  1  0.56320208  0.06320208  0.85622379  1
  Si  Si2  1  0.06320208  0.20697729  0.50000000  1
  Si  Si3  1  0.29302271  0.43679792  0.50000000  1
  Si  Si4  1  0.93679792  0.79302271  0.50000000  1
  Si  Si5  1  0.43679792  0.93679792  0.14377621  1
  Si  Si6  1  0.20697729  0.70697729  0.14377621  1
  Si  Si7  1  0.70697729  0.56320208  0.50000000  1
loop_
_geom_bond_atom_site_label_1
_geom_bond_atom_site_label_2
_geom_bond_distance
_geom_bond_site_symmetry_2
K0 Si0 3.330515 1_454
K0 Si6 3.330515 1_555
K0 Si2 3.330517 1_554
K0 Si3 3.330517 1_555
K0 Si7 3.330517 1_555
K0 Si4 3.330517 1_444
K0 Si1 3.330521 1_554
K0 Si5 3.330521 1_545
K1 Si6 3.330515 1_655
K1 Si0 3.330515 1_554
K1 Si4 3.330517 1_555
K1 Si7 3.330517 1_554
K1 Si3 3.330517 1_554
K1 Si2 3.330517 1_665
K1 Si5 3.330521 1_555
K1 Si1 3.330521 1_564
Be0 Cu2 2.352613 1_545
Be0 Cu1 2.352613 1_555
Be0 Cu3 2.352613 1_555
Be0 Cu13 2.352613 1_545
Be0 Si1 2.411509 1_555
Be0 Si5 2.411509 1_545
Be0 Si0 2.411516 1_555
Be0 Si6 2.411516 1_545
Be0 Cu5 2.454715 1_555
Be0 Cu7 2.454715 1_545
Be0 Cu6 2.454715 1_555
Be0 Cu8 2.454715 1_545
Be1 Cu15 2.352621 1_555
Be1 Cu12 2.352621 1_455
Be1 Cu4 2.352621 1_555
Be1 Cu0 2.352621 1_455
Be1 Si3 2.411517 1_555
Be1 Si7 2.411517 1_455
Be1 Si4 2.411517 1_455
Be1 Si2 2.411517 1_555
Be1 Cu11 2.454707 1_555
Be1 Cu9 2.454707 1_455
Be1 Cu14 2.454717 1_555
Be1 Cu10 2.454717 1_455
Cu0 Si3 2.470734 1_655
Cu0 Si2 2.470740 1_655
Cu0 Cu2 2.490306 1_544
Cu0 Cu1 2.490309 1_655
Cu0 Si0 2.505179 1_554
Cu0 Si1 2.505179 1_554
Cu0 Cu11 2.513034 1_655
Cu0 Cu10 2.513053 1_555
Cu0 Cu12 2.600749 1_555
Cu0 K0 3.372013 1_655
Cu0 K1 3.372023 1_545
Cu1 Si5 2.470732 1_545
Cu1 Si6 2.470733 1_545
Cu1 Cu4 2.490306 1_544
Cu1 Si2 2.505173 1_555
Cu1 Si3 2.505179 1_555
Cu1 Cu7 2.513033 1_545
Cu1 Cu6 2.513043 1_555
Cu1 Cu3 2.600737 1_555
Cu1 K1 3.372017 1_445
Cu1 K0 3.372027 1_555
Cu2 Si1 2.470732 1_565
Cu2 Si0 2.470733 1_565
Cu2 Cu4 2.490309 1_655
Cu2 Si4 2.505173 1_555
Cu2 Si7 2.505179 1_555
Cu2 Cu5 2.513033 1_565
Cu2 Cu8 2.513043 1_555
Cu2 K0 3.372017 1_666
Cu2 K1 3.372027 1_556
Cu3 Si0 2.470732 1_555
Cu3 Si1 2.470732 1_555
Cu3 Si3 2.505173 1_555
Cu3 Si2 2.505179 1_555
Cu3 Cu6 2.513033 1_555
Cu3 Cu7 2.513043 1_545
Cu3 K1 3.372017 1_556
Cu3 K0 3.372027 1_556
Cu4 Si7 2.470734 1_455
Cu4 Si4 2.470740 1_455
Cu4 Si6 2.505179 1_556
Cu4 Si5 2.505179 1_556
Cu4 Cu9 2.513034 1_455
Cu4 K1 3.372013 1_456
Cu4 K0 3.372023 1_566
Cu5 Si4 2.422182 1_545
Cu5 Si2 2.466777 1_655
Cu5 Cu9 2.500312 1_555
Cu5 Si0 2.529795 1_555
Cu5 Si5 2.529799 1_545
Cu5 Cu6 2.675271 1_555
Cu5 K0 3.303570 1_656
Cu5 K1 3.303570 1_545
Cu6 Si3 2.422182 1_555
Cu6 Si7 2.466777 1_555
Cu6 Cu9 2.500312 1_555
Cu6 Si0 2.529795 1_555
Cu6 Si5 2.529799 1_545
Cu6 K0 3.303570 1_555
Cu6 K1 3.303571 1_556
Cu7 Si2 2.422182 1_565
Cu7 Si4 2.466777 1_455
Cu7 Si6 2.529795 1_555
Cu7 Si1 2.529799 1_565
Cu7 Cu8 2.675271 1_555
Cu7 K1 3.303570 1_455
Cu7 K0 3.303570 1_566
Cu8 Si7 2.422182 1_555
Cu8 Si3 2.466777 1_555
Cu8 Si6 2.529795 1_555
Cu8 Si1 2.529799 1_565
Cu8 K1 3.303570 1_556
Cu8 K0 3.303571 1_555
Cu9 Si6 2.422190 1_656
Cu9 Si0 2.466777 1_555
Cu9 Si7 2.529797 1_555
Cu9 Si2 2.529797 1_655
Cu9 K0 3.303574 1_656
Cu9 K1 3.303574 1_556
Cu10 Si1 2.422197 1_554
Cu10 Si5 2.466777 1_545
Cu10 Cu6 2.500305 1_555
Cu10 Cu5 2.500305 1_555
Cu10 Cu12 2.513053 1_555
Cu10 Si2 2.529800 1_655
Cu10 Si7 2.529800 1_555
Cu10 Cu9 2.675260 1_555
Cu10 K0 3.303572 1_555
Cu10 K1 3.303572 1_545
Cu11 Si0 2.422190 1_454
Cu11 Si6 2.466777 1_555
Cu11 Cu8 2.500312 1_555
Cu11 Cu7 2.500312 1_555
Cu11 Cu12 2.513034 1_455
Cu11 Si3 2.529797 1_555
Cu11 Si4 2.529797 1_455
Cu11 Cu14 2.675260 1_555
Cu11 K1 3.303574 1_455
Cu11 K0 3.303574 1_555
Cu12 Si4 2.470734 1_555
Cu12 Si7 2.470740 1_555
Cu12 Cu3 2.490306 1_554
Cu12 Cu13 2.490309 1_555
Cu12 Si0 2.505179 1_554
Cu12 Si1 2.505179 1_554
Cu12 K1 3.372013 1_555
Cu12 K0 3.372023 1_555
Cu13 Si6 2.470732 1_555
Cu13 Si5 2.470732 1_555
Cu13 Cu15 2.490306 1_554
Cu13 Si7 2.505173 1_555
Cu13 Si4 2.505179 1_555
Cu13 Cu8 2.513033 1_555
Cu13 Cu5 2.513043 1_565
Cu13 Cu2 2.600737 1_555
Cu13 K0 3.372017 1_555
Cu13 K1 3.372027 1_555
Cu14 Si5 2.422197 1_556
Cu14 Si1 2.466777 1_565
Cu14 Cu8 2.500305 1_555
Cu14 Cu7 2.500305 1_555
Cu14 Cu4 2.513053 1_555
Cu14 Cu15 2.513053 1_555
Cu14 Si4 2.529800 1_455
Cu14 Si3 2.529800 1_555
Cu14 K1 3.303572 1_556
Cu14 K0 3.303572 1_566
Cu15 Si2 2.470734 1_555
Cu15 Si3 2.470740 1_555
Cu15 Cu3 2.490309 1_555
Cu15 Si6 2.505179 1_556
Cu15 Si5 2.505179 1_556
Cu15 Cu9 2.513034 1_455
Cu15 Cu4 2.600749 1_555
Cu15 K0 3.372013 1_556
Cu15 K1 3.372023 1_556
Si0 Si1 2.643589 1_555
Si2 Si3 2.643589 1_555
Si4 Si7 2.643589 1_555
Si5 Si6 2.643589 1_555
