# generated using pymatgen
data_Cd(GaBr4)2
_symmetry_space_group_name_H-M   'P 1'
_cell_length_a   7.07284582
_cell_length_b   7.53746510
_cell_length_c   13.78589436
_cell_angle_alpha   87.40932269
_cell_angle_beta   90.00000000
_cell_angle_gamma   90.00000000
_symmetry_Int_Tables_number   1
_chemical_formula_structural   Cd(GaBr4)2
_chemical_formula_sum   'Cd2 Ga4 Br16'
_cell_volume   734.19318404
_cell_formula_units_Z   2
loop_
 _symmetry_equiv_pos_site_id
 _symmetry_equiv_pos_as_xyz
  1  'x, y, z'
loop_
 _atom_site_type_symbol
 _atom_site_label
 _atom_site_symmetry_multiplicity
 _atom_site_fract_x
 _atom_site_fract_y
 _atom_site_fract_z
 _atom_site_occupancy
  Cd  Cd0  1  0.76023831  0.07464620  0.81402267  1
  Cd  Cd1  1  0.23976169  0.07464620  0.31402267  1
  Ga  Ga0  1  0.92925439  0.22641534  0.57782927  1
  Ga  Ga1  1  0.07074561  0.22641534  0.07782927  1
  Ga  Ga2  1  0.58343753  0.63568661  0.77581144  1
  Ga  Ga3  1  0.41656247  0.63568661  0.27581144  1
  Br  Br0  1  0.42440790  0.61224890  0.63364843  1
  Br  Br1  1  0.57559210  0.61224890  0.13364843  1
  Br  Br2  1  0.89908756  0.73637649  0.75876701  1
  Br  Br3  1  0.10091244  0.73637649  0.25876701  1
  Br  Br4  1  0.93050047  0.49073623  0.49208195  1
  Br  Br5  1  0.06949953  0.49073623  0.99208195  1
  Br  Br6  1  0.91584601  0.99412391  0.99844753  1
  Br  Br7  1  0.08415399  0.99412391  0.49844753  1
  Br  Br8  1  0.62239451  0.12228092  0.62041073  1
  Br  Br9  1  0.37760549  0.12228092  0.12041073  1
  Br  Br10  1  0.57203748  0.37232194  0.87792737  1
  Br  Br11  1  0.42796252  0.37232194  0.37792737  1
  Br  Br12  1  0.44900612  0.86409550  0.86916999  1
  Br  Br13  1  0.55099388  0.86409550  0.36916999  1
  Br  Br14  1  0.92501587  0.23846796  0.23408561  1
  Br  Br15  1  0.07498413  0.23846796  0.73408561  1
loop_
_geom_bond_atom_site_label_1
_geom_bond_atom_site_label_2
_geom_bond_distance
_geom_bond_site_symmetry_2
Br0 Ga2 2.273468 1_555
Br1 Ga3 2.273468 1_555
Br2 Ga2 2.366293 1_555
Br2 Cd0 2.867269 1_565
Br3 Ga3 2.366293 1_555
Br3 Cd1 2.867269 1_565
Br4 Ga0 2.270207 1_555
Br5 Ga1 2.270207 1_556
Br6 Ga1 2.374178 1_666
Br6 Cd0 2.811455 1_565
Br7 Ga0 2.374178 1_465
Br7 Cd1 2.811455 1_565
Br8 Ga0 2.372666 1_555
Br8 Cd0 2.849030 1_555
Br9 Ga1 2.372666 1_555
Br9 Cd1 2.849030 1_555
Br10 Ga2 2.382496 1_555
Br10 Cd0 2.785853 1_555
Br11 Ga3 2.382496 1_555
Br11 Cd1 2.785853 1_555
Br12 Ga2 2.392654 1_555
Br12 Cd0 2.798795 1_565
Br13 Ga3 2.392654 1_555
Br13 Cd1 2.798795 1_565
Br14 Ga1 2.393455 1_655
Br14 Cd1 2.751703 1_655
Br15 Ga0 2.393455 1_455
Br15 Cd0 2.751703 1_455
