# generated using pymatgen
data_Sc5(GeBi)2
_symmetry_space_group_name_H-M   'P 1'
_cell_length_a   8.17559816
_cell_length_b   8.17559783
_cell_length_c   7.54760956
_cell_angle_alpha   90.00000000
_cell_angle_beta   90.00000000
_cell_angle_gamma   125.11320860
_symmetry_Int_Tables_number   1
_chemical_formula_structural   Sc5(GeBi)2
_chemical_formula_sum   'Sc10 Ge4 Bi4'
_cell_volume   412.67758967
_cell_formula_units_Z   2
loop_
 _symmetry_equiv_pos_site_id
 _symmetry_equiv_pos_as_xyz
  1  'x, y, z'
loop_
 _atom_site_type_symbol
 _atom_site_label
 _atom_site_symmetry_multiplicity
 _atom_site_fract_x
 _atom_site_fract_y
 _atom_site_fract_z
 _atom_site_occupancy
  Sc  Sc0  1  0.03820391  0.27939516  0.34031216  1
  Sc  Sc1  1  0.96179609  0.72060484  0.65968784  1
  Sc  Sc2  1  0.46179609  0.22060484  0.84031216  1
  Sc  Sc3  1  0.77939516  0.53820391  0.15968784  1
  Sc  Sc4  1  0.53820391  0.77939516  0.15968784  1
  Sc  Sc5  1  0.22060484  0.46179609  0.84031216  1
  Sc  Sc6  1  0.72060484  0.96179609  0.65968784  1
  Sc  Sc7  1  0.27939516  0.03820391  0.34031216  1
  Sc  Sc8  1  0.00000000  0.00000000  0.00000000  1
  Sc  Sc9  1  0.50000000  0.50000000  0.50000000  1
  Ge  Ge0  1  0.35669562  0.35669562  0.14122808  1
  Ge  Ge1  1  0.64330438  0.64330438  0.85877192  1
  Ge  Ge2  1  0.14330438  0.14330438  0.64122808  1
  Ge  Ge3  1  0.85669562  0.85669562  0.35877192  1
  Bi  Bi0  1  0.79384146  0.20615854  0.00000000  1
  Bi  Bi1  1  0.20615954  0.79384146  0.00000000  1
  Bi  Bi2  1  0.70615854  0.29384146  0.50000000  1
  Bi  Bi3  1  0.29384146  0.70615854  0.50000000  1
loop_
_geom_bond_atom_site_label_1
_geom_bond_atom_site_label_2
_geom_bond_distance
_geom_bond_site_symmetry_2
Ge0 Sc7 2.746682 1_555
Ge0 Sc0 2.746682 1_555
Ge0 Sc2 2.869564 1_554
Ge0 Sc5 2.869564 1_554
Ge0 Sc4 2.874846 1_555
Ge0 Sc3 2.874846 1_555
Ge0 Sc8 2.891627 1_555
Ge0 Sc9 2.915266 1_555
Ge1 Sc6 2.746682 1_555
Ge1 Sc1 2.746682 1_555
Ge1 Sc4 2.869564 1_556
Ge1 Sc3 2.869564 1_556
Ge1 Sc2 2.874846 1_555
Ge1 Sc5 2.874846 1_555
Ge1 Sc8 2.891627 1_666
Ge1 Sc9 2.915266 1_555
Ge2 Sc5 2.746682 1_555
Ge2 Sc2 2.746682 1_555
Ge2 Sc0 2.869564 1_555
Ge2 Sc7 2.869564 1_555
Ge2 Sc1 2.874846 1_445
Ge2 Sc6 2.874846 1_445
Ge2 Sc9 2.891627 1_555
Ge2 Sc8 2.915266 1_556
Ge3 Sc3 2.746682 1_555
Ge3 Sc4 2.746682 1_555
Ge3 Sc1 2.869564 1_555
Ge3 Sc6 2.869564 1_555
Ge3 Sc0 2.874846 1_665
Ge3 Sc7 2.874846 1_665
Ge3 Sc9 2.891627 1_555
Ge3 Sc8 2.915266 1_665
Bi0 Sc8 2.991595 1_655
Bi0 Sc3 3.033953 1_555
Bi0 Sc2 3.033954 1_554
Bi0 Sc6 3.093715 1_544
Bi0 Sc0 3.093715 1_655
Bi0 Sc4 3.099265 1_545
Bi0 Sc5 3.099265 1_654
Bi1 Sc8 2.991603 1_565
Bi1 Sc4 3.033946 1_555
Bi1 Sc5 3.033949 1_554
Bi1 Sc7 3.093717 1_565
Bi1 Sc1 3.093720 1_454
Bi1 Sc2 3.099265 1_564
Bi1 Sc3 3.099271 1_455
Bi2 Sc9 2.991595 1_555
Bi2 Sc6 3.033953 1_545
Bi2 Sc0 3.033954 1_655
Bi2 Sc3 3.093715 1_555
Bi2 Sc2 3.093715 1_555
Bi2 Sc1 3.099265 1_555
Bi2 Sc7 3.099265 1_555
Bi3 Sc9 2.991595 1_555
Bi3 Sc7 3.033953 1_565
Bi3 Sc1 3.033954 1_455
Bi3 Sc5 3.093715 1_555
Bi3 Sc4 3.093715 1_555
Bi3 Sc0 3.099265 1_555
Bi3 Sc6 3.099265 1_555
