# generated using pymatgen
data_Ba4Re6O18F
_symmetry_space_group_name_H-M   'P 1'
_cell_length_a   8.14117174
_cell_length_b   8.14117122
_cell_length_c   8.14117177
_cell_angle_alpha   109.47122201
_cell_angle_beta   109.47122070
_cell_angle_gamma   109.47121844
_symmetry_Int_Tables_number   1
_chemical_formula_structural   Ba4Re6O18F
_chemical_formula_sum   'Ba4 Re6 O18 F1'
_cell_volume   415.37354782
_cell_formula_units_Z   1
loop_
 _symmetry_equiv_pos_site_id
 _symmetry_equiv_pos_as_xyz
  1  'x, y, z'
loop_
 _atom_site_type_symbol
 _atom_site_label
 _atom_site_symmetry_multiplicity
 _atom_site_fract_x
 _atom_site_fract_y
 _atom_site_fract_z
 _atom_site_occupancy
  Ba  Ba0  1  0.00000000  0.33414162  0.00000000  1
  Ba  Ba1  1  0.00000000  0.00000000  0.33414162  1
  Ba  Ba2  1  0.66585838  0.66585838  0.66585838  1
  Ba  Ba3  1  0.33414162  1.00000000  1.00000000  1
  Re  Re0  1  0.50000000  0.36528014  0.86528014  1
  Re  Re1  1  0.50000000  0.63471986  0.13471986  1
  Re  Re2  1  0.36528014  0.86528014  0.50000000  1
  Re  Re3  1  0.63471986  0.13471986  0.50000000  1
  Re  Re4  1  0.86528014  0.50000000  0.36528014  1
  Re  Re5  1  0.13471986  0.50000000  0.63471986  1
  O  O0  1  0.69598263  0.35116009  0.06853659  1
  O  O1  1  0.64883991  0.34482254  0.71737650  1
  O  O2  1  0.28262350  0.62744704  0.93146341  1
  O  O3  1  0.65517746  0.30401737  0.37255296  1
  O  O4  1  0.34482254  0.71737650  0.64883991  1
  O  O5  1  0.93146341  0.28262350  0.62744704  1
  O  O6  1  0.06853659  0.69598263  0.35116009  1
  O  O7  1  1.00000000  0.66448798  0.66448798  1
  O  O8  1  0.66448798  0.66448798  1.00000000  1
  O  O9  1  0.71737650  0.64883991  0.34482254  1
  O  O10  1  0.35116009  0.06853659  0.69598263  1
  O  O11  1  0.66448798  0.00000000  0.66448798  1
  O  O12  1  0.00000000  0.33551202  0.33551202  1
  O  O13  1  0.62744704  0.93146341  0.28262350  1
  O  O14  1  0.37255296  0.65517746  0.30401737  1
  O  O15  1  0.30401737  0.37255296  0.65517746  1
  O  O16  1  0.33551202  1.00000000  0.33551202  1
  O  O17  1  0.33551202  0.33551202  0.00000000  1
  F  F0  1  0.00000000  0.00000000  0.00000000  1
loop_
_geom_bond_atom_site_label_1
_geom_bond_atom_site_label_2
_geom_bond_distance
_geom_bond_site_symmetry_2
Ba0 F0 2.720304 1_555
Ba0 O11 2.727762 1_454
Ba0 O17 2.727762 1_555
Ba0 O12 2.727762 1_555
Ba0 O5 2.748479 1_454
Ba0 O14 2.748483 1_555
Ba0 O0 2.748487 1_455
Ba0 O6 3.064071 1_555
Ba0 O1 3.064071 1_454
Ba0 O2 3.064076 1_554
Ba1 F0 2.720304 1_555
Ba1 O12 2.727762 1_555
Ba1 O8 2.727762 1_444
Ba1 O16 2.727762 1_545
Ba1 O13 2.748479 1_445
Ba1 O15 2.748483 1_555
Ba1 O6 2.748487 1_545
Ba1 O9 3.064071 1_445
Ba1 O10 3.064071 1_555
Ba1 O5 3.064076 1_455
Ba2 F0 2.720304 1_666
Ba2 O11 2.727762 1_565
Ba2 O7 2.727762 1_555
Ba2 O8 2.727762 1_555
Ba2 O1 2.748487 1_555
Ba2 O4 2.748487 1_555
Ba2 O9 2.748487 1_555
Ba2 O3 3.064075 1_555
Ba2 O14 3.064075 1_555
Ba2 O15 3.064075 1_555
Ba3 F0 2.720304 1_566
Ba3 O17 2.727762 1_566
Ba3 O7 2.727762 1_455
Ba3 O16 2.727762 1_556
Ba3 O2 2.748479 1_555
Ba3 O3 2.748483 1_566
Ba3 O10 2.748487 1_565
Ba3 O4 3.064071 1_555
Ba3 O0 3.064071 1_566
Ba3 O13 3.064076 1_556
O0 Re0 1.945782 1_554
O0 Re4 1.979763 1_555
O1 Re3 1.945782 1_555
O1 Re0 1.979763 1_555
O2 Re1 1.945786 1_556
O2 Re5 1.979762 1_555
O3 Re4 1.945777 1_555
O3 Re3 1.979769 1_555
O4 Re5 1.945782 1_555
O4 Re2 1.979763 1_555
O5 Re5 1.945786 1_655
O5 Re3 1.979762 1_555
O6 Re4 1.945782 1_455
O6 Re2 1.979763 1_555
O7 Re5 1.998725 1_655
O7 Re4 1.998725 1_555
O8 Re0 1.998725 1_555
O8 Re1 1.998725 1_556
O9 Re1 1.945782 1_555
O9 Re4 1.979763 1_555
O10 Re2 1.945782 1_545
O10 Re0 1.979763 1_555
O11 Re3 1.998725 1_555
O11 Re2 1.998725 1_545
O12 Re4 1.998725 1_455
O12 Re5 1.998725 1_555
O13 Re3 1.945786 1_565
O13 Re1 1.979762 1_555
O14 Re2 1.945777 1_555
O14 Re1 1.979769 1_555
O15 Re0 1.945777 1_555
O15 Re5 1.979769 1_555
O16 Re2 1.998725 1_555
O16 Re3 1.998725 1_565
O17 Re1 1.998725 1_555
O17 Re0 1.998725 1_554
