# generated using pymatgen
data_Zr10Hg3Bi3B2
_symmetry_space_group_name_H-M   'P 1'
_cell_length_a   8.59628171
_cell_length_b   8.59628242
_cell_length_c   5.85413547
_cell_angle_alpha   90.00000000
_cell_angle_beta   90.00000000
_cell_angle_gamma   120.00000101
_symmetry_Int_Tables_number   1
_chemical_formula_structural   Zr10Hg3Bi3B2
_chemical_formula_sum   'Zr10 Hg3 Bi3 B2'
_cell_volume   374.64048768
_cell_formula_units_Z   1
loop_
 _symmetry_equiv_pos_site_id
 _symmetry_equiv_pos_as_xyz
  1  'x, y, z'
loop_
 _atom_site_type_symbol
 _atom_site_label
 _atom_site_symmetry_multiplicity
 _atom_site_fract_x
 _atom_site_fract_y
 _atom_site_fract_z
 _atom_site_occupancy
  Zr  Zr0  1  0.66666700  0.33333300  0.00888624  1
  Zr  Zr1  1  0.33333300  0.66666700  0.00888624  1
  Zr  Zr2  1  0.33333300  0.66666700  0.49111376  1
  Zr  Zr3  1  0.66666700  0.33333300  0.49111376  1
  Zr  Zr4  1  0.77523793  0.77523793  0.75000000  1
  Zr  Zr5  1  0.22476207  1.00000000  0.75000000  1
  Zr  Zr6  1  0.00000000  0.22476207  0.75000000  1
  Zr  Zr7  1  0.22808703  0.22808703  0.25000000  1
  Zr  Zr8  1  0.77191297  1.00000000  0.25000000  1
  Zr  Zr9  1  0.00000000  0.77191297  0.25000000  1
  Hg  Hg0  1  0.60679785  0.60679785  0.25000000  1
  Hg  Hg1  1  0.39320215  1.00000000  0.25000000  1
  Hg  Hg2  1  0.00000000  0.39320215  0.25000000  1
  Bi  Bi0  1  0.39851923  0.39851923  0.75000000  1
  Bi  Bi1  1  0.60148077  0.00000000  0.75000000  1
  Bi  Bi2  1  1.00000000  0.60148077  0.75000000  1
  B  B0  1  0.00000000  0.00000000  0.00288007  1
  B  B1  1  0.00000000  0.00000000  0.49711993  1
loop_
_geom_bond_atom_site_label_1
_geom_bond_atom_site_label_2
_geom_bond_distance
_geom_bond_site_symmetry_2
Hg0 Zr9 2.939719 1_655
Hg0 Zr8 2.939719 1_555
Hg0 Zr2 2.998873 1_555
Hg0 Zr1 2.998873 1_555
Hg0 Zr3 2.998873 1_555
Hg0 Zr0 2.998873 1_555
Hg0 Zr7 3.255505 1_555
Hg0 Zr4 3.265625 1_555
Hg0 Zr4 3.265625 1_554
Hg1 Zr9 2.939719 1_555
Hg1 Zr7 2.939719 1_565
Hg1 Zr2 2.998866 1_555
Hg1 Zr1 2.998866 1_555
Hg1 Zr3 2.998868 1_565
Hg1 Zr0 2.998868 1_565
Hg1 Zr8 3.255505 1_555
Hg1 Zr5 3.265625 1_555
Hg1 Zr5 3.265625 1_554
Hg2 Zr7 2.939719 1_555
Hg2 Zr8 2.939719 1_445
Hg2 Zr3 2.998866 1_455
Hg2 Zr0 2.998866 1_455
Hg2 Zr2 2.998868 1_555
Hg2 Zr1 2.998868 1_555
Hg2 Zr9 3.255505 1_555
Hg2 Zr6 3.265625 1_554
Hg2 Zr6 3.265625 1_555
Bi0 Zr6 2.974904 1_555
Bi0 Zr5 2.974904 1_545
Bi0 Zr0 3.035777 1_556
Bi0 Zr3 3.035777 1_555
Bi0 Zr1 3.035778 1_556
Bi0 Zr2 3.035778 1_555
Bi0 Zr4 3.238380 1_555
Bi0 Zr7 3.273254 1_555
Bi0 Zr7 3.273254 1_556
Bi1 Zr6 2.974904 1_655
Bi1 Zr4 2.974904 1_545
Bi1 Zr0 3.035770 1_556
Bi1 Zr3 3.035770 1_555
Bi1 Zr1 3.035773 1_546
Bi1 Zr2 3.035773 1_545
Bi1 Zr5 3.238380 1_545
Bi1 Zr8 3.273254 1_545
Bi1 Zr8 3.273254 1_546
Bi2 Zr4 2.974904 1_555
Bi2 Zr5 2.974904 1_655
Bi2 Zr1 3.035770 1_656
Bi2 Zr2 3.035770 1_655
Bi2 Zr0 3.035773 1_556
Bi2 Zr3 3.035773 1_555
Bi2 Zr6 3.238380 1_655
Bi2 Zr9 3.273254 1_655
Bi2 Zr9 3.273254 1_656
B0 Zr5 2.434060 1_544
B0 Zr4 2.434060 1_444
B0 Zr6 2.434060 1_554
B0 Zr8 2.436639 1_445
B0 Zr7 2.436639 1_555
B0 Zr9 2.436639 1_545
B1 Zr5 2.434060 1_545
B1 Zr4 2.434060 1_445
B1 Zr6 2.434060 1_555
B1 Zr8 2.436639 1_445
B1 Zr7 2.436639 1_555
B1 Zr9 2.436639 1_545
