# generated using pymatgen
data_Hf4ZrSn3As
_symmetry_space_group_name_H-M   'P 1'
_cell_length_a   8.59326212
_cell_length_b   8.59326196
_cell_length_c   5.87214101
_cell_angle_alpha   90.00000000
_cell_angle_beta   90.00000000
_cell_angle_gamma   120.10182438
_symmetry_Int_Tables_number   1
_chemical_formula_structural   Hf4ZrSn3As
_chemical_formula_sum   'Hf8 Zr2 Sn6 As2'
_cell_volume   375.14286842
_cell_formula_units_Z   2
loop_
 _symmetry_equiv_pos_site_id
 _symmetry_equiv_pos_as_xyz
  1  'x, y, z'
loop_
 _atom_site_type_symbol
 _atom_site_label
 _atom_site_symmetry_multiplicity
 _atom_site_fract_x
 _atom_site_fract_y
 _atom_site_fract_z
 _atom_site_occupancy
  Hf  Hf0  1  0.66604424  0.33294578  0.99954907  1
  Hf  Hf1  1  0.33294578  0.66604424  0.99954907  1
  Hf  Hf2  1  0.33294578  0.66604424  0.50045093  1
  Hf  Hf3  1  0.66604424  0.33294578  0.50045093  1
  Hf  Hf4  1  0.73689334  0.73689334  0.75000000  1
  Hf  Hf5  1  0.26482810  0.00063573  0.75000000  1
  Hf  Hf6  1  0.00063573  0.26482810  0.75000000  1
  Hf  Hf7  1  0.26069754  0.26069754  0.25000000  1
  Zr  Zr0  1  0.73848667  0.99909768  0.25000000  1
  Zr  Zr1  1  0.99909768  0.73848667  0.25000000  1
  Sn  Sn0  1  0.39566558  0.39566558  0.75000000  1
  Sn  Sn1  1  0.60488205  0.99974119  0.75000000  1
  Sn  Sn2  1  0.99974119  0.60488205  0.75000000  1
  Sn  Sn3  1  0.60189038  0.60189038  0.25000000  1
  Sn  Sn4  1  0.39587593  0.00019417  0.25000000  1
  Sn  Sn5  1  0.00019417  0.39587593  0.25000000  1
  As  As0  1  0.00156731  0.00156731  0.99587565  1
  As  As1  1  0.00156731  0.00156731  0.50412435  1
loop_
_geom_bond_atom_site_label_1
_geom_bond_atom_site_label_2
_geom_bond_distance
_geom_bond_site_symmetry_2
Hf0 Sn4 3.011680 1_556
Hf0 Sn3 3.014313 1_556
Hf0 Sn0 3.015345 1_555
Hf0 Sn2 3.018170 1_555
Hf0 Sn1 3.018713 1_545
Hf0 Sn5 3.023727 1_656
Hf1 Sn5 3.011680 1_556
Hf1 Sn3 3.014313 1_556
Hf1 Sn0 3.015345 1_555
Hf1 Sn1 3.018170 1_555
Hf1 Sn2 3.018713 1_455
Hf1 Sn4 3.023727 1_566
Hf2 Sn5 3.011680 1_555
Hf2 Sn3 3.014313 1_555
Hf2 Sn0 3.015345 1_555
Hf2 Sn1 3.018170 1_555
Hf2 Sn2 3.018713 1_455
Hf2 Sn4 3.023727 1_565
Hf3 Sn4 3.011680 1_555
Hf3 Sn3 3.014313 1_555
Hf3 Sn0 3.015345 1_555
Hf3 Sn2 3.018170 1_555
Hf3 Sn1 3.018713 1_545
Hf3 Sn5 3.023727 1_655
Hf4 Sn0 2.927745 1_555
Hf4 Sn1 2.993141 1_555
Hf4 Sn2 2.993141 1_555
Hf4 Sn3 3.156301 1_556
Hf4 Sn3 3.156301 1_555
Hf5 Sn1 2.926036 1_545
Hf5 Sn0 2.993162 1_555
Hf5 Sn2 2.997314 1_445
Hf5 Sn4 3.145310 1_556
Hf5 Sn4 3.145310 1_555
Hf6 Sn2 2.926036 1_455
Hf6 Sn0 2.993162 1_555
Hf6 Sn1 2.997314 1_445
Hf6 Sn5 3.145310 1_556
Hf6 Sn5 3.145310 1_555
Hf7 Sn3 2.927446 1_555
Hf7 Sn4 2.994822 1_555
Hf7 Sn5 2.994822 1_555
Hf7 Sn0 3.156191 1_555
Hf7 Sn0 3.156191 1_554
Sn1 Zr0 3.153576 1_555
Sn1 Zr0 3.153576 1_556
Sn2 Zr1 3.153576 1_556
Sn2 Zr1 3.153576 1_555
Sn3 Zr0 3.001598 1_555
Sn3 Zr1 3.001598 1_555
Sn4 Zr0 2.948881 1_545
Sn4 Zr1 2.998599 1_445
Sn5 Zr1 2.948881 1_455
Sn5 Zr0 2.998599 1_445
As0 Hf7 2.677702 1_556
As0 Hf6 2.687135 1_555
As0 Hf5 2.687135 1_555
As0 Hf4 2.691030 1_445
As0 Zr1 2.700001 1_446
As0 Zr0 2.700001 1_446
As1 Hf7 2.677702 1_555
As1 Hf6 2.687135 1_555
As1 Hf5 2.687135 1_555
As1 Hf4 2.691030 1_445
As1 Zr1 2.700001 1_445
As1 Zr0 2.700001 1_445
