# generated using pymatgen
data_Zr6Zn20SiPd3
_symmetry_space_group_name_H-M   'P 1'
_cell_length_a   8.70000244
_cell_length_b   8.70000196
_cell_length_c   8.72569029
_cell_angle_alpha   59.90228525
_cell_angle_beta   59.90228710
_cell_angle_gamma   60.19543519
_symmetry_Int_Tables_number   1
_chemical_formula_structural   Zr6Zn20SiPd3
_chemical_formula_sum   'Zr6 Zn20 Si1 Pd3'
_cell_volume   466.99900128
_cell_formula_units_Z   1
loop_
 _symmetry_equiv_pos_site_id
 _symmetry_equiv_pos_as_xyz
  1  'x, y, z'
loop_
 _atom_site_type_symbol
 _atom_site_label
 _atom_site_symmetry_multiplicity
 _atom_site_fract_x
 _atom_site_fract_y
 _atom_site_fract_z
 _atom_site_occupancy
  Zr  Zr0  1  0.70830022  0.29169978  0.29169978  1
  Zr  Zr1  1  0.29169978  0.70830022  0.70830022  1
  Zr  Zr2  1  0.29169978  0.70830022  0.29169978  1
  Zr  Zr3  1  0.70830022  0.29169978  0.70830022  1
  Zr  Zr4  1  0.28703916  0.28703916  0.71296084  1
  Zr  Zr5  1  0.71296084  0.71296084  0.28703916  1
  Zn  Zn0  1  0.12021417  0.12021417  0.12758339  1
  Zn  Zn1  1  0.87978583  0.87978583  0.87241661  1
  Zn  Zn2  1  0.12021417  0.12021417  0.63198827  1
  Zn  Zn3  1  0.12758339  0.63198827  0.12021417  1
  Zn  Zn4  1  0.87978583  0.87978583  0.36801173  1
  Zn  Zn5  1  0.87241661  0.36801173  0.87978583  1
  Zn  Zn6  1  0.63198827  0.12758339  0.12021417  1
  Zn  Zn7  1  0.36801173  0.87241661  0.87978583  1
  Zn  Zn8  1  0.50000000  0.00000000  0.00000000  1
  Zn  Zn9  1  0.00000000  0.50000000  0.50000000  1
  Zn  Zn10  1  0.00000000  0.50000000  0.00000000  1
  Zn  Zn11  1  0.50000000  0.00000000  0.50000000  1
  Zn  Zn12  1  0.33442611  0.33442611  0.33779040  1
  Zn  Zn13  1  0.66557389  0.66557389  0.66220960  1
  Zn  Zn14  1  0.33442611  0.33442611  0.99335938  1
  Zn  Zn15  1  0.33779040  0.99335938  0.33442611  1
  Zn  Zn16  1  0.66557389  0.66557389  0.00664062  1
  Zn  Zn17  1  0.66220960  0.00664062  0.66557389  1
  Zn  Zn18  1  0.99335938  0.33779040  0.33442611  1
  Zn  Zn19  1  0.00664062  0.66220960  0.66557389  1
  Si  Si0  1  0.50000000  0.50000000  0.50000000  1
  Pd  Pd0  1  0.00000000  0.00000000  0.50000000  1
  Pd  Pd1  1  0.50000000  0.50000000  0.00000000  1
  Pd  Pd2  1  0.00000000  0.00000000  0.00000000  1
loop_
_geom_bond_atom_site_label_1
_geom_bond_atom_site_label_2
_geom_bond_distance
_geom_bond_site_symmetry_2
Zn0 Zn10 2.700702 1_555
Zn0 Zn8 2.700703 1_555
Zn1 Zn10 2.700702 1_656
Zn1 Zn8 2.700703 1_566
Zn2 Zn9 2.700702 1_555
Zn3 Zn9 2.700703 1_555
Zn4 Zn9 2.700702 1_655
Zn5 Zn9 2.700703 1_655
Zn6 Zn8 2.700703 1_555
Zn7 Zn8 2.700703 1_566
Zn8 Zr3 3.109677 1_554
Zn8 Zr2 3.109677 1_545
Zn8 Zr5 3.118278 1_545
Zn8 Zr4 3.118278 1_554
Zn9 Zr2 3.109677 1_555
Zn9 Zr3 3.109677 1_455
Zn9 Zr4 3.118278 1_555
Zn9 Zr5 3.118278 1_455
Zn10 Zn14 2.508366 1_554
Zn10 Zn16 2.508366 1_455
Zn10 Zn18 2.508367 1_455
Zn10 Zn19 2.508367 1_554
Zn10 Zn3 2.700703 1_555
Zn10 Zn5 2.700703 1_454
Zn10 Zr1 3.109677 1_554
Zn10 Zr0 3.109677 1_455
Zn10 Zr4 3.118278 1_554
Zn10 Zr5 3.118278 1_455
Zn11 Zn17 2.508351 1_555
Zn11 Zn15 2.508351 1_545
Zn11 Zn13 2.508362 1_545
Zn11 Zn12 2.508362 1_555
Zn11 Zn4 2.700703 1_545
Zn11 Zn2 2.700703 1_555
Zn11 Zn7 2.700703 1_545
Zn11 Zn6 2.700703 1_555
Zn11 Zr0 3.109677 1_555
Zn11 Zr1 3.109677 1_545
Zn11 Zr5 3.118278 1_545
Zn11 Zr4 3.118278 1_555
Zn12 Zn9 2.508362 1_555
Zn13 Zn9 2.508362 1_655
Zn14 Zn8 2.508366 1_556
Zn15 Zn8 2.508367 1_565
Zn16 Zn8 2.508366 1_565
Zn17 Zn8 2.508367 1_556
Zn18 Zn9 2.508351 1_655
Zn19 Zn9 2.508351 1_555
Si0 Zr1 2.570422 1_555
Si0 Zr3 2.570422 1_555
Si0 Zr2 2.570422 1_555
Si0 Zr0 2.570422 1_555
Si0 Zr5 2.612439 1_555
Si0 Zr4 2.612439 1_555
Pd0 Zn18 2.526589 1_455
Pd0 Zn19 2.526589 1_545
Pd0 Zn15 2.526589 1_545
Pd0 Zn17 2.526589 1_455
Pd0 Zn2 2.649064 1_555
Pd0 Zn4 2.649064 1_445
Pd0 Zn1 2.649065 1_445
Pd0 Zn0 2.649065 1_555
Pd0 Zr3 3.127618 1_455
Pd0 Zr1 3.127618 1_545
Pd0 Zr2 3.127618 1_545
Pd0 Zr0 3.127618 1_455
Pd1 Zn16 2.526574 1_555
Pd1 Zn14 2.526574 1_554
Pd1 Zn12 2.526585 1_555
Pd1 Zn13 2.526585 1_554
Pd1 Zn7 2.649064 1_554
Pd1 Zn6 2.649064 1_555
Pd1 Zn5 2.649064 1_554
Pd1 Zn3 2.649064 1_555
Pd1 Zr2 3.127618 1_555
Pd1 Zr0 3.127618 1_555
Pd1 Zr3 3.127618 1_554
Pd1 Zr1 3.127618 1_554
Pd2 Zn5 2.617222 1_454
Pd2 Zn3 2.617222 1_545
Pd2 Zn0 2.617222 1_555
Pd2 Zn1 2.617222 1_444
Pd2 Zn7 2.617222 1_544
Pd2 Zn6 2.617222 1_455
Pd2 Zn4 2.617223 1_445
Pd2 Zn2 2.617223 1_554
