# generated using pymatgen
data_K3Sr3LuAs4
_symmetry_space_group_name_H-M   'P 1'
_cell_length_a   10.52086519
_cell_length_b   10.52086437
_cell_length_c   7.77693955
_cell_angle_alpha   90.00000000
_cell_angle_beta   90.00000000
_cell_angle_gamma   119.99999950
_symmetry_Int_Tables_number   1
_chemical_formula_structural   K3Sr3LuAs4
_chemical_formula_sum   'K6 Sr6 Lu2 As8'
_cell_volume   745.49070745
_cell_formula_units_Z   2
loop_
 _symmetry_equiv_pos_site_id
 _symmetry_equiv_pos_as_xyz
  1  'x, y, z'
loop_
 _atom_site_type_symbol
 _atom_site_label
 _atom_site_symmetry_multiplicity
 _atom_site_fract_x
 _atom_site_fract_y
 _atom_site_fract_z
 _atom_site_occupancy
  K  K0  1  0.13520529  0.86479471  0.17150307  1
  K  K1  1  0.27040958  0.13520529  0.67150307  1
  K  K2  1  0.86479471  0.72959042  0.67150307  1
  K  K3  1  0.72959042  0.86479471  0.17150307  1
  K  K4  1  0.86479471  0.13520529  0.67150307  1
  K  K5  1  0.13520529  0.27040958  0.17150307  1
  Sr  Sr0  1  0.93370450  0.46685075  0.99930197  1
  Sr  Sr1  1  0.53314925  0.06629550  0.99930197  1
  Sr  Sr2  1  0.46685075  0.93370450  0.49930197  1
  Sr  Sr3  1  0.06629550  0.53314925  0.49930197  1
  Sr  Sr4  1  0.53314925  0.46685075  0.99930197  1
  Sr  Sr5  1  0.46685075  0.53314925  0.49930197  1
  Lu  Lu0  1  0.66666700  0.33333300  0.38928029  1
  Lu  Lu1  1  0.33333300  0.66666700  0.88928029  1
  As  As0  1  0.80437479  0.19562521  0.26286825  1
  As  As1  1  0.19562521  0.39125142  0.76286825  1
  As  As2  1  0.80437479  0.60874858  0.26286825  1
  As  As3  1  0.66666700  0.33333300  0.74079881  1
  As  As4  1  0.60874858  0.80437479  0.76286825  1
  As  As5  1  0.33333300  0.66666700  0.24079881  1
  As  As6  1  0.19562521  0.80437479  0.76286825  1
  As  As7  1  0.39125142  0.19562521  0.26286825  1
loop_
_geom_bond_atom_site_label_1
_geom_bond_atom_site_label_2
_geom_bond_distance
_geom_bond_site_symmetry_2
As0 Lu0 2.695105 1_555
As0 Sr0 3.211349 1_554
As0 Sr1 3.211349 1_554
As0 K3 3.240388 1_545
As0 K5 3.240388 1_655
As0 K4 3.363251 1_555
As0 Sr3 3.714699 1_655
As0 Sr2 3.714699 1_545
As1 Lu1 2.695105 1_555
As1 Sr5 3.211350 1_555
As1 Sr3 3.211363 1_555
As1 K1 3.240388 1_555
As1 K4 3.240388 1_455
As1 K5 3.363257 1_556
As1 Sr0 3.714674 1_455
As1 Sr4 3.714710 1_555
As2 Lu0 2.695105 1_555
As2 Sr4 3.211350 1_554
As2 Sr0 3.211363 1_554
As2 K3 3.240388 1_555
As2 K0 3.240388 1_655
As2 K2 3.363257 1_555
As2 Sr3 3.714674 1_655
As2 Sr5 3.714710 1_555
As3 Lu0 2.733738 1_555
As3 Sr4 3.156152 1_555
As3 Sr1 3.156166 1_555
As3 Sr0 3.156166 1_555
As3 K4 3.650415 1_555
As3 K2 3.650433 1_555
As3 K1 3.650433 1_555
As4 Lu1 2.695105 1_555
As4 Sr5 3.211349 1_555
As4 Sr2 3.211363 1_555
As4 K4 3.240388 1_565
As4 K2 3.240388 1_555
As4 K3 3.363257 1_556
As4 Sr1 3.714674 1_565
As4 Sr4 3.714710 1_555
As5 Lu1 2.733738 1_554
As5 Sr5 3.156152 1_555
As5 Sr2 3.156166 1_555
As5 Sr3 3.156166 1_555
As5 K0 3.650415 1_555
As5 K5 3.650433 1_555
As5 K3 3.650433 1_555
As6 Lu1 2.695105 1_555
As6 Sr3 3.211349 1_555
As6 Sr2 3.211349 1_555
As6 K1 3.240388 1_565
As6 K2 3.240388 1_455
As6 K0 3.363251 1_556
As6 Sr0 3.714699 1_455
As6 Sr1 3.714699 1_565
As7 Lu0 2.695105 1_555
As7 Sr4 3.211349 1_554
As7 Sr1 3.211363 1_554
As7 K0 3.240388 1_545
As7 K5 3.240388 1_555
As7 K1 3.363257 1_555
As7 Sr2 3.714674 1_545
As7 Sr5 3.714710 1_555
