# generated using pymatgen
data_Ca3Cd(IO3)8
_symmetry_space_group_name_H-M   'P 1'
_cell_length_a   5.68252685
_cell_length_b   5.90607556
_cell_length_c   17.39243645
_cell_angle_alpha   89.95261631
_cell_angle_beta   90.12391832
_cell_angle_gamma   90.26175608
_symmetry_Int_Tables_number   1
_chemical_formula_structural   Ca3Cd(IO3)8
_chemical_formula_sum   'Ca3 Cd1 I8 O24'
_cell_volume   583.70743845
_cell_formula_units_Z   1
loop_
 _symmetry_equiv_pos_site_id
 _symmetry_equiv_pos_as_xyz
  1  'x, y, z'
loop_
 _atom_site_type_symbol
 _atom_site_label
 _atom_site_symmetry_multiplicity
 _atom_site_fract_x
 _atom_site_fract_y
 _atom_site_fract_z
 _atom_site_occupancy
  Ca  Ca0  1  0.71081508  0.17506937  0.09504452  1
  Ca  Ca1  1  0.20999798  0.32385951  0.90509689  1
  Ca  Ca2  1  0.29138602  0.67602637  0.40613856  1
  Cd  Cd0  1  0.78653181  0.82462195  0.59419563  1
  I  I0  1  0.24178197  0.78026698  0.70862355  1
  I  I1  1  0.75099777  0.72042284  0.28934574  1
  I  I2  1  0.74873029  0.28036480  0.78826400  1
  I  I3  1  0.25216726  0.22049678  0.21173002  1
  I  I4  1  0.04380959  0.63984364  0.07739841  1
  I  I5  1  0.54223768  0.86106977  0.92200647  1
  I  I6  1  0.95921793  0.13798271  0.42395336  1
  I  I7  1  0.46148575  0.35969690  0.57779263  1
  O  O0  1  0.53978759  0.59870904  0.51591434  1
  O  O1  1  0.03249772  0.90045140  0.48663249  1
  O  O2  1  0.46898451  0.09734973  0.98475647  1
  O  O3  1  0.96846324  0.40238952  0.01506332  1
  O  O4  1  0.60636707  0.49224812  0.66113512  1
  O  O5  1  0.11029304  0.01095881  0.34116845  1
  O  O6  1  0.39025491  0.98810314  0.83922344  1
  O  O7  1  0.89283224  0.51234504  0.16040236  1
  O  O8  1  0.70490523  0.18048420  0.54654613  1
  O  O9  1  0.20291497  0.31805205  0.45577258  1
  O  O10  1  0.30112377  0.68024460  0.95474207  1
  O  O11  1  0.80329289  0.81974730  0.04477615  1
  O  O12  1  0.04004801  0.03113423  0.16662415  1
  O  O13  1  0.53995562  0.46892467  0.83406638  1
  O  O14  1  0.96142741  0.53164726  0.33474510  1
  O  O15  1  0.45265894  0.97104370  0.66290738  1
  O  O16  1  0.35420936  0.37415891  0.12619690  1
  O  O17  1  0.85264967  0.12528509  0.87332787  1
  O  O18  1  0.64924892  0.87455654  0.37470083  1
  O  O19  1  0.13681659  0.62501813  0.62379816  1
  O  O20  1  0.50472659  0.03372991  0.20969864  1
  O  O21  1  0.00417417  0.46594080  0.79008204  1
  O  O22  1  0.49678635  0.53345885  0.29171283  1
  O  O23  1  0.98642108  0.96429735  0.70641603  1
loop_
_geom_bond_atom_site_label_1
_geom_bond_atom_site_label_2
_geom_bond_distance
_geom_bond_site_symmetry_2
Ca0 O11 2.336576 1_545
Ca0 O2 2.400592 1_554
Ca0 O12 2.403211 1_655
Ca0 O16 2.410419 1_555
Ca0 O3 2.422580 1_555
Ca0 O20 2.458296 1_555
Ca0 O7 2.511926 1_555
Ca1 O10 2.331339 1_555
Ca1 O13 2.401965 1_555
Ca1 O3 2.403240 1_456
Ca1 O17 2.403895 1_455
Ca1 O2 2.425119 1_555
Ca1 O21 2.463686 1_555
Ca1 O6 2.514268 1_545
Ca2 O9 2.336032 1_555
Ca2 O14 2.400343 1_455
Ca2 O18 2.406482 1_555
Ca2 O0 2.416420 1_555
Ca2 O1 2.431230 1_555
Ca2 O22 2.460446 1_555
Ca2 O5 2.501749 1_565
Cd0 O8 2.307310 1_565
Cd0 O0 2.361686 1_555
Cd0 O19 2.373380 1_655
Cd0 O1 2.378698 1_655
Cd0 O23 2.400981 1_555
Cd0 O15 2.408745 1_555
Cd0 O4 2.498016 1_555
I0 O23 1.817305 1_455
I0 O15 1.824285 1_555
I0 O19 1.834804 1_555
I1 O22 1.814766 1_555
I1 O14 1.817427 1_555
I1 O18 1.837823 1_555
I2 O21 1.815114 1_655
I2 O13 1.816564 1_555
I2 O17 1.837216 1_555
I3 O20 1.814515 1_555
I3 O12 1.817747 1_555
I3 O16 1.835646 1_555
I4 O3 1.822232 1_455
I4 O11 1.824221 1_455
I4 O7 1.839793 1_455
I4 O16 2.512046 1_555
I4 O10 2.599105 1_554
I5 O2 1.822513 1_565
I5 O10 1.825099 1_555
I5 O6 1.838631 1_555
I5 O17 2.498487 1_565
I5 O11 2.609270 1_556
I6 O1 1.825027 1_645
I6 O9 1.827353 1_655
I6 O5 1.840096 1_655
I6 O18 2.495507 1_545
I6 O8 2.591367 1_555
I7 O0 1.828311 1_555
I7 O8 1.829364 1_555
I7 O4 1.839194 1_555
I7 O19 2.556253 1_555
I7 O9 2.589857 1_555
