# generated using pymatgen
data_RbSb12Ir3Ru
_symmetry_space_group_name_H-M   'P 1'
_cell_length_a   8.11090916
_cell_length_b   8.12376035
_cell_length_c   8.12376113
_cell_angle_alpha   109.50324654
_cell_angle_beta   109.43917876
_cell_angle_gamma   109.43917401
_symmetry_Int_Tables_number   1
_chemical_formula_structural   RbSb12Ir3Ru
_chemical_formula_sum   'Rb1 Sb12 Ir3 Ru1'
_cell_volume   412.22420447
_cell_formula_units_Z   1
loop_
 _symmetry_equiv_pos_site_id
 _symmetry_equiv_pos_as_xyz
  1  'x, y, z'
loop_
 _atom_site_type_symbol
 _atom_site_label
 _atom_site_symmetry_multiplicity
 _atom_site_fract_x
 _atom_site_fract_y
 _atom_site_fract_z
 _atom_site_occupancy
  Rb  Rb0  1  0.00000000  0.00000000  0.00000000  1
  Sb  Sb0  1  0.15856212  0.81502102  0.66036739  1
  Sb  Sb1  1  0.15480295  0.49857358  0.34334770  1
  Sb  Sb2  1  0.50180527  0.66036739  0.84534537  1
  Sb  Sb3  1  0.34354010  0.84534537  0.18497898  1
  Sb  Sb4  1  0.81145625  0.65665230  0.15522589  1
  Sb  Sb5  1  0.65622936  0.84477411  0.50142642  1
  Sb  Sb6  1  0.18854375  0.34334770  0.84477411  1
  Sb  Sb7  1  0.65645990  0.15465463  0.81502102  1
  Sb  Sb8  1  0.34377064  0.15522589  0.49857358  1
  Sb  Sb9  1  0.49819473  0.33963261  0.15465463  1
  Sb  Sb10  1  0.84519705  0.50142642  0.65665230  1
  Sb  Sb11  1  0.84143788  0.18497898  0.33963261  1
  Ir  Ir0  1  0.50000000  0.50000000  0.50000000  1
  Ir  Ir1  1  0.00000000  0.00000000  0.50000000  1
  Ir  Ir2  1  0.00000000  0.50000000  0.00000000  1
  Ru  Ru0  1  0.50000000  0.00000000  0.00000000  1
loop_
_geom_bond_atom_site_label_1
_geom_bond_atom_site_label_2
_geom_bond_distance
_geom_bond_site_symmetry_2
Rb0 Sb9 3.522010 1_555
Rb0 Sb2 3.522010 1_444
Rb0 Sb3 3.522012 1_545
Rb0 Sb7 3.522012 1_454
Rb0 Sb11 3.522012 1_455
Rb0 Sb0 3.522012 1_544
Rb0 Sb6 3.535795 1_554
Rb0 Sb4 3.535795 1_445
Rb0 Sb1 3.535797 1_555
Rb0 Sb10 3.535797 1_444
Rb0 Sb8 3.535797 1_555
Rb0 Sb5 3.535797 1_444
Sb0 Sb10 2.922128 1_455
Sb0 Sb1 2.952473 1_555
Sb1 Sb11 2.922128 1_455
Sb2 Sb4 2.922137 1_556
Sb2 Sb6 2.952483 1_555
Sb3 Sb8 2.922128 1_565
Sb3 Sb5 2.952473 1_555
Sb4 Sb9 2.952483 1_555
Sb5 Sb7 2.922128 1_565
Sb6 Sb9 2.922137 1_556
Sb7 Sb8 2.952473 1_555
Sb10 Sb11 2.952473 1_555
Ir0 Sb10 2.656273 1_555
Ir0 Sb1 2.656273 1_555
Ir0 Sb5 2.656476 1_555
Ir0 Sb8 2.656476 1_555
Ir0 Sb2 2.662288 1_555
Ir0 Sb9 2.662288 1_555
Ir1 Sb5 2.656274 1_445
Ir1 Sb8 2.656274 1_555
Ir1 Sb6 2.656477 1_555
Ir1 Sb4 2.656477 1_445
Ir1 Sb0 2.662295 1_545
Ir1 Sb11 2.662295 1_455
Ir2 Sb4 2.656266 1_455
Ir2 Sb6 2.656266 1_554
Ir2 Sb1 2.656476 1_555
Ir2 Sb10 2.656476 1_454
Ir2 Sb7 2.662287 1_454
Ir2 Sb3 2.662287 1_555
Ru0 Sb11 2.629791 1_555
Ru0 Sb0 2.629791 1_544
Ru0 Sb9 2.629792 1_555
Ru0 Sb2 2.629792 1_544
Ru0 Sb3 2.629799 1_545
Ru0 Sb7 2.629799 1_554
