# generated using pymatgen
data_CsScTe3O8
_symmetry_space_group_name_H-M   'P 1'
_cell_length_a   5.80941040
_cell_length_b   7.76964991
_cell_length_c   11.29211970
_cell_angle_alpha   100.29633107
_cell_angle_beta   89.32448305
_cell_angle_gamma   110.12363838
_symmetry_Int_Tables_number   1
_chemical_formula_structural   CsScTe3O8
_chemical_formula_sum   'Cs2 Sc2 Te6 O16'
_cell_volume   470.18899436
_cell_formula_units_Z   2
loop_
 _symmetry_equiv_pos_site_id
 _symmetry_equiv_pos_as_xyz
  1  'x, y, z'
loop_
 _atom_site_type_symbol
 _atom_site_label
 _atom_site_symmetry_multiplicity
 _atom_site_fract_x
 _atom_site_fract_y
 _atom_site_fract_z
 _atom_site_occupancy
  Cs  Cs0  1  0.82361800  0.11441055  0.16228358  1
  Cs  Cs1  1  0.17638200  0.88558945  0.83771642  1
  Sc  Sc0  1  0.50000000  0.50000000  0.00000000  1
  Sc  Sc1  1  0.00000000  0.50000000  0.50000000  1
  Te  Te0  1  0.22065237  0.98754378  0.42036880  1
  Te  Te1  1  0.77934763  0.01245622  0.57963120  1
  Te  Te2  1  0.06973997  0.67029555  0.15222890  1
  Te  Te3  1  0.93026003  0.32970445  0.84777110  1
  Te  Te4  1  0.51222155  0.52542805  0.33396899  1
  Te  Te5  1  0.48777845  0.47457195  0.66603101  1
  O  O0  1  0.16865235  0.73874601  0.42508646  1
  O  O1  1  0.83134765  0.26125399  0.57491354  1
  O  O2  1  0.23139585  0.92161687  0.23393247  1
  O  O3  1  0.76860415  0.07838313  0.76606753  1
  O  O4  1  0.88818412  0.96672125  0.39797062  1
  O  O5  1  0.11181588  0.03327875  0.60202938  1
  O  O6  1  0.28751345  0.67820421  0.02941375  1
  O  O7  1  0.71248655  0.32179579  0.97058625  1
  O  O8  1  0.82869513  0.71941557  0.07178427  1
  O  O9  1  0.17130487  0.28058443  0.92821573  1
  O  O10  1  0.41829297  0.42813792  0.17076656  1
  O  O11  1  0.58170703  0.57186208  0.82923344  1
  O  O12  1  0.23396306  0.37421529  0.40005373  1
  O  O13  1  0.76603694  0.62578471  0.59994627  1
  O  O14  1  0.72467746  0.39901977  0.35632508  1
  O  O15  1  0.27532254  0.60098023  0.64367492  1
loop_
_geom_bond_atom_site_label_1
_geom_bond_atom_site_label_2
_geom_bond_distance
_geom_bond_site_symmetry_2
Cs0 O14 3.022282 1_555
Cs0 O8 3.066631 1_545
Cs0 O7 3.113608 1_554
Cs0 O4 3.154670 1_545
Cs0 O2 3.380902 1_645
Cs0 O2 3.399504 1_545
Cs0 O12 3.445096 1_655
Cs0 O10 3.466371 1_655
Cs0 O9 3.468784 1_654
Cs1 O15 3.022282 1_555
Cs1 O9 3.066631 1_565
Cs1 O6 3.113608 1_556
Cs1 O5 3.154670 1_565
Cs1 O3 3.380902 1_465
Cs1 O3 3.399504 1_565
Cs1 O13 3.445096 1_455
Cs1 O11 3.466371 1_455
Cs1 O8 3.468784 1_456
O0 Te0 1.861579 1_555
O0 Sc1 2.099359 1_555
O1 Te1 1.861579 1_555
O1 Sc1 2.099359 1_655
O2 Te2 1.913294 1_555
O2 Te0 2.081298 1_555
O3 Te3 1.913294 1_555
O3 Te1 2.081298 1_555
O4 Te0 1.898025 1_655
O4 Te1 2.144166 1_565
O5 Te1 1.898025 1_455
O5 Te0 2.144166 1_545
O6 Te2 1.860989 1_555
O6 Sc0 2.133820 1_555
O7 Te3 1.860989 1_555
O7 Sc0 2.133820 1_556
O8 Te2 1.858335 1_655
O8 Sc0 2.124186 1_555
O9 Te3 1.858335 1_455
O9 Sc0 2.124186 1_556
O10 Te4 1.872789 1_555
O10 Sc0 2.106276 1_555
O11 Te5 1.872789 1_555
O11 Sc0 2.106276 1_556
O12 Te4 1.878420 1_555
O12 Sc1 2.135373 1_555
O13 Te5 1.878420 1_555
O13 Sc1 2.135373 1_655
O14 Te4 1.865957 1_555
O14 Sc1 2.132761 1_655
O15 Te5 1.865957 1_555
O15 Sc1 2.132761 1_555
