# generated using pymatgen
data_KCrNiAs2
_symmetry_space_group_name_H-M   'P 1'
_cell_length_a   7.43982762
_cell_length_b   7.43982667
_cell_length_c   7.43982679
_cell_angle_alpha   149.59237418
_cell_angle_beta   149.59236321
_cell_angle_gamma   43.54008992
_symmetry_Int_Tables_number   1
_chemical_formula_structural   KCrNiAs2
_chemical_formula_sum   'K1 Cr1 Ni1 As2'
_cell_volume   105.20997871
_cell_formula_units_Z   1
loop_
 _symmetry_equiv_pos_site_id
 _symmetry_equiv_pos_as_xyz
  1  'x, y, z'
loop_
 _atom_site_type_symbol
 _atom_site_label
 _atom_site_symmetry_multiplicity
 _atom_site_fract_x
 _atom_site_fract_y
 _atom_site_fract_z
 _atom_site_occupancy
  K  K0  1  0.00000000  0.00000000  0.00000000  1
  Cr  Cr0  1  0.75000000  0.25000000  0.50000000  1
  Ni  Ni0  1  0.25000000  0.75000000  0.50000000  1
  As  As0  1  0.34913294  0.34913294  0.00000000  1
  As  As1  1  0.65086706  0.65086706  1.00000000  1
loop_
_geom_bond_atom_site_label_1
_geom_bond_atom_site_label_2
_geom_bond_distance
_geom_bond_site_symmetry_2
Cr0 Ni0 2.759301 1_645
Cr0 Ni0 2.759301 1_555
Cr0 Ni0 2.759301 1_544
Cr0 Ni0 2.759301 1_656
As0 Ni0 2.383986 1_544
As0 Ni0 2.383986 1_555
As0 Cr0 2.383987 1_555
As0 Cr0 2.383987 1_454
As0 K0 3.458310 1_565
As0 K0 3.458310 1_554
As0 K0 3.458310 1_655
As0 K0 3.458310 1_666
As1 Cr0 2.383986 1_566
As1 Cr0 2.383986 1_555
As1 Ni0 2.383987 1_555
As1 Ni0 2.383987 1_656
As1 K0 3.458310 1_656
As1 K0 3.458310 1_667
As1 K0 3.458310 1_566
As1 K0 3.458310 1_555
