# generated using pymatgen
data_Zr5GaSn2Sb
_symmetry_space_group_name_H-M   'P 1'
_cell_length_a   8.69195797
_cell_length_b   8.67961964
_cell_length_c   5.87624644
_cell_angle_alpha   90.00000000
_cell_angle_beta   90.00000000
_cell_angle_gamma   119.95305754
_symmetry_Int_Tables_number   1
_chemical_formula_structural   Zr5GaSn2Sb
_chemical_formula_sum   'Zr10 Ga2 Sn4 Sb2'
_cell_volume   384.10873314
_cell_formula_units_Z   2
loop_
 _symmetry_equiv_pos_site_id
 _symmetry_equiv_pos_as_xyz
  1  'x, y, z'
loop_
 _atom_site_type_symbol
 _atom_site_label
 _atom_site_symmetry_multiplicity
 _atom_site_fract_x
 _atom_site_fract_y
 _atom_site_fract_z
 _atom_site_occupancy
  Zr  Zr0  1  0.73697524  0.73742768  0.75000000  1
  Zr  Zr1  1  0.26302476  0.00045143  0.75000000  1
  Zr  Zr2  1  1.00000000  0.26148397  0.75000000  1
  Zr  Zr3  1  0.26885509  0.26883728  0.25000000  1
  Zr  Zr4  1  0.73114491  0.99998118  0.25000000  1
  Zr  Zr5  1  0.00000000  0.73202217  0.25000000  1
  Zr  Zr6  1  0.66574474  0.33266135  0.00140332  1
  Zr  Zr7  1  0.33425526  0.66691761  0.00140332  1
  Zr  Zr8  1  0.33425526  0.66691761  0.49859668  1
  Zr  Zr9  1  0.66574474  0.33266135  0.49859668  1
  Ga  Ga0  1  1.00000000  0.99938981  0.00764083  1
  Ga  Ga1  1  1.00000000  0.99938981  0.49235917  1
  Sn  Sn0  1  1.00000000  0.60893508  0.75000000  1
  Sn  Sn1  1  0.61399242  0.61354041  0.25000000  1
  Sn  Sn2  1  0.38600758  0.99954799  0.25000000  1
  Sn  Sn3  1  0.00000000  0.38798512  0.25000000  1
  Sb  Sb0  1  0.39189064  0.39187138  0.75000000  1
  Sb  Sb1  1  0.60810936  0.99998074  0.75000000  1
loop_
_geom_bond_atom_site_label_1
_geom_bond_atom_site_label_2
_geom_bond_distance
_geom_bond_site_symmetry_2
Ga0 Zr5 2.722802 1_655
Ga0 Zr2 2.732608 1_564
Ga0 Zr0 2.738214 1_554
Ga0 Zr1 2.738218 1_664
Ga0 Zr4 2.738839 1_555
Ga0 Zr3 2.738842 1_665
Ga1 Zr5 2.722802 1_655
Ga1 Zr2 2.732608 1_565
Ga1 Zr0 2.738214 1_555
Ga1 Zr1 2.738218 1_665
Ga1 Zr4 2.738839 1_555
Ga1 Zr3 2.738842 1_665
Sn0 Zr1 3.002765 1_665
Sn0 Zr0 3.002771 1_555
Sn0 Zr2 3.015744 1_555
Sn0 Zr7 3.068647 1_656
Sn0 Zr8 3.068647 1_655
Sn0 Zr9 3.068649 1_555
Sn0 Zr6 3.068649 1_556
Sn0 Zr5 3.126330 1_655
Sn0 Zr5 3.126330 1_656
Sn1 Zr5 2.978120 1_655
Sn1 Zr4 2.979370 1_555
Sn1 Zr3 2.998039 1_555
Sn1 Zr9 3.061844 1_555
Sn1 Zr6 3.061844 1_555
Sn1 Zr8 3.063580 1_555
Sn1 Zr7 3.063580 1_555
Sn1 Zr0 3.127889 1_555
Sn1 Zr0 3.127889 1_554
Sn2 Zr5 2.978119 1_555
Sn2 Zr3 2.979378 1_565
Sn2 Zr4 2.998044 1_555
Sn2 Zr8 3.061837 1_555
Sn2 Zr7 3.061837 1_555
Sn2 Zr6 3.063575 1_565
Sn2 Zr9 3.063575 1_565
Sn2 Zr1 3.127887 1_565
Sn2 Zr1 3.127887 1_564
Sn3 Zr5 2.986111 1_555
Sn3 Zr3 2.990610 1_555
Sn3 Zr4 2.990616 1_445
Sn3 Zr9 3.067962 1_455
Sn3 Zr6 3.067962 1_455
Sn3 Zr7 3.067965 1_555
Sn3 Zr8 3.067965 1_555
Sn3 Zr2 3.136580 1_455
Sn3 Zr2 3.136580 1_454
Sb0 Zr1 2.999466 1_555
Sb0 Zr0 3.001507 1_555
Sb0 Zr2 3.005687 1_455
Sb0 Zr8 3.053988 1_555
Sb0 Zr7 3.053988 1_556
Sb0 Zr9 3.055173 1_555
Sb0 Zr6 3.055173 1_556
Sb0 Zr3 3.126694 1_555
Sb0 Zr3 3.126694 1_556
Sb1 Zr0 2.999457 1_555
Sb1 Zr1 3.001503 1_565
Sb1 Zr2 3.005687 1_565
Sb1 Zr9 3.053980 1_565
Sb1 Zr6 3.053980 1_566
Sb1 Zr8 3.055168 1_555
Sb1 Zr7 3.055168 1_556
Sb1 Zr4 3.126695 1_555
Sb1 Zr4 3.126695 1_556
