# generated using pymatgen
data_Ga2Te2IBr13
_symmetry_space_group_name_H-M   'P 1'
_cell_length_a   6.74228725
_cell_length_b   6.88048511
_cell_length_c   15.69977275
_cell_angle_alpha   77.75647617
_cell_angle_beta   90.72388690
_cell_angle_gamma   90.48237981
_symmetry_Int_Tables_number   1
_chemical_formula_structural   Ga2Te2IBr13
_chemical_formula_sum   'Ga2 Te2 I1 Br13'
_cell_volume   711.68114421
_cell_formula_units_Z   1
loop_
 _symmetry_equiv_pos_site_id
 _symmetry_equiv_pos_as_xyz
  1  'x, y, z'
loop_
 _atom_site_type_symbol
 _atom_site_label
 _atom_site_symmetry_multiplicity
 _atom_site_fract_x
 _atom_site_fract_y
 _atom_site_fract_z
 _atom_site_occupancy
  Ga  Ga0  1  0.48803259  0.71891380  0.80480051  1
  Ga  Ga1  1  0.51333120  0.71946646  0.31380123  1
  Te  Te0  1  0.07384593  0.99633544  0.65270873  1
  Te  Te1  1  0.92474794  0.99312936  0.15816469  1
  I  I0  1  0.12920788  0.84819582  0.03799637  1
  Br  Br0  1  0.83459638  0.69884112  0.81100859  1
  Br  Br1  1  0.16601395  0.70068730  0.31710467  1
  Br  Br2  1  0.35069650  0.50564651  0.92414426  1
  Br  Br3  1  0.64834374  0.50515249  0.43392383  1
  Br  Br4  1  0.36946579  0.63578108  0.67429871  1
  Br  Br5  1  0.62854024  0.63134487  0.18469111  1
  Br  Br6  1  0.38235876  0.04668267  0.80169783  1
  Br  Br7  1  0.62443718  0.04553152  0.31117311  1
  Br  Br8  1  0.30356070  0.19685008  0.54464636  1
  Br  Br9  1  0.68680799  0.19856743  0.05293573  1
  Br  Br10  1  0.86222854  0.28171044  0.67062481  1
  Br  Br11  1  0.14911406  0.27645150  0.17385416  1
  Br  Br12  1  0.86467062  0.86811011  0.54432329  1
loop_
_geom_bond_atom_site_label_1
_geom_bond_atom_site_label_2
_geom_bond_distance
_geom_bond_site_symmetry_2
I0 Te1 2.709410 1_455
Br0 Ga0 2.341452 1_555
Br0 Te0 3.294925 1_655
Br1 Ga1 2.344810 1_555
Br1 Te1 3.277872 1_455
Br2 Ga0 2.318642 1_555
Br3 Ga1 2.315034 1_555
Br4 Ga0 2.368963 1_555
Br4 Te0 3.154585 1_555
Br5 Ga1 2.376701 1_555
Br5 Te1 3.139413 1_555
Br6 Ga0 2.361262 1_545
Br6 Te0 3.182249 1_545
Br7 Ga1 2.351450 1_545
Br7 Te1 3.240808 1_545
Br8 Te0 2.493624 1_545
Br9 Te1 2.506346 1_545
Br10 Te0 2.502359 1_645
Br11 Te1 2.508742 1_445
Br12 Te0 2.493603 1_655
