# generated using pymatgen
data_AlGaS3
_symmetry_space_group_name_H-M   'P 1'
_cell_length_a   3.56617776
_cell_length_b   9.83404820
_cell_length_c   11.86067816
_cell_angle_alpha   90.00000000
_cell_angle_beta   90.00000000
_cell_angle_gamma   90.00000000
_symmetry_Int_Tables_number   1
_chemical_formula_structural   AlGaS3
_chemical_formula_sum   'Al4 Ga4 S12'
_cell_volume   415.95355579
_cell_formula_units_Z   4
loop_
 _symmetry_equiv_pos_site_id
 _symmetry_equiv_pos_as_xyz
  1  'x, y, z'
loop_
 _atom_site_type_symbol
 _atom_site_label
 _atom_site_symmetry_multiplicity
 _atom_site_fract_x
 _atom_site_fract_y
 _atom_site_fract_z
 _atom_site_occupancy
  Al  Al0  1  0.25000000  0.39890229  0.61060714  1
  Al  Al1  1  0.75000000  0.60109771  0.38939286  1
  Al  Al2  1  0.25000000  0.89890229  0.88939286  1
  Al  Al3  1  0.75000000  0.10109771  0.11060714  1
  Ga  Ga0  1  0.75000000  0.26559344  0.79693767  1
  Ga  Ga1  1  0.25000000  0.73440656  0.20306233  1
  Ga  Ga2  1  0.75000000  0.76559344  0.70306233  1
  Ga  Ga3  1  0.25000000  0.23440656  0.29693767  1
  S  S0  1  0.25000000  0.92618833  0.09606823  1
  S  S1  1  0.75000000  0.07381167  0.90393177  1
  S  S2  1  0.25000000  0.42618833  0.40393177  1
  S  S3  1  0.75000000  0.57381167  0.59606823  1
  S  S4  1  0.75000000  0.09282118  0.31750229  1
  S  S5  1  0.25000000  0.90717882  0.68249771  1
  S  S6  1  0.75000000  0.59282118  0.18249771  1
  S  S7  1  0.25000000  0.40717882  0.81750229  1
  S  S8  1  0.25000000  0.26142694  0.10655483  1
  S  S9  1  0.75000000  0.73857306  0.89344517  1
  S  S10  1  0.25000000  0.76142694  0.39344517  1
  S  S11  1  0.75000000  0.23857306  0.60655483  1
loop_
_geom_bond_atom_site_label_1
_geom_bond_atom_site_label_2
_geom_bond_distance
_geom_bond_site_symmetry_2
Al0 S11 2.380683 1_455
Al0 S11 2.380683 1_555
Al0 S7 2.455266 1_555
Al0 S2 2.465953 1_555
Al0 S3 2.483500 1_455
Al0 S3 2.483500 1_555
Al1 S10 2.380683 1_655
Al1 S10 2.380683 1_555
Al1 S6 2.455266 1_555
Al1 S3 2.465953 1_555
Al1 S2 2.483500 1_555
Al1 S2 2.483500 1_655
Al2 S9 2.380683 1_455
Al2 S9 2.380683 1_555
Al2 S5 2.455266 1_555
Al2 S0 2.465953 1_556
Al2 S1 2.483500 1_565
Al2 S1 2.483500 1_465
Al3 S8 2.380683 1_555
Al3 S8 2.380683 1_655
Al3 S4 2.455266 1_555
Al3 S1 2.465953 1_554
Al3 S0 2.483500 1_645
Al3 S0 2.483500 1_545
Ga0 S1 2.273187 1_555
Ga0 S11 2.273650 1_555
Ga0 S7 2.275425 1_655
Ga0 S7 2.275425 1_555
Ga1 S0 2.273187 1_555
Ga1 S10 2.273650 1_555
Ga1 S6 2.275425 1_455
Ga1 S6 2.275425 1_555
Ga2 S3 2.273187 1_555
Ga2 S9 2.273650 1_555
Ga2 S5 2.275425 1_555
Ga2 S5 2.275425 1_655
Ga3 S2 2.273187 1_555
Ga3 S8 2.273650 1_555
Ga3 S4 2.275425 1_555
Ga3 S4 2.275425 1_455
