# generated using pymatgen
data_Na4Ti6CBr18
_symmetry_space_group_name_H-M   'P 1'
_cell_length_a   9.81522508
_cell_length_b   9.79777010
_cell_length_c   9.83703660
_cell_angle_alpha   119.13317749
_cell_angle_beta   100.15548680
_cell_angle_gamma   102.28243088
_symmetry_Int_Tables_number   1
_chemical_formula_structural   Na4Ti6CBr18
_chemical_formula_sum   'Na4 Ti6 C1 Br18'
_cell_volume   762.76164822
_cell_formula_units_Z   1
loop_
 _symmetry_equiv_pos_site_id
 _symmetry_equiv_pos_as_xyz
  1  'x, y, z'
loop_
 _atom_site_type_symbol
 _atom_site_label
 _atom_site_symmetry_multiplicity
 _atom_site_fract_x
 _atom_site_fract_y
 _atom_site_fract_z
 _atom_site_occupancy
  Na  Na0  1  0.15450627  0.71842392  0.55269804  1
  Na  Na1  1  0.87149002  0.96973889  0.78243840  1
  Na  Na2  1  0.12850998  0.03026111  0.21756160  1
  Na  Na3  1  0.84549373  0.28157608  0.44730196  1
  Ti  Ti0  1  0.35546701  0.44849279  0.77573598  1
  Ti  Ti1  1  0.37026371  0.63248518  0.13665620  1
  Ti  Ti2  1  0.63898212  0.72858360  0.04182665  1
  Ti  Ti3  1  0.64453299  0.55150721  0.22426402  1
  Ti  Ti4  1  0.36101788  0.27141640  0.95817335  1
  Ti  Ti5  1  0.62973629  0.36751482  0.86334380  1
  C  C0  1  0.50000000  0.50000000  0.00000000  1
  Br  Br0  1  0.81815679  0.41054864  0.10423444  1
  Br  Br1  1  0.51845614  0.71226181  0.41950844  1
  Br  Br2  1  0.17400780  0.97318873  0.90258958  1
  Br  Br3  1  0.18184321  0.58945136  0.89576556  1
  Br  Br4  1  0.82773172  0.82821972  0.31210911  1
  Br  Br5  1  0.50641607  0.29442725  0.21277070  1
  Br  Br6  1  0.79552582  0.19719997  0.68887074  1
  Br  Br7  1  0.17226828  0.17178028  0.68789089  1
  Br  Br8  1  0.51159942  0.91918733  0.20518218  1
  Br  Br9  1  0.81182348  0.61420603  0.89308636  1
  Br  Br10  1  0.20447418  0.80280003  0.31112926  1
  Br  Br11  1  0.16227120  0.38260307  0.48299521  1
  Br  Br12  1  0.49358393  0.70557275  0.78722930  1
  Br  Br13  1  0.82599220  0.02681127  0.09741042  1
  Br  Br14  1  0.48154386  0.28773819  0.58049156  1
  Br  Br15  1  0.18817652  0.38579397  0.10691364  1
  Br  Br16  1  0.83772880  0.61739693  0.51700479  1
  Br  Br17  1  0.48840058  0.08081267  0.79481782  1
loop_
_geom_bond_atom_site_label_1
_geom_bond_atom_site_label_2
_geom_bond_distance
_geom_bond_site_symmetry_2
C0 Ti3 2.154478 1_555
C0 Ti0 2.154478 1_554
C0 Ti2 2.156620 1_555
C0 Ti4 2.156620 1_554
C0 Ti5 2.172894 1_554
C0 Ti1 2.172894 1_555
Br0 Ti3 2.515714 1_555
Br0 Ti5 2.522549 1_554
Br1 Ti3 2.534328 1_555
Br1 Ti1 2.537724 1_555
Br2 Ti4 2.831009 1_565
Br2 Na1 2.982540 1_455
Br2 Na2 3.003223 1_566
Br2 Na0 3.051725 1_555
Br3 Ti0 2.515714 1_555
Br3 Ti1 2.522549 1_556
Br4 Ti2 2.533890 1_555
Br4 Ti3 2.535192 1_555
Br5 Ti3 2.531966 1_555
Br5 Ti4 2.532359 1_554
Br6 Ti5 2.780251 1_555
Br6 Na3 2.953329 1_555
Br6 Na1 2.971882 1_545
Br7 Ti4 2.533890 1_555
Br7 Ti0 2.535192 1_555
Br8 Ti2 2.532379 1_555
Br8 Ti1 2.537346 1_555
Br9 Ti2 2.522378 1_556
Br9 Ti5 2.531982 1_555
Br10 Ti1 2.780251 1_555
Br10 Na0 2.953329 1_555
Br10 Na2 2.971882 1_565
Br11 Ti0 2.837011 1_555
Br11 Na3 2.955951 1_455
Br11 Na0 3.038163 1_555
Br11 Na2 3.045736 1_555
Br12 Ti0 2.531966 1_555
Br12 Ti2 2.532359 1_556
Br13 Ti2 2.831009 1_545
Br13 Na2 2.982540 1_655
Br13 Na1 3.003223 1_544
Br13 Na3 3.051725 1_555
Br14 Ti0 2.534328 1_555
Br14 Ti5 2.537724 1_555
Br15 Ti4 2.522378 1_554
Br15 Ti1 2.531982 1_555
Br16 Ti3 2.837011 1_555
Br16 Na0 2.955951 1_655
Br16 Na3 3.038163 1_555
Br16 Na1 3.045736 1_555
Br17 Ti4 2.532379 1_555
Br17 Ti5 2.537346 1_555
