# generated using pymatgen
data_Ca4ZnPd4Pb
_symmetry_space_group_name_H-M   'P 1'
_cell_length_a   5.77905937
_cell_length_b   5.77905970
_cell_length_c   8.08634744
_cell_angle_alpha   77.59374798
_cell_angle_beta   77.59374721
_cell_angle_gamma   58.91762656
_symmetry_Int_Tables_number   1
_chemical_formula_structural   Ca4ZnPd4Pb
_chemical_formula_sum   'Ca4 Zn1 Pd4 Pb1'
_cell_volume   224.13854692
_cell_formula_units_Z   1
loop_
 _symmetry_equiv_pos_site_id
 _symmetry_equiv_pos_as_xyz
  1  'x, y, z'
loop_
 _atom_site_type_symbol
 _atom_site_label
 _atom_site_symmetry_multiplicity
 _atom_site_fract_x
 _atom_site_fract_y
 _atom_site_fract_z
 _atom_site_occupancy
  Ca  Ca0  1  0.50347493  0.79596148  0.35059821  1
  Ca  Ca1  1  0.20403852  0.49652507  0.14940179  1
  Ca  Ca2  1  0.49684253  0.20487245  0.65064193  1
  Ca  Ca3  1  0.79512755  0.50315747  0.84935807  1
  Zn  Zn0  1  0.13960072  0.86039928  0.75000000  1
  Pd  Pd0  1  0.73549377  0.99324750  0.98714809  1
  Pd  Pd1  1  0.00675250  0.26450623  0.51285191  1
  Pd  Pd2  1  0.27009570  0.98654398  0.98492810  1
  Pd  Pd3  1  0.01345602  0.72990430  0.51507190  1
  Pb  Pb0  1  0.83511776  0.16488224  0.25000000  1
loop_
_geom_bond_atom_site_label_1
_geom_bond_atom_site_label_2
_geom_bond_distance
_geom_bond_site_symmetry_2
Ca0 Pd1 3.029202 1_565
Ca0 Pd3 3.035410 1_555
Ca0 Pd0 3.190740 1_554
Ca0 Pd1 3.209098 1_655
Ca0 Pd2 3.248999 1_554
Ca0 Pd3 3.302281 1_655
Ca0 Pb0 3.320167 1_555
Ca0 Pb0 3.418265 1_565
Ca0 Zn0 3.432436 1_555
Ca0 Pb0 3.496854 1_465
Ca1 Pd0 3.029202 1_454
Ca1 Pd2 3.035410 1_554
Ca1 Pd1 3.190740 1_555
Ca1 Pd0 3.209098 1_544
Ca1 Pd3 3.248999 1_555
Ca1 Pd2 3.302281 1_544
Ca1 Pb0 3.320167 1_555
Ca1 Pb0 3.418265 1_455
Ca1 Zn0 3.432436 1_554
Ca1 Pb0 3.496854 1_465
Ca2 Pd3 3.012410 1_645
Ca2 Pd0 3.040274 1_545
Ca2 Pd2 3.055447 1_545
Ca2 Pd3 3.057223 1_555
Ca2 Pd1 3.084909 1_655
Ca2 Pd1 3.092748 1_555
Ca2 Pb0 3.391874 1_555
Ca3 Pd2 3.012410 1_645
Ca3 Pd1 3.040274 1_655
Ca3 Pd3 3.055447 1_655
Ca3 Pd2 3.057223 1_555
Ca3 Pd0 3.084909 1_545
Ca3 Pd0 3.092748 1_555
Ca3 Pb0 3.391874 1_556
Pd0 Zn0 2.564714 1_655
Pd0 Pd2 2.713706 1_555
Pd1 Zn0 2.564715 1_545
Pd1 Pd3 2.713706 1_555
Pd2 Zn0 2.547030 1_555
Pd3 Zn0 2.547030 1_555
Pb0 Pd1 2.802581 1_655
Pb0 Pd0 2.802581 1_544
Pb0 Pd2 2.816841 1_644
Pb0 Pd3 2.816841 1_645
