# generated using pymatgen
data_K2ScP2S7
_symmetry_space_group_name_H-M   'P 1'
_cell_length_a   8.94572465
_cell_length_b   8.94572474
_cell_length_c   8.74545968
_cell_angle_alpha   74.02081633
_cell_angle_beta   74.02081989
_cell_angle_gamma   72.88036641
_symmetry_Int_Tables_number   1
_chemical_formula_structural   K2ScP2S7
_chemical_formula_sum   'K4 Sc2 P4 S14'
_cell_volume   628.47520880
_cell_formula_units_Z   2
loop_
 _symmetry_equiv_pos_site_id
 _symmetry_equiv_pos_as_xyz
  1  'x, y, z'
loop_
 _atom_site_type_symbol
 _atom_site_label
 _atom_site_symmetry_multiplicity
 _atom_site_fract_x
 _atom_site_fract_y
 _atom_site_fract_z
 _atom_site_occupancy
  K  K0  1  0.61078955  0.05187659  0.16298275  1
  K  K1  1  0.94812341  0.38921045  0.83701725  1
  K  K2  1  0.38921045  0.94812341  0.83701725  1
  K  K3  1  0.05187659  0.61078955  0.16298275  1
  Sc  Sc0  1  0.68140179  0.31859821  0.50000000  1
  Sc  Sc1  1  0.31859821  0.68140179  0.50000000  1
  P  P0  1  0.94105688  0.94105688  0.44030514  1
  P  P1  1  0.05894312  0.05894312  0.55969486  1
  P  P2  1  0.39007643  0.39007643  0.81683486  1
  P  P3  1  0.60992357  0.60992357  0.18316514  1
  S  S0  1  0.68944862  0.36965610  0.19551292  1
  S  S1  1  0.63034390  0.31055138  0.80448708  1
  S  S2  1  0.31055138  0.63034390  0.80448708  1
  S  S3  1  0.36965610  0.68944862  0.19551292  1
  S  S4  1  0.99552126  0.99552126  0.20026617  1
  S  S5  1  0.00447874  0.00447874  0.79973383  1
  S  S6  1  0.70188315  0.01906298  0.53240839  1
  S  S7  1  0.98093702  0.29811685  0.46759161  1
  S  S8  1  0.29811685  0.98093702  0.46759161  1
  S  S9  1  0.01906298  0.70188315  0.53240839  1
  S  S10  1  0.26546347  0.26546347  0.00662294  1
  S  S11  1  0.73453653  0.73453653  0.99337706  1
  S  S12  1  0.36401614  0.36401614  0.59364976  1
  S  S13  1  0.63598386  0.63598386  0.40635024  1
loop_
_geom_bond_atom_site_label_1
_geom_bond_atom_site_label_2
_geom_bond_distance
_geom_bond_site_symmetry_2
K0 S0 3.223441 1_555
K0 S11 3.323962 1_544
K0 S1 3.340184 1_554
K0 S8 3.366714 1_545
K0 S4 3.422227 1_545
K0 S6 3.460467 1_555
K0 S10 3.532137 1_555
K0 S13 3.719309 1_545
K1 S1 3.223441 1_555
K1 S10 3.323962 1_656
K1 S0 3.340184 1_556
K1 S9 3.366714 1_655
K1 S5 3.422227 1_655
K1 S7 3.460468 1_555
K1 S11 3.532138 1_555
K1 S12 3.719310 1_655
K2 S2 3.223441 1_555
K2 S10 3.323962 1_566
K2 S3 3.340184 1_556
K2 S6 3.366714 1_565
K2 S5 3.422227 1_565
K2 S8 3.460467 1_555
K2 S11 3.532137 1_555
K2 S12 3.719309 1_565
K3 S3 3.223441 1_555
K3 S11 3.323962 1_454
K3 S2 3.340184 1_554
K3 S7 3.366714 1_455
K3 S4 3.422227 1_455
K3 S9 3.460468 1_555
K3 S10 3.532138 1_555
K3 S13 3.719310 1_455
P0 S4 1.973607 1_555
P0 S9 2.048211 1_655
P0 S6 2.048212 1_565
P0 P1 2.276332 1_665
P1 S5 1.973607 1_555
P1 S7 2.048211 1_455
P1 S8 2.048212 1_545
P2 S10 1.983540 1_556
P2 S1 2.037603 1_555
P2 S2 2.037603 1_555
P2 S12 2.109857 1_555
P3 S11 1.983540 1_554
P3 S3 2.037603 1_555
P3 S0 2.037603 1_555
P3 S13 2.109857 1_555
S0 Sc0 2.559082 1_555
S1 Sc0 2.559082 1_555
S2 Sc1 2.559082 1_555
S3 Sc1 2.559082 1_555
S6 Sc0 2.572033 1_555
S7 Sc0 2.572033 1_555
S8 Sc1 2.572033 1_555
S9 Sc1 2.572033 1_555
S12 Sc1 2.668507 1_555
S12 Sc0 2.668507 1_555
S13 Sc0 2.668507 1_555
S13 Sc1 2.668507 1_555
