# generated using pymatgen
data_Nb4AlGa5Ni2
_symmetry_space_group_name_H-M   'P 1'
_cell_length_a   5.09181662
_cell_length_b   5.08290684
_cell_length_c   7.83153259
_cell_angle_alpha   90.00000000
_cell_angle_beta   90.00000000
_cell_angle_gamma   120.05800216
_symmetry_Int_Tables_number   1
_chemical_formula_structural   Nb4AlGa5Ni2
_chemical_formula_sum   'Nb4 Al1 Ga5 Ni2'
_cell_volume   175.43173863
_cell_formula_units_Z   1
loop_
 _symmetry_equiv_pos_site_id
 _symmetry_equiv_pos_as_xyz
  1  'x, y, z'
loop_
 _atom_site_type_symbol
 _atom_site_label
 _atom_site_symmetry_multiplicity
 _atom_site_fract_x
 _atom_site_fract_y
 _atom_site_fract_z
 _atom_site_occupancy
  Nb  Nb0  1  0.66644696  0.33289293  0.06885804  1
  Nb  Nb1  1  0.66644696  0.33289293  0.43114296  1
  Nb  Nb2  1  0.33274120  0.66548040  0.56959884  1
  Nb  Nb3  1  0.33274120  0.66548040  0.93040216  1
  Al  Al0  1  0.83379379  0.66758857  0.75000000  1
  Ga  Ga0  1  0.16826242  0.33652285  0.24999900  1
  Ga  Ga1  1  0.16835937  0.83142340  0.24999900  1
  Ga  Ga2  1  0.66306504  0.83142340  0.24999900  1
  Ga  Ga3  1  0.33833201  0.17029221  0.75000000  1
  Ga  Ga4  1  0.83196120  0.17029221  0.75000000  1
  Ni  Ni0  1  0.99892592  0.99785285  0.99971392  1
  Ni  Ni1  1  0.99892592  0.99785285  0.50028608  1
loop_
_geom_bond_atom_site_label_1
_geom_bond_atom_site_label_2
_geom_bond_distance
_geom_bond_site_symmetry_2
Nb0 Nb1 2.837246 1_555
Nb0 Ni0 2.975088 1_554
Nb0 Ni0 2.991221 1_544
Nb0 Ni0 2.991230 1_444
Nb0 Nb3 3.130003 1_544
Nb0 Nb3 3.130216 1_554
Nb0 Nb3 3.130220 1_654
Nb1 Ni1 2.975086 1_555
Nb1 Ni1 2.991220 1_545
Nb1 Ni1 2.991229 1_445
Nb1 Nb2 3.130003 1_545
Nb1 Nb2 3.130216 1_555
Nb1 Nb2 3.130220 1_655
Nb2 Nb3 2.825643 1_555
Nb2 Ni1 2.985694 1_555
Nb2 Ni1 2.985707 1_455
Nb2 Ni1 2.986868 1_445
Nb3 Ni0 2.985692 1_555
Nb3 Ni0 2.985705 1_455
Nb3 Ni0 2.986867 1_445
Al0 Ni0 2.436308 1_555
Al0 Ni1 2.436308 1_555
Al0 Ga3 2.523045 1_555
Al0 Ga4 2.523050 1_555
Al0 Ga4 2.559882 1_565
Al0 Ga3 2.559887 1_665
Al0 Nb1 2.898930 1_555
Al0 Nb0 2.898937 1_556
Al0 Nb2 2.911658 1_555
Al0 Nb3 2.911661 1_555
Al0 Nb2 2.911671 1_655
Al0 Nb3 2.911675 1_655
Ga0 Ni0 2.462101 1_444
Ga0 Ni1 2.462113 1_445
Ga0 Ga2 2.515284 1_555
Ga0 Ga1 2.515286 1_555
Ga0 Ga1 2.567621 1_545
Ga0 Ga2 2.567623 1_445
Ga0 Nb3 2.891204 1_554
Ga0 Nb2 2.891224 1_555
Ga0 Nb0 2.914507 1_555
Ga0 Nb0 2.914511 1_455
Ga0 Nb1 2.914518 1_555
Ga0 Nb1 2.914523 1_455
Ga1 Ni0 2.456230 1_454
Ga1 Ni1 2.456243 1_455
Ga1 Ga2 2.518951 1_555
Ga1 Ga2 2.572866 1_455
Ga1 Nb3 2.895500 1_554
Ga1 Nb2 2.895520 1_555
Ga1 Nb0 2.909604 1_565
Ga1 Nb1 2.909615 1_565
Ga1 Nb0 2.911622 1_455
Ga1 Nb1 2.911633 1_455
Ga2 Ni0 2.456225 1_554
Ga2 Ni1 2.456237 1_555
Ga2 Nb3 2.895498 1_554
Ga2 Nb2 2.895518 1_555
Ga2 Nb0 2.909604 1_565
Ga2 Nb1 2.909615 1_565
Ga2 Nb0 2.911622 1_555
Ga2 Nb1 2.911633 1_555
Ga3 Ni0 2.462118 1_445
Ga3 Ni1 2.462118 1_445
Ga3 Ga4 2.513469 1_555
Ga3 Ga4 2.578347 1_455
Ga3 Nb1 2.885619 1_555
Ga3 Nb0 2.885625 1_556
Ga3 Nb2 2.898949 1_555
Ga3 Nb3 2.898953 1_555
Ga3 Nb2 2.916778 1_545
Ga3 Nb3 2.916782 1_545
Ga4 Ni0 2.462113 1_545
Ga4 Ni1 2.462113 1_545
Ga4 Nb1 2.885619 1_555
Ga4 Nb0 2.885625 1_556
Ga4 Nb2 2.898952 1_655
Ga4 Nb3 2.898955 1_655
Ga4 Nb2 2.916776 1_545
Ga4 Nb3 2.916779 1_545
