# generated using pymatgen
data_Rb2TcF7
_symmetry_space_group_name_H-M   'P 1'
_cell_length_a   5.95701949
_cell_length_b   5.83840981
_cell_length_c   10.26721759
_cell_angle_alpha   90.00000000
_cell_angle_beta   90.00000000
_cell_angle_gamma   90.00000000
_symmetry_Int_Tables_number   1
_chemical_formula_structural   Rb2TcF7
_chemical_formula_sum   'Rb4 Tc2 F14'
_cell_volume   357.08891014
_cell_formula_units_Z   2
loop_
 _symmetry_equiv_pos_site_id
 _symmetry_equiv_pos_as_xyz
  1  'x, y, z'
loop_
 _atom_site_type_symbol
 _atom_site_label
 _atom_site_symmetry_multiplicity
 _atom_site_fract_x
 _atom_site_fract_y
 _atom_site_fract_z
 _atom_site_occupancy
  Rb  Rb0  1  0.00000000  0.50000000  0.36089945  1
  Rb  Rb1  1  0.50000000  0.00000000  0.63910055  1
  Rb  Rb2  1  0.50000000  0.50000000  0.99255507  1
  Rb  Rb3  1  0.00000000  0.00000000  0.00744493  1
  Tc  Tc0  1  0.00000000  0.50000000  0.76389078  1
  Tc  Tc1  1  0.50000000  0.00000000  0.23610922  1
  F  F0  1  0.21524521  0.25987669  0.80093788  1
  F  F1  1  0.28475479  0.24012331  0.19906212  1
  F  F2  1  0.71524521  0.75987669  0.19906212  1
  F  F3  1  0.78475479  0.74012331  0.80093788  1
  F  F4  1  0.21524521  0.74012331  0.80093788  1
  F  F5  1  0.71524521  0.24012331  0.19906212  1
  F  F6  1  0.28475479  0.75987669  0.19906212  1
  F  F7  1  0.78475479  0.25987669  0.80093788  1
  F  F8  1  0.00000000  0.50000000  0.95389901  1
  F  F9  1  0.50000000  0.00000000  0.04610099  1
  F  F10  1  0.19415338  0.50000000  0.61290035  1
  F  F11  1  0.80584662  0.50000000  0.61290035  1
  F  F12  1  0.30584662  0.00000000  0.38709965  1
  F  F13  1  0.69415338  0.00000000  0.38709965  1
loop_
_geom_bond_atom_site_label_1
_geom_bond_atom_site_label_2
_geom_bond_distance
_geom_bond_site_symmetry_2
F0 Tc0 1.937576 1_555
F0 Rb1 2.817885 1_555
F0 Rb3 2.905453 1_556
F0 Rb2 2.951846 1_555
F1 Tc1 1.937576 1_555
F1 Rb0 2.817885 1_555
F1 Rb2 2.905453 1_554
F1 Rb3 2.951846 1_555
F2 Tc1 1.937576 1_565
F2 Rb0 2.817885 1_655
F2 Rb2 2.905453 1_554
F2 Rb3 2.951846 1_665
F3 Tc0 1.937576 1_655
F3 Rb1 2.817885 1_565
F3 Rb3 2.905453 1_666
F3 Rb2 2.951846 1_555
F4 Tc0 1.937576 1_555
F4 Rb1 2.817885 1_565
F4 Rb3 2.905453 1_566
F4 Rb2 2.951846 1_555
F5 Tc1 1.937576 1_555
F5 Rb0 2.817885 1_655
F5 Rb2 2.905453 1_554
F5 Rb3 2.951846 1_655
F6 Tc1 1.937576 1_565
F6 Rb0 2.817885 1_555
F6 Rb2 2.905453 1_554
F6 Rb3 2.951846 1_565
F7 Tc0 1.937576 1_655
F7 Rb1 2.817885 1_555
F7 Rb3 2.905453 1_656
F7 Rb2 2.951846 1_555
F8 Tc0 1.950856 1_555
F8 Rb3 2.970522 1_566
F8 Rb3 2.970522 1_556
F8 Rb2 3.004836 1_555
F8 Rb2 3.004836 1_455
F9 Tc1 1.950856 1_555
F9 Rb2 2.970522 1_554
F9 Rb2 2.970522 1_544
F9 Rb3 3.004836 1_555
F9 Rb3 3.004836 1_655
F10 Tc0 1.934153 1_555
F10 Rb0 2.834085 1_555
F11 Tc0 1.934153 1_655
F11 Rb0 2.834085 1_655
F12 Tc1 1.934153 1_555
F12 Rb1 2.834085 1_555
F13 Tc1 1.934153 1_555
F13 Rb1 2.834085 1_555
