# generated using pymatgen
data_LaCu6
_symmetry_space_group_name_H-M   'P 1'
_cell_length_a   5.08907265
_cell_length_b   8.09479680
_cell_length_c   10.11117292
_cell_angle_alpha   90.00000000
_cell_angle_beta   90.00000000
_cell_angle_gamma   92.85742158
_symmetry_Int_Tables_number   1
_chemical_formula_structural   LaCu6
_chemical_formula_sum   'La4 Cu24'
_cell_volume   416.01197927
_cell_formula_units_Z   4
loop_
 _symmetry_equiv_pos_site_id
 _symmetry_equiv_pos_as_xyz
  1  'x, y, z'
loop_
 _atom_site_type_symbol
 _atom_site_label
 _atom_site_symmetry_multiplicity
 _atom_site_fract_x
 _atom_site_fract_y
 _atom_site_fract_z
 _atom_site_occupancy
  La  La0  1  0.73263780  0.73782531  0.56311648  1
  La  La1  1  0.26736220  0.76217469  0.06311648  1
  La  La2  1  0.26736220  0.26217469  0.43688352  1
  La  La3  1  0.73263780  0.23782531  0.93688352  1
  Cu  Cu0  1  0.99115066  0.56047481  0.81205724  1
  Cu  Cu1  1  0.00884934  0.93952519  0.31205724  1
  Cu  Cu2  1  0.00884934  0.43952519  0.18794276  1
  Cu  Cu3  1  0.99115066  0.06047481  0.68794276  1
  Cu  Cu4  1  0.49918390  0.56818936  0.80627493  1
  Cu  Cu5  1  0.50081610  0.93181064  0.30627493  1
  Cu  Cu6  1  0.50081610  0.43181064  0.19372507  1
  Cu  Cu7  1  0.49918390  0.06818936  0.69372507  1
  Cu  Cu8  1  0.76333158  0.84772378  0.85827683  1
  Cu  Cu9  1  0.23666842  0.65227622  0.35827683  1
  Cu  Cu10  1  0.23666842  0.15227622  0.14172317  1
  Cu  Cu11  1  0.76333158  0.34772378  0.64172317  1
  Cu  Cu12  1  0.75069888  0.18201693  0.24529398  1
  Cu  Cu13  1  0.24930112  0.31798307  0.74529398  1
  Cu  Cu14  1  0.24930112  0.81798307  0.75470602  1
  Cu  Cu15  1  0.75069888  0.68201693  0.25470602  1
  Cu  Cu16  1  0.79313153  0.43874123  0.40076620  1
  Cu  Cu17  1  0.20686847  0.06125877  0.90076620  1
  Cu  Cu18  1  0.20686847  0.56125877  0.59923380  1
  Cu  Cu19  1  0.79313153  0.93874123  0.09923380  1
  Cu  Cu20  1  0.74996203  0.09704279  0.48405479  1
  Cu  Cu21  1  0.25003797  0.40295721  0.98405479  1
  Cu  Cu22  1  0.25003797  0.90295721  0.51594521  1
  Cu  Cu23  1  0.74996203  0.59704279  0.01594521  1
loop_
_geom_bond_atom_site_label_1
_geom_bond_atom_site_label_2
_geom_bond_distance
_geom_bond_site_symmetry_2
Cu0 Cu18 2.415609 1_655
Cu0 Cu23 2.424953 1_556
Cu0 Cu14 2.476735 1_655
Cu0 Cu4 2.508225 1_555
Cu0 Cu13 2.508346 1_655
Cu0 Cu21 2.559991 1_655
Cu0 Cu4 2.583720 1_655
Cu0 Cu11 2.660308 1_555
Cu0 Cu8 2.690356 1_555
Cu0 La3 3.130911 1_555
Cu0 La0 3.211820 1_555
Cu0 La1 3.294971 1_656
Cu1 Cu19 2.415609 1_455
Cu1 Cu22 2.424953 1_555
Cu1 Cu15 2.476735 1_455
Cu1 Cu5 2.508225 1_555
Cu1 Cu12 2.508346 1_465
Cu1 Cu20 2.559991 1_465
Cu1 Cu5 2.583720 1_455
Cu1 Cu10 2.660308 1_565
Cu1 Cu9 2.690356 1_555
Cu1 La2 3.130911 1_565
Cu1 La1 3.211820 1_555
Cu1 La0 3.294971 1_455
Cu2 Cu21 2.424953 1_554
Cu2 Cu6 2.508225 1_555
Cu2 Cu23 2.559991 1_455
Cu2 Cu6 2.583720 1_455
Cu2 Cu9 2.660308 1_555
Cu2 La1 3.130911 1_555
Cu2 La2 3.211820 1_555
Cu2 La3 3.294971 1_454
Cu3 Cu7 2.508225 1_555
Cu3 Cu7 2.583720 1_655
Cu3 Cu8 2.660308 1_545
Cu3 La0 3.130911 1_545
Cu3 La3 3.211820 1_555
Cu3 La2 3.294971 1_655
Cu4 Cu8 2.626861 1_555
Cu4 La0 3.029725 1_555
Cu4 La3 3.259412 1_555
Cu4 La1 3.284286 1_556
Cu5 Cu9 2.626861 1_555
Cu5 La1 3.029725 1_555
Cu5 La2 3.259412 1_565
Cu5 La0 3.284286 1_555
Cu6 Cu9 2.828319 1_555
Cu6 La2 3.029725 1_555
Cu6 La1 3.259412 1_555
Cu6 La3 3.284286 1_554
Cu7 Cu8 2.828319 1_545
Cu7 La3 3.029725 1_555
Cu7 La0 3.259412 1_545
Cu7 La2 3.284286 1_555
Cu8 La0 3.115877 1_555
Cu8 La3 3.267560 1_565
Cu8 La1 3.311455 1_556
Cu8 La1 3.394978 1_656
Cu9 La1 3.115877 1_555
Cu9 La2 3.267560 1_555
Cu9 La0 3.311455 1_555
Cu9 La0 3.394978 1_455
Cu10 Cu17 2.547651 1_554
Cu10 Cu21 2.578774 1_554
Cu10 Cu6 2.626861 1_555
Cu10 Cu2 2.690356 1_555
Cu10 Cu12 2.707469 1_455
Cu10 Cu19 2.806827 1_445
Cu10 Cu12 2.816909 1_555
Cu10 Cu5 2.828319 1_545
Cu10 La2 3.115877 1_555
Cu10 La1 3.267560 1_545
Cu10 La3 3.311455 1_554
Cu10 La3 3.394978 1_454
Cu11 Cu16 2.547651 1_555
Cu11 Cu20 2.578774 1_555
Cu11 Cu7 2.626861 1_555
Cu11 Cu3 2.690356 1_555
Cu11 Cu13 2.707469 1_655
Cu11 Cu18 2.806827 1_655
Cu11 Cu13 2.816909 1_555
Cu11 Cu4 2.828319 1_555
Cu11 La3 3.115877 1_555
Cu11 La0 3.267560 1_555
Cu11 La2 3.311455 1_555
Cu11 La2 3.394978 1_655
Cu12 Cu5 2.417159 1_545
Cu12 Cu2 2.476735 1_655
Cu12 Cu19 2.479536 1_545
Cu12 Cu6 2.496798 1_555
Cu12 Cu20 2.510184 1_555
Cu12 Cu16 2.606093 1_555
Cu12 La3 3.152941 1_554
Cu12 La2 3.222293 1_555
Cu12 La2 3.304098 1_655
Cu13 Cu4 2.417159 1_555
Cu13 Cu3 2.476735 1_455
Cu13 Cu18 2.479536 1_555
Cu13 Cu7 2.496798 1_555
Cu13 Cu21 2.510184 1_555
Cu13 Cu17 2.606093 1_555
Cu13 La2 3.152941 1_555
Cu13 La3 3.222293 1_555
Cu13 La3 3.304098 1_455
Cu14 Cu7 2.417159 1_565
Cu14 Cu17 2.479536 1_565
Cu14 Cu4 2.496798 1_555
Cu14 Cu3 2.508346 1_465
Cu14 Cu22 2.510184 1_555
Cu14 Cu18 2.606093 1_555
Cu14 Cu8 2.707469 1_455
Cu14 Cu8 2.816909 1_555
Cu14 La1 3.152941 1_556
Cu14 La0 3.222293 1_555
Cu14 La0 3.304098 1_455
Cu15 Cu6 2.417159 1_555
Cu15 Cu16 2.479536 1_555
Cu15 Cu5 2.496798 1_555
Cu15 Cu2 2.508346 1_655
Cu15 Cu23 2.510184 1_555
Cu15 Cu19 2.606093 1_555
Cu15 Cu9 2.707469 1_655
Cu15 Cu9 2.816909 1_555
Cu15 La0 3.152941 1_555
Cu15 La1 3.222293 1_555
Cu15 La1 3.304098 1_655
Cu16 Cu2 2.415609 1_655
Cu16 Cu6 2.567152 1_555
Cu16 Cu9 2.806827 1_655
Cu16 La2 2.888695 1_655
Cu16 Cu20 2.889209 1_555
Cu16 La0 2.953835 1_555
Cu16 La2 2.992348 1_555
Cu16 Cu18 3.039026 1_655
Cu17 Cu3 2.415609 1_455
Cu17 Cu7 2.567152 1_555
Cu17 Cu8 2.806827 1_445
Cu17 La3 2.888695 1_455
Cu17 Cu21 2.889209 1_555
Cu17 La1 2.953835 1_546
Cu17 La3 2.992348 1_555
Cu17 Cu19 3.039026 1_446
Cu18 Cu9 2.547651 1_555
Cu18 Cu4 2.567152 1_555
Cu18 La0 2.888695 1_455
Cu18 Cu22 2.889209 1_555
Cu18 La2 2.953835 1_555
Cu18 La0 2.992348 1_555
Cu19 Cu8 2.547651 1_554
Cu19 Cu5 2.567152 1_555
Cu19 La1 2.888695 1_655
Cu19 Cu23 2.889209 1_555
Cu19 La3 2.953835 1_564
Cu19 La1 2.992348 1_555
Cu20 Cu3 2.424953 1_555
Cu20 Cu7 2.479525 1_555
Cu20 Cu5 2.541405 1_545
Cu20 La2 2.893693 1_555
Cu20 La2 2.931981 1_655
Cu20 La0 3.012727 1_545
Cu21 Cu6 2.479525 1_556
Cu21 Cu4 2.541405 1_555
Cu21 La3 2.893693 1_555
Cu21 La3 2.931981 1_455
Cu21 La1 3.012727 1_556
Cu22 Cu5 2.479525 1_555
Cu22 Cu7 2.541405 1_565
Cu22 Cu3 2.559991 1_465
Cu22 Cu9 2.578774 1_555
Cu22 La0 2.893693 1_555
Cu22 La0 2.931981 1_455
Cu22 La2 3.012727 1_565
Cu23 Cu4 2.479525 1_554
Cu23 Cu6 2.541405 1_555
Cu23 Cu8 2.578774 1_554
Cu23 La1 2.893693 1_555
Cu23 La1 2.931981 1_655
Cu23 La3 3.012727 1_554
