# generated using pymatgen
data_Cd3SbBr3
_symmetry_space_group_name_H-M   'P 1'
_cell_length_a   7.53127843
_cell_length_b   8.66318854
_cell_length_c   14.05074950
_cell_angle_alpha   90.00000000
_cell_angle_beta   90.00000000
_cell_angle_gamma   90.00000000
_symmetry_Int_Tables_number   1
_chemical_formula_structural   Cd3SbBr3
_chemical_formula_sum   'Cd12 Sb4 Br12'
_cell_volume   916.73953592
_cell_formula_units_Z   4
loop_
 _symmetry_equiv_pos_site_id
 _symmetry_equiv_pos_as_xyz
  1  'x, y, z'
loop_
 _atom_site_type_symbol
 _atom_site_label
 _atom_site_symmetry_multiplicity
 _atom_site_fract_x
 _atom_site_fract_y
 _atom_site_fract_z
 _atom_site_occupancy
  Cd  Cd0  1  0.52413787  0.75000000  0.76749191  1
  Cd  Cd1  1  0.02413787  0.25000000  0.73250809  1
  Cd  Cd2  1  0.47586213  0.25000000  0.23250809  1
  Cd  Cd3  1  0.97586213  0.75000000  0.26749191  1
  Cd  Cd4  1  0.50000000  0.50000000  0.50000000  1
  Cd  Cd5  1  0.00000000  0.50000000  0.00000000  1
  Cd  Cd6  1  0.50000000  0.00000000  0.50000000  1
  Cd  Cd7  1  0.00000000  0.00000000  0.00000000  1
  Cd  Cd8  1  0.01272013  0.75000000  0.58097074  1
  Cd  Cd9  1  0.51272013  0.25000000  0.91902926  1
  Cd  Cd10  1  0.98727987  0.25000000  0.41902926  1
  Cd  Cd11  1  0.48727987  0.75000000  0.08097074  1
  Sb  Sb0  1  0.84860685  0.75000000  0.08522032  1
  Sb  Sb1  1  0.34860685  0.25000000  0.41477968  1
  Sb  Sb2  1  0.15139315  0.25000000  0.91477968  1
  Sb  Sb3  1  0.65139315  0.75000000  0.58522032  1
  Br  Br0  1  0.79872480  0.01810842  0.33718606  1
  Br  Br1  1  0.29872480  0.98189158  0.16281394  1
  Br  Br2  1  0.20127520  0.51810842  0.66281394  1
  Br  Br3  1  0.70127520  0.48189158  0.83718606  1
  Br  Br4  1  0.20127520  0.98189158  0.66281394  1
  Br  Br5  1  0.70127520  0.01810842  0.83718606  1
  Br  Br6  1  0.79872480  0.48189158  0.33718606  1
  Br  Br7  1  0.29872480  0.51810842  0.16281394  1
  Br  Br8  1  0.29567882  0.75000000  0.91277559  1
  Br  Br9  1  0.79567882  0.25000000  0.58722441  1
  Br  Br10  1  0.70432118  0.25000000  0.08722441  1
  Br  Br11  1  0.20432118  0.75000000  0.41277559  1
loop_
_geom_bond_atom_site_label_1
_geom_bond_atom_site_label_2
_geom_bond_distance
_geom_bond_site_symmetry_2
Cd0 Sb3 2.734504 1_555
Cd1 Sb2 2.734504 1_555
Cd2 Sb1 2.734504 1_555
Cd3 Sb0 2.734504 1_555
Cd4 Sb3 2.724791 1_555
Cd4 Sb1 2.724791 1_555
Cd5 Sb0 2.724791 1_455
Cd5 Sb2 2.724791 1_554
Cd6 Sb3 2.724791 1_545
Cd6 Sb1 2.724791 1_555
Cd7 Sb0 2.724791 1_445
Cd7 Sb2 2.724791 1_554
Cd8 Sb3 2.721909 1_455
Cd9 Sb2 2.721909 1_555
Cd10 Sb1 2.721909 1_655
Cd11 Sb0 2.721909 1_555
Br0 Cd10 2.715647 1_555
Br0 Cd3 2.851929 1_545
Br0 Cd6 3.212397 1_555
Br1 Cd11 2.715647 1_555
Br1 Cd2 2.851929 1_565
Br1 Cd7 3.212397 1_565
Br2 Cd8 2.715647 1_555
Br2 Cd1 2.851929 1_555
Br2 Cd4 3.212397 1_555
Br3 Cd9 2.715647 1_555
Br3 Cd0 2.851929 1_555
Br3 Cd5 3.212397 1_656
Br4 Cd8 2.715647 1_555
Br4 Cd1 2.851929 1_565
Br4 Cd6 3.212397 1_565
Br5 Cd9 2.715647 1_555
Br5 Cd0 2.851929 1_545
Br5 Cd7 3.212397 1_656
Br6 Cd10 2.715647 1_555
Br6 Cd3 2.851929 1_555
Br6 Cd4 3.212397 1_555
Br7 Cd11 2.715647 1_555
Br7 Cd2 2.851929 1_555
Br7 Cd5 3.212397 1_555
Br8 Cd0 2.669740 1_555
Br8 Cd11 2.768987 1_556
Br8 Cd5 3.339388 1_556
Br8 Cd7 3.339388 1_566
Br9 Cd1 2.669740 1_655
Br9 Cd10 2.768987 1_555
Br9 Cd6 3.339388 1_555
Br9 Cd4 3.339388 1_555
Br10 Cd2 2.669740 1_555
Br10 Cd9 2.768987 1_554
Br10 Cd5 3.339388 1_655
Br10 Cd7 3.339388 1_655
Br11 Cd3 2.669740 1_455
Br11 Cd8 2.768987 1_555
Br11 Cd6 3.339388 1_565
Br11 Cd4 3.339388 1_555
