# generated using pymatgen
data_Be3(BRu)2
_symmetry_space_group_name_H-M   'P 1'
_cell_length_a   5.54254284
_cell_length_b   5.54254300
_cell_length_c   5.76297992
_cell_angle_alpha   98.43679866
_cell_angle_beta   98.43679594
_cell_angle_gamma   43.79653766
_symmetry_Int_Tables_number   1
_chemical_formula_structural   Be3(BRu)2
_chemical_formula_sum   'Be6 B4 Ru4'
_cell_volume   120.98600792
_cell_formula_units_Z   2
loop_
 _symmetry_equiv_pos_site_id
 _symmetry_equiv_pos_as_xyz
  1  'x, y, z'
loop_
 _atom_site_type_symbol
 _atom_site_label
 _atom_site_symmetry_multiplicity
 _atom_site_fract_x
 _atom_site_fract_y
 _atom_site_fract_z
 _atom_site_occupancy
  Be  Be0  1  0.07626718  0.35435457  0.81327701  1
  Be  Be1  1  0.64564543  0.92373282  0.68672299  1
  Be  Be2  1  0.92373282  0.64564543  0.18672299  1
  Be  Be3  1  0.35435457  0.07626718  0.31327701  1
  Be  Be4  1  0.84048853  0.15951147  0.75000000  1
  Be  Be5  1  0.15951147  0.84048853  0.25000000  1
  B  B0  1  0.06184410  0.74224220  0.92515218  1
  B  B1  1  0.25775780  0.93815590  0.57484782  1
  B  B2  1  0.93815590  0.25775780  0.07484782  1
  B  B3  1  0.74224220  0.06184410  0.42515218  1
  Ru  Ru0  1  0.22772738  0.54662936  0.56684942  1
  Ru  Ru1  1  0.45337064  0.77227262  0.93315058  1
  Ru  Ru2  1  0.77227262  0.45337064  0.43315058  1
  Ru  Ru3  1  0.54662936  0.22772738  0.06684942  1
loop_
_geom_bond_atom_site_label_1
_geom_bond_atom_site_label_2
_geom_bond_distance
_geom_bond_site_symmetry_2
Be0 Be4 2.188353 1_455
Be0 Be1 2.340681 1_545
Be0 Be1 2.340681 1_455
Be0 Be2 2.344573 1_456
Be0 Ru1 2.397945 1_545
Be0 Ru2 2.423613 1_455
Be0 Ru0 2.437760 1_555
Be0 Ru3 2.442587 1_556
Be0 Ru1 2.539243 1_455
Be1 Be4 2.188353 1_565
Be1 Be3 2.344573 1_565
Be1 Ru0 2.397944 1_655
Be1 Ru3 2.423613 1_566
Be1 Ru1 2.437760 1_555
Be1 Ru2 2.442587 1_555
Be1 Ru0 2.539243 1_565
Be2 Be5 2.188353 1_655
Be2 Be3 2.340681 1_565
Be2 Be3 2.340681 1_655
Be2 Ru3 2.397945 1_565
Be2 Ru0 2.423613 1_655
Be2 Ru2 2.437760 1_555
Be2 Ru1 2.442587 1_554
Be2 Ru3 2.539243 1_655
Be3 Be5 2.188353 1_545
Be3 Ru2 2.397944 1_455
Be3 Ru1 2.423613 1_544
Be3 Ru3 2.437760 1_555
Be3 Ru0 2.442587 1_555
Be3 Ru2 2.539243 1_545
Be4 Ru3 2.431275 1_556
Be4 Ru2 2.431275 1_555
Be4 Ru1 2.518989 1_555
Be4 Ru0 2.518989 1_555
Be4 Ru0 2.519399 1_645
Be4 Ru1 2.519399 1_645
Be5 Ru1 2.431275 1_554
Be5 Ru0 2.431275 1_555
Be5 Ru3 2.518989 1_555
Be5 Ru2 2.518989 1_555
Be5 Ru2 2.519399 1_465
Be5 Ru3 2.519399 1_465
B0 Be5 1.980733 1_556
B0 Be4 2.024435 1_465
B0 Be2 2.076540 1_456
B0 Be1 2.084925 1_455
B0 Be0 2.098657 1_555
B0 Ru0 2.178466 1_555
B0 Ru3 2.235353 1_556
B0 Ru3 2.238027 1_466
B0 Ru1 2.286652 1_555
B1 Be5 1.980733 1_555
B1 Be4 2.024435 1_465
B1 Be3 2.076540 1_565
B1 Be0 2.084925 1_565
B1 Be1 2.098657 1_555
B1 Ru1 2.178467 1_555
B1 Ru2 2.235353 1_555
B1 Ru2 2.238027 1_465
B1 Ru0 2.286652 1_555
B2 Be4 1.980733 1_554
B2 Be5 2.024435 1_645
B2 Be0 2.076540 1_654
B2 Be3 2.084925 1_655
B2 Be2 2.098657 1_555
B2 Ru2 2.178466 1_555
B2 Ru1 2.235353 1_554
B2 Ru1 2.238027 1_644
B2 Ru3 2.286652 1_555
B3 Be4 1.980733 1_555
B3 Be5 2.024435 1_645
B3 Be1 2.076540 1_545
B3 Be2 2.084925 1_545
B3 Be3 2.098657 1_555
B3 Ru3 2.178467 1_555
B3 Ru0 2.235353 1_555
B3 Ru0 2.238027 1_645
B3 Ru2 2.286652 1_555
