# generated using pymatgen
data_CdIn2(SeO3)4
_symmetry_space_group_name_H-M   'P 1'
_cell_length_a   4.81481175
_cell_length_b   8.55443432
_cell_length_c   15.98187148
_cell_angle_alpha   70.74705839
_cell_angle_beta   90.00000000
_cell_angle_gamma   90.00000000
_symmetry_Int_Tables_number   1
_chemical_formula_structural   CdIn2(SeO3)4
_chemical_formula_sum   'Cd2 In4 Se8 O24'
_cell_volume   621.44600715
_cell_formula_units_Z   2
loop_
 _symmetry_equiv_pos_site_id
 _symmetry_equiv_pos_as_xyz
  1  'x, y, z'
loop_
 _atom_site_type_symbol
 _atom_site_label
 _atom_site_symmetry_multiplicity
 _atom_site_fract_x
 _atom_site_fract_y
 _atom_site_fract_z
 _atom_site_occupancy
  Cd  Cd0  1  0.00000000  0.00000000  0.00000000  1
  Cd  Cd1  1  0.50000000  0.00000000  0.50000000  1
  In  In0  1  0.52527942  0.15483901  0.78794269  1
  In  In1  1  0.97472058  0.15483901  0.28794269  1
  In  In2  1  0.47472058  0.84516099  0.21205731  1
  In  In3  1  0.02527942  0.84516099  0.71205731  1
  Se  Se0  1  0.54800155  0.77716196  0.88151040  1
  Se  Se1  1  0.95199845  0.77716196  0.38151040  1
  Se  Se2  1  0.45199845  0.22283804  0.11848960  1
  Se  Se3  1  0.04800155  0.22283804  0.61848960  1
  Se  Se4  1  0.00195531  0.35812809  0.86758296  1
  Se  Se5  1  0.49804469  0.35812809  0.36758296  1
  Se  Se6  1  0.99804469  0.64187191  0.13241704  1
  Se  Se7  1  0.50195531  0.64187191  0.63241704  1
  O  O0  1  0.75969056  0.36138438  0.78886853  1
  O  O1  1  0.74030944  0.36138438  0.28886853  1
  O  O2  1  0.24030944  0.63861562  0.21113147  1
  O  O3  1  0.25969056  0.63861562  0.71113147  1
  O  O4  1  0.81235991  0.71337157  0.83145070  1
  O  O5  1  0.68764009  0.71337157  0.33145070  1
  O  O6  1  0.18764009  0.28662843  0.16854930  1
  O  O7  1  0.31235991  0.28662843  0.66854930  1
  O  O8  1  0.19750348  0.18255450  0.87148028  1
  O  O9  1  0.30249652  0.18255450  0.37148028  1
  O  O10  1  0.80249652  0.81744550  0.12851972  1
  O  O11  1  0.69750348  0.81744550  0.62851972  1
  O  O12  1  0.67950079  0.94795944  0.90252066  1
  O  O13  1  0.82049921  0.94795944  0.40252066  1
  O  O14  1  0.32049921  0.05204056  0.09747934  1
  O  O15  1  0.17950079  0.05204056  0.59747934  1
  O  O16  1  0.35413403  0.90584614  0.79311578  1
  O  O17  1  0.14586597  0.90584614  0.29311578  1
  O  O18  1  0.64586597  0.09415386  0.20688422  1
  O  O19  1  0.85413403  0.09415386  0.70688422  1
  O  O20  1  0.83759578  0.26343773  0.96430544  1
  O  O21  1  0.66240422  0.26343773  0.46430544  1
  O  O22  1  0.16240422  0.73656227  0.03569456  1
  O  O23  1  0.33759578  0.73656227  0.53569456  1
loop_
_geom_bond_atom_site_label_1
_geom_bond_atom_site_label_2
_geom_bond_distance
_geom_bond_site_symmetry_2
Cd0 O20 2.273234 1_454
Cd0 O22 2.273234 1_545
Cd0 O8 2.333785 1_554
Cd0 O10 2.333785 1_445
Cd0 O12 2.337501 1_444
Cd0 O14 2.337501 1_555
Cd1 O21 2.273234 1_555
Cd1 O23 2.273234 1_545
Cd1 O11 2.333785 1_545
Cd1 O9 2.333785 1_555
Cd1 O13 2.337501 1_545
Cd1 O15 2.337501 1_555
In0 O0 2.100753 1_555
In0 O8 2.130274 1_555
In0 O7 2.131726 1_555
In0 O19 2.213211 1_555
In0 O12 2.213451 1_545
In0 O16 2.259779 1_545
In1 O1 2.100753 1_555
In1 O9 2.130274 1_655
In1 O6 2.131726 1_655
In1 O18 2.213211 1_555
In1 O13 2.213451 1_545
In1 O17 2.259779 1_645
In2 O2 2.100753 1_555
In2 O10 2.130274 1_555
In2 O5 2.131726 1_555
In2 O17 2.213211 1_555
In2 O14 2.213451 1_565
In2 O18 2.259779 1_565
In3 O3 2.100753 1_555
In3 O11 2.130274 1_455
In3 O4 2.131726 1_455
In3 O16 2.213211 1_555
In3 O15 2.213451 1_565
In3 O19 2.259779 1_465
O0 Se4 1.709054 1_655
O1 Se5 1.709054 1_555
O2 Se6 1.709054 1_455
O3 Se7 1.709054 1_555
O4 Se0 1.686974 1_555
O5 Se1 1.686974 1_555
O6 Se2 1.686974 1_555
O7 Se3 1.686974 1_555
O8 Se4 1.756264 1_555
O9 Se5 1.756264 1_555
O10 Se6 1.756264 1_555
O11 Se7 1.756264 1_555
O12 Se0 1.723922 1_555
O13 Se1 1.723922 1_555
O14 Se2 1.723922 1_555
O15 Se3 1.723922 1_555
O16 Se0 1.747363 1_555
O17 Se1 1.747363 1_455
O18 Se2 1.747363 1_555
O19 Se3 1.747363 1_655
O20 Se4 1.687053 1_655
O21 Se5 1.687053 1_555
O22 Se6 1.687053 1_455
O23 Se7 1.687053 1_555
