# generated using pymatgen
data_Nb3SnAuC
_symmetry_space_group_name_H-M   'P 1'
_cell_length_a   7.27546817
_cell_length_b   7.27546817
_cell_length_c   7.27546817
_cell_angle_alpha   90.00000000
_cell_angle_beta   90.00000000
_cell_angle_gamma   90.00000000
_symmetry_Int_Tables_number   1
_chemical_formula_structural   Nb3SnAuC
_chemical_formula_sum   'Nb12 Sn4 Au4 C4'
_cell_volume   385.10826134
_cell_formula_units_Z   4
loop_
 _symmetry_equiv_pos_site_id
 _symmetry_equiv_pos_as_xyz
  1  'x, y, z'
loop_
 _atom_site_type_symbol
 _atom_site_label
 _atom_site_symmetry_multiplicity
 _atom_site_fract_x
 _atom_site_fract_y
 _atom_site_fract_z
 _atom_site_occupancy
  Nb  Nb0  1  0.78784894  0.95977337  0.37645298  1
  Nb  Nb1  1  0.71215106  0.04022663  0.87645298  1
  Nb  Nb2  1  0.21215106  0.45977337  0.12354702  1
  Nb  Nb3  1  0.28784894  0.54022663  0.62354702  1
  Nb  Nb4  1  0.95977337  0.37645298  0.78784894  1
  Nb  Nb5  1  0.04022663  0.87645298  0.71215106  1
  Nb  Nb6  1  0.45977337  0.12354702  0.21215106  1
  Nb  Nb7  1  0.54022663  0.62354702  0.28784894  1
  Nb  Nb8  1  0.37645298  0.78784894  0.95977337  1
  Nb  Nb9  1  0.87645298  0.71215106  0.04022663  1
  Nb  Nb10  1  0.12354702  0.21215106  0.45977337  1
  Nb  Nb11  1  0.62354702  0.28784894  0.54022663  1
  Sn  Sn0  1  0.57030024  0.42969976  0.92969976  1
  Sn  Sn1  1  0.42969976  0.92969976  0.57030024  1
  Sn  Sn2  1  0.92969976  0.57030024  0.42969976  1
  Sn  Sn3  1  0.07030024  0.07030024  0.07030024  1
  Au  Au0  1  0.18371552  0.81628448  0.31628448  1
  Au  Au1  1  0.31628448  0.18371552  0.81628448  1
  Au  Au2  1  0.81628448  0.31628448  0.18371552  1
  Au  Au3  1  0.68371552  0.68371552  0.68371552  1
  C  C0  1  0.87608474  0.12391526  0.62391526  1
  C  C1  1  0.62391526  0.87608474  0.12391526  1
  C  C2  1  0.12391526  0.62391526  0.87608474  1
  C  C3  1  0.37608474  0.37608474  0.37608474  1
loop_
_geom_bond_atom_site_label_1
_geom_bond_atom_site_label_2
_geom_bond_distance
_geom_bond_site_symmetry_2
Nb0 Sn1 2.970958 1_555
Nb0 Sn2 3.040468 1_555
Nb0 Sn3 3.135418 1_665
Nb1 Sn3 2.970958 1_656
Nb1 Sn0 3.040468 1_555
Nb1 Sn1 3.135418 1_545
Nb2 Sn0 2.970958 1_554
Nb2 Sn3 3.040468 1_555
Nb2 Sn2 3.135418 1_455
Nb3 Sn2 2.970958 1_455
Nb3 Sn1 3.040468 1_555
Nb3 Sn0 3.135418 1_555
Nb4 Sn2 2.970958 1_555
Nb4 Sn0 3.040468 1_555
Nb4 Sn3 3.135418 1_656
Nb5 Sn3 2.970958 1_566
Nb5 Sn1 3.040468 1_555
Nb5 Sn2 3.135418 1_455
Nb6 Sn1 2.970958 1_545
Nb6 Sn3 3.040468 1_555
Nb6 Sn0 3.135418 1_554
Nb7 Sn0 2.970958 1_554
Nb7 Sn2 3.040468 1_555
Nb7 Sn1 3.135418 1_555
Nb8 Sn0 2.970958 1_555
Nb8 Sn1 3.040468 1_555
Nb8 Sn3 3.135418 1_566
Nb9 Sn3 2.970958 1_665
Nb9 Sn2 3.040468 1_555
Nb9 Sn0 3.135418 1_554
Nb10 Sn2 2.970958 1_455
Nb10 Sn3 3.040468 1_555
Nb10 Sn1 3.135418 1_545
Nb11 Sn1 2.970958 1_545
Nb11 Sn0 3.040468 1_555
Nb11 Sn2 3.135418 1_555
Au0 Sn3 2.701691 1_565
Au0 Sn2 2.701691 1_455
Au0 Sn1 2.701691 1_555
Au0 Nb2 2.955815 1_555
Au0 Nb7 2.955815 1_555
Au0 Nb8 2.955815 1_554
Au0 Nb10 3.094595 1_565
Au0 Nb0 3.094595 1_455
Au0 Nb5 3.094595 1_555
Au0 Nb9 3.099230 1_455
Au0 Nb6 3.099230 1_565
Au0 Nb3 3.099230 1_555
Au1 Sn3 2.701691 1_556
Au1 Sn0 2.701691 1_555
Au1 Sn1 2.701691 1_545
Au1 Nb10 2.955815 1_555
Au1 Nb3 2.955815 1_555
Au1 Nb4 2.955815 1_455
Au1 Nb6 3.094595 1_556
Au1 Nb8 3.094595 1_545
Au1 Nb1 3.094595 1_555
Au1 Nb5 3.099230 1_545
Au1 Nb2 3.099230 1_556
Au1 Nb11 3.099230 1_555
Au2 Sn3 2.701691 1_655
Au2 Sn0 2.701691 1_554
Au2 Sn2 2.701691 1_555
Au2 Nb11 2.955815 1_555
Au2 Nb6 2.955815 1_555
Au2 Nb0 2.955815 1_545
Au2 Nb2 3.094595 1_655
Au2 Nb4 3.094595 1_554
Au2 Nb9 3.094595 1_555
Au2 Nb1 3.099230 1_554
Au2 Nb10 3.099230 1_655
Au2 Nb7 3.099230 1_555
Au3 Sn0 2.701691 1_555
Au3 Sn1 2.701691 1_555
Au3 Sn2 2.701691 1_555
Au3 Nb9 2.955815 1_556
Au3 Nb1 2.955815 1_565
Au3 Nb5 2.955815 1_655
Au3 Nb7 3.094595 1_555
Au3 Nb11 3.094595 1_555
Au3 Nb3 3.094595 1_555
Au3 Nb4 3.099230 1_555
Au3 Nb8 3.099230 1_555
Au3 Nb0 3.099230 1_555
C0 Nb0 2.253819 1_545
C0 Nb5 2.253819 1_645
C0 Nb10 2.253819 1_655
C0 Nb11 2.273550 1_555
C0 Nb1 2.273550 1_555
C0 Nb4 2.273550 1_555
C1 Nb8 2.253819 1_554
C1 Nb1 2.253819 1_564
C1 Nb6 2.253819 1_565
C1 Nb7 2.273550 1_555
C1 Nb9 2.273550 1_555
C1 Nb0 2.273550 1_555
C2 Nb4 2.253819 1_455
C2 Nb9 2.253819 1_456
C2 Nb2 2.253819 1_556
C2 Nb3 2.273550 1_555
C2 Nb5 2.273550 1_555
C2 Nb8 2.273550 1_555
C3 Nb3 2.253819 1_555
C3 Nb7 2.253819 1_555
C3 Nb11 2.253819 1_555
C3 Nb10 2.273550 1_555
C3 Nb2 2.273550 1_555
C3 Nb6 2.273550 1_555
