# generated using pymatgen
data_GaHgAsO5
_symmetry_space_group_name_H-M   'P 1'
_cell_length_a   6.06318612
_cell_length_b   8.01614646
_cell_length_c   8.49182366
_cell_angle_alpha   90.00000000
_cell_angle_beta   90.00000000
_cell_angle_gamma   90.00000000
_symmetry_Int_Tables_number   1
_chemical_formula_structural   GaHgAsO5
_chemical_formula_sum   'Ga4 Hg4 As4 O20'
_cell_volume   412.73139956
_cell_formula_units_Z   4
loop_
 _symmetry_equiv_pos_site_id
 _symmetry_equiv_pos_as_xyz
  1  'x, y, z'
loop_
 _atom_site_type_symbol
 _atom_site_label
 _atom_site_symmetry_multiplicity
 _atom_site_fract_x
 _atom_site_fract_y
 _atom_site_fract_z
 _atom_site_occupancy
  Ga  Ga0  1  0.24945585  0.75052548  0.99947898  1
  Ga  Ga1  1  0.25054415  0.24947452  0.49947898  1
  Ga  Ga2  1  0.75054415  0.25052548  0.50052102  1
  Ga  Ga3  1  0.74945585  0.74947452  0.00052102  1
  Hg  Hg0  1  0.99918536  0.81797740  0.66000755  1
  Hg  Hg1  1  0.50081464  0.18202260  0.16000755  1
  Hg  Hg2  1  0.00081464  0.31797740  0.83999245  1
  Hg  Hg3  1  0.49918536  0.68202260  0.33999245  1
  As  As0  1  0.49953879  0.07091592  0.78853818  1
  As  As1  1  0.00046121  0.92908408  0.28853818  1
  As  As2  1  0.50046121  0.57091592  0.71146182  1
  As  As3  1  0.99953879  0.42908408  0.21146182  1
  O  O0  1  0.49996279  0.88774399  0.89348449  1
  O  O1  1  0.00003721  0.11225601  0.39348449  1
  O  O2  1  0.50003721  0.38774399  0.60651551  1
  O  O3  1  0.99996279  0.61225601  0.10651551  1
  O  O4  1  0.49576757  0.23126256  0.92159712  1
  O  O5  1  0.00423243  0.76873744  0.42159712  1
  O  O6  1  0.50423243  0.73126256  0.57840288  1
  O  O7  1  0.99576757  0.26873744  0.07840288  1
  O  O8  1  0.73217080  0.08642184  0.67941494  1
  O  O9  1  0.76782920  0.91357816  0.17941494  1
  O  O10  1  0.26782920  0.58642184  0.82058506  1
  O  O11  1  0.23217080  0.41357816  0.32058506  1
  O  O12  1  0.26867640  0.08423198  0.67721157  1
  O  O13  1  0.23132360  0.91576802  0.17721157  1
  O  O14  1  0.73132360  0.58423198  0.82278843  1
  O  O15  1  0.76867640  0.41576802  0.32278843  1
  O  O16  1  0.99869401  0.85052472  0.90139926  1
  O  O17  1  0.50130599  0.14947528  0.40139926  1
  O  O18  1  0.00130599  0.35052472  0.59860074  1
  O  O19  1  0.49869401  0.64947528  0.09860074  1
loop_
_geom_bond_atom_site_label_1
_geom_bond_atom_site_label_2
_geom_bond_distance
_geom_bond_site_symmetry_2
Ga0 O16 1.909953 1_455
Ga0 O19 1.910055 1_556
Ga0 O13 2.011114 1_556
Ga0 O10 2.012627 1_555
Ga0 O0 2.080154 1_555
Ga0 O3 2.083991 1_456
Ga1 O17 1.909953 1_555
Ga1 O18 1.910055 1_555
Ga1 O12 2.011114 1_555
Ga1 O11 2.012627 1_555
Ga1 O1 2.080154 1_555
Ga1 O2 2.083991 1_555
Ga2 O18 1.909953 1_655
Ga2 O17 1.910055 1_555
Ga2 O15 2.011114 1_555
Ga2 O8 2.012627 1_555
Ga2 O2 2.080154 1_555
Ga2 O1 2.083991 1_655
Ga3 O19 1.909953 1_555
Ga3 O16 1.910055 1_554
Ga3 O14 2.011114 1_554
Ga3 O9 2.012627 1_555
Ga3 O3 2.080154 1_555
Ga3 O0 2.083991 1_554
Hg0 O5 2.062885 1_655
Hg0 O16 2.066395 1_555
Hg1 O4 2.062885 1_554
Hg1 O17 2.066395 1_555
Hg2 O7 2.062885 1_456
Hg2 O18 2.066395 1_555
Hg3 O6 2.062885 1_555
Hg3 O19 2.066395 1_555
As0 O8 1.692225 1_555
As0 O12 1.692467 1_555
As0 O4 1.711544 1_555
As0 O0 1.717620 1_545
As1 O9 1.692225 1_455
As1 O13 1.692467 1_555
As1 O5 1.711544 1_555
As1 O1 1.717620 1_565
As2 O10 1.692225 1_555
As2 O14 1.692467 1_555
As2 O6 1.711544 1_555
As2 O2 1.717620 1_555
As3 O11 1.692225 1_655
As3 O15 1.692467 1_555
As3 O7 1.711544 1_555
As3 O3 1.717620 1_555
