# generated using pymatgen
data_Ta12Zn9Cu3N2
_symmetry_space_group_name_H-M   'P 1'
_cell_length_a   8.06358191
_cell_length_b   8.06358242
_cell_length_c   8.06358171
_cell_angle_alpha   59.94205125
_cell_angle_beta   59.94204591
_cell_angle_gamma   59.94205196
_symmetry_Int_Tables_number   1
_chemical_formula_structural   Ta12Zn9Cu3N2
_chemical_formula_sum   'Ta12 Zn9 Cu3 N2'
_cell_volume   370.25235657
_cell_formula_units_Z   1
loop_
 _symmetry_equiv_pos_site_id
 _symmetry_equiv_pos_as_xyz
  1  'x, y, z'
loop_
 _atom_site_type_symbol
 _atom_site_label
 _atom_site_symmetry_multiplicity
 _atom_site_fract_x
 _atom_site_fract_y
 _atom_site_fract_z
 _atom_site_occupancy
  Ta  Ta0  1  0.19183675  0.80832466  0.19183675  1
  Ta  Ta1  1  0.44136111  0.05896605  0.44136111  1
  Ta  Ta2  1  0.44167534  0.05816325  0.05816325  1
  Ta  Ta3  1  0.44136111  0.44136111  0.05896605  1
  Ta  Ta4  1  0.19103395  0.80863889  0.80863889  1
  Ta  Ta5  1  0.05816325  0.44167534  0.05816325  1
  Ta  Ta6  1  0.80863889  0.80863889  0.19103395  1
  Ta  Ta7  1  0.05896605  0.44136111  0.44136111  1
  Ta  Ta8  1  0.19183675  0.19183675  0.80832466  1
  Ta  Ta9  1  0.80832466  0.19183675  0.19183675  1
  Ta  Ta10  1  0.80863889  0.19103395  0.80863889  1
  Ta  Ta11  1  0.05816325  0.05816325  0.44167534  1
  Zn  Zn0  1  0.83428470  0.50291080  0.83428470  1
  Zn  Zn1  1  0.41571530  0.41571530  0.74708920  1
  Zn  Zn2  1  0.74708920  0.41571530  0.41571530  1
  Zn  Zn3  1  0.41815800  0.41815800  0.41815800  1
  Zn  Zn4  1  0.83428470  0.83428470  0.50291080  1
  Zn  Zn5  1  0.41571530  0.74708920  0.41571530  1
  Zn  Zn6  1  0.83184200  0.83184200  0.83184200  1
  Zn  Zn7  1  0.50291080  0.83428470  0.83428470  1
  Zn  Zn8  1  0.62500000  0.62500000  0.62500000  1
  Cu  Cu0  1  0.62500000  0.12500000  0.62500000  1
  Cu  Cu1  1  0.62500000  0.62500000  0.12500000  1
  Cu  Cu2  1  0.12500000  0.62500000  0.62500000  1
  N  N0  1  0.00022458  0.00022458  0.00022458  1
  N  N1  1  0.24977542  0.24977542  0.24977542  1
loop_
_geom_bond_atom_site_label_1
_geom_bond_atom_site_label_2
_geom_bond_distance
_geom_bond_site_symmetry_2
Ta0 Zn7 2.706480 1_554
Ta0 Zn4 2.706480 1_455
Ta0 Zn5 2.870632 1_555
Ta0 Zn3 2.896929 1_555
Ta1 Zn3 2.721827 1_555
Ta1 Zn5 2.737656 1_545
Ta1 Zn8 2.906137 1_545
Ta1 Zn7 2.914014 1_545
Ta1 Zn4 2.914014 1_545
Ta2 Zn5 2.706480 1_545
Ta2 Zn1 2.706480 1_554
Ta2 Zn7 2.870632 1_544
Ta2 Zn6 2.896929 1_544
Ta3 Zn3 2.721826 1_555
Ta3 Zn1 2.737656 1_554
Ta3 Zn8 2.906136 1_554
Ta3 Zn0 2.914014 1_554
Ta3 Zn7 2.914014 1_554
Ta4 Zn6 2.721826 1_455
Ta4 Zn7 2.737656 1_555
Ta4 Zn8 2.906137 1_555
Ta4 Zn5 2.914014 1_555
Ta4 Zn1 2.914014 1_555
Ta5 Zn2 2.706480 1_455
Ta5 Zn1 2.706480 1_554
Ta5 Zn0 2.870632 1_454
Ta5 Zn6 2.896929 1_454
Ta6 Zn6 2.721826 1_554
Ta6 Zn4 2.737656 1_555
Ta6 Zn8 2.906136 1_555
Ta6 Zn5 2.914014 1_555
Ta6 Zn2 2.914014 1_555
Ta7 Zn3 2.721826 1_555
Ta7 Zn2 2.737656 1_455
Ta7 Zn8 2.906137 1_455
Ta7 Zn0 2.914014 1_455
Ta7 Zn4 2.914014 1_455
Ta8 Zn0 2.706480 1_455
Ta8 Zn7 2.706480 1_545
Ta8 Zn1 2.870632 1_555
Ta8 Zn3 2.896929 1_555
Ta9 Zn0 2.706480 1_554
Ta9 Zn4 2.706480 1_545
Ta9 Zn2 2.870632 1_555
Ta9 Zn3 2.896929 1_555
Ta10 Zn6 2.721827 1_545
Ta10 Zn0 2.737656 1_555
Ta10 Zn8 2.906137 1_555
Ta10 Zn2 2.914014 1_555
Ta10 Zn1 2.914014 1_555
Ta11 Zn5 2.706480 1_545
Ta11 Zn2 2.706480 1_455
Ta11 Zn4 2.870632 1_445
Ta11 Zn6 2.896929 1_445
Zn0 Zn8 2.487853 1_555
Zn0 Zn6 2.632780 1_555
Zn0 Zn4 2.669720 1_555
Zn0 Zn7 2.669720 1_555
Zn1 Zn8 2.487853 1_555
Zn1 Zn3 2.632779 1_555
Zn1 Zn2 2.669719 1_555
Zn1 Zn5 2.669720 1_555
Zn2 Zn8 2.487853 1_555
Zn2 Zn3 2.632779 1_555
Zn2 Zn5 2.669720 1_555
Zn3 Zn5 2.632780 1_555
Zn4 Zn8 2.487853 1_555
Zn4 Zn6 2.632779 1_555
Zn4 Zn7 2.669719 1_555
Zn5 Zn8 2.487853 1_555
Zn6 Zn7 2.632779 1_555
Zn7 Zn8 2.487853 1_555
Cu0 Zn2 2.448883 1_555
Cu0 Zn7 2.448883 1_545
Cu0 Zn1 2.448883 1_555
Cu0 Zn4 2.448883 1_545
Cu0 Zn6 2.457478 1_545
Cu0 Zn3 2.457478 1_555
Cu0 Ta2 2.900977 1_556
Cu0 Ta9 2.900977 1_555
Cu0 Ta11 2.900977 1_655
Cu0 Ta8 2.900977 1_555
Cu0 Ta10 2.906074 1_555
Cu0 Ta1 2.906074 1_555
Cu1 Zn5 2.448882 1_555
Cu1 Zn0 2.448882 1_554
Cu1 Zn2 2.448883 1_555
Cu1 Zn7 2.448883 1_554
Cu1 Zn6 2.457478 1_554
Cu1 Zn3 2.457478 1_555
Cu1 Ta5 2.900977 1_655
Cu1 Ta0 2.900977 1_555
Cu1 Ta2 2.900977 1_565
Cu1 Ta9 2.900977 1_555
Cu1 Ta6 2.906074 1_555
Cu1 Ta3 2.906074 1_555
Cu2 Zn5 2.448882 1_555
Cu2 Zn0 2.448882 1_455
Cu2 Zn4 2.448883 1_455
Cu2 Zn1 2.448883 1_555
Cu2 Zn6 2.457478 1_455
Cu2 Zn3 2.457478 1_555
Cu2 Ta5 2.900977 1_556
Cu2 Ta0 2.900977 1_555
Cu2 Ta11 2.900977 1_565
Cu2 Ta8 2.900977 1_555
Cu2 Ta4 2.906074 1_555
Cu2 Ta7 2.906074 1_555
N0 Ta4 2.183832 1_544
N0 Ta6 2.183832 1_445
N0 Ta10 2.183832 1_454
N0 Ta9 2.184115 1_455
N0 Ta8 2.184115 1_554
N0 Ta0 2.184115 1_545
N1 Ta7 2.183832 1_555
N1 Ta3 2.183832 1_555
N1 Ta1 2.183832 1_555
N1 Ta2 2.184115 1_555
N1 Ta11 2.184115 1_555
N1 Ta5 2.184115 1_555
