# generated using pymatgen
data_Ba(LaS2)2
_symmetry_space_group_name_H-M   'P 1'
_cell_length_a   7.77267774
_cell_length_b   7.77255472
_cell_length_c   7.77254785
_cell_angle_alpha   109.29155036
_cell_angle_beta   109.29308453
_cell_angle_gamma   109.82925749
_symmetry_Int_Tables_number   1
_chemical_formula_structural   Ba(LaS2)2
_chemical_formula_sum   'Ba2 La4 S8'
_cell_volume   361.46410730
_cell_formula_units_Z   2
loop_
 _symmetry_equiv_pos_site_id
 _symmetry_equiv_pos_as_xyz
  1  'x, y, z'
loop_
 _atom_site_type_symbol
 _atom_site_label
 _atom_site_symmetry_multiplicity
 _atom_site_fract_x
 _atom_site_fract_y
 _atom_site_fract_z
 _atom_site_occupancy
  Ba  Ba0  1  0.49999551  0.49999907  -0.00000147  1
  Ba  Ba1  1  0.75000073  0.25000793  0.50001123  1
  La  La0  1  0.62496603  -0.00007455  0.87493383  1
  La  La1  1  0.00008839  0.87502820  0.62505352  1
  La  La2  1  0.12499259  0.75002491  0.12503974  1
  La  La3  1  0.24996455  0.37500702  0.37495844  1
  S  S0  1  0.89051388  0.98334379  0.24595950  1
  S  S1  1  0.73739090  0.64454705  0.75404882  1
  S  S2  1  0.51261593  0.76671411  0.40722358  1
  S  S3  1  0.89461682  0.48738209  0.25409491  1
  S  S4  1  0.23327249  0.64050548  0.74590585  1
  S  S5  1  0.35544022  0.10949493  0.09284076  1
  S  S6  1  0.01666485  0.26262705  0.90717290  1
  S  S7  1  0.35947810  0.10539293  0.59275740  1
loop_
_geom_bond_atom_site_label_1
_geom_bond_atom_site_label_2
_geom_bond_distance
_geom_bond_site_symmetry_2
Ba0 S4 3.105904 1_554
Ba0 S2 3.105933 1_555
Ba0 S7 3.105995 1_554
Ba0 S3 3.106013 1_555
Ba0 S6 3.265709 1_554
Ba0 S1 3.265734 1_554
Ba0 S5 3.265735 1_555
Ba0 S0 3.265796 1_555
Ba1 S1 3.105345 1_555
Ba1 S6 3.105384 1_655
Ba1 S5 3.105481 1_555
Ba1 S0 3.105558 1_545
Ba1 S4 3.265439 1_655
Ba1 S7 3.265481 1_555
Ba1 S2 3.265528 1_545
Ba1 S3 3.265558 1_555
La0 S4 2.905175 1_545
La0 S6 2.905432 1_655
La0 S7 3.014204 1_555
La0 S0 3.014295 1_546
La0 S2 3.120576 1_545
La0 S1 3.121123 1_545
La0 S5 3.253401 1_556
La0 S3 3.253616 1_556
La1 S7 2.905030 1_565
La1 S1 2.905450 1_455
La1 S3 3.014254 1_455
La1 S6 3.014279 1_565
La1 S4 3.120563 1_555
La1 S5 3.120985 1_566
La1 S0 3.253217 1_455
La1 S2 3.253702 1_455
La2 S3 2.905145 1_455
La2 S5 2.905237 1_565
La2 S2 3.014126 1_555
La2 S1 3.014146 1_454
La2 S7 3.120653 1_565
La2 S0 3.121166 1_455
La2 S6 3.253139 1_554
La2 S4 3.253343 1_554
La3 S0 2.905216 1_445
La3 S2 2.905233 1_555
La3 S5 3.014127 1_555
La3 S4 3.014244 1_555
La3 S3 3.120635 1_455
La3 S6 3.121070 1_554
La3 S7 3.253281 1_555
La3 S1 3.253340 1_555
