# generated using pymatgen
data_K3Na2TiP3
_symmetry_space_group_name_H-M   'P 1'
_cell_length_a   10.40632753
_cell_length_b   10.40632751
_cell_length_c   14.62665306
_cell_angle_alpha   90.00000000
_cell_angle_beta   90.00000000
_cell_angle_gamma   142.64239061
_symmetry_Int_Tables_number   1
_chemical_formula_structural   K3Na2TiP3
_chemical_formula_sum   'K12 Na8 Ti4 P12'
_cell_volume   961.11834781
_cell_formula_units_Z   4
loop_
 _symmetry_equiv_pos_site_id
 _symmetry_equiv_pos_as_xyz
  1  'x, y, z'
loop_
 _atom_site_type_symbol
 _atom_site_label
 _atom_site_symmetry_multiplicity
 _atom_site_fract_x
 _atom_site_fract_y
 _atom_site_fract_z
 _atom_site_occupancy
  K  K0  1  0.93972402  0.60424768  0.82306397  1
  K  K1  1  0.56027598  0.89575232  0.32306397  1
  K  K2  1  0.39575232  0.06027598  0.17693603  1
  K  K3  1  0.06027598  0.39575232  0.17693603  1
  K  K4  1  0.89575232  0.56027598  0.32306397  1
  K  K5  1  0.43972402  0.10424768  0.67693603  1
  K  K6  1  0.60424768  0.93972402  0.82306397  1
  K  K7  1  0.26865078  0.26865078  0.31572582  1
  K  K8  1  0.76865078  0.76865078  0.18427418  1
  K  K9  1  0.23134922  0.23134922  0.81572582  1
  K  K10  1  0.73134922  0.73134922  0.68427418  1
  K  K11  1  0.10424768  0.43972402  0.67693603  1
  Na  Na0  1  0.92078461  0.07921539  0.00000000  1
  Na  Na1  1  0.57921539  0.42078461  0.50000000  1
  Na  Na2  1  0.07921539  0.92078461  0.00000000  1
  Na  Na3  1  0.42078461  0.57921539  0.50000000  1
  Na  Na4  1  0.75633475  0.24366525  0.00000000  1
  Na  Na5  1  0.74366525  0.25633475  0.50000000  1
  Na  Na6  1  0.24366525  0.75633475  0.00000000  1
  Na  Na7  1  0.25633475  0.74366525  0.50000000  1
  Ti  Ti0  1  0.58470498  0.41529502  0.00000000  1
  Ti  Ti1  1  0.91529502  0.08470498  0.50000000  1
  Ti  Ti2  1  0.41529502  0.58470498  0.00000000  1
  Ti  Ti3  1  0.08470498  0.91529502  0.50000000  1
  P  P0  1  0.86125924  0.55423275  0.09650958  1
  P  P1  1  0.44576725  0.13874076  0.90349042  1
  P  P2  1  0.63874076  0.94576725  0.59650958  1
  P  P3  1  0.94576725  0.63874076  0.59650958  1
  P  P4  1  0.13874076  0.44576725  0.90349042  1
  P  P5  1  0.55423275  0.86125924  0.09650958  1
  P  P6  1  0.36125924  0.05423275  0.40349042  1
  P  P7  1  0.19249473  0.19249473  0.58646104  1
  P  P8  1  0.69249473  0.69249473  0.91353896  1
  P  P9  1  0.30750527  0.30750527  0.08646104  1
  P  P10  1  0.05423275  0.36125924  0.40349042  1
  P  P11  1  0.80750527  0.80750527  0.41353896  1
loop_
_geom_bond_atom_site_label_1
_geom_bond_atom_site_label_2
_geom_bond_distance
_geom_bond_site_symmetry_2
K0 P3 3.328323 1_555
K0 P1 3.418703 1_555
K0 P8 3.601325 1_555
K0 P1 3.672673 1_665
K0 P4 3.717885 1_655
K1 P5 3.328323 1_555
K1 P10 3.418703 1_665
K1 P11 3.601325 1_555
K1 P10 3.672673 1_555
K1 P6 3.717885 1_565
K2 P6 3.328323 1_555
K2 P0 3.418703 1_555
K2 P9 3.601325 1_555
K2 P0 3.672673 1_445
K2 P5 3.717885 1_545
K3 P10 3.328323 1_555
K3 P5 3.418703 1_555
K3 P9 3.601325 1_555
K3 P5 3.672673 1_445
K3 P0 3.717885 1_455
K4 P0 3.328323 1_555
K4 P6 3.418703 1_665
K4 P11 3.601325 1_555
K4 P6 3.672673 1_555
K4 P10 3.717885 1_655
K5 P1 3.328323 1_555
K5 P3 3.418703 1_445
K5 P7 3.601325 1_555
K5 P3 3.672673 1_555
K5 P2 3.717885 1_545
K6 P2 3.328323 1_555
K6 P4 3.418703 1_555
K6 P8 3.601325 1_555
K6 P4 3.672673 1_665
K6 P1 3.717885 1_565
K7 P6 3.312674 1_555
K7 P10 3.312674 1_555
K7 P9 3.363362 1_555
K7 P11 3.390415 1_445
K8 P0 3.312674 1_555
K8 P5 3.312674 1_555
K8 P11 3.363362 1_555
K8 P9 3.390415 1_555
K9 P4 3.312674 1_555
K9 P1 3.312674 1_555
K9 P7 3.363362 1_555
K9 P8 3.390415 1_555
K10 P2 3.312674 1_555
K10 P3 3.312674 1_555
K10 P8 3.363362 1_555
K10 P7 3.390415 1_665
K11 P4 3.328323 1_555
K11 P2 3.418703 1_445
K11 P7 3.601325 1_555
K11 P2 3.672673 1_555
K11 P3 3.717885 1_455
Na0 P4 2.816619 1_654
Na0 P5 2.816619 1_545
Na0 P8 2.870514 1_544
Na0 P9 2.870514 1_655
Na1 P6 2.816619 1_555
Na1 P3 2.816619 1_555
Na1 P11 2.870514 1_555
Na1 P7 2.870514 1_555
Na2 P0 2.816619 1_455
Na2 P1 2.816619 1_564
Na2 P9 2.870514 1_565
Na2 P8 2.870514 1_454
Na3 P2 2.816619 1_555
Na3 P10 2.816619 1_555
Na3 P7 2.870514 1_555
Na3 P11 2.870514 1_555
Na4 P0 2.831955 1_555
Na4 P1 2.831955 1_554
Na4 P5 2.991131 1_545
Na4 P4 2.991131 1_654
Na5 P2 2.831955 1_545
Na5 P10 2.831955 1_655
Na5 P3 2.991131 1_555
Na5 P6 2.991131 1_555
Na6 P4 2.831955 1_554
Na6 P5 2.831955 1_555
Na6 P1 2.991131 1_564
Na6 P0 2.991131 1_455
Na7 P6 2.831955 1_565
Na7 P3 2.831955 1_455
Na7 P10 2.991131 1_555
Na7 P2 2.991131 1_555
P0 Ti0 2.398050 1_555
P1 Ti0 2.398050 1_556
P2 Ti1 2.398050 1_565
P3 Ti3 2.398050 1_655
P4 Ti2 2.398050 1_556
P5 Ti2 2.398050 1_555
P6 Ti3 2.398050 1_545
P7 Ti3 2.456574 1_545
P7 Ti1 2.456574 1_455
P8 Ti0 2.456574 1_556
P8 Ti2 2.456574 1_556
P9 Ti2 2.456574 1_555
P9 Ti0 2.456574 1_555
P10 Ti1 2.398050 1_455
P11 Ti1 2.456574 1_565
P11 Ti3 2.456574 1_655
