# generated using pymatgen
data_TaCrBC
_symmetry_space_group_name_H-M   'P 1'
_cell_length_a   8.51843172
_cell_length_b   8.51843195
_cell_length_c   3.04878177
_cell_angle_alpha   90.00000000
_cell_angle_beta   90.00000000
_cell_angle_gamma   159.31756380
_symmetry_Int_Tables_number   1
_chemical_formula_structural   TaCrBC
_chemical_formula_sum   'Ta2 Cr2 B2 C2'
_cell_volume   78.13608892
_cell_formula_units_Z   2
loop_
 _symmetry_equiv_pos_site_id
 _symmetry_equiv_pos_as_xyz
  1  'x, y, z'
loop_
 _atom_site_type_symbol
 _atom_site_label
 _atom_site_symmetry_multiplicity
 _atom_site_fract_x
 _atom_site_fract_y
 _atom_site_fract_z
 _atom_site_occupancy
  Ta  Ta0  1  0.67819455  0.32180545  0.75000000  1
  Ta  Ta1  1  0.32180545  0.67819455  0.25000000  1
  Cr  Cr0  1  0.93527344  0.06472656  0.75000000  1
  Cr  Cr1  1  0.06472656  0.93527344  0.25000000  1
  B  B0  1  0.53003782  0.46996218  0.75000000  1
  B  B1  1  0.46996218  0.53003782  0.25000000  1
  C  C0  1  0.81317647  0.18682353  0.75000000  1
  C  C1  1  0.18682353  0.81317647  0.25000000  1
loop_
_geom_bond_atom_site_label_1
_geom_bond_atom_site_label_2
_geom_bond_distance
_geom_bond_site_symmetry_2
B0 B1 1.826900 1_556
B0 B1 1.826900 1_555
B0 Cr0 2.204735 1_455
B0 Cr0 2.204735 1_565
B0 Cr1 2.236081 1_656
B0 Cr1 2.236081 1_655
B0 Cr1 2.236081 1_546
B0 Cr1 2.236081 1_545
B0 Ta0 2.483125 1_555
B1 Cr1 2.204735 1_655
B1 Cr1 2.204735 1_545
B1 Cr0 2.236081 1_455
B1 Cr0 2.236081 1_454
B1 Cr0 2.236081 1_565
B1 Cr0 2.236081 1_564
B1 Ta1 2.483125 1_555
C0 Cr0 2.046360 1_555
C0 Ta1 2.164015 1_656
C0 Ta1 2.164015 1_655
C0 Ta1 2.164015 1_545
C0 Ta1 2.164015 1_546
C0 Ta0 2.262313 1_555
C1 Cr1 2.046360 1_555
C1 Ta0 2.164015 1_455
C1 Ta0 2.164015 1_454
C1 Ta0 2.164015 1_564
C1 Ta0 2.164015 1_565
C1 Ta1 2.262313 1_555
