# generated using pymatgen
data_Pd7RhW
_symmetry_space_group_name_H-M   'P 1'
_cell_length_a   6.21305313
_cell_length_b   6.21305246
_cell_length_c   6.17615527
_cell_angle_alpha   95.55403972
_cell_angle_beta   95.55404557
_cell_angle_gamma   143.86019929
_symmetry_Int_Tables_number   1
_chemical_formula_structural   Pd7RhW
_chemical_formula_sum   'Pd7 Rh1 W1'
_cell_volume   133.58520727
_cell_formula_units_Z   1
loop_
 _symmetry_equiv_pos_site_id
 _symmetry_equiv_pos_as_xyz
  1  'x, y, z'
loop_
 _atom_site_type_symbol
 _atom_site_label
 _atom_site_symmetry_multiplicity
 _atom_site_fract_x
 _atom_site_fract_y
 _atom_site_fract_z
 _atom_site_occupancy
  Pd  Pd0  1  0.66422127  0.33767590  0.00189817  1
  Pd  Pd1  1  0.33767590  0.66422127  0.00189817  1
  Pd  Pd2  1  0.66271084  0.66271084  0.32542268  1
  Pd  Pd3  1  0.32830348  0.00222226  0.33052574  1
  Pd  Pd4  1  0.00222226  0.32830348  0.33052574  1
  Pd  Pd5  1  0.67004361  0.99843824  0.66848285  1
  Pd  Pd6  1  0.99843824  0.67004361  0.66848285  1
  Rh  Rh0  1  0.34428958  0.34428958  0.68857817  1
  W  W0  1  0.99209281  0.99209281  0.98418462  1
loop_
_geom_bond_atom_site_label_1
_geom_bond_atom_site_label_2
_geom_bond_distance
_geom_bond_site_symmetry_2
Pd0 Rh0 2.664631 1_554
Pd0 Pd2 2.706292 1_555
Pd0 Pd3 2.726226 1_555
Pd0 Pd3 2.726228 1_665
Pd0 W0 2.728529 1_444
Pd0 W0 2.728534 1_554
Pd0 Pd6 2.746190 1_444
Pd0 Pd6 2.746190 1_554
Pd0 Pd1 2.812924 1_545
Pd0 Pd1 2.812924 1_655
Pd0 Pd4 2.815724 1_655
Pd0 Pd5 2.825164 1_544
Pd1 Rh0 2.664631 1_554
Pd1 Pd2 2.706292 1_555
Pd1 Pd4 2.726226 1_555
Pd1 Pd4 2.726228 1_665
Pd1 W0 2.728528 1_444
Pd1 W0 2.728534 1_554
Pd1 Pd5 2.746190 1_444
Pd1 Pd5 2.746190 1_554
Pd1 Pd3 2.815724 1_565
Pd1 Pd6 2.825164 1_454
Pd2 Pd3 2.724775 1_555
Pd2 Pd4 2.724776 1_555
Pd2 Pd4 2.724778 1_665
Pd2 Pd3 2.724778 1_665
Pd2 W0 2.779054 1_444
Pd2 W0 2.779059 1_554
Pd2 Pd6 2.795467 1_555
Pd2 Pd5 2.795467 1_555
Pd2 Rh0 2.873100 1_555
Pd2 Rh0 2.873105 1_665
Pd3 Pd6 2.765250 1_555
Pd3 Pd6 2.765253 1_445
Pd3 W0 2.799945 1_444
Pd3 Pd4 2.816920 1_545
Pd3 Pd4 2.816921 1_655
Pd3 Pd5 2.845650 1_545
Pd3 Rh0 2.850215 1_555
Pd4 Pd5 2.765250 1_555
Pd4 Pd5 2.765253 1_445
Pd4 W0 2.799945 1_444
Pd4 Pd6 2.845650 1_455
Pd4 Rh0 2.850215 1_555
Pd5 W0 2.682181 1_555
Pd5 Rh0 2.736827 1_555
Pd5 Rh0 2.736833 1_665
Pd5 Pd6 2.797050 1_565
Pd5 Pd6 2.797051 1_455
Pd6 W0 2.682181 1_555
Pd6 Rh0 2.736828 1_555
Pd6 Rh0 2.736833 1_665
Rh0 W0 2.592794 1_555
Rh0 W0 2.592795 1_445
