# generated using pymatgen
data_Tc3Mo3Pd8
_symmetry_space_group_name_H-M   'P 1'
_cell_length_a   7.40281419
_cell_length_b   7.40346933
_cell_length_c   4.37948544
_cell_angle_alpha   90.00000000
_cell_angle_beta   90.00000000
_cell_angle_gamma   59.99496315
_symmetry_Int_Tables_number   1
_chemical_formula_structural   Tc3Mo3Pd8
_chemical_formula_sum   'Tc3 Mo3 Pd8'
_cell_volume   207.85659287
_cell_formula_units_Z   1
loop_
 _symmetry_equiv_pos_site_id
 _symmetry_equiv_pos_as_xyz
  1  'x, y, z'
loop_
 _atom_site_type_symbol
 _atom_site_label
 _atom_site_symmetry_multiplicity
 _atom_site_fract_x
 _atom_site_fract_y
 _atom_site_fract_z
 _atom_site_occupancy
  Tc  Tc0  1  0.52649568  0.39365841  0.50000000  1
  Tc  Tc1  1  0.65124105  0.66934620  0.50000000  1
  Tc  Tc2  1  0.25081009  0.79410237  0.50000000  1
  Mo  Mo0  1  0.70518121  0.44179001  0.00000000  1
  Mo  Mo1  1  0.29891031  0.56727661  0.00000000  1
  Mo  Mo2  1  0.42441587  0.84806679  0.00000000  1
  Pd  Pd0  1  0.57304382  0.14319426  0.00000000  1
  Pd  Pd1  1  0.14283236  0.28563427  0.00000000  1
  Pd  Pd2  1  0.85523069  0.71587163  0.00000000  1
  Pd  Pd3  1  0.00033491  0.99814962  0.00000000  1
  Pd  Pd4  1  0.38099969  0.09572673  0.50000000  1
  Pd  Pd5  1  0.95290763  0.23740216  0.50000000  1
  Pd  Pd6  1  0.09461181  0.52392136  0.50000000  1
  Pd  Pd7  1  0.80954488  0.95242557  0.50000000  1
loop_
_geom_bond_atom_site_label_1
_geom_bond_atom_site_label_2
_geom_bond_distance
_geom_bond_site_symmetry_2
Tc0 Tc2 2.627353 1_555
Tc0 Tc1 2.627505 1_555
Tc1 Tc2 2.627150 1_555
Mo0 Mo1 2.667191 1_555
Mo0 Mo2 2.667308 1_555
Mo0 Tc1 2.668301 1_555
Mo0 Tc1 2.668301 1_554
Mo0 Tc0 2.672661 1_554
Mo0 Tc0 2.672661 1_555
Mo0 Pd2 2.757830 1_555
Mo0 Pd5 2.769905 1_554
Mo0 Pd5 2.769905 1_555
Mo0 Pd0 2.829586 1_555
Mo0 Pd1 2.843772 1_655
Mo0 Pd3 2.895567 1_645
Mo1 Mo2 2.667664 1_555
Mo1 Tc0 2.668282 1_554
Mo1 Tc0 2.668282 1_555
Mo1 Tc2 2.672780 1_554
Mo1 Tc2 2.672780 1_555
Mo1 Pd0 2.757423 1_555
Mo1 Pd6 2.769625 1_555
Mo1 Pd6 2.769625 1_554
Mo1 Pd3 2.830089 1_555
Mo1 Pd1 2.844700 1_555
Mo1 Pd2 2.895547 1_455
Mo2 Tc2 2.668294 1_555
Mo2 Tc2 2.668294 1_554
Mo2 Tc1 2.672663 1_555
Mo2 Tc1 2.672663 1_554
Mo2 Pd3 2.757098 1_555
Mo2 Pd4 2.769613 1_565
Mo2 Pd4 2.769613 1_564
Mo2 Pd2 2.829722 1_555
Mo2 Pd1 2.843558 1_565
Mo2 Pd0 2.896390 1_565
Pd0 Pd7 2.716953 1_545
Pd0 Pd7 2.716953 1_544
Pd0 Pd4 2.727507 1_555
Pd0 Pd4 2.727507 1_554
Pd0 Tc0 2.777245 1_554
Pd0 Tc0 2.777245 1_555
Pd0 Pd3 2.785939 1_645
Pd0 Pd2 2.786179 1_545
Pd0 Pd1 2.809956 1_555
Pd1 Pd4 2.720483 1_555
Pd1 Pd4 2.720483 1_554
Pd1 Pd5 2.720549 1_455
Pd1 Pd5 2.720549 1_454
Pd1 Pd6 2.721174 1_554
Pd1 Pd6 2.721174 1_555
Pd1 Pd3 2.808617 1_545
Pd1 Pd2 2.809998 1_455
Pd2 Pd7 2.717367 1_554
Pd2 Pd7 2.717367 1_555
Pd2 Pd6 2.726923 1_655
Pd2 Pd6 2.726923 1_654
Pd2 Tc1 2.777453 1_555
Pd2 Tc1 2.777453 1_554
Pd2 Pd3 2.786840 1_655
Pd3 Pd7 2.717091 1_454
Pd3 Pd7 2.717091 1_455
Pd3 Pd5 2.726491 1_465
Pd3 Pd5 2.726491 1_464
Pd3 Tc2 2.777351 1_554
Pd3 Tc2 2.777351 1_555
Pd4 Tc1 2.766014 1_545
Pd4 Pd5 2.796202 1_455
Pd4 Pd6 2.796871 1_555
Pd4 Pd7 2.797089 1_545
Pd4 Tc2 2.840410 1_545
Pd4 Tc0 2.898524 1_555
Pd5 Tc0 2.765939 1_555
Pd5 Pd7 2.795910 1_545
Pd5 Pd6 2.797427 1_655
Pd5 Tc1 2.840954 1_555
Pd5 Tc2 2.897551 1_645
Pd6 Tc2 2.766123 1_555
Pd6 Pd7 2.796753 1_455
Pd6 Tc0 2.840435 1_555
Pd6 Tc1 2.897870 1_455
Pd7 Tc2 2.866202 1_655
Pd7 Tc0 2.866305 1_565
Pd7 Tc1 2.867399 1_555
