# generated using pymatgen
data_LuMg(Ga2Ni)2
_symmetry_space_group_name_H-M   'P 1'
_cell_length_a   5.12892329
_cell_length_b   5.12892239
_cell_length_c   6.65883206
_cell_angle_alpha   90.00000000
_cell_angle_beta   90.00000000
_cell_angle_gamma   134.16967477
_symmetry_Int_Tables_number   1
_chemical_formula_structural   LuMg(Ga2Ni)2
_chemical_formula_sum   'Lu1 Mg1 Ga4 Ni2'
_cell_volume   125.64314873
_cell_formula_units_Z   1
loop_
 _symmetry_equiv_pos_site_id
 _symmetry_equiv_pos_as_xyz
  1  'x, y, z'
loop_
 _atom_site_type_symbol
 _atom_site_label
 _atom_site_symmetry_multiplicity
 _atom_site_fract_x
 _atom_site_fract_y
 _atom_site_fract_z
 _atom_site_occupancy
  Lu  Lu0  1  0.43177317  0.56822683  0.75000000  1
  Mg  Mg0  1  0.57002101  0.42997899  0.25000000  1
  Ga  Ga0  1  0.85485302  0.14514698  0.05590625  1
  Ga  Ga1  1  0.14254181  0.85745819  0.95202857  1
  Ga  Ga2  1  0.14254181  0.85745819  0.54797143  1
  Ga  Ga3  1  0.85485302  0.14514698  0.44409375  1
  Ni  Ni0  1  0.29049889  0.70950111  0.25000000  1
  Ni  Ni1  1  0.71292028  0.28707972  0.75000000  1
loop_
_geom_bond_atom_site_label_1
_geom_bond_atom_site_label_2
_geom_bond_distance
_geom_bond_site_symmetry_2
Lu0 Ni1 2.656368 1_555
Lu0 Ni1 2.874703 1_565
Lu0 Ni1 2.874704 1_455
Mg0 Ni0 2.641015 1_555
Mg0 Ni0 2.885767 1_545
Mg0 Ni0 2.885768 1_655
Ga0 Ni1 2.438777 1_554
Ga0 Ni0 2.455252 1_655
Ga0 Ni0 2.455252 1_545
Ga0 Ga3 2.584875 1_555
Ga0 Ga1 2.804806 1_644
Ga0 Ga1 2.913860 1_654
Ga0 Ga1 2.913861 1_544
Ga0 Lu0 2.943744 1_544
Ga0 Lu0 2.943744 1_654
Ga0 Mg0 2.985443 1_555
Ga0 Mg0 3.129144 1_545
Ga0 Mg0 3.129145 1_655
Ga1 Ni0 2.427153 1_556
Ga1 Ni1 2.498017 1_455
Ga1 Ni1 2.498017 1_565
Ga1 Ga2 2.690549 1_555
Ga1 Mg0 2.897322 1_566
Ga1 Mg0 2.897322 1_456
Ga1 Lu0 3.045930 1_555
Ga1 Lu0 3.124681 1_565
Ga1 Lu0 3.124682 1_455
Ga2 Ni0 2.427153 1_555
Ga2 Ni1 2.498017 1_455
Ga2 Ni1 2.498017 1_565
Ga2 Ga3 2.804806 1_465
Ga2 Mg0 2.897322 1_565
Ga2 Mg0 2.897322 1_455
Ga2 Ga3 2.913860 1_455
Ga2 Ga3 2.913861 1_565
Ga2 Lu0 3.045930 1_555
Ga2 Lu0 3.124681 1_565
Ga2 Lu0 3.124682 1_455
Ga3 Ni1 2.438777 1_555
Ga3 Ni0 2.455252 1_655
Ga3 Ni0 2.455252 1_545
Ga3 Lu0 2.943744 1_545
Ga3 Lu0 2.943744 1_655
Ga3 Mg0 2.985443 1_555
Ga3 Mg0 3.129144 1_545
Ga3 Mg0 3.129145 1_655
