# generated using pymatgen
data_Sr2GaPdI
_symmetry_space_group_name_H-M   'P 1'
_cell_length_a   4.44791116
_cell_length_b   4.44791100
_cell_length_c   18.09756528
_cell_angle_alpha   90.00000000
_cell_angle_beta   90.00000000
_cell_angle_gamma   120.00000124
_symmetry_Int_Tables_number   1
_chemical_formula_structural   Sr2GaPdI
_chemical_formula_sum   'Sr4 Ga2 Pd2 I2'
_cell_volume   310.07230032
_cell_formula_units_Z   2
loop_
 _symmetry_equiv_pos_site_id
 _symmetry_equiv_pos_as_xyz
  1  'x, y, z'
loop_
 _atom_site_type_symbol
 _atom_site_label
 _atom_site_symmetry_multiplicity
 _atom_site_fract_x
 _atom_site_fract_y
 _atom_site_fract_z
 _atom_site_occupancy
  Sr  Sr0  1  0.00000000  0.00000000  0.38890046  1
  Sr  Sr1  1  0.00000000  0.00000000  0.88890046  1
  Sr  Sr2  1  0.00000000  0.00000000  0.61159280  1
  Sr  Sr3  1  0.00000000  0.00000000  0.11159280  1
  Ga  Ga0  1  0.33333300  0.66666700  0.50098445  1
  Ga  Ga1  1  0.66666700  0.33333300  0.00098445  1
  Pd  Pd0  1  0.66666700  0.33333300  0.49855973  1
  Pd  Pd1  1  0.33333300  0.66666700  0.99855973  1
  I  I0  1  0.33333300  0.66666700  0.24996156  1
  I  I1  1  0.66666700  0.33333300  0.74996156  1
loop_
_geom_bond_atom_site_label_1
_geom_bond_atom_site_label_2
_geom_bond_distance
_geom_bond_site_symmetry_2
Ga0 Pd0 2.568375 1_565
Ga0 Pd0 2.568375 1_455
Ga0 Pd0 2.568383 1_555
Ga0 Sr2 3.256009 1_565
Ga0 Sr2 3.256012 1_555
Ga0 Sr2 3.256012 1_665
Ga0 Sr0 3.272495 1_565
Ga0 Sr0 3.272498 1_555
Ga0 Sr0 3.272498 1_665
Ga1 Pd1 2.568375 1_544
Ga1 Pd1 2.568375 1_654
Ga1 Pd1 2.568383 1_554
Ga1 Sr3 3.256009 1_655
Ga1 Sr3 3.256012 1_665
Ga1 Sr3 3.256012 1_555
Ga1 Sr1 3.272495 1_654
Ga1 Sr1 3.272498 1_664
Ga1 Sr1 3.272498 1_554
Pd0 Sr0 3.245478 1_655
Pd0 Sr0 3.245481 1_665
Pd0 Sr0 3.245481 1_555
Pd0 Sr2 3.283169 1_655
Pd0 Sr2 3.283172 1_665
Pd0 Sr2 3.283172 1_555
Pd1 Sr1 3.245478 1_565
Pd1 Sr1 3.245481 1_555
Pd1 Sr1 3.245481 1_665
Pd1 Sr3 3.283169 1_566
Pd1 Sr3 3.283172 1_556
Pd1 Sr3 3.283172 1_666
I0 Sr3 3.586827 1_565
I0 Sr3 3.586830 1_555
I0 Sr3 3.586830 1_665
I0 Sr0 3.594038 1_565
I0 Sr0 3.594041 1_555
I0 Sr0 3.594041 1_665
I1 Sr2 3.586827 1_655
I1 Sr2 3.586830 1_665
I1 Sr2 3.586830 1_555
I1 Sr1 3.594038 1_655
I1 Sr1 3.594041 1_665
I1 Sr1 3.594041 1_555
