# generated using pymatgen
data_Cs7Ta(SeO4)6
_symmetry_space_group_name_H-M   'P 1'
_cell_length_a   10.34519078
_cell_length_b   10.34518995
_cell_length_c   10.34519049
_cell_angle_alpha   110.29898922
_cell_angle_beta   110.29899053
_cell_angle_gamma   110.29897567
_symmetry_Int_Tables_number   1
_chemical_formula_structural   Cs7Ta(SeO4)6
_chemical_formula_sum   'Cs7 Ta1 Se6 O24'
_cell_volume   825.14931758
_cell_formula_units_Z   1
loop_
 _symmetry_equiv_pos_site_id
 _symmetry_equiv_pos_as_xyz
  1  'x, y, z'
loop_
 _atom_site_type_symbol
 _atom_site_label
 _atom_site_symmetry_multiplicity
 _atom_site_fract_x
 _atom_site_fract_y
 _atom_site_fract_z
 _atom_site_occupancy
  Cs  Cs0  1  0.50000000  0.50000000  0.50000000  1
  Cs  Cs1  1  0.69895944  0.17750336  0.33077941  1
  Cs  Cs2  1  0.33077941  0.69895944  0.17750336  1
  Cs  Cs3  1  0.17750336  0.33077941  0.69895944  1
  Cs  Cs4  1  0.30104056  0.82249664  0.66922059  1
  Cs  Cs5  1  0.66922059  0.30104056  0.82249664  1
  Cs  Cs6  1  0.82249664  0.66922059  0.30104056  1
  Ta  Ta0  1  0.00000000  0.00000000  0.00000000  1
  Se  Se0  1  0.25200472  0.03283392  0.36077905  1
  Se  Se1  1  0.36077905  0.25200472  0.03283392  1
  Se  Se2  1  0.03283392  0.36077905  0.25200472  1
  Se  Se3  1  0.74799528  0.96716608  0.63922095  1
  Se  Se4  1  0.63922095  0.74799528  0.96716608  1
  Se  Se5  1  0.96716608  0.63922095  0.74799528  1
  O  O0  1  0.13116826  0.63720512  0.83557857  1
  O  O1  1  0.83557857  0.13116826  0.63720512  1
  O  O2  1  0.63720512  0.83557857  0.13116826  1
  O  O3  1  0.86883174  0.36279488  0.16442143  1
  O  O4  1  0.16442143  0.86883174  0.36279488  1
  O  O5  1  0.36279488  0.16442143  0.86883174  1
  O  O6  1  0.96307336  0.69464997  0.61757248  1
  O  O7  1  0.61757248  0.96307336  0.69464997  1
  O  O8  1  0.69464997  0.61757249  0.96307336  1
  O  O9  1  0.03692664  0.30535003  0.38242752  1
  O  O10  1  0.38242752  0.03692664  0.30535003  1
  O  O11  1  0.30535003  0.38242751  0.03692664  1
  O  O12  1  0.02641897  0.21597958  0.09786257  1
  O  O13  1  0.09786257  0.02641897  0.21597958  1
  O  O14  1  0.53073851  0.33208966  0.20121942  1
  O  O15  1  0.33208966  0.20121942  0.53073851  1
  O  O16  1  0.20121942  0.53073851  0.33208966  1
  O  O17  1  0.46926149  0.66791034  0.79878058  1
  O  O18  1  0.66791034  0.79878058  0.46926149  1
  O  O19  1  0.79878058  0.46926149  0.66791034  1
  O  O20  1  0.78402042  0.90213743  0.97358103  1
  O  O21  1  0.90213743  0.97358103  0.78402042  1
  O  O22  1  0.97358103  0.78402042  0.90213743  1
  O  O23  1  0.21597958  0.09786257  0.02641897  1
loop_
_geom_bond_atom_site_label_1
_geom_bond_atom_site_label_2
_geom_bond_distance
_geom_bond_site_symmetry_2
Cs0 O17 3.164229 1_555
Cs0 O14 3.164229 1_555
Cs0 O19 3.164229 1_555
Cs0 O16 3.164229 1_555
Cs0 O18 3.164229 1_555
Cs0 O15 3.164229 1_555
Cs1 O10 2.956301 1_555
Cs1 O14 3.030246 1_555
Cs1 O9 3.043705 1_655
Cs1 O2 3.103755 1_545
Cs1 O19 3.221015 1_555
Cs1 O1 3.269888 1_555
Cs1 O3 3.431428 1_555
Cs2 O11 2.956300 1_555
Cs2 O16 3.030247 1_555
Cs2 O10 3.043704 1_565
Cs2 O0 3.103755 1_554
Cs2 O18 3.221016 1_555
Cs2 O2 3.269888 1_555
Cs2 O4 3.431428 1_555
Cs3 O9 2.956301 1_555
Cs3 O15 3.030246 1_555
Cs3 O11 3.043704 1_556
Cs3 O1 3.103755 1_455
Cs3 O17 3.221016 1_555
Cs3 O0 3.269888 1_555
Cs3 O5 3.431428 1_555
Cs4 O7 2.956301 1_555
Cs4 O17 3.030246 1_555
Cs4 O6 3.043705 1_455
Cs4 O5 3.103755 1_565
Cs4 O16 3.221015 1_555
Cs4 O4 3.269888 1_555
Cs4 O0 3.431428 1_555
Cs5 O8 2.956300 1_555
Cs5 O19 3.030247 1_555
Cs5 O7 3.043704 1_545
Cs5 O3 3.103755 1_556
Cs5 O15 3.221016 1_555
Cs5 O5 3.269888 1_555
Cs5 O1 3.431428 1_555
Cs6 O6 2.956301 1_555
Cs6 O18 3.030246 1_555
Cs6 O8 3.043704 1_554
Cs6 O4 3.103755 1_655
Cs6 O14 3.221016 1_555
Cs6 O3 3.269888 1_555
Cs6 O2 3.431428 1_555
O0 Se5 1.634321 1_455
O1 Se3 1.634321 1_545
O2 Se4 1.634321 1_554
O3 Se2 1.634321 1_655
O4 Se0 1.634321 1_565
O5 Se1 1.634321 1_556
O6 Se5 1.632515 1_555
O7 Se3 1.632515 1_555
O8 Se4 1.632515 1_555
O9 Se2 1.632515 1_555
O10 Se0 1.632515 1_555
O11 Se1 1.632515 1_555
O12 Se2 1.729566 1_555
O12 Ta0 1.976558 1_555
O13 Se0 1.729566 1_555
O13 Ta0 1.976558 1_555
O14 Se1 1.635596 1_555
O15 Se0 1.635596 1_555
O16 Se2 1.635596 1_555
O17 Se4 1.635596 1_555
O18 Se3 1.635596 1_555
O19 Se5 1.635596 1_555
O20 Se4 1.729567 1_555
O20 Ta0 1.976559 1_666
O21 Se3 1.729566 1_555
O21 Ta0 1.976558 1_666
O22 Se5 1.729566 1_555
O22 Ta0 1.976558 1_666
O23 Se1 1.729567 1_555
O23 Ta0 1.976559 1_555
