# generated using pymatgen
data_Li14FeSiN8
_symmetry_space_group_name_H-M   'P 1'
_cell_length_a   6.63032962
_cell_length_b   6.63032962
_cell_length_c   4.78755340
_cell_angle_alpha   90.00000000
_cell_angle_beta   90.00000000
_cell_angle_gamma   90.00000000
_symmetry_Int_Tables_number   1
_chemical_formula_structural   Li14FeSiN8
_chemical_formula_sum   'Li14 Fe1 Si1 N8'
_cell_volume   210.46693153
_cell_formula_units_Z   1
loop_
 _symmetry_equiv_pos_site_id
 _symmetry_equiv_pos_as_xyz
  1  'x, y, z'
loop_
 _atom_site_type_symbol
 _atom_site_label
 _atom_site_symmetry_multiplicity
 _atom_site_fract_x
 _atom_site_fract_y
 _atom_site_fract_z
 _atom_site_occupancy
  Li  Li0  1  0.50000000  0.00000000  0.58789090  1
  Li  Li1  1  0.23371500  0.76628500  0.00000000  1
  Li  Li2  1  0.00000000  0.50000000  0.88644984  1
  Li  Li3  1  0.76628500  0.23371500  0.00000000  1
  Li  Li4  1  0.25833164  0.74166836  0.50000000  1
  Li  Li5  1  0.00000000  0.00000000  0.00000000  1
  Li  Li6  1  0.50000000  0.00000000  0.11355016  1
  Li  Li7  1  0.74166836  0.74166836  0.50000000  1
  Li  Li8  1  0.25833164  0.25833164  0.50000000  1
  Li  Li9  1  0.23371500  0.23371500  0.00000000  1
  Li  Li10  1  0.76628500  0.76628500  0.00000000  1
  Li  Li11  1  0.74166836  0.25833164  0.50000000  1
  Li  Li12  1  0.00000000  0.50000000  0.41210910  1
  Li  Li13  1  0.50000000  0.50000000  0.50000000  1
  Fe  Fe0  1  0.50000000  0.50000000  0.00000000  1
  Si  Si0  1  0.00000000  0.00000000  0.50000000  1
  N  N0  1  0.00000000  0.22531575  0.70618680  1
  N  N1  1  0.28200686  0.50000000  0.20751406  1
  N  N2  1  0.50000000  0.28200686  0.79248594  1
  N  N3  1  0.00000000  0.77468425  0.70618680  1
  N  N4  1  0.50000000  0.71799314  0.79248594  1
  N  N5  1  0.77468425  0.00000000  0.29381320  1
  N  N6  1  0.71799314  0.50000000  0.20751406  1
  N  N7  1  0.22531575  0.00000000  0.29381320  1
loop_
_geom_bond_atom_site_label_1
_geom_bond_atom_site_label_2
_geom_bond_distance
_geom_bond_site_symmetry_2
Li0 N2 2.110826 1_555
Li0 N4 2.110826 1_545
Li0 N5 2.301990 1_555
Li0 N7 2.301990 1_555
Li1 N1 2.051031 1_555
Li1 N4 2.051031 1_554
Li1 N3 2.093571 1_554
Li1 N7 2.093571 1_565
Li2 N3 2.015377 1_555
Li2 N0 2.015377 1_555
Li2 N1 2.420508 1_556
Li2 N6 2.420508 1_456
Li3 N2 2.051031 1_554
Li3 N6 2.051031 1_555
Li3 N5 2.093571 1_555
Li3 N0 2.093571 1_654
Li4 N3 1.988998 1_555
Li4 N7 1.988998 1_565
Li4 N1 2.133765 1_555
Li4 N4 2.133765 1_555
Li5 N7 2.051937 1_555
Li5 N0 2.051937 1_554
Li5 N5 2.051937 1_455
Li5 N3 2.051937 1_544
Li6 N5 2.015377 1_555
Li6 N7 2.015377 1_555
Li6 N2 2.420508 1_554
Li6 N4 2.420508 1_544
Li7 N3 1.988998 1_655
Li7 N5 1.988998 1_565
Li7 N4 2.133765 1_555
Li7 N6 2.133765 1_555
Li8 N0 1.988998 1_555
Li8 N7 1.988998 1_555
Li8 N2 2.133765 1_555
Li8 N1 2.133765 1_555
Li9 N1 2.051031 1_555
Li9 N2 2.051031 1_554
Li9 N7 2.093571 1_555
Li9 N0 2.093571 1_554
Li10 N6 2.051031 1_555
Li10 N4 2.051031 1_554
Li10 N5 2.093571 1_565
Li10 N3 2.093571 1_654
Li11 N5 1.988998 1_555
Li11 N0 1.988998 1_655
Li11 N2 2.133765 1_555
Li11 N6 2.133765 1_555
Li12 N1 2.110826 1_555
Li12 N6 2.110826 1_455
Li12 N3 2.301990 1_555
Li12 N0 2.301990 1_555
Li13 N4 2.012437 1_555
Li13 N6 2.012437 1_555
Li13 N2 2.012437 1_555
Li13 N1 2.012437 1_555
Fe0 N6 1.753880 1_555
Fe0 N4 1.753880 1_554
Fe0 N1 1.753880 1_555
Fe0 N2 1.753880 1_554
N0 Si0 1.790591 1_555
N3 Si0 1.790591 1_565
N5 Si0 1.790591 1_655
N7 Si0 1.790591 1_555
