# generated using pymatgen
data_BaSb2(AsRh3)3
_symmetry_space_group_name_H-M   'P 1'
_cell_length_a   7.53098749
_cell_length_b   7.53098808
_cell_length_c   11.17809888
_cell_angle_alpha   90.00000000
_cell_angle_beta   90.00000000
_cell_angle_gamma   119.99999317
_symmetry_Int_Tables_number   1
_chemical_formula_structural   BaSb2(AsRh3)3
_chemical_formula_sum   'Ba2 Sb4 As6 Rh18'
_cell_volume   549.03811514
_cell_formula_units_Z   2
loop_
 _symmetry_equiv_pos_site_id
 _symmetry_equiv_pos_as_xyz
  1  'x, y, z'
loop_
 _atom_site_type_symbol
 _atom_site_label
 _atom_site_symmetry_multiplicity
 _atom_site_fract_x
 _atom_site_fract_y
 _atom_site_fract_z
 _atom_site_occupancy
  Ba  Ba0  1  0.00000000  0.00000000  0.00000000  1
  Ba  Ba1  1  0.00000000  0.00000000  0.50000000  1
  Sb  Sb0  1  0.33333300  0.66666700  0.06547753  1
  Sb  Sb1  1  0.66666700  0.33333300  0.56547753  1
  Sb  Sb2  1  0.66666700  0.33333300  0.93452247  1
  Sb  Sb3  1  0.33333300  0.66666700  0.43452247  1
  As  As0  1  0.83314784  0.16685216  0.25000000  1
  As  As1  1  0.66629568  0.83314784  0.75000000  1
  As  As2  1  0.16685216  0.33370432  0.75000000  1
  As  As3  1  0.83314784  0.66629568  0.25000000  1
  As  As4  1  0.33370432  0.16685216  0.25000000  1
  As  As5  1  0.16685216  0.83314784  0.75000000  1
  Rh  Rh0  1  0.53905284  0.46094716  0.12135253  1
  Rh  Rh1  1  0.07810668  0.53905284  0.62135253  1
  Rh  Rh2  1  0.46094716  0.92189332  0.62135253  1
  Rh  Rh3  1  0.53905284  0.07810668  0.12135253  1
  Rh  Rh4  1  0.92189332  0.46094716  0.12135253  1
  Rh  Rh5  1  0.07810668  0.53905284  0.87864747  1
  Rh  Rh6  1  0.46094716  0.92189332  0.87864747  1
  Rh  Rh7  1  0.46094716  0.53905284  0.62135253  1
  Rh  Rh8  1  0.46094716  0.53905284  0.87864747  1
  Rh  Rh9  1  0.53905284  0.46094716  0.37864747  1
  Rh  Rh10  1  0.92189332  0.46094716  0.37864747  1
  Rh  Rh11  1  0.53905284  0.07810668  0.37864747  1
  Rh  Rh12  1  0.19765339  0.80234661  0.25000000  1
  Rh  Rh13  1  0.39530678  0.19765339  0.75000000  1
  Rh  Rh14  1  0.80234661  0.60469322  0.75000000  1
  Rh  Rh15  1  0.19765339  0.39530678  0.25000000  1
  Rh  Rh16  1  0.60469322  0.80234661  0.25000000  1
  Rh  Rh17  1  0.80234661  0.19765339  0.75000000  1
loop_
_geom_bond_atom_site_label_1
_geom_bond_atom_site_label_2
_geom_bond_distance
_geom_bond_site_symmetry_2
Ba0 Rh17 3.802169 1_454
Ba0 Rh12 3.802169 1_545
Ba0 Rh13 3.802169 1_554
Ba0 Rh16 3.802169 1_445
Ba0 Rh14 3.802169 1_444
Ba0 Rh15 3.802169 1_555
Ba0 Rh3 4.034660 1_555
Ba0 Rh6 4.034660 1_444
Ba0 Rh5 4.034661 1_554
Ba0 Rh4 4.034661 1_445
Ba0 Rh0 4.034663 1_555
Ba0 Rh8 4.034663 1_444
Ba0 Rh8 4.034664 1_554
Ba0 Rh0 4.034664 1_445
Ba0 Rh6 4.034667 1_544
Ba0 Rh3 4.034667 1_455
Ba0 Rh4 4.034668 1_455
Ba0 Rh5 4.034668 1_544
Ba1 Rh17 3.802169 1_455
Ba1 Rh12 3.802169 1_545
Ba1 Rh13 3.802169 1_555
Ba1 Rh16 3.802169 1_445
Ba1 Rh14 3.802169 1_445
Ba1 Rh15 3.802169 1_555
Ba1 Rh11 4.034660 1_555
Ba1 Rh2 4.034660 1_445
Ba1 Rh1 4.034661 1_555
Ba1 Rh10 4.034661 1_445
Ba1 Rh9 4.034663 1_555
Ba1 Rh7 4.034663 1_445
Ba1 Rh7 4.034664 1_555
Ba1 Rh9 4.034664 1_445
Ba1 Rh2 4.034667 1_545
Ba1 Rh11 4.034667 1_455
Ba1 Rh10 4.034668 1_455
Ba1 Rh1 4.034668 1_545
As0 Rh15 2.402643 1_655
As0 Rh16 2.402643 1_545
As0 Rh11 2.437174 1_555
As0 Rh3 2.437174 1_555
As0 Rh4 2.437174 1_555
As0 Rh10 2.437174 1_555
As0 Ba1 3.542063 1_655
As0 Ba0 3.542063 1_655
As1 Rh14 2.402643 1_555
As1 Rh17 2.402643 1_565
As1 Rh2 2.437168 1_555
As1 Rh6 2.437168 1_555
As1 Rh7 2.437173 1_555
As1 Rh8 2.437173 1_555
As1 Ba0 3.542063 1_666
As1 Ba1 3.542063 1_665
As2 Rh13 2.402643 1_555
As2 Rh17 2.402643 1_455
As2 Rh1 2.437168 1_555
As2 Rh5 2.437168 1_555
As2 Rh7 2.437173 1_555
As2 Rh8 2.437173 1_555
As2 Ba1 3.542063 1_555
As2 Ba0 3.542063 1_556
As3 Rh16 2.402643 1_555
As3 Rh12 2.402643 1_655
As3 Rh4 2.437168 1_555
As3 Rh10 2.437168 1_555
As3 Rh0 2.437173 1_555
As3 Rh9 2.437173 1_555
As3 Ba0 3.542063 1_665
As3 Ba1 3.542063 1_665
As4 Rh15 2.402643 1_555
As4 Rh12 2.402643 1_545
As4 Rh3 2.437168 1_555
As4 Rh11 2.437168 1_555
As4 Rh0 2.437173 1_555
As4 Rh9 2.437173 1_555
As4 Ba1 3.542063 1_555
As4 Ba0 3.542063 1_555
As5 Rh14 2.402643 1_455
As5 Rh13 2.402643 1_565
As5 Rh2 2.437174 1_555
As5 Rh6 2.437174 1_555
As5 Rh1 2.437174 1_555
As5 Rh5 2.437174 1_555
As5 Ba1 3.542063 1_565
As5 Ba0 3.542063 1_566
Rh0 Sb2 2.670646 1_554
Rh0 Sb0 2.755148 1_555
Rh1 Sb3 2.670638 1_555
Rh1 Sb1 2.755148 1_455
Rh2 Sb3 2.670638 1_555
Rh2 Sb1 2.755148 1_565
Rh3 Sb2 2.670638 1_554
Rh3 Sb0 2.755148 1_545
Rh4 Sb2 2.670638 1_554
Rh4 Sb0 2.755148 1_655
Rh5 Sb0 2.670638 1_556
Rh5 Sb2 2.755148 1_455
Rh6 Sb0 2.670638 1_556
Rh6 Sb2 2.755148 1_565
Rh7 Sb3 2.670646 1_555
Rh7 Sb1 2.755148 1_555
Rh8 Sb0 2.670646 1_556
Rh8 Sb2 2.755148 1_555
Rh9 Sb1 2.670646 1_555
Rh9 Sb3 2.755148 1_555
Rh10 Sb1 2.670638 1_555
Rh10 Sb3 2.755148 1_655
Rh11 Sb1 2.670638 1_555
Rh11 Sb3 2.755148 1_545
Rh12 Sb0 2.717829 1_555
Rh12 Sb3 2.717829 1_555
Rh13 Sb1 2.717834 1_555
Rh13 Sb2 2.717834 1_555
Rh14 Sb1 2.717834 1_555
Rh14 Sb2 2.717834 1_555
Rh15 Sb0 2.717834 1_555
Rh15 Sb3 2.717834 1_555
Rh16 Sb0 2.717834 1_555
Rh16 Sb3 2.717834 1_555
Rh17 Sb1 2.717829 1_555
Rh17 Sb2 2.717829 1_555
