# generated using pymatgen
data_Lu12Ni4SnOs
_symmetry_space_group_name_H-M   'P 1'
_cell_length_a   8.07546288
_cell_length_b   8.07546310
_cell_length_c   8.07546353
_cell_angle_alpha   111.80648370
_cell_angle_beta   110.02526416
_cell_angle_gamma   106.62417126
_symmetry_Int_Tables_number   1
_chemical_formula_structural   Lu12Ni4SnOs
_chemical_formula_sum   'Lu12 Ni4 Sn1 Os1'
_cell_volume   404.54774024
_cell_formula_units_Z   1
loop_
 _symmetry_equiv_pos_site_id
 _symmetry_equiv_pos_as_xyz
  1  'x, y, z'
loop_
 _atom_site_type_symbol
 _atom_site_label
 _atom_site_symmetry_multiplicity
 _atom_site_fract_x
 _atom_site_fract_y
 _atom_site_fract_z
 _atom_site_occupancy
  Lu  Lu0  1  0.67783661  0.87104657  0.19320996  1
  Lu  Lu1  1  0.32216339  0.51537334  0.19320996  1
  Lu  Lu2  1  0.82129235  0.77718565  0.59847800  1
  Lu  Lu3  1  0.17870765  0.77718565  0.95589329  1
  Lu  Lu4  1  0.82129235  0.22281435  0.04410671  1
  Lu  Lu5  1  0.17870765  0.22281435  0.40152200  1
  Lu  Lu6  1  0.67783661  0.48462666  0.80679004  1
  Lu  Lu7  1  0.32216339  0.12895343  0.80679004  1
  Lu  Lu8  1  0.58404392  0.27692634  0.30711658  1
  Lu  Lu9  1  0.41595608  0.72307366  0.69288342  1
  Lu  Lu10  1  0.03019024  0.72307366  0.30711658  1
  Lu  Lu11  1  0.96980976  0.27692634  0.69288342  1
  Ni  Ni0  1  0.35669248  0.50000000  0.85669248  1
  Ni  Ni1  1  0.64330752  0.50000000  0.14330752  1
  Ni  Ni2  1  0.88148218  0.88148218  0.00000000  1
  Ni  Ni3  1  0.11851782  0.11851782  1.00000000  1
  Sn  Sn0  1  0.50000000  0.00000000  0.50000000  1
  Os  Os0  1  0.00000000  0.50000000  0.50000000  1
loop_
_geom_bond_atom_site_label_1
_geom_bond_atom_site_label_2
_geom_bond_distance
_geom_bond_site_symmetry_2
Lu0 Ni2 2.630911 1_555
Lu0 Ni1 2.786804 1_555
Lu0 Ni0 2.786804 1_554
Lu0 Sn0 3.265024 1_565
Lu0 Lu10 3.367495 1_655
Lu0 Lu9 3.367496 1_554
Lu0 Lu8 3.438110 1_565
Lu0 Lu11 3.438115 1_565
Lu0 Lu3 3.517973 1_554
Lu0 Lu2 3.517973 1_555
Lu0 Lu5 3.531980 1_665
Lu0 Lu4 3.531980 1_565
Lu1 Ni3 2.630911 1_554
Lu1 Ni1 2.786804 1_555
Lu1 Ni0 2.786804 1_554
Lu1 Sn0 3.265024 1_565
Lu1 Lu11 3.367495 1_454
Lu1 Lu8 3.367500 1_555
Lu1 Lu10 3.438115 1_555
Lu1 Lu9 3.438118 1_555
Lu1 Lu2 3.517973 1_555
Lu1 Lu3 3.517973 1_554
Lu1 Lu4 3.531980 1_455
Lu1 Lu5 3.531980 1_555
Lu2 Ni3 2.848984 1_665
Lu2 Ni2 2.848984 1_556
Lu2 Ni1 3.002545 1_555
Lu2 Os0 3.006225 1_655
Lu2 Lu8 3.308939 1_555
Lu2 Lu3 3.309978 1_655
Lu2 Lu7 3.531980 1_665
Lu2 Lu6 3.531980 1_555
Lu2 Lu9 3.553116 1_555
Lu2 Sn0 3.594873 1_565
Lu3 Ni2 2.848983 1_456
Lu3 Ni3 2.848983 1_565
Lu3 Ni0 3.002545 1_555
Lu3 Os0 3.006225 1_555
Lu3 Lu9 3.308932 1_555
Lu3 Lu6 3.531980 1_455
Lu3 Lu7 3.531980 1_565
Lu3 Lu8 3.553111 1_566
Lu3 Sn0 3.594873 1_566
Lu4 Ni3 2.848983 1_654
Lu4 Ni2 2.848983 1_545
Lu4 Ni1 3.002545 1_555
Lu4 Os0 3.006225 1_655
Lu4 Lu8 3.308932 1_555
Lu4 Lu5 3.309978 1_655
Lu4 Lu7 3.517973 1_554
Lu4 Lu6 3.517973 1_554
Lu4 Lu9 3.553111 1_544
Lu4 Sn0 3.594873 1_554
Lu5 Ni2 2.848984 1_445
Lu5 Ni3 2.848984 1_554
Lu5 Ni0 3.002545 1_555
Lu5 Os0 3.006225 1_555
Lu5 Lu9 3.308939 1_555
Lu5 Lu6 3.517973 1_555
Lu5 Lu7 3.517973 1_555
Lu5 Lu8 3.553116 1_555
Lu5 Sn0 3.594873 1_555
Lu6 Ni2 2.630911 1_556
Lu6 Ni0 2.786804 1_555
Lu6 Ni1 2.786804 1_556
Lu6 Sn0 3.265024 1_555
Lu6 Lu9 3.367500 1_555
Lu6 Lu8 3.438118 1_555
Lu7 Ni3 2.630911 1_555
Lu7 Ni0 2.786804 1_555
Lu7 Ni1 2.786804 1_556
Lu7 Sn0 3.265024 1_555
Lu7 Lu8 3.367496 1_556
Lu7 Lu9 3.438110 1_545
Lu8 Ni1 2.633394 1_555
Lu8 Os0 2.797169 1_655
Lu8 Sn0 3.214246 1_555
Lu8 Ni3 3.228904 1_554
Lu9 Ni0 2.633394 1_555
Lu9 Os0 2.797169 1_555
Lu9 Sn0 3.214246 1_565
Lu9 Ni2 3.228904 1_556
Lu10 Ni1 2.633395 1_455
Lu10 Os0 2.797176 1_555
Lu10 Sn0 3.214244 1_565
Lu10 Ni2 3.228898 1_455
Lu10 Lu4 3.308938 1_455
Lu10 Lu2 3.308939 1_455
Lu10 Lu6 3.367495 1_454
Lu10 Lu7 3.438115 1_565
Lu10 Lu5 3.553108 1_565
Lu10 Lu3 3.553108 1_554
Lu10 Lu9 3.572533 1_555
Lu11 Ni0 2.633395 1_655
Lu11 Os0 2.797176 1_655
Lu11 Sn0 3.214244 1_555
Lu11 Ni3 3.228898 1_655
Lu11 Lu3 3.308938 1_655
Lu11 Lu5 3.308939 1_655
Lu11 Lu7 3.367495 1_655
Lu11 Lu6 3.438115 1_555
Lu11 Lu2 3.553108 1_545
Lu11 Lu4 3.553108 1_556
Lu11 Lu8 3.572533 1_555
Ni0 Ni1 2.654306 1_556
Ni2 Ni3 2.287268 1_664
