# generated using pymatgen
data_CaGa4PbBr16
_symmetry_space_group_name_H-M   'P 1'
_cell_length_a   7.34664878
_cell_length_b   7.56660852
_cell_length_c   14.26770980
_cell_angle_alpha   90.20505787
_cell_angle_beta   89.79272786
_cell_angle_gamma   89.25561600
_symmetry_Int_Tables_number   1
_chemical_formula_structural   CaGa4PbBr16
_chemical_formula_sum   'Ca1 Ga4 Pb1 Br16'
_cell_volume   793.05345288
_cell_formula_units_Z   1
loop_
 _symmetry_equiv_pos_site_id
 _symmetry_equiv_pos_as_xyz
  1  'x, y, z'
loop_
 _atom_site_type_symbol
 _atom_site_label
 _atom_site_symmetry_multiplicity
 _atom_site_fract_x
 _atom_site_fract_y
 _atom_site_fract_z
 _atom_site_occupancy
  Ca  Ca0  1  0.21972537  0.09498910  0.32656607  1
  Ga  Ga0  1  0.94878970  0.21238753  0.57737934  1
  Ga  Ga1  1  0.05209407  0.16824986  0.08403794  1
  Ga  Ga2  1  0.56956294  0.67590970  0.77343616  1
  Ga  Ga3  1  0.42419891  0.64780513  0.27632964  1
  Pb  Pb0  1  0.80337999  0.11890526  0.83422701  1
  Br  Br0  1  0.43160338  0.65171159  0.63145331  1
  Br  Br1  1  0.56572546  0.61164940  0.13522197  1
  Br  Br2  1  0.88501595  0.73647957  0.76134995  1
  Br  Br3  1  0.11362595  0.73081675  0.26195291  1
  Br  Br4  1  0.96009847  0.44505692  0.47515346  1
  Br  Br5  1  0.01801945  0.39519349  0.97636781  1
  Br  Br6  1  0.93454661  0.91422956  0.01401495  1
  Br  Br7  1  0.06364013  0.95755175  0.49945675  1
  Br  Br8  1  0.65266768  0.15456627  0.63262328  1
  Br  Br9  1  0.35712731  0.12587933  0.12986961  1
  Br  Br10  1  0.52704222  0.42600443  0.87022529  1
  Br  Br11  1  0.45108986  0.39454670  0.37403104  1
  Br  Br12  1  0.44903158  0.91565222  0.86395448  1
  Br  Br13  1  0.55038800  0.88248672  0.36534530  1
  Br  Br14  1  0.89855323  0.22617384  0.22725059  1
  Br  Br15  1  0.12407670  0.24855888  0.71415314  1
loop_
_geom_bond_atom_site_label_1
_geom_bond_atom_site_label_2
_geom_bond_distance
_geom_bond_site_symmetry_2
Br0 Ga2 2.276303 1_555
Br1 Ga3 2.276565 1_555
Br2 Ga2 2.374019 1_555
Br2 Pb0 3.121381 1_565
Br3 Ga3 2.368480 1_555
Br3 Ca0 3.015514 1_565
Br4 Ga0 2.292365 1_555
Br5 Ga1 2.319881 1_556
Br5 Pb0 3.323904 1_455
Br6 Ga1 2.339635 1_665
Br6 Pb0 3.148757 1_564
Br7 Ga0 2.366791 1_465
Br7 Ca0 2.917216 1_565
Br8 Ga0 2.358028 1_555
Br8 Pb0 3.097324 1_555
Br9 Ga1 2.354948 1_555
Br9 Ca0 2.989961 1_555
Br10 Ga2 2.368795 1_555
Br10 Pb0 3.105841 1_555
Br11 Ga3 2.380275 1_555
Br11 Ca0 2.929653 1_555
Br12 Ga2 2.382438 1_555
Br12 Pb0 3.069672 1_565
Br13 Ga3 2.379264 1_555
Br13 Ca0 2.950841 1_565
Br14 Ga1 2.367217 1_655
Br14 Ca0 2.921306 1_655
Br15 Ga0 2.359011 1_455
Br15 Pb0 3.080788 1_455
