# generated using pymatgen
data_Ba(CaAs)2
_symmetry_space_group_name_H-M   'P 1'
_cell_length_a   4.88479974
_cell_length_b   4.88479924
_cell_length_c   8.02075455
_cell_angle_alpha   90.00000000
_cell_angle_beta   90.00000000
_cell_angle_gamma   119.99998999
_symmetry_Int_Tables_number   1
_chemical_formula_structural   Ba(CaAs)2
_chemical_formula_sum   'Ba1 Ca2 As2'
_cell_volume   165.74459883
_cell_formula_units_Z   1
loop_
 _symmetry_equiv_pos_site_id
 _symmetry_equiv_pos_as_xyz
  1  'x, y, z'
loop_
 _atom_site_type_symbol
 _atom_site_label
 _atom_site_symmetry_multiplicity
 _atom_site_fract_x
 _atom_site_fract_y
 _atom_site_fract_z
 _atom_site_occupancy
  Ba  Ba0  1  0.00000000  0.00000000  0.00000000  1
  Ca  Ca0  1  0.66666700  0.33333300  0.36209947  1
  Ca  Ca1  1  0.33333300  0.66666700  0.63790053  1
  As  As0  1  0.33333300  0.66666700  0.25677255  1
  As  As1  1  0.66666700  0.33333300  0.74322745  1
loop_
_geom_bond_atom_site_label_1
_geom_bond_atom_site_label_2
_geom_bond_distance
_geom_bond_site_symmetry_2
As0 Ca0 2.944050 1_565
As0 Ca0 2.944050 1_455
As0 Ca0 2.944058 1_555
As0 Ca1 3.056934 1_555
As0 Ba0 3.492180 1_565
As0 Ba0 3.492183 1_555
As0 Ba0 3.492183 1_665
As1 Ca1 2.944050 1_545
As1 Ca1 2.944050 1_655
As1 Ca1 2.944058 1_555
As1 Ca0 3.056934 1_555
As1 Ba0 3.492180 1_656
As1 Ba0 3.492183 1_666
As1 Ba0 3.492183 1_556
