# generated using pymatgen
data_CsHf2(AsO4)3
_symmetry_space_group_name_H-M   'P 1'
_cell_length_a   9.98694915
_cell_length_b   9.98694972
_cell_length_c   9.98694874
_cell_angle_alpha   52.56653440
_cell_angle_beta   52.56653093
_cell_angle_gamma   52.56652897
_symmetry_Int_Tables_number   1
_chemical_formula_structural   CsHf2(AsO4)3
_chemical_formula_sum   'Cs2 Hf4 As6 O24'
_cell_volume   581.45422913
_cell_formula_units_Z   2
loop_
 _symmetry_equiv_pos_site_id
 _symmetry_equiv_pos_as_xyz
  1  'x, y, z'
loop_
 _atom_site_type_symbol
 _atom_site_label
 _atom_site_symmetry_multiplicity
 _atom_site_fract_x
 _atom_site_fract_y
 _atom_site_fract_z
 _atom_site_occupancy
  Cs  Cs0  1  0.50000000  0.50000000  0.50000000  1
  Cs  Cs1  1  0.00000000  0.00000000  0.00000000  1
  Hf  Hf0  1  0.34863013  0.34863013  0.34863013  1
  Hf  Hf1  1  0.84863013  0.84863013  0.84863013  1
  Hf  Hf2  1  0.65136987  0.65136987  0.65136987  1
  Hf  Hf3  1  0.15136987  0.15136987  0.15136987  1
  As  As0  1  0.97468784  0.52531216  0.25000000  1
  As  As1  1  0.25000000  0.97468784  0.52531216  1
  As  As2  1  0.52531216  0.25000000  0.97468784  1
  As  As3  1  0.75000000  0.02531216  0.47468784  1
  As  As4  1  0.47468784  0.75000000  0.02531216  1
  As  As5  1  0.02531216  0.47468784  0.75000000  1
  O  O0  1  0.16432279  0.51417159  0.22347050  1
  O  O1  1  0.22347050  0.16432279  0.51417159  1
  O  O2  1  0.51417159  0.22347050  0.16432279  1
  O  O3  1  0.72347050  0.01417159  0.66432279  1
  O  O4  1  0.66432279  0.72347050  0.01417159  1
  O  O5  1  0.01417159  0.66432279  0.72347050  1
  O  O6  1  0.83567721  0.48582841  0.77652950  1
  O  O7  1  0.77652950  0.83567721  0.48582841  1
  O  O8  1  0.48582841  0.77652950  0.83567721  1
  O  O9  1  0.27652950  0.98582841  0.33567721  1
  O  O10  1  0.33567721  0.27652950  0.98582841  1
  O  O11  1  0.98582841  0.33567721  0.27652950  1
  O  O12  1  0.19702305  0.42855103  0.56279896  1
  O  O13  1  0.56279896  0.19702305  0.42855103  1
  O  O14  1  0.42855103  0.56279896  0.19702305  1
  O  O15  1  0.06279896  0.92855103  0.69702305  1
  O  O16  1  0.69702305  0.06279896  0.92855103  1
  O  O17  1  0.92855103  0.69702305  0.06279896  1
  O  O18  1  0.80297695  0.57144897  0.43720104  1
  O  O19  1  0.43720104  0.80297695  0.57144897  1
  O  O20  1  0.57144897  0.43720104  0.80297695  1
  O  O21  1  0.93720104  0.07144897  0.30297695  1
  O  O22  1  0.30297695  0.93720104  0.07144897  1
  O  O23  1  0.07144897  0.30297695  0.93720104  1
loop_
_geom_bond_atom_site_label_1
_geom_bond_atom_site_label_2
_geom_bond_distance
_geom_bond_site_symmetry_2
Cs0 O20 3.135568 1_555
Cs0 O14 3.135568 1_555
Cs0 O18 3.135569 1_555
Cs0 O12 3.135569 1_555
Cs0 O19 3.135569 1_555
Cs0 O13 3.135569 1_555
Cs0 O11 3.581075 1_555
Cs0 O5 3.581075 1_555
Cs0 O10 3.581075 1_555
Cs0 O4 3.581075 1_555
Cs0 O3 3.581075 1_555
Cs0 O9 3.581075 1_555
Cs1 O21 3.135568 1_455
Cs1 O15 3.135568 1_544
Cs1 O22 3.135569 1_545
Cs1 O16 3.135569 1_454
Cs1 O23 3.135569 1_554
Cs1 O17 3.135569 1_445
Cs1 O8 3.581075 1_544
Cs1 O2 3.581075 1_455
Cs1 O7 3.581075 1_445
Cs1 O1 3.581075 1_554
Cs1 O6 3.581075 1_454
Cs1 O0 3.581075 1_545
Hf0 O12 2.042965 1_555
Hf0 O13 2.042965 1_555
Hf0 O14 2.042965 1_555
Hf0 O2 2.066174 1_555
Hf0 O0 2.066174 1_555
Hf0 O1 2.066174 1_555
Hf1 O17 2.042965 1_556
Hf1 O16 2.042965 1_565
Hf1 O15 2.042965 1_655
Hf1 O5 2.066174 1_655
Hf1 O3 2.066174 1_565
Hf1 O4 2.066174 1_556
Hf2 O18 2.042965 1_555
Hf2 O19 2.042965 1_555
Hf2 O20 2.042965 1_555
Hf2 O8 2.066174 1_555
Hf2 O6 2.066174 1_555
Hf2 O7 2.066174 1_555
Hf3 O23 2.042965 1_554
Hf3 O22 2.042965 1_545
Hf3 O21 2.042965 1_455
Hf3 O11 2.066174 1_455
Hf3 O9 2.066174 1_545
Hf3 O10 2.066174 1_554
As0 O18 1.684479 1_555
As0 O17 1.684479 1_555
As0 O0 1.684936 1_655
As0 O11 1.684937 1_555
As1 O19 1.684479 1_555
As1 O15 1.684479 1_555
As1 O9 1.684936 1_555
As1 O1 1.684937 1_565
As2 O16 1.684479 1_555
As2 O20 1.684479 1_555
As2 O2 1.684936 1_556
As2 O10 1.684936 1_555
As3 O13 1.684479 1_555
As3 O21 1.684479 1_555
As3 O3 1.684936 1_555
As3 O7 1.684937 1_545
As4 O22 1.684479 1_555
As4 O14 1.684479 1_555
As4 O8 1.684936 1_554
As4 O4 1.684936 1_555
As5 O12 1.684479 1_555
As5 O23 1.684479 1_555
As5 O6 1.684936 1_455
As5 O5 1.684937 1_555
