# generated using pymatgen
data_CrPd6Au
_symmetry_space_group_name_H-M   'P 1'
_cell_length_a   8.33589797
_cell_length_b   8.33589817
_cell_length_c   8.33589722
_cell_angle_alpha   152.73218396
_cell_angle_beta   152.73218765
_cell_angle_gamma   38.94502467
_symmetry_Int_Tables_number   1
_chemical_formula_structural   CrPd6Au
_chemical_formula_sum   'Cr1 Pd6 Au1'
_cell_volume   121.37247621
_cell_formula_units_Z   1
loop_
 _symmetry_equiv_pos_site_id
 _symmetry_equiv_pos_as_xyz
  1  'x, y, z'
loop_
 _atom_site_type_symbol
 _atom_site_label
 _atom_site_symmetry_multiplicity
 _atom_site_fract_x
 _atom_site_fract_y
 _atom_site_fract_z
 _atom_site_occupancy
  Cr  Cr0  1  0.87525395  0.87525395  0.00000000  1
  Pd  Pd0  1  0.37477730  0.37477730  1.00000000  1
  Pd  Pd1  1  0.62481774  0.62481774  0.00000000  1
  Pd  Pd2  1  0.99544032  0.49544032  0.50000000  1
  Pd  Pd3  1  0.49544032  0.99544032  0.50000000  1
  Pd  Pd4  1  0.25448815  0.75448815  0.50000000  1
  Pd  Pd5  1  0.75448815  0.25448815  0.50000000  1
  Au  Au0  1  0.12529505  0.12529505  0.00000000  1
loop_
_geom_bond_atom_site_label_1
_geom_bond_atom_site_label_2
_geom_bond_distance
_geom_bond_site_symmetry_2
Cr0 Pd3 2.725736 1_554
Cr0 Pd2 2.725736 1_554
Cr0 Pd3 2.725736 1_655
Cr0 Pd2 2.725737 1_565
Cr0 Pd4 2.732056 1_655
Cr0 Pd5 2.732056 1_565
Cr0 Pd4 2.732056 1_554
Cr0 Pd5 2.732057 1_554
Cr0 Pd0 2.778819 1_665
Cr0 Pd0 2.778819 1_553
Cr0 Pd0 2.778820 1_564
Cr0 Pd0 2.778820 1_654
Pd0 Pd5 2.726856 1_556
Pd0 Pd4 2.726856 1_556
Pd0 Pd5 2.726856 1_455
Pd0 Pd4 2.726857 1_545
Pd0 Pd2 2.730934 1_455
Pd0 Pd3 2.730934 1_545
Pd0 Pd2 2.730934 1_556
Pd0 Pd3 2.730934 1_556
Pd1 Pd2 2.827779 1_555
Pd1 Pd3 2.827779 1_555
Pd1 Pd2 2.827780 1_454
Pd1 Pd3 2.827780 1_544
Pd1 Pd4 2.831093 1_554
Pd1 Pd5 2.831093 1_554
Pd1 Pd4 2.831093 1_655
Pd1 Pd5 2.831093 1_565
Pd2 Pd3 2.778809 1_656
Pd2 Pd3 2.778809 1_544
Pd2 Pd3 2.778810 1_645
Pd2 Pd3 2.778810 1_555
Pd4 Pd5 2.778809 1_454
Pd4 Pd5 2.778809 1_566
Pd4 Pd5 2.778810 1_555
Pd4 Pd5 2.778810 1_465
Au0 Pd1 2.778819 1_556
Au0 Pd1 2.778819 1_444
Au0 Pd1 2.778820 1_455
Au0 Pd1 2.778820 1_545
Au0 Pd5 2.825696 1_454
Au0 Pd4 2.825697 1_544
Au0 Pd5 2.825697 1_555
Au0 Pd4 2.825697 1_555
Au0 Pd3 2.833179 1_545
Au0 Pd2 2.833180 1_455
Au0 Pd3 2.833180 1_444
Au0 Pd2 2.833180 1_444
