# generated using pymatgen
data_LuNiB2Ir
_symmetry_space_group_name_H-M   'P 1'
_cell_length_a   4.96308675
_cell_length_b   4.99808383
_cell_length_c   7.25908485
_cell_angle_alpha   60.38620338
_cell_angle_beta   57.41710791
_cell_angle_gamma   61.36949752
_symmetry_Int_Tables_number   1
_chemical_formula_structural   LuNiB2Ir
_chemical_formula_sum   'Lu2 Ni2 B4 Ir2'
_cell_volume   126.20670380
_cell_formula_units_Z   2
loop_
 _symmetry_equiv_pos_site_id
 _symmetry_equiv_pos_as_xyz
  1  'x, y, z'
loop_
 _atom_site_type_symbol
 _atom_site_label
 _atom_site_symmetry_multiplicity
 _atom_site_fract_x
 _atom_site_fract_y
 _atom_site_fract_z
 _atom_site_occupancy
  Lu  Lu0  1  0.87572222  0.12164619  0.74808129  1
  Lu  Lu1  1  0.12427778  0.87835381  0.25191871  1
  Ni  Ni0  1  0.73140782  0.52026911  0.30227464  1
  Ni  Ni1  1  0.26859218  0.47973089  0.69772536  1
  B  B0  1  0.50214257  0.82774591  0.47837025  1
  B  B1  1  0.49785743  0.17225409  0.52162975  1
  B  B2  1  0.16281183  0.50080341  0.01391542  1
  B  B3  1  0.83718817  0.49919659  0.98608458  1
  Ir  Ir0  1  0.45601706  0.26337002  0.21303255  1
  Ir  Ir1  1  0.54398294  0.73662998  0.78696745  1
loop_
_geom_bond_atom_site_label_1
_geom_bond_atom_site_label_2
_geom_bond_distance
_geom_bond_site_symmetry_2
Lu0 Ni1 2.790700 1_555
Lu0 Ni1 2.936899 1_645
Lu0 Ni1 3.011433 1_655
Lu0 Ni0 3.116394 1_555
Lu1 Ni0 2.790700 1_555
Lu1 Ni0 2.936899 1_465
Lu1 Ni0 3.011433 1_455
Lu1 Ni1 3.116394 1_555
B0 B1 1.885746 1_565
B0 Ni0 1.997410 1_555
B0 Ni1 2.027703 1_555
B0 Ir0 2.086980 1_565
B0 Ir1 2.161219 1_555
B0 Lu1 2.677863 1_655
B0 Lu0 2.750755 1_465
B0 Lu1 2.956005 1_555
B0 Lu0 3.245937 1_555
B1 Ni1 1.997410 1_555
B1 Ni0 2.027703 1_555
B1 Ir1 2.086980 1_545
B1 Ir0 2.161219 1_555
B1 Lu0 2.677863 1_455
B1 Lu1 2.750755 1_645
B1 Lu0 2.956005 1_555
B1 Lu1 3.245937 1_555
B2 B3 1.737338 1_454
B2 Ni0 2.037136 1_455
B2 Ni1 2.107838 1_554
B2 Ir0 2.128465 1_555
B2 Ir1 2.131496 1_554
B2 Lu1 2.757245 1_545
B2 Lu0 2.861672 1_464
B2 Lu1 3.017066 1_555
B2 Lu0 3.109475 1_554
B3 Ni1 2.037136 1_655
B3 Ni0 2.107838 1_556
B3 Ir1 2.128465 1_555
B3 Ir0 2.131496 1_556
B3 Lu0 2.757245 1_565
B3 Lu1 2.861672 1_646
B3 Lu0 3.017066 1_555
B3 Lu1 3.109475 1_556
Ir0 Lu1 2.783070 1_555
Ir0 Lu1 2.914180 1_545
Ir0 Lu1 3.022916 1_645
Ir0 Lu0 3.099823 1_554
Ir0 Lu0 3.327145 1_455
Ir1 Lu0 2.783070 1_555
Ir1 Lu0 2.914180 1_565
Ir1 Lu0 3.022916 1_465
Ir1 Lu1 3.099823 1_556
Ir1 Lu1 3.327145 1_655
