# generated using pymatgen
data_K3Sc(SeO4)3
_symmetry_space_group_name_H-M   'P 1'
_cell_length_a   9.22585517
_cell_length_b   9.22585422
_cell_length_c   9.22585495
_cell_angle_alpha   107.73425405
_cell_angle_beta   107.73425567
_cell_angle_gamma   107.73426477
_symmetry_Int_Tables_number   1
_chemical_formula_structural   K3Sc(SeO4)3
_chemical_formula_sum   'K6 Sc2 Se6 O24'
_cell_volume   640.43116138
_cell_formula_units_Z   2
loop_
 _symmetry_equiv_pos_site_id
 _symmetry_equiv_pos_as_xyz
  1  'x, y, z'
loop_
 _atom_site_type_symbol
 _atom_site_label
 _atom_site_symmetry_multiplicity
 _atom_site_fract_x
 _atom_site_fract_y
 _atom_site_fract_z
 _atom_site_occupancy
  K  K0  1  0.09290275  0.62292174  0.23354191  1
  K  K1  1  0.23354191  0.09290275  0.62292174  1
  K  K2  1  0.62292174  0.23354191  0.09290275  1
  K  K3  1  0.31591291  0.70551735  0.84620479  1
  K  K4  1  0.84620479  0.31591291  0.70551735  1
  K  K5  1  0.70551735  0.84620479  0.31591291  1
  Sc  Sc0  1  0.46917373  0.46917373  0.46917373  1
  Sc  Sc1  1  0.96914936  0.96914936  0.96914936  1
  Se  Se0  1  0.90534277  0.70074277  0.56921356  1
  Se  Se1  1  0.56921356  0.90534277  0.70074277  1
  Se  Se2  1  0.70074277  0.56921356  0.90534277  1
  Se  Se3  1  0.36916921  0.03313468  0.23769790  1
  Se  Se4  1  0.23769790  0.36916921  0.03313468  1
  Se  Se5  1  0.03313468  0.23769790  0.36916921  1
  O  O0  1  0.97678709  0.75522747  0.44232643  1
  O  O1  1  0.44232643  0.97678709  0.75522747  1
  O  O2  1  0.75522747  0.44232643  0.97678709  1
  O  O3  1  0.69413314  0.60103192  0.46041838  1
  O  O4  1  0.46041838  0.69413314  0.60103192  1
  O  O5  1  0.60103192  0.46041838  0.69413314  1
  O  O6  1  0.88316394  0.72398513  0.95150479  1
  O  O7  1  0.95150479  0.88316394  0.72398513  1
  O  O8  1  0.72398513  0.95150479  0.88316394  1
  O  O9  1  0.64308644  0.98080830  0.58679945  1
  O  O10  1  0.58679945  0.64308644  0.98080830  1
  O  O11  1  0.98080830  0.58679945  0.64308644  1
  O  O12  1  0.24437751  0.33715817  0.47795435  1
  O  O13  1  0.47795435  0.24437751  0.33715817  1
  O  O14  1  0.33715817  0.47795435  0.24437751  1
  O  O15  1  0.05514293  0.21430573  0.98666430  1
  O  O16  1  0.98666430  0.05514293  0.21430573  1
  O  O17  1  0.21430573  0.98666430  0.05514293  1
  O  O18  1  0.96167781  0.18345300  0.49614767  1
  O  O19  1  0.49614767  0.96167781  0.18345300  1
  O  O20  1  0.18345300  0.49614767  0.96167781  1
  O  O21  1  0.29542475  0.95798898  0.35190889  1
  O  O22  1  0.35190889  0.29542475  0.95798898  1
  O  O23  1  0.95798898  0.35190889  0.29542475  1
loop_
_geom_bond_atom_site_label_1
_geom_bond_atom_site_label_2
_geom_bond_distance
_geom_bond_site_symmetry_2
K0 O0 2.639924 1_455
K0 O21 2.724218 1_555
K0 O23 2.744715 1_455
K0 O2 2.833785 1_454
K0 O20 2.905412 1_554
K0 O14 2.942305 1_555
K0 O6 3.300612 1_454
K1 O1 2.639924 1_545
K1 O22 2.724218 1_555
K1 O21 2.744715 1_545
K1 O0 2.833785 1_445
K1 O18 2.905412 1_455
K1 O12 2.942305 1_555
K1 O7 3.300612 1_445
K2 O2 2.639924 1_554
K2 O23 2.724218 1_555
K2 O22 2.744715 1_554
K2 O1 2.833785 1_544
K2 O19 2.905412 1_545
K2 O13 2.942305 1_555
K2 O8 3.300612 1_544
K3 O20 2.639736 1_555
K3 O11 2.725203 1_455
K3 O10 2.746212 1_555
K3 O19 2.829403 1_556
K3 O1 2.902769 1_555
K3 O4 2.946595 1_555
K3 O17 3.295229 1_556
K4 O18 2.639736 1_555
K4 O9 2.725202 1_545
K4 O11 2.746212 1_555
K4 O20 2.829403 1_655
K4 O2 2.902770 1_555
K4 O5 2.946595 1_555
K4 O15 3.295229 1_655
K5 O19 2.639736 1_555
K5 O10 2.725203 1_554
K5 O9 2.746212 1_555
K5 O18 2.829403 1_565
K5 O0 2.902770 1_555
K5 O3 2.946594 1_555
K5 O16 3.295228 1_565
O0 Se0 1.638366 1_555
O1 Se1 1.638367 1_555
O2 Se2 1.638366 1_555
O3 Se0 1.674715 1_555
O3 Sc0 2.101845 1_555
O4 Se1 1.674714 1_555
O4 Sc0 2.101845 1_555
O5 Se2 1.674715 1_555
O5 Sc0 2.101845 1_555
O6 Se2 1.667814 1_555
O6 Sc1 2.091816 1_555
O7 Se0 1.667814 1_555
O7 Sc1 2.091816 1_555
O8 Se1 1.667814 1_555
O8 Sc1 2.091816 1_555
O9 Se1 1.627139 1_555
O10 Se2 1.627139 1_555
O11 Se0 1.627139 1_555
O12 Se5 1.674930 1_555
O12 Sc0 2.101148 1_555
O13 Se3 1.674930 1_555
O13 Sc0 2.101148 1_555
O14 Se4 1.674930 1_555
O14 Sc0 2.101148 1_555
O15 Se4 1.668153 1_556
O15 Sc1 2.092189 1_445
O16 Se5 1.668153 1_655
O16 Sc1 2.092189 1_544
O17 Se3 1.668153 1_565
O17 Sc1 2.092189 1_454
O18 Se5 1.638324 1_655
O19 Se3 1.638324 1_565
O20 Se4 1.638324 1_556
O21 Se3 1.627332 1_565
O22 Se4 1.627332 1_556
O23 Se5 1.627332 1_655
