# generated using pymatgen
data_K2MnAlF7
_symmetry_space_group_name_H-M   'P 1'
_cell_length_a   7.55003452
_cell_length_b   7.55003460
_cell_length_c   7.55003498
_cell_angle_alpha   120.44065879
_cell_angle_beta   117.14769634
_cell_angle_gamma   92.12436492
_symmetry_Int_Tables_number   1
_chemical_formula_structural   K2MnAlF7
_chemical_formula_sum   'K4 Mn2 Al2 F14'
_cell_volume   309.33160168
_cell_formula_units_Z   2
loop_
 _symmetry_equiv_pos_site_id
 _symmetry_equiv_pos_as_xyz
  1  'x, y, z'
loop_
 _atom_site_type_symbol
 _atom_site_label
 _atom_site_symmetry_multiplicity
 _atom_site_fract_x
 _atom_site_fract_y
 _atom_site_fract_z
 _atom_site_occupancy
  K  K0  1  0.00000000  0.00000000  0.00000000  1
  K  K1  1  0.50000000  0.50000000  0.00000000  1
  K  K2  1  0.50000000  0.00000000  0.00000000  1
  K  K3  1  0.50000000  0.50000000  0.50000000  1
  Mn  Mn0  1  0.00000000  0.00000000  0.50000000  1
  Mn  Mn1  1  0.00000000  0.50000000  0.00000000  1
  Al  Al0  1  0.50000000  0.00000000  0.50000000  1
  Al  Al1  1  0.00000000  0.50000000  0.50000000  1
  F  F0  1  0.38062035  0.08106291  0.29955744  1
  F  F1  1  0.71849454  0.41893709  0.29955744  1
  F  F2  1  0.67996198  0.28346437  0.74584305  1
  F  F3  1  0.96237768  0.21653563  0.39649761  1
  F  F4  1  0.96237768  0.56588107  0.74584305  1
  F  F5  1  0.67996198  0.93411893  0.39649761  1
  F  F6  1  0.32003802  0.06588107  0.60350239  1
  F  F7  1  0.03762232  0.43411893  0.25415695  1
  F  F8  1  0.03762232  0.78346437  0.60350239  1
  F  F9  1  0.32003802  0.71653563  0.25415695  1
  F  F10  1  0.87460154  0.75000000  0.12460154  1
  F  F11  1  0.61937965  0.91893709  0.70044256  1
  F  F12  1  0.28150546  0.58106291  0.70044256  1
  F  F13  1  0.12539846  0.25000000  0.87539846  1
loop_
_geom_bond_atom_site_label_1
_geom_bond_atom_site_label_2
_geom_bond_distance
_geom_bond_site_symmetry_2
Al0 F11 1.792161 1_545
Al0 F0 1.792161 1_555
Al0 F2 1.824655 1_555
Al0 F9 1.824655 1_545
Al0 F5 1.824656 1_545
Al0 F6 1.824656 1_555
Al1 F12 1.792160 1_555
Al1 F1 1.792160 1_455
Al1 F8 1.824655 1_555
Al1 F3 1.824655 1_455
Al1 F4 1.824661 1_455
Al1 F7 1.824661 1_555
F0 K0 2.506739 1_555
F0 K3 2.607808 1_555
F0 K2 2.607809 1_555
F1 K1 2.506739 1_555
F1 K2 2.607808 1_555
F1 K3 2.607809 1_555
F2 Mn1 2.119074 1_656
F2 K1 2.750669 1_556
F2 K3 2.983637 1_555
F3 Mn0 2.119075 1_655
F3 K0 2.750674 1_655
F3 K2 2.983632 1_555
F4 Mn1 2.119073 1_656
F4 K0 2.750667 1_666
F4 K3 2.983630 1_555
F5 Mn0 2.119074 1_665
F5 K1 2.750669 1_555
F5 K2 2.983637 1_565
F6 Mn0 2.119074 1_555
F6 K1 2.750669 1_556
F6 K2 2.983637 1_556
F7 Mn1 2.119073 1_555
F7 K0 2.750667 1_555
F7 K3 2.983630 1_555
F8 Mn0 2.119075 1_565
F8 K0 2.750674 1_566
F8 K2 2.983632 1_566
F9 Mn1 2.119074 1_555
F9 K1 2.750669 1_555
F9 K3 2.983637 1_555
F10 Mn0 2.118977 1_665
F10 Mn1 2.118977 1_655
F10 K1 2.797075 1_555
F10 K0 2.797075 1_665
F11 K0 2.506739 1_666
F11 K3 2.607808 1_555
F11 K2 2.607809 1_566
F12 K1 2.506739 1_556
F12 K2 2.607808 1_566
F12 K3 2.607809 1_555
F13 Mn0 2.118977 1_555
F13 Mn1 2.118977 1_556
F13 K1 2.797075 1_556
F13 K0 2.797075 1_556
