# generated using pymatgen
data_H12Ir3Rh
_symmetry_space_group_name_H-M   'P 1'
_cell_length_a   5.70879636
_cell_length_b   5.73048950
_cell_length_c   5.73048839
_cell_angle_alpha   60.00000072
_cell_angle_beta   59.87421961
_cell_angle_gamma   59.87422088
_symmetry_Int_Tables_number   1
_chemical_formula_structural   H12Ir3Rh
_chemical_formula_sum   'H12 Ir3 Rh1'
_cell_volume   132.30755049
_cell_formula_units_Z   1
loop_
 _symmetry_equiv_pos_site_id
 _symmetry_equiv_pos_as_xyz
  1  'x, y, z'
loop_
 _atom_site_type_symbol
 _atom_site_label
 _atom_site_symmetry_multiplicity
 _atom_site_fract_x
 _atom_site_fract_y
 _atom_site_fract_z
 _atom_site_occupancy
  H  H0  1  0.75741109  0.75791418  0.24233736  1
  H  H1  1  0.24420736  0.24465066  0.75557049  1
  H  H2  1  0.75741109  0.24233736  0.75791418  1
  H  H3  1  0.24420736  0.75557049  0.24465066  1
  H  H4  1  0.24420736  0.75557049  0.75557049  1
  H  H5  1  0.75741109  0.24233736  0.24233736  1
  H  H6  1  0.49258891  0.49208582  0.00766264  1
  H  H7  1  0.00579264  0.00534934  0.49442951  1
  H  H8  1  0.49258891  0.00766264  0.49208582  1
  H  H9  1  0.00579264  0.49442951  0.00534934  1
  H  H10  1  0.00579264  0.49442951  0.49442951  1
  H  H11  1  0.49258891  0.00766264  0.00766264  1
  Ir  Ir0  1  0.12500000  0.62500000  0.12500000  1
  Ir  Ir1  1  0.12500000  0.12500000  0.62500000  1
  Ir  Ir2  1  0.12500000  0.12500000  0.12500000  1
  Rh  Rh0  1  0.62500000  0.12500000  0.12500000  1
loop_
_geom_bond_atom_site_label_1
_geom_bond_atom_site_label_2
_geom_bond_distance
_geom_bond_site_symmetry_2
H0 Ir0 1.710922 1_655
H0 Rh0 1.717024 1_565
H1 Ir1 1.727902 1_555
H1 Ir2 1.727906 1_556
H2 Ir1 1.710922 1_655
H2 Rh0 1.717024 1_556
H3 Ir0 1.727902 1_555
H3 Ir2 1.727906 1_565
H4 Ir0 1.727906 1_556
H4 Ir1 1.727906 1_565
H5 Ir2 1.710922 1_655
H5 Rh0 1.717024 1_555
H6 Ir0 1.710922 1_555
H6 Rh0 1.717024 1_555
H7 Ir1 1.727902 1_555
H7 Ir2 1.727906 1_555
H8 Ir1 1.710922 1_555
H8 Rh0 1.717024 1_555
H9 Ir0 1.727902 1_555
H9 Ir2 1.727906 1_555
H10 Ir0 1.727906 1_555
H10 Ir1 1.727906 1_555
H11 Ir2 1.710922 1_555
H11 Rh0 1.717024 1_555
