# generated using pymatgen
data_LuHfBRh6
_symmetry_space_group_name_H-M   'P 1'
_cell_length_a   5.67684052
_cell_length_b   5.67684062
_cell_length_c   5.67684087
_cell_angle_alpha   59.99999852
_cell_angle_beta   59.99999799
_cell_angle_gamma   60.00000245
_symmetry_Int_Tables_number   1
_chemical_formula_structural   LuHfBRh6
_chemical_formula_sum   'Lu1 Hf1 B1 Rh6'
_cell_volume   129.36152131
_cell_formula_units_Z   1
loop_
 _symmetry_equiv_pos_site_id
 _symmetry_equiv_pos_as_xyz
  1  'x, y, z'
loop_
 _atom_site_type_symbol
 _atom_site_label
 _atom_site_symmetry_multiplicity
 _atom_site_fract_x
 _atom_site_fract_y
 _atom_site_fract_z
 _atom_site_occupancy
  Lu  Lu0  1  0.25000100  0.25000100  0.25000100  1
  Hf  Hf0  1  0.75000000  0.75000000  0.75000000  1
  B  B0  1  0.50000000  0.50000000  0.50000000  1
  Rh  Rh0  1  0.75726862  0.24273138  0.24273138  1
  Rh  Rh1  1  0.24273138  0.75726862  0.24273138  1
  Rh  Rh2  1  0.75726862  0.75726862  0.24273138  1
  Rh  Rh3  1  0.24273138  0.24273138  0.75726862  1
  Rh  Rh4  1  0.75726862  0.24273138  0.75726862  1
  Rh  Rh5  1  0.24273138  0.75726862  0.75726862  1
loop_
_geom_bond_atom_site_label_1
_geom_bond_atom_site_label_2
_geom_bond_distance
_geom_bond_site_symmetry_2
Lu0 Rh0 2.839009 1_555
Lu0 Rh1 2.839009 1_555
Lu0 Rh3 2.839009 1_555
Lu0 Rh4 2.839020 1_554
Lu0 Rh4 2.839020 1_455
Lu0 Rh5 2.839020 1_545
Lu0 Rh5 2.839020 1_554
Lu0 Rh2 2.839020 1_545
Lu0 Rh2 2.839020 1_455
Lu0 Rh0 2.839032 1_455
Lu0 Rh1 2.839032 1_545
Lu0 Rh3 2.839032 1_554
Hf0 Rh1 2.839020 1_556
Hf0 Rh5 2.839020 1_555
Hf0 Rh5 2.839020 1_655
Hf0 Rh1 2.839020 1_655
Hf0 Rh4 2.839020 1_565
Hf0 Rh0 2.839020 1_565
Hf0 Rh0 2.839020 1_556
Hf0 Rh4 2.839020 1_555
Hf0 Rh3 2.839020 1_565
Hf0 Rh3 2.839020 1_655
Hf0 Rh2 2.839020 1_555
Hf0 Rh2 2.839020 1_556
B0 Rh2 2.065421 1_555
B0 Rh3 2.065421 1_555
B0 Rh4 2.065421 1_555
B0 Rh5 2.065421 1_555
B0 Rh1 2.065421 1_555
B0 Rh0 2.065421 1_555
