# generated using pymatgen
data_Cs2Ti(CuS2)2
_symmetry_space_group_name_H-M   'P 1'
_cell_length_a   5.65967770
_cell_length_b   5.65967770
_cell_length_c   13.93284230
_cell_angle_alpha   90.00000000
_cell_angle_beta   90.00000000
_cell_angle_gamma   90.00000000
_symmetry_Int_Tables_number   1
_chemical_formula_structural   Cs2Ti(CuS2)2
_chemical_formula_sum   'Cs4 Ti2 Cu4 S8'
_cell_volume   446.29613129
_cell_formula_units_Z   2
loop_
 _symmetry_equiv_pos_site_id
 _symmetry_equiv_pos_as_xyz
  1  'x, y, z'
loop_
 _atom_site_type_symbol
 _atom_site_label
 _atom_site_symmetry_multiplicity
 _atom_site_fract_x
 _atom_site_fract_y
 _atom_site_fract_z
 _atom_site_occupancy
  Cs  Cs0  1  0.75970815  0.75970815  0.00000000  1
  Cs  Cs1  1  0.24029185  0.75970815  0.50000000  1
  Cs  Cs2  1  0.75970815  0.24029185  0.50000000  1
  Cs  Cs3  1  0.24029185  0.24029185  0.00000000  1
  Ti  Ti0  1  0.50000000  0.50000000  0.25000000  1
  Ti  Ti1  1  0.50000000  0.50000000  0.75000000  1
  Cu  Cu0  1  0.00000000  0.50000000  0.75000000  1
  Cu  Cu1  1  0.50000000  0.00000000  0.75000000  1
  Cu  Cu2  1  0.50000000  0.00000000  0.25000000  1
  Cu  Cu3  1  0.00000000  0.50000000  0.25000000  1
  S  S0  1  0.73748685  0.26251315  0.16022241  1
  S  S1  1  0.73748685  0.73748685  0.33977759  1
  S  S2  1  0.26251315  0.26251315  0.66022241  1
  S  S3  1  0.73748685  0.73748685  0.66022241  1
  S  S4  1  0.26251315  0.26251315  0.33977759  1
  S  S5  1  0.73748685  0.26251315  0.83977759  1
  S  S6  1  0.26251315  0.73748685  0.83977759  1
  S  S7  1  0.26251315  0.73748685  0.16022241  1
loop_
_geom_bond_atom_site_label_1
_geom_bond_atom_site_label_2
_geom_bond_distance
_geom_bond_site_symmetry_2
Cs0 S6 3.594108 1_554
Cs0 S5 3.594108 1_554
Cs0 S0 3.594108 1_555
Cs0 S7 3.594108 1_555
Cs0 S6 3.619020 1_654
Cs0 S5 3.619020 1_564
Cs0 S7 3.619020 1_655
Cs0 S0 3.619020 1_565
Cs1 S4 3.594108 1_555
Cs1 S1 3.594108 1_555
Cs1 S2 3.594108 1_555
Cs1 S3 3.594108 1_555
Cs1 S1 3.619020 1_455
Cs1 S4 3.619020 1_565
Cs1 S3 3.619020 1_455
Cs1 S2 3.619020 1_565
Cs2 S4 3.594108 1_555
Cs2 S1 3.594108 1_555
Cs2 S2 3.594108 1_555
Cs2 S3 3.594108 1_555
Cs2 S1 3.619020 1_545
Cs2 S4 3.619020 1_655
Cs2 S3 3.619020 1_545
Cs2 S2 3.619020 1_655
Cs3 S6 3.594108 1_554
Cs3 S5 3.594108 1_554
Cs3 S0 3.594108 1_555
Cs3 S7 3.594108 1_555
Cs3 S6 3.619020 1_544
Cs3 S5 3.619020 1_454
Cs3 S7 3.619020 1_545
Cs3 S0 3.619020 1_455
Cu0 S6 2.361920 1_555
Cu0 S2 2.361920 1_555
Cu0 S3 2.361920 1_455
Cu0 S5 2.361920 1_455
Cu1 S5 2.361920 1_555
Cu1 S2 2.361920 1_555
Cu1 S3 2.361920 1_545
Cu1 S6 2.361920 1_545
Cu2 S0 2.361920 1_555
Cu2 S4 2.361920 1_555
Cu2 S1 2.361920 1_545
Cu2 S7 2.361920 1_545
Cu3 S7 2.361920 1_555
Cu3 S4 2.361920 1_555
Cu3 S1 2.361920 1_455
Cu3 S0 2.361920 1_455
S0 Ti0 2.275488 1_555
S1 Ti0 2.275488 1_555
S2 Ti1 2.275488 1_555
S3 Ti1 2.275488 1_555
S4 Ti0 2.275488 1_555
S5 Ti1 2.275488 1_555
S6 Ti1 2.275488 1_555
S7 Ti0 2.275488 1_555
