# generated using pymatgen
data_SrHg2(SI)2
_symmetry_space_group_name_H-M   'P 1'
_cell_length_a   13.74074845
_cell_length_b   13.74074845
_cell_length_c   4.69939843
_cell_angle_alpha   90.00000000
_cell_angle_beta   90.00000000
_cell_angle_gamma   90.00000000
_symmetry_Int_Tables_number   1
_chemical_formula_structural   SrHg2(SI)2
_chemical_formula_sum   'Sr4 Hg8 S8 I8'
_cell_volume   887.28480724
_cell_formula_units_Z   4
loop_
 _symmetry_equiv_pos_site_id
 _symmetry_equiv_pos_as_xyz
  1  'x, y, z'
loop_
 _atom_site_type_symbol
 _atom_site_label
 _atom_site_symmetry_multiplicity
 _atom_site_fract_x
 _atom_site_fract_y
 _atom_site_fract_z
 _atom_site_occupancy
  Sr  Sr0  1  0.86708258  0.36708258  0.50000000  1
  Sr  Sr1  1  0.36708258  0.13291742  0.50000000  1
  Sr  Sr2  1  0.63291742  0.86708258  0.50000000  1
  Sr  Sr3  1  0.13291742  0.63291742  0.50000000  1
  Hg  Hg0  1  0.66577410  0.58713281  0.00000000  1
  Hg  Hg1  1  0.33422590  0.41286719  0.00000000  1
  Hg  Hg2  1  0.16577410  0.91286719  0.00000000  1
  Hg  Hg3  1  0.91286719  0.83422590  0.00000000  1
  Hg  Hg4  1  0.83422590  0.08713281  0.00000000  1
  Hg  Hg5  1  0.08713281  0.16577410  0.00000000  1
  Hg  Hg6  1  0.58713281  0.33422590  0.00000000  1
  Hg  Hg7  1  0.41286719  0.66577410  0.00000000  1
  S  S0  1  0.57325268  0.73617782  0.00000000  1
  S  S1  1  0.73617782  0.42674732  0.00000000  1
  S  S2  1  0.23617782  0.07325268  0.00000000  1
  S  S3  1  0.26382218  0.57325268  0.00000000  1
  S  S4  1  0.42674732  0.26382218  0.00000000  1
  S  S5  1  0.92674732  0.23617782  0.00000000  1
  S  S6  1  0.07325268  0.76382218  0.00000000  1
  S  S7  1  0.76382218  0.92674732  0.00000000  1
  I  I0  1  0.68831440  0.18831440  0.50000000  1
  I  I1  1  0.50000000  0.00000000  0.00000000  1
  I  I2  1  0.81168560  0.68831440  0.50000000  1
  I  I3  1  0.31168560  0.81168560  0.50000000  1
  I  I4  1  0.00000000  0.00000000  0.50000000  1
  I  I5  1  0.18831440  0.31168560  0.50000000  1
  I  I6  1  0.00000000  0.50000000  0.00000000  1
  I  I7  1  0.50000000  0.50000000  0.50000000  1
loop_
_geom_bond_atom_site_label_1
_geom_bond_atom_site_label_2
_geom_bond_distance
_geom_bond_site_symmetry_2
Hg0 S1 2.406797 1_555
Hg0 S0 2.410498 1_555
Hg0 I2 3.387301 1_554
Hg0 I2 3.387301 1_555
Hg0 I7 3.484708 1_555
Hg0 I7 3.484708 1_554
Hg1 S3 2.406797 1_555
Hg1 S4 2.410498 1_555
Hg1 I5 3.387301 1_554
Hg1 I5 3.387301 1_555
Hg1 I7 3.484708 1_555
Hg1 I7 3.484708 1_554
Hg2 S2 2.406797 1_565
Hg2 S6 2.410498 1_555
Hg2 I3 3.387301 1_555
Hg2 I3 3.387301 1_554
Hg2 I4 3.484708 1_565
Hg2 I4 3.484708 1_564
Hg3 S6 2.406797 1_655
Hg3 S7 2.410498 1_555
Hg3 I2 3.387301 1_554
Hg3 I2 3.387301 1_555
Hg3 I4 3.484708 1_664
Hg3 I4 3.484708 1_665
Hg4 S7 2.406797 1_545
Hg4 S5 2.410498 1_555
Hg4 I0 3.387301 1_555
Hg4 I0 3.387301 1_554
Hg4 I4 3.484708 1_655
Hg4 I4 3.484708 1_654
Hg5 S5 2.406797 1_455
Hg5 S2 2.410498 1_555
Hg5 I5 3.387301 1_555
Hg5 I5 3.387301 1_554
Hg5 I4 3.484708 1_555
Hg5 I4 3.484708 1_554
Hg6 S4 2.406797 1_555
Hg6 S1 2.410498 1_555
Hg6 I0 3.387301 1_555
Hg6 I0 3.387301 1_554
Hg6 I7 3.484708 1_554
Hg6 I7 3.484708 1_555
Hg7 S0 2.406797 1_555
Hg7 S3 2.410498 1_555
Hg7 I3 3.387301 1_555
Hg7 I3 3.387301 1_554
Hg7 I7 3.484708 1_555
Hg7 I7 3.484708 1_554
S0 Sr2 3.070610 1_555
S0 Sr2 3.070610 1_554
S1 Sr0 3.070610 1_555
S1 Sr0 3.070610 1_554
S2 Sr1 3.070610 1_554
S2 Sr1 3.070610 1_555
S3 Sr3 3.070610 1_554
S3 Sr3 3.070610 1_555
S4 Sr1 3.070610 1_555
S4 Sr1 3.070610 1_554
S5 Sr0 3.070610 1_555
S5 Sr0 3.070610 1_554
S6 Sr3 3.070610 1_554
S6 Sr3 3.070610 1_555
S7 Sr2 3.070610 1_555
S7 Sr2 3.070610 1_554
I0 Sr0 3.473886 1_555
I1 Sr2 3.491769 1_545
I1 Sr2 3.491769 1_544
I1 Sr1 3.491769 1_554
I1 Sr1 3.491769 1_555
I2 Sr2 3.473886 1_555
I3 Sr3 3.473886 1_555
I5 Sr1 3.473886 1_555
I6 Sr3 3.491769 1_554
I6 Sr3 3.491769 1_555
I6 Sr0 3.491769 1_455
I6 Sr0 3.491769 1_454
