# generated using pymatgen
data_Ti10GaSiAs4
_symmetry_space_group_name_H-M   'P 1'
_cell_length_a   5.05154679
_cell_length_b   7.46111655
_cell_length_c   7.46111541
_cell_angle_alpha   83.41585939
_cell_angle_beta   70.19487625
_cell_angle_gamma   70.19487593
_symmetry_Int_Tables_number   1
_chemical_formula_structural   Ti10GaSiAs4
_chemical_formula_sum   'Ti10 Ga1 Si1 As4'
_cell_volume   248.92766823
_cell_formula_units_Z   1
loop_
 _symmetry_equiv_pos_site_id
 _symmetry_equiv_pos_as_xyz
  1  'x, y, z'
loop_
 _atom_site_type_symbol
 _atom_site_label
 _atom_site_symmetry_multiplicity
 _atom_site_fract_x
 _atom_site_fract_y
 _atom_site_fract_z
 _atom_site_occupancy
  Ti  Ti0  1  0.71436319  0.85965579  0.70281147  1
  Ti  Ti1  1  0.27591659  0.14023678  0.29717393  1
  Ti  Ti2  1  0.78563681  0.29718853  0.14034421  1
  Ti  Ti3  1  0.22408341  0.70282607  0.85976322  1
  Ti  Ti4  1  0.57411540  0.70293166  0.14036279  1
  Ti  Ti5  1  0.41619783  0.29714140  0.85951895  1
  Ti  Ti6  1  0.08380217  0.14048105  0.70285860  1
  Ti  Ti7  1  0.92588460  0.85963721  0.29706834  1
  Ti  Ti8  1  0.75000000  0.50004283  0.49995717  1
  Ti  Ti9  1  0.25000000  0.49989256  0.50010744  1
  Ga  Ga0  1  0.75000000  0.00017580  0.99982420  1
  Si  Si0  1  0.25000000  0.99985356  0.00014644  1
  As  As0  1  0.16128497  0.49986609  0.17805392  1
  As  As1  1  0.83872419  0.50013206  0.82200747  1
  As  As2  1  0.33871503  0.82194608  0.50013391  1
  As  As3  1  0.66127581  0.17799253  0.49986794  1
loop_
_geom_bond_atom_site_label_1
_geom_bond_atom_site_label_2
_geom_bond_distance
_geom_bond_site_symmetry_2
Ga0 Si0 2.525775 1_646
Ga0 Si0 2.525775 1_546
Ga0 Ti0 2.640744 1_545
Ga0 Ti2 2.640744 1_556
Ga0 Ti7 2.641608 1_546
Ga0 Ti4 2.641609 1_546
Ga0 Ti6 2.642154 1_655
Ga0 Ti5 2.642154 1_555
Ga0 Ti1 2.642866 1_556
Ga0 Ti3 2.642866 1_645
Si0 Ti1 2.616757 1_565
Si0 Ti3 2.616757 1_554
Si0 Ti7 2.618075 1_455
Si0 Ti4 2.618075 1_555
Si0 Ti6 2.618587 1_564
Si0 Ti5 2.618587 1_564
Si0 Ti0 2.619399 1_554
Si0 Ti2 2.619399 1_465
As0 Ti8 2.588904 1_455
As0 Ti9 2.589314 1_555
As0 Ti3 2.650242 1_554
As0 Ti5 2.650472 1_554
As0 Ti1 2.659689 1_555
As0 Ti7 2.660081 1_455
As0 Ti4 2.893028 1_555
As0 Ti2 2.893220 1_455
As0 Ti2 2.928746 1_555
As0 Ti4 2.931666 1_455
As1 Ti9 2.588789 1_655
As1 Ti8 2.589391 1_555
As1 Ti4 2.649590 1_556
As1 Ti2 2.650433 1_556
As1 Ti0 2.659076 1_555
As1 Ti6 2.659635 1_655
As1 Ti3 2.886149 1_555
As1 Ti5 2.888594 1_655
As1 Ti5 2.935377 1_555
As1 Ti3 2.936023 1_655
As2 Ti8 2.588904 1_555
As2 Ti9 2.589315 1_555
As2 Ti1 2.650242 1_565
As2 Ti6 2.650472 1_565
As2 Ti3 2.659689 1_555
As2 Ti4 2.660080 1_555
As2 Ti7 2.893028 1_455
As2 Ti0 2.893220 1_555
As2 Ti0 2.928746 1_455
As2 Ti7 2.931666 1_555
As3 Ti9 2.588789 1_555
As3 Ti8 2.589391 1_555
As3 Ti7 2.649590 1_545
As3 Ti0 2.650433 1_545
As3 Ti2 2.659076 1_555
As3 Ti5 2.659635 1_555
As3 Ti1 2.886149 1_655
As3 Ti6 2.888594 1_555
As3 Ti6 2.935376 1_655
As3 Ti1 2.936023 1_555
