# generated using pymatgen
data_BaTePtO6
_symmetry_space_group_name_H-M   'P 1'
_cell_length_a   5.26255140
_cell_length_b   5.26238935
_cell_length_c   11.67333125
_cell_angle_alpha   90.00010927
_cell_angle_beta   89.99978146
_cell_angle_gamma   120.00100652
_symmetry_Int_Tables_number   1
_chemical_formula_structural   BaTePtO6
_chemical_formula_sum   'Ba2 Te2 Pt2 O12'
_cell_volume   279.96282312
_cell_formula_units_Z   2
loop_
 _symmetry_equiv_pos_site_id
 _symmetry_equiv_pos_as_xyz
  1  'x, y, z'
loop_
 _atom_site_type_symbol
 _atom_site_label
 _atom_site_symmetry_multiplicity
 _atom_site_fract_x
 _atom_site_fract_y
 _atom_site_fract_z
 _atom_site_occupancy
  Ba  Ba0  1  0.00000157  0.00000127  0.24999965  1
  Ba  Ba1  1  0.00000070  0.00000127  0.74999935  1
  Te  Te0  1  0.66666385  0.33332769  0.00000000  1
  Te  Te1  1  0.66667639  0.33335477  0.50000000  1
  Pt  Pt0  1  0.33333352  0.66666604  0.00000000  1
  Pt  Pt1  1  0.33331801  0.66663803  0.50000000  1
  O  O0  1  0.37901531  0.01128924  0.09334148  1
  O  O1  1  0.63227200  0.62100759  0.09334405  1
  O  O2  1  0.98871458  0.36773083  0.09335174  1
  O  O3  1  0.98871875  0.36772013  0.40666203  1
  O  O4  1  0.63227363  0.62098167  0.40665434  1
  O  O5  1  0.37899063  0.01127650  0.40665020  1
  O  O6  1  0.63228688  0.01127650  0.59334880  1
  O  O7  1  0.98870704  0.62098167  0.59334566  1
  O  O8  1  0.37900238  0.36772013  0.59333897  1
  O  O9  1  0.37901525  0.36773083  0.90664926  1
  O  O10  1  0.98873559  0.62100759  0.90665595  1
  O  O11  1  0.63227393  0.01128924  0.90665852  1
loop_
_geom_bond_atom_site_label_1
_geom_bond_atom_site_label_2
_geom_bond_distance
_geom_bond_site_symmetry_2
Ba0 O5 2.684573 1_555
Ba0 O2 2.684591 1_455
Ba0 O1 2.684604 1_445
Ba0 O4 2.684641 1_445
Ba0 O3 2.684651 1_455
Ba0 O0 2.684695 1_555
Ba1 O6 2.684573 1_455
Ba1 O9 2.684603 1_555
Ba1 O10 2.684610 1_445
Ba1 O7 2.684629 1_445
Ba1 O8 2.684636 1_555
Ba1 O11 2.684707 1_455
O0 Te0 1.945574 1_555
O0 Pt0 2.024344 1_545
O1 Te0 1.945740 1_555
O1 Pt0 2.024339 1_555
O2 Te0 1.945720 1_555
O2 Pt0 2.024398 1_655
O3 Te1 1.945655 1_555
O3 Pt1 2.024233 1_655
O4 Te1 1.945552 1_555
O4 Pt1 2.024412 1_555
O5 Te1 1.945799 1_555
O5 Pt1 2.024482 1_545
O6 Te1 1.945798 1_555
O6 Pt1 2.024481 1_545
O7 Te1 1.945555 1_555
O7 Pt1 2.024407 1_655
O8 Te1 1.945648 1_555
O8 Pt1 2.024247 1_555
O9 Te0 1.945718 1_556
O9 Pt0 2.024386 1_556
O10 Te0 1.945740 1_556
O10 Pt0 2.024343 1_656
O11 Te0 1.945574 1_556
O11 Pt0 2.024342 1_546
