# generated using pymatgen
data_Rb3Na2HfSb3
_symmetry_space_group_name_H-M   'P 1'
_cell_length_a   11.56952034
_cell_length_b   11.56951974
_cell_length_c   16.66991298
_cell_angle_alpha   90.00000000
_cell_angle_beta   90.00000000
_cell_angle_gamma   142.92416943
_symmetry_Int_Tables_number   1
_chemical_formula_structural   Rb3Na2HfSb3
_chemical_formula_sum   'Rb12 Na8 Hf4 Sb12'
_cell_volume   1345.20589036
_cell_formula_units_Z   4
loop_
 _symmetry_equiv_pos_site_id
 _symmetry_equiv_pos_as_xyz
  1  'x, y, z'
loop_
 _atom_site_type_symbol
 _atom_site_label
 _atom_site_symmetry_multiplicity
 _atom_site_fract_x
 _atom_site_fract_y
 _atom_site_fract_z
 _atom_site_occupancy
  Rb  Rb0  1  0.60505259  0.94488929  0.82649594  1
  Rb  Rb1  1  0.27968195  0.27968195  0.31929117  1
  Rb  Rb2  1  0.22031805  0.22031805  0.81929117  1
  Rb  Rb3  1  0.72031805  0.72031805  0.68070883  1
  Rb  Rb4  1  0.44488929  0.10505259  0.67350406  1
  Rb  Rb5  1  0.89494741  0.55511071  0.32649594  1
  Rb  Rb6  1  0.05511071  0.39494741  0.17350406  1
  Rb  Rb7  1  0.39494741  0.05511071  0.17350406  1
  Rb  Rb8  1  0.55511071  0.89494741  0.32649594  1
  Rb  Rb9  1  0.10505259  0.44488929  0.67350406  1
  Rb  Rb10  1  0.94488929  0.60505259  0.82649594  1
  Rb  Rb11  1  0.77968195  0.77968195  0.18070883  1
  Na  Na0  1  0.08116307  0.91883693  0.00000000  1
  Na  Na1  1  0.58116307  0.41883693  0.50000000  1
  Na  Na2  1  0.91883693  0.08116307  0.00000000  1
  Na  Na3  1  0.75408503  0.24591497  0.00000000  1
  Na  Na4  1  0.74591497  0.25408503  0.50000000  1
  Na  Na5  1  0.24591497  0.75408503  0.00000000  1
  Na  Na6  1  0.25408503  0.74591497  0.50000000  1
  Na  Na7  1  0.41883693  0.58116307  0.50000000  1
  Hf  Hf0  1  0.08556965  0.91443035  0.50000000  1
  Hf  Hf1  1  0.41443035  0.58556965  0.00000000  1
  Hf  Hf2  1  0.91443035  0.08556965  0.50000000  1
  Hf  Hf3  1  0.58556965  0.41443035  0.00000000  1
  Sb  Sb0  1  0.06113493  0.37604118  0.40111067  1
  Sb  Sb1  1  0.87604118  0.56113493  0.09888933  1
  Sb  Sb2  1  0.43886507  0.12395882  0.90111067  1
  Sb  Sb3  1  0.62395882  0.93886507  0.59888933  1
  Sb  Sb4  1  0.93886507  0.62395882  0.59888933  1
  Sb  Sb5  1  0.12395882  0.43886507  0.90111067  1
  Sb  Sb6  1  0.56113493  0.87604118  0.09888933  1
  Sb  Sb7  1  0.37604118  0.06113493  0.40111067  1
  Sb  Sb8  1  0.20721573  0.20721573  0.59190489  1
  Sb  Sb9  1  0.70721573  0.70721573  0.90809511  1
  Sb  Sb10  1  0.29278427  0.29278427  0.09190489  1
  Sb  Sb11  1  0.79278427  0.79278427  0.40809511  1
loop_
_geom_bond_atom_site_label_1
_geom_bond_atom_site_label_2
_geom_bond_distance
_geom_bond_site_symmetry_2
Rb0 Sb3 3.804320 1_555
Rb0 Sb5 3.847803 1_555
Rb0 Sb5 3.937355 1_665
Rb0 Sb2 3.986504 1_565
Rb0 Sb9 3.999350 1_555
Rb1 Sb7 3.740897 1_555
Rb1 Sb0 3.740897 1_555
Rb1 Sb10 3.791735 1_555
Rb1 Sb11 3.875783 1_445
Rb1 Sb11 4.054614 1_555
Rb2 Sb5 3.740897 1_555
Rb2 Sb2 3.740897 1_555
Rb2 Sb8 3.791735 1_555
Rb2 Sb9 3.875783 1_555
Rb2 Sb9 4.054614 1_445
Rb3 Sb3 3.740897 1_555
Rb3 Sb4 3.740897 1_555
Rb3 Sb9 3.791735 1_555
Rb3 Sb8 3.875783 1_665
Rb3 Sb8 4.054614 1_555
Rb4 Sb2 3.804320 1_555
Rb4 Sb4 3.847803 1_445
Rb4 Sb4 3.937355 1_555
Rb4 Sb3 3.986504 1_545
Rb4 Sb8 3.999350 1_555
Rb5 Sb1 3.804320 1_555
Rb5 Sb7 3.847803 1_665
Rb5 Sb7 3.937355 1_555
Rb5 Sb0 3.986504 1_655
Rb5 Sb11 3.999350 1_555
Rb6 Sb0 3.804320 1_555
Rb6 Sb6 3.847803 1_555
Rb6 Sb6 3.937355 1_445
Rb6 Sb1 3.986504 1_455
Rb6 Sb10 3.999350 1_555
Rb7 Sb7 3.804320 1_555
Rb7 Sb1 3.847803 1_555
Rb7 Sb1 3.937355 1_445
Rb7 Sb6 3.986504 1_545
Rb7 Sb10 3.999350 1_555
Rb8 Sb6 3.804320 1_555
Rb8 Sb0 3.847803 1_665
Rb8 Sb0 3.937355 1_555
Rb8 Sb7 3.986504 1_565
Rb8 Sb11 3.999350 1_555
Rb9 Sb5 3.804320 1_555
Rb9 Sb3 3.847803 1_445
Rb9 Sb3 3.937355 1_555
Rb9 Sb4 3.986504 1_455
Rb9 Sb8 3.999350 1_555
Rb10 Sb4 3.804320 1_555
Rb10 Sb2 3.847803 1_555
Rb10 Sb2 3.937355 1_665
Rb10 Sb5 3.986504 1_655
Rb10 Sb9 3.999350 1_555
Rb11 Sb1 3.740897 1_555
Rb11 Sb6 3.740897 1_555
Rb11 Sb11 3.791735 1_555
Rb11 Sb10 3.875783 1_555
Rb11 Sb10 4.054614 1_665
Na0 Sb1 3.131233 1_455
Na0 Sb2 3.131233 1_564
Na0 Sb10 3.187004 1_565
Na0 Sb9 3.187005 1_454
Na1 Sb7 3.131233 1_555
Na1 Sb4 3.131233 1_555
Na1 Sb11 3.187004 1_555
Na1 Sb8 3.187005 1_555
Na2 Sb5 3.131233 1_654
Na2 Sb6 3.131233 1_545
Na2 Sb9 3.187004 1_544
Na2 Sb10 3.187005 1_655
Na3 Sb1 3.130108 1_555
Na3 Sb2 3.130109 1_554
Na3 Sb6 3.281733 1_545
Na3 Sb5 3.281733 1_654
Na4 Sb3 3.130108 1_545
Na4 Sb0 3.130109 1_655
Na4 Sb4 3.281733 1_555
Na4 Sb7 3.281733 1_555
Na5 Sb5 3.130108 1_554
Na5 Sb6 3.130109 1_555
Na5 Sb2 3.281733 1_564
Na5 Sb1 3.281733 1_455
Na6 Sb7 3.130108 1_565
Na6 Sb4 3.130109 1_455
Na6 Sb0 3.281733 1_555
Na6 Sb3 3.281733 1_555
Na7 Sb3 3.131233 1_555
Na7 Sb0 3.131233 1_555
Na7 Sb8 3.187004 1_555
Na7 Sb11 3.187005 1_555
Hf0 Sb4 2.791118 1_455
Hf0 Sb7 2.791119 1_565
Hf0 Sb8 2.862712 1_565
Hf0 Sb11 2.862712 1_455
Hf1 Sb6 2.791118 1_555
Hf1 Sb5 2.791119 1_554
Hf1 Sb10 2.862712 1_555
Hf1 Sb9 2.862712 1_554
Hf2 Sb0 2.791118 1_655
Hf2 Sb3 2.791119 1_545
Hf2 Sb11 2.862712 1_545
Hf2 Sb8 2.862712 1_655
Hf3 Sb2 2.791118 1_554
Hf3 Sb1 2.791119 1_555
Hf3 Sb9 2.862712 1_554
Hf3 Sb10 2.862712 1_555
