# generated using pymatgen
data_Be(Nb2Bi)2
_symmetry_space_group_name_H-M   'P 1'
_cell_length_a   7.91742739
_cell_length_b   7.91742747
_cell_length_c   7.91742750
_cell_angle_alpha   95.41869203
_cell_angle_beta   95.41868913
_cell_angle_gamma   144.20685950
_symmetry_Int_Tables_number   1
_chemical_formula_structural   Be(Nb2Bi)2
_chemical_formula_sum   'Be2 Nb8 Bi4'
_cell_volume   276.22621854
_cell_formula_units_Z   2
loop_
 _symmetry_equiv_pos_site_id
 _symmetry_equiv_pos_as_xyz
  1  'x, y, z'
loop_
 _atom_site_type_symbol
 _atom_site_label
 _atom_site_symmetry_multiplicity
 _atom_site_fract_x
 _atom_site_fract_y
 _atom_site_fract_z
 _atom_site_occupancy
  Be  Be0  1  0.25000000  0.25000000  0.00000000  1
  Be  Be1  1  0.75000000  0.75000000  0.00000000  1
  Nb  Nb0  1  0.80763975  0.91985852  0.72749826  1
  Nb  Nb1  1  0.91985852  0.19236025  0.11221877  1
  Nb  Nb2  1  0.58014148  0.69236025  0.27250174  1
  Nb  Nb3  1  0.69236025  0.41985852  0.11221877  1
  Nb  Nb4  1  0.08014148  0.80763975  0.88778123  1
  Nb  Nb5  1  0.19236025  0.08014148  0.27250174  1
  Nb  Nb6  1  0.30763975  0.58014148  0.88778123  1
  Nb  Nb7  1  0.41985852  0.30763975  0.72749826  1
  Bi  Bi0  1  0.86074087  0.63925913  0.50000000  1
  Bi  Bi1  1  0.13925913  0.36074087  0.50000000  1
  Bi  Bi2  1  0.36074087  0.86074087  0.22148174  1
  Bi  Bi3  1  0.63925913  0.13925913  0.77851826  1
loop_
_geom_bond_atom_site_label_1
_geom_bond_atom_site_label_2
_geom_bond_distance
_geom_bond_site_symmetry_2
Be0 Be1 2.433023 1_555
Be0 Be1 2.433023 1_445
Be0 Nb1 2.531807 1_455
Be0 Nb7 2.531807 1_554
Be0 Nb3 2.531807 1_555
Be0 Nb4 2.531807 1_544
Be0 Nb2 2.531807 1_555
Be0 Nb6 2.531807 1_554
Be0 Nb5 2.531807 1_555
Be0 Nb0 2.531807 1_444
Be1 Nb4 2.531807 1_654
Be1 Nb2 2.531807 1_555
Be1 Nb6 2.531807 1_554
Be1 Nb1 2.531807 1_565
Be1 Nb7 2.531807 1_554
Be1 Nb3 2.531807 1_555
Be1 Nb0 2.531807 1_554
Be1 Nb5 2.531807 1_665
Bi0 Nb3 2.946849 1_555
Bi0 Nb4 2.946849 1_655
Bi0 Nb0 3.042893 1_555
Bi0 Nb2 3.042893 1_555
Bi0 Nb7 3.087920 1_555
Bi0 Nb5 3.087920 1_665
Bi0 Nb5 3.087920 1_555
Bi0 Nb7 3.087920 1_665
Bi1 Nb6 2.946849 1_555
Bi1 Nb1 2.946849 1_455
Bi1 Nb5 3.042893 1_555
Bi1 Nb7 3.042893 1_555
Bi1 Nb2 3.087920 1_555
Bi1 Nb0 3.087920 1_445
Bi1 Nb0 3.087920 1_555
Bi1 Nb2 3.087920 1_445
Bi2 Nb5 2.946849 1_565
Bi2 Nb2 2.946849 1_555
Bi2 Nb6 3.042893 1_554
Bi2 Nb4 3.042893 1_554
Bi2 Nb1 3.087920 1_565
Bi2 Nb3 3.087920 1_455
Bi2 Nb1 3.087920 1_455
Bi2 Nb3 3.087920 1_565
Bi3 Nb0 2.946849 1_545
Bi3 Nb7 2.946849 1_555
Bi3 Nb3 3.042893 1_556
Bi3 Nb1 3.042893 1_556
Bi3 Nb4 3.087920 1_545
Bi3 Nb6 3.087920 1_655
Bi3 Nb4 3.087920 1_655
Bi3 Nb6 3.087920 1_545
