# generated using pymatgen
data_Co5Si7(BMo6)2
_symmetry_space_group_name_H-M   'P 1'
_cell_length_a   7.71589432
_cell_length_b   7.71589422
_cell_length_c   7.71589343
_cell_angle_alpha   60.25036646
_cell_angle_beta   60.25036913
_cell_angle_gamma   60.25037142
_symmetry_Int_Tables_number   1
_chemical_formula_structural   Co5Si7(BMo6)2
_chemical_formula_sum   'Co5 Si7 B2 Mo12'
_cell_volume   326.66165489
_cell_formula_units_Z   1
loop_
 _symmetry_equiv_pos_site_id
 _symmetry_equiv_pos_as_xyz
  1  'x, y, z'
loop_
 _atom_site_type_symbol
 _atom_site_label
 _atom_site_symmetry_multiplicity
 _atom_site_fract_x
 _atom_site_fract_y
 _atom_site_fract_z
 _atom_site_occupancy
  Co  Co0  1  0.83019949  0.83019949  0.83019949  1
  Co  Co1  1  0.61775429  0.61775429  0.14111413  1
  Co  Co2  1  0.61775429  0.14111413  0.61775429  1
  Co  Co3  1  0.14111413  0.61775429  0.61775429  1
  Co  Co4  1  0.62723856  0.62723856  0.62723856  1
  Si  Si0  1  0.41522734  0.41522734  0.75632666  1
  Si  Si1  1  0.41522734  0.75632666  0.41522734  1
  Si  Si2  1  0.75632666  0.41522734  0.41522734  1
  Si  Si3  1  0.41400255  0.41400255  0.41400255  1
  Si  Si4  1  0.83616582  0.83616582  0.50380394  1
  Si  Si5  1  0.83616582  0.50380394  0.83616582  1
  Si  Si6  1  0.50380394  0.83616582  0.83616582  1
  B  B0  1  0.24918720  0.24918720  0.24918720  1
  B  B1  1  0.99902709  0.99902709  0.99902709  1
  Mo  Mo0  1  0.04895203  0.04895203  0.45401469  1
  Mo  Mo1  1  0.44724366  0.05241097  0.44724366  1
  Mo  Mo2  1  0.05241097  0.44724366  0.44724366  1
  Mo  Mo3  1  0.44724366  0.44724366  0.05241097  1
  Mo  Mo4  1  0.04895203  0.45401469  0.04895203  1
  Mo  Mo5  1  0.45401469  0.04895203  0.04895203  1
  Mo  Mo6  1  0.19461208  0.19461208  0.80490544  1
  Mo  Mo7  1  0.80314019  0.19157848  0.80314019  1
  Mo  Mo8  1  0.19157848  0.80314019  0.80314019  1
  Mo  Mo9  1  0.80314019  0.80314019  0.19157848  1
  Mo  Mo10  1  0.19461208  0.80490544  0.19461208  1
  Mo  Mo11  1  0.80490544  0.19461208  0.19461208  1
loop_
_geom_bond_atom_site_label_1
_geom_bond_atom_site_label_2
_geom_bond_distance
_geom_bond_site_symmetry_2
Co0 Co1 2.447547 1_556
Co0 Co2 2.447547 1_565
Co0 Co3 2.447547 1_655
Co0 Si4 2.473607 1_555
Co0 Si5 2.473607 1_555
Co0 Si6 2.473607 1_555
Co0 Mo9 2.598054 1_556
Co0 Mo7 2.598054 1_565
Co0 Mo8 2.598054 1_655
Co0 Mo0 2.688132 1_665
Co0 Mo4 2.688132 1_656
Co0 Mo5 2.688132 1_566
Co1 Si3 2.293289 1_555
Co1 Si2 2.316152 1_555
Co1 Si1 2.316152 1_555
Co1 Si6 2.407661 1_554
Co1 Si5 2.407661 1_554
Co1 Mo9 2.716597 1_555
Co1 Mo3 2.726780 1_555
Co1 Mo11 2.736872 1_555
Co1 Mo10 2.736872 1_555
Co1 Mo5 2.746514 1_565
Co1 Mo4 2.746514 1_655
Co2 Si3 2.293289 1_555
Co2 Si2 2.316152 1_555
Co2 Si0 2.316152 1_555
Co2 Si6 2.407661 1_545
Co2 Si4 2.407661 1_545
Co2 Mo7 2.716597 1_555
Co2 Mo1 2.726780 1_555
Co2 Mo11 2.736871 1_555
Co2 Mo6 2.736872 1_555
Co2 Mo5 2.746513 1_556
Co2 Mo0 2.746514 1_655
Co3 Si3 2.293290 1_555
Co3 Si1 2.316152 1_555
Co3 Si0 2.316152 1_555
Co3 Si5 2.407661 1_455
Co3 Si4 2.407661 1_455
Co3 Mo8 2.716597 1_555
Co3 Mo2 2.726780 1_555
Co3 Mo10 2.736871 1_555
Co3 Mo6 2.736872 1_555
Co3 Mo4 2.746513 1_556
Co3 Mo0 2.746514 1_565
Co4 Si5 2.374067 1_555
Co4 Si6 2.374067 1_555
Co4 Si4 2.374067 1_555
Co4 Si1 2.401217 1_555
Co4 Si2 2.401217 1_555
Co4 Si0 2.401217 1_555
Co4 Mo3 2.736943 1_556
Co4 Mo1 2.736943 1_565
Co4 Mo2 2.736943 1_655
Co4 Mo9 2.785044 1_555
Co4 Mo7 2.785045 1_555
Co4 Mo8 2.785045 1_555
Si0 Si1 2.641840 1_555
Si0 Si2 2.641840 1_555
Si0 Si3 2.650749 1_555
Si1 Si2 2.641840 1_555
Si1 Si3 2.650749 1_555
Si2 Si3 2.650749 1_555
Si4 Si5 2.574168 1_555
Si4 Si6 2.574168 1_555
Si5 Si6 2.574168 1_555
B0 Mo1 2.165237 1_555
B0 Mo3 2.165237 1_555
B0 Mo2 2.165237 1_555
B0 Mo4 2.189562 1_555
B0 Mo0 2.189562 1_555
B0 Mo5 2.189562 1_555
B1 Mo10 2.138217 1_656
B1 Mo6 2.138217 1_665
B1 Mo11 2.138217 1_566
B1 Mo7 2.141565 1_565
B1 Mo9 2.141565 1_556
B1 Mo8 2.141565 1_655
Mo0 Si2 2.583240 1_455
Mo0 Si1 2.583240 1_545
Mo0 Si4 2.638581 1_445
Mo1 Si1 2.553817 1_545
Mo1 Si3 2.561372 1_555
Mo1 Si6 2.754573 1_545
Mo1 Si4 2.754574 1_545
Mo2 Si2 2.553817 1_455
Mo2 Si3 2.561372 1_555
Mo2 Si5 2.754573 1_455
Mo2 Si4 2.754574 1_455
Mo3 Si0 2.553817 1_554
Mo3 Si3 2.561372 1_555
Mo3 Si6 2.754573 1_554
Mo3 Si5 2.754574 1_554
Mo4 Si2 2.583239 1_455
Mo4 Si0 2.583240 1_554
Mo4 Si5 2.638581 1_454
Mo5 Si1 2.583239 1_545
Mo5 Si0 2.583240 1_554
Mo5 Si6 2.638581 1_544
Mo6 Si6 2.599967 1_545
Mo6 Si5 2.599967 1_455
Mo6 Si3 2.745557 1_555
Mo6 Si0 2.746819 1_555
Mo7 Si5 2.686363 1_555
Mo7 Si2 2.719449 1_555
Mo7 Si0 2.719449 1_555
Mo8 Si6 2.686363 1_555
Mo8 Si1 2.719449 1_555
Mo8 Si0 2.719449 1_555
Mo9 Si4 2.686363 1_555
Mo9 Si2 2.719449 1_555
Mo9 Si1 2.719449 1_555
Mo10 Si6 2.599967 1_554
Mo10 Si4 2.599967 1_455
Mo10 Si3 2.745557 1_555
Mo10 Si1 2.746818 1_555
Mo11 Si5 2.599967 1_554
Mo11 Si4 2.599967 1_545
Mo11 Si3 2.745557 1_555
Mo11 Si2 2.746819 1_555
