# generated using pymatgen
data_Hf10Sn5Sb2
_symmetry_space_group_name_H-M   'P 1'
_cell_length_a   5.85001530
_cell_length_b   8.53248556
_cell_length_c   8.52291778
_cell_angle_alpha   120.03714212
_cell_angle_beta   89.93597457
_cell_angle_gamma   90.12787294
_symmetry_Int_Tables_number   1
_chemical_formula_structural   Hf10Sn5Sb2
_chemical_formula_sum   'Hf10 Sn5 Sb2'
_cell_volume   368.28815254
_cell_formula_units_Z   1
loop_
 _symmetry_equiv_pos_site_id
 _symmetry_equiv_pos_as_xyz
  1  'x, y, z'
loop_
 _atom_site_type_symbol
 _atom_site_label
 _atom_site_symmetry_multiplicity
 _atom_site_fract_x
 _atom_site_fract_y
 _atom_site_fract_z
 _atom_site_occupancy
  Hf  Hf0  1  0.49998815  0.33452581  0.66796832  1
  Hf  Hf1  1  0.49998815  0.66655748  0.33203168  1
  Hf  Hf2  1  0.00098502  0.66677312  0.33336439  1
  Hf  Hf3  1  0.00098502  0.33340973  0.66663561  1
  Hf  Hf4  1  0.77773992  0.26634485  0.00000000  1
  Hf  Hf5  1  0.77802887  0.73517793  0.73476292  1
  Hf  Hf6  1  0.77802887  0.00041401  0.26523708  1
  Hf  Hf7  1  0.22377524  0.73237111  1.00000000  1
  Hf  Hf8  1  0.22055138  0.26573096  0.26619364  1
  Hf  Hf9  1  0.22055138  0.99953832  0.73380636  1
  Sn  Sn0  1  0.74025341  0.39026240  0.39022784  1
  Sn  Sn1  1  0.74025341  0.00003456  0.60977216  1
  Sn  Sn2  1  0.25863880  0.38744818  0.00000000  1
  Sn  Sn3  1  0.25868705  0.61045425  0.61002230  1
  Sn  Sn4  1  0.25868705  0.00043195  0.38997770  1
  Sb  Sb0  1  0.74440172  0.61005478  1.00000000  1
  Sb  Sb1  1  0.49845255  0.00047457  0.00000000  1
loop_
_geom_bond_atom_site_label_1
_geom_bond_atom_site_label_2
_geom_bond_distance
_geom_bond_site_symmetry_2
Hf0 Sb0 2.985504 1_555
Hf0 Sn2 2.986670 1_556
Hf0 Sn0 2.986938 1_555
Hf0 Sn3 2.993325 1_555
Hf0 Sn4 2.993379 1_555
Hf0 Sn1 2.994379 1_555
Hf1 Sb0 2.985503 1_554
Hf1 Sn2 2.986671 1_555
Hf1 Sn1 2.986938 1_565
Hf1 Sn4 2.993325 1_565
Hf1 Sn3 2.993378 1_555
Hf1 Sn0 2.994380 1_555
Hf2 Sb0 3.031438 1_454
Hf2 Sn3 3.034639 1_555
Hf2 Sn4 3.036094 1_565
Hf2 Sn2 3.041718 1_555
Hf2 Sn0 3.042166 1_455
Hf2 Sn1 3.044180 1_465
Hf3 Sb0 3.031435 1_455
Hf3 Sn4 3.034643 1_555
Hf3 Sn3 3.036086 1_555
Hf3 Sn2 3.041721 1_556
Hf3 Sn1 3.042174 1_455
Hf3 Sn0 3.044176 1_455
Hf4 Sb1 2.792691 1_555
Hf4 Sb0 2.939612 1_554
Hf4 Sn0 2.950665 1_555
Hf4 Sn1 2.950665 1_554
Hf4 Sn2 2.994866 1_655
Hf4 Sn2 3.209920 1_555
Hf5 Sb1 2.791889 1_566
Hf5 Sn0 2.946123 1_555
Hf5 Sb0 2.950083 1_555
Hf5 Sn1 2.950192 1_565
Hf5 Sn3 3.007218 1_655
Hf5 Sn3 3.217659 1_555
Hf6 Sb1 2.791893 1_555
Hf6 Sn1 2.946119 1_555
Hf6 Sb0 2.950077 1_544
Hf6 Sn0 2.950200 1_555
Hf6 Sn4 3.007217 1_655
Hf6 Sn4 3.217657 1_555
Hf7 Sb1 2.792611 1_566
Hf7 Sn2 2.950562 1_556
Hf7 Sn3 2.951127 1_555
Hf7 Sn4 2.951127 1_566
Hf7 Sb0 2.990067 1_455
Hf7 Sb0 3.221730 1_555
Hf8 Sb1 2.789315 1_555
Hf8 Sn2 2.938049 1_555
Hf8 Sn3 2.942471 1_555
Hf8 Sn4 2.946283 1_555
Hf8 Sn0 3.003902 1_455
Hf8 Sn0 3.218387 1_555
Hf9 Sb1 2.789319 1_566
Hf9 Sn2 2.938043 1_566
Hf9 Sn4 2.942467 1_565
Hf9 Sn3 2.946291 1_555
Hf9 Sn1 3.003901 1_465
Hf9 Sn1 3.218385 1_565
