# generated using pymatgen
data_Rb2Ba(SnSe3)2
_symmetry_space_group_name_H-M   'P 1'
_cell_length_a   9.24406898
_cell_length_b   9.24406897
_cell_length_c   10.01758979
_cell_angle_alpha   89.86568384
_cell_angle_beta   89.86568142
_cell_angle_gamma   113.22422032
_symmetry_Int_Tables_number   1
_chemical_formula_structural   Rb2Ba(SnSe3)2
_chemical_formula_sum   'Rb4 Ba2 Sn4 Se12'
_cell_volume   786.65877271
_cell_formula_units_Z   2
loop_
 _symmetry_equiv_pos_site_id
 _symmetry_equiv_pos_as_xyz
  1  'x, y, z'
loop_
 _atom_site_type_symbol
 _atom_site_label
 _atom_site_symmetry_multiplicity
 _atom_site_fract_x
 _atom_site_fract_y
 _atom_site_fract_z
 _atom_site_occupancy
  Rb  Rb0  1  0.26973276  0.54350516  0.51714450  1
  Rb  Rb1  1  0.73026724  0.45649484  0.48285550  1
  Rb  Rb2  1  0.45649484  0.73026724  0.98285550  1
  Rb  Rb3  1  0.54350516  0.26973276  0.01714450  1
  Ba  Ba0  1  0.96172985  0.03827015  0.25000000  1
  Ba  Ba1  1  0.03827015  0.96172985  0.75000000  1
  Sn  Sn0  1  0.97461194  0.65942328  0.07444453  1
  Sn  Sn1  1  0.02538806  0.34057672  0.92555547  1
  Sn  Sn2  1  0.34057672  0.02538806  0.42555547  1
  Sn  Sn3  1  0.65942328  0.97461194  0.57444453  1
  Se  Se0  1  0.65319839  0.73104697  0.68091025  1
  Se  Se1  1  0.90712037  0.53354727  0.83544609  1
  Se  Se2  1  0.26895303  0.34680161  0.81908975  1
  Se  Se3  1  0.53354727  0.90712037  0.33544609  1
  Se  Se4  1  0.34680161  0.26895303  0.31908975  1
  Se  Se5  1  0.92412261  0.19073986  0.54489139  1
  Se  Se6  1  0.80926014  0.07587739  0.95510861  1
  Se  Se7  1  0.19073986  0.92412261  0.04489139  1
  Se  Se8  1  0.09287963  0.46645273  0.16455391  1
  Se  Se9  1  0.46645273  0.09287963  0.66455391  1
  Se  Se10  1  0.07587739  0.80926014  0.45510861  1
  Se  Se11  1  0.73104697  0.65319839  0.18091025  1
loop_
_geom_bond_atom_site_label_1
_geom_bond_atom_site_label_2
_geom_bond_distance
_geom_bond_site_symmetry_2
Rb0 Se4 3.511162 1_555
Rb0 Se2 3.524115 1_555
Rb0 Se5 3.562776 1_455
Rb0 Se10 3.619766 1_555
Rb0 Se0 3.668289 1_555
Rb0 Se3 3.747574 1_555
Rb0 Se8 3.844001 1_555
Rb1 Se0 3.511162 1_555
Rb1 Se11 3.524115 1_555
Rb1 Se10 3.562776 1_655
Rb1 Se5 3.619766 1_555
Rb1 Se4 3.668289 1_555
Rb1 Se9 3.747574 1_555
Rb1 Se1 3.844001 1_555
Rb2 Se11 3.511162 1_556
Rb2 Se0 3.524115 1_555
Rb2 Se6 3.562776 1_565
Rb2 Se7 3.619766 1_556
Rb2 Se2 3.668289 1_555
Rb2 Se8 3.747574 1_556
Rb2 Se3 3.844000 1_556
Rb3 Se2 3.511162 1_554
Rb3 Se4 3.524115 1_555
Rb3 Se7 3.562776 1_545
Rb3 Se6 3.619766 1_554
Rb3 Se11 3.668289 1_555
Rb3 Se1 3.747574 1_554
Rb3 Se9 3.844000 1_554
Ba0 Se5 3.351899 1_555
Ba0 Se6 3.351899 1_554
Ba0 Se7 3.401221 1_645
Ba0 Se10 3.401221 1_645
Ba0 Se11 3.424804 1_545
Ba0 Se4 3.424804 1_655
Ba0 Se3 3.750219 1_545
Ba0 Se8 3.750219 1_655
Ba1 Se10 3.351899 1_555
Ba1 Se7 3.351899 1_556
Ba1 Se6 3.401221 1_465
Ba1 Se5 3.401221 1_465
Ba1 Se2 3.424804 1_565
Ba1 Se0 3.424804 1_455
Ba1 Se9 3.750219 1_565
Ba1 Se1 3.750219 1_455
Se0 Sn3 2.469102 1_555
Se1 Sn1 2.593700 1_655
Se1 Sn0 2.631138 1_556
Se2 Sn1 2.469102 1_555
Se3 Sn2 2.593700 1_565
Se3 Sn3 2.631138 1_555
Se4 Sn2 2.469102 1_555
Se5 Sn3 2.490964 1_545
Se6 Sn1 2.490964 1_655
Se7 Sn0 2.490964 1_455
Se8 Sn0 2.593700 1_455
Se8 Sn1 2.631138 1_554
Se9 Sn3 2.593700 1_545
Se9 Sn2 2.631138 1_555
Se10 Sn2 2.490964 1_565
Se11 Sn0 2.469102 1_555
