# generated using pymatgen
data_HfSc5(TiP)6
_symmetry_space_group_name_H-M   'P 1'
_cell_length_a   7.73488896
_cell_length_b   7.75101060
_cell_length_c   7.73488920
_cell_angle_alpha   127.99456815
_cell_angle_beta   122.80562498
_cell_angle_gamma   80.88999408
_symmetry_Int_Tables_number   1
_chemical_formula_structural   HfSc5(TiP)6
_chemical_formula_sum   'Hf1 Sc5 Ti6 P6'
_cell_volume   296.22954610
_cell_formula_units_Z   1
loop_
 _symmetry_equiv_pos_site_id
 _symmetry_equiv_pos_as_xyz
  1  'x, y, z'
loop_
 _atom_site_type_symbol
 _atom_site_label
 _atom_site_symmetry_multiplicity
 _atom_site_fract_x
 _atom_site_fract_y
 _atom_site_fract_z
 _atom_site_occupancy
  Hf  Hf0  1  0.95118123  0.65591585  0.20473462  1
  Sc  Sc0  1  0.45169829  0.65664928  0.70495200  1
  Sc  Sc1  1  0.54806980  0.25236086  0.20429006  1
  Sc  Sc2  1  0.74972607  0.84872808  0.59900202  1
  Sc  Sc3  1  0.25028795  0.85027415  0.09998420  1
  Sc  Sc4  1  0.04869928  0.25453158  0.70583330  1
  Ti  Ti0  1  0.50085931  0.49649446  0.99751898  1
  Ti  Ti1  1  0.99897548  0.49649446  0.49563414  1
  Ti  Ti2  1  0.12033798  0.25326241  0.13058701  1
  Ti  Ti3  1  0.88072696  0.01166814  0.13412224  1
  Ti  Ti4  1  0.37754590  0.01166814  0.63094118  1
  Ti  Ti5  1  0.62267539  0.25326241  0.63292442  1
  P  P0  1  0.25169782  0.25673104  0.50503521  1
  P  P1  1  0.74937785  0.25205490  0.00267705  1
  P  P2  1  0.33106437  0.58694272  0.25357136  1
  P  P3  1  0.66838888  0.91780941  0.25249134  1
  P  P4  1  0.16531807  0.91780941  0.74941953  1
  P  P5  1  0.83337136  0.58694272  0.75587935  1
loop_
_geom_bond_atom_site_label_1
_geom_bond_atom_site_label_2
_geom_bond_distance
_geom_bond_site_symmetry_2
Hf0 P1 2.749281 1_555
Hf0 P4 2.754623 1_655
Hf0 P3 2.754629 1_555
Hf0 P5 2.758778 1_554
Hf0 P2 2.758786 1_655
P0 Ti0 2.478319 1_555
P0 Ti1 2.478331 1_455
P0 Ti5 2.479048 1_555
P0 Ti2 2.479059 1_555
P0 Ti4 2.483702 1_555
P0 Ti3 2.483712 1_455
P0 Sc0 2.723584 1_555
P0 Sc4 2.749841 1_555
P0 Sc3 2.750080 1_545
P1 Ti2 2.476494 1_655
P1 Ti5 2.476494 1_554
P1 Ti1 2.478518 1_555
P1 Ti0 2.478523 1_554
P1 Ti4 2.480152 1_554
P1 Ti3 2.480152 1_555
P1 Sc1 2.735306 1_555
P1 Sc2 2.740640 1_544
P2 Ti2 2.622330 1_555
P2 Ti4 2.625635 1_565
P2 Ti0 2.637498 1_554
P2 Sc0 2.767567 1_555
P2 Sc4 2.770216 1_554
P2 Sc3 2.782965 1_555
P2 Sc2 2.788041 1_555
P2 Sc1 2.790336 1_555
P3 Ti0 2.621922 1_554
P3 Ti3 2.625433 1_565
P3 Ti5 2.638370 1_565
P3 Sc0 2.769678 1_554
P3 Sc2 2.774737 1_555
P3 Sc4 2.783421 1_665
P3 Sc3 2.786784 1_555
P3 Sc1 2.789170 1_565
P4 Ti1 2.621922 1_455
P4 Ti4 2.625426 1_565
P4 Ti2 2.638374 1_566
P4 Sc0 2.769682 1_555
P4 Sc2 2.774739 1_455
P4 Sc4 2.783412 1_565
P4 Sc3 2.786781 1_556
P4 Sc1 2.789166 1_566
P5 Ti5 2.622325 1_555
P5 Ti3 2.625633 1_566
P5 Ti1 2.637512 1_555
P5 Sc0 2.767560 1_555
P5 Sc4 2.770221 1_655
P5 Sc3 2.782956 1_656
P5 Sc2 2.788047 1_555
P5 Sc1 2.790345 1_555
