# generated using pymatgen
data_Rb2TiWN4
_symmetry_space_group_name_H-M   'P 1'
_cell_length_a   5.97288607
_cell_length_b   5.97288240
_cell_length_c   5.97288508
_cell_angle_alpha   120.41977491
_cell_angle_beta   120.41983554
_cell_angle_gamma   89.27442135
_symmetry_Int_Tables_number   1
_chemical_formula_structural   Rb2TiWN4
_chemical_formula_sum   'Rb2 Ti1 W1 N4'
_cell_volume   149.70454798
_cell_formula_units_Z   1
loop_
 _symmetry_equiv_pos_site_id
 _symmetry_equiv_pos_as_xyz
  1  'x, y, z'
loop_
 _atom_site_type_symbol
 _atom_site_label
 _atom_site_symmetry_multiplicity
 _atom_site_fract_x
 _atom_site_fract_y
 _atom_site_fract_z
 _atom_site_occupancy
  Rb  Rb0  1  0.25000000  0.75000000  0.49999900  1
  Rb  Rb1  1  0.50000000  0.50000000  0.00000000  1
  Ti  Ti0  1  0.00000000  0.00000000  0.00000000  1
  W  W0  1  0.75000000  0.25000000  0.50000000  1
  N  N0  1  0.79499730  0.12819707  0.17471070  1
  N  N1  1  0.95348737  0.62028660  0.82529030  1
  N  N2  1  0.37971340  0.20500270  0.33319977  1
  N  N3  1  0.87180293  0.04651363  0.66680023  1
loop_
_geom_bond_atom_site_label_1
_geom_bond_atom_site_label_2
_geom_bond_distance
_geom_bond_site_symmetry_2
N0 W0 1.862493 1_555
N0 Ti0 1.906722 1_655
N0 Rb1 3.083972 1_555
N0 Rb0 3.102067 1_544
N1 W0 1.862493 1_555
N1 Ti0 1.906722 1_666
N1 Rb1 3.083968 1_656
N1 Rb0 3.102055 1_656
N2 W0 1.862492 1_555
N2 Ti0 1.906721 1_555
N2 Rb1 3.083973 1_556
N2 Rb0 3.102066 1_555
N3 W0 1.862492 1_555
N3 Ti0 1.906721 1_656
N3 Rb1 3.083972 1_545
N3 Rb0 3.102069 1_645
