# generated using pymatgen
data_K13Rb3(ZrSe4)4
_symmetry_space_group_name_H-M   'P 1'
_cell_length_a   8.52393036
_cell_length_b   10.19828539
_cell_length_c   15.16708021
_cell_angle_alpha   90.24310728
_cell_angle_beta   90.31336887
_cell_angle_gamma   90.27064576
_symmetry_Int_Tables_number   1
_chemical_formula_structural   K13Rb3(ZrSe4)4
_chemical_formula_sum   'K13 Rb3 Zr4 Se16'
_cell_volume   1318.41986857
_cell_formula_units_Z   1
loop_
 _symmetry_equiv_pos_site_id
 _symmetry_equiv_pos_as_xyz
  1  'x, y, z'
loop_
 _atom_site_type_symbol
 _atom_site_label
 _atom_site_symmetry_multiplicity
 _atom_site_fract_x
 _atom_site_fract_y
 _atom_site_fract_z
 _atom_site_occupancy
  K  K0  1  0.50000000  0.50000000  0.50000000  1
  K  K1  1  0.98154587  0.75131074  0.43163864  1
  K  K2  1  0.47855222  0.25062386  0.06838775  1
  K  K3  1  0.01845413  0.24868926  0.56836136  1
  K  K4  1  0.52144778  0.74937614  0.93161225  1
  K  K5  1  0.84183381  0.05897742  0.27440036  1
  K  K6  1  0.34201002  0.94605205  0.22811229  1
  K  K7  1  0.15619476  0.55352047  0.72249275  1
  K  K8  1  0.65888001  0.44142985  0.77265260  1
  K  K9  1  0.15816619  0.94102258  0.72559964  1
  K  K10  1  0.65798998  0.05394795  0.77188771  1
  K  K11  1  0.84380524  0.44647953  0.27750725  1
  K  K12  1  0.34111999  0.55857015  0.22734740  1
  Rb  Rb0  1  0.00000000  0.00000000  0.00000000  1
  Rb  Rb1  1  0.50000000  0.00000000  0.50000000  1
  Rb  Rb2  1  0.00000000  0.50000000  0.00000000  1
  Zr  Zr0  1  0.75621764  0.74631917  0.66911658  1
  Zr  Zr1  1  0.24378236  0.25368083  0.33088342  1
  Zr  Zr2  1  0.73902579  0.75069113  0.17300929  1
  Zr  Zr3  1  0.26097421  0.24930887  0.82699071  1
  Se  Se0  1  0.96371914  0.24826444  0.81870216  1
  Se  Se1  1  0.54073151  0.25233957  0.32499783  1
  Se  Se2  1  0.45926849  0.74766043  0.67500217  1
  Se  Se3  1  0.03628086  0.75173556  0.18129784  1
  Se  Se4  1  0.64492763  0.54564349  0.09615275  1
  Se  Se5  1  0.15458340  0.45762681  0.40960116  1
  Se  Se6  1  0.35533557  0.04598400  0.90419241  1
  Se  Se7  1  0.85475137  0.95031318  0.59428909  1
  Se  Se8  1  0.35507237  0.45435651  0.90384725  1
  Se  Se9  1  0.84541660  0.54237319  0.59039884  1
  Se  Se10  1  0.64466443  0.95401600  0.09580759  1
  Se  Se11  1  0.14524863  0.04968682  0.40571091  1
  Se  Se12  1  0.62537537  0.75146230  0.32796101  1
  Se  Se13  1  0.12898718  0.25524944  0.17518281  1
  Se  Se14  1  0.37462463  0.24853770  0.67203899  1
  Se  Se15  1  0.87101282  0.74475056  0.82481719  1
loop_
_geom_bond_atom_site_label_1
_geom_bond_atom_site_label_2
_geom_bond_distance
_geom_bond_site_symmetry_2
K0 Se5 3.267163 1_555
K0 Se9 3.267163 1_555
K0 Se1 3.675105 1_555
K0 Se2 3.675105 1_555
K0 Se14 3.819512 1_555
K0 Se12 3.819512 1_555
K1 Se5 3.360999 1_655
K1 Se11 3.367075 1_665
K1 Se7 3.373435 1_555
K1 Se12 3.411406 1_555
K1 Se9 3.425729 1_555
K1 Se3 3.828046 1_655
K2 Se4 3.344129 1_555
K2 Se10 3.372310 1_545
K2 Se13 3.399672 1_555
K2 Se6 3.401039 1_554
K2 Se8 3.418875 1_554
K2 Se1 3.925029 1_555
K3 Se9 3.360999 1_455
K3 Se7 3.367075 1_445
K3 Se11 3.373435 1_555
K3 Se14 3.411406 1_555
K3 Se5 3.425729 1_555
K3 Se0 3.828046 1_455
K4 Se8 3.344129 1_555
K4 Se6 3.372310 1_565
K4 Se15 3.399672 1_555
K4 Se10 3.401039 1_556
K4 Se4 3.418875 1_556
K4 Se2 3.925029 1_555
K5 Se11 3.257590 1_655
K5 Se1 3.334874 1_555
K5 Se10 3.349067 1_545
K5 Se13 3.504537 1_655
K5 Se12 3.725973 1_545
K5 Se3 3.820484 1_645
K6 Se10 3.277922 1_555
K6 Se3 3.337905 1_555
K6 Se11 3.350781 1_565
K6 Se12 3.478000 1_555
K6 Se13 3.734219 1_565
K6 Se1 3.830060 1_565
K7 Se9 3.313834 1_455
K7 Se2 3.331184 1_555
K7 Se8 3.383962 1_555
K7 Se15 3.490193 1_455
K7 Se14 3.711638 1_555
K7 Se0 3.811672 1_455
K8 Se8 3.277257 1_555
K8 Se0 3.340741 1_555
K8 Se9 3.359438 1_555
K8 Se14 3.458081 1_555
K8 Se15 3.657204 1_555
K8 Se2 3.860541 1_555
K9 Se7 3.257590 1_455
K9 Se2 3.334874 1_555
K9 Se6 3.349067 1_565
K9 Se15 3.504537 1_455
K9 Se14 3.725973 1_565
K9 Se0 3.820484 1_465
K10 Se6 3.277922 1_555
K10 Se0 3.337905 1_555
K10 Se7 3.350781 1_545
K10 Se14 3.478000 1_555
K10 Se15 3.734219 1_545
K10 Se2 3.830060 1_545
K11 Se5 3.313834 1_655
K11 Se1 3.331184 1_555
K11 Se4 3.383962 1_555
K11 Se13 3.490193 1_655
K11 Se12 3.711638 1_555
K11 Se3 3.811672 1_655
K12 Se4 3.277257 1_555
K12 Se3 3.340741 1_555
K12 Se5 3.359438 1_555
K12 Se12 3.458081 1_555
K12 Se13 3.657204 1_555
K12 Se1 3.860541 1_555
Rb0 Se6 3.397934 1_554
Rb0 Se10 3.397934 1_445
Rb0 Se0 3.758239 1_454
Rb0 Se3 3.758239 1_545
Rb0 Se13 3.863553 1_555
Rb0 Se15 3.863553 1_444
Rb1 Se7 3.379212 1_545
Rb1 Se11 3.379212 1_555
Rb1 Se1 3.721270 1_555
Rb1 Se2 3.721270 1_545
Rb1 Se14 3.791459 1_555
Rb1 Se12 3.791459 1_545
Rb2 Se4 3.399955 1_455
Rb2 Se8 3.399955 1_554
Rb2 Se3 3.764437 1_555
Rb2 Se0 3.764437 1_454
Rb2 Se13 3.814316 1_555
Rb2 Se15 3.814316 1_454
Se0 Zr3 2.536181 1_655
Se1 Zr1 2.533335 1_555
Se2 Zr0 2.533335 1_555
Se3 Zr2 2.536181 1_455
Se4 Zr2 2.515603 1_555
Se5 Zr1 2.516608 1_555
Se6 Zr3 2.518678 1_555
Se7 Zr0 2.517028 1_555
Se8 Zr3 2.515603 1_555
Se9 Zr0 2.516608 1_555
Se10 Zr2 2.518678 1_555
Se11 Zr1 2.517028 1_555
Se12 Zr2 2.546886 1_555
Se13 Zr1 2.551414 1_555
Se14 Zr3 2.546886 1_555
Se15 Zr0 2.551414 1_555
