# generated using pymatgen
data_K2BaOsO6
_symmetry_space_group_name_H-M   'P 1'
_cell_length_a   6.20790449
_cell_length_b   6.10687129
_cell_length_c   8.93930018
_cell_angle_alpha   89.90842203
_cell_angle_beta   88.43305120
_cell_angle_gamma   89.84459584
_symmetry_Int_Tables_number   1
_chemical_formula_structural   K2BaOsO6
_chemical_formula_sum   'K4 Ba2 Os2 O12'
_cell_volume   338.76831135
_cell_formula_units_Z   2
loop_
 _symmetry_equiv_pos_site_id
 _symmetry_equiv_pos_as_xyz
  1  'x, y, z'
loop_
 _atom_site_type_symbol
 _atom_site_label
 _atom_site_symmetry_multiplicity
 _atom_site_fract_x
 _atom_site_fract_y
 _atom_site_fract_z
 _atom_site_occupancy
  K  K0  1  0.46382542  0.05102663  0.25173470  1
  K  K1  1  0.93704420  0.55012389  0.24860388  1
  K  K2  1  0.43624932  0.05218109  0.74848936  1
  K  K3  1  0.96355764  0.54802345  0.75131615  1
  Ba  Ba0  1  0.44982191  0.55091366  0.99986555  1
  Ba  Ba1  1  0.95015534  0.04916865  0.50012561  1
  Os  Os0  1  0.94962211  0.05038078  0.99997862  1
  Os  Os1  1  0.45029831  0.54950162  0.49999900  1
  O  O0  1  0.09220279  0.78253139  0.00064929  1
  O  O1  1  0.21129614  0.19483299  0.01704895  1
  O  O2  1  0.91959981  0.03824945  0.20832205  1
  O  O3  1  0.48103652  0.56066499  0.29169587  1
  O  O4  1  0.18856738  0.40505271  0.48303843  1
  O  O5  1  0.30729215  0.81700780  0.49880591  1
  O  O6  1  0.59344992  0.28185584  0.50119767  1
  O  O7  1  0.71216958  0.69349833  0.51709920  1
  O  O8  1  0.41942032  0.53776663  0.70830275  1
  O  O9  1  0.98056595  0.06216704  0.79164436  1
  O  O10  1  0.68733570  0.90704895  0.98298870  1
  O  O11  1  0.80648448  0.31801710  0.99907194  1
loop_
_geom_bond_atom_site_label_1
_geom_bond_atom_site_label_2
_geom_bond_distance
_geom_bond_site_symmetry_2
K0 O6 2.778846 1_555
K0 O5 2.782957 1_545
K0 O1 2.792251 1_555
K0 O2 2.846237 1_555
K0 O10 2.878835 1_544
K0 O3 3.017191 1_545
K0 O3 3.135739 1_555
K1 O0 2.781328 1_655
K1 O11 2.785147 1_554
K1 O4 2.789326 1_655
K1 O3 2.847053 1_555
K1 O7 2.879765 1_555
K1 O2 3.004035 1_565
K1 O2 3.149688 1_555
K2 O6 2.772359 1_555
K2 O10 2.788317 1_545
K2 O5 2.792756 1_545
K2 O9 2.845053 1_455
K2 O1 2.879124 1_556
K2 O8 2.988408 1_555
K2 O8 3.164838 1_545
K3 O11 2.776386 1_555
K3 O0 2.787529 1_656
K3 O7 2.788128 1_555
K3 O8 2.846051 1_655
K3 O4 2.877807 1_655
K3 O9 2.990240 1_555
K3 O9 3.163386 1_565
Ba0 O8 2.619708 1_555
Ba0 O3 2.622008 1_556
Ba0 O11 2.628184 1_555
Ba0 O0 2.628989 1_556
Ba0 O10 2.632689 1_555
Ba0 O1 2.636054 1_556
Ba1 O9 2.619292 1_555
Ba1 O2 2.621543 1_555
Ba1 O6 2.627671 1_555
Ba1 O5 2.628156 1_645
Ba1 O7 2.632021 1_545
Ba1 O4 2.634629 1_655
O0 Os0 1.857815 1_464
O1 Os0 1.860663 1_454
O2 Os0 1.868040 1_554
O3 Os1 1.867793 1_555
O4 Os1 1.860859 1_555
O5 Os1 1.857303 1_555
O6 Os1 1.858482 1_555
O7 Os1 1.860441 1_555
O8 Os1 1.867990 1_555
O9 Os0 1.868303 1_555
O10 Os0 1.860674 1_565
O11 Os0 1.858347 1_555
