# generated using pymatgen
data_GeRu(SeF6)4
_symmetry_space_group_name_H-M   'P 1'
_cell_length_a   6.10786797
_cell_length_b   7.63666712
_cell_length_c   9.70311897
_cell_angle_alpha   89.33113719
_cell_angle_beta   90.00000000
_cell_angle_gamma   90.00000000
_symmetry_Int_Tables_number   1
_chemical_formula_structural   GeRu(SeF6)4
_chemical_formula_sum   'Ge1 Ru1 Se4 F24'
_cell_volume   452.55906001
_cell_formula_units_Z   1
loop_
 _symmetry_equiv_pos_site_id
 _symmetry_equiv_pos_as_xyz
  1  'x, y, z'
loop_
 _atom_site_type_symbol
 _atom_site_label
 _atom_site_symmetry_multiplicity
 _atom_site_fract_x
 _atom_site_fract_y
 _atom_site_fract_z
 _atom_site_occupancy
  Ge  Ge0  1  0.50000000  0.00000000  0.50000000  1
  Ru  Ru0  1  0.00000000  0.50000000  0.00000000  1
  Se  Se0  1  0.50000000  0.59610109  0.24083356  1
  Se  Se1  1  0.50000000  0.40389891  0.75916644  1
  Se  Se2  1  0.00000000  0.09169586  0.26488092  1
  Se  Se3  1  0.00000000  0.90830414  0.73511908  1
  F  F0  1  0.22382997  0.35736316  0.91960269  1
  F  F1  1  0.22382997  0.64263684  0.08039731  1
  F  F2  1  0.29105145  0.86673219  0.58129396  1
  F  F3  1  0.29105145  0.13326781  0.41870604  1
  F  F4  1  0.77617003  0.64263684  0.08039731  1
  F  F5  1  0.77617003  0.35736316  0.91960269  1
  F  F6  1  0.79818633  0.95362866  0.85162047  1
  F  F7  1  0.79818633  0.04637134  0.14837953  1
  F  F8  1  0.70286033  0.45654539  0.64459453  1
  F  F9  1  0.70286033  0.54345461  0.35540547  1
  F  F10  1  0.20181367  0.04637134  0.14837953  1
  F  F11  1  0.20181367  0.95362866  0.85162047  1
  F  F12  1  0.29713967  0.54345461  0.35540547  1
  F  F13  1  0.29713967  0.45654539  0.64459453  1
  F  F14  1  0.00000000  0.64101546  0.83192701  1
  F  F15  1  0.00000000  0.35898454  0.16807299  1
  F  F16  1  0.50000000  0.14138775  0.64862624  1
  F  F17  1  0.50000000  0.85861225  0.35137376  1
  F  F18  1  0.50000000  0.61157413  0.82508588  1
  F  F19  1  0.50000000  0.38842587  0.17491412  1
  F  F20  1  0.00000000  0.12101849  0.67445479  1
  F  F21  1  0.00000000  0.87898151  0.32554521  1
  F  F22  1  0.70894855  0.86673219  0.58129396  1
  F  F23  1  0.70894855  0.13326781  0.41870604  1
loop_
_geom_bond_atom_site_label_1
_geom_bond_atom_site_label_2
_geom_bond_distance
_geom_bond_site_symmetry_2
F0 Ru0 1.919359 1_556
F0 Se1 2.319940 1_555
F1 Ru0 1.919359 1_555
F1 Se0 2.319940 1_555
F2 Ge0 1.807759 1_565
F2 Se3 2.345184 1_555
F3 Ge0 1.807759 1_555
F3 Se2 2.345184 1_555
F4 Ru0 1.919359 1_655
F4 Se0 2.319940 1_555
F5 Ru0 1.919359 1_656
F5 Se1 2.319940 1_555
F6 Se3 1.710624 1_655
F7 Se2 1.710624 1_655
F8 Se1 1.709480 1_555
F9 Se0 1.709480 1_555
F10 Se2 1.710624 1_555
F11 Se3 1.710624 1_555
F12 Se0 1.709480 1_555
F13 Se1 1.709480 1_555
F14 Ru0 1.943785 1_556
F14 Se3 2.236977 1_555
F15 Ru0 1.943785 1_555
F15 Se2 2.236977 1_555
F16 Ge0 1.811611 1_555
F16 Se1 2.284623 1_555
F17 Ge0 1.811611 1_565
F17 Se0 2.284623 1_555
F18 Se1 1.716983 1_555
F19 Se0 1.716983 1_555
F20 Se3 1.721317 1_545
F21 Se2 1.721317 1_565
F22 Ge0 1.807759 1_565
F22 Se3 2.345184 1_655
F23 Ge0 1.807759 1_555
F23 Se2 2.345184 1_655
