# generated using pymatgen
data_Cs4LiAgBi2
_symmetry_space_group_name_H-M   'P 1'
_cell_length_a   7.39867989
_cell_length_b   7.39867892
_cell_length_c   6.91006669
_cell_angle_alpha   89.96161603
_cell_angle_beta   90.03838614
_cell_angle_gamma   73.16662346
_symmetry_Int_Tables_number   1
_chemical_formula_structural   Cs4LiAgBi2
_chemical_formula_sum   'Cs4 Li1 Ag1 Bi2'
_cell_volume   362.05189451
_cell_formula_units_Z   1
loop_
 _symmetry_equiv_pos_site_id
 _symmetry_equiv_pos_as_xyz
  1  'x, y, z'
loop_
 _atom_site_type_symbol
 _atom_site_label
 _atom_site_symmetry_multiplicity
 _atom_site_fract_x
 _atom_site_fract_y
 _atom_site_fract_z
 _atom_site_occupancy
  Cs  Cs0  1  0.01540017  0.31895336  0.25682428  1
  Cs  Cs1  1  0.68104664  0.98459983  0.25682428  1
  Cs  Cs2  1  0.31895336  0.01540017  0.74317672  1
  Cs  Cs3  1  0.98459983  0.68104664  0.74317672  1
  Li  Li0  1  0.50000000  0.50000000  0.00000000  1
  Ag  Ag0  1  0.50000000  0.50000000  0.50000000  1
  Bi  Bi0  1  0.25446829  0.74553271  0.24528677  1
  Bi  Bi1  1  0.74553271  0.25446829  0.75471423  1
loop_
_geom_bond_atom_site_label_1
_geom_bond_atom_site_label_2
_geom_bond_distance
_geom_bond_site_symmetry_2
Cs0 Cs1 3.972838 1_445
Cs0 Li0 4.063767 1_455
Cs0 Cs3 4.264156 1_455
Cs0 Cs2 4.294291 1_555
Cs0 Cs3 4.411284 1_454
Cs0 Cs2 4.448127 1_554
Cs1 Li0 4.063767 1_565
Cs1 Cs2 4.264157 1_565
Cs1 Cs3 4.294291 1_555
Cs1 Cs2 4.411285 1_564
Cs1 Cs3 4.448127 1_554
Cs2 Cs3 3.972838 1_445
Cs2 Li0 4.063764 1_546
Cs3 Li0 4.063764 1_656
Ag0 Bi0 2.788936 1_555
Ag0 Bi1 2.788941 1_555
Ag0 Cs1 4.026438 1_545
Ag0 Cs0 4.026438 1_655
Ag0 Cs2 4.026441 1_565
Ag0 Cs3 4.026441 1_455
Bi0 Li0 2.751351 1_555
Bi0 Cs1 4.040931 1_555
Bi0 Cs0 4.040942 1_555
Bi0 Cs2 4.075506 1_565
Bi0 Cs3 4.075512 1_455
Bi0 Cs0 4.097392 1_565
Bi0 Cs1 4.097398 1_455
Bi0 Cs2 4.098437 1_564
Bi0 Cs3 4.098442 1_454
Bi1 Li0 2.751347 1_556
Bi1 Cs3 4.040930 1_555
Bi1 Cs2 4.040942 1_555
Bi1 Cs0 4.075506 1_655
Bi1 Cs1 4.075511 1_545
Bi1 Cs2 4.097393 1_655
Bi1 Cs3 4.097398 1_545
Bi1 Cs0 4.098437 1_656
Bi1 Cs1 4.098442 1_546
