# generated using pymatgen
data_Rb3Cu(PAu)2
_symmetry_space_group_name_H-M   'P 1'
_cell_length_a   7.68976951
_cell_length_b   7.68976845
_cell_length_c   7.44120227
_cell_angle_alpha   47.44488226
_cell_angle_beta   47.44489877
_cell_angle_gamma   49.81294169
_symmetry_Int_Tables_number   1
_chemical_formula_structural   Rb3Cu(PAu)2
_chemical_formula_sum   'Rb3 Cu1 P2 Au2'
_cell_volume   223.98902268
_cell_formula_units_Z   1
loop_
 _symmetry_equiv_pos_site_id
 _symmetry_equiv_pos_as_xyz
  1  'x, y, z'
loop_
 _atom_site_type_symbol
 _atom_site_label
 _atom_site_symmetry_multiplicity
 _atom_site_fract_x
 _atom_site_fract_y
 _atom_site_fract_z
 _atom_site_occupancy
  Rb  Rb0  1  0.91406718  0.91406718  0.90244988  1
  Rb  Rb1  1  0.50000000  0.50000000  0.50000000  1
  Rb  Rb2  1  0.08593282  0.08593282  0.09755012  1
  Cu  Cu0  1  0.50000000  0.50000000  0.00000000  1
  P  P0  1  0.27124763  0.27124763  0.23335161  1
  P  P1  1  0.72875237  0.72875237  0.76664839  1
  Au  Au0  1  0.00000000  0.50000000  0.50000000  1
  Au  Au1  1  0.50000000  0.00000000  0.50000000  1
loop_
_geom_bond_atom_site_label_1
_geom_bond_atom_site_label_2
_geom_bond_distance
_geom_bond_site_symmetry_2
Cu0 P1 2.221298 1_554
Cu0 P0 2.221298 1_555
Cu0 Rb1 3.720601 1_554
Cu0 Rb1 3.720601 1_555
P0 Rb2 3.405716 1_555
P0 Rb0 3.552373 1_445
P0 Rb0 3.633732 1_454
P0 Rb0 3.633733 1_544
P0 Rb1 3.740758 1_554
P1 Rb0 3.405716 1_555
P1 Rb2 3.552373 1_665
P1 Rb2 3.633732 1_656
P1 Rb2 3.633733 1_566
P1 Rb1 3.740758 1_556
Au0 P1 2.402025 1_455
Au0 P0 2.402025 1_555
Au0 Rb1 3.844885 1_455
Au0 Rb1 3.844885 1_555
Au1 P1 2.402025 1_545
Au1 P0 2.402025 1_555
Au1 Rb1 3.844884 1_545
Au1 Rb1 3.844884 1_555
