# generated using pymatgen
data_Cs3Na2SiAs3
_symmetry_space_group_name_H-M   'P 1'
_cell_length_a   10.80212981
_cell_length_b   10.80212828
_cell_length_c   16.31810767
_cell_angle_alpha   90.00000000
_cell_angle_beta   90.00000000
_cell_angle_gamma   142.54337299
_symmetry_Int_Tables_number   1
_chemical_formula_structural   Cs3Na2SiAs3
_chemical_formula_sum   'Cs12 Na8 Si4 As12'
_cell_volume   1157.99546389
_cell_formula_units_Z   4
loop_
 _symmetry_equiv_pos_site_id
 _symmetry_equiv_pos_as_xyz
  1  'x, y, z'
loop_
 _atom_site_type_symbol
 _atom_site_label
 _atom_site_symmetry_multiplicity
 _atom_site_fract_x
 _atom_site_fract_y
 _atom_site_fract_z
 _atom_site_occupancy
  Cs  Cs0  1  0.94108372  0.61182489  0.82909102  1
  Cs  Cs1  1  0.55891628  0.88817511  0.32909102  1
  Cs  Cs2  1  0.38817511  0.05891628  0.17090898  1
  Cs  Cs3  1  0.05891628  0.38817511  0.17090898  1
  Cs  Cs4  1  0.88817511  0.55891628  0.32909102  1
  Cs  Cs5  1  0.44108372  0.11182489  0.67090898  1
  Cs  Cs6  1  0.61182489  0.94108372  0.82909102  1
  Cs  Cs7  1  0.27021923  0.27021923  0.31826275  1
  Cs  Cs8  1  0.77021923  0.77021923  0.18173725  1
  Cs  Cs9  1  0.22978077  0.22978077  0.81826275  1
  Cs  Cs10  1  0.72978077  0.72978077  0.68173725  1
  Cs  Cs11  1  0.11182489  0.44108372  0.67090898  1
  Na  Na0  1  0.92210243  0.07789757  0.00000000  1
  Na  Na1  1  0.57789757  0.42210243  0.50000000  1
  Na  Na2  1  0.07789757  0.92210243  0.00000000  1
  Na  Na3  1  0.42210243  0.57789757  0.50000000  1
  Na  Na4  1  0.75532868  0.24467132  0.00000000  1
  Na  Na5  1  0.74467132  0.25532868  0.50000000  1
  Na  Na6  1  0.24467132  0.75532868  0.00000000  1
  Na  Na7  1  0.25532868  0.74467132  0.50000000  1
  Si  Si0  1  0.58545667  0.41454333  0.00000000  1
  Si  Si1  1  0.91454333  0.08545667  0.50000000  1
  Si  Si2  1  0.41454333  0.58545667  0.00000000  1
  Si  Si3  1  0.08545667  0.91454333  0.50000000  1
  As  As0  1  0.85714381  0.55219930  0.08511362  1
  As  As1  1  0.44780070  0.14285619  0.91488638  1
  As  As2  1  0.64285619  0.94780070  0.58511362  1
  As  As3  1  0.94780070  0.64285619  0.58511362  1
  As  As4  1  0.14285619  0.44780070  0.91488638  1
  As  As5  1  0.55219930  0.85714381  0.08511362  1
  As  As6  1  0.35714381  0.05219930  0.41488638  1
  As  As7  1  0.18187571  0.18187571  0.57502402  1
  As  As8  1  0.68187571  0.68187571  0.92497598  1
  As  As9  1  0.31812429  0.31812429  0.07502402  1
  As  As10  1  0.05219930  0.35714381  0.41488638  1
  As  As11  1  0.81812429  0.81812429  0.42497598  1
loop_
_geom_bond_atom_site_label_1
_geom_bond_atom_site_label_2
_geom_bond_distance
_geom_bond_site_symmetry_2
Cs0 Na6 3.586729 1_656
Cs0 Na2 3.651258 1_656
Cs0 Si0 3.752283 1_556
Cs1 Na7 3.586729 1_555
Cs1 Na3 3.651258 1_555
Cs1 Si1 3.752283 1_565
Cs2 Na6 3.586729 1_545
Cs2 Na2 3.651259 1_545
Cs2 Si0 3.752282 1_555
Cs3 Na4 3.586729 1_455
Cs3 Na0 3.651258 1_455
Cs3 Si2 3.752283 1_555
Cs4 Na5 3.586729 1_555
Cs4 Na1 3.651259 1_555
Cs4 Si3 3.752282 1_655
Cs5 Na5 3.586729 1_555
Cs5 Na1 3.651258 1_555
Cs5 Si3 3.752283 1_545
Cs6 Na4 3.586729 1_566
Cs6 Na0 3.651259 1_566
Cs6 Si2 3.752282 1_556
Cs11 Na7 3.586729 1_555
Cs11 Na3 3.651259 1_555
Cs11 Si1 3.752282 1_455
As0 Si0 2.413462 1_555
As0 Na4 2.893707 1_555
As0 Na2 2.907570 1_655
As0 Na6 3.111981 1_655
As0 Cs8 3.524896 1_555
As0 Cs2 3.627725 1_555
As0 Cs2 3.869982 1_665
As0 Cs4 3.991160 1_555
As0 Cs3 3.997622 1_655
As1 Si0 2.413461 1_556
As1 Na4 2.893707 1_556
As1 Na2 2.907571 1_546
As1 Na6 3.111981 1_546
As1 Cs9 3.524897 1_555
As1 Cs0 3.627725 1_555
As1 Cs0 3.869982 1_445
As1 Cs5 3.991160 1_555
As1 Cs6 3.997622 1_545
As2 Si1 2.413462 1_565
As2 Na5 2.893707 1_565
As2 Na3 2.907570 1_555
As2 Na7 3.111981 1_555
As2 Cs10 3.524896 1_555
As2 Cs11 3.627725 1_665
As2 Cs11 3.869982 1_555
As2 Cs6 3.991160 1_555
As2 Cs5 3.997622 1_565
As3 Si3 2.413461 1_655
As3 Na7 2.893707 1_655
As3 Na1 2.907571 1_555
As3 Na5 3.111981 1_555
As3 Cs10 3.524897 1_555
As3 Cs5 3.627725 1_665
As3 Cs5 3.869982 1_555
As3 Cs0 3.991160 1_555
As3 Cs11 3.997622 1_655
As4 Si2 2.413462 1_556
As4 Na6 2.893707 1_556
As4 Na0 2.907570 1_456
As4 Na4 3.111981 1_456
As4 Cs9 3.524896 1_555
As4 Cs6 3.627725 1_555
As4 Cs6 3.869982 1_445
As4 Cs11 3.991160 1_555
As4 Cs0 3.997622 1_455
As5 Si2 2.413461 1_555
As5 Na6 2.893707 1_555
As5 Na0 2.907571 1_565
As5 Na4 3.111981 1_565
As5 Cs8 3.524897 1_555
As5 Cs3 3.627725 1_555
As5 Cs3 3.869982 1_665
As5 Cs1 3.991160 1_555
As5 Cs2 3.997622 1_565
As6 Si3 2.413462 1_545
As6 Na7 2.893707 1_545
As6 Na1 2.907570 1_555
As6 Na5 3.111981 1_555
As6 Cs7 3.524896 1_555
As6 Cs4 3.627725 1_445
As6 Cs4 3.869982 1_555
As6 Cs2 3.991160 1_555
As6 Cs1 3.997622 1_545
As7 Si3 2.479442 1_545
As7 Si1 2.479442 1_455
As7 Na3 2.984747 1_555
As7 Na1 2.984748 1_555
As7 Cs10 3.587084 1_445
As7 Cs11 3.771543 1_555
As7 Cs5 3.771543 1_555
As7 Cs9 3.983082 1_555
As8 Si0 2.479442 1_556
As8 Si2 2.479442 1_556
As8 Na0 2.984747 1_566
As8 Na2 2.984748 1_656
As8 Cs9 3.587084 1_555
As8 Cs6 3.771543 1_555
As8 Cs0 3.771543 1_555
As8 Cs10 3.983082 1_555
As9 Si2 2.479442 1_555
As9 Si0 2.479442 1_555
As9 Na2 2.984747 1_545
As9 Na0 2.984748 1_455
As9 Cs8 3.587084 1_555
As9 Cs2 3.771543 1_555
As9 Cs3 3.771543 1_555
As9 Cs7 3.983082 1_555
As10 Si1 2.413461 1_455
As10 Na5 2.893707 1_455
As10 Na3 2.907571 1_555
As10 Na7 3.111981 1_555
As10 Cs7 3.524897 1_555
As10 Cs1 3.627725 1_445
As10 Cs1 3.869982 1_555
As10 Cs3 3.991160 1_555
As10 Cs4 3.997622 1_455
As11 Si1 2.479442 1_565
As11 Si3 2.479442 1_655
As11 Na1 2.984747 1_555
As11 Na3 2.984748 1_555
As11 Cs7 3.587084 1_665
As11 Cs4 3.771543 1_555
As11 Cs1 3.771543 1_555
As11 Cs8 3.983082 1_555
