# generated using pymatgen
data_NaLuB12
_symmetry_space_group_name_H-M   'P 1'
_cell_length_a   5.80273387
_cell_length_b   5.80273315
_cell_length_c   5.80273326
_cell_angle_alpha   59.99999938
_cell_angle_beta   60.00000347
_cell_angle_gamma   59.99999823
_symmetry_Int_Tables_number   1
_chemical_formula_structural   NaLuB12
_chemical_formula_sum   'Na1 Lu1 B12'
_cell_volume   138.16017216
_cell_formula_units_Z   1
loop_
 _symmetry_equiv_pos_site_id
 _symmetry_equiv_pos_as_xyz
  1  'x, y, z'
loop_
 _atom_site_type_symbol
 _atom_site_label
 _atom_site_symmetry_multiplicity
 _atom_site_fract_x
 _atom_site_fract_y
 _atom_site_fract_z
 _atom_site_occupancy
  Na  Na0  1  0.50000000  0.50000000  0.50000000  1
  Lu  Lu0  1  0.00000000  0.00000000  0.00000000  1
  B  B0  1  0.89967488  0.60032512  0.60032512  1
  B  B1  1  0.39967488  0.10032512  0.10032512  1
  B  B2  1  0.89967488  0.89967488  0.60032512  1
  B  B3  1  0.39967488  0.39967488  0.10032512  1
  B  B4  1  0.60032512  0.89967488  0.60032512  1
  B  B5  1  0.10032512  0.39967488  0.10032512  1
  B  B6  1  0.60032512  0.60032512  0.89967488  1
  B  B7  1  0.10032512  0.10032512  0.39967488  1
  B  B8  1  0.89967488  0.60032512  0.89967488  1
  B  B9  1  0.39967488  0.10032512  0.39967488  1
  B  B10  1  0.60032512  0.89967488  0.89967488  1
  B  B11  1  0.10032512  0.39967488  0.39967488  1
loop_
_geom_bond_atom_site_label_1
_geom_bond_atom_site_label_2
_geom_bond_distance
_geom_bond_site_symmetry_2
B0 B11 1.646597 1_655
B0 B2 1.737047 1_555
B0 B8 1.737047 1_555
B0 B4 1.737047 1_555
B0 B6 1.737047 1_555
B0 Lu0 3.015916 1_656
B0 Lu0 3.015916 1_665
B0 Na0 3.015916 1_555
B0 Na0 3.015916 1_655
B1 B10 1.646597 1_544
B1 B3 1.737047 1_555
B1 B9 1.737047 1_555
B1 B5 1.737047 1_555
B1 B7 1.737047 1_555
B1 Na0 3.015916 1_545
B1 Na0 3.015916 1_554
B1 Lu0 3.015916 1_555
B1 Lu0 3.015916 1_655
B2 B7 1.646597 1_665
B2 B8 1.737047 1_555
B2 B4 1.737047 1_555
B2 Na0 3.015916 1_565
B2 Lu0 3.015916 1_666
B2 Lu0 3.015916 1_665
B2 Na0 3.015916 1_655
B3 B6 1.646597 1_554
B3 B9 1.737047 1_555
B3 B5 1.737047 1_555
B3 Lu0 3.015916 1_565
B3 Na0 3.015916 1_555
B3 Na0 3.015916 1_554
B3 Lu0 3.015916 1_655
B4 B9 1.646597 1_565
B4 B6 1.737047 1_555
B4 Na0 3.015916 1_565
B4 Na0 3.015916 1_555
B4 Lu0 3.015916 1_665
B4 Lu0 3.015916 1_566
B5 B8 1.646597 1_454
B5 B7 1.737047 1_555
B5 Lu0 3.015916 1_565
B5 Lu0 3.015916 1_555
B5 Na0 3.015916 1_554
B5 Na0 3.015916 1_455
B6 B8 1.737047 1_555
B6 Lu0 3.015916 1_656
B6 Na0 3.015916 1_555
B6 Na0 3.015916 1_556
B6 Lu0 3.015916 1_566
B7 B9 1.737047 1_555
B7 Na0 3.015916 1_545
B7 Lu0 3.015916 1_555
B7 Lu0 3.015916 1_556
B7 Na0 3.015916 1_455
B8 Lu0 3.015916 1_656
B8 Lu0 3.015916 1_666
B8 Na0 3.015916 1_556
B8 Na0 3.015916 1_655
B9 Na0 3.015916 1_545
B9 Na0 3.015916 1_555
B9 Lu0 3.015916 1_556
B9 Lu0 3.015916 1_655
B10 B6 1.737047 1_555
B10 B4 1.737047 1_555
B10 B8 1.737047 1_555
B10 B2 1.737047 1_555
B10 Na0 3.015916 1_565
B10 Na0 3.015916 1_556
B10 Lu0 3.015916 1_666
B10 Lu0 3.015916 1_566
B11 B7 1.737047 1_555
B11 B5 1.737047 1_555
B11 B9 1.737047 1_555
B11 B3 1.737047 1_555
B11 Lu0 3.015916 1_565
B11 Lu0 3.015916 1_556
B11 Na0 3.015916 1_555
B11 Na0 3.015916 1_455
