# generated using pymatgen
data_Cs2NbTc11S14
_symmetry_space_group_name_H-M   'P 1'
_cell_length_a   9.55348664
_cell_length_b   9.47936211
_cell_length_c   9.45776056
_cell_angle_alpha   60.72678552
_cell_angle_beta   60.32115000
_cell_angle_gamma   60.94528534
_symmetry_Int_Tables_number   1
_chemical_formula_structural   Cs2NbTc11S14
_chemical_formula_sum   'Cs2 Nb1 Tc11 S14'
_cell_volume   614.68711572
_cell_formula_units_Z   1
loop_
 _symmetry_equiv_pos_site_id
 _symmetry_equiv_pos_as_xyz
  1  'x, y, z'
loop_
 _atom_site_type_symbol
 _atom_site_label
 _atom_site_symmetry_multiplicity
 _atom_site_fract_x
 _atom_site_fract_y
 _atom_site_fract_z
 _atom_site_occupancy
  Cs  Cs0  1  0.38225769  0.37949129  0.37221493  1
  Cs  Cs1  1  0.62288826  0.62000442  0.62366506  1
  Nb  Nb0  1  0.30853288  0.12901889  0.99263575  1
  Tc  Tc0  1  0.20139510  0.88034972  0.05993170  1
  Tc  Tc1  1  0.88940784  0.05869371  0.19515715  1
  Tc  Tc2  1  0.93755747  0.80284663  0.11429906  1
  Tc  Tc3  1  0.80447351  0.11486936  0.93982616  1
  Tc  Tc4  1  0.11318285  0.93957958  0.80365608  1
  Tc  Tc5  1  0.99140815  0.30761709  0.12778167  1
  Tc  Tc6  1  0.87238334  0.00724901  0.69153653  1
  Tc  Tc7  1  0.12760851  0.98965475  0.30800515  1
  Tc  Tc8  1  0.00294529  0.69408531  0.87048027  1
  Tc  Tc9  1  0.69003700  0.87245159  0.01221576  1
  Tc  Tc10  1  0.06190366  0.20185626  0.87858443  1
  S  S0  1  0.98173831  0.23214483  0.65254602  1
  S  S1  1  0.22801387  0.65288032  0.98015216  1
  S  S2  1  0.65510694  0.98175028  0.23453924  1
  S  S3  1  0.02366828  0.76431870  0.34358743  1
  S  S4  1  0.77541999  0.34863803  0.01286126  1
  S  S5  1  0.34633743  0.01638808  0.76095089  1
  S  S6  1  0.15640082  0.42041886  0.82417520  1
  S  S7  1  0.41131109  0.81650489  0.17381239  1
  S  S8  1  0.83227921  0.16117906  0.41120555  1
  S  S9  1  0.83075178  0.59089337  0.17613377  1
  S  S10  1  0.59698255  0.17586279  0.83208662  1
  S  S11  1  0.17194381  0.83454954  0.58975436  1
  S  S12  1  0.77765870  0.78378991  0.78374749  1
  S  S13  1  0.20640670  0.22291473  0.23445891  1
loop_
_geom_bond_atom_site_label_1
_geom_bond_atom_site_label_2
_geom_bond_distance
_geom_bond_site_symmetry_2
Cs0 S3 3.595974 1_555
Cs0 S5 3.606162 1_555
Cs0 S4 3.606686 1_555
Cs0 S13 3.633645 1_555
Cs0 S7 3.709230 1_555
Cs0 S2 3.820957 1_545
Cs0 S6 3.840971 1_555
Cs0 S1 3.865374 1_554
Cs0 S8 3.883860 1_555
Cs0 S0 3.891608 1_455
Cs1 S2 3.599938 1_555
Cs1 S1 3.603630 1_555
Cs1 S0 3.612198 1_555
Cs1 S12 3.692482 1_555
Cs1 S10 3.753044 1_555
Cs1 S9 3.771123 1_555
Cs1 S5 3.810054 1_565
Cs1 S4 3.834150 1_556
Cs1 S11 3.875435 1_555
Cs1 S3 3.879210 1_655
Nb0 S13 2.431580 1_556
Nb0 S6 2.524034 1_555
Nb0 S10 2.546014 1_555
Nb0 S7 2.559859 1_546
Nb0 Tc7 2.624562 1_546
Nb0 Tc5 2.641643 1_456
Nb0 S5 2.683557 1_555
Nb0 Tc0 2.690789 1_546
Nb0 Tc10 2.720320 1_555
S0 Tc3 2.409191 1_555
S0 Tc4 2.414382 1_645
S0 Tc10 2.459011 1_655
S0 Tc6 2.604847 1_555
S1 Tc2 2.403443 1_456
S1 Tc4 2.420120 1_555
S1 Tc0 2.480315 1_556
S1 Tc8 2.616947 1_555
S2 Tc3 2.401724 1_564
S2 Tc2 2.419310 1_555
S2 Tc1 2.485069 1_565
S2 Tc9 2.589583 1_555
S3 Tc0 2.388989 1_555
S3 Tc1 2.424543 1_465
S3 Tc2 2.492600 1_455
S3 Tc7 2.586160 1_555
S4 Tc10 2.372082 1_654
S4 Tc1 2.455721 1_555
S4 Tc3 2.484832 1_554
S4 Tc5 2.572661 1_555
S5 Tc0 2.422205 1_546
S5 Tc10 2.447757 1_555
S5 Tc4 2.459974 1_545
S6 Tc10 2.384603 1_555
S6 Tc8 2.419116 1_555
S6 Tc5 2.454668 1_456
S7 Tc0 2.422954 1_555
S7 Tc7 2.441448 1_555
S7 Tc9 2.501298 1_555
S8 Tc1 2.395590 1_555
S8 Tc5 2.408060 1_555
S8 Tc7 2.434330 1_645
S8 Tc6 2.446406 1_555
S9 Tc2 2.381426 1_555
S9 Tc9 2.422087 1_555
S9 Tc8 2.471451 1_654
S9 Tc5 2.505650 1_555
S10 Tc3 2.369144 1_555
S10 Tc6 2.402900 1_555
S10 Tc9 2.487838 1_546
S11 Tc4 2.387741 1_555
S11 Tc8 2.411364 1_555
S11 Tc6 2.461572 1_465
S11 Tc7 2.474503 1_555
S12 Tc8 2.305821 1_655
S12 Tc6 2.310891 1_565
S12 Tc9 2.318968 1_556
S13 Tc7 2.352412 1_545
S13 Tc5 2.353631 1_455
