# generated using pymatgen
data_Nb12Ga7Fe5N4
_symmetry_space_group_name_H-M   'P 1'
_cell_length_a   8.18365024
_cell_length_b   8.18364853
_cell_length_c   8.18364992
_cell_angle_alpha   60.13136258
_cell_angle_beta   60.13137010
_cell_angle_gamma   60.13137079
_symmetry_Int_Tables_number   1
_chemical_formula_structural   Nb12Ga7Fe5N4
_chemical_formula_sum   'Nb12 Ga7 Fe5 N4'
_cell_volume   388.70184153
_cell_formula_units_Z   1
loop_
 _symmetry_equiv_pos_site_id
 _symmetry_equiv_pos_as_xyz
  1  'x, y, z'
loop_
 _atom_site_type_symbol
 _atom_site_label
 _atom_site_symmetry_multiplicity
 _atom_site_fract_x
 _atom_site_fract_y
 _atom_site_fract_z
 _atom_site_occupancy
  Nb  Nb0  1  0.80422867  0.80422867  0.19708026  1
  Nb  Nb1  1  0.19314001  0.19314001  0.80588228  1
  Nb  Nb2  1  0.80422867  0.19708026  0.80422867  1
  Nb  Nb3  1  0.19314001  0.80588228  0.19314001  1
  Nb  Nb4  1  0.19708026  0.80422867  0.80422867  1
  Nb  Nb5  1  0.80588228  0.19314001  0.19314001  1
  Nb  Nb6  1  0.44437201  0.44437201  0.05521977  1
  Nb  Nb7  1  0.05417265  0.05417265  0.44679096  1
  Nb  Nb8  1  0.44437201  0.05521977  0.44437201  1
  Nb  Nb9  1  0.05417265  0.44679096  0.05417265  1
  Nb  Nb10  1  0.05521977  0.44437201  0.44437201  1
  Nb  Nb11  1  0.44679096  0.05417265  0.05417265  1
  Ga  Ga0  1  0.75577727  0.41482065  0.41482065  1
  Ga  Ga1  1  0.41482065  0.75577727  0.41482065  1
  Ga  Ga2  1  0.41482065  0.41482065  0.75577727  1
  Ga  Ga3  1  0.41557844  0.41557844  0.41557844  1
  Ga  Ga4  1  0.49867713  0.83521071  0.83521071  1
  Ga  Ga5  1  0.83521071  0.49867713  0.83521071  1
  Ga  Ga6  1  0.83521071  0.83521071  0.49867713  1
  Fe  Fe0  1  0.12284057  0.62917339  0.62917339  1
  Fe  Fe1  1  0.62917339  0.12284057  0.62917339  1
  Fe  Fe2  1  0.62917339  0.62917339  0.12284057  1
  Fe  Fe3  1  0.62511088  0.62511088  0.62511088  1
  Fe  Fe4  1  0.82796902  0.82796902  0.82796902  1
  N  N0  1  0.62608800  0.12355453  0.12355453  1
  N  N1  1  0.12355453  0.62608800  0.12355453  1
  N  N2  1  0.12355453  0.12355453  0.62608800  1
  N  N3  1  0.12564219  0.12564219  0.12564219  1
loop_
_geom_bond_atom_site_label_1
_geom_bond_atom_site_label_2
_geom_bond_distance
_geom_bond_site_symmetry_2
Ga0 Nb10 2.713096 1_655
Ga0 Nb7 2.726009 1_655
Ga0 Nb9 2.726010 1_655
Ga0 Ga3 2.777905 1_555
Ga0 Ga1 2.795808 1_555
Ga0 Ga2 2.795808 1_555
Ga0 Nb0 2.896001 1_555
Ga0 Nb2 2.896001 1_555
Ga0 Nb5 2.923474 1_555
Ga1 Nb8 2.713095 1_565
Ga1 Nb11 2.726009 1_565
Ga1 Nb7 2.726009 1_565
Ga1 Ga3 2.777905 1_555
Ga1 Ga2 2.795808 1_555
Ga1 Nb4 2.896002 1_555
Ga1 Nb0 2.896002 1_555
Ga1 Nb3 2.923474 1_555
Ga2 Nb6 2.713096 1_556
Ga2 Nb11 2.726009 1_556
Ga2 Nb9 2.726010 1_556
Ga2 Ga3 2.777905 1_555
Ga2 Nb4 2.896001 1_555
Ga2 Nb2 2.896002 1_555
Ga2 Nb1 2.923474 1_555
Ga3 Nb8 2.734768 1_555
Ga3 Nb6 2.734769 1_555
Ga3 Nb10 2.734769 1_555
Ga3 Nb3 2.923635 1_555
Ga3 Nb1 2.923635 1_555
Ga3 Nb5 2.923636 1_555
Ga4 Nb1 2.737182 1_565
Ga4 Nb3 2.737182 1_556
Ga4 Nb4 2.744275 1_555
Ga4 Ga5 2.759540 1_555
Ga4 Ga6 2.759540 1_555
Ga4 Nb11 2.878304 1_566
Ga4 Nb6 2.924457 1_556
Ga4 Nb8 2.924457 1_565
Ga5 Nb5 2.737182 1_556
Ga5 Nb1 2.737182 1_655
Ga5 Nb2 2.744274 1_555
Ga5 Ga6 2.759539 1_555
Ga5 Nb9 2.878304 1_656
Ga5 Nb10 2.924457 1_655
Ga5 Nb6 2.924457 1_556
Ga6 Nb5 2.737181 1_565
Ga6 Nb3 2.737182 1_655
Ga6 Nb0 2.744275 1_555
Ga6 Nb7 2.878304 1_665
Ga6 Nb10 2.924457 1_655
Ga6 Nb8 2.924457 1_565
Fe0 Fe4 2.435634 1_455
Fe0 Ga5 2.506253 1_455
Fe0 Ga6 2.506253 1_455
Fe0 Ga1 2.518103 1_555
Fe0 Ga2 2.518103 1_555
Fe0 Ga3 2.559597 1_555
Fe0 Nb4 2.872585 1_555
Fe0 Nb7 2.891097 1_565
Fe0 Nb9 2.891098 1_556
Fe0 Nb1 2.966394 1_555
Fe0 Nb3 2.966395 1_555
Fe0 Nb10 2.970845 1_555
Fe1 Fe4 2.435634 1_545
Fe1 Ga4 2.506252 1_545
Fe1 Ga6 2.506253 1_545
Fe1 Ga0 2.518103 1_555
Fe1 Ga2 2.518103 1_555
Fe1 Ga3 2.559597 1_555
Fe1 Nb2 2.872585 1_555
Fe1 Nb11 2.891098 1_556
Fe1 Nb7 2.891098 1_655
Fe1 Nb5 2.966395 1_555
Fe1 Nb1 2.966395 1_555
Fe1 Nb8 2.970846 1_555
Fe2 Fe4 2.435634 1_554
Fe2 Ga4 2.506253 1_554
Fe2 Ga5 2.506253 1_554
Fe2 Ga0 2.518103 1_555
Fe2 Ga1 2.518103 1_555
Fe2 Ga3 2.559597 1_555
Fe2 Nb0 2.872585 1_555
Fe2 Nb11 2.891097 1_565
Fe2 Nb9 2.891098 1_655
Fe2 Nb5 2.966394 1_555
Fe2 Nb3 2.966395 1_555
Fe2 Nb6 2.970845 1_555
Fe3 Ga2 2.520067 1_555
Fe3 Ga0 2.520067 1_555
Fe3 Ga1 2.520067 1_555
Fe3 Ga6 2.526609 1_555
Fe3 Ga4 2.526610 1_555
Fe3 Ga5 2.526610 1_555
Fe3 Nb2 2.911882 1_555
Fe3 Nb0 2.911882 1_555
Fe3 Nb4 2.911883 1_555
Fe3 Nb8 2.927946 1_565
Fe3 Nb6 2.927946 1_556
Fe3 Nb10 2.927946 1_655
Fe4 Ga5 2.637116 1_555
Fe4 Ga6 2.637116 1_555
Fe4 Ga4 2.637117 1_555
Fe4 Nb2 2.840512 1_565
Fe4 Nb0 2.840513 1_556
Fe4 Nb4 2.840513 1_655
Fe4 Nb9 2.914519 1_656
Fe4 Nb7 2.914519 1_665
Fe4 Nb11 2.914519 1_566
N0 Nb11 2.185983 1_555
N0 Nb5 2.192178 1_555
N0 Nb0 2.197592 1_545
N0 Nb2 2.197592 1_554
N0 Nb6 2.212319 1_555
N0 Nb8 2.212319 1_555
N1 Nb9 2.185983 1_555
N1 Nb3 2.192177 1_555
N1 Nb4 2.197592 1_554
N1 Nb0 2.197592 1_455
N1 Nb10 2.212319 1_555
N1 Nb6 2.212319 1_555
N2 Nb7 2.185983 1_555
N2 Nb1 2.192178 1_555
N2 Nb4 2.197592 1_545
N2 Nb2 2.197592 1_455
N2 Nb10 2.212319 1_555
N2 Nb8 2.212320 1_555
N3 Nb9 2.206820 1_555
N3 Nb7 2.206820 1_555
N3 Nb11 2.206820 1_555
N3 Nb3 2.209608 1_545
N3 Nb1 2.209608 1_554
N3 Nb5 2.209608 1_455
