# generated using pymatgen
data_Sr5Bi3Cl
_symmetry_space_group_name_H-M   'P 1'
_cell_length_a   9.75819423
_cell_length_b   9.75819444
_cell_length_c   7.57314712
_cell_angle_alpha   90.00000000
_cell_angle_beta   90.00000000
_cell_angle_gamma   120.00000262
_symmetry_Int_Tables_number   1
_chemical_formula_structural   Sr5Bi3Cl
_chemical_formula_sum   'Sr10 Bi6 Cl2'
_cell_volume   624.51940804
_cell_formula_units_Z   2
loop_
 _symmetry_equiv_pos_site_id
 _symmetry_equiv_pos_as_xyz
  1  'x, y, z'
loop_
 _atom_site_type_symbol
 _atom_site_label
 _atom_site_symmetry_multiplicity
 _atom_site_fract_x
 _atom_site_fract_y
 _atom_site_fract_z
 _atom_site_occupancy
  Sr  Sr0  1  0.25401983  0.00000000  0.25000000  1
  Sr  Sr1  1  0.74598017  0.00000000  0.75000000  1
  Sr  Sr2  1  0.00000000  0.25401983  0.25000000  1
  Sr  Sr3  1  0.00000000  0.74598017  0.75000000  1
  Sr  Sr4  1  0.74598017  0.74598017  0.25000000  1
  Sr  Sr5  1  0.25401983  0.25401983  0.75000000  1
  Sr  Sr6  1  0.33333300  0.66666700  0.00000000  1
  Sr  Sr7  1  0.66666700  0.33333300  0.00000000  1
  Sr  Sr8  1  0.66666700  0.33333300  0.50000000  1
  Sr  Sr9  1  0.33333300  0.66666700  0.50000000  1
  Bi  Bi0  1  0.60811324  0.00000000  0.25000000  1
  Bi  Bi1  1  0.39188676  1.00000000  0.75000000  1
  Bi  Bi2  1  0.00000000  0.60811324  0.25000000  1
  Bi  Bi3  1  1.00000000  0.39188676  0.75000000  1
  Bi  Bi4  1  0.39188676  0.39188676  0.25000000  1
  Bi  Bi5  1  0.60811324  0.60811324  0.75000000  1
  Cl  Cl0  1  0.00000000  0.00000000  0.00000000  1
  Cl  Cl1  1  0.00000000  0.00000000  0.50000000  1
loop_
_geom_bond_atom_site_label_1
_geom_bond_atom_site_label_2
_geom_bond_distance
_geom_bond_site_symmetry_2
Bi0 Sr2 3.359913 1_655
Bi0 Sr4 3.359914 1_545
Bi0 Sr0 3.455312 1_555
Bi0 Sr8 3.554252 1_555
Bi0 Sr7 3.554252 1_555
Bi0 Sr6 3.554255 1_545
Bi0 Sr9 3.554255 1_545
Bi0 Sr1 4.018465 1_555
Bi0 Sr1 4.018465 1_554
Bi1 Sr3 3.359913 1_555
Bi1 Sr5 3.359914 1_565
Bi1 Sr1 3.455312 1_565
Bi1 Sr9 3.554252 1_555
Bi1 Sr6 3.554252 1_556
Bi1 Sr8 3.554255 1_565
Bi1 Sr7 3.554255 1_566
Bi1 Sr0 4.018465 1_565
Bi1 Sr0 4.018465 1_566
Bi2 Sr0 3.359914 1_565
Bi2 Sr4 3.359914 1_455
Bi2 Sr2 3.455312 1_555
Bi2 Sr9 3.554252 1_555
Bi2 Sr6 3.554252 1_555
Bi2 Sr7 3.554255 1_455
Bi2 Sr8 3.554255 1_455
Bi2 Sr3 4.018465 1_555
Bi2 Sr3 4.018465 1_554
Bi3 Sr1 3.359914 1_555
Bi3 Sr5 3.359914 1_655
Bi3 Sr3 3.455312 1_655
Bi3 Sr7 3.554252 1_556
Bi3 Sr8 3.554252 1_555
Bi3 Sr9 3.554255 1_655
Bi3 Sr6 3.554255 1_656
Bi3 Sr2 4.018465 1_655
Bi3 Sr2 4.018465 1_656
Bi4 Sr2 3.359914 1_555
Bi4 Sr0 3.359914 1_555
Bi4 Sr4 3.455312 1_555
Bi4 Sr7 3.554260 1_555
Bi4 Sr8 3.554260 1_555
Bi4 Sr6 3.554260 1_555
Bi4 Sr9 3.554260 1_555
Bi4 Sr5 4.018465 1_555
Bi4 Sr5 4.018465 1_554
Bi5 Sr3 3.359914 1_655
Bi5 Sr1 3.359914 1_565
Bi5 Sr5 3.455312 1_555
Bi5 Sr9 3.554260 1_555
Bi5 Sr6 3.554260 1_556
Bi5 Sr7 3.554260 1_556
Bi5 Sr8 3.554260 1_555
Bi5 Sr4 4.018465 1_556
Bi5 Sr4 4.018465 1_555
Cl0 Sr5 3.119112 1_554
Cl0 Sr4 3.119112 1_445
Cl0 Sr0 3.119112 1_555
Cl0 Sr1 3.119112 1_454
Cl0 Sr2 3.119112 1_555
Cl0 Sr3 3.119112 1_544
Cl1 Sr5 3.119112 1_555
Cl1 Sr4 3.119112 1_445
Cl1 Sr0 3.119112 1_555
Cl1 Sr1 3.119112 1_455
Cl1 Sr2 3.119112 1_555
Cl1 Sr3 3.119112 1_545
