# generated using pymatgen
data_Ta3Si2GeW3
_symmetry_space_group_name_H-M   'P 1'
_cell_length_a   6.96535891
_cell_length_b   6.96535879
_cell_length_c   3.31886782
_cell_angle_alpha   90.00000000
_cell_angle_beta   90.00000000
_cell_angle_gamma   120.00000524
_symmetry_Int_Tables_number   1
_chemical_formula_structural   Ta3Si2GeW3
_chemical_formula_sum   'Ta3 Si2 Ge1 W3'
_cell_volume   139.44648041
_cell_formula_units_Z   1
loop_
 _symmetry_equiv_pos_site_id
 _symmetry_equiv_pos_as_xyz
  1  'x, y, z'
loop_
 _atom_site_type_symbol
 _atom_site_label
 _atom_site_symmetry_multiplicity
 _atom_site_fract_x
 _atom_site_fract_y
 _atom_site_fract_z
 _atom_site_occupancy
  Ta  Ta0  1  0.39287721  0.40318733  0.50000000  1
  Ta  Ta1  1  0.59681267  0.98968987  0.50000000  1
  Ta  Ta2  1  0.01031013  0.60712279  0.50000000  1
  Si  Si0  1  0.33333300  0.66666700  0.00000000  1
  Si  Si1  1  0.00000000  0.00000000  0.50000000  1
  Ge  Ge0  1  0.66666700  0.33333300  0.00000000  1
  W  W0  1  0.74034957  0.74375041  0.00000000  1
  W  W1  1  0.25624959  0.99659916  0.00000000  1
  W  W2  1  0.00340084  0.25965043  0.00000000  1
loop_
_geom_bond_atom_site_label_1
_geom_bond_atom_site_label_2
_geom_bond_distance
_geom_bond_site_symmetry_2
Ta0 W2 2.898370 1_556
Ta0 W2 2.898370 1_555
Ta0 W0 2.915007 1_555
Ta0 W0 2.915007 1_556
Ta0 W1 2.997441 1_545
Ta0 W1 2.997441 1_546
Ta1 W0 2.898370 1_556
Ta1 W0 2.898370 1_555
Ta1 W1 2.915007 1_555
Ta1 W1 2.915007 1_556
Ta1 W2 2.997441 1_666
Ta1 W2 2.997441 1_665
Ta2 W1 2.898369 1_556
Ta2 W1 2.898369 1_555
Ta2 W2 2.915007 1_556
Ta2 W2 2.915007 1_555
Ta2 W0 2.997441 1_456
Ta2 W0 2.997441 1_455
Si0 W1 2.608333 1_555
Si0 W2 2.608337 1_555
Si0 W0 2.608340 1_555
Si0 Ta2 2.656113 1_554
Si0 Ta2 2.656113 1_555
Si0 Ta1 2.656114 1_555
Si0 Ta1 2.656114 1_554
Si0 Ta0 2.656118 1_555
Si0 Ta0 2.656118 1_554
Si1 W0 2.445879 1_446
Si1 W0 2.445879 1_445
Si1 W2 2.445879 1_556
Si1 W2 2.445879 1_555
Si1 W1 2.445879 1_546
Si1 W1 2.445879 1_545
Si1 Ta0 2.773135 1_555
Si1 Ta2 2.773135 1_545
Si1 Ta1 2.773135 1_445
Ge0 W2 2.639772 1_655
Ge0 W1 2.639776 1_545
Ge0 W0 2.639779 1_555
Ge0 Ta1 2.748662 1_544
Ge0 Ta1 2.748662 1_545
Ge0 Ta2 2.748664 1_655
Ge0 Ta2 2.748664 1_654
Ge0 Ta0 2.748667 1_555
Ge0 Ta0 2.748667 1_554
