# generated using pymatgen
data_CaAlZnGa2
_symmetry_space_group_name_H-M   'P 1'
_cell_length_a   6.26325692
_cell_length_b   6.26325642
_cell_length_c   6.26325621
_cell_angle_alpha   141.24226445
_cell_angle_beta   141.24226391
_cell_angle_gamma   55.97187115
_symmetry_Int_Tables_number   1
_chemical_formula_structural   CaAlZnGa2
_chemical_formula_sum   'Ca1 Al1 Zn1 Ga2'
_cell_volume   95.55195289
_cell_formula_units_Z   1
loop_
 _symmetry_equiv_pos_site_id
 _symmetry_equiv_pos_as_xyz
  1  'x, y, z'
loop_
 _atom_site_type_symbol
 _atom_site_label
 _atom_site_symmetry_multiplicity
 _atom_site_fract_x
 _atom_site_fract_y
 _atom_site_fract_z
 _atom_site_occupancy
  Ca  Ca0  1  0.00000000  0.00000000  0.00000000  1
  Al  Al0  1  0.25000000  0.75000000  0.50000000  1
  Zn  Zn0  1  0.75000000  0.25000000  0.50000000  1
  Ga  Ga0  1  0.38846578  0.38846578  0.00000000  1
  Ga  Ga1  1  0.61153422  0.61153422  1.00000000  1
loop_
_geom_bond_atom_site_label_1
_geom_bond_atom_site_label_2
_geom_bond_distance
_geom_bond_site_symmetry_2
Ca0 Ga1 3.187514 1_443
Ca0 Ga0 3.187514 1_556
Ca0 Ga1 3.187514 1_555
Ca0 Ga0 3.187514 1_444
Ca0 Ga0 3.187515 1_545
Ca0 Ga1 3.187515 1_454
Ca0 Ga1 3.187515 1_544
Ca0 Ga0 3.187515 1_455
Ca0 Zn0 3.459280 1_454
Ca0 Zn0 3.459280 1_444
Ca0 Zn0 3.459280 1_455
Ca0 Zn0 3.459280 1_555
Al0 Ga0 2.581675 1_566
Al0 Ga1 2.581675 1_555
Al0 Ga0 2.581675 1_555
Al0 Ga1 2.581676 1_454
Al0 Ca0 3.459280 1_565
Al0 Ca0 3.459280 1_555
Al0 Ca0 3.459280 1_566
Al0 Ca0 3.459280 1_666
Ga0 Ga1 2.467516 1_554
Ga0 Zn0 2.581675 1_555
Ga0 Zn0 2.581676 1_454
Ga1 Zn0 2.581675 1_566
Ga1 Zn0 2.581675 1_555
