# generated using pymatgen
data_Hf10CdSnSb4
_symmetry_space_group_name_H-M   'P 1'
_cell_length_a   5.62845264
_cell_length_b   8.28755676
_cell_length_c   8.28755676
_cell_angle_alpha   83.37852215
_cell_angle_beta   70.14916290
_cell_angle_gamma   70.14916636
_symmetry_Int_Tables_number   1
_chemical_formula_structural   Hf10CdSnSb4
_chemical_formula_sum   'Hf10 Cd1 Sn1 Sb4'
_cell_volume   342.00573923
_cell_formula_units_Z   1
loop_
 _symmetry_equiv_pos_site_id
 _symmetry_equiv_pos_as_xyz
  1  'x, y, z'
loop_
 _atom_site_type_symbol
 _atom_site_label
 _atom_site_symmetry_multiplicity
 _atom_site_fract_x
 _atom_site_fract_y
 _atom_site_fract_z
 _atom_site_occupancy
  Hf  Hf0  1  0.25000000  0.50000000  0.50000000  1
  Hf  Hf1  1  0.75000000  0.50000000  0.50000000  1
  Hf  Hf2  1  0.07579220  0.14853460  0.69977504  1
  Hf  Hf3  1  0.92410184  0.85146540  0.30022496  1
  Hf  Hf4  1  0.77556724  0.30022496  0.14853460  1
  Hf  Hf5  1  0.42420780  0.30022496  0.85146540  1
  Hf  Hf6  1  0.22432680  0.69977504  0.85146540  1
  Hf  Hf7  1  0.57589816  0.69977504  0.14853460  1
  Hf  Hf8  1  0.72443276  0.85146540  0.69977504  1
  Hf  Hf9  1  0.27567320  0.14853460  0.30022496  1
  Cd  Cd0  1  0.75000000  0.00000000  0.00000000  1
  Sn  Sn0  1  0.25000000  0.00000000  0.00000000  1
  Sb  Sb0  1  0.16515597  0.50000000  0.16968706  1
  Sb  Sb1  1  0.83484403  0.50000000  0.83031294  1
  Sb  Sb2  1  0.33484403  0.83031294  0.50000000  1
  Sb  Sb3  1  0.66515597  0.16968706  0.50000000  1
loop_
_geom_bond_atom_site_label_1
_geom_bond_atom_site_label_2
_geom_bond_distance
_geom_bond_site_symmetry_2
Hf0 Sb1 2.934226 1_455
Hf0 Sb3 2.934226 1_555
Hf0 Sb2 2.934229 1_555
Hf0 Sb0 2.934229 1_555
Hf1 Sb0 2.934226 1_655
Hf1 Sb2 2.934226 1_555
Hf1 Sb3 2.934229 1_555
Hf1 Sb1 2.934229 1_555
Hf2 Sb1 2.922574 1_455
Hf2 Sb2 2.928878 1_545
Hf2 Sn0 2.966201 1_556
Hf2 Sb3 3.220323 1_455
Hf2 Sb3 3.220839 1_555
Hf3 Sb0 2.922574 1_655
Hf3 Sb3 2.928878 1_565
Hf3 Sn0 2.966201 1_665
Hf3 Sb2 3.220318 1_555
Hf3 Sb2 3.220844 1_655
Hf4 Sb3 2.922574 1_555
Hf4 Sb1 2.928878 1_554
Hf4 Sn0 2.966201 1_655
Hf4 Sb0 3.220323 1_555
Hf4 Sb0 3.220839 1_655
Hf5 Sb3 2.922574 1_555
Hf5 Sb0 2.928878 1_556
Hf5 Sn0 2.966201 1_556
Hf5 Sb1 3.220323 1_555
Hf5 Sb1 3.220839 1_455
Hf6 Sb2 2.922574 1_555
Hf6 Sb0 2.928878 1_556
Hf6 Sn0 2.966201 1_566
Hf6 Sb1 3.220318 1_455
Hf6 Sb1 3.220844 1_555
Hf7 Sb2 2.922574 1_555
Hf7 Sb1 2.928878 1_554
Hf7 Sn0 2.966201 1_565
Hf7 Sb0 3.220318 1_655
Hf7 Sb0 3.220844 1_555
Hf8 Sb1 2.922574 1_555
Hf8 Sb3 2.928878 1_565
Hf8 Sn0 2.966201 1_566
Hf8 Sb2 3.220323 1_655
Hf8 Sb2 3.220839 1_555
Hf9 Sb0 2.922574 1_555
Hf9 Sb2 2.928878 1_545
Hf9 Sn0 2.966201 1_555
Hf9 Sb3 3.220318 1_555
Hf9 Sb3 3.220844 1_455
Cd0 Sn0 2.814226 1_655
Cd0 Sn0 2.814226 1_555
Cd0 Hf9 2.965918 1_555
Cd0 Hf6 2.965918 1_644
Cd0 Hf2 2.965918 1_654
Cd0 Hf5 2.965918 1_554
Cd0 Hf7 2.965918 1_545
Cd0 Hf3 2.965918 1_545
Cd0 Hf4 2.965918 1_555
Cd0 Hf8 2.965918 1_544
