# generated using pymatgen
data_Ca3Bi(Ru2O7)2
_symmetry_space_group_name_H-M   'P 1'
_cell_length_a   7.20800653
_cell_length_b   7.20800586
_cell_length_c   7.20800640
_cell_angle_alpha   60.02149621
_cell_angle_beta   60.02150015
_cell_angle_gamma   60.02149776
_symmetry_Int_Tables_number   1
_chemical_formula_structural   Ca3Bi(Ru2O7)2
_chemical_formula_sum   'Ca3 Bi1 Ru4 O14'
_cell_volume   264.93666772
_cell_formula_units_Z   1
loop_
 _symmetry_equiv_pos_site_id
 _symmetry_equiv_pos_as_xyz
  1  'x, y, z'
loop_
 _atom_site_type_symbol
 _atom_site_label
 _atom_site_symmetry_multiplicity
 _atom_site_fract_x
 _atom_site_fract_y
 _atom_site_fract_z
 _atom_site_occupancy
  Ca  Ca0  1  0.00000000  0.50000000  0.00000000  1
  Ca  Ca1  1  0.50000000  0.00000000  0.00000000  1
  Ca  Ca2  1  0.00000000  0.00000000  0.50000000  1
  Bi  Bi0  1  0.00000000  0.00000000  0.00000000  1
  Ru  Ru0  1  0.50000000  0.50000000  0.50000000  1
  Ru  Ru1  1  0.50000000  0.00000000  0.50000000  1
  Ru  Ru2  1  0.00000000  0.50000000  0.50000000  1
  Ru  Ru3  1  0.50000000  0.50000000  0.00000000  1
  O  O0  1  0.43018865  0.43018865  0.82111693  1
  O  O1  1  0.82111693  0.43018865  0.43018865  1
  O  O2  1  0.43018865  0.82111693  0.43018865  1
  O  O3  1  0.82860191  0.82860191  0.41499028  1
  O  O4  1  0.41499028  0.82860191  0.82860191  1
  O  O5  1  0.82860191  0.41499028  0.82860191  1
  O  O6  1  0.56981135  0.56981135  0.17888307  1
  O  O7  1  0.17888307  0.56981135  0.56981135  1
  O  O8  1  0.56981135  0.17888307  0.56981135  1
  O  O9  1  0.17139809  0.17139809  0.58500972  1
  O  O10  1  0.58500972  0.17139809  0.17139809  1
  O  O11  1  0.17139809  0.58500972  0.17139809  1
  O  O12  1  0.12272655  0.12272655  0.12272655  1
  O  O13  1  0.87727345  0.87727345  0.87727345  1
loop_
_geom_bond_atom_site_label_1
_geom_bond_atom_site_label_2
_geom_bond_distance
_geom_bond_site_symmetry_2
Ca0 O13 2.221284 1_454
Ca0 O12 2.221284 1_555
Ca0 O11 2.542920 1_555
Ca0 O5 2.542920 1_454
Ca0 O7 2.573763 1_554
Ca0 O1 2.573763 1_455
Ca0 O0 2.573763 1_554
Ca0 O6 2.573763 1_455
Ca1 O13 2.221284 1_544
Ca1 O12 2.221284 1_555
Ca1 O10 2.542920 1_555
Ca1 O4 2.542920 1_544
Ca1 O0 2.573763 1_554
Ca1 O6 2.573763 1_545
Ca1 O2 2.573763 1_545
Ca1 O8 2.573763 1_554
Ca2 O12 2.221284 1_555
Ca2 O13 2.221284 1_445
Ca2 O9 2.542920 1_555
Ca2 O3 2.542920 1_445
Ca2 O7 2.573763 1_545
Ca2 O1 2.573763 1_455
Ca2 O2 2.573763 1_545
Ca2 O8 2.573763 1_455
Bi0 O12 2.166500 1_555
Bi0 O13 2.166500 1_444
Bi0 O5 2.477763 1_454
Bi0 O11 2.477763 1_545
Bi0 O3 2.477763 1_445
Bi0 O9 2.477763 1_554
Bi0 O4 2.477763 1_544
Bi0 O10 2.477763 1_455
O0 Ru3 1.928418 1_556
O0 Ru0 1.946532 1_555
O1 Ru2 1.928418 1_655
O1 Ru0 1.946532 1_555
O2 Ru1 1.928418 1_565
O2 Ru0 1.946531 1_555
O3 Ru2 1.973242 1_655
O3 Ru1 1.973242 1_565
O4 Ru3 1.973242 1_556
O4 Ru1 1.973242 1_565
O5 Ru2 1.973242 1_655
O5 Ru3 1.973242 1_556
O6 Ru3 1.928418 1_555
O6 Ru0 1.946532 1_555
O7 Ru2 1.928418 1_555
O7 Ru0 1.946532 1_555
O8 Ru1 1.928418 1_555
O8 Ru0 1.946531 1_555
O9 Ru2 1.973242 1_555
O9 Ru1 1.973242 1_555
O10 Ru3 1.973242 1_555
O10 Ru1 1.973242 1_555
O11 Ru2 1.973242 1_555
O11 Ru3 1.973242 1_555
