# generated using pymatgen
data_BaMnReP2
_symmetry_space_group_name_H-M   'P 1'
_cell_length_a   7.10418157
_cell_length_b   7.10418162
_cell_length_c   7.10418070
_cell_angle_alpha   147.89286937
_cell_angle_beta   147.89286925
_cell_angle_gamma   46.04353453
_symmetry_Int_Tables_number   1
_chemical_formula_structural   BaMnReP2
_chemical_formula_sum   'Ba1 Mn1 Re1 P2'
_cell_volume   100.93950767
_cell_formula_units_Z   1
loop_
 _symmetry_equiv_pos_site_id
 _symmetry_equiv_pos_as_xyz
  1  'x, y, z'
loop_
 _atom_site_type_symbol
 _atom_site_label
 _atom_site_symmetry_multiplicity
 _atom_site_fract_x
 _atom_site_fract_y
 _atom_site_fract_z
 _atom_site_occupancy
  Ba  Ba0  1  0.00000000  0.00000000  0.00000000  1
  Mn  Mn0  1  0.25000000  0.75000000  0.50000000  1
  Re  Re0  1  0.75000000  0.25000000  0.50000000  1
  P  P0  1  0.64901943  0.64901943  1.00000000  1
  P  P1  1  0.35098057  0.35098057  0.00000000  1
loop_
_geom_bond_atom_site_label_1
_geom_bond_atom_site_label_2
_geom_bond_distance
_geom_bond_site_symmetry_2
Ba0 P0 3.393581 1_443
Ba0 P1 3.393581 1_556
Ba0 P0 3.393582 1_544
Ba0 P1 3.393582 1_455
Ba0 P0 3.393582 1_454
Ba0 P1 3.393582 1_545
Ba0 P0 3.393582 1_555
Ba0 P1 3.393582 1_444
Mn0 P1 2.367111 1_555
Mn0 P0 2.367111 1_555
Mn0 P0 2.367112 1_454
Mn0 P1 2.367112 1_566
P0 Re0 2.367111 1_555
P0 Re0 2.367112 1_566
P1 Re0 2.367111 1_555
P1 Re0 2.367112 1_454
