# generated using pymatgen
data_Ti8Al14Co7Ge
_symmetry_space_group_name_H-M   'P 1'
_cell_length_a   8.35365237
_cell_length_b   8.35365284
_cell_length_c   8.35365309
_cell_angle_alpha   120.08872125
_cell_angle_beta   119.90043509
_cell_angle_gamma   90.00946605
_symmetry_Int_Tables_number   1
_chemical_formula_structural   Ti8Al14Co7Ge
_chemical_formula_sum   'Ti8 Al14 Co7 Ge1'
_cell_volume   412.23834493
_cell_formula_units_Z   1
loop_
 _symmetry_equiv_pos_site_id
 _symmetry_equiv_pos_as_xyz
  1  'x, y, z'
loop_
 _atom_site_type_symbol
 _atom_site_label
 _atom_site_symmetry_multiplicity
 _atom_site_fract_x
 _atom_site_fract_y
 _atom_site_fract_z
 _atom_site_occupancy
  Ti  Ti0  1  0.79426101  0.29054490  0.07856563  1
  Ti  Ti1  1  0.21197927  0.29054490  0.49628389  1
  Ti  Ti2  1  0.20763995  0.70763995  0.50000000  1
  Ti  Ti3  1  0.21197927  0.71569538  0.92143437  1
  Ti  Ti4  1  0.79426101  0.71569538  0.50371611  1
  Ti  Ti5  1  0.78649593  0.28649593  0.50000000  1
  Ti  Ti6  1  0.38045587  0.12055617  0.74010030  1
  Ti  Ti7  1  0.38045587  0.64035456  0.25989970  1
  Al  Al0  1  0.16046266  0.33728749  0.17682483  1
  Al  Al1  1  0.16046266  0.98363882  0.82317517  1
  Al  Al2  1  0.15652252  0.33997011  0.81655341  1
  Al  Al3  1  0.52341570  0.33997011  0.18344659  1
  Al  Al4  1  0.83889871  0.65962754  0.82073084  1
  Al  Al5  1  0.83889871  0.01816687  0.17926916  1
  Al  Al6  1  0.83832749  0.66048185  0.17784564  1
  Al  Al7  1  0.48263521  0.66048185  0.82215436  1
  Al  Al8  1  0.38105000  0.11934989  0.26170010  1
  Al  Al9  1  0.85765079  0.11934989  0.73829990  1
  Al  Al10  1  0.61993248  0.88014836  0.26021489  1
  Al  Al11  1  0.61993248  0.35971659  0.73978511  1
  Al  Al12  1  0.62096888  0.87986778  0.74110209  1
  Al  Al13  1  0.13876469  0.87986778  0.25889791  1
  Co  Co0  1  0.00331452  0.00055274  0.50257625  1
  Co  Co1  1  0.49797749  0.00055274  0.99723921  1
  Co  Co2  1  0.49721505  0.49721505  1.00000000  1
  Co  Co3  1  0.49797749  0.50073828  0.49742375  1
  Co  Co4  1  0.00331452  0.50073828  0.00276079  1
  Co  Co5  1  0.00023398  0.00023398  0.00000000  1
  Co  Co6  1  0.49762186  0.99762186  0.50000000  1
  Ge  Ge0  1  0.99689295  0.49689295  0.50000000  1
loop_
_geom_bond_atom_site_label_1
_geom_bond_atom_site_label_2
_geom_bond_distance
_geom_bond_site_symmetry_2
Ti0 Ti6 2.861537 1_554
Ti1 Ti6 2.861537 1_555
Ti2 Ti7 2.860005 1_555
Ti2 Ti6 2.860006 1_565
Ti3 Ti7 2.861543 1_556
Ti4 Ti7 2.861536 1_555
Al0 Co5 2.399712 1_555
Al0 Co4 2.406290 1_555
Al0 Co3 2.406290 1_555
Al0 Al9 2.684321 1_454
Al0 Al8 2.684323 1_555
Al0 Ti7 2.689571 1_555
Al1 Co5 2.399714 1_566
Al1 Co0 2.406280 1_565
Al1 Co1 2.406294 1_565
Al1 Al9 2.684312 1_465
Al1 Al8 2.684325 1_566
Al1 Ti6 2.689573 1_565
Al2 Co4 2.398335 1_556
Al2 Co0 2.398348 1_555
Al2 Co2 2.409537 1_555
Al2 Al9 2.687118 1_455
Al2 Ti7 2.699125 1_556
Al2 Ti6 2.699134 1_555
Al3 Co3 2.398337 1_555
Al3 Co1 2.398351 1_554
Al3 Co2 2.409531 1_554
Al3 Al8 2.687127 1_555
Al3 Ti7 2.699116 1_555
Al3 Ti6 2.699129 1_554
Al4 Co5 2.422586 1_666
Al4 Co4 2.429514 1_656
Al4 Co3 2.429529 1_555
Al5 Co5 2.422573 1_655
Al5 Co1 2.429528 1_554
Al5 Co0 2.429528 1_655
Al6 Co0 2.423393 1_665
Al6 Co4 2.423398 1_655
Al6 Co2 2.435883 1_554
Al7 Co1 2.423389 1_565
Al7 Co3 2.423403 1_555
Al7 Co2 2.435881 1_555
Al8 Co6 2.458138 1_545
Al8 Co1 2.602497 1_554
Al8 Co3 2.602497 1_555
Al8 Co5 2.602611 1_555
Al8 Ti1 2.798241 1_555
Al8 Ti3 2.798241 1_544
Al8 Ti5 2.805935 1_555
Al9 Co6 2.458145 1_545
Al9 Co0 2.602490 1_655
Al9 Co4 2.602497 1_656
Al9 Co5 2.602611 1_656
Al9 Ti4 2.798240 1_545
Al9 Ti0 2.798247 1_556
Al9 Ti5 2.805934 1_555
Al10 Co6 2.467619 1_555
Al10 Co2 2.610365 1_554
Al10 Co1 2.619173 1_564
Al10 Co0 2.619186 1_665
Al10 Al5 2.673306 1_565
Al10 Al7 2.675027 1_554
Al10 Al6 2.675033 1_555
Al10 Ti5 2.805880 1_565
Al10 Al8 2.824236 1_565
Al10 Al9 2.824243 1_565
Al10 Ti3 2.827529 1_554
Al10 Ti4 2.827536 1_555
Al10 Ti7 2.828920 1_555
Al11 Co6 2.467612 1_545
Al11 Co2 2.610359 1_555
Al11 Co4 2.619187 1_656
Al11 Co3 2.619193 1_555
Al11 Al4 2.673309 1_555
Al11 Al6 2.675031 1_556
Al11 Al7 2.675040 1_555
Al11 Ti5 2.805888 1_555
Al11 Al9 2.824242 1_555
Al11 Al8 2.824243 1_555
Al11 Ti0 2.827523 1_556
Al11 Ti1 2.827530 1_555
Al11 Ti6 2.828902 1_555
Al12 Co6 2.450238 1_555
Al12 Co1 2.584452 1_565
Al12 Co3 2.584459 1_555
Al12 Co5 2.591003 1_666
Al12 Al9 2.829081 1_565
Al12 Ti6 2.842687 1_565
Al12 Ti7 2.842693 1_555
Al13 Co6 2.450245 1_555
Al13 Co0 2.584452 1_565
Al13 Co4 2.584458 1_555
Al13 Co5 2.590996 1_565
Al13 Al8 2.829075 1_565
Al13 Ti6 2.842693 1_565
Al13 Ti7 2.842704 1_555
Co0 Ti6 2.576782 1_555
Co0 Ti4 2.958088 1_445
Co0 Ti2 2.980994 1_545
Co0 Ti5 3.000144 1_455
Co0 Ti1 3.021144 1_555
Co1 Ti6 2.576789 1_555
Co1 Ti3 2.958089 1_545
Co1 Ti2 2.981000 1_545
Co1 Ti5 3.000138 1_556
Co1 Ti0 3.021143 1_556
Co2 Ti7 2.569718 1_556
Co2 Ti6 2.569718 1_555
Co3 Ti7 2.576775 1_555
Co3 Ti1 2.958095 1_555
Co3 Ti2 2.981001 1_555
Co3 Ti5 3.000137 1_555
Co3 Ti4 3.021138 1_555
Co4 Ti7 2.576782 1_555
Co4 Ti0 2.958095 1_455
Co4 Ti2 2.981002 1_555
Co4 Ti5 3.000138 1_454
Co4 Ti3 3.021138 1_554
Co5 Ti3 2.967154 1_544
Co5 Ti0 2.967154 1_455
Co5 Ti1 2.967155 1_555
Co5 Ti4 2.967155 1_444
Co6 Ti6 2.434697 1_565
Co6 Ti7 2.434703 1_555
Ge0 Ti5 2.485393 1_555
Ge0 Ti2 2.489528 1_655
Ge0 Ti1 2.490707 1_655
Ge0 Ti4 2.490707 1_555
Ge0 Ti3 2.490708 1_655
Ge0 Ti0 2.490708 1_555
