# generated using pymatgen
data_K2Si(AuSe2)2
_symmetry_space_group_name_H-M   'P 1'
_cell_length_a   13.45626011
_cell_length_b   12.02250345
_cell_length_c   7.54888162
_cell_angle_alpha   83.52941788
_cell_angle_beta   62.59300080
_cell_angle_gamma   33.87758811
_symmetry_Int_Tables_number   1
_chemical_formula_structural   K2Si(AuSe2)2
_chemical_formula_sum   'K4 Si2 Au4 Se8'
_cell_volume   506.87901825
_cell_formula_units_Z   2
loop_
 _symmetry_equiv_pos_site_id
 _symmetry_equiv_pos_as_xyz
  1  'x, y, z'
loop_
 _atom_site_type_symbol
 _atom_site_label
 _atom_site_symmetry_multiplicity
 _atom_site_fract_x
 _atom_site_fract_y
 _atom_site_fract_z
 _atom_site_occupancy
  K  K0  1  0.31892843  0.31892843  0.68107157  1
  K  K1  1  0.68107157  0.68107157  0.31892843  1
  K  K2  1  0.93107157  0.93107157  0.56892843  1
  K  K3  1  0.56892843  0.56892843  0.93107157  1
  Si  Si0  1  0.50000000  0.50000000  0.50000000  1
  Si  Si1  1  0.75000000  0.75000000  0.75000000  1
  Au  Au0  1  0.93421151  0.93421151  0.06578849  1
  Au  Au1  1  0.06578849  0.06578849  0.93421151  1
  Au  Au2  1  0.31578849  0.31578849  0.18421151  1
  Au  Au3  1  0.18421151  0.18421151  0.31578849  1
  Se  Se0  1  0.53028735  0.35515003  0.26174855  1
  Se  Se1  1  0.85281408  0.26174855  0.35515003  1
  Se  Se2  1  0.26174855  0.85281408  0.53028735  1
  Se  Se3  1  0.35515003  0.53028735  0.85281408  1
  Se  Se4  1  0.71971265  0.89484997  0.98825145  1
  Se  Se5  1  0.39718592  0.98825145  0.89484997  1
  Se  Se6  1  0.98825145  0.39718592  0.71971265  1
  Se  Se7  1  0.89484997  0.71971265  0.39718592  1
loop_
_geom_bond_atom_site_label_1
_geom_bond_atom_site_label_2
_geom_bond_distance
_geom_bond_site_symmetry_2
K0 Se3 3.428728 1_555
K0 Se0 3.428728 1_555
K0 Se4 3.469414 1_455
K0 Se7 3.469414 1_545
K0 Se6 3.561649 1_455
K0 Se5 3.561650 1_545
K1 Se2 3.428728 1_555
K1 Se1 3.428728 1_555
K1 Se5 3.469414 1_555
K1 Se6 3.469414 1_554
K1 Se7 3.561649 1_555
K1 Se4 3.561650 1_554
K2 Se7 3.428728 1_555
K2 Se4 3.428728 1_555
K2 Se0 3.469414 1_655
K2 Se3 3.469414 1_565
K2 Se2 3.561649 1_655
K2 Se1 3.561650 1_565
K3 Se6 3.428728 1_555
K3 Se5 3.428728 1_555
K3 Se1 3.469414 1_555
K3 Se2 3.469414 1_556
K3 Se3 3.561649 1_555
K3 Se0 3.561650 1_556
Au0 Se3 2.439956 1_654
Au0 Se0 2.439956 1_565
Au0 Au1 3.049783 1_664
Au0 K2 3.775142 1_554
Au0 K2 3.775142 1_555
Au1 Se2 2.439956 1_545
Au1 Se1 2.439956 1_456
Au1 K3 3.775142 1_545
Au1 K3 3.775142 1_455
Au2 Se7 2.439956 1_455
Au2 Se4 2.439956 1_544
Au2 Au3 3.049783 1_555
Au2 K0 3.775142 1_555
Au2 K0 3.775142 1_554
Au3 Se6 2.439956 1_455
Au3 Se5 2.439956 1_544
Au3 K1 3.775142 1_455
Au3 K1 3.775142 1_545
Se0 Si0 2.299156 1_555
Se1 Si0 2.299156 1_555
Se2 Si0 2.299156 1_555
Se3 Si0 2.299156 1_555
Se4 Si1 2.299156 1_555
Se5 Si1 2.299156 1_555
Se6 Si1 2.299156 1_555
Se7 Si1 2.299156 1_555
