# generated using pymatgen
data_NaLu(NbSe2)8
_symmetry_space_group_name_H-M   'P 1'
_cell_length_a   7.02280703
_cell_length_b   7.02280709
_cell_length_c   14.50442248
_cell_angle_alpha   90.00000000
_cell_angle_beta   90.00000000
_cell_angle_gamma   119.99999974
_symmetry_Int_Tables_number   1
_chemical_formula_structural   NaLu(NbSe2)8
_chemical_formula_sum   'Na1 Lu1 Nb8 Se16'
_cell_volume   619.51602974
_cell_formula_units_Z   1
loop_
 _symmetry_equiv_pos_site_id
 _symmetry_equiv_pos_as_xyz
  1  'x, y, z'
loop_
 _atom_site_type_symbol
 _atom_site_label
 _atom_site_symmetry_multiplicity
 _atom_site_fract_x
 _atom_site_fract_y
 _atom_site_fract_z
 _atom_site_occupancy
  Na  Na0  1  0.00000000  0.00000000  0.00000000  1
  Lu  Lu0  1  0.00000000  0.00000000  0.50000000  1
  Nb  Nb0  1  0.97930412  0.48965206  0.26099597  1
  Nb  Nb1  1  0.02069588  0.51034794  0.73900403  1
  Nb  Nb2  1  0.48965206  0.51034794  0.73900403  1
  Nb  Nb3  1  0.51034794  0.02069588  0.26099597  1
  Nb  Nb4  1  0.00000000  0.00000000  0.73921514  1
  Nb  Nb5  1  0.00000000  0.00000000  0.26078486  1
  Nb  Nb6  1  0.51034794  0.48965206  0.26099597  1
  Nb  Nb7  1  0.48965206  0.97930412  0.73900403  1
  Se  Se0  1  0.33333300  0.66666700  0.61846154  1
  Se  Se1  1  0.66666700  0.33333300  0.14099988  1
  Se  Se2  1  0.66666700  0.33333300  0.38153846  1
  Se  Se3  1  0.33333300  0.66666700  0.85900012  1
  Se  Se4  1  0.16940760  0.33881720  0.37435692  1
  Se  Se5  1  0.83128180  0.16871820  0.85114925  1
  Se  Se6  1  0.33743839  0.16871820  0.85114925  1
  Se  Se7  1  0.66118280  0.83059240  0.37435692  1
  Se  Se8  1  0.16940760  0.83059240  0.37435692  1
  Se  Se9  1  0.83128180  0.66256161  0.85114925  1
  Se  Se10  1  0.16871820  0.33743839  0.14885075  1
  Se  Se11  1  0.83059240  0.16940760  0.62564308  1
  Se  Se12  1  0.33881720  0.16940760  0.62564308  1
  Se  Se13  1  0.66256161  0.83128180  0.14885075  1
  Se  Se14  1  0.16871820  0.83128180  0.14885075  1
  Se  Se15  1  0.83059240  0.66118280  0.62564308  1
loop_
_geom_bond_atom_site_label_1
_geom_bond_atom_site_label_2
_geom_bond_distance
_geom_bond_site_symmetry_2
Na0 Se14 2.978766 1_545
Na0 Se5 2.978766 1_454
Na0 Se13 2.978774 1_445
Na0 Se6 2.978774 1_554
Na0 Se10 2.978774 1_555
Na0 Se9 2.978774 1_444
Lu0 Se11 2.750881 1_455
Lu0 Se8 2.750881 1_545
Lu0 Se12 2.750891 1_555
Lu0 Se7 2.750891 1_445
Lu0 Se15 2.750891 1_445
Lu0 Se4 2.750891 1_555
Nb0 Se1 2.577734 1_555
Nb0 Se2 2.583092 1_555
Nb0 Se10 2.641962 1_655
Nb0 Se14 2.641972 1_655
Nb0 Se4 2.649941 1_655
Nb0 Se8 2.649950 1_655
Nb1 Se3 2.577734 1_555
Nb1 Se0 2.583092 1_555
Nb1 Se9 2.641962 1_455
Nb1 Se5 2.641972 1_455
Nb1 Se15 2.649941 1_455
Nb1 Se11 2.649950 1_455
Nb2 Se3 2.577738 1_555
Nb2 Se0 2.583096 1_555
Nb2 Se9 2.641972 1_555
Nb2 Se6 2.641972 1_555
Nb2 Se15 2.649951 1_555
Nb2 Se12 2.649951 1_555
Nb3 Se1 2.577734 1_555
Nb3 Se2 2.583092 1_555
Nb3 Se13 2.641962 1_545
Nb3 Se14 2.641972 1_545
Nb3 Se7 2.649941 1_545
Nb3 Se8 2.649950 1_545
Nb4 Se5 2.616805 1_455
Nb4 Se6 2.616815 1_555
Nb4 Se9 2.616815 1_445
Nb4 Se11 2.638156 1_455
Nb4 Se12 2.638165 1_555
Nb4 Se15 2.638165 1_445
Nb5 Se14 2.616805 1_545
Nb5 Se13 2.616815 1_445
Nb5 Se10 2.616815 1_555
Nb5 Se8 2.638156 1_545
Nb5 Se7 2.638165 1_445
Nb5 Se4 2.638165 1_555
Nb6 Se1 2.577738 1_555
Nb6 Se2 2.583096 1_555
Nb6 Se10 2.641972 1_555
Nb6 Se13 2.641972 1_555
Nb6 Se4 2.649951 1_555
Nb6 Se7 2.649951 1_555
Nb7 Se3 2.577734 1_555
Nb7 Se0 2.583092 1_555
Nb7 Se6 2.641962 1_565
Nb7 Se5 2.641972 1_565
Nb7 Se12 2.649941 1_565
Nb7 Se11 2.649950 1_565
