# generated using pymatgen
data_Tl2(SbO3)3
_symmetry_space_group_name_H-M   'P 1'
_cell_length_a   9.59075300
_cell_length_b   9.59075300
_cell_length_c   9.59075300
_cell_angle_alpha   90.00000000
_cell_angle_beta   90.00000000
_cell_angle_gamma   90.00000000
_symmetry_Int_Tables_number   1
_chemical_formula_structural   Tl2(SbO3)3
_chemical_formula_sum   'Tl8 Sb12 O36'
_cell_volume   882.18185125
_cell_formula_units_Z   4
loop_
 _symmetry_equiv_pos_site_id
 _symmetry_equiv_pos_as_xyz
  1  'x, y, z'
loop_
 _atom_site_type_symbol
 _atom_site_label
 _atom_site_symmetry_multiplicity
 _atom_site_fract_x
 _atom_site_fract_y
 _atom_site_fract_z
 _atom_site_occupancy
  Tl  Tl0  1  0.63854700  0.36145300  0.63854700  1
  Tl  Tl1  1  0.36145300  0.63854700  0.63854700  1
  Tl  Tl2  1  0.63854700  0.63854700  0.36145300  1
  Tl  Tl3  1  0.36145300  0.36145300  0.36145300  1
  Tl  Tl4  1  0.86145300  0.13854700  0.86145300  1
  Tl  Tl5  1  0.13854700  0.86145300  0.86145300  1
  Tl  Tl6  1  0.86145300  0.86145300  0.13854700  1
  Tl  Tl7  1  0.13854700  0.13854700  0.13854700  1
  Sb  Sb0  1  0.83732600  0.00000000  0.50000000  1
  Sb  Sb1  1  0.00000000  0.50000000  0.83732600  1
  Sb  Sb2  1  0.50000000  0.83732600  0.00000000  1
  Sb  Sb3  1  0.00000000  0.50000000  0.16267400  1
  Sb  Sb4  1  0.50000000  0.16267400  0.00000000  1
  Sb  Sb5  1  0.16267400  0.00000000  0.50000000  1
  Sb  Sb6  1  0.66267400  0.50000000  0.00000000  1
  Sb  Sb7  1  0.50000000  0.00000000  0.66267400  1
  Sb  Sb8  1  0.00000000  0.66267400  0.50000000  1
  Sb  Sb9  1  0.50000000  0.00000000  0.33732600  1
  Sb  Sb10  1  0.00000000  0.33732600  0.50000000  1
  Sb  Sb11  1  0.33732600  0.50000000  0.00000000  1
  O  O0  1  0.78872200  0.50587500  0.16444900  1
  O  O1  1  0.78872200  0.49412500  0.83555100  1
  O  O2  1  0.21127800  0.50587500  0.83555100  1
  O  O3  1  0.49412500  0.83555100  0.78872200  1
  O  O4  1  0.83555100  0.21127800  0.50587500  1
  O  O5  1  0.83555100  0.78872200  0.49412500  1
  O  O6  1  0.50587500  0.16444900  0.78872200  1
  O  O7  1  0.16444900  0.78872200  0.50587500  1
  O  O8  1  0.50587500  0.83555100  0.21127800  1
  O  O9  1  0.49412500  0.16444900  0.21127800  1
  O  O10  1  0.16444900  0.21127800  0.49412500  1
  O  O11  1  0.21127800  0.49412500  0.16444900  1
  O  O12  1  0.71127800  0.99412500  0.33555100  1
  O  O13  1  0.71127800  0.00587500  0.66444900  1
  O  O14  1  0.28872200  0.99412500  0.66444900  1
  O  O15  1  0.00587500  0.66444900  0.71127800  1
  O  O16  1  0.66444900  0.28872200  0.99412500  1
  O  O17  1  0.66444900  0.71127800  0.00587500  1
  O  O18  1  0.99412500  0.33555100  0.71127800  1
  O  O19  1  0.33555100  0.71127800  0.99412500  1
  O  O20  1  0.36310900  0.00000000  0.00000000  1
  O  O21  1  0.00000000  0.36310900  0.00000000  1
  O  O22  1  0.00000000  0.00000000  0.36310900  1
  O  O23  1  0.00000000  0.63689100  0.00000000  1
  O  O24  1  0.00000000  0.00000000  0.63689100  1
  O  O25  1  0.63689100  0.00000000  0.00000000  1
  O  O26  1  0.13689100  0.50000000  0.50000000  1
  O  O27  1  0.50000000  0.13689100  0.50000000  1
  O  O28  1  0.50000000  0.50000000  0.13689100  1
  O  O29  1  0.50000000  0.86310900  0.50000000  1
  O  O30  1  0.50000000  0.50000000  0.86310900  1
  O  O31  1  0.86310900  0.50000000  0.50000000  1
  O  O32  1  0.28872200  0.00587500  0.33555100  1
  O  O33  1  0.33555100  0.28872200  0.00587500  1
  O  O34  1  0.00587500  0.33555100  0.28872200  1
  O  O35  1  0.99412500  0.66444900  0.28872200  1
loop_
_geom_bond_atom_site_label_1
_geom_bond_atom_site_label_2
_geom_bond_distance
_geom_bond_site_symmetry_2
O0 Sb6 1.987996 1_555
O0 Sb3 2.027170 1_655
O0 Tl2 2.695069 1_555
O1 Sb6 1.987996 1_556
O1 Sb1 2.027170 1_655
O1 Tl0 2.695069 1_555
O2 Sb11 1.987996 1_556
O2 Sb1 2.027170 1_555
O2 Tl1 2.695069 1_555
O3 Sb7 1.987996 1_565
O3 Sb2 2.027170 1_556
O3 Tl1 2.695069 1_555
O4 Sb10 1.987996 1_655
O4 Sb0 2.027170 1_555
O4 Tl0 2.695069 1_555
O5 Sb8 1.987996 1_655
O5 Sb0 2.027170 1_565
O5 Tl2 2.695069 1_555
O6 Sb7 1.987996 1_555
O6 Sb4 2.027170 1_556
O6 Tl0 2.695069 1_555
O7 Sb8 1.987996 1_555
O7 Sb5 2.027170 1_565
O7 Tl1 2.695069 1_555
O8 Sb9 1.987996 1_565
O8 Sb2 2.027170 1_555
O8 Tl2 2.695069 1_555
O9 Sb9 1.987996 1_555
O9 Sb4 2.027170 1_555
O9 Tl3 2.695069 1_555
O10 Sb10 1.987996 1_555
O10 Sb5 2.027170 1_555
O10 Tl3 2.695069 1_555
O11 Sb11 1.987996 1_555
O11 Sb3 2.027170 1_555
O11 Tl3 2.695069 1_555
O12 Sb0 1.987996 1_565
O12 Sb9 2.027170 1_565
O12 Tl6 2.695069 1_555
O13 Sb0 1.987996 1_555
O13 Sb7 2.027170 1_555
O13 Tl4 2.695069 1_555
O14 Sb5 1.987996 1_565
O14 Sb7 2.027170 1_565
O14 Tl5 2.695069 1_555
O15 Sb1 1.987996 1_555
O15 Sb8 2.027170 1_555
O15 Tl5 2.695069 1_555
O16 Sb4 1.987996 1_556
O16 Sb6 2.027170 1_556
O16 Tl4 2.695069 1_555
O17 Sb2 1.987996 1_555
O17 Sb6 2.027170 1_555
O17 Tl6 2.695069 1_555
O18 Sb1 1.987996 1_655
O18 Sb10 2.027170 1_655
O18 Tl4 2.695069 1_555
O19 Sb2 1.987996 1_556
O19 Sb11 2.027170 1_556
O19 Tl5 2.695069 1_555
O20 Sb2 2.039067 1_545
O20 Sb4 2.039067 1_555
O20 Tl5 2.858280 1_544
O20 Tl7 2.858280 1_555
O21 Sb1 2.039067 1_554
O21 Sb3 2.039067 1_555
O21 Tl4 2.858280 1_454
O21 Tl7 2.858280 1_555
O22 Sb0 2.039067 1_455
O22 Sb5 2.039067 1_555
O22 Tl7 2.858280 1_555
O22 Tl6 2.858280 1_445
O23 Sb1 2.039067 1_554
O23 Sb3 2.039067 1_555
O23 Tl5 2.858280 1_554
O23 Tl6 2.858280 1_455
O24 Sb0 2.039067 1_455
O24 Sb5 2.039067 1_555
O24 Tl5 2.858280 1_545
O24 Tl4 2.858280 1_455
O25 Sb2 2.039067 1_545
O25 Sb4 2.039067 1_555
O25 Tl4 2.858280 1_554
O25 Tl6 2.858280 1_545
O26 Sb10 2.039067 1_555
O26 Sb8 2.039067 1_555
O26 Tl1 2.858280 1_555
O26 Tl3 2.858280 1_555
O27 Sb9 2.039067 1_555
O27 Sb7 2.039067 1_555
O27 Tl0 2.858280 1_555
O27 Tl3 2.858280 1_555
O28 Sb6 2.039067 1_555
O28 Sb11 2.039067 1_555
O28 Tl2 2.858280 1_555
O28 Tl3 2.858280 1_555
O29 Sb9 2.039067 1_565
O29 Sb7 2.039067 1_565
O29 Tl1 2.858280 1_555
O29 Tl2 2.858280 1_555
O30 Sb11 2.039067 1_556
O30 Sb6 2.039067 1_556
O30 Tl0 2.858280 1_555
O30 Tl1 2.858280 1_555
O31 Sb8 2.039067 1_655
O31 Sb10 2.039067 1_655
O31 Tl0 2.858280 1_555
O31 Tl2 2.858280 1_555
O32 Sb5 1.987996 1_555
O32 Sb9 2.027170 1_555
O32 Tl7 2.695069 1_555
O33 Sb4 1.987996 1_555
O33 Sb11 2.027170 1_555
O33 Tl7 2.695069 1_555
O34 Sb3 1.987996 1_555
O34 Sb10 2.027170 1_555
O34 Tl7 2.695069 1_555
O35 Sb3 1.987996 1_655
O35 Sb8 2.027170 1_655
O35 Tl6 2.695069 1_555
