# generated using pymatgen
data_LiMg2IO6
_symmetry_space_group_name_H-M   'P 1'
_cell_length_a   5.08652440
_cell_length_b   5.02501137
_cell_length_c   8.42813549
_cell_angle_alpha   90.00000000
_cell_angle_beta   90.00570510
_cell_angle_gamma   90.00000000
_symmetry_Int_Tables_number   1
_chemical_formula_structural   LiMg2IO6
_chemical_formula_sum   'Li2 Mg4 I2 O12'
_cell_volume   215.42181835
_cell_formula_units_Z   2
loop_
 _symmetry_equiv_pos_site_id
 _symmetry_equiv_pos_as_xyz
  1  'x, y, z'
loop_
 _atom_site_type_symbol
 _atom_site_label
 _atom_site_symmetry_multiplicity
 _atom_site_fract_x
 _atom_site_fract_y
 _atom_site_fract_z
 _atom_site_occupancy
  Li  Li0  1  0.50000000  0.50000000  0.00000000  1
  Li  Li1  1  0.00000000  0.00000000  0.50000000  1
  Mg  Mg0  1  0.49984727  0.99889281  0.79595192  1
  Mg  Mg1  1  0.00015273  0.49889281  0.70404808  1
  Mg  Mg2  1  0.50015273  0.00110719  0.20404808  1
  Mg  Mg3  1  0.99984727  0.50110719  0.29595192  1
  I  I0  1  0.50000000  0.50000000  0.50000000  1
  I  I1  1  0.00000000  0.00000000  0.00000000  1
  O  O0  1  0.34155159  0.28497681  0.65574441  1
  O  O1  1  0.15844841  0.78497681  0.84425559  1
  O  O2  1  0.65844841  0.71502319  0.34425559  1
  O  O3  1  0.84155159  0.21502319  0.15574441  1
  O  O4  1  0.65840775  0.71227339  0.65703272  1
  O  O5  1  0.84159225  0.21227339  0.84296728  1
  O  O6  1  0.34159225  0.28772661  0.34296728  1
  O  O7  1  0.15840775  0.78772661  0.15703272  1
  O  O8  1  0.19004149  0.69395147  0.50066991  1
  O  O9  1  0.30995851  0.19395147  0.99933009  1
  O  O10  1  0.80995851  0.30604853  0.49933009  1
  O  O11  1  0.69004149  0.80604853  0.00066991  1
loop_
_geom_bond_atom_site_label_1
_geom_bond_atom_site_label_2
_geom_bond_distance
_geom_bond_site_symmetry_2
Li0 O11 1.816473 1_555
Li0 O9 1.816473 1_554
Li0 O3 2.606043 1_555
Li0 O1 2.606043 1_554
Li1 O10 1.816473 1_455
Li1 O8 1.816473 1_545
Li1 O0 2.606043 1_555
Li1 O2 2.606043 1_445
Mg0 O4 2.023826 1_555
Mg0 O0 2.027591 1_565
Mg0 O5 2.080443 1_565
Mg0 O1 2.082523 1_555
Mg0 O9 2.198207 1_565
Mg0 O11 2.202636 1_556
Mg1 O5 2.023826 1_455
Mg1 O1 2.027591 1_555
Mg1 O4 2.080443 1_455
Mg1 O0 2.082523 1_555
Mg1 O8 2.198207 1_555
Mg1 O10 2.202636 1_455
Mg2 O6 2.023826 1_555
Mg2 O2 2.027591 1_545
Mg2 O7 2.080443 1_545
Mg2 O3 2.082523 1_555
Mg2 O11 2.198207 1_545
Mg2 O9 2.202636 1_554
Mg3 O7 2.023826 1_655
Mg3 O3 2.027591 1_555
Mg3 O6 2.080443 1_655
Mg3 O2 2.082523 1_555
Mg3 O10 2.198207 1_555
Mg3 O8 2.202636 1_655
I0 O10 1.853537 1_555
I0 O8 1.853537 1_555
I0 O4 1.881075 1_555
I0 O6 1.881075 1_555
I0 O0 1.881554 1_555
I0 O2 1.881554 1_555
I1 O9 1.853537 1_554
I1 O11 1.853537 1_445
I1 O7 1.881075 1_545
I1 O5 1.881075 1_454
I1 O3 1.881554 1_455
I1 O1 1.881554 1_544
