# generated using pymatgen
data_RbBaNbO4
_symmetry_space_group_name_H-M   'P 1'
_cell_length_a   6.33465647
_cell_length_b   8.03471095
_cell_length_c   10.78512949
_cell_angle_alpha   90.00000000
_cell_angle_beta   90.00000000
_cell_angle_gamma   90.00000000
_symmetry_Int_Tables_number   1
_chemical_formula_structural   RbBaNbO4
_chemical_formula_sum   'Rb4 Ba4 Nb4 O16'
_cell_volume   548.93217778
_cell_formula_units_Z   4
loop_
 _symmetry_equiv_pos_site_id
 _symmetry_equiv_pos_as_xyz
  1  'x, y, z'
loop_
 _atom_site_type_symbol
 _atom_site_label
 _atom_site_symmetry_multiplicity
 _atom_site_fract_x
 _atom_site_fract_y
 _atom_site_fract_z
 _atom_site_occupancy
  Rb  Rb0  1  0.25000000  0.83934704  0.42579950  1
  Rb  Rb1  1  0.75000000  0.16065296  0.57420050  1
  Rb  Rb2  1  0.25000000  0.33934704  0.07420050  1
  Rb  Rb3  1  0.75000000  0.66065296  0.92579950  1
  Ba  Ba0  1  0.25000000  0.49585757  0.70582203  1
  Ba  Ba1  1  0.75000000  0.50414243  0.29417797  1
  Ba  Ba2  1  0.25000000  0.99585757  0.79417797  1
  Ba  Ba3  1  0.75000000  0.00414243  0.20582203  1
  Nb  Nb0  1  0.25000000  0.27900229  0.41513065  1
  Nb  Nb1  1  0.75000000  0.72099771  0.58486935  1
  Nb  Nb2  1  0.25000000  0.77900229  0.08486935  1
  Nb  Nb3  1  0.75000000  0.22099771  0.91513065  1
  O  O0  1  0.50577703  0.77820275  0.67408944  1
  O  O1  1  0.00577703  0.22179725  0.32591056  1
  O  O2  1  0.99422297  0.27820275  0.82591056  1
  O  O3  1  0.49422297  0.72179725  0.17408944  1
  O  O4  1  0.49422297  0.22179725  0.32591056  1
  O  O5  1  0.99422297  0.77820275  0.67408944  1
  O  O6  1  0.00577703  0.72179725  0.17408944  1
  O  O7  1  0.50577703  0.27820275  0.82591056  1
  O  O8  1  0.25000000  0.17532283  0.57115290  1
  O  O9  1  0.75000000  0.82467717  0.42884710  1
  O  O10  1  0.25000000  0.67532283  0.92884710  1
  O  O11  1  0.75000000  0.32467717  0.07115290  1
  O  O12  1  0.75000000  0.99403606  0.94470167  1
  O  O13  1  0.25000000  0.00596394  0.05529833  1
  O  O14  1  0.75000000  0.49403606  0.55529833  1
  O  O15  1  0.25000000  0.50596394  0.44470167  1
loop_
_geom_bond_atom_site_label_1
_geom_bond_atom_site_label_2
_geom_bond_distance
_geom_bond_site_symmetry_2
Ba0 O7 2.713114 1_555
Ba0 O2 2.713114 1_455
Ba0 O10 2.804452 1_555
Ba0 O0 2.808691 1_555
Ba0 O5 2.808691 1_455
Ba0 O15 2.817387 1_555
Ba0 O8 2.956728 1_555
Ba1 O6 2.713114 1_655
Ba1 O3 2.713114 1_555
Ba1 O11 2.804452 1_555
Ba1 O1 2.808691 1_655
Ba1 O4 2.808691 1_555
Ba1 O14 2.817387 1_555
Ba1 O9 2.956728 1_555
Ba2 O0 2.713114 1_555
Ba2 O5 2.713114 1_455
Ba2 O8 2.804452 1_565
Ba2 O7 2.808691 1_565
Ba2 O2 2.808691 1_465
Ba2 O13 2.817387 1_566
Ba2 O10 2.956728 1_555
Ba3 O1 2.713114 1_655
Ba3 O4 2.713114 1_555
Ba3 O9 2.804452 1_545
Ba3 O6 2.808691 1_645
Ba3 O3 2.808691 1_545
Ba3 O12 2.817387 1_544
Ba3 O11 2.956728 1_555
Nb0 O15 1.851250 1_555
Nb0 O8 1.877630 1_555
Nb0 O4 1.878990 1_555
Nb0 O1 1.878990 1_555
Nb1 O14 1.851250 1_555
Nb1 O9 1.877630 1_555
Nb1 O5 1.878990 1_555
Nb1 O0 1.878990 1_555
Nb2 O13 1.851250 1_565
Nb2 O10 1.877630 1_554
Nb2 O3 1.878990 1_555
Nb2 O6 1.878990 1_555
Nb3 O12 1.851250 1_545
Nb3 O11 1.877630 1_556
Nb3 O2 1.878990 1_555
Nb3 O7 1.878990 1_555
O0 Rb0 3.168188 1_555
O0 Rb3 3.264230 1_555
O1 Rb1 3.168188 1_455
O1 Rb2 3.264230 1_555
O2 Rb2 3.168188 1_656
O2 Rb1 3.264230 1_555
O3 Rb3 3.168188 1_554
O3 Rb0 3.264230 1_555
O4 Rb1 3.168188 1_555
O4 Rb2 3.264230 1_555
O5 Rb0 3.168188 1_655
O5 Rb3 3.264230 1_555
O6 Rb3 3.168188 1_454
O6 Rb0 3.264230 1_555
O7 Rb2 3.168188 1_556
O7 Rb1 3.264230 1_555
O8 Rb0 3.121646 1_545
O8 Rb1 3.169691 1_455
O8 Rb1 3.169691 1_555
O9 Rb1 3.121646 1_565
O9 Rb0 3.169691 1_555
O9 Rb0 3.169691 1_655
O10 Rb2 3.121646 1_556
O10 Rb3 3.169691 1_555
O10 Rb3 3.169691 1_455
O11 Rb3 3.121646 1_554
O11 Rb2 3.169691 1_655
O11 Rb2 3.169691 1_555
O12 Rb3 2.686383 1_555
O13 Rb2 2.686383 1_555
O14 Rb1 2.686383 1_555
O15 Rb0 2.686383 1_555
