# generated using pymatgen
data_Hf3Zr3(CuN)2
_symmetry_space_group_name_H-M   'P 1'
_cell_length_a   8.84434649
_cell_length_b   5.77801545
_cell_length_c   5.77801511
_cell_angle_alpha   33.09266926
_cell_angle_beta   89.67280137
_cell_angle_gamma   89.67280232
_symmetry_Int_Tables_number   1
_chemical_formula_structural   Hf3Zr3(CuN)2
_chemical_formula_sum   'Hf3 Zr3 Cu2 N2'
_cell_volume   161.21442538
_cell_formula_units_Z   1
loop_
 _symmetry_equiv_pos_site_id
 _symmetry_equiv_pos_as_xyz
  1  'x, y, z'
loop_
 _atom_site_type_symbol
 _atom_site_label
 _atom_site_symmetry_multiplicity
 _atom_site_fract_x
 _atom_site_fract_y
 _atom_site_fract_z
 _atom_site_occupancy
  Hf  Hf0  1  0.69776137  0.37047444  0.37047444  1
  Hf  Hf1  1  0.19467925  0.62965764  0.62965764  1
  Hf  Hf2  1  0.80303470  0.62907737  0.62907737  1
  Zr  Zr0  1  0.49924525  0.05754334  0.05754334  1
  Zr  Zr1  1  0.30441268  0.36932779  0.36932779  1
  Zr  Zr2  1  0.00063998  0.94255106  0.94255106  1
  Cu  Cu0  1  0.99673415  0.24542961  0.24542961  1
  Cu  Cu1  1  0.50481813  0.75273601  0.75273601  1
  N  N0  1  0.24870265  0.00335983  0.00335983  1
  N  N1  1  0.74997285  0.99972190  0.99972190  1
loop_
_geom_bond_atom_site_label_1
_geom_bond_atom_site_label_2
_geom_bond_distance
_geom_bond_site_symmetry_2
Hf0 N1 2.231309 1_545
Hf0 N1 2.231309 1_554
Hf1 N0 2.210307 1_565
Hf1 N0 2.210307 1_556
Hf2 N1 2.233675 1_554
Hf2 N1 2.233675 1_545
Cu0 Hf2 2.707428 1_554
Cu0 Hf2 2.707428 1_545
Cu0 Hf1 2.718574 1_654
Cu0 Hf1 2.718574 1_645
Cu0 Zr2 2.734593 1_645
Cu0 Zr2 2.734594 1_654
Cu0 Hf0 2.977748 1_555
Cu0 Zr1 3.055032 1_655
Cu1 Hf0 2.710595 1_556
Cu1 Hf0 2.710595 1_565
Cu1 Zr0 2.717858 1_565
Cu1 Zr0 2.717859 1_556
Cu1 Zr1 2.736816 1_556
Cu1 Zr1 2.736816 1_565
Cu1 Hf2 2.964785 1_555
Cu1 Hf1 3.070396 1_555
N0 Zr1 2.268536 1_554
N0 Zr1 2.268536 1_545
N0 Zr2 2.298866 1_544
N0 Zr0 2.299186 1_555
N1 Zr2 2.302039 1_655
N1 Zr0 2.304505 1_566
