# generated using pymatgen
data_LiCa3Bi2H
_symmetry_space_group_name_H-M   'P 1'
_cell_length_a   4.62350074
_cell_length_b   12.29649909
_cell_length_c   12.49302107
_cell_angle_alpha   90.00000000
_cell_angle_beta   90.00000000
_cell_angle_gamma   90.00000000
_symmetry_Int_Tables_number   1
_chemical_formula_structural   LiCa3Bi2H
_chemical_formula_sum   'Li4 Ca12 Bi8 H4'
_cell_volume   710.26413487
_cell_formula_units_Z   4
loop_
 _symmetry_equiv_pos_site_id
 _symmetry_equiv_pos_as_xyz
  1  'x, y, z'
loop_
 _atom_site_type_symbol
 _atom_site_label
 _atom_site_symmetry_multiplicity
 _atom_site_fract_x
 _atom_site_fract_y
 _atom_site_fract_z
 _atom_site_occupancy
  Li  Li0  1  0.25000000  0.13182179  0.86199744  1
  Li  Li1  1  0.25000000  0.63182179  0.63800256  1
  Li  Li2  1  0.75000000  0.86817821  0.13800256  1
  Li  Li3  1  0.75000000  0.36817821  0.36199744  1
  Ca  Ca0  1  0.25000000  0.05958365  0.62487101  1
  Ca  Ca1  1  0.25000000  0.55958365  0.87512899  1
  Ca  Ca2  1  0.75000000  0.94041635  0.37512899  1
  Ca  Ca3  1  0.75000000  0.44041635  0.12487101  1
  Ca  Ca4  1  0.25000000  0.35968514  0.56358799  1
  Ca  Ca5  1  0.25000000  0.85968514  0.93641201  1
  Ca  Ca6  1  0.75000000  0.64031486  0.43641201  1
  Ca  Ca7  1  0.75000000  0.14031486  0.06358799  1
  Ca  Ca8  1  0.25000000  0.22203575  0.28656230  1
  Ca  Ca9  1  0.25000000  0.72203575  0.21343770  1
  Ca  Ca10  1  0.75000000  0.77796425  0.71343770  1
  Ca  Ca11  1  0.75000000  0.27796425  0.78656230  1
  Bi  Bi0  1  0.25000000  0.48684905  0.32307450  1
  Bi  Bi1  1  0.25000000  0.98684905  0.17692550  1
  Bi  Bi2  1  0.75000000  0.51315095  0.67692550  1
  Bi  Bi3  1  0.75000000  0.01315095  0.82307450  1
  Bi  Bi4  1  0.25000000  0.31658843  0.98808629  1
  Bi  Bi5  1  0.25000000  0.81658843  0.51191371  1
  Bi  Bi6  1  0.75000000  0.68341157  0.01191371  1
  Bi  Bi7  1  0.75000000  0.18341157  0.48808629  1
  H  H0  1  0.25000000  0.22959517  0.72098101  1
  H  H1  1  0.25000000  0.72959517  0.77901899  1
  H  H2  1  0.75000000  0.77040483  0.27901899  1
  H  H3  1  0.75000000  0.27040483  0.22098101  1
loop_
_geom_bond_atom_site_label_1
_geom_bond_atom_site_label_2
_geom_bond_distance
_geom_bond_site_symmetry_2
Ca0 H0 2.410825 1_555
Ca1 H1 2.410825 1_555
Ca2 H2 2.410825 1_555
Ca3 H3 2.410825 1_555
Ca4 H0 2.534813 1_555
Ca5 H1 2.534813 1_555
Ca6 H2 2.534813 1_555
Ca7 H3 2.534813 1_555
Ca8 H3 2.523729 1_455
Ca8 H3 2.523729 1_555
Ca9 H2 2.523729 1_555
Ca9 H2 2.523729 1_455
Ca10 H1 2.523729 1_655
Ca10 H1 2.523729 1_555
Ca11 H0 2.523729 1_555
Ca11 H0 2.523729 1_655
Bi0 Li3 2.776691 1_555
Bi0 Li3 2.776691 1_455
Bi0 Ca9 3.199933 1_555
Bi0 Ca8 3.288070 1_555
Bi0 Ca6 3.303053 1_555
Bi0 Ca6 3.303053 1_455
Bi0 Ca4 3.387260 1_555
Bi0 Ca3 3.435339 1_455
Bi0 Ca3 3.435339 1_555
Bi1 Li2 2.776691 1_455
Bi1 Li2 2.776691 1_555
Bi1 Ca8 3.199933 1_565
Bi1 Ca9 3.288070 1_555
Bi1 Ca7 3.303053 1_565
Bi1 Ca7 3.303053 1_465
Bi1 Ca5 3.387260 1_554
Bi1 Ca2 3.435339 1_455
Bi1 Ca2 3.435339 1_555
Bi2 Li1 2.776691 1_655
Bi2 Li1 2.776691 1_555
Bi2 Ca11 3.199933 1_555
Bi2 Ca10 3.288070 1_555
Bi2 Ca4 3.303053 1_555
Bi2 Ca4 3.303053 1_655
Bi2 Ca6 3.387260 1_555
Bi2 Ca1 3.435339 1_555
Bi2 Ca1 3.435339 1_655
Bi3 Li0 2.776691 1_555
Bi3 Li0 2.776691 1_655
Bi3 Ca10 3.199933 1_545
Bi3 Ca11 3.288070 1_555
Bi3 Ca5 3.303053 1_645
Bi3 Ca5 3.303053 1_545
Bi3 Ca7 3.387260 1_556
Bi3 Ca0 3.435339 1_655
Bi3 Ca0 3.435339 1_555
Bi4 Li0 2.764644 1_555
Bi4 Ca3 3.253127 1_556
Bi4 Ca3 3.253127 1_456
Bi4 Ca1 3.304468 1_555
Bi4 Ca7 3.306382 1_556
Bi4 Ca7 3.306382 1_456
Bi4 Ca11 3.450839 1_455
Bi4 Ca11 3.450839 1_555
Bi5 Li1 2.764644 1_555
Bi5 Ca2 3.253127 1_555
Bi5 Ca2 3.253127 1_455
Bi5 Ca0 3.304468 1_565
Bi5 Ca6 3.306382 1_455
Bi5 Ca6 3.306382 1_555
Bi5 Ca10 3.450839 1_455
Bi5 Ca10 3.450839 1_555
Bi6 Li2 2.764644 1_555
Bi6 Ca1 3.253127 1_554
Bi6 Ca1 3.253127 1_654
Bi6 Ca3 3.304468 1_555
Bi6 Ca5 3.306382 1_554
Bi6 Ca5 3.306382 1_654
Bi6 Ca9 3.450839 1_655
Bi6 Ca9 3.450839 1_555
Bi7 Li3 2.764644 1_555
Bi7 Ca0 3.253127 1_655
Bi7 Ca0 3.253127 1_555
Bi7 Ca2 3.304468 1_545
Bi7 Ca4 3.306382 1_555
Bi7 Ca4 3.306382 1_655
Bi7 Ca8 3.450839 1_555
Bi7 Ca8 3.450839 1_655
H0 Li0 2.132866 1_555
H1 Li1 2.132866 1_555
H2 Li2 2.132866 1_555
H3 Li3 2.132866 1_555
