# generated using pymatgen
data_K4NiSb4Pt
_symmetry_space_group_name_H-M   'P 1'
_cell_length_a   8.01378524
_cell_length_b   8.01378587
_cell_length_c   6.29117401
_cell_angle_alpha   89.01900324
_cell_angle_beta   90.98100109
_cell_angle_gamma   127.21357417
_symmetry_Int_Tables_number   1
_chemical_formula_structural   K4NiSb4Pt
_chemical_formula_sum   'K4 Ni1 Sb4 Pt1'
_cell_volume   321.70052259
_cell_formula_units_Z   1
loop_
 _symmetry_equiv_pos_site_id
 _symmetry_equiv_pos_as_xyz
  1  'x, y, z'
loop_
 _atom_site_type_symbol
 _atom_site_label
 _atom_site_symmetry_multiplicity
 _atom_site_fract_x
 _atom_site_fract_y
 _atom_site_fract_z
 _atom_site_occupancy
  K  K0  1  0.60000369  0.39999631  0.74073902  1
  K  K1  1  0.39999631  0.60000369  0.25926098  1
  K  K2  1  0.19773484  0.80226516  0.74677373  1
  K  K3  1  0.80226516  0.19773484  0.25322627  1
  Ni  Ni0  1  0.00000000  0.00000000  0.00000000  1
  Sb  Sb0  1  0.69721211  0.90680527  0.76480302  1
  Sb  Sb1  1  0.90680527  0.69721211  0.23519698  1
  Sb  Sb2  1  0.30278789  0.09319473  0.23519698  1
  Sb  Sb3  1  0.09319473  0.30278789  0.76480302  1
  Pt  Pt0  1  0.00000000  0.00000000  0.50000000  1
loop_
_geom_bond_atom_site_label_1
_geom_bond_atom_site_label_2
_geom_bond_distance
_geom_bond_site_symmetry_2
K0 Sb3 3.649006 1_555
K0 Sb0 3.649007 1_555
K0 Sb1 3.781940 1_556
K0 Sb2 3.781940 1_556
K0 Sb2 3.841655 1_555
K0 Sb1 3.841655 1_555
K1 Sb1 3.649006 1_555
K1 Sb2 3.649007 1_555
K1 Sb3 3.781940 1_554
K1 Sb0 3.781940 1_554
K1 Sb0 3.841655 1_555
K1 Sb3 3.841655 1_555
K2 Pt0 3.209505 1_565
K2 Ni0 3.281764 1_566
K2 Sb0 3.559209 1_555
K2 Sb3 3.559209 1_555
K2 Sb2 3.656339 1_566
K2 Sb1 3.656339 1_456
K2 Sb1 3.736887 1_455
K2 Sb2 3.736887 1_565
K3 Pt0 3.209505 1_655
K3 Ni0 3.281764 1_655
K3 Sb2 3.559209 1_555
K3 Sb1 3.559209 1_555
K3 Sb0 3.656339 1_544
K3 Sb3 3.656339 1_654
K3 Sb3 3.736887 1_655
K3 Sb0 3.736887 1_545
Ni0 Sb0 2.521485 1_444
Ni0 Sb2 2.521485 1_555
Ni0 Sb1 2.521485 1_445
Ni0 Sb3 2.521485 1_554
Ni0 Pt0 3.145587 1_555
Ni0 Pt0 3.145587 1_554
Sb0 Sb3 2.821266 1_665
Sb1 Sb2 2.821266 1_665
Pt0 Sb0 2.669211 1_445
Pt0 Sb2 2.669211 1_555
Pt0 Sb3 2.669211 1_555
Pt0 Sb1 2.669211 1_445
