# generated using pymatgen
data_Sc12Co2Ni3Bi
_symmetry_space_group_name_H-M   'P 1'
_cell_length_a   7.74741348
_cell_length_b   7.74741327
_cell_length_c   7.74741291
_cell_angle_alpha   110.55088758
_cell_angle_beta   110.15144624
_cell_angle_gamma   107.72556943
_symmetry_Int_Tables_number   1
_chemical_formula_structural   Sc12Co2Ni3Bi
_chemical_formula_sum   'Sc12 Co2 Ni3 Bi1'
_cell_volume   357.71854936
_cell_formula_units_Z   1
loop_
 _symmetry_equiv_pos_site_id
 _symmetry_equiv_pos_as_xyz
  1  'x, y, z'
loop_
 _atom_site_type_symbol
 _atom_site_label
 _atom_site_symmetry_multiplicity
 _atom_site_fract_x
 _atom_site_fract_y
 _atom_site_fract_z
 _atom_site_occupancy
  Sc  Sc0  1  0.81968969  0.71957944  0.53926812  1
  Sc  Sc1  1  0.18031031  0.28042056  0.46073188  1
  Sc  Sc2  1  0.18031031  0.71957944  0.89989175  1
  Sc  Sc3  1  0.81968969  0.28042056  0.10010825  1
  Sc  Sc4  1  0.68583289  0.38016735  0.69433546  1
  Sc  Sc5  1  0.31416711  0.61983265  0.30566454  1
  Sc  Sc6  1  0.68583289  0.99149743  0.30566454  1
  Sc  Sc7  1  0.31416711  0.00850257  0.69433546  1
  Sc  Sc8  1  0.58038479  0.78136474  0.79902105  1
  Sc  Sc9  1  0.41961521  0.21863526  0.20097895  1
  Sc  Sc10  1  0.98234269  0.78136474  0.20097895  1
  Sc  Sc11  1  0.01765731  0.21863526  0.79902105  1
  Co  Co0  1  0.11794342  0.61794342  0.50000000  1
  Co  Co1  1  0.88205658  0.38205658  0.50000000  1
  Ni  Ni0  1  0.63947751  1.00000000  0.63947751  1
  Ni  Ni1  1  0.36052249  0.00000000  0.36052249  1
  Ni  Ni2  1  0.00000000  0.00000000  0.00000000  1
  Bi  Bi0  1  0.50000000  0.50000000  0.00000000  1
loop_
_geom_bond_atom_site_label_1
_geom_bond_atom_site_label_2
_geom_bond_distance
_geom_bond_site_symmetry_2
Co0 Co1 2.155446 1_455
Co0 Sc7 2.481345 1_565
Co0 Sc5 2.481346 1_555
Co0 Sc0 2.734222 1_455
Co0 Sc1 2.734225 1_555
Co0 Sc3 2.734231 1_455
Co0 Sc2 2.734239 1_555
Co0 Sc8 3.043966 1_555
Co0 Sc10 3.043973 1_455
Co1 Sc6 2.481345 1_545
Co1 Sc4 2.481346 1_555
Co1 Sc1 2.734222 1_655
Co1 Sc0 2.734225 1_555
Co1 Sc2 2.734231 1_655
Co1 Sc3 2.734239 1_555
Co1 Sc9 3.043966 1_555
Co1 Sc11 3.043973 1_655
Ni0 Sc8 2.448306 1_555
Ni0 Sc11 2.448311 1_665
Ni0 Ni1 2.474522 1_565
Ni0 Sc4 2.712264 1_565
Ni0 Sc5 2.712268 1_555
Ni0 Sc6 2.712272 1_555
Ni0 Sc7 2.712272 1_565
Ni0 Sc3 2.946444 1_566
Ni0 Sc0 2.946458 1_555
Ni1 Sc9 2.448306 1_555
Ni1 Sc10 2.448311 1_445
Ni1 Sc5 2.712264 1_545
Ni1 Sc4 2.712268 1_555
Ni1 Sc7 2.712272 1_555
Ni1 Sc6 2.712272 1_545
Ni1 Sc2 2.946444 1_544
Ni1 Sc1 2.946458 1_555
Ni2 Sc11 2.677627 1_554
Ni2 Sc10 2.677627 1_445
Ni2 Sc9 2.677633 1_555
Ni2 Sc8 2.677633 1_444
Ni2 Sc3 2.946926 1_455
Ni2 Sc2 2.946926 1_544
Ni2 Sc1 2.946935 1_555
Ni2 Sc0 2.946935 1_444
Bi0 Sc10 3.128655 1_555
Bi0 Sc11 3.128655 1_554
Bi0 Sc9 3.128660 1_555
Bi0 Sc8 3.128660 1_554
Bi0 Sc6 3.187807 1_555
Bi0 Sc7 3.187807 1_554
Bi0 Sc5 3.187809 1_555
Bi0 Sc4 3.187809 1_554
Bi0 Sc1 3.434860 1_554
Bi0 Sc0 3.434860 1_555
Bi0 Sc3 3.434864 1_555
Bi0 Sc2 3.434864 1_554
