# generated using pymatgen
data_KZn2H8Ir
_symmetry_space_group_name_H-M   'P 1'
_cell_length_a   4.82223234
_cell_length_b   4.82223234
_cell_length_c   10.18319733
_cell_angle_alpha   90.00000000
_cell_angle_beta   90.00000000
_cell_angle_gamma   90.00000000
_symmetry_Int_Tables_number   1
_chemical_formula_structural   KZn2H8Ir
_chemical_formula_sum   'K2 Zn4 H16 Ir2'
_cell_volume   236.79930467
_cell_formula_units_Z   2
loop_
 _symmetry_equiv_pos_site_id
 _symmetry_equiv_pos_as_xyz
  1  'x, y, z'
loop_
 _atom_site_type_symbol
 _atom_site_label
 _atom_site_symmetry_multiplicity
 _atom_site_fract_x
 _atom_site_fract_y
 _atom_site_fract_z
 _atom_site_occupancy
  K  K0  1  0.50000000  0.00000000  0.00000000  1
  K  K1  1  0.00000000  0.50000000  0.50000000  1
  Zn  Zn0  1  0.50000000  0.00000000  0.62686078  1
  Zn  Zn1  1  0.00000000  0.50000000  0.12686078  1
  Zn  Zn2  1  0.50000000  0.00000000  0.37313922  1
  Zn  Zn3  1  0.00000000  0.50000000  0.87313922  1
  H  H0  1  0.24523652  0.24523652  0.75000000  1
  H  H1  1  0.75476348  0.75476348  0.75000000  1
  H  H2  1  0.75476348  0.24523652  0.25000000  1
  H  H3  1  0.24523652  0.75476348  0.25000000  1
  H  H4  1  0.75476348  0.75476348  0.25000000  1
  H  H5  1  0.24523652  0.24523652  0.25000000  1
  H  H6  1  0.24523652  0.75476348  0.75000000  1
  H  H7  1  0.75476348  0.24523652  0.75000000  1
  H  H8  1  0.50000000  0.24898573  0.50000000  1
  H  H9  1  0.50000000  0.75101427  0.50000000  1
  H  H10  1  0.75101427  0.50000000  0.00000000  1
  H  H11  1  0.24898573  0.50000000  0.00000000  1
  H  H12  1  0.00000000  0.00000000  0.58766885  1
  H  H13  1  0.00000000  0.00000000  0.08766885  1
  H  H14  1  0.00000000  0.00000000  0.41233115  1
  H  H15  1  0.00000000  0.00000000  0.91233115  1
  Ir  Ir0  1  0.00000000  0.00000000  0.75000000  1
  Ir  Ir1  1  0.00000000  0.00000000  0.25000000  1
loop_
_geom_bond_atom_site_label_1
_geom_bond_atom_site_label_2
_geom_bond_distance
_geom_bond_site_symmetry_2
H0 Ir0 1.672431 1_555
H0 Zn3 2.116646 1_555
H0 Zn0 2.116646 1_555
H1 Ir0 1.672431 1_665
H1 Zn3 2.116646 1_655
H1 Zn0 2.116646 1_565
H2 Ir1 1.672431 1_655
H2 Zn2 2.116646 1_555
H2 Zn1 2.116646 1_655
H3 Ir1 1.672431 1_565
H3 Zn2 2.116646 1_565
H3 Zn1 2.116646 1_555
H4 Ir1 1.672431 1_665
H4 Zn2 2.116646 1_565
H4 Zn1 2.116646 1_655
H5 Ir1 1.672431 1_555
H5 Zn2 2.116646 1_555
H5 Zn1 2.116646 1_555
H6 Ir0 1.672431 1_565
H6 Zn3 2.116646 1_555
H6 Zn0 2.116646 1_565
H7 Ir0 1.672431 1_655
H7 Zn3 2.116646 1_655
H7 Zn0 2.116646 1_555
H8 Zn0 1.763653 1_555
H8 Zn2 1.763653 1_555
H8 K1 2.697901 1_655
H8 K1 2.697901 1_555
H9 Zn0 1.763653 1_565
H9 Zn2 1.763653 1_565
H9 K1 2.697901 1_655
H9 K1 2.697901 1_555
H10 Zn1 1.763653 1_655
H10 Zn3 1.763653 1_654
H10 K0 2.697901 1_565
H10 K0 2.697901 1_555
H11 Zn1 1.763653 1_555
H11 Zn3 1.763653 1_554
H11 K0 2.697901 1_565
H11 K0 2.697901 1_555
H12 Ir0 1.653050 1_555
H12 K1 2.571086 1_545
H12 K1 2.571086 1_555
H13 Ir1 1.653050 1_555
H13 K0 2.571086 1_455
H13 K0 2.571086 1_555
H14 Ir1 1.653050 1_555
H14 K1 2.571086 1_555
H14 K1 2.571086 1_545
H15 Ir0 1.653050 1_555
H15 K0 2.571086 1_556
H15 K0 2.571086 1_456
