# generated using pymatgen
data_Be15Nb6(CoNi3)2
_symmetry_space_group_name_H-M   'P 1'
_cell_length_a   7.55306335
_cell_length_b   7.55306325
_cell_length_c   7.55306275
_cell_angle_alpha   59.92890686
_cell_angle_beta   59.92891034
_cell_angle_gamma   59.92890652
_symmetry_Int_Tables_number   1
_chemical_formula_structural   Be15Nb6(CoNi3)2
_chemical_formula_sum   'Be15 Nb6 Co2 Ni6'
_cell_volume   304.19596908
_cell_formula_units_Z   1
loop_
 _symmetry_equiv_pos_site_id
 _symmetry_equiv_pos_as_xyz
  1  'x, y, z'
loop_
 _atom_site_type_symbol
 _atom_site_label
 _atom_site_symmetry_multiplicity
 _atom_site_fract_x
 _atom_site_fract_y
 _atom_site_fract_z
 _atom_site_occupancy
  Be  Be0  1  0.32670878  0.32670878  0.32670878  1
  Be  Be1  1  0.67329122  0.67329122  0.67329122  1
  Be  Be2  1  0.32543982  0.32543982  0.02270487  1
  Be  Be3  1  0.32543982  0.02270487  0.32543982  1
  Be  Be4  1  0.67456018  0.67456018  0.97729513  1
  Be  Be5  1  0.67456018  0.97729513  0.67456018  1
  Be  Be6  1  0.02270487  0.32543982  0.32543982  1
  Be  Be7  1  0.97729513  0.67456018  0.67456018  1
  Be  Be8  1  0.50000000  0.00000000  0.00000000  1
  Be  Be9  1  0.00000000  0.50000000  0.50000000  1
  Be  Be10  1  0.00000000  0.50000000  0.00000000  1
  Be  Be11  1  0.50000000  0.00000000  0.50000000  1
  Be  Be12  1  0.00000000  0.00000000  0.50000000  1
  Be  Be13  1  0.50000000  0.50000000  0.00000000  1
  Be  Be14  1  0.00000000  0.00000000  0.00000000  1
  Nb  Nb0  1  0.70954713  0.29483816  0.29483816  1
  Nb  Nb1  1  0.29045287  0.70516184  0.70516184  1
  Nb  Nb2  1  0.29483816  0.70954713  0.29483816  1
  Nb  Nb3  1  0.70516184  0.29045287  0.70516184  1
  Nb  Nb4  1  0.29483816  0.29483816  0.70954713  1
  Nb  Nb5  1  0.70516184  0.70516184  0.29045287  1
  Co  Co0  1  0.12230782  0.12230782  0.12230782  1
  Co  Co1  1  0.87769218  0.87769218  0.87769218  1
  Ni  Ni0  1  0.12302042  0.12302042  0.63266932  1
  Ni  Ni1  1  0.12302042  0.63266932  0.12302042  1
  Ni  Ni2  1  0.87697958  0.87697958  0.36733068  1
  Ni  Ni3  1  0.87697958  0.36733068  0.87697958  1
  Ni  Ni4  1  0.63266932  0.12302042  0.12302042  1
  Ni  Ni5  1  0.36733068  0.87697958  0.87697958  1
loop_
_geom_bond_atom_site_label_1
_geom_bond_atom_site_label_2
_geom_bond_distance
_geom_bond_site_symmetry_2
Be0 Be11 2.181487 1_555
Be0 Be13 2.181488 1_555
Be0 Be9 2.181488 1_555
Be0 Be2 2.305805 1_555
Be0 Be3 2.305806 1_555
Be0 Be6 2.305806 1_555
Be0 Ni1 2.306578 1_555
Be0 Ni4 2.306578 1_555
Be0 Ni0 2.306578 1_555
Be0 Nb4 2.672115 1_555
Be0 Nb2 2.672115 1_555
Be0 Nb0 2.672115 1_555
Be1 Be11 2.181487 1_565
Be1 Be13 2.181488 1_556
Be1 Be9 2.181488 1_655
Be1 Be4 2.305805 1_555
Be1 Be5 2.305806 1_555
Be1 Be7 2.305806 1_555
Be1 Ni3 2.306578 1_555
Be1 Ni5 2.306578 1_555
Be1 Ni2 2.306578 1_555
Be1 Nb5 2.672115 1_555
Be1 Nb3 2.672115 1_555
Be1 Nb1 2.672115 1_555
Be2 Be8 2.181254 1_555
Be2 Be3 2.284119 1_555
Be2 Be6 2.284119 1_555
Be2 Co0 2.306409 1_555
Be2 Ni4 2.311295 1_555
Be2 Ni1 2.311295 1_555
Be2 Nb4 2.617402 1_554
Be2 Nb1 2.651429 1_554
Be2 Nb3 2.651429 1_554
Be3 Be8 2.181254 1_555
Be3 Be6 2.284119 1_555
Be3 Co0 2.306409 1_555
Be3 Ni0 2.311295 1_555
Be3 Ni4 2.311295 1_555
Be3 Nb2 2.617402 1_545
Be3 Nb1 2.651429 1_545
Be3 Nb5 2.651429 1_545
Be4 Be8 2.181254 1_566
Be4 Be5 2.284119 1_555
Be4 Be7 2.284119 1_555
Be4 Co1 2.306409 1_555
Be4 Ni5 2.311295 1_555
Be4 Ni3 2.311295 1_555
Be4 Nb5 2.617402 1_556
Be4 Nb0 2.651429 1_556
Be4 Nb2 2.651429 1_556
Be5 Be8 2.181254 1_566
Be5 Be7 2.284119 1_555
Be5 Co1 2.306409 1_555
Be5 Ni2 2.311295 1_555
Be5 Ni5 2.311295 1_555
Be5 Nb3 2.617402 1_565
Be5 Nb0 2.651429 1_565
Be5 Nb4 2.651429 1_565
Be6 Be9 2.189750 1_555
Be6 Co0 2.306409 1_555
Be6 Ni0 2.311294 1_555
Be6 Ni1 2.311295 1_555
Be6 Nb0 2.617402 1_455
Be6 Nb5 2.651429 1_455
Be6 Nb3 2.651429 1_455
Be7 Be9 2.189750 1_655
Be7 Co1 2.306409 1_555
Be7 Ni2 2.311294 1_555
Be7 Ni3 2.311295 1_555
Be7 Nb1 2.617402 1_655
Be7 Nb4 2.651429 1_655
Be7 Nb2 2.651429 1_655
Be8 Co1 2.327682 1_544
Be8 Co0 2.327682 1_555
Be8 Ni4 2.337157 1_555
Be8 Ni5 2.337157 1_544
Be8 Nb5 2.688101 1_545
Be8 Nb4 2.688101 1_554
Be8 Nb3 2.688101 1_554
Be8 Nb2 2.688101 1_545
Be9 Ni1 2.323202 1_555
Be9 Ni3 2.323202 1_455
Be9 Ni0 2.323202 1_555
Be9 Ni2 2.323202 1_455
Be9 Nb4 2.735244 1_555
Be9 Nb5 2.735244 1_455
Be9 Nb2 2.735244 1_555
Be9 Nb3 2.735244 1_455
Be10 Be6 2.181254 1_555
Be10 Be7 2.181254 1_454
Be10 Be2 2.181254 1_555
Be10 Be4 2.181254 1_454
Be10 Co0 2.327682 1_555
Be10 Co1 2.327682 1_454
Be10 Ni1 2.337157 1_555
Be10 Ni3 2.337157 1_454
Be10 Nb5 2.688101 1_455
Be10 Nb4 2.688101 1_554
Be10 Nb1 2.688101 1_554
Be10 Nb0 2.688101 1_455
Be11 Be5 2.189750 1_545
Be11 Be3 2.189750 1_555
Be11 Ni4 2.323202 1_555
Be11 Ni5 2.323202 1_545
Be11 Ni2 2.323202 1_545
Be11 Ni0 2.323202 1_555
Be11 Nb4 2.735244 1_555
Be11 Nb5 2.735244 1_545
Be11 Nb0 2.735244 1_555
Be11 Nb1 2.735244 1_545
Be12 Be6 2.181254 1_555
Be12 Be7 2.181254 1_445
Be12 Be3 2.181254 1_555
Be12 Be5 2.181254 1_445
Be12 Co1 2.327682 1_445
Be12 Co0 2.327682 1_555
Be12 Ni0 2.337157 1_555
Be12 Ni2 2.337157 1_445
Be12 Nb1 2.688101 1_545
Be12 Nb0 2.688101 1_455
Be12 Nb3 2.688101 1_455
Be12 Nb2 2.688101 1_545
Be13 Be4 2.189750 1_554
Be13 Be2 2.189750 1_555
Be13 Ni5 2.323202 1_554
Be13 Ni4 2.323202 1_555
Be13 Ni3 2.323202 1_554
Be13 Ni1 2.323202 1_555
Be13 Nb0 2.735244 1_555
Be13 Nb1 2.735244 1_554
Be13 Nb2 2.735244 1_555
Be13 Nb3 2.735244 1_554
Be14 Ni2 2.263323 1_445
Be14 Ni0 2.263323 1_554
Be14 Ni3 2.263323 1_454
Be14 Ni1 2.263323 1_545
Be14 Ni5 2.263323 1_544
Be14 Ni4 2.263323 1_455
Be14 Co0 2.264050 1_555
Be14 Co1 2.264050 1_444
Nb0 Ni3 2.611964 1_554
Nb0 Ni2 2.611964 1_545
Nb0 Ni4 2.627471 1_555
Nb0 Nb3 3.066364 1_555
Nb0 Nb5 3.066365 1_555
Nb0 Nb2 3.128957 1_555
Nb0 Nb4 3.128957 1_555
Nb1 Ni1 2.611964 1_556
Nb1 Ni0 2.611964 1_565
Nb1 Ni5 2.627471 1_555
Nb1 Nb2 3.066364 1_555
Nb1 Nb4 3.066365 1_555
Nb1 Nb3 3.128957 1_555
Nb1 Nb5 3.128957 1_555
Nb2 Ni5 2.611964 1_554
Nb2 Ni2 2.611964 1_455
Nb2 Ni1 2.627471 1_555
Nb2 Nb5 3.066365 1_555
Nb2 Nb4 3.128956 1_555
Nb3 Ni4 2.611964 1_556
Nb3 Ni0 2.611964 1_655
Nb3 Ni3 2.627471 1_555
Nb3 Nb4 3.066365 1_555
Nb3 Nb5 3.128956 1_555
Nb4 Ni5 2.611964 1_545
Nb4 Ni3 2.611964 1_455
Nb4 Ni0 2.627471 1_555
Nb5 Ni4 2.611964 1_565
Nb5 Ni1 2.611964 1_655
Nb5 Ni2 2.627471 1_555
Co0 Nb4 2.583567 1_554
Co0 Nb2 2.583567 1_545
Co0 Nb0 2.583568 1_455
Co0 Ni3 2.619106 1_454
Co0 Ni5 2.619106 1_544
Co0 Ni2 2.619106 1_445
Co1 Nb5 2.583567 1_556
Co1 Nb3 2.583567 1_565
Co1 Nb1 2.583568 1_655
Co1 Ni1 2.619106 1_656
Co1 Ni4 2.619106 1_566
Co1 Ni0 2.619106 1_665
Ni0 Ni5 2.608246 1_545
Ni0 Ni3 2.608246 1_455
Ni1 Ni2 2.608246 1_455
Ni1 Ni5 2.608246 1_554
Ni2 Ni4 2.608246 1_565
Ni3 Ni4 2.608246 1_556
