# generated using pymatgen
data_Cd3SnP7N12
_symmetry_space_group_name_H-M   'P 1'
_cell_length_a   7.37797164
_cell_length_b   7.38386929
_cell_length_c   7.38387083
_cell_angle_alpha   109.48738967
_cell_angle_beta   109.45504045
_cell_angle_gamma   109.45504418
_symmetry_Int_Tables_number   1
_chemical_formula_structural   Cd3SnP7N12
_chemical_formula_sum   'Cd3 Sn1 P7 N12'
_cell_volume   309.72044792
_cell_formula_units_Z   1
loop_
 _symmetry_equiv_pos_site_id
 _symmetry_equiv_pos_as_xyz
  1  'x, y, z'
loop_
 _atom_site_type_symbol
 _atom_site_label
 _atom_site_symmetry_multiplicity
 _atom_site_fract_x
 _atom_site_fract_y
 _atom_site_fract_z
 _atom_site_occupancy
  Cd  Cd0  1  0.99721629  0.00000000  0.66494714  1
  Cd  Cd1  1  0.99721629  0.66494714  1.00000000  1
  Cd  Cd2  1  0.33226916  0.33505286  0.33505286  1
  Sn  Sn0  1  0.66042484  1.00000000  1.00000000  1
  P  P0  1  0.24769973  0.74835974  0.49806435  1
  P  P1  1  0.74963538  0.25029539  0.50193565  1
  P  P2  1  0.74963538  0.50193565  0.25029539  1
  P  P3  1  0.24769973  0.49806435  0.74835974  1
  P  P4  1  0.49933999  0.74970461  0.25164026  1
  P  P5  1  0.49933999  0.25164026  0.74970461  1
  P  P6  1  0.01798915  0.00000000  0.00000000  1
  N  N0  1  0.70835142  0.28750275  0.28750275  1
  N  N1  1  0.28777036  0.71017290  0.28850596  1
  N  N2  1  0.29681437  0.58410913  0.58410913  1
  N  N3  1  0.57759846  0.57833406  0.28982710  1
  N  N4  1  0.42084867  0.71249725  1.00000000  1
  N  N5  1  0.99926441  0.71149404  0.42166594  1
  N  N6  1  0.57759846  0.28982710  0.57833406  1
  N  N7  1  0.71270424  0.00000000  0.41589087  1
  N  N8  1  0.42084867  0.00000000  0.71249725  1
  N  N9  1  0.71270424  0.41589087  1.00000000  1
  N  N10  1  0.28777036  0.28850596  0.71017290  1
  N  N11  1  0.99926441  0.42166594  0.71149404  1
loop_
_geom_bond_atom_site_label_1
_geom_bond_atom_site_label_2
_geom_bond_distance
_geom_bond_site_symmetry_2
Cd0 N7 2.284024 1_555
Cd0 N10 2.291628 1_655
Cd0 N5 2.291632 1_545
Cd0 P6 2.427246 1_656
Cd1 N9 2.284023 1_555
Cd1 N1 2.291629 1_656
Cd1 N11 2.291632 1_555
Cd1 P6 2.427246 1_666
Cd2 N2 2.284019 1_555
Cd2 N3 2.291637 1_555
Cd2 N6 2.291637 1_555
Cd2 P6 2.427246 1_555
P6 Sn0 2.638099 1_444
N0 P2 1.643152 1_555
N0 P1 1.643153 1_555
N0 Sn0 2.265261 1_544
N1 P4 1.621243 1_555
N1 P0 1.621840 1_555
N2 P0 1.630756 1_555
N2 P3 1.630756 1_555
N3 P2 1.621240 1_555
N3 P4 1.621837 1_555
N4 P3 1.643153 1_555
N4 P4 1.643153 1_556
N4 Sn0 2.265260 1_555
N5 P0 1.621242 1_655
N5 P2 1.621839 1_555
N6 P1 1.621240 1_555
N6 P5 1.621837 1_555
N7 P1 1.630754 1_555
N7 P4 1.630754 1_545
N8 P5 1.643152 1_555
N8 P0 1.643153 1_545
N8 Sn0 2.265261 1_545
N9 P5 1.630754 1_555
N9 P2 1.630754 1_556
N10 P5 1.621243 1_555
N10 P3 1.621840 1_555
N11 P3 1.621242 1_655
N11 P1 1.621839 1_555
