# generated using pymatgen
data_CoH9C4NO6
_symmetry_space_group_name_H-M   'P 1'
_cell_length_a   8.17988931
_cell_length_b   8.14521343
_cell_length_c   11.63141300
_cell_angle_alpha   90.00000000
_cell_angle_beta   93.61738118
_cell_angle_gamma   90.00000000
_symmetry_Int_Tables_number   1
_chemical_formula_structural   CoH9C4NO6
_chemical_formula_sum   'Co4 H36 C16 N4 O24'
_cell_volume   773.42149114
_cell_formula_units_Z   4
loop_
 _symmetry_equiv_pos_site_id
 _symmetry_equiv_pos_as_xyz
  1  'x, y, z'
loop_
 _atom_site_type_symbol
 _atom_site_label
 _atom_site_symmetry_multiplicity
 _atom_site_fract_x
 _atom_site_fract_y
 _atom_site_fract_z
 _atom_site_occupancy
  Co  Co0  1  0.00000000  0.50000000  0.00000000  1
  Co  Co1  1  0.50000000  0.00000000  0.50000000  1
  Co  Co2  1  0.50000000  0.00000000  0.00000000  1
  Co  Co3  1  0.00000000  0.50000000  0.50000000  1
  H  H0  1  0.65970369  0.41722282  0.28012386  1
  H  H1  1  0.84029631  0.91722282  0.21987615  1
  H  H2  1  0.34029634  0.58277718  0.71987617  1
  H  H3  1  0.15970366  0.08277717  0.78012383  1
  H  H4  1  0.50356847  0.35144551  0.18731489  1
  H  H5  1  0.99643153  0.85144554  0.31268511  1
  H  H6  1  0.49643156  0.64855446  0.81268508  1
  H  H7  1  0.00356844  0.14855449  0.68731492  1
  H  H8  1  0.48203621  0.35357840  0.33032580  1
  H  H9  1  0.01796380  0.85357840  0.16967422  1
  H  H10  1  0.51796382  0.64642160  0.66967423  1
  H  H11  1  0.98203618  0.14642160  0.83032577  1
  H  H12  1  0.42271130  0.01516738  0.24365414  1
  H  H13  1  0.07728872  0.51516739  0.25634586  1
  H  H14  1  0.57728870  0.98483261  0.75634589  1
  H  H15  1  0.92271130  0.48483264  0.74365411  1
  H  H16  1  0.28792140  0.70489056  0.96654513  1
  H  H17  1  0.21207860  0.20489057  0.53345487  1
  H  H18  1  0.71207863  0.29510944  0.03345486  1
  H  H19  1  0.78792137  0.79510944  0.46654513  1
  H  H20  1  0.21640131  0.21610539  0.96216840  1
  H  H21  1  0.28359870  0.71610540  0.53783160  1
  H  H22  1  0.78359867  0.78389460  0.03783158  1
  H  H23  1  0.71640133  0.28389463  0.46216843  1
  H  H24  1  0.50251369  0.64992210  0.33521420  1
  H  H25  1  0.99748631  0.14992213  0.16478580  1
  H  H26  1  0.49748631  0.35007787  0.66478583  1
  H  H27  1  0.00251370  0.85007790  0.83521417  1
  H  H28  1  0.34287980  0.58586589  0.23384372  1
  H  H29  1  0.15712020  0.08586588  0.26615629  1
  H  H30  1  0.65712020  0.41413411  0.76615626  1
  H  H31  1  0.84287980  0.91413411  0.73384374  1
  H  H32  1  0.53491337  0.64847567  0.18508079  1
  H  H33  1  0.96508663  0.14847569  0.31491923  1
  H  H34  1  0.46508663  0.35152433  0.81491920  1
  H  H35  1  0.03491337  0.85152433  0.68508080  1
  C  C0  1  0.55507346  0.99068629  0.25204416  1
  C  C1  1  0.94492654  0.49068629  0.24795584  1
  C  C2  1  0.44492657  0.00931371  0.74795584  1
  C  C3  1  0.05507344  0.50931371  0.75204416  1
  C  C4  1  0.22356844  0.78047305  0.02746921  1
  C  C5  1  0.27643156  0.28047308  0.47253079  1
  C  C6  1  0.77643159  0.21952692  0.97253079  1
  C  C7  1  0.72356841  0.71952695  0.52746921  1
  C  C8  1  0.28321694  0.28191319  0.03284759  1
  C  C9  1  0.21678306  0.78191319  0.46715241  1
  C  C10  1  0.71678309  0.71808681  0.96715241  1
  C  C11  1  0.78321691  0.21808681  0.53284759  1
  C  C12  1  0.47425711  0.58726519  0.25382962  1
  C  C13  1  0.02574289  0.08726522  0.24617036  1
  C  C14  1  0.52574286  0.41273478  0.74617038  1
  C  C15  1  0.97425714  0.91273481  0.75382962  1
  N  N0  1  0.53388171  0.41559541  0.26307155  1
  N  N1  1  0.96611829  0.91559544  0.23692844  1
  N  N2  1  0.46611826  0.58440456  0.73692842  1
  N  N3  1  0.03388173  0.08440458  0.76307158  1
  O  O0  1  0.28739446  0.91258466  0.06365353  1
  O  O1  1  0.21260554  0.41258469  0.43634648  1
  O  O2  1  0.71260557  0.08741531  0.93634747  1
  O  O3  1  0.78739443  0.58741534  0.56365253  1
  O  O4  1  0.21415146  0.40081257  0.07886045  1
  O  O5  1  0.28584854  0.90081257  0.42113953  1
  O  O6  1  0.78584857  0.59918743  0.92113953  1
  O  O7  1  0.71415143  0.09918743  0.57886047  1
  O  O8  1  0.62866336  0.96881845  0.16029892  1
  O  O9  1  0.87133664  0.46881845  0.33970110  1
  O  O10  1  0.37133664  0.03118154  0.83970107  1
  O  O11  1  0.12866336  0.53118155  0.66029893  1
  O  O12  1  0.08614340  0.72852072  0.05784913  1
  O  O13  1  0.41385661  0.22852074  0.44215089  1
  O  O14  1  0.91385658  0.27147928  0.94215089  1
  O  O15  1  0.58614342  0.77147928  0.55784911  1
  O  O16  1  0.42665545  0.23157414  0.06297129  1
  O  O17  1  0.07334456  0.73157414  0.43702871  1
  O  O18  1  0.57334455  0.76842586  0.93702874  1
  O  O19  1  0.92665545  0.26842586  0.56297126  1
  O  O20  1  0.62642550  0.98375543  0.35103185  1
  O  O21  1  0.87357450  0.48375543  0.14896817  1
  O  O22  1  0.37357447  0.01624456  0.64896815  1
  O  O23  1  0.12642551  0.51624457  0.85103185  1
loop_
_geom_bond_atom_site_label_1
_geom_bond_atom_site_label_2
_geom_bond_distance
_geom_bond_site_symmetry_2
Co0 O23 2.077345 1_554
Co0 O21 2.077345 1_455
Co0 O14 2.086640 1_454
Co0 O12 2.086640 1_555
Co0 O6 2.088035 1_454
Co0 O4 2.088035 1_555
Co1 O20 2.077345 1_545
Co1 O22 2.077345 1_555
Co1 O15 2.086640 1_545
Co1 O13 2.086640 1_555
Co1 O7 2.088035 1_555
Co1 O5 2.088035 1_545
Co2 O2 2.059617 1_554
Co2 O0 2.059621 1_545
Co2 O8 2.097836 1_545
Co2 O10 2.097836 1_554
Co2 O18 2.123604 1_544
Co2 O16 2.123604 1_555
Co3 O3 2.059617 1_455
Co3 O1 2.059621 1_555
Co3 O9 2.097836 1_455
Co3 O11 2.097836 1_555
Co3 O19 2.123604 1_455
Co3 O17 2.123604 1_555
H0 N0 1.035871 1_555
H1 N1 1.035871 1_555
H2 N2 1.035871 1_555
H3 N3 1.035871 1_555
H4 N0 1.040852 1_555
H5 N1 1.040852 1_555
H6 N2 1.040852 1_555
H7 N3 1.040852 1_555
H8 N0 1.043464 1_555
H9 N1 1.043464 1_455
H10 N2 1.043464 1_555
H11 N3 1.043464 1_655
C0 H12 1.099185 1_565
C0 O20 1.258843 1_555
C0 O8 1.270392 1_555
C1 H13 1.099186 1_655
C1 O21 1.258842 1_555
C1 O9 1.270392 1_555
C2 H14 1.099185 1_545
C2 O22 1.258843 1_555
C2 O10 1.270392 1_555
C3 H15 1.099185 1_455
C3 O23 1.258843 1_555
C3 O11 1.270392 1_555
C4 H16 1.097878 1_554
C4 O0 1.256952 1_555
C4 O12 1.271890 1_555
C5 H17 1.097878 1_555
C5 O1 1.256952 1_555
C5 O13 1.271890 1_555
C6 H18 1.097878 1_556
C6 O2 1.256948 1_555
C6 O14 1.271890 1_555
C7 H19 1.097878 1_555
C7 O3 1.256948 1_555
C7 O15 1.271890 1_555
C8 H20 1.097805 1_554
C8 O4 1.257644 1_555
C8 O16 1.271089 1_555
C9 H21 1.097805 1_555
C9 O5 1.257644 1_555
C9 O17 1.271089 1_555
C10 H22 1.097805 1_556
C10 O6 1.257644 1_555
C10 O18 1.271090 1_555
C11 H23 1.097805 1_555
C11 O7 1.257644 1_555
C11 O19 1.271090 1_555
C12 H28 1.085137 1_555
C12 H24 1.087364 1_555
C12 H32 1.088232 1_555
C12 N0 1.482572 1_555
C13 H29 1.085137 1_555
C13 H25 1.087364 1_455
C13 H33 1.088233 1_455
C13 N1 1.482572 1_445
C14 H30 1.085137 1_555
C14 H26 1.087364 1_555
C14 H34 1.088232 1_555
C14 N2 1.482572 1_555
C15 H31 1.085137 1_555
C15 H27 1.087364 1_655
C15 H35 1.088232 1_655
C15 N3 1.482572 1_665
