# generated using pymatgen
data_Cs2Ta6SnBr18
_symmetry_space_group_name_H-M   'P 1'
_cell_length_a   10.84951798
_cell_length_b   10.84951822
_cell_length_c   10.84951787
_cell_angle_alpha   55.09703563
_cell_angle_beta   55.09703774
_cell_angle_gamma   55.09703472
_symmetry_Int_Tables_number   1
_chemical_formula_structural   Cs2Ta6SnBr18
_chemical_formula_sum   'Cs2 Ta6 Sn1 Br18'
_cell_volume   800.08204525
_cell_formula_units_Z   1
loop_
 _symmetry_equiv_pos_site_id
 _symmetry_equiv_pos_as_xyz
  1  'x, y, z'
loop_
 _atom_site_type_symbol
 _atom_site_label
 _atom_site_symmetry_multiplicity
 _atom_site_fract_x
 _atom_site_fract_y
 _atom_site_fract_z
 _atom_site_occupancy
  Cs  Cs0  1  0.27574191  0.27574191  0.27574191  1
  Cs  Cs1  1  0.72425809  0.72425809  0.72425809  1
  Ta  Ta0  1  0.42122862  0.30997749  0.63945491  1
  Ta  Ta1  1  0.36054509  0.57877138  0.69002251  1
  Ta  Ta2  1  0.69002251  0.36054509  0.57877138  1
  Ta  Ta3  1  0.63945491  0.42122862  0.30997749  1
  Ta  Ta4  1  0.57877138  0.69002251  0.36054509  1
  Ta  Ta5  1  0.30997749  0.63945491  0.42122862  1
  Sn  Sn0  1  0.00000000  0.00000000  0.00000000  1
  Br  Br0  1  0.63584708  0.09209181  0.77484294  1
  Br  Br1  1  0.77484294  0.63584708  0.09209181  1
  Br  Br2  1  0.09209181  0.77484294  0.63584708  1
  Br  Br3  1  0.83001903  0.31820001  0.04040368  1
  Br  Br4  1  0.16482205  0.43605745  0.57604632  1
  Br  Br5  1  0.68179999  0.95959632  0.16998097  1
  Br  Br6  1  0.90790819  0.22515706  0.36415292  1
  Br  Br7  1  0.56394255  0.42395368  0.83517795  1
  Br  Br8  1  0.42395368  0.83517795  0.56394255  1
  Br  Br9  1  0.95959632  0.16998097  0.68179999  1
  Br  Br10  1  0.16998097  0.68179999  0.95959632  1
  Br  Br11  1  0.04040368  0.83001903  0.31820001  1
  Br  Br12  1  0.31820001  0.04040368  0.83001903  1
  Br  Br13  1  0.22515706  0.36415292  0.90790819  1
  Br  Br14  1  0.57604632  0.16482205  0.43605745  1
  Br  Br15  1  0.43605745  0.57604632  0.16482205  1
  Br  Br16  1  0.36415292  0.90790819  0.22515706  1
  Br  Br17  1  0.83517795  0.56394255  0.42395368  1
loop_
_geom_bond_atom_site_label_1
_geom_bond_atom_site_label_2
_geom_bond_distance
_geom_bond_site_symmetry_2
Br0 Ta2 2.606103 1_555
Br0 Ta0 2.609423 1_555
Br0 Cs1 3.830302 1_545
Br1 Ta4 2.606103 1_555
Br1 Ta3 2.609423 1_555
Br1 Cs1 3.830302 1_554
Br2 Ta1 2.606103 1_555
Br2 Ta5 2.609423 1_555
Br2 Cs1 3.830302 1_455
Br3 Ta3 2.873121 1_555
Br3 Sn0 3.005404 1_655
Br3 Cs1 3.730512 1_554
Br4 Ta0 2.615678 1_555
Br4 Ta5 2.622869 1_555
Br4 Cs0 3.833012 1_555
Br4 Cs1 3.881310 1_455
Br5 Ta4 2.873121 1_555
Br5 Sn0 3.005404 1_665
Br5 Cs0 3.730512 1_565
Br6 Ta3 2.606103 1_555
Br6 Ta2 2.609423 1_555
Br6 Cs0 3.830302 1_655
Br7 Ta2 2.615678 1_555
Br7 Ta1 2.622869 1_555
Br7 Cs1 3.833012 1_555
Br7 Cs0 3.881310 1_556
Br8 Ta1 2.615678 1_555
Br8 Ta4 2.622869 1_555
Br8 Cs1 3.833012 1_555
Br8 Cs0 3.881310 1_565
Br9 Ta2 2.873121 1_555
Br9 Sn0 3.005404 1_656
Br9 Cs0 3.730512 1_655
Br10 Ta1 2.873121 1_555
Br10 Sn0 3.005404 1_566
Br10 Cs0 3.730512 1_556
Br11 Ta5 2.873121 1_555
Br11 Sn0 3.005404 1_565
Br11 Cs1 3.730512 1_455
Br12 Ta0 2.873121 1_555
Br12 Sn0 3.005404 1_556
Br12 Cs1 3.730512 1_545
Br13 Ta0 2.606103 1_555
Br13 Ta1 2.609423 1_555
Br13 Cs0 3.830302 1_556
Br14 Ta3 2.615678 1_555
Br14 Ta0 2.622869 1_555
Br14 Cs0 3.833012 1_555
Br14 Cs1 3.881310 1_545
Br15 Ta5 2.615678 1_555
Br15 Ta3 2.622869 1_555
Br15 Cs0 3.833012 1_555
Br15 Cs1 3.881310 1_554
Br16 Ta5 2.606103 1_555
Br16 Ta4 2.609423 1_555
Br16 Cs0 3.830302 1_565
Br17 Ta4 2.615678 1_555
Br17 Ta2 2.622869 1_555
Br17 Cs1 3.833012 1_555
Br17 Cs0 3.881310 1_655
