# generated using pymatgen
data_LiSc(IO3)4
_symmetry_space_group_name_H-M   'P 1'
_cell_length_a   4.87612652
_cell_length_b   6.46009511
_cell_length_c   8.57335118
_cell_angle_alpha   85.47991792
_cell_angle_beta   90.30893172
_cell_angle_gamma   88.18147129
_symmetry_Int_Tables_number   1
_chemical_formula_structural   LiSc(IO3)4
_chemical_formula_sum   'Li1 Sc1 I4 O12'
_cell_volume   269.07863663
_cell_formula_units_Z   1
loop_
 _symmetry_equiv_pos_site_id
 _symmetry_equiv_pos_as_xyz
  1  'x, y, z'
loop_
 _atom_site_type_symbol
 _atom_site_label
 _atom_site_symmetry_multiplicity
 _atom_site_fract_x
 _atom_site_fract_y
 _atom_site_fract_z
 _atom_site_occupancy
  Li  Li0  1  0.50000000  0.00000000  0.50000000  1
  Sc  Sc0  1  0.50000000  0.50000000  0.50000000  1
  I  I0  1  0.51277370  0.80296717  0.15979172  1
  I  I1  1  0.00978470  0.28177547  0.24113653  1
  I  I2  1  0.99021530  0.71822453  0.75886347  1
  I  I3  1  0.48722630  0.19703283  0.84020828  1
  O  O0  1  0.74668383  0.62130286  0.07617092  1
  O  O1  1  0.69839688  0.03953395  0.10963514  1
  O  O2  1  0.22226844  0.48267184  0.31456947  1
  O  O3  1  0.21396461  0.06003410  0.31753417  1
  O  O4  1  0.63410550  0.76164582  0.36476177  1
  O  O5  1  0.75378856  0.28124432  0.39455342  1
  O  O6  1  0.24621144  0.71875568  0.60544658  1
  O  O7  1  0.36589450  0.23835418  0.63523823  1
  O  O8  1  0.78603539  0.93996590  0.68246583  1
  O  O9  1  0.77773156  0.51732816  0.68543053  1
  O  O10  1  0.30160312  0.96046605  0.89036486  1
  O  O11  1  0.25331617  0.37869714  0.92382908  1
loop_
_geom_bond_atom_site_label_1
_geom_bond_atom_site_label_2
_geom_bond_distance
_geom_bond_site_symmetry_2
Li0 O7 2.090105 1_555
Li0 O4 2.090105 1_545
Li0 O8 2.095091 1_545
Li0 O3 2.095091 1_555
Li0 O5 2.354903 1_555
Li0 O6 2.354903 1_545
I0 O0 1.802390 1_555
I0 O1 1.824306 1_565
I0 O4 1.847740 1_555
I0 O10 2.639794 1_554
I1 O3 1.796323 1_555
I1 O5 1.818092 1_455
I1 O2 1.833372 1_555
I1 O1 2.536895 1_455
I2 O8 1.796323 1_555
I2 O6 1.818092 1_655
I2 O9 1.833372 1_555
I2 O10 2.536895 1_655
I3 O11 1.802390 1_555
I3 O10 1.824306 1_545
I3 O7 1.847740 1_555
I3 O1 2.639794 1_556
O2 Sc0 2.094834 1_555
O4 Sc0 2.097217 1_555
O5 Sc0 2.109078 1_555
O6 Sc0 2.109078 1_555
O7 Sc0 2.097217 1_555
O9 Sc0 2.094834 1_555
