# generated using pymatgen
data_Sr3MoI2O5
_symmetry_space_group_name_H-M   'P 1'
_cell_length_a   7.59742751
_cell_length_b   7.59742729
_cell_length_c   11.54600860
_cell_angle_alpha   90.00000000
_cell_angle_beta   90.00000000
_cell_angle_gamma   135.02167962
_symmetry_Int_Tables_number   1
_chemical_formula_structural   Sr3MoI2O5
_chemical_formula_sum   'Sr6 Mo2 I4 O10'
_cell_volume   471.07017165
_cell_formula_units_Z   2
loop_
 _symmetry_equiv_pos_site_id
 _symmetry_equiv_pos_as_xyz
  1  'x, y, z'
loop_
 _atom_site_type_symbol
 _atom_site_label
 _atom_site_symmetry_multiplicity
 _atom_site_fract_x
 _atom_site_fract_y
 _atom_site_fract_z
 _atom_site_occupancy
  Sr  Sr0  1  0.66458099  0.33541901  0.52921528  1
  Sr  Sr1  1  0.33541901  0.66458099  0.02921528  1
  Sr  Sr2  1  0.66458099  0.33541901  0.97078472  1
  Sr  Sr3  1  0.87394666  0.12605334  0.75000000  1
  Sr  Sr4  1  0.33541901  0.66458099  0.47078472  1
  Sr  Sr5  1  0.12605334  0.87394666  0.25000000  1
  Mo  Mo0  1  0.76354266  0.23645734  0.25000000  1
  Mo  Mo1  1  0.23645734  0.76354266  0.75000000  1
  I  I0  1  0.50163097  0.49836903  0.25000000  1
  I  I1  1  0.00000000  0.00000000  0.50000000  1
  I  I2  1  0.49836903  0.50163097  0.75000000  1
  I  I3  1  0.00000000  0.00000000  0.00000000  1
  O  O0  1  0.50361542  0.04542621  0.36391338  1
  O  O1  1  0.04542621  0.50361542  0.63608662  1
  O  O2  1  0.49638458  0.95457379  0.86391338  1
  O  O3  1  0.49638458  0.95457379  0.63608662  1
  O  O4  1  0.11590134  0.88409866  0.75000000  1
  O  O5  1  0.04542621  0.50361542  0.86391338  1
  O  O6  1  0.50361542  0.04542621  0.13608662  1
  O  O7  1  0.95457379  0.49638458  0.36391338  1
  O  O8  1  0.88409866  0.11590134  0.25000000  1
  O  O9  1  0.95457379  0.49638458  0.13608662  1
loop_
_geom_bond_atom_site_label_1
_geom_bond_atom_site_label_2
_geom_bond_distance
_geom_bond_site_symmetry_2
Mo0 O8 1.692524 1_555
Mo0 O7 1.918654 1_555
Mo0 O9 1.918654 1_555
Mo0 O0 1.918654 1_555
Mo0 O6 1.918654 1_555
Mo1 O4 1.692524 1_555
Mo1 O5 1.918654 1_555
Mo1 O1 1.918654 1_555
Mo1 O2 1.918654 1_555
Mo1 O3 1.918654 1_555
I0 Sr5 3.390669 1_545
I0 Sr5 3.390669 1_655
I0 Sr4 3.455946 1_555
I0 Sr1 3.455946 1_555
I1 Sr3 3.385815 1_455
I1 Sr5 3.385815 1_545
I1 Sr4 3.728000 1_555
I1 Sr0 3.728000 1_445
I1 Sr0 3.728001 1_555
I1 Sr4 3.728001 1_445
I2 Sr3 3.390669 1_565
I2 Sr3 3.390669 1_455
I2 Sr2 3.455946 1_555
I2 Sr0 3.455946 1_555
I3 Sr3 3.385815 1_454
I3 Sr5 3.385815 1_545
I3 Sr1 3.728000 1_555
I3 Sr2 3.728000 1_444
I3 Sr2 3.728001 1_554
I3 Sr1 3.728001 1_445
O0 Sr0 2.486056 1_555
O0 Sr4 2.509309 1_545
O0 Sr5 2.523572 1_545
O1 Sr4 2.486056 1_555
O1 Sr0 2.509309 1_455
O1 Sr3 2.523572 1_455
O2 Sr1 2.486056 1_556
O2 Sr2 2.509309 1_565
O2 Sr3 2.523572 1_565
O3 Sr4 2.486056 1_555
O3 Sr0 2.509309 1_565
O3 Sr3 2.523572 1_565
O5 Sr1 2.486056 1_556
O5 Sr2 2.509309 1_455
O5 Sr3 2.523572 1_455
O6 Sr2 2.486056 1_554
O6 Sr1 2.509309 1_545
O6 Sr5 2.523572 1_545
O7 Sr0 2.486056 1_555
O7 Sr4 2.509309 1_655
O7 Sr5 2.523572 1_655
O9 Sr2 2.486056 1_554
O9 Sr1 2.509309 1_655
O9 Sr5 2.523572 1_655
