# generated using pymatgen
data_Cs4ZrSeBr12
_symmetry_space_group_name_H-M   'P 1'
_cell_length_a   7.74334925
_cell_length_b   7.74334925
_cell_length_c   10.91644936
_cell_angle_alpha   90.00000000
_cell_angle_beta   90.00000000
_cell_angle_gamma   90.00000000
_symmetry_Int_Tables_number   1
_chemical_formula_structural   Cs4ZrSeBr12
_chemical_formula_sum   'Cs4 Zr1 Se1 Br12'
_cell_volume   654.54438356
_cell_formula_units_Z   1
loop_
 _symmetry_equiv_pos_site_id
 _symmetry_equiv_pos_as_xyz
  1  'x, y, z'
loop_
 _atom_site_type_symbol
 _atom_site_label
 _atom_site_symmetry_multiplicity
 _atom_site_fract_x
 _atom_site_fract_y
 _atom_site_fract_z
 _atom_site_occupancy
  Cs  Cs0  1  0.50000000  0.00000000  0.74828066  1
  Cs  Cs1  1  0.50000000  0.00000000  0.25171934  1
  Cs  Cs2  1  0.00000000  0.50000000  0.25171934  1
  Cs  Cs3  1  0.00000000  0.50000000  0.74828066  1
  Zr  Zr0  1  0.00000000  0.00000000  0.00000000  1
  Se  Se0  1  0.50000000  0.50000000  0.50000000  1
  Br  Br0  1  0.76367641  0.24513850  0.00000000  1
  Br  Br1  1  0.23632359  0.75486150  0.00000000  1
  Br  Br2  1  0.50000000  0.50000000  0.26288024  1
  Br  Br3  1  0.26373919  0.26160587  0.50000000  1
  Br  Br4  1  0.24513850  0.23632359  0.00000000  1
  Br  Br5  1  0.73839413  0.26373919  0.50000000  1
  Br  Br6  1  0.00000000  0.00000000  0.24208010  1
  Br  Br7  1  0.73626081  0.73839413  0.50000000  1
  Br  Br8  1  0.26160587  0.73626081  0.50000000  1
  Br  Br9  1  0.50000000  0.50000000  0.73711976  1
  Br  Br10  1  0.75486150  0.76367641  0.00000000  1
  Br  Br11  1  0.00000000  0.00000000  0.75791990  1
loop_
_geom_bond_atom_site_label_1
_geom_bond_atom_site_label_2
_geom_bond_distance
_geom_bond_site_symmetry_2
Br0 Zr0 2.636627 1_655
Br0 Cs2 3.846316 1_655
Br0 Cs3 3.846316 1_654
Br0 Cs1 3.914420 1_555
Br0 Cs0 3.914420 1_554
Br1 Zr0 2.636627 1_565
Br1 Cs2 3.846316 1_555
Br1 Cs3 3.846316 1_554
Br1 Cs1 3.914420 1_565
Br1 Cs0 3.914420 1_564
Br2 Se0 2.588506 1_555
Br2 Cs2 3.873591 1_555
Br2 Cs1 3.873591 1_555
Br2 Cs1 3.873591 1_565
Br2 Cs2 3.873591 1_655
Br3 Se0 2.598940 1_555
Br3 Cs0 3.846600 1_555
Br3 Cs1 3.846600 1_555
Br3 Cs3 3.863191 1_555
Br3 Cs2 3.863191 1_555
Br4 Zr0 2.636627 1_555
Br4 Cs1 3.846316 1_555
Br4 Cs0 3.846316 1_554
Br4 Cs2 3.914420 1_555
Br4 Cs3 3.914420 1_554
Br5 Se0 2.598940 1_555
Br5 Cs3 3.846600 1_655
Br5 Cs2 3.846600 1_655
Br5 Cs0 3.863191 1_555
Br5 Cs1 3.863191 1_555
Br6 Zr0 2.642655 1_555
Br6 Cs1 3.873104 1_455
Br6 Cs1 3.873104 1_555
Br6 Cs2 3.873104 1_545
Br6 Cs2 3.873104 1_555
Br7 Se0 2.598940 1_555
Br7 Cs0 3.846600 1_565
Br7 Cs1 3.846600 1_565
Br7 Cs3 3.863191 1_655
Br7 Cs2 3.863191 1_655
Br8 Se0 2.598940 1_555
Br8 Cs3 3.846600 1_555
Br8 Cs2 3.846600 1_555
Br8 Cs0 3.863191 1_565
Br8 Cs1 3.863191 1_565
Br9 Se0 2.588506 1_555
Br9 Cs0 3.873591 1_565
Br9 Cs3 3.873591 1_655
Br9 Cs0 3.873591 1_555
Br9 Cs3 3.873591 1_555
Br10 Zr0 2.636627 1_665
Br10 Cs1 3.846316 1_565
Br10 Cs0 3.846316 1_564
Br10 Cs2 3.914420 1_655
Br10 Cs3 3.914420 1_654
Br11 Zr0 2.642655 1_556
Br11 Cs0 3.873104 1_455
Br11 Cs0 3.873104 1_555
Br11 Cs3 3.873104 1_545
Br11 Cs3 3.873104 1_555
