# generated using pymatgen
data_CsMgRhF6
_symmetry_space_group_name_H-M   'P 1'
_cell_length_a   7.33607175
_cell_length_b   7.33607189
_cell_length_c   7.33607195
_cell_angle_alpha   120.14013884
_cell_angle_beta   120.65093028
_cell_angle_gamma   89.31684808
_symmetry_Int_Tables_number   1
_chemical_formula_structural   CsMgRhF6
_chemical_formula_sum   'Cs2 Mg2 Rh2 F12'
_cell_volume   277.47706045
_cell_formula_units_Z   2
loop_
 _symmetry_equiv_pos_site_id
 _symmetry_equiv_pos_as_xyz
  1  'x, y, z'
loop_
 _atom_site_type_symbol
 _atom_site_label
 _atom_site_symmetry_multiplicity
 _atom_site_fract_x
 _atom_site_fract_y
 _atom_site_fract_z
 _atom_site_occupancy
  Cs  Cs0  1  0.35789224  0.60789224  0.75000000  1
  Cs  Cs1  1  0.64210776  0.39210776  0.25000000  1
  Mg  Mg0  1  0.00000000  0.00000000  0.50000000  1
  Mg  Mg1  1  0.00000000  0.50000000  0.00000000  1
  Rh  Rh0  1  0.00000000  0.00000000  0.00000000  1
  Rh  Rh1  1  0.50000000  0.00000000  0.50000000  1
  F  F0  1  0.32919558  0.07919558  0.25000000  1
  F  F1  1  0.94116069  0.69116069  0.25000000  1
  F  F2  1  0.32470398  0.67860953  0.24655565  1
  F  F3  1  0.93205388  0.07814733  0.25344435  1
  F  F4  1  0.32470398  0.07814733  0.64609345  1
  F  F5  1  0.93205388  0.67860953  0.85390655  1
  F  F6  1  0.67080442  0.92080442  0.75000000  1
  F  F7  1  0.05883931  0.30883931  0.75000000  1
  F  F8  1  0.67529602  0.32139047  0.75344435  1
  F  F9  1  0.06794612  0.92185267  0.74655565  1
  F  F10  1  0.67529602  0.92185267  0.35390655  1
  F  F11  1  0.06794612  0.32139047  0.14609345  1
loop_
_geom_bond_atom_site_label_1
_geom_bond_atom_site_label_2
_geom_bond_distance
_geom_bond_site_symmetry_2
Cs0 F8 3.117167 1_555
Cs0 F10 3.117172 1_556
Cs0 F11 3.117172 1_555
Cs0 F9 3.117172 1_555
Cs0 F7 3.121047 1_555
Cs0 F6 3.265689 1_555
Cs1 F2 3.117167 1_555
Cs1 F4 3.117172 1_554
Cs1 F5 3.117172 1_555
Cs1 F3 3.117172 1_555
Cs1 F1 3.121047 1_555
Cs1 F0 3.265689 1_555
F0 Rh0 1.995191 1_555
F0 Rh1 1.995191 1_555
F1 Mg0 1.930406 1_665
F1 Mg1 1.930406 1_655
F2 Rh1 1.975290 1_565
F2 Mg1 1.990974 1_555
F3 Rh0 1.975292 1_655
F3 Mg0 1.990969 1_655
F4 Rh1 1.975285 1_555
F4 Mg0 1.990976 1_555
F5 Rh0 1.975292 1_666
F5 Mg1 1.990969 1_656
F6 Rh0 1.995191 1_666
F6 Rh1 1.995191 1_565
F7 Mg0 1.930406 1_555
F7 Mg1 1.930406 1_556
F8 Rh1 1.975290 1_555
F8 Mg1 1.990974 1_656
F9 Rh0 1.975292 1_566
F9 Mg0 1.990969 1_565
F10 Rh1 1.975285 1_565
F10 Mg0 1.990976 1_665
F11 Rh0 1.975292 1_555
F11 Mg1 1.990969 1_555
