# generated using pymatgen
data_Na2BeF4
_symmetry_space_group_name_H-M   'P 1'
_cell_length_a   4.84992512
_cell_length_b   6.45599084
_cell_length_c   10.80226749
_cell_angle_alpha   90.00000000
_cell_angle_beta   90.00000000
_cell_angle_gamma   90.00000000
_symmetry_Int_Tables_number   1
_chemical_formula_structural   Na2BeF4
_chemical_formula_sum   'Na8 Be4 F16'
_cell_volume   338.23057676
_cell_formula_units_Z   4
loop_
 _symmetry_equiv_pos_site_id
 _symmetry_equiv_pos_as_xyz
  1  'x, y, z'
loop_
 _atom_site_type_symbol
 _atom_site_label
 _atom_site_symmetry_multiplicity
 _atom_site_fract_x
 _atom_site_fract_y
 _atom_site_fract_z
 _atom_site_occupancy
  Na  Na0  1  0.51296965  0.25000000  0.77791179  1
  Na  Na1  1  0.01296965  0.75000000  0.72208821  1
  Na  Na2  1  0.48703035  0.75000000  0.22208821  1
  Na  Na3  1  0.98703035  0.25000000  0.27791179  1
  Na  Na4  1  0.50000000  0.50000000  0.50000000  1
  Na  Na5  1  -0.00000000  0.50000000  -0.00000000  1
  Na  Na6  1  0.50000000  0.00000000  0.50000000  1
  Na  Na7  1  -0.00000000  0.00000000  -0.00000000  1
  Be  Be0  1  0.42693017  0.25000000  0.09558278  1
  Be  Be1  1  0.57306983  0.75000000  0.90441722  1
  Be  Be2  1  0.07306983  0.25000000  0.59558278  1
  Be  Be3  1  0.92693017  0.75000000  0.40441722  1
  F  F0  1  0.69852385  0.94412457  0.83882131  1
  F  F1  1  0.19852385  0.05587543  0.66117869  1
  F  F2  1  0.30147615  0.44412457  0.16117869  1
  F  F3  1  0.80147615  0.55587543  0.33882131  1
  F  F4  1  0.19852385  0.44412457  0.66117869  1
  F  F5  1  0.30147615  0.05587543  0.16117869  1
  F  F6  1  0.69852385  0.55587543  0.83882131  1
  F  F7  1  0.80147615  0.94412457  0.33882131  1
  F  F8  1  0.74534195  0.25000000  0.09373901  1
  F  F9  1  0.24534195  0.75000000  0.40626099  1
  F  F10  1  0.25465805  0.75000000  0.90626099  1
  F  F11  1  0.75465805  0.25000000  0.59373901  1
  F  F12  1  0.69503775  0.75000000  0.03910057  1
  F  F13  1  0.19503775  0.25000000  0.46089943  1
  F  F14  1  0.30496225  0.25000000  0.96089943  1
  F  F15  1  0.80496225  0.75000000  0.53910057  1
loop_
_geom_bond_atom_site_label_1
_geom_bond_atom_site_label_2
_geom_bond_distance
_geom_bond_site_symmetry_2
Be0 F8 1.544402 1_555
Be0 F2 1.563001 1_555
Be0 F5 1.563001 1_555
Be0 F14 1.570543 1_554
Be1 F10 1.544402 1_555
Be1 F6 1.563001 1_555
Be1 F0 1.563001 1_555
Be1 F12 1.570543 1_556
Be2 F11 1.544402 1_455
Be2 F1 1.563001 1_555
Be2 F4 1.563001 1_555
Be2 F13 1.570543 1_555
Be3 F9 1.544402 1_655
Be3 F3 1.563001 1_555
Be3 F7 1.563001 1_555
Be3 F15 1.570543 1_555
F0 Na0 2.267671 1_565
F0 Na7 2.302039 1_666
F0 Na1 2.342327 1_655
F1 Na1 2.267671 1_545
F1 Na6 2.302039 1_555
F1 Na0 2.342327 1_555
F2 Na2 2.267671 1_555
F2 Na5 2.302039 1_555
F2 Na3 2.342327 1_455
F3 Na3 2.267671 1_555
F3 Na4 2.302039 1_555
F3 Na2 2.342327 1_555
F4 Na1 2.267671 1_555
F4 Na4 2.302039 1_555
F4 Na0 2.342327 1_555
F5 Na2 2.267671 1_545
F5 Na7 2.302039 1_555
F5 Na3 2.342327 1_455
F6 Na0 2.267671 1_555
F6 Na5 2.302039 1_656
F6 Na1 2.342327 1_655
F7 Na3 2.267671 1_565
F7 Na6 2.302039 1_565
F7 Na2 2.342327 1_555
F8 Na5 2.270625 1_655
F8 Na7 2.270625 1_655
F8 Na3 2.309119 1_555
F9 Na4 2.270625 1_555
F9 Na6 2.270625 1_565
F9 Na2 2.309119 1_555
F10 Na7 2.270625 1_566
F10 Na5 2.270625 1_556
F10 Na1 2.309119 1_555
F11 Na6 2.270625 1_555
F11 Na4 2.270625 1_555
F11 Na0 2.309119 1_555
F12 Na2 2.219231 1_555
F12 Na5 2.229565 1_655
F12 Na7 2.229565 1_665
F13 Na3 2.219231 1_455
F13 Na6 2.229565 1_555
F13 Na4 2.229565 1_555
F14 Na0 2.219231 1_555
F14 Na5 2.229565 1_556
F14 Na7 2.229565 1_556
F15 Na1 2.219231 1_655
F15 Na6 2.229565 1_565
F15 Na4 2.229565 1_555
