# generated using pymatgen
data_Cs2KAsO4
_symmetry_space_group_name_H-M   'P 1'
_cell_length_a   6.41762476
_cell_length_b   6.58586293
_cell_length_c   8.24343026
_cell_angle_alpha   88.35957481
_cell_angle_beta   90.00000000
_cell_angle_gamma   90.00000000
_symmetry_Int_Tables_number   1
_chemical_formula_structural   Cs2KAsO4
_chemical_formula_sum   'Cs4 K2 As2 O8'
_cell_volume   348.27070985
_cell_formula_units_Z   2
loop_
 _symmetry_equiv_pos_site_id
 _symmetry_equiv_pos_as_xyz
  1  'x, y, z'
loop_
 _atom_site_type_symbol
 _atom_site_label
 _atom_site_symmetry_multiplicity
 _atom_site_fract_x
 _atom_site_fract_y
 _atom_site_fract_z
 _atom_site_occupancy
  Cs  Cs0  1  0.75000000  0.18449146  0.50769717  1
  Cs  Cs1  1  0.25000000  0.81550854  0.49230283  1
  Cs  Cs2  1  0.25000000  0.39312563  0.17835699  1
  Cs  Cs3  1  0.75000000  0.60687437  0.82164301  1
  K  K0  1  0.25000000  0.87974665  0.96586912  1
  K  K1  1  0.75000000  0.12025335  0.03413088  1
  As  As0  1  0.75000000  0.69001847  0.26307439  1
  As  As1  1  0.25000000  0.30998153  0.73692561  1
  O  O0  1  0.96580214  0.81059298  0.18467543  1
  O  O1  1  0.46580214  0.18940702  0.81532457  1
  O  O2  1  0.03419786  0.18940702  0.81532457  1
  O  O3  1  0.53419786  0.81059298  0.18467543  1
  O  O4  1  0.25000000  0.55481513  0.79999836  1
  O  O5  1  0.25000000  0.29984706  0.53087448  1
  O  O6  1  0.75000000  0.44518487  0.20000164  1
  O  O7  1  0.75000000  0.70015294  0.46912552  1
loop_
_geom_bond_atom_site_label_1
_geom_bond_atom_site_label_2
_geom_bond_distance
_geom_bond_site_symmetry_2
Cs0 O6 3.021928 1_555
Cs0 O2 3.124593 1_655
Cs0 O1 3.124593 1_555
Cs0 O7 3.214640 1_545
Cs0 O5 3.304309 1_655
Cs0 O5 3.304309 1_555
Cs0 O7 3.401853 1_555
Cs1 O4 3.021928 1_555
Cs1 O3 3.124593 1_555
Cs1 O0 3.124593 1_455
Cs1 O5 3.214640 1_565
Cs1 O7 3.304309 1_455
Cs1 O7 3.304309 1_555
Cs1 O5 3.401853 1_555
Cs2 O5 2.952921 1_555
Cs2 O6 3.232548 1_455
Cs2 O6 3.232548 1_555
Cs2 O4 3.266768 1_554
Cs2 O3 3.300990 1_555
Cs2 O0 3.300990 1_455
Cs2 O1 3.592191 1_554
Cs2 O2 3.592191 1_554
Cs3 O7 2.952921 1_555
Cs3 O4 3.232548 1_555
Cs3 O4 3.232548 1_655
Cs3 O6 3.266768 1_556
Cs3 O2 3.300990 1_655
Cs3 O1 3.300990 1_555
Cs3 O0 3.592191 1_556
Cs3 O3 3.592191 1_556
K0 O4 2.572268 1_555
K0 O3 2.596208 1_556
K0 O0 2.596208 1_456
K0 O1 2.733553 1_565
K0 O2 2.733553 1_565
K1 O6 2.572268 1_555
K1 O2 2.596208 1_654
K1 O1 2.596208 1_554
K1 O0 2.733553 1_545
K1 O3 2.733553 1_545
As0 O7 1.701787 1_555
As0 O6 1.708302 1_555
As0 O0 1.713743 1_555
As0 O3 1.713743 1_555
As1 O5 1.701787 1_555
As1 O4 1.708302 1_555
As1 O1 1.713743 1_555
As1 O2 1.713743 1_555
