# generated using pymatgen
data_K2GeP3Rh4
_symmetry_space_group_name_H-M   'P 1'
_cell_length_a   7.21900112
_cell_length_b   7.21900091
_cell_length_c   5.56666782
_cell_angle_alpha   90.00000000
_cell_angle_beta   90.00000000
_cell_angle_gamma   134.63985597
_symmetry_Int_Tables_number   1
_chemical_formula_structural   K2GeP3Rh4
_chemical_formula_sum   'K2 Ge1 P3 Rh4'
_cell_volume   206.41785993
_cell_formula_units_Z   1
loop_
 _symmetry_equiv_pos_site_id
 _symmetry_equiv_pos_as_xyz
  1  'x, y, z'
loop_
 _atom_site_type_symbol
 _atom_site_label
 _atom_site_symmetry_multiplicity
 _atom_site_fract_x
 _atom_site_fract_y
 _atom_site_fract_z
 _atom_site_occupancy
  K  K0  1  0.49452962  0.50547038  0.50000000  1
  K  K1  1  0.99383470  0.00616530  0.00000000  1
  Ge  Ge0  1  0.14310333  0.85689667  0.50000000  1
  P  P0  1  0.65934945  0.34065055  0.00000000  1
  P  P1  1  0.34339073  0.65660927  0.00000000  1
  P  P2  1  0.84313292  0.15686708  0.50000000  1
  Rh  Rh0  1  0.50412019  0.99984107  0.24804692  1
  Rh  Rh1  1  0.00015893  0.49587981  0.75195308  1
  Rh  Rh2  1  0.00015893  0.49587981  0.24804692  1
  Rh  Rh3  1  0.50412019  0.99984107  0.75195308  1
loop_
_geom_bond_atom_site_label_1
_geom_bond_atom_site_label_2
_geom_bond_distance
_geom_bond_site_symmetry_2
K0 P1 3.435221 1_556
K0 P1 3.435221 1_555
K0 P2 3.437401 1_565
K0 P2 3.437401 1_455
K0 P0 3.545116 1_556
K0 P0 3.545116 1_555
K1 P1 3.429970 1_655
K1 P1 3.429970 1_545
K1 P2 3.431811 1_555
K1 P2 3.431811 1_554
K1 P0 3.551018 1_545
K1 P0 3.551018 1_655
Ge0 Rh1 2.458617 1_555
Ge0 Rh2 2.458617 1_555
Ge0 Rh3 2.458617 1_555
Ge0 Rh0 2.458617 1_555
Ge0 K0 3.415472 1_565
Ge0 K0 3.415472 1_455
Ge0 K1 3.420677 1_466
Ge0 K1 3.420677 1_465
P0 Rh0 2.311062 1_545
P0 Rh3 2.311062 1_544
P0 Rh2 2.311062 1_655
P0 Rh1 2.311062 1_654
P1 Rh0 2.313467 1_555
P1 Rh3 2.313467 1_554
P1 Rh2 2.313467 1_555
P1 Rh1 2.313467 1_554
P2 Rh1 2.311478 1_655
P2 Rh2 2.311478 1_655
P2 Rh3 2.311478 1_545
P2 Rh0 2.311478 1_545
