# generated using pymatgen
data_Be8MoRu2W
_symmetry_space_group_name_H-M   'P 1'
_cell_length_a   4.37691796
_cell_length_b   4.37691917
_cell_length_c   7.15447818
_cell_angle_alpha   90.00000000
_cell_angle_beta   90.00000000
_cell_angle_gamma   120.00000576
_symmetry_Int_Tables_number   1
_chemical_formula_structural   Be8MoRu2W
_chemical_formula_sum   'Be8 Mo1 Ru2 W1'
_cell_volume   118.69857415
_cell_formula_units_Z   1
loop_
 _symmetry_equiv_pos_site_id
 _symmetry_equiv_pos_as_xyz
  1  'x, y, z'
loop_
 _atom_site_type_symbol
 _atom_site_label
 _atom_site_symmetry_multiplicity
 _atom_site_fract_x
 _atom_site_fract_y
 _atom_site_fract_z
 _atom_site_occupancy
  Be  Be0  1  0.00000000  0.00000000  0.50357543  1
  Be  Be1  1  0.00000000  0.00000000  0.99585164  1
  Be  Be2  1  0.83109326  0.16890674  0.24997538  1
  Be  Be3  1  0.83109326  0.66218651  0.24997538  1
  Be  Be4  1  0.33781349  0.16890674  0.24997538  1
  Be  Be5  1  0.16845801  0.83154199  0.75024690  1
  Be  Be6  1  0.16845801  0.33691902  0.75024690  1
  Be  Be7  1  0.66308098  0.83154199  0.75024690  1
  Mo  Mo0  1  0.33333300  0.66666700  0.06361096  1
  Ru  Ru0  1  0.66666700  0.33333300  0.55575709  1
  Ru  Ru1  1  0.66666700  0.33333300  0.94368115  1
  W  W0  1  0.33333300  0.66666700  0.43685590  1
loop_
_geom_bond_atom_site_label_1
_geom_bond_atom_site_label_2
_geom_bond_distance
_geom_bond_site_symmetry_2
Be0 Be5 2.178415 1_545
Be0 Be7 2.178422 1_445
Be0 Be6 2.178422 1_555
Be0 Be4 2.220724 1_555
Be0 Be2 2.220724 1_455
Be0 Be3 2.220724 1_445
Be0 Ru0 2.554441 1_455
Be0 Ru0 2.554444 1_555
Be0 Ru0 2.554445 1_445
Be0 W0 2.571702 1_545
Be0 W0 2.571705 1_445
Be0 W0 2.571706 1_555
Be1 Be5 2.172237 1_545
Be1 Be7 2.172243 1_445
Be1 Be6 2.172244 1_555
Be1 Be4 2.223786 1_556
Be1 Be2 2.223786 1_456
Be1 Be3 2.223786 1_446
Be1 Ru1 2.554430 1_455
Be1 Ru1 2.554433 1_555
Be1 Ru1 2.554433 1_445
Be1 Mo0 2.573093 1_546
Be1 Mo0 2.573096 1_446
Be1 Mo0 2.573097 1_556
Be2 Be4 2.159045 1_555
Be2 Be3 2.159046 1_555
Be2 Be4 2.217873 1_655
Be2 Be3 2.217874 1_545
Be2 Ru0 2.517913 1_555
Be2 Ru1 2.521100 1_554
Be2 Mo0 2.562701 1_655
Be2 Mo0 2.562701 1_545
Be2 W0 2.564624 1_655
Be2 W0 2.564624 1_545
Be3 Be4 2.159045 1_555
Be3 Be4 2.217873 1_665
Be3 Ru0 2.517915 1_555
Be3 Ru1 2.521102 1_554
Be3 Mo0 2.562699 1_655
Be3 Mo0 2.562703 1_555
Be3 W0 2.564622 1_655
Be3 W0 2.564626 1_555
Be4 Ru0 2.517915 1_555
Be4 Ru1 2.521102 1_554
Be4 Mo0 2.562700 1_545
Be4 Mo0 2.562704 1_555
Be4 W0 2.564623 1_545
Be4 W0 2.564627 1_555
Be5 Be7 2.164924 1_555
Be5 Be6 2.164925 1_555
Be5 Be7 2.211994 1_455
Be5 Be6 2.211994 1_565
Be5 Mo0 2.566842 1_556
Be5 W0 2.567011 1_555
Be5 Ru1 2.589358 1_455
Be5 Ru1 2.589358 1_565
Be5 Ru0 2.593402 1_455
Be5 Ru0 2.593402 1_565
Be6 Be7 2.164924 1_555
Be6 Be7 2.211994 1_445
Be6 Mo0 2.566839 1_556
Be6 W0 2.567007 1_555
Be6 Ru1 2.589351 1_455
Be6 Ru1 2.589365 1_555
Be6 Ru0 2.593395 1_455
Be6 Ru0 2.593410 1_555
Be7 Mo0 2.566839 1_556
Be7 W0 2.567007 1_555
Be7 Ru1 2.589351 1_565
Be7 Ru1 2.589366 1_555
Be7 Ru0 2.593395 1_565
Be7 Ru0 2.593410 1_555
Mo0 Ru1 2.668710 1_454
Mo0 Ru1 2.668711 1_564
Mo0 Ru1 2.668718 1_554
Mo0 W0 2.670373 1_555
Ru0 W0 2.666353 1_655
Ru0 W0 2.666354 1_545
Ru0 W0 2.666361 1_555
Ru0 Ru1 2.775394 1_555
