# generated using pymatgen
data_SrCr2(Sb6Ru)2
_symmetry_space_group_name_H-M   'P 1'
_cell_length_a   8.17584363
_cell_length_b   8.21048078
_cell_length_c   8.17584339
_cell_angle_alpha   109.37438476
_cell_angle_beta   109.54969208
_cell_angle_gamma   109.31912034
_symmetry_Int_Tables_number   1
_chemical_formula_structural   SrCr2(Sb6Ru)2
_chemical_formula_sum   'Sr1 Cr2 Sb12 Ru2'
_cell_volume   423.37060349
_cell_formula_units_Z   1
loop_
 _symmetry_equiv_pos_site_id
 _symmetry_equiv_pos_as_xyz
  1  'x, y, z'
loop_
 _atom_site_type_symbol
 _atom_site_label
 _atom_site_symmetry_multiplicity
 _atom_site_fract_x
 _atom_site_fract_y
 _atom_site_fract_z
 _atom_site_occupancy
  Sr  Sr0  1  0.00000000  0.00000000  0.00000000  1
  Cr  Cr0  1  0.50000000  0.00000000  0.00000000  1
  Cr  Cr1  1  0.00000000  0.00000000  0.50000000  1
  Sb  Sb0  1  0.15769492  0.49556426  0.33787034  1
  Sb  Sb1  1  0.50146263  0.65070659  0.83930650  1
  Sb  Sb2  1  0.33685125  0.83909028  0.18821679  1
  Sb  Sb3  1  0.81139909  0.65070659  0.14924396  1
  Sb  Sb4  1  0.65087549  0.83909028  0.50223904  1
  Sb  Sb5  1  0.18860091  0.34929341  0.85075604  1
  Sb  Sb6  1  0.66314875  0.16090972  0.81178321  1
  Sb  Sb7  1  0.34912451  0.16090972  0.49776096  1
  Sb  Sb8  1  0.49853737  0.34929341  0.16069350  1
  Sb  Sb9  1  0.84230508  0.50443574  0.66212966  1
  Sb  Sb10  1  0.84839223  0.19637338  0.34797915  1
  Sb  Sb11  1  0.15160777  0.80362662  0.65202085  1
  Ru  Ru0  1  0.50000000  0.50000000  0.50000000  1
  Ru  Ru1  1  0.00000000  0.50000000  0.00000000  1
loop_
_geom_bond_atom_site_label_1
_geom_bond_atom_site_label_2
_geom_bond_distance
_geom_bond_site_symmetry_2
Cr0 Sb10 2.702140 1_555
Cr0 Sb11 2.702140 1_544
Cr0 Sb6 2.729327 1_554
Cr0 Sb2 2.729327 1_545
Cr0 Sb8 2.735731 1_555
Cr0 Sb1 2.735731 1_544
Cr1 Sb11 2.702156 1_545
Cr1 Sb10 2.702156 1_455
Cr1 Sb7 2.729313 1_555
Cr1 Sb4 2.729313 1_445
Cr1 Sb5 2.735730 1_555
Cr1 Sb3 2.735730 1_445
Sb0 Sb10 2.932652 1_455
Sb0 Sb11 2.975822 1_555
Sb0 Sr0 3.540696 1_555
Sb1 Sb3 2.923172 1_556
Sb1 Sb5 2.966743 1_555
Sb1 Sr0 3.570179 1_666
Sb2 Sb7 2.935052 1_565
Sb2 Sb4 2.961712 1_555
Sb2 Sr0 3.552212 1_565
Sb3 Sb8 2.966743 1_555
Sb3 Sr0 3.570181 1_665
Sb4 Sb6 2.935052 1_565
Sb4 Sr0 3.552207 1_666
Sb5 Sb8 2.923172 1_556
Sb5 Sr0 3.570181 1_556
Sb6 Sb7 2.961712 1_555
Sb6 Sr0 3.552212 1_656
Sb7 Sr0 3.552207 1_555
Sb8 Sr0 3.570179 1_555
Sb9 Sr0 3.540696 1_666
Sb10 Sb9 2.975822 1_555
Sb10 Sr0 3.587356 1_655
Sb11 Sb9 2.932652 1_455
Sb11 Sr0 3.587356 1_566
Ru0 Sb1 2.630114 1_555
Ru0 Sb8 2.630114 1_555
Ru0 Sb4 2.636641 1_555
Ru0 Sb7 2.636641 1_555
Ru0 Sb9 2.647367 1_555
Ru0 Sb0 2.647367 1_555
Ru1 Sb3 2.630121 1_455
Ru1 Sb5 2.630121 1_554
Ru1 Sb2 2.636639 1_555
Ru1 Sb6 2.636639 1_454
Ru1 Sb0 2.647375 1_555
Ru1 Sb9 2.647375 1_454
