# generated using pymatgen
data_Sr8Ti3CoO16
_symmetry_space_group_name_H-M   'P 1'
_cell_length_a   5.45513635
_cell_length_b   8.76396947
_cell_length_c   8.76393627
_cell_angle_alpha   88.37183578
_cell_angle_beta   71.69301796
_cell_angle_gamma   108.30700768
_symmetry_Int_Tables_number   1
_chemical_formula_structural   Sr8Ti3CoO16
_chemical_formula_sum   'Sr8 Ti3 Co1 O16'
_cell_volume   373.88027283
_cell_formula_units_Z   1
loop_
 _symmetry_equiv_pos_site_id
 _symmetry_equiv_pos_as_xyz
  1  'x, y, z'
loop_
 _atom_site_type_symbol
 _atom_site_label
 _atom_site_symmetry_multiplicity
 _atom_site_fract_x
 _atom_site_fract_y
 _atom_site_fract_z
 _atom_site_occupancy
  Sr  Sr0  1  0.24991859  0.39359431  0.89360126  1
  Sr  Sr1  1  0.99749359  0.64098581  0.64736942  1
  Sr  Sr2  1  0.75004692  0.89615042  0.39613751  1
  Sr  Sr3  1  0.50250476  0.14742189  0.14097326  1
  Sr  Sr4  1  0.99750925  0.35264141  0.35899374  1
  Sr  Sr5  1  0.75011972  0.60394811  0.10380524  1
  Sr  Sr6  1  0.50243696  0.85896423  0.85264288  1
  Sr  Sr7  1  0.24988589  0.10637400  0.60641302  1
  Ti  Ti0  1  0.49808082  0.49645302  0.50351435  1
  Ti  Ti1  1  0.25006784  0.75001762  0.25003063  1
  Ti  Ti2  1  0.00195971  0.00355286  0.99647688  1
  Co  Co0  1  0.74993508  0.24998727  0.74996681  1
  O  O0  1  0.25006858  0.59189476  0.09175765  1
  O  O1  1  0.00545780  0.84282626  0.84085805  1
  O  O2  1  0.74994825  0.09619172  0.59609319  1
  O  O3  1  0.49444212  0.34069358  0.34296547  1
  O  O4  1  0.00565124  0.15934900  0.15699800  1
  O  O5  1  0.74983803  0.40380306  0.90384834  1
  O  O6  1  0.49451488  0.65707612  0.65923085  1
  O  O7  1  0.24991834  0.90808993  0.40831556  1
  O  O8  1  0.87477109  0.12739240  0.87252606  1
  O  O9  1  0.62505006  0.37252289  0.62746707  1
  O  O10  1  0.37467459  0.62393372  0.37601042  1
  O  O11  1  0.12565231  0.87616748  0.12397048  1
  O  O12  1  0.38900616  0.12964949  0.87024280  1
  O  O13  1  0.11085639  0.37034121  0.62967547  1
  O  O14  1  0.87117315  0.62403016  0.37591637  1
  O  O15  1  0.62901787  0.87594726  0.12419425  1
loop_
_geom_bond_atom_site_label_1
_geom_bond_atom_site_label_2
_geom_bond_distance
_geom_bond_site_symmetry_2
Co0 O12 1.851628 1_555
Co0 O13 1.851660 1_655
Co0 O9 1.903554 1_555
Co0 O8 1.904052 1_555
Co0 O2 1.933538 1_555
Co0 O5 1.933715 1_555
O0 Ti1 1.988381 1_555
O0 Sr0 2.491522 1_554
O0 Sr5 2.731508 1_455
O0 Sr5 2.732033 1_555
O0 Sr6 2.765812 1_554
O0 Sr4 2.767482 1_455
O1 Ti2 1.988535 1_565
O1 Sr1 2.484936 1_455
O1 Sr6 2.704908 1_555
O1 Sr7 2.721920 1_565
O1 Sr5 2.740608 1_456
O1 Sr6 2.761714 1_455
O2 Sr2 2.513770 1_545
O2 Sr4 2.694037 1_555
O2 Sr6 2.695273 1_545
O2 Sr7 2.730571 1_555
O2 Sr7 2.730648 1_655
O3 Ti0 1.988277 1_555
O3 Sr3 2.484560 1_555
O3 Sr4 2.705414 1_455
O3 Sr7 2.720684 1_555
O3 Sr5 2.743828 1_555
O3 Sr4 2.761225 1_555
O4 Ti2 1.988330 1_554
O4 Sr4 2.484715 1_455
O4 Sr3 2.704926 1_555
O4 Sr0 2.720030 1_554
O4 Sr2 2.743398 1_445
O4 Sr3 2.761695 1_455
O5 Sr5 2.514430 1_556
O5 Sr3 2.693779 1_556
O5 Sr1 2.694633 1_555
O5 Sr0 2.730262 1_555
O5 Sr0 2.730930 1_655
O6 Ti0 1.988481 1_555
O6 Sr6 2.484762 1_555
O6 Sr1 2.705484 1_455
O6 Sr0 2.721141 1_555
O6 Sr2 2.742455 1_555
O6 Sr1 2.761149 1_555
O7 Ti1 1.988139 1_555
O7 Sr7 2.491049 1_565
O7 Sr2 2.731731 1_455
O7 Sr2 2.731821 1_555
O7 Sr1 2.765705 1_455
O7 Sr3 2.768501 1_565
O8 Ti2 1.928455 1_655
O8 Sr7 2.631265 1_655
O8 Sr0 2.632033 1_655
O8 Sr6 2.633245 1_545
O8 Sr3 2.633589 1_556
O9 Ti0 1.928136 1_555
O9 Sr0 2.631589 1_555
O9 Sr7 2.631718 1_555
O9 Sr1 2.633806 1_555
O9 Sr4 2.633843 1_555
O10 Ti1 1.943211 1_555
O10 Ti0 1.955558 1_555
O10 Sr4 2.654848 1_455
O10 Sr1 2.655370 1_455
O10 Sr5 2.663856 1_555
O10 Sr2 2.664138 1_555
O11 Ti1 1.943323 1_555
O11 Ti2 1.956043 1_564
O11 Sr3 2.653719 1_565
O11 Sr6 2.654516 1_554
O11 Sr2 2.664073 1_455
O11 Sr5 2.664709 1_455
O12 Ti2 1.974951 1_555
O12 Sr6 2.630093 1_545
O12 Sr3 2.630672 1_556
O12 Sr7 2.644939 1_555
O12 Sr0 2.645835 1_555
O13 Ti0 1.975542 1_555
O13 Sr1 2.629567 1_455
O13 Sr4 2.629834 1_455
O13 Sr0 2.645580 1_555
O13 Sr7 2.645844 1_555
O14 Ti0 1.926790 1_555
O14 Ti1 1.942422 1_655
O14 Sr5 2.663516 1_555
O14 Sr2 2.663822 1_555
O14 Sr4 2.671993 1_555
O14 Sr1 2.672488 1_555
O15 Ti2 1.926524 1_664
O15 Ti1 1.942431 1_555
O15 Sr2 2.662028 1_555
O15 Sr5 2.662740 1_555
O15 Sr3 2.673229 1_565
O15 Sr6 2.674065 1_554
