# generated using pymatgen
data_P2I7Br3
_symmetry_space_group_name_H-M   'P 1'
_cell_length_a   6.19718646
_cell_length_b   9.16708234
_cell_length_c   18.74561667
_cell_angle_alpha   90.00000000
_cell_angle_beta   90.00000000
_cell_angle_gamma   90.00000000
_symmetry_Int_Tables_number   1
_chemical_formula_structural   P2I7Br3
_chemical_formula_sum   'P4 I14 Br6'
_cell_volume   1064.94070595
_cell_formula_units_Z   2
loop_
 _symmetry_equiv_pos_site_id
 _symmetry_equiv_pos_as_xyz
  1  'x, y, z'
loop_
 _atom_site_type_symbol
 _atom_site_label
 _atom_site_symmetry_multiplicity
 _atom_site_fract_x
 _atom_site_fract_y
 _atom_site_fract_z
 _atom_site_occupancy
  P  P0  1  0.02513056  0.75000000  0.63828342  1
  P  P1  1  0.02513056  0.25000000  0.86171658  1
  P  P2  1  0.98802615  0.25000000  0.36766689  1
  P  P3  1  0.98802615  0.75000000  0.13233311  1
  I  I0  1  0.19583997  0.75000000  0.24402568  1
  I  I1  1  0.19583997  0.25000000  0.25597432  1
  I  I2  1  0.80291474  0.25000000  0.75424334  1
  I  I3  1  0.80291474  0.75000000  0.74575666  1
  I  I4  1  0.76107168  0.96886739  0.12277454  1
  I  I5  1  0.76107168  0.03113261  0.37722546  1
  I  I6  1  0.24497207  0.47052356  0.86976397  1
  I  I7  1  0.24497207  0.52947644  0.63023603  1
  I  I8  1  0.24497207  0.02947644  0.86976397  1
  I  I9  1  0.24497207  0.97052356  0.63023603  1
  I  I10  1  0.76107168  0.53113261  0.12277454  1
  I  I11  1  0.76107168  0.46886739  0.37722546  1
  I  I12  1  0.43603887  0.75000000  0.40029145  1
  I  I13  1  0.43603887  0.25000000  0.09970855  1
  Br  Br0  1  0.52520582  0.25000000  0.61354303  1
  Br  Br1  1  0.52520582  0.75000000  0.88645697  1
  Br  Br2  1  0.80467126  0.75000000  0.54647819  1
  Br  Br3  1  0.80467126  0.25000000  0.95352181  1
  Br  Br4  1  0.21008513  0.25000000  0.45882383  1
  Br  Br5  1  0.21008513  0.75000000  0.04117617  1
loop_
_geom_bond_atom_site_label_1
_geom_bond_atom_site_label_2
_geom_bond_distance
_geom_bond_site_symmetry_2
I0 P3 2.458121 1_455
I0 I12 3.285817 1_555
I1 P2 2.458121 1_455
I1 I13 3.285817 1_555
I2 P1 2.440341 1_655
I3 P0 2.440341 1_655
I4 P3 2.456793 1_555
I5 P2 2.456793 1_555
I6 P1 2.442454 1_555
I7 P0 2.442454 1_555
I8 P1 2.442454 1_555
I9 P0 2.442454 1_555
I10 P3 2.456793 1_555
I10 I13 3.299409 1_555
I11 P2 2.456793 1_555
I11 I12 3.299409 1_555
I12 I5 3.299409 1_565
I13 I4 3.299409 1_545
Br0 I9 3.110895 1_545
Br0 I7 3.110895 1_555
Br0 I2 3.149344 1_555
Br1 I6 3.110895 1_555
Br1 I8 3.110895 1_565
Br1 I3 3.149344 1_555
Br2 P0 2.197324 1_655
Br3 P1 2.197324 1_655
Br4 P2 2.194023 1_455
Br5 P3 2.194023 1_455
