# generated using pymatgen
data_Pu2S3
_symmetry_space_group_name_H-M   'P 1'
_cell_length_a   13.86177961
_cell_length_b   13.86177961
_cell_length_c   13.86177961
_cell_angle_alpha   145.15977959
_cell_angle_beta   145.15977959
_cell_angle_gamma   50.09648039
_symmetry_Int_Tables_number   1
_chemical_formula_structural   Pu2S3
_chemical_formula_sum   'Pu16 S24'
_cell_volume   865.07761602
_cell_formula_units_Z   8
loop_
 _symmetry_equiv_pos_site_id
 _symmetry_equiv_pos_as_xyz
  1  'x, y, z'
loop_
 _atom_site_type_symbol
 _atom_site_label
 _atom_site_symmetry_multiplicity
 _atom_site_fract_x
 _atom_site_fract_y
 _atom_site_fract_z
 _atom_site_occupancy
  Pu  Pu0  1  0.08475100  0.58475100  0.50000000  1
  Pu  Pu1  1  0.87500000  0.24518000  0.87018000  1
  Pu  Pu2  1  0.34568400  0.45586200  0.37969200  1
  Pu  Pu3  1  0.66524900  0.66524900  0.00000000  1
  Pu  Pu4  1  0.37500000  0.00482000  0.12982000  1
  Pu  Pu5  1  0.07617100  0.96599200  0.62030800  1
  Pu  Pu6  1  0.54413800  0.92382900  0.88982100  1
  Pu  Pu7  1  0.99518000  0.12500000  0.37018000  1
  Pu  Pu8  1  0.33475100  0.33475100  0.00000000  1
  Pu  Pu9  1  0.75482000  0.62500000  0.62982000  1
  Pu  Pu10  1  0.03400800  0.65431600  0.11017900  1
  Pu  Pu11  1  0.41524900  0.91524900  0.50000000  1
  Pu  Pu12  1  0.20586200  0.59568400  0.87969200  1
  Pu  Pu13  1  0.67382900  0.79413800  0.38982100  1
  Pu  Pu14  1  0.40431600  0.28400800  0.61017900  1
  Pu  Pu15  1  0.71599200  0.32617100  0.12030800  1
  S  S0  1  0.02810100  0.92411400  0.74482900  1
  S  S1  1  0.74039600  0.49146600  0.09795300  1
  S  S2  1  0.00960400  0.60755700  0.25106900  1
  S  S3  1  0.39351300  0.64244300  0.90204700  1
  S  S4  1  0.35648700  0.75853400  0.74893100  1
  S  S5  1  0.17928400  0.28327200  0.25517100  1
  S  S6  1  0.72189900  0.96672800  0.39601300  1
  S  S7  1  0.57071600  0.32588600  0.60398700  1
  S  S8  1  0.68788800  0.59655800  0.75259400  1
  S  S9  1  0.40344200  0.15603600  0.09133100  1
  S  S10  1  0.67411400  0.27810100  0.24482900  1
  S  S11  1  0.06470500  0.31211200  0.90866900  1
  S  S12  1  0.03327200  0.42928400  0.75517100  1
  S  S13  1  0.39244300  0.64351300  0.40204700  1
  S  S14  1  0.84396400  0.93529500  0.24740600  1
  S  S15  1  0.24146600  0.99039600  0.59795300  1
  S  S16  1  0.35755700  0.25960400  0.75106900  1
  S  S17  1  0.07588600  0.82071600  0.10398700  1
  S  S18  1  0.71672800  0.97189900  0.89601300  1
  S  S19  1  0.34655800  0.93788800  0.25259400  1
  S  S20  1  0.68529500  0.09396400  0.74740600  1
  S  S21  1  0.06211200  0.31470500  0.40866900  1
  S  S22  1  0.50853400  0.60648700  0.24893100  1
  S  S23  1  0.90603600  0.65344200  0.59133100  1
loop_
_geom_bond_atom_site_label_1
_geom_bond_atom_site_label_2
_geom_bond_distance
_geom_bond_site_symmetry_2
Pu0 S5 2.773522 1_555
Pu0 S0 2.773529 1_555
Pu0 S3 2.817512 1_555
Pu0 S1 2.817512 1_455
Pu0 S4 2.925684 1_555
Pu0 S2 2.925705 1_555
Pu0 S21 2.964710 1_555
Pu0 S23 2.964718 1_455
Pu1 S7 2.798578 1_555
Pu1 S5 2.798579 1_656
Pu1 S20 2.841677 1_555
Pu1 S11 2.841687 1_655
Pu1 S0 2.927722 1_645
Pu1 S6 2.927722 1_545
Pu1 S1 2.984835 1_556
Pu1 S2 2.984836 1_656
Pu2 S9 2.757912 1_555
Pu2 S5 2.790944 1_555
Pu2 S13 2.791512 1_555
Pu2 S8 2.845391 1_555
Pu2 S4 2.849630 1_555
Pu2 S11 2.937384 1_554
Pu2 S7 2.950892 1_555
Pu2 S2 3.042207 1_555
Pu3 S6 2.773529 1_555
Pu3 S7 2.773530 1_554
Pu3 S4 2.817507 1_554
Pu3 S2 2.817511 1_655
Pu3 S3 2.925692 1_554
Pu3 S1 2.925692 1_555
Pu3 S8 2.964706 1_554
Pu3 S14 2.964718 1_555
Pu4 S6 2.798580 1_545
Pu4 S0 2.798580 1_544
Pu4 S9 2.841677 1_555
Pu4 S19 2.841689 1_545
Pu4 S7 2.927723 1_555
Pu4 S5 2.927730 1_555
Pu4 S4 2.984824 1_544
Pu4 S3 2.984835 1_544
Pu5 S11 2.757921 1_565
Pu5 S0 2.790944 1_555
Pu5 S15 2.791498 1_555
Pu5 S14 2.845396 1_455
Pu5 S2 2.849624 1_555
Pu5 S9 2.937376 1_566
Pu5 S6 2.950905 1_455
Pu5 S4 3.042210 1_555
Pu6 S14 2.757913 1_556
Pu6 S18 2.790930 1_555
Pu6 S4 2.791521 1_555
Pu6 S9 2.845407 1_566
Pu6 S15 2.849624 1_555
Pu6 S8 2.937370 1_555
Pu6 S10 2.950901 1_566
Pu6 S13 3.042202 1_555
Pu7 S17 2.798578 1_645
Pu7 S12 2.798579 1_655
Pu7 S14 2.841677 1_545
Pu7 S21 2.841687 1_655
Pu7 S18 2.927722 1_544
Pu7 S10 2.927722 1_555
Pu7 S15 2.984835 1_645
Pu7 S16 2.984836 1_655
Pu8 S12 2.773522 1_554
Pu8 S10 2.773529 1_555
Pu8 S13 2.817512 1_555
Pu8 S15 2.817512 1_544
Pu8 S22 2.925684 1_555
Pu8 S16 2.925705 1_554
Pu8 S11 2.964710 1_554
Pu8 S9 2.964718 1_555
Pu9 S10 2.798580 1_555
Pu9 S18 2.798580 1_555
Pu9 S23 2.841677 1_555
Pu9 S8 2.841689 1_555
Pu9 S17 2.927723 1_656
Pu9 S12 2.927730 1_655
Pu9 S22 2.984824 1_555
Pu9 S13 2.984835 1_555
Pu10 S8 2.757920 1_454
Pu10 S17 2.790958 1_555
Pu10 S2 2.791485 1_555
Pu10 S11 2.845385 1_554
Pu10 S13 2.849622 1_555
Pu10 S14 2.937376 1_455
Pu10 S12 2.950901 1_554
Pu10 S15 3.042206 1_555
Pu11 S18 2.773529 1_555
Pu11 S17 2.773530 1_555
Pu11 S22 2.817507 1_555
Pu11 S16 2.817511 1_565
Pu11 S13 2.925692 1_555
Pu11 S15 2.925692 1_555
Pu11 S19 2.964706 1_555
Pu11 S20 2.964718 1_565
Pu12 S23 2.757912 1_455
Pu12 S12 2.790944 1_555
Pu12 S3 2.791512 1_555
Pu12 S19 2.845391 1_556
Pu12 S22 2.849630 1_556
Pu12 S21 2.937384 1_555
Pu12 S17 2.950892 1_556
Pu12 S16 3.042207 1_555
Pu13 S20 2.757913 1_565
Pu13 S6 2.790930 1_555
Pu13 S22 2.791521 1_555
Pu13 S23 2.845407 1_555
Pu13 S1 2.849624 1_555
Pu13 S19 2.937370 1_555
Pu13 S0 2.950901 1_655
Pu13 S3 3.042202 1_554
Pu14 S19 2.757920 1_545
Pu14 S7 2.790958 1_555
Pu14 S16 2.791485 1_555
Pu14 S21 2.845385 1_555
Pu14 S3 2.849622 1_555
Pu14 S20 2.937376 1_555
Pu14 S5 2.950901 1_555
Pu14 S1 3.042206 1_556
Pu15 S21 2.757921 1_655
Pu15 S10 2.790944 1_555
Pu15 S1 2.791498 1_555
Pu15 S20 2.845396 1_554
Pu15 S16 2.849624 1_554
Pu15 S23 2.937376 1_555
Pu15 S18 2.950905 1_544
Pu15 S22 3.042210 1_555
