# generated using pymatgen
data_Y10AlSnBi4
_symmetry_space_group_name_H-M   'P 1'
_cell_length_a   9.06537047
_cell_length_b   9.06043848
_cell_length_c   6.48538099
_cell_angle_alpha   89.99998959
_cell_angle_beta   89.99997425
_cell_angle_gamma   119.99774219
_symmetry_Int_Tables_number   1
_chemical_formula_structural   Y10AlSnBi4
_chemical_formula_sum   'Y10 Al1 Sn1 Bi4'
_cell_volume   461.32902431
_cell_formula_units_Z   1
loop_
 _symmetry_equiv_pos_site_id
 _symmetry_equiv_pos_as_xyz
  1  'x, y, z'
loop_
 _atom_site_type_symbol
 _atom_site_label
 _atom_site_symmetry_multiplicity
 _atom_site_fract_x
 _atom_site_fract_y
 _atom_site_fract_z
 _atom_site_occupancy
  Y  Y0  1  0.67239570  0.33116148  0.50442237  1
  Y  Y1  1  0.32571644  0.66354174  0.50446635  1
  Y  Y2  1  0.32571636  0.66354016  0.99553356  1
  Y  Y3  1  0.67239484  0.33116176  0.99557807  1
  Y  Y4  1  0.75767140  0.75732794  0.24999838  1
  Y  Y5  1  0.24170361  0.99895055  0.25000026  1
  Y  Y6  1  0.99909060  0.23918506  0.24999994  1
  Y  Y7  1  0.23392785  0.24161448  0.75000179  1
  Y  Y8  1  0.76477996  0.01324334  0.74999772  1
  Y  Y9  1  0.00574241  0.75773112  0.74999954  1
  Al  Al0  1  0.00050757  0.39491759  0.75000030  1
  Sn  Sn0  1  0.39078514  0.00210962  0.74999984  1
  Bi  Bi0  1  0.39206930  0.38962895  0.25000321  1
  Bi  Bi1  1  0.60643375  0.99558455  0.25000019  1
  Bi  Bi2  1  0.99820410  0.60635267  0.24999929  1
  Bi  Bi3  1  0.61286197  0.61394901  0.74999920  1
loop_
_geom_bond_atom_site_label_1
_geom_bond_atom_site_label_2
_geom_bond_distance
_geom_bond_site_symmetry_2
Al0 Y8 3.022566 1_455
Al0 Y7 3.057107 1_555
Al0 Y2 3.158474 1_555
Al0 Y1 3.158479 1_555
Al0 Y0 3.162209 1_455
Al0 Y3 3.162214 1_455
Al0 Y9 3.263782 1_555
Al0 Y6 3.533837 1_456
Al0 Y6 3.533841 1_455
Sn0 Y9 3.059146 1_545
Sn0 Y7 3.133125 1_555
Sn0 Y0 3.214307 1_555
Sn0 Y3 3.214310 1_555
Sn0 Y1 3.237943 1_545
Sn0 Y2 3.237955 1_545
Sn0 Y8 3.341109 1_555
Sn0 Y5 3.507658 1_545
Sn0 Y5 3.507662 1_546
Bi0 Y5 3.092405 1_545
Bi0 Y6 3.113476 1_455
Bi0 Y1 3.276763 1_555
Bi0 Y2 3.276772 1_554
Bi0 Y0 3.287443 1_555
Bi0 Y3 3.287453 1_554
Bi0 Y4 3.323063 1_555
Bi0 Y7 3.527925 1_555
Bi0 Y7 3.527943 1_554
Bi1 Y4 3.082074 1_555
Bi1 Y6 3.112252 1_565
Bi1 Y0 3.241396 1_565
Bi1 Y3 3.241399 1_564
Bi1 Y1 3.254987 1_555
Bi1 Y2 3.254998 1_554
Bi1 Y5 3.321767 1_555
Bi1 Y8 3.517308 1_565
Bi1 Y8 3.517336 1_564
Bi2 Y4 3.099733 1_555
Bi2 Y5 3.110341 1_655
Bi2 Y2 3.204495 1_654
Bi2 Y1 3.204497 1_655
Bi2 Y3 3.209236 1_554
Bi2 Y0 3.209237 1_555
Bi2 Y6 3.330725 1_555
Bi2 Y9 3.508153 1_654
Bi2 Y9 3.508157 1_655
Bi3 Y9 3.121322 1_655
Bi3 Y8 3.162746 1_565
Bi3 Y2 3.268506 1_555
Bi3 Y1 3.268509 1_555
Bi3 Y3 3.282575 1_555
Bi3 Y0 3.282575 1_555
Bi3 Y7 3.404881 1_555
Bi3 Y4 3.495809 1_556
Bi3 Y4 3.495817 1_555
