# generated using pymatgen
data_Rb4CdHg5Se8
_symmetry_space_group_name_H-M   'P 1'
_cell_length_a   9.97656972
_cell_length_b   9.97656955
_cell_length_c   9.97656900
_cell_angle_alpha   141.77396695
_cell_angle_beta   107.63929428
_cell_angle_gamma   84.91696744
_symmetry_Int_Tables_number   1
_chemical_formula_structural   Rb4CdHg5Se8
_chemical_formula_sum   'Rb4 Cd1 Hg5 Se8'
_cell_volume   566.42008152
_cell_formula_units_Z   1
loop_
 _symmetry_equiv_pos_site_id
 _symmetry_equiv_pos_as_xyz
  1  'x, y, z'
loop_
 _atom_site_type_symbol
 _atom_site_label
 _atom_site_symmetry_multiplicity
 _atom_site_fract_x
 _atom_site_fract_y
 _atom_site_fract_z
 _atom_site_occupancy
  Rb  Rb0  1  0.11907666  0.77241718  0.89486927  1
  Rb  Rb1  1  0.87754792  0.22420739  0.10513073  1
  Rb  Rb2  1  0.62245208  0.72758282  0.34665948  1
  Rb  Rb3  1  0.38092334  0.27579261  0.65334052  1
  Cd  Cd0  1  0.25000000  0.75000000  0.50000000  1
  Hg  Hg0  1  0.75000000  0.25000000  0.50000000  1
  Hg  Hg1  1  0.91211739  0.75000000  0.16211739  1
  Hg  Hg2  1  0.58788261  0.75000000  0.83788261  1
  Hg  Hg3  1  0.09037190  0.25000000  0.84037190  1
  Hg  Hg4  1  0.40962810  0.25000000  0.15962810  1
  Se  Se0  1  0.23430109  0.64147281  0.14814957  1
  Se  Se1  1  0.49332324  0.08615152  0.85185043  1
  Se  Se2  1  0.00667676  0.85852719  0.59282828  1
  Se  Se3  1  0.26569891  0.41384848  0.40717172  1
  Se  Se4  1  0.76740280  0.35965211  0.85602117  1
  Se  Se5  1  0.50363094  0.91138063  0.14397883  1
  Se  Se6  1  0.99636906  0.14034789  0.40775069  1
  Se  Se7  1  0.73259720  0.58861937  0.59224931  1
loop_
_geom_bond_atom_site_label_1
_geom_bond_atom_site_label_2
_geom_bond_distance
_geom_bond_site_symmetry_2
Rb0 Se5 3.545151 1_556
Rb0 Se0 3.545849 1_556
Rb0 Se7 3.583853 1_455
Rb0 Se2 3.595043 1_555
Rb0 Se6 3.807147 1_455
Rb0 Se6 3.826827 1_466
Rb0 Se3 3.827508 1_555
Rb0 Se3 3.866958 1_566
Rb1 Se4 3.545151 1_554
Rb1 Se1 3.545849 1_554
Rb1 Se6 3.583853 1_555
Rb1 Se3 3.595043 1_655
Rb1 Se7 3.807146 1_555
Rb1 Se7 3.826820 1_544
Rb1 Se2 3.827508 1_655
Rb1 Se2 3.866958 1_644
Rb2 Se7 3.545142 1_555
Rb2 Se2 3.545849 1_655
Rb2 Se5 3.583844 1_555
Rb2 Se0 3.595043 1_555
Rb2 Se4 3.807147 1_565
Rb2 Se4 3.826827 1_554
Rb2 Se1 3.827508 1_565
Rb2 Se1 3.866958 1_554
Rb3 Se6 3.545151 1_455
Rb3 Se3 3.545849 1_555
Rb3 Se4 3.583853 1_555
Rb3 Se1 3.595043 1_555
Rb3 Se5 3.807145 1_545
Rb3 Se5 3.826820 1_556
Rb3 Se0 3.827508 1_545
Rb3 Se0 3.866958 1_556
Cd0 Se0 2.691505 1_555
Cd0 Se1 2.691505 1_565
Cd0 Se3 2.691505 1_555
Cd0 Se2 2.691505 1_555
Hg0 Se4 2.719880 1_555
Hg0 Se6 2.719880 1_555
Hg0 Se5 2.719883 1_545
Hg0 Se7 2.719890 1_555
Hg1 Se4 2.493048 1_554
Hg1 Se6 2.493048 1_565
Hg1 Rb0 3.972018 1_654
Hg1 Rb2 3.972018 1_555
Hg2 Se7 2.493049 1_555
Hg2 Se5 2.493051 1_556
Hg2 Rb1 3.972018 1_566
Hg2 Rb3 3.972018 1_555
Hg3 Se0 2.494707 1_556
Hg3 Se2 2.494707 1_545
Hg3 Rb1 4.014343 1_456
Hg3 Rb3 4.014343 1_555
Hg4 Se1 2.494707 1_554
Hg4 Se3 2.494707 1_555
Hg4 Rb0 4.014343 1_544
Hg4 Rb2 4.014343 1_555
