# generated using pymatgen
data_Hf10ZnSn6Sb
_symmetry_space_group_name_H-M   'P 1'
_cell_length_a   8.64077372
_cell_length_b   8.64077421
_cell_length_c   5.84154960
_cell_angle_alpha   90.00000000
_cell_angle_beta   90.00000000
_cell_angle_gamma   120.00000187
_symmetry_Int_Tables_number   1
_chemical_formula_structural   Hf10ZnSn6Sb
_chemical_formula_sum   'Hf10 Zn1 Sn6 Sb1'
_cell_volume   377.71478196
_cell_formula_units_Z   1
loop_
 _symmetry_equiv_pos_site_id
 _symmetry_equiv_pos_as_xyz
  1  'x, y, z'
loop_
 _atom_site_type_symbol
 _atom_site_label
 _atom_site_symmetry_multiplicity
 _atom_site_fract_x
 _atom_site_fract_y
 _atom_site_fract_z
 _atom_site_occupancy
  Hf  Hf0  1  0.72675788  0.72675788  0.73615909  1
  Hf  Hf1  1  0.27324212  1.00000000  0.73615909  1
  Hf  Hf2  1  0.00000000  0.27324212  0.73615909  1
  Hf  Hf3  1  0.27324212  0.27324212  0.26384091  1
  Hf  Hf4  1  0.72675788  0.00000000  0.26384091  1
  Hf  Hf5  1  0.00000000  0.72675788  0.26384091  1
  Hf  Hf6  1  0.66666700  0.33333300  0.00000000  1
  Hf  Hf7  1  0.33333300  0.66666700  0.00000000  1
  Hf  Hf8  1  0.33333300  0.66666700  0.50000000  1
  Hf  Hf9  1  0.66666700  0.33333300  0.50000000  1
  Zn  Zn0  1  0.00000000  0.00000000  0.50000000  1
  Sn  Sn0  1  0.38861951  0.38861951  0.75386681  1
  Sn  Sn1  1  0.61138049  1.00000000  0.75386681  1
  Sn  Sn2  1  0.00000000  0.61138049  0.75386681  1
  Sn  Sn3  1  0.61138049  0.61138049  0.24613319  1
  Sn  Sn4  1  0.38861951  0.00000000  0.24613319  1
  Sn  Sn5  1  0.00000000  0.38861951  0.24613319  1
  Sb  Sb0  1  0.00000000  0.00000000  0.00000000  1
loop_
_geom_bond_atom_site_label_1
_geom_bond_atom_site_label_2
_geom_bond_distance
_geom_bond_site_symmetry_2
Hf0 Zn0 2.734511 1_665
Hf0 Sb0 2.819548 1_666
Hf0 Sn0 2.923608 1_555
Hf0 Sn2 2.988789 1_655
Hf0 Sn1 2.988790 1_555
Hf0 Sn3 3.031151 1_555
Hf0 Sn3 3.141430 1_556
Hf1 Zn0 2.734511 1_565
Hf1 Sb0 2.819548 1_566
Hf1 Sn1 2.923608 1_555
Hf1 Sn2 2.988789 1_555
Hf1 Sn0 2.988790 1_565
Hf1 Sn4 3.031151 1_565
Hf1 Sn4 3.141430 1_566
Hf2 Zn0 2.734511 1_555
Hf2 Sb0 2.819548 1_556
Hf2 Sn2 2.923608 1_555
Hf2 Sn0 2.988789 1_555
Hf2 Sn1 2.988789 1_445
Hf2 Sn5 3.031151 1_555
Hf2 Sn5 3.141430 1_556
Hf3 Zn0 2.734511 1_555
Hf3 Sb0 2.819548 1_555
Hf3 Sn3 2.923608 1_555
Hf3 Sn5 2.988789 1_555
Hf3 Sn4 2.988790 1_555
Hf3 Sn0 3.031151 1_555
Hf3 Sn0 3.141430 1_554
Hf4 Zn0 2.734511 1_655
Hf4 Sb0 2.819548 1_655
Hf4 Sn4 2.923608 1_555
Hf4 Sn5 2.988789 1_655
Hf4 Sn3 2.988790 1_545
Hf4 Sn1 3.031151 1_545
Hf4 Sn1 3.141430 1_544
Hf5 Zn0 2.734511 1_565
Hf5 Sb0 2.819548 1_565
Hf5 Sn5 2.923608 1_555
Hf5 Sn3 2.988789 1_455
Hf5 Sn4 2.988789 1_565
Hf5 Sn2 3.031151 1_555
Hf5 Sn2 3.141430 1_554
Hf6 Sn5 3.035688 1_655
Hf6 Sn1 3.035688 1_544
Hf6 Sn2 3.035690 1_654
Hf6 Sn4 3.035690 1_555
Hf6 Sn0 3.035695 1_554
Hf6 Sn3 3.035695 1_555
Hf7 Sn2 3.035688 1_554
Hf7 Sn4 3.035688 1_565
Hf7 Sn5 3.035690 1_555
Hf7 Sn1 3.035690 1_554
Hf7 Sn3 3.035695 1_555
Hf7 Sn0 3.035695 1_554
Hf8 Sn2 3.057344 1_555
Hf8 Sn4 3.057344 1_565
Hf8 Sn5 3.057346 1_555
Hf8 Sn1 3.057346 1_555
Hf8 Sn3 3.057351 1_555
Hf8 Sn0 3.057351 1_555
Hf9 Sn5 3.057344 1_655
Hf9 Sn1 3.057344 1_545
Hf9 Sn2 3.057346 1_655
Hf9 Sn4 3.057346 1_555
Hf9 Sn0 3.057351 1_555
Hf9 Sn3 3.057351 1_555
Sb0 Zn0 2.920775 1_554
Sb0 Zn0 2.920775 1_555
