# generated using pymatgen
data_Zr6Zn20SiNi3
_symmetry_space_group_name_H-M   'P 1'
_cell_length_a   8.63513505
_cell_length_b   8.63513504
_cell_length_c   8.58911564
_cell_angle_alpha   59.80939696
_cell_angle_beta   59.80939559
_cell_angle_gamma   59.57003614
_symmetry_Int_Tables_number   1
_chemical_formula_structural   Zr6Zn20SiNi3
_chemical_formula_sum   'Zr6 Zn20 Si1 Ni3'
_cell_volume   450.08185945
_cell_formula_units_Z   1
loop_
 _symmetry_equiv_pos_site_id
 _symmetry_equiv_pos_as_xyz
  1  'x, y, z'
loop_
 _atom_site_type_symbol
 _atom_site_label
 _atom_site_symmetry_multiplicity
 _atom_site_fract_x
 _atom_site_fract_y
 _atom_site_fract_z
 _atom_site_occupancy
  Zr  Zr0  1  0.70998753  0.28662774  0.29034869  1
  Zr  Zr1  1  0.29001247  0.71337226  0.70965131  1
  Zr  Zr2  1  0.28662774  0.70998753  0.29034869  1
  Zr  Zr3  1  0.71337226  0.29001247  0.70965131  1
  Zr  Zr4  1  0.29134503  0.29134503  0.70426703  1
  Zr  Zr5  1  0.70865497  0.70865497  0.29573297  1
  Zn  Zn0  1  0.11928459  0.11928459  0.11772467  1
  Zn  Zn1  1  0.88071541  0.88071541  0.88227533  1
  Zn  Zn2  1  0.12498505  0.12498505  0.63822124  1
  Zn  Zn3  1  0.11457099  0.64039510  0.13020568  1
  Zn  Zn4  1  0.87501495  0.87501495  0.36177876  1
  Zn  Zn5  1  0.88542901  0.35960490  0.86979432  1
  Zn  Zn6  1  0.64039510  0.11457099  0.13020568  1
  Zn  Zn7  1  0.35960490  0.88542901  0.86979432  1
  Zn  Zn8  1  0.50000000  0.00000000  0.00000000  1
  Zn  Zn9  1  0.00000000  0.50000000  0.00000000  1
  Zn  Zn10  1  0.00000000  0.00000000  0.50000000  1
  Zn  Zn11  1  0.50000000  0.50000000  0.00000000  1
  Zn  Zn12  1  0.33075116  0.33075116  0.33890278  1
  Zn  Zn13  1  0.66924884  0.66924884  0.66109722  1
  Zn  Zn14  1  0.33461152  0.33461152  0.99704042  1
  Zn  Zn15  1  0.33684847  0.99904005  0.33795865  1
  Zn  Zn16  1  0.66538848  0.66538848  0.00295958  1
  Zn  Zn17  1  0.66315153  0.00095995  0.66204135  1
  Zn  Zn18  1  0.99904005  0.33684847  0.33795865  1
  Zn  Zn19  1  0.00095995  0.66315153  0.66204135  1
  Si  Si0  1  0.50000000  0.50000000  0.50000000  1
  Ni  Ni0  1  0.00000000  0.50000000  0.50000000  1
  Ni  Ni1  1  0.50000000  0.00000000  0.50000000  1
  Ni  Ni2  1  0.00000000  0.00000000  0.00000000  1
loop_
_geom_bond_atom_site_label_1
_geom_bond_atom_site_label_2
_geom_bond_distance
_geom_bond_site_symmetry_2
Zn0 Zn8 2.676798 1_555
Zn0 Zn9 2.676798 1_555
Zn0 Zn10 2.678517 1_555
Zn0 Zn14 2.759389 1_554
Zn0 Zn18 2.794391 1_455
Zn0 Zn15 2.794391 1_545
Zn0 Zn7 2.924823 1_544
Zn0 Zn5 2.924823 1_454
Zn0 Zn4 2.984171 1_445
Zn1 Zn8 2.676798 1_566
Zn1 Zn9 2.676798 1_656
Zn1 Zn10 2.678517 1_665
Zn1 Zn16 2.759389 1_556
Zn1 Zn19 2.794391 1_655
Zn1 Zn17 2.794391 1_565
Zn1 Zn6 2.924823 1_566
Zn1 Zn3 2.924823 1_656
Zn1 Zn2 2.984171 1_665
Zn2 Zn5 2.830066 1_455
Zn2 Zn7 2.830066 1_545
Zn2 Zr4 2.859847 1_555
Zn2 Zr3 2.931856 1_455
Zn2 Zr1 2.931856 1_545
Zn3 Zn9 2.718568 1_555
Zn3 Zn4 2.830066 1_455
Zn3 Zr2 2.872564 1_555
Zn3 Zr5 2.897016 1_455
Zn3 Zr1 2.985629 1_554
Zn3 Zn7 2.995371 1_554
Zn4 Zn6 2.830066 1_565
Zn4 Zr5 2.859847 1_555
Zn4 Zr2 2.931856 1_655
Zn4 Zr0 2.931856 1_565
Zn5 Zn9 2.718568 1_656
Zn5 Zr3 2.872564 1_555
Zn5 Zr4 2.897016 1_655
Zn5 Zr0 2.985629 1_556
Zn5 Zn6 2.995371 1_556
Zn6 Zn8 2.718568 1_555
Zn6 Zr0 2.872564 1_555
Zn6 Zr5 2.897016 1_545
Zn6 Zr3 2.985629 1_554
Zn7 Zn8 2.718568 1_566
Zn7 Zr1 2.872564 1_555
Zn7 Zr4 2.897016 1_565
Zn7 Zr2 2.985629 1_556
Zn8 Zr5 3.100293 1_545
Zn8 Zr4 3.100293 1_554
Zn8 Zr3 3.107561 1_554
Zn8 Zr2 3.107561 1_545
Zn9 Zr5 3.100293 1_455
Zn9 Zr4 3.100293 1_554
Zn9 Zr1 3.107561 1_554
Zn9 Zr0 3.107561 1_455
Zn10 Zn17 2.512648 1_455
Zn10 Zn15 2.512648 1_545
Zn10 Zn19 2.512648 1_545
Zn10 Zn18 2.512648 1_455
Zn10 Zn2 2.737941 1_555
Zn10 Zn4 2.737941 1_445
Zn10 Zr3 3.068273 1_455
Zn10 Zr2 3.068273 1_545
Zn10 Zr1 3.068273 1_545
Zn10 Zr0 3.068273 1_455
Zn11 Zn16 2.493788 1_555
Zn11 Zn14 2.493788 1_554
Zn11 Zn12 2.520186 1_555
Zn11 Zn13 2.520186 1_554
Zn11 Zn3 2.707469 1_555
Zn11 Zn5 2.707469 1_554
Zn11 Zn7 2.707469 1_554
Zn11 Zn6 2.707469 1_555
Zn11 Zr2 3.073173 1_555
Zn11 Zr3 3.073173 1_554
Zn11 Zr0 3.073173 1_555
Zn11 Zr1 3.073173 1_554
Zn12 Zn2 2.633070 1_555
Zn12 Zn6 2.708520 1_555
Zn12 Zn3 2.708520 1_555
Zn12 Zr4 2.837060 1_555
Zn12 Zn15 2.842115 1_545
Zn12 Zn18 2.842115 1_455
Zn12 Zn14 2.903152 1_554
Zn12 Zr0 2.926684 1_555
Zn12 Zr2 2.926684 1_555
Zn13 Zn4 2.633070 1_555
Zn13 Zn7 2.708520 1_555
Zn13 Zn5 2.708520 1_555
Zn13 Zr5 2.837060 1_555
Zn13 Zn17 2.842115 1_565
Zn13 Zn19 2.842115 1_655
Zn13 Zn16 2.903152 1_556
Zn13 Zr1 2.926684 1_555
Zn13 Zr3 2.926684 1_555
Zn14 Zn8 2.484267 1_556
Zn14 Zn9 2.484267 1_556
Zn14 Zn3 2.767706 1_556
Zn14 Zn6 2.767706 1_556
Zn14 Zn18 2.904766 1_456
Zn14 Zn15 2.904766 1_546
Zn14 Zr3 2.915293 1_555
Zn14 Zr1 2.915293 1_555
Zn14 Zr4 2.938357 1_555
Zn15 Zn8 2.507091 1_565
Zn15 Zn6 2.684057 1_565
Zn15 Zn2 2.690921 1_565
Zn15 Zr1 2.869170 1_555
Zn15 Zr5 2.883681 1_555
Zn15 Zn18 2.898043 1_465
Zn15 Zr2 2.981060 1_555
Zn16 Zn8 2.484267 1_565
Zn16 Zn9 2.484267 1_655
Zn16 Zn5 2.767706 1_554
Zn16 Zn7 2.767706 1_554
Zn16 Zn19 2.904766 1_654
Zn16 Zn17 2.904766 1_564
Zn16 Zr2 2.915293 1_555
Zn16 Zr0 2.915293 1_555
Zn16 Zr5 2.938357 1_555
Zn17 Zn8 2.507091 1_556
Zn17 Zn7 2.684057 1_545
Zn17 Zn4 2.690921 1_545
Zn17 Zr0 2.869170 1_555
Zn17 Zr4 2.883681 1_555
Zn17 Zn19 2.898043 1_645
Zn17 Zr3 2.981060 1_555
Zn18 Zn9 2.507091 1_655
Zn18 Zn3 2.684057 1_655
Zn18 Zn2 2.690921 1_655
Zn18 Zr3 2.869170 1_555
Zn18 Zr5 2.883681 1_555
Zn18 Zr0 2.981060 1_555
Zn19 Zn9 2.507091 1_556
Zn19 Zn5 2.684057 1_455
Zn19 Zn4 2.690921 1_455
Zn19 Zr2 2.869170 1_555
Zn19 Zr4 2.883681 1_555
Zn19 Zr1 2.981060 1_555
Si0 Zr5 2.549638 1_555
Si0 Zr4 2.549638 1_555
Si0 Zr1 2.567878 1_555
Si0 Zr0 2.567878 1_555
Si0 Zr3 2.567878 1_555
Si0 Zr2 2.567878 1_555
Ni0 Zn18 2.432591 1_455
Ni0 Zn19 2.432591 1_555
Ni0 Zn13 2.457371 1_455
Ni0 Zn12 2.457371 1_555
Ni0 Zn5 2.592021 1_455
Ni0 Zn3 2.592021 1_555
Ni0 Zn4 2.634879 1_455
Ni0 Zn2 2.634879 1_555
Ni0 Zr4 3.053211 1_555
Ni0 Zr5 3.053211 1_455
Ni0 Zr2 3.071830 1_555
Ni0 Zr3 3.071830 1_455
Ni1 Zn15 2.432591 1_545
Ni1 Zn17 2.432591 1_555
Ni1 Zn12 2.457372 1_555
Ni1 Zn13 2.457372 1_545
Ni1 Zn6 2.592021 1_555
Ni1 Zn7 2.592021 1_545
Ni1 Zn2 2.634879 1_555
Ni1 Zn4 2.634879 1_545
Ni1 Zr4 3.053211 1_555
Ni1 Zr5 3.053211 1_545
Ni1 Zr0 3.071830 1_555
Ni1 Zr1 3.071830 1_545
Ni2 Zn0 2.512800 1_555
Ni2 Zn1 2.512800 1_444
Ni2 Zn7 2.525883 1_544
Ni2 Zn6 2.525883 1_455
Ni2 Zn5 2.525883 1_454
Ni2 Zn3 2.525883 1_545
Ni2 Zn4 2.533632 1_445
Ni2 Zn2 2.533632 1_554
