# generated using pymatgen
data_Cs2HfFeH8
_symmetry_space_group_name_H-M   'P 1'
_cell_length_a   7.75733224
_cell_length_b   7.75733205
_cell_length_c   4.55172346
_cell_angle_alpha   106.68363325
_cell_angle_beta   106.68363364
_cell_angle_gamma   51.24888027
_symmetry_Int_Tables_number   1
_chemical_formula_structural   Cs2HfFeH8
_chemical_formula_sum   'Cs2 Hf1 Fe1 H8'
_cell_volume   202.49398742
_cell_formula_units_Z   1
loop_
 _symmetry_equiv_pos_site_id
 _symmetry_equiv_pos_as_xyz
  1  'x, y, z'
loop_
 _atom_site_type_symbol
 _atom_site_label
 _atom_site_symmetry_multiplicity
 _atom_site_fract_x
 _atom_site_fract_y
 _atom_site_fract_z
 _atom_site_occupancy
  Cs  Cs0  1  0.81459632  0.81459632  0.44117203  1
  Cs  Cs1  1  0.16136486  0.16136486  0.77811600  1
  Hf  Hf0  1  0.46367582  0.46367582  0.09019170  1
  Fe  Fe0  1  0.54563276  0.54563276  0.67033786  1
  H  H0  1  0.72270111  0.37966341  0.91692839  1
  H  H1  1  0.37966341  0.72270111  0.91692839  1
  H  H2  1  0.42371310  0.42371310  0.55056596  1
  H  H3  1  0.72249514  0.38069572  0.43439284  1
  H  H4  1  0.38069572  0.72249514  0.43439284  1
  H  H5  1  0.66343603  0.66343603  0.78784299  1
  H  H6  1  0.56554069  0.15648205  0.98956201  1
  H  H7  1  0.15648205  0.56554069  0.98956201  1
loop_
_geom_bond_atom_site_label_1
_geom_bond_atom_site_label_2
_geom_bond_distance
_geom_bond_site_symmetry_2
Cs0 H5 3.014304 1_555
Cs0 H5 3.051277 1_554
Cs0 H6 3.070394 1_564
Cs0 H7 3.070394 1_654
Cs0 H7 3.090376 1_655
Cs0 H6 3.090376 1_565
Cs1 H4 2.855114 1_545
Cs1 H3 2.855114 1_455
Cs1 H1 2.872734 1_545
Cs1 H0 2.872734 1_455
Cs1 H7 2.982893 1_555
Cs1 H6 2.982893 1_555
Fe0 H5 1.562191 1_555
Fe0 H4 1.591303 1_555
Fe0 H3 1.591303 1_555
Fe0 H0 1.592091 1_555
Fe0 H1 1.592091 1_555
Fe0 H2 1.616745 1_555
H0 Hf0 2.014838 1_556
H1 Hf0 2.014838 1_556
H2 Hf0 2.334438 1_555
H2 Hf0 2.339053 1_556
H3 Hf0 2.013707 1_555
H4 Hf0 2.013707 1_555
H6 Hf0 1.933049 1_556
H7 Hf0 1.933049 1_556
