# generated using pymatgen
data_Ba(SrSb)2
_symmetry_space_group_name_H-M   'P 1'
_cell_length_a   5.45238601
_cell_length_b   5.45238646
_cell_length_c   8.39287924
_cell_angle_alpha   90.00000000
_cell_angle_beta   90.00000000
_cell_angle_gamma   120.00000337
_symmetry_Int_Tables_number   1
_chemical_formula_structural   Ba(SrSb)2
_chemical_formula_sum   'Ba1 Sr2 Sb2'
_cell_volume   216.08012234
_cell_formula_units_Z   1
loop_
 _symmetry_equiv_pos_site_id
 _symmetry_equiv_pos_as_xyz
  1  'x, y, z'
loop_
 _atom_site_type_symbol
 _atom_site_label
 _atom_site_symmetry_multiplicity
 _atom_site_fract_x
 _atom_site_fract_y
 _atom_site_fract_z
 _atom_site_occupancy
  Ba  Ba0  1  0.00000000  0.00000000  0.00000000  1
  Sr  Sr0  1  0.66666700  0.33333300  0.64808490  1
  Sr  Sr1  1  0.33333300  0.66666700  0.35191510  1
  Sb  Sb0  1  0.66666700  0.33333300  0.23831176  1
  Sb  Sb1  1  0.33333300  0.66666700  0.76168824  1
loop_
_geom_bond_atom_site_label_1
_geom_bond_atom_site_label_2
_geom_bond_distance
_geom_bond_site_symmetry_2
Ba0 Sb0 3.729608 1_455
Ba0 Sb1 3.729608 1_544
Ba0 Sb0 3.729611 1_555
Ba0 Sb1 3.729611 1_444
Ba0 Sb0 3.729612 1_445
Ba0 Sb1 3.729612 1_554
Sb0 Sr1 3.289159 1_655
Sb0 Sr1 3.289159 1_545
Sb0 Sr1 3.289169 1_555
Sb0 Sr0 3.439176 1_555
Sb1 Sr0 3.289159 1_455
Sb1 Sr0 3.289159 1_565
Sb1 Sr0 3.289169 1_555
Sb1 Sr1 3.439176 1_555
