# generated using pymatgen
data_Ba7Tc2Ir2O19
_symmetry_space_group_name_H-M   'P 1'
_cell_length_a   7.72844281
_cell_length_b   7.72845008
_cell_length_c   10.85597629
_cell_angle_alpha   81.71083317
_cell_angle_beta   81.71083330
_cell_angle_gamma   44.27569130
_symmetry_Int_Tables_number   1
_chemical_formula_structural   Ba7Tc2Ir2O19
_chemical_formula_sum   'Ba7 Tc2 Ir2 O19'
_cell_volume   447.14978116
_cell_formula_units_Z   1
loop_
 _symmetry_equiv_pos_site_id
 _symmetry_equiv_pos_as_xyz
  1  'x, y, z'
loop_
 _atom_site_type_symbol
 _atom_site_label
 _atom_site_symmetry_multiplicity
 _atom_site_fract_x
 _atom_site_fract_y
 _atom_site_fract_z
 _atom_site_occupancy
  Ba  Ba0  1  0.20071557  0.20071557  0.40909533  1
  Ba  Ba1  1  0.79928443  0.79928443  0.59090467  1
  Ba  Ba2  1  0.42037994  0.42037994  0.17363069  1
  Ba  Ba3  1  0.57962006  0.57962006  0.82636931  1
  Ba  Ba4  1  0.50000000  0.50000000  0.50000000  1
  Ba  Ba5  1  0.86216050  0.86216050  0.95059462  1
  Ba  Ba6  1  0.13783950  0.13783950  0.04940538  1
  Tc  Tc0  1  0.67360709  0.67360709  0.21497151  1
  Tc  Tc1  1  0.32639291  0.32639291  0.78502849  1
  Ir  Ir0  1  0.96889613  0.96889713  0.32262696  1
  Ir  Ir1  1  0.03110387  0.03110287  0.67737304  1
  O  O0  1  0.00000000  0.00000000  0.50000000  1
  O  O1  1  0.68680526  0.68680526  0.37422671  1
  O  O2  1  0.31319474  0.31319474  0.62577329  1
  O  O3  1  0.04962469  0.04962469  0.84709307  1
  O  O4  1  0.95037531  0.95037531  0.15290693  1
  O  O5  1  0.39136047  0.39136047  0.92147125  1
  O  O6  1  0.60863953  0.60863953  0.07852875  1
  O  O7  1  0.83023611  0.30612823  0.28144261  1
  O  O8  1  0.69387177  0.16976389  0.71855839  1
  O  O9  1  0.16976389  0.69387177  0.71855739  1
  O  O10  1  0.30612823  0.83023611  0.28144161  1
  O  O11  1  0.64270097  0.11301688  0.37586762  1
  O  O12  1  0.88698312  0.35729803  0.62413238  1
  O  O13  1  0.35729903  0.88698312  0.62413238  1
  O  O14  1  0.11301688  0.64270197  0.37586762  1
  O  O15  1  0.98472887  0.52409311  0.15866915  1
  O  O16  1  0.47590689  0.01527213  0.84133085  1
  O  O17  1  0.01527113  0.47590689  0.84133085  1
  O  O18  1  0.52409311  0.98472787  0.15866915  1
loop_
_geom_bond_atom_site_label_1
_geom_bond_atom_site_label_2
_geom_bond_distance
_geom_bond_site_symmetry_2
Ba0 O12 2.788160 1_455
Ba0 O13 2.788161 1_545
Ba0 O7 2.874113 1_455
Ba0 O10 2.874122 1_545
Ba0 O0 2.889533 1_555
Ba0 O11 2.942365 1_555
Ba0 O14 2.942376 1_555
Ba0 O1 2.947583 1_455
Ba0 O1 2.947584 1_545
Ba0 O2 3.050522 1_555
Ba0 O15 3.130305 1_455
Ba0 O18 3.130305 1_545
Ba1 O14 2.788160 1_655
Ba1 O11 2.788161 1_565
Ba1 O9 2.874113 1_655
Ba1 O8 2.874122 1_565
Ba1 O0 2.889533 1_665
Ba1 O13 2.942365 1_555
Ba1 O12 2.942376 1_555
Ba1 O2 2.947583 1_655
Ba1 O2 2.947584 1_565
Ba1 O1 3.050522 1_555
Ba1 O17 3.130305 1_655
Ba1 O16 3.130305 1_565
Ba2 O11 2.674772 1_555
Ba2 O14 2.674772 1_555
Ba2 O6 2.732175 1_555
Ba2 O5 2.832001 1_554
Ba2 O15 2.874115 1_455
Ba2 O18 2.874126 1_545
Ba2 O4 2.947338 1_545
Ba2 O4 2.947339 1_455
Ba2 O10 2.991443 1_555
Ba2 O7 2.991446 1_555
Ba3 O13 2.674772 1_555
Ba3 O12 2.674772 1_555
Ba3 O5 2.732175 1_555
Ba3 O6 2.832001 1_556
Ba3 O17 2.874115 1_655
Ba3 O16 2.874126 1_565
Ba3 O3 2.947338 1_565
Ba3 O3 2.947339 1_655
Ba3 O8 2.991443 1_555
Ba3 O9 2.991446 1_555
Ba4 O1 2.807283 1_555
Ba4 O2 2.807283 1_555
Ba4 O12 2.826185 1_555
Ba4 O14 2.826185 1_555
Ba4 O13 2.826191 1_555
Ba4 O11 2.826191 1_555
Ba4 O9 2.862047 1_555
Ba4 O7 2.862047 1_555
Ba4 O8 2.862056 1_555
Ba4 O10 2.862056 1_555
Ba4 O0 2.912358 1_655
Ba4 O0 2.912358 1_565
Ba5 O16 2.697456 1_565
Ba5 O17 2.697462 1_655
Ba5 O4 2.698592 1_556
Ba5 O3 2.743647 1_665
Ba5 O15 2.863092 1_556
Ba5 O18 2.863092 1_556
Ba5 O8 2.911835 1_565
Ba5 O9 2.911843 1_655
Ba5 O5 2.952189 1_655
Ba5 O5 2.952190 1_565
Ba6 O18 2.697456 1_545
Ba6 O15 2.697462 1_455
Ba6 O3 2.698592 1_554
Ba6 O4 2.743647 1_445
Ba6 O17 2.863092 1_554
Ba6 O16 2.863092 1_554
Ba6 O10 2.911835 1_545
Ba6 O7 2.911843 1_455
Ba6 O6 2.952189 1_455
Ba6 O6 2.952190 1_545
Ir0 O4 1.901875 1_555
Ir0 O14 1.916927 1_655
Ir0 O11 1.916927 1_565
Ir0 O7 1.985864 1_565
Ir0 O10 1.985867 1_655
Ir0 O0 2.042794 1_665
Ir1 O3 1.901875 1_555
Ir1 O12 1.916927 1_455
Ir1 O13 1.916927 1_545
Ir1 O9 1.985864 1_545
Ir1 O8 1.985867 1_455
Ir1 O0 2.042794 1_555
O1 Tc0 1.768162 1_555
O2 Tc1 1.768162 1_555
O5 Tc1 1.867647 1_555
O6 Tc0 1.867647 1_555
O7 Tc0 2.188575 1_555
O8 Tc1 2.188570 1_555
O9 Tc1 2.188575 1_555
O10 Tc0 2.188570 1_555
O15 Tc0 1.814279 1_555
O16 Tc1 1.814275 1_555
O17 Tc1 1.814279 1_555
O18 Tc0 1.814275 1_555
