# generated using pymatgen
data_ZrHg3(SF3)2
_symmetry_space_group_name_H-M   'P 1'
_cell_length_a   7.64054277
_cell_length_b   7.64054269
_cell_length_c   4.83377365
_cell_angle_alpha   105.59372599
_cell_angle_beta   105.59372559
_cell_angle_gamma   55.61619512
_symmetry_Int_Tables_number   1
_chemical_formula_structural   ZrHg3(SF3)2
_chemical_formula_sum   'Zr1 Hg3 S2 F6'
_cell_volume   221.86496449
_cell_formula_units_Z   1
loop_
 _symmetry_equiv_pos_site_id
 _symmetry_equiv_pos_as_xyz
  1  'x, y, z'
loop_
 _atom_site_type_symbol
 _atom_site_label
 _atom_site_symmetry_multiplicity
 _atom_site_fract_x
 _atom_site_fract_y
 _atom_site_fract_z
 _atom_site_occupancy
  Zr  Zr0  1  0.00000000  0.00000000  0.49999900  1
  Hg  Hg0  1  0.50000000  0.50000000  0.00000000  1
  Hg  Hg1  1  0.50000000  0.00000000  0.49999900  1
  Hg  Hg2  1  0.00000000  0.50000000  0.49999900  1
  S  S0  1  0.68605199  0.68605199  0.16338108  1
  S  S1  1  0.31394801  0.31394801  0.83661892  1
  F  F0  1  0.70258691  0.12305038  0.26849565  1
  F  F1  1  0.12305038  0.70258691  0.26849565  1
  F  F2  1  0.09805819  0.09805819  0.25694485  1
  F  F3  1  0.90194181  0.90194181  0.74305515  1
  F  F4  1  0.87694962  0.29741309  0.73150435  1
  F  F5  1  0.29741309  0.87694962  0.73150435  1
loop_
_geom_bond_atom_site_label_1
_geom_bond_atom_site_label_2
_geom_bond_distance
_geom_bond_site_symmetry_2
Hg0 S0 2.395933 1_555
Hg0 S1 2.395933 1_554
Hg1 S0 2.390827 1_545
Hg1 S1 2.390833 1_555
Hg2 S0 2.390827 1_455
Hg2 S1 2.390833 1_555
F0 Zr0 2.021239 1_655
F1 Zr0 2.021239 1_565
F2 Zr0 2.020755 1_555
F3 Zr0 2.020762 1_665
F4 Zr0 2.021243 1_655
F5 Zr0 2.021243 1_565
