# generated using pymatgen
data_Rb3SbTe3
_symmetry_space_group_name_H-M   'P 1'
_cell_length_a   10.87347183
_cell_length_b   10.87347183
_cell_length_c   10.87347183
_cell_angle_alpha   90.00000000
_cell_angle_beta   90.00000000
_cell_angle_gamma   90.00000000
_symmetry_Int_Tables_number   1
_chemical_formula_structural   Rb3SbTe3
_chemical_formula_sum   'Rb12 Sb4 Te12'
_cell_volume   1285.59655684
_cell_formula_units_Z   4
loop_
 _symmetry_equiv_pos_site_id
 _symmetry_equiv_pos_as_xyz
  1  'x, y, z'
loop_
 _atom_site_type_symbol
 _atom_site_label
 _atom_site_symmetry_multiplicity
 _atom_site_fract_x
 _atom_site_fract_y
 _atom_site_fract_z
 _atom_site_occupancy
  Rb  Rb0  1  0.81980366  0.18019634  0.68019634  1
  Rb  Rb1  1  0.18519956  0.31480044  0.68519956  1
  Rb  Rb2  1  0.31480044  0.68519956  0.18519956  1
  Rb  Rb3  1  0.68519956  0.18519956  0.31480044  1
  Rb  Rb4  1  0.81480044  0.81480044  0.81480044  1
  Rb  Rb5  1  0.42130202  0.07869798  0.92130202  1
  Rb  Rb6  1  0.07869798  0.92130202  0.42130202  1
  Rb  Rb7  1  0.92130202  0.42130202  0.07869798  1
  Rb  Rb8  1  0.57869798  0.57869798  0.57869798  1
  Rb  Rb9  1  0.68019634  0.81980366  0.18019634  1
  Rb  Rb10  1  0.18019634  0.68019634  0.81980366  1
  Rb  Rb11  1  0.31980366  0.31980366  0.31980366  1
  Sb  Sb0  1  0.02634572  0.02634572  0.02634572  1
  Sb  Sb1  1  0.47365428  0.97365428  0.52634572  1
  Sb  Sb2  1  0.52634572  0.47365428  0.97365428  1
  Sb  Sb3  1  0.97365428  0.52634572  0.47365428  1
  Te  Te0  1  0.21883305  0.60316529  0.49701071  1
  Te  Te1  1  0.78116695  0.10316529  0.00298929  1
  Te  Te2  1  0.99701071  0.28116695  0.39683471  1
  Te  Te3  1  0.71883305  0.89683471  0.50298929  1
  Te  Te4  1  0.10316529  0.00298929  0.78116695  1
  Te  Te5  1  0.50298929  0.71883305  0.89683471  1
  Te  Te6  1  0.00298929  0.78116695  0.10316529  1
  Te  Te7  1  0.39683471  0.99701071  0.28116695  1
  Te  Te8  1  0.49701071  0.21883305  0.60316529  1
  Te  Te9  1  0.89683471  0.50298929  0.71883305  1
  Te  Te10  1  0.60316529  0.49701071  0.21883305  1
  Te  Te11  1  0.28116695  0.39683471  0.99701071  1
loop_
_geom_bond_atom_site_label_1
_geom_bond_atom_site_label_2
_geom_bond_distance
_geom_bond_site_symmetry_2
Rb0 Te1 3.632812 1_556
Rb0 Te8 3.632812 1_555
Rb0 Te9 3.632812 1_555
Rb0 Te3 3.796247 1_545
Rb0 Te2 3.796247 1_555
Rb0 Te4 3.796247 1_655
Rb1 Te4 3.657846 1_555
Rb1 Te8 3.657846 1_555
Rb1 Te11 3.657846 1_555
Rb1 Te9 3.761978 1_455
Rb1 Te2 3.761978 1_455
Rb1 Te0 3.761978 1_555
Rb2 Te6 3.657846 1_555
Rb2 Te0 3.657846 1_555
Rb2 Te7 3.657846 1_555
Rb2 Te5 3.761978 1_554
Rb2 Te11 3.761978 1_554
Rb2 Te10 3.761978 1_555
Rb3 Te1 3.657846 1_555
Rb3 Te10 3.657846 1_555
Rb3 Te2 3.657846 1_555
Rb3 Te3 3.761978 1_545
Rb3 Te7 3.761978 1_545
Rb3 Te8 3.761978 1_555
Rb4 Te9 3.657846 1_555
Rb4 Te3 3.657846 1_555
Rb4 Te5 3.657846 1_555
Rb4 Te4 3.761978 1_665
Rb4 Te1 3.761978 1_566
Rb4 Te6 3.761978 1_656
Rb5 Te4 3.868582 1_555
Rb5 Te8 3.868582 1_555
Rb5 Te11 3.868582 1_555
Rb5 Te7 4.021336 1_546
Rb5 Te5 4.021336 1_545
Rb5 Te1 4.021336 1_556
Rb6 Te0 3.868582 1_555
Rb6 Te6 3.868582 1_555
Rb6 Te7 3.868582 1_555
Rb6 Te2 4.021336 1_465
Rb6 Te3 4.021336 1_455
Rb6 Te4 4.021336 1_565
Rb7 Te10 3.868582 1_555
Rb7 Te1 3.868582 1_555
Rb7 Te2 3.868582 1_555
Rb7 Te11 4.021336 1_654
Rb7 Te9 4.021336 1_554
Rb7 Te6 4.021336 1_655
Rb8 Te9 3.868582 1_555
Rb8 Te3 3.868582 1_555
Rb8 Te5 3.868582 1_555
Rb8 Te8 4.021336 1_555
Rb8 Te10 4.021336 1_555
Rb8 Te0 4.021336 1_555
Rb9 Te6 3.632812 1_655
Rb9 Te10 3.632812 1_555
Rb9 Te3 3.632812 1_555
Rb9 Te5 3.796247 1_554
Rb9 Te7 3.796247 1_555
Rb9 Te1 3.796247 1_565
Rb10 Te4 3.632812 1_565
Rb10 Te0 3.632812 1_555
Rb10 Te5 3.632812 1_555
Rb10 Te9 3.796247 1_455
Rb10 Te11 3.796247 1_555
Rb10 Te6 3.796247 1_556
Rb11 Te7 3.632812 1_545
Rb11 Te2 3.632812 1_455
Rb11 Te11 3.632812 1_554
Rb11 Te8 3.796247 1_555
Rb11 Te0 3.796247 1_555
Rb11 Te10 3.796247 1_555
Sb0 Te1 2.805259 1_455
Sb0 Te4 2.805259 1_554
Sb0 Te6 2.805259 1_545
Sb1 Te7 2.805259 1_555
Sb1 Te3 2.805259 1_555
Sb1 Te8 2.805259 1_565
Sb2 Te11 2.805259 1_555
Sb2 Te5 2.805259 1_555
Sb2 Te10 2.805259 1_556
Sb3 Te9 2.805259 1_555
Sb3 Te2 2.805259 1_555
Sb3 Te0 2.805259 1_655
