# generated using pymatgen
data_Ti3Al2PtO
_symmetry_space_group_name_H-M   'P 1'
_cell_length_a   8.15913564
_cell_length_b   8.15913638
_cell_length_c   8.15913611
_cell_angle_alpha   60.00000109
_cell_angle_beta   59.99999809
_cell_angle_gamma   60.00000173
_symmetry_Int_Tables_number   1
_chemical_formula_structural   Ti3Al2PtO
_chemical_formula_sum   'Ti12 Al8 Pt4 O4'
_cell_volume   384.07631779
_cell_formula_units_Z   4
loop_
 _symmetry_equiv_pos_site_id
 _symmetry_equiv_pos_as_xyz
  1  'x, y, z'
loop_
 _atom_site_type_symbol
 _atom_site_label
 _atom_site_symmetry_multiplicity
 _atom_site_fract_x
 _atom_site_fract_y
 _atom_site_fract_z
 _atom_site_occupancy
  Ti  Ti0  1  0.56742988  0.93257012  0.56742988  1
  Ti  Ti1  1  0.31742988  0.68257012  0.68257012  1
  Ti  Ti2  1  0.68257012  0.31742988  0.31742988  1
  Ti  Ti3  1  0.31742988  0.68257012  0.31742988  1
  Ti  Ti4  1  0.68257012  0.68257012  0.31742988  1
  Ti  Ti5  1  0.31742988  0.31742988  0.68257012  1
  Ti  Ti6  1  0.56742988  0.56742988  0.93257012  1
  Ti  Ti7  1  0.93257012  0.56742988  0.56742988  1
  Ti  Ti8  1  0.56742988  0.93257012  0.93257012  1
  Ti  Ti9  1  0.93257012  0.93257012  0.56742988  1
  Ti  Ti10  1  0.68257012  0.31742988  0.68257012  1
  Ti  Ti11  1  0.93257012  0.56742988  0.93257012  1
  Al  Al0  1  0.33459696  0.33459696  0.33459696  1
  Al  Al1  1  0.25379087  0.91540304  0.91540304  1
  Al  Al2  1  0.91540304  0.25379087  0.91540304  1
  Al  Al3  1  0.91540304  0.91540304  0.25379087  1
  Al  Al4  1  0.33459696  0.99620913  0.33459696  1
  Al  Al5  1  0.33459696  0.33459696  0.99620913  1
  Al  Al6  1  0.99620913  0.33459696  0.33459696  1
  Al  Al7  1  0.91540304  0.91540304  0.91540304  1
  Pt  Pt0  1  0.12500000  0.12500000  0.12500000  1
  Pt  Pt1  1  0.62500000  0.12500000  0.12500000  1
  Pt  Pt2  1  0.12500000  0.62500000  0.12500000  1
  Pt  Pt3  1  0.12500000  0.12500000  0.62500000  1
  O  O0  1  0.62500000  0.62500000  0.62500000  1
  O  O1  1  0.12500000  0.62500000  0.62500000  1
  O  O2  1  0.62500000  0.12500000  0.62500000  1
  O  O3  1  0.62500000  0.62500000  0.12500000  1
loop_
_geom_bond_atom_site_label_1
_geom_bond_atom_site_label_2
_geom_bond_distance
_geom_bond_site_symmetry_2
Al0 Pt3 2.506746 1_555
Al0 Pt1 2.506746 1_555
Al0 Pt2 2.506746 1_555
Al1 Pt2 2.506746 1_556
Al1 Pt3 2.506746 1_565
Al1 Pt0 2.506746 1_566
Al2 Pt1 2.506746 1_556
Al2 Pt3 2.506746 1_655
Al2 Pt0 2.506746 1_656
Al3 Pt0 2.506746 1_665
Al3 Pt1 2.506746 1_565
Al3 Pt2 2.506746 1_655
Al4 Pt1 2.506746 1_565
Al4 Pt3 2.506746 1_565
Al4 Pt0 2.506746 1_565
Al5 Pt0 2.506746 1_556
Al5 Pt1 2.506746 1_556
Al5 Pt2 2.506746 1_556
Al6 Pt2 2.506746 1_655
Al6 Pt0 2.506746 1_655
Al6 Pt3 2.506746 1_655
Al7 Pt3 2.506746 1_665
Al7 Pt1 2.506746 1_566
Al7 Pt2 2.506746 1_656
Pt0 Ti8 3.015113 1_544
Pt0 Ti2 3.015113 1_455
Pt0 Ti9 3.015113 1_445
Pt0 Ti5 3.015113 1_554
Pt0 Ti11 3.015113 1_454
Pt0 Ti3 3.015113 1_545
Pt1 Ti2 3.015113 1_555
Pt1 Ti8 3.015113 1_544
Pt1 Ti0 3.015113 1_545
Pt1 Ti10 3.015113 1_554
Pt1 Ti6 3.015113 1_554
Pt1 Ti4 3.015113 1_545
Pt2 Ti6 3.015113 1_554
Pt2 Ti4 3.015113 1_455
Pt2 Ti7 3.015113 1_455
Pt2 Ti1 3.015113 1_554
Pt2 Ti3 3.015113 1_555
Pt2 Ti11 3.015113 1_454
Pt3 Ti0 3.015113 1_545
Pt3 Ti10 3.015113 1_455
Pt3 Ti5 3.015113 1_555
Pt3 Ti9 3.015113 1_445
Pt3 Ti7 3.015113 1_455
Pt3 Ti1 3.015113 1_545
O0 Ti7 2.145226 1_555
O0 Ti1 2.145226 1_555
O0 Ti6 2.145227 1_555
O0 Ti4 2.145227 1_555
O0 Ti0 2.145227 1_555
O0 Ti10 2.145227 1_555
O1 Ti11 2.145227 1_455
O1 Ti3 2.145227 1_555
O1 Ti1 2.145227 1_555
O1 Ti7 2.145227 1_455
O1 Ti9 2.145227 1_455
O1 Ti5 2.145227 1_555
O2 Ti9 2.145227 1_545
O2 Ti5 2.145227 1_555
O2 Ti10 2.145227 1_555
O2 Ti0 2.145227 1_545
O2 Ti8 2.145227 1_545
O2 Ti2 2.145227 1_555
O3 Ti11 2.145226 1_554
O3 Ti3 2.145226 1_555
O3 Ti4 2.145227 1_555
O3 Ti6 2.145227 1_554
O3 Ti8 2.145227 1_554
O3 Ti2 2.145227 1_555
