# generated using pymatgen
data_AlGa2Te3I
_symmetry_space_group_name_H-M   'P 1'
_cell_length_a   4.13516300
_cell_length_b   11.45223119
_cell_length_c   20.63657383
_cell_angle_alpha   90.00000000
_cell_angle_beta   90.00000000
_cell_angle_gamma   90.00000000
_symmetry_Int_Tables_number   1
_chemical_formula_structural   AlGa2Te3I
_chemical_formula_sum   'Al4 Ga8 Te12 I4'
_cell_volume   977.28297985
_cell_formula_units_Z   4
loop_
 _symmetry_equiv_pos_site_id
 _symmetry_equiv_pos_as_xyz
  1  'x, y, z'
loop_
 _atom_site_type_symbol
 _atom_site_label
 _atom_site_symmetry_multiplicity
 _atom_site_fract_x
 _atom_site_fract_y
 _atom_site_fract_z
 _atom_site_occupancy
  Al  Al0  1  0.75000000  0.33127087  0.86775112  1
  Al  Al1  1  0.25000000  0.66872913  0.13224888  1
  Al  Al2  1  0.75000000  0.83127087  0.63224888  1
  Al  Al3  1  0.25000000  0.16872913  0.36775112  1
  Ga  Ga0  1  0.25000000  0.16905888  0.00297039  1
  Ga  Ga1  1  0.75000000  0.83094112  0.99702961  1
  Ga  Ga2  1  0.25000000  0.66905888  0.49702961  1
  Ga  Ga3  1  0.75000000  0.33094112  0.50297039  1
  Ga  Ga4  1  0.25000000  0.05157482  0.90462271  1
  Ga  Ga5  1  0.75000000  0.94842518  0.09537729  1
  Ga  Ga6  1  0.25000000  0.55157482  0.59537729  1
  Ga  Ga7  1  0.75000000  0.44842518  0.40462271  1
  Te  Te0  1  0.25000000  0.22017667  0.81423894  1
  Te  Te1  1  0.75000000  0.77982333  0.18576106  1
  Te  Te2  1  0.25000000  0.72017667  0.68576106  1
  Te  Te3  1  0.75000000  0.27982333  0.31423894  1
  Te  Te4  1  0.75000000  0.91167165  0.87626254  1
  Te  Te5  1  0.25000000  0.08832835  0.12373746  1
  Te  Te6  1  0.75000000  0.41167165  0.62373746  1
  Te  Te7  1  0.25000000  0.58832835  0.37626254  1
  Te  Te8  1  0.75000000  0.31958810  0.99626948  1
  Te  Te9  1  0.25000000  0.68041190  0.00373052  1
  Te  Te10  1  0.75000000  0.81958810  0.50373052  1
  Te  Te11  1  0.25000000  0.18041190  0.49626948  1
  I  I0  1  0.75000000  0.54052578  0.83156926  1
  I  I1  1  0.25000000  0.45947422  0.16843074  1
  I  I2  1  0.75000000  0.04052578  0.66843074  1
  I  I3  1  0.25000000  0.95947422  0.33156926  1
loop_
_geom_bond_atom_site_label_1
_geom_bond_atom_site_label_2
_geom_bond_distance
_geom_bond_site_symmetry_2
Al0 I0 2.510064 1_555
Al0 Te8 2.655551 1_555
Al0 Te0 2.667035 1_555
Al0 Te0 2.667035 1_655
Al1 I1 2.510064 1_555
Al1 Te9 2.655551 1_555
Al1 Te1 2.667035 1_555
Al1 Te1 2.667035 1_455
Al2 I2 2.510064 1_565
Al2 Te10 2.655551 1_555
Al2 Te2 2.667035 1_555
Al2 Te2 2.667035 1_655
Al3 I3 2.510064 1_545
Al3 Te11 2.655551 1_555
Al3 Te3 2.667035 1_555
Al3 Te3 2.667035 1_455
Ga0 Ga4 2.435027 1_554
Ga0 Te5 2.658183 1_555
Ga0 Te8 2.695521 1_454
Ga0 Te8 2.695521 1_554
Ga1 Ga5 2.435027 1_556
Ga1 Te4 2.658183 1_555
Ga1 Te9 2.695521 1_556
Ga1 Te9 2.695521 1_656
Ga2 Ga6 2.435027 1_555
Ga2 Te7 2.658183 1_555
Ga2 Te10 2.695521 1_455
Ga2 Te10 2.695521 1_555
Ga3 Ga7 2.435027 1_555
Ga3 Te6 2.658183 1_555
Ga3 Te11 2.695521 1_655
Ga3 Te11 2.695521 1_555
Ga4 Te4 2.680387 1_445
Ga4 Te4 2.680387 1_545
Ga4 Te0 2.684634 1_555
Ga5 Te5 2.680387 1_565
Ga5 Te5 2.680387 1_665
Ga5 Te1 2.684634 1_555
Ga6 Te6 2.680387 1_555
Ga6 Te6 2.680387 1_455
Ga6 Te2 2.684634 1_555
Ga7 Te7 2.680387 1_655
Ga7 Te7 2.680387 1_555
Ga7 Te3 2.684634 1_555
