# generated using pymatgen
data_Na2Hf(Zr2Se5)2
_symmetry_space_group_name_H-M   'P 1'
_cell_length_a   6.54143219
_cell_length_b   10.52185691
_cell_length_c   8.23938140
_cell_angle_alpha   63.06074068
_cell_angle_beta   66.41453316
_cell_angle_gamma   89.80948229
_symmetry_Int_Tables_number   1
_chemical_formula_structural   Na2Hf(Zr2Se5)2
_chemical_formula_sum   'Na2 Hf1 Zr4 Se10'
_cell_volume   452.20717802
_cell_formula_units_Z   1
loop_
 _symmetry_equiv_pos_site_id
 _symmetry_equiv_pos_as_xyz
  1  'x, y, z'
loop_
 _atom_site_type_symbol
 _atom_site_label
 _atom_site_symmetry_multiplicity
 _atom_site_fract_x
 _atom_site_fract_y
 _atom_site_fract_z
 _atom_site_occupancy
  Na  Na0  1  0.79114872  0.08471700  0.41544617  1
  Na  Na1  1  0.00885128  0.51528300  0.98455383  1
  Hf  Hf0  1  0.40000000  0.80000000  0.20000000  1
  Zr  Zr0  1  0.79973151  0.59973446  0.40438662  1
  Zr  Zr1  1  0.19966394  0.39815857  0.59628378  1
  Zr  Zr2  1  0.60033606  0.20184143  0.80371622  1
  Zr  Zr3  1  0.00026849  0.00026554  0.99561338  1
  Se  Se0  1  0.98434850  0.84291188  0.37333777  1
  Se  Se1  1  0.57476953  0.03994188  0.17879463  1
  Se  Se2  1  0.17441545  0.24482865  0.97674972  1
  Se  Se3  1  0.77675053  0.44413342  0.77808535  1
  Se  Se4  1  0.37929279  0.64567994  0.56939065  1
  Se  Se5  1  0.42070721  0.95432006  0.83060935  1
  Se  Se6  1  0.02324947  0.15586658  0.62191465  1
  Se  Se7  1  0.62558455  0.35517135  0.42325028  1
  Se  Se8  1  0.22523047  0.56005812  0.22120537  1
  Se  Se9  1  0.81565150  0.75708812  0.02666223  1
loop_
_geom_bond_atom_site_label_1
_geom_bond_atom_site_label_2
_geom_bond_distance
_geom_bond_site_symmetry_2
Na0 Se5 2.931200 1_545
Na0 Se0 2.935691 1_545
Na0 Se6 2.997992 1_655
Na0 Se1 3.012092 1_555
Na0 Se7 3.060157 1_555
Na0 Se2 3.073705 1_654
Na1 Se4 2.931200 1_555
Na1 Se9 2.935691 1_456
Na1 Se3 2.997992 1_455
Na1 Se8 3.012092 1_556
Na1 Se2 3.060157 1_555
Na1 Se7 3.073705 1_456
Hf0 Se0 2.665519 1_455
Hf0 Se9 2.665519 1_555
Hf0 Se4 2.666793 1_555
Hf0 Se5 2.666793 1_554
Hf0 Se8 2.677869 1_555
Hf0 Se1 2.677869 1_565
Se0 Zr0 2.692757 1_555
Se0 Zr3 2.740592 1_664
Se1 Zr2 2.701609 1_554
Se1 Zr3 2.720456 1_654
Se2 Zr2 2.719734 1_555
Se2 Zr3 2.731106 1_555
Se2 Zr1 2.731670 1_555
Se3 Zr2 2.685570 1_555
Se3 Zr0 2.692057 1_555
Se3 Zr1 2.731781 1_655
Se4 Zr0 2.690830 1_555
Se4 Zr1 2.738926 1_555
Se5 Zr3 2.690830 1_565
Se5 Zr2 2.738926 1_565
Se6 Zr1 2.685570 1_555
Se6 Zr3 2.692057 1_555
Se6 Zr2 2.731781 1_455
Se7 Zr1 2.719734 1_555
Se7 Zr0 2.731106 1_555
Se7 Zr2 2.731670 1_555
Se8 Zr1 2.701609 1_555
Se8 Zr0 2.720456 1_455
Se9 Zr3 2.692757 1_664
Se9 Zr0 2.740592 1_555
