# generated using pymatgen
data_Sn3Pt2
_symmetry_space_group_name_H-M   'P 1'
_cell_length_a   4.37376576
_cell_length_b   4.37376293
_cell_length_c   13.06807250
_cell_angle_alpha   90.00000000
_cell_angle_beta   90.00000000
_cell_angle_gamma   119.99999845
_symmetry_Int_Tables_number   1
_chemical_formula_structural   Sn3Pt2
_chemical_formula_sum   'Sn6 Pt4'
_cell_volume   216.49752371
_cell_formula_units_Z   2
loop_
 _symmetry_equiv_pos_site_id
 _symmetry_equiv_pos_as_xyz
  1  'x, y, z'
loop_
 _atom_site_type_symbol
 _atom_site_label
 _atom_site_symmetry_multiplicity
 _atom_site_fract_x
 _atom_site_fract_y
 _atom_site_fract_z
 _atom_site_occupancy
  Sn  Sn0  1  0.66666700  0.33333300  0.07117011  1
  Sn  Sn1  1  0.33333300  0.66666700  0.92882989  1
  Sn  Sn2  1  0.66666700  0.33333300  0.42882989  1
  Sn  Sn3  1  0.33333300  0.66666700  0.57117011  1
  Sn  Sn4  1  0.00000000  0.00000000  0.25000000  1
  Sn  Sn5  1  0.00000000  -0.00000000  0.75000000  1
  Pt  Pt0  1  0.33333300  0.66666700  0.14306497  1
  Pt  Pt1  1  0.66666700  0.33333300  0.64306497  1
  Pt  Pt2  1  0.33333300  0.66666700  0.35693503  1
  Pt  Pt3  1  0.66666700  0.33333300  0.85693503  1
loop_
_geom_bond_atom_site_label_1
_geom_bond_atom_site_label_2
_geom_bond_distance
_geom_bond_site_symmetry_2
Pt0 Sn0 2.694309 1_565
Pt0 Sn0 2.694310 1_455
Pt0 Sn0 2.694317 1_555
Pt0 Pt2 2.794869 1_555
Pt0 Sn1 2.799640 1_554
Pt0 Sn4 2.886073 1_565
Pt0 Sn4 2.886075 1_555
Pt0 Sn4 2.886077 1_665
Pt1 Sn3 2.694309 1_545
Pt1 Sn3 2.694310 1_655
Pt1 Sn3 2.694317 1_555
Pt1 Pt3 2.794869 1_555
Pt1 Sn2 2.799640 1_555
Pt1 Sn5 2.886073 1_655
Pt1 Sn5 2.886075 1_665
Pt1 Sn5 2.886077 1_555
Pt2 Sn2 2.694309 1_565
Pt2 Sn2 2.694310 1_455
Pt2 Sn2 2.694317 1_555
Pt2 Sn3 2.799640 1_555
Pt2 Sn4 2.886073 1_565
Pt2 Sn4 2.886075 1_555
Pt2 Sn4 2.886077 1_665
Pt3 Sn1 2.694309 1_545
Pt3 Sn1 2.694310 1_655
Pt3 Sn1 2.694317 1_555
Pt3 Sn0 2.799640 1_556
Pt3 Sn5 2.886073 1_655
Pt3 Sn5 2.886075 1_665
Pt3 Sn5 2.886077 1_555
