# generated using pymatgen
data_Hf16Nb3OsPt4
_symmetry_space_group_name_H-M   'P 1'
_cell_length_a   8.88014391
_cell_length_b   8.88014326
_cell_length_c   8.88014379
_cell_angle_alpha   60.21632351
_cell_angle_beta   60.21632851
_cell_angle_gamma   60.21632636
_symmetry_Int_Tables_number   1
_chemical_formula_structural   Hf16Nb3OsPt4
_chemical_formula_sum   'Hf16 Nb3 Os1 Pt4'
_cell_volume   497.58459242
_cell_formula_units_Z   1
loop_
 _symmetry_equiv_pos_site_id
 _symmetry_equiv_pos_as_xyz
  1  'x, y, z'
loop_
 _atom_site_type_symbol
 _atom_site_label
 _atom_site_symmetry_multiplicity
 _atom_site_fract_x
 _atom_site_fract_y
 _atom_site_fract_z
 _atom_site_occupancy
  Hf  Hf0  1  0.17979938  0.60751948  0.60751948  1
  Hf  Hf1  1  0.60751948  0.17979938  0.60751948  1
  Hf  Hf2  1  0.60751948  0.60751948  0.17979938  1
  Hf  Hf3  1  0.60601235  0.60601235  0.60601235  1
  Hf  Hf4  1  0.81708451  0.81708451  0.17923912  1
  Hf  Hf5  1  0.18229003  0.18229003  0.81780281  1
  Hf  Hf6  1  0.81708451  0.17923912  0.81708451  1
  Hf  Hf7  1  0.18229003  0.81780281  0.18229003  1
  Hf  Hf8  1  0.17923912  0.81708451  0.81708451  1
  Hf  Hf9  1  0.81780281  0.18229003  0.18229003  1
  Hf  Hf10  1  0.45967803  0.45967803  0.04043910  1
  Hf  Hf11  1  0.03807909  0.03807909  0.46516608  1
  Hf  Hf12  1  0.45967803  0.04043910  0.45967803  1
  Hf  Hf13  1  0.03807909  0.46516608  0.03807909  1
  Hf  Hf14  1  0.04043910  0.45967803  0.45967803  1
  Hf  Hf15  1  0.46516608  0.03807909  0.03807909  1
  Nb  Nb0  1  0.49766189  0.83396403  0.83396403  1
  Nb  Nb1  1  0.83396403  0.49766189  0.83396403  1
  Nb  Nb2  1  0.83396403  0.83396403  0.49766189  1
  Os  Os0  1  0.83732494  0.83732494  0.83732494  1
  Pt  Pt0  1  0.82612018  0.39060299  0.39060299  1
  Pt  Pt1  1  0.39060299  0.82612018  0.39060299  1
  Pt  Pt2  1  0.39060299  0.39060299  0.82612018  1
  Pt  Pt3  1  0.39199585  0.39199585  0.39199585  1
loop_
_geom_bond_atom_site_label_1
_geom_bond_atom_site_label_2
_geom_bond_distance
_geom_bond_site_symmetry_2
Hf0 Pt2 2.701115 1_555
Hf0 Pt1 2.701115 1_555
Hf0 Pt3 2.711087 1_555
Hf0 Nb2 3.052732 1_455
Hf0 Nb1 3.052732 1_455
Hf0 Os0 3.063330 1_455
Hf1 Pt0 2.701115 1_555
Hf1 Pt2 2.701115 1_555
Hf1 Pt3 2.711087 1_555
Hf1 Nb0 3.052732 1_545
Hf1 Nb2 3.052732 1_545
Hf1 Os0 3.063329 1_545
Hf2 Pt0 2.701115 1_555
Hf2 Pt1 2.701115 1_555
Hf2 Pt3 2.711087 1_555
Hf2 Nb0 3.052732 1_554
Hf2 Nb1 3.052732 1_554
Hf2 Os0 3.063330 1_554
Hf3 Pt1 2.710139 1_555
Hf3 Pt2 2.710139 1_555
Hf3 Pt0 2.710139 1_555
Hf3 Nb2 3.053163 1_555
Hf3 Nb1 3.053163 1_555
Hf3 Nb0 3.053163 1_555
Hf4 Os0 2.869005 1_554
Hf4 Nb2 2.984114 1_555
Hf4 Pt0 3.264696 1_555
Hf4 Pt1 3.264696 1_555
Hf5 Nb0 2.963753 1_545
Hf5 Nb1 2.963753 1_455
Hf5 Pt2 3.243508 1_555
Hf5 Pt3 3.269220 1_555
Hf6 Os0 2.869005 1_545
Hf6 Nb1 2.984114 1_555
Hf6 Pt0 3.264696 1_555
Hf6 Pt2 3.264696 1_555
Hf7 Nb0 2.963753 1_554
Hf7 Nb2 2.963753 1_455
Hf7 Pt1 3.243508 1_555
Hf7 Pt3 3.269220 1_555
Hf8 Os0 2.869005 1_455
Hf8 Nb0 2.984114 1_555
Hf8 Pt2 3.264696 1_555
Hf8 Pt1 3.264696 1_555
Hf9 Nb2 2.963753 1_545
Hf9 Nb1 2.963753 1_554
Hf9 Pt0 3.243508 1_555
Hf9 Pt3 3.269220 1_555
Hf10 Pt2 2.658558 1_554
Hf10 Pt3 2.664459 1_555
Hf10 Nb0 2.994627 1_554
Hf10 Nb1 2.994628 1_554
Hf11 Pt0 2.665753 1_455
Hf11 Pt1 2.665753 1_545
Hf11 Os0 2.954546 1_445
Hf11 Nb2 2.979724 1_445
Hf12 Pt1 2.658558 1_545
Hf12 Pt3 2.664458 1_555
Hf12 Nb0 2.994628 1_545
Hf12 Nb2 2.994628 1_545
Hf13 Pt0 2.665753 1_455
Hf13 Pt2 2.665753 1_554
Hf13 Os0 2.954545 1_454
Hf13 Nb1 2.979724 1_454
Hf14 Pt0 2.658558 1_455
Hf14 Pt3 2.664459 1_555
Hf14 Nb2 2.994628 1_455
Hf14 Nb1 2.994628 1_455
Hf15 Pt2 2.665753 1_554
Hf15 Pt1 2.665753 1_545
Hf15 Os0 2.954546 1_544
Hf15 Nb0 2.979724 1_544
Nb0 Nb1 2.996171 1_555
Nb0 Nb2 2.996171 1_555
Nb0 Os0 3.046200 1_555
Nb1 Nb2 2.996171 1_555
Nb1 Os0 3.046200 1_555
Nb2 Os0 3.046200 1_555
