# generated using pymatgen
data_BaSb12(IrRu)2
_symmetry_space_group_name_H-M   'P 1'
_cell_length_a   8.12131085
_cell_length_b   8.12130999
_cell_length_c   8.13261274
_cell_angle_alpha   109.46560779
_cell_angle_beta   109.47938604
_cell_angle_gamma   109.41229310
_symmetry_Int_Tables_number   1
_chemical_formula_structural   BaSb12(IrRu)2
_chemical_formula_sum   'Ba1 Sb12 Ir2 Ru2'
_cell_volume   413.20168979
_cell_formula_units_Z   1
loop_
 _symmetry_equiv_pos_site_id
 _symmetry_equiv_pos_as_xyz
  1  'x, y, z'
loop_
 _atom_site_type_symbol
 _atom_site_label
 _atom_site_symmetry_multiplicity
 _atom_site_fract_x
 _atom_site_fract_y
 _atom_site_fract_z
 _atom_site_occupancy
  Ba  Ba0  1  0.00000000  0.00000000  0.00000000  1
  Sb  Sb0  1  0.15932613  0.81442896  0.65929439  1
  Sb  Sb1  1  0.15513457  0.50003174  0.34070561  1
  Sb  Sb2  1  0.49993587  0.65882638  0.84437260  1
  Sb  Sb3  1  0.34087860  0.84093521  0.18181482  1
  Sb  Sb4  1  0.81445378  0.65556327  0.15562740  1
  Sb  Sb5  1  0.65534469  0.84454021  0.49988490  1
  Sb  Sb6  1  0.18554622  0.34443673  0.84437260  1
  Sb  Sb7  1  0.65912140  0.15906479  0.81818518  1
  Sb  Sb8  1  0.34465531  0.15545979  0.50011510  1
  Sb  Sb9  1  0.50006413  0.34117362  0.15562740  1
  Sb  Sb10  1  0.84486543  0.49996826  0.65929439  1
  Sb  Sb11  1  0.84067387  0.18557104  0.34070561  1
  Ir  Ir0  1  0.50000000  0.50000000  0.50000000  1
  Ir  Ir1  1  0.00000000  0.00000000  0.50000000  1
  Ru  Ru0  1  0.50000000  0.00000000  0.00000000  1
  Ru  Ru1  1  0.00000000  0.50000000  0.00000000  1
loop_
_geom_bond_atom_site_label_1
_geom_bond_atom_site_label_2
_geom_bond_distance
_geom_bond_site_symmetry_2
Ba0 Sb3 3.526939 1_545
Ba0 Sb7 3.526939 1_454
Ba0 Sb4 3.539348 1_445
Ba0 Sb6 3.539348 1_554
Ba0 Sb9 3.539349 1_555
Ba0 Sb2 3.539349 1_444
Ba0 Sb1 3.539395 1_555
Ba0 Sb10 3.539395 1_444
Ba0 Sb11 3.539395 1_455
Ba0 Sb0 3.539395 1_544
Ba0 Sb8 3.550631 1_555
Ba0 Sb5 3.550631 1_444
Sb0 Sb1 2.950918 1_555
Sb0 Sb10 2.951056 1_455
Sb1 Sb11 2.951056 1_455
Sb2 Sb6 2.950390 1_555
Sb2 Sb4 2.951300 1_556
Sb3 Sb5 2.950979 1_555
Sb3 Sb8 2.952051 1_565
Sb4 Sb9 2.950390 1_555
Sb5 Sb7 2.952051 1_565
Sb6 Sb9 2.951300 1_556
Sb7 Sb8 2.950979 1_555
Sb10 Sb11 2.950918 1_555
Ir0 Sb5 2.660278 1_555
Ir0 Sb8 2.660278 1_555
Ir0 Sb2 2.664803 1_555
Ir0 Sb9 2.664803 1_555
Ir0 Sb10 2.665214 1_555
Ir0 Sb1 2.665214 1_555
Ir1 Sb8 2.660278 1_555
Ir1 Sb5 2.660278 1_445
Ir1 Sb6 2.664803 1_555
Ir1 Sb4 2.664803 1_445
Ir1 Sb0 2.665213 1_545
Ir1 Sb11 2.665213 1_455
Ru0 Sb11 2.633607 1_555
Ru0 Sb0 2.633607 1_544
Ru0 Sb9 2.634471 1_555
Ru0 Sb2 2.634471 1_544
Ru0 Sb7 2.638722 1_554
Ru0 Sb3 2.638722 1_545
Ru1 Sb1 2.633607 1_555
Ru1 Sb10 2.633607 1_454
Ru1 Sb4 2.634471 1_455
Ru1 Sb6 2.634471 1_554
Ru1 Sb3 2.638714 1_555
Ru1 Sb7 2.638714 1_454
