# generated using pymatgen
data_Cs2Cu3PtF12
_symmetry_space_group_name_H-M   'P 1'
_cell_length_a   7.80463928
_cell_length_b   7.80471350
_cell_length_c   7.80468361
_cell_angle_alpha   53.87008163
_cell_angle_beta   53.87004825
_cell_angle_gamma   53.87024433
_symmetry_Int_Tables_number   1
_chemical_formula_structural   Cs2Cu3PtF12
_chemical_formula_sum   'Cs2 Cu3 Pt1 F12'
_cell_volume   288.00889370
_cell_formula_units_Z   1
loop_
 _symmetry_equiv_pos_site_id
 _symmetry_equiv_pos_as_xyz
  1  'x, y, z'
loop_
 _atom_site_type_symbol
 _atom_site_label
 _atom_site_symmetry_multiplicity
 _atom_site_fract_x
 _atom_site_fract_y
 _atom_site_fract_z
 _atom_site_occupancy
  Cs  Cs0  1  0.88867242  0.88867275  0.88867219  1
  Cs  Cs1  1  0.11132758  0.11132725  0.11132781  1
  Cu  Cu0  1  0.50000000  0.50000000  0.00000000  1
  Cu  Cu1  1  0.00000000  0.50000000  0.50000000  1
  Cu  Cu2  1  0.50000000  0.00000000  0.50000000  1
  Pt  Pt0  1  0.50000000  0.50000000  0.50000000  1
  F  F0  1  0.81678192  0.42369867  0.81680295  1
  F  F1  1  0.81679059  0.81680125  0.42369492  1
  F  F2  1  0.42369756  0.81678913  0.81679717  1
  F  F3  1  0.18321808  0.57630133  0.18319705  1
  F  F4  1  0.18320941  0.18319875  0.57630508  1
  F  F5  1  0.57630244  0.18321087  0.18320283  1
  F  F6  1  0.42034535  0.82120837  0.42034468  1
  F  F7  1  0.42033533  0.42033685  0.82123351  1
  F  F8  1  0.82119587  0.42034086  0.42035004  1
  F  F9  1  0.57965465  0.17879163  0.57965532  1
  F  F10  1  0.57966467  0.57966315  0.17876649  1
  F  F11  1  0.17880413  0.57965914  0.57964996  1
loop_
_geom_bond_atom_site_label_1
_geom_bond_atom_site_label_2
_geom_bond_distance
_geom_bond_site_symmetry_2
Cs0 F4 3.086387 1_665
Cs0 F3 3.086429 1_656
Cs0 F5 3.086436 1_566
Cs0 F10 3.277132 1_556
Cs0 F9 3.277202 1_565
Cs0 F11 3.277211 1_655
Cs1 F1 3.086387 1_445
Cs1 F0 3.086429 1_454
Cs1 F2 3.086436 1_544
Cs1 F7 3.277132 1_554
Cs1 F6 3.277202 1_545
Cs1 F8 3.277211 1_455
Cu0 F0 1.900220 1_554
Cu0 F3 1.900220 1_555
Cu0 F2 1.900282 1_554
Cu0 F5 1.900282 1_555
Cu0 F10 2.285073 1_555
Cu0 F7 2.285073 1_554
Cu1 F1 1.900355 1_455
Cu1 F4 1.900355 1_555
Cu1 F0 1.900363 1_455
Cu1 F3 1.900363 1_555
Cu1 F11 2.285226 1_555
Cu1 F8 2.285226 1_455
Cu2 F1 1.900271 1_545
Cu2 F4 1.900271 1_555
Cu2 F2 1.900326 1_545
Cu2 F5 1.900326 1_555
Cu2 F9 2.285148 1_555
Cu2 F6 2.285148 1_545
F6 Pt0 1.959023 1_555
F7 Pt0 1.959153 1_555
F8 Pt0 1.958912 1_555
F9 Pt0 1.959023 1_555
F10 Pt0 1.959153 1_555
F11 Pt0 1.958912 1_555
