# generated using pymatgen
data_RbMn(Sb4Ru)3
_symmetry_space_group_name_H-M   'P 1'
_cell_length_a   8.11760533
_cell_length_b   8.17410999
_cell_length_c   8.17414253
_cell_angle_alpha   109.61122496
_cell_angle_beta   109.33028239
_cell_angle_gamma   109.33198230
_symmetry_Int_Tables_number   1
_chemical_formula_structural   RbMn(Sb4Ru)3
_chemical_formula_sum   'Rb1 Mn1 Sb12 Ru3'
_cell_volume   418.24923042
_cell_formula_units_Z   1
loop_
 _symmetry_equiv_pos_site_id
 _symmetry_equiv_pos_as_xyz
  1  'x, y, z'
loop_
 _atom_site_type_symbol
 _atom_site_label
 _atom_site_symmetry_multiplicity
 _atom_site_fract_x
 _atom_site_fract_y
 _atom_site_fract_z
 _atom_site_occupancy
  Rb  Rb0  1  0.00000000  0.00000000  0.00000000  1
  Mn  Mn0  1  0.50000000  0.00000000  0.00000000  1
  Sb  Sb0  1  0.15774427  0.49925737  0.34031452  1
  Sb  Sb1  1  0.49651619  0.64483249  0.83787336  1
  Sb  Sb2  1  0.34134107  0.83786072  0.19303060  1
  Sb  Sb3  1  0.81741239  0.65968605  0.15892665  1
  Sb  Sb4  1  0.65846915  0.84108935  0.50076341  1
  Sb  Sb5  1  0.18258761  0.34031395  0.84107335  1
  Sb  Sb6  1  0.65865893  0.16213928  0.80696940  1
  Sb  Sb7  1  0.34153085  0.15891065  0.49923659  1
  Sb  Sb8  1  0.50348381  0.35516751  0.16212664  1
  Sb  Sb9  1  0.84225573  0.50074263  0.65968548  1
  Sb  Sb10  1  0.85170549  0.19303144  0.35517445  1
  Sb  Sb11  1  0.14829451  0.80696856  0.64482555  1
  Ru  Ru0  1  0.50000000  0.50000000  0.50000000  1
  Ru  Ru1  1  0.00000000  0.50000000  0.00000000  1
  Ru  Ru2  1  0.00000000  0.00000000  0.50000000  1
loop_
_geom_bond_atom_site_label_1
_geom_bond_atom_site_label_2
_geom_bond_distance
_geom_bond_site_symmetry_2
Rb0 Sb5 3.548720 1_554
Rb0 Sb3 3.548720 1_445
Rb0 Sb0 3.548778 1_555
Rb0 Sb9 3.548778 1_444
Rb0 Sb4 3.548822 1_444
Rb0 Sb7 3.548822 1_555
Rb0 Sb10 3.586623 1_455
Rb0 Sb11 3.586623 1_544
Rb0 Sb8 3.586718 1_555
Rb0 Sb1 3.586718 1_444
Rb0 Sb2 3.586736 1_545
Rb0 Sb6 3.586736 1_454
Mn0 Sb8 2.742933 1_555
Mn0 Sb1 2.742933 1_544
Mn0 Sb6 2.742977 1_554
Mn0 Sb2 2.742977 1_545
Mn0 Sb10 2.743093 1_555
Mn0 Sb11 2.743093 1_544
Sb0 Sb11 2.929096 1_555
Sb0 Sb10 2.956154 1_455
Sb1 Sb5 2.928957 1_555
Sb1 Sb3 2.956083 1_556
Sb2 Sb4 2.928954 1_555
Sb2 Sb7 2.955892 1_565
Sb3 Sb8 2.928957 1_555
Sb4 Sb6 2.955892 1_565
Sb5 Sb8 2.956083 1_556
Sb6 Sb7 2.928954 1_555
Sb10 Sb9 2.929096 1_555
Sb11 Sb9 2.956154 1_455
Ru0 Sb8 2.628514 1_555
Ru0 Sb1 2.628514 1_555
Ru0 Sb9 2.646780 1_555
Ru0 Sb0 2.646780 1_555
Ru0 Sb4 2.652686 1_555
Ru0 Sb7 2.652686 1_555
Ru1 Sb2 2.628382 1_555
Ru1 Sb6 2.628382 1_454
Ru1 Sb3 2.646812 1_455
Ru1 Sb5 2.646812 1_554
Ru1 Sb0 2.652606 1_555
Ru1 Sb9 2.652606 1_454
Ru2 Sb11 2.628349 1_545
Ru2 Sb10 2.628349 1_455
Ru2 Sb7 2.646917 1_555
Ru2 Sb4 2.646917 1_445
Ru2 Sb5 2.652613 1_555
Ru2 Sb3 2.652613 1_445
