# generated using pymatgen
data_NaP12(IrRu)2
_symmetry_space_group_name_H-M   'P 1'
_cell_length_a   6.96522207
_cell_length_b   6.98630790
_cell_length_c   6.96522304
_cell_angle_alpha   109.45783675
_cell_angle_beta   109.36849968
_cell_angle_gamma   109.46477359
_symmetry_Int_Tables_number   1
_chemical_formula_structural   NaP12(IrRu)2
_chemical_formula_sum   'Na1 P12 Ir2 Ru2'
_cell_volume   261.30676677
_cell_formula_units_Z   1
loop_
 _symmetry_equiv_pos_site_id
 _symmetry_equiv_pos_as_xyz
  1  'x, y, z'
loop_
 _atom_site_type_symbol
 _atom_site_label
 _atom_site_symmetry_multiplicity
 _atom_site_fract_x
 _atom_site_fract_y
 _atom_site_fract_z
 _atom_site_occupancy
  Na  Na0  1  0.00000000  0.00000000  0.00000000  1
  P  P0  1  0.35656928  0.21499950  0.85843022  1
  P  P1  1  0.64343072  0.78500050  0.14156978  1
  P  P2  1  0.64113099  0.50191200  0.86078001  1
  P  P3  1  0.35886901  0.49808800  0.13921999  1
  P  P4  1  0.21729935  0.86170398  0.35968238  1
  P  P5  1  0.78270065  0.13829602  0.64031762  1
  P  P6  1  0.50202260  0.86170398  0.64440462  1
  P  P7  1  0.49797740  0.13829602  0.35559538  1
  P  P8  1  0.85693293  0.35512433  0.21737416  1
  P  P9  1  0.14306707  0.64487567  0.78262584  1
  P  P10  1  0.86224883  0.64487567  0.50180760  1
  P  P11  1  0.13775117  0.35512433  0.49819240  1
  Ir  Ir0  1  0.00000000  0.50000000  0.00000000  1
  Ir  Ir1  1  0.50000000  0.50000000  0.50000000  1
  Ru  Ru0  1  0.00000000  0.00000000  0.50000000  1
  Ru  Ru1  1  0.50000000  0.00000000  0.00000000  1
loop_
_geom_bond_atom_site_label_1
_geom_bond_atom_site_label_2
_geom_bond_distance
_geom_bond_site_symmetry_2
Na0 P1 3.085712 1_445
Na0 P0 3.085712 1_554
Na0 P7 3.093992 1_555
Na0 P6 3.093992 1_444
Na0 P4 3.093998 1_545
Na0 P5 3.093998 1_454
Na0 P8 3.096221 1_455
Na0 P9 3.096221 1_544
Na0 P11 3.096224 1_555
Na0 P10 3.096224 1_444
Na0 P3 3.105579 1_555
Na0 P2 3.105579 1_444
P0 P3 2.262274 1_556
P0 P2 2.292477 1_555
P0 Ru0 2.357960 1_555
P0 Ru1 2.357960 1_556
P1 P2 2.262274 1_554
P1 P3 2.292477 1_555
P1 Ru0 2.357960 1_665
P1 Ru1 2.357960 1_565
P4 P7 2.261119 1_565
P4 P6 2.292855 1_555
P4 Ru0 2.346517 1_565
P5 P6 2.261119 1_545
P5 P7 2.292855 1_555
P5 Ru0 2.346517 1_655
P6 Ru1 2.346520 1_566
P7 Ru1 2.346520 1_555
P8 Ru1 2.349152 1_555
P9 Ru1 2.349152 1_566
P10 P9 2.261412 1_655
P10 P8 2.292075 1_555
P10 Ru0 2.349149 1_665
P11 P8 2.261412 1_455
P11 P9 2.292075 1_555
P11 Ru0 2.349149 1_555
Ir0 P3 2.368898 1_555
Ir0 P2 2.368898 1_454
Ir0 P8 2.378933 1_455
Ir0 P9 2.378933 1_554
Ir0 P4 2.381393 1_555
Ir0 P5 2.381393 1_454
Ir1 P2 2.368891 1_555
Ir1 P3 2.368891 1_555
Ir1 P10 2.378930 1_555
Ir1 P11 2.378930 1_555
Ir1 P6 2.381389 1_555
Ir1 P7 2.381389 1_555
