# generated using pymatgen
data_K6TiFeTe6
_symmetry_space_group_name_H-M   'P 1'
_cell_length_a   11.03035091
_cell_length_b   11.03034994
_cell_length_c   14.14811529
_cell_angle_alpha   90.00000000
_cell_angle_beta   90.00000000
_cell_angle_gamma   140.89247649
_symmetry_Int_Tables_number   1
_chemical_formula_structural   K6TiFeTe6
_chemical_formula_sum   'K12 Ti2 Fe2 Te12'
_cell_volume   1085.80926844
_cell_formula_units_Z   2
loop_
 _symmetry_equiv_pos_site_id
 _symmetry_equiv_pos_as_xyz
  1  'x, y, z'
loop_
 _atom_site_type_symbol
 _atom_site_label
 _atom_site_symmetry_multiplicity
 _atom_site_fract_x
 _atom_site_fract_y
 _atom_site_fract_z
 _atom_site_occupancy
  K  K0  1  0.83655433  0.82971862  0.66671355  1
  K  K1  1  0.17028138  0.16344567  0.33328645  1
  K  K2  1  0.67028138  0.66344567  0.16671355  1
  K  K3  1  0.33655433  0.32971862  0.83328645  1
  K  K4  1  0.15372841  0.51201344  0.12857495  1
  K  K5  1  0.48798656  0.84627159  0.87142505  1
  K  K6  1  0.98798656  0.34627159  0.62857495  1
  K  K7  1  0.65372841  0.01201344  0.37142505  1
  K  K8  1  0.84945246  0.50206749  0.87314079  1
  K  K9  1  0.49793251  0.15054754  0.12685921  1
  K  K10  1  0.99793251  0.65054754  0.37314079  1
  K  K11  1  0.34945246  0.00206749  0.62685921  1
  Ti  Ti0  1  0.92174196  0.07825804  0.00000000  1
  Ti  Ti1  1  0.42174196  0.57825804  0.50000000  1
  Fe  Fe0  1  0.08118034  0.91881966  0.00000000  1
  Fe  Fe1  1  0.58118034  0.41881966  0.50000000  1
  Te  Te0  1  0.27488578  0.27666964  0.58795416  1
  Te  Te1  1  0.72333036  0.72511422  0.41204584  1
  Te  Te2  1  0.22333036  0.22511422  0.08795416  1
  Te  Te3  1  0.77488578  0.77666964  0.91204584  1
  Te  Te4  1  0.67485560  0.97926210  0.11944839  1
  Te  Te5  1  0.02073790  0.32514440  0.88055161  1
  Te  Te6  1  0.52073790  0.82514440  0.61944839  1
  Te  Te7  1  0.17485560  0.47926210  0.38055161  1
  Te  Te8  1  0.32868336  0.02135095  0.88081281  1
  Te  Te9  1  0.97864905  0.67131664  0.11918719  1
  Te  Te10  1  0.47864905  0.17131664  0.38081281  1
  Te  Te11  1  0.82868336  0.52135095  0.61918719  1
loop_
_geom_bond_atom_site_label_1
_geom_bond_atom_site_label_2
_geom_bond_distance
_geom_bond_site_symmetry_2
K0 Te11 3.401605 1_555
K0 Te0 3.454150 1_665
K0 Te3 3.497879 1_555
K0 Te6 3.508872 1_555
K0 Te1 3.692806 1_555
K1 Te10 3.401606 1_555
K1 Te1 3.454150 1_445
K1 Te2 3.497879 1_555
K1 Te7 3.508871 1_555
K1 Te0 3.692806 1_555
K2 Te9 3.401606 1_555
K2 Te2 3.454150 1_555
K2 Te1 3.497879 1_555
K2 Te4 3.508871 1_555
K2 Te3 3.692806 1_554
K3 Te8 3.401605 1_555
K3 Te3 3.454150 1_555
K3 Te0 3.497879 1_555
K3 Te5 3.508872 1_555
K3 Te2 3.692806 1_556
K4 Te9 3.478666 1_455
K4 Te7 3.608969 1_555
K4 Te4 3.693832 1_555
K4 Ti0 3.707836 1_455
K4 Te5 3.744535 1_554
K4 Te4 3.778637 1_445
K4 Te2 3.834698 1_555
K5 Te8 3.478666 1_565
K5 Te6 3.608969 1_555
K5 Te5 3.693831 1_555
K5 Ti0 3.707837 1_566
K5 Te4 3.744535 1_556
K5 Te5 3.778637 1_665
K5 Te3 3.834698 1_555
K6 Te11 3.478666 1_555
K6 Te5 3.608969 1_655
K6 Te6 3.693831 1_545
K6 Ti1 3.707837 1_655
K6 Te7 3.744535 1_655
K6 Te6 3.778637 1_655
K6 Te0 3.834698 1_655
K7 Te10 3.478666 1_555
K7 Te4 3.608969 1_545
K7 Te7 3.693832 1_655
K7 Ti1 3.707836 1_545
K7 Te6 3.744535 1_545
K7 Te7 3.778637 1_545
K7 Te1 3.834698 1_545
K8 Te11 3.617008 1_555
K8 Te5 3.620930 1_655
K8 Te9 3.674951 1_556
K8 Te8 3.711298 1_665
K8 Te8 3.722194 1_555
K8 Te3 3.744381 1_555
K9 Te10 3.617008 1_555
K9 Te4 3.620930 1_545
K9 Te8 3.674951 1_554
K9 Te9 3.711299 1_445
K9 Te9 3.722194 1_555
K9 Te2 3.744381 1_555
K10 Te9 3.617008 1_555
K10 Te7 3.620930 1_655
K10 Te11 3.674951 1_555
K10 Te10 3.711299 1_555
K10 Te10 3.722194 1_665
K10 Te1 3.744381 1_555
K11 Te8 3.617008 1_555
K11 Te6 3.620930 1_545
K11 Te10 3.674951 1_555
K11 Te11 3.711298 1_555
K11 Te11 3.722194 1_445
K11 Te0 3.744381 1_555
Fe0 Te9 2.604622 1_455
Fe0 Te8 2.604622 1_564
Fe0 Te2 2.683337 1_565
Fe0 Te3 2.683337 1_454
Fe0 K8 3.556880 1_454
Fe0 K9 3.556880 1_565
Fe1 Te10 2.604622 1_555
Fe1 Te11 2.604622 1_555
Fe1 Te1 2.683337 1_555
Fe1 Te0 2.683337 1_555
Fe1 K11 3.556880 1_555
Fe1 K10 3.556880 1_555
Te0 Ti1 2.622219 1_555
Te1 Ti1 2.622219 1_555
Te2 Ti0 2.622219 1_455
Te3 Ti0 2.622219 1_566
Te4 Ti0 2.617156 1_565
Te5 Ti0 2.617155 1_456
Te6 Ti1 2.617155 1_555
Te7 Ti1 2.617156 1_555
