# generated using pymatgen
data_RbAlSnSe4
_symmetry_space_group_name_H-M   'P 1'
_cell_length_a   7.47515669
_cell_length_b   8.62654637
_cell_length_c   15.78478299
_cell_angle_alpha   84.66737752
_cell_angle_beta   87.41939999
_cell_angle_gamma   65.61443584
_symmetry_Int_Tables_number   1
_chemical_formula_structural   RbAlSnSe4
_chemical_formula_sum   'Rb4 Al4 Sn4 Se16'
_cell_volume   923.03383862
_cell_formula_units_Z   4
loop_
 _symmetry_equiv_pos_site_id
 _symmetry_equiv_pos_as_xyz
  1  'x, y, z'
loop_
 _atom_site_type_symbol
 _atom_site_label
 _atom_site_symmetry_multiplicity
 _atom_site_fract_x
 _atom_site_fract_y
 _atom_site_fract_z
 _atom_site_occupancy
  Rb  Rb0  1  0.09146771  0.77453588  0.14338425  1
  Rb  Rb1  1  0.34803637  0.81470521  0.48216616  1
  Rb  Rb2  1  0.65206680  0.18532525  0.51779288  1
  Rb  Rb3  1  0.90846539  0.22555395  0.85660809  1
  Al  Al0  1  0.00555702  0.23089220  0.24059259  1
  Al  Al1  1  0.51053673  0.25090313  0.26390979  1
  Al  Al2  1  0.48942089  0.74914174  0.73606019  1
  Al  Al3  1  0.99450135  0.76912066  0.75940414  1
  Sn  Sn0  1  0.36354929  0.16057234  0.06277276  1
  Sn  Sn1  1  0.06915482  0.48888576  0.39179742  1
  Sn  Sn2  1  0.93085853  0.51109722  0.60827280  1
  Sn  Sn3  1  0.63642112  0.83932772  0.93719012  1
  Se  Se0  1  0.00433094  0.22578774  0.08739044  1
  Se  Se1  1  0.57641479  0.84092866  0.09956961  1
  Se  Se2  1  0.48026340  0.36723182  0.11885937  1
  Se  Se3  1  0.85153755  0.52791832  0.26836916  1
  Se  Se4  1  0.32745837  0.08477442  0.29817894  1
  Se  Se5  1  0.83681215  0.06921661  0.30544917  1
  Se  Se6  1  0.39315715  0.50023282  0.34736528  1
  Se  Se7  1  0.89521568  0.74193060  0.48686469  1
  Se  Se8  1  0.10489547  0.25806088  0.51320769  1
  Se  Se9  1  0.60685949  0.49974058  0.65264359  1
  Se  Se10  1  0.16318496  0.93078585  0.69453000  1
  Se  Se11  1  0.67256930  0.91521536  0.70182570  1
  Se  Se12  1  0.14861530  0.47207294  0.73166587  1
  Se  Se13  1  0.51945476  0.63281979  0.88112255  1
  Se  Se14  1  0.42356706  0.15892656  0.90040246  1
  Se  Se15  1  0.99562560  0.77429398  0.91260128  1
loop_
_geom_bond_atom_site_label_1
_geom_bond_atom_site_label_2
_geom_bond_distance
_geom_bond_site_symmetry_2
Rb0 Se2 3.558270 1_555
Rb0 Se5 3.661198 1_465
Rb0 Se0 3.698309 1_565
Rb0 Se3 3.699585 1_455
Rb0 Se1 3.738303 1_455
Rb0 Se15 3.744512 1_454
Rb0 Se1 3.919492 1_555
Rb0 Se6 3.985397 1_555
Rb1 Se6 3.500486 1_555
Rb1 Se4 3.517454 1_565
Rb1 Se8 3.563610 1_565
Rb1 Se9 3.624339 1_555
Rb1 Se10 3.634974 1_555
Rb1 Se7 3.685198 1_455
Rb1 Se7 3.876603 1_555
Rb2 Se9 3.500465 1_555
Rb2 Se11 3.518314 1_545
Rb2 Se7 3.563524 1_545
Rb2 Se6 3.623732 1_555
Rb2 Se5 3.634550 1_555
Rb2 Se8 3.685140 1_655
Rb2 Se8 3.876545 1_555
Rb3 Se13 3.558675 1_555
Rb3 Se10 3.661858 1_645
Rb3 Se15 3.698331 1_545
Rb3 Se12 3.699807 1_655
Rb3 Se14 3.738004 1_655
Rb3 Se0 3.744532 1_656
Rb3 Se14 3.920133 1_555
Rb3 Se9 3.984685 1_555
Al0 Se5 2.378109 1_455
Al0 Se4 2.384246 1_555
Al0 Se3 2.410513 1_455
Al0 Se0 2.423250 1_555
Al1 Se4 2.372362 1_555
Al1 Se5 2.373058 1_555
Al1 Se2 2.394271 1_555
Al1 Se6 2.448592 1_555
Al2 Se11 2.372319 1_555
Al2 Se10 2.372717 1_555
Al2 Se13 2.394492 1_555
Al2 Se9 2.448690 1_555
Al3 Se10 2.377793 1_655
Al3 Se11 2.384369 1_555
Al3 Se12 2.410543 1_655
Al3 Se15 2.423195 1_555
Se0 Sn0 2.525296 1_555
Se1 Sn0 2.575872 1_565
Se1 Sn3 2.582429 1_554
Se2 Sn0 2.523977 1_555
Se3 Sn1 2.503316 1_655
Se6 Sn1 2.529318 1_555
Se7 Sn2 2.570484 1_555
Se7 Sn1 2.607100 1_655
Se8 Sn1 2.570325 1_555
Se8 Sn2 2.607122 1_455
Se9 Sn2 2.529105 1_555
Se12 Sn2 2.503546 1_455
Se13 Sn3 2.523927 1_555
Se14 Sn3 2.575526 1_545
Se14 Sn0 2.582306 1_556
Se15 Sn3 2.525455 1_555
