# generated using pymatgen
data_Ti(VBr4)3
_symmetry_space_group_name_H-M   'P 1'
_cell_length_a   6.20201955
_cell_length_b   6.69965827
_cell_length_c   11.59280487
_cell_angle_alpha   90.00000000
_cell_angle_beta   90.00000000
_cell_angle_gamma   90.19929605
_symmetry_Int_Tables_number   1
_chemical_formula_structural   Ti(VBr4)3
_chemical_formula_sum   'Ti1 V3 Br12'
_cell_volume   481.69449274
_cell_formula_units_Z   1
loop_
 _symmetry_equiv_pos_site_id
 _symmetry_equiv_pos_as_xyz
  1  'x, y, z'
loop_
 _atom_site_type_symbol
 _atom_site_label
 _atom_site_symmetry_multiplicity
 _atom_site_fract_x
 _atom_site_fract_y
 _atom_site_fract_z
 _atom_site_occupancy
  Ti  Ti0  1  0.75306103  0.74791113  0.00000000  1
  V  V0  1  0.75048558  0.25223443  0.50000000  1
  V  V1  1  0.24582248  0.74782652  0.00000000  1
  V  V2  1  0.25125313  0.25236928  0.50000000  1
  Br  Br0  1  0.00414413  0.95413317  0.50000000  1
  Br  Br1  1  0.50564790  0.04954003  0.00000000  1
  Br  Br2  1  0.49748808  0.55063294  0.50000000  1
  Br  Br3  1  0.99188984  0.44339073  0.00000000  1
  Br  Br4  1  0.00055872  0.40163631  0.34881382  1
  Br  Br5  1  0.50465303  0.59736643  0.15075897  1
  Br  Br6  1  0.00055872  0.40163631  0.65118618  1
  Br  Br7  1  0.50465303  0.59736643  0.84924103  1
  Br  Br8  1  0.99354538  0.89992187  0.15208902  1
  Br  Br9  1  0.50134629  0.10205728  0.34895789  1
  Br  Br10  1  0.99354538  0.89992187  0.84791098  1
  Br  Br11  1  0.50134629  0.10205728  0.65104211  1
loop_
_geom_bond_atom_site_label_1
_geom_bond_atom_site_label_2
_geom_bond_distance
_geom_bond_site_symmetry_2
Br0 V2 2.513923 1_565
Br0 V0 2.546668 1_465
Br1 Ti0 2.541617 1_545
Br1 V1 2.580708 1_545
Br2 V2 2.510783 1_555
Br2 V0 2.545694 1_555
Br3 Ti0 2.525348 1_555
Br3 V1 2.572544 1_655
Br4 V0 2.543308 1_455
Br4 V2 2.549547 1_555
Br5 Ti0 2.536637 1_555
Br5 V1 2.580466 1_555
Br6 V0 2.543308 1_455
Br6 V2 2.549547 1_555
Br7 Ti0 2.536637 1_556
Br7 V1 2.580466 1_556
Br8 Ti0 2.521866 1_555
Br8 V1 2.570242 1_655
Br9 V0 2.540677 1_555
Br9 V2 2.548894 1_555
Br10 Ti0 2.521866 1_556
Br10 V1 2.570242 1_656
Br11 V0 2.540677 1_555
Br11 V2 2.548894 1_555
