# generated using pymatgen
data_Sr2Ca(Si3Pd10)2
_symmetry_space_group_name_H-M   'P 1'
_cell_length_a   8.71329034
_cell_length_b   8.71329031
_cell_length_c   8.71329047
_cell_angle_alpha   59.99999569
_cell_angle_beta   59.99999580
_cell_angle_gamma   59.99999283
_symmetry_Int_Tables_number   1
_chemical_formula_structural   Sr2Ca(Si3Pd10)2
_chemical_formula_sum   'Sr2 Ca1 Si6 Pd20'
_cell_volume   467.76908116
_cell_formula_units_Z   1
loop_
 _symmetry_equiv_pos_site_id
 _symmetry_equiv_pos_as_xyz
  1  'x, y, z'
loop_
 _atom_site_type_symbol
 _atom_site_label
 _atom_site_symmetry_multiplicity
 _atom_site_fract_x
 _atom_site_fract_y
 _atom_site_fract_z
 _atom_site_occupancy
  Sr  Sr0  1  0.25000000  0.25000000  0.25000000  1
  Sr  Sr1  1  0.75000000  0.75000000  0.75000000  1
  Ca  Ca0  1  0.00000000  0.00000000  0.00000000  1
  Si  Si0  1  0.73294036  0.26705964  0.26705964  1
  Si  Si1  1  0.26705964  0.73294036  0.73294036  1
  Si  Si2  1  0.26705964  0.73294036  0.26705964  1
  Si  Si3  1  0.73294036  0.26705964  0.73294036  1
  Si  Si4  1  0.26705964  0.26705964  0.73294036  1
  Si  Si5  1  0.73294036  0.73294036  0.26705964  1
  Pd  Pd0  1  0.34530061  1.00000000  1.00000000  1
  Pd  Pd1  1  0.65469939  0.00000000  0.00000000  1
  Pd  Pd2  1  1.00000000  0.34530061  0.65469939  1
  Pd  Pd3  1  0.00000000  0.65469939  0.34530061  1
  Pd  Pd4  1  1.00000000  0.34530061  1.00000000  1
  Pd  Pd5  1  0.65469939  0.00000000  0.34530061  1
  Pd  Pd6  1  0.00000000  0.65469939  0.00000000  1
  Pd  Pd7  1  0.34530061  1.00000000  0.65469939  1
  Pd  Pd8  1  1.00000000  1.00000000  0.34530061  1
  Pd  Pd9  1  0.00000000  0.00000000  0.65469939  1
  Pd  Pd10  1  0.65469939  0.34530061  0.00000000  1
  Pd  Pd11  1  0.34530061  0.65469939  0.00000000  1
  Pd  Pd12  1  0.38691717  0.38691717  0.38691717  1
  Pd  Pd13  1  0.61308283  0.61308283  0.61308283  1
  Pd  Pd14  1  0.38691717  0.38691717  0.83924750  1
  Pd  Pd15  1  0.38691717  0.83924750  0.38691717  1
  Pd  Pd16  1  0.61308283  0.61308283  0.16075250  1
  Pd  Pd17  1  0.61308283  0.16075250  0.61308283  1
  Pd  Pd18  1  0.83924750  0.38691717  0.38691717  1
  Pd  Pd19  1  0.16075250  0.61308283  0.61308283  1
loop_
_geom_bond_atom_site_label_1
_geom_bond_atom_site_label_2
_geom_bond_distance
_geom_bond_site_symmetry_2
Ca0 Pd11 3.008704 1_545
Ca0 Pd10 3.008704 1_455
Ca0 Pd3 3.008704 1_545
Ca0 Pd2 3.008704 1_454
Ca0 Pd5 3.008704 1_455
Ca0 Pd7 3.008704 1_544
Ca0 Pd4 3.008704 1_454
Ca0 Pd6 3.008704 1_545
Ca0 Pd0 3.008704 1_544
Ca0 Pd1 3.008704 1_455
Ca0 Pd8 3.008704 1_445
Ca0 Pd9 3.008704 1_554
Pd0 Si4 2.424777 1_565
Pd0 Si2 2.424777 1_556
Pd0 Sr1 3.362606 1_555
Pd0 Sr0 3.362607 1_566
Pd1 Si5 2.424777 1_545
Pd1 Si3 2.424777 1_554
Pd1 Sr0 3.362606 1_555
Pd1 Sr1 3.362607 1_544
Pd2 Si4 2.424777 1_655
Pd2 Si3 2.424777 1_555
Pd2 Sr1 3.362606 1_555
Pd2 Sr0 3.362606 1_655
Pd3 Si5 2.424777 1_455
Pd3 Si2 2.424777 1_555
Pd3 Sr0 3.362606 1_555
Pd3 Sr1 3.362606 1_455
Pd4 Si4 2.424777 1_655
Pd4 Si0 2.424777 1_556
Pd4 Sr1 3.362606 1_555
Pd4 Sr0 3.362607 1_656
Pd5 Si5 2.424777 1_545
Pd5 Si0 2.424777 1_555
Pd5 Sr0 3.362606 1_555
Pd5 Sr1 3.362606 1_545
Pd6 Si5 2.424777 1_455
Pd6 Si1 2.424777 1_554
Pd6 Sr0 3.362606 1_555
Pd6 Sr1 3.362607 1_454
Pd7 Si4 2.424777 1_565
Pd7 Si1 2.424777 1_555
Pd7 Sr1 3.362606 1_555
Pd7 Sr0 3.362606 1_565
Pd8 Si2 2.424777 1_655
Pd8 Si0 2.424777 1_565
Pd8 Sr1 3.362606 1_555
Pd8 Sr0 3.362607 1_665
Pd9 Si1 2.424777 1_545
Pd9 Si3 2.424777 1_455
Pd9 Sr0 3.362606 1_555
Pd9 Sr1 3.362607 1_445
Pd10 Si0 2.424777 1_555
Pd10 Si3 2.424777 1_554
Pd10 Sr1 3.362606 1_554
Pd10 Sr0 3.362606 1_555
Pd11 Si1 2.424777 1_554
Pd11 Si2 2.424777 1_555
Pd11 Sr0 3.362606 1_555
Pd11 Sr1 3.362606 1_554
Pd12 Si2 2.462681 1_555
Pd12 Si0 2.462681 1_555
Pd12 Si4 2.462681 1_555
Pd12 Sr0 2.922239 1_555
Pd13 Si3 2.462681 1_555
Pd13 Si1 2.462681 1_555
Pd13 Si5 2.462681 1_555
Pd13 Sr1 2.922239 1_555
Pd14 Si4 2.462674 1_555
Pd14 Si1 2.462681 1_555
Pd14 Si3 2.462681 1_555
Pd14 Sr0 2.922246 1_556
Pd15 Si2 2.462674 1_555
Pd15 Si5 2.462681 1_555
Pd15 Si1 2.462681 1_555
Pd15 Sr0 2.922246 1_565
Pd16 Si5 2.462674 1_555
Pd16 Si0 2.462681 1_555
Pd16 Si2 2.462681 1_555
Pd16 Sr1 2.922246 1_554
Pd17 Si3 2.462674 1_555
Pd17 Si4 2.462681 1_555
Pd17 Si0 2.462681 1_555
Pd17 Sr1 2.922246 1_545
Pd18 Si0 2.462674 1_555
Pd18 Si5 2.462681 1_555
Pd18 Si3 2.462681 1_555
Pd18 Sr0 2.922246 1_655
Pd19 Si1 2.462674 1_555
Pd19 Si4 2.462681 1_555
Pd19 Si2 2.462681 1_555
Pd19 Sr1 2.922246 1_455
