# generated using pymatgen
data_MnNbOF5
_symmetry_space_group_name_H-M   'P 1'
_cell_length_a   5.38696598
_cell_length_b   5.61396838
_cell_length_c   5.34652119
_cell_angle_alpha   117.52355693
_cell_angle_beta   118.99765310
_cell_angle_gamma   91.39711655
_symmetry_Int_Tables_number   1
_chemical_formula_structural   MnNbOF5
_chemical_formula_sum   'Mn1 Nb1 O1 F5'
_cell_volume   118.81002044
_cell_formula_units_Z   1
loop_
 _symmetry_equiv_pos_site_id
 _symmetry_equiv_pos_as_xyz
  1  'x, y, z'
loop_
 _atom_site_type_symbol
 _atom_site_label
 _atom_site_symmetry_multiplicity
 _atom_site_fract_x
 _atom_site_fract_y
 _atom_site_fract_z
 _atom_site_occupancy
  Mn  Mn0  1  0.15805526  0.47447249  0.31745621  1
  Nb  Nb0  1  0.68723263  0.99625804  0.32598830  1
  O  O0  1  0.99454950  0.22088592  0.41430600  1
  F  F0  1  0.32060674  0.73196899  0.22598938  1
  F  F1  1  0.40191681  0.19878668  0.19396080  1
  F  F2  1  0.52176773  0.72581140  0.83805405  1
  F  F3  1  0.89339743  0.73264598  0.42267833  1
  F  F4  1  0.78362890  0.21440448  0.79504393  1
loop_
_geom_bond_atom_site_label_1
_geom_bond_atom_site_label_2
_geom_bond_distance
_geom_bond_site_symmetry_2
Mn0 O0 2.032981 1_455
Nb0 O0 1.773095 1_565
F0 Mn0 2.025448 1_555
F0 Nb0 2.118503 1_555
F1 Nb0 1.982029 1_545
F1 Mn0 2.133704 1_555
F2 Nb0 1.980928 1_556
F2 Mn0 2.127212 1_555
F3 Nb0 1.980250 1_555
F3 Mn0 2.138835 1_655
F4 Nb0 1.981530 1_545
F4 Mn0 2.150965 1_656
