# generated using pymatgen
data_Mg2In6BIr4
_symmetry_space_group_name_H-M   'P 1'
_cell_length_a   8.73046933
_cell_length_b   8.74534099
_cell_length_c   8.72230210
_cell_angle_alpha   60.08990746
_cell_angle_beta   60.00852777
_cell_angle_gamma   60.02328103
_symmetry_Int_Tables_number   1
_chemical_formula_structural   Mg2In6BIr4
_chemical_formula_sum   'Mg4 In12 B2 Ir8'
_cell_volume   471.33444313
_cell_formula_units_Z   2
loop_
 _symmetry_equiv_pos_site_id
 _symmetry_equiv_pos_as_xyz
  1  'x, y, z'
loop_
 _atom_site_type_symbol
 _atom_site_label
 _atom_site_symmetry_multiplicity
 _atom_site_fract_x
 _atom_site_fract_y
 _atom_site_fract_z
 _atom_site_occupancy
  Mg  Mg0  1  0.12500000  0.12500000  0.62500000  1
  Mg  Mg1  1  0.12500000  0.62500000  0.12500000  1
  Mg  Mg2  1  0.12500000  0.12500000  0.12500000  1
  Mg  Mg3  1  0.62500000  0.12500000  0.12500000  1
  In  In0  1  0.95467600  0.95533452  0.54500245  1
  In  In1  1  0.29495800  0.70501235  0.29509156  1
  In  In2  1  0.70486157  0.29478011  0.70487667  1
  In  In3  1  0.29532400  0.29466548  0.70499755  1
  In  In4  1  0.70488073  0.29473059  0.29548014  1
  In  In5  1  0.70500564  0.70514674  0.29495523  1
  In  In6  1  0.95500527  0.54499739  0.54506349  1
  In  In7  1  0.54511927  0.95526941  0.95451986  1
  In  In8  1  0.54513843  0.95521989  0.54512333  1
  In  In9  1  0.54499436  0.54485326  0.95504477  1
  In  In10  1  0.95504200  0.54498765  0.95490844  1
  In  In11  1  0.29499473  0.70500261  0.70493651  1
  B  B0  1  0.25027837  0.24886075  0.25049108  1
  B  B1  1  0.99972163  0.00113925  0.99950892  1
  Ir  Ir0  1  0.90101044  0.90036683  0.90145836  1
  Ir  Ir1  1  0.90081202  0.29815353  0.90047702  1
  Ir  Ir2  1  0.29727781  0.90052656  0.90121475  1
  Ir  Ir3  1  0.34880034  0.34972734  0.95290794  1
  Ir  Ir4  1  0.95272219  0.34947344  0.34878525  1
  Ir  Ir5  1  0.90119966  0.90027266  0.29709206  1
  Ir  Ir6  1  0.34918798  0.95184647  0.34952298  1
  Ir  Ir7  1  0.34898956  0.34963317  0.34854164  1
loop_
_geom_bond_atom_site_label_1
_geom_bond_atom_site_label_2
_geom_bond_distance
_geom_bond_site_symmetry_2
In0 Ir0 2.719452 1_555
In0 Ir5 2.719919 1_555
In0 Ir6 2.974372 1_655
In0 Ir4 2.982891 1_565
In0 Mg2 3.028380 1_665
In0 Mg0 3.028918 1_665
In1 Ir6 2.716140 1_555
In1 Ir7 2.721915 1_555
In1 Ir2 2.972129 1_554
In1 Ir5 2.972813 1_455
In1 Mg1 3.027543 1_555
In1 Mg2 3.035386 1_565
In2 Ir4 2.718764 1_555
In2 Ir3 2.719404 1_555
In2 Ir1 2.976033 1_555
In2 Ir0 2.984087 1_545
In2 Mg3 3.028688 1_556
In2 Mg0 3.029631 1_655
In3 Ir7 2.719452 1_555
In3 Ir3 2.719919 1_555
In3 Ir1 2.974372 1_455
In3 Ir2 2.982891 1_545
In3 Mg2 3.028380 1_556
In3 Mg0 3.028918 1_555
In4 Ir4 2.718492 1_555
In4 Ir7 2.718815 1_555
In4 Ir1 2.975506 1_554
In4 Ir5 2.984185 1_545
In4 Mg3 3.028724 1_555
In4 Mg2 3.029112 1_655
In5 Ir6 2.716584 1_555
In5 Ir4 2.721984 1_555
In5 Ir0 2.971024 1_554
In5 Ir5 2.971647 1_555
In5 Mg1 3.027803 1_655
In5 Mg3 3.035012 1_565
In6 Ir1 2.715605 1_555
In6 Ir5 2.721700 1_555
In6 Ir7 2.973573 1_655
In6 Ir4 2.973680 1_555
In6 Mg1 3.026761 1_655
In6 Mg0 3.035290 1_655
In7 Ir2 2.718492 1_555
In7 Ir0 2.718815 1_555
In7 Ir6 2.975506 1_556
In7 Ir3 2.984185 1_565
In7 Mg3 3.028724 1_566
In7 Mg2 3.029112 1_566
In8 Ir2 2.718764 1_555
In8 Ir5 2.719404 1_555
In8 Ir6 2.976033 1_555
In8 Ir7 2.984087 1_565
In8 Mg3 3.028688 1_565
In8 Mg0 3.029631 1_565
In9 Ir1 2.716584 1_555
In9 Ir2 2.721984 1_555
In9 Ir7 2.971024 1_556
In9 Ir3 2.971647 1_555
In9 Mg1 3.027803 1_556
In9 Mg3 3.035012 1_556
In10 Ir1 2.716140 1_555
In10 Ir0 2.721915 1_555
In10 Ir4 2.972129 1_556
In10 Ir3 2.972813 1_655
In10 Mg1 3.027543 1_656
In10 Mg2 3.035386 1_656
In11 Ir6 2.715605 1_555
In11 Ir3 2.721700 1_555
In11 Ir0 2.973573 1_455
In11 Ir2 2.973680 1_555
In11 Mg1 3.026761 1_556
In11 Mg0 3.035290 1_565
B0 Ir3 2.120838 1_554
B0 Ir7 2.120901 1_555
B0 Ir4 2.121165 1_455
B0 Ir6 2.122610 1_545
B0 Mg0 2.668976 1_555
B0 Mg2 2.670371 1_555
B0 Mg3 2.671209 1_555
B0 Mg1 2.688076 1_555
B1 Ir5 2.120838 1_546
B1 Ir0 2.120901 1_545
B1 Ir2 2.121165 1_645
B1 Ir1 2.122610 1_555
B1 Mg0 2.668976 1_655
B1 Mg2 2.670371 1_656
B1 Mg3 2.671209 1_556
B1 Mg1 2.688076 1_646
Ir0 Mg1 2.801501 1_656
Ir0 Mg3 2.803538 1_566
Ir0 Mg0 2.810414 1_665
Ir1 Mg0 2.804020 1_655
Ir1 Mg2 2.805696 1_656
Ir1 Mg3 2.810414 1_556
Ir2 Mg2 2.803881 1_566
Ir2 Mg1 2.806117 1_556
Ir2 Mg0 2.806388 1_565
Ir3 Mg1 2.799528 1_556
Ir3 Mg3 2.805544 1_556
Ir3 Mg2 2.810062 1_556
Ir4 Mg2 2.803881 1_655
Ir4 Mg1 2.806117 1_655
Ir4 Mg0 2.806388 1_655
Ir5 Mg1 2.799528 1_655
Ir5 Mg3 2.805544 1_565
Ir5 Mg2 2.810062 1_665
Ir6 Mg0 2.804020 1_565
Ir6 Mg2 2.805696 1_565
Ir6 Mg3 2.810414 1_565
Ir7 Mg1 2.801501 1_555
Ir7 Mg3 2.803538 1_555
Ir7 Mg0 2.810414 1_555
