# generated using pymatgen
data_NaSc(IO3)4
_symmetry_space_group_name_H-M   'P 1'
_cell_length_a   4.96330779
_cell_length_b   7.20565308
_cell_length_c   15.37139279
_cell_angle_alpha   78.63904877
_cell_angle_beta   90.00000000
_cell_angle_gamma   90.00000000
_symmetry_Int_Tables_number   1
_chemical_formula_structural   NaSc(IO3)4
_chemical_formula_sum   'Na2 Sc2 I8 O24'
_cell_volume   538.96874998
_cell_formula_units_Z   2
loop_
 _symmetry_equiv_pos_site_id
 _symmetry_equiv_pos_as_xyz
  1  'x, y, z'
loop_
 _atom_site_type_symbol
 _atom_site_label
 _atom_site_symmetry_multiplicity
 _atom_site_fract_x
 _atom_site_fract_y
 _atom_site_fract_z
 _atom_site_occupancy
  Na  Na0  1  0.50000000  0.50000000  0.00000000  1
  Na  Na1  1  0.00000000  0.50000000  0.50000000  1
  Sc  Sc0  1  0.50000000  0.00000000  0.00000000  1
  Sc  Sc1  1  0.00000000  0.00000000  0.50000000  1
  I  I0  1  0.92241382  0.66803851  0.16291451  1
  I  I1  1  0.42241382  0.33196149  0.33708549  1
  I  I2  1  0.07758618  0.33196149  0.83708549  1
  I  I3  1  0.57758618  0.66803851  0.66291451  1
  I  I4  1  0.98983057  0.18169813  0.14030423  1
  I  I5  1  0.48983057  0.81830187  0.35969577  1
  I  I6  1  0.01016943  0.81830187  0.85969577  1
  I  I7  1  0.51016943  0.18169813  0.64030423  1
  O  O0  1  0.67925127  0.75515377  0.07393756  1
  O  O1  1  0.17925127  0.24484623  0.42606244  1
  O  O2  1  0.32074873  0.24484623  0.92606244  1
  O  O3  1  0.82074873  0.75515377  0.57393756  1
  O  O4  1  0.82128950  0.82648977  0.23537766  1
  O  O5  1  0.32128950  0.17351023  0.26462234  1
  O  O6  1  0.17871050  0.17351023  0.76462234  1
  O  O7  1  0.67871050  0.82648977  0.73537766  1
  O  O8  1  0.73265313  0.45441919  0.20655551  1
  O  O9  1  0.23265313  0.54558081  0.29344449  1
  O  O10  1  0.26734687  0.54558081  0.79344449  1
  O  O11  1  0.76734687  0.45441919  0.70655551  1
  O  O12  1  0.73560742  0.19180727  0.05221184  1
  O  O13  1  0.23560742  0.80819273  0.44778816  1
  O  O14  1  0.26439258  0.80819273  0.94778816  1
  O  O15  1  0.76439258  0.19180727  0.55221184  1
  O  O16  1  0.21078071  0.00844459  0.10316143  1
  O  O17  1  0.71078071  0.99155541  0.39683857  1
  O  O18  1  0.78921929  0.99155541  0.89683857  1
  O  O19  1  0.28921929  0.00844459  0.60316143  1
  O  O20  1  0.15164393  0.39921242  0.09139292  1
  O  O21  1  0.65164393  0.60078758  0.40860708  1
  O  O22  1  0.84835607  0.60078758  0.90860708  1
  O  O23  1  0.34835607  0.39921242  0.59139292  1
loop_
_geom_bond_atom_site_label_1
_geom_bond_atom_site_label_2
_geom_bond_distance
_geom_bond_site_symmetry_2
Na0 O20 2.255764 1_555
Na0 O22 2.255764 1_554
Na0 O14 2.498210 1_554
Na0 O12 2.498210 1_555
Na0 O0 2.507333 1_555
Na0 O2 2.507333 1_554
Na1 O23 2.255764 1_555
Na1 O21 2.255764 1_455
Na1 O13 2.498210 1_555
Na1 O15 2.498210 1_455
Na1 O1 2.507333 1_555
Na1 O3 2.507333 1_455
I0 O4 1.815825 1_555
I0 O8 1.816479 1_555
I0 O0 1.839287 1_555
I1 O5 1.815825 1_555
I1 O9 1.816479 1_555
I1 O1 1.839287 1_555
I2 O6 1.815825 1_555
I2 O10 1.816479 1_555
I2 O2 1.839287 1_555
I3 O7 1.815825 1_555
I3 O11 1.816479 1_555
I3 O3 1.839287 1_555
I4 O20 1.789567 1_655
I4 O16 1.835190 1_655
I4 O12 1.841778 1_555
I5 O21 1.789567 1_555
I5 O17 1.835190 1_555
I5 O13 1.841778 1_555
I6 O22 1.789567 1_455
I6 O18 1.835190 1_455
I6 O14 1.841778 1_555
I7 O23 1.789567 1_555
I7 O19 1.835190 1_555
I7 O15 1.841778 1_555
O0 Sc0 2.099025 1_565
O1 Sc1 2.099025 1_555
O2 Sc0 2.099025 1_556
O3 Sc1 2.099025 1_665
O12 Sc0 2.087773 1_555
O13 Sc1 2.087773 1_565
O14 Sc0 2.087773 1_566
O15 Sc1 2.087773 1_655
O16 Sc0 2.148694 1_555
O17 Sc1 2.148694 1_665
O18 Sc0 2.148694 1_566
O19 Sc1 2.148694 1_555
