# generated using pymatgen
data_BaSr3(ReN3)4
_symmetry_space_group_name_H-M   'P 1'
_cell_length_a   7.65368106
_cell_length_b   7.65368029
_cell_length_c   6.18320595
_cell_angle_alpha   79.16230714
_cell_angle_beta   79.16231188
_cell_angle_gamma   88.23218050
_symmetry_Int_Tables_number   1
_chemical_formula_structural   BaSr3(ReN3)4
_chemical_formula_sum   'Ba1 Sr3 Re4 N12'
_cell_volume   349.39563731
_cell_formula_units_Z   1
loop_
 _symmetry_equiv_pos_site_id
 _symmetry_equiv_pos_as_xyz
  1  'x, y, z'
loop_
 _atom_site_type_symbol
 _atom_site_label
 _atom_site_symmetry_multiplicity
 _atom_site_fract_x
 _atom_site_fract_y
 _atom_site_fract_z
 _atom_site_occupancy
  Ba  Ba0  1  0.31959772  0.68040228  0.25000000  1
  Sr  Sr0  1  0.90261972  0.09738028  0.25000000  1
  Sr  Sr1  1  0.09122433  0.90877567  0.75000000  1
  Sr  Sr2  1  0.68242803  0.31757197  0.75000000  1
  Re  Re0  1  0.79804965  0.62630411  0.23920430  1
  Re  Re1  1  0.37369589  0.20195035  0.26079570  1
  Re  Re2  1  0.62883399  0.79678602  0.73637709  1
  Re  Re3  1  0.20321398  0.37116601  0.76362291  1
  N  N0  1  0.77114995  0.98482637  0.66233383  1
  N  N1  1  0.13169778  0.58805882  0.68782441  1
  N  N2  1  0.32774115  0.36205049  0.00521211  1
  N  N3  1  0.58771841  0.12481911  0.17447698  1
  N  N4  1  0.87518089  0.41228159  0.32552302  1
  N  N5  1  0.22182185  0.02274348  0.33790796  1
  N  N6  1  0.97725652  0.77817815  0.16209204  1
  N  N7  1  0.36456613  0.32185928  0.50814646  1
  N  N8  1  0.63794951  0.67225885  0.49478789  1
  N  N9  1  0.01517363  0.22885005  0.83766617  1
  N  N10  1  0.41194118  0.86830222  0.81217559  1
  N  N11  1  0.67814072  0.63543387  0.99185354  1
loop_
_geom_bond_atom_site_label_1
_geom_bond_atom_site_label_2
_geom_bond_distance
_geom_bond_site_symmetry_2
Ba0 N10 2.788469 1_554
Ba0 N1 2.788469 1_555
Ba0 N5 2.825313 1_565
Ba0 N6 2.825313 1_455
Ba0 N7 2.949210 1_555
Ba0 N11 2.949211 1_554
Ba0 N2 3.094131 1_555
Ba0 N8 3.094131 1_555
N0 Re2 1.768829 1_555
N0 Sr0 2.552955 1_565
N0 Sr1 2.631849 1_655
N0 Sr2 2.741309 1_565
N1 Re3 1.738617 1_555
N1 Sr1 2.555838 1_555
N2 Re1 1.891257 1_555
N2 Re3 1.907034 1_554
N2 Sr2 2.917104 1_554
N3 Re1 1.745466 1_555
N3 Sr0 2.534984 1_555
N3 Sr2 2.735867 1_554
N4 Re0 1.745466 1_555
N4 Sr0 2.534984 1_555
N4 Sr2 2.735867 1_555
N5 Re1 1.761756 1_555
N5 Sr1 2.552003 1_545
N5 Sr0 2.624286 1_455
N6 Re0 1.761756 1_555
N6 Sr1 2.552003 1_654
N6 Sr0 2.624285 1_565
N7 Re3 1.903850 1_555
N7 Re1 1.915713 1_555
N7 Sr2 3.082323 1_555
N8 Re0 1.891257 1_555
N8 Re2 1.907034 1_555
N8 Sr2 2.917103 1_555
N9 Re3 1.768829 1_555
N9 Sr0 2.552955 1_456
N9 Sr1 2.631849 1_545
N9 Sr2 2.741309 1_455
N10 Re2 1.738618 1_555
N10 Sr1 2.555838 1_555
N11 Re2 1.903850 1_555
N11 Re0 1.915713 1_556
N11 Sr2 3.082323 1_555
