# generated using pymatgen
data_Y4Bi5SbRh7
_symmetry_space_group_name_H-M   'P 1'
_cell_length_a   7.72911504
_cell_length_b   7.72911595
_cell_length_c   7.72911488
_cell_angle_alpha   110.31654103
_cell_angle_beta   110.31653867
_cell_angle_gamma   107.79350170
_symmetry_Int_Tables_number   1
_chemical_formula_structural   Y4Bi5SbRh7
_chemical_formula_sum   'Y4 Bi5 Sb1 Rh7'
_cell_volume   355.21318387
_cell_formula_units_Z   1
loop_
 _symmetry_equiv_pos_site_id
 _symmetry_equiv_pos_as_xyz
  1  'x, y, z'
loop_
 _atom_site_type_symbol
 _atom_site_label
 _atom_site_symmetry_multiplicity
 _atom_site_fract_x
 _atom_site_fract_y
 _atom_site_fract_z
 _atom_site_occupancy
  Y  Y0  1  0.47918447  0.00173917  1.00000000  1
  Y  Y1  1  0.00173917  0.47918447  1.00000000  1
  Y  Y2  1  0.00173917  0.00173917  0.52255470  1
  Y  Y3  1  0.47918447  0.47918447  0.47744530  1
  Bi  Bi0  1  0.98861067  0.30212402  0.31351434  1
  Bi  Bi1  1  0.67509533  0.98861067  0.68648566  1
  Bi  Bi2  1  0.69642977  0.69642977  1.00000000  1
  Bi  Bi3  1  0.98861067  0.67509533  0.68648566  1
  Bi  Bi4  1  0.30212402  0.98861067  0.31351434  1
  Sb  Sb0  1  0.34262613  0.34262613  0.00000000  1
  Rh  Rh0  1  0.05921372  0.05921372  0.00000000  1
  Rh  Rh1  1  0.50061129  0.74927758  0.24866629  1
  Rh  Rh2  1  0.74927758  0.50061129  0.24866629  1
  Rh  Rh3  1  0.24149662  0.74149662  0.50000000  1
  Rh  Rh4  1  0.25194600  0.50061129  0.75133371  1
  Rh  Rh5  1  0.50061129  0.25194600  0.75133371  1
  Rh  Rh6  1  0.74149662  0.24149662  0.50000000  1
loop_
_geom_bond_atom_site_label_1
_geom_bond_atom_site_label_2
_geom_bond_distance
_geom_bond_site_symmetry_2
Bi0 Rh4 2.766078 1_655
Bi0 Rh2 2.766085 1_555
Bi0 Rh6 2.789057 1_555
Bi0 Rh3 2.831664 1_655
Bi0 Rh0 2.842492 1_655
Bi0 Y3 3.184906 1_655
Bi0 Y1 3.184912 1_654
Bi0 Y2 3.262838 1_655
Bi0 Y0 3.262844 1_554
Bi1 Rh5 2.766079 1_565
Bi1 Rh1 2.766079 1_555
Bi1 Rh3 2.789052 1_555
Bi1 Rh6 2.831659 1_565
Bi1 Rh0 2.842500 1_666
Bi1 Y1 3.184908 1_665
Bi1 Y2 3.184913 1_665
Bi1 Y0 3.262839 1_565
Bi1 Y3 3.262845 1_555
Bi2 Rh4 2.829158 1_555
Bi2 Rh5 2.829159 1_555
Bi2 Rh1 2.829165 1_556
Bi2 Rh2 2.829165 1_556
Bi2 Y2 3.287798 1_666
Bi2 Y3 3.287798 1_555
Bi2 Y1 3.287798 1_655
Bi2 Y0 3.287799 1_565
Bi2 Rh0 3.304469 1_666
Bi3 Rh4 2.766079 1_655
Bi3 Rh2 2.766079 1_555
Bi3 Rh6 2.789052 1_555
Bi3 Rh3 2.831659 1_655
Bi3 Rh0 2.842500 1_666
Bi3 Y0 3.184907 1_665
Bi3 Y2 3.184914 1_665
Bi3 Y1 3.262839 1_655
Bi3 Y3 3.262845 1_555
Bi4 Rh5 2.766078 1_565
Bi4 Rh1 2.766085 1_555
Bi4 Rh3 2.789058 1_555
Bi4 Rh6 2.831664 1_565
Bi4 Rh0 2.842492 1_565
Bi4 Y3 3.184906 1_565
Bi4 Y0 3.184911 1_564
Bi4 Y2 3.262838 1_565
Bi4 Y1 3.262844 1_554
Sb0 Y2 3.123393 1_554
Sb0 Y3 3.123393 1_555
Sb0 Y1 3.123393 1_554
Sb0 Y0 3.123394 1_554
Rh0 Sb0 2.581502 1_555
Rh0 Y3 3.408102 1_555
Rh0 Y2 3.408102 1_554
Rh0 Y0 3.408102 1_554
Rh0 Y1 3.408102 1_554
Rh1 Sb0 2.625568 1_555
Rh1 Y1 3.172942 1_554
Rh1 Y3 3.172942 1_555
Rh1 Y2 3.179583 1_665
Rh1 Y0 3.179584 1_564
Rh2 Sb0 2.625568 1_555
Rh2 Y3 3.172942 1_555
Rh2 Y0 3.172942 1_554
Rh2 Y1 3.179584 1_654
Rh2 Y2 3.179584 1_665
Rh3 Y1 3.125583 1_554
Rh3 Y0 3.125583 1_565
Rh3 Y2 3.125584 1_565
Rh3 Y3 3.125584 1_555
Rh4 Sb0 2.625567 1_556
Rh4 Y2 3.172942 1_555
Rh4 Y1 3.172948 1_555
Rh4 Y3 3.179577 1_555
Rh4 Y0 3.179584 1_565
Rh5 Sb0 2.625567 1_556
Rh5 Y2 3.172942 1_555
Rh5 Y0 3.172948 1_555
Rh5 Y3 3.179578 1_555
Rh5 Y1 3.179584 1_655
Rh6 Y0 3.125583 1_554
Rh6 Y1 3.125583 1_655
Rh6 Y3 3.125584 1_555
Rh6 Y2 3.125584 1_655
