# generated using pymatgen
data_Al2Cu(Ni10B3)2
_symmetry_space_group_name_H-M   'P 1'
_cell_length_a   7.33218105
_cell_length_b   7.33218115
_cell_length_c   7.33218122
_cell_angle_alpha   59.99999967
_cell_angle_beta   59.99999921
_cell_angle_gamma   60.00000246
_symmetry_Int_Tables_number   1
_chemical_formula_structural   Al2Cu(Ni10B3)2
_chemical_formula_sum   'Al2 Cu1 Ni20 B6'
_cell_volume   278.73054449
_cell_formula_units_Z   1
loop_
 _symmetry_equiv_pos_site_id
 _symmetry_equiv_pos_as_xyz
  1  'x, y, z'
loop_
 _atom_site_type_symbol
 _atom_site_label
 _atom_site_symmetry_multiplicity
 _atom_site_fract_x
 _atom_site_fract_y
 _atom_site_fract_z
 _atom_site_occupancy
  Al  Al0  1  0.25000000  0.25000000  0.25000000  1
  Al  Al1  1  0.75000000  0.75000000  0.75000000  1
  Cu  Cu0  1  0.00000000  0.00000000  0.00000000  1
  Ni  Ni0  1  0.38244208  0.38244208  0.38244208  1
  Ni  Ni1  1  0.61755792  0.61755792  0.61755792  1
  Ni  Ni2  1  0.38244208  0.38244208  0.85267376  1
  Ni  Ni3  1  0.38244208  0.85267376  0.38244208  1
  Ni  Ni4  1  0.61755792  0.61755792  0.14732624  1
  Ni  Ni5  1  0.61755792  0.14732624  0.61755792  1
  Ni  Ni6  1  0.85267376  0.38244208  0.38244208  1
  Ni  Ni7  1  0.14732624  0.61755792  0.61755792  1
  Ni  Ni8  1  0.33848651  1.00000000  0.00000000  1
  Ni  Ni9  1  0.66151349  0.00000000  1.00000000  1
  Ni  Ni10  1  1.00000000  0.33848651  0.66151349  1
  Ni  Ni11  1  0.00000000  0.66151349  0.33848651  1
  Ni  Ni12  1  1.00000000  0.33848651  0.00000000  1
  Ni  Ni13  1  0.66151349  0.00000000  0.33848651  1
  Ni  Ni14  1  0.00000000  0.66151349  1.00000000  1
  Ni  Ni15  1  0.33848651  1.00000000  0.66151349  1
  Ni  Ni16  1  0.00000000  0.00000000  0.33848651  1
  Ni  Ni17  1  0.00000000  0.00000000  0.66151349  1
  Ni  Ni18  1  0.66151349  0.33848651  1.00000000  1
  Ni  Ni19  1  0.33848651  0.66151349  0.00000000  1
  B  B0  1  0.72671487  0.27328513  0.27328513  1
  B  B1  1  0.27328513  0.72671487  0.72671487  1
  B  B2  1  0.27328513  0.72671487  0.27328513  1
  B  B3  1  0.72671487  0.27328513  0.72671487  1
  B  B4  1  0.27328513  0.27328513  0.72671487  1
  B  B5  1  0.72671487  0.72671487  0.27328513  1
loop_
_geom_bond_atom_site_label_1
_geom_bond_atom_site_label_2
_geom_bond_distance
_geom_bond_site_symmetry_2
Al0 Ni0 2.378673 1_555
Al0 Ni2 2.378673 1_554
Al0 Ni6 2.378673 1_455
Al0 Ni3 2.378673 1_545
Al1 Ni4 2.378673 1_556
Al1 Ni1 2.378673 1_555
Al1 Ni7 2.378673 1_655
Al1 Ni5 2.378673 1_565
Cu0 Ni8 2.481844 1_545
Cu0 Ni15 2.481844 1_544
Cu0 Ni13 2.481844 1_455
Cu0 Ni9 2.481844 1_454
Cu0 Ni12 2.481844 1_455
Cu0 Ni11 2.481844 1_545
Cu0 Ni14 2.481844 1_544
Cu0 Ni10 2.481844 1_454
Cu0 Ni16 2.481844 1_555
Cu0 Ni17 2.481844 1_554
Cu0 Ni19 2.481844 1_545
Cu0 Ni18 2.481844 1_454
B0 Ni12 2.060016 1_555
B0 Ni13 2.060016 1_555
B0 Ni18 2.060017 1_554
B0 Ni16 2.060017 1_655
B0 Ni6 2.062285 1_555
B0 Ni5 2.062285 1_555
B0 Ni0 2.062285 1_555
B0 Ni4 2.062285 1_555
B1 Ni14 2.060016 1_555
B1 Ni15 2.060016 1_555
B1 Ni19 2.060017 1_556
B1 Ni17 2.060017 1_565
B1 Ni7 2.062285 1_555
B1 Ni3 2.062285 1_555
B1 Ni1 2.062285 1_555
B1 Ni2 2.062285 1_555
B2 Ni11 2.060016 1_555
B2 Ni8 2.060016 1_555
B2 Ni19 2.060017 1_555
B2 Ni16 2.060017 1_565
B2 Ni7 2.062285 1_555
B2 Ni3 2.062285 1_555
B2 Ni4 2.062285 1_555
B2 Ni0 2.062285 1_555
B3 Ni10 2.060016 1_555
B3 Ni9 2.060016 1_555
B3 Ni18 2.060017 1_555
B3 Ni17 2.060017 1_655
B3 Ni6 2.062285 1_555
B3 Ni5 2.062285 1_555
B3 Ni2 2.062285 1_555
B3 Ni1 2.062285 1_555
B4 Ni10 2.060016 1_455
B4 Ni12 2.060016 1_456
B4 Ni15 2.060017 1_545
B4 Ni8 2.060017 1_546
B4 Ni0 2.062285 1_555
B4 Ni2 2.062285 1_555
B4 Ni5 2.062285 1_555
B4 Ni7 2.062285 1_555
B5 Ni14 2.060016 1_654
B5 Ni11 2.060016 1_655
B5 Ni13 2.060017 1_565
B5 Ni9 2.060017 1_564
B5 Ni1 2.062285 1_555
B5 Ni4 2.062285 1_555
B5 Ni3 2.062285 1_555
B5 Ni6 2.062285 1_555
