# generated using pymatgen
data_Rb2Hf(CuTe2)2
_symmetry_space_group_name_H-M   'P 1'
_cell_length_a   8.09783737
_cell_length_b   8.09783753
_cell_length_c   6.19630486
_cell_angle_alpha   90.00000000
_cell_angle_beta   90.00000000
_cell_angle_gamma   134.92246980
_symmetry_Int_Tables_number   1
_chemical_formula_structural   Rb2Hf(CuTe2)2
_chemical_formula_sum   'Rb2 Hf1 Cu2 Te4'
_cell_volume   287.70192203
_cell_formula_units_Z   1
loop_
 _symmetry_equiv_pos_site_id
 _symmetry_equiv_pos_as_xyz
  1  'x, y, z'
loop_
 _atom_site_type_symbol
 _atom_site_label
 _atom_site_symmetry_multiplicity
 _atom_site_fract_x
 _atom_site_fract_y
 _atom_site_fract_z
 _atom_site_occupancy
  Rb  Rb0  1  0.50000000  0.00000000  0.24793453  1
  Rb  Rb1  1  0.00000000  0.50000000  0.75206547  1
  Hf  Hf0  1  0.00000000  0.00000000  0.00000000  1
  Cu  Cu0  1  0.00000000  0.00000000  0.50000000  1
  Cu  Cu1  1  0.50000000  0.50000000  0.00000000  1
  Te  Te0  1  0.84460018  0.64246941  0.25598605  1
  Te  Te1  1  0.15539982  0.35753059  0.25598605  1
  Te  Te2  1  0.64246941  0.84460018  0.74401395  1
  Te  Te3  1  0.35753059  0.15539982  0.74401395  1
loop_
_geom_bond_atom_site_label_1
_geom_bond_atom_site_label_2
_geom_bond_distance
_geom_bond_site_symmetry_2
Rb0 Te0 3.788527 1_555
Rb0 Te1 3.788527 1_545
Rb0 Te3 3.796523 1_555
Rb0 Te2 3.796523 1_545
Rb0 Te3 3.835967 1_554
Rb0 Te2 3.835967 1_544
Rb0 Te0 3.853732 1_445
Rb0 Te1 3.853732 1_655
Rb1 Te3 3.788527 1_455
Rb1 Te2 3.788527 1_555
Rb1 Te0 3.796523 1_455
Rb1 Te1 3.796523 1_555
Rb1 Te0 3.835967 1_456
Rb1 Te1 3.835967 1_556
Rb1 Te2 3.853732 1_445
Rb1 Te3 3.853732 1_565
Hf0 Te2 2.708564 1_444
Hf0 Te3 2.708564 1_554
Hf0 Te1 2.708564 1_555
Hf0 Te0 2.708564 1_445
Cu0 Te2 2.665800 1_445
Cu0 Te3 2.665800 1_555
Cu0 Te1 2.665800 1_555
Cu0 Te0 2.665800 1_445
Cu0 Hf0 3.098152 1_556
Cu0 Hf0 3.098152 1_555
Cu1 Te1 2.662172 1_555
Cu1 Te0 2.662172 1_555
Cu1 Te3 2.662172 1_554
Cu1 Te2 2.662172 1_554
Cu1 Hf0 3.103969 1_665
Cu1 Hf0 3.103969 1_555
