# generated using pymatgen
data_Y2Si14Ir5Os
_symmetry_space_group_name_H-M   'P 1'
_cell_length_a   7.99216473
_cell_length_b   7.99216573
_cell_length_c   8.01399189
_cell_angle_alpha   56.71534801
_cell_angle_beta   56.71534458
_cell_angle_gamma   56.75214852
_symmetry_Int_Tables_number   1
_chemical_formula_structural   Y2Si14Ir5Os
_chemical_formula_sum   'Y2 Si14 Ir5 Os1'
_cell_volume   334.61399412
_cell_formula_units_Z   1
loop_
 _symmetry_equiv_pos_site_id
 _symmetry_equiv_pos_as_xyz
  1  'x, y, z'
loop_
 _atom_site_type_symbol
 _atom_site_label
 _atom_site_symmetry_multiplicity
 _atom_site_fract_x
 _atom_site_fract_y
 _atom_site_fract_z
 _atom_site_occupancy
  Y  Y0  1  0.00087903  0.00196406  0.99765982  1
  Y  Y1  1  0.49803594  0.49912097  0.50234018  1
  Si  Si0  1  0.75264621  0.74735379  0.75000000  1
  Si  Si1  1  0.24943027  0.25056973  0.25000000  1
  Si  Si2  1  0.84983890  0.06248521  0.67378792  1
  Si  Si3  1  0.67335713  0.85105731  0.06242128  1
  Si  Si4  1  0.06329602  0.67108482  0.85009454  1
  Si  Si5  1  0.64894269  0.82664287  0.43757872  1
  Si  Si6  1  0.43751479  0.65016110  0.82621208  1
  Si  Si7  1  0.82891518  0.43670398  0.64990546  1
  Si  Si8  1  0.17180739  0.56318915  0.35399659  1
  Si  Si9  1  0.56249482  0.35073082  0.17363272  1
  Si  Si10  1  0.34939109  0.17502305  0.56252215  1
  Si  Si11  1  0.93681085  0.32819261  0.14600341  1
  Si  Si12  1  0.32497695  0.15060891  0.93747785  1
  Si  Si13  1  0.14926918  0.93750518  0.32636728  1
  Ir  Ir0  1  0.25045146  0.92779292  0.57112093  1
  Ir  Ir1  1  0.57220708  0.24954854  0.92887907  1
  Ir  Ir2  1  0.92733074  0.57266926  0.25000000  1
  Ir  Ir3  1  0.42830089  0.75031761  0.07161205  1
  Ir  Ir4  1  0.74968239  0.07169911  0.42838795  1
  Os  Os0  1  0.07442098  0.42557902  0.75000000  1
loop_
_geom_bond_atom_site_label_1
_geom_bond_atom_site_label_2
_geom_bond_distance
_geom_bond_site_symmetry_2
Si2 Y0 3.138234 1_655
Si2 Y1 3.192137 1_555
Si3 Y0 3.139973 1_664
Si3 Y1 3.212390 1_555
Si4 Y0 3.158943 1_565
Si4 Y1 3.172952 1_555
Si5 Y1 3.139974 1_555
Si5 Y0 3.212390 1_664
Si6 Y1 3.138234 1_555
Si6 Y0 3.192137 1_565
Si7 Y1 3.158943 1_555
Si7 Y0 3.172952 1_655
Si8 Y1 3.121446 1_555
Si8 Y0 3.218048 1_564
Si9 Y1 3.143370 1_555
Si9 Y0 3.196331 1_654
Si10 Y1 3.118885 1_555
Si10 Y0 3.178224 1_555
Si11 Y0 3.121446 1_654
Si11 Y1 3.218048 1_555
Si12 Y0 3.118885 1_555
Si12 Y1 3.178224 1_555
Si13 Y0 3.143370 1_564
Si13 Y1 3.196331 1_555
Ir0 Si1 2.447625 1_565
Ir0 Si13 2.451997 1_555
Ir0 Si10 2.457275 1_565
Ir0 Si6 2.464965 1_555
Ir0 Si4 2.470824 1_555
Ir0 Si5 2.515408 1_555
Ir0 Si2 2.527536 1_465
Ir0 Y1 3.065762 1_555
Ir0 Y0 3.075467 1_565
Ir1 Si1 2.447625 1_556
Ir1 Si9 2.451997 1_556
Ir1 Si12 2.457275 1_555
Ir1 Si2 2.464965 1_555
Ir1 Si7 2.470824 1_555
Ir1 Si3 2.515408 1_546
Ir1 Si6 2.527537 1_555
Ir1 Y0 3.065762 1_655
Ir1 Y1 3.075467 1_555
Ir2 Si1 2.446881 1_655
Ir2 Si3 2.460921 1_555
Ir2 Si5 2.460921 1_555
Ir2 Si8 2.464505 1_655
Ir2 Si11 2.464505 1_555
Ir2 Si4 2.533465 1_654
Ir2 Si7 2.533465 1_555
Ir2 Y1 3.081878 1_555
Ir2 Y0 3.081878 1_664
Ir3 Si3 2.448499 1_555
Ir3 Si6 2.453180 1_554
Ir3 Si0 2.455519 1_554
Ir3 Si13 2.465020 1_555
Ir3 Si8 2.472919 1_555
Ir3 Si9 2.521596 1_555
Ir3 Si12 2.524904 1_564
Ir3 Y0 3.073397 1_564
Ir3 Y1 3.087842 1_555
Ir4 Si5 2.448499 1_545
Ir4 Si2 2.453180 1_555
Ir4 Si0 2.455519 1_545
Ir4 Si9 2.465020 1_555
Ir4 Si11 2.472920 1_555
Ir4 Si13 2.521596 1_645
Ir4 Si10 2.524904 1_555
Ir4 Y1 3.073397 1_555
Ir4 Y0 3.087841 1_654
Os0 Si12 2.439170 1_555
Os0 Si10 2.439170 1_555
Os0 Si7 2.441158 1_455
Os0 Si4 2.441158 1_555
Os0 Si0 2.444414 1_455
Os0 Si11 2.506677 1_456
Os0 Si8 2.506677 1_555
Os0 Y1 3.045190 1_555
Os0 Y0 3.045191 1_555
