# generated using pymatgen
data_AlV3ReS8
_symmetry_space_group_name_H-M   'P 1'
_cell_length_a   6.89254978
_cell_length_b   6.89254961
_cell_length_c   6.80191395
_cell_angle_alpha   59.55822725
_cell_angle_beta   59.55823384
_cell_angle_gamma   60.00000350
_symmetry_Int_Tables_number   1
_chemical_formula_structural   AlV3ReS8
_chemical_formula_sum   'Al1 V3 Re1 S8'
_cell_volume   226.95696766
_cell_formula_units_Z   1
loop_
 _symmetry_equiv_pos_site_id
 _symmetry_equiv_pos_as_xyz
  1  'x, y, z'
loop_
 _atom_site_type_symbol
 _atom_site_label
 _atom_site_symmetry_multiplicity
 _atom_site_fract_x
 _atom_site_fract_y
 _atom_site_fract_z
 _atom_site_occupancy
  Al  Al0  1  0.00137151  0.00137151  0.99588446  1
  V  V0  1  0.60915968  0.18462388  0.59705576  1
  V  V1  1  0.18462388  0.60915968  0.59705576  1
  V  V2  1  0.60915968  0.60915968  0.59705576  1
  Re  Re0  1  0.60101355  0.60101355  0.19695935  1
  S  S0  1  0.37353788  0.37353788  0.87938637  1
  S  S1  1  0.36622723  0.89236343  0.37518412  1
  S  S2  1  0.89236343  0.36622723  0.37518412  1
  S  S3  1  0.36622723  0.36622723  0.37518412  1
  S  S4  1  0.86613752  0.86613752  0.40158543  1
  S  S5  1  0.86217868  0.40582006  0.86982159  1
  S  S6  1  0.40582006  0.86217868  0.86982159  1
  S  S7  1  0.86217868  0.86217868  0.86982159  1
loop_
_geom_bond_atom_site_label_1
_geom_bond_atom_site_label_2
_geom_bond_distance
_geom_bond_site_symmetry_2
Al0 S4 2.237995 1_446
Al0 S7 2.272396 1_445
Al0 S5 2.272396 1_455
Al0 S6 2.272396 1_545
Re0 S3 2.313049 1_555
Re0 S2 2.313060 1_555
Re0 S1 2.313060 1_555
Re0 S7 2.560198 1_554
Re0 S6 2.560202 1_554
Re0 S5 2.560202 1_554
S0 V2 2.297758 1_555
S0 V1 2.297762 1_555
S0 V0 2.297762 1_555
S1 V2 2.280038 1_555
S1 V1 2.280052 1_555
S2 V2 2.280038 1_555
S2 V0 2.280052 1_555
S3 V0 2.280035 1_555
S3 V1 2.280035 1_555
S4 V2 2.531172 1_555
S4 V1 2.531178 1_655
S4 V0 2.531178 1_565
S5 V2 2.578265 1_555
S5 V1 2.578265 1_655
S6 V2 2.578265 1_555
S6 V0 2.578265 1_565
S7 V0 2.578265 1_565
S7 V1 2.578265 1_655
