# generated using pymatgen
data_La3GaBr3
_symmetry_space_group_name_H-M   'P 1'
_cell_length_a   6.13658839
_cell_length_b   6.13657896
_cell_length_c   6.13658001
_cell_angle_alpha   90.00000000
_cell_angle_beta   90.00000000
_cell_angle_gamma   90.00000000
_symmetry_Int_Tables_number   1
_chemical_formula_structural   La3GaBr3
_chemical_formula_sum   'La3 Ga1 Br3'
_cell_volume   231.08923867
_cell_formula_units_Z   1
loop_
 _symmetry_equiv_pos_site_id
 _symmetry_equiv_pos_as_xyz
  1  'x, y, z'
loop_
 _atom_site_type_symbol
 _atom_site_label
 _atom_site_symmetry_multiplicity
 _atom_site_fract_x
 _atom_site_fract_y
 _atom_site_fract_z
 _atom_site_occupancy
  La  La0  1  -0.00000000  0.50000000  0.50000000  1
  La  La1  1  0.50000000  -0.00000000  0.50000000  1
  La  La2  1  0.50000000  0.50000000  0.00000000  1
  Ga  Ga0  1  0.50000000  0.50000000  0.50000000  1
  Br  Br0  1  0.00000000  -0.00000000  0.50000000  1
  Br  Br1  1  0.50000000  -0.00000000  -0.00000000  1
  Br  Br2  1  0.00000000  0.50000000  -0.00000000  1
loop_
_geom_bond_atom_site_label_1
_geom_bond_atom_site_label_2
_geom_bond_distance
_geom_bond_site_symmetry_2
Ga0 La1 3.068289 1_565
Ga0 La1 3.068289 1_555
Ga0 La2 3.068290 1_555
Ga0 La2 3.068290 1_556
Ga0 La0 3.068294 1_655
Ga0 La0 3.068294 1_555
Br0 La0 3.068289 1_545
Br0 La0 3.068289 1_555
Br0 La1 3.068294 1_455
Br0 La1 3.068294 1_555
Br1 La2 3.068289 1_555
Br1 La2 3.068289 1_545
Br1 La1 3.068290 1_555
Br1 La1 3.068290 1_554
Br2 La0 3.068290 1_555
Br2 La0 3.068290 1_554
Br2 La2 3.068294 1_455
Br2 La2 3.068294 1_555
