# generated using pymatgen
data_Rb2Au2IBr5
_symmetry_space_group_name_H-M   'P 1'
_cell_length_a   7.44423148
_cell_length_b   7.57492811
_cell_length_c   8.36742258
_cell_angle_alpha   64.50481035
_cell_angle_beta   64.11146980
_cell_angle_gamma   60.05413889
_symmetry_Int_Tables_number   1
_chemical_formula_structural   Rb2Au2IBr5
_chemical_formula_sum   'Rb2 Au2 I1 Br5'
_cell_volume   353.88705660
_cell_formula_units_Z   1
loop_
 _symmetry_equiv_pos_site_id
 _symmetry_equiv_pos_as_xyz
  1  'x, y, z'
loop_
 _atom_site_type_symbol
 _atom_site_label
 _atom_site_symmetry_multiplicity
 _atom_site_fract_x
 _atom_site_fract_y
 _atom_site_fract_z
 _atom_site_occupancy
  Rb  Rb0  1  0.74489753  0.72942361  0.75677626  1
  Rb  Rb1  1  0.27204665  0.27648861  0.22997977  1
  Au  Au0  1  0.99432417  0.00476029  0.99709602  1
  Au  Au1  1  0.49969723  0.49728995  0.50130344  1
  I  I0  1  0.26108793  0.79407497  0.20916070  1
  Br  Br0  1  0.19866667  0.72854804  0.82982620  1
  Br  Br1  1  0.72538890  0.20027811  0.80943642  1
  Br  Br2  1  0.79918072  0.28059127  0.16300480  1
  Br  Br3  1  0.28403969  0.28096756  0.64391370  1
  Br  Br4  1  0.72066952  0.70757859  0.35950270  1
loop_
_geom_bond_atom_site_label_1
_geom_bond_atom_site_label_2
_geom_bond_distance
_geom_bond_site_symmetry_2
Au0 Br2 2.471592 1_556
Au0 Br0 2.476859 1_645
Au0 Br1 2.539702 1_555
Au0 I0 2.667274 1_646
Au1 Br4 2.436332 1_555
Au1 Br3 2.440599 1_555
Au1 I0 3.042809 1_555
Au1 Br1 3.089870 1_555
Au1 Br0 3.239426 1_555
Au1 Br2 3.242405 1_555
I0 Rb1 3.774729 1_565
I0 Rb1 3.809705 1_555
I0 Rb0 3.933150 1_554
Br0 Rb1 3.618636 1_556
Br0 Rb0 3.682588 1_455
Br0 Rb0 3.842033 1_555
Br1 Rb1 3.679464 1_556
Br1 Rb0 3.703571 1_545
Br1 Rb0 3.909740 1_555
Br2 Rb0 3.627040 1_554
Br2 Rb1 3.728278 1_555
Br2 Rb1 3.782160 1_655
Br3 Rb1 3.518463 1_555
Br3 Rb0 3.792105 1_455
Br3 Rb0 3.903779 1_545
Br4 Rb0 3.483791 1_555
Br4 Rb1 3.803431 1_655
Br4 Rb1 3.958621 1_565
