# generated using pymatgen
data_HfTiBe9Tc
_symmetry_space_group_name_H-M   'P 1'
_cell_length_a   7.48009384
_cell_length_b   7.48009343
_cell_length_c   7.48009294
_cell_angle_alpha   34.74773127
_cell_angle_beta   34.74772344
_cell_angle_gamma   34.74772251
_symmetry_Int_Tables_number   1
_chemical_formula_structural   HfTiBe9Tc
_chemical_formula_sum   'Hf1 Ti1 Be9 Tc1'
_cell_volume   121.34530564
_cell_formula_units_Z   1
loop_
 _symmetry_equiv_pos_site_id
 _symmetry_equiv_pos_as_xyz
  1  'x, y, z'
loop_
 _atom_site_type_symbol
 _atom_site_label
 _atom_site_symmetry_multiplicity
 _atom_site_fract_x
 _atom_site_fract_y
 _atom_site_fract_z
 _atom_site_occupancy
  Hf  Hf0  1  0.99614154  0.99614154  0.99614154  1
  Ti  Ti0  1  0.14427046  0.14427046  0.14427046  1
  Be  Be0  1  0.41473518  0.91806188  0.41473518  1
  Be  Be1  1  0.41473518  0.41473518  0.91806188  1
  Be  Be2  1  0.91806188  0.41473518  0.41473518  1
  Be  Be3  1  0.58767208  0.07679476  0.58767208  1
  Be  Be4  1  0.58767208  0.58767208  0.07679476  1
  Be  Be5  1  0.07679476  0.58767208  0.58767208  1
  Be  Be6  1  0.66737947  0.66737947  0.66737947  1
  Be  Be7  1  0.33612084  0.33612084  0.33612084  1
  Be  Be8  1  0.50007233  0.50007233  0.50007233  1
  Tc  Tc0  1  0.85634522  0.85634522  0.85634522  1
loop_
_geom_bond_atom_site_label_1
_geom_bond_atom_site_label_2
_geom_bond_distance
_geom_bond_site_symmetry_2
Hf0 Tc0 2.944692 1_555
Hf0 Ti0 3.120211 1_666
Be0 Be8 2.168088 1_555
Be0 Be6 2.209302 1_555
Be0 Be2 2.218736 1_465
Be0 Be1 2.218736 1_564
Be0 Be7 2.234931 1_565
Be0 Be2 2.248458 1_555
Be0 Be1 2.248458 1_555
Be0 Ti0 2.554221 1_565
Be0 Tc0 2.561205 1_554
Be0 Tc0 2.561205 1_455
Be0 Hf0 2.801759 1_455
Be0 Hf0 2.801760 1_554
Be1 Be8 2.168088 1_555
Be1 Be6 2.209302 1_555
Be1 Be2 2.218736 1_456
Be1 Be7 2.234931 1_556
Be1 Be2 2.248458 1_555
Be1 Ti0 2.554221 1_556
Be1 Tc0 2.561205 1_545
Be1 Tc0 2.561205 1_455
Be1 Hf0 2.801759 1_455
Be1 Hf0 2.801759 1_545
Be2 Be8 2.168088 1_555
Be2 Be6 2.209302 1_555
Be2 Be7 2.234931 1_655
Be2 Ti0 2.554220 1_655
Be2 Tc0 2.561205 1_554
Be2 Tc0 2.561206 1_545
Be2 Hf0 2.801759 1_545
Be2 Hf0 2.801760 1_554
Be3 Be7 2.160062 1_555
Be3 Be6 2.161636 1_545
Be3 Be8 2.184073 1_555
Be3 Be5 2.185005 1_645
Be3 Be4 2.185006 1_546
Be3 Be5 2.282188 1_555
Be3 Be4 2.282188 1_555
Be3 Tc0 2.557789 1_545
Be3 Ti0 2.568854 1_556
Be3 Ti0 2.568855 1_655
Be3 Hf0 2.901432 1_544
Be3 Hf0 2.901433 1_445
Be4 Be7 2.160062 1_555
Be4 Be6 2.161636 1_554
Be4 Be8 2.184073 1_555
Be4 Be5 2.185005 1_654
Be4 Be5 2.282188 1_555
Be4 Tc0 2.557789 1_554
Be4 Ti0 2.568854 1_565
Be4 Ti0 2.568855 1_655
Be4 Hf0 2.901432 1_544
Be4 Hf0 2.901433 1_454
Be5 Be7 2.160061 1_555
Be5 Be6 2.161636 1_455
Be5 Be8 2.184073 1_555
Be5 Tc0 2.557788 1_455
Be5 Ti0 2.568855 1_556
Be5 Ti0 2.568855 1_565
Be5 Hf0 2.901433 1_454
Be5 Hf0 2.901433 1_445
Be6 Be7 2.579505 1_655
Be6 Be7 2.579506 1_556
Be6 Be7 2.579506 1_565
Be6 Hf0 2.580932 1_455
Be6 Hf0 2.580932 1_554
Be6 Hf0 2.580932 1_545
Be7 Hf0 2.582931 1_544
Be7 Hf0 2.582932 1_454
Be7 Hf0 2.582932 1_445
Be8 Ti0 2.622200 1_655
Be8 Ti0 2.622200 1_565
Be8 Ti0 2.622200 1_556
Be8 Tc0 2.624009 1_455
Be8 Tc0 2.624009 1_545
Be8 Tc0 2.624009 1_554
Tc0 Ti0 2.750781 1_566
Tc0 Ti0 2.750782 1_665
Tc0 Ti0 2.750782 1_656
