# generated using pymatgen
data_SrPtBr6
_symmetry_space_group_name_H-M   'P 1'
_cell_length_a   6.87219944
_cell_length_b   6.87219932
_cell_length_c   10.97162031
_cell_angle_alpha   89.39994927
_cell_angle_beta   89.39994665
_cell_angle_gamma   72.92073730
_symmetry_Int_Tables_number   1
_chemical_formula_structural   SrPtBr6
_chemical_formula_sum   'Sr2 Pt2 Br12'
_cell_volume   495.26498902
_cell_formula_units_Z   2
loop_
 _symmetry_equiv_pos_site_id
 _symmetry_equiv_pos_as_xyz
  1  'x, y, z'
loop_
 _atom_site_type_symbol
 _atom_site_label
 _atom_site_symmetry_multiplicity
 _atom_site_fract_x
 _atom_site_fract_y
 _atom_site_fract_z
 _atom_site_occupancy
  Sr  Sr0  1  0.01510972  0.98489028  0.75000000  1
  Sr  Sr1  1  0.98489028  0.01510972  0.25000000  1
  Pt  Pt0  1  0.50000000  0.00000000  0.50000000  1
  Pt  Pt1  1  0.00000000  0.50000000  0.00000000  1
  Br  Br0  1  0.39666086  0.72429746  0.60600195  1
  Br  Br1  1  0.60333914  0.27570254  0.39399805  1
  Br  Br2  1  0.27570254  0.60333914  0.89399805  1
  Br  Br3  1  0.72429746  0.39666086  0.10600195  1
  Br  Br4  1  0.53974484  0.14730522  0.70069865  1
  Br  Br5  1  0.46025516  0.85269478  0.29930135  1
  Br  Br6  1  0.85269478  0.46025516  0.79930135  1
  Br  Br7  1  0.14730522  0.53974484  0.20069865  1
  Br  Br8  1  0.79077718  0.86431881  0.00264841  1
  Br  Br9  1  0.20922282  0.13568119  0.99735159  1
  Br  Br10  1  0.13568119  0.20922282  0.49735159  1
  Br  Br11  1  0.86431881  0.79077718  0.50264841  1
loop_
_geom_bond_atom_site_label_1
_geom_bond_atom_site_label_2
_geom_bond_distance
_geom_bond_site_symmetry_2
Br0 Pt0 2.484686 1_565
Br0 Sr0 3.129349 1_555
Br1 Pt0 2.484686 1_555
Br1 Sr1 3.129349 1_555
Br2 Pt1 2.484686 1_556
Br2 Sr0 3.129349 1_555
Br3 Pt1 2.484686 1_655
Br3 Sr1 3.129349 1_555
Br4 Pt0 2.483914 1_555
Br4 Sr0 3.176945 1_645
Br5 Pt0 2.483914 1_565
Br5 Sr1 3.176945 1_465
Br6 Pt1 2.483914 1_656
Br6 Sr0 3.176945 1_645
Br7 Pt1 2.483914 1_555
Br7 Sr1 3.176945 1_465
Br8 Pt1 2.494533 1_655
Br8 Sr1 3.341413 1_565
Br8 Sr0 3.370425 1_654
Br9 Pt1 2.494533 1_556
Br9 Sr0 3.341413 1_545
Br9 Sr1 3.370425 1_456
Br10 Pt0 2.494533 1_555
Br10 Sr1 3.341413 1_455
Br10 Sr0 3.370425 1_545
Br11 Pt0 2.494533 1_565
Br11 Sr0 3.341413 1_655
Br11 Sr1 3.370425 1_565
