# generated using pymatgen
data_Ca(Ce2Se3)4
_symmetry_space_group_name_H-M   'P 1'
_cell_length_a   8.93879562
_cell_length_b   8.93879562
_cell_length_c   14.79430502
_cell_angle_alpha   72.41903143
_cell_angle_beta   72.41903143
_cell_angle_gamma   90.00021756
_symmetry_Int_Tables_number   1
_chemical_formula_structural   Ca(Ce2Se3)4
_chemical_formula_sum   'Ca2 Ce16 Se24'
_cell_volume   1068.81767213
_cell_formula_units_Z   2
loop_
 _symmetry_equiv_pos_site_id
 _symmetry_equiv_pos_as_xyz
  1  'x, y, z'
loop_
 _atom_site_type_symbol
 _atom_site_label
 _atom_site_symmetry_multiplicity
 _atom_site_fract_x
 _atom_site_fract_y
 _atom_site_fract_z
 _atom_site_occupancy
  Ca  Ca0  1  0.41667700  0.54160800  0.16665700  1
  Ca  Ca1  1  0.54160800  0.41667700  0.66665700  1
  Ce  Ce0  1  0.87489200  0.74983600  0.00046600  1
  Ce  Ce1  1  0.20881500  0.95679800  0.08326800  1
  Ce  Ce2  1  0.95889900  0.58409400  0.33267900  1
  Ce  Ce3  1  0.62491600  0.87302400  0.25009200  1
  Ce  Ce4  1  0.91667100  0.29112800  0.16673200  1
  Ce  Ce5  1  0.20860100  0.08507000  0.33315700  1
  Ce  Ce6  1  0.54120000  0.29182200  0.41663700  1
  Ce  Ce7  1  0.74983600  0.87489200  0.50046600  1
  Ce  Ce8  1  0.29112800  0.91667100  0.66673200  1
  Ce  Ce9  1  0.95679800  0.20881500  0.58326800  1
  Ce  Ce10  1  0.25127700  0.62470600  0.50023300  1
  Ce  Ce11  1  0.87302400  0.62491600  0.75009200  1
  Ce  Ce12  1  0.08507000  0.20860100  0.83315700  1
  Ce  Ce13  1  0.62470600  0.25127700  0.00023300  1
  Ce  Ce14  1  0.29182200  0.54120000  0.91663700  1
  Ce  Ce15  1  0.58409400  0.95889900  0.83267900  1
  Se  Se0  1  0.26531800  0.26410400  0.11631400  1
  Se  Se1  1  0.55125800  0.90320000  0.04905400  1
  Se  Se2  1  0.28192800  0.78580300  0.28450600  1
  Se  Se3  1  0.90036300  0.05015100  0.05004800  1
  Se  Se4  1  0.93326700  0.93388300  0.28309800  1
  Se  Se5  1  0.11747500  0.61488300  0.11665600  1
  Se  Se6  1  0.56806900  0.21340200  0.21732700  1
  Se  Se7  1  0.71624700  0.56501800  0.21636300  1
  Se  Se8  1  0.60123100  0.59955700  0.45021900  1
  Se  Se9  1  0.88374300  0.23313900  0.38351100  1
  Se  Se10  1  0.23389900  0.38513700  0.38270600  1
  Se  Se11  1  0.61488300  0.11747500  0.61665600  1
  Se  Se12  1  0.26410400  0.26531800  0.61631400  1
  Se  Se13  1  0.44959500  0.94929700  0.45027400  1
  Se  Se14  1  0.90320000  0.55125800  0.54905400  1
  Se  Se15  1  0.05015100  0.90036300  0.55004800  1
  Se  Se16  1  0.93388300  0.93326700  0.78309800  1
  Se  Se17  1  0.21340200  0.56806900  0.71732700  1
  Se  Se18  1  0.56501800  0.71624700  0.71636300  1
  Se  Se19  1  0.94929700  0.44959500  0.95027400  1
  Se  Se20  1  0.59955700  0.60123100  0.95021900  1
  Se  Se21  1  0.23313900  0.88374300  0.88351100  1
  Se  Se22  1  0.78580300  0.28192800  0.78450600  1
  Se  Se23  1  0.38513700  0.23389900  0.88270600  1
loop_
_geom_bond_atom_site_label_1
_geom_bond_atom_site_label_2
_geom_bond_distance
_geom_bond_site_symmetry_2
Ca0 Se10 2.997745 1_555
Ca0 Se20 3.002727 1_554
Ca0 Se5 3.005275 1_555
Ca0 Se7 3.006273 1_555
Ca0 Se1 3.203079 1_555
Ca0 Se0 3.203618 1_555
Ca0 Se6 3.206951 1_555
Ca0 Se2 3.207128 1_555
Ca1 Se23 2.997745 1_555
Ca1 Se8 3.002727 1_555
Ca1 Se11 3.005275 1_555
Ca1 Se18 3.006273 1_555
Ca1 Se14 3.203079 1_555
Ca1 Se12 3.203618 1_555
Ca1 Se17 3.206951 1_555
Ca1 Se22 3.207128 1_555
Ce0 Se7 3.003031 1_555
Ce0 Se3 3.014408 1_565
Ce0 Se16 3.016322 1_554
Ce0 Se19 3.016960 1_554
Ce0 Se20 3.174301 1_554
Ce0 Se21 3.175347 1_654
Ce0 Se1 3.178681 1_555
Ce0 Se5 3.179784 1_655
Ce1 Se0 3.000045 1_565
Ce1 Se1 3.011004 1_555
Ce1 Se5 3.015954 1_555
Ce1 Se3 3.018416 1_465
Ce1 Se21 3.159902 1_554
Ce1 Se2 3.170704 1_555
Ce1 Se4 3.175516 1_455
Ce1 Se23 3.187229 1_564
Ce2 Se5 3.005128 1_655
Ce2 Se14 3.008451 1_555
Ce2 Se4 3.013764 1_555
Ce2 Se9 3.021247 1_555
Ce2 Se8 3.170360 1_555
Ce2 Se10 3.171300 1_655
Ce2 Se2 3.174424 1_655
Ce2 Se7 3.182292 1_555
Ce3 Se6 3.001376 1_565
Ce3 Se7 3.013217 1_555
Ce3 Se2 3.013971 1_555
Ce3 Se4 3.017453 1_555
Ce3 Se8 3.167864 1_555
Ce3 Se1 3.170267 1_555
Ce3 Se3 3.177271 1_565
Ce3 Se13 3.179248 1_555
Ce4 Se6 3.004951 1_555
Ce4 Se0 3.005287 1_655
Ce4 Se19 3.007001 1_554
Ce4 Se9 3.011022 1_555
Ce4 Se4 3.164867 1_545
Ce4 Se7 3.167652 1_555
Ce4 Se3 3.168513 1_555
Ce4 Se5 3.169739 1_655
Ce5 Se2 2.996987 1_545
Ce5 Se0 3.004275 1_555
Ce5 Se10 3.011779 1_555
Ce5 Se15 3.013663 1_545
Ce5 Se9 3.166686 1_455
Ce5 Se6 3.172261 1_555
Ce5 Se13 3.178071 1_545
Ce5 Se4 3.183994 1_445
Ce6 Se10 3.012190 1_555
Ce6 Se8 3.014666 1_555
Ce6 Se13 3.020909 1_545
Ce6 Se9 3.023161 1_555
Ce6 Se11 3.163947 1_555
Ce6 Se7 3.165276 1_555
Ce6 Se6 3.172451 1_555
Ce6 Se12 3.174076 1_555
Ce7 Se18 3.003031 1_555
Ce7 Se15 3.014408 1_655
Ce7 Se4 3.016322 1_555
Ce7 Se13 3.016960 1_555
Ce7 Se8 3.174301 1_555
Ce7 Se9 3.175347 1_565
Ce7 Se14 3.178681 1_555
Ce7 Se11 3.179784 1_565
Ce8 Se17 3.004951 1_555
Ce8 Se12 3.005287 1_565
Ce8 Se13 3.007001 1_555
Ce8 Se21 3.011022 1_555
Ce8 Se16 3.164867 1_455
Ce8 Se18 3.167652 1_555
Ce8 Se15 3.168513 1_555
Ce8 Se11 3.169739 1_565
Ce9 Se12 3.000045 1_655
Ce9 Se14 3.011004 1_555
Ce9 Se11 3.015954 1_555
Ce9 Se15 3.018416 1_645
Ce9 Se9 3.159902 1_555
Ce9 Se22 3.170704 1_555
Ce9 Se16 3.175516 1_545
Ce9 Se10 3.187229 1_655
Ce10 Se14 2.998231 1_455
Ce10 Se2 3.004987 1_555
Ce10 Se17 3.007845 1_555
Ce10 Se8 3.014245 1_555
Ce10 Se13 3.165470 1_555
Ce10 Se10 3.169489 1_555
Ce10 Se12 3.173115 1_555
Ce10 Se15 3.184879 1_555
Ce11 Se17 3.001376 1_655
Ce11 Se18 3.013217 1_555
Ce11 Se22 3.013971 1_555
Ce11 Se16 3.017453 1_555
Ce11 Se20 3.167864 1_555
Ce11 Se14 3.170267 1_555
Ce11 Se15 3.177271 1_655
Ce11 Se19 3.179248 1_555
Ce12 Se22 2.996987 1_455
Ce12 Se12 3.004275 1_555
Ce12 Se23 3.011779 1_555
Ce12 Se3 3.013663 1_456
Ce12 Se21 3.166686 1_545
Ce12 Se17 3.172261 1_555
Ce12 Se19 3.178071 1_455
Ce12 Se16 3.183994 1_445
Ce13 Se1 2.998231 1_545
Ce13 Se22 3.004987 1_554
Ce13 Se6 3.007845 1_555
Ce13 Se20 3.014245 1_554
Ce13 Se19 3.165470 1_554
Ce13 Se23 3.169489 1_554
Ce13 Se0 3.173115 1_555
Ce13 Se3 3.184879 1_555
Ce14 Se23 3.012190 1_555
Ce14 Se20 3.014666 1_555
Ce14 Se19 3.020909 1_455
Ce14 Se21 3.023161 1_555
Ce14 Se5 3.163947 1_556
Ce14 Se18 3.165276 1_555
Ce14 Se17 3.172451 1_555
Ce14 Se0 3.174076 1_556
Ce15 Se11 3.005128 1_565
Ce15 Se1 3.008451 1_556
Ce15 Se16 3.013764 1_555
Ce15 Se21 3.021247 1_555
Ce15 Se20 3.170360 1_555
Ce15 Se23 3.171300 1_565
Ce15 Se22 3.174424 1_565
Ce15 Se18 3.182292 1_555
