# generated using pymatgen
data_Lu12Co4BiRu
_symmetry_space_group_name_H-M   'P 1'
_cell_length_a   8.07593927
_cell_length_b   8.07594017
_cell_length_c   8.07593994
_cell_angle_alpha   111.40857204
_cell_angle_beta   110.72041908
_cell_angle_gamma   106.33038804
_symmetry_Int_Tables_number   1
_chemical_formula_structural   Lu12Co4BiRu
_chemical_formula_sum   'Lu12 Co4 Bi1 Ru1'
_cell_volume   404.54577716
_cell_formula_units_Z   1
loop_
 _symmetry_equiv_pos_site_id
 _symmetry_equiv_pos_as_xyz
  1  'x, y, z'
loop_
 _atom_site_type_symbol
 _atom_site_label
 _atom_site_symmetry_multiplicity
 _atom_site_fract_x
 _atom_site_fract_y
 _atom_site_fract_z
 _atom_site_occupancy
  Lu  Lu0  1  0.41331933  0.21463513  0.19868220  1
  Lu  Lu1  1  0.58668067  0.78536487  0.80131780  1
  Lu  Lu2  1  0.01595293  0.21463513  0.80131780  1
  Lu  Lu3  1  0.98404707  0.78536487  0.19868220  1
  Lu  Lu4  1  0.18217778  0.28097026  0.46314803  1
  Lu  Lu5  1  0.81782222  0.71902974  0.53685197  1
  Lu  Lu6  1  0.18217778  0.71902974  0.90120752  1
  Lu  Lu7  1  0.81782222  0.28097026  0.09879248  1
  Lu  Lu8  1  0.30962352  0.61752446  0.30789994  1
  Lu  Lu9  1  0.69037648  0.38247554  0.69210006  1
  Lu  Lu10  1  0.30962352  0.00172358  0.69210006  1
  Lu  Lu11  1  0.69037648  0.99827642  0.30789994  1
  Co  Co0  1  0.37765206  1.00000000  0.37765206  1
  Co  Co1  1  0.62234794  0.00000000  0.62234794  1
  Co  Co2  1  0.11071398  0.61071398  0.50000000  1
  Co  Co3  1  0.88928602  0.38928602  0.50000000  1
  Bi  Bi0  1  0.50000000  0.50000000  0.00000000  1
  Ru  Ru0  1  0.00000000  0.00000000  0.00000000  1
loop_
_geom_bond_atom_site_label_1
_geom_bond_atom_site_label_2
_geom_bond_distance
_geom_bond_site_symmetry_2
Lu0 Ru0 2.765315 1_555
Lu1 Ru0 2.765315 1_666
Lu2 Ru0 2.765302 1_556
Lu3 Ru0 2.765302 1_665
Lu4 Ru0 3.055538 1_555
Lu5 Ru0 3.055538 1_666
Lu6 Ru0 3.055538 1_566
Lu7 Ru0 3.055538 1_655
Co0 Co1 2.246547 1_565
Co0 Lu3 2.649416 1_455
Co0 Lu0 2.649418 1_565
Co0 Lu8 2.777876 1_555
Co0 Lu9 2.777880 1_565
Co0 Lu11 2.777884 1_555
Co0 Lu10 2.777884 1_565
Co0 Lu4 3.124031 1_565
Co0 Lu6 3.124031 1_554
Co1 Lu2 2.649416 1_655
Co1 Lu1 2.649418 1_545
Co1 Lu9 2.777876 1_555
Co1 Lu8 2.777880 1_545
Co1 Lu10 2.777884 1_555
Co1 Lu11 2.777884 1_545
Co1 Lu5 3.124031 1_545
Co1 Lu7 3.124031 1_556
Co2 Co3 2.144134 1_455
Co2 Lu10 2.601224 1_565
Co2 Lu8 2.601224 1_555
Co2 Lu5 2.814325 1_455
Co2 Lu7 2.814325 1_455
Co2 Lu6 2.814325 1_555
Co2 Lu4 2.814325 1_555
Co2 Lu1 3.242365 1_555
Co2 Lu3 3.242378 1_455
Co3 Lu11 2.601224 1_545
Co3 Lu9 2.601224 1_555
Co3 Lu4 2.814325 1_655
Co3 Lu6 2.814325 1_655
Co3 Lu7 2.814325 1_555
Co3 Lu5 2.814325 1_555
Co3 Lu0 3.242365 1_555
Co3 Lu2 3.242378 1_655
Bi0 Lu1 3.311020 1_554
Bi0 Lu0 3.311020 1_555
Bi0 Lu3 3.311022 1_555
Bi0 Lu2 3.311022 1_554
Bi0 Lu11 3.354199 1_555
Bi0 Lu10 3.354199 1_554
Bi0 Lu8 3.354200 1_555
Bi0 Lu9 3.354200 1_554
Bi0 Lu7 3.533816 1_555
Bi0 Lu6 3.533816 1_554
Bi0 Lu5 3.533816 1_555
Bi0 Lu4 3.533816 1_554
