# generated using pymatgen
data_K2RbLiPb4
_symmetry_space_group_name_H-M   'P 1'
_cell_length_a   8.76890075
_cell_length_b   8.76890069
_cell_length_c   10.52423466
_cell_angle_alpha   90.00000000
_cell_angle_beta   90.00000000
_cell_angle_gamma   132.33556259
_symmetry_Int_Tables_number   1
_chemical_formula_structural   K2RbLiPb4
_chemical_formula_sum   'K4 Rb2 Li2 Pb8'
_cell_volume   598.20571408
_cell_formula_units_Z   2
loop_
 _symmetry_equiv_pos_site_id
 _symmetry_equiv_pos_as_xyz
  1  'x, y, z'
loop_
 _atom_site_type_symbol
 _atom_site_label
 _atom_site_symmetry_multiplicity
 _atom_site_fract_x
 _atom_site_fract_y
 _atom_site_fract_z
 _atom_site_occupancy
  K  K0  1  0.61282646  0.38717354  0.03958371  1
  K  K1  1  0.38717354  0.61282646  0.96041629  1
  K  K2  1  0.38717354  0.61282646  0.53958371  1
  K  K3  1  0.61282646  0.38717354  0.46041629  1
  Rb  Rb0  1  0.22143602  0.77856398  0.25000000  1
  Rb  Rb1  1  0.77856398  0.22143602  0.75000000  1
  Li  Li0  1  0.00000000  0.00000000  0.00000000  1
  Li  Li1  1  0.00000000  0.00000000  0.50000000  1
  Pb  Pb0  1  0.19100052  0.25765587  0.25000000  1
  Pb  Pb1  1  0.80899948  0.74234413  0.75000000  1
  Pb  Pb2  1  0.74234413  0.80899948  0.25000000  1
  Pb  Pb3  1  0.25765587  0.19100052  0.75000000  1
  Pb  Pb4  1  0.82980616  0.17019384  0.10515085  1
  Pb  Pb5  1  0.17019384  0.82980616  0.89484915  1
  Pb  Pb6  1  0.17019384  0.82980616  0.60515085  1
  Pb  Pb7  1  0.82980616  0.17019384  0.39484915  1
loop_
_geom_bond_atom_site_label_1
_geom_bond_atom_site_label_2
_geom_bond_distance
_geom_bond_site_symmetry_2
K0 Pb4 3.548613 1_555
K0 Pb2 3.770607 1_555
K0 Pb0 3.770607 1_555
K0 Pb1 3.838076 1_554
K0 Pb3 3.838076 1_554
K0 Pb5 3.964991 1_544
K0 Pb5 3.964991 1_654
K1 Pb5 3.548613 1_555
K1 Pb3 3.770607 1_555
K1 Pb1 3.770607 1_555
K1 Pb0 3.838076 1_556
K1 Pb2 3.838076 1_556
K1 Pb4 3.964991 1_566
K1 Pb4 3.964991 1_456
K2 Pb6 3.548613 1_555
K2 Pb3 3.770607 1_555
K2 Pb1 3.770607 1_555
K2 Pb0 3.838076 1_555
K2 Pb2 3.838076 1_555
K2 Pb7 3.964991 1_565
K2 Pb7 3.964991 1_455
K3 Pb7 3.548613 1_555
K3 Pb2 3.770607 1_555
K3 Pb0 3.770607 1_555
K3 Pb1 3.838076 1_555
K3 Pb3 3.838076 1_555
K3 Pb6 3.964991 1_545
K3 Pb6 3.964991 1_655
Li0 Pb4 2.946060 1_455
Li0 Pb5 2.946060 1_544
Li0 Pb0 3.120152 1_555
Li0 Pb1 3.120152 1_444
Li0 Pb3 3.120152 1_554
Li0 Pb2 3.120152 1_445
Li1 Pb7 2.946060 1_455
Li1 Pb6 2.946060 1_545
Li1 Pb0 3.120152 1_555
Li1 Pb1 3.120152 1_445
Li1 Pb3 3.120152 1_555
Li1 Pb2 3.120152 1_445
Pb0 Pb7 3.109956 1_455
Pb0 Pb4 3.109956 1_455
Pb1 Pb5 3.109956 1_655
Pb1 Pb6 3.109956 1_655
Pb2 Pb7 3.109956 1_565
Pb2 Pb4 3.109956 1_565
Pb3 Pb5 3.109956 1_545
Pb3 Pb6 3.109956 1_545
Pb4 Pb7 3.048853 1_555
Pb4 Rb1 3.827022 1_554
Pb4 Rb0 4.230874 1_655
Pb4 Rb0 4.230874 1_545
Pb5 Pb6 3.048853 1_555
Pb5 Rb0 3.827022 1_556
Pb5 Rb1 4.230874 1_455
Pb5 Rb1 4.230874 1_565
Pb6 Rb0 3.827022 1_555
Pb6 Rb1 4.230874 1_455
Pb6 Rb1 4.230874 1_565
Pb7 Rb1 3.827022 1_555
Pb7 Rb0 4.230874 1_655
Pb7 Rb0 4.230874 1_545
