# generated using pymatgen
data_KNb8VSe16
_symmetry_space_group_name_H-M   'P 1'
_cell_length_a   7.00472366
_cell_length_b   7.00472509
_cell_length_c   14.97348554
_cell_angle_alpha   90.00000000
_cell_angle_beta   90.00000000
_cell_angle_gamma   120.00000741
_symmetry_Int_Tables_number   1
_chemical_formula_structural   KNb8VSe16
_chemical_formula_sum   'K1 Nb8 V1 Se16'
_cell_volume   636.26144731
_cell_formula_units_Z   1
loop_
 _symmetry_equiv_pos_site_id
 _symmetry_equiv_pos_as_xyz
  1  'x, y, z'
loop_
 _atom_site_type_symbol
 _atom_site_label
 _atom_site_symmetry_multiplicity
 _atom_site_fract_x
 _atom_site_fract_y
 _atom_site_fract_z
 _atom_site_occupancy
  K  K0  1  0.00000000  0.00000000  0.00000000  1
  Nb  Nb0  1  0.00000000  0.00000000  0.28532248  1
  Nb  Nb1  1  0.00000000  0.00000000  0.71467752  1
  Nb  Nb2  1  0.50960440  0.01920879  0.28677647  1
  Nb  Nb3  1  0.49039560  0.98079121  0.71322353  1
  Nb  Nb4  1  0.98079121  0.49039560  0.28677647  1
  Nb  Nb5  1  0.01920879  0.50960440  0.71322353  1
  Nb  Nb6  1  0.50960440  0.49039560  0.28677647  1
  Nb  Nb7  1  0.49039560  0.50960440  0.71322353  1
  V  V0  1  0.00000000  0.00000000  0.50000000  1
  Se  Se0  1  0.33333300  0.66666700  0.59763371  1
  Se  Se1  1  0.66666700  0.33333300  0.40236629  1
  Se  Se2  1  0.66666700  0.33333300  0.17027719  1
  Se  Se3  1  0.33333300  0.66666700  0.82972281  1
  Se  Se4  1  0.16881804  0.33763708  0.17698653  1
  Se  Se5  1  0.83118196  0.66236292  0.82301347  1
  Se  Se6  1  0.66236292  0.83118196  0.17698653  1
  Se  Se7  1  0.83282101  0.66564203  0.60429385  1
  Se  Se8  1  0.33763708  0.16881804  0.82301347  1
  Se  Se9  1  0.16717899  0.33435797  0.39570615  1
  Se  Se10  1  0.16881804  0.83118196  0.17698653  1
  Se  Se11  1  0.33435797  0.16717899  0.60429385  1
  Se  Se12  1  0.83118196  0.16881804  0.82301347  1
  Se  Se13  1  0.66564203  0.83282101  0.39570615  1
  Se  Se14  1  0.83282101  0.16717899  0.60429385  1
  Se  Se15  1  0.16717899  0.83282101  0.39570615  1
loop_
_geom_bond_atom_site_label_1
_geom_bond_atom_site_label_2
_geom_bond_distance
_geom_bond_site_symmetry_2
K0 Se10 3.349350 1_545
K0 Se12 3.349350 1_454
K0 Se6 3.349354 1_445
K0 Se8 3.349354 1_554
K0 Se4 3.349354 1_555
K0 Se5 3.349354 1_444
Nb0 Se10 2.612760 1_545
Nb0 Se6 2.612764 1_445
Nb0 Se4 2.612764 1_555
Nb0 Se13 2.616460 1_445
Nb0 Se9 2.616460 1_555
Nb0 Se15 2.616460 1_545
Nb1 Se12 2.612760 1_455
Nb1 Se8 2.612764 1_555
Nb1 Se5 2.612764 1_445
Nb1 Se11 2.616460 1_555
Nb1 Se7 2.616460 1_445
Nb1 Se14 2.616460 1_455
Nb2 Se1 2.574252 1_555
Nb2 Se2 2.583428 1_555
Nb2 Se15 2.643216 1_545
Nb2 Se13 2.643216 1_545
Nb2 Se6 2.644145 1_545
Nb2 Se10 2.644149 1_545
Nb3 Se0 2.574252 1_555
Nb3 Se3 2.583428 1_555
Nb3 Se14 2.643216 1_565
Nb3 Se11 2.643216 1_565
Nb3 Se8 2.644145 1_565
Nb3 Se12 2.644149 1_565
Nb4 Se1 2.574252 1_555
Nb4 Se2 2.583427 1_555
Nb4 Se15 2.643216 1_655
Nb4 Se9 2.643216 1_655
Nb4 Se4 2.644145 1_655
Nb4 Se10 2.644149 1_655
Nb5 Se0 2.574252 1_555
Nb5 Se3 2.583427 1_555
Nb5 Se14 2.643216 1_455
Nb5 Se7 2.643216 1_455
Nb5 Se5 2.644145 1_455
Nb5 Se12 2.644149 1_455
Nb6 Se1 2.574257 1_555
Nb6 Se2 2.583432 1_555
Nb6 Se9 2.643216 1_555
Nb6 Se13 2.643216 1_555
Nb6 Se4 2.644149 1_555
Nb6 Se6 2.644150 1_555
Nb7 Se0 2.574257 1_555
Nb7 Se3 2.583432 1_555
Nb7 Se7 2.643216 1_555
Nb7 Se11 2.643216 1_555
Nb7 Se5 2.644149 1_555
Nb7 Se8 2.644150 1_555
Se7 V0 2.559834 1_665
Se9 V0 2.559834 1_555
Se11 V0 2.559834 1_555
Se13 V0 2.559834 1_665
Se14 V0 2.559834 1_655
Se15 V0 2.559834 1_565
