# generated using pymatgen
data_Cs7Ta(AsP)2
_symmetry_space_group_name_H-M   'P 1'
_cell_length_a   8.81288970
_cell_length_b   10.04856403
_cell_length_c   10.87894451
_cell_angle_alpha   90.00000000
_cell_angle_beta   90.00000000
_cell_angle_gamma   90.00000000
_symmetry_Int_Tables_number   1
_chemical_formula_structural   Cs7Ta(AsP)2
_chemical_formula_sum   'Cs14 Ta2 As4 P4'
_cell_volume   963.40545446
_cell_formula_units_Z   2
loop_
 _symmetry_equiv_pos_site_id
 _symmetry_equiv_pos_as_xyz
  1  'x, y, z'
loop_
 _atom_site_type_symbol
 _atom_site_label
 _atom_site_symmetry_multiplicity
 _atom_site_fract_x
 _atom_site_fract_y
 _atom_site_fract_z
 _atom_site_occupancy
  Cs  Cs0  1  0.86022724  0.02545922  0.00000000  1
  Cs  Cs1  1  0.69648191  0.82266760  0.70908308  1
  Cs  Cs2  1  0.39978416  0.90299264  0.00000000  1
  Cs  Cs3  1  0.36022724  0.97454078  0.50000000  1
  Cs  Cs4  1  0.88457148  0.46475628  0.29802743  1
  Cs  Cs5  1  0.89978416  0.09700736  0.50000000  1
  Cs  Cs6  1  0.67392851  0.35002263  0.00000000  1
  Cs  Cs7  1  0.17392851  0.64997737  0.50000000  1
  Cs  Cs8  1  0.19648191  0.17733240  0.20908308  1
  Cs  Cs9  1  0.38457148  0.53524372  0.20197257  1
  Cs  Cs10  1  0.38457148  0.53524372  0.79802743  1
  Cs  Cs11  1  0.88457148  0.46475628  0.70197257  1
  Cs  Cs12  1  0.69648191  0.82266760  0.29091692  1
  Cs  Cs13  1  0.19648191  0.17733240  0.79091692  1
  Ta  Ta0  1  0.99616068  0.67628524  0.00000000  1
  Ta  Ta1  1  0.49616068  0.32371476  0.50000000  1
  As  As0  1  0.08719254  0.79943697  0.19122599  1
  As  As1  1  0.58719254  0.20056303  0.30877401  1
  As  As2  1  0.58719254  0.20056303  0.69122599  1
  As  As3  1  0.08719254  0.79943697  0.80877401  1
  P  P0  1  0.72503193  0.68566508  0.00000000  1
  P  P1  1  0.22503193  0.31433492  0.50000000  1
  P  P2  1  0.06947861  0.44696022  0.00000000  1
  P  P3  1  0.56947861  0.55303978  0.50000000  1
loop_
_geom_bond_atom_site_label_1
_geom_bond_atom_site_label_2
_geom_bond_distance
_geom_bond_site_symmetry_2
Cs0 P0 3.616352 1_545
Cs1 P0 3.460484 1_556
Cs1 P3 3.710428 1_555
Cs2 P0 3.603499 1_555
Cs3 P1 3.616352 1_565
Cs4 P2 3.633109 1_655
Cs4 P3 3.650471 1_555
Cs4 P1 4.014378 1_655
Cs5 P1 3.603499 1_655
Cs6 P0 3.402661 1_555
Cs6 P2 3.619477 1_655
Cs7 P1 3.402661 1_555
Cs7 P3 3.619477 1_555
Cs8 P1 3.460484 1_555
Cs8 P2 3.710428 1_555
Cs9 P3 3.633109 1_555
Cs9 P2 3.650471 1_555
Cs9 P0 4.014378 1_555
Cs10 P3 3.633109 1_555
Cs10 P2 3.650471 1_556
Cs10 P0 4.014378 1_556
Cs11 P2 3.633109 1_656
Cs11 P3 3.650471 1_555
Cs11 P1 4.014378 1_655
Cs12 P0 3.460484 1_555
Cs12 P3 3.710428 1_555
Cs13 P1 3.460484 1_555
Cs13 P2 3.710428 1_556
As0 Ta0 2.550062 1_455
As0 Cs2 3.605515 1_555
As0 Cs12 3.617588 1_455
As0 Cs0 3.672469 1_465
As0 Cs9 3.732272 1_555
As0 Cs7 3.758145 1_555
As0 Cs8 3.922365 1_565
As0 Cs4 3.981055 1_455
As1 Ta1 2.550062 1_555
As1 Cs5 3.605515 1_555
As1 Cs8 3.617588 1_555
As1 Cs3 3.672469 1_545
As1 Cs4 3.732272 1_555
As1 Cs6 3.758145 1_555
As1 Cs12 3.922365 1_545
As1 Cs9 3.981055 1_555
As2 Ta1 2.550062 1_555
As2 Cs5 3.605515 1_555
As2 Cs13 3.617588 1_555
As2 Cs3 3.672469 1_545
As2 Cs11 3.732272 1_555
As2 Cs6 3.758145 1_556
As2 Cs1 3.922365 1_545
As2 Cs10 3.981055 1_555
As3 Ta0 2.550062 1_456
As3 Cs2 3.605515 1_556
As3 Cs1 3.617588 1_455
As3 Cs0 3.672469 1_466
As3 Cs10 3.732272 1_555
As3 Cs7 3.758145 1_555
As3 Cs13 3.922365 1_565
As3 Cs11 3.981055 1_455
P0 Ta0 2.391286 1_555
P1 Ta1 2.391286 1_555
P2 Ta0 2.393261 1_455
P3 Ta1 2.393261 1_555
