# generated using pymatgen
data_NbZn2(Ni10B3)2
_symmetry_space_group_name_H-M   'P 1'
_cell_length_a   7.37703226
_cell_length_b   7.37703202
_cell_length_c   7.37703243
_cell_angle_alpha   60.00000255
_cell_angle_beta   60.00000363
_cell_angle_gamma   60.00000134
_symmetry_Int_Tables_number   1
_chemical_formula_structural   NbZn2(Ni10B3)2
_chemical_formula_sum   'Nb1 Zn2 Ni20 B6'
_cell_volume   283.87691098
_cell_formula_units_Z   1
loop_
 _symmetry_equiv_pos_site_id
 _symmetry_equiv_pos_as_xyz
  1  'x, y, z'
loop_
 _atom_site_type_symbol
 _atom_site_label
 _atom_site_symmetry_multiplicity
 _atom_site_fract_x
 _atom_site_fract_y
 _atom_site_fract_z
 _atom_site_occupancy
  Nb  Nb0  1  0.25000000  0.25000000  0.25000000  1
  Zn  Zn0  1  0.75000000  0.75000000  0.75000000  1
  Zn  Zn1  1  0.00000000  0.00000000  0.00000000  1
  Ni  Ni0  1  0.00098051  0.00098051  0.65904913  1
  Ni  Ni1  1  0.38462551  0.84612448  0.38462551  1
  Ni  Ni2  1  0.65904913  0.33898884  0.00098051  1
  Ni  Ni3  1  0.00098051  0.33898884  0.65904913  1
  Ni  Ni4  1  0.65904913  0.00098051  0.00098051  1
  Ni  Ni5  1  0.00098051  0.00098051  0.33898884  1
  Ni  Ni6  1  0.65904913  0.00098051  0.33898884  1
  Ni  Ni7  1  0.00098051  0.33898884  0.00098051  1
  Ni  Ni8  1  0.00098051  0.65904913  0.33898884  1
  Ni  Ni9  1  0.33898884  0.00098051  0.00098051  1
  Ni  Ni10  1  0.00098051  0.65904913  0.00098051  1
  Ni  Ni11  1  0.33898884  0.00098051  0.65904913  1
  Ni  Ni12  1  0.38462551  0.38462551  0.38462551  1
  Ni  Ni13  1  0.33898884  0.65904913  0.00098051  1
  Ni  Ni14  1  0.61754238  0.14737286  0.61754238  1
  Ni  Ni15  1  0.38462551  0.38462551  0.84612448  1
  Ni  Ni16  1  0.84612448  0.38462551  0.38462551  1
  Ni  Ni17  1  0.61754238  0.61754238  0.61754238  1
  Ni  Ni18  1  0.14737286  0.61754238  0.61754238  1
  Ni  Ni19  1  0.61754238  0.61754238  0.14737286  1
  B  B0  1  0.72773685  0.72773685  0.27226315  1
  B  B1  1  0.72773685  0.27226315  0.72773685  1
  B  B2  1  0.27226315  0.72773685  0.27226315  1
  B  B3  1  0.72773685  0.27226315  0.27226315  1
  B  B4  1  0.27226315  0.72773685  0.72773685  1
  B  B5  1  0.27226315  0.27226315  0.72773685  1
loop_
_geom_bond_atom_site_label_1
_geom_bond_atom_site_label_2
_geom_bond_distance
_geom_bond_site_symmetry_2
Nb0 Ni1 2.432672 1_545
Nb0 Ni16 2.432672 1_455
Nb0 Ni15 2.432672 1_554
Nb0 Ni12 2.432678 1_555
Ni0 Zn1 2.507993 1_556
Ni2 Zn1 2.507990 1_655
Ni3 Zn1 2.507990 1_556
Ni4 Zn1 2.507993 1_655
Ni5 Zn1 2.507986 1_555
Ni6 Zn1 2.507990 1_655
Ni7 Zn1 2.507986 1_555
Ni8 Zn1 2.507990 1_565
Ni9 Zn1 2.507986 1_555
Ni10 Zn1 2.507993 1_565
Ni11 Zn1 2.507990 1_556
Ni13 Zn1 2.507990 1_565
Ni14 Zn0 2.393505 1_545
Ni17 Zn0 2.393504 1_555
Ni18 Zn0 2.393505 1_455
Ni19 Zn0 2.393505 1_554
B0 Ni16 2.066829 1_555
B0 Ni1 2.066829 1_555
B0 Ni6 2.069689 1_565
B0 Ni8 2.069689 1_655
B0 Ni4 2.069694 1_565
B0 Ni10 2.069694 1_655
B0 Ni19 2.080669 1_555
B0 Ni17 2.080670 1_555
B1 Ni15 2.066829 1_555
B1 Ni16 2.066829 1_555
B1 Ni3 2.069689 1_655
B1 Ni2 2.069689 1_556
B1 Ni0 2.069694 1_655
B1 Ni4 2.069694 1_556
B1 Ni14 2.080669 1_555
B1 Ni17 2.080669 1_555
B2 Ni12 2.066829 1_555
B2 Ni1 2.066835 1_555
B2 Ni5 2.069692 1_565
B2 Ni9 2.069692 1_565
B2 Ni8 2.069696 1_555
B2 Ni13 2.069696 1_555
B2 Ni19 2.080670 1_555
B2 Ni18 2.080670 1_555
B3 Ni12 2.066829 1_555
B3 Ni16 2.066835 1_555
B3 Ni5 2.069692 1_655
B3 Ni7 2.069692 1_655
B3 Ni6 2.069696 1_555
B3 Ni2 2.069696 1_555
B3 Ni19 2.080669 1_555
B3 Ni14 2.080670 1_555
B4 Ni15 2.066829 1_555
B4 Ni1 2.066829 1_555
B4 Ni11 2.069689 1_565
B4 Ni13 2.069689 1_556
B4 Ni0 2.069694 1_565
B4 Ni10 2.069694 1_556
B4 Ni18 2.080669 1_555
B4 Ni17 2.080670 1_555
B5 Ni12 2.066829 1_555
B5 Ni15 2.066835 1_555
B5 Ni9 2.069692 1_556
B5 Ni7 2.069692 1_556
B5 Ni11 2.069696 1_555
B5 Ni3 2.069696 1_555
B5 Ni18 2.080669 1_555
B5 Ni14 2.080670 1_555
