# generated using pymatgen
data_Al2Tc2B2Ru
_symmetry_space_group_name_H-M   'P 1'
_cell_length_a   8.76036313
_cell_length_b   8.76036310
_cell_length_c   3.03898617
_cell_angle_alpha   90.00000000
_cell_angle_beta   90.00000000
_cell_angle_gamma   160.23019803
_symmetry_Int_Tables_number   1
_chemical_formula_structural   Al2Tc2B2Ru
_chemical_formula_sum   'Al2 Tc2 B2 Ru1'
_cell_volume   78.88609245
_cell_formula_units_Z   1
loop_
 _symmetry_equiv_pos_site_id
 _symmetry_equiv_pos_as_xyz
  1  'x, y, z'
loop_
 _atom_site_type_symbol
 _atom_site_label
 _atom_site_symmetry_multiplicity
 _atom_site_fract_x
 _atom_site_fract_y
 _atom_site_fract_z
 _atom_site_occupancy
  Al  Al0  1  0.42038284  0.57961716  0.50000000  1
  Al  Al1  1  0.57961716  0.42038284  0.50000000  1
  Tc  Tc0  1  0.17903529  0.82096471  0.00000000  1
  Tc  Tc1  1  0.82096471  0.17903529  0.00000000  1
  B  B0  1  0.27989301  0.72010699  0.50000000  1
  B  B1  1  0.72010699  0.27989301  0.50000000  1
  Ru  Ru0  1  0.00000000  0.00000000  0.00000000  1
loop_
_geom_bond_atom_site_label_1
_geom_bond_atom_site_label_2
_geom_bond_distance
_geom_bond_site_symmetry_2
Al0 B0 2.424942 1_555
Al0 Ru0 2.541471 1_555
Al0 Ru0 2.541471 1_556
Al0 Ru0 2.541471 1_665
Al0 Ru0 2.541471 1_666
Al0 Tc1 2.741397 1_565
Al0 Tc1 2.741397 1_566
Al0 Tc1 2.741397 1_455
Al0 Tc1 2.741397 1_456
Al1 B1 2.424942 1_555
Al1 Ru0 2.541471 1_666
Al1 Ru0 2.541471 1_665
Al1 Ru0 2.541471 1_555
Al1 Ru0 2.541471 1_556
Al1 Tc0 2.741397 1_546
Al1 Tc0 2.741397 1_545
Al1 Tc0 2.741397 1_655
Al1 Tc0 2.741397 1_656
B0 B1 1.823893 1_565
B0 B1 1.823893 1_455
B0 Tc1 2.252356 1_455
B0 Tc1 2.252356 1_456
B0 Tc1 2.252356 1_566
B0 Tc1 2.252356 1_565
B0 Tc0 2.310731 1_555
B0 Tc0 2.310731 1_556
B1 Tc0 2.252356 1_656
B1 Tc0 2.252356 1_655
B1 Tc0 2.252356 1_546
B1 Tc0 2.252356 1_545
B1 Tc1 2.310731 1_556
B1 Tc1 2.310731 1_555
