# generated using pymatgen
data_NaFeIO6
_symmetry_space_group_name_H-M   'P 1'
_cell_length_a   4.97903199
_cell_length_b   4.97903123
_cell_length_c   5.12581508
_cell_angle_alpha   90.00000000
_cell_angle_beta   90.00000000
_cell_angle_gamma   119.99998155
_symmetry_Int_Tables_number   1
_chemical_formula_structural   NaFeIO6
_chemical_formula_sum   'Na1 Fe1 I1 O6'
_cell_volume   110.04831925
_cell_formula_units_Z   1
loop_
 _symmetry_equiv_pos_site_id
 _symmetry_equiv_pos_as_xyz
  1  'x, y, z'
loop_
 _atom_site_type_symbol
 _atom_site_label
 _atom_site_symmetry_multiplicity
 _atom_site_fract_x
 _atom_site_fract_y
 _atom_site_fract_z
 _atom_site_occupancy
  Na  Na0  1  0.66666700  0.33333300  0.50000000  1
  Fe  Fe0  1  0.33333300  0.66666700  0.00000000  1
  I  I0  1  0.00000000  0.00000000  0.00000000  1
  O  O0  1  0.04669151  0.33499630  0.79389219  1
  O  O1  1  0.28830479  0.95330849  0.79389219  1
  O  O2  1  0.28830479  0.33499630  0.20610781  1
  O  O3  1  0.66500370  0.71169521  0.79389219  1
  O  O4  1  0.66500370  0.95330849  0.20610781  1
  O  O5  1  0.04669151  0.71169521  0.20610781  1
loop_
_geom_bond_atom_site_label_1
_geom_bond_atom_site_label_2
_geom_bond_distance
_geom_bond_site_symmetry_2
Na0 O4 2.415367 1_545
Na0 O0 2.415367 1_655
Na0 O1 2.415369 1_545
Na0 O5 2.415369 1_655
Na0 O3 2.415371 1_555
Na0 O2 2.415371 1_555
Fe0 O1 1.877034 1_554
Fe0 O5 1.877035 1_555
Fe0 O0 1.877037 1_554
Fe0 O4 1.877037 1_555
Fe0 O2 1.877039 1_555
Fe0 O3 1.877039 1_554
I0 O5 1.887986 1_545
I0 O0 1.887986 1_554
I0 O1 1.887987 1_544
I0 O4 1.887987 1_445
I0 O2 1.887987 1_555
I0 O3 1.887987 1_444
