# generated using pymatgen
data_CrTeO3F
_symmetry_space_group_name_H-M   'P 1'
_cell_length_a   5.05740279
_cell_length_b   5.01188535
_cell_length_c   12.65647428
_cell_angle_alpha   74.25899332
_cell_angle_beta   90.00000000
_cell_angle_gamma   90.00000000
_symmetry_Int_Tables_number   1
_chemical_formula_structural   CrTeO3F
_chemical_formula_sum   'Cr4 Te4 O12 F4'
_cell_volume   308.77431894
_cell_formula_units_Z   4
loop_
 _symmetry_equiv_pos_site_id
 _symmetry_equiv_pos_as_xyz
  1  'x, y, z'
loop_
 _atom_site_type_symbol
 _atom_site_label
 _atom_site_symmetry_multiplicity
 _atom_site_fract_x
 _atom_site_fract_y
 _atom_site_fract_z
 _atom_site_occupancy
  Cr  Cr0  1  0.25395876  0.10104266  0.43338193  1
  Cr  Cr1  1  0.75395876  0.89895734  0.06661807  1
  Cr  Cr2  1  0.24604124  0.10104266  0.93338193  1
  Cr  Cr3  1  0.74604124  0.89895734  0.56661807  1
  Te  Te0  1  0.19617989  0.32447525  0.17127866  1
  Te  Te1  1  0.69617989  0.67552475  0.32872134  1
  Te  Te2  1  0.30382011  0.32447525  0.67127866  1
  Te  Te3  1  0.80382011  0.67552475  0.82872134  1
  O  O0  1  0.06898926  0.11459737  0.07371936  1
  O  O1  1  0.11556216  0.45419723  0.84290139  1
  O  O2  1  0.92399179  0.92933681  0.69947330  1
  O  O3  1  0.38443784  0.45419723  0.34290139  1
  O  O4  1  0.88443784  0.54580277  0.15709861  1
  O  O5  1  0.61556216  0.54580277  0.65709861  1
  O  O6  1  0.42399179  0.07066319  0.80052670  1
  O  O7  1  0.93101074  0.88540263  0.92628064  1
  O  O8  1  0.43101074  0.11459737  0.57371936  1
  O  O9  1  0.07600821  0.07066319  0.30052670  1
  O  O10  1  0.57600821  0.92933681  0.19947330  1
  O  O11  1  0.56898926  0.88540263  0.42628064  1
  F  F0  1  0.56942730  0.24323922  0.98686090  1
  F  F1  1  0.06942730  0.75676078  0.51313910  1
  F  F2  1  0.93057270  0.24323922  0.48686090  1
  F  F3  1  0.43057270  0.75676078  0.01313910  1
loop_
_geom_bond_atom_site_label_1
_geom_bond_atom_site_label_2
_geom_bond_distance
_geom_bond_site_symmetry_2
Cr0 O11 1.940936 1_545
Cr0 O3 1.944193 1_555
Cr0 O9 1.949206 1_555
Cr0 F2 1.975500 1_455
Cr0 F1 1.980461 1_545
Cr0 O8 2.006657 1_555
Cr1 O0 1.940936 1_665
Cr1 O4 1.944193 1_555
Cr1 O10 1.949206 1_555
Cr1 F3 1.975500 1_555
Cr1 F0 1.980461 1_564
Cr1 O7 2.006657 1_554
Cr2 O7 1.940936 1_445
Cr2 O1 1.944193 1_555
Cr2 O6 1.949206 1_555
Cr2 F0 1.975500 1_555
Cr2 F3 1.980461 1_546
Cr2 O0 2.006657 1_556
Cr3 O8 1.940936 1_565
Cr3 O5 1.944193 1_555
Cr3 O2 1.949206 1_555
Cr3 F1 1.975500 1_655
Cr3 F2 1.980461 1_565
Cr3 O11 2.006657 1_555
O0 Te0 1.936381 1_555
O1 Te3 1.907971 1_455
O2 Te3 1.880005 1_555
O3 Te1 1.907971 1_555
O4 Te0 1.907971 1_655
O5 Te2 1.907971 1_555
O6 Te2 1.880005 1_555
O7 Te3 1.936381 1_555
O8 Te2 1.936381 1_555
O9 Te0 1.880005 1_555
O10 Te1 1.880005 1_555
O11 Te1 1.936381 1_555
