# generated using pymatgen
data_Cs7Nb(SeO4)6
_symmetry_space_group_name_H-M   'P 1'
_cell_length_a   10.34574361
_cell_length_b   10.34574230
_cell_length_c   10.34574355
_cell_angle_alpha   110.24878066
_cell_angle_beta   110.24878334
_cell_angle_gamma   110.24878735
_symmetry_Int_Tables_number   1
_chemical_formula_structural   Cs7Nb(SeO4)6
_chemical_formula_sum   'Cs7 Nb1 Se6 O24'
_cell_volume   826.98916417
_cell_formula_units_Z   1
loop_
 _symmetry_equiv_pos_site_id
 _symmetry_equiv_pos_as_xyz
  1  'x, y, z'
loop_
 _atom_site_type_symbol
 _atom_site_label
 _atom_site_symmetry_multiplicity
 _atom_site_fract_x
 _atom_site_fract_y
 _atom_site_fract_z
 _atom_site_occupancy
  Cs  Cs0  1  0.50000000  0.50000000  0.50000000  1
  Cs  Cs1  1  0.82309477  0.30195777  0.66963824  1
  Cs  Cs2  1  0.30195777  0.66963824  0.82309477  1
  Cs  Cs3  1  0.66963824  0.82309477  0.30195777  1
  Cs  Cs4  1  0.17690523  0.69804223  0.33036176  1
  Cs  Cs5  1  0.69804223  0.33036176  0.17690523  1
  Cs  Cs6  1  0.33036176  0.17690523  0.69804223  1
  Nb  Nb0  1  0.00000000  0.00000000  0.00000000  1
  Se  Se0  1  0.96626091  0.74712079  0.63739021  1
  Se  Se1  1  0.74712079  0.63739021  0.96626091  1
  Se  Se2  1  0.63739021  0.96626091  0.74712079  1
  Se  Se3  1  0.03373909  0.25287921  0.36260979  1
  Se  Se4  1  0.25287921  0.36260979  0.03373909  1
  Se  Se5  1  0.36260979  0.03373909  0.25287921  1
  O  O0  1  0.36678135  0.87105094  0.16606814  1
  O  O1  1  0.87105094  0.16606813  0.36678135  1
  O  O2  1  0.16606814  0.36678135  0.87105094  1
  O  O3  1  0.63321865  0.12894906  0.83393186  1
  O  O4  1  0.12894906  0.83393187  0.63321865  1
  O  O5  1  0.83393186  0.63321865  0.12894906  1
  O  O6  1  0.30574798  0.03622158  0.38208665  1
  O  O7  1  0.03622158  0.38208665  0.30574798  1
  O  O8  1  0.38208665  0.30574798  0.03622158  1
  O  O9  1  0.69425202  0.96377842  0.61791335  1
  O  O10  1  0.96377842  0.61791335  0.69425202  1
  O  O11  1  0.61791335  0.69425202  0.96377842  1
  O  O12  1  0.78194835  0.97341758  0.90208902  1
  O  O13  1  0.97341758  0.90208902  0.78194835  1
  O  O14  1  0.66632463  0.46824982  0.79728991  1
  O  O15  1  0.79728991  0.66632463  0.46824982  1
  O  O16  1  0.46824982  0.79728991  0.66632463  1
  O  O17  1  0.33367537  0.53175018  0.20271009  1
  O  O18  1  0.20271009  0.33367537  0.53175018  1
  O  O19  1  0.53175018  0.20271009  0.33367537  1
  O  O20  1  0.09791098  0.21805165  0.02658242  1
  O  O21  1  0.02658242  0.09791098  0.21805165  1
  O  O22  1  0.21805165  0.02658242  0.09791098  1
  O  O23  1  0.90208902  0.78194835  0.97341758  1
loop_
_geom_bond_atom_site_label_1
_geom_bond_atom_site_label_2
_geom_bond_distance
_geom_bond_site_symmetry_2
Cs0 O16 3.155292 1_555
Cs0 O19 3.155292 1_555
Cs0 O15 3.155292 1_555
Cs0 O18 3.155292 1_555
Cs0 O14 3.155292 1_555
Cs0 O17 3.155292 1_555
Cs1 O10 2.956743 1_555
Cs1 O14 3.029179 1_555
Cs1 O9 3.047340 1_545
Cs1 O2 3.106426 1_655
Cs1 O19 3.218092 1_555
Cs1 O1 3.248052 1_555
Cs1 O3 3.454719 1_555
Cs2 O11 2.956744 1_555
Cs2 O16 3.029179 1_555
Cs2 O10 3.047341 1_455
Cs2 O0 3.106426 1_556
Cs2 O18 3.218091 1_555
Cs2 O2 3.248051 1_555
Cs2 O4 3.454719 1_555
Cs3 O9 2.956744 1_555
Cs3 O15 3.029179 1_555
Cs3 O11 3.047341 1_554
Cs3 O1 3.106425 1_565
Cs3 O17 3.218091 1_555
Cs3 O0 3.248052 1_555
Cs3 O5 3.454719 1_555
Cs4 O7 2.956743 1_555
Cs4 O17 3.029179 1_555
Cs4 O6 3.047340 1_565
Cs4 O5 3.106426 1_455
Cs4 O16 3.218092 1_555
Cs4 O4 3.248052 1_555
Cs4 O0 3.454719 1_555
Cs5 O8 2.956744 1_555
Cs5 O19 3.029179 1_555
Cs5 O7 3.047341 1_655
Cs5 O3 3.106426 1_554
Cs5 O15 3.218091 1_555
Cs5 O5 3.248051 1_555
Cs5 O1 3.454719 1_555
Cs6 O6 2.956744 1_555
Cs6 O18 3.029179 1_555
Cs6 O8 3.047341 1_556
Cs6 O4 3.106425 1_545
Cs6 O14 3.218091 1_555
Cs6 O3 3.248052 1_555
Cs6 O2 3.454719 1_555
Nb0 O20 1.996697 1_555
Nb0 O23 1.996697 1_444
Nb0 O22 1.996697 1_555
Nb0 O12 1.996697 1_444
Nb0 O21 1.996697 1_555
Nb0 O13 1.996697 1_444
O0 Se5 1.634676 1_565
O1 Se3 1.634676 1_655
O2 Se4 1.634676 1_556
O3 Se2 1.634676 1_545
O4 Se0 1.634676 1_455
O5 Se1 1.634676 1_554
O6 Se5 1.632374 1_555
O7 Se3 1.632373 1_555
O8 Se4 1.632374 1_555
O9 Se2 1.632374 1_555
O10 Se0 1.632373 1_555
O11 Se1 1.632374 1_555
O12 Se2 1.730344 1_555
O13 Se0 1.730344 1_555
O14 Se1 1.635657 1_555
O15 Se0 1.635657 1_555
O16 Se2 1.635657 1_555
O17 Se4 1.635657 1_555
O18 Se3 1.635657 1_555
O19 Se5 1.635657 1_555
O20 Se4 1.730344 1_555
O21 Se3 1.730344 1_555
O22 Se5 1.730344 1_555
O23 Se1 1.730344 1_555
