# generated using pymatgen
data_YLu(ZnSi)2
_symmetry_space_group_name_H-M   'P 1'
_cell_length_a   4.09788814
_cell_length_b   4.09788878
_cell_length_c   15.61586911
_cell_angle_alpha   90.00000000
_cell_angle_beta   90.00000000
_cell_angle_gamma   120.00000265
_symmetry_Int_Tables_number   1
_chemical_formula_structural   YLu(ZnSi)2
_chemical_formula_sum   'Y2 Lu2 Zn4 Si4'
_cell_volume   227.09995420
_cell_formula_units_Z   2
loop_
 _symmetry_equiv_pos_site_id
 _symmetry_equiv_pos_as_xyz
  1  'x, y, z'
loop_
 _atom_site_type_symbol
 _atom_site_label
 _atom_site_symmetry_multiplicity
 _atom_site_fract_x
 _atom_site_fract_y
 _atom_site_fract_z
 _atom_site_occupancy
  Y  Y0  1  0.00000000  0.00000000  0.50000000  1
  Y  Y1  1  0.00000000  0.00000000  0.00000000  1
  Lu  Lu0  1  0.00000000  0.00000000  0.75000000  1
  Lu  Lu1  1  0.00000000  0.00000000  0.25000000  1
  Zn  Zn0  1  0.66666700  0.33333300  0.85468786  1
  Zn  Zn1  1  0.66666700  0.33333300  0.64531214  1
  Zn  Zn2  1  0.33333300  0.66666700  0.14531214  1
  Zn  Zn3  1  0.33333300  0.66666700  0.35468786  1
  Si  Si0  1  0.66666700  0.33333300  0.11990690  1
  Si  Si1  1  0.66666700  0.33333300  0.38009310  1
  Si  Si2  1  0.33333300  0.66666700  0.88009310  1
  Si  Si3  1  0.33333300  0.66666700  0.61990690  1
loop_
_geom_bond_atom_site_label_1
_geom_bond_atom_site_label_2
_geom_bond_distance
_geom_bond_site_symmetry_2
Y0 Zn1 3.278217 1_455
Y0 Zn3 3.278217 1_545
Y0 Zn1 3.278220 1_555
Y0 Zn3 3.278220 1_445
Y0 Zn1 3.278220 1_445
Y0 Zn3 3.278220 1_555
Y1 Zn2 3.278217 1_545
Y1 Zn0 3.278217 1_454
Y1 Zn2 3.278220 1_445
Y1 Zn0 3.278220 1_554
Y1 Zn2 3.278220 1_555
Y1 Zn0 3.278220 1_444
Lu0 Zn0 2.875778 1_455
Lu0 Zn1 2.875778 1_455
Lu0 Zn0 2.875780 1_555
Lu0 Zn1 2.875780 1_555
Lu0 Zn0 2.875781 1_445
Lu0 Zn1 2.875781 1_445
Lu0 Si3 3.118431 1_545
Lu0 Si2 3.118431 1_545
Lu0 Si3 3.118434 1_445
Lu0 Si2 3.118434 1_445
Lu0 Si3 3.118434 1_555
Lu0 Si2 3.118434 1_555
Lu1 Zn3 2.875778 1_545
Lu1 Zn2 2.875778 1_545
Lu1 Zn3 2.875780 1_445
Lu1 Zn2 2.875780 1_445
Lu1 Zn3 2.875781 1_555
Lu1 Zn2 2.875781 1_555
Lu1 Si0 3.118431 1_455
Lu1 Si1 3.118431 1_455
Lu1 Si0 3.118434 1_555
Lu1 Si1 3.118434 1_555
Lu1 Si0 3.118434 1_445
Lu1 Si1 3.118434 1_445
Si0 Zn2 2.398946 1_655
Si0 Zn2 2.398946 1_545
Si0 Zn2 2.398953 1_555
Si0 Y1 3.017221 1_655
Si0 Y1 3.017224 1_555
Si0 Y1 3.017224 1_665
Si1 Zn3 2.398946 1_655
Si1 Zn3 2.398946 1_545
Si1 Zn3 2.398953 1_555
Si1 Y0 3.017221 1_655
Si1 Y0 3.017224 1_555
Si1 Y0 3.017224 1_665
Si2 Zn0 2.398946 1_455
Si2 Zn0 2.398946 1_565
Si2 Zn0 2.398953 1_555
Si2 Y1 3.017221 1_566
Si2 Y1 3.017224 1_666
Si2 Y1 3.017224 1_556
Si3 Zn1 2.398946 1_455
Si3 Zn1 2.398946 1_565
Si3 Zn1 2.398953 1_555
Si3 Y0 3.017221 1_565
Si3 Y0 3.017224 1_665
Si3 Y0 3.017224 1_555
