# generated using pymatgen
data_CsNO2
_symmetry_space_group_name_H-M   'P 1'
_cell_length_a   5.90621212
_cell_length_b   5.90621191
_cell_length_c   7.92975677
_cell_angle_alpha   90.00000000
_cell_angle_beta   90.00000000
_cell_angle_gamma   120.00000119
_symmetry_Int_Tables_number   1
_chemical_formula_structural   CsNO2
_chemical_formula_sum   'Cs3 N3 O6'
_cell_volume   239.55683033
_cell_formula_units_Z   3
loop_
 _symmetry_equiv_pos_site_id
 _symmetry_equiv_pos_as_xyz
  1  'x, y, z'
loop_
 _atom_site_type_symbol
 _atom_site_label
 _atom_site_symmetry_multiplicity
 _atom_site_fract_x
 _atom_site_fract_y
 _atom_site_fract_z
 _atom_site_occupancy
  Cs  Cs0  1  0.00000000  0.69674325  0.66666700  1
  Cs  Cs1  1  0.69674325  0.00000000  0.33333300  1
  Cs  Cs2  1  0.30325675  0.30325675  0.00000000  1
  N  N0  1  0.68984929  0.00000000  0.83333300  1
  N  N1  1  -0.00000000  0.68984929  0.16666700  1
  N  N2  1  0.31015071  0.31015071  0.50000000  1
  O  O0  1  0.89547254  0.52255920  0.05015575  1
  O  O1  1  0.47744080  0.37291334  0.38348875  1
  O  O2  1  0.62708666  0.10452746  0.71682275  1
  O  O3  1  0.37291334  0.47744080  0.61651125  1
  O  O4  1  0.52255920  0.89547254  0.94984425  1
  O  O5  1  0.10452746  0.62708666  0.28317725  1
loop_
_geom_bond_atom_site_label_1
_geom_bond_atom_site_label_2
_geom_bond_distance
_geom_bond_site_symmetry_2
Cs0 O2 3.088635 1_455
Cs0 O3 3.088635 1_555
Cs0 O0 3.170472 1_456
Cs0 O5 3.170479 1_555
Cs0 O2 3.279646 1_565
Cs0 O3 3.279646 1_455
Cs0 N0 3.404589 1_465
Cs0 N2 3.404592 1_565
Cs0 O4 3.510416 1_555
Cs0 O1 3.510421 1_455
Cs1 O1 3.088635 1_555
Cs1 O5 3.088635 1_545
Cs1 O4 3.170472 1_544
Cs1 O2 3.170479 1_555
Cs1 O5 3.279646 1_655
Cs1 O1 3.279646 1_545
Cs1 N1 3.404589 1_645
Cs1 N2 3.404592 1_655
Cs1 O0 3.510416 1_555
Cs1 O3 3.510421 1_545
Cs2 O4 3.088635 1_554
Cs2 O0 3.088635 1_555
Cs2 O3 3.170472 1_554
Cs2 O1 3.170472 1_555
Cs2 O4 3.279646 1_544
Cs2 O0 3.279646 1_455
Cs2 N1 3.404592 1_545
Cs2 N0 3.404592 1_454
Cs2 O5 3.510416 1_555
Cs2 O2 3.510416 1_554
N0 O2 1.265299 1_555
N0 O4 1.265305 1_545
N1 O5 1.265299 1_555
N1 O0 1.265305 1_455
N2 O3 1.265305 1_555
N2 O1 1.265305 1_555
