# generated using pymatgen
data_Ba8P5Br
_symmetry_space_group_name_H-M   'P 1'
_cell_length_a   8.57190744
_cell_length_b   8.57191333
_cell_length_c   8.57190766
_cell_angle_alpha   109.27463403
_cell_angle_beta   109.27465781
_cell_angle_gamma   109.86505410
_symmetry_Int_Tables_number   1
_chemical_formula_structural   Ba8P5Br
_chemical_formula_sum   'Ba8 P5 Br1'
_cell_volume   484.83685273
_cell_formula_units_Z   1
loop_
 _symmetry_equiv_pos_site_id
 _symmetry_equiv_pos_as_xyz
  1  'x, y, z'
loop_
 _atom_site_type_symbol
 _atom_site_label
 _atom_site_symmetry_multiplicity
 _atom_site_fract_x
 _atom_site_fract_y
 _atom_site_fract_z
 _atom_site_occupancy
  Ba  Ba0  1  0.00142082  0.37934367  0.49474155  1
  Ba  Ba1  1  0.48316368  0.98676717  0.34266503  1
  Ba  Ba2  1  0.14409960  0.14049678  0.15733383  1
  Ba  Ba3  1  0.38460035  0.50668019  0.00525842  1
  Ba  Ba4  1  0.62065736  0.61539780  0.62207800  1
  Ba  Ba5  1  0.49331959  0.99857920  0.87792141  1
  Ba  Ba6  1  0.01323226  0.85589861  0.49639592  1
  Ba  Ba7  1  0.85950000  0.51683671  0.00360337  1
  P  P0  1  0.11857128  0.75465906  0.87462039  1
  P  P1  1  0.24533989  0.61996084  0.36391174  1
  P  P2  1  0.38003888  0.24395148  0.62537950  1
  P  P3  1  0.62499924  0.37499967  0.24999911  1
  P  P4  1  0.75604818  0.88142903  0.13608848  1
  Br  Br0  1  0.87500688  0.12500180  0.75000324  1
loop_
_geom_bond_atom_site_label_1
_geom_bond_atom_site_label_2
_geom_bond_distance
_geom_bond_site_symmetry_2
Ba0 P1 3.166659 1_555
Ba0 P3 3.195569 1_455
Ba0 P0 3.269767 1_555
Ba0 P4 3.613766 1_445
Ba0 Br0 3.718109 1_455
Ba0 P2 3.761982 1_555
Ba1 P1 3.215935 1_555
Ba1 P2 3.275054 1_565
Ba1 Br0 3.420316 1_565
Ba1 P0 3.471094 1_554
Ba1 P4 3.540744 1_555
Ba1 P3 3.580085 1_565
Ba2 P4 3.215921 1_445
Ba2 P0 3.275050 1_544
Ba2 Br0 3.420234 1_454
Ba2 P2 3.471096 1_555
Ba2 P1 3.540766 1_555
Ba2 P3 3.580096 1_555
Ba3 P4 3.166664 1_555
Ba3 P3 3.195572 1_555
Ba3 P2 3.269777 1_554
Ba3 P1 3.613758 1_555
Ba3 Br0 3.718063 1_454
Ba3 P0 3.761967 1_554
Ba4 P2 3.166658 1_555
Ba4 P3 3.195568 1_555
Ba4 P1 3.269780 1_555
Ba4 P0 3.613758 1_655
Ba4 Br0 3.718128 1_565
Ba4 P4 3.761990 1_556
Ba5 P0 3.166662 1_555
Ba5 P3 3.195566 1_566
Ba5 P4 3.269774 1_556
Ba5 P2 3.613760 1_565
Ba5 Br0 3.718146 1_565
Ba5 P1 3.761982 1_555
Ba6 P2 3.215933 1_565
Ba6 P4 3.275043 1_455
Ba6 Br0 3.420247 1_465
Ba6 P1 3.471097 1_555
Ba6 P0 3.540764 1_555
Ba6 P3 3.580091 1_455
Ba7 P0 3.215934 1_654
Ba7 P1 3.275055 1_655
Ba7 Br0 3.420298 1_554
Ba7 P4 3.471092 1_555
Ba7 P2 3.540748 1_554
Ba7 P3 3.580074 1_555
