# generated using pymatgen
data_K4Ba2SiP4
_symmetry_space_group_name_H-M   'P 1'
_cell_length_a   10.03120048
_cell_length_b   10.03118566
_cell_length_c   7.83742176
_cell_angle_alpha   89.18470092
_cell_angle_beta   89.18475426
_cell_angle_gamma   119.57988601
_symmetry_Int_Tables_number   1
_chemical_formula_structural   K4Ba2SiP4
_chemical_formula_sum   'K8 Ba4 Si2 P8'
_cell_volume   685.58027666
_cell_formula_units_Z   2
loop_
 _symmetry_equiv_pos_site_id
 _symmetry_equiv_pos_as_xyz
  1  'x, y, z'
loop_
 _atom_site_type_symbol
 _atom_site_label
 _atom_site_symmetry_multiplicity
 _atom_site_fract_x
 _atom_site_fract_y
 _atom_site_fract_z
 _atom_site_occupancy
  K  K0  1  0.04920417  0.52426746  0.61087437  1
  K  K1  1  0.52427112  0.04920877  0.11086885  1
  K  K2  1  0.27182069  0.13334638  0.81562574  1
  K  K3  1  0.86923370  0.72324996  0.77514521  1
  K  K4  1  0.86132982  0.15004142  0.79606395  1
  K  K5  1  0.72326342  0.86923798  0.27514774  1
  K  K6  1  0.13334306  0.27181588  0.31562510  1
  K  K7  1  0.15004247  0.86133261  0.29607306  1
  Ba  Ba0  1  0.47192250  0.94924022  0.61197282  1
  Ba  Ba1  1  0.46729378  0.52412668  0.61037328  1
  Ba  Ba2  1  0.94923784  0.47192368  0.11197551  1
  Ba  Ba3  1  0.52412775  0.46729664  0.11037113  1
  Si  Si0  1  0.66871762  0.33725171  0.50025625  1
  Si  Si1  1  0.33725565  0.66872385  0.00025896  1
  P  P0  1  0.66241683  0.34103724  0.79765188  1
  P  P1  1  0.34103764  0.66241844  0.29765204  1
  P  P2  1  0.58901992  0.79012997  0.89317727  1
  P  P3  1  0.20830297  0.41100094  0.91741877  1
  P  P4  1  0.20657198  0.79028387  0.90745429  1
  P  P5  1  0.41100150  0.20830108  0.41742061  1
  P  P6  1  0.79013051  0.58902107  0.39317701  1
  P  P7  1  0.79028208  0.20657114  0.40745215  1
loop_
_geom_bond_atom_site_label_1
_geom_bond_atom_site_label_2
_geom_bond_distance
_geom_bond_site_symmetry_2
K0 P4 3.337319 1_555
K0 P3 3.381089 1_555
K0 P7 3.396238 1_455
K0 P6 3.442105 1_455
K0 Si0 3.451065 1_455
K0 P1 3.494299 1_555
K0 P0 3.646408 1_455
K1 P7 3.337303 1_555
K1 P5 3.381107 1_555
K1 P4 3.396234 1_544
K1 P2 3.442099 1_544
K1 Si1 3.451030 1_545
K1 P0 3.494237 1_554
K1 P1 3.646443 1_545
K2 P4 3.237504 1_545
K2 P3 3.255859 1_555
K2 P5 3.320759 1_555
K2 P0 3.410138 1_555
K3 P6 3.245309 1_555
K3 P4 3.294162 1_655
K3 P2 3.318484 1_555
K3 P0 3.339530 1_555
K4 P7 3.243067 1_555
K4 P3 3.322839 1_655
K4 P2 3.346882 1_545
K4 P0 3.380305 1_555
K5 P2 3.245373 1_554
K5 P7 3.294143 1_565
K5 P6 3.318422 1_555
K5 P1 3.339646 1_555
K6 P7 3.237505 1_455
K6 P5 3.255885 1_555
K6 P3 3.320779 1_554
K6 P1 3.410189 1_555
K7 P4 3.243122 1_554
K7 P5 3.322786 1_565
K7 P6 3.346878 1_455
K7 P1 3.380309 1_555
Ba0 P4 3.243429 1_555
Ba0 P2 3.257132 1_555
Ba0 P5 3.306545 1_565
Ba0 P7 3.321021 1_565
Ba0 P1 3.554548 1_555
Ba0 P0 3.747391 1_565
Ba1 P2 3.248420 1_555
Ba1 P3 3.265272 1_555
Ba1 P5 3.322214 1_555
Ba1 P1 3.355834 1_555
Ba1 P6 3.396946 1_555
Ba1 P0 3.593424 1_555
Ba2 P7 3.243411 1_555
Ba2 P6 3.257099 1_555
Ba2 P3 3.306612 1_654
Ba2 P4 3.321034 1_654
Ba2 P0 3.554561 1_554
Ba2 P1 3.747409 1_655
Ba3 P6 3.248429 1_555
Ba3 P5 3.265320 1_555
Ba3 P3 3.322199 1_554
Ba3 P0 3.355828 1_554
Ba3 P2 3.396908 1_554
Ba3 P1 3.593428 1_555
P0 Si0 2.332130 1_555
P1 Si1 2.332110 1_555
P2 Si1 2.332315 1_556
P3 Si1 2.355517 1_556
P4 Si1 2.305323 1_556
P5 Si0 2.355452 1_555
P6 Si0 2.332346 1_555
P7 Si0 2.305332 1_555
