# generated using pymatgen
data_CsLu(SeO4)2
_symmetry_space_group_name_H-M   'P 1'
_cell_length_a   5.36183170
_cell_length_b   5.36183126
_cell_length_c   9.01462894
_cell_angle_alpha   90.00000000
_cell_angle_beta   90.00000000
_cell_angle_gamma   119.99999227
_symmetry_Int_Tables_number   1
_chemical_formula_structural   CsLu(SeO4)2
_chemical_formula_sum   'Cs1 Lu1 Se2 O8'
_cell_volume   224.44236765
_cell_formula_units_Z   1
loop_
 _symmetry_equiv_pos_site_id
 _symmetry_equiv_pos_as_xyz
  1  'x, y, z'
loop_
 _atom_site_type_symbol
 _atom_site_label
 _atom_site_symmetry_multiplicity
 _atom_site_fract_x
 _atom_site_fract_y
 _atom_site_fract_z
 _atom_site_occupancy
  Cs  Cs0  1  0.00000000  0.00000000  0.50000100  1
  Lu  Lu0  1  0.00000000  0.00000000  0.00000000  1
  Se  Se0  1  0.33333400  0.66666800  0.20733315  1
  Se  Se1  1  0.66666600  0.33333400  0.79266685  1
  O  O0  1  0.07376696  0.35400274  0.14419511  1
  O  O1  1  0.64599826  0.71976522  0.14419511  1
  O  O2  1  0.28023478  0.92623204  0.14419511  1
  O  O3  1  0.33333400  0.66666800  0.38749364  1
  O  O4  1  0.66666600  0.33333400  0.61250636  1
  O  O5  1  0.71976422  0.07376696  0.85580489  1
  O  O6  1  0.35400374  0.28023678  0.85580489  1
  O  O7  1  0.92623104  0.64599626  0.85580489  1
loop_
_geom_bond_atom_site_label_1
_geom_bond_atom_site_label_2
_geom_bond_distance
_geom_bond_site_symmetry_2
Cs0 O4 3.257553 1_445
Cs0 O4 3.257553 1_555
Cs0 O3 3.257558 1_545
Cs0 O3 3.257559 1_445
Cs0 O4 3.257561 1_455
Cs0 O3 3.257567 1_555
Cs0 O5 3.646390 1_455
Cs0 O7 3.646391 1_445
Cs0 O6 3.646392 1_555
Cs0 O1 3.646403 1_445
Cs0 O2 3.646405 1_545
Cs0 O0 3.646406 1_555
Lu0 O1 2.167515 1_445
Lu0 O2 2.167517 1_545
Lu0 O0 2.167519 1_555
Lu0 O5 2.167519 1_454
Lu0 O7 2.167520 1_444
Lu0 O6 2.167523 1_554
O0 Se0 1.654758 1_555
O1 Se0 1.654755 1_555
O2 Se0 1.654747 1_555
O3 Se0 1.624080 1_555
O4 Se1 1.624080 1_555
O5 Se1 1.654758 1_555
O6 Se1 1.654745 1_555
O7 Se1 1.654745 1_555
