# generated using pymatgen
data_Y20NiHg6Ir
_symmetry_space_group_name_H-M   'P 1'
_cell_length_a   9.70658841
_cell_length_b   9.70658854
_cell_length_c   9.55162913
_cell_angle_alpha   90.00000000
_cell_angle_beta   90.00000000
_cell_angle_gamma   119.99999955
_symmetry_Int_Tables_number   1
_chemical_formula_structural   Y20NiHg6Ir
_chemical_formula_sum   'Y20 Ni1 Hg6 Ir1'
_cell_volume   779.36575572
_cell_formula_units_Z   1
loop_
 _symmetry_equiv_pos_site_id
 _symmetry_equiv_pos_as_xyz
  1  'x, y, z'
loop_
 _atom_site_type_symbol
 _atom_site_label
 _atom_site_symmetry_multiplicity
 _atom_site_fract_x
 _atom_site_fract_y
 _atom_site_fract_z
 _atom_site_occupancy
  Y  Y0  1  0.00000000  0.00000000  0.49860589  1
  Y  Y1  1  0.00000000  0.00000000  0.00139411  1
  Y  Y2  1  0.54137209  0.45862791  0.25000000  1
  Y  Y3  1  0.54137209  0.08274517  0.25000000  1
  Y  Y4  1  0.91725483  0.45862791  0.25000000  1
  Y  Y5  1  0.45693477  0.54306523  0.75000000  1
  Y  Y6  1  0.45693477  0.91386754  0.75000000  1
  Y  Y7  1  0.08613246  0.54306523  0.75000000  1
  Y  Y8  1  0.20808832  0.79191168  0.43815421  1
  Y  Y9  1  0.20808832  0.41617764  0.43815421  1
  Y  Y10  1  0.58382236  0.79191168  0.43815421  1
  Y  Y11  1  0.79076705  0.20923295  0.56510102  1
  Y  Y12  1  0.79076705  0.58153410  0.56510102  1
  Y  Y13  1  0.41846590  0.20923295  0.56510102  1
  Y  Y14  1  0.79076705  0.20923295  0.93489898  1
  Y  Y15  1  0.79076705  0.58153410  0.93489898  1
  Y  Y16  1  0.41846590  0.20923295  0.93489898  1
  Y  Y17  1  0.20808832  0.79191168  0.06184579  1
  Y  Y18  1  0.20808832  0.41617764  0.06184579  1
  Y  Y19  1  0.58382236  0.79191168  0.06184579  1
  Ni  Ni0  1  0.66666700  0.33333300  0.75000000  1
  Hg  Hg0  1  0.87930799  0.12069201  0.25000000  1
  Hg  Hg1  1  0.87930799  0.75861598  0.25000000  1
  Hg  Hg2  1  0.24138402  0.12069201  0.25000000  1
  Hg  Hg3  1  0.12012360  0.87987640  0.75000000  1
  Hg  Hg4  1  0.12012360  0.24024720  0.75000000  1
  Hg  Hg5  1  0.75975280  0.87987640  0.75000000  1
  Ir  Ir0  1  0.33333300  0.66666700  0.25000000  1
loop_
_geom_bond_atom_site_label_1
_geom_bond_atom_site_label_2
_geom_bond_distance
_geom_bond_site_symmetry_2
Ni0 Y14 2.733525 1_555
Ni0 Y11 2.733525 1_555
Ni0 Y16 2.733531 1_555
Ni0 Y13 2.733531 1_555
Ni0 Y15 2.733531 1_555
Ni0 Y12 2.733531 1_555
Hg0 Y3 3.112427 1_555
Hg0 Y4 3.112427 1_555
Hg0 Y0 3.123456 1_655
Hg0 Y1 3.123456 1_655
Hg0 Y11 3.357726 1_555
Hg0 Y14 3.357726 1_554
Hg0 Y18 3.533773 1_655
Hg0 Y9 3.533773 1_655
Hg0 Y19 3.533773 1_545
Hg0 Y10 3.533773 1_545
Hg1 Y4 3.112417 1_555
Hg1 Y2 3.112423 1_555
Hg1 Y0 3.123456 1_665
Hg1 Y1 3.123456 1_665
Hg1 Y12 3.357726 1_555
Hg1 Y15 3.357726 1_554
Hg1 Y17 3.533769 1_655
Hg1 Y8 3.533769 1_655
Hg1 Y10 3.533777 1_555
Hg1 Y19 3.533777 1_555
Hg2 Y3 3.112417 1_555
Hg2 Y2 3.112423 1_555
Hg2 Y0 3.123456 1_555
Hg2 Y1 3.123456 1_555
Hg2 Y13 3.357726 1_555
Hg2 Y16 3.357726 1_554
Hg2 Y17 3.533769 1_545
Hg2 Y8 3.533769 1_545
Hg2 Y18 3.533778 1_555
Hg2 Y9 3.533778 1_555
Hg3 Y6 3.117441 1_555
Hg3 Y7 3.117441 1_555
Hg3 Y1 3.137590 1_566
Hg3 Y0 3.137590 1_565
Hg3 Y8 3.325565 1_555
Hg3 Y17 3.325565 1_556
Hg3 Y15 3.530953 1_455
Hg3 Y12 3.530953 1_455
Hg3 Y16 3.530953 1_565
Hg3 Y13 3.530953 1_565
Hg4 Y7 3.117421 1_555
Hg4 Y5 3.117433 1_555
Hg4 Y1 3.137590 1_556
Hg4 Y0 3.137590 1_555
Hg4 Y9 3.325569 1_555
Hg4 Y18 3.325569 1_556
Hg4 Y14 3.530953 1_455
Hg4 Y16 3.530953 1_555
Hg4 Y11 3.530953 1_455
Hg4 Y13 3.530953 1_555
Hg5 Y6 3.117421 1_555
Hg5 Y5 3.117433 1_555
Hg5 Y1 3.137590 1_666
Hg5 Y0 3.137590 1_665
Hg5 Y10 3.325569 1_555
Hg5 Y19 3.325569 1_556
Hg5 Y15 3.530953 1_555
Hg5 Y12 3.530953 1_555
Hg5 Y14 3.530953 1_565
Hg5 Y11 3.530953 1_565
Ir0 Y19 2.768325 1_555
Ir0 Y10 2.768325 1_555
Ir0 Y17 2.768325 1_555
Ir0 Y8 2.768325 1_555
Ir0 Y18 2.768325 1_555
Ir0 Y9 2.768325 1_555
