# generated using pymatgen
data_AgP4RhO12
_symmetry_space_group_name_H-M   'P 1'
_cell_length_a   10.35474776
_cell_length_b   10.35474772
_cell_length_c   5.08343414
_cell_angle_alpha   81.31977132
_cell_angle_beta   81.31976304
_cell_angle_gamma   71.16762511
_symmetry_Int_Tables_number   1
_chemical_formula_structural   AgP4RhO12
_chemical_formula_sum   'Ag2 P8 Rh2 O24'
_cell_volume   506.91132123
_cell_formula_units_Z   2
loop_
 _symmetry_equiv_pos_site_id
 _symmetry_equiv_pos_as_xyz
  1  'x, y, z'
loop_
 _atom_site_type_symbol
 _atom_site_label
 _atom_site_symmetry_multiplicity
 _atom_site_fract_x
 _atom_site_fract_y
 _atom_site_fract_z
 _atom_site_occupancy
  Ag  Ag0  1  0.42007909  0.42007909  0.71633705  1
  Ag  Ag1  1  0.57992091  0.57992091  0.28366295  1
  P  P0  1  0.78701940  0.36654461  0.83033027  1
  P  P1  1  0.06506919  0.30651586  0.52968451  1
  P  P2  1  0.30651586  0.06506919  0.52968451  1
  P  P3  1  0.63345539  0.21298060  0.16966973  1
  P  P4  1  0.36654461  0.78701940  0.83033027  1
  P  P5  1  0.69348414  0.93493081  0.47031549  1
  P  P6  1  0.93493081  0.69348414  0.47031549  1
  P  P7  1  0.21298060  0.63345539  0.16966973  1
  Rh  Rh0  1  0.50000000  0.00000000  0.00000000  1
  Rh  Rh1  1  0.00000000  0.50000000  0.00000000  1
  O  O0  1  0.44756549  0.82677620  0.01070437  1
  O  O1  1  0.40606439  0.09979908  0.67120113  1
  O  O2  1  0.43698051  0.66572156  0.68929590  1
  O  O3  1  0.17322380  0.55243451  0.98929563  1
  O  O4  1  0.55243451  0.17322380  0.98929563  1
  O  O5  1  0.91502690  0.67489257  0.76911046  1
  O  O6  1  0.22813981  0.77186019  1.00000000  1
  O  O7  1  0.56301949  0.33427844  0.31070410  1
  O  O8  1  0.59393561  0.90020092  0.32879887  1
  O  O9  1  0.70258985  0.08279137  0.36980351  1
  O  O10  1  0.33427844  0.56301949  0.31070410  1
  O  O11  1  0.90020092  0.59393561  0.32879887  1
  O  O12  1  0.82677620  0.44756549  0.01070437  1
  O  O13  1  0.08279137  0.70258985  0.36980351  1
  O  O14  1  0.15406666  0.15406666  0.61900964  1
  O  O15  1  0.09979908  0.40606439  0.67120113  1
  O  O16  1  0.66572156  0.43698051  0.68929590  1
  O  O17  1  0.29741015  0.91720863  0.63019649  1
  O  O18  1  0.77186019  0.22813981  0.00000000  1
  O  O19  1  0.32510743  0.08497310  0.23088954  1
  O  O20  1  0.67489257  0.91502690  0.76911046  1
  O  O21  1  0.84593334  0.84593334  0.38099036  1
  O  O22  1  0.91720863  0.29741015  0.63019649  1
  O  O23  1  0.08497310  0.32510743  0.23088954  1
loop_
_geom_bond_atom_site_label_1
_geom_bond_atom_site_label_2
_geom_bond_distance
_geom_bond_site_symmetry_2
Ag0 O7 2.452494 1_555
Ag0 O10 2.452494 1_555
Ag0 O16 2.587246 1_555
Ag0 O2 2.587246 1_555
Ag0 O3 2.753031 1_555
Ag0 O4 2.753031 1_555
Ag1 O2 2.452494 1_555
Ag1 O16 2.452494 1_555
Ag1 O10 2.587246 1_555
Ag1 O7 2.587246 1_555
Ag1 O12 2.753031 1_555
Ag1 O0 2.753031 1_555
O0 P4 1.511010 1_554
O0 Rh0 2.026186 1_565
O1 P2 1.500212 1_555
O1 Rh0 2.031776 1_556
O2 P4 1.464944 1_555
O3 P7 1.511010 1_556
O3 Rh1 2.026186 1_556
O4 P3 1.511010 1_556
O4 Rh0 2.026186 1_556
O5 P6 1.493143 1_555
O5 Rh1 2.018120 1_656
O6 P4 1.598040 1_555
O6 P7 1.598040 1_556
O7 P3 1.464944 1_555
O8 P5 1.500212 1_555
O8 Rh0 2.031776 1_565
O9 P5 1.567364 1_545
O9 P3 1.596133 1_555
O10 P7 1.464944 1_555
O11 P6 1.500212 1_555
O11 Rh1 2.031776 1_655
O12 P0 1.511010 1_554
O12 Rh1 2.026186 1_655
O13 P6 1.567364 1_455
O13 P7 1.596133 1_555
O14 P2 1.586853 1_555
O14 P1 1.586853 1_555
O15 P1 1.500212 1_555
O15 Rh1 2.031776 1_556
O16 P0 1.464944 1_555
O17 P2 1.567364 1_565
O17 P4 1.596133 1_555
O18 P3 1.598040 1_555
O18 P0 1.598040 1_554
O19 P2 1.493143 1_555
O19 Rh0 2.018120 1_555
O20 P5 1.493143 1_555
O20 Rh0 2.018120 1_566
O21 P5 1.586853 1_555
O21 P6 1.586853 1_555
O22 P1 1.567364 1_655
O22 P0 1.596133 1_555
O23 P1 1.493143 1_555
O23 Rh1 2.018120 1_555
