# generated using pymatgen
data_Na2VH2F8
_symmetry_space_group_name_H-M   'P 1'
_cell_length_a   5.36064053
_cell_length_b   5.38936837
_cell_length_c   5.38936858
_cell_angle_alpha   94.88411789
_cell_angle_beta   106.71133141
_cell_angle_gamma   106.71133181
_symmetry_Int_Tables_number   1
_chemical_formula_structural   Na2VH2F8
_chemical_formula_sum   'Na2 V1 H2 F8'
_cell_volume   140.41651783
_cell_formula_units_Z   1
loop_
 _symmetry_equiv_pos_site_id
 _symmetry_equiv_pos_as_xyz
  1  'x, y, z'
loop_
 _atom_site_type_symbol
 _atom_site_label
 _atom_site_symmetry_multiplicity
 _atom_site_fract_x
 _atom_site_fract_y
 _atom_site_fract_z
 _atom_site_occupancy
  Na  Na0  1  0.49999900  0.73367350  0.26632450  1
  Na  Na1  1  0.49999900  0.26632450  0.73367350  1
  V  V0  1  0.00000000  0.00000000  0.00000000  1
  H  H0  1  0.77692125  0.34686554  0.34686554  1
  H  H1  1  0.22307875  0.65313546  0.65313546  1
  F  F0  1  0.77442708  0.67281236  0.00506641  1
  F  F1  1  0.77721949  0.14402262  0.14402262  1
  F  F2  1  0.22557292  0.99493459  0.32718864  1
  F  F3  1  0.73216262  0.46263063  0.46263063  1
  F  F4  1  0.26783738  0.53736937  0.53736937  1
  F  F5  1  0.77442708  0.00506641  0.67281236  1
  F  F6  1  0.22278051  0.85597638  0.85597638  1
  F  F7  1  0.22557292  0.32718864  0.99493459  1
loop_
_geom_bond_atom_site_label_1
_geom_bond_atom_site_label_2
_geom_bond_distance
_geom_bond_site_symmetry_2
F0 V0 1.836634 1_665
F0 Na1 2.337993 1_554
F0 Na0 2.375785 1_555
F1 H0 1.479414 1_555
F1 V0 1.895988 1_655
F1 Na0 2.540706 1_545
F1 Na1 2.540706 1_554
F2 V0 1.836637 1_565
F2 Na1 2.337974 1_565
F2 Na0 2.375792 1_555
F3 H0 0.970552 1_555
F3 Na0 2.313746 1_555
F3 Na1 2.313746 1_555
F4 H1 0.970559 1_555
F4 Na1 2.313745 1_555
F4 Na0 2.313745 1_555
F5 V0 1.836634 1_656
F5 Na0 2.337993 1_545
F5 Na1 2.375785 1_555
F6 H1 1.479399 1_555
F6 V0 1.895994 1_566
F6 Na1 2.540701 1_565
F6 Na0 2.540701 1_556
F7 V0 1.836637 1_556
F7 Na0 2.337974 1_556
F7 Na1 2.375792 1_555
