# generated using pymatgen
data_Tc3HSe4
_symmetry_space_group_name_H-M   'P 1'
_cell_length_a   10.45774191
_cell_length_b   6.62778516
_cell_length_c   10.20486739
_cell_angle_alpha   69.58869624
_cell_angle_beta   90.00000000
_cell_angle_gamma   90.00000000
_symmetry_Int_Tables_number   1
_chemical_formula_structural   Tc3HSe4
_chemical_formula_sum   'Tc12 H4 Se16'
_cell_volume   662.90623658
_cell_formula_units_Z   4
loop_
 _symmetry_equiv_pos_site_id
 _symmetry_equiv_pos_as_xyz
  1  'x, y, z'
loop_
 _atom_site_type_symbol
 _atom_site_label
 _atom_site_symmetry_multiplicity
 _atom_site_fract_x
 _atom_site_fract_y
 _atom_site_fract_z
 _atom_site_occupancy
  Tc  Tc0  1  0.62485702  0.99634766  0.37253273  1
  Tc  Tc1  1  0.87514298  0.99634766  0.87253273  1
  Tc  Tc2  1  0.37514298  0.00365234  0.62746727  1
  Tc  Tc3  1  0.12485702  0.00365234  0.12746727  1
  Tc  Tc4  1  0.37295756  0.99508786  0.37508596  1
  Tc  Tc5  1  0.12704244  0.99508786  0.87508596  1
  Tc  Tc6  1  0.62704244  0.00491214  0.62491404  1
  Tc  Tc7  1  0.87295756  0.00491214  0.12491404  1
  Tc  Tc8  1  0.50053776  0.70390313  0.57051459  1
  Tc  Tc9  1  0.99946224  0.70390313  0.07051459  1
  Tc  Tc10  1  0.49946224  0.29609687  0.42948541  1
  Tc  Tc11  1  0.00053776  0.29609687  0.92948541  1
  H  H0  1  0.24649215  0.99787611  0.25416592  1
  H  H1  1  0.25350785  0.99787611  0.75416592  1
  H  H2  1  0.75350785  0.00212389  0.74583408  1
  H  H3  1  0.74649215  0.00212389  0.24583408  1
  Se  Se0  1  0.49836568  0.71943137  0.31209912  1
  Se  Se1  1  0.00163432  0.71943137  0.81209912  1
  Se  Se2  1  0.50163432  0.28056863  0.68790088  1
  Se  Se3  1  0.99836568  0.28056863  0.18790088  1
  Se  Se4  1  0.26143988  0.71485537  0.57106311  1
  Se  Se5  1  0.23856012  0.71485537  0.07106311  1
  Se  Se6  1  0.73856012  0.28514463  0.42893689  1
  Se  Se7  1  0.76143988  0.28514463  0.92893689  1
  Se  Se8  1  0.49755205  0.27312124  0.18988872  1
  Se  Se9  1  0.00244795  0.27312124  0.68988872  1
  Se  Se10  1  0.50244795  0.72687876  0.81011128  1
  Se  Se11  1  0.99755205  0.72687876  0.31011128  1
  Se  Se12  1  0.73954180  0.71749418  0.56615288  1
  Se  Se13  1  0.76045820  0.71749418  0.06615288  1
  Se  Se14  1  0.26045820  0.28250582  0.43384712  1
  Se  Se15  1  0.23954180  0.28250582  0.93384712  1
loop_
_geom_bond_atom_site_label_1
_geom_bond_atom_site_label_2
_geom_bond_distance
_geom_bond_site_symmetry_2
H0 Tc4 1.804507 1_555
H0 Tc3 1.804633 1_565
H1 Tc5 1.804507 1_555
H1 Tc2 1.804633 1_565
H2 Tc6 1.804507 1_555
H2 Tc1 1.804633 1_545
H3 Tc7 1.804507 1_555
H3 Tc0 1.804633 1_545
Se0 Tc0 2.507621 1_555
Se0 Tc4 2.508021 1_555
Se0 Tc8 2.603089 1_555
Se0 Tc10 2.638765 1_555
Se1 Tc1 2.507621 1_455
Se1 Tc5 2.508021 1_555
Se1 Tc9 2.603089 1_456
Se1 Tc11 2.638765 1_555
Se2 Tc2 2.507621 1_555
Se2 Tc6 2.508021 1_555
Se2 Tc10 2.603089 1_555
Se2 Tc8 2.638765 1_555
Se3 Tc3 2.507621 1_655
Se3 Tc7 2.508021 1_555
Se3 Tc11 2.603089 1_654
Se3 Tc9 2.638765 1_555
Se4 Tc2 2.485441 1_565
Se4 Tc4 2.493690 1_555
Se4 Tc8 2.501540 1_555
Se5 Tc3 2.485441 1_565
Se5 Tc5 2.493690 1_554
Se5 Tc9 2.501540 1_455
Se6 Tc0 2.485441 1_545
Se6 Tc6 2.493690 1_555
Se6 Tc10 2.501540 1_555
Se7 Tc1 2.485441 1_545
Se7 Tc7 2.493690 1_556
Se7 Tc11 2.501540 1_655
Se8 Tc0 2.495307 1_545
Se8 Tc4 2.497208 1_545
Se8 Tc10 2.502313 1_555
Se9 Tc1 2.495307 1_445
Se9 Tc5 2.497208 1_545
Se9 Tc11 2.502313 1_555
Se10 Tc2 2.495307 1_565
Se10 Tc6 2.497208 1_565
Se10 Tc8 2.502313 1_555
Se11 Tc3 2.495307 1_665
Se11 Tc7 2.497208 1_565
Se11 Tc9 2.502313 1_555
Se12 Tc6 2.483806 1_565
Se12 Tc0 2.492207 1_555
Se12 Tc8 2.500902 1_555
Se13 Tc7 2.483806 1_565
Se13 Tc1 2.492207 1_554
Se13 Tc9 2.500902 1_555
Se14 Tc4 2.483806 1_545
Se14 Tc2 2.492207 1_555
Se14 Tc10 2.500902 1_555
Se15 Tc5 2.483806 1_545
Se15 Tc3 2.492207 1_556
Se15 Tc11 2.500902 1_555
