# generated using pymatgen
data_Hf5Zr5Sn6Ge
_symmetry_space_group_name_H-M   'P 1'
_cell_length_a   5.83693907
_cell_length_b   8.54645912
_cell_length_c   8.54542792
_cell_angle_alpha   120.00400653
_cell_angle_beta   89.92289056
_cell_angle_gamma   90.15421301
_symmetry_Int_Tables_number   1
_chemical_formula_structural   Hf5Zr5Sn6Ge
_chemical_formula_sum   'Hf5 Zr5 Sn6 Ge1'
_cell_volume   369.16176912
_cell_formula_units_Z   1
loop_
 _symmetry_equiv_pos_site_id
 _symmetry_equiv_pos_as_xyz
  1  'x, y, z'
loop_
 _atom_site_type_symbol
 _atom_site_label
 _atom_site_symmetry_multiplicity
 _atom_site_fract_x
 _atom_site_fract_y
 _atom_site_fract_z
 _atom_site_occupancy
  Hf  Hf0  1  0.49988677  0.33324708  0.66662165  1
  Hf  Hf1  1  0.49988677  0.66662643  0.33337835  1
  Hf  Hf2  1  0.99956911  0.66640166  0.33341567  1
  Hf  Hf3  1  0.99956911  0.33298598  0.66658433  1
  Hf  Hf4  1  0.75921685  0.25641775  1.00000000  1
  Zr  Zr0  1  0.75998800  0.74379530  0.74414419  1
  Zr  Zr1  1  0.75998800  0.99964911  0.25585581  1
  Zr  Zr2  1  0.24191352  0.74413659  0.00000000  1
  Zr  Zr3  1  0.23955665  0.25581861  0.25488578  1
  Zr  Zr4  1  0.23955665  0.00093383  0.74511422  1
  Sn  Sn0  1  0.74690882  0.60568522  1.00000000  1
  Sn  Sn1  1  0.74557532  0.39218263  0.39155706  1
  Sn  Sn2  1  0.74557532  0.00062658  0.60844294  1
  Sn  Sn3  1  0.25351963  0.39324698  0.00000000  1
  Sn  Sn4  1  0.25387229  0.60718986  0.60719861  1
  Sn  Sn5  1  0.25387229  0.99999125  0.39280139  1
  Ge  Ge0  1  0.50154489  0.00106313  0.00000000  1
loop_
_geom_bond_atom_site_label_1
_geom_bond_atom_site_label_2
_geom_bond_distance
_geom_bond_site_symmetry_2
Hf0 Sn5 2.995160 1_545
Hf0 Sn0 2.995873 1_555
Hf0 Sn3 2.996464 1_556
Hf0 Sn2 2.998563 1_555
Hf0 Sn1 3.001074 1_555
Hf0 Sn4 3.001725 1_555
Hf1 Sn4 2.995166 1_555
Hf1 Sn0 2.995871 1_554
Hf1 Sn3 2.996466 1_555
Hf1 Sn1 2.998578 1_555
Hf1 Sn2 3.001073 1_565
Hf1 Sn5 3.001718 1_555
Hf2 Sn1 3.013490 1_555
Hf2 Sn0 3.015055 1_554
Hf2 Sn3 3.019928 1_655
Hf2 Sn5 3.020156 1_655
Hf2 Sn4 3.021683 1_655
Hf2 Sn2 3.029864 1_565
Hf3 Sn2 3.013482 1_555
Hf3 Sn0 3.015055 1_555
Hf3 Sn3 3.019928 1_656
Hf3 Sn4 3.020156 1_655
Hf3 Sn5 3.021683 1_645
Hf3 Sn1 3.029860 1_555
Hf4 Sn2 2.943706 1_555
Hf4 Sn1 2.943708 1_556
Hf4 Sn0 2.986058 1_555
Hf4 Sn3 3.110275 1_656
Hf4 Sn3 3.177855 1_556
Sn0 Zr1 2.959630 1_556
Sn0 Zr0 2.959644 1_555
Sn0 Zr2 3.119270 1_656
Sn0 Zr2 3.179214 1_556
Sn1 Zr1 2.952424 1_545
Sn1 Zr0 3.009914 1_555
Sn1 Zr3 3.111853 1_655
Sn1 Zr3 3.174188 1_555
Sn2 Zr0 2.952417 1_545
Sn2 Zr1 3.009902 1_545
Sn2 Zr4 3.111853 1_655
Sn2 Zr4 3.174189 1_555
Sn3 Zr4 2.947512 1_554
Sn3 Zr3 2.947519 1_555
Sn3 Zr2 2.999811 1_555
Sn4 Zr2 2.951701 1_556
Sn4 Zr4 2.958849 1_565
Sn4 Zr3 3.007696 1_555
Sn4 Zr0 3.112158 1_455
Sn4 Zr0 3.175524 1_555
Sn5 Zr2 2.951701 1_555
Sn5 Zr3 2.958841 1_565
Sn5 Zr4 3.007693 1_565
Sn5 Zr1 3.112154 1_455
Sn5 Zr1 3.175521 1_555
Ge0 Hf4 2.647105 1_554
Ge0 Zr3 2.662549 1_555
Ge0 Zr4 2.662553 1_554
Ge0 Zr0 2.662980 1_544
Ge0 Zr1 2.662988 1_545
Ge0 Zr2 2.664634 1_545
