# generated using pymatgen
data_Hf4Pt2O
_symmetry_space_group_name_H-M   'P 1'
_cell_length_a   8.74940012
_cell_length_b   8.74940037
_cell_length_c   8.74940038
_cell_angle_alpha   60.00000366
_cell_angle_beta   60.00000274
_cell_angle_gamma   59.99999845
_symmetry_Int_Tables_number   1
_chemical_formula_structural   Hf4Pt2O
_chemical_formula_sum   'Hf16 Pt8 O4'
_cell_volume   473.60892371
_cell_formula_units_Z   4
loop_
 _symmetry_equiv_pos_site_id
 _symmetry_equiv_pos_as_xyz
  1  'x, y, z'
loop_
 _atom_site_type_symbol
 _atom_site_label
 _atom_site_symmetry_multiplicity
 _atom_site_fract_x
 _atom_site_fract_y
 _atom_site_fract_z
 _atom_site_occupancy
  Hf  Hf0  1  0.12500000  0.62500000  0.62500000  1
  Hf  Hf1  1  0.62500000  0.12500000  0.62500000  1
  Hf  Hf2  1  0.62500000  0.62500000  0.12500000  1
  Hf  Hf3  1  0.62500000  0.62500000  0.62500000  1
  Hf  Hf4  1  0.81251851  0.81251851  0.18748149  1
  Hf  Hf5  1  0.18748149  0.18748149  0.81251851  1
  Hf  Hf6  1  0.81251851  0.18748149  0.81251851  1
  Hf  Hf7  1  0.18748149  0.81251851  0.18748149  1
  Hf  Hf8  1  0.18748149  0.81251851  0.81251851  1
  Hf  Hf9  1  0.81251851  0.18748149  0.18748149  1
  Hf  Hf10  1  0.43748149  0.43748149  0.06251851  1
  Hf  Hf11  1  0.06251851  0.06251851  0.43748149  1
  Hf  Hf12  1  0.43748149  0.06251851  0.43748149  1
  Hf  Hf13  1  0.06251851  0.43748149  0.06251851  1
  Hf  Hf14  1  0.06251851  0.43748149  0.43748149  1
  Hf  Hf15  1  0.43748149  0.06251851  0.06251851  1
  Pt  Pt0  1  0.79100062  0.40299979  0.40299979  1
  Pt  Pt1  1  0.40299979  0.79100062  0.40299979  1
  Pt  Pt2  1  0.40299979  0.40299979  0.79100062  1
  Pt  Pt3  1  0.40299979  0.40299979  0.40299979  1
  Pt  Pt4  1  0.45899938  0.84700021  0.84700021  1
  Pt  Pt5  1  0.84700021  0.45899938  0.84700021  1
  Pt  Pt6  1  0.84700021  0.84700021  0.45899938  1
  Pt  Pt7  1  0.84700021  0.84700021  0.84700021  1
  O  O0  1  0.62500000  0.12500000  0.12500000  1
  O  O1  1  0.12500000  0.62500000  0.12500000  1
  O  O2  1  0.12500000  0.12500000  0.62500000  1
  O  O3  1  0.12500000  0.12500000  0.12500000  1
loop_
_geom_bond_atom_site_label_1
_geom_bond_atom_site_label_2
_geom_bond_distance
_geom_bond_site_symmetry_2
Hf0 Pt6 2.790279 1_455
Hf0 Pt2 2.790279 1_555
Hf0 Pt7 2.790279 1_455
Hf0 Pt3 2.790279 1_555
Hf0 Pt1 2.790279 1_555
Hf0 Pt5 2.790279 1_455
Hf1 Pt6 2.790279 1_545
Hf1 Pt2 2.790279 1_555
Hf1 Pt7 2.790279 1_545
Hf1 Pt3 2.790279 1_555
Hf1 Pt0 2.790279 1_555
Hf1 Pt4 2.790279 1_545
Hf2 Pt1 2.790279 1_555
Hf2 Pt5 2.790279 1_554
Hf2 Pt4 2.790279 1_554
Hf2 Pt0 2.790279 1_555
Hf2 Pt7 2.790279 1_554
Hf2 Pt3 2.790279 1_555
Hf3 Pt5 2.790279 1_555
Hf3 Pt1 2.790279 1_555
Hf3 Pt4 2.790279 1_555
Hf3 Pt0 2.790279 1_555
Hf3 Pt2 2.790279 1_555
Hf3 Pt6 2.790279 1_555
Hf4 O1 2.319959 1_655
Hf4 O0 2.319959 1_565
Hf4 Pt6 2.711096 1_555
Hf4 Pt7 2.711096 1_554
Hf4 Pt1 3.161095 1_555
Hf4 Pt0 3.161095 1_555
Hf5 O2 2.319959 1_555
Hf5 O3 2.319959 1_556
Hf5 Pt5 2.711096 1_455
Hf5 Pt4 2.711096 1_545
Hf5 Pt2 3.161095 1_555
Hf5 Pt3 3.161095 1_555
Hf6 O2 2.319959 1_655
Hf6 O0 2.319959 1_556
Hf6 Pt5 2.711096 1_555
Hf6 Pt7 2.711096 1_545
Hf6 Pt2 3.161095 1_555
Hf6 Pt0 3.161095 1_555
Hf7 O1 2.319959 1_555
Hf7 O3 2.319959 1_565
Hf7 Pt6 2.711096 1_455
Hf7 Pt4 2.711096 1_554
Hf7 Pt1 3.161095 1_555
Hf7 Pt3 3.161095 1_555
Hf8 O2 2.319959 1_565
Hf8 O1 2.319959 1_556
Hf8 Pt7 2.711096 1_455
Hf8 Pt4 2.711096 1_555
Hf8 Pt2 3.161095 1_555
Hf8 Pt1 3.161095 1_555
Hf9 O3 2.319959 1_655
Hf9 O0 2.319959 1_555
Hf9 Pt6 2.711096 1_545
Hf9 Pt5 2.711096 1_554
Hf9 Pt3 3.161095 1_555
Hf9 Pt0 3.161095 1_555
Hf10 O1 2.319959 1_555
Hf10 O0 2.319959 1_555
Hf10 Pt2 2.711096 1_554
Hf10 Pt3 2.711096 1_555
Hf10 Pt5 3.161095 1_554
Hf10 Pt4 3.161095 1_554
Hf11 O2 2.319959 1_555
Hf11 O3 2.319959 1_555
Hf11 Pt1 2.711096 1_545
Hf11 Pt0 2.711096 1_455
Hf11 Pt6 3.161095 1_445
Hf11 Pt7 3.161095 1_445
Hf12 O2 2.319959 1_555
Hf12 O0 2.319959 1_555
Hf12 Pt1 2.711096 1_545
Hf12 Pt3 2.711096 1_555
Hf12 Pt6 3.161095 1_545
Hf12 Pt4 3.161095 1_545
Hf13 O1 2.319959 1_555
Hf13 O3 2.319959 1_555
Hf13 Pt2 2.711096 1_554
Hf13 Pt0 2.711096 1_455
Hf13 Pt5 3.161095 1_454
Hf13 Pt7 3.161095 1_454
Hf14 O2 2.319959 1_555
Hf14 O1 2.319959 1_555
Hf14 Pt3 2.711096 1_555
Hf14 Pt0 2.711096 1_455
Hf14 Pt6 3.161095 1_455
Hf14 Pt5 3.161095 1_455
Hf15 O3 2.319959 1_555
Hf15 O0 2.319959 1_555
Hf15 Pt2 2.711096 1_554
Hf15 Pt1 2.711096 1_545
Hf15 Pt7 3.161095 1_544
Hf15 Pt4 3.161095 1_544
