# generated using pymatgen
data_Nb3Ga3Ir2Rh
_symmetry_space_group_name_H-M   'P 1'
_cell_length_a   14.86591478
_cell_length_b   14.86591686
_cell_length_c   5.84351112
_cell_angle_alpha   90.00000000
_cell_angle_beta   90.00000000
_cell_angle_gamma   120.00000410
_symmetry_Int_Tables_number   1
_chemical_formula_structural   Nb3Ga3Ir2Rh
_chemical_formula_sum   'Nb24 Ga24 Ir16 Rh8'
_cell_volume   1118.37597049
_cell_formula_units_Z   8
loop_
 _symmetry_equiv_pos_site_id
 _symmetry_equiv_pos_as_xyz
  1  'x, y, z'
loop_
 _atom_site_type_symbol
 _atom_site_label
 _atom_site_symmetry_multiplicity
 _atom_site_fract_x
 _atom_site_fract_y
 _atom_site_fract_z
 _atom_site_occupancy
  Nb  Nb0_0  1  0.18417664  0.50000000  0.25000000  1
  Nb  Nb0_1  1  0.18417664  0.50000000  0.75000000  1
  Nb  Nb0_2  1  0.18417664  1.00000000  0.25000000  1
  Nb  Nb0_3  1  0.18417664  1.00000000  0.75000000  1
  Nb  Nb0_4  1  0.68417664  0.50000000  0.25000000  1
  Nb  Nb0_5  1  0.68417664  0.50000000  0.75000000  1
  Nb  Nb0_6  1  0.68417664  1.00000000  0.25000000  1
  Nb  Nb0_7  1  0.68417664  1.00000000  0.75000000  1
  Nb  Nb1_0  1  0.00000000  0.18417664  0.25000000  1
  Nb  Nb1_1  1  0.00000000  0.18417664  0.75000000  1
  Nb  Nb1_2  1  0.00000000  0.68417664  0.25000000  1
  Nb  Nb1_3  1  0.00000000  0.68417664  0.75000000  1
  Nb  Nb1_4  1  0.50000000  0.18417664  0.25000000  1
  Nb  Nb1_5  1  0.50000000  0.18417664  0.75000000  1
  Nb  Nb1_6  1  0.50000000  0.68417664  0.25000000  1
  Nb  Nb1_7  1  0.50000000  0.68417664  0.75000000  1
  Nb  Nb2_0  1  0.31582336  0.31582336  0.25000000  1
  Nb  Nb2_1  1  0.31582336  0.31582336  0.75000000  1
  Nb  Nb2_2  1  0.31582336  0.81582336  0.25000000  1
  Nb  Nb2_3  1  0.31582336  0.81582336  0.75000000  1
  Nb  Nb2_4  1  0.81582336  0.31582336  0.25000000  1
  Nb  Nb2_5  1  0.81582336  0.31582336  0.75000000  1
  Nb  Nb2_6  1  0.81582336  0.81582336  0.25000000  1
  Nb  Nb2_7  1  0.81582336  0.81582336  0.75000000  1
  Ga  Ga0_0  1  0.35370750  0.50000000  0.00000000  1
  Ga  Ga0_1  1  0.35370750  0.50000000  0.50000000  1
  Ga  Ga0_2  1  0.35370750  1.00000000  0.00000000  1
  Ga  Ga0_3  1  0.35370750  1.00000000  0.50000000  1
  Ga  Ga0_4  1  0.85370750  0.50000000  0.00000000  1
  Ga  Ga0_5  1  0.85370750  0.50000000  0.50000000  1
  Ga  Ga0_6  1  0.85370750  1.00000000  0.00000000  1
  Ga  Ga0_7  1  0.85370750  1.00000000  0.50000000  1
  Ga  Ga1_0  1  0.00000000  0.35370750  0.00000000  1
  Ga  Ga1_1  1  0.00000000  0.35370750  0.50000000  1
  Ga  Ga1_2  1  0.00000000  0.85370750  0.00000000  1
  Ga  Ga1_3  1  0.00000000  0.85370750  0.50000000  1
  Ga  Ga1_4  1  0.50000000  0.35370750  0.00000000  1
  Ga  Ga1_5  1  0.50000000  0.35370750  0.50000000  1
  Ga  Ga1_6  1  0.50000000  0.85370750  0.00000000  1
  Ga  Ga1_7  1  0.50000000  0.85370750  0.50000000  1
  Ga  Ga2_0  1  0.14629250  0.14629250  0.00000000  1
  Ga  Ga2_1  1  0.14629250  0.14629250  0.50000000  1
  Ga  Ga2_2  1  0.14629250  0.64629250  0.00000000  1
  Ga  Ga2_3  1  0.14629250  0.64629250  0.50000000  1
  Ga  Ga2_4  1  0.64629250  0.14629250  0.00000000  1
  Ga  Ga2_5  1  0.64629250  0.14629250  0.50000000  1
  Ga  Ga2_6  1  0.64629250  0.64629250  0.00000000  1
  Ga  Ga2_7  1  0.64629250  0.64629250  0.50000000  1
  Ir  Ir0_0  1  0.16666650  0.33333350  0.00000000  1
  Ir  Ir0_1  1  0.16666650  0.33333350  0.50000000  1
  Ir  Ir0_2  1  0.16666650  0.83333350  0.00000000  1
  Ir  Ir0_3  1  0.16666650  0.83333350  0.50000000  1
  Ir  Ir0_4  1  0.66666650  0.33333350  0.00000000  1
  Ir  Ir0_5  1  0.66666650  0.33333350  0.50000000  1
  Ir  Ir0_6  1  0.66666650  0.83333350  0.00000000  1
  Ir  Ir0_7  1  0.66666650  0.83333350  0.50000000  1
  Ir  Ir1_0  1  0.33333350  0.16666650  0.00000000  1
  Ir  Ir1_1  1  0.33333350  0.16666650  0.50000000  1
  Ir  Ir1_2  1  0.33333350  0.66666650  0.00000000  1
  Ir  Ir1_3  1  0.33333350  0.66666650  0.50000000  1
  Ir  Ir1_4  1  0.83333350  0.16666650  0.00000000  1
  Ir  Ir1_5  1  0.83333350  0.16666650  0.50000000  1
  Ir  Ir1_6  1  0.83333350  0.66666650  0.00000000  1
  Ir  Ir1_7  1  0.83333350  0.66666650  0.50000000  1
  Rh  Rh0_0  1  0.00000000  0.00000000  0.25000000  1
  Rh  Rh0_1  1  0.00000000  0.00000000  0.75000000  1
  Rh  Rh0_2  1  0.00000000  0.50000000  0.25000000  1
  Rh  Rh0_3  1  0.00000000  0.50000000  0.75000000  1
  Rh  Rh0_4  1  0.50000000  0.00000000  0.25000000  1
  Rh  Rh0_5  1  0.50000000  0.00000000  0.75000000  1
  Rh  Rh0_6  1  0.50000000  0.50000000  0.25000000  1
  Rh  Rh0_7  1  0.50000000  0.50000000  0.75000000  1
loop_
_geom_bond_atom_site_label_1
_geom_bond_atom_site_label_2
_geom_bond_distance
_geom_bond_site_symmetry_2
Nb0_0 Rh0_2 2.737954 1_555
Nb0_0 Nb0_1 2.921756 1_554
Nb0_0 Nb0_1 2.921756 1_555
Nb0_1 Rh0_3 2.737954 1_555
Nb0_2 Rh0_0 2.737954 1_565
Nb0_2 Nb0_3 2.921756 1_554
Nb0_2 Nb0_3 2.921756 1_555
Nb0_3 Rh0_1 2.737954 1_565
Nb0_4 Rh0_6 2.737954 1_555
Nb0_4 Nb0_5 2.921756 1_554
Nb0_4 Nb0_5 2.921756 1_555
Nb0_5 Rh0_7 2.737954 1_555
Nb0_6 Rh0_4 2.737954 1_565
Nb0_6 Nb0_7 2.921756 1_554
Nb0_6 Nb0_7 2.921756 1_555
Nb0_7 Rh0_5 2.737954 1_565
Nb1_0 Rh0_0 2.737955 1_555
Nb1_0 Nb1_1 2.921756 1_554
Nb1_0 Nb1_1 2.921756 1_555
Nb1_1 Rh0_1 2.737955 1_555
Nb1_2 Rh0_2 2.737955 1_555
Nb1_2 Nb1_3 2.921756 1_554
Nb1_2 Nb1_3 2.921756 1_555
Nb1_3 Rh0_3 2.737955 1_555
Nb1_4 Rh0_4 2.737955 1_555
Nb1_4 Nb1_5 2.921756 1_554
Nb1_4 Nb1_5 2.921756 1_555
Nb1_5 Rh0_5 2.737955 1_555
Nb1_6 Rh0_6 2.737955 1_555
Nb1_6 Nb1_7 2.921756 1_554
Nb1_6 Nb1_7 2.921756 1_555
Nb1_7 Rh0_7 2.737955 1_555
Nb2_0 Rh0_6 2.737954 1_555
Nb2_0 Nb2_1 2.921756 1_554
Nb2_0 Nb2_1 2.921756 1_555
Nb2_1 Rh0_7 2.737954 1_555
Nb2_2 Rh0_4 2.737954 1_565
Nb2_2 Nb2_3 2.921756 1_554
Nb2_2 Nb2_3 2.921756 1_555
Nb2_3 Rh0_5 2.737954 1_565
Nb2_4 Rh0_2 2.737954 1_655
Nb2_4 Nb2_5 2.921756 1_554
Nb2_4 Nb2_5 2.921756 1_555
Nb2_5 Rh0_3 2.737954 1_655
Nb2_6 Rh0_0 2.737954 1_665
Nb2_6 Nb2_7 2.921756 1_554
Nb2_6 Nb2_7 2.921756 1_555
Nb2_7 Rh0_1 2.737954 1_665
Ga0_0 Rh0_7 2.619885 1_554
Ga0_0 Rh0_6 2.619885 1_555
Ga0_0 Ir1_2 2.642142 1_555
Ga0_0 Ir0_0 2.642146 1_555
Ga0_0 Nb1_7 2.899270 1_554
Ga0_0 Nb1_6 2.899270 1_555
Ga0_0 Nb2_1 2.899270 1_554
Ga0_0 Nb2_0 2.899270 1_555
Ga0_0 Nb0_1 2.913028 1_554
Ga0_0 Nb0_0 2.913028 1_555
Ga0_0 Ga0_1 2.921756 1_555
Ga0_0 Ga0_1 2.921756 1_554
Ga0_1 Rh0_6 2.619885 1_555
Ga0_1 Rh0_7 2.619885 1_555
Ga0_1 Ir1_3 2.642142 1_555
Ga0_1 Ir0_1 2.642146 1_555
Ga0_1 Nb1_6 2.899270 1_555
Ga0_1 Nb1_7 2.899270 1_555
Ga0_1 Nb2_0 2.899270 1_555
Ga0_1 Nb2_1 2.899270 1_555
Ga0_1 Nb0_0 2.913028 1_555
Ga0_1 Nb0_1 2.913028 1_555
Ga0_2 Rh0_5 2.619885 1_564
Ga0_2 Rh0_4 2.619885 1_565
Ga0_2 Ir1_0 2.642142 1_565
Ga0_2 Ir0_2 2.642146 1_555
Ga0_2 Nb1_5 2.899270 1_564
Ga0_2 Nb1_4 2.899270 1_565
Ga0_2 Nb2_3 2.899270 1_554
Ga0_2 Nb2_2 2.899270 1_555
Ga0_2 Nb0_3 2.913028 1_554
Ga0_2 Nb0_2 2.913028 1_555
Ga0_2 Ga0_3 2.921756 1_554
Ga0_2 Ga0_3 2.921756 1_555
Ga0_3 Rh0_4 2.619885 1_565
Ga0_3 Rh0_5 2.619885 1_565
Ga0_3 Ir1_1 2.642142 1_565
Ga0_3 Ir0_3 2.642146 1_555
Ga0_3 Nb1_5 2.899270 1_565
Ga0_3 Nb1_4 2.899270 1_565
Ga0_3 Nb2_2 2.899270 1_555
Ga0_3 Nb2_3 2.899270 1_555
Ga0_3 Nb0_2 2.913028 1_555
Ga0_3 Nb0_3 2.913028 1_555
Ga0_4 Rh0_3 2.619885 1_654
Ga0_4 Rh0_2 2.619885 1_655
Ga0_4 Ir1_6 2.642142 1_555
Ga0_4 Ir0_4 2.642146 1_555
Ga0_4 Nb1_3 2.899270 1_654
Ga0_4 Nb1_2 2.899270 1_655
Ga0_4 Nb2_5 2.899270 1_554
Ga0_4 Nb2_4 2.899270 1_555
Ga0_4 Nb0_5 2.913028 1_554
Ga0_4 Nb0_4 2.913028 1_555
Ga0_4 Ga0_5 2.921756 1_555
Ga0_4 Ga0_5 2.921756 1_554
Ga0_5 Rh0_2 2.619885 1_655
Ga0_5 Rh0_3 2.619885 1_655
Ga0_5 Ir1_7 2.642142 1_555
Ga0_5 Ir0_5 2.642146 1_555
Ga0_5 Nb1_2 2.899270 1_655
Ga0_5 Nb1_3 2.899270 1_655
Ga0_5 Nb2_4 2.899270 1_555
Ga0_5 Nb2_5 2.899270 1_555
Ga0_5 Nb0_4 2.913028 1_555
Ga0_5 Nb0_5 2.913028 1_555
Ga0_6 Rh0_0 2.619885 1_665
Ga0_6 Rh0_1 2.619885 1_664
Ga0_6 Ir1_4 2.642142 1_565
Ga0_6 Ir0_6 2.642146 1_555
Ga0_6 Nb1_1 2.899270 1_664
Ga0_6 Nb1_0 2.899270 1_665
Ga0_6 Nb2_7 2.899270 1_554
Ga0_6 Nb2_6 2.899270 1_555
Ga0_6 Nb0_7 2.913028 1_554
Ga0_6 Nb0_6 2.913028 1_555
Ga0_6 Ga0_7 2.921756 1_555
Ga0_6 Ga0_7 2.921756 1_554
Ga0_7 Rh0_0 2.619885 1_665
Ga0_7 Rh0_1 2.619885 1_665
Ga0_7 Ir1_5 2.642142 1_565
Ga0_7 Ir0_7 2.642146 1_555
Ga0_7 Nb1_0 2.899270 1_665
Ga0_7 Nb1_1 2.899270 1_665
Ga0_7 Nb2_6 2.899270 1_555
Ga0_7 Nb2_7 2.899270 1_555
Ga0_7 Nb0_6 2.913028 1_555
Ga0_7 Nb0_7 2.913028 1_555
Ga1_0 Rh0_3 2.619885 1_554
Ga1_0 Rh0_2 2.619885 1_555
Ga1_0 Ir0_0 2.642141 1_555
Ga1_0 Ir1_4 2.642146 1_455
Ga1_0 Nb2_5 2.899270 1_454
Ga1_0 Nb2_4 2.899270 1_455
Ga1_0 Nb0_0 2.899270 1_555
Ga1_0 Nb0_1 2.899270 1_554
Ga1_0 Nb1_1 2.913028 1_554
Ga1_0 Nb1_0 2.913028 1_555
Ga1_0 Ga1_1 2.921756 1_555
Ga1_0 Ga1_1 2.921756 1_554
Ga1_1 Rh0_2 2.619885 1_555
Ga1_1 Rh0_3 2.619885 1_555
Ga1_1 Ir0_1 2.642141 1_555
Ga1_1 Ir1_5 2.642146 1_455
Ga1_1 Nb2_4 2.899270 1_455
Ga1_1 Nb2_5 2.899270 1_455
Ga1_1 Nb0_0 2.899270 1_555
Ga1_1 Nb0_1 2.899270 1_555
Ga1_1 Nb1_0 2.913028 1_555
Ga1_1 Nb1_1 2.913028 1_555
Ga1_2 Rh0_1 2.619885 1_564
Ga1_2 Rh0_0 2.619885 1_565
Ga1_2 Ir0_2 2.642141 1_555
Ga1_2 Ir1_6 2.642146 1_455
Ga1_2 Nb2_6 2.899270 1_455
Ga1_2 Nb2_7 2.899270 1_454
Ga1_2 Nb0_3 2.899270 1_554
Ga1_2 Nb0_2 2.899270 1_555
Ga1_2 Nb1_2 2.913028 1_555
Ga1_2 Nb1_3 2.913028 1_554
Ga1_2 Ga1_3 2.921756 1_555
Ga1_2 Ga1_3 2.921756 1_554
Ga1_3 Rh0_0 2.619885 1_565
Ga1_3 Rh0_1 2.619885 1_565
Ga1_3 Ir0_3 2.642141 1_555
Ga1_3 Ir1_7 2.642146 1_455
Ga1_3 Nb2_6 2.899270 1_455
Ga1_3 Nb2_7 2.899270 1_455
Ga1_3 Nb0_2 2.899270 1_555
Ga1_3 Nb0_3 2.899270 1_555
Ga1_3 Nb1_2 2.913028 1_555
Ga1_3 Nb1_3 2.913028 1_555
Ga1_4 Rh0_7 2.619885 1_554
Ga1_4 Rh0_6 2.619885 1_555
Ga1_4 Ir0_4 2.642141 1_555
Ga1_4 Ir1_0 2.642146 1_555
Ga1_4 Nb2_1 2.899270 1_554
Ga1_4 Nb2_0 2.899270 1_555
Ga1_4 Nb0_5 2.899270 1_554
Ga1_4 Nb0_4 2.899270 1_555
Ga1_4 Nb1_5 2.913028 1_554
Ga1_4 Nb1_4 2.913028 1_555
Ga1_4 Ga1_5 2.921756 1_555
Ga1_4 Ga1_5 2.921756 1_554
Ga1_5 Rh0_6 2.619885 1_555
Ga1_5 Rh0_7 2.619885 1_555
Ga1_5 Ir0_5 2.642141 1_555
Ga1_5 Ir1_1 2.642146 1_555
Ga1_5 Nb2_0 2.899270 1_555
Ga1_5 Nb2_1 2.899270 1_555
Ga1_5 Nb0_5 2.899270 1_555
Ga1_5 Nb0_4 2.899270 1_555
Ga1_5 Nb1_4 2.913028 1_555
Ga1_5 Nb1_5 2.913028 1_555
Ga1_6 Rh0_5 2.619885 1_564
Ga1_6 Rh0_4 2.619885 1_565
Ga1_6 Ir0_6 2.642141 1_555
Ga1_6 Ir1_2 2.642146 1_555
Ga1_6 Nb2_3 2.899270 1_554
Ga1_6 Nb2_2 2.899270 1_555
Ga1_6 Nb0_7 2.899270 1_554
Ga1_6 Nb0_6 2.899270 1_555
Ga1_6 Nb1_7 2.913028 1_554
Ga1_6 Nb1_6 2.913028 1_555
Ga1_6 Ga1_7 2.921756 1_554
Ga1_6 Ga1_7 2.921756 1_555
Ga1_7 Rh0_4 2.619885 1_565
Ga1_7 Rh0_5 2.619885 1_565
Ga1_7 Ir0_7 2.642141 1_555
Ga1_7 Ir1_3 2.642146 1_555
Ga1_7 Nb2_2 2.899270 1_555
Ga1_7 Nb2_3 2.899270 1_555
Ga1_7 Nb0_6 2.899270 1_555
Ga1_7 Nb0_7 2.899270 1_555
Ga1_7 Nb1_6 2.913028 1_555
Ga1_7 Nb1_7 2.913028 1_555
Ga2_0 Rh0_1 2.619885 1_554
Ga2_0 Rh0_0 2.619885 1_555
Ga2_0 Ir1_0 2.642149 1_555
Ga2_0 Ir0_0 2.642149 1_555
Ga2_0 Nb1_0 2.899270 1_555
Ga2_0 Nb1_1 2.899270 1_554
Ga2_0 Nb0_3 2.899270 1_544
Ga2_0 Nb0_2 2.899270 1_545
Ga2_0 Nb2_1 2.913028 1_554
Ga2_0 Nb2_0 2.913028 1_555
Ga2_0 Ga2_1 2.921756 1_555
Ga2_0 Ga2_1 2.921756 1_554
Ga2_1 Rh0_0 2.619885 1_555
Ga2_1 Rh0_1 2.619885 1_555
Ga2_1 Ir1_1 2.642149 1_555
Ga2_1 Ir0_1 2.642149 1_555
Ga2_1 Nb1_0 2.899270 1_555
Ga2_1 Nb1_1 2.899270 1_555
Ga2_1 Nb0_3 2.899270 1_545
Ga2_1 Nb0_2 2.899270 1_545
Ga2_1 Nb2_1 2.913028 1_555
Ga2_1 Nb2_0 2.913028 1_555
Ga2_2 Rh0_3 2.619885 1_554
Ga2_2 Rh0_2 2.619885 1_555
Ga2_2 Ir1_2 2.642149 1_555
Ga2_2 Ir0_2 2.642149 1_555
Ga2_2 Nb1_2 2.899270 1_555
Ga2_2 Nb1_3 2.899270 1_554
Ga2_2 Nb0_1 2.899270 1_554
Ga2_2 Nb0_0 2.899270 1_555
Ga2_2 Nb2_3 2.913028 1_554
Ga2_2 Nb2_2 2.913028 1_555
Ga2_2 Ga2_3 2.921756 1_554
Ga2_2 Ga2_3 2.921756 1_555
Ga2_3 Rh0_2 2.619885 1_555
Ga2_3 Rh0_3 2.619885 1_555
Ga2_3 Ir1_3 2.642149 1_555
Ga2_3 Ir0_3 2.642149 1_555
Ga2_3 Nb1_2 2.899270 1_555
Ga2_3 Nb1_3 2.899270 1_555
Ga2_3 Nb0_1 2.899270 1_555
Ga2_3 Nb0_0 2.899270 1_555
Ga2_3 Nb2_2 2.913028 1_555
Ga2_3 Nb2_3 2.913028 1_555
Ga2_4 Rh0_5 2.619885 1_554
Ga2_4 Rh0_4 2.619885 1_555
Ga2_4 Ir1_4 2.642149 1_555
Ga2_4 Ir0_4 2.642149 1_555
Ga2_4 Nb1_5 2.899270 1_554
Ga2_4 Nb1_4 2.899270 1_555
Ga2_4 Nb0_7 2.899270 1_544
Ga2_4 Nb0_6 2.899270 1_545
Ga2_4 Nb2_5 2.913028 1_554
Ga2_4 Nb2_4 2.913028 1_555
Ga2_4 Ga2_5 2.921756 1_554
Ga2_4 Ga2_5 2.921756 1_555
Ga2_5 Rh0_4 2.619885 1_555
Ga2_5 Rh0_5 2.619885 1_555
Ga2_5 Ir1_5 2.642149 1_555
Ga2_5 Ir0_5 2.642149 1_555
Ga2_5 Nb1_4 2.899270 1_555
Ga2_5 Nb1_5 2.899270 1_555
Ga2_5 Nb0_6 2.899270 1_545
Ga2_5 Nb0_7 2.899270 1_545
Ga2_5 Nb2_4 2.913028 1_555
Ga2_5 Nb2_5 2.913028 1_555
Ga2_6 Rh0_7 2.619885 1_554
Ga2_6 Rh0_6 2.619885 1_555
Ga2_6 Ir1_6 2.642149 1_555
Ga2_6 Ir0_6 2.642149 1_555
Ga2_6 Nb1_7 2.899270 1_554
Ga2_6 Nb1_6 2.899270 1_555
Ga2_6 Nb0_4 2.899270 1_555
Ga2_6 Nb0_5 2.899270 1_554
Ga2_6 Nb2_7 2.913028 1_554
Ga2_6 Nb2_6 2.913028 1_555
Ga2_6 Ga2_7 2.921756 1_555
Ga2_6 Ga2_7 2.921756 1_554
Ga2_7 Rh0_6 2.619885 1_555
Ga2_7 Rh0_7 2.619885 1_555
Ga2_7 Ir1_7 2.642149 1_555
Ga2_7 Ir0_7 2.642149 1_555
Ga2_7 Nb1_7 2.899270 1_555
Ga2_7 Nb1_6 2.899270 1_555
Ga2_7 Nb0_4 2.899270 1_555
Ga2_7 Nb0_5 2.899270 1_555
Ga2_7 Nb2_6 2.913028 1_555
Ga2_7 Nb2_7 2.913028 1_555
Ir0_0 Nb0_1 2.774118 1_554
Ir0_0 Nb0_0 2.774118 1_555
Ir0_0 Nb1_1 2.774120 1_554
Ir0_0 Nb1_0 2.774120 1_555
Ir0_0 Nb2_0 2.774124 1_555
Ir0_0 Nb2_1 2.774124 1_554
Ir0_1 Nb0_0 2.774118 1_555
Ir0_1 Nb0_1 2.774118 1_555
Ir0_1 Nb1_0 2.774120 1_555
Ir0_1 Nb1_1 2.774120 1_555
Ir0_1 Nb2_0 2.774124 1_555
Ir0_1 Nb2_1 2.774124 1_555
Ir0_2 Nb0_3 2.774118 1_554
Ir0_2 Nb0_2 2.774118 1_555
Ir0_2 Nb1_3 2.774120 1_554
Ir0_2 Nb1_2 2.774120 1_555
Ir0_2 Nb2_3 2.774124 1_554
Ir0_2 Nb2_2 2.774124 1_555
Ir0_3 Nb0_2 2.774118 1_555
Ir0_3 Nb0_3 2.774118 1_555
Ir0_3 Nb1_2 2.774120 1_555
Ir0_3 Nb1_3 2.774120 1_555
Ir0_3 Nb2_2 2.774124 1_555
Ir0_3 Nb2_3 2.774124 1_555
Ir0_4 Nb0_5 2.774118 1_554
Ir0_4 Nb0_4 2.774118 1_555
Ir0_4 Nb1_5 2.774120 1_554
Ir0_4 Nb1_4 2.774120 1_555
Ir0_4 Nb2_5 2.774124 1_554
Ir0_4 Nb2_4 2.774124 1_555
Ir0_5 Nb0_4 2.774118 1_555
Ir0_5 Nb0_5 2.774118 1_555
Ir0_5 Nb1_4 2.774120 1_555
Ir0_5 Nb1_5 2.774120 1_555
Ir0_5 Nb2_4 2.774124 1_555
Ir0_5 Nb2_5 2.774124 1_555
Ir0_6 Nb0_7 2.774118 1_554
Ir0_6 Nb0_6 2.774118 1_555
Ir0_6 Nb1_7 2.774120 1_554
Ir0_6 Nb1_6 2.774120 1_555
Ir0_6 Nb2_7 2.774124 1_554
Ir0_6 Nb2_6 2.774124 1_555
Ir0_7 Nb0_6 2.774118 1_555
Ir0_7 Nb0_7 2.774118 1_555
Ir0_7 Nb1_6 2.774120 1_555
Ir0_7 Nb1_7 2.774120 1_555
Ir0_7 Nb2_6 2.774124 1_555
Ir0_7 Nb2_7 2.774124 1_555
Ir1_0 Nb1_5 2.774118 1_554
Ir1_0 Nb1_4 2.774118 1_555
Ir1_0 Nb0_3 2.774120 1_544
Ir1_0 Nb0_2 2.774120 1_545
Ir1_0 Nb2_1 2.774124 1_554
Ir1_0 Nb2_0 2.774124 1_555
Ir1_1 Nb1_4 2.774118 1_555
Ir1_1 Nb1_5 2.774118 1_555
Ir1_1 Nb0_2 2.774120 1_545
Ir1_1 Nb0_3 2.774120 1_545
Ir1_1 Nb2_0 2.774124 1_555
Ir1_1 Nb2_1 2.774124 1_555
Ir1_2 Nb1_7 2.774118 1_554
Ir1_2 Nb1_6 2.774118 1_555
Ir1_2 Nb0_1 2.774120 1_554
Ir1_2 Nb0_0 2.774120 1_555
Ir1_2 Nb2_3 2.774124 1_554
Ir1_2 Nb2_2 2.774124 1_555
Ir1_3 Nb1_6 2.774118 1_555
Ir1_3 Nb1_7 2.774118 1_555
Ir1_3 Nb0_0 2.774120 1_555
Ir1_3 Nb0_1 2.774120 1_555
Ir1_3 Nb2_2 2.774124 1_555
Ir1_3 Nb2_3 2.774124 1_555
Ir1_4 Nb1_1 2.774118 1_654
Ir1_4 Nb1_0 2.774118 1_655
Ir1_4 Nb0_7 2.774120 1_544
Ir1_4 Nb0_6 2.774120 1_545
Ir1_4 Nb2_4 2.774124 1_555
Ir1_4 Nb2_5 2.774124 1_554
Ir1_5 Nb1_0 2.774118 1_655
Ir1_5 Nb1_1 2.774118 1_655
Ir1_5 Nb0_6 2.774120 1_545
Ir1_5 Nb0_7 2.774120 1_545
Ir1_5 Nb2_4 2.774124 1_555
Ir1_5 Nb2_5 2.774124 1_555
Ir1_6 Nb1_2 2.774118 1_655
Ir1_6 Nb1_3 2.774118 1_654
Ir1_6 Nb0_5 2.774120 1_554
Ir1_6 Nb0_4 2.774120 1_555
Ir1_6 Nb2_7 2.774124 1_554
Ir1_6 Nb2_6 2.774124 1_555
Ir1_7 Nb1_2 2.774118 1_655
Ir1_7 Nb1_3 2.774118 1_655
Ir1_7 Nb0_4 2.774120 1_555
Ir1_7 Nb0_5 2.774120 1_555
Ir1_7 Nb2_6 2.774124 1_555
Ir1_7 Nb2_7 2.774124 1_555
