# generated using pymatgen
data_TcTeSe
_symmetry_space_group_name_H-M   'P 1'
_cell_length_a   7.27423602
_cell_length_b   7.27423620
_cell_length_c   7.27423700
_cell_angle_alpha   60.00000087
_cell_angle_beta   60.00000003
_cell_angle_gamma   59.99999566
_symmetry_Int_Tables_number   1
_chemical_formula_structural   TcTeSe
_chemical_formula_sum   'Tc4 Te4 Se4'
_cell_volume   272.17436861
_cell_formula_units_Z   4
loop_
 _symmetry_equiv_pos_site_id
 _symmetry_equiv_pos_as_xyz
  1  'x, y, z'
loop_
 _atom_site_type_symbol
 _atom_site_label
 _atom_site_symmetry_multiplicity
 _atom_site_fract_x
 _atom_site_fract_y
 _atom_site_fract_z
 _atom_site_occupancy
  Tc  Tc0  1  0.15122233  0.15122233  0.15122233  1
  Tc  Tc1  1  0.54633402  0.15122233  0.15122233  1
  Tc  Tc2  1  0.15122233  0.15122233  0.54633402  1
  Tc  Tc3  1  0.15122233  0.54633402  0.15122233  1
  Te  Te0  1  0.88075008  0.35774876  0.88075008  1
  Te  Te1  1  0.88075008  0.88075008  0.35774876  1
  Te  Te2  1  0.35774876  0.88075008  0.88075008  1
  Te  Te3  1  0.88075008  0.88075008  0.88075008  1
  Se  Se0  1  0.38251113  0.38251113  0.38251113  1
  Se  Se1  1  0.85246862  0.38251113  0.38251113  1
  Se  Se2  1  0.38251113  0.38251113  0.85246862  1
  Se  Se3  1  0.38251113  0.85246862  0.38251113  1
loop_
_geom_bond_atom_site_label_1
_geom_bond_atom_site_label_2
_geom_bond_distance
_geom_bond_site_symmetry_2
Tc0 Te1 2.821049 1_445
Tc0 Te0 2.821049 1_454
Tc0 Te2 2.821049 1_544
Tc1 Te1 2.821038 1_545
Tc1 Te0 2.821038 1_554
Tc1 Te3 2.821047 1_544
Tc2 Te0 2.821038 1_455
Tc2 Te2 2.821038 1_545
Tc2 Te3 2.821047 1_445
Tc3 Te1 2.821038 1_455
Tc3 Te2 2.821038 1_554
Tc3 Te3 2.821047 1_454
Se0 Tc2 2.429428 1_555
Se0 Tc3 2.429428 1_555
Se0 Tc1 2.429428 1_555
Se1 Tc2 2.429422 1_655
Se1 Tc3 2.429422 1_655
Se1 Tc0 2.429426 1_655
Se2 Tc3 2.429422 1_556
Se2 Tc1 2.429422 1_556
Se2 Tc0 2.429427 1_556
Se3 Tc2 2.429422 1_565
Se3 Tc1 2.429422 1_565
Se3 Tc0 2.429426 1_565
