# generated using pymatgen
data_NbFeI8
_symmetry_space_group_name_H-M   'P 1'
_cell_length_a   10.87684442
_cell_length_b   10.87684387
_cell_length_c   9.45356087
_cell_angle_alpha   90.00000000
_cell_angle_beta   90.00000000
_cell_angle_gamma   129.80109577
_symmetry_Int_Tables_number   1
_chemical_formula_structural   NbFeI8
_chemical_formula_sum   'Nb2 Fe2 I16'
_cell_volume   859.24266895
_cell_formula_units_Z   2
loop_
 _symmetry_equiv_pos_site_id
 _symmetry_equiv_pos_as_xyz
  1  'x, y, z'
loop_
 _atom_site_type_symbol
 _atom_site_label
 _atom_site_symmetry_multiplicity
 _atom_site_fract_x
 _atom_site_fract_y
 _atom_site_fract_z
 _atom_site_occupancy
  Nb  Nb0  1  0.61029603  0.38970397  0.25000000  1
  Nb  Nb1  1  0.38970397  0.61029603  0.75000000  1
  Fe  Fe0  1  0.81220901  0.18779099  0.25000000  1
  Fe  Fe1  1  0.18779099  0.81220901  0.75000000  1
  I  I0  1  0.51076325  0.05353247  0.25000000  1
  I  I1  1  0.05353247  0.51076325  0.75000000  1
  I  I2  1  0.48923675  0.94646753  0.75000000  1
  I  I3  1  0.94646753  0.48923675  0.25000000  1
  I  I4  1  0.63158525  0.36841475  0.96696648  1
  I  I5  1  0.36841475  0.63158525  0.03303352  1
  I  I6  1  0.63158525  0.36841475  0.53303352  1
  I  I7  1  0.36841475  0.63158525  0.46696648  1
  I  I8  1  0.30558210  0.25657054  0.25000000  1
  I  I9  1  0.25657054  0.30558210  0.75000000  1
  I  I10  1  0.69441790  0.74342946  0.75000000  1
  I  I11  1  0.74342946  0.69441790  0.25000000  1
  I  I12  1  0.88471697  0.11528303  0.46790832  1
  I  I13  1  0.11528303  0.88471697  0.53209168  1
  I  I14  1  0.88471697  0.11528303  0.03209168  1
  I  I15  1  0.11528303  0.88471697  0.96790832  1
loop_
_geom_bond_atom_site_label_1
_geom_bond_atom_site_label_2
_geom_bond_distance
_geom_bond_site_symmetry_2
Fe0 I12 2.506769 1_555
Fe0 I14 2.506769 1_555
Fe0 I3 2.598658 1_555
Fe0 I0 2.598658 1_555
Fe1 I15 2.506769 1_555
Fe1 I13 2.506769 1_555
Fe1 I1 2.598658 1_555
Fe1 I2 2.598658 1_555
I0 Nb0 3.077990 1_555
I1 Nb1 3.077990 1_555
I2 Nb1 3.077990 1_555
I3 Nb0 3.077990 1_555
I4 Nb0 2.708343 1_556
I5 Nb1 2.708343 1_554
I6 Nb0 2.708343 1_555
I7 Nb1 2.708343 1_555
I8 Nb0 2.633869 1_555
I9 Nb1 2.633869 1_555
I10 Nb1 2.633869 1_555
I11 Nb0 2.633869 1_555
