# generated using pymatgen
data_Li3CdSiPd3
_symmetry_space_group_name_H-M   'P 1'
_cell_length_a   6.93298287
_cell_length_b   6.93298278
_cell_length_c   6.93298228
_cell_angle_alpha   60.76833407
_cell_angle_beta   60.76833218
_cell_angle_gamma   60.76833775
_symmetry_Int_Tables_number   1
_chemical_formula_structural   Li3CdSiPd3
_chemical_formula_sum   'Li6 Cd2 Si2 Pd6'
_cell_volume   239.72245685
_cell_formula_units_Z   2
loop_
 _symmetry_equiv_pos_site_id
 _symmetry_equiv_pos_as_xyz
  1  'x, y, z'
loop_
 _atom_site_type_symbol
 _atom_site_label
 _atom_site_symmetry_multiplicity
 _atom_site_fract_x
 _atom_site_fract_y
 _atom_site_fract_z
 _atom_site_occupancy
  Li  Li0  1  0.56500912  0.83470110  0.34124862  1
  Li  Li1  1  0.34124862  0.56500912  0.83470110  1
  Li  Li2  1  0.83470110  0.34124862  0.56500912  1
  Li  Li3  1  0.65875138  0.16529890  0.43499088  1
  Li  Li4  1  0.16529890  0.43499088  0.65875138  1
  Li  Li5  1  0.43499088  0.65875138  0.16529890  1
  Cd  Cd0  1  0.28234302  0.28234302  0.28234302  1
  Cd  Cd1  1  0.71765698  0.71765698  0.71765698  1
  Si  Si0  1  0.89884867  0.89884867  0.89884867  1
  Si  Si1  1  0.10115133  0.10115133  0.10115133  1
  Pd  Pd0  1  0.90006219  0.50000000  0.09993781  1
  Pd  Pd1  1  0.09993781  0.90006219  0.50000000  1
  Pd  Pd2  1  0.50000000  0.09993781  0.90006219  1
  Pd  Pd3  1  0.24917947  1.00000000  0.75082053  1
  Pd  Pd4  1  0.75082053  0.24917947  1.00000000  1
  Pd  Pd5  1  0.00000000  0.75082053  0.24917947  1
loop_
_geom_bond_atom_site_label_1
_geom_bond_atom_site_label_2
_geom_bond_distance
_geom_bond_site_symmetry_2
Li0 Pd5 2.571010 1_655
Li0 Li5 2.718440 1_555
Li0 Pd1 2.721596 1_555
Li0 Si0 2.775211 1_554
Li0 Pd2 2.825591 1_564
Li0 Pd0 2.882866 1_555
Li0 Pd3 2.970818 1_555
Li0 Li1 3.001423 1_555
Li0 Li2 3.001423 1_555
Li0 Li3 3.069281 1_565
Li0 Pd4 3.084329 1_564
Li1 Pd3 2.571010 1_555
Li1 Li4 2.718440 1_555
Li1 Pd2 2.721596 1_555
Li1 Si0 2.775211 1_455
Li1 Pd0 2.825591 1_456
Li1 Pd1 2.882866 1_555
Li1 Pd4 2.970818 1_555
Li1 Li2 3.001423 1_555
Li1 Li5 3.069281 1_556
Li1 Pd5 3.084329 1_556
Li2 Pd4 2.571010 1_555
Li2 Li3 2.718440 1_555
Li2 Pd0 2.721595 1_555
Li2 Si0 2.775211 1_545
Li2 Pd1 2.825591 1_645
Li2 Pd2 2.882866 1_555
Li2 Pd5 2.970818 1_655
Li2 Li4 3.069281 1_655
Li2 Pd3 3.084329 1_645
Li3 Pd4 2.571010 1_554
Li3 Pd2 2.721595 1_555
Li3 Si1 2.775211 1_655
Li3 Pd1 2.825591 1_645
Li3 Pd0 2.882866 1_555
Li3 Pd3 2.970818 1_545
Li3 Li4 3.001423 1_555
Li3 Li5 3.001423 1_555
Li3 Pd5 3.084329 1_645
Li4 Pd3 2.571010 1_545
Li4 Pd1 2.721596 1_555
Li4 Si1 2.775211 1_556
Li4 Pd0 2.825591 1_456
Li4 Pd2 2.882866 1_555
Li4 Pd5 2.970818 1_555
Li4 Li5 3.001423 1_555
Li4 Pd4 3.084329 1_455
Li5 Pd5 2.571010 1_555
Li5 Pd0 2.721596 1_555
Li5 Si1 2.775211 1_565
Li5 Pd2 2.825591 1_564
Li5 Pd1 2.882866 1_555
Li5 Pd4 2.970818 1_554
Li5 Pd3 3.084329 1_554
Cd0 Li1 2.691202 1_554
Cd0 Li2 2.691202 1_455
Cd0 Li0 2.691203 1_545
Cd0 Pd3 2.816808 1_545
Cd0 Pd4 2.816808 1_554
Cd0 Pd5 2.816808 1_555
Cd0 Li4 2.894660 1_555
Cd0 Li5 2.894660 1_555
Cd0 Li3 2.894660 1_555
Cd0 Pd2 2.899006 1_554
Cd0 Pd1 2.899006 1_545
Cd0 Pd0 2.899006 1_455
Cd0 Si1 3.059057 1_555
Cd1 Li5 2.691202 1_556
Cd1 Li3 2.691202 1_565
Cd1 Li4 2.691203 1_655
Cd1 Pd5 2.816808 1_655
Cd1 Pd4 2.816808 1_555
Cd1 Pd3 2.816808 1_555
Cd1 Li0 2.894660 1_555
Cd1 Li2 2.894660 1_555
Cd1 Li1 2.894660 1_555
Cd1 Pd0 2.899006 1_556
Cd1 Pd1 2.899006 1_655
Cd1 Pd2 2.899006 1_565
Cd1 Si0 3.059057 1_555
Pd0 Si0 2.411144 1_554
Pd0 Si1 2.411144 1_655
Pd1 Si0 2.411144 1_455
Pd1 Si1 2.411144 1_565
Pd2 Si1 2.411144 1_556
Pd2 Si0 2.411144 1_545
Pd3 Si1 2.443441 1_566
Pd3 Si0 2.443441 1_455
Pd4 Si0 2.443441 1_545
Pd4 Si1 2.443441 1_656
Pd5 Si0 2.443441 1_454
Pd5 Si1 2.443441 1_565
