# generated using pymatgen
data_Sr2ScFeO5
_symmetry_space_group_name_H-M   'P 1'
_cell_length_a   5.73377679
_cell_length_b   5.93109111
_cell_length_c   8.66438751
_cell_angle_alpha   110.01513103
_cell_angle_beta   109.32229620
_cell_angle_gamma   90.00000402
_symmetry_Int_Tables_number   1
_chemical_formula_structural   Sr2ScFeO5
_chemical_formula_sum   'Sr4 Sc2 Fe2 O10'
_cell_volume   259.12351906
_cell_formula_units_Z   2
loop_
 _symmetry_equiv_pos_site_id
 _symmetry_equiv_pos_as_xyz
  1  'x, y, z'
loop_
 _atom_site_type_symbol
 _atom_site_label
 _atom_site_symmetry_multiplicity
 _atom_site_fract_x
 _atom_site_fract_y
 _atom_site_fract_z
 _atom_site_occupancy
  Sr  Sr0  1  0.11618939  0.63034144  0.22239392  1
  Sr  Sr1  1  0.89379647  0.36965856  0.77760608  1
  Sr  Sr2  1  0.39379647  0.90794852  0.77760608  1
  Sr  Sr3  1  0.61618939  0.09205148  0.22239392  1
  Sc  Sc0  1  0.49796340  0.50000000  0.00000000  1
  Sc  Sc1  1  0.99796340  0.00000000  0.00000000  1
  Fe  Fe0  1  0.28291394  0.32022162  0.50000000  1
  Fe  Fe1  1  0.78291394  0.67977838  0.50000000  1
  O  O0  1  0.23725240  0.74083460  0.97484713  1
  O  O1  1  0.26240426  0.25916540  0.02515287  1
  O  O2  1  0.76240426  0.26598746  0.02515287  1
  O  O3  1  0.73725240  0.73401254  0.97484713  1
  O  O4  1  0.61984804  0.70859056  0.28561366  1
  O  O5  1  0.33423538  0.29140944  0.71438634  1
  O  O6  1  0.83423538  0.92297791  0.71438634  1
  O  O7  1  0.11984804  0.07702209  0.28561366  1
  O  O8  1  0.11089571  0.59898299  0.50000000  1
  O  O9  1  0.61089571  0.40101701  0.50000000  1
loop_
_geom_bond_atom_site_label_1
_geom_bond_atom_site_label_2
_geom_bond_distance
_geom_bond_site_symmetry_2
Fe0 O5 1.849802 1_555
Fe0 O7 1.849805 1_555
Fe0 O8 1.925204 1_555
Fe0 O9 1.940669 1_555
Fe1 O4 1.849803 1_555
Fe1 O6 1.849804 1_555
Fe1 O9 1.925204 1_555
Fe1 O8 1.940669 1_655
O0 Sc1 2.064292 1_466
O0 Sc0 2.078453 1_556
O0 Sr1 2.615851 1_455
O0 Sr2 2.623605 1_555
O0 Sr0 2.731138 1_556
O0 Sr3 2.741907 1_566
O1 Sc1 2.064288 1_455
O1 Sc0 2.078456 1_555
O1 Sr0 2.615851 1_555
O1 Sr3 2.623606 1_555
O1 Sr1 2.731132 1_454
O1 Sr2 2.741913 1_544
O2 Sc0 2.064288 1_555
O2 Sc1 2.078456 1_555
O2 Sr3 2.615854 1_555
O2 Sr0 2.623602 1_655
O2 Sr2 2.731129 1_544
O2 Sr1 2.741916 1_554
O3 Sc0 2.064292 1_556
O3 Sc1 2.078452 1_566
O3 Sr2 2.615855 1_555
O3 Sr1 2.623602 1_555
O3 Sr3 2.731135 1_566
O3 Sr0 2.741910 1_656
O4 Sc0 2.214209 1_555
O4 Sr3 2.513623 1_565
O4 Sr0 2.763036 1_555
O4 Sr0 3.077698 1_655
O5 Sc0 2.214209 1_556
O5 Sr2 2.513623 1_545
O5 Sr1 2.763036 1_455
O5 Sr1 3.077698 1_555
O6 Sc1 2.214210 1_566
O6 Sr1 2.513623 1_565
O6 Sr2 2.763036 1_555
O6 Sr2 3.077698 1_655
O7 Sc1 2.214210 1_455
O7 Sr0 2.513623 1_545
O7 Sr3 2.763036 1_455
O7 Sr3 3.077698 1_555
O8 Sr0 2.485048 1_555
O8 Sr2 2.485053 1_555
O9 Sr1 2.485050 1_555
O9 Sr3 2.485051 1_555
