# generated using pymatgen
data_TiBe9NbTc
_symmetry_space_group_name_H-M   'P 1'
_cell_length_a   7.37871113
_cell_length_b   7.37871027
_cell_length_c   7.37871152
_cell_angle_alpha   34.98249497
_cell_angle_beta   34.98250795
_cell_angle_gamma   34.98248371
_symmetry_Int_Tables_number   1
_chemical_formula_structural   TiBe9NbTc
_chemical_formula_sum   'Ti1 Be9 Nb1 Tc1'
_cell_volume   117.90315862
_cell_formula_units_Z   1
loop_
 _symmetry_equiv_pos_site_id
 _symmetry_equiv_pos_as_xyz
  1  'x, y, z'
loop_
 _atom_site_type_symbol
 _atom_site_label
 _atom_site_symmetry_multiplicity
 _atom_site_fract_x
 _atom_site_fract_y
 _atom_site_fract_z
 _atom_site_occupancy
  Ti  Ti0  1  0.14301955  0.14301955  0.14301955  1
  Be  Be0  1  0.41603555  0.91925271  0.41603555  1
  Be  Be1  1  0.41603555  0.41603555  0.91925271  1
  Be  Be2  1  0.91925271  0.41603555  0.41603555  1
  Be  Be3  1  0.58612594  0.07641104  0.58612594  1
  Be  Be4  1  0.58612594  0.58612594  0.07641104  1
  Be  Be5  1  0.07641104  0.58612594  0.58612594  1
  Be  Be6  1  0.66715794  0.66715794  0.66715794  1
  Be  Be7  1  0.33550583  0.33550583  0.33550583  1
  Be  Be8  1  0.49998281  0.49998281  0.49998281  1
  Nb  Nb0  1  0.99708257  0.99708257  0.99708257  1
  Tc  Tc0  1  0.85726458  0.85726458  0.85726458  1
loop_
_geom_bond_atom_site_label_1
_geom_bond_atom_site_label_2
_geom_bond_distance
_geom_bond_site_symmetry_2
Be0 Be6 2.158053 1_555
Be0 Be8 2.164861 1_555
Be0 Be7 2.176477 1_565
Be0 Be2 2.203476 1_465
Be0 Be1 2.203476 1_564
Be0 Be2 2.232015 1_555
Be0 Be1 2.232016 1_555
Be0 Tc0 2.542034 1_455
Be0 Tc0 2.542034 1_554
Be0 Ti0 2.567447 1_565
Be0 Nb0 2.770387 1_554
Be0 Nb0 2.770387 1_455
Be1 Be6 2.158054 1_555
Be1 Be8 2.164861 1_555
Be1 Be7 2.176478 1_556
Be1 Be2 2.203477 1_456
Be1 Be2 2.232017 1_555
Be1 Tc0 2.542032 1_545
Be1 Tc0 2.542032 1_455
Be1 Ti0 2.567447 1_556
Be1 Nb0 2.770385 1_455
Be1 Nb0 2.770385 1_545
Be2 Be6 2.158053 1_555
Be2 Be8 2.164861 1_555
Be2 Be7 2.176477 1_655
Be2 Tc0 2.542033 1_545
Be2 Tc0 2.542033 1_554
Be2 Ti0 2.567447 1_655
Be2 Nb0 2.770386 1_554
Be2 Nb0 2.770386 1_545
Be3 Be6 2.121890 1_545
Be3 Be7 2.124064 1_555
Be3 Be8 2.174309 1_555
Be3 Be5 2.174655 1_645
Be3 Be4 2.174656 1_546
Be3 Be5 2.260836 1_555
Be3 Be4 2.260836 1_555
Be3 Ti0 2.545075 1_655
Be3 Ti0 2.545075 1_556
Be3 Tc0 2.564465 1_545
Be3 Nb0 2.844674 1_445
Be3 Nb0 2.844674 1_544
Be4 Be6 2.121891 1_554
Be4 Be7 2.124065 1_555
Be4 Be8 2.174310 1_555
Be4 Be5 2.174657 1_654
Be4 Be5 2.260837 1_555
Be4 Ti0 2.545073 1_565
Be4 Ti0 2.545073 1_655
Be4 Tc0 2.564465 1_554
Be4 Nb0 2.844673 1_544
Be4 Nb0 2.844673 1_454
Be5 Be6 2.121891 1_455
Be5 Be7 2.124064 1_555
Be5 Be8 2.174310 1_555
Be5 Ti0 2.545074 1_565
Be5 Ti0 2.545074 1_556
Be5 Tc0 2.564465 1_455
Be5 Nb0 2.844673 1_445
Be5 Nb0 2.844674 1_454
Be6 Be7 2.561070 1_565
Be6 Be7 2.561071 1_655
Be6 Be7 2.561071 1_556
Be6 Nb0 2.561809 1_545
Be6 Nb0 2.561810 1_455
Be6 Nb0 2.561811 1_554
Be7 Nb0 2.563011 1_454
Be7 Nb0 2.563012 1_544
Be7 Nb0 2.563013 1_445
Be8 Ti0 2.607396 1_565
Be8 Ti0 2.607396 1_655
Be8 Ti0 2.607397 1_556
Be8 Tc0 2.608648 1_545
Be8 Tc0 2.608649 1_455
Be8 Tc0 2.608649 1_554
Nb0 Tc0 2.902655 1_555
Nb0 Ti0 3.029687 1_666
Tc0 Ti0 2.744720 1_656
Tc0 Ti0 2.744721 1_566
Tc0 Ti0 2.744722 1_665
