# generated using pymatgen
data_YAg6NO11
_symmetry_space_group_name_H-M   'P 1'
_cell_length_a   6.94201686
_cell_length_b   6.94201717
_cell_length_c   6.94201750
_cell_angle_alpha   62.27306433
_cell_angle_beta   62.27306657
_cell_angle_gamma   62.27306089
_symmetry_Int_Tables_number   1
_chemical_formula_structural   YAg6NO11
_chemical_formula_sum   'Y1 Ag6 N1 O11'
_cell_volume   248.56381766
_cell_formula_units_Z   1
loop_
 _symmetry_equiv_pos_site_id
 _symmetry_equiv_pos_as_xyz
  1  'x, y, z'
loop_
 _atom_site_type_symbol
 _atom_site_label
 _atom_site_symmetry_multiplicity
 _atom_site_fract_x
 _atom_site_fract_y
 _atom_site_fract_z
 _atom_site_occupancy
  Y  Y0  1  0.99887502  0.99887502  0.99887502  1
  Ag  Ag0  1  0.49804941  0.00099316  0.00099316  1
  Ag  Ag1  1  0.50022032  0.50022032  0.00004601  1
  Ag  Ag2  1  0.50022032  0.00004601  0.50022032  1
  Ag  Ag3  1  0.00099316  0.00099316  0.49804941  1
  Ag  Ag4  1  0.00004601  0.50022032  0.50022032  1
  Ag  Ag5  1  0.00099316  0.49804941  0.00099316  1
  N  N0  1  0.50036970  0.50036970  0.50036970  1
  O  O0  1  0.58465255  0.14411933  0.14411933  1
  O  O1  1  0.14411933  0.58465255  0.14411933  1
  O  O2  1  0.14002200  0.14002200  0.14002200  1
  O  O3  1  0.14411933  0.14411933  0.58465255  1
  O  O4  1  0.60141314  0.60141314  0.29820381  1
  O  O5  1  0.60141314  0.29820381  0.60141314  1
  O  O6  1  0.29820381  0.60141314  0.60141314  1
  O  O7  1  0.85691693  0.85691693  0.41316924  1
  O  O8  1  0.85691693  0.41316924  0.85691693  1
  O  O9  1  0.85928851  0.85928851  0.85928851  1
  O  O10  1  0.41316924  0.85691693  0.85691693  1
loop_
_geom_bond_atom_site_label_1
_geom_bond_atom_site_label_2
_geom_bond_distance
_geom_bond_site_symmetry_2
Ag0 O0 2.089534 1_555
Ag0 O10 2.091785 1_544
Ag0 O2 2.107821 1_555
Ag0 O9 2.129222 1_544
Ag0 O4 2.581915 1_545
Ag0 O5 2.581915 1_554
Ag1 O1 2.086026 1_555
Ag1 O0 2.086026 1_555
Ag1 O8 2.088273 1_554
Ag1 O10 2.088273 1_554
Ag2 O3 2.086026 1_555
Ag2 O0 2.086027 1_555
Ag2 O7 2.088273 1_545
Ag2 O10 2.088273 1_545
Ag3 O3 2.089534 1_555
Ag3 O7 2.091785 1_445
Ag3 O2 2.107821 1_555
Ag3 O9 2.129222 1_445
Ag3 O6 2.581915 1_545
Ag3 O5 2.581915 1_455
Ag4 O3 2.086026 1_555
Ag4 O1 2.086027 1_555
Ag4 O7 2.088273 1_455
Ag4 O8 2.088273 1_455
Ag5 O1 2.089534 1_555
Ag5 O8 2.091785 1_454
Ag5 O2 2.107821 1_555
Ag5 O9 2.129222 1_454
Ag5 O4 2.581915 1_455
Ag5 O6 2.581915 1_554
N0 O5 1.256767 1_555
N0 O6 1.256767 1_555
N0 O4 1.256767 1_555
O0 Y0 2.419131 1_544
O1 Y0 2.419131 1_454
O2 Y0 2.358059 1_444
O3 Y0 2.419131 1_445
O7 Y0 2.417217 1_554
O8 Y0 2.417217 1_545
O9 Y0 2.331989 1_555
O10 Y0 2.417217 1_455
