# generated using pymatgen
data_CsScSn3O8
_symmetry_space_group_name_H-M   'P 1'
_cell_length_a   7.65484441
_cell_length_b   7.65484459
_cell_length_c   10.65518671
_cell_angle_alpha   46.81742958
_cell_angle_beta   46.81742734
_cell_angle_gamma   24.38029199
_symmetry_Int_Tables_number   1
_chemical_formula_structural   CsScSn3O8
_chemical_formula_sum   'Cs1 Sc1 Sn3 O8'
_cell_volume   184.02758718
_cell_formula_units_Z   1
loop_
 _symmetry_equiv_pos_site_id
 _symmetry_equiv_pos_as_xyz
  1  'x, y, z'
loop_
 _atom_site_type_symbol
 _atom_site_label
 _atom_site_symmetry_multiplicity
 _atom_site_fract_x
 _atom_site_fract_y
 _atom_site_fract_z
 _atom_site_occupancy
  Cs  Cs0  1  0.49965329  0.49965329  0.99688419  1
  Sc  Sc0  1  0.34851370  0.34851370  0.81442037  1
  Sn  Sn0  1  0.65405486  0.65405486  0.17801117  1
  Sn  Sn1  1  0.16302877  0.16302877  0.48807314  1
  Sn  Sn2  1  0.83875982  0.83875982  0.51370029  1
  O  O0  1  0.14782568  0.14782568  0.06073231  1
  O  O1  1  0.84129529  0.84129529  0.95351469  1
  O  O2  1  0.20878491  0.20878491  0.63406583  1
  O  O3  1  0.79546383  0.79546383  0.36194841  1
  O  O4  1  0.54465053  0.54465053  0.62163484  1
  O  O5  1  0.46054912  0.46054912  0.37580303  1
  O  O6  1  0.16346970  0.16346970  0.29644093  1
  O  O7  1  0.83395151  0.83395151  0.70476980  1
loop_
_geom_bond_atom_site_label_1
_geom_bond_atom_site_label_2
_geom_bond_distance
_geom_bond_site_symmetry_2
Cs0 O1 3.158364 1_455
Cs0 O1 3.158364 1_545
Cs0 O0 3.178712 1_656
Cs0 O0 3.178712 1_566
Cs0 O2 3.226652 1_655
Cs0 O2 3.226652 1_565
Cs0 O3 3.230696 1_456
Cs0 O3 3.230696 1_546
O0 Sn0 2.084712 1_455
O0 Sn0 2.084712 1_545
O0 Sc0 2.206985 1_554
O1 Sn0 2.046457 1_556
O1 Sc0 2.143993 1_655
O1 Sc0 2.143994 1_565
O2 Sn1 2.092866 1_555
O2 Sn2 2.132534 1_545
O2 Sn2 2.132534 1_455
O3 Sn2 2.121601 1_555
O3 Sn1 2.148729 1_565
O3 Sn1 2.148729 1_655
O4 Sn1 2.060595 1_655
O4 Sn1 2.060596 1_565
O4 Sc0 2.095752 1_555
O5 Sn0 2.069192 1_555
O5 Sn2 2.084112 1_455
O5 Sn2 2.084112 1_545
O6 Sn1 2.037263 1_555
O6 Sn0 2.115140 1_545
O6 Sn0 2.115140 1_455
O7 Sn2 1.986170 1_555
O7 Sc0 2.093246 1_565
O7 Sc0 2.093246 1_655
