# generated using pymatgen
data_CaSiO3
_symmetry_space_group_name_H-M   'P 1'
_cell_length_a   5.09299400
_cell_length_b   5.09299400
_cell_length_c   3.62419100
_cell_angle_alpha   90.00000000
_cell_angle_beta   90.00000000
_cell_angle_gamma   90.00000000
_symmetry_Int_Tables_number   1
_chemical_formula_structural   CaSiO3
_chemical_formula_sum   'Ca2 Si2 O6'
_cell_volume   94.00639676
_cell_formula_units_Z   2
loop_
 _symmetry_equiv_pos_site_id
 _symmetry_equiv_pos_as_xyz
  1  'x, y, z'
loop_
 _atom_site_type_symbol
 _atom_site_label
 _atom_site_symmetry_multiplicity
 _atom_site_fract_x
 _atom_site_fract_y
 _atom_site_fract_z
 _atom_site_occupancy
  Ca  Ca0  1  0.00000000  0.50000000  0.50000000  1
  Ca  Ca1  1  0.50000000  0.00000000  0.50000000  1
  Si  Si0  1  0.50000000  0.50000000  0.00000000  1
  Si  Si1  1  0.00000000  0.00000000  0.00000000  1
  O  O0  1  0.26697700  0.76697700  0.00000000  1
  O  O1  1  0.76697700  0.73302300  0.00000000  1
  O  O2  1  0.23302300  0.26697700  0.00000000  1
  O  O3  1  0.73302300  0.23302300  0.00000000  1
  O  O4  1  0.00000000  0.00000000  0.50000000  1
  O  O5  1  0.50000000  0.50000000  0.50000000  1
loop_
_geom_bond_atom_site_label_1
_geom_bond_atom_site_label_2
_geom_bond_distance
_geom_bond_site_symmetry_2
Ca0 O2 2.469941 1_556
Ca0 O2 2.469941 1_555
Ca0 O1 2.469941 1_456
Ca0 O1 2.469941 1_455
Ca0 O4 2.546497 1_555
Ca0 O5 2.546497 1_555
Ca0 O5 2.546497 1_455
Ca0 O4 2.546497 1_565
Ca0 O0 2.642220 1_555
Ca0 O0 2.642220 1_556
Ca0 O3 2.642220 1_455
Ca0 O3 2.642220 1_456
Ca1 O3 2.469941 1_555
Ca1 O3 2.469941 1_556
Ca1 O0 2.469941 1_546
Ca1 O0 2.469941 1_545
Ca1 O5 2.546497 1_545
Ca1 O4 2.546497 1_555
Ca1 O4 2.546497 1_655
Ca1 O5 2.546497 1_555
Ca1 O2 2.642220 1_555
Ca1 O1 2.642220 1_546
Ca1 O2 2.642220 1_556
Ca1 O1 2.642220 1_545
O0 Si1 1.804792 1_565
O0 Si0 1.804792 1_555
O1 Si0 1.804792 1_555
O1 Si1 1.804792 1_665
O2 Si1 1.804792 1_555
O2 Si0 1.804792 1_555
O3 Si1 1.804792 1_655
O3 Si0 1.804792 1_555
O4 Si1 1.812095 1_555
O4 Si1 1.812095 1_556
O5 Si0 1.812095 1_556
O5 Si0 1.812095 1_555
