# generated using pymatgen
data_U2SeN2
_symmetry_space_group_name_H-M   'P 1'
_cell_length_a   3.84397768
_cell_length_b   3.84397768
_cell_length_c   7.00266337
_cell_angle_alpha   90.00000000
_cell_angle_beta   90.00000000
_cell_angle_gamma   120.00000237
_symmetry_Int_Tables_number   1
_chemical_formula_structural   U2SeN2
_chemical_formula_sum   'U2 Se1 N2'
_cell_volume   89.60981586
_cell_formula_units_Z   1
loop_
 _symmetry_equiv_pos_site_id
 _symmetry_equiv_pos_as_xyz
  1  'x, y, z'
loop_
 _atom_site_type_symbol
 _atom_site_label
 _atom_site_symmetry_multiplicity
 _atom_site_fract_x
 _atom_site_fract_y
 _atom_site_fract_z
 _atom_site_occupancy
  U  U0  1  0.66666700  0.33333300  0.70200685  1
  U  U1  1  0.33333300  0.66666700  0.29799315  1
  Se  Se0  1  0.00000000  -0.00000000  0.00000000  1
  N  N0  1  0.33333300  0.66666700  0.62672174  1
  N  N1  1  0.66666700  0.33333300  0.37327826  1
loop_
_geom_bond_atom_site_label_1
_geom_bond_atom_site_label_2
_geom_bond_distance
_geom_bond_site_symmetry_2
Se0 U1 3.046291 1_545
Se0 U0 3.046291 1_454
Se0 U1 3.046293 1_445
Se0 U1 3.046293 1_555
Se0 U0 3.046293 1_444
Se0 U0 3.046293 1_554
N0 U0 2.281077 1_455
N0 U0 2.281077 1_565
N0 U0 2.281084 1_555
N0 U1 2.301976 1_555
N1 U1 2.281077 1_545
N1 U1 2.281077 1_655
N1 U1 2.281084 1_555
N1 U0 2.301976 1_555
