# generated using pymatgen
data_Ba3ScTiSbO9
_symmetry_space_group_name_H-M   'P 1'
_cell_length_a   5.86410969
_cell_length_b   5.86410930
_cell_length_c   14.37388317
_cell_angle_alpha   90.00000000
_cell_angle_beta   90.00000000
_cell_angle_gamma   119.99999674
_symmetry_Int_Tables_number   1
_chemical_formula_structural   Ba3ScTiSbO9
_chemical_formula_sum   'Ba6 Sc2 Ti2 Sb2 O18'
_cell_volume   428.06419021
_cell_formula_units_Z   2
loop_
 _symmetry_equiv_pos_site_id
 _symmetry_equiv_pos_as_xyz
  1  'x, y, z'
loop_
 _atom_site_type_symbol
 _atom_site_label
 _atom_site_symmetry_multiplicity
 _atom_site_fract_x
 _atom_site_fract_y
 _atom_site_fract_z
 _atom_site_occupancy
  Ba  Ba0  1  0.66666700  0.33333300  0.60231772  1
  Ba  Ba1  1  0.33333300  0.66666700  0.39768228  1
  Ba  Ba2  1  0.33333300  0.66666700  0.09498401  1
  Ba  Ba3  1  0.66666700  0.33333300  0.90501599  1
  Ba  Ba4  1  0.00000000  0.00000000  0.25181167  1
  Ba  Ba5  1  0.00000000  0.00000000  0.74818833  1
  Sc  Sc0  1  0.00000000  0.00000000  0.50000000  1
  Sc  Sc1  1  0.00000000  0.00000000  0.00000000  1
  Ti  Ti0  1  0.66666700  0.33333300  0.35551819  1
  Ti  Ti1  1  0.33333300  0.66666700  0.64448181  1
  Sb  Sb0  1  0.33333300  0.66666700  0.84140854  1
  Sb  Sb1  1  0.66666700  0.33333300  0.15859146  1
  O  O0  1  0.34077965  0.17038983  0.08370215  1
  O  O1  1  0.82961017  0.17038983  0.08370215  1
  O  O2  1  0.82961017  0.65922035  0.08370215  1
  O  O3  1  0.65922035  0.82961017  0.91629785  1
  O  O4  1  0.17038983  0.82961017  0.91629785  1
  O  O5  1  0.17038983  0.34077965  0.91629785  1
  O  O6  1  0.65809293  0.82904597  0.58420829  1
  O  O7  1  0.17095403  0.82904597  0.58420829  1
  O  O8  1  0.17095403  0.34190707  0.58420829  1
  O  O9  1  0.34190707  0.17095403  0.41579171  1
  O  O10  1  0.82904597  0.17095403  0.41579171  1
  O  O11  1  0.82904597  0.65809293  0.41579171  1
  O  O12  1  0.96686645  0.48343322  0.24943238  1
  O  O13  1  0.51656678  0.48343322  0.24943238  1
  O  O14  1  0.51656678  0.03313355  0.24943238  1
  O  O15  1  0.03313355  0.51656678  0.75056762  1
  O  O16  1  0.48343322  0.51656678  0.75056762  1
  O  O17  1  0.48343322  0.96686645  0.75056762  1
loop_
_geom_bond_atom_site_label_1
_geom_bond_atom_site_label_2
_geom_bond_distance
_geom_bond_site_symmetry_2
Ba0 O17 2.829222 1_545
Ba0 O15 2.829222 1_655
Ba0 O16 2.829226 1_555
Ba0 O6 2.943909 1_555
Ba0 O6 2.943909 1_545
Ba0 O8 2.943909 1_555
Ba0 O8 2.943909 1_655
Ba0 O7 2.943909 1_545
Ba0 O7 2.943909 1_655
Ba0 O10 3.147763 1_555
Ba0 O11 3.147769 1_555
Ba0 O9 3.147769 1_555
Ba1 O14 2.829222 1_565
Ba1 O12 2.829222 1_455
Ba1 O13 2.829226 1_555
Ba1 O9 2.943909 1_555
Ba1 O9 2.943909 1_565
Ba1 O11 2.943909 1_555
Ba1 O11 2.943909 1_455
Ba1 O10 2.943909 1_565
Ba1 O10 2.943909 1_455
Ba1 O7 3.147763 1_555
Ba1 O8 3.147769 1_555
Ba1 O6 3.147769 1_555
Ba2 O14 2.896921 1_565
Ba2 O12 2.896921 1_455
Ba2 O13 2.896924 1_555
Ba2 O0 2.936776 1_565
Ba2 O2 2.936776 1_455
Ba2 O1 2.936779 1_565
Ba2 O1 2.936779 1_455
Ba2 O0 2.936782 1_555
Ba2 O2 2.936782 1_555
Ba2 O4 3.055452 1_554
Ba2 O5 3.055455 1_554
Ba2 O3 3.055455 1_554
Ba3 O17 2.896921 1_545
Ba3 O15 2.896921 1_655
Ba3 O16 2.896924 1_555
Ba3 O3 2.936776 1_545
Ba3 O5 2.936776 1_655
Ba3 O4 2.936779 1_545
Ba3 O4 2.936779 1_655
Ba3 O3 2.936782 1_555
Ba3 O5 2.936782 1_555
Ba3 O1 3.055452 1_556
Ba3 O2 3.055455 1_556
Ba3 O0 3.055455 1_556
Ba4 O11 2.927550 1_445
Ba4 O9 2.927550 1_555
Ba4 O10 2.927553 1_455
Ba4 O12 2.937078 1_455
Ba4 O12 2.937078 1_445
Ba4 O14 2.937078 1_455
Ba4 O14 2.937078 1_555
Ba4 O13 2.937078 1_445
Ba4 O13 2.937078 1_555
Ba4 O1 2.972210 1_455
Ba4 O2 2.972210 1_445
Ba4 O0 2.972210 1_555
Ba5 O8 2.927550 1_555
Ba5 O6 2.927550 1_445
Ba5 O7 2.927553 1_545
Ba5 O15 2.937078 1_545
Ba5 O15 2.937078 1_555
Ba5 O17 2.937078 1_545
Ba5 O17 2.937078 1_445
Ba5 O16 2.937078 1_555
Ba5 O16 2.937078 1_445
Ba5 O4 2.972210 1_545
Ba5 O5 2.972210 1_555
Ba5 O3 2.972210 1_445
O0 Sb1 1.974284 1_555
O0 Sc1 2.107752 1_555
O1 Sb1 1.974280 1_555
O1 Sc1 2.107752 1_655
O2 Sb1 1.974284 1_555
O2 Sc1 2.107752 1_665
O3 Sb0 1.974284 1_555
O3 Sc1 2.107752 1_666
O4 Sb0 1.974280 1_555
O4 Sc1 2.107752 1_566
O5 Sb0 1.974284 1_555
O5 Sc1 2.107752 1_556
O6 Ti1 1.862987 1_555
O6 Sc0 2.116608 1_665
O7 Ti1 1.862978 1_555
O7 Sc0 2.116612 1_565
O8 Ti1 1.862987 1_555
O8 Sc0 2.116608 1_555
O9 Ti0 1.862987 1_555
O9 Sc0 2.116608 1_555
O10 Ti0 1.862978 1_555
O10 Sc0 2.116612 1_655
O11 Ti0 1.862987 1_555
O11 Sc0 2.116608 1_665
O12 Sb1 2.007290 1_555
O12 Ti0 2.156264 1_555
O13 Sb1 2.007293 1_555
O13 Ti0 2.156268 1_555
O14 Sb1 2.007290 1_555
O14 Ti0 2.156264 1_555
O15 Sb0 2.007290 1_555
O15 Ti1 2.156264 1_555
O16 Sb0 2.007293 1_555
O16 Ti1 2.156268 1_555
O17 Sb0 2.007290 1_555
O17 Ti1 2.156264 1_555
