# generated using pymatgen
data_Rb2ZnCu3F12
_symmetry_space_group_name_H-M   'P 1'
_cell_length_a   7.13868976
_cell_length_b   7.13868970
_cell_length_c   7.13868926
_cell_angle_alpha   60.65060648
_cell_angle_beta   60.65060841
_cell_angle_gamma   60.65060169
_symmetry_Int_Tables_number   1
_chemical_formula_structural   Rb2ZnCu3F12
_chemical_formula_sum   'Rb2 Zn1 Cu3 F12'
_cell_volume   261.01981606
_cell_formula_units_Z   1
loop_
 _symmetry_equiv_pos_site_id
 _symmetry_equiv_pos_as_xyz
  1  'x, y, z'
loop_
 _atom_site_type_symbol
 _atom_site_label
 _atom_site_symmetry_multiplicity
 _atom_site_fract_x
 _atom_site_fract_y
 _atom_site_fract_z
 _atom_site_occupancy
  Rb  Rb0  1  0.87549681  0.87549681  0.87549681  1
  Rb  Rb1  1  0.12450319  0.12450319  0.12450319  1
  Zn  Zn0  1  0.50000000  0.50000000  0.50000000  1
  Cu  Cu0  1  0.50000000  0.50000000  0.00000000  1
  Cu  Cu1  1  0.00000000  0.50000000  0.50000000  1
  Cu  Cu2  1  0.50000000  0.00000000  0.50000000  1
  F  F0  1  0.81837218  0.42601986  0.81837218  1
  F  F1  1  0.81837218  0.81837218  0.42601986  1
  F  F2  1  0.42601986  0.81837218  0.81837218  1
  F  F3  1  0.18162782  0.57398014  0.18162782  1
  F  F4  1  0.18162782  0.18162782  0.57398014  1
  F  F5  1  0.57398014  0.18162782  0.18162782  1
  F  F6  1  0.42404803  0.83413532  0.42404803  1
  F  F7  1  0.42404803  0.42404803  0.83413532  1
  F  F8  1  0.83413532  0.42404803  0.42404803  1
  F  F9  1  0.57595197  0.16586468  0.57595197  1
  F  F10  1  0.57595197  0.57595197  0.16586468  1
  F  F11  1  0.16586468  0.57595197  0.57595197  1
loop_
_geom_bond_atom_site_label_1
_geom_bond_atom_site_label_2
_geom_bond_distance
_geom_bond_site_symmetry_2
Cu0 F10 1.880631 1_555
Cu0 F7 1.880631 1_554
Cu0 F2 1.931693 1_554
Cu0 F5 1.931693 1_555
Cu0 F0 1.931693 1_554
Cu0 F3 1.931693 1_555
Cu1 F11 1.880631 1_555
Cu1 F8 1.880631 1_455
Cu1 F1 1.931693 1_455
Cu1 F4 1.931693 1_555
Cu1 F0 1.931693 1_455
Cu1 F3 1.931693 1_555
Cu2 F9 1.880631 1_555
Cu2 F6 1.880631 1_545
Cu2 F1 1.931693 1_545
Cu2 F4 1.931693 1_555
Cu2 F2 1.931693 1_545
Cu2 F5 1.931693 1_555
F0 Rb1 3.105511 1_656
F1 Rb1 3.105512 1_665
F2 Rb1 3.105511 1_566
F3 Rb0 3.105511 1_454
F4 Rb0 3.105512 1_445
F5 Rb0 3.105511 1_544
F6 Zn0 2.007530 1_555
F6 Rb1 3.038772 1_565
F7 Zn0 2.007530 1_555
F7 Rb1 3.038772 1_556
F8 Zn0 2.007530 1_555
F8 Rb1 3.038772 1_655
F9 Zn0 2.007530 1_555
F9 Rb0 3.038772 1_545
F10 Zn0 2.007530 1_555
F10 Rb0 3.038772 1_554
F11 Zn0 2.007530 1_555
F11 Rb0 3.038772 1_455
