# generated using pymatgen
data_Be6TcNi2W3
_symmetry_space_group_name_H-M   'P 1'
_cell_length_a   4.51248741
_cell_length_b   4.51248669
_cell_length_c   7.17572130
_cell_angle_alpha   90.00000000
_cell_angle_beta   90.00000000
_cell_angle_gamma   120.00000526
_symmetry_Int_Tables_number   1
_chemical_formula_structural   Be6TcNi2W3
_chemical_formula_sum   'Be6 Tc1 Ni2 W3'
_cell_volume   126.54008120
_cell_formula_units_Z   1
loop_
 _symmetry_equiv_pos_site_id
 _symmetry_equiv_pos_as_xyz
  1  'x, y, z'
loop_
 _atom_site_type_symbol
 _atom_site_label
 _atom_site_symmetry_multiplicity
 _atom_site_fract_x
 _atom_site_fract_y
 _atom_site_fract_z
 _atom_site_occupancy
  Be  Be0  1  0.83016090  0.16983910  0.25130921  1
  Be  Be1  1  0.83016090  0.66032180  0.25130921  1
  Be  Be2  1  0.33967820  0.16983910  0.25130921  1
  Be  Be3  1  0.17001090  0.82998910  0.74972134  1
  Be  Be4  1  0.17001090  0.34002080  0.74972134  1
  Be  Be5  1  0.65997920  0.82998910  0.74972134  1
  Tc  Tc0  1  0.33333300  0.66666700  0.42785053  1
  Ni  Ni0  1  0.00000000  0.00000000  0.50167415  1
  Ni  Ni1  1  0.00000000  0.00000000  0.00262552  1
  W  W0  1  0.66666700  0.33333300  0.56314200  1
  W  W1  1  0.66666700  0.33333300  0.93127064  1
  W  W2  1  0.33333300  0.66666700  0.07034751  1
loop_
_geom_bond_atom_site_label_1
_geom_bond_atom_site_label_2
_geom_bond_distance
_geom_bond_site_symmetry_2
Be0 Be1 2.213297 1_555
Be0 Be2 2.213297 1_555
Be0 Ni1 2.224068 1_655
Be0 Ni0 2.233759 1_655
Be0 Be1 2.299190 1_545
Be0 Be2 2.299190 1_655
Be0 W0 2.576791 1_555
Be0 Tc0 2.587675 1_545
Be0 Tc0 2.587675 1_655
Be0 W2 2.603350 1_545
Be0 W2 2.603350 1_655
Be0 W1 2.628086 1_554
Be1 Be2 2.213297 1_555
Be1 Ni1 2.224068 1_665
Be1 Ni0 2.233759 1_665
Be1 Be2 2.299190 1_665
Be1 W0 2.576793 1_555
Be1 Tc0 2.587673 1_655
Be1 Tc0 2.587677 1_555
Be1 W2 2.603348 1_655
Be1 W2 2.603352 1_555
Be1 W1 2.628088 1_554
Be2 Ni1 2.224068 1_555
Be2 Ni0 2.233759 1_555
Be2 W0 2.576793 1_555
Be2 Tc0 2.587673 1_545
Be2 Tc0 2.587677 1_555
Be2 W2 2.603348 1_545
Be2 W2 2.603352 1_555
Be2 W1 2.628088 1_554
Be3 Be4 2.210975 1_555
Be3 Be5 2.210976 1_555
Be3 Ni0 2.221208 1_565
Be3 Ni1 2.249233 1_566
Be3 Be4 2.301511 1_565
Be3 Be5 2.301512 1_455
Be3 W1 2.605469 1_565
Be3 W1 2.605469 1_455
Be3 W0 2.623702 1_565
Be3 W0 2.623702 1_455
Be3 W2 2.631119 1_556
Be3 Tc0 2.638933 1_555
Be4 Be5 2.210975 1_555
Be4 Ni0 2.221206 1_555
Be4 Ni1 2.249230 1_556
Be4 Be5 2.301511 1_445
Be4 W1 2.605469 1_555
Be4 W1 2.605469 1_455
Be4 W0 2.623703 1_555
Be4 W0 2.623703 1_455
Be4 W2 2.631123 1_556
Be4 Tc0 2.638936 1_555
Be5 Ni0 2.221206 1_665
Be5 Ni1 2.249231 1_666
Be5 W1 2.605469 1_565
Be5 W1 2.605469 1_555
Be5 W0 2.623702 1_565
Be5 W0 2.623702 1_555
Be5 W2 2.631123 1_556
Be5 Tc0 2.638936 1_555
Tc0 W2 2.565342 1_555
Tc0 W0 2.780284 1_565
Tc0 W0 2.780284 1_455
Tc0 W0 2.780291 1_555
Ni0 W0 2.642357 1_455
Ni0 W0 2.642360 1_445
Ni0 W0 2.642360 1_555
Ni0 Tc0 2.658594 1_545
Ni0 Tc0 2.658597 1_555
Ni0 Tc0 2.658598 1_445
Ni1 W2 2.650217 1_545
Ni1 W2 2.650221 1_555
Ni1 W2 2.650221 1_445
Ni1 W1 2.655121 1_454
Ni1 W1 2.655124 1_444
Ni1 W1 2.655125 1_554
W0 W1 2.641589 1_555
W1 W2 2.789885 1_546
W1 W2 2.789885 1_656
W1 W2 2.789892 1_556
