# generated using pymatgen
data_Y20Cd3Hg3Pd2
_symmetry_space_group_name_H-M   'P 1'
_cell_length_a   9.80346554
_cell_length_b   9.80348940
_cell_length_c   9.61454775
_cell_angle_alpha   90.00000000
_cell_angle_beta   90.00000000
_cell_angle_gamma   119.99987167
_symmetry_Int_Tables_number   1
_chemical_formula_structural   Y20Cd3Hg3Pd2
_chemical_formula_sum   'Y20 Cd3 Hg3 Pd2'
_cell_volume   800.24019947
_cell_formula_units_Z   1
loop_
 _symmetry_equiv_pos_site_id
 _symmetry_equiv_pos_as_xyz
  1  'x, y, z'
loop_
 _atom_site_type_symbol
 _atom_site_label
 _atom_site_symmetry_multiplicity
 _atom_site_fract_x
 _atom_site_fract_y
 _atom_site_fract_z
 _atom_site_occupancy
  Y  Y0  1  0.20707498  0.79292502  0.93868982  1
  Y  Y1  1  0.20707498  0.41414896  0.93868982  1
  Y  Y2  1  0.58585004  0.79292502  0.93868982  1
  Y  Y3  1  0.79299582  0.20700418  0.06129336  1
  Y  Y4  1  0.79299582  0.58599163  0.06129336  1
  Y  Y5  1  0.41400837  0.20700418  0.06129336  1
  Y  Y6  1  0.79299582  0.20700418  0.43870664  1
  Y  Y7  1  0.79299582  0.58599163  0.43870664  1
  Y  Y8  1  0.41400837  0.20700418  0.43870664  1
  Y  Y9  1  0.20707498  0.79292502  0.56131018  1
  Y  Y10  1  0.20707498  0.41414896  0.56131018  1
  Y  Y11  1  0.58585004  0.79292502  0.56131018  1
  Y  Y12  1  0.54316740  0.45683260  0.75000000  1
  Y  Y13  1  0.54316740  0.08633380  0.75000000  1
  Y  Y14  1  0.91366620  0.45683260  0.75000000  1
  Y  Y15  1  0.45637618  0.54362382  0.25000000  1
  Y  Y16  1  0.45637618  0.91275236  0.25000000  1
  Y  Y17  1  0.08724764  0.54362382  0.25000000  1
  Y  Y18  1  0.00000000  0.00000000  0.98508766  1
  Y  Y19  1  0.00000000  0.00000000  0.51491234  1
  Cd  Cd0  1  0.11346605  0.88653495  0.25000000  1
  Cd  Cd1  1  0.11346705  0.22693309  0.25000000  1
  Cd  Cd2  1  0.77306691  0.88653295  0.25000000  1
  Hg  Hg0  1  0.87596269  0.12403631  0.75000000  1
  Hg  Hg1  1  0.87596269  0.75192637  0.75000000  1
  Hg  Hg2  1  0.24807363  0.12403731  0.75000000  1
  Pd  Pd0  1  0.33333300  0.66666600  0.75000000  1
  Pd  Pd1  1  0.66666700  0.33333300  0.25000000  1
loop_
_geom_bond_atom_site_label_1
_geom_bond_atom_site_label_2
_geom_bond_distance
_geom_bond_site_symmetry_2
Y0 Y18 3.544341 1_565
Y0 Y13 3.597749 1_565
Y0 Y14 3.597750 1_455
Y0 Y16 3.666176 1_556
Y0 Y17 3.666179 1_556
Y0 Y4 3.707919 1_456
Y0 Y5 3.707927 1_566
Y1 Y18 3.544344 1_555
Y1 Y14 3.597741 1_455
Y1 Y12 3.597742 1_555
Y1 Y15 3.666176 1_556
Y1 Y17 3.666180 1_556
Y1 Y5 3.707908 1_556
Y1 Y3 3.707919 1_456
Y2 Y4 3.707916 1_556
Y2 Y3 3.707927 1_566
Y3 Y6 3.628658 1_555
Y3 Y5 3.715390 1_555
Y3 Y4 3.715399 1_555
Y4 Y7 3.628658 1_555
Y4 Y5 3.715402 1_555
Y5 Y8 3.628658 1_555
Y6 Y8 3.715390 1_555
Y6 Y7 3.715399 1_555
Y7 Y9 3.707919 1_655
Y7 Y8 3.715402 1_555
Y8 Y9 3.707927 1_545
Y10 Y19 3.544344 1_555
Y10 Y14 3.597741 1_455
Y10 Y12 3.597742 1_555
Y10 Y15 3.666176 1_555
Y10 Y17 3.666180 1_555
Y10 Y8 3.707908 1_555
Y10 Y6 3.707919 1_455
Y11 Y19 3.544343 1_665
Y11 Y13 3.597742 1_565
Y11 Y12 3.597752 1_555
Y11 Y16 3.666175 1_555
Y11 Y15 3.666179 1_555
Y11 Y7 3.707916 1_555
Y11 Y6 3.707927 1_565
Y12 Y2 3.597752 1_555
Y12 Y14 3.632172 1_555
Y12 Y13 3.632181 1_555
Y12 Y4 3.668561 1_556
Y12 Y7 3.668561 1_555
Y12 Y5 3.668564 1_556
Y12 Y8 3.668564 1_555
Y13 Y2 3.597742 1_545
Y13 Y9 3.597749 1_545
Y13 Y14 3.632184 1_555
Y13 Y3 3.668561 1_556
Y13 Y6 3.668561 1_555
Y13 Y5 3.668565 1_556
Y13 Y8 3.668565 1_555
Y14 Y9 3.597750 1_655
Y14 Y3 3.668564 1_556
Y14 Y6 3.668564 1_555
Y14 Y4 3.668565 1_556
Y14 Y7 3.668565 1_555
Y15 Y7 3.603317 1_555
Y15 Y4 3.603317 1_555
Y15 Y8 3.603324 1_555
Y15 Y5 3.603324 1_555
Y15 Y17 3.618739 1_555
Y15 Y16 3.618748 1_555
Y15 Y2 3.666179 1_554
Y16 Y8 3.603322 1_565
Y16 Y5 3.603322 1_565
Y16 Y6 3.603324 1_565
Y16 Y3 3.603324 1_565
Y16 Y17 3.618750 1_555
Y16 Y2 3.666175 1_554
Y16 Y9 3.666176 1_555
Y17 Y7 3.603316 1_455
Y17 Y4 3.603316 1_455
Y17 Y6 3.603325 1_455
Y17 Y3 3.603325 1_455
Y17 Y9 3.666179 1_555
Y18 Y2 3.544343 1_445
Y18 Y3 3.590505 1_456
Y18 Y5 3.590507 1_556
Y18 Y4 3.590516 1_446
Y19 Y9 3.544341 1_545
Y19 Y6 3.590505 1_455
Y19 Y8 3.590507 1_555
Y19 Y7 3.590516 1_445
Cd0 Y19 3.193631 1_565
Cd0 Y18 3.193631 1_564
Cd0 Y16 3.240850 1_555
Cd0 Y17 3.240864 1_555
Cd0 Cd2 3.337081 1_455
Cd0 Cd1 3.337085 1_565
Cd0 Y0 3.388981 1_554
Cd0 Y9 3.388981 1_555
Cd0 Y8 3.547761 1_565
Cd0 Y5 3.547761 1_565
Cd0 Y7 3.547769 1_455
Cd0 Y4 3.547769 1_455
Cd1 Y19 3.193645 1_555
Cd1 Y18 3.193645 1_554
Cd1 Y15 3.240845 1_555
Cd1 Y17 3.240848 1_555
Cd1 Cd2 3.337112 1_445
Cd1 Y1 3.388971 1_554
Cd1 Y10 3.388971 1_555
Cd1 Y8 3.547753 1_555
Cd1 Y5 3.547753 1_555
Cd1 Y6 3.547762 1_455
Cd1 Y3 3.547762 1_455
Cd2 Y19 3.193642 1_665
Cd2 Y18 3.193642 1_664
Cd2 Y16 3.240841 1_555
Cd2 Y15 3.240847 1_555
Cd2 Y2 3.388974 1_554
Cd2 Y11 3.388974 1_555
Cd2 Y7 3.547759 1_555
Cd2 Y4 3.547759 1_555
Cd2 Y6 3.547768 1_565
Cd2 Y3 3.547768 1_565
Hg0 Y18 3.089448 1_655
Hg0 Y19 3.089448 1_655
Hg0 Y13 3.094341 1_555
Hg0 Y14 3.094355 1_555
Hg0 Y3 3.307933 1_556
Hg0 Y6 3.307933 1_555
Hg0 Y11 3.561587 1_545
Hg0 Y2 3.561587 1_545
Hg0 Y10 3.561590 1_655
Hg0 Y1 3.561590 1_655
Hg1 Y18 3.089452 1_665
Hg1 Y19 3.089452 1_665
Hg1 Y12 3.094353 1_555
Hg1 Y14 3.094362 1_555
Hg1 Y4 3.307935 1_556
Hg1 Y7 3.307935 1_555
Hg1 Y11 3.561578 1_555
Hg1 Y2 3.561578 1_555
Hg1 Y9 3.561587 1_655
Hg1 Y0 3.561587 1_655
Hg2 Y18 3.089449 1_555
Hg2 Y19 3.089449 1_555
Hg2 Y12 3.094355 1_555
Hg2 Y13 3.094356 1_555
Hg2 Y5 3.307934 1_556
Hg2 Y8 3.307934 1_555
Hg2 Y10 3.561575 1_555
Hg2 Y1 3.561575 1_555
Hg2 Y9 3.561594 1_545
Hg2 Y0 3.561594 1_545
Pd0 Y9 2.808459 1_555
Pd0 Y0 2.808459 1_555
Pd0 Y11 2.808460 1_555
Pd0 Y2 2.808460 1_555
Pd0 Y10 2.808464 1_555
Pd0 Y1 2.808464 1_555
Pd0 Y14 3.562997 1_455
Pd0 Y12 3.563003 1_555
Pd0 Y13 3.563014 1_565
Pd1 Y6 2.809474 1_555
Pd1 Y3 2.809474 1_555
Pd1 Y8 2.809482 1_555
Pd1 Y5 2.809482 1_555
Pd1 Y7 2.809486 1_555
Pd1 Y4 2.809486 1_555
Pd1 Y17 3.570755 1_655
Pd1 Y15 3.570761 1_555
Pd1 Y16 3.570764 1_545
