# generated using pymatgen
data_Hf7Zr2ScSn6
_symmetry_space_group_name_H-M   'P 1'
_cell_length_a   8.42609331
_cell_length_b   8.44941210
_cell_length_c   5.74715488
_cell_angle_alpha   90.00000000
_cell_angle_beta   90.00000000
_cell_angle_gamma   120.19362025
_symmetry_Int_Tables_number   1
_chemical_formula_structural   Hf7Zr2ScSn6
_chemical_formula_sum   'Hf7 Zr2 Sc1 Sn6'
_cell_volume   353.65976186
_cell_formula_units_Z   1
loop_
 _symmetry_equiv_pos_site_id
 _symmetry_equiv_pos_as_xyz
  1  'x, y, z'
loop_
 _atom_site_type_symbol
 _atom_site_label
 _atom_site_symmetry_multiplicity
 _atom_site_fract_x
 _atom_site_fract_y
 _atom_site_fract_z
 _atom_site_occupancy
  Hf  Hf0  1  0.24884563  0.00144468  0.75000000  1
  Hf  Hf1  1  0.00198574  0.25228839  0.75000000  1
  Hf  Hf2  1  0.00063426  0.75147775  0.25000000  1
  Hf  Hf3  1  0.66509554  0.33104801  0.00008691  1
  Hf  Hf4  1  0.33164153  0.66550436  0.00011273  1
  Hf  Hf5  1  0.33164153  0.66550436  0.49988727  1
  Hf  Hf6  1  0.66509554  0.33104801  0.49991309  1
  Zr  Zr0  1  0.24366297  0.24348945  0.25000000  1
  Zr  Zr1  1  0.75394939  0.00028550  0.25000000  1
  Sc  Sc0  1  0.75722398  0.75680210  0.75000000  1
  Sn  Sn0  1  0.39380697  0.39387866  0.75000000  1
  Sn  Sn1  1  0.60866709  0.99866341  0.75000000  1
  Sn  Sn2  1  0.99830648  0.60907881  0.75000000  1
  Sn  Sn3  1  0.60875175  0.60771534  0.25000000  1
  Sn  Sn4  1  0.39129945  0.99858589  0.25000000  1
  Sn  Sn5  1  0.99939115  0.39318629  0.25000000  1
loop_
_geom_bond_atom_site_label_1
_geom_bond_atom_site_label_2
_geom_bond_distance
_geom_bond_site_symmetry_2
Hf0 Sn2 2.899637 1_445
Hf0 Sn0 2.900499 1_555
Hf0 Sn1 3.043776 1_545
Hf0 Sn4 3.118972 1_545
Hf0 Sn4 3.118972 1_546
Hf0 Zr0 3.540024 1_555
Hf0 Zr0 3.540024 1_556
Hf1 Sn0 2.891094 1_555
Hf1 Sn1 2.903829 1_445
Hf1 Sn2 3.030379 1_455
Hf1 Sn5 3.114708 1_455
Hf1 Sn5 3.114708 1_456
Hf1 Zr0 3.544314 1_555
Hf1 Zr0 3.544314 1_556
Hf2 Sn4 2.877858 1_555
Hf2 Sn3 2.888686 1_455
Hf2 Sn5 3.022098 1_455
Hf2 Sn2 3.111552 1_455
Hf2 Sn2 3.111552 1_454
Hf2 Zr0 3.593461 1_565
Hf3 Hf6 2.872578 1_555
Hf3 Hf6 2.874576 1_554
Hf3 Sn4 2.959361 1_545
Hf3 Sn5 2.964021 1_555
Hf3 Sn0 2.965405 1_554
Hf3 Sn2 2.972067 1_554
Hf3 Sn1 2.972564 1_544
Hf3 Sn3 2.978149 1_555
Hf3 Zr0 3.546490 1_555
Hf4 Hf5 2.872282 1_555
Hf4 Hf5 2.874873 1_554
Hf4 Sn5 2.952134 1_455
Hf4 Sn4 2.968623 1_555
Hf4 Sn0 2.969377 1_554
Hf4 Sn1 2.971501 1_554
Hf4 Sn2 2.972452 1_454
Hf4 Sn3 2.983242 1_555
Hf4 Zr0 3.559213 1_555
Hf5 Sn5 2.952134 1_455
Hf5 Sn4 2.968623 1_555
Hf5 Sn0 2.969377 1_555
Hf5 Sn1 2.971501 1_555
Hf5 Sn2 2.972452 1_455
Hf5 Sn3 2.983242 1_555
Hf5 Zr0 3.559213 1_555
Hf6 Sn4 2.959361 1_545
Hf6 Sn5 2.964021 1_555
Hf6 Sn0 2.965405 1_555
Hf6 Sn2 2.972067 1_555
Hf6 Sn1 2.972564 1_545
Hf6 Sn3 2.978149 1_555
Hf6 Zr0 3.546490 1_555
Zr0 Zr1 3.566609 1_455
Sc0 Sn2 2.869636 1_555
Sc0 Sn1 2.883775 1_555
Sc0 Sn0 3.055368 1_555
Sc0 Sn3 3.134364 1_556
Sc0 Sn3 3.134364 1_555
Sn0 Zr0 3.139375 1_555
Sn0 Zr0 3.139375 1_556
Sn1 Zr1 3.120790 1_565
Sn1 Zr1 3.120790 1_566
Sn3 Zr1 2.901265 1_565
Sn3 Zr0 3.067874 1_555
Sn4 Zr0 2.901508 1_565
Sn4 Zr1 3.048525 1_565
Sn5 Zr1 2.896931 1_555
Sn5 Zr0 2.907727 1_655
