# generated using pymatgen
data_CuCN2
_symmetry_space_group_name_H-M   'P 1'
_cell_length_a   3.63942349
_cell_length_b   3.63942349
_cell_length_c   9.44764200
_cell_angle_alpha   90.00000000
_cell_angle_beta   90.00000000
_cell_angle_gamma   131.64323304
_symmetry_Int_Tables_number   1
_chemical_formula_structural   CuCN2
_chemical_formula_sum   'Cu2 C2 N4'
_cell_volume   93.51511255
_cell_formula_units_Z   2
loop_
 _symmetry_equiv_pos_site_id
 _symmetry_equiv_pos_as_xyz
  1  'x, y, z'
loop_
 _atom_site_type_symbol
 _atom_site_label
 _atom_site_symmetry_multiplicity
 _atom_site_fract_x
 _atom_site_fract_y
 _atom_site_fract_z
 _atom_site_occupancy
  Cu  Cu0  1  0.00000000  0.00000000  0.50000000  1
  Cu  Cu1  1  0.00000000  0.00000000  0.00000000  1
  C  C0  1  0.40136000  0.59864000  0.25000000  1
  C  C1  1  0.59864000  0.40136000  0.75000000  1
  N  N0  1  0.60781200  0.39218800  0.61932200  1
  N  N1  1  0.39218800  0.60781200  0.38067800  1
  N  N2  1  0.39218800  0.60781200  0.11932200  1
  N  N3  1  0.60781200  0.39218800  0.88067800  1
loop_
_geom_bond_atom_site_label_1
_geom_bond_atom_site_label_2
_geom_bond_distance
_geom_bond_site_symmetry_2
Cu0 N1 2.001333 1_445
Cu0 N1 2.001333 1_555
Cu0 N0 2.001333 1_445
Cu0 N0 2.001333 1_555
Cu1 N2 2.001333 1_555
Cu1 N2 2.001333 1_445
Cu1 N3 2.001333 1_554
Cu1 N3 2.001333 1_444
C0 N1 1.236100 1_555
C0 N2 1.236100 1_555
C1 N3 1.236100 1_555
C1 N0 1.236100 1_555
