# generated using pymatgen
data_Sr6In4Sb3P5
_symmetry_space_group_name_H-M   'P 1'
_cell_length_a   17.11297600
_cell_length_b   7.01525050
_cell_length_c   4.47909885
_cell_angle_alpha   90.00000000
_cell_angle_beta   90.00000000
_cell_angle_gamma   89.76372317
_symmetry_Int_Tables_number   1
_chemical_formula_structural   Sr6In4Sb3P5
_chemical_formula_sum   'Sr6 In4 Sb3 P5'
_cell_volume   537.71936747
_cell_formula_units_Z   1
loop_
 _symmetry_equiv_pos_site_id
 _symmetry_equiv_pos_as_xyz
  1  'x, y, z'
loop_
 _atom_site_type_symbol
 _atom_site_label
 _atom_site_symmetry_multiplicity
 _atom_site_fract_x
 _atom_site_fract_y
 _atom_site_fract_z
 _atom_site_occupancy
  Sr  Sr0  1  0.00370905  0.99626263  0.00000000  1
  Sr  Sr1  1  0.49093136  0.50818525  0.50000100  1
  Sr  Sr2  1  0.19887383  0.72236443  0.00000000  1
  Sr  Sr3  1  0.81507598  0.27352150  0.00000000  1
  Sr  Sr4  1  0.68242542  0.77237798  0.50000100  1
  Sr  Sr5  1  0.31325318  0.20756945  0.50000100  1
  In  In0  1  0.57727727  0.12696955  0.00000000  1
  In  In1  1  0.41177537  0.87065374  0.00000000  1
  In  In2  1  0.08361140  0.37480651  0.50000100  1
  In  In3  1  0.92178087  0.62680657  0.50000100  1
  Sb  Sb0  1  0.17175862  0.23457210  0.00000000  1
  Sb  Sb1  1  0.83169766  0.76511764  0.00000000  1
  Sb  Sb2  1  0.66545616  0.26573797  0.50000100  1
  P  P0  1  0.33476508  0.75613391  0.50000100  1
  P  P1  1  0.43224132  0.23909859  0.00000000  1
  P  P2  1  0.55766091  0.76063334  0.00000000  1
  P  P3  1  0.93900168  0.26004869  0.50000100  1
  P  P4  1  0.06870382  0.73914016  0.50000100  1
loop_
_geom_bond_atom_site_label_1
_geom_bond_atom_site_label_2
_geom_bond_distance
_geom_bond_site_symmetry_2
In0 P2 2.593145 1_545
In0 P1 2.600570 1_555
In0 Sb2 2.872710 1_554
In0 Sb2 2.872717 1_555
In1 P1 2.609784 1_565
In1 P2 2.610078 1_555
In1 P0 2.721492 1_554
In1 P0 2.721499 1_555
In2 P4 2.567545 1_555
In2 P3 2.605513 1_455
In2 Sb0 2.871689 1_556
In2 Sb0 2.871696 1_555
In3 P3 2.588513 1_555
In3 P4 2.637994 1_655
In3 Sb1 2.884647 1_556
In3 Sb1 2.884654 1_555
Sb0 Sr5 3.303151 1_554
Sb0 Sr5 3.303157 1_555
Sb0 Sr0 3.332410 1_545
Sb0 Sr2 3.455198 1_555
Sb0 Sr2 3.621204 1_545
Sb1 Sr0 3.366556 1_655
Sb1 Sr4 3.397427 1_554
Sb1 Sr4 3.397433 1_555
Sb1 Sr3 3.461550 1_555
Sb1 Sr3 3.576736 1_565
Sb2 Sr3 3.402286 1_556
Sb2 Sr3 3.402292 1_555
Sb2 Sr1 3.430879 1_555
Sb2 Sr4 3.472012 1_545
Sb2 Sr4 3.567243 1_555
P0 Sr1 3.182663 1_555
P0 Sr5 3.186750 1_565
P0 Sr2 3.237931 1_556
P0 Sr2 3.237937 1_555
P1 Sr5 3.035536 1_554
P1 Sr5 3.035542 1_555
P1 Sr1 3.098934 1_554
P1 Sr1 3.098940 1_555
P2 Sr1 3.077769 1_554
P2 Sr1 3.077776 1_555
P2 Sr4 3.095548 1_554
P2 Sr4 3.095555 1_555
P3 Sr3 3.085510 1_556
P3 Sr3 3.085516 1_555
P3 Sr0 3.106332 1_646
P3 Sr0 3.106338 1_645
P4 Sr0 3.080542 1_556
P4 Sr0 3.080549 1_555
P4 Sr2 3.160607 1_556
P4 Sr2 3.160613 1_555
