# generated using pymatgen
data_Ba2SrWN4
_symmetry_space_group_name_H-M   'P 1'
_cell_length_a   11.05805067
_cell_length_b   10.71958177
_cell_length_c   8.26335334
_cell_angle_alpha   69.88987921
_cell_angle_beta   65.54561813
_cell_angle_gamma   44.56450887
_symmetry_Int_Tables_number   1
_chemical_formula_structural   Ba2SrWN4
_chemical_formula_sum   'Ba8 Sr4 W4 N16'
_cell_volume   623.84414291
_cell_formula_units_Z   4
loop_
 _symmetry_equiv_pos_site_id
 _symmetry_equiv_pos_as_xyz
  1  'x, y, z'
loop_
 _atom_site_type_symbol
 _atom_site_label
 _atom_site_symmetry_multiplicity
 _atom_site_fract_x
 _atom_site_fract_y
 _atom_site_fract_z
 _atom_site_occupancy
  Ba  Ba0  1  0.56371790  0.93628210  0.93628210  1
  Ba  Ba1  1  0.93628210  0.56371790  0.56371790  1
  Ba  Ba2  1  0.31371790  0.68628210  0.68628210  1
  Ba  Ba3  1  0.11305944  0.11305944  0.88694056  1
  Ba  Ba4  1  0.13694056  0.13694056  0.36305944  1
  Ba  Ba5  1  0.36305944  0.36305944  0.13694056  1
  Ba  Ba6  1  0.68628210  0.31371790  0.31371790  1
  Ba  Ba7  1  0.88694056  0.88694056  0.11305944  1
  Sr  Sr0  1  0.34274110  0.34274110  0.65725890  1
  Sr  Sr1  1  0.90725890  0.90725890  0.59274110  1
  Sr  Sr2  1  0.65725890  0.65725890  0.34274110  1
  Sr  Sr3  1  0.59274110  0.59274110  0.90725890  1
  W  W0  1  0.48618816  0.01381184  0.48618816  1
  W  W1  1  0.01381184  0.48618816  0.01381184  1
  W  W2  1  0.76381184  0.23618816  0.76381184  1
  W  W3  1  0.23618816  0.76381184  0.23618816  1
  N  N0  1  0.02161329  0.64549325  0.83186735  1
  N  N1  1  0.70571754  0.27523755  0.00022105  1
  N  N2  1  0.64549325  0.02161329  0.50102610  1
  N  N3  1  0.50102610  0.83186735  0.64549325  1
  N  N4  1  0.22838671  0.60450675  0.41813265  1
  N  N5  1  0.74897390  0.41813265  0.60450675  1
  N  N6  1  0.00022105  0.01882386  0.70571754  1
  N  N7  1  0.54428246  0.97476245  0.24977895  1
  N  N8  1  0.41813265  0.74897390  0.22838671  1
  N  N9  1  0.97476245  0.54428246  0.23117614  1
  N  N10  1  0.27523755  0.70571754  0.01882386  1
  N  N11  1  0.83186735  0.50102610  0.02161329  1
  N  N12  1  0.23117614  0.24977895  0.97476245  1
  N  N13  1  0.60450675  0.22838671  0.74897390  1
  N  N14  1  0.24977895  0.23117614  0.54428246  1
  N  N15  1  0.01882386  0.00022105  0.27523755  1
loop_
_geom_bond_atom_site_label_1
_geom_bond_atom_site_label_2
_geom_bond_distance
_geom_bond_site_symmetry_2
Ba0 N12 2.659839 1_565
Ba0 N7 2.659839 1_556
Ba0 N8 3.241221 1_556
Ba0 N13 3.241221 1_565
Ba0 N2 3.288467 1_565
Ba0 N11 3.288467 1_556
Ba0 N0 3.441156 1_655
Ba0 N3 3.441156 1_555
Ba1 N9 2.659839 1_555
Ba1 N14 2.659839 1_655
Ba1 N4 3.241221 1_655
Ba1 N5 3.241221 1_555
Ba1 N3 3.288467 1_555
Ba1 N0 3.288467 1_655
Ba1 N11 3.441156 1_556
Ba1 N2 3.441156 1_565
Ba2 N10 2.659839 1_556
Ba2 N6 2.659839 1_565
Ba2 N0 3.241221 1_555
Ba2 N3 3.241221 1_555
Ba2 N5 3.288467 1_555
Ba2 N4 3.288467 1_555
Ba2 N8 3.441156 1_555
Ba2 N13 3.441156 1_555
Ba3 N12 2.936726 1_555
Ba3 N14 2.936726 1_555
Ba3 N6 3.033684 1_555
Ba3 N15 3.033684 1_556
Ba3 N3 3.177107 1_545
Ba3 N11 3.177108 1_456
Ba3 N1 3.264660 1_456
Ba3 N10 3.264660 1_546
Ba4 N15 2.936726 1_555
Ba4 N6 2.936726 1_555
Ba4 N14 3.033684 1_555
Ba4 N12 3.033684 1_554
Ba4 N5 3.177107 1_455
Ba4 N8 3.177108 1_545
Ba4 N7 3.264660 1_545
Ba4 N9 3.264660 1_455
Ba5 N1 2.936726 1_555
Ba5 N10 2.936726 1_555
Ba5 N9 3.033684 1_455
Ba5 N7 3.033684 1_545
Ba5 N13 3.177108 1_554
Ba5 N4 3.177108 1_555
Ba5 N12 3.264660 1_554
Ba5 N14 3.264660 1_555
Ba6 N15 2.659839 1_655
Ba6 N1 2.659839 1_555
Ba6 N11 3.241221 1_555
Ba6 N2 3.241221 1_555
Ba6 N13 3.288467 1_555
Ba6 N8 3.288467 1_555
Ba6 N4 3.441156 1_555
Ba6 N5 3.441156 1_555
Ba7 N7 2.936726 1_555
Ba7 N9 2.936726 1_555
Ba7 N10 3.033684 1_655
Ba7 N1 3.033684 1_565
Ba7 N2 3.177108 1_565
Ba7 N0 3.177108 1_654
Ba7 N15 3.264660 1_665
Ba7 N6 3.264660 1_664
N0 W1 1.876453 1_556
N0 Sr1 2.564610 1_455
N0 Sr0 2.789387 1_555
N1 W2 1.882634 1_554
N1 Sr3 2.583143 1_554
N2 W0 1.876452 1_555
N2 Sr1 2.564610 1_545
N2 Sr0 2.789387 1_555
N3 W0 1.876453 1_565
N3 Sr3 2.564610 1_555
N3 Sr2 2.789387 1_555
N4 W3 1.876453 1_555
N4 Sr0 2.564610 1_555
N4 Sr1 2.789387 1_455
N5 W2 1.876453 1_555
N5 Sr2 2.564610 1_555
N5 Sr3 2.789387 1_555
N6 W2 1.882634 1_455
N6 Sr1 2.583143 1_445
N7 W0 1.882634 1_565
N7 Sr2 2.583143 1_555
N8 W3 1.876452 1_555
N8 Sr2 2.564610 1_555
N8 Sr3 2.789387 1_554
N9 W1 1.882634 1_655
N9 Sr2 2.583143 1_555
N10 W3 1.882634 1_555
N10 Sr3 2.583143 1_554
N11 W1 1.876452 1_655
N11 Sr3 2.564610 1_554
N11 Sr2 2.789387 1_555
N12 W1 1.882634 1_556
N12 Sr0 2.583143 1_555
N13 W2 1.876452 1_555
N13 Sr0 2.564610 1_555
N13 Sr1 2.789387 1_545
N14 W0 1.882634 1_555
N14 Sr0 2.583143 1_555
N15 W3 1.882634 1_545
N15 Sr1 2.583143 1_445
