# generated using pymatgen
data_MgAl2O4
_symmetry_space_group_name_H-M   'P 1'
_cell_length_a   5.76342348
_cell_length_b   5.76342348
_cell_length_c   14.18451400
_cell_angle_alpha   90.00000000
_cell_angle_beta   90.00000000
_cell_angle_gamma   119.99999407
_symmetry_Int_Tables_number   1
_chemical_formula_structural   MgAl2O4
_chemical_formula_sum   'Mg6 Al12 O24'
_cell_volume   408.04323438
_cell_formula_units_Z   6
loop_
 _symmetry_equiv_pos_site_id
 _symmetry_equiv_pos_as_xyz
  1  'x, y, z'
loop_
 _atom_site_type_symbol
 _atom_site_label
 _atom_site_symmetry_multiplicity
 _atom_site_fract_x
 _atom_site_fract_y
 _atom_site_fract_z
 _atom_site_occupancy
  Mg  Mg0  1  0.33333300  0.66666700  0.95499500  1
  Mg  Mg1  1  0.00000000  0.00000000  0.99852900  1
  Mg  Mg2  1  0.00000000  0.00000000  0.62118300  1
  Mg  Mg3  1  0.66666700  0.33333300  0.66408100  1
  Mg  Mg4  1  0.66666700  0.33333300  0.29054000  1
  Mg  Mg5  1  0.00000000  0.00000000  0.37790700  1
  Al  Al0  1  0.83808100  0.16191900  0.83415400  1
  Al  Al1  1  0.50284700  0.00569300  0.49964300  1
  Al  Al2  1  0.32383900  0.16191900  0.83415400  1
  Al  Al3  1  0.50284700  0.49715300  0.49964300  1
  Al  Al4  1  0.99430700  0.49715300  0.49964300  1
  Al  Al5  1  0.83808100  0.67616100  0.83415400  1
  Al  Al6  1  0.33333300  0.66666700  0.33546200  1
  Al  Al7  1  0.16921400  0.83078600  0.16806000  1
  Al  Al8  1  0.33333300  0.66666700  0.71431900  1
  Al  Al9  1  0.66157200  0.83078600  0.16806000  1
  Al  Al10  1  0.16921400  0.33842800  0.16806000  1
  Al  Al11  1  0.66666700  0.33333300  0.04348900  1
  O  O0  1  0.69399600  0.84699800  0.90648700  1
  O  O1  1  0.00000000  0.00000000  0.76003700  1
  O  O2  1  0.15300200  0.84699800  0.90648700  1
  O  O3  1  0.15300200  0.30600400  0.90648700  1
  O  O4  1  0.50689700  0.01379500  0.75798700  1
  O  O5  1  0.35886600  0.17943300  0.57039500  1
  O  O6  1  0.66666700  0.33333300  0.91188100  1
  O  O7  1  0.50689700  0.49310300  0.75798700  1
  O  O8  1  0.66666700  0.33333300  0.42655300  1
  O  O9  1  0.82056700  0.17943300  0.57039500  1
  O  O10  1  0.98620500  0.49310300  0.75798700  1
  O  O11  1  0.82056700  0.64113400  0.57039500  1
  O  O12  1  0.03836700  0.51918300  0.24640600  1
  O  O13  1  0.18712700  0.37425400  0.42187100  1
  O  O14  1  0.33333300  0.66666700  0.58313100  1
  O  O15  1  0.48081700  0.51918300  0.24640600  1
  O  O16  1  0.18712700  0.81287300  0.42187100  1
  O  O17  1  0.33333300  0.66666700  0.09617300  1
  O  O18  1  0.48081700  0.96163300  0.24640600  1
  O  O19  1  0.62574600  0.81287300  0.42187100  1
  O  O20  1  0.83640900  0.67281900  0.09120900  1
  O  O21  1  0.00000000  0.00000000  0.23305500  1
  O  O22  1  0.83640900  0.16359100  0.09120900  1
  O  O23  1  0.32718100  0.16359100  0.09120900  1
loop_
_geom_bond_atom_site_label_1
_geom_bond_atom_site_label_2
_geom_bond_distance
_geom_bond_site_symmetry_2
Mg0 O2 1.927177 1_555
Mg0 O0 1.927182 1_555
Mg0 O3 1.927182 1_555
Mg0 O17 2.002541 1_556
Mg1 O2 2.009306 1_545
Mg1 O3 2.009306 1_555
Mg1 O0 2.009306 1_445
Mg1 O23 2.096444 1_556
Mg1 O20 2.096444 1_446
Mg1 O22 2.096448 1_456
Mg2 O9 1.930640 1_455
Mg2 O5 1.930640 1_555
Mg2 O11 1.930640 1_445
Mg2 O1 1.969577 1_555
Mg3 O9 2.031307 1_555
Mg3 O11 2.031311 1_555
Mg3 O5 2.031311 1_555
Mg3 O10 2.077971 1_555
Mg3 O4 2.077971 1_555
Mg3 O7 2.077978 1_555
Mg4 O8 1.929278 1_555
Mg4 O15 1.958028 1_555
Mg4 O12 1.958028 1_655
Mg4 O18 1.958028 1_545
Mg5 O16 1.969346 1_545
Mg5 O13 1.969346 1_555
Mg5 O19 1.969346 1_445
Mg5 O21 2.054655 1_555
Al0 O0 1.878661 1_545
Al0 O3 1.878661 1_655
Al0 O1 1.928183 1_655
Al0 O10 1.977344 1_555
Al0 O4 1.977344 1_555
Al0 O6 2.035577 1_555
Al1 O9 1.878664 1_555
Al1 O5 1.878668 1_555
Al1 O19 1.934121 1_545
Al1 O16 1.934125 1_545
Al1 O8 1.936280 1_555
Al1 O14 2.065395 1_545
Al2 O2 1.878661 1_545
Al2 O3 1.878665 1_555
Al2 O1 1.928187 1_555
Al2 O4 1.977335 1_555
Al2 O7 1.977343 1_555
Al2 O6 2.035578 1_555
Al3 O11 1.878664 1_555
Al3 O5 1.878664 1_555
Al3 O13 1.934126 1_555
Al3 O19 1.934126 1_555
Al3 O8 1.936280 1_555
Al3 O14 2.065404 1_555
Al4 O9 1.878664 1_555
Al4 O11 1.878668 1_555
Al4 O13 1.934121 1_655
Al4 O16 1.934125 1_655
Al4 O8 1.936280 1_555
Al4 O14 2.065395 1_655
Al5 O2 1.878661 1_655
Al5 O0 1.878665 1_555
Al5 O1 1.928187 1_665
Al5 O10 1.977335 1_555
Al5 O7 1.977343 1_555
Al5 O6 2.035578 1_555
Al6 O16 1.905893 1_555
Al6 O19 1.905897 1_555
Al6 O13 1.905897 1_555
Al6 O18 1.939910 1_555
Al6 O12 1.939910 1_555
Al6 O15 1.939917 1_555
Al7 O12 1.916929 1_555
Al7 O18 1.916929 1_555
Al7 O21 1.924393 1_565
Al7 O17 1.929731 1_555
Al7 O20 1.987458 1_455
Al7 O23 1.987458 1_565
Al8 O7 1.840001 1_555
Al8 O4 1.840002 1_565
Al8 O10 1.840002 1_455
Al8 O14 1.860838 1_555
Al9 O18 1.916924 1_555
Al9 O15 1.916928 1_555
Al9 O21 1.924394 1_665
Al9 O17 1.929735 1_555
Al9 O20 1.987453 1_555
Al9 O22 1.987458 1_565
Al10 O12 1.916924 1_555
Al10 O15 1.916928 1_555
Al10 O21 1.924394 1_555
Al10 O17 1.929735 1_555
Al10 O23 1.987453 1_555
Al10 O22 1.987458 1_455
Al11 O22 1.824652 1_555
Al11 O20 1.824662 1_555
Al11 O23 1.824662 1_555
Al11 O6 1.866796 1_554
