# generated using pymatgen
data_Ta12Si5Os7N4
_symmetry_space_group_name_H-M   'P 1'
_cell_length_a   8.16801732
_cell_length_b   8.16801762
_cell_length_c   8.16801717
_cell_angle_alpha   60.00644052
_cell_angle_beta   60.00643825
_cell_angle_gamma   60.00644266
_symmetry_Int_Tables_number   1
_chemical_formula_structural   Ta12Si5Os7N4
_chemical_formula_sum   'Ta12 Si5 Os7 N4'
_cell_volume   385.38816135
_cell_formula_units_Z   1
loop_
 _symmetry_equiv_pos_site_id
 _symmetry_equiv_pos_as_xyz
  1  'x, y, z'
loop_
 _atom_site_type_symbol
 _atom_site_label
 _atom_site_symmetry_multiplicity
 _atom_site_fract_x
 _atom_site_fract_y
 _atom_site_fract_z
 _atom_site_occupancy
  Ta  Ta0  1  0.80684425  0.80684425  0.18407136  1
  Ta  Ta1  1  0.19509697  0.19509697  0.80766162  1
  Ta  Ta2  1  0.80684425  0.18407136  0.80684425  1
  Ta  Ta3  1  0.19509697  0.80766162  0.19509697  1
  Ta  Ta4  1  0.18407136  0.80684425  0.80684425  1
  Ta  Ta5  1  0.80766162  0.19509697  0.19509697  1
  Ta  Ta6  1  0.44516928  0.44516928  0.05248235  1
  Ta  Ta7  1  0.05348683  0.05348683  0.45024272  1
  Ta  Ta8  1  0.44516928  0.05248235  0.44516928  1
  Ta  Ta9  1  0.05348683  0.45024272  0.05348683  1
  Ta  Ta10  1  0.05248235  0.44516928  0.44516928  1
  Ta  Ta11  1  0.45024272  0.05348683  0.05348683  1
  Si  Si0  1  0.12591071  0.62480889  0.62480889  1
  Si  Si1  1  0.62480889  0.12591071  0.62480889  1
  Si  Si2  1  0.62480889  0.62480889  0.12591071  1
  Si  Si3  1  0.62627635  0.62627635  0.62627635  1
  Si  Si4  1  0.83189355  0.83189355  0.83189355  1
  Os  Os0  1  0.75196906  0.41664535  0.41664535  1
  Os  Os1  1  0.41664535  0.75196906  0.41664535  1
  Os  Os2  1  0.41664535  0.41664535  0.75196906  1
  Os  Os3  1  0.41542706  0.41542706  0.41542706  1
  Os  Os4  1  0.49535432  0.83585602  0.83585602  1
  Os  Os5  1  0.83585602  0.49535432  0.83585602  1
  Os  Os6  1  0.83585602  0.83585602  0.49535432  1
  N  N0  1  0.62643697  0.12596943  0.12596943  1
  N  N1  1  0.12596943  0.62643697  0.12596943  1
  N  N2  1  0.12596943  0.12596943  0.62643697  1
  N  N3  1  0.12451789  0.12451789  0.12451789  1
loop_
_geom_bond_atom_site_label_1
_geom_bond_atom_site_label_2
_geom_bond_distance
_geom_bond_site_symmetry_2
Si0 Si4 2.495469 1_455
Si0 Ta4 2.875760 1_555
Si0 Ta9 2.902407 1_556
Si0 Ta7 2.902407 1_565
Si0 Ta3 2.913585 1_555
Si0 Ta1 2.913585 1_555
Si0 Ta10 2.928810 1_555
Si1 Si4 2.495469 1_545
Si1 Ta2 2.875760 1_555
Si1 Ta11 2.902406 1_556
Si1 Ta7 2.902407 1_655
Si1 Ta5 2.913585 1_555
Si1 Ta1 2.913585 1_555
Si1 Ta8 2.928810 1_555
Si2 Si4 2.495469 1_554
Si2 Ta0 2.875760 1_555
Si2 Ta9 2.902407 1_655
Si2 Ta11 2.902407 1_565
Si2 Ta3 2.913585 1_555
Si2 Ta5 2.913585 1_555
Si2 Ta6 2.928810 1_555
Si3 Ta6 2.895867 1_556
Si3 Ta10 2.895867 1_655
Si3 Ta8 2.895867 1_565
Si3 Ta0 2.986505 1_555
Si3 Ta4 2.986505 1_555
Si3 Ta2 2.986505 1_555
Si4 Ta0 2.687654 1_556
Si4 Ta4 2.687654 1_655
Si4 Ta2 2.687654 1_565
Si4 Ta7 2.874503 1_665
Si4 Ta11 2.874503 1_566
Si4 Ta9 2.874504 1_656
Os0 Si1 2.504500 1_555
Os0 Si2 2.504500 1_555
Os0 Si3 2.516726 1_555
Os0 Ta10 2.707661 1_655
Os0 Ta9 2.738149 1_655
Os0 Ta7 2.738149 1_655
Os0 Ta5 2.895568 1_555
Os0 Ta2 2.913965 1_555
Os0 Ta0 2.913965 1_555
Os1 Si0 2.504500 1_555
Os1 Si2 2.504500 1_555
Os1 Si3 2.516726 1_555
Os1 Ta8 2.707661 1_565
Os1 Ta11 2.738149 1_565
Os1 Ta7 2.738149 1_565
Os1 Ta3 2.895568 1_555
Os1 Ta4 2.913965 1_555
Os1 Ta0 2.913965 1_555
Os2 Si0 2.504500 1_555
Os2 Si1 2.504500 1_555
Os2 Si3 2.516726 1_555
Os2 Ta6 2.707660 1_556
Os2 Ta9 2.738149 1_556
Os2 Ta11 2.738149 1_556
Os2 Ta1 2.895568 1_555
Os2 Ta2 2.913965 1_555
Os2 Ta4 2.913965 1_555
Os3 Si2 2.505839 1_555
Os3 Si0 2.505840 1_555
Os3 Si1 2.505840 1_555
Os3 Ta6 2.743252 1_555
Os3 Ta10 2.743252 1_555
Os3 Ta8 2.743252 1_555
Os3 Ta1 2.907011 1_555
Os3 Ta5 2.907012 1_555
Os3 Ta3 2.907012 1_555
Os4 Si3 2.504752 1_555
Os4 Si1 2.510303 1_565
Os4 Si2 2.510303 1_556
Os4 Ta3 2.715138 1_556
Os4 Ta1 2.715139 1_565
Os4 Si4 2.716885 1_555
Os4 Ta4 2.799619 1_555
Os4 Ta11 2.881861 1_566
Os4 Ta8 2.901643 1_565
Os4 Ta6 2.901643 1_556
Os5 Si3 2.504752 1_555
Os5 Si0 2.510303 1_655
Os5 Si2 2.510303 1_556
Os5 Ta5 2.715138 1_556
Os5 Ta1 2.715139 1_655
Os5 Si4 2.716885 1_555
Os5 Ta2 2.799619 1_555
Os5 Ta9 2.881861 1_656
Os5 Ta10 2.901643 1_655
Os5 Ta6 2.901643 1_556
Os6 Si3 2.504752 1_555
Os6 Si0 2.510303 1_655
Os6 Si1 2.510303 1_565
Os6 Ta3 2.715138 1_655
Os6 Ta5 2.715139 1_565
Os6 Si4 2.716885 1_555
Os6 Ta0 2.799619 1_555
Os6 Ta7 2.881861 1_665
Os6 Ta8 2.901643 1_565
Os6 Ta10 2.901643 1_655
N0 Ta2 2.193899 1_554
N0 Ta0 2.193900 1_545
N0 Ta8 2.194192 1_555
N0 Ta6 2.194193 1_555
N0 Ta5 2.195171 1_555
N0 Ta11 2.196903 1_555
N1 Ta4 2.193900 1_554
N1 Ta0 2.193900 1_455
N1 Ta10 2.194192 1_555
N1 Ta6 2.194193 1_555
N1 Ta3 2.195171 1_555
N1 Ta9 2.196903 1_555
N2 Ta2 2.193900 1_455
N2 Ta4 2.193900 1_545
N2 Ta8 2.194192 1_555
N2 Ta10 2.194193 1_555
N2 Ta1 2.195171 1_555
N2 Ta7 2.196903 1_555
N3 Ta1 2.170650 1_554
N3 Ta5 2.170650 1_455
N3 Ta3 2.170650 1_545
N3 Ta7 2.236423 1_555
N3 Ta11 2.236423 1_555
N3 Ta9 2.236423 1_555
