# generated using pymatgen
data_Zr5CuSn2Sb
_symmetry_space_group_name_H-M   'P 1'
_cell_length_a   8.63759049
_cell_length_b   8.63759069
_cell_length_c   5.85594489
_cell_angle_alpha   90.00000000
_cell_angle_beta   90.00000000
_cell_angle_gamma   120.04388775
_symmetry_Int_Tables_number   1
_chemical_formula_structural   Zr5CuSn2Sb
_chemical_formula_sum   'Zr10 Cu2 Sn4 Sb2'
_cell_volume   378.19920398
_cell_formula_units_Z   2
loop_
 _symmetry_equiv_pos_site_id
 _symmetry_equiv_pos_as_xyz
  1  'x, y, z'
loop_
 _atom_site_type_symbol
 _atom_site_label
 _atom_site_symmetry_multiplicity
 _atom_site_fract_x
 _atom_site_fract_y
 _atom_site_fract_z
 _atom_site_occupancy
  Zr  Zr0  1  0.66723008  0.33272291  0.99907167  1
  Zr  Zr1  1  0.33272291  0.66723008  0.99907167  1
  Zr  Zr2  1  0.33272291  0.66723008  0.50092833  1
  Zr  Zr3  1  0.66723008  0.33272291  0.50092833  1
  Zr  Zr4  1  0.73682920  0.73682920  0.75000000  1
  Zr  Zr5  1  0.26402234  0.00058912  0.75000000  1
  Zr  Zr6  1  0.00058912  0.26402234  0.75000000  1
  Zr  Zr7  1  0.25852593  0.25852593  0.25000000  1
  Zr  Zr8  1  0.74031391  0.00045558  0.25000000  1
  Zr  Zr9  1  0.00045558  0.74031391  0.25000000  1
  Cu  Cu0  1  0.99854370  0.99854370  0.50642042  1
  Cu  Cu1  1  0.99854370  0.99854370  0.99357958  1
  Sn  Sn0  1  0.38687523  0.38687523  0.75000000  1
  Sn  Sn1  1  0.61531499  0.99967367  0.75000000  1
  Sn  Sn2  1  0.99967367  0.61531499  0.75000000  1
  Sn  Sn3  1  0.61169376  0.61169376  0.25000000  1
  Sb  Sb0  1  0.38824432  0.00046955  0.25000000  1
  Sb  Sb1  1  0.00046955  0.38824432  0.25000000  1
loop_
_geom_bond_atom_site_label_1
_geom_bond_atom_site_label_2
_geom_bond_distance
_geom_bond_site_symmetry_2
Cu0 Zr4 2.671711 1_555
Cu0 Zr5 2.693068 1_665
Cu0 Zr6 2.693068 1_665
Cu0 Zr8 2.695731 1_565
Cu0 Zr9 2.695731 1_655
Cu0 Zr7 2.700162 1_665
Cu1 Zr4 2.671711 1_555
Cu1 Zr5 2.693068 1_665
Cu1 Zr6 2.693068 1_665
Cu1 Zr8 2.695731 1_566
Cu1 Zr9 2.695731 1_656
Cu1 Zr7 2.700162 1_666
Sn0 Zr6 2.951864 1_555
Sn0 Zr5 2.951864 1_555
Sn0 Zr4 3.020754 1_555
Sn0 Zr0 3.056868 1_555
Sn0 Zr3 3.056868 1_555
Sn0 Zr1 3.056868 1_555
Sn0 Zr2 3.056868 1_555
Sn0 Zr7 3.130567 1_555
Sn0 Zr7 3.130567 1_556
Sn1 Zr4 2.939760 1_555
Sn1 Zr6 2.946097 1_665
Sn1 Zr5 3.038289 1_565
Sn1 Zr0 3.051622 1_565
Sn1 Zr3 3.051622 1_565
Sn1 Zr1 3.051655 1_555
Sn1 Zr2 3.051655 1_555
Sn1 Zr8 3.119535 1_565
Sn1 Zr8 3.119535 1_566
Sn2 Zr4 2.939760 1_555
Sn2 Zr5 2.946097 1_665
Sn2 Zr6 3.038289 1_655
Sn2 Zr1 3.051622 1_655
Sn2 Zr2 3.051622 1_655
Sn2 Zr0 3.051655 1_555
Sn2 Zr3 3.051655 1_555
Sn2 Zr9 3.119535 1_655
Sn2 Zr9 3.119535 1_656
Sn3 Zr9 2.962202 1_655
Sn3 Zr8 2.962202 1_565
Sn3 Zr7 3.048495 1_555
Sn3 Zr2 3.058283 1_555
Sn3 Zr1 3.058283 1_554
Sn3 Zr3 3.058283 1_555
Sn3 Zr0 3.058283 1_554
Sn3 Zr4 3.120857 1_555
Sn3 Zr4 3.120857 1_554
Sb0 Zr7 2.953740 1_555
Sb0 Zr9 2.955039 1_545
Sb0 Zr8 3.041093 1_555
Sb0 Zr3 3.045888 1_555
Sb0 Zr0 3.045888 1_554
Sb0 Zr2 3.048291 1_545
Sb0 Zr1 3.048291 1_544
Sb0 Zr5 3.118560 1_554
Sb0 Zr5 3.118560 1_555
Sb1 Zr7 2.953740 1_555
Sb1 Zr8 2.955039 1_455
Sb1 Zr9 3.041093 1_555
Sb1 Zr2 3.045888 1_555
Sb1 Zr1 3.045888 1_554
Sb1 Zr3 3.048291 1_455
Sb1 Zr0 3.048291 1_454
Sb1 Zr6 3.118560 1_555
Sb1 Zr6 3.118560 1_554
