# generated using pymatgen
data_K5Rb(Al2Sb3)2
_symmetry_space_group_name_H-M   'P 1'
_cell_length_a   6.74837770
_cell_length_b   7.90568906
_cell_length_c   11.30537587
_cell_angle_alpha   69.24666933
_cell_angle_beta   90.00000000
_cell_angle_gamma   90.00000000
_symmetry_Int_Tables_number   1
_chemical_formula_structural   K5Rb(Al2Sb3)2
_chemical_formula_sum   'K5 Rb1 Al4 Sb6'
_cell_volume   564.01279994
_cell_formula_units_Z   1
loop_
 _symmetry_equiv_pos_site_id
 _symmetry_equiv_pos_as_xyz
  1  'x, y, z'
loop_
 _atom_site_type_symbol
 _atom_site_label
 _atom_site_symmetry_multiplicity
 _atom_site_fract_x
 _atom_site_fract_y
 _atom_site_fract_z
 _atom_site_occupancy
  K  K0  1  0.25000000  0.37995144  0.47741131  1
  K  K1  1  0.75000000  0.13047287  0.87342248  1
  K  K2  1  0.75000000  0.48545256  0.14831204  1
  K  K3  1  0.25000000  0.50887966  0.85038913  1
  K  K4  1  0.75000000  0.62383650  0.52249354  1
  Rb  Rb0  1  0.25000000  0.85045188  0.12788682  1
  Al  Al0  1  0.00116984  0.06871695  0.33973260  1
  Al  Al1  1  0.50034262  0.93457978  0.66059647  1
  Al  Al2  1  0.49883016  0.06871695  0.33973260  1
  Al  Al3  1  0.99965738  0.93457978  0.66059647  1
  Sb  Sb0  1  0.25000000  0.80919448  0.50935783  1
  Sb  Sb1  1  0.75000000  0.19364025  0.49137369  1
  Sb  Sb2  1  0.25000000  0.31711756  0.19300606  1
  Sb  Sb3  1  0.75000000  0.68608658  0.80800732  1
  Sb  Sb4  1  0.25000000  0.07762233  0.78102138  1
  Sb  Sb5  1  0.75000000  0.93070045  0.21666027  1
loop_
_geom_bond_atom_site_label_1
_geom_bond_atom_site_label_2
_geom_bond_distance
_geom_bond_site_symmetry_2
K0 Sb4 3.417629 1_555
K0 Sb2 3.422992 1_555
K0 Sb0 3.537599 1_555
K0 Sb1 3.662620 1_455
K0 Sb1 3.662620 1_555
K1 Sb4 3.600041 1_655
K1 Sb4 3.600041 1_555
K1 Sb5 3.634397 1_546
K1 Sb3 3.838052 1_545
K2 Sb2 3.596520 1_655
K2 Sb2 3.596520 1_555
K2 Sb3 3.604539 1_554
K2 Sb1 3.744790 1_555
K2 Sb5 3.861992 1_555
K3 Sb3 3.619621 1_555
K3 Sb3 3.619621 1_455
K3 Sb2 3.624926 1_556
K3 Sb0 3.743589 1_555
K3 Sb4 3.759492 1_555
K4 Sb3 3.433207 1_555
K4 Sb5 3.449000 1_555
K4 Sb1 3.540981 1_555
K4 Sb0 3.660646 1_555
K4 Sb0 3.660646 1_655
Rb0 Sb5 3.639522 1_455
Rb0 Sb5 3.639522 1_555
Rb0 Sb4 3.689450 1_564
Rb0 Sb2 4.009722 1_565
Rb0 Sb2 4.014968 1_555
Al0 Sb5 2.659955 1_445
Al0 Sb2 2.668179 1_555
Al0 Sb0 2.813954 1_545
Al0 Sb1 2.826176 1_455
Al0 K2 3.654822 1_455
Al0 Rb0 3.802889 1_545
Al1 Sb4 2.660368 1_565
Al1 Sb3 2.674870 1_555
Al1 Sb1 2.813589 1_565
Al1 Sb0 2.821572 1_555
Al1 K3 3.696852 1_555
Al1 K1 3.696866 1_565
Al2 Sb5 2.659955 1_545
Al2 Sb2 2.668179 1_555
Al2 Sb0 2.813954 1_545
Al2 Sb1 2.826176 1_555
Al2 K2 3.654822 1_555
Al2 Rb0 3.802889 1_545
Al3 Sb4 2.660368 1_665
Al3 Sb3 2.674870 1_555
Al3 Sb1 2.813589 1_565
Al3 Sb0 2.821572 1_655
Al3 K3 3.696852 1_655
Al3 K1 3.696866 1_565
