# generated using pymatgen
data_Y6Zn4IrPd12
_symmetry_space_group_name_H-M   'P 1'
_cell_length_a   8.18239741
_cell_length_b   8.18239742
_cell_length_c   8.18239832
_cell_angle_alpha   109.47121805
_cell_angle_beta   109.47121807
_cell_angle_gamma   109.47122658
_symmetry_Int_Tables_number   1
_chemical_formula_structural   Y6Zn4IrPd12
_chemical_formula_sum   'Y6 Zn4 Ir1 Pd12'
_cell_volume   421.71578829
_cell_formula_units_Z   1
loop_
 _symmetry_equiv_pos_site_id
 _symmetry_equiv_pos_as_xyz
  1  'x, y, z'
loop_
 _atom_site_type_symbol
 _atom_site_label
 _atom_site_symmetry_multiplicity
 _atom_site_fract_x
 _atom_site_fract_y
 _atom_site_fract_z
 _atom_site_occupancy
  Y  Y0  1  0.70379044  0.70379044  1.00000000  1
  Y  Y1  1  0.29620956  1.00000000  0.29620956  1
  Y  Y2  1  1.00000000  0.29620956  0.29620956  1
  Y  Y3  1  0.29620956  0.29620956  0.00000000  1
  Y  Y4  1  0.70379044  0.00000000  0.70379044  1
  Y  Y5  1  0.00000000  0.70379044  0.70379044  1
  Zn  Zn0  1  0.00000000  0.00000000  0.50000000  1
  Zn  Zn1  1  0.00000000  0.50000000  0.00000000  1
  Zn  Zn2  1  0.50000000  0.00000000  0.00000000  1
  Zn  Zn3  1  0.50000000  0.50000000  0.50000000  1
  Ir  Ir0  1  0.00000000  0.00000000  0.00000000  1
  Pd  Pd0  1  0.33358800  0.33358800  0.66717801  1
  Pd  Pd1  1  0.66641200  0.00000000  0.33358800  1
  Pd  Pd2  1  0.00000000  0.66641200  0.33358800  1
  Pd  Pd3  1  0.66641200  0.33358800  0.00000000  1
  Pd  Pd4  1  0.33358800  0.66717801  0.33358800  1
  Pd  Pd5  1  1.00000000  0.33358800  0.66641200  1
  Pd  Pd6  1  0.33358800  0.66641200  0.00000000  1
  Pd  Pd7  1  0.33358800  1.00000000  0.66641200  1
  Pd  Pd8  1  0.66717801  0.33358800  0.33358800  1
  Pd  Pd9  1  0.66641200  0.66641200  0.33282199  1
  Pd  Pd10  1  0.66641200  0.33282199  0.66641200  1
  Pd  Pd11  1  0.33282199  0.66641200  0.66641200  1
loop_
_geom_bond_atom_site_label_1
_geom_bond_atom_site_label_2
_geom_bond_distance
_geom_bond_site_symmetry_2
Y0 Zn1 3.368861 1_656
Y0 Zn2 3.368861 1_566
Y0 Zn0 3.368861 1_666
Y0 Zn3 3.368861 1_555
Y1 Zn3 3.368861 1_565
Y1 Zn1 3.368861 1_555
Y1 Zn0 3.368861 1_565
Y1 Zn2 3.368861 1_565
Y2 Zn3 3.368861 1_655
Y2 Zn2 3.368861 1_555
Y2 Zn0 3.368861 1_655
Y2 Zn1 3.368861 1_655
Y3 Zn1 3.368861 1_555
Y3 Zn2 3.368861 1_555
Y3 Zn0 3.368861 1_554
Y3 Zn3 3.368861 1_555
Y4 Zn3 3.368861 1_545
Y4 Zn1 3.368861 1_656
Y4 Zn0 3.368861 1_655
Y4 Zn2 3.368861 1_556
Y5 Zn3 3.368861 1_455
Y5 Zn2 3.368861 1_566
Y5 Zn0 3.368861 1_565
Y5 Zn1 3.368861 1_556
Ir0 Y3 2.798652 1_555
Ir0 Y0 2.798652 1_444
Ir0 Y1 2.798653 1_545
Ir0 Y4 2.798653 1_454
Ir0 Y5 2.798653 1_544
Ir0 Y2 2.798653 1_455
Pd0 Zn0 2.612799 1_555
Pd0 Zn3 2.612817 1_555
Pd0 Pd5 2.727467 1_455
Pd0 Pd7 2.727467 1_545
Pd0 Pd10 2.727483 1_555
Pd0 Pd11 2.727483 1_555
Pd0 Y3 2.941347 1_556
Pd0 Y0 2.941360 1_555
Pd0 Pd3 3.144585 1_556
Pd0 Pd6 3.144585 1_556
Pd0 Y2 3.171547 1_455
Pd0 Y1 3.171547 1_545
Pd1 Zn0 2.612803 1_655
Pd1 Zn2 2.612803 1_555
Pd1 Pd8 2.727467 1_555
Pd1 Pd9 2.727467 1_545
Pd1 Pd5 2.727472 1_555
Pd1 Pd6 2.727472 1_545
Pd1 Y1 2.941363 1_545
Pd1 Y4 2.941364 1_555
Pd1 Pd4 3.144584 1_545
Pd1 Pd10 3.144585 1_555
Pd1 Y2 3.171536 1_555
Pd1 Y0 3.171537 1_544
Pd2 Zn0 2.612803 1_565
Pd2 Zn1 2.612803 1_555
Pd2 Pd4 2.727467 1_555
Pd2 Pd9 2.727467 1_455
Pd2 Pd7 2.727472 1_555
Pd2 Pd3 2.727472 1_455
Pd2 Y2 2.941363 1_455
Pd2 Y5 2.941364 1_555
Pd2 Pd8 3.144584 1_455
Pd2 Y1 3.171536 1_555
Pd2 Y0 3.171537 1_454
Pd3 Zn1 2.612802 1_655
Pd3 Zn2 2.612802 1_555
Pd3 Pd8 2.727467 1_555
Pd3 Pd7 2.727472 1_544
Pd3 Y3 2.941363 1_555
Pd3 Y0 2.941363 1_554
Pd3 Pd9 3.144585 1_555
Pd3 Y2 3.171537 1_555
Pd3 Y4 3.171537 1_554
Pd4 Zn1 2.612800 1_555
Pd4 Zn3 2.612817 1_555
Pd4 Pd6 2.727467 1_555
Pd4 Pd9 2.727483 1_555
Pd4 Y1 2.941347 1_555
Pd4 Y4 2.941360 1_565
Pd4 Pd7 3.144585 1_555
Pd4 Y2 3.171547 1_455
Pd4 Y3 3.171547 1_555
Pd5 Zn0 2.612803 1_655
Pd5 Zn1 2.612803 1_656
Pd5 Pd6 2.727472 1_656
Pd5 Y5 2.941363 1_655
Pd5 Y2 2.941364 1_555
Pd5 Pd8 3.144585 1_555
Pd5 Y4 3.171536 1_555
Pd5 Y3 3.171537 1_656
Pd6 Zn1 2.612802 1_555
Pd6 Zn2 2.612802 1_565
Pd6 Y0 2.941363 1_554
Pd6 Y3 2.941363 1_555
Pd6 Pd9 3.144585 1_555
Pd6 Y5 3.171537 1_554
Pd6 Y1 3.171537 1_555
Pd7 Zn0 2.612803 1_565
Pd7 Zn2 2.612803 1_566
Pd7 Y4 2.941363 1_565
Pd7 Y1 2.941364 1_555
Pd7 Y5 3.171536 1_555
Pd7 Y3 3.171537 1_566
Pd8 Zn2 2.612800 1_555
Pd8 Zn3 2.612817 1_555
Pd8 Pd9 2.727483 1_555
Pd8 Y2 2.941347 1_555
Pd8 Y5 2.941360 1_655
Pd8 Y1 3.171547 1_545
Pd8 Y3 3.171547 1_555
Pd9 Zn0 2.612799 1_665
Pd9 Zn3 2.612817 1_555
Pd9 Y0 2.941347 1_554
Pd9 Y3 2.941360 1_555
Pd9 Y5 3.171547 1_655
Pd9 Y4 3.171547 1_565
Pd10 Zn1 2.612800 1_656
Pd10 Zn3 2.612817 1_555
Pd10 Pd5 2.727467 1_555
Pd10 Pd3 2.727467 1_556
Pd10 Pd8 2.727483 1_555
Pd10 Y4 2.941347 1_555
Pd10 Y1 2.941360 1_545
Pd10 Pd7 3.144584 1_545
Pd10 Y5 3.171547 1_655
Pd10 Y0 3.171547 1_555
Pd11 Zn2 2.612800 1_566
Pd11 Zn3 2.612817 1_555
Pd11 Pd7 2.727467 1_555
Pd11 Pd6 2.727467 1_556
Pd11 Pd4 2.727483 1_555
Pd11 Y5 2.941347 1_555
Pd11 Y2 2.941360 1_455
Pd11 Pd5 3.144584 1_455
Pd11 Pd2 3.144585 1_555
Pd11 Y4 3.171547 1_565
Pd11 Y0 3.171547 1_555
