# generated using pymatgen
data_LuTa2Fe9
_symmetry_space_group_name_H-M   'P 1'
_cell_length_a   8.36446718
_cell_length_b   8.36446773
_cell_length_c   8.36446700
_cell_angle_alpha   34.06276327
_cell_angle_beta   34.06276076
_cell_angle_gamma   34.06276499
_symmetry_Int_Tables_number   1
_chemical_formula_structural   LuTa2Fe9
_chemical_formula_sum   'Lu1 Ta2 Fe9'
_cell_volume   163.66413427
_cell_formula_units_Z   1
loop_
 _symmetry_equiv_pos_site_id
 _symmetry_equiv_pos_as_xyz
  1  'x, y, z'
loop_
 _atom_site_type_symbol
 _atom_site_label
 _atom_site_symmetry_multiplicity
 _atom_site_fract_x
 _atom_site_fract_y
 _atom_site_fract_z
 _atom_site_occupancy
  Lu  Lu0  1  0.00000000  0.00000000  0.00000000  1
  Ta  Ta0  1  0.14389416  0.14389416  0.14389416  1
  Ta  Ta1  1  0.85610584  0.85610584  0.85610584  1
  Fe  Fe0  1  0.58681441  0.58681441  0.08272744  1
  Fe  Fe1  1  0.33328134  0.33328134  0.33328134  1
  Fe  Fe2  1  0.91727356  0.41318459  0.41318559  1
  Fe  Fe3  1  0.41318459  0.91727356  0.41318559  1
  Fe  Fe4  1  0.50000000  0.50000000  0.50000000  1
  Fe  Fe5  1  0.58681541  0.08272644  0.58681441  1
  Fe  Fe6  1  0.08272644  0.58681541  0.58681441  1
  Fe  Fe7  1  0.66671866  0.66671866  0.66671866  1
  Fe  Fe8  1  0.41318559  0.41318559  0.91727256  1
loop_
_geom_bond_atom_site_label_1
_geom_bond_atom_site_label_2
_geom_bond_distance
_geom_bond_site_symmetry_2
Fe0 Fe4 2.389919 1_555
Fe0 Fe6 2.429886 1_654
Fe0 Fe5 2.429886 1_564
Fe0 Fe7 2.456662 1_554
Fe0 Fe6 2.469942 1_555
Fe0 Fe5 2.469942 1_555
Fe0 Fe1 2.471945 1_555
Fe0 Ta0 2.811915 1_655
Fe0 Ta0 2.811916 1_565
Fe0 Ta1 2.828110 1_554
Fe0 Lu0 3.173994 1_565
Fe0 Lu0 3.173994 1_655
Fe1 Fe2 2.456659 1_455
Fe1 Fe3 2.456660 1_545
Fe1 Fe8 2.456662 1_554
Fe1 Fe5 2.471948 1_555
Fe1 Fe6 2.471948 1_555
Fe1 Lu0 2.828917 1_556
Fe1 Lu0 2.828918 1_655
Fe1 Lu0 2.828918 1_565
Fe1 Fe7 2.828918 1_554
Fe1 Fe7 2.828918 1_455
Fe1 Fe7 2.828919 1_545
Fe2 Fe4 2.389921 1_555
Fe2 Fe3 2.429879 1_645
Fe2 Fe8 2.429886 1_654
Fe2 Fe8 2.469942 1_555
Fe2 Fe3 2.469950 1_555
Fe2 Fe7 2.471948 1_555
Fe2 Ta1 2.811913 1_545
Fe2 Ta1 2.811917 1_554
Fe2 Ta0 2.828108 1_655
Fe2 Lu0 3.173992 1_656
Fe2 Lu0 3.173996 1_665
Fe3 Fe4 2.389922 1_555
Fe3 Fe8 2.429886 1_564
Fe3 Fe8 2.469942 1_555
Fe3 Fe7 2.471948 1_555
Fe3 Ta1 2.811913 1_455
Fe3 Ta1 2.811917 1_554
Fe3 Ta0 2.828108 1_565
Fe3 Lu0 3.173991 1_566
Fe3 Lu0 3.173995 1_665
Fe4 Fe8 2.389919 1_555
Fe4 Fe6 2.389921 1_555
Fe4 Fe5 2.389922 1_555
Fe4 Ta0 2.879577 1_556
Fe4 Ta1 2.879577 1_554
Fe4 Ta1 2.879577 1_455
Fe4 Ta0 2.879577 1_655
Fe4 Ta0 2.879578 1_565
Fe4 Ta1 2.879578 1_545
Fe5 Fe6 2.429879 1_645
Fe5 Fe7 2.456660 1_545
Fe5 Fe6 2.469950 1_555
Fe5 Ta0 2.811913 1_655
Fe5 Ta0 2.811917 1_556
Fe5 Ta1 2.828108 1_545
Fe5 Lu0 3.173991 1_655
Fe5 Lu0 3.173995 1_556
Fe6 Fe7 2.456659 1_455
Fe6 Ta0 2.811913 1_565
Fe6 Ta0 2.811917 1_556
Fe6 Ta1 2.828108 1_455
Fe6 Lu0 3.173992 1_565
Fe6 Lu0 3.173996 1_556
Fe7 Fe8 2.471945 1_555
Fe7 Lu0 2.828917 1_665
Fe7 Lu0 2.828918 1_566
Fe7 Lu0 2.828918 1_656
Fe8 Ta1 2.811915 1_455
Fe8 Ta1 2.811916 1_545
Fe8 Ta0 2.828110 1_556
Fe8 Lu0 3.173994 1_656
Fe8 Lu0 3.173994 1_566
