# generated using pymatgen
data_Y6MgZn22Si
_symmetry_space_group_name_H-M   'P 1'
_cell_length_a   9.03325038
_cell_length_b   9.03324930
_cell_length_c   9.03325075
_cell_angle_alpha   60.00000180
_cell_angle_beta   60.00000575
_cell_angle_gamma   59.99999988
_symmetry_Int_Tables_number   1
_chemical_formula_structural   Y6MgZn22Si
_chemical_formula_sum   'Y6 Mg1 Zn22 Si1'
_cell_volume   521.21527740
_cell_formula_units_Z   1
loop_
 _symmetry_equiv_pos_site_id
 _symmetry_equiv_pos_as_xyz
  1  'x, y, z'
loop_
 _atom_site_type_symbol
 _atom_site_label
 _atom_site_symmetry_multiplicity
 _atom_site_fract_x
 _atom_site_fract_y
 _atom_site_fract_z
 _atom_site_occupancy
  Y  Y0  1  0.71630692  0.28369308  0.28369308  1
  Y  Y1  1  0.28369308  0.71630692  0.71630692  1
  Y  Y2  1  0.28369308  0.71630692  0.28369308  1
  Y  Y3  1  0.71630692  0.28369308  0.71630692  1
  Y  Y4  1  0.28369308  0.28369308  0.71630692  1
  Y  Y5  1  0.71630692  0.71630692  0.28369308  1
  Mg  Mg0  1  0.00000000  0.00000000  0.00000000  1
  Zn  Zn0  1  0.12947305  0.12947305  0.12947305  1
  Zn  Zn1  1  0.87052695  0.87052695  0.87052695  1
  Zn  Zn2  1  0.12947305  0.12947305  0.61158086  1
  Zn  Zn3  1  0.12947305  0.61158086  0.12947305  1
  Zn  Zn4  1  0.87052695  0.87052695  0.38841914  1
  Zn  Zn5  1  0.87052695  0.38841914  0.87052695  1
  Zn  Zn6  1  0.61158086  0.12947305  0.12947305  1
  Zn  Zn7  1  0.38841914  0.87052695  0.87052695  1
  Zn  Zn8  1  0.50000000  0.00000000  0.00000000  1
  Zn  Zn9  1  0.00000000  0.50000000  0.50000000  1
  Zn  Zn10  1  0.00000000  0.50000000  0.00000000  1
  Zn  Zn11  1  0.50000000  0.00000000  0.50000000  1
  Zn  Zn12  1  0.00000000  0.00000000  0.50000000  1
  Zn  Zn13  1  0.50000000  0.50000000  0.00000000  1
  Zn  Zn14  1  0.32947663  0.32947663  0.32947663  1
  Zn  Zn15  1  0.67052337  0.67052337  0.67052337  1
  Zn  Zn16  1  0.32947663  0.32947663  0.01157012  1
  Zn  Zn17  1  0.32947663  0.01157012  0.32947663  1
  Zn  Zn18  1  0.67052337  0.67052337  0.98842988  1
  Zn  Zn19  1  0.67052337  0.98842988  0.67052337  1
  Zn  Zn20  1  0.01157012  0.32947663  0.32947663  1
  Zn  Zn21  1  0.98842988  0.67052337  0.67052337  1
  Si  Si0  1  0.50000000  0.50000000  0.50000000  1
loop_
_geom_bond_atom_site_label_1
_geom_bond_atom_site_label_2
_geom_bond_distance
_geom_bond_site_symmetry_2
Y0 Zn4 3.058268 1_545
Y0 Zn6 3.058268 1_555
Y0 Zn0 3.058269 1_655
Y0 Zn5 3.058269 1_554
Y0 Zn18 3.135789 1_554
Y0 Zn20 3.135789 1_655
Y0 Zn14 3.135789 1_555
Y0 Zn19 3.135789 1_545
Y0 Zn11 3.222611 1_555
Y0 Zn12 3.222611 1_655
Y0 Zn13 3.222611 1_555
Y0 Zn10 3.222611 1_655
Y1 Zn2 3.058268 1_565
Y1 Zn7 3.058268 1_555
Y1 Zn1 3.058269 1_455
Y1 Zn3 3.058269 1_556
Y1 Zn16 3.135789 1_556
Y1 Zn21 3.135789 1_455
Y1 Zn15 3.135789 1_555
Y1 Zn17 3.135789 1_565
Y1 Zn11 3.222611 1_565
Y1 Zn12 3.222611 1_565
Y1 Zn13 3.222611 1_556
Y1 Zn10 3.222611 1_556
Y2 Zn0 3.058268 1_565
Y2 Zn3 3.058268 1_555
Y2 Zn4 3.058269 1_455
Y2 Zn7 3.058269 1_554
Y2 Zn14 3.135789 1_555
Y2 Zn17 3.135789 1_565
Y2 Zn18 3.135789 1_554
Y2 Zn21 3.135790 1_455
Y2 Zn12 3.222611 1_565
Y2 Zn8 3.222611 1_565
Y2 Zn9 3.222611 1_555
Y2 Zn13 3.222611 1_555
Y3 Zn1 3.058268 1_545
Y3 Zn5 3.058268 1_555
Y3 Zn2 3.058269 1_655
Y3 Zn6 3.058269 1_556
Y3 Zn15 3.135789 1_555
Y3 Zn19 3.135789 1_545
Y3 Zn16 3.135789 1_556
Y3 Zn20 3.135790 1_655
Y3 Zn12 3.222611 1_655
Y3 Zn8 3.222611 1_556
Y3 Zn9 3.222611 1_655
Y3 Zn13 3.222611 1_556
Y4 Zn7 3.058268 1_545
Y4 Zn2 3.058268 1_555
Y4 Zn5 3.058269 1_455
Y4 Zn0 3.058269 1_556
Y4 Zn21 3.135789 1_455
Y4 Zn19 3.135789 1_545
Y4 Zn16 3.135789 1_556
Y4 Zn14 3.135789 1_555
Y4 Zn11 3.222610 1_555
Y4 Zn8 3.222611 1_556
Y4 Zn9 3.222611 1_555
Y4 Zn10 3.222611 1_556
Y5 Zn6 3.058268 1_565
Y5 Zn4 3.058268 1_555
Y5 Zn3 3.058269 1_655
Y5 Zn1 3.058269 1_554
Y5 Zn20 3.135789 1_655
Y5 Zn17 3.135789 1_565
Y5 Zn18 3.135789 1_554
Y5 Zn15 3.135789 1_555
Y5 Zn11 3.222610 1_565
Y5 Zn8 3.222611 1_565
Y5 Zn9 3.222611 1_655
Y5 Zn10 3.222611 1_655
Mg0 Zn3 2.864831 1_545
Mg0 Zn5 2.864831 1_454
Mg0 Zn0 2.864831 1_555
Mg0 Zn1 2.864831 1_444
Mg0 Zn7 2.864831 1_544
Mg0 Zn6 2.864831 1_455
Mg0 Zn4 2.864832 1_445
Mg0 Zn2 2.864832 1_554
Zn0 Zn16 2.660493 1_555
Zn0 Zn20 2.660494 1_555
Zn0 Zn17 2.660494 1_555
Zn0 Zn10 2.734458 1_555
Zn0 Zn8 2.734458 1_555
Zn0 Zn12 2.734458 1_555
Zn1 Zn18 2.660493 1_555
Zn1 Zn21 2.660494 1_555
Zn1 Zn19 2.660494 1_555
Zn1 Zn10 2.734458 1_656
Zn1 Zn8 2.734458 1_566
Zn1 Zn12 2.734458 1_665
Zn2 Zn20 2.660494 1_555
Zn2 Zn9 2.734458 1_555
Zn3 Zn9 2.734458 1_555
Zn4 Zn9 2.734458 1_655
Zn5 Zn9 2.734458 1_655
Zn6 Zn8 2.734458 1_555
Zn7 Zn8 2.734458 1_566
Zn10 Zn16 2.609071 1_555
Zn10 Zn18 2.609071 1_454
Zn10 Zn20 2.609071 1_555
Zn10 Zn21 2.609071 1_454
Zn10 Zn3 2.734458 1_555
Zn10 Zn5 2.734458 1_454
Zn11 Zn15 2.609071 1_545
Zn11 Zn14 2.609071 1_555
Zn11 Zn19 2.609071 1_545
Zn11 Zn17 2.609071 1_555
Zn11 Zn4 2.734458 1_545
Zn11 Zn2 2.734458 1_555
Zn11 Zn7 2.734458 1_545
Zn11 Zn6 2.734458 1_555
Zn12 Zn20 2.609070 1_555
Zn12 Zn21 2.609070 1_445
Zn12 Zn17 2.609071 1_555
Zn12 Zn19 2.609071 1_445
Zn12 Zn2 2.734458 1_555
Zn12 Zn4 2.734458 1_445
Zn13 Zn18 2.609071 1_554
Zn13 Zn16 2.609071 1_555
Zn13 Zn15 2.609071 1_554
Zn13 Zn14 2.609071 1_555
Zn13 Zn7 2.734458 1_554
Zn13 Zn6 2.734458 1_555
Zn13 Zn5 2.734458 1_554
Zn13 Zn3 2.734458 1_555
Zn14 Zn9 2.609071 1_555
Zn14 Zn3 2.660493 1_555
Zn14 Zn6 2.660494 1_555
Zn14 Zn2 2.660494 1_555
Zn14 Zn17 2.871729 1_555
Zn14 Zn20 2.871729 1_555
Zn14 Zn16 2.871729 1_555
Zn15 Zn9 2.609071 1_655
Zn15 Zn5 2.660493 1_555
Zn15 Zn7 2.660494 1_555
Zn15 Zn4 2.660494 1_555
Zn15 Zn19 2.871729 1_555
Zn15 Zn21 2.871729 1_555
Zn15 Zn18 2.871729 1_555
Zn16 Zn8 2.609070 1_555
Zn16 Zn3 2.660493 1_555
Zn16 Zn6 2.660494 1_555
Zn16 Zn17 2.871729 1_555
Zn16 Zn20 2.871729 1_555
Zn17 Zn8 2.609071 1_555
Zn17 Zn6 2.660494 1_555
Zn17 Zn2 2.660494 1_555
Zn17 Zn20 2.871729 1_555
Zn18 Zn8 2.609070 1_566
Zn18 Zn5 2.660493 1_555
Zn18 Zn7 2.660494 1_555
Zn18 Zn19 2.871729 1_555
Zn18 Zn21 2.871729 1_555
Zn19 Zn8 2.609071 1_566
Zn19 Zn7 2.660494 1_555
Zn19 Zn4 2.660494 1_555
Zn19 Zn21 2.871729 1_555
Zn20 Zn9 2.609071 1_555
Zn20 Zn3 2.660493 1_555
Zn21 Zn9 2.609071 1_655
Zn21 Zn5 2.660493 1_555
Zn21 Zn4 2.660494 1_555
Si0 Y1 2.763309 1_555
Si0 Y3 2.763309 1_555
Si0 Y0 2.763309 1_555
Si0 Y2 2.763309 1_555
Si0 Y5 2.763309 1_555
Si0 Y4 2.763309 1_555
