# generated using pymatgen
data_Y8Si(Pd7Pt)3
_symmetry_space_group_name_H-M   'P 1'
_cell_length_a   8.28055490
_cell_length_b   8.28154697
_cell_length_c   8.28154697
_cell_angle_alpha   90.00000000
_cell_angle_beta   90.00000000
_cell_angle_gamma   90.00000000
_symmetry_Int_Tables_number   1
_chemical_formula_structural   Y8Si(Pd7Pt)3
_chemical_formula_sum   'Y8 Si1 Pd21 Pt3'
_cell_volume   567.91374454
_cell_formula_units_Z   1
loop_
 _symmetry_equiv_pos_site_id
 _symmetry_equiv_pos_as_xyz
  1  'x, y, z'
loop_
 _atom_site_type_symbol
 _atom_site_label
 _atom_site_symmetry_multiplicity
 _atom_site_fract_x
 _atom_site_fract_y
 _atom_site_fract_z
 _atom_site_occupancy
  Y  Y0  1  0.25296594  0.25342608  0.25342608  1
  Y  Y1  1  0.74703910  0.74696699  0.74696699  1
  Y  Y2  1  0.74703910  0.74696699  0.25303301  1
  Y  Y3  1  0.74703910  0.25303301  0.74696699  1
  Y  Y4  1  0.25296594  0.25342608  0.74657392  1
  Y  Y5  1  0.25296594  0.74657392  0.25342608  1
  Y  Y6  1  0.25296594  0.74657392  0.74657392  1
  Y  Y7  1  0.74703910  0.25303301  0.25303301  1
  Si  Si0  1  0.00016083  0.00000000  0.00000000  1
  Pd  Pd0  1  0.25782414  0.50000000  0.00000000  1
  Pd  Pd1  1  0.74212779  0.50000000  0.00000000  1
  Pd  Pd2  1  0.99982015  0.25817853  0.50000000  1
  Pd  Pd3  1  0.50010361  0.25763702  0.00000000  1
  Pd  Pd4  1  0.99982015  0.74182147  0.50000000  1
  Pd  Pd5  1  0.50010361  0.74236298  0.00000000  1
  Pd  Pd6  1  0.50010361  0.00000000  0.25763702  1
  Pd  Pd7  1  0.25782414  0.00000000  0.50000000  1
  Pd  Pd8  1  0.50010361  0.00000000  0.74236298  1
  Pd  Pd9  1  0.74212779  0.00000000  0.50000000  1
  Pd  Pd10  1  0.99982015  0.50000000  0.25817853  1
  Pd  Pd11  1  0.99982015  0.50000000  0.74182147  1
  Pd  Pd12  1  0.74772758  0.50000000  0.50000000  1
  Pd  Pd13  1  0.50016536  0.25256637  0.50000000  1
  Pd  Pd14  1  0.50016536  0.74743363  0.50000000  1
  Pd  Pd15  1  0.50016536  0.50000000  0.25256637  1
  Pd  Pd16  1  0.50016536  0.50000000  0.74743363  1
  Pd  Pd17  1  0.99986216  0.28215369  0.00000000  1
  Pd  Pd18  1  0.99986216  0.71784631  0.00000000  1
  Pd  Pd19  1  0.99986216  0.00000000  0.28215369  1
  Pd  Pd20  1  0.99986216  0.00000000  0.71784631  1
  Pt  Pt0  1  0.25215373  0.50000000  0.50000000  1
  Pt  Pt1  1  0.27956077  0.00000000  0.00000000  1
  Pt  Pt2  1  0.72066698  0.00000000  0.00000000  1
loop_
_geom_bond_atom_site_label_1
_geom_bond_atom_site_label_2
_geom_bond_distance
_geom_bond_site_symmetry_2
Pd0 Pd5 2.837866 1_555
Pd0 Pd3 2.837866 1_555
Pd0 Pd15 2.898600 1_555
Pd0 Pd16 2.898600 1_554
Pd0 Y5 2.928520 1_555
Pd0 Y0 2.928520 1_555
Pd0 Y6 2.928520 1_554
Pd0 Y4 2.928520 1_554
Pd0 Pd10 3.022552 1_455
Pd0 Pd11 3.022552 1_454
Pd1 Pd5 2.836372 1_555
Pd1 Pd3 2.836372 1_555
Pd1 Pd15 2.896430 1_555
Pd1 Pd16 2.896430 1_554
Pd1 Y2 2.928467 1_555
Pd1 Y1 2.928467 1_554
Pd1 Y7 2.928467 1_555
Pd1 Y3 2.928467 1_554
Pd1 Pd10 3.020729 1_555
Pd1 Pd11 3.020729 1_554
Pd2 Pd20 2.797560 1_555
Pd2 Pt0 2.894215 1_655
Pd2 Y4 2.926665 1_655
Pd2 Y0 2.926665 1_655
Pd2 Y3 2.926822 1_555
Pd2 Y7 2.926822 1_555
Pd2 Pd9 3.020729 1_555
Pd2 Pd7 3.022552 1_655
Pd3 Pt1 2.808462 1_555
Pd3 Pt2 2.808573 1_555
Pd3 Y7 2.928079 1_555
Pd3 Y3 2.928079 1_554
Pd3 Y0 2.931538 1_555
Pd3 Y4 2.931538 1_554
Pd3 Pd6 3.017413 1_555
Pd3 Pd8 3.017413 1_554
Pd4 Pt0 2.894215 1_655
Pd4 Y6 2.926665 1_655
Pd4 Y5 2.926665 1_655
Pd4 Y1 2.926822 1_555
Pd4 Y2 2.926822 1_555
Pd4 Pd9 3.020729 1_565
Pd4 Pd7 3.022552 1_665
Pd5 Pt1 2.808462 1_565
Pd5 Pt2 2.808573 1_565
Pd5 Y2 2.928079 1_555
Pd5 Y1 2.928079 1_554
Pd5 Y5 2.931538 1_555
Pd5 Y6 2.931538 1_554
Pd5 Pd6 3.017413 1_565
Pd5 Pd8 3.017413 1_564
Pd6 Pt1 2.808462 1_555
Pd6 Pt2 2.808573 1_555
Pd6 Pd9 2.836372 1_555
Pd6 Pd7 2.837866 1_555
Pd6 Y7 2.928079 1_555
Pd6 Y2 2.928079 1_545
Pd6 Y0 2.931538 1_555
Pd6 Y5 2.931538 1_545
Pd7 Pd8 2.837866 1_555
Pd7 Y4 2.928520 1_555
Pd7 Y0 2.928520 1_555
Pd7 Y6 2.928520 1_545
Pd7 Y5 2.928520 1_545
Pd8 Pt1 2.808462 1_556
Pd8 Pt2 2.808573 1_556
Pd8 Pd9 2.836372 1_555
Pd8 Y3 2.928079 1_555
Pd8 Y1 2.928079 1_545
Pd8 Y4 2.931538 1_555
Pd8 Y6 2.931538 1_545
Pd9 Y3 2.928467 1_555
Pd9 Y7 2.928467 1_555
Pd9 Y1 2.928467 1_545
Pd9 Y2 2.928467 1_545
Pd10 Pd18 2.797560 1_555
Pd10 Pd17 2.797560 1_555
Pd10 Pd4 2.832183 1_555
Pd10 Pd2 2.832183 1_555
Pd10 Pd12 2.892775 1_555
Pd10 Pt0 2.894215 1_655
Pd10 Y5 2.926665 1_655
Pd10 Y0 2.926665 1_655
Pd10 Y2 2.926822 1_555
Pd10 Y7 2.926822 1_555
Pd11 Pd18 2.797560 1_556
Pd11 Pd17 2.797560 1_556
Pd11 Pd4 2.832183 1_555
Pd11 Pd2 2.832183 1_555
Pd11 Pd12 2.892775 1_555
Pd11 Pt0 2.894215 1_655
Pd11 Y6 2.926665 1_655
Pd11 Y4 2.926665 1_655
Pd11 Y1 2.926822 1_555
Pd11 Y3 2.926822 1_555
Pd12 Y1 2.892452 1_555
Pd12 Y2 2.892452 1_555
Pd12 Y3 2.892452 1_555
Pd12 Y7 2.892452 1_555
Pd12 Pd4 2.892775 1_555
Pd12 Pd2 2.892775 1_555
Pd12 Pd16 2.898491 1_555
Pd12 Pd14 2.898491 1_555
Pd12 Pd13 2.898491 1_555
Pd12 Pd15 2.898491 1_555
Pd13 Y4 2.891344 1_555
Pd13 Y0 2.891344 1_555
Pd13 Y3 2.891730 1_555
Pd13 Y7 2.891730 1_555
Pd13 Pd9 2.896430 1_555
Pd13 Pd16 2.897912 1_555
Pd13 Pd15 2.897912 1_555
Pd13 Pd7 2.898600 1_555
Pd13 Pd8 2.898891 1_555
Pd13 Pd6 2.898891 1_555
Pd13 Pt0 2.901125 1_555
Pd14 Y6 2.891344 1_555
Pd14 Y5 2.891344 1_555
Pd14 Y1 2.891730 1_555
Pd14 Y2 2.891730 1_555
Pd14 Pd9 2.896430 1_565
Pd14 Pd16 2.897912 1_555
Pd14 Pd15 2.897912 1_555
Pd14 Pd7 2.898600 1_565
Pd14 Pd8 2.898891 1_565
Pd14 Pd6 2.898891 1_565
Pd14 Pt0 2.901125 1_555
Pd15 Y5 2.891344 1_555
Pd15 Y0 2.891344 1_555
Pd15 Y2 2.891730 1_555
Pd15 Y7 2.891730 1_555
Pd15 Pd5 2.898891 1_555
Pd15 Pd3 2.898891 1_555
Pd15 Pt0 2.901125 1_555
Pd16 Y6 2.891344 1_555
Pd16 Y4 2.891344 1_555
Pd16 Y1 2.891730 1_555
Pd16 Y3 2.891730 1_555
Pd16 Pd5 2.898891 1_556
Pd16 Pd3 2.898891 1_556
Pd16 Pt0 2.901125 1_555
Pd17 Si0 2.336670 1_655
Pd17 Y7 2.971886 1_555
Pd17 Y3 2.971886 1_554
Pd17 Y0 2.975557 1_655
Pd17 Y4 2.975557 1_654
Pd18 Si0 2.336670 1_665
Pd18 Y2 2.971886 1_555
Pd18 Y1 2.971886 1_554
Pd18 Y5 2.975557 1_655
Pd18 Y6 2.975557 1_654
Pd19 Si0 2.336670 1_655
Pd19 Pd2 2.797560 1_555
Pd19 Pd4 2.797560 1_545
Pd19 Y7 2.971886 1_555
Pd19 Y2 2.971886 1_545
Pd19 Y0 2.975557 1_655
Pd19 Y5 2.975557 1_645
Pd20 Si0 2.336670 1_656
Pd20 Pd4 2.797560 1_545
Pd20 Y3 2.971886 1_555
Pd20 Y1 2.971886 1_545
Pd20 Y4 2.975557 1_655
Pd20 Y6 2.975557 1_645
Pt0 Y6 2.887851 1_555
Pt0 Y5 2.887851 1_555
Pt0 Y4 2.887851 1_555
Pt0 Y0 2.887851 1_555
Pt1 Si0 2.313587 1_555
Pt1 Y0 2.976253 1_555
Pt1 Y4 2.976253 1_554
Pt1 Y5 2.976253 1_545
Pt1 Y6 2.976253 1_544
Pt2 Si0 2.314364 1_655
Pt2 Y7 2.971526 1_555
Pt2 Y3 2.971526 1_554
Pt2 Y2 2.971526 1_545
Pt2 Y1 2.971526 1_544
