# generated using pymatgen
data_MnCd2(P3Pd10)2
_symmetry_space_group_name_H-M   'P 1'
_cell_length_a   8.52697236
_cell_length_b   8.52697187
_cell_length_c   8.52697276
_cell_angle_alpha   59.99999656
_cell_angle_beta   59.99999846
_cell_angle_gamma   59.99999269
_symmetry_Int_Tables_number   1
_chemical_formula_structural   MnCd2(P3Pd10)2
_chemical_formula_sum   'Mn1 Cd2 P6 Pd20'
_cell_volume   438.39896749
_cell_formula_units_Z   1
loop_
 _symmetry_equiv_pos_site_id
 _symmetry_equiv_pos_as_xyz
  1  'x, y, z'
loop_
 _atom_site_type_symbol
 _atom_site_label
 _atom_site_symmetry_multiplicity
 _atom_site_fract_x
 _atom_site_fract_y
 _atom_site_fract_z
 _atom_site_occupancy
  Mn  Mn0  1  0.00000000  0.00000000  0.00000000  1
  Cd  Cd0  1  0.25000000  0.25000000  0.25000000  1
  Cd  Cd1  1  0.75000000  0.75000000  0.75000000  1
  P  P0  1  0.73478087  0.73478087  0.26521913  1
  P  P1  1  0.26521913  0.26521913  0.73478087  1
  P  P2  1  0.26521913  0.73478087  0.73478087  1
  P  P3  1  0.73478087  0.26521913  0.73478087  1
  P  P4  1  0.26521913  0.73478087  0.26521913  1
  P  P5  1  0.73478087  0.26521913  0.26521913  1
  Pd  Pd0  1  0.61641976  0.61641976  0.61641976  1
  Pd  Pd1  1  0.38358024  0.84925827  0.38358024  1
  Pd  Pd2  1  0.65838940  0.34161060  0.00000000  1
  Pd  Pd3  1  0.00000000  0.34161060  0.65838940  1
  Pd  Pd4  1  0.65838940  1.00000000  1.00000000  1
  Pd  Pd5  1  0.61641976  0.61641976  0.15074173  1
  Pd  Pd6  1  0.00000000  0.00000000  0.65838940  1
  Pd  Pd7  1  0.00000000  0.34161060  0.00000000  1
  Pd  Pd8  1  0.65838940  1.00000000  0.34161060  1
  Pd  Pd9  1  0.34161060  0.00000000  0.00000000  1
  Pd  Pd10  1  1.00000000  0.65838940  1.00000000  1
  Pd  Pd11  1  0.34161060  0.00000000  0.65838940  1
  Pd  Pd12  1  1.00000000  0.65838940  0.34161060  1
  Pd  Pd13  1  0.34161060  0.65838940  1.00000000  1
  Pd  Pd14  1  0.15074173  0.61641976  0.61641976  1
  Pd  Pd15  1  0.38358024  0.38358024  0.38358024  1
  Pd  Pd16  1  0.84925827  0.38358024  0.38358024  1
  Pd  Pd17  1  0.38358024  0.38358024  0.84925827  1
  Pd  Pd18  1  0.61641976  0.15074173  0.61641976  1
  Pd  Pd19  1  0.00000000  0.00000000  0.34161060  1
loop_
_geom_bond_atom_site_label_1
_geom_bond_atom_site_label_2
_geom_bond_distance
_geom_bond_site_symmetry_2
Mn0 Pd13 2.912904 1_544
Mn0 Pd2 2.912904 1_455
Mn0 Pd7 2.912904 1_555
Mn0 Pd12 2.912904 1_445
Mn0 Pd3 2.912904 1_554
Mn0 Pd10 2.912904 1_444
Mn0 Pd8 2.912904 1_445
Mn0 Pd11 2.912904 1_554
Mn0 Pd9 2.912904 1_555
Mn0 Pd4 2.912904 1_444
Mn0 Pd19 2.912904 1_555
Mn0 Pd6 2.912904 1_554
Cd0 Pd15 2.790055 1_555
Cd0 Pd1 2.790061 1_545
Cd0 Pd16 2.790061 1_455
Cd0 Pd17 2.790062 1_554
Cd0 Pd12 3.303442 1_455
Cd0 Pd10 3.303442 1_454
Cd0 Pd8 3.303442 1_545
Cd0 Pd4 3.303442 1_544
Cd0 Pd13 3.303442 1_554
Cd0 Pd9 3.303442 1_555
Cd0 Pd11 3.303442 1_555
Cd0 Pd2 3.303442 1_555
Cd0 Pd6 3.303442 1_555
Cd0 Pd19 3.303442 1_555
Cd0 Pd3 3.303442 1_555
Cd0 Pd7 3.303442 1_555
Cd1 Pd0 2.790055 1_555
Cd1 Pd18 2.790061 1_565
Cd1 Pd14 2.790061 1_655
Cd1 Pd5 2.790062 1_556
Cd1 Pd7 3.303442 1_656
Cd1 Pd3 3.303442 1_655
Cd1 Pd11 3.303442 1_565
Cd1 Pd9 3.303442 1_566
Cd1 Pd2 3.303442 1_556
Cd1 Pd4 3.303442 1_555
Cd1 Pd8 3.303442 1_555
Cd1 Pd13 3.303442 1_555
Cd1 Pd6 3.303442 1_665
Cd1 Pd19 3.303442 1_665
Cd1 Pd10 3.303442 1_555
Cd1 Pd12 3.303442 1_555
P0 Pd4 2.353457 1_554
P0 Pd8 2.353457 1_555
P0 Pd10 2.353457 1_554
P0 Pd12 2.353457 1_555
P0 Pd5 2.445212 1_555
P0 Pd16 2.445219 1_555
P0 Pd1 2.445219 1_555
P0 Pd0 2.445219 1_555
P1 Pd9 2.353457 1_556
P1 Pd11 2.353457 1_555
P1 Pd7 2.353457 1_556
P1 Pd3 2.353457 1_555
P1 Pd17 2.445212 1_555
P1 Pd14 2.445219 1_555
P1 Pd18 2.445219 1_555
P1 Pd15 2.445219 1_555
P2 Pd6 2.353457 1_565
P2 Pd11 2.353457 1_565
P2 Pd10 2.353457 1_455
P2 Pd13 2.353457 1_555
P2 Pd14 2.445212 1_555
P2 Pd17 2.445219 1_555
P2 Pd0 2.445219 1_555
P2 Pd1 2.445219 1_555
P3 Pd6 2.353457 1_655
P3 Pd4 2.353457 1_545
P3 Pd3 2.353457 1_655
P3 Pd2 2.353457 1_556
P3 Pd18 2.445212 1_555
P3 Pd0 2.445219 1_555
P3 Pd17 2.445219 1_555
P3 Pd16 2.445219 1_555
P4 Pd19 2.353457 1_565
P4 Pd9 2.353457 1_565
P4 Pd12 2.353457 1_455
P4 Pd13 2.353457 1_554
P4 Pd1 2.445212 1_555
P4 Pd15 2.445219 1_555
P4 Pd5 2.445219 1_555
P4 Pd14 2.445219 1_555
P5 Pd19 2.353457 1_655
P5 Pd8 2.353457 1_545
P5 Pd7 2.353457 1_655
P5 Pd2 2.353457 1_555
P5 Pd16 2.445212 1_555
P5 Pd5 2.445219 1_555
P5 Pd15 2.445219 1_555
P5 Pd18 2.445219 1_555
Pd0 Pd11 2.997434 1_565
Pd0 Pd3 2.997434 1_655
Pd0 Pd8 2.997434 1_555
Pd0 Pd2 2.997434 1_556
Pd0 Pd12 2.997434 1_555
Pd0 Pd13 2.997435 1_555
Pd1 Pd19 2.997433 1_565
Pd1 Pd9 2.997433 1_565
Pd1 Pd6 2.997437 1_565
Pd1 Pd4 2.997437 1_554
Pd1 Pd8 2.997441 1_555
Pd1 Pd11 2.997441 1_565
Pd2 Pd8 2.912904 1_545
Pd2 Pd4 2.912904 1_544
Pd2 Pd7 2.912904 1_655
Pd2 Pd3 2.912904 1_654
Pd2 Pd5 2.997441 1_555
Pd3 Pd6 2.912904 1_555
Pd3 Pd7 2.912904 1_556
Pd4 Pd9 2.701164 1_566
Pd4 Pd6 2.912904 1_665
Pd4 Pd8 2.912904 1_556
Pd4 Pd5 2.997433 1_556
Pd5 Pd9 2.997436 1_565
Pd5 Pd7 2.997437 1_655
Pd7 Pd9 2.912904 1_555
Pd10 Pd7 2.701164 1_656
Pd10 Pd4 2.912904 1_555
Pd10 Pd6 2.912904 1_665
Pd10 Pd13 2.912904 1_655
Pd10 Pd12 2.912904 1_556
Pd10 Pd5 2.997433 1_556
Pd10 Pd14 2.997433 1_655
Pd10 Pd17 2.997437 1_655
Pd10 Pd16 2.997437 1_556
Pd11 Pd8 2.701164 1_545
Pd11 Pd3 2.912904 1_555
Pd11 Pd13 2.912904 1_545
Pd11 Pd6 2.912904 1_555
Pd11 Pd9 2.912904 1_556
Pd11 Pd15 2.997434 1_555
Pd11 Pd18 2.997441 1_555
Pd12 Pd3 2.701164 1_655
Pd12 Pd8 2.912904 1_555
Pd12 Pd19 2.912904 1_665
Pd12 Pd13 2.912904 1_654
Pd12 Pd15 2.997434 1_655
Pd12 Pd16 2.997441 1_555
Pd12 Pd14 2.997441 1_655
Pd13 Pd2 2.701164 1_556
Pd13 Pd9 2.912904 1_566
Pd13 Pd15 2.997434 1_556
Pd13 Pd17 2.997441 1_555
Pd13 Pd5 2.997441 1_556
Pd14 Pd6 2.997433 1_565
Pd14 Pd19 2.997437 1_565
Pd14 Pd7 2.997437 1_556
Pd14 Pd3 2.997441 1_555
Pd15 Pd8 2.997434 1_545
Pd15 Pd3 2.997434 1_555
Pd15 Pd2 2.997435 1_555
Pd16 Pd19 2.997433 1_655
Pd16 Pd7 2.997433 1_655
Pd16 Pd6 2.997437 1_655
Pd16 Pd3 2.997441 1_655
Pd17 Pd9 2.997433 1_556
Pd17 Pd7 2.997433 1_556
Pd17 Pd4 2.997436 1_545
Pd17 Pd2 2.997441 1_556
Pd18 Pd6 2.997433 1_655
Pd18 Pd4 2.997433 1_545
Pd18 Pd19 2.997437 1_655
Pd18 Pd9 2.997437 1_556
Pd18 Pd8 2.997441 1_545
Pd19 Pd6 2.701164 1_555
Pd19 Pd7 2.912904 1_555
Pd19 Pd9 2.912904 1_555
Pd19 Pd8 2.912904 1_445
