# generated using pymatgen
data_Sr5Ti4IrO15
_symmetry_space_group_name_H-M   'P 1'
_cell_length_a   11.76834390
_cell_length_b   11.76834413
_cell_length_c   11.76834421
_cell_angle_alpha   27.24604590
_cell_angle_beta   27.24604559
_cell_angle_gamma   27.24604798
_symmetry_Int_Tables_number   1
_chemical_formula_structural   Sr5Ti4IrO15
_chemical_formula_sum   'Sr5 Ti4 Ir1 O15'
_cell_volume   301.40612692
_cell_formula_units_Z   1
loop_
 _symmetry_equiv_pos_site_id
 _symmetry_equiv_pos_as_xyz
  1  'x, y, z'
loop_
 _atom_site_type_symbol
 _atom_site_label
 _atom_site_symmetry_multiplicity
 _atom_site_fract_x
 _atom_site_fract_y
 _atom_site_fract_z
 _atom_site_occupancy
  Sr  Sr0  1  0.89933501  0.89933501  0.89933501  1
  Sr  Sr1  1  0.10066499  0.10066499  0.10066499  1
  Sr  Sr2  1  0.50000000  0.50000000  0.50000000  1
  Sr  Sr3  1  0.29955802  0.29955802  0.29955802  1
  Sr  Sr4  1  0.70044198  0.70044198  0.70044198  1
  Ti  Ti0  1  0.40023148  0.40023148  0.40023148  1
  Ti  Ti1  1  0.79998267  0.79998267  0.79998267  1
  Ti  Ti2  1  0.20001733  0.20001733  0.20001733  1
  Ti  Ti3  1  0.59976852  0.59976852  0.59976852  1
  Ir  Ir0  1  0.00000000  0.00000000  0.00000000  1
  O  O0  1  0.39986108  0.39986108  0.89951904  1
  O  O1  1  0.60013892  0.60013892  0.10048096  1
  O  O2  1  0.00000000  0.00000000  0.50000000  1
  O  O3  1  0.79774576  0.79774576  0.30281108  1
  O  O4  1  0.20225424  0.20225424  0.69718892  1
  O  O5  1  0.89951904  0.39986108  0.39986108  1
  O  O6  1  0.10048096  0.60013892  0.60013892  1
  O  O7  1  0.50000000  0.00000000  0.00000000  1
  O  O8  1  0.30281108  0.79774576  0.79774576  1
  O  O9  1  0.69718892  0.20225424  0.20225424  1
  O  O10  1  0.39986108  0.89951904  0.39986108  1
  O  O11  1  0.60013892  0.10048096  0.60013892  1
  O  O12  1  0.00000000  0.50000000  0.00000000  1
  O  O13  1  0.79774576  0.30281108  0.79774576  1
  O  O14  1  0.20225424  0.69718892  0.20225424  1
loop_
_geom_bond_atom_site_label_1
_geom_bond_atom_site_label_2
_geom_bond_distance
_geom_bond_site_symmetry_2
Ir0 O4 1.984835 1_554
Ir0 O3 1.984835 1_445
Ir0 O14 1.984835 1_545
Ir0 O13 1.984835 1_454
Ir0 O9 1.984835 1_455
Ir0 O8 1.984835 1_544
O0 Ti2 1.956094 1_556
O0 Ti3 1.960015 1_555
O0 Sr2 2.765620 1_555
O0 Sr3 2.768657 1_556
O0 Sr0 2.771865 1_455
O0 Sr0 2.771865 1_545
O1 Ti1 1.956094 1_554
O1 Ti0 1.960015 1_555
O1 Sr2 2.765620 1_555
O1 Sr4 2.768657 1_554
O1 Sr1 2.771865 1_655
O1 Sr1 2.771865 1_565
O2 Ti2 1.960828 1_555
O2 Ti1 1.960828 1_445
O2 Sr0 2.754846 1_445
O2 Sr1 2.754846 1_555
O2 Sr2 2.771830 1_455
O2 Sr2 2.771830 1_545
O3 Ti3 1.940693 1_555
O3 Sr3 2.771880 1_655
O3 Sr3 2.771880 1_565
O3 Sr0 2.785397 1_554
O3 Sr4 2.792069 1_555
O4 Ti0 1.940693 1_555
O4 Sr4 2.771880 1_455
O4 Sr4 2.771880 1_545
O4 Sr1 2.785397 1_556
O4 Sr3 2.792069 1_555
O5 Ti2 1.956094 1_655
O5 Ti3 1.960015 1_555
O5 Sr2 2.765620 1_555
O5 Sr3 2.768657 1_655
O5 Sr0 2.771865 1_545
O5 Sr0 2.771865 1_554
O6 Ti1 1.956094 1_455
O6 Ti0 1.960015 1_555
O6 Sr2 2.765620 1_555
O6 Sr4 2.768657 1_455
O6 Sr1 2.771865 1_565
O6 Sr1 2.771865 1_556
O7 Ti2 1.960828 1_555
O7 Ti1 1.960828 1_544
O7 Sr0 2.754846 1_544
O7 Sr1 2.754846 1_555
O7 Sr2 2.771829 1_554
O7 Sr2 2.771829 1_545
O8 Ti3 1.940693 1_555
O8 Sr3 2.771880 1_556
O8 Sr3 2.771880 1_565
O8 Sr0 2.785397 1_455
O8 Sr4 2.792069 1_555
O9 Ti0 1.940693 1_555
O9 Sr4 2.771880 1_554
O9 Sr4 2.771880 1_545
O9 Sr1 2.785397 1_655
O9 Sr3 2.792069 1_555
O10 Ti2 1.956094 1_565
O10 Ti3 1.960015 1_555
O10 Sr2 2.765620 1_555
O10 Sr3 2.768657 1_565
O10 Sr0 2.771865 1_455
O10 Sr0 2.771865 1_554
O11 Ti1 1.956094 1_545
O11 Ti0 1.960015 1_555
O11 Sr2 2.765620 1_555
O11 Sr4 2.768657 1_545
O11 Sr1 2.771865 1_655
O11 Sr1 2.771865 1_556
O12 Ti2 1.960828 1_555
O12 Ti1 1.960828 1_454
O12 Sr0 2.754846 1_454
O12 Sr1 2.754846 1_555
O12 Sr2 2.771829 1_455
O12 Sr2 2.771829 1_554
O13 Ti3 1.940693 1_555
O13 Sr3 2.771880 1_556
O13 Sr3 2.771880 1_655
O13 Sr0 2.785397 1_545
O13 Sr4 2.792069 1_555
O14 Ti0 1.940693 1_555
O14 Sr4 2.771880 1_554
O14 Sr4 2.771880 1_455
O14 Sr1 2.785397 1_565
O14 Sr3 2.792069 1_555
