# generated using pymatgen
data_PrCu6
_symmetry_space_group_name_H-M   'P 1'
_cell_length_a   5.08323188
_cell_length_b   8.00440284
_cell_length_c   10.06194754
_cell_angle_alpha   90.00000000
_cell_angle_beta   90.00000000
_cell_angle_gamma   90.00000000
_symmetry_Int_Tables_number   1
_chemical_formula_structural   PrCu6
_chemical_formula_sum   'Pr4 Cu24'
_cell_volume   409.40289307
_cell_formula_units_Z   4
loop_
 _symmetry_equiv_pos_site_id
 _symmetry_equiv_pos_as_xyz
  1  'x, y, z'
loop_
 _atom_site_type_symbol
 _atom_site_label
 _atom_site_symmetry_multiplicity
 _atom_site_fract_x
 _atom_site_fract_y
 _atom_site_fract_z
 _atom_site_occupancy
  Pr  Pr0  1  0.75000000  0.73812158  0.56359583  1
  Pr  Pr1  1  0.25000000  0.26187842  0.43640417  1
  Pr  Pr2  1  0.75000000  0.23812158  0.93640417  1
  Pr  Pr3  1  0.25000000  0.76187842  0.06359583  1
  Cu  Cu0  1  0.75000000  0.85003920  0.85771082  1
  Cu  Cu1  1  0.25000000  0.14996080  0.14228918  1
  Cu  Cu2  1  0.75000000  0.35003920  0.64228918  1
  Cu  Cu3  1  0.25000000  0.64996080  0.35771082  1
  Cu  Cu4  1  0.75000000  0.18163970  0.24472939  1
  Cu  Cu5  1  0.25000000  0.81836030  0.75527061  1
  Cu  Cu6  1  0.75000000  0.68163970  0.25527061  1
  Cu  Cu7  1  0.25000000  0.31836030  0.74472939  1
  Cu  Cu8  1  0.75000000  0.43498993  0.40043231  1
  Cu  Cu9  1  0.25000000  0.56501007  0.59956769  1
  Cu  Cu10  1  0.75000000  0.93498993  0.09956769  1
  Cu  Cu11  1  0.25000000  0.06501007  0.90043231  1
  Cu  Cu12  1  0.75000000  0.09931114  0.48381029  1
  Cu  Cu13  1  0.25000000  0.90068886  0.51618971  1
  Cu  Cu14  1  0.75000000  0.59931114  0.01618971  1
  Cu  Cu15  1  0.25000000  0.40068886  0.98381029  1
  Cu  Cu16  1  0.99564848  0.56512467  0.81009059  1
  Cu  Cu17  1  0.49564848  0.43487533  0.18990941  1
  Cu  Cu18  1  0.50435152  0.06512467  0.68990941  1
  Cu  Cu19  1  0.00435152  0.93487533  0.31009059  1
  Cu  Cu20  1  0.00435152  0.43487533  0.18990941  1
  Cu  Cu21  1  0.50435152  0.56512467  0.81009059  1
  Cu  Cu22  1  0.49564848  0.93487533  0.31009059  1
  Cu  Cu23  1  0.99564848  0.06512467  0.68990941  1
loop_
_geom_bond_atom_site_label_1
_geom_bond_atom_site_label_2
_geom_bond_distance
_geom_bond_site_symmetry_2
Cu0 Cu10 2.526765 1_556
Cu0 Cu14 2.563305 1_556
Cu0 Cu21 2.643825 1_555
Cu0 Cu16 2.643825 1_555
Cu0 Cu23 2.715504 1_565
Cu0 Cu18 2.715504 1_565
Cu0 Cu5 2.754369 1_655
Cu0 Cu5 2.754369 1_555
Cu0 Pr0 3.091987 1_555
Cu0 Cu11 3.099266 1_665
Cu0 Cu11 3.099266 1_565
Cu0 Pr2 3.205695 1_565
Cu0 Pr3 3.354002 1_656
Cu0 Pr3 3.354002 1_556
Cu1 Cu11 2.526765 1_554
Cu1 Cu15 2.563305 1_554
Cu1 Cu17 2.643825 1_555
Cu1 Cu20 2.643825 1_555
Cu1 Cu19 2.715504 1_545
Cu1 Cu22 2.715504 1_545
Cu1 Cu4 2.754369 1_455
Cu1 Cu4 2.754369 1_555
Cu1 Pr1 3.091987 1_555
Cu1 Cu10 3.099266 1_445
Cu1 Cu10 3.099266 1_545
Cu1 Pr3 3.205695 1_545
Cu1 Pr2 3.354002 1_554
Cu1 Pr2 3.354002 1_454
Cu2 Cu8 2.526765 1_555
Cu2 Cu23 2.643825 1_555
Cu2 Cu21 2.715504 1_555
Cu2 Cu7 2.754369 1_655
Cu2 Cu7 2.754369 1_555
Cu2 Pr2 3.091987 1_555
Cu2 Cu9 3.099266 1_655
Cu2 Cu9 3.099266 1_555
Cu2 Pr0 3.205695 1_555
Cu2 Pr1 3.354002 1_655
Cu2 Pr1 3.354002 1_555
Cu3 Cu9 2.526765 1_555
Cu3 Cu6 2.754369 1_455
Cu3 Cu6 2.754369 1_555
Cu3 Pr3 3.091987 1_555
Cu3 Cu8 3.099266 1_555
Cu3 Cu8 3.099266 1_455
Cu3 Pr1 3.205695 1_555
Cu3 Pr0 3.354002 1_555
Cu3 Pr0 3.354002 1_455
Cu4 Cu8 2.562600 1_555
Cu4 Pr2 3.135122 1_554
Cu4 Pr1 3.254519 1_655
Cu4 Pr1 3.254519 1_555
Cu5 Cu9 2.562600 1_555
Cu5 Pr3 3.135122 1_556
Cu5 Pr0 3.254519 1_555
Cu5 Pr0 3.254519 1_455
Cu6 Cu8 2.455846 1_555
Cu6 Pr0 3.135122 1_555
Cu6 Pr3 3.254519 1_555
Cu6 Pr3 3.254519 1_655
Cu7 Cu9 2.455846 1_555
Cu7 Pr1 3.135122 1_555
Cu7 Pr2 3.254519 1_455
Cu7 Pr2 3.254519 1_555
Cu8 Pr1 2.917337 1_655
Cu8 Pr1 2.917337 1_555
Cu8 Pr0 2.929621 1_555
Cu9 Pr0 2.917337 1_455
Cu9 Pr0 2.917337 1_555
Cu9 Pr1 2.929621 1_555
Cu10 Cu4 2.455846 1_565
Cu10 Cu19 2.481679 1_655
Cu10 Cu22 2.481679 1_555
Cu10 Cu6 2.562600 1_555
Cu10 Cu14 2.814836 1_555
Cu10 Pr3 2.917337 1_655
Cu10 Pr3 2.917337 1_555
Cu10 Pr2 2.929621 1_564
Cu11 Cu5 2.455846 1_545
Cu11 Cu23 2.481679 1_455
Cu11 Cu18 2.481679 1_555
Cu11 Cu7 2.562600 1_555
Cu11 Cu15 2.814836 1_555
Cu11 Pr2 2.917337 1_455
Cu11 Pr2 2.917337 1_555
Cu11 Pr3 2.929621 1_546
Cu12 Cu23 2.436099 1_555
Cu12 Cu18 2.436099 1_555
Cu12 Cu4 2.494248 1_555
Cu12 Cu19 2.541541 1_645
Cu12 Cu22 2.541541 1_545
Cu12 Cu2 2.563305 1_555
Cu12 Cu8 2.814836 1_555
Cu12 Pr1 2.894927 1_555
Cu12 Pr1 2.894927 1_655
Cu12 Pr0 3.000497 1_545
Cu12 Cu13 3.015558 1_545
Cu12 Cu13 3.015558 1_645
Cu13 Cu22 2.436099 1_555
Cu13 Cu19 2.436099 1_555
Cu13 Cu5 2.494248 1_555
Cu13 Cu23 2.541541 1_465
Cu13 Cu18 2.541541 1_565
Cu13 Cu3 2.563305 1_555
Cu13 Cu9 2.814836 1_555
Cu13 Pr0 2.894927 1_555
Cu13 Pr0 2.894927 1_455
Cu13 Pr1 3.000497 1_565
Cu14 Cu21 2.436099 1_554
Cu14 Cu16 2.436099 1_554
Cu14 Cu6 2.494248 1_555
Cu14 Cu17 2.541541 1_555
Cu14 Cu20 2.541541 1_655
Cu14 Pr3 2.894927 1_555
Cu14 Pr3 2.894927 1_655
Cu14 Pr2 3.000497 1_554
Cu14 Cu15 3.015558 1_654
Cu14 Cu15 3.015558 1_554
Cu15 Cu20 2.436099 1_556
Cu15 Cu17 2.436099 1_556
Cu15 Cu7 2.494248 1_555
Cu15 Cu16 2.541541 1_455
Cu15 Cu21 2.541541 1_555
Cu15 Pr2 2.894927 1_455
Cu15 Pr2 2.894927 1_555
Cu15 Pr3 3.000497 1_556
Cu16 Cu7 2.450633 1_655
Cu16 Cu5 2.466708 1_655
Cu16 Cu9 2.481679 1_655
Cu16 Cu21 2.497376 1_555
Cu16 Cu21 2.585856 1_655
Cu16 Cu2 2.715504 1_555
Cu16 Pr0 3.102934 1_555
Cu16 Pr2 3.166336 1_555
Cu16 Pr3 3.264708 1_656
Cu17 Cu6 2.450633 1_555
Cu17 Cu4 2.466708 1_555
Cu17 Cu8 2.481679 1_555
Cu17 Cu20 2.497376 1_555
Cu17 Cu20 2.585856 1_655
Cu17 Cu3 2.715504 1_555
Cu17 Pr1 3.102934 1_555
Cu17 Pr3 3.166336 1_555
Cu17 Pr2 3.264708 1_554
Cu18 Cu5 2.450633 1_545
Cu18 Cu7 2.466708 1_555
Cu18 Cu23 2.497376 1_555
Cu18 Cu23 2.585856 1_455
Cu18 Cu2 2.643825 1_555
Cu18 Pr2 3.102934 1_555
Cu18 Pr0 3.166336 1_545
Cu18 Pr1 3.264708 1_555
Cu19 Cu4 2.450633 1_465
Cu19 Cu6 2.466708 1_455
Cu19 Cu22 2.497376 1_555
Cu19 Cu22 2.585856 1_455
Cu19 Cu3 2.643825 1_555
Cu19 Pr3 3.102934 1_555
Cu19 Pr1 3.166336 1_565
Cu19 Pr0 3.264708 1_455
Cu20 Cu6 2.450633 1_455
Cu20 Cu4 2.466708 1_455
Cu20 Cu8 2.481679 1_455
Cu20 Cu3 2.715504 1_555
Cu20 Pr1 3.102934 1_555
Cu20 Pr3 3.166336 1_555
Cu20 Pr2 3.264708 1_454
Cu21 Cu7 2.450633 1_555
Cu21 Cu5 2.466708 1_555
Cu21 Cu9 2.481679 1_555
Cu21 Pr0 3.102934 1_555
Cu21 Pr2 3.166336 1_555
Cu21 Pr3 3.264708 1_556
Cu22 Cu4 2.450633 1_565
Cu22 Cu6 2.466708 1_555
Cu22 Cu3 2.643825 1_555
Cu22 Pr3 3.102934 1_555
Cu22 Pr1 3.166336 1_565
Cu22 Pr0 3.264708 1_555
Cu23 Cu5 2.450633 1_645
Cu23 Cu7 2.466708 1_655
Cu23 Pr2 3.102934 1_555
Cu23 Pr0 3.166336 1_545
Cu23 Pr1 3.264708 1_655
