# generated using pymatgen
data_MgIrCl6
_symmetry_space_group_name_H-M   'P 1'
_cell_length_a   6.17610898
_cell_length_b   6.17610848
_cell_length_c   6.17312940
_cell_angle_alpha   80.61997347
_cell_angle_beta   80.61997526
_cell_angle_gamma   120.15257784
_symmetry_Int_Tables_number   1
_chemical_formula_structural   MgIrCl6
_chemical_formula_sum   'Mg1 Ir1 Cl6'
_cell_volume   192.43494962
_cell_formula_units_Z   1
loop_
 _symmetry_equiv_pos_site_id
 _symmetry_equiv_pos_as_xyz
  1  'x, y, z'
loop_
 _atom_site_type_symbol
 _atom_site_label
 _atom_site_symmetry_multiplicity
 _atom_site_fract_x
 _atom_site_fract_y
 _atom_site_fract_z
 _atom_site_occupancy
  Mg  Mg0  1  0.16634323  0.83365677  0.00000000  1
  Ir  Ir0  1  0.83354311  0.16645689  1.00000000  1
  Cl  Cl0  1  0.44479233  0.08292197  0.23127751  1
  Cl  Cl1  1  0.91707803  0.55520767  0.76872249  1
  Cl  Cl2  1  0.21241073  0.23258041  0.76812346  1
  Cl  Cl3  1  0.76741959  0.78758927  0.23187654  1
  Cl  Cl4  1  0.06371832  0.40530534  0.22940093  1
  Cl  Cl5  1  0.59469466  0.93628168  0.77059907  1
loop_
_geom_bond_atom_site_label_1
_geom_bond_atom_site_label_2
_geom_bond_distance
_geom_bond_site_symmetry_2
Cl0 Ir0 2.338222 1_554
Cl0 Mg0 2.494578 1_545
Cl1 Ir0 2.338221 1_555
Cl1 Mg0 2.494578 1_656
Cl2 Ir0 2.334231 1_455
Cl2 Mg0 2.492711 1_546
Cl3 Ir0 2.334231 1_564
Cl3 Mg0 2.492711 1_655
Cl4 Ir0 2.330840 1_454
Cl4 Mg0 2.491532 1_555
Cl5 Ir0 2.330840 1_565
Cl5 Mg0 2.491533 1_556
