# generated using pymatgen
data_Hf10BeSn6Sb
_symmetry_space_group_name_H-M   'P 1'
_cell_length_a   8.60571515
_cell_length_b   8.60571381
_cell_length_c   5.81362291
_cell_angle_alpha   90.00000000
_cell_angle_beta   90.00000000
_cell_angle_gamma   120.00000894
_symmetry_Int_Tables_number   1
_chemical_formula_structural   Hf10BeSn6Sb
_chemical_formula_sum   'Hf10 Be1 Sn6 Sb1'
_cell_volume   372.86474061
_cell_formula_units_Z   1
loop_
 _symmetry_equiv_pos_site_id
 _symmetry_equiv_pos_as_xyz
  1  'x, y, z'
loop_
 _atom_site_type_symbol
 _atom_site_label
 _atom_site_symmetry_multiplicity
 _atom_site_fract_x
 _atom_site_fract_y
 _atom_site_fract_z
 _atom_site_occupancy
  Hf  Hf0  1  0.73369171  0.73369171  0.77445897  1
  Hf  Hf1  1  0.26630829  1.00000000  0.77445897  1
  Hf  Hf2  1  1.00000000  0.26630829  0.77445897  1
  Hf  Hf3  1  0.26630829  0.26630829  0.22554103  1
  Hf  Hf4  1  0.73369171  0.00000000  0.22554103  1
  Hf  Hf5  1  0.00000000  0.73369171  0.22554103  1
  Hf  Hf6  1  0.66666700  0.33333300  0.00000000  1
  Hf  Hf7  1  0.33333300  0.66666700  0.00000000  1
  Hf  Hf8  1  0.33333300  0.66666700  0.50000000  1
  Hf  Hf9  1  0.66666700  0.33333300  0.50000000  1
  Be  Be0  1  0.00000000  0.00000000  0.00000000  1
  Sn  Sn0  1  0.39162243  0.39162243  0.74245610  1
  Sn  Sn1  1  0.60837757  1.00000000  0.74245610  1
  Sn  Sn2  1  1.00000000  0.60837757  0.74245610  1
  Sn  Sn3  1  0.60837757  0.60837757  0.25754390  1
  Sn  Sn4  1  0.39162243  0.00000000  0.25754390  1
  Sn  Sn5  1  0.00000000  0.39162243  0.25754390  1
  Sb  Sb0  1  0.00000000  0.00000000  0.50000000  1
loop_
_geom_bond_atom_site_label_1
_geom_bond_atom_site_label_2
_geom_bond_distance
_geom_bond_site_symmetry_2
Hf0 Sb0 2.792519 1_665
Hf0 Sn0 2.949624 1_555
Hf0 Sn1 2.986857 1_555
Hf0 Sn2 2.986857 1_555
Hf0 Sn3 3.008406 1_556
Hf0 Sn3 3.192790 1_555
Hf1 Sb0 2.792520 1_565
Hf1 Sn1 2.949624 1_555
Hf1 Sn2 2.986856 1_455
Hf1 Sn0 2.986856 1_565
Hf1 Sn4 3.008406 1_566
Hf1 Sn4 3.192790 1_565
Hf2 Sb0 2.792520 1_655
Hf2 Sn2 2.949624 1_555
Hf2 Sn1 2.986856 1_545
Hf2 Sn0 2.986857 1_655
Hf2 Sn5 3.008406 1_656
Hf2 Sn5 3.192790 1_655
Hf3 Sb0 2.792519 1_555
Hf3 Sn3 2.949624 1_555
Hf3 Sn4 2.986857 1_555
Hf3 Sn5 2.986857 1_555
Hf3 Sn0 3.008406 1_554
Hf3 Sn0 3.192790 1_555
Hf4 Sb0 2.792520 1_655
Hf4 Sn4 2.949624 1_555
Hf4 Sn5 2.986856 1_655
Hf4 Sn3 2.986856 1_545
Hf4 Sn1 3.008406 1_544
Hf4 Sn1 3.192790 1_545
Hf5 Sb0 2.792520 1_565
Hf5 Sn5 2.949624 1_555
Hf5 Sn4 2.986856 1_565
Hf5 Sn3 2.986857 1_455
Hf5 Sn2 3.008406 1_454
Hf5 Sn2 3.192790 1_455
Hf6 Sn1 3.046829 1_544
Hf6 Sn5 3.046830 1_655
Hf6 Sn4 3.046832 1_555
Hf6 Sn2 3.046832 1_554
Hf6 Sn3 3.046837 1_555
Hf6 Sn0 3.046837 1_554
Hf7 Sn4 3.046829 1_565
Hf7 Sn2 3.046830 1_454
Hf7 Sn1 3.046832 1_554
Hf7 Sn5 3.046832 1_555
Hf7 Sn0 3.046837 1_554
Hf7 Sn3 3.046837 1_555
Hf8 Sn4 3.004696 1_565
Hf8 Sn2 3.004696 1_455
Hf8 Sn1 3.004699 1_555
Hf8 Sn5 3.004699 1_555
Hf8 Sn0 3.004704 1_555
Hf8 Sn3 3.004704 1_555
Hf9 Sn1 3.004696 1_545
Hf9 Sn5 3.004696 1_655
Hf9 Sn4 3.004699 1_555
Hf9 Sn2 3.004699 1_555
Hf9 Sn3 3.004704 1_555
Hf9 Sn0 3.004704 1_555
Be0 Hf3 2.640359 1_555
Be0 Hf0 2.640359 1_444
Be0 Hf2 2.640359 1_454
Be0 Hf5 2.640359 1_545
Be0 Hf1 2.640359 1_544
Be0 Hf4 2.640359 1_455
Be0 Sb0 2.906811 1_555
Be0 Sb0 2.906811 1_554
