# generated using pymatgen
data_Li2Cu3PtO8
_symmetry_space_group_name_H-M   'P 1'
_cell_length_a   5.94917888
_cell_length_b   5.94917902
_cell_length_c   5.94917932
_cell_angle_alpha   58.26560541
_cell_angle_beta   58.26560811
_cell_angle_gamma   58.26560385
_symmetry_Int_Tables_number   1
_chemical_formula_structural   Li2Cu3PtO8
_chemical_formula_sum   'Li2 Cu3 Pt1 O8'
_cell_volume   142.97187799
_cell_formula_units_Z   1
loop_
 _symmetry_equiv_pos_site_id
 _symmetry_equiv_pos_as_xyz
  1  'x, y, z'
loop_
 _atom_site_type_symbol
 _atom_site_label
 _atom_site_symmetry_multiplicity
 _atom_site_fract_x
 _atom_site_fract_y
 _atom_site_fract_z
 _atom_site_occupancy
  Li  Li0  1  0.13055841  0.13055841  0.13055841  1
  Li  Li1  1  0.86944159  0.86944159  0.86944159  1
  Cu  Cu0  1  0.50000000  0.00000000  0.50000000  1
  Cu  Cu1  1  0.00000000  0.50000000  0.50000000  1
  Cu  Cu2  1  0.50000000  0.50000000  0.00000000  1
  Pt  Pt0  1  0.50000000  0.50000000  0.50000000  1
  O  O0  1  0.26673414  0.26673414  0.26673414  1
  O  O1  1  0.26064894  0.26064894  0.71714452  1
  O  O2  1  0.71714452  0.26064894  0.26064894  1
  O  O3  1  0.26064894  0.71714452  0.26064894  1
  O  O4  1  0.73935106  0.28285548  0.73935106  1
  O  O5  1  0.28285548  0.73935106  0.73935106  1
  O  O6  1  0.73935106  0.73935106  0.28285548  1
  O  O7  1  0.73326586  0.73326586  0.73326586  1
loop_
_geom_bond_atom_site_label_1
_geom_bond_atom_site_label_2
_geom_bond_distance
_geom_bond_site_symmetry_2
Li0 O3 1.967814 1_545
Li0 O2 1.967814 1_455
Li0 O1 1.967814 1_554
Li0 O0 2.010029 1_555
Li1 O4 1.967814 1_565
Li1 O5 1.967814 1_655
Li1 O6 1.967814 1_556
Li1 O7 2.010029 1_555
Cu0 O7 1.939716 1_545
Cu0 O0 1.939716 1_555
Cu0 O2 1.987552 1_555
Cu0 O5 1.987552 1_545
Cu0 O1 1.987552 1_555
Cu0 O6 1.987552 1_545
Cu1 O0 1.939716 1_555
Cu1 O7 1.939716 1_455
Cu1 O1 1.987552 1_555
Cu1 O6 1.987552 1_455
Cu1 O3 1.987552 1_555
Cu1 O4 1.987552 1_455
Cu2 O7 1.939716 1_554
Cu2 O0 1.939716 1_555
Cu2 O2 1.987552 1_555
Cu2 O5 1.987552 1_554
Cu2 O3 1.987552 1_555
Cu2 O4 1.987552 1_554
O1 Pt0 1.996713 1_555
O2 Pt0 1.996713 1_555
O3 Pt0 1.996713 1_555
O4 Pt0 1.996713 1_555
O5 Pt0 1.996713 1_555
O6 Pt0 1.996713 1_555
