# generated using pymatgen
data_Hf12Ti3Mn8Nb
_symmetry_space_group_name_H-M   'P 1'
_cell_length_a   8.49248278
_cell_length_b   8.49248256
_cell_length_c   8.47725136
_cell_angle_alpha   59.94054897
_cell_angle_beta   59.94055340
_cell_angle_gamma   60.00000315
_symmetry_Int_Tables_number   1
_chemical_formula_structural   Hf12Ti3Mn8Nb
_chemical_formula_sum   'Hf12 Ti3 Mn8 Nb1'
_cell_volume   431.93518599
_cell_formula_units_Z   1
loop_
 _symmetry_equiv_pos_site_id
 _symmetry_equiv_pos_as_xyz
  1  'x, y, z'
loop_
 _atom_site_type_symbol
 _atom_site_label
 _atom_site_symmetry_multiplicity
 _atom_site_fract_x
 _atom_site_fract_y
 _atom_site_fract_z
 _atom_site_occupancy
  Hf  Hf0  1  0.43260152  0.81710613  0.81768982  1
  Hf  Hf1  1  0.81567288  0.43540680  0.43324745  1
  Hf  Hf2  1  0.81710613  0.43260152  0.81768982  1
  Hf  Hf3  1  0.43540680  0.81567288  0.43324745  1
  Hf  Hf4  1  0.81567288  0.81567288  0.43324745  1
  Hf  Hf5  1  0.43260152  0.43260152  0.81768982  1
  Hf  Hf6  1  0.56739848  0.18289387  0.18231018  1
  Hf  Hf7  1  0.18432712  0.56459320  0.56675255  1
  Hf  Hf8  1  0.18289387  0.56739848  0.18231018  1
  Hf  Hf9  1  0.56459320  0.18432712  0.56675255  1
  Hf  Hf10  1  0.18432712  0.18432712  0.56675255  1
  Hf  Hf11  1  0.56739848  0.56739848  0.18231018  1
  Ti  Ti0  1  0.00000000  0.50000000  0.00000000  1
  Ti  Ti1  1  0.50000000  0.00000000  0.00000000  1
  Ti  Ti2  1  0.00000000  0.00000000  0.00000000  1
  Mn  Mn0  1  0.20854214  0.20854214  0.87437259  1
  Mn  Mn1  1  0.20940719  0.87261423  0.20857039  1
  Mn  Mn2  1  0.87261423  0.20940719  0.20857039  1
  Mn  Mn3  1  0.20940719  0.20940719  0.20857039  1
  Mn  Mn4  1  0.79145786  0.79145786  0.12562741  1
  Mn  Mn5  1  0.79059281  0.12738577  0.79142961  1
  Mn  Mn6  1  0.12738577  0.79059281  0.79142961  1
  Mn  Mn7  1  0.79059281  0.79059281  0.79142961  1
  Nb  Nb0  1  0.00000000  0.00000000  0.50000000  1
loop_
_geom_bond_atom_site_label_1
_geom_bond_atom_site_label_2
_geom_bond_distance
_geom_bond_site_symmetry_2
Hf0 Mn6 2.833873 1_555
Hf0 Mn7 2.833890 1_555
Hf0 Mn1 3.028884 1_556
Hf0 Mn0 3.043209 1_565
Hf0 Ti2 3.051009 1_566
Hf0 Ti1 3.051015 1_566
Hf0 Hf8 3.148367 1_556
Hf0 Hf11 3.148376 1_556
Hf0 Hf10 3.157280 1_565
Hf0 Hf9 3.157285 1_565
Hf0 Hf3 3.253238 1_555
Hf0 Hf4 3.253243 1_555
Hf0 Hf5 3.265399 1_555
Hf0 Hf2 3.265399 1_555
Hf1 Mn4 2.828755 1_555
Hf1 Mn5 2.839018 1_555
Hf1 Ti0 3.053064 1_655
Hf1 Mn3 3.058844 1_655
Hf1 Mn2 3.058848 1_555
Hf1 Nb0 3.073505 1_655
Hf1 Hf11 3.157278 1_555
Hf1 Hf8 3.157285 1_655
Hf1 Hf9 3.175801 1_555
Hf1 Hf10 3.175802 1_655
Hf1 Hf4 3.229403 1_555
Hf1 Hf3 3.229403 1_555
Hf1 Hf2 3.253238 1_555
Hf1 Hf5 3.253243 1_555
Hf2 Mn5 2.833873 1_555
Hf2 Mn7 2.833890 1_555
Hf2 Mn2 3.028883 1_556
Hf2 Mn0 3.043209 1_655
Hf2 Ti2 3.051009 1_656
Hf2 Ti0 3.051015 1_656
Hf2 Hf6 3.148367 1_556
Hf2 Hf7 3.157285 1_655
Hf2 Hf4 3.253243 1_555
Hf2 Hf5 3.265399 1_555
Hf3 Mn4 2.828755 1_555
Hf3 Mn6 2.839018 1_555
Hf3 Ti1 3.053064 1_565
Hf3 Mn3 3.058844 1_565
Hf3 Mn1 3.058848 1_555
Hf3 Nb0 3.073505 1_565
Hf3 Hf6 3.157285 1_565
Hf3 Hf7 3.175801 1_555
Hf3 Hf4 3.229403 1_555
Hf3 Hf5 3.253243 1_555
Hf4 Mn4 2.828750 1_555
Hf4 Mn7 2.839021 1_555
Hf4 Ti2 3.053064 1_665
Hf4 Mn2 3.058841 1_565
Hf4 Mn1 3.058841 1_655
Hf4 Nb0 3.073505 1_665
Hf4 Hf6 3.157280 1_565
Hf4 Hf8 3.157281 1_655
Hf4 Hf7 3.175802 1_655
Hf4 Hf9 3.175802 1_565
Hf5 Mn6 2.833883 1_555
Hf5 Mn5 2.833883 1_555
Hf5 Mn3 3.028884 1_556
Hf5 Mn0 3.043209 1_555
Hf5 Ti1 3.051008 1_556
Hf5 Ti0 3.051008 1_556
Hf5 Hf6 3.148376 1_556
Hf5 Hf8 3.148376 1_556
Hf5 Hf7 3.157278 1_555
Hf5 Hf9 3.157278 1_555
Hf6 Mn2 2.833873 1_555
Hf6 Mn3 2.833890 1_555
Hf6 Mn5 3.028884 1_554
Hf6 Mn4 3.043209 1_545
Hf6 Ti2 3.051009 1_655
Hf6 Ti1 3.051015 1_555
Hf6 Hf9 3.253238 1_555
Hf6 Hf8 3.265399 1_555
Hf7 Mn0 2.828755 1_555
Hf7 Mn1 2.839018 1_555
Hf7 Ti0 3.053064 1_556
Hf7 Mn7 3.058844 1_455
Hf7 Mn6 3.058848 1_555
Hf7 Nb0 3.073505 1_565
Hf7 Hf9 3.229403 1_555
Hf7 Hf8 3.253238 1_555
Hf8 Mn1 2.833873 1_555
Hf8 Mn3 2.833890 1_555
Hf8 Mn6 3.028883 1_554
Hf8 Mn4 3.043209 1_455
Hf8 Ti2 3.051009 1_565
Hf8 Ti0 3.051015 1_555
Hf9 Mn0 2.828755 1_555
Hf9 Mn2 2.839018 1_555
Hf9 Ti1 3.053064 1_556
Hf9 Mn7 3.058844 1_545
Hf9 Mn5 3.058848 1_555
Hf9 Nb0 3.073505 1_655
Hf10 Mn0 2.828750 1_555
Hf10 Mn3 2.839021 1_555
Hf10 Ti2 3.053064 1_556
Hf10 Mn6 3.058841 1_545
Hf10 Mn5 3.058841 1_455
Hf10 Nb0 3.073505 1_555
Hf10 Hf2 3.157281 1_455
Hf10 Hf3 3.175802 1_545
Hf10 Hf7 3.229403 1_555
Hf10 Hf9 3.229403 1_555
Hf10 Hf8 3.253243 1_555
Hf10 Hf6 3.253243 1_555
Hf11 Mn2 2.833883 1_555
Hf11 Mn1 2.833883 1_555
Hf11 Mn7 3.028884 1_554
Hf11 Mn4 3.043209 1_555
Hf11 Ti1 3.051008 1_565
Hf11 Ti0 3.051008 1_655
Hf11 Hf2 3.148376 1_554
Hf11 Hf3 3.157278 1_555
Hf11 Hf9 3.253243 1_555
Hf11 Hf7 3.253243 1_555
Hf11 Hf6 3.265399 1_555
Hf11 Hf8 3.265399 1_555
Mn0 Ti2 2.600946 1_556
Mn0 Ti1 2.600953 1_556
Mn0 Ti0 2.600953 1_556
Mn0 Mn3 2.840457 1_556
Mn0 Mn1 2.840457 1_546
Mn0 Mn2 2.840458 1_456
Mn1 Ti2 2.601750 1_565
Mn1 Ti1 2.601757 1_565
Mn1 Nb0 2.605496 1_565
Mn1 Mn3 2.860208 1_565
Mn1 Mn2 2.860208 1_465
Mn2 Ti2 2.601750 1_655
Mn2 Ti0 2.601757 1_655
Mn2 Nb0 2.605496 1_655
Mn2 Mn3 2.860208 1_655
Mn3 Ti0 2.601752 1_555
Mn3 Ti1 2.601753 1_555
Mn3 Nb0 2.605491 1_555
Mn4 Ti2 2.600946 1_665
Mn4 Ti1 2.600953 1_565
Mn4 Ti0 2.600953 1_655
Mn4 Mn7 2.840457 1_554
Mn4 Mn5 2.840457 1_564
Mn4 Mn6 2.840458 1_654
Mn5 Ti2 2.601750 1_656
Mn5 Ti1 2.601757 1_556
Mn5 Nb0 2.605496 1_655
Mn5 Mn7 2.860208 1_545
Mn5 Mn6 2.860208 1_645
Mn6 Ti2 2.601750 1_566
Mn6 Ti0 2.601757 1_556
Mn6 Nb0 2.605496 1_565
Mn6 Mn7 2.860208 1_455
Mn7 Ti0 2.601752 1_656
Mn7 Ti1 2.601753 1_566
Mn7 Nb0 2.605491 1_665
