# generated using pymatgen
data_Ta3Nb7(Si2Sn)2
_symmetry_space_group_name_H-M   'P 1'
_cell_length_a   7.72201153
_cell_length_b   7.72201123
_cell_length_c   7.71464286
_cell_angle_alpha   128.27613679
_cell_angle_beta   128.27613542
_cell_angle_gamma   76.20797262
_symmetry_Int_Tables_number   1
_chemical_formula_structural   Ta3Nb7(Si2Sn)2
_chemical_formula_sum   'Ta3 Nb7 Si4 Sn2'
_cell_volume   275.50598155
_cell_formula_units_Z   1
loop_
 _symmetry_equiv_pos_site_id
 _symmetry_equiv_pos_as_xyz
  1  'x, y, z'
loop_
 _atom_site_type_symbol
 _atom_site_label
 _atom_site_symmetry_multiplicity
 _atom_site_fract_x
 _atom_site_fract_y
 _atom_site_fract_z
 _atom_site_occupancy
  Ta  Ta0  1  0.80429883  0.30429883  0.82431930  1
  Ta  Ta1  1  0.99979963  0.00043530  0.99985290  1
  Ta  Ta2  1  0.50043530  0.49979963  0.99985290  1
  Nb  Nb0  1  0.02079306  0.19585890  0.50039910  1
  Nb  Nb1  1  0.69585890  0.52079306  0.50039910  1
  Nb  Nb2  1  0.52187560  0.02187560  0.82685506  1
  Nb  Nb3  1  0.19468905  0.69468905  0.17307853  1
  Nb  Nb4  1  0.97864761  0.80447038  0.50000851  1
  Nb  Nb5  1  0.30447038  0.47864761  0.50000851  1
  Nb  Nb6  1  0.47922564  0.97922564  0.17511491  1
  Si  Si0  1  0.36949790  0.13012048  0.49995898  1
  Si  Si1  1  0.63012048  0.86949790  0.49995898  1
  Si  Si2  1  0.87027797  0.37027797  0.23976200  1
  Si  Si3  1  0.12988058  0.62988058  0.75986165  1
  Sn  Sn0  1  0.74996721  0.75015986  0.00028479  1
  Sn  Sn1  1  0.25015986  0.24996721  0.00028479  1
loop_
_geom_bond_atom_site_label_1
_geom_bond_atom_site_label_2
_geom_bond_distance
_geom_bond_site_symmetry_2
Nb0 Si0 2.620268 1_555
Nb0 Si3 2.625784 1_555
Nb0 Si2 2.630850 1_455
Nb0 Sn1 2.842200 1_556
Nb0 Sn0 2.844106 1_445
Nb1 Si1 2.620268 1_555
Nb1 Si3 2.625784 1_655
Nb1 Si2 2.630850 1_555
Nb1 Sn0 2.842200 1_556
Nb1 Sn1 2.844106 1_555
Nb2 Si2 2.615233 1_556
Nb2 Si1 2.628575 1_545
Nb2 Si0 2.628575 1_555
Nb2 Sn0 2.844490 1_546
Nb2 Sn1 2.844490 1_556
Nb3 Si3 2.613340 1_554
Nb3 Si0 2.632320 1_565
Nb3 Si1 2.632320 1_555
Nb3 Sn1 2.844005 1_555
Nb3 Sn0 2.844005 1_455
Nb4 Si1 2.617253 1_555
Nb4 Si2 2.624742 1_555
Nb4 Si3 2.626288 1_655
Nb4 Sn0 2.841220 1_555
Nb4 Sn1 2.844421 1_666
Nb5 Si0 2.617253 1_555
Nb5 Si2 2.624743 1_455
Nb5 Si3 2.626288 1_555
Nb5 Sn1 2.841220 1_555
Nb5 Sn0 2.844421 1_556
Nb6 Si3 2.621791 1_554
Nb6 Si1 2.626454 1_555
Nb6 Si0 2.626454 1_565
Nb6 Sn1 2.844887 1_565
Nb6 Sn0 2.844887 1_555
Si0 Si1 2.483827 1_545
Si0 Ta0 2.630277 1_555
Si0 Ta2 2.636334 1_555
Si0 Ta1 2.639858 1_454
Si1 Ta0 2.630276 1_565
Si1 Ta1 2.636334 1_565
Si1 Ta2 2.639858 1_554
Si2 Si3 2.474361 1_655
Si2 Ta0 2.620849 1_554
Si2 Ta1 2.639134 1_554
Si2 Ta2 2.639134 1_554
Si3 Ta1 2.644766 1_465
Si3 Ta2 2.644767 1_555
Sn0 Ta0 2.845904 1_554
Sn0 Ta2 3.034920 1_554
Sn0 Ta1 3.041475 1_564
Sn1 Ta0 2.845904 1_454
Sn1 Ta1 3.034920 1_454
Sn1 Ta2 3.041475 1_554
