# generated using pymatgen
data_Ba2Tl3P6HO22
_symmetry_space_group_name_H-M   'P 1'
_cell_length_a   5.00824411
_cell_length_b   8.27706009
_cell_length_c   11.61628684
_cell_angle_alpha   88.39587540
_cell_angle_beta   91.52209899
_cell_angle_gamma   87.61286154
_symmetry_Int_Tables_number   1
_chemical_formula_structural   Ba2Tl3P6HO22
_chemical_formula_sum   'Ba2 Tl3 P6 H1 O22'
_cell_volume   480.74436925
_cell_formula_units_Z   1
loop_
 _symmetry_equiv_pos_site_id
 _symmetry_equiv_pos_as_xyz
  1  'x, y, z'
loop_
 _atom_site_type_symbol
 _atom_site_label
 _atom_site_symmetry_multiplicity
 _atom_site_fract_x
 _atom_site_fract_y
 _atom_site_fract_z
 _atom_site_occupancy
  Ba  Ba0  1  0.74935976  0.99664678  0.17303747  1
  Ba  Ba1  1  0.25064024  0.00335322  0.82696253  1
  Tl  Tl0  1  0.00000000  0.00000000  0.50000000  1
  Tl  Tl1  1  0.75363206  0.48937439  0.20976217  1
  Tl  Tl2  1  0.24636794  0.51062561  0.79023783  1
  P  P0  1  0.19623430  0.71182569  0.04698696  1
  P  P1  1  0.80376570  0.28817431  0.95301304  1
  P  P2  1  0.27198867  0.29623195  0.34852868  1
  P  P3  1  0.72801133  0.70376805  0.65147132  1
  P  P4  1  0.50546453  0.77555264  0.41183462  1
  P  P5  1  0.49453547  0.22444736  0.58816538  1
  H  H0  1  0.50000000  0.50000000  0.00000000  1
  O  O0  1  0.94542010  0.69324656  0.11806422  1
  O  O1  1  0.05457990  0.30675344  0.88193578  1
  O  O2  1  0.40355524  0.56982397  0.07833110  1
  O  O3  1  0.59644476  0.43017603  0.92166890  1
  O  O4  1  0.29817255  0.88017804  0.06732801  1
  O  O5  1  0.70182745  0.11982196  0.93267199  1
  O  O6  1  0.13094646  0.69999385  0.91664868  1
  O  O7  1  0.86905354  0.30000615  0.08335132  1
  O  O8  1  0.12072441  0.14097091  0.33840884  1
  O  O9  1  0.87927559  0.85902909  0.66159116  1
  O  O10  1  0.10874319  0.44897653  0.31817279  1
  O  O11  1  0.89125681  0.55102347  0.68182721  1
  O  O12  1  0.64676647  0.67947628  0.51883903  1
  O  O13  1  0.35323353  0.32052372  0.48116097  1
  O  O14  1  0.52884619  0.28156851  0.28042481  1
  O  O15  1  0.47115381  0.71843149  0.71957519  1
  O  O16  1  0.63213966  0.94067733  0.40113104  1
  O  O17  1  0.36786034  0.05932267  0.59886896  1
  O  O18  1  0.20776273  0.78934226  0.43084640  1
  O  O19  1  0.79223727  0.21065774  0.56915360  1
  O  O20  1  0.56650257  0.68529528  0.30438827  1
  O  O21  1  0.43349743  0.31470472  0.69561173  1
loop_
_geom_bond_atom_site_label_1
_geom_bond_atom_site_label_2
_geom_bond_distance
_geom_bond_site_symmetry_2
Ba0 O0 2.756097 1_555
Ba0 O16 2.759748 1_555
Ba0 O4 2.764701 1_555
Ba0 O7 2.785961 1_565
Ba0 O14 2.891083 1_565
Ba0 O5 2.945730 1_564
Ba0 O8 2.949608 1_665
Ba0 O20 3.139868 1_555
Ba0 O4 3.164931 1_655
Ba1 O1 2.756097 1_555
Ba1 O17 2.759748 1_555
Ba1 O5 2.764701 1_555
Ba1 O6 2.785961 1_545
Ba1 O15 2.891083 1_545
Ba1 O4 2.945730 1_546
Ba1 O9 2.949608 1_445
Ba1 O21 3.139868 1_555
Ba1 O5 3.164931 1_455
H0 O2 1.193651 1_555
H0 O3 1.193651 1_554
O0 P0 1.532096 1_655
O0 Tl1 2.234614 1_555
O1 P1 1.532096 1_455
O1 Tl2 2.234614 1_555
O2 P0 1.564105 1_555
O2 Tl1 2.356252 1_555
O3 P1 1.564105 1_555
O3 Tl2 2.356252 1_555
O4 P0 1.526270 1_555
O5 P1 1.526270 1_555
O6 P0 1.547098 1_556
O6 Tl2 2.246260 1_555
O7 P1 1.547098 1_554
O7 Tl1 2.246260 1_555
O8 P2 1.524484 1_555
O8 Tl0 2.290621 1_555
O9 P3 1.524484 1_555
O9 Tl0 2.290621 1_665
O10 P2 1.504919 1_555
O10 Tl1 2.160699 1_455
O11 P3 1.504919 1_555
O11 Tl2 2.160699 1_655
O12 P4 1.590370 1_555
O12 P3 1.603304 1_555
O13 P5 1.590370 1_555
O13 P2 1.603304 1_555
O14 P2 1.530315 1_555
O14 Tl1 2.242986 1_555
O15 P3 1.530315 1_555
O15 Tl2 2.242986 1_555
O16 P4 1.533901 1_555
O16 Tl0 2.224600 1_665
O17 P5 1.533901 1_555
O17 Tl0 2.224600 1_555
O18 P4 1.513109 1_555
O18 Tl0 2.177136 1_565
O19 P5 1.513109 1_555
O19 Tl0 2.177136 1_655
O20 P4 1.504270 1_555
O20 Tl1 2.178128 1_555
O21 P5 1.504270 1_555
O21 Tl2 2.178128 1_555
