# generated using pymatgen
data_Nb2RuBr12
_symmetry_space_group_name_H-M   'P 1'
_cell_length_a   8.99652706
_cell_length_b   8.99652649
_cell_length_c   6.74750503
_cell_angle_alpha   69.16749684
_cell_angle_beta   69.16750002
_cell_angle_gamma   80.29682650
_symmetry_Int_Tables_number   1
_chemical_formula_structural   Nb2RuBr12
_chemical_formula_sum   'Nb2 Ru1 Br12'
_cell_volume   476.49982058
_cell_formula_units_Z   1
loop_
 _symmetry_equiv_pos_site_id
 _symmetry_equiv_pos_as_xyz
  1  'x, y, z'
loop_
 _atom_site_type_symbol
 _atom_site_label
 _atom_site_symmetry_multiplicity
 _atom_site_fract_x
 _atom_site_fract_y
 _atom_site_fract_z
 _atom_site_occupancy
  Nb  Nb0  1  0.25904223  0.25904223  0.74133000  1
  Nb  Nb1  1  0.74095777  0.74095777  0.25867000  1
  Ru  Ru0  1  0.00000000  0.00000000  0.00000000  1
  Br  Br0  1  0.96523321  0.27056398  0.72975396  1
  Br  Br1  1  0.27056398  0.96523321  0.72975396  1
  Br  Br2  1  0.03476679  0.72943602  0.27024604  1
  Br  Br3  1  0.72943602  0.03476679  0.27024604  1
  Br  Br4  1  0.21126912  0.52362507  0.78736074  1
  Br  Br5  1  0.52362507  0.21126912  0.78736074  1
  Br  Br6  1  0.78873088  0.47637493  0.21263926  1
  Br  Br7  1  0.47637493  0.78873088  0.21263926  1
  Br  Br8  1  0.12555454  0.12555454  0.17678593  1
  Br  Br9  1  0.87444546  0.87444546  0.82321407  1
  Br  Br10  1  0.63978634  0.63978634  0.67106539  1
  Br  Br11  1  0.36021366  0.36021366  0.32893461  1
loop_
_geom_bond_atom_site_label_1
_geom_bond_atom_site_label_2
_geom_bond_distance
_geom_bond_site_symmetry_2
Br0 Ru0 2.517919 1_656
Br0 Nb0 2.655637 1_655
Br1 Ru0 2.517919 1_566
Br1 Nb0 2.655637 1_565
Br2 Ru0 2.517919 1_565
Br2 Nb1 2.655637 1_455
Br3 Ru0 2.517919 1_655
Br3 Nb1 2.655637 1_545
Br4 Nb0 2.456256 1_555
Br5 Nb0 2.456256 1_555
Br6 Nb1 2.456256 1_555
Br7 Nb1 2.456256 1_555
Br8 Ru0 2.514269 1_555
Br8 Nb0 2.642772 1_554
Br9 Ru0 2.514269 1_666
Br9 Nb1 2.642772 1_556
Br10 Nb1 2.465016 1_555
Br11 Nb0 2.465016 1_555
