# generated using pymatgen
data_Rb4Zr6SiI18
_symmetry_space_group_name_H-M   'P 1'
_cell_length_a   11.52383884
_cell_length_b   11.52383904
_cell_length_c   11.21325356
_cell_angle_alpha   77.39808797
_cell_angle_beta   77.39808373
_cell_angle_gamma   117.68204436
_symmetry_Int_Tables_number   1
_chemical_formula_structural   Rb4Zr6SiI18
_chemical_formula_sum   'Rb4 Zr6 Si1 I18'
_cell_volume   1195.69957766
_cell_formula_units_Z   1
loop_
 _symmetry_equiv_pos_site_id
 _symmetry_equiv_pos_as_xyz
  1  'x, y, z'
loop_
 _atom_site_type_symbol
 _atom_site_label
 _atom_site_symmetry_multiplicity
 _atom_site_fract_x
 _atom_site_fract_y
 _atom_site_fract_z
 _atom_site_occupancy
  Rb  Rb0  1  0.76674553  0.44187393  0.68100382  1
  Rb  Rb1  1  0.55812607  0.23325447  0.31899618  1
  Rb  Rb2  1  0.23325447  0.55812607  0.31899618  1
  Rb  Rb3  1  0.44187393  0.76674553  0.68100382  1
  Zr  Zr0  1  0.12380063  0.12380063  0.13912437  1
  Zr  Zr1  1  0.87619937  0.87619937  0.86087563  1
  Zr  Zr2  1  0.94896224  0.76609959  0.14814557  1
  Zr  Zr3  1  0.23390041  0.05103776  0.85185443  1
  Zr  Zr4  1  0.05103776  0.23390041  0.85185443  1
  Zr  Zr5  1  0.76609959  0.94896224  0.14814557  1
  Si  Si0  1  0.00000000  0.00000000  0.00000000  1
  I  I0  1  0.80222032  0.59237486  0.01023545  1
  I  I1  1  0.40762614  0.19777968  0.98976455  1
  I  I2  1  0.19777968  0.40762614  0.98976455  1
  I  I3  1  0.59237386  0.80222032  0.01023545  1
  I  I4  1  0.20815362  0.79184638  0.00000000  1
  I  I5  1  0.79184638  0.20815362  1.00000000  1
  I  I6  1  0.32578280  0.32578280  0.66672796  1
  I  I7  1  0.67421720  0.67421720  0.33327204  1
  I  I8  1  0.88989335  0.48548811  0.32905952  1
  I  I9  1  0.51451189  0.11010665  0.67094048  1
  I  I10  1  0.11010665  0.51451189  0.67094048  1
  I  I11  1  0.48548811  0.88989335  0.32905952  1
  I  I12  1  0.26968669  0.26968669  0.30527232  1
  I  I13  1  0.73031331  0.73031331  0.69472768  1
  I  I14  1  0.08148298  0.87456095  0.32380406  1
  I  I15  1  0.12543905  0.91851702  0.67619594  1
  I  I16  1  0.91851702  0.12543905  0.67619594  1
  I  I17  1  0.87456095  0.08148298  0.32380406  1
loop_
_geom_bond_atom_site_label_1
_geom_bond_atom_site_label_2
_geom_bond_distance
_geom_bond_site_symmetry_2
Si0 Zr3 2.552981 1_554
Si0 Zr5 2.552981 1_445
Si0 Zr4 2.552981 1_554
Si0 Zr2 2.552981 1_445
Si0 Zr0 2.560398 1_555
Si0 Zr1 2.560398 1_444
I0 Zr2 2.933498 1_555
I0 Zr1 2.936919 1_554
I0 Rb1 3.963375 1_555
I1 Zr3 2.933505 1_555
I1 Zr0 2.936929 1_556
I1 Rb0 3.963369 1_555
I2 Zr4 2.933505 1_555
I2 Zr0 2.936929 1_556
I2 Rb3 3.963369 1_555
I3 Zr5 2.933505 1_555
I3 Zr1 2.936929 1_554
I3 Rb2 3.963369 1_555
I4 Zr2 2.926686 1_455
I4 Zr3 2.926686 1_564
I4 Rb3 4.135716 1_554
I4 Rb2 4.135716 1_555
I5 Zr4 2.926686 1_655
I5 Zr5 2.926686 1_546
I5 Rb1 4.135716 1_556
I5 Rb0 4.135716 1_555
I6 Zr4 2.917679 1_555
I6 Zr3 2.917680 1_555
I7 Zr2 2.917679 1_555
I7 Zr5 2.917680 1_555
I8 Zr2 3.086330 1_555
I8 Rb2 3.613382 1_655
I8 Rb1 3.617281 1_555
I8 Rb0 3.724102 1_555
I9 Zr3 3.086330 1_555
I9 Rb3 3.613382 1_545
I9 Rb0 3.617281 1_555
I9 Rb1 3.724102 1_555
I10 Zr4 3.086330 1_555
I10 Rb0 3.613382 1_455
I10 Rb3 3.617281 1_555
I10 Rb2 3.724102 1_555
I11 Zr5 3.086330 1_555
I11 Rb1 3.613382 1_565
I11 Rb2 3.617281 1_555
I11 Rb3 3.724102 1_555
I12 Zr0 3.038260 1_555
I12 Rb1 3.569324 1_555
I12 Rb2 3.569324 1_555
I13 Zr1 3.038260 1_555
I13 Rb3 3.569324 1_555
I13 Rb0 3.569324 1_555
I14 Zr2 2.896112 1_455
I14 Zr0 2.904885 1_565
I15 Zr3 2.896112 1_565
I15 Zr1 2.904885 1_455
I16 Zr4 2.896112 1_655
I16 Zr1 2.904885 1_545
I17 Zr5 2.896112 1_545
I17 Zr0 2.904885 1_655
