# generated using pymatgen
data_Al2FeO4
_symmetry_space_group_name_H-M   'P 1'
_cell_length_a   5.82512951
_cell_length_b   5.82512951
_cell_length_c   14.31696400
_cell_angle_alpha   90.00000000
_cell_angle_beta   90.00000000
_cell_angle_gamma   119.99999449
_symmetry_Int_Tables_number   1
_chemical_formula_structural   Al2FeO4
_chemical_formula_sum   'Al12 Fe6 O24'
_cell_volume   420.71961500
_cell_formula_units_Z   6
loop_
 _symmetry_equiv_pos_site_id
 _symmetry_equiv_pos_as_xyz
  1  'x, y, z'
loop_
 _atom_site_type_symbol
 _atom_site_label
 _atom_site_symmetry_multiplicity
 _atom_site_fract_x
 _atom_site_fract_y
 _atom_site_fract_z
 _atom_site_occupancy
  Al  Al0  1  0.83001400  0.16998600  0.16832400  1
  Al  Al1  1  0.66195300  0.83097700  0.49866600  1
  Al  Al2  1  0.33997300  0.16998600  0.16832400  1
  Al  Al3  1  0.00000000  0.00000000  0.33346900  1
  Al  Al4  1  0.83001400  0.66002700  0.16832400  1
  Al  Al5  1  0.16902300  0.83097700  0.49866600  1
  Al  Al6  1  0.49711800  0.99423700  0.83149400  1
  Al  Al7  1  0.33333300  0.66666700  0.66460100  1
  Al  Al8  1  0.16902300  0.33804700  0.49866600  1
  Al  Al9  1  0.49711800  0.50288200  0.83149400  1
  Al  Al10  1  0.00576300  0.50288200  0.83149400  1
  Al  Al11  1  0.00000000  0.00000000  0.95531200  1
  Fe  Fe0  1  0.33333300  0.66666700  0.04327400  1
  Fe  Fe1  1  0.66666700  0.33333300  0.00223700  1
  Fe  Fe2  1  0.66666700  0.33333300  0.37660500  1
  Fe  Fe3  1  0.00000000  0.00000000  0.70786700  1
  Fe  Fe4  1  0.33333300  0.66666700  0.28764300  1
  Fe  Fe5  1  0.66666700  0.33333300  0.62568900  1
  O  O0  1  0.51065800  0.48934200  0.10088900  1
  O  O1  1  0.66666700  0.33333300  0.23828500  1
  O  O2  1  0.97868300  0.48934200  0.10088900  1
  O  O3  1  0.51065800  0.02131700  0.10088900  1
  O  O4  1  0.85422000  0.14578000  0.42295500  1
  O  O5  1  0.14272800  0.28545700  0.24529000  1
  O  O6  1  0.71454300  0.85727200  0.24529000  1
  O  O7  1  0.00000000  0.00000000  0.56800200  1
  O  O8  1  0.29156000  0.14578000  0.42295500  1
  O  O9  1  0.00000000  0.00000000  0.08400800  1
  O  O10  1  0.85422000  0.70844000  0.42295500  1
  O  O11  1  0.14272800  0.85727200  0.24529000  1
  O  O12  1  0.18798900  0.81201100  0.75337000  1
  O  O13  1  0.47769400  0.95538800  0.57730800  1
  O  O14  1  0.04461200  0.52230600  0.57730800  1
  O  O15  1  0.33333300  0.66666700  0.90119500  1
  O  O16  1  0.62402200  0.81201100  0.75337000  1
  O  O17  1  0.33333300  0.66666700  0.43119300  1
  O  O18  1  0.18798900  0.37597800  0.75337000  1
  O  O19  1  0.47769400  0.52230600  0.57730800  1
  O  O20  1  0.83243300  0.66486700  0.90587200  1
  O  O21  1  0.33513300  0.16756700  0.90587200  1
  O  O22  1  0.66666700  0.33333300  0.77040600  1
  O  O23  1  0.83243300  0.16756700  0.90587200  1
loop_
_geom_bond_atom_site_label_1
_geom_bond_atom_site_label_2
_geom_bond_distance
_geom_bond_site_symmetry_2
Al0 O2 1.879293 1_555
Al0 O3 1.879293 1_555
Al0 O1 1.928579 1_555
Al0 O6 1.938974 1_545
Al0 O5 1.938974 1_655
Al0 O9 2.097294 1_655
Al1 O17 1.918710 1_555
Al1 O13 1.929452 1_555
Al1 O19 1.929456 1_555
Al1 O4 1.933450 1_565
Al1 O10 1.933454 1_555
Al1 O7 1.973229 1_665
Al2 O3 1.879284 1_555
Al2 O0 1.879293 1_555
Al2 O1 1.928579 1_555
Al2 O11 1.938975 1_545
Al2 O5 1.938982 1_555
Al2 O9 2.097298 1_555
Al3 O11 1.915076 1_545
Al3 O6 1.915080 1_445
Al3 O5 1.915080 1_555
Al3 O4 1.950576 1_455
Al3 O8 1.950577 1_555
Al3 O10 1.950577 1_445
Al4 O2 1.879284 1_555
Al4 O0 1.879293 1_555
Al4 O1 1.928579 1_555
Al4 O11 1.938975 1_655
Al4 O6 1.938982 1_555
Al4 O9 2.097298 1_665
Al5 O17 1.918710 1_555
Al5 O14 1.929457 1_555
Al5 O13 1.929457 1_555
Al5 O10 1.933449 1_455
Al5 O8 1.933449 1_565
Al5 O7 1.973224 1_565
Al6 O22 1.921252 1_565
Al6 O12 1.925860 1_555
Al6 O16 1.925864 1_555
Al6 O15 1.930430 1_555
Al6 O21 1.999108 1_565
Al6 O23 1.999108 1_565
Al7 O14 1.919208 1_555
Al7 O13 1.919208 1_555
Al7 O19 1.919212 1_555
Al7 O12 1.940523 1_555
Al7 O18 1.940527 1_555
Al7 O16 1.940527 1_555
Al8 O17 1.918710 1_555
Al8 O14 1.929452 1_555
Al8 O19 1.929456 1_555
Al8 O4 1.933450 1_455
Al8 O8 1.933454 1_555
Al8 O7 1.973229 1_555
Al9 O22 1.921261 1_555
Al9 O18 1.925860 1_555
Al9 O16 1.925860 1_555
Al9 O15 1.930430 1_555
Al9 O20 1.999108 1_555
Al9 O21 1.999108 1_555
Al10 O22 1.921252 1_455
Al10 O12 1.925860 1_555
Al10 O18 1.925864 1_555
Al10 O15 1.930430 1_555
Al10 O20 1.999108 1_455
Al10 O23 1.999108 1_455
Al11 O21 1.832844 1_555
Al11 O20 1.832844 1_445
Al11 O23 1.832849 1_455
Al11 O9 1.842536 1_556
Fe0 O0 1.970105 1_555
Fe0 O2 1.970106 1_455
Fe0 O3 1.970106 1_565
Fe0 O15 2.034140 1_554
Fe1 O3 2.114814 1_555
Fe1 O2 2.114814 1_555
Fe1 O0 2.114821 1_555
Fe1 O23 2.168097 1_554
Fe1 O20 2.168105 1_554
Fe1 O21 2.168105 1_554
Fe2 O1 1.980322 1_555
Fe2 O4 2.005282 1_555
Fe2 O10 2.005287 1_555
Fe2 O8 2.005287 1_555
Fe3 O7 2.002442 1_555
Fe3 O12 2.005462 1_545
Fe3 O18 2.005462 1_555
Fe3 O16 2.005462 1_445
Fe4 O11 2.016425 1_555
Fe4 O6 2.016425 1_555
Fe4 O5 2.016425 1_555
Fe4 O17 2.055200 1_555
Fe5 O13 2.028547 1_545
Fe5 O14 2.028547 1_655
Fe5 O19 2.028551 1_555
Fe5 O22 2.071908 1_555
