# generated using pymatgen
data_Y(SiPt)2
_symmetry_space_group_name_H-M   'P 1'
_cell_length_a   5.78133631
_cell_length_b   5.78133631
_cell_length_c   5.78133631
_cell_angle_alpha   137.54829731
_cell_angle_beta   137.54829731
_cell_angle_gamma   61.59551119
_symmetry_Int_Tables_number   1
_chemical_formula_structural   Y(SiPt)2
_chemical_formula_sum   'Y1 Si2 Pt2'
_cell_volume   87.02685405
_cell_formula_units_Z   1
loop_
 _symmetry_equiv_pos_site_id
 _symmetry_equiv_pos_as_xyz
  1  'x, y, z'
loop_
 _atom_site_type_symbol
 _atom_site_label
 _atom_site_symmetry_multiplicity
 _atom_site_fract_x
 _atom_site_fract_y
 _atom_site_fract_z
 _atom_site_occupancy
  Y  Y0  1  0.00000000  0.00000000  0.00000000  1
  Si  Si0  1  0.61738400  0.61738400  0.00000000  1
  Si  Si1  1  0.38261600  0.38261600  0.00000000  1
  Pt  Pt0  1  0.75000000  0.25000000  0.50000000  1
  Pt  Pt1  1  0.25000000  0.75000000  0.50000000  1
loop_
_geom_bond_atom_site_label_1
_geom_bond_atom_site_label_2
_geom_bond_distance
_geom_bond_site_symmetry_2
Si0 Si1 2.331740 1_555
Si0 Y0 3.181420 1_565
Si0 Y0 3.181420 1_655
Si0 Y0 3.181420 1_666
Si0 Y0 3.181420 1_554
Si1 Y0 3.181420 1_554
Si1 Y0 3.181420 1_565
Si1 Y0 3.181420 1_655
Si1 Y0 3.181420 1_666
Pt0 Si1 2.473052 1_555
Pt0 Si1 2.473052 1_656
Pt0 Si0 2.473052 1_545
Pt0 Si0 2.473052 1_556
Pt0 Y0 3.247539 1_655
Pt0 Y0 3.247539 1_666
Pt0 Y0 3.247539 1_555
Pt0 Y0 3.247539 1_656
Pt1 Si1 2.473052 1_566
Pt1 Si1 2.473052 1_555
Pt1 Si0 2.473052 1_556
Pt1 Si0 2.473052 1_455
Pt1 Y0 3.247539 1_666
Pt1 Y0 3.247539 1_555
Pt1 Y0 3.247539 1_565
Pt1 Y0 3.247539 1_566
