# generated using pymatgen
data_Ba3AlS4Br
_symmetry_space_group_name_H-M   'P 1'
_cell_length_a   8.57040795
_cell_length_b   9.68733338
_cell_length_c   12.48123737
_cell_angle_alpha   90.00000000
_cell_angle_beta   90.00000000
_cell_angle_gamma   90.00000000
_symmetry_Int_Tables_number   1
_chemical_formula_structural   Ba3AlS4Br
_chemical_formula_sum   'Ba12 Al4 S16 Br4'
_cell_volume   1036.24723165
_cell_formula_units_Z   4
loop_
 _symmetry_equiv_pos_site_id
 _symmetry_equiv_pos_as_xyz
  1  'x, y, z'
loop_
 _atom_site_type_symbol
 _atom_site_label
 _atom_site_symmetry_multiplicity
 _atom_site_fract_x
 _atom_site_fract_y
 _atom_site_fract_z
 _atom_site_occupancy
  Ba  Ba0  1  0.91464280  0.75000000  0.47321875  1
  Ba  Ba1  1  0.58535720  0.75000000  0.97321875  1
  Ba  Ba2  1  0.08535720  0.25000000  0.52678125  1
  Ba  Ba3  1  0.41464280  0.25000000  0.02678125  1
  Ba  Ba4  1  0.59023795  0.47831350  0.66362533  1
  Ba  Ba5  1  0.90976205  0.02168650  0.16362533  1
  Ba  Ba6  1  0.40976205  0.97831350  0.33637467  1
  Ba  Ba7  1  0.09023795  0.52168650  0.83637467  1
  Ba  Ba8  1  0.40976205  0.52168650  0.33637467  1
  Ba  Ba9  1  0.09023795  0.97831350  0.83637467  1
  Ba  Ba10  1  0.59023795  0.02168650  0.66362533  1
  Ba  Ba11  1  0.90976205  0.47831350  0.16362533  1
  Al  Al0  1  0.31081729  0.75000000  0.60548041  1
  Al  Al1  1  0.18918271  0.75000000  0.10548041  1
  Al  Al2  1  0.68918271  0.25000000  0.39451959  1
  Al  Al3  1  0.81081729  0.25000000  0.89451959  1
  S  S0  1  0.81086242  0.44719056  0.42869945  1
  S  S1  1  0.68913758  0.05280944  0.92869945  1
  S  S2  1  0.18913758  0.94719056  0.57130055  1
  S  S3  1  0.31086242  0.55280944  0.07130055  1
  S  S4  1  0.18913758  0.55280944  0.57130055  1
  S  S5  1  0.31086242  0.94719056  0.07130055  1
  S  S6  1  0.81086242  0.05280944  0.42869945  1
  S  S7  1  0.68913758  0.44719056  0.92869945  1
  S  S8  1  0.13770274  0.75000000  0.28153182  1
  S  S9  1  0.36229726  0.75000000  0.78153182  1
  S  S10  1  0.86229726  0.25000000  0.71846818  1
  S  S11  1  0.63770274  0.25000000  0.21846818  1
  S  S12  1  0.53267578  0.75000000  0.50951871  1
  S  S13  1  0.96732422  0.75000000  0.00951871  1
  S  S14  1  0.46732422  0.25000000  0.49048129  1
  S  S15  1  0.03267578  0.25000000  0.99048129  1
  Br  Br0  1  0.66894988  0.75000000  0.23217501  1
  Br  Br1  1  0.83105012  0.75000000  0.73217501  1
  Br  Br2  1  0.33105012  0.25000000  0.76782499  1
  Br  Br3  1  0.16894988  0.25000000  0.26782499  1
loop_
_geom_bond_atom_site_label_1
_geom_bond_atom_site_label_2
_geom_bond_distance
_geom_bond_site_symmetry_2
Ba0 S8 3.062460 1_655
Ba0 S6 3.115251 1_565
Ba0 S0 3.115251 1_555
Ba0 S2 3.268346 1_655
Ba0 S4 3.268346 1_655
Ba0 S12 3.304817 1_555
Ba0 Br1 3.310543 1_555
Ba0 Br0 3.672212 1_555
Ba1 S9 3.062460 1_555
Ba1 S1 3.115251 1_565
Ba1 S7 3.115251 1_555
Ba1 S5 3.268346 1_556
Ba1 S3 3.268346 1_556
Ba1 S13 3.304817 1_556
Ba1 Br0 3.310543 1_556
Ba1 Br1 3.672212 1_555
Ba2 S10 3.062460 1_455
Ba2 S4 3.115251 1_555
Ba2 S2 3.115251 1_545
Ba2 S0 3.268346 1_455
Ba2 S6 3.268346 1_455
Ba2 S14 3.304817 1_555
Ba2 Br3 3.310543 1_555
Ba2 Br2 3.672212 1_555
Ba3 S11 3.062460 1_555
Ba3 S3 3.115251 1_555
Ba3 S5 3.115251 1_545
Ba3 S7 3.268346 1_554
Ba3 S1 3.268346 1_554
Ba3 S15 3.304817 1_554
Ba3 Br2 3.310543 1_554
Ba3 Br3 3.672212 1_555
Ba4 S14 3.266753 1_555
Ba4 S10 3.285882 1_555
Ba4 S12 3.296967 1_555
Ba4 Br2 3.393761 1_555
Ba4 S7 3.428587 1_555
Ba4 Br1 3.452322 1_555
Ba4 S0 3.501968 1_555
Ba4 S9 3.592908 1_555
Ba4 S4 3.696717 1_555
Ba5 S15 3.266753 1_654
Ba5 S11 3.285882 1_555
Ba5 S13 3.296967 1_545
Ba5 Br3 3.393761 1_655
Ba5 S6 3.428587 1_555
Ba5 Br0 3.452322 1_545
Ba5 S1 3.501968 1_554
Ba5 S8 3.592908 1_645
Ba5 S5 3.696717 1_645
Ba6 S12 3.266753 1_555
Ba6 S8 3.285882 1_555
Ba6 S14 3.296967 1_565
Ba6 Br0 3.393761 1_555
Ba6 S5 3.428587 1_555
Ba6 Br3 3.452322 1_565
Ba6 S2 3.501968 1_555
Ba6 S11 3.592908 1_565
Ba6 S6 3.696717 1_565
Ba7 S13 3.266753 1_456
Ba7 S9 3.285882 1_555
Ba7 S15 3.296967 1_555
Ba7 Br1 3.393761 1_455
Ba7 S4 3.428587 1_555
Ba7 Br2 3.452322 1_555
Ba7 S3 3.501968 1_556
Ba7 S10 3.592908 1_455
Ba7 S7 3.696717 1_455
Ba8 S12 3.266753 1_555
Ba8 S8 3.285882 1_555
Ba8 S14 3.296967 1_555
Ba8 Br0 3.393761 1_555
Ba8 S3 3.428587 1_555
Ba8 Br3 3.452322 1_555
Ba8 S4 3.501968 1_555
Ba8 S11 3.592908 1_555
Ba8 S0 3.696717 1_555
Ba9 S13 3.266753 1_456
Ba9 S9 3.285882 1_555
Ba9 S15 3.296967 1_565
Ba9 Br1 3.393761 1_455
Ba9 S2 3.428587 1_555
Ba9 Br2 3.452322 1_565
Ba9 S5 3.501968 1_556
Ba9 S10 3.592908 1_465
Ba9 S1 3.696717 1_465
Ba10 S14 3.266753 1_555
Ba10 S10 3.285882 1_555
Ba10 S12 3.296967 1_545
Ba10 Br2 3.393761 1_555
Ba10 S1 3.428587 1_555
Ba10 Br1 3.452322 1_545
Ba10 S6 3.501968 1_555
Ba10 S9 3.592908 1_545
Ba10 S2 3.696717 1_545
Ba11 S15 3.266753 1_654
Ba11 S11 3.285882 1_555
Ba11 S13 3.296967 1_555
Ba11 Br3 3.393761 1_655
Ba11 S0 3.428587 1_555
Ba11 Br0 3.452322 1_555
Ba11 S7 3.501968 1_554
Ba11 S8 3.592908 1_655
Ba11 S3 3.696717 1_655
Al0 S2 2.217786 1_555
Al0 S4 2.217786 1_555
Al0 S9 2.241197 1_555
Al0 S12 2.247204 1_555
Al1 S5 2.217786 1_555
Al1 S3 2.217786 1_555
Al1 S8 2.241197 1_555
Al1 S13 2.247204 1_455
Al2 S0 2.217786 1_555
Al2 S6 2.217786 1_555
Al2 S11 2.241197 1_555
Al2 S14 2.247204 1_555
Al3 S7 2.217786 1_555
Al3 S1 2.217786 1_555
Al3 S10 2.241197 1_555
Al3 S15 2.247204 1_655
