# generated using pymatgen
data_Hf7Zr3(Sn3As)2
_symmetry_space_group_name_H-M   'P 1'
_cell_length_a   8.60152246
_cell_length_b   8.60152936
_cell_length_c   5.87628122
_cell_angle_alpha   90.00000000
_cell_angle_beta   90.00000000
_cell_angle_gamma   120.00007534
_symmetry_Int_Tables_number   1
_chemical_formula_structural   Hf7Zr3(Sn3As)2
_chemical_formula_sum   'Hf7 Zr3 Sn6 As2'
_cell_volume   376.51638240
_cell_formula_units_Z   1
loop_
 _symmetry_equiv_pos_site_id
 _symmetry_equiv_pos_as_xyz
  1  'x, y, z'
loop_
 _atom_site_type_symbol
 _atom_site_label
 _atom_site_symmetry_multiplicity
 _atom_site_fract_x
 _atom_site_fract_y
 _atom_site_fract_z
 _atom_site_occupancy
  Hf  Hf0  1  0.66665768  0.33332514  0.99917372  1
  Hf  Hf1  1  0.33332906  0.66665691  0.99917013  1
  Hf  Hf2  1  0.33332906  0.66665691  0.50082987  1
  Hf  Hf3  1  0.66665768  0.33332514  0.50082628  1
  Hf  Hf4  1  0.73499552  0.73498114  0.75000000  1
  Hf  Hf5  1  0.26502649  0.00003137  0.75000000  1
  Hf  Hf6  1  0.99999053  0.26500305  0.75000000  1
  Zr  Zr0  1  0.25960687  0.25958438  0.25000000  1
  Zr  Zr1  1  0.74042850  0.00004239  0.25000000  1
  Zr  Zr2  1  0.99998061  0.74039641  0.25000000  1
  Sn  Sn0  1  0.39483318  0.39479237  0.75000000  1
  Sn  Sn1  1  0.60520088  0.00005049  0.75000000  1
  Sn  Sn2  1  0.99995609  0.60514503  0.75000000  1
  Sn  Sn3  1  0.60279172  0.60275334  0.25000000  1
  Sn  Sn4  1  0.39723738  0.00005048  0.25000000  1
  Sn  Sn5  1  0.99996205  0.39718365  0.25000000  1
  As  As0  1  0.00000835  0.00001090  0.99339075  1
  As  As1  1  0.00000835  0.00001090  0.50660925  1
loop_
_geom_bond_atom_site_label_1
_geom_bond_atom_site_label_2
_geom_bond_distance
_geom_bond_site_symmetry_2
Hf0 Sn4 3.019505 1_556
Hf0 Sn3 3.019623 1_556
Hf0 Sn5 3.019714 1_556
Hf0 Sn1 3.020891 1_555
Hf0 Sn0 3.020990 1_555
Hf0 Sn2 3.021008 1_555
Hf1 Sn3 3.020069 1_556
Hf1 Sn5 3.020097 1_456
Hf1 Sn4 3.020260 1_566
Hf1 Sn0 3.021456 1_555
Hf1 Sn2 3.021466 1_455
Hf1 Sn1 3.021592 1_565
Hf2 Sn3 3.020069 1_555
Hf2 Sn5 3.020097 1_455
Hf2 Sn4 3.020260 1_565
Hf2 Sn0 3.021456 1_555
Hf2 Sn2 3.021466 1_455
Hf2 Sn1 3.021592 1_565
Hf3 Sn4 3.019505 1_555
Hf3 Sn3 3.019623 1_555
Hf3 Sn5 3.019714 1_555
Hf3 Sn1 3.020891 1_555
Hf3 Sn0 3.020990 1_555
Hf3 Sn2 3.021008 1_555
Hf4 Sn0 2.926026 1_555
Hf4 Sn2 2.997764 1_555
Hf4 Sn1 2.998383 1_565
Hf4 Sn3 3.150559 1_556
Hf4 Sn3 3.150559 1_555
Hf5 Sn1 2.925935 1_555
Hf5 Sn0 2.997523 1_555
Hf5 Sn2 2.998526 1_445
Hf5 Sn4 3.150514 1_556
Hf5 Sn4 3.150514 1_555
Hf6 Sn2 2.925889 1_555
Hf6 Sn1 2.997701 1_555
Hf6 Sn0 2.998214 1_655
Hf6 Sn5 3.150495 1_556
Hf6 Sn5 3.150495 1_555
Sn0 Zr0 3.159970 1_555
Sn0 Zr0 3.159970 1_556
Sn1 Zr1 3.160016 1_555
Sn1 Zr1 3.160016 1_556
Sn2 Zr2 3.160040 1_555
Sn2 Zr2 3.160040 1_556
Sn3 Zr0 2.951842 1_555
Sn3 Zr2 3.004804 1_555
Sn3 Zr1 3.005626 1_565
Sn4 Zr1 2.952001 1_555
Sn4 Zr0 3.004629 1_555
Sn4 Zr2 3.005412 1_445
Sn5 Zr2 2.952075 1_555
Sn5 Zr1 3.004473 1_555
Sn5 Zr0 3.005319 1_655
As0 Hf6 2.690965 1_455
As0 Hf5 2.691014 1_555
As0 Hf4 2.691110 1_445
As0 Zr0 2.694315 1_556
As0 Zr1 2.694384 1_456
As0 Zr2 2.694422 1_446
As1 Hf6 2.690965 1_455
As1 Hf5 2.691014 1_555
As1 Hf4 2.691110 1_445
As1 Zr0 2.694315 1_555
As1 Zr1 2.694384 1_455
As1 Zr2 2.694422 1_445
