# generated using pymatgen
data_Sr4LiCdSi6
_symmetry_space_group_name_H-M   'P 1'
_cell_length_a   11.88067718
_cell_length_b   10.24726644
_cell_length_c   8.50322036
_cell_angle_alpha   78.02417737
_cell_angle_beta   57.53749901
_cell_angle_gamma   44.43832025
_symmetry_Int_Tables_number   1
_chemical_formula_structural   Sr4LiCdSi6
_chemical_formula_sum   'Sr8 Li2 Cd2 Si12'
_cell_volume   583.85639661
_cell_formula_units_Z   2
loop_
 _symmetry_equiv_pos_site_id
 _symmetry_equiv_pos_as_xyz
  1  'x, y, z'
loop_
 _atom_site_type_symbol
 _atom_site_label
 _atom_site_symmetry_multiplicity
 _atom_site_fract_x
 _atom_site_fract_y
 _atom_site_fract_z
 _atom_site_occupancy
  Sr  Sr0  1  0.12728315  0.12066236  0.87456966  1
  Sr  Sr1  1  0.87457066  0.87748484  0.12728215  1
  Sr  Sr2  1  0.12933864  0.12271785  0.37251516  1
  Sr  Sr3  1  0.37251616  0.37543034  0.12933764  1
  Sr  Sr4  1  0.62205062  0.62418438  0.37686540  1
  Sr  Sr5  1  0.37686540  0.37689960  0.62205062  1
  Sr  Sr6  1  0.62581662  0.62794938  0.87310040  1
  Sr  Sr7  1  0.87310140  0.87313560  0.62581562  1
  Li  Li0  1  0.16699900  0.83300100  0.16699900  1
  Li  Li1  1  0.41699900  0.08300100  0.41699900  1
  Cd  Cd0  1  0.08273301  0.41726699  0.08273301  1
  Cd  Cd1  1  0.83273301  0.16726699  0.83273301  1
  Si  Si0  1  0.91097784  0.59568615  0.43107791  1
  Si  Si1  1  0.07442141  0.41900546  0.58944485  1
  Si  Si2  1  0.43107791  0.06225810  0.91097784  1
  Si  Si3  1  0.58944485  0.91712729  0.07442141  1
  Si  Si4  1  0.33287271  0.66055515  0.83099454  1
  Si  Si5  1  0.65431385  0.33902216  0.18774190  1
  Si  Si6  1  0.83099454  0.17557859  0.33287271  1
  Si  Si7  1  0.18774190  0.81892209  0.65431385  1
  Si  Si8  1  0.90794883  0.59205217  0.90794783  1
  Si  Si9  1  0.58562733  0.91437367  0.58562633  1
  Si  Si10  1  0.33562733  0.66437367  0.33562733  1
  Si  Si11  1  0.65794783  0.34205217  0.65794783  1
loop_
_geom_bond_atom_site_label_1
_geom_bond_atom_site_label_2
_geom_bond_distance
_geom_bond_site_symmetry_2
Li0 Si10 2.483464 1_555
Li0 Si4 2.499484 1_554
Li0 Si6 2.499487 1_465
Li0 Sr1 3.365469 1_455
Li0 Sr0 3.365475 1_564
Li0 Sr3 3.388893 1_555
Li0 Sr2 3.388915 1_565
Li0 Sr7 3.402003 1_455
Li0 Sr6 3.402020 1_554
Li1 Si9 2.483457 1_545
Li1 Si1 2.499487 1_555
Li1 Si3 2.499491 1_545
Li1 Sr2 3.365457 1_555
Li1 Sr3 3.365476 1_555
Li1 Sr0 3.388897 1_555
Li1 Sr1 3.388906 1_545
Li1 Sr4 3.402010 1_545
Li1 Sr5 3.402011 1_555
Cd0 Si8 2.574131 1_454
Cd0 Si2 2.590702 1_554
Cd0 Si0 2.590702 1_455
Cd0 Sr2 3.388235 1_555
Cd0 Sr3 3.388254 1_555
Cd0 Sr0 3.403058 1_554
Cd0 Sr1 3.403061 1_455
Cd0 Sr4 3.411886 1_455
Cd0 Sr5 3.411886 1_554
Cd1 Si11 2.574139 1_555
Cd1 Si7 2.590702 1_645
Cd1 Si5 2.590702 1_556
Cd1 Sr1 3.388236 1_546
Cd1 Sr0 3.388242 1_655
Cd1 Sr3 3.403048 1_556
Cd1 Sr2 3.403065 1_655
Cd1 Sr7 3.411868 1_545
Cd1 Sr6 3.411890 1_555
Si0 Si9 2.373795 1_555
Si0 Si1 2.374212 1_655
Si0 Sr7 3.217852 1_555
Si0 Sr6 3.310726 1_555
Si0 Sr3 3.372207 1_655
Si0 Sr1 3.393965 1_555
Si0 Sr2 3.482497 1_655
Si0 Sr4 3.506025 1_555
Si1 Si8 2.371847 1_455
Si1 Sr6 3.294758 1_455
Si1 Sr2 3.354071 1_555
Si1 Sr7 3.373578 1_455
Si1 Sr0 3.381677 1_555
Si1 Sr3 3.411934 1_555
Si1 Sr5 3.461253 1_555
Si2 Si9 2.373796 1_545
Si2 Si3 2.374211 1_546
Si2 Sr6 3.217830 1_545
Si2 Sr7 3.310743 1_545
Si2 Sr2 3.372191 1_556
Si2 Sr0 3.393959 1_555
Si2 Sr3 3.482519 1_556
Si2 Sr5 3.506025 1_555
Si3 Si8 2.371842 1_554
Si3 Sr7 3.294778 1_554
Si3 Sr3 3.354101 1_565
Si3 Sr6 3.373547 1_554
Si3 Sr1 3.381690 1_555
Si3 Sr2 3.411913 1_565
Si3 Sr4 3.461246 1_555
Si4 Si7 2.374219 1_555
Si4 Sr5 3.294776 1_555
Si4 Sr1 3.354089 1_456
Si4 Sr4 3.373562 1_555
Si4 Sr3 3.381677 1_556
Si4 Sr0 3.411926 1_565
Si4 Sr6 3.461253 1_555
Si5 Si6 2.374219 1_555
Si5 Sr5 3.217834 1_555
Si5 Sr4 3.310730 1_555
Si5 Sr1 3.372194 1_545
Si5 Sr3 3.393947 1_555
Si5 Sr0 3.482510 1_654
Si5 Sr6 3.506026 1_554
Si6 Sr4 3.294767 1_555
Si6 Sr0 3.354094 1_654
Si6 Sr5 3.373565 1_555
Si6 Sr2 3.381690 1_655
Si6 Sr1 3.411931 1_545
Si6 Sr7 3.461240 1_545
Si7 Sr4 3.217834 1_555
Si7 Sr5 3.310730 1_555
Si7 Sr0 3.372198 1_565
Si7 Sr2 3.393966 1_565
Si7 Sr1 3.482501 1_456
Si7 Sr7 3.506007 1_455
Si8 Sr6 3.273950 1_555
Si8 Sr7 3.273957 1_555
Si8 Sr5 3.457326 1_655
Si8 Sr4 3.457339 1_556
Si8 Sr1 3.464722 1_556
Si8 Sr0 3.464731 1_655
Si9 Sr6 3.330496 1_555
Si9 Sr7 3.330502 1_555
Si9 Sr1 3.393069 1_555
Si9 Sr0 3.393072 1_565
Si9 Sr5 3.421888 1_565
Si9 Sr4 3.421901 1_555
Si10 Si7 2.373788 1_555
Si10 Si5 2.373796 1_555
Si10 Sr4 3.330479 1_555
Si10 Sr5 3.330492 1_555
Si10 Sr3 3.393069 1_555
Si10 Sr2 3.393072 1_565
Si10 Sr7 3.421888 1_455
Si10 Sr6 3.421897 1_554
Si11 Si6 2.371836 1_555
Si11 Si4 2.371839 1_555
Si11 Sr4 3.273950 1_555
Si11 Sr5 3.273950 1_555
Si11 Sr7 3.457323 1_545
Si11 Sr6 3.457345 1_555
Si11 Sr3 3.464724 1_556
Si11 Sr2 3.464740 1_655
