# generated using pymatgen
data_Sr14RhAu5
_symmetry_space_group_name_H-M   'P 1'
_cell_length_a   11.04568047
_cell_length_b   11.04568013
_cell_length_c   7.20593991
_cell_angle_alpha   90.12093970
_cell_angle_beta   89.87906165
_cell_angle_gamma   120.63586027
_symmetry_Int_Tables_number   1
_chemical_formula_structural   Sr14RhAu5
_chemical_formula_sum   'Sr14 Rh1 Au5'
_cell_volume   756.46081228
_cell_formula_units_Z   1
loop_
 _symmetry_equiv_pos_site_id
 _symmetry_equiv_pos_as_xyz
  1  'x, y, z'
loop_
 _atom_site_type_symbol
 _atom_site_label
 _atom_site_symmetry_multiplicity
 _atom_site_fract_x
 _atom_site_fract_y
 _atom_site_fract_z
 _atom_site_occupancy
  Sr  Sr0  1  0.33202520  0.66797480  0.03977021  1
  Sr  Sr1  1  0.66985149  0.33014851  0.53525309  1
  Sr  Sr2  1  0.12633425  0.87366575  0.24732217  1
  Sr  Sr3  1  0.25271645  0.12396354  0.74569617  1
  Sr  Sr4  1  0.87603646  0.74728355  0.74569617  1
  Sr  Sr5  1  0.11113268  0.24674226  0.24352132  1
  Sr  Sr6  1  0.75325774  0.88886732  0.24352132  1
  Sr  Sr7  1  0.87461570  0.12538430  0.73014771  1
  Sr  Sr8  1  0.53718499  0.46281501  0.06032777  1
  Sr  Sr9  1  0.08135026  0.53167299  0.57308356  1
  Sr  Sr10  1  0.46832701  0.91864974  0.57308356  1
  Sr  Sr11  1  0.55256564  0.09225459  0.08411900  1
  Sr  Sr12  1  0.90774541  0.44743436  0.08411900  1
  Sr  Sr13  1  0.46135833  0.53864167  0.55819369  1
  Rh  Rh0  1  0.80846654  0.19153346  0.34692667  1
  Au  Au0  1  0.62386703  0.80180724  0.83532252  1
  Au  Au1  1  0.19819276  0.37613297  0.83532252  1
  Au  Au2  1  0.80350152  0.62734468  0.33068701  1
  Au  Au3  1  0.37265532  0.19649848  0.33068701  1
  Au  Au4  1  0.18881623  0.81118377  0.82919954  1
loop_
_geom_bond_atom_site_label_1
_geom_bond_atom_site_label_2
_geom_bond_distance
_geom_bond_site_symmetry_2
Rh0 Sr1 2.983586 1_555
Rh0 Sr7 3.042133 1_555
Rh0 Sr12 3.103768 1_555
Rh0 Sr11 3.103768 1_555
Rh0 Sr6 3.165027 1_545
Rh0 Sr5 3.165027 1_655
Au0 Sr0 3.143208 1_556
Au0 Sr6 3.197599 1_556
Au0 Sr4 3.199778 1_555
Au0 Sr13 3.214428 1_555
Au0 Sr10 3.236051 1_555
Au0 Sr7 3.306606 1_565
Au0 Sr8 3.732477 1_556
Au1 Sr0 3.143208 1_556
Au1 Sr5 3.197599 1_556
Au1 Sr3 3.199778 1_555
Au1 Sr13 3.214428 1_555
Au1 Sr9 3.236051 1_555
Au1 Sr7 3.306606 1_455
Au1 Sr8 3.732477 1_556
Au2 Sr1 3.193877 1_555
Au2 Sr4 3.201863 1_555
Au2 Sr8 3.211279 1_555
Au2 Sr2 3.254094 1_655
Au2 Sr6 3.269570 1_555
Au2 Sr12 3.277233 1_555
Au2 Sr13 3.759903 1_555
Au3 Sr1 3.193877 1_555
Au3 Sr3 3.201863 1_555
Au3 Sr8 3.211279 1_555
Au3 Sr2 3.254094 1_545
Au3 Sr5 3.269570 1_555
Au3 Sr11 3.277233 1_555
Au3 Sr13 3.759902 1_555
Au4 Sr0 3.142809 1_556
Au4 Sr3 3.212178 1_565
Au4 Sr4 3.212178 1_455
Au4 Sr2 3.240136 1_556
Au4 Sr9 3.255338 1_555
Au4 Sr10 3.255338 1_555
