# generated using pymatgen
data_Sr3PdPtO6
_symmetry_space_group_name_H-M   'P 1'
_cell_length_a   6.82896434
_cell_length_b   6.82896489
_cell_length_c   6.76316101
_cell_angle_alpha   89.97528371
_cell_angle_beta   89.97528344
_cell_angle_gamma   92.12242934
_symmetry_Int_Tables_number   1
_chemical_formula_structural   Sr3PdPtO6
_chemical_formula_sum   'Sr6 Pd2 Pt2 O12'
_cell_volume   315.18194232
_cell_formula_units_Z   2
loop_
 _symmetry_equiv_pos_site_id
 _symmetry_equiv_pos_as_xyz
  1  'x, y, z'
loop_
 _atom_site_type_symbol
 _atom_site_label
 _atom_site_symmetry_multiplicity
 _atom_site_fract_x
 _atom_site_fract_y
 _atom_site_fract_z
 _atom_site_occupancy
  Sr  Sr0  1  0.09496220  0.90503780  0.75000000  1
  Sr  Sr1  1  0.90503780  0.09496220  0.25000000  1
  Sr  Sr2  1  0.75868766  0.60971750  0.12509391  1
  Sr  Sr3  1  0.39028250  0.24131234  0.37490609  1
  Sr  Sr4  1  0.24131234  0.39028250  0.87490609  1
  Sr  Sr5  1  0.60971750  0.75868766  0.62509391  1
  Pd  Pd0  1  0.68389761  0.31610239  0.75000000  1
  Pd  Pd1  1  0.31610239  0.68389761  0.25000000  1
  Pt  Pt0  1  0.00000000  0.50000000  0.50000000  1
  Pt  Pt1  1  0.50000000  0.00000000  0.00000000  1
  O  O0  1  0.27633526  0.61412456  0.54271495  1
  O  O1  1  0.38587544  0.72366474  0.95728505  1
  O  O2  1  0.72366474  0.38587544  0.45728505  1
  O  O3  1  0.61412456  0.27633526  0.04271495  1
  O  O4  1  0.08402101  0.22218419  0.56695719  1
  O  O5  1  0.77781581  0.91597899  0.93304281  1
  O  O6  1  0.91597899  0.77781581  0.43304281  1
  O  O7  1  0.22218419  0.08402101  0.06695719  1
  O  O8  1  0.10087680  0.46881384  0.21782093  1
  O  O9  1  0.53118616  0.89912320  0.28217907  1
  O  O10  1  0.46881384  0.10087680  0.71782093  1
  O  O11  1  0.89912320  0.53118616  0.78217907  1
loop_
_geom_bond_atom_site_label_1
_geom_bond_atom_site_label_2
_geom_bond_distance
_geom_bond_site_symmetry_2
O0 Pt0 2.035599 1_555
O0 Pd1 2.051596 1_555
O0 Sr5 2.510629 1_555
O0 Sr4 2.722285 1_555
O0 Sr0 2.762123 1_555
O0 Sr3 2.919543 1_555
O1 Pt1 2.035599 1_566
O1 Pd1 2.051596 1_556
O1 Sr4 2.510629 1_555
O1 Sr5 2.722285 1_555
O1 Sr0 2.762123 1_555
O1 Sr2 2.919543 1_556
O2 Pt0 2.035599 1_655
O2 Pd0 2.051596 1_555
O2 Sr3 2.510629 1_555
O2 Sr2 2.722285 1_555
O2 Sr1 2.762123 1_555
O2 Sr5 2.919543 1_555
O3 Pt1 2.035599 1_555
O3 Pd0 2.051596 1_554
O3 Sr2 2.510629 1_555
O3 Sr3 2.722285 1_555
O3 Sr1 2.762123 1_555
O3 Sr4 2.919543 1_554
O4 Pt0 2.052741 1_555
O4 Sr3 2.460806 1_555
O4 Sr0 2.497691 1_545
O4 Sr4 2.592656 1_555
O4 Sr1 2.601753 1_455
O5 Pt1 2.052741 1_566
O5 Sr2 2.460806 1_556
O5 Sr0 2.497691 1_655
O5 Sr5 2.592656 1_555
O5 Sr1 2.601753 1_566
O6 Pt0 2.052741 1_655
O6 Sr5 2.460806 1_555
O6 Sr1 2.497691 1_565
O6 Sr2 2.592656 1_555
O6 Sr0 2.601753 1_655
O7 Pt1 2.052741 1_555
O7 Sr4 2.460806 1_554
O7 Sr1 2.497691 1_455
O7 Sr3 2.592656 1_555
O7 Sr0 2.601753 1_544
O8 Pt0 2.042566 1_555
O8 Pd1 2.050757 1_555
O8 Sr4 2.573563 1_554
O8 Sr2 2.635732 1_455
O8 Sr3 2.770576 1_555
O8 Sr1 2.846089 1_455
O9 Pt1 2.042566 1_565
O9 Pd1 2.050757 1_555
O9 Sr5 2.573563 1_555
O9 Sr3 2.635732 1_565
O9 Sr2 2.770576 1_555
O9 Sr1 2.846089 1_565
O10 Pt1 2.042566 1_556
O10 Pd0 2.050757 1_555
O10 Sr3 2.573563 1_555
O10 Sr5 2.635732 1_545
O10 Sr4 2.770576 1_555
O10 Sr0 2.846089 1_545
O11 Pt0 2.042566 1_655
O11 Pd0 2.050757 1_555
O11 Sr2 2.573563 1_556
O11 Sr4 2.635732 1_655
O11 Sr5 2.770576 1_555
O11 Sr0 2.846089 1_655
