# generated using pymatgen
data_ScTa(NiH3)2
_symmetry_space_group_name_H-M   'P 1'
_cell_length_a   5.37761267
_cell_length_b   5.37761261
_cell_length_c   4.22997649
_cell_angle_alpha   90.00000000
_cell_angle_beta   90.00000000
_cell_angle_gamma   142.96572462
_symmetry_Int_Tables_number   1
_chemical_formula_structural   ScTa(NiH3)2
_chemical_formula_sum   'Sc1 Ta1 Ni2 H6'
_cell_volume   73.67575003
_cell_formula_units_Z   1
loop_
 _symmetry_equiv_pos_site_id
 _symmetry_equiv_pos_as_xyz
  1  'x, y, z'
loop_
 _atom_site_type_symbol
 _atom_site_label
 _atom_site_symmetry_multiplicity
 _atom_site_fract_x
 _atom_site_fract_y
 _atom_site_fract_z
 _atom_site_occupancy
  Sc  Sc0  1  0.13841414  0.86158586  0.25000000  1
  Ta  Ta0  1  0.86199903  0.13800097  0.75000000  1
  Ni  Ni0  1  0.56795966  0.43204034  0.75000000  1
  Ni  Ni1  1  0.42656533  0.57343467  0.25000000  1
  H  H0  1  0.06081203  0.93918797  0.75000000  1
  H  H1  1  0.92033264  0.07966736  0.25000000  1
  H  H2  1  0.69589045  0.30410955  0.51261927  1
  H  H3  1  0.31606764  0.68393236  0.52326789  1
  H  H4  1  0.69589045  0.30410955  0.98738073  1
  H  H5  1  0.31606764  0.68393236  0.97673211  1
loop_
_geom_bond_atom_site_label_1
_geom_bond_atom_site_label_2
_geom_bond_distance
_geom_bond_site_symmetry_2
H0 Ni0 1.709422 1_455
H0 Ni0 1.709422 1_565
H0 Ta0 2.027577 1_465
H0 Sc0 2.258211 1_555
H0 Sc0 2.258211 1_556
H1 Ni1 1.709049 1_545
H1 Ni1 1.709049 1_655
H1 Ta0 2.197065 1_555
H1 Ta0 2.197065 1_554
H1 Sc0 2.224085 1_645
H2 Ni0 1.646349 1_555
H2 Ta0 1.969272 1_555
H2 Sc0 2.120010 1_655
H2 Sc0 2.120010 1_545
H3 Ni1 1.614326 1_555
H3 Ta0 2.013964 1_455
H3 Ta0 2.013964 1_565
H3 Sc0 2.149117 1_555
H4 Ni0 1.646349 1_555
H4 Ta0 1.969272 1_555
H4 Sc0 2.120010 1_656
H4 Sc0 2.120010 1_546
H5 Ni1 1.614326 1_556
H5 Ta0 2.013964 1_455
H5 Ta0 2.013964 1_565
H5 Sc0 2.149117 1_556
