# generated using pymatgen
data_Nb6Al4Co2C
_symmetry_space_group_name_H-M   'P 1'
_cell_length_a   8.12047487
_cell_length_b   8.12047511
_cell_length_c   8.12047600
_cell_angle_alpha   60.00000440
_cell_angle_beta   60.00000342
_cell_angle_gamma   60.00000558
_symmetry_Int_Tables_number   1
_chemical_formula_structural   Nb6Al4Co2C
_chemical_formula_sum   'Nb12 Al8 Co4 C2'
_cell_volume   378.64253536
_cell_formula_units_Z   2
loop_
 _symmetry_equiv_pos_site_id
 _symmetry_equiv_pos_as_xyz
  1  'x, y, z'
loop_
 _atom_site_type_symbol
 _atom_site_label
 _atom_site_symmetry_multiplicity
 _atom_site_fract_x
 _atom_site_fract_y
 _atom_site_fract_z
 _atom_site_occupancy
  Nb  Nb0  1  0.05481858  0.05481858  0.44518142  1
  Nb  Nb1  1  0.44518142  0.05481858  0.44518142  1
  Nb  Nb2  1  0.05481858  0.44518142  0.44518142  1
  Nb  Nb3  1  0.44518142  0.44518142  0.05481858  1
  Nb  Nb4  1  0.05481858  0.44518142  0.05481858  1
  Nb  Nb5  1  0.44518142  0.05481858  0.05481858  1
  Nb  Nb6  1  0.19518142  0.19518142  0.80481858  1
  Nb  Nb7  1  0.80481858  0.19518142  0.80481858  1
  Nb  Nb8  1  0.19518142  0.80481858  0.80481858  1
  Nb  Nb9  1  0.80481858  0.80481858  0.19518142  1
  Nb  Nb10  1  0.19518142  0.80481858  0.19518142  1
  Nb  Nb11  1  0.80481858  0.19518142  0.19518142  1
  Al  Al0  1  0.41791140  0.41791140  0.74626681  1
  Al  Al1  1  0.41791140  0.74626681  0.41791140  1
  Al  Al2  1  0.74626681  0.41791140  0.41791140  1
  Al  Al3  1  0.41791140  0.41791140  0.41791140  1
  Al  Al4  1  0.83208860  0.83208860  0.50373319  1
  Al  Al5  1  0.83208860  0.50373319  0.83208860  1
  Al  Al6  1  0.50373319  0.83208860  0.83208860  1
  Al  Al7  1  0.83208860  0.83208860  0.83208860  1
  Co  Co0  1  0.62500000  0.62500000  0.12500000  1
  Co  Co1  1  0.62500000  0.12500000  0.62500000  1
  Co  Co2  1  0.12500000  0.62500000  0.62500000  1
  Co  Co3  1  0.62500000  0.62500000  0.62500000  1
  C  C0  1  0.25000000  0.25000000  0.25000000  1
  C  C1  1  0.00000000  0.00000000  0.00000000  1
loop_
_geom_bond_atom_site_label_1
_geom_bond_atom_site_label_2
_geom_bond_distance
_geom_bond_site_symmetry_2
Al0 Co3 2.478232 1_555
Al0 Co2 2.478239 1_555
Al0 Co1 2.478239 1_555
Al1 Co3 2.478232 1_555
Al1 Co2 2.478239 1_555
Al1 Co0 2.478239 1_555
Al2 Co3 2.478232 1_555
Al2 Co1 2.478239 1_555
Al2 Co0 2.478239 1_555
Al3 Co0 2.478235 1_555
Al3 Co2 2.478235 1_555
Al3 Co1 2.478235 1_555
Al4 Co3 2.478232 1_555
Al4 Co2 2.478239 1_655
Al4 Co1 2.478239 1_565
Al5 Co3 2.478232 1_555
Al5 Co2 2.478239 1_655
Al5 Co0 2.478239 1_556
Al6 Co3 2.478232 1_555
Al6 Co1 2.478239 1_565
Al6 Co0 2.478239 1_556
Al7 Co0 2.478235 1_556
Al7 Co2 2.478235 1_655
Al7 Co1 2.478235 1_565
Co0 Nb9 2.895828 1_555
Co0 Nb3 2.895828 1_555
Co0 Nb4 2.895828 1_655
Co0 Nb10 2.895828 1_555
Co0 Nb5 2.895829 1_565
Co0 Nb11 2.895829 1_555
Co1 Nb7 2.895828 1_555
Co1 Nb1 2.895828 1_555
Co1 Nb0 2.895828 1_655
Co1 Nb6 2.895828 1_555
Co1 Nb5 2.895829 1_556
Co1 Nb11 2.895829 1_555
Co2 Nb8 2.895828 1_555
Co2 Nb2 2.895828 1_555
Co2 Nb0 2.895829 1_565
Co2 Nb6 2.895829 1_555
Co2 Nb4 2.895829 1_556
Co2 Nb10 2.895829 1_555
Co3 Nb2 2.895829 1_655
Co3 Nb8 2.895829 1_555
Co3 Nb1 2.895829 1_565
Co3 Nb7 2.895829 1_555
Co3 Nb3 2.895829 1_556
Co3 Nb9 2.895829 1_555
C0 Nb3 2.241480 1_555
C0 Nb0 2.241480 1_555
C0 Nb1 2.241480 1_555
C0 Nb4 2.241480 1_555
C0 Nb2 2.241480 1_555
C0 Nb5 2.241480 1_555
C1 Nb6 2.241480 1_554
C1 Nb9 2.241480 1_445
C1 Nb10 2.241480 1_545
C1 Nb7 2.241480 1_454
C1 Nb11 2.241480 1_455
C1 Nb8 2.241480 1_544
