# generated using pymatgen
data_Sc12Co4SnP
_symmetry_space_group_name_H-M   'P 1'
_cell_length_a   7.71854278
_cell_length_b   7.71854211
_cell_length_c   7.71854062
_cell_angle_alpha   105.11450927
_cell_angle_beta   111.78123423
_cell_angle_gamma   111.60387671
_symmetry_Int_Tables_number   1
_chemical_formula_structural   Sc12Co4SnP
_chemical_formula_sum   'Sc12 Co4 Sn1 P1'
_cell_volume   352.46353626
_cell_formula_units_Z   1
loop_
 _symmetry_equiv_pos_site_id
 _symmetry_equiv_pos_as_xyz
  1  'x, y, z'
loop_
 _atom_site_type_symbol
 _atom_site_label
 _atom_site_symmetry_multiplicity
 _atom_site_fract_x
 _atom_site_fract_y
 _atom_site_fract_z
 _atom_site_occupancy
  Sc  Sc0  1  0.45798135  0.27494524  0.17633865  1
  Sc  Sc1  1  0.09860758  0.27494524  0.81696389  1
  Sc  Sc2  1  0.90139242  0.71835730  0.17633865  1
  Sc  Sc3  1  0.54201865  0.71835730  0.81696389  1
  Sc  Sc4  1  0.30696909  0.64022724  0.33325715  1
  Sc  Sc5  1  0.30898138  0.98392971  0.67494733  1
  Sc  Sc6  1  0.69101862  0.36596495  0.67494733  1
  Sc  Sc7  1  0.69303091  0.02628706  0.33325715  1
  Sc  Sc8  1  0.19427402  0.22132998  0.41560299  1
  Sc  Sc9  1  0.80503118  0.78083428  0.58586646  1
  Sc  Sc10  1  0.19496882  0.78083428  0.97580210  1
  Sc  Sc11  1  0.80572598  0.22132998  0.02705796  1
  Co  Co0  1  0.50000000  0.37583454  0.87583454  1
  Co  Co1  1  0.34266916  0.99871545  0.34138461  1
  Co  Co2  1  0.65733084  0.99871545  0.65604629  1
  Co  Co3  1  0.00000000  0.99860454  0.99860454  1
  Sn  Sn0  1  0.00000000  0.50104148  0.50104148  1
  P  P0  1  0.50000000  0.61974699  0.11974699  1
loop_
_geom_bond_atom_site_label_1
_geom_bond_atom_site_label_2
_geom_bond_distance
_geom_bond_site_symmetry_2
Sc0 Sn0 3.375026 1_655
Sc1 Sn0 3.375027 1_555
Sc2 Sn0 3.375027 1_655
Sc3 Sn0 3.375026 1_555
Sc4 Sn0 3.094103 1_555
Sc5 Sn0 3.138638 1_555
Sc6 Sn0 3.138634 1_655
Sc7 Sn0 3.094108 1_655
Sc8 Sn0 3.117671 1_555
Sc9 Sn0 3.121562 1_655
Sc10 Sn0 3.121553 1_555
Sc11 Sn0 3.117656 1_655
Co0 P0 2.289181 1_556
Co0 Sc5 2.510279 1_545
Co0 Sc6 2.510287 1_555
Co0 Sc1 2.721329 1_555
Co0 Sc2 2.721333 1_556
Co0 Sc0 2.721336 1_556
Co0 Sc3 2.721337 1_555
Co0 Sc11 3.017801 1_556
Co0 Sc8 3.017803 1_555
Co1 Sc10 2.411710 1_554
Co1 Sc8 2.452628 1_565
Co1 Sc4 2.659208 1_555
Co1 Sc7 2.659218 1_565
Co1 Sc6 2.708778 1_565
Co1 Sc5 2.708780 1_555
Co1 Sc0 2.796668 1_565
Co1 Sc2 2.796675 1_455
Co2 Sc9 2.411703 1_555
Co2 Sc11 2.452641 1_566
Co2 Sc4 2.659212 1_555
Co2 Sc7 2.659213 1_565
Co2 Sc6 2.708775 1_565
Co2 Sc5 2.708785 1_555
Co2 Sc3 2.796668 1_555
Co2 Sc1 2.796675 1_665
Co3 Sc9 2.650631 1_455
Co3 Sc10 2.650639 1_555
Co3 Sc8 2.682879 1_566
Co3 Sc11 2.682888 1_466
Co3 Sc3 2.872334 1_455
Co3 Sc0 2.872334 1_566
Co3 Sc2 2.872335 1_456
Co3 Sc1 2.872335 1_565
P0 Sc7 2.611596 1_565
P0 Sc4 2.611604 1_555
P0 Sc2 2.730311 1_555
P0 Sc1 2.730314 1_554
P0 Sc3 2.730318 1_554
P0 Sc0 2.730318 1_555
P0 Sc10 3.042746 1_554
P0 Sc9 3.042750 1_555
