# generated using pymatgen
data_Li7Hg(PPd3)4
_symmetry_space_group_name_H-M   'P 1'
_cell_length_a   7.14955947
_cell_length_b   7.14956310
_cell_length_c   7.14955872
_cell_angle_alpha   89.73624510
_cell_angle_beta   89.73623700
_cell_angle_gamma   89.73620203
_symmetry_Int_Tables_number   1
_chemical_formula_structural   Li7Hg(PPd3)4
_chemical_formula_sum   'Li7 Hg1 P4 Pd12'
_cell_volume   365.44688048
_cell_formula_units_Z   1
loop_
 _symmetry_equiv_pos_site_id
 _symmetry_equiv_pos_as_xyz
  1  'x, y, z'
loop_
 _atom_site_type_symbol
 _atom_site_label
 _atom_site_symmetry_multiplicity
 _atom_site_fract_x
 _atom_site_fract_y
 _atom_site_fract_z
 _atom_site_occupancy
  Li  Li0  1  0.04205087  0.45989523  0.54961694  1
  Li  Li1  1  0.54961694  0.04205087  0.45989523  1
  Li  Li2  1  0.45989523  0.54961694  0.04205087  1
  Li  Li3  1  0.20538087  0.71010788  0.79804066  1
  Li  Li4  1  0.95391437  0.95391337  0.95391437  1
  Li  Li5  1  0.79804366  0.20538087  0.71010788  1
  Li  Li6  1  0.71010688  0.79804366  0.20537987  1
  Hg  Hg0  1  0.30489100  0.30489000  0.30489000  1
  P  P0  1  0.86534662  0.37108369  0.11287861  1
  P  P1  1  0.37108469  0.11287961  0.86534662  1
  P  P2  1  0.62667984  0.62668084  0.62668084  1
  P  P3  1  0.11287861  0.86534662  0.37108469  1
  Pd  Pd0  1  0.17619627  0.06978237  0.61670694  1
  Pd  Pd1  1  0.43338313  0.37354696  0.68328813  1
  Pd  Pd2  1  0.06978237  0.61670694  0.17619627  1
  Pd  Pd3  1  0.92828393  0.12726968  0.31628286  1
  Pd  Pd4  1  0.31628286  0.92828393  0.12726968  1
  Pd  Pd5  1  0.68328813  0.43338413  0.37354696  1
  Pd  Pd6  1  0.57542524  0.87152742  0.82841847  1
  Pd  Pd7  1  0.61670794  0.17619527  0.06978337  1
  Pd  Pd8  1  0.37354696  0.68328813  0.43338313  1
  Pd  Pd9  1  0.87152642  0.82841747  0.57542524  1
  Pd  Pd10  1  0.12726968  0.31628286  0.92828293  1
  Pd  Pd11  1  0.82841747  0.57542524  0.87152742  1
loop_
_geom_bond_atom_site_label_1
_geom_bond_atom_site_label_2
_geom_bond_distance
_geom_bond_site_symmetry_2
Li0 Li5 2.768179 1_455
Li0 Li3 2.790341 1_555
Li0 Pd5 2.869872 1_455
Li0 Pd11 2.878483 1_455
Li0 Pd2 2.897182 1_555
Li0 Pd9 2.904357 1_455
Li0 Pd10 2.956137 1_555
Li0 Pd8 2.977107 1_555
Li0 Pd0 2.982697 1_555
Li0 Pd1 3.020883 1_555
Li0 Pd3 3.027693 1_455
Li1 Li6 2.768179 1_545
Li1 Li5 2.790354 1_555
Li1 Pd8 2.869874 1_545
Li1 Pd9 2.878478 1_545
Li1 Pd0 2.897182 1_555
Li1 Pd6 2.904360 1_545
Li1 Pd3 2.956144 1_555
Li1 Pd1 2.977106 1_555
Li1 Pd7 2.982689 1_555
Li1 Pd5 3.020891 1_555
Li1 Pd4 3.027692 1_545
Li2 Li3 2.768191 1_554
Li2 Li6 2.790347 1_555
Li2 Pd1 2.869872 1_554
Li2 Pd6 2.878481 1_554
Li2 Pd7 2.897192 1_555
Li2 Pd11 2.904353 1_554
Li2 Pd4 2.956144 1_555
Li2 Pd5 2.977103 1_555
Li2 Pd2 2.982696 1_555
Li2 Pd8 3.020883 1_555
Li2 Pd10 3.027695 1_554
Li3 Li4 2.735560 1_455
Li3 Pd8 2.872825 1_555
Li3 Pd0 2.881646 1_565
Li3 Pd6 2.900736 1_555
Li3 Pd11 2.910867 1_455
Li3 Pd2 2.942907 1_556
Li3 Pd4 2.943606 1_556
Li3 Pd9 2.991659 1_455
Li3 Pd1 3.015001 1_555
Li3 Pd10 3.015386 1_555
Li4 Li6 2.735554 1_556
Li4 Li5 2.735561 1_565
Li4 Pd4 2.881829 1_656
Li4 Pd3 2.881833 1_566
Li4 Pd10 2.881839 1_665
Li4 Pd11 2.918301 1_555
Li4 Pd6 2.918302 1_555
Li4 Pd9 2.918305 1_555
Li4 Pd2 2.997108 1_656
Li4 Pd7 2.997109 1_566
Li4 Pd0 2.997116 1_665
Li5 Pd1 2.872845 1_555
Li5 Pd7 2.881658 1_556
Li5 Pd11 2.900734 1_555
Li5 Pd9 2.910862 1_545
Li5 Pd0 2.942887 1_655
Li5 Pd10 2.943585 1_655
Li5 Pd6 2.991668 1_545
Li5 Pd5 3.015011 1_555
Li5 Pd3 3.015380 1_555
Li6 Pd5 2.872843 1_555
Li6 Pd2 2.881660 1_655
Li6 Pd9 2.900739 1_555
Li6 Pd6 2.910847 1_554
Li6 Pd7 2.942874 1_565
Li6 Pd3 2.943596 1_565
Li6 Pd11 2.991661 1_554
Li6 Pd8 3.015005 1_555
Li6 Pd4 3.015372 1_555
Hg0 Li1 2.790928 1_555
Hg0 Li2 2.790930 1_555
Hg0 Li0 2.790937 1_555
Hg0 Pd5 2.905723 1_555
Hg0 Pd1 2.905724 1_555
Hg0 Pd8 2.905727 1_555
Hg0 Pd7 2.933074 1_555
Hg0 Pd0 2.933080 1_555
Hg0 Pd2 2.933081 1_555
Hg0 Pd4 2.982907 1_545
Hg0 Pd3 2.982913 1_455
Hg0 Pd10 2.982915 1_554
P0 Pd11 2.271357 1_554
P0 Pd7 2.286542 1_555
P0 Pd3 2.308983 1_555
P0 Pd5 2.312114 1_555
P0 Pd10 2.318907 1_654
P0 Pd2 2.337137 1_655
P1 Pd6 2.271357 1_545
P1 Pd0 2.286548 1_555
P1 Pd10 2.308982 1_555
P1 Pd1 2.312107 1_555
P1 Pd4 2.318909 1_546
P1 Pd7 2.337138 1_556
P2 Pd9 2.300323 1_555
P2 Pd6 2.300326 1_555
P2 Pd11 2.300326 1_555
P2 Pd8 2.315204 1_555
P2 Pd5 2.315207 1_555
P2 Pd1 2.315207 1_555
P3 Pd9 2.271358 1_455
P3 Pd2 2.286548 1_555
P3 Pd4 2.308988 1_555
P3 Pd8 2.312112 1_555
P3 Pd3 2.318905 1_465
P3 Pd0 2.337131 1_565
