# generated using pymatgen
data_AlCuO2
_symmetry_space_group_name_H-M   'P 1'
_cell_length_a   2.84277285
_cell_length_b   2.84277263
_cell_length_c   11.29784621
_cell_angle_alpha   90.00000000
_cell_angle_beta   90.00000000
_cell_angle_gamma   120.00000266
_symmetry_Int_Tables_number   1
_chemical_formula_structural   AlCuO2
_chemical_formula_sum   'Al2 Cu2 O4'
_cell_volume   79.06978601
_cell_formula_units_Z   2
loop_
 _symmetry_equiv_pos_site_id
 _symmetry_equiv_pos_as_xyz
  1  'x, y, z'
loop_
 _atom_site_type_symbol
 _atom_site_label
 _atom_site_symmetry_multiplicity
 _atom_site_fract_x
 _atom_site_fract_y
 _atom_site_fract_z
 _atom_site_occupancy
  Al  Al0  1  -0.00000000  0.00000000  -0.00000000  1
  Al  Al1  1  -0.00000000  0.00000000  0.50000000  1
  Cu  Cu0  1  0.66666700  0.33333300  0.75000000  1
  Cu  Cu1  1  0.33333300  0.66666700  0.25000000  1
  O  O0  1  0.33333300  0.66666700  0.41487475  1
  O  O1  1  0.66666700  0.33333300  0.91487475  1
  O  O2  1  0.33333300  0.66666700  0.08512525  1
  O  O3  1  0.66666700  0.33333300  0.58512525  1
loop_
_geom_bond_atom_site_label_1
_geom_bond_atom_site_label_2
_geom_bond_distance
_geom_bond_site_symmetry_2
Al0 O1 1.902290 1_454
Al0 O2 1.902290 1_545
Al0 O1 1.902292 1_444
Al0 O2 1.902292 1_555
Al0 O1 1.902293 1_554
Al0 O2 1.902293 1_445
Al1 O0 1.902290 1_545
Al1 O3 1.902290 1_455
Al1 O0 1.902292 1_555
Al1 O3 1.902292 1_445
Al1 O0 1.902293 1_445
Al1 O3 1.902293 1_555
Cu0 O3 1.862730 1_555
Cu0 O1 1.862730 1_555
Cu1 O2 1.862730 1_555
Cu1 O0 1.862730 1_555
