# generated using pymatgen
data_Lu12Tc3Hg2
_symmetry_space_group_name_H-M   'P 1'
_cell_length_a   8.17507695
_cell_length_b   8.17507769
_cell_length_c   8.17507809
_cell_angle_alpha   109.30352517
_cell_angle_beta   109.30353892
_cell_angle_gamma   109.80712257
_symmetry_Int_Tables_number   1
_chemical_formula_structural   Lu12Tc3Hg2
_chemical_formula_sum   'Lu12 Tc3 Hg2'
_cell_volume   420.57412008
_cell_formula_units_Z   1
loop_
 _symmetry_equiv_pos_site_id
 _symmetry_equiv_pos_as_xyz
  1  'x, y, z'
loop_
 _atom_site_type_symbol
 _atom_site_label
 _atom_site_symmetry_multiplicity
 _atom_site_fract_x
 _atom_site_fract_y
 _atom_site_fract_z
 _atom_site_occupancy
  Lu  Lu0  1  0.30656824  0.30656824  0.61313848  1
  Lu  Lu1  1  0.69343176  0.69343176  0.38686152  1
  Lu  Lu2  1  0.69343176  0.30656824  1.00000000  1
  Lu  Lu3  1  0.30656824  0.69343176  0.00000000  1
  Lu  Lu4  1  0.18790241  0.43094335  0.24303994  1
  Lu  Lu5  1  0.81209759  0.56905665  0.75696006  1
  Lu  Lu6  1  0.18790241  0.94486147  0.75696006  1
  Lu  Lu7  1  0.94486147  0.18790241  0.75696006  1
  Lu  Lu8  1  0.81209759  0.05513853  0.24303994  1
  Lu  Lu9  1  0.05513853  0.81209759  0.24303994  1
  Lu  Lu10  1  0.43094335  0.18790241  0.24303994  1
  Lu  Lu11  1  0.56905665  0.81209759  0.75696006  1
  Tc  Tc0  1  0.37028088  0.37028088  0.00000000  1
  Tc  Tc1  1  0.62971912  0.62971912  1.00000000  1
  Tc  Tc2  1  0.00000000  0.00000000  0.00000000  1
  Hg  Hg0  1  0.00000000  0.50000000  0.50000000  1
  Hg  Hg1  1  0.50000000  0.00000000  0.50000000  1
loop_
_geom_bond_atom_site_label_1
_geom_bond_atom_site_label_2
_geom_bond_distance
_geom_bond_site_symmetry_2
Lu0 Tc0 2.860549 1_556
Lu0 Tc1 2.860557 1_555
Lu1 Tc1 2.860549 1_554
Lu1 Tc0 2.860557 1_555
Lu2 Tc0 2.860565 1_556
Lu2 Tc1 2.860565 1_555
Lu3 Tc1 2.860565 1_554
Lu3 Tc0 2.860565 1_555
Lu4 Tc0 2.867880 1_555
Lu4 Tc2 2.899228 1_555
Lu5 Tc1 2.867880 1_555
Lu5 Tc2 2.899228 1_666
Lu6 Tc0 2.867886 1_566
Lu6 Tc2 2.899222 1_566
Lu7 Tc0 2.867885 1_656
Lu7 Tc2 2.899222 1_656
Lu8 Tc1 2.867886 1_544
Lu8 Tc2 2.899222 1_655
Lu9 Tc1 2.867885 1_454
Lu9 Tc2 2.899222 1_565
Lu10 Tc0 2.867880 1_555
Lu10 Tc2 2.899227 1_555
Lu11 Tc1 2.867880 1_555
Lu11 Tc2 2.899227 1_666
Tc0 Tc1 2.438873 1_554
Hg0 Lu6 3.004700 1_555
Hg0 Lu8 3.004700 1_455
Hg0 Lu5 3.004705 1_455
Hg0 Lu4 3.004705 1_555
Hg0 Lu3 3.428911 1_556
Hg0 Lu2 3.428911 1_454
Hg0 Lu0 3.428914 1_555
Hg0 Lu1 3.428914 1_455
Hg1 Lu7 3.004699 1_555
Hg1 Lu9 3.004699 1_545
Hg1 Lu11 3.004705 1_545
Hg1 Lu10 3.004705 1_555
Hg1 Lu2 3.428911 1_555
Hg1 Lu3 3.428911 1_545
Hg1 Lu0 3.428914 1_555
Hg1 Lu1 3.428914 1_545
