# generated using pymatgen
data_Nb4VSiB2
_symmetry_space_group_name_H-M   'P 1'
_cell_length_a   7.25362593
_cell_length_b   7.25362573
_cell_length_c   7.25362612
_cell_angle_alpha   129.92500968
_cell_angle_beta   129.92500787
_cell_angle_gamma   73.52667844
_symmetry_Int_Tables_number   1
_chemical_formula_structural   Nb4VSiB2
_chemical_formula_sum   'Nb8 V2 Si2 B4'
_cell_volume   219.04558887
_cell_formula_units_Z   2
loop_
 _symmetry_equiv_pos_site_id
 _symmetry_equiv_pos_as_xyz
  1  'x, y, z'
loop_
 _atom_site_type_symbol
 _atom_site_label
 _atom_site_symmetry_multiplicity
 _atom_site_fract_x
 _atom_site_fract_y
 _atom_site_fract_z
 _atom_site_occupancy
  Nb  Nb0  1  0.80679235  0.30679235  0.84210385  1
  Nb  Nb1  1  0.19320765  0.69320765  0.15789615  1
  Nb  Nb2  1  0.46468851  0.96468851  0.15789615  1
  Nb  Nb3  1  0.30679235  0.46468851  0.50000000  1
  Nb  Nb4  1  0.03531149  0.19320765  0.50000000  1
  Nb  Nb5  1  0.53531149  0.03531149  0.84210385  1
  Nb  Nb6  1  0.69320765  0.53531149  0.50000000  1
  Nb  Nb7  1  0.96468851  0.80679235  0.50000000  1
  V  V0  1  0.00000000  0.00000000  0.00000000  1
  V  V1  1  0.50000000  0.50000000  0.00000000  1
  Si  Si0  1  0.25000000  0.25000000  0.00000000  1
  Si  Si1  1  0.75000000  0.75000000  0.00000000  1
  B  B0  1  0.11734077  0.61734077  0.73468153  1
  B  B1  1  0.88265923  0.38265923  0.26531847  1
  B  B2  1  0.61734077  0.88265923  0.50000000  1
  B  B3  1  0.38265923  0.11734077  0.50000000  1
loop_
_geom_bond_atom_site_label_1
_geom_bond_atom_site_label_2
_geom_bond_distance
_geom_bond_site_symmetry_2
Nb0 Si1 2.635366 1_556
Nb0 Si0 2.635366 1_656
Nb1 Si0 2.635366 1_555
Nb1 Si1 2.635366 1_455
Nb2 Si0 2.635366 1_565
Nb2 Si1 2.635366 1_555
Nb3 Si1 2.635366 1_556
Nb3 Si0 2.635366 1_555
Nb4 Si1 2.635366 1_445
Nb4 Si0 2.635366 1_556
Nb5 Si1 2.635366 1_546
Nb5 Si0 2.635366 1_556
Nb6 Si0 2.635366 1_555
Nb6 Si1 2.635366 1_556
Nb7 Si0 2.635366 1_666
Nb7 Si1 2.635366 1_555
Si0 V1 2.905492 1_555
Si0 V0 2.905492 1_555
Si1 V0 2.905492 1_665
Si1 V1 2.905492 1_555
B0 B1 2.037682 1_455
B0 Nb4 2.394283 1_555
B0 Nb3 2.394283 1_555
B0 Nb6 2.394283 1_455
B0 Nb7 2.394283 1_455
B0 Nb2 2.421678 1_556
B0 Nb1 2.421678 1_556
B0 V0 2.457364 1_566
B0 V1 2.457364 1_556
B1 Nb7 2.394283 1_555
B1 Nb6 2.394283 1_555
B1 Nb3 2.394283 1_655
B1 Nb4 2.394283 1_655
B1 Nb5 2.421678 1_554
B1 Nb0 2.421678 1_554
B1 V0 2.457364 1_655
B1 V1 2.457364 1_555
B2 B3 2.037681 1_565
B2 Nb0 2.394283 1_565
B2 Nb1 2.394283 1_555
B2 Nb5 2.394283 1_565
B2 Nb2 2.394283 1_555
B2 Nb6 2.421678 1_555
B2 Nb7 2.421678 1_555
B2 V1 2.457364 1_555
B2 V0 2.457364 1_666
B3 Nb1 2.394283 1_545
B3 Nb0 2.394283 1_555
B3 Nb2 2.394283 1_545
B3 Nb5 2.394283 1_555
B3 Nb3 2.421678 1_555
B3 Nb4 2.421678 1_555
B3 V1 2.457364 1_556
B3 V0 2.457364 1_555
