# generated using pymatgen
data_Na2GaPd3
_symmetry_space_group_name_H-M   'P 1'
_cell_length_a   5.52841582
_cell_length_b   5.52841640
_cell_length_c   7.94864978
_cell_angle_alpha   90.00000000
_cell_angle_beta   90.00000000
_cell_angle_gamma   120.00000231
_symmetry_Int_Tables_number   1
_chemical_formula_structural   Na2GaPd3
_chemical_formula_sum   'Na4 Ga2 Pd6'
_cell_volume   210.39016328
_cell_formula_units_Z   2
loop_
 _symmetry_equiv_pos_site_id
 _symmetry_equiv_pos_as_xyz
  1  'x, y, z'
loop_
 _atom_site_type_symbol
 _atom_site_label
 _atom_site_symmetry_multiplicity
 _atom_site_fract_x
 _atom_site_fract_y
 _atom_site_fract_z
 _atom_site_occupancy
  Na  Na0  1  0.33333300  0.66666600  0.07096788  1
  Na  Na1  1  0.33333300  0.66666600  0.42903212  1
  Na  Na2  1  0.66666600  0.33333300  0.57096788  1
  Na  Na3  1  0.66666600  0.33333300  0.92903212  1
  Ga  Ga0  1  0.00000000  0.00000000  0.00000000  1
  Ga  Ga1  1  0.00000000  0.00000000  0.50000000  1
  Pd  Pd0  1  0.33697495  0.16848747  0.25000000  1
  Pd  Pd1  1  0.83151253  0.16848747  0.25000000  1
  Pd  Pd2  1  0.83151153  0.66302405  0.25000000  1
  Pd  Pd3  1  0.16848747  0.33697495  0.75000000  1
  Pd  Pd4  1  0.16848747  0.83151253  0.75000000  1
  Pd  Pd5  1  0.66302505  0.83151253  0.75000000  1
loop_
_geom_bond_atom_site_label_1
_geom_bond_atom_site_label_2
_geom_bond_distance
_geom_bond_site_symmetry_2
Na0 Na1 2.846127 1_555
Na0 Pd3 3.000088 1_554
Na0 Pd5 3.000090 1_554
Na0 Pd4 3.000090 1_554
Na0 Pd2 3.109058 1_555
Na0 Pd1 3.109058 1_455
Na0 Pd0 3.109059 1_555
Na0 Pd2 3.109063 1_455
Na0 Pd1 3.109063 1_565
Na0 Pd0 3.109064 1_565
Na0 Na3 3.385351 1_554
Na0 Na3 3.385356 1_454
Na0 Na3 3.385356 1_564
Na1 Pd3 3.000088 1_555
Na1 Pd5 3.000090 1_555
Na1 Pd4 3.000090 1_555
Na1 Pd2 3.109058 1_555
Na1 Pd1 3.109058 1_455
Na1 Pd0 3.109059 1_555
Na1 Pd2 3.109063 1_455
Na1 Pd1 3.109063 1_565
Na1 Pd0 3.109064 1_565
Na1 Na2 3.385351 1_555
Na1 Na2 3.385356 1_455
Na1 Na2 3.385356 1_565
Na2 Na3 2.846127 1_555
Na2 Pd0 3.000088 1_555
Na2 Pd2 3.000088 1_555
Na2 Pd1 3.000090 1_555
Na2 Pd3 3.109058 1_555
Na2 Pd4 3.109058 1_545
Na2 Pd5 3.109061 1_555
Na2 Pd5 3.109061 1_545
Na2 Pd3 3.109063 1_655
Na2 Pd4 3.109063 1_655
Na3 Pd0 3.000088 1_556
Na3 Pd2 3.000088 1_556
Na3 Pd1 3.000090 1_556
Na3 Pd3 3.109058 1_555
Na3 Pd4 3.109058 1_545
Na3 Pd5 3.109061 1_555
Na3 Pd5 3.109061 1_545
Na3 Pd3 3.109063 1_655
Na3 Pd4 3.109063 1_655
Ga0 Pd0 2.559632 1_555
Ga0 Pd5 2.559632 1_444
Ga0 Pd1 2.559632 1_455
Ga0 Pd4 2.559632 1_544
Ga0 Pd3 2.559632 1_554
Ga0 Pd2 2.559635 1_445
Ga0 Na3 3.241293 1_554
Ga0 Na0 3.241293 1_555
Ga0 Na0 3.241298 1_445
Ga0 Na3 3.241298 1_454
Ga0 Na0 3.241298 1_545
Ga0 Na3 3.241298 1_444
Ga1 Pd0 2.559632 1_555
Ga1 Pd5 2.559632 1_445
Ga1 Pd1 2.559632 1_455
Ga1 Pd4 2.559632 1_545
Ga1 Pd3 2.559632 1_555
Ga1 Pd2 2.559635 1_445
Ga1 Na2 3.241293 1_555
Ga1 Na1 3.241293 1_555
Ga1 Na1 3.241298 1_445
Ga1 Na2 3.241298 1_455
Ga1 Na1 3.241298 1_545
Ga1 Na2 3.241298 1_445
Pd0 Pd2 2.734004 1_555
Pd0 Pd1 2.734009 1_555
Pd0 Pd1 2.794406 1_455
Pd0 Pd2 2.794412 1_445
Pd1 Pd2 2.734007 1_555
Pd1 Pd2 2.794409 1_545
Pd3 Pd5 2.734009 1_555
Pd3 Pd4 2.734010 1_555
Pd3 Pd5 2.794406 1_445
Pd3 Pd4 2.794407 1_545
Pd4 Pd5 2.734009 1_555
Pd4 Pd5 2.794406 1_455
