# generated using pymatgen
data_Rb6Br4O
_symmetry_space_group_name_H-M   'P 1'
_cell_length_a   9.36625862
_cell_length_b   9.36625862
_cell_length_c   9.36625824
_cell_angle_alpha   88.74358035
_cell_angle_beta   88.74358035
_cell_angle_gamma   88.74358860
_symmetry_Int_Tables_number   1
_chemical_formula_structural   Rb6Br4O
_chemical_formula_sum   'Rb12 Br8 O2'
_cell_volume   821.08774938
_cell_formula_units_Z   2
loop_
 _symmetry_equiv_pos_site_id
 _symmetry_equiv_pos_as_xyz
  1  'x, y, z'
loop_
 _atom_site_type_symbol
 _atom_site_label
 _atom_site_symmetry_multiplicity
 _atom_site_fract_x
 _atom_site_fract_y
 _atom_site_fract_z
 _atom_site_occupancy
  Rb  Rb0  1  0.05868152  0.92977319  0.72323773  1
  Rb  Rb1  1  0.92977319  0.72323773  0.05868152  1
  Rb  Rb2  1  0.72323773  0.05868152  0.92977319  1
  Rb  Rb3  1  0.57022681  0.44131848  0.77676227  1
  Rb  Rb4  1  0.77676227  0.57022681  0.44131848  1
  Rb  Rb5  1  0.44131848  0.77676227  0.57022681  1
  Rb  Rb6  1  0.07022681  0.27676227  0.94131848  1
  Rb  Rb7  1  0.94131848  0.07022681  0.27676227  1
  Rb  Rb8  1  0.27676227  0.94131848  0.07022681  1
  Rb  Rb9  1  0.42977319  0.55868152  0.22323773  1
  Rb  Rb10  1  0.22323773  0.42977319  0.55868152  1
  Rb  Rb11  1  0.55868152  0.22323773  0.42977319  1
  Br  Br0  1  0.75000000  0.75000000  0.75000000  1
  Br  Br1  1  0.25000000  0.25000000  0.25000000  1
  Br  Br2  1  0.75000000  0.37845665  0.12154335  1
  Br  Br3  1  0.12154335  0.75000000  0.37845665  1
  Br  Br4  1  0.37845665  0.12154335  0.75000000  1
  Br  Br5  1  0.25000000  0.62154335  0.87845665  1
  Br  Br6  1  0.87845665  0.25000000  0.62154335  1
  Br  Br7  1  0.62154335  0.87845665  0.25000000  1
  O  O0  1  0.50000000  0.50000000  0.50000000  1
  O  O1  1  0.00000000  -0.00000000  0.00000000  1
loop_
_geom_bond_atom_site_label_1
_geom_bond_atom_site_label_2
_geom_bond_distance
_geom_bond_site_symmetry_2
Br0 Rb0 3.379379 1_655
Br0 Rb3 3.379379 1_555
Br0 Rb1 3.379379 1_556
Br0 Rb4 3.379379 1_555
Br0 Rb2 3.379379 1_565
Br0 Rb5 3.379379 1_555
Br1 Rb7 3.379379 1_455
Br1 Rb9 3.379379 1_555
Br1 Rb6 3.379379 1_554
Br1 Rb10 3.379379 1_555
Br1 Rb8 3.379379 1_545
Br1 Rb11 3.379379 1_555
Br2 Rb6 3.532119 1_654
Br2 Rb9 3.532119 1_555
Br2 Rb4 3.542350 1_555
Br2 Rb2 3.542350 1_554
Br2 Rb11 3.655475 1_555
Br2 Rb7 3.655475 1_555
Br2 Rb1 3.704306 1_555
Br2 Rb3 3.704306 1_554
Br3 Rb10 3.532119 1_555
Br3 Rb7 3.532119 1_465
Br3 Rb1 3.542350 1_455
Br3 Rb5 3.542350 1_555
Br3 Rb8 3.655475 1_555
Br3 Rb9 3.655475 1_555
Br3 Rb4 3.704306 1_455
Br3 Rb0 3.704306 1_555
Br4 Rb11 3.532119 1_555
Br4 Rb8 3.532119 1_546
Br4 Rb0 3.542350 1_545
Br4 Rb3 3.542350 1_555
Br4 Rb10 3.655475 1_555
Br4 Rb6 3.655475 1_555
Br4 Rb2 3.704306 1_555
Br4 Rb5 3.704306 1_545
Br5 Rb1 3.532119 1_456
Br5 Rb3 3.532119 1_555
Br5 Rb10 3.542350 1_555
Br5 Rb8 3.542350 1_556
Br5 Rb5 3.655475 1_555
Br5 Rb0 3.655475 1_555
Br5 Rb6 3.704306 1_555
Br5 Rb9 3.704306 1_556
Br6 Rb4 3.532119 1_555
Br6 Rb0 3.532119 1_645
Br6 Rb6 3.542350 1_655
Br6 Rb11 3.542350 1_555
Br6 Rb2 3.655475 1_555
Br6 Rb3 3.655475 1_555
Br6 Rb10 3.704306 1_655
Br6 Rb7 3.704306 1_555
Br7 Rb2 3.532119 1_564
Br7 Rb5 3.532119 1_555
Br7 Rb7 3.542350 1_565
Br7 Rb9 3.542350 1_555
Br7 Rb1 3.655475 1_555
Br7 Rb4 3.655475 1_555
Br7 Rb11 3.704306 1_565
Br7 Rb8 3.704306 1_555
O0 Rb4 2.729619 1_555
O0 Rb10 2.729619 1_555
O0 Rb3 2.729619 1_555
O0 Rb9 2.729619 1_555
O0 Rb11 2.729619 1_555
O0 Rb5 2.729619 1_555
O1 Rb1 2.729619 1_445
O1 Rb6 2.729619 1_554
O1 Rb0 2.729619 1_544
O1 Rb7 2.729619 1_455
O1 Rb2 2.729619 1_454
O1 Rb8 2.729619 1_545
