# generated using pymatgen
data_Ba4CrReO8
_symmetry_space_group_name_H-M   'P 1'
_cell_length_a   7.32241239
_cell_length_b   7.32241247
_cell_length_c   5.66885102
_cell_angle_alpha   90.00000000
_cell_angle_beta   90.00000000
_cell_angle_gamma   134.43354065
_symmetry_Int_Tables_number   1
_chemical_formula_structural   Ba4CrReO8
_chemical_formula_sum   'Ba4 Cr1 Re1 O8'
_cell_volume   217.04007655
_cell_formula_units_Z   1
loop_
 _symmetry_equiv_pos_site_id
 _symmetry_equiv_pos_as_xyz
  1  'x, y, z'
loop_
 _atom_site_type_symbol
 _atom_site_label
 _atom_site_symmetry_multiplicity
 _atom_site_fract_x
 _atom_site_fract_y
 _atom_site_fract_z
 _atom_site_occupancy
  Ba  Ba0  1  0.35219013  0.64780987  0.00000000  1
  Ba  Ba1  1  0.85390944  0.14609056  0.50000000  1
  Ba  Ba2  1  0.14609056  0.85390944  0.50000000  1
  Ba  Ba3  1  0.64780987  0.35219013  0.00000000  1
  Cr  Cr0  1  0.00000000  0.00000000  0.00000000  1
  Re  Re0  1  0.50000000  0.50000000  0.50000000  1
  O  O0  1  0.25430227  0.25430227  0.74566929  1
  O  O1  1  0.74569773  0.74569773  0.25433071  1
  O  O2  1  0.74569773  0.74569773  0.74566929  1
  O  O3  1  0.25430227  0.25430227  0.25433071  1
  O  O4  1  0.14937023  0.85062977  0.00000000  1
  O  O5  1  0.65242685  0.34757315  0.50000000  1
  O  O6  1  0.34757315  0.65242685  0.50000000  1
  O  O7  1  0.85062977  0.14937023  0.00000000  1
loop_
_geom_bond_atom_site_label_1
_geom_bond_atom_site_label_2
_geom_bond_distance
_geom_bond_site_symmetry_2
Ba0 O4 2.738512 1_555
Ba0 O1 2.829002 1_555
Ba0 O2 2.829002 1_554
Ba0 O3 2.829002 1_555
Ba0 O0 2.829002 1_554
Ba0 O6 2.835111 1_555
Ba0 O6 2.835111 1_554
Ba0 O7 2.835651 1_455
Ba0 O7 2.835651 1_565
Ba1 O5 2.720455 1_555
Ba1 O0 2.812531 1_655
Ba1 O3 2.812531 1_655
Ba1 O2 2.812531 1_545
Ba1 O1 2.812531 1_545
Ba1 O7 2.834771 1_556
Ba1 O7 2.834771 1_555
Ba1 O6 2.836863 1_545
Ba1 O6 2.836863 1_655
Ba2 O6 2.720455 1_555
Ba2 O2 2.812531 1_455
Ba2 O1 2.812531 1_455
Ba2 O0 2.812531 1_565
Ba2 O3 2.812531 1_565
Ba2 O4 2.834771 1_556
Ba2 O4 2.834771 1_555
Ba2 O5 2.836863 1_565
Ba2 O5 2.836863 1_455
Ba3 O7 2.738512 1_555
Ba3 O3 2.829002 1_555
Ba3 O0 2.829002 1_554
Ba3 O1 2.829002 1_555
Ba3 O2 2.829002 1_554
Ba3 O5 2.835111 1_555
Ba3 O5 2.835111 1_554
Ba3 O4 2.835651 1_655
Ba3 O4 2.835651 1_545
Cr0 O7 2.016824 1_455
Cr0 O4 2.016824 1_545
Cr0 O3 2.039259 1_555
Cr0 O1 2.039259 1_445
Cr0 O0 2.039259 1_554
Cr0 O2 2.039259 1_444
O0 Re0 1.970035 1_555
O1 Re0 1.970035 1_555
O2 Re0 1.970035 1_555
O3 Re0 1.970035 1_555
O5 Re0 2.058095 1_555
O6 Re0 2.058095 1_555
