# generated using pymatgen
data_Rb5NaSn2Se7
_symmetry_space_group_name_H-M   'P 1'
_cell_length_a   8.09371808
_cell_length_b   8.09371719
_cell_length_c   17.46919676
_cell_angle_alpha   81.23658987
_cell_angle_beta   81.23659025
_cell_angle_gamma   93.59944295
_symmetry_Int_Tables_number   1
_chemical_formula_structural   Rb5NaSn2Se7
_chemical_formula_sum   'Rb10 Na2 Sn4 Se14'
_cell_volume   1113.47338141
_cell_formula_units_Z   2
loop_
 _symmetry_equiv_pos_site_id
 _symmetry_equiv_pos_as_xyz
  1  'x, y, z'
loop_
 _atom_site_type_symbol
 _atom_site_label
 _atom_site_symmetry_multiplicity
 _atom_site_fract_x
 _atom_site_fract_y
 _atom_site_fract_z
 _atom_site_occupancy
  Rb  Rb0  1  0.00000000  0.00000000  0.50000000  1
  Rb  Rb1  1  0.00000000  0.00000000  0.00000000  1
  Rb  Rb2  1  0.46551455  0.76963894  0.91576745  1
  Rb  Rb3  1  0.53448545  0.23036106  0.08423255  1
  Rb  Rb4  1  0.23036106  0.53448545  0.58423255  1
  Rb  Rb5  1  0.76963894  0.46551455  0.41576745  1
  Rb  Rb6  1  0.47899904  0.03860153  0.64264547  1
  Rb  Rb7  1  0.52100096  0.96139947  0.35735453  1
  Rb  Rb8  1  0.96139847  0.52100096  0.85735453  1
  Rb  Rb9  1  0.03860153  0.47899904  0.14264547  1
  Na  Na0  1  0.90513413  0.09486587  0.75000000  1
  Na  Na1  1  0.09486587  0.90513413  0.25000000  1
  Sn  Sn0  1  0.40963010  0.27372363  0.85574195  1
  Sn  Sn1  1  0.59036990  0.72627637  0.14425805  1
  Sn  Sn2  1  0.72627637  0.59036990  0.64425805  1
  Sn  Sn3  1  0.27372363  0.40963010  0.35574195  1
  Se  Se0  1  0.22326486  0.05670155  0.81159569  1
  Se  Se1  1  0.77673514  0.94329845  0.18840431  1
  Se  Se2  1  0.94329845  0.77673514  0.68840431  1
  Se  Se3  1  0.05670155  0.22326486  0.31159569  1
  Se  Se4  1  0.45230447  0.54769553  0.75000000  1
  Se  Se5  1  0.54769553  0.45230447  0.25000000  1
  Se  Se6  1  0.68217975  0.16597690  0.88513830  1
  Se  Se7  1  0.31782025  0.83402310  0.11486170  1
  Se  Se8  1  0.83402310  0.31782025  0.61486170  1
  Se  Se9  1  0.16597690  0.68217975  0.38513830  1
  Se  Se10  1  0.62244432  0.75418219  0.52914966  1
  Se  Se11  1  0.37755568  0.24581781  0.47085034  1
  Se  Se12  1  0.24581781  0.37755568  0.97085034  1
  Se  Se13  1  0.75418219  0.62244432  0.02914966  1
loop_
_geom_bond_atom_site_label_1
_geom_bond_atom_site_label_2
_geom_bond_distance
_geom_bond_site_symmetry_2
Rb0 Se2 3.454253 1_445
Rb0 Se3 3.454253 1_555
Rb0 Se11 3.465482 1_555
Rb0 Se10 3.465482 1_445
Rb0 Se8 3.692306 1_455
Rb0 Se9 3.692306 1_545
Rb1 Se0 3.454253 1_554
Rb1 Se1 3.454253 1_445
Rb1 Se12 3.465482 1_554
Rb1 Se13 3.465482 1_445
Rb1 Se7 3.692307 1_545
Rb1 Se6 3.692307 1_454
Rb2 Se13 3.441190 1_556
Rb2 Se12 3.463809 1_555
Rb2 Se6 3.483754 1_565
Rb2 Se0 3.595148 1_565
Rb2 Se7 3.627773 1_556
Rb2 Se4 3.644090 1_555
Rb3 Se12 3.441190 1_554
Rb3 Se13 3.463809 1_555
Rb3 Se7 3.483754 1_545
Rb3 Se1 3.595148 1_545
Rb3 Se6 3.627773 1_554
Rb3 Se5 3.644090 1_555
Rb4 Se11 3.441190 1_555
Rb4 Se10 3.463809 1_555
Rb4 Se8 3.483754 1_455
Rb4 Se2 3.595148 1_455
Rb4 Se9 3.627773 1_555
Rb4 Se4 3.644090 1_555
Rb5 Se10 3.441190 1_555
Rb5 Se11 3.463809 1_555
Rb5 Se9 3.483754 1_655
Rb5 Se3 3.595148 1_655
Rb5 Se8 3.627773 1_555
Rb5 Se5 3.644090 1_555
Rb6 Se0 3.365259 1_555
Rb6 Se10 3.406335 1_545
Rb6 Se11 3.447278 1_555
Rb6 Se8 3.467713 1_555
Rb7 Se1 3.365261 1_555
Rb7 Se11 3.406328 1_565
Rb7 Se10 3.447281 1_555
Rb7 Se9 3.467718 1_555
Rb8 Se2 3.365259 1_555
Rb8 Se12 3.406335 1_655
Rb8 Se13 3.447278 1_556
Rb8 Se6 3.467713 1_555
Rb9 Se3 3.365259 1_555
Rb9 Se13 3.406335 1_455
Rb9 Se12 3.447278 1_554
Rb9 Se7 3.467713 1_555
Na0 Se8 2.899502 1_555
Na0 Se6 2.899503 1_555
Na0 Se2 2.953976 1_545
Na0 Se0 2.953976 1_655
Na1 Se9 2.899502 1_555
Na1 Se7 2.899503 1_555
Na1 Se3 2.953976 1_565
Na1 Se1 2.953976 1_455
Se0 Sn0 2.527821 1_555
Se1 Sn1 2.527821 1_555
Se2 Sn2 2.527821 1_555
Se3 Sn3 2.527821 1_555
Se4 Sn0 2.628674 1_555
Se4 Sn2 2.628674 1_555
Se5 Sn1 2.628674 1_555
Se5 Sn3 2.628674 1_555
Se6 Sn0 2.518067 1_555
Se7 Sn1 2.518067 1_555
Se8 Sn2 2.518067 1_555
Se9 Sn3 2.518067 1_555
Se10 Sn2 2.519941 1_555
Se11 Sn3 2.519941 1_555
Se12 Sn0 2.519941 1_555
Se13 Sn1 2.519941 1_555
