# generated using pymatgen
data_Zr3TaOs2O
_symmetry_space_group_name_H-M   'P 1'
_cell_length_a   8.70348952
_cell_length_b   8.70348879
_cell_length_c   8.70348906
_cell_angle_alpha   59.99999523
_cell_angle_beta   59.99999798
_cell_angle_gamma   59.99999807
_symmetry_Int_Tables_number   1
_chemical_formula_structural   Zr3TaOs2O
_chemical_formula_sum   'Zr12 Ta4 Os8 O4'
_cell_volume   466.19235411
_cell_formula_units_Z   4
loop_
 _symmetry_equiv_pos_site_id
 _symmetry_equiv_pos_as_xyz
  1  'x, y, z'
loop_
 _atom_site_type_symbol
 _atom_site_label
 _atom_site_symmetry_multiplicity
 _atom_site_fract_x
 _atom_site_fract_y
 _atom_site_fract_z
 _atom_site_occupancy
  Zr  Zr0  1  0.80896518  0.80896518  0.19103482  1
  Zr  Zr1  1  0.19103482  0.19103482  0.80896518  1
  Zr  Zr2  1  0.80896518  0.19103482  0.80896518  1
  Zr  Zr3  1  0.19103482  0.80896518  0.19103482  1
  Zr  Zr4  1  0.19103482  0.80896518  0.80896518  1
  Zr  Zr5  1  0.80896518  0.19103482  0.19103482  1
  Zr  Zr6  1  0.44103482  0.44103482  0.05896518  1
  Zr  Zr7  1  0.05896518  0.05896518  0.44103482  1
  Zr  Zr8  1  0.44103482  0.05896518  0.44103482  1
  Zr  Zr9  1  0.05896518  0.44103482  0.05896518  1
  Zr  Zr10  1  0.05896518  0.44103482  0.44103482  1
  Zr  Zr11  1  0.44103482  0.05896518  0.05896518  1
  Ta  Ta0  1  0.12500000  0.62500000  0.62500000  1
  Ta  Ta1  1  0.62500000  0.12500000  0.62500000  1
  Ta  Ta2  1  0.62500000  0.62500000  0.12500000  1
  Ta  Ta3  1  0.62500000  0.62500000  0.62500000  1
  Os  Os0  1  0.75132300  0.41622500  0.41622500  1
  Os  Os1  1  0.41622500  0.75132300  0.41622500  1
  Os  Os2  1  0.41622500  0.41622500  0.75132300  1
  Os  Os3  1  0.41622500  0.41622500  0.41622500  1
  Os  Os4  1  0.49867700  0.83377500  0.83377500  1
  Os  Os5  1  0.83377500  0.49867700  0.83377500  1
  Os  Os6  1  0.83377500  0.83377500  0.49867700  1
  Os  Os7  1  0.83377500  0.83377500  0.83377500  1
  O  O0  1  0.62500000  0.12500000  0.12500000  1
  O  O1  1  0.12500000  0.62500000  0.12500000  1
  O  O2  1  0.12500000  0.12500000  0.62500000  1
  O  O3  1  0.12500000  0.12500000  0.12500000  1
loop_
_geom_bond_atom_site_label_1
_geom_bond_atom_site_label_2
_geom_bond_distance
_geom_bond_site_symmetry_2
Os0 Ta1 2.668032 1_555
Os0 Ta2 2.668032 1_555
Os0 Ta3 2.668046 1_555
Os0 Zr7 2.909552 1_655
Os0 Zr9 2.909552 1_655
Os0 Zr10 2.909562 1_655
Os0 Zr5 3.131969 1_555
Os0 Zr0 3.131984 1_555
Os0 Zr2 3.131984 1_555
Os1 Ta2 2.668032 1_555
Os1 Ta0 2.668032 1_555
Os1 Ta3 2.668047 1_555
Os1 Zr11 2.909552 1_565
Os1 Zr7 2.909552 1_565
Os1 Zr8 2.909562 1_565
Os1 Zr3 3.131969 1_555
Os1 Zr4 3.131984 1_555
Os1 Zr0 3.131984 1_555
Os2 Ta1 2.668032 1_555
Os2 Ta0 2.668032 1_555
Os2 Ta3 2.668046 1_555
Os2 Zr11 2.909552 1_556
Os2 Zr9 2.909552 1_556
Os2 Zr6 2.909562 1_556
Os2 Zr1 3.131969 1_555
Os2 Zr4 3.131984 1_555
Os2 Zr2 3.131984 1_555
Os3 Ta2 2.668042 1_555
Os3 Ta1 2.668042 1_555
Os3 Ta0 2.668042 1_555
Os3 Zr8 2.909545 1_555
Os3 Zr6 2.909545 1_555
Os3 Zr10 2.909545 1_555
Os3 Zr3 3.131977 1_555
Os3 Zr1 3.131977 1_555
Os3 Zr5 3.131977 1_555
Os4 Ta1 2.668032 1_565
Os4 Ta2 2.668032 1_556
Os4 Ta3 2.668046 1_555
Os4 Zr1 2.909552 1_565
Os4 Zr3 2.909552 1_556
Os4 Zr4 2.909562 1_555
Os4 Zr11 3.131969 1_566
Os4 Zr6 3.131984 1_556
Os4 Zr8 3.131984 1_565
Os5 Ta2 2.668032 1_556
Os5 Ta0 2.668032 1_655
Os5 Ta3 2.668047 1_555
Os5 Zr5 2.909552 1_556
Os5 Zr1 2.909552 1_655
Os5 Zr2 2.909562 1_555
Os5 Zr9 3.131969 1_656
Os5 Zr10 3.131984 1_655
Os5 Zr6 3.131984 1_556
Os6 Ta1 2.668032 1_565
Os6 Ta0 2.668032 1_655
Os6 Ta3 2.668046 1_555
Os6 Zr5 2.909552 1_565
Os6 Zr3 2.909552 1_655
Os6 Zr0 2.909562 1_555
Os6 Zr7 3.131969 1_665
Os6 Zr10 3.131984 1_655
Os6 Zr8 3.131984 1_565
Os7 Ta2 2.668042 1_556
Os7 Ta1 2.668042 1_565
Os7 Ta0 2.668042 1_655
Os7 Zr2 2.909545 1_565
Os7 Zr0 2.909545 1_556
Os7 Zr4 2.909545 1_655
Os7 Zr9 3.131977 1_656
Os7 Zr7 3.131977 1_665
Os7 Zr11 3.131977 1_566
O0 Zr6 2.322726 1_555
O0 Zr0 2.322726 1_545
O0 Zr8 2.322726 1_555
O0 Zr2 2.322726 1_554
O0 Zr5 2.322726 1_555
O0 Zr11 2.322726 1_555
O1 Zr10 2.322726 1_555
O1 Zr4 2.322726 1_554
O1 Zr3 2.322726 1_555
O1 Zr9 2.322726 1_555
O1 Zr6 2.322726 1_555
O1 Zr0 2.322726 1_455
O2 Zr4 2.322726 1_545
O2 Zr10 2.322726 1_555
O2 Zr8 2.322726 1_555
O2 Zr2 2.322726 1_455
O2 Zr1 2.322726 1_555
O2 Zr7 2.322726 1_555
O3 Zr9 2.322726 1_555
O3 Zr3 2.322726 1_545
O3 Zr7 2.322726 1_555
O3 Zr1 2.322726 1_554
O3 Zr11 2.322726 1_555
O3 Zr5 2.322726 1_455
