# generated using pymatgen
data_Sr5Al3Ga2Sn
_symmetry_space_group_name_H-M   'P 1'
_cell_length_a   5.76097348
_cell_length_b   5.76097494
_cell_length_c   10.73487355
_cell_angle_alpha   90.00000000
_cell_angle_beta   90.00000000
_cell_angle_gamma   119.99999161
_symmetry_Int_Tables_number   1
_chemical_formula_structural   Sr5Al3Ga2Sn
_chemical_formula_sum   'Sr5 Al3 Ga2 Sn1'
_cell_volume   308.54567511
_cell_formula_units_Z   1
loop_
 _symmetry_equiv_pos_site_id
 _symmetry_equiv_pos_as_xyz
  1  'x, y, z'
loop_
 _atom_site_type_symbol
 _atom_site_label
 _atom_site_symmetry_multiplicity
 _atom_site_fract_x
 _atom_site_fract_y
 _atom_site_fract_z
 _atom_site_occupancy
  Sr  Sr0  1  0.66666700  0.33333300  0.82464774  1
  Sr  Sr1  1  0.33333300  0.66666700  0.69543939  1
  Sr  Sr2  1  0.33333300  0.66666700  0.30456061  1
  Sr  Sr3  1  0.66666700  0.33333300  0.17535226  1
  Sr  Sr4  1  0.00000000  0.00000000  0.50000000  1
  Al  Al0  1  0.17199783  0.82800217  0.00000000  1
  Al  Al1  1  0.17199783  0.34399665  0.00000000  1
  Al  Al2  1  0.65600335  0.82800217  0.00000000  1
  Ga  Ga0  1  0.00000000  0.00000000  0.19296479  1
  Ga  Ga1  1  0.00000000  0.00000000  0.80703521  1
  Sn  Sn0  1  0.66666700  0.33333300  0.50000000  1
loop_
_geom_bond_atom_site_label_1
_geom_bond_atom_site_label_2
_geom_bond_distance
_geom_bond_site_symmetry_2
Sr0 Sr1 3.603718 1_655
Sr0 Sr1 3.603719 1_545
Sr0 Sr1 3.603727 1_555
Sr0 Sr3 3.764769 1_556
Sr1 Sr4 3.932505 1_565
Sr1 Sr4 3.932509 1_665
Sr1 Sr4 3.932510 1_555
Sr1 Sr2 4.196034 1_555
Sr2 Sr3 3.603718 1_455
Sr2 Sr3 3.603719 1_565
Sr2 Sr3 3.603727 1_555
Sr2 Sr4 3.932505 1_565
Sr2 Sr4 3.932509 1_665
Sr2 Sr4 3.932510 1_555
Al0 Ga0 2.690059 1_565
Al0 Ga1 2.690059 1_564
Al0 Al2 2.788343 1_555
Al0 Al1 2.788344 1_555
Al0 Al2 2.972630 1_455
Al0 Al1 2.972631 1_565
Al0 Sr3 3.441425 1_455
Al0 Sr0 3.441425 1_454
Al0 Sr3 3.441425 1_565
Al0 Sr0 3.441425 1_564
Al0 Sr2 3.644273 1_555
Al0 Sr1 3.644273 1_554
Al1 Ga0 2.690062 1_555
Al1 Ga1 2.690062 1_554
Al1 Al2 2.788344 1_555
Al1 Al2 2.972631 1_445
Al1 Sr3 3.441420 1_455
Al1 Sr0 3.441420 1_454
Al1 Sr3 3.441430 1_555
Al1 Sr0 3.441430 1_554
Al1 Sr2 3.644273 1_555
Al1 Sr1 3.644273 1_554
Al2 Ga0 2.690062 1_665
Al2 Ga1 2.690062 1_664
Al2 Sr3 3.441421 1_565
Al2 Sr0 3.441421 1_564
Al2 Sr3 3.441430 1_555
Al2 Sr0 3.441430 1_554
Al2 Sr2 3.644273 1_555
Al2 Sr1 3.644273 1_554
Ga0 Sr4 3.295984 1_555
Ga0 Sr3 3.331466 1_455
Ga0 Sr3 3.331471 1_555
Ga0 Sr3 3.331472 1_445
Ga0 Sr2 3.535257 1_545
Ga0 Sr2 3.535262 1_445
Ga0 Sr2 3.535263 1_555
Ga1 Sr4 3.295984 1_555
Ga1 Sr0 3.331466 1_455
Ga1 Sr0 3.331471 1_555
Ga1 Sr0 3.331472 1_445
Ga1 Sr1 3.535257 1_545
Ga1 Sr1 3.535262 1_445
Ga1 Sr1 3.535263 1_555
Sn0 Sr4 3.326097 1_655
Sn0 Sr4 3.326102 1_555
Sn0 Sr4 3.326102 1_665
Sn0 Sr0 3.485052 1_555
Sn0 Sr3 3.485052 1_555
Sn0 Sr1 3.932505 1_655
Sn0 Sr2 3.932505 1_655
Sn0 Sr1 3.932506 1_545
Sn0 Sr2 3.932506 1_545
Sn0 Sr1 3.932513 1_555
Sn0 Sr2 3.932513 1_555
