# generated using pymatgen
data_Zr3AlSn2Ir3
_symmetry_space_group_name_H-M   'P 1'
_cell_length_a   7.39759255
_cell_length_b   7.39759289
_cell_length_c   7.18003221
_cell_angle_alpha   90.00000000
_cell_angle_beta   90.00000000
_cell_angle_gamma   121.20023241
_symmetry_Int_Tables_number   1
_chemical_formula_structural   Zr3AlSn2Ir3
_chemical_formula_sum   'Zr6 Al2 Sn4 Ir6'
_cell_volume   336.09129186
_cell_formula_units_Z   2
loop_
 _symmetry_equiv_pos_site_id
 _symmetry_equiv_pos_as_xyz
  1  'x, y, z'
loop_
 _atom_site_type_symbol
 _atom_site_label
 _atom_site_symmetry_multiplicity
 _atom_site_fract_x
 _atom_site_fract_y
 _atom_site_fract_z
 _atom_site_occupancy
  Zr  Zr0  1  0.40283917  0.02665213  0.25000000  1
  Zr  Zr1  1  0.58857481  0.59731762  0.75000000  1
  Zr  Zr2  1  0.59731762  0.58857481  0.25000000  1
  Zr  Zr3  1  0.01292372  0.39347823  0.25000000  1
  Zr  Zr4  1  0.02665213  0.40283917  0.75000000  1
  Zr  Zr5  1  0.39347823  0.01292372  0.75000000  1
  Al  Al0  1  0.26320439  0.26320439  0.50000000  1
  Al  Al1  1  0.26320439  0.26320439  0.00000000  1
  Sn  Sn0  1  0.73160374  0.00233423  0.00004972  1
  Sn  Sn1  1  0.00233423  0.73160374  0.50004972  1
  Sn  Sn2  1  0.73160374  0.00233423  0.49995028  1
  Sn  Sn3  1  0.00233423  0.73160374  0.99995028  1
  Ir  Ir0  1  0.64911778  0.32887123  0.51392603  1
  Ir  Ir1  1  0.64911778  0.32887123  0.98607397  1
  Ir  Ir2  1  0.32887123  0.64911778  0.01392603  1
  Ir  Ir3  1  0.32887123  0.64911778  0.48607397  1
  Ir  Ir4  1  0.01338102  0.01457157  0.75000000  1
  Ir  Ir5  1  0.01457157  0.01338102  0.25000000  1
loop_
_geom_bond_atom_site_label_1
_geom_bond_atom_site_label_2
_geom_bond_distance
_geom_bond_site_symmetry_2
Al0 Ir4 2.549259 1_555
Al0 Ir5 2.549259 1_555
Al0 Ir0 2.638032 1_555
Al0 Ir3 2.638032 1_555
Al0 Zr2 2.993463 1_555
Al0 Zr1 2.993464 1_555
Al0 Zr4 3.037113 1_555
Al0 Zr0 3.037113 1_555
Al0 Zr3 3.070405 1_555
Al0 Zr5 3.070405 1_555
Al1 Ir4 2.549259 1_554
Al1 Ir5 2.549259 1_555
Al1 Ir1 2.638032 1_554
Al1 Ir2 2.638032 1_555
Al1 Zr2 2.993463 1_555
Al1 Zr1 2.993464 1_554
Al1 Zr4 3.037113 1_554
Al1 Zr0 3.037113 1_555
Al1 Zr3 3.070405 1_555
Al1 Zr5 3.070405 1_554
Sn0 Zr0 3.101834 1_555
Sn0 Zr3 3.112131 1_655
Sn0 Zr5 3.112725 1_554
Sn0 Zr1 3.167854 1_544
Sn0 Zr4 3.172605 1_654
Sn0 Zr2 3.228931 1_545
Sn1 Zr4 3.101834 1_555
Sn1 Zr5 3.112131 1_565
Sn1 Zr3 3.112725 1_555
Sn1 Zr2 3.167854 1_455
Sn1 Zr0 3.172605 1_565
Sn1 Zr1 3.228931 1_455
Sn2 Zr0 3.101834 1_555
Sn2 Zr3 3.112131 1_655
Sn2 Zr5 3.112725 1_555
Sn2 Zr1 3.167854 1_545
Sn2 Zr4 3.172605 1_655
Sn2 Zr2 3.228931 1_545
Sn3 Zr4 3.101834 1_555
Sn3 Zr5 3.112131 1_565
Sn3 Zr3 3.112725 1_556
Sn3 Zr2 3.167854 1_456
Sn3 Zr0 3.172605 1_566
Sn3 Zr1 3.228931 1_455
Ir0 Zr5 2.707905 1_555
Ir0 Sn1 2.765505 1_655
Ir0 Zr0 2.772819 1_555
Ir0 Sn2 2.782915 1_555
Ir0 Zr1 2.817586 1_555
Ir0 Zr2 2.862085 1_555
Ir0 Zr4 3.064176 1_655
Ir0 Zr3 3.119266 1_655
Ir1 Zr5 2.707905 1_555
Ir1 Sn3 2.765505 1_655
Ir1 Zr0 2.772819 1_556
Ir1 Sn0 2.782915 1_556
Ir1 Zr1 2.817586 1_555
Ir1 Zr2 2.862085 1_556
Ir1 Zr4 3.064176 1_655
Ir1 Zr3 3.119266 1_656
Ir2 Zr3 2.707905 1_555
Ir2 Sn0 2.765505 1_565
Ir2 Zr4 2.772819 1_554
Ir2 Sn3 2.782915 1_554
Ir2 Zr2 2.817586 1_555
Ir2 Zr1 2.862085 1_554
Ir2 Zr0 3.064176 1_565
Ir2 Zr5 3.119266 1_564
Ir3 Zr3 2.707905 1_555
Ir3 Sn2 2.765505 1_565
Ir3 Zr4 2.772819 1_555
Ir3 Sn1 2.782915 1_555
Ir3 Zr2 2.817586 1_555
Ir3 Zr1 2.862085 1_555
Ir3 Zr0 3.064176 1_565
Ir3 Zr5 3.119266 1_565
Ir4 Sn0 2.716810 1_456
Ir4 Sn2 2.716810 1_455
Ir4 Sn3 2.726178 1_545
Ir4 Sn1 2.726178 1_545
Ir4 Zr5 2.818138 1_555
Ir4 Zr4 2.822638 1_555
Ir4 Zr1 3.058323 1_445
Ir5 Sn1 2.716810 1_545
Ir5 Sn3 2.716810 1_544
Ir5 Sn2 2.726178 1_455
Ir5 Sn0 2.726178 1_455
Ir5 Zr3 2.818139 1_555
Ir5 Zr0 2.822638 1_555
Ir5 Zr2 3.058323 1_445
