# generated using pymatgen
data_Rb3Y(AsSe2)6
_symmetry_space_group_name_H-M   'P 1'
_cell_length_a   9.87502475
_cell_length_b   9.87502459
_cell_length_c   8.25667074
_cell_angle_alpha   90.00000000
_cell_angle_beta   90.00000000
_cell_angle_gamma   119.99999389
_symmetry_Int_Tables_number   1
_chemical_formula_structural   Rb3Y(AsSe2)6
_chemical_formula_sum   'Rb3 Y1 As6 Se12'
_cell_volume   697.28769774
_cell_formula_units_Z   1
loop_
 _symmetry_equiv_pos_site_id
 _symmetry_equiv_pos_as_xyz
  1  'x, y, z'
loop_
 _atom_site_type_symbol
 _atom_site_label
 _atom_site_symmetry_multiplicity
 _atom_site_fract_x
 _atom_site_fract_y
 _atom_site_fract_z
 _atom_site_occupancy
  Rb  Rb0  1  0.00000000  0.00000000  0.00000000  1
  Rb  Rb1  1  0.33333300  0.66666700  0.84707158  1
  Rb  Rb2  1  0.66666700  0.33333300  0.15292842  1
  Y  Y0  1  0.00000000  0.00000000  0.50000000  1
  As  As0  1  0.29252920  0.83947603  0.38260934  1
  As  As1  1  0.16052397  0.45305317  0.38260934  1
  As  As2  1  0.54694683  0.70747080  0.38260934  1
  As  As3  1  0.70747080  0.16052397  0.61739066  1
  As  As4  1  0.83947603  0.54694683  0.61739066  1
  As  As5  1  0.45305317  0.29252920  0.61739066  1
  Se  Se0  1  0.26261447  0.05122874  0.30056882  1
  Se  Se1  1  0.94877126  0.21138673  0.30056882  1
  Se  Se2  1  0.78861327  0.73738553  0.30056882  1
  Se  Se3  1  0.73738553  0.94877126  0.69943118  1
  Se  Se4  1  0.05122874  0.78861327  0.69943118  1
  Se  Se5  1  0.21138673  0.26261447  0.69943118  1
  Se  Se6  1  0.52783295  0.90521533  0.22283453  1
  Se  Se7  1  0.09478467  0.62261762  0.22283453  1
  Se  Se8  1  0.37738238  0.47216705  0.22283453  1
  Se  Se9  1  0.47216705  0.09478467  0.77716547  1
  Se  Se10  1  0.90521533  0.37738238  0.77716547  1
  Se  Se11  1  0.62261762  0.52783295  0.77716547  1
loop_
_geom_bond_atom_site_label_1
_geom_bond_atom_site_label_2
_geom_bond_distance
_geom_bond_site_symmetry_2
Rb0 Se0 3.439208 1_555
Rb0 Se3 3.439208 1_444
Rb0 Se5 3.439210 1_554
Rb0 Se2 3.439210 1_445
Rb0 Se1 3.439215 1_455
Rb0 Se4 3.439215 1_544
Rb1 Se4 3.748529 1_555
Rb1 Se3 3.748543 1_555
Rb1 Se5 3.748547 1_555
Rb1 Se9 3.780196 1_565
Rb1 Se10 3.780198 1_455
Rb1 Se11 3.780205 1_555
Rb1 Se7 3.786757 1_556
Rb1 Se6 3.786759 1_556
Rb1 Se8 3.786763 1_556
Rb2 Se1 3.748529 1_555
Rb2 Se0 3.748543 1_555
Rb2 Se2 3.748547 1_555
Rb2 Se6 3.780196 1_545
Rb2 Se7 3.780198 1_655
Rb2 Se8 3.780205 1_555
Rb2 Se10 3.786757 1_554
Rb2 Se9 3.786759 1_554
Rb2 Se11 3.786763 1_554
As0 Se0 2.352950 1_565
As0 Se7 2.440836 1_555
As0 Se6 2.460193 1_555
As1 Se1 2.352945 1_455
As1 Se8 2.440835 1_555
As1 Se7 2.460193 1_555
As2 Se2 2.352941 1_555
As2 Se6 2.440835 1_555
As2 Se8 2.460193 1_555
As3 Se3 2.352950 1_545
As3 Se10 2.440836 1_555
As3 Se9 2.460193 1_555
As4 Se4 2.352945 1_655
As4 Se11 2.440835 1_555
As4 Se10 2.460193 1_555
As5 Se5 2.352941 1_555
As5 Se9 2.440835 1_555
As5 Se11 2.460193 1_555
Se0 Y0 2.894951 1_555
Se1 Y0 2.894959 1_655
Se2 Y0 2.894954 1_665
Se3 Y0 2.894951 1_665
Se4 Y0 2.894959 1_565
Se5 Y0 2.894954 1_555
