# generated using pymatgen
data_TiNb3SiSb2
_symmetry_space_group_name_H-M   'P 1'
_cell_length_a   7.78599804
_cell_length_b   7.78597437
_cell_length_c   7.78066498
_cell_angle_alpha   95.73866025
_cell_angle_beta   95.74976349
_cell_angle_gamma   143.14887951
_symmetry_Int_Tables_number   1
_chemical_formula_structural   TiNb3SiSb2
_chemical_formula_sum   'Ti2 Nb6 Si2 Sb4'
_cell_volume   268.32465984
_cell_formula_units_Z   2
loop_
 _symmetry_equiv_pos_site_id
 _symmetry_equiv_pos_as_xyz
  1  'x, y, z'
loop_
 _atom_site_type_symbol
 _atom_site_label
 _atom_site_symmetry_multiplicity
 _atom_site_fract_x
 _atom_site_fract_y
 _atom_site_fract_z
 _atom_site_occupancy
  Ti  Ti0  1  0.91630029  0.79680472  0.71299324  1
  Ti  Ti1  1  0.79553050  0.08310654  0.87901868  1
  Nb  Nb0  1  0.41688638  0.70470779  0.12140683  1
  Nb  Nb1  1  0.58353116  0.29658754  0.88037604  1
  Nb  Nb2  1  0.70361795  0.58381664  0.28731919  1
  Nb  Nb3  1  0.29542006  0.41676495  0.71210448  1
  Nb  Nb4  1  0.20381314  0.91490086  0.11864266  1
  Nb  Nb5  1  0.08460244  0.20474606  0.28929773  1
  Si  Si0  1  0.24535028  0.24709372  0.99674400  1
  Si  Si1  1  0.74962176  0.75136094  0.99672118  1
  Sb  Sb0  1  0.64639198  0.85762078  0.50391321  1
  Sb  Sb1  1  0.14240663  0.64290732  0.78592450  1
  Sb  Sb2  1  0.85787886  0.35644257  0.21418755  1
  Sb  Sb3  1  0.35864757  0.14313958  0.50134970  1
loop_
_geom_bond_atom_site_label_1
_geom_bond_atom_site_label_2
_geom_bond_distance
_geom_bond_site_symmetry_2
Nb0 Si1 2.617775 1_554
Nb0 Si0 2.617820 1_554
Nb0 Sb0 2.879077 1_555
Nb0 Sb1 2.932171 1_554
Nb0 Sb2 2.991098 1_565
Nb0 Sb2 2.991769 1_455
Nb1 Si0 2.612461 1_555
Nb1 Si1 2.612607 1_555
Nb1 Sb3 2.846597 1_555
Nb1 Sb2 2.928990 1_556
Nb1 Sb1 3.000785 1_655
Nb1 Sb1 3.001750 1_545
Nb2 Si0 2.635052 1_554
Nb2 Si1 2.635654 1_554
Nb2 Sb2 2.870334 1_555
Nb2 Sb0 2.921544 1_555
Nb2 Sb3 3.008328 1_555
Nb2 Sb3 3.008618 1_665
Nb3 Si1 2.594212 1_555
Nb3 Si0 2.595356 1_555
Nb3 Sb1 2.853317 1_555
Nb3 Sb3 2.934569 1_555
Nb3 Sb0 2.975651 1_445
Nb3 Sb0 2.976719 1_555
Nb4 Si1 2.628077 1_454
Nb4 Si0 2.628156 1_564
Nb4 Sb3 2.876111 1_565
Nb4 Sb1 2.906945 1_554
Nb4 Sb2 3.002858 1_565
Nb4 Sb2 3.003046 1_455
Nb5 Si1 2.629545 1_444
Nb5 Si0 2.630026 1_554
Nb5 Sb2 2.849705 1_455
Nb5 Sb3 2.931868 1_555
Nb5 Sb0 3.002573 1_555
Nb5 Sb0 3.003399 1_445
Si0 Si1 2.439865 1_445
Si0 Si1 2.482004 1_555
Si0 Ti0 2.583287 1_445
Si0 Ti1 2.588845 1_455
Si1 Ti0 2.584223 1_555
Si1 Ti1 2.588284 1_565
Sb0 Ti1 2.825297 1_565
Sb0 Ti0 2.889384 1_555
Sb1 Ti0 2.858111 1_455
Sb1 Ti1 3.000060 1_455
Sb1 Ti1 3.000556 1_565
Sb2 Ti1 2.923817 1_554
Sb3 Ti0 2.998710 1_555
Sb3 Ti0 3.001035 1_445
