# generated using pymatgen
data_Ta3Al2RhC
_symmetry_space_group_name_H-M   'P 1'
_cell_length_a   8.26686448
_cell_length_b   8.26686520
_cell_length_c   8.26686409
_cell_angle_alpha   60.00000442
_cell_angle_beta   60.00000155
_cell_angle_gamma   60.00000163
_symmetry_Int_Tables_number   1
_chemical_formula_structural   Ta3Al2RhC
_chemical_formula_sum   'Ta12 Al8 Rh4 C4'
_cell_volume   399.49145980
_cell_formula_units_Z   4
loop_
 _symmetry_equiv_pos_site_id
 _symmetry_equiv_pos_as_xyz
  1  'x, y, z'
loop_
 _atom_site_type_symbol
 _atom_site_label
 _atom_site_symmetry_multiplicity
 _atom_site_fract_x
 _atom_site_fract_y
 _atom_site_fract_z
 _atom_site_occupancy
  Ta  Ta0  1  0.56393900  0.93606100  0.56393900  1
  Ta  Ta1  1  0.31393900  0.68606100  0.68606100  1
  Ta  Ta2  1  0.68606100  0.31393900  0.31393900  1
  Ta  Ta3  1  0.31393900  0.68606100  0.31393900  1
  Ta  Ta4  1  0.68606100  0.68606100  0.31393900  1
  Ta  Ta5  1  0.31393900  0.31393900  0.68606100  1
  Ta  Ta6  1  0.56393900  0.56393900  0.93606100  1
  Ta  Ta7  1  0.93606100  0.56393900  0.56393900  1
  Ta  Ta8  1  0.56393900  0.93606100  0.93606100  1
  Ta  Ta9  1  0.93606100  0.93606100  0.56393900  1
  Ta  Ta10  1  0.68606100  0.31393900  0.68606100  1
  Ta  Ta11  1  0.93606100  0.56393900  0.93606100  1
  Al  Al0  1  0.91724658  0.91724658  0.91724658  1
  Al  Al1  1  0.00173975  0.33275342  0.33275342  1
  Al  Al2  1  0.33275342  0.00173975  0.33275342  1
  Al  Al3  1  0.33275342  0.33275342  0.00173975  1
  Al  Al4  1  0.91724658  0.24826025  0.91724658  1
  Al  Al5  1  0.91724658  0.91724658  0.24826025  1
  Al  Al6  1  0.24826025  0.91724658  0.91724658  1
  Al  Al7  1  0.33275342  0.33275342  0.33275342  1
  Rh  Rh0  1  0.12500000  0.12500000  0.12500000  1
  Rh  Rh1  1  0.62500000  0.12500000  0.12500000  1
  Rh  Rh2  1  0.12500000  0.62500000  0.12500000  1
  Rh  Rh3  1  0.12500000  0.12500000  0.62500000  1
  C  C0  1  0.62500000  0.62500000  0.62500000  1
  C  C1  1  0.12500000  0.62500000  0.62500000  1
  C  C2  1  0.62500000  0.12500000  0.62500000  1
  C  C3  1  0.62500000  0.62500000  0.12500000  1
loop_
_geom_bond_atom_site_label_1
_geom_bond_atom_site_label_2
_geom_bond_distance
_geom_bond_site_symmetry_2
Al0 Rh1 2.527310 1_566
Al0 Rh2 2.527310 1_656
Al0 Rh3 2.527310 1_665
Al1 Rh3 2.527310 1_555
Al1 Rh0 2.527310 1_555
Al1 Rh2 2.527310 1_555
Al2 Rh0 2.527310 1_555
Al2 Rh3 2.527310 1_555
Al2 Rh1 2.527310 1_555
Al3 Rh1 2.527310 1_555
Al3 Rh2 2.527310 1_555
Al3 Rh0 2.527310 1_555
Al4 Rh3 2.527310 1_655
Al4 Rh0 2.527310 1_656
Al4 Rh1 2.527310 1_556
Al5 Rh1 2.527310 1_565
Al5 Rh2 2.527310 1_655
Al5 Rh0 2.527310 1_665
Al6 Rh3 2.527310 1_565
Al6 Rh0 2.527310 1_566
Al6 Rh2 2.527310 1_556
Al7 Rh1 2.527310 1_555
Al7 Rh2 2.527310 1_555
Al7 Rh3 2.527310 1_555
Rh0 Ta8 3.024994 1_544
Rh0 Ta2 3.024994 1_455
Rh0 Ta9 3.024994 1_445
Rh0 Ta5 3.024994 1_554
Rh0 Ta11 3.024994 1_454
Rh0 Ta3 3.024994 1_545
Rh1 Ta0 3.024993 1_545
Rh1 Ta10 3.024993 1_554
Rh1 Ta2 3.024993 1_555
Rh1 Ta8 3.024993 1_544
Rh1 Ta6 3.024994 1_554
Rh1 Ta4 3.024994 1_545
Rh2 Ta3 3.024993 1_555
Rh2 Ta11 3.024993 1_454
Rh2 Ta7 3.024993 1_455
Rh2 Ta1 3.024993 1_554
Rh2 Ta6 3.024994 1_554
Rh2 Ta4 3.024994 1_455
Rh3 Ta0 3.024994 1_545
Rh3 Ta10 3.024994 1_455
Rh3 Ta5 3.024994 1_555
Rh3 Ta9 3.024994 1_445
Rh3 Ta7 3.024994 1_455
Rh3 Ta1 3.024994 1_545
C0 Ta6 2.186533 1_555
C0 Ta4 2.186533 1_555
C0 Ta7 2.186533 1_555
C0 Ta1 2.186533 1_555
C0 Ta0 2.186533 1_555
C0 Ta10 2.186533 1_555
C1 Ta1 2.186533 1_555
C1 Ta7 2.186533 1_455
C1 Ta11 2.186533 1_455
C1 Ta3 2.186533 1_555
C1 Ta9 2.186533 1_455
C1 Ta5 2.186533 1_555
C2 Ta9 2.186533 1_545
C2 Ta5 2.186533 1_555
C2 Ta8 2.186533 1_545
C2 Ta2 2.186533 1_555
C2 Ta10 2.186533 1_555
C2 Ta0 2.186533 1_545
C3 Ta4 2.186533 1_555
C3 Ta6 2.186533 1_554
C3 Ta11 2.186533 1_554
C3 Ta3 2.186533 1_555
C3 Ta8 2.186533 1_554
C3 Ta2 2.186533 1_555
