# generated using pymatgen
data_ZnCdPt2
_symmetry_space_group_name_H-M   'P 1'
_cell_length_a   5.84811110
_cell_length_b   5.84811110
_cell_length_c   14.63250042
_cell_angle_alpha   90.00000000
_cell_angle_beta   90.00000000
_cell_angle_gamma   90.00000000
_symmetry_Int_Tables_number   1
_chemical_formula_structural   ZnCdPt2
_chemical_formula_sum   'Zn8 Cd8 Pt16'
_cell_volume   500.43741767
_cell_formula_units_Z   8
loop_
 _symmetry_equiv_pos_site_id
 _symmetry_equiv_pos_as_xyz
  1  'x, y, z'
loop_
 _atom_site_type_symbol
 _atom_site_label
 _atom_site_symmetry_multiplicity
 _atom_site_fract_x
 _atom_site_fract_y
 _atom_site_fract_z
 _atom_site_occupancy
  Zn  Zn0_0  1  0.00000000  0.00000000  0.00000000  1
  Zn  Zn0_1  1  0.00000000  0.00000000  0.50000000  1
  Zn  Zn0_2  1  0.00000000  0.50000000  0.00000000  1
  Zn  Zn0_3  1  0.00000000  0.50000000  0.50000000  1
  Zn  Zn0_4  1  0.50000000  0.00000000  0.00000000  1
  Zn  Zn0_5  1  0.50000000  0.00000000  0.50000000  1
  Zn  Zn0_6  1  0.50000000  0.50000000  0.00000000  1
  Zn  Zn0_7  1  0.50000000  0.50000000  0.50000000  1
  Cd  Cd0_0  1  0.00000000  0.00000000  0.25000000  1
  Cd  Cd0_1  1  0.00000000  0.00000000  0.75000000  1
  Cd  Cd0_2  1  0.00000000  0.50000000  0.25000000  1
  Cd  Cd0_3  1  0.00000000  0.50000000  0.75000000  1
  Cd  Cd0_4  1  0.50000000  0.00000000  0.25000000  1
  Cd  Cd0_5  1  0.50000000  0.00000000  0.75000000  1
  Cd  Cd0_6  1  0.50000000  0.50000000  0.25000000  1
  Cd  Cd0_7  1  0.50000000  0.50000000  0.75000000  1
  Pt  Pt0_0  1  0.25000000  0.25000000  0.11177877  1
  Pt  Pt0_1  1  0.25000000  0.25000000  0.61177877  1
  Pt  Pt0_2  1  0.25000000  0.75000000  0.11177877  1
  Pt  Pt0_3  1  0.25000000  0.75000000  0.61177877  1
  Pt  Pt0_4  1  0.75000000  0.25000000  0.11177877  1
  Pt  Pt0_5  1  0.75000000  0.25000000  0.61177877  1
  Pt  Pt0_6  1  0.75000000  0.75000000  0.11177877  1
  Pt  Pt0_7  1  0.75000000  0.75000000  0.61177877  1
  Pt  Pt1_0  1  0.25000000  0.25000000  0.38822122  1
  Pt  Pt1_1  1  0.25000000  0.25000000  0.88822123  1
  Pt  Pt1_2  1  0.25000000  0.75000000  0.38822122  1
  Pt  Pt1_3  1  0.25000000  0.75000000  0.88822123  1
  Pt  Pt1_4  1  0.75000000  0.25000000  0.38822122  1
  Pt  Pt1_5  1  0.75000000  0.25000000  0.88822123  1
  Pt  Pt1_6  1  0.75000000  0.75000000  0.38822122  1
  Pt  Pt1_7  1  0.75000000  0.75000000  0.88822123  1
loop_
_geom_bond_atom_site_label_1
_geom_bond_atom_site_label_2
_geom_bond_distance
_geom_bond_site_symmetry_2
Cd0_0 Pt1_6 2.892343 1_445
Cd0_0 Pt0_4 2.892343 1_455
Cd0_0 Pt0_2 2.892343 1_545
Cd0_0 Pt0_6 2.892343 1_445
Cd0_0 Pt0_0 2.892343 1_555
Cd0_0 Pt1_2 2.892343 1_545
Cd0_0 Pt1_4 2.892343 1_455
Cd0_0 Pt1_0 2.892343 1_555
Cd0_0 Cd0_2 2.924056 1_555
Cd0_0 Cd0_4 2.924056 1_455
Cd0_0 Cd0_2 2.924056 1_545
Cd0_0 Cd0_4 2.924056 1_555
Cd0_1 Pt0_1 2.892343 1_555
Cd0_1 Pt0_7 2.892343 1_445
Cd0_1 Pt0_3 2.892343 1_545
Cd0_1 Pt0_5 2.892343 1_455
Cd0_1 Pt1_1 2.892343 1_555
Cd0_1 Pt1_5 2.892343 1_455
Cd0_1 Pt1_3 2.892343 1_545
Cd0_1 Pt1_7 2.892343 1_445
Cd0_1 Cd0_5 2.924056 1_555
Cd0_1 Cd0_3 2.924056 1_545
Cd0_1 Cd0_5 2.924056 1_455
Cd0_1 Cd0_3 2.924056 1_555
Cd0_2 Pt0_6 2.892343 1_455
Cd0_2 Pt0_4 2.892343 1_455
Cd0_2 Pt1_2 2.892343 1_555
Cd0_2 Pt1_6 2.892343 1_455
Cd0_2 Pt0_0 2.892343 1_555
Cd0_2 Pt1_4 2.892343 1_455
Cd0_2 Pt0_2 2.892343 1_555
Cd0_2 Pt1_0 2.892343 1_555
Cd0_2 Cd0_6 2.924056 1_455
Cd0_2 Cd0_6 2.924056 1_555
Cd0_3 Pt0_1 2.892343 1_555
Cd0_3 Pt0_3 2.892343 1_555
Cd0_3 Pt0_7 2.892343 1_455
Cd0_3 Pt0_5 2.892343 1_455
Cd0_3 Pt1_3 2.892343 1_555
Cd0_3 Pt1_7 2.892343 1_455
Cd0_3 Pt1_1 2.892343 1_555
Cd0_3 Pt1_5 2.892343 1_455
Cd0_3 Cd0_7 2.924056 1_455
Cd0_3 Cd0_7 2.924056 1_555
Cd0_4 Pt1_4 2.892343 1_555
Cd0_4 Pt0_2 2.892343 1_545
Cd0_4 Pt0_0 2.892343 1_555
Cd0_4 Pt0_4 2.892343 1_555
Cd0_4 Pt0_6 2.892343 1_545
Cd0_4 Pt1_2 2.892343 1_545
Cd0_4 Pt1_6 2.892343 1_545
Cd0_4 Pt1_0 2.892343 1_555
Cd0_4 Cd0_6 2.924056 1_545
Cd0_4 Cd0_6 2.924056 1_555
Cd0_5 Pt0_1 2.892343 1_555
Cd0_5 Pt0_5 2.892343 1_555
Cd0_5 Pt0_3 2.892343 1_545
Cd0_5 Pt0_7 2.892343 1_545
Cd0_5 Pt1_1 2.892343 1_555
Cd0_5 Pt1_7 2.892343 1_545
Cd0_5 Pt1_3 2.892343 1_545
Cd0_5 Pt1_5 2.892343 1_555
Cd0_5 Cd0_7 2.924056 1_545
Cd0_5 Cd0_7 2.924056 1_555
Cd0_6 Pt1_4 2.892343 1_555
Cd0_6 Pt0_6 2.892343 1_555
Cd0_6 Pt1_2 2.892343 1_555
Cd0_6 Pt0_0 2.892343 1_555
Cd0_6 Pt0_4 2.892343 1_555
Cd0_6 Pt1_6 2.892343 1_555
Cd0_6 Pt0_2 2.892343 1_555
Cd0_6 Pt1_0 2.892343 1_555
Cd0_7 Pt0_1 2.892343 1_555
Cd0_7 Pt0_5 2.892343 1_555
Cd0_7 Pt0_3 2.892343 1_555
Cd0_7 Pt0_7 2.892343 1_555
Cd0_7 Pt1_3 2.892343 1_555
Cd0_7 Pt1_5 2.892343 1_555
Cd0_7 Pt1_7 2.892343 1_555
Cd0_7 Pt1_1 2.892343 1_555
Pt0_0 Zn0_4 2.636332 1_555
Pt0_0 Zn0_2 2.636332 1_555
Pt0_0 Zn0_6 2.636332 1_555
Pt0_0 Zn0_0 2.636332 1_555
Pt0_1 Zn0_3 2.636332 1_555
Pt0_1 Zn0_1 2.636332 1_555
Pt0_1 Zn0_7 2.636332 1_555
Pt0_1 Zn0_5 2.636332 1_555
Pt0_2 Zn0_4 2.636332 1_565
Pt0_2 Zn0_2 2.636332 1_555
Pt0_2 Zn0_6 2.636332 1_555
Pt0_2 Zn0_0 2.636332 1_565
Pt0_3 Zn0_1 2.636332 1_565
Pt0_3 Zn0_3 2.636332 1_555
Pt0_3 Zn0_5 2.636332 1_565
Pt0_3 Zn0_7 2.636332 1_555
Pt0_4 Zn0_4 2.636332 1_555
Pt0_4 Zn0_0 2.636332 1_655
Pt0_4 Zn0_6 2.636332 1_555
Pt0_4 Zn0_2 2.636332 1_655
Pt0_5 Zn0_3 2.636332 1_655
Pt0_5 Zn0_7 2.636332 1_555
Pt0_5 Zn0_1 2.636332 1_655
Pt0_5 Zn0_5 2.636332 1_555
Pt0_6 Zn0_4 2.636332 1_565
Pt0_6 Zn0_6 2.636332 1_555
Pt0_6 Zn0_0 2.636332 1_665
Pt0_6 Zn0_2 2.636332 1_655
Pt0_7 Zn0_1 2.636332 1_665
Pt0_7 Zn0_3 2.636332 1_655
Pt0_7 Zn0_5 2.636332 1_565
Pt0_7 Zn0_7 2.636332 1_555
Pt1_0 Zn0_5 2.636332 1_555
Pt1_0 Zn0_1 2.636332 1_555
Pt1_0 Zn0_3 2.636332 1_555
Pt1_0 Zn0_7 2.636332 1_555
Pt1_1 Zn0_0 2.636332 1_556
Pt1_1 Zn0_2 2.636332 1_556
Pt1_1 Zn0_4 2.636332 1_556
Pt1_1 Zn0_6 2.636332 1_556
Pt1_2 Zn0_5 2.636332 1_565
Pt1_2 Zn0_1 2.636332 1_565
Pt1_2 Zn0_3 2.636332 1_555
Pt1_2 Zn0_7 2.636332 1_555
Pt1_3 Zn0_4 2.636332 1_566
Pt1_3 Zn0_2 2.636332 1_556
Pt1_3 Zn0_0 2.636332 1_566
Pt1_3 Zn0_6 2.636332 1_556
Pt1_4 Zn0_3 2.636332 1_655
Pt1_4 Zn0_1 2.636332 1_655
Pt1_4 Zn0_5 2.636332 1_555
Pt1_4 Zn0_7 2.636332 1_555
Pt1_5 Zn0_2 2.636332 1_656
Pt1_5 Zn0_0 2.636332 1_656
Pt1_5 Zn0_4 2.636332 1_556
Pt1_5 Zn0_6 2.636332 1_556
Pt1_6 Zn0_3 2.636332 1_655
Pt1_6 Zn0_5 2.636332 1_565
Pt1_6 Zn0_1 2.636332 1_665
Pt1_6 Zn0_7 2.636332 1_555
Pt1_7 Zn0_4 2.636332 1_566
Pt1_7 Zn0_2 2.636332 1_656
Pt1_7 Zn0_0 2.636332 1_666
Pt1_7 Zn0_6 2.636332 1_556
