# generated using pymatgen
data_K3B2Pt7
_symmetry_space_group_name_H-M   'P 1'
_cell_length_a   8.25410570
_cell_length_b   8.25410578
_cell_length_c   8.25410457
_cell_angle_alpha   39.92176993
_cell_angle_beta   39.92176938
_cell_angle_gamma   39.92176943
_symmetry_Int_Tables_number   1
_chemical_formula_structural   K3B2Pt7
_chemical_formula_sum   'K3 B2 Pt7'
_cell_volume   208.64226861
_cell_formula_units_Z   1
loop_
 _symmetry_equiv_pos_site_id
 _symmetry_equiv_pos_as_xyz
  1  'x, y, z'
loop_
 _atom_site_type_symbol
 _atom_site_label
 _atom_site_symmetry_multiplicity
 _atom_site_fract_x
 _atom_site_fract_y
 _atom_site_fract_z
 _atom_site_occupancy
  K  K0  1  0.85733107  0.85733107  0.85733107  1
  K  K1  1  0.14266893  0.14266893  0.14266893  1
  K  K2  1  0.00000000  0.00000000  0.00000000  1
  B  B0  1  0.66953115  0.66953115  0.66953115  1
  B  B1  1  0.33046885  0.33046885  0.33046885  1
  Pt  Pt0  1  0.44062454  0.92762259  0.44062454  1
  Pt  Pt1  1  0.44062454  0.44062454  0.92762259  1
  Pt  Pt2  1  0.92762259  0.44062454  0.44062454  1
  Pt  Pt3  1  0.55937546  0.07237741  0.55937546  1
  Pt  Pt4  1  0.55937546  0.55937546  0.07237741  1
  Pt  Pt5  1  0.07237741  0.55937546  0.55937546  1
  Pt  Pt6  1  0.50000000  0.50000000  0.50000000  1
loop_
_geom_bond_atom_site_label_1
_geom_bond_atom_site_label_2
_geom_bond_distance
_geom_bond_site_symmetry_2
K0 K2 3.246758 1_666
K0 Pt6 3.299200 1_655
K0 Pt6 3.299200 1_556
K0 Pt6 3.299200 1_565
K0 Pt3 3.336651 1_565
K0 Pt5 3.336651 1_655
K0 Pt4 3.336652 1_556
K0 Pt0 3.342230 1_556
K0 Pt2 3.342230 1_556
K0 Pt1 3.342231 1_655
K0 Pt1 3.342231 1_565
K0 Pt0 3.342231 1_655
K0 Pt2 3.342231 1_565
K1 K2 3.246758 1_555
K1 Pt6 3.299200 1_455
K1 Pt6 3.299200 1_554
K1 Pt6 3.299200 1_545
K1 Pt0 3.336651 1_545
K1 Pt2 3.336651 1_455
K1 Pt1 3.336652 1_554
K1 Pt3 3.342230 1_554
K1 Pt5 3.342230 1_554
K1 Pt4 3.342231 1_455
K1 Pt4 3.342231 1_545
K1 Pt3 3.342231 1_455
K1 Pt5 3.342231 1_545
K2 Pt3 3.169182 1_455
K2 Pt0 3.169182 1_544
K2 Pt5 3.169182 1_545
K2 Pt2 3.169182 1_454
K2 Pt4 3.169183 1_545
K2 Pt1 3.169183 1_454
K2 Pt4 3.169183 1_455
K2 Pt1 3.169183 1_544
K2 Pt3 3.169183 1_554
K2 Pt0 3.169183 1_445
K2 Pt5 3.169183 1_554
K2 Pt2 3.169183 1_445
B0 Pt4 2.168721 1_556
B0 Pt5 2.168721 1_655
B0 Pt3 2.168722 1_565
B0 Pt2 2.192285 1_555
B0 Pt0 2.192285 1_555
B0 Pt1 2.192285 1_555
B0 K2 3.254339 1_665
B0 K2 3.254339 1_566
B0 K2 3.254339 1_656
B1 Pt1 2.168721 1_554
B1 Pt2 2.168721 1_455
B1 Pt0 2.168722 1_545
B1 Pt5 2.192285 1_555
B1 Pt3 2.192285 1_555
B1 Pt4 2.192285 1_555
B1 K2 3.254339 1_556
B1 K2 3.254339 1_655
B1 K2 3.254339 1_565
Pt0 Pt6 2.828522 1_555
Pt1 Pt6 2.828522 1_555
Pt2 Pt6 2.828522 1_555
Pt3 Pt6 2.828522 1_555
Pt4 Pt6 2.828522 1_555
Pt5 Pt6 2.828522 1_555
