# generated using pymatgen
data_K9Rb3(AlTe3)4
_symmetry_space_group_name_H-M   'P 1'
_cell_length_a   14.28261112
_cell_length_b   8.72924215
_cell_length_c   11.15907446
_cell_angle_alpha   53.04576120
_cell_angle_beta   89.79859251
_cell_angle_gamma   89.88196697
_symmetry_Int_Tables_number   1
_chemical_formula_structural   K9Rb3(AlTe3)4
_chemical_formula_sum   'K9 Rb3 Al4 Te12'
_cell_volume   1111.78145036
_cell_formula_units_Z   1
loop_
 _symmetry_equiv_pos_site_id
 _symmetry_equiv_pos_as_xyz
  1  'x, y, z'
loop_
 _atom_site_type_symbol
 _atom_site_label
 _atom_site_symmetry_multiplicity
 _atom_site_fract_x
 _atom_site_fract_y
 _atom_site_fract_z
 _atom_site_occupancy
  K  K0  1  0.89616714  0.31055816  0.40515499  1
  K  K1  1  0.61208181  0.35984990  0.47491212  1
  K  K2  1  0.11109008  0.64175674  0.02459614  1
  K  K3  1  0.38733970  0.64388374  0.52479466  1
  K  K4  1  0.88989318  0.35450030  0.97692299  1
  K  K5  1  0.60828814  0.31054144  0.90585084  1
  K  K6  1  0.10580065  0.68425225  0.59588857  1
  K  K7  1  0.39116547  0.69401996  0.09218296  1
  K  K8  1  0.18686929  0.15726908  0.56220040  1
  Rb  Rb0  1  0.31133224  0.16392285  0.06250351  1
  Rb  Rb1  1  0.68592525  0.83947272  0.93843024  1
  Rb  Rb2  1  0.81342072  0.83905916  0.44076561  1
  Al  Al0  1  0.06802208  0.94562827  0.15783295  1
  Al  Al1  1  0.56621870  0.05084529  0.34311936  1
  Al  Al2  1  0.43141735  0.95710839  0.65482342  1
  Al  Al3  1  0.93407388  0.04735141  0.84278018  1
  Te  Te0  1  0.40389033  0.19101008  0.35704346  1
  Te  Te1  1  0.90388972  0.81483435  0.14070413  1
  Te  Te2  1  0.59336505  0.81546277  0.64153150  1
  Te  Te3  1  0.09858429  0.17735695  0.85891029  1
  Te  Te4  1  0.69557936  0.31458160  0.20352729  1
  Te  Te5  1  0.19355970  0.67423826  0.30227748  1
  Te  Te6  1  0.30158710  0.69547996  0.79289868  1
  Te  Te7  1  0.80740410  0.31544816  0.70186719  1
  Te  Te8  1  0.55349370  0.85671029  0.23730447  1
  Te  Te9  1  0.05846276  0.14318290  0.26164815  1
  Te  Te10  1  0.44535262  0.14884722  0.76230846  1
  Te  Te11  1  0.94572455  0.85282977  0.73721995  1
loop_
_geom_bond_atom_site_label_1
_geom_bond_atom_site_label_2
_geom_bond_distance
_geom_bond_site_symmetry_2
K0 Te11 3.521622 1_545
K0 Te1 3.532519 1_555
K0 Te7 3.565417 1_555
K0 Te9 3.584060 1_655
K0 Te4 3.636108 1_555
K1 Te4 3.487278 1_555
K1 Te10 3.494367 1_555
K1 Te8 3.565884 1_555
K1 Te7 3.634802 1_555
K1 Te0 3.888500 1_555
K1 Te2 3.935610 1_545
K2 Te5 3.486108 1_555
K2 Te11 3.491147 1_454
K2 Te9 3.558235 1_555
K2 Te6 3.578482 1_554
K2 Te3 3.861981 1_564
K2 Te1 3.876524 1_455
K3 Te8 3.489082 1_555
K3 Te6 3.499410 1_555
K3 Te10 3.551715 1_555
K3 Te5 3.626322 1_555
K3 Te2 3.871694 1_555
K3 Te0 3.952495 1_565
K4 Te7 3.494343 1_555
K4 Te9 3.504700 1_656
K4 Te11 3.566875 1_555
K4 Te4 3.621222 1_556
K4 Te1 3.901185 1_546
K4 Te3 3.925754 1_655
K5 Te8 3.515933 1_546
K5 Te2 3.541403 1_555
K5 Te10 3.568156 1_555
K5 Te4 3.572127 1_556
K5 Te7 3.620600 1_555
K6 Te9 3.529663 1_565
K6 Te3 3.548076 1_555
K6 Te5 3.553694 1_555
K6 Te11 3.554045 1_455
K6 Te6 3.600797 1_555
K7 Te10 3.511819 1_564
K7 Te0 3.527779 1_555
K7 Te6 3.573470 1_554
K7 Te8 3.580487 1_555
K7 Te5 3.600079 1_555
K8 Te5 3.612323 1_555
K8 Te6 3.617533 1_545
K8 Te3 3.640234 1_555
K8 Te0 3.752166 1_555
K8 Te9 3.894505 1_555
Rb0 Te0 3.684127 1_555
Rb0 Te6 3.717078 1_554
Rb0 Te3 3.759672 1_554
Rb0 Te5 3.808792 1_545
Rb0 Te10 3.922637 1_554
Rb0 Te8 4.083975 1_545
Rb0 Te9 4.180634 1_555
Rb1 Te4 3.669760 1_556
Rb1 Te2 3.692585 1_555
Rb1 Te7 3.748610 1_565
Rb1 Te1 3.780940 1_556
Rb1 Te8 3.909150 1_556
Rb1 Te10 4.073033 1_565
Rb2 Te7 3.657294 1_555
Rb2 Te1 3.707556 1_555
Rb2 Te4 3.723100 1_565
Rb2 Te2 3.786584 1_555
Rb2 Te11 3.879706 1_555
Rb2 Te9 4.111065 1_665
Al0 Te9 2.595113 1_565
Al0 Te5 2.614735 1_555
Al0 Te1 2.666854 1_455
Al0 Te3 2.699950 1_564
Al0 Rb0 3.795143 1_565
Al1 Te8 2.589959 1_545
Al1 Te4 2.612614 1_555
Al1 Te0 2.666618 1_555
Al1 Te2 2.690751 1_545
Al1 Rb2 3.827397 1_545
Al2 Te10 2.587752 1_565
Al2 Te6 2.606676 1_555
Al2 Te2 2.665948 1_555
Al2 Te0 2.685825 1_565
Al3 Te11 2.588622 1_545
Al3 Te7 2.607788 1_555
Al3 Te3 2.664704 1_655
Al3 Te1 2.690433 1_546
Al3 Rb1 3.829446 1_545
