# generated using pymatgen
data_Tb3ReO7
_symmetry_space_group_name_H-M   'P 1'
_cell_length_a   6.48227996
_cell_length_b   6.48227996
_cell_length_c   7.46541000
_cell_angle_alpha   90.00000000
_cell_angle_beta   90.00000000
_cell_angle_gamma   109.91978827
_symmetry_Int_Tables_number   1
_chemical_formula_structural   Tb3ReO7
_chemical_formula_sum   'Tb6 Re2 O14'
_cell_volume   294.92789974
_cell_formula_units_Z   2
loop_
 _symmetry_equiv_pos_site_id
 _symmetry_equiv_pos_as_xyz
  1  'x, y, z'
loop_
 _atom_site_type_symbol
 _atom_site_label
 _atom_site_symmetry_multiplicity
 _atom_site_fract_x
 _atom_site_fract_y
 _atom_site_fract_z
 _atom_site_occupancy
  Tb  Tb0  1  0.50000000  0.50000000  0.00000000  1
  Tb  Tb1  1  0.50000000  0.50000000  0.50000000  1
  Tb  Tb2  1  0.44510800  0.98050100  0.75000000  1
  Tb  Tb3  1  0.55489200  0.01949900  0.25000000  1
  Tb  Tb4  1  0.98050100  0.44510800  0.75000000  1
  Tb  Tb5  1  0.01949900  0.55489200  0.25000000  1
  Re  Re0  1  0.00000000  0.00000000  0.00000000  1
  Re  Re1  1  0.00000000  0.00000000  0.50000000  1
  O  O0  1  0.61222800  0.34523500  0.75000000  1
  O  O1  1  0.38777200  0.65476500  0.25000000  1
  O  O2  1  0.34523500  0.61222800  0.75000000  1
  O  O3  1  0.65476500  0.38777200  0.25000000  1
  O  O4  1  0.32313200  0.06958800  0.02892700  1
  O  O5  1  0.67686800  0.93041200  0.52892700  1
  O  O6  1  0.06958800  0.32313200  0.47107300  1
  O  O7  1  0.93041200  0.67686800  0.97107300  1
  O  O8  1  0.95017700  0.95017700  0.25000000  1
  O  O9  1  0.04982300  0.04982300  0.75000000  1
  O  O10  1  0.06958800  0.32313200  0.02892700  1
  O  O11  1  0.93041200  0.67686800  0.52892700  1
  O  O12  1  0.32313200  0.06958800  0.47107300  1
  O  O13  1  0.67686800  0.93041200  0.97107300  1
loop_
_geom_bond_atom_site_label_1
_geom_bond_atom_site_label_2
_geom_bond_distance
_geom_bond_site_symmetry_2
O0 Tb2 2.240143 1_545
O0 Tb4 2.250547 1_555
O0 Tb0 2.348683 1_556
O0 Tb1 2.348683 1_555
O1 Tb3 2.240143 1_565
O1 Tb5 2.250547 1_555
O1 Tb0 2.348683 1_555
O1 Tb1 2.348683 1_555
O2 Tb4 2.240143 1_455
O2 Tb2 2.250547 1_555
O2 Tb0 2.348683 1_556
O2 Tb1 2.348683 1_555
O3 Tb5 2.240143 1_655
O3 Tb3 2.250547 1_555
O3 Tb0 2.348683 1_555
O3 Tb1 2.348683 1_555
O4 Re0 1.998440 1_555
O4 Tb3 2.327797 1_555
O4 Tb2 2.367657 1_544
O4 Tb0 2.639280 1_555
O5 Re1 1.998440 1_665
O5 Tb2 2.327797 1_555
O5 Tb3 2.367657 1_565
O5 Tb1 2.639280 1_555
O6 Re1 1.998440 1_555
O6 Tb5 2.327797 1_555
O6 Tb4 2.367657 1_455
O6 Tb1 2.639280 1_555
O7 Re0 1.998440 1_666
O7 Tb4 2.327797 1_555
O7 Tb5 2.367657 1_656
O7 Tb0 2.639280 1_556
O8 Re0 1.902843 1_665
O8 Re1 1.902843 1_665
O8 Tb5 2.748117 1_655
O8 Tb3 2.748117 1_565
O9 Re0 1.902843 1_556
O9 Re1 1.902843 1_555
O9 Tb2 2.748117 1_545
O9 Tb4 2.748117 1_455
O10 Re0 1.998440 1_555
O10 Tb5 2.327797 1_555
O10 Tb4 2.367657 1_454
O10 Tb0 2.639280 1_555
O11 Re1 1.998440 1_665
O11 Tb4 2.327797 1_555
O11 Tb5 2.367657 1_655
O11 Tb1 2.639280 1_555
O12 Re1 1.998440 1_555
O12 Tb3 2.327797 1_555
O12 Tb2 2.367657 1_545
O12 Tb1 2.639280 1_555
O13 Re0 1.998440 1_666
O13 Tb2 2.327797 1_555
O13 Tb3 2.367657 1_566
O13 Tb0 2.639280 1_556
