# generated using pymatgen
data_Rb6MgS4
_symmetry_space_group_name_H-M   'P 1'
_cell_length_a   10.28452340
_cell_length_b   10.28452358
_cell_length_c   8.05781694
_cell_angle_alpha   90.00000000
_cell_angle_beta   90.00000000
_cell_angle_gamma   120.00000571
_symmetry_Int_Tables_number   1
_chemical_formula_structural   Rb6MgS4
_chemical_formula_sum   'Rb12 Mg2 S8'
_cell_volume   738.10194869
_cell_formula_units_Z   2
loop_
 _symmetry_equiv_pos_site_id
 _symmetry_equiv_pos_as_xyz
  1  'x, y, z'
loop_
 _atom_site_type_symbol
 _atom_site_label
 _atom_site_symmetry_multiplicity
 _atom_site_fract_x
 _atom_site_fract_y
 _atom_site_fract_z
 _atom_site_occupancy
  Rb  Rb0  1  0.53007324  0.06014548  0.36543283  1
  Rb  Rb1  1  0.46992676  0.53007324  0.86543283  1
  Rb  Rb2  1  0.93985452  0.46992676  0.36543283  1
  Rb  Rb3  1  0.53007324  0.46992676  0.36543283  1
  Rb  Rb4  1  0.14670785  0.85329215  0.54324346  1
  Rb  Rb5  1  0.29341469  0.14670785  0.04324346  1
  Rb  Rb6  1  0.06014548  0.53007324  0.86543283  1
  Rb  Rb7  1  0.85329215  0.70658531  0.04324346  1
  Rb  Rb8  1  0.85329215  0.14670785  0.04324346  1
  Rb  Rb9  1  0.70658531  0.85329215  0.54324346  1
  Rb  Rb10  1  0.14670785  0.29341469  0.54324346  1
  Rb  Rb11  1  0.46992676  0.93985452  0.86543283  1
  Mg  Mg0  1  0.66666700  0.33333300  0.75190510  1
  Mg  Mg1  1  0.33333300  0.66666700  0.25190510  1
  S  S0  1  0.80095008  0.19904992  0.65503159  1
  S  S1  1  0.60190116  0.80095008  0.15503159  1
  S  S2  1  0.19904992  0.39809884  0.15503159  1
  S  S3  1  0.80095008  0.60190116  0.65503159  1
  S  S4  1  0.39809884  0.19904992  0.65503159  1
  S  S5  1  0.19904992  0.80095008  0.15503159  1
  S  S6  1  0.66666700  0.33333300  0.06407227  1
  S  S7  1  0.33333300  0.66666700  0.56407227  1
loop_
_geom_bond_atom_site_label_1
_geom_bond_atom_site_label_2
_geom_bond_distance
_geom_bond_site_symmetry_2
Rb0 S0 3.356684 1_555
Rb0 S4 3.356697 1_555
Rb0 S6 3.437599 1_555
Rb0 S5 3.534848 1_545
Rb0 S1 3.534849 1_545
Rb1 S2 3.356683 1_556
Rb1 S1 3.356683 1_556
Rb1 S7 3.437599 1_555
Rb1 S3 3.534849 1_555
Rb1 S4 3.534849 1_555
Rb2 S0 3.356684 1_555
Rb2 S3 3.356697 1_555
Rb2 S6 3.437599 1_555
Rb2 S5 3.534848 1_655
Rb2 S2 3.534849 1_655
Rb3 S3 3.356683 1_555
Rb3 S4 3.356683 1_555
Rb3 S6 3.437599 1_555
Rb3 S2 3.534849 1_555
Rb3 S1 3.534849 1_555
Rb4 S5 3.264139 1_555
Rb4 S3 3.308622 1_455
Rb4 S4 3.308622 1_565
Rb4 S7 3.328647 1_555
Rb5 S4 3.264139 1_554
Rb5 S2 3.308608 1_555
Rb5 S5 3.308627 1_545
Rb5 S6 3.328665 1_555
Rb6 S5 3.356684 1_556
Rb6 S2 3.356697 1_556
Rb6 S7 3.437599 1_555
Rb6 S0 3.534848 1_455
Rb6 S3 3.534849 1_455
Rb7 S3 3.264139 1_554
Rb7 S1 3.308608 1_555
Rb7 S5 3.308627 1_655
Rb7 S6 3.328665 1_555
Rb8 S0 3.264139 1_554
Rb8 S2 3.308622 1_655
Rb8 S1 3.308622 1_545
Rb8 S6 3.328647 1_555
Rb9 S1 3.264139 1_555
Rb9 S3 3.308608 1_555
Rb9 S0 3.308627 1_565
Rb9 S7 3.328665 1_555
Rb10 S2 3.264139 1_555
Rb10 S4 3.308608 1_555
Rb10 S0 3.308627 1_455
Rb10 S7 3.328665 1_555
Rb11 S5 3.356684 1_556
Rb11 S1 3.356697 1_556
Rb11 S7 3.437599 1_555
Rb11 S0 3.534848 1_565
Rb11 S4 3.534849 1_565
Mg0 S6 2.515386 1_556
Mg0 S0 2.516170 1_555
Mg0 S4 2.516187 1_555
Mg0 S3 2.516187 1_555
Mg1 S7 2.515386 1_555
Mg1 S5 2.516170 1_555
Mg1 S1 2.516187 1_555
Mg1 S2 2.516187 1_555
