# generated using pymatgen
data_K2Ba(SeO4)2
_symmetry_space_group_name_H-M   'P 1'
_cell_length_a   7.94387172
_cell_length_b   7.94387140
_cell_length_c   7.94387054
_cell_angle_alpha   42.57182213
_cell_angle_beta   42.57182448
_cell_angle_gamma   42.57182123
_symmetry_Int_Tables_number   1
_chemical_formula_structural   K2Ba(SeO4)2
_chemical_formula_sum   'K2 Ba1 Se2 O8'
_cell_volume   207.77462485
_cell_formula_units_Z   1
loop_
 _symmetry_equiv_pos_site_id
 _symmetry_equiv_pos_as_xyz
  1  'x, y, z'
loop_
 _atom_site_type_symbol
 _atom_site_label
 _atom_site_symmetry_multiplicity
 _atom_site_fract_x
 _atom_site_fract_y
 _atom_site_fract_z
 _atom_site_occupancy
  K  K0  1  0.20060453  0.20060453  0.20060453  1
  K  K1  1  0.79939547  0.79939547  0.79939547  1
  Ba  Ba0  1  0.00000000  0.00000000  0.00000000  1
  Se  Se0  1  0.40625035  0.40625035  0.40625035  1
  Se  Se1  1  0.59374965  0.59374965  0.59374965  1
  O  O0  1  0.74412604  0.27519714  0.27519714  1
  O  O1  1  0.27519714  0.74412604  0.27519714  1
  O  O2  1  0.72480286  0.72480286  0.25587396  1
  O  O3  1  0.32956915  0.32956915  0.32956915  1
  O  O4  1  0.67043085  0.67043085  0.67043085  1
  O  O5  1  0.27519714  0.27519714  0.74412604  1
  O  O6  1  0.72480186  0.25587396  0.72480286  1
  O  O7  1  0.25587396  0.72480186  0.72480286  1
loop_
_geom_bond_atom_site_label_1
_geom_bond_atom_site_label_2
_geom_bond_distance
_geom_bond_site_symmetry_2
K0 O3 2.790379 1_555
K0 O5 2.835353 1_554
K0 O1 2.835353 1_545
K0 O0 2.835353 1_455
K0 O7 2.980938 1_554
K0 O6 2.980938 1_554
K0 O2 2.980943 1_455
K0 O2 2.980943 1_545
K0 O7 2.980943 1_545
K0 O6 2.980943 1_455
K1 O4 2.790379 1_555
K1 O6 2.835349 1_565
K1 O7 2.835349 1_655
K1 O2 2.835353 1_556
K1 O0 2.980942 1_565
K1 O1 2.980942 1_655
K1 O5 2.980943 1_655
K1 O0 2.980943 1_556
K1 O5 2.980943 1_565
K1 O1 2.980943 1_556
Ba0 O0 2.763943 1_455
Ba0 O1 2.763943 1_545
Ba0 O5 2.763943 1_554
Ba0 O2 2.763943 1_445
Ba0 O7 2.763949 1_544
Ba0 O6 2.763949 1_454
O0 Se0 1.654360 1_555
O1 Se0 1.654360 1_555
O2 Se1 1.654359 1_555
O3 Se0 1.659134 1_555
O4 Se1 1.659134 1_555
O5 Se0 1.654359 1_555
O6 Se1 1.654360 1_555
O7 Se1 1.654360 1_555
