# generated using pymatgen
data_Ba5B4O11
_symmetry_space_group_name_H-M   'P 1'
_cell_length_a   9.73823651
_cell_length_b   16.92448432
_cell_length_c   23.20322047
_cell_angle_alpha   90.00000000
_cell_angle_beta   90.00000000
_cell_angle_gamma   90.00000000
_symmetry_Int_Tables_number   1
_chemical_formula_structural   Ba5B4O11
_chemical_formula_sum   'Ba60 B48 O132'
_cell_volume   3824.23022251
_cell_formula_units_Z   12
loop_
 _symmetry_equiv_pos_site_id
 _symmetry_equiv_pos_as_xyz
  1  'x, y, z'
loop_
 _atom_site_type_symbol
 _atom_site_label
 _atom_site_symmetry_multiplicity
 _atom_site_fract_x
 _atom_site_fract_y
 _atom_site_fract_z
 _atom_site_occupancy
  B  B0  1  0.12382048  0.99161448  0.15799968  1
  B  B1  1  0.62382048  0.50838552  0.84200032  1
  B  B2  1  0.87617952  0.49161448  0.34200032  1
  B  B3  1  0.37617952  0.00838552  0.65799968  1
  B  B4  1  0.05897146  0.69059990  0.49137253  1
  B  B5  1  0.55897146  0.80940010  0.50862747  1
  B  B6  1  0.94102854  0.19059990  0.00862747  1
  B  B7  1  0.44102854  0.30940010  0.99137253  1
  B  B8  1  0.07549758  0.30510022  0.50769849  1
  B  B9  1  0.57549758  0.19489978  0.49230151  1
  B  B10  1  0.92450242  0.80510022  0.99230151  1
  B  B11  1  0.42450242  0.69489978  0.00769849  1
  B  B12  1  0.13641089  0.00725699  0.84046626  1
  B  B13  1  0.63641089  0.49274301  0.15953374  1
  B  B14  1  0.86358911  0.50725699  0.65953374  1
  B  B15  1  0.36358911  0.99274301  0.34046626  1
  B  B16  1  0.10994468  0.00460747  0.51508733  1
  B  B17  1  0.60994468  0.49539253  0.48491267  1
  B  B18  1  0.89005532  0.50460747  0.98491267  1
  B  B19  1  0.39005532  0.99539253  0.01508733  1
  B  B20  1  0.22552859  0.57631570  0.76139063  1
  B  B21  1  0.72552859  0.92368430  0.23860937  1
  B  B22  1  0.77447141  0.07631570  0.73860937  1
  B  B23  1  0.27447141  0.42368430  0.26139063  1
  B  B24  1  0.06745502  0.32522625  0.15119912  1
  B  B25  1  0.56745502  0.17477375  0.84880088  1
  B  B26  1  0.93254498  0.82522625  0.34880088  1
  B  B27  1  0.43254498  0.67477375  0.65119912  1
  B  B28  1  0.07238640  0.68514992  0.81535615  1
  B  B29  1  0.57238640  0.81485008  0.18464385  1
  B  B30  1  0.92761360  0.18514992  0.68464385  1
  B  B31  1  0.42761360  0.31485008  0.31535615  1
  B  B32  1  0.05542657  0.31665489  0.82464440  1
  B  B33  1  0.55542657  0.18334511  0.17535560  1
  B  B34  1  0.94457343  0.81665489  0.67535560  1
  B  B35  1  0.44457343  0.68334511  0.32464440  1
  B  B36  1  0.04865795  0.68692511  0.17322073  1
  B  B37  1  0.54865795  0.81307489  0.82677927  1
  B  B38  1  0.95134205  0.18692511  0.32677927  1
  B  B39  1  0.45134205  0.31307489  0.67322073  1
  B  B40  1  0.12817762  0.52943231  0.92865638  1
  B  B41  1  0.62817762  0.97056769  0.07134362  1
  B  B42  1  0.87182238  0.02943231  0.57134362  1
  B  B43  1  0.37182238  0.47056769  0.42865638  1
  B  B44  1  0.15037978  0.45556437  0.09289157  1
  B  B45  1  0.65037978  0.04443563  0.90710843  1
  B  B46  1  0.84962022  0.95556437  0.40710843  1
  B  B47  1  0.34962022  0.54443563  0.59289157  1
  O  O0  1  0.10632343  0.34831213  0.55706780  1
  O  O1  1  0.60632343  0.15168787  0.44293220  1
  O  O2  1  0.89367657  0.84831213  0.94293220  1
  O  O3  1  0.39367657  0.65168787  0.05706780  1
  O  O4  1  0.14054513  0.26649988  0.85725840  1
  O  O5  1  0.64054513  0.23350012  0.14274160  1
  O  O6  1  0.85945487  0.76649988  0.64274160  1
  O  O7  1  0.35945487  0.73350012  0.35725840  1
  O  O8  1  0.09094127  0.65844906  0.43804903  1
  O  O9  1  0.59094127  0.84155094  0.56195097  1
  O  O10  1  0.90905873  0.15844906  0.06195097  1
  O  O11  1  0.40905873  0.34155094  0.93804903  1
  O  O12  1  0.13920895  0.74977381  0.51537836  1
  O  O13  1  0.63920895  0.75022619  0.48462164  1
  O  O14  1  0.86079105  0.24977381  0.98462164  1
  O  O15  1  0.36079105  0.25022619  0.01537836  1
  O  O16  1  0.11206696  0.35436100  0.77682233  1
  O  O17  1  0.61206696  0.14563900  0.22317767  1
  O  O18  1  0.88793304  0.85436100  0.72317767  1
  O  O19  1  0.38793304  0.64563900  0.27682233  1
  O  O20  1  0.08096538  0.82685575  0.66066356  1
  O  O21  1  0.58096538  0.67314425  0.33933644  1
  O  O22  1  0.91903462  0.32685575  0.83933644  1
  O  O23  1  0.41903462  0.17314425  0.16066356  1
  O  O24  1  0.04174387  0.82471422  0.02411598  1
  O  O25  1  0.54174387  0.67528578  0.97588402  1
  O  O26  1  0.95825613  0.32471422  0.47588402  1
  O  O27  1  0.45825613  0.17528578  0.52411598  1
  O  O28  1  0.23485718  0.57770054  0.94386487  1
  O  O29  1  0.73485718  0.92229946  0.05613513  1
  O  O30  1  0.76514282  0.07770054  0.55613513  1
  O  O31  1  0.26514282  0.42229946  0.44386487  1
  O  O32  1  0.05163377  0.00063698  0.88844463  1
  O  O33  1  0.55163377  0.49936302  0.11155537  1
  O  O34  1  0.94836623  0.50063698  0.61155537  1
  O  O35  1  0.44836623  0.99936302  0.38844463  1
  O  O36  1  0.15362906  0.45740614  0.27893810  1
  O  O37  1  0.65362906  0.04259386  0.72106190  1
  O  O38  1  0.84637094  0.95740614  0.22106190  1
  O  O39  1  0.34637094  0.54259386  0.77893810  1
  O  O40  1  0.16088415  0.92108435  0.18444551  1
  O  O41  1  0.66088415  0.57891565  0.81555449  1
  O  O42  1  0.83911585  0.42108435  0.31555449  1
  O  O43  1  0.33911585  0.07891565  0.68444551  1
  O  O44  1  0.15945393  0.72721420  0.14791051  1
  O  O45  1  0.65945393  0.77278580  0.85208949  1
  O  O46  1  0.84054607  0.22721420  0.35208949  1
  O  O47  1  0.34054607  0.27278580  0.64791051  1
  O  O48  1  0.24529007  0.42791609  0.05489160  1
  O  O49  1  0.74529007  0.07208391  0.94510840  1
  O  O50  1  0.75470993  0.92791609  0.44510840  1
  O  O51  1  0.25470993  0.57208391  0.55489160  1
  O  O52  1  0.10224823  0.92435028  0.51312366  1
  O  O53  1  0.60224823  0.57564972  0.48687634  1
  O  O54  1  0.89775177  0.42435028  0.98687634  1
  O  O55  1  0.39775177  0.07564972  0.01312366  1
  O  O56  1  0.06539445  0.64752126  0.22522414  1
  O  O57  1  0.56539445  0.85247874  0.77477586  1
  O  O58  1  0.93460555  0.14752126  0.27477586  1
  O  O59  1  0.43460555  0.35247874  0.72522414  1
  O  O60  1  0.05919981  0.16432081  0.97937568  1
  O  O61  1  0.55919981  0.33567919  0.02062432  1
  O  O62  1  0.94080019  0.66432081  0.52062432  1
  O  O63  1  0.44080019  0.83567919  0.47937568  1
  O  O64  1  0.15839785  0.24243135  0.49073150  1
  O  O65  1  0.65839785  0.25756865  0.50926850  1
  O  O66  1  0.84160215  0.74243135  0.00926850  1
  O  O67  1  0.34160215  0.75756865  0.99073150  1
  O  O68  1  0.07975272  0.18982913  0.35340816  1
  O  O69  1  0.57975272  0.31017087  0.64659184  1
  O  O70  1  0.92024728  0.68982913  0.14659184  1
  O  O71  1  0.42024728  0.81017087  0.85340816  1
  O  O72  1  0.99694179  0.55054363  0.95615283  1
  O  O73  1  0.49694179  0.94945637  0.04384717  1
  O  O74  1  0.00305821  0.05054363  0.54384717  1
  O  O75  1  0.50305821  0.44945637  0.45615283  1
  O  O76  1  0.13279187  0.46645379  0.89224896  1
  O  O77  1  0.63279187  0.03354621  0.10775104  1
  O  O78  1  0.86720813  0.96645379  0.60775104  1
  O  O79  1  0.36720813  0.53354621  0.39224896  1
  O  O80  1  0.14998931  0.06392915  0.18535593  1
  O  O81  1  0.64998931  0.43607085  0.81464407  1
  O  O82  1  0.85001069  0.56392915  0.31464407  1
  O  O83  1  0.35001069  0.93607085  0.68535593  1
  O  O84  1  0.16944146  0.93964908  0.80853372  1
  O  O85  1  0.66944146  0.56035092  0.19146628  1
  O  O86  1  0.83055854  0.43964908  0.69146628  1
  O  O87  1  0.33055854  0.06035092  0.30853372  1
  O  O88  1  0.04160032  0.13934066  0.67863386  1
  O  O89  1  0.54160032  0.36065934  0.32136614  1
  O  O90  1  0.95839968  0.63934066  0.82136614  1
  O  O91  1  0.45839968  0.86065934  0.17863386  1
  O  O92  1  0.19194455  0.07987820  0.82469374  1
  O  O93  1  0.69194455  0.42012180  0.17530626  1
  O  O94  1  0.80805545  0.57987820  0.67530626  1
  O  O95  1  0.30805545  0.92012180  0.32469374  1
  O  O96  1  0.06136670  0.99139932  0.10435042  1
  O  O97  1  0.56136670  0.50860068  0.89564958  1
  O  O98  1  0.93863330  0.49139932  0.39564958  1
  O  O99  1  0.43863330  0.00860068  0.60435042  1
  O  O100  1  0.13503747  0.54648651  0.72250268  1
  O  O101  1  0.63503747  0.95351349  0.27749732  1
  O  O102  1  0.86496253  0.04648651  0.77749732  1
  O  O103  1  0.36496253  0.45351349  0.22250268  1
  O  O104  1  0.13141941  0.53153968  0.11092679  1
  O  O105  1  0.63141941  0.96846032  0.88907321  1
  O  O106  1  0.86858059  0.03153968  0.38907321  1
  O  O107  1  0.36858059  0.46846032  0.61092679  1
  O  O108  1  0.19632820  0.65279052  0.78848788  1
  O  O109  1  0.69632820  0.84720948  0.21151212  1
  O  O110  1  0.80367180  0.15279052  0.71151212  1
  O  O111  1  0.30367180  0.34720948  0.28848788  1
  O  O112  1  0.05421650  0.39915316  0.11933353  1
  O  O113  1  0.55421650  0.10084684  0.88066647  1
  O  O114  1  0.94578350  0.89915316  0.38066647  1
  O  O115  1  0.44578350  0.60084684  0.61933353  1
  O  O116  1  0.08427074  0.76198116  0.83159311  1
  O  O117  1  0.58427074  0.73801884  0.16840689  1
  O  O118  1  0.91572926  0.26198116  0.66840689  1
  O  O119  1  0.41572926  0.23801884  0.33159311  1
  O  O120  1  0.18356668  0.28131820  0.14837795  1
  O  O121  1  0.68356668  0.21868180  0.85162205  1
  O  O122  1  0.81643332  0.78131820  0.35162205  1
  O  O123  1  0.31643332  0.71868180  0.64837795  1
  O  O124  1  0.21423135  0.04896161  0.49349330  1
  O  O125  1  0.71423135  0.45103839  0.50650670  1
  O  O126  1  0.78576865  0.54896161  0.00650670  1
  O  O127  1  0.28576865  0.95103839  0.99349330  1
  O  O128  1  0.04809294  0.80617371  0.31902809  1
  O  O129  1  0.54809294  0.69382629  0.68097191  1
  O  O130  1  0.95190706  0.30617371  0.18097191  1
  O  O131  1  0.45190706  0.19382629  0.81902809  1
  Ba  Ba0  1  0.22426611  0.19287877  0.24947052  1
  Ba  Ba1  1  0.72426611  0.30712123  0.75052948  1
  Ba  Ba2  1  0.77573389  0.69287877  0.25052948  1
  Ba  Ba3  1  0.27573389  0.80712123  0.74947052  1
  Ba  Ba4  1  0.39227657  0.34409924  0.53798281  1
  Ba  Ba5  1  0.89227657  0.15590076  0.46201719  1
  Ba  Ba6  1  0.60772343  0.84409924  0.96201719  1
  Ba  Ba7  1  0.10772343  0.65590076  0.03798281  1
  Ba  Ba8  1  0.30723656  0.14992892  0.41541695  1
  Ba  Ba9  1  0.80723656  0.35007108  0.58458305  1
  Ba  Ba10  1  0.69276344  0.64992892  0.08458305  1
  Ba  Ba11  1  0.19276344  0.85007108  0.91541695  1
  Ba  Ba12  1  0.59053305  0.14509760  0.63049601  1
  Ba  Ba13  1  0.09053305  0.35490240  0.36950399  1
  Ba  Ba14  1  0.40946695  0.64509760  0.86950399  1
  Ba  Ba15  1  0.90946695  0.85490240  0.13049601  1
  Ba  Ba16  1  0.56096480  0.51279998  0.29774386  1
  Ba  Ba17  1  0.06096480  0.98720002  0.70225614  1
  Ba  Ba18  1  0.43903520  0.01279998  0.20225614  1
  Ba  Ba19  1  0.93903520  0.48720002  0.79774386  1
  Ba  Ba20  1  0.71528191  0.34664936  0.41543504  1
  Ba  Ba21  1  0.21528191  0.15335064  0.58456496  1
  Ba  Ba22  1  0.28471809  0.84664936  0.08456496  1
  Ba  Ba23  1  0.78471809  0.65335064  0.91543504  1
  Ba  Ba24  1  0.53868095  0.00512016  0.49798188  1
  Ba  Ba25  1  0.03868095  0.49487984  0.50201812  1
  Ba  Ba26  1  0.46131905  0.50512016  0.00201812  1
  Ba  Ba27  1  0.96131905  0.99487984  0.99798188  1
  Ba  Ba28  1  0.64310528  0.10079668  0.33328995  1
  Ba  Ba29  1  0.14310528  0.39920332  0.66671005  1
  Ba  Ba30  1  0.35689472  0.60079668  0.16671005  1
  Ba  Ba31  1  0.85689472  0.89920332  0.83328995  1
  Ba  Ba32  1  0.74471134  0.29776581  0.25006288  1
  Ba  Ba33  1  0.24471134  0.20223419  0.74993712  1
  Ba  Ba34  1  0.25528866  0.79776581  0.24993712  1
  Ba  Ba35  1  0.75528866  0.70223419  0.75006288  1
  Ba  Ba36  1  0.21053895  0.14905223  0.08318977  1
  Ba  Ba37  1  0.71053895  0.35094777  0.91681023  1
  Ba  Ba38  1  0.78946105  0.64905223  0.41681023  1
  Ba  Ba39  1  0.28946105  0.85094777  0.58318977  1
  Ba  Ba40  1  0.07603425  0.65174370  0.62962479  1
  Ba  Ba41  1  0.57603425  0.84825630  0.37037521  1
  Ba  Ba42  1  0.92396575  0.15174370  0.87037521  1
  Ba  Ba43  1  0.42396575  0.34825630  0.12962479  1
  Ba  Ba44  1  0.11911085  0.34036519  0.96616454  1
  Ba  Ba45  1  0.61911085  0.15963481  0.03383546  1
  Ba  Ba46  1  0.88088915  0.84036519  0.53383546  1
  Ba  Ba47  1  0.38088915  0.65963481  0.46616454  1
  Ba  Ba48  1  0.14787997  0.60301732  0.33320388  1
  Ba  Ba49  1  0.64787997  0.89698268  0.66679612  1
  Ba  Ba50  1  0.85212003  0.10301732  0.16679612  1
  Ba  Ba51  1  0.35212003  0.39698268  0.83320388  1
  Ba  Ba52  1  0.20400589  0.84614843  0.41792650  1
  Ba  Ba53  1  0.70400589  0.65385157  0.58207350  1
  Ba  Ba54  1  0.79599411  0.34614843  0.08207350  1
  Ba  Ba55  1  0.29599411  0.15385157  0.91792650  1
  Ba  Ba56  1  0.05101731  0.99689879  0.29373890  1
  Ba  Ba57  1  0.55101731  0.50310121  0.70626110  1
  Ba  Ba58  1  0.94898269  0.49689879  0.20626110  1
  Ba  Ba59  1  0.44898269  0.00310121  0.79373890  1
loop_
_geom_bond_atom_site_label_1
_geom_bond_atom_site_label_2
_geom_bond_distance
_geom_bond_site_symmetry_2
B0 O96 1.385469 1_555
B0 O40 1.389856 1_555
B0 O80 1.402055 1_565
B1 O97 1.385469 1_555
B1 O41 1.389856 1_555
B1 O81 1.402055 1_555
B2 O98 1.385469 1_555
B2 O42 1.389856 1_555
B2 O82 1.402055 1_555
B3 O99 1.385469 1_555
B3 O43 1.389856 1_555
B3 O83 1.402055 1_545
B4 O12 1.387005 1_555
B4 O8 1.387034 1_555
B4 O62 1.408115 1_455
B5 O13 1.387005 1_555
B5 O9 1.387034 1_555
B5 O63 1.408115 1_555
B6 O14 1.387005 1_554
B6 O10 1.387034 1_555
B6 O60 1.408115 1_654
B7 O15 1.387005 1_556
B7 O11 1.387034 1_555
B7 O61 1.408115 1_556
B8 O64 1.389850 1_555
B8 O0 1.391834 1_555
B8 O26 1.399524 1_455
B9 O65 1.389850 1_555
B9 O1 1.391834 1_555
B9 O27 1.399524 1_555
B10 O66 1.389850 1_556
B10 O2 1.391834 1_555
B10 O24 1.399524 1_656
B11 O67 1.389850 1_554
B11 O3 1.391834 1_555
B11 O25 1.399524 1_554
B12 O32 1.390491 1_555
B12 O92 1.391772 1_555
B12 O84 1.400612 1_545
B13 O33 1.390491 1_555
B13 O93 1.391772 1_555
B13 O85 1.400612 1_555
B14 O34 1.390491 1_555
B14 O94 1.391772 1_555
B14 O86 1.400612 1_555
B15 O35 1.390491 1_555
B15 O95 1.391772 1_555
B15 O87 1.400612 1_565
B16 O124 1.358653 1_555
B16 O52 1.361141 1_545
B16 O74 1.460542 1_555
B17 O125 1.358653 1_555
B17 O53 1.361141 1_555
B17 O75 1.460542 1_555
B18 O126 1.358653 1_556
B18 O54 1.361141 1_555
B18 O72 1.460542 1_555
B19 O127 1.358653 1_554
B19 O55 1.361141 1_565
B19 O73 1.460542 1_555
B20 O100 1.358534 1_555
B20 O39 1.369796 1_555
B20 O108 1.466760 1_555
B21 O101 1.358534 1_555
B21 O38 1.369796 1_555
B21 O109 1.466760 1_555
B22 O102 1.358534 1_555
B22 O37 1.369796 1_555
B22 O110 1.466760 1_555
B23 O103 1.358534 1_555
B23 O36 1.369796 1_555
B23 O111 1.466760 1_555
B24 O120 1.354639 1_555
B24 O130 1.359178 1_455
B24 O112 1.459023 1_555
B25 O121 1.354639 1_555
B25 O131 1.359178 1_555
B25 O113 1.459023 1_555
B26 O122 1.354639 1_555
B26 O128 1.359178 1_655
B26 O114 1.459023 1_555
B27 O123 1.354639 1_555
B27 O129 1.359178 1_555
B27 O115 1.459023 1_555
B28 O116 1.358746 1_555
B28 O90 1.361139 1_455
B28 O108 1.464715 1_555
B29 O117 1.358746 1_555
B29 O91 1.361139 1_555
B29 O109 1.464715 1_555
B30 O118 1.358746 1_555
B30 O88 1.361139 1_655
B30 O110 1.464715 1_555
B31 O119 1.358746 1_555
B31 O89 1.361139 1_555
B31 O111 1.464715 1_555
B32 O22 1.382093 1_455
B32 O16 1.393826 1_555
B32 O4 1.407230 1_555
B33 O23 1.382093 1_555
B33 O17 1.393826 1_555
B33 O5 1.407230 1_555
B34 O20 1.382093 1_655
B34 O18 1.393826 1_555
B34 O6 1.407230 1_555
B35 O21 1.382093 1_555
B35 O19 1.393826 1_555
B35 O7 1.407230 1_555
B36 O56 1.388273 1_555
B36 O70 1.395679 1_455
B36 O44 1.404989 1_555
B37 O57 1.388273 1_555
B37 O71 1.395679 1_555
B37 O45 1.404989 1_555
B38 O58 1.388273 1_555
B38 O68 1.395679 1_655
B38 O46 1.404989 1_555
B39 O59 1.388273 1_555
B39 O69 1.395679 1_555
B39 O47 1.404989 1_555
B40 O76 1.360791 1_555
B40 O28 1.367893 1_555
B40 O72 1.472417 1_455
B41 O77 1.360791 1_565
B41 O29 1.367893 1_555
B41 O73 1.472417 1_555
B42 O78 1.360791 1_545
B42 O30 1.367893 1_555
B42 O74 1.472417 1_655
B43 O79 1.360791 1_555
B43 O31 1.367893 1_555
B43 O75 1.472417 1_555
B44 O48 1.360386 1_555
B44 O104 1.364773 1_555
B44 O112 1.471360 1_555
B45 O49 1.360386 1_555
B45 O105 1.364773 1_545
B45 O113 1.471360 1_555
B46 O50 1.360386 1_555
B46 O106 1.364773 1_565
B46 O114 1.471360 1_555
B47 O51 1.360386 1_555
B47 O107 1.364773 1_555
B47 O115 1.471360 1_555
Ba0 O80 2.738474 1_555
Ba0 O119 2.773270 1_555
Ba0 O68 2.792743 1_555
Ba0 O120 2.810632 1_555
Ba0 O23 2.820485 1_555
Ba0 O87 2.824974 1_555
Ba0 O111 2.870530 1_555
Ba0 O58 2.981756 1_455
Ba1 O81 2.738474 1_555
Ba1 O118 2.773270 1_555
Ba1 O69 2.792743 1_555
Ba1 O121 2.810632 1_555
Ba1 O22 2.820485 1_555
Ba1 O86 2.824974 1_555
Ba1 O110 2.870530 1_555
Ba1 O59 2.981756 1_555
Ba2 O82 2.738474 1_555
Ba2 O117 2.773270 1_555
Ba2 O70 2.792743 1_555
Ba2 O122 2.810632 1_555
Ba2 O21 2.820485 1_555
Ba2 O85 2.824974 1_555
Ba2 O109 2.870530 1_555
Ba2 O56 2.981756 1_655
Ba3 O83 2.738474 1_555
Ba3 O116 2.773270 1_555
Ba3 O71 2.792743 1_555
Ba3 O123 2.810632 1_555
Ba3 O20 2.820485 1_555
Ba3 O84 2.824974 1_555
Ba3 O108 2.870530 1_555
Ba3 O57 2.981756 1_555
Ba4 O107 2.710698 1_555
Ba4 O75 2.819305 1_555
Ba4 O0 2.820572 1_555
Ba4 O31 2.837885 1_555
Ba4 O47 2.866434 1_555
Ba4 O27 2.946061 1_555
Ba4 O65 3.050372 1_555
Ba4 O64 3.057792 1_555
Ba4 O69 3.164437 1_555
Ba5 O106 2.710698 1_555
Ba5 O74 2.819305 1_655
Ba5 O1 2.820572 1_555
Ba5 O30 2.837885 1_555
Ba5 O46 2.866434 1_555
Ba5 O26 2.946061 1_555
Ba5 O64 3.050372 1_655
Ba5 O65 3.057792 1_555
Ba5 O68 3.164437 1_655
Ba6 O105 2.710698 1_555
Ba6 O73 2.819305 1_556
Ba6 O2 2.820572 1_555
Ba6 O29 2.837885 1_556
Ba6 O45 2.866434 1_555
Ba6 O25 2.946061 1_555
Ba6 O67 3.050372 1_555
Ba6 O66 3.057792 1_556
Ba6 O71 3.164437 1_555
Ba7 O104 2.710698 1_555
Ba7 O72 2.819305 1_454
Ba7 O3 2.820572 1_555
Ba7 O28 2.837885 1_554
Ba7 O44 2.866434 1_555
Ba7 O24 2.946061 1_555
Ba7 O66 3.050372 1_455
Ba7 O67 3.057792 1_554
Ba7 O70 3.164437 1_455
Ba8 O124 2.649971 1_555
Ba8 O119 2.668693 1_555
Ba8 O68 2.726479 1_555
Ba8 O64 2.757843 1_555
Ba8 O87 2.915578 1_555
Ba8 O27 2.950992 1_555
Ba8 O35 2.962112 1_545
Ba8 O1 2.981880 1_555
Ba9 O125 2.649971 1_555
Ba9 O118 2.668693 1_555
Ba9 O69 2.726479 1_555
Ba9 O65 2.757843 1_555
Ba9 O86 2.915578 1_555
Ba9 O26 2.950992 1_555
Ba9 O34 2.962112 1_555
Ba9 O0 2.981880 1_655
Ba10 O126 2.649971 1_555
Ba10 O117 2.668693 1_555
Ba10 O70 2.726479 1_555
Ba10 O66 2.757843 1_555
Ba10 O85 2.915578 1_555
Ba10 O25 2.950992 1_554
Ba10 O33 2.962112 1_555
Ba10 O3 2.981880 1_555
Ba11 O127 2.649971 1_555
Ba11 O116 2.668693 1_555
Ba11 O71 2.726479 1_555
Ba11 O67 2.757843 1_555
Ba11 O84 2.915578 1_555
Ba11 O24 2.950992 1_556
Ba11 O32 2.962112 1_565
Ba11 O2 2.981880 1_455
Ba12 O30 2.677589 1_555
Ba12 O37 2.793406 1_555
Ba12 O110 2.803360 1_555
Ba12 O99 2.809435 1_555
Ba12 O69 2.820587 1_555
Ba12 O27 2.830751 1_555
Ba12 O43 2.969190 1_555
Ba13 O31 2.677589 1_555
Ba13 O36 2.793406 1_555
Ba13 O111 2.803360 1_555
Ba13 O98 2.809435 1_455
Ba13 O68 2.820587 1_555
Ba13 O26 2.830751 1_455
Ba13 O42 2.969190 1_455
Ba14 O28 2.677589 1_555
Ba14 O39 2.793406 1_555
Ba14 O108 2.803360 1_555
Ba14 O97 2.809435 1_555
Ba14 O71 2.820587 1_555
Ba14 O25 2.830751 1_555
Ba14 O41 2.969190 1_555
Ba15 O29 2.677589 1_555
Ba15 O38 2.793406 1_555
Ba15 O109 2.803360 1_555
Ba15 O96 2.809435 1_655
Ba15 O70 2.820587 1_555
Ba15 O24 2.830751 1_655
Ba15 O40 2.969190 1_655
Ba16 O89 2.639339 1_555
Ba16 O103 2.774517 1_555
Ba16 O85 2.800830 1_555
Ba16 O19 2.851230 1_555
Ba16 O21 2.886819 1_555
Ba16 O79 2.914095 1_555
Ba16 O82 2.970801 1_555
Ba16 O42 3.149174 1_555
Ba17 O88 2.639339 1_565
Ba17 O102 2.774517 1_465
Ba17 O84 2.800830 1_555
Ba17 O18 2.851230 1_455
Ba17 O20 2.886819 1_555
Ba17 O78 2.914095 1_455
Ba17 O83 2.970801 1_555
Ba17 O43 3.149174 1_565
Ba18 O91 2.639339 1_545
Ba18 O101 2.774517 1_545
Ba18 O87 2.800830 1_555
Ba18 O17 2.851230 1_555
Ba18 O23 2.886819 1_555
Ba18 O77 2.914095 1_555
Ba18 O80 2.970801 1_555
Ba18 O40 3.149174 1_545
Ba19 O90 2.639339 1_555
Ba19 O100 2.774517 1_655
Ba19 O86 2.800830 1_555
Ba19 O16 2.851230 1_655
Ba19 O22 2.886819 1_555
Ba19 O76 2.914095 1_655
Ba19 O81 2.970801 1_555
Ba19 O41 3.149174 1_555
Ba20 O65 2.705591 1_555
Ba20 O125 2.754427 1_555
Ba20 O89 2.771476 1_555
Ba20 O26 2.775564 1_555
Ba20 O46 2.781076 1_555
Ba20 O75 2.862036 1_555
Ba20 O42 2.900401 1_555
Ba21 O64 2.705591 1_555
Ba21 O124 2.754427 1_555
Ba21 O88 2.771476 1_555
Ba21 O27 2.775564 1_555
Ba21 O47 2.781076 1_555
Ba21 O74 2.862036 1_555
Ba21 O43 2.900401 1_555
Ba22 O67 2.705591 1_554
Ba22 O127 2.754427 1_554
Ba22 O91 2.771476 1_555
Ba22 O24 2.775564 1_555
Ba22 O44 2.781076 1_555
Ba22 O73 2.862036 1_555
Ba22 O40 2.900401 1_555
Ba23 O66 2.705591 1_556
Ba23 O126 2.754427 1_556
Ba23 O90 2.771476 1_555
Ba23 O25 2.775564 1_555
Ba23 O45 2.781076 1_555
Ba23 O72 2.862036 1_555
Ba23 O41 2.900401 1_555
Ba24 O99 2.654089 1_555
Ba24 O35 2.691253 1_545
Ba24 O50 2.763722 1_545
Ba24 O30 2.862373 1_555
Ba24 O1 2.866840 1_555
Ba24 O27 3.045540 1_555
Ba24 O63 3.052648 1_545
Ba24 O9 3.182097 1_545
Ba24 O124 3.247193 1_555
Ba25 O98 2.654089 1_455
Ba25 O34 2.691253 1_455
Ba25 O51 2.763722 1_555
Ba25 O31 2.862373 1_555
Ba25 O0 2.866840 1_555
Ba25 O26 3.045540 1_455
Ba25 O62 3.052648 1_455
Ba25 O8 3.182097 1_555
Ba25 O125 3.247193 1_455
Ba26 O97 2.654089 1_554
Ba26 O33 2.691253 1_555
Ba26 O48 2.763722 1_555
Ba26 O28 2.862373 1_554
Ba26 O3 2.866840 1_555
Ba26 O25 3.045540 1_554
Ba26 O61 3.052648 1_555
Ba26 O11 3.182097 1_554
Ba26 O126 3.247193 1_555
Ba27 O96 2.654089 1_656
Ba27 O32 2.691253 1_665
Ba27 O49 2.763722 1_565
Ba27 O29 2.862373 1_556
Ba27 O2 2.866840 1_555
Ba27 O24 3.045540 1_656
Ba27 O60 3.052648 1_665
Ba27 O10 3.182097 1_566
Ba27 O127 3.247193 1_655
Ba28 O17 2.682379 1_555
Ba28 O1 2.709678 1_555
Ba28 O106 2.805440 1_555
Ba28 O101 2.809910 1_545
Ba28 O35 2.860296 1_545
Ba28 O46 2.909438 1_555
Ba28 O87 3.172123 1_555
Ba28 O119 3.209053 1_555
Ba28 O58 3.244526 1_555
Ba29 O16 2.682379 1_555
Ba29 O0 2.709678 1_555
Ba29 O107 2.805440 1_555
Ba29 O100 2.809910 1_555
Ba29 O34 2.860296 1_455
Ba29 O47 2.909438 1_555
Ba29 O86 3.172123 1_455
Ba29 O118 3.209053 1_455
Ba29 O59 3.244526 1_555
Ba30 O19 2.682379 1_555
Ba30 O3 2.709678 1_555
Ba30 O104 2.805440 1_555
Ba30 O103 2.809910 1_555
Ba30 O33 2.860296 1_555
Ba30 O44 2.909438 1_555
Ba30 O85 3.172123 1_555
Ba30 O117 3.209053 1_555
Ba30 O56 3.244526 1_555
Ba31 O18 2.682379 1_555
Ba31 O2 2.709678 1_555
Ba31 O105 2.805440 1_555
Ba31 O102 2.809910 1_565
Ba31 O32 2.860296 1_665
Ba31 O45 2.909438 1_555
Ba31 O84 3.172123 1_655
Ba31 O116 3.209053 1_655
Ba31 O57 3.244526 1_555
Ba32 O130 2.580985 1_555
Ba32 O42 2.740512 1_555
Ba32 O93 2.749750 1_555
Ba32 O89 2.789722 1_555
Ba32 O46 2.810882 1_555
Ba32 O5 2.900535 1_555
Ba32 O17 2.947307 1_555
Ba32 O58 3.195993 1_555
Ba33 O131 2.580985 1_555
Ba33 O43 2.740512 1_555
Ba33 O92 2.749750 1_555
Ba33 O88 2.789722 1_555
Ba33 O47 2.810882 1_555
Ba33 O4 2.900535 1_555
Ba33 O16 2.947307 1_555
Ba33 O59 3.195993 1_555
Ba34 O128 2.580985 1_555
Ba34 O40 2.740512 1_555
Ba34 O95 2.749750 1_555
Ba34 O91 2.789722 1_555
Ba34 O44 2.810882 1_555
Ba34 O7 2.900535 1_555
Ba34 O19 2.947307 1_555
Ba34 O56 3.195993 1_555
Ba35 O129 2.580985 1_555
Ba35 O41 2.740512 1_555
Ba35 O94 2.749750 1_555
Ba35 O90 2.789722 1_555
Ba35 O45 2.810882 1_555
Ba35 O6 2.900535 1_555
Ba35 O18 2.947307 1_555
Ba35 O57 3.195993 1_555
Ba36 O120 2.714389 1_555
Ba36 O55 2.740470 1_555
Ba36 O23 2.742301 1_555
Ba36 O15 2.747486 1_555
Ba36 O60 2.835703 1_554
Ba36 O80 2.835995 1_555
Ba36 O10 2.981204 1_455
Ba36 O96 3.077434 1_545
Ba37 O121 2.714389 1_555
Ba37 O54 2.740470 1_555
Ba37 O22 2.742301 1_555
Ba37 O14 2.747486 1_555
Ba37 O61 2.835703 1_556
Ba37 O81 2.835995 1_555
Ba37 O11 2.981204 1_555
Ba37 O97 3.077434 1_555
Ba38 O122 2.714389 1_555
Ba38 O53 2.740470 1_555
Ba38 O21 2.742301 1_555
Ba38 O13 2.747486 1_555
Ba38 O62 2.835703 1_555
Ba38 O82 2.835995 1_555
Ba38 O8 2.981204 1_655
Ba38 O98 3.077434 1_555
Ba39 O123 2.714389 1_555
Ba39 O52 2.740470 1_555
Ba39 O20 2.742301 1_555
Ba39 O12 2.747486 1_555
Ba39 O63 2.835703 1_555
Ba39 O83 2.835995 1_555
Ba39 O9 2.981204 1_555
Ba39 O99 3.077434 1_565
Ba40 O123 2.636923 1_555
Ba40 O51 2.802165 1_555
Ba40 O100 2.854458 1_555
Ba40 O62 2.859424 1_455
Ba40 O34 2.874334 1_455
Ba40 O6 2.883234 1_455
Ba40 O20 3.050311 1_555
Ba40 O94 3.068076 1_455
Ba40 O12 3.187212 1_555
Ba41 O122 2.636923 1_555
Ba41 O50 2.802165 1_555
Ba41 O101 2.854458 1_555
Ba41 O63 2.859424 1_555
Ba41 O35 2.874334 1_555
Ba41 O7 2.883234 1_555
Ba41 O21 3.050311 1_555
Ba41 O95 3.068076 1_555
Ba41 O13 3.187212 1_555
Ba42 O121 2.636923 1_555
Ba42 O49 2.802165 1_555
Ba42 O102 2.854458 1_555
Ba42 O60 2.859424 1_655
Ba42 O32 2.874334 1_655
Ba42 O4 2.883234 1_655
Ba42 O22 3.050311 1_555
Ba42 O92 3.068076 1_655
Ba42 O14 3.187212 1_555
Ba43 O120 2.636923 1_555
Ba43 O48 2.802165 1_555
Ba43 O103 2.854458 1_555
Ba43 O61 2.859424 1_555
Ba43 O33 2.874334 1_555
Ba43 O5 2.883234 1_555
Ba43 O23 3.050311 1_555
Ba43 O93 3.068076 1_555
Ba43 O15 3.187212 1_555
Ba44 O54 2.626435 1_455
Ba44 O76 2.741010 1_555
Ba44 O48 2.818496 1_556
Ba44 O4 2.827011 1_555
Ba44 O11 2.898034 1_555
Ba44 O14 2.976960 1_455
Ba44 O15 3.028274 1_556
Ba44 O60 3.051482 1_555
Ba45 O55 2.626435 1_555
Ba45 O77 2.741010 1_555
Ba45 O49 2.818496 1_554
Ba45 O5 2.827011 1_555
Ba45 O10 2.898034 1_555
Ba45 O15 2.976960 1_555
Ba45 O14 3.028274 1_554
Ba45 O61 3.051482 1_555
Ba46 O52 2.626435 1_655
Ba46 O78 2.741010 1_555
Ba46 O50 2.818496 1_555
Ba46 O6 2.827011 1_555
Ba46 O9 2.898034 1_555
Ba46 O12 2.976960 1_655
Ba46 O13 3.028274 1_555
Ba46 O62 3.051482 1_555
Ba47 O53 2.626435 1_555
Ba47 O79 2.741010 1_555
Ba47 O51 2.818496 1_555
Ba47 O7 2.827011 1_555
Ba47 O8 2.898034 1_555
Ba47 O13 2.976960 1_555
Ba47 O12 3.028274 1_555
Ba47 O63 3.051482 1_555
Ba48 O8 2.665677 1_555
Ba48 O56 2.736781 1_555
Ba48 O36 2.767997 1_555
Ba48 O19 2.774280 1_555
Ba48 O79 2.796669 1_555
Ba48 O82 3.006208 1_455
Ba48 O7 3.071394 1_555
Ba48 O98 3.133726 1_455
Ba49 O9 2.665677 1_555
Ba49 O57 2.736781 1_555
Ba49 O37 2.767997 1_565
Ba49 O18 2.774280 1_555
Ba49 O78 2.796669 1_555
Ba49 O83 3.006208 1_555
Ba49 O6 3.071394 1_555
Ba49 O99 3.133726 1_565
Ba50 O10 2.665677 1_555
Ba50 O58 2.736781 1_555
Ba50 O38 2.767997 1_545
Ba50 O17 2.774280 1_555
Ba50 O77 2.796669 1_555
Ba50 O80 3.006208 1_655
Ba50 O5 3.071394 1_555
Ba50 O96 3.133726 1_645
Ba51 O11 2.665677 1_555
Ba51 O59 2.736781 1_555
Ba51 O39 2.767997 1_555
Ba51 O16 2.774280 1_555
Ba51 O76 2.796669 1_555
Ba51 O81 3.006208 1_555
Ba51 O4 3.071394 1_555
Ba51 O97 3.133726 1_555
Ba52 O95 2.697030 1_555
Ba52 O63 2.716947 1_555
Ba52 O52 2.759137 1_555
Ba52 O114 2.806344 1_455
Ba52 O7 2.812115 1_555
Ba52 O128 2.833538 1_555
Ba52 O12 2.858608 1_555
Ba53 O94 2.697030 1_555
Ba53 O62 2.716947 1_555
Ba53 O53 2.759137 1_555
Ba53 O115 2.806344 1_555
Ba53 O6 2.812115 1_555
Ba53 O129 2.833538 1_555
Ba53 O13 2.858608 1_555
Ba54 O93 2.697030 1_555
Ba54 O61 2.716947 1_555
Ba54 O54 2.759137 1_554
Ba54 O112 2.806344 1_655
Ba54 O5 2.812115 1_555
Ba54 O130 2.833538 1_555
Ba54 O14 2.858608 1_554
Ba55 O92 2.697030 1_555
Ba55 O60 2.716947 1_555
Ba55 O55 2.759137 1_556
Ba55 O113 2.806344 1_555
Ba55 O4 2.812115 1_555
Ba55 O131 2.833538 1_555
Ba55 O15 2.858608 1_556
Ba56 O38 2.694833 1_455
Ba56 O114 2.802709 1_455
Ba56 O58 2.824396 1_465
Ba56 O106 2.897119 1_465
Ba56 O95 2.910302 1_555
Ba56 O80 2.922381 1_565
Ba56 O87 2.946469 1_565
Ba56 O40 3.036806 1_555
Ba56 O128 3.280949 1_555
Ba57 O39 2.694833 1_555
Ba57 O115 2.802709 1_555
Ba57 O59 2.824396 1_555
Ba57 O107 2.897119 1_555
Ba57 O94 2.910302 1_555
Ba57 O81 2.922381 1_555
Ba57 O86 2.946469 1_555
Ba57 O41 3.036806 1_555
Ba57 O129 3.280949 1_555
Ba58 O36 2.694833 1_655
Ba58 O112 2.802709 1_655
Ba58 O56 2.824396 1_655
Ba58 O104 2.897119 1_655
Ba58 O93 2.910302 1_555
Ba58 O82 2.922381 1_555
Ba58 O85 2.946469 1_555
Ba58 O42 3.036806 1_555
Ba58 O130 3.280949 1_555
Ba59 O37 2.694833 1_555
Ba59 O113 2.802709 1_555
Ba59 O57 2.824396 1_545
Ba59 O105 2.897119 1_545
Ba59 O92 2.910302 1_555
Ba59 O83 2.922381 1_545
Ba59 O84 2.946469 1_545
Ba59 O43 3.036806 1_555
Ba59 O131 3.280949 1_555
