# generated using pymatgen
data_Sc16Hg7Ir
_symmetry_space_group_name_H-M   'P 1'
_cell_length_a   9.14059096
_cell_length_b   9.14059114
_cell_length_c   9.14059201
_cell_angle_alpha   59.81180721
_cell_angle_beta   59.81180623
_cell_angle_gamma   59.81180151
_symmetry_Int_Tables_number   1
_chemical_formula_structural   Sc16Hg7Ir
_chemical_formula_sum   'Sc16 Hg7 Ir1'
_cell_volume   537.71067574
_cell_formula_units_Z   1
loop_
 _symmetry_equiv_pos_site_id
 _symmetry_equiv_pos_as_xyz
  1  'x, y, z'
loop_
 _atom_site_type_symbol
 _atom_site_label
 _atom_site_symmetry_multiplicity
 _atom_site_fract_x
 _atom_site_fract_y
 _atom_site_fract_z
 _atom_site_occupancy
  Sc  Sc0  1  0.10428198  0.63863884  0.63863884  1
  Sc  Sc1  1  0.63863884  0.10428198  0.63863884  1
  Sc  Sc2  1  0.63863884  0.63863884  0.10428198  1
  Sc  Sc3  1  0.62207799  0.62207799  0.62207799  1
  Sc  Sc4  1  0.81582683  0.81582683  0.17159797  1
  Sc  Sc5  1  0.18744253  0.18744253  0.81374663  1
  Sc  Sc6  1  0.81582683  0.17159797  0.81582683  1
  Sc  Sc7  1  0.18744253  0.81374663  0.18744253  1
  Sc  Sc8  1  0.17159797  0.81582683  0.81582683  1
  Sc  Sc9  1  0.81374663  0.18744253  0.18744253  1
  Sc  Sc10  1  0.43792352  0.43792352  0.06460270  1
  Sc  Sc11  1  0.06374421  0.06374421  0.44136381  1
  Sc  Sc12  1  0.43792352  0.06460270  0.43792352  1
  Sc  Sc13  1  0.06374421  0.44136381  0.06374421  1
  Sc  Sc14  1  0.06460270  0.43792352  0.43792352  1
  Sc  Sc15  1  0.44136381  0.06374421  0.06374421  1
  Hg  Hg0  1  0.77916691  0.40404724  0.40404724  1
  Hg  Hg1  1  0.40404724  0.77916691  0.40404724  1
  Hg  Hg2  1  0.40404724  0.40404724  0.77916691  1
  Hg  Hg3  1  0.41029386  0.41029386  0.41029386  1
  Hg  Hg4  1  0.46510722  0.84052975  0.84052975  1
  Hg  Hg5  1  0.84052975  0.46510722  0.84052975  1
  Hg  Hg6  1  0.84052975  0.84052975  0.46510722  1
  Ir  Ir0  1  0.85145605  0.85145605  0.85145605  1
loop_
_geom_bond_atom_site_label_1
_geom_bond_atom_site_label_2
_geom_bond_distance
_geom_bond_site_symmetry_2
Hg0 Sc3 2.871216 1_555
Hg0 Sc11 2.871639 1_655
Hg0 Sc13 2.871640 1_655
Hg0 Sc1 2.935386 1_555
Hg0 Sc2 2.935386 1_555
Hg0 Sc14 2.953017 1_655
Hg0 Sc9 3.259359 1_555
Hg0 Sc4 3.362057 1_555
Hg0 Sc6 3.362058 1_555
Hg1 Sc3 2.871216 1_555
Hg1 Sc11 2.871639 1_565
Hg1 Sc15 2.871640 1_565
Hg1 Sc0 2.935386 1_555
Hg1 Sc2 2.935386 1_555
Hg1 Sc12 2.953017 1_565
Hg1 Sc7 3.259359 1_555
Hg1 Sc4 3.362057 1_555
Hg1 Sc8 3.362058 1_555
Hg2 Sc3 2.871216 1_555
Hg2 Sc13 2.871640 1_556
Hg2 Sc15 2.871640 1_556
Hg2 Sc0 2.935386 1_555
Hg2 Sc1 2.935386 1_555
Hg2 Sc10 2.953017 1_556
Hg2 Sc5 3.259359 1_555
Hg2 Sc6 3.362057 1_555
Hg2 Sc8 3.362057 1_555
Hg3 Sc14 2.927640 1_555
Hg3 Sc12 2.927640 1_555
Hg3 Sc10 2.927640 1_555
Hg3 Sc0 3.029069 1_555
Hg3 Sc1 3.029069 1_555
Hg3 Sc2 3.029069 1_555
Hg3 Sc9 3.310895 1_555
Hg3 Sc7 3.310895 1_555
Hg3 Sc5 3.310895 1_555
Hg4 Sc1 2.856818 1_565
Hg4 Sc2 2.856818 1_556
Hg4 Sc3 2.877526 1_555
Hg4 Sc5 2.882191 1_565
Hg4 Sc7 2.882192 1_556
Hg4 Sc8 2.927350 1_555
Hg4 Sc10 3.259929 1_556
Hg4 Sc12 3.259929 1_565
Hg4 Sc15 3.415953 1_566
Hg5 Sc0 2.856818 1_655
Hg5 Sc2 2.856818 1_556
Hg5 Sc3 2.877526 1_555
Hg5 Sc5 2.882191 1_655
Hg5 Sc9 2.882192 1_556
Hg5 Sc6 2.927350 1_555
Hg5 Sc10 3.259928 1_556
Hg5 Sc14 3.259929 1_655
Hg5 Sc13 3.415953 1_656
Hg6 Sc0 2.856818 1_655
Hg6 Sc1 2.856818 1_565
Hg6 Sc3 2.877526 1_555
Hg6 Sc7 2.882192 1_655
Hg6 Sc9 2.882192 1_565
Hg6 Sc4 2.927350 1_555
Hg6 Sc12 3.259928 1_565
Hg6 Sc14 3.259928 1_655
Hg6 Sc11 3.415953 1_665
Ir0 Sc8 2.639145 1_655
Ir0 Sc6 2.639145 1_565
Ir0 Sc4 2.639146 1_556
Ir0 Sc0 2.769898 1_655
Ir0 Sc1 2.769898 1_565
Ir0 Sc2 2.769898 1_556
