# generated using pymatgen
data_Ba8Ga7
_symmetry_space_group_name_H-M   'P 1'
_cell_length_a   13.06548146
_cell_length_b   13.06548146
_cell_length_c   13.06548146
_cell_angle_alpha   90.00000000
_cell_angle_beta   90.00000000
_cell_angle_gamma   90.00000000
_symmetry_Int_Tables_number   1
_chemical_formula_structural   Ba8Ga7
_chemical_formula_sum   'Ba32 Ga28'
_cell_volume   2230.36660604
_cell_formula_units_Z   4
loop_
 _symmetry_equiv_pos_site_id
 _symmetry_equiv_pos_as_xyz
  1  'x, y, z'
loop_
 _atom_site_type_symbol
 _atom_site_label
 _atom_site_symmetry_multiplicity
 _atom_site_fract_x
 _atom_site_fract_y
 _atom_site_fract_z
 _atom_site_occupancy
  Ba  Ba0  1  0.81259735  0.81259735  0.81259735  1
  Ba  Ba1  1  0.68740265  0.18740265  0.31259735  1
  Ba  Ba2  1  0.31259735  0.68740265  0.18740265  1
  Ba  Ba3  1  0.18740265  0.31259735  0.68740265  1
  Ba  Ba4  1  0.18785230  0.18785230  0.18785230  1
  Ba  Ba5  1  0.31214770  0.81214770  0.68785230  1
  Ba  Ba6  1  0.68785230  0.31214770  0.81214770  1
  Ba  Ba7  1  0.81214770  0.68785230  0.31214770  1
  Ba  Ba8  1  0.79534837  0.55646416  0.00137420  1
  Ba  Ba9  1  0.00137420  0.79534837  0.55646416  1
  Ba  Ba10  1  0.55646416  0.00137420  0.79534837  1
  Ba  Ba11  1  0.94353584  0.99862580  0.29534837  1
  Ba  Ba12  1  0.50137420  0.70465163  0.44353584  1
  Ba  Ba13  1  0.44353584  0.50137420  0.70465163  1
  Ba  Ba14  1  0.49862580  0.20465163  0.05646416  1
  Ba  Ba15  1  0.99862580  0.29534837  0.94353584  1
  Ba  Ba16  1  0.05646416  0.49862580  0.20465163  1
  Ba  Ba17  1  0.29534837  0.94353584  0.99862580  1
  Ba  Ba18  1  0.20465163  0.05646416  0.49862580  1
  Ba  Ba19  1  0.70465163  0.44353584  0.50137420  1
  Ba  Ba20  1  0.52022592  0.70512882  0.93852608  1
  Ba  Ba21  1  0.93852608  0.52022592  0.70512882  1
  Ba  Ba22  1  0.70512882  0.93852608  0.52022592  1
  Ba  Ba23  1  0.79487118  0.06147392  0.02022592  1
  Ba  Ba24  1  0.43852608  0.97977408  0.29487118  1
  Ba  Ba25  1  0.29487118  0.43852608  0.97977408  1
  Ba  Ba26  1  0.56147392  0.47977408  0.20512882  1
  Ba  Ba27  1  0.06147392  0.02022592  0.79487118  1
  Ba  Ba28  1  0.20512882  0.56147392  0.47977408  1
  Ba  Ba29  1  0.02022592  0.79487118  0.06147392  1
  Ba  Ba30  1  0.47977408  0.20512882  0.56147392  1
  Ba  Ba31  1  0.97977408  0.29487118  0.43852608  1
  Ga  Ga0  1  0.43097209  0.43097209  0.43097209  1
  Ga  Ga1  1  0.06902791  0.56902791  0.93097209  1
  Ga  Ga2  1  0.93097209  0.06902791  0.56902791  1
  Ga  Ga3  1  0.56902791  0.93097209  0.06902791  1
  Ga  Ga4  1  0.76169435  0.19267226  0.57631856  1
  Ga  Ga5  1  0.57631856  0.76169435  0.19267226  1
  Ga  Ga6  1  0.19267226  0.57631856  0.76169435  1
  Ga  Ga7  1  0.30732774  0.42368144  0.26169435  1
  Ga  Ga8  1  0.07631856  0.73830565  0.80732774  1
  Ga  Ga9  1  0.80732774  0.07631856  0.73830565  1
  Ga  Ga10  1  0.92368144  0.23830565  0.69267226  1
  Ga  Ga11  1  0.42368144  0.26169435  0.30732774  1
  Ga  Ga12  1  0.69267226  0.92368144  0.23830565  1
  Ga  Ga13  1  0.26169435  0.30732774  0.42368144  1
  Ga  Ga14  1  0.23830565  0.69267226  0.92368144  1
  Ga  Ga15  1  0.73830565  0.80732774  0.07631856  1
  Ga  Ga16  1  0.74349960  0.68758963  0.58213975  1
  Ga  Ga17  1  0.58213975  0.74349960  0.68758963  1
  Ga  Ga18  1  0.68758963  0.58213975  0.74349960  1
  Ga  Ga19  1  0.81241037  0.41786025  0.24349960  1
  Ga  Ga20  1  0.08213975  0.75650040  0.31241037  1
  Ga  Ga21  1  0.31241037  0.08213975  0.75650040  1
  Ga  Ga22  1  0.91786025  0.25650040  0.18758963  1
  Ga  Ga23  1  0.41786025  0.24349960  0.81241037  1
  Ga  Ga24  1  0.18758963  0.91786025  0.25650040  1
  Ga  Ga25  1  0.24349960  0.81241037  0.41786025  1
  Ga  Ga26  1  0.25650040  0.18758963  0.91786025  1
  Ga  Ga27  1  0.75650040  0.31241037  0.08213975  1
loop_
_geom_bond_atom_site_label_1
_geom_bond_atom_site_label_2
_geom_bond_distance
_geom_bond_site_symmetry_2
Ba0 Ga16 3.542460 1_555
Ba0 Ga18 3.542460 1_555
Ba0 Ga17 3.542460 1_555
Ba0 Ga8 3.580416 1_655
Ba0 Ga15 3.580416 1_556
Ba0 Ga9 3.580416 1_565
Ba1 Ga22 3.542460 1_555
Ba1 Ga27 3.542460 1_555
Ba1 Ga19 3.542460 1_555
Ba1 Ga11 3.580416 1_555
Ba1 Ga12 3.580416 1_545
Ba1 Ga4 3.580416 1_555
Ba2 Ga24 3.542460 1_555
Ba2 Ga20 3.542460 1_555
Ba2 Ga25 3.542460 1_555
Ba2 Ga7 3.580416 1_555
Ba2 Ga14 3.580416 1_554
Ba2 Ga5 3.580416 1_555
Ba3 Ga26 3.542460 1_555
Ba3 Ga21 3.542460 1_555
Ba3 Ga23 3.542460 1_555
Ba3 Ga13 3.580416 1_555
Ba3 Ga6 3.580416 1_555
Ba3 Ga10 3.580416 1_455
Ba4 Ga11 3.586288 1_555
Ba4 Ga13 3.586288 1_555
Ba4 Ga7 3.586288 1_555
Ba4 Ga24 3.639817 1_545
Ba4 Ga26 3.639817 1_554
Ba4 Ga22 3.639817 1_455
Ba5 Ga6 3.586288 1_555
Ba5 Ga14 3.586288 1_555
Ba5 Ga8 3.586288 1_555
Ba5 Ga17 3.639817 1_555
Ba5 Ga25 3.639817 1_555
Ba5 Ga21 3.639817 1_565
Ba6 Ga4 3.586288 1_555
Ba6 Ga10 3.586288 1_555
Ba6 Ga9 3.586288 1_555
Ba6 Ga18 3.639817 1_555
Ba6 Ga23 3.639817 1_555
Ba6 Ga27 3.639817 1_556
Ba7 Ga5 3.586288 1_555
Ba7 Ga12 3.586288 1_555
Ba7 Ga15 3.586288 1_555
Ba7 Ga16 3.639817 1_555
Ba7 Ga19 3.639817 1_555
Ba7 Ga20 3.639817 1_655
Ba8 Ga27 3.396887 1_555
Ba8 Ga15 3.501039 1_555
Ba8 Ga19 3.651957 1_555
Ba8 Ga18 3.666969 1_554
Ba8 Ga1 3.695818 1_654
Ba9 Ga20 3.396887 1_555
Ba9 Ga8 3.501039 1_555
Ba9 Ga25 3.651957 1_555
Ba9 Ga16 3.666969 1_455
Ba9 Ga2 3.695818 1_465
Ba10 Ga21 3.396887 1_555
Ba10 Ga9 3.501039 1_555
Ba10 Ga23 3.651957 1_555
Ba10 Ga17 3.666969 1_545
Ba10 Ga3 3.695818 1_546
Ba11 Ga24 3.396887 1_655
Ba11 Ga12 3.501039 1_555
Ba11 Ga20 3.651957 1_655
Ba11 Ga22 3.666969 1_565
Ba11 Ga2 3.695818 1_565
Ba12 Ga17 3.396887 1_555
Ba12 Ga5 3.501039 1_555
Ba12 Ga16 3.651957 1_555
Ba12 Ga25 3.666969 1_555
Ba12 Ga0 3.695818 1_555
Ba13 Ga18 3.396887 1_555
Ba13 Ga6 3.501039 1_555
Ba13 Ga17 3.651957 1_555
Ba13 Ga23 3.666969 1_555
Ba13 Ga0 3.695818 1_555
Ba14 Ga23 3.396887 1_554
Ba14 Ga11 3.501039 1_555
Ba14 Ga26 3.651957 1_554
Ba14 Ga27 3.666969 1_555
Ba14 Ga3 3.695818 1_545
Ba15 Ga22 3.396887 1_556
Ba15 Ga10 3.501039 1_555
Ba15 Ga27 3.651957 1_556
Ba15 Ga26 3.666969 1_655
Ba15 Ga1 3.695818 1_655
Ba16 Ga19 3.396887 1_455
Ba16 Ga7 3.501039 1_555
Ba16 Ga22 3.651957 1_455
Ba16 Ga20 3.666969 1_555
Ba16 Ga1 3.695818 1_554
Ba17 Ga26 3.396887 1_565
Ba17 Ga14 3.501039 1_555
Ba17 Ga21 3.651957 1_565
Ba17 Ga24 3.666969 1_556
Ba17 Ga3 3.695818 1_556
Ba18 Ga25 3.396887 1_545
Ba18 Ga13 3.501039 1_555
Ba18 Ga24 3.651957 1_545
Ba18 Ga21 3.666969 1_555
Ba18 Ga2 3.695818 1_455
Ba19 Ga16 3.396887 1_555
Ba19 Ga4 3.501039 1_555
Ba19 Ga18 3.651957 1_555
Ba19 Ga19 3.666969 1_555
Ba19 Ga0 3.695818 1_555
Ba20 Ga17 3.413937 1_555
Ba20 Ga3 3.467096 1_556
Ba20 Ga5 3.479844 1_556
Ba20 Ga15 3.625292 1_556
Ba20 Ga14 3.692116 1_555
Ba20 Ga18 3.722453 1_555
Ba21 Ga18 3.413937 1_555
Ba21 Ga1 3.467096 1_655
Ba21 Ga6 3.479844 1_655
Ba21 Ga8 3.625292 1_655
Ba21 Ga10 3.692116 1_555
Ba21 Ga16 3.722453 1_555
Ba22 Ga16 3.413937 1_555
Ba22 Ga2 3.467096 1_565
Ba22 Ga4 3.479844 1_565
Ba22 Ga9 3.625292 1_565
Ba22 Ga12 3.692116 1_555
Ba22 Ga17 3.722453 1_555
Ba23 Ga27 3.413937 1_555
Ba23 Ga3 3.467096 1_545
Ba23 Ga15 3.479844 1_545
Ba23 Ga12 3.625292 1_545
Ba23 Ga9 3.692116 1_554
Ba23 Ga22 3.722453 1_555
Ba24 Ga24 3.413937 1_555
Ba24 Ga3 3.467096 1_555
Ba24 Ga12 3.479844 1_555
Ba24 Ga5 3.625292 1_555
Ba24 Ga11 3.692116 1_565
Ba24 Ga25 3.722453 1_555
Ba25 Ga26 3.413937 1_555
Ba25 Ga1 3.467096 1_555
Ba25 Ga14 3.479844 1_555
Ba25 Ga6 3.625292 1_555
Ba25 Ga7 3.692116 1_556
Ba25 Ga23 3.722453 1_555
Ba26 Ga19 3.413937 1_555
Ba26 Ga0 3.467096 1_555
Ba26 Ga7 3.479844 1_555
Ba26 Ga11 3.625292 1_555
Ba26 Ga5 3.692116 1_555
Ba26 Ga27 3.722453 1_555
Ba27 Ga21 3.413937 1_555
Ba27 Ga2 3.467096 1_455
Ba27 Ga9 3.479844 1_455
Ba27 Ga10 3.625292 1_455
Ba27 Ga8 3.692116 1_545
Ba27 Ga26 3.722453 1_555
Ba28 Ga25 3.413937 1_555
Ba28 Ga0 3.467096 1_555
Ba28 Ga13 3.479844 1_555
Ba28 Ga7 3.625292 1_555
Ba28 Ga6 3.692116 1_555
Ba28 Ga20 3.722453 1_555
Ba29 Ga20 3.413937 1_555
Ba29 Ga1 3.467096 1_554
Ba29 Ga8 3.479844 1_554
Ba29 Ga14 3.625292 1_554
Ba29 Ga15 3.692116 1_455
Ba29 Ga24 3.722453 1_555
Ba30 Ga23 3.413937 1_555
Ba30 Ga0 3.467096 1_555
Ba30 Ga11 3.479844 1_555
Ba30 Ga13 3.625292 1_555
Ba30 Ga4 3.692116 1_555
Ba30 Ga21 3.722453 1_555
Ba31 Ga22 3.413937 1_555
Ba31 Ga2 3.467096 1_555
Ba31 Ga10 3.479844 1_555
Ba31 Ga4 3.625292 1_555
Ba31 Ga13 3.692116 1_655
Ba31 Ga19 3.722453 1_555
Ga0 Ga11 2.740515 1_555
Ga0 Ga7 2.740515 1_555
Ga0 Ga13 2.740515 1_555
Ga1 Ga14 2.740515 1_555
Ga1 Ga8 2.740515 1_555
Ga1 Ga6 2.740515 1_555
Ga2 Ga9 2.740515 1_555
Ga2 Ga4 2.740515 1_555
Ga3 Ga5 2.740515 1_555
Ga4 Ga9 2.673173 1_555
Ga6 Ga8 2.673173 1_555
Ga10 Ga9 2.673173 1_555
Ga10 Ga4 2.673173 1_555
Ga10 Ga2 2.740515 1_555
Ga11 Ga13 2.673173 1_555
Ga11 Ga7 2.673173 1_555
Ga12 Ga15 2.673173 1_555
Ga12 Ga5 2.673173 1_555
Ga12 Ga3 2.740515 1_555
Ga13 Ga7 2.673173 1_555
Ga14 Ga8 2.673173 1_555
Ga14 Ga6 2.673173 1_555
Ga15 Ga5 2.673173 1_555
Ga15 Ga3 2.740515 1_555
Ga16 Ga18 2.622311 1_555
Ga16 Ga17 2.622311 1_555
Ga17 Ga18 2.622311 1_555
Ga19 Ga27 2.622311 1_555
Ga19 Ga22 2.622311 1_555
Ga20 Ga25 2.622311 1_555
Ga20 Ga24 2.622311 1_555
Ga21 Ga23 2.622311 1_555
Ga21 Ga26 2.622311 1_555
Ga22 Ga27 2.622311 1_555
Ga23 Ga26 2.622311 1_555
Ga24 Ga25 2.622311 1_555
