# generated using pymatgen
data_Ca5Ge2SbF
_symmetry_space_group_name_H-M   'P 1'
_cell_length_a   9.16181334
_cell_length_b   9.16181387
_cell_length_c   9.16181391
_cell_angle_alpha   129.38909897
_cell_angle_beta   129.38910523
_cell_angle_gamma   74.38529453
_symmetry_Int_Tables_number   1
_chemical_formula_structural   Ca5Ge2SbF
_chemical_formula_sum   'Ca10 Ge4 Sb2 F2'
_cell_volume   447.72039759
_cell_formula_units_Z   2
loop_
 _symmetry_equiv_pos_site_id
 _symmetry_equiv_pos_as_xyz
  1  'x, y, z'
loop_
 _atom_site_type_symbol
 _atom_site_label
 _atom_site_symmetry_multiplicity
 _atom_site_fract_x
 _atom_site_fract_y
 _atom_site_fract_z
 _atom_site_occupancy
  Ca  Ca0  1  0.50000000  0.50000000  0.00000000  1
  Ca  Ca1  1  0.00000000  0.00000000  0.00000000  1
  Ca  Ca2  1  0.51782773  0.01782773  0.82020658  1
  Ca  Ca3  1  0.19762214  0.69762214  0.17979342  1
  Ca  Ca4  1  0.01782773  0.19762214  0.50000000  1
  Ca  Ca5  1  0.69762214  0.51782773  0.50000000  1
  Ca  Ca6  1  0.48217227  0.98217227  0.17979342  1
  Ca  Ca7  1  0.80237786  0.30237786  0.82020658  1
  Ca  Ca8  1  0.98217227  0.80237786  0.50000000  1
  Ca  Ca9  1  0.30237786  0.48217227  0.50000000  1
  Ge  Ge0  1  0.87770174  0.37770174  0.25540247  1
  Ge  Ge1  1  0.12229826  0.62229826  0.74459753  1
  Ge  Ge2  1  0.37770174  0.12229826  0.50000000  1
  Ge  Ge3  1  0.62229826  0.87770174  0.50000000  1
  Sb  Sb0  1  0.25000000  0.25000000  0.00000000  1
  Sb  Sb1  1  0.75000000  0.75000000  0.00000000  1
  F  F0  1  0.25000000  0.75000000  0.50000000  1
  F  F1  1  0.75000000  0.25000000  0.50000000  1
loop_
_geom_bond_atom_site_label_1
_geom_bond_atom_site_label_2
_geom_bond_distance
_geom_bond_site_symmetry_2
Ca0 Ge1 3.109493 1_554
Ca0 Ge0 3.109493 1_555
Ca0 Ge3 3.109496 1_555
Ca0 Ge2 3.109496 1_554
Ca0 Sb1 3.649185 1_555
Ca0 Sb0 3.649185 1_555
Ca1 Ge0 3.109493 1_455
Ca1 Ge1 3.109493 1_544
Ca1 Ge3 3.109495 1_444
Ca1 Ge2 3.109495 1_555
Ca1 Sb1 3.649185 1_445
Ca1 Sb0 3.649185 1_555
Ca2 F0 2.370117 1_545
Ca2 Ge2 3.048431 1_555
Ca2 Ge3 3.048431 1_545
Ca2 Ge0 3.181543 1_556
Ca2 Sb1 3.336494 1_546
Ca2 Sb0 3.336494 1_556
Ca3 F0 2.370127 1_555
Ca3 Ge3 3.048420 1_555
Ca3 Ge2 3.048421 1_565
Ca3 Ge1 3.181524 1_554
Ca3 Sb1 3.336501 1_455
Ca3 Sb0 3.336501 1_555
Ca4 F1 2.370118 1_455
Ca4 Ge1 3.048420 1_555
Ca4 Ge0 3.048430 1_455
Ca4 Ge2 3.181542 1_555
Ca4 Sb0 3.336499 1_556
Ca4 Sb1 3.336499 1_445
Ca5 F1 2.370118 1_555
Ca5 Ge1 3.048420 1_655
Ca5 Ge0 3.048430 1_555
Ca5 Ge3 3.181542 1_555
Ca5 Sb0 3.336499 1_555
Ca5 Sb1 3.336499 1_556
Ca6 F1 2.370117 1_565
Ca6 Ge3 3.048431 1_555
Ca6 Ge2 3.048431 1_565
Ca6 Ge1 3.181543 1_554
Ca6 Sb0 3.336494 1_565
Ca6 Sb1 3.336494 1_555
Ca7 F1 2.370127 1_555
Ca7 Ge2 3.048420 1_555
Ca7 Ge3 3.048421 1_545
Ca7 Ge0 3.181524 1_556
Ca7 Sb0 3.336501 1_656
Ca7 Sb1 3.336501 1_556
Ca8 F0 2.370118 1_655
Ca8 Ge0 3.048420 1_555
Ca8 Ge1 3.048430 1_655
Ca8 Ge3 3.181542 1_555
Ca8 Sb1 3.336499 1_555
Ca8 Sb0 3.336499 1_666
Ca9 F0 2.370118 1_555
Ca9 Ge0 3.048420 1_455
Ca9 Ge1 3.048430 1_555
Ca9 Ge2 3.181542 1_555
Ca9 Sb1 3.336499 1_556
Ca9 Sb0 3.336499 1_555
Ge0 Ge1 2.709303 1_655
Ge2 Ge3 2.709292 1_545
