# generated using pymatgen
data_K2BaSrSb2
_symmetry_space_group_name_H-M   'P 1'
_cell_length_a   5.42383312
_cell_length_b   8.81723112
_cell_length_c   10.42383202
_cell_angle_alpha   90.00000000
_cell_angle_beta   90.00000000
_cell_angle_gamma   90.00000000
_symmetry_Int_Tables_number   1
_chemical_formula_structural   K2BaSrSb2
_chemical_formula_sum   'K4 Ba2 Sr2 Sb4'
_cell_volume   498.50090075
_cell_formula_units_Z   2
loop_
 _symmetry_equiv_pos_site_id
 _symmetry_equiv_pos_as_xyz
  1  'x, y, z'
loop_
 _atom_site_type_symbol
 _atom_site_label
 _atom_site_symmetry_multiplicity
 _atom_site_fract_x
 _atom_site_fract_y
 _atom_site_fract_z
 _atom_site_occupancy
  K  K0  1  0.50000000  0.03141907  0.41412951  1
  K  K1  1  0.00000000  0.34619820  0.33999772  1
  K  K2  1  0.50000000  0.53141907  0.58587049  1
  K  K3  1  0.00000000  0.84619820  0.66000228  1
  Ba  Ba0  1  0.00000000  0.99228861  0.06362562  1
  Ba  Ba1  1  0.00000000  0.49228861  0.93637438  1
  Sr  Sr0  1  0.50000000  0.14620123  0.81331468  1
  Sr  Sr1  1  0.50000000  0.64620123  0.18668532  1
  Sb  Sb0  1  0.00000000  0.25478773  0.66768538  1
  Sb  Sb1  1  0.50000000  0.27470516  0.11554711  1
  Sb  Sb2  1  0.00000000  0.75478773  0.33231462  1
  Sb  Sb3  1  0.50000000  0.77470516  0.88445289  1
loop_
_geom_bond_atom_site_label_1
_geom_bond_atom_site_label_2
_geom_bond_distance
_geom_bond_site_symmetry_2
K0 Sb2 3.745814 1_645
K0 Sb2 3.745814 1_545
K0 Sb1 3.779995 1_555
K1 Sb0 3.509564 1_555
K1 Sb2 3.603518 1_555
K1 Sb1 3.636723 1_455
K1 Sb1 3.636723 1_555
K2 Sb0 3.745814 1_555
K2 Sb0 3.745814 1_655
K2 Sb3 3.779995 1_555
K3 Sb2 3.509564 1_555
K3 Sb0 3.603518 1_565
K3 Sb3 3.636723 1_455
K3 Sb3 3.636723 1_555
Ba0 Sb2 3.497079 1_555
Ba0 Sb1 3.721313 1_565
Ba0 Sb1 3.721313 1_465
Ba0 Sb3 3.810938 1_454
Ba0 Sb3 3.810938 1_554
Ba1 Sb0 3.497079 1_555
Ba1 Sb3 3.721313 1_555
Ba1 Sb3 3.721313 1_455
Ba1 Sb1 3.810938 1_456
Ba1 Sb1 3.810938 1_556
Sb0 Sr0 3.252005 1_455
Sb0 Sr0 3.252005 1_555
Sb1 Sr0 3.347976 1_554
Sb1 Sr1 3.358453 1_555
Sb2 Sr1 3.252005 1_455
Sb2 Sr1 3.252005 1_555
Sb3 Sr1 3.347976 1_556
Sb3 Sr0 3.358453 1_565
