# generated using pymatgen
data_Ba3AgRuO6
_symmetry_space_group_name_H-M   'P 1'
_cell_length_a   7.12924818
_cell_length_b   7.12924763
_cell_length_c   7.12924798
_cell_angle_alpha   90.49321634
_cell_angle_beta   90.49321974
_cell_angle_gamma   90.49321388
_symmetry_Int_Tables_number   1
_chemical_formula_structural   Ba3AgRuO6
_chemical_formula_sum   'Ba6 Ag2 Ru2 O12'
_cell_volume   362.31190120
_cell_formula_units_Z   2
loop_
 _symmetry_equiv_pos_site_id
 _symmetry_equiv_pos_as_xyz
  1  'x, y, z'
loop_
 _atom_site_type_symbol
 _atom_site_label
 _atom_site_symmetry_multiplicity
 _atom_site_fract_x
 _atom_site_fract_y
 _atom_site_fract_z
 _atom_site_occupancy
  Ba  Ba0  1  0.10383761  0.75000000  0.39616239  1
  Ba  Ba1  1  0.39616239  0.10383761  0.75000000  1
  Ba  Ba2  1  0.89616239  0.25000000  0.60383761  1
  Ba  Ba3  1  0.60383761  0.89616239  0.25000000  1
  Ba  Ba4  1  0.75000000  0.39616239  0.10383761  1
  Ba  Ba5  1  0.25000000  0.60383761  0.89616239  1
  Ag  Ag0  1  0.25000000  0.25000000  0.25000000  1
  Ag  Ag1  1  0.75000000  0.75000000  0.75000000  1
  Ru  Ru0  1  0.00000000  0.00000000  0.00000000  1
  Ru  Ru1  1  0.50000000  0.50000000  0.50000000  1
  O  O0  1  0.44376024  0.76144898  0.57937874  1
  O  O1  1  0.57937874  0.44376024  0.76144898  1
  O  O2  1  0.76144898  0.57937874  0.44376024  1
  O  O3  1  0.05623976  0.92062126  0.73855102  1
  O  O4  1  0.73855102  0.05623976  0.92062126  1
  O  O5  1  0.92062126  0.73855102  0.05623976  1
  O  O6  1  0.55623976  0.23855102  0.42062126  1
  O  O7  1  0.42062126  0.55623976  0.23855102  1
  O  O8  1  0.23855102  0.42062126  0.55623976  1
  O  O9  1  0.94376024  0.07937874  0.26144898  1
  O  O10  1  0.07937874  0.26144898  0.94376024  1
  O  O11  1  0.26144898  0.94376024  0.07937874  1
loop_
_geom_bond_atom_site_label_1
_geom_bond_atom_site_label_2
_geom_bond_distance
_geom_bond_site_symmetry_2
Ba0 O3 2.742878 1_555
Ba0 O2 2.742878 1_455
Ba0 O5 2.743338 1_455
Ba0 O0 2.743338 1_555
Ba0 O9 2.793748 1_465
Ba0 O8 2.793748 1_555
Ba0 O7 2.888241 1_555
Ba0 O11 2.888242 1_555
Ba1 O0 2.742878 1_545
Ba1 O4 2.742878 1_555
Ba1 O1 2.743338 1_555
Ba1 O3 2.743338 1_545
Ba1 O11 2.793749 1_546
Ba1 O6 2.793749 1_555
Ba1 O8 2.888241 1_555
Ba1 O10 2.888242 1_555
Ba2 O9 2.742878 1_555
Ba2 O8 2.742878 1_655
Ba2 O10 2.743338 1_655
Ba2 O6 2.743338 1_555
Ba2 O3 2.793748 1_645
Ba2 O2 2.793748 1_555
Ba2 O1 2.888241 1_555
Ba2 O4 2.888242 1_555
Ba3 O6 2.742878 1_565
Ba3 O11 2.742878 1_555
Ba3 O7 2.743338 1_555
Ba3 O9 2.743338 1_565
Ba3 O4 2.793749 1_564
Ba3 O0 2.793749 1_555
Ba3 O2 2.888241 1_555
Ba3 O5 2.888242 1_555
Ba4 O1 2.742878 1_554
Ba4 O5 2.742878 1_555
Ba4 O4 2.743338 1_554
Ba4 O2 2.743338 1_555
Ba4 O7 2.793749 1_555
Ba4 O10 2.793749 1_654
Ba4 O9 2.888241 1_555
Ba4 O6 2.888242 1_555
Ba5 O7 2.742878 1_556
Ba5 O10 2.742878 1_555
Ba5 O11 2.743338 1_556
Ba5 O8 2.743338 1_555
Ba5 O1 2.793749 1_555
Ba5 O5 2.793749 1_456
Ba5 O3 2.888241 1_555
Ba5 O0 2.888242 1_555
Ag0 O11 2.492382 1_545
Ag0 O10 2.492382 1_554
Ag0 O7 2.492382 1_555
Ag0 O8 2.492382 1_555
Ag0 O6 2.492383 1_555
Ag0 O9 2.492383 1_455
Ag1 O4 2.492382 1_565
Ag1 O5 2.492382 1_556
Ag1 O1 2.492382 1_555
Ag1 O2 2.492382 1_555
Ag1 O0 2.492383 1_555
Ag1 O3 2.492383 1_655
O0 Ru1 1.988436 1_555
O1 Ru1 1.988436 1_555
O2 Ru1 1.988436 1_555
O3 Ru0 1.988436 1_566
O4 Ru0 1.988436 1_656
O5 Ru0 1.988436 1_665
O6 Ru1 1.988436 1_555
O7 Ru1 1.988436 1_555
O8 Ru1 1.988436 1_555
O9 Ru0 1.988436 1_655
O10 Ru0 1.988436 1_556
O11 Ru0 1.988436 1_565
