# generated using pymatgen
data_ReSn(P2O7)2
_symmetry_space_group_name_H-M   'P 1'
_cell_length_a   5.12191870
_cell_length_b   6.73875511
_cell_length_c   8.35314920
_cell_angle_alpha   69.02295889
_cell_angle_beta   88.54207165
_cell_angle_gamma   88.53648570
_symmetry_Int_Tables_number   1
_chemical_formula_structural   ReSn(P2O7)2
_chemical_formula_sum   'Re1 Sn1 P4 O14'
_cell_volume   269.07489217
_cell_formula_units_Z   1
loop_
 _symmetry_equiv_pos_site_id
 _symmetry_equiv_pos_as_xyz
  1  'x, y, z'
loop_
 _atom_site_type_symbol
 _atom_site_label
 _atom_site_symmetry_multiplicity
 _atom_site_fract_x
 _atom_site_fract_y
 _atom_site_fract_z
 _atom_site_occupancy
  Re  Re0  1  0.24164575  0.21025519  0.73172096  1
  Sn  Sn0  1  0.75732388  0.78952643  0.26904855  1
  P  P0  1  0.24296836  0.11294604  0.16514286  1
  P  P1  1  0.27775504  0.45053912  0.31182950  1
  P  P2  1  0.72414626  0.54737562  0.68954746  1
  P  P3  1  0.75487089  0.88896424  0.83321193  1
  O  O0  1  0.18198636  0.28703266  0.47897555  1
  O  O1  1  0.03580690  0.94459606  0.77607702  1
  O  O2  1  0.09465648  0.63913621  0.23986105  1
  O  O3  1  0.28486478  0.34137043  0.17236045  1
  O  O4  1  0.29931816  0.13904047  0.98160380  1
  O  O5  1  0.43361998  0.96038443  0.28686876  1
  O  O6  1  0.44746620  0.47833968  0.68071934  1
  O  O7  1  0.55572175  0.51663770  0.32116423  1
  O  O8  1  0.56339162  0.04263365  0.71201939  1
  O  O9  1  0.69909508  0.86081310  0.01683140  1
  O  O10  1  0.71373641  0.65979763  0.82673201  1
  O  O11  1  0.90985899  0.36050660  0.76174609  1
  O  O12  1  0.96196537  0.05884122  0.22159763  1
  O  O13  1  0.81980272  0.71126550  0.52294103  1
loop_
_geom_bond_atom_site_label_1
_geom_bond_atom_site_label_2
_geom_bond_distance
_geom_bond_site_symmetry_2
O0 P1 1.515026 1_555
O0 Re0 2.015187 1_555
O1 P3 1.517678 1_455
O1 Re0 2.013774 1_565
O2 P1 1.508934 1_555
O2 Sn0 2.034158 1_455
O3 P0 1.582117 1_555
O3 P1 1.584257 1_555
O4 P0 1.500586 1_556
O4 Re0 1.995332 1_555
O5 P0 1.514978 1_565
O5 Sn0 2.027157 1_555
O6 P2 1.514492 1_555
O6 Re0 2.019863 1_555
O7 P1 1.514720 1_555
O7 Sn0 2.034296 1_555
O8 P3 1.518911 1_545
O8 Re0 2.010712 1_555
O9 P3 1.497427 1_554
O9 Sn0 2.014541 1_555
O10 P2 1.583135 1_555
O10 P3 1.584053 1_555
O11 P2 1.509472 1_555
O11 Re0 2.012019 1_655
O12 P0 1.515253 1_655
O12 Sn0 2.027411 1_545
O13 P2 1.512958 1_555
O13 Sn0 2.025695 1_555
