# generated using pymatgen
data_Rh2SeS3
_symmetry_space_group_name_H-M   'P 1'
_cell_length_a   3.58468769
_cell_length_b   5.67146049
_cell_length_c   20.30117212
_cell_angle_alpha   90.00000000
_cell_angle_beta   90.00000000
_cell_angle_gamma   90.00000000
_symmetry_Int_Tables_number   1
_chemical_formula_structural   Rh2SeS3
_chemical_formula_sum   'Rh8 Se4 S12'
_cell_volume   412.73124601
_cell_formula_units_Z   4
loop_
 _symmetry_equiv_pos_site_id
 _symmetry_equiv_pos_as_xyz
  1  'x, y, z'
loop_
 _atom_site_type_symbol
 _atom_site_label
 _atom_site_symmetry_multiplicity
 _atom_site_fract_x
 _atom_site_fract_y
 _atom_site_fract_z
 _atom_site_occupancy
  Rh  Rh0  1  0.25000000  0.07799231  0.58033176  1
  Rh  Rh1  1  0.25000000  0.42200769  0.08033176  1
  Rh  Rh2  1  0.75000000  0.92200769  0.41966824  1
  Rh  Rh3  1  0.75000000  0.57799231  0.91966824  1
  Rh  Rh4  1  0.25000000  0.05309272  0.80261087  1
  Rh  Rh5  1  0.25000000  0.44690728  0.30261087  1
  Rh  Rh6  1  0.75000000  0.94690728  0.19738913  1
  Rh  Rh7  1  0.75000000  0.55309272  0.69738913  1
  Se  Se0  1  0.75000000  0.23501476  0.50708220  1
  Se  Se1  1  0.75000000  0.26498524  0.00708220  1
  Se  Se2  1  0.25000000  0.76498524  0.49291780  1
  Se  Se3  1  0.25000000  0.73501476  0.99291780  1
  S  S0  1  0.25000000  0.43925346  0.85353514  1
  S  S1  1  0.25000000  0.06074654  0.35353514  1
  S  S2  1  0.75000000  0.56074654  0.14646486  1
  S  S3  1  0.75000000  0.93925346  0.64646486  1
  S  S4  1  0.75000000  0.16816416  0.73403355  1
  S  S5  1  0.75000000  0.33183584  0.23403355  1
  S  S6  1  0.25000000  0.83183584  0.26596645  1
  S  S7  1  0.25000000  0.66816416  0.76596645  1
  S  S8  1  0.75000000  0.95453939  0.87386698  1
  S  S9  1  0.75000000  0.54546061  0.37386698  1
  S  S10  1  0.25000000  0.04546061  0.12613302  1
  S  S11  1  0.25000000  0.45453939  0.62613302  1
loop_
_geom_bond_atom_site_label_1
_geom_bond_atom_site_label_2
_geom_bond_distance
_geom_bond_site_symmetry_2
Rh0 S11 2.329213 1_555
Rh0 S3 2.373637 1_445
Rh0 S3 2.373637 1_545
Rh0 Se0 2.493370 1_455
Rh0 Se0 2.493370 1_555
Rh0 Se2 2.510097 1_545
Rh1 S10 2.329213 1_555
Rh1 S2 2.373637 1_555
Rh1 S2 2.373637 1_455
Rh1 Se1 2.493370 1_555
Rh1 Se1 2.493370 1_455
Rh1 Se3 2.510097 1_554
Rh2 S9 2.329213 1_555
Rh2 S1 2.373637 1_565
Rh2 S1 2.373637 1_665
Rh2 Se2 2.493370 1_555
Rh2 Se2 2.493370 1_655
Rh2 Se0 2.510097 1_565
Rh3 S8 2.329213 1_555
Rh3 S0 2.373637 1_555
Rh3 S0 2.373637 1_655
Rh3 Se3 2.493370 1_555
Rh3 Se3 2.493370 1_655
Rh3 Se1 2.510097 1_556
Rh4 S7 2.306378 1_545
Rh4 S4 2.361490 1_455
Rh4 S4 2.361490 1_555
Rh4 S8 2.370129 1_445
Rh4 S8 2.370129 1_545
Rh4 S0 2.421839 1_555
Rh5 S6 2.306378 1_555
Rh5 S5 2.361490 1_455
Rh5 S5 2.361490 1_555
Rh5 S9 2.370129 1_555
Rh5 S9 2.370129 1_455
Rh5 S1 2.421839 1_555
Rh6 S5 2.306378 1_565
Rh6 S6 2.361490 1_655
Rh6 S6 2.361490 1_555
Rh6 S10 2.370129 1_565
Rh6 S10 2.370129 1_665
Rh6 S2 2.421839 1_555
Rh7 S4 2.306378 1_555
Rh7 S7 2.361490 1_655
Rh7 S7 2.361490 1_555
Rh7 S11 2.370129 1_555
Rh7 S11 2.370129 1_655
Rh7 S3 2.421839 1_555
S0 S7 2.201331 1_555
S1 S6 2.201331 1_545
S2 S5 2.201331 1_555
S3 S4 2.201331 1_565
