# generated using pymatgen
data_Ba6Sn8PAu
_symmetry_space_group_name_H-M   'P 1'
_cell_length_a   9.14115294
_cell_length_b   9.14115242
_cell_length_c   9.25626487
_cell_angle_alpha   119.58947021
_cell_angle_beta   119.58946908
_cell_angle_gamma   89.99999808
_symmetry_Int_Tables_number   1
_chemical_formula_structural   Ba6Sn8PAu
_chemical_formula_sum   'Ba6 Sn8 P1 Au1'
_cell_volume   553.63649025
_cell_formula_units_Z   1
loop_
 _symmetry_equiv_pos_site_id
 _symmetry_equiv_pos_as_xyz
  1  'x, y, z'
loop_
 _atom_site_type_symbol
 _atom_site_label
 _atom_site_symmetry_multiplicity
 _atom_site_fract_x
 _atom_site_fract_y
 _atom_site_fract_z
 _atom_site_occupancy
  Ba  Ba0  1  0.23839537  0.23839537  0.47679074  1
  Ba  Ba1  1  0.76160463  0.76160463  0.52320926  1
  Ba  Ba2  1  0.68073255  0.15670886  0.00000000  1
  Ba  Ba3  1  0.31926745  0.84329114  1.00000000  1
  Ba  Ba4  1  0.84329114  0.68073255  1.00000000  1
  Ba  Ba5  1  0.15670886  0.31926745  0.00000000  1
  Sn  Sn0  1  0.33804444  0.82968490  0.38844786  1
  Sn  Sn1  1  0.66195556  0.17031510  0.61155214  1
  Sn  Sn2  1  0.05040442  0.55876396  0.38844786  1
  Sn  Sn3  1  0.55876396  0.33804444  0.38844786  1
  Sn  Sn4  1  0.17031510  0.94959558  0.61155214  1
  Sn  Sn5  1  0.94959558  0.44123604  0.61155214  1
  Sn  Sn6  1  0.44123604  0.66195556  0.61155214  1
  Sn  Sn7  1  0.82968490  0.05040442  0.38844786  1
  P  P0  1  0.00000000  0.00000000  0.00000000  1
  Au  Au0  1  0.50000000  0.50000000  0.00000000  1
loop_
_geom_bond_atom_site_label_1
_geom_bond_atom_site_label_2
_geom_bond_distance
_geom_bond_site_symmetry_2
Ba0 P0 3.159007 1_555
Ba0 Sn6 3.596016 1_555
Ba0 Sn1 3.596019 1_555
Ba0 Sn5 3.596025 1_455
Ba0 Sn4 3.596028 1_545
Ba0 Sn7 3.629772 1_455
Ba0 Sn0 3.629775 1_545
Ba0 Sn2 3.629780 1_555
Ba0 Sn3 3.629784 1_555
Ba1 P0 3.159007 1_666
Ba1 Sn3 3.596016 1_555
Ba1 Sn0 3.596019 1_555
Ba1 Sn2 3.596025 1_655
Ba1 Sn7 3.596028 1_565
Ba1 Sn4 3.629772 1_655
Ba1 Sn1 3.629775 1_565
Ba1 Sn5 3.629780 1_555
Ba1 Sn6 3.629784 1_555
Ba2 P0 3.251082 1_655
Ba2 Sn1 3.578444 1_554
Ba2 Sn2 3.578452 1_655
Ba2 Sn7 3.787096 1_555
Ba2 Sn6 3.787103 1_544
Ba2 Sn3 3.871943 1_555
Ba2 Sn4 3.871950 1_544
Ba2 Sn0 4.070539 1_544
Ba2 Sn5 4.070540 1_555
Ba3 P0 3.251082 1_566
Ba3 Sn0 3.578444 1_556
Ba3 Sn5 3.578452 1_455
Ba3 Sn4 3.787096 1_555
Ba3 Sn3 3.787103 1_566
Ba3 Sn6 3.871943 1_555
Ba3 Sn7 3.871950 1_566
Ba3 Sn1 4.070539 1_566
Ba3 Sn2 4.070540 1_555
Ba4 P0 3.251082 1_666
Ba4 Sn7 3.578448 1_566
Ba4 Sn6 3.578449 1_555
Ba4 Sn5 3.787097 1_555
Ba4 Sn0 3.787102 1_656
Ba4 Sn2 3.871944 1_656
Ba4 Sn1 3.871950 1_555
Ba4 Sn3 4.070539 1_555
Ba4 Sn4 4.070539 1_656
Ba5 P0 3.251082 1_555
Ba5 Sn4 3.578448 1_544
Ba5 Sn3 3.578449 1_555
Ba5 Sn2 3.787097 1_555
Ba5 Sn1 3.787102 1_454
Ba5 Sn5 3.871944 1_454
Ba5 Sn0 3.871950 1_555
Ba5 Sn6 4.070539 1_555
Ba5 Sn7 4.070539 1_454
Sn0 Sn4 2.951011 1_555
Sn0 Sn6 2.951011 1_555
Sn0 Sn1 3.215326 1_565
Sn1 Sn7 2.951011 1_555
Sn1 Sn3 2.951011 1_555
Sn2 Sn4 2.950995 1_555
Sn2 Sn6 2.950995 1_555
Sn2 Sn5 3.215350 1_455
Sn3 Sn5 2.950995 1_555
Sn3 Sn6 3.215338 1_555
Sn4 Sn7 3.215337 1_465
Sn5 Sn7 2.950995 1_555
Au0 Ba1 3.466556 1_555
Au0 Ba0 3.466556 1_554
Au0 Ba3 3.546403 1_554
Au0 Ba2 3.546403 1_555
Au0 Ba4 3.546403 1_554
Au0 Ba5 3.546403 1_555
