# generated using pymatgen
data_NbAg4Te3O14
_symmetry_space_group_name_H-M   'P 1'
_cell_length_a   7.26121130
_cell_length_b   7.26121054
_cell_length_c   7.39951348
_cell_angle_alpha   120.02182578
_cell_angle_beta   118.82908777
_cell_angle_gamma   89.92883030
_symmetry_Int_Tables_number   1
_chemical_formula_structural   NbAg4Te3O14
_chemical_formula_sum   'Nb1 Ag4 Te3 O14'
_cell_volume   280.72581705
_cell_formula_units_Z   1
loop_
 _symmetry_equiv_pos_site_id
 _symmetry_equiv_pos_as_xyz
  1  'x, y, z'
loop_
 _atom_site_type_symbol
 _atom_site_label
 _atom_site_symmetry_multiplicity
 _atom_site_fract_x
 _atom_site_fract_y
 _atom_site_fract_z
 _atom_site_occupancy
  Nb  Nb0  1  0.50000000  0.50000000  0.50000000  1
  Ag  Ag0  1  0.00000000  0.50000000  0.50000000  1
  Ag  Ag1  1  0.50000000  0.00000000  0.50000000  1
  Ag  Ag2  1  0.00000000  0.50000000  0.00000000  1
  Ag  Ag3  1  0.00000000  0.00000000  0.50000000  1
  Te  Te0  1  0.50000000  0.50000000  0.00000000  1
  Te  Te1  1  0.00000000  0.00000000  0.00000000  1
  Te  Te2  1  0.50000000  0.00000000  0.00000000  1
  O  O0  1  0.53921098  0.42035870  0.73354966  1
  O  O1  1  0.44921940  0.18085072  0.87204331  1
  O  O2  1  0.80880641  0.07717509  0.12795669  1
  O  O3  1  0.18680904  0.30566132  0.26645034  1
  O  O4  1  0.46078902  0.57964130  0.26645034  1
  O  O5  1  0.55078060  0.81914928  0.12795669  1
  O  O6  1  0.19119359  0.92282491  0.87204331  1
  O  O7  1  0.81319096  0.69433868  0.73354966  1
  O  O8  1  0.58772451  0.23987804  0.32760254  1
  O  O9  1  0.41227549  0.76012196  0.67239746  1
  O  O10  1  0.18821562  0.42752021  0.78906945  1
  O  O11  1  0.81178438  0.57247979  0.21093055  1
  O  O12  1  0.86154825  0.10085383  0.78906945  1
  O  O13  1  0.13845175  0.89914617  0.21093055  1
loop_
_geom_bond_atom_site_label_1
_geom_bond_atom_site_label_2
_geom_bond_distance
_geom_bond_site_symmetry_2
Nb0 O7 1.981694 1_555
Nb0 O3 1.981694 1_555
Nb0 O0 1.981694 1_555
Nb0 O4 1.981694 1_555
Nb0 O8 1.992542 1_555
Nb0 O9 1.992542 1_555
Ag0 O10 2.241754 1_555
Ag0 O11 2.241754 1_455
Ag0 O3 2.575556 1_555
Ag0 O7 2.575556 1_455
Ag0 O6 2.607557 1_555
Ag0 O2 2.607557 1_455
Ag1 O12 2.241749 1_555
Ag1 O13 2.241749 1_545
Ag1 O0 2.575556 1_555
Ag1 O4 2.575556 1_545
Ag1 O1 2.607553 1_555
Ag1 O5 2.607553 1_545
Ag2 O10 2.411266 1_554
Ag2 O11 2.411266 1_455
Ag2 O13 2.411267 1_555
Ag2 O12 2.411267 1_454
Ag3 O10 2.574235 1_555
Ag3 O11 2.574235 1_445
Ag3 O13 2.574241 1_545
Ag3 O12 2.574241 1_455
Ag3 O6 2.770566 1_545
Ag3 O2 2.770566 1_455
Ag3 O1 2.770571 1_555
Ag3 O5 2.770571 1_445
O0 Te0 1.924253 1_556
O1 Te2 1.913946 1_556
O1 Te0 1.967901 1_556
O2 Te2 1.913939 1_555
O2 Te1 1.967908 1_655
O3 Te1 1.924252 1_555
O4 Te0 1.924253 1_555
O5 Te2 1.913946 1_565
O5 Te0 1.967901 1_555
O6 Te2 1.913939 1_566
O6 Te1 1.967908 1_566
O7 Te1 1.924252 1_666
O8 Te2 1.898529 1_555
O9 Te2 1.898529 1_566
O10 Te0 1.900448 1_556
O11 Te0 1.900448 1_555
O12 Te1 1.900449 1_656
O13 Te1 1.900449 1_565
