# generated using pymatgen
data_Ir3OsPb4O13
_symmetry_space_group_name_H-M   'P 1'
_cell_length_a   7.27186752
_cell_length_b   7.31502237
_cell_length_c   7.27190866
_cell_angle_alpha   60.19416493
_cell_angle_beta   59.99926818
_cell_angle_gamma   60.19371380
_symmetry_Int_Tables_number   1
_chemical_formula_structural   Ir3OsPb4O13
_chemical_formula_sum   'Ir3 Os1 Pb4 O13'
_cell_volume   274.32128412
_cell_formula_units_Z   1
loop_
 _symmetry_equiv_pos_site_id
 _symmetry_equiv_pos_as_xyz
  1  'x, y, z'
loop_
 _atom_site_type_symbol
 _atom_site_label
 _atom_site_symmetry_multiplicity
 _atom_site_fract_x
 _atom_site_fract_y
 _atom_site_fract_z
 _atom_site_occupancy
  Ir  Ir0  1  0.87477648  0.87467091  0.37577539  1
  Ir  Ir1  1  0.87477455  0.87467238  0.87477629  1
  Ir  Ir2  1  0.37577450  0.87467419  0.87477621  1
  Os  Os0  1  0.87496308  0.37511588  0.87496107  1
  Pb  Pb0  1  0.88266120  0.37277777  0.37228104  1
  Pb  Pb1  1  0.37228302  0.37277816  0.37228154  1
  Pb  Pb2  1  0.37228351  0.37277915  0.88265594  1
  Pb  Pb3  1  0.37416019  0.87752376  0.37415790  1
  O  O0  1  0.20604918  0.79161046  0.79627377  1
  O  O1  1  0.20605295  0.79160898  0.20605871  1
  O  O2  1  0.54712223  0.95756837  0.94820311  1
  O  O3  1  0.54711899  0.95756951  0.54711444  1
  O  O4  1  0.94820082  0.95756805  0.54712107  1
  O  O5  1  0.79627418  0.79161013  0.20605225  1
  O  O6  1  0.55828499  0.55107307  0.94532397  1
  O  O7  1  0.80087286  0.20249676  0.80087580  1
  O  O8  1  0.80087356  0.20250015  0.19574822  1
  O  O9  1  0.94532092  0.55108143  0.94532329  1
  O  O10  1  0.94532125  0.55107839  0.55828394  1
  O  O11  1  0.19574593  0.20250368  0.80087466  1
  O  O12  1  0.50108661  0.49674383  0.50108239  1
loop_
_geom_bond_atom_site_label_1
_geom_bond_atom_site_label_2
_geom_bond_distance
_geom_bond_site_symmetry_2
Ir0 O3 1.985760 1_555
Ir0 O4 1.985862 1_555
Ir0 O10 1.994554 1_555
Ir0 O1 2.003196 1_655
Ir0 O5 2.003299 1_555
Ir0 O8 2.013660 1_565
Ir1 O2 1.985724 1_555
Ir1 O4 1.985764 1_555
Ir1 O9 1.994537 1_555
Ir1 O0 2.003182 1_655
Ir1 O5 2.003213 1_556
Ir1 O7 2.013633 1_565
Ir2 O3 1.985805 1_555
Ir2 O2 1.985870 1_555
Ir2 O6 1.994595 1_555
Ir2 O1 2.003251 1_556
Ir2 O0 2.003327 1_555
Ir2 O11 2.013655 1_565
O0 Pb3 2.530849 1_555
O0 Pb2 2.531157 1_555
O1 Pb3 2.530907 1_555
O1 Pb1 2.531153 1_555
O2 Pb2 2.529141 1_565
O2 Pb3 2.559775 1_556
O3 Pb1 2.529131 1_565
O3 Pb3 2.559840 1_555
O4 Pb0 2.529150 1_565
O4 Pb3 2.559782 1_655
O5 Pb3 2.530815 1_555
O5 Pb0 2.531165 1_555
O6 Os0 1.936828 1_555
O6 Pb1 2.588210 1_556
O6 Pb2 2.588269 1_555
O7 Os0 1.953929 1_555
O7 Pb2 2.577251 1_555
O7 Pb0 2.577305 1_555
O8 Os0 1.953860 1_554
O8 Pb1 2.577256 1_555
O8 Pb0 2.577354 1_555
O9 Os0 1.936926 1_555
O9 Pb2 2.588211 1_655
O9 Pb0 2.588218 1_556
O10 Os0 1.936853 1_555
O10 Pb1 2.588212 1_655
O10 Pb0 2.588282 1_555
O11 Os0 1.953810 1_455
O11 Pb1 2.577296 1_555
O11 Pb2 2.577335 1_555
O12 Pb0 2.267778 1_555
O12 Pb2 2.267795 1_555
O12 Pb1 2.267800 1_555
O12 Pb3 2.280929 1_555
