# generated using pymatgen
data_TbCd2
_symmetry_space_group_name_H-M   'P 1'
_cell_length_a   9.85588756
_cell_length_b   9.85588503
_cell_length_c   6.94897292
_cell_angle_alpha   90.00000000
_cell_angle_beta   90.00000000
_cell_angle_gamma   119.99999468
_symmetry_Int_Tables_number   1
_chemical_formula_structural   TbCd2
_chemical_formula_sum   'Tb8 Cd16'
_cell_volume   584.57823705
_cell_formula_units_Z   8
loop_
 _symmetry_equiv_pos_site_id
 _symmetry_equiv_pos_as_xyz
  1  'x, y, z'
loop_
 _atom_site_type_symbol
 _atom_site_label
 _atom_site_symmetry_multiplicity
 _atom_site_fract_x
 _atom_site_fract_y
 _atom_site_fract_z
 _atom_site_occupancy
  Tb  Tb0_0  1  0.00000000  0.00000000  0.00000000  1
  Tb  Tb0_1  1  0.00000000  0.00000000  0.50000000  1
  Tb  Tb0_2  1  0.00000000  0.50000000  0.00000000  1
  Tb  Tb0_3  1  0.00000000  0.50000000  0.50000000  1
  Tb  Tb0_4  1  0.50000000  0.00000000  0.00000000  1
  Tb  Tb0_5  1  0.50000000  0.00000000  0.50000000  1
  Tb  Tb0_6  1  0.50000000  0.50000000  0.00000000  1
  Tb  Tb0_7  1  0.50000000  0.50000000  0.50000000  1
  Cd  Cd0_0  1  0.16666650  0.33333350  0.25000000  1
  Cd  Cd0_1  1  0.16666650  0.33333350  0.75000000  1
  Cd  Cd0_2  1  0.16666650  0.83333350  0.25000000  1
  Cd  Cd0_3  1  0.16666650  0.83333350  0.75000000  1
  Cd  Cd0_4  1  0.66666650  0.33333350  0.25000000  1
  Cd  Cd0_5  1  0.66666650  0.33333350  0.75000000  1
  Cd  Cd0_6  1  0.66666650  0.83333350  0.25000000  1
  Cd  Cd0_7  1  0.66666650  0.83333350  0.75000000  1
  Cd  Cd1_0  1  0.33333350  0.16666650  0.25000000  1
  Cd  Cd1_1  1  0.33333350  0.16666650  0.75000000  1
  Cd  Cd1_2  1  0.33333350  0.66666650  0.25000000  1
  Cd  Cd1_3  1  0.33333350  0.66666650  0.75000000  1
  Cd  Cd1_4  1  0.83333350  0.16666650  0.25000000  1
  Cd  Cd1_5  1  0.83333350  0.16666650  0.75000000  1
  Cd  Cd1_6  1  0.83333350  0.66666650  0.25000000  1
  Cd  Cd1_7  1  0.83333350  0.66666650  0.75000000  1
loop_
_geom_bond_atom_site_label_1
_geom_bond_atom_site_label_2
_geom_bond_distance
_geom_bond_site_symmetry_2
Cd0_0 Cd1_2 2.845146 1_555
Cd0_0 Cd1_4 2.845147 1_455
Cd0_0 Cd1_0 2.845155 1_555
Cd0_0 Tb0_3 3.333597 1_555
Cd0_0 Tb0_2 3.333597 1_555
Cd0_0 Tb0_0 3.333601 1_555
Cd0_0 Tb0_1 3.333601 1_555
Cd0_0 Tb0_7 3.333602 1_555
Cd0_0 Tb0_6 3.333602 1_555
Cd0_0 Cd0_1 3.474486 1_554
Cd0_0 Cd0_1 3.474486 1_555
Cd0_1 Cd1_3 2.845146 1_555
Cd0_1 Cd1_5 2.845147 1_455
Cd0_1 Cd1_1 2.845155 1_555
Cd0_1 Tb0_2 3.333597 1_556
Cd0_1 Tb0_3 3.333597 1_555
Cd0_1 Tb0_0 3.333601 1_556
Cd0_1 Tb0_1 3.333601 1_555
Cd0_1 Tb0_6 3.333602 1_556
Cd0_1 Tb0_7 3.333602 1_555
Cd0_2 Cd1_0 2.845146 1_565
Cd0_2 Cd1_6 2.845147 1_455
Cd0_2 Cd1_2 2.845155 1_555
Cd0_2 Tb0_0 3.333597 1_565
Cd0_2 Tb0_1 3.333597 1_565
Cd0_2 Tb0_3 3.333601 1_555
Cd0_2 Tb0_2 3.333601 1_555
Cd0_2 Tb0_4 3.333602 1_565
Cd0_2 Tb0_5 3.333602 1_565
Cd0_2 Cd0_3 3.474486 1_554
Cd0_2 Cd0_3 3.474486 1_555
Cd0_3 Cd1_1 2.845146 1_565
Cd0_3 Cd1_7 2.845147 1_455
Cd0_3 Cd1_3 2.845155 1_555
Cd0_3 Tb0_0 3.333597 1_566
Cd0_3 Tb0_1 3.333597 1_565
Cd0_3 Tb0_2 3.333601 1_556
Cd0_3 Tb0_3 3.333601 1_555
Cd0_3 Tb0_4 3.333602 1_566
Cd0_3 Tb0_5 3.333602 1_565
Cd0_4 Cd1_6 2.845146 1_555
Cd0_4 Cd1_0 2.845147 1_555
Cd0_4 Cd1_4 2.845155 1_555
Cd0_4 Tb0_7 3.333597 1_555
Cd0_4 Tb0_6 3.333597 1_555
Cd0_4 Tb0_4 3.333601 1_555
Cd0_4 Tb0_5 3.333601 1_555
Cd0_4 Tb0_2 3.333602 1_655
Cd0_4 Tb0_3 3.333602 1_655
Cd0_4 Cd0_5 3.474486 1_554
Cd0_4 Cd0_5 3.474486 1_555
Cd0_5 Cd1_7 2.845146 1_555
Cd0_5 Cd1_1 2.845147 1_555
Cd0_5 Cd1_5 2.845155 1_555
Cd0_5 Tb0_6 3.333597 1_556
Cd0_5 Tb0_7 3.333597 1_555
Cd0_5 Tb0_4 3.333601 1_556
Cd0_5 Tb0_5 3.333601 1_555
Cd0_5 Tb0_2 3.333602 1_656
Cd0_5 Tb0_3 3.333602 1_655
Cd0_6 Cd1_4 2.845146 1_565
Cd0_6 Cd1_2 2.845147 1_555
Cd0_6 Cd1_6 2.845155 1_555
Cd0_6 Tb0_4 3.333597 1_565
Cd0_6 Tb0_5 3.333597 1_565
Cd0_6 Tb0_6 3.333601 1_555
Cd0_6 Tb0_7 3.333601 1_555
Cd0_6 Tb0_0 3.333602 1_665
Cd0_6 Tb0_1 3.333602 1_665
Cd0_6 Cd0_7 3.474486 1_554
Cd0_6 Cd0_7 3.474486 1_555
Cd0_7 Cd1_5 2.845146 1_565
Cd0_7 Cd1_3 2.845147 1_555
Cd0_7 Cd1_7 2.845155 1_555
Cd0_7 Tb0_4 3.333597 1_566
Cd0_7 Tb0_5 3.333597 1_565
Cd0_7 Tb0_6 3.333601 1_556
Cd0_7 Tb0_7 3.333601 1_555
Cd0_7 Tb0_0 3.333602 1_666
Cd0_7 Tb0_1 3.333602 1_665
Cd1_0 Tb0_4 3.333597 1_555
Cd1_0 Tb0_5 3.333597 1_555
Cd1_0 Tb0_6 3.333601 1_555
Cd1_0 Tb0_7 3.333601 1_555
Cd1_0 Tb0_0 3.333602 1_555
Cd1_0 Tb0_1 3.333602 1_555
Cd1_0 Cd1_1 3.474486 1_554
Cd1_0 Cd1_1 3.474486 1_555
Cd1_1 Tb0_4 3.333597 1_556
Cd1_1 Tb0_5 3.333597 1_555
Cd1_1 Tb0_6 3.333601 1_556
Cd1_1 Tb0_7 3.333601 1_555
Cd1_1 Tb0_0 3.333602 1_556
Cd1_1 Tb0_1 3.333602 1_555
Cd1_2 Tb0_7 3.333597 1_555
Cd1_2 Tb0_6 3.333597 1_555
Cd1_2 Tb0_4 3.333601 1_565
Cd1_2 Tb0_5 3.333601 1_565
Cd1_2 Tb0_2 3.333602 1_555
Cd1_2 Tb0_3 3.333602 1_555
Cd1_2 Cd1_3 3.474486 1_554
Cd1_2 Cd1_3 3.474486 1_555
Cd1_3 Tb0_6 3.333597 1_556
Cd1_3 Tb0_7 3.333597 1_555
Cd1_3 Tb0_4 3.333601 1_566
Cd1_3 Tb0_5 3.333601 1_565
Cd1_3 Tb0_2 3.333602 1_556
Cd1_3 Tb0_3 3.333602 1_555
Cd1_4 Tb0_1 3.333597 1_655
Cd1_4 Tb0_0 3.333597 1_655
Cd1_4 Tb0_3 3.333601 1_655
Cd1_4 Tb0_2 3.333601 1_655
Cd1_4 Tb0_4 3.333602 1_555
Cd1_4 Tb0_5 3.333602 1_555
Cd1_4 Cd1_5 3.474486 1_554
Cd1_4 Cd1_5 3.474486 1_555
Cd1_5 Tb0_0 3.333597 1_656
Cd1_5 Tb0_1 3.333597 1_655
Cd1_5 Tb0_2 3.333601 1_656
Cd1_5 Tb0_3 3.333601 1_655
Cd1_5 Tb0_4 3.333602 1_556
Cd1_5 Tb0_5 3.333602 1_555
Cd1_6 Tb0_3 3.333597 1_655
Cd1_6 Tb0_2 3.333597 1_655
Cd1_6 Tb0_0 3.333601 1_665
Cd1_6 Tb0_1 3.333601 1_665
Cd1_6 Tb0_6 3.333602 1_555
Cd1_6 Tb0_7 3.333602 1_555
Cd1_6 Cd1_7 3.474486 1_554
Cd1_6 Cd1_7 3.474486 1_555
Cd1_7 Tb0_2 3.333597 1_656
Cd1_7 Tb0_3 3.333597 1_655
Cd1_7 Tb0_0 3.333601 1_666
Cd1_7 Tb0_1 3.333601 1_665
Cd1_7 Tb0_6 3.333602 1_556
Cd1_7 Tb0_7 3.333602 1_555
