# generated using pymatgen
data_Eu(CuSi)2
_symmetry_space_group_name_H-M   'P 1'
_cell_length_a   4.08565557
_cell_length_b   4.08565578
_cell_length_c   5.72081446
_cell_angle_alpha   110.92140046
_cell_angle_beta   110.92139608
_cell_angle_gamma   90.00000433
_symmetry_Int_Tables_number   1
_chemical_formula_structural   Eu(CuSi)2
_chemical_formula_sum   'Eu1 Cu2 Si2'
_cell_volume   82.42388618
_cell_formula_units_Z   1
loop_
 _symmetry_equiv_pos_site_id
 _symmetry_equiv_pos_as_xyz
  1  'x, y, z'
loop_
 _atom_site_type_symbol
 _atom_site_label
 _atom_site_symmetry_multiplicity
 _atom_site_fract_x
 _atom_site_fract_y
 _atom_site_fract_z
 _atom_site_occupancy
  Eu  Eu0  1  0.00000000  0.00000000  0.00000000  1
  Cu  Cu0  1  0.75000000  0.25000000  0.50000000  1
  Cu  Cu1  1  0.25000000  0.75000000  0.50000000  1
  Si  Si0  1  0.62149576  0.62149576  0.24299252  1
  Si  Si1  1  0.37850424  0.37850424  0.75700748  1
loop_
_geom_bond_atom_site_label_1
_geom_bond_atom_site_label_2
_geom_bond_distance
_geom_bond_site_symmetry_2
Eu0 Si0 3.128240 1_555
Eu0 Si1 3.128240 1_444
Eu0 Si0 3.128243 1_455
Eu0 Si1 3.128243 1_544
Eu0 Si1 3.128243 1_454
Eu0 Si0 3.128243 1_545
Eu0 Si1 3.128245 1_554
Eu0 Si0 3.128245 1_445
Cu0 Si1 2.404912 1_555
Cu0 Si0 2.404912 1_555
Cu0 Si1 2.404915 1_655
Cu0 Si0 2.404915 1_545
Cu0 Cu1 2.888995 1_655
Cu0 Cu1 2.888995 1_545
Cu0 Cu1 2.888995 1_645
Cu0 Cu1 2.888995 1_555
Cu0 Eu0 3.204450 1_655
Cu0 Eu0 3.204450 1_666
Cu0 Eu0 3.204450 1_555
Cu0 Eu0 3.204450 1_656
Cu1 Si0 2.404912 1_555
Cu1 Si1 2.404912 1_555
Cu1 Si0 2.404915 1_455
Cu1 Si1 2.404915 1_565
Cu1 Eu0 3.204450 1_566
Cu1 Eu0 3.204450 1_555
Cu1 Eu0 3.204450 1_666
Cu1 Eu0 3.204450 1_565
Si0 Si1 2.399675 1_554
