# generated using pymatgen
data_Nb10SiB4Se
_symmetry_space_group_name_H-M   'P 1'
_cell_length_a   7.33907959
_cell_length_b   7.33908039
_cell_length_c   7.33908027
_cell_angle_alpha   129.39476089
_cell_angle_beta   129.39476607
_cell_angle_gamma   74.37620570
_symmetry_Int_Tables_number   1
_chemical_formula_structural   Nb10SiB4Se
_chemical_formula_sum   'Nb10 Si1 B4 Se1'
_cell_volume   230.10325462
_cell_formula_units_Z   1
loop_
 _symmetry_equiv_pos_site_id
 _symmetry_equiv_pos_as_xyz
  1  'x, y, z'
loop_
 _atom_site_type_symbol
 _atom_site_label
 _atom_site_symmetry_multiplicity
 _atom_site_fract_x
 _atom_site_fract_y
 _atom_site_fract_z
 _atom_site_occupancy
  Nb  Nb0  1  0.99899791  0.99899791  1.00000000  1
  Nb  Nb1  1  0.50100209  0.50100209  0.00000000  1
  Nb  Nb2  1  0.80330503  0.30817066  0.83481626  1
  Nb  Nb3  1  0.19182934  0.69669497  0.16518374  1
  Nb  Nb4  1  0.47335440  0.96848877  0.16518374  1
  Nb  Nb5  1  0.30817066  0.47335440  0.50486563  1
  Nb  Nb6  1  0.02664560  0.19182934  0.49513437  1
  Nb  Nb7  1  0.53151123  0.02664560  0.83481626  1
  Nb  Nb8  1  0.69669497  0.53151123  0.50486563  1
  Nb  Nb9  1  0.96848877  0.80330503  0.49513437  1
  Si  Si0  1  0.75000000  0.75000000  0.00000000  1
  B  B0  1  0.11330646  0.61330646  0.72661192  1
  B  B1  1  0.88669354  0.38669354  0.27338808  1
  B  B2  1  0.61330646  0.88669354  0.50000000  1
  B  B3  1  0.38669354  0.11330646  0.50000000  1
  Se  Se0  1  0.25000000  0.25000000  0.00000000  1
loop_
_geom_bond_atom_site_label_1
_geom_bond_atom_site_label_2
_geom_bond_distance
_geom_bond_site_symmetry_2
Nb0 Nb7 2.817772 1_565
Nb0 Nb3 2.817772 1_656
Nb0 Nb6 2.817772 1_666
Nb0 Nb8 2.817772 1_555
Nb0 Nb4 2.864812 1_656
Nb0 Nb2 2.864812 1_565
Nb0 Nb9 2.864812 1_555
Nb0 Nb5 2.864812 1_666
Nb0 Si0 2.911641 1_556
Nb0 Se0 2.935077 1_666
Nb1 Nb9 2.817772 1_555
Nb1 Nb2 2.817772 1_554
Nb1 Nb5 2.817772 1_554
Nb1 Nb4 2.817772 1_555
Nb1 Nb6 2.864812 1_554
Nb1 Nb3 2.864812 1_555
Nb1 Nb8 2.864812 1_555
Nb1 Nb7 2.864812 1_554
Nb1 Si0 2.911641 1_555
Nb1 Se0 2.935077 1_555
Nb2 Si0 2.658248 1_556
Nb2 Se0 2.694025 1_656
Nb3 Si0 2.658248 1_455
Nb3 Se0 2.694026 1_555
Nb4 Si0 2.658248 1_555
Nb4 Se0 2.694025 1_565
Nb5 Si0 2.658248 1_556
Nb5 Se0 2.694026 1_555
Nb6 Si0 2.658248 1_445
Nb6 Se0 2.694025 1_556
Nb7 Si0 2.658248 1_546
Nb7 Se0 2.694025 1_556
Nb8 Si0 2.658248 1_556
Nb8 Se0 2.694025 1_555
Nb9 Si0 2.658248 1_555
Nb9 Se0 2.694026 1_666
B0 B1 2.010495 1_455
B0 Nb5 2.406238 1_555
B0 Nb8 2.406246 1_455
B0 Nb9 2.424205 1_455
B0 Nb6 2.424213 1_555
B0 Nb1 2.527921 1_556
B0 Nb0 2.527922 1_455
B0 Nb4 2.530194 1_556
B0 Nb3 2.530201 1_556
B1 Nb6 2.406238 1_655
B1 Nb9 2.406246 1_555
B1 Nb8 2.424205 1_555
B1 Nb5 2.424213 1_655
B1 Nb1 2.527921 1_555
B1 Nb0 2.527921 1_544
B1 Nb7 2.530194 1_554
B1 Nb2 2.530201 1_554
B2 B3 2.010504 1_565
B2 Nb4 2.406244 1_555
B2 Nb7 2.406244 1_565
B2 Nb3 2.424211 1_555
B2 Nb2 2.424211 1_565
B2 Nb0 2.527919 1_555
B2 Nb1 2.527919 1_555
B2 Nb9 2.530194 1_555
B2 Nb8 2.530194 1_555
B3 Nb2 2.406244 1_555
B3 Nb3 2.406244 1_545
B3 Nb7 2.424211 1_555
B3 Nb4 2.424211 1_545
B3 Nb0 2.527919 1_444
B3 Nb1 2.527919 1_556
B3 Nb6 2.530194 1_555
B3 Nb5 2.530194 1_555
