# generated using pymatgen
data_Ti13Al9(Fe3Pd)2
_symmetry_space_group_name_H-M   'P 1'
_cell_length_a   8.52712510
_cell_length_b   8.55903262
_cell_length_c   8.52712437
_cell_angle_alpha   59.63556916
_cell_angle_beta   59.89258233
_cell_angle_gamma   59.63557975
_symmetry_Int_Tables_number   1
_chemical_formula_structural   Ti13Al9(Fe3Pd)2
_chemical_formula_sum   'Ti13 Al9 Fe6 Pd2'
_cell_volume   437.27105675
_cell_formula_units_Z   1
loop_
 _symmetry_equiv_pos_site_id
 _symmetry_equiv_pos_as_xyz
  1  'x, y, z'
loop_
 _atom_site_type_symbol
 _atom_site_label
 _atom_site_symmetry_multiplicity
 _atom_site_fract_x
 _atom_site_fract_y
 _atom_site_fract_z
 _atom_site_occupancy
  Ti  Ti0  1  0.20812585  0.21114775  0.79276380  1
  Ti  Ti1  1  0.79276380  0.21114775  0.20812585  1
  Ti  Ti2  1  0.20792732  0.79173917  0.20792732  1
  Ti  Ti3  1  0.80875043  0.79999014  0.17660538  1
  Ti  Ti4  1  0.17660538  0.79999014  0.80875043  1
  Ti  Ti5  1  0.80112406  0.18695888  0.80112406  1
  Ti  Ti6  1  0.38024558  0.38295920  0.38024558  1
  Ti  Ti7  1  0.39028019  0.85324779  0.39028019  1
  Ti  Ti8  1  0.85852905  0.39384662  0.37716508  1
  Ti  Ti9  1  0.37716508  0.39384662  0.85852905  1
  Ti  Ti10  1  0.84289163  0.46846725  0.84289163  1
  Ti  Ti11  1  0.46736969  0.83676656  0.83652446  1
  Ti  Ti12  1  0.83652446  0.83676656  0.46736969  1
  Al  Al0  1  0.15249498  0.16570301  0.15249498  1
  Al  Al1  1  0.16443998  0.51702161  0.16443998  1
  Al  Al2  1  0.52540705  0.16501674  0.16529775  1
  Al  Al3  1  0.16529775  0.16501674  0.52540705  1
  Al  Al4  1  0.62127151  0.61140133  0.62127151  1
  Al  Al5  1  0.61469630  0.14660028  0.61469630  1
  Al  Al6  1  0.14512009  0.61213034  0.62014959  1
  Al  Al7  1  0.62014959  0.61213034  0.14512009  1
  Al  Al8  1  0.82851579  0.82130503  0.82851579  1
  Fe  Fe0  1  0.00456010  0.50117125  0.00456010  1
  Fe  Fe1  1  0.50083965  0.50228402  0.99926865  1
  Fe  Fe2  1  0.99926865  0.50228402  0.50083965  1
  Fe  Fe3  1  0.50190938  0.99573981  0.50190938  1
  Fe  Fe4  1  0.50026179  0.50026603  0.50026179  1
  Fe  Fe5  1  0.00356180  0.00762723  0.00356180  1
  Pd  Pd0  1  0.00494218  0.00371290  0.49895989  1
  Pd  Pd1  1  0.49895989  0.00371290  0.00494218  1
loop_
_geom_bond_atom_site_label_1
_geom_bond_atom_site_label_2
_geom_bond_distance
_geom_bond_site_symmetry_2
Ti0 Ti10 2.722937 1_455
Ti0 Ti11 2.784081 1_545
Ti0 Ti6 2.909116 1_555
Ti0 Ti9 2.968787 1_555
Ti1 Ti10 2.722937 1_554
Ti1 Ti12 2.784081 1_545
Ti1 Ti6 2.909117 1_555
Ti1 Ti8 2.968787 1_555
Ti2 Ti6 2.886258 1_555
Ti2 Ti7 3.032126 1_555
Ti3 Ti8 2.900871 1_555
Ti3 Ti7 2.988840 1_555
Ti4 Ti9 2.900871 1_555
Ti4 Ti7 2.988840 1_555
Ti5 Ti8 3.012228 1_555
Ti5 Ti9 3.012229 1_555
Ti10 Ti5 2.814517 1_555
Ti11 Ti2 2.769766 1_556
Ti11 Ti4 2.784960 1_555
Ti12 Ti2 2.769766 1_655
Ti12 Ti3 2.784960 1_555
Al0 Fe0 2.387384 1_555
Al0 Pd0 2.475239 1_555
Al0 Pd1 2.475240 1_555
Al0 Ti0 2.702990 1_554
Al0 Ti1 2.702990 1_455
Al0 Ti9 2.789681 1_554
Al0 Ti8 2.789682 1_455
Al0 Ti2 2.802994 1_545
Al0 Ti7 2.921441 1_545
Al1 Fe0 2.444238 1_555
Al1 Fe2 2.447157 1_455
Al1 Fe1 2.447158 1_554
Al1 Ti6 2.686475 1_555
Al1 Ti8 2.702991 1_455
Al1 Ti9 2.702991 1_554
Al1 Ti4 2.754542 1_554
Al1 Ti3 2.754542 1_455
Al1 Ti2 2.775730 1_555
Al2 Fe3 2.426974 1_545
Al2 Fe1 2.436303 1_554
Al2 Pd1 2.521773 1_555
Al2 Ti6 2.686522 1_555
Al2 Ti1 2.716208 1_555
Al2 Ti5 2.781765 1_554
Al2 Ti7 2.800703 1_545
Al2 Ti3 2.811678 1_545
Al2 Ti9 2.812700 1_554
Al3 Fe3 2.426975 1_545
Al3 Fe2 2.436304 1_455
Al3 Pd0 2.521773 1_555
Al3 Ti6 2.686521 1_555
Al3 Ti0 2.716208 1_555
Al3 Ti5 2.781765 1_455
Al3 Ti7 2.800703 1_545
Al3 Ti4 2.811677 1_545
Al3 Ti8 2.812700 1_455
Al4 Fe4 2.467209 1_555
Al4 Fe1 2.630873 1_555
Al4 Fe2 2.630873 1_555
Al4 Fe3 2.676280 1_555
Al4 Ti12 2.723149 1_555
Al4 Ti11 2.723149 1_555
Al4 Ti10 2.747252 1_555
Al4 Ti7 2.773509 1_555
Al4 Ti9 2.788930 1_555
Al4 Ti8 2.788930 1_555
Al4 Ti5 2.999287 1_555
Al4 Ti3 3.142950 1_555
Al4 Ti4 3.142951 1_555
Al5 Fe4 2.459690 1_555
Al5 Fe3 2.637441 1_545
Al5 Pd1 2.711850 1_556
Al5 Pd0 2.711851 1_655
Al5 Al8 2.733342 1_545
Al5 Ti6 2.813915 1_555
Al5 Ti11 2.846298 1_545
Al5 Ti12 2.846299 1_545
Al5 Ti1 2.874108 1_555
Al5 Ti0 2.874109 1_555
Al5 Ti8 2.965427 1_555
Al5 Ti9 2.965427 1_555
Al5 Ti5 2.969718 1_555
Al6 Fe4 2.466763 1_555
Al6 Fe2 2.623802 1_455
Al6 Fe0 2.673051 1_556
Al6 Al8 2.677271 1_455
Al6 Pd0 2.723439 1_565
Al6 Ti10 2.773616 1_455
Al6 Ti9 2.827682 1_555
Al6 Ti6 2.831619 1_555
Al6 Ti0 2.838305 1_555
Al6 Ti12 2.847850 1_455
Al6 Ti2 2.913146 1_555
Al6 Ti7 2.938093 1_555
Al6 Ti4 2.954268 1_555
Al7 Fe4 2.466762 1_555
Al7 Fe1 2.623802 1_554
Al7 Fe0 2.673051 1_655
Al7 Al8 2.677270 1_554
Al7 Pd1 2.723439 1_565
Al7 Ti10 2.773616 1_554
Al7 Ti8 2.827682 1_555
Al7 Ti6 2.831619 1_555
Al7 Ti1 2.838305 1_555
Al7 Ti11 2.847850 1_554
Al7 Ti2 2.913147 1_555
Al7 Ti7 2.938094 1_555
Al7 Ti3 2.954268 1_555
Al8 Fe0 2.441024 1_656
Al8 Pd0 2.509056 1_665
Al8 Pd1 2.509056 1_566
Al8 Ti3 2.802438 1_556
Al8 Ti4 2.802438 1_655
Al8 Ti10 2.901153 1_555
Al8 Ti5 2.912119 1_565
Al8 Ti12 2.981923 1_555
Al8 Ti11 2.981923 1_555
Fe0 Ti10 2.562442 1_454
Fe0 Ti8 2.593418 1_455
Fe0 Ti9 2.593419 1_554
Fe0 Ti4 2.915473 1_554
Fe0 Ti3 2.915474 1_455
Fe0 Ti1 3.076968 1_455
Fe0 Ti0 3.076968 1_554
Fe1 Ti11 2.399562 1_555
Fe1 Ti10 2.450285 1_555
Fe1 Ti9 2.607522 1_555
Fe1 Ti6 2.647662 1_556
Fe1 Ti1 3.044253 1_556
Fe1 Ti2 3.046982 1_556
Fe2 Ti12 2.399562 1_555
Fe2 Ti10 2.450285 1_555
Fe2 Ti8 2.607522 1_555
Fe2 Ti6 2.647662 1_655
Fe2 Ti0 3.044253 1_655
Fe2 Ti2 3.046982 1_655
Fe3 Ti11 2.390915 1_555
Fe3 Ti12 2.390916 1_555
Fe3 Ti7 2.560447 1_555
Fe3 Ti6 2.695214 1_565
Fe3 Ti1 3.089688 1_565
Fe3 Ti0 3.089688 1_565
Fe4 Ti7 2.457631 1_555
Fe4 Ti9 2.490110 1_555
Fe4 Ti8 2.490110 1_555
Fe4 Ti6 2.496221 1_555
Fe5 Ti5 2.438773 1_454
Fe5 Ti3 2.443260 1_445
Fe5 Ti4 2.443260 1_544
Fe5 Ti2 2.454334 1_545
Fe5 Ti0 2.463502 1_554
Fe5 Ti1 2.463502 1_455
Pd0 Ti12 2.651157 1_445
Pd0 Ti7 2.680953 1_545
Pd0 Ti8 2.714294 1_455
Pd0 Ti4 2.967049 1_545
Pd0 Ti5 2.992733 1_455
Pd0 Ti1 3.062419 1_455
Pd0 Ti2 3.084478 1_545
Pd1 Ti11 2.651157 1_544
Pd1 Ti7 2.680952 1_545
Pd1 Ti9 2.714294 1_554
Pd1 Ti3 2.967049 1_545
Pd1 Ti5 2.992733 1_554
Pd1 Ti0 3.062419 1_554
Pd1 Ti2 3.084477 1_545
