# generated using pymatgen
data_La5Pb3I
_symmetry_space_group_name_H-M   'P 1'
_cell_length_a   9.85568109
_cell_length_b   9.85568420
_cell_length_c   7.20191165
_cell_angle_alpha   90.00000000
_cell_angle_beta   90.00000000
_cell_angle_gamma   120.00000856
_symmetry_Int_Tables_number   1
_chemical_formula_structural   La5Pb3I
_chemical_formula_sum   'La10 Pb6 I2'
_cell_volume   605.83143611
_cell_formula_units_Z   2
loop_
 _symmetry_equiv_pos_site_id
 _symmetry_equiv_pos_as_xyz
  1  'x, y, z'
loop_
 _atom_site_type_symbol
 _atom_site_label
 _atom_site_symmetry_multiplicity
 _atom_site_fract_x
 _atom_site_fract_y
 _atom_site_fract_z
 _atom_site_occupancy
  La  La0  1  0.72279883  0.00000000  0.75000000  1
  La  La1  1  0.00000000  0.27720117  0.25000000  1
  La  La2  1  0.72279883  0.72279883  0.25000000  1
  La  La3  1  0.33333300  0.66666700  0.50000000  1
  La  La4  1  0.33333300  0.66666700  0.00000000  1
  La  La5  1  0.66666700  0.33333300  0.50000000  1
  La  La6  1  0.66666700  0.33333300  0.00000000  1
  La  La7  1  0.27720117  -0.00000000  0.25000000  1
  La  La8  1  0.27720117  0.27720117  0.75000000  1
  La  La9  1  -0.00000000  0.72279883  0.75000000  1
  Pb  Pb0  1  0.38370454  -0.00000000  0.75000000  1
  Pb  Pb1  1  0.61629546  0.00000000  0.25000000  1
  Pb  Pb2  1  -0.00000000  0.61629546  0.25000000  1
  Pb  Pb3  1  0.61629546  0.61629546  0.75000000  1
  Pb  Pb4  1  0.00000000  0.38370454  0.75000000  1
  Pb  Pb5  1  0.38370454  0.38370454  0.25000000  1
  I  I0  1  -0.00000000  -0.00000000  0.50000000  1
  I  I1  1  -0.00000000  -0.00000000  0.00000000  1
loop_
_geom_bond_atom_site_label_1
_geom_bond_atom_site_label_2
_geom_bond_distance
_geom_bond_site_symmetry_2
La0 Pb0 3.342005 1_555
La0 Pb4 3.381322 1_655
La0 Pb3 3.381323 1_545
La0 Pb1 3.750823 1_556
La0 Pb1 3.750823 1_555
La1 Pb2 3.342006 1_555
La1 Pb5 3.381322 1_555
La1 Pb1 3.381322 1_455
La1 Pb4 3.750823 1_555
La1 Pb4 3.750823 1_554
La2 Pb5 3.342005 1_555
La2 Pb2 3.381322 1_655
La2 Pb1 3.381323 1_565
La2 Pb3 3.750823 1_554
La2 Pb3 3.750823 1_555
La3 Pb2 3.556675 1_555
La3 Pb0 3.556676 1_565
La3 Pb4 3.556678 1_555
La3 Pb1 3.556679 1_565
La3 Pb3 3.556684 1_555
La3 Pb5 3.556684 1_555
La4 Pb2 3.556675 1_555
La4 Pb0 3.556676 1_564
La4 Pb4 3.556678 1_554
La4 Pb1 3.556679 1_565
La4 Pb3 3.556684 1_554
La4 Pb5 3.556684 1_555
La5 Pb4 3.556675 1_655
La5 Pb1 3.556676 1_555
La5 Pb2 3.556678 1_655
La5 Pb0 3.556679 1_555
La5 Pb5 3.556684 1_555
La5 Pb3 3.556684 1_555
La6 Pb4 3.556675 1_654
La6 Pb1 3.556676 1_555
La6 Pb2 3.556678 1_655
La6 Pb0 3.556679 1_554
La6 Pb5 3.556684 1_555
La6 Pb3 3.556684 1_554
La7 Pb1 3.342005 1_555
La7 Pb2 3.381322 1_545
La7 Pb5 3.381323 1_555
La7 Pb0 3.750823 1_555
La7 Pb0 3.750823 1_554
La8 Pb3 3.342005 1_555
La8 Pb4 3.381322 1_555
La8 Pb0 3.381323 1_555
La8 Pb5 3.750823 1_555
La8 Pb5 3.750823 1_556
La9 Pb4 3.342006 1_555
La9 Pb3 3.381322 1_455
La9 Pb0 3.381322 1_565
La9 Pb2 3.750823 1_556
La9 Pb2 3.750823 1_555
I0 La0 3.271938 1_455
I0 La7 3.271938 1_555
I0 La8 3.271938 1_555
I0 La2 3.271938 1_445
I0 La1 3.271939 1_555
I0 La9 3.271939 1_545
I1 La0 3.271938 1_454
I1 La7 3.271938 1_555
I1 La8 3.271938 1_554
I1 La2 3.271938 1_445
I1 La9 3.271939 1_544
I1 La1 3.271939 1_555
