# generated using pymatgen
data_YTa2(Nb2Sn3)2
_symmetry_space_group_name_H-M   'P 1'
_cell_length_a   5.78038058
_cell_length_b   5.77585297
_cell_length_c   9.62194887
_cell_angle_alpha   90.00000000
_cell_angle_beta   90.00000000
_cell_angle_gamma   119.97408983
_symmetry_Int_Tables_number   1
_chemical_formula_structural   YTa2(Nb2Sn3)2
_chemical_formula_sum   'Y1 Ta2 Nb4 Sn6'
_cell_volume   278.27844575
_cell_formula_units_Z   1
loop_
 _symmetry_equiv_pos_site_id
 _symmetry_equiv_pos_as_xyz
  1  'x, y, z'
loop_
 _atom_site_type_symbol
 _atom_site_label
 _atom_site_symmetry_multiplicity
 _atom_site_fract_x
 _atom_site_fract_y
 _atom_site_fract_z
 _atom_site_occupancy
  Y  Y0  1  0.00000000  0.00000000  0.99942947  1
  Ta  Ta0  1  0.50000000  0.50000000  0.75079905  1
  Ta  Ta1  1  0.50000000  0.00000000  0.75079905  1
  Nb  Nb0  1  0.00000000  0.50000000  0.75090264  1
  Nb  Nb1  1  0.00000000  0.50000000  0.24971266  1
  Nb  Nb2  1  0.50000000  0.50000000  0.24961700  1
  Nb  Nb3  1  0.50000000  0.00000000  0.24961700  1
  Sn  Sn0  1  0.66536368  0.33268134  0.50065037  1
  Sn  Sn1  1  0.33463632  0.66731866  0.50065037  1
  Sn  Sn2  1  0.66603507  0.33301803  0.99969116  1
  Sn  Sn3  1  0.33396493  0.66698197  0.99969116  1
  Sn  Sn4  1  0.00000000  0.00000000  0.67294629  1
  Sn  Sn5  1  0.00000000  0.00000000  0.32549276  1
loop_
_geom_bond_atom_site_label_1
_geom_bond_atom_site_label_2
_geom_bond_distance
_geom_bond_site_symmetry_2
Ta0 Ta1 2.887926 1_565
Ta0 Ta1 2.887926 1_555
Nb0 Ta0 2.890190 1_455
Nb0 Ta0 2.890190 1_555
Nb0 Ta1 2.890191 1_565
Nb0 Ta1 2.890191 1_455
Nb0 Sn3 2.920076 1_555
Nb0 Sn2 2.920076 1_455
Nb0 Sn1 2.933552 1_555
Nb0 Sn0 2.933552 1_455
Nb0 Sn4 2.983749 1_565
Nb0 Sn4 2.983749 1_555
Nb1 Nb2 2.890190 1_555
Nb1 Nb2 2.890190 1_455
Nb1 Nb3 2.890191 1_455
Nb1 Nb3 2.890191 1_565
Nb1 Sn3 2.929810 1_554
Nb1 Sn2 2.929810 1_454
Nb1 Sn1 2.938968 1_555
Nb1 Sn0 2.938968 1_455
Nb1 Sn5 2.978554 1_565
Nb1 Sn5 2.978554 1_555
Nb2 Nb3 2.887926 1_555
Nb2 Nb3 2.887926 1_565
Nb2 Sn2 2.925603 1_554
Nb2 Sn3 2.925603 1_554
Nb2 Sn0 2.933421 1_555
Nb2 Sn1 2.933421 1_555
Nb2 Sn5 2.980974 1_665
Nb2 Sn5 2.980974 1_555
Nb3 Sn2 2.925606 1_554
Nb3 Sn3 2.925606 1_544
Nb3 Sn0 2.933418 1_555
Nb3 Sn1 2.933418 1_545
Nb3 Sn5 2.980974 1_655
Nb3 Sn5 2.980974 1_555
Sn0 Ta1 2.926413 1_555
Sn0 Ta0 2.926415 1_555
Sn0 Sn1 3.329047 1_545
Sn0 Sn1 3.329056 1_555
Sn0 Sn1 3.351224 1_655
Sn1 Ta1 2.926413 1_565
Sn1 Ta0 2.926415 1_555
Sn2 Ta0 2.917433 1_555
Sn2 Ta1 2.917436 1_555
Sn2 Sn3 3.332396 1_555
Sn2 Sn3 3.332406 1_545
Sn2 Y0 3.335014 1_555
Sn2 Y0 3.337144 1_665
Sn2 Y0 3.337149 1_655
Sn2 Sn3 3.344500 1_655
Sn3 Ta0 2.917433 1_555
Sn3 Ta1 2.917436 1_565
Sn3 Y0 3.335014 1_665
Sn3 Y0 3.337144 1_555
Sn3 Y0 3.337149 1_565
Sn4 Ta1 2.985690 1_555
Sn4 Ta1 2.985690 1_455
Sn4 Ta0 2.985690 1_555
Sn4 Ta0 2.985690 1_445
Sn4 Y0 3.141405 1_555
Sn4 Sn5 3.343180 1_555
Sn5 Y0 3.137364 1_554
