# generated using pymatgen
data_RbGa2PSe6
_symmetry_space_group_name_H-M   'P 1'
_cell_length_a   6.55875197
_cell_length_b   6.62936019
_cell_length_c   6.87397331
_cell_angle_alpha   98.75897453
_cell_angle_beta   105.22192979
_cell_angle_gamma   97.33429699
_symmetry_Int_Tables_number   1
_chemical_formula_structural   RbGa2PSe6
_chemical_formula_sum   'Rb1 Ga2 P1 Se6'
_cell_volume   280.59486321
_cell_formula_units_Z   1
loop_
 _symmetry_equiv_pos_site_id
 _symmetry_equiv_pos_as_xyz
  1  'x, y, z'
loop_
 _atom_site_type_symbol
 _atom_site_label
 _atom_site_symmetry_multiplicity
 _atom_site_fract_x
 _atom_site_fract_y
 _atom_site_fract_z
 _atom_site_occupancy
  Rb  Rb0  1  0.01056782  0.99383182  0.97491716  1
  Ga  Ga0  1  0.54963645  0.37323476  0.79815403  1
  Ga  Ga1  1  0.78708369  0.51894464  0.39575405  1
  P  P0  1  0.37231096  0.80546094  0.53174708  1
  Se  Se0  1  0.66095983  0.85249839  0.42361176  1
  Se  Se1  1  0.42804868  0.71139706  0.83455374  1
  Se  Se2  1  0.88035625  0.42321817  0.72132201  1
  Se  Se3  1  0.11300194  0.59176000  0.28233804  1
  Se  Se4  1  0.25223390  0.10558319  0.55647398  1
  Se  Se5  1  0.57811049  0.25648002  0.11343614  1
loop_
_geom_bond_atom_site_label_1
_geom_bond_atom_site_label_2
_geom_bond_distance
_geom_bond_site_symmetry_2
Rb0 Se2 3.636094 1_465
Rb0 Se3 3.667279 1_556
Rb0 Se5 3.711267 1_566
Rb0 Se4 3.752053 1_565
Rb0 Se1 3.752365 1_555
Rb0 Se5 3.762663 1_466
Rb0 Se0 3.782088 1_455
Rb0 Se2 3.803003 1_455
Rb0 Se4 3.809584 1_566
Rb0 Se1 3.836833 1_455
Rb0 Se3 4.080782 1_566
Ga0 Se2 2.359052 1_555
Ga0 Se5 2.380368 1_556
Ga0 Se1 2.472774 1_555
Ga0 Se4 2.495998 1_555
Ga1 Se2 2.366030 1_555
Ga1 Se5 2.374481 1_555
Ga1 Se0 2.455975 1_555
Ga1 Se3 2.477199 1_655
P0 Se0 2.211946 1_555
P0 Se1 2.215629 1_555
P0 Se3 2.225492 1_555
P0 Se4 2.230489 1_565
