# generated using pymatgen
data_Ba2CdIn3Pt2
_symmetry_space_group_name_H-M   'P 1'
_cell_length_a   6.23215428
_cell_length_b   6.23215424
_cell_length_c   8.21679313
_cell_angle_alpha   89.98921253
_cell_angle_beta   90.01078922
_cell_angle_gamma   137.43534769
_symmetry_Int_Tables_number   1
_chemical_formula_structural   Ba2CdIn3Pt2
_chemical_formula_sum   'Ba2 Cd1 In3 Pt2'
_cell_volume   215.87198062
_cell_formula_units_Z   1
loop_
 _symmetry_equiv_pos_site_id
 _symmetry_equiv_pos_as_xyz
  1  'x, y, z'
loop_
 _atom_site_type_symbol
 _atom_site_label
 _atom_site_symmetry_multiplicity
 _atom_site_fract_x
 _atom_site_fract_y
 _atom_site_fract_z
 _atom_site_occupancy
  Ba  Ba0  1  0.44807311  0.55192689  0.74680990  1
  Ba  Ba1  1  0.55150350  0.44849650  0.25092251  1
  Cd  Cd0  1  0.16584275  0.83415725  0.55667322  1
  In  In0  1  0.83571625  0.16428375  0.05862864  1
  In  In1  1  0.16513641  0.83486359  0.93935540  1
  In  In2  1  0.83082157  0.16917843  0.44584169  1
  Pt  Pt0  1  0.72529671  0.27470329  0.75590061  1
  Pt  Pt1  1  0.27761070  0.72238930  0.24586901  1
loop_
_geom_bond_atom_site_label_1
_geom_bond_atom_site_label_2
_geom_bond_distance
_geom_bond_site_symmetry_2
Ba0 Pt0 3.220605 1_555
Ba0 Pt0 3.437599 1_565
Ba0 Pt0 3.437599 1_455
Ba0 In2 3.617412 1_455
Ba0 In2 3.617412 1_565
Ba0 Cd0 3.630896 1_555
Ba0 In1 3.647418 1_555
Ba0 In0 3.658647 1_566
Ba0 In0 3.658647 1_456
Ba0 Cd0 3.735816 1_545
Ba0 Cd0 3.735816 1_655
Ba0 In1 3.738171 1_655
Ba0 In1 3.738171 1_545
Ba1 Pt1 3.181331 1_555
Ba1 Pt1 3.466249 1_545
Ba1 Pt1 3.466249 1_655
Ba1 In2 3.617611 1_555
Ba1 Cd0 3.631888 1_655
Ba1 Cd0 3.631888 1_545
Ba1 In0 3.659884 1_555
Ba1 In1 3.662516 1_544
Ba1 In1 3.662516 1_654
Ba1 In0 3.727316 1_455
Ba1 In0 3.727316 1_565
Ba1 In2 3.775309 1_565
Ba1 In2 3.775309 1_455
Cd0 Pt1 2.865027 1_555
Cd0 Pt0 2.876284 1_565
Cd0 Pt0 2.876284 1_455
Cd0 In2 3.101351 1_455
Cd0 In2 3.101351 1_565
Cd0 In1 3.144433 1_555
In0 Pt0 2.798356 1_554
In0 Pt1 2.817753 1_655
In0 Pt1 2.817753 1_545
In0 In1 3.162524 1_544
In0 In1 3.162524 1_654
In0 In2 3.182169 1_555
In1 Pt0 2.806737 1_455
In1 Pt0 2.806737 1_565
In1 Pt1 2.836944 1_556
In2 Pt0 2.827379 1_555
In2 Pt1 2.863261 1_545
In2 Pt1 2.863261 1_655
