# generated using pymatgen
data_RbBrOF4
_symmetry_space_group_name_H-M   'P 1'
_cell_length_a   5.82727481
_cell_length_b   5.83251665
_cell_length_c   14.15104203
_cell_angle_alpha   90.00000000
_cell_angle_beta   90.00000000
_cell_angle_gamma   90.00000000
_symmetry_Int_Tables_number   1
_chemical_formula_structural   RbBrOF4
_chemical_formula_sum   'Rb4 Br4 O4 F16'
_cell_volume   480.96105096
_cell_formula_units_Z   4
loop_
 _symmetry_equiv_pos_site_id
 _symmetry_equiv_pos_as_xyz
  1  'x, y, z'
loop_
 _atom_site_type_symbol
 _atom_site_label
 _atom_site_symmetry_multiplicity
 _atom_site_fract_x
 _atom_site_fract_y
 _atom_site_fract_z
 _atom_site_occupancy
  Rb  Rb0  1  0.75000000  0.73350686  0.88836714  1
  Rb  Rb1  1  0.75000000  0.23350686  0.61163286  1
  Rb  Rb2  1  0.25000000  0.76649314  0.38836714  1
  Rb  Rb3  1  0.25000000  0.26649314  0.11163286  1
  Br  Br0  1  0.75000000  0.82385898  0.15141143  1
  Br  Br1  1  0.75000000  0.32385898  0.34858857  1
  Br  Br2  1  0.25000000  0.17614102  0.84858857  1
  Br  Br3  1  0.25000000  0.67614102  0.65141143  1
  O  O0  1  0.25000000  0.95729058  0.91657537  1
  O  O1  1  0.25000000  0.45729058  0.58342463  1
  O  O2  1  0.75000000  0.04270942  0.08342463  1
  O  O3  1  0.75000000  0.54270942  0.41657537  1
  F  F0  1  0.02258092  0.82804243  0.57902050  1
  F  F1  1  0.52258092  0.67195757  0.07902050  1
  F  F2  1  0.97741908  0.67195757  0.07902050  1
  F  F3  1  0.51934102  0.95451057  0.23270389  1
  F  F4  1  0.47741908  0.82804243  0.57902050  1
  F  F5  1  0.98065898  0.45451057  0.26729611  1
  F  F6  1  0.02258092  0.32804243  0.92097950  1
  F  F7  1  0.01934102  0.54548943  0.73270389  1
  F  F8  1  0.97741908  0.17195757  0.42097950  1
  F  F9  1  0.48065898  0.54548943  0.73270389  1
  F  F10  1  0.47741908  0.32804243  0.92097950  1
  F  F11  1  0.48065898  0.04548943  0.76729611  1
  F  F12  1  0.51934102  0.45451057  0.26729611  1
  F  F13  1  0.98065898  0.95451057  0.23270389  1
  F  F14  1  0.52258092  0.17195757  0.42097950  1
  F  F15  1  0.01934102  0.04548943  0.76729611  1
loop_
_geom_bond_atom_site_label_1
_geom_bond_atom_site_label_2
_geom_bond_distance
_geom_bond_site_symmetry_2
Br0 O2 1.598414 1_565
Br0 F2 1.894886 1_555
Br0 F1 1.894886 1_555
Br0 F13 1.926314 1_555
Br0 F3 1.926314 1_555
Br1 O3 1.598414 1_555
Br1 F8 1.894886 1_555
Br1 F14 1.894886 1_555
Br1 F5 1.926314 1_555
Br1 F12 1.926314 1_555
Br2 O0 1.598414 1_545
Br2 F10 1.894886 1_555
Br2 F6 1.894886 1_555
Br2 F15 1.926314 1_555
Br2 F11 1.926314 1_555
Br3 O1 1.598414 1_555
Br3 F4 1.894886 1_555
Br3 F0 1.894886 1_555
Br3 F7 1.926314 1_555
Br3 F9 1.926314 1_555
O0 Rb0 3.217488 1_555
O0 Rb0 3.217488 1_455
O0 Rb3 3.297185 1_566
O1 Rb1 3.217488 1_455
O1 Rb1 3.217488 1_555
O1 Rb2 3.297185 1_555
O2 Rb3 3.217488 1_555
O2 Rb3 3.217488 1_655
O2 Rb0 3.297185 1_544
O3 Rb2 3.217488 1_555
O3 Rb2 3.217488 1_655
O3 Rb1 3.297185 1_555
F0 Rb1 2.885941 1_465
F0 Rb2 3.027213 1_555
F1 Rb3 2.885941 1_555
F1 Rb0 3.027213 1_554
F2 Rb3 2.885941 1_655
F2 Rb0 3.027213 1_554
F3 Rb2 2.918610 1_555
F3 Rb3 2.951244 1_565
F4 Rb1 2.885941 1_565
F4 Rb2 3.027213 1_555
F5 Rb3 2.918610 1_655
F5 Rb2 2.951244 1_655
F6 Rb0 2.885941 1_455
F6 Rb3 3.027213 1_556
F7 Rb0 2.918610 1_455
F7 Rb1 2.951244 1_455
F8 Rb2 2.885941 1_645
F8 Rb1 3.027213 1_555
F9 Rb0 2.918610 1_555
F9 Rb1 2.951244 1_555
F10 Rb0 2.885941 1_555
F10 Rb3 3.027213 1_556
F11 Rb1 2.918610 1_555
F11 Rb0 2.951244 1_545
F12 Rb3 2.918610 1_555
F12 Rb2 2.951244 1_555
F13 Rb2 2.918610 1_655
F13 Rb3 2.951244 1_665
F14 Rb2 2.885941 1_545
F14 Rb1 3.027213 1_555
F15 Rb1 2.918610 1_455
F15 Rb0 2.951244 1_445
