# generated using pymatgen
data_Sc12Co4SbIr
_symmetry_space_group_name_H-M   'P 1'
_cell_length_a   7.70674761
_cell_length_b   7.70674753
_cell_length_c   7.70674780
_cell_angle_alpha   111.43014342
_cell_angle_beta   110.09710978
_cell_angle_gamma   106.91910570
_symmetry_Int_Tables_number   1
_chemical_formula_structural   Sc12Co4SbIr
_chemical_formula_sum   'Sc12 Co4 Sb1 Ir1'
_cell_volume   351.79260954
_cell_formula_units_Z   1
loop_
 _symmetry_equiv_pos_site_id
 _symmetry_equiv_pos_as_xyz
  1  'x, y, z'
loop_
 _atom_site_type_symbol
 _atom_site_label
 _atom_site_symmetry_multiplicity
 _atom_site_fract_x
 _atom_site_fract_y
 _atom_site_fract_z
 _atom_site_occupancy
  Sc  Sc0  1  0.42435776  0.22507147  0.19928630  1
  Sc  Sc1  1  0.57564224  0.77492853  0.80071370  1
  Sc  Sc2  1  0.02578617  0.22507147  0.80071370  1
  Sc  Sc3  1  0.97421383  0.77492853  0.19928630  1
  Sc  Sc4  1  0.32123578  0.63107900  0.30984122  1
  Sc  Sc5  1  0.67876422  0.36892100  0.69015878  1
  Sc  Sc6  1  0.32123578  0.01139356  0.69015878  1
  Sc  Sc7  1  0.67876422  0.98860644  0.30984122  1
  Sc  Sc8  1  0.18091484  0.27564575  0.45656060  1
  Sc  Sc9  1  0.81908516  0.72435325  0.54343940  1
  Sc  Sc10  1  0.18091484  0.72435325  0.90527009  1
  Sc  Sc11  1  0.81908516  0.27564575  0.09472991  1
  Co  Co0  1  0.34741075  1.00000000  0.34741075  1
  Co  Co1  1  0.65258925  0.00000000  0.65258925  1
  Co  Co2  1  0.11749193  0.61749193  0.50000000  1
  Co  Co3  1  0.88250807  0.38250807  0.50000000  1
  Sb  Sb0  1  0.50000000  0.50000000  0.00000000  1
  Ir  Ir0  1  0.00000000  0.00000000  0.00000000  1
loop_
_geom_bond_atom_site_label_1
_geom_bond_atom_site_label_2
_geom_bond_distance
_geom_bond_site_symmetry_2
Co0 Sc0 2.444790 1_565
Co0 Sc3 2.444796 1_455
Co0 Sc4 2.689367 1_555
Co0 Sc5 2.689375 1_565
Co0 Sc7 2.689380 1_555
Co0 Sc6 2.689385 1_565
Co0 Sc10 2.808795 1_554
Co0 Sc8 2.808800 1_565
Co1 Sc1 2.444790 1_545
Co1 Sc2 2.444796 1_655
Co1 Sc5 2.689367 1_555
Co1 Sc4 2.689375 1_545
Co1 Sc6 2.689380 1_555
Co1 Sc7 2.689385 1_545
Co1 Sc11 2.808793 1_556
Co1 Sc9 2.808806 1_545
Co2 Co3 2.156457 1_455
Co2 Sc6 2.494395 1_565
Co2 Sc4 2.494403 1_555
Co2 Sc9 2.740281 1_455
Co2 Sc8 2.740285 1_555
Co2 Sc11 2.740288 1_455
Co2 Sc10 2.740294 1_555
Co2 Sc1 3.022956 1_555
Co2 Sc3 3.022958 1_455
Co3 Sc7 2.494395 1_545
Co3 Sc5 2.494403 1_555
Co3 Sc9 2.740277 1_555
Co3 Sc8 2.740285 1_655
Co3 Sc10 2.740286 1_655
Co3 Sc11 2.740292 1_555
Co3 Sc0 3.022956 1_555
Co3 Sc2 3.022958 1_655
Sb0 Sc3 3.076079 1_555
Sb0 Sc2 3.076079 1_554
Sb0 Sc1 3.076086 1_554
Sb0 Sc0 3.076086 1_555
Sb0 Sc4 3.150968 1_555
Sb0 Sc5 3.150968 1_554
Sb0 Sc7 3.150971 1_555
Sb0 Sc6 3.150971 1_554
Sb0 Sc10 3.425371 1_554
Sb0 Sc11 3.425377 1_555
Sb0 Sc8 3.425378 1_554
Sb0 Sc9 3.425379 1_555
Ir0 Sc0 2.713460 1_555
Ir0 Sc1 2.713460 1_444
Ir0 Sc2 2.713461 1_554
Ir0 Sc3 2.713461 1_445
Ir0 Sc11 2.877486 1_455
Ir0 Sc8 2.877487 1_555
Ir0 Sc9 2.877489 1_444
Ir0 Sc10 2.877492 1_544
