# generated using pymatgen
data_CsRb2Cu3As2
_symmetry_space_group_name_H-M   'P 1'
_cell_length_a   7.80525739
_cell_length_b   7.80525796
_cell_length_c   7.80525728
_cell_angle_alpha   45.92842010
_cell_angle_beta   45.92841544
_cell_angle_gamma   45.92841881
_symmetry_Int_Tables_number   1
_chemical_formula_structural   CsRb2Cu3As2
_chemical_formula_sum   'Cs1 Rb2 Cu3 As2'
_cell_volume   223.85584313
_cell_formula_units_Z   1
loop_
 _symmetry_equiv_pos_site_id
 _symmetry_equiv_pos_as_xyz
  1  'x, y, z'
loop_
 _atom_site_type_symbol
 _atom_site_label
 _atom_site_symmetry_multiplicity
 _atom_site_fract_x
 _atom_site_fract_y
 _atom_site_fract_z
 _atom_site_occupancy
  Cs  Cs0  1  0.50000000  0.50000000  0.50000000  1
  Rb  Rb0  1  0.91124771  0.91124771  0.91124771  1
  Rb  Rb1  1  0.08875229  0.08875229  0.08875229  1
  Cu  Cu0  1  0.00000000  0.50000000  0.50000000  1
  Cu  Cu1  1  0.50000000  0.50000000  0.00000000  1
  Cu  Cu2  1  0.50000000  0.00000000  0.50000000  1
  As  As0  1  0.25997614  0.25997614  0.25997614  1
  As  As1  1  0.74002386  0.74002386  0.74002386  1
loop_
_geom_bond_atom_site_label_1
_geom_bond_atom_site_label_2
_geom_bond_distance
_geom_bond_site_symmetry_2
Cs0 Rb0 3.875286 1_455
Cs0 Rb1 3.875286 1_655
Cs0 Rb0 3.875286 1_554
Cs0 Rb1 3.875286 1_556
Cs0 Rb0 3.875286 1_545
Cs0 Rb1 3.875286 1_565
Cs0 Cu1 3.902629 1_555
Cs0 Cu1 3.902629 1_556
Cs0 Cu0 3.902629 1_655
Cs0 Cu0 3.902629 1_555
Cs0 Cu2 3.902629 1_565
Cs0 Cu2 3.902629 1_555
Cu0 Rb1 3.565951 1_556
Cu0 Rb0 3.565951 1_454
Cu0 Rb1 3.565952 1_565
Cu0 Rb0 3.565952 1_445
Cu1 Rb1 3.565951 1_655
Cu1 Rb0 3.565951 1_454
Cu1 Rb1 3.565952 1_565
Cu1 Rb0 3.565952 1_544
Cu2 Rb1 3.565951 1_556
Cu2 Rb0 3.565951 1_544
Cu2 Rb1 3.565951 1_655
Cu2 Rb0 3.565951 1_445
As0 Cu0 2.333006 1_555
As0 Cu2 2.333006 1_555
As0 Cu1 2.333006 1_555
As0 Rb0 3.531070 1_544
As0 Rb0 3.531070 1_445
As0 Rb0 3.531070 1_454
As0 Rb1 3.579416 1_555
As0 Cs0 4.021171 1_554
As0 Cs0 4.021171 1_455
As0 Cs0 4.021171 1_545
As1 Cu0 2.333006 1_655
As1 Cu2 2.333006 1_565
As1 Cu1 2.333006 1_556
As1 Rb1 3.531070 1_566
As1 Rb1 3.531070 1_665
As1 Rb1 3.531070 1_656
As1 Rb0 3.579416 1_555
As1 Cs0 4.021171 1_556
As1 Cs0 4.021171 1_655
As1 Cs0 4.021171 1_565
