# generated using pymatgen
data_Hg3Bi(Ir2O7)2
_symmetry_space_group_name_H-M   'P 1'
_cell_length_a   7.20149770
_cell_length_b   7.20149753
_cell_length_c   7.30418865
_cell_angle_alpha   60.46399630
_cell_angle_beta   60.46399574
_cell_angle_gamma   60.00000190
_symmetry_Int_Tables_number   1
_chemical_formula_structural   Hg3Bi(Ir2O7)2
_chemical_formula_sum   'Hg3 Bi1 Ir4 O14'
_cell_volume   269.71998684
_cell_formula_units_Z   1
loop_
 _symmetry_equiv_pos_site_id
 _symmetry_equiv_pos_as_xyz
  1  'x, y, z'
loop_
 _atom_site_type_symbol
 _atom_site_label
 _atom_site_symmetry_multiplicity
 _atom_site_fract_x
 _atom_site_fract_y
 _atom_site_fract_z
 _atom_site_occupancy
  Hg  Hg0  1  0.62500000  0.12500000  0.12500000  1
  Hg  Hg1  1  0.12500000  0.62500000  0.12500000  1
  Hg  Hg2  1  0.12500000  0.12500000  0.12500000  1
  Bi  Bi0  1  0.12500000  0.12500000  0.62500000  1
  Ir  Ir0  1  0.12500000  0.62500000  0.62500000  1
  Ir  Ir1  1  0.62500000  0.12500000  0.62500000  1
  Ir  Ir2  1  0.62500000  0.62500000  0.12500000  1
  Ir  Ir3  1  0.62500000  0.62500000  0.62500000  1
  O  O0  1  0.69556066  0.69556066  0.30628727  1
  O  O1  1  0.29688535  0.29688535  0.69282626  1
  O  O2  1  0.71340403  0.29688535  0.69282626  1
  O  O3  1  0.30259141  0.69556066  0.30628727  1
  O  O4  1  0.29688535  0.71340403  0.69282626  1
  O  O5  1  0.69556066  0.30259141  0.30628727  1
  O  O6  1  0.55443934  0.55443934  0.94371273  1
  O  O7  1  0.95311465  0.95311465  0.55717374  1
  O  O8  1  0.53659597  0.95311465  0.55717374  1
  O  O9  1  0.94740859  0.55443934  0.94371273  1
  O  O10  1  0.95311465  0.53659597  0.55717374  1
  O  O11  1  0.55443934  0.94740859  0.94371273  1
  O  O12  1  0.25307821  0.25307821  0.24076536  1
  O  O13  1  0.99692179  0.99692179  0.00923464  1
loop_
_geom_bond_atom_site_label_1
_geom_bond_atom_site_label_2
_geom_bond_distance
_geom_bond_site_symmetry_2
Hg0 O13 2.192057 1_545
Hg0 O12 2.192057 1_555
Hg0 O5 2.574919 1_555
Hg0 O11 2.574919 1_544
Hg0 O6 2.574919 1_554
Hg0 O0 2.574919 1_545
Hg0 O8 2.618453 1_545
Hg0 O2 2.618453 1_554
Hg1 O13 2.192057 1_455
Hg1 O12 2.192057 1_555
Hg1 O3 2.574919 1_555
Hg1 O9 2.574919 1_454
Hg1 O6 2.574919 1_554
Hg1 O0 2.574919 1_455
Hg1 O10 2.618453 1_455
Hg1 O4 2.618453 1_554
Hg2 O12 2.192057 1_555
Hg2 O13 2.192057 1_445
Hg2 O9 2.574919 1_454
Hg2 O3 2.574919 1_545
Hg2 O5 2.574919 1_455
Hg2 O11 2.574919 1_544
Hg2 O7 2.618454 1_445
Hg2 O1 2.618454 1_554
Bi0 O13 2.307456 1_446
Bi0 O12 2.307456 1_555
Bi0 O10 2.459945 1_455
Bi0 O4 2.459945 1_545
Bi0 O8 2.459945 1_545
Bi0 O2 2.459945 1_455
Bi0 O1 2.459951 1_555
Bi0 O7 2.459951 1_445
Ir0 O9 1.965028 1_455
Ir0 O3 1.965028 1_555
Ir0 O7 1.971446 1_455
Ir0 O1 1.971446 1_555
Ir0 O4 1.971451 1_555
Ir0 O10 1.971451 1_455
Ir1 O11 1.965028 1_545
Ir1 O5 1.965028 1_555
Ir1 O7 1.971446 1_545
Ir1 O1 1.971446 1_555
Ir1 O2 1.971451 1_555
Ir1 O8 1.971451 1_545
Ir2 O0 1.963369 1_555
Ir2 O6 1.963369 1_554
Ir2 O11 1.963369 1_554
Ir2 O5 1.963369 1_555
Ir2 O9 1.963369 1_554
Ir2 O3 1.963369 1_555
Ir3 O6 1.965028 1_555
Ir3 O0 1.965028 1_555
Ir3 O8 1.971445 1_555
Ir3 O2 1.971445 1_555
Ir3 O10 1.971445 1_555
Ir3 O4 1.971445 1_555
