# generated using pymatgen
data_Cs3Al2Sb3
_symmetry_space_group_name_H-M   'P 1'
_cell_length_a   6.50231846
_cell_length_b   8.66802919
_cell_length_c   11.76303568
_cell_angle_alpha   70.30171379
_cell_angle_beta   90.00000000
_cell_angle_gamma   90.00000000
_symmetry_Int_Tables_number   1
_chemical_formula_structural   Cs3Al2Sb3
_chemical_formula_sum   'Cs6 Al4 Sb6'
_cell_volume   624.19373186
_cell_formula_units_Z   2
loop_
 _symmetry_equiv_pos_site_id
 _symmetry_equiv_pos_as_xyz
  1  'x, y, z'
loop_
 _atom_site_type_symbol
 _atom_site_label
 _atom_site_symmetry_multiplicity
 _atom_site_fract_x
 _atom_site_fract_y
 _atom_site_fract_z
 _atom_site_occupancy
  Cs  Cs0  1  0.25000000  0.45312563  0.41037344  1
  Cs  Cs1  1  0.75000000  0.14524338  0.93093538  1
  Cs  Cs2  1  0.75000000  0.46470479  0.14790186  1
  Cs  Cs3  1  0.25000000  0.53529521  0.85209814  1
  Cs  Cs4  1  0.75000000  0.54687437  0.58962656  1
  Cs  Cs5  1  0.25000000  0.85475662  0.06906462  1
  Al  Al0  1  0.99873805  0.01655062  0.34864448  1
  Al  Al1  1  0.49873805  0.98344938  0.65135552  1
  Al  Al2  1  0.50126195  0.01655062  0.34864448  1
  Al  Al3  1  0.00126195  0.98344938  0.65135552  1
  Sb  Sb0  1  0.25000000  0.82007119  0.53355781  1
  Sb  Sb1  1  0.75000000  0.17992881  0.46644219  1
  Sb  Sb2  1  0.25000000  0.22198041  0.18328966  1
  Sb  Sb3  1  0.75000000  0.77801959  0.81671034  1
  Sb  Sb4  1  0.25000000  0.16751259  0.73455816  1
  Sb  Sb5  1  0.75000000  0.83248741  0.26544184  1
loop_
_geom_bond_atom_site_label_1
_geom_bond_atom_site_label_2
_geom_bond_distance
_geom_bond_site_symmetry_2
Cs0 Sb4 3.782421 1_555
Cs0 Sb2 3.841550 1_555
Cs0 Sb0 3.914524 1_555
Cs0 Sb1 3.944608 1_455
Cs0 Sb1 3.944608 1_555
Cs1 Sb3 3.849771 1_545
Cs1 Sb5 3.954874 1_546
Cs1 Sb4 3.955094 1_555
Cs1 Sb4 3.955094 1_655
Cs2 Sb1 3.728002 1_555
Cs2 Sb2 3.818308 1_555
Cs2 Sb2 3.818308 1_655
Cs2 Sb5 3.878930 1_555
Cs2 Sb3 3.926896 1_554
Cs3 Sb0 3.728002 1_555
Cs3 Sb3 3.818308 1_455
Cs3 Sb3 3.818308 1_555
Cs3 Sb4 3.878930 1_555
Cs3 Sb2 3.926896 1_556
Cs4 Sb5 3.782421 1_555
Cs4 Sb3 3.841550 1_555
Cs4 Sb1 3.914524 1_555
Cs4 Sb0 3.944608 1_555
Cs4 Sb0 3.944608 1_655
Cs5 Sb2 3.849771 1_565
Cs5 Sb4 3.954874 1_564
Cs5 Sb5 3.955094 1_555
Cs5 Sb5 3.955094 1_455
Al0 Sb5 2.678051 1_545
Al0 Sb2 2.699717 1_655
Al0 Sb0 2.793512 1_645
Al0 Sb1 2.804344 1_555
Al1 Sb4 2.678051 1_565
Al1 Sb3 2.699717 1_555
Al1 Sb1 2.793512 1_565
Al1 Sb0 2.804344 1_555
Al2 Sb5 2.678051 1_545
Al2 Sb2 2.699717 1_555
Al2 Sb0 2.793512 1_545
Al2 Sb1 2.804344 1_555
Al3 Sb4 2.678051 1_565
Al3 Sb3 2.699717 1_455
Al3 Sb1 2.793512 1_465
Al3 Sb0 2.804344 1_555
