# generated using pymatgen
data_Ti3BeSi2Os3
_symmetry_space_group_name_H-M   'P 1'
_cell_length_a   7.33445656
_cell_length_b   7.33445628
_cell_length_c   7.33445574
_cell_angle_alpha   126.39950278
_cell_angle_beta   128.80426269
_cell_angle_gamma   77.28664275
_symmetry_Int_Tables_number   1
_chemical_formula_structural   Ti3BeSi2Os3
_chemical_formula_sum   'Ti6 Be2 Si4 Os6'
_cell_volume   240.12662944
_cell_formula_units_Z   2
loop_
 _symmetry_equiv_pos_site_id
 _symmetry_equiv_pos_as_xyz
  1  'x, y, z'
loop_
 _atom_site_type_symbol
 _atom_site_label
 _atom_site_symmetry_multiplicity
 _atom_site_fract_x
 _atom_site_fract_y
 _atom_site_fract_z
 _atom_site_occupancy
  Ti  Ti0  1  0.44781193  0.39880505  0.45099311  1
  Ti  Ti1  1  0.55218807  0.00318018  0.95099311  1
  Ti  Ti2  1  0.05220207  0.00317626  0.45097419  1
  Ti  Ti3  1  0.94779793  0.39877312  0.95097419  1
  Ti  Ti4  1  0.24993385  0.60753651  0.85760366  1
  Ti  Ti5  1  0.75006615  0.60766980  0.35760366  1
  Be  Be0  1  0.25006308  0.00343760  0.25337552  1
  Be  Be1  1  0.74993692  0.00331244  0.75337552  1
  Si  Si0  1  0.16673711  0.66986102  0.50325094  1
  Si  Si1  1  0.83326289  0.33651383  0.50312390  1
  Si  Si2  1  0.66660908  0.66986102  0.00312390  1
  Si  Si3  1  0.33339092  0.33651383  0.00325094  1
  Os  Os0  1  0.00000000  0.25476900  0.25476900  1
  Os  Os1  1  0.50000000  0.25476900  0.75476900  1
  Os  Os2  1  0.37420666  0.75170177  0.37741657  1
  Os  Os3  1  0.62579334  0.00320991  0.37749411  1
  Os  Os4  1  0.87428520  0.75170177  0.87749411  1
  Os  Os5  1  0.12571480  0.00320991  0.87741657  1
loop_
_geom_bond_atom_site_label_1
_geom_bond_atom_site_label_2
_geom_bond_distance
_geom_bond_site_symmetry_2
Be0 Os1 2.296738 1_555
Be0 Os0 2.296743 1_555
Be0 Os3 2.297520 1_555
Be0 Os5 2.297522 1_554
Be0 Os2 2.298073 1_545
Be0 Os4 2.298078 1_444
Be0 Ti0 2.615620 1_555
Be0 Ti2 2.616660 1_555
Be0 Ti4 2.617612 1_544
Be1 Os0 2.296738 1_656
Be1 Os1 2.296739 1_555
Be1 Os4 2.297513 1_545
Be1 Os2 2.297517 1_545
Be1 Os5 2.298081 1_655
Be1 Os3 2.298087 1_555
Be1 Ti1 2.615616 1_555
Be1 Ti3 2.616670 1_555
Be1 Ti5 2.617612 1_545
Si0 Ti0 2.575114 1_555
Si0 Ti1 2.575133 1_565
Si0 Ti5 2.575330 1_455
Si0 Ti2 2.575665 1_565
Si0 Ti3 2.575684 1_454
Si0 Ti4 2.575963 1_555
Si1 Ti1 2.575115 1_554
Si1 Ti0 2.575137 1_555
Si1 Ti4 2.575326 1_655
Si1 Ti3 2.575661 1_555
Si1 Ti2 2.575684 1_655
Si1 Ti5 2.575958 1_555
Si2 Ti0 2.575115 1_554
Si2 Ti1 2.575129 1_564
Si2 Ti5 2.575326 1_555
Si2 Ti2 2.575669 1_665
Si2 Ti3 2.575686 1_554
Si2 Ti4 2.575953 1_554
Si3 Ti1 2.575116 1_554
Si3 Ti0 2.575140 1_555
Si3 Ti4 2.575321 1_554
Si3 Ti3 2.575672 1_454
Si3 Ti2 2.575684 1_554
Si3 Ti5 2.575953 1_555
Os0 Si1 2.519148 1_455
Os0 Si0 2.519148 1_555
Os0 Ti2 2.787951 1_555
Os0 Ti3 2.787957 1_454
Os0 Ti0 2.788066 1_555
Os0 Ti1 2.788069 1_454
Os0 Ti4 2.820681 1_555
Os0 Ti5 2.820682 1_455
Os1 Si3 2.519142 1_556
Os1 Si2 2.519146 1_556
Os1 Ti2 2.787951 1_555
Os1 Ti3 2.787954 1_555
Os1 Ti0 2.788065 1_555
Os1 Ti1 2.788072 1_555
Os1 Ti4 2.820678 1_555
Os1 Ti5 2.820682 1_556
Os2 Si0 2.519382 1_555
Os2 Si3 2.519395 1_555
Os2 Ti4 2.787249 1_554
Os2 Ti2 2.787365 1_565
Os2 Ti1 2.787792 1_565
Os2 Ti5 2.788318 1_555
Os2 Ti3 2.821150 1_454
Os2 Ti0 2.821267 1_555
Os3 Si1 2.519378 1_555
Os3 Si2 2.519385 1_545
Os3 Ti5 2.787254 1_545
Os3 Ti3 2.787370 1_555
Os3 Ti0 2.787791 1_555
Os3 Ti4 2.788320 1_544
Os3 Ti2 2.821150 1_655
Os3 Ti1 2.821255 1_554
Os4 Si1 2.519391 1_555
Os4 Si2 2.519395 1_556
Os4 Ti4 2.787249 1_655
Os4 Ti2 2.787371 1_666
Os4 Ti1 2.787791 1_565
Os4 Ti5 2.788311 1_555
Os4 Ti3 2.821151 1_555
Os4 Ti0 2.821267 1_555
Os5 Si3 2.519386 1_556
Os5 Si0 2.519393 1_545
Os5 Ti5 2.787251 1_445
Os5 Ti3 2.787371 1_455
Os5 Ti0 2.787791 1_556
Os5 Ti4 2.788325 1_545
Os5 Ti2 2.821153 1_555
Os5 Ti1 2.821266 1_555
