# generated using pymatgen
data_Yb2Mg
_symmetry_space_group_name_H-M   'P 1'
_cell_length_a   7.08997665
_cell_length_b   7.08997665
_cell_length_c   4.97717583
_cell_angle_alpha   90.00000000
_cell_angle_beta   90.00000000
_cell_angle_gamma   138.74802037
_symmetry_Int_Tables_number   1
_chemical_formula_structural   Yb2Mg
_chemical_formula_sum   'Yb4 Mg2'
_cell_volume   164.96923347
_cell_formula_units_Z   2
loop_
 _symmetry_equiv_pos_site_id
 _symmetry_equiv_pos_as_xyz
  1  'x, y, z'
loop_
 _atom_site_type_symbol
 _atom_site_label
 _atom_site_symmetry_multiplicity
 _atom_site_fract_x
 _atom_site_fract_y
 _atom_site_fract_z
 _atom_site_occupancy
  Yb  Yb0  1  0.58726832  0.91232104  0.25000000  1
  Yb  Yb1  1  0.08767896  0.41273168  0.75000000  1
  Yb  Yb2  1  0.91232104  0.58726832  0.25000000  1
  Yb  Yb3  1  0.41273168  0.08767896  0.75000000  1
  Mg  Mg0  1  0.74989729  0.74989729  0.75000000  1
  Mg  Mg1  1  0.25010271  0.25010271  0.25000000  1
loop_
_geom_bond_atom_site_label_1
_geom_bond_atom_site_label_2
_geom_bond_distance
_geom_bond_site_symmetry_2
Yb0 Yb3 3.403454 1_565
Yb0 Yb3 3.403454 1_564
Yb0 Yb2 3.410018 1_565
Yb0 Yb2 3.410018 1_455
Yb0 Yb1 3.524291 1_555
Yb0 Yb1 3.524291 1_554
Yb0 Yb1 3.527197 1_665
Yb0 Yb1 3.527197 1_664
Yb1 Yb2 3.403454 1_455
Yb1 Yb2 3.403454 1_456
Yb1 Yb3 3.410018 1_565
Yb1 Yb3 3.410018 1_455
Yb2 Yb3 3.524291 1_555
Yb2 Yb3 3.524291 1_554
Yb2 Yb3 3.527197 1_664
Yb2 Yb3 3.527197 1_665
Mg0 Yb0 3.293212 1_556
Mg0 Yb2 3.293212 1_556
Mg0 Yb2 3.293212 1_555
Mg0 Yb0 3.293212 1_555
Mg0 Yb1 3.298832 1_555
Mg0 Yb3 3.298832 1_555
Mg0 Yb3 3.301161 1_665
Mg0 Yb1 3.301161 1_665
Mg1 Yb1 3.293212 1_555
Mg1 Yb3 3.293212 1_554
Mg1 Yb3 3.293212 1_555
Mg1 Yb1 3.293212 1_554
Mg1 Yb2 3.298832 1_555
Mg1 Yb0 3.298832 1_555
Mg1 Yb2 3.301161 1_445
Mg1 Yb0 3.301161 1_445
