# generated using pymatgen
data_CsSc2(H6Ir)2
_symmetry_space_group_name_H-M   'P 1'
_cell_length_a   4.76200635
_cell_length_b   4.76200849
_cell_length_c   9.61000730
_cell_angle_alpha   90.00000000
_cell_angle_beta   90.00000000
_cell_angle_gamma   119.99999893
_symmetry_Int_Tables_number   1
_chemical_formula_structural   CsSc2(H6Ir)2
_chemical_formula_sum   'Cs1 Sc2 H12 Ir2'
_cell_volume   188.72719704
_cell_formula_units_Z   1
loop_
 _symmetry_equiv_pos_site_id
 _symmetry_equiv_pos_as_xyz
  1  'x, y, z'
loop_
 _atom_site_type_symbol
 _atom_site_label
 _atom_site_symmetry_multiplicity
 _atom_site_fract_x
 _atom_site_fract_y
 _atom_site_fract_z
 _atom_site_occupancy
  Cs  Cs0  1  0.00000000  0.00000000  0.00000000  1
  Sc  Sc0  1  0.66666700  0.33333300  0.38346378  1
  Sc  Sc1  1  0.33333300  0.66666700  0.61653622  1
  H  H0  1  0.16212016  0.83787984  0.40544048  1
  H  H1  1  0.67575968  0.83787984  0.40544048  1
  H  H2  1  0.16212016  0.32424032  0.40544048  1
  H  H3  1  0.83787984  0.16212016  0.59455952  1
  H  H4  1  0.32424032  0.16212016  0.59455952  1
  H  H5  1  0.83787984  0.67575968  0.59455952  1
  H  H6  1  0.50255183  0.00510265  0.79105037  1
  H  H7  1  0.50255183  0.49744817  0.79105037  1
  H  H8  1  0.99489735  0.49744817  0.79105037  1
  H  H9  1  0.49744817  0.99489735  0.20894963  1
  H  H10  1  0.49744817  0.50255183  0.20894963  1
  H  H11  1  0.00510265  0.50255183  0.20894963  1
  Ir  Ir0  1  0.66666700  0.33333300  0.68809580  1
  Ir  Ir1  1  0.33333300  0.66666700  0.31190420  1
loop_
_geom_bond_atom_site_label_1
_geom_bond_atom_site_label_2
_geom_bond_distance
_geom_bond_site_symmetry_2
Cs0 H9 3.114755 1_545
Cs0 H6 3.114755 1_454
Cs0 H11 3.114756 1_545
Cs0 H8 3.114756 1_454
Cs0 H10 3.114758 1_445
Cs0 H7 3.114758 1_554
Cs0 H10 3.114758 1_555
Cs0 H7 3.114758 1_444
Cs0 H9 3.114759 1_445
Cs0 H6 3.114759 1_554
Cs0 H11 3.114760 1_555
Cs0 H8 3.114760 1_444
H0 Ir1 1.673983 1_555
H0 Sc0 2.390646 1_565
H0 Sc0 2.390646 1_455
H0 Sc1 2.471755 1_555
H1 Ir1 1.673986 1_555
H1 Sc0 2.390644 1_565
H1 Sc0 2.390649 1_555
H1 Sc1 2.471757 1_555
H2 Ir1 1.673986 1_555
H2 Sc0 2.390643 1_455
H2 Sc0 2.390648 1_555
H2 Sc1 2.471757 1_555
H3 Ir0 1.673983 1_555
H3 Sc1 2.390646 1_545
H3 Sc1 2.390646 1_655
H3 Sc0 2.471755 1_555
H4 Ir0 1.673986 1_555
H4 Sc1 2.390644 1_545
H4 Sc1 2.390649 1_555
H4 Sc0 2.471757 1_555
H5 Ir0 1.673986 1_555
H5 Sc1 2.390643 1_655
H5 Sc1 2.390648 1_555
H5 Sc0 2.471757 1_555
H6 Ir0 1.676667 1_555
H6 Sc1 2.181886 1_545
H7 Ir0 1.676666 1_555
H7 Sc1 2.181891 1_555
H8 Ir0 1.676666 1_555
H8 Sc1 2.181886 1_655
H9 Ir1 1.676667 1_555
H9 Sc0 2.181886 1_565
H10 Ir1 1.676666 1_555
H10 Sc0 2.181891 1_555
H11 Ir1 1.676666 1_555
H11 Sc0 2.181886 1_455
