# generated using pymatgen
data_Ni4P2PdPt
_symmetry_space_group_name_H-M   'P 1'
_cell_length_a   4.51899325
_cell_length_b   4.51899233
_cell_length_c   6.54586453
_cell_angle_alpha   90.00000000
_cell_angle_beta   90.00000000
_cell_angle_gamma   134.82410368
_symmetry_Int_Tables_number   1
_chemical_formula_structural   Ni4P2PdPt
_chemical_formula_sum   'Ni4 P2 Pd1 Pt1'
_cell_volume   94.81225992
_cell_formula_units_Z   1
loop_
 _symmetry_equiv_pos_site_id
 _symmetry_equiv_pos_as_xyz
  1  'x, y, z'
loop_
 _atom_site_type_symbol
 _atom_site_label
 _atom_site_symmetry_multiplicity
 _atom_site_fract_x
 _atom_site_fract_y
 _atom_site_fract_z
 _atom_site_occupancy
  Ni  Ni0  1  0.85329265  0.14670735  0.05484871  1
  Ni  Ni1  1  0.14786193  0.85213807  0.94567582  1
  Ni  Ni2  1  0.14786193  0.85213807  0.55432418  1
  Ni  Ni3  1  0.85329265  0.14670735  0.44515129  1
  P  P0  1  0.26653357  0.73346643  0.25000000  1
  P  P1  1  0.73254174  0.26745826  0.75000000  1
  Pd  Pd0  1  0.44625900  0.55374100  0.75000000  1
  Pt  Pt0  1  0.55235553  0.44764447  0.25000000  1
loop_
_geom_bond_atom_site_label_1
_geom_bond_atom_site_label_2
_geom_bond_distance
_geom_bond_site_symmetry_2
Ni0 P1 2.235471 1_554
Ni0 P0 2.273502 1_655
Ni0 P0 2.273502 1_545
Ni0 Pt0 2.721025 1_545
Ni0 Pt0 2.721026 1_655
Ni0 Pd0 2.756206 1_544
Ni0 Pd0 2.756206 1_654
Ni0 Pt0 2.817463 1_555
Ni1 P0 2.224629 1_556
Ni1 P1 2.269972 1_455
Ni1 P1 2.269972 1_565
Ni1 Pd0 2.735622 1_565
Ni1 Pd0 2.735623 1_455
Ni1 Pt0 2.759767 1_566
Ni1 Pt0 2.759767 1_456
Ni1 Pd0 2.800157 1_555
Ni2 P0 2.224629 1_555
Ni2 P1 2.269972 1_455
Ni2 P1 2.269972 1_565
Ni2 Pd0 2.735622 1_565
Ni2 Pd0 2.735623 1_455
Ni2 Pt0 2.759767 1_565
Ni2 Pt0 2.759767 1_455
Ni2 Pd0 2.800157 1_555
Ni3 P1 2.235471 1_555
Ni3 P0 2.273502 1_655
Ni3 P0 2.273502 1_545
Ni3 Pt0 2.721025 1_545
Ni3 Pt0 2.721026 1_655
Ni3 Pd0 2.756206 1_545
Ni3 Pd0 2.756206 1_655
Ni3 Pt0 2.817463 1_555
P0 Pt0 2.385096 1_555
P0 Pt0 2.491403 1_565
P0 Pt0 2.491404 1_455
P1 Pd0 2.388941 1_555
P1 Pd0 2.488646 1_545
P1 Pd0 2.488647 1_655
