# generated using pymatgen
data_Ca3Cd3Si2Ge
_symmetry_space_group_name_H-M   'P 1'
_cell_length_a   7.25107728
_cell_length_b   7.25107678
_cell_length_c   4.48165149
_cell_angle_alpha   90.00000000
_cell_angle_beta   90.00000000
_cell_angle_gamma   120.00000227
_symmetry_Int_Tables_number   1
_chemical_formula_structural   Ca3Cd3Si2Ge
_chemical_formula_sum   'Ca3 Cd3 Si2 Ge1'
_cell_volume   204.06745106
_cell_formula_units_Z   1
loop_
 _symmetry_equiv_pos_site_id
 _symmetry_equiv_pos_as_xyz
  1  'x, y, z'
loop_
 _atom_site_type_symbol
 _atom_site_label
 _atom_site_symmetry_multiplicity
 _atom_site_fract_x
 _atom_site_fract_y
 _atom_site_fract_z
 _atom_site_occupancy
  Ca  Ca0  1  0.58052137  0.00000000  0.50000000  1
  Ca  Ca1  1  0.41947863  0.41947863  0.50000000  1
  Ca  Ca2  1  0.00000000  0.58052137  0.50000000  1
  Cd  Cd0  1  0.00000000  0.25896681  0.00000000  1
  Cd  Cd1  1  0.25896681  0.00000000  0.00000000  1
  Cd  Cd2  1  0.74103319  0.74103319  0.00000000  1
  Si  Si0  1  0.33333300  0.66666700  0.00000000  1
  Si  Si1  1  0.66666700  0.33333300  0.00000000  1
  Ge  Ge0  1  0.00000000  0.00000000  0.50000000  1
loop_
_geom_bond_atom_site_label_1
_geom_bond_atom_site_label_2
_geom_bond_distance
_geom_bond_site_symmetry_2
Ca0 Ge0 3.041672 1_655
Ca0 Si1 3.121489 1_556
Ca0 Si1 3.121489 1_555
Ca0 Si0 3.121491 1_545
Ca0 Si0 3.121491 1_546
Ca0 Cd1 3.233843 1_556
Ca0 Cd1 3.233843 1_555
Ca0 Cd2 3.476714 1_545
Ca0 Cd2 3.476714 1_546
Ca0 Cd0 3.476714 1_656
Ca0 Cd0 3.476714 1_655
Ca1 Ge0 3.041672 1_555
Ca1 Si0 3.121494 1_556
Ca1 Si0 3.121494 1_555
Ca1 Si1 3.121495 1_555
Ca1 Si1 3.121495 1_556
Ca1 Cd2 3.233842 1_555
Ca1 Cd2 3.233842 1_556
Ca1 Cd1 3.476714 1_555
Ca1 Cd1 3.476714 1_556
Ca1 Cd0 3.476714 1_555
Ca1 Cd0 3.476714 1_556
Ca2 Ge0 3.041672 1_565
Ca2 Si0 3.121490 1_556
Ca2 Si0 3.121490 1_555
Ca2 Si1 3.121491 1_455
Ca2 Si1 3.121491 1_456
Ca2 Cd0 3.233842 1_556
Ca2 Cd0 3.233842 1_555
Ca2 Cd1 3.476714 1_565
Ca2 Cd1 3.476714 1_566
Ca2 Cd2 3.476714 1_455
Ca2 Cd2 3.476714 1_456
Cd0 Si1 2.726925 1_455
Cd0 Si0 2.726929 1_555
Cd0 Ge0 2.923592 1_554
Cd0 Ge0 2.923592 1_555
Cd0 Cd2 3.252425 1_445
Cd0 Cd1 3.252425 1_555
Cd1 Si0 2.726925 1_545
Cd1 Si1 2.726929 1_555
Cd1 Ge0 2.923592 1_555
Cd1 Ge0 2.923592 1_554
Cd1 Cd2 3.252425 1_445
Cd2 Si1 2.726932 1_555
Cd2 Si0 2.726932 1_555
Cd2 Ge0 2.923592 1_665
Cd2 Ge0 2.923592 1_664
