# generated using pymatgen
data_Ca6Al16Ir7
_symmetry_space_group_name_H-M   'P 1'
_cell_length_a   8.91415614
_cell_length_b   8.91414556
_cell_length_c   8.91411852
_cell_angle_alpha   59.99997090
_cell_angle_beta   60.00007901
_cell_angle_gamma   59.99999839
_symmetry_Int_Tables_number   1
_chemical_formula_structural   Ca6Al16Ir7
_chemical_formula_sum   'Ca6 Al16 Ir7'
_cell_volume   500.86827387
_cell_formula_units_Z   1
loop_
 _symmetry_equiv_pos_site_id
 _symmetry_equiv_pos_as_xyz
  1  'x, y, z'
loop_
 _atom_site_type_symbol
 _atom_site_label
 _atom_site_symmetry_multiplicity
 _atom_site_fract_x
 _atom_site_fract_y
 _atom_site_fract_z
 _atom_site_occupancy
  Ca  Ca0  1  0.20709020  0.79290980  0.79290980  1
  Ca  Ca1  1  0.79290980  0.20709020  0.20709020  1
  Ca  Ca2  1  0.79291080  0.20708920  0.79290980  1
  Ca  Ca3  1  0.79291080  0.79291080  0.20709020  1
  Ca  Ca4  1  0.20708920  0.79291080  0.20709020  1
  Ca  Ca5  1  0.20708920  0.20708920  0.79290980  1
  Al  Al0  1  0.82607505  0.82607405  0.82607505  1
  Al  Al1  1  0.82607405  0.82607405  0.52177685  1
  Al  Al2  1  0.52177685  0.82607505  0.82607405  1
  Al  Al3  1  0.82607505  0.52177685  0.82607405  1
  Al  Al4  1  0.17392495  0.17392595  0.17392495  1
  Al  Al5  1  0.17392595  0.17392595  0.47822315  1
  Al  Al6  1  0.17392495  0.47822315  0.17392595  1
  Al  Al7  1  0.47822315  0.17392495  0.17392595  1
  Al  Al8  1  0.61955717  0.61955817  0.61955817  1
  Al  Al9  1  0.61955817  0.61955717  0.14132749  1
  Al  Al10  1  0.14132649  0.61955717  0.61955817  1
  Al  Al11  1  0.61955717  0.14132649  0.61955817  1
  Al  Al12  1  0.38044283  0.38044183  0.38044183  1
  Al  Al13  1  0.38044183  0.38044283  0.85867251  1
  Al  Al14  1  0.38044283  0.85867351  0.38044183  1
  Al  Al15  1  0.85867351  0.38044283  0.38044183  1
  Ir  Ir0  1  0.50000000  0.50000000  0.50000000  1
  Ir  Ir1  1  0.00000000  0.50000000  0.50000000  1
  Ir  Ir2  1  0.50000000  0.00000000  0.00000000  1
  Ir  Ir3  1  0.50000000  0.00000000  0.50000000  1
  Ir  Ir4  1  0.50000000  0.50000000  0.00000000  1
  Ir  Ir5  1  0.00000000  0.50000000  0.00000000  1
  Ir  Ir6  1  0.00000000  0.00000000  0.50000000  1
loop_
_geom_bond_atom_site_label_1
_geom_bond_atom_site_label_2
_geom_bond_distance
_geom_bond_site_symmetry_2
Ca0 Ir6 3.197705 1_565
Ca0 Ir4 3.197709 1_556
Ca0 Ir5 3.197716 1_556
Ca0 Ir3 3.197716 1_565
Ca1 Ir6 3.197705 1_655
Ca1 Ir4 3.197709 1_555
Ca1 Ir5 3.197716 1_655
Ca1 Ir3 3.197716 1_555
Ca2 Ir6 3.197703 1_655
Ca2 Ir1 3.197715 1_655
Ca2 Ir2 3.197719 1_556
Ca2 Ir4 3.197720 1_556
Ca3 Ir1 3.197702 1_655
Ca3 Ir3 3.197707 1_565
Ca3 Ir2 3.197718 1_565
Ca3 Ir5 3.197719 1_655
Ca4 Ir6 3.197703 1_565
Ca4 Ir1 3.197715 1_555
Ca4 Ir2 3.197719 1_565
Ca4 Ir4 3.197720 1_555
Ca5 Ir1 3.197702 1_555
Ca5 Ir3 3.197707 1_555
Ca5 Ir2 3.197718 1_556
Ca5 Ir5 3.197719 1_556
Al0 Ir5 2.578160 1_656
Al0 Ir6 2.578168 1_665
Al0 Ir2 2.578174 1_566
Al0 Al3 2.712554 1_555
Al0 Al1 2.712555 1_555
Al0 Al2 2.712562 1_555
Al0 Al10 2.778036 1_655
Al0 Al9 2.778038 1_556
Al0 Al11 2.778039 1_565
Al0 Ca3 3.128846 1_556
Al0 Ca2 3.128849 1_565
Al0 Ca0 3.128853 1_655
Al1 Ir1 2.578166 1_655
Al1 Ir3 2.578169 1_565
Al1 Ir6 2.578176 1_665
Al1 Al3 2.712544 1_555
Al1 Al2 2.712550 1_555
Al1 Al8 2.778034 1_555
Al1 Al11 2.778038 1_565
Al1 Al10 2.778038 1_655
Al1 Ca3 3.128833 1_555
Al1 Ca1 3.128852 1_565
Al1 Ca4 3.128855 1_655
Al2 Ir3 2.578158 1_565
Al2 Ir2 2.578163 1_566
Al2 Ir4 2.578173 1_556
Al2 Al3 2.712560 1_555
Al2 Al8 2.778030 1_555
Al2 Al9 2.778037 1_556
Al2 Ca5 3.128851 1_565
Al2 Ca4 3.128860 1_556
Al2 Ca0 3.128860 1_555
Al3 Ir1 2.578161 1_655
Al3 Ir5 2.578163 1_656
Al3 Ir4 2.578179 1_556
Al3 Al8 2.778034 1_555
Al3 Al9 2.778037 1_556
Al3 Ca1 3.128850 1_556
Al3 Ca5 3.128853 1_655
Al3 Ca2 3.128861 1_555
Al4 Ir5 2.578160 1_555
Al4 Ir6 2.578168 1_555
Al4 Ir2 2.578174 1_555
Al4 Al6 2.712554 1_555
Al4 Al5 2.712555 1_555
Al4 Al7 2.712562 1_555
Al4 Ca5 3.128846 1_554
Al4 Ca4 3.128849 1_545
Al4 Ca1 3.128853 1_455
Al5 Ir1 2.578166 1_555
Al5 Ir3 2.578169 1_555
Al5 Ir6 2.578176 1_555
Al5 Al6 2.712544 1_555
Al5 Al7 2.712550 1_555
Al5 Ca5 3.128833 1_555
Al5 Ca0 3.128852 1_545
Al5 Ca2 3.128855 1_455
Al6 Ir1 2.578161 1_555
Al6 Ir5 2.578163 1_555
Al6 Ir4 2.578179 1_555
Al6 Al7 2.712560 1_555
Al6 Ca0 3.128850 1_554
Al6 Ca3 3.128853 1_455
Al6 Ca4 3.128861 1_555
Al7 Ir3 2.578158 1_555
Al7 Ir2 2.578163 1_555
Al7 Ir4 2.578173 1_555
Al7 Ca3 3.128851 1_545
Al7 Ca2 3.128860 1_554
Al7 Ca1 3.128860 1_555
Al8 Ir0 2.610556 1_555
Al8 Ir4 2.771254 1_556
Al8 Ir3 2.771261 1_565
Al8 Ir1 2.771274 1_655
Al8 Ca3 3.052728 1_555
Al8 Ca0 3.052728 1_555
Al8 Ca2 3.052737 1_555
Al9 Ir0 2.610544 1_555
Al9 Ir4 2.771267 1_555
Al9 Ir5 2.771267 1_655
Al9 Ir2 2.771268 1_565
Al9 Ca1 3.052725 1_555
Al9 Ca3 3.052740 1_555
Al9 Ca4 3.052745 1_555
Al10 Ir0 2.610563 1_555
Al10 Ir5 2.771255 1_556
Al10 Ir1 2.771260 1_555
Al10 Ir6 2.771268 1_565
Al10 Al3 2.778031 1_455
Al10 Ca4 3.052723 1_555
Al10 Ca0 3.052728 1_555
Al10 Ca5 3.052731 1_555
Al11 Ir0 2.610557 1_555
Al11 Ir2 2.771254 1_556
Al11 Ir3 2.771260 1_555
Al11 Ir6 2.771274 1_655
Al11 Al2 2.778027 1_545
Al11 Ca1 3.052724 1_555
Al11 Ca2 3.052729 1_555
Al11 Ca5 3.052739 1_555
Al12 Ir0 2.610556 1_555
Al12 Ir4 2.771254 1_555
Al12 Ir3 2.771261 1_555
Al12 Ir1 2.771274 1_555
Al12 Al7 2.778030 1_555
Al12 Al6 2.778034 1_555
Al12 Al5 2.778034 1_555
Al12 Ca5 3.052728 1_555
Al12 Ca1 3.052728 1_555
Al12 Ca4 3.052737 1_555
Al13 Ir0 2.610544 1_555
Al13 Ir4 2.771267 1_556
Al13 Ir5 2.771267 1_556
Al13 Ir2 2.771268 1_556
Al13 Al6 2.778037 1_556
Al13 Al7 2.778037 1_556
Al13 Al4 2.778038 1_556
Al13 Ca0 3.052725 1_555
Al13 Ca5 3.052740 1_555
Al13 Ca2 3.052745 1_555
Al14 Ir0 2.610557 1_555
Al14 Ir2 2.771254 1_565
Al14 Ir3 2.771260 1_565
Al14 Ir6 2.771274 1_565
Al14 Al7 2.778027 1_565
Al14 Al5 2.778038 1_565
Al14 Al4 2.778039 1_565
Al14 Ca0 3.052724 1_555
Al14 Ca4 3.052729 1_555
Al14 Ca3 3.052739 1_555
Al15 Ir0 2.610563 1_555
Al15 Ir5 2.771255 1_655
Al15 Ir1 2.771260 1_655
Al15 Ir6 2.771268 1_655
Al15 Al6 2.778031 1_655
Al15 Al4 2.778036 1_655
Al15 Al5 2.778038 1_655
Al15 Ca2 3.052723 1_555
Al15 Ca1 3.052728 1_555
Al15 Ca3 3.052731 1_555
