# generated using pymatgen
data_Ba3LuRhO6
_symmetry_space_group_name_H-M   'P 1'
_cell_length_a   7.07343568
_cell_length_b   7.07343567
_cell_length_c   7.07343542
_cell_angle_alpha   93.61204781
_cell_angle_beta   93.61204765
_cell_angle_gamma   93.61204307
_symmetry_Int_Tables_number   1
_chemical_formula_structural   Ba3LuRhO6
_chemical_formula_sum   'Ba6 Lu2 Rh2 O12'
_cell_volume   351.70630980
_cell_formula_units_Z   2
loop_
 _symmetry_equiv_pos_site_id
 _symmetry_equiv_pos_as_xyz
  1  'x, y, z'
loop_
 _atom_site_type_symbol
 _atom_site_label
 _atom_site_symmetry_multiplicity
 _atom_site_fract_x
 _atom_site_fract_y
 _atom_site_fract_z
 _atom_site_occupancy
  Ba  Ba0  1  0.61790603  0.25000000  0.88209397  1
  Ba  Ba1  1  0.88209397  0.61790603  0.25000000  1
  Ba  Ba2  1  0.75000000  0.11790603  0.38209397  1
  Ba  Ba3  1  0.38209397  0.75000000  0.11790603  1
  Ba  Ba4  1  0.11790603  0.38209397  0.75000000  1
  Ba  Ba5  1  0.25000000  0.88209397  0.61790603  1
  Lu  Lu0  1  0.25000000  0.25000000  0.25000000  1
  Lu  Lu1  1  0.75000000  0.75000000  0.75000000  1
  Rh  Rh0  1  0.00000000  0.00000000  0.00000000  1
  Rh  Rh1  1  0.50000000  0.50000000  0.50000000  1
  O  O0  1  0.59845717  0.78232612  0.47010131  1
  O  O1  1  0.47010131  0.59845717  0.78232612  1
  O  O2  1  0.78232612  0.47010131  0.59845717  1
  O  O3  1  0.90154283  0.02989869  0.71767388  1
  O  O4  1  0.71767388  0.90154283  0.02989869  1
  O  O5  1  0.02989869  0.71767388  0.90154283  1
  O  O6  1  0.40154283  0.21767388  0.52989869  1
  O  O7  1  0.52989869  0.40154283  0.21767388  1
  O  O8  1  0.21767388  0.52989869  0.40154283  1
  O  O9  1  0.09845717  0.97010131  0.28232612  1
  O  O10  1  0.97010131  0.28232612  0.09845717  1
  O  O11  1  0.28232612  0.09845717  0.97010131  1
loop_
_geom_bond_atom_site_label_1
_geom_bond_atom_site_label_2
_geom_bond_distance
_geom_bond_site_symmetry_2
Ba0 O7 2.668461 1_556
Ba0 O11 2.668461 1_555
Ba0 O6 2.829217 1_555
Ba0 O10 2.829217 1_556
Ba0 O1 2.849059 1_555
Ba0 O4 2.849059 1_546
Ba0 O3 2.874207 1_555
Ba0 O2 2.874207 1_555
Ba1 O10 2.668461 1_555
Ba1 O8 2.668461 1_655
Ba1 O9 2.829217 1_655
Ba1 O7 2.829217 1_555
Ba1 O5 2.849059 1_654
Ba1 O2 2.849059 1_555
Ba1 O0 2.874207 1_555
Ba1 O4 2.874207 1_555
Ba2 O3 2.668461 1_555
Ba2 O0 2.668461 1_545
Ba2 O4 2.829217 1_545
Ba2 O2 2.829217 1_555
Ba2 O9 2.849059 1_645
Ba2 O6 2.849059 1_555
Ba2 O7 2.874207 1_555
Ba2 O10 2.874207 1_555
Ba3 O1 2.668461 1_554
Ba3 O4 2.668461 1_555
Ba3 O0 2.829217 1_555
Ba3 O5 2.829217 1_554
Ba3 O7 2.849059 1_555
Ba3 O11 2.849059 1_564
Ba3 O9 2.874207 1_555
Ba3 O8 2.874207 1_555
Ba4 O5 2.668461 1_555
Ba4 O2 2.668461 1_455
Ba4 O3 2.829217 1_455
Ba4 O1 2.829217 1_555
Ba4 O10 2.849059 1_456
Ba4 O8 2.849059 1_555
Ba4 O6 2.874207 1_555
Ba4 O11 2.874207 1_555
Ba5 O9 2.668461 1_555
Ba5 O6 2.668461 1_565
Ba5 O11 2.829217 1_565
Ba5 O8 2.829217 1_555
Ba5 O3 2.849059 1_465
Ba5 O0 2.849059 1_555
Ba5 O1 2.874207 1_555
Ba5 O5 2.874207 1_555
Lu0 O11 2.222976 1_554
Lu0 O6 2.222976 1_555
Lu0 O8 2.222976 1_555
Lu0 O10 2.222976 1_455
Lu0 O9 2.222976 1_545
Lu0 O7 2.222976 1_555
Lu1 O4 2.222976 1_556
Lu1 O0 2.222976 1_555
Lu1 O2 2.222976 1_555
Lu1 O5 2.222976 1_655
Lu1 O3 2.222976 1_565
Lu1 O1 2.222976 1_555
O0 Rh1 2.101035 1_555
O1 Rh1 2.101035 1_555
O2 Rh1 2.101035 1_555
O3 Rh0 2.101035 1_656
O4 Rh0 2.101035 1_665
O5 Rh0 2.101035 1_566
O6 Rh1 2.101035 1_555
O7 Rh1 2.101035 1_555
O8 Rh1 2.101035 1_555
O9 Rh0 2.101035 1_565
O10 Rh0 2.101035 1_655
O11 Rh0 2.101035 1_556
