# generated using pymatgen
data_Y3Cd(Ir2O7)2
_symmetry_space_group_name_H-M   'P 1'
_cell_length_a   7.16429864
_cell_length_b   7.14821980
_cell_length_c   7.14822007
_cell_angle_alpha   60.79243928
_cell_angle_beta   60.84096531
_cell_angle_gamma   60.84096763
_symmetry_Int_Tables_number   1
_chemical_formula_structural   Y3Cd(Ir2O7)2
_chemical_formula_sum   'Y3 Cd1 Ir4 O14'
_cell_volume   263.66838406
_cell_formula_units_Z   1
loop_
 _symmetry_equiv_pos_site_id
 _symmetry_equiv_pos_as_xyz
  1  'x, y, z'
loop_
 _atom_site_type_symbol
 _atom_site_label
 _atom_site_symmetry_multiplicity
 _atom_site_fract_x
 _atom_site_fract_y
 _atom_site_fract_z
 _atom_site_occupancy
  Y  Y0  1  0.62500000  0.12500000  0.12500000  1
  Y  Y1  1  0.12500000  0.62500000  0.12500000  1
  Y  Y2  1  0.12500000  0.12500000  0.62500000  1
  Cd  Cd0  1  0.12500000  0.12500000  0.12500000  1
  Ir  Ir0  1  0.12500000  0.62500000  0.62500000  1
  Ir  Ir1  1  0.62500000  0.12500000  0.62500000  1
  Ir  Ir2  1  0.62500000  0.62500000  0.12500000  1
  Ir  Ir3  1  0.62500000  0.62500000  0.62500000  1
  O  O0  1  0.71287208  0.71038186  0.29005633  1
  O  O1  1  0.29482887  0.29557488  0.69782899  1
  O  O2  1  0.71287208  0.29005633  0.71038186  1
  O  O3  1  0.29482887  0.69782899  0.29557488  1
  O  O4  1  0.28931955  0.71237228  0.71237228  1
  O  O5  1  0.69969624  0.29508853  0.29508853  1
  O  O6  1  0.53712792  0.53961814  0.95994367  1
  O  O7  1  0.95517113  0.95442512  0.55217101  1
  O  O8  1  0.53712792  0.95994367  0.53961814  1
  O  O9  1  0.95517113  0.55217101  0.95442512  1
  O  O10  1  0.96068045  0.53762772  0.53762772  1
  O  O11  1  0.55030376  0.95491147  0.95491147  1
  O  O12  1  0.25185893  0.25017916  0.25017916  1
  O  O13  1  0.99814107  0.99982084  0.99982084  1
loop_
_geom_bond_atom_site_label_1
_geom_bond_atom_site_label_2
_geom_bond_distance
_geom_bond_site_symmetry_2
Cd0 O12 2.189471 1_555
Cd0 O13 2.189471 1_444
Cd0 O11 2.542298 1_544
Cd0 O5 2.542298 1_455
Cd0 O9 2.546110 1_454
Cd0 O3 2.546110 1_545
Cd0 O7 2.546111 1_445
Cd0 O1 2.546111 1_554
Ir0 O7 1.981251 1_455
Ir0 O1 1.981251 1_555
Ir0 O9 1.981251 1_455
Ir0 O3 1.981251 1_555
Ir0 O4 1.994911 1_555
Ir0 O10 1.994911 1_455
Ir1 O11 1.982935 1_545
Ir1 O5 1.982935 1_555
Ir1 O2 1.990452 1_555
Ir1 O8 1.990452 1_545
Ir1 O7 1.990473 1_545
Ir1 O1 1.990473 1_555
Ir2 O11 1.982934 1_554
Ir2 O5 1.982934 1_555
Ir2 O0 1.990452 1_555
Ir2 O6 1.990452 1_554
Ir2 O9 1.990473 1_554
Ir2 O3 1.990473 1_555
Ir3 O8 1.995180 1_555
Ir3 O2 1.995180 1_555
Ir3 O6 1.995180 1_555
Ir3 O0 1.995180 1_555
Ir3 O10 2.004277 1_555
Ir3 O4 2.004277 1_555
O0 Y1 2.456514 1_655
O0 Y0 2.462776 1_565
O1 Y2 2.433210 1_555
O2 Y2 2.456514 1_655
O2 Y0 2.462776 1_556
O3 Y1 2.433210 1_555
O4 Y2 2.451687 1_565
O4 Y1 2.451687 1_556
O5 Y0 2.440006 1_555
O6 Y1 2.456514 1_556
O6 Y0 2.462776 1_556
O7 Y2 2.433210 1_665
O8 Y2 2.456514 1_565
O8 Y0 2.462776 1_565
O9 Y1 2.433210 1_656
O10 Y2 2.451687 1_655
O10 Y1 2.451687 1_655
O11 Y0 2.440006 1_566
O12 Y0 2.206186 1_555
O12 Y1 2.210229 1_555
O12 Y2 2.210229 1_555
O13 Y0 2.206186 1_566
O13 Y1 2.210229 1_656
O13 Y2 2.210229 1_665
