# generated using pymatgen
data_Tl2Cr2O7
_symmetry_space_group_name_H-M   'P 1'
_cell_length_a   7.53523800
_cell_length_b   7.74458546
_cell_length_c   7.92364084
_cell_angle_alpha   108.10319573
_cell_angle_beta   91.47692726
_cell_angle_gamma   111.17845443
_symmetry_Int_Tables_number   1
_chemical_formula_structural   Tl2Cr2O7
_chemical_formula_sum   'Tl4 Cr4 O14'
_cell_volume   404.82708697
_cell_formula_units_Z   2
loop_
 _symmetry_equiv_pos_site_id
 _symmetry_equiv_pos_as_xyz
  1  'x, y, z'
loop_
 _atom_site_type_symbol
 _atom_site_label
 _atom_site_symmetry_multiplicity
 _atom_site_fract_x
 _atom_site_fract_y
 _atom_site_fract_z
 _atom_site_occupancy
  Tl  Tl0  1  0.30921700  0.57644200  0.73124300  1
  Tl  Tl1  1  0.69078300  0.42355800  0.26875700  1
  Tl  Tl2  1  0.87123900  0.99110500  0.74552500  1
  Tl  Tl3  1  0.12876100  0.00889500  0.25447500  1
  Cr  Cr0  1  0.80410100  0.48480500  0.75594800  1
  Cr  Cr1  1  0.19589900  0.51519500  0.24405200  1
  Cr  Cr2  1  0.41575200  0.12056600  0.78051000  1
  Cr  Cr3  1  0.58424800  0.87943400  0.21949000  1
  O  O0  1  0.47218100  0.93379700  0.67458600  1
  O  O1  1  0.52781900  0.06620300  0.32541400  1
  O  O2  1  0.32094700  0.08607100  0.95587800  1
  O  O3  1  0.67905300  0.91392900  0.04412200  1
  O  O4  1  0.90514500  0.35047000  0.62533800  1
  O  O5  1  0.09485500  0.64953000  0.37466200  1
  O  O6  1  0.63077100  0.34269000  0.86196100  1
  O  O7  1  0.36922900  0.65731000  0.13803900  1
  O  O8  1  0.30318100  0.42992200  0.36420500  1
  O  O9  1  0.69681900  0.57007800  0.63579500  1
  O  O10  1  0.73918800  0.85585800  0.35176100  1
  O  O11  1  0.26081200  0.14414200  0.64823900  1
  O  O12  1  0.02854300  0.32983200  0.09050400  1
  O  O13  1  0.97145700  0.67016800  0.90949600  1
loop_
_geom_bond_atom_site_label_1
_geom_bond_atom_site_label_2
_geom_bond_distance
_geom_bond_site_symmetry_2
Cr0 O13 1.630584 1_555
Cr0 O4 1.636144 1_555
Cr0 O9 1.653130 1_555
Cr0 O6 1.793121 1_555
Cr1 O12 1.630584 1_555
Cr1 O5 1.636144 1_555
Cr1 O8 1.653130 1_555
Cr1 O7 1.793121 1_555
Cr2 O2 1.629888 1_555
Cr2 O0 1.638834 1_545
Cr2 O11 1.644609 1_555
Cr2 O6 1.800882 1_555
Cr3 O3 1.629888 1_555
Cr3 O1 1.638834 1_565
Cr3 O10 1.644609 1_555
Cr3 O7 1.800882 1_555
O0 Tl0 2.777381 1_555
O1 Tl1 2.777381 1_555
O4 Tl0 2.853607 1_655
O5 Tl1 2.853607 1_455
O8 Tl0 2.766364 1_555
O9 Tl1 2.766364 1_555
