# generated using pymatgen
data_YAl3NiHg
_symmetry_space_group_name_H-M   'P 1'
_cell_length_a   8.04178849
_cell_length_b   8.04178794
_cell_length_c   6.62037429
_cell_angle_alpha   90.00000000
_cell_angle_beta   90.00000000
_cell_angle_gamma   150.54677188
_symmetry_Int_Tables_number   1
_chemical_formula_structural   YAl3NiHg
_chemical_formula_sum   'Y2 Al6 Ni2 Hg2'
_cell_volume   210.52293338
_cell_formula_units_Z   2
loop_
 _symmetry_equiv_pos_site_id
 _symmetry_equiv_pos_as_xyz
  1  'x, y, z'
loop_
 _atom_site_type_symbol
 _atom_site_label
 _atom_site_symmetry_multiplicity
 _atom_site_fract_x
 _atom_site_fract_y
 _atom_site_fract_z
 _atom_site_occupancy
  Y  Y0  1  0.62280854  0.37719146  0.25000000  1
  Y  Y1  1  0.37719146  0.62280854  0.75000000  1
  Al  Al0  1  0.19146212  0.80853788  0.94565430  1
  Al  Al1  1  0.80853788  0.19146212  0.05434570  1
  Al  Al2  1  0.80853788  0.19146212  0.44565430  1
  Al  Al3  1  0.19146212  0.80853788  0.55434570  1
  Al  Al4  1  0.57864614  0.42135386  0.75000000  1
  Al  Al5  1  0.42135386  0.57864614  0.25000000  1
  Ni  Ni0  1  0.72637260  0.27362740  0.75000000  1
  Ni  Ni1  1  0.27362740  0.72637260  0.25000000  1
  Hg  Hg0  1  0.00000000  0.00000000  0.50000000  1
  Hg  Hg1  1  0.00000000  0.00000000  0.00000000  1
loop_
_geom_bond_atom_site_label_1
_geom_bond_atom_site_label_2
_geom_bond_distance
_geom_bond_site_symmetry_2
Al0 Ni1 2.386062 1_556
Al0 Ni0 2.480280 1_455
Al0 Ni0 2.480280 1_565
Al0 Al3 2.590609 1_555
Al0 Al1 2.830799 1_456
Al0 Al1 2.830800 1_566
Al0 Al4 2.989397 1_565
Al0 Al4 2.989397 1_455
Al0 Hg1 2.999890 1_566
Al0 Y0 3.062563 1_566
Al0 Y0 3.062563 1_456
Al0 Y1 3.166148 1_555
Al1 Ni0 2.386062 1_554
Al1 Ni1 2.480280 1_655
Al1 Ni1 2.480280 1_545
Al1 Al2 2.590609 1_555
Al1 Al5 2.989397 1_545
Al1 Al5 2.989397 1_655
Al1 Hg1 2.999890 1_655
Al1 Y1 3.062563 1_544
Al1 Y1 3.062563 1_654
Al1 Y0 3.166148 1_555
Al2 Ni0 2.386062 1_555
Al2 Ni1 2.480280 1_655
Al2 Ni1 2.480280 1_545
Al2 Al3 2.830799 1_655
Al2 Al3 2.830800 1_545
Al2 Al5 2.989397 1_545
Al2 Al5 2.989397 1_655
Al2 Hg0 2.999890 1_655
Al2 Y1 3.062563 1_545
Al2 Y1 3.062563 1_655
Al2 Y0 3.166148 1_555
Al3 Ni1 2.386062 1_555
Al3 Ni0 2.480280 1_455
Al3 Ni0 2.480280 1_565
Al3 Al4 2.989397 1_565
Al3 Al4 2.989397 1_455
Al3 Hg0 2.999890 1_565
Al3 Y0 3.062563 1_565
Al3 Y0 3.062563 1_455
Al3 Y1 3.166148 1_555
Al4 Ni0 2.297919 1_555
Al4 Hg1 2.900866 1_666
Al4 Hg0 2.900866 1_665
Al4 Hg0 2.900866 1_555
Al4 Hg1 2.900866 1_556
Al4 Y1 3.133673 1_555
Al4 Y0 3.380717 1_555
Al4 Y0 3.380717 1_556
Al5 Ni1 2.297919 1_555
Al5 Hg1 2.900866 1_555
Al5 Hg0 2.900866 1_555
Al5 Hg0 2.900866 1_665
Al5 Hg1 2.900866 1_665
Al5 Y0 3.133673 1_555
Al5 Y1 3.380717 1_555
Al5 Y1 3.380717 1_554
Ni0 Y1 3.111736 1_545
Ni0 Y1 3.111736 1_655
Ni1 Y0 3.111736 1_565
Ni1 Y0 3.111736 1_455
Hg0 Y1 3.250803 1_555
Hg0 Y0 3.250803 1_445
Hg0 Y0 3.250803 1_555
Hg0 Y1 3.250803 1_445
Hg0 Hg1 3.310187 1_556
Hg0 Hg1 3.310187 1_555
Hg1 Y1 3.250803 1_554
Hg1 Y0 3.250803 1_445
Hg1 Y0 3.250803 1_555
Hg1 Y1 3.250803 1_444
