# generated using pymatgen
data_TcTe8Mo5
_symmetry_space_group_name_H-M   'P 1'
_cell_length_a   7.15695309
_cell_length_b   7.17338210
_cell_length_c   7.15999880
_cell_angle_alpha   92.47023412
_cell_angle_beta   92.61463900
_cell_angle_gamma   92.32506534
_symmetry_Int_Tables_number   1
_chemical_formula_structural   TcTe8Mo5
_chemical_formula_sum   'Tc1 Te8 Mo5'
_cell_volume   366.53393389
_cell_formula_units_Z   1
loop_
 _symmetry_equiv_pos_site_id
 _symmetry_equiv_pos_as_xyz
  1  'x, y, z'
loop_
 _atom_site_type_symbol
 _atom_site_label
 _atom_site_symmetry_multiplicity
 _atom_site_fract_x
 _atom_site_fract_y
 _atom_site_fract_z
 _atom_site_occupancy
  Tc  Tc0  1  0.91624523  0.75310223  0.04909073  1
  Te  Te0  1  0.76290031  0.38632850  0.11569969  1
  Te  Te1  1  0.61962920  0.88417436  0.23764960  1
  Te  Te2  1  0.28911006  0.28282931  0.28825486  1
  Te  Te3  1  0.11637700  0.76075642  0.37841668  1
  Te  Te4  1  0.88608345  0.23930324  0.61647055  1
  Te  Te5  1  0.71512983  0.71198011  0.71942295  1
  Te  Te6  1  0.38194519  0.11140055  0.75938619  1
  Te  Te7  1  0.23190395  0.61832128  0.88647040  1
  Mo  Mo0  1  0.25015440  0.95181500  0.08272346  1
  Mo  Mo1  1  0.95253663  0.08438130  0.24844361  1
  Mo  Mo2  1  0.04353358  0.91626700  0.74735676  1
  Mo  Mo3  1  0.75055264  0.04939362  0.91770801  1
  Mo  Mo4  1  0.08390254  0.24994907  0.95291151  1
loop_
_geom_bond_atom_site_label_1
_geom_bond_atom_site_label_2
_geom_bond_distance
_geom_bond_site_symmetry_2
Tc0 Te3 2.699805 1_655
Tc0 Te5 2.706649 1_554
Tc0 Te1 2.743598 1_555
Tc0 Te7 2.777493 1_654
Tc0 Te0 2.876762 1_555
Mo0 Mo4 2.670261 1_564
Mo0 Mo1 2.673378 1_465
Mo0 Te7 2.717111 1_554
Mo0 Tc0 2.728076 1_455
Mo0 Te2 2.736641 1_565
Mo0 Te3 2.757904 1_555
Mo0 Mo2 2.758684 1_554
Mo0 Te6 2.810675 1_564
Mo0 Te1 2.888112 1_555
Mo1 Mo4 2.660745 1_654
Mo1 Mo3 2.714307 1_554
Mo1 Tc0 2.715838 1_545
Mo1 Te1 2.727879 1_545
Mo1 Te2 2.744884 1_655
Mo1 Te0 2.781215 1_555
Mo1 Te3 2.817418 1_645
Mo1 Te4 2.882641 1_555
Mo2 Mo3 2.663055 1_465
Mo2 Tc0 2.679229 1_456
Mo2 Te5 2.713688 1_455
Mo2 Te6 2.743780 1_565
Mo2 Mo4 2.753264 1_565
Mo2 Te7 2.769909 1_555
Mo2 Te4 2.796513 1_465
Mo2 Te3 2.900541 1_555
Mo3 Tc0 2.661506 1_546
Mo3 Mo4 2.731403 1_655
Mo3 Te0 2.745005 1_556
Mo3 Te5 2.749429 1_545
Mo3 Te4 2.790288 1_555
Mo3 Te1 2.805369 1_546
Mo3 Te6 2.882411 1_555
Mo4 Te4 2.734476 1_455
Mo4 Te2 2.753002 1_556
Mo4 Te6 2.789399 1_555
Mo4 Te0 2.814610 1_456
Mo4 Te7 2.873708 1_555
