# generated using pymatgen
data_Sc2FeCo(BRh2)2
_symmetry_space_group_name_H-M   'P 1'
_cell_length_a   9.15275954
_cell_length_b   9.15275954
_cell_length_c   3.02414900
_cell_angle_alpha   90.00000000
_cell_angle_beta   90.00000000
_cell_angle_gamma   90.00000000
_symmetry_Int_Tables_number   1
_chemical_formula_structural   Sc2FeCo(BRh2)2
_chemical_formula_sum   'Sc4 Fe2 Co2 B4 Rh8'
_cell_volume   253.34205603
_cell_formula_units_Z   2
loop_
 _symmetry_equiv_pos_site_id
 _symmetry_equiv_pos_as_xyz
  1  'x, y, z'
loop_
 _atom_site_type_symbol
 _atom_site_label
 _atom_site_symmetry_multiplicity
 _atom_site_fract_x
 _atom_site_fract_y
 _atom_site_fract_z
 _atom_site_occupancy
  Sc  Sc0  1  0.67557346  0.17557346  0.00000000  1
  Sc  Sc1  1  0.32442654  0.82442654  0.00000000  1
  Sc  Sc2  1  0.17557346  0.32442654  0.00000000  1
  Sc  Sc3  1  0.82442654  0.67557346  0.00000000  1
  Fe  Fe0  1  0.50000000  0.50000000  0.00000000  1
  Fe  Fe1  1  0.00000000  0.00000000  0.00000000  1
  Co  Co0  1  0.50000000  0.00000000  0.50000000  1
  Co  Co1  1  0.00000000  0.50000000  0.50000000  1
  B  B0  1  0.11414381  0.61414381  0.00000000  1
  B  B1  1  0.88585619  0.38585619  0.00000000  1
  B  B2  1  0.61414381  0.88585619  0.00000000  1
  B  B3  1  0.38585619  0.11414381  0.00000000  1
  Rh  Rh0  1  0.56517857  0.72040170  0.50000000  1
  Rh  Rh1  1  0.43482143  0.27959830  0.50000000  1
  Rh  Rh2  1  0.06517857  0.77959830  0.50000000  1
  Rh  Rh3  1  0.93482143  0.22040170  0.50000000  1
  Rh  Rh4  1  0.27959830  0.56517857  0.50000000  1
  Rh  Rh5  1  0.72040170  0.43482143  0.50000000  1
  Rh  Rh6  1  0.22040170  0.06517857  0.50000000  1
  Rh  Rh7  1  0.77959830  0.93482143  0.50000000  1
loop_
_geom_bond_atom_site_label_1
_geom_bond_atom_site_label_2
_geom_bond_distance
_geom_bond_site_symmetry_2
Fe0 Rh4 2.590693 1_555
Fe0 Rh4 2.590693 1_554
Fe0 Rh0 2.590693 1_554
Fe0 Rh0 2.590693 1_555
Fe0 Rh1 2.590693 1_554
Fe0 Rh1 2.590693 1_555
Fe0 Rh5 2.590693 1_555
Fe0 Rh5 2.590693 1_554
Fe1 Rh2 2.590693 1_544
Fe1 Rh2 2.590693 1_545
Fe1 Rh6 2.590693 1_555
Fe1 Rh6 2.590693 1_554
Fe1 Rh7 2.590693 1_444
Fe1 Rh7 2.590693 1_445
Fe1 Rh3 2.590693 1_455
Fe1 Rh3 2.590693 1_454
Co0 Rh0 2.627710 1_545
Co0 Rh6 2.627710 1_555
Co0 Rh7 2.627710 1_545
Co0 Rh1 2.627710 1_555
Co0 Sc0 2.729679 1_555
Co0 Sc0 2.729679 1_556
Co0 Sc1 2.729679 1_545
Co0 Sc1 2.729679 1_546
Co1 Rh2 2.627710 1_555
Co1 Rh4 2.627710 1_555
Co1 Rh5 2.627710 1_455
Co1 Rh3 2.627710 1_455
Co1 Sc2 2.729679 1_555
Co1 Sc2 2.729679 1_556
Co1 Sc3 2.729679 1_455
Co1 Sc3 2.729679 1_456
B0 Co1 2.114071 1_554
B0 Co1 2.114071 1_555
B0 Rh4 2.186441 1_555
B0 Rh4 2.186441 1_554
B0 Rh2 2.186441 1_555
B0 Rh2 2.186441 1_554
B0 Sc2 2.710665 1_555
B0 Sc3 2.710665 1_455
B0 Sc1 2.721891 1_555
B1 Co1 2.114071 1_655
B1 Co1 2.114071 1_654
B1 Rh5 2.186441 1_555
B1 Rh5 2.186441 1_554
B1 Rh3 2.186441 1_554
B1 Rh3 2.186441 1_555
B1 Sc2 2.710665 1_655
B1 Sc3 2.710665 1_555
B1 Sc0 2.721891 1_555
B2 Co0 2.114071 1_565
B2 Co0 2.114071 1_564
B2 Rh0 2.186441 1_554
B2 Rh0 2.186441 1_555
B2 Rh7 2.186441 1_555
B2 Rh7 2.186441 1_554
B2 Sc1 2.710665 1_555
B2 Sc0 2.710665 1_565
B2 Sc3 2.721891 1_555
B3 Co0 2.114071 1_555
B3 Co0 2.114071 1_554
B3 Rh1 2.186441 1_554
B3 Rh1 2.186441 1_555
B3 Rh6 2.186441 1_555
B3 Rh6 2.186441 1_554
B3 Sc0 2.710665 1_555
B3 Sc1 2.710665 1_545
B3 Sc2 2.721891 1_555
Rh0 Sc1 2.836988 1_555
Rh0 Sc1 2.836988 1_556
Rh0 Sc3 2.843424 1_556
Rh0 Sc3 2.843424 1_555
Rh1 Sc0 2.836988 1_555
Rh1 Sc0 2.836988 1_556
Rh1 Sc2 2.843424 1_556
Rh1 Sc2 2.843424 1_555
Rh2 Sc3 2.836988 1_455
Rh2 Sc3 2.836988 1_456
Rh2 Sc1 2.843424 1_555
Rh2 Sc1 2.843424 1_556
Rh3 Sc2 2.836988 1_656
Rh3 Sc2 2.836988 1_655
Rh3 Sc0 2.843424 1_555
Rh3 Sc0 2.843424 1_556
Rh4 Sc2 2.836988 1_556
Rh4 Sc2 2.836988 1_555
Rh4 Sc1 2.843424 1_555
Rh4 Sc1 2.843424 1_556
Rh5 Sc3 2.836988 1_556
Rh5 Sc3 2.836988 1_555
Rh5 Sc0 2.843424 1_555
Rh5 Sc0 2.843424 1_556
Rh6 Sc1 2.836988 1_546
Rh6 Sc1 2.836988 1_545
Rh6 Sc2 2.843424 1_555
Rh6 Sc2 2.843424 1_556
Rh7 Sc0 2.836988 1_565
Rh7 Sc0 2.836988 1_566
Rh7 Sc3 2.843424 1_555
Rh7 Sc3 2.843424 1_556
