# generated using pymatgen
data_Na3As7
_symmetry_space_group_name_H-M   'P 1'
_cell_length_a   10.96294593
_cell_length_b   14.28311989
_cell_length_c   15.55052342
_cell_angle_alpha   64.02870087
_cell_angle_beta   90.00000000
_cell_angle_gamma   90.00000000
_symmetry_Int_Tables_number   1
_chemical_formula_structural   Na3As7
_chemical_formula_sum   'Na24 As56'
_cell_volume   2189.07978532
_cell_formula_units_Z   8
loop_
 _symmetry_equiv_pos_site_id
 _symmetry_equiv_pos_as_xyz
  1  'x, y, z'
loop_
 _atom_site_type_symbol
 _atom_site_label
 _atom_site_symmetry_multiplicity
 _atom_site_fract_x
 _atom_site_fract_y
 _atom_site_fract_z
 _atom_site_occupancy
  Na  Na0  1  0.29425016  0.43297313  0.71309672  1
  Na  Na1  1  0.79425016  0.06702687  0.28690328  1
  Na  Na2  1  0.70574984  0.56702687  0.28690328  1
  Na  Na3  1  0.20574984  0.93297313  0.71309672  1
  Na  Na4  1  0.80318552  0.65123632  0.79013673  1
  Na  Na5  1  0.30318552  0.84876368  0.20986327  1
  Na  Na6  1  0.19681448  0.34876368  0.20986327  1
  Na  Na7  1  0.69681448  0.15123632  0.79013673  1
  Na  Na8  1  0.44200527  0.63145143  0.06921528  1
  Na  Na9  1  0.94200527  0.86854857  0.93078472  1
  Na  Na10  1  0.55799473  0.36854857  0.93078472  1
  Na  Na11  1  0.05799473  0.13145143  0.06921528  1
  Na  Na12  1  0.43463849  0.30252143  0.56310731  1
  Na  Na13  1  0.93463849  0.19747857  0.43689269  1
  Na  Na14  1  0.56536151  0.69747857  0.43689269  1
  Na  Na15  1  0.06536151  0.80252143  0.56310731  1
  Na  Na16  1  0.45766481  0.97992706  0.89733285  1
  Na  Na17  1  0.95766481  0.52007294  0.10266715  1
  Na  Na18  1  0.54233519  0.02007294  0.10266715  1
  Na  Na19  1  0.04233519  0.47992706  0.89733285  1
  Na  Na20  1  0.53627482  0.87230979  0.60254085  1
  Na  Na21  1  0.03627482  0.62769021  0.39745915  1
  Na  Na22  1  0.46372518  0.12769021  0.39745915  1
  Na  Na23  1  0.96372518  0.37230979  0.60254085  1
  As  As0  1  0.66040389  0.68044689  0.62083862  1
  As  As1  1  0.21887091  0.45950192  0.51607038  1
  As  As2  1  0.28112909  0.95950192  0.51607038  1
  As  As3  1  0.78112909  0.54049808  0.48392962  1
  As  As4  1  0.34645506  0.20800485  0.94153001  1
  As  As5  1  0.84645506  0.29199515  0.05846999  1
  As  As6  1  0.65354494  0.79199515  0.05846999  1
  As  As7  1  0.15354494  0.70800485  0.94153001  1
  As  As8  1  0.07222670  0.20588634  0.80597397  1
  As  As9  1  0.57222670  0.29411366  0.19402603  1
  As  As10  1  0.92777330  0.79411366  0.19402603  1
  As  As11  1  0.42777330  0.70588634  0.80597397  1
  As  As12  1  0.25387706  0.14983670  0.74118294  1
  As  As13  1  0.75387706  0.35016330  0.25881706  1
  As  As14  1  0.74612294  0.85016330  0.25881706  1
  As  As15  1  0.24612294  0.64983670  0.74118294  1
  As  As16  1  0.71887091  0.04049808  0.48392962  1
  As  As17  1  0.65342463  0.47527138  0.10634461  1
  As  As18  1  0.84657537  0.97527138  0.10634461  1
  As  As19  1  0.34657537  0.52472862  0.89365539  1
  As  As20  1  0.15654413  0.29835278  0.88640165  1
  As  As21  1  0.65654413  0.20164722  0.11359835  1
  As  As22  1  0.84345587  0.70164722  0.11359835  1
  As  As23  1  0.34345587  0.79835278  0.88640165  1
  As  As24  1  0.42517279  0.21442472  0.79282744  1
  As  As25  1  0.92517279  0.28557528  0.20717256  1
  As  As26  1  0.57482721  0.78557528  0.20717256  1
  As  As27  1  0.07482721  0.71442472  0.79282744  1
  As  As28  1  0.27330944  0.02929016  0.01889740  1
  As  As29  1  0.77330944  0.47070984  0.98110260  1
  As  As30  1  0.72669056  0.97070984  0.98110260  1
  As  As31  1  0.22669056  0.52929016  0.01889740  1
  As  As32  1  0.91450504  0.48771391  0.71953418  1
  As  As33  1  0.41450504  0.01228609  0.28046582  1
  As  As34  1  0.08549496  0.51228609  0.28046582  1
  As  As35  1  0.58549496  0.98771391  0.71953418  1
  As  As36  1  0.15342463  0.02472862  0.89365539  1
  As  As37  1  0.16040389  0.81955311  0.37916138  1
  As  As38  1  0.33959611  0.31955311  0.37916138  1
  As  As39  1  0.83959611  0.18044689  0.62083862  1
  As  As40  1  0.64498556  0.42184272  0.59755955  1
  As  As41  1  0.14498556  0.07815728  0.40244045  1
  As  As42  1  0.35501444  0.57815728  0.40244045  1
  As  As43  1  0.85501444  0.92184272  0.59755955  1
  As  As44  1  0.73416993  0.38613280  0.75728384  1
  As  As45  1  0.23416993  0.11386720  0.24271616  1
  As  As46  1  0.26583007  0.61386720  0.24271616  1
  As  As47  1  0.76583007  0.88613280  0.75728384  1
  As  As48  1  0.56291417  0.51607623  0.68805595  1
  As  As49  1  0.06291417  0.98392377  0.31194405  1
  As  As50  1  0.43708583  0.48392377  0.31194405  1
  As  As51  1  0.93708583  0.01607623  0.68805595  1
  As  As52  1  0.85195462  0.63435787  0.57300205  1
  As  As53  1  0.35195462  0.86564213  0.42699795  1
  As  As54  1  0.14804538  0.36564213  0.42699795  1
  As  As55  1  0.64804538  0.13435787  0.57300205  1
loop_
_geom_bond_atom_site_label_1
_geom_bond_atom_site_label_2
_geom_bond_distance
_geom_bond_site_symmetry_2
As0 As48 2.365875 1_555
As0 As52 2.413596 1_555
As0 Na4 2.931417 1_555
As0 Na14 2.952554 1_555
As0 Na20 2.959671 1_555
As1 As42 2.366295 1_555
As1 As54 2.438247 1_555
As1 Na0 3.032644 1_555
As1 Na21 3.049475 1_555
As1 Na23 3.117118 1_455
As1 Na12 3.117898 1_555
As2 As41 2.366295 1_565
As2 As53 2.438247 1_555
As2 Na3 3.032644 1_555
As2 Na22 3.049475 1_565
As2 Na20 3.117118 1_555
As2 Na15 3.117898 1_555
As3 As40 2.366295 1_555
As3 As52 2.438247 1_555
As3 Na2 3.032644 1_555
As3 Na23 3.049475 1_555
As3 Na21 3.117118 1_655
As3 Na14 3.117898 1_555
As4 Na10 3.213829 1_555
As4 Na18 3.493494 1_556
As5 Na11 3.213829 1_655
As5 Na19 3.493494 1_654
As6 Na8 3.213829 1_555
As6 Na16 3.493494 1_554
As7 Na9 3.213829 1_455
As7 Na17 3.493494 1_456
As8 Na23 3.238334 1_455
As9 Na22 3.238334 1_555
As10 As22 2.368476 1_555
As10 As18 2.501331 1_555
As10 As14 2.515600 1_555
As10 Na21 3.238334 1_655
As11 As23 2.368476 1_555
As11 As19 2.501331 1_555
As11 As15 2.515600 1_555
As11 Na20 3.238334 1_555
As12 As24 2.381476 1_555
As12 As36 2.513331 1_555
As12 As8 2.515600 1_555
As12 Na12 3.325966 1_555
As12 Na3 3.353870 1_545
As12 Na16 3.408196 1_545
As13 As25 2.381476 1_555
As13 As17 2.513331 1_555
As13 As9 2.515600 1_555
As13 Na13 3.325966 1_555
As13 Na2 3.353870 1_555
As13 Na17 3.408196 1_555
As14 As26 2.381476 1_555
As14 As18 2.513331 1_555
As14 Na14 3.325966 1_555
As14 Na1 3.353870 1_565
As14 Na18 3.408196 1_565
As15 As27 2.381476 1_555
As15 As19 2.513331 1_555
As15 Na15 3.325966 1_555
As15 Na0 3.353870 1_555
As15 Na19 3.408196 1_555
As16 As43 2.366295 1_545
As16 As55 2.438247 1_555
As16 Na1 3.032644 1_555
As16 Na20 3.049475 1_545
As16 Na22 3.117118 1_555
As16 Na13 3.117898 1_555
As17 As29 2.373985 1_554
As17 As9 2.501331 1_555
As17 Na8 3.090888 1_555
As17 Na17 3.391959 1_555
As18 As30 2.373985 1_554
As18 Na11 3.090888 1_665
As18 Na18 3.391959 1_565
As19 As31 2.373985 1_556
As19 Na10 3.090888 1_555
As19 Na19 3.391959 1_555
As20 As8 2.368476 1_555
As20 As4 2.401233 1_555
As20 Na0 2.949684 1_555
As20 Na19 2.951042 1_555
As20 Na11 2.999385 1_556
As21 As9 2.368476 1_555
As21 As5 2.401233 1_555
As21 Na1 2.949684 1_555
As21 Na18 2.951042 1_555
As21 Na10 2.999385 1_554
As22 As6 2.401233 1_555
As22 Na2 2.949684 1_555
As22 Na17 2.951042 1_555
As22 Na9 2.999385 1_554
As23 As7 2.401233 1_555
As23 Na3 2.949684 1_555
As23 Na16 2.951042 1_555
As23 Na8 2.999385 1_556
As24 As4 2.432002 1_555
As24 Na16 3.036247 1_545
As24 Na7 3.117343 1_555
As24 Na0 3.154626 1_555
As24 Na12 3.227738 1_555
As25 As5 2.432002 1_555
As25 Na17 3.036247 1_555
As25 Na6 3.117343 1_655
As25 Na1 3.154626 1_555
As25 Na13 3.227738 1_555
As26 As6 2.432002 1_555
As26 Na18 3.036247 1_565
As26 Na5 3.117343 1_555
As26 Na2 3.154626 1_555
As26 Na14 3.227738 1_555
As27 As7 2.432002 1_555
As27 Na19 3.036247 1_555
As27 Na4 3.117343 1_455
As27 Na3 3.154626 1_555
As27 Na15 3.227738 1_555
As28 As36 2.373985 1_554
As28 As4 2.432390 1_554
As28 Na5 2.977930 1_545
As28 Na11 3.051779 1_555
As28 Na16 3.053327 1_544
As28 Na18 3.203516 1_555
As29 As5 2.432390 1_556
As29 Na4 2.977930 1_555
As29 Na10 3.051779 1_555
As29 Na17 3.053327 1_556
As29 Na19 3.203516 1_655
As30 As6 2.432390 1_556
As30 Na7 2.977930 1_565
As30 Na9 3.051779 1_555
As30 Na18 3.053327 1_566
As30 Na16 3.203516 1_555
As31 As7 2.432390 1_554
As31 Na6 2.977930 1_555
As31 Na8 3.051779 1_555
As31 Na19 3.053327 1_554
As31 Na17 3.203516 1_455
As32 As44 2.369024 1_555
As32 As52 2.422688 1_555
As32 Na23 2.990741 1_555
As32 Na19 3.058008 1_655
As32 Na4 3.224241 1_555
As33 As45 2.369024 1_555
As33 As53 2.422688 1_545
As33 Na22 2.990741 1_555
As33 Na18 3.058008 1_555
As33 Na5 3.224241 1_545
As34 As46 2.369024 1_555
As34 As54 2.422688 1_555
As34 Na21 2.990741 1_555
As34 Na17 3.058008 1_455
As34 Na6 3.224241 1_555
As35 As47 2.369024 1_555
As35 As55 2.422688 1_565
As35 Na20 2.990741 1_555
As35 Na16 3.058008 1_555
As35 Na7 3.224241 1_565
As36 As8 2.501331 1_555
As36 Na9 3.090888 1_445
As36 Na16 3.391959 1_545
As37 As49 2.365875 1_555
As37 As53 2.413596 1_555
As37 Na5 2.931417 1_555
As37 Na15 2.952554 1_555
As37 Na21 2.959671 1_555
As38 As50 2.365875 1_555
As38 As54 2.413596 1_555
As38 Na6 2.931417 1_555
As38 Na12 2.952554 1_555
As38 Na22 2.959671 1_555
As39 As51 2.365875 1_555
As39 As55 2.413596 1_555
As39 Na7 2.931417 1_555
As39 Na13 2.952554 1_555
As39 Na23 2.959671 1_555
As40 As48 2.502090 1_555
As40 As44 2.505149 1_555
As40 Na12 3.051073 1_555
As41 As49 2.502090 1_545
As41 As45 2.505149 1_555
As41 Na13 3.051073 1_455
As42 As50 2.502090 1_555
As42 As46 2.505149 1_555
As42 Na14 3.051073 1_555
As43 As51 2.502090 1_565
As43 As47 2.505149 1_555
As43 Na15 3.051073 1_655
As44 As48 2.525582 1_555
As44 Na7 3.191220 1_555
As44 Na10 3.237167 1_555
As45 As49 2.525582 1_545
As45 Na6 3.191220 1_555
As45 Na11 3.237167 1_555
As46 As50 2.525582 1_555
As46 Na5 3.191220 1_555
As46 Na8 3.237167 1_555
As47 As51 2.525582 1_565
As47 Na4 3.191220 1_555
As47 Na9 3.237167 1_555
As48 Na0 3.135410 1_555
As48 Na10 3.424066 1_555
As49 Na1 3.135410 1_465
As49 Na11 3.424066 1_565
As50 Na2 3.135410 1_555
As50 Na8 3.424066 1_555
As51 Na3 3.135410 1_645
As51 Na9 3.424066 1_545
As52 Na15 3.307974 1_655
As52 Na21 3.430988 1_655
As53 Na14 3.307974 1_555
As53 Na20 3.430988 1_555
As54 Na13 3.307974 1_455
As54 Na23 3.430988 1_455
As55 Na12 3.307974 1_555
As55 Na22 3.430988 1_555
