# generated using pymatgen
data_DyAlNi
_symmetry_space_group_name_H-M   'P 1'
_cell_length_a   6.90950996
_cell_length_b   6.90951050
_cell_length_c   3.87722454
_cell_angle_alpha   90.00000000
_cell_angle_beta   90.00000000
_cell_angle_gamma   120.00000718
_symmetry_Int_Tables_number   1
_chemical_formula_structural   DyAlNi
_chemical_formula_sum   'Dy3 Al3 Ni3'
_cell_volume   160.30463561
_cell_formula_units_Z   3
loop_
 _symmetry_equiv_pos_site_id
 _symmetry_equiv_pos_as_xyz
  1  'x, y, z'
loop_
 _atom_site_type_symbol
 _atom_site_label
 _atom_site_symmetry_multiplicity
 _atom_site_fract_x
 _atom_site_fract_y
 _atom_site_fract_z
 _atom_site_occupancy
  Dy  Dy0  1  -0.00000000  0.58226832  0.50000000  1
  Dy  Dy1  1  0.41773168  0.41773168  0.50000000  1
  Dy  Dy2  1  0.58226832  -0.00000000  0.50000000  1
  Al  Al0  1  0.76690253  0.76690253  0.00000000  1
  Al  Al1  1  0.23309747  0.00000000  0.00000000  1
  Al  Al2  1  0.00000000  0.23309747  -0.00000000  1
  Ni  Ni0  1  0.33333300  0.66666700  -0.00000000  1
  Ni  Ni1  1  0.66666700  0.33333300  -0.00000000  1
  Ni  Ni2  1  -0.00000000  -0.00000000  0.50000000  1
loop_
_geom_bond_atom_site_label_1
_geom_bond_atom_site_label_2
_geom_bond_distance
_geom_bond_site_symmetry_2
Dy0 Ni0 2.838973 1_556
Dy0 Ni0 2.838973 1_555
Dy0 Ni1 2.838974 1_456
Dy0 Ni1 2.838974 1_455
Dy0 Ni2 2.886321 1_565
Dy1 Ni1 2.838978 1_555
Dy1 Ni1 2.838978 1_556
Dy1 Ni0 2.838978 1_556
Dy1 Ni0 2.838978 1_555
Dy1 Ni2 2.886321 1_555
Dy2 Ni1 2.838973 1_556
Dy2 Ni1 2.838973 1_555
Dy2 Ni0 2.838974 1_546
Dy2 Ni0 2.838974 1_545
Dy2 Ni2 2.886321 1_655
Al0 Ni2 2.520360 1_664
Al0 Ni2 2.520360 1_665
Al0 Ni0 2.716506 1_555
Al0 Ni1 2.716507 1_555
Al0 Al1 2.789622 1_665
Al0 Al2 2.789622 1_665
Al0 Dy1 3.094972 1_555
Al0 Dy1 3.094972 1_554
Al0 Dy0 3.167710 1_654
Al0 Dy0 3.167710 1_655
Al0 Dy2 3.167710 1_565
Al0 Dy2 3.167710 1_564
Al1 Ni2 2.520360 1_554
Al1 Ni2 2.520360 1_555
Al1 Ni0 2.716500 1_545
Al1 Ni1 2.716504 1_555
Al1 Al2 2.789623 1_555
Al1 Dy2 3.094972 1_554
Al1 Dy2 3.094972 1_555
Al1 Dy0 3.167710 1_544
Al1 Dy0 3.167710 1_545
Al1 Dy1 3.167710 1_555
Al1 Dy1 3.167710 1_554
Al2 Ni2 2.520360 1_554
Al2 Ni2 2.520360 1_555
Al2 Ni1 2.716500 1_455
Al2 Ni0 2.716504 1_555
Al2 Dy0 3.094972 1_554
Al2 Dy0 3.094972 1_555
Al2 Dy2 3.167710 1_455
Al2 Dy2 3.167710 1_454
Al2 Dy1 3.167710 1_555
Al2 Dy1 3.167710 1_554
