# generated using pymatgen
data_Lu(NbRe6)4
_symmetry_space_group_name_H-M   'P 1'
_cell_length_a   8.40114079
_cell_length_b   8.40112930
_cell_length_c   8.40114571
_cell_angle_alpha   109.47125794
_cell_angle_beta   109.47147468
_cell_angle_gamma   109.47109946
_symmetry_Int_Tables_number   1
_chemical_formula_structural   Lu(NbRe6)4
_chemical_formula_sum   'Lu1 Nb4 Re24'
_cell_volume   456.44835497
_cell_formula_units_Z   1
loop_
 _symmetry_equiv_pos_site_id
 _symmetry_equiv_pos_as_xyz
  1  'x, y, z'
loop_
 _atom_site_type_symbol
 _atom_site_label
 _atom_site_symmetry_multiplicity
 _atom_site_fract_x
 _atom_site_fract_y
 _atom_site_fract_z
 _atom_site_occupancy
  Lu  Lu0  1  0.00000000  0.00000000  0.99999800  1
  Nb  Nb0  1  0.37034126  0.37034326  0.37034226  1
  Nb  Nb1  1  0.00000200  0.62966374  0.00000100  1
  Nb  Nb2  1  0.62966074  0.99999900  0.99999900  1
  Nb  Nb3  1  0.99999800  0.99999800  0.62965674  1
  Re  Re0  1  0.99999900  0.39974196  0.68165525  1
  Re  Re1  1  0.28191129  0.60025804  0.60025704  1
  Re  Re2  1  0.71809071  0.31834575  0.31834775  1
  Re  Re3  1  0.31834875  0.71808871  0.31834475  1
  Re  Re4  1  0.68165125  0.99999800  0.39974196  1
  Re  Re5  1  0.99999700  0.68165225  0.39973996  1
  Re  Re6  1  0.60025804  0.60025804  0.28190929  1
  Re  Re7  1  0.80470626  0.80470926  0.18245898  1
  Re  Re8  1  0.37774972  0.19529174  0.00000200  1
  Re  Re9  1  0.19528974  0.37774672  0.00000100  1
  Re  Re10  1  0.62225328  0.81754202  0.62225128  1
  Re  Re11  1  0.37774672  0.99999700  0.19528774  1
  Re  Re12  1  0.00000100  0.37774772  0.19528874  1
  Re  Re13  1  0.81754102  0.62224928  0.62225028  1
  Re  Re14  1  0.18245798  0.80470926  0.80471126  1
  Re  Re15  1  0.80470826  0.18245898  0.80470926  1
  Re  Re16  1  0.19528974  0.00000000  0.37774672  1
  Re  Re17  1  0.99999600  0.19529074  0.37774572  1
  Re  Re18  1  0.62225528  0.62225328  0.81754602  1
  Re  Re19  1  0.39974396  0.99999900  0.68165425  1
  Re  Re20  1  0.60025904  0.28191129  0.60025804  1
  Re  Re21  1  0.68165525  0.39974596  0.00000300  1
  Re  Re22  1  0.39974396  0.68165325  0.00000100  1
  Re  Re23  1  0.31834475  0.31834675  0.71809071  1
loop_
_geom_bond_atom_site_label_1
_geom_bond_atom_site_label_2
_geom_bond_distance
_geom_bond_site_symmetry_2
Lu0 Re9 3.048230 1_556
Lu0 Re10 3.048232 1_445
Lu0 Re18 3.048240 1_445
Lu0 Re14 3.048243 1_545
Lu0 Re12 3.048244 1_556
Lu0 Re11 3.048250 1_546
Lu0 Re16 3.048253 1_556
Lu0 Re8 3.048254 1_556
Lu0 Re13 3.048256 1_445
Lu0 Re15 3.048257 1_455
Lu0 Re17 3.048271 1_456
Lu0 Re7 3.048300 1_446
Lu0 Nb1 3.111257 1_546
Lu0 Nb2 3.111272 1_445
Lu0 Nb3 3.111280 1_445
Lu0 Nb0 3.111294 1_556
Nb0 Re1 2.727582 1_555
Nb0 Re20 2.727608 1_555
Nb0 Re6 2.727615 1_555
Nb0 Re12 2.997719 1_555
Nb0 Re9 2.997721 1_555
Nb0 Re8 2.997742 1_555
Nb0 Re16 2.997745 1_555
Nb0 Re17 2.997760 1_455
Nb0 Re11 2.997771 1_545
Nb0 Re10 3.079825 1_555
Nb0 Re13 3.079828 1_555
Nb0 Re18 3.079856 1_555
Nb0 Re3 3.238955 1_555
Nb0 Re23 3.238998 1_555
Nb0 Re2 3.239000 1_555
Nb1 Re3 2.727595 1_555
Nb1 Re0 2.727596 1_454
Nb1 Re21 2.727617 1_455
Nb1 Re11 2.997692 1_555
Nb1 Re18 2.997705 1_454
Nb1 Re16 2.997705 1_565
Nb1 Re14 2.997711 1_554
Nb1 Re13 2.997727 1_454
Nb1 Re7 2.997760 1_455
Nb1 Re15 3.079865 1_454
Nb1 Re12 3.079866 1_555
Nb1 Re9 3.079870 1_555
Nb1 Re5 3.238977 1_455
Nb1 Re20 3.238978 1_454
Nb1 Re22 3.238983 1_555
Nb2 Re19 2.727583 1_555
Nb2 Re22 2.727606 1_556
Nb2 Re2 2.727607 1_566
Nb2 Re17 2.997697 1_566
Nb2 Re7 2.997717 1_556
Nb2 Re18 2.997718 1_555
Nb2 Re10 2.997734 1_555
Nb2 Re12 2.997736 1_666
Nb2 Re15 2.997737 1_565
Nb2 Re14 3.079855 1_555
Nb2 Re8 3.079861 1_566
Nb2 Re11 3.079864 1_556
Nb2 Re1 3.238963 1_555
Nb2 Re4 3.238991 1_556
Nb2 Re21 3.238998 1_566
Nb3 Re5 2.727587 1_555
Nb3 Re4 2.727588 1_555
Nb3 Re23 2.727598 1_665
Nb3 Re10 2.997722 1_555
Nb3 Re13 2.997745 1_555
Nb3 Re9 2.997747 1_666
Nb3 Re14 2.997748 1_655
Nb3 Re15 2.997758 1_565
Nb3 Re8 2.997759 1_666
Nb3 Re7 3.079816 1_555
Nb3 Re16 3.079856 1_665
Nb3 Re17 3.079863 1_565
Nb3 Re6 3.238951 1_555
Nb3 Re0 3.238974 1_565
Nb3 Re19 3.238995 1_655
Re0 Re17 2.558380 1_555
Re0 Re15 2.735858 1_555
Re0 Re9 2.735870 1_656
Re0 Re2 2.846458 1_555
Re0 Re1 2.846502 1_655
Re0 Re13 2.848724 1_555
Re0 Re14 2.848736 1_655
Re0 Re20 2.920101 1_555
Re0 Re23 2.920112 1_655
Re0 Re22 2.920126 1_656
Re0 Re4 2.920130 1_545
Re1 Re14 2.558376 1_555
Re1 Re10 2.735884 1_555
Re1 Re18 2.735896 1_555
Re1 Re5 2.846481 1_455
Re1 Re12 2.848734 1_555
Re1 Re17 2.848740 1_455
Re1 Re19 2.920105 1_555
Re1 Re23 2.920130 1_555
Re1 Re22 2.920134 1_556
Re1 Re3 2.920138 1_555
Re2 Re8 2.735869 1_555
Re2 Re5 2.846466 1_555
Re2 Re4 2.920120 1_545
Re2 Re20 2.920122 1_555
Re2 Re21 2.920131 1_555
Re2 Re6 2.920142 1_555
Re3 Re9 2.735857 1_555
Re3 Re4 2.846436 1_555
Re3 Re6 2.920105 1_555
Re3 Re5 2.920166 1_455
Re4 Re7 2.735853 1_555
Re4 Re6 2.920104 1_555
Re5 Re7 2.735858 1_555
Re5 Re6 2.920098 1_555
Re6 Re7 2.558333 1_555
Re6 Re8 2.848719 1_555
Re6 Re9 2.848731 1_555
Re8 Re9 2.503132 1_555
Re10 Re15 2.503144 1_565
Re10 Re3 2.558363 1_555
Re10 Re13 2.679184 1_555
Re10 Re18 2.679208 1_555
Re10 Re6 2.735876 1_555
Re10 Re4 2.848722 1_555
Re10 Re19 2.848733 1_555
Re11 Re16 2.503147 1_565
Re11 Re4 2.558359 1_555
Re11 Re14 2.679154 1_554
Re11 Re8 2.679187 1_565
Re11 Re22 2.735859 1_555
Re11 Re2 2.735889 1_565
Re11 Re3 2.848721 1_555
Re11 Re20 2.848754 1_565
Re12 Re17 2.503128 1_455
Re12 Re5 2.558378 1_455
Re12 Re9 2.679165 1_555
Re12 Re15 2.679175 1_454
Re12 Re21 2.735871 1_455
Re12 Re3 2.735880 1_555
Re12 Re2 2.848754 1_455
Re13 Re14 2.503144 1_655
Re13 Re2 2.558352 1_555
Re13 Re18 2.679200 1_555
Re13 Re20 2.735858 1_555
Re13 Re6 2.735879 1_555
Re13 Re5 2.848742 1_555
Re14 Re8 2.679197 1_566
Re14 Re22 2.735872 1_556
Re14 Re19 2.735890 1_555
Re14 Re5 2.848763 1_455
Re15 Re20 2.558341 1_555
Re15 Re9 2.679190 1_656
Re15 Re21 2.735879 1_556
Re15 Re19 2.848717 1_545
Re15 Re4 2.848734 1_545
Re16 Re19 2.558389 1_545
Re16 Re7 2.679203 1_445
Re16 Re17 2.679212 1_455
Re16 Re5 2.735885 1_445
Re16 Re23 2.735890 1_555
Re16 Re20 2.848745 1_555
Re16 Re3 2.848753 1_545
Re17 Re7 2.679190 1_545
Re17 Re4 2.735882 1_545
Re17 Re23 2.735897 1_655
Re17 Re2 2.848683 1_555
Re18 Re7 2.503116 1_556
Re18 Re23 2.558393 1_555
Re18 Re20 2.735879 1_555
Re18 Re21 2.848712 1_556
Re18 Re22 2.848737 1_556
Re19 Re8 2.735889 1_566
Re19 Re3 2.846484 1_555
Re19 Re20 2.846485 1_565
Re19 Re5 2.920143 1_455
Re19 Re21 2.920144 1_566
Re19 Re23 2.920145 1_565
Re20 Re4 2.846465 1_545
Re20 Re21 2.920139 1_556
Re20 Re23 2.920160 1_555
Re21 Re8 2.558375 1_555
Re21 Re6 2.846443 1_555
Re21 Re23 2.846479 1_554
Re21 Re7 2.848713 1_555
Re21 Re5 2.920073 1_555
Re22 Re9 2.558385 1_555
Re22 Re6 2.846442 1_555
Re22 Re23 2.846452 1_554
Re22 Re7 2.848696 1_555
Re22 Re4 2.920101 1_555
Re22 Re3 2.920103 1_555
Re23 Re9 2.848730 1_556
Re23 Re8 2.848732 1_556
