# generated using pymatgen
data_Ti2Zn(SnIr)2
_symmetry_space_group_name_H-M   'P 1'
_cell_length_a   7.61000061
_cell_length_b   7.60999973
_cell_length_c   7.61000077
_cell_angle_alpha   33.87805925
_cell_angle_beta   33.87807070
_cell_angle_gamma   33.87806134
_symmetry_Int_Tables_number   1
_chemical_formula_structural   Ti2Zn(SnIr)2
_chemical_formula_sum   'Ti2 Zn1 Sn2 Ir2'
_cell_volume   122.04036516
_cell_formula_units_Z   1
loop_
 _symmetry_equiv_pos_site_id
 _symmetry_equiv_pos_as_xyz
  1  'x, y, z'
loop_
 _atom_site_type_symbol
 _atom_site_label
 _atom_site_symmetry_multiplicity
 _atom_site_fract_x
 _atom_site_fract_y
 _atom_site_fract_z
 _atom_site_occupancy
  Ti  Ti0  1  0.75479270  0.75479270  0.75479270  1
  Ti  Ti1  1  0.24651446  0.24651446  0.24651446  1
  Zn  Zn0  1  0.37650658  0.37650658  0.37650658  1
  Sn  Sn0  1  0.99289958  0.99289958  0.99289958  1
  Sn  Sn1  1  0.50423385  0.50423385  0.50423385  1
  Ir  Ir0  1  0.12229387  0.12229387  0.12229387  1
  Ir  Ir1  1  0.62775997  0.62775997  0.62775997  1
loop_
_geom_bond_atom_site_label_1
_geom_bond_atom_site_label_2
_geom_bond_distance
_geom_bond_site_symmetry_2
Ti0 Zn0 2.736545 1_565
Ti0 Zn0 2.736546 1_556
Ti0 Zn0 2.736546 1_655
Ti1 Zn0 2.794731 1_555
Sn0 Zn0 2.779007 1_656
Sn0 Zn0 2.779007 1_665
Sn0 Zn0 2.779008 1_566
Sn0 Ti1 3.080918 1_656
Sn0 Ti1 3.080919 1_566
Sn0 Ti1 3.080919 1_665
Sn1 Zn0 2.746039 1_555
Sn1 Ti1 3.032715 1_565
Sn1 Ti1 3.032717 1_655
Sn1 Ti1 3.032717 1_556
Sn1 Ti0 3.117946 1_545
Sn1 Ti0 3.117947 1_455
Sn1 Ti0 3.117947 1_554
Ir0 Ti0 2.663506 1_454
Ir0 Ti0 2.663507 1_445
Ir0 Ti0 2.663507 1_544
Ir0 Ti1 2.670648 1_555
Ir0 Sn1 2.765265 1_545
Ir0 Sn1 2.765265 1_554
Ir0 Sn1 2.765266 1_455
Ir0 Sn0 2.781878 1_444
Ir0 Zn0 3.073787 1_545
Ir0 Zn0 3.073788 1_455
Ir0 Zn0 3.073788 1_554
Ir1 Sn0 2.649953 1_545
Ir1 Sn0 2.649954 1_554
Ir1 Sn0 2.649954 1_455
Ir1 Sn1 2.655717 1_555
Ir1 Ti0 2.731106 1_555
Ir1 Ti1 2.759657 1_565
Ir1 Ti1 2.759658 1_556
Ir1 Ti1 2.759658 1_655
Ir1 Zn0 3.109447 1_565
Ir1 Zn0 3.109448 1_655
Ir1 Zn0 3.109448 1_556
