# generated using pymatgen
data_Zn4SbRhO8
_symmetry_space_group_name_H-M   'P 1'
_cell_length_a   6.02242188
_cell_length_b   10.33149250
_cell_length_c   6.12567145
_cell_angle_alpha   74.07021985
_cell_angle_beta   60.55657383
_cell_angle_gamma   89.99937210
_symmetry_Int_Tables_number   1
_chemical_formula_structural   Zn4SbRhO8
_chemical_formula_sum   'Zn8 Sb2 Rh2 O16'
_cell_volume   315.00034894
_cell_formula_units_Z   2
loop_
 _symmetry_equiv_pos_site_id
 _symmetry_equiv_pos_as_xyz
  1  'x, y, z'
loop_
 _atom_site_type_symbol
 _atom_site_label
 _atom_site_symmetry_multiplicity
 _atom_site_fract_x
 _atom_site_fract_y
 _atom_site_fract_z
 _atom_site_occupancy
  Zn  Zn0  1  0.70571857  0.57175465  0.09246305  1
  Zn  Zn1  1  0.79444149  0.92825328  0.90759779  1
  Zn  Zn2  1  0.74974367  0.25006620  0.49998481  1
  Zn  Zn3  1  0.98731437  0.49999896  0.50001940  1
  Zn  Zn4  1  0.20187044  0.07174644  0.09240798  1
  Zn  Zn5  1  0.29796024  0.42824472  0.90758607  1
  Zn  Zn6  1  0.51268083  0.99999601  0.50000333  1
  Zn  Zn7  1  0.75024309  0.75009249  0.50003461  1
  Sb  Sb0  1  0.74988587  0.24998962  0.00000160  1
  Sb  Sb1  1  0.25010092  0.74999515  0.99999059  1
  Rh  Rh0  1  0.24984781  0.24997442  0.49999515  1
  Rh  Rh1  1  0.25015979  0.74998931  0.49999839  1
  O  O0  1  0.39737779  0.13117653  0.70892950  1
  O  O1  1  0.89368259  0.63118396  0.70897948  1
  O  O2  1  0.10234467  0.36879758  0.29103916  1
  O  O3  1  0.60661175  0.86879242  0.29105670  1
  O  O4  1  0.39632163  0.13718642  0.24274875  1
  O  O5  1  0.90283055  0.63509052  0.23380169  1
  O  O6  1  0.86338303  0.13509324  0.23374695  1
  O  O7  1  0.36093169  0.63718898  0.24277632  1
  O  O8  1  0.61635578  0.36412861  0.24437167  1
  O  O9  1  0.13926008  0.86413844  0.24439479  1
  O  O10  1  0.63642484  0.36493079  0.76623424  1
  O  O11  1  0.13926378  0.86277054  0.75722832  1
  O  O12  1  0.88341569  0.13585490  0.75555316  1
  O  O13  1  0.36101128  0.63586260  0.75558343  1
  O  O14  1  0.10353090  0.36277016  0.75720261  1
  O  O15  1  0.59729083  0.86493107  0.76627046  1
loop_
_geom_bond_atom_site_label_1
_geom_bond_atom_site_label_2
_geom_bond_distance
_geom_bond_site_symmetry_2
O0 Zn4 1.941788 1_556
O0 Zn6 2.008807 1_545
O0 Zn2 2.029045 1_555
O0 Rh0 2.046835 1_555
O1 Zn0 1.941814 1_556
O1 Zn3 2.008987 1_555
O1 Zn7 2.029175 1_555
O1 Rh1 2.046946 1_655
O2 Zn5 1.941665 1_554
O2 Zn3 2.009154 1_455
O2 Zn2 2.029380 1_455
O2 Rh0 2.046917 1_555
O3 Zn1 1.941692 1_554
O3 Zn6 2.009036 1_555
O3 Zn7 2.029231 1_555
O3 Rh1 2.046837 1_555
O4 Sb0 2.009795 1_555
O4 Zn4 2.019581 1_555
O4 Rh0 2.064093 1_555
O4 Zn6 2.200672 1_545
O5 Zn0 1.976967 1_555
O5 Sb1 1.989091 1_654
O5 Zn3 2.105369 1_555
O5 Zn7 2.122748 1_555
O6 Zn4 1.977199 1_655
O6 Sb0 1.988889 1_555
O6 Zn6 2.105458 1_545
O6 Zn2 2.122542 1_555
O7 Sb1 2.010005 1_554
O7 Zn0 2.019523 1_555
O7 Rh1 2.064078 1_555
O7 Zn3 2.200721 1_455
O8 Sb0 2.015820 1_555
O8 Zn0 2.041795 1_555
O8 Rh0 2.074433 1_555
O8 Zn2 2.170138 1_555
O9 Sb1 2.016010 1_554
O9 Zn4 2.041642 1_565
O9 Rh1 2.074350 1_555
O9 Zn7 2.170194 1_455
O10 Zn5 1.976936 1_555
O10 Sb0 1.989020 1_556
O10 Zn3 2.106000 1_555
O10 Zn2 2.121841 1_555
O11 Sb1 2.009805 1_555
O11 Zn1 2.019939 1_455
O11 Rh1 2.063923 1_555
O11 Zn6 2.200072 1_555
O12 Sb0 2.016125 1_556
O12 Zn1 2.041503 1_545
O12 Rh0 2.073957 1_655
O12 Zn2 2.171702 1_555
O13 Sb1 2.015921 1_555
O13 Zn5 2.041641 1_555
O13 Rh1 2.073979 1_555
O13 Zn7 2.171764 1_555
O14 Sb0 2.010064 1_456
O14 Zn5 2.019857 1_555
O14 Rh0 2.063937 1_555
O14 Zn3 2.199970 1_455
O15 Zn1 1.977037 1_555
O15 Sb1 1.988861 1_555
O15 Zn6 2.105934 1_555
O15 Zn7 2.121583 1_555
