# generated using pymatgen
data_Ti5Al16PRh7
_symmetry_space_group_name_H-M   'P 1'
_cell_length_a   8.53880741
_cell_length_b   8.53880734
_cell_length_c   8.44144330
_cell_angle_alpha   60.37647758
_cell_angle_beta   60.37647785
_cell_angle_gamma   59.24704136
_symmetry_Int_Tables_number   1
_chemical_formula_structural   Ti5Al16PRh7
_chemical_formula_sum   'Ti5 Al16 P1 Rh7'
_cell_volume   435.09536568
_cell_formula_units_Z   1
loop_
 _symmetry_equiv_pos_site_id
 _symmetry_equiv_pos_as_xyz
  1  'x, y, z'
loop_
 _atom_site_type_symbol
 _atom_site_label
 _atom_site_symmetry_multiplicity
 _atom_site_fract_x
 _atom_site_fract_y
 _atom_site_fract_z
 _atom_site_occupancy
  Ti  Ti0  1  0.29601091  0.70083596  0.29916404  1
  Ti  Ti1  1  0.70083596  0.29601091  0.29916404  1
  Ti  Ti2  1  0.31868877  0.31868877  0.68131123  1
  Ti  Ti3  1  0.70083596  0.29601091  0.70398909  1
  Ti  Ti4  1  0.29601091  0.70083596  0.70398909  1
  Al  Al0  1  0.88551978  0.88552078  0.35010225  1
  Al  Al1  1  0.88153499  0.37525936  0.87160383  1
  Al  Al2  1  0.37525836  0.88153499  0.87160383  1
  Al  Al3  1  0.88551978  0.88551978  0.87885718  1
  Al  Al4  1  0.12839517  0.12839617  0.62474064  1
  Al  Al5  1  0.12114282  0.64989775  0.11448022  1
  Al  Al6  1  0.64989775  0.12114282  0.11448022  1
  Al  Al7  1  0.12839617  0.12839617  0.11846501  1
  Al  Al8  1  0.66190020  0.66190020  0.05824718  1
  Al  Al9  1  0.67241512  0.02417029  0.65170630  1
  Al  Al10  1  0.02417029  0.67241512  0.65170630  1
  Al  Al11  1  0.66190020  0.66190020  0.61795141  1
  Al  Al12  1  0.34829370  0.34829370  0.97582971  1
  Al  Al13  1  0.38204859  0.94175282  0.33809980  1
  Al  Al14  1  0.94175282  0.38204859  0.33809980  1
  Al  Al15  1  0.34829370  0.34829370  0.32758488  1
  P  P0  1  0.52554573  0.52554573  0.47445427  1
  Rh  Rh0  1  0.01257778  0.01257778  0.98742222  1
  Rh  Rh1  1  0.01130935  0.01130935  0.48869065  1
  Rh  Rh2  1  0.50436402  0.01085289  0.49563598  1
  Rh  Rh3  1  0.01085289  0.50436402  0.49563598  1
  Rh  Rh4  1  0.51130935  0.51130935  0.98869065  1
  Rh  Rh5  1  0.01085289  0.50436402  0.98914711  1
  Rh  Rh6  1  0.50436402  0.01085289  0.98914711  1
loop_
_geom_bond_atom_site_label_1
_geom_bond_atom_site_label_2
_geom_bond_distance
_geom_bond_site_symmetry_2
Al0 Rh0 2.522613 1_664
Al0 Rh2 2.651800 1_565
Al0 Rh3 2.651807 1_655
Al0 Rh1 2.709291 1_665
Al1 Rh0 2.518524 1_655
Al1 Rh4 2.571112 1_555
Al1 Rh5 2.613146 1_655
Al1 Rh3 2.613160 1_655
Al2 Rh0 2.518517 1_565
Al2 Rh4 2.571112 1_555
Al2 Rh6 2.613153 1_565
Al2 Rh2 2.613160 1_565
Al3 Rh0 2.522620 1_665
Al3 Rh5 2.651800 1_655
Al3 Rh6 2.651800 1_565
Al3 Rh1 2.709291 1_665
Al4 Rh0 2.518524 1_555
Al4 Rh1 2.571091 1_555
Al4 Rh3 2.613161 1_555
Al4 Rh2 2.613168 1_555
Al5 Rh0 2.522613 1_564
Al5 Rh3 2.651800 1_555
Al5 Rh5 2.651807 1_554
Al5 Rh4 2.709291 1_554
Al6 Rh0 2.522613 1_654
Al6 Rh2 2.651800 1_555
Al6 Rh6 2.651807 1_554
Al6 Rh4 2.709291 1_554
Al7 Rh0 2.518510 1_554
Al7 Rh1 2.571112 1_555
Al7 Rh5 2.613160 1_554
Al7 Rh6 2.613161 1_554
Al8 Rh6 2.446723 1_564
Al8 Rh5 2.446723 1_654
Al8 Rh4 2.614459 1_554
Al8 P0 2.890230 1_555
Al9 Rh2 2.447784 1_555
Al9 Rh6 2.447799 1_555
Al9 Rh1 2.483392 1_655
Al10 Rh3 2.447784 1_555
Al10 Rh5 2.447799 1_555
Al10 Rh1 2.483392 1_565
Al11 Rh2 2.446722 1_565
Al11 Rh3 2.446722 1_655
Al11 Rh4 2.614465 1_555
Al11 P0 2.890224 1_555
Al12 Rh6 2.447799 1_555
Al12 Rh5 2.447799 1_555
Al12 Rh4 2.483377 1_555
Al13 Rh2 2.446716 1_565
Al13 Rh6 2.446723 1_564
Al13 Rh1 2.614466 1_565
Al13 P0 2.890230 1_555
Al14 Rh3 2.446716 1_655
Al14 Rh5 2.446723 1_654
Al14 Rh1 2.614466 1_655
Al14 P0 2.890231 1_555
Al15 Rh2 2.447795 1_555
Al15 Rh3 2.447795 1_555
Al15 Rh4 2.483387 1_554
P0 Ti3 2.438995 1_555
P0 Ti4 2.438995 1_555
P0 Ti1 2.438995 1_555
P0 Ti0 2.438995 1_555
P0 Ti2 2.526104 1_555
Rh1 Ti4 3.042161 1_545
Rh1 Ti3 3.042161 1_455
Rh1 Ti0 3.042161 1_545
Rh1 Ti1 3.042161 1_455
Rh4 Ti1 3.042161 1_556
Rh4 Ti0 3.042161 1_556
Rh4 Ti3 3.042161 1_555
Rh4 Ti4 3.042161 1_555
