# generated using pymatgen
data_KBH4
_symmetry_space_group_name_H-M   'P 1'
_cell_length_a   4.66336731
_cell_length_b   9.29766964
_cell_length_c   8.03491513
_cell_angle_alpha   30.20590341
_cell_angle_beta   54.58927316
_cell_angle_gamma   59.94711702
_symmetry_Int_Tables_number   1
_chemical_formula_structural   KBH4
_chemical_formula_sum   'K2 B2 H8'
_cell_volume   142.85156960
_cell_formula_units_Z   2
loop_
 _symmetry_equiv_pos_site_id
 _symmetry_equiv_pos_as_xyz
  1  'x, y, z'
loop_
 _atom_site_type_symbol
 _atom_site_label
 _atom_site_symmetry_multiplicity
 _atom_site_fract_x
 _atom_site_fract_y
 _atom_site_fract_z
 _atom_site_occupancy
  K  K0  1  0.00007260  0.99998156  0.00013602  1
  K  K1  1  0.99992843  0.50001235  0.99986446  1
  B  B0  1  0.50053216  0.49997874  0.49997651  1
  B  B1  1  0.49946725  0.00002255  0.50002383  1
  H  H0  1  0.39270952  0.00005731  0.39205592  1
  H  H1  1  0.39146973  0.21359003  0.39449200  1
  H  H2  1  0.82174098  0.00004342  0.39218548  1
  H  H3  1  0.17825919  0.49995723  0.60781540  1
  H  H4  1  0.60853073  0.28641129  0.60550792  1
  H  H5  1  0.60852023  0.71350126  0.17842249  1
  H  H6  1  0.60729057  0.49994327  0.60794491  1
  H  H7  1  0.39147961  0.78650000  0.82157806  1
loop_
_geom_bond_atom_site_label_1
_geom_bond_atom_site_label_2
_geom_bond_distance
_geom_bond_site_symmetry_2
B0 H5 1.223967 1_555
B0 H4 1.224161 1_555
B0 H6 1.224866 1_555
B0 H3 1.224882 1_555
B1 H7 1.223968 1_545
B1 H1 1.224160 1_555
B1 H0 1.224865 1_555
B1 H2 1.224885 1_555
H0 K0 2.757602 1_645
H0 K1 2.781263 1_454
H0 K1 2.781881 1_445
H1 K0 2.754879 1_546
H1 K1 2.779174 1_454
H1 K1 2.782817 1_554
H2 K0 2.753436 1_645
H2 K1 2.782399 1_545
H2 K1 2.782430 1_554
H3 K1 2.753382 1_455
H3 K0 2.782399 1_555
H3 K0 2.782483 1_546
H4 K1 2.754908 1_554
H4 K0 2.779154 1_646
H4 K0 2.782847 1_546
H5 K1 2.754754 1_554
H5 K0 2.779558 1_655
H5 K0 2.782663 1_555
H6 K1 2.757569 1_455
H6 K0 2.781288 1_646
H6 K0 2.781853 1_655
H7 K0 2.754696 1_556
H7 K1 2.779611 1_455
H7 K1 2.782667 1_555
