# generated using pymatgen
data_RbYTa6Cl18
_symmetry_space_group_name_H-M   'P 1'
_cell_length_a   10.10056965
_cell_length_b   10.10056874
_cell_length_c   10.10056929
_cell_angle_alpha   55.51026332
_cell_angle_beta   55.51026580
_cell_angle_gamma   55.51026575
_symmetry_Int_Tables_number   1
_chemical_formula_structural   RbYTa6Cl18
_chemical_formula_sum   'Rb1 Y1 Ta6 Cl18'
_cell_volume   652.70165400
_cell_formula_units_Z   1
loop_
 _symmetry_equiv_pos_site_id
 _symmetry_equiv_pos_as_xyz
  1  'x, y, z'
loop_
 _atom_site_type_symbol
 _atom_site_label
 _atom_site_symmetry_multiplicity
 _atom_site_fract_x
 _atom_site_fract_y
 _atom_site_fract_z
 _atom_site_occupancy
  Rb  Rb0  1  0.22431660  0.22431660  0.22431660  1
  Y  Y0  1  0.49864920  0.49864920  0.49864920  1
  Ta  Ta0  1  0.80415884  0.14788369  0.91056773  1
  Ta  Ta1  1  0.91056773  0.80415884  0.14788369  1
  Ta  Ta2  1  0.14788369  0.91056773  0.80415884  1
  Ta  Ta3  1  0.19684043  0.85219789  0.08819743  1
  Ta  Ta4  1  0.08819743  0.19684043  0.85219789  1
  Ta  Ta5  1  0.85219789  0.08819743  0.19684043  1
  Cl  Cl0  1  0.86901645  0.41248457  0.71969456  1
  Cl  Cl1  1  0.71969456  0.86901645  0.41248457  1
  Cl  Cl2  1  0.41248457  0.71969456  0.86901645  1
  Cl  Cl3  1  0.13050767  0.58660789  0.28147694  1
  Cl  Cl4  1  0.28147694  0.13050767  0.58660789  1
  Cl  Cl5  1  0.58660789  0.28147694  0.13050767  1
  Cl  Cl6  1  0.53809201  0.34034930  0.80123655  1
  Cl  Cl7  1  0.80123655  0.53809201  0.34034930  1
  Cl  Cl8  1  0.34034930  0.80123655  0.53809201  1
  Cl  Cl9  1  0.45779672  0.66110137  0.20110964  1
  Cl  Cl10  1  0.20110964  0.45779672  0.66110137  1
  Cl  Cl11  1  0.66110137  0.20110964  0.45779672  1
  Cl  Cl12  1  0.65849056  0.94120383  0.07023938  1
  Cl  Cl13  1  0.07023938  0.65849056  0.94120383  1
  Cl  Cl14  1  0.94120383  0.07023938  0.65849056  1
  Cl  Cl15  1  0.34211067  0.05848733  0.92832274  1
  Cl  Cl16  1  0.92832274  0.34211067  0.05848733  1
  Cl  Cl17  1  0.05848733  0.92832274  0.34211067  1
loop_
_geom_bond_atom_site_label_1
_geom_bond_atom_site_label_2
_geom_bond_distance
_geom_bond_site_symmetry_2
Cl0 Ta0 2.450719 1_555
Cl0 Ta4 2.455541 1_655
Cl1 Ta1 2.450719 1_555
Cl1 Ta5 2.455540 1_565
Cl2 Ta2 2.450719 1_555
Cl2 Ta3 2.455541 1_556
Cl3 Ta3 2.465690 1_555
Cl3 Ta1 2.468381 1_455
Cl3 Rb0 3.531051 1_555
Cl4 Ta4 2.465690 1_555
Cl4 Ta2 2.468381 1_545
Cl4 Rb0 3.531051 1_555
Cl5 Ta5 2.465690 1_555
Cl5 Ta0 2.468381 1_554
Cl5 Rb0 3.531052 1_555
Cl6 Y0 2.679449 1_555
Cl6 Ta0 2.689605 1_555
Cl6 Rb0 3.588300 1_556
Cl7 Y0 2.679449 1_555
Cl7 Ta1 2.689605 1_555
Cl7 Rb0 3.588300 1_655
Cl8 Y0 2.679449 1_555
Cl8 Ta2 2.689605 1_555
Cl8 Rb0 3.588299 1_565
Cl9 Y0 2.635805 1_555
Cl9 Ta3 2.668967 1_555
Cl10 Y0 2.635806 1_555
Cl10 Ta4 2.668967 1_555
Cl11 Y0 2.635805 1_555
Cl11 Ta5 2.668967 1_555
Cl12 Ta1 2.460566 1_555
Cl12 Ta0 2.470240 1_564
Cl12 Rb0 3.597150 1_565
Cl13 Ta2 2.460566 1_555
Cl13 Ta1 2.470240 1_456
Cl13 Rb0 3.597150 1_556
Cl14 Ta0 2.460566 1_555
Cl14 Ta2 2.470240 1_645
Cl14 Rb0 3.597150 1_655
Cl15 Ta3 2.463876 1_546
Cl15 Ta4 2.465580 1_555
Cl15 Rb0 3.541934 1_556
Cl16 Ta4 2.463876 1_654
Cl16 Ta5 2.465579 1_555
Cl16 Rb0 3.541934 1_655
Cl17 Ta5 2.463876 1_465
Cl17 Ta3 2.465580 1_555
Cl17 Rb0 3.541934 1_565
