# generated using pymatgen
data_YCBr
_symmetry_space_group_name_H-M   'P 1'
_cell_length_a   4.57582800
_cell_length_b   5.01518900
_cell_length_c   5.38509200
_cell_angle_alpha   90.00000000
_cell_angle_beta   90.00000000
_cell_angle_gamma   90.00000000
_symmetry_Int_Tables_number   1
_chemical_formula_structural   YCBr
_chemical_formula_sum   'Y2 C2 Br2'
_cell_volume   123.58054980
_cell_formula_units_Z   2
loop_
 _symmetry_equiv_pos_site_id
 _symmetry_equiv_pos_as_xyz
  1  'x, y, z'
loop_
 _atom_site_type_symbol
 _atom_site_label
 _atom_site_symmetry_multiplicity
 _atom_site_fract_x
 _atom_site_fract_y
 _atom_site_fract_z
 _atom_site_occupancy
  Y  Y0  1  0.00000000  0.00000000  0.12348400  1
  Y  Y1  1  0.50000000  0.50000000  0.87651600  1
  C  C0  1  0.00000000  0.50000000  0.04889000  1
  C  C1  1  0.50000000  0.00000000  0.95111000  1
  Br  Br0  1  0.00000000  0.50000000  0.47453400  1
  Br  Br1  1  0.50000000  0.00000000  0.52546600  1
loop_
_geom_bond_atom_site_label_1
_geom_bond_atom_site_label_2
_geom_bond_distance
_geom_bond_site_symmetry_2
C0 Y1 2.469048 1_454
C0 Y1 2.469048 1_554
C0 Y0 2.539565 1_555
C0 Y0 2.539565 1_565
C1 Y0 2.469048 1_656
C1 Y0 2.469048 1_556
C1 Y1 2.539565 1_555
C1 Y1 2.539565 1_545
Br0 C0 2.292132 1_555
Br0 Y0 3.140347 1_565
Br0 Y0 3.140347 1_555
Br0 Y1 3.149686 1_455
Br0 Y1 3.149686 1_555
Br1 C1 2.292132 1_555
Br1 Y1 3.140347 1_545
Br1 Y1 3.140347 1_555
Br1 Y0 3.149686 1_555
Br1 Y0 3.149686 1_655
