# generated using pymatgen
data_Lu3Sc2Si3O
_symmetry_space_group_name_H-M   'P 1'
_cell_length_a   8.04669401
_cell_length_b   8.04669440
_cell_length_c   5.85285523
_cell_angle_alpha   90.00000000
_cell_angle_beta   90.00000000
_cell_angle_gamma   120.00000245
_symmetry_Int_Tables_number   1
_chemical_formula_structural   Lu3Sc2Si3O
_chemical_formula_sum   'Lu6 Sc4 Si6 O2'
_cell_volume   328.19608614
_cell_formula_units_Z   2
loop_
 _symmetry_equiv_pos_site_id
 _symmetry_equiv_pos_as_xyz
  1  'x, y, z'
loop_
 _atom_site_type_symbol
 _atom_site_label
 _atom_site_symmetry_multiplicity
 _atom_site_fract_x
 _atom_site_fract_y
 _atom_site_fract_z
 _atom_site_occupancy
  Lu  Lu0  1  0.76625320  0.76625320  0.25000000  1
  Lu  Lu1  1  0.76625320  0.00000000  0.75000000  1
  Lu  Lu2  1  1.00000000  0.23374680  0.25000000  1
  Lu  Lu3  1  0.00000000  0.76625320  0.75000000  1
  Lu  Lu4  1  0.23374680  0.23374680  0.75000000  1
  Lu  Lu5  1  0.23374680  1.00000000  0.25000000  1
  Sc  Sc0  1  0.66666700  0.33333300  0.00000000  1
  Sc  Sc1  1  0.33333300  0.66666700  0.50000000  1
  Sc  Sc2  1  0.33333300  0.66666700  0.00000000  1
  Sc  Sc3  1  0.66666700  0.33333300  0.50000000  1
  Si  Si0  1  0.40218228  1.00000000  0.75000000  1
  Si  Si1  1  0.40218228  0.40218228  0.25000000  1
  Si  Si2  1  0.00000000  0.59781772  0.25000000  1
  Si  Si3  1  1.00000000  0.40218228  0.75000000  1
  Si  Si4  1  0.59781772  0.59781772  0.75000000  1
  Si  Si5  1  0.59781772  0.00000000  0.25000000  1
  O  O0  1  0.00000000  0.00000000  0.50000000  1
  O  O1  1  0.00000000  0.00000000  0.00000000  1
loop_
_geom_bond_atom_site_label_1
_geom_bond_atom_site_label_2
_geom_bond_distance
_geom_bond_site_symmetry_2
Lu0 O0 2.383010 1_665
Lu0 O1 2.383010 1_665
Lu0 Si2 2.814956 1_655
Lu0 Si5 2.814956 1_565
Lu0 Si1 2.929567 1_555
Lu0 Si4 3.225050 1_555
Lu0 Si4 3.225050 1_554
Lu1 O0 2.383010 1_655
Lu1 O1 2.383010 1_656
Lu1 Si3 2.814955 1_555
Lu1 Si4 2.814956 1_545
Lu1 Si0 2.929567 1_545
Lu1 Si5 3.225050 1_555
Lu1 Si5 3.225050 1_556
Lu2 O0 2.383010 1_655
Lu2 O1 2.383010 1_655
Lu2 Si5 2.814955 1_555
Lu2 Si1 2.814955 1_655
Lu2 Si2 2.929567 1_655
Lu2 Si3 3.225050 1_554
Lu2 Si3 3.225050 1_555
Lu3 O0 2.383010 1_565
Lu3 O1 2.383010 1_566
Lu3 Si0 2.814955 1_555
Lu3 Si4 2.814955 1_455
Lu3 Si3 2.929567 1_455
Lu3 Si2 3.225050 1_556
Lu3 Si2 3.225050 1_555
Lu4 O0 2.383010 1_555
Lu4 O1 2.383010 1_556
Lu4 Si3 2.814956 1_455
Lu4 Si0 2.814956 1_545
Lu4 Si4 2.929567 1_555
Lu4 Si1 3.225050 1_555
Lu4 Si1 3.225050 1_556
Lu5 O0 2.383010 1_565
Lu5 O1 2.383010 1_565
Lu5 Si2 2.814955 1_555
Lu5 Si1 2.814956 1_565
Lu5 Si5 2.929567 1_565
Lu5 Si0 3.225050 1_555
Lu5 Si0 3.225050 1_554
Sc0 Si3 2.855922 1_554
Sc0 Si5 2.855922 1_555
Sc0 Si2 2.855924 1_655
Sc0 Si0 2.855925 1_544
Sc0 Si1 2.855929 1_555
Sc0 Si4 2.855929 1_554
Sc1 Si2 2.855922 1_555
Sc1 Si0 2.855922 1_555
Sc1 Si3 2.855924 1_455
Sc1 Si5 2.855925 1_565
Sc1 Si4 2.855929 1_555
Sc1 Si1 2.855929 1_555
Sc2 Si2 2.855922 1_555
Sc2 Si0 2.855922 1_554
Sc2 Si3 2.855924 1_454
Sc2 Si5 2.855925 1_565
Sc2 Si4 2.855929 1_554
Sc2 Si1 2.855929 1_555
Sc3 Si3 2.855922 1_555
Sc3 Si5 2.855922 1_555
Sc3 Si2 2.855924 1_655
Sc3 Si0 2.855925 1_545
Sc3 Si1 2.855929 1_555
Sc3 Si4 2.855929 1_555
