# generated using pymatgen
data_Hf3Ag2OF12
_symmetry_space_group_name_H-M   'P 1'
_cell_length_a   9.97249576
_cell_length_b   9.97249527
_cell_length_c   9.97249683
_cell_angle_alpha   44.57404969
_cell_angle_beta   44.57405353
_cell_angle_gamma   44.57405388
_symmetry_Int_Tables_number   1
_chemical_formula_structural   Hf3Ag2OF12
_chemical_formula_sum   'Hf6 Ag4 O2 F24'
_cell_volume   444.23526411
_cell_formula_units_Z   2
loop_
 _symmetry_equiv_pos_site_id
 _symmetry_equiv_pos_as_xyz
  1  'x, y, z'
loop_
 _atom_site_type_symbol
 _atom_site_label
 _atom_site_symmetry_multiplicity
 _atom_site_fract_x
 _atom_site_fract_y
 _atom_site_fract_z
 _atom_site_occupancy
  Hf  Hf0  1  0.58123710  0.58123710  0.03600492  1
  Hf  Hf1  1  0.03600492  0.58123710  0.58123710  1
  Hf  Hf2  1  0.58123710  0.03600492  0.58123710  1
  Hf  Hf3  1  0.41876290  0.96399508  0.41876290  1
  Hf  Hf4  1  0.96399508  0.41876290  0.41876290  1
  Hf  Hf5  1  0.41876290  0.41876290  0.96399508  1
  Ag  Ag0  1  0.00000000  0.00000000  0.00000000  1
  Ag  Ag1  1  0.50000000  0.50000000  0.50000000  1
  Ag  Ag2  1  0.13387085  0.13387085  0.13387085  1
  Ag  Ag3  1  0.86612915  0.86612915  0.86612915  1
  O  O0  1  0.28356316  0.28356316  0.28356316  1
  O  O1  1  0.71643684  0.71643684  0.71643684  1
  F  F0  1  0.36408414  0.70002894  0.70002894  1
  F  F1  1  0.70002894  0.36408414  0.70002894  1
  F  F2  1  0.70002894  0.70002894  0.36408414  1
  F  F3  1  0.63591586  0.29997106  0.29997106  1
  F  F4  1  0.29997106  0.63591586  0.29997106  1
  F  F5  1  0.29997106  0.29997106  0.63591586  1
  F  F6  1  0.07928357  0.59689766  0.07928357  1
  F  F7  1  0.07928357  0.07928357  0.59689766  1
  F  F8  1  1.00000000  0.34707967  0.65292033  1
  F  F9  1  0.34707967  0.65292033  0.00000000  1
  F  F10  1  0.65292033  1.00000000  0.34707967  1
  F  F11  1  0.00000000  0.65292033  0.34707967  1
  F  F12  1  0.65292033  0.34707967  1.00000000  1
  F  F13  1  0.34707967  0.00000000  0.65292033  1
  F  F14  1  0.09252517  0.66247580  0.66247580  1
  F  F15  1  0.66247580  0.66247580  0.09252517  1
  F  F16  1  0.66247580  0.09252517  0.66247580  1
  F  F17  1  0.33752420  0.90747483  0.33752420  1
  F  F18  1  0.90747483  0.33752420  0.33752420  1
  F  F19  1  0.33752420  0.33752420  0.90747483  1
  F  F20  1  0.92071643  0.40310234  0.92071643  1
  F  F21  1  0.40310234  0.92071643  0.92071643  1
  F  F22  1  0.92071643  0.92071643  0.40310234  1
  F  F23  1  0.59689766  0.07928357  0.07928357  1
loop_
_geom_bond_atom_site_label_1
_geom_bond_atom_site_label_2
_geom_bond_distance
_geom_bond_site_symmetry_2
Hf0 O1 2.034359 1_554
Hf1 O1 2.034359 1_455
Hf2 O1 2.034359 1_545
Hf3 O0 2.034359 1_565
Hf4 O0 2.034359 1_655
Hf5 O0 2.034359 1_556
Ag0 F8 2.625335 1_454
Ag0 F11 2.625335 1_545
Ag0 F12 2.625335 1_454
Ag0 F9 2.625335 1_545
Ag0 F10 2.625336 1_445
Ag0 F13 2.625336 1_554
Ag1 F17 2.596674 1_555
Ag1 F16 2.596674 1_555
Ag1 F18 2.596674 1_555
Ag1 F14 2.596674 1_555
Ag1 F19 2.596675 1_555
Ag1 F15 2.596675 1_555
Ag2 F19 2.481505 1_554
Ag2 F17 2.481505 1_545
Ag2 F18 2.481505 1_455
Ag2 F22 2.533995 1_445
Ag2 F20 2.533995 1_454
Ag2 F21 2.533995 1_544
Ag3 F15 2.481505 1_556
Ag3 F16 2.481505 1_565
Ag3 F14 2.481505 1_655
Ag3 F7 2.533995 1_665
Ag3 F6 2.533995 1_656
Ag3 F23 2.533995 1_566
F0 Hf3 2.107367 1_555
F0 Hf5 2.107367 1_555
F1 Hf4 2.107367 1_555
F1 Hf5 2.107367 1_555
F2 Hf4 2.107367 1_555
F2 Hf3 2.107367 1_555
F3 Hf2 2.107367 1_555
F3 Hf0 2.107367 1_555
F4 Hf1 2.107367 1_555
F4 Hf0 2.107367 1_555
F5 Hf1 2.107367 1_555
F5 Hf2 2.107367 1_555
F6 Hf5 2.176051 1_554
F6 Hf4 2.176051 1_455
F7 Hf4 2.176051 1_455
F7 Hf3 2.176051 1_545
F8 Hf1 2.131530 1_655
F8 Hf4 2.131530 1_555
F9 Hf5 2.131530 1_554
F9 Hf0 2.131530 1_555
F10 Hf3 2.131530 1_555
F10 Hf2 2.131530 1_565
F11 Hf4 2.131530 1_455
F11 Hf1 2.131530 1_555
F12 Hf0 2.131530 1_556
F12 Hf5 2.131530 1_555
F13 Hf2 2.131530 1_555
F13 Hf3 2.131530 1_545
F14 Hf1 1.966373 1_555
F15 Hf0 1.966373 1_555
F16 Hf2 1.966373 1_555
F17 Hf3 1.966373 1_555
F18 Hf4 1.966373 1_555
F19 Hf5 1.966373 1_555
F20 Hf0 2.176051 1_556
F20 Hf1 2.176051 1_655
F21 Hf0 2.176051 1_556
F21 Hf2 2.176051 1_565
F22 Hf1 2.176051 1_655
F22 Hf2 2.176051 1_565
F23 Hf5 2.176051 1_554
F23 Hf3 2.176051 1_545
