# generated using pymatgen
data_YLu7(AlPt)2
_symmetry_space_group_name_H-M   'P 1'
_cell_length_a   9.37713606
_cell_length_b   9.37713619
_cell_length_c   9.36708074
_cell_angle_alpha   60.03546631
_cell_angle_beta   60.03546584
_cell_angle_gamma   59.92906626
_symmetry_Int_Tables_number   1
_chemical_formula_structural   YLu7(AlPt)2
_chemical_formula_sum   'Y2 Lu14 Al4 Pt4'
_cell_volume   582.40984028
_cell_formula_units_Z   2
loop_
 _symmetry_equiv_pos_site_id
 _symmetry_equiv_pos_as_xyz
  1  'x, y, z'
loop_
 _atom_site_type_symbol
 _atom_site_label
 _atom_site_symmetry_multiplicity
 _atom_site_fract_x
 _atom_site_fract_y
 _atom_site_fract_z
 _atom_site_occupancy
  Y  Y0  1  0.56823315  0.56823315  0.93176685  1
  Y  Y1  1  0.93176685  0.93176685  0.56823315  1
  Lu  Lu0  1  0.35543615  0.35543615  0.35174365  1
  Lu  Lu1  1  0.35543615  0.35543615  0.93738406  1
  Lu  Lu2  1  0.35174365  0.93738406  0.35543615  1
  Lu  Lu3  1  0.93738406  0.35174365  0.35543615  1
  Lu  Lu4  1  0.80804513  0.19195487  0.19195487  1
  Lu  Lu5  1  0.19195487  0.80804513  0.80804513  1
  Lu  Lu6  1  0.19195487  0.80804513  0.19195487  1
  Lu  Lu7  1  0.80804513  0.19195487  0.80804513  1
  Lu  Lu8  1  0.19303421  0.19303421  0.80696579  1
  Lu  Lu9  1  0.80696579  0.80696579  0.19303421  1
  Lu  Lu10  1  0.94028921  0.55971079  0.55971079  1
  Lu  Lu11  1  0.55971079  0.94028921  0.94028921  1
  Lu  Lu12  1  0.55971079  0.94028921  0.55971079  1
  Lu  Lu13  1  0.94028921  0.55971079  0.94028921  1
  Al  Al0  1  0.57851575  0.57851575  0.57774682  1
  Al  Al1  1  0.57851575  0.57851575  0.26522067  1
  Al  Al2  1  0.57774682  0.26522067  0.57851575  1
  Al  Al3  1  0.26522067  0.57774682  0.57851575  1
  Pt  Pt0  1  0.14461667  0.14461667  0.14007136  1
  Pt  Pt1  1  0.14461667  0.14461667  0.57069530  1
  Pt  Pt2  1  0.14007136  0.57069530  0.14461667  1
  Pt  Pt3  1  0.57069530  0.14007136  0.14461667  1
loop_
_geom_bond_atom_site_label_1
_geom_bond_atom_site_label_2
_geom_bond_distance
_geom_bond_site_symmetry_2
Lu0 Pt2 2.798904 1_555
Lu0 Pt3 2.798904 1_555
Lu0 Pt1 2.799766 1_555
Lu0 Lu10 3.361235 1_455
Lu0 Lu12 3.361235 1_545
Lu0 Y0 3.427349 1_554
Lu1 Pt2 2.798904 1_556
Lu1 Pt3 2.798904 1_556
Lu1 Pt0 2.799766 1_556
Lu1 Lu13 3.361235 1_455
Lu1 Lu11 3.361235 1_545
Lu1 Y0 3.427349 1_555
Lu2 Pt1 2.798904 1_565
Lu2 Pt0 2.798904 1_565
Lu2 Pt3 2.799766 1_565
Lu2 Y1 3.427349 1_455
Lu3 Pt1 2.798904 1_655
Lu3 Pt0 2.798904 1_655
Lu3 Pt2 2.799766 1_655
Lu3 Y1 3.427349 1_545
Lu4 Pt0 2.770088 1_655
Lu4 Pt3 2.770088 1_555
Lu4 Y0 3.518458 1_554
Lu4 Y1 3.518458 1_545
Lu5 Pt1 2.770088 1_565
Lu5 Pt2 2.770088 1_556
Lu5 Y0 3.518458 1_555
Lu5 Y1 3.518458 1_455
Lu6 Pt0 2.770088 1_565
Lu6 Pt2 2.770088 1_555
Lu6 Y0 3.518458 1_554
Lu6 Y1 3.518458 1_455
Lu7 Pt1 2.770088 1_655
Lu7 Pt3 2.770088 1_556
Lu7 Y0 3.518458 1_555
Lu7 Y1 3.518458 1_545
Lu8 Pt0 2.743067 1_556
Lu8 Pt1 2.743067 1_555
Lu9 Pt2 2.743067 1_655
Lu9 Pt3 2.743067 1_565
Lu10 Pt1 3.339974 1_655
Lu10 Pt2 3.339974 1_655
Lu10 Lu3 3.361235 1_555
Lu10 Lu8 3.487887 1_655
Lu10 Lu9 3.487887 1_555
Lu10 Y0 3.489564 1_555
Lu10 Y1 3.489564 1_555
Lu10 Lu6 3.497401 1_655
Lu10 Lu7 3.497401 1_555
Lu10 Lu12 3.564909 1_555
Lu10 Lu13 3.564909 1_555
Lu11 Pt0 3.339973 1_566
Lu11 Pt3 3.339974 1_566
Lu11 Lu2 3.361235 1_556
Lu11 Lu8 3.487887 1_565
Lu11 Lu9 3.487887 1_556
Lu11 Y1 3.489564 1_555
Lu11 Y0 3.489564 1_555
Lu11 Lu6 3.497401 1_556
Lu11 Lu7 3.497401 1_565
Lu11 Lu13 3.564909 1_555
Lu11 Lu12 3.564909 1_555
Lu12 Pt1 3.339973 1_565
Lu12 Pt3 3.339974 1_565
Lu12 Lu2 3.361235 1_555
Lu12 Lu8 3.487887 1_565
Lu12 Lu9 3.487887 1_555
Lu12 Y1 3.489564 1_555
Lu12 Y0 3.489564 1_555
Lu12 Lu5 3.497401 1_555
Lu12 Lu4 3.497401 1_565
Lu13 Pt0 3.339974 1_656
Lu13 Pt2 3.339974 1_656
Lu13 Lu3 3.361235 1_556
Lu13 Lu8 3.487887 1_655
Lu13 Lu9 3.487887 1_556
Lu13 Y0 3.489564 1_555
Lu13 Y1 3.489564 1_555
Lu13 Lu5 3.497401 1_655
Lu13 Lu4 3.497401 1_556
Al0 Al1 2.927458 1_555
Al0 Al3 2.937835 1_555
Al0 Al2 2.937835 1_555
Al0 Y0 3.222709 1_555
Al0 Lu1 3.225931 1_555
Al0 Lu10 3.228895 1_555
Al0 Lu12 3.228896 1_555
Al0 Lu3 3.230269 1_555
Al0 Lu2 3.230269 1_555
Al0 Lu9 3.367531 1_555
Al0 Lu5 3.381401 1_555
Al0 Lu7 3.381401 1_555
Al1 Al3 2.937835 1_555
Al1 Al2 2.937835 1_555
Al1 Y0 3.222699 1_554
Al1 Lu0 3.225927 1_555
Al1 Lu13 3.228891 1_554
Al1 Lu11 3.228891 1_554
Al1 Lu3 3.230274 1_555
Al1 Lu2 3.230274 1_555
Al1 Lu9 3.367535 1_555
Al1 Lu6 3.381398 1_555
Al1 Lu4 3.381398 1_555
Al2 Al3 2.927458 1_555
Al2 Y1 3.222704 1_545
Al2 Lu3 3.225935 1_555
Al2 Lu12 3.228886 1_545
Al2 Lu11 3.228891 1_545
Al2 Lu0 3.230266 1_555
Al2 Lu1 3.230274 1_555
Al2 Lu8 3.367527 1_555
Al2 Lu4 3.381398 1_555
Al2 Lu7 3.381406 1_555
Al3 Y1 3.222704 1_455
Al3 Lu2 3.225935 1_555
Al3 Lu10 3.228886 1_455
Al3 Lu13 3.228891 1_455
Al3 Lu0 3.230266 1_555
Al3 Lu1 3.230274 1_555
Al3 Lu8 3.367527 1_555
Al3 Lu6 3.381398 1_555
Al3 Lu5 3.381406 1_555
Pt0 Y1 3.471620 1_445
Pt1 Y1 3.471620 1_445
Pt2 Y0 3.471620 1_554
Pt3 Y0 3.471620 1_554
