# generated using pymatgen
data_Y4Pd3PtO14
_symmetry_space_group_name_H-M   'P 1'
_cell_length_a   7.17822039
_cell_length_b   7.17822053
_cell_length_c   7.17822035
_cell_angle_alpha   60.12172669
_cell_angle_beta   60.12172613
_cell_angle_gamma   60.12172971
_symmetry_Int_Tables_number   1
_chemical_formula_structural   Y4Pd3PtO14
_chemical_formula_sum   'Y4 Pd3 Pt1 O14'
_cell_volume   262.25960119
_cell_formula_units_Z   1
loop_
 _symmetry_equiv_pos_site_id
 _symmetry_equiv_pos_as_xyz
  1  'x, y, z'
loop_
 _atom_site_type_symbol
 _atom_site_label
 _atom_site_symmetry_multiplicity
 _atom_site_fract_x
 _atom_site_fract_y
 _atom_site_fract_z
 _atom_site_occupancy
  Y  Y0  1  0.12500000  0.62500000  0.12500000  1
  Y  Y1  1  0.12500000  0.12500000  0.62500000  1
  Y  Y2  1  0.62500000  0.12500000  0.12500000  1
  Y  Y3  1  0.12500000  0.12500000  0.12500000  1
  Pd  Pd0  1  0.12500000  0.62500000  0.62500000  1
  Pd  Pd1  1  0.62500000  0.62500000  0.12500000  1
  Pd  Pd2  1  0.62500000  0.12500000  0.62500000  1
  Pt  Pt0  1  0.62500000  0.62500000  0.62500000  1
  O  O0  1  0.28576544  0.71448445  0.71448445  1
  O  O1  1  0.53664763  0.96306462  0.96306462  1
  O  O2  1  0.71448445  0.71448445  0.28576544  1
  O  O3  1  0.28693538  0.28693538  0.71335237  1
  O  O4  1  0.99989958  0.99989958  0.99989958  1
  O  O5  1  0.28693538  0.71335237  0.28693538  1
  O  O6  1  0.71448445  0.28576544  0.71448445  1
  O  O7  1  0.96306462  0.53664763  0.96306462  1
  O  O8  1  0.53551555  0.53551555  0.96423456  1
  O  O9  1  0.96306462  0.96306462  0.53664763  1
  O  O10  1  0.25010042  0.25010042  0.25010042  1
  O  O11  1  0.53551555  0.96423456  0.53551555  1
  O  O12  1  0.71335237  0.28693538  0.28693538  1
  O  O13  1  0.96423456  0.53551555  0.53551555  1
loop_
_geom_bond_atom_site_label_1
_geom_bond_atom_site_label_2
_geom_bond_distance
_geom_bond_site_symmetry_2
O0 Pd0 2.011241 1_555
O0 Pt0 2.012260 1_555
O0 Y0 2.427426 1_556
O0 Y1 2.427426 1_565
O1 Pd2 2.008231 1_565
O1 Pd1 2.008231 1_556
O1 Y2 2.433069 1_566
O1 Y3 2.436334 1_566
O2 Pd1 2.011241 1_555
O2 Pt0 2.012260 1_555
O2 Y0 2.427426 1_655
O2 Y2 2.427426 1_565
O3 Pd2 2.008231 1_555
O3 Pd0 2.008231 1_555
O3 Y1 2.433069 1_555
O3 Y3 2.436334 1_556
O4 Y3 2.197612 1_666
O4 Y1 2.200656 1_665
O4 Y2 2.200656 1_566
O4 Y0 2.200656 1_656
O5 Pd0 2.008231 1_555
O5 Pd1 2.008231 1_555
O5 Y0 2.433069 1_555
O5 Y3 2.436334 1_565
O6 Pd2 2.011241 1_555
O6 Pt0 2.012260 1_555
O6 Y2 2.427426 1_556
O6 Y1 2.427426 1_655
O7 Pd0 2.008231 1_655
O7 Pd1 2.008231 1_556
O7 Y0 2.433069 1_656
O7 Y3 2.436334 1_656
O8 Pd1 2.011241 1_556
O8 Pt0 2.012260 1_555
O8 Y0 2.427426 1_556
O8 Y2 2.427426 1_556
O9 Pd2 2.008231 1_565
O9 Pd0 2.008231 1_655
O9 Y1 2.433069 1_665
O9 Y3 2.436334 1_665
O10 Y3 2.197612 1_555
O10 Y1 2.200656 1_555
O10 Y2 2.200656 1_555
O10 Y0 2.200656 1_555
O11 Pd2 2.011241 1_565
O11 Pt0 2.012260 1_555
O11 Y2 2.427426 1_565
O11 Y1 2.427426 1_565
O12 Pd2 2.008231 1_555
O12 Pd1 2.008231 1_555
O12 Y2 2.433069 1_555
O12 Y3 2.436334 1_655
O13 Pd0 2.011241 1_655
O13 Pt0 2.012260 1_555
O13 Y0 2.427426 1_655
O13 Y1 2.427426 1_655
