# generated using pymatgen
data_CaSi2TcNi
_symmetry_space_group_name_H-M   'P 1'
_cell_length_a   5.74423055
_cell_length_b   5.74423032
_cell_length_c   5.74422986
_cell_angle_alpha   138.69758558
_cell_angle_beta   138.69758091
_cell_angle_gamma   59.83627798
_symmetry_Int_Tables_number   1
_chemical_formula_structural   CaSi2TcNi
_chemical_formula_sum   'Ca1 Si2 Tc1 Ni1'
_cell_volume   81.73363552
_cell_formula_units_Z   1
loop_
 _symmetry_equiv_pos_site_id
 _symmetry_equiv_pos_as_xyz
  1  'x, y, z'
loop_
 _atom_site_type_symbol
 _atom_site_label
 _atom_site_symmetry_multiplicity
 _atom_site_fract_x
 _atom_site_fract_y
 _atom_site_fract_z
 _atom_site_occupancy
  Ca  Ca0  1  0.00000000  0.00000000  0.00000000  1
  Si  Si0  1  0.62981727  0.62981727  1.00000000  1
  Si  Si1  1  0.37018273  0.37018273  0.00000000  1
  Tc  Tc0  1  0.75000000  0.25000000  0.50000000  1
  Ni  Ni0  1  0.25000000  0.75000000  0.50000000  1
loop_
_geom_bond_atom_site_label_1
_geom_bond_atom_site_label_2
_geom_bond_distance
_geom_bond_site_symmetry_2
Ca0 Si0 3.143121 1_443
Ca0 Si1 3.143121 1_556
Ca0 Si0 3.143121 1_454
Ca0 Si1 3.143121 1_545
Ca0 Si0 3.143121 1_544
Ca0 Si1 3.143121 1_455
Ca0 Si0 3.143121 1_555
Ca0 Si1 3.143121 1_444
Ca0 Tc0 3.209534 1_455
Ca0 Ni0 3.209534 1_544
Ca0 Tc0 3.209534 1_454
Ca0 Ni0 3.209534 1_545
Ca0 Ni0 3.209534 1_555
Ca0 Tc0 3.209534 1_444
Ca0 Ni0 3.209534 1_444
Ca0 Tc0 3.209534 1_555
Si0 Tc0 2.352926 1_555
Si0 Tc0 2.352926 1_566
Si0 Si1 2.585310 1_556
Si1 Tc0 2.352926 1_555
Si1 Tc0 2.352927 1_454
Ni0 Si1 2.352926 1_555
Ni0 Si0 2.352926 1_555
Ni0 Si1 2.352926 1_566
Ni0 Si0 2.352927 1_454
Ni0 Tc0 2.865005 1_566
Ni0 Tc0 2.865005 1_454
Ni0 Tc0 2.865005 1_465
Ni0 Tc0 2.865005 1_555
