# generated using pymatgen
data_Ti8Al15Pt5Rh2
_symmetry_space_group_name_H-M   'P 1'
_cell_length_a   8.64121551
_cell_length_b   8.64121523
_cell_length_c   8.64121579
_cell_angle_alpha   120.03153282
_cell_angle_beta   119.87745660
_cell_angle_gamma   90.07889396
_symmetry_Int_Tables_number   1
_chemical_formula_structural   Ti8Al15Pt5Rh2
_chemical_formula_sum   'Ti8 Al15 Pt5 Rh2'
_cell_volume   456.56926330
_cell_formula_units_Z   1
loop_
 _symmetry_equiv_pos_site_id
 _symmetry_equiv_pos_as_xyz
  1  'x, y, z'
loop_
 _atom_site_type_symbol
 _atom_site_label
 _atom_site_symmetry_multiplicity
 _atom_site_fract_x
 _atom_site_fract_y
 _atom_site_fract_z
 _atom_site_occupancy
  Ti  Ti0  1  0.78582675  0.28897775  0.07487059  1
  Ti  Ti1  1  0.21410716  0.28897775  0.50315199  1
  Ti  Ti2  1  0.21564356  0.71564356  0.50000000  1
  Ti  Ti3  1  0.21410716  0.71095516  0.92512941  1
  Ti  Ti4  1  0.78582675  0.71095516  0.49684801  1
  Ti  Ti5  1  0.78911755  0.28911755  0.50000000  1
  Ti  Ti6  1  0.38036173  0.12043845  0.74007672  1
  Ti  Ti7  1  0.38036173  0.64028401  0.25992328  1
  Al  Al0  1  0.00272970  0.50272970  0.50000000  1
  Al  Al1  1  0.15109760  0.34325598  0.19215739  1
  Al  Al2  1  0.15109760  0.95894021  0.80784261  1
  Al  Al3  1  0.15432573  0.34389407  0.81043066  1
  Al  Al4  1  0.53346141  0.34389407  0.18956934  1
  Al  Al5  1  0.84833637  0.65713355  0.80879918  1
  Al  Al6  1  0.84833637  0.03953719  0.19120082  1
  Al  Al7  1  0.84683390  0.65323904  0.19359486  1
  Al  Al8  1  0.45964419  0.65323904  0.80640514  1
  Al  Al9  1  0.37433498  0.11773011  0.25660387  1
  Al  Al10  1  0.86112724  0.11773011  0.74339613  1
  Al  Al11  1  0.62182676  0.88010594  0.25827919  1
  Al  Al12  1  0.62182676  0.36354757  0.74172081  1
  Al  Al13  1  0.62723906  0.88089829  0.74634077  1
  Al  Al14  1  0.13455652  0.88089829  0.25365923  1
  Pt  Pt0  1  0.99831407  0.99974490  0.49933890  1
  Pt  Pt1  1  0.50040601  0.99974490  0.00143083  1
  Pt  Pt2  1  0.50051055  0.50051055  1.00000000  1
  Pt  Pt3  1  0.50040601  0.49897418  0.50066110  1
  Pt  Pt4  1  0.99831407  0.49897418  0.99856917  1
  Rh  Rh0  1  0.00034187  0.00034187  1.00000000  1
  Rh  Rh1  1  0.49957786  0.99957786  0.50000000  1
loop_
_geom_bond_atom_site_label_1
_geom_bond_atom_site_label_2
_geom_bond_distance
_geom_bond_site_symmetry_2
Ti0 Ti6 2.904559 1_554
Ti1 Ti6 2.904553 1_555
Ti2 Ti7 2.888949 1_555
Ti2 Ti6 2.888950 1_565
Ti3 Ti7 2.904560 1_556
Ti4 Ti7 2.904559 1_555
Al0 Ti4 2.599769 1_455
Al0 Ti0 2.599775 1_455
Al0 Ti3 2.599775 1_555
Al0 Ti1 2.599775 1_555
Al0 Ti2 2.600127 1_555
Al0 Ti5 2.608654 1_455
Al1 Rh0 2.478715 1_554
Al1 Pt4 2.531734 1_454
Al1 Pt3 2.531749 1_555
Al1 Ti0 2.746434 1_455
Al1 Ti1 2.746449 1_555
Al1 Ti2 2.773241 1_555
Al2 Rh0 2.478708 1_565
Al2 Pt1 2.531749 1_556
Al2 Pt0 2.531749 1_455
Al2 Ti4 2.746437 1_455
Al2 Ti3 2.746443 1_555
Al2 Ti2 2.773247 1_555
Al3 Pt0 2.502829 1_445
Al3 Pt4 2.502835 1_455
Al3 Pt2 2.520202 1_555
Al3 Ti1 2.765589 1_555
Al3 Ti3 2.765594 1_555
Al3 Ti5 2.769472 1_455
Al4 Pt3 2.502818 1_555
Al4 Pt1 2.502832 1_545
Al4 Pt2 2.520213 1_554
Al4 Ti4 2.765602 1_555
Al4 Ti0 2.765620 1_555
Al4 Ti5 2.769472 1_555
Al5 Rh0 2.484580 1_665
Al5 Pt4 2.523359 1_555
Al5 Pt3 2.523367 1_555
Al5 Ti3 2.753065 1_655
Al5 Ti4 2.753079 1_555
Al5 Ti5 2.763423 1_555
Al6 Rh0 2.484566 1_654
Al6 Pt1 2.523367 1_545
Al6 Pt0 2.523367 1_545
Al6 Ti1 2.753065 1_655
Al6 Ti0 2.753065 1_555
Al6 Ti5 2.763435 1_555
Al7 Pt0 2.506874 1_555
Al7 Pt4 2.506876 1_554
Al7 Pt2 2.507526 1_554
Al7 Ti4 2.731744 1_555
Al7 Ti0 2.731750 1_555
Al7 Ti2 2.759919 1_655
Al8 Pt1 2.506874 1_556
Al8 Pt3 2.506874 1_555
Al8 Pt2 2.507526 1_555
Al8 Ti1 2.731750 1_555
Al8 Ti3 2.731750 1_555
Al8 Ti2 2.759919 1_555
Al9 Rh1 2.553808 1_545
Al9 Rh0 2.643875 1_554
Al9 Pt3 2.689681 1_555
Al9 Pt1 2.689682 1_545
Al9 Ti3 2.904221 1_544
Al9 Ti1 2.904228 1_555
Al9 Ti5 2.969953 1_555
Al10 Rh1 2.553815 1_545
Al10 Rh0 2.643868 1_655
Al10 Pt4 2.689681 1_555
Al10 Pt0 2.689681 1_545
Al10 Ti4 2.904221 1_545
Al10 Ti0 2.904221 1_556
Al10 Ti5 2.969960 1_555
Al11 Rh1 2.566626 1_555
Al11 Pt0 2.659962 1_555
Al11 Pt1 2.659962 1_555
Al11 Pt2 2.677930 1_554
Al11 Ti3 2.916479 1_554
Al11 Ti4 2.916481 1_555
Al11 Ti5 2.921045 1_565
Al12 Rh1 2.566625 1_545
Al12 Pt3 2.659955 1_555
Al12 Pt4 2.659962 1_555
Al12 Pt2 2.677930 1_555
Al12 Ti1 2.916480 1_555
Al12 Ti0 2.916480 1_556
Al12 Ti5 2.921046 1_555
Al13 Rh1 2.578496 1_555
Al13 Rh0 2.636290 1_665
Al13 Pt1 2.694231 1_556
Al13 Pt3 2.694238 1_555
Al13 Ti0 2.909034 1_566
Al13 Ti4 2.909042 1_555
Al13 Ti2 2.936129 1_555
Al14 Rh1 2.578503 1_555
Al14 Rh0 2.636290 1_564
Al14 Pt0 2.694224 1_455
Al14 Pt4 2.694238 1_454
Al14 Ti1 2.909033 1_565
Al14 Ti3 2.909041 1_554
Al14 Ti2 2.936128 1_555
Pt0 Ti6 2.700148 1_665
Pt0 Ti4 3.081175 1_555
Pt0 Ti5 3.086900 1_565
Pt0 Ti1 3.093280 1_665
Pt0 Ti2 3.093519 1_655
Pt1 Ti6 2.700148 1_564
Pt1 Ti3 3.081180 1_554
Pt1 Ti5 3.086900 1_565
Pt1 Ti0 3.093286 1_565
Pt1 Ti2 3.093519 1_554
Pt2 Ti6 2.681945 1_555
Pt2 Ti7 2.681945 1_556
Pt2 Ti1 3.073320 1_555
Pt2 Ti3 3.073320 1_555
Pt2 Ti4 3.073321 1_556
Pt2 Ti0 3.073326 1_556
Pt3 Ti7 2.700148 1_555
Pt3 Ti1 3.081175 1_555
Pt3 Ti5 3.086895 1_555
Pt3 Ti4 3.093292 1_555
Pt3 Ti2 3.093524 1_555
Pt4 Ti7 2.700148 1_656
Pt4 Ti0 3.081168 1_556
Pt4 Ti5 3.086901 1_555
Pt4 Ti3 3.093286 1_655
Pt4 Ti2 3.093518 1_656
Rh0 Ti0 3.109324 1_456
Rh0 Ti1 3.109330 1_556
Rh0 Ti3 3.109330 1_545
Rh0 Ti4 3.109331 1_445
Rh1 Ti6 2.533627 1_565
Rh1 Ti7 2.533633 1_555
