# generated using pymatgen
data_K2Li2TiS4
_symmetry_space_group_name_H-M   'P 1'
_cell_length_a   5.82768417
_cell_length_b   5.82768417
_cell_length_c   12.80084904
_cell_angle_alpha   90.00000000
_cell_angle_beta   90.00000000
_cell_angle_gamma   90.00000000
_symmetry_Int_Tables_number   1
_chemical_formula_structural   K2Li2TiS4
_chemical_formula_sum   'K4 Li4 Ti2 S8'
_cell_volume   434.74119058
_cell_formula_units_Z   2
loop_
 _symmetry_equiv_pos_site_id
 _symmetry_equiv_pos_as_xyz
  1  'x, y, z'
loop_
 _atom_site_type_symbol
 _atom_site_label
 _atom_site_symmetry_multiplicity
 _atom_site_fract_x
 _atom_site_fract_y
 _atom_site_fract_z
 _atom_site_occupancy
  K  K0  1  0.75640562  0.75640562  0.00000000  1
  K  K1  1  0.24359438  0.75640562  0.50000000  1
  K  K2  1  0.75640562  0.24359438  0.50000000  1
  K  K3  1  0.24359438  0.24359438  0.00000000  1
  Li  Li0  1  0.00000000  0.50000000  0.75000000  1
  Li  Li1  1  0.50000000  0.00000000  0.75000000  1
  Li  Li2  1  0.00000000  0.50000000  0.25000000  1
  Li  Li3  1  0.50000000  0.00000000  0.25000000  1
  Ti  Ti0  1  0.50000000  0.50000000  0.75000000  1
  Ti  Ti1  1  0.50000000  0.50000000  0.25000000  1
  S  S0  1  0.72499986  0.72499986  0.64945373  1
  S  S1  1  0.27500014  0.27500014  0.64945373  1
  S  S2  1  0.72499986  0.72499986  0.35054627  1
  S  S3  1  0.72499986  0.27500014  0.14945373  1
  S  S4  1  0.27500014  0.72499986  0.85054627  1
  S  S5  1  0.27500014  0.27500014  0.35054627  1
  S  S6  1  0.27500014  0.72499986  0.14945373  1
  S  S7  1  0.72499986  0.27500014  0.85054627  1
loop_
_geom_bond_atom_site_label_1
_geom_bond_atom_site_label_2
_geom_bond_distance
_geom_bond_site_symmetry_2
K0 S6 3.400631 1_555
K0 S3 3.400631 1_555
K0 S4 3.400631 1_554
K0 S7 3.400631 1_554
K0 S6 3.581523 1_655
K0 S3 3.581523 1_565
K0 S7 3.581523 1_564
K0 S4 3.581523 1_654
K1 S0 3.400631 1_555
K1 S1 3.400631 1_555
K1 S2 3.400631 1_555
K1 S5 3.400631 1_555
K1 S1 3.581523 1_565
K1 S0 3.581523 1_455
K1 S5 3.581523 1_565
K1 S2 3.581523 1_455
K2 S0 3.400631 1_555
K2 S1 3.400631 1_555
K2 S2 3.400631 1_555
K2 S5 3.400631 1_555
K2 S1 3.581523 1_655
K2 S0 3.581523 1_545
K2 S2 3.581523 1_545
K2 S5 3.581523 1_655
K3 S6 3.400631 1_555
K3 S3 3.400631 1_555
K3 S4 3.400631 1_554
K3 S7 3.400631 1_554
K3 S3 3.581523 1_455
K3 S6 3.581523 1_545
K3 S4 3.581523 1_544
K3 S7 3.581523 1_454
Li0 S4 2.438085 1_555
Li0 S7 2.438085 1_455
Li0 S1 2.438085 1_555
Li0 S0 2.438085 1_455
Li1 S7 2.438085 1_555
Li1 S4 2.438085 1_545
Li1 S1 2.438085 1_555
Li1 S0 2.438085 1_545
Li2 S5 2.438085 1_555
Li2 S2 2.438085 1_455
Li2 S6 2.438085 1_555
Li2 S3 2.438085 1_455
Li3 S5 2.438085 1_555
Li3 S2 2.438085 1_545
Li3 S3 2.438085 1_555
Li3 S6 2.438085 1_545
S0 Ti0 2.257257 1_555
S1 Ti0 2.257257 1_555
S2 Ti1 2.257257 1_555
S3 Ti1 2.257257 1_555
S4 Ti0 2.257257 1_555
S5 Ti1 2.257257 1_555
S6 Ti1 2.257257 1_555
S7 Ti0 2.257257 1_555
