# generated using pymatgen
data_InHg4Se2Br5
_symmetry_space_group_name_H-M   'P 1'
_cell_length_a   8.43487686
_cell_length_b   10.63141251
_cell_length_c   9.16376230
_cell_angle_alpha   90.00000000
_cell_angle_beta   112.66988763
_cell_angle_gamma   90.00000000
_symmetry_Int_Tables_number   1
_chemical_formula_structural   InHg4Se2Br5
_chemical_formula_sum   'In2 Hg8 Se4 Br10'
_cell_volume   758.26890284
_cell_formula_units_Z   2
loop_
 _symmetry_equiv_pos_site_id
 _symmetry_equiv_pos_as_xyz
  1  'x, y, z'
loop_
 _atom_site_type_symbol
 _atom_site_label
 _atom_site_symmetry_multiplicity
 _atom_site_fract_x
 _atom_site_fract_y
 _atom_site_fract_z
 _atom_site_occupancy
  In  In0  1  0.50009571  0.42851892  0.50164121  1
  In  In1  1  0.49990429  0.92851892  0.49835879  1
  Hg  Hg0  1  0.92124489  0.18354694  0.32788894  1
  Hg  Hg1  1  0.07875511  0.68354694  0.67211106  1
  Hg  Hg2  1  0.95748688  0.66849364  0.36533100  1
  Hg  Hg3  1  0.04251312  0.16849364  0.63466900  1
  Hg  Hg4  1  0.49559093  0.18071785  0.96968667  1
  Hg  Hg5  1  0.50440907  0.68071785  0.03031333  1
  Hg  Hg6  1  0.80552836  0.43449554  0.01219806  1
  Hg  Hg7  1  0.19447164  0.93449554  0.98780194  1
  Se  Se0  1  0.80891322  0.19550564  0.02005964  1
  Se  Se1  1  0.19108678  0.69550564  0.97994036  1
  Se  Se2  1  0.18904183  0.16998758  0.94210164  1
  Se  Se3  1  0.81095817  0.66998758  0.05789836  1
  Br  Br0  1  0.83083495  0.92644758  0.68871801  1
  Br  Br1  1  0.16916505  0.42644758  0.31128199  1
  Br  Br2  1  0.83638971  0.43392804  0.69287661  1
  Br  Br3  1  0.16361029  0.93392804  0.30712339  1
  Br  Br4  1  0.40944911  0.46575780  0.74965753  1
  Br  Br5  1  0.59055089  0.96575780  0.25034247  1
  Br  Br6  1  0.59101937  0.38751657  0.25841589  1
  Br  Br7  1  0.40898063  0.88751657  0.74158411  1
  Br  Br8  1  0.47996569  0.17868489  0.57135535  1
  Br  Br9  1  0.52003431  0.67868489  0.42864465  1
loop_
_geom_bond_atom_site_label_1
_geom_bond_atom_site_label_2
_geom_bond_distance
_geom_bond_site_symmetry_2
Hg0 Se0 2.609782 1_555
Hg1 Se1 2.609782 1_555
Hg2 Se3 2.603962 1_555
Hg3 Se2 2.603962 1_555
Hg4 Se2 2.501787 1_555
Hg4 Se0 2.506389 1_556
Hg5 Se3 2.501787 1_555
Hg5 Se1 2.506389 1_554
Hg6 Se3 2.535897 1_555
Hg6 Se0 2.541670 1_555
Hg7 Se2 2.535897 1_565
Hg7 Se1 2.541670 1_555
Br0 In1 2.661145 1_555
Br1 In0 2.661145 1_555
Br2 In0 2.699779 1_555
Br2 Hg6 3.036038 1_556
Br3 In1 2.699779 1_555
Br3 Hg7 3.036038 1_554
Br4 In0 2.691898 1_555
Br5 In1 2.691898 1_555
Br6 In0 2.657757 1_555
Br7 In1 2.657757 1_555
Br8 In0 2.752340 1_555
Br8 In1 2.763336 1_545
Br9 In1 2.752340 1_555
Br9 In0 2.763336 1_555
