# generated using pymatgen
data_AsPb2Br
_symmetry_space_group_name_H-M   'P 1'
_cell_length_a   7.87984870
_cell_length_b   7.87984840
_cell_length_c   7.87984869
_cell_angle_alpha   32.26735439
_cell_angle_beta   32.26735501
_cell_angle_gamma   32.26735245
_symmetry_Int_Tables_number   1
_chemical_formula_structural   AsPb2Br
_chemical_formula_sum   'As1 Pb2 Br1'
_cell_volume   123.95487613
_cell_formula_units_Z   1
loop_
 _symmetry_equiv_pos_site_id
 _symmetry_equiv_pos_as_xyz
  1  'x, y, z'
loop_
 _atom_site_type_symbol
 _atom_site_label
 _atom_site_symmetry_multiplicity
 _atom_site_fract_x
 _atom_site_fract_y
 _atom_site_fract_z
 _atom_site_occupancy
  As  As0  1  0.50000000  0.50000000  0.50000000  1
  Pb  Pb0  1  0.23675105  0.23675105  0.23675105  1
  Pb  Pb1  1  0.76324895  0.76324895  0.76324895  1
  Br  Br0  1  0.00000000  0.00000000  0.00000000  1
loop_
_geom_bond_atom_site_label_1
_geom_bond_atom_site_label_2
_geom_bond_distance
_geom_bond_site_symmetry_2
As0 Pb0 2.975735 1_565
As0 Pb1 2.975735 1_545
As0 Pb0 2.975736 1_655
As0 Pb1 2.975736 1_455
As0 Pb0 2.975736 1_556
As0 Pb1 2.975736 1_554
Br0 Pb1 3.326991 1_454
Br0 Pb0 3.326991 1_545
Br0 Pb1 3.326992 1_544
Br0 Pb0 3.326992 1_455
Br0 Pb1 3.326992 1_445
Br0 Pb0 3.326992 1_554
