# generated using pymatgen
data_Ca12Si8Ir5Pd3
_symmetry_space_group_name_H-M   'P 1'
_cell_length_a   5.74893516
_cell_length_b   7.78105758
_cell_length_c   13.29352506
_cell_angle_alpha   89.80604538
_cell_angle_beta   90.09283239
_cell_angle_gamma   90.08021724
_symmetry_Int_Tables_number   1
_chemical_formula_structural   Ca12Si8Ir5Pd3
_chemical_formula_sum   'Ca12 Si8 Ir5 Pd3'
_cell_volume   594.65177285
_cell_formula_units_Z   1
loop_
 _symmetry_equiv_pos_site_id
 _symmetry_equiv_pos_as_xyz
  1  'x, y, z'
loop_
 _atom_site_type_symbol
 _atom_site_label
 _atom_site_symmetry_multiplicity
 _atom_site_fract_x
 _atom_site_fract_y
 _atom_site_fract_z
 _atom_site_occupancy
  Ca  Ca0  1  0.13730464  0.61026667  0.10162183  1
  Ca  Ca1  1  0.13854096  0.88577564  0.89716264  1
  Ca  Ca2  1  0.86024519  0.10893789  0.39627729  1
  Ca  Ca3  1  0.86195113  0.39087651  0.60418087  1
  Ca  Ca4  1  0.87450933  0.39100735  0.89868600  1
  Ca  Ca5  1  0.87442387  0.11647391  0.10020328  1
  Ca  Ca6  1  0.12389124  0.88293195  0.60114763  1
  Ca  Ca7  1  0.12469737  0.61581607  0.39879257  1
  Ca  Ca8  1  0.35985210  0.26900093  0.24927282  1
  Ca  Ca9  1  0.36506094  0.23018765  0.75324505  1
  Ca  Ca10  1  0.63793721  0.76706947  0.24937201  1
  Ca  Ca11  1  0.64081766  0.72979099  0.75025514  1
  Si  Si0  1  0.42171177  0.25721592  0.99513542  1
  Si  Si1  1  0.58057480  0.75051431  0.50024619  1
  Si  Si2  1  0.60077331  0.74519082  0.99616088  1
  Si  Si3  1  0.38407715  0.24966352  0.50087234  1
  Si  Si4  1  0.83769753  0.41657764  0.24680919  1
  Si  Si5  1  0.83980502  0.08112385  0.75501816  1
  Si  Si6  1  0.16398910  0.91822507  0.25393190  1
  Si  Si7  1  0.17247540  0.57712263  0.74764490  1
  Ir  Ir0  1  0.63656996  0.47643842  0.08937727  1
  Ir  Ir1  1  0.63749472  0.02252469  0.91381400  1
  Ir  Ir2  1  0.36451122  0.97853419  0.41386549  1
  Ir  Ir3  1  0.36467752  0.52208894  0.58677151  1
  Ir  Ir4  1  0.36836037  0.53013926  0.90755791  1
  Pd  Pd0  1  0.36858882  0.97689897  0.09131391  1
  Pd  Pd1  1  0.62939541  0.02918896  0.59326877  1
  Pd  Pd2  1  0.63006826  0.47041577  0.40799303  1
loop_
_geom_bond_atom_site_label_1
_geom_bond_atom_site_label_2
_geom_bond_distance
_geom_bond_site_symmetry_2
Ca0 Ir4 2.972005 1_554
Ca0 Si4 2.991156 1_455
Ca0 Ir0 3.059442 1_555
Ca0 Ir0 3.064140 1_455
Ca0 Si6 3.145772 1_555
Ca0 Pd0 3.148401 1_555
Ca1 Si5 2.967810 1_465
Ca1 Pd0 2.985272 1_556
Ca1 Ir1 3.065977 1_565
Ca1 Ir4 3.070719 1_555
Ca1 Ir1 3.080686 1_465
Ca1 Si7 3.129134 1_555
Ca2 Si6 2.978086 1_645
Ca2 Pd1 3.000327 1_555
Ca2 Ir2 3.032964 1_545
Ca2 Ir2 3.081044 1_645
Ca2 Si4 3.108494 1_555
Ca2 Pd2 3.114568 1_555
Ca3 Si7 2.987418 1_655
Ca3 Pd2 2.990328 1_555
Ca3 Ir3 3.045172 1_555
Ca3 Ir3 3.072648 1_655
Ca3 Pd1 3.117759 1_555
Ca3 Si5 3.132603 1_555
Ca4 Ir0 2.960446 1_556
Ca4 Si7 3.007920 1_655
Ca4 Ir4 3.039355 1_655
Ca4 Si0 3.081885 1_555
Ca4 Si5 3.087058 1_555
Ca4 Ir4 3.108658 1_555
Ca4 Ir1 3.178658 1_555
Ca5 Ir1 2.920201 1_554
Ca5 Pd0 3.045469 1_645
Ca5 Si6 3.049897 1_645
Ca5 Si4 3.054367 1_555
Ca5 Pd0 3.104980 1_545
Ca5 Ir0 3.121368 1_555
Ca5 Si0 3.147946 1_554
Ca6 Ir2 2.942950 1_555
Ca6 Si5 3.044463 1_465
Ca6 Pd1 3.065131 1_465
Ca6 Si7 3.082446 1_555
Ca6 Pd1 3.121296 1_565
Ca6 Si1 3.127635 1_555
Ca6 Ir3 3.138708 1_555
Ca7 Ir3 2.942631 1_555
Ca7 Si4 3.034952 1_455
Ca7 Si6 3.043932 1_555
Ca7 Pd2 3.061396 1_455
Ca7 Pd2 3.121393 1_555
Ca7 Si1 3.126739 1_555
Ca7 Ir2 3.146185 1_555
Ca8 Si6 2.951586 1_545
Ca8 Si4 2.976146 1_555
Ca8 Pd2 3.053890 1_555
Ca8 Pd0 3.100111 1_545
Ca8 Ir0 3.103969 1_555
Ca8 Ir2 3.140519 1_545
Ca8 Si4 3.215548 1_455
Ca8 Si3 3.350198 1_555
Ca8 Si0 3.399180 1_554
Ca9 Si7 2.919847 1_555
Ca9 Si5 2.967030 1_555
Ca9 Pd1 3.052480 1_555
Ca9 Ir1 3.097263 1_555
Ca9 Ir4 3.112537 1_555
Ca9 Ir3 3.165792 1_555
Ca9 Si5 3.233336 1_455
Ca9 Si0 3.239015 1_555
Ca9 Si3 3.359780 1_555
Ca10 Si4 2.960935 1_555
Ca10 Si6 2.970012 1_555
Ca10 Pd0 3.074342 1_555
Ca10 Ir0 3.109696 1_555
Ca10 Pd2 3.121473 1_555
Ca10 Ir2 3.162703 1_555
Ca10 Si6 3.243910 1_655
Ca10 Si1 3.353822 1_555
Ca10 Si2 3.377350 1_554
Ca11 Si7 2.941559 1_555
Ca11 Si5 2.962801 1_565
Ca11 Ir4 3.036664 1_555
Ca11 Pd1 3.123096 1_565
Ca11 Ir3 3.140166 1_555
Ca11 Ir1 3.154345 1_565
Ca11 Si2 3.280028 1_555
Ca11 Si7 3.281026 1_655
Ca11 Si1 3.344308 1_555
Ir0 Si4 2.433289 1_555
Ir0 Si2 2.435932 1_554
Ir0 Si0 2.451226 1_554
Ir1 Si2 2.425515 1_545
Ir1 Si5 2.452901 1_555
Ir1 Si0 2.463011 1_555
Ir2 Si3 2.411762 1_565
Ir2 Si1 2.448912 1_555
Ir2 Si6 2.463058 1_555
Ir3 Si3 2.413963 1_555
Ir3 Si7 2.448058 1_555
Ir3 Si1 2.450974 1_555
Ir4 Si7 2.430845 1_555
Ir4 Si0 2.437870 1_555
Ir4 Si2 2.444293 1_555
Pd0 Si6 2.503046 1_555
Pd0 Si0 2.542823 1_564
Pd0 Si2 2.580692 1_554
Pd1 Si5 2.499208 1_555
Pd1 Si1 2.514987 1_545
Pd1 Si3 2.535267 1_555
Pd2 Si4 2.491429 1_555
Pd2 Si1 2.521104 1_555
Pd2 Si3 2.541522 1_555
