# generated using pymatgen
data_Nb12Al9Pd3C4
_symmetry_space_group_name_H-M   'P 1'
_cell_length_a   8.36686560
_cell_length_b   8.37842261
_cell_length_c   8.36686586
_cell_angle_alpha   60.04561795
_cell_angle_beta   59.99999897
_cell_angle_gamma   60.04562055
_symmetry_Int_Tables_number   1
_chemical_formula_structural   Nb12Al9Pd3C4
_chemical_formula_sum   'Nb12 Al9 Pd3 C4'
_cell_volume   415.02282084
_cell_formula_units_Z   1
loop_
 _symmetry_equiv_pos_site_id
 _symmetry_equiv_pos_as_xyz
  1  'x, y, z'
loop_
 _atom_site_type_symbol
 _atom_site_label
 _atom_site_symmetry_multiplicity
 _atom_site_fract_x
 _atom_site_fract_y
 _atom_site_fract_z
 _atom_site_occupancy
  Nb  Nb0  1  0.81828097  0.82016587  0.18077658  1
  Nb  Nb1  1  0.19338084  0.18014974  0.81323521  1
  Nb  Nb2  1  0.81323521  0.18014974  0.81323521  1
  Nb  Nb3  1  0.18077658  0.82016587  0.18077658  1
  Nb  Nb4  1  0.18077658  0.82016587  0.81828097  1
  Nb  Nb5  1  0.81323521  0.18014974  0.19338084  1
  Nb  Nb6  1  0.43171903  0.42983413  0.06922342  1
  Nb  Nb7  1  0.05661916  0.06985026  0.43676479  1
  Nb  Nb8  1  0.43676479  0.06985026  0.43676479  1
  Nb  Nb9  1  0.06922342  0.42983413  0.06922342  1
  Nb  Nb10  1  0.06922342  0.42983413  0.43171903  1
  Nb  Nb11  1  0.43676479  0.06985026  0.05661916  1
  Al  Al0  1  0.62500000  0.12500000  0.62500000  1
  Al  Al1  1  0.75156974  0.42538126  0.41152500  1
  Al  Al2  1  0.41361805  0.75914885  0.41361805  1
  Al  Al3  1  0.41152500  0.42538126  0.75156974  1
  Al  Al4  1  0.41152500  0.42538126  0.41152500  1
  Al  Al5  1  0.49843026  0.82461874  0.83847500  1
  Al  Al6  1  0.83638195  0.49085115  0.83638195  1
  Al  Al7  1  0.83847500  0.82461874  0.49843026  1
  Al  Al8  1  0.83847500  0.82461874  0.83847500  1
  Pd  Pd0  1  0.12500000  0.62500000  0.62500000  1
  Pd  Pd1  1  0.62500000  0.62500000  0.12500000  1
  Pd  Pd2  1  0.62500000  0.62500000  0.62500000  1
  C  C0  1  0.62500000  0.12500000  0.12500000  1
  C  C1  1  0.12500000  0.62500000  0.12500000  1
  C  C2  1  0.12500000  0.12500000  0.62500000  1
  C  C3  1  0.12500000  0.12500000  0.12500000  1
loop_
_geom_bond_atom_site_label_1
_geom_bond_atom_site_label_2
_geom_bond_distance
_geom_bond_site_symmetry_2
Al0 Al8 2.631845 1_545
Al0 Al4 2.631845 1_555
Al0 Al1 2.631850 1_555
Al0 Al5 2.631850 1_545
Al0 Al3 2.631850 1_555
Al0 Al7 2.631850 1_545
Al0 Nb7 3.017981 1_655
Al0 Nb1 3.017981 1_555
Al0 Nb11 3.017981 1_556
Al0 Nb5 3.017981 1_555
Al0 Nb2 3.017988 1_555
Al0 Nb8 3.017988 1_555
Al1 Pd2 2.536109 1_555
Al1 Pd1 2.536116 1_555
Al2 Pd2 2.583985 1_555
Al2 Pd0 2.584005 1_555
Al2 Pd1 2.584005 1_555
Al3 Pd2 2.536109 1_555
Al3 Pd0 2.536116 1_555
Al4 Pd1 2.536111 1_555
Al4 Pd0 2.536111 1_555
Al5 Pd2 2.536109 1_555
Al5 Pd1 2.536116 1_556
Al6 Pd2 2.583985 1_555
Al6 Pd0 2.584005 1_655
Al6 Pd1 2.584005 1_556
Al7 Pd2 2.536109 1_555
Al7 Pd0 2.536116 1_655
Al8 Pd1 2.536111 1_556
Al8 Pd0 2.536111 1_655
C0 Nb6 2.189956 1_555
C0 Nb0 2.189956 1_545
C0 Nb8 2.216540 1_555
C0 Nb2 2.216540 1_554
C0 Nb5 2.216546 1_555
C0 Nb11 2.216546 1_555
C1 Nb3 2.202560 1_555
C1 Nb9 2.202560 1_555
C1 Nb10 2.202560 1_555
C1 Nb4 2.202560 1_554
C1 Nb6 2.202560 1_555
C1 Nb0 2.202560 1_455
C2 Nb10 2.189956 1_555
C2 Nb4 2.189956 1_545
C2 Nb8 2.216540 1_555
C2 Nb2 2.216540 1_455
C2 Nb1 2.216546 1_555
C2 Nb7 2.216546 1_555
C3 Nb9 2.189956 1_555
C3 Nb3 2.189956 1_545
C3 Nb11 2.216538 1_555
C3 Nb5 2.216538 1_455
C3 Nb7 2.216538 1_555
C3 Nb1 2.216538 1_554
