# generated using pymatgen
data_TaNbAl3Cu
_symmetry_space_group_name_H-M   'P 1'
_cell_length_a   4.94838407
_cell_length_b   4.94838528
_cell_length_c   4.94838586
_cell_angle_alpha   62.18049061
_cell_angle_beta   62.18048529
_cell_angle_gamma   62.18049011
_symmetry_Int_Tables_number   1
_chemical_formula_structural   TaNbAl3Cu
_chemical_formula_sum   'Ta1 Nb1 Al3 Cu1'
_cell_volume   89.85248072
_cell_formula_units_Z   1
loop_
 _symmetry_equiv_pos_site_id
 _symmetry_equiv_pos_as_xyz
  1  'x, y, z'
loop_
 _atom_site_type_symbol
 _atom_site_label
 _atom_site_symmetry_multiplicity
 _atom_site_fract_x
 _atom_site_fract_y
 _atom_site_fract_z
 _atom_site_occupancy
  Ta  Ta0  1  0.87732504  0.87732504  0.87732504  1
  Nb  Nb0  1  0.12240607  0.12240607  0.12240607  1
  Al  Al0  1  0.99992445  0.50011277  0.50011277  1
  Al  Al1  1  0.50011277  0.50011277  0.99992445  1
  Al  Al2  1  0.50011277  0.99992445  0.50011277  1
  Cu  Cu0  1  0.50011790  0.50011790  0.50011790  1
loop_
_geom_bond_atom_site_label_1
_geom_bond_atom_site_label_2
_geom_bond_distance
_geom_bond_site_symmetry_2
Nb0 Ta0 2.920734 1_444
Nb0 Ta0 3.132431 1_544
Nb0 Ta0 3.132432 1_454
Nb0 Ta0 3.132432 1_445
Al0 Cu0 2.473211 1_555
Al0 Cu0 2.475173 1_655
Al0 Al1 2.554322 1_555
Al0 Al2 2.554322 1_555
Al0 Al1 2.556247 1_654
Al0 Al2 2.556247 1_645
Al0 Ta0 2.911099 1_555
Al0 Nb0 2.915452 1_655
Al0 Nb0 2.942063 1_665
Al0 Nb0 2.942063 1_656
Al0 Ta0 2.944244 1_545
Al0 Ta0 2.944245 1_554
Al1 Cu0 2.473212 1_555
Al1 Cu0 2.475174 1_556
Al1 Al2 2.554322 1_555
Al1 Al2 2.556247 1_546
Al1 Ta0 2.911098 1_555
Al1 Nb0 2.915452 1_556
Al1 Nb0 2.942063 1_656
Al1 Nb0 2.942063 1_566
Al1 Ta0 2.944244 1_455
Al1 Ta0 2.944244 1_545
Al2 Cu0 2.473212 1_555
Al2 Cu0 2.475174 1_565
Al2 Ta0 2.911098 1_555
Al2 Nb0 2.915452 1_565
Al2 Nb0 2.942062 1_665
Al2 Nb0 2.942063 1_566
Al2 Ta0 2.944244 1_455
Al2 Ta0 2.944245 1_554
Cu0 Ta0 2.996557 1_455
Cu0 Ta0 2.996557 1_554
Cu0 Ta0 2.996558 1_545
Cu0 Nb0 2.997612 1_655
Cu0 Nb0 2.997613 1_556
Cu0 Nb0 2.997613 1_565
