# generated using pymatgen
data_K4Si12SbP11
_symmetry_space_group_name_H-M   'P 1'
_cell_length_a   3.56291218
_cell_length_b   10.06847026
_cell_length_c   19.04001214
_cell_angle_alpha   89.91670316
_cell_angle_beta   90.00000000
_cell_angle_gamma   90.00000000
_symmetry_Int_Tables_number   1
_chemical_formula_structural   K4Si12SbP11
_chemical_formula_sum   'K4 Si12 Sb1 P11'
_cell_volume   683.02306745
_cell_formula_units_Z   1
loop_
 _symmetry_equiv_pos_site_id
 _symmetry_equiv_pos_as_xyz
  1  'x, y, z'
loop_
 _atom_site_type_symbol
 _atom_site_label
 _atom_site_symmetry_multiplicity
 _atom_site_fract_x
 _atom_site_fract_y
 _atom_site_fract_z
 _atom_site_occupancy
  K  K0  1  0.00000000  0.32795340  0.30088525  1
  K  K1  1  0.00000000  0.67135607  0.69817165  1
  K  K2  1  0.00000000  0.17234129  0.80180542  1
  K  K3  1  0.00000000  0.84814535  0.21574402  1
  Si  Si0  1  0.50000000  0.39963100  0.02869498  1
  Si  Si1  1  0.50000000  0.58737797  0.95809712  1
  Si  Si2  1  0.50000000  0.09593234  0.53580213  1
  Si  Si3  1  0.50000000  0.90122298  0.46784243  1
  Si  Si4  1  0.00000000  0.11582173  0.01014972  1
  Si  Si5  1  0.00000000  0.89408141  0.98098978  1
  Si  Si6  1  0.00000000  0.38355751  0.51536185  1
  Si  Si7  1  0.00000000  0.61166793  0.48874582  1
  Si  Si8  1  0.00000000  0.18457624  0.12801532  1
  Si  Si9  1  0.00000000  0.81934470  0.86462023  1
  Si  Si10  1  0.00000000  0.31696044  0.63310727  1
  Si  Si11  1  0.00000000  0.67717160  0.37108586  1
  Sb  Sb0  1  0.50000000  0.77742176  0.05170017  1
  P  P0  1  0.50000000  0.12713815  0.19177020  1
  P  P1  1  0.50000000  0.88139055  0.80181045  1
  P  P2  1  0.50000000  0.37967831  0.69512563  1
  P  P3  1  0.50000000  0.61772863  0.30805729  1
  P  P4  1  0.50000000  0.28152453  0.46298711  1
  P  P5  1  0.50000000  0.71531583  0.54009776  1
  P  P6  1  0.50000000  0.21654951  0.95793501  1
  P  P7  1  0.00000000  0.40796830  0.10259065  1
  P  P8  1  0.00000000  0.59335538  0.88503694  1
  P  P9  1  0.00000000  0.09217368  0.60943785  1
  P  P10  1  0.00000000  0.90261242  0.39433409  1
loop_
_geom_bond_atom_site_label_1
_geom_bond_atom_site_label_2
_geom_bond_distance
_geom_bond_site_symmetry_2
K0 P0 3.404425 1_555
K0 P0 3.404425 1_455
K0 P3 3.421366 1_455
K0 P3 3.421366 1_555
K0 P4 3.593593 1_555
K0 P4 3.593593 1_455
K1 P1 3.398770 1_455
K1 P1 3.398770 1_555
K1 P2 3.435395 1_555
K1 P2 3.435395 1_455
K1 P5 3.524781 1_555
K1 P5 3.524781 1_455
K1 P8 3.642447 1_555
K2 P2 3.412463 1_555
K2 P2 3.412463 1_455
K2 P1 3.428577 1_445
K2 P1 3.428577 1_545
K2 P6 3.494647 1_555
K2 P6 3.494647 1_455
K3 P0 3.356914 1_465
K3 P0 3.356914 1_565
K3 P3 3.410746 1_455
K3 P3 3.410746 1_555
K3 P10 3.445082 1_555
K3 Sb0 3.666431 1_555
K3 Sb0 3.666431 1_455
Si0 Si1 2.317924 1_554
Si2 Si3 2.350523 1_545
Si4 Si5 2.301369 1_544
Si4 Si8 2.349467 1_555
Si5 Si9 2.341006 1_555
Si6 Si7 2.351248 1_555
Si10 Si6 2.339068 1_555
Si11 Si7 2.334391 1_555
Sb0 Si5 2.522148 1_654
Sb0 Si5 2.522148 1_554
Sb0 Si1 2.616764 1_554
P0 Si8 2.231486 1_655
P0 Si8 2.231486 1_555
P1 Si9 2.234244 1_655
P1 Si9 2.234244 1_555
P2 Si10 2.229097 1_555
P2 Si10 2.229097 1_655
P3 Si11 2.230254 1_555
P3 Si11 2.230254 1_655
P4 Si6 2.286128 1_555
P4 Si6 2.286128 1_655
P4 Si2 2.325155 1_555
P5 Si7 2.285078 1_555
P5 Si7 2.285078 1_655
P5 Si3 2.321383 1_555
P6 Si4 2.277625 1_656
P6 Si4 2.277625 1_556
P6 Si0 2.284798 1_556
P7 Si0 2.271685 1_555
P7 Si0 2.271685 1_455
P7 Si8 2.300032 1_555
P8 Si1 2.260980 1_455
P8 Si1 2.260980 1_555
P8 Si9 2.307777 1_555
P9 Si2 2.267275 1_555
P9 Si2 2.267275 1_455
P9 Si10 2.308334 1_555
P10 Si3 2.265525 1_555
P10 Si3 2.265525 1_455
P10 Si11 2.313234 1_555
