# generated using pymatgen
data_GaCuAg2F7
_symmetry_space_group_name_H-M   'P 1'
_cell_length_a   7.41253960
_cell_length_b   7.41324136
_cell_length_c   7.41301063
_cell_angle_alpha   122.93440604
_cell_angle_beta   116.42609563
_cell_angle_gamma   90.64722830
_symmetry_Int_Tables_number   1
_chemical_formula_structural   GaCuAg2F7
_chemical_formula_sum   'Ga2 Cu2 Ag4 F14'
_cell_volume   288.25908569
_cell_formula_units_Z   2
loop_
 _symmetry_equiv_pos_site_id
 _symmetry_equiv_pos_as_xyz
  1  'x, y, z'
loop_
 _atom_site_type_symbol
 _atom_site_label
 _atom_site_symmetry_multiplicity
 _atom_site_fract_x
 _atom_site_fract_y
 _atom_site_fract_z
 _atom_site_occupancy
  Ga  Ga0  1  0.50000000  0.00000000  0.50000000  1
  Ga  Ga1  1  0.00000000  0.50000000  0.50000000  1
  Cu  Cu0  1  0.00000000  0.00000000  0.50000000  1
  Cu  Cu1  1  0.00000000  0.50000000  0.00000000  1
  Ag  Ag0  1  0.00000000  0.00000000  0.00000000  1
  Ag  Ag1  1  0.50000000  0.50000000  0.00000000  1
  Ag  Ag2  1  0.50000000  0.00000000  0.00000000  1
  Ag  Ag3  1  0.50000000  0.50000000  0.50000000  1
  F  F0  1  0.36828207  0.08631067  0.28202380  1
  F  F1  1  0.69569616  0.41371493  0.28195054  1
  F  F2  1  0.68006091  0.30821343  0.75916313  1
  F  F3  1  0.95086127  0.19175080  0.37175955  1
  F  F4  1  0.95080548  0.57915626  0.75906983  1
  F  F5  1  0.68001054  0.92084511  0.37176029  1
  F  F6  1  0.31998946  0.07915489  0.62823971  1
  F  F7  1  0.04919452  0.42084374  0.24093017  1
  F  F8  1  0.04913873  0.80824920  0.62824045  1
  F  F9  1  0.31993909  0.69178657  0.24083687  1
  F  F10  1  0.91200638  0.74997658  0.16208101  1
  F  F11  1  0.63171793  0.91368933  0.71797620  1
  F  F12  1  0.30430384  0.58628507  0.71804946  1
  F  F13  1  0.08799362  0.25002342  0.83791899  1
loop_
_geom_bond_atom_site_label_1
_geom_bond_atom_site_label_2
_geom_bond_distance
_geom_bond_site_symmetry_2
Cu0 F10 1.898857 1_445
Cu0 F13 1.898857 1_555
Cu0 F6 2.056476 1_555
Cu0 F5 2.056476 1_445
Cu0 F8 2.056680 1_545
Cu0 F3 2.056680 1_455
Cu1 F13 1.899203 1_554
Cu1 F10 1.899203 1_455
Cu1 F9 2.056268 1_555
Cu1 F2 2.056268 1_454
Cu1 F4 2.057160 1_454
Cu1 F7 2.057160 1_555
Ag0 F0 2.378786 1_555
Ag0 F11 2.378786 1_444
Ag0 F7 2.528217 1_555
Ag0 F4 2.528217 1_444
Ag0 F3 2.528554 1_455
Ag0 F8 2.528554 1_544
Ag1 F12 2.378648 1_554
Ag1 F1 2.378648 1_555
Ag1 F5 2.528347 1_555
Ag1 F6 2.528347 1_554
Ag1 F2 2.528645 1_554
Ag1 F9 2.528645 1_555
Ag2 F1 2.471769 1_555
Ag2 F12 2.471769 1_544
Ag2 F11 2.471827 1_544
Ag2 F0 2.471827 1_555
Ag3 F11 2.471666 1_555
Ag3 F0 2.471666 1_555
Ag3 F1 2.471825 1_555
Ag3 F12 2.471825 1_555
F0 Ga0 1.925553 1_555
F1 Ga1 1.925557 1_655
F2 Ga0 1.889075 1_555
F3 Ga1 1.889199 1_655
F4 Ga1 1.889012 1_655
F5 Ga0 1.889095 1_565
F6 Ga0 1.889095 1_555
F7 Ga1 1.889012 1_555
F8 Ga1 1.889199 1_555
F9 Ga0 1.889075 1_565
F11 Ga0 1.925553 1_565
F12 Ga1 1.925557 1_555
