# generated using pymatgen
data_LiY4MnC8
_symmetry_space_group_name_H-M   'P 1'
_cell_length_a   6.62893784
_cell_length_b   6.62893919
_cell_length_c   6.62893894
_cell_angle_alpha   134.02845706
_cell_angle_beta   110.32754754
_cell_angle_gamma   87.56980468
_symmetry_Int_Tables_number   1
_chemical_formula_structural   LiY4MnC8
_chemical_formula_sum   'Li1 Y4 Mn1 C8'
_cell_volume   187.64262998
_cell_formula_units_Z   1
loop_
 _symmetry_equiv_pos_site_id
 _symmetry_equiv_pos_as_xyz
  1  'x, y, z'
loop_
 _atom_site_type_symbol
 _atom_site_label
 _atom_site_symmetry_multiplicity
 _atom_site_fract_x
 _atom_site_fract_y
 _atom_site_fract_z
 _atom_site_occupancy
  Li  Li0  1  0.00000000  0.25000000  0.25000000  1
  Y  Y0  1  0.51135414  0.35330592  0.15479079  1
  Y  Y1  1  0.48864586  0.64343765  0.84195278  1
  Y  Y2  1  0.19851513  0.85656235  0.34520921  1
  Y  Y3  1  0.80148487  0.14669408  0.65804722  1
  Mn  Mn0  1  0.00000000  0.75000000  0.75000000  1
  C  C0  1  0.26088442  0.02340537  0.11827482  1
  C  C1  1  0.73911558  0.85738940  0.76251895  1
  C  C2  1  0.90513055  0.64261060  0.38172518  1
  C  C3  1  0.09486945  0.47659463  0.73748105  1
  C  C4  1  0.46816071  0.12920983  0.34131737  1
  C  C5  1  0.53183929  0.87315666  0.66105012  1
  C  C6  1  0.78789246  0.62684334  0.15868263  1
  C  C7  1  0.21210754  0.37079017  0.83894988  1
loop_
_geom_bond_atom_site_label_1
_geom_bond_atom_site_label_2
_geom_bond_distance
_geom_bond_site_symmetry_2
C0 C4 1.339674 1_555
C0 Mn0 1.848686 1_544
C0 Li0 2.239464 1_555
C0 Y2 2.537869 1_545
C0 Y0 2.625014 1_555
C0 Y1 2.676706 1_544
C1 C5 1.339672 1_555
C1 Mn0 1.848682 1_655
C1 Li0 2.239470 1_666
C1 Y3 2.537864 1_565
C1 Y1 2.625021 1_555
C1 Y0 2.676703 1_555
C2 C6 1.339669 1_555
C2 Mn0 1.848689 1_655
C2 Li0 2.239470 1_655
C2 Y0 2.537866 1_555
C2 Y2 2.625006 1_655
C2 Y3 2.676706 1_565
C3 C7 1.339660 1_555
C3 Mn0 1.848692 1_555
C3 Li0 2.239476 1_555
C3 Y1 2.537867 1_555
C3 Y3 2.625002 1_455
C3 Y2 2.676701 1_556
C4 Y3 2.400877 1_555
C4 Y0 2.579317 1_555
C4 Y1 2.579358 1_555
C4 Y1 2.608405 1_544
C4 Y2 2.614016 1_545
C5 Y2 2.400881 1_555
C5 Y1 2.579311 1_555
C5 Y0 2.579350 1_566
C5 Y0 2.608412 1_555
C5 Y3 2.614020 1_565
C6 Y1 2.400881 1_554
C6 Y2 2.579315 1_655
C6 Y3 2.579355 1_554
C6 Y3 2.608408 1_565
C6 Y0 2.614011 1_555
C7 Y0 2.400885 1_556
C7 Y3 2.579317 1_455
C7 Y2 2.579353 1_545
C7 Y2 2.608410 1_556
C7 Y1 2.614006 1_555
