# generated using pymatgen
data_Hf4Al7V
_symmetry_space_group_name_H-M   'P 1'
_cell_length_a   5.25671503
_cell_length_b   5.25674531
_cell_length_c   8.59511807
_cell_angle_alpha   90.00029985
_cell_angle_beta   89.99931719
_cell_angle_gamma   119.99971635
_symmetry_Int_Tables_number   1
_chemical_formula_structural   Hf4Al7V
_chemical_formula_sum   'Hf4 Al7 V1'
_cell_volume   205.69090556
_cell_formula_units_Z   1
loop_
 _symmetry_equiv_pos_site_id
 _symmetry_equiv_pos_as_xyz
  1  'x, y, z'
loop_
 _atom_site_type_symbol
 _atom_site_label
 _atom_site_symmetry_multiplicity
 _atom_site_fract_x
 _atom_site_fract_y
 _atom_site_fract_z
 _atom_site_occupancy
  Hf  Hf0  1  0.33333571  0.66666636  0.06256330  1
  Hf  Hf1  1  0.33333476  0.66666790  0.44454523  1
  Hf  Hf2  1  0.66666846  0.33333296  0.55546574  1
  Hf  Hf3  1  0.66666824  0.33333361  0.93744954  1
  Al  Al0  1  0.33967436  0.16983366  0.24662681  1
  Al  Al1  1  0.83016078  0.16983651  0.24663206  1
  Al  Al2  1  0.83016425  0.66032342  0.24662782  1
  Al  Al3  1  0.99998392  0.00000079  0.49995636  1
  Al  Al4  1  0.16982342  0.33964069  0.75340517  1
  Al  Al5  1  0.16982085  0.83018538  0.75340801  1
  Al  Al6  1  0.66036366  0.83018237  0.75340318  1
  V  V0  1  0.00000158  0.99999735  0.99991977  1
loop_
_geom_bond_atom_site_label_1
_geom_bond_atom_site_label_2
_geom_bond_distance
_geom_bond_site_symmetry_2
Hf0 V0 3.082356 1_654
Hf0 V0 3.082359 1_554
Hf0 V0 3.082393 1_544
Hf0 Hf3 3.219838 1_554
Hf0 Hf3 3.219872 1_454
Hf0 Hf3 3.219876 1_564
Hf0 Hf1 3.283180 1_555
Hf1 Hf2 3.181182 1_455
Hf1 Hf2 3.181204 1_565
Hf1 Hf2 3.181207 1_555
Hf2 Hf3 3.283196 1_555
Hf3 V0 3.082100 1_545
Hf3 V0 3.082110 1_655
Hf3 V0 3.082120 1_645
Al0 Al1 2.578340 1_555
Al0 Al2 2.578384 1_555
Al0 V0 2.624439 1_544
Al0 Al3 2.670660 1_455
Al0 Al2 2.678369 1_445
Al0 Al1 2.678375 1_455
Al0 Hf2 3.043437 1_555
Al0 Hf3 3.045945 1_554
Al0 Hf0 3.067891 1_545
Al0 Hf0 3.067923 1_555
Al0 Hf1 3.130968 1_545
Al0 Hf1 3.130989 1_555
Al1 Al2 2.578356 1_555
Al1 V0 2.624468 1_644
Al1 Al3 2.670565 1_555
Al1 Al2 2.678390 1_545
Al1 Hf2 3.043358 1_555
Al1 Hf3 3.046001 1_554
Al1 Hf0 3.067932 1_545
Al1 Hf0 3.067935 1_655
Al1 Hf1 3.130936 1_545
Al1 Hf1 3.130979 1_655
Al2 V0 2.624440 1_654
Al2 Al3 2.670638 1_565
Al2 Hf2 3.043410 1_555
Al2 Hf3 3.045963 1_554
Al2 Hf0 3.067882 1_655
Al2 Hf0 3.067914 1_555
Al2 Hf1 3.130952 1_555
Al2 Hf1 3.130971 1_655
Al3 Al6 2.671297 1_545
Al3 Al4 2.671383 1_655
Al3 Al5 2.671440 1_645
Al3 Hf1 3.072043 1_545
Al3 Hf1 3.072135 1_655
Al3 Hf2 3.072153 1_555
Al3 Hf1 3.072184 1_645
Al3 Hf2 3.072269 1_545
Al3 Hf2 3.072333 1_655
Al4 Al6 2.578653 1_555
Al4 Al5 2.578675 1_555
Al4 V0 2.623014 1_545
Al4 Al5 2.678070 1_545
Al4 Al6 2.678100 1_445
Al4 Hf1 3.043657 1_555
Al4 Hf0 3.045891 1_556
Al4 Hf3 3.067799 1_455
Al4 Hf3 3.067816 1_555
Al4 Hf2 3.131041 1_555
Al4 Hf2 3.131084 1_455
Al5 Al6 2.578652 1_555
Al5 V0 2.622944 1_555
Al5 Al6 2.678063 1_455
Al5 Hf1 3.043671 1_555
Al5 Hf0 3.045895 1_556
Al5 Hf3 3.067810 1_565
Al5 Hf3 3.067811 1_455
Al5 Hf2 3.131072 1_565
Al5 Hf2 3.131112 1_455
Al6 V0 2.623023 1_655
Al6 Hf1 3.043657 1_555
Al6 Hf0 3.045892 1_556
Al6 Hf3 3.067818 1_565
Al6 Hf3 3.067841 1_555
Al6 Hf2 3.131065 1_565
Al6 Hf2 3.131066 1_555
