# generated using pymatgen
data_Nb3In2(BrCl2)3
_symmetry_space_group_name_H-M   'P 1'
_cell_length_a   10.01177737
_cell_length_b   10.01177767
_cell_length_c   9.54315458
_cell_angle_alpha   77.72858682
_cell_angle_beta   77.72858415
_cell_angle_gamma   116.25084701
_symmetry_Int_Tables_number   1
_chemical_formula_structural   Nb3In2(BrCl2)3
_chemical_formula_sum   'Nb6 In4 Br6 Cl12'
_cell_volume   785.34978882
_cell_formula_units_Z   2
loop_
 _symmetry_equiv_pos_site_id
 _symmetry_equiv_pos_as_xyz
  1  'x, y, z'
loop_
 _atom_site_type_symbol
 _atom_site_label
 _atom_site_symmetry_multiplicity
 _atom_site_fract_x
 _atom_site_fract_y
 _atom_site_fract_z
 _atom_site_occupancy
  Nb  Nb0  1  0.61197379  0.61197379  0.13664668  1
  Nb  Nb1  1  0.38802621  0.38802621  0.86335332  1
  Nb  Nb2  1  0.45613880  0.28449324  0.13872109  1
  Nb  Nb3  1  0.54386120  0.71550676  0.86127891  1
  Nb  Nb4  1  0.71550676  0.54386120  0.86127891  1
  Nb  Nb5  1  0.28449324  0.45613880  0.13872109  1
  In  In0  1  0.73435977  0.04362035  0.32258812  1
  In  In1  1  0.26564023  0.95637965  0.67741188  1
  In  In2  1  0.95637965  0.26564023  0.67741188  1
  In  In3  1  0.04362035  0.73435977  0.32258812  1
  Br  Br0  1  0.71354556  0.28645444  0.00000000  1
  Br  Br1  1  0.28645444  0.71354556  1.00000000  1
  Br  Br2  1  0.39188256  0.98927281  0.33372241  1
  Br  Br3  1  0.60811744  0.01072719  0.66627759  1
  Br  Br4  1  0.01072719  0.60811744  0.66627759  1
  Br  Br5  1  0.98927281  0.39188256  0.33372241  1
  Cl  Cl0  1  0.31608244  0.11255625  0.00391137  1
  Cl  Cl1  1  0.68391756  0.88744375  0.99608863  1
  Cl  Cl2  1  0.88744375  0.68391756  0.99608863  1
  Cl  Cl3  1  0.11255625  0.31608244  0.00391137  1
  Cl  Cl4  1  0.75050035  0.75050035  0.30803953  1
  Cl  Cl5  1  0.24949965  0.24949965  0.69196047  1
  Cl  Cl6  1  0.80784199  0.80784199  0.67405154  1
  Cl  Cl7  1  0.19215801  0.19215801  0.32594846  1
  Cl  Cl8  1  0.58099912  0.37670964  0.32216560  1
  Cl  Cl9  1  0.41900088  0.62329036  0.67783440  1
  Cl  Cl10  1  0.62329036  0.41900088  0.67783440  1
  Cl  Cl11  1  0.37670964  0.58099912  0.32216560  1
loop_
_geom_bond_atom_site_label_1
_geom_bond_atom_site_label_2
_geom_bond_distance
_geom_bond_site_symmetry_2
Br0 Nb2 2.624559 1_555
Br0 Nb4 2.624559 1_554
Br1 Nb3 2.624559 1_555
Br1 Nb5 2.624559 1_556
Br2 Nb2 2.843226 1_565
Br2 In1 3.142295 1_555
Br2 In0 3.199099 1_565
Br2 In3 3.329108 1_555
Br3 Nb3 2.843226 1_545
Br3 In0 3.142295 1_555
Br3 In1 3.199099 1_545
Br3 In2 3.329108 1_555
Br4 Nb4 2.843226 1_455
Br4 In3 3.142295 1_555
Br4 In2 3.199099 1_455
Br4 In1 3.329108 1_555
Br5 Nb5 2.843226 1_655
Br5 In2 3.142295 1_555
Br5 In3 3.199099 1_655
Br5 In0 3.329108 1_555
Cl0 Nb2 2.481434 1_555
Cl0 Nb1 2.486722 1_554
Cl1 Nb3 2.481434 1_555
Cl1 Nb0 2.486722 1_556
Cl2 Nb4 2.481434 1_555
Cl2 Nb0 2.486722 1_556
Cl3 Nb5 2.481434 1_555
Cl3 Nb1 2.486722 1_554
Cl4 Nb0 2.597941 1_555
Cl4 In3 3.039858 1_655
Cl4 In0 3.039858 1_565
Cl5 Nb1 2.597941 1_555
Cl5 In2 3.039858 1_455
Cl5 In1 3.039858 1_545
Cl6 Nb3 2.482194 1_555
Cl6 Nb4 2.482194 1_555
Cl7 Nb2 2.482194 1_555
Cl7 Nb5 2.482194 1_555
Cl8 Nb2 2.464993 1_555
Cl8 Nb0 2.475155 1_555
Cl9 Nb3 2.464993 1_555
Cl9 Nb1 2.475155 1_555
Cl10 Nb4 2.464993 1_555
Cl10 Nb1 2.475154 1_555
Cl11 Nb5 2.464993 1_555
Cl11 Nb0 2.475154 1_555
