# generated using pymatgen
data_LiAg(S2O7)2
_symmetry_space_group_name_H-M   'P 1'
_cell_length_a   5.32668838
_cell_length_b   6.54078083
_cell_length_c   8.44018558
_cell_angle_alpha   108.16627965
_cell_angle_beta   89.61094253
_cell_angle_gamma   102.82368247
_symmetry_Int_Tables_number   1
_chemical_formula_structural   LiAg(S2O7)2
_chemical_formula_sum   'Li1 Ag1 S4 O14'
_cell_volume   271.81684916
_cell_formula_units_Z   1
loop_
 _symmetry_equiv_pos_site_id
 _symmetry_equiv_pos_as_xyz
  1  'x, y, z'
loop_
 _atom_site_type_symbol
 _atom_site_label
 _atom_site_symmetry_multiplicity
 _atom_site_fract_x
 _atom_site_fract_y
 _atom_site_fract_z
 _atom_site_occupancy
  Li  Li0  1  0.50000000  0.00000000  0.00000000  1
  Ag  Ag0  1  0.50000000  0.50000000  0.50000000  1
  S  S0  1  0.94263833  0.74527897  0.77177771  1
  S  S1  1  0.05736167  0.25472103  0.22822229  1
  S  S2  1  0.64885551  0.31539468  0.76376542  1
  S  S3  1  0.35114449  0.68460532  0.23623458  1
  O  O0  1  0.86566590  0.65611979  0.58765617  1
  O  O1  1  0.13433410  0.34388021  0.41234383  1
  O  O2  1  0.44510857  0.41203410  0.70892993  1
  O  O3  1  0.55489143  0.58796590  0.29107007  1
  O  O4  1  0.21555176  0.82566516  0.79075270  1
  O  O5  1  0.78444824  0.17433484  0.20924730  1
  O  O6  1  0.78400376  0.88233219  0.86366054  1
  O  O7  1  0.21599624  0.11766781  0.13633946  1
  O  O8  1  0.57136045  0.26388677  0.91090771  1
  O  O9  1  0.42863955  0.73611323  0.08909229  1
  O  O10  1  0.89578491  0.52987388  0.83357825  1
  O  O11  1  0.10421509  0.47012612  0.16642175  1
  O  O12  1  0.73633670  0.16117032  0.63009315  1
  O  O13  1  0.26366330  0.83882968  0.36990685  1
loop_
_geom_bond_atom_site_label_1
_geom_bond_atom_site_label_2
_geom_bond_distance
_geom_bond_site_symmetry_2
Li0 O7 2.036183 1_555
Li0 O6 2.036183 1_544
Li0 O8 2.050188 1_554
Li0 O9 2.050188 1_545
Li0 O4 2.174559 1_544
Li0 O5 2.174559 1_555
Ag0 O0 2.012349 1_555
Ag0 O1 2.012349 1_555
Ag0 O2 2.019188 1_555
Ag0 O3 2.019188 1_555
O0 S0 1.503525 1_555
O1 S1 1.503525 1_555
O2 S2 1.511748 1_555
O3 S3 1.511748 1_555
O4 S0 1.423648 1_455
O5 S1 1.423648 1_655
O6 S0 1.418764 1_555
O7 S1 1.418764 1_555
O8 S2 1.420716 1_555
O9 S3 1.420716 1_555
O10 S0 1.618581 1_555
O10 S2 1.649627 1_555
O11 S1 1.618581 1_555
O11 S3 1.649627 1_555
O12 S2 1.414022 1_555
O13 S3 1.414022 1_555
