# generated using pymatgen
data_HfZn4Ru
_symmetry_space_group_name_H-M   'P 1'
_cell_length_a   4.93908839
_cell_length_b   4.93908758
_cell_length_c   4.93908977
_cell_angle_alpha   60.00000473
_cell_angle_beta   60.00001019
_cell_angle_gamma   59.99999759
_symmetry_Int_Tables_number   1
_chemical_formula_structural   HfZn4Ru
_chemical_formula_sum   'Hf1 Zn4 Ru1'
_cell_volume   85.19723255
_cell_formula_units_Z   1
loop_
 _symmetry_equiv_pos_site_id
 _symmetry_equiv_pos_as_xyz
  1  'x, y, z'
loop_
 _atom_site_type_symbol
 _atom_site_label
 _atom_site_symmetry_multiplicity
 _atom_site_fract_x
 _atom_site_fract_y
 _atom_site_fract_z
 _atom_site_occupancy
  Hf  Hf0  1  0.50000000  0.50000000  0.50000000  1
  Zn  Zn0  1  0.12445950  0.62661951  0.12445950  1
  Zn  Zn1  1  0.12445950  0.12445950  0.62661951  1
  Zn  Zn2  1  0.62661951  0.12445950  0.12445950  1
  Zn  Zn3  1  0.12445950  0.12445950  0.12445950  1
  Ru  Ru0  1  0.75000000  0.75000000  0.75000000  1
loop_
_geom_bond_atom_site_label_1
_geom_bond_atom_site_label_2
_geom_bond_distance
_geom_bond_site_symmetry_2
Hf0 Zn1 2.896938 1_565
Hf0 Zn2 2.896938 1_565
Hf0 Zn1 2.896938 1_655
Hf0 Zn0 2.896939 1_655
Hf0 Zn2 2.896939 1_556
Hf0 Zn0 2.896939 1_556
Hf0 Zn3 2.896943 1_565
Hf0 Zn3 2.896943 1_655
Hf0 Zn3 2.896943 1_556
Hf0 Zn1 2.896947 1_555
Hf0 Zn2 2.896947 1_555
Hf0 Zn0 2.896947 1_555
Hf0 Ru0 3.024561 1_545
Hf0 Ru0 3.024562 1_555
Hf0 Ru0 3.024562 1_455
Hf0 Ru0 3.024563 1_554
Zn0 Zn3 2.458875 1_565
Zn0 Zn2 2.458875 1_465
Zn0 Zn1 2.458876 1_564
Zn0 Zn3 2.480212 1_555
Zn0 Zn2 2.480212 1_555
Zn0 Zn1 2.480213 1_555
Zn1 Zn3 2.458876 1_556
Zn1 Zn2 2.458876 1_456
Zn1 Zn3 2.480213 1_555
Zn1 Zn2 2.480213 1_555
Zn2 Zn3 2.458876 1_655
Zn2 Zn3 2.480213 1_555
Ru0 Zn1 2.894662 1_665
Ru0 Zn2 2.894662 1_566
Ru0 Zn0 2.894662 1_656
Ru0 Zn3 2.894666 1_656
Ru0 Zn3 2.894666 1_566
Ru0 Zn3 2.894667 1_665
Ru0 Zn1 2.894670 1_655
Ru0 Zn2 2.894670 1_556
Ru0 Zn1 2.894670 1_565
Ru0 Zn0 2.894671 1_556
Ru0 Zn2 2.894671 1_565
Ru0 Zn0 2.894671 1_655
