# generated using pymatgen
data_Sc3Be2(CuSi2)2
_symmetry_space_group_name_H-M   'P 1'
_cell_length_a   7.44517319
_cell_length_b   7.39033021
_cell_length_c   7.39033014
_cell_angle_alpha   149.14584880
_cell_angle_beta   130.44116628
_cell_angle_gamma   59.45698727
_symmetry_Int_Tables_number   1
_chemical_formula_structural   Sc3Be2(CuSi2)2
_chemical_formula_sum   'Sc3 Be2 Cu2 Si4'
_cell_volume   157.47748579
_cell_formula_units_Z   1
loop_
 _symmetry_equiv_pos_site_id
 _symmetry_equiv_pos_as_xyz
  1  'x, y, z'
loop_
 _atom_site_type_symbol
 _atom_site_label
 _atom_site_symmetry_multiplicity
 _atom_site_fract_x
 _atom_site_fract_y
 _atom_site_fract_z
 _atom_site_occupancy
  Sc  Sc0  1  0.39901282  0.87416086  0.52485196  1
  Sc  Sc1  1  0.60098718  0.12583914  0.47514804  1
  Sc  Sc2  1  0.00000000  0.00000000  0.00000000  1
  Be  Be0  1  0.67130958  0.34433470  0.32697488  1
  Be  Be1  1  0.32869042  0.65566530  0.67302512  1
  Cu  Cu0  1  0.00863640  0.31941137  0.68922404  1
  Cu  Cu1  1  0.99136360  0.68058863  0.31077596  1
  Si  Si0  1  0.24512030  0.21877516  0.02634514  1
  Si  Si1  1  0.75487970  0.78122484  0.97365486  1
  Si  Si2  1  0.69962689  0.50785732  0.19176958  1
  Si  Si3  1  0.30037311  0.49214268  0.80823042  1
loop_
_geom_bond_atom_site_label_1
_geom_bond_atom_site_label_2
_geom_bond_distance
_geom_bond_site_symmetry_2
Sc0 Si0 2.805680 1_566
Sc0 Si0 2.805680 1_555
Sc0 Si2 2.818703 1_555
Sc0 Si2 2.818703 1_566
Sc0 Si3 2.819195 1_565
Sc0 Si3 2.819195 1_554
Sc0 Si1 3.025517 1_555
Sc1 Si1 2.805680 1_544
Sc1 Si1 2.805680 1_555
Sc1 Si3 2.818703 1_555
Sc1 Si3 2.818703 1_544
Sc1 Si2 2.819195 1_545
Sc1 Si2 2.819195 1_556
Sc1 Si0 3.025517 1_555
Sc2 Si3 2.746736 1_544
Sc2 Si2 2.746736 1_455
Sc2 Si3 2.746737 1_555
Sc2 Si2 2.746737 1_444
Sc2 Si0 2.824888 1_555
Sc2 Si1 2.824888 1_444
Be0 Si2 2.260274 1_555
Be0 Cu0 2.272058 1_655
Be0 Si1 2.311423 1_544
Be0 Si1 2.311423 1_555
Be0 Si0 2.484449 1_555
Be0 Sc0 2.743557 1_555
Be0 Sc0 2.743557 1_544
Be0 Sc1 2.952916 1_555
Be1 Si3 2.260274 1_555
Be1 Cu1 2.272058 1_455
Be1 Si0 2.311423 1_566
Be1 Si0 2.311423 1_555
Be1 Si1 2.484449 1_555
Be1 Sc1 2.743557 1_555
Be1 Sc1 2.743557 1_566
Be1 Sc0 2.952916 1_555
Cu0 Si3 2.352218 1_555
Cu0 Si1 2.432493 1_444
Cu0 Si1 2.432496 1_455
Cu0 Si0 2.453574 1_556
Cu0 Sc1 2.838732 1_455
Cu0 Sc0 2.957648 1_545
Cu0 Sc0 2.957651 1_556
Cu1 Si2 2.352218 1_555
Cu1 Si0 2.432493 1_666
Cu1 Si0 2.432496 1_655
Cu1 Si1 2.453574 1_554
Cu1 Sc0 2.838732 1_655
Cu1 Sc1 2.957648 1_565
Cu1 Sc1 2.957651 1_554
Si2 Si3 2.395527 1_554
