# generated using pymatgen
data_GaAg6RhF12
_symmetry_space_group_name_H-M   'P 1'
_cell_length_a   5.68717151
_cell_length_b   6.13139847
_cell_length_c   7.99289605
_cell_angle_alpha   90.00788988
_cell_angle_beta   95.24065077
_cell_angle_gamma   90.20848140
_symmetry_Int_Tables_number   1
_chemical_formula_structural   GaAg6RhF12
_chemical_formula_sum   'Ga1 Ag6 Rh1 F12'
_cell_volume   277.54786140
_cell_formula_units_Z   1
loop_
 _symmetry_equiv_pos_site_id
 _symmetry_equiv_pos_as_xyz
  1  'x, y, z'
loop_
 _atom_site_type_symbol
 _atom_site_label
 _atom_site_symmetry_multiplicity
 _atom_site_fract_x
 _atom_site_fract_y
 _atom_site_fract_z
 _atom_site_occupancy
  Ga  Ga0  1  0.00000000  0.00000000  0.00000000  1
  Ag  Ag0  1  0.00000000  0.00000000  0.50000000  1
  Ag  Ag1  1  0.50000000  0.50000000  0.00000000  1
  Ag  Ag2  1  0.95669346  0.57372860  0.24807645  1
  Ag  Ag3  1  0.04330654  0.42627140  0.75192355  1
  Ag  Ag4  1  0.53734590  0.07365519  0.24351969  1
  Ag  Ag5  1  0.46265410  0.92634481  0.75648031  1
  Rh  Rh0  1  0.50000000  0.50000000  0.50000000  1
  F  F0  1  0.85452600  0.26025564  0.06870131  1
  F  F1  1  0.14547400  0.73974436  0.93129869  1
  F  F2  1  0.65391134  0.76926011  0.42149399  1
  F  F3  1  0.34608866  0.23073989  0.57850601  1
  F  F4  1  0.12950651  0.94459569  0.22404294  1
  F  F5  1  0.87049349  0.05540431  0.77595706  1
  F  F6  1  0.35917722  0.43883124  0.26747591  1
  F  F7  1  0.64082278  0.56116876  0.73252409  1
  F  F8  1  0.72284143  0.84130344  0.04458073  1
  F  F9  1  0.27715857  0.15869656  0.95541927  1
  F  F10  1  0.78614872  0.33480415  0.44817584  1
  F  F11  1  0.21385128  0.66519585  0.55182416  1
loop_
_geom_bond_atom_site_label_1
_geom_bond_atom_site_label_2
_geom_bond_distance
_geom_bond_site_symmetry_2
Ag0 F10 2.406487 1_455
Ag0 F11 2.406487 1_545
Ag0 F5 2.412747 1_455
Ag0 F4 2.412747 1_545
Ag0 F3 2.454226 1_555
Ag0 F2 2.454226 1_445
Ag1 F6 2.379820 1_555
Ag1 F7 2.379820 1_554
Ag1 F9 2.451606 1_554
Ag1 F8 2.451606 1_555
Ag1 F0 2.519354 1_555
Ag1 F1 2.519354 1_554
Ag2 F6 2.428296 1_655
Ag2 F10 2.432791 1_555
Ag2 F0 2.434401 1_555
Ag2 F4 2.488363 1_655
Ag2 F8 2.593721 1_555
Ag2 F2 2.602767 1_555
Ag3 F7 2.428296 1_455
Ag3 F11 2.432791 1_555
Ag3 F1 2.434401 1_555
Ag3 F5 2.488363 1_455
Ag3 F9 2.593721 1_555
Ag3 F3 2.602767 1_555
Ag4 F2 2.404965 1_545
Ag4 F4 2.439451 1_545
Ag4 F8 2.446972 1_545
Ag4 F6 2.475586 1_555
Ag4 F10 2.608033 1_555
Ag4 F0 2.638418 1_555
Ag4 F9 2.673508 1_554
Ag5 F3 2.404965 1_565
Ag5 F5 2.439451 1_565
Ag5 F9 2.446972 1_565
Ag5 F7 2.475586 1_555
Ag5 F11 2.608033 1_555
Ag5 F1 2.638418 1_555
Ag5 F8 2.673508 1_556
F0 Ga0 1.903874 1_655
F1 Ga0 1.903874 1_566
F2 Rh0 1.993901 1_555
F3 Rh0 1.993901 1_555
F4 Ga0 1.904130 1_565
F5 Ga0 1.904130 1_656
F6 Rh0 1.990468 1_555
F7 Rh0 1.990468 1_555
F8 Ga0 1.910460 1_665
F9 Ga0 1.910460 1_556
F10 Rh0 1.995217 1_555
F11 Rh0 1.995217 1_555
