# generated using pymatgen
data_K2Mn(TeO4)3
_symmetry_space_group_name_H-M   'P 1'
_cell_length_a   6.98375751
_cell_length_b   7.12143621
_cell_length_c   6.98327608
_cell_angle_alpha   89.99999841
_cell_angle_beta   61.30348557
_cell_angle_gamma   120.65430849
_symmetry_Int_Tables_number   1
_chemical_formula_structural   K2Mn(TeO4)3
_chemical_formula_sum   'K2 Mn1 Te3 O12'
_cell_volume   247.90229689
_cell_formula_units_Z   1
loop_
 _symmetry_equiv_pos_site_id
 _symmetry_equiv_pos_as_xyz
  1  'x, y, z'
loop_
 _atom_site_type_symbol
 _atom_site_label
 _atom_site_symmetry_multiplicity
 _atom_site_fract_x
 _atom_site_fract_y
 _atom_site_fract_z
 _atom_site_occupancy
  K  K0  1  0.26569312  0.13013997  0.63283251  1
  K  K1  1  0.73430688  0.86444685  0.36716749  1
  Mn  Mn0  1  0.00000000  0.49730783  0.00000000  1
  Te  Te0  1  0.50003155  0.49730363  0.99997101  1
  Te  Te1  1  0.49996845  0.99727108  0.00002899  1
  Te  Te2  1  0.00000000  0.49726082  0.50000000  1
  O  O0  1  0.65404137  0.82434145  0.93134570  1
  O  O1  1  0.86223104  0.42853453  0.31678522  1
  O  O2  1  0.24794511  0.42851619  0.93107460  1
  O  O3  1  0.25829830  0.82435390  0.32708722  1
  O  O4  1  0.24784713  0.81410109  0.93118641  1
  O  O5  1  0.25837127  0.42865636  0.32703596  1
  O  O6  1  0.34595863  0.17029908  0.06865430  1
  O  O7  1  0.13776896  0.56630349  0.68321478  1
  O  O8  1  0.75215287  0.56625296  0.06881359  1
  O  O9  1  0.74162873  0.17028510  0.67296404  1
  O  O10  1  0.75205489  0.18057108  0.06892540  1
  O  O11  1  0.74170170  0.56605559  0.67291278  1
loop_
_geom_bond_atom_site_label_1
_geom_bond_atom_site_label_2
_geom_bond_distance
_geom_bond_site_symmetry_2
K0 O1 2.980833 1_555
K0 O4 2.981020 1_545
K0 O2 2.981400 1_555
K0 O3 3.048712 1_545
K0 O0 3.049188 1_445
K0 O5 3.049234 1_555
K1 O7 2.980833 1_555
K1 O8 2.981025 1_555
K1 O10 2.981400 1_565
K1 O11 3.048712 1_555
K1 O6 3.049188 1_665
K1 O9 3.049234 1_565
Mn0 O2 1.880077 1_554
Mn0 O10 1.880077 1_455
Mn0 O7 1.880122 1_554
Mn0 O1 1.880122 1_455
Mn0 O8 1.880383 1_455
Mn0 O4 1.880389 1_554
O0 Te1 1.939089 1_556
O0 Te0 1.939405 1_555
O1 Te2 1.871958 1_655
O2 Te0 1.872127 1_555
O3 Te1 1.939104 1_555
O3 Te2 1.939451 1_555
O4 Te1 1.871833 1_556
O5 Te2 1.938917 1_555
O5 Te0 1.939272 1_554
O6 Te0 1.939102 1_554
O6 Te1 1.939405 1_545
O7 Te2 1.871958 1_555
O8 Te0 1.871836 1_554
O9 Te2 1.938917 1_655
O9 Te1 1.939273 1_546
O10 Te1 1.872128 1_545
O11 Te0 1.939105 1_555
O11 Te2 1.939451 1_655
