# generated using pymatgen
data_K2MnCrN4
_symmetry_space_group_name_H-M   'P 1'
_cell_length_a   6.43296450
_cell_length_b   6.43296222
_cell_length_c   7.78283314
_cell_angle_alpha   89.80436688
_cell_angle_beta   90.19563148
_cell_angle_gamma   127.27632634
_symmetry_Int_Tables_number   1
_chemical_formula_structural   K2MnCrN4
_chemical_formula_sum   'K4 Mn2 Cr2 N8'
_cell_volume   256.28256839
_cell_formula_units_Z   2
loop_
 _symmetry_equiv_pos_site_id
 _symmetry_equiv_pos_as_xyz
  1  'x, y, z'
loop_
 _atom_site_type_symbol
 _atom_site_label
 _atom_site_symmetry_multiplicity
 _atom_site_fract_x
 _atom_site_fract_y
 _atom_site_fract_z
 _atom_site_occupancy
  K  K0  1  0.84023022  0.15976978  0.56020184  1
  K  K1  1  0.15976978  0.84023022  0.43979816  1
  K  K2  1  0.66640638  0.33359362  0.06327704  1
  K  K3  1  0.33359362  0.66640638  0.93672296  1
  Mn  Mn0  1  0.95403620  0.04596380  0.13236423  1
  Mn  Mn1  1  0.04596380  0.95403620  0.86763577  1
  Cr  Cr0  1  0.54743531  0.45256469  0.64229745  1
  Cr  Cr1  1  0.45256469  0.54743531  0.35770255  1
  N  N0  1  0.89820306  0.10179694  0.91761553  1
  N  N1  1  0.10179694  0.89820306  0.08238447  1
  N  N2  1  0.60024352  0.39975648  0.42357600  1
  N  N3  1  0.39975648  0.60024352  0.57642400  1
  N  N4  1  0.33406588  0.15954208  0.75510671  1
  N  N5  1  0.15954208  0.33406588  0.24489329  1
  N  N6  1  0.66593412  0.84045792  0.24489329  1
  N  N7  1  0.84045792  0.66593412  0.75510671  1
loop_
_geom_bond_atom_site_label_1
_geom_bond_atom_site_label_2
_geom_bond_distance
_geom_bond_site_symmetry_2
K0 N0 2.858369 1_555
K0 N3 2.940352 1_545
K0 N3 2.940352 1_655
K0 N6 2.953717 1_545
K0 N5 2.953718 1_655
K0 N2 2.960087 1_555
K1 N1 2.858369 1_555
K1 N2 2.940352 1_565
K1 N2 2.940352 1_455
K1 N4 2.953717 1_565
K1 N7 2.953718 1_455
K1 N3 2.960087 1_555
K2 N0 2.906653 1_554
K2 N2 2.908829 1_555
K2 N7 2.942893 1_554
K2 N4 2.942893 1_554
K2 N1 2.955876 1_655
K2 N1 2.955877 1_545
K3 N1 2.906653 1_556
K3 N3 2.908829 1_555
K3 N5 2.942893 1_556
K3 N6 2.942893 1_556
K3 N0 2.955876 1_455
K3 N0 2.955877 1_565
Mn0 N5 1.727687 1_655
Mn0 N6 1.727687 1_545
Mn0 N1 1.748676 1_645
Mn0 N0 1.788714 1_554
Mn1 N7 1.727687 1_455
Mn1 N4 1.727687 1_565
Mn1 N0 1.748676 1_465
Mn1 N1 1.788714 1_556
Cr0 N4 1.752405 1_555
Cr0 N7 1.752405 1_555
Cr0 N3 1.776086 1_555
Cr0 N2 1.810037 1_555
Cr1 N6 1.752405 1_555
Cr1 N5 1.752405 1_555
Cr1 N2 1.776086 1_555
Cr1 N3 1.810037 1_555
