# generated using pymatgen
data_RbZnH6Ir
_symmetry_space_group_name_H-M   'P 1'
_cell_length_a   6.74119046
_cell_length_b   6.75542584
_cell_length_c   6.77192993
_cell_angle_alpha   40.62220575
_cell_angle_beta   40.67481212
_cell_angle_gamma   40.73223380
_symmetry_Int_Tables_number   1
_chemical_formula_structural   RbZnH6Ir
_chemical_formula_sum   'Rb1 Zn1 H6 Ir1'
_cell_volume   118.19988743
_cell_formula_units_Z   1
loop_
 _symmetry_equiv_pos_site_id
 _symmetry_equiv_pos_as_xyz
  1  'x, y, z'
loop_
 _atom_site_type_symbol
 _atom_site_label
 _atom_site_symmetry_multiplicity
 _atom_site_fract_x
 _atom_site_fract_y
 _atom_site_fract_z
 _atom_site_occupancy
  Rb  Rb0  1  0.79177602  0.78995551  0.78782388  1
  Zn  Zn0  1  0.31298964  0.31537939  0.31771962  1
  H  H0  1  0.76683627  0.76603634  0.25298846  1
  H  H1  1  0.19627443  0.72988729  0.19870772  1
  H  H2  1  0.72858703  0.19670686  0.19793430  1
  H  H3  1  0.19721977  0.19834343  0.73113550  1
  H  H4  1  0.76752045  0.25520172  0.76597493  1
  H  H5  1  0.25747598  0.76721884  0.76656924  1
  Ir  Ir0  1  0.98132040  0.98126761  0.98114434  1
loop_
_geom_bond_atom_site_label_1
_geom_bond_atom_site_label_2
_geom_bond_distance
_geom_bond_site_symmetry_2
H0 Ir0 1.636755 1_554
H0 Rb0 2.905587 1_554
H1 Ir0 1.692671 1_454
H1 Zn0 1.818398 1_555
H1 Rb0 2.792047 1_455
H1 Rb0 2.798911 1_554
H2 Ir0 1.693445 1_544
H2 Zn0 1.812698 1_555
H2 Rb0 2.798875 1_545
H2 Rb0 2.802223 1_554
H3 Ir0 1.692080 1_445
H3 Zn0 1.825626 1_555
H3 Rb0 2.788031 1_455
H3 Rb0 2.791221 1_545
H4 Ir0 1.635543 1_545
H4 Rb0 2.911804 1_545
H5 Ir0 1.635470 1_455
H5 Rb0 2.918448 1_455
