# generated using pymatgen
data_Be3AlFeB
_symmetry_space_group_name_H-M   'P 1'
_cell_length_a   4.12001636
_cell_length_b   4.12001648
_cell_length_c   4.08002260
_cell_angle_alpha   59.67522524
_cell_angle_beta   59.67521670
_cell_angle_gamma   60.00000953
_symmetry_Int_Tables_number   1
_chemical_formula_structural   Be3AlFeB
_chemical_formula_sum   'Be3 Al1 Fe1 B1'
_cell_volume   48.72995314
_cell_formula_units_Z   1
loop_
 _symmetry_equiv_pos_site_id
 _symmetry_equiv_pos_as_xyz
  1  'x, y, z'
loop_
 _atom_site_type_symbol
 _atom_site_label
 _atom_site_symmetry_multiplicity
 _atom_site_fract_x
 _atom_site_fract_y
 _atom_site_fract_z
 _atom_site_occupancy
  Be  Be0  1  0.62590290  0.12233392  0.62585928  1
  Be  Be1  1  0.12233392  0.62590290  0.62585928  1
  Be  Be2  1  0.62590290  0.62590290  0.62585928  1
  Al  Al0  1  0.25019712  0.25019712  0.24940864  1
  Fe  Fe0  1  0.00014908  0.00014908  0.99955276  1
  B  B0  1  0.62551308  0.62551308  0.12346076  1
loop_
_geom_bond_atom_site_label_1
_geom_bond_atom_site_label_2
_geom_bond_distance
_geom_bond_site_symmetry_2
Be0 Fe0 2.388458 1_654
Be0 Fe0 2.403787 1_555
Be0 Fe0 2.403791 1_655
Be1 Fe0 2.388458 1_564
Be1 Fe0 2.403788 1_555
Be1 Fe0 2.403791 1_565
Be2 Fe0 2.388460 1_664
Be2 Fe0 2.403789 1_565
Be2 Fe0 2.403790 1_655
Al0 Be2 2.388985 1_554
Al0 Be0 2.388987 1_554
Al0 Be1 2.388987 1_554
Al0 Be1 2.408510 1_555
Al0 Be0 2.408510 1_555
Al0 Be2 2.408512 1_455
Al0 Be2 2.408512 1_545
Al0 Be0 2.408514 1_455
Al0 Be1 2.408514 1_545
Al0 B0 2.415054 1_555
Al0 B0 2.415054 1_545
Al0 B0 2.415054 1_455
Al0 Fe0 2.486636 1_555
Al0 Fe0 2.518762 1_554
Al0 Fe0 2.518762 1_654
Al0 Fe0 2.518763 1_564
B0 Be1 2.028603 1_654
B0 Be0 2.028603 1_564
B0 Be2 2.028605 1_554
B0 Be2 2.051420 1_555
B0 Be1 2.051423 1_555
B0 Be0 2.051423 1_555
B0 Fe0 2.413894 1_664
B0 Fe0 2.413894 1_654
B0 Fe0 2.413894 1_564
