# generated using pymatgen
data_Cs4NiAs4Pt
_symmetry_space_group_name_H-M   'P 1'
_cell_length_a   8.29712643
_cell_length_b   8.29712715
_cell_length_c   6.27116071
_cell_angle_alpha   91.21785854
_cell_angle_beta   88.78213948
_cell_angle_gamma   129.23310388
_symmetry_Int_Tables_number   1
_chemical_formula_structural   Cs4NiAs4Pt
_chemical_formula_sum   'Cs4 Ni1 As4 Pt1'
_cell_volume   334.30971652
_cell_formula_units_Z   1
loop_
 _symmetry_equiv_pos_site_id
 _symmetry_equiv_pos_as_xyz
  1  'x, y, z'
loop_
 _atom_site_type_symbol
 _atom_site_label
 _atom_site_symmetry_multiplicity
 _atom_site_fract_x
 _atom_site_fract_y
 _atom_site_fract_z
 _atom_site_occupancy
  Cs  Cs0  1  0.79192231  0.20807769  0.24726643  1
  Cs  Cs1  1  0.20807769  0.79192231  0.75273357  1
  Cs  Cs2  1  0.41112221  0.58887779  0.24575608  1
  Cs  Cs3  1  0.58887779  0.41112221  0.75424392  1
  Ni  Ni0  1  0.00000000  0.00000000  0.50000000  1
  As  As0  1  0.92415566  0.73607400  0.26554750  1
  As  As1  1  0.07584434  0.26392600  0.73445250  1
  As  As2  1  0.26392600  0.07584434  0.26554750  1
  As  As3  1  0.73607400  0.92415566  0.73445250  1
  Pt  Pt0  1  0.00000000  0.00000000  0.00000000  1
loop_
_geom_bond_atom_site_label_1
_geom_bond_atom_site_label_2
_geom_bond_distance
_geom_bond_site_symmetry_2
Cs0 Pt0 3.450869 1_655
Cs0 Ni0 3.532170 1_655
Cs1 Pt0 3.450869 1_566
Cs1 Ni0 3.532170 1_565
As0 Ni0 2.347854 1_665
As0 As2 2.416966 1_665
As0 Pt0 2.516319 1_665
As0 Cs2 3.614743 1_555
As0 Cs1 3.736782 1_655
As0 Cs0 3.783224 1_555
As0 Cs1 3.803546 1_654
As0 Cs3 3.860259 1_555
As0 Cs3 3.976622 1_554
As1 Ni0 2.347854 1_555
As1 As3 2.416966 1_445
As1 Pt0 2.516319 1_556
As1 Cs3 3.614743 1_555
As1 Cs0 3.736782 1_455
As1 Cs1 3.783224 1_555
As1 Cs0 3.803546 1_456
As1 Cs2 3.860259 1_555
As1 Cs2 3.976622 1_556
As2 Ni0 2.347853 1_555
As2 Pt0 2.516319 1_555
As2 Cs2 3.614744 1_555
As2 Cs1 3.736782 1_545
As2 Cs0 3.783224 1_555
As2 Cs1 3.803546 1_544
As2 Cs3 3.860259 1_555
As2 Cs3 3.976622 1_554
As3 Ni0 2.347853 1_665
As3 Pt0 2.516319 1_666
As3 Cs3 3.614744 1_555
As3 Cs0 3.736782 1_565
As3 Cs1 3.783224 1_555
As3 Cs0 3.803546 1_566
As3 Cs2 3.860259 1_555
As3 Cs2 3.976622 1_556
