# generated using pymatgen
data_LiNb(AgS2)2
_symmetry_space_group_name_H-M   'P 1'
_cell_length_a   6.15895154
_cell_length_b   5.97682429
_cell_length_c   5.97682429
_cell_angle_alpha   90.00000000
_cell_angle_beta   90.00000000
_cell_angle_gamma   90.00000000
_symmetry_Int_Tables_number   1
_chemical_formula_structural   LiNb(AgS2)2
_chemical_formula_sum   'Li1 Nb1 Ag2 S4'
_cell_volume   220.01270653
_cell_formula_units_Z   1
loop_
 _symmetry_equiv_pos_site_id
 _symmetry_equiv_pos_as_xyz
  1  'x, y, z'
loop_
 _atom_site_type_symbol
 _atom_site_label
 _atom_site_symmetry_multiplicity
 _atom_site_fract_x
 _atom_site_fract_y
 _atom_site_fract_z
 _atom_site_occupancy
  Li  Li0  1  0.50000000  0.00000000  0.00000000  1
  Nb  Nb0  1  0.00000000  0.00000000  0.00000000  1
  Ag  Ag0  1  0.00000000  0.00000000  0.50000000  1
  Ag  Ag1  1  0.00000000  0.50000000  0.00000000  1
  S  S0  1  0.22900611  0.21823838  0.21823838  1
  S  S1  1  0.22900611  0.78176162  0.78176162  1
  S  S2  1  0.77099389  0.21823838  0.78176162  1
  S  S3  1  0.77099389  0.78176162  0.21823838  1
loop_
_geom_bond_atom_site_label_1
_geom_bond_atom_site_label_2
_geom_bond_distance
_geom_bond_site_symmetry_2
Li0 S2 2.487662 1_554
Li0 S3 2.487662 1_545
Li0 S0 2.487662 1_555
Li0 S1 2.487662 1_544
Nb0 S0 2.322092 1_555
Nb0 S1 2.322092 1_544
Nb0 S2 2.322092 1_454
Nb0 S3 2.322092 1_445
Ag0 S1 2.554743 1_545
Ag0 S2 2.554743 1_455
Ag0 S0 2.554743 1_555
Ag0 S3 2.554743 1_445
Ag1 S1 2.554743 1_554
Ag1 S3 2.554743 1_455
Ag1 S0 2.554743 1_555
Ag1 S2 2.554743 1_454
