# generated using pymatgen
data_Cs4NiAs4Pd
_symmetry_space_group_name_H-M   'P 1'
_cell_length_a   8.29287877
_cell_length_b   8.29287980
_cell_length_c   6.26427414
_cell_angle_alpha   91.39274117
_cell_angle_beta   88.60725758
_cell_angle_gamma   128.93027912
_symmetry_Int_Tables_number   1
_chemical_formula_structural   Cs4NiAs4Pd
_chemical_formula_sum   'Cs4 Ni1 As4 Pd1'
_cell_volume   335.00696825
_cell_formula_units_Z   1
loop_
 _symmetry_equiv_pos_site_id
 _symmetry_equiv_pos_as_xyz
  1  'x, y, z'
loop_
 _atom_site_type_symbol
 _atom_site_label
 _atom_site_symmetry_multiplicity
 _atom_site_fract_x
 _atom_site_fract_y
 _atom_site_fract_z
 _atom_site_occupancy
  Cs  Cs0  1  0.79123190  0.20876810  0.24589540  1
  Cs  Cs1  1  0.20876810  0.79123190  0.75410460  1
  Cs  Cs2  1  0.41081520  0.58918480  0.24836567  1
  Cs  Cs3  1  0.58918480  0.41081520  0.75163433  1
  Ni  Ni0  1  0.00000000  0.00000000  0.50000000  1
  As  As0  1  0.92641292  0.73701373  0.26591579  1
  As  As1  1  0.07358708  0.26298627  0.73408421  1
  As  As2  1  0.26298627  0.07358708  0.26591579  1
  As  As3  1  0.73701373  0.92641292  0.73408421  1
  Pd  Pd0  1  0.00000000  0.00000000  0.00000000  1
loop_
_geom_bond_atom_site_label_1
_geom_bond_atom_site_label_2
_geom_bond_distance
_geom_bond_site_symmetry_2
Cs0 Pd0 3.446023 1_655
Cs0 Ni0 3.544481 1_655
Cs1 Pd0 3.446023 1_566
Cs1 Ni0 3.544481 1_565
As0 Ni0 2.344026 1_665
As0 As2 2.406318 1_665
As0 Pd0 2.521538 1_665
As0 Cs2 3.636760 1_555
As0 Cs1 3.741038 1_655
As0 Cs0 3.777716 1_555
As0 Cs1 3.787640 1_654
As0 Cs3 3.856877 1_555
As0 Cs3 4.003023 1_554
As1 Ni0 2.344026 1_555
As1 As3 2.406318 1_445
As1 Pd0 2.521538 1_556
As1 Cs3 3.636760 1_555
As1 Cs0 3.741038 1_455
As1 Cs1 3.777716 1_555
As1 Cs0 3.787640 1_456
As1 Cs2 3.856877 1_555
As1 Cs2 4.003023 1_556
As2 Ni0 2.344025 1_555
As2 Pd0 2.521538 1_555
As2 Cs2 3.636761 1_555
As2 Cs1 3.741038 1_545
As2 Cs0 3.777715 1_555
As2 Cs1 3.787640 1_544
As2 Cs3 3.856877 1_555
As2 Cs3 4.003023 1_554
As3 Ni0 2.344025 1_665
As3 Pd0 2.521538 1_666
As3 Cs3 3.636761 1_555
As3 Cs0 3.741038 1_565
As3 Cs1 3.777715 1_555
As3 Cs0 3.787640 1_566
As3 Cs2 3.856877 1_555
As3 Cs2 4.003023 1_556
