# generated using pymatgen
data_BaSr(Si5Ni9)2
_symmetry_space_group_name_H-M   'P 1'
_cell_length_a   6.70625503
_cell_length_b   6.70625530
_cell_length_c   10.37092044
_cell_angle_alpha   90.00000000
_cell_angle_beta   90.00000000
_cell_angle_gamma   119.99999866
_symmetry_Int_Tables_number   1
_chemical_formula_structural   BaSr(Si5Ni9)2
_chemical_formula_sum   'Ba1 Sr1 Si10 Ni18'
_cell_volume   403.93183987
_cell_formula_units_Z   1
loop_
 _symmetry_equiv_pos_site_id
 _symmetry_equiv_pos_as_xyz
  1  'x, y, z'
loop_
 _atom_site_type_symbol
 _atom_site_label
 _atom_site_symmetry_multiplicity
 _atom_site_fract_x
 _atom_site_fract_y
 _atom_site_fract_z
 _atom_site_occupancy
  Ba  Ba0  1  0.00000000  0.00000000  0.00000000  1
  Sr  Sr0  1  0.00000000  0.00000000  0.50000000  1
  Si  Si0  1  0.16643894  0.33287788  0.74796561  1
  Si  Si1  1  0.83356106  0.16643894  0.25203439  1
  Si  Si2  1  0.16643894  0.83356106  0.74796561  1
  Si  Si3  1  0.83356106  0.66712212  0.25203439  1
  Si  Si4  1  0.33333300  0.66666700  0.43589448  1
  Si  Si5  1  0.66666700  0.33333300  0.93618859  1
  Si  Si6  1  0.66666700  0.33333300  0.56410552  1
  Si  Si7  1  0.33333300  0.66666700  0.06381141  1
  Si  Si8  1  0.33287788  0.16643894  0.25203439  1
  Si  Si9  1  0.66712212  0.83356106  0.74796561  1
  Ni  Ni0  1  0.46151797  0.92303394  0.88635932  1
  Ni  Ni1  1  0.92303394  0.46151797  0.11364068  1
  Ni  Ni2  1  0.53848203  0.07696606  0.11364068  1
  Ni  Ni3  1  0.07750159  0.53875079  0.61163189  1
  Ni  Ni4  1  0.20793357  0.41586514  0.25180658  1
  Ni  Ni5  1  0.79206643  0.20793357  0.74819342  1
  Ni  Ni6  1  0.41586514  0.20793357  0.74819342  1
  Ni  Ni7  1  0.58413486  0.79206643  0.25180658  1
  Ni  Ni8  1  0.20793357  0.79206643  0.25180658  1
  Ni  Ni9  1  0.79206643  0.58413486  0.74819342  1
  Ni  Ni10  1  0.46124921  0.92249841  0.61163189  1
  Ni  Ni11  1  0.53875079  0.46124921  0.38836811  1
  Ni  Ni12  1  0.92249841  0.46124921  0.38836811  1
  Ni  Ni13  1  0.07696606  0.53848203  0.88635932  1
  Ni  Ni14  1  0.46151797  0.53848203  0.88635932  1
  Ni  Ni15  1  0.53875079  0.07750159  0.38836811  1
  Ni  Ni16  1  0.53848203  0.46151797  0.11364068  1
  Ni  Ni17  1  0.46124921  0.53875079  0.61163189  1
loop_
_geom_bond_atom_site_label_1
_geom_bond_atom_site_label_2
_geom_bond_distance
_geom_bond_site_symmetry_2
Ba0 Si1 3.251105 1_455
Ba0 Si2 3.251105 1_544
Ba0 Si8 3.251105 1_555
Ba0 Si9 3.251105 1_444
Ba0 Si3 3.251106 1_445
Ba0 Si0 3.251106 1_554
Ba0 Ni7 3.557136 1_445
Ba0 Ni6 3.557136 1_554
Ba0 Ni4 3.557136 1_555
Ba0 Ni9 3.557136 1_444
Ba0 Ni8 3.557144 1_545
Ba0 Ni5 3.557144 1_454
Ba0 Ni2 3.582210 1_555
Ba0 Ni0 3.582210 1_444
Ba0 Ni1 3.582210 1_445
Ba0 Ni13 3.582210 1_554
Ba0 Ni16 3.582215 1_555
Ba0 Ni14 3.582215 1_444
Ba0 Ni16 3.582215 1_445
Ba0 Ni14 3.582215 1_554
Ba0 Ni2 3.582223 1_455
Ba0 Ni0 3.582223 1_544
Ba0 Ni13 3.582223 1_544
Ba0 Ni1 3.582223 1_455
Si0 Sr0 3.217278 1_555
Si1 Sr0 3.217278 1_655
Si2 Sr0 3.217278 1_565
Si3 Sr0 3.217278 1_665
Si8 Sr0 3.217278 1_555
Si9 Sr0 3.217278 1_665
Ni0 Si9 2.269043 1_555
Ni0 Si2 2.269053 1_555
Ni0 Si7 2.367225 1_556
Ni0 Si5 2.438321 1_565
Ni0 Ni2 2.520961 1_566
Ni0 Ni5 2.526316 1_565
Ni0 Ni6 2.526329 1_565
Ni0 Ni14 2.578903 1_555
Ni0 Ni13 2.578903 1_555
Ni1 Si3 2.269043 1_555
Ni1 Si1 2.269053 1_555
Ni1 Si5 2.367225 1_554
Ni1 Si7 2.438321 1_655
Ni1 Ni13 2.520961 1_654
Ni1 Ni8 2.526316 1_655
Ni1 Ni4 2.526329 1_655
Ni1 Ni16 2.578903 1_555
Ni1 Ni2 2.578903 1_555
Ni2 Si8 2.269043 1_555
Ni2 Si1 2.269053 1_555
Ni2 Si5 2.367225 1_554
Ni2 Si7 2.438321 1_545
Ni2 Ni8 2.526316 1_545
Ni2 Ni7 2.526329 1_545
Ni3 Si0 2.254880 1_555
Ni3 Si2 2.254880 1_555
Ni3 Si4 2.351460 1_555
Ni3 Si6 2.436417 1_455
Ni3 Ni5 2.518965 1_455
Ni3 Ni9 2.518971 1_455
Ni3 Sr0 3.575807 1_565
Ni3 Sr0 3.575807 1_555
Ni4 Si8 2.213969 1_555
Ni4 Si1 2.213979 1_455
Ni4 Si4 2.401373 1_555
Ni4 Si7 2.433713 1_555
Ni4 Ni7 2.522902 1_555
Ni4 Ni8 2.522902 1_555
Ni4 Sr0 3.529718 1_555
Ni5 Si0 2.213981 1_655
Ni5 Si9 2.213981 1_545
Ni5 Si6 2.401362 1_555
Ni5 Si5 2.433702 1_555
Ni5 Ni6 2.522902 1_555
Ni5 Ni9 2.522902 1_555
Ni5 Sr0 3.529726 1_655
Ni6 Si0 2.213968 1_555
Ni6 Si2 2.213979 1_545
Ni6 Si6 2.401373 1_555
Ni6 Si5 2.433713 1_555
Ni6 Ni9 2.522902 1_555
Ni6 Sr0 3.529718 1_555
Ni7 Si3 2.213968 1_555
Ni7 Si1 2.213979 1_565
Ni7 Si4 2.401373 1_555
Ni7 Si7 2.433713 1_555
Ni7 Ni8 2.522902 1_555
Ni7 Sr0 3.529718 1_665
Ni8 Si3 2.213981 1_455
Ni8 Si8 2.213981 1_565
Ni8 Si4 2.401362 1_555
Ni8 Si7 2.433702 1_555
Ni8 Sr0 3.529726 1_565
Ni9 Si9 2.213969 1_555
Ni9 Si2 2.213979 1_655
Ni9 Si6 2.401373 1_555
Ni9 Si5 2.433713 1_555
Ni9 Sr0 3.529718 1_665
Ni10 Si9 2.254880 1_555
Ni10 Si2 2.254880 1_555
Ni10 Si4 2.351460 1_555
Ni10 Si6 2.436417 1_565
Ni10 Ni15 2.484294 1_565
Ni10 Ni5 2.518965 1_565
Ni10 Ni6 2.518971 1_565
Ni10 Ni3 2.573510 1_555
Ni10 Ni17 2.573510 1_555
Ni10 Sr0 3.575807 1_565
Ni10 Sr0 3.575807 1_665
Ni11 Si3 2.254880 1_555
Ni11 Si8 2.254880 1_555
Ni11 Si6 2.351464 1_555
Ni11 Si4 2.436423 1_555
Ni11 Ni17 2.484294 1_555
Ni11 Ni4 2.518960 1_555
Ni11 Ni7 2.518960 1_555
Ni11 Ni12 2.573509 1_555
Ni11 Ni15 2.573510 1_555
Ni11 Sr0 3.575807 1_555
Ni11 Sr0 3.575807 1_665
Ni12 Si3 2.254880 1_555
Ni12 Si1 2.254880 1_555
Ni12 Si6 2.351460 1_555
Ni12 Si4 2.436417 1_655
Ni12 Ni3 2.484294 1_655
Ni12 Ni8 2.518965 1_655
Ni12 Ni4 2.518971 1_655
Ni12 Ni15 2.573510 1_555
Ni12 Sr0 3.575807 1_655
Ni12 Sr0 3.575807 1_665
Ni13 Si0 2.269043 1_555
Ni13 Si2 2.269053 1_555
Ni13 Si7 2.367225 1_556
Ni13 Si5 2.438321 1_455
Ni13 Ni5 2.526316 1_455
Ni13 Ni9 2.526329 1_455
Ni13 Ni14 2.578903 1_555
Ni14 Si0 2.269051 1_555
Ni14 Si9 2.269051 1_555
Ni14 Si7 2.367236 1_556
Ni14 Si5 2.438316 1_555
Ni14 Ni16 2.520953 1_556
Ni14 Ni9 2.526307 1_555
Ni14 Ni6 2.526307 1_555
Ni15 Si8 2.254880 1_555
Ni15 Si1 2.254880 1_555
Ni15 Si6 2.351460 1_555
Ni15 Si4 2.436417 1_545
Ni15 Ni8 2.518965 1_545
Ni15 Ni7 2.518971 1_545
Ni15 Sr0 3.575807 1_655
Ni15 Sr0 3.575807 1_555
Ni16 Si3 2.269051 1_555
Ni16 Si8 2.269051 1_555
Ni16 Si5 2.367236 1_554
Ni16 Si7 2.438316 1_555
Ni16 Ni4 2.526307 1_555
Ni16 Ni7 2.526307 1_555
Ni16 Ni2 2.578903 1_555
Ni17 Si0 2.254880 1_555
Ni17 Si9 2.254880 1_555
Ni17 Si4 2.351464 1_555
Ni17 Si6 2.436423 1_555
Ni17 Ni9 2.518960 1_555
Ni17 Ni6 2.518960 1_555
Ni17 Ni3 2.573509 1_555
Ni17 Sr0 3.575807 1_665
Ni17 Sr0 3.575807 1_555
