# generated using pymatgen
data_NaSrCoF6
_symmetry_space_group_name_H-M   'P 1'
_cell_length_a   5.28547913
_cell_length_b   9.05153386
_cell_length_c   10.14680176
_cell_angle_alpha   90.00000000
_cell_angle_beta   90.00000000
_cell_angle_gamma   90.00000000
_symmetry_Int_Tables_number   1
_chemical_formula_structural   NaSrCoF6
_chemical_formula_sum   'Na4 Sr4 Co4 F24'
_cell_volume   485.44017771
_cell_formula_units_Z   4
loop_
 _symmetry_equiv_pos_site_id
 _symmetry_equiv_pos_as_xyz
  1  'x, y, z'
loop_
 _atom_site_type_symbol
 _atom_site_label
 _atom_site_symmetry_multiplicity
 _atom_site_fract_x
 _atom_site_fract_y
 _atom_site_fract_z
 _atom_site_occupancy
  Na  Na0  1  0.04663968  0.65666910  0.09325361  1
  Na  Na1  1  0.45336032  0.34333090  0.59325361  1
  Na  Na2  1  0.95336032  0.15666910  0.40674639  1
  Na  Na3  1  0.54663968  0.84333090  0.90674639  1
  Sr  Sr0  1  0.50031076  0.32220864  0.17778536  1
  Sr  Sr1  1  0.99968924  0.67779136  0.67778536  1
  Sr  Sr2  1  0.49968924  0.82220864  0.32221464  1
  Sr  Sr3  1  0.00031076  0.17779136  0.82221464  1
  Co  Co0  1  0.05855313  0.00620721  0.12796919  1
  Co  Co1  1  0.44144687  0.99379279  0.62796919  1
  Co  Co2  1  0.94144687  0.50620721  0.37203081  1
  Co  Co3  1  0.55855313  0.49379279  0.87203081  1
  F  F0  1  0.18923131  0.13306406  0.58592215  1
  F  F1  1  0.31076869  0.86693594  0.08592215  1
  F  F2  1  0.81076869  0.63306406  0.91407785  1
  F  F3  1  0.68923131  0.36693594  0.41407785  1
  F  F4  1  0.19967146  0.62435820  0.30814619  1
  F  F5  1  0.30032854  0.37564180  0.80814619  1
  F  F6  1  0.80032854  0.12435820  0.19185381  1
  F  F7  1  0.69967146  0.87564180  0.69185381  1
  F  F8  1  0.22053101  0.16036950  0.04007179  1
  F  F9  1  0.27946899  0.83963050  0.54007179  1
  F  F10  1  0.77946899  0.66036950  0.45992821  1
  F  F11  1  0.72053101  0.33963050  0.95992821  1
  F  F12  1  0.09965165  0.35178957  0.28796385  1
  F  F13  1  0.40034835  0.64821043  0.78796385  1
  F  F14  1  0.90034835  0.85178957  0.21203615  1
  F  F15  1  0.59965165  0.14821043  0.71203615  1
  F  F16  1  0.37826002  0.52961541  0.02513546  1
  F  F17  1  0.12173998  0.47038459  0.52513546  1
  F  F18  1  0.62173998  0.02961541  0.47486454  1
  F  F19  1  0.87826002  0.97038459  0.97486454  1
  F  F20  1  0.24906213  0.05082878  0.27657958  1
  F  F21  1  0.25093787  0.94917122  0.77657958  1
  F  F22  1  0.75093787  0.55082878  0.22342042  1
  F  F23  1  0.74906213  0.44917122  0.72342042  1
loop_
_geom_bond_atom_site_label_1
_geom_bond_atom_site_label_2
_geom_bond_distance
_geom_bond_site_symmetry_2
Co0 F14 1.838600 1_445
Co0 F19 1.851123 1_444
Co0 F6 1.851136 1_455
Co0 F20 1.857650 1_555
Co0 F8 1.864286 1_555
Co0 F1 1.883689 1_545
Co1 F15 1.838600 1_565
Co1 F18 1.851123 1_565
Co1 F7 1.851136 1_555
Co1 F21 1.857650 1_555
Co1 F9 1.864286 1_555
Co1 F0 1.883689 1_565
Co2 F12 1.838600 1_655
Co2 F17 1.851123 1_655
Co2 F4 1.851136 1_655
Co2 F22 1.857650 1_555
Co2 F10 1.864286 1_555
Co2 F3 1.883689 1_555
Co3 F13 1.838600 1_555
Co3 F16 1.851123 1_556
Co3 F5 1.851136 1_555
Co3 F23 1.857650 1_555
Co3 F11 1.864286 1_555
Co3 F2 1.883689 1_555
F0 Na2 2.214777 1_455
F0 Na1 2.361524 1_555
F0 Sr3 2.628598 1_555
F1 Na3 2.214777 1_554
F1 Na0 2.361524 1_555
F1 Sr2 2.628598 1_555
F2 Na0 2.214777 1_656
F2 Na3 2.361524 1_555
F2 Sr1 2.628598 1_555
F3 Na1 2.214777 1_555
F3 Na2 2.361524 1_555
F3 Sr0 2.628598 1_555
F4 Na0 2.343977 1_555
F4 Sr2 2.396265 1_555
F5 Na1 2.343977 1_555
F5 Sr3 2.396265 1_555
F6 Na2 2.343977 1_555
F6 Sr0 2.396265 1_555
F7 Na3 2.343977 1_555
F7 Sr1 2.396265 1_555
F8 Sr3 2.503246 1_554
F8 Sr0 2.507043 1_555
F9 Sr2 2.503246 1_555
F9 Sr1 2.507043 1_455
F10 Sr1 2.503246 1_555
F10 Sr2 2.507043 1_555
F11 Sr0 2.503246 1_556
F11 Sr3 2.507043 1_655
F12 Na2 2.273714 1_455
F12 Sr0 2.409580 1_555
F13 Na3 2.273714 1_555
F13 Sr1 2.409580 1_455
F14 Na0 2.273714 1_655
F14 Sr2 2.409580 1_555
F15 Na1 2.273714 1_555
F15 Sr3 2.409580 1_655
F16 Na0 2.207377 1_555
F16 Sr0 2.517877 1_555
F17 Na1 2.207377 1_555
F17 Sr1 2.517877 1_455
F18 Na2 2.207377 1_555
F18 Sr2 2.517877 1_545
F19 Na3 2.207377 1_555
F19 Sr3 2.517877 1_665
F20 Na2 2.259422 1_455
F20 Sr2 2.500293 1_545
F20 Sr0 2.966870 1_555
F21 Na3 2.259422 1_555
F21 Sr3 2.500293 1_565
F21 Sr1 2.966870 1_455
F22 Na0 2.259422 1_655
F22 Sr0 2.500293 1_555
F22 Sr2 2.966870 1_555
F23 Na1 2.259422 1_555
F23 Sr1 2.500293 1_555
F23 Sr3 2.966870 1_655
