# generated using pymatgen
data_YSn6(IrRu)2
_symmetry_space_group_name_H-M   'P 1'
_cell_length_a   6.90795389
_cell_length_b   6.91029798
_cell_length_c   6.90795364
_cell_angle_alpha   119.93521550
_cell_angle_beta   119.89094849
_cell_angle_gamma   90.14086693
_symmetry_Int_Tables_number   1
_chemical_formula_structural   YSn6(IrRu)2
_chemical_formula_sum   'Y1 Sn6 Ir2 Ru2'
_cell_volume   233.49959651
_cell_formula_units_Z   1
loop_
 _symmetry_equiv_pos_site_id
 _symmetry_equiv_pos_as_xyz
  1  'x, y, z'
loop_
 _atom_site_type_symbol
 _atom_site_label
 _atom_site_symmetry_multiplicity
 _atom_site_fract_x
 _atom_site_fract_y
 _atom_site_fract_z
 _atom_site_occupancy
  Y  Y0  1  0.00140390  0.00000000  0.00140390  1
  Sn  Sn0  1  0.87276293  0.53595631  0.00365942  1
  Sn  Sn1  1  0.54019350  0.87762548  0.00535563  1
  Sn  Sn2  1  0.12773015  0.12237452  0.66256903  1
  Sn  Sn3  1  0.99621732  0.50000000  0.49621732  1
  Sn  Sn4  1  0.46770411  0.46404369  0.33680662  1
  Sn  Sn5  1  0.50611985  0.00000000  0.50611985  1
  Ir  Ir0  1  0.23897268  0.60636399  0.99821826  1
  Ir  Ir1  1  0.39185527  0.39363601  0.63260869  1
  Ru  Ru0  1  0.60153672  0.24250031  0.99800389  1
  Ru  Ru1  1  0.75550357  0.75749969  0.35903740  1
loop_
_geom_bond_atom_site_label_1
_geom_bond_atom_site_label_2
_geom_bond_distance
_geom_bond_site_symmetry_2
Sn0 Y0 3.335024 1_665
Sn0 Y0 3.805143 1_655
Sn1 Y0 3.311051 1_665
Sn1 Y0 3.808661 1_565
Sn2 Y0 3.311045 1_556
Sn2 Y0 3.808668 1_555
Sn3 Y0 3.458131 1_666
Sn3 Y0 3.458131 1_655
Sn4 Y0 3.335028 1_555
Sn4 Y0 3.805140 1_666
Sn5 Y0 3.427037 1_656
Sn5 Y0 3.492300 1_555
Ir0 Sn0 2.597074 1_456
Ir0 Sn3 2.651784 1_455
Ir0 Sn5 2.666752 1_566
Ir0 Sn4 2.748538 1_556
Ir0 Sn2 2.761216 1_555
Ir0 Sn1 2.762663 1_556
Ir0 Y0 3.176652 1_566
Ir1 Sn4 2.597073 1_555
Ir1 Sn3 2.651790 1_455
Ir1 Sn5 2.666749 1_555
Ir1 Sn0 2.748532 1_556
Ir1 Sn1 2.761218 1_556
Ir1 Sn2 2.762673 1_555
Ir1 Y0 3.176653 1_555
Ru0 Sn1 2.585260 1_546
Ru0 Sn5 2.620645 1_555
Ru0 Sn3 2.637464 1_556
Ru0 Sn4 2.695116 1_556
Ru0 Sn2 2.697935 1_555
Ru0 Sn0 2.730112 1_556
Ru0 Y0 3.230506 1_656
Ru1 Sn2 2.585260 1_665
Ru1 Sn5 2.620642 1_565
Ru1 Sn3 2.637462 1_555
Ru1 Sn0 2.695127 1_555
Ru1 Sn1 2.697941 1_555
Ru1 Sn4 2.730103 1_555
Ru1 Y0 3.230500 1_666
