# generated using pymatgen
data_Y8Pd22Pt2Pb
_symmetry_space_group_name_H-M   'P 1'
_cell_length_a   8.37952867
_cell_length_b   8.35936527
_cell_length_c   8.35936527
_cell_angle_alpha   90.00000000
_cell_angle_beta   90.00000000
_cell_angle_gamma   90.00000000
_symmetry_Int_Tables_number   1
_chemical_formula_structural   Y8Pd22Pt2Pb
_chemical_formula_sum   'Y8 Pd22 Pt2 Pb1'
_cell_volume   585.55298135
_cell_formula_units_Z   1
loop_
 _symmetry_equiv_pos_site_id
 _symmetry_equiv_pos_as_xyz
  1  'x, y, z'
loop_
 _atom_site_type_symbol
 _atom_site_label
 _atom_site_symmetry_multiplicity
 _atom_site_fract_x
 _atom_site_fract_y
 _atom_site_fract_z
 _atom_site_occupancy
  Y  Y0  1  0.25250864  0.25321304  0.25321304  1
  Y  Y1  1  0.74749136  0.74678696  0.74678696  1
  Y  Y2  1  0.74749136  0.74678696  0.25321304  1
  Y  Y3  1  0.74749136  0.25321304  0.74678696  1
  Y  Y4  1  0.25250864  0.25321304  0.74678696  1
  Y  Y5  1  0.25250864  0.74678696  0.25321304  1
  Y  Y6  1  0.25250864  0.74678696  0.74678696  1
  Y  Y7  1  0.74749136  0.25321304  0.25321304  1
  Pd  Pd0  1  0.26746670  0.50000000  0.00000000  1
  Pd  Pd1  1  0.73253330  0.50000000  0.00000000  1
  Pd  Pd2  1  0.00000000  0.26723777  0.50000000  1
  Pd  Pd3  1  0.50000000  0.26716473  0.00000000  1
  Pd  Pd4  1  0.00000000  0.73276223  0.50000000  1
  Pd  Pd5  1  0.50000000  0.73283527  0.00000000  1
  Pd  Pd6  1  0.50000000  0.00000000  0.26716473  1
  Pd  Pd7  1  0.26746670  0.00000000  0.50000000  1
  Pd  Pd8  1  0.50000000  0.00000000  0.73283527  1
  Pd  Pd9  1  0.73253330  0.00000000  0.50000000  1
  Pd  Pd10  1  0.00000000  0.50000000  0.26723777  1
  Pd  Pd11  1  0.00000000  0.50000000  0.73276223  1
  Pd  Pd12  1  0.50000000  0.25536733  0.50000000  1
  Pd  Pd13  1  0.50000000  0.74463267  0.50000000  1
  Pd  Pd14  1  0.50000000  0.50000000  0.25536733  1
  Pd  Pd15  1  0.50000000  0.50000000  0.74463267  1
  Pd  Pd16  1  0.31632814  0.00000000  0.00000000  1
  Pd  Pd17  1  0.68367186  0.00000000  0.00000000  1
  Pd  Pd18  1  0.00000000  0.31632443  0.00000000  1
  Pd  Pd19  1  0.00000000  0.68367557  0.00000000  1
  Pd  Pd20  1  0.00000000  0.00000000  0.31632443  1
  Pd  Pd21  1  0.00000000  0.00000000  0.68367557  1
  Pt  Pt0  1  0.25474600  0.50000000  0.50000000  1
  Pt  Pt1  1  0.74525400  0.50000000  0.50000000  1
  Pb  Pb0  1  0.00000000  0.00000000  0.00000000  1
loop_
_geom_bond_atom_site_label_1
_geom_bond_atom_site_label_2
_geom_bond_distance
_geom_bond_site_symmetry_2
Pd0 Pd19 2.716738 1_555
Pd0 Pd18 2.716738 1_555
Pd0 Pd5 2.754093 1_555
Pd0 Pd3 2.754093 1_555
Pd0 Pd14 2.890278 1_555
Pd0 Pd15 2.890278 1_554
Pd0 Y5 2.958382 1_555
Pd0 Y6 2.958382 1_554
Pd0 Y0 2.958382 1_555
Pd0 Y4 2.958382 1_554
Pd0 Pd10 3.164436 1_555
Pd0 Pd11 3.164436 1_554
Pd1 Pd19 2.716738 1_655
Pd1 Pd18 2.716738 1_655
Pd1 Pd5 2.754093 1_555
Pd1 Pd3 2.754093 1_555
Pd1 Pd14 2.890278 1_555
Pd1 Pd15 2.890278 1_554
Pd1 Y2 2.958382 1_555
Pd1 Y7 2.958382 1_555
Pd1 Y1 2.958382 1_554
Pd1 Y3 2.958382 1_554
Pd1 Pd10 3.164436 1_655
Pd1 Pd11 3.164436 1_654
Pd2 Pd21 2.710713 1_555
Pd2 Pd20 2.710713 1_555
Pd2 Pt0 2.888366 1_555
Pd2 Pt1 2.888366 1_455
Pd2 Y4 2.957480 1_555
Pd2 Y0 2.957480 1_555
Pd2 Y3 2.957480 1_455
Pd2 Y7 2.957480 1_455
Pd2 Pd7 3.164436 1_555
Pd2 Pd9 3.164436 1_455
Pd3 Y7 2.965623 1_555
Pd3 Y0 2.965623 1_555
Pd3 Y3 2.965623 1_554
Pd3 Y4 2.965623 1_554
Pd3 Pd6 3.158402 1_555
Pd3 Pd8 3.158402 1_554
Pd4 Pt0 2.888366 1_555
Pd4 Pt1 2.888366 1_455
Pd4 Y6 2.957480 1_555
Pd4 Y5 2.957480 1_555
Pd4 Y1 2.957480 1_455
Pd4 Y2 2.957480 1_455
Pd4 Pd7 3.164436 1_565
Pd4 Pd9 3.164436 1_465
Pd5 Y2 2.965623 1_555
Pd5 Y5 2.965623 1_555
Pd5 Y1 2.965623 1_554
Pd5 Y6 2.965623 1_554
Pd5 Pd6 3.158402 1_565
Pd5 Pd8 3.158402 1_564
Pd6 Pd9 2.754093 1_555
Pd6 Pd7 2.754093 1_555
Pd6 Y7 2.965623 1_555
Pd6 Y0 2.965623 1_555
Pd6 Y2 2.965623 1_545
Pd6 Y5 2.965623 1_545
Pd7 Pd8 2.754093 1_555
Pd7 Y4 2.958382 1_555
Pd7 Y0 2.958382 1_555
Pd7 Y6 2.958382 1_545
Pd7 Y5 2.958382 1_545
Pd8 Pd9 2.754093 1_555
Pd8 Y3 2.965623 1_555
Pd8 Y4 2.965623 1_555
Pd8 Y1 2.965623 1_545
Pd8 Y6 2.965623 1_545
Pd9 Y3 2.958382 1_555
Pd9 Y7 2.958382 1_555
Pd9 Y1 2.958382 1_545
Pd9 Y2 2.958382 1_545
Pd10 Pd19 2.710713 1_555
Pd10 Pd18 2.710713 1_555
Pd10 Pd4 2.751698 1_555
Pd10 Pd2 2.751698 1_555
Pd10 Pt0 2.888366 1_555
Pd10 Pt1 2.888366 1_455
Pd10 Y5 2.957480 1_555
Pd10 Y0 2.957480 1_555
Pd10 Y2 2.957480 1_455
Pd10 Y7 2.957480 1_455
Pd11 Pd19 2.710713 1_556
Pd11 Pd18 2.710713 1_556
Pd11 Pd4 2.751698 1_555
Pd11 Pd2 2.751698 1_555
Pd11 Pt0 2.888366 1_555
Pd11 Pt1 2.888366 1_455
Pd11 Y6 2.957480 1_555
Pd11 Y4 2.957480 1_555
Pd11 Y1 2.957480 1_455
Pd11 Y3 2.957480 1_455
Pd12 Pd8 2.888820 1_555
Pd12 Pd6 2.888820 1_555
Pd12 Pd9 2.890278 1_555
Pd12 Pd7 2.890278 1_555
Pd12 Pd15 2.892030 1_555
Pd12 Pd14 2.892030 1_555
Pd12 Pt1 2.899208 1_555
Pd12 Pt0 2.899208 1_555
Pd12 Y3 2.925255 1_555
Pd12 Y7 2.925255 1_555
Pd12 Y4 2.925255 1_555
Pd12 Y0 2.925255 1_555
Pd13 Pd8 2.888820 1_565
Pd13 Pd6 2.888820 1_565
Pd13 Pd9 2.890278 1_565
Pd13 Pd7 2.890278 1_565
Pd13 Pd15 2.892030 1_555
Pd13 Pd14 2.892030 1_555
Pd13 Pt1 2.899208 1_555
Pd13 Pt0 2.899208 1_555
Pd13 Y1 2.925255 1_555
Pd13 Y2 2.925255 1_555
Pd13 Y6 2.925255 1_555
Pd13 Y5 2.925255 1_555
Pd14 Pd5 2.888820 1_555
Pd14 Pd3 2.888820 1_555
Pd14 Pt1 2.899208 1_555
Pd14 Pt0 2.899208 1_555
Pd14 Y2 2.925255 1_555
Pd14 Y7 2.925255 1_555
Pd14 Y5 2.925255 1_555
Pd14 Y0 2.925255 1_555
Pd15 Pd5 2.888820 1_556
Pd15 Pd3 2.888820 1_556
Pd15 Pt1 2.899208 1_555
Pd15 Pt0 2.899208 1_555
Pd15 Y1 2.925255 1_555
Pd15 Y6 2.925255 1_555
Pd15 Y3 2.925255 1_555
Pd15 Y4 2.925255 1_555
Pd16 Pd6 2.712292 1_555
Pd16 Pd3 2.712292 1_555
Pd16 Pd5 2.712292 1_545
Pd16 Pd8 2.712292 1_554
Pd16 Y0 3.040860 1_555
Pd16 Y5 3.040860 1_545
Pd16 Y4 3.040860 1_554
Pd16 Y6 3.040860 1_544
Pd16 Pd17 3.078167 1_555
Pd17 Pd6 2.712292 1_555
Pd17 Pd3 2.712292 1_555
Pd17 Pd8 2.712292 1_554
Pd17 Pd5 2.712292 1_545
Pd17 Y7 3.040860 1_555
Pd17 Y2 3.040860 1_545
Pd17 Y3 3.040860 1_554
Pd17 Y1 3.040860 1_544
Pd18 Y0 3.039046 1_555
Pd18 Y7 3.039046 1_455
Pd18 Y4 3.039046 1_554
Pd18 Y3 3.039046 1_454
Pd18 Pd19 3.070822 1_555
Pd19 Y5 3.039046 1_555
Pd19 Y6 3.039046 1_554
Pd19 Y2 3.039046 1_455
Pd19 Y1 3.039046 1_454
Pd20 Pd4 2.710713 1_545
Pd20 Pd7 2.716738 1_555
Pd20 Pd9 2.716738 1_455
Pd20 Y0 3.039046 1_555
Pd20 Y5 3.039046 1_545
Pd20 Y7 3.039046 1_455
Pd20 Y2 3.039046 1_445
Pd20 Pd21 3.070822 1_555
Pd21 Pd4 2.710713 1_545
Pd21 Pd7 2.716738 1_555
Pd21 Pd9 2.716738 1_455
Pd21 Y4 3.039046 1_555
Pd21 Y6 3.039046 1_545
Pd21 Y3 3.039046 1_455
Pd21 Y1 3.039046 1_445
Pt0 Y6 2.917558 1_555
Pt0 Y5 2.917558 1_555
Pt0 Y4 2.917558 1_555
Pt0 Y0 2.917558 1_555
Pt1 Y1 2.917558 1_555
Pt1 Y2 2.917558 1_555
Pt1 Y3 2.917558 1_555
Pt1 Y7 2.917558 1_555
Pb0 Pd18 2.644271 1_555
Pb0 Pd20 2.644271 1_555
Pb0 Pd19 2.644271 1_545
Pb0 Pd21 2.644271 1_554
Pb0 Pd16 2.650681 1_555
Pb0 Pd17 2.650681 1_455
