# generated using pymatgen
data_MgPt2PbO7
_symmetry_space_group_name_H-M   'P 1'
_cell_length_a   7.07485953
_cell_length_b   7.16344673
_cell_length_c   7.07485979
_cell_angle_alpha   59.58491618
_cell_angle_beta   59.31267820
_cell_angle_gamma   59.58493267
_symmetry_Int_Tables_number   1
_chemical_formula_structural   MgPt2PbO7
_chemical_formula_sum   'Mg2 Pt4 Pb2 O14'
_cell_volume   250.61721263
_cell_formula_units_Z   2
loop_
 _symmetry_equiv_pos_site_id
 _symmetry_equiv_pos_as_xyz
  1  'x, y, z'
loop_
 _atom_site_type_symbol
 _atom_site_label
 _atom_site_symmetry_multiplicity
 _atom_site_fract_x
 _atom_site_fract_y
 _atom_site_fract_z
 _atom_site_occupancy
  Mg  Mg0  1  0.12500000  0.12500000  0.62500000  1
  Mg  Mg1  1  0.62500000  0.12500000  0.12500000  1
  Pt  Pt0  1  0.62500000  0.62500000  0.12500000  1
  Pt  Pt1  1  0.62500000  0.12500000  0.62500000  1
  Pt  Pt2  1  0.12500000  0.62500000  0.62500000  1
  Pt  Pt3  1  0.62500000  0.62500000  0.62500000  1
  Pb  Pb0  1  0.12500000  0.62500000  0.12500000  1
  Pb  Pb1  1  0.12500000  0.12500000  0.12500000  1
  O  O0  1  0.25484093  0.24515907  0.25484093  1
  O  O1  1  0.99515907  0.00484093  0.99515907  1
  O  O2  1  0.53162069  0.96837931  0.53162069  1
  O  O3  1  0.28595676  0.71404324  0.28595676  1
  O  O4  1  0.53656995  0.53112375  0.96743147  1
  O  O5  1  0.96743147  0.53112375  0.53656995  1
  O  O6  1  0.53656995  0.96487483  0.96743147  1
  O  O7  1  0.96743147  0.96487483  0.53656995  1
  O  O8  1  0.96404324  0.53595676  0.96404324  1
  O  O9  1  0.71343005  0.28512517  0.28256853  1
  O  O10  1  0.28256853  0.71887625  0.71343005  1
  O  O11  1  0.71837931  0.28162069  0.71837931  1
  O  O12  1  0.28256853  0.28512517  0.71343005  1
  O  O13  1  0.71343005  0.71887625  0.28256853  1
loop_
_geom_bond_atom_site_label_1
_geom_bond_atom_site_label_2
_geom_bond_distance
_geom_bond_site_symmetry_2
Mg0 O0 2.122663 1_555
Mg0 O1 2.122663 1_455
Mg0 O2 2.348126 1_545
Mg0 O11 2.348126 1_455
Mg0 O12 2.383917 1_555
Mg0 O7 2.383917 1_445
Mg0 O5 2.383917 1_455
Mg0 O10 2.383917 1_545
Mg1 O1 2.122664 1_554
Mg1 O0 2.122664 1_555
Mg1 O2 2.348126 1_545
Mg1 O11 2.348126 1_554
Mg1 O13 2.383917 1_545
Mg1 O4 2.383917 1_554
Mg1 O9 2.383917 1_555
Mg1 O6 2.383917 1_544
O0 Pb1 2.211576 1_555
O0 Pb0 2.211576 1_555
O1 Pb1 2.211576 1_656
O1 Pb0 2.211576 1_646
O2 Pt1 2.019438 1_565
O2 Pt3 2.019438 1_555
O3 Pt2 1.963547 1_555
O3 Pt0 1.963547 1_555
O3 Pb0 2.407248 1_555
O3 Pb1 2.407248 1_565
O4 Pt3 1.985506 1_555
O4 Pt0 1.995815 1_556
O4 Pb0 2.374179 1_556
O5 Pt3 1.985507 1_555
O5 Pt2 1.995815 1_655
O5 Pb0 2.374179 1_655
O6 Pt1 1.985506 1_565
O6 Pt0 1.995815 1_556
O6 Pb1 2.374179 1_566
O7 Pt1 1.985507 1_565
O7 Pt2 1.995815 1_655
O7 Pb1 2.374179 1_665
O8 Pt2 1.963547 1_655
O8 Pt0 1.963547 1_556
O8 Pb0 2.407248 1_656
O8 Pb1 2.407248 1_656
O9 Pt1 1.985506 1_555
O9 Pt0 1.995815 1_555
O9 Pb1 2.374179 1_655
O10 Pt3 1.985507 1_555
O10 Pt2 1.995815 1_555
O10 Pb0 2.374179 1_556
O11 Pt1 2.019438 1_555
O11 Pt3 2.019438 1_555
O12 Pt1 1.985507 1_555
O12 Pt2 1.995815 1_555
O12 Pb1 2.374179 1_556
O13 Pt3 1.985506 1_555
O13 Pt0 1.995815 1_555
O13 Pb0 2.374179 1_655
