# generated using pymatgen
data_Sn14IrRu5
_symmetry_space_group_name_H-M   'P 1'
_cell_length_a   8.14809058
_cell_length_b   8.14809081
_cell_length_c   8.14809036
_cell_angle_alpha   109.56292671
_cell_angle_beta   109.28797555
_cell_angle_gamma   109.56291808
_symmetry_Int_Tables_number   1
_chemical_formula_structural   Sn14IrRu5
_chemical_formula_sum   'Sn14 Ir1 Ru5'
_cell_volume   416.43028609
_cell_formula_units_Z   1
loop_
 _symmetry_equiv_pos_site_id
 _symmetry_equiv_pos_as_xyz
  1  'x, y, z'
loop_
 _atom_site_type_symbol
 _atom_site_label
 _atom_site_symmetry_multiplicity
 _atom_site_fract_x
 _atom_site_fract_y
 _atom_site_fract_z
 _atom_site_occupancy
  Sn  Sn0  1  0.25188924  0.74928608  0.50260316  1
  Sn  Sn1  1  0.75331708  0.25071392  0.50260316  1
  Sn  Sn2  1  0.75050740  0.50000000  0.25050740  1
  Sn  Sn3  1  0.25050740  0.50000000  0.75050740  1
  Sn  Sn4  1  0.50260316  0.74928608  0.25188924  1
  Sn  Sn5  1  0.50260316  0.25071392  0.75331708  1
  Sn  Sn6  1  0.99694854  1.00000000  0.32180687  1
  Sn  Sn7  1  0.67801613  1.00000000  0.99977303  1
  Sn  Sn8  1  0.99694854  0.67514167  0.99694854  1
  Sn  Sn9  1  0.32180687  0.32485833  0.32180687  1
  Sn  Sn10  1  0.99977303  0.32175690  0.99977303  1
  Sn  Sn11  1  0.67801613  0.67824310  0.67801613  1
  Sn  Sn12  1  0.32180687  0.00000000  0.99694854  1
  Sn  Sn13  1  0.99977303  0.00000000  0.67801613  1
  Ir  Ir0  1  0.34196645  1.00000000  0.34196645  1
  Ru  Ru0  1  0.00003908  0.34441469  0.34445377  1
  Ru  Ru1  1  0.00003908  0.65558531  0.65562439  1
  Ru  Ru2  1  0.34445377  0.34441469  0.00003908  1
  Ru  Ru3  1  0.65562439  0.65558531  0.00003908  1
  Ru  Ru4  1  0.65336363  0.00000000  0.65336363  1
loop_
_geom_bond_atom_site_label_1
_geom_bond_atom_site_label_2
_geom_bond_distance
_geom_bond_site_symmetry_2
Sn6 Sn7 3.022184 1_554
Sn6 Sn8 3.053003 1_554
Sn6 Sn9 3.053004 1_665
Sn10 Sn8 2.894905 1_555
Sn10 Sn9 3.022184 1_656
Sn10 Sn13 3.023856 1_555
Sn10 Sn7 3.023857 1_545
Sn11 Sn9 2.894905 1_555
Sn11 Sn8 3.022184 1_555
Sn11 Sn7 3.023856 1_555
Sn11 Sn13 3.023857 1_565
Sn12 Sn7 2.894905 1_545
Sn12 Sn13 3.022184 1_455
Sn12 Sn9 3.053003 1_556
Sn12 Sn8 3.053004 1_445
Sn13 Sn6 2.894905 1_545
Ir0 Sn8 2.761335 1_454
Ir0 Sn12 2.761335 1_564
Ir0 Sn6 2.761335 1_455
Ir0 Sn9 2.761335 1_565
Ir0 Sn5 2.801113 1_565
Ir0 Sn4 2.801113 1_555
Ir0 Sn1 2.801114 1_565
Ir0 Sn0 2.801114 1_555
Ru0 Sn9 2.740974 1_555
Ru0 Sn6 2.740974 1_445
Ru0 Sn7 2.751397 1_444
Ru0 Sn10 2.751397 1_454
Ru0 Sn1 2.761735 1_455
Ru0 Sn0 2.761735 1_555
Ru0 Sn2 2.770349 1_455
Ru0 Sn3 2.777854 1_555
Ru1 Sn12 2.740974 1_565
Ru1 Sn8 2.740974 1_455
Ru1 Sn11 2.751397 1_455
Ru1 Sn13 2.751397 1_465
Ru1 Sn0 2.761735 1_555
Ru1 Sn1 2.761735 1_455
Ru1 Sn2 2.770348 1_455
Ru1 Sn3 2.777854 1_555
Ru2 Sn9 2.740974 1_555
Ru2 Sn12 2.740974 1_554
Ru2 Sn13 2.751397 1_454
Ru2 Sn10 2.751397 1_454
Ru2 Sn5 2.761735 1_554
Ru2 Sn4 2.761735 1_555
Ru2 Sn3 2.770349 1_554
Ru2 Sn2 2.777854 1_555
Ru3 Sn6 2.740974 1_555
Ru3 Sn8 2.740974 1_554
Ru3 Sn11 2.751397 1_554
Ru3 Sn7 2.751397 1_554
Ru3 Sn4 2.761735 1_555
Ru3 Sn5 2.761735 1_554
Ru3 Sn3 2.770349 1_554
Ru3 Sn2 2.777854 1_555
Ru4 Sn4 2.751865 1_545
Ru4 Sn5 2.751865 1_555
Ru4 Sn0 2.751865 1_545
Ru4 Sn1 2.751865 1_555
Ru4 Sn10 2.762737 1_555
Ru4 Sn7 2.762737 1_545
Ru4 Sn13 2.762738 1_555
Ru4 Sn11 2.762738 1_545
