# generated using pymatgen
data_DyScO3
_symmetry_space_group_name_H-M   'P 1'
_cell_length_a   5.45367000
_cell_length_b   5.74784200
_cell_length_c   7.98824700
_cell_angle_alpha   90.00000000
_cell_angle_beta   90.00000000
_cell_angle_gamma   90.00000000
_symmetry_Int_Tables_number   1
_chemical_formula_structural   DyScO3
_chemical_formula_sum   'Dy4 Sc4 O12'
_cell_volume   250.40624851
_cell_formula_units_Z   4
loop_
 _symmetry_equiv_pos_site_id
 _symmetry_equiv_pos_as_xyz
  1  'x, y, z'
loop_
 _atom_site_type_symbol
 _atom_site_label
 _atom_site_symmetry_multiplicity
 _atom_site_fract_x
 _atom_site_fract_y
 _atom_site_fract_z
 _atom_site_occupancy
  Dy  Dy0  1  0.97988200  0.06215300  0.75000000  1
  Dy  Dy1  1  0.47988200  0.43784700  0.25000000  1
  Dy  Dy2  1  0.52011800  0.56215300  0.75000000  1
  Dy  Dy3  1  0.02011800  0.93784700  0.25000000  1
  Sc  Sc0  1  0.00000000  0.50000000  0.50000000  1
  Sc  Sc1  1  0.50000000  0.00000000  0.50000000  1
  Sc  Sc2  1  0.50000000  0.00000000  0.00000000  1
  Sc  Sc3  1  0.00000000  0.50000000  0.00000000  1
  O  O0  1  0.69105300  0.30636300  0.56838700  1
  O  O1  1  0.19105300  0.19363700  0.43161300  1
  O  O2  1  0.80894700  0.80636300  0.93161300  1
  O  O3  1  0.30894700  0.69363700  0.06838700  1
  O  O4  1  0.30894700  0.69363700  0.43161300  1
  O  O5  1  0.80894700  0.80636300  0.56838700  1
  O  O6  1  0.19105300  0.19363700  0.06838700  1
  O  O7  1  0.69105300  0.30636300  0.93161300  1
  O  O8  1  0.86930100  0.55737500  0.25000000  1
  O  O9  1  0.36930100  0.94262500  0.75000000  1
  O  O10  1  0.63069900  0.05737500  0.25000000  1
  O  O11  1  0.13069900  0.44262500  0.75000000  1
loop_
_geom_bond_atom_site_label_1
_geom_bond_atom_site_label_2
_geom_bond_distance
_geom_bond_site_symmetry_2
Dy0 O9 2.232124 1_645
Dy0 O2 2.266137 1_545
Dy0 O5 2.266137 1_545
Dy0 O11 2.336454 1_655
Dy0 O0 2.560515 1_555
Dy0 O7 2.560515 1_555
Dy0 O1 2.892425 1_655
Dy0 O6 2.892425 1_656
Dy1 O8 2.232124 1_555
Dy1 O4 2.266137 1_555
Dy1 O3 2.266137 1_555
Dy1 O10 2.336454 1_555
Dy1 O6 2.560515 1_555
Dy1 O1 2.560515 1_555
Dy1 O7 2.892425 1_554
Dy1 O0 2.892425 1_555
Dy2 O11 2.232124 1_555
Dy2 O0 2.266137 1_555
Dy2 O7 2.266137 1_555
Dy2 O9 2.336454 1_555
Dy2 O5 2.560515 1_555
Dy2 O2 2.560515 1_555
Dy2 O4 2.892425 1_555
Dy2 O3 2.892425 1_556
Dy3 O10 2.232124 1_465
Dy3 O6 2.266137 1_565
Dy3 O1 2.266137 1_565
Dy3 O8 2.336454 1_455
Dy3 O3 2.560515 1_555
Dy3 O4 2.560515 1_555
Dy3 O2 2.892425 1_454
Dy3 O5 2.892425 1_455
O0 Sc0 2.091904 1_655
O0 Sc1 2.117767 1_555
O1 Sc1 2.091904 1_555
O1 Sc0 2.117767 1_555
O2 Sc2 2.091904 1_566
O2 Sc3 2.117767 1_656
O3 Sc3 2.091904 1_555
O3 Sc2 2.117767 1_565
O4 Sc0 2.091904 1_555
O4 Sc1 2.117767 1_565
O5 Sc1 2.091904 1_565
O5 Sc0 2.117767 1_655
O6 Sc2 2.091904 1_555
O6 Sc3 2.117767 1_555
O7 Sc3 2.091904 1_656
O7 Sc2 2.117767 1_556
O8 Sc0 2.145945 1_655
O8 Sc3 2.145945 1_655
O9 Sc1 2.145945 1_565
O9 Sc2 2.145945 1_566
O10 Sc1 2.145945 1_555
O10 Sc2 2.145945 1_555
O11 Sc0 2.145945 1_555
O11 Sc3 2.145945 1_556
