# generated using pymatgen
data_Rb(TeO3)2
_symmetry_space_group_name_H-M   'P 1'
_cell_length_a   7.34264349
_cell_length_b   7.34264360
_cell_length_c   7.34264286
_cell_angle_alpha   59.99999995
_cell_angle_beta   60.00000164
_cell_angle_gamma   60.00000497
_symmetry_Int_Tables_number   1
_chemical_formula_structural   Rb(TeO3)2
_chemical_formula_sum   'Rb2 Te4 O12'
_cell_volume   279.92540817
_cell_formula_units_Z   2
loop_
 _symmetry_equiv_pos_site_id
 _symmetry_equiv_pos_as_xyz
  1  'x, y, z'
loop_
 _atom_site_type_symbol
 _atom_site_label
 _atom_site_symmetry_multiplicity
 _atom_site_fract_x
 _atom_site_fract_y
 _atom_site_fract_z
 _atom_site_occupancy
  Rb  Rb0  1  0.62500000  0.62500000  0.62500000  1
  Rb  Rb1  1  0.37500000  0.37500000  0.37500000  1
  Te  Te0  1  -0.00000000  -0.00000000  0.00000000  1
  Te  Te1  1  -0.00000000  0.50000000  0.00000000  1
  Te  Te2  1  -0.00000000  -0.00000000  0.50000000  1
  Te  Te3  1  0.50000000  -0.00000000  0.00000000  1
  O  O0  1  0.93185839  0.31814161  0.93185839  1
  O  O1  1  0.93185839  0.93185839  0.31814161  1
  O  O2  1  0.68185839  0.06814161  0.68185839  1
  O  O3  1  0.68185839  0.68185839  0.06814161  1
  O  O4  1  0.31814161  0.93185839  0.93185839  1
  O  O5  1  0.93185839  0.31814161  0.31814161  1
  O  O6  1  0.68185839  0.06814161  0.06814161  1
  O  O7  1  0.31814161  0.31814161  0.93185839  1
  O  O8  1  0.31814161  0.93185839  0.31814161  1
  O  O9  1  0.06814161  0.68185839  0.68185839  1
  O  O10  1  0.06814161  0.68185839  0.06814161  1
  O  O11  1  0.06814161  0.06814161  0.68185839  1
loop_
_geom_bond_atom_site_label_1
_geom_bond_atom_site_label_2
_geom_bond_distance
_geom_bond_site_symmetry_2
O0 Te1 1.967315 1_656
O0 Te0 1.967316 1_656
O0 Rb0 3.186438 1_555
O1 Te0 1.967315 1_665
O1 Te2 1.967315 1_665
O1 Rb0 3.186438 1_555
O2 Te3 1.967315 1_556
O2 Te2 1.967316 1_655
O2 Rb1 3.186438 1_555
O3 Te3 1.967316 1_565
O3 Te1 1.967316 1_655
O3 Rb1 3.186438 1_555
O4 Te3 1.967315 1_566
O4 Te0 1.967316 1_566
O4 Rb0 3.186438 1_555
O5 Te1 1.967315 1_655
O5 Te2 1.967316 1_655
O5 Rb0 3.186438 1_555
O6 Te3 1.967315 1_555
O6 Te0 1.967316 1_655
O6 Rb1 3.186438 1_555
O7 Te3 1.967316 1_556
O7 Te1 1.967316 1_556
O7 Rb0 3.186438 1_555
O8 Te3 1.967315 1_565
O8 Te2 1.967316 1_565
O8 Rb0 3.186438 1_555
O9 Te1 1.967315 1_556
O9 Te2 1.967316 1_565
O9 Rb1 3.186438 1_555
O10 Te1 1.967315 1_555
O10 Te0 1.967316 1_565
O10 Rb1 3.186438 1_555
O11 Te0 1.967315 1_556
O11 Te2 1.967315 1_555
O11 Rb1 3.186438 1_555
