# generated using pymatgen
data_Rb5BaNbP4
_symmetry_space_group_name_H-M   'P 1'
_cell_length_a   10.56877128
_cell_length_b   10.56877058
_cell_length_c   8.14470581
_cell_angle_alpha   88.66550423
_cell_angle_beta   88.66550314
_cell_angle_gamma   120.55704137
_symmetry_Int_Tables_number   1
_chemical_formula_structural   Rb5BaNbP4
_chemical_formula_sum   'Rb10 Ba2 Nb2 P8'
_cell_volume   782.54640214
_cell_formula_units_Z   2
loop_
 _symmetry_equiv_pos_site_id
 _symmetry_equiv_pos_as_xyz
  1  'x, y, z'
loop_
 _atom_site_type_symbol
 _atom_site_label
 _atom_site_symmetry_multiplicity
 _atom_site_fract_x
 _atom_site_fract_y
 _atom_site_fract_z
 _atom_site_occupancy
  Rb  Rb0  1  0.46526379  0.52550243  0.49788068  1
  Rb  Rb1  1  0.06044566  0.52701720  0.49943798  1
  Rb  Rb2  1  0.52550243  0.46526379  0.99788068  1
  Rb  Rb3  1  0.52701720  0.06044566  0.99943798  1
  Rb  Rb4  1  0.86508014  0.14174510  0.67906261  1
  Rb  Rb5  1  0.29605052  0.15451722  0.71691684  1
  Rb  Rb6  1  0.85518815  0.71682254  0.65741180  1
  Rb  Rb7  1  0.14174510  0.86508014  0.17906261  1
  Rb  Rb8  1  0.71682254  0.85518815  0.15741180  1
  Rb  Rb9  1  0.15451722  0.29605052  0.21691684  1
  Ba  Ba0  1  0.46326142  0.93227210  0.49148364  1
  Ba  Ba1  1  0.93227210  0.46326142  0.99148364  1
  Nb  Nb0  1  0.66926150  0.33142478  0.39362075  1
  Nb  Nb1  1  0.33142478  0.66926150  0.89362075  1
  P  P0  1  0.68386202  0.33747663  0.68998555  1
  P  P1  1  0.33747663  0.68386202  0.18998555  1
  P  P2  1  0.78922673  0.20201825  0.29120980  1
  P  P3  1  0.41286928  0.19608866  0.32231711  1
  P  P4  1  0.79559349  0.57901040  0.27496124  1
  P  P5  1  0.20201825  0.78922673  0.79120980  1
  P  P6  1  0.57901040  0.79559349  0.77496124  1
  P  P7  1  0.19608866  0.41286928  0.82231711  1
loop_
_geom_bond_atom_site_label_1
_geom_bond_atom_site_label_2
_geom_bond_distance
_geom_bond_site_symmetry_2
Ba0 P6 3.269087 1_555
Ba0 P5 3.337377 1_555
Ba0 P3 3.364713 1_565
Ba0 P1 3.404931 1_555
Ba0 P2 3.491695 1_565
Ba1 P4 3.269087 1_556
Ba1 P2 3.337377 1_556
Ba1 P7 3.364713 1_655
Ba1 P0 3.404931 1_555
Ba1 P5 3.491695 1_655
Nb0 P4 2.415248 1_555
Nb0 P0 2.422572 1_555
Nb0 P3 2.428360 1_555
Nb0 P2 2.437380 1_555
Nb1 P6 2.415248 1_555
Nb1 P1 2.422572 1_556
Nb1 P7 2.428360 1_555
Nb1 P5 2.437380 1_555
P0 Rb6 3.459703 1_555
P0 Rb4 3.461867 1_555
P0 Rb3 3.492773 1_555
P0 Rb5 3.530755 1_555
P0 Rb2 3.629653 1_555
P0 Rb1 3.704430 1_655
P1 Rb8 3.459704 1_555
P1 Rb7 3.461867 1_555
P1 Rb1 3.492773 1_555
P1 Rb9 3.530755 1_555
P1 Rb0 3.629653 1_555
P1 Rb3 3.704430 1_564
P2 Rb4 3.401603 1_555
P2 Rb3 3.438318 1_554
P2 Rb9 3.495793 1_655
P2 Rb8 3.547157 1_545
P2 Rb1 3.657537 1_655
P3 Rb5 3.353259 1_555
P3 Rb7 3.458870 1_545
P3 Rb3 3.494641 1_554
P3 Rb9 3.508355 1_555
P3 Rb2 3.542976 1_554
P3 Rb0 3.575002 1_555
P4 Rb6 3.404547 1_555
P4 Rb2 3.409341 1_554
P4 Rb7 3.412517 1_655
P4 Rb8 3.536551 1_555
P4 Rb1 3.638061 1_655
P4 Rb0 3.667977 1_555
P5 Rb7 3.401603 1_556
P5 Rb1 3.438318 1_555
P5 Rb5 3.495793 1_565
P5 Rb6 3.547157 1_455
P5 Rb3 3.657537 1_565
P6 Rb8 3.404547 1_556
P6 Rb0 3.409340 1_555
P6 Rb4 3.412517 1_565
P6 Rb6 3.536551 1_555
P6 Rb3 3.638061 1_565
P6 Rb2 3.667977 1_555
P7 Rb9 3.353259 1_556
P7 Rb4 3.458871 1_455
P7 Rb1 3.494641 1_555
P7 Rb5 3.508354 1_555
P7 Rb0 3.542976 1_555
P7 Rb2 3.575003 1_555
