# generated using pymatgen
data_Cs10ScGa5Se14
_symmetry_space_group_name_H-M   'P 1'
_cell_length_a   11.34682675
_cell_length_b   11.34682610
_cell_length_c   9.67861271
_cell_angle_alpha   76.07934495
_cell_angle_beta   76.07934553
_cell_angle_gamma   70.61221895
_symmetry_Int_Tables_number   1
_chemical_formula_structural   Cs10ScGa5Se14
_chemical_formula_sum   'Cs10 Sc1 Ga5 Se14'
_cell_volume   1123.22425565
_cell_formula_units_Z   1
loop_
 _symmetry_equiv_pos_site_id
 _symmetry_equiv_pos_as_xyz
  1  'x, y, z'
loop_
 _atom_site_type_symbol
 _atom_site_label
 _atom_site_symmetry_multiplicity
 _atom_site_fract_x
 _atom_site_fract_y
 _atom_site_fract_z
 _atom_site_occupancy
  Cs  Cs0  1  0.02483948  0.43773602  0.72009781  1
  Cs  Cs1  1  0.43773602  0.02483948  0.72009781  1
  Cs  Cs2  1  0.96702970  0.57240051  0.28348550  1
  Cs  Cs3  1  0.57240051  0.96702970  0.28348550  1
  Cs  Cs4  1  0.28847468  0.71036853  0.99641420  1
  Cs  Cs5  1  0.71036853  0.28847468  0.99641420  1
  Cs  Cs6  1  0.84630348  0.15039968  0.50169036  1
  Cs  Cs7  1  0.15039968  0.84630348  0.50169036  1
  Cs  Cs8  1  0.42729640  0.42729640  0.68885875  1
  Cs  Cs9  1  0.57097253  0.57097253  0.30468826  1
  Sc  Sc0  1  0.21412981  0.21412981  0.18189185  1
  Ga  Ga0  1  0.78700799  0.78700799  0.81742204  1
  Ga  Ga1  1  0.07194290  0.07194290  0.05885874  1
  Ga  Ga2  1  0.92873941  0.92873941  0.94385050  1
  Ga  Ga3  1  0.34746336  0.34746336  0.33492787  1
  Ga  Ga4  1  0.65319226  0.65319226  0.66314174  1
  Se  Se0  1  0.99126723  0.28595626  0.11443936  1
  Se  Se1  1  0.28595626  0.99126723  0.11443936  1
  Se  Se2  1  0.99631964  0.71639727  0.88732474  1
  Se  Se3  1  0.71639727  0.99631964  0.88732474  1
  Se  Se4  1  0.20803765  0.20803765  0.44641156  1
  Se  Se5  1  0.79450208  0.79450208  0.56605408  1
  Se  Se6  1  0.06240412  0.06240412  0.81371583  1
  Se  Se7  1  0.93813070  0.93813070  0.18886655  1
  Se  Se8  1  0.35655363  0.35655363  0.07035570  1
  Se  Se9  1  0.65228701  0.65228701  0.92256396  1
  Se  Se10  1  0.24891256  0.55280269  0.39403800  1
  Se  Se11  1  0.55280269  0.24891256  0.39403800  1
  Se  Se12  1  0.74961674  0.44851465  0.60170481  1
  Se  Se13  1  0.44851465  0.74961674  0.60170481  1
loop_
_geom_bond_atom_site_label_1
_geom_bond_atom_site_label_2
_geom_bond_distance
_geom_bond_site_symmetry_2
Cs0 Se12 3.532892 1_455
Cs0 Se0 3.775114 1_456
Cs0 Se2 3.775330 1_455
Cs0 Se10 3.806441 1_555
Cs0 Se4 3.899521 1_555
Cs0 Se6 4.032887 1_555
Cs1 Se13 3.532892 1_545
Cs1 Se1 3.775114 1_546
Cs1 Se3 3.775330 1_545
Cs1 Se11 3.806441 1_555
Cs1 Se4 3.899521 1_555
Cs1 Se6 4.032888 1_555
Cs2 Se10 3.533351 1_655
Cs2 Se12 3.756480 1_555
Cs2 Se2 3.770260 1_554
Cs2 Se0 3.881406 1_555
Cs2 Se5 3.889441 1_555
Cs2 Se7 3.947165 1_555
Cs3 Se11 3.533351 1_565
Cs3 Se13 3.756480 1_555
Cs3 Se3 3.770260 1_554
Cs3 Se1 3.881406 1_555
Cs3 Se5 3.889441 1_555
Cs3 Se7 3.947166 1_555
Cs4 Se1 3.624958 1_556
Cs4 Se2 3.688862 1_455
Cs4 Se8 3.748480 1_556
Cs4 Se13 3.804024 1_555
Cs4 Se10 3.820936 1_556
Cs4 Se9 3.871336 1_555
Cs5 Se0 3.624959 1_556
Cs5 Se3 3.688862 1_545
Cs5 Se8 3.748480 1_556
Cs5 Se12 3.804024 1_555
Cs5 Se11 3.820936 1_556
Cs5 Se9 3.871335 1_555
Cs6 Se11 3.473280 1_555
Cs6 Se12 3.490513 1_555
Cs6 Se0 3.880579 1_555
Cs6 Se3 3.883848 1_545
Cs6 Se7 4.047048 1_545
Cs6 Se6 4.076329 1_655
Cs6 Se5 4.150999 1_545
Cs6 Se4 4.256574 1_655
Cs7 Se10 3.473279 1_555
Cs7 Se13 3.490513 1_555
Cs7 Se1 3.880579 1_555
Cs7 Se2 3.883848 1_455
Cs7 Se7 4.047048 1_455
Cs7 Se6 4.076329 1_565
Cs7 Se5 4.150999 1_455
Cs7 Se4 4.256574 1_565
Cs8 Se8 3.535225 1_556
Cs8 Se13 3.626009 1_555
Cs8 Se12 3.626009 1_555
Cs8 Se11 3.630044 1_555
Cs8 Se10 3.630044 1_555
Cs9 Se9 3.558429 1_554
Cs9 Se11 3.610894 1_555
Cs9 Se10 3.610894 1_555
Cs9 Se13 3.649031 1_555
Cs9 Se12 3.649031 1_555
Sc0 Se4 2.529222 1_555
Sc0 Se8 2.538455 1_555
Sc0 Se1 2.579767 1_545
Sc0 Se0 2.579768 1_455
Ga0 Se5 2.395652 1_555
Ga0 Se9 2.400752 1_555
Ga0 Se3 2.447318 1_555
Ga0 Se2 2.447318 1_555
Ga1 Se7 2.426129 1_445
Ga1 Se6 2.430590 1_554
Ga1 Se0 2.437231 1_455
Ga1 Se1 2.437231 1_545
Ga2 Se6 2.424025 1_665
Ga2 Se7 2.428382 1_556
Ga2 Se2 2.428645 1_555
Ga2 Se3 2.428645 1_555
Ga3 Se10 2.368580 1_555
Ga3 Se11 2.368580 1_555
Ga3 Se4 2.487760 1_555
Ga3 Se8 2.516210 1_555
Ga4 Se12 2.368290 1_555
Ga4 Se13 2.368290 1_555
Ga4 Se9 2.505956 1_555
Ga4 Se5 2.506369 1_555
