# generated using pymatgen
data_ZnInAg2F7
_symmetry_space_group_name_H-M   'P 1'
_cell_length_a   7.61736849
_cell_length_b   7.61736853
_cell_length_c   7.61736878
_cell_angle_alpha   121.02905711
_cell_angle_beta   118.11162068
_cell_angle_gamma   90.76415084
_symmetry_Int_Tables_number   1
_chemical_formula_structural   ZnInAg2F7
_chemical_formula_sum   'Zn2 In2 Ag4 F14'
_cell_volume   314.28456932
_cell_formula_units_Z   2
loop_
 _symmetry_equiv_pos_site_id
 _symmetry_equiv_pos_as_xyz
  1  'x, y, z'
loop_
 _atom_site_type_symbol
 _atom_site_label
 _atom_site_symmetry_multiplicity
 _atom_site_fract_x
 _atom_site_fract_y
 _atom_site_fract_z
 _atom_site_occupancy
  Zn  Zn0  1  0.50000000  0.50000000  0.50000000  1
  Zn  Zn1  1  0.50000000  0.00000000  0.00000000  1
  In  In0  1  0.00000000  0.50000000  0.50000000  1
  In  In1  1  0.50000000  0.00000000  0.50000000  1
  Ag  Ag0  1  0.50000000  0.50000000  0.00000000  1
  Ag  Ag1  1  0.00000000  0.00000000  0.00000000  1
  Ag  Ag2  1  0.00000000  0.50000000  0.00000000  1
  Ag  Ag3  1  0.00000000  0.00000000  0.50000000  1
  F  F0  1  0.86760720  0.59987856  0.26772964  1
  F  F1  1  0.16785008  0.90012144  0.26772964  1
  F  F2  1  0.18442650  0.82627028  0.77419365  1
  F  F3  1  0.44792337  0.67372972  0.35815822  1
  F  F4  1  0.44792337  0.08976715  0.77419365  1
  F  F5  1  0.18442650  0.41023285  0.35815822  1
  F  F6  1  0.81557350  0.58976715  0.64184178  1
  F  F7  1  0.55207663  0.91023285  0.22580635  1
  F  F8  1  0.55207663  0.32627028  0.64184178  1
  F  F9  1  0.81557350  0.17372972  0.22580635  1
  F  F10  1  0.42573323  0.25000000  0.17573323  1
  F  F11  1  0.13239280  0.40012144  0.73227036  1
  F  F12  1  0.83214992  0.09987856  0.73227036  1
  F  F13  1  0.57426677  0.75000000  0.82426677  1
loop_
_geom_bond_atom_site_label_1
_geom_bond_atom_site_label_2
_geom_bond_distance
_geom_bond_site_symmetry_2
Ag0 F0 2.353928 1_555
Ag0 F11 2.353928 1_554
Ag0 F7 2.581380 1_555
Ag0 F4 2.581380 1_554
Ag0 F3 2.581393 1_555
Ag0 F8 2.581393 1_554
Ag1 F1 2.353933 1_545
Ag1 F12 2.353933 1_454
Ag1 F2 2.581380 1_544
Ag1 F9 2.581380 1_455
Ag1 F5 2.581383 1_555
Ag1 F6 2.581383 1_444
Ag2 F12 2.472655 1_454
Ag2 F1 2.472655 1_555
Ag2 F11 2.472662 1_554
Ag2 F0 2.472662 1_455
Ag3 F12 2.472650 1_455
Ag3 F1 2.472650 1_545
Ag3 F11 2.472657 1_555
Ag3 F0 2.472657 1_445
F0 In0 2.110210 1_655
F1 In1 2.110215 1_565
F2 Zn1 2.039676 1_566
F2 In0 2.074360 1_555
F3 Zn0 2.039664 1_555
F3 In1 2.074363 1_565
F4 Zn1 2.039676 1_556
F4 In1 2.074360 1_555
F5 Zn0 2.039679 1_555
F5 In0 2.074350 1_555
F6 Zn0 2.039679 1_555
F6 In0 2.074350 1_655
F7 Zn1 2.039676 1_565
F7 In1 2.074360 1_565
F8 Zn0 2.039664 1_555
F8 In1 2.074363 1_555
F9 Zn1 2.039676 1_555
F9 In0 2.074360 1_655
F10 Zn0 1.962848 1_555
F10 Zn1 1.962848 1_555
F11 In0 2.110210 1_555
F12 In1 2.110215 1_555
F13 Zn0 1.962848 1_555
F13 Zn1 1.962848 1_566
