# generated using pymatgen
data_Mn4ZnCu2Pd9
_symmetry_space_group_name_H-M   'P 1'
_cell_length_a   6.71239126
_cell_length_b   6.71239118
_cell_length_c   6.71239120
_cell_angle_alpha   106.04681277
_cell_angle_beta   106.04680748
_cell_angle_gamma   116.56128433
_symmetry_Int_Tables_number   1
_chemical_formula_structural   Mn4ZnCu2Pd9
_chemical_formula_sum   'Mn4 Zn1 Cu2 Pd9'
_cell_volume   230.10896729
_cell_formula_units_Z   1
loop_
 _symmetry_equiv_pos_site_id
 _symmetry_equiv_pos_as_xyz
  1  'x, y, z'
loop_
 _atom_site_type_symbol
 _atom_site_label
 _atom_site_symmetry_multiplicity
 _atom_site_fract_x
 _atom_site_fract_y
 _atom_site_fract_z
 _atom_site_occupancy
  Mn  Mn0  1  0.23762484  0.23762484  0.47525268  1
  Mn  Mn1  1  0.76237516  0.76237516  0.52474732  1
  Mn  Mn2  1  0.23762484  0.76237516  0.00000000  1
  Mn  Mn3  1  0.76237516  0.23762484  1.00000000  1
  Zn  Zn0  1  0.50000000  0.50000000  0.00000000  1
  Cu  Cu0  1  0.50000000  0.00000000  0.50000000  1
  Cu  Cu1  1  0.00000000  0.50000000  0.50000000  1
  Pd  Pd0  1  0.51911474  0.26637753  0.25273620  1
  Pd  Pd1  1  0.48088526  0.73362247  0.74726380  1
  Pd  Pd2  1  0.01364133  0.26637753  0.74726380  1
  Pd  Pd3  1  0.26637753  0.01364133  0.74726380  1
  Pd  Pd4  1  0.98635867  0.73362247  0.25273620  1
  Pd  Pd5  1  0.73362247  0.98635867  0.25273620  1
  Pd  Pd6  1  0.26637753  0.51911474  0.25273620  1
  Pd  Pd7  1  0.73362247  0.48088526  0.74726380  1
  Pd  Pd8  1  0.00000000  0.00000000  0.00000000  1
loop_
_geom_bond_atom_site_label_1
_geom_bond_atom_site_label_2
_geom_bond_distance
_geom_bond_site_symmetry_2
Mn0 Pd2 2.685826 1_555
Mn0 Pd3 2.685826 1_555
Mn0 Pd1 2.685840 1_555
Mn0 Pd7 2.685840 1_555
Mn0 Pd4 2.689160 1_445
Mn0 Pd5 2.689160 1_445
Mn0 Pd0 2.689181 1_555
Mn0 Pd6 2.689181 1_555
Mn0 Pd8 2.713591 1_555
Mn0 Zn0 2.996194 1_556
Mn1 Pd4 2.685826 1_555
Mn1 Pd5 2.685826 1_555
Mn1 Pd0 2.685840 1_555
Mn1 Pd6 2.685840 1_555
Mn1 Pd2 2.689160 1_665
Mn1 Pd3 2.689160 1_665
Mn1 Pd1 2.689181 1_555
Mn1 Pd7 2.689181 1_555
Mn1 Pd8 2.713591 1_666
Mn1 Zn0 2.996194 1_555
Mn2 Pd1 2.685837 1_554
Mn2 Pd6 2.685837 1_555
Mn2 Pd2 2.685842 1_554
Mn2 Pd5 2.685843 1_555
Mn2 Pd0 2.689159 1_565
Mn2 Pd7 2.689159 1_454
Mn2 Pd4 2.689160 1_455
Mn2 Pd3 2.689160 1_564
Mn2 Pd8 2.713573 1_565
Mn2 Zn0 2.996212 1_555
Mn3 Pd0 2.685837 1_556
Mn3 Pd7 2.685837 1_555
Mn3 Pd4 2.685842 1_556
Mn3 Pd3 2.685843 1_555
Mn3 Pd1 2.689159 1_545
Mn3 Pd6 2.689159 1_656
Mn3 Pd2 2.689160 1_655
Mn3 Pd5 2.689160 1_546
Mn3 Pd8 2.713573 1_656
Mn3 Zn0 2.996212 1_556
Cu0 Pd7 2.589500 1_555
Cu0 Pd6 2.589500 1_545
Cu0 Pd3 2.589506 1_555
Cu0 Pd5 2.589506 1_545
Cu0 Pd1 2.742524 1_545
Cu0 Pd0 2.742524 1_555
Cu0 Pd4 2.742524 1_445
Cu0 Pd2 2.742524 1_655
Cu0 Mn1 2.858387 1_545
Cu0 Mn0 2.858387 1_555
Cu0 Mn3 2.858388 1_555
Cu0 Mn2 2.858388 1_545
Cu1 Pd1 2.589500 1_555
Cu1 Pd0 2.589500 1_455
Cu1 Pd2 2.589506 1_555
Cu1 Pd4 2.589506 1_455
Cu1 Pd7 2.742524 1_455
Cu1 Pd6 2.742524 1_555
Cu1 Pd3 2.742524 1_565
Cu1 Pd5 2.742524 1_445
Cu1 Mn0 2.858387 1_555
Cu1 Mn1 2.858387 1_455
Cu1 Mn2 2.858388 1_556
Cu1 Mn3 2.858388 1_454
Pd0 Zn0 2.623729 1_555
Pd0 Pd8 2.774865 1_555
Pd0 Pd5 2.833090 1_545
Pd0 Pd7 2.833096 1_555
Pd0 Pd3 2.886139 1_554
Pd0 Pd6 2.886150 1_555
Pd1 Zn0 2.623729 1_556
Pd1 Pd8 2.774865 1_666
Pd1 Pd3 2.833090 1_565
Pd1 Pd6 2.833096 1_555
Pd1 Pd5 2.886139 1_556
Pd1 Pd7 2.886150 1_555
Pd2 Zn0 2.623728 1_556
Pd2 Pd8 2.774860 1_556
Pd2 Pd7 2.833090 1_455
Pd2 Pd5 2.833095 1_445
Pd2 Pd6 2.886139 1_556
Pd2 Pd3 2.886139 1_555
Pd3 Zn0 2.623728 1_556
Pd3 Pd8 2.774860 1_556
Pd3 Pd4 2.833095 1_445
Pd4 Zn0 2.623728 1_555
Pd4 Pd8 2.774860 1_665
Pd4 Pd6 2.833090 1_655
Pd4 Pd7 2.886139 1_554
Pd4 Pd5 2.886139 1_555
Pd5 Zn0 2.623728 1_555
Pd5 Pd8 2.774860 1_665
Pd6 Zn0 2.623729 1_555
Pd6 Pd8 2.774865 1_555
Pd7 Zn0 2.623729 1_556
Pd7 Pd8 2.774865 1_666
