# generated using pymatgen
data_Ta7Ti(Si3W)2
_symmetry_space_group_name_H-M   'P 1'
_cell_length_a   7.50543222
_cell_length_b   7.49365832
_cell_length_c   7.50461519
_cell_angle_alpha   129.18529370
_cell_angle_beta   129.22791099
_cell_angle_gamma   74.62758332
_symmetry_Int_Tables_number   1
_chemical_formula_structural   Ta7Ti(Si3W)2
_chemical_formula_sum   'Ta7 Ti1 Si6 W2'
_cell_volume   246.99112925
_cell_formula_units_Z   1
loop_
 _symmetry_equiv_pos_site_id
 _symmetry_equiv_pos_as_xyz
  1  'x, y, z'
loop_
 _atom_site_type_symbol
 _atom_site_label
 _atom_site_symmetry_multiplicity
 _atom_site_fract_x
 _atom_site_fract_y
 _atom_site_fract_z
 _atom_site_occupancy
  Ta  Ta0  1  0.68411978  0.51308810  0.50000000  1
  Ta  Ta1  1  0.51322929  0.01352369  0.82882514  1
  Ta  Ta2  1  0.18440415  0.68469856  0.17117486  1
  Ta  Ta3  1  0.98717665  0.81587534  0.50000000  1
  Ta  Ta4  1  0.31753764  0.48603310  0.50000000  1
  Ta  Ta5  1  0.48510608  0.98735012  0.17022963  1
  Ta  Ta6  1  0.81487645  0.31712048  0.82977037  1
  Ti  Ti0  1  0.01331805  0.18387273  0.50000000  1
  Si  Si0  1  0.75251006  0.75470042  0.00434673  1
  Si  Si1  1  0.24816332  0.25035369  0.99565327  1
  Si  Si2  1  0.36482478  0.13193176  0.50000000  1
  Si  Si3  1  0.63193545  0.86957982  0.50000000  1
  Si  Si4  1  0.87052402  0.36664171  0.23918260  1
  Si  Si5  1  0.13134242  0.62746011  0.76081740  1
  W  W0  1  0.99994241  0.99836166  0.99895197  1
  W  W1  1  0.50099044  0.49940969  0.00104803  1
loop_
_geom_bond_atom_site_label_1
_geom_bond_atom_site_label_2
_geom_bond_distance
_geom_bond_site_symmetry_2
Ta0 W1 3.000117 1_555
Ta0 W0 3.000118 1_555
Ta1 W1 2.993720 1_556
Ta1 W0 3.008588 1_545
Ta2 W0 2.993720 1_454
Ta2 W1 3.008587 1_555
Ta3 W0 3.007523 1_555
Ta3 W1 3.007524 1_555
Ta4 W1 3.015505 1_556
Ta4 W0 3.015506 1_444
Ta5 W0 2.995542 1_454
Ta5 W1 3.014932 1_555
Ta6 W1 2.995541 1_556
Ta6 W0 3.014932 1_545
Ti0 W0 3.012078 1_444
Ti0 W1 3.012079 1_556
Si0 Ti0 2.649973 1_665
Si0 Ta1 2.666784 1_564
Si0 Ta3 2.671201 1_555
Si0 Ta2 2.673124 1_655
Si0 Ta5 2.679476 1_555
Si0 Ta6 2.687201 1_554
Si0 Ta0 2.691296 1_554
Si0 Ta4 2.695144 1_554
Si0 W0 2.961532 1_554
Si0 W1 3.003302 1_555
Si1 Ti0 2.649973 1_555
Si1 Ta2 2.666784 1_556
Si1 Ta3 2.671201 1_445
Si1 Ta1 2.673124 1_555
Si1 Ta6 2.679476 1_455
Si1 Ta5 2.687201 1_546
Si1 Ta0 2.691296 1_556
Si1 Ta4 2.695143 1_556
Si1 W1 2.961532 1_556
Si1 W0 3.003302 1_445
Si2 Si3 2.407191 1_545
Si2 W1 2.512657 1_556
Si2 W0 2.512657 1_444
Si2 Ti0 2.562659 1_555
Si2 Ta4 2.582207 1_555
Si2 Ta1 2.623732 1_555
Si2 Ta2 2.623733 1_545
Si2 Ta5 2.651872 1_545
Si2 Ta6 2.651873 1_555
Si3 W1 2.519295 1_555
Si3 W0 2.519296 1_555
Si3 Ta3 2.588802 1_555
Si3 Ta0 2.595224 1_555
Si3 Ta5 2.629211 1_555
Si3 Ta6 2.629211 1_565
Si3 Ta1 2.637137 1_565
Si3 Ta2 2.637138 1_555
Si4 Si5 2.375750 1_655
Si4 W0 2.513256 1_544
Si4 W1 2.527978 1_555
Si4 Ta1 2.587757 1_554
Si4 Ta6 2.602036 1_554
Si4 Ti0 2.609926 1_655
Si4 Ta0 2.632109 1_555
Si4 Ta4 2.638266 1_655
Si4 Ta3 2.645569 1_555
Si5 W1 2.513256 1_556
Si5 W0 2.527977 1_455
Si5 Ta2 2.587765 1_556
Si5 Ta5 2.602028 1_556
Si5 Ti0 2.609934 1_555
Si5 Ta0 2.632118 1_455
Si5 Ta4 2.638257 1_555
Si5 Ta3 2.645561 1_455
