# generated using pymatgen
data_Ba2Si(GeN2)4
_symmetry_space_group_name_H-M   'P 1'
_cell_length_a   6.04170348
_cell_length_b   7.21770783
_cell_length_c   9.81219864
_cell_angle_alpha   90.00000000
_cell_angle_beta   90.00000000
_cell_angle_gamma   90.00000000
_symmetry_Int_Tables_number   1
_chemical_formula_structural   Ba2Si(GeN2)4
_chemical_formula_sum   'Ba4 Si2 Ge8 N16'
_cell_volume   427.88300387
_cell_formula_units_Z   2
loop_
 _symmetry_equiv_pos_site_id
 _symmetry_equiv_pos_as_xyz
  1  'x, y, z'
loop_
 _atom_site_type_symbol
 _atom_site_label
 _atom_site_symmetry_multiplicity
 _atom_site_fract_x
 _atom_site_fract_y
 _atom_site_fract_z
 _atom_site_occupancy
  Ba  Ba0  1  0.50000000  0.11883191  0.13135101  1
  Ba  Ba1  1  0.00000000  0.88116809  0.63135101  1
  Ba  Ba2  1  0.50000000  0.14147664  0.49913865  1
  Ba  Ba3  1  0.00000000  0.85852336  0.99913865  1
  Si  Si0  1  0.50000000  0.94535920  0.82353317  1
  Si  Si1  1  0.00000000  0.05464080  0.32353317  1
  Ge  Ge0  1  0.50000000  0.60416957  0.60593911  1
  Ge  Ge1  1  0.00000000  0.39583043  0.10593911  1
  Ge  Ge2  1  0.50000000  0.58299096  0.03745720  1
  Ge  Ge3  1  0.00000000  0.41700904  0.53745720  1
  Ge  Ge4  1  0.75121834  0.32693929  0.82021807  1
  Ge  Ge5  1  0.74878166  0.67306071  0.32021807  1
  Ge  Ge6  1  0.24878166  0.32693929  0.82021807  1
  Ge  Ge7  1  0.25121834  0.67306071  0.32021807  1
  N  N0  1  0.50000000  0.57834963  0.22986902  1
  N  N1  1  0.00000000  0.42165037  0.72986902  1
  N  N2  1  0.50000000  0.83508901  0.66794352  1
  N  N3  1  0.00000000  0.16491099  0.16794352  1
  N  N4  1  0.50000000  0.41201602  0.72997225  1
  N  N5  1  0.00000000  0.58798398  0.22997225  1
  N  N6  1  0.74806428  0.55879084  0.49317459  1
  N  N7  1  0.75193572  0.44120916  0.99317459  1
  N  N8  1  0.25193572  0.55879084  0.49317459  1
  N  N9  1  0.24806428  0.44120916  0.99317459  1
  N  N10  1  0.73821739  0.07859835  0.83213912  1
  N  N11  1  0.76178261  0.92140165  0.33213912  1
  N  N12  1  0.26178261  0.07859835  0.83213912  1
  N  N13  1  0.23821739  0.92140165  0.33213912  1
  N  N14  1  0.00000000  0.18800040  0.47077250  1
  N  N15  1  0.50000000  0.81199960  0.97077250  1
loop_
_geom_bond_atom_site_label_1
_geom_bond_atom_site_label_2
_geom_bond_distance
_geom_bond_site_symmetry_2
Ba0 N15 2.717935 1_544
Ba0 N11 2.900636 1_545
Ba0 N13 2.900636 1_545
Ba0 N3 3.060241 1_655
Ba0 N3 3.060241 1_555
Ba0 N9 3.093412 1_554
Ba0 N7 3.093412 1_554
Ba0 N10 3.282591 1_554
Ba0 N12 3.282591 1_554
Ba0 N0 3.454668 1_555
Ba1 N14 2.717935 1_565
Ba1 N12 2.900636 1_565
Ba1 N10 2.900636 1_465
Ba1 N2 3.060241 1_555
Ba1 N2 3.060241 1_455
Ba1 N8 3.093412 1_555
Ba1 N6 3.093412 1_455
Ba1 N13 3.282591 1_555
Ba1 N11 3.282591 1_455
Ba1 N1 3.454668 1_555
Ba2 N2 2.762942 1_545
Ba2 N11 2.776643 1_545
Ba2 N13 2.776643 1_545
Ba2 N4 2.990501 1_555
Ba2 N14 3.052175 1_655
Ba2 N14 3.052175 1_555
Ba2 N6 3.364829 1_555
Ba2 N8 3.364829 1_555
Ba3 N3 2.762942 1_566
Ba3 N12 2.776643 1_565
Ba3 N10 2.776643 1_465
Ba3 N5 2.990501 1_556
Ba3 N15 3.052175 1_555
Ba3 N15 3.052175 1_455
Ba3 N7 3.364829 1_455
Ba3 N9 3.364829 1_555
Ge0 N2 1.774280 1_555
Ge0 N4 1.845182 1_555
Ge0 N6 1.891492 1_555
Ge0 N8 1.891492 1_555
Ge1 N3 1.774280 1_555
Ge1 N5 1.845182 1_555
Ge1 N7 1.891492 1_454
Ge1 N9 1.891492 1_554
Ge2 N15 1.777716 1_554
Ge2 N9 1.884907 1_554
Ge2 N7 1.884907 1_554
Ge2 N0 1.888280 1_555
Ge3 N14 1.777716 1_555
Ge3 N8 1.884907 1_555
Ge3 N6 1.884907 1_455
Ge3 N1 1.888280 1_555
Ge4 N10 1.797982 1_555
Ge4 N4 1.861417 1_555
Ge4 N1 1.874148 1_655
Ge4 N7 1.886889 1_555
Ge5 N11 1.797982 1_555
Ge5 N5 1.861417 1_655
Ge5 N0 1.874148 1_555
Ge5 N6 1.886889 1_555
Ge6 N12 1.797982 1_555
Ge6 N4 1.861417 1_555
Ge6 N1 1.874148 1_555
Ge6 N9 1.886889 1_555
Ge7 N13 1.797982 1_555
Ge7 N5 1.861417 1_555
Ge7 N0 1.874148 1_555
Ge7 N8 1.886889 1_555
N2 Si0 1.721684 1_555
N3 Si1 1.721684 1_555
N10 Si0 1.733023 1_545
N11 Si1 1.733023 1_665
N12 Si0 1.733023 1_545
N13 Si1 1.733023 1_565
N14 Si1 1.736025 1_555
N15 Si0 1.736025 1_555
