# generated using pymatgen
data_Cs2NaLuP2
_symmetry_space_group_name_H-M   'P 1'
_cell_length_a   9.49055803
_cell_length_b   9.49055771
_cell_length_c   9.49055840
_cell_angle_alpha   137.22452526
_cell_angle_beta   136.64936445
_cell_angle_gamma   62.53627134
_symmetry_Int_Tables_number   1
_chemical_formula_structural   Cs2NaLuP2
_chemical_formula_sum   'Cs4 Na2 Lu2 P4'
_cell_volume   393.65526848
_cell_formula_units_Z   2
loop_
 _symmetry_equiv_pos_site_id
 _symmetry_equiv_pos_as_xyz
  1  'x, y, z'
loop_
 _atom_site_type_symbol
 _atom_site_label
 _atom_site_symmetry_multiplicity
 _atom_site_fract_x
 _atom_site_fract_y
 _atom_site_fract_z
 _atom_site_occupancy
  Cs  Cs0  1  0.53060334  0.31813014  0.21247320  1
  Cs  Cs1  1  0.46939666  0.68186986  0.78752680  1
  Cs  Cs2  1  0.10565793  0.81813014  0.28752680  1
  Cs  Cs3  1  0.89434207  0.18186986  0.71247320  1
  Na  Na0  1  0.50000000  0.25000000  0.75000000  1
  Na  Na1  1  0.50000000  0.75000000  0.25000000  1
  Lu  Lu0  1  0.00000000  0.25000000  0.25000000  1
  Lu  Lu1  1  0.00000000  0.75000000  0.75000000  1
  P  P0  1  0.30214363  0.08620983  0.21593380  1
  P  P1  1  0.69785637  0.91379017  0.78406620  1
  P  P2  1  0.87027702  0.58620983  0.28406620  1
  P  P3  1  0.12972298  0.41379017  0.71593380  1
loop_
_geom_bond_atom_site_label_1
_geom_bond_atom_site_label_2
_geom_bond_distance
_geom_bond_site_symmetry_2
Cs0 P0 3.762768 1_555
Cs0 P3 3.811345 1_554
Cs0 P1 3.826104 1_555
Cs0 P1 3.826104 1_544
Cs0 P3 3.855706 1_655
Cs1 P1 3.762768 1_555
Cs1 P2 3.811345 1_556
Cs1 P0 3.826104 1_555
Cs1 P0 3.826104 1_566
Cs1 P2 3.855706 1_455
Cs2 P2 3.762768 1_455
Cs2 P1 3.811338 1_555
Cs2 P3 3.826093 1_554
Cs2 P3 3.826105 1_565
Cs2 P1 3.855712 1_454
Cs3 P3 3.762768 1_655
Cs3 P0 3.811338 1_555
Cs3 P2 3.826093 1_556
Cs3 P2 3.826105 1_545
Cs3 P0 3.855712 1_656
Na0 P1 2.986116 1_545
Na0 P0 2.986116 1_555
Na0 P2 2.986120 1_556
Na0 P3 2.986124 1_555
Na1 P0 2.986116 1_565
Na1 P1 2.986116 1_555
Na1 P3 2.986120 1_554
Na1 P2 2.986124 1_555
Lu0 P1 2.691204 1_444
Lu0 P2 2.691204 1_455
Lu0 P0 2.691204 1_555
Lu0 P3 2.691209 1_555
Lu1 P0 2.691204 1_566
Lu1 P3 2.691204 1_555
Lu1 P1 2.691204 1_455
Lu1 P2 2.691209 1_455
