# generated using pymatgen
data_Ca4Sn5SbRh7
_symmetry_space_group_name_H-M   'P 1'
_cell_length_a   7.59406472
_cell_length_b   7.59406709
_cell_length_c   7.59406612
_cell_angle_alpha   109.42217883
_cell_angle_beta   109.42219284
_cell_angle_gamma   109.56933864
_symmetry_Int_Tables_number   1
_chemical_formula_structural   Ca4Sn5SbRh7
_chemical_formula_sum   'Ca4 Sn5 Sb1 Rh7'
_cell_volume   337.13219747
_cell_formula_units_Z   1
loop_
 _symmetry_equiv_pos_site_id
 _symmetry_equiv_pos_as_xyz
  1  'x, y, z'
loop_
 _atom_site_type_symbol
 _atom_site_label
 _atom_site_symmetry_multiplicity
 _atom_site_fract_x
 _atom_site_fract_y
 _atom_site_fract_z
 _atom_site_occupancy
  Ca  Ca0  1  0.49586504  0.99967426  1.00000000  1
  Ca  Ca1  1  0.99967426  0.49586504  0.00000000  1
  Ca  Ca2  1  0.99967426  0.99967426  0.50381022  1
  Ca  Ca3  1  0.49586504  0.49586504  0.49618978  1
  Sn  Sn0  1  0.31747149  0.99703117  0.32044032  1
  Sn  Sn1  1  0.99703117  0.67658886  0.67955968  1
  Sn  Sn2  1  0.68681087  0.68681087  1.00000000  1
  Sn  Sn3  1  0.67658886  0.99703117  0.67955968  1
  Sn  Sn4  1  0.99703117  0.31747149  0.32044032  1
  Sb  Sb0  1  0.32627261  0.32627261  0.00000000  1
  Rh  Rh0  1  0.25208519  0.50125414  0.75083005  1
  Rh  Rh1  1  0.50125414  0.25208519  0.75083005  1
  Rh  Rh2  1  0.74747065  0.24747065  0.50000000  1
  Rh  Rh3  1  0.50125414  0.75042510  0.24916995  1
  Rh  Rh4  1  0.00775334  0.00775334  0.00000000  1
  Rh  Rh5  1  0.24747065  0.74747065  0.50000000  1
  Rh  Rh6  1  0.75042510  0.50125414  0.24916995  1
loop_
_geom_bond_atom_site_label_1
_geom_bond_atom_site_label_2
_geom_bond_distance
_geom_bond_site_symmetry_2
Ca0 Rh3 3.089861 1_556
Ca0 Rh0 3.089868 1_555
Ca0 Rh2 3.102231 1_566
Ca0 Rh5 3.102231 1_555
Ca0 Rh6 3.109253 1_566
Ca0 Rh1 3.109259 1_565
Ca0 Sb0 3.154351 1_566
Ca0 Sn0 3.156593 1_556
Ca0 Sn1 3.156595 1_455
Ca0 Sn3 3.164282 1_555
Ca0 Sn4 3.164292 1_566
Ca0 Sn2 3.171041 1_555
Ca1 Rh6 3.089861 1_555
Ca1 Rh1 3.089867 1_554
Ca1 Rh2 3.102231 1_554
Ca1 Rh5 3.102231 1_655
Ca1 Rh3 3.109252 1_655
Ca1 Rh0 3.109258 1_654
Ca1 Sb0 3.154350 1_655
Ca1 Sn4 3.156593 1_555
Ca1 Sn3 3.156595 1_544
Ca1 Sn1 3.164282 1_554
Ca1 Sn0 3.164293 1_655
Ca1 Sn2 3.171041 1_554
Ca2 Rh3 3.089867 1_555
Ca2 Rh6 3.089868 1_555
Ca2 Rh2 3.102232 1_565
Ca2 Rh5 3.102232 1_655
Ca2 Rh1 3.109252 1_665
Ca2 Rh0 3.109253 1_665
Ca2 Sb0 3.154345 1_666
Ca2 Sn3 3.156602 1_555
Ca2 Sn1 3.156602 1_555
Ca2 Sn0 3.164298 1_655
Ca2 Sn4 3.164298 1_565
Ca2 Sn2 3.171047 1_554
Ca3 Rh0 3.089867 1_555
Ca3 Rh1 3.089868 1_555
Ca3 Rh2 3.102232 1_555
Ca3 Rh5 3.102232 1_555
Ca3 Rh6 3.109252 1_555
Ca3 Rh3 3.109252 1_555
Ca3 Sb0 3.154344 1_555
Ca3 Sn4 3.156593 1_455
Ca3 Sn0 3.156595 1_545
Ca3 Sn1 3.164293 1_555
Ca3 Sn3 3.164294 1_555
Ca3 Sn2 3.171048 1_555
Rh0 Sb0 2.669904 1_556
Rh0 Sn1 2.706869 1_455
Rh0 Sn4 2.706876 1_455
Rh0 Sn2 2.724119 1_555
Rh1 Sb0 2.669904 1_556
Rh1 Sn3 2.706870 1_545
Rh1 Sn0 2.706876 1_545
Rh1 Sn2 2.724120 1_555
Rh2 Sn1 2.694336 1_555
Rh2 Sn4 2.694347 1_555
Rh2 Sn0 2.700596 1_545
Rh2 Sn3 2.700598 1_545
Rh3 Sb0 2.669912 1_555
Rh3 Sn0 2.706869 1_555
Rh3 Sn3 2.706877 1_555
Rh3 Sn2 2.724126 1_554
Rh4 Sb0 2.789672 1_555
Rh4 Sn2 2.810895 1_444
Rh4 Sn0 2.813168 1_545
Rh4 Sn4 2.813169 1_455
Rh4 Sn3 2.813177 1_444
Rh4 Sn1 2.813178 1_444
Rh5 Sn3 2.694335 1_555
Rh5 Sn0 2.694348 1_555
Rh5 Sn4 2.700596 1_455
Rh5 Sn1 2.700598 1_455
Rh6 Sb0 2.669911 1_555
Rh6 Sn4 2.706869 1_555
Rh6 Sn1 2.706876 1_555
Rh6 Sn2 2.724126 1_554
