# generated using pymatgen
data_HfO2
_symmetry_space_group_name_H-M   'P 1'
_cell_length_a   5.09417501
_cell_length_b   5.15064470
_cell_length_c   5.27621049
_cell_angle_alpha   90.00000000
_cell_angle_beta   99.55883373
_cell_angle_gamma   90.00000000
_symmetry_Int_Tables_number   1
_chemical_formula_structural   HfO2
_chemical_formula_sum   'Hf4 O8'
_cell_volume   136.51657937
_cell_formula_units_Z   4
loop_
 _symmetry_equiv_pos_site_id
 _symmetry_equiv_pos_as_xyz
  1  'x, y, z'
loop_
 _atom_site_type_symbol
 _atom_site_label
 _atom_site_symmetry_multiplicity
 _atom_site_fract_x
 _atom_site_fract_y
 _atom_site_fract_z
 _atom_site_occupancy
  Hf  Hf0  1  0.27613578  0.45806468  0.70790733  1
  Hf  Hf1  1  0.72386422  0.95806468  0.79209267  1
  Hf  Hf2  1  0.72386422  0.54193532  0.29209267  1
  Hf  Hf3  1  0.27613578  0.04193532  0.20790733  1
  O  O0  1  0.44799782  0.74252595  0.97857799  1
  O  O1  1  0.55200218  0.24252595  0.52142201  1
  O  O2  1  0.55200218  0.25747405  0.02142201  1
  O  O3  1  0.44799782  0.75747405  0.47857799  1
  O  O4  1  0.06836078  0.33075888  0.34625278  1
  O  O5  1  0.93163922  0.83075888  0.15374722  1
  O  O6  1  0.93163922  0.66924112  0.65374722  1
  O  O7  1  0.06836078  0.16924112  0.84625278  1
loop_
_geom_bond_atom_site_label_1
_geom_bond_atom_site_label_2
_geom_bond_distance
_geom_bond_site_symmetry_2
Hf0 O7 2.030454 1_555
Hf0 O6 2.044003 1_455
Hf0 O4 2.126163 1_555
Hf0 O0 2.130128 1_555
Hf0 O1 2.152842 1_555
Hf0 O3 2.227246 1_555
Hf0 O2 2.237535 1_556
Hf1 O6 2.030454 1_555
Hf1 O7 2.044003 1_665
Hf1 O5 2.126163 1_556
Hf1 O1 2.130128 1_565
Hf1 O0 2.152842 1_555
Hf1 O2 2.227246 1_566
Hf1 O3 2.237535 1_555
Hf2 O5 2.030454 1_555
Hf2 O4 2.044003 1_655
Hf2 O6 2.126163 1_555
Hf2 O2 2.130128 1_555
Hf2 O3 2.152842 1_555
Hf2 O1 2.227246 1_555
Hf2 O0 2.237535 1_554
Hf3 O4 2.030454 1_555
Hf3 O5 2.044003 1_445
Hf3 O7 2.126163 1_554
Hf3 O3 2.130128 1_545
Hf3 O2 2.152842 1_555
Hf3 O0 2.227246 1_544
Hf3 O1 2.237535 1_555
