# generated using pymatgen
data_NaCa3Ag2Bi3
_symmetry_space_group_name_H-M   'P 1'
_cell_length_a   7.74931122
_cell_length_b   7.98814236
_cell_length_c   4.69776518
_cell_angle_alpha   90.00000000
_cell_angle_beta   90.00000000
_cell_angle_gamma   121.02492478
_symmetry_Int_Tables_number   1
_chemical_formula_structural   NaCa3Ag2Bi3
_chemical_formula_sum   'Na1 Ca3 Ag2 Bi3'
_cell_volume   249.20240207
_cell_formula_units_Z   1
loop_
 _symmetry_equiv_pos_site_id
 _symmetry_equiv_pos_as_xyz
  1  'x, y, z'
loop_
 _atom_site_type_symbol
 _atom_site_label
 _atom_site_symmetry_multiplicity
 _atom_site_fract_x
 _atom_site_fract_y
 _atom_site_fract_z
 _atom_site_occupancy
  Na  Na0  1  0.00001434  0.23236938  0.00000000  1
  Ca  Ca0  1  0.99999942  0.59526089  0.50000000  1
  Ca  Ca1  1  0.43396607  0.43461082  0.50000000  1
  Ca  Ca2  1  0.56602397  0.00064771  0.50000000  1
  Ag  Ag0  1  0.75998295  0.74847264  0.00000000  1
  Ag  Ag1  1  0.24001701  0.98849339  0.00000000  1
  Bi  Bi0  1  0.00000031  0.99157605  0.50000000  1
  Bi  Bi1  1  0.33866551  0.67361996  0.00000000  1
  Bi  Bi2  1  0.66133042  0.33495215  0.00000000  1
loop_
_geom_bond_atom_site_label_1
_geom_bond_atom_site_label_2
_geom_bond_distance
_geom_bond_site_symmetry_2
Ag0 Bi2 2.982085 1_555
Ag0 Bi1 3.000808 1_555
Ag0 Bi0 3.004097 1_654
Ag0 Bi0 3.004097 1_655
Ag0 Ag1 3.187771 1_655
Ag0 Na0 3.315096 1_665
Ag0 Ca1 3.414166 1_554
Ag0 Ca1 3.414166 1_555
Ag0 Ca0 3.580658 1_555
Ag0 Ca0 3.580658 1_554
Ag0 Ca2 3.867212 1_565
Ag0 Ca2 3.867212 1_564
Ag1 Bi1 2.982108 1_555
Ag1 Bi2 3.000769 1_565
Ag1 Bi0 3.004086 1_555
Ag1 Bi0 3.004086 1_554
Ag1 Na0 3.314982 1_565
Ag1 Ca2 3.414114 1_565
Ag1 Ca2 3.414114 1_564
Ag1 Ca0 3.580677 1_455
Ag1 Ca0 3.580677 1_454
Ag1 Ca1 3.867121 1_565
Ag1 Ca1 3.867121 1_564
Bi0 Na0 3.035927 1_565
Bi0 Na0 3.035927 1_566
Bi0 Ca0 3.165818 1_455
Bi0 Ca1 3.400837 1_565
Bi0 Ca2 3.400934 1_465
Bi1 Na0 3.126632 1_555
Bi1 Ca2 3.271285 1_565
Bi1 Ca2 3.271285 1_564
Bi1 Ca0 3.332162 1_455
Bi1 Ca0 3.332162 1_454
Bi1 Ca1 3.340854 1_554
Bi1 Ca1 3.340854 1_555
Bi2 Na0 3.126791 1_655
Bi2 Ca1 3.271273 1_555
Bi2 Ca1 3.271273 1_554
Bi2 Ca0 3.332175 1_554
Bi2 Ca0 3.332175 1_555
Bi2 Ca2 3.340815 1_555
Bi2 Ca2 3.340815 1_554
