# generated using pymatgen
data_TaCl(OF3)2
_symmetry_space_group_name_H-M   'P 1'
_cell_length_a   5.08582219
_cell_length_b   5.08582219
_cell_length_c   5.74035965
_cell_angle_alpha   90.11314572
_cell_angle_beta   90.11314781
_cell_angle_gamma   87.80172520
_symmetry_Int_Tables_number   1
_chemical_formula_structural   TaCl(OF3)2
_chemical_formula_sum   'Ta1 Cl1 O2 F6'
_cell_volume   148.36794779
_cell_formula_units_Z   1
loop_
 _symmetry_equiv_pos_site_id
 _symmetry_equiv_pos_as_xyz
  1  'x, y, z'
loop_
 _atom_site_type_symbol
 _atom_site_label
 _atom_site_symmetry_multiplicity
 _atom_site_fract_x
 _atom_site_fract_y
 _atom_site_fract_z
 _atom_site_occupancy
  Ta  Ta0  1  0.99980558  0.99980558  0.49993470  1
  Cl  Cl0  1  0.50027967  0.50027967  0.88191688  1
  O  O0  1  0.33663884  0.33663884  0.00946293  1
  O  O1  1  0.66419269  0.66419269  0.01001470  1
  F  F0  1  0.80567939  0.19233126  0.27509186  1
  F  F1  1  0.19233126  0.80567939  0.27509186  1
  F  F2  1  0.74049011  0.74049011  0.52238119  1
  F  F3  1  0.25924291  0.25924291  0.52139391  1
  F  F4  1  0.81293270  0.18840584  0.75235598  1
  F  F5  1  0.18840584  0.81293270  0.75235598  1
loop_
_geom_bond_atom_site_label_1
_geom_bond_atom_site_label_2
_geom_bond_distance
_geom_bond_site_symmetry_2
Cl0 O1 1.406792 1_556
Cl0 O0 1.406869 1_556
F0 Ta0 1.877533 1_545
F1 Ta0 1.877533 1_455
F2 Ta0 1.905260 1_555
F3 Ta0 1.905087 1_445
F4 Ta0 1.962878 1_545
F5 Ta0 1.962878 1_455
