# generated using pymatgen
data_Y12ZnInSi4
_symmetry_space_group_name_H-M   'P 1'
_cell_length_a   8.51455060
_cell_length_b   8.51455169
_cell_length_c   8.51455145
_cell_angle_alpha   111.58903504
_cell_angle_beta   112.06963991
_cell_angle_gamma   104.85182725
_symmetry_Int_Tables_number   1
_chemical_formula_structural   Y12ZnInSi4
_chemical_formula_sum   'Y12 Zn1 In1 Si4'
_cell_volume   472.88470099
_cell_formula_units_Z   1
loop_
 _symmetry_equiv_pos_site_id
 _symmetry_equiv_pos_as_xyz
  1  'x, y, z'
loop_
 _atom_site_type_symbol
 _atom_site_label
 _atom_site_symmetry_multiplicity
 _atom_site_fract_x
 _atom_site_fract_y
 _atom_site_fract_z
 _atom_site_occupancy
  Y  Y0  1  0.43243104  0.23695074  0.19548030  1
  Y  Y1  1  0.56756896  0.76304926  0.80451970  1
  Y  Y2  1  0.04146944  0.23695074  0.80451970  1
  Y  Y3  1  0.95853056  0.76304926  0.19548030  1
  Y  Y4  1  0.17784077  0.26961442  0.44745618  1
  Y  Y5  1  0.82215923  0.73038558  0.55254382  1
  Y  Y6  1  0.17784077  0.73038558  0.90822735  1
  Y  Y7  1  0.82215923  0.26961442  0.09177265  1
  Y  Y8  1  0.31997197  0.62020704  0.30023607  1
  Y  Y9  1  0.68002803  0.37979296  0.69976393  1
  Y  Y10  1  0.31997197  0.01973690  0.69976393  1
  Y  Y11  1  0.68002803  0.98026310  0.30023607  1
  Zn  Zn0  1  0.00000000  0.00000000  0.00000000  1
  In  In0  1  0.50000000  0.50000000  0.00000000  1
  Si  Si0  1  0.36132997  1.00000000  0.36132997  1
  Si  Si1  1  0.63867003  0.00000000  0.63867003  1
  Si  Si2  1  0.11600001  0.61600001  0.50000000  1
  Si  Si3  1  0.88399999  0.38399999  0.50000000  1
loop_
_geom_bond_atom_site_label_1
_geom_bond_atom_site_label_2
_geom_bond_distance
_geom_bond_site_symmetry_2
Y0 Zn0 3.084318 1_555
Y1 Zn0 3.084318 1_666
Y2 Zn0 3.084317 1_556
Y3 Zn0 3.084317 1_665
Y4 Zn0 3.086202 1_555
Y5 Zn0 3.086202 1_666
Y6 Zn0 3.086194 1_566
Y7 Zn0 3.086194 1_655
In0 Y1 3.304561 1_554
In0 Y0 3.304561 1_555
In0 Y2 3.304567 1_554
In0 Y3 3.304567 1_555
In0 Y11 3.428665 1_555
In0 Y10 3.428665 1_554
In0 Y8 3.428670 1_555
In0 Y9 3.428670 1_554
In0 Y5 3.776047 1_555
In0 Y4 3.776047 1_554
In0 Y7 3.776053 1_555
In0 Y6 3.776053 1_554
Si0 Si1 2.638605 1_565
Si0 Y3 2.922991 1_455
Si0 Y0 2.922998 1_565
Si0 Y10 2.982024 1_565
Si0 Y11 2.982028 1_555
Si0 Y9 2.982030 1_565
Si0 Y8 2.982034 1_555
Si0 Y6 3.115974 1_554
Si0 Y4 3.115982 1_565
Si1 Y2 2.922991 1_655
Si1 Y1 2.922998 1_545
Si1 Y11 2.982024 1_545
Si1 Y10 2.982028 1_555
Si1 Y8 2.982030 1_545
Si1 Y9 2.982034 1_555
Si1 Y7 3.115974 1_556
Si1 Y5 3.115982 1_545
Si2 Si3 2.409116 1_455
Si2 Y8 2.853656 1_555
Si2 Y10 2.853664 1_565
Si2 Y5 3.029519 1_455
Si2 Y4 3.029523 1_555
Si2 Y7 3.029526 1_455
Si2 Y6 3.029530 1_555
Si2 Y3 3.274961 1_455
Si2 Y1 3.274962 1_555
Si3 Y9 2.853656 1_555
Si3 Y11 2.853664 1_545
Si3 Y4 3.029519 1_655
Si3 Y5 3.029523 1_555
Si3 Y6 3.029526 1_655
Si3 Y7 3.029530 1_555
Si3 Y2 3.274961 1_655
Si3 Y0 3.274962 1_555
