# generated using pymatgen
data_SrSn6(IrRu)2
_symmetry_space_group_name_H-M   'P 1'
_cell_length_a   6.94713794
_cell_length_b   6.94713761
_cell_length_c   6.95514491
_cell_angle_alpha   119.76776993
_cell_angle_beta   119.76776811
_cell_angle_gamma   90.33713168
_symmetry_Int_Tables_number   1
_chemical_formula_structural   SrSn6(IrRu)2
_chemical_formula_sum   'Sr1 Sn6 Ir2 Ru2'
_cell_volume   238.32123872
_cell_formula_units_Z   1
loop_
 _symmetry_equiv_pos_site_id
 _symmetry_equiv_pos_as_xyz
  1  'x, y, z'
loop_
 _atom_site_type_symbol
 _atom_site_label
 _atom_site_symmetry_multiplicity
 _atom_site_fract_x
 _atom_site_fract_y
 _atom_site_fract_z
 _atom_site_occupancy
  Sr  Sr0  1  0.00005842  0.00005842  0.00000000  1
  Sn  Sn0  1  0.47134158  0.12170492  1.00000000  1
  Sn  Sn1  1  0.12170492  0.47134158  1.00000000  1
  Sn  Sn2  1  0.88531897  0.88531897  0.36312293  1
  Sn  Sn3  1  0.52219705  0.52219705  0.63687707  1
  Sn  Sn4  1  0.99476848  0.49476848  0.50000000  1
  Sn  Sn5  1  0.49476848  0.99476848  0.50000000  1
  Ir  Ir0  1  0.41426624  0.75399044  1.00000000  1
  Ir  Ir1  1  0.75399044  0.41426624  1.00000000  1
  Ru  Ru0  1  0.25437160  0.25437160  0.66715877  1
  Ru  Ru1  1  0.58721383  0.58721383  0.33284123  1
loop_
_geom_bond_atom_site_label_1
_geom_bond_atom_site_label_2
_geom_bond_distance
_geom_bond_site_symmetry_2
Sn0 Sn5 3.227415 1_545
Sn0 Sn4 3.227415 1_556
Sn0 Sr0 3.376559 1_556
Sn0 Sr0 3.773877 1_656
Sn1 Sn4 3.227415 1_455
Sn1 Sn5 3.227415 1_556
Sn1 Sr0 3.376559 1_556
Sn1 Sr0 3.773877 1_566
Sn2 Sn4 3.273572 1_555
Sn2 Sn5 3.273572 1_555
Sn2 Sr0 3.411720 1_665
Sn2 Sr0 3.724556 1_666
Sn3 Sn5 3.273578 1_545
Sn3 Sn4 3.273578 1_455
Sn3 Sr0 3.411712 1_666
Sn3 Sr0 3.724562 1_555
Sn4 Sr0 3.488150 1_666
Sn4 Sr0 3.488150 1_655
Sn5 Sr0 3.488150 1_565
Sn5 Sr0 3.488150 1_666
Ir0 Sn0 2.582846 1_565
Ir0 Sn2 2.718461 1_556
Ir0 Sn3 2.718465 1_555
Ir0 Sn5 2.736046 1_556
Ir0 Sn4 2.736046 1_455
Ir0 Sn1 2.817742 1_555
Ir0 Ru1 2.839516 1_556
Ir0 Ru0 2.839522 1_555
Ir0 Sr0 3.355669 1_566
Ir1 Sn1 2.582846 1_655
Ir1 Sn2 2.718461 1_556
Ir1 Sn3 2.718465 1_555
Ir1 Sn5 2.736046 1_545
Ir1 Sn4 2.736046 1_556
Ir1 Sn0 2.817742 1_555
Ir1 Ru1 2.839516 1_556
Ir1 Ru0 2.839522 1_555
Ir1 Sr0 3.355669 1_656
Ru0 Sn2 2.602701 1_445
Ru0 Sn1 2.674057 1_555
Ru0 Sn0 2.674057 1_555
Ru0 Sn5 2.697188 1_545
Ru0 Sn4 2.697188 1_455
Ru0 Sn3 2.775909 1_555
Ru0 Sr0 3.384753 1_555
Ru1 Sn3 2.602701 1_555
Ru1 Sn0 2.674061 1_554
Ru1 Sn1 2.674061 1_554
Ru1 Sn5 2.697185 1_555
Ru1 Sn4 2.697185 1_555
Ru1 Sn2 2.775889 1_555
Ru1 Sr0 3.384750 1_666
