# generated using pymatgen
data_Th(SiOs)2
_symmetry_space_group_name_H-M   'P 1'
_cell_length_a   4.22755600
_cell_length_b   4.22755450
_cell_length_c   5.71783692
_cell_angle_alpha   111.69596963
_cell_angle_beta   111.69596826
_cell_angle_gamma   89.99999400
_symmetry_Int_Tables_number   1
_chemical_formula_structural   Th(SiOs)2
_chemical_formula_sum   'Th1 Si2 Os2'
_cell_volume   87.11227858
_cell_formula_units_Z   1
loop_
 _symmetry_equiv_pos_site_id
 _symmetry_equiv_pos_as_xyz
  1  'x, y, z'
loop_
 _atom_site_type_symbol
 _atom_site_label
 _atom_site_symmetry_multiplicity
 _atom_site_fract_x
 _atom_site_fract_y
 _atom_site_fract_z
 _atom_site_occupancy
  Th  Th0  1  -0.00000000  0.00000000  -0.00000000  1
  Si  Si0  1  0.63202097  0.63202097  0.26404293  1
  Si  Si1  1  0.36797903  0.36797903  0.73595707  1
  Os  Os0  1  0.75000000  0.25000000  0.50000000  1
  Os  Os1  1  0.25000000  0.75000000  0.50000000  1
loop_
_geom_bond_atom_site_label_1
_geom_bond_atom_site_label_2
_geom_bond_distance
_geom_bond_site_symmetry_2
Si0 Th0 3.254603 1_555
Si0 Th0 3.254605 1_655
Si0 Th0 3.254605 1_565
Si0 Th0 3.254608 1_665
Si1 Th0 3.254603 1_666
Si1 Th0 3.254605 1_566
Si1 Th0 3.254605 1_656
Si1 Th0 3.254608 1_556
Os0 Si0 2.406401 1_555
Os0 Si1 2.406401 1_555
Os0 Si0 2.406404 1_545
Os0 Si1 2.406405 1_655
Os0 Th0 3.226056 1_666
Os0 Th0 3.226057 1_656
Os0 Th0 3.226057 1_655
Os0 Th0 3.226057 1_555
Os1 Si1 2.406401 1_555
Os1 Si0 2.406401 1_555
Os1 Si1 2.406404 1_565
Os1 Si0 2.406405 1_455
Os1 Th0 3.226056 1_555
Os1 Th0 3.226057 1_565
Os1 Th0 3.226057 1_566
Os1 Th0 3.226057 1_666
