# generated using pymatgen
data_Rb3Ir2Br9
_symmetry_space_group_name_H-M   'P 1'
_cell_length_a   7.38885716
_cell_length_b   7.38979790
_cell_length_c   19.09541864
_cell_angle_alpha   90.00000000
_cell_angle_beta   90.00000000
_cell_angle_gamma   120.01763762
_symmetry_Int_Tables_number   1
_chemical_formula_structural   Rb3Ir2Br9
_chemical_formula_sum   'Rb6 Ir4 Br18'
_cell_volume   902.80183779
_cell_formula_units_Z   2
loop_
 _symmetry_equiv_pos_site_id
 _symmetry_equiv_pos_as_xyz
  1  'x, y, z'
loop_
 _atom_site_type_symbol
 _atom_site_label
 _atom_site_symmetry_multiplicity
 _atom_site_fract_x
 _atom_site_fract_y
 _atom_site_fract_z
 _atom_site_occupancy
  Rb  Rb0  1  0.66665821  0.33332934  0.93828895  1
  Rb  Rb1  1  0.33334179  0.66667066  0.43828895  1
  Rb  Rb2  1  0.66665821  0.33332934  0.56171105  1
  Rb  Rb3  1  0.33334179  0.66667066  0.06171105  1
  Rb  Rb4  1  0.99995226  0.99995537  0.75000000  1
  Rb  Rb5  1  0.00004774  0.00004463  0.25000000  1
  Ir  Ir0  1  0.33318076  0.66653672  0.66431495  1
  Ir  Ir1  1  0.66681924  0.33346328  0.16431495  1
  Ir  Ir2  1  0.66681924  0.33346328  0.33568505  1
  Ir  Ir3  1  0.33318076  0.66653672  0.83568505  1
  Br  Br0  1  0.82609837  0.65235340  0.09126707  1
  Br  Br1  1  0.17379077  0.82595523  0.59122938  1
  Br  Br2  1  0.65213124  0.82610120  0.59134251  1
  Br  Br3  1  0.34786876  0.17389880  0.09134251  1
  Br  Br4  1  0.82620923  0.17404477  0.09122938  1
  Br  Br5  1  0.17390163  0.34764660  0.90873293  1
  Br  Br6  1  0.17379077  0.82595523  0.90877062  1
  Br  Br7  1  0.17390163  0.34764660  0.59126707  1
  Br  Br8  1  0.65213124  0.82610120  0.90865749  1
  Br  Br9  1  0.34786876  0.17389880  0.40865749  1
  Br  Br10  1  0.82609837  0.65235340  0.40873293  1
  Br  Br11  1  0.82620923  0.17404477  0.40877062  1
  Br  Br12  1  0.51421554  0.02815017  0.25000000  1
  Br  Br13  1  0.48597445  0.51400583  0.75000000  1
  Br  Br14  1  0.02800577  0.51384453  0.75000000  1
  Br  Br15  1  0.97199423  0.48615547  0.25000000  1
  Br  Br16  1  0.51402555  0.48599417  0.25000000  1
  Br  Br17  1  0.48578446  0.97184983  0.75000000  1
loop_
_geom_bond_atom_site_label_1
_geom_bond_atom_site_label_2
_geom_bond_distance
_geom_bond_site_symmetry_2
Br0 Ir1 2.471670 1_555
Br0 Rb0 3.563742 1_554
Br0 Rb3 3.737827 1_555
Br0 Rb3 3.738997 1_655
Br0 Rb5 3.759904 1_665
Br1 Ir0 2.471986 1_555
Br1 Rb1 3.562698 1_555
Br1 Rb2 3.736698 1_455
Br1 Rb2 3.738488 1_565
Br1 Rb4 3.761309 1_455
Br2 Ir0 2.470961 1_555
Br2 Rb1 3.563915 1_555
Br2 Rb2 3.738848 1_565
Br2 Rb2 3.739407 1_555
Br2 Rb4 3.759066 1_555
Br3 Ir1 2.470961 1_555
Br3 Rb0 3.563915 1_554
Br3 Rb3 3.738848 1_545
Br3 Rb3 3.739407 1_555
Br3 Rb5 3.759066 1_555
Br4 Ir1 2.471986 1_555
Br4 Rb0 3.562698 1_554
Br4 Rb3 3.736698 1_655
Br4 Rb3 3.738488 1_545
Br4 Rb5 3.761309 1_655
Br5 Ir3 2.471670 1_555
Br5 Rb3 3.563742 1_556
Br5 Rb0 3.737827 1_555
Br5 Rb0 3.738997 1_455
Br5 Rb4 3.759904 1_445
Br6 Ir3 2.471986 1_555
Br6 Rb3 3.562698 1_556
Br6 Rb0 3.736698 1_455
Br6 Rb0 3.738488 1_565
Br6 Rb4 3.761309 1_455
Br7 Ir0 2.471670 1_555
Br7 Rb1 3.563742 1_555
Br7 Rb2 3.737827 1_555
Br7 Rb2 3.738997 1_455
Br7 Rb4 3.759904 1_445
Br8 Ir3 2.470961 1_555
Br8 Rb3 3.563915 1_556
Br8 Rb0 3.738848 1_565
Br8 Rb0 3.739407 1_555
Br8 Rb4 3.759066 1_555
Br9 Ir2 2.470961 1_555
Br9 Rb2 3.563915 1_555
Br9 Rb1 3.738848 1_545
Br9 Rb1 3.739407 1_555
Br9 Rb5 3.759066 1_555
Br10 Ir2 2.471670 1_555
Br10 Rb2 3.563742 1_555
Br10 Rb1 3.737827 1_555
Br10 Rb1 3.738997 1_655
Br10 Rb5 3.759904 1_665
Br11 Ir2 2.471986 1_555
Br11 Rb2 3.562698 1_555
Br11 Rb1 3.736698 1_655
Br11 Rb1 3.738488 1_545
Br11 Rb5 3.761309 1_655
Br12 Ir2 2.548255 1_555
Br12 Ir1 2.548255 1_555
Br12 Rb5 3.698023 1_655
Br12 Rb5 3.699583 1_555
Br13 Ir3 2.548615 1_555
Br13 Ir0 2.548615 1_555
Br13 Rb4 3.697738 1_555
Br13 Rb4 3.698326 1_445
Br14 Ir3 2.547387 1_555
Br14 Ir0 2.547387 1_555
Br14 Rb4 3.698198 1_445
Br14 Rb4 3.700313 1_455
Br15 Ir2 2.547387 1_555
Br15 Ir1 2.547387 1_555
Br15 Rb5 3.698198 1_665
Br15 Rb5 3.700313 1_655
Br16 Ir2 2.548615 1_555
Br16 Ir1 2.548615 1_555
Br16 Rb5 3.697738 1_555
Br16 Rb5 3.698326 1_665
Br17 Ir3 2.548255 1_555
Br17 Ir0 2.548255 1_555
Br17 Rb4 3.698023 1_455
Br17 Rb4 3.699583 1_555
