# generated using pymatgen
data_KTiTc2Te3
_symmetry_space_group_name_H-M   'P 1'
_cell_length_a   9.90515857
_cell_length_b   9.71130637
_cell_length_c   4.51808197
_cell_angle_alpha   90.00000000
_cell_angle_beta   90.00000000
_cell_angle_gamma   120.19814203
_symmetry_Int_Tables_number   1
_chemical_formula_structural   KTiTc2Te3
_chemical_formula_sum   'K2 Ti2 Tc4 Te6'
_cell_volume   375.62392090
_cell_formula_units_Z   2
loop_
 _symmetry_equiv_pos_site_id
 _symmetry_equiv_pos_as_xyz
  1  'x, y, z'
loop_
 _atom_site_type_symbol
 _atom_site_label
 _atom_site_symmetry_multiplicity
 _atom_site_fract_x
 _atom_site_fract_y
 _atom_site_fract_z
 _atom_site_occupancy
  K  K0  1  0.34394990  0.67228587  0.25000000  1
  K  K1  1  0.66747983  0.32860960  0.75000000  1
  Ti  Ti0  1  0.96907028  0.14398386  0.75000000  1
  Ti  Ti1  1  0.85339056  0.82682233  0.75000000  1
  Tc  Tc0  1  0.82737106  0.97107805  0.25000000  1
  Tc  Tc1  1  0.13654910  0.16500458  0.25000000  1
  Tc  Tc2  1  0.02697185  0.86241610  0.25000000  1
  Tc  Tc3  1  0.15876795  0.02634520  0.75000000  1
  Te  Te0  1  0.34576626  0.05725446  0.25000000  1
  Te  Te1  1  0.94651625  0.29776667  0.25000000  1
  Te  Te2  1  0.71052261  0.64505040  0.25000000  1
  Te  Te3  1  0.63731241  0.94279550  0.75000000  1
  Te  Te4  1  0.30771395  0.35237289  0.75000000  1
  Te  Te5  1  0.06861899  0.70821151  0.75000000  1
loop_
_geom_bond_atom_site_label_1
_geom_bond_atom_site_label_2
_geom_bond_distance
_geom_bond_site_symmetry_2
K0 Te3 3.573355 1_555
K0 Te3 3.573355 1_554
K0 Te5 3.690496 1_555
K0 Te5 3.690496 1_554
K0 Te4 3.709766 1_554
K0 Te4 3.709766 1_555
K0 Te0 3.729531 1_565
K0 Te2 3.770933 1_555
K0 Te1 3.784431 1_455
K1 Te3 3.605719 1_545
K1 Te2 3.662058 1_555
K1 Te2 3.662058 1_556
K1 Te4 3.685017 1_555
K1 Te1 3.696611 1_555
K1 Te1 3.696611 1_556
K1 Te0 3.708706 1_556
K1 Te0 3.708706 1_555
K1 Te5 3.826505 1_655
Ti0 Ti1 2.692456 1_545
Tc0 Tc2 2.668554 1_655
Tc0 Tc1 2.668972 1_665
Tc0 Ti1 2.737783 1_555
Tc0 Ti1 2.737783 1_554
Tc0 Ti0 2.742604 1_565
Tc0 Ti0 2.742604 1_564
Tc0 Te2 2.770861 1_555
Tc0 Te1 2.773348 1_565
Tc0 Te3 2.864015 1_554
Tc0 Te3 2.864015 1_555
Tc1 Tc2 2.569922 1_545
Tc1 Tc3 2.695007 1_555
Tc1 Tc3 2.695007 1_554
Tc1 Ti0 2.748860 1_455
Tc1 Ti0 2.748860 1_454
Tc1 Te0 2.751534 1_555
Tc1 Te1 2.765270 1_455
Tc1 Te4 2.860977 1_555
Tc1 Te4 2.860977 1_554
Tc2 Tc3 2.692799 1_564
Tc2 Tc3 2.692799 1_565
Tc2 Te0 2.746040 1_565
Tc2 Ti1 2.753369 1_454
Tc2 Ti1 2.753369 1_455
Tc2 Te2 2.761286 1_455
Tc2 Te5 2.852629 1_554
Tc2 Te5 2.852629 1_555
Tc3 Ti0 2.644838 1_455
Tc3 Ti1 2.647236 1_445
Tc3 Te4 2.738989 1_555
Tc3 Te5 2.750831 1_545
Tc3 Te0 2.839872 1_555
Tc3 Te0 2.839872 1_556
Te1 Ti0 2.778335 1_554
Te1 Ti0 2.778335 1_555
Te2 Ti1 2.776499 1_555
Te2 Ti1 2.776499 1_554
Te3 Ti0 2.856056 1_565
Te3 Ti1 2.876491 1_555
Te4 Ti0 2.918576 1_455
Te5 Ti1 2.888252 1_455
