# generated using pymatgen
data_Ta12V5Os7N4
_symmetry_space_group_name_H-M   'P 1'
_cell_length_a   8.26504943
_cell_length_b   8.26504971
_cell_length_c   8.26504847
_cell_angle_alpha   59.89843381
_cell_angle_beta   59.89842808
_cell_angle_gamma   59.89843226
_symmetry_Int_Tables_number   1
_chemical_formula_structural   Ta12V5Os7N4
_chemical_formula_sum   'Ta12 V5 Os7 N4'
_cell_volume   398.30837722
_cell_formula_units_Z   1
loop_
 _symmetry_equiv_pos_site_id
 _symmetry_equiv_pos_as_xyz
  1  'x, y, z'
loop_
 _atom_site_type_symbol
 _atom_site_label
 _atom_site_symmetry_multiplicity
 _atom_site_fract_x
 _atom_site_fract_y
 _atom_site_fract_z
 _atom_site_occupancy
  Ta  Ta0  1  0.80846811  0.80846811  0.18699054  1
  Ta  Ta1  1  0.19266713  0.19266713  0.80727761  1
  Ta  Ta2  1  0.80846811  0.18699054  0.80846811  1
  Ta  Ta3  1  0.19266713  0.80727761  0.19266713  1
  Ta  Ta4  1  0.18699054  0.80846811  0.80846811  1
  Ta  Ta5  1  0.80727761  0.19266713  0.19266713  1
  Ta  Ta6  1  0.44254518  0.44254518  0.05673196  1
  Ta  Ta7  1  0.05652488  0.05652488  0.44480124  1
  Ta  Ta8  1  0.44254518  0.05673196  0.44254518  1
  Ta  Ta9  1  0.05652488  0.44480124  0.05652488  1
  Ta  Ta10  1  0.05673196  0.44254518  0.44254518  1
  Ta  Ta11  1  0.44480124  0.05652488  0.05652488  1
  V  V0  1  0.12123555  0.62755550  0.62755550  1
  V  V1  1  0.62755550  0.12123555  0.62755550  1
  V  V2  1  0.62755550  0.62755550  0.12123555  1
  V  V3  1  0.62552971  0.62552971  0.62552971  1
  V  V4  1  0.83241460  0.83241460  0.83241460  1
  Os  Os0  1  0.75028208  0.41676261  0.41676261  1
  Os  Os1  1  0.41676261  0.75028208  0.41676261  1
  Os  Os2  1  0.41676261  0.41676261  0.75028208  1
  Os  Os3  1  0.41680196  0.41680196  0.41680196  1
  Os  Os4  1  0.49775918  0.83541719  0.83541719  1
  Os  Os5  1  0.83541719  0.49775918  0.83541719  1
  Os  Os6  1  0.83541719  0.83541719  0.49775918  1
  N  N0  1  0.62524808  0.12528368  0.12528368  1
  N  N1  1  0.12528368  0.62524808  0.12528368  1
  N  N2  1  0.12528368  0.12528368  0.62524808  1
  N  N3  1  0.12447691  0.12447691  0.12447691  1
loop_
_geom_bond_atom_site_label_1
_geom_bond_atom_site_label_2
_geom_bond_distance
_geom_bond_site_symmetry_2
Ta0 V4 2.746340 1_554
Ta2 V4 2.746340 1_545
Ta4 V4 2.746340 1_455
Ta7 V4 2.943159 1_445
Ta9 V4 2.943159 1_454
Ta11 V4 2.943159 1_544
V0 V4 2.489821 1_455
V1 V4 2.489821 1_545
V2 V4 2.489821 1_554
Os0 V3 2.536707 1_555
Os0 V2 2.544462 1_555
Os0 V1 2.544462 1_555
Os0 Os2 2.752322 1_555
Os0 Os1 2.752322 1_555
Os0 Os3 2.755903 1_555
Os0 Ta10 2.763030 1_655
Os0 Ta9 2.768047 1_655
Os0 Ta7 2.768048 1_655
Os0 Ta5 2.962022 1_555
Os0 Ta2 2.966059 1_555
Os0 Ta0 2.966059 1_555
Os1 V3 2.536707 1_555
Os1 V2 2.544462 1_555
Os1 V0 2.544462 1_555
Os1 Os2 2.752322 1_555
Os1 Os3 2.755904 1_555
Os1 Ta8 2.763030 1_565
Os1 Ta11 2.768047 1_565
Os1 Ta7 2.768047 1_565
Os1 Ta3 2.962022 1_555
Os1 Ta4 2.966059 1_555
Os1 Ta0 2.966059 1_555
Os2 V3 2.536708 1_555
Os2 V1 2.544462 1_555
Os2 V0 2.544462 1_555
Os2 Os3 2.755903 1_555
Os2 Ta6 2.763030 1_556
Os2 Ta9 2.768047 1_556
Os2 Ta11 2.768047 1_556
Os2 Ta1 2.962022 1_555
Os2 Ta2 2.966059 1_555
Os2 Ta4 2.966059 1_555
Os3 V0 2.557913 1_555
Os3 V2 2.557913 1_555
Os3 V1 2.557914 1_555
Os3 Ta6 2.778888 1_555
Os3 Ta10 2.778888 1_555
Os3 Ta8 2.778888 1_555
Os3 Ta1 2.954210 1_555
Os3 Ta5 2.954210 1_555
Os3 Ta3 2.954210 1_555
Os4 V2 2.511028 1_556
Os4 V1 2.511028 1_565
Os4 V3 2.545035 1_555
Os4 V4 2.741275 1_555
Os4 Ta3 2.749911 1_556
Os4 Ta1 2.749911 1_565
Os4 Ta4 2.809623 1_555
Os4 Ta11 2.935311 1_566
Os4 Ta8 2.964647 1_565
Os4 Ta6 2.964648 1_556
Os5 V2 2.511028 1_556
Os5 V0 2.511028 1_655
Os5 V3 2.545035 1_555
Os5 V4 2.741275 1_555
Os5 Ta5 2.749911 1_556
Os5 Ta1 2.749911 1_655
Os5 Ta2 2.809623 1_555
Os5 Ta9 2.935311 1_656
Os5 Ta10 2.964647 1_655
Os5 Ta6 2.964647 1_556
Os6 V1 2.511028 1_565
Os6 V0 2.511028 1_655
Os6 V3 2.545035 1_555
Os6 V4 2.741275 1_555
Os6 Ta3 2.749911 1_655
Os6 Ta5 2.749911 1_565
Os6 Ta0 2.809623 1_555
Os6 Ta7 2.935311 1_665
Os6 Ta8 2.964647 1_565
Os6 Ta10 2.964647 1_655
N0 Ta2 2.206246 1_554
N0 Ta0 2.206246 1_545
N0 Ta8 2.207550 1_555
N0 Ta6 2.207550 1_555
N0 Ta5 2.208131 1_555
N0 Ta11 2.212343 1_555
N1 Ta4 2.206246 1_554
N1 Ta0 2.206246 1_455
N1 Ta10 2.207550 1_555
N1 Ta6 2.207550 1_555
N1 Ta3 2.208131 1_555
N1 Ta9 2.212343 1_555
N2 Ta2 2.206246 1_455
N2 Ta4 2.206246 1_545
N2 Ta8 2.207550 1_555
N2 Ta10 2.207550 1_555
N2 Ta1 2.208131 1_555
N2 Ta7 2.212343 1_555
N3 Ta1 2.205186 1_554
N3 Ta5 2.205187 1_455
N3 Ta3 2.205187 1_545
N3 Ta7 2.230144 1_555
N3 Ta11 2.230144 1_555
N3 Ta9 2.230144 1_555
