# generated using pymatgen
data_BaV2HgO7
_symmetry_space_group_name_H-M   'P 1'
_cell_length_a   5.77943724
_cell_length_b   7.38836375
_cell_length_c   8.14519723
_cell_angle_alpha   102.94365814
_cell_angle_beta   93.23691664
_cell_angle_gamma   92.62199589
_symmetry_Int_Tables_number   1
_chemical_formula_structural   BaV2HgO7
_chemical_formula_sum   'Ba2 V4 Hg2 O14'
_cell_volume   337.81648431
_cell_formula_units_Z   2
loop_
 _symmetry_equiv_pos_site_id
 _symmetry_equiv_pos_as_xyz
  1  'x, y, z'
loop_
 _atom_site_type_symbol
 _atom_site_label
 _atom_site_symmetry_multiplicity
 _atom_site_fract_x
 _atom_site_fract_y
 _atom_site_fract_z
 _atom_site_occupancy
  Ba  Ba0  1  0.74258213  0.24955291  0.92478625  1
  Ba  Ba1  1  0.25741787  0.75044709  0.07521375  1
  V  V0  1  0.75391343  0.75161313  0.79821837  1
  V  V1  1  0.24608657  0.24838687  0.20178163  1
  V  V2  1  0.77676007  0.65906016  0.39168584  1
  V  V3  1  0.22323993  0.34093984  0.60831416  1
  Hg  Hg0  1  0.27735352  0.85807112  0.60200135  1
  Hg  Hg1  1  0.72264648  0.14192888  0.39799865  1
  O  O0  1  0.95566952  0.22150586  0.61307804  1
  O  O1  1  0.04433048  0.77849414  0.38692196  1
  O  O2  1  0.76965157  0.63579765  0.95340897  1
  O  O3  1  0.23034843  0.36420235  0.04659103  1
  O  O4  1  0.75145765  0.60101036  0.59252208  1
  O  O5  1  0.24854235  0.39898964  0.40747792  1
  O  O6  1  0.51570693  0.89176674  0.81829672  1
  O  O7  1  0.48429307  0.10823326  0.18170328  1
  O  O8  1  0.56347481  0.80443365  0.36639942  1
  O  O9  1  0.43652519  0.19556635  0.63360058  1
  O  O10  1  0.25584045  0.53696624  0.75602147  1
  O  O11  1  0.74415955  0.46303376  0.24397853  1
  O  O12  1  0.98897559  0.90056003  0.82396432  1
  O  O13  1  0.01102441  0.09943997  0.17603568  1
loop_
_geom_bond_atom_site_label_1
_geom_bond_atom_site_label_2
_geom_bond_distance
_geom_bond_site_symmetry_2
Ba0 O11 2.721436 1_556
Ba0 O2 2.807047 1_555
Ba0 O9 2.819755 1_555
Ba0 O6 2.826081 1_545
Ba0 O0 2.854206 1_555
Ba0 O13 2.939525 1_656
Ba0 O3 2.955990 1_656
Ba0 O12 2.978289 1_545
Ba0 O7 2.981054 1_556
Ba0 O3 3.263522 1_556
Ba1 O10 2.721436 1_554
Ba1 O3 2.807047 1_555
Ba1 O8 2.819755 1_555
Ba1 O7 2.826081 1_565
Ba1 O1 2.854206 1_555
Ba1 O12 2.939525 1_454
Ba1 O2 2.955990 1_454
Ba1 O13 2.978289 1_565
Ba1 O6 2.981054 1_554
Ba1 O2 3.263522 1_554
Hg0 O1 2.104309 1_555
Hg0 O6 2.135769 1_555
Hg0 O12 2.505758 1_455
Hg0 O9 2.570235 1_565
Hg0 O8 2.579107 1_555
Hg1 O0 2.104309 1_555
Hg1 O7 2.135769 1_555
Hg1 O13 2.505758 1_655
Hg1 O8 2.570235 1_545
Hg1 O9 2.579107 1_555
O0 V3 1.751803 1_655
O1 V2 1.751803 1_455
O2 V0 1.678395 1_555
O3 V1 1.678395 1_555
O4 V0 1.790562 1_555
O4 V2 1.793579 1_555
O5 V1 1.790562 1_555
O5 V3 1.793579 1_555
O6 V0 1.753371 1_555
O7 V1 1.753371 1_555
O8 V2 1.705019 1_555
O9 V3 1.705019 1_555
O10 V3 1.658134 1_555
O11 V2 1.658134 1_555
O12 V0 1.681747 1_555
O13 V1 1.681747 1_555
