# generated using pymatgen
data_Ba4Sr2(VH9)3
_symmetry_space_group_name_H-M   'P 1'
_cell_length_a   9.17745443
_cell_length_b   9.09696052
_cell_length_c   5.31955482
_cell_angle_alpha   90.00000000
_cell_angle_beta   90.00000000
_cell_angle_gamma   120.29315286
_symmetry_Int_Tables_number   1
_chemical_formula_structural   Ba4Sr2(VH9)3
_chemical_formula_sum   'Ba4 Sr2 V3 H27'
_cell_volume   383.47227131
_cell_formula_units_Z   1
loop_
 _symmetry_equiv_pos_site_id
 _symmetry_equiv_pos_as_xyz
  1  'x, y, z'
loop_
 _atom_site_type_symbol
 _atom_site_label
 _atom_site_symmetry_multiplicity
 _atom_site_fract_x
 _atom_site_fract_y
 _atom_site_fract_z
 _atom_site_occupancy
  Ba  Ba0  1  0.26515425  0.00000000  0.50000000  1
  Ba  Ba1  1  0.00033263  0.59339716  0.00000000  1
  Ba  Ba2  1  0.40693547  0.40660284  0.00000000  1
  Ba  Ba3  1  0.59937239  1.00000000  0.00000000  1
  Sr  Sr0  1  0.99927453  0.26551107  0.50000000  1
  Sr  Sr1  1  0.73376346  0.73448893  0.50000000  1
  V  V0  1  0.67467952  0.33978680  0.50000000  1
  V  V1  1  0.33489172  0.66021320  0.50000000  1
  V  V2  1  0.99037308  0.00000000  0.00000000  1
  H  H0  1  0.79752977  0.31856708  0.73129662  1
  H  H1  1  0.69208003  0.48156472  0.73414791  1
  H  H2  1  0.53730515  0.22067852  0.74020431  1
  H  H3  1  0.21051331  0.51843528  0.26585209  1
  H  H4  1  0.53730515  0.22067852  0.25979569  1
  H  H5  1  0.79752977  0.31856708  0.26870338  1
  H  H6  1  0.69208003  0.48156472  0.26585209  1
  H  H7  1  0.31662464  0.77932148  0.74020431  1
  H  H8  1  0.47896269  0.68143292  0.73129662  1
  H  H9  1  0.17778238  1.00000000  0.00000000  1
  H  H10  1  0.79879215  0.81404716  0.00000000  1
  H  H11  1  0.98474500  0.18595284  0.00000000  1
  H  H12  1  0.86181210  0.00000000  0.23557886  1
  H  H13  1  0.12653922  0.13875323  0.77737822  1
  H  H14  1  0.98778599  0.86124677  0.77737822  1
  H  H15  1  0.98778599  0.86124677  0.22262178  1
  H  H16  1  0.12653922  0.13875323  0.22262178  1
  H  H17  1  0.86181210  0.00000000  0.76442114  1
  H  H18  1  0.14279875  0.64283524  0.50000000  1
  H  H19  1  0.50662631  0.85868641  0.50000000  1
  H  H20  1  0.35076106  0.48325195  0.50000000  1
  H  H21  1  0.49996351  0.35716476  0.50000000  1
  H  H22  1  0.86750911  0.51674805  0.50000000  1
  H  H23  1  0.64793990  0.14131359  0.50000000  1
  H  H24  1  0.21051331  0.51843528  0.73414791  1
  H  H25  1  0.31662464  0.77932148  0.25979569  1
  H  H26  1  0.47896269  0.68143292  0.26870338  1
loop_
_geom_bond_atom_site_label_1
_geom_bond_atom_site_label_2
_geom_bond_distance
_geom_bond_site_symmetry_2
Ba0 H25 2.615835 1_545
Ba0 H7 2.615835 1_545
Ba0 H4 2.615845 1_555
Ba0 H2 2.615845 1_555
Ba0 H14 2.647390 1_445
Ba0 H15 2.647390 1_445
Ba0 H13 2.647390 1_555
Ba0 H16 2.647390 1_555
Ba0 H9 2.778018 1_545
Ba0 H9 2.778018 1_546
Ba0 H21 2.852528 1_555
Ba0 H18 2.852528 1_545
Ba1 H5 2.657708 1_455
Ba1 H0 2.657708 1_454
Ba1 H3 2.740948 1_555
Ba1 H24 2.740948 1_554
Ba1 H15 2.763306 1_455
Ba1 H14 2.763306 1_454
Ba1 H6 2.852120 1_455
Ba1 H1 2.852120 1_454
Ba1 H22 2.861650 1_455
Ba1 H22 2.861650 1_454
Ba1 H7 2.871158 1_554
Ba1 H25 2.871158 1_555
Ba1 H18 2.897059 1_554
Ba1 H18 2.897059 1_555
Ba2 H26 2.657708 1_555
Ba2 H8 2.657708 1_554
Ba2 H6 2.740962 1_555
Ba2 H1 2.740962 1_554
Ba2 H16 2.763305 1_555
Ba2 H13 2.763305 1_554
Ba2 H3 2.852135 1_555
Ba2 H24 2.852135 1_554
Ba2 H20 2.861650 1_554
Ba2 H20 2.861650 1_555
Ba2 H2 2.871172 1_554
Ba2 H4 2.871172 1_555
Ba2 H21 2.897059 1_555
Ba2 H21 2.897059 1_554
Ba3 H12 2.715043 1_565
Ba3 H17 2.715043 1_564
Ba3 H2 2.723616 1_564
Ba3 H4 2.723616 1_565
Ba3 H7 2.723626 1_554
Ba3 H25 2.723626 1_555
Ba3 H19 2.889221 1_554
Ba3 H19 2.889221 1_555
Ba3 H23 2.889221 1_565
Ba3 H23 2.889221 1_564
Ba3 H5 2.903766 1_565
Ba3 H0 2.903766 1_564
Ba3 H26 2.903767 1_555
Ba3 H8 2.903767 1_554
Ba3 H11 3.055216 1_565
Ba3 H10 3.055217 1_555
H0 V0 1.744089 1_555
H0 Sr0 2.465039 1_555
H1 V0 1.741434 1_555
H1 Sr1 2.470561 1_555
H2 V0 1.737265 1_555
H3 V1 1.741437 1_555
H3 Sr0 2.470555 1_455
H4 V0 1.737265 1_555
H5 V0 1.744089 1_555
H5 Sr0 2.465039 1_555
H6 V0 1.741434 1_555
H6 Sr1 2.470561 1_555
H7 V1 1.737269 1_555
H8 V1 1.744096 1_555
H8 Sr1 2.465039 1_555
H9 V2 1.719940 1_465
H10 V2 1.718238 1_565
H11 V2 1.718239 1_555
H12 V2 1.721198 1_555
H12 Sr0 2.515926 1_555
H12 Sr1 2.515926 1_545
H13 V2 1.722209 1_456
H13 Sr0 2.495938 1_455
H14 V2 1.722210 1_566
H14 Sr1 2.495938 1_555
H15 V2 1.722210 1_565
H15 Sr1 2.495938 1_555
H16 V2 1.722209 1_455
H16 Sr0 2.495938 1_455
H17 V2 1.721198 1_556
H17 Sr0 2.515926 1_555
H17 Sr1 2.515926 1_545
H18 V1 1.688708 1_555
H19 V1 1.695016 1_555
H20 V1 1.687965 1_555
H21 V0 1.688717 1_555
H22 V0 1.687959 1_555
H23 V0 1.695013 1_555
H24 V1 1.741437 1_555
H24 Sr0 2.470555 1_455
H25 V1 1.737269 1_555
H26 V1 1.744096 1_555
H26 Sr1 2.465039 1_555
