# generated using pymatgen
data_Ti3Nb11P8
_symmetry_space_group_name_H-M   'P 1'
_cell_length_a   7.66933152
_cell_length_b   7.66933151
_cell_length_c   13.83412836
_cell_angle_alpha   75.57825120
_cell_angle_beta   75.57825162
_cell_angle_gamma   26.01599610
_symmetry_Int_Tables_number   1
_chemical_formula_structural   Ti3Nb11P8
_chemical_formula_sum   'Ti3 Nb11 P8'
_cell_volume   345.05165024
_cell_formula_units_Z   1
loop_
 _symmetry_equiv_pos_site_id
 _symmetry_equiv_pos_as_xyz
  1  'x, y, z'
loop_
 _atom_site_type_symbol
 _atom_site_label
 _atom_site_symmetry_multiplicity
 _atom_site_fract_x
 _atom_site_fract_y
 _atom_site_fract_z
 _atom_site_occupancy
  Ti  Ti0  1  0.00045659  0.00045659  0.99972394  1
  Ti  Ti1  1  0.49974646  0.49974646  0.50023035  1
  Ti  Ti2  1  0.82301258  0.82301258  0.54437454  1
  Nb  Nb0  1  0.43060053  0.43060053  0.17150262  1
  Nb  Nb1  1  0.56977289  0.56977289  0.82779625  1
  Nb  Nb2  1  0.19625054  0.19625054  0.68739853  1
  Nb  Nb3  1  0.80488874  0.80488874  0.31197869  1
  Nb  Nb4  1  0.20910198  0.20910198  0.20077701  1
  Nb  Nb5  1  0.79119270  0.79119270  0.79943361  1
  Nb  Nb6  1  0.33794813  0.33794813  0.97239138  1
  Nb  Nb7  1  0.66252032  0.66252032  0.02741834  1
  Nb  Nb8  1  0.00168778  0.00168778  0.33566506  1
  Nb  Nb9  1  0.99793575  0.99793575  0.66434227  1
  Nb  Nb10  1  0.17526218  0.17526218  0.45576097  1
  P  P0  1  0.17411548  0.17411548  0.88857576  1
  P  P1  1  0.82644275  0.82644275  0.11110813  1
  P  P2  1  0.37288242  0.37288242  0.40579246  1
  P  P3  1  0.62668113  0.62668113  0.59872804  1
  P  P4  1  0.37118568  0.37118568  0.66059101  1
  P  P5  1  0.62791484  0.62791484  0.33664916  1
  P  P6  1  0.06255969  0.06255969  0.14960194  1
  P  P7  1  0.93784083  0.93784083  0.85015796  1
loop_
_geom_bond_atom_site_label_1
_geom_bond_atom_site_label_2
_geom_bond_distance
_geom_bond_site_symmetry_2
Nb0 P6 2.579854 1_565
Nb0 P6 2.579854 1_655
Nb0 P1 2.601175 1_455
Nb0 P1 2.601175 1_545
Nb0 P2 3.133703 1_555
Nb1 P7 2.579068 1_545
Nb1 P7 2.579068 1_455
Nb1 P0 2.605585 1_655
Nb1 P0 2.605585 1_565
Nb1 P3 3.063947 1_555
Nb2 P3 2.493548 1_455
Nb2 P3 2.493548 1_545
Nb2 P4 2.544999 1_555
Nb2 P0 2.717437 1_555
Nb3 P2 2.524121 1_655
Nb3 P2 2.524121 1_565
Nb3 P5 2.578839 1_555
Nb3 P1 2.714452 1_555
Nb4 P6 2.467861 1_555
Nb4 P1 2.545980 1_455
Nb4 P1 2.545980 1_545
Nb4 P5 2.611400 1_545
Nb4 P5 2.611400 1_455
Nb5 P7 2.466184 1_555
Nb5 P0 2.541497 1_655
Nb5 P0 2.541497 1_565
Nb5 P4 2.631469 1_565
Nb5 P4 2.631469 1_655
Nb6 P1 2.554120 1_546
Nb6 P1 2.554120 1_456
Nb6 P7 2.603384 1_455
Nb6 P7 2.603384 1_545
Nb6 P0 2.964961 1_555
Nb7 P0 2.555231 1_564
Nb7 P0 2.555231 1_654
Nb7 P6 2.603451 1_655
Nb7 P6 2.603451 1_565
Nb7 P1 2.965155 1_555
Nb8 P6 2.501211 1_555
Nb8 P5 2.559704 1_455
Nb8 P5 2.559704 1_545
Nb8 P2 2.583036 1_545
Nb8 P2 2.583036 1_455
Nb9 P7 2.496859 1_555
Nb9 P3 2.571622 1_565
Nb9 P3 2.571622 1_655
Nb9 P4 2.573183 1_655
Nb9 P4 2.573183 1_565
Nb10 P3 2.585499 1_545
Nb10 P3 2.585499 1_455
Nb10 P5 2.606162 1_455
Nb10 P5 2.606162 1_545
Nb10 P2 2.856036 1_555
P0 Ti0 2.657056 1_555
P1 Ti0 2.662527 1_664
P2 Ti2 2.545683 1_545
P2 Ti2 2.545683 1_455
P2 Ti1 2.562807 1_555
P3 Ti1 2.603280 1_555
P3 Ti2 2.836705 1_555
P4 Ti1 2.536534 1_555
P4 Ti2 2.583593 1_455
P4 Ti2 2.583593 1_545
P5 Ti1 2.564018 1_555
P6 Ti0 2.478786 1_554
P7 Ti0 2.479282 1_665
