# generated using pymatgen
data_Ta6Be4Ni2C
_symmetry_space_group_name_H-M   'P 1'
_cell_length_a   7.74449229
_cell_length_b   7.74449134
_cell_length_c   7.74449093
_cell_angle_alpha   59.99999328
_cell_angle_beta   59.99999735
_cell_angle_gamma   59.99999417
_symmetry_Int_Tables_number   1
_chemical_formula_structural   Ta6Be4Ni2C
_chemical_formula_sum   'Ta12 Be8 Ni4 C2'
_cell_volume   328.44577348
_cell_formula_units_Z   2
loop_
 _symmetry_equiv_pos_site_id
 _symmetry_equiv_pos_as_xyz
  1  'x, y, z'
loop_
 _atom_site_type_symbol
 _atom_site_label
 _atom_site_symmetry_multiplicity
 _atom_site_fract_x
 _atom_site_fract_y
 _atom_site_fract_z
 _atom_site_occupancy
  Ta  Ta0  1  0.30057127  0.69942873  0.69942873  1
  Ta  Ta1  1  0.69942873  0.69942873  0.30057127  1
  Ta  Ta2  1  0.69942873  0.30057127  0.69942873  1
  Ta  Ta3  1  0.30057127  0.69942873  0.30057127  1
  Ta  Ta4  1  0.55057127  0.94942873  0.55057127  1
  Ta  Ta5  1  0.55057127  0.94942873  0.94942873  1
  Ta  Ta6  1  0.94942873  0.55057127  0.55057127  1
  Ta  Ta7  1  0.94942873  0.55057127  0.94942873  1
  Ta  Ta8  1  0.30057127  0.30057127  0.69942873  1
  Ta  Ta9  1  0.55057127  0.55057127  0.94942873  1
  Ta  Ta10  1  0.94942873  0.94942873  0.55057127  1
  Ta  Ta11  1  0.69942873  0.30057127  0.30057127  1
  Be  Be0  1  0.32584623  0.32584623  0.02246030  1
  Be  Be1  1  0.32584623  0.32584623  0.32584623  1
  Be  Be2  1  0.22753970  0.92415377  0.92415377  1
  Be  Be3  1  0.92415377  0.92415377  0.92415377  1
  Be  Be4  1  0.02246030  0.32584623  0.32584623  1
  Be  Be5  1  0.32584623  0.02246030  0.32584623  1
  Be  Be6  1  0.92415377  0.92415377  0.22753970  1
  Be  Be7  1  0.92415377  0.22753970  0.92415377  1
  Ni  Ni0  1  0.12500000  0.62500000  0.12500000  1
  Ni  Ni1  1  0.12500000  0.12500000  0.62500000  1
  Ni  Ni2  1  0.62500000  0.12500000  0.12500000  1
  Ni  Ni3  1  0.12500000  0.12500000  0.12500000  1
  C  C0  1  0.50000000  0.50000000  0.50000000  1
  C  C1  1  0.75000000  0.75000000  0.75000000  1
loop_
_geom_bond_atom_site_label_1
_geom_bond_atom_site_label_2
_geom_bond_distance
_geom_bond_site_symmetry_2
Be0 Ni3 2.327765 1_555
Be0 Ni0 2.327772 1_555
Be0 Ni2 2.327772 1_555
Be0 Be5 2.349569 1_555
Be0 Be1 2.349570 1_555
Be0 Be4 2.349570 1_555
Be0 Ta8 2.711624 1_554
Be0 Ta0 2.711628 1_554
Be0 Ta2 2.711628 1_554
Be0 Ta5 2.727260 1_544
Be0 Ta7 2.727260 1_454
Be0 Ta9 2.727266 1_554
Be1 Ni0 2.327768 1_555
Be1 Ni1 2.327768 1_555
Be1 Ni2 2.327768 1_555
Be1 Be5 2.349570 1_555
Be1 Be4 2.349570 1_555
Be1 Ta8 2.711631 1_555
Be1 Ta3 2.711631 1_555
Be1 Ta11 2.711632 1_555
Be1 Ta4 2.727263 1_545
Be1 Ta9 2.727263 1_554
Be1 Ta6 2.727263 1_455
Be2 Ni3 2.327765 1_566
Be2 Ni1 2.327771 1_565
Be2 Ni0 2.327772 1_556
Be2 Be7 2.349570 1_465
Be2 Be6 2.349570 1_456
Be2 Be3 2.349570 1_455
Be2 Ta5 2.711624 1_555
Be2 Ta9 2.711628 1_555
Be2 Ta4 2.711628 1_555
Be2 Ta3 2.727259 1_556
Be2 Ta8 2.727260 1_565
Be2 Ta0 2.727266 1_555
Be3 Ni0 2.327768 1_656
Be3 Ni1 2.327768 1_665
Be3 Ni2 2.327768 1_566
Be3 Be6 2.349570 1_556
Be3 Be7 2.349570 1_565
Be3 Ta10 2.711631 1_555
Be3 Ta7 2.711631 1_555
Be3 Ta5 2.711632 1_555
Be3 Ta2 2.727263 1_565
Be3 Ta1 2.727263 1_556
Be3 Ta0 2.727263 1_655
Be4 Ni3 2.327765 1_555
Be4 Ni1 2.327771 1_555
Be4 Ni0 2.327772 1_555
Be4 Be5 2.349570 1_555
Be4 Ta11 2.711624 1_455
Be4 Ta1 2.711628 1_455
Be4 Ta2 2.711628 1_455
Be4 Ta7 2.727259 1_454
Be4 Ta10 2.727260 1_445
Be4 Ta6 2.727266 1_455
Be5 Ni3 2.327765 1_555
Be5 Ni1 2.327772 1_555
Be5 Ni2 2.327772 1_555
Be5 Ta3 2.711624 1_545
Be5 Ta0 2.711628 1_545
Be5 Ta1 2.711628 1_545
Be5 Ta5 2.727259 1_544
Be5 Ta10 2.727260 1_445
Be5 Ta4 2.727266 1_545
Be6 Ni3 2.327765 1_665
Be6 Ni0 2.327772 1_655
Be6 Ni2 2.327772 1_565
Be6 Be7 2.349569 1_564
Be6 Ta10 2.711624 1_555
Be6 Ta6 2.711628 1_555
Be6 Ta4 2.711628 1_555
Be6 Ta11 2.727260 1_565
Be6 Ta3 2.727260 1_655
Be6 Ta1 2.727266 1_555
Be7 Ni3 2.327765 1_656
Be7 Ni1 2.327772 1_655
Be7 Ni2 2.327772 1_556
Be7 Ta7 2.711624 1_555
Be7 Ta6 2.711628 1_555
Be7 Ta9 2.711628 1_555
Be7 Ta11 2.727259 1_556
Be7 Ta8 2.727260 1_655
Be7 Ta2 2.727266 1_555
Ni0 Ta6 2.728771 1_455
Ni0 Ta0 2.728771 1_554
Ni0 Ta3 2.728772 1_555
Ni0 Ta7 2.728772 1_454
Ni0 Ta9 2.728772 1_554
Ni0 Ta1 2.728772 1_455
Ni1 Ta6 2.728772 1_455
Ni1 Ta0 2.728772 1_545
Ni1 Ta4 2.728772 1_545
Ni1 Ta2 2.728772 1_455
Ni1 Ta8 2.728772 1_555
Ni1 Ta10 2.728772 1_445
Ni2 Ta4 2.728771 1_545
Ni2 Ta2 2.728771 1_554
Ni2 Ta9 2.728771 1_554
Ni2 Ta1 2.728771 1_545
Ni2 Ta11 2.728772 1_555
Ni2 Ta5 2.728772 1_544
Ni3 Ta8 2.728771 1_554
Ni3 Ta10 2.728771 1_445
Ni3 Ta3 2.728771 1_545
Ni3 Ta7 2.728771 1_454
Ni3 Ta5 2.728772 1_544
Ni3 Ta11 2.728772 1_455
C0 Ta2 2.184216 1_555
C0 Ta0 2.184216 1_555
C0 Ta3 2.184216 1_555
C0 Ta11 2.184216 1_555
C0 Ta1 2.184216 1_555
C0 Ta8 2.184216 1_555
C1 Ta5 2.184216 1_555
C1 Ta7 2.184216 1_555
C1 Ta4 2.184216 1_555
C1 Ta6 2.184216 1_555
C1 Ta10 2.184216 1_555
C1 Ta9 2.184216 1_555
