# generated using pymatgen
data_K6ScInAs4
_symmetry_space_group_name_H-M   'P 1'
_cell_length_a   9.17661426
_cell_length_b   9.17661445
_cell_length_c   9.17661322
_cell_angle_alpha   137.07845634
_cell_angle_beta   128.70713642
_cell_angle_gamma   69.04548094
_symmetry_Int_Tables_number   1
_chemical_formula_structural   K6ScInAs4
_chemical_formula_sum   'K6 Sc1 In1 As4'
_cell_volume   403.27950295
_cell_formula_units_Z   1
loop_
 _symmetry_equiv_pos_site_id
 _symmetry_equiv_pos_as_xyz
  1  'x, y, z'
loop_
 _atom_site_type_symbol
 _atom_site_label
 _atom_site_symmetry_multiplicity
 _atom_site_fract_x
 _atom_site_fract_y
 _atom_site_fract_z
 _atom_site_occupancy
  K  K0  1  0.00698885  0.80187227  0.18335924  1
  K  K1  1  0.50000000  0.75000000  0.25000000  1
  K  K2  1  0.61851303  0.32362962  0.31664076  1
  K  K3  1  0.38148697  0.69812773  0.70511758  1
  K  K4  1  0.50000000  0.25000000  0.75000000  1
  K  K5  1  0.99301115  0.17637038  0.79488242  1
  Sc  Sc0  1  0.00000000  0.25000000  0.25000000  1
  In  In0  1  0.00000000  0.75000000  0.75000000  1
  As  As0  1  0.09168558  0.39694485  0.68655618  1
  As  As1  1  0.90831442  0.59486960  0.30525826  1
  As  As2  1  0.28961133  0.10305515  0.19474174  1
  As  As3  1  0.71038867  0.90513040  0.81344382  1
loop_
_geom_bond_atom_site_label_1
_geom_bond_atom_site_label_2
_geom_bond_distance
_geom_bond_site_symmetry_2
K0 Sc0 3.669651 1_565
K2 Sc0 3.669651 1_655
K3 Sc0 3.669649 1_555
K5 Sc0 3.669659 1_656
In0 K3 3.602193 1_555
In0 K0 3.602198 1_556
In0 K2 3.602199 1_455
In0 K5 3.602205 1_465
As0 Sc0 2.694320 1_555
As0 In0 2.728347 1_555
As0 K4 3.317299 1_555
As0 K2 3.337644 1_455
As0 K1 3.344994 1_556
As0 K5 3.359881 1_455
As0 K0 3.570884 1_556
As0 K0 3.655570 1_545
As1 Sc0 2.694316 1_655
As1 In0 2.728351 1_655
As1 K4 3.317295 1_554
As1 K3 3.337645 1_655
As1 K1 3.344998 1_555
As1 K0 3.359889 1_655
As1 K5 3.570890 1_565
As1 K5 3.655569 1_554
As2 Sc0 2.694316 1_555
As2 In0 2.728347 1_544
As2 K4 3.317290 1_555
As2 K5 3.337657 1_454
As2 K1 3.344990 1_545
As2 K2 3.359895 1_555
As2 K3 3.570884 1_544
As2 K3 3.655570 1_555
As3 Sc0 2.694316 1_666
As3 In0 2.728347 1_655
As3 K4 3.317291 1_565
As3 K0 3.337650 1_656
As3 K1 3.344989 1_555
As3 K3 3.359902 1_555
As3 K2 3.570890 1_555
As3 K2 3.655569 1_566
