# generated using pymatgen
data_Rb2Hg(ClF)2
_symmetry_space_group_name_H-M   'P 1'
_cell_length_a   8.46171292
_cell_length_b   8.46171233
_cell_length_c   6.72765650
_cell_angle_alpha   90.00000000
_cell_angle_beta   90.00000000
_cell_angle_gamma   133.12659723
_symmetry_Int_Tables_number   1
_chemical_formula_structural   Rb2Hg(ClF)2
_chemical_formula_sum   'Rb4 Hg2 Cl4 F4'
_cell_volume   351.56934486
_cell_formula_units_Z   2
loop_
 _symmetry_equiv_pos_site_id
 _symmetry_equiv_pos_as_xyz
  1  'x, y, z'
loop_
 _atom_site_type_symbol
 _atom_site_label
 _atom_site_symmetry_multiplicity
 _atom_site_fract_x
 _atom_site_fract_y
 _atom_site_fract_z
 _atom_site_occupancy
  Rb  Rb0  1  0.12095535  0.87904465  0.50000000  1
  Rb  Rb1  1  0.62095535  0.37904465  0.00000000  1
  Rb  Rb2  1  0.87904465  0.12095535  0.50000000  1
  Rb  Rb3  1  0.37904465  0.62095535  0.00000000  1
  Hg  Hg0  1  0.00000000  0.00000000  0.00000000  1
  Hg  Hg1  1  0.50000000  0.50000000  0.50000000  1
  Cl  Cl0  1  0.16272436  0.83727564  0.00000000  1
  Cl  Cl1  1  0.83727564  0.16272436  0.00000000  1
  Cl  Cl2  1  0.66272436  0.33727564  0.50000000  1
  Cl  Cl3  1  0.33727564  0.66272436  0.50000000  1
  F  F0  1  0.25002922  0.25002922  0.24996861  1
  F  F1  1  0.74997078  0.74997078  0.75003139  1
  F  F2  1  0.75002922  0.75002922  0.25003139  1
  F  F3  1  0.24997078  0.24997078  0.74996861  1
loop_
_geom_bond_atom_site_label_1
_geom_bond_atom_site_label_2
_geom_bond_distance
_geom_bond_site_symmetry_2
Cl0 Hg0 2.526661 1_565
Cl0 Rb3 3.358858 1_555
Cl0 Rb0 3.425780 1_555
Cl0 Rb0 3.425780 1_554
Cl0 Rb1 3.427446 1_565
Cl0 Rb1 3.427446 1_455
Cl1 Hg0 2.526661 1_655
Cl1 Rb1 3.358858 1_555
Cl1 Rb2 3.425780 1_554
Cl1 Rb2 3.425780 1_555
Cl1 Rb3 3.427446 1_545
Cl1 Rb3 3.427446 1_655
Cl2 Hg1 2.526661 1_555
Cl2 Rb2 3.358858 1_555
Cl2 Rb1 3.425780 1_555
Cl2 Rb1 3.425780 1_556
Cl2 Rb0 3.427446 1_655
Cl2 Rb0 3.427446 1_545
Cl3 Hg1 2.526661 1_555
Cl3 Rb0 3.358858 1_555
Cl3 Rb3 3.425780 1_555
Cl3 Rb3 3.425780 1_556
Cl3 Rb2 3.427446 1_455
Cl3 Rb2 3.427446 1_565
F0 Hg0 2.379176 1_555
F0 Hg1 2.379196 1_555
F0 Rb3 3.030911 1_555
F0 Rb1 3.030911 1_555
F0 Rb0 3.031364 1_545
F0 Rb2 3.031364 1_455
F1 Hg0 2.379176 1_666
F1 Hg1 2.379196 1_555
F1 Rb1 3.030911 1_556
F1 Rb3 3.030911 1_556
F1 Rb2 3.031364 1_565
F1 Rb0 3.031364 1_655
F2 Hg1 2.379176 1_555
F2 Hg0 2.379196 1_665
F2 Rb2 3.030911 1_565
F2 Rb0 3.030911 1_655
F2 Rb1 3.031364 1_555
F2 Rb3 3.031364 1_555
F3 Hg1 2.379176 1_555
F3 Hg0 2.379196 1_556
F3 Rb0 3.030911 1_545
F3 Rb2 3.030911 1_455
F3 Rb3 3.031364 1_556
F3 Rb1 3.031364 1_556
