# generated using pymatgen
data_Sr(CeS2)2
_symmetry_space_group_name_H-M   'P 1'
_cell_length_a   7.52804781
_cell_length_b   7.52804781
_cell_length_c   7.52804781
_cell_angle_alpha   109.49661837
_cell_angle_beta   109.49661837
_cell_angle_gamma   109.42043709
_symmetry_Int_Tables_number   1
_chemical_formula_structural   Sr(CeS2)2
_chemical_formula_sum   'Sr2 Ce4 S8'
_cell_volume   328.41649238
_cell_formula_units_Z   2
loop_
 _symmetry_equiv_pos_site_id
 _symmetry_equiv_pos_as_xyz
  1  'x, y, z'
loop_
 _atom_site_type_symbol
 _atom_site_label
 _atom_site_symmetry_multiplicity
 _atom_site_fract_x
 _atom_site_fract_y
 _atom_site_fract_z
 _atom_site_occupancy
  Sr  Sr0  1  0.25000000  0.75000000  0.50000000  1
  Sr  Sr1  1  0.50000000  0.50000000  0.00000000  1
  Ce  Ce0  1  0.37500000  0.99916000  0.12416000  1
  Ce  Ce1  1  0.74916000  0.62500000  0.62416000  1
  Ce  Ce2  1  0.87500000  0.25084000  0.87584000  1
  Ce  Ce3  1  0.00084000  0.12500000  0.37584000  1
  S  S0  1  0.11442800  0.51797100  0.74877300  1
  S  S1  1  0.11565500  0.01919800  0.75122700  1
  S  S2  1  0.63434500  0.88557200  0.40354300  1
  S  S3  1  0.26797100  0.36442800  0.24877300  1
  S  S4  1  0.48202900  0.23080200  0.59645700  1
  S  S5  1  0.63557200  0.88434500  0.90354300  1
  S  S6  1  0.76919800  0.36565500  0.25122700  1
  S  S7  1  0.98080200  0.73202900  0.09645700  1
loop_
_geom_bond_atom_site_label_1
_geom_bond_atom_site_label_2
_geom_bond_distance
_geom_bond_site_symmetry_2
Ce0 S7 2.869200 1_455
Ce0 S6 2.869200 1_565
Ce0 S1 2.921664 1_564
Ce0 S2 2.921664 1_555
Ce0 S3 3.057181 1_565
Ce0 S4 3.057181 1_565
Ce0 S0 3.114026 1_554
Ce0 S5 3.114026 1_554
Ce1 S4 2.869200 1_555
Ce1 S1 2.869200 1_665
Ce1 S5 2.921664 1_555
Ce1 S6 2.921664 1_555
Ce1 S0 3.057181 1_655
Ce1 S7 3.057181 1_556
Ce1 S3 3.114026 1_555
Ce1 S2 3.114026 1_555
Ce2 S0 2.869200 1_655
Ce2 S5 2.869200 1_545
Ce2 S3 2.921664 1_656
Ce2 S4 2.921664 1_555
Ce2 S2 3.057181 1_545
Ce2 S1 3.057181 1_655
Ce2 S6 3.114026 1_556
Ce2 S7 3.114026 1_556
Ce3 S2 2.869200 1_445
Ce3 S3 2.869200 1_555
Ce3 S0 2.921664 1_555
Ce3 S7 2.921664 1_445
Ce3 S6 3.057181 1_455
Ce3 S5 3.057181 1_444
Ce3 S4 3.114026 1_555
Ce3 S1 3.114026 1_555
S0 Sr1 2.964434 1_556
S0 Sr0 3.142266 1_555
S1 Sr0 2.964434 1_545
S1 Sr1 3.142266 1_556
S2 Sr1 2.964434 1_555
S2 Sr0 3.142266 1_555
S3 Sr0 2.964434 1_555
S3 Sr1 3.142266 1_555
S4 Sr1 2.964434 1_556
S4 Sr0 3.142266 1_545
S5 Sr0 2.964434 1_555
S5 Sr1 3.142266 1_556
S6 Sr1 2.964434 1_555
S6 Sr0 3.142266 1_655
S7 Sr0 2.964434 1_655
S7 Sr1 3.142266 1_555
