# generated using pymatgen
data_CdRuBr18
_symmetry_space_group_name_H-M   'P 1'
_cell_length_a   9.64097365
_cell_length_b   8.67510432
_cell_length_c   8.14648060
_cell_angle_alpha   92.22445586
_cell_angle_beta   90.62932251
_cell_angle_gamma   92.02365193
_symmetry_Int_Tables_number   1
_chemical_formula_structural   CdRuBr18
_chemical_formula_sum   'Cd1 Ru1 Br18'
_cell_volume   680.35262460
_cell_formula_units_Z   1
loop_
 _symmetry_equiv_pos_site_id
 _symmetry_equiv_pos_as_xyz
  1  'x, y, z'
loop_
 _atom_site_type_symbol
 _atom_site_label
 _atom_site_symmetry_multiplicity
 _atom_site_fract_x
 _atom_site_fract_y
 _atom_site_fract_z
 _atom_site_occupancy
  Cd  Cd0  1  0.00000000  0.00000000  0.00000000  1
  Ru  Ru0  1  0.50000000  0.50000000  0.50000000  1
  Br  Br0  1  0.75187540  0.48864313  0.45069802  1
  Br  Br1  1  0.49798559  0.77451671  0.42428718  1
  Br  Br2  1  0.54946410  0.57845694  0.79341976  1
  Br  Br3  1  0.24812460  0.51135687  0.54930198  1
  Br  Br4  1  0.50201441  0.22548329  0.57571282  1
  Br  Br5  1  0.45053590  0.42154306  0.20658024  1
  Br  Br6  1  0.89552078  0.38664894  0.70406261  1
  Br  Br7  1  0.73717007  0.92760089  0.37905560  1
  Br  Br8  1  0.38872512  0.78508829  0.93918567  1
  Br  Br9  1  0.10447922  0.61335106  0.29593739  1
  Br  Br10  1  0.26282993  0.07239911  0.62094440  1
  Br  Br11  1  0.61127488  0.21491171  0.06081433  1
  Br  Br12  1  0.06178574  0.90140427  0.68095380  1
  Br  Br13  1  0.72703450  0.01360075  0.89443080  1
  Br  Br14  1  0.94840058  0.69004836  0.07257202  1
  Br  Br15  1  0.93821426  0.09859573  0.31904620  1
  Br  Br16  1  0.27296550  0.98639925  0.10556920  1
  Br  Br17  1  0.05159942  0.30995164  0.92742798  1
loop_
_geom_bond_atom_site_label_1
_geom_bond_atom_site_label_2
_geom_bond_distance
_geom_bond_site_symmetry_2
Br0 Ru0 2.470430 1_555
Br0 Br6 2.669555 1_555
Br1 Ru0 2.483787 1_555
Br1 Br7 2.656557 1_555
Br2 Ru0 2.496021 1_555
Br2 Br8 2.663872 1_555
Br3 Ru0 2.470430 1_555
Br3 Br9 2.669555 1_555
Br4 Ru0 2.483787 1_555
Br5 Ru0 2.496021 1_555
Br10 Br12 2.463812 1_545
Br10 Br4 2.656557 1_555
Br11 Br13 2.473816 1_554
Br11 Br5 2.663872 1_555
Br12 Cd0 2.781937 1_566
Br13 Cd0 2.767533 1_656
Br14 Br9 2.474392 1_655
Br14 Cd0 2.803994 1_665
Br15 Br7 2.463812 1_545
Br15 Cd0 2.781937 1_655
Br16 Br8 2.473816 1_554
Br16 Cd0 2.767533 1_565
Br17 Br6 2.474392 1_455
Br17 Cd0 2.803994 1_556
