# generated using pymatgen
data_Ti4Re24Sn
_symmetry_space_group_name_H-M   'P 1'
_cell_length_a   8.34239854
_cell_length_b   8.34239720
_cell_length_c   8.34239808
_cell_angle_alpha   109.47121800
_cell_angle_beta   109.47121475
_cell_angle_gamma   109.47122978
_symmetry_Int_Tables_number   1
_chemical_formula_structural   Ti4Re24Sn
_chemical_formula_sum   'Ti4 Re24 Sn1'
_cell_volume   446.94163367
_cell_formula_units_Z   1
loop_
 _symmetry_equiv_pos_site_id
 _symmetry_equiv_pos_as_xyz
  1  'x, y, z'
loop_
 _atom_site_type_symbol
 _atom_site_label
 _atom_site_symmetry_multiplicity
 _atom_site_fract_x
 _atom_site_fract_y
 _atom_site_fract_z
 _atom_site_occupancy
  Ti  Ti0  1  0.63170478  1.00000000  0.00000000  1
  Ti  Ti1  1  1.00000000  0.63170478  1.00000000  1
  Ti  Ti2  1  0.00000000  0.00000000  0.63170478  1
  Ti  Ti3  1  0.36829522  0.36829522  0.36829522  1
  Re  Re0  1  0.39866247  0.68073176  1.00000000  1
  Re  Re1  1  0.71793071  0.31926824  0.31926824  1
  Re  Re2  1  0.39866247  0.00000000  0.68073176  1
  Re  Re3  1  0.68073176  0.39866247  1.00000000  1
  Re  Re4  1  1.00000000  0.39866247  0.68073176  1
  Re  Re5  1  0.31926824  0.71793071  0.31926824  1
  Re  Re6  1  0.31926824  0.31926824  0.71793071  1
  Re  Re7  1  1.00000000  0.68073176  0.39866247  1
  Re  Re8  1  0.68073176  0.00000000  0.39866247  1
  Re  Re9  1  0.60133753  0.60133753  0.28206929  1
  Re  Re10  1  0.28206929  0.60133753  0.60133753  1
  Re  Re11  1  0.60133753  0.28206929  0.60133753  1
  Re  Re12  1  0.37689067  0.19417723  1.00000000  1
  Re  Re13  1  0.18271444  0.80582277  0.80582277  1
  Re  Re14  1  0.37689067  1.00000000  0.19417723  1
  Re  Re15  1  0.19417723  0.37689067  0.00000000  1
  Re  Re16  1  0.00000000  0.37689067  0.19417723  1
  Re  Re17  1  0.80582277  0.18271444  0.80582277  1
  Re  Re18  1  0.80582277  0.80582277  0.18271444  1
  Re  Re19  1  1.00000000  0.19417723  0.37689067  1
  Re  Re20  1  0.19417723  1.00000000  0.37689067  1
  Re  Re21  1  0.62310933  0.62310933  0.81728556  1
  Re  Re22  1  0.81728556  0.62310933  0.62310933  1
  Re  Re23  1  0.62310933  0.81728556  0.62310933  1
  Sn  Sn0  1  0.00000000  0.00000000  0.00000000  1
loop_
_geom_bond_atom_site_label_1
_geom_bond_atom_site_label_2
_geom_bond_distance
_geom_bond_site_symmetry_2
Re0 Re15 2.540160 1_556
Re0 Re13 2.719076 1_555
Re0 Re14 2.719080 1_556
Re0 Ti0 2.724261 1_556
Re0 Re6 2.822749 1_555
Re0 Re9 2.822749 1_556
Re0 Re18 2.841610 1_556
Re0 Re21 2.841615 1_555
Re0 Re5 2.896740 1_556
Re0 Re8 2.896740 1_566
Re0 Re4 2.896740 1_455
Re0 Re10 2.896740 1_555
Re0 Ti1 3.212693 1_455
Re1 Re22 2.540163 1_555
Re1 Re14 2.719080 1_545
Re1 Re12 2.719081 1_554
Re1 Ti0 2.724261 1_545
Re1 Re7 2.822748 1_555
Re1 Re4 2.822749 1_555
Re1 Re16 2.841609 1_655
Re1 Re19 2.841610 1_555
Re1 Re8 2.896739 1_555
Re1 Re9 2.896740 1_555
Re1 Re11 2.896740 1_555
Re1 Re3 2.896740 1_554
Re1 Ti3 3.212693 1_555
Re2 Re20 2.540160 1_545
Re2 Ti0 2.724262 1_546
Re2 Re5 2.822749 1_545
Re2 Re23 2.841615 1_545
Re2 Re3 2.896740 1_555
Re2 Re6 2.896740 1_555
Re2 Re7 2.896740 1_445
Re2 Ti2 3.212693 1_555
Re3 Ti1 2.724261 1_555
Re3 Re9 2.822749 1_556
Re3 Re6 2.822749 1_555
Re3 Re7 2.896740 1_556
Re3 Ti0 3.212692 1_546
Re4 Ti1 2.724261 1_555
Re4 Re8 2.896739 1_555
Re4 Re6 2.896740 1_655
Re4 Ti2 3.212692 1_655
Re5 Ti1 2.724262 1_454
Re5 Re8 2.822748 1_565
Re5 Re7 2.896740 1_455
Re5 Re9 2.896740 1_555
Re5 Ti3 3.212693 1_555
Re6 Ti2 2.724261 1_555
Re6 Ti3 3.212693 1_555
Re7 Ti2 2.724261 1_665
Re7 Re9 2.896740 1_555
Re7 Ti1 3.212693 1_554
Re8 Ti2 2.724262 1_655
Re8 Re9 2.896739 1_545
Re8 Ti0 3.212693 1_545
Re9 Ti3 2.724261 1_555
Re9 Ti2 3.212693 1_665
Re10 Re13 2.540154 1_555
Re10 Re23 2.719078 1_555
Re10 Re21 2.719078 1_555
Re10 Ti3 2.724261 1_555
Re10 Re4 2.822748 1_455
Re10 Re7 2.822749 1_455
Re10 Re19 2.841609 1_455
Re10 Re16 2.841610 1_555
Re10 Re2 2.896739 1_565
Re10 Re6 2.896740 1_555
Re10 Re5 2.896740 1_555
Re10 Ti0 3.212693 1_556
Re11 Re17 2.540154 1_555
Re11 Re22 2.719077 1_555
Re11 Re21 2.719078 1_555
Re11 Ti3 2.724262 1_555
Re11 Re2 2.822748 1_555
Re11 Re8 2.822749 1_555
Re11 Re20 2.841609 1_545
Re11 Re14 2.841609 1_545
Re11 Re6 2.896740 1_555
Re11 Re3 2.896740 1_555
Re11 Re4 2.896740 1_555
Re11 Ti1 3.212693 1_555
Re12 Re15 2.489120 1_556
Re12 Re3 2.540160 1_555
Re12 Re13 2.645291 1_545
Re12 Re14 2.645292 1_546
Re12 Re2 2.719080 1_555
Re12 Re9 2.841609 1_556
Re12 Re6 2.841609 1_555
Re12 Ti3 2.965829 1_556
Re12 Ti2 2.965829 1_555
Re12 Sn0 3.019007 1_556
Re12 Ti0 3.072236 1_546
Re13 Re22 2.489133 1_455
Re13 Re14 2.645292 1_556
Re13 Re2 2.719075 1_565
Re13 Re4 2.841609 1_455
Re13 Re7 2.841610 1_455
Re13 Ti1 2.965833 1_455
Re13 Ti2 2.965833 1_565
Re13 Sn0 3.019014 1_566
Re13 Ti0 3.072229 1_556
Re14 Re20 2.489120 1_555
Re14 Re8 2.540160 1_565
Re14 Re5 2.841609 1_555
Re14 Ti1 2.965828 1_454
Re14 Ti3 2.965829 1_565
Re14 Sn0 3.019007 1_565
Re14 Ti0 3.072236 1_555
Re15 Re16 2.645292 1_555
Re15 Re17 2.645292 1_454
Re15 Re5 2.719080 1_555
Re15 Re4 2.719081 1_454
Re15 Re6 2.841609 1_554
Re15 Re9 2.841610 1_555
Re15 Ti2 2.965829 1_554
Re15 Ti3 2.965829 1_555
Re15 Sn0 3.019006 1_555
Re15 Ti1 3.072236 1_454
Re16 Re19 2.489119 1_455
Re16 Re7 2.540160 1_455
Re16 Re17 2.645292 1_454
Re16 Re5 2.719080 1_555
Re16 Re3 2.719081 1_454
Re16 Ti0 2.965828 1_445
Re16 Ti3 2.965829 1_555
Re16 Sn0 3.019007 1_555
Re16 Ti1 3.072235 1_454
Re17 Re23 2.489133 1_545
Re17 Re4 2.719075 1_555
Re17 Re3 2.719075 1_555
Re17 Re2 2.841610 1_555
Re17 Re8 2.841610 1_555
Re17 Ti0 2.965833 1_546
Re17 Ti2 2.965833 1_655
Re17 Sn0 3.019014 1_656
Re17 Ti1 3.072228 1_555
Re18 Re21 2.489133 1_554
Re18 Re9 2.540153 1_555
Re18 Re19 2.645291 1_565
Re18 Re20 2.645292 1_655
Re18 Re8 2.719075 1_565
Re18 Re7 2.719076 1_555
Re18 Re3 2.841609 1_554
Re18 Ti0 2.965833 1_555
Re18 Ti1 2.965833 1_554
Re18 Sn0 3.019014 1_665
Re18 Ti2 3.072229 1_665
Re19 Re4 2.540160 1_555
Re19 Re20 2.645292 1_645
Re19 Re8 2.719080 1_555
Re19 Re6 2.719081 1_655
Re19 Ti3 2.965829 1_655
Re19 Ti0 2.965829 1_545
Re19 Sn0 3.019007 1_655
Re19 Ti2 3.072235 1_655
Re20 Re7 2.719080 1_455
Re20 Re6 2.719080 1_565
Re20 Re5 2.841609 1_555
Re20 Ti3 2.965828 1_565
Re20 Ti1 2.965829 1_454
Re20 Sn0 3.019007 1_565
Re20 Ti2 3.072236 1_565
Re21 Re6 2.540163 1_555
Re21 Re23 2.645278 1_555
Re21 Re22 2.645278 1_555
Re21 Re3 2.841615 1_555
Re21 Ti0 2.965830 1_556
Re21 Ti1 2.965830 1_555
Re21 Sn0 3.019005 1_666
Re21 Ti3 3.072229 1_555
Re22 Re23 2.645278 1_555
Re22 Re9 2.719078 1_555
Re22 Re7 2.841615 1_555
Re22 Re4 2.841615 1_555
Re22 Ti2 2.965829 1_665
Re22 Ti1 2.965830 1_555
Re22 Sn0 3.019005 1_666
Re22 Ti3 3.072229 1_555
Re23 Re5 2.540163 1_555
Re23 Re9 2.719078 1_555
Re23 Re8 2.841615 1_565
Re23 Ti2 2.965830 1_665
Re23 Ti0 2.965830 1_556
Re23 Sn0 3.019005 1_666
Re23 Ti3 3.072229 1_555
Sn0 Ti1 3.072465 1_444
Sn0 Ti3 3.072465 1_555
Sn0 Ti2 3.072465 1_554
Sn0 Ti0 3.072466 1_445
