# generated using pymatgen
data_Y3Mg5(IO6)4
_symmetry_space_group_name_H-M   'P 1'
_cell_length_a   5.23646926
_cell_length_b   7.35895674
_cell_length_c   10.81587307
_cell_angle_alpha   81.09317149
_cell_angle_beta   90.00000000
_cell_angle_gamma   90.00000000
_symmetry_Int_Tables_number   1
_chemical_formula_structural   Y3Mg5(IO6)4
_chemical_formula_sum   'Y3 Mg5 I4 O24'
_cell_volume   411.76325148
_cell_formula_units_Z   1
loop_
 _symmetry_equiv_pos_site_id
 _symmetry_equiv_pos_as_xyz
  1  'x, y, z'
loop_
 _atom_site_type_symbol
 _atom_site_label
 _atom_site_symmetry_multiplicity
 _atom_site_fract_x
 _atom_site_fract_y
 _atom_site_fract_z
 _atom_site_occupancy
  Y  Y0  1  0.22754786  0.00000000  0.75000000  1
  Y  Y1  1  0.77641478  0.00000000  0.25000000  1
  Y  Y2  1  0.69694171  0.50000000  0.25000000  1
  Mg  Mg0  1  0.21175119  0.75833009  0.09311369  1
  Mg  Mg1  1  0.28092337  0.50000000  0.75000000  1
  Mg  Mg2  1  0.21175119  0.24166991  0.40688631  1
  Mg  Mg3  1  0.78829208  0.24140784  0.90257996  1
  Mg  Mg4  1  0.78829208  0.75859216  0.59742004  1
  I  I0  1  0.72585901  0.74542000  0.88646314  1
  I  I1  1  0.27486450  0.74645985  0.39177325  1
  I  I2  1  0.72585901  0.25458000  0.61353686  1
  I  I3  1  0.27486450  0.25354015  0.10822675  1
  O  O0  1  0.86203857  0.33491012  0.45555676  1
  O  O1  1  0.42691629  0.83613874  0.94467313  1
  O  O2  1  0.86203857  0.66508988  0.04444324  1
  O  O3  1  0.00808335  0.30512241  0.71457046  1
  O  O4  1  0.99791149  0.29570520  0.21600516  1
  O  O5  1  0.13232243  0.32028674  0.95270706  1
  O  O6  1  0.60115435  0.50498875  0.87593450  1
  O  O7  1  0.58027371  0.16573145  0.05472999  1
  O  O8  1  0.13232243  0.67971326  0.54729294  1
  O  O9  1  0.00808335  0.69487759  0.78542954  1
  O  O10  1  0.46405577  0.21281669  0.26687899  1
  O  O11  1  0.11842661  0.97582333  0.38231408  1
  O  O12  1  0.42691629  0.16386126  0.55532687  1
  O  O13  1  0.99791149  0.70429480  0.28399484  1
  O  O14  1  0.89228889  0.03065581  0.61386964  1
  O  O15  1  0.54559206  0.20002987  0.76847300  1
  O  O16  1  0.54559206  0.79997013  0.73152700  1
  O  O17  1  0.11842661  0.02417667  0.11768592  1
  O  O18  1  0.60115435  0.49501125  0.62406550  1
  O  O19  1  0.37925433  0.49581954  0.10706704  1
  O  O20  1  0.46405577  0.78718331  0.23312101  1
  O  O21  1  0.37925433  0.50418046  0.39293296  1
  O  O22  1  0.58027371  0.83426855  0.44527001  1
  O  O23  1  0.89228889  0.96934419  0.88613036  1
loop_
_geom_bond_atom_site_label_1
_geom_bond_atom_site_label_2
_geom_bond_distance
_geom_bond_site_symmetry_2
Mg0 O1 1.972393 1_554
Mg0 O20 2.045309 1_555
Mg0 O2 2.052626 1_455
Mg0 O17 2.073108 1_565
Mg0 O19 2.105638 1_555
Mg0 O13 2.328118 1_455
Mg1 O9 2.101162 1_555
Mg1 O3 2.101162 1_555
Mg1 O6 2.164267 1_555
Mg1 O18 2.164267 1_555
Mg1 O5 2.502702 1_555
Mg1 O8 2.502702 1_555
Mg1 O16 2.587867 1_555
Mg1 O15 2.587867 1_555
Mg2 O12 1.972393 1_555
Mg2 O10 2.045309 1_555
Mg2 O0 2.052626 1_455
Mg2 O11 2.073108 1_545
Mg2 O21 2.105638 1_555
Mg2 O4 2.328118 1_455
Mg3 O7 1.980152 1_556
Mg3 O15 1.987097 1_555
Mg3 O5 1.993429 1_655
Mg3 O23 2.108778 1_545
Mg3 O6 2.152348 1_555
Mg3 O3 2.320412 1_655
Mg4 O22 1.980152 1_555
Mg4 O16 1.987097 1_555
Mg4 O8 1.993429 1_655
Mg4 O14 2.108778 1_565
Mg4 O18 2.152348 1_555
Mg4 O9 2.320412 1_655
I0 O1 1.850057 1_555
I0 O2 1.861402 1_556
I0 O23 1.863626 1_555
I0 O6 1.905856 1_555
I0 O9 1.908508 1_655
I0 O16 1.911049 1_555
I1 O8 1.836289 1_555
I1 O22 1.850884 1_555
I1 O21 1.863024 1_555
I1 O11 1.864666 1_555
I1 O13 1.915836 1_455
I1 O20 1.963816 1_555
I2 O12 1.850057 1_555
I2 O0 1.861402 1_555
I2 O14 1.863626 1_555
I2 O18 1.905856 1_555
I2 O3 1.908508 1_655
I2 O15 1.911049 1_555
I3 O5 1.836289 1_554
I3 O7 1.850884 1_555
I3 O19 1.863024 1_555
I3 O17 1.864666 1_555
I3 O4 1.915836 1_455
I3 O10 1.963816 1_555
O0 Y2 2.515934 1_555
O1 Y0 2.488202 1_565
O2 Y2 2.515934 1_555
O3 Y0 2.498570 1_555
O4 Y2 2.247309 1_555
O4 Y1 2.442957 1_555
O7 Y1 2.491053 1_555
O9 Y0 2.498570 1_565
O10 Y1 2.291274 1_555
O10 Y2 2.422265 1_555
O11 Y1 2.282166 1_465
O12 Y0 2.488202 1_555
O13 Y2 2.247309 1_555
O13 Y1 2.442957 1_565
O14 Y0 2.279900 1_655
O15 Y0 2.251991 1_555
O16 Y0 2.251991 1_565
O17 Y1 2.282166 1_455
O19 Y2 2.274434 1_555
O20 Y1 2.291274 1_565
O20 Y2 2.422265 1_555
O21 Y2 2.274434 1_555
O22 Y1 2.491053 1_565
O23 Y0 2.279900 1_665
