# generated using pymatgen
data_InSnF7
_symmetry_space_group_name_H-M   'P 1'
_cell_length_a   5.39568646
_cell_length_b   8.57060208
_cell_length_c   11.68140701
_cell_angle_alpha   62.96937865
_cell_angle_beta   90.00000000
_cell_angle_gamma   90.00000000
_symmetry_Int_Tables_number   1
_chemical_formula_structural   InSnF7
_chemical_formula_sum   'In4 Sn4 F28'
_cell_volume   481.18904983
_cell_formula_units_Z   4
loop_
 _symmetry_equiv_pos_site_id
 _symmetry_equiv_pos_as_xyz
  1  'x, y, z'
loop_
 _atom_site_type_symbol
 _atom_site_label
 _atom_site_symmetry_multiplicity
 _atom_site_fract_x
 _atom_site_fract_y
 _atom_site_fract_z
 _atom_site_occupancy
  In  In0  1  0.25988605  0.81517269  0.26546280  1
  In  In1  1  0.74011395  0.18482731  0.73453720  1
  In  In2  1  0.75988605  0.18482731  0.23453720  1
  In  In3  1  0.24011395  0.81517269  0.76546280  1
  Sn  Sn0  1  0.76125395  0.73018653  0.04296337  1
  Sn  Sn1  1  0.23874605  0.26981347  0.95703663  1
  Sn  Sn2  1  0.26125395  0.26981347  0.45703663  1
  Sn  Sn3  1  0.73874605  0.73018653  0.54296337  1
  F  F0  1  0.94606217  0.70675412  0.41331769  1
  F  F1  1  0.05393783  0.29324588  0.58668231  1
  F  F2  1  0.44606217  0.29324588  0.08668231  1
  F  F3  1  0.55393783  0.70675412  0.91331769  1
  F  F4  1  0.47093227  0.71982335  0.14907482  1
  F  F5  1  0.52906773  0.28017665  0.85092518  1
  F  F6  1  0.97093227  0.28017665  0.35092518  1
  F  F7  1  0.02906773  0.71982335  0.64907482  1
  F  F8  1  0.96076778  0.74042077  0.18245294  1
  F  F9  1  0.03923222  0.25957923  0.81754706  1
  F  F10  1  0.46076778  0.25957923  0.31754706  1
  F  F11  1  0.53923222  0.74042077  0.68245294  1
  F  F12  1  0.79130366  0.47333561  0.13549022  1
  F  F13  1  0.20869634  0.52666439  0.86450978  1
  F  F14  1  0.29130366  0.52666439  0.36450978  1
  F  F15  1  0.70869634  0.47333561  0.63549022  1
  F  F16  1  0.92166507  0.26342331  0.04560377  1
  F  F17  1  0.07833493  0.73657669  0.95439623  1
  F  F18  1  0.42166507  0.73657669  0.45439623  1
  F  F19  1  0.57833493  0.26342331  0.54560377  1
  F  F20  1  0.74485553  0.98708893  0.44741307  1
  F  F21  1  0.25514447  0.01291107  0.55258693  1
  F  F22  1  0.24485553  0.01291107  0.05258693  1
  F  F23  1  0.75514447  0.98708893  0.94741307  1
  F  F24  1  0.59195203  0.96521868  0.23214810  1
  F  F25  1  0.40804797  0.03478132  0.76785190  1
  F  F26  1  0.09195203  0.03478132  0.26785190  1
  F  F27  1  0.90804797  0.96521868  0.73214810  1
loop_
_geom_bond_atom_site_label_1
_geom_bond_atom_site_label_2
_geom_bond_distance
_geom_bond_site_symmetry_2
F0 Sn3 1.965099 1_555
F0 In0 2.292379 1_655
F1 Sn2 1.965099 1_555
F1 In1 2.292379 1_455
F2 Sn1 1.965099 1_554
F2 In2 2.292379 1_555
F3 Sn0 1.965099 1_556
F3 In3 2.292379 1_555
F4 Sn0 1.974369 1_555
F4 In0 2.196101 1_555
F5 Sn1 1.974369 1_555
F5 In1 2.196101 1_555
F6 Sn2 1.974369 1_655
F6 In2 2.196101 1_555
F7 Sn3 1.974369 1_455
F7 In3 2.196101 1_555
F8 Sn0 1.987848 1_555
F8 In0 2.126080 1_655
F9 Sn1 1.987848 1_555
F9 In1 2.126080 1_455
F10 Sn2 1.987848 1_555
F10 In2 2.126080 1_555
F11 Sn3 1.987848 1_555
F11 In3 2.126080 1_555
F12 Sn0 1.969232 1_555
F12 In2 2.209347 1_555
F13 Sn1 1.969232 1_555
F13 In3 2.209347 1_555
F14 Sn2 1.969232 1_555
F14 In0 2.209347 1_555
F15 Sn3 1.969232 1_555
F15 In1 2.209347 1_555
F16 Sn1 1.987196 1_654
F16 In2 2.176080 1_555
F17 Sn0 1.987196 1_456
F17 In3 2.176080 1_555
F18 Sn3 1.987196 1_555
F18 In0 2.176080 1_555
F19 Sn2 1.987196 1_555
F19 In1 2.176080 1_555
F20 Sn3 1.964966 1_555
F20 In2 2.287320 1_565
F21 Sn2 1.964966 1_555
F21 In3 2.287320 1_545
F22 Sn1 1.964966 1_554
F22 In0 2.287320 1_545
F23 Sn0 1.964966 1_556
F23 In1 2.287320 1_565
F24 In2 2.100517 1_565
F24 In0 2.135555 1_555
F25 In3 2.100517 1_545
F25 In1 2.135555 1_555
F26 In0 2.100517 1_545
F26 In2 2.135555 1_455
F27 In1 2.100517 1_565
F27 In3 2.135555 1_655
