# generated using pymatgen
data_CdNi(SeO4)2
_symmetry_space_group_name_H-M   'P 1'
_cell_length_a   4.95713232
_cell_length_b   4.95713171
_cell_length_c   6.81353683
_cell_angle_alpha   89.35165117
_cell_angle_beta   90.64834737
_cell_angle_gamma   112.54726059
_symmetry_Int_Tables_number   1
_chemical_formula_structural   CdNi(SeO4)2
_chemical_formula_sum   'Cd1 Ni1 Se2 O8'
_cell_volume   154.61804146
_cell_formula_units_Z   1
loop_
 _symmetry_equiv_pos_site_id
 _symmetry_equiv_pos_as_xyz
  1  'x, y, z'
loop_
 _atom_site_type_symbol
 _atom_site_label
 _atom_site_symmetry_multiplicity
 _atom_site_fract_x
 _atom_site_fract_y
 _atom_site_fract_z
 _atom_site_occupancy
  Cd  Cd0  1  0.00000000  0.00000000  0.00000000  1
  Ni  Ni0  1  0.00000000  0.00000000  0.50000000  1
  Se  Se0  1  0.35786579  0.64213421  0.72887854  1
  Se  Se1  1  0.64213421  0.35786579  0.27112146  1
  O  O0  1  0.23132270  0.27541910  0.72397539  1
  O  O1  1  0.76867730  0.72458090  0.27602461  1
  O  O2  1  0.27541910  0.23132270  0.27602461  1
  O  O3  1  0.72458090  0.76867730  0.72397539  1
  O  O4  1  0.26973245  0.73026755  0.94320447  1
  O  O5  1  0.75934517  0.24065483  0.46645444  1
  O  O6  1  0.73026755  0.26973245  0.05679553  1
  O  O7  1  0.24065483  0.75934517  0.53354556  1
loop_
_geom_bond_atom_site_label_1
_geom_bond_atom_site_label_2
_geom_bond_distance
_geom_bond_site_symmetry_2
Cd0 O6 2.262723 1_455
Cd0 O4 2.262723 1_544
Cd0 O1 2.346497 1_445
Cd0 O0 2.346497 1_554
Cd0 O2 2.346497 1_555
Cd0 O3 2.346497 1_444
Ni0 O7 1.994391 1_545
Ni0 O5 1.994391 1_455
Ni0 O3 2.077192 1_445
Ni0 O2 2.077192 1_555
Ni0 O0 2.077192 1_555
Ni0 O1 2.077192 1_445
O0 Se0 1.680953 1_555
O1 Se1 1.680953 1_555
O2 Se1 1.680953 1_555
O3 Se0 1.680953 1_555
O4 Se0 1.639977 1_555
O5 Se1 1.634138 1_555
O6 Se1 1.639977 1_555
O7 Se0 1.634138 1_555
