# generated using pymatgen
data_CaB2RuRh
_symmetry_space_group_name_H-M   'P 1'
_cell_length_a   6.82569560
_cell_length_b   5.94271449
_cell_length_c   5.54370989
_cell_angle_alpha   72.82327621
_cell_angle_beta   56.28479048
_cell_angle_gamma   50.89194801
_symmetry_Int_Tables_number   1
_chemical_formula_structural   CaB2RuRh
_chemical_formula_sum   'Ca2 B4 Ru2 Rh2'
_cell_volume   144.61771081
_cell_formula_units_Z   2
loop_
 _symmetry_equiv_pos_site_id
 _symmetry_equiv_pos_as_xyz
  1  'x, y, z'
loop_
 _atom_site_type_symbol
 _atom_site_label
 _atom_site_symmetry_multiplicity
 _atom_site_fract_x
 _atom_site_fract_y
 _atom_site_fract_z
 _atom_site_occupancy
  Ca  Ca0  1  0.50144521  0.50144521  0.49855479  1
  Ca  Ca1  1  0.75144521  0.75144521  0.74855479  1
  B  B0  1  0.81722830  0.18403646  0.82373286  1
  B  B1  1  0.07499762  0.42626714  0.06596354  1
  B  B2  1  0.18403646  0.81722830  0.17500238  1
  B  B3  1  0.42626714  0.07499762  0.43277170  1
  Ru  Ru0  1  0.13273829  0.13273829  0.86726171  1
  Ru  Ru1  1  0.38273829  0.38273829  0.11726171  1
  Rh  Rh0  1  0.11455173  0.11455173  0.38544827  1
  Rh  Rh1  1  0.86455173  0.86455173  0.13544827  1
loop_
_geom_bond_atom_site_label_1
_geom_bond_atom_site_label_2
_geom_bond_distance
_geom_bond_site_symmetry_2
Ca0 Rh0 2.998751 1_655
Ca0 Rh0 2.998751 1_565
Ca0 Ru1 3.020824 1_555
Ca0 Ru1 3.020824 1_556
Ca1 Rh1 2.998751 1_556
Ca1 Rh1 2.998751 1_555
Ca1 Ru0 3.020824 1_565
Ca1 Ru0 3.020824 1_655
B0 Ru1 2.048697 1_556
B0 Rh0 2.062532 1_655
B0 Ru0 2.119970 1_655
B0 Rh1 2.145547 1_546
B0 Ca0 2.937609 1_555
B0 Ca1 3.035287 1_555
B0 Ca1 3.046466 1_545
B1 Ru0 2.048697 1_554
B1 Rh1 2.062532 1_455
B1 Ru1 2.119970 1_555
B1 Rh0 2.145547 1_555
B1 Ca1 2.937609 1_454
B1 Ca0 3.035287 1_554
B1 Ca0 3.046466 1_455
B2 Ru1 2.048697 1_555
B2 Rh0 2.062532 1_565
B2 Ru0 2.119970 1_564
B2 Rh1 2.145547 1_455
B2 Ca0 2.937609 1_555
B2 Ca1 3.035287 1_554
B2 Ca1 3.046466 1_455
B3 Ru0 2.048697 1_555
B3 Rh1 2.062532 1_545
B3 Ru1 2.119970 1_555
B3 Rh0 2.145547 1_555
B3 Ca1 2.937609 1_545
B3 Ca0 3.035287 1_555
B3 Ca0 3.046466 1_545
