# generated using pymatgen
data_CsCr3Sb12Os
_symmetry_space_group_name_H-M   'P 1'
_cell_length_a   8.28294021
_cell_length_b   8.36876614
_cell_length_c   8.28294019
_cell_angle_alpha   109.68125400
_cell_angle_beta   109.26036578
_cell_angle_gamma   109.68126732
_symmetry_Int_Tables_number   1
_chemical_formula_structural   CsCr3Sb12Os
_chemical_formula_sum   'Cs1 Cr3 Sb12 Os1'
_cell_volume   440.83519224
_cell_formula_units_Z   1
loop_
 _symmetry_equiv_pos_site_id
 _symmetry_equiv_pos_as_xyz
  1  'x, y, z'
loop_
 _atom_site_type_symbol
 _atom_site_label
 _atom_site_symmetry_multiplicity
 _atom_site_fract_x
 _atom_site_fract_y
 _atom_site_fract_z
 _atom_site_occupancy
  Cs  Cs0  1  0.00000000  0.00000000  0.00000000  1
  Cr  Cr0  1  0.00000000  0.00000000  0.50000000  1
  Cr  Cr1  1  0.50000000  0.00000000  0.00000000  1
  Cr  Cr2  1  0.50000000  0.50000000  0.50000000  1
  Sb  Sb0  1  0.35214162  0.19955088  0.84941985  1
  Sb  Sb1  1  0.64785838  0.80044912  0.15058015  1
  Sb  Sb2  1  0.66400893  0.50196481  0.85356999  1
  Sb  Sb3  1  0.33599107  0.49803519  0.14643001  1
  Sb  Sb4  1  0.18956006  0.83795688  0.33599107  1
  Sb  Sb5  1  0.81043994  0.16204312  0.66400893  1
  Sb  Sb6  1  0.49727823  0.84740925  0.64785838  1
  Sb  Sb7  1  0.50272177  0.15259075  0.35214162  1
  Sb  Sb8  1  0.85356999  0.35160418  0.18956006  1
  Sb  Sb9  1  0.14643001  0.64839582  0.81043994  1
  Sb  Sb10  1  0.84941985  0.64986898  0.49727823  1
  Sb  Sb11  1  0.15058015  0.35013102  0.50272177  1
  Os  Os0  1  0.00000000  0.50000000  0.00000000  1
loop_
_geom_bond_atom_site_label_1
_geom_bond_atom_site_label_2
_geom_bond_distance
_geom_bond_site_symmetry_2
Cs0 Sb5 3.625310 1_454
Cs0 Sb4 3.625310 1_545
Cs0 Sb8 3.625310 1_455
Cs0 Sb9 3.625310 1_544
Cs0 Sb3 3.625318 1_555
Cs0 Sb2 3.625318 1_444
Cs0 Sb1 3.657058 1_445
Cs0 Sb0 3.657058 1_554
Cs0 Sb7 3.657059 1_555
Cs0 Sb6 3.657059 1_444
Cs0 Sb11 3.657059 1_555
Cs0 Sb10 3.657059 1_444
Cr0 Sb0 2.750841 1_555
Cr0 Sb1 2.750841 1_445
Cr0 Sb11 2.759942 1_555
Cr0 Sb10 2.759942 1_445
Cr0 Sb5 2.783920 1_455
Cr0 Sb4 2.783920 1_545
Cr1 Sb7 2.750841 1_555
Cr1 Sb6 2.750841 1_544
Cr1 Sb1 2.759942 1_545
Cr1 Sb0 2.759942 1_554
Cr1 Sb8 2.783928 1_555
Cr1 Sb9 2.783928 1_544
Cr2 Sb10 2.750841 1_555
Cr2 Sb11 2.750841 1_555
Cr2 Sb6 2.759942 1_555
Cr2 Sb7 2.759942 1_555
Cr2 Sb3 2.783932 1_555
Cr2 Sb2 2.783932 1_555
Sb0 Sb2 2.925468 1_555
Sb0 Sb3 2.934744 1_556
Sb1 Sb3 2.925468 1_555
Sb1 Sb2 2.934744 1_554
Sb4 Sb6 2.925478 1_555
Sb4 Sb7 2.934744 1_565
Sb5 Sb7 2.925478 1_555
Sb5 Sb6 2.934744 1_545
Sb10 Sb8 2.925478 1_555
Sb10 Sb9 2.934745 1_655
Sb11 Sb9 2.925478 1_555
Sb11 Sb8 2.934745 1_455
Os0 Sb9 2.652128 1_554
Os0 Sb8 2.652128 1_455
Os0 Sb2 2.652131 1_454
Os0 Sb3 2.652131 1_555
Os0 Sb4 2.652137 1_555
Os0 Sb5 2.652137 1_454
