# generated using pymatgen
data_Na2AsH
_symmetry_space_group_name_H-M   'P 1'
_cell_length_a   4.89549443
_cell_length_b   6.55411104
_cell_length_c   4.81571157
_cell_angle_alpha   48.65708634
_cell_angle_beta   63.71404551
_cell_angle_gamma   47.88705092
_symmetry_Int_Tables_number   1
_chemical_formula_structural   Na2AsH
_chemical_formula_sum   'Na2 As1 H1'
_cell_volume   86.05548261
_cell_formula_units_Z   1
loop_
 _symmetry_equiv_pos_site_id
 _symmetry_equiv_pos_as_xyz
  1  'x, y, z'
loop_
 _atom_site_type_symbol
 _atom_site_label
 _atom_site_symmetry_multiplicity
 _atom_site_fract_x
 _atom_site_fract_y
 _atom_site_fract_z
 _atom_site_occupancy
  Na  Na0  1  0.76239462  0.18525114  0.84754362  1
  Na  Na1  1  0.79036846  0.67202241  0.84558810  1
  As  As0  1  0.27621633  0.93498436  0.34995654  1
  H  H0  1  0.27913559  0.71964709  0.30923774  1
loop_
_geom_bond_atom_site_label_1
_geom_bond_atom_site_label_2
_geom_bond_distance
_geom_bond_site_symmetry_2
As0 H0 1.538388 1_555
As0 Na1 3.011804 1_555
As0 Na0 3.013326 1_465
As0 Na1 3.016267 1_464
As0 Na0 3.016910 1_564
H0 Na1 2.504024 1_554
H0 Na0 2.513870 1_464
H0 Na0 2.628283 1_555
H0 Na1 2.637578 1_455
