# generated using pymatgen
data_Hf4ScTe8
_symmetry_space_group_name_H-M   'P 1'
_cell_length_a   7.94126907
_cell_length_b   7.94126953
_cell_length_c   9.77960333
_cell_angle_alpha   52.61823434
_cell_angle_beta   52.61822936
_cell_angle_gamma   60.90196944
_symmetry_Int_Tables_number   1
_chemical_formula_structural   Hf4ScTe8
_chemical_formula_sum   'Hf4 Sc1 Te8'
_cell_volume   382.58329884
_cell_formula_units_Z   1
loop_
 _symmetry_equiv_pos_site_id
 _symmetry_equiv_pos_as_xyz
  1  'x, y, z'
loop_
 _atom_site_type_symbol
 _atom_site_label
 _atom_site_symmetry_multiplicity
 _atom_site_fract_x
 _atom_site_fract_y
 _atom_site_fract_z
 _atom_site_occupancy
  Hf  Hf0  1  0.24064787  0.24064787  0.01152563  1
  Hf  Hf1  1  0.75935213  0.75935213  0.98847437  1
  Hf  Hf2  1  0.23281892  0.76718108  0.50000000  1
  Hf  Hf3  1  0.76718108  0.23281892  0.50000000  1
  Sc  Sc0  1  0.00000000  0.00000000  0.00000000  1
  Te  Te0  1  0.29767128  0.29767128  0.66162330  1
  Te  Te1  1  0.78421182  0.78421182  0.67077352  1
  Te  Te2  1  0.29421771  0.77974334  0.17075981  1
  Te  Te3  1  0.77974334  0.29421771  0.17075981  1
  Te  Te4  1  0.22025666  0.70578229  0.82924019  1
  Te  Te5  1  0.70578229  0.22025666  0.82924019  1
  Te  Te6  1  0.21578818  0.21578818  0.32922648  1
  Te  Te7  1  0.70232872  0.70232872  0.33837670  1
loop_
_geom_bond_atom_site_label_1
_geom_bond_atom_site_label_2
_geom_bond_distance
_geom_bond_site_symmetry_2
Hf0 Te6 2.877439 1_555
Hf0 Te3 2.893414 1_455
Hf0 Te2 2.893415 1_545
Hf0 Te0 2.925046 1_554
Hf0 Te5 2.936193 1_554
Hf0 Te4 2.936193 1_554
Hf1 Te1 2.877439 1_555
Hf1 Te4 2.893414 1_655
Hf1 Te5 2.893415 1_565
Hf1 Te7 2.925046 1_556
Hf1 Te2 2.936193 1_556
Hf1 Te3 2.936193 1_556
Hf2 Te1 2.842568 1_455
Hf2 Te6 2.842569 1_565
Hf2 Te2 2.892409 1_555
Hf2 Te4 2.892409 1_555
Hf2 Te7 2.937717 1_555
Hf2 Te0 2.937717 1_555
Hf3 Te6 2.842568 1_655
Hf3 Te1 2.842569 1_545
Hf3 Te5 2.892409 1_555
Hf3 Te3 2.892409 1_555
Hf3 Te0 2.937717 1_555
Hf3 Te7 2.937717 1_555
Sc0 Te3 2.919489 1_455
Sc0 Te4 2.919489 1_544
Sc0 Te2 2.919489 1_545
Sc0 Te5 2.919489 1_454
Sc0 Te0 2.926529 1_554
Sc0 Te7 2.926529 1_445
