# generated using pymatgen
data_Sm2Ti2O7
_symmetry_space_group_name_H-M   'P 1'
_cell_length_a   7.24151915
_cell_length_b   7.24151915
_cell_length_c   7.24151915
_cell_angle_alpha   60.00000000
_cell_angle_beta   60.00000000
_cell_angle_gamma   60.00000000
_symmetry_Int_Tables_number   1
_chemical_formula_structural   Sm2Ti2O7
_chemical_formula_sum   'Sm4 Ti4 O14'
_cell_volume   268.51840166
_cell_formula_units_Z   2
loop_
 _symmetry_equiv_pos_site_id
 _symmetry_equiv_pos_as_xyz
  1  'x, y, z'
loop_
 _atom_site_type_symbol
 _atom_site_label
 _atom_site_symmetry_multiplicity
 _atom_site_fract_x
 _atom_site_fract_y
 _atom_site_fract_z
 _atom_site_occupancy
  Sm  Sm0  1  0.12500000  0.12500000  0.62500000  1
  Sm  Sm1  1  0.12500000  0.62500000  0.12500000  1
  Sm  Sm2  1  0.62500000  0.12500000  0.12500000  1
  Sm  Sm3  1  0.12500000  0.12500000  0.12500000  1
  Ti  Ti0  1  0.62500000  0.62500000  0.12500000  1
  Ti  Ti1  1  0.62500000  0.12500000  0.62500000  1
  Ti  Ti2  1  0.12500000  0.62500000  0.62500000  1
  Ti  Ti3  1  0.62500000  0.62500000  0.62500000  1
  O  O0  1  0.25000000  0.25000000  0.25000000  1
  O  O1  1  0.00000000  -0.00000000  0.00000000  1
  O  O2  1  0.54828855  0.95171145  0.54828855  1
  O  O3  1  0.29828855  0.70171145  0.29828855  1
  O  O4  1  0.54828855  0.54828855  0.95171145  1
  O  O5  1  0.95171145  0.54828855  0.54828855  1
  O  O6  1  0.54828855  0.95171145  0.95171145  1
  O  O7  1  0.95171145  0.95171145  0.54828855  1
  O  O8  1  0.95171145  0.54828855  0.95171145  1
  O  O9  1  0.70171145  0.29828855  0.29828855  1
  O  O10  1  0.29828855  0.70171145  0.70171145  1
  O  O11  1  0.70171145  0.29828855  0.70171145  1
  O  O12  1  0.29828855  0.29828855  0.70171145  1
  O  O13  1  0.70171145  0.70171145  0.29828855  1
loop_
_geom_bond_atom_site_label_1
_geom_bond_atom_site_label_2
_geom_bond_distance
_geom_bond_site_symmetry_2
O0 Sm0 2.217253 1_555
O0 Sm3 2.217253 1_555
O0 Sm2 2.217253 1_555
O0 Sm1 2.217253 1_555
O1 Sm3 2.217253 1_555
O1 Sm0 2.217253 1_554
O1 Sm2 2.217253 1_455
O1 Sm1 2.217253 1_545
O2 Ti1 1.973487 1_565
O2 Ti3 1.973487 1_555
O2 Sm2 2.535130 1_565
O2 Sm0 2.535130 1_565
O3 Ti0 1.973487 1_555
O3 Ti2 1.973487 1_555
O3 Sm1 2.535130 1_555
O3 Sm3 2.535130 1_565
O4 Ti0 1.973487 1_556
O4 Ti3 1.973487 1_555
O4 Sm2 2.535130 1_556
O4 Sm1 2.535130 1_556
O5 Ti2 1.973487 1_655
O5 Ti3 1.973487 1_555
O5 Sm1 2.535130 1_655
O5 Sm0 2.535130 1_655
O6 Ti0 1.973487 1_556
O6 Ti1 1.973487 1_565
O6 Sm2 2.535130 1_566
O6 Sm3 2.535130 1_566
O7 Ti1 1.973487 1_565
O7 Ti2 1.973487 1_655
O7 Sm3 2.535130 1_665
O7 Sm0 2.535130 1_665
O8 Ti0 1.973487 1_556
O8 Ti2 1.973487 1_655
O8 Sm3 2.535130 1_656
O8 Sm1 2.535130 1_656
O9 Ti0 1.973487 1_555
O9 Ti1 1.973487 1_555
O9 Sm3 2.535130 1_655
O9 Sm2 2.535130 1_555
O10 Ti2 1.973487 1_555
O10 Ti3 1.973487 1_555
O10 Sm1 2.535130 1_556
O10 Sm0 2.535130 1_565
O11 Ti1 1.973487 1_555
O11 Ti3 1.973487 1_555
O11 Sm2 2.535130 1_556
O11 Sm0 2.535130 1_655
O12 Ti2 1.973487 1_555
O12 Ti1 1.973487 1_555
O12 Sm0 2.535130 1_555
O12 Sm3 2.535130 1_556
O13 Ti0 1.973487 1_555
O13 Ti3 1.973487 1_555
O13 Sm1 2.535130 1_655
O13 Sm2 2.535130 1_565
