# generated using pymatgen
data_Li4B4IrRh3
_symmetry_space_group_name_H-M   'P 1'
_cell_length_a   6.92378882
_cell_length_b   6.02396989
_cell_length_c   5.49732437
_cell_angle_alpha   73.71713356
_cell_angle_beta   56.63059986
_cell_angle_gamma   49.72957960
_symmetry_Int_Tables_number   1
_chemical_formula_structural   Li4B4IrRh3
_chemical_formula_sum   'Li4 B4 Ir1 Rh3'
_cell_volume   145.08470069
_cell_formula_units_Z   1
loop_
 _symmetry_equiv_pos_site_id
 _symmetry_equiv_pos_as_xyz
  1  'x, y, z'
loop_
 _atom_site_type_symbol
 _atom_site_label
 _atom_site_symmetry_multiplicity
 _atom_site_fract_x
 _atom_site_fract_y
 _atom_site_fract_z
 _atom_site_occupancy
  Li  Li0  1  0.12533482  0.62563703  0.62599517  1
  Li  Li1  1  0.62110626  0.62587720  0.62700553  1
  Li  Li2  1  0.62587720  0.62110626  0.12601101  1
  Li  Li3  1  0.62563703  0.12533482  0.62303398  1
  B  B0  1  0.42781823  0.07005235  0.42150361  1
  B  B1  1  0.17818163  0.82328781  0.17561295  1
  B  B2  1  0.07005235  0.42781823  0.08062581  1
  B  B3  1  0.82328781  0.17818163  0.82291762  1
  Ir  Ir0  1  0.11721516  0.11721516  0.38278484  1
  Rh  Rh0  1  0.38308944  0.38308944  0.11691056  1
  Rh  Rh1  1  0.86859967  0.86859967  0.13140033  1
  Rh  Rh2  1  0.13380140  0.13380140  0.86619860  1
loop_
_geom_bond_atom_site_label_1
_geom_bond_atom_site_label_2
_geom_bond_distance
_geom_bond_site_symmetry_2
Li0 Rh1 2.550521 1_456
Li0 Rh0 2.565073 1_555
Li1 Rh2 2.550340 1_565
Li2 Rh2 2.550340 1_654
Li3 Rh1 2.550526 1_545
Li3 Rh0 2.565068 1_556
B0 Rh1 2.067159 1_545
B0 Rh2 2.075822 1_555
B0 Ir0 2.104910 1_555
B0 Rh0 2.121436 1_555
B0 Li1 2.359120 1_545
B0 Li3 2.383290 1_555
B0 Li2 2.655506 1_545
B0 Li0 2.703584 1_555
B1 Ir0 2.060584 1_565
B1 Rh0 2.064280 1_555
B1 Rh1 2.123113 1_455
B1 Rh2 2.129383 1_564
B1 Li2 2.354127 1_555
B1 Li0 2.365404 1_555
B1 Li1 2.652640 1_554
B1 Li3 2.674978 1_465
B2 Rh1 2.067158 1_455
B2 Rh2 2.075822 1_554
B2 Ir0 2.104910 1_555
B2 Rh0 2.121436 1_555
B2 Li2 2.359120 1_455
B2 Li0 2.383285 1_554
B2 Li1 2.655506 1_455
B2 Li3 2.703583 1_554
B3 Ir0 2.060584 1_655
B3 Rh0 2.064281 1_556
B3 Rh1 2.123113 1_546
B3 Rh2 2.129384 1_655
B3 Li1 2.354126 1_555
B3 Li3 2.365400 1_555
B3 Li2 2.652639 1_556
B3 Li0 2.674975 1_645
Ir0 Li1 2.572402 1_455
Ir0 Li2 2.572402 1_545
