# generated using pymatgen
data_Li12AsRuN8
_symmetry_space_group_name_H-M   'P 1'
_cell_length_a   6.53119045
_cell_length_b   6.53119045
_cell_length_c   4.85187818
_cell_angle_alpha   90.00000000
_cell_angle_beta   90.00000000
_cell_angle_gamma   90.00000000
_symmetry_Int_Tables_number   1
_chemical_formula_structural   Li12AsRuN8
_chemical_formula_sum   'Li12 As1 Ru1 N8'
_cell_volume   206.96389278
_cell_formula_units_Z   1
loop_
 _symmetry_equiv_pos_site_id
 _symmetry_equiv_pos_as_xyz
  1  'x, y, z'
loop_
 _atom_site_type_symbol
 _atom_site_label
 _atom_site_symmetry_multiplicity
 _atom_site_fract_x
 _atom_site_fract_y
 _atom_site_fract_z
 _atom_site_occupancy
  Li  Li0  1  0.00000000  0.50000000  0.58387164  1
  Li  Li1  1  0.50000000  0.00000000  0.89465794  1
  Li  Li2  1  0.50000000  0.00000000  0.41612836  1
  Li  Li3  1  0.00000000  0.50000000  0.10534206  1
  Li  Li4  1  0.22032490  0.22032490  0.50000000  1
  Li  Li5  1  0.77967510  0.77967510  0.50000000  1
  Li  Li6  1  0.70788158  0.70788158  0.00000000  1
  Li  Li7  1  0.29211842  0.29211842  0.00000000  1
  Li  Li8  1  0.77967510  0.22032490  0.50000000  1
  Li  Li9  1  0.22032490  0.77967510  0.50000000  1
  Li  Li10  1  0.29211842  0.70788158  0.00000000  1
  Li  Li11  1  0.70788158  0.29211842  0.00000000  1
  As  As0  1  0.50000000  0.50000000  0.50000000  1
  Ru  Ru0  1  0.00000000  0.00000000  0.00000000  1
  N  N0  1  0.25812793  0.50000000  0.30903180  1
  N  N1  1  0.74187207  0.50000000  0.30903180  1
  N  N2  1  0.75908668  0.00000000  0.19073897  1
  N  N3  1  0.24091332  0.00000000  0.19073897  1
  N  N4  1  0.50000000  0.25812793  0.69096820  1
  N  N5  1  0.50000000  0.74187207  0.69096820  1
  N  N6  1  0.00000000  0.75908668  0.80926103  1
  N  N7  1  0.00000000  0.24091332  0.80926103  1
loop_
_geom_bond_atom_site_label_1
_geom_bond_atom_site_label_2
_geom_bond_distance
_geom_bond_site_symmetry_2
Li0 N7 2.014753 1_555
Li0 N6 2.014753 1_555
Li0 N0 2.149510 1_555
Li0 N1 2.149510 1_455
Li1 N4 1.954199 1_555
Li1 N5 1.954199 1_545
Li1 N3 2.219691 1_556
Li1 N2 2.219691 1_556
Li2 N3 2.014753 1_555
Li2 N2 2.014753 1_555
Li2 N4 2.149510 1_555
Li2 N5 2.149510 1_545
Li3 N0 1.954199 1_555
Li3 N1 1.954199 1_455
Li3 N7 2.219691 1_554
Li3 N6 2.219691 1_554
Li4 N4 2.063000 1_555
Li4 N0 2.063000 1_555
Li4 N7 2.083326 1_555
Li4 N3 2.083326 1_555
Li5 N5 2.063000 1_555
Li5 N1 2.063000 1_555
Li5 N6 2.083326 1_655
Li5 N2 2.083326 1_565
Li6 N1 2.034902 1_555
Li6 N5 2.034902 1_554
Li6 N2 2.146694 1_565
Li6 N6 2.146694 1_654
Li7 N0 2.034902 1_555
Li7 N4 2.034902 1_554
Li7 N3 2.146694 1_555
Li7 N7 2.146694 1_554
Li8 N4 2.063000 1_555
Li8 N1 2.063000 1_555
Li8 N2 2.083326 1_555
Li8 N7 2.083326 1_655
Li9 N0 2.063000 1_555
Li9 N5 2.063000 1_555
Li9 N6 2.083326 1_555
Li9 N3 2.083326 1_565
Li10 N0 2.034902 1_555
Li10 N5 2.034902 1_554
Li10 N6 2.146694 1_554
Li10 N3 2.146694 1_565
Li11 N4 2.034902 1_554
Li11 N1 2.034902 1_555
Li11 N2 2.146694 1_555
Li11 N7 2.146694 1_654
As0 N5 1.831392 1_555
As0 N1 1.831392 1_555
As0 N4 1.831392 1_555
As0 N0 1.831392 1_555
N2 Ru0 1.825429 1_655
N3 Ru0 1.825429 1_555
N6 Ru0 1.825429 1_566
N7 Ru0 1.825429 1_556
