# generated using pymatgen
data_V10Si5As
_symmetry_space_group_name_H-M   'P 1'
_cell_length_a   7.04168556
_cell_length_b   7.04168596
_cell_length_c   7.02861314
_cell_angle_alpha   96.45052468
_cell_angle_beta   96.45052117
_cell_angle_gamma   140.87098464
_symmetry_Int_Tables_number   1
_chemical_formula_structural   V10Si5As
_chemical_formula_sum   'V10 Si5 As1'
_cell_volume   207.19081270
_cell_formula_units_Z   1
loop_
 _symmetry_equiv_pos_site_id
 _symmetry_equiv_pos_as_xyz
  1  'x, y, z'
loop_
 _atom_site_type_symbol
 _atom_site_label
 _atom_site_symmetry_multiplicity
 _atom_site_fract_x
 _atom_site_fract_y
 _atom_site_fract_z
 _atom_site_occupancy
  V  V0  1  0.57367002  0.27746413  0.85113515  1
  V  V1  1  0.25023398  0.75023398  0.49628401  1
  V  V2  1  0.07489702  0.22508664  0.29998366  1
  V  V3  1  0.92409246  0.77634717  0.70043963  1
  V  V4  1  0.74605003  0.24605003  0.49628401  1
  V  V5  1  0.72508664  0.57489702  0.29998366  1
  V  V6  1  0.42668769  0.72462124  0.15130793  1
  V  V7  1  0.77746413  0.07367002  0.85113515  1
  V  V8  1  0.27634717  0.42409246  0.70043963  1
  V  V9  1  0.22462124  0.92668769  0.15130793  1
  Si  Si0  1  0.25044286  0.25044286  0.00088671  1
  Si  Si1  1  0.66624152  0.83403799  0.50027951  1
  Si  Si2  1  0.83403296  0.33403296  0.16806492  1
  Si  Si3  1  0.75044286  0.75044286  0.00088671  1
  Si  Si4  1  0.33403799  0.16624152  0.50027951  1
  As  As0  1  0.16565042  0.66565042  0.83130084  1
loop_
_geom_bond_atom_site_label_1
_geom_bond_atom_site_label_2
_geom_bond_distance
_geom_bond_site_symmetry_2
V1 V4 2.338303 1_565
V1 V4 2.377767 1_455
Si0 Si3 2.358035 1_445
Si0 Si3 2.358035 1_555
Si0 V7 2.497179 1_454
Si0 V0 2.497179 1_554
Si0 V9 2.507967 1_545
Si0 V6 2.507971 1_555
Si0 V2 2.511001 1_555
Si0 V5 2.511002 1_555
Si0 V3 2.511682 1_444
Si0 V8 2.511685 1_554
Si1 V6 2.466700 1_555
Si1 V7 2.474419 1_565
Si1 V3 2.477877 1_555
Si1 V5 2.492074 1_555
Si1 V1 2.495231 1_555
Si1 V4 2.495231 1_565
Si1 V2 2.707916 1_555
Si1 V2 2.707917 1_665
Si1 V8 2.708224 1_665
Si1 V8 2.708225 1_555
Si2 V1 2.477163 1_655
Si2 V4 2.477166 1_555
Si2 V5 2.479953 1_555
Si2 V2 2.479953 1_655
Si2 V7 2.496406 1_554
Si2 V0 2.496406 1_554
Si2 V9 2.714814 1_545
Si2 V6 2.714814 1_655
Si2 V6 2.714814 1_545
Si2 V9 2.714815 1_655
Si3 V0 2.497179 1_554
Si3 V7 2.497179 1_564
Si3 V6 2.507967 1_555
Si3 V9 2.507971 1_655
Si3 V5 2.511001 1_555
Si3 V2 2.511002 1_665
Si3 V8 2.511682 1_554
Si3 V3 2.511685 1_554
Si4 V9 2.466700 1_545
Si4 V0 2.474419 1_555
Si4 V8 2.477877 1_555
Si4 V2 2.492074 1_555
Si4 V4 2.495231 1_555
Si4 V1 2.495231 1_545
Si4 V5 2.707916 1_445
Si4 V5 2.707917 1_555
Si4 V3 2.708224 1_555
Si4 V3 2.708225 1_445
As0 V8 2.492696 1_555
As0 V3 2.492696 1_455
As0 V9 2.507410 1_556
As0 V6 2.507410 1_556
As0 V4 2.516744 1_455
As0 V1 2.516744 1_555
As0 V7 2.721399 1_565
As0 V0 2.721399 1_565
As0 V0 2.721403 1_455
As0 V7 2.721403 1_455
