# generated using pymatgen
data_Sc5(SnSb)2
_symmetry_space_group_name_H-M   'P 1'
_cell_length_a   8.22085916
_cell_length_b   8.22086021
_cell_length_c   7.72842609
_cell_angle_alpha   90.00000000
_cell_angle_beta   90.00000000
_cell_angle_gamma   123.94871270
_symmetry_Int_Tables_number   1
_chemical_formula_structural   Sc5(SnSb)2
_chemical_formula_sum   'Sc10 Sn4 Sb4'
_cell_volume   433.27307866
_cell_formula_units_Z   2
loop_
 _symmetry_equiv_pos_site_id
 _symmetry_equiv_pos_as_xyz
  1  'x, y, z'
loop_
 _atom_site_type_symbol
 _atom_site_label
 _atom_site_symmetry_multiplicity
 _atom_site_fract_x
 _atom_site_fract_y
 _atom_site_fract_z
 _atom_site_occupancy
  Sc  Sc0  1  0.02824048  0.29760448  0.33719693  1
  Sc  Sc1  1  0.97175952  0.70239552  0.66280307  1
  Sc  Sc2  1  0.47175952  0.20239552  0.83719693  1
  Sc  Sc3  1  0.79760448  0.52824048  0.16280307  1
  Sc  Sc4  1  0.52824048  0.79760448  0.16280307  1
  Sc  Sc5  1  0.20239552  0.47175952  0.83719693  1
  Sc  Sc6  1  0.70239552  0.97175952  0.66280307  1
  Sc  Sc7  1  0.29760448  0.02824048  0.33719693  1
  Sc  Sc8  1  0.00000000  0.00000000  0.00000000  1
  Sc  Sc9  1  0.50000000  0.50000000  0.50000000  1
  Sn  Sn0  1  0.36013995  0.36013995  0.13866879  1
  Sn  Sn1  1  0.63986005  0.63986005  0.86133121  1
  Sn  Sn2  1  0.13986005  0.13986005  0.63866879  1
  Sn  Sn3  1  0.86013995  0.86013995  0.36133121  1
  Sb  Sb0  1  0.79669455  0.20330545  0.00000000  1
  Sb  Sb1  1  0.20330545  0.79669455  0.00000000  1
  Sb  Sb2  1  0.70330545  0.29669455  0.50000000  1
  Sb  Sb3  1  0.29669455  0.70330545  0.50000000  1
loop_
_geom_bond_atom_site_label_1
_geom_bond_atom_site_label_2
_geom_bond_distance
_geom_bond_site_symmetry_2
Sc0 Sn0 2.914862 1_555
Sc0 Sn2 3.046504 1_555
Sc0 Sn3 3.054059 1_445
Sc1 Sn1 2.914862 1_555
Sc1 Sn3 3.046504 1_555
Sc1 Sn2 3.054059 1_665
Sc2 Sn2 2.914862 1_555
Sc2 Sn0 3.046504 1_556
Sc2 Sn1 3.054059 1_555
Sc3 Sn3 2.914862 1_555
Sc3 Sn1 3.046504 1_554
Sc3 Sn0 3.054058 1_555
Sc4 Sn3 2.914862 1_555
Sc4 Sn1 3.046504 1_554
Sc4 Sn0 3.054059 1_555
Sc5 Sn2 2.914862 1_555
Sc5 Sn0 3.046504 1_556
Sc5 Sn1 3.054058 1_555
Sc6 Sn1 2.914862 1_555
Sc6 Sn3 3.046504 1_555
Sc6 Sn2 3.054058 1_665
Sc7 Sn0 2.914862 1_555
Sc7 Sn2 3.046504 1_555
Sc7 Sn3 3.054058 1_445
Sc8 Sn0 2.981498 1_555
Sc8 Sn1 2.981498 1_444
Sc8 Sn3 2.994262 1_445
Sc8 Sn2 2.994262 1_554
Sc9 Sn3 2.981498 1_555
Sc9 Sn2 2.981498 1_555
Sc9 Sn1 2.994262 1_555
Sc9 Sn0 2.994262 1_555
Sb0 Sc2 2.948963 1_554
Sb0 Sc3 2.948964 1_555
Sb0 Sc8 2.950718 1_655
Sb0 Sc5 3.058795 1_654
Sb0 Sc4 3.058795 1_545
Sb0 Sc0 3.060622 1_655
Sb0 Sc6 3.060622 1_544
Sb1 Sc4 2.948963 1_555
Sb1 Sc5 2.948964 1_554
Sb1 Sc8 2.950718 1_565
Sb1 Sc3 3.058795 1_455
Sb1 Sc2 3.058795 1_564
Sb1 Sc1 3.060622 1_454
Sb1 Sc7 3.060622 1_565
Sb2 Sc0 2.948963 1_655
Sb2 Sc6 2.948964 1_545
Sb2 Sc9 2.950718 1_555
Sb2 Sc7 3.058795 1_555
Sb2 Sc1 3.058795 1_555
Sb2 Sc2 3.060622 1_555
Sb2 Sc3 3.060622 1_555
Sb3 Sc1 2.948963 1_455
Sb3 Sc7 2.948964 1_565
Sb3 Sc9 2.950718 1_555
Sb3 Sc6 3.058795 1_555
Sb3 Sc0 3.058795 1_555
Sb3 Sc4 3.060622 1_555
Sb3 Sc5 3.060622 1_555
