# generated using pymatgen
data_CsBi(SeO4)2
_symmetry_space_group_name_H-M   'P 1'
_cell_length_a   5.33305196
_cell_length_b   5.33305210
_cell_length_c   9.26820761
_cell_angle_alpha   90.00000000
_cell_angle_beta   90.00000000
_cell_angle_gamma   119.99999478
_symmetry_Int_Tables_number   1
_chemical_formula_structural   CsBi(SeO4)2
_chemical_formula_sum   'Cs1 Bi1 Se2 O8'
_cell_volume   228.28535411
_cell_formula_units_Z   1
loop_
 _symmetry_equiv_pos_site_id
 _symmetry_equiv_pos_as_xyz
  1  'x, y, z'
loop_
 _atom_site_type_symbol
 _atom_site_label
 _atom_site_symmetry_multiplicity
 _atom_site_fract_x
 _atom_site_fract_y
 _atom_site_fract_z
 _atom_site_occupancy
  Cs  Cs0  1  0.00000000  0.00000000  0.50000100  1
  Bi  Bi0  1  0.00000000  0.00000000  0.00000000  1
  Se  Se0  1  0.33333400  0.66666800  0.21902139  1
  Se  Se1  1  0.66666600  0.33333400  0.78097861  1
  O  O0  1  0.04848097  0.36568472  0.15695170  1
  O  O1  1  0.63431628  0.68279725  0.15695170  1
  O  O2  1  0.31720275  0.95151803  0.15695170  1
  O  O3  1  0.33333400  0.66666800  0.39450336  1
  O  O4  1  0.66666600  0.33333400  0.60549664  1
  O  O5  1  0.68279625  0.04848097  0.84304830  1
  O  O6  1  0.36568572  0.31720475  0.84304830  1
  O  O7  1  0.95151703  0.63431428  0.84304830  1
loop_
_geom_bond_atom_site_label_1
_geom_bond_atom_site_label_2
_geom_bond_distance
_geom_bond_site_symmetry_2
Cs0 O4 3.230552 1_555
Cs0 O4 3.230552 1_445
Cs0 O3 3.230558 1_545
Cs0 O3 3.230558 1_445
Cs0 O4 3.230561 1_455
Cs0 O3 3.230567 1_555
Cs0 O5 3.670798 1_455
Cs0 O7 3.670798 1_445
Cs0 O6 3.670801 1_555
Cs0 O1 3.670811 1_445
Cs0 O2 3.670813 1_545
Cs0 O0 3.670814 1_555
Bi0 O1 2.341362 1_445
Bi0 O2 2.341365 1_545
Bi0 O5 2.341366 1_454
Bi0 O0 2.341367 1_555
Bi0 O7 2.341367 1_444
Bi0 O6 2.341371 1_554
O0 Se0 1.666372 1_555
O1 Se0 1.666370 1_555
O2 Se0 1.666360 1_555
O3 Se0 1.626403 1_555
O4 Se1 1.626403 1_555
O5 Se1 1.666372 1_555
O6 Se1 1.666360 1_555
O7 Se1 1.666360 1_555
