# generated using pymatgen
data_SrCrP2Os
_symmetry_space_group_name_H-M   'P 1'
_cell_length_a   6.53852239
_cell_length_b   6.53852271
_cell_length_c   6.53852272
_cell_angle_alpha   144.63836110
_cell_angle_beta   144.63836586
_cell_angle_gamma   50.87377522
_symmetry_Int_Tables_number   1
_chemical_formula_structural   SrCrP2Os
_chemical_formula_sum   'Sr1 Cr1 P2 Os1'
_cell_volume   93.14186147
_cell_formula_units_Z   1
loop_
 _symmetry_equiv_pos_site_id
 _symmetry_equiv_pos_as_xyz
  1  'x, y, z'
loop_
 _atom_site_type_symbol
 _atom_site_label
 _atom_site_symmetry_multiplicity
 _atom_site_fract_x
 _atom_site_fract_y
 _atom_site_fract_z
 _atom_site_occupancy
  Sr  Sr0  1  0.00000000  0.00000000  0.00000000  1
  Cr  Cr0  1  0.75000000  0.25000000  0.50000000  1
  P  P0  1  0.35548541  0.35548541  1.00000000  1
  P  P1  1  0.64451459  0.64451459  0.00000000  1
  Os  Os0  1  0.25000000  0.75000000  0.50000000  1
loop_
_geom_bond_atom_site_label_1
_geom_bond_atom_site_label_2
_geom_bond_distance
_geom_bond_site_symmetry_2
Cr0 P0 2.344220 1_655
Cr0 P0 2.344220 1_554
Cr0 P1 2.344220 1_545
Cr0 P1 2.344220 1_556
Cr0 Os0 2.808404 1_544
Cr0 Os0 2.808404 1_656
Cr0 Os0 2.808404 1_645
Cr0 Os0 2.808404 1_555
P0 Sr0 3.286289 1_667
P0 Sr0 3.286289 1_656
P0 Sr0 3.286289 1_555
P0 Sr0 3.286289 1_566
P1 Sr0 3.286289 1_554
P1 Sr0 3.286289 1_565
P1 Sr0 3.286289 1_666
P1 Sr0 3.286289 1_655
Os0 P1 2.344220 1_455
Os0 P1 2.344220 1_556
Os0 P0 2.344220 1_565
Os0 P0 2.344220 1_554
Os0 Sr0 3.558068 1_666
Os0 Sr0 3.558069 1_555
Os0 Sr0 3.558069 1_565
Os0 Sr0 3.558069 1_566
