# generated using pymatgen
data_Ca16Al5In
_symmetry_space_group_name_H-M   'P 1'
_cell_length_a   9.49271557
_cell_length_b   9.58926728
_cell_length_c   9.63925493
_cell_angle_alpha   98.94969363
_cell_angle_beta   101.11215830
_cell_angle_gamma   119.83212943
_symmetry_Int_Tables_number   1
_chemical_formula_structural   Ca16Al5In
_chemical_formula_sum   'Ca16 Al5 In1'
_cell_volume   713.57110600
_cell_formula_units_Z   1
loop_
 _symmetry_equiv_pos_site_id
 _symmetry_equiv_pos_as_xyz
  1  'x, y, z'
loop_
 _atom_site_type_symbol
 _atom_site_label
 _atom_site_symmetry_multiplicity
 _atom_site_fract_x
 _atom_site_fract_y
 _atom_site_fract_z
 _atom_site_occupancy
  Ca  Ca0  1  0.92080792  0.77027632  0.39369680  1
  Ca  Ca1  1  0.70181371  0.49873160  0.61001712  1
  Ca  Ca2  1  0.46819110  0.29975105  0.84946680  1
  Ca  Ca3  1  0.53180890  0.70024895  0.15053320  1
  Ca  Ca4  1  0.11881134  0.59685796  0.85118989  1
  Ca  Ca5  1  0.29818629  0.50126840  0.38998288  1
  Ca  Ca6  1  0.33280757  0.87787420  0.60824628  1
  Ca  Ca7  1  0.07919208  0.22972368  0.60630320  1
  Ca  Ca8  1  0.66719243  0.12212580  0.39175372  1
  Ca  Ca9  1  0.88118866  0.40314204  0.14881011  1
  Ca  Ca10  1  0.45654329  0.29127363  0.20353897  1
  Ca  Ca11  1  0.77551732  0.15285030  0.79906141  1
  Ca  Ca12  1  0.04030724  0.93930278  0.83098477  1
  Ca  Ca13  1  0.95969276  0.06069722  0.16901523  1
  Ca  Ca14  1  0.54345671  0.70872637  0.79646103  1
  Ca  Ca15  1  0.22448268  0.84714970  0.20093859  1
  Al  Al0  1  0.82684562  0.66315232  0.00019353  1
  Al  Al1  1  0.67660810  0.84028868  0.52672938  1
  Al  Al2  1  0.00000000  0.50000000  0.50000000  1
  Al  Al3  1  0.17315438  0.33684768  0.99980647  1
  Al  Al4  1  0.32339190  0.15971132  0.47327062  1
  In  In0  1  0.50000000  0.00000000  0.00000000  1
loop_
_geom_bond_atom_site_label_1
_geom_bond_atom_site_label_2
_geom_bond_distance
_geom_bond_site_symmetry_2
Ca2 In0 3.528614 1_556
Ca3 In0 3.528614 1_565
Ca4 In0 3.528786 1_566
Ca6 In0 3.551740 1_566
Ca8 In0 3.551740 1_555
Ca9 In0 3.528786 1_555
Ca10 In0 3.402091 1_555
Ca11 In0 3.429612 1_556
Ca14 In0 3.402091 1_566
Ca15 In0 3.429612 1_565
Al0 Ca2 3.249589 1_554
Al0 Ca15 3.256011 1_655
Al0 Ca9 3.262060 1_555
Al0 Ca14 3.268753 1_554
Al0 Ca12 3.325330 1_654
Al0 Ca13 3.356615 1_565
Al0 Ca3 3.530698 1_555
Al0 Ca1 3.551383 1_554
Al0 Ca0 3.579139 1_555
Al0 Ca4 3.626543 1_654
Al1 Ca0 3.145657 1_555
Al1 Ca8 3.208490 1_565
Al1 Ca5 3.230026 1_555
Al1 Ca11 3.249324 1_565
Al1 Ca14 3.263447 1_555
Al1 Ca3 3.401398 1_555
Al1 Ca7 3.594265 1_665
Al1 Ca1 3.599033 1_555
Al1 Ca12 3.659473 1_655
Al1 Ca6 3.670022 1_555
Al2 Ca4 3.178392 1_555
Al2 Ca9 3.178392 1_455
Al2 Ca1 3.203731 1_455
Al2 Ca5 3.203731 1_555
Al2 Ca6 3.219175 1_555
Al2 Ca8 3.219175 1_455
Al2 Ca0 3.286350 1_455
Al2 Ca7 3.286350 1_555
Al3 Ca3 3.249589 1_556
Al3 Ca11 3.256011 1_455
Al3 Ca4 3.262060 1_555
Al3 Ca10 3.268753 1_556
Al3 Ca13 3.325330 1_456
Al3 Ca12 3.356615 1_545
Al3 Ca2 3.530698 1_555
Al3 Ca5 3.551383 1_556
Al3 Ca7 3.579139 1_555
Al3 Ca9 3.626543 1_456
Al4 Ca7 3.145657 1_555
Al4 Ca6 3.208490 1_545
Al4 Ca1 3.230026 1_555
Al4 Ca15 3.249324 1_545
Al4 Ca10 3.263447 1_555
Al4 Ca2 3.401398 1_555
Al4 Ca0 3.594265 1_445
Al4 Ca5 3.599033 1_555
Al4 Ca13 3.659473 1_455
Al4 Ca8 3.670022 1_555
