# generated using pymatgen
data_Ba3CaHfSe6
_symmetry_space_group_name_H-M   'P 1'
_cell_length_a   8.76702294
_cell_length_b   8.76702351
_cell_length_c   8.76702414
_cell_angle_alpha   92.03963221
_cell_angle_beta   92.03962546
_cell_angle_gamma   92.03963529
_symmetry_Int_Tables_number   1
_chemical_formula_structural   Ba3CaHfSe6
_chemical_formula_sum   'Ba6 Ca2 Hf2 Se12'
_cell_volume   672.52759195
_cell_formula_units_Z   2
loop_
 _symmetry_equiv_pos_site_id
 _symmetry_equiv_pos_as_xyz
  1  'x, y, z'
loop_
 _atom_site_type_symbol
 _atom_site_label
 _atom_site_symmetry_multiplicity
 _atom_site_fract_x
 _atom_site_fract_y
 _atom_site_fract_z
 _atom_site_occupancy
  Ba  Ba0  1  0.87394051  0.62605949  0.25000000  1
  Ba  Ba1  1  0.25000000  0.87394051  0.62605949  1
  Ba  Ba2  1  0.62605949  0.25000000  0.87394051  1
  Ba  Ba3  1  0.75000000  0.12605949  0.37394051  1
  Ba  Ba4  1  0.37394051  0.75000000  0.12605949  1
  Ba  Ba5  1  0.12605949  0.37394051  0.75000000  1
  Ca  Ca0  1  0.25000000  0.25000000  0.25000000  1
  Ca  Ca1  1  0.75000000  0.75000000  0.75000000  1
  Hf  Hf0  1  0.50000000  0.50000000  0.50000000  1
  Hf  Hf1  1  0.00000000  0.00000000  0.00000000  1
  Se  Se0  1  0.20803851  0.54679546  0.41682751  1
  Se  Se1  1  0.41682751  0.20803851  0.54679546  1
  Se  Se2  1  0.54679546  0.41682751  0.20803851  1
  Se  Se3  1  0.91682751  0.04679546  0.70803851  1
  Se  Se4  1  0.70803851  0.91682751  0.04679546  1
  Se  Se5  1  0.04679546  0.70803851  0.91682751  1
  Se  Se6  1  0.79196149  0.45320454  0.58317249  1
  Se  Se7  1  0.58317249  0.79196149  0.45320454  1
  Se  Se8  1  0.45320454  0.58317249  0.79196149  1
  Se  Se9  1  0.08317249  0.95320454  0.29196149  1
  Se  Se10  1  0.29196149  0.08317249  0.95320454  1
  Se  Se11  1  0.95320454  0.29196149  0.08317249  1
loop_
_geom_bond_atom_site_label_1
_geom_bond_atom_site_label_2
_geom_bond_distance
_geom_bond_site_symmetry_2
Ba0 Se11 3.333712 1_555
Ba0 Se0 3.333712 1_655
Ba0 Se2 3.350887 1_555
Ba0 Se9 3.350887 1_655
Ba0 Se5 3.425183 1_654
Ba0 Se6 3.425183 1_555
Ba0 Se7 3.491449 1_555
Ba0 Se4 3.491449 1_555
Ba1 Se1 3.333712 1_565
Ba1 Se9 3.333713 1_555
Ba1 Se0 3.350887 1_555
Ba1 Se10 3.350887 1_565
Ba1 Se7 3.425183 1_555
Ba1 Se3 3.425183 1_465
Ba1 Se5 3.491449 1_555
Ba1 Se8 3.491449 1_555
Ba2 Se10 3.333712 1_555
Ba2 Se2 3.333712 1_556
Ba2 Se11 3.350887 1_556
Ba2 Se1 3.350888 1_555
Ba2 Se8 3.425183 1_555
Ba2 Se4 3.425183 1_546
Ba2 Se3 3.491449 1_555
Ba2 Se6 3.491449 1_555
Ba3 Se7 3.333712 1_545
Ba3 Se3 3.333713 1_555
Ba3 Se6 3.350887 1_555
Ba3 Se4 3.350887 1_545
Ba3 Se1 3.425183 1_555
Ba3 Se9 3.425183 1_645
Ba3 Se11 3.491449 1_555
Ba3 Se2 3.491449 1_555
Ba4 Se4 3.333712 1_555
Ba4 Se8 3.333712 1_554
Ba4 Se5 3.350887 1_554
Ba4 Se7 3.350888 1_555
Ba4 Se2 3.425183 1_555
Ba4 Se10 3.425183 1_564
Ba4 Se9 3.491449 1_555
Ba4 Se0 3.491449 1_555
Ba5 Se5 3.333712 1_555
Ba5 Se6 3.333712 1_455
Ba5 Se8 3.350887 1_555
Ba5 Se3 3.350887 1_455
Ba5 Se11 3.425183 1_456
Ba5 Se0 3.425183 1_555
Ba5 Se1 3.491449 1_555
Ba5 Se10 3.491449 1_555
Ca0 Se2 2.980015 1_555
Ca0 Se9 2.980015 1_545
Ca0 Se0 2.980015 1_555
Ca0 Se11 2.980015 1_455
Ca0 Se10 2.980015 1_554
Ca0 Se1 2.980015 1_555
Ca1 Se8 2.980015 1_555
Ca1 Se3 2.980015 1_565
Ca1 Se6 2.980015 1_555
Ca1 Se5 2.980015 1_655
Ca1 Se4 2.980015 1_556
Ca1 Se7 2.980015 1_555
Hf0 Se7 2.686060 1_555
Hf0 Se1 2.686060 1_555
Hf0 Se0 2.686060 1_555
Hf0 Se6 2.686060 1_555
Hf0 Se8 2.686060 1_555
Hf0 Se2 2.686060 1_555
Hf1 Se10 2.686060 1_554
Hf1 Se4 2.686060 1_445
Hf1 Se11 2.686060 1_455
Hf1 Se5 2.686060 1_544
Hf1 Se9 2.686060 1_545
Hf1 Se3 2.686060 1_454
