# generated using pymatgen
data_ScPbIO6
_symmetry_space_group_name_H-M   'P 1'
_cell_length_a   5.37517545
_cell_length_b   5.37517409
_cell_length_c   5.27038062
_cell_angle_alpha   90.00000000
_cell_angle_beta   90.00000000
_cell_angle_gamma   119.99999045
_symmetry_Int_Tables_number   1
_chemical_formula_structural   ScPbIO6
_chemical_formula_sum   'Sc1 Pb1 I1 O6'
_cell_volume   131.87359139
_cell_formula_units_Z   1
loop_
 _symmetry_equiv_pos_site_id
 _symmetry_equiv_pos_as_xyz
  1  'x, y, z'
loop_
 _atom_site_type_symbol
 _atom_site_label
 _atom_site_symmetry_multiplicity
 _atom_site_fract_x
 _atom_site_fract_y
 _atom_site_fract_z
 _atom_site_occupancy
  Sc  Sc0  1  0.33333300  0.66666600  0.50000000  1
  Pb  Pb0  1  0.66666700  0.33333300  0.00000000  1
  I  I0  1  0.00000000  0.00000000  0.50000000  1
  O  O0  1  0.02769589  0.30160965  0.29716244  1
  O  O1  1  0.69838935  0.72608624  0.29716244  1
  O  O2  1  0.27391376  0.97230311  0.29716244  1
  O  O3  1  0.27391276  0.30160965  0.70283756  1
  O  O4  1  0.02769589  0.72608624  0.70283756  1
  O  O5  1  0.69839035  0.97230311  0.70283756  1
loop_
_geom_bond_atom_site_label_1
_geom_bond_atom_site_label_2
_geom_bond_distance
_geom_bond_site_symmetry_2
I0 O3 1.884659 1_555
I0 O5 1.884659 1_445
I0 O4 1.884660 1_545
I0 O0 1.884660 1_555
I0 O2 1.884663 1_545
I0 O1 1.884663 1_445
O0 Sc0 2.113885 1_555
O0 Pb0 2.564906 1_455
O1 Sc0 2.113884 1_555
O1 Pb0 2.564912 1_555
O2 Sc0 2.113885 1_555
O2 Pb0 2.564910 1_565
O3 Sc0 2.113883 1_555
O3 Pb0 2.564914 1_556
O4 Sc0 2.113888 1_555
O4 Pb0 2.564908 1_456
O5 Sc0 2.113889 1_555
O5 Pb0 2.564910 1_566
