# generated using pymatgen
data_TiHgF6
_symmetry_space_group_name_H-M   'P 1'
_cell_length_a   5.71519875
_cell_length_b   5.71519935
_cell_length_c   5.71519899
_cell_angle_alpha   54.44307385
_cell_angle_beta   54.44307483
_cell_angle_gamma   54.44307944
_symmetry_Int_Tables_number   1
_chemical_formula_structural   TiHgF6
_chemical_formula_sum   'Ti1 Hg1 F6'
_cell_volume   114.89686355
_cell_formula_units_Z   1
loop_
 _symmetry_equiv_pos_site_id
 _symmetry_equiv_pos_as_xyz
  1  'x, y, z'
loop_
 _atom_site_type_symbol
 _atom_site_label
 _atom_site_symmetry_multiplicity
 _atom_site_fract_x
 _atom_site_fract_y
 _atom_site_fract_z
 _atom_site_occupancy
  Ti  Ti0  1  0.00000000  0.00000000  0.00000000  1
  Hg  Hg0  1  0.50000000  0.50000000  0.50000000  1
  F  F0  1  0.93033376  0.21561462  0.62991889  1
  F  F1  1  0.21561462  0.62991889  0.93033376  1
  F  F2  1  0.37008111  0.06966624  0.78438538  1
  F  F3  1  0.78438538  0.37008111  0.06966624  1
  F  F4  1  0.06966624  0.78438538  0.37008111  1
  F  F5  1  0.62991889  0.93033376  0.21561462  1
loop_
_geom_bond_atom_site_label_1
_geom_bond_atom_site_label_2
_geom_bond_distance
_geom_bond_site_symmetry_2
F0 Ti0 1.878338 1_656
F0 Hg0 2.305020 1_555
F1 Ti0 1.878338 1_566
F1 Hg0 2.305020 1_555
F2 Ti0 1.878338 1_556
F2 Hg0 2.305020 1_555
F3 Ti0 1.878338 1_655
F3 Hg0 2.305020 1_555
F4 Ti0 1.878338 1_565
F4 Hg0 2.305020 1_555
F5 Ti0 1.878338 1_665
F5 Hg0 2.305020 1_555
