# generated using pymatgen
data_K2SnBi
_symmetry_space_group_name_H-M   'P 1'
_cell_length_a   6.58790816
_cell_length_b   6.81610235
_cell_length_c   13.44613075
_cell_angle_alpha   90.00000000
_cell_angle_beta   90.00000000
_cell_angle_gamma   90.00000000
_symmetry_Int_Tables_number   1
_chemical_formula_structural   K2SnBi
_chemical_formula_sum   'K8 Sn4 Bi4'
_cell_volume   603.78312287
_cell_formula_units_Z   4
loop_
 _symmetry_equiv_pos_site_id
 _symmetry_equiv_pos_as_xyz
  1  'x, y, z'
loop_
 _atom_site_type_symbol
 _atom_site_label
 _atom_site_symmetry_multiplicity
 _atom_site_fract_x
 _atom_site_fract_y
 _atom_site_fract_z
 _atom_site_occupancy
  K  K0  1  0.25000000  0.61596420  0.33402301  1
  K  K1  1  0.75000000  0.38403580  0.66597699  1
  K  K2  1  0.75000000  0.61596420  0.16597699  1
  K  K3  1  0.25000000  0.38403580  0.83402301  1
  K  K4  1  0.75000000  0.15832301  0.99145227  1
  K  K5  1  0.75000000  0.84167699  0.49145227  1
  K  K6  1  0.25000000  0.15832301  0.50854773  1
  K  K7  1  0.25000000  0.84167699  0.00854773  1
  Sn  Sn0  1  0.00000000  0.09554075  0.25000000  1
  Sn  Sn1  1  -0.00000000  0.90445925  0.75000000  1
  Sn  Sn2  1  0.50000000  0.90445925  0.75000000  1
  Sn  Sn3  1  0.50000000  0.09554075  0.25000000  1
  Bi  Bi0  1  0.25000000  0.65835607  0.60674898  1
  Bi  Bi1  1  0.75000000  0.34164393  0.39325102  1
  Bi  Bi2  1  0.75000000  0.65835607  0.89325102  1
  Bi  Bi3  1  0.25000000  0.34164393  0.10674898  1
loop_
_geom_bond_atom_site_label_1
_geom_bond_atom_site_label_2
_geom_bond_distance
_geom_bond_site_symmetry_2
K0 Sn3 3.830702 1_565
K0 Sn0 3.830702 1_565
K0 Sn0 4.070872 1_555
K0 Sn3 4.070872 1_555
K1 Sn2 3.830702 1_545
K1 Sn1 3.830702 1_645
K1 Sn2 4.070872 1_555
K1 Sn1 4.070872 1_655
K2 Sn0 3.830702 1_665
K2 Sn3 3.830702 1_565
K2 Sn3 4.070872 1_555
K2 Sn0 4.070872 1_655
K3 Sn2 3.830702 1_545
K3 Sn1 3.830702 1_545
K3 Sn2 4.070872 1_555
K3 Sn1 4.070872 1_555
K4 Sn0 3.870591 1_656
K4 Sn3 3.870591 1_556
K4 Sn2 4.030768 1_545
K4 Sn1 4.030768 1_645
K5 Sn2 3.870591 1_555
K5 Sn1 3.870591 1_655
K5 Sn0 4.030768 1_665
K5 Sn3 4.030768 1_565
K6 Sn0 3.870591 1_555
K6 Sn3 3.870591 1_555
K6 Sn2 4.030768 1_545
K6 Sn1 4.030768 1_545
K7 Sn1 3.870591 1_554
K7 Sn2 3.870591 1_554
K7 Sn0 4.030768 1_565
K7 Sn3 4.030768 1_565
Sn0 Sn3 3.293954 1_455
Sn0 Sn3 3.293954 1_555
Sn1 Sn2 3.293954 1_455
Sn1 Sn2 3.293954 1_555
Bi0 Sn1 3.039171 1_555
Bi0 Sn2 3.039171 1_555
Bi0 K3 3.582597 1_555
Bi0 K6 3.654696 1_565
Bi0 K6 3.655116 1_555
Bi0 K0 3.678475 1_555
Bi0 K5 3.849011 1_455
Bi0 K5 3.849011 1_555
Bi0 K1 3.870465 1_555
Bi0 K1 3.870465 1_455
Bi1 Sn3 3.039171 1_555
Bi1 Sn0 3.039171 1_655
Bi1 K2 3.582597 1_555
Bi1 K5 3.654696 1_545
Bi1 K5 3.655116 1_555
Bi1 K1 3.678475 1_555
Bi1 K6 3.849011 1_555
Bi1 K6 3.849011 1_655
Bi1 K0 3.870465 1_555
Bi1 K0 3.870465 1_655
Bi2 Sn2 3.039171 1_555
Bi2 Sn1 3.039171 1_655
Bi2 K1 3.582597 1_555
Bi2 K4 3.654696 1_565
Bi2 K4 3.655116 1_555
Bi2 K2 3.678475 1_556
Bi2 K7 3.849011 1_656
Bi2 K7 3.849011 1_556
Bi2 K3 3.870465 1_555
Bi2 K3 3.870465 1_655
Bi3 Sn0 3.039171 1_555
Bi3 Sn3 3.039171 1_555
Bi3 K0 3.582597 1_555
Bi3 K7 3.654696 1_545
Bi3 K7 3.655116 1_555
Bi3 K3 3.678475 1_554
Bi3 K4 3.849011 1_454
Bi3 K4 3.849011 1_554
Bi3 K2 3.870465 1_455
Bi3 K2 3.870465 1_555
