# generated using pymatgen
data_KHfCdF7
_symmetry_space_group_name_H-M   'P 1'
_cell_length_a   6.41474074
_cell_length_b   6.41471075
_cell_length_c   8.42452527
_cell_angle_alpha   90.00000000
_cell_angle_beta   90.00000000
_cell_angle_gamma   115.88206556
_symmetry_Int_Tables_number   1
_chemical_formula_structural   KHfCdF7
_chemical_formula_sum   'K2 Hf2 Cd2 F14'
_cell_volume   311.88656721
_cell_formula_units_Z   2
loop_
 _symmetry_equiv_pos_site_id
 _symmetry_equiv_pos_as_xyz
  1  'x, y, z'
loop_
 _atom_site_type_symbol
 _atom_site_label
 _atom_site_symmetry_multiplicity
 _atom_site_fract_x
 _atom_site_fract_y
 _atom_site_fract_z
 _atom_site_occupancy
  K  K0  1  0.50000000  0.50000000  0.50000000  1
  K  K1  1  0.50000000  0.50000000  0.00000000  1
  Hf  Hf0  1  0.80300685  0.19699053  0.25000000  1
  Hf  Hf1  1  0.19699315  0.80300947  0.75000000  1
  Cd  Cd0  1  0.80869573  0.19130400  0.75000000  1
  Cd  Cd1  1  0.19130427  0.80869600  0.25000000  1
  F  F0  1  0.78881846  0.21118057  0.01427085  1
  F  F1  1  0.15065298  0.43375146  0.25000000  1
  F  F2  1  0.56624591  0.84934515  0.25000000  1
  F  F3  1  0.52963802  0.82194023  0.75000000  1
  F  F4  1  0.17806059  0.47036298  0.75000000  1
  F  F5  1  0.78881846  0.21118057  0.48572915  1
  F  F6  1  0.43375409  0.15065485  0.75000000  1
  F  F7  1  0.82193941  0.52963702  0.25000000  1
  F  F8  1  0.47036198  0.17805977  0.25000000  1
  F  F9  1  0.98786758  0.01211921  0.25000000  1
  F  F10  1  0.21118154  0.78881943  0.51427085  1
  F  F11  1  0.21118154  0.78881943  0.98572915  1
  F  F12  1  0.01213242  0.98788079  0.75000000  1
  F  F13  1  0.84934702  0.56624854  0.75000000  1
loop_
_geom_bond_atom_site_label_1
_geom_bond_atom_site_label_2
_geom_bond_distance
_geom_bond_site_symmetry_2
Cd0 F12 2.211892 1_645
Cd0 F0 2.236822 1_556
Cd0 F5 2.236822 1_555
Cd0 F3 2.261725 1_545
Cd0 F4 2.261737 1_655
Cd0 F6 2.303308 1_555
Cd0 F13 2.303310 1_555
Cd1 F9 2.211892 1_465
Cd1 F10 2.236822 1_555
Cd1 F11 2.236822 1_554
Cd1 F8 2.261725 1_565
Cd1 F7 2.261737 1_455
Cd1 F2 2.303308 1_555
Cd1 F1 2.303310 1_555
F0 Hf0 1.991890 1_555
F0 K1 3.142626 1_555
F1 Hf0 2.079151 1_455
F1 K0 2.967643 1_555
F1 K1 2.967643 1_555
F2 Hf0 2.079141 1_565
F2 K0 2.967631 1_555
F2 K1 2.967631 1_555
F3 Hf1 2.083688 1_555
F3 K0 2.897242 1_555
F3 K1 2.897242 1_556
F4 Hf1 2.083684 1_555
F4 K0 2.897247 1_555
F4 K1 2.897247 1_556
F5 Hf0 1.991890 1_555
F5 K0 3.142626 1_555
F6 Hf1 2.079141 1_545
F6 K0 2.967631 1_555
F6 K1 2.967631 1_556
F7 Hf0 2.083684 1_555
F7 K1 2.897247 1_555
F7 K0 2.897247 1_555
F8 Hf0 2.083688 1_555
F8 K1 2.897242 1_555
F8 K0 2.897242 1_555
F9 Hf0 2.010046 1_555
F10 Hf1 1.991890 1_555
F10 K0 3.142626 1_555
F11 Hf1 1.991890 1_555
F11 K1 3.142626 1_556
F12 Hf1 2.010046 1_555
F13 Hf1 2.079151 1_655
F13 K1 2.967643 1_556
F13 K0 2.967643 1_555
