# generated using pymatgen
data_Rb6GaTe4I
_symmetry_space_group_name_H-M   'P 1'
_cell_length_a   11.62190385
_cell_length_b   11.62190233
_cell_length_c   8.70984398
_cell_angle_alpha   90.00000000
_cell_angle_beta   90.00000000
_cell_angle_gamma   119.99999604
_symmetry_Int_Tables_number   1
_chemical_formula_structural   Rb6GaTe4I
_chemical_formula_sum   'Rb12 Ga2 Te8 I2'
_cell_volume   1018.81545368
_cell_formula_units_Z   2
loop_
 _symmetry_equiv_pos_site_id
 _symmetry_equiv_pos_as_xyz
  1  'x, y, z'
loop_
 _atom_site_type_symbol
 _atom_site_label
 _atom_site_symmetry_multiplicity
 _atom_site_fract_x
 _atom_site_fract_y
 _atom_site_fract_z
 _atom_site_occupancy
  Rb  Rb0  1  0.13993774  0.86006226  0.51522639  1
  Rb  Rb1  1  0.72012252  0.86006226  0.51522639  1
  Rb  Rb2  1  0.95359102  0.47679551  0.31997925  1
  Rb  Rb3  1  0.52320449  0.47679551  0.31997925  1
  Rb  Rb4  1  0.86006226  0.72012252  0.01522639  1
  Rb  Rb5  1  0.27987748  0.13993774  0.01522639  1
  Rb  Rb6  1  0.52320449  0.04640898  0.31997925  1
  Rb  Rb7  1  0.13993774  0.27987748  0.51522639  1
  Rb  Rb8  1  0.86006226  0.13993774  0.01522639  1
  Rb  Rb9  1  0.04640898  0.52320449  0.81997925  1
  Rb  Rb10  1  0.47679551  0.95359102  0.81997925  1
  Rb  Rb11  1  0.47679551  0.52320449  0.81997925  1
  Ga  Ga0  1  0.66666700  0.33333300  0.70689865  1
  Ga  Ga1  1  0.33333300  0.66666700  0.20689865  1
  Te  Te0  1  0.41602044  0.20801072  0.61258514  1
  Te  Te1  1  0.58397956  0.79198928  0.11258514  1
  Te  Te2  1  0.66666700  0.33333300  0.01921273  1
  Te  Te3  1  0.79198928  0.58397956  0.61258514  1
  Te  Te4  1  0.20801072  0.41602044  0.11258514  1
  Te  Te5  1  0.33333300  0.66666700  0.51921273  1
  Te  Te6  1  0.20801072  0.79198928  0.11258514  1
  Te  Te7  1  0.79198928  0.20801072  0.61258514  1
  I  I0  1  0.00000000  0.00000000  0.27112030  1
  I  I1  1  0.00000000  0.00000000  0.77112030  1
loop_
_geom_bond_atom_site_label_1
_geom_bond_atom_site_label_2
_geom_bond_distance
_geom_bond_site_symmetry_2
Rb0 Te6 3.765148 1_555
Rb0 Te0 3.793639 1_565
Rb0 Te3 3.793639 1_455
Rb0 Te5 3.893148 1_555
Rb1 Te1 3.765137 1_555
Rb1 Te7 3.793635 1_565
Rb1 Te3 3.793646 1_555
Rb1 Te5 3.893139 1_555
Rb2 Te7 3.730103 1_555
Rb2 Te3 3.730109 1_555
Rb2 Te6 3.820105 1_655
Rb2 Te4 3.820112 1_655
Rb2 Te2 3.898993 1_555
Rb3 Te0 3.730101 1_555
Rb3 Te3 3.730102 1_555
Rb3 Te1 3.820102 1_555
Rb3 Te4 3.820102 1_555
Rb3 Te2 3.899000 1_555
Rb4 Te3 3.765137 1_554
Rb4 Te6 3.793635 1_655
Rb4 Te1 3.793646 1_555
Rb4 Te2 3.893138 1_555
Rb5 Te0 3.765137 1_554
Rb5 Te6 3.793635 1_545
Rb5 Te4 3.793646 1_555
Rb5 Te2 3.893139 1_555
Rb6 Te7 3.730103 1_555
Rb6 Te0 3.730109 1_555
Rb6 Te6 3.820106 1_545
Rb6 Te1 3.820112 1_545
Rb6 Te2 3.898992 1_555
Rb7 Te4 3.765137 1_555
Rb7 Te7 3.793635 1_455
Rb7 Te0 3.793646 1_555
Rb7 Te5 3.893138 1_555
Rb8 Te7 3.765148 1_554
Rb8 Te1 3.793639 1_545
Rb8 Te4 3.793639 1_655
Rb8 Te2 3.893148 1_555
Rb9 Te6 3.730103 1_556
Rb9 Te4 3.730109 1_556
Rb9 Te7 3.820105 1_455
Rb9 Te3 3.820112 1_455
Rb9 Te5 3.898993 1_555
Rb10 Te6 3.730103 1_556
Rb10 Te1 3.730109 1_556
Rb10 Te7 3.820106 1_565
Rb10 Te0 3.820112 1_565
Rb10 Te5 3.898992 1_555
Rb11 Te1 3.730101 1_556
Rb11 Te4 3.730102 1_556
Rb11 Te0 3.820102 1_555
Rb11 Te3 3.820102 1_555
Rb11 Te5 3.899000 1_555
Ga0 Te7 2.653078 1_555
Ga0 Te3 2.653097 1_555
Ga0 Te0 2.653097 1_555
Ga0 Te2 2.720207 1_556
Ga1 Te6 2.653078 1_555
Ga1 Te4 2.653097 1_555
Ga1 Te1 2.653097 1_555
Ga1 Te5 2.720207 1_555
I0 Rb0 3.529219 1_545
I0 Rb7 3.529235 1_555
I0 Rb1 3.529235 1_445
I0 Rb8 3.592006 1_455
I0 Rb4 3.592021 1_445
I0 Rb5 3.592022 1_555
I1 Rb8 3.529219 1_456
I1 Rb4 3.529235 1_446
I1 Rb5 3.529235 1_556
I1 Rb0 3.592006 1_545
I1 Rb7 3.592021 1_555
I1 Rb1 3.592022 1_445
