# generated using pymatgen
data_TiV2GaC2
_symmetry_space_group_name_H-M   'P 1'
_cell_length_a   2.96851952
_cell_length_b   2.96852091
_cell_length_c   17.78345389
_cell_angle_alpha   90.00000000
_cell_angle_beta   90.00000000
_cell_angle_gamma   120.00001758
_symmetry_Int_Tables_number   1
_chemical_formula_structural   TiV2GaC2
_chemical_formula_sum   'Ti2 V4 Ga2 C4'
_cell_volume   135.71463689
_cell_formula_units_Z   2
loop_
 _symmetry_equiv_pos_site_id
 _symmetry_equiv_pos_as_xyz
  1  'x, y, z'
loop_
 _atom_site_type_symbol
 _atom_site_label
 _atom_site_symmetry_multiplicity
 _atom_site_fract_x
 _atom_site_fract_y
 _atom_site_fract_z
 _atom_site_occupancy
  Ti  Ti0  1  0.00000000  0.00000000  0.50000000  1
  Ti  Ti1  1  0.00000000  0.00000000  0.00000000  1
  V  V0  1  0.66666700  0.33333300  0.36719429  1
  V  V1  1  0.33333300  0.66666700  0.86719429  1
  V  V2  1  0.33333300  0.66666700  0.63280571  1
  V  V3  1  0.66666700  0.33333300  0.13280571  1
  Ga  Ga0  1  0.00000000  0.00000000  0.75000000  1
  Ga  Ga1  1  0.00000000  0.00000000  0.25000000  1
  C  C0  1  0.33333300  0.66666700  0.42580511  1
  C  C1  1  0.66666700  0.33333300  0.92580511  1
  C  C2  1  0.33333300  0.66666700  0.07419489  1
  C  C3  1  0.66666700  0.33333300  0.57419489  1
loop_
_geom_bond_atom_site_label_1
_geom_bond_atom_site_label_2
_geom_bond_distance
_geom_bond_site_symmetry_2
Ga0 V1 2.698318 1_545
Ga0 V2 2.698318 1_545
Ga0 V1 2.698319 1_445
Ga0 V2 2.698319 1_445
Ga0 V1 2.698319 1_555
Ga0 V2 2.698319 1_555
Ga1 V0 2.698318 1_455
Ga1 V3 2.698318 1_455
Ga1 V0 2.698319 1_555
Ga1 V3 2.698319 1_555
Ga1 V0 2.698319 1_445
Ga1 V3 2.698319 1_445
C0 V0 2.005931 1_455
C0 V0 2.005931 1_565
C0 V0 2.005936 1_555
C0 Ti0 2.162936 1_565
C0 Ti0 2.162937 1_665
C0 Ti0 2.162938 1_555
C1 V1 2.005931 1_655
C1 V1 2.005931 1_545
C1 V1 2.005936 1_555
C1 Ti1 2.162936 1_656
C1 Ti1 2.162937 1_556
C1 Ti1 2.162938 1_666
C2 V3 2.005931 1_455
C2 V3 2.005931 1_565
C2 V3 2.005936 1_555
C2 Ti1 2.162936 1_565
C2 Ti1 2.162937 1_665
C2 Ti1 2.162938 1_555
C3 V2 2.005931 1_655
C3 V2 2.005931 1_545
C3 V2 2.005936 1_555
C3 Ti0 2.162936 1_655
C3 Ti0 2.162937 1_555
C3 Ti0 2.162938 1_665
