# generated using pymatgen
data_Co2Mo3AsN
_symmetry_space_group_name_H-M   'P 1'
_cell_length_a   7.82035389
_cell_length_b   7.82032155
_cell_length_c   7.82036867
_cell_angle_alpha   59.99976622
_cell_angle_beta   59.99994769
_cell_angle_gamma   59.99932857
_symmetry_Int_Tables_number   1
_chemical_formula_structural   Co2Mo3AsN
_chemical_formula_sum   'Co8 Mo12 As4 N4'
_cell_volume   338.18948709
_cell_formula_units_Z   4
loop_
 _symmetry_equiv_pos_site_id
 _symmetry_equiv_pos_as_xyz
  1  'x, y, z'
loop_
 _atom_site_type_symbol
 _atom_site_label
 _atom_site_symmetry_multiplicity
 _atom_site_fract_x
 _atom_site_fract_y
 _atom_site_fract_z
 _atom_site_occupancy
  Co  Co0  1  0.25211715  0.91597452  0.91595238  1
  Co  Co1  1  0.91596306  0.25207548  0.91597325  1
  Co  Co2  1  0.91595956  0.91598523  0.91596715  1
  Co  Co3  1  0.91595423  0.91597390  0.25212947  1
  Co  Co4  1  0.99758291  0.33413377  0.33412424  1
  Co  Co5  1  0.33415675  0.33414614  0.99752980  1
  Co  Co6  1  0.33413232  0.99757584  0.33412176  1
  Co  Co7  1  0.33417034  0.33415708  0.33416165  1
  Mo  Mo0  1  0.69289957  0.30708969  0.69286954  1
  Mo  Mo1  1  0.55720762  0.55717790  0.94282269  1
  Mo  Mo2  1  0.55719594  0.94284057  0.55717260  1
  Mo  Mo3  1  0.94277035  0.94280614  0.55720682  1
  Mo  Mo4  1  0.94279711  0.55720775  0.55721281  1
  Mo  Mo5  1  0.94276302  0.55723174  0.94277642  1
  Mo  Mo6  1  0.69291069  0.30707800  0.30713227  1
  Mo  Mo7  1  0.30707800  0.69293400  0.30709472  1
  Mo  Mo8  1  0.30709457  0.30706150  0.69291856  1
  Mo  Mo9  1  0.30709203  0.69291167  0.69288690  1
  Mo  Mo10  1  0.69288555  0.69287866  0.30711863  1
  Mo  Mo11  1  0.55721453  0.94280591  0.94278737  1
  As  As0  1  0.62489597  0.12499923  0.12510986  1
  As  As1  1  0.12509568  0.12501286  0.62485879  1
  As  As2  1  0.12505337  0.62491968  0.12505387  1
  As  As3  1  0.12502268  0.12503970  0.12499668  1
  N  N0  1  0.62496620  0.62498676  0.62498288  1
  N  N1  1  0.12511284  0.62495815  0.62495881  1
  N  N2  1  0.62495759  0.12507720  0.62497477  1
  N  N3  1  0.62495237  0.62496395  0.12510630  1
loop_
_geom_bond_atom_site_label_1
_geom_bond_atom_site_label_2
_geom_bond_distance
_geom_bond_site_symmetry_2
Co0 Mo11 2.612725 1_555
Co0 Mo2 2.612737 1_555
Co0 Mo1 2.612816 1_555
Co0 Co1 2.628604 1_465
Co0 Co2 2.628772 1_455
Co0 Co3 2.628969 1_456
Co0 Mo8 2.794920 1_565
Co0 Mo7 2.795250 1_556
Co0 Mo9 2.795369 1_555
Co1 Mo1 2.612673 1_555
Co1 Mo4 2.612814 1_555
Co1 Mo5 2.612888 1_555
Co1 Co2 2.628371 1_545
Co1 Co3 2.628635 1_546
Co1 Mo8 2.795260 1_655
Co1 Mo0 2.795489 1_555
Co1 Mo6 2.795495 1_556
Co2 Mo11 2.612659 1_555
Co2 Mo5 2.612803 1_555
Co2 Mo3 2.612814 1_555
Co2 Co3 2.628848 1_556
Co2 Mo0 2.795251 1_565
Co2 Mo9 2.795354 1_655
Co2 Mo10 2.795526 1_556
Co3 Mo3 2.612491 1_555
Co3 Mo2 2.612520 1_555
Co3 Mo4 2.612672 1_555
Co3 Mo6 2.795097 1_565
Co3 Mo7 2.795123 1_655
Co3 Mo10 2.795562 1_555
Co4 Mo6 2.611144 1_555
Co4 Mo0 2.611295 1_555
Co4 Mo10 2.611303 1_555
Co4 Co6 2.631937 1_645
Co4 Co5 2.632207 1_654
Co4 Co7 2.632470 1_655
Co4 Mo3 2.796036 1_545
Co4 Mo5 2.796202 1_554
Co4 Mo4 2.796295 1_555
Co5 Mo8 2.611121 1_555
Co5 Mo0 2.611205 1_555
Co5 Mo9 2.611237 1_555
Co5 Co6 2.632171 1_546
Co5 Co7 2.632681 1_556
Co5 Mo11 2.795892 1_545
Co5 Mo1 2.796053 1_555
Co5 Mo5 2.796293 1_455
Co6 Mo7 2.611051 1_555
Co6 Mo9 2.611312 1_555
Co6 Mo10 2.611344 1_555
Co6 Co7 2.632478 1_565
Co6 Mo11 2.795966 1_554
Co6 Mo3 2.796151 1_455
Co6 Mo2 2.796161 1_555
Co7 Mo8 2.611032 1_555
Co7 Mo6 2.611101 1_555
Co7 Mo7 2.611207 1_555
Co7 Mo2 2.795663 1_545
Co7 Mo1 2.795844 1_554
Co7 Mo4 2.796081 1_455
Mo0 N2 2.093917 1_555
Mo0 N0 2.094276 1_555
Mo1 N3 2.094177 1_556
Mo1 N0 2.094301 1_555
Mo2 N2 2.094017 1_565
Mo2 N0 2.094360 1_555
Mo3 N2 2.094126 1_565
Mo3 N1 2.094434 1_655
Mo4 N1 2.094218 1_655
Mo4 N0 2.094257 1_555
Mo5 N3 2.094224 1_556
Mo5 N1 2.094306 1_655
Mo6 N2 2.093859 1_555
Mo6 N3 2.094127 1_555
Mo7 N1 2.093925 1_555
Mo7 N3 2.094013 1_555
Mo8 N2 2.093930 1_555
Mo8 N1 2.094106 1_555
Mo9 N1 2.093930 1_555
Mo9 N0 2.094106 1_555
Mo10 N3 2.093983 1_555
Mo10 N0 2.094073 1_555
Mo11 N2 2.094142 1_565
Mo11 N3 2.094369 1_556
As0 Co7 2.399083 1_555
As0 Co6 2.399084 1_545
As0 Co3 2.399211 1_545
As0 Co1 2.399530 1_554
As0 Co2 2.399561 1_544
As0 Co5 2.399580 1_554
As1 Co6 2.398966 1_545
As1 Co7 2.399080 1_555
As1 Co4 2.399270 1_455
As1 Co0 2.399452 1_545
As1 Co2 2.399702 1_445
As1 Co1 2.399766 1_455
As2 Co7 2.399219 1_555
As2 Co0 2.399390 1_554
As2 Co4 2.399420 1_455
As2 Co3 2.399422 1_455
As2 Co5 2.399556 1_554
As2 Co2 2.399661 1_454
As3 Co1 2.399221 1_454
As3 Co4 2.399260 1_455
As3 Co0 2.399266 1_544
As3 Co6 2.399295 1_545
As3 Co5 2.399333 1_554
As3 Co3 2.399352 1_445
