# generated using pymatgen
data_YNb6InBr18
_symmetry_space_group_name_H-M   'P 1'
_cell_length_a   10.65339712
_cell_length_b   10.65339646
_cell_length_c   10.65339740
_cell_angle_alpha   55.30696478
_cell_angle_beta   55.30697200
_cell_angle_gamma   55.30697586
_symmetry_Int_Tables_number   1
_chemical_formula_structural   YNb6InBr18
_chemical_formula_sum   'Y1 Nb6 In1 Br18'
_cell_volume   761.72990988
_cell_formula_units_Z   1
loop_
 _symmetry_equiv_pos_site_id
 _symmetry_equiv_pos_as_xyz
  1  'x, y, z'
loop_
 _atom_site_type_symbol
 _atom_site_label
 _atom_site_symmetry_multiplicity
 _atom_site_fract_x
 _atom_site_fract_y
 _atom_site_fract_z
 _atom_site_occupancy
  Y  Y0  1  0.49912536  0.49912536  0.49912536  1
  Nb  Nb0  1  0.80648132  0.14482539  0.91605727  1
  Nb  Nb1  1  0.91605727  0.80648132  0.14482539  1
  Nb  Nb2  1  0.14482539  0.91605727  0.80648132  1
  Nb  Nb3  1  0.19450598  0.85610836  0.08437988  1
  Nb  Nb4  1  0.08437988  0.19450598  0.85610836  1
  Nb  Nb5  1  0.85610836  0.08437988  0.19450598  1
  In  In0  1  0.21147340  0.21147340  0.21147340  1
  Br  Br0  1  0.86367515  0.41629355  0.72251224  1
  Br  Br1  1  0.72251224  0.86367515  0.41629355  1
  Br  Br2  1  0.41629355  0.72251224  0.86367515  1
  Br  Br3  1  0.13702089  0.58407840  0.27937979  1
  Br  Br4  1  0.27937979  0.13702089  0.58407840  1
  Br  Br5  1  0.58407840  0.27937979  0.13702089  1
  Br  Br6  1  0.52559392  0.34412724  0.80962698  1
  Br  Br7  1  0.80962698  0.52559392  0.34412724  1
  Br  Br8  1  0.34412724  0.80962698  0.52559392  1
  Br  Br9  1  0.46969082  0.65841502  0.19478533  1
  Br  Br10  1  0.19478533  0.46969082  0.65841502  1
  Br  Br11  1  0.65841502  0.19478533  0.46969082  1
  Br  Br12  1  0.65900451  0.93833668  0.07367312  1
  Br  Br13  1  0.07367312  0.65900451  0.93833668  1
  Br  Br14  1  0.93833668  0.07367312  0.65900451  1
  Br  Br15  1  0.34306412  0.06216808  0.92673718  1
  Br  Br16  1  0.92673718  0.34306412  0.06216808  1
  Br  Br17  1  0.06216808  0.92673718  0.34306412  1
loop_
_geom_bond_atom_site_label_1
_geom_bond_atom_site_label_2
_geom_bond_distance
_geom_bond_site_symmetry_2
Br0 Nb0 2.602750 1_555
Br0 Nb4 2.606522 1_655
Br1 Nb1 2.602751 1_555
Br1 Nb5 2.606522 1_565
Br2 Nb2 2.602751 1_555
Br2 Nb3 2.606523 1_556
Br3 Nb3 2.609220 1_555
Br3 Nb1 2.614537 1_455
Br4 Nb4 2.609220 1_555
Br4 Nb2 2.614537 1_545
Br5 Nb5 2.609220 1_555
Br5 Nb0 2.614538 1_554
Br6 Y0 2.839399 1_555
Br6 Nb0 2.938948 1_555
Br7 Y0 2.839399 1_555
Br7 Nb1 2.938948 1_555
Br8 Y0 2.839399 1_555
Br8 Nb2 2.938949 1_555
Br9 Y0 2.789014 1_555
Br9 Nb3 2.913830 1_555
Br10 Y0 2.789015 1_555
Br10 Nb4 2.913829 1_555
Br11 Y0 2.789015 1_555
Br11 Nb5 2.913830 1_555
Br12 Nb1 2.611319 1_555
Br12 Nb0 2.617912 1_564
Br13 Nb2 2.611319 1_555
Br13 Nb1 2.617913 1_456
Br14 Nb0 2.611319 1_555
Br14 Nb2 2.617913 1_645
Br15 Nb3 2.622360 1_546
Br15 Nb4 2.622714 1_555
Br16 Nb4 2.622360 1_654
Br16 Nb5 2.622713 1_555
Br17 Nb5 2.622360 1_465
Br17 Nb3 2.622714 1_555
