# generated using pymatgen
data_CuIrRhS4
_symmetry_space_group_name_H-M   'P 1'
_cell_length_a   6.95096590
_cell_length_b   6.95096563
_cell_length_c   7.03310847
_cell_angle_alpha   59.60830514
_cell_angle_beta   59.60830641
_cell_angle_gamma   59.33729638
_symmetry_Int_Tables_number   1
_chemical_formula_structural   CuIrRhS4
_chemical_formula_sum   'Cu2 Ir2 Rh2 S8'
_cell_volume   237.64531898
_cell_formula_units_Z   2
loop_
 _symmetry_equiv_pos_site_id
 _symmetry_equiv_pos_as_xyz
  1  'x, y, z'
loop_
 _atom_site_type_symbol
 _atom_site_label
 _atom_site_symmetry_multiplicity
 _atom_site_fract_x
 _atom_site_fract_y
 _atom_site_fract_z
 _atom_site_occupancy
  Cu  Cu0  1  0.99628889  0.99628889  0.00371111  1
  Cu  Cu1  1  0.25371111  0.25371111  0.24628889  1
  Ir  Ir0  1  0.62500000  0.62500000  0.62500000  1
  Ir  Ir1  1  0.62500000  0.62500000  0.12500000  1
  Rh  Rh0  1  0.12500000  0.62500000  0.62500000  1
  Rh  Rh1  1  0.62500000  0.12500000  0.62500000  1
  S  S0  1  0.38444760  0.38444760  0.84764175  1
  S  S1  1  0.38444760  0.38444760  0.38346505  1
  S  S2  1  0.86555240  0.86555240  0.86653495  1
  S  S3  1  0.86555240  0.86555240  0.40235825  1
  S  S4  1  0.38616533  0.84703023  0.38340272  1
  S  S5  1  0.84703023  0.38616533  0.38340272  1
  S  S6  1  0.40296977  0.86383467  0.86659728  1
  S  S7  1  0.86383467  0.40296977  0.86659728  1
loop_
_geom_bond_atom_site_label_1
_geom_bond_atom_site_label_2
_geom_bond_distance
_geom_bond_site_symmetry_2
Cu0 S3 2.280103 1_555
Cu0 S2 2.280114 1_554
Cu0 S7 2.292178 1_564
Cu0 S6 2.292179 1_654
Cu1 S0 2.280103 1_554
Cu1 S1 2.280114 1_555
Cu1 S4 2.292178 1_545
Cu1 S5 2.292179 1_455
Ir0 S3 2.365770 1_555
Ir0 S0 2.365770 1_555
Ir0 S6 2.369102 1_555
Ir0 S5 2.369102 1_555
Ir0 S7 2.369102 1_555
Ir0 S4 2.369102 1_555
Ir1 S2 2.365770 1_554
Ir1 S1 2.365770 1_555
Ir1 S5 2.369107 1_555
Ir1 S6 2.369107 1_554
Ir1 S7 2.369107 1_554
Ir1 S4 2.369107 1_555
Rh0 S2 2.373278 1_455
Rh0 S1 2.373278 1_555
Rh0 S0 2.373288 1_555
Rh0 S3 2.373288 1_455
Rh0 S4 2.376498 1_555
Rh0 S7 2.376498 1_455
Rh1 S2 2.373278 1_545
Rh1 S1 2.373278 1_555
Rh1 S0 2.373288 1_555
Rh1 S3 2.373288 1_545
Rh1 S5 2.376498 1_555
Rh1 S6 2.376498 1_545
