# generated using pymatgen
data_Ca(Pr2Se3)4
_symmetry_space_group_name_H-M   'P 1'
_cell_length_a   9.01322339
_cell_length_b   9.01322339
_cell_length_c   14.91795620
_cell_angle_alpha   72.45496723
_cell_angle_beta   72.45496723
_cell_angle_gamma   90.03955580
_symmetry_Int_Tables_number   1
_chemical_formula_structural   Ca(Pr2Se3)4
_chemical_formula_sum   'Ca2 Pr16 Se24'
_cell_volume   1096.17279331
_cell_formula_units_Z   2
loop_
 _symmetry_equiv_pos_site_id
 _symmetry_equiv_pos_as_xyz
  1  'x, y, z'
loop_
 _atom_site_type_symbol
 _atom_site_label
 _atom_site_symmetry_multiplicity
 _atom_site_fract_x
 _atom_site_fract_y
 _atom_site_fract_z
 _atom_site_occupancy
  Ca  Ca0  1  0.58318100  0.20839500  0.83327300  1
  Ca  Ca1  1  0.20839500  0.58318100  0.33327300  1
  Pr  Pr0  1  0.62313000  0.75199100  0.00010200  1
  Pr  Pr1  1  0.87666100  0.25067500  0.99901500  1
  Pr  Pr2  1  0.29248900  0.54030200  0.91699000  1
  Pr  Pr3  1  0.87518700  0.62235100  0.75011900  1
  Pr  Pr4  1  0.28889800  0.41643100  0.66678700  1
  Pr  Pr5  1  0.54130300  0.91827900  0.66743300  1
  Pr  Pr6  1  0.08325100  0.96105000  0.83329400  1
  Pr  Pr7  1  0.95753900  0.20854800  0.58341700  1
  Pr  Pr8  1  0.25067500  0.87666100  0.49901500  1
  Pr  Pr9  1  0.96105000  0.08325100  0.33329400  1
  Pr  Pr10  1  0.54030200  0.29248900  0.41699000  1
  Pr  Pr11  1  0.75199100  0.62313000  0.50010200  1
  Pr  Pr12  1  0.62235100  0.87518700  0.25011900  1
  Pr  Pr13  1  0.91827900  0.54130300  0.16743300  1
  Pr  Pr14  1  0.20854800  0.95753900  0.08341700  1
  Pr  Pr15  1  0.41643100  0.28889800  0.16678700  1
  Se  Se0  1  0.38221500  0.88022100  0.88308100  1
  Se  Se1  1  0.59960300  0.45296600  0.95108500  1
  Se  Se2  1  0.56707800  0.57073200  0.71522900  1
  Se  Se3  1  0.95066500  0.59971600  0.95029600  1
  Se  Se4  1  0.21578400  0.71650200  0.71667200  1
  Se  Se5  1  0.23627800  0.23154400  0.88295500  1
  Se  Se6  1  0.78529300  0.92988700  0.78312400  1
  Se  Se7  1  0.93047500  0.28111000  0.78401400  1
  Se  Se8  1  0.05237100  0.55002600  0.54926700  1
  Se  Se9  1  0.26707800  0.11623900  0.61610700  1
  Se  Se10  1  0.61650300  0.26719500  0.61816200  1
  Se  Se11  1  0.23154400  0.23627800  0.38295500  1
  Se  Se12  1  0.88022100  0.38221500  0.38308100  1
  Se  Se13  1  0.90034000  0.90051600  0.54957700  1
  Se  Se14  1  0.45296600  0.59960300  0.45108500  1
  Se  Se15  1  0.59971600  0.95066500  0.45029600  1
  Se  Se16  1  0.71650200  0.21578400  0.21667200  1
  Se  Se17  1  0.92988700  0.78529300  0.28312400  1
  Se  Se18  1  0.90051600  0.90034000  0.04957700  1
  Se  Se19  1  0.28111000  0.93047500  0.28401400  1
  Se  Se20  1  0.55002600  0.05237100  0.04926700  1
  Se  Se21  1  0.57073200  0.56707800  0.21522900  1
  Se  Se22  1  0.11623900  0.26707800  0.11610700  1
  Se  Se23  1  0.26719500  0.61650300  0.11816200  1
loop_
_geom_bond_atom_site_label_1
_geom_bond_atom_site_label_2
_geom_bond_distance
_geom_bond_site_symmetry_2
Ca0 Se10 3.010348 1_555
Ca0 Se5 3.011005 1_555
Ca0 Se7 3.014613 1_555
Ca0 Se20 3.022637 1_556
Ca0 Se0 3.230844 1_545
Ca0 Se1 3.234536 1_555
Ca0 Se2 3.236526 1_555
Ca0 Se6 3.239827 1_545
Ca1 Se23 3.010348 1_555
Ca1 Se11 3.011005 1_555
Ca1 Se19 3.014613 1_555
Ca1 Se8 3.022637 1_555
Ca1 Se12 3.230844 1_455
Ca1 Se14 3.234536 1_555
Ca1 Se21 3.236526 1_555
Ca1 Se17 3.239827 1_455
Pr0 Se1 3.020692 1_554
Pr0 Se21 3.026619 1_555
Pr0 Se6 3.033117 1_554
Pr0 Se20 3.034858 1_565
Pr0 Se0 3.189174 1_554
Pr0 Se23 3.190066 1_555
Pr0 Se18 3.207212 1_555
Pr0 Se3 3.232477 1_554
Pr1 Se7 3.021452 1_555
Pr1 Se3 3.032596 1_555
Pr1 Se18 3.041158 1_546
Pr1 Se16 3.046883 1_556
Pr1 Se22 3.188315 1_656
Pr1 Se20 3.205968 1_556
Pr1 Se5 3.214150 1_655
Pr1 Se1 3.219997 1_555
Pr2 Se0 3.018627 1_555
Pr2 Se1 3.025083 1_555
Pr2 Se5 3.043695 1_555
Pr2 Se3 3.043941 1_455
Pr2 Se22 3.186035 1_556
Pr2 Se2 3.204672 1_555
Pr2 Se4 3.211867 1_555
Pr2 Se23 3.218784 1_556
Pr3 Se6 3.027822 1_555
Pr3 Se7 3.029885 1_555
Pr3 Se4 3.034937 1_655
Pr3 Se2 3.035635 1_555
Pr3 Se1 3.199076 1_555
Pr3 Se8 3.201134 1_655
Pr3 Se3 3.206200 1_555
Pr3 Se13 3.217994 1_555
Pr4 Se14 3.031774 1_555
Pr4 Se4 3.036981 1_555
Pr4 Se5 3.039406 1_555
Pr4 Se9 3.041926 1_555
Pr4 Se8 3.170571 1_555
Pr4 Se7 3.206979 1_455
Pr4 Se10 3.218189 1_555
Pr4 Se2 3.230559 1_555
Pr5 Se0 3.012612 1_555
Pr5 Se2 3.021471 1_555
Pr5 Se10 3.031968 1_565
Pr5 Se15 3.042461 1_555
Pr5 Se9 3.194106 1_565
Pr5 Se6 3.197287 1_555
Pr5 Se13 3.213897 1_555
Pr5 Se4 3.216077 1_555
Pr6 Se18 3.025357 1_456
Pr6 Se6 3.031307 1_455
Pr6 Se0 3.037521 1_555
Pr6 Se9 3.037618 1_565
Pr6 Se5 3.177352 1_565
Pr6 Se7 3.177373 1_465
Pr6 Se4 3.220980 1_555
Pr6 Se3 3.223519 1_455
Pr7 Se10 3.033707 1_555
Pr7 Se13 3.037890 1_545
Pr7 Se8 3.041637 1_655
Pr7 Se9 3.048395 1_655
Pr7 Se7 3.190984 1_555
Pr7 Se11 3.193812 1_655
Pr7 Se6 3.207633 1_545
Pr7 Se12 3.210032 1_555
Pr8 Se19 3.021452 1_555
Pr8 Se15 3.032596 1_555
Pr8 Se13 3.041158 1_455
Pr8 Se4 3.046883 1_555
Pr8 Se9 3.188315 1_565
Pr8 Se8 3.205968 1_555
Pr8 Se11 3.214150 1_565
Pr8 Se14 3.219997 1_555
Pr9 Se13 3.025357 1_545
Pr9 Se17 3.031307 1_545
Pr9 Se12 3.037521 1_555
Pr9 Se22 3.037618 1_655
Pr9 Se11 3.177352 1_655
Pr9 Se19 3.177373 1_645
Pr9 Se16 3.220980 1_555
Pr9 Se15 3.223519 1_545
Pr10 Se12 3.018627 1_555
Pr10 Se14 3.025083 1_555
Pr10 Se11 3.043695 1_555
Pr10 Se15 3.043941 1_545
Pr10 Se9 3.186035 1_555
Pr10 Se21 3.204672 1_555
Pr10 Se16 3.211867 1_555
Pr10 Se10 3.218784 1_555
Pr11 Se14 3.020692 1_555
Pr11 Se2 3.026619 1_555
Pr11 Se17 3.033117 1_555
Pr11 Se8 3.034858 1_655
Pr11 Se12 3.189174 1_555
Pr11 Se10 3.190066 1_555
Pr11 Se13 3.207212 1_555
Pr11 Se15 3.232477 1_555
Pr12 Se17 3.027822 1_555
Pr12 Se19 3.029885 1_555
Pr12 Se16 3.034937 1_565
Pr12 Se21 3.035635 1_555
Pr12 Se14 3.199076 1_555
Pr12 Se20 3.201134 1_565
Pr12 Se15 3.206200 1_555
Pr12 Se18 3.217994 1_555
Pr13 Se12 3.012612 1_555
Pr13 Se21 3.021471 1_555
Pr13 Se23 3.031968 1_655
Pr13 Se3 3.042461 1_554
Pr13 Se22 3.194106 1_655
Pr13 Se17 3.197287 1_555
Pr13 Se18 3.213897 1_555
Pr13 Se16 3.216077 1_555
Pr14 Se23 3.033707 1_555
Pr14 Se18 3.037890 1_455
Pr14 Se20 3.041637 1_565
Pr14 Se22 3.048395 1_565
Pr14 Se19 3.190984 1_555
Pr14 Se5 3.193812 1_564
Pr14 Se17 3.207633 1_455
Pr14 Se0 3.210032 1_554
Pr15 Se1 3.031774 1_554
Pr15 Se16 3.036981 1_555
Pr15 Se11 3.039406 1_555
Pr15 Se22 3.041926 1_555
Pr15 Se20 3.170571 1_555
Pr15 Se19 3.206979 1_545
Pr15 Se23 3.218189 1_555
Pr15 Se21 3.230559 1_555
