# generated using pymatgen
data_AgTe2Au
_symmetry_space_group_name_H-M   'P 1'
_cell_length_a   4.77579100
_cell_length_b   4.99079900
_cell_length_c   8.96725300
_cell_angle_alpha   90.00000000
_cell_angle_beta   90.00000000
_cell_angle_gamma   90.00000000
_symmetry_Int_Tables_number   1
_chemical_formula_structural   AgTe2Au
_chemical_formula_sum   'Ag2 Te4 Au2'
_cell_volume   213.73459135
_cell_formula_units_Z   2
loop_
 _symmetry_equiv_pos_site_id
 _symmetry_equiv_pos_as_xyz
  1  'x, y, z'
loop_
 _atom_site_type_symbol
 _atom_site_label
 _atom_site_symmetry_multiplicity
 _atom_site_fract_x
 _atom_site_fract_y
 _atom_site_fract_z
 _atom_site_occupancy
  Ag  Ag0  1  0.50000000  0.50000000  0.00000000  1
  Ag  Ag1  1  0.50000000  0.50000000  0.50000000  1
  Te  Te0  1  0.82308000  0.50000000  0.75000000  1
  Te  Te1  1  0.17692000  0.50000000  0.25000000  1
  Te  Te2  1  0.68233300  0.00000000  0.25000000  1
  Te  Te3  1  0.31766700  0.00000000  0.75000000  1
  Au  Au0  1  0.00000000  0.00000000  0.50000000  1
  Au  Au1  1  0.00000000  0.00000000  0.00000000  1
loop_
_geom_bond_atom_site_label_1
_geom_bond_atom_site_label_2
_geom_bond_distance
_geom_bond_site_symmetry_2
Ag0 Te0 2.721481 1_554
Ag0 Te1 2.721481 1_555
Ag1 Te0 2.721481 1_555
Ag1 Te1 2.721481 1_555
Au0 Te2 2.706908 1_455
Au0 Te3 2.706908 1_555
Au1 Te3 2.706908 1_554
Au1 Te2 2.706908 1_455
