# generated using pymatgen
data_Rb2SiSn3Se8
_symmetry_space_group_name_H-M   'P 1'
_cell_length_a   10.03900659
_cell_length_b   10.03900729
_cell_length_c   7.23721176
_cell_angle_alpha   88.34439420
_cell_angle_beta   88.34439987
_cell_angle_gamma   140.54658722
_symmetry_Int_Tables_number   1
_chemical_formula_structural   Rb2SiSn3Se8
_chemical_formula_sum   'Rb2 Si1 Sn3 Se8'
_cell_volume   461.78279225
_cell_formula_units_Z   1
loop_
 _symmetry_equiv_pos_site_id
 _symmetry_equiv_pos_as_xyz
  1  'x, y, z'
loop_
 _atom_site_type_symbol
 _atom_site_label
 _atom_site_symmetry_multiplicity
 _atom_site_fract_x
 _atom_site_fract_y
 _atom_site_fract_z
 _atom_site_occupancy
  Rb  Rb0  1  0.32694707  0.02897192  0.96294867  1
  Rb  Rb1  1  0.02897192  0.32694707  0.96294867  1
  Si  Si0  1  0.60843905  0.60843905  0.38204497  1
  Sn  Sn0  1  0.46832452  0.84402836  0.55160925  1
  Sn  Sn1  1  0.84402836  0.46832452  0.55160925  1
  Sn  Sn2  1  0.70606354  0.70606354  0.87762328  1
  Se  Se0  1  0.49433912  0.11005992  0.44316269  1
  Se  Se1  1  0.11005992  0.49433912  0.44316269  1
  Se  Se2  1  0.40690419  0.40690419  0.15041643  1
  Se  Se3  1  0.74719506  0.92810042  0.35613360  1
  Se  Se4  1  0.41345391  0.41345391  0.64897702  1
  Se  Se5  1  0.84665664  0.51751427  0.88491494  1
  Se  Se6  1  0.51751427  0.84665664  0.88491494  1
  Se  Se7  1  0.92810042  0.74719506  0.35613360  1
loop_
_geom_bond_atom_site_label_1
_geom_bond_atom_site_label_2
_geom_bond_distance
_geom_bond_site_symmetry_2
Rb0 Se5 3.427482 1_555
Rb0 Se5 3.467542 1_445
Rb0 Se2 3.540807 1_556
Rb0 Se6 3.568384 1_545
Rb0 Se7 3.676497 1_446
Rb0 Se0 3.735437 1_556
Rb0 Se0 3.870786 1_555
Rb0 Se4 3.875349 1_555
Rb1 Se6 3.427482 1_555
Rb1 Se6 3.467542 1_445
Rb1 Se2 3.540807 1_556
Rb1 Se5 3.568384 1_455
Rb1 Se3 3.676497 1_446
Rb1 Se1 3.735437 1_556
Rb1 Se1 3.870786 1_555
Rb1 Se4 3.875349 1_555
Se0 Sn0 2.570355 1_545
Se0 Sn1 2.588364 1_555
Se1 Sn1 2.570355 1_455
Se1 Sn0 2.588364 1_555
Se2 Si0 2.251113 1_555
Se2 Sn2 2.706080 1_554
Se3 Si0 2.306661 1_555
Se3 Sn0 2.569945 1_555
Se4 Si0 2.245250 1_555
Se4 Sn2 2.689304 1_555
Se5 Sn1 2.472987 1_555
Se5 Sn2 3.114800 1_555
Se6 Sn0 2.472987 1_555
Se6 Sn2 3.114800 1_555
Se7 Si0 2.306661 1_555
Se7 Sn1 2.569946 1_555
