# generated using pymatgen
data_Rb4Si2Au7
_symmetry_space_group_name_H-M   'P 1'
_cell_length_a   10.00218545
_cell_length_b   10.00218546
_cell_length_c   10.00218604
_cell_angle_alpha   37.98895805
_cell_angle_beta   37.98895745
_cell_angle_gamma   37.98895838
_symmetry_Int_Tables_number   1
_chemical_formula_structural   Rb4Si2Au7
_chemical_formula_sum   'Rb4 Si2 Au7'
_cell_volume   340.29078950
_cell_formula_units_Z   1
loop_
 _symmetry_equiv_pos_site_id
 _symmetry_equiv_pos_as_xyz
  1  'x, y, z'
loop_
 _atom_site_type_symbol
 _atom_site_label
 _atom_site_symmetry_multiplicity
 _atom_site_fract_x
 _atom_site_fract_y
 _atom_site_fract_z
 _atom_site_occupancy
  Rb  Rb0  1  0.68304294  0.68304294  0.68304294  1
  Rb  Rb1  1  0.31695706  0.31695706  0.31695706  1
  Rb  Rb2  1  0.80907256  0.80907256  0.80907256  1
  Rb  Rb3  1  0.19092744  0.19092744  0.19092744  1
  Si  Si0  1  0.54430960  0.54430960  0.54430960  1
  Si  Si1  1  0.45569040  0.45569040  0.45569040  1
  Au  Au0  1  0.00000000  0.00000000  0.00000000  1
  Au  Au1  1  0.22760341  0.22760341  0.79295923  1
  Au  Au2  1  0.79295923  0.22760341  0.22760341  1
  Au  Au3  1  0.22760341  0.79295923  0.22760341  1
  Au  Au4  1  0.77239659  0.20704077  0.77239659  1
  Au  Au5  1  0.77239659  0.77239659  0.20704077  1
  Au  Au6  1  0.20704077  0.77239659  0.77239659  1
loop_
_geom_bond_atom_site_label_1
_geom_bond_atom_site_label_2
_geom_bond_distance
_geom_bond_site_symmetry_2
Au0 Au1 2.821454 1_554
Au0 Au5 2.821454 1_445
Au0 Au2 2.821454 1_455
Au0 Au6 2.821454 1_544
Au0 Au3 2.821454 1_545
Au0 Au4 2.821454 1_454
Au0 Rb0 3.786587 1_544
Au0 Rb1 3.786587 1_455
Au0 Rb1 3.786588 1_545
Au0 Rb0 3.786588 1_454
Au0 Rb1 3.786588 1_554
Au0 Rb0 3.786588 1_445
Au1 Si1 2.394011 1_555
Au1 Rb3 3.423839 1_556
Au1 Rb1 3.479936 1_555
Au1 Rb2 3.662355 1_545
Au1 Rb2 3.662355 1_455
Au2 Si1 2.394011 1_555
Au2 Rb3 3.423839 1_655
Au2 Rb1 3.479936 1_555
Au2 Rb2 3.662354 1_554
Au2 Rb2 3.662355 1_545
Au3 Si1 2.394011 1_555
Au3 Rb3 3.423839 1_565
Au3 Rb1 3.479936 1_555
Au3 Rb2 3.662354 1_554
Au3 Rb2 3.662355 1_455
Au4 Si0 2.394011 1_555
Au4 Rb2 3.423839 1_545
Au4 Rb0 3.479936 1_555
Au4 Rb3 3.662354 1_556
Au4 Rb3 3.662355 1_655
Au5 Si0 2.394011 1_555
Au5 Rb2 3.423839 1_554
Au5 Rb0 3.479936 1_555
Au5 Rb3 3.662355 1_565
Au5 Rb3 3.662355 1_655
Au6 Si0 2.394011 1_555
Au6 Rb2 3.423839 1_455
Au6 Rb0 3.479936 1_555
Au6 Rb3 3.662354 1_556
Au6 Rb3 3.662355 1_565
