# generated using pymatgen
data_VZn(PtRh)3
_symmetry_space_group_name_H-M   'P 1'
_cell_length_a   3.81418212
_cell_length_b   3.86701003
_cell_length_c   7.66572126
_cell_angle_alpha   90.00000000
_cell_angle_beta   90.00000000
_cell_angle_gamma   90.00000000
_symmetry_Int_Tables_number   1
_chemical_formula_structural   VZn(PtRh)3
_chemical_formula_sum   'V1 Zn1 Pt3 Rh3'
_cell_volume   113.06540630
_cell_formula_units_Z   1
loop_
 _symmetry_equiv_pos_site_id
 _symmetry_equiv_pos_as_xyz
  1  'x, y, z'
loop_
 _atom_site_type_symbol
 _atom_site_label
 _atom_site_symmetry_multiplicity
 _atom_site_fract_x
 _atom_site_fract_y
 _atom_site_fract_z
 _atom_site_occupancy
  V  V0  1  0.00000000  0.00000000  0.00000000  1
  Zn  Zn0  1  0.00000000  0.00000000  0.50000000  1
  Pt  Pt0  1  0.50000000  0.50000000  0.50000000  1
  Pt  Pt1  1  0.00000000  0.50000000  0.24107466  1
  Pt  Pt2  1  0.00000000  0.50000000  0.75892534  1
  Rh  Rh0  1  0.50000000  0.50000000  0.00000000  1
  Rh  Rh1  1  0.50000000  0.00000000  0.23849617  1
  Rh  Rh2  1  0.50000000  0.00000000  0.76150383  1
loop_
_geom_bond_atom_site_label_1
_geom_bond_atom_site_label_2
_geom_bond_distance
_geom_bond_site_symmetry_2
Pt0 Zn0 2.715776 1_655
Pt0 Zn0 2.715776 1_565
Pt0 Zn0 2.715776 1_555
Pt0 Zn0 2.715776 1_665
Pt0 Pt2 2.752567 1_655
Pt0 Pt2 2.752567 1_555
Pt0 Pt1 2.752567 1_655
Pt0 Pt1 2.752567 1_555
Pt0 Rh2 2.785126 1_565
Pt0 Rh2 2.785126 1_555
Pt0 Rh1 2.785126 1_565
Pt0 Rh1 2.785126 1_555
Pt1 Rh0 2.655587 1_555
Pt1 Rh0 2.655587 1_455
Pt1 V0 2.674619 1_555
Pt1 V0 2.674619 1_565
Pt1 Rh1 2.715848 1_555
Pt1 Rh1 2.715848 1_465
Pt1 Rh1 2.715848 1_455
Pt1 Rh1 2.715848 1_565
Pt1 Zn0 2.770933 1_565
Pt1 Zn0 2.770933 1_555
Pt2 Rh0 2.655587 1_556
Pt2 Rh0 2.655587 1_456
Pt2 V0 2.674619 1_556
Pt2 V0 2.674619 1_566
Pt2 Rh2 2.715848 1_555
Pt2 Rh2 2.715848 1_565
Pt2 Rh2 2.715848 1_465
Pt2 Rh2 2.715848 1_455
Pt2 Zn0 2.770933 1_565
Pt2 Zn0 2.770933 1_555
Rh0 Rh1 2.661000 1_565
Rh0 Rh1 2.661000 1_555
Rh0 Rh2 2.661000 1_554
Rh0 Rh2 2.661000 1_564
Rh0 V0 2.715776 1_565
Rh0 V0 2.715776 1_655
Rh0 V0 2.715776 1_665
Rh0 V0 2.715776 1_555
Rh1 V0 2.641870 1_655
Rh1 V0 2.641870 1_555
Rh1 Zn0 2.766854 1_555
Rh1 Zn0 2.766854 1_655
Rh2 V0 2.641870 1_556
Rh2 V0 2.641870 1_656
Rh2 Zn0 2.766854 1_655
Rh2 Zn0 2.766854 1_555
