# generated using pymatgen
data_LiIn2Ir
_symmetry_space_group_name_H-M   'P 1'
_cell_length_a   4.58529046
_cell_length_b   4.58529002
_cell_length_c   4.58529103
_cell_angle_alpha   59.99999997
_cell_angle_beta   60.00000318
_cell_angle_gamma   59.99999470
_symmetry_Int_Tables_number   1
_chemical_formula_structural   LiIn2Ir
_chemical_formula_sum   'Li1 In2 Ir1'
_cell_volume   68.16878638
_cell_formula_units_Z   1
loop_
 _symmetry_equiv_pos_site_id
 _symmetry_equiv_pos_as_xyz
  1  'x, y, z'
loop_
 _atom_site_type_symbol
 _atom_site_label
 _atom_site_symmetry_multiplicity
 _atom_site_fract_x
 _atom_site_fract_y
 _atom_site_fract_z
 _atom_site_occupancy
  Li  Li0  1  0.50000000  0.50000000  0.50000000  1
  In  In0  1  0.75000000  0.75000000  0.75000000  1
  In  In1  1  0.25000000  0.25000000  0.25000000  1
  Ir  Ir0  1  0.00000000  -0.00000000  -0.00000000  1
loop_
_geom_bond_atom_site_label_1
_geom_bond_atom_site_label_2
_geom_bond_distance
_geom_bond_site_symmetry_2
In0 Ir0 2.807905 1_656
In0 Li0 2.807905 1_565
In0 Li0 2.807905 1_655
In0 Ir0 2.807905 1_566
In0 Li0 2.807906 1_555
In0 Ir0 2.807906 1_666
In0 Ir0 2.807906 1_665
In0 Li0 2.807906 1_556
In1 Li0 2.807905 1_545
In1 Ir0 2.807905 1_565
In1 Li0 2.807905 1_455
In1 Ir0 2.807905 1_655
In1 Ir0 2.807906 1_555
In1 Li0 2.807906 1_555
In1 Li0 2.807906 1_554
In1 Ir0 2.807906 1_556
Ir0 Li0 3.242290 1_545
Ir0 Li0 3.242290 1_455
Ir0 Li0 3.242290 1_454
Ir0 Li0 3.242290 1_544
Ir0 Li0 3.242290 1_554
Ir0 Li0 3.242290 1_445
