# generated using pymatgen
data_SrOs6Pb3O19
_symmetry_space_group_name_H-M   'P 1'
_cell_length_a   7.97474975
_cell_length_b   7.97475096
_cell_length_c   7.99334261
_cell_angle_alpha   109.51845819
_cell_angle_beta   109.51846126
_cell_angle_gamma   109.42393916
_symmetry_Int_Tables_number   1
_chemical_formula_structural   SrOs6Pb3O19
_chemical_formula_sum   'Sr1 Os6 Pb3 O19'
_cell_volume   391.09945768
_cell_formula_units_Z   1
loop_
 _symmetry_equiv_pos_site_id
 _symmetry_equiv_pos_as_xyz
  1  'x, y, z'
loop_
 _atom_site_type_symbol
 _atom_site_label
 _atom_site_symmetry_multiplicity
 _atom_site_fract_x
 _atom_site_fract_y
 _atom_site_fract_z
 _atom_site_occupancy
  Sr  Sr0  1  0.00000000  0.00000000  0.31418809  1
  Os  Os0  1  0.36181944  0.50103579  0.86177889  1
  Os  Os1  1  0.86073039  0.36024645  0.49842679  1
  Os  Os2  1  0.49951507  0.13926961  0.63769640  1
  Os  Os3  1  0.13921536  0.63818056  0.49995746  1
  Os  Os4  1  0.49896421  0.86078464  0.36074210  1
  Os  Os5  1  0.63975355  0.50048493  0.13818134  1
  Pb  Pb0  1  0.00025590  0.29363848  0.99899514  1
  Pb  Pb1  1  0.70636152  0.70661641  0.70535665  1
  Pb  Pb2  1  0.29338359  0.99974410  0.99873924  1
  O  O0  1  0.33030015  0.99730381  0.33178837  1
  O  O1  1  0.33400856  0.33372087  0.00009533  1
  O  O2  1  0.99971132  0.66599144  0.66608677  1
  O  O3  1  0.66700266  0.66969985  0.00148622  1
  O  O4  1  0.00269619  0.33299734  0.33448356  1
  O  O5  1  0.66627913  0.00028868  0.66637446  1
  O  O6  1  1.00000000  1.00000000  0.99104326  1
  O  O7  1  0.35608346  0.29223663  0.64325910  1
  O  O8  1  0.06470251  0.34753950  0.70449345  1
  O  O9  1  0.71318109  0.35397792  0.64608339  1
  O  O10  1  0.35512990  0.64998873  0.71530560  1
  O  O11  1  0.28283600  0.93529749  0.63978995  1
  O  O12  1  0.64602208  0.35920317  0.29210348  1
  O  O13  1  0.29485883  0.64487010  0.36017671  1
  O  O14  1  0.70776337  0.06384583  0.35102247  1
  O  O15  1  0.93615417  0.64391654  0.28717664  1
  O  O16  1  0.65246050  0.71716400  0.35695195  1
  O  O17  1  0.64079683  0.28681891  0.93290230  1
  O  O18  1  0.35001127  0.70514117  0.06531688  1
loop_
_geom_bond_atom_site_label_1
_geom_bond_atom_site_label_2
_geom_bond_distance
_geom_bond_site_symmetry_2
O0 Os4 1.995579 1_555
O0 Os2 2.002738 1_565
O0 Pb2 2.586299 1_554
O0 Sr0 2.598191 1_565
O1 Os5 1.999005 1_555
O1 Os0 2.001175 1_554
O1 Pb0 2.569622 1_554
O1 Pb2 2.569657 1_544
O2 Os1 1.999006 1_555
O2 Os3 2.001188 1_655
O2 Pb2 2.569626 1_655
O2 Pb1 2.569644 1_555
O3 Os0 1.995581 1_554
O3 Os5 2.002751 1_555
O3 Pb1 2.586282 1_554
O3 Sr0 2.598199 1_665
O4 Os3 1.995580 1_555
O4 Os1 2.002745 1_455
O4 Pb0 2.586288 1_554
O4 Sr0 2.598202 1_555
O5 Os2 1.999005 1_555
O5 Os4 2.001181 1_545
O5 Pb1 2.569638 1_545
O5 Pb0 2.569653 1_655
O6 Pb0 2.320528 1_665
O6 Pb1 2.320530 1_555
O6 Pb2 2.320535 1_655
O6 Sr0 2.583007 1_666
O7 Os2 1.929821 1_555
O7 Os0 1.943744 1_555
O7 Sr0 2.631501 1_555
O8 Os0 1.935253 1_555
O8 Os1 1.949389 1_455
O8 Pb0 2.707056 1_555
O9 Os1 1.925722 1_555
O9 Os2 1.935494 1_555
O9 Pb1 2.713767 1_555
O10 Os0 1.927280 1_555
O10 Os3 1.933912 1_555
O10 Pb1 2.717962 1_555
O11 Os3 1.935254 1_555
O11 Os2 1.949384 1_565
O11 Pb2 2.707057 1_555
O12 Os5 1.925709 1_555
O12 Os1 1.935498 1_555
O12 Pb2 2.713769 1_544
O13 Os3 1.927268 1_555
O13 Os4 1.933912 1_555
O13 Pb0 2.717964 1_554
O14 Os1 1.929834 1_555
O14 Os4 1.943730 1_545
O14 Sr0 2.631498 1_655
O15 Os5 1.929834 1_555
O15 Os3 1.943721 1_655
O15 Sr0 2.631506 1_665
O16 Os4 1.935254 1_555
O16 Os5 1.949375 1_555
O16 Pb1 2.707078 1_555
O17 Os2 1.925722 1_555
O17 Os5 1.935498 1_556
O17 Pb0 2.713775 1_655
O18 Os4 1.927274 1_555
O18 Os0 1.933898 1_554
O18 Pb2 2.717958 1_554
