# generated using pymatgen
data_KRb2OsO4
_symmetry_space_group_name_H-M   'P 1'
_cell_length_a   5.92453588
_cell_length_b   5.92453538
_cell_length_c   5.86852625
_cell_angle_alpha   114.19557640
_cell_angle_beta   114.19557238
_cell_angle_gamma   100.83897646
_symmetry_Int_Tables_number   1
_chemical_formula_structural   KRb2OsO4
_chemical_formula_sum   'K1 Rb2 Os1 O4'
_cell_volume   154.90123648
_cell_formula_units_Z   1
loop_
 _symmetry_equiv_pos_site_id
 _symmetry_equiv_pos_as_xyz
  1  'x, y, z'
loop_
 _atom_site_type_symbol
 _atom_site_label
 _atom_site_symmetry_multiplicity
 _atom_site_fract_x
 _atom_site_fract_y
 _atom_site_fract_z
 _atom_site_occupancy
  K  K0  1  0.49966662  0.49966662  0.00000200  1
  Rb  Rb0  1  0.74919995  0.24919995  0.49999900  1
  Rb  Rb1  1  0.24919995  0.74919995  0.49999900  1
  Os  Os0  1  0.99826176  0.99826176  1.00000000  1
  O  O0  1  0.78648054  0.20049622  0.00000300  1
  O  O1  1  0.20049622  0.78648054  0.00000300  1
  O  O2  1  0.20899262  0.20899262  0.40128529  1
  O  O3  1  0.80770533  0.80770533  0.59871071  1
loop_
_geom_bond_atom_site_label_1
_geom_bond_atom_site_label_2
_geom_bond_distance
_geom_bond_site_symmetry_2
K0 O0 2.676138 1_555
K0 O1 2.676138 1_555
K0 O3 2.690969 1_555
K0 O2 2.691006 1_554
O0 Os0 1.890829 1_544
O0 Rb0 2.933087 1_555
O0 Rb1 2.933099 1_544
O0 Rb1 2.988072 1_655
O0 Rb0 2.988115 1_554
O1 Os0 1.890829 1_454
O1 Rb1 2.933087 1_555
O1 Rb0 2.933099 1_454
O1 Rb0 2.988072 1_565
O1 Rb1 2.988115 1_554
O2 Os0 1.804698 1_444
O2 Rb1 2.952248 1_555
O2 Rb0 2.952249 1_555
O2 Rb1 3.039293 1_545
O2 Rb0 3.039294 1_455
O3 Os0 1.804716 1_555
O3 Rb0 2.952250 1_565
O3 Rb1 2.952250 1_655
O3 Rb0 3.039289 1_555
O3 Rb1 3.039289 1_555
