# generated using pymatgen
data_SrGa2SiPd
_symmetry_space_group_name_H-M   'P 1'
_cell_length_a   6.07539617
_cell_length_b   6.07539502
_cell_length_c   5.88207627
_cell_angle_alpha   90.00000000
_cell_angle_beta   90.00000000
_cell_angle_gamma   115.93526901
_symmetry_Int_Tables_number   1
_chemical_formula_structural   SrGa2SiPd
_chemical_formula_sum   'Sr2 Ga4 Si2 Pd2'
_cell_volume   195.24455298
_cell_formula_units_Z   2
loop_
 _symmetry_equiv_pos_site_id
 _symmetry_equiv_pos_as_xyz
  1  'x, y, z'
loop_
 _atom_site_type_symbol
 _atom_site_label
 _atom_site_symmetry_multiplicity
 _atom_site_fract_x
 _atom_site_fract_y
 _atom_site_fract_z
 _atom_site_occupancy
  Sr  Sr0  1  0.23495249  0.76504751  0.75000000  1
  Sr  Sr1  1  0.76504751  0.23495249  0.25000000  1
  Ga  Ga0  1  0.72359586  0.72359586  0.00000000  1
  Ga  Ga1  1  0.72359586  0.72359586  0.50000000  1
  Ga  Ga2  1  0.27640414  0.27640414  0.00000000  1
  Ga  Ga3  1  0.27640414  0.27640414  0.50000000  1
  Si  Si0  1  0.65145238  0.34854762  0.75000000  1
  Si  Si1  1  0.34854762  0.65145238  0.25000000  1
  Pd  Pd0  1  0.88941116  0.11058884  0.75000000  1
  Pd  Pd1  1  0.11058884  0.88941116  0.25000000  1
loop_
_geom_bond_atom_site_label_1
_geom_bond_atom_site_label_2
_geom_bond_distance
_geom_bond_site_symmetry_2
Ga0 Pd0 2.575526 1_564
Ga0 Pd1 2.575527 1_655
Ga0 Si0 2.583182 1_554
Ga0 Si1 2.583182 1_555
Ga0 Sr1 3.345600 1_565
Ga0 Sr0 3.345601 1_654
Ga0 Sr1 3.419501 1_555
Ga0 Sr0 3.419502 1_554
Ga1 Pd0 2.575526 1_565
Ga1 Pd1 2.575527 1_655
Ga1 Si0 2.583182 1_555
Ga1 Si1 2.583182 1_555
Ga1 Sr1 3.345600 1_565
Ga1 Sr0 3.345601 1_655
Ga1 Sr1 3.419501 1_555
Ga1 Sr0 3.419502 1_555
Ga2 Pd1 2.575526 1_545
Ga2 Pd0 2.575527 1_454
Ga2 Si1 2.583182 1_555
Ga2 Si0 2.583182 1_554
Ga2 Sr0 3.345600 1_544
Ga2 Sr1 3.345601 1_455
Ga2 Sr0 3.419501 1_554
Ga2 Sr1 3.419502 1_555
Ga3 Pd1 2.575526 1_545
Ga3 Pd0 2.575527 1_455
Ga3 Si1 2.583182 1_555
Ga3 Si0 2.583182 1_555
Ga3 Sr0 3.345600 1_545
Ga3 Sr1 3.345601 1_455
Ga3 Sr0 3.419501 1_555
Ga3 Sr1 3.419502 1_555
Si0 Sr1 3.165263 1_555
Si0 Sr1 3.165263 1_556
Si0 Sr0 3.335196 1_545
Si0 Sr0 3.335196 1_655
Si1 Sr0 3.165263 1_555
Si1 Sr0 3.165263 1_554
Si1 Sr1 3.335196 1_565
Si1 Sr1 3.335196 1_455
Pd0 Si0 2.451170 1_555
Pd0 Sr1 3.207926 1_555
Pd0 Sr1 3.207926 1_556
Pd0 Sr0 3.559358 1_645
Pd0 Sr0 3.593768 1_655
Pd0 Sr0 3.593768 1_545
Pd1 Si1 2.451170 1_555
Pd1 Sr0 3.207926 1_555
Pd1 Sr0 3.207926 1_554
Pd1 Sr1 3.559358 1_465
Pd1 Sr1 3.593768 1_455
Pd1 Sr1 3.593768 1_565
