# generated using pymatgen
data_HfTi2InC2
_symmetry_space_group_name_H-M   'P 1'
_cell_length_a   6.38749909
_cell_length_b   6.38749776
_cell_length_c   38.80263066
_cell_angle_alpha   90.00000000
_cell_angle_beta   90.00000000
_cell_angle_gamma   119.99998648
_symmetry_Int_Tables_number   1
_chemical_formula_structural   HfTi2InC2
_chemical_formula_sum   'Hf16 Ti32 In16 C32'
_cell_volume   1371.05056940
_cell_formula_units_Z   16
loop_
 _symmetry_equiv_pos_site_id
 _symmetry_equiv_pos_as_xyz
  1  'x, y, z'
loop_
 _atom_site_type_symbol
 _atom_site_label
 _atom_site_symmetry_multiplicity
 _atom_site_fract_x
 _atom_site_fract_y
 _atom_site_fract_z
 _atom_site_occupancy
  Hf  Hf0_0  1  0.00000000  0.00000000  0.00000000  1
  Hf  Hf0_1  1  0.00000000  0.00000000  0.50000000  1
  Hf  Hf0_2  1  0.00000000  0.50000000  0.00000000  1
  Hf  Hf0_3  1  0.00000000  0.50000000  0.50000000  1
  Hf  Hf0_4  1  0.50000000  0.00000000  0.00000000  1
  Hf  Hf0_5  1  0.50000000  0.00000000  0.50000000  1
  Hf  Hf0_6  1  0.50000000  0.50000000  0.00000000  1
  Hf  Hf0_7  1  0.50000000  0.50000000  0.50000000  1
  Hf  Hf1_0  1  0.00000000  0.00000000  0.25000000  1
  Hf  Hf1_1  1  0.00000000  0.00000000  0.75000000  1
  Hf  Hf1_2  1  0.00000000  0.50000000  0.25000000  1
  Hf  Hf1_3  1  0.00000000  0.50000000  0.75000000  1
  Hf  Hf1_4  1  0.50000000  0.00000000  0.25000000  1
  Hf  Hf1_5  1  0.50000000  0.00000000  0.75000000  1
  Hf  Hf1_6  1  0.50000000  0.50000000  0.25000000  1
  Hf  Hf1_7  1  0.50000000  0.50000000  0.75000000  1
  Ti  Ti0_0  1  0.16666650  0.33333350  0.06292599  1
  Ti  Ti0_1  1  0.16666650  0.33333350  0.56292599  1
  Ti  Ti0_2  1  0.16666650  0.83333350  0.06292599  1
  Ti  Ti0_3  1  0.16666650  0.83333350  0.56292599  1
  Ti  Ti0_4  1  0.66666650  0.33333350  0.06292599  1
  Ti  Ti0_5  1  0.66666650  0.33333350  0.56292599  1
  Ti  Ti0_6  1  0.66666650  0.83333350  0.06292599  1
  Ti  Ti0_7  1  0.66666650  0.83333350  0.56292599  1
  Ti  Ti1_0  1  0.16666650  0.33333350  0.18707401  1
  Ti  Ti1_1  1  0.16666650  0.33333350  0.68707401  1
  Ti  Ti1_2  1  0.16666650  0.83333350  0.18707401  1
  Ti  Ti1_3  1  0.16666650  0.83333350  0.68707401  1
  Ti  Ti1_4  1  0.66666650  0.33333350  0.18707401  1
  Ti  Ti1_5  1  0.66666650  0.33333350  0.68707401  1
  Ti  Ti1_6  1  0.66666650  0.83333350  0.18707401  1
  Ti  Ti1_7  1  0.66666650  0.83333350  0.68707401  1
  Ti  Ti2_0  1  0.33333350  0.16666650  0.31292599  1
  Ti  Ti2_1  1  0.33333350  0.16666650  0.81292599  1
  Ti  Ti2_2  1  0.33333350  0.66666650  0.31292599  1
  Ti  Ti2_3  1  0.33333350  0.66666650  0.81292599  1
  Ti  Ti2_4  1  0.83333350  0.16666650  0.31292599  1
  Ti  Ti2_5  1  0.83333350  0.16666650  0.81292599  1
  Ti  Ti2_6  1  0.83333350  0.66666650  0.31292599  1
  Ti  Ti2_7  1  0.83333350  0.66666650  0.81292599  1
  Ti  Ti3_0  1  0.33333350  0.16666650  0.43707401  1
  Ti  Ti3_1  1  0.33333350  0.16666650  0.93707401  1
  Ti  Ti3_2  1  0.33333350  0.66666650  0.43707401  1
  Ti  Ti3_3  1  0.33333350  0.66666650  0.93707401  1
  Ti  Ti3_4  1  0.83333350  0.16666650  0.43707401  1
  Ti  Ti3_5  1  0.83333350  0.16666650  0.93707401  1
  Ti  Ti3_6  1  0.83333350  0.66666650  0.43707401  1
  Ti  Ti3_7  1  0.83333350  0.66666650  0.93707401  1
  In  In0_0  1  0.00000000  0.00000000  0.12500000  1
  In  In0_1  1  0.00000000  0.00000000  0.62500000  1
  In  In0_2  1  0.00000000  0.50000000  0.12500000  1
  In  In0_3  1  0.00000000  0.50000000  0.62500000  1
  In  In0_4  1  0.50000000  0.00000000  0.12500000  1
  In  In0_5  1  0.50000000  0.00000000  0.62500000  1
  In  In0_6  1  0.50000000  0.50000000  0.12500000  1
  In  In0_7  1  0.50000000  0.50000000  0.62500000  1
  In  In1_0  1  0.00000000  0.00000000  0.37500000  1
  In  In1_1  1  0.00000000  0.00000000  0.87500000  1
  In  In1_2  1  0.00000000  0.50000000  0.37500000  1
  In  In1_3  1  0.00000000  0.50000000  0.87500000  1
  In  In1_4  1  0.50000000  0.00000000  0.37500000  1
  In  In1_5  1  0.50000000  0.00000000  0.87500000  1
  In  In1_6  1  0.50000000  0.50000000  0.37500000  1
  In  In1_7  1  0.50000000  0.50000000  0.87500000  1
  C  C0_0  1  0.16666650  0.33333350  0.46361426  1
  C  C0_1  1  0.16666650  0.33333350  0.96361426  1
  C  C0_2  1  0.16666650  0.83333350  0.46361426  1
  C  C0_3  1  0.16666650  0.83333350  0.96361426  1
  C  C0_4  1  0.66666650  0.33333350  0.46361426  1
  C  C0_5  1  0.66666650  0.33333350  0.96361426  1
  C  C0_6  1  0.66666650  0.83333350  0.46361426  1
  C  C0_7  1  0.66666650  0.83333350  0.96361426  1
  C  C1_0  1  0.33333350  0.16666650  0.03638574  1
  C  C1_1  1  0.33333350  0.16666650  0.53638574  1
  C  C1_2  1  0.33333350  0.66666650  0.03638574  1
  C  C1_3  1  0.33333350  0.66666650  0.53638574  1
  C  C1_4  1  0.83333350  0.16666650  0.03638574  1
  C  C1_5  1  0.83333350  0.16666650  0.53638574  1
  C  C1_6  1  0.83333350  0.66666650  0.03638574  1
  C  C1_7  1  0.83333350  0.66666650  0.53638574  1
  C  C2_0  1  0.33333350  0.16666650  0.21361426  1
  C  C2_1  1  0.33333350  0.16666650  0.71361426  1
  C  C2_2  1  0.33333350  0.66666650  0.21361426  1
  C  C2_3  1  0.33333350  0.66666650  0.71361426  1
  C  C2_4  1  0.83333350  0.16666650  0.21361426  1
  C  C2_5  1  0.83333350  0.16666650  0.71361426  1
  C  C2_6  1  0.83333350  0.66666650  0.21361426  1
  C  C2_7  1  0.83333350  0.66666650  0.71361426  1
  C  C3_0  1  0.16666650  0.33333350  0.28638574  1
  C  C3_1  1  0.16666650  0.33333350  0.78638574  1
  C  C3_2  1  0.16666650  0.83333350  0.28638574  1
  C  C3_3  1  0.16666650  0.83333350  0.78638574  1
  C  C3_4  1  0.66666650  0.33333350  0.28638574  1
  C  C3_5  1  0.66666650  0.33333350  0.78638574  1
  C  C3_6  1  0.66666650  0.83333350  0.28638574  1
  C  C3_7  1  0.66666650  0.83333350  0.78638574  1
loop_
_geom_bond_atom_site_label_1
_geom_bond_atom_site_label_2
_geom_bond_distance
_geom_bond_site_symmetry_2
In0_0 Ti1_2 3.033402 1_545
In0_0 Ti0_2 3.033402 1_545
In0_0 Ti1_0 3.033403 1_555
In0_0 Ti0_0 3.033403 1_555
In0_0 Ti1_6 3.033404 1_445
In0_0 Ti0_6 3.033404 1_445
In0_0 In0_2 3.193749 1_545
In0_0 In0_2 3.193749 1_555
In0_0 In0_4 3.193750 1_555
In0_0 In0_4 3.193750 1_455
In0_0 In0_6 3.193750 1_555
In0_0 In0_6 3.193750 1_445
In0_1 Ti1_3 3.033402 1_545
In0_1 Ti0_3 3.033402 1_545
In0_1 Ti1_1 3.033403 1_555
In0_1 Ti0_1 3.033403 1_555
In0_1 Ti1_7 3.033404 1_445
In0_1 Ti0_7 3.033404 1_445
In0_1 In0_3 3.193749 1_555
In0_1 In0_3 3.193749 1_545
In0_1 In0_5 3.193750 1_555
In0_1 In0_5 3.193750 1_455
In0_1 In0_7 3.193750 1_555
In0_1 In0_7 3.193750 1_445
In0_2 Ti1_0 3.033402 1_555
In0_2 Ti0_0 3.033402 1_555
In0_2 Ti1_2 3.033403 1_555
In0_2 Ti0_2 3.033403 1_555
In0_2 Ti1_4 3.033404 1_455
In0_2 Ti0_4 3.033404 1_455
In0_2 In0_6 3.193750 1_555
In0_2 In0_6 3.193750 1_455
In0_2 In0_4 3.193750 1_565
In0_2 In0_4 3.193750 1_455
In0_3 Ti1_1 3.033402 1_555
In0_3 Ti0_1 3.033402 1_555
In0_3 Ti1_3 3.033403 1_555
In0_3 Ti0_3 3.033403 1_555
In0_3 Ti1_5 3.033404 1_455
In0_3 Ti0_5 3.033404 1_455
In0_3 In0_7 3.193750 1_555
In0_3 In0_7 3.193750 1_455
In0_3 In0_5 3.193750 1_455
In0_3 In0_5 3.193750 1_565
In0_4 Ti1_6 3.033402 1_545
In0_4 Ti0_6 3.033402 1_545
In0_4 Ti1_4 3.033403 1_555
In0_4 Ti0_4 3.033403 1_555
In0_4 Ti1_2 3.033404 1_545
In0_4 Ti0_2 3.033404 1_545
In0_4 In0_6 3.193749 1_545
In0_4 In0_6 3.193749 1_555
In0_5 Ti1_7 3.033402 1_545
In0_5 Ti0_7 3.033402 1_545
In0_5 Ti1_5 3.033403 1_555
In0_5 Ti0_5 3.033403 1_555
In0_5 Ti1_3 3.033404 1_545
In0_5 Ti0_3 3.033404 1_545
In0_5 In0_7 3.193749 1_545
In0_5 In0_7 3.193749 1_555
In0_6 Ti1_4 3.033402 1_555
In0_6 Ti0_4 3.033402 1_555
In0_6 Ti1_6 3.033403 1_555
In0_6 Ti0_6 3.033403 1_555
In0_6 Ti1_0 3.033404 1_555
In0_6 Ti0_0 3.033404 1_555
In0_7 Ti1_5 3.033402 1_555
In0_7 Ti0_5 3.033402 1_555
In0_7 Ti1_7 3.033403 1_555
In0_7 Ti0_7 3.033403 1_555
In0_7 Ti1_1 3.033404 1_555
In0_7 Ti0_1 3.033404 1_555
In1_0 Ti3_4 3.033402 1_455
In1_0 Ti2_4 3.033402 1_455
In1_0 Ti3_6 3.033403 1_445
In1_0 Ti2_6 3.033403 1_445
In1_0 Ti3_0 3.033404 1_555
In1_0 Ti2_0 3.033404 1_555
In1_0 In1_2 3.193749 1_555
In1_0 In1_2 3.193749 1_545
In1_0 In1_4 3.193750 1_555
In1_0 In1_4 3.193750 1_455
In1_0 In1_6 3.193750 1_555
In1_0 In1_6 3.193750 1_445
In1_1 Ti3_5 3.033402 1_455
In1_1 Ti2_5 3.033402 1_455
In1_1 Ti3_7 3.033403 1_445
In1_1 Ti2_7 3.033403 1_445
In1_1 Ti3_1 3.033404 1_555
In1_1 Ti2_1 3.033404 1_555
In1_1 In1_3 3.193749 1_545
In1_1 In1_3 3.193749 1_555
In1_1 In1_5 3.193750 1_555
In1_1 In1_5 3.193750 1_455
In1_1 In1_7 3.193750 1_555
In1_1 In1_7 3.193750 1_445
In1_2 Ti3_6 3.033402 1_455
In1_2 Ti2_6 3.033402 1_455
In1_2 Ti3_4 3.033403 1_455
In1_2 Ti2_4 3.033403 1_455
In1_2 Ti3_2 3.033404 1_555
In1_2 Ti2_2 3.033404 1_555
In1_2 In1_6 3.193750 1_555
In1_2 In1_6 3.193750 1_455
In1_2 In1_4 3.193750 1_565
In1_2 In1_4 3.193750 1_455
In1_3 Ti3_7 3.033402 1_455
In1_3 Ti2_7 3.033402 1_455
In1_3 Ti3_5 3.033403 1_455
In1_3 Ti2_5 3.033403 1_455
In1_3 Ti3_3 3.033404 1_555
In1_3 Ti2_3 3.033404 1_555
In1_3 In1_7 3.193750 1_555
In1_3 In1_7 3.193750 1_455
In1_3 In1_5 3.193750 1_565
In1_3 In1_5 3.193750 1_455
In1_4 Ti3_0 3.033402 1_555
In1_4 Ti2_0 3.033402 1_555
In1_4 Ti3_2 3.033403 1_545
In1_4 Ti2_2 3.033403 1_545
In1_4 Ti3_4 3.033404 1_555
In1_4 Ti2_4 3.033404 1_555
In1_4 In1_6 3.193749 1_545
In1_4 In1_6 3.193749 1_555
In1_5 Ti3_1 3.033402 1_555
In1_5 Ti2_1 3.033402 1_555
In1_5 Ti3_3 3.033403 1_545
In1_5 Ti2_3 3.033403 1_545
In1_5 Ti3_5 3.033404 1_555
In1_5 Ti2_5 3.033404 1_555
In1_5 In1_7 3.193749 1_545
In1_5 In1_7 3.193749 1_555
In1_6 Ti3_2 3.033402 1_555
In1_6 Ti2_2 3.033402 1_555
In1_6 Ti3_0 3.033403 1_555
In1_6 Ti2_0 3.033403 1_555
In1_6 Ti3_6 3.033404 1_555
In1_6 Ti2_6 3.033404 1_555
In1_7 Ti3_3 3.033402 1_555
In1_7 Ti2_3 3.033402 1_555
In1_7 Ti3_1 3.033403 1_555
In1_7 Ti2_1 3.033403 1_555
In1_7 Ti3_7 3.033404 1_555
In1_7 Ti2_7 3.033404 1_555
C0_0 Ti3_2 2.112003 1_555
C0_0 Ti3_4 2.112004 1_455
C0_0 Ti3_0 2.112008 1_555
C0_0 Hf0_3 2.322361 1_555
C0_0 Hf0_1 2.322363 1_555
C0_0 Hf0_7 2.322363 1_555
C0_1 Ti3_3 2.112003 1_555
C0_1 Ti3_5 2.112004 1_455
C0_1 Ti3_1 2.112008 1_555
C0_1 Hf0_2 2.322361 1_556
C0_1 Hf0_0 2.322363 1_556
C0_1 Hf0_6 2.322363 1_556
C0_2 Ti3_0 2.112003 1_565
C0_2 Ti3_6 2.112004 1_455
C0_2 Ti3_2 2.112008 1_555
C0_2 Hf0_1 2.322361 1_565
C0_2 Hf0_3 2.322363 1_555
C0_2 Hf0_5 2.322363 1_565
C0_3 Ti3_1 2.112003 1_565
C0_3 Ti3_7 2.112004 1_455
C0_3 Ti3_3 2.112008 1_555
C0_3 Hf0_0 2.322361 1_566
C0_3 Hf0_2 2.322363 1_556
C0_3 Hf0_4 2.322363 1_566
C0_4 Ti3_6 2.112003 1_555
C0_4 Ti3_0 2.112004 1_555
C0_4 Ti3_4 2.112008 1_555
C0_4 Hf0_7 2.322361 1_555
C0_4 Hf0_5 2.322363 1_555
C0_4 Hf0_3 2.322363 1_655
C0_5 Ti3_7 2.112003 1_555
C0_5 Ti3_1 2.112004 1_555
C0_5 Ti3_5 2.112008 1_555
C0_5 Hf0_6 2.322361 1_556
C0_5 Hf0_4 2.322363 1_556
C0_5 Hf0_2 2.322363 1_656
C0_6 Ti3_4 2.112003 1_565
C0_6 Ti3_2 2.112004 1_555
C0_6 Ti3_6 2.112008 1_555
C0_6 Hf0_5 2.322361 1_565
C0_6 Hf0_7 2.322363 1_555
C0_6 Hf0_1 2.322363 1_665
C0_7 Ti3_5 2.112003 1_565
C0_7 Ti3_3 2.112004 1_555
C0_7 Ti3_7 2.112008 1_555
C0_7 Hf0_4 2.322361 1_566
C0_7 Hf0_6 2.322363 1_556
C0_7 Hf0_0 2.322363 1_666
C1_0 Ti0_2 2.112003 1_545
C1_0 Ti0_4 2.112004 1_555
C1_0 Ti0_0 2.112008 1_555
C1_0 Hf0_4 2.322361 1_555
C1_0 Hf0_6 2.322363 1_555
C1_0 Hf0_0 2.322363 1_555
C1_1 Ti0_3 2.112003 1_545
C1_1 Ti0_5 2.112004 1_555
C1_1 Ti0_1 2.112008 1_555
C1_1 Hf0_5 2.322361 1_555
C1_1 Hf0_7 2.322363 1_555
C1_1 Hf0_1 2.322363 1_555
C1_2 Ti0_0 2.112003 1_555
C1_2 Ti0_6 2.112004 1_555
C1_2 Ti0_2 2.112008 1_555
C1_2 Hf0_6 2.322361 1_555
C1_2 Hf0_4 2.322363 1_565
C1_2 Hf0_2 2.322363 1_555
C1_3 Ti0_1 2.112003 1_555
C1_3 Ti0_7 2.112004 1_555
C1_3 Ti0_3 2.112008 1_555
C1_3 Hf0_7 2.322361 1_555
C1_3 Hf0_5 2.322363 1_565
C1_3 Hf0_3 2.322363 1_555
C1_4 Ti0_6 2.112003 1_545
C1_4 Ti0_0 2.112004 1_655
C1_4 Ti0_4 2.112008 1_555
C1_4 Hf0_0 2.322361 1_655
C1_4 Hf0_2 2.322363 1_655
C1_4 Hf0_4 2.322363 1_555
C1_5 Ti0_7 2.112003 1_545
C1_5 Ti0_1 2.112004 1_655
C1_5 Ti0_5 2.112008 1_555
C1_5 Hf0_1 2.322361 1_655
C1_5 Hf0_3 2.322363 1_655
C1_5 Hf0_5 2.322363 1_555
C1_6 Ti0_4 2.112003 1_555
C1_6 Ti0_2 2.112004 1_655
C1_6 Ti0_6 2.112008 1_555
C1_6 Hf0_2 2.322361 1_655
C1_6 Hf0_0 2.322363 1_665
C1_6 Hf0_6 2.322363 1_555
C1_7 Ti0_5 2.112003 1_555
C1_7 Ti0_3 2.112004 1_655
C1_7 Ti0_7 2.112008 1_555
C1_7 Hf0_3 2.322361 1_655
C1_7 Hf0_1 2.322363 1_665
C1_7 Hf0_7 2.322363 1_555
C2_0 Ti1_2 2.112003 1_545
C2_0 Ti1_4 2.112004 1_555
C2_0 Ti1_0 2.112008 1_555
C2_0 Hf1_4 2.322361 1_555
C2_0 Hf1_6 2.322363 1_555
C2_0 Hf1_0 2.322363 1_555
C2_1 Ti1_3 2.112003 1_545
C2_1 Ti1_5 2.112004 1_555
C2_1 Ti1_1 2.112008 1_555
C2_1 Hf1_5 2.322361 1_555
C2_1 Hf1_7 2.322363 1_555
C2_1 Hf1_1 2.322363 1_555
C2_2 Ti1_0 2.112003 1_555
C2_2 Ti1_6 2.112004 1_555
C2_2 Ti1_2 2.112008 1_555
C2_2 Hf1_6 2.322361 1_555
C2_2 Hf1_4 2.322363 1_565
C2_2 Hf1_2 2.322363 1_555
C2_3 Ti1_1 2.112003 1_555
C2_3 Ti1_7 2.112004 1_555
C2_3 Ti1_3 2.112008 1_555
C2_3 Hf1_7 2.322361 1_555
C2_3 Hf1_5 2.322363 1_565
C2_3 Hf1_3 2.322363 1_555
C2_4 Ti1_6 2.112003 1_545
C2_4 Ti1_0 2.112004 1_655
C2_4 Ti1_4 2.112008 1_555
C2_4 Hf1_0 2.322361 1_655
C2_4 Hf1_2 2.322363 1_655
C2_4 Hf1_4 2.322363 1_555
C2_5 Ti1_7 2.112003 1_545
C2_5 Ti1_1 2.112004 1_655
C2_5 Ti1_5 2.112008 1_555
C2_5 Hf1_1 2.322361 1_655
C2_5 Hf1_3 2.322363 1_655
C2_5 Hf1_5 2.322363 1_555
C2_6 Ti1_4 2.112003 1_555
C2_6 Ti1_2 2.112004 1_655
C2_6 Ti1_6 2.112008 1_555
C2_6 Hf1_2 2.322361 1_655
C2_6 Hf1_0 2.322363 1_665
C2_6 Hf1_6 2.322363 1_555
C2_7 Ti1_5 2.112003 1_555
C2_7 Ti1_3 2.112004 1_655
C2_7 Ti1_7 2.112008 1_555
C2_7 Hf1_3 2.322361 1_655
C2_7 Hf1_1 2.322363 1_665
C2_7 Hf1_7 2.322363 1_555
C3_0 Ti2_2 2.112003 1_555
C3_0 Ti2_4 2.112004 1_455
C3_0 Ti2_0 2.112008 1_555
C3_0 Hf1_2 2.322361 1_555
C3_0 Hf1_0 2.322363 1_555
C3_0 Hf1_6 2.322363 1_555
C3_1 Ti2_3 2.112003 1_555
C3_1 Ti2_5 2.112004 1_455
C3_1 Ti2_1 2.112008 1_555
C3_1 Hf1_3 2.322361 1_555
C3_1 Hf1_1 2.322363 1_555
C3_1 Hf1_7 2.322363 1_555
C3_2 Ti2_0 2.112003 1_565
C3_2 Ti2_6 2.112004 1_455
C3_2 Ti2_2 2.112008 1_555
C3_2 Hf1_0 2.322361 1_565
C3_2 Hf1_2 2.322363 1_555
C3_2 Hf1_4 2.322363 1_565
C3_3 Ti2_1 2.112003 1_565
C3_3 Ti2_7 2.112004 1_455
C3_3 Ti2_3 2.112008 1_555
C3_3 Hf1_1 2.322361 1_565
C3_3 Hf1_3 2.322363 1_555
C3_3 Hf1_5 2.322363 1_565
C3_4 Ti2_6 2.112003 1_555
C3_4 Ti2_0 2.112004 1_555
C3_4 Ti2_4 2.112008 1_555
C3_4 Hf1_6 2.322361 1_555
C3_4 Hf1_4 2.322363 1_555
C3_4 Hf1_2 2.322363 1_655
C3_5 Ti2_7 2.112003 1_555
C3_5 Ti2_1 2.112004 1_555
C3_5 Ti2_5 2.112008 1_555
C3_5 Hf1_7 2.322361 1_555
C3_5 Hf1_5 2.322363 1_555
C3_5 Hf1_3 2.322363 1_655
C3_6 Ti2_4 2.112003 1_565
C3_6 Ti2_2 2.112004 1_555
C3_6 Ti2_6 2.112008 1_555
C3_6 Hf1_4 2.322361 1_565
C3_6 Hf1_6 2.322363 1_555
C3_6 Hf1_0 2.322363 1_665
C3_7 Ti2_5 2.112003 1_565
C3_7 Ti2_3 2.112004 1_555
C3_7 Ti2_7 2.112008 1_555
C3_7 Hf1_5 2.322361 1_565
C3_7 Hf1_7 2.322363 1_555
C3_7 Hf1_1 2.322363 1_665
