# generated using pymatgen
data_Sc11TcRu2Pt
_symmetry_space_group_name_H-M   'P 1'
_cell_length_a   9.52008092
_cell_length_b   9.48311812
_cell_length_c   9.45986307
_cell_angle_alpha   60.33954234
_cell_angle_beta   59.95122307
_cell_angle_gamma   59.70922664
_symmetry_Int_Tables_number   1
_chemical_formula_structural   Sc11TcRu2Pt
_chemical_formula_sum   'Sc22 Tc2 Ru4 Pt2'
_cell_volume   603.85801343
_cell_formula_units_Z   2
loop_
 _symmetry_equiv_pos_site_id
 _symmetry_equiv_pos_as_xyz
  1  'x, y, z'
loop_
 _atom_site_type_symbol
 _atom_site_label
 _atom_site_symmetry_multiplicity
 _atom_site_fract_x
 _atom_site_fract_y
 _atom_site_fract_z
 _atom_site_occupancy
  Sc  Sc0  1  0.80455201  0.80455201  0.19544799  1
  Sc  Sc1  1  0.19813148  0.80186852  0.19813148  1
  Sc  Sc2  1  0.80432992  0.19567008  0.19567008  1
  Sc  Sc3  1  0.19544799  0.19544799  0.80455201  1
  Sc  Sc4  1  0.80186852  0.19813148  0.80186852  1
  Sc  Sc5  1  0.19567008  0.80432992  0.80432992  1
  Sc  Sc6  1  0.61888711  0.61585184  0.15154259  1
  Sc  Sc7  1  0.61372046  0.15154259  0.61585184  1
  Sc  Sc8  1  0.15154259  0.61372046  0.61888711  1
  Sc  Sc9  1  0.61585184  0.61888711  0.61372046  1
  Sc  Sc10  1  0.38111289  0.38414816  0.84845741  1
  Sc  Sc11  1  0.38627954  0.84845741  0.38414816  1
  Sc  Sc12  1  0.84845741  0.38627954  0.38111289  1
  Sc  Sc13  1  0.38414816  0.38111289  0.38627954  1
  Sc  Sc14  1  0.84421769  0.83938456  0.46880832  1
  Sc  Sc15  1  0.84758743  0.46880832  0.83938456  1
  Sc  Sc16  1  0.46880832  0.84758743  0.84421769  1
  Sc  Sc17  1  0.83938456  0.84421769  0.84758743  1
  Sc  Sc18  1  0.15578231  0.16061544  0.53119168  1
  Sc  Sc19  1  0.15241257  0.53119168  0.16061544  1
  Sc  Sc20  1  0.53119168  0.15241257  0.15578231  1
  Sc  Sc21  1  0.16061544  0.15578231  0.15241257  1
  Tc  Tc0  1  0.50000000  0.00000000  0.50000000  1
  Tc  Tc1  1  0.00000000  0.50000000  0.00000000  1
  Ru  Ru0  1  0.00000000  0.00000000  0.00000000  1
  Ru  Ru1  1  0.50000000  0.50000000  0.50000000  1
  Ru  Ru2  1  0.00000000  0.50000000  0.50000000  1
  Ru  Ru3  1  0.50000000  0.00000000  0.00000000  1
  Pt  Pt0  1  0.00000000  0.00000000  0.50000000  1
  Pt  Pt1  1  0.50000000  0.50000000  0.00000000  1
loop_
_geom_bond_atom_site_label_1
_geom_bond_atom_site_label_2
_geom_bond_distance
_geom_bond_site_symmetry_2
Sc0 Sc14 2.981282 1_555
Sc0 Sc20 2.981294 1_565
Sc0 Sc19 2.981294 1_655
Sc0 Sc17 2.981301 1_554
Sc0 Sc6 3.340724 1_555
Sc0 Sc9 3.340736 1_555
Sc0 Sc12 3.340740 1_555
Sc0 Sc11 3.340741 1_555
Sc1 Sc19 3.014546 1_555
Sc1 Sc16 3.014558 1_554
Sc1 Sc14 3.014558 1_455
Sc1 Sc21 3.014565 1_565
Sc1 Sc11 3.350282 1_555
Sc1 Sc13 3.350295 1_555
Sc1 Sc8 3.350298 1_555
Sc1 Sc6 3.350299 1_555
Sc2 Sc20 3.046978 1_555
Sc2 Sc21 3.046997 1_655
Sc2 Sc7 3.341223 1_555
Sc2 Sc6 3.341223 1_555
Sc3 Sc8 3.340740 1_555
Sc3 Sc7 3.340741 1_555
Sc4 Sc7 3.350282 1_555
Sc4 Sc9 3.350295 1_555
Sc5 Sc8 3.341207 1_555
Sc5 Sc9 3.341219 1_555
Sc6 Tc1 2.958860 1_655
Sc7 Tc0 2.958876 1_555
Sc8 Tc1 2.958860 1_556
Sc9 Tc0 2.958859 1_565
Sc10 Tc1 2.958860 1_556
Sc10 Sc8 3.083282 1_555
Sc10 Sc7 3.099623 1_555
Sc10 Sc21 3.121267 1_556
Sc10 Sc19 3.158919 1_556
Sc10 Sc20 3.161031 1_556
Sc10 Sc9 3.168062 1_555
Sc10 Sc3 3.340724 1_555
Sc10 Sc5 3.341223 1_555
Sc10 Sc4 3.350299 1_555
Sc11 Tc0 2.958876 1_565
Sc11 Sc9 3.083309 1_555
Sc11 Sc6 3.099623 1_555
Sc11 Sc20 3.121289 1_565
Sc11 Sc18 3.158919 1_565
Sc11 Sc21 3.161010 1_565
Sc11 Sc8 3.168035 1_555
Sc11 Sc5 3.341223 1_555
Sc12 Tc1 2.958860 1_655
Sc12 Sc6 3.083282 1_555
Sc12 Sc9 3.099649 1_555
Sc12 Sc19 3.121289 1_655
Sc12 Sc21 3.158898 1_655
Sc12 Sc18 3.161032 1_655
Sc12 Sc7 3.168035 1_555
Sc12 Sc2 3.341207 1_555
Sc12 Sc4 3.350298 1_555
Sc13 Tc0 2.958859 1_555
Sc13 Sc7 3.083309 1_555
Sc13 Sc8 3.099649 1_555
Sc13 Sc18 3.121258 1_555
Sc13 Sc20 3.158889 1_555
Sc13 Sc19 3.161001 1_555
Sc13 Sc6 3.168062 1_555
Sc13 Sc3 3.340736 1_555
Sc13 Sc2 3.341219 1_555
Sc14 Tc0 2.754444 1_565
Sc14 Sc2 3.046990 1_565
Sc14 Sc9 3.121258 1_555
Sc14 Sc7 3.158919 1_565
Sc14 Sc8 3.161032 1_655
Sc15 Tc1 2.754460 1_656
Sc15 Sc3 2.981294 1_655
Sc15 Sc4 3.014546 1_555
Sc15 Sc2 3.046989 1_556
Sc15 Sc8 3.121289 1_655
Sc15 Sc6 3.158919 1_556
Sc15 Sc9 3.161001 1_555
Sc16 Tc0 2.754443 1_565
Sc16 Sc3 2.981294 1_565
Sc16 Sc5 3.046978 1_555
Sc16 Sc7 3.121289 1_565
Sc16 Sc9 3.158889 1_555
Sc16 Sc6 3.161031 1_556
Sc17 Tc1 2.754448 1_656
Sc17 Sc4 3.014565 1_565
Sc17 Sc5 3.046997 1_655
Sc17 Sc6 3.121267 1_556
Sc17 Sc8 3.158898 1_655
Sc17 Sc7 3.161010 1_565
Sc18 Tc0 2.754444 1_555
Sc18 Sc3 2.981282 1_555
Sc18 Sc4 3.014558 1_455
Sc18 Sc5 3.046990 1_545
Sc19 Tc1 2.754460 1_555
Sc19 Sc5 3.046989 1_554
Sc20 Tc0 2.754443 1_555
Sc20 Sc4 3.014558 1_554
Sc21 Tc1 2.754448 1_555
Sc21 Sc3 2.981301 1_554
Ru0 Sc2 2.607433 1_455
Ru0 Sc5 2.607433 1_544
Ru0 Sc3 2.637787 1_554
Ru0 Sc0 2.637787 1_445
Ru0 Sc1 2.661038 1_545
Ru0 Sc4 2.661038 1_454
Ru1 Sc11 2.699579 1_555
Ru1 Sc7 2.699579 1_555
Ru1 Sc10 2.699579 1_555
Ru1 Sc6 2.699579 1_555
Ru1 Sc12 2.699579 1_555
Ru1 Sc8 2.699579 1_555
Ru1 Sc9 2.699594 1_555
Ru1 Sc13 2.699594 1_555
Ru2 Sc15 2.707052 1_455
Ru2 Sc19 2.707052 1_555
Ru2 Sc14 2.707052 1_455
Ru2 Sc18 2.707052 1_555
Ru2 Sc13 2.983948 1_555
Ru2 Sc9 2.983948 1_455
Ru2 Sc8 2.983964 1_555
Ru2 Sc12 2.983964 1_455
Ru3 Sc17 2.707056 1_544
Ru3 Sc21 2.707056 1_555
Ru3 Sc20 2.707069 1_555
Ru3 Sc16 2.707069 1_544
Ru3 Sc11 2.983948 1_545
Ru3 Sc7 2.983948 1_554
Ru3 Sc6 2.983948 1_545
Ru3 Sc10 2.983948 1_554
Pt0 Sc17 2.787148 1_445
Pt0 Sc21 2.787148 1_555
Pt0 Sc18 2.787160 1_555
Pt0 Sc14 2.787160 1_445
Pt0 Sc8 2.996852 1_545
Pt0 Sc12 2.996852 1_455
Pt0 Sc11 2.996852 1_545
Pt0 Sc7 2.996852 1_455
Pt1 Sc16 2.787143 1_554
Pt1 Sc20 2.787143 1_555
Pt1 Sc15 2.787144 1_554
Pt1 Sc19 2.787144 1_555
Pt1 Sc13 2.996851 1_555
Pt1 Sc9 2.996851 1_554
Pt1 Sc6 2.996868 1_555
Pt1 Sc10 2.996868 1_554
