# generated using pymatgen
data_Y2B(Pd2Pt)2
_symmetry_space_group_name_H-M   'P 1'
_cell_length_a   5.91768008
_cell_length_b   5.91767978
_cell_length_c   6.06697662
_cell_angle_alpha   59.16186399
_cell_angle_beta   59.16186569
_cell_angle_gamma   58.50210471
_symmetry_Int_Tables_number   1
_chemical_formula_structural   Y2B(Pd2Pt)2
_chemical_formula_sum   'Y2 B1 Pd4 Pt2'
_cell_volume   146.59090240
_cell_formula_units_Z   1
loop_
 _symmetry_equiv_pos_site_id
 _symmetry_equiv_pos_as_xyz
  1  'x, y, z'
loop_
 _atom_site_type_symbol
 _atom_site_label
 _atom_site_symmetry_multiplicity
 _atom_site_fract_x
 _atom_site_fract_y
 _atom_site_fract_z
 _atom_site_occupancy
  Y  Y0  1  0.25238056  0.25238056  0.24550341  1
  Y  Y1  1  0.74761944  0.74761944  0.75026553  1
  B  B0  1  0.00000000  0.00000000  0.00797198  1
  Pd  Pd0  1  0.74084878  0.74084878  0.25689438  1
  Pd  Pd1  1  0.25915122  0.25915122  0.73859194  1
  Pd  Pd2  1  0.75041351  0.24958749  0.74254334  1
  Pd  Pd3  1  0.24958749  0.75041351  0.74254334  1
  Pt  Pt0  1  0.74532963  0.25467137  0.25784454  1
  Pt  Pt1  1  0.25467137  0.74532963  0.25784454  1
loop_
_geom_bond_atom_site_label_1
_geom_bond_atom_site_label_2
_geom_bond_distance
_geom_bond_site_symmetry_2
B0 Pt0 2.113611 1_455
B0 Pt1 2.113611 1_545
B0 Pd2 2.162556 1_454
B0 Pd3 2.162556 1_544
B0 Pd1 2.166348 1_554
B0 Pd0 2.166348 1_445
Pd0 Y0 2.893204 1_565
Pd0 Y0 2.893204 1_655
Pd0 Y1 3.033156 1_554
Pd0 Y1 3.034876 1_555
Pd1 Y1 2.893204 1_545
Pd1 Y1 2.893204 1_455
Pd1 Y0 3.033162 1_555
Pd1 Y0 3.034870 1_556
Pd2 Y0 2.955349 1_655
Pd2 Y1 2.955352 1_545
Pd2 Y1 2.962814 1_555
Pd2 Y0 2.962817 1_556
Pd3 Y0 2.955349 1_565
Pd3 Y1 2.955352 1_455
Pd3 Y1 2.962814 1_555
Pd3 Y0 2.962816 1_556
Pt0 Y0 2.955907 1_655
Pt0 Y1 2.955916 1_545
Pt0 Y1 2.963373 1_554
Pt0 Y0 2.963383 1_555
Pt1 Y0 2.955907 1_565
Pt1 Y1 2.955916 1_455
Pt1 Y1 2.963374 1_554
Pt1 Y0 2.963382 1_555
