# generated using pymatgen
data_Hf12Al4FeRh7
_symmetry_space_group_name_H-M   'P 1'
_cell_length_a   8.42227904
_cell_length_b   8.42227838
_cell_length_c   8.42227850
_cell_angle_alpha   59.93625261
_cell_angle_beta   59.93625452
_cell_angle_gamma   59.93626320
_symmetry_Int_Tables_number   1
_chemical_formula_structural   Hf12Al4FeRh7
_chemical_formula_sum   'Hf12 Al4 Fe1 Rh7'
_cell_volume   421.83776996
_cell_formula_units_Z   1
loop_
 _symmetry_equiv_pos_site_id
 _symmetry_equiv_pos_as_xyz
  1  'x, y, z'
loop_
 _atom_site_type_symbol
 _atom_site_label
 _atom_site_symmetry_multiplicity
 _atom_site_fract_x
 _atom_site_fract_y
 _atom_site_fract_z
 _atom_site_occupancy
  Hf  Hf0  1  0.80772753  0.80772753  0.18691590  1
  Hf  Hf1  1  0.19335153  0.19335153  0.80655014  1
  Hf  Hf2  1  0.80772753  0.18691590  0.80772753  1
  Hf  Hf3  1  0.19335153  0.80655014  0.19335153  1
  Hf  Hf4  1  0.18691590  0.80772753  0.80772753  1
  Hf  Hf5  1  0.80655014  0.19335153  0.19335153  1
  Hf  Hf6  1  0.44410537  0.44410537  0.05508855  1
  Hf  Hf7  1  0.05605741  0.05605741  0.44527400  1
  Hf  Hf8  1  0.44410537  0.05508855  0.44410537  1
  Hf  Hf9  1  0.05605741  0.44527400  0.05605741  1
  Hf  Hf10  1  0.05508855  0.44410537  0.44410537  1
  Hf  Hf11  1  0.44527400  0.05605741  0.05605741  1
  Al  Al0  1  0.12382941  0.62681708  0.62681708  1
  Al  Al1  1  0.62681708  0.12382941  0.62681708  1
  Al  Al2  1  0.62681708  0.62681708  0.12382941  1
  Al  Al3  1  0.62582459  0.62582459  0.62582459  1
  Fe  Fe0  1  0.83609982  0.83609982  0.83609982  1
  Rh  Rh0  1  0.76680690  0.41156737  0.41156737  1
  Rh  Rh1  1  0.41156737  0.76680690  0.41156737  1
  Rh  Rh2  1  0.41156737  0.41156737  0.76680690  1
  Rh  Rh3  1  0.41059167  0.41059167  0.41059167  1
  Rh  Rh4  1  0.48354135  0.84011256  0.84011256  1
  Rh  Rh5  1  0.84011256  0.48354135  0.84011256  1
  Rh  Rh6  1  0.84011256  0.84011256  0.48354135  1
loop_
_geom_bond_atom_site_label_1
_geom_bond_atom_site_label_2
_geom_bond_distance
_geom_bond_site_symmetry_2
Hf0 Rh6 2.798232 1_555
Hf0 Rh0 3.000838 1_555
Hf0 Rh1 3.000838 1_555
Hf0 Hf9 3.093920 1_655
Hf0 Hf11 3.093920 1_565
Hf0 Hf10 3.145437 1_655
Hf0 Hf8 3.145437 1_565
Hf0 Hf2 3.190552 1_564
Hf0 Hf4 3.190553 1_654
Hf0 Hf5 3.270325 1_565
Hf0 Hf3 3.270325 1_655
Hf1 Rh4 2.732901 1_545
Hf1 Rh5 2.732901 1_455
Hf1 Rh3 2.990636 1_555
Hf1 Rh2 3.003190 1_555
Hf1 Hf4 3.270325 1_545
Hf1 Hf2 3.270325 1_455
Hf2 Rh5 2.798232 1_555
Hf2 Rh0 3.000838 1_555
Hf2 Rh2 3.000838 1_555
Hf2 Hf7 3.093919 1_655
Hf2 Hf6 3.145437 1_556
Hf2 Hf4 3.190553 1_645
Hf2 Hf5 3.270325 1_556
Hf3 Rh4 2.732901 1_554
Hf3 Rh6 2.732901 1_455
Hf3 Rh3 2.990636 1_555
Hf3 Rh1 3.003190 1_555
Hf3 Hf4 3.270325 1_554
Hf4 Rh4 2.798232 1_555
Hf4 Rh1 3.000838 1_555
Hf4 Rh2 3.000838 1_555
Hf4 Hf9 3.093919 1_556
Hf4 Hf7 3.093919 1_565
Hf4 Hf8 3.145436 1_565
Hf4 Hf6 3.145437 1_556
Hf5 Rh5 2.732901 1_554
Hf5 Rh6 2.732901 1_545
Hf5 Rh3 2.990636 1_555
Hf5 Rh0 3.003190 1_555
Hf6 Rh2 2.730181 1_554
Hf6 Rh3 2.740540 1_555
Hf6 Rh4 2.994927 1_554
Hf6 Rh5 2.994928 1_554
Hf7 Rh0 2.741088 1_455
Hf7 Rh1 2.741088 1_545
Hf7 Rh6 2.976434 1_445
Hf8 Rh1 2.730181 1_545
Hf8 Rh3 2.740540 1_555
Hf8 Rh4 2.994927 1_545
Hf8 Rh6 2.994928 1_545
Hf9 Rh0 2.741088 1_455
Hf9 Rh2 2.741088 1_554
Hf9 Rh5 2.976434 1_454
Hf10 Rh0 2.730181 1_455
Hf10 Rh3 2.740540 1_555
Hf10 Rh5 2.994927 1_455
Hf10 Rh6 2.994928 1_455
Hf10 Hf2 3.145436 1_455
Hf11 Rh1 2.741087 1_545
Hf11 Rh2 2.741087 1_554
Hf11 Rh4 2.976434 1_544
Hf11 Hf2 3.093919 1_554
Al0 Fe0 2.576788 1_455
Al0 Rh5 2.609482 1_455
Al0 Rh6 2.609482 1_455
Al0 Rh1 2.620873 1_555
Al0 Rh2 2.620873 1_555
Al0 Rh3 2.641073 1_555
Al0 Hf4 2.978901 1_555
Al0 Hf9 3.000308 1_556
Al0 Hf7 3.000308 1_565
Al0 Hf3 3.028480 1_555
Al0 Hf1 3.028480 1_555
Al0 Hf10 3.037960 1_555
Al1 Fe0 2.576788 1_545
Al1 Rh4 2.609482 1_545
Al1 Rh6 2.609482 1_545
Al1 Rh0 2.620872 1_555
Al1 Rh2 2.620873 1_555
Al1 Rh3 2.641073 1_555
Al1 Hf2 2.978901 1_555
Al1 Hf11 3.000308 1_556
Al1 Hf7 3.000308 1_655
Al1 Hf5 3.028480 1_555
Al1 Hf1 3.028480 1_555
Al1 Hf8 3.037960 1_555
Al2 Fe0 2.576788 1_554
Al2 Rh4 2.609482 1_554
Al2 Rh5 2.609482 1_554
Al2 Rh0 2.620873 1_555
Al2 Rh1 2.620873 1_555
Al2 Rh3 2.641072 1_555
Al2 Hf0 2.978900 1_555
Al2 Hf11 3.000308 1_565
Al2 Hf9 3.000309 1_655
Al2 Hf5 3.028480 1_555
Al2 Hf3 3.028480 1_555
Al2 Hf6 3.037960 1_555
Al3 Rh6 2.623027 1_555
Al3 Rh4 2.623027 1_555
Al3 Rh5 2.623027 1_555
Al3 Rh2 2.625179 1_555
Al3 Rh0 2.625180 1_555
Al3 Rh1 2.625180 1_555
Al3 Hf0 3.059797 1_555
Al3 Hf2 3.059797 1_555
Al3 Hf4 3.059798 1_555
Fe0 Hf2 2.736180 1_565
Fe0 Hf0 2.736180 1_556
Fe0 Hf4 2.736180 1_655
Fe0 Rh5 2.935873 1_555
Fe0 Rh6 2.935873 1_555
Fe0 Rh4 2.935873 1_555
Fe0 Hf7 2.986296 1_665
Fe0 Hf9 2.986296 1_656
Fe0 Hf11 2.986297 1_566
