# generated using pymatgen
data_NaCa21(Ga4Sn3)2
_symmetry_space_group_name_H-M   'P 1'
_cell_length_a   11.44850268
_cell_length_b   11.44850308
_cell_length_c   11.44850221
_cell_angle_alpha   60.00000254
_cell_angle_beta   60.00000136
_cell_angle_gamma   60.00000209
_symmetry_Int_Tables_number   1
_chemical_formula_structural   NaCa21(Ga4Sn3)2
_chemical_formula_sum   'Na1 Ca21 Ga8 Sn6'
_cell_volume   1061.03837020
_cell_formula_units_Z   1
loop_
 _symmetry_equiv_pos_site_id
 _symmetry_equiv_pos_as_xyz
  1  'x, y, z'
loop_
 _atom_site_type_symbol
 _atom_site_label
 _atom_site_symmetry_multiplicity
 _atom_site_fract_x
 _atom_site_fract_y
 _atom_site_fract_z
 _atom_site_occupancy
  Na  Na0  1  0.50000000  0.50000000  0.50000000  1
  Ca  Ca0  1  0.86981457  0.86981457  0.39055429  1
  Ca  Ca1  1  0.60944571  0.13018543  0.13018543  1
  Ca  Ca2  1  0.86981457  0.39055429  0.86981457  1
  Ca  Ca3  1  0.13018543  0.13018543  0.13018543  1
  Ca  Ca4  1  0.39055429  0.86981457  0.86981457  1
  Ca  Ca5  1  0.86981457  0.86981457  0.86981457  1
  Ca  Ca6  1  0.16912160  0.83087840  0.50000000  1
  Ca  Ca7  1  0.83087840  0.50000000  0.50000000  1
  Ca  Ca8  1  0.13018543  0.13018543  0.60944571  1
  Ca  Ca9  1  0.83087840  0.16912160  0.50000000  1
  Ca  Ca10  1  0.16912160  0.50000000  0.50000000  1
  Ca  Ca11  1  0.13018543  0.60944571  0.13018543  1
  Ca  Ca12  1  0.50000000  0.50000000  0.16912160  1
  Ca  Ca13  1  0.50000000  0.16912160  0.83087840  1
  Ca  Ca14  1  0.50000000  0.83087840  0.16912160  1
  Ca  Ca15  1  0.50000000  0.50000000  0.83087840  1
  Ca  Ca16  1  0.50000000  0.16912160  0.50000000  1
  Ca  Ca17  1  0.16912160  0.50000000  0.83087840  1
  Ca  Ca18  1  0.00000000  0.00000000  0.00000000  1
  Ca  Ca19  1  0.50000000  0.83087840  0.50000000  1
  Ca  Ca20  1  0.83087840  0.50000000  0.16912160  1
  Ga  Ga0  1  0.69167189  0.92498433  0.69167189  1
  Ga  Ga1  1  0.69167189  0.69167189  0.92498433  1
  Ga  Ga2  1  0.69167189  0.69167189  0.69167189  1
  Ga  Ga3  1  0.30832811  0.07501567  0.30832811  1
  Ga  Ga4  1  0.92498433  0.69167189  0.69167189  1
  Ga  Ga5  1  0.30832811  0.30832811  0.07501567  1
  Ga  Ga6  1  0.07501567  0.30832811  0.30832811  1
  Ga  Ga7  1  0.30832811  0.30832811  0.30832811  1
  Sn  Sn0  1  0.78350497  0.21649503  0.78350497  1
  Sn  Sn1  1  0.78350497  0.21649503  0.21649503  1
  Sn  Sn2  1  0.21649503  0.78350497  0.21649503  1
  Sn  Sn3  1  0.21649503  0.78350497  0.78350497  1
  Sn  Sn4  1  0.78350497  0.78350497  0.21649503  1
  Sn  Sn5  1  0.21649503  0.21649503  0.78350497  1
loop_
_geom_bond_atom_site_label_1
_geom_bond_atom_site_label_2
_geom_bond_distance
_geom_bond_site_symmetry_2
Ca0 Ga2 3.209513 1_555
Ca0 Ga0 3.209522 1_555
Ca0 Ga4 3.209522 1_555
Ca0 Sn4 3.292129 1_555
Ca0 Sn2 3.292146 1_655
Ca0 Sn1 3.292147 1_565
Ca1 Ga7 3.209513 1_555
Ca1 Ga3 3.209523 1_555
Ca1 Ga5 3.209523 1_555
Ca1 Sn1 3.292129 1_555
Ca1 Sn0 3.292146 1_554
Ca1 Sn4 3.292147 1_545
Ca2 Ga2 3.209513 1_555
Ca2 Ga1 3.209523 1_555
Ca2 Ga4 3.209523 1_555
Ca2 Sn0 3.292129 1_555
Ca2 Sn1 3.292146 1_556
Ca2 Sn5 3.292146 1_655
Ca3 Ga3 3.209503 1_555
Ca3 Ga6 3.209503 1_555
Ca3 Ga5 3.209503 1_555
Ca3 Sn5 3.292150 1_554
Ca3 Sn1 3.292150 1_455
Ca3 Sn2 3.292150 1_545
Ca4 Ga2 3.209513 1_555
Ca4 Ga0 3.209523 1_555
Ca4 Ga1 3.209523 1_555
Ca4 Sn3 3.292129 1_555
Ca4 Sn2 3.292146 1_556
Ca4 Sn5 3.292147 1_565
Ca5 Ga0 3.209503 1_555
Ca5 Ga4 3.209503 1_555
Ca5 Ga1 3.209503 1_555
Ca5 Sn4 3.292150 1_556
Ca5 Sn3 3.292150 1_655
Ca5 Sn0 3.292150 1_565
Ca6 Ga4 3.160883 1_455
Ca6 Ga3 3.160883 1_565
Ca6 Sn2 3.290709 1_555
Ca6 Sn3 3.290709 1_555
Ca6 Na0 3.788062 1_555
Ca7 Ga2 3.160883 1_555
Ca7 Ga6 3.160883 1_655
Ca7 Sn4 3.290709 1_555
Ca7 Sn0 3.290709 1_555
Ca7 Na0 3.788062 1_555
Ca8 Ga7 3.209513 1_555
Ca8 Ga3 3.209522 1_555
Ca8 Ga6 3.209522 1_555
Ca8 Sn5 3.292129 1_555
Ca8 Sn0 3.292146 1_455
Ca8 Sn3 3.292147 1_545
Ca9 Ga6 3.160883 1_655
Ca9 Ga0 3.160883 1_545
Ca9 Sn1 3.290709 1_555
Ca9 Sn0 3.290709 1_555
Ca9 Na0 3.788062 1_555
Ca10 Ga7 3.160883 1_555
Ca10 Ga4 3.160883 1_455
Ca10 Sn5 3.290709 1_555
Ca10 Sn2 3.290709 1_555
Ca10 Na0 3.788062 1_555
Ca11 Ga7 3.209513 1_555
Ca11 Ga5 3.209523 1_555
Ca11 Ga6 3.209523 1_555
Ca11 Sn2 3.292129 1_555
Ca11 Sn3 3.292146 1_554
Ca11 Sn4 3.292146 1_455
Ca12 Ga1 3.160883 1_554
Ca12 Ga7 3.160883 1_555
Ca12 Sn1 3.290709 1_555
Ca12 Sn2 3.290709 1_555
Ca12 Na0 3.788062 1_555
Ca13 Ga5 3.160882 1_556
Ca13 Ga0 3.160883 1_545
Ca13 Sn5 3.290709 1_555
Ca13 Sn0 3.290709 1_555
Ca13 Na0 3.788062 1_555
Ca14 Ga1 3.160882 1_554
Ca14 Ga3 3.160883 1_565
Ca14 Sn4 3.290709 1_555
Ca14 Sn2 3.290709 1_555
Ca14 Na0 3.788062 1_555
Ca15 Ga2 3.160883 1_555
Ca15 Ga5 3.160883 1_556
Ca15 Sn0 3.290709 1_555
Ca15 Sn3 3.290709 1_555
Ca15 Na0 3.788062 1_555
Ca16 Ga7 3.160882 1_555
Ca16 Ga0 3.160883 1_545
Ca16 Sn5 3.290709 1_555
Ca16 Sn1 3.290709 1_555
Ca16 Na0 3.788062 1_555
Ca17 Ga5 3.160883 1_556
Ca17 Ga4 3.160883 1_455
Ca17 Sn5 3.290709 1_555
Ca17 Sn3 3.290709 1_555
Ca17 Na0 3.788062 1_555
Ca18 Sn3 3.505190 1_544
Ca18 Sn0 3.505190 1_454
Ca18 Sn2 3.505190 1_545
Ca18 Sn1 3.505190 1_455
Ca18 Sn4 3.505191 1_445
Ca18 Sn5 3.505191 1_554
Ca19 Ga2 3.160882 1_555
Ca19 Ga3 3.160883 1_565
Ca19 Sn4 3.290709 1_555
Ca19 Sn3 3.290709 1_555
Ca19 Na0 3.788062 1_555
Ca20 Ga1 3.160883 1_554
Ca20 Ga6 3.160883 1_655
Ca20 Sn4 3.290709 1_555
Ca20 Sn1 3.290709 1_555
Ca20 Na0 3.788062 1_555
Ga0 Ga1 2.671078 1_555
Ga0 Ga2 2.671078 1_555
Ga0 Ga4 2.671078 1_555
Ga1 Ga2 2.671078 1_555
Ga1 Ga4 2.671078 1_555
Ga2 Ga4 2.671078 1_555
Ga3 Ga5 2.671078 1_555
Ga3 Ga7 2.671078 1_555
Ga3 Ga6 2.671078 1_555
Ga5 Ga7 2.671078 1_555
Ga5 Ga6 2.671078 1_555
Ga6 Ga7 2.671078 1_555
