# generated using pymatgen
data_Hf3Ta3(NbN3)4
_symmetry_space_group_name_H-M   'P 1'
_cell_length_a   5.28506303
_cell_length_b   5.28376510
_cell_length_c   10.49715660
_cell_angle_alpha   89.99279599
_cell_angle_beta   89.99116805
_cell_angle_gamma   120.14782322
_symmetry_Int_Tables_number   1
_chemical_formula_structural   Hf3Ta3(NbN3)4
_chemical_formula_sum   'Hf3 Ta3 Nb4 N12'
_cell_volume   253.48199976
_cell_formula_units_Z   1
loop_
 _symmetry_equiv_pos_site_id
 _symmetry_equiv_pos_as_xyz
  1  'x, y, z'
loop_
 _atom_site_type_symbol
 _atom_site_label
 _atom_site_symmetry_multiplicity
 _atom_site_fract_x
 _atom_site_fract_y
 _atom_site_fract_z
 _atom_site_occupancy
  Hf  Hf0  1  0.66516287  0.33298071  0.00019932  1
  Hf  Hf1  1  0.33296361  0.66502152  0.00036946  1
  Hf  Hf2  1  0.33329742  0.66540527  0.49904314  1
  Ta  Ta0  1  0.68015059  0.99923080  0.25154674  1
  Ta  Ta1  1  0.00226004  0.68173315  0.25154972  1
  Ta  Ta2  1  0.66568098  0.33354236  0.49989462  1
  Nb  Nb0  1  0.67767666  0.67961096  0.74832491  1
  Nb  Nb1  1  0.31948201  0.99718310  0.74831396  1
  Nb  Nb2  1  0.00131738  0.32139880  0.74838162  1
  Nb  Nb3  1  0.32077196  0.32226846  0.25211190  1
  N  N0  1  0.66361723  0.65743709  0.37896175  1
  N  N1  1  0.35000554  0.00251111  0.37799643  1
  N  N2  1  0.98944809  0.34377201  0.37804751  1
  N  N3  1  0.34901599  0.34227894  0.61975057  1
  N  N4  1  0.65554950  0.00652417  0.61990777  1
  N  N5  1  0.99289633  0.64875985  0.61997942  1
  N  N6  1  0.34612429  0.34585171  0.87493782  1
  N  N7  1  0.65195000  0.99972732  0.87481990  1
  N  N8  1  0.99944546  0.65169403  0.87482146  1
  N  N9  1  0.65970988  0.65939439  0.12649207  1
  N  N10  1  0.34794974  0.99602818  0.12726303  1
  N  N11  1  0.99552045  0.34765008  0.12728688  1
loop_
_geom_bond_atom_site_label_1
_geom_bond_atom_site_label_2
_geom_bond_distance
_geom_bond_site_symmetry_2
Hf0 N6 2.166210 1_554
Hf0 N11 2.167697 1_555
Hf0 N8 2.167849 1_554
Hf0 N7 2.171336 1_544
Hf0 N10 2.181744 1_545
Hf0 N9 2.187100 1_555
Hf1 N6 2.168140 1_554
Hf1 N10 2.168155 1_555
Hf1 N7 2.170392 1_554
Hf1 N8 2.173674 1_454
Hf1 N11 2.182262 1_455
Hf1 N9 2.188158 1_555
Hf2 N1 2.153225 1_565
Hf2 N3 2.160860 1_555
Hf2 N4 2.162584 1_565
Hf2 N5 2.167076 1_455
Hf2 N2 2.168606 1_455
Hf2 N0 2.170601 1_555
N0 Ta2 2.135104 1_555
N0 Ta1 2.185618 1_655
N0 Ta0 2.213337 1_555
N0 Nb3 2.229494 1_555
N1 Ta2 2.133112 1_555
N1 Ta0 2.199163 1_545
N1 Ta1 2.210127 1_545
N1 Nb3 2.210483 1_555
N2 Ta2 2.115008 1_555
N2 Ta0 2.182128 1_545
N2 Ta1 2.198747 1_655
N2 Nb3 2.241854 1_655
N3 Ta2 2.112569 1_555
N3 Nb1 2.209952 1_545
N3 Nb0 2.215208 1_555
N3 Nb2 2.237798 1_555
N4 Ta2 2.117085 1_555
N4 Nb2 2.207620 1_655
N4 Nb1 2.210232 1_545
N4 Nb0 2.239835 1_545
N5 Ta2 2.112272 1_555
N5 Nb2 2.210728 1_655
N5 Nb0 2.211163 1_555
N5 Nb1 2.234450 1_655
N6 Nb0 2.200366 1_555
N6 Nb2 2.206063 1_555
N6 Nb1 2.218263 1_545
N7 Nb1 2.197291 1_555
N7 Nb0 2.207726 1_555
N7 Nb2 2.214959 1_665
N8 Nb2 2.196672 1_655
N8 Nb1 2.203187 1_655
N8 Nb0 2.220248 1_555
N9 Ta0 2.182871 1_555
N9 Ta1 2.191100 1_655
N9 Nb3 2.216804 1_555
N10 Ta1 2.179216 1_555
N10 Ta0 2.180756 1_555
N10 Nb3 2.226839 1_565
N11 Ta1 2.180865 1_655
N11 Ta0 2.187510 1_545
N11 Nb3 2.218553 1_655
