# generated using pymatgen
data_ThFe3
_symmetry_space_group_name_H-M   'P 1'
_cell_length_a   8.84044136
_cell_length_b   8.84044136
_cell_length_c   8.84044183
_cell_angle_alpha   33.81798437
_cell_angle_beta   33.81798437
_cell_angle_gamma   33.81798177
_symmetry_Int_Tables_number   1
_chemical_formula_structural   ThFe3
_chemical_formula_sum   'Th3 Fe9'
_cell_volume   190.70848121
_cell_formula_units_Z   3
loop_
 _symmetry_equiv_pos_site_id
 _symmetry_equiv_pos_as_xyz
  1  'x, y, z'
loop_
 _atom_site_type_symbol
 _atom_site_label
 _atom_site_symmetry_multiplicity
 _atom_site_fract_x
 _atom_site_fract_y
 _atom_site_fract_z
 _atom_site_occupancy
  Th  Th0  1  0.85882400  0.85882400  0.85882400  1
  Th  Th1  1  0.14117600  0.14117600  0.14117600  1
  Th  Th2  1  0.00000000  0.00000000  0.00000000  1
  Fe  Fe0  1  0.41968000  0.91685000  0.41968000  1
  Fe  Fe1  1  0.41968000  0.41968000  0.91685000  1
  Fe  Fe2  1  0.91685000  0.41968000  0.41968000  1
  Fe  Fe3  1  0.58032000  0.08315000  0.58032000  1
  Fe  Fe4  1  0.58032000  0.58032000  0.08315000  1
  Fe  Fe5  1  0.08315000  0.58032000  0.58032000  1
  Fe  Fe6  1  0.66743600  0.66743600  0.66743600  1
  Fe  Fe7  1  0.33256400  0.33256400  0.33256400  1
  Fe  Fe8  1  0.50000000  0.50000000  0.50000000  1
loop_
_geom_bond_atom_site_label_1
_geom_bond_atom_site_label_2
_geom_bond_distance
_geom_bond_site_symmetry_2
Fe0 Fe7 2.504431 1_565
Fe0 Fe6 2.525537 1_555
Fe0 Fe2 2.556710 1_555
Fe0 Fe1 2.556710 1_555
Fe0 Fe2 2.585816 1_465
Fe0 Fe1 2.585817 1_564
Fe0 Fe8 2.594326 1_555
Fe0 Th0 2.975145 1_455
Fe0 Th0 2.975145 1_554
Fe0 Th1 3.146901 1_565
Fe0 Th2 3.276047 1_665
Fe0 Th2 3.276047 1_566
Fe1 Fe7 2.504431 1_556
Fe1 Fe6 2.525537 1_555
Fe1 Fe2 2.556710 1_555
Fe1 Fe2 2.585817 1_456
Fe1 Fe8 2.594327 1_555
Fe1 Th0 2.975145 1_545
Fe1 Th0 2.975145 1_455
Fe1 Th1 3.146900 1_556
Fe1 Th2 3.276047 1_566
Fe1 Th2 3.276047 1_656
Fe2 Fe7 2.504431 1_655
Fe2 Fe6 2.525537 1_555
Fe2 Fe8 2.594326 1_555
Fe2 Th0 2.975145 1_545
Fe2 Th0 2.975145 1_554
Fe2 Th1 3.146901 1_655
Fe2 Th2 3.276047 1_665
Fe2 Th2 3.276047 1_656
Fe3 Fe6 2.504431 1_545
Fe3 Fe7 2.525537 1_555
Fe3 Fe5 2.556710 1_555
Fe3 Fe4 2.556710 1_555
Fe3 Fe5 2.585816 1_645
Fe3 Fe4 2.585817 1_546
Fe3 Fe8 2.594326 1_555
Fe3 Th1 2.975145 1_655
Fe3 Th1 2.975145 1_556
Fe3 Th0 3.146901 1_545
Fe3 Th2 3.276047 1_556
Fe3 Th2 3.276047 1_655
Fe4 Fe6 2.504431 1_554
Fe4 Fe7 2.525537 1_555
Fe4 Fe5 2.556710 1_555
Fe4 Fe5 2.585817 1_654
Fe4 Fe8 2.594327 1_555
Fe4 Th1 2.975145 1_565
Fe4 Th1 2.975145 1_655
Fe4 Th0 3.146900 1_554
Fe4 Th2 3.276047 1_655
Fe4 Th2 3.276047 1_565
Fe5 Fe6 2.504431 1_455
Fe5 Fe7 2.525537 1_555
Fe5 Fe8 2.594326 1_555
Fe5 Th1 2.975145 1_565
Fe5 Th1 2.975145 1_556
Fe5 Th0 3.146901 1_455
Fe5 Th2 3.276047 1_556
Fe5 Th2 3.276047 1_565
Fe6 Th2 2.969101 1_566
Fe6 Th2 2.969101 1_656
Fe6 Th2 2.969101 1_665
Fe7 Th2 2.969101 1_565
Fe7 Th2 2.969101 1_655
Fe7 Th2 2.969101 1_556
Fe8 Th0 3.036557 1_455
Fe8 Th0 3.036557 1_545
Fe8 Th1 3.036557 1_565
Fe8 Th1 3.036557 1_655
Fe8 Th0 3.036557 1_554
Fe8 Th1 3.036557 1_556
