# generated using pymatgen
data_K2FeMoS4
_symmetry_space_group_name_H-M   'P 1'
_cell_length_a   6.72294054
_cell_length_b   6.72294096
_cell_length_c   5.53671100
_cell_angle_alpha   77.39963884
_cell_angle_beta   77.39963585
_cell_angle_gamma   115.34151053
_symmetry_Int_Tables_number   1
_chemical_formula_structural   K2FeMoS4
_chemical_formula_sum   'K2 Fe1 Mo1 S4'
_cell_volume   206.49457479
_cell_formula_units_Z   1
loop_
 _symmetry_equiv_pos_site_id
 _symmetry_equiv_pos_as_xyz
  1  'x, y, z'
loop_
 _atom_site_type_symbol
 _atom_site_label
 _atom_site_symmetry_multiplicity
 _atom_site_fract_x
 _atom_site_fract_y
 _atom_site_fract_z
 _atom_site_occupancy
  K  K0  1  0.64329536  0.35670464  0.75000000  1
  K  K1  1  0.35690537  0.64309463  0.25000000  1
  Fe  Fe0  1  0.00390900  0.99609100  0.75000000  1
  Mo  Mo0  1  0.99536479  0.00463521  0.25000000  1
  S  S0  1  0.30593329  0.08634597  0.39008103  1
  S  S1  1  0.91365403  0.69406671  0.10991897  1
  S  S2  1  0.08879176  0.30785360  0.88420963  1
  S  S3  1  0.69214640  0.91120824  0.61579037  1
loop_
_geom_bond_atom_site_label_1
_geom_bond_atom_site_label_2
_geom_bond_distance
_geom_bond_site_symmetry_2
K0 S0 3.340821 1_556
K0 S1 3.340821 1_555
K0 S2 3.367029 1_655
K0 S3 3.367029 1_545
K0 S2 3.492005 1_555
K0 S3 3.492005 1_555
K0 S0 3.527359 1_555
K0 S1 3.527359 1_556
K1 S3 3.311621 1_554
K1 S2 3.311621 1_555
K1 S1 3.371299 1_455
K1 S0 3.371299 1_565
K1 S1 3.499771 1_555
K1 S0 3.499772 1_555
K1 S3 3.540774 1_555
K1 S2 3.540774 1_554
Fe0 S3 2.260869 1_455
Fe0 S2 2.260869 1_565
Fe0 S0 2.261541 1_565
Fe0 S1 2.261542 1_456
Mo0 S0 2.274501 1_655
Mo0 S1 2.274501 1_545
Mo0 S3 2.280233 1_545
Mo0 S2 2.280233 1_654
