# generated using pymatgen
data_Cs3RbSrBr6
_symmetry_space_group_name_H-M   'P 1'
_cell_length_a   9.82577093
_cell_length_b   9.82577162
_cell_length_c   9.82577144
_cell_angle_alpha   90.31904365
_cell_angle_beta   90.31904718
_cell_angle_gamma   90.31904329
_symmetry_Int_Tables_number   1
_chemical_formula_structural   Cs3RbSrBr6
_chemical_formula_sum   'Cs6 Rb2 Sr2 Br12'
_cell_volume   948.59249330
_cell_formula_units_Z   2
loop_
 _symmetry_equiv_pos_site_id
 _symmetry_equiv_pos_as_xyz
  1  'x, y, z'
loop_
 _atom_site_type_symbol
 _atom_site_label
 _atom_site_symmetry_multiplicity
 _atom_site_fract_x
 _atom_site_fract_y
 _atom_site_fract_z
 _atom_site_occupancy
  Cs  Cs0  1  0.25000000  0.62417088  0.87582912  1
  Cs  Cs1  1  0.87582912  0.25000000  0.62417088  1
  Cs  Cs2  1  0.62417088  0.87582912  0.25000000  1
  Cs  Cs3  1  0.75000000  0.37582912  0.12417088  1
  Cs  Cs4  1  0.12417088  0.75000000  0.37582912  1
  Cs  Cs5  1  0.37582912  0.12417088  0.75000000  1
  Rb  Rb0  1  0.25000000  0.25000000  0.25000000  1
  Rb  Rb1  1  0.75000000  0.75000000  0.75000000  1
  Sr  Sr0  1  0.00000000  0.00000000  0.00000000  1
  Sr  Sr1  1  0.50000000  0.50000000  0.50000000  1
  Br  Br0  1  0.55449270  0.20563914  0.42064431  1
  Br  Br1  1  0.42064431  0.55449270  0.20563914  1
  Br  Br2  1  0.20563914  0.42064431  0.55449270  1
  Br  Br3  1  0.94550730  0.07935569  0.29436086  1
  Br  Br4  1  0.29436086  0.94550730  0.07935569  1
  Br  Br5  1  0.07935569  0.29436086  0.94550730  1
  Br  Br6  1  0.44550730  0.79436086  0.57935569  1
  Br  Br7  1  0.57935569  0.44550730  0.79436086  1
  Br  Br8  1  0.79436086  0.57935569  0.44550730  1
  Br  Br9  1  0.05449270  0.92064431  0.70563914  1
  Br  Br10  1  0.92064431  0.70563914  0.05449270  1
  Br  Br11  1  0.70563914  0.05449270  0.92064431  1
loop_
_geom_bond_atom_site_label_1
_geom_bond_atom_site_label_2
_geom_bond_distance
_geom_bond_site_symmetry_2
Br0 Sr1 3.042528 1_555
Br0 Rb0 3.452458 1_555
Br0 Cs2 3.709287 1_545
Br0 Cs1 3.750053 1_555
Br0 Cs5 3.777814 1_555
Br0 Cs3 3.879887 1_555
Br1 Sr1 3.042528 1_555
Br1 Rb0 3.452459 1_555
Br1 Cs0 3.709287 1_554
Br1 Cs2 3.750053 1_555
Br1 Cs3 3.777814 1_555
Br1 Cs4 3.879887 1_555
Br2 Sr1 3.042528 1_555
Br2 Rb0 3.452459 1_555
Br2 Cs1 3.709287 1_455
Br2 Cs0 3.750053 1_555
Br2 Cs4 3.777814 1_555
Br2 Cs5 3.879887 1_555
Br3 Sr0 3.042528 1_655
Br3 Rb0 3.452458 1_655
Br3 Cs1 3.709287 1_555
Br3 Cs2 3.750053 1_545
Br3 Cs4 3.777814 1_645
Br3 Cs3 3.879887 1_555
Br4 Sr0 3.042528 1_565
Br4 Rb0 3.452459 1_565
Br4 Cs2 3.709287 1_555
Br4 Cs0 3.750053 1_554
Br4 Cs5 3.777814 1_564
Br4 Cs4 3.879887 1_555
Br5 Sr0 3.042528 1_556
Br5 Rb0 3.452458 1_556
Br5 Cs0 3.709287 1_555
Br5 Cs1 3.750053 1_455
Br5 Cs3 3.777814 1_456
Br5 Cs5 3.879887 1_555
Br6 Sr1 3.042528 1_555
Br6 Rb1 3.452458 1_555
Br6 Cs5 3.709287 1_565
Br6 Cs4 3.750053 1_555
Br6 Cs2 3.777814 1_555
Br6 Cs0 3.879887 1_555
Br7 Sr1 3.042528 1_555
Br7 Rb1 3.452459 1_555
Br7 Cs3 3.709287 1_556
Br7 Cs5 3.750053 1_555
Br7 Cs0 3.777814 1_555
Br7 Cs1 3.879887 1_555
Br8 Sr1 3.042528 1_555
Br8 Rb1 3.452459 1_555
Br8 Cs4 3.709287 1_655
Br8 Cs3 3.750053 1_555
Br8 Cs1 3.777814 1_555
Br8 Cs2 3.879887 1_555
Br9 Sr0 3.042528 1_566
Br9 Rb1 3.452458 1_455
Br9 Cs4 3.709287 1_555
Br9 Cs5 3.750053 1_565
Br9 Cs1 3.777814 1_465
Br9 Cs0 3.879887 1_555
Br10 Sr0 3.042528 1_665
Br10 Rb1 3.452458 1_554
Br10 Cs3 3.709287 1_555
Br10 Cs4 3.750053 1_655
Br10 Cs0 3.777814 1_654
Br10 Cs2 3.879887 1_555
Br11 Sr0 3.042528 1_656
Br11 Rb1 3.452459 1_545
Br11 Cs5 3.709287 1_555
Br11 Cs3 3.750053 1_556
Br11 Cs2 3.777814 1_546
Br11 Cs1 3.879887 1_555
