# generated using pymatgen
data_Ba4Fe2PdO10
_symmetry_space_group_name_H-M   'P 1'
_cell_length_a   7.20696600
_cell_length_b   7.20696654
_cell_length_c   13.05031998
_cell_angle_alpha   90.00000000
_cell_angle_beta   90.00000000
_cell_angle_gamma   132.87715458
_symmetry_Int_Tables_number   1
_chemical_formula_structural   Ba4Fe2PdO10
_chemical_formula_sum   'Ba8 Fe4 Pd2 O20'
_cell_volume   496.72961424
_cell_formula_units_Z   2
loop_
 _symmetry_equiv_pos_site_id
 _symmetry_equiv_pos_as_xyz
  1  'x, y, z'
loop_
 _atom_site_type_symbol
 _atom_site_label
 _atom_site_symmetry_multiplicity
 _atom_site_fract_x
 _atom_site_fract_y
 _atom_site_fract_z
 _atom_site_occupancy
  Ba  Ba0  1  0.46812672  0.53187328  0.13914473  1
  Ba  Ba1  1  0.23903340  0.76096660  0.88960335  1
  Ba  Ba2  1  0.73903340  0.26096660  0.61039665  1
  Ba  Ba3  1  0.03187328  0.96812672  0.63914473  1
  Ba  Ba4  1  0.96812672  0.03187328  0.36085527  1
  Ba  Ba5  1  0.26096660  0.73903340  0.38960335  1
  Ba  Ba6  1  0.53187328  0.46812672  0.86085527  1
  Ba  Ba7  1  0.76096660  0.23903340  0.11039665  1
  Fe  Fe0  1  0.13093399  0.86906601  0.15571626  1
  Fe  Fe1  1  0.36906601  0.63093399  0.65571626  1
  Fe  Fe2  1  0.86906601  0.13093399  0.84428374  1
  Fe  Fe3  1  0.63093399  0.36906601  0.34428374  1
  Pd  Pd0  1  0.00000000  0.00000000  0.00000000  1
  Pd  Pd1  1  0.50000000  0.50000000  0.50000000  1
  O  O0  1  0.52595446  0.47404554  0.65158428  1
  O  O1  1  0.73372805  0.26627195  0.84624043  1
  O  O2  1  0.38302313  0.16440877  0.46376332  1
  O  O3  1  0.88302313  0.66440877  0.03623668  1
  O  O4  1  0.62586095  0.87413905  0.75000000  1
  O  O5  1  0.12586095  0.37413905  0.75000000  1
  O  O6  1  0.26627195  0.73372805  0.15375957  1
  O  O7  1  0.02595446  0.97404554  0.84841572  1
  O  O8  1  0.37413905  0.12586095  0.25000000  1
  O  O9  1  0.83559123  0.61697687  0.46376332  1
  O  O10  1  0.76627195  0.23372805  0.34624043  1
  O  O11  1  0.47404554  0.52595446  0.34841572  1
  O  O12  1  0.87413905  0.62586095  0.25000000  1
  O  O13  1  0.11697687  0.33559123  0.96376332  1
  O  O14  1  0.61697687  0.83559123  0.53623668  1
  O  O15  1  0.23372805  0.76627195  0.65375957  1
  O  O16  1  0.66440877  0.88302313  0.96376332  1
  O  O17  1  0.16440877  0.38302313  0.53623668  1
  O  O18  1  0.97404554  0.02595446  0.15158428  1
  O  O19  1  0.33559123  0.11697687  0.03623668  1
loop_
_geom_bond_atom_site_label_1
_geom_bond_atom_site_label_2
_geom_bond_distance
_geom_bond_site_symmetry_2
Ba0 O6 2.673772 1_555
Ba0 O11 2.732173 1_555
Ba0 O3 2.787500 1_555
Ba0 O19 2.787500 1_555
Ba0 O18 2.886485 1_565
Ba0 O18 2.886485 1_455
Ba0 O12 2.901142 1_555
Ba0 O8 2.901143 1_555
Ba0 O13 2.961819 1_554
Ba0 O16 2.961819 1_554
Ba1 O16 2.727433 1_555
Ba1 O13 2.727433 1_555
Ba1 O7 2.866111 1_555
Ba1 O3 2.880882 1_456
Ba1 O19 2.880882 1_566
Ba1 O1 2.936746 1_455
Ba1 O1 2.936747 1_565
Ba1 O4 2.943159 1_555
Ba1 O5 2.943159 1_555
Ba1 O15 3.078635 1_555
Ba2 O17 2.727433 1_655
Ba2 O14 2.727433 1_545
Ba2 O0 2.866111 1_555
Ba2 O2 2.880882 1_555
Ba2 O9 2.880882 1_555
Ba2 O15 2.936746 1_545
Ba2 O15 2.936747 1_655
Ba2 O5 2.943159 1_655
Ba2 O4 2.943159 1_545
Ba2 O1 3.078635 1_555
Ba3 O15 2.673772 1_555
Ba3 O7 2.732173 1_555
Ba3 O14 2.787500 1_455
Ba3 O17 2.787500 1_565
Ba3 O0 2.886485 1_455
Ba3 O0 2.886485 1_565
Ba3 O4 2.901142 1_455
Ba3 O5 2.901143 1_565
Ba3 O2 2.961819 1_565
Ba3 O9 2.961819 1_455
Ba4 O10 2.673772 1_555
Ba4 O18 2.732173 1_555
Ba4 O2 2.787500 1_655
Ba4 O9 2.787500 1_545
Ba4 O11 2.886485 1_655
Ba4 O11 2.886485 1_545
Ba4 O8 2.901142 1_655
Ba4 O12 2.901143 1_545
Ba4 O14 2.961819 1_545
Ba4 O17 2.961819 1_655
Ba5 O9 2.727433 1_455
Ba5 O2 2.727433 1_565
Ba5 O11 2.866111 1_555
Ba5 O14 2.880882 1_555
Ba5 O17 2.880882 1_555
Ba5 O10 2.936746 1_565
Ba5 O10 2.936747 1_455
Ba5 O12 2.943159 1_455
Ba5 O8 2.943159 1_565
Ba5 O6 3.078635 1_555
Ba6 O1 2.673772 1_555
Ba6 O0 2.732173 1_555
Ba6 O13 2.787500 1_555
Ba6 O16 2.787500 1_555
Ba6 O7 2.886485 1_545
Ba6 O7 2.886485 1_655
Ba6 O5 2.901142 1_555
Ba6 O4 2.901143 1_555
Ba6 O3 2.961819 1_556
Ba6 O19 2.961819 1_556
Ba7 O19 2.727433 1_555
Ba7 O3 2.727433 1_555
Ba7 O18 2.866111 1_555
Ba7 O13 2.880882 1_654
Ba7 O16 2.880882 1_544
Ba7 O6 2.936746 1_655
Ba7 O6 2.936747 1_545
Ba7 O8 2.943159 1_555
Ba7 O12 2.943159 1_555
Ba7 O10 3.078635 1_555
Fe0 O6 1.788304 1_555
Fe0 O12 1.896538 1_455
Fe0 O8 1.896538 1_565
Fe0 O3 2.052498 1_455
Fe0 O19 2.052498 1_565
Fe0 O18 2.073554 1_465
Fe1 O15 1.788304 1_555
Fe1 O4 1.896538 1_555
Fe1 O5 1.896538 1_555
Fe1 O14 2.052498 1_555
Fe1 O17 2.052498 1_555
Fe1 O0 2.073554 1_555
Fe2 O1 1.788304 1_555
Fe2 O5 1.896538 1_655
Fe2 O4 1.896538 1_545
Fe2 O13 2.052498 1_655
Fe2 O16 2.052498 1_545
Fe2 O7 2.073554 1_645
Fe3 O10 1.788304 1_555
Fe3 O8 1.896538 1_555
Fe3 O12 1.896538 1_555
Fe3 O2 2.052498 1_555
Fe3 O9 2.052498 1_555
Fe3 O11 2.073554 1_555
O0 Pd1 2.007725 1_555
O2 Pd1 2.002296 1_555
O3 Pd0 2.002296 1_665
O7 Pd0 2.007725 1_566
O9 Pd1 2.002296 1_555
O11 Pd1 2.007725 1_555
O13 Pd0 2.002296 1_556
O14 Pd1 2.002296 1_555
O16 Pd0 2.002296 1_666
O17 Pd1 2.002296 1_555
O18 Pd0 2.007725 1_655
O19 Pd0 2.002296 1_555
