# generated using pymatgen
data_Ta3Al2ReC
_symmetry_space_group_name_H-M   'P 1'
_cell_length_a   8.29871603
_cell_length_b   8.29871589
_cell_length_c   8.29871512
_cell_angle_alpha   59.99999526
_cell_angle_beta   59.99999582
_cell_angle_gamma   59.99999665
_symmetry_Int_Tables_number   1
_chemical_formula_structural   Ta3Al2ReC
_chemical_formula_sum   'Ta12 Al8 Re4 C4'
_cell_volume   404.12676928
_cell_formula_units_Z   4
loop_
 _symmetry_equiv_pos_site_id
 _symmetry_equiv_pos_as_xyz
  1  'x, y, z'
loop_
 _atom_site_type_symbol
 _atom_site_label
 _atom_site_symmetry_multiplicity
 _atom_site_fract_x
 _atom_site_fract_y
 _atom_site_fract_z
 _atom_site_occupancy
  Ta  Ta0  1  0.55636352  0.94363648  0.55636352  1
  Ta  Ta1  1  0.30636352  0.69363648  0.69363648  1
  Ta  Ta2  1  0.69363648  0.30636352  0.30636352  1
  Ta  Ta3  1  0.30636352  0.69363648  0.30636352  1
  Ta  Ta4  1  0.69363648  0.69363648  0.30636352  1
  Ta  Ta5  1  0.30636352  0.30636352  0.69363648  1
  Ta  Ta6  1  0.55636352  0.55636352  0.94363648  1
  Ta  Ta7  1  0.94363648  0.55636352  0.55636352  1
  Ta  Ta8  1  0.55636352  0.94363648  0.94363648  1
  Ta  Ta9  1  0.94363648  0.94363648  0.55636352  1
  Ta  Ta10  1  0.69363648  0.30636352  0.69363648  1
  Ta  Ta11  1  0.94363648  0.55636352  0.94363648  1
  Al  Al0  1  0.91584038  0.91584038  0.91584038  1
  Al  Al1  1  0.99751913  0.33415962  0.33415962  1
  Al  Al2  1  0.33415962  0.99751913  0.33415962  1
  Al  Al3  1  0.33415962  0.33415962  0.99751913  1
  Al  Al4  1  0.91584038  0.25248087  0.91584038  1
  Al  Al5  1  0.91584038  0.91584038  0.25248087  1
  Al  Al6  1  0.25248087  0.91584038  0.91584038  1
  Al  Al7  1  0.33415962  0.33415962  0.33415962  1
  Re  Re0  1  0.12500000  0.12500000  0.12500000  1
  Re  Re1  1  0.62500000  0.12500000  0.12500000  1
  Re  Re2  1  0.12500000  0.62500000  0.12500000  1
  Re  Re3  1  0.12500000  0.12500000  0.62500000  1
  C  C0  1  0.62500000  0.62500000  0.62500000  1
  C  C1  1  0.12500000  0.62500000  0.62500000  1
  C  C2  1  0.62500000  0.12500000  0.62500000  1
  C  C3  1  0.62500000  0.62500000  0.12500000  1
loop_
_geom_bond_atom_site_label_1
_geom_bond_atom_site_label_2
_geom_bond_distance
_geom_bond_site_symmetry_2
Al0 Re3 2.546600 1_665
Al0 Re2 2.546600 1_656
Al0 Re1 2.546600 1_566
Al0 Ta9 2.771788 1_555
Al0 Ta11 2.771788 1_555
Al0 Ta8 2.771788 1_555
Al0 Al5 2.793684 1_556
Al0 Al4 2.793684 1_565
Al0 Al6 2.793684 1_655
Al0 Ta4 2.958355 1_556
Al0 Ta10 2.958355 1_565
Al0 Ta1 2.958355 1_655
Al1 Re0 2.546596 1_655
Al1 Re3 2.546609 1_655
Al1 Re2 2.546610 1_655
Al1 Ta2 2.771772 1_555
Al1 Ta10 2.771781 1_555
Al1 Ta4 2.771781 1_555
Al1 Al3 2.793684 1_654
Al1 Al2 2.793684 1_645
Al1 Al7 2.793684 1_655
Al1 Ta11 2.958349 1_554
Al1 Ta9 2.958349 1_545
Al1 Ta7 2.958363 1_555
Al2 Re0 2.546596 1_565
Al2 Re3 2.546609 1_565
Al2 Re1 2.546610 1_565
Al2 Ta3 2.771772 1_555
Al2 Ta1 2.771781 1_555
Al2 Ta4 2.771781 1_555
Al2 Al3 2.793684 1_564
Al2 Al7 2.793684 1_565
Al2 Ta8 2.958349 1_554
Al2 Ta9 2.958349 1_455
Al2 Ta0 2.958363 1_555
Al3 Re0 2.546596 1_556
Al3 Re2 2.546610 1_556
Al3 Re1 2.546610 1_556
Al3 Ta5 2.771771 1_555
Al3 Ta1 2.771781 1_555
Al3 Ta10 2.771781 1_555
Al3 Al7 2.793684 1_556
Al3 Ta8 2.958349 1_545
Al3 Ta11 2.958349 1_455
Al3 Ta6 2.958363 1_555
Al4 Re0 2.546596 1_656
Al4 Re3 2.546609 1_655
Al4 Re1 2.546610 1_556
Al4 Ta11 2.771772 1_555
Al4 Ta7 2.771781 1_555
Al4 Ta6 2.771781 1_555
Al4 Al5 2.793684 1_546
Al4 Al6 2.793684 1_645
Al4 Ta2 2.958349 1_556
Al4 Ta5 2.958349 1_655
Al4 Ta10 2.958363 1_555
Al5 Re0 2.546596 1_665
Al5 Re2 2.546610 1_655
Al5 Re1 2.546610 1_565
Al5 Ta9 2.771771 1_555
Al5 Ta7 2.771781 1_555
Al5 Ta0 2.771781 1_555
Al5 Al6 2.793684 1_654
Al5 Ta2 2.958349 1_565
Al5 Ta3 2.958349 1_655
Al5 Ta4 2.958363 1_555
Al6 Re0 2.546596 1_566
Al6 Re3 2.546609 1_565
Al6 Re2 2.546610 1_556
Al6 Ta8 2.771772 1_555
Al6 Ta0 2.771781 1_555
Al6 Ta6 2.771781 1_555
Al6 Ta3 2.958349 1_556
Al6 Ta5 2.958349 1_565
Al6 Ta1 2.958363 1_555
Al7 Re3 2.546600 1_555
Al7 Re2 2.546600 1_555
Al7 Re1 2.546600 1_555
Al7 Ta5 2.771788 1_555
Al7 Ta3 2.771788 1_555
Al7 Ta2 2.771788 1_555
Al7 Ta6 2.958355 1_554
Al7 Ta0 2.958355 1_545
Al7 Ta7 2.958355 1_455
Re0 Ta9 2.972347 1_445
Re0 Ta5 2.972347 1_554
Re0 Ta11 2.972347 1_454
Re0 Ta3 2.972347 1_545
Re0 Ta8 2.972347 1_544
Re0 Ta2 2.972347 1_455
Re1 Ta0 2.972347 1_545
Re1 Ta10 2.972347 1_554
Re1 Ta6 2.972347 1_554
Re1 Ta4 2.972347 1_545
Re1 Ta2 2.972348 1_555
Re1 Ta8 2.972348 1_544
Re2 Ta7 2.972347 1_455
Re2 Ta1 2.972347 1_554
Re2 Ta6 2.972348 1_554
Re2 Ta4 2.972348 1_455
Re2 Ta3 2.972348 1_555
Re2 Ta11 2.972348 1_454
Re3 Ta7 2.972347 1_455
Re3 Ta1 2.972347 1_545
Re3 Ta0 2.972348 1_545
Re3 Ta10 2.972348 1_455
Re3 Ta5 2.972348 1_555
Re3 Ta9 2.972348 1_445
C0 Ta6 2.225571 1_555
C0 Ta4 2.225571 1_555
C0 Ta0 2.225572 1_555
C0 Ta10 2.225572 1_555
C0 Ta7 2.225572 1_555
C0 Ta1 2.225572 1_555
C1 Ta11 2.225571 1_455
C1 Ta3 2.225571 1_555
C1 Ta9 2.225572 1_455
C1 Ta5 2.225572 1_555
C1 Ta1 2.225572 1_555
C1 Ta7 2.225572 1_455
C2 Ta8 2.225571 1_545
C2 Ta2 2.225571 1_555
C2 Ta9 2.225572 1_545
C2 Ta5 2.225572 1_555
C2 Ta10 2.225572 1_555
C2 Ta0 2.225572 1_545
C3 Ta8 2.225571 1_554
C3 Ta2 2.225571 1_555
C3 Ta11 2.225572 1_554
C3 Ta3 2.225572 1_555
C3 Ta4 2.225572 1_555
C3 Ta6 2.225572 1_554
