# generated using pymatgen
data_Ta8GaSi5W2
_symmetry_space_group_name_H-M   'P 1'
_cell_length_a   7.52505318
_cell_length_b   7.52505355
_cell_length_c   7.52505350
_cell_angle_alpha   129.08034346
_cell_angle_beta   129.08033878
_cell_angle_gamma   74.88133456
_symmetry_Int_Tables_number   1
_chemical_formula_structural   Ta8GaSi5W2
_chemical_formula_sum   'Ta8 Ga1 Si5 W2'
_cell_volume   250.08689491
_cell_formula_units_Z   1
loop_
 _symmetry_equiv_pos_site_id
 _symmetry_equiv_pos_as_xyz
  1  'x, y, z'
loop_
 _atom_site_type_symbol
 _atom_site_label
 _atom_site_symmetry_multiplicity
 _atom_site_fract_x
 _atom_site_fract_y
 _atom_site_fract_z
 _atom_site_occupancy
  Ta  Ta0  1  0.01615775  0.18825521  0.50512377  1
  Ta  Ta1  1  0.68313144  0.51103397  0.49487623  1
  Ta  Ta2  1  0.51103397  0.01615775  0.82790254  1
  Ta  Ta3  1  0.18825521  0.68313144  0.17209746  1
  Ta  Ta4  1  0.98896603  0.81686856  0.50512377  1
  Ta  Ta5  1  0.31174479  0.48384225  0.49487623  1
  Ta  Ta6  1  0.48384225  0.98896603  0.17209746  1
  Ta  Ta7  1  0.81686856  0.31174479  0.82790254  1
  Ga  Ga0  1  0.75000000  0.75000000  0.00000000  1
  Si  Si0  1  0.25000000  0.25000000  0.00000000  1
  Si  Si1  1  0.36835066  0.13164934  0.50000000  1
  Si  Si2  1  0.63164934  0.86835066  0.50000000  1
  Si  Si3  1  0.86835066  0.36835066  0.23670231  1
  Si  Si4  1  0.13164934  0.63164934  0.76329769  1
  W  W0  1  0.00229155  0.00229155  0.00000000  1
  W  W1  1  0.49770845  0.49770845  0.00000000  1
loop_
_geom_bond_atom_site_label_1
_geom_bond_atom_site_label_2
_geom_bond_distance
_geom_bond_site_symmetry_2
Ta0 W1 2.979214 1_556
Ta0 W0 3.047454 1_555
Ta1 W1 2.979214 1_555
Ta1 W0 3.047454 1_666
Ta2 W1 2.979214 1_556
Ta2 W0 3.047454 1_656
Ta3 W1 2.979214 1_555
Ta3 W0 3.047454 1_565
Ta4 W0 2.979214 1_666
Ta4 W1 3.047454 1_555
Ta5 W0 2.979214 1_555
Ta5 W1 3.047455 1_556
Ta6 W0 2.979214 1_565
Ta6 W1 3.047454 1_555
Ta7 W0 2.979214 1_656
Ta7 W1 3.047454 1_556
Ga0 Ta6 2.716167 1_555
Ga0 Ta3 2.716167 1_655
Ga0 Ta7 2.716167 1_554
Ga0 Ta1 2.716167 1_554
Ga0 Ta0 2.716167 1_665
Ga0 Ta2 2.716167 1_564
Ga0 Ta5 2.716167 1_554
Ga0 Ta4 2.716168 1_555
Ga0 W0 3.014766 1_665
Ga0 W1 3.014766 1_555
Si0 Ta2 2.676396 1_554
Si0 Ta7 2.676397 1_454
Si0 Ta3 2.676397 1_555
Si0 Ta5 2.676397 1_555
Si0 Ta4 2.676397 1_444
Si0 Ta6 2.676397 1_545
Si0 Ta1 2.676397 1_555
Si0 Ta0 2.676397 1_554
Si0 W1 2.960000 1_555
Si0 W0 2.960000 1_555
Si1 Si2 2.409066 1_545
Si1 W1 2.530904 1_556
Si1 W0 2.530904 1_555
Si1 Ta0 2.593474 1_555
Si1 Ta5 2.593474 1_555
Si1 Ta6 2.621693 1_545
Si1 Ta2 2.621693 1_555
Si1 Ta7 2.643144 1_555
Si1 Ta3 2.643144 1_545
Si2 W1 2.530904 1_555
Si2 W0 2.530904 1_666
Si2 Ta4 2.593474 1_555
Si2 Ta1 2.593474 1_555
Si2 Ta3 2.621693 1_555
Si2 Ta7 2.621693 1_565
Si2 Ta2 2.643144 1_565
Si2 Ta6 2.643144 1_555
Si3 Si4 2.409057 1_655
Si3 W1 2.530906 1_555
Si3 W0 2.530906 1_655
Si3 Ta2 2.593474 1_554
Si3 Ta7 2.593482 1_554
Si3 Ta1 2.621686 1_555
Si3 Ta5 2.621695 1_655
Si3 Ta0 2.643138 1_655
Si3 Ta4 2.643146 1_555
Si4 W0 2.530906 1_566
Si4 W1 2.530906 1_556
Si4 Ta6 2.593474 1_556
Si4 Ta3 2.593482 1_556
Si4 Ta4 2.621687 1_455
Si4 Ta0 2.621695 1_555
Si4 Ta5 2.643138 1_555
Si4 Ta1 2.643146 1_455
