# generated using pymatgen
data_K2(SO2)3
_symmetry_space_group_name_H-M   'P 1'
_cell_length_a   5.81556300
_cell_length_b   9.95427500
_cell_length_c   14.30669400
_cell_angle_alpha   90.00000000
_cell_angle_beta   90.00000000
_cell_angle_gamma   90.00000000
_symmetry_Int_Tables_number   1
_chemical_formula_structural   K2(SO2)3
_chemical_formula_sum   'K8 S12 O24'
_cell_volume   828.21041510
_cell_formula_units_Z   4
loop_
 _symmetry_equiv_pos_site_id
 _symmetry_equiv_pos_as_xyz
  1  'x, y, z'
loop_
 _atom_site_type_symbol
 _atom_site_label
 _atom_site_symmetry_multiplicity
 _atom_site_fract_x
 _atom_site_fract_y
 _atom_site_fract_z
 _atom_site_occupancy
  K  K0  1  0.25000000  0.81738400  0.23528200  1
  K  K1  1  0.75000000  0.18261600  0.76471800  1
  K  K2  1  0.25000000  0.31738400  0.26471800  1
  K  K3  1  0.75000000  0.68261600  0.73528200  1
  K  K4  1  0.25000000  0.86509800  0.91079800  1
  K  K5  1  0.75000000  0.13490200  0.08920200  1
  K  K6  1  0.25000000  0.36509800  0.58920200  1
  K  K7  1  0.75000000  0.63490200  0.41079800  1
  S  S0  1  0.25000000  0.70236700  0.53254000  1
  S  S1  1  0.75000000  0.29763300  0.46746000  1
  S  S2  1  0.25000000  0.20236700  0.96746000  1
  S  S3  1  0.75000000  0.79763300  0.03254000  1
  S  S4  1  0.25000000  0.91369800  0.54131400  1
  S  S5  1  0.75000000  0.08630200  0.45868600  1
  S  S6  1  0.25000000  0.41369800  0.95868600  1
  S  S7  1  0.75000000  0.58630200  0.04131400  1
  S  S8  1  0.25000000  0.97078000  0.68474900  1
  S  S9  1  0.75000000  0.02922000  0.31525100  1
  S  S10  1  0.25000000  0.47078000  0.81525100  1
  S  S11  1  0.75000000  0.52922000  0.18474900  1
  O  O0  1  0.53952800  0.35129300  0.42449600  1
  O  O1  1  0.03952800  0.64870700  0.57550400  1
  O  O2  1  0.96047200  0.85129300  0.07550400  1
  O  O3  1  0.46047200  0.14870700  0.92449600  1
  O  O4  1  0.46047200  0.64870700  0.57550400  1
  O  O5  1  0.96047200  0.35129300  0.42449600  1
  O  O6  1  0.03952800  0.14870700  0.92449600  1
  O  O7  1  0.53952800  0.85129300  0.07550400  1
  O  O8  1  0.53935700  0.08025800  0.27114600  1
  O  O9  1  0.03935700  0.91974200  0.72885400  1
  O  O10  1  0.96064300  0.58025800  0.22885400  1
  O  O11  1  0.46064300  0.41974200  0.77114600  1
  O  O12  1  0.46064300  0.91974200  0.72885400  1
  O  O13  1  0.96064300  0.08025800  0.27114600  1
  O  O14  1  0.03935700  0.41974200  0.77114600  1
  O  O15  1  0.53935700  0.58025800  0.22885400  1
  O  O16  1  0.25000000  0.69159100  0.42966600  1
  O  O17  1  0.75000000  0.30840900  0.57033400  1
  O  O18  1  0.25000000  0.19159100  0.07033400  1
  O  O19  1  0.75000000  0.80840900  0.92966600  1
  O  O20  1  0.75000000  0.38274000  0.17167200  1
  O  O21  1  0.25000000  0.61726000  0.82832800  1
  O  O22  1  0.75000000  0.88274000  0.32832800  1
  O  O23  1  0.25000000  0.11726000  0.67167200  1
loop_
_geom_bond_atom_site_label_1
_geom_bond_atom_site_label_2
_geom_bond_distance
_geom_bond_site_symmetry_2
K0 O7 2.859078 1_555
K0 O2 2.859078 1_455
K0 O15 2.900303 1_555
K0 O10 2.900303 1_455
K0 O16 3.049897 1_555
K0 O13 3.153128 1_465
K0 O8 3.153128 1_565
K0 O22 3.263507 1_555
K0 O22 3.263507 1_455
K1 O3 2.859078 1_555
K1 O6 2.859078 1_655
K1 O11 2.900303 1_555
K1 O14 2.900303 1_655
K1 O17 3.049897 1_555
K1 O12 3.153128 1_545
K1 O9 3.153128 1_645
K1 O23 3.263507 1_655
K1 O23 3.263507 1_555
K2 O0 2.859078 1_555
K2 O5 2.859078 1_455
K2 O8 2.900303 1_555
K2 O13 2.900303 1_455
K2 O18 3.049897 1_555
K2 O15 3.153128 1_555
K2 O10 3.153128 1_455
K2 O20 3.263507 1_455
K2 O20 3.263507 1_555
K3 O1 2.859078 1_655
K3 O4 2.859078 1_555
K3 O12 2.900303 1_555
K3 O9 2.900303 1_655
K3 O19 3.049897 1_555
K3 O11 3.153128 1_555
K3 O14 3.153128 1_655
K3 O21 3.263507 1_555
K3 O21 3.263507 1_655
K4 O21 2.734671 1_555
K4 O7 2.899409 1_556
K4 O2 2.899409 1_456
K4 O9 2.927834 1_555
K4 O12 2.927834 1_555
K4 O19 2.974305 1_555
K4 O19 2.974305 1_455
K4 O6 3.083283 1_565
K4 O3 3.083283 1_565
K5 O20 2.734671 1_555
K5 O3 2.899409 1_554
K5 O6 2.899409 1_654
K5 O8 2.927834 1_555
K5 O13 2.927834 1_555
K5 O18 2.974305 1_655
K5 O18 2.974305 1_555
K5 O7 3.083283 1_545
K5 O2 3.083283 1_545
K6 O23 2.734671 1_555
K6 O0 2.899409 1_555
K6 O5 2.899409 1_455
K6 O14 2.927834 1_555
K6 O11 2.927834 1_555
K6 O17 2.974305 1_555
K6 O17 2.974305 1_455
K6 O4 3.083283 1_555
K6 O1 3.083283 1_555
K7 O22 2.734671 1_555
K7 O4 2.899409 1_555
K7 O1 2.899409 1_655
K7 O10 2.927834 1_555
K7 O15 2.927834 1_555
K7 O16 2.974305 1_555
K7 O16 2.974305 1_655
K7 O0 3.083283 1_555
K7 O5 3.083283 1_555
S0 S4 2.107389 1_555
S1 S5 2.107389 1_555
S2 S6 2.107389 1_555
S3 S7 2.107389 1_555
S4 S8 2.129295 1_555
S5 S9 2.129295 1_555
S10 S6 2.129295 1_555
S11 S7 2.129295 1_555
O0 S1 1.470151 1_555
O1 S0 1.470151 1_555
O2 S3 1.470151 1_555
O3 S2 1.470151 1_555
O4 S0 1.470151 1_555
O5 S1 1.470151 1_555
O6 S2 1.470151 1_555
O7 S3 1.470151 1_555
O8 S9 1.468643 1_555
O9 S8 1.468643 1_555
O10 S11 1.468643 1_555
O11 S10 1.468643 1_555
O12 S8 1.468643 1_555
O13 S9 1.468643 1_555
O14 S10 1.468643 1_555
O15 S11 1.468643 1_555
O16 S0 1.475691 1_555
O17 S1 1.475691 1_555
O18 S2 1.475691 1_554
O19 S3 1.475691 1_556
O20 S11 1.470056 1_555
O21 S10 1.470056 1_555
O22 S9 1.470056 1_565
O23 S8 1.470056 1_545
