# generated using pymatgen
data_Ag2Mo(OF2)2
_symmetry_space_group_name_H-M   'P 1'
_cell_length_a   8.87828221
_cell_length_b   8.87828232
_cell_length_c   5.95177720
_cell_angle_alpha   90.00000000
_cell_angle_beta   90.00000000
_cell_angle_gamma   146.52972587
_symmetry_Int_Tables_number   1
_chemical_formula_structural   Ag2Mo(OF2)2
_chemical_formula_sum   'Ag4 Mo2 O4 F8'
_cell_volume   258.73396762
_cell_formula_units_Z   2
loop_
 _symmetry_equiv_pos_site_id
 _symmetry_equiv_pos_as_xyz
  1  'x, y, z'
loop_
 _atom_site_type_symbol
 _atom_site_label
 _atom_site_symmetry_multiplicity
 _atom_site_fract_x
 _atom_site_fract_y
 _atom_site_fract_z
 _atom_site_occupancy
  Ag  Ag0  1  0.38067917  0.58475849  0.25000000  1
  Ag  Ag1  1  0.58475849  0.38067917  0.75000000  1
  Ag  Ag2  1  0.83868146  0.28563099  0.25000000  1
  Ag  Ag3  1  0.28563099  0.83868145  0.75000000  1
  Mo  Mo0  1  0.10380056  0.88933827  0.25000000  1
  Mo  Mo1  1  0.88933827  0.10380056  0.75000000  1
  O  O0  1  0.09997343  0.26157001  0.97703027  1
  O  O1  1  0.26157001  0.09997343  0.02296973  1
  O  O2  1  0.26157001  0.09997343  0.47703027  1
  O  O3  1  0.09997343  0.26157001  0.52296973  1
  F  F0  1  0.77117482  0.72218055  0.25000000  1
  F  F1  1  0.72218055  0.77117482  0.75000000  1
  F  F2  1  0.89847805  0.57116128  0.03231514  1
  F  F3  1  0.57116128  0.89847805  0.96768486  1
  F  F4  1  0.57116128  0.89847805  0.53231514  1
  F  F5  1  0.89847805  0.57116128  0.46768486  1
  F  F6  1  0.34417969  0.91420847  0.25000000  1
  F  F7  1  0.91420847  0.34417969  0.75000000  1
loop_
_geom_bond_atom_site_label_1
_geom_bond_atom_site_label_2
_geom_bond_distance
_geom_bond_site_symmetry_2
Ag0 O3 2.270116 1_555
Ag0 O0 2.270116 1_554
Ag0 F4 2.362770 1_555
Ag0 F3 2.362770 1_554
Ag0 F0 2.539931 1_555
Ag1 O1 2.270116 1_556
Ag1 O2 2.270116 1_555
Ag1 F2 2.362770 1_556
Ag1 F5 2.362770 1_555
Ag1 F1 2.539931 1_555
Ag2 F6 2.448595 1_545
Ag2 F5 2.478202 1_555
Ag2 F2 2.478202 1_555
Ag2 F4 2.580515 1_545
Ag2 F3 2.580515 1_544
Ag3 F7 2.448595 1_455
Ag3 F3 2.478202 1_555
Ag3 F4 2.478202 1_555
Ag3 F2 2.580515 1_456
Ag3 F5 2.580515 1_455
Mo0 O2 1.707304 1_565
Mo0 O1 1.707304 1_565
Mo1 O0 1.707304 1_655
Mo1 O3 1.707304 1_655
F0 Mo0 1.900451 1_655
F1 Mo1 1.900451 1_565
F2 Mo0 2.095323 1_655
F3 Mo1 2.095322 1_565
F4 Mo1 2.095322 1_565
F5 Mo0 2.095323 1_655
F6 Mo0 1.953763 1_555
F7 Mo1 1.953763 1_555
