# generated using pymatgen
data_Cs2Si(WO4)3
_symmetry_space_group_name_H-M   'P 1'
_cell_length_a   6.97776501
_cell_length_b   6.97776514
_cell_length_c   6.97776518
_cell_angle_alpha   62.59607854
_cell_angle_beta   62.59607893
_cell_angle_gamma   62.59607899
_symmetry_Int_Tables_number   1
_chemical_formula_structural   Cs2Si(WO4)3
_chemical_formula_sum   'Cs2 Si1 W3 O12'
_cell_volume   254.12228102
_cell_formula_units_Z   1
loop_
 _symmetry_equiv_pos_site_id
 _symmetry_equiv_pos_as_xyz
  1  'x, y, z'
loop_
 _atom_site_type_symbol
 _atom_site_label
 _atom_site_symmetry_multiplicity
 _atom_site_fract_x
 _atom_site_fract_y
 _atom_site_fract_z
 _atom_site_occupancy
  Cs  Cs0  1  0.37060837  0.37060837  0.37060837  1
  Cs  Cs1  1  0.62939163  0.62939163  0.62939163  1
  Si  Si0  1  0.00000000  0.00000000  0.00000000  1
  W  W0  1  0.50000000  0.00000000  0.00000000  1
  W  W1  1  0.00000000  0.00000000  0.50000000  1
  W  W2  1  0.00000000  0.50000000  0.00000000  1
  O  O0  1  0.94607746  0.31780973  0.31780973  1
  O  O1  1  0.29110634  0.94731593  0.94731593  1
  O  O2  1  0.31780973  0.31780973  0.94607746  1
  O  O3  1  0.94731593  0.94731593  0.29110634  1
  O  O4  1  0.94731593  0.29110634  0.94731593  1
  O  O5  1  0.31780973  0.94607746  0.31780973  1
  O  O6  1  0.05392254  0.68219027  0.68219027  1
  O  O7  1  0.70889366  0.05268407  0.05268407  1
  O  O8  1  0.68219027  0.68219027  0.05392254  1
  O  O9  1  0.05268407  0.05268407  0.70889366  1
  O  O10  1  0.05268407  0.70889366  0.05268407  1
  O  O11  1  0.68219027  0.05392254  0.68219027  1
loop_
_geom_bond_atom_site_label_1
_geom_bond_atom_site_label_2
_geom_bond_distance
_geom_bond_site_symmetry_2
Cs0 O8 3.137369 1_555
Cs0 O11 3.137369 1_555
Cs0 O6 3.137369 1_555
Cs0 O9 3.209989 1_555
Cs0 O10 3.209989 1_555
Cs0 O7 3.209989 1_555
Cs0 O0 3.343757 1_455
Cs0 O5 3.343757 1_545
Cs0 O2 3.343758 1_554
Cs1 O2 3.137369 1_555
Cs1 O5 3.137369 1_555
Cs1 O0 3.137369 1_555
Cs1 O3 3.209989 1_555
Cs1 O4 3.209989 1_555
Cs1 O1 3.209989 1_555
Cs1 O6 3.343757 1_655
Cs1 O11 3.343757 1_565
Cs1 O8 3.343758 1_556
O0 W1 1.937161 1_655
O0 W2 1.937161 1_655
O1 Si0 1.773694 1_566
O1 W0 1.872385 1_566
O2 W2 1.937161 1_556
O2 W0 1.937161 1_556
O3 Si0 1.773694 1_665
O3 W1 1.872385 1_665
O4 Si0 1.773694 1_656
O4 W2 1.872385 1_656
O5 W1 1.937161 1_565
O5 W0 1.937161 1_565
O6 W1 1.937161 1_565
O6 W2 1.937161 1_556
O7 Si0 1.773694 1_655
O7 W0 1.872385 1_555
O8 W2 1.937161 1_655
O8 W0 1.937161 1_565
O9 Si0 1.773694 1_556
O9 W1 1.872385 1_555
O10 Si0 1.773694 1_565
O10 W2 1.872385 1_555
O11 W1 1.937161 1_655
O11 W0 1.937161 1_556
