# generated using pymatgen
data_Ta2CoH
_symmetry_space_group_name_H-M   'P 1'
_cell_length_a   5.04768349
_cell_length_b   5.04768347
_cell_length_c   5.04768412
_cell_angle_alpha   104.72452803
_cell_angle_beta   104.72452659
_cell_angle_gamma   119.44949833
_symmetry_Int_Tables_number   1
_chemical_formula_structural   Ta2CoH
_chemical_formula_sum   'Ta4 Co2 H2'
_cell_volume   96.71834159
_cell_formula_units_Z   2
loop_
 _symmetry_equiv_pos_site_id
 _symmetry_equiv_pos_as_xyz
  1  'x, y, z'
loop_
 _atom_site_type_symbol
 _atom_site_label
 _atom_site_symmetry_multiplicity
 _atom_site_fract_x
 _atom_site_fract_y
 _atom_site_fract_z
 _atom_site_occupancy
  Ta  Ta0  1  0.16790678  0.66790678  0.83581556  1
  Ta  Ta1  1  0.83209322  0.33209322  0.16418444  1
  Ta  Ta2  1  0.33209322  0.16790678  0.50000000  1
  Ta  Ta3  1  0.66790678  0.83209322  0.50000000  1
  Co  Co0  1  0.25000000  0.25000000  0.00000000  1
  Co  Co1  1  0.75000000  0.75000000  0.00000000  1
  H  H0  1  0.75000000  0.25000000  0.50000000  1
  H  H1  1  0.25000000  0.75000000  0.50000000  1
loop_
_geom_bond_atom_site_label_1
_geom_bond_atom_site_label_2
_geom_bond_distance
_geom_bond_site_symmetry_2
Co0 Co1 2.544813 1_445
Co0 Co1 2.544813 1_555
Co0 Ta1 2.623361 1_455
Co0 Ta0 2.623361 1_554
Co0 Ta3 2.623365 1_555
Co0 Ta3 2.623365 1_444
Co0 Ta0 2.623365 1_544
Co0 Ta1 2.623365 1_555
Co0 Ta2 2.623366 1_554
Co0 Ta2 2.623366 1_555
Co1 Ta0 2.623361 1_654
Co1 Ta1 2.623361 1_555
Co1 Ta2 2.623365 1_554
Co1 Ta2 2.623365 1_665
Co1 Ta1 2.623365 1_565
Co1 Ta0 2.623365 1_554
Co1 Ta3 2.623366 1_555
Co1 Ta3 2.623366 1_554
H0 Ta3 1.939589 1_545
H0 Ta2 1.939589 1_555
H0 Ta0 1.939592 1_655
H0 Ta1 1.939599 1_555
H1 Ta2 1.939589 1_565
H1 Ta3 1.939589 1_555
H1 Ta1 1.939592 1_455
H1 Ta0 1.939599 1_555
