# generated using pymatgen
data_La5Sn3I
_symmetry_space_group_name_H-M   'P 1'
_cell_length_a   9.78693246
_cell_length_b   9.78693388
_cell_length_c   7.16629120
_cell_angle_alpha   89.99999691
_cell_angle_beta   90.00002404
_cell_angle_gamma   120.00003042
_symmetry_Int_Tables_number   1
_chemical_formula_structural   La5Sn3I
_chemical_formula_sum   'La10 Sn6 I2'
_cell_volume   594.45392062
_cell_formula_units_Z   2
loop_
 _symmetry_equiv_pos_site_id
 _symmetry_equiv_pos_as_xyz
  1  'x, y, z'
loop_
 _atom_site_type_symbol
 _atom_site_label
 _atom_site_symmetry_multiplicity
 _atom_site_fract_x
 _atom_site_fract_y
 _atom_site_fract_z
 _atom_site_occupancy
  La  La0  1  0.72205809  0.72206073  0.25000000  1
  La  La1  1  0.33333300  0.66666700  0.50000000  1
  La  La2  1  0.27794027  0.27794191  0.75000000  1
  La  La3  1  0.00000164  0.27794191  0.25000000  1
  La  La4  1  0.66666700  0.33333300  0.50000000  1
  La  La5  1  0.27794027  0.99999836  0.25000000  1
  La  La6  1  0.72205809  0.99999836  0.75000000  1
  La  La7  1  0.33333300  0.66666700  0.00000000  1
  La  La8  1  0.66666700  0.33333300  -0.00000000  1
  La  La9  1  0.00000164  0.72205973  0.75000000  1
  Sn  Sn0  1  0.38468168  0.38470553  0.25000000  1
  Sn  Sn1  1  0.61529447  0.61531832  0.75000000  1
  Sn  Sn2  1  0.38468168  0.99997615  0.75000000  1
  Sn  Sn3  1  0.00002385  0.61531832  0.25000000  1
  Sn  Sn4  1  0.61529447  0.99997615  0.25000000  1
  Sn  Sn5  1  0.00002385  0.38470553  0.75000000  1
  I  I0  1  -0.00000000  0.00000000  -0.00000000  1
  I  I1  1  -0.00000000  0.00000000  0.50000000  1
loop_
_geom_bond_atom_site_label_1
_geom_bond_atom_site_label_2
_geom_bond_distance
_geom_bond_site_symmetry_2
La0 Sn0 3.301775 1_555
La0 Sn4 3.366289 1_555
La0 Sn3 3.366615 1_655
La0 Sn1 3.732359 1_554
La0 Sn1 3.732360 1_555
La1 Sn3 3.530448 1_555
La1 Sn2 3.530449 1_555
La1 Sn5 3.530452 1_555
La1 Sn4 3.530452 1_555
La1 Sn1 3.530457 1_555
La1 Sn0 3.530458 1_555
La2 Sn1 3.301770 1_555
La2 Sn5 3.366298 1_555
La2 Sn2 3.366608 1_545
La2 Sn0 3.732358 1_556
La2 Sn0 3.732358 1_555
La3 Sn3 3.301772 1_555
La3 Sn0 3.366297 1_555
La3 Sn4 3.366606 1_445
La3 Sn5 3.732358 1_554
La3 Sn5 3.732358 1_555
La4 Sn5 3.530772 1_655
La4 Sn4 3.530773 1_545
La4 Sn3 3.530775 1_655
La4 Sn2 3.530775 1_545
La4 Sn0 3.530781 1_555
La4 Sn1 3.530782 1_555
La5 Sn4 3.301771 1_555
La5 Sn3 3.366296 1_555
La5 Sn0 3.366607 1_565
La5 Sn2 3.732358 1_555
La5 Sn2 3.732359 1_554
La6 Sn2 3.301771 1_555
La6 Sn1 3.366297 1_555
La6 Sn5 3.366606 1_665
La6 Sn4 3.732358 1_555
La6 Sn4 3.732359 1_556
La7 Sn2 3.530449 1_554
La7 Sn3 3.530450 1_555
La7 Sn5 3.530451 1_554
La7 Sn4 3.530451 1_555
La7 Sn0 3.530458 1_555
La7 Sn1 3.530458 1_554
La8 Sn4 3.530773 1_545
La8 Sn5 3.530773 1_654
La8 Sn3 3.530774 1_655
La8 Sn2 3.530774 1_544
La8 Sn1 3.530781 1_554
La8 Sn0 3.530782 1_555
La9 Sn5 3.301772 1_555
La9 Sn2 3.366296 1_555
La9 Sn1 3.366607 1_455
La9 Sn3 3.732358 1_556
La9 Sn3 3.732358 1_555
I0 La0 3.257168 1_445
I0 La6 3.257172 1_444
I0 La5 3.257172 1_545
I0 La2 3.257172 1_554
I0 La3 3.257173 1_555
I0 La9 3.257173 1_544
I1 La0 3.257167 1_445
I1 La2 3.257171 1_555
I1 La3 3.257172 1_555
I1 La9 3.257172 1_545
I1 La6 3.257173 1_445
I1 La5 3.257173 1_545
