# generated using pymatgen
data_Ca5Si2SbH
_symmetry_space_group_name_H-M   'P 1'
_cell_length_a   9.14018295
_cell_length_b   9.14018257
_cell_length_c   9.14018323
_cell_angle_alpha   129.59195923
_cell_angle_beta   129.59196132
_cell_angle_gamma   74.05992780
_symmetry_Int_Tables_number   1
_chemical_formula_structural   Ca5Si2SbH
_chemical_formula_sum   'Ca10 Si4 Sb2 H2'
_cell_volume   442.18152120
_cell_formula_units_Z   2
loop_
 _symmetry_equiv_pos_site_id
 _symmetry_equiv_pos_as_xyz
  1  'x, y, z'
loop_
 _atom_site_type_symbol
 _atom_site_label
 _atom_site_symmetry_multiplicity
 _atom_site_fract_x
 _atom_site_fract_y
 _atom_site_fract_z
 _atom_site_occupancy
  Ca  Ca0  1  0.50000000  0.50000000  0.00000000  1
  Ca  Ca1  1  0.00000000  0.00000000  0.00000000  1
  Ca  Ca2  1  0.52124329  0.02124329  0.82664133  1
  Ca  Ca3  1  0.19460396  0.69460396  0.17335867  1
  Ca  Ca4  1  0.02124329  0.19460396  0.50000000  1
  Ca  Ca5  1  0.69460396  0.52124329  0.50000000  1
  Ca  Ca6  1  0.47875671  0.97875671  0.17335867  1
  Ca  Ca7  1  0.80539604  0.30539604  0.82664133  1
  Ca  Ca8  1  0.97875671  0.80539604  0.50000000  1
  Ca  Ca9  1  0.30539604  0.47875671  0.50000000  1
  Si  Si0  1  0.88482277  0.38482277  0.26964554  1
  Si  Si1  1  0.11517723  0.61517723  0.73035446  1
  Si  Si2  1  0.38482277  0.11517723  0.50000000  1
  Si  Si3  1  0.61517723  0.88482277  0.50000000  1
  Sb  Sb0  1  0.25000000  0.25000000  0.00000000  1
  Sb  Sb1  1  0.75000000  0.75000000  0.00000000  1
  H  H0  1  0.25000000  0.75000000  0.50000000  1
  H  H1  1  0.75000000  0.25000000  0.50000000  1
loop_
_geom_bond_atom_site_label_1
_geom_bond_atom_site_label_2
_geom_bond_distance
_geom_bond_site_symmetry_2
Ca0 Si0 3.126976 1_555
Ca0 Si1 3.126976 1_554
Ca0 Si3 3.126976 1_555
Ca0 Si2 3.126976 1_554
Ca0 Sb1 3.648398 1_555
Ca0 Sb0 3.648398 1_555
Ca1 Si0 3.126976 1_455
Ca1 Si1 3.126976 1_544
Ca1 Si2 3.126976 1_555
Ca1 Si3 3.126976 1_444
Ca1 Sb1 3.648398 1_445
Ca1 Sb0 3.648398 1_555
Ca2 H0 2.390266 1_545
Ca2 Si2 3.023190 1_555
Ca2 Si3 3.023190 1_545
Ca2 Si0 3.200854 1_556
Ca2 Sb1 3.311508 1_546
Ca2 Sb0 3.311508 1_556
Ca3 H0 2.390285 1_555
Ca3 Si2 3.023170 1_565
Ca3 Si3 3.023170 1_555
Ca3 Si1 3.200835 1_554
Ca3 Sb0 3.311522 1_555
Ca3 Sb1 3.311522 1_455
Ca4 H1 2.390267 1_455
Ca4 Si0 3.023174 1_455
Ca4 Si1 3.023174 1_555
Ca4 Si2 3.200853 1_555
Ca4 Sb0 3.311519 1_556
Ca4 Sb1 3.311519 1_445
Ca5 H1 2.390267 1_555
Ca5 Si1 3.023174 1_655
Ca5 Si0 3.023174 1_555
Ca5 Si3 3.200853 1_555
Ca5 Sb0 3.311519 1_555
Ca5 Sb1 3.311519 1_556
Ca6 H1 2.390266 1_565
Ca6 Si3 3.023190 1_555
Ca6 Si2 3.023190 1_565
Ca6 Si1 3.200854 1_554
Ca6 Sb0 3.311508 1_565
Ca6 Sb1 3.311508 1_555
Ca7 H1 2.390285 1_555
Ca7 Si3 3.023170 1_545
Ca7 Si2 3.023170 1_555
Ca7 Si0 3.200835 1_556
Ca7 Sb1 3.311522 1_556
Ca7 Sb0 3.311522 1_656
Ca8 H0 2.390267 1_655
Ca8 Si1 3.023174 1_655
Ca8 Si0 3.023174 1_555
Ca8 Si3 3.200853 1_555
Ca8 Sb1 3.311519 1_555
Ca8 Sb0 3.311519 1_666
Ca9 H0 2.390267 1_555
Ca9 Si0 3.023174 1_455
Ca9 Si1 3.023174 1_555
Ca9 Si2 3.200853 1_555
Ca9 Sb1 3.311519 1_556
Ca9 Sb0 3.311519 1_555
Si0 Si1 2.535980 1_655
Si2 Si3 2.535980 1_545
