# generated using pymatgen
data_Lu2PdPtO7
_symmetry_space_group_name_H-M   'P 1'
_cell_length_a   7.08295301
_cell_length_b   7.06759162
_cell_length_c   7.08295231
_cell_angle_alpha   60.07171447
_cell_angle_beta   60.12165492
_cell_angle_gamma   60.07171346
_symmetry_Int_Tables_number   1
_chemical_formula_structural   Lu2PdPtO7
_chemical_formula_sum   'Lu4 Pd2 Pt2 O14'
_cell_volume   251.21964771
_cell_formula_units_Z   2
loop_
 _symmetry_equiv_pos_site_id
 _symmetry_equiv_pos_as_xyz
  1  'x, y, z'
loop_
 _atom_site_type_symbol
 _atom_site_label
 _atom_site_symmetry_multiplicity
 _atom_site_fract_x
 _atom_site_fract_y
 _atom_site_fract_z
 _atom_site_occupancy
  Lu  Lu0  1  0.62500000  0.62500000  0.12500000  1
  Lu  Lu1  1  0.62500000  0.62500000  0.62500000  1
  Lu  Lu2  1  0.62500000  0.12500000  0.62500000  1
  Lu  Lu3  1  0.12500000  0.62500000  0.62500000  1
  Pd  Pd0  1  0.62500000  0.12500000  0.12500000  1
  Pd  Pd1  1  0.12500000  0.12500000  0.62500000  1
  Pt  Pt0  1  0.12500000  0.12500000  0.12500000  1
  Pt  Pt1  1  0.12500000  0.62500000  0.12500000  1
  O  O0  1  0.03123141  0.46860192  0.46834820  1
  O  O1  1  0.78165180  0.78139808  0.21876859  1
  O  O2  1  0.78165180  0.21818153  0.21876859  1
  O  O3  1  0.46679348  0.03320652  0.46679348  1
  O  O4  1  0.75005672  0.74994328  0.75005672  1
  O  O5  1  0.02958889  0.47041111  0.02958889  1
  O  O6  1  0.03123141  0.03181847  0.46834820  1
  O  O7  1  0.22041111  0.77958889  0.22041111  1
  O  O8  1  0.21876859  0.21818153  0.78165180  1
  O  O9  1  0.78320652  0.21679348  0.78320652  1
  O  O10  1  0.49994328  0.50005672  0.49994328  1
  O  O11  1  0.46834820  0.03181847  0.03123141  1
  O  O12  1  0.46834820  0.46860192  0.03123141  1
  O  O13  1  0.21876859  0.78139808  0.78165180  1
loop_
_geom_bond_atom_site_label_1
_geom_bond_atom_site_label_2
_geom_bond_distance
_geom_bond_site_symmetry_2
Lu0 O10 2.171151 1_555
Lu0 O4 2.171151 1_554
Lu0 O5 2.354920 1_655
Lu0 O7 2.354920 1_555
Lu0 O2 2.363173 1_555
Lu0 O11 2.363173 1_565
Lu0 O1 2.363173 1_555
Lu0 O12 2.363173 1_555
Lu1 O4 2.166015 1_555
Lu1 O10 2.166015 1_555
Lu1 O12 2.366711 1_556
Lu1 O1 2.366711 1_555
Lu1 O0 2.366711 1_655
Lu1 O13 2.366711 1_555
Lu1 O3 2.373626 1_565
Lu1 O9 2.373626 1_555
Lu2 O10 2.166015 1_555
Lu2 O4 2.166015 1_545
Lu2 O11 2.366711 1_556
Lu2 O2 2.366711 1_555
Lu2 O6 2.366711 1_655
Lu2 O8 2.366711 1_555
Lu2 O9 2.373626 1_555
Lu2 O3 2.373626 1_555
Lu3 O10 2.171151 1_555
Lu3 O4 2.171151 1_455
Lu3 O5 2.354920 1_556
Lu3 O7 2.354920 1_555
Lu3 O6 2.363173 1_565
Lu3 O8 2.363173 1_555
Lu3 O13 2.363173 1_555
Lu3 O0 2.363173 1_555
O0 Pd1 2.001431 1_555
O0 Pt1 2.004531 1_555
O1 Pd0 2.001431 1_565
O1 Pt1 2.004532 1_655
O2 Pd0 2.001432 1_555
O2 Pt0 2.004532 1_655
O3 Pd0 1.998191 1_555
O3 Pd1 1.998191 1_555
O5 Pt0 2.008885 1_555
O5 Pt1 2.008885 1_555
O6 Pd1 2.001431 1_555
O6 Pt0 2.004531 1_555
O7 Pt0 2.008885 1_565
O7 Pt1 2.008885 1_555
O8 Pd1 2.001431 1_555
O8 Pt0 2.004531 1_556
O9 Pd0 1.998191 1_556
O9 Pd1 1.998191 1_655
O11 Pd0 2.001432 1_555
O11 Pt0 2.004532 1_555
O12 Pd0 2.001431 1_555
O12 Pt1 2.004532 1_555
O13 Pd1 2.001431 1_565
O13 Pt1 2.004531 1_556
