# generated using pymatgen
data_Y4Ge5AsIr7
_symmetry_space_group_name_H-M   'P 1'
_cell_length_a   7.24502862
_cell_length_b   7.24502846
_cell_length_c   7.24502784
_cell_angle_alpha   109.36753522
_cell_angle_beta   109.67878543
_cell_angle_gamma   109.36753571
_symmetry_Int_Tables_number   1
_chemical_formula_structural   Y4Ge5AsIr7
_chemical_formula_sum   'Y4 Ge5 As1 Ir7'
_cell_volume   292.74812311
_cell_formula_units_Z   1
loop_
 _symmetry_equiv_pos_site_id
 _symmetry_equiv_pos_as_xyz
  1  'x, y, z'
loop_
 _atom_site_type_symbol
 _atom_site_label
 _atom_site_symmetry_multiplicity
 _atom_site_fract_x
 _atom_site_fract_y
 _atom_site_fract_z
 _atom_site_occupancy
  Y  Y0  1  0.00014212  0.00000000  0.49698605  1
  Y  Y1  1  0.49698605  1.00000000  0.00014212  1
  Y  Y2  1  0.00014212  0.50315606  0.00014212  1
  Y  Y3  1  0.49698605  0.49684394  0.49698605  1
  Ge  Ge0  1  0.67666418  0.67911942  0.99754476  1
  Ge  Ge1  1  0.31842634  0.32088058  0.99754476  1
  Ge  Ge2  1  0.99754476  0.67911942  0.67666418  1
  Ge  Ge3  1  0.99754476  0.32088058  0.31842634  1
  Ge  Ge4  1  0.68549542  0.00000000  0.68549542  1
  As  As0  1  0.32453437  1.00000000  0.32453437  1
  Ir  Ir0  1  0.00099852  0.00000000  0.00099852  1
  Ir  Ir1  1  0.24841256  0.50000000  0.74841256  1
  Ir  Ir2  1  0.75144485  0.24951655  0.50192730  1
  Ir  Ir3  1  0.50192730  0.24951655  0.75144485  1
  Ir  Ir4  1  0.50192730  0.75048345  0.25241074  1
  Ir  Ir5  1  0.74841256  0.50000000  0.24841256  1
  Ir  Ir6  1  0.25241074  0.75048345  0.50192730  1
loop_
_geom_bond_atom_site_label_1
_geom_bond_atom_site_label_2
_geom_bond_distance
_geom_bond_site_symmetry_2
Ge0 Ir1 2.563757 1_555
Ge0 Ir5 2.575514 1_556
Ge0 Ir3 2.579712 1_555
Ge0 Ir4 2.579713 1_556
Ge0 Ir0 2.688023 1_666
Ge0 Y0 3.014295 1_666
Ge0 Y2 3.014295 1_656
Ge0 Y3 3.015680 1_555
Ge0 Y1 3.015680 1_556
Ge1 Ir1 2.563758 1_555
Ge1 Ir5 2.575509 1_556
Ge1 Ir3 2.579701 1_555
Ge1 Ir4 2.579714 1_556
Ge1 Ir0 2.688028 1_556
Ge1 Y1 3.014290 1_546
Ge1 Y3 3.014295 1_556
Ge1 Y0 3.015681 1_555
Ge1 Y2 3.015687 1_556
Ge2 Ir5 2.563757 1_555
Ge2 Ir1 2.575514 1_655
Ge2 Ir2 2.579712 1_555
Ge2 Ir6 2.579713 1_655
Ge2 Ir0 2.688023 1_666
Ge2 Y2 3.014294 1_656
Ge2 Y1 3.014295 1_656
Ge2 Y0 3.015680 1_665
Ge2 Y3 3.015681 1_555
Ge3 Ir5 2.563758 1_555
Ge3 Ir1 2.575509 1_655
Ge3 Ir2 2.579701 1_555
Ge3 Ir6 2.579714 1_655
Ge3 Ir0 2.688027 1_655
Ge3 Y0 3.014289 1_655
Ge3 Y3 3.014296 1_655
Ge3 Y1 3.015681 1_545
Ge3 Y2 3.015687 1_655
Ge4 Ir4 2.591285 1_545
Ge4 Ir6 2.591286 1_545
Ge4 Ir2 2.591286 1_555
Ge4 Ir3 2.591286 1_555
Ge4 Ir0 2.632682 1_656
Ge4 Y1 3.026357 1_546
Ge4 Y0 3.026357 1_655
Ge4 Y3 3.026357 1_545
Ge4 Y2 3.026357 1_656
As0 Ir6 2.561163 1_555
As0 Ir4 2.561163 1_555
As0 Ir3 2.561169 1_565
As0 Ir2 2.561169 1_565
As0 Ir0 2.699711 1_565
As0 Y1 3.010363 1_555
As0 Y0 3.010364 1_565
As0 Y3 3.010364 1_565
As0 Y2 3.010364 1_555
Ir1 Y2 2.961613 1_556
Ir1 Y3 2.961613 1_555
Ir1 Y0 2.961613 1_555
Ir1 Y1 2.961613 1_556
Ir2 Y0 2.945625 1_655
Ir2 Y2 2.945631 1_656
Ir2 Y1 2.966476 1_545
Ir2 Y3 2.966482 1_555
Ir3 Y1 2.945625 1_546
Ir3 Y2 2.945631 1_656
Ir3 Y0 2.966476 1_555
Ir3 Y3 2.966482 1_555
Ir4 Y3 2.945631 1_555
Ir4 Y0 2.945631 1_665
Ir4 Y1 2.966476 1_555
Ir4 Y2 2.966476 1_555
Ir5 Y3 2.961613 1_555
Ir5 Y2 2.961613 1_655
Ir5 Y1 2.961613 1_545
Ir5 Y0 2.961613 1_665
Ir6 Y1 2.945631 1_556
Ir6 Y3 2.945631 1_555
Ir6 Y2 2.966476 1_555
Ir6 Y0 2.966476 1_565
