# generated using pymatgen
data_Lu2AlRuPt
_symmetry_space_group_name_H-M   'P 1'
_cell_length_a   5.42793028
_cell_length_b   5.42793024
_cell_length_c   5.42793014
_cell_angle_alpha   136.17162795
_cell_angle_beta   115.77889282
_cell_angle_gamma   81.00682286
_symmetry_Int_Tables_number   1
_chemical_formula_structural   Lu2AlRuPt
_chemical_formula_sum   'Lu2 Al1 Ru1 Pt1'
_cell_volume   96.49305782
_cell_formula_units_Z   1
loop_
 _symmetry_equiv_pos_site_id
 _symmetry_equiv_pos_as_xyz
  1  'x, y, z'
loop_
 _atom_site_type_symbol
 _atom_site_label
 _atom_site_symmetry_multiplicity
 _atom_site_fract_x
 _atom_site_fract_y
 _atom_site_fract_z
 _atom_site_occupancy
  Lu  Lu0  1  0.69355480  0.19912281  0.49443199  1
  Lu  Lu1  1  0.29530918  0.80087719  0.49443099  1
  Al  Al0  1  0.01143447  1.00000000  0.01143447  1
  Ru  Ru0  1  0.25995645  0.49999900  0.75995545  1
  Pt  Pt0  1  0.73974611  0.50000000  0.23974611  1
loop_
_geom_bond_atom_site_label_1
_geom_bond_atom_site_label_2
_geom_bond_distance
_geom_bond_site_symmetry_2
Lu0 Pt0 2.885834 1_555
Lu0 Ru0 2.918182 1_655
Lu0 Ru0 2.938729 1_555
Lu0 Ru0 2.938735 1_544
Lu0 Pt0 2.968047 1_556
Lu0 Pt0 2.968048 1_545
Lu1 Pt0 2.885836 1_455
Lu1 Ru0 2.918187 1_555
Lu1 Ru0 2.938727 1_565
Lu1 Ru0 2.938730 1_554
Lu1 Pt0 2.968045 1_555
Lu1 Pt0 2.968048 1_566
Al0 Ru0 2.482028 1_565
Al0 Ru0 2.482034 1_554
Al0 Pt0 2.561595 1_465
Al0 Pt0 2.561596 1_454
Pt0 Ru0 2.768618 1_554
