# generated using pymatgen
data_MgSc12InNi4
_symmetry_space_group_name_H-M   'P 1'
_cell_length_a   7.83047687
_cell_length_b   7.83047708
_cell_length_c   7.83047760
_cell_angle_alpha   111.36671726
_cell_angle_beta   110.36340458
_cell_angle_gamma   106.71975939
_symmetry_Int_Tables_number   1
_chemical_formula_structural   MgSc12InNi4
_chemical_formula_sum   'Mg1 Sc12 In1 Ni4'
_cell_volume   368.94402796
_cell_formula_units_Z   1
loop_
 _symmetry_equiv_pos_site_id
 _symmetry_equiv_pos_as_xyz
  1  'x, y, z'
loop_
 _atom_site_type_symbol
 _atom_site_label
 _atom_site_symmetry_multiplicity
 _atom_site_fract_x
 _atom_site_fract_y
 _atom_site_fract_z
 _atom_site_occupancy
  Mg  Mg0  1  0.00000000  0.00000000  0.00000000  1
  Sc  Sc0  1  0.44259479  0.23353724  0.20905955  1
  Sc  Sc1  1  0.55740521  0.76646276  0.79094045  1
  Sc  Sc2  1  0.02447769  0.23353724  0.79094045  1
  Sc  Sc3  1  0.97552231  0.76646276  0.20905955  1
  Sc  Sc4  1  0.32146087  0.61998006  0.29851819  1
  Sc  Sc5  1  0.67853913  0.38001994  0.70148181  1
  Sc  Sc6  1  0.32146087  0.02294268  0.70148181  1
  Sc  Sc7  1  0.67853913  0.97705732  0.29851819  1
  Sc  Sc8  1  0.18720639  0.28802817  0.47523656  1
  Sc  Sc9  1  0.81279361  0.71197083  0.52476344  1
  Sc  Sc10  1  0.18720639  0.71197083  0.89917822  1
  Sc  Sc11  1  0.81279361  0.28802817  0.10082178  1
  In  In0  1  0.50000000  0.50000000  0.00000000  1
  Ni  Ni0  1  0.35162251  0.00000000  0.35162251  1
  Ni  Ni1  1  0.64837749  1.00000000  0.64837749  1
  Ni  Ni2  1  0.12507539  0.62507539  0.50000000  1
  Ni  Ni3  1  0.87492461  0.37492461  0.50000000  1
loop_
_geom_bond_atom_site_label_1
_geom_bond_atom_site_label_2
_geom_bond_distance
_geom_bond_site_symmetry_2
Mg0 Sc0 2.873815 1_555
Mg0 Sc1 2.873815 1_444
Mg0 Sc3 2.873828 1_445
Mg0 Sc2 2.873828 1_554
Mg0 Sc11 3.044554 1_455
Mg0 Sc10 3.044560 1_544
Mg0 Sc8 3.044566 1_555
Mg0 Sc9 3.044568 1_444
Mg0 Ni0 3.144218 1_555
Mg0 Ni1 3.144218 1_444
In0 Sc3 3.113992 1_555
In0 Sc2 3.113992 1_554
In0 Sc1 3.113994 1_554
In0 Sc0 3.113994 1_555
In0 Sc7 3.119474 1_555
In0 Sc6 3.119474 1_554
In0 Sc4 3.119476 1_555
In0 Sc5 3.119476 1_554
In0 Sc8 3.365379 1_554
In0 Sc9 3.365380 1_555
In0 Sc10 3.365385 1_554
In0 Sc11 3.365391 1_555
Ni0 Sc0 2.527701 1_555
Ni0 Sc3 2.527704 1_445
Ni0 Ni1 2.653591 1_545
Ni0 Sc4 2.776565 1_545
Ni0 Sc5 2.776569 1_555
Ni0 Sc7 2.776573 1_545
Ni0 Sc6 2.776573 1_555
Ni0 Sc10 2.937440 1_544
Ni0 Sc8 2.937442 1_555
Ni1 Sc1 2.527701 1_555
Ni1 Sc2 2.527704 1_665
Ni1 Sc5 2.776565 1_565
Ni1 Sc4 2.776569 1_555
Ni1 Sc6 2.776573 1_565
Ni1 Sc7 2.776573 1_555
Ni1 Sc11 2.937439 1_566
Ni1 Sc9 2.937448 1_555
Ni2 Ni3 2.337972 1_455
Ni2 Sc6 2.556061 1_565
Ni2 Sc4 2.556062 1_555
Ni2 Sc9 2.769724 1_455
Ni2 Sc11 2.769733 1_455
Ni2 Sc10 2.769734 1_555
Ni2 Sc8 2.769736 1_555
Ni2 Sc3 2.917964 1_455
Ni2 Sc1 2.917976 1_555
Ni3 Sc7 2.556061 1_545
Ni3 Sc5 2.556062 1_555
Ni3 Sc8 2.769728 1_655
Ni3 Sc9 2.769728 1_555
Ni3 Sc10 2.769730 1_655
Ni3 Sc11 2.769733 1_555
Ni3 Sc2 2.917964 1_655
Ni3 Sc0 2.917976 1_555
