# generated using pymatgen
data_HfZrV3Os
_symmetry_space_group_name_H-M   'P 1'
_cell_length_a   5.20004495
_cell_length_b   5.20004537
_cell_length_c   5.15172485
_cell_angle_alpha   59.68924625
_cell_angle_beta   59.68924171
_cell_angle_gamma   60.00000309
_symmetry_Int_Tables_number   1
_chemical_formula_structural   HfZrV3Os
_chemical_formula_sum   'Hf1 Zr1 V3 Os1'
_cell_volume   98.03833754
_cell_formula_units_Z   1
loop_
 _symmetry_equiv_pos_site_id
 _symmetry_equiv_pos_as_xyz
  1  'x, y, z'
loop_
 _atom_site_type_symbol
 _atom_site_label
 _atom_site_symmetry_multiplicity
 _atom_site_fract_x
 _atom_site_fract_y
 _atom_site_fract_z
 _atom_site_occupancy
  Hf  Hf0  1  0.25009685  0.25009685  0.24971045  1
  Zr  Zr0  1  0.99970101  0.99970101  0.00089798  1
  V  V0  1  0.62509472  0.12512371  0.62468785  1
  V  V1  1  0.12512371  0.62509472  0.62468785  1
  V  V2  1  0.62509472  0.62509472  0.62468785  1
  Os  Os0  1  0.62489099  0.62489099  0.12532803  1
loop_
_geom_bond_atom_site_label_1
_geom_bond_atom_site_label_2
_geom_bond_distance
_geom_bond_site_symmetry_2
Hf0 V0 3.016621 1_554
Hf0 V2 3.016621 1_554
Hf0 V1 3.016621 1_554
Hf0 V0 3.037190 1_455
Hf0 V0 3.037190 1_555
Hf0 V2 3.037190 1_455
Hf0 V1 3.037190 1_555
Hf0 V1 3.037190 1_545
Hf0 V2 3.037190 1_545
Hf0 Os0 3.047072 1_555
Hf0 Os0 3.047072 1_455
Hf0 Os0 3.047072 1_545
Hf0 Zr0 3.144846 1_446
Hf0 Zr0 3.177819 1_545
Hf0 Zr0 3.177819 1_445
Hf0 Zr0 3.177819 1_455
V0 V2 2.599872 1_555
V0 V1 2.599872 1_555
V0 V2 2.600173 1_545
V0 V1 2.600173 1_645
V0 Zr0 3.012233 1_545
V0 Zr0 3.039861 1_446
V0 Zr0 3.039861 1_546
V1 V2 2.599872 1_555
V1 V2 2.600173 1_455
V1 Zr0 3.012233 1_455
V1 Zr0 3.039861 1_456
V1 Zr0 3.039861 1_446
V2 Zr0 3.012233 1_555
V2 Zr0 3.039861 1_456
V2 Zr0 3.039861 1_546
Os0 V1 2.573634 1_555
Os0 V2 2.573634 1_555
Os0 V0 2.573634 1_555
Os0 V1 2.578091 1_654
Os0 V2 2.578092 1_554
Os0 V0 2.578092 1_564
Os0 Zr0 3.047106 1_555
Os0 Zr0 3.047106 1_455
Os0 Zr0 3.047106 1_545
