# generated using pymatgen
data_Ag3Pb(NO3)8
_symmetry_space_group_name_H-M   'P 1'
_cell_length_a   7.77051901
_cell_length_b   7.77051901
_cell_length_c   7.77051901
_cell_angle_alpha   86.28235406
_cell_angle_beta   86.28235406
_cell_angle_gamma   86.28235406
_symmetry_Int_Tables_number   1
_chemical_formula_structural   Ag3Pb(NO3)8
_chemical_formula_sum   'Ag3 Pb1 N8 O24'
_cell_volume   466.35190306
_cell_formula_units_Z   1
loop_
 _symmetry_equiv_pos_site_id
 _symmetry_equiv_pos_as_xyz
  1  'x, y, z'
loop_
 _atom_site_type_symbol
 _atom_site_label
 _atom_site_symmetry_multiplicity
 _atom_site_fract_x
 _atom_site_fract_y
 _atom_site_fract_z
 _atom_site_occupancy
  Ag  Ag0  1  0.00000000  0.50000000  0.50000000  1
  Ag  Ag1  1  0.50000000  0.50000000  0.00000000  1
  Ag  Ag2  1  0.50000000  0.00000000  0.50000000  1
  Pb  Pb0  1  0.00000000  0.00000000  0.00000000  1
  N  N0  1  0.33761426  0.33761426  0.33761426  1
  N  N1  1  0.32365788  0.20873591  0.87264953  1
  N  N2  1  0.20873591  0.87264953  0.32365788  1
  N  N3  1  0.87264953  0.32365788  0.20873591  1
  N  N4  1  0.66238574  0.66238574  0.66238574  1
  N  N5  1  0.12735047  0.67634212  0.79126409  1
  N  N6  1  0.79126409  0.12735047  0.67634212  1
  N  N7  1  0.67634212  0.79126409  0.12735047  1
  O  O0  1  0.79327340  0.30830897  0.07640805  1
  O  O1  1  0.26495401  0.97634384  0.20827260  1
  O  O2  1  0.28741845  0.84542396  0.46398067  1
  O  O3  1  0.20827260  0.26495401  0.97634384  1
  O  O4  1  0.23697403  0.30738010  0.46801367  1
  O  O5  1  0.46801367  0.23697403  0.30738010  1
  O  O6  1  0.30738010  0.46801367  0.23697403  1
  O  O7  1  0.15457604  0.53601933  0.71258155  1
  O  O8  1  0.92359195  0.20672660  0.69169103  1
  O  O9  1  0.69169103  0.92359195  0.20672660  1
  O  O10  1  0.02365616  0.79172740  0.73504599  1
  O  O11  1  0.53601933  0.71258155  0.15457604  1
  O  O12  1  0.73504599  0.02365616  0.79172740  1
  O  O13  1  0.71258155  0.15457604  0.53601933  1
  O  O14  1  0.79172740  0.73504599  0.02365616  1
  O  O15  1  0.20672660  0.69169103  0.92359195  1
  O  O16  1  0.76302597  0.69261990  0.53198633  1
  O  O17  1  0.53198633  0.76302597  0.69261990  1
  O  O18  1  0.69261990  0.53198633  0.76302597  1
  O  O19  1  0.84542396  0.46398067  0.28741845  1
  O  O20  1  0.07640805  0.79327340  0.30830897  1
  O  O21  1  0.30830897  0.07640805  0.79327340  1
  O  O22  1  0.97634384  0.20827260  0.26495401  1
  O  O23  1  0.46398067  0.28741845  0.84542396  1
loop_
_geom_bond_atom_site_label_1
_geom_bond_atom_site_label_2
_geom_bond_distance
_geom_bond_site_symmetry_2
Ag0 O7 2.147228 1_555
Ag0 O19 2.147228 1_455
Ag0 O4 2.307451 1_555
Ag0 O16 2.307451 1_455
Ag0 O20 2.717562 1_555
Ag0 O8 2.717562 1_455
Ag1 O11 2.147228 1_555
Ag1 O23 2.147228 1_554
Ag1 O6 2.307451 1_555
Ag1 O18 2.307451 1_554
Ag1 O0 2.717562 1_555
Ag1 O15 2.717562 1_554
Ag2 O13 2.147228 1_555
Ag2 O2 2.147228 1_545
Ag2 O5 2.307451 1_555
Ag2 O17 2.307451 1_545
Ag2 O21 2.717562 1_555
Ag2 O9 2.717562 1_545
N0 O4 1.258442 1_555
N0 O6 1.258442 1_555
N0 O5 1.258442 1_555
N1 O3 1.243038 1_555
N1 O21 1.248863 1_555
N1 O23 1.283459 1_555
N2 O1 1.243038 1_555
N2 O20 1.248863 1_555
N2 O2 1.283459 1_555
N3 O22 1.243038 1_555
N3 O0 1.248863 1_555
N3 O19 1.283459 1_555
N4 O17 1.258442 1_555
N4 O18 1.258442 1_555
N4 O16 1.258442 1_555
N5 O10 1.243038 1_555
N5 O15 1.248863 1_555
N5 O7 1.283459 1_555
N6 O12 1.243038 1_555
N6 O8 1.248863 1_555
N6 O13 1.283459 1_555
N7 O14 1.243038 1_555
N7 O9 1.248863 1_555
N7 O11 1.283459 1_555
O1 Pb0 2.690015 1_565
O3 Pb0 2.690015 1_556
O10 Pb0 2.690015 1_566
O12 Pb0 2.690015 1_656
O14 Pb0 2.690015 1_665
O22 Pb0 2.690015 1_655
