# generated using pymatgen
data_Ti8Al15Ir5Rh2
_symmetry_space_group_name_H-M   'P 1'
_cell_length_a   8.59961644
_cell_length_b   8.59961601
_cell_length_c   8.59961652
_cell_angle_alpha   120.03143797
_cell_angle_beta   119.78456821
_cell_angle_gamma   90.15955463
_symmetry_Int_Tables_number   1
_chemical_formula_structural   Ti8Al15Ir5Rh2
_chemical_formula_sum   'Ti8 Al15 Ir5 Rh2'
_cell_volume   450.32012538
_cell_formula_units_Z   1
loop_
 _symmetry_equiv_pos_site_id
 _symmetry_equiv_pos_as_xyz
  1  'x, y, z'
loop_
 _atom_site_type_symbol
 _atom_site_label
 _atom_site_symmetry_multiplicity
 _atom_site_fract_x
 _atom_site_fract_y
 _atom_site_fract_z
 _atom_site_occupancy
  Ti  Ti0  1  0.79124279  0.29187218  0.07499180  1
  Ti  Ti1  1  0.21688038  0.29187218  0.50063039  1
  Ti  Ti2  1  0.20719791  0.70719791  0.50000000  1
  Ti  Ti3  1  0.21688038  0.71624999  0.92500820  1
  Ti  Ti4  1  0.79124279  0.71624999  0.49936961  1
  Ti  Ti5  1  0.78315120  0.28315120  0.50000000  1
  Ti  Ti6  1  0.37873949  0.12248610  0.74374660  1
  Ti  Ti7  1  0.37873949  0.63499289  0.25625340  1
  Al  Al0  1  0.99614867  0.49614867  0.50000000  1
  Al  Al1  1  0.15291613  0.34116069  0.18824356  1
  Al  Al2  1  0.15291613  0.96467158  0.81175644  1
  Al  Al3  1  0.14955495  0.34660010  0.80295384  1
  Al  Al4  1  0.54364526  0.34660010  0.19704616  1
  Al  Al5  1  0.84655241  0.65401754  0.80746612  1
  Al  Al6  1  0.84655241  0.03908629  0.19253388  1
  Al  Al7  1  0.84311669  0.65517776  0.18793893  1
  Al  Al8  1  0.46723783  0.65517776  0.81206107  1
  Al  Al9  1  0.37908972  0.12105345  0.25803627  1
  Al  Al10  1  0.86301818  0.12105345  0.74196373  1
  Al  Al11  1  0.62172264  0.87820128  0.25647964  1
  Al  Al12  1  0.62172264  0.36524300  0.74352036  1
  Al  Al13  1  0.62193252  0.87839433  0.74353818  1
  Al  Al14  1  0.13485515  0.87839433  0.25646182  1
  Ir  Ir0  1  0.00183375  0.99991943  0.50211521  1
  Ir  Ir1  1  0.49780422  0.99991943  0.99808567  1
  Ir  Ir2  1  0.49715815  0.49715815  1.00000000  1
  Ir  Ir3  1  0.49780422  0.49971754  0.49788479  1
  Ir  Ir4  1  0.00183375  0.49971754  0.00191433  1
  Rh  Rh0  1  0.99912043  0.99912043  0.00000000  1
  Rh  Rh1  1  0.49938971  0.99938971  0.50000000  1
loop_
_geom_bond_atom_site_label_1
_geom_bond_atom_site_label_2
_geom_bond_distance
_geom_bond_site_symmetry_2
Ti0 Ti6 2.932385 1_554
Ti1 Ti6 2.932379 1_555
Ti2 Ti6 2.954629 1_565
Ti2 Ti7 2.954630 1_555
Ti3 Ti7 2.932379 1_556
Ti4 Ti7 2.932386 1_555
Al0 Ti2 2.563140 1_655
Al0 Ti5 2.586801 1_555
Al0 Ti4 2.589800 1_555
Al0 Ti3 2.589806 1_655
Al0 Ti1 2.589806 1_655
Al0 Ti0 2.589806 1_555
Al1 Rh0 2.471203 1_445
Al1 Ir4 2.498666 1_555
Al1 Ir3 2.498680 1_555
Al1 Ti0 2.715127 1_455
Al1 Ti1 2.715141 1_555
Al1 Ti2 2.759605 1_555
Al2 Rh0 2.471194 1_456
Al2 Ir1 2.498679 1_555
Al2 Ir0 2.498686 1_555
Al2 Ti3 2.715127 1_555
Al2 Ti4 2.715127 1_455
Al2 Ti2 2.759608 1_555
Al3 Ir0 2.487700 1_545
Al3 Ir4 2.487706 1_556
Al3 Ir2 2.496690 1_555
Al3 Ti5 2.724992 1_455
Al3 Ti1 2.754670 1_555
Al3 Ti3 2.754676 1_555
Al4 Ir3 2.487695 1_555
Al4 Ir1 2.487702 1_544
Al4 Ir2 2.496699 1_554
Al4 Ti5 2.724989 1_555
Al4 Ti4 2.754681 1_555
Al4 Ti0 2.754693 1_555
Al5 Rh0 2.484365 1_556
Al5 Ir3 2.520419 1_555
Al5 Ir4 2.520419 1_656
Al5 Ti5 2.752713 1_555
Al5 Ti3 2.775109 1_655
Al5 Ti4 2.775117 1_555
Al6 Rh0 2.484358 1_545
Al6 Ir1 2.520419 1_544
Al6 Ir0 2.520419 1_645
Al6 Ti5 2.752719 1_555
Al6 Ti1 2.775109 1_655
Al6 Ti0 2.775109 1_555
Al7 Ir0 2.499625 1_655
Al7 Ir4 2.499627 1_655
Al7 Ir2 2.512393 1_554
Al7 Ti4 2.725405 1_555
Al7 Ti0 2.725411 1_555
Al7 Ti2 2.765470 1_655
Al8 Ir1 2.499623 1_555
Al8 Ir3 2.499630 1_555
Al8 Ir2 2.512391 1_555
Al8 Ti3 2.725403 1_555
Al8 Ti1 2.725408 1_555
Al8 Ti2 2.765468 1_555
Al9 Rh1 2.557570 1_545
Al9 Ir3 2.658386 1_555
Al9 Ir1 2.658393 1_544
Al9 Rh0 2.673766 1_445
Al9 Ti5 2.869402 1_555
Al9 Ti3 2.879428 1_544
Al9 Ti1 2.879429 1_555
Al10 Rh1 2.557577 1_545
Al10 Ir4 2.658386 1_656
Al10 Ir0 2.658386 1_645
Al10 Rh0 2.673766 1_546
Al10 Ti5 2.869401 1_555
Al10 Ti4 2.879428 1_545
Al10 Ti0 2.879429 1_556
Al11 Rh1 2.566855 1_555
Al11 Ir2 2.673706 1_554
Al11 Ir0 2.674081 1_655
Al11 Ir1 2.674088 1_554
Al11 Ti5 2.867938 1_565
Al11 Ti4 2.885439 1_555
Al11 Ti3 2.885445 1_554
Al12 Rh1 2.566854 1_545
Al12 Ir2 2.673713 1_555
Al12 Ir3 2.674074 1_555
Al12 Ir4 2.674081 1_656
Al12 Ti5 2.867931 1_555
Al12 Ti1 2.885445 1_555
Al12 Ti0 2.885445 1_556
Al13 Rh1 2.564009 1_555
Al13 Rh0 2.654342 1_556
Al13 Ir1 2.657294 1_555
Al13 Ir3 2.657300 1_555
Al13 Ti0 2.931068 1_566
Al13 Ti4 2.931076 1_555
Al13 Ti2 2.955951 1_555
Al14 Rh1 2.564016 1_555
Al14 Rh0 2.654342 1_455
Al14 Ir0 2.657287 1_555
Al14 Ir4 2.657300 1_555
Al14 Ti1 2.931067 1_565
Al14 Ti3 2.931074 1_554
Al14 Ti2 2.955950 1_555
Ir0 Ti6 2.651784 1_565
Ir0 Ti4 3.017690 1_455
Ir0 Ti2 3.076829 1_555
Ir0 Ti5 3.083078 1_465
Ir0 Ti1 3.123036 1_565
Ir1 Ti6 2.651784 1_565
Ir1 Ti3 3.017695 1_555
Ir1 Ti2 3.076829 1_555
Ir1 Ti5 3.083077 1_566
Ir1 Ti0 3.123042 1_566
Ir2 Ti6 2.630573 1_555
Ir2 Ti7 2.630573 1_556
Ir2 Ti1 3.077736 1_555
Ir2 Ti3 3.077736 1_555
Ir2 Ti4 3.077737 1_556
Ir2 Ti0 3.077742 1_556
Ir3 Ti7 2.651792 1_555
Ir3 Ti1 3.017690 1_555
Ir3 Ti2 3.076834 1_555
Ir3 Ti5 3.083072 1_555
Ir3 Ti4 3.123048 1_555
Ir4 Ti7 2.651784 1_555
Ir4 Ti0 3.017683 1_455
Ir4 Ti2 3.076828 1_555
Ir4 Ti5 3.083078 1_454
Ir4 Ti3 3.123042 1_554
Rh0 Ti0 3.081400 1_565
Rh0 Ti1 3.081406 1_665
Rh0 Ti3 3.081406 1_654
Rh0 Ti4 3.081407 1_554
Rh1 Ti7 2.556674 1_555
Rh1 Ti6 2.556674 1_565
