# generated using pymatgen
data_Li16Zn(Si2Ag)3
_symmetry_space_group_name_H-M   'P 1'
_cell_length_a   9.14670217
_cell_length_b   9.14670315
_cell_length_c   9.14670341
_cell_angle_alpha   48.04664578
_cell_angle_beta   48.04664976
_cell_angle_gamma   48.04663689
_symmetry_Int_Tables_number   1
_chemical_formula_structural   Li16Zn(Si2Ag)3
_chemical_formula_sum   'Li16 Zn1 Si6 Ag3'
_cell_volume   387.77343782
_cell_formula_units_Z   1
loop_
 _symmetry_equiv_pos_site_id
 _symmetry_equiv_pos_as_xyz
  1  'x, y, z'
loop_
 _atom_site_type_symbol
 _atom_site_label
 _atom_site_symmetry_multiplicity
 _atom_site_fract_x
 _atom_site_fract_y
 _atom_site_fract_z
 _atom_site_occupancy
  Li  Li0  1  0.05865098  0.05865098  0.05865098  1
  Li  Li1  1  0.29971266  0.59426476  0.95398013  1
  Li  Li2  1  0.55720260  0.55720260  0.55720260  1
  Li  Li3  1  0.20710467  0.91087552  0.55693288  1
  Li  Li4  1  0.59426476  0.95398013  0.29971266  1
  Li  Li5  1  0.05653490  0.41088490  0.70915684  1
  Li  Li6  1  0.91087552  0.55693288  0.20710467  1
  Li  Li7  1  0.80065778  0.45348819  0.09616630  1
  Li  Li8  1  0.95398013  0.29971266  0.59426476  1
  Li  Li9  1  0.55693288  0.20710467  0.91087552  1
  Li  Li10  1  0.45348819  0.09616630  0.80065778  1
  Li  Li11  1  0.70915684  0.05653490  0.41088490  1
  Li  Li12  1  0.09616630  0.80065778  0.45348819  1
  Li  Li13  1  0.45325809  0.45325809  0.45325809  1
  Li  Li14  1  0.95198340  0.95198340  0.95198340  1
  Li  Li15  1  0.41088490  0.70915684  0.05653490  1
  Zn  Zn0  1  0.17459022  0.17459022  0.17459022  1
  Si  Si0  1  0.18506700  0.49487169  0.83239455  1
  Si  Si1  1  0.68534912  0.32380502  0.00369062  1
  Si  Si2  1  0.83239455  0.18506700  0.49487169  1
  Si  Si3  1  0.32380502  0.00369062  0.68534912  1
  Si  Si4  1  0.00369062  0.68534912  0.32380502  1
  Si  Si5  1  0.49487169  0.83239455  0.18506700  1
  Ag  Ag0  1  0.67179982  0.67179982  0.67179982  1
  Ag  Ag1  1  0.33734030  0.33734030  0.33734030  1
  Ag  Ag2  1  0.83697707  0.83697707  0.83697707  1
loop_
_geom_bond_atom_site_label_1
_geom_bond_atom_site_label_2
_geom_bond_distance
_geom_bond_site_symmetry_2
Li0 Li14 2.583400 1_444
Li0 Li15 2.613072 1_545
Li0 Li5 2.613073 1_554
Li0 Li11 2.613073 1_455
Li0 Si1 2.717728 1_455
Li0 Si4 2.717728 1_545
Li0 Si3 2.717728 1_554
Li0 Zn0 2.807952 1_555
Li0 Li7 2.812210 1_455
Li0 Li10 2.812210 1_554
Li0 Li12 2.812210 1_545
Li1 Si0 2.710833 1_555
Li1 Li6 2.771857 1_456
Li1 Li9 2.778118 1_555
Li1 Si1 2.782419 1_556
Li1 Si4 2.823777 1_556
Li1 Li2 2.825250 1_555
Li1 Si3 2.861225 1_565
Li1 Li3 3.010711 1_555
Li2 Li3 2.620782 1_555
Li2 Li9 2.620783 1_555
Li2 Li6 2.620783 1_555
Li2 Si2 2.732618 1_555
Li2 Si5 2.732619 1_555
Li2 Si0 2.732619 1_555
Li2 Li8 2.825249 1_555
Li2 Li4 2.825249 1_555
Li3 Zn0 2.699931 1_565
Li3 Si3 2.731486 1_565
Li3 Si2 2.750245 1_465
Li3 Li8 2.771857 1_465
Li3 Li4 2.778119 1_555
Li3 Si5 2.789359 1_555
Li3 Si0 2.897475 1_555
Li4 Si5 2.710833 1_555
Li4 Li9 2.771857 1_564
Li4 Si3 2.782419 1_565
Li4 Si1 2.823777 1_565
Li4 Si4 2.861224 1_655
Li4 Li6 3.010711 1_555
Li5 Si0 2.716634 1_555
Li5 Li7 2.776295 1_456
Li5 Si4 2.789975 1_555
Li5 Si1 2.817142 1_456
Li5 Si3 2.845036 1_555
Li6 Li7 2.620702 1_555
Li6 Zn0 2.699931 1_655
Li6 Si4 2.731486 1_655
Li6 Si0 2.750246 1_654
Li6 Li8 2.778119 1_555
Li6 Si2 2.789359 1_555
Li6 Si5 2.897474 1_555
Li7 Si1 2.727976 1_555
Li7 Si0 2.746475 1_654
Li7 Zn0 2.808576 1_655
Li7 Si2 2.811166 1_555
Li7 Si5 2.874357 1_555
Li8 Si2 2.710833 1_555
Li8 Si4 2.782419 1_655
Li8 Si3 2.823776 1_655
Li8 Si1 2.861225 1_556
Li8 Li9 3.010711 1_555
Li9 Zn0 2.699931 1_556
Li9 Si1 2.731486 1_556
Li9 Si5 2.750246 1_546
Li9 Si0 2.789359 1_555
Li9 Si2 2.897475 1_555
Li10 Li9 2.620702 1_555
Li10 Li13 2.624518 1_555
Li10 Si3 2.727976 1_555
Li10 Si5 2.746475 1_546
Li10 Li15 2.776295 1_546
Li10 Li11 2.785248 1_555
Li10 Zn0 2.808577 1_556
Li10 Si0 2.811166 1_555
Li10 Si2 2.874358 1_555
Li10 Li5 3.006149 1_555
Li11 Si2 2.716634 1_555
Li11 Li12 2.776294 1_645
Li11 Si3 2.789975 1_555
Li11 Si4 2.817142 1_645
Li11 Si1 2.845036 1_555
Li11 Li13 2.847383 1_555
Li11 Li7 3.006150 1_555
Li12 Li3 2.620702 1_555
Li12 Li13 2.624517 1_555
Li12 Si4 2.727976 1_555
Li12 Si2 2.746474 1_465
Li12 Li5 2.785248 1_555
Li12 Zn0 2.808577 1_565
Li12 Si5 2.811166 1_555
Li12 Si0 2.874357 1_555
Li12 Li15 3.006150 1_555
Li13 Li2 2.517450 1_555
Li13 Li7 2.624518 1_555
Li13 Si2 2.707530 1_555
Li13 Si5 2.707530 1_555
Li13 Si0 2.707530 1_555
Li13 Li5 2.847383 1_555
Li13 Li15 2.847383 1_555
Li14 Si1 2.693781 1_566
Li14 Si3 2.693781 1_665
Li14 Si4 2.693781 1_656
Li14 Li9 2.830707 1_565
Li14 Li6 2.830707 1_556
Li14 Li3 2.830708 1_655
Li15 Si5 2.716634 1_555
Li15 Li7 2.785247 1_555
Li15 Si1 2.789975 1_555
Li15 Si3 2.817142 1_564
Li15 Si4 2.845036 1_555
Si0 Zn0 2.470314 1_556
Si2 Zn0 2.470314 1_655
Si5 Zn0 2.470313 1_565
Ag0 Si3 2.533477 1_565
Ag0 Si1 2.533477 1_556
Ag0 Si4 2.533478 1_655
Ag0 Li5 2.735773 1_655
Ag0 Li11 2.735774 1_565
Ag0 Li15 2.735774 1_556
Ag0 Li2 2.775450 1_555
Ag0 Li8 2.789703 1_555
Ag0 Li4 2.789703 1_555
Ag0 Li1 2.789703 1_555
Ag1 Si4 2.539862 1_555
Ag1 Si3 2.539863 1_555
Ag1 Si1 2.539863 1_555
Ag1 Li4 2.729639 1_545
Ag1 Li8 2.729639 1_455
Ag1 Li1 2.729639 1_554
Ag1 Li11 2.772197 1_555
Ag1 Li15 2.772198 1_555
Ag1 Li5 2.772198 1_555
Ag1 Li13 2.807433 1_555
Ag2 Si0 2.570311 1_655
Ag2 Si2 2.570312 1_565
Ag2 Si5 2.570312 1_556
Ag2 Li10 2.724123 1_565
Ag2 Li7 2.724124 1_556
Ag2 Li12 2.724124 1_655
Ag2 Li9 2.762135 1_565
Ag2 Li6 2.762136 1_556
Ag2 Li3 2.762136 1_655
Ag2 Li14 2.785358 1_555
