# generated using pymatgen
data_AlIrBr6
_symmetry_space_group_name_H-M   'P 1'
_cell_length_a   6.37514774
_cell_length_b   6.37514738
_cell_length_c   6.74555683
_cell_angle_alpha   81.36708027
_cell_angle_beta   81.36708349
_cell_angle_gamma   119.96249675
_symmetry_Int_Tables_number   1
_chemical_formula_structural   AlIrBr6
_chemical_formula_sum   'Al1 Ir1 Br6'
_cell_volume   226.57310621
_cell_formula_units_Z   1
loop_
 _symmetry_equiv_pos_site_id
 _symmetry_equiv_pos_as_xyz
  1  'x, y, z'
loop_
 _atom_site_type_symbol
 _atom_site_label
 _atom_site_symmetry_multiplicity
 _atom_site_fract_x
 _atom_site_fract_y
 _atom_site_fract_z
 _atom_site_occupancy
  Al  Al0  1  0.16677698  0.83322302  1.00000000  1
  Ir  Ir0  1  0.83335089  0.16664911  0.00000000  1
  Br  Br0  1  0.92419017  0.56902114  0.77940088  1
  Br  Br1  1  0.43097886  0.07580983  0.22059912  1
  Br  Br2  1  0.78536738  0.78588832  0.22125704  1
  Br  Br3  1  0.21411168  0.21463262  0.77874296  1
  Br  Br4  1  0.57085059  0.92562655  0.77955135  1
  Br  Br5  1  0.07437345  0.42914941  0.22044865  1
loop_
_geom_bond_atom_site_label_1
_geom_bond_atom_site_label_2
_geom_bond_distance
_geom_bond_site_symmetry_2
Al0 Br5 2.503098 1_556
Al0 Br4 2.503099 1_555
Al0 Br3 2.504679 1_565
Al0 Br2 2.504679 1_456
Al0 Br0 2.506879 1_455
Al0 Br1 2.506879 1_566
Br0 Ir0 2.498274 1_556
Br1 Ir0 2.498274 1_555
Br2 Ir0 2.499410 1_565
Br3 Ir0 2.499410 1_456
Br4 Ir0 2.497478 1_566
Br5 Ir0 2.497478 1_455
