# generated using pymatgen
data_Ti16Pt7RhO4
_symmetry_space_group_name_H-M   'P 1'
_cell_length_a   8.26355417
_cell_length_b   8.26355337
_cell_length_c   8.26355343
_cell_angle_alpha   59.99548240
_cell_angle_beta   59.99548249
_cell_angle_gamma   59.99547899
_symmetry_Int_Tables_number   1
_chemical_formula_structural   Ti16Pt7RhO4
_chemical_formula_sum   'Ti16 Pt7 Rh1 O4'
_cell_volume   398.97075167
_cell_formula_units_Z   1
loop_
 _symmetry_equiv_pos_site_id
 _symmetry_equiv_pos_as_xyz
  1  'x, y, z'
loop_
 _atom_site_type_symbol
 _atom_site_label
 _atom_site_symmetry_multiplicity
 _atom_site_fract_x
 _atom_site_fract_y
 _atom_site_fract_z
 _atom_site_occupancy
  Ti  Ti0  1  0.11927453  0.62790041  0.62790041  1
  Ti  Ti1  1  0.62790041  0.11927453  0.62790041  1
  Ti  Ti2  1  0.62790041  0.62790041  0.11927453  1
  Ti  Ti3  1  0.62422316  0.62422316  0.62422316  1
  Ti  Ti4  1  0.81613534  0.81613534  0.17993516  1
  Ti  Ti5  1  0.18306367  0.18306367  0.81687893  1
  Ti  Ti6  1  0.81613534  0.17993516  0.81613534  1
  Ti  Ti7  1  0.18306367  0.81687893  0.18306367  1
  Ti  Ti8  1  0.17993516  0.81613534  0.81613534  1
  Ti  Ti9  1  0.81687893  0.18306367  0.18306367  1
  Ti  Ti10  1  0.43229712  0.43229712  0.07034724  1
  Ti  Ti11  1  0.06766110  0.06766110  0.43282014  1
  Ti  Ti12  1  0.43229712  0.07034724  0.43229712  1
  Ti  Ti13  1  0.06766110  0.43282014  0.06766110  1
  Ti  Ti14  1  0.07034724  0.43229712  0.43229712  1
  Ti  Ti15  1  0.43282014  0.06766110  0.06766110  1
  Pt  Pt0  1  0.77785154  0.40595575  0.40595575  1
  Pt  Pt1  1  0.40595575  0.77785154  0.40595575  1
  Pt  Pt2  1  0.40595575  0.40595575  0.77785154  1
  Pt  Pt3  1  0.41264003  0.41264003  0.41264003  1
  Pt  Pt4  1  0.47046094  0.84275950  0.84275950  1
  Pt  Pt5  1  0.84275950  0.47046094  0.84275950  1
  Pt  Pt6  1  0.84275950  0.84275950  0.47046094  1
  Rh  Rh0  1  0.84413559  0.84413559  0.84413559  1
  O  O0  1  0.62435377  0.12533066  0.12533066  1
  O  O1  1  0.12533066  0.62435377  0.12533066  1
  O  O2  1  0.12533066  0.12533066  0.62435377  1
  O  O3  1  0.12486987  0.12486987  0.12486987  1
loop_
_geom_bond_atom_site_label_1
_geom_bond_atom_site_label_2
_geom_bond_distance
_geom_bond_site_symmetry_2
Pt0 Ti3 2.606059 1_555
Pt0 Ti11 2.610517 1_655
Pt0 Ti13 2.610517 1_655
Pt0 Ti2 2.613211 1_555
Pt0 Ti1 2.613211 1_555
Pt0 Ti14 2.652678 1_655
Pt1 Ti3 2.606059 1_555
Pt1 Ti15 2.610517 1_565
Pt1 Ti11 2.610517 1_565
Pt1 Ti2 2.613211 1_555
Pt1 Ti0 2.613211 1_555
Pt1 Ti12 2.652678 1_565
Pt2 Ti3 2.606059 1_555
Pt2 Ti15 2.610517 1_556
Pt2 Ti13 2.610517 1_556
Pt2 Ti1 2.613211 1_555
Pt2 Ti0 2.613211 1_555
Pt2 Ti10 2.652678 1_556
Pt3 Ti0 2.596959 1_555
Pt3 Ti1 2.596960 1_555
Pt3 Ti2 2.596960 1_555
Pt3 Ti12 2.675973 1_555
Pt3 Ti10 2.675973 1_555
Pt3 Ti14 2.675973 1_555
Pt4 Ti2 2.582948 1_556
Pt4 Ti1 2.582948 1_565
Pt4 Ti3 2.609364 1_555
Pt4 Ti5 2.611709 1_565
Pt4 Ti7 2.611710 1_556
Pt4 Ti8 2.639219 1_555
Pt5 Ti2 2.582948 1_556
Pt5 Ti0 2.582948 1_655
Pt5 Ti3 2.609364 1_555
Pt5 Ti9 2.611709 1_556
Pt5 Ti5 2.611710 1_655
Pt5 Ti6 2.639219 1_555
Pt6 Ti1 2.582948 1_565
Pt6 Ti0 2.582948 1_655
Pt6 Ti3 2.609364 1_555
Pt6 Ti9 2.611709 1_565
Pt6 Ti7 2.611710 1_655
Pt6 Ti4 2.639219 1_555
Rh0 Ti6 2.564446 1_565
Rh0 Ti4 2.564446 1_556
Rh0 Ti8 2.564446 1_655
Rh0 Ti0 2.573339 1_655
Rh0 Ti1 2.573339 1_565
Rh0 Ti2 2.573339 1_556
O0 Ti15 2.166836 1_555
O0 Ti10 2.168381 1_555
O0 Ti12 2.168381 1_555
O0 Ti9 2.175354 1_555
O0 Ti4 2.180785 1_545
O0 Ti6 2.180785 1_554
O1 Ti13 2.166836 1_555
O1 Ti14 2.168381 1_555
O1 Ti10 2.168381 1_555
O1 Ti7 2.175353 1_555
O1 Ti8 2.180785 1_554
O1 Ti4 2.180785 1_455
O2 Ti11 2.166836 1_555
O2 Ti14 2.168381 1_555
O2 Ti12 2.168382 1_555
O2 Ti5 2.175353 1_555
O2 Ti8 2.180785 1_545
O2 Ti6 2.180785 1_455
O3 Ti7 2.173286 1_545
O3 Ti5 2.173287 1_554
O3 Ti9 2.173287 1_455
O3 Ti13 2.177138 1_555
O3 Ti11 2.177139 1_555
O3 Ti15 2.177139 1_555
