# generated using pymatgen
data_Pr2UTe4
_symmetry_space_group_name_H-M   'P 1'
_cell_length_a   8.23548266
_cell_length_b   8.23548266
_cell_length_c   8.23548266
_cell_angle_alpha   109.37930869
_cell_angle_beta   109.37930869
_cell_angle_gamma   109.65520133
_symmetry_Int_Tables_number   1
_chemical_formula_structural   Pr2UTe4
_chemical_formula_sum   'Pr4 U2 Te8'
_cell_volume   429.97372777
_cell_formula_units_Z   2
loop_
 _symmetry_equiv_pos_site_id
 _symmetry_equiv_pos_as_xyz
  1  'x, y, z'
loop_
 _atom_site_type_symbol
 _atom_site_label
 _atom_site_symmetry_multiplicity
 _atom_site_fract_x
 _atom_site_fract_y
 _atom_site_fract_z
 _atom_site_occupancy
  Pr  Pr0  1  0.00032500  0.37500000  0.12532500  1
  Pr  Pr1  1  0.24967500  0.87500000  0.87467500  1
  Pr  Pr2  1  0.62500000  0.75032500  0.62532500  1
  Pr  Pr3  1  0.12500000  0.99967500  0.37467500  1
  U  U0  1  0.75000000  0.25000000  0.50000000  1
  U  U1  1  0.50000000  0.50000000  0.00000000  1
  Te  Te0  1  0.38094100  0.28049900  0.25091900  1
  Te  Te1  1  0.22042000  0.46950100  0.60044300  1
  Te  Te2  1  0.86997700  0.61905900  0.89955700  1
  Te  Te3  1  0.38002300  0.77958000  0.24908100  1
  Te  Te4  1  0.86905900  0.61997700  0.39955700  1
  Te  Te5  1  0.53049900  0.13094100  0.75091900  1
  Te  Te6  1  0.71950100  0.97042000  0.10044300  1
  Te  Te7  1  0.02958000  0.13002300  0.74908100  1
loop_
_geom_bond_atom_site_label_1
_geom_bond_atom_site_label_2
_geom_bond_distance
_geom_bond_site_symmetry_2
Pr0 Te4 3.225387 1_455
Pr0 Te7 3.225393 1_554
Pr0 Te6 3.246671 1_445
Pr0 Te3 3.246671 1_555
Pr0 Te5 3.355026 1_454
Pr0 Te2 3.355034 1_454
Pr0 Te0 3.394798 1_555
Pr0 Te1 3.394805 1_555
Pr1 Te1 3.225393 1_555
Pr1 Te0 3.225396 1_566
Pr1 Te5 3.246666 1_565
Pr1 Te2 3.246668 1_455
Pr1 Te3 3.355027 1_556
Pr1 Te6 3.355027 1_556
Pr1 Te4 3.394803 1_455
Pr1 Te7 3.394805 1_565
Pr2 Te2 3.225387 1_555
Pr2 Te3 3.225393 1_555
Pr2 Te1 3.246671 1_555
Pr2 Te7 3.246671 1_665
Pr2 Te0 3.355026 1_555
Pr2 Te4 3.355034 1_555
Pr2 Te5 3.394798 1_565
Pr2 Te6 3.394805 1_556
Pr3 Te6 3.225393 1_455
Pr3 Te5 3.225396 1_565
Pr3 Te0 3.246666 1_565
Pr3 Te4 3.246668 1_455
Pr3 Te1 3.355027 1_565
Pr3 Te7 3.355027 1_565
Pr3 Te2 3.394803 1_454
Pr3 Te3 3.394805 1_555
Te0 U0 3.197914 1_555
Te0 U1 3.336261 1_555
Te1 U1 3.197908 1_556
Te1 U0 3.336258 1_455
Te2 U0 3.197912 1_555
Te2 U1 3.336259 1_556
Te3 U1 3.197908 1_555
Te3 U0 3.336258 1_565
Te4 U1 3.197912 1_555
Te4 U0 3.336259 1_555
Te5 U1 3.197914 1_556
Te5 U0 3.336261 1_555
Te6 U0 3.197908 1_565
Te6 U1 3.336258 1_555
Te7 U0 3.197908 1_455
Te7 U1 3.336258 1_556
