# generated using pymatgen
data_BaLu2Se3S
_symmetry_space_group_name_H-M   'P 1'
_cell_length_a   4.07802282
_cell_length_b   12.57421621
_cell_length_c   14.75540538
_cell_angle_alpha   90.00000000
_cell_angle_beta   90.00000000
_cell_angle_gamma   90.00000000
_symmetry_Int_Tables_number   1
_chemical_formula_structural   BaLu2Se3S
_chemical_formula_sum   'Ba4 Lu8 Se12 S4'
_cell_volume   756.62680201
_cell_formula_units_Z   4
loop_
 _symmetry_equiv_pos_site_id
 _symmetry_equiv_pos_as_xyz
  1  'x, y, z'
loop_
 _atom_site_type_symbol
 _atom_site_label
 _atom_site_symmetry_multiplicity
 _atom_site_fract_x
 _atom_site_fract_y
 _atom_site_fract_z
 _atom_site_occupancy
  Ba  Ba0  1  0.25000000  0.75479282  0.66456907  1
  Ba  Ba1  1  0.75000000  0.74520718  0.16456907  1
  Ba  Ba2  1  0.25000000  0.25479282  0.83543093  1
  Ba  Ba3  1  0.75000000  0.24520718  0.33543093  1
  Lu  Lu0  1  0.25000000  0.44014092  0.60360251  1
  Lu  Lu1  1  0.75000000  0.05985908  0.10360251  1
  Lu  Lu2  1  0.25000000  0.94014092  0.89639749  1
  Lu  Lu3  1  0.75000000  0.55985908  0.39639749  1
  Lu  Lu4  1  0.25000000  0.42060452  0.10018208  1
  Lu  Lu5  1  0.75000000  0.07939548  0.60018208  1
  Lu  Lu6  1  0.25000000  0.92060452  0.39981792  1
  Lu  Lu7  1  0.75000000  0.57939548  0.89981792  1
  Se  Se0  1  0.25000000  0.52342216  0.78180056  1
  Se  Se1  1  0.75000000  0.97657784  0.28180056  1
  Se  Se2  1  0.25000000  0.02342216  0.71819944  1
  Se  Se3  1  0.75000000  0.47657784  0.21819944  1
  Se  Se4  1  0.25000000  0.12429109  0.47527155  1
  Se  Se5  1  0.75000000  0.37570891  0.97527155  1
  Se  Se6  1  0.25000000  0.62429109  0.02472845  1
  Se  Se7  1  0.75000000  0.87570891  0.52472845  1
  Se  Se8  1  0.25000000  0.20499135  0.15541511  1
  Se  Se9  1  0.75000000  0.29500865  0.65541511  1
  Se  Se10  1  0.25000000  0.70499135  0.34458489  1
  Se  Se11  1  0.75000000  0.79500865  0.84458489  1
  S  S0  1  0.25000000  0.42186751  0.42562031  1
  S  S1  1  0.75000000  0.07813249  0.92562031  1
  S  S2  1  0.25000000  0.92186751  0.07437969  1
  S  S3  1  0.75000000  0.57813249  0.57437969  1
loop_
_geom_bond_atom_site_label_1
_geom_bond_atom_site_label_2
_geom_bond_distance
_geom_bond_site_symmetry_2
Ba0 Se7 3.275195 1_455
Ba0 Se7 3.275195 1_555
Ba0 S3 3.295908 1_555
Ba0 S3 3.295908 1_455
Ba0 Se0 3.384709 1_555
Ba0 Se11 3.386549 1_555
Ba0 Se11 3.386549 1_455
Ba0 Se2 3.469261 1_565
Ba1 Se6 3.275195 1_655
Ba1 Se6 3.275195 1_555
Ba1 S2 3.295908 1_555
Ba1 S2 3.295908 1_655
Ba1 Se1 3.384709 1_555
Ba1 Se10 3.386549 1_555
Ba1 Se10 3.386549 1_655
Ba1 Se3 3.469261 1_555
Ba2 Se5 3.275195 1_455
Ba2 Se5 3.275195 1_555
Ba2 S1 3.295908 1_555
Ba2 S1 3.295908 1_455
Ba2 Se2 3.384709 1_555
Ba2 Se9 3.386549 1_455
Ba2 Se9 3.386549 1_555
Ba2 Se0 3.469261 1_555
Ba3 Se4 3.275195 1_555
Ba3 Se4 3.275195 1_655
Ba3 S0 3.295908 1_555
Ba3 S0 3.295908 1_655
Ba3 Se3 3.384709 1_555
Ba3 Se8 3.386549 1_555
Ba3 Se8 3.386549 1_655
Ba3 Se1 3.469261 1_545
Lu0 S0 2.636232 1_555
Lu0 S3 2.711862 1_455
Lu0 S3 2.711862 1_555
Lu0 Se0 2.830244 1_555
Lu0 Se9 2.841197 1_555
Lu0 Se9 2.841197 1_455
Lu1 S1 2.636232 1_554
Lu1 S2 2.711862 1_545
Lu1 S2 2.711862 1_645
Lu1 Se1 2.830244 1_545
Lu1 Se8 2.841197 1_655
Lu1 Se8 2.841197 1_555
Lu2 S2 2.636232 1_556
Lu2 S1 2.711862 1_465
Lu2 S1 2.711862 1_565
Lu2 Se2 2.830244 1_565
Lu2 Se11 2.841197 1_555
Lu2 Se11 2.841197 1_455
Lu3 S3 2.636232 1_555
Lu3 S0 2.711862 1_655
Lu3 S0 2.711862 1_555
Lu3 Se3 2.830244 1_555
Lu3 Se10 2.841197 1_655
Lu3 Se10 2.841197 1_555
Lu4 Se3 2.772252 1_555
Lu4 Se3 2.772252 1_455
Lu4 Se6 2.792720 1_555
Lu4 Se5 2.805939 1_554
Lu4 Se5 2.805939 1_454
Lu4 Se8 2.831012 1_555
Lu5 Se2 2.772252 1_555
Lu5 Se2 2.772252 1_655
Lu5 Se7 2.792720 1_545
Lu5 Se4 2.805939 1_655
Lu5 Se4 2.805939 1_555
Lu5 Se9 2.831012 1_555
Lu6 Se1 2.772252 1_555
Lu6 Se1 2.772252 1_455
Lu6 Se4 2.792720 1_565
Lu6 Se7 2.805939 1_555
Lu6 Se7 2.805939 1_455
Lu6 Se10 2.831012 1_555
Lu7 Se0 2.772252 1_655
Lu7 Se0 2.772252 1_555
Lu7 Se5 2.792720 1_555
Lu7 Se6 2.805939 1_656
Lu7 Se6 2.805939 1_556
Lu7 Se11 2.831012 1_555
