# generated using pymatgen
data_Mg3Zn(PdO4)2
_symmetry_space_group_name_H-M   'P 1'
_cell_length_a   5.99449359
_cell_length_b   5.99449466
_cell_length_c   5.99449291
_cell_angle_alpha   120.82200664
_cell_angle_beta   119.41837838
_cell_angle_gamma   89.79625636
_symmetry_Int_Tables_number   1
_chemical_formula_structural   Mg3Zn(PdO4)2
_chemical_formula_sum   'Mg3 Zn1 Pd2 O8'
_cell_volume   152.00856017
_cell_formula_units_Z   1
loop_
 _symmetry_equiv_pos_site_id
 _symmetry_equiv_pos_as_xyz
  1  'x, y, z'
loop_
 _atom_site_type_symbol
 _atom_site_label
 _atom_site_symmetry_multiplicity
 _atom_site_fract_x
 _atom_site_fract_y
 _atom_site_fract_z
 _atom_site_occupancy
  Mg  Mg0  1  0.49929955  0.50138716  0.50208661  1
  Mg  Mg1  1  0.49929955  0.99721294  0.99791339  1
  Mg  Mg2  1  0.10817215  0.85817215  0.25000000  1
  Zn  Zn0  1  0.89669764  0.14669764  0.75000000  1
  Pd  Pd0  1  0.99990380  0.50002137  0.49988243  1
  Pd  Pd1  1  0.50013894  0.50002137  0.00011757  1
  O  O0  1  0.74683985  0.26913875  0.02229790  1
  O  O1  1  0.74683985  0.72454195  0.47770210  1
  O  O2  1  0.28433204  0.26293693  0.02139612  1
  O  O3  1  0.74154081  0.26293693  0.47860388  1
  O  O4  1  0.25507317  0.73563986  0.51943331  1
  O  O5  1  0.25282655  0.27639030  0.52356275  1
  O  O6  1  0.71620655  0.73563986  0.98056669  1
  O  O7  1  0.25282655  0.72926380  0.97643725  1
loop_
_geom_bond_atom_site_label_1
_geom_bond_atom_site_label_2
_geom_bond_distance
_geom_bond_site_symmetry_2
Mg0 O4 2.027634 1_555
Mg0 O6 2.027638 1_555
Mg0 O2 2.037507 1_555
Mg0 O3 2.037512 1_555
Mg0 O5 2.097043 1_555
Mg0 O1 2.107196 1_555
Mg1 O4 2.027638 1_555
Mg1 O6 2.027638 1_555
Mg1 O3 2.037508 1_566
Mg1 O2 2.037512 1_566
Mg1 O7 2.097043 1_555
Mg1 O0 2.107204 1_566
Mg2 O4 1.933254 1_555
Mg2 O6 1.933255 1_454
Mg2 O7 2.032684 1_554
Mg2 O5 2.032690 1_565
O0 Pd1 2.025104 1_555
O0 Pd0 2.025109 1_555
O0 Zn0 2.053810 1_554
O1 Pd1 2.025108 1_555
O1 Pd0 2.025109 1_555
O1 Zn0 2.053810 1_565
O2 Zn0 1.915176 1_454
O2 Pd1 2.017564 1_555
O3 Zn0 1.915181 1_555
O3 Pd0 2.017560 1_555
O4 Pd0 2.004492 1_455
O5 Pd0 2.021152 1_455
O5 Pd1 2.021156 1_556
O6 Pd1 2.004492 1_556
O7 Pd0 2.021156 1_455
O7 Pd1 2.021156 1_556
