# generated using pymatgen
data_Zr(NbS2)5
_symmetry_space_group_name_H-M   'P 1'
_cell_length_a   5.85527943
_cell_length_b   7.37006119
_cell_length_c   8.14160225
_cell_angle_alpha   109.85871894
_cell_angle_beta   97.13467946
_cell_angle_gamma   105.10297955
_symmetry_Int_Tables_number   1
_chemical_formula_structural   Zr(NbS2)5
_chemical_formula_sum   'Zr1 Nb5 S10'
_cell_volume   310.15676523
_cell_formula_units_Z   1
loop_
 _symmetry_equiv_pos_site_id
 _symmetry_equiv_pos_as_xyz
  1  'x, y, z'
loop_
 _atom_site_type_symbol
 _atom_site_label
 _atom_site_symmetry_multiplicity
 _atom_site_fract_x
 _atom_site_fract_y
 _atom_site_fract_z
 _atom_site_occupancy
  Zr  Zr0  1  0.66931937  0.51478619  0.98857361  1
  Nb  Nb0  1  0.00368156  0.99730310  0.00143745  1
  Nb  Nb1  1  0.59893229  0.20316104  0.20395332  1
  Nb  Nb2  1  0.19814745  0.39930981  0.39809891  1
  Nb  Nb3  1  0.79626786  0.59856371  0.60242245  1
  Nb  Nb4  1  0.40174436  0.79501644  0.79950840  1
  S  S0  1  0.23447122  0.05310160  0.29968989  1
  S  S1  1  0.04691289  0.64651761  0.90147873  1
  S  S2  1  0.83477697  0.25209844  0.49784007  1
  S  S3  1  0.63453892  0.85940796  0.11061842  1
  S  S4  1  0.42058886  0.43363804  0.68911232  1
  S  S5  1  0.89972295  0.55543759  0.30308072  1
  S  S6  1  0.69989253  0.14665592  0.89952317  1
  S  S7  1  0.49834972  0.74819088  0.50395795  1
  S  S8  1  0.29712789  0.35056262  0.09857741  1
  S  S9  1  0.09832414  0.94385002  0.70372716  1
loop_
_geom_bond_atom_site_label_1
_geom_bond_atom_site_label_2
_geom_bond_distance
_geom_bond_site_symmetry_2
Nb0 S0 2.471537 1_565
Nb0 S9 2.477086 1_554
Nb0 S8 2.507693 1_565
Nb0 S6 2.517605 1_464
Nb0 S1 2.524472 1_554
Nb0 S3 2.537941 1_455
Nb1 S3 2.458874 1_545
Nb1 S2 2.468906 1_555
Nb1 S0 2.480661 1_555
Nb1 S8 2.509193 1_555
Nb1 S5 2.516836 1_555
Nb1 S6 2.541077 1_554
Nb2 S4 2.455305 1_555
Nb2 S0 2.476671 1_555
Nb2 S2 2.487616 1_455
Nb2 S7 2.491347 1_555
Nb2 S8 2.505195 1_555
Nb2 S5 2.508490 1_455
Nb3 S9 2.480014 1_655
Nb3 S7 2.481397 1_555
Nb3 S2 2.483267 1_555
Nb3 S5 2.519583 1_555
Nb3 S4 2.527749 1_555
Nb3 S1 2.542525 1_655
Nb4 S1 2.462614 1_555
Nb4 S7 2.470782 1_555
Nb4 S9 2.494034 1_555
Nb4 S6 2.506508 1_565
Nb4 S4 2.542637 1_555
Nb4 S3 2.547065 1_556
S1 Zr0 2.464171 1_455
S3 Zr0 2.466775 1_554
S4 Zr0 2.469100 1_555
S5 Zr0 2.622302 1_554
S6 Zr0 2.620637 1_555
S8 Zr0 2.619751 1_554
