# generated using pymatgen
data_HfZrTiMo3
_symmetry_space_group_name_H-M   'P 1'
_cell_length_a   5.28846845
_cell_length_b   5.28846806
_cell_length_c   5.42861759
_cell_angle_alpha   60.85039488
_cell_angle_beta   60.85039497
_cell_angle_gamma   60.00000060
_symmetry_Int_Tables_number   1
_chemical_formula_structural   HfZrTiMo3
_chemical_formula_sum   'Hf1 Zr1 Ti1 Mo3'
_cell_volume   108.71722787
_cell_formula_units_Z   1
loop_
 _symmetry_equiv_pos_site_id
 _symmetry_equiv_pos_as_xyz
  1  'x, y, z'
loop_
 _atom_site_type_symbol
 _atom_site_label
 _atom_site_symmetry_multiplicity
 _atom_site_fract_x
 _atom_site_fract_y
 _atom_site_fract_z
 _atom_site_occupancy
  Hf  Hf0  1  0.24845271  0.24845271  0.25464088  1
  Zr  Zr0  1  0.00125440  0.00125440  0.99623781  1
  Ti  Ti0  1  0.62515987  0.62515987  0.12451940  1
  Mo  Mo0  1  0.62487009  0.12539186  0.62486697  1
  Mo  Mo1  1  0.12539186  0.62487009  0.62486697  1
  Mo  Mo2  1  0.62487009  0.62487009  0.62486697  1
loop_
_geom_bond_atom_site_label_1
_geom_bond_atom_site_label_2
_geom_bond_distance
_geom_bond_site_symmetry_2
Hf0 Ti0 3.108658 1_555
Hf0 Ti0 3.108658 1_545
Hf0 Ti0 3.108659 1_455
Hf0 Mo1 3.123060 1_545
Hf0 Mo0 3.123061 1_455
Hf0 Mo2 3.123061 1_545
Hf0 Mo2 3.123061 1_455
Hf0 Mo1 3.123061 1_555
Hf0 Mo0 3.123061 1_555
Hf0 Mo2 3.211931 1_554
Hf0 Mo0 3.211931 1_554
Hf0 Mo1 3.211931 1_554
Hf0 Zr0 3.266171 1_554
Hf0 Zr0 3.266179 1_564
Hf0 Zr0 3.266179 1_654
Hf0 Zr0 3.328709 1_555
Ti0 Zr0 3.107114 1_654
Ti0 Zr0 3.107115 1_564
Ti0 Zr0 3.107123 1_664
Mo0 Mo2 2.641475 1_555
Mo0 Mo1 2.641475 1_555
Mo0 Mo2 2.646993 1_545
Mo0 Mo1 2.646994 1_645
Mo0 Ti0 2.713916 1_546
Mo0 Ti0 2.714703 1_555
Mo0 Zr0 3.125793 1_555
Mo0 Zr0 3.125802 1_655
Mo0 Zr0 3.208925 1_654
Mo1 Mo2 2.641475 1_555
Mo1 Mo2 2.646994 1_455
Mo1 Ti0 2.713916 1_456
Mo1 Ti0 2.714703 1_555
Mo1 Zr0 3.125793 1_555
Mo1 Zr0 3.125802 1_565
Mo1 Zr0 3.208925 1_564
Mo2 Ti0 2.713916 1_556
Mo2 Ti0 2.714704 1_555
Mo2 Zr0 3.125798 1_655
Mo2 Zr0 3.125798 1_565
Mo2 Zr0 3.208929 1_664
