# generated using pymatgen
data_Sc5Si2As
_symmetry_space_group_name_H-M   'P 1'
_cell_length_a   7.90143239
_cell_length_b   7.89549000
_cell_length_c   5.81175731
_cell_angle_alpha   90.00000000
_cell_angle_beta   90.00000000
_cell_angle_gamma   119.97511313
_symmetry_Int_Tables_number   1
_chemical_formula_structural   Sc5Si2As
_chemical_formula_sum   'Sc10 Si4 As2'
_cell_volume   314.07392003
_cell_formula_units_Z   2
loop_
 _symmetry_equiv_pos_site_id
 _symmetry_equiv_pos_as_xyz
  1  'x, y, z'
loop_
 _atom_site_type_symbol
 _atom_site_label
 _atom_site_symmetry_multiplicity
 _atom_site_fract_x
 _atom_site_fract_y
 _atom_site_fract_z
 _atom_site_occupancy
  Sc  Sc0  1  0.99706338  0.75466741  0.75000000  1
  Sc  Sc1  1  0.99706338  0.24239497  0.25000000  1
  Sc  Sc2  1  0.75857155  0.75777233  0.25000000  1
  Sc  Sc3  1  0.75857155  0.00079922  0.75000000  1
  Sc  Sc4  1  0.24279366  0.24693025  0.75000000  1
  Sc  Sc5  1  0.24279366  0.99586341  0.25000000  1
  Sc  Sc6  1  0.33257203  0.66628652  0.50000000  1
  Sc  Sc7  1  0.66987607  0.33493803  0.00000000  1
  Sc  Sc8  1  0.66987607  0.33493803  0.50000000  1
  Sc  Sc9  1  0.33257203  0.66628652  0.00000000  1
  Si  Si0  1  0.00088894  0.60621697  0.25000000  1
  Si  Si1  1  0.00088894  0.39467297  0.75000000  1
  Si  Si2  1  0.60827343  0.60885610  0.75000000  1
  Si  Si3  1  0.60827343  0.99941733  0.25000000  1
  As  As0  1  0.38995993  0.00144417  0.75000000  1
  As  As1  1  0.38995993  0.38851576  0.25000000  1
loop_
_geom_bond_atom_site_label_1
_geom_bond_atom_site_label_2
_geom_bond_distance
_geom_bond_site_symmetry_2
Sc0 Si2 2.688600 1_555
Sc0 Si1 2.857555 1_655
Sc0 Si0 3.139146 1_655
Sc0 Si0 3.139146 1_656
Sc1 Si3 2.688599 1_545
Sc1 Si0 2.857571 1_655
Sc1 Si1 3.139152 1_654
Sc1 Si1 3.139152 1_655
Sc2 Si3 2.704532 1_555
Sc2 Si0 2.717926 1_655
Sc2 Si2 3.137137 1_555
Sc2 Si2 3.137137 1_554
Sc3 Si2 2.704533 1_545
Sc3 Si1 2.717933 1_655
Sc3 Si3 3.137137 1_545
Sc3 Si3 3.137137 1_546
Sc4 Si1 2.691118 1_555
Sc4 Si2 2.873898 1_555
Sc5 Si0 2.691112 1_555
Sc5 Si3 2.873897 1_555
Sc6 Si0 2.821768 1_555
Sc6 Si1 2.821768 1_555
Sc6 Si3 2.837120 1_555
Sc6 Si2 2.837124 1_555
Sc7 Si1 2.818078 1_654
Sc7 Si0 2.818080 1_655
Sc7 Si2 2.842044 1_554
Sc7 Si3 2.842044 1_545
Sc8 Si1 2.818078 1_655
Sc8 Si0 2.818080 1_655
Sc8 Si2 2.842044 1_555
Sc8 Si3 2.842044 1_545
Sc9 Si0 2.821768 1_555
Sc9 Si1 2.821768 1_554
Sc9 Si3 2.837120 1_555
Sc9 Si2 2.837124 1_554
As0 Sc4 2.713123 1_555
As0 Sc0 2.718403 1_445
As0 Sc7 2.848979 1_556
As0 Sc8 2.848979 1_555
As0 Sc6 2.849593 1_545
As0 Sc9 2.849593 1_546
As0 Sc3 2.915107 1_555
As0 Sc5 3.122024 1_546
As0 Sc5 3.122024 1_545
As1 Sc5 2.713123 1_545
As1 Sc1 2.718401 1_455
As1 Sc8 2.848978 1_555
As1 Sc7 2.848978 1_555
As1 Sc6 2.849599 1_555
As1 Sc9 2.849599 1_555
As1 Sc2 2.915108 1_555
As1 Sc4 3.122024 1_555
As1 Sc4 3.122024 1_554
