# generated using pymatgen
data_K(InAg2)2
_symmetry_space_group_name_H-M   'P 1'
_cell_length_a   7.50419993
_cell_length_b   7.50420085
_cell_length_c   7.50420026
_cell_angle_alpha   108.79633153
_cell_angle_beta   108.79633096
_cell_angle_gamma   110.82960542
_symmetry_Int_Tables_number   1
_chemical_formula_structural   K(InAg2)2
_chemical_formula_sum   'K2 In4 Ag8'
_cell_volume   325.16794092
_cell_formula_units_Z   2
loop_
 _symmetry_equiv_pos_site_id
 _symmetry_equiv_pos_as_xyz
  1  'x, y, z'
loop_
 _atom_site_type_symbol
 _atom_site_label
 _atom_site_symmetry_multiplicity
 _atom_site_fract_x
 _atom_site_fract_y
 _atom_site_fract_z
 _atom_site_occupancy
  K  K0  1  0.75000000  0.75000000  0.00000000  1
  K  K1  1  0.25000000  0.25000000  0.00000000  1
  In  In0  1  0.84878419  0.34878419  0.19756738  1
  In  In1  1  0.34878419  0.15121581  0.50000000  1
  In  In2  1  0.65121581  0.84878419  0.50000000  1
  In  In3  1  0.15121581  0.65121581  0.80243262  1
  Ag  Ag0  1  0.68758646  0.48117159  0.50000000  1
  Ag  Ag1  1  0.48117159  0.98117159  0.79358613  1
  Ag  Ag2  1  0.98117159  0.18758646  0.50000000  1
  Ag  Ag3  1  0.18758646  0.68758646  0.20641387  1
  Ag  Ag4  1  0.51882841  0.01882841  0.20641387  1
  Ag  Ag5  1  0.01882841  0.81241354  0.50000000  1
  Ag  Ag6  1  0.31241354  0.51882841  0.50000000  1
  Ag  Ag7  1  0.81241354  0.31241354  0.79358613  1
loop_
_geom_bond_atom_site_label_1
_geom_bond_atom_site_label_2
_geom_bond_distance
_geom_bond_site_symmetry_2
K0 K1 4.259617 1_665
K0 K1 4.259617 1_555
In0 K1 3.945639 1_655
In0 K0 3.945640 1_555
In0 K1 3.945644 1_555
In0 K0 3.945644 1_545
In1 K0 3.945643 1_445
In1 K0 3.945643 1_556
In1 K1 3.945644 1_556
In1 K1 3.945644 1_555
In2 K1 3.945643 1_666
In2 K1 3.945643 1_555
In2 K0 3.945644 1_555
In2 K0 3.945644 1_556
In3 K0 3.945639 1_456
In3 K1 3.945640 1_556
In3 K0 3.945644 1_556
In3 K1 3.945644 1_566
Ag0 Ag5 2.821928 1_655
Ag0 In1 2.849178 1_555
Ag0 In2 2.867062 1_555
Ag0 Ag6 2.927794 1_555
Ag0 Ag4 2.940518 1_555
Ag0 Ag7 2.940523 1_555
Ag0 In3 2.961717 1_655
Ag0 In0 2.961721 1_555
Ag0 K1 3.418357 1_555
Ag0 K0 3.418357 1_556
Ag1 Ag7 2.821928 1_565
Ag1 In3 2.849178 1_555
Ag1 In0 2.867055 1_566
Ag1 Ag4 2.927779 1_566
Ag1 Ag5 2.940518 1_555
Ag1 Ag6 2.940518 1_555
Ag1 In2 2.961721 1_555
Ag1 In1 2.961721 1_565
Ag1 K1 3.418354 1_566
Ag1 K0 3.418354 1_556
Ag2 Ag6 2.821928 1_655
Ag2 In2 2.849178 1_545
Ag2 In1 2.867062 1_655
Ag2 Ag5 2.927794 1_645
Ag2 Ag4 2.940518 1_555
Ag2 Ag7 2.940523 1_555
Ag2 In3 2.961717 1_655
Ag2 In0 2.961721 1_555
Ag2 K0 3.418357 1_545
Ag2 K1 3.418357 1_656
Ag3 Ag4 2.821928 1_565
Ag3 In0 2.849178 1_455
Ag3 In3 2.867047 1_554
Ag3 Ag7 2.927787 1_454
Ag3 Ag5 2.940523 1_555
Ag3 Ag6 2.940523 1_555
Ag3 In2 2.961717 1_555
Ag3 In1 2.961717 1_565
Ag3 K0 3.418356 1_455
Ag3 K1 3.418356 1_555
Ag4 In0 2.849178 1_555
Ag4 In3 2.867055 1_544
Ag4 In1 2.961721 1_555
Ag4 In2 2.961721 1_545
Ag4 K0 3.418354 1_545
Ag4 K1 3.418354 1_555
Ag5 In1 2.849178 1_565
Ag5 In2 2.867062 1_455
Ag5 In0 2.961717 1_455
Ag5 In3 2.961721 1_555
Ag5 K1 3.418357 1_566
Ag5 K0 3.418357 1_455
Ag6 In2 2.849178 1_555
Ag6 In1 2.867062 1_555
Ag6 In0 2.961717 1_455
Ag6 In3 2.961721 1_555
Ag6 K0 3.418357 1_556
Ag6 K1 3.418357 1_555
Ag7 In3 2.849178 1_655
Ag7 In0 2.867047 1_556
Ag7 In1 2.961717 1_555
Ag7 In2 2.961717 1_545
Ag7 K1 3.418356 1_656
Ag7 K0 3.418356 1_556
