# generated using pymatgen
data_Zn5RuAu
_symmetry_space_group_name_H-M   'P 1'
_cell_length_a   5.28721143
_cell_length_b   5.32730977
_cell_length_c   5.32730967
_cell_angle_alpha   63.43353860
_cell_angle_beta   60.24867505
_cell_angle_gamma   60.24867315
_symmetry_Int_Tables_number   1
_chemical_formula_structural   Zn5RuAu
_chemical_formula_sum   'Zn5 Ru1 Au1'
_cell_volume   109.00685648
_cell_formula_units_Z   1
loop_
 _symmetry_equiv_pos_site_id
 _symmetry_equiv_pos_as_xyz
  1  'x, y, z'
loop_
 _atom_site_type_symbol
 _atom_site_label
 _atom_site_symmetry_multiplicity
 _atom_site_fract_x
 _atom_site_fract_y
 _atom_site_fract_z
 _atom_site_occupancy
  Zn  Zn0  1  0.50000000  0.00000000  0.00000000  1
  Zn  Zn1  1  0.00000000  0.50000000  0.00000000  1
  Zn  Zn2  1  0.50000000  0.50000000  0.00000000  1
  Zn  Zn3  1  0.00000000  0.00000000  0.50000000  1
  Zn  Zn4  1  0.50000000  0.00000000  0.50000000  1
  Ru  Ru0  1  0.00000000  0.00000000  0.00000000  1
  Au  Au0  1  0.00000000  0.50000000  0.50000000  1
loop_
_geom_bond_atom_site_label_1
_geom_bond_atom_site_label_2
_geom_bond_distance
_geom_bond_site_symmetry_2
Zn0 Zn1 2.663655 1_645
Zn0 Zn1 2.663655 1_555
Zn0 Zn3 2.663655 1_654
Zn0 Zn3 2.663655 1_555
Zn0 Zn4 2.663655 1_555
Zn0 Zn4 2.663655 1_554
Zn0 Zn2 2.663655 1_545
Zn0 Zn2 2.663655 1_555
Zn1 Zn2 2.643606 1_455
Zn1 Zn2 2.643606 1_555
Zn1 Zn3 2.800677 1_555
Zn1 Zn3 2.800677 1_564
Zn2 Zn4 2.800677 1_555
Zn2 Zn4 2.800677 1_564
Zn3 Zn4 2.643606 1_455
Zn3 Zn4 2.643606 1_555
Ru0 Zn0 2.643606 1_555
Ru0 Zn0 2.643606 1_455
Ru0 Zn2 2.663655 1_455
Ru0 Zn2 2.663655 1_545
Ru0 Zn4 2.663655 1_455
Ru0 Zn4 2.663655 1_554
Ru0 Zn3 2.663655 1_554
Ru0 Zn3 2.663655 1_555
Ru0 Zn1 2.663655 1_555
Ru0 Zn1 2.663655 1_545
Au0 Zn4 2.663655 1_555
Au0 Zn4 2.663655 1_465
Au0 Zn2 2.663655 1_555
Au0 Zn2 2.663655 1_456
Au0 Zn1 2.663655 1_555
Au0 Zn1 2.663655 1_556
Au0 Zn3 2.663655 1_565
Au0 Zn3 2.663655 1_555
Au0 Ru0 2.800677 1_556
Au0 Ru0 2.800677 1_565
