# generated using pymatgen
data_Lu4Si4Ge2Ir7
_symmetry_space_group_name_H-M   'P 1'
_cell_length_a   7.09019110
_cell_length_b   7.09817974
_cell_length_c   7.09817980
_cell_angle_alpha   109.77537760
_cell_angle_beta   109.34199857
_cell_angle_gamma   109.34199109
_symmetry_Int_Tables_number   1
_chemical_formula_structural   Lu4Si4Ge2Ir7
_chemical_formula_sum   'Lu4 Si4 Ge2 Ir7'
_cell_volume   274.83915729
_cell_formula_units_Z   1
loop_
 _symmetry_equiv_pos_site_id
 _symmetry_equiv_pos_as_xyz
  1  'x, y, z'
loop_
 _atom_site_type_symbol
 _atom_site_label
 _atom_site_symmetry_multiplicity
 _atom_site_fract_x
 _atom_site_fract_y
 _atom_site_fract_z
 _atom_site_occupancy
  Lu  Lu0  1  1.00000000  0.00024368  0.51921166  1
  Lu  Lu1  1  0.00000000  0.48078834  0.99975632  1
  Lu  Lu2  1  0.50000000  0.00040283  0.99959717  1
  Lu  Lu3  1  0.50000000  0.50040283  0.49959717  1
  Si  Si0  1  0.00000000  0.32258404  0.32545895  1
  Si  Si1  1  0.32922256  0.32769632  0.00152624  1
  Si  Si2  1  0.67077744  0.99847376  0.67230368  1
  Si  Si3  1  1.00000000  0.67454105  0.67741596  1
  Ge  Ge0  1  0.69158510  0.68962270  0.00196240  1
  Ge  Ge1  1  0.30841490  0.99803760  0.31037730  1
  Ir  Ir0  1  0.75136194  0.25041178  0.50095017  1
  Ir  Ir1  1  0.75106581  0.49893787  0.25212794  1
  Ir  Ir2  1  0.50000000  0.24891649  0.75108351  1
  Ir  Ir3  1  0.24863806  0.49904983  0.74958822  1
  Ir  Ir4  1  0.24893419  0.74787206  0.50106213  1
  Ir  Ir5  1  0.50000000  0.74891649  0.25108351  1
  Ir  Ir6  1  0.00000000  0.01310132  0.98689868  1
loop_
_geom_bond_atom_site_label_1
_geom_bond_atom_site_label_2
_geom_bond_distance
_geom_bond_site_symmetry_2
Lu0 Si1 2.880939 1_656
Lu0 Si2 2.880940 1_545
Lu0 Si3 2.891825 1_545
Lu0 Si0 3.042332 1_655
Lu1 Si2 2.880939 1_445
Lu1 Si1 2.880940 1_556
Lu1 Si0 2.891825 1_556
Lu1 Si3 3.042332 1_455
Lu2 Si1 2.952350 1_556
Lu2 Si2 2.952350 1_545
Lu2 Si0 2.960793 1_656
Lu2 Si3 2.960793 1_445
Lu3 Si1 2.952350 1_555
Lu3 Si2 2.952350 1_555
Lu3 Si3 2.960793 1_555
Lu3 Si0 2.960793 1_555
Ge0 Ir2 2.572054 1_554
Ge0 Ir5 2.572054 1_555
Ge0 Ir1 2.582913 1_555
Ge0 Ir3 2.592598 1_554
Ge0 Ir6 2.657136 1_664
Ge0 Lu3 2.950708 1_554
Ge0 Lu2 2.950708 1_564
Ge0 Lu0 3.022168 1_565
Ge0 Lu1 3.022168 1_654
Ge1 Ir2 2.572054 1_565
Ge1 Ir5 2.572054 1_555
Ge1 Ir4 2.582913 1_555
Ge1 Ir0 2.592598 1_565
Ge1 Ir6 2.657136 1_564
Ge1 Lu3 2.950708 1_565
Ge1 Lu2 2.950708 1_564
Ge1 Lu1 3.022168 1_554
Ge1 Lu0 3.022168 1_465
Ir0 Si3 2.492015 1_555
Ir0 Si0 2.492015 1_655
Ir0 Si2 2.501837 1_545
Ir0 Lu1 2.890649 1_655
Ir0 Lu0 2.890650 1_555
Ir0 Lu2 2.901756 1_554
Ir0 Lu3 2.901757 1_555
Ir1 Si1 2.488349 1_555
Ir1 Si3 2.499796 1_555
Ir1 Si0 2.499797 1_655
Ir1 Lu2 2.885421 1_554
Ir1 Lu3 2.885421 1_555
Ir1 Lu0 2.903391 1_565
Ir1 Lu1 2.903391 1_654
Ir2 Si2 2.478048 1_545
Ir2 Si1 2.478048 1_556
Ir2 Lu2 2.885988 1_555
Ir2 Lu1 2.901093 1_655
Ir2 Lu0 2.901093 1_455
Ir2 Lu3 2.920509 1_555
Ir3 Si0 2.492015 1_555
Ir3 Si3 2.492015 1_455
Ir3 Si1 2.501837 1_556
Ir3 Lu0 2.890649 1_455
Ir3 Lu1 2.890650 1_555
Ir3 Lu2 2.901757 1_565
Ir3 Lu3 2.901757 1_555
Ir4 Si2 2.488350 1_555
Ir4 Si0 2.499797 1_555
Ir4 Si3 2.499797 1_455
Ir4 Lu2 2.885421 1_565
Ir4 Lu3 2.885421 1_555
Ir4 Lu1 2.903391 1_554
Ir4 Lu0 2.903391 1_465
Ir5 Si2 2.478048 1_555
Ir5 Si1 2.478048 1_555
Ir5 Lu3 2.885988 1_555
Ir5 Lu0 2.901093 1_565
Ir5 Lu1 2.901093 1_554
Ir5 Lu2 2.920509 1_564
Ir6 Si2 2.583751 1_445
Ir6 Si1 2.583751 1_556
Ir6 Si3 2.651172 1_445
Ir6 Si0 2.651172 1_556
Ir6 Lu1 3.289969 1_555
Ir6 Lu0 3.289969 1_455
