# generated using pymatgen
data_ZrCuIrS4
_symmetry_space_group_name_H-M   'P 1'
_cell_length_a   7.10821825
_cell_length_b   7.10821768
_cell_length_c   7.10821847
_cell_angle_alpha   119.60650585
_cell_angle_beta   118.48837999
_cell_angle_gamma   91.66059719
_symmetry_Int_Tables_number   1
_chemical_formula_structural   ZrCuIrS4
_chemical_formula_sum   'Zr2 Cu2 Ir2 S8'
_cell_volume   257.47102198
_cell_formula_units_Z   2
loop_
 _symmetry_equiv_pos_site_id
 _symmetry_equiv_pos_as_xyz
  1  'x, y, z'
loop_
 _atom_site_type_symbol
 _atom_site_label
 _atom_site_symmetry_multiplicity
 _atom_site_fract_x
 _atom_site_fract_y
 _atom_site_fract_z
 _atom_site_occupancy
  Zr  Zr0  1  0.96888900  0.18319074  0.71430173  1
  Zr  Zr1  1  0.03111100  0.74541073  0.21430173  1
  Cu  Cu0  1  0.37813024  0.41187413  0.53374389  1
  Cu  Cu1  1  0.62186976  0.15561365  0.03374389  1
  Ir  Ir0  1  0.50000000  0.76029648  0.26029648  1
  Ir  Ir1  1  0.00000000  0.76029648  0.76029648  1
  S  S0  1  0.24122804  0.97356610  0.72949065  1
  S  S1  1  0.74407746  0.97356610  0.23233806  1
  S  S2  1  0.75751332  0.54430493  0.28679160  1
  S  S3  1  0.72404290  0.95882948  0.73478658  1
  S  S4  1  0.75877196  0.48826161  0.73233806  1
  S  S5  1  0.24248668  0.52927728  0.78679160  1
  S  S6  1  0.27595710  0.01074268  0.23478658  1
  S  S7  1  0.25592254  0.48826161  0.22949065  1
loop_
_geom_bond_atom_site_label_1
_geom_bond_atom_site_label_2
_geom_bond_distance
_geom_bond_site_symmetry_2
Cu0 S5 2.253746 1_555
Cu0 S7 2.263214 1_555
Cu0 S4 2.263221 1_555
Cu0 S6 2.365177 1_555
Cu1 S2 2.253746 1_555
Cu1 S0 2.263220 1_544
Cu1 S1 2.263221 1_545
Cu1 S3 2.365172 1_544
Ir0 S1 2.412860 1_555
Ir0 S7 2.412864 1_555
Ir0 S2 2.421357 1_555
Ir0 S5 2.421357 1_554
Ir0 S6 2.438459 1_565
Ir0 S3 2.438465 1_555
Ir1 S0 2.412849 1_555
Ir1 S4 2.412854 1_455
Ir1 S2 2.421357 1_455
Ir1 S5 2.421362 1_555
Ir1 S3 2.438465 1_455
Ir1 S6 2.438465 1_566
S0 Zr0 2.471069 1_465
S0 Zr1 2.654297 1_555
S1 Zr0 2.471069 1_565
S1 Zr1 2.654295 1_655
S2 Zr1 2.759320 1_655
S3 Zr0 2.429818 1_565
S4 Zr1 2.471069 1_656
S4 Zr0 2.654292 1_555
S5 Zr0 2.759323 1_455
S6 Zr1 2.429824 1_545
S7 Zr1 2.471054 1_555
S7 Zr0 2.654296 1_454
