# generated using pymatgen
data_Ba4Mo(BrN2)2
_symmetry_space_group_name_H-M   'P 1'
_cell_length_a   6.28883315
_cell_length_b   8.51170267
_cell_length_c   11.17412860
_cell_angle_alpha   81.13096033
_cell_angle_beta   90.00000000
_cell_angle_gamma   90.00000000
_symmetry_Int_Tables_number   1
_chemical_formula_structural   Ba4Mo(BrN2)2
_chemical_formula_sum   'Ba8 Mo2 Br4 N8'
_cell_volume   590.98460696
_cell_formula_units_Z   2
loop_
 _symmetry_equiv_pos_site_id
 _symmetry_equiv_pos_as_xyz
  1  'x, y, z'
loop_
 _atom_site_type_symbol
 _atom_site_label
 _atom_site_symmetry_multiplicity
 _atom_site_fract_x
 _atom_site_fract_y
 _atom_site_fract_z
 _atom_site_occupancy
  Ba  Ba0  1  0.75000000  0.28249740  0.29875089  1
  Ba  Ba1  1  0.75000000  0.00226809  0.62402020  1
  Ba  Ba2  1  0.75000000  0.44468965  0.61178101  1
  Ba  Ba3  1  0.75000000  0.80240156  0.10518843  1
  Ba  Ba4  1  0.25000000  0.99773191  0.37597980  1
  Ba  Ba5  1  0.25000000  0.55531035  0.38821899  1
  Ba  Ba6  1  0.25000000  0.19759844  0.89481157  1
  Ba  Ba7  1  0.25000000  0.71750260  0.70124911  1
  Mo  Mo0  1  0.75000000  0.77198130  0.40479803  1
  Mo  Mo1  1  0.25000000  0.22801870  0.59520197  1
  Br  Br0  1  0.25000000  0.34078617  0.15833359  1
  Br  Br1  1  0.75000000  0.65921383  0.84166641  1
  Br  Br2  1  0.25000000  0.84717362  0.09874071  1
  Br  Br3  1  0.75000000  0.15282638  0.90125929  1
  N  N0  1  0.25000000  0.04176599  0.70440069  1
  N  N1  1  0.00703481  0.24079197  0.49669512  1
  N  N2  1  0.50703481  0.75920803  0.50330488  1
  N  N3  1  0.99296519  0.75920803  0.50330488  1
  N  N4  1  0.75000000  0.60629862  0.31361299  1
  N  N5  1  0.75000000  0.95823401  0.29559931  1
  N  N6  1  0.49296519  0.24079197  0.49669512  1
  N  N7  1  0.25000000  0.39370138  0.68638701  1
loop_
_geom_bond_atom_site_label_1
_geom_bond_atom_site_label_2
_geom_bond_distance
_geom_bond_site_symmetry_2
Ba0 N1 2.718292 1_655
Ba0 N6 2.718292 1_555
Ba0 N5 2.765682 1_545
Ba0 N4 2.786539 1_555
Ba0 Br0 3.515019 1_555
Ba0 Br0 3.515019 1_655
Ba1 N1 2.805053 1_655
Ba1 N6 2.805053 1_555
Ba1 N3 3.048746 1_545
Ba1 N2 3.048746 1_545
Ba1 N0 3.301549 1_655
Ba1 N0 3.301549 1_555
Ba1 Br1 3.500168 1_545
Ba1 Br3 3.530359 1_555
Ba2 N1 2.822566 1_655
Ba2 N6 2.822566 1_555
Ba2 N3 3.157552 1_555
Ba2 N2 3.157552 1_555
Ba2 N7 3.264832 1_655
Ba2 N7 3.264832 1_555
Ba2 Br1 3.373285 1_555
Ba2 N4 3.402890 1_555
Ba2 Br3 3.762545 1_555
Ba3 N4 2.647923 1_555
Ba3 N5 2.675174 1_555
Ba3 Br2 3.166908 1_655
Ba3 Br2 3.166908 1_555
Ba3 Br1 3.356020 1_554
Ba3 Br3 3.463144 1_564
Ba4 N2 2.805053 1_555
Ba4 N3 2.805053 1_455
Ba4 N6 3.048746 1_565
Ba4 N1 3.048746 1_565
Ba4 N5 3.301549 1_555
Ba4 N5 3.301549 1_455
Ba4 Br0 3.500168 1_565
Ba4 Br2 3.530359 1_555
Ba5 N2 2.822566 1_555
Ba5 N3 2.822566 1_455
Ba5 N6 3.157552 1_555
Ba5 N1 3.157552 1_555
Ba5 N4 3.264832 1_555
Ba5 N4 3.264832 1_455
Ba5 Br0 3.373285 1_555
Ba5 N7 3.402890 1_555
Ba5 Br2 3.762545 1_555
Ba6 N7 2.647923 1_555
Ba6 N0 2.675174 1_555
Ba6 Br3 3.166908 1_555
Ba6 Br3 3.166908 1_455
Ba6 Br0 3.356020 1_556
Ba6 Br2 3.463144 1_546
Ba7 N2 2.718292 1_555
Ba7 N3 2.718292 1_455
Ba7 N0 2.765682 1_565
Ba7 N7 2.786539 1_555
Ba7 Br1 3.515019 1_455
Ba7 Br1 3.515019 1_555
Mo0 N5 1.845446 1_555
Mo0 N4 1.862805 1_555
Mo0 N3 1.876488 1_555
Mo0 N2 1.876488 1_555
Mo1 N0 1.845446 1_555
Mo1 N7 1.862805 1_555
Mo1 N6 1.876488 1_555
Mo1 N1 1.876488 1_555
