# generated using pymatgen
data_Ca(SmS2)2
_symmetry_space_group_name_H-M   'P 1'
_cell_length_a   7.36248640
_cell_length_b   7.36248640
_cell_length_c   7.36248640
_cell_angle_alpha   109.59223233
_cell_angle_beta   109.59223233
_cell_angle_gamma   109.22946738
_symmetry_Int_Tables_number   1
_chemical_formula_structural   Ca(SmS2)2
_chemical_formula_sum   'Ca2 Sm4 S8'
_cell_volume   307.21741410
_cell_formula_units_Z   2
loop_
 _symmetry_equiv_pos_site_id
 _symmetry_equiv_pos_as_xyz
  1  'x, y, z'
loop_
 _atom_site_type_symbol
 _atom_site_label
 _atom_site_symmetry_multiplicity
 _atom_site_fract_x
 _atom_site_fract_y
 _atom_site_fract_z
 _atom_site_occupancy
  Ca  Ca0  1  0.75000000  0.25000000  0.50000000  1
  Ca  Ca1  1  0.00000000  0.00000000  0.00000000  1
  Sm  Sm0  1  0.50371178  0.12500000  0.87871178  1
  Sm  Sm1  1  0.87500000  0.75371178  0.37871178  1
  Sm  Sm2  1  0.24628822  0.62500000  0.12128822  1
  Sm  Sm3  1  0.37500000  0.49628822  0.62128822  1
  S  S0  1  0.98472463  0.37785213  0.24809907  1
  S  S1  1  0.48662556  0.37975307  0.25190093  1
  S  S2  1  0.76527537  0.51337444  0.89312751  1
  S  S3  1  0.62214787  0.87024693  0.60687249  1
  S  S4  1  0.12785213  0.23472463  0.74809907  1
  S  S5  1  0.62024693  0.87214787  0.10687249  1
  S  S6  1  0.26337444  0.01527537  0.39312751  1
  S  S7  1  0.12975307  0.73662556  0.75190093  1
loop_
_geom_bond_atom_site_label_1
_geom_bond_atom_site_label_2
_geom_bond_distance
_geom_bond_site_symmetry_2
Ca0 S4 2.832717 1_655
Ca0 S5 2.832717 1_545
Ca0 S1 2.832717 1_555
Ca0 S2 2.832717 1_555
Ca0 S0 3.092075 1_555
Ca0 S3 3.092075 1_545
Ca0 S6 3.092075 1_555
Ca0 S7 3.092075 1_655
Ca1 S0 2.832717 1_455
Ca1 S3 2.832717 1_444
Ca1 S7 2.832717 1_544
Ca1 S6 2.832717 1_555
Ca1 S4 3.092075 1_554
Ca1 S5 3.092075 1_445
Ca1 S1 3.092075 1_555
Ca1 S2 3.092075 1_444
S0 Sm2 2.815708 1_655
S0 Sm3 2.830926 1_655
S0 Sm0 3.034203 1_554
S0 Sm1 3.073106 1_555
S1 Sm1 2.815708 1_555
S1 Sm0 2.830926 1_554
S1 Sm3 3.034203 1_555
S1 Sm2 3.073106 1_555
S2 Sm0 2.815708 1_555
S2 Sm3 2.830926 1_555
S2 Sm2 3.034203 1_656
S2 Sm1 3.073106 1_556
S3 Sm3 2.815708 1_555
S3 Sm0 2.830926 1_565
S3 Sm1 3.034202 1_555
S3 Sm2 3.073106 1_555
S4 Sm3 2.815708 1_555
S4 Sm2 2.830926 1_556
S4 Sm1 3.034203 1_445
S4 Sm0 3.073106 1_555
S5 Sm2 2.815708 1_555
S5 Sm1 2.830926 1_555
S5 Sm0 3.034202 1_564
S5 Sm3 3.073106 1_554
S6 Sm1 2.815708 1_445
S6 Sm2 2.830926 1_545
S6 Sm3 3.034203 1_555
S6 Sm0 3.073106 1_555
S7 Sm0 2.815708 1_565
S7 Sm1 2.830926 1_455
S7 Sm2 3.034203 1_556
S7 Sm3 3.073106 1_555
