# generated using pymatgen
data_Li2FeSi5Ru8
_symmetry_space_group_name_H-M   'P 1'
_cell_length_a   5.80649218
_cell_length_b   5.80475601
_cell_length_c   5.80649218
_cell_angle_alpha   90.00000000
_cell_angle_beta   90.00000000
_cell_angle_gamma   90.00000000
_symmetry_Int_Tables_number   1
_chemical_formula_structural   Li2FeSi5Ru8
_chemical_formula_sum   'Li2 Fe1 Si5 Ru8'
_cell_volume   195.70938920
_cell_formula_units_Z   1
loop_
 _symmetry_equiv_pos_site_id
 _symmetry_equiv_pos_as_xyz
  1  'x, y, z'
loop_
 _atom_site_type_symbol
 _atom_site_label
 _atom_site_symmetry_multiplicity
 _atom_site_fract_x
 _atom_site_fract_y
 _atom_site_fract_z
 _atom_site_occupancy
  Li  Li0  1  0.50000000  0.00000000  0.00000000  1
  Li  Li1  1  0.00000000  0.00000000  0.50000000  1
  Fe  Fe0  1  0.00000000  0.50000000  0.00000000  1
  Si  Si0  1  0.50000000  0.50000000  0.50000000  1
  Si  Si1  1  0.00000000  0.50000000  0.50000000  1
  Si  Si2  1  0.50000000  0.00000000  0.50000000  1
  Si  Si3  1  0.50000000  0.50000000  0.00000000  1
  Si  Si4  1  0.00000000  0.00000000  0.00000000  1
  Ru  Ru0  1  0.25279826  0.74510457  0.74720174  1
  Ru  Ru1  1  0.74720174  0.25489543  0.74720174  1
  Ru  Ru2  1  0.74720174  0.74510457  0.74720174  1
  Ru  Ru3  1  0.74720174  0.74510457  0.25279826  1
  Ru  Ru4  1  0.74720174  0.25489543  0.25279826  1
  Ru  Ru5  1  0.25279826  0.25489543  0.74720174  1
  Ru  Ru6  1  0.25279826  0.74510457  0.25279826  1
  Ru  Ru7  1  0.25279826  0.25489543  0.25279826  1
loop_
_geom_bond_atom_site_label_1
_geom_bond_atom_site_label_2
_geom_bond_distance
_geom_bond_site_symmetry_2
Li0 Ru3 2.530648 1_545
Li0 Ru4 2.530648 1_555
Li0 Ru7 2.530648 1_555
Li0 Ru2 2.530648 1_544
Li0 Ru1 2.530648 1_554
Li0 Ru6 2.530648 1_545
Li0 Ru0 2.530648 1_544
Li0 Ru5 2.530648 1_554
Li1 Ru0 2.530648 1_545
Li1 Ru5 2.530648 1_555
Li1 Ru7 2.530648 1_555
Li1 Ru1 2.530648 1_455
Li1 Ru2 2.530648 1_445
Li1 Ru6 2.530648 1_545
Li1 Ru3 2.530648 1_445
Li1 Ru4 2.530648 1_455
Fe0 Ru7 2.516659 1_555
Fe0 Ru6 2.516659 1_555
Fe0 Ru5 2.516659 1_554
Fe0 Ru4 2.516659 1_455
Fe0 Ru3 2.516659 1_455
Fe0 Ru0 2.516659 1_554
Fe0 Ru1 2.516659 1_454
Fe0 Ru2 2.516659 1_454
Ru0 Si0 2.478888 1_555
Ru0 Si1 2.497845 1_555
Ru0 Si3 2.497845 1_556
Ru0 Si2 2.511939 1_565
Ru0 Si4 2.549220 1_566
Ru1 Si0 2.478888 1_555
Ru1 Si1 2.497845 1_655
Ru1 Si3 2.497845 1_556
Ru1 Si2 2.511939 1_555
Ru1 Si4 2.549220 1_656
Ru2 Si0 2.478888 1_555
Ru2 Si3 2.497845 1_556
Ru2 Si1 2.497845 1_655
Ru2 Si2 2.511939 1_565
Ru2 Si4 2.549220 1_666
Ru3 Si0 2.478888 1_555
Ru3 Si3 2.497845 1_555
Ru3 Si1 2.497845 1_655
Ru3 Si2 2.511939 1_565
Ru3 Si4 2.549220 1_665
Ru4 Si0 2.478888 1_555
Ru4 Si3 2.497845 1_555
Ru4 Si1 2.497845 1_655
Ru4 Si2 2.511939 1_555
Ru4 Si4 2.549220 1_655
Ru5 Si0 2.478888 1_555
Ru5 Si1 2.497845 1_555
Ru5 Si3 2.497845 1_556
Ru5 Si2 2.511939 1_555
Ru5 Si4 2.549220 1_556
Ru6 Si0 2.478888 1_555
Ru6 Si1 2.497845 1_555
Ru6 Si3 2.497845 1_555
Ru6 Si2 2.511939 1_565
Ru6 Si4 2.549220 1_565
Ru7 Si0 2.478888 1_555
Ru7 Si3 2.497845 1_555
Ru7 Si1 2.497845 1_555
Ru7 Si2 2.511939 1_555
Ru7 Si4 2.549220 1_555
