# generated using pymatgen
data_Al4W
_symmetry_space_group_name_H-M   'P 1'
_cell_length_a   5.19855572
_cell_length_b   5.23768427
_cell_length_c   9.22186640
_cell_angle_alpha   73.49442436
_cell_angle_beta   87.26225587
_cell_angle_gamma   80.30141943
_symmetry_Int_Tables_number   1
_chemical_formula_structural   Al4W
_chemical_formula_sum   'Al12 W3'
_cell_volume   237.30856286
_cell_formula_units_Z   3
loop_
 _symmetry_equiv_pos_site_id
 _symmetry_equiv_pos_as_xyz
  1  'x, y, z'
loop_
 _atom_site_type_symbol
 _atom_site_label
 _atom_site_symmetry_multiplicity
 _atom_site_fract_x
 _atom_site_fract_y
 _atom_site_fract_z
 _atom_site_occupancy
  Al  Al0  1  0.51398328  0.85319658  0.00002029  1
  Al  Al1  1  0.15230143  0.49561729  0.99990760  1
  Al  Al2  1  0.68925138  0.42101877  0.84614295  1
  Al  Al3  1  0.68923523  0.26735791  0.15387147  1
  Al  Al4  1  0.21587100  0.30307152  0.76361721  1
  Al  Al5  1  0.21573220  0.06697698  0.23641112  1
  Al  Al6  1  0.80635682  0.94896040  0.75092449  1
  Al  Al7  1  0.80618221  0.69997263  0.24918027  1
  Al  Al8  1  0.58036719  0.54249637  0.53172534  1
  Al  Al9  1  0.58045636  0.07427491  0.46829048  1
  Al  Al10  1  0.07156189  0.22706686  0.49958818  1
  Al  Al11  1  0.07167286  0.72666606  0.50032848  1
  W  W0  1  0.99317549  0.00956020  0.00011753  1
  W  W1  1  0.32999001  0.80679383  0.72698841  1
  W  W2  1  0.32985967  0.53396869  0.27288718  1
loop_
_geom_bond_atom_site_label_1
_geom_bond_atom_site_label_2
_geom_bond_distance
_geom_bond_site_symmetry_2
Al0 Al7 2.665683 1_555
Al0 Al6 2.665927 1_554
Al0 W0 2.693344 1_465
Al0 W0 2.750341 1_565
Al0 W2 2.821744 1_555
Al0 W1 2.823067 1_554
Al0 Al1 2.868923 1_554
Al0 Al4 2.979956 1_564
Al0 Al5 2.981465 1_565
Al0 Al3 2.994357 1_555
Al0 Al2 2.995756 1_554
Al1 Al4 2.634783 1_555
Al1 Al5 2.634935 1_556
Al1 W0 2.680114 1_466
Al1 W1 2.792559 1_555
Al1 W2 2.793090 1_556
Al1 W0 2.805723 1_456
Al1 Al2 2.985924 1_455
Al1 Al3 2.986450 1_456
Al1 Al2 3.086150 1_555
Al1 Al3 3.086454 1_556
Al1 Al6 3.162623 1_455
Al1 Al7 3.165684 1_456
Al2 W1 2.537949 1_555
Al2 W0 2.546606 1_556
Al2 Al3 2.720891 1_556
Al2 Al6 2.815027 1_555
Al2 Al6 2.816080 1_545
Al2 Al4 2.820266 1_655
Al2 Al4 2.824023 1_555
Al2 Al8 2.849490 1_555
Al3 W2 2.537893 1_555
Al3 W0 2.546610 1_555
Al3 Al7 2.814826 1_555
Al3 Al7 2.816339 1_545
Al3 Al5 2.819472 1_655
Al3 Al5 2.824457 1_555
Al3 Al9 2.849501 1_555
Al4 W0 2.629364 1_456
Al4 W1 2.680083 1_545
Al4 W1 2.725566 1_555
Al4 Al8 2.936983 1_555
Al4 Al6 3.076258 1_445
Al5 W0 2.628268 1_455
Al5 W2 2.680728 1_545
Al5 W2 2.724586 1_555
Al5 Al9 2.937207 1_555
Al5 Al7 3.077045 1_445
Al6 W0 2.656386 1_566
Al6 W1 2.714086 1_655
Al6 W1 2.739116 1_555
Al6 Al9 2.768381 1_565
Al7 W0 2.655421 1_565
Al7 W2 2.714108 1_655
Al7 W2 2.738791 1_555
Al7 Al8 2.767736 1_555
Al8 Al9 2.677914 1_555
Al8 Al9 2.678548 1_565
Al8 W1 2.727337 1_555
Al8 W2 2.787953 1_555
Al9 W2 2.728287 1_555
Al9 W1 2.787168 1_545
Al10 Al11 2.618788 1_555
Al10 Al11 2.618913 1_545
Al10 Al9 2.658473 1_555
Al10 W2 2.703173 1_555
Al10 Al4 2.734154 1_555
Al10 W1 2.774490 1_545
Al10 Al6 2.801370 1_445
Al10 Al5 2.815294 1_555
Al10 Al8 2.849953 1_455
Al10 Al9 2.851629 1_455
Al10 Al7 3.045308 1_455
Al11 Al8 2.657545 1_555
Al11 W1 2.702775 1_555
Al11 Al5 2.733500 1_565
Al11 W2 2.774328 1_555
Al11 Al7 2.800517 1_455
Al11 Al4 2.816411 1_555
Al11 Al9 2.850089 1_465
Al11 Al8 2.852790 1_455
Al11 Al6 3.046612 1_455
