# generated using pymatgen
data_Ag(Mo3S4)2
_symmetry_space_group_name_H-M   'P 1'
_cell_length_a   6.53651744
_cell_length_b   6.53651744
_cell_length_c   6.53651711
_cell_angle_alpha   92.07234075
_cell_angle_beta   92.07234075
_cell_angle_gamma   92.07234869
_symmetry_Int_Tables_number   1
_chemical_formula_structural   Ag(Mo3S4)2
_chemical_formula_sum   'Ag1 Mo6 S8'
_cell_volume   278.71805632
_cell_formula_units_Z   1
loop_
 _symmetry_equiv_pos_site_id
 _symmetry_equiv_pos_as_xyz
  1  'x, y, z'
loop_
 _atom_site_type_symbol
 _atom_site_label
 _atom_site_symmetry_multiplicity
 _atom_site_fract_x
 _atom_site_fract_y
 _atom_site_fract_z
 _atom_site_occupancy
  Ag  Ag0  1  0.00000000  0.00000000  0.00000000  1
  Mo  Mo0  1  0.21567300  0.55329200  0.40739800  1
  Mo  Mo1  1  0.55329200  0.40739800  0.21567300  1
  Mo  Mo2  1  0.40739800  0.21567300  0.55329200  1
  Mo  Mo3  1  0.59260200  0.78432700  0.44670800  1
  Mo  Mo4  1  0.44670800  0.59260200  0.78432700  1
  Mo  Mo5  1  0.78432700  0.44670800  0.59260200  1
  S  S0  1  0.38333000  0.72922200  0.13299600  1
  S  S1  1  0.13299600  0.38333000  0.72922200  1
  S  S2  1  0.72922200  0.13299600  0.38333000  1
  S  S3  1  0.27077800  0.86700400  0.61667000  1
  S  S4  1  0.77623200  0.77623200  0.77623200  1
  S  S5  1  0.86700400  0.61667000  0.27077800  1
  S  S6  1  0.61667000  0.27077800  0.86700400  1
  S  S7  1  0.22376800  0.22376800  0.22376800  1
loop_
_geom_bond_atom_site_label_1
_geom_bond_atom_site_label_2
_geom_bond_distance
_geom_bond_site_symmetry_2
Ag0 S7 2.440077 1_555
Ag0 S4 2.440077 1_444
Mo0 S7 2.430809 1_555
Mo0 S3 2.431850 1_555
Mo0 S0 2.437359 1_555
Mo0 S5 2.472076 1_455
Mo0 S1 2.481787 1_555
Mo1 S7 2.430809 1_555
Mo1 S5 2.431850 1_555
Mo1 S2 2.437360 1_555
Mo1 S6 2.472076 1_554
Mo1 S0 2.481788 1_555
Mo2 S7 2.430809 1_555
Mo2 S6 2.431850 1_555
Mo2 S1 2.437360 1_555
Mo2 S3 2.472076 1_545
Mo2 S2 2.481787 1_555
Mo3 S4 2.430809 1_555
Mo3 S0 2.431850 1_555
Mo3 S5 2.437360 1_555
Mo3 S2 2.472076 1_565
Mo3 S3 2.481787 1_555
Mo4 S4 2.430809 1_555
Mo4 S1 2.431850 1_555
Mo4 S3 2.437360 1_555
Mo4 S0 2.472076 1_556
Mo4 S6 2.481788 1_555
Mo5 S4 2.430809 1_555
Mo5 S2 2.431850 1_555
Mo5 S6 2.437359 1_555
Mo5 S1 2.472076 1_655
Mo5 S5 2.481787 1_555
