# generated using pymatgen
data_K2TaAuSe4
_symmetry_space_group_name_H-M   'P 1'
_cell_length_a   13.77293239
_cell_length_b   12.30569674
_cell_length_c   7.48652591
_cell_angle_alpha   84.46106320
_cell_angle_beta   62.78514661
_cell_angle_gamma   32.75378430
_symmetry_Int_Tables_number   1
_chemical_formula_structural   K2TaAuSe4
_chemical_formula_sum   'K4 Ta2 Au2 Se8'
_cell_volume   488.95549669
_cell_formula_units_Z   2
loop_
 _symmetry_equiv_pos_site_id
 _symmetry_equiv_pos_as_xyz
  1  'x, y, z'
loop_
 _atom_site_type_symbol
 _atom_site_label
 _atom_site_symmetry_multiplicity
 _atom_site_fract_x
 _atom_site_fract_y
 _atom_site_fract_z
 _atom_site_occupancy
  K  K0  1  0.43139642  0.43139642  0.06860358  1
  K  K1  1  0.81860358  0.81860358  0.18139642  1
  K  K2  1  0.06860358  0.06860358  0.43139642  1
  K  K3  1  0.18139642  0.18139642  0.81860358  1
  Ta  Ta0  1  0.00000000  0.00000000  0.00000000  1
  Ta  Ta1  1  0.25000000  0.25000000  0.25000000  1
  Au  Au0  1  0.50000000  0.50000000  0.50000000  1
  Au  Au1  1  0.75000000  0.75000000  0.75000000  1
  Se  Se0  1  0.73262688  0.38653779  0.05625077  1
  Se  Se1  1  0.82458457  0.05625077  0.38653779  1
  Se  Se2  1  0.05625077  0.82458457  0.73262688  1
  Se  Se3  1  0.38653779  0.73262688  0.82458457  1
  Se  Se4  1  0.51737312  0.86346221  0.19374923  1
  Se  Se5  1  0.86346221  0.51737312  0.42541543  1
  Se  Se6  1  0.19374923  0.42541543  0.51737312  1
  Se  Se7  1  0.42541543  0.19374923  0.86346221  1
loop_
_geom_bond_atom_site_label_1
_geom_bond_atom_site_label_2
_geom_bond_distance
_geom_bond_site_symmetry_2
K0 Se2 3.447532 1_644
K0 Se1 3.447532 1_465
K0 Se6 3.507932 1_555
K0 Se7 3.507932 1_554
K0 Se3 3.651409 1_554
K0 Se0 3.651409 1_555
K0 Se1 3.731010 1_554
K0 Se2 3.731010 1_555
K1 Se6 3.447532 1_565
K1 Se7 3.447532 1_654
K1 Se2 3.507932 1_654
K1 Se1 3.507932 1_565
K1 Se5 3.651409 1_555
K1 Se4 3.651409 1_555
K1 Se7 3.731010 1_565
K1 Se6 3.731010 1_654
K2 Se0 3.447532 1_456
K2 Se3 3.447532 1_544
K2 Se4 3.507932 1_545
K2 Se5 3.507932 1_455
K2 Se2 3.651409 1_545
K2 Se1 3.651409 1_455
K2 Se3 3.731010 1_455
K2 Se0 3.731010 1_545
K3 Se4 3.447532 1_545
K3 Se5 3.447532 1_456
K3 Se0 3.507932 1_456
K3 Se3 3.507932 1_545
K3 Se6 3.651409 1_555
K3 Se7 3.651409 1_555
K3 Se5 3.731010 1_545
K3 Se4 3.731010 1_456
Au0 Se2 2.624280 1_555
Au0 Se0 2.624280 1_555
Au0 Se1 2.624280 1_555
Au0 Se3 2.624280 1_555
Au0 Ta0 2.981994 1_566
Au0 Ta0 2.981994 1_655
Au1 Se6 2.624280 1_655
Au1 Se4 2.624280 1_556
Au1 Se7 2.624280 1_565
Au1 Se5 2.624280 1_555
Au1 Ta1 2.981994 1_566
Au1 Ta1 2.981994 1_655
Se0 Ta0 2.422677 1_655
Se1 Ta0 2.422677 1_655
Se2 Ta0 2.422677 1_566
Se3 Ta0 2.422677 1_566
Se4 Ta1 2.422677 1_565
Se5 Ta1 2.422677 1_655
Se6 Ta1 2.422677 1_555
Se7 Ta1 2.422677 1_556
