# generated using pymatgen
data_Cs2Ca(IBr)2
_symmetry_space_group_name_H-M   'P 1'
_cell_length_a   10.49522286
_cell_length_b   10.49522245
_cell_length_c   10.49522156
_cell_angle_alpha   148.45126020
_cell_angle_beta   148.45125600
_cell_angle_gamma   45.21965695
_symmetry_Int_Tables_number   1
_chemical_formula_structural   Cs2Ca(IBr)2
_chemical_formula_sum   'Cs2 Ca1 I2 Br2'
_cell_volume   315.47326671
_cell_formula_units_Z   1
loop_
 _symmetry_equiv_pos_site_id
 _symmetry_equiv_pos_as_xyz
  1  'x, y, z'
loop_
 _atom_site_type_symbol
 _atom_site_label
 _atom_site_symmetry_multiplicity
 _atom_site_fract_x
 _atom_site_fract_y
 _atom_site_fract_z
 _atom_site_occupancy
  Cs  Cs0  1  0.36373535  0.36373535  0.00000000  1
  Cs  Cs1  1  0.63626465  0.63626465  1.00000000  1
  Ca  Ca0  1  0.00000000  0.00000000  0.00000000  1
  I  I0  1  0.16221442  0.16221442  0.00000000  1
  I  I1  1  0.83778558  0.83778558  1.00000000  1
  Br  Br0  1  0.50000000  0.00000000  0.50000000  1
  Br  Br1  1  0.00000000  0.50000000  0.50000000  1
loop_
_geom_bond_atom_site_label_1
_geom_bond_atom_site_label_2
_geom_bond_distance
_geom_bond_site_symmetry_2
Cs0 I0 3.904913 1_555
Cs0 I1 4.066137 1_555
Cs0 I1 4.066138 1_443
Cs0 I1 4.066138 1_544
Cs0 I1 4.066138 1_454
Cs1 I1 3.904913 1_555
Cs1 I0 4.066137 1_555
Cs1 I0 4.066138 1_667
Cs1 I0 4.066138 1_566
Cs1 I0 4.066138 1_656
Ca0 I0 3.143263 1_555
Ca0 I1 3.143263 1_444
Br0 Ca0 2.853124 1_656
Br0 Ca0 2.853124 1_555
Br0 Cs1 3.887438 1_544
Br0 Cs0 3.887438 1_556
Br0 Cs1 3.887439 1_555
Br0 Cs0 3.887439 1_545
Br1 Ca0 2.853124 1_555
Br1 Ca0 2.853124 1_566
Br1 Cs1 3.887439 1_454
Br1 Cs0 3.887439 1_556
Br1 Cs1 3.887439 1_555
Br1 Cs0 3.887439 1_455
