# generated using pymatgen
data_Li2Zn3(BRh2)4
_symmetry_space_group_name_H-M   'P 1'
_cell_length_a   9.36326566
_cell_length_b   9.36326671
_cell_length_c   2.86258277
_cell_angle_alpha   90.00000000
_cell_angle_beta   90.00000000
_cell_angle_gamma   126.91137630
_symmetry_Int_Tables_number   1
_chemical_formula_structural   Li2Zn3(BRh2)4
_chemical_formula_sum   'Li2 Zn3 B4 Rh8'
_cell_volume   200.66276845
_cell_formula_units_Z   1
loop_
 _symmetry_equiv_pos_site_id
 _symmetry_equiv_pos_as_xyz
  1  'x, y, z'
loop_
 _atom_site_type_symbol
 _atom_site_label
 _atom_site_symmetry_multiplicity
 _atom_site_fract_x
 _atom_site_fract_y
 _atom_site_fract_z
 _atom_site_occupancy
  Li  Li0  1  0.20618878  0.79381122  0.50000000  1
  Li  Li1  1  0.79381122  0.20618878  0.50000000  1
  Zn  Zn0  1  0.35414736  0.35414736  0.50000000  1
  Zn  Zn1  1  0.00000000  0.00000000  0.50000000  1
  Zn  Zn2  1  0.64585264  0.64585264  0.50000000  1
  B  B0  1  0.46075561  0.14655105  0.50000000  1
  B  B1  1  0.14655105  0.46075561  0.50000000  1
  B  B2  1  0.53924439  0.85344895  0.50000000  1
  B  B3  1  0.85344895  0.53924439  0.50000000  1
  Rh  Rh0  1  0.62917935  0.37082065  0.00000000  1
  Rh  Rh1  1  0.37082065  0.62917935  0.00000000  1
  Rh  Rh2  1  0.91817394  0.73420062  0.00000000  1
  Rh  Rh3  1  0.08182606  0.26579938  0.00000000  1
  Rh  Rh4  1  0.50000000  0.00000000  0.00000000  1
  Rh  Rh5  1  0.26579938  0.08182606  0.00000000  1
  Rh  Rh6  1  0.73420062  0.91817394  0.00000000  1
  Rh  Rh7  1  0.00000000  0.50000000  0.00000000  1
loop_
_geom_bond_atom_site_label_1
_geom_bond_atom_site_label_2
_geom_bond_distance
_geom_bond_site_symmetry_2
Li0 Rh4 2.639028 1_565
Li0 Rh4 2.639028 1_566
Li0 Rh7 2.639028 1_556
Li0 Rh7 2.639028 1_555
Li0 Rh2 2.797259 1_455
Li0 Rh2 2.797259 1_456
Li0 Rh5 2.797260 1_565
Li0 Rh5 2.797260 1_566
Li1 Rh4 2.639028 1_555
Li1 Rh4 2.639028 1_556
Li1 Rh7 2.639028 1_655
Li1 Rh7 2.639028 1_656
Li1 Rh3 2.797259 1_655
Li1 Rh3 2.797259 1_656
Li1 Rh6 2.797260 1_545
Li1 Rh6 2.797260 1_546
Zn0 Zn2 2.441193 1_555
B0 Rh5 2.102200 1_556
B0 Rh5 2.102200 1_555
B0 Rh4 2.161525 1_556
B0 Rh4 2.161525 1_555
B0 Rh0 2.228768 1_556
B0 Rh0 2.228768 1_555
B0 Zn0 2.665572 1_555
B0 Li0 2.670922 1_545
B0 Li1 2.818708 1_555
B1 Rh3 2.102201 1_555
B1 Rh3 2.102201 1_556
B1 Rh7 2.161525 1_556
B1 Rh7 2.161525 1_555
B1 Rh1 2.228768 1_555
B1 Rh1 2.228768 1_556
B1 Zn0 2.665572 1_555
B1 Li1 2.670922 1_455
B1 Li0 2.818708 1_555
B2 Rh6 2.102200 1_556
B2 Rh6 2.102200 1_555
B2 Rh4 2.161525 1_565
B2 Rh4 2.161525 1_566
B2 Rh1 2.228768 1_555
B2 Rh1 2.228768 1_556
B2 Zn2 2.665572 1_555
B2 Li1 2.670922 1_565
B2 Li0 2.818708 1_555
B3 Rh2 2.102201 1_556
B3 Rh2 2.102201 1_555
B3 Rh7 2.161525 1_656
B3 Rh7 2.161525 1_655
B3 Rh0 2.228768 1_556
B3 Rh0 2.228768 1_555
B3 Zn2 2.665572 1_555
B3 Li0 2.670922 1_655
B3 Li1 2.818708 1_555
Rh0 Zn0 2.867352 1_554
Rh0 Zn0 2.867352 1_555
Rh0 Zn2 2.867352 1_555
Rh0 Zn2 2.867352 1_554
Rh1 Zn2 2.867352 1_555
Rh1 Zn2 2.867352 1_554
Rh1 Zn0 2.867352 1_555
Rh1 Zn0 2.867352 1_554
Rh2 Zn1 2.557172 1_664
Rh2 Zn1 2.557172 1_665
Rh2 Zn2 2.588608 1_555
Rh2 Zn2 2.588608 1_554
Rh3 Zn1 2.557172 1_555
Rh3 Zn1 2.557172 1_554
Rh3 Zn0 2.588608 1_555
Rh3 Zn0 2.588608 1_554
Rh5 Zn1 2.557172 1_554
Rh5 Zn1 2.557172 1_555
Rh5 Zn0 2.588608 1_554
Rh5 Zn0 2.588608 1_555
Rh6 Zn1 2.557172 1_664
Rh6 Zn1 2.557172 1_665
Rh6 Zn2 2.588608 1_555
Rh6 Zn2 2.588608 1_554
