# generated using pymatgen
data_Na3Fe4AgBr16
_symmetry_space_group_name_H-M   'P 1'
_cell_length_a   7.08856027
_cell_length_b   7.72396447
_cell_length_c   14.12735616
_cell_angle_alpha   87.63568456
_cell_angle_beta   90.07042078
_cell_angle_gamma   89.63998155
_symmetry_Int_Tables_number   1
_chemical_formula_structural   Na3Fe4AgBr16
_chemical_formula_sum   'Na3 Fe4 Ag1 Br16'
_cell_volume   772.82342514
_cell_formula_units_Z   1
loop_
 _symmetry_equiv_pos_site_id
 _symmetry_equiv_pos_as_xyz
  1  'x, y, z'
loop_
 _atom_site_type_symbol
 _atom_site_label
 _atom_site_symmetry_multiplicity
 _atom_site_fract_x
 _atom_site_fract_y
 _atom_site_fract_z
 _atom_site_occupancy
  Na  Na0  1  0.48836924  0.84061587  0.86740120  1
  Na  Na1  1  0.49989908  0.15376720  0.13168586  1
  Na  Na2  1  0.99424260  0.15734852  0.63286797  1
  Fe  Fe0  1  0.18436892  0.71494902  0.59493763  1
  Fe  Fe1  1  0.82186348  0.28869318  0.39891686  1
  Fe  Fe2  1  0.68676812  0.28560686  0.89937877  1
  Fe  Fe3  1  0.30831961  0.71248498  0.10448673  1
  Ag  Ag0  1  0.00520032  0.84163780  0.37139093  1
  Br  Br0  1  0.20299911  0.46149798  0.68938992  1
  Br  Br1  1  0.81130294  0.55008311  0.30967165  1
  Br  Br2  1  0.70179558  0.53947901  0.80540492  1
  Br  Br3  1  0.30283779  0.45663351  0.19710676  1
  Br  Br4  1  0.33375792  0.93977910  0.67667799  1
  Br  Br5  1  0.68146566  0.05900792  0.31688258  1
  Br  Br6  1  0.83126257  0.05519042  0.81903471  1
  Br  Br7  1  0.16277886  0.93625477  0.18939999  1
  Br  Br8  1  0.15692390  0.68919257  0.95906564  1
  Br  Br9  1  0.83412530  0.31132399  0.04548626  1
  Br  Br10  1  0.66581221  0.31604239  0.54287261  1
  Br  Br11  1  0.33043449  0.68834576  0.44782636  1
  Br  Br12  1  0.86712911  0.80386241  0.56905934  1
  Br  Br13  1  0.13553800  0.19715338  0.43101033  1
  Br  Br14  1  0.37064234  0.20039344  0.92773612  1
  Br  Br15  1  0.62216384  0.80065784  0.07230888  1
loop_
_geom_bond_atom_site_label_1
_geom_bond_atom_site_label_2
_geom_bond_distance
_geom_bond_site_symmetry_2
Ag0 Br11 2.781563 1_555
Ag0 Br1 2.814011 1_455
Ag0 Br7 2.873045 1_555
Ag0 Br5 2.918668 1_465
Ag0 Br12 2.963841 1_455
Ag0 Br13 3.053566 1_565
Br0 Fe0 2.326184 1_555
Br0 Na2 2.922645 1_455
Br1 Fe1 2.336512 1_555
Br2 Fe2 2.325335 1_555
Br2 Na0 2.931413 1_555
Br3 Fe3 2.325227 1_555
Br3 Na1 2.901451 1_555
Br4 Fe0 2.378267 1_555
Br4 Na2 2.976394 1_465
Br4 Na0 2.976508 1_555
Br5 Fe1 2.381160 1_555
Br5 Na1 2.976460 1_555
Br6 Fe2 2.377287 1_555
Br6 Na2 2.953330 1_555
Br6 Na0 3.013791 1_545
Br7 Fe3 2.375379 1_555
Br7 Na1 3.023287 1_565
Br8 Fe3 2.330709 1_556
Br8 Na0 2.912380 1_555
Br9 Fe2 2.328570 1_554
Br9 Na1 2.915141 1_555
Br10 Fe1 2.332871 1_555
Br10 Na2 2.892616 1_555
Br11 Fe0 2.339106 1_555
Br12 Fe0 2.370683 1_655
Br12 Na2 3.051410 1_565
Br13 Fe1 2.366592 1_455
Br13 Na2 3.027956 1_455
Br14 Fe2 2.369433 1_555
Br14 Na1 3.028972 1_556
Br14 Na0 3.051774 1_545
Br15 Fe3 2.369760 1_555
Br15 Na1 3.009047 1_565
Br15 Na0 3.048030 1_554
