# generated using pymatgen
data_Rb2LiCrH6
_symmetry_space_group_name_H-M   'P 1'
_cell_length_a   9.93641191
_cell_length_b   9.93641174
_cell_length_c   9.93641194
_cell_angle_alpha   34.30160856
_cell_angle_beta   34.30161239
_cell_angle_gamma   34.30160723
_symmetry_Int_Tables_number   1
_chemical_formula_structural   Rb2LiCrH6
_chemical_formula_sum   'Rb4 Li2 Cr2 H12'
_cell_volume   277.86406783
_cell_formula_units_Z   2
loop_
 _symmetry_equiv_pos_site_id
 _symmetry_equiv_pos_as_xyz
  1  'x, y, z'
loop_
 _atom_site_type_symbol
 _atom_site_label
 _atom_site_symmetry_multiplicity
 _atom_site_fract_x
 _atom_site_fract_y
 _atom_site_fract_z
 _atom_site_occupancy
  Rb  Rb0  1  0.12747056  0.12747056  0.12747056  1
  Rb  Rb1  1  0.87252944  0.87252944  0.87252944  1
  Rb  Rb2  1  0.28463180  0.28463180  0.28463180  1
  Rb  Rb3  1  0.71536820  0.71536820  0.71536820  1
  Li  Li0  1  0.40773334  0.40773334  0.40773334  1
  Li  Li1  1  0.59226666  0.59226666  0.59226666  1
  Cr  Cr0  1  0.00000000  0.00000000  0.00000000  1
  Cr  Cr1  1  0.50000000  0.50000000  0.50000000  1
  H  H0  1  0.18054092  0.18054092  0.74561931  1
  H  H1  1  0.74561931  0.18054092  0.18054092  1
  H  H2  1  0.18054092  0.74561931  0.18054092  1
  H  H3  1  0.81945908  0.25438069  0.81945908  1
  H  H4  1  0.81945908  0.81945908  0.25438069  1
  H  H5  1  0.25438069  0.81945908  0.81945908  1
  H  H6  1  0.40467203  0.40467203  0.80669065  1
  H  H7  1  0.80669065  0.40467203  0.40467203  1
  H  H8  1  0.19330935  0.59532797  0.59532797  1
  H  H9  1  0.59532797  0.59532797  0.19330935  1
  H  H10  1  0.59532797  0.19330935  0.59532797  1
  H  H11  1  0.40467203  0.80669065  0.40467203  1
loop_
_geom_bond_atom_site_label_1
_geom_bond_atom_site_label_2
_geom_bond_distance
_geom_bond_site_symmetry_2
Cr0 H2 1.777393 1_545
Cr0 H3 1.777393 1_454
Cr0 H1 1.777393 1_455
Cr0 H5 1.777393 1_544
Cr0 H0 1.777393 1_554
Cr0 H4 1.777393 1_445
Cr1 H11 1.739351 1_555
Cr1 H10 1.739351 1_555
Cr1 H7 1.739351 1_555
Cr1 H8 1.739351 1_555
Cr1 H6 1.739351 1_555
Cr1 H9 1.739351 1_555
H0 Li0 2.199995 1_555
H0 Rb3 2.961358 1_455
H0 Rb3 2.961358 1_545
H0 Rb0 2.966554 1_556
H0 Rb2 3.038714 1_555
H1 Li0 2.199994 1_555
H1 Rb3 2.961358 1_554
H1 Rb3 2.961358 1_545
H1 Rb0 2.966554 1_655
H1 Rb2 3.038714 1_555
H2 Li0 2.199994 1_555
H2 Rb3 2.961358 1_554
H2 Rb3 2.961358 1_455
H2 Rb0 2.966554 1_565
H2 Rb2 3.038714 1_555
H3 Li1 2.199994 1_555
H3 Rb2 2.961358 1_556
H3 Rb2 2.961358 1_655
H3 Rb1 2.966554 1_545
H3 Rb3 3.038714 1_555
H4 Li1 2.199995 1_555
H4 Rb2 2.961358 1_655
H4 Rb2 2.961358 1_565
H4 Rb1 2.966554 1_554
H4 Rb3 3.038714 1_555
H5 Li1 2.199994 1_555
H5 Rb2 2.961358 1_556
H5 Rb2 2.961358 1_565
H5 Rb1 2.966554 1_455
H5 Rb3 3.038714 1_555
H6 Li1 2.026339 1_555
H6 Rb1 2.948855 1_545
H6 Rb1 2.948855 1_455
H6 Rb0 2.976139 1_556
H6 Rb2 3.005295 1_556
H7 Li1 2.026339 1_555
H7 Rb1 2.948855 1_545
H7 Rb1 2.948855 1_554
H7 Rb0 2.976139 1_655
H7 Rb2 3.005294 1_655
H8 Li0 2.026339 1_555
H8 Rb0 2.948855 1_565
H8 Rb0 2.948855 1_556
H8 Rb1 2.976139 1_455
H8 Rb3 3.005294 1_455
H9 Li0 2.026339 1_555
H9 Rb0 2.948855 1_565
H9 Rb0 2.948855 1_655
H9 Rb1 2.976139 1_554
H9 Rb3 3.005295 1_554
H10 Li0 2.026339 1_555
H10 Rb0 2.948856 1_655
H10 Rb0 2.948856 1_556
H10 Rb1 2.976139 1_545
H10 Rb3 3.005294 1_545
H11 Li1 2.026339 1_555
H11 Rb1 2.948856 1_455
H11 Rb1 2.948856 1_554
H11 Rb0 2.976139 1_565
H11 Rb2 3.005294 1_565
