# generated using pymatgen
data_Li2SbRh3S8
_symmetry_space_group_name_H-M   'P 1'
_cell_length_a   7.20577979
_cell_length_b   7.20578053
_cell_length_c   7.20578055
_cell_angle_alpha   59.54968029
_cell_angle_beta   59.54967699
_cell_angle_gamma   59.54967540
_symmetry_Int_Tables_number   1
_chemical_formula_structural   Li2SbRh3S8
_chemical_formula_sum   'Li2 Sb1 Rh3 S8'
_cell_volume   261.85364832
_cell_formula_units_Z   1
loop_
 _symmetry_equiv_pos_site_id
 _symmetry_equiv_pos_as_xyz
  1  'x, y, z'
loop_
 _atom_site_type_symbol
 _atom_site_label
 _atom_site_symmetry_multiplicity
 _atom_site_fract_x
 _atom_site_fract_y
 _atom_site_fract_z
 _atom_site_occupancy
  Li  Li0  1  0.37086643  0.37086643  0.37086643  1
  Li  Li1  1  0.62913357  0.62913357  0.62913357  1
  Sb  Sb0  1  0.00000000  0.00000000  0.00000000  1
  Rh  Rh0  1  0.50000000  0.00000000  0.00000000  1
  Rh  Rh1  1  0.00000000  0.00000000  0.50000000  1
  Rh  Rh2  1  0.00000000  0.50000000  0.00000000  1
  S  S0  1  0.23538832  0.23538832  0.23538832  1
  S  S1  1  0.78492955  0.24800821  0.24800821  1
  S  S2  1  0.24800821  0.24800821  0.78492955  1
  S  S3  1  0.24800821  0.78492955  0.24800821  1
  S  S4  1  0.76461168  0.76461168  0.76461168  1
  S  S5  1  0.21507045  0.75199179  0.75199179  1
  S  S6  1  0.75199179  0.75199179  0.21507045  1
  S  S7  1  0.75199179  0.21507045  0.75199179  1
loop_
_geom_bond_atom_site_label_1
_geom_bond_atom_site_label_2
_geom_bond_distance
_geom_bond_site_symmetry_2
Li0 S0 2.399360 1_555
Li0 S1 2.430941 1_555
Li0 S3 2.430941 1_555
Li0 S2 2.430942 1_555
Li1 S4 2.399360 1_555
Li1 S5 2.430941 1_555
Li1 S7 2.430941 1_555
Li1 S6 2.430942 1_555
Rh0 S6 2.376671 1_545
Rh0 S2 2.376671 1_554
Rh0 S7 2.376671 1_554
Rh0 S3 2.376671 1_545
Rh0 S0 2.397803 1_555
Rh0 S4 2.397803 1_544
Rh1 S7 2.376671 1_455
Rh1 S3 2.376671 1_545
Rh1 S5 2.376671 1_545
Rh1 S1 2.376671 1_455
Rh1 S0 2.397803 1_555
Rh1 S4 2.397803 1_445
Rh2 S6 2.376671 1_455
Rh2 S2 2.376671 1_554
Rh2 S5 2.376671 1_554
Rh2 S1 2.376671 1_455
Rh2 S0 2.397803 1_555
Rh2 S4 2.397803 1_454
S1 Sb0 2.532168 1_655
S2 Sb0 2.532168 1_556
S3 Sb0 2.532168 1_565
S5 Sb0 2.532168 1_566
S6 Sb0 2.532168 1_665
S7 Sb0 2.532168 1_656
