# generated using pymatgen
data_LiCa2InPb2
_symmetry_space_group_name_H-M   'P 1'
_cell_length_a   4.76096507
_cell_length_b   7.62074844
_cell_length_c   17.94241896
_cell_angle_alpha   90.00000000
_cell_angle_beta   90.00000000
_cell_angle_gamma   90.00000000
_symmetry_Int_Tables_number   1
_chemical_formula_structural   LiCa2InPb2
_chemical_formula_sum   'Li4 Ca8 In4 Pb8'
_cell_volume   650.98894659
_cell_formula_units_Z   4
loop_
 _symmetry_equiv_pos_site_id
 _symmetry_equiv_pos_as_xyz
  1  'x, y, z'
loop_
 _atom_site_type_symbol
 _atom_site_label
 _atom_site_symmetry_multiplicity
 _atom_site_fract_x
 _atom_site_fract_y
 _atom_site_fract_z
 _atom_site_occupancy
  Li  Li0  1  0.25000000  0.99611205  0.07121086  1
  Li  Li1  1  0.75000000  0.50388795  0.57121086  1
  Li  Li2  1  0.25000000  0.49611205  0.42878914  1
  Li  Li3  1  0.75000000  0.00388795  0.92878914  1
  Ca  Ca0  1  0.75000000  0.15785952  0.43773570  1
  Ca  Ca1  1  0.25000000  0.98820001  0.77647907  1
  Ca  Ca2  1  0.25000000  0.34214048  0.93773570  1
  Ca  Ca3  1  0.75000000  0.65785952  0.06226430  1
  Ca  Ca4  1  0.25000000  0.84214048  0.56226430  1
  Ca  Ca5  1  0.75000000  0.01179999  0.22352093  1
  Ca  Ca6  1  0.75000000  0.51179999  0.27647907  1
  Ca  Ca7  1  0.25000000  0.48820001  0.72352093  1
  In  In0  1  0.25000000  0.33826539  0.15327604  1
  In  In1  1  0.75000000  0.16173461  0.65327604  1
  In  In2  1  0.25000000  0.83826539  0.34672396  1
  In  In3  1  0.75000000  0.66173461  0.84672396  1
  Pb  Pb0  1  0.25000000  0.22871285  0.31604491  1
  Pb  Pb1  1  0.25000000  0.27962757  0.56023080  1
  Pb  Pb2  1  0.75000000  0.72037243  0.43976920  1
  Pb  Pb3  1  0.75000000  0.27128715  0.81604491  1
  Pb  Pb4  1  0.75000000  0.77128715  0.68395509  1
  Pb  Pb5  1  0.75000000  0.22037243  0.06023080  1
  Pb  Pb6  1  0.25000000  0.77962757  0.93976920  1
  Pb  Pb7  1  0.25000000  0.72871285  0.18395509  1
loop_
_geom_bond_atom_site_label_1
_geom_bond_atom_site_label_2
_geom_bond_distance
_geom_bond_site_symmetry_2
Li0 Pb7 2.871358 1_555
Li0 Pb6 2.878145 1_554
Li0 Pb5 2.937056 1_465
Li0 Pb5 2.937056 1_565
Li1 Pb4 2.871358 1_555
Li1 Pb2 2.878145 1_555
Li1 Pb1 2.937056 1_555
Li1 Pb1 2.937056 1_655
Li2 Pb0 2.871358 1_555
Li2 Pb1 2.878145 1_555
Li2 Pb2 2.937056 1_555
Li2 Pb2 2.937056 1_455
Li3 Pb3 2.871358 1_555
Li3 Pb5 2.878145 1_556
Li3 Pb6 2.937056 1_645
Li3 Pb6 2.937056 1_545
Ca0 Pb0 3.274997 1_555
Ca0 Pb0 3.274997 1_655
Ca0 Pb2 3.334179 1_545
Ca0 Pb1 3.370222 1_655
Ca0 Pb1 3.370222 1_555
Ca0 Li2 3.512434 1_655
Ca0 Li2 3.512434 1_555
Ca0 Li1 3.562181 1_555
Ca0 In2 3.776927 1_645
Ca0 In2 3.776927 1_545
Ca0 In1 3.867428 1_555
Ca0 Ca6 3.955599 1_555
Ca0 Ca5 4.001460 1_555
Ca0 Ca4 4.055601 1_645
Ca0 Ca4 4.055601 1_545
Ca1 Pb3 3.290101 1_565
Ca1 Pb3 3.290101 1_465
Ca1 Pb6 3.333209 1_555
Ca1 Pb4 3.339937 1_555
Ca1 Pb4 3.339937 1_455
Ca1 In1 3.507447 1_565
Ca1 In1 3.507447 1_465
Ca1 Li3 3.626189 1_465
Ca1 Li3 3.626189 1_565
Ca1 In3 3.666730 1_555
Ca1 In3 3.666730 1_455
Ca1 Ca7 3.927063 1_565
Ca1 Ca7 3.927063 1_555
Ca1 Ca2 3.955599 1_565
Ca1 Ca4 4.001460 1_555
Ca2 Pb3 3.274997 1_555
Ca2 Pb3 3.274997 1_455
Ca2 Pb6 3.334179 1_555
Ca2 Pb5 3.370222 1_456
Ca2 Pb5 3.370222 1_556
Ca2 Li3 3.512434 1_455
Ca2 Li3 3.512434 1_555
Ca2 Li0 3.562181 1_546
Ca2 In3 3.776927 1_455
Ca2 In3 3.776927 1_555
Ca2 In0 3.867428 1_556
Ca2 Ca7 4.001460 1_555
Ca2 Ca3 4.055601 1_556
Ca2 Ca3 4.055601 1_456
Ca3 Pb7 3.274997 1_555
Ca3 Pb7 3.274997 1_655
Ca3 Pb5 3.334179 1_555
Ca3 Pb6 3.370222 1_654
Ca3 Pb6 3.370222 1_554
Ca3 Li0 3.512434 1_555
Ca3 Li0 3.512434 1_655
Ca3 Li3 3.562181 1_564
Ca3 In0 3.776927 1_555
Ca3 In0 3.776927 1_655
Ca3 In3 3.867428 1_554
Ca3 Ca5 3.955599 1_565
Ca3 Ca6 4.001460 1_555
Ca4 Pb4 3.274997 1_455
Ca4 Pb4 3.274997 1_555
Ca4 Pb1 3.334179 1_565
Ca4 Pb2 3.370222 1_555
Ca4 Pb2 3.370222 1_455
Ca4 Li1 3.512434 1_555
Ca4 Li1 3.512434 1_455
Ca4 Li2 3.562181 1_555
Ca4 In1 3.776927 1_465
Ca4 In1 3.776927 1_565
Ca4 In2 3.867428 1_555
Ca4 Ca7 3.955599 1_555
Ca5 Pb7 3.290101 1_545
Ca5 Pb7 3.290101 1_645
Ca5 Pb5 3.333209 1_555
Ca5 Pb0 3.339937 1_555
Ca5 Pb0 3.339937 1_655
Ca5 In2 3.507447 1_545
Ca5 In2 3.507447 1_645
Ca5 Li0 3.626189 1_645
Ca5 Li0 3.626189 1_545
Ca5 In0 3.666730 1_555
Ca5 In0 3.666730 1_655
Ca5 Ca6 3.927063 1_555
Ca5 Ca6 3.927063 1_545
Ca6 Pb0 3.290101 1_655
Ca6 Pb0 3.290101 1_555
Ca6 Pb2 3.333209 1_555
Ca6 Pb7 3.339937 1_555
Ca6 Pb7 3.339937 1_655
Ca6 In0 3.507447 1_655
Ca6 In0 3.507447 1_555
Ca6 Li2 3.626189 1_655
Ca6 Li2 3.626189 1_555
Ca6 In2 3.666730 1_655
Ca6 In2 3.666730 1_555
Ca7 Pb4 3.290101 1_455
Ca7 Pb4 3.290101 1_555
Ca7 Pb1 3.333209 1_555
Ca7 Pb3 3.339937 1_555
Ca7 Pb3 3.339937 1_455
Ca7 In3 3.507447 1_455
Ca7 In3 3.507447 1_555
Ca7 Li1 3.626189 1_555
Ca7 Li1 3.626189 1_455
Ca7 In1 3.666730 1_455
Ca7 In1 3.666730 1_555
In0 Li0 2.994491 1_545
In0 Pb7 3.025990 1_555
In0 Pb0 3.037456 1_555
In0 Pb5 3.043183 1_455
In0 Pb5 3.043183 1_555
In1 Li1 2.994491 1_555
In1 Pb4 3.025990 1_545
In1 Pb3 3.037456 1_555
In1 Pb1 3.043183 1_655
In1 Pb1 3.043183 1_555
In2 Li2 2.994491 1_555
In2 Pb0 3.025990 1_565
In2 Pb7 3.037456 1_555
In2 Pb2 3.043183 1_555
In2 Pb2 3.043183 1_455
In3 Li3 2.994491 1_565
In3 Pb3 3.025990 1_555
In3 Pb4 3.037456 1_555
In3 Pb6 3.043183 1_555
In3 Pb6 3.043183 1_655
