# generated using pymatgen
data_K3SiS3
_symmetry_space_group_name_H-M   'P 1'
_cell_length_a   7.51972669
_cell_length_b   7.51972780
_cell_length_c   8.09666655
_cell_angle_alpha   75.14544673
_cell_angle_beta   75.14544834
_cell_angle_gamma   109.93401265
_symmetry_Int_Tables_number   1
_chemical_formula_structural   K3SiS3
_chemical_formula_sum   'K6 Si2 S6'
_cell_volume   385.09983432
_cell_formula_units_Z   2
loop_
 _symmetry_equiv_pos_site_id
 _symmetry_equiv_pos_as_xyz
  1  'x, y, z'
loop_
 _atom_site_type_symbol
 _atom_site_label
 _atom_site_symmetry_multiplicity
 _atom_site_fract_x
 _atom_site_fract_y
 _atom_site_fract_z
 _atom_site_occupancy
  K  K0  1  0.78065056  0.78065056  0.68681938  1
  K  K1  1  0.21934944  0.21934944  0.31318062  1
  K  K2  1  0.50000000  0.00000000  0.00000000  1
  K  K3  1  0.00000000  0.50000000  0.00000000  1
  K  K4  1  0.33092218  0.66907782  0.50000000  1
  K  K5  1  0.66907782  0.33092218  0.50000000  1
  Si  Si0  1  0.11531919  0.11531919  0.84733661  1
  Si  Si1  1  0.88468081  0.88468081  0.15266339  1
  S  S0  1  0.04747385  0.76278003  0.29350502  1
  S  S1  1  0.23721997  0.95252615  0.70649498  1
  S  S2  1  0.35880090  0.35880090  0.85928138  1
  S  S3  1  0.64119910  0.64119910  0.14071862  1
  S  S4  1  0.95252615  0.23721997  0.70649498  1
  S  S5  1  0.76278003  0.04747385  0.29350502  1
loop_
_geom_bond_atom_site_label_1
_geom_bond_atom_site_label_2
_geom_bond_distance
_geom_bond_site_symmetry_2
K0 S2 3.266733 1_555
K0 S1 3.292946 1_655
K0 S4 3.292947 1_565
K0 S3 3.317176 1_556
K0 S0 3.363369 1_655
K0 S5 3.363369 1_565
K1 S3 3.266733 1_555
K1 S5 3.292946 1_455
K1 S0 3.292947 1_545
K1 S2 3.317176 1_554
K1 S4 3.363369 1_455
K1 S1 3.363369 1_545
K2 S4 3.154368 1_554
K2 S0 3.154368 1_545
K2 S3 3.271494 1_545
K2 S2 3.271494 1_554
K2 S5 3.470040 1_555
K2 S1 3.470040 1_544
K3 S1 3.154368 1_554
K3 S5 3.154368 1_455
K3 S3 3.271494 1_455
K3 S2 3.271494 1_554
K3 S0 3.470041 1_555
K3 S4 3.470041 1_454
K4 S5 3.148626 1_565
K4 S4 3.148626 1_455
K4 S0 3.175237 1_555
K4 S1 3.175237 1_555
K4 S3 3.334084 1_555
K4 S2 3.334084 1_555
K5 S1 3.148626 1_545
K5 S0 3.148626 1_655
K5 S4 3.175237 1_555
K5 S5 3.175237 1_555
K5 S2 3.334084 1_555
K5 S3 3.334084 1_555
S0 Si1 2.141069 1_455
S1 Si0 2.141069 1_565
S2 Si0 2.147003 1_555
S3 Si1 2.147003 1_555
S4 Si0 2.141069 1_655
S5 Si1 2.141069 1_545
