# generated using pymatgen
data_Hf4Zr2BI12
_symmetry_space_group_name_H-M   'P 1'
_cell_length_a   9.15342229
_cell_length_b   9.20743083
_cell_length_c   9.25576324
_cell_angle_alpha   107.09018995
_cell_angle_beta   106.75385616
_cell_angle_gamma   106.91127092
_symmetry_Int_Tables_number   1
_chemical_formula_structural   Hf4Zr2BI12
_chemical_formula_sum   'Hf4 Zr2 B1 I12'
_cell_volume   651.08634060
_cell_formula_units_Z   1
loop_
 _symmetry_equiv_pos_site_id
 _symmetry_equiv_pos_as_xyz
  1  'x, y, z'
loop_
 _atom_site_type_symbol
 _atom_site_label
 _atom_site_symmetry_multiplicity
 _atom_site_fract_x
 _atom_site_fract_y
 _atom_site_fract_z
 _atom_site_occupancy
  Hf  Hf0  1  0.97284186  0.73116734  0.91217086  1
  Hf  Hf1  1  0.27201882  0.08971738  0.02773905  1
  Hf  Hf2  1  0.08619075  0.02736202  0.26582968  1
  Hf  Hf3  1  0.91229432  0.97365243  0.73302045  1
  Zr  Zr0  1  0.72766992  0.91222917  0.97339238  1
  Zr  Zr1  1  0.02506229  0.27090476  0.08798204  1
  B  B0  1  0.00251538  0.99923125  0.99892235  1
  I  I0  1  0.92124756  0.30334834  0.77159546  1
  I  I1  1  0.68667762  0.22670792  0.07783871  1
  I  I2  1  0.43962376  0.14077281  0.36468985  1
  I  I3  1  0.86092867  0.63477006  0.56258420  1
  I  I4  1  0.22600335  0.07708181  0.69728212  1
  I  I5  1  0.63445466  0.55623566  0.85738336  1
  I  I6  1  0.37027877  0.44095613  0.14106644  1
  I  I7  1  0.77763971  0.92197380  0.30939398  1
  I  I8  1  0.14141661  0.36468162  0.44228423  1
  I  I9  1  0.55883353  0.85868469  0.63130730  1
  I  I10  1  0.30652844  0.77531791  0.92305712  1
  I  I11  1  0.07777400  0.69520491  0.22246140  1
loop_
_geom_bond_atom_site_label_1
_geom_bond_atom_site_label_2
_geom_bond_distance
_geom_bond_site_symmetry_2
Hf0 I5 2.856092 1_555
Hf0 I3 2.859891 1_555
Hf0 I11 2.904145 1_656
Hf0 I10 2.929290 1_655
Hf0 I0 3.603281 1_555
Hf1 I6 2.852728 1_555
Hf1 I2 2.874270 1_555
Hf1 I10 2.911770 1_544
Hf1 I4 2.926736 1_554
Hf1 I1 3.473967 1_555
Hf2 I2 2.856588 1_555
Hf2 I8 2.863293 1_555
Hf2 I7 2.893604 1_445
Hf2 I11 2.940050 1_545
Hf2 I4 3.665112 1_555
Hf3 I9 2.853111 1_555
Hf3 I3 2.875992 1_555
Hf3 I4 2.898919 1_665
Hf3 I0 2.924164 1_565
Hf3 I7 3.591062 1_555
B0 Hf0 2.264914 1_455
B0 Hf1 2.268282 1_566
B0 Hf3 2.273544 1_455
B0 Hf2 2.274727 1_566
B0 Zr1 2.317072 1_566
B0 Zr0 2.323839 1_455
I0 Zr1 2.939854 1_656
I1 Zr0 2.942020 1_544
I1 Zr1 2.974013 1_655
I5 Zr0 2.898439 1_555
I6 Zr1 2.907287 1_555
I7 Zr0 2.980116 1_554
I8 Zr1 2.901910 1_555
I9 Zr0 2.911153 1_555
I10 Zr0 3.529670 1_555
I11 Zr1 3.569813 1_555
