# generated using pymatgen
data_Ho2Zn17
_symmetry_space_group_name_H-M   'P 1'
_cell_length_a   6.68278649
_cell_length_b   6.68278569
_cell_length_c   6.68278552
_cell_angle_alpha   82.90004732
_cell_angle_beta   82.90003958
_cell_angle_gamma   82.90004711
_symmetry_Int_Tables_number   1
_chemical_formula_structural   Ho2Zn17
_chemical_formula_sum   'Ho2 Zn17'
_cell_volume   292.10766912
_cell_formula_units_Z   1
loop_
 _symmetry_equiv_pos_site_id
 _symmetry_equiv_pos_as_xyz
  1  'x, y, z'
loop_
 _atom_site_type_symbol
 _atom_site_label
 _atom_site_symmetry_multiplicity
 _atom_site_fract_x
 _atom_site_fract_y
 _atom_site_fract_z
 _atom_site_occupancy
  Ho  Ho0  1  0.66439962  0.66439962  0.66439962  1
  Ho  Ho1  1  0.33560038  0.33560038  0.33560038  1
  Zn  Zn0  1  0.35112810  0.35112810  0.83865235  1
  Zn  Zn1  1  0.35112810  0.83865235  0.35112810  1
  Zn  Zn2  1  0.09972864  0.09972864  0.09972864  1
  Zn  Zn3  1  0.90027136  0.90027136  0.90027136  1
  Zn  Zn4  1  -0.00000000  0.00000000  0.50000000  1
  Zn  Zn5  1  0.50000000  0.00000000  -0.00000000  1
  Zn  Zn6  1  -0.00000000  0.50000000  -0.00000000  1
  Zn  Zn7  1  0.70322872  0.29677128  0.00000000  1
  Zn  Zn8  1  -0.00000000  0.70322872  0.29677128  1
  Zn  Zn9  1  0.29677128  -0.00000000  0.70322872  1
  Zn  Zn10  1  0.29677128  0.70322872  -0.00000000  1
  Zn  Zn11  1  0.00000000  0.29677128  0.70322872  1
  Zn  Zn12  1  0.70322872  0.00000000  0.29677128  1
  Zn  Zn13  1  0.64887190  0.16134765  0.64887190  1
  Zn  Zn14  1  0.64887190  0.64887190  0.16134765  1
  Zn  Zn15  1  0.16134765  0.64887190  0.64887190  1
  Zn  Zn16  1  0.83865235  0.35112810  0.35112810  1
loop_
_geom_bond_atom_site_label_1
_geom_bond_atom_site_label_2
_geom_bond_distance
_geom_bond_site_symmetry_2
Ho0 Zn3 3.049035 1_555
Ho0 Zn8 3.123655 1_655
Ho0 Zn10 3.123655 1_556
Ho0 Zn12 3.123655 1_565
Ho0 Zn7 3.123655 1_556
Ho0 Zn9 3.123655 1_565
Ho0 Zn11 3.123655 1_655
Ho0 Zn16 3.162261 1_555
Ho0 Zn0 3.162261 1_555
Ho0 Zn1 3.162261 1_555
Ho0 Zn14 3.298915 1_556
Ho0 Zn13 3.298915 1_565
Ho0 Zn15 3.298916 1_655
Ho0 Zn5 3.360363 1_566
Ho0 Zn4 3.360363 1_665
Ho0 Zn6 3.360363 1_656
Ho0 Zn14 3.390913 1_555
Ho0 Zn13 3.390913 1_555
Ho0 Zn15 3.390913 1_555
Ho1 Zn2 3.049035 1_555
Ho1 Zn11 3.123655 1_555
Ho1 Zn7 3.123655 1_555
Ho1 Zn9 3.123655 1_555
Ho1 Zn10 3.123655 1_555
Ho1 Zn12 3.123655 1_555
Ho1 Zn8 3.123655 1_555
Ho1 Zn15 3.162261 1_555
Ho1 Zn14 3.162261 1_555
Ho1 Zn13 3.162261 1_555
Ho1 Zn0 3.298915 1_554
Ho1 Zn1 3.298915 1_545
Ho1 Zn16 3.298916 1_455
Ho1 Zn5 3.360363 1_555
Ho1 Zn4 3.360363 1_555
Ho1 Zn6 3.360363 1_555
Ho1 Zn0 3.390913 1_555
Ho1 Zn1 3.390913 1_555
Ho1 Zn16 3.390913 1_555
Zn0 Zn13 2.515172 1_555
Zn0 Zn15 2.515173 1_555
Zn0 Zn5 2.592523 1_556
Zn0 Zn6 2.592523 1_556
Zn0 Zn10 2.674008 1_556
Zn0 Zn7 2.674008 1_556
Zn0 Zn9 2.697046 1_555
Zn0 Zn11 2.697046 1_555
Zn0 Zn2 2.817394 1_556
Zn1 Zn15 2.515172 1_555
Zn1 Zn14 2.515172 1_555
Zn1 Zn5 2.592523 1_565
Zn1 Zn4 2.592523 1_565
Zn1 Zn9 2.674008 1_565
Zn1 Zn12 2.674008 1_565
Zn1 Zn10 2.697046 1_555
Zn1 Zn8 2.697046 1_555
Zn1 Zn2 2.817394 1_565
Zn2 Zn3 2.578317 1_444
Zn2 Zn4 2.696664 1_555
Zn2 Zn6 2.696664 1_555
Zn2 Zn5 2.696664 1_555
Zn2 Zn9 2.925105 1_554
Zn2 Zn8 2.925105 1_545
Zn2 Zn7 2.925106 1_455
Zn3 Zn4 2.696664 1_665
Zn3 Zn6 2.696664 1_656
Zn3 Zn5 2.696664 1_566
Zn3 Zn7 2.925105 1_566
Zn3 Zn8 2.925105 1_656
Zn3 Zn9 2.925105 1_665
Zn4 Zn8 2.538442 1_545
Zn4 Zn9 2.538442 1_555
Zn5 Zn7 2.538442 1_555
Zn5 Zn9 2.538442 1_554
Zn6 Zn8 2.538442 1_555
Zn6 Zn7 2.538442 1_455
Zn10 Zn5 2.538442 1_565
Zn10 Zn6 2.538442 1_555
Zn10 Zn8 2.625702 1_555
Zn10 Zn9 2.625702 1_564
Zn10 Zn14 2.674008 1_555
Zn10 Zn15 2.697046 1_554
Zn10 Zn2 2.925105 1_565
Zn10 Zn3 2.925106 1_454
Zn11 Zn6 2.538442 1_556
Zn11 Zn4 2.538442 1_555
Zn11 Zn7 2.625702 1_456
Zn11 Zn9 2.625702 1_555
Zn11 Zn15 2.674008 1_555
Zn11 Zn16 2.674008 1_455
Zn11 Zn13 2.697046 1_455
Zn11 Zn3 2.925105 1_445
Zn11 Zn2 2.925105 1_556
Zn12 Zn5 2.538442 1_555
Zn12 Zn4 2.538442 1_655
Zn12 Zn7 2.625702 1_555
Zn12 Zn8 2.625702 1_645
Zn12 Zn13 2.674008 1_555
Zn12 Zn14 2.697046 1_545
Zn12 Zn16 2.697046 1_555
Zn12 Zn3 2.925105 1_544
Zn12 Zn2 2.925105 1_655
Zn13 Zn16 2.515172 1_555
Zn13 Zn5 2.592523 1_556
Zn13 Zn4 2.592523 1_655
Zn13 Zn9 2.674008 1_555
Zn13 Zn7 2.697046 1_556
Zn13 Zn3 2.817394 1_545
Zn14 Zn16 2.515173 1_555
Zn14 Zn5 2.592523 1_565
Zn14 Zn6 2.592523 1_655
Zn14 Zn7 2.674008 1_555
Zn14 Zn8 2.697046 1_655
Zn14 Zn3 2.817394 1_554
Zn15 Zn6 2.592523 1_556
Zn15 Zn4 2.592523 1_565
Zn15 Zn8 2.674008 1_555
Zn15 Zn9 2.697046 1_565
Zn15 Zn3 2.817394 1_455
Zn16 Zn6 2.592523 1_655
Zn16 Zn4 2.592523 1_655
Zn16 Zn8 2.674008 1_655
Zn16 Zn7 2.697046 1_555
Zn16 Zn2 2.817394 1_655
