# generated using pymatgen
data_Zr12Al9Pd3C4
_symmetry_space_group_name_H-M   'P 1'
_cell_length_a   8.68636772
_cell_length_b   8.68636751
_cell_length_c   8.70518050
_cell_angle_alpha   60.07145538
_cell_angle_beta   60.07146163
_cell_angle_gamma   59.99999181
_symmetry_Int_Tables_number   1
_chemical_formula_structural   Zr12Al9Pd3C4
_chemical_formula_sum   'Zr12 Al9 Pd3 C4'
_cell_volume   464.95123064
_cell_formula_units_Z   1
loop_
 _symmetry_equiv_pos_site_id
 _symmetry_equiv_pos_as_xyz
  1  'x, y, z'
loop_
 _atom_site_type_symbol
 _atom_site_label
 _atom_site_symmetry_multiplicity
 _atom_site_fract_x
 _atom_site_fract_y
 _atom_site_fract_z
 _atom_site_occupancy
  Zr  Zr0  1  0.43906250  0.43906250  0.05885142  1
  Zr  Zr1  1  0.06302359  0.43906250  0.05885142  1
  Zr  Zr2  1  0.43906250  0.06302359  0.05885142  1
  Zr  Zr3  1  0.06203204  0.06203204  0.43746519  1
  Zr  Zr4  1  0.43846973  0.06203204  0.43746519  1
  Zr  Zr5  1  0.06203204  0.43846973  0.43746519  1
  Zr  Zr6  1  0.81093750  0.81093750  0.19114858  1
  Zr  Zr7  1  0.18697641  0.81093750  0.19114858  1
  Zr  Zr8  1  0.81093750  0.18697641  0.19114858  1
  Zr  Zr9  1  0.18796796  0.18796796  0.81253481  1
  Zr  Zr10  1  0.81153027  0.18796796  0.81253481  1
  Zr  Zr11  1  0.18796796  0.81153027  0.81253481  1
  Al  Al0  1  0.83148971  0.83148971  0.50553187  1
  Al  Al1  1  0.83598617  0.50936133  0.81866533  1
  Al  Al2  1  0.50936133  0.83598617  0.81866533  1
  Al  Al3  1  0.83598617  0.83598617  0.81866533  1
  Al  Al4  1  0.41851029  0.41851029  0.74446813  1
  Al  Al5  1  0.41401383  0.74063867  0.43133467  1
  Al  Al6  1  0.74063867  0.41401383  0.43133467  1
  Al  Al7  1  0.41401383  0.41401383  0.43133467  1
  Al  Al8  1  0.62500000  0.62500000  0.12500000  1
  Pd  Pd0  1  0.62500000  0.12500000  0.62500000  1
  Pd  Pd1  1  0.12500000  0.62500000  0.62500000  1
  Pd  Pd2  1  0.62500000  0.62500000  0.62500000  1
  C  C0  1  0.12500000  0.12500000  0.62500000  1
  C  C1  1  0.12500000  0.62500000  0.12500000  1
  C  C2  1  0.62500000  0.12500000  0.12500000  1
  C  C3  1  0.12500000  0.12500000  0.12500000  1
loop_
_geom_bond_atom_site_label_1
_geom_bond_atom_site_label_2
_geom_bond_distance
_geom_bond_site_symmetry_2
Al0 Pd1 2.647706 1_655
Al0 Pd0 2.647706 1_565
Al0 Pd2 2.647713 1_555
Al0 Al3 2.765410 1_555
Al0 Al1 2.765418 1_555
Al0 Al2 2.765419 1_555
Al0 Zr8 2.925833 1_565
Al0 Zr7 2.925833 1_655
Al0 Zr6 2.925838 1_555
Al0 Zr3 3.164485 1_665
Al0 Zr4 3.164500 1_565
Al0 Zr5 3.164500 1_655
Al1 Pd2 2.600457 1_555
Al1 Pd1 2.600464 1_655
Al1 Al8 2.726591 1_556
Al1 Al2 2.837183 1_555
Al1 Al3 2.837183 1_555
Al1 Zr10 2.931694 1_555
Al1 Zr9 2.931703 1_655
Al1 Zr8 3.041060 1_556
Al1 Zr5 3.094304 1_655
Al1 Zr0 3.204702 1_556
Al1 Zr1 3.204709 1_656
Al2 Pd2 2.600457 1_555
Al2 Pd0 2.600464 1_565
Al2 Al8 2.726591 1_556
Al2 Al3 2.837183 1_555
Al2 Zr11 2.931694 1_555
Al2 Zr9 2.931703 1_565
Al2 Zr7 3.041060 1_556
Al2 Zr4 3.094303 1_565
Al2 Zr0 3.204702 1_556
Al2 Zr2 3.204709 1_566
Al3 Pd0 2.600459 1_565
Al3 Pd1 2.600459 1_655
Al3 Al8 2.726587 1_556
Al3 Zr10 2.931711 1_565
Al3 Zr11 2.931711 1_655
Al3 Zr6 3.041064 1_556
Al3 Zr3 3.094303 1_665
Al3 Zr1 3.204705 1_656
Al3 Zr2 3.204705 1_566
Al4 Pd1 2.647706 1_555
Al4 Pd0 2.647706 1_555
Al4 Pd2 2.647713 1_555
Al4 Al7 2.765410 1_555
Al4 Al5 2.765418 1_555
Al4 Al6 2.765419 1_555
Al4 Zr2 2.925833 1_556
Al4 Zr1 2.925833 1_556
Al4 Zr0 2.925838 1_556
Al4 Zr9 3.164485 1_555
Al4 Zr10 3.164500 1_555
Al4 Zr11 3.164500 1_555
Al5 Pd2 2.600457 1_555
Al5 Pd1 2.600464 1_555
Al5 Al8 2.726591 1_555
Al5 Al6 2.837183 1_555
Al5 Al7 2.837183 1_555
Al5 Zr4 2.931694 1_565
Al5 Zr3 2.931703 1_565
Al5 Zr2 3.041060 1_565
Al5 Zr11 3.094304 1_555
Al5 Zr6 3.204702 1_555
Al5 Zr7 3.204709 1_555
Al6 Pd2 2.600457 1_555
Al6 Pd0 2.600464 1_555
Al6 Al8 2.726591 1_555
Al6 Al7 2.837183 1_555
Al6 Zr5 2.931694 1_655
Al6 Zr3 2.931703 1_655
Al6 Zr1 3.041060 1_655
Al6 Zr10 3.094303 1_555
Al6 Zr6 3.204702 1_555
Al6 Zr8 3.204709 1_555
Al7 Pd0 2.600459 1_555
Al7 Pd1 2.600459 1_555
Al7 Al8 2.726587 1_555
Al7 Zr4 2.931711 1_555
Al7 Zr5 2.931711 1_555
Al7 Zr0 3.041064 1_555
Al7 Zr9 3.094303 1_555
Al7 Zr7 3.204705 1_555
Al7 Zr8 3.204705 1_555
Al8 Zr2 3.164412 1_565
Al8 Zr8 3.164412 1_555
Al8 Zr1 3.164412 1_655
Al8 Zr7 3.164412 1_555
Al8 Zr6 3.164413 1_555
Al8 Zr0 3.164413 1_555
Pd0 Zr2 3.149009 1_556
Pd0 Zr8 3.149009 1_555
Pd0 Zr3 3.163254 1_655
Pd0 Zr9 3.163254 1_555
Pd0 Zr10 3.163262 1_555
Pd0 Zr4 3.163262 1_555
Pd1 Zr1 3.149009 1_556
Pd1 Zr7 3.149009 1_555
Pd1 Zr3 3.163254 1_565
Pd1 Zr9 3.163254 1_555
Pd1 Zr11 3.163262 1_555
Pd1 Zr5 3.163262 1_555
Pd2 Zr0 3.149009 1_556
Pd2 Zr6 3.149009 1_555
Pd2 Zr4 3.163255 1_565
Pd2 Zr10 3.163255 1_555
Pd2 Zr5 3.163255 1_655
Pd2 Zr11 3.163255 1_555
C0 Zr5 2.311842 1_555
C0 Zr11 2.311842 1_545
C0 Zr4 2.311842 1_555
C0 Zr10 2.311842 1_455
C0 Zr9 2.311848 1_555
C0 Zr3 2.311848 1_555
C1 Zr5 2.308062 1_555
C1 Zr11 2.308062 1_554
C1 Zr0 2.310171 1_555
C1 Zr6 2.310171 1_455
C1 Zr7 2.310171 1_555
C1 Zr1 2.310171 1_555
C2 Zr4 2.308063 1_555
C2 Zr10 2.308063 1_554
C2 Zr0 2.310171 1_555
C2 Zr6 2.310171 1_545
C2 Zr8 2.310171 1_555
C2 Zr2 2.310171 1_555
C3 Zr3 2.308061 1_555
C3 Zr9 2.308061 1_554
C3 Zr1 2.310171 1_555
C3 Zr7 2.310171 1_545
C3 Zr2 2.310171 1_555
C3 Zr8 2.310171 1_455
