# generated using pymatgen
data_CsCoRhF6
_symmetry_space_group_name_H-M   'P 1'
_cell_length_a   7.37839913
_cell_length_b   7.37848915
_cell_length_c   7.37773738
_cell_angle_alpha   119.60818778
_cell_angle_beta   120.63981303
_cell_angle_gamma   89.80040579
_symmetry_Int_Tables_number   1
_chemical_formula_structural   CsCoRhF6
_chemical_formula_sum   'Cs2 Co2 Rh2 F12'
_cell_volume   283.41808421
_cell_formula_units_Z   2
loop_
 _symmetry_equiv_pos_site_id
 _symmetry_equiv_pos_as_xyz
  1  'x, y, z'
loop_
 _atom_site_type_symbol
 _atom_site_label
 _atom_site_symmetry_multiplicity
 _atom_site_fract_x
 _atom_site_fract_y
 _atom_site_fract_z
 _atom_site_occupancy
  Cs  Cs0  1  0.36589248  0.61589354  0.74999592  1
  Cs  Cs1  1  0.63410752  0.38410646  0.25000408  1
  Co  Co0  1  0.00000000  0.00000000  0.50000000  1
  Co  Co1  1  0.00000000  0.50000000  0.00000000  1
  Rh  Rh0  1  0.00000000  0.00000000  0.00000000  1
  Rh  Rh1  1  0.50000000  0.00000000  0.50000000  1
  F  F0  1  0.32754718  0.07753753  0.25001142  1
  F  F1  1  0.93351932  0.68350768  0.25001132  1
  F  F2  1  0.32724756  0.67896617  0.25281856  1
  F  F3  1  0.92619353  0.07442025  0.24719126  1
  F  F4  1  0.32734371  0.07449518  0.64830991  1
  F  F5  1  0.92615445  0.67899827  0.85162940  1
  F  F6  1  0.67245282  0.92246247  0.74998858  1
  F  F7  1  0.06648068  0.31649232  0.74998868  1
  F  F8  1  0.67275244  0.32103383  0.74718144  1
  F  F9  1  0.07380647  0.92557975  0.75280874  1
  F  F10  1  0.67265629  0.92550482  0.35169009  1
  F  F11  1  0.07384555  0.32100173  0.14837060  1
loop_
_geom_bond_atom_site_label_1
_geom_bond_atom_site_label_2
_geom_bond_distance
_geom_bond_site_symmetry_2
Cs0 F7 3.129615 1_555
Cs0 F11 3.133635 1_555
Cs0 F10 3.133974 1_556
Cs0 F8 3.135127 1_555
Cs0 F9 3.135398 1_555
Cs0 F6 3.204514 1_555
Cs1 F1 3.129615 1_555
Cs1 F5 3.133635 1_555
Cs1 F4 3.133974 1_554
Cs1 F2 3.135127 1_555
Cs1 F3 3.135398 1_555
Cs1 F0 3.204514 1_555
Co0 F7 1.981296 1_555
Co0 F1 1.981296 1_445
Co0 F3 2.012841 1_455
Co0 F9 2.012841 1_545
Co0 F4 2.013494 1_555
Co0 F10 2.013494 1_445
Co1 F1 1.981397 1_455
Co1 F7 1.981397 1_554
Co1 F2 2.012656 1_555
Co1 F8 2.012656 1_454
Co1 F5 2.013725 1_454
Co1 F11 2.013725 1_555
F0 Rh0 1.998379 1_555
F0 Rh1 1.998384 1_555
F2 Rh1 1.986098 1_565
F3 Rh0 1.986123 1_655
F4 Rh1 1.985923 1_555
F5 Rh0 1.985979 1_666
F6 Rh0 1.998379 1_666
F6 Rh1 1.998384 1_565
F8 Rh1 1.986098 1_555
F9 Rh0 1.986123 1_566
F10 Rh1 1.985923 1_565
F11 Rh0 1.985979 1_555
