# generated using pymatgen
data_Hf4Sc(ReTc)12
_symmetry_space_group_name_H-M   'P 1'
_cell_length_a   8.39486008
_cell_length_b   8.39486057
_cell_length_c   8.39486086
_cell_angle_alpha   109.47121897
_cell_angle_beta   109.47122016
_cell_angle_gamma   109.47122661
_symmetry_Int_Tables_number   1
_chemical_formula_structural   Hf4Sc(ReTc)12
_chemical_formula_sum   'Hf4 Sc1 Re12 Tc12'
_cell_volume   455.42675476
_cell_formula_units_Z   1
loop_
 _symmetry_equiv_pos_site_id
 _symmetry_equiv_pos_as_xyz
  1  'x, y, z'
loop_
 _atom_site_type_symbol
 _atom_site_label
 _atom_site_symmetry_multiplicity
 _atom_site_fract_x
 _atom_site_fract_y
 _atom_site_fract_z
 _atom_site_occupancy
  Hf  Hf0  1  0.62670354  1.00000000  1.00000000  1
  Hf  Hf1  1  1.00000000  0.62670354  1.00000000  1
  Hf  Hf2  1  0.00000000  0.00000000  0.62670354  1
  Hf  Hf3  1  0.37329646  0.37329646  0.37329646  1
  Sc  Sc0  1  0.00000000  0.00000000  0.00000000  1
  Re  Re0  1  0.37625385  0.19404050  0.00000000  1
  Re  Re1  1  0.18221436  0.80595950  0.80595950  1
  Re  Re2  1  0.37625385  0.00000000  0.19404050  1
  Re  Re3  1  0.19404050  0.37625385  0.00000000  1
  Re  Re4  1  1.00000000  0.37625385  0.19404050  1
  Re  Re5  1  0.80595950  0.18221436  0.80595950  1
  Re  Re6  1  0.80595950  0.80595950  0.18221436  1
  Re  Re7  1  0.00000000  0.19404050  0.37625385  1
  Re  Re8  1  0.19404050  0.00000000  0.37625385  1
  Re  Re9  1  0.62374615  0.62374615  0.81778564  1
  Re  Re10  1  0.81778564  0.62374615  0.62374615  1
  Re  Re11  1  0.62374615  0.81778564  0.62374615  1
  Tc  Tc0  1  0.39665848  0.67602225  1.00000000  1
  Tc  Tc1  1  0.72063723  0.32397775  0.32397775  1
  Tc  Tc2  1  0.39665848  1.00000000  0.67602225  1
  Tc  Tc3  1  0.67602225  0.39665848  1.00000000  1
  Tc  Tc4  1  0.00000000  0.39665848  0.67602225  1
  Tc  Tc5  1  0.32397775  0.72063723  0.32397775  1
  Tc  Tc6  1  0.32397775  0.32397775  0.72063723  1
  Tc  Tc7  1  1.00000000  0.67602225  0.39665848  1
  Tc  Tc8  1  0.67602225  1.00000000  0.39665848  1
  Tc  Tc9  1  0.60334152  0.60334152  0.27936277  1
  Tc  Tc10  1  0.27936277  0.60334152  0.60334152  1
  Tc  Tc11  1  0.60334152  0.27936277  0.60334152  1
loop_
_geom_bond_atom_site_label_1
_geom_bond_atom_site_label_2
_geom_bond_distance
_geom_bond_site_symmetry_2
Hf0 Tc1 2.761332 1_566
Hf0 Tc0 2.761335 1_555
Hf0 Tc2 2.761335 1_555
Hf0 Re4 3.003092 1_566
Hf0 Re7 3.003093 1_666
Hf0 Re9 3.003094 1_555
Hf0 Re11 3.003094 1_555
Hf0 Re5 3.003097 1_565
Hf0 Re6 3.003097 1_556
Hf0 Re1 3.058937 1_555
Hf0 Re2 3.058945 1_566
Hf0 Re0 3.058945 1_566
Hf0 Sc0 3.133772 1_666
Hf0 Tc3 3.215664 1_565
Hf0 Tc8 3.215665 1_556
Hf0 Tc10 3.215666 1_555
Hf1 Tc5 2.761332 1_656
Hf1 Tc3 2.761335 1_555
Hf1 Tc4 2.761335 1_655
Hf1 Re2 3.003092 1_666
Hf1 Re8 3.003093 1_666
Hf1 Re9 3.003094 1_555
Hf1 Re10 3.003094 1_555
Hf1 Re1 3.003097 1_655
Hf1 Re6 3.003097 1_556
Hf1 Re5 3.058938 1_555
Hf1 Re4 3.058945 1_556
Hf1 Re3 3.058945 1_656
Hf1 Sc0 3.133772 1_666
Hf1 Tc0 3.215664 1_655
Hf1 Tc7 3.215665 1_556
Hf1 Tc11 3.215666 1_555
Hf2 Tc6 2.761331 1_555
Hf2 Tc8 2.761335 1_445
Hf2 Tc7 2.761335 1_445
Hf2 Re0 3.003093 1_556
Hf2 Re3 3.003093 1_556
Hf2 Re11 3.003094 1_445
Hf2 Re10 3.003094 1_445
Hf2 Re5 3.003097 1_455
Hf2 Re1 3.003097 1_545
Hf2 Re6 3.058938 1_445
Hf2 Re8 3.058945 1_555
Hf2 Re7 3.058945 1_555
Hf2 Sc0 3.133772 1_556
Hf2 Tc2 3.215664 1_545
Hf2 Tc4 3.215664 1_555
Hf2 Tc9 3.215666 1_445
Hf3 Tc9 2.761341 1_555
Hf3 Tc11 2.761341 1_555
Hf3 Tc10 2.761341 1_555
Hf3 Re7 3.003092 1_555
Hf3 Re8 3.003093 1_555
Hf3 Re4 3.003093 1_455
Hf3 Re2 3.003093 1_555
Hf3 Re3 3.003093 1_555
Hf3 Re0 3.003093 1_555
Hf3 Re10 3.058938 1_555
Hf3 Re11 3.058938 1_555
Hf3 Re9 3.058939 1_555
Hf3 Sc0 3.133771 1_555
Hf3 Tc1 3.215673 1_555
Hf3 Tc5 3.215673 1_555
Hf3 Tc6 3.215673 1_555
Re0 Re3 2.497917 1_555
Re0 Tc3 2.524367 1_554
Re0 Re1 2.660053 1_544
Re0 Re2 2.660053 1_555
Re0 Tc2 2.760958 1_544
Re0 Tc1 2.760962 1_555
Re0 Tc6 2.867213 1_554
Re0 Tc9 2.867219 1_555
Re0 Sc0 3.033163 1_555
Re1 Re10 2.497931 1_455
Re1 Tc10 2.524354 1_555
Re1 Re2 2.660053 1_566
Re1 Tc2 2.760952 1_555
Re1 Tc0 2.760953 1_555
Re1 Tc4 2.867220 1_555
Re1 Tc7 2.867221 1_455
Re1 Sc0 3.033171 1_566
Re2 Re8 2.497917 1_555
Re2 Tc8 2.524367 1_545
Re2 Tc0 2.760958 1_544
Re2 Tc1 2.760962 1_555
Re2 Tc5 2.867213 1_545
Re2 Tc11 2.867219 1_555
Re2 Sc0 3.033164 1_555
Re3 Tc0 2.524367 1_554
Re3 Re5 2.660052 1_454
Re3 Re4 2.660053 1_455
Re3 Tc4 2.760958 1_554
Re3 Tc5 2.760962 1_555
Re3 Tc6 2.867213 1_554
Re3 Tc9 2.867219 1_555
Re3 Sc0 3.033164 1_555
Re4 Re7 2.497917 1_655
Re4 Tc7 2.524367 1_555
Re4 Re5 2.660053 1_554
Re4 Tc3 2.760957 1_554
Re4 Tc5 2.760962 1_655
Re4 Tc1 2.867213 1_555
Re4 Tc10 2.867219 1_655
Re4 Sc0 3.033164 1_655
Re5 Tc11 2.524354 1_555
Re5 Tc4 2.760952 1_655
Re5 Tc3 2.760953 1_555
Re5 Tc2 2.867220 1_545
Re5 Tc8 2.867221 1_545
Re5 Sc0 3.033171 1_656
Re6 Re9 2.497931 1_554
Re6 Tc9 2.524354 1_555
Re6 Re8 2.660052 1_665
Re6 Re7 2.660053 1_665
Re6 Tc7 2.760953 1_555
Re6 Tc8 2.760953 1_555
Re6 Tc0 2.867220 1_554
Re6 Tc3 2.867220 1_554
Re6 Sc0 3.033171 1_665
Re7 Tc4 2.524367 1_555
Re7 Re8 2.660053 1_555
Re7 Tc8 2.760957 1_445
Re7 Tc6 2.760962 1_555
Re7 Tc1 2.867213 1_455
Re7 Tc10 2.867219 1_555
Re7 Sc0 3.033164 1_555
Re8 Tc2 2.524367 1_545
Re8 Tc7 2.760957 1_445
Re8 Tc6 2.760963 1_555
Re8 Tc5 2.867213 1_545
Re8 Tc11 2.867218 1_555
Re8 Sc0 3.033164 1_555
Re9 Tc6 2.524373 1_555
Re9 Tc10 2.760962 1_555
Re9 Tc11 2.760962 1_555
Re9 Tc0 2.867226 1_555
Re9 Tc3 2.867226 1_555
Re9 Sc0 3.033162 1_666
Re10 Tc1 2.524373 1_555
Re10 Re9 2.660039 1_555
Re10 Re11 2.660039 1_555
Re10 Tc11 2.760962 1_555
Re10 Tc9 2.760962 1_555
Re10 Tc7 2.867226 1_555
Re10 Tc4 2.867226 1_655
Re10 Sc0 3.033162 1_666
Re11 Re5 2.497931 1_565
Re11 Tc5 2.524373 1_555
Re11 Re9 2.660039 1_555
Re11 Tc10 2.760962 1_555
Re11 Tc9 2.760962 1_555
Re11 Tc8 2.867226 1_555
Re11 Tc2 2.867226 1_555
Re11 Sc0 3.033162 1_666
Tc0 Tc9 2.798168 1_556
Tc0 Tc6 2.798170 1_555
Tc0 Tc5 2.913611 1_556
Tc0 Tc10 2.913611 1_555
Tc0 Tc4 2.913611 1_555
Tc0 Tc8 2.913612 1_556
Tc1 Tc7 2.798170 1_555
Tc1 Tc4 2.798170 1_655
Tc1 Tc8 2.913611 1_545
Tc1 Tc3 2.913611 1_554
Tc1 Tc11 2.913619 1_555
Tc1 Tc9 2.913619 1_555
Tc2 Tc5 2.798170 1_555
Tc2 Tc6 2.913611 1_565
Tc2 Tc7 2.913611 1_455
Tc2 Tc3 2.913612 1_565
Tc3 Tc9 2.798168 1_556
Tc3 Tc6 2.798170 1_555
Tc3 Tc7 2.913612 1_556
Tc4 Tc6 2.913611 1_555
Tc4 Tc8 2.913611 1_445
Tc5 Tc8 2.798170 1_555
Tc5 Tc7 2.913611 1_455
Tc5 Tc9 2.913619 1_555
Tc7 Tc9 2.913610 1_555
Tc8 Tc9 2.913611 1_555
Tc10 Tc4 2.798168 1_555
Tc10 Tc7 2.798168 1_455
Tc10 Tc2 2.913611 1_555
Tc10 Tc6 2.913619 1_555
Tc10 Tc5 2.913619 1_555
Tc11 Tc2 2.798168 1_545
Tc11 Tc8 2.798168 1_545
Tc11 Tc4 2.913610 1_655
Tc11 Tc3 2.913611 1_555
Tc11 Tc6 2.913619 1_555
