# generated using pymatgen
data_SrNiSn3
_symmetry_space_group_name_H-M   'P 1'
_cell_length_a   4.74450734
_cell_length_b   4.74450694
_cell_length_c   6.40833773
_cell_angle_alpha   111.72685926
_cell_angle_beta   111.72686262
_cell_angle_gamma   90.00001473
_symmetry_Int_Tables_number   1
_chemical_formula_structural   SrNiSn3
_chemical_formula_sum   'Sr1 Ni1 Sn3'
_cell_volume   122.90653882
_cell_formula_units_Z   1
loop_
 _symmetry_equiv_pos_site_id
 _symmetry_equiv_pos_as_xyz
  1  'x, y, z'
loop_
 _atom_site_type_symbol
 _atom_site_label
 _atom_site_symmetry_multiplicity
 _atom_site_fract_x
 _atom_site_fract_y
 _atom_site_fract_z
 _atom_site_occupancy
  Sr  Sr0  1  0.99957178  0.99957178  0.99914256  1
  Ni  Ni0  1  0.65873338  0.65873338  0.31746476  1
  Sn  Sn0  1  0.43048136  0.43048136  0.86096273  1
  Sn  Sn1  1  0.74960674  0.24960674  0.49921348  1
  Sn  Sn2  1  0.24960674  0.74960674  0.49921348  1
loop_
_geom_bond_atom_site_label_1
_geom_bond_atom_site_label_2
_geom_bond_distance
_geom_bond_site_symmetry_2
Ni0 Sn0 2.492502 1_554
Ni0 Sn1 2.571443 1_565
Ni0 Sn2 2.571443 1_655
Ni0 Sn1 2.571452 1_555
Ni0 Sn2 2.571452 1_555
Ni0 Sr0 3.721962 1_555
Ni0 Sr0 3.778350 1_554
Ni0 Sr0 3.778354 1_454
Ni0 Sr0 3.778354 1_544
Ni0 Sr0 3.778356 1_444
Sn0 Sn2 3.086877 1_545
Sn0 Sn1 3.086877 1_455
Sn0 Sn2 3.086877 1_555
Sn0 Sn1 3.086877 1_555
Sn0 Sr0 3.438657 1_445
Sn0 Sr0 3.438661 1_545
Sn0 Sr0 3.438661 1_455
Sn0 Sr0 3.438663 1_555
Sn1 Sr0 3.616402 1_545
Sn1 Sr0 3.616405 1_555
Sn1 Sr0 3.616987 1_444
Sn1 Sr0 3.616990 1_544
Sn2 Sr0 3.616403 1_455
Sn2 Sr0 3.616405 1_555
Sn2 Sr0 3.616987 1_444
Sn2 Sr0 3.616990 1_454
