# generated using pymatgen
data_Y2Si5Os2Ru
_symmetry_space_group_name_H-M   'P 1'
_cell_length_a   8.19347762
_cell_length_b   8.25002283
_cell_length_c   8.25017377
_cell_angle_alpha   140.12025600
_cell_angle_beta   108.38369382
_cell_angle_gamma   85.34758979
_symmetry_Int_Tables_number   1
_chemical_formula_structural   Y2Si5Os2Ru
_chemical_formula_sum   'Y4 Si10 Os4 Ru2'
_cell_volume   327.24453970
_cell_formula_units_Z   2
loop_
 _symmetry_equiv_pos_site_id
 _symmetry_equiv_pos_as_xyz
  1  'x, y, z'
loop_
 _atom_site_type_symbol
 _atom_site_label
 _atom_site_symmetry_multiplicity
 _atom_site_fract_x
 _atom_site_fract_y
 _atom_site_fract_z
 _atom_site_occupancy
  Y  Y0  1  0.90920745  0.13878288  0.77128762  1
  Y  Y1  1  0.09107751  0.86228176  0.22981568  1
  Y  Y2  1  0.63257814  0.36768219  0.26363843  1
  Y  Y3  1  0.36771451  0.63133289  0.73494354  1
  Si  Si0  1  0.00054235  0.75074469  0.75103949  1
  Si  Si1  1  0.00051292  0.24924954  0.24952016  1
  Si  Si2  1  0.71390147  0.47340529  0.77149561  1
  Si  Si3  1  0.28515462  0.05902639  0.76088079  1
  Si  Si4  1  0.28557017  0.52508558  0.22729788  1
  Si  Si5  1  0.71352338  0.94290129  0.24075305  1
  Si  Si6  1  0.22966578  0.40185977  0.83012815  1
  Si  Si7  1  0.57409531  0.90783554  0.66358958  1
  Si  Si8  1  0.42485765  0.08954985  0.33275148  1
  Si  Si9  1  0.77110089  0.60049950  0.17246926  1
  Os  Os0  1  0.75452773  0.85619594  0.89769606  1
  Os  Os1  1  0.50020435  0.25168523  0.75156307  1
  Os  Os2  1  0.93766109  0.34978411  0.58844847  1
  Os  Os3  1  0.06307857  0.65030381  0.41332072  1
  Ru  Ru0  1  0.24464616  0.14307341  0.10073453  1
  Ru  Ru1  1  0.50038196  0.74872131  0.24862843  1
loop_
_geom_bond_atom_site_label_1
_geom_bond_atom_site_label_2
_geom_bond_distance
_geom_bond_site_symmetry_2
Si0 Y3 3.099863 1_555
Si0 Y2 3.105062 1_455
Si0 Y1 3.111825 1_556
Si0 Y0 3.115421 1_465
Si1 Y3 3.096818 1_555
Si1 Y2 3.102488 1_455
Si1 Y1 3.108749 1_545
Si1 Y0 3.112449 1_454
Si2 Si9 2.457800 1_556
Si2 Si8 2.637439 1_555
Si2 Y3 3.049274 1_555
Si2 Y0 3.075666 1_555
Si2 Y1 3.124107 1_656
Si2 Y2 3.388881 1_555
Si3 Si6 2.451137 1_555
Si3 Si7 2.643442 1_545
Si3 Y2 3.051188 1_556
Si3 Y1 3.077183 1_545
Si3 Y0 3.111267 1_455
Si3 Y3 3.390992 1_545
Si4 Si6 2.448759 1_554
Si4 Si7 2.629666 1_555
Si4 Y2 3.053019 1_555
Si4 Y1 3.080873 1_555
Si4 Y0 3.113626 1_454
Si4 Y3 3.383104 1_555
Si5 Si9 2.455318 1_555
Si5 Si8 2.625385 1_565
Si5 Y3 3.051223 1_554
Si5 Y0 3.078651 1_565
Si5 Y1 3.125753 1_655
Si5 Y2 3.382769 1_565
Si6 Y3 2.944398 1_555
Si6 Y1 3.004922 1_556
Si6 Y1 3.011625 1_545
Si6 Y0 3.216179 1_455
Si7 Y0 2.944542 1_565
Si7 Y2 3.009803 1_555
Si7 Y2 3.017209 1_566
Si7 Y3 3.424072 1_555
Si8 Y1 2.939217 1_545
Si8 Y3 3.008320 1_544
Si8 Y3 3.014214 1_555
Si8 Y2 3.426463 1_555
Si9 Y2 2.941538 1_555
Si9 Y0 3.004252 1_565
Si9 Y0 3.009693 1_554
Si9 Y1 3.213956 1_655
Os0 Si7 2.336050 1_555
Os0 Si0 2.433570 1_655
Os0 Si1 2.434490 1_666
Os0 Si2 2.464440 1_555
Os0 Si5 2.467504 1_556
Os0 Y2 3.096064 1_566
Os0 Y2 3.099150 1_555
Os0 Y3 3.120201 1_555
Os0 Y1 3.187434 1_656
Os1 Si7 2.403983 1_545
Os1 Si8 2.409189 1_555
Os1 Si6 2.469189 1_555
Os1 Si9 2.470592 1_556
Os1 Si2 2.512966 1_555
Os1 Si3 2.522731 1_555
Os1 Y2 3.318652 1_556
Os1 Y3 3.319783 1_555
Os1 Y0 3.392142 1_555
Os1 Y1 3.392364 1_545
Os2 Si6 2.393203 1_655
Os2 Si2 2.400252 1_555
Os2 Si5 2.401630 1_545
Os2 Si0 2.457138 1_655
Os2 Si1 2.459970 1_655
Os2 Y0 3.110923 1_555
Os2 Y1 3.126047 1_645
Os2 Y2 3.126265 1_555
Os2 Y1 3.128182 1_656
Os3 Si9 2.397575 1_455
Os3 Si3 2.401640 1_565
Os3 Si4 2.402439 1_555
Os3 Si0 2.449579 1_555
Os3 Si1 2.451985 1_555
Os3 Y3 3.113177 1_555
Os3 Y1 3.122617 1_555
Os3 Y0 3.130329 1_454
Os3 Y0 3.132068 1_465
Ru0 Si8 2.334100 1_555
Ru0 Si0 2.424596 1_544
Ru0 Si1 2.426834 1_555
Ru0 Si3 2.453228 1_554
Ru0 Si4 2.456677 1_555
Ru0 Y3 3.098875 1_555
Ru0 Y3 3.102031 1_544
Ru0 Y2 3.127555 1_555
Ru0 Y0 3.177855 1_454
Ru1 Si7 2.394864 1_555
Ru1 Si8 2.400949 1_565
Ru1 Si6 2.462702 1_554
Ru1 Si9 2.463750 1_555
Ru1 Si5 2.511087 1_555
Ru1 Si4 2.523070 1_555
Ru1 Y2 3.321318 1_555
Ru1 Y3 3.323532 1_554
Ru1 Y0 3.392752 1_565
Ru1 Y1 3.396146 1_555
