# generated using pymatgen
data_Cs3HgH5
_symmetry_space_group_name_H-M   'P 1'
_cell_length_a   8.67751131
_cell_length_b   8.67751092
_cell_length_c   8.67751120
_cell_angle_alpha   121.76517931
_cell_angle_beta   121.76517796
_cell_angle_gamma   86.96888005
_symmetry_Int_Tables_number   1
_chemical_formula_structural   Cs3HgH5
_chemical_formula_sum   'Cs6 Hg2 H10'
_cell_volume   449.01970607
_cell_formula_units_Z   2
loop_
 _symmetry_equiv_pos_site_id
 _symmetry_equiv_pos_as_xyz
  1  'x, y, z'
loop_
 _atom_site_type_symbol
 _atom_site_label
 _atom_site_symmetry_multiplicity
 _atom_site_fract_x
 _atom_site_fract_y
 _atom_site_fract_z
 _atom_site_occupancy
  Cs  Cs0  1  0.68130542  0.18130542  0.86261285  1
  Cs  Cs1  1  0.31869458  0.81869458  0.13738715  1
  Cs  Cs2  1  0.18130542  0.31869458  0.50000000  1
  Cs  Cs3  1  0.81869458  0.68130542  0.50000000  1
  Cs  Cs4  1  0.75000000  0.75000000  0.00000000  1
  Cs  Cs5  1  0.25000000  0.25000000  0.00000000  1
  Hg  Hg0  1  0.75000000  0.25000000  0.50000000  1
  Hg  Hg1  1  0.25000000  0.75000000  0.50000000  1
  H  H0  1  0.95686548  0.45686548  0.74195301  1
  H  H1  1  0.71491347  0.21491347  0.25804699  1
  H  H2  1  0.45686548  0.71491347  0.50000000  1
  H  H3  1  0.21491347  0.95686548  0.50000000  1
  H  H4  1  0.04313452  0.54313452  0.25804699  1
  H  H5  1  0.28508653  0.78508653  0.74195301  1
  H  H6  1  0.54313452  0.28508653  0.50000000  1
  H  H7  1  0.78508653  0.04313452  0.50000000  1
  H  H8  1  0.00000000  0.00000000  0.00000000  1
  H  H9  1  0.50000000  0.50000000  0.00000000  1
loop_
_geom_bond_atom_site_label_1
_geom_bond_atom_site_label_2
_geom_bond_distance
_geom_bond_site_symmetry_2
Cs0 H9 3.096410 1_556
Cs0 H8 3.096410 1_656
Cs0 H1 3.137872 1_556
Cs0 H4 3.137897 1_656
Cs0 H2 3.323638 1_545
Cs0 H3 3.323638 1_545
Cs0 H7 3.323653 1_555
Cs0 H6 3.323653 1_555
Cs1 H9 3.096410 1_555
Cs1 H8 3.096410 1_565
Cs1 H5 3.137872 1_554
Cs1 H0 3.137897 1_454
Cs1 H6 3.323638 1_565
Cs1 H7 3.323638 1_565
Cs1 H3 3.323653 1_555
Cs1 H2 3.323653 1_555
Cs2 H8 3.096413 1_555
Cs2 H9 3.096413 1_556
Cs2 H3 3.137898 1_545
Cs2 H6 3.137898 1_555
Cs2 H5 3.323636 1_555
Cs2 H1 3.323637 1_455
Cs2 H4 3.323644 1_555
Cs2 H0 3.323644 1_455
Cs3 H8 3.096413 1_666
Cs3 H9 3.096413 1_555
Cs3 H7 3.137898 1_565
Cs3 H2 3.137898 1_555
Cs3 H1 3.323636 1_555
Cs3 H5 3.323637 1_655
Cs3 H0 3.323644 1_555
Cs3 H4 3.323644 1_655
Cs4 H9 3.148033 1_555
Cs4 H8 3.148033 1_665
Cs5 H9 3.148033 1_555
Cs5 H8 3.148033 1_555
H0 Hg0 1.804773 1_555
H1 Hg0 1.804780 1_555
H2 Hg1 1.804772 1_555
H3 Hg1 1.804772 1_555
H4 Hg1 1.804773 1_555
H5 Hg1 1.804780 1_555
H6 Hg0 1.804772 1_555
H7 Hg0 1.804772 1_555
