# generated using pymatgen
data_K2Cr(Si2O5)2
_symmetry_space_group_name_H-M   'P 1'
_cell_length_a   7.13114758
_cell_length_b   8.16174002
_cell_length_c   10.16622123
_cell_angle_alpha   105.05418799
_cell_angle_beta   101.57895808
_cell_angle_gamma   112.83046007
_symmetry_Int_Tables_number   1
_chemical_formula_structural   K2Cr(Si2O5)2
_chemical_formula_sum   'K4 Cr2 Si8 O20'
_cell_volume   495.49271723
_cell_formula_units_Z   2
loop_
 _symmetry_equiv_pos_site_id
 _symmetry_equiv_pos_as_xyz
  1  'x, y, z'
loop_
 _atom_site_type_symbol
 _atom_site_label
 _atom_site_symmetry_multiplicity
 _atom_site_fract_x
 _atom_site_fract_y
 _atom_site_fract_z
 _atom_site_occupancy
  K  K0  1  0.66616411  0.79626255  0.99543826  1
  K  K1  1  0.73056333  0.25621943  0.41461381  1
  K  K2  1  0.26943667  0.74378057  0.58538619  1
  K  K3  1  0.33383589  0.20373745  0.00456174  1
  Cr  Cr0  1  0.76878114  0.75039361  0.57965543  1
  Cr  Cr1  1  0.23121886  0.24960639  0.42034457  1
  Si  Si0  1  0.03287483  0.68953731  0.84806062  1
  Si  Si1  1  0.96712517  0.31046269  0.15193938  1
  Si  Si2  1  0.22484727  0.90121502  0.18780683  1
  Si  Si3  1  0.77515273  0.09878498  0.81219317  1
  Si  Si4  1  0.43460893  0.65803187  0.25888892  1
  Si  Si5  1  0.16641330  0.38266759  0.73858190  1
  Si  Si6  1  0.83358670  0.61733241  0.26141810  1
  Si  Si7  1  0.56539107  0.34196813  0.74111108  1
  O  O0  1  0.02501627  0.78113621  0.23451022  1
  O  O1  1  0.97498373  0.21886379  0.76548978  1
  O  O2  1  0.79732014  0.53206525  0.83674950  1
  O  O3  1  0.20267986  0.46793475  0.16325050  1
  O  O4  1  0.60718285  0.61828272  0.18571856  1
  O  O5  1  0.39281715  0.38171728  0.81428144  1
  O  O6  1  0.19407256  0.59079507  0.83679415  1
  O  O7  1  0.80592744  0.40920493  0.16320585  1
  O  O8  1  0.87404854  0.64224760  0.42577314  1
  O  O9  1  0.12595146  0.35775240  0.57422686  1
  O  O10  1  0.50592353  0.70179218  0.42660257  1
  O  O11  1  0.49407647  0.29820782  0.57339743  1
  O  O12  1  0.02338665  0.79036647  0.73542818  1
  O  O13  1  0.97661335  0.20963353  0.26457182  1
  O  O14  1  0.86522113  0.15222034  0.98696817  1
  O  O15  1  0.13477887  0.84777966  0.01303183  1
  O  O16  1  0.58663539  0.16617560  0.78141315  1
  O  O17  1  0.41336461  0.83382440  0.21858685  1
  O  O18  1  0.32334138  0.12610799  0.26469637  1
  O  O19  1  0.67665862  0.87389201  0.73530363  1
loop_
_geom_bond_atom_site_label_1
_geom_bond_atom_site_label_2
_geom_bond_distance
_geom_bond_site_symmetry_2
K0 O4 2.709473 1_556
K0 O14 2.727921 1_565
K0 O19 2.883390 1_555
K0 O2 2.913892 1_555
K0 O6 2.963345 1_555
K0 O5 2.973715 1_555
K0 O15 3.163347 1_656
K0 O17 3.193695 1_556
K0 O0 3.221064 1_656
K0 O13 3.278260 1_566
K1 O11 2.611731 1_555
K1 O13 2.615498 1_555
K1 O18 2.621642 1_555
K1 O9 2.630852 1_655
K1 O8 2.872721 1_555
K1 O17 3.089210 1_545
K1 O7 3.173141 1_555
K2 O10 2.611731 1_555
K2 O12 2.615498 1_555
K2 O19 2.621642 1_555
K2 O8 2.630852 1_455
K2 O9 2.872721 1_555
K2 O16 3.089210 1_565
K2 O6 3.173141 1_555
K3 O5 2.709473 1_554
K3 O15 2.727921 1_545
K3 O18 2.883390 1_555
K3 O3 2.913892 1_555
K3 O7 2.963345 1_555
K3 O4 2.973715 1_555
K3 O14 3.163347 1_454
K3 O16 3.193695 1_554
K3 O1 3.221064 1_454
K3 O12 3.278260 1_544
Cr0 O10 2.005888 1_555
Cr0 O12 2.007116 1_655
Cr0 O19 2.013462 1_555
Cr0 O8 2.014515 1_555
Cr1 O11 2.005888 1_555
Cr1 O13 2.007116 1_455
Cr1 O18 2.013462 1_555
Cr1 O9 2.014515 1_555
O0 Si2 1.626710 1_555
O0 Si6 1.627683 1_455
O1 Si3 1.626710 1_555
O1 Si5 1.627683 1_655
O2 Si0 1.630050 1_655
O2 Si7 1.633257 1_555
O3 Si1 1.630050 1_455
O3 Si4 1.633257 1_555
O4 Si6 1.647124 1_555
O4 Si4 1.650769 1_555
O5 Si5 1.647124 1_555
O5 Si7 1.650769 1_555
O6 Si5 1.643541 1_555
O6 Si0 1.645547 1_555
O7 Si6 1.643541 1_555
O7 Si1 1.645547 1_555
O8 Si6 1.581405 1_555
O9 Si5 1.581405 1_555
O10 Si4 1.577306 1_555
O11 Si7 1.577306 1_555
O12 Si0 1.579413 1_555
O13 Si1 1.579413 1_555
O14 Si1 1.632832 1_556
O14 Si3 1.637597 1_555
O15 Si0 1.632832 1_554
O15 Si2 1.637597 1_555
O16 Si7 1.642718 1_555
O16 Si3 1.643789 1_555
O17 Si4 1.642718 1_555
O17 Si2 1.643789 1_555
O18 Si2 1.583447 1_545
O19 Si3 1.583447 1_565
