# generated using pymatgen
data_Rb3Ag2Sb2Au
_symmetry_space_group_name_H-M   'P 1'
_cell_length_a   8.56390502
_cell_length_b   8.35114779
_cell_length_c   8.35114799
_cell_angle_alpha   44.48385427
_cell_angle_beta   45.03628565
_cell_angle_gamma   45.03628406
_symmetry_Int_Tables_number   1
_chemical_formula_structural   Rb3Ag2Sb2Au
_chemical_formula_sum   'Rb3 Ag2 Sb2 Au1'
_cell_volume   270.29142248
_cell_formula_units_Z   1
loop_
 _symmetry_equiv_pos_site_id
 _symmetry_equiv_pos_as_xyz
  1  'x, y, z'
loop_
 _atom_site_type_symbol
 _atom_site_label
 _atom_site_symmetry_multiplicity
 _atom_site_fract_x
 _atom_site_fract_y
 _atom_site_fract_z
 _atom_site_occupancy
  Rb  Rb0  1  0.50000000  0.50000000  0.50000000  1
  Rb  Rb1  1  0.91238406  0.91698745  0.91698745  1
  Rb  Rb2  1  0.08761594  0.08301255  0.08301255  1
  Ag  Ag0  1  0.50000000  0.00000000  0.50000000  1
  Ag  Ag1  1  0.50000000  0.50000000  0.00000000  1
  Sb  Sb0  1  0.24732885  0.24654482  0.24654482  1
  Sb  Sb1  1  0.75267115  0.75345518  0.75345518  1
  Au  Au0  1  0.00000000  0.50000000  0.50000000  1
loop_
_geom_bond_atom_site_label_1
_geom_bond_atom_site_label_2
_geom_bond_distance
_geom_bond_site_symmetry_2
Rb0 Sb1 4.075362 1_545
Rb0 Sb0 4.075362 1_565
Rb0 Sb1 4.075362 1_554
Rb0 Sb0 4.075362 1_556
Rb0 Rb1 4.146221 1_545
Rb0 Rb2 4.146221 1_565
Rb0 Rb2 4.146221 1_556
Rb0 Rb1 4.146221 1_554
Rb0 Rb1 4.164892 1_455
Rb0 Rb2 4.164892 1_655
Rb0 Sb1 4.245281 1_455
Rb0 Sb0 4.245281 1_655
Rb1 Sb1 3.679975 1_555
Rb1 Sb0 3.690851 1_656
Rb1 Sb0 3.690851 1_665
Rb1 Sb0 3.753398 1_566
Rb2 Sb0 3.679975 1_555
Rb2 Sb1 3.690851 1_454
Rb2 Sb1 3.690851 1_445
Rb2 Sb1 3.753398 1_544
Ag0 Sb0 2.712872 1_555
Ag0 Sb1 2.712872 1_545
Ag0 Ag1 3.161062 1_555
Ag0 Ag1 3.161062 1_546
Ag0 Au0 3.240520 1_555
Ag0 Au0 3.240520 1_645
Ag0 Rb2 3.703055 1_556
Ag0 Rb1 3.703055 1_544
Ag0 Rb1 3.827516 1_445
Ag0 Rb2 3.827516 1_655
Ag0 Rb0 4.175574 1_545
Ag0 Rb0 4.175574 1_555
Ag1 Sb0 2.712872 1_555
Ag1 Sb1 2.712872 1_554
Ag1 Au0 3.240520 1_555
Ag1 Au0 3.240520 1_654
Ag1 Rb2 3.703055 1_565
Ag1 Rb1 3.703055 1_544
Ag1 Rb2 3.827516 1_655
Ag1 Rb1 3.827516 1_454
Ag1 Rb0 4.175574 1_554
Ag1 Rb0 4.175574 1_555
Au0 Sb0 2.677105 1_555
Au0 Sb1 2.677105 1_455
Au0 Rb1 3.697647 1_445
Au0 Rb2 3.697647 1_565
Au0 Rb2 3.697647 1_556
Au0 Rb1 3.697647 1_454
Au0 Rb0 4.281953 1_455
Au0 Rb0 4.281953 1_555
