# generated using pymatgen
data_Ca10InGa4Bi
_symmetry_space_group_name_H-M   'P 1'
_cell_length_a   9.38476947
_cell_length_b   9.38476992
_cell_length_c   9.38476880
_cell_angle_alpha   128.90592903
_cell_angle_beta   128.90593405
_cell_angle_gamma   75.16198221
_symmetry_Int_Tables_number   1
_chemical_formula_structural   Ca10InGa4Bi
_chemical_formula_sum   'Ca10 In1 Ga4 Bi1'
_cell_volume   487.29025216
_cell_formula_units_Z   1
loop_
 _symmetry_equiv_pos_site_id
 _symmetry_equiv_pos_as_xyz
  1  'x, y, z'
loop_
 _atom_site_type_symbol
 _atom_site_label
 _atom_site_symmetry_multiplicity
 _atom_site_fract_x
 _atom_site_fract_y
 _atom_site_fract_z
 _atom_site_occupancy
  Ca  Ca0  1  0.50150702  0.50150702  0.00000000  1
  Ca  Ca1  1  0.99849298  0.99849298  1.00000000  1
  Ca  Ca2  1  0.54065259  0.03863764  0.85336565  1
  Ca  Ca3  1  0.18527298  0.68728694  0.14663435  1
  Ca  Ca4  1  0.03863764  0.18527298  0.49798605  1
  Ca  Ca5  1  0.68728694  0.54065259  0.50201395  1
  Ca  Ca6  1  0.46136236  0.95934741  0.14663435  1
  Ca  Ca7  1  0.81271306  0.31472702  0.85336565  1
  Ca  Ca8  1  0.95934741  0.81271306  0.49798605  1
  Ca  Ca9  1  0.31472702  0.46136236  0.50201395  1
  In  In0  1  0.75000000  0.75000000  0.00000000  1
  Ga  Ga0  1  0.88856245  0.38856245  0.27712490  1
  Ga  Ga1  1  0.11143755  0.61143755  0.72287510  1
  Ga  Ga2  1  0.38856245  0.11143755  0.50000000  1
  Ga  Ga3  1  0.61143755  0.88856245  0.50000000  1
  Bi  Bi0  1  0.25000000  0.25000000  0.00000000  1
loop_
_geom_bond_atom_site_label_1
_geom_bond_atom_site_label_2
_geom_bond_distance
_geom_bond_site_symmetry_2
Ca0 Ga0 3.272048 1_555
Ca0 Ga1 3.272048 1_554
Ca0 Ga3 3.272048 1_555
Ca0 Ga2 3.272048 1_554
Ca0 In0 3.696261 1_555
Ca1 Ga3 3.272047 1_555
Ca1 Ga2 3.272047 1_666
Ca1 Ga1 3.272048 1_655
Ca1 Ga0 3.272048 1_566
Ca1 In0 3.696261 1_556
Ca2 Ga3 3.137460 1_545
Ca2 Ga2 3.146824 1_555
Ca2 Ga0 3.168265 1_556
Ca2 In0 3.413468 1_546
Ca3 Ga2 3.137458 1_565
Ca3 Ga3 3.146817 1_555
Ca3 Ga1 3.168260 1_554
Ca3 In0 3.413477 1_455
Ca4 Ga0 3.137459 1_455
Ca4 Ga1 3.146819 1_555
Ca4 Ga2 3.168270 1_555
Ca4 In0 3.413475 1_445
Ca5 Ga1 3.137458 1_655
Ca5 Ga0 3.146817 1_555
Ca5 Ga3 3.168261 1_555
Ca5 In0 3.413477 1_556
Ca6 Ga3 3.137460 1_555
Ca6 Ga2 3.146824 1_565
Ca6 Ga1 3.168265 1_554
Ca6 In0 3.413469 1_555
Ca7 Ga2 3.137458 1_555
Ca7 Ga3 3.146818 1_545
Ca7 Ga0 3.168260 1_556
Ca7 In0 3.413477 1_556
Ca8 Ga0 3.137458 1_555
Ca8 Ga1 3.146817 1_655
Ca8 Ga3 3.168260 1_555
Ca8 In0 3.413477 1_555
Ca9 Ga1 3.137459 1_555
Ca9 Ga0 3.146818 1_455
Ca9 Ga2 3.168270 1_555
Ca9 In0 3.413475 1_556
Ga0 Ga1 2.551298 1_655
Ga2 Ga3 2.551298 1_545
Bi0 Ca4 3.432748 1_554
Bi0 Ca9 3.432748 1_555
Bi0 Ca5 3.432751 1_555
Bi0 Ca7 3.432751 1_454
Bi0 Ca8 3.432751 1_444
Bi0 Ca3 3.432751 1_555
Bi0 Ca6 3.432752 1_545
Bi0 Ca2 3.432752 1_554
Bi0 Ca0 3.741094 1_555
Bi0 Ca1 3.741094 1_444
