# generated using pymatgen
data_KRb3CaI6
_symmetry_space_group_name_H-M   'P 1'
_cell_length_a   10.03003035
_cell_length_b   10.03003070
_cell_length_c   10.03003060
_cell_angle_alpha   90.71961674
_cell_angle_beta   90.71961311
_cell_angle_gamma   90.71961308
_symmetry_Int_Tables_number   1
_chemical_formula_structural   KRb3CaI6
_chemical_formula_sum   'K2 Rb6 Ca2 I12'
_cell_volume   1008.79547742
_cell_formula_units_Z   2
loop_
 _symmetry_equiv_pos_site_id
 _symmetry_equiv_pos_as_xyz
  1  'x, y, z'
loop_
 _atom_site_type_symbol
 _atom_site_label
 _atom_site_symmetry_multiplicity
 _atom_site_fract_x
 _atom_site_fract_y
 _atom_site_fract_z
 _atom_site_occupancy
  K  K0  1  0.25000000  0.25000000  0.25000000  1
  K  K1  1  0.75000000  0.75000000  0.75000000  1
  Rb  Rb0  1  0.37131596  0.12868404  0.75000000  1
  Rb  Rb1  1  0.12868404  0.75000000  0.37131596  1
  Rb  Rb2  1  0.75000000  0.37131596  0.12868404  1
  Rb  Rb3  1  0.62868404  0.87131596  0.25000000  1
  Rb  Rb4  1  0.25000000  0.62868404  0.87131596  1
  Rb  Rb5  1  0.87131596  0.25000000  0.62868404  1
  Ca  Ca0  1  0.00000000  0.00000000  0.00000000  1
  Ca  Ca1  1  0.50000000  0.50000000  0.50000000  1
  I  I0  1  0.94578314  0.07655166  0.29887291  1
  I  I1  1  0.07655166  0.29887291  0.94578314  1
  I  I2  1  0.29887291  0.94578314  0.07655166  1
  I  I3  1  0.57655166  0.44578314  0.79887291  1
  I  I4  1  0.79887291  0.57655166  0.44578314  1
  I  I5  1  0.44578314  0.79887291  0.57655166  1
  I  I6  1  0.20112709  0.42344834  0.55421686  1
  I  I7  1  0.42344834  0.55421686  0.20112709  1
  I  I8  1  0.55421686  0.20112709  0.42344834  1
  I  I9  1  0.92344834  0.70112709  0.05421686  1
  I  I10  1  0.05421686  0.92344834  0.70112709  1
  I  I11  1  0.70112709  0.05421686  0.92344834  1
loop_
_geom_bond_atom_site_label_1
_geom_bond_atom_site_label_2
_geom_bond_distance
_geom_bond_site_symmetry_2
Ca0 I2 3.140877 1_545
Ca0 I11 3.140877 1_454
Ca0 I0 3.140877 1_455
Ca0 I10 3.140877 1_544
Ca0 I1 3.140877 1_554
Ca0 I9 3.140877 1_445
Ca1 I4 3.140877 1_555
Ca1 I6 3.140877 1_555
Ca1 I5 3.140877 1_555
Ca1 I8 3.140877 1_555
Ca1 I3 3.140877 1_555
Ca1 I7 3.140877 1_555
I0 K0 3.535949 1_655
I0 Rb3 3.790053 1_545
I0 Rb5 3.804933 1_555
I0 Rb1 3.846858 1_645
I0 Rb2 3.962230 1_555
I1 K0 3.535949 1_556
I1 Rb5 3.790053 1_455
I1 Rb4 3.804933 1_555
I1 Rb2 3.846858 1_456
I1 Rb0 3.962230 1_555
I2 K0 3.535949 1_565
I2 Rb4 3.790053 1_554
I2 Rb3 3.804933 1_555
I2 Rb0 3.846858 1_564
I2 Rb1 3.962230 1_555
I3 K1 3.535949 1_555
I3 Rb0 3.790053 1_555
I3 Rb2 3.804933 1_556
I3 Rb4 3.846858 1_555
I3 Rb5 3.962230 1_555
I4 K1 3.535949 1_555
I4 Rb2 3.790053 1_555
I4 Rb1 3.804933 1_655
I4 Rb5 3.846858 1_555
I4 Rb3 3.962230 1_555
I5 K1 3.535949 1_555
I5 Rb1 3.790053 1_555
I5 Rb0 3.804933 1_565
I5 Rb3 3.846858 1_555
I5 Rb4 3.962230 1_555
I6 K0 3.535949 1_555
I6 Rb4 3.790053 1_555
I6 Rb5 3.804933 1_455
I6 Rb1 3.846858 1_555
I6 Rb0 3.962230 1_555
I7 K0 3.535949 1_555
I7 Rb3 3.790053 1_555
I7 Rb4 3.804933 1_554
I7 Rb2 3.846858 1_555
I7 Rb1 3.962230 1_555
I8 K0 3.535949 1_555
I8 Rb5 3.790053 1_555
I8 Rb3 3.804933 1_545
I8 Rb0 3.846858 1_555
I8 Rb2 3.962230 1_555
I9 K1 3.535949 1_554
I9 Rb1 3.790053 1_655
I9 Rb2 3.804933 1_555
I9 Rb4 3.846858 1_654
I9 Rb3 3.962230 1_555
I10 K1 3.535949 1_455
I10 Rb0 3.790053 1_565
I10 Rb1 3.804933 1_555
I10 Rb5 3.846858 1_465
I10 Rb4 3.962230 1_555
I11 K1 3.535949 1_545
I11 Rb2 3.790053 1_556
I11 Rb0 3.804933 1_555
I11 Rb3 3.846858 1_546
I11 Rb5 3.962230 1_555
