# generated using pymatgen
data_Y4Ga2ReRu5
_symmetry_space_group_name_H-M   'P 1'
_cell_length_a   5.20447840
_cell_length_b   5.46859003
_cell_length_c   8.90577438
_cell_angle_alpha   90.00000000
_cell_angle_beta   90.00000000
_cell_angle_gamma   121.69338183
_symmetry_Int_Tables_number   1
_chemical_formula_structural   Y4Ga2ReRu5
_chemical_formula_sum   'Y4 Ga2 Re1 Ru5'
_cell_volume   215.66933328
_cell_formula_units_Z   1
loop_
 _symmetry_equiv_pos_site_id
 _symmetry_equiv_pos_as_xyz
  1  'x, y, z'
loop_
 _atom_site_type_symbol
 _atom_site_label
 _atom_site_symmetry_multiplicity
 _atom_site_fract_x
 _atom_site_fract_y
 _atom_site_fract_z
 _atom_site_occupancy
  Y  Y0  1  0.33742445  0.66871272  0.43439579  1
  Y  Y1  1  0.65879375  0.32939688  0.55945447  1
  Y  Y2  1  0.65879375  0.32939688  0.94054553  1
  Y  Y3  1  0.33742445  0.66871272  0.06560421  1
  Ga  Ga0  1  0.17192696  0.34028273  0.75000000  1
  Ga  Ga1  1  0.17192696  0.83164424  0.75000000  1
  Re  Re0  1  0.33663804  0.16831802  0.25000000  1
  Ru  Ru0  1  0.82131975  0.65872789  0.25000000  1
  Ru  Ru1  1  0.66765472  0.83382736  0.75000000  1
  Ru  Ru2  1  0.00838871  0.00419485  0.00047162  1
  Ru  Ru3  1  0.82131975  0.16259286  0.25000000  1
  Ru  Ru4  1  0.00838871  0.00419485  0.49952838  1
loop_
_geom_bond_atom_site_label_1
_geom_bond_atom_site_label_2
_geom_bond_distance
_geom_bond_site_symmetry_2
Ga0 Ru1 2.573753 1_555
Ga0 Ru1 2.630766 1_445
Ga0 Ga1 2.687055 1_555
Ga0 Ru2 2.726622 1_556
Ga0 Ru4 2.726622 1_555
Ga0 Ga1 2.781535 1_545
Ga0 Y2 3.076083 1_555
Ga0 Y1 3.076083 1_555
Ga0 Y2 3.138185 1_455
Ga0 Y1 3.138185 1_455
Ga0 Y3 3.200347 1_556
Ga0 Y0 3.200347 1_555
Ga1 Ru1 2.573752 1_555
Ga1 Ru1 2.630766 1_455
Ga1 Ru2 2.726625 1_566
Ga1 Ru4 2.726625 1_565
Ga1 Y2 3.076083 1_565
Ga1 Y1 3.076083 1_565
Ga1 Y2 3.138186 1_455
Ga1 Y1 3.138186 1_455
Ga1 Y3 3.200344 1_556
Ga1 Y0 3.200344 1_555
Re0 Ru3 2.539104 1_555
Re0 Ru0 2.539113 1_555
Re0 Ru4 2.655432 1_555
Re0 Ru2 2.655432 1_555
Re0 Ru0 2.665639 1_445
Re0 Ru3 2.665647 1_455
Re0 Y1 3.103288 1_555
Re0 Y2 3.103288 1_554
Re0 Y0 3.189532 1_545
Re0 Y3 3.189532 1_545
Re0 Y0 3.189546 1_555
Re0 Y3 3.189546 1_555
Ru0 Ru3 2.713159 1_555
Ru0 Ru4 2.742758 1_665
Ru0 Ru2 2.742758 1_665
Ru0 Ru3 2.755431 1_565
Ru0 Y0 3.030958 1_555
Ru0 Y3 3.030958 1_555
Ru0 Y0 3.124187 1_655
Ru0 Y3 3.124187 1_655
Ru0 Y1 3.154913 1_555
Ru0 Y2 3.154913 1_554
Ru1 Ru2 2.693049 1_666
Ru1 Ru4 2.693049 1_665
Ru1 Y3 3.168370 1_556
Ru1 Y0 3.168370 1_555
Ru1 Y2 3.218317 1_565
Ru1 Y1 3.218317 1_565
Ru1 Y2 3.218317 1_555
Ru1 Y1 3.218317 1_555
Ru2 Ru3 2.742758 1_455
Ru2 Y2 2.929245 1_554
Ru2 Y3 3.027351 1_445
Ru2 Y3 3.152130 1_545
Ru2 Y3 3.152131 1_555
Ru2 Y2 3.187142 1_454
Ru2 Y2 3.187147 1_444
Ru3 Ru4 2.742758 1_655
Ru3 Y0 3.030958 1_545
Ru3 Y3 3.030958 1_545
Ru3 Y0 3.124188 1_655
Ru3 Y3 3.124188 1_655
Ru3 Y1 3.154910 1_555
Ru3 Y2 3.154910 1_554
Ru4 Y1 2.929245 1_555
Ru4 Y0 3.027351 1_445
Ru4 Y0 3.152130 1_545
Ru4 Y0 3.152131 1_555
Ru4 Y1 3.187142 1_455
Ru4 Y1 3.187147 1_445
