# generated using pymatgen
data_Ca6SnPd4Pb3
_symmetry_space_group_name_H-M   'P 1'
_cell_length_a   5.87990306
_cell_length_b   8.57397531
_cell_length_c   14.15622567
_cell_angle_alpha   90.00000000
_cell_angle_beta   90.00000000
_cell_angle_gamma   90.00000000
_symmetry_Int_Tables_number   1
_chemical_formula_structural   Ca6SnPd4Pb3
_chemical_formula_sum   'Ca12 Sn2 Pd8 Pb6'
_cell_volume   713.67399501
_cell_formula_units_Z   2
loop_
 _symmetry_equiv_pos_site_id
 _symmetry_equiv_pos_as_xyz
  1  'x, y, z'
loop_
 _atom_site_type_symbol
 _atom_site_label
 _atom_site_symmetry_multiplicity
 _atom_site_fract_x
 _atom_site_fract_y
 _atom_site_fract_z
 _atom_site_occupancy
  Ca  Ca0  1  0.15608746  0.39507846  0.59825133  1
  Ca  Ca1  1  0.84391254  0.60492154  0.09825133  1
  Ca  Ca2  1  0.15608746  0.10492154  0.40174867  1
  Ca  Ca3  1  0.84391254  0.89507846  0.90174867  1
  Ca  Ca4  1  0.84619599  0.60684171  0.40213905  1
  Ca  Ca5  1  0.15380401  0.39315829  0.90213905  1
  Ca  Ca6  1  0.84619599  0.89315829  0.59786095  1
  Ca  Ca7  1  0.15380401  0.10684171  0.09786095  1
  Ca  Ca8  1  0.63833695  0.25297070  0.75113333  1
  Ca  Ca9  1  0.36166305  0.74702930  0.25113333  1
  Ca  Ca10  1  0.63833695  0.24702930  0.24886667  1
  Ca  Ca11  1  0.36166305  0.75297070  0.74886667  1
  Sn  Sn0  1  0.33649401  0.75000000  0.50000000  1
  Sn  Sn1  1  0.66350599  0.25000000  0.00000000  1
  Pd  Pd0  1  0.37813786  0.03275821  0.58678113  1
  Pd  Pd1  1  0.62186214  0.96724179  0.08678113  1
  Pd  Pd2  1  0.37813786  0.46724179  0.41321887  1
  Pd  Pd3  1  0.62186214  0.53275821  0.91321887  1
  Pd  Pd4  1  0.61415930  0.95600752  0.41156525  1
  Pd  Pd5  1  0.38584070  0.04399248  0.91156525  1
  Pd  Pd6  1  0.61415930  0.54399248  0.58843475  1
  Pd  Pd7  1  0.38584070  0.45600752  0.08843475  1
  Pb  Pb0  1  0.67107293  0.25000000  0.50000000  1
  Pb  Pb1  1  0.32892707  0.75000000  0.00000000  1
  Pb  Pb2  1  0.13709529  0.09880024  0.74947356  1
  Pb  Pb3  1  0.86290471  0.90119976  0.24947356  1
  Pb  Pb4  1  0.13709529  0.40119976  0.25052644  1
  Pb  Pb5  1  0.86290471  0.59880024  0.75052644  1
loop_
_geom_bond_atom_site_label_1
_geom_bond_atom_site_label_2
_geom_bond_distance
_geom_bond_site_symmetry_2
Ca0 Pd6 2.983956 1_555
Ca0 Pd2 2.991414 1_555
Ca0 Pb5 3.266428 1_455
Ca0 Pb2 3.323892 1_555
Ca0 Pd0 3.373655 1_555
Ca0 Pb0 3.408047 1_455
Ca0 Pd6 3.435575 1_455
Ca0 Sn0 3.510006 1_555
Ca0 Pb0 3.556821 1_555
Ca1 Pd7 2.983956 1_555
Ca1 Pd3 2.991414 1_554
Ca1 Pb4 3.266428 1_655
Ca1 Pb3 3.323892 1_555
Ca1 Pd1 3.373655 1_555
Ca1 Pb1 3.408047 1_655
Ca1 Pd7 3.435575 1_655
Ca1 Sn1 3.510006 1_555
Ca1 Pb1 3.556821 1_555
Ca2 Pd4 2.983956 1_545
Ca2 Pd0 2.991414 1_555
Ca2 Pb3 3.266428 1_445
Ca2 Pb4 3.323892 1_555
Ca2 Pd2 3.373655 1_555
Ca2 Pb0 3.408047 1_455
Ca2 Pd4 3.435575 1_445
Ca2 Sn0 3.510006 1_545
Ca2 Pb0 3.556821 1_555
Ca3 Pd5 2.983956 1_565
Ca3 Pd1 2.991414 1_556
Ca3 Pb2 3.266428 1_665
Ca3 Pb5 3.323892 1_555
Ca3 Pd3 3.373655 1_555
Ca3 Pb1 3.408047 1_656
Ca3 Pd5 3.435575 1_665
Ca3 Sn1 3.510006 1_566
Ca3 Pb1 3.556821 1_556
Ca4 Pd2 3.005244 1_555
Ca4 Pd6 3.017763 1_555
Ca4 Pb4 3.262036 1_655
Ca4 Pd4 3.292680 1_555
Ca4 Pb3 3.324147 1_555
Ca4 Pd2 3.352634 1_655
Ca4 Sn0 3.425917 1_655
Ca4 Pb0 3.512880 1_555
Ca4 Sn0 3.522466 1_555
Ca5 Pd3 3.005244 1_555
Ca5 Pd7 3.017763 1_556
Ca5 Pb5 3.262036 1_455
Ca5 Pd5 3.292680 1_555
Ca5 Pb2 3.324147 1_555
Ca5 Pd3 3.352634 1_455
Ca5 Sn1 3.425917 1_456
Ca5 Pb1 3.512880 1_556
Ca5 Sn1 3.522466 1_556
Ca6 Pd0 3.005244 1_565
Ca6 Pd4 3.017763 1_555
Ca6 Pb2 3.262036 1_665
Ca6 Pd6 3.292680 1_555
Ca6 Pb5 3.324147 1_555
Ca6 Pd0 3.352634 1_665
Ca6 Sn0 3.425917 1_655
Ca6 Pb0 3.512880 1_565
Ca6 Sn0 3.522466 1_555
Ca7 Pd1 3.005244 1_545
Ca7 Pd5 3.017763 1_554
Ca7 Pb3 3.262036 1_445
Ca7 Pd7 3.292680 1_555
Ca7 Pb4 3.324147 1_555
Ca7 Pd1 3.352634 1_445
Ca7 Sn1 3.425917 1_455
Ca7 Pb1 3.512880 1_545
Ca7 Sn1 3.522466 1_555
Ca8 Pb2 3.216876 1_655
Ca8 Pb2 3.230193 1_555
Ca8 Pb5 3.245866 1_555
Ca8 Pd5 3.251552 1_555
Ca8 Pd3 3.320976 1_555
Ca8 Pd0 3.364334 1_555
Ca8 Pd6 3.398679 1_555
Ca8 Sn1 3.526212 1_556
Ca8 Pb0 3.560398 1_555
Ca9 Pb3 3.216876 1_455
Ca9 Pb3 3.230193 1_555
Ca9 Pb4 3.245866 1_555
Ca9 Pd4 3.251552 1_555
Ca9 Pd2 3.320976 1_555
Ca9 Pd1 3.364334 1_555
Ca9 Pd7 3.398679 1_555
Ca9 Sn0 3.526212 1_555
Ca9 Pb1 3.560398 1_555
Ca10 Pb4 3.216876 1_655
Ca10 Pb4 3.230193 1_555
Ca10 Pb3 3.245866 1_545
Ca10 Pd7 3.251552 1_555
Ca10 Pd1 3.320976 1_545
Ca10 Pd2 3.364334 1_555
Ca10 Pd4 3.398679 1_545
Ca10 Sn1 3.526212 1_555
Ca10 Pb0 3.560398 1_555
Ca11 Pb5 3.216876 1_455
Ca11 Pb5 3.230193 1_555
Ca11 Pb2 3.245866 1_565
Ca11 Pd6 3.251552 1_555
Ca11 Pd0 3.320976 1_565
Ca11 Pd3 3.364334 1_555
Ca11 Pd5 3.398679 1_565
Ca11 Sn0 3.526212 1_555
Ca11 Pb1 3.560398 1_556
Pd0 Sn0 2.728861 1_545
Pd0 Pd4 2.917421 1_545
Pd1 Sn1 2.728861 1_565
Pd1 Pd5 2.917421 1_564
Pd2 Sn0 2.728861 1_555
Pd2 Pd6 2.917421 1_555
Pd3 Sn1 2.728861 1_556
Pd3 Pd7 2.917421 1_556
Pd4 Sn0 2.711571 1_555
Pd5 Sn1 2.711571 1_556
Pd6 Sn0 2.711571 1_555
Pd7 Sn1 2.711571 1_555
Pb0 Pd2 2.818747 1_555
Pb0 Pd0 2.818747 1_555
Pb0 Pd6 2.834272 1_555
Pb0 Pd4 2.834272 1_545
Pb1 Pd1 2.818747 1_555
Pb1 Pd3 2.818747 1_554
Pb1 Pd5 2.834272 1_564
Pb1 Pd7 2.834272 1_555
Pb2 Pd5 2.761384 1_555
Pb2 Pd0 2.762917 1_555
Pb3 Pd4 2.761384 1_555
Pb3 Pd1 2.762917 1_555
Pb4 Pd7 2.761384 1_555
Pb4 Pd2 2.762917 1_555
Pb5 Pd6 2.761384 1_555
Pb5 Pd3 2.762917 1_555
