# generated using pymatgen
data_Ba2Re6Se11
_symmetry_space_group_name_H-M   'P 1'
_cell_length_a   12.49804843
_cell_length_b   12.49804839
_cell_length_c   12.49804798
_cell_angle_alpha   45.33916174
_cell_angle_beta   45.33916338
_cell_angle_gamma   45.33916077
_symmetry_Int_Tables_number   1
_chemical_formula_structural   Ba2Re6Se11
_chemical_formula_sum   'Ba4 Re12 Se22'
_cell_volume   899.59669927
_cell_formula_units_Z   2
loop_
 _symmetry_equiv_pos_site_id
 _symmetry_equiv_pos_as_xyz
  1  'x, y, z'
loop_
 _atom_site_type_symbol
 _atom_site_label
 _atom_site_symmetry_multiplicity
 _atom_site_fract_x
 _atom_site_fract_y
 _atom_site_fract_z
 _atom_site_occupancy
  Ba  Ba0  1  0.31034937  0.31034937  0.31034937  1
  Ba  Ba1  1  0.18965063  0.18965063  0.18965063  1
  Ba  Ba2  1  0.68965063  0.68965063  0.68965063  1
  Ba  Ba3  1  0.81034937  0.81034937  0.81034937  1
  Re  Re0  1  0.61364915  0.30004115  0.48871501  1
  Re  Re1  1  0.48871501  0.61364915  0.30004115  1
  Re  Re2  1  0.80004115  0.11364915  0.98871501  1
  Re  Re3  1  0.98871501  0.80004115  0.11364915  1
  Re  Re4  1  0.11364915  0.98871501  0.80004115  1
  Re  Re5  1  0.69995885  0.51128499  0.38635085  1
  Re  Re6  1  0.38635085  0.69995885  0.51128499  1
  Re  Re7  1  0.51128499  0.38635085  0.69995885  1
  Re  Re8  1  0.30004115  0.48871501  0.61364915  1
  Re  Re9  1  0.88635085  0.01128499  0.19995885  1
  Re  Re10  1  0.01128499  0.19995885  0.88635085  1
  Re  Re11  1  0.19995885  0.88635085  0.01128499  1
  Se  Se0  1  0.09145334  0.09145334  0.09145334  1
  Se  Se1  1  0.40854666  0.40854666  0.40854666  1
  Se  Se2  1  0.90854666  0.90854666  0.90854666  1
  Se  Se3  1  0.59145334  0.59145334  0.59145334  1
  Se  Se4  1  0.25000000  0.98169791  0.51830209  1
  Se  Se5  1  0.51830209  0.25000000  0.98169791  1
  Se  Se6  1  0.98169791  0.51830209  0.25000000  1
  Se  Se7  1  0.75000000  0.01830209  0.48169791  1
  Se  Se8  1  0.48169791  0.75000000  0.01830209  1
  Se  Se9  1  0.01830209  0.48169791  0.75000000  1
  Se  Se10  1  0.07196034  0.70661561  0.31270824  1
  Se  Se11  1  0.31270824  0.07196034  0.70661561  1
  Se  Se12  1  0.70661561  0.31270824  0.07196034  1
  Se  Se13  1  0.42803966  0.18729176  0.79338439  1
  Se  Se14  1  0.79338439  0.42803966  0.18729176  1
  Se  Se15  1  0.18729176  0.79338439  0.42803966  1
  Se  Se16  1  0.81270824  0.20661561  0.57196034  1
  Se  Se17  1  0.20661561  0.57196034  0.81270824  1
  Se  Se18  1  0.57196034  0.81270824  0.20661561  1
  Se  Se19  1  0.29338439  0.68729176  0.92803966  1
  Se  Se20  1  0.68729176  0.92803966  0.29338439  1
  Se  Se21  1  0.92803966  0.29338439  0.68729176  1
loop_
_geom_bond_atom_site_label_1
_geom_bond_atom_site_label_2
_geom_bond_distance
_geom_bond_site_symmetry_2
Ba0 Se6 3.284375 1_455
Ba0 Se5 3.284375 1_554
Ba0 Se4 3.284375 1_545
Ba0 Se1 3.297112 1_555
Ba0 Se11 3.569808 1_555
Ba0 Se10 3.569809 1_555
Ba0 Se12 3.569809 1_555
Ba0 Se19 3.666671 1_554
Ba0 Se20 3.666671 1_545
Ba0 Se21 3.666671 1_455
Ba1 Se4 3.284375 1_545
Ba1 Se6 3.284375 1_455
Ba1 Se5 3.284375 1_554
Ba1 Se0 3.297112 1_555
Ba1 Se13 3.569809 1_554
Ba1 Se14 3.569809 1_455
Ba1 Se15 3.569809 1_545
Ba1 Se18 3.666671 1_545
Ba1 Se17 3.666671 1_554
Ba1 Se16 3.666671 1_455
Ba2 Se9 3.284375 1_655
Ba2 Se8 3.284375 1_556
Ba2 Se7 3.284375 1_565
Ba2 Se3 3.297112 1_555
Ba2 Se20 3.569808 1_555
Ba2 Se21 3.569809 1_555
Ba2 Se19 3.569809 1_555
Ba2 Se12 3.666671 1_556
Ba2 Se11 3.666671 1_565
Ba2 Se10 3.666671 1_655
Ba3 Se7 3.284375 1_565
Ba3 Se9 3.284375 1_655
Ba3 Se8 3.284375 1_556
Ba3 Se2 3.297112 1_555
Ba3 Se18 3.569809 1_556
Ba3 Se17 3.569809 1_655
Ba3 Se16 3.569809 1_565
Ba3 Se13 3.666671 1_565
Ba3 Se14 3.666671 1_556
Ba3 Se15 3.666671 1_655
Re0 Se1 2.495482 1_555
Re0 Se14 2.545598 1_555
Re0 Se16 2.546059 1_555
Re0 Se13 2.549627 1_555
Re0 Se7 2.664370 1_555
Re1 Se1 2.495482 1_555
Re1 Se15 2.545598 1_555
Re1 Se18 2.546059 1_555
Re1 Se14 2.549627 1_555
Re1 Se8 2.664370 1_555
Re2 Se2 2.495482 1_545
Re2 Se21 2.545598 1_555
Re2 Se12 2.546059 1_556
Re2 Se20 2.549627 1_546
Re2 Se5 2.664370 1_555
Re3 Se2 2.495482 1_554
Re3 Se20 2.545598 1_555
Re3 Se10 2.546059 1_655
Re3 Se19 2.549627 1_654
Re3 Se6 2.664370 1_555
Re4 Se2 2.495482 1_455
Re4 Se19 2.545598 1_555
Re4 Se11 2.546059 1_565
Re4 Se21 2.549627 1_465
Re4 Se4 2.664370 1_555
Re5 Se3 2.495482 1_555
Re5 Se18 2.545598 1_555
Re5 Se14 2.546059 1_555
Re5 Se16 2.549627 1_555
Re5 Se6 2.664370 1_555
Re6 Se3 2.495482 1_555
Re6 Se17 2.545598 1_555
Re6 Se15 2.546059 1_555
Re6 Se18 2.549627 1_555
Re6 Se4 2.664370 1_555
Re7 Se3 2.495482 1_555
Re7 Se16 2.545598 1_555
Re7 Se13 2.546059 1_555
Re7 Se17 2.549627 1_555
Re7 Se5 2.664370 1_555
Re8 Se1 2.495482 1_555
Re8 Se13 2.545598 1_555
Re8 Se17 2.546059 1_555
Re8 Se15 2.549627 1_555
Re8 Se9 2.664370 1_555
Re9 Se0 2.495482 1_655
Re9 Se12 2.545598 1_555
Re9 Se20 2.546059 1_545
Re9 Se10 2.549627 1_645
Re9 Se7 2.664370 1_555
Re10 Se0 2.495482 1_556
Re10 Se11 2.545598 1_555
Re10 Se21 2.546059 1_455
Re10 Se12 2.549627 1_456
Re10 Se9 2.664370 1_555
Re11 Se0 2.495482 1_565
Re11 Se10 2.545598 1_555
Re11 Se19 2.546059 1_554
Re11 Se11 2.549627 1_564
Re11 Se8 2.664370 1_555
