# generated using pymatgen
data_CsNd5Se8
_symmetry_space_group_name_H-M   'P 1'
_cell_length_a   7.92624386
_cell_length_b   7.92624386
_cell_length_c   7.92624386
_cell_angle_alpha   109.08688945
_cell_angle_beta   109.08688945
_cell_angle_gamma   110.24264808
_symmetry_Int_Tables_number   1
_chemical_formula_structural   CsNd5Se8
_chemical_formula_sum   'Cs1 Nd5 Se8'
_cell_volume   383.28450064
_cell_formula_units_Z   1
loop_
 _symmetry_equiv_pos_site_id
 _symmetry_equiv_pos_as_xyz
  1  'x, y, z'
loop_
 _atom_site_type_symbol
 _atom_site_label
 _atom_site_symmetry_multiplicity
 _atom_site_fract_x
 _atom_site_fract_y
 _atom_site_fract_z
 _atom_site_occupancy
  Cs  Cs0  1  0.00000000  0.00000000  0.00000000  1
  Nd  Nd0  1  0.11664100  0.50309600  0.87703600  1
  Nd  Nd1  1  0.76039500  0.88335900  0.38645500  1
  Nd  Nd2  1  0.62606100  0.23960500  0.12296400  1
  Nd  Nd3  1  0.49690400  0.37393900  0.61354500  1
  Nd  Nd4  1  0.25000000  0.75000000  0.50000000  1
  Se  Se0  1  0.39731800  0.96971500  0.25877700  1
  Se  Se1  1  0.38788900  0.50168600  0.25797900  1
  Se  Se2  1  0.86145900  0.60268200  0.57239600  1
  Se  Se3  1  0.03028500  0.28906200  0.42760400  1
  Se  Se4  1  0.24370700  0.12991100  0.74202100  1
  Se  Se5  1  0.49831400  0.75629300  0.88620400  1
  Se  Se6  1  0.87008900  0.61211100  0.11379600  1
  Se  Se7  1  0.71093800  0.13854100  0.74122300  1
loop_
_geom_bond_atom_site_label_1
_geom_bond_atom_site_label_2
_geom_bond_distance
_geom_bond_site_symmetry_2
Cs0 Se7 3.286801 1_454
Cs0 Se0 3.286801 1_545
Cs0 Se2 3.286806 1_444
Cs0 Se3 3.286807 1_555
Cs0 Se6 3.399520 1_445
Cs0 Se1 3.399524 1_555
Cs0 Se4 3.399527 1_554
Cs0 Se5 3.399527 1_444
Nd0 Se5 2.957108 1_555
Nd0 Se7 3.020075 1_455
Nd0 Se1 3.087501 1_556
Nd0 Se3 3.112231 1_555
Nd0 Se2 3.114780 1_455
Nd0 Se0 3.220040 1_556
Nd0 Se6 3.254814 1_456
Nd0 Se4 3.406655 1_555
Nd1 Se1 2.957112 1_555
Nd1 Se3 3.020071 1_665
Nd1 Se6 3.087500 1_555
Nd1 Se0 3.112238 1_555
Nd1 Se7 3.114775 1_565
Nd1 Se2 3.220035 1_555
Nd1 Se4 3.254812 1_665
Nd1 Se5 3.406655 1_554
Nd2 Se6 2.957112 1_555
Nd2 Se0 3.020079 1_545
Nd2 Se4 3.087509 1_554
Nd2 Se2 3.112234 1_555
Nd2 Se3 3.114772 1_655
Nd2 Se7 3.220035 1_554
Nd2 Se5 3.254809 1_544
Nd2 Se1 3.406669 1_555
Nd3 Se4 2.957104 1_555
Nd3 Se2 3.020082 1_555
Nd3 Se5 3.087510 1_555
Nd3 Se7 3.112231 1_555
Nd3 Se0 3.114770 1_545
Nd3 Se3 3.220042 1_555
Nd3 Se1 3.254818 1_555
Nd3 Se6 3.406653 1_556
Nd4 Se1 3.023036 1_555
Nd4 Se4 3.023042 1_565
Nd4 Se5 3.023042 1_555
Nd4 Se6 3.023045 1_455
Nd4 Se2 3.206656 1_455
Nd4 Se7 3.206660 1_565
Nd4 Se0 3.206660 1_555
Nd4 Se3 3.206663 1_555
