# generated using pymatgen
data_Sr6ScBi(BO3)6
_symmetry_space_group_name_H-M   'P 1'
_cell_length_a   7.76867742
_cell_length_b   7.76867801
_cell_length_c   7.76867828
_cell_angle_alpha   105.04733021
_cell_angle_beta   105.04733418
_cell_angle_gamma   105.04732888
_symmetry_Int_Tables_number   1
_chemical_formula_structural   Sr6ScBi(BO3)6
_chemical_formula_sum   'Sr6 Sc1 Bi1 B6 O18'
_cell_volume   409.49329335
_cell_formula_units_Z   1
loop_
 _symmetry_equiv_pos_site_id
 _symmetry_equiv_pos_as_xyz
  1  'x, y, z'
loop_
 _atom_site_type_symbol
 _atom_site_label
 _atom_site_symmetry_multiplicity
 _atom_site_fract_x
 _atom_site_fract_y
 _atom_site_fract_z
 _atom_site_occupancy
  Sr  Sr0  1  0.64803099  0.26500213  0.15939605  1
  Sr  Sr1  1  0.15939605  0.64803099  0.26500113  1
  Sr  Sr2  1  0.73499787  0.84060395  0.35196901  1
  Sr  Sr3  1  0.26500213  0.15939605  0.64803099  1
  Sr  Sr4  1  0.84060395  0.35196901  0.73499787  1
  Sr  Sr5  1  0.35196901  0.73499787  0.84060395  1
  Sc  Sc0  1  0.50000000  0.50000000  0.50000000  1
  Bi  Bi0  1  0.00000000  0.00000000  0.00000000  1
  B  B0  1  0.29843229  0.38206064  0.04330463  1
  B  B1  1  0.38206064  0.04330563  0.29843229  1
  B  B2  1  0.04330563  0.29843229  0.38206064  1
  B  B3  1  0.95669437  0.70156771  0.61793936  1
  B  B4  1  0.61793936  0.95669437  0.70156771  1
  B  B5  1  0.70156771  0.61793936  0.95669437  1
  O  O0  1  0.71717037  0.80852051  0.01657493  1
  O  O1  1  0.80850471  0.54845856  0.06962657  1
  O  O2  1  0.98342507  0.28282963  0.19147949  1
  O  O3  1  0.45154044  0.93037243  0.19149529  1
  O  O4  1  0.43212184  0.50042601  0.22070048  1
  O  O5  1  0.19147949  0.98342507  0.28282963  1
  O  O6  1  0.50042601  0.22070048  0.43212084  1
  O  O7  1  0.93037243  0.19149629  0.45154044  1
  O  O8  1  0.22070048  0.43212184  0.50042601  1
  O  O9  1  0.77929952  0.56787816  0.49957399  1
  O  O10  1  0.06962757  0.80850371  0.54845956  1
  O  O11  1  0.49957399  0.77929952  0.56787916  1
  O  O12  1  0.80852051  0.01657493  0.71717037  1
  O  O13  1  0.56787816  0.49957399  0.77929952  1
  O  O14  1  0.54845956  0.06962757  0.80850471  1
  O  O15  1  0.01657493  0.71717037  0.80852051  1
  O  O16  1  0.19149529  0.45154144  0.93037343  1
  O  O17  1  0.28282963  0.19147949  0.98342507  1
loop_
_geom_bond_atom_site_label_1
_geom_bond_atom_site_label_2
_geom_bond_distance
_geom_bond_site_symmetry_2
Bi0 O17 2.367779 1_554
Bi0 O0 2.367779 1_445
Bi0 O12 2.367779 1_454
Bi0 O5 2.367779 1_545
Bi0 O2 2.367779 1_455
Bi0 O15 2.367779 1_544
B0 O16 1.360698 1_554
B0 O4 1.387950 1_555
B0 O17 1.393945 1_554
B1 O3 1.360702 1_545
B1 O6 1.387943 1_555
B1 O5 1.393945 1_545
B2 O7 1.360697 1_455
B2 O8 1.387945 1_555
B2 O2 1.393945 1_455
B3 O10 1.360697 1_655
B3 O9 1.387945 1_555
B3 O15 1.393945 1_655
B4 O14 1.360702 1_565
B4 O11 1.387943 1_555
B4 O12 1.393945 1_565
B5 O1 1.360702 1_556
B5 O13 1.387946 1_555
B5 O0 1.393945 1_556
O0 Sr2 2.515511 1_555
O0 Sr5 2.642669 1_554
O1 Sr1 2.545611 1_655
O1 Sr0 2.590963 1_555
O1 Sr4 2.761182 1_554
O1 Sr2 3.004451 1_555
O2 Sr0 2.515510 1_555
O2 Sr1 2.642670 1_655
O3 Sr5 2.545612 1_554
O3 Sr2 2.590964 1_555
O3 Sr0 2.761191 1_565
O3 Sr1 3.004437 1_555
O4 Sc0 2.096807 1_555
O4 Sr1 2.712474 1_555
O4 Sr2 2.772437 1_555
O4 Sr0 2.817910 1_555
O5 Sr1 2.515509 1_555
O5 Sr3 2.642669 1_565
O6 Sc0 2.096807 1_555
O6 Sr0 2.712469 1_555
O6 Sr4 2.772441 1_555
O6 Sr3 2.817916 1_555
O7 Sr2 2.545619 1_545
O7 Sr4 2.590961 1_555
O7 Sr3 2.761194 1_655
O7 Sr0 3.004437 1_555
O8 Sc0 2.096807 1_555
O8 Sr3 2.712476 1_555
O8 Sr5 2.772437 1_555
O8 Sr1 2.817916 1_555
O9 Sc0 2.096807 1_555
O9 Sr2 2.712476 1_555
O9 Sr0 2.772437 1_555
O9 Sr4 2.817910 1_555
O10 Sr3 2.545619 1_565
O10 Sr1 2.590968 1_555
O10 Sr2 2.761194 1_455
O10 Sr5 3.004437 1_555
O11 Sc0 2.096807 1_555
O11 Sr5 2.712469 1_555
O11 Sr1 2.772444 1_555
O11 Sr2 2.817916 1_555
O12 Sr4 2.515510 1_555
O12 Sr2 2.642669 1_545
O13 Sc0 2.096807 1_555
O13 Sr4 2.712476 1_555
O13 Sr3 2.772437 1_555
O13 Sr5 2.817910 1_555
O14 Sr0 2.545612 1_556
O14 Sr3 2.590964 1_555
O14 Sr5 2.761191 1_545
O14 Sr4 3.004441 1_555
O15 Sr5 2.515510 1_555
O15 Sr4 2.642669 1_455
O16 Sr4 2.545613 1_455
O16 Sr5 2.590963 1_555
O16 Sr1 2.761175 1_556
O16 Sr3 3.004451 1_555
O17 Sr3 2.515511 1_555
O17 Sr0 2.642669 1_556
