# generated using pymatgen
data_RbBiTeO6
_symmetry_space_group_name_H-M   'P 1'
_cell_length_a   7.38889785
_cell_length_b   7.38889828
_cell_length_c   7.38889771
_cell_angle_alpha   120.22104658
_cell_angle_beta   119.60959425
_cell_angle_gamma   90.14754386
_symmetry_Int_Tables_number   1
_chemical_formula_structural   RbBiTeO6
_chemical_formula_sum   'Rb2 Bi2 Te2 O12'
_cell_volume   285.60286346
_cell_formula_units_Z   2
loop_
 _symmetry_equiv_pos_site_id
 _symmetry_equiv_pos_as_xyz
  1  'x, y, z'
loop_
 _atom_site_type_symbol
 _atom_site_label
 _atom_site_symmetry_multiplicity
 _atom_site_fract_x
 _atom_site_fract_y
 _atom_site_fract_z
 _atom_site_occupancy
  Rb  Rb0  1  0.63546115  0.88546115  0.75000000  1
  Rb  Rb1  1  0.36453885  0.11453885  0.25000000  1
  Bi  Bi0  1  0.50000000  0.50000000  0.00000000  1
  Bi  Bi1  1  0.00000000  0.50000000  0.50000000  1
  Te  Te0  1  0.00000000  0.50000000  0.00000000  1
  Te  Te1  1  0.00000000  0.00000000  0.50000000  1
  O  O0  1  0.05553783  0.80553783  0.25000000  1
  O  O1  1  0.65918824  0.40918824  0.25000000  1
  O  O2  1  0.06191856  0.84202607  0.65147869  1
  O  O3  1  0.69054738  0.41043987  0.84852131  1
  O  O4  1  0.69054738  0.84202607  0.28010851  1
  O  O5  1  0.06191856  0.41043987  0.21989149  1
  O  O6  1  0.94446217  0.19446217  0.75000000  1
  O  O7  1  0.34081176  0.59081176  0.75000000  1
  O  O8  1  0.93808144  0.15797393  0.34852131  1
  O  O9  1  0.30945262  0.58956013  0.15147869  1
  O  O10  1  0.30945262  0.15797393  0.71989149  1
  O  O11  1  0.93808144  0.58956013  0.78010851  1
loop_
_geom_bond_atom_site_label_1
_geom_bond_atom_site_label_2
_geom_bond_distance
_geom_bond_site_symmetry_2
Bi0 O1 2.085845 1_555
Bi0 O7 2.085845 1_554
Bi0 O9 2.118805 1_555
Bi0 O3 2.118805 1_554
Bi0 O4 2.118805 1_555
Bi0 O10 2.118805 1_554
Bi1 O7 2.085845 1_555
Bi1 O1 2.085845 1_455
Bi1 O2 2.118805 1_555
Bi1 O8 2.118805 1_455
Bi1 O11 2.118812 1_455
Bi1 O5 2.118812 1_555
O0 Te1 1.930127 1_565
O0 Te0 1.930127 1_555
O0 Rb1 3.224740 1_565
O1 Rb1 3.074966 1_555
O2 Te1 1.906949 1_565
O2 Rb1 3.138925 1_566
O3 Te0 1.906949 1_656
O3 Rb1 3.138925 1_555
O4 Te1 1.906949 1_665
O4 Rb1 3.138925 1_565
O5 Te0 1.906942 1_555
O5 Rb1 3.138926 1_555
O6 Te1 1.930127 1_655
O6 Te0 1.930127 1_656
O6 Rb0 3.224740 1_545
O7 Rb0 3.074966 1_555
O8 Te1 1.906949 1_655
O8 Rb0 3.138925 1_544
O9 Te0 1.906949 1_555
O9 Rb0 3.138925 1_555
O10 Te1 1.906949 1_555
O10 Rb0 3.138925 1_545
O11 Te0 1.906942 1_656
O11 Rb0 3.138926 1_555
