# generated using pymatgen
data_Li3InSiPd3
_symmetry_space_group_name_H-M   'P 1'
_cell_length_a   6.91334143
_cell_length_b   6.91334169
_cell_length_c   6.91334040
_cell_angle_alpha   61.25360663
_cell_angle_beta   61.25361537
_cell_angle_gamma   61.25362453
_symmetry_Int_Tables_number   1
_chemical_formula_structural   Li3InSiPd3
_chemical_formula_sum   'Li6 In2 Si2 Pd6'
_cell_volume   240.22698186
_cell_formula_units_Z   2
loop_
 _symmetry_equiv_pos_site_id
 _symmetry_equiv_pos_as_xyz
  1  'x, y, z'
loop_
 _atom_site_type_symbol
 _atom_site_label
 _atom_site_symmetry_multiplicity
 _atom_site_fract_x
 _atom_site_fract_y
 _atom_site_fract_z
 _atom_site_occupancy
  Li  Li0  1  0.56685861  0.83041641  0.34087074  1
  Li  Li1  1  0.34087074  0.56685861  0.83041641  1
  Li  Li2  1  0.83041641  0.34087074  0.56685861  1
  Li  Li3  1  0.65912926  0.16958359  0.43314139  1
  Li  Li4  1  0.16958359  0.43314139  0.65912926  1
  Li  Li5  1  0.43314139  0.65912926  0.16958359  1
  In  In0  1  0.28201458  0.28201458  0.28201458  1
  In  In1  1  0.71798542  0.71798542  0.71798542  1
  Si  Si0  1  0.89978137  0.89978137  0.89978137  1
  Si  Si1  1  0.10021863  0.10021863  0.10021863  1
  Pd  Pd0  1  0.90396661  0.50000000  0.09603339  1
  Pd  Pd1  1  0.09603339  0.90396661  0.50000000  1
  Pd  Pd2  1  0.50000000  0.09603339  0.90396661  1
  Pd  Pd3  1  0.25332284  1.00000000  0.74667716  1
  Pd  Pd4  1  0.74667716  0.25332284  0.00000000  1
  Pd  Pd5  1  0.00000000  0.74667716  0.25332284  1
loop_
_geom_bond_atom_site_label_1
_geom_bond_atom_site_label_2
_geom_bond_distance
_geom_bond_site_symmetry_2
Li0 Pd5 2.567984 1_655
Li0 Pd1 2.750537 1_555
Li0 Si0 2.780359 1_554
Li0 Pd2 2.810757 1_564
Li0 Pd0 2.884179 1_555
Li0 Pd3 2.968796 1_555
Li1 Pd3 2.567984 1_555
Li1 Pd2 2.750537 1_555
Li1 Si0 2.780360 1_455
Li1 Pd0 2.810757 1_456
Li1 Pd1 2.884179 1_555
Li1 Pd4 2.968796 1_556
Li2 Pd4 2.567983 1_556
Li2 Pd0 2.750536 1_555
Li2 Si0 2.780359 1_545
Li2 Pd1 2.810758 1_645
Li2 Pd2 2.884179 1_555
Li2 Pd5 2.968795 1_655
Li3 Pd4 2.567983 1_555
Li3 Pd2 2.750536 1_555
Li3 Si1 2.780359 1_655
Li3 Pd1 2.810757 1_645
Li3 Pd0 2.884178 1_555
Li3 Pd3 2.968795 1_545
Li4 Pd3 2.567984 1_545
Li4 Pd1 2.750537 1_555
Li4 Si1 2.780359 1_556
Li4 Pd0 2.810757 1_456
Li4 Pd2 2.884179 1_555
Li4 Pd5 2.968795 1_555
Li5 Pd5 2.567984 1_555
Li5 Pd0 2.750537 1_555
Li5 Si1 2.780360 1_565
Li5 Pd2 2.810757 1_564
Li5 Pd1 2.884179 1_555
Li5 Pd4 2.968796 1_555
In0 Li1 2.725040 1_554
In0 Li2 2.725041 1_455
In0 Li0 2.725041 1_545
In0 Pd3 2.809756 1_545
In0 Pd4 2.809757 1_555
In0 Pd5 2.809757 1_555
In0 Pd1 2.887046 1_545
In0 Pd2 2.887046 1_554
In0 Pd0 2.887046 1_455
In0 Li4 2.895266 1_555
In0 Li5 2.895266 1_555
In0 Li3 2.895266 1_555
In0 Si1 3.049071 1_555
In1 Li5 2.725041 1_556
In1 Li3 2.725041 1_565
In1 Li4 2.725041 1_655
In1 Pd5 2.809756 1_655
In1 Pd4 2.809756 1_556
In1 Pd3 2.809757 1_555
In1 Pd0 2.887045 1_556
In1 Pd1 2.887046 1_655
In1 Pd2 2.887046 1_565
In1 Li0 2.895266 1_555
In1 Li1 2.895266 1_555
In1 Li2 2.895266 1_555
In1 Si0 3.049071 1_555
Pd0 Si0 2.415440 1_554
Pd0 Si1 2.415440 1_655
Pd1 Si1 2.415439 1_565
Pd1 Si0 2.415440 1_455
Pd2 Si1 2.415440 1_556
Pd2 Si0 2.415440 1_545
Pd3 Si1 2.451393 1_566
Pd3 Si0 2.451393 1_455
Pd4 Si1 2.451393 1_655
Pd4 Si0 2.451394 1_544
Pd5 Si0 2.451393 1_454
Pd5 Si1 2.451393 1_565
