# generated using pymatgen
data_Hf2Zr2ScSn3
_symmetry_space_group_name_H-M   'P 1'
_cell_length_a   8.46328144
_cell_length_b   8.46399235
_cell_length_c   5.80107094
_cell_angle_alpha   90.00000000
_cell_angle_beta   90.00000000
_cell_angle_gamma   120.00276134
_symmetry_Int_Tables_number   1
_chemical_formula_structural   Hf2Zr2ScSn3
_chemical_formula_sum   'Hf4 Zr4 Sc2 Sn6'
_cell_volume   359.86596032
_cell_formula_units_Z   2
loop_
 _symmetry_equiv_pos_site_id
 _symmetry_equiv_pos_as_xyz
  1  'x, y, z'
loop_
 _atom_site_type_symbol
 _atom_site_label
 _atom_site_symmetry_multiplicity
 _atom_site_fract_x
 _atom_site_fract_y
 _atom_site_fract_z
 _atom_site_occupancy
  Hf  Hf0  1  0.66825201  0.33237481  0.00037503  1
  Hf  Hf1  1  0.33174799  0.66412380  0.00037503  1
  Hf  Hf2  1  0.33174799  0.66412380  0.49962497  1
  Hf  Hf3  1  0.66825201  0.33237481  0.49962497  1
  Zr  Zr0  1  1.00000000  0.24951938  0.75000000  1
  Zr  Zr1  1  0.24483316  0.24480884  0.25000000  1
  Zr  Zr2  1  0.75516684  0.99997468  0.25000000  1
  Zr  Zr3  1  0.00000000  0.75440097  0.25000000  1
  Sc  Sc0  1  0.75375597  0.75575503  0.75000000  1
  Sc  Sc1  1  0.24624403  0.00200006  0.75000000  1
  Sn  Sn0  1  0.39426094  0.39214605  0.75000000  1
  Sn  Sn1  1  0.60573906  0.99788510  0.75000000  1
  Sn  Sn2  1  0.00000000  0.61161944  0.75000000  1
  Sn  Sn3  1  0.60807273  0.60760073  0.25000000  1
  Sn  Sn4  1  0.39192727  0.99952801  0.25000000  1
  Sn  Sn5  1  1.00000000  0.39176447  0.25000000  1
loop_
_geom_bond_atom_site_label_1
_geom_bond_atom_site_label_2
_geom_bond_distance
_geom_bond_site_symmetry_2
Hf0 Sn5 2.970057 1_555
Hf0 Sn1 2.984420 1_544
Hf0 Sn4 2.985607 1_545
Hf0 Sn0 2.985946 1_554
Hf0 Sn2 2.990371 1_654
Hf0 Sn3 2.994919 1_555
Hf1 Sn5 2.970060 1_455
Hf1 Sn0 2.984427 1_554
Hf1 Sn3 2.985611 1_555
Hf1 Sn1 2.985942 1_554
Hf1 Sn2 2.990368 1_554
Hf1 Sn4 2.994912 1_555
Hf2 Sn5 2.970060 1_455
Hf2 Sn0 2.984427 1_555
Hf2 Sn3 2.985611 1_555
Hf2 Sn1 2.985942 1_555
Hf2 Sn2 2.990368 1_555
Hf2 Sn4 2.994912 1_555
Hf3 Sn5 2.970057 1_555
Hf3 Sn1 2.984420 1_545
Hf3 Sn4 2.985607 1_545
Hf3 Sn0 2.985946 1_555
Hf3 Sn2 2.990371 1_655
Hf3 Sn3 2.994919 1_555
Sc0 Sn1 2.887346 1_555
Sc0 Sn2 2.893813 1_655
Sc0 Sn0 3.060069 1_555
Sc0 Sn3 3.155871 1_556
Sc0 Sn3 3.155871 1_555
Sc1 Sn0 2.887339 1_555
Sc1 Sn2 2.893821 1_545
Sc1 Sn1 3.060072 1_545
Sc1 Sn4 3.155872 1_546
Sc1 Sn4 3.155872 1_545
Sn0 Zr0 2.926215 1_455
Sn0 Zr1 3.160756 1_556
Sn0 Zr1 3.160756 1_555
Sn1 Zr0 2.926215 1_565
Sn1 Zr2 3.160758 1_555
Sn1 Zr2 3.160758 1_556
Sn2 Zr0 3.064812 1_455
Sn2 Zr3 3.142226 1_555
Sn2 Zr3 3.142226 1_556
Sn3 Zr3 2.902502 1_655
Sn3 Zr2 2.905930 1_555
Sn3 Zr1 3.072307 1_555
Sn4 Zr3 2.902502 1_555
Sn4 Zr1 2.905937 1_565
Sn4 Zr2 3.072310 1_555
Sn5 Zr1 2.901419 1_655
Sn5 Zr2 2.901426 1_545
Sn5 Zr3 3.069353 1_655
Sn5 Zr0 3.140482 1_555
Sn5 Zr0 3.140482 1_554
