# generated using pymatgen
data_Hf6Al16Ir5Pd2
_symmetry_space_group_name_H-M   'P 1'
_cell_length_a   8.65878640
_cell_length_b   8.65878646
_cell_length_c   8.68936113
_cell_angle_alpha   59.88312838
_cell_angle_beta   59.88312814
_cell_angle_gamma   60.04235162
_symmetry_Int_Tables_number   1
_chemical_formula_structural   Hf6Al16Ir5Pd2
_chemical_formula_sum   'Hf6 Al16 Ir5 Pd2'
_cell_volume   459.99781916
_cell_formula_units_Z   1
loop_
 _symmetry_equiv_pos_site_id
 _symmetry_equiv_pos_as_xyz
  1  'x, y, z'
loop_
 _atom_site_type_symbol
 _atom_site_label
 _atom_site_symmetry_multiplicity
 _atom_site_fract_x
 _atom_site_fract_y
 _atom_site_fract_z
 _atom_site_occupancy
  Hf  Hf0  1  0.68570724  0.31429276  0.31193808  1
  Hf  Hf1  1  0.31429276  0.68570724  0.68806192  1
  Hf  Hf2  1  0.31429276  0.68570724  0.31193808  1
  Hf  Hf3  1  0.68570724  0.31429276  0.68806192  1
  Hf  Hf4  1  0.32369016  0.32369016  0.67630984  1
  Hf  Hf5  1  0.67630984  0.67630984  0.32369016  1
  Al  Al0  1  0.33832900  0.33832900  0.33697554  1
  Al  Al1  1  0.66167100  0.66167100  0.66302446  1
  Al  Al2  1  0.33832900  0.33832900  0.98636646  1
  Al  Al3  1  0.33837449  0.98607614  0.33777469  1
  Al  Al4  1  0.66167100  0.66167100  0.01363354  1
  Al  Al5  1  0.66162551  0.01392386  0.66222531  1
  Al  Al6  1  0.98607614  0.33837449  0.33777469  1
  Al  Al7  1  0.01392386  0.66162551  0.66222531  1
  Al  Al8  1  0.12387649  0.12387649  0.11416016  1
  Al  Al9  1  0.87612351  0.87612351  0.88583984  1
  Al  Al10  1  0.12387649  0.12387649  0.63808686  1
  Al  Al11  1  0.12106413  0.63547234  0.12173176  1
  Al  Al12  1  0.87612351  0.87612351  0.36191314  1
  Al  Al13  1  0.87893587  0.36452766  0.87826824  1
  Al  Al14  1  0.63547234  0.12106413  0.12173176  1
  Al  Al15  1  0.36452766  0.87893587  0.87826824  1
  Ir  Ir0  1  0.50000000  0.00000000  0.00000000  1
  Ir  Ir1  1  0.00000000  0.50000000  0.50000000  1
  Ir  Ir2  1  0.00000000  0.50000000  0.00000000  1
  Ir  Ir3  1  0.50000000  0.00000000  0.50000000  1
  Ir  Ir4  1  0.50000000  0.50000000  0.00000000  1
  Pd  Pd0  1  0.00000000  0.00000000  0.50000000  1
  Pd  Pd1  1  0.00000000  0.00000000  0.00000000  1
loop_
_geom_bond_atom_site_label_1
_geom_bond_atom_site_label_2
_geom_bond_distance
_geom_bond_site_symmetry_2
Hf0 Hf5 3.146602 1_555
Hf0 Hf4 3.146602 1_555
Hf0 Pd0 3.175827 1_655
Hf1 Hf4 3.146602 1_555
Hf1 Hf5 3.146602 1_555
Hf1 Pd0 3.175827 1_565
Hf2 Hf5 3.146601 1_555
Hf2 Hf4 3.146602 1_555
Hf2 Pd0 3.175827 1_565
Hf3 Hf4 3.146601 1_555
Hf3 Hf5 3.146602 1_555
Hf3 Pd0 3.175827 1_655
Hf4 Ir1 3.197160 1_555
Hf4 Ir3 3.197160 1_555
Hf4 Ir2 3.197160 1_556
Hf4 Ir0 3.197160 1_556
Hf5 Ir1 3.197160 1_655
Hf5 Ir3 3.197160 1_565
Hf5 Ir2 3.197160 1_655
Hf5 Ir0 3.197160 1_565
Al0 Ir4 2.494659 1_555
Al0 Ir1 2.505634 1_555
Al0 Ir3 2.505634 1_555
Al0 Hf0 2.810957 1_555
Al0 Hf2 2.810957 1_555
Al0 Hf4 2.827061 1_555
Al1 Ir4 2.494659 1_556
Al1 Ir1 2.505634 1_655
Al1 Ir3 2.505634 1_565
Al1 Hf1 2.810957 1_555
Al1 Hf3 2.810957 1_555
Al1 Hf5 2.827061 1_555
Al2 Ir4 2.494658 1_556
Al2 Ir2 2.505634 1_556
Al2 Ir0 2.505634 1_556
Al2 Hf3 2.810957 1_555
Al2 Hf1 2.810957 1_555
Al2 Hf4 2.827061 1_555
Al3 Pd0 2.501812 1_565
Al3 Ir3 2.505780 1_565
Al3 Ir0 2.505780 1_565
Al3 Hf5 2.811223 1_555
Al3 Hf2 2.834213 1_555
Al3 Hf1 2.834213 1_555
Al4 Ir4 2.494658 1_555
Al4 Ir2 2.505634 1_655
Al4 Ir0 2.505634 1_565
Al4 Hf2 2.810957 1_555
Al4 Hf0 2.810957 1_555
Al4 Hf5 2.827061 1_555
Al5 Pd0 2.501812 1_655
Al5 Ir3 2.505780 1_555
Al5 Ir0 2.505780 1_556
Al5 Hf4 2.811223 1_555
Al5 Hf3 2.834213 1_555
Al5 Hf0 2.834213 1_555
Al6 Pd0 2.501812 1_655
Al6 Ir1 2.505780 1_655
Al6 Ir2 2.505780 1_655
Al6 Hf5 2.811223 1_555
Al6 Hf0 2.834213 1_555
Al6 Hf3 2.834213 1_555
Al7 Pd0 2.501812 1_565
Al7 Ir1 2.505780 1_555
Al7 Ir2 2.505780 1_556
Al7 Hf4 2.811223 1_555
Al7 Hf1 2.834213 1_555
Al7 Hf2 2.834213 1_555
Al8 Pd1 2.563130 1_555
Al8 Ir0 2.660454 1_555
Al8 Ir2 2.660454 1_555
Al8 Pd0 2.733666 1_555
Al8 Hf4 3.200001 1_554
Al9 Pd1 2.563130 1_666
Al9 Ir0 2.660454 1_566
Al9 Ir2 2.660454 1_656
Al9 Pd0 2.733666 1_665
Al9 Hf5 3.200001 1_556
Al10 Pd1 2.563131 1_556
Al10 Ir3 2.660454 1_555
Al10 Ir1 2.660454 1_555
Al10 Pd0 2.733666 1_555
Al10 Hf4 3.200001 1_555
Al11 Pd1 2.576462 1_565
Al11 Ir4 2.679361 1_555
Al11 Ir2 2.679501 1_555
Al11 Ir1 2.679501 1_555
Al11 Hf5 3.242816 1_455
Al12 Pd1 2.563131 1_665
Al12 Ir3 2.660454 1_565
Al12 Ir1 2.660454 1_655
Al12 Pd0 2.733666 1_665
Al12 Hf5 3.200001 1_555
Al13 Pd1 2.576462 1_656
Al13 Ir4 2.679361 1_556
Al13 Ir2 2.679501 1_656
Al13 Ir1 2.679501 1_655
Al13 Hf4 3.242816 1_655
Al14 Pd1 2.576462 1_655
Al14 Ir4 2.679361 1_555
Al14 Ir0 2.679501 1_555
Al14 Ir3 2.679501 1_555
Al14 Hf5 3.242816 1_545
Al15 Pd1 2.576462 1_566
Al15 Ir4 2.679361 1_556
Al15 Ir0 2.679501 1_566
Al15 Ir3 2.679501 1_565
Al15 Hf4 3.242816 1_565
