# generated using pymatgen
data_Lu2CuBRh5
_symmetry_space_group_name_H-M   'P 1'
_cell_length_a   5.67258721
_cell_length_b   5.67258837
_cell_length_c   5.73283938
_cell_angle_alpha   59.64802514
_cell_angle_beta   59.64801832
_cell_angle_gamma   60.70396797
_symmetry_Int_Tables_number   1
_chemical_formula_structural   Lu2CuBRh5
_chemical_formula_sum   'Lu2 Cu1 B1 Rh5'
_cell_volume   130.41219615
_cell_formula_units_Z   1
loop_
 _symmetry_equiv_pos_site_id
 _symmetry_equiv_pos_as_xyz
  1  'x, y, z'
loop_
 _atom_site_type_symbol
 _atom_site_label
 _atom_site_symmetry_multiplicity
 _atom_site_fract_x
 _atom_site_fract_y
 _atom_site_fract_z
 _atom_site_occupancy
  Lu  Lu0  1  0.74925803  0.74925803  0.75074197  1
  Lu  Lu1  1  0.24925803  0.24925803  0.25074197  1
  Cu  Cu0  1  0.76469074  0.76469074  0.23530926  1
  B  B0  1  0.50143274  0.50143274  0.49856726  1
  Rh  Rh0  1  0.75501475  0.24259583  0.24498525  1
  Rh  Rh1  1  0.24259583  0.75501475  0.24498525  1
  Rh  Rh2  1  0.24013831  0.24013831  0.75986169  1
  Rh  Rh3  1  0.75501475  0.24259583  0.75740417  1
  Rh  Rh4  1  0.24259583  0.75501475  0.75740417  1
loop_
_geom_bond_atom_site_label_1
_geom_bond_atom_site_label_2
_geom_bond_distance
_geom_bond_site_symmetry_2
Lu0 Rh4 2.834229 1_655
Lu0 Rh1 2.834229 1_655
Lu0 Rh3 2.834229 1_565
Lu0 Rh0 2.834229 1_565
Lu0 Rh4 2.839254 1_555
Lu0 Rh1 2.839255 1_556
Lu0 Rh3 2.839255 1_555
Lu0 Rh0 2.839255 1_556
Lu0 Rh2 2.867333 1_565
Lu0 Rh2 2.867333 1_655
Lu1 Rh0 2.834229 1_555
Lu1 Rh3 2.834229 1_554
Lu1 Rh1 2.834229 1_555
Lu1 Rh4 2.834229 1_554
Lu1 Rh0 2.839254 1_455
Lu1 Rh3 2.839255 1_455
Lu1 Rh1 2.839255 1_545
Lu1 Rh4 2.839255 1_545
Lu1 Rh2 2.867333 1_554
Lu1 Rh2 2.867333 1_555
Cu0 Rh1 2.712686 1_655
Cu0 Rh4 2.712686 1_654
Cu0 Rh0 2.712686 1_565
Cu0 Rh3 2.712686 1_564
Cu0 Lu1 2.869035 1_565
Cu0 Lu0 2.869035 1_554
Cu0 Lu0 2.869035 1_555
Cu0 Lu1 2.869035 1_655
B0 Rh2 2.073666 1_555
B0 Rh1 2.077312 1_555
B0 Rh4 2.077312 1_555
B0 Rh0 2.077312 1_555
B0 Rh3 2.077312 1_555
B0 Cu0 2.089249 1_555
