# generated using pymatgen
data_CsPRu2S
_symmetry_space_group_name_H-M   'P 1'
_cell_length_a   7.60342786
_cell_length_b   7.60342785
_cell_length_c   7.60342843
_cell_angle_alpha   149.78375763
_cell_angle_beta   149.78375788
_cell_angle_gamma   43.25891374
_symmetry_Int_Tables_number   1
_chemical_formula_structural   CsPRu2S
_chemical_formula_sum   'Cs1 P1 Ru2 S1'
_cell_volume   111.03631583
_cell_formula_units_Z   1
loop_
 _symmetry_equiv_pos_site_id
 _symmetry_equiv_pos_as_xyz
  1  'x, y, z'
loop_
 _atom_site_type_symbol
 _atom_site_label
 _atom_site_symmetry_multiplicity
 _atom_site_fract_x
 _atom_site_fract_y
 _atom_site_fract_z
 _atom_site_occupancy
  Cs  Cs0  1  0.99775630  0.99775630  1.00000000  1
  P  P0  1  0.66636215  0.66636215  0.00000000  1
  Ru  Ru0  1  0.75094658  0.25094658  0.50000000  1
  Ru  Ru1  1  0.25094658  0.75094658  0.50000000  1
  S  S0  1  0.33398840  0.33398840  1.00000000  1
loop_
_geom_bond_atom_site_label_1
_geom_bond_atom_site_label_2
_geom_bond_distance
_geom_bond_site_symmetry_2
Cs0 S0 3.635136 1_655
Cs0 S0 3.635136 1_565
Cs0 S0 3.635136 1_554
Cs0 S0 3.635136 1_666
Cs0 P0 3.679067 1_566
Cs0 P0 3.679067 1_656
Cs0 P0 3.679068 1_667
Cs0 P0 3.679068 1_555
P0 Ru1 2.314538 1_655
P0 Ru0 2.314538 1_565
P0 Ru1 2.314538 1_554
P0 Ru0 2.314538 1_554
Ru0 S0 2.303349 1_655
Ru0 S0 2.303349 1_554
Ru1 S0 2.303349 1_565
Ru1 S0 2.303349 1_554
