# generated using pymatgen
data_KRb2ScSb2
_symmetry_space_group_name_H-M   'P 1'
_cell_length_a   9.92250844
_cell_length_b   9.92250786
_cell_length_c   9.92250770
_cell_angle_alpha   130.92698419
_cell_angle_beta   67.82465524
_cell_angle_gamma   136.24847608
_symmetry_Int_Tables_number   1
_chemical_formula_structural   KRb2ScSb2
_chemical_formula_sum   'K2 Rb4 Sc2 Sb4'
_cell_volume   501.78427923
_cell_formula_units_Z   2
loop_
 _symmetry_equiv_pos_site_id
 _symmetry_equiv_pos_as_xyz
  1  'x, y, z'
loop_
 _atom_site_type_symbol
 _atom_site_label
 _atom_site_symmetry_multiplicity
 _atom_site_fract_x
 _atom_site_fract_y
 _atom_site_fract_z
 _atom_site_occupancy
  K  K0  1  0.75000000  0.25000000  0.50000000  1
  K  K1  1  0.25000000  0.75000000  0.50000000  1
  Rb  Rb0  1  0.31889584  0.72995485  0.04884968  1
  Rb  Rb1  1  0.18110416  0.22995385  0.41105801  1
  Rb  Rb2  1  0.81889584  0.77004615  0.58894199  1
  Rb  Rb3  1  0.68110416  0.27004615  0.95115032  1
  Sc  Sc0  1  0.25000000  0.25000000  0.00000000  1
  Sc  Sc1  1  0.75000000  0.75000000  0.00000000  1
  Sb  Sb0  1  0.90466346  0.19308634  0.09774780  1
  Sb  Sb1  1  0.59533854  0.69308534  0.28842288  1
  Sb  Sb2  1  0.40466246  0.30691466  0.71157712  1
  Sb  Sb3  1  0.09533754  0.80691466  0.90225220  1
loop_
_geom_bond_atom_site_label_1
_geom_bond_atom_site_label_2
_geom_bond_distance
_geom_bond_site_symmetry_2
K0 Sb2 3.504262 1_555
K0 Sb3 3.504262 1_655
K0 Sb0 3.504266 1_555
K0 Sb1 3.504267 1_545
K1 Sb0 3.504258 1_455
K1 Sb3 3.504262 1_555
K1 Sb2 3.504262 1_565
K1 Sb1 3.504271 1_555
Rb0 Sb3 3.736052 1_554
Rb0 Sb2 3.761592 1_554
Rb0 Sb0 3.969369 1_455
Rb0 Sb0 3.969377 1_565
Rb1 Sb2 3.736061 1_555
Rb1 Sb3 3.761585 1_544
Rb1 Sb1 3.969364 1_445
Rb1 Sb1 3.969370 1_555
Rb2 Sb1 3.736053 1_555
Rb2 Sb0 3.761585 1_566
Rb2 Sb2 3.969370 1_555
Rb2 Sb2 3.969370 1_665
Rb3 Sb0 3.736061 1_556
Rb3 Sb1 3.761579 1_556
Rb3 Sb3 3.969370 1_655
Rb3 Sb3 3.969370 1_545
Sb0 Sc0 2.900763 1_655
Sb0 Sc1 2.900772 1_545
Sb1 Sc1 2.900767 1_555
Sb1 Sc0 2.900773 1_555
Sb2 Sc0 2.900768 1_556
Sb2 Sc1 2.900768 1_556
Sb3 Sc0 2.900768 1_566
Sb3 Sc1 2.900768 1_456
