# generated using pymatgen
data_Er3Pb4F17
_symmetry_space_group_name_H-M   'P 1'
_cell_length_a   9.01469990
_cell_length_b   9.01078754
_cell_length_c   9.06739212
_cell_angle_alpha   72.81389366
_cell_angle_beta   73.01971734
_cell_angle_gamma   72.96057160
_symmetry_Int_Tables_number   1
_chemical_formula_structural   Er3Pb4F17
_chemical_formula_sum   'Er6 Pb8 F34'
_cell_volume   655.52505686
_cell_formula_units_Z   2
loop_
 _symmetry_equiv_pos_site_id
 _symmetry_equiv_pos_as_xyz
  1  'x, y, z'
loop_
 _atom_site_type_symbol
 _atom_site_label
 _atom_site_symmetry_multiplicity
 _atom_site_fract_x
 _atom_site_fract_y
 _atom_site_fract_z
 _atom_site_occupancy
  Er  Er0  1  0.53175679  0.38960920  0.83952276  1
  Er  Er1  1  0.38924626  0.84160901  0.53243441  1
  Er  Er2  1  0.81793716  0.52676092  0.39309485  1
  Er  Er3  1  0.15842913  0.46926419  0.61081205  1
  Er  Er4  1  0.60809320  0.18313175  0.46405655  1
  Er  Er5  1  0.47468374  0.60284348  0.17495296  1
  Pb  Pb0  1  0.09901323  0.69874674  0.96207616  1
  Pb  Pb1  1  0.73235203  0.74139861  0.73651508  1
  Pb  Pb2  1  0.94296889  0.11287113  0.68378154  1
  Pb  Pb3  1  0.30353064  0.04447284  0.89787338  1
  Pb  Pb4  1  0.68187505  0.95230118  0.11313596  1
  Pb  Pb5  1  0.04092505  0.89395141  0.31021773  1
  Pb  Pb6  1  0.25881195  0.26815356  0.26440500  1
  Pb  Pb7  1  0.89066928  0.31519023  0.04976499  1
  F  F0  1  0.01079149  0.98664682  0.00867925  1
  F  F1  1  0.85766886  0.86796200  0.86325282  1
  F  F2  1  0.54387173  0.82106064  0.98081362  1
  F  F3  1  0.64270871  0.51150353  0.95377321  1
  F  F4  1  0.97920526  0.54935827  0.82268384  1
  F  F5  1  0.74324973  0.20750923  0.92504091  1
  F  F6  1  0.20900718  0.91919826  0.74230002  1
  F  F7  1  0.50749376  0.96427786  0.64208325  1
  F  F8  1  0.45634596  0.64990326  0.73476877  1
  F  F9  1  0.81771198  0.98102618  0.54752556  1
  F  F10  1  0.74499159  0.44480884  0.65602474  1
  F  F11  1  0.30450015  0.40455562  0.78886738  1
  F  F12  1  0.95123186  0.64230242  0.51171135  1
  F  F13  1  0.60252989  0.20328409  0.70117721  1
  F  F14  1  0.64977091  0.74456116  0.45277552  1
  F  F15  1  0.07583809  0.25777557  0.79087018  1
  F  F16  1  0.21016714  0.69883647  0.58591556  1
  F  F17  1  0.82869859  0.27707590  0.39618286  1
  F  F18  1  0.56139890  0.47163763  0.44556443  1
  F  F19  1  0.91415457  0.73975184  0.21920160  1
  F  F20  1  0.34614425  0.26268938  0.54524644  1
  F  F21  1  0.41674760  0.79730749  0.29868587  1
  F  F22  1  0.03995644  0.35926406  0.49049729  1
  F  F23  1  0.72039923  0.59700348  0.17572834  1
  F  F24  1  0.26139309  0.54301889  0.35091205  1
  F  F25  1  0.17637463  0.02291646  0.45419447  1
  F  F26  1  0.55612552  0.33708519  0.23592473  1
  F  F27  1  0.48920332  0.04807588  0.35889850  1
  F  F28  1  0.78785629  0.07717183  0.25912541  1
  F  F29  1  0.26181101  0.78268653  0.08972788  1
  F  F30  1  0.02092581  0.45544816  0.17979786  1
  F  F31  1  0.35709630  0.49244469  0.04273630  1
  F  F32  1  0.45143431  0.17736974  0.02071738  1
  F  F33  1  0.13690341  0.14018238  0.13794896  1
loop_
_geom_bond_atom_site_label_1
_geom_bond_atom_site_label_2
_geom_bond_distance
_geom_bond_site_symmetry_2
Er0 F11 2.185732 1_555
Er0 F10 2.216755 1_555
Er0 F13 2.224604 1_555
Er0 F8 2.234204 1_555
Er0 F32 2.267367 1_556
Er0 F31 2.278674 1_556
Er0 F3 2.280670 1_555
Er0 F5 2.281844 1_555
Er1 F21 2.201848 1_555
Er1 F8 2.208791 1_555
Er1 F16 2.210783 1_555
Er1 F14 2.231804 1_555
Er1 F6 2.250440 1_555
Er1 F25 2.264444 1_565
Er1 F27 2.274523 1_565
Er1 F7 2.303377 1_555
Er2 F14 2.201689 1_555
Er2 F17 2.215514 1_555
Er2 F10 2.233855 1_555
Er2 F23 2.237683 1_555
Er2 F19 2.304423 1_555
Er2 F30 2.340963 1_655
Er2 F22 2.353315 1_655
Er2 F18 2.390013 1_555
Er2 F12 2.415442 1_555
Er3 F16 2.185334 1_555
Er3 F20 2.214077 1_555
Er3 F11 2.217198 1_555
Er3 F24 2.239466 1_555
Er3 F15 2.265921 1_555
Er3 F4 2.268254 1_455
Er3 F12 2.274402 1_455
Er3 F22 2.291977 1_555
Er4 F13 2.195604 1_555
Er4 F26 2.216348 1_555
Er4 F20 2.221810 1_555
Er4 F17 2.239218 1_555
Er4 F28 2.318061 1_555
Er4 F9 2.337548 1_545
Er4 F27 2.363440 1_555
Er4 F7 2.372551 1_545
Er4 F18 2.471006 1_555
Er5 F24 2.200118 1_555
Er5 F23 2.202234 1_555
Er5 F21 2.210239 1_555
Er5 F26 2.236861 1_555
Er5 F29 2.282408 1_555
Er5 F2 2.320802 1_554
Er5 F3 2.337595 1_554
Er5 F31 2.369706 1_555
Er5 F18 2.625651 1_555
F0 Pb0 2.604489 1_554
F0 Pb3 2.681956 1_564
F0 Pb5 2.682980 1_555
F1 Pb1 2.487010 1_555
F1 Pb0 2.499680 1_655
F1 Pb2 2.500190 1_565
F1 Pb4 2.537166 1_556
F2 Pb1 2.517062 1_555
F2 Pb3 2.610220 1_565
F2 Pb4 2.637855 1_556
F3 Pb1 2.542580 1_555
F3 Pb7 2.606229 1_556
F4 Pb1 2.552774 1_555
F4 Pb7 2.605477 1_556
F4 Pb0 2.689011 1_655
F5 Pb7 2.503706 1_556
F5 Pb4 2.525858 1_546
F5 Pb2 2.580003 1_555
F6 Pb3 2.489385 1_565
F6 Pb0 2.561496 1_555
F6 Pb2 2.611881 1_465
F7 Pb1 2.546979 1_555
F7 Pb3 2.646354 1_565
F9 Pb1 2.491569 1_555
F9 Pb2 2.584807 1_565
F9 Pb5 2.614981 1_655
F12 Pb1 2.557237 1_555
F12 Pb5 2.626215 1_655
F15 Pb2 2.535257 1_455
F15 Pb7 2.547078 1_456
F15 Pb3 2.568607 1_555
F19 Pb5 2.465109 1_655
F19 Pb0 2.495628 1_654
F19 Pb4 2.591337 1_555
F22 Pb6 2.540106 1_555
F22 Pb2 2.590063 1_455
F25 Pb6 2.522905 1_555
F25 Pb2 2.618613 1_455
F25 Pb5 2.684183 1_545
F27 Pb6 2.569390 1_555
F27 Pb4 2.593207 1_545
F28 Pb5 2.470382 1_645
F28 Pb4 2.485959 1_545
F28 Pb7 2.606510 1_555
F29 Pb0 2.495126 1_554
F29 Pb3 2.538680 1_564
F29 Pb5 2.580021 1_555
F30 Pb6 2.471900 1_555
F30 Pb0 2.595033 1_554
F30 Pb7 2.631585 1_455
F31 Pb6 2.553083 1_555
F31 Pb0 2.656904 1_554
F32 Pb6 2.561525 1_555
F32 Pb4 2.583412 1_545
F32 Pb3 2.654030 1_554
F33 Pb6 2.472291 1_555
F33 Pb3 2.485786 1_554
F33 Pb7 2.508670 1_455
F33 Pb5 2.529604 1_545
