# generated using pymatgen
data_Re3Tc3Pd2
_symmetry_space_group_name_H-M   'P 1'
_cell_length_a   5.52571773
_cell_length_b   5.52571876
_cell_length_c   4.39160447
_cell_angle_alpha   90.00000000
_cell_angle_beta   90.00000000
_cell_angle_gamma   119.99999969
_symmetry_Int_Tables_number   1
_chemical_formula_structural   Re3Tc3Pd2
_chemical_formula_sum   'Re3 Tc3 Pd2'
_cell_volume   116.12649664
_cell_formula_units_Z   1
loop_
 _symmetry_equiv_pos_site_id
 _symmetry_equiv_pos_as_xyz
  1  'x, y, z'
loop_
 _atom_site_type_symbol
 _atom_site_label
 _atom_site_symmetry_multiplicity
 _atom_site_fract_x
 _atom_site_fract_y
 _atom_site_fract_z
 _atom_site_occupancy
  Re  Re0  1  0.84142957  0.15857043  0.75000000  1
  Re  Re1  1  0.31714086  0.15857043  0.75000000  1
  Re  Re2  1  0.84142957  0.68285914  0.75000000  1
  Tc  Tc0  1  0.15783315  0.84216685  0.25000000  1
  Tc  Tc1  1  0.68433369  0.84216685  0.25000000  1
  Tc  Tc2  1  0.15783315  0.31566631  0.25000000  1
  Pd  Pd0  1  0.66666700  0.33333300  0.25000000  1
  Pd  Pd1  1  0.33333300  0.66666700  0.75000000  1
loop_
_geom_bond_atom_site_label_1
_geom_bond_atom_site_label_2
_geom_bond_distance
_geom_bond_site_symmetry_2
Re0 Re1 2.628646 1_655
Re0 Re2 2.628647 1_545
Re0 Tc2 2.667236 1_655
Re0 Tc2 2.667236 1_656
Re0 Tc1 2.667236 1_546
Re0 Tc1 2.667236 1_545
Re0 Re1 2.897071 1_555
Re0 Re2 2.897072 1_555
Re1 Re2 2.628647 1_445
Re1 Tc2 2.667236 1_555
Re1 Tc2 2.667236 1_556
Re1 Tc0 2.667236 1_546
Re1 Tc0 2.667236 1_545
Re1 Re2 2.897072 1_555
Re2 Tc0 2.667236 1_655
Re2 Tc0 2.667236 1_656
Re2 Tc1 2.667236 1_556
Re2 Tc1 2.667236 1_555
Tc0 Tc1 2.616424 1_455
Tc0 Tc2 2.616425 1_565
Tc0 Tc1 2.909293 1_555
Tc0 Tc2 2.909294 1_555
Tc1 Tc2 2.616425 1_665
Tc1 Tc2 2.909294 1_555
Pd0 Re0 2.760292 1_555
Pd0 Re0 2.760292 1_554
Pd0 Re1 2.760295 1_554
Pd0 Re1 2.760295 1_555
Pd0 Re2 2.760295 1_555
Pd0 Re2 2.760295 1_554
Pd0 Tc2 2.764149 1_655
Pd0 Tc1 2.764150 1_545
Pd0 Tc0 2.764152 1_545
Pd0 Tc0 2.764152 1_655
Pd0 Tc2 2.764155 1_555
Pd0 Tc1 2.764155 1_555
Pd1 Re2 2.763942 1_455
Pd1 Re1 2.763943 1_565
Pd1 Re0 2.763946 1_565
Pd1 Re0 2.763946 1_455
Pd1 Re2 2.763948 1_555
Pd1 Re1 2.763949 1_555
Pd1 Tc0 2.764573 1_556
Pd1 Tc0 2.764573 1_555
Pd1 Tc1 2.764576 1_556
Pd1 Tc1 2.764576 1_555
Pd1 Tc2 2.764576 1_555
Pd1 Tc2 2.764576 1_556
