# generated using pymatgen
data_CaBiRu2O7
_symmetry_space_group_name_H-M   'P 1'
_cell_length_a   7.23168934
_cell_length_b   7.23252161
_cell_length_c   7.23114826
_cell_angle_alpha   119.73596203
_cell_angle_beta   120.25410017
_cell_angle_gamma   90.01118889
_symmetry_Int_Tables_number   1
_chemical_formula_structural   CaBiRu2O7
_chemical_formula_sum   'Ca2 Bi2 Ru4 O14'
_cell_volume   267.44575789
_cell_formula_units_Z   2
loop_
 _symmetry_equiv_pos_site_id
 _symmetry_equiv_pos_as_xyz
  1  'x, y, z'
loop_
 _atom_site_type_symbol
 _atom_site_label
 _atom_site_symmetry_multiplicity
 _atom_site_fract_x
 _atom_site_fract_y
 _atom_site_fract_z
 _atom_site_occupancy
  Ca  Ca0  1  0.50000000  0.50000000  0.00000000  1
  Ca  Ca1  1  0.00000000  0.50000000  0.50000000  1
  Bi  Bi0  1  0.50000000  0.50000000  0.50000000  1
  Bi  Bi1  1  0.50000000  0.00000000  0.00000000  1
  Ru  Ru0  1  0.00000000  0.00000000  0.50000000  1
  Ru  Ru1  1  0.00000000  0.50000000  0.00000000  1
  Ru  Ru2  1  0.00000000  0.00000000  0.00000000  1
  Ru  Ru3  1  0.50000000  0.00000000  0.50000000  1
  O  O0  1  0.32573637  0.06596158  0.64933810  1
  O  O1  1  0.91614157  0.06582619  0.24008980  1
  O  O2  1  0.92347850  0.67348705  0.25003538  1
  O  O3  1  0.91650661  0.67641405  0.85052701  1
  O  O4  1  0.32585286  0.67609006  0.25993807  1
  O  O5  1  0.32737971  0.07734002  0.24995799  1
  O  O6  1  0.67426363  0.93403842  0.35066190  1
  O  O7  1  0.08385843  0.93417381  0.75991020  1
  O  O8  1  0.07652150  0.32651295  0.74996462  1
  O  O9  1  0.08349339  0.32358595  0.14947299  1
  O  O10  1  0.67414714  0.32390994  0.74006193  1
  O  O11  1  0.67262029  0.92265998  0.75004201  1
  O  O12  1  0.62458966  0.37442163  0.24979841  1
  O  O13  1  0.37541034  0.62557837  0.75020159  1
loop_
_geom_bond_atom_site_label_1
_geom_bond_atom_site_label_2
_geom_bond_distance
_geom_bond_site_symmetry_2
Ca0 O13 2.210737 1_554
Ca0 O12 2.210737 1_555
Ca0 O2 2.527954 1_555
Ca0 O8 2.527954 1_554
Ca0 O10 2.598528 1_554
Ca0 O4 2.598528 1_555
Ca0 O6 2.598927 1_555
Ca0 O0 2.598927 1_554
Ca1 O13 2.210908 1_555
Ca1 O12 2.210908 1_455
Ca1 O8 2.527847 1_555
Ca1 O2 2.527847 1_455
Ca1 O3 2.598378 1_455
Ca1 O9 2.598378 1_555
Ca1 O7 2.599402 1_555
Ca1 O1 2.599402 1_455
Bi0 O12 2.218762 1_555
Bi0 O13 2.218762 1_555
Bi0 O10 2.492446 1_555
Bi0 O4 2.492446 1_555
Bi0 O9 2.494429 1_555
Bi0 O3 2.494429 1_555
Bi0 O11 2.532444 1_555
Bi0 O5 2.532444 1_555
Bi1 O12 2.216879 1_555
Bi1 O13 2.216879 1_544
Bi1 O7 2.492394 1_544
Bi1 O1 2.492394 1_555
Bi1 O6 2.495133 1_545
Bi1 O0 2.495133 1_554
Bi1 O11 2.531639 1_544
Bi1 O5 2.531639 1_555
O0 Ru3 1.960207 1_555
O0 Ru0 1.966696 1_555
O1 Ru2 1.962054 1_655
O1 Ru0 1.966212 1_655
O2 Ru0 1.976692 1_665
O2 Ru1 1.976769 1_655
O3 Ru2 1.960226 1_666
O3 Ru1 1.967623 1_656
O4 Ru3 1.961966 1_565
O4 Ru1 1.966923 1_555
O5 Ru2 1.967090 1_555
O5 Ru3 1.967123 1_555
O6 Ru3 1.960207 1_565
O6 Ru0 1.966696 1_665
O7 Ru2 1.962054 1_566
O7 Ru0 1.966212 1_565
O8 Ru0 1.976692 1_555
O8 Ru1 1.976769 1_556
O9 Ru2 1.960226 1_555
O9 Ru1 1.967623 1_555
O10 Ru3 1.961966 1_555
O10 Ru1 1.966923 1_656
O11 Ru2 1.967090 1_666
O11 Ru3 1.967123 1_565
