# generated using pymatgen
data_K4As4Se3S5
_symmetry_space_group_name_H-M   'P 1'
_cell_length_a   6.54707177
_cell_length_b   6.53393249
_cell_length_c   12.46302124
_cell_angle_alpha   80.38891714
_cell_angle_beta   79.14392924
_cell_angle_gamma   108.24239950
_symmetry_Int_Tables_number   1
_chemical_formula_structural   K4As4Se3S5
_chemical_formula_sum   'K4 As4 Se3 S5'
_cell_volume   482.48022152
_cell_formula_units_Z   1
loop_
 _symmetry_equiv_pos_site_id
 _symmetry_equiv_pos_as_xyz
  1  'x, y, z'
loop_
 _atom_site_type_symbol
 _atom_site_label
 _atom_site_symmetry_multiplicity
 _atom_site_fract_x
 _atom_site_fract_y
 _atom_site_fract_z
 _atom_site_occupancy
  K  K0  1  0.78617643  0.33722362  0.26112783  1
  K  K1  1  0.11817669  0.14792413  0.49711659  1
  K  K2  1  0.34242223  0.79389109  0.75212263  1
  K  K3  1  0.13872185  0.10881616  0.00534971  1
  As  As0  1  0.40800365  0.70429208  0.17698465  1
  As  As1  1  0.54044407  0.69719724  0.43694005  1
  As  As2  1  0.69657901  0.39898557  0.67458738  1
  As  As3  1  0.68660004  0.54308311  0.94598769  1
  Se  Se0  1  0.86417882  0.61456686  0.47642137  1
  Se  Se1  1  0.01123123  0.56809881  0.99968188  1
  Se  Se2  1  0.82288782  0.73709349  0.74524917  1
  S  S0  1  0.31728469  0.34632649  0.21103118  1
  S  S1  1  0.61232957  0.84486226  0.98996423  1
  S  S2  1  0.56518063  0.99604654  0.49374019  1
  S  S3  1  0.72271085  0.82122913  0.24652737  1
  S  S4  1  0.34036243  0.31365344  0.70684107  1
loop_
_geom_bond_atom_site_label_1
_geom_bond_atom_site_label_2
_geom_bond_distance
_geom_bond_site_symmetry_2
K0 S2 3.116092 1_545
K0 Se1 3.197260 1_654
K0 S0 3.262108 1_555
K0 S3 3.296351 1_555
K0 S3 3.305884 1_545
K0 S0 3.394795 1_655
K0 Se0 3.507801 1_555
K1 S2 3.367068 1_545
K1 S4 3.392898 1_555
K1 S0 3.426418 1_555
K1 Se0 3.436573 1_445
K1 S2 3.452035 1_445
K1 Se2 3.497657 1_445
K1 Se0 3.898943 1_455
K2 S2 3.137845 1_555
K2 Se1 3.217877 1_555
K2 Se2 3.268044 1_555
K2 S4 3.276034 1_555
K2 Se2 3.323380 1_455
K2 S4 3.353158 1_565
K3 Se1 3.350653 1_554
K3 Se1 3.382769 1_544
K3 S1 3.395072 1_444
K3 S0 3.415768 1_555
K3 S3 3.436566 1_445
K3 S4 3.571549 1_554
As0 S0 2.169633 1_555
As0 S1 2.325365 1_554
As0 S3 2.342746 1_555
As1 S2 2.155692 1_555
As1 S3 2.323375 1_555
As1 Se0 2.458970 1_555
As1 K1 3.632377 1_555
As2 S4 2.160885 1_555
As2 Se2 2.473878 1_555
As2 Se0 2.477430 1_555
As3 S1 2.299045 1_555
As3 Se1 2.312266 1_655
As3 Se2 2.460512 1_555
As3 K3 3.659553 1_556
