# generated using pymatgen
data_Y2Al3Cu3Si2
_symmetry_space_group_name_H-M   'P 1'
_cell_length_a   8.18815830
_cell_length_b   8.18815764
_cell_length_c   8.18815740
_cell_angle_alpha   139.56139790
_cell_angle_beta   100.41176107
_cell_angle_gamma   93.33520485
_symmetry_Int_Tables_number   1
_chemical_formula_structural   Y2Al3Cu3Si2
_chemical_formula_sum   'Y4 Al6 Cu6 Si4'
_cell_volume   333.33490007
_cell_formula_units_Z   2
loop_
 _symmetry_equiv_pos_site_id
 _symmetry_equiv_pos_as_xyz
  1  'x, y, z'
loop_
 _atom_site_type_symbol
 _atom_site_label
 _atom_site_symmetry_multiplicity
 _atom_site_fract_x
 _atom_site_fract_y
 _atom_site_fract_z
 _atom_site_occupancy
  Y  Y0  1  0.37792110  0.62572986  0.75219123  1
  Y  Y1  1  0.62207890  0.37427014  0.24780877  1
  Y  Y2  1  0.12646137  0.87427014  0.25219123  1
  Y  Y3  1  0.87353863  0.12572986  0.74780877  1
  Al  Al0  1  0.00000000  0.75000000  0.75000000  1
  Al  Al1  1  0.00000000  0.25000000  0.25000000  1
  Al  Al2  1  0.75007404  0.50007404  0.75000000  1
  Al  Al3  1  0.24992596  0.99992596  0.75000000  1
  Al  Al4  1  0.24992596  0.49992596  0.25000000  1
  Al  Al5  1  0.75007404  0.00007404  0.25000000  1
  Cu  Cu0  1  0.98632225  0.62552898  0.36079327  1
  Cu  Cu1  1  0.26473571  0.12552898  0.13920673  1
  Cu  Cu2  1  0.50000000  0.75000000  0.25000000  1
  Cu  Cu3  1  0.50000000  0.25000000  0.75000000  1
  Cu  Cu4  1  0.01367775  0.37447102  0.63920673  1
  Cu  Cu5  1  0.73526429  0.87447102  0.86079327  1
  Si  Si0  1  0.23941901  0.38124739  0.85817162  1
  Si  Si1  1  0.76058099  0.61875261  0.14182838  1
  Si  Si2  1  0.52307477  0.88124739  0.64182838  1
  Si  Si3  1  0.47692523  0.11875261  0.35817162  1
loop_
_geom_bond_atom_site_label_1
_geom_bond_atom_site_label_2
_geom_bond_distance
_geom_bond_site_symmetry_2
Al0 Cu0 2.474080 1_455
Al0 Cu4 2.474080 1_555
Al0 Cu5 2.474080 1_455
Al0 Cu1 2.474080 1_566
Al0 Al3 2.808647 1_555
Al0 Al2 2.808647 1_455
Al0 Y2 3.314454 1_556
Al0 Y3 3.314454 1_465
Al0 Y0 3.314454 1_555
Al0 Y1 3.314454 1_455
Al1 Cu4 2.474080 1_555
Al1 Cu0 2.474080 1_455
Al1 Cu1 2.474080 1_555
Al1 Cu5 2.474080 1_444
Al1 Al4 2.808647 1_555
Al1 Al5 2.808647 1_455
Al1 Y3 3.314454 1_454
Al1 Y2 3.314454 1_545
Al1 Y1 3.314454 1_455
Al1 Y0 3.314454 1_555
Al2 Cu5 2.466849 1_555
Al2 Cu4 2.466849 1_655
Al2 Si3 2.527822 1_555
Al2 Si1 2.527827 1_556
Al2 Cu3 2.810311 1_555
Al2 Al5 2.829945 1_555
Al2 Al5 2.829945 1_566
Al2 Y3 3.271256 1_555
Al2 Y0 3.271256 1_555
Al2 Y1 3.307143 1_555
Al2 Y2 3.307143 1_656
Al3 Cu1 2.466849 1_566
Al3 Cu0 2.466849 1_455
Al3 Si2 2.527819 1_555
Al3 Si0 2.527827 1_565
Al3 Cu3 2.810311 1_565
Al3 Al4 2.829945 1_555
Al3 Al4 2.829945 1_566
Al3 Y2 3.271256 1_555
Al3 Y1 3.271256 1_566
Al3 Y0 3.307143 1_555
Al3 Y3 3.307143 1_465
Al4 Cu1 2.466849 1_555
Al4 Cu0 2.466849 1_455
Al4 Si2 2.527822 1_555
Al4 Si0 2.527827 1_554
Al4 Cu2 2.810311 1_555
Al4 Y2 3.271256 1_555
Al4 Y1 3.271256 1_555
Al4 Y0 3.307143 1_555
Al4 Y3 3.307143 1_454
Al5 Cu5 2.466849 1_544
Al5 Cu4 2.466849 1_655
Al5 Si3 2.527819 1_555
Al5 Si1 2.527827 1_545
Al5 Cu2 2.810311 1_545
Al5 Y3 3.271256 1_555
Al5 Y0 3.271256 1_544
Al5 Y1 3.307143 1_555
Al5 Y2 3.307143 1_645
Cu0 Si1 2.296310 1_555
Cu0 Y2 3.018211 1_655
Cu0 Y1 3.061905 1_555
Cu0 Y3 3.067734 1_554
Cu0 Y3 3.067734 1_565
Cu1 Si3 2.296315 1_555
Cu1 Y1 3.018211 1_555
Cu1 Y2 3.061905 1_545
Cu1 Y0 3.067734 1_555
Cu1 Y0 3.067734 1_544
Cu2 Si3 2.448050 1_565
Cu2 Si1 2.448052 1_555
Cu2 Si0 2.448052 1_554
Cu2 Si2 2.448054 1_555
Cu2 Cu3 2.829945 1_554
Cu2 Cu3 2.829945 1_565
Cu2 Y0 3.277938 1_554
Cu2 Y1 3.277938 1_555
Cu2 Y2 3.277938 1_555
Cu2 Y3 3.277939 1_565
Cu3 Si2 2.448050 1_545
Cu3 Si0 2.448052 1_555
Cu3 Si1 2.448052 1_556
Cu3 Si3 2.448054 1_555
Cu3 Y1 3.277938 1_556
Cu3 Y0 3.277938 1_555
Cu3 Y3 3.277938 1_555
Cu3 Y2 3.277939 1_545
Cu4 Si0 2.296310 1_555
Cu4 Y3 3.018211 1_455
Cu4 Y0 3.061905 1_555
Cu4 Y2 3.067734 1_556
Cu4 Y2 3.067734 1_545
Cu5 Si2 2.296315 1_555
Cu5 Y0 3.018211 1_555
Cu5 Y3 3.061905 1_565
Cu5 Y1 3.067734 1_555
Cu5 Y1 3.067734 1_566
Si0 Y0 2.963532 1_555
Si0 Y2 3.041159 1_556
Si0 Y2 3.041159 1_545
Si0 Y3 3.095722 1_455
Si1 Y1 2.963532 1_555
Si1 Y3 3.041159 1_554
Si1 Y3 3.041159 1_565
Si1 Y2 3.095722 1_655
Si2 Y3 2.963540 1_565
Si2 Y1 3.041158 1_566
Si2 Y1 3.041164 1_555
Si2 Y0 3.095719 1_555
Si3 Y2 2.963540 1_545
Si3 Y0 3.041158 1_544
Si3 Y0 3.041164 1_555
Si3 Y1 3.095719 1_555
