# generated using pymatgen
data_Cu2Ni3RhSe8
_symmetry_space_group_name_H-M   'P 1'
_cell_length_a   7.13454533
_cell_length_b   7.13454440
_cell_length_c   7.20095341
_cell_angle_alpha   60.30460678
_cell_angle_beta   60.30460970
_cell_angle_gamma   59.99999692
_symmetry_Int_Tables_number   1
_chemical_formula_structural   Cu2Ni3RhSe8
_chemical_formula_sum   'Cu2 Ni3 Rh1 Se8'
_cell_volume   260.37053116
_cell_formula_units_Z   1
loop_
 _symmetry_equiv_pos_site_id
 _symmetry_equiv_pos_as_xyz
  1  'x, y, z'
loop_
 _atom_site_type_symbol
 _atom_site_label
 _atom_site_symmetry_multiplicity
 _atom_site_fract_x
 _atom_site_fract_y
 _atom_site_fract_z
 _atom_site_occupancy
  Cu  Cu0  1  0.49910894  0.49910894  0.50267419  1
  Cu  Cu1  1  0.75089106  0.75089106  0.74732581  1
  Ni  Ni0  1  0.12500000  0.12500000  0.12500000  1
  Ni  Ni1  1  0.12500000  0.62500000  0.12500000  1
  Ni  Ni2  1  0.62500000  0.12500000  0.12500000  1
  Rh  Rh0  1  0.12500000  0.12500000  0.62500000  1
  Se  Se0  1  0.34349305  0.88237877  0.89175040  1
  Se  Se1  1  0.36762123  0.36762123  0.35824960  1
  Se  Se2  1  0.90650695  0.36762123  0.35824960  1
  Se  Se3  1  0.88560153  0.88560153  0.34319641  1
  Se  Se4  1  0.88237877  0.88237877  0.89175040  1
  Se  Se5  1  0.36762123  0.90650695  0.35824960  1
  Se  Se6  1  0.36439847  0.36439847  0.90680359  1
  Se  Se7  1  0.88237877  0.34349305  0.89175040  1
loop_
_geom_bond_atom_site_label_1
_geom_bond_atom_site_label_2
_geom_bond_distance
_geom_bond_site_symmetry_2
Cu0 Se5 2.378005 1_555
Cu0 Se2 2.378006 1_555
Cu0 Se1 2.378017 1_555
Cu0 Se6 2.386982 1_555
Cu1 Se7 2.378005 1_555
Cu1 Se0 2.378006 1_555
Cu1 Se4 2.378017 1_555
Cu1 Se3 2.386982 1_555
Ni0 Se2 2.415694 1_455
Ni0 Se0 2.415694 1_544
Ni0 Se5 2.415694 1_545
Ni0 Se7 2.415694 1_454
Ni0 Se6 2.429553 1_554
Ni0 Se3 2.429553 1_445
Ni1 Se1 2.415695 1_555
Ni1 Se4 2.415695 1_454
Ni1 Se0 2.415700 1_554
Ni1 Se2 2.415700 1_455
Ni1 Se3 2.429558 1_455
Ni1 Se6 2.429558 1_554
Ni2 Se1 2.415695 1_555
Ni2 Se4 2.415695 1_544
Ni2 Se7 2.415700 1_554
Ni2 Se5 2.415700 1_545
Ni2 Se3 2.429558 1_545
Ni2 Se6 2.429558 1_554
Rh0 Se1 2.467802 1_555
Rh0 Se4 2.467802 1_445
Rh0 Se7 2.467806 1_455
Rh0 Se5 2.467806 1_545
Rh0 Se0 2.467806 1_545
Rh0 Se2 2.467806 1_455
