# generated using pymatgen
data_Mn4GePd8Au3
_symmetry_space_group_name_H-M   'P 1'
_cell_length_a   6.84914735
_cell_length_b   6.84914790
_cell_length_c   6.84914784
_cell_angle_alpha   106.90124687
_cell_angle_beta   106.90124759
_cell_angle_gamma   114.74333249
_symmetry_Int_Tables_number   1
_chemical_formula_structural   Mn4GePd8Au3
_chemical_formula_sum   'Mn4 Ge1 Pd8 Au3'
_cell_volume   245.75090736
_cell_formula_units_Z   1
loop_
 _symmetry_equiv_pos_site_id
 _symmetry_equiv_pos_as_xyz
  1  'x, y, z'
loop_
 _atom_site_type_symbol
 _atom_site_label
 _atom_site_symmetry_multiplicity
 _atom_site_fract_x
 _atom_site_fract_y
 _atom_site_fract_z
 _atom_site_occupancy
  Mn  Mn0  1  0.25979568  0.25979568  0.51959237  1
  Mn  Mn1  1  0.74020432  0.74020432  0.48040763  1
  Mn  Mn2  1  0.25979568  0.74020432  0.00000000  1
  Mn  Mn3  1  0.74020432  0.25979568  1.00000000  1
  Ge  Ge0  1  0.00000000  0.00000000  0.00000000  1
  Pd  Pd0  1  0.48064814  0.23591132  0.24473582  1
  Pd  Pd1  1  0.51935186  0.76408868  0.75526418  1
  Pd  Pd2  1  0.99117551  0.23591132  0.75526418  1
  Pd  Pd3  1  0.23591132  0.99117551  0.75526418  1
  Pd  Pd4  1  0.00882449  0.76408868  0.24473582  1
  Pd  Pd5  1  0.76408868  0.00882449  0.24473582  1
  Pd  Pd6  1  0.23591132  0.48064814  0.24473582  1
  Pd  Pd7  1  0.76408868  0.51935186  0.75526418  1
  Au  Au0  1  0.50000000  0.00000000  0.50000000  1
  Au  Au1  1  0.00000000  0.50000000  0.50000000  1
  Au  Au2  1  0.50000000  0.50000000  0.00000000  1
loop_
_geom_bond_atom_site_label_1
_geom_bond_atom_site_label_2
_geom_bond_distance
_geom_bond_site_symmetry_2
Mn0 Pd5 2.746373 1_455
Mn0 Pd4 2.746373 1_545
Mn0 Pd0 2.746383 1_555
Mn0 Pd6 2.746383 1_555
Mn0 Pd2 2.765052 1_455
Mn0 Pd3 2.765052 1_545
Mn0 Pd7 2.765058 1_555
Mn0 Pd1 2.765058 1_555
Mn1 Pd3 2.746373 1_655
Mn1 Pd2 2.746373 1_565
Mn1 Pd1 2.746383 1_555
Mn1 Pd7 2.746383 1_555
Mn1 Pd4 2.765052 1_655
Mn1 Pd5 2.765052 1_565
Mn1 Pd6 2.765058 1_555
Mn1 Pd0 2.765058 1_555
Mn2 Pd7 2.746371 1_454
Mn2 Pd0 2.746371 1_565
Mn2 Pd4 2.746372 1_555
Mn2 Pd3 2.746372 1_554
Mn2 Pd1 2.765052 1_554
Mn2 Pd6 2.765052 1_555
Mn2 Pd5 2.765057 1_565
Mn2 Pd2 2.765058 1_454
Mn3 Pd6 2.746371 1_656
Mn3 Pd1 2.746371 1_545
Mn3 Pd2 2.746372 1_555
Mn3 Pd5 2.746372 1_556
Mn3 Pd0 2.765052 1_556
Mn3 Pd7 2.765052 1_555
Mn3 Pd3 2.765057 1_545
Mn3 Pd4 2.765058 1_656
Ge0 Pd5 2.649876 1_455
Ge0 Pd3 2.649876 1_544
Ge0 Pd4 2.649876 1_545
Ge0 Pd2 2.649876 1_454
Ge0 Pd0 2.649881 1_555
Ge0 Pd1 2.649881 1_444
Ge0 Pd6 2.649882 1_555
Ge0 Pd7 2.649882 1_444
Ge0 Mn3 2.997136 1_454
Ge0 Mn2 2.997136 1_545
Ge0 Mn0 2.997141 1_555
Ge0 Mn1 2.997141 1_444
Au0 Pd1 2.715170 1_545
Au0 Pd0 2.715170 1_555
Au0 Pd2 2.715170 1_555
Au0 Pd4 2.715170 1_545
Au0 Pd7 2.853189 1_555
Au0 Pd6 2.853189 1_545
Au0 Pd3 2.853195 1_545
Au0 Pd5 2.853195 1_555
Au0 Mn3 2.886341 1_555
Au0 Mn2 2.886341 1_545
Au0 Mn1 2.886341 1_545
Au0 Mn0 2.886341 1_555
Au1 Pd7 2.715170 1_455
Au1 Pd6 2.715170 1_555
Au1 Pd3 2.715171 1_555
Au1 Pd5 2.715171 1_455
Au1 Pd1 2.853189 1_555
Au1 Pd0 2.853189 1_455
Au1 Pd2 2.853195 1_455
Au1 Pd4 2.853195 1_555
Au1 Mn2 2.886341 1_556
Au1 Mn3 2.886341 1_454
Au1 Mn0 2.886341 1_555
Au1 Mn1 2.886341 1_455
Au2 Mn1 2.771114 1_555
Au2 Mn0 2.771114 1_554
Au2 Mn2 2.771120 1_555
Au2 Mn3 2.771120 1_554
Au2 Pd4 2.791131 1_655
Au2 Pd2 2.791131 1_454
Au2 Pd5 2.791131 1_565
Au2 Pd3 2.791131 1_544
Au2 Pd6 2.791131 1_555
Au2 Pd7 2.791131 1_554
Au2 Pd0 2.791131 1_555
Au2 Pd1 2.791131 1_554
