# generated using pymatgen
data_K4ZnP2Pd
_symmetry_space_group_name_H-M   'P 1'
_cell_length_a   6.22913707
_cell_length_b   6.22913765
_cell_length_c   5.70024371
_cell_angle_alpha   88.58212658
_cell_angle_beta   91.41786483
_cell_angle_gamma   75.09407272
_symmetry_Int_Tables_number   1
_chemical_formula_structural   K4ZnP2Pd
_chemical_formula_sum   'K4 Zn1 P2 Pd1'
_cell_volume   213.56258542
_cell_formula_units_Z   1
loop_
 _symmetry_equiv_pos_site_id
 _symmetry_equiv_pos_as_xyz
  1  'x, y, z'
loop_
 _atom_site_type_symbol
 _atom_site_label
 _atom_site_symmetry_multiplicity
 _atom_site_fract_x
 _atom_site_fract_y
 _atom_site_fract_z
 _atom_site_occupancy
  K  K0  1  0.31348711  0.02590888  0.25751208  1
  K  K1  1  0.97409212  0.68651389  0.25751208  1
  K  K2  1  0.02590888  0.31348711  0.74248692  1
  K  K3  1  0.68651389  0.97409212  0.74248692  1
  Zn  Zn0  1  0.50000000  0.50000000  0.00000000  1
  P  P0  1  0.74248737  0.25751263  0.24040734  1
  P  P1  1  0.25751263  0.74248737  0.75959166  1
  Pd  Pd0  1  0.50000000  0.50000000  0.50000000  1
loop_
_geom_bond_atom_site_label_1
_geom_bond_atom_site_label_2
_geom_bond_distance
_geom_bond_site_symmetry_2
K0 P0 3.349838 1_555
K0 P1 3.397851 1_545
K0 Pd0 3.425005 1_545
K0 P1 3.436557 1_544
K0 P0 3.475325 1_455
K0 Pd0 3.724159 1_555
K1 P0 3.349848 1_555
K1 P1 3.397847 1_655
K1 Pd0 3.425000 1_655
K1 P1 3.436551 1_654
K1 P0 3.475321 1_565
K1 Pd0 3.724167 1_555
K2 P1 3.349838 1_555
K2 P0 3.397851 1_455
K2 Pd0 3.425003 1_455
K2 P0 3.436556 1_456
K2 P1 3.475325 1_545
K2 Pd0 3.724156 1_555
K3 P1 3.349848 1_555
K3 P0 3.397846 1_565
K3 Pd0 3.424998 1_565
K3 P0 3.436552 1_566
K3 P1 3.475320 1_655
K3 Pd0 3.724165 1_555
P0 Zn0 2.249982 1_555
P0 Pd0 2.408363 1_555
P1 Zn0 2.249986 1_556
P1 Pd0 2.408359 1_555
Pd0 Zn0 2.850122 1_555
Pd0 Zn0 2.850122 1_556
