# generated using pymatgen
data_Sr5P2Pb
_symmetry_space_group_name_H-M   'P 1'
_cell_length_a   9.63294668
_cell_length_b   9.63294631
_cell_length_c   9.63294657
_cell_angle_alpha   128.45836380
_cell_angle_beta   128.45837160
_cell_angle_gamma   75.88365857
_symmetry_Int_Tables_number   1
_chemical_formula_structural   Sr5P2Pb
_chemical_formula_sum   'Sr10 P4 Pb2'
_cell_volume   533.01295943
_cell_formula_units_Z   2
loop_
 _symmetry_equiv_pos_site_id
 _symmetry_equiv_pos_as_xyz
  1  'x, y, z'
loop_
 _atom_site_type_symbol
 _atom_site_label
 _atom_site_symmetry_multiplicity
 _atom_site_fract_x
 _atom_site_fract_y
 _atom_site_fract_z
 _atom_site_occupancy
  Sr  Sr0  1  0.78513263  0.28513263  0.81481371  1
  Sr  Sr1  1  0.21486737  0.71486737  0.18518629  1
  Sr  Sr2  1  0.47031892  0.97031892  0.18518629  1
  Sr  Sr3  1  0.28513263  0.47031892  0.50000000  1
  Sr  Sr4  1  0.02968108  0.21486737  0.50000000  1
  Sr  Sr5  1  0.52968108  0.02968108  0.81481371  1
  Sr  Sr6  1  0.71486737  0.52968108  0.50000000  1
  Sr  Sr7  1  0.97031892  0.78513263  0.50000000  1
  Sr  Sr8  1  0.00000000  0.00000000  0.00000000  1
  Sr  Sr9  1  0.50000000  0.50000000  0.00000000  1
  P  P0  1  0.15453321  0.65453321  0.80906843  1
  P  P1  1  0.84546679  0.34546679  0.19093157  1
  P  P2  1  0.65453321  0.84546679  0.50000000  1
  P  P3  1  0.34546679  0.15453321  0.50000000  1
  Pb  Pb0  1  0.25000000  0.25000000  0.00000000  1
  Pb  Pb1  1  0.75000000  0.75000000  0.00000000  1
loop_
_geom_bond_atom_site_label_1
_geom_bond_atom_site_label_2
_geom_bond_distance
_geom_bond_site_symmetry_2
P0 Sr1 2.954443 1_556
P0 Sr2 2.954463 1_556
P0 Sr9 3.170036 1_556
P0 Sr8 3.170037 1_566
P0 Sr6 3.254821 1_455
P0 Sr4 3.254821 1_555
P0 Sr7 3.254839 1_455
P0 Sr3 3.254840 1_555
P1 Sr0 2.954443 1_554
P1 Sr5 2.954463 1_554
P1 Sr9 3.170036 1_555
P1 Sr8 3.170037 1_655
P1 Sr3 3.254821 1_655
P1 Sr7 3.254821 1_555
P1 Sr4 3.254839 1_655
P1 Sr6 3.254840 1_555
P2 Sr6 2.954462 1_555
P2 Sr7 2.954462 1_555
P2 Sr8 3.170041 1_666
P2 Sr9 3.170041 1_555
P2 Sr2 3.254824 1_555
P2 Sr1 3.254824 1_555
P2 Sr0 3.254824 1_565
P2 Sr5 3.254824 1_565
P3 Sr3 2.954462 1_555
P3 Sr4 2.954462 1_555
P3 Sr8 3.170041 1_555
P3 Sr9 3.170041 1_556
P3 Sr5 3.254824 1_555
P3 Sr0 3.254824 1_555
P3 Sr1 3.254824 1_545
P3 Sr2 3.254824 1_545
Pb0 Sr2 3.663982 1_545
Pb0 Sr6 3.663982 1_555
Pb0 Sr4 3.663982 1_554
Pb0 Sr0 3.663983 1_454
Pb0 Sr1 3.663983 1_555
Pb0 Sr7 3.663983 1_444
Pb0 Sr3 3.663983 1_555
Pb0 Sr5 3.663983 1_554
Pb0 Sr9 3.798441 1_555
Pb0 Sr8 3.798441 1_555
Pb1 Sr5 3.663982 1_564
Pb1 Sr3 3.663982 1_554
Pb1 Sr7 3.663982 1_555
Pb1 Sr1 3.663983 1_655
Pb1 Sr0 3.663983 1_554
Pb1 Sr4 3.663983 1_665
Pb1 Sr6 3.663983 1_554
Pb1 Sr2 3.663983 1_555
Pb1 Sr8 3.798441 1_665
Pb1 Sr9 3.798441 1_555
