# generated using pymatgen
data_NaMg2H7Os
_symmetry_space_group_name_H-M   'P 1'
_cell_length_a   4.65826301
_cell_length_b   4.65826344
_cell_length_c   11.69244457
_cell_angle_alpha   90.00000000
_cell_angle_beta   90.00000000
_cell_angle_gamma   120.00001088
_symmetry_Int_Tables_number   1
_chemical_formula_structural   NaMg2H7Os
_chemical_formula_sum   'Na2 Mg4 H14 Os2'
_cell_volume   219.72726796
_cell_formula_units_Z   2
loop_
 _symmetry_equiv_pos_site_id
 _symmetry_equiv_pos_as_xyz
  1  'x, y, z'
loop_
 _atom_site_type_symbol
 _atom_site_label
 _atom_site_symmetry_multiplicity
 _atom_site_fract_x
 _atom_site_fract_y
 _atom_site_fract_z
 _atom_site_occupancy
  Na  Na0  1  0.00000000  0.00000000  0.25000000  1
  Na  Na1  1  0.00000000  0.00000000  0.75000000  1
  Mg  Mg0  1  0.33333300  0.66666700  0.07573740  1
  Mg  Mg1  1  0.66666700  0.33333300  0.92426260  1
  Mg  Mg2  1  0.66666700  0.33333300  0.57573740  1
  Mg  Mg3  1  0.33333300  0.66666700  0.42426260  1
  H  H0  1  0.33333300  0.66666700  0.25000000  1
  H  H1  1  0.66666700  0.33333300  0.75000000  1
  H  H2  1  0.16818016  0.33636031  0.58656665  1
  H  H3  1  0.83181984  0.66363969  0.41343335  1
  H  H4  1  0.66363969  0.83181984  0.58656665  1
  H  H5  1  0.83181984  0.66363969  0.08656665  1
  H  H6  1  0.33636031  0.16818016  0.41343335  1
  H  H7  1  0.16818016  0.33636031  0.91343335  1
  H  H8  1  0.16818016  0.83181984  0.58656665  1
  H  H9  1  0.33636031  0.16818016  0.08656665  1
  H  H10  1  0.83181984  0.16818016  0.41343335  1
  H  H11  1  0.66363969  0.83181984  0.91343335  1
  H  H12  1  0.83181984  0.16818016  0.08656665  1
  H  H13  1  0.16818016  0.83181984  0.91343335  1
  Os  Os0  1  0.00000000  0.00000000  0.00000000  1
  Os  Os1  1  0.00000000  0.00000000  0.50000000  1
loop_
_geom_bond_atom_site_label_1
_geom_bond_atom_site_label_2
_geom_bond_distance
_geom_bond_site_symmetry_2
H0 Mg3 2.037556 1_555
H0 Mg0 2.037556 1_555
H0 Na0 2.689447 1_565
H0 Na0 2.689450 1_665
H0 Na0 2.689451 1_555
H1 Mg1 2.037556 1_555
H1 Mg2 2.037556 1_555
H1 Na1 2.689447 1_655
H1 Na1 2.689450 1_555
H1 Na1 2.689451 1_665
H2 Os1 1.692860 1_555
H2 Mg3 2.318831 1_555
H2 Mg2 2.332600 1_455
H2 Mg2 2.332605 1_555
H2 Na1 2.343704 1_555
H3 Os1 1.692860 1_665
H3 Mg2 2.318831 1_555
H3 Mg3 2.332600 1_655
H3 Mg3 2.332605 1_555
H3 Na0 2.343704 1_665
H4 Os1 1.692860 1_665
H4 Mg3 2.318831 1_555
H4 Mg2 2.332601 1_565
H4 Mg2 2.332605 1_555
H4 Na1 2.343704 1_665
H5 Os0 1.692860 1_665
H5 Mg1 2.318831 1_554
H5 Mg0 2.332600 1_655
H5 Mg0 2.332605 1_555
H5 Na0 2.343704 1_665
H6 Os1 1.692860 1_555
H6 Mg2 2.318831 1_555
H6 Mg3 2.332601 1_545
H6 Mg3 2.332605 1_555
H6 Na0 2.343704 1_555
H7 Os0 1.692860 1_556
H7 Mg0 2.318831 1_556
H7 Mg1 2.332600 1_455
H7 Mg1 2.332605 1_555
H7 Na1 2.343704 1_555
H8 Os1 1.692860 1_565
H8 Mg3 2.318829 1_555
H8 Mg2 2.332602 1_455
H8 Mg2 2.332602 1_565
H8 Na1 2.343704 1_565
H9 Os0 1.692860 1_555
H9 Mg1 2.318831 1_554
H9 Mg0 2.332601 1_545
H9 Mg0 2.332605 1_555
H9 Na0 2.343704 1_555
H10 Os1 1.692860 1_655
H10 Mg2 2.318829 1_555
H10 Mg3 2.332602 1_655
H10 Mg3 2.332602 1_545
H10 Na0 2.343704 1_655
H11 Os0 1.692860 1_666
H11 Mg0 2.318831 1_556
H11 Mg1 2.332601 1_565
H11 Mg1 2.332605 1_555
H11 Na1 2.343704 1_665
H12 Os0 1.692860 1_655
H12 Mg1 2.318829 1_554
H12 Mg0 2.332602 1_655
H12 Mg0 2.332602 1_545
H12 Na0 2.343704 1_655
H13 Os0 1.692860 1_566
H13 Mg0 2.318829 1_556
H13 Mg1 2.332602 1_455
H13 Mg1 2.332602 1_565
H13 Na1 2.343704 1_565
