# generated using pymatgen
data_Sr2Ni2I
_symmetry_space_group_name_H-M   'P 1'
_cell_length_a   4.15641630
_cell_length_b   4.15651852
_cell_length_c   18.13176010
_cell_angle_alpha   90.00000000
_cell_angle_beta   90.00000000
_cell_angle_gamma   119.99920207
_symmetry_Int_Tables_number   1
_chemical_formula_structural   Sr2Ni2I
_chemical_formula_sum   'Sr4 Ni4 I2'
_cell_volume   271.28316679
_cell_formula_units_Z   2
loop_
 _symmetry_equiv_pos_site_id
 _symmetry_equiv_pos_as_xyz
  1  'x, y, z'
loop_
 _atom_site_type_symbol
 _atom_site_label
 _atom_site_symmetry_multiplicity
 _atom_site_fract_x
 _atom_site_fract_y
 _atom_site_fract_z
 _atom_site_occupancy
  Sr  Sr0  1  0.00000386  0.00000772  0.10810168  1
  Sr  Sr1  1  0.00000386  0.00000772  0.39189832  1
  Sr  Sr2  1  0.99999614  0.99999228  0.60810168  1
  Sr  Sr3  1  0.99999614  0.99999228  0.89189832  1
  Ni  Ni0  1  0.33333237  0.66666374  0.00115106  1
  Ni  Ni1  1  0.33333237  0.66666374  0.49884894  1
  Ni  Ni2  1  0.66666763  0.33333626  0.50115106  1
  Ni  Ni3  1  0.66666763  0.33333626  0.99884894  1
  I  I0  1  0.66672639  0.33345079  0.25000000  1
  I  I1  1  0.33327361  0.66654821  0.75000000  1
loop_
_geom_bond_atom_site_label_1
_geom_bond_atom_site_label_2
_geom_bond_distance
_geom_bond_site_symmetry_2
Ni0 Ni3 2.400077 1_554
Ni0 Ni3 2.400083 1_454
Ni0 Ni3 2.400170 1_564
Ni0 Sr0 3.085334 1_665
Ni0 Sr0 3.085336 1_555
Ni0 Sr0 3.085337 1_565
Ni0 Sr3 3.111717 1_554
Ni0 Sr3 3.111720 1_454
Ni0 Sr3 3.111784 1_444
Ni1 Ni2 2.400077 1_555
Ni1 Ni2 2.400083 1_455
Ni1 Ni2 2.400170 1_565
Ni1 Sr1 3.085334 1_665
Ni1 Sr1 3.085336 1_555
Ni1 Sr1 3.085337 1_565
Ni1 Sr2 3.111717 1_555
Ni1 Sr2 3.111720 1_455
Ni1 Sr2 3.111784 1_445
Ni2 Sr2 3.085334 1_445
Ni2 Sr2 3.085336 1_555
Ni2 Sr2 3.085337 1_545
Ni2 Sr1 3.111717 1_555
Ni2 Sr1 3.111720 1_655
Ni2 Sr1 3.111784 1_665
Ni3 Sr3 3.085334 1_445
Ni3 Sr3 3.085336 1_555
Ni3 Sr3 3.085337 1_545
Ni3 Sr0 3.111717 1_556
Ni3 Sr0 3.111720 1_656
Ni3 Sr0 3.111784 1_666
I0 Sr1 3.518056 1_665
I0 Sr0 3.518056 1_665
I0 Sr1 3.518418 1_655
I0 Sr0 3.518418 1_655
I0 Sr1 3.518423 1_555
I0 Sr0 3.518423 1_555
I1 Sr3 3.518054 1_445
I1 Sr2 3.518054 1_445
I1 Sr3 3.518421 1_455
I1 Sr2 3.518421 1_455
I1 Sr3 3.518423 1_555
I1 Sr2 3.518423 1_555
