# generated using pymatgen
data_Cd3P6PbN13
_symmetry_space_group_name_H-M   'P 1'
_cell_length_a   7.29910555
_cell_length_b   7.27512191
_cell_length_c   7.27512297
_cell_angle_alpha   109.40434571
_cell_angle_beta   109.53801955
_cell_angle_gamma   109.53801562
_symmetry_Int_Tables_number   1
_chemical_formula_structural   Cd3P6PbN13
_chemical_formula_sum   'Cd3 P6 Pb1 N13'
_cell_volume   297.14584470
_cell_formula_units_Z   1
loop_
 _symmetry_equiv_pos_site_id
 _symmetry_equiv_pos_as_xyz
  1  'x, y, z'
loop_
 _atom_site_type_symbol
 _atom_site_label
 _atom_site_symmetry_multiplicity
 _atom_site_fract_x
 _atom_site_fract_y
 _atom_site_fract_z
 _atom_site_occupancy
  Cd  Cd0  1  0.99681935  1.00000000  0.69036045  1
  Cd  Cd1  1  0.99681935  0.69036045  1.00000000  1
  Cd  Cd2  1  0.30645990  0.30963955  0.30963955  1
  P  P0  1  0.24523937  0.74882050  0.49845320  1
  P  P1  1  0.74678617  0.25036630  0.50154680  1
  P  P2  1  0.74678617  0.50154680  0.25036630  1
  P  P3  1  0.24523937  0.49845320  0.74882050  1
  P  P4  1  0.49641987  0.74963370  0.25117950  1
  P  P5  1  0.49641987  0.25117950  0.74963370  1
  Pb  Pb0  1  0.70912297  1.00000000  1.00000000  1
  N  N0  1  0.04669199  0.00000000  0.00000000  1
  N  N1  1  0.70763269  0.28179840  0.28179840  1
  N  N2  1  0.27930135  0.71251359  0.28233177  1
  N  N3  1  0.28821704  0.57143909  0.57143909  1
  N  N4  1  0.56678876  0.56981818  0.28748641  1
  N  N5  1  0.42583430  0.71820160  1.00000000  1
  N  N6  1  0.99697058  0.71766823  0.43018182  1
  N  N7  1  0.56678876  0.28748641  0.56981818  1
  N  N8  1  0.71677796  1.00000000  0.42856091  1
  N  N9  1  0.42583430  1.00000000  0.71820160  1
  N  N10  1  0.71677796  0.42856091  1.00000000  1
  N  N11  1  0.27930135  0.28233177  0.71251359  1
  N  N12  1  0.99697058  0.43018182  0.71766823  1
loop_
_geom_bond_atom_site_label_1
_geom_bond_atom_site_label_2
_geom_bond_distance
_geom_bond_site_symmetry_2
Cd0 N0 2.158363 1_666
Cd0 N8 2.280734 1_555
Cd0 N11 2.285007 1_665
Cd0 N6 2.285012 1_555
Cd1 N0 2.158362 1_666
Cd1 N10 2.280734 1_555
Cd1 N2 2.285007 1_656
Cd1 N12 2.285012 1_555
Cd2 N0 2.158364 1_555
Cd2 N3 2.280739 1_555
Cd2 N4 2.285007 1_555
Cd2 N7 2.285007 1_555
N0 Pb0 2.463952 1_444
N1 P2 1.634266 1_555
N1 P1 1.634266 1_555
N1 Pb0 2.375538 1_544
N2 P4 1.621863 1_555
N2 P0 1.622706 1_555
N3 P0 1.631050 1_555
N3 P3 1.631050 1_555
N4 P2 1.621852 1_555
N4 P4 1.622713 1_555
N5 P4 1.634259 1_556
N5 P3 1.634262 1_555
N5 Pb0 2.375538 1_555
N6 P0 1.621849 1_655
N6 P2 1.622710 1_555
N7 P1 1.621852 1_555
N7 P5 1.622713 1_555
N8 P1 1.631043 1_565
N8 P4 1.631044 1_555
N9 P5 1.634259 1_565
N9 P0 1.634262 1_555
N9 Pb0 2.375538 1_555
N10 P2 1.631043 1_556
N10 P5 1.631044 1_555
N11 P5 1.621863 1_555
N11 P3 1.622706 1_555
N12 P3 1.621849 1_655
N12 P1 1.622710 1_555
