# generated using pymatgen
data_Hf3AlPd2N
_symmetry_space_group_name_H-M   'P 1'
_cell_length_a   8.50113464
_cell_length_b   8.50113397
_cell_length_c   8.50113431
_cell_angle_alpha   59.99999870
_cell_angle_beta   60.00000131
_cell_angle_gamma   59.99999385
_symmetry_Int_Tables_number   1
_chemical_formula_structural   Hf3AlPd2N
_chemical_formula_sum   'Hf12 Al4 Pd8 N4'
_cell_volume   434.42580513
_cell_formula_units_Z   4
loop_
 _symmetry_equiv_pos_site_id
 _symmetry_equiv_pos_as_xyz
  1  'x, y, z'
loop_
 _atom_site_type_symbol
 _atom_site_label
 _atom_site_symmetry_multiplicity
 _atom_site_fract_x
 _atom_site_fract_y
 _atom_site_fract_z
 _atom_site_occupancy
  Hf  Hf0  1  0.81200790  0.81200790  0.18799210  1
  Hf  Hf1  1  0.18799210  0.18799210  0.81200790  1
  Hf  Hf2  1  0.81200790  0.18799210  0.81200790  1
  Hf  Hf3  1  0.18799210  0.81200790  0.18799210  1
  Hf  Hf4  1  0.18799210  0.81200790  0.81200790  1
  Hf  Hf5  1  0.81200790  0.18799210  0.18799210  1
  Hf  Hf6  1  0.43799210  0.43799210  0.06200790  1
  Hf  Hf7  1  0.06200790  0.06200790  0.43799210  1
  Hf  Hf8  1  0.43799210  0.06200790  0.43799210  1
  Hf  Hf9  1  0.06200790  0.43799210  0.06200790  1
  Hf  Hf10  1  0.06200790  0.43799210  0.43799210  1
  Hf  Hf11  1  0.43799210  0.06200790  0.06200790  1
  Al  Al0  1  0.12500000  0.62500000  0.62500000  1
  Al  Al1  1  0.62500000  0.12500000  0.62500000  1
  Al  Al2  1  0.62500000  0.62500000  0.12500000  1
  Al  Al3  1  0.62500000  0.62500000  0.62500000  1
  Pd  Pd0  1  0.76289636  0.41236788  0.41236788  1
  Pd  Pd1  1  0.41236788  0.76289636  0.41236788  1
  Pd  Pd2  1  0.41236788  0.41236788  0.76289636  1
  Pd  Pd3  1  0.41236788  0.41236788  0.41236788  1
  Pd  Pd4  1  0.48710364  0.83763212  0.83763212  1
  Pd  Pd5  1  0.83763212  0.48710364  0.83763212  1
  Pd  Pd6  1  0.83763212  0.83763212  0.48710364  1
  Pd  Pd7  1  0.83763212  0.83763212  0.83763212  1
  N  N0  1  0.62500000  0.12500000  0.12500000  1
  N  N1  1  0.12500000  0.62500000  0.12500000  1
  N  N2  1  0.12500000  0.12500000  0.62500000  1
  N  N3  1  0.12500000  0.12500000  0.12500000  1
loop_
_geom_bond_atom_site_label_1
_geom_bond_atom_site_label_2
_geom_bond_distance
_geom_bond_site_symmetry_2
Hf0 N0 2.256182 1_565
Hf0 N1 2.256183 1_655
Hf0 Pd6 2.777758 1_555
Hf0 Pd7 2.777758 1_554
Hf0 Pd0 3.081664 1_555
Hf0 Pd1 3.081665 1_555
Hf1 N2 2.256183 1_555
Hf1 N3 2.256183 1_556
Hf1 Pd4 2.777758 1_545
Hf1 Pd5 2.777758 1_455
Hf1 Pd3 3.081665 1_555
Hf1 Pd2 3.081665 1_555
Hf2 N2 2.256183 1_655
Hf2 N0 2.256183 1_556
Hf2 Pd7 2.777758 1_545
Hf2 Pd5 2.777758 1_555
Hf2 Pd2 3.081664 1_555
Hf2 Pd0 3.081665 1_555
Hf3 N3 2.256182 1_565
Hf3 N1 2.256183 1_555
Hf3 Pd6 2.777758 1_455
Hf3 Pd4 2.777758 1_554
Hf3 Pd3 3.081664 1_555
Hf3 Pd1 3.081665 1_555
Hf4 N2 2.256182 1_565
Hf4 N1 2.256183 1_556
Hf4 Pd7 2.777758 1_455
Hf4 Pd4 2.777758 1_555
Hf4 Pd2 3.081664 1_555
Hf4 Pd1 3.081665 1_555
Hf5 N3 2.256183 1_655
Hf5 N0 2.256183 1_555
Hf5 Pd6 2.777758 1_545
Hf5 Pd5 2.777758 1_554
Hf5 Pd3 3.081664 1_555
Hf5 Pd0 3.081665 1_555
Hf6 N0 2.256182 1_555
Hf6 N1 2.256183 1_555
Hf6 Pd2 2.777758 1_554
Hf6 Pd3 2.777758 1_555
Hf6 Pd4 3.081664 1_554
Hf6 Pd5 3.081665 1_554
Hf7 N2 2.256183 1_555
Hf7 N3 2.256183 1_555
Hf7 Pd0 2.777758 1_455
Hf7 Pd1 2.777758 1_545
Hf7 Pd7 3.081665 1_445
Hf7 Pd6 3.081665 1_445
Hf8 N2 2.256183 1_555
Hf8 N0 2.256183 1_555
Hf8 Pd3 2.777758 1_555
Hf8 Pd1 2.777758 1_545
Hf8 Pd6 3.081664 1_545
Hf8 Pd4 3.081665 1_545
Hf9 N3 2.256182 1_555
Hf9 N1 2.256183 1_555
Hf9 Pd2 2.777758 1_554
Hf9 Pd0 2.777758 1_455
Hf9 Pd7 3.081664 1_454
Hf9 Pd5 3.081665 1_454
Hf10 N2 2.256182 1_555
Hf10 N1 2.256183 1_555
Hf10 Pd3 2.777758 1_555
Hf10 Pd0 2.777758 1_455
Hf10 Pd6 3.081664 1_455
Hf10 Pd5 3.081665 1_455
Hf11 N3 2.256183 1_555
Hf11 N0 2.256183 1_555
Hf11 Pd2 2.777758 1_554
Hf11 Pd1 2.777758 1_545
Hf11 Pd7 3.081664 1_544
Hf11 Pd4 3.081665 1_544
Al0 Pd2 2.634121 1_555
Al0 Pd7 2.634121 1_455
Al0 Pd3 2.634121 1_555
Al0 Pd6 2.634121 1_455
Al0 Pd1 2.634121 1_555
Al0 Pd5 2.634121 1_455
Al1 Pd7 2.634121 1_545
Al1 Pd2 2.634121 1_555
Al1 Pd6 2.634121 1_545
Al1 Pd3 2.634121 1_555
Al1 Pd0 2.634121 1_555
Al1 Pd4 2.634121 1_545
Al2 Pd0 2.634121 1_555
Al2 Pd4 2.634121 1_554
Al2 Pd5 2.634121 1_554
Al2 Pd1 2.634121 1_555
Al2 Pd7 2.634121 1_554
Al2 Pd3 2.634121 1_555
Al3 Pd4 2.634121 1_555
Al3 Pd0 2.634121 1_555
Al3 Pd5 2.634121 1_555
Al3 Pd1 2.634121 1_555
Al3 Pd6 2.634121 1_555
Al3 Pd2 2.634121 1_555
