# generated using pymatgen
data_Ba6S5Cl
_symmetry_space_group_name_H-M   'P 1'
_cell_length_a   10.16393184
_cell_length_b   10.16393153
_cell_length_c   9.10228240
_cell_angle_alpha   77.02011085
_cell_angle_beta   77.02011229
_cell_angle_gamma   25.83947542
_symmetry_Int_Tables_number   1
_chemical_formula_structural   Ba6S5Cl
_chemical_formula_sum   'Ba6 S5 Cl1'
_cell_volume   398.80746648
_cell_formula_units_Z   1
loop_
 _symmetry_equiv_pos_site_id
 _symmetry_equiv_pos_as_xyz
  1  'x, y, z'
loop_
 _atom_site_type_symbol
 _atom_site_label
 _atom_site_symmetry_multiplicity
 _atom_site_fract_x
 _atom_site_fract_y
 _atom_site_fract_z
 _atom_site_occupancy
  Ba  Ba0  1  0.49983537  0.49983537  0.73700699  1
  Ba  Ba1  1  0.16776369  0.16776369  0.41730412  1
  Ba  Ba2  1  0.82842125  0.82842125  0.08658374  1
  Ba  Ba3  1  0.50016463  0.50016463  0.26299301  1
  Ba  Ba4  1  0.17157875  0.17157875  0.91341626  1
  Ba  Ba5  1  0.83223631  0.83223631  0.58269588  1
  S  S0  1  0.66440869  0.66440869  0.67048392  1
  S  S1  1  0.33559131  0.33559131  0.32951608  1
  S  S2  1  0.00000000  0.00000000  0.50000000  1
  S  S3  1  0.66467533  0.66467533  0.16550539  1
  S  S4  1  0.33532467  0.33532467  0.83449461  1
  Cl  Cl0  1  0.00000000  0.00000000  0.00000000  1
loop_
_geom_bond_atom_site_label_1
_geom_bond_atom_site_label_2
_geom_bond_distance
_geom_bond_site_symmetry_2
Ba0 S2 3.132896 1_565
Ba0 S2 3.132897 1_655
Ba0 S4 3.174689 1_555
Ba0 S0 3.176325 1_555
Ba0 Cl0 3.301268 1_656
Ba0 Cl0 3.301268 1_566
Ba1 S0 3.226284 1_545
Ba1 S0 3.226284 1_455
Ba1 S2 3.234510 1_555
Ba1 S1 3.235881 1_555
Ba1 S3 3.238162 1_455
Ba1 S3 3.238162 1_545
Ba2 S3 3.157156 1_555
Ba2 S1 3.196693 1_655
Ba2 S1 3.196693 1_565
Ba2 S4 3.209906 1_564
Ba2 S4 3.209906 1_654
Ba2 Cl0 3.308040 1_665
Ba3 S2 3.132896 1_655
Ba3 S2 3.132897 1_565
Ba3 S3 3.174689 1_555
Ba3 S1 3.176325 1_555
Ba3 Cl0 3.301268 1_565
Ba3 Cl0 3.301268 1_655
Ba4 S4 3.157156 1_555
Ba4 S0 3.196693 1_455
Ba4 S0 3.196693 1_545
Ba4 S3 3.209906 1_546
Ba4 S3 3.209906 1_456
Ba4 Cl0 3.308040 1_556
Ba5 S1 3.226284 1_565
Ba5 S1 3.226284 1_655
Ba5 S2 3.234510 1_665
Ba5 S0 3.235881 1_555
Ba5 S4 3.238162 1_655
Ba5 S4 3.238162 1_565
