# generated using pymatgen
data_Y12ZnGaCo4
_symmetry_space_group_name_H-M   'P 1'
_cell_length_a   8.34540992
_cell_length_b   8.34541020
_cell_length_c   8.34540958
_cell_angle_alpha   107.31378732
_cell_angle_beta   109.90906624
_cell_angle_gamma   111.21491009
_symmetry_Int_Tables_number   1
_chemical_formula_structural   Y12ZnGaCo4
_chemical_formula_sum   'Y12 Zn1 Ga1 Co4'
_cell_volume   446.89186980
_cell_formula_units_Z   1
loop_
 _symmetry_equiv_pos_site_id
 _symmetry_equiv_pos_as_xyz
  1  'x, y, z'
loop_
 _atom_site_type_symbol
 _atom_site_label
 _atom_site_symmetry_multiplicity
 _atom_site_fract_x
 _atom_site_fract_y
 _atom_site_fract_z
 _atom_site_occupancy
  Y  Y0  1  0.70339919  0.27392473  0.97732393  1
  Y  Y1  1  0.29660081  0.72607527  0.02267607  1
  Y  Y2  1  0.70339919  0.72607527  0.42947446  1
  Y  Y3  1  0.29660081  0.27392473  0.57052554  1
  Y  Y4  1  0.79796551  0.11719109  0.31922558  1
  Y  Y5  1  0.79796551  0.47873893  0.68077442  1
  Y  Y6  1  0.20203449  0.88280891  0.68077442  1
  Y  Y7  1  0.20203449  0.52126107  0.31922558  1
  Y  Y8  1  0.60291691  0.78641027  0.81650664  1
  Y  Y9  1  0.96990362  0.78641027  0.18349336  1
  Y  Y10  1  0.03009638  0.21358973  0.81650664  1
  Y  Y11  1  0.39708309  0.21358973  0.18349336  1
  Zn  Zn0  1  0.50000000  0.50000000  0.00000000  1
  Ga  Ga0  1  0.50000000  0.00000000  0.50000000  1
  Co  Co0  1  0.88191435  0.50000000  0.38191435  1
  Co  Co1  1  0.11808565  0.50000000  0.61808565  1
  Co  Co2  1  1.00000000  0.10902463  0.10902463  1
  Co  Co3  1  0.00000000  0.89097537  0.89097537  1
loop_
_geom_bond_atom_site_label_1
_geom_bond_atom_site_label_2
_geom_bond_distance
_geom_bond_site_symmetry_2
Y0 Zn0 2.966617 1_556
Y1 Zn0 2.966617 1_555
Y2 Zn0 2.966616 1_555
Y3 Zn0 2.966616 1_556
Y8 Zn0 3.222471 1_556
Y9 Zn0 3.222471 1_555
Y10 Zn0 3.222471 1_556
Y11 Zn0 3.222471 1_555
Ga0 Y5 3.330000 1_555
Ga0 Y7 3.330000 1_545
Ga0 Y4 3.330007 1_555
Ga0 Y6 3.330007 1_545
Ga0 Y0 3.337897 1_555
Ga0 Y1 3.337897 1_545
Ga0 Y3 3.337898 1_555
Ga0 Y2 3.337898 1_545
Ga0 Y10 3.641039 1_655
Ga0 Y9 3.641039 1_445
Ga0 Y8 3.641039 1_545
Ga0 Y11 3.641039 1_555
Co0 Co1 2.263538 1_655
Co0 Y0 2.815639 1_554
Co0 Y2 2.815640 1_555
Co0 Y7 2.847164 1_655
Co0 Y6 2.847165 1_655
Co0 Y4 2.847166 1_555
Co0 Y5 2.847168 1_555
Co0 Y11 3.302728 1_555
Co0 Y9 3.302728 1_555
Co1 Y1 2.815639 1_556
Co1 Y3 2.815640 1_555
Co1 Y5 2.847164 1_455
Co1 Y4 2.847165 1_455
Co1 Y6 2.847166 1_555
Co1 Y7 2.847168 1_555
Co1 Y8 3.302728 1_555
Co1 Y10 3.302728 1_555
Co2 Co3 2.156791 1_644
Co2 Y4 2.819766 1_555
Co2 Y7 2.819773 1_655
Co2 Y8 2.882858 1_544
Co2 Y11 2.882858 1_655
Co2 Y10 2.882858 1_654
Co2 Y9 2.882858 1_545
Co2 Y3 3.277412 1_655
Co2 Y0 3.277412 1_554
Co3 Y6 2.819766 1_555
Co3 Y5 2.819773 1_455
Co3 Y11 2.882858 1_566
Co3 Y8 2.882858 1_455
Co3 Y9 2.882858 1_456
Co3 Y10 2.882858 1_565
Co3 Y2 3.277412 1_455
Co3 Y1 3.277412 1_556
