# generated using pymatgen
data_Nd(MnSi)2
_symmetry_space_group_name_H-M   'P 1'
_cell_length_a   3.95950365
_cell_length_b   3.95950365
_cell_length_c   6.03035229
_cell_angle_alpha   109.16548864
_cell_angle_beta   109.16548965
_cell_angle_gamma   89.99999103
_symmetry_Int_Tables_number   1
_chemical_formula_structural   Nd(MnSi)2
_chemical_formula_sum   'Nd1 Mn2 Si2'
_cell_volume   83.73448904
_cell_formula_units_Z   1
loop_
 _symmetry_equiv_pos_site_id
 _symmetry_equiv_pos_as_xyz
  1  'x, y, z'
loop_
 _atom_site_type_symbol
 _atom_site_label
 _atom_site_symmetry_multiplicity
 _atom_site_fract_x
 _atom_site_fract_y
 _atom_site_fract_z
 _atom_site_occupancy
  Nd  Nd0  1  -0.00000000  -0.00000000  -0.00000000  1
  Mn  Mn0  1  0.25000000  0.75000000  0.50000000  1
  Mn  Mn1  1  0.75000000  0.25000000  0.50000000  1
  Si  Si0  1  0.62085226  0.62085226  0.24170552  1
  Si  Si1  1  0.37914774  0.37914774  0.75829448  1
loop_
_geom_bond_atom_site_label_1
_geom_bond_atom_site_label_2
_geom_bond_distance
_geom_bond_site_symmetry_2
Nd0 Si1 3.083079 1_444
Nd0 Si0 3.083079 1_555
Nd0 Si1 3.083080 1_454
Nd0 Si0 3.083080 1_545
Nd0 Si1 3.083081 1_544
Nd0 Si0 3.083081 1_455
Nd0 Si0 3.083083 1_445
Nd0 Si1 3.083083 1_554
Mn0 Si1 2.413001 1_555
Mn0 Si0 2.413001 1_555
Mn0 Si0 2.413004 1_455
Mn0 Si1 2.413004 1_565
Mn0 Nd0 3.324304 1_565
Mn0 Nd0 3.324304 1_566
Mn0 Nd0 3.324304 1_666
Mn0 Nd0 3.324304 1_555
Mn1 Si0 2.413001 1_555
Mn1 Si1 2.413001 1_555
Mn1 Si1 2.413004 1_655
Mn1 Si0 2.413004 1_545
Mn1 Nd0 3.324304 1_656
Mn1 Nd0 3.324304 1_655
Mn1 Nd0 3.324304 1_555
Mn1 Nd0 3.324304 1_666
Si0 Si1 2.581900 1_554
