# generated using pymatgen
data_Ir4N(OF2)3
_symmetry_space_group_name_H-M   'P 1'
_cell_length_a   4.71524729
_cell_length_b   5.47846634
_cell_length_c   6.70404381
_cell_angle_alpha   98.77784576
_cell_angle_beta   110.68404987
_cell_angle_gamma   89.59448442
_symmetry_Int_Tables_number   1
_chemical_formula_structural   Ir4N(OF2)3
_chemical_formula_sum   'Ir4 N1 O3 F6'
_cell_volume   159.91508189
_cell_formula_units_Z   1
loop_
 _symmetry_equiv_pos_site_id
 _symmetry_equiv_pos_as_xyz
  1  'x, y, z'
loop_
 _atom_site_type_symbol
 _atom_site_label
 _atom_site_symmetry_multiplicity
 _atom_site_fract_x
 _atom_site_fract_y
 _atom_site_fract_z
 _atom_site_occupancy
  Ir  Ir0  1  0.40251060  0.79277891  0.31115903  1
  Ir  Ir1  1  0.07045957  0.71351087  0.69456737  1
  Ir  Ir2  1  0.61215011  0.19791937  0.69802209  1
  Ir  Ir3  1  0.91520864  0.29206187  0.30271531  1
  N  N0  1  0.71314949  0.87772382  0.58788290  1
  O  O0  1  0.10010279  0.63510301  0.40048438  1
  O  O1  1  0.29058695  0.12723435  0.40953791  1
  O  O2  1  0.89403686  0.36767349  0.59692860  1
  F  F0  1  0.51609660  0.45328409  0.19747848  1
  F  F1  1  0.31939706  0.04470532  0.81064574  1
  F  F2  1  0.48137271  0.54602133  0.80262055  1
  F  F3  1  0.67745218  0.95621355  0.18845403  1
  F  F4  1  0.06566346  0.74828066  0.99909401  1
  F  F5  1  0.94181297  0.24749036  0.00041060  1
loop_
_geom_bond_atom_site_label_1
_geom_bond_atom_site_label_2
_geom_bond_distance
_geom_bond_site_symmetry_2
Ir0 N0 1.905315 1_555
Ir0 O0 1.979042 1_555
Ir0 O1 1.983483 1_565
Ir1 N0 1.866314 1_455
Ir1 O2 1.992321 1_455
Ir1 O0 2.006587 1_555
Ir2 N0 1.921046 1_545
Ir2 O1 1.974218 1_555
Ir2 O2 1.984219 1_555
Ir3 O1 1.934031 1_655
Ir3 O2 1.990261 1_555
Ir3 O0 1.991271 1_655
F0 Ir3 2.012013 1_555
F0 Ir0 2.041708 1_555
F1 Ir2 2.031317 1_555
F1 Ir1 2.056574 1_545
F2 Ir1 2.075338 1_555
F2 Ir2 2.095125 1_555
F3 Ir0 2.038063 1_555
F3 Ir3 2.054588 1_565
F4 Ir1 2.029440 1_555
F4 Ir0 2.112220 1_556
F5 Ir3 2.052037 1_555
F5 Ir2 2.052201 1_554
