# generated using pymatgen
data_BaHf2H7
_symmetry_space_group_name_H-M   'P 1'
_cell_length_a   6.79860573
_cell_length_b   6.79860678
_cell_length_c   6.79860645
_cell_angle_alpha   60.00000159
_cell_angle_beta   59.99999648
_cell_angle_gamma   60.00000554
_symmetry_Int_Tables_number   1
_chemical_formula_structural   BaHf2H7
_chemical_formula_sum   'Ba2 Hf4 H14'
_cell_volume   222.20032754
_cell_formula_units_Z   2
loop_
 _symmetry_equiv_pos_site_id
 _symmetry_equiv_pos_as_xyz
  1  'x, y, z'
loop_
 _atom_site_type_symbol
 _atom_site_label
 _atom_site_symmetry_multiplicity
 _atom_site_fract_x
 _atom_site_fract_y
 _atom_site_fract_z
 _atom_site_occupancy
  Ba  Ba0  1  0.25000000  0.25000000  0.25000000  1
  Ba  Ba1  1  0.00000000  0.00000000  0.00000000  1
  Hf  Hf0  1  0.62500000  0.62500000  0.12500000  1
  Hf  Hf1  1  0.62500000  0.12500000  0.62500000  1
  Hf  Hf2  1  0.12500000  0.62500000  0.62500000  1
  Hf  Hf3  1  0.62500000  0.62500000  0.62500000  1
  H  H0  1  0.73180933  0.26819067  0.73180933  1
  H  H1  1  0.98180933  0.51819067  0.98180933  1
  H  H2  1  0.73180933  0.73180933  0.26819067  1
  H  H3  1  0.26819067  0.73180933  0.73180933  1
  H  H4  1  0.73180933  0.26819067  0.26819067  1
  H  H5  1  0.26819067  0.26819067  0.73180933  1
  H  H6  1  0.50000000  0.50000000  0.50000000  1
  H  H7  1  0.75000000  0.75000000  0.75000000  1
  H  H8  1  0.26819067  0.73180933  0.26819067  1
  H  H9  1  0.51819067  0.98180933  0.98180933  1
  H  H10  1  0.98180933  0.51819067  0.51819067  1
  H  H11  1  0.51819067  0.98180933  0.51819067  1
  H  H12  1  0.98180933  0.98180933  0.51819067  1
  H  H13  1  0.51819067  0.51819067  0.98180933  1
loop_
_geom_bond_atom_site_label_1
_geom_bond_atom_site_label_2
_geom_bond_distance
_geom_bond_site_symmetry_2
Ba0 H13 2.578568 1_554
Ba0 H12 2.578568 1_445
Ba0 H11 2.578568 1_545
Ba0 H10 2.578568 1_455
Ba0 H9 2.578568 1_544
Ba0 H1 2.578568 1_454
Ba1 H5 2.578568 1_554
Ba1 H2 2.578568 1_445
Ba1 H8 2.578568 1_545
Ba1 H4 2.578568 1_455
Ba1 H3 2.578568 1_544
Ba1 H0 2.578568 1_454
H0 Hf1 1.985804 1_555
H0 Hf3 1.985804 1_555
H1 Hf0 1.985804 1_556
H1 Hf2 1.985804 1_655
H2 Hf0 1.985804 1_555
H2 Hf3 1.985804 1_555
H3 Hf3 1.985804 1_555
H3 Hf2 1.985804 1_555
H4 Hf1 1.985804 1_555
H4 Hf0 1.985804 1_555
H5 Hf1 1.985804 1_555
H5 Hf2 1.985804 1_555
H6 Hf2 2.081639 1_555
H6 Hf3 2.081640 1_555
H6 Hf0 2.081640 1_555
H6 Hf1 2.081640 1_555
H7 Hf2 2.081639 1_655
H7 Hf3 2.081640 1_555
H7 Hf0 2.081640 1_556
H7 Hf1 2.081640 1_565
H8 Hf0 1.985804 1_555
H8 Hf2 1.985804 1_555
H9 Hf1 1.985804 1_565
H9 Hf0 1.985804 1_556
H10 Hf3 1.985804 1_555
H10 Hf2 1.985804 1_655
H11 Hf1 1.985804 1_565
H11 Hf3 1.985804 1_555
H12 Hf1 1.985804 1_565
H12 Hf2 1.985804 1_655
H13 Hf3 1.985804 1_555
H13 Hf0 1.985804 1_556
