# generated using pymatgen
data_Hf3In3PdRh
_symmetry_space_group_name_H-M   'P 1'
_cell_length_a   14.77545351
_cell_length_b   14.77545404
_cell_length_c   6.70194029
_cell_angle_alpha   90.00000000
_cell_angle_beta   90.00000000
_cell_angle_gamma   120.00000748
_symmetry_Int_Tables_number   1
_chemical_formula_structural   Hf3In3PdRh
_chemical_formula_sum   'Hf24 In24 Pd8 Rh8'
_cell_volume   1267.10559299
_cell_formula_units_Z   8
loop_
 _symmetry_equiv_pos_site_id
 _symmetry_equiv_pos_as_xyz
  1  'x, y, z'
loop_
 _atom_site_type_symbol
 _atom_site_label
 _atom_site_symmetry_multiplicity
 _atom_site_fract_x
 _atom_site_fract_y
 _atom_site_fract_z
 _atom_site_occupancy
  Hf  Hf0_0  1  0.21282664  0.00663029  0.25000000  1
  Hf  Hf0_1  1  0.21282664  0.00663029  0.75000000  1
  Hf  Hf0_2  1  0.21282664  0.50663029  0.25000000  1
  Hf  Hf0_3  1  0.21282664  0.50663029  0.75000000  1
  Hf  Hf0_4  1  0.71282664  0.00663029  0.25000000  1
  Hf  Hf0_5  1  0.71282664  0.00663029  0.75000000  1
  Hf  Hf0_6  1  0.71282664  0.50663029  0.25000000  1
  Hf  Hf0_7  1  0.71282664  0.50663029  0.75000000  1
  Hf  Hf1_0  1  0.29380365  0.28717336  0.25000000  1
  Hf  Hf1_1  1  0.29380365  0.28717336  0.75000000  1
  Hf  Hf1_2  1  0.29380365  0.78717336  0.25000000  1
  Hf  Hf1_3  1  0.29380365  0.78717336  0.75000000  1
  Hf  Hf1_4  1  0.79380365  0.28717336  0.25000000  1
  Hf  Hf1_5  1  0.79380365  0.28717336  0.75000000  1
  Hf  Hf1_6  1  0.79380365  0.78717336  0.25000000  1
  Hf  Hf1_7  1  0.79380365  0.78717336  0.75000000  1
  Hf  Hf2_0  1  0.49336971  0.20619635  0.25000000  1
  Hf  Hf2_1  1  0.49336971  0.20619635  0.75000000  1
  Hf  Hf2_2  1  0.49336971  0.70619635  0.25000000  1
  Hf  Hf2_3  1  0.49336971  0.70619635  0.75000000  1
  Hf  Hf2_4  1  0.99336971  0.20619635  0.25000000  1
  Hf  Hf2_5  1  0.99336971  0.20619635  0.75000000  1
  Hf  Hf2_6  1  0.99336971  0.70619635  0.25000000  1
  Hf  Hf2_7  1  0.99336971  0.70619635  0.75000000  1
  In  In0_0  1  0.38162152  0.49703589  0.00000000  1
  In  In0_1  1  0.38162152  0.49703589  0.50000000  1
  In  In0_2  1  0.38162152  0.99703589  0.00000000  1
  In  In0_3  1  0.38162152  0.99703589  0.50000000  1
  In  In0_4  1  0.88162152  0.49703589  0.00000000  1
  In  In0_5  1  0.88162152  0.49703589  0.50000000  1
  In  In0_6  1  0.88162152  0.99703589  0.00000000  1
  In  In0_7  1  0.88162152  0.99703589  0.50000000  1
  In  In1_0  1  0.11541437  0.11837848  0.00000000  1
  In  In1_1  1  0.11541437  0.11837848  0.50000000  1
  In  In1_2  1  0.11541437  0.61837848  0.00000000  1
  In  In1_3  1  0.11541437  0.61837848  0.50000000  1
  In  In1_4  1  0.61541437  0.11837848  0.00000000  1
  In  In1_5  1  0.61541437  0.11837848  0.50000000  1
  In  In1_6  1  0.61541437  0.61837848  0.00000000  1
  In  In1_7  1  0.61541437  0.61837848  0.50000000  1
  In  In2_0  1  0.00296411  0.38458563  0.00000000  1
  In  In2_1  1  0.00296411  0.38458563  0.50000000  1
  In  In2_2  1  0.00296411  0.88458563  0.00000000  1
  In  In2_3  1  0.00296411  0.88458563  0.50000000  1
  In  In2_4  1  0.50296411  0.38458563  0.00000000  1
  In  In2_5  1  0.50296411  0.38458563  0.50000000  1
  In  In2_6  1  0.50296411  0.88458563  0.00000000  1
  In  In2_7  1  0.50296411  0.88458563  0.50000000  1
  Pd  Pd0_0  1  0.16666650  0.33333350  0.00000000  1
  Pd  Pd0_1  1  0.16666650  0.33333350  0.50000000  1
  Pd  Pd0_2  1  0.16666650  0.83333350  0.00000000  1
  Pd  Pd0_3  1  0.16666650  0.83333350  0.50000000  1
  Pd  Pd0_4  1  0.66666650  0.33333350  0.00000000  1
  Pd  Pd0_5  1  0.66666650  0.33333350  0.50000000  1
  Pd  Pd0_6  1  0.66666650  0.83333350  0.00000000  1
  Pd  Pd0_7  1  0.66666650  0.83333350  0.50000000  1
  Rh  Rh0_0  1  0.33333350  0.16666650  0.00000000  1
  Rh  Rh0_1  1  0.33333350  0.16666650  0.50000000  1
  Rh  Rh0_2  1  0.33333350  0.66666650  0.00000000  1
  Rh  Rh0_3  1  0.33333350  0.66666650  0.50000000  1
  Rh  Rh0_4  1  0.83333350  0.16666650  0.00000000  1
  Rh  Rh0_5  1  0.83333350  0.16666650  0.50000000  1
  Rh  Rh0_6  1  0.83333350  0.66666650  0.00000000  1
  Rh  Rh0_7  1  0.83333350  0.66666650  0.50000000  1
loop_
_geom_bond_atom_site_label_1
_geom_bond_atom_site_label_2
_geom_bond_distance
_geom_bond_site_symmetry_2
Hf0_0 Rh0_0 2.712686 1_555
Hf0_0 Rh0_1 2.712686 1_555
Hf0_0 Pd0_2 2.842956 1_545
Hf0_0 Pd0_3 2.842956 1_545
Hf0_0 In0_2 3.066112 1_545
Hf0_0 In0_3 3.066112 1_545
Hf0_0 In1_1 3.159365 1_555
Hf0_0 In1_0 3.159365 1_555
Hf0_0 In2_2 3.175291 1_545
Hf0_0 In2_3 3.175291 1_545
Hf0_1 Rh0_1 2.712686 1_555
Hf0_1 Rh0_0 2.712686 1_556
Hf0_1 Pd0_3 2.842956 1_545
Hf0_1 Pd0_2 2.842956 1_546
Hf0_1 In0_3 3.066112 1_545
Hf0_1 In0_2 3.066112 1_546
Hf0_1 In1_1 3.159365 1_555
Hf0_1 In1_0 3.159365 1_556
Hf0_1 In2_3 3.175291 1_545
Hf0_1 In2_2 3.175291 1_546
Hf0_2 Rh0_2 2.712686 1_555
Hf0_2 Rh0_3 2.712686 1_555
Hf0_2 Pd0_0 2.842956 1_555
Hf0_2 Pd0_1 2.842956 1_555
Hf0_2 In0_1 3.066112 1_555
Hf0_2 In0_0 3.066112 1_555
Hf0_2 In1_2 3.159365 1_555
Hf0_2 In1_3 3.159365 1_555
Hf0_2 In2_0 3.175291 1_555
Hf0_2 In2_1 3.175291 1_555
Hf0_3 Rh0_3 2.712686 1_555
Hf0_3 Rh0_2 2.712686 1_556
Hf0_3 Pd0_1 2.842956 1_555
Hf0_3 Pd0_0 2.842956 1_556
Hf0_3 In0_1 3.066112 1_555
Hf0_3 In0_0 3.066112 1_556
Hf0_3 In1_3 3.159365 1_555
Hf0_3 In1_2 3.159365 1_556
Hf0_3 In2_1 3.175291 1_555
Hf0_3 In2_0 3.175291 1_556
Hf0_4 Rh0_4 2.712686 1_555
Hf0_4 Rh0_5 2.712686 1_555
Hf0_4 Pd0_6 2.842956 1_545
Hf0_4 Pd0_7 2.842956 1_545
Hf0_4 In0_7 3.066112 1_545
Hf0_4 In0_6 3.066112 1_545
Hf0_4 In1_4 3.159365 1_555
Hf0_4 In1_5 3.159365 1_555
Hf0_4 In2_6 3.175291 1_545
Hf0_4 In2_7 3.175291 1_545
Hf0_5 Rh0_5 2.712686 1_555
Hf0_5 Rh0_4 2.712686 1_556
Hf0_5 Pd0_7 2.842956 1_545
Hf0_5 Pd0_6 2.842956 1_546
Hf0_5 In0_7 3.066112 1_545
Hf0_5 In0_6 3.066112 1_546
Hf0_5 In1_5 3.159365 1_555
Hf0_5 In1_4 3.159365 1_556
Hf0_5 In2_7 3.175291 1_545
Hf0_5 In2_6 3.175291 1_546
Hf0_6 Rh0_7 2.712686 1_555
Hf0_6 Rh0_6 2.712686 1_555
Hf0_6 Pd0_4 2.842956 1_555
Hf0_6 Pd0_5 2.842956 1_555
Hf0_6 In0_4 3.066112 1_555
Hf0_6 In0_5 3.066112 1_555
Hf0_6 In1_7 3.159365 1_555
Hf0_6 In1_6 3.159365 1_555
Hf0_6 In2_4 3.175291 1_555
Hf0_6 In2_5 3.175291 1_555
Hf0_7 Rh0_7 2.712686 1_555
Hf0_7 Rh0_6 2.712686 1_556
Hf0_7 Pd0_5 2.842956 1_555
Hf0_7 Pd0_4 2.842956 1_556
Hf0_7 In0_5 3.066112 1_555
Hf0_7 In0_4 3.066112 1_556
Hf0_7 In1_7 3.159365 1_555
Hf0_7 In1_6 3.159365 1_556
Hf0_7 In2_5 3.175291 1_555
Hf0_7 In2_4 3.175291 1_556
Hf1_0 Rh0_0 2.712691 1_555
Hf1_0 Rh0_1 2.712691 1_555
Hf1_0 Pd0_0 2.842962 1_555
Hf1_0 Pd0_1 2.842962 1_555
Hf1_0 In1_1 3.066112 1_555
Hf1_0 In1_0 3.066112 1_555
Hf1_0 In2_4 3.159364 1_555
Hf1_0 In2_5 3.159364 1_555
Hf1_0 In0_0 3.175291 1_555
Hf1_0 In0_1 3.175291 1_555
Hf1_1 Rh0_1 2.712691 1_555
Hf1_1 Rh0_0 2.712691 1_556
Hf1_1 Pd0_1 2.842962 1_555
Hf1_1 Pd0_0 2.842962 1_556
Hf1_1 In1_1 3.066112 1_555
Hf1_1 In1_0 3.066112 1_556
Hf1_1 In2_5 3.159364 1_555
Hf1_1 In2_4 3.159364 1_556
Hf1_1 In0_1 3.175291 1_555
Hf1_1 In0_0 3.175291 1_556
Hf1_2 Rh0_2 2.712691 1_555
Hf1_2 Rh0_3 2.712691 1_555
Hf1_2 Pd0_2 2.842962 1_555
Hf1_2 Pd0_3 2.842962 1_555
Hf1_2 In1_3 3.066112 1_555
Hf1_2 In1_2 3.066112 1_555
Hf1_2 In2_7 3.159364 1_555
Hf1_2 In2_6 3.159364 1_555
Hf1_2 In0_2 3.175291 1_555
Hf1_2 In0_3 3.175291 1_555
Hf1_3 Rh0_3 2.712691 1_555
Hf1_3 Rh0_2 2.712691 1_556
Hf1_3 Pd0_3 2.842962 1_555
Hf1_3 Pd0_2 2.842962 1_556
Hf1_3 In1_3 3.066112 1_555
Hf1_3 In1_2 3.066112 1_556
Hf1_3 In2_7 3.159364 1_555
Hf1_3 In2_6 3.159364 1_556
Hf1_3 In0_3 3.175291 1_555
Hf1_3 In0_2 3.175291 1_556
Hf1_4 Rh0_4 2.712691 1_555
Hf1_4 Rh0_5 2.712691 1_555
Hf1_4 Pd0_5 2.842962 1_555
Hf1_4 Pd0_4 2.842962 1_555
Hf1_4 In1_4 3.066112 1_555
Hf1_4 In1_5 3.066112 1_555
Hf1_4 In2_1 3.159364 1_655
Hf1_4 In2_0 3.159364 1_655
Hf1_4 In0_4 3.175291 1_555
Hf1_4 In0_5 3.175291 1_555
Hf1_5 Rh0_5 2.712691 1_555
Hf1_5 Rh0_4 2.712691 1_556
Hf1_5 Pd0_5 2.842962 1_555
Hf1_5 Pd0_4 2.842962 1_556
Hf1_5 In1_5 3.066112 1_555
Hf1_5 In1_4 3.066112 1_556
Hf1_5 In2_1 3.159364 1_655
Hf1_5 In2_0 3.159364 1_656
Hf1_5 In0_5 3.175291 1_555
Hf1_5 In0_4 3.175291 1_556
Hf1_6 Rh0_7 2.712691 1_555
Hf1_6 Rh0_6 2.712691 1_555
Hf1_6 Pd0_6 2.842962 1_555
Hf1_6 Pd0_7 2.842962 1_555
Hf1_6 In1_7 3.066112 1_555
Hf1_6 In1_6 3.066112 1_555
Hf1_6 In2_3 3.159364 1_655
Hf1_6 In2_2 3.159364 1_655
Hf1_6 In0_7 3.175291 1_555
Hf1_6 In0_6 3.175291 1_555
Hf1_7 Rh0_7 2.712691 1_555
Hf1_7 Rh0_6 2.712691 1_556
Hf1_7 Pd0_7 2.842962 1_555
Hf1_7 Pd0_6 2.842962 1_556
Hf1_7 In1_7 3.066112 1_555
Hf1_7 In1_6 3.066112 1_556
Hf1_7 In2_3 3.159364 1_655
Hf1_7 In2_2 3.159364 1_656
Hf1_7 In0_7 3.175291 1_555
Hf1_7 In0_6 3.175291 1_556
Hf2_0 Rh0_1 2.712685 1_555
Hf2_0 Rh0_0 2.712685 1_555
Hf2_0 Pd0_4 2.842958 1_555
Hf2_0 Pd0_5 2.842958 1_555
Hf2_0 In2_4 3.066112 1_555
Hf2_0 In2_5 3.066112 1_555
Hf2_0 In0_3 3.159364 1_545
Hf2_0 In0_2 3.159364 1_545
Hf2_0 In1_4 3.175291 1_555
Hf2_0 In1_5 3.175291 1_555
Hf2_1 Rh0_1 2.712685 1_555
Hf2_1 Rh0_0 2.712685 1_556
Hf2_1 Pd0_5 2.842958 1_555
Hf2_1 Pd0_4 2.842958 1_556
Hf2_1 In2_5 3.066112 1_555
Hf2_1 In2_4 3.066112 1_556
Hf2_1 In0_3 3.159364 1_545
Hf2_1 In0_2 3.159364 1_546
Hf2_1 In1_5 3.175291 1_555
Hf2_1 In1_4 3.175291 1_556
Hf2_2 Rh0_2 2.712685 1_555
Hf2_2 Rh0_3 2.712685 1_555
Hf2_2 Pd0_6 2.842958 1_555
Hf2_2 Pd0_7 2.842958 1_555
Hf2_2 In2_6 3.066112 1_555
Hf2_2 In2_7 3.066112 1_555
Hf2_2 In0_1 3.159364 1_555
Hf2_2 In0_0 3.159364 1_555
Hf2_2 In1_6 3.175291 1_555
Hf2_2 In1_7 3.175291 1_555
Hf2_3 Rh0_3 2.712685 1_555
Hf2_3 Rh0_2 2.712685 1_556
Hf2_3 Pd0_7 2.842958 1_555
Hf2_3 Pd0_6 2.842958 1_556
Hf2_3 In2_7 3.066112 1_555
Hf2_3 In2_6 3.066112 1_556
Hf2_3 In0_1 3.159364 1_555
Hf2_3 In0_0 3.159364 1_556
Hf2_3 In1_7 3.175291 1_555
Hf2_3 In1_6 3.175291 1_556
Hf2_4 Rh0_4 2.712685 1_555
Hf2_4 Rh0_5 2.712685 1_555
Hf2_4 Pd0_1 2.842958 1_655
Hf2_4 Pd0_0 2.842958 1_655
Hf2_4 In2_0 3.066112 1_655
Hf2_4 In2_1 3.066112 1_655
Hf2_4 In0_6 3.159364 1_545
Hf2_4 In0_7 3.159364 1_545
Hf2_4 In1_1 3.175291 1_655
Hf2_4 In1_0 3.175291 1_655
Hf2_5 Rh0_5 2.712685 1_555
Hf2_5 Rh0_4 2.712685 1_556
Hf2_5 Pd0_1 2.842958 1_655
Hf2_5 Pd0_0 2.842958 1_656
Hf2_5 In2_1 3.066112 1_655
Hf2_5 In2_0 3.066112 1_656
Hf2_5 In0_7 3.159364 1_545
Hf2_5 In0_6 3.159364 1_546
Hf2_5 In1_1 3.175291 1_655
Hf2_5 In1_0 3.175291 1_656
Hf2_6 Rh0_7 2.712685 1_555
Hf2_6 Rh0_6 2.712685 1_555
Hf2_6 Pd0_3 2.842958 1_655
Hf2_6 Pd0_2 2.842958 1_655
Hf2_6 In2_3 3.066112 1_655
Hf2_6 In2_2 3.066112 1_655
Hf2_6 In0_5 3.159364 1_555
Hf2_6 In0_4 3.159364 1_555
Hf2_6 In1_2 3.175291 1_655
Hf2_6 In1_3 3.175291 1_655
Hf2_7 Rh0_7 2.712685 1_555
Hf2_7 Rh0_6 2.712685 1_556
Hf2_7 Pd0_3 2.842958 1_655
Hf2_7 Pd0_2 2.842958 1_656
Hf2_7 In2_3 3.066112 1_655
Hf2_7 In2_2 3.066112 1_656
Hf2_7 In0_5 3.159364 1_555
Hf2_7 In0_4 3.159364 1_556
Hf2_7 In1_3 3.175291 1_655
Hf2_7 In1_2 3.175291 1_656
In0_0 Pd0_0 2.873264 1_555
In0_0 Rh0_2 2.929023 1_555
In0_0 In1_6 2.992315 1_555
In0_0 In2_4 2.992316 1_555
In0_0 In0_1 3.350970 1_554
In0_0 In0_1 3.350970 1_555
In0_1 Pd0_1 2.873264 1_555
In0_1 Rh0_3 2.929023 1_555
In0_1 In1_7 2.992315 1_555
In0_1 In2_5 2.992316 1_555
In0_2 Pd0_2 2.873264 1_555
In0_2 Rh0_0 2.929023 1_565
In0_2 In1_4 2.992315 1_565
In0_2 In2_6 2.992316 1_555
In0_2 In0_3 3.350970 1_554
In0_2 In0_3 3.350970 1_555
In0_3 Pd0_3 2.873264 1_555
In0_3 Rh0_1 2.929023 1_565
In0_3 In1_5 2.992315 1_565
In0_3 In2_7 2.992316 1_555
In0_4 Pd0_4 2.873264 1_555
In0_4 Rh0_6 2.929023 1_555
In0_4 In1_2 2.992315 1_655
In0_4 In2_0 2.992316 1_655
In0_4 In0_5 3.350970 1_554
In0_4 In0_5 3.350970 1_555
In0_5 Pd0_5 2.873264 1_555
In0_5 Rh0_7 2.929023 1_555
In0_5 In1_3 2.992315 1_655
In0_5 In2_1 2.992316 1_655
In0_6 Pd0_6 2.873264 1_555
In0_6 Rh0_4 2.929023 1_565
In0_6 In1_0 2.992315 1_665
In0_6 In2_2 2.992316 1_655
In0_6 In0_7 3.350970 1_554
In0_6 In0_7 3.350970 1_555
In0_7 Pd0_7 2.873264 1_555
In0_7 Rh0_5 2.929023 1_565
In0_7 In1_1 2.992315 1_665
In0_7 In2_3 2.992316 1_655
In1_0 Pd0_0 2.873267 1_555
In1_0 Rh0_0 2.929030 1_555
In1_0 In2_2 2.992315 1_545
In1_0 In1_1 3.350970 1_555
In1_0 In1_1 3.350970 1_554
In1_1 Pd0_1 2.873267 1_555
In1_1 Rh0_1 2.929030 1_555
In1_1 In2_3 2.992315 1_545
In1_2 Pd0_2 2.873267 1_555
In1_2 Rh0_2 2.929030 1_555
In1_2 In2_0 2.992315 1_555
In1_2 In1_3 3.350970 1_555
In1_2 In1_3 3.350970 1_554
In1_3 Pd0_3 2.873267 1_555
In1_3 Rh0_3 2.929030 1_555
In1_3 In2_1 2.992315 1_555
In1_4 Pd0_4 2.873267 1_555
In1_4 Rh0_4 2.929030 1_555
In1_4 In2_6 2.992315 1_545
In1_4 In1_5 3.350970 1_554
In1_4 In1_5 3.350970 1_555
In1_5 Pd0_5 2.873267 1_555
In1_5 Rh0_5 2.929030 1_555
In1_5 In2_7 2.992315 1_545
In1_6 Pd0_6 2.873267 1_555
In1_6 Rh0_6 2.929030 1_555
In1_6 In2_4 2.992315 1_555
In1_6 In1_7 3.350970 1_555
In1_6 In1_7 3.350970 1_554
In1_7 Pd0_7 2.873267 1_555
In1_7 Rh0_7 2.929030 1_555
In1_7 In2_5 2.992315 1_555
In2_0 Pd0_0 2.873260 1_555
In2_0 Rh0_4 2.929027 1_455
In2_0 In2_1 3.350970 1_554
In2_0 In2_1 3.350970 1_555
In2_1 Pd0_1 2.873260 1_555
In2_1 Rh0_5 2.929027 1_455
In2_2 Pd0_2 2.873260 1_555
In2_2 Rh0_6 2.929027 1_455
In2_2 In2_3 3.350970 1_554
In2_2 In2_3 3.350970 1_555
In2_3 Pd0_3 2.873260 1_555
In2_3 Rh0_7 2.929027 1_455
In2_4 Pd0_4 2.873260 1_555
In2_4 Rh0_0 2.929027 1_555
In2_4 In2_5 3.350970 1_555
In2_4 In2_5 3.350970 1_554
In2_5 Pd0_5 2.873260 1_555
In2_5 Rh0_1 2.929027 1_555
In2_6 Pd0_6 2.873260 1_555
In2_6 Rh0_2 2.929027 1_555
In2_6 In2_7 3.350970 1_554
In2_6 In2_7 3.350970 1_555
In2_7 Pd0_7 2.873260 1_555
In2_7 Rh0_3 2.929027 1_555
