# generated using pymatgen
data_Cs2Te3IrO12
_symmetry_space_group_name_H-M   'P 1'
_cell_length_a   7.14689202
_cell_length_b   7.14689250
_cell_length_c   7.14689256
_cell_angle_alpha   61.13696492
_cell_angle_beta   61.13696258
_cell_angle_gamma   61.13696107
_symmetry_Int_Tables_number   1
_chemical_formula_structural   Cs2Te3IrO12
_chemical_formula_sum   'Cs2 Te3 Ir1 O12'
_cell_volume   264.73347017
_cell_formula_units_Z   1
loop_
 _symmetry_equiv_pos_site_id
 _symmetry_equiv_pos_as_xyz
  1  'x, y, z'
loop_
 _atom_site_type_symbol
 _atom_site_label
 _atom_site_symmetry_multiplicity
 _atom_site_fract_x
 _atom_site_fract_y
 _atom_site_fract_z
 _atom_site_occupancy
  Cs  Cs0  1  0.37516655  0.37516655  0.37516655  1
  Cs  Cs1  1  0.62483345  0.62483345  0.62483345  1
  Te  Te0  1  0.50000000  0.00000000  0.00000000  1
  Te  Te1  1  0.00000000  0.00000000  0.50000000  1
  Te  Te2  1  0.00000000  0.50000000  0.00000000  1
  Ir  Ir0  1  0.00000000  0.00000000  0.00000000  1
  O  O0  1  0.92981136  0.31821831  0.31821831  1
  O  O1  1  0.33052152  0.92439072  0.92439072  1
  O  O2  1  0.31821831  0.31821831  0.92981136  1
  O  O3  1  0.92439072  0.92439072  0.33052152  1
  O  O4  1  0.92439072  0.33052152  0.92439072  1
  O  O5  1  0.31821831  0.92981136  0.31821831  1
  O  O6  1  0.07018864  0.68178169  0.68178169  1
  O  O7  1  0.66947848  0.07560928  0.07560928  1
  O  O8  1  0.68178169  0.68178169  0.07018864  1
  O  O9  1  0.07560928  0.07560928  0.66947848  1
  O  O10  1  0.07560928  0.66947848  0.07560928  1
  O  O11  1  0.68178169  0.07018864  0.68178169  1
loop_
_geom_bond_atom_site_label_1
_geom_bond_atom_site_label_2
_geom_bond_distance
_geom_bond_site_symmetry_2
Cs0 O7 3.053067 1_555
Cs0 O10 3.053067 1_555
Cs0 O9 3.053067 1_555
Cs0 O6 3.125433 1_555
Cs0 O11 3.125433 1_555
Cs0 O8 3.125434 1_555
Cs1 O1 3.053067 1_555
Cs1 O4 3.053067 1_555
Cs1 O3 3.053067 1_555
Cs1 O0 3.125433 1_555
Cs1 O5 3.125433 1_555
Cs1 O2 3.125434 1_555
Ir0 O1 1.995299 1_544
Ir0 O7 1.995299 1_455
Ir0 O4 1.995299 1_454
Ir0 O10 1.995299 1_545
Ir0 O3 1.995299 1_445
Ir0 O9 1.995299 1_554
O0 Te1 1.946027 1_655
O0 Te2 1.946027 1_655
O1 Te0 1.896529 1_566
O2 Te2 1.946027 1_556
O2 Te0 1.946027 1_556
O3 Te1 1.896529 1_665
O4 Te2 1.896529 1_656
O5 Te1 1.946027 1_565
O5 Te0 1.946027 1_565
O6 Te1 1.946027 1_565
O6 Te2 1.946027 1_556
O7 Te0 1.896529 1_555
O8 Te2 1.946027 1_655
O8 Te0 1.946027 1_565
O9 Te1 1.896529 1_555
O10 Te2 1.896529 1_555
O11 Te1 1.946027 1_655
O11 Te0 1.946027 1_556
