# generated using pymatgen
data_Zr10AlZn2Sb5
_symmetry_space_group_name_H-M   'P 1'
_cell_length_a   8.58952489
_cell_length_b   8.61136750
_cell_length_c   5.84336168
_cell_angle_alpha   90.00000000
_cell_angle_beta   90.00000000
_cell_angle_gamma   119.91612914
_symmetry_Int_Tables_number   1
_chemical_formula_structural   Zr10AlZn2Sb5
_chemical_formula_sum   'Zr10 Al1 Zn2 Sb5'
_cell_volume   374.62873411
_cell_formula_units_Z   1
loop_
 _symmetry_equiv_pos_site_id
 _symmetry_equiv_pos_as_xyz
  1  'x, y, z'
loop_
 _atom_site_type_symbol
 _atom_site_label
 _atom_site_symmetry_multiplicity
 _atom_site_fract_x
 _atom_site_fract_y
 _atom_site_fract_z
 _atom_site_occupancy
  Zr  Zr0  1  0.73423076  0.73622205  0.25000000  1
  Zr  Zr1  1  0.72562536  0.00000000  0.75000000  1
  Zr  Zr2  1  0.99800871  0.26377795  0.25000000  1
  Zr  Zr3  1  0.00809731  0.73435377  0.75000000  1
  Zr  Zr4  1  0.27374454  0.26564623  0.75000000  1
  Zr  Zr5  1  0.26410478  0.00000000  0.25000000  1
  Zr  Zr6  1  0.33363991  0.66876668  0.50268524  1
  Zr  Zr7  1  0.66487422  0.33123332  0.99731476  1
  Zr  Zr8  1  0.66487422  0.33123332  0.50268524  1
  Zr  Zr9  1  0.33363991  0.66876668  0.99731476  1
  Al  Al0  1  0.38478280  0.00000000  0.75000000  1
  Zn  Zn0  1  0.00071341  0.00000000  0.99060386  1
  Zn  Zn1  1  0.00071341  0.00000000  0.50939614  1
  Sb  Sb0  1  0.38558061  0.38592722  0.25000000  1
  Sb  Sb1  1  0.99965339  0.61407278  0.25000000  1
  Sb  Sb2  1  0.00123899  0.38241690  0.75000000  1
  Sb  Sb3  1  0.61882209  0.61758310  0.75000000  1
  Sb  Sb4  1  0.60765760  0.00000000  0.25000000  1
loop_
_geom_bond_atom_site_label_1
_geom_bond_atom_site_label_2
_geom_bond_distance
_geom_bond_site_symmetry_2
Zr6 Zr9 2.890299 1_555
Zr6 Zr9 2.953063 1_554
Zr7 Zr8 2.890299 1_555
Zr7 Zr8 2.953063 1_556
Al0 Zr4 2.884260 1_555
Al0 Zr3 2.884267 1_545
Al0 Zr1 2.927676 1_555
Al0 Zr9 3.027806 1_545
Al0 Zr6 3.027806 1_545
Al0 Zr7 3.027809 1_555
Al0 Zr8 3.027809 1_555
Al0 Zr5 3.100111 1_556
Al0 Zr5 3.100111 1_555
Zn0 Zr3 2.712638 1_545
Zn0 Zr4 2.712642 1_555
Zn0 Zr5 2.723228 1_556
Zn0 Zr0 2.740497 1_446
Zn0 Zr2 2.740497 1_456
Zn0 Zr1 2.749515 1_455
Zn1 Zr3 2.712638 1_545
Zn1 Zr4 2.712642 1_555
Zn1 Zr5 2.723228 1_555
Zn1 Zr0 2.740497 1_445
Zn1 Zr2 2.740497 1_455
Zn1 Zr1 2.749515 1_455
Sb0 Zr5 2.945266 1_555
Sb0 Zr2 2.948933 1_455
Sb0 Zr0 3.009497 1_555
Sb0 Zr8 3.047000 1_555
Sb0 Zr7 3.047000 1_554
Sb0 Zr6 3.065191 1_555
Sb0 Zr9 3.065191 1_554
Sb0 Zr4 3.088590 1_555
Sb0 Zr4 3.088590 1_554
Sb1 Zr5 2.945266 1_665
Sb1 Zr0 2.948933 1_555
Sb1 Zr2 3.009497 1_555
Sb1 Zr6 3.046993 1_655
Sb1 Zr9 3.046993 1_654
Sb1 Zr8 3.065187 1_555
Sb1 Zr7 3.065187 1_554
Sb1 Zr3 3.088591 1_654
Sb1 Zr3 3.088591 1_655
Sb2 Zr1 2.944979 1_455
Sb2 Zr4 2.972829 1_555
Sb2 Zr3 3.001712 1_555
Sb2 Zr9 3.049315 1_555
Sb2 Zr6 3.049315 1_555
Sb2 Zr7 3.059422 1_455
Sb2 Zr8 3.059422 1_455
Sb2 Zr2 3.090707 1_456
Sb2 Zr2 3.090707 1_455
Sb3 Zr1 2.944979 1_565
Sb3 Zr3 2.972821 1_655
Sb3 Zr4 3.001708 1_555
Sb3 Zr7 3.049319 1_555
Sb3 Zr8 3.049319 1_555
Sb3 Zr9 3.059429 1_555
Sb3 Zr6 3.059429 1_555
Sb3 Zr0 3.090707 1_555
Sb3 Zr0 3.090707 1_556
Sb4 Zr5 2.950955 1_555
Sb4 Zr2 2.967318 1_555
Sb4 Zr0 2.967318 1_545
Sb4 Zr8 3.026454 1_555
Sb4 Zr7 3.026454 1_554
Sb4 Zr6 3.026457 1_545
Sb4 Zr9 3.026457 1_544
Sb4 Zr1 3.092405 1_555
Sb4 Zr1 3.092405 1_554
