# generated using pymatgen
data_SrHf(GaPt)2
_symmetry_space_group_name_H-M   'P 1'
_cell_length_a   4.39925092
_cell_length_b   4.39925064
_cell_length_c   7.38759830
_cell_angle_alpha   90.00000000
_cell_angle_beta   90.00000000
_cell_angle_gamma   120.00000209
_symmetry_Int_Tables_number   1
_chemical_formula_structural   SrHf(GaPt)2
_chemical_formula_sum   'Sr1 Hf1 Ga2 Pt2'
_cell_volume   123.82015271
_cell_formula_units_Z   1
loop_
 _symmetry_equiv_pos_site_id
 _symmetry_equiv_pos_as_xyz
  1  'x, y, z'
loop_
 _atom_site_type_symbol
 _atom_site_label
 _atom_site_symmetry_multiplicity
 _atom_site_fract_x
 _atom_site_fract_y
 _atom_site_fract_z
 _atom_site_occupancy
  Sr  Sr0  1  0.00000000  0.00000000  0.00000000  1
  Hf  Hf0  1  0.00000000  0.00000000  0.50000000  1
  Ga  Ga0  1  0.33333300  0.66666700  0.30223863  1
  Ga  Ga1  1  0.66666700  0.33333300  0.69776137  1
  Pt  Pt0  1  0.33333300  0.66666700  0.68280672  1
  Pt  Pt1  1  0.66666700  0.33333300  0.31719328  1
loop_
_geom_bond_atom_site_label_1
_geom_bond_atom_site_label_2
_geom_bond_distance
_geom_bond_site_symmetry_2
Hf0 Pt0 2.876627 1_545
Hf0 Pt1 2.876627 1_455
Hf0 Pt0 2.876630 1_555
Hf0 Pt1 2.876630 1_445
Hf0 Pt0 2.876630 1_445
Hf0 Pt1 2.876630 1_555
Ga0 Pt1 2.542308 1_565
Ga0 Pt1 2.542308 1_455
Ga0 Pt1 2.542315 1_555
Ga0 Pt0 2.811484 1_555
Ga0 Hf0 2.930118 1_565
Ga0 Hf0 2.930121 1_555
Ga0 Hf0 2.930121 1_665
Ga0 Sr0 3.381804 1_565
Ga0 Sr0 3.381807 1_555
Ga0 Sr0 3.381807 1_665
Ga1 Pt0 2.542308 1_545
Ga1 Pt0 2.542308 1_655
Ga1 Pt0 2.542315 1_555
Ga1 Pt1 2.811484 1_555
Ga1 Hf0 2.930118 1_655
Ga1 Hf0 2.930121 1_665
Ga1 Hf0 2.930121 1_555
Ga1 Sr0 3.381804 1_656
Ga1 Sr0 3.381807 1_666
Ga1 Sr0 3.381807 1_556
Pt0 Sr0 3.455743 1_566
Pt0 Sr0 3.455746 1_556
Pt0 Sr0 3.455746 1_666
Pt1 Sr0 3.455743 1_655
Pt1 Sr0 3.455746 1_665
Pt1 Sr0 3.455746 1_555
