# generated using pymatgen
data_KTiIrSe4
_symmetry_space_group_name_H-M   'P 1'
_cell_length_a   8.18146157
_cell_length_b   8.18146157
_cell_length_c   5.96546975
_cell_angle_alpha   81.01812159
_cell_angle_beta   81.01812170
_cell_angle_gamma   26.24542551
_symmetry_Int_Tables_number   1
_chemical_formula_structural   KTiIrSe4
_chemical_formula_sum   'K1 Ti1 Ir1 Se4'
_cell_volume   174.29646464
_cell_formula_units_Z   1
loop_
 _symmetry_equiv_pos_site_id
 _symmetry_equiv_pos_as_xyz
  1  'x, y, z'
loop_
 _atom_site_type_symbol
 _atom_site_label
 _atom_site_symmetry_multiplicity
 _atom_site_fract_x
 _atom_site_fract_y
 _atom_site_fract_z
 _atom_site_occupancy
  K  K0  1  0.24274277  0.24274277  0.84160143  1
  Ti  Ti0  1  0.49726898  0.49726898  0.45768572  1
  Ir  Ir0  1  0.99015137  0.99015137  0.05145002  1
  Se  Se0  1  0.91091805  0.91091805  0.71701236  1
  Se  Se1  1  0.38902950  0.38902950  0.21777267  1
  Se  Se2  1  0.57104567  0.57104567  0.83235569  1
  Se  Se3  1  0.09984265  0.09984265  0.31512210  1
loop_
_geom_bond_atom_site_label_1
_geom_bond_atom_site_label_2
_geom_bond_distance
_geom_bond_site_symmetry_2
K0 Se0 3.247515 1_455
K0 Se0 3.247515 1_545
K0 Se2 3.314810 1_545
K0 Se2 3.314810 1_455
K0 Se3 3.332057 1_556
K0 Se1 3.485295 1_556
Ir0 Se2 2.506020 1_564
Ir0 Se2 2.506020 1_654
Ir0 Se0 2.526307 1_554
Ir0 Se3 2.532021 1_665
Ir0 Se1 2.553206 1_655
Ir0 Se1 2.553206 1_565
Se0 Ti0 2.656037 1_565
Se0 Ti0 2.656037 1_655
Se1 Ti0 2.411421 1_555
Se2 Ti0 2.687063 1_555
Se3 Ti0 2.529765 1_545
Se3 Ti0 2.529765 1_455
