# generated using pymatgen
data_Cr3Ag2PtSe8
_symmetry_space_group_name_H-M   'P 1'
_cell_length_a   7.62392447
_cell_length_b   7.62392416
_cell_length_c   7.62392358
_cell_angle_alpha   58.90971225
_cell_angle_beta   58.90971139
_cell_angle_gamma   58.90970296
_symmetry_Int_Tables_number   1
_chemical_formula_structural   Cr3Ag2PtSe8
_chemical_formula_sum   'Cr3 Ag2 Pt1 Se8'
_cell_volume   305.54653522
_cell_formula_units_Z   1
loop_
 _symmetry_equiv_pos_site_id
 _symmetry_equiv_pos_as_xyz
  1  'x, y, z'
loop_
 _atom_site_type_symbol
 _atom_site_label
 _atom_site_symmetry_multiplicity
 _atom_site_fract_x
 _atom_site_fract_y
 _atom_site_fract_z
 _atom_site_occupancy
  Cr  Cr0  1  0.50000000  0.00000000  0.50000000  1
  Cr  Cr1  1  0.50000000  0.50000000  0.00000000  1
  Cr  Cr2  1  0.00000000  0.50000000  0.50000000  1
  Ag  Ag0  1  0.12935481  0.12935481  0.12935481  1
  Ag  Ag1  1  0.87064519  0.87064519  0.87064519  1
  Pt  Pt0  1  0.50000000  0.50000000  0.50000000  1
  Se  Se0  1  0.26388853  0.70985667  0.26388853  1
  Se  Se1  1  0.73611147  0.73611147  0.29014333  1
  Se  Se2  1  0.29014333  0.73611147  0.73611147  1
  Se  Se3  1  0.73567810  0.73567810  0.73567810  1
  Se  Se4  1  0.70985667  0.26388853  0.26388853  1
  Se  Se5  1  0.26432190  0.26432190  0.26432190  1
  Se  Se6  1  0.73611147  0.29014333  0.73611147  1
  Se  Se7  1  0.26388853  0.26388853  0.70985667  1
loop_
_geom_bond_atom_site_label_1
_geom_bond_atom_site_label_2
_geom_bond_distance
_geom_bond_site_symmetry_2
Cr0 Se3 2.524494 1_545
Cr0 Se5 2.524494 1_555
Cr0 Se7 2.541141 1_555
Cr0 Se1 2.541141 1_545
Cr0 Se4 2.541142 1_555
Cr0 Se2 2.541142 1_545
Cr1 Se3 2.524495 1_554
Cr1 Se5 2.524495 1_555
Cr1 Se0 2.541141 1_555
Cr1 Se6 2.541141 1_554
Cr1 Se4 2.541141 1_555
Cr1 Se2 2.541141 1_554
Cr2 Se3 2.524494 1_455
Cr2 Se5 2.524494 1_555
Cr2 Se7 2.541141 1_555
Cr2 Se1 2.541141 1_455
Cr2 Se0 2.541142 1_555
Cr2 Se6 2.541142 1_455
Ag0 Se5 2.541042 1_555
Ag0 Se0 2.577484 1_545
Ag0 Se7 2.577484 1_554
Ag0 Se4 2.577484 1_455
Ag1 Se3 2.541042 1_555
Ag1 Se6 2.577484 1_565
Ag1 Se1 2.577484 1_556
Ag1 Se2 2.577484 1_655
Pt0 Se2 2.537355 1_555
Pt0 Se4 2.537355 1_555
Pt0 Se6 2.537355 1_555
Pt0 Se0 2.537355 1_555
Pt0 Se1 2.537355 1_555
Pt0 Se7 2.537355 1_555
