# generated using pymatgen
data_Re4(As2Se)3
_symmetry_space_group_name_H-M   'P 1'
_cell_length_a   7.10290431
_cell_length_b   7.10290446
_cell_length_c   7.10319955
_cell_angle_alpha   59.99490920
_cell_angle_beta   59.99490279
_cell_angle_gamma   59.99536311
_symmetry_Int_Tables_number   1
_chemical_formula_structural   Re4(As2Se)3
_chemical_formula_sum   'Re4 As6 Se3'
_cell_volume   253.37414280
_cell_formula_units_Z   1
loop_
 _symmetry_equiv_pos_site_id
 _symmetry_equiv_pos_as_xyz
  1  'x, y, z'
loop_
 _atom_site_type_symbol
 _atom_site_label
 _atom_site_symmetry_multiplicity
 _atom_site_fract_x
 _atom_site_fract_y
 _atom_site_fract_z
 _atom_site_occupancy
  Re  Re0  1  0.39930194  0.39930194  0.39933510  1
  Re  Re1  1  0.39928991  0.80016276  0.39931770  1
  Re  Re2  1  0.80016276  0.39928991  0.39931770  1
  Re  Re3  1  0.39926830  0.39926830  0.80023441  1
  As  As0  1  0.00097717  0.00097717  0.00074299  1
  As  As1  1  0.14398835  0.14398835  0.14398452  1
  As  As2  1  0.14337028  0.56934320  0.14340010  1
  As  As3  1  0.56934320  0.14337028  0.14340010  1
  As  As4  1  0.14346133  0.14346133  0.56906936  1
  As  As5  1  0.63791586  0.63791586  0.63804249  1
  Se  Se0  1  0.63702978  0.08882885  0.63712617  1
  Se  Se1  1  0.08882885  0.63702978  0.63712617  1
  Se  Se2  1  0.63706226  0.63706226  0.08890121  1
loop_
_geom_bond_atom_site_label_1
_geom_bond_atom_site_label_2
_geom_bond_distance
_geom_bond_site_symmetry_2
Re0 Se2 2.443321 1_555
Re0 Se1 2.443413 1_555
Re0 Se0 2.443413 1_555
Re1 Se2 2.435102 1_555
Re1 Se1 2.435404 1_555
Re2 Se2 2.435103 1_555
Re2 Se0 2.435404 1_555
Re3 Se0 2.435224 1_555
Re3 Se1 2.435224 1_555
As0 As1 2.489642 1_555
As0 As3 2.503164 1_455
As0 As2 2.503164 1_545
As0 As4 2.503492 1_554
As1 Re3 2.640020 1_554
As1 Re2 2.640488 1_455
As1 Re1 2.640488 1_545
As2 Re0 2.642288 1_555
As2 Re3 2.650026 1_554
As2 Re2 2.650082 1_455
As3 Re0 2.642288 1_555
As3 Re3 2.650026 1_554
As3 Re1 2.650082 1_545
As4 Re0 2.641648 1_555
As4 Re1 2.649425 1_545
As4 Re2 2.649425 1_455
As5 Re3 2.457911 1_555
As5 Re2 2.458221 1_555
As5 Re1 2.458221 1_555
