# generated using pymatgen
data_Ba6YNi(BO3)6
_symmetry_space_group_name_H-M   'P 1'
_cell_length_a   8.03331835
_cell_length_b   8.03331672
_cell_length_c   8.03331796
_cell_angle_alpha   105.87807108
_cell_angle_beta   105.87806890
_cell_angle_gamma   105.87807017
_symmetry_Int_Tables_number   1
_chemical_formula_structural   Ba6YNi(BO3)6
_chemical_formula_sum   'Ba6 Y1 Ni1 B6 O18'
_cell_volume   444.30028255
_cell_formula_units_Z   1
loop_
 _symmetry_equiv_pos_site_id
 _symmetry_equiv_pos_as_xyz
  1  'x, y, z'
loop_
 _atom_site_type_symbol
 _atom_site_label
 _atom_site_symmetry_multiplicity
 _atom_site_fract_x
 _atom_site_fract_y
 _atom_site_fract_z
 _atom_site_occupancy
  Ba  Ba0  1  0.34359854  0.73106121  0.82829315  1
  Ba  Ba1  1  0.82829315  0.34359854  0.73106121  1
  Ba  Ba2  1  0.73106121  0.82829315  0.34359854  1
  Ba  Ba3  1  0.65640146  0.26893879  0.17170685  1
  Ba  Ba4  1  0.17170685  0.65640146  0.26893879  1
  Ba  Ba5  1  0.26893879  0.17170685  0.65640146  1
  Y  Y0  1  0.00000000  0.00000000  0.00000000  1
  Ni  Ni0  1  0.50000000  0.50000000  0.50000000  1
  B  B0  1  0.37001531  0.05979911  0.29888907  1
  B  B1  1  0.29888907  0.37001531  0.05979911  1
  B  B2  1  0.05979911  0.29888907  0.37001531  1
  B  B3  1  0.70111093  0.62998469  0.94020089  1
  B  B4  1  0.94020089  0.70111093  0.62998469  1
  B  B5  1  0.62998469  0.94020089  0.70111093  1
  O  O0  1  0.42895467  0.49351931  0.23612022  1
  O  O1  1  0.23612022  0.42895467  0.49351931  1
  O  O2  1  0.81828541  0.00101120  0.72834826  1
  O  O3  1  0.00101120  0.72834826  0.81828541  1
  O  O4  1  0.72834826  0.81828541  0.00101120  1
  O  O5  1  0.27165174  0.18171459  0.99898880  1
  O  O6  1  0.18171459  0.99898880  0.27165174  1
  O  O7  1  0.99898880  0.27165174  0.18171459  1
  O  O8  1  0.55855846  0.05896418  0.78877952  1
  O  O9  1  0.05896418  0.78877952  0.55855846  1
  O  O10  1  0.78877952  0.55855846  0.05896418  1
  O  O11  1  0.44144154  0.94103582  0.21122048  1
  O  O12  1  0.94103582  0.21122048  0.44144154  1
  O  O13  1  0.21122048  0.44144154  0.94103582  1
  O  O14  1  0.50648069  0.76387978  0.57104533  1
  O  O15  1  0.76387978  0.57104533  0.50648069  1
  O  O16  1  0.57104533  0.50648069  0.76387978  1
  O  O17  1  0.49351931  0.23612022  0.42895467  1
loop_
_geom_bond_atom_site_label_1
_geom_bond_atom_site_label_2
_geom_bond_distance
_geom_bond_site_symmetry_2
Ba0 O3 2.725109 1_555
Ba0 O14 2.764281 1_555
Ba0 O13 2.773173 1_555
Ba0 O1 2.807042 1_555
Ba0 O4 2.811700 1_556
Ba0 O11 2.835169 1_556
Ba0 O8 2.879225 1_565
Ba0 O9 2.925307 1_555
Ba0 O16 2.944720 1_555
Ba1 O2 2.725108 1_555
Ba1 O16 2.764281 1_555
Ba1 O12 2.773173 1_555
Ba1 O17 2.807042 1_555
Ba1 O3 2.811699 1_655
Ba1 O13 2.835169 1_655
Ba1 O10 2.879226 1_556
Ba1 O8 2.925307 1_555
Ba1 O15 2.944720 1_555
Ba2 O4 2.725109 1_555
Ba2 O15 2.764281 1_555
Ba2 O11 2.773173 1_555
Ba2 O0 2.807042 1_555
Ba2 O2 2.811700 1_565
Ba2 O12 2.835169 1_565
Ba2 O9 2.879226 1_655
Ba2 O10 2.925307 1_555
Ba2 O14 2.944720 1_555
Ba3 O7 2.725109 1_555
Ba3 O17 2.764281 1_555
Ba3 O10 2.773173 1_555
Ba3 O15 2.807042 1_555
Ba3 O5 2.811700 1_554
Ba3 O8 2.835169 1_554
Ba3 O11 2.879225 1_545
Ba3 O12 2.925307 1_555
Ba3 O0 2.944720 1_555
Ba4 O6 2.725108 1_555
Ba4 O0 2.764281 1_555
Ba4 O9 2.773173 1_555
Ba4 O14 2.807042 1_555
Ba4 O7 2.811699 1_455
Ba4 O10 2.835169 1_455
Ba4 O13 2.879226 1_554
Ba4 O11 2.925307 1_555
Ba4 O1 2.944720 1_555
Ba5 O5 2.725109 1_555
Ba5 O1 2.764281 1_555
Ba5 O8 2.773173 1_555
Ba5 O16 2.807042 1_555
Ba5 O6 2.811700 1_545
Ba5 O9 2.835169 1_545
Ba5 O12 2.879226 1_455
Ba5 O13 2.925307 1_555
Ba5 O17 2.944720 1_555
Ni0 O14 2.020759 1_555
Ni0 O17 2.020759 1_555
Ni0 O16 2.020759 1_555
Ni0 O0 2.020759 1_555
Ni0 O15 2.020759 1_555
Ni0 O1 2.020759 1_555
B0 O11 1.374215 1_545
B0 O6 1.389524 1_545
B0 O17 1.391536 1_555
B1 O13 1.374215 1_554
B1 O5 1.389524 1_554
B1 O0 1.391536 1_555
B2 O12 1.374215 1_455
B2 O7 1.389524 1_455
B2 O1 1.391536 1_555
B3 O10 1.374215 1_556
B3 O4 1.389524 1_556
B3 O16 1.391536 1_555
B4 O9 1.374215 1_655
B4 O3 1.389524 1_655
B4 O15 1.391536 1_555
B5 O8 1.374215 1_565
B5 O2 1.389524 1_565
B5 O14 1.391536 1_555
O2 Y0 2.272963 1_656
O3 Y0 2.272962 1_566
O4 Y0 2.272962 1_665
O5 Y0 2.272962 1_556
O6 Y0 2.272963 1_565
O7 Y0 2.272962 1_655
