# generated using pymatgen
data_TiCu3AgS4
_symmetry_space_group_name_H-M   'P 1'
_cell_length_a   5.52265170
_cell_length_b   5.52265170
_cell_length_c   5.52265170
_cell_angle_alpha   90.00000000
_cell_angle_beta   90.00000000
_cell_angle_gamma   90.00000000
_symmetry_Int_Tables_number   1
_chemical_formula_structural   TiCu3AgS4
_chemical_formula_sum   'Ti1 Cu3 Ag1 S4'
_cell_volume   168.43911948
_cell_formula_units_Z   1
loop_
 _symmetry_equiv_pos_site_id
 _symmetry_equiv_pos_as_xyz
  1  'x, y, z'
loop_
 _atom_site_type_symbol
 _atom_site_label
 _atom_site_symmetry_multiplicity
 _atom_site_fract_x
 _atom_site_fract_y
 _atom_site_fract_z
 _atom_site_occupancy
  Ti  Ti0  1  0.00000000  0.00000000  0.00000000  1
  Cu  Cu0  1  0.00000000  0.50000000  0.00000000  1
  Cu  Cu1  1  0.00000000  0.00000000  0.50000000  1
  Cu  Cu2  1  0.50000000  0.00000000  0.00000000  1
  Ag  Ag0  1  0.50000000  0.50000000  0.50000000  1
  S  S0  1  0.23685864  0.23685864  0.23685864  1
  S  S1  1  0.76314136  0.76314136  0.23685864  1
  S  S2  1  0.23685864  0.76314136  0.76314136  1
  S  S3  1  0.76314136  0.23685864  0.76314136  1
loop_
_geom_bond_atom_site_label_1
_geom_bond_atom_site_label_2
_geom_bond_distance
_geom_bond_site_symmetry_2
Cu0 S2 2.352464 1_554
Cu0 S1 2.352464 1_455
Cu0 S0 2.352464 1_555
Cu0 S3 2.352464 1_454
Cu1 S3 2.352464 1_455
Cu1 S2 2.352464 1_545
Cu1 S0 2.352464 1_555
Cu1 S1 2.352464 1_445
Cu2 S3 2.352464 1_554
Cu2 S1 2.352464 1_545
Cu2 S0 2.352464 1_555
Cu2 S2 2.352464 1_544
Ag0 S3 2.517082 1_555
Ag0 S2 2.517082 1_555
Ag0 S1 2.517082 1_555
Ag0 S0 2.517082 1_555
S0 Ti0 2.265674 1_555
S1 Ti0 2.265674 1_665
S2 Ti0 2.265674 1_566
S3 Ti0 2.265674 1_656
