# generated using pymatgen
data_Sc2GeB2Ru2Rh3
_symmetry_space_group_name_H-M   'P 1'
_cell_length_a   3.01643082
_cell_length_b   9.28443309
_cell_length_c   9.35317623
_cell_angle_alpha   90.00000000
_cell_angle_beta   90.00000000
_cell_angle_gamma   90.00000000
_symmetry_Int_Tables_number   1
_chemical_formula_structural   Sc2GeB2Ru2Rh3
_chemical_formula_sum   'Sc4 Ge2 B4 Ru4 Rh6'
_cell_volume   261.94365104
_cell_formula_units_Z   2
loop_
 _symmetry_equiv_pos_site_id
 _symmetry_equiv_pos_as_xyz
  1  'x, y, z'
loop_
 _atom_site_type_symbol
 _atom_site_label
 _atom_site_symmetry_multiplicity
 _atom_site_fract_x
 _atom_site_fract_y
 _atom_site_fract_z
 _atom_site_occupancy
  Sc  Sc0  1  0.00000000  0.32503741  0.82278346  1
  Sc  Sc1  1  0.00000000  0.67496259  0.17721654  1
  Sc  Sc2  1  0.00000000  0.82503741  0.67721654  1
  Sc  Sc3  1  0.00000000  0.17496259  0.32278346  1
  Ge  Ge0  1  0.00000000  0.50000000  0.50000000  1
  Ge  Ge1  1  0.00000000  0.00000000  0.00000000  1
  B  B0  1  0.00000000  0.87965096  0.37120313  1
  B  B1  1  0.00000000  0.12034904  0.62879687  1
  B  B2  1  0.00000000  0.37965096  0.12879687  1
  B  B3  1  0.00000000  0.62034904  0.87120313  1
  Ru  Ru0  1  0.50000000  0.43051080  0.28657655  1
  Ru  Ru1  1  0.50000000  0.56948920  0.71342345  1
  Ru  Ru2  1  0.50000000  0.93051080  0.21342345  1
  Ru  Ru3  1  0.50000000  0.06948920  0.78657655  1
  Rh  Rh0  1  0.50000000  0.71696353  0.43057011  1
  Rh  Rh1  1  0.50000000  0.28303647  0.56942989  1
  Rh  Rh2  1  0.50000000  0.78303647  0.93057011  1
  Rh  Rh3  1  0.50000000  0.21696353  0.06942989  1
  Rh  Rh4  1  0.50000000  0.50000000  0.00000000  1
  Rh  Rh5  1  0.50000000  0.00000000  0.50000000  1
loop_
_geom_bond_atom_site_label_1
_geom_bond_atom_site_label_2
_geom_bond_distance
_geom_bond_site_symmetry_2
Ge0 Ru1 2.583741 1_455
Ge0 Ru1 2.583741 1_555
Ge0 Ru0 2.583741 1_455
Ge0 Ru0 2.583741 1_555
Ge0 Rh0 2.598877 1_455
Ge0 Rh0 2.598877 1_555
Ge0 Rh1 2.598877 1_455
Ge0 Rh1 2.598877 1_555
Ge1 Ru2 2.583741 1_445
Ge1 Ru2 2.583741 1_545
Ge1 Ru3 2.583741 1_554
Ge1 Ru3 2.583741 1_454
Ge1 Rh3 2.598877 1_555
Ge1 Rh3 2.598877 1_455
Ge1 Rh2 2.598877 1_444
Ge1 Rh2 2.598877 1_544
B0 Ru2 2.162291 1_555
B0 Ru2 2.162291 1_455
B0 Rh0 2.205568 1_455
B0 Rh0 2.205568 1_555
B0 Rh5 2.230345 1_465
B0 Rh5 2.230345 1_565
B0 Sc1 2.627469 1_555
B0 Sc3 2.778952 1_565
B0 Sc2 2.906764 1_555
B1 Ru3 2.162291 1_455
B1 Ru3 2.162291 1_555
B1 Rh1 2.205568 1_455
B1 Rh1 2.205568 1_555
B1 Rh5 2.230345 1_555
B1 Rh5 2.230345 1_455
B1 Sc0 2.627469 1_555
B1 Sc2 2.778952 1_545
B1 Sc3 2.906764 1_555
B2 Ru0 2.162291 1_455
B2 Ru0 2.162291 1_555
B2 Rh3 2.205568 1_455
B2 Rh3 2.205568 1_555
B2 Rh4 2.230345 1_555
B2 Rh4 2.230345 1_455
B2 Sc3 2.627469 1_555
B2 Sc1 2.778952 1_555
B2 Sc0 2.906764 1_554
B3 Ru1 2.162291 1_455
B3 Ru1 2.162291 1_555
B3 Rh2 2.205568 1_555
B3 Rh2 2.205568 1_455
B3 Rh4 2.230345 1_556
B3 Rh4 2.230345 1_456
B3 Sc2 2.627469 1_555
B3 Sc0 2.778952 1_555
B3 Sc1 2.906764 1_556
Ru0 Sc3 2.831735 1_555
Ru0 Sc3 2.831735 1_655
Ru0 Sc1 2.910675 1_555
Ru0 Sc1 2.910675 1_655
Ru1 Sc2 2.831735 1_555
Ru1 Sc2 2.831735 1_655
Ru1 Sc0 2.910675 1_655
Ru1 Sc0 2.910675 1_555
Ru2 Sc1 2.831735 1_555
Ru2 Sc1 2.831735 1_655
Ru2 Sc3 2.910675 1_665
Ru2 Sc3 2.910675 1_565
Ru3 Sc0 2.831735 1_655
Ru3 Sc0 2.831735 1_555
Ru3 Sc2 2.910675 1_545
Ru3 Sc2 2.910675 1_645
Rh0 Sc1 2.835854 1_555
Rh0 Sc1 2.835854 1_655
Rh0 Sc2 2.933164 1_655
Rh0 Sc2 2.933164 1_555
Rh1 Sc0 2.835854 1_555
Rh1 Sc0 2.835854 1_655
Rh1 Sc3 2.933164 1_655
Rh1 Sc3 2.933164 1_555
Rh2 Sc2 2.835854 1_555
Rh2 Sc2 2.835854 1_655
Rh2 Sc1 2.933164 1_656
Rh2 Sc1 2.933164 1_556
Rh3 Sc3 2.835854 1_555
Rh3 Sc3 2.835854 1_655
Rh3 Sc0 2.933164 1_654
Rh3 Sc0 2.933164 1_554
Rh4 Sc1 2.767835 1_655
Rh4 Sc1 2.767835 1_555
Rh4 Sc0 2.767835 1_654
Rh4 Sc0 2.767835 1_554
Rh5 Sc2 2.767835 1_545
Rh5 Sc2 2.767835 1_645
Rh5 Sc3 2.767835 1_555
Rh5 Sc3 2.767835 1_655
