# generated using pymatgen
data_Ca2Ni3Ir
_symmetry_space_group_name_H-M   'P 1'
_cell_length_a   5.09317350
_cell_length_b   5.09317333
_cell_length_c   5.12635319
_cell_angle_alpha   60.21388016
_cell_angle_beta   60.21387697
_cell_angle_gamma   60.00000603
_symmetry_Int_Tables_number   1
_chemical_formula_structural   Ca2Ni3Ir
_chemical_formula_sum   'Ca2 Ni3 Ir1'
_cell_volume   94.33370897
_cell_formula_units_Z   1
loop_
 _symmetry_equiv_pos_site_id
 _symmetry_equiv_pos_as_xyz
  1  'x, y, z'
loop_
 _atom_site_type_symbol
 _atom_site_label
 _atom_site_symmetry_multiplicity
 _atom_site_fract_x
 _atom_site_fract_y
 _atom_site_fract_z
 _atom_site_occupancy
  Ca  Ca0  1  0.25048040  0.25048040  0.24855880  1
  Ca  Ca1  1  0.99951960  0.99951960  0.00144120  1
  Ni  Ni0  1  0.62500000  0.62500000  0.62500000  1
  Ni  Ni1  1  0.12500000  0.62500000  0.62500000  1
  Ni  Ni2  1  0.62500000  0.12500000  0.62500000  1
  Ir  Ir0  1  0.62500000  0.62500000  0.12500000  1
loop_
_geom_bond_atom_site_label_1
_geom_bond_atom_site_label_2
_geom_bond_distance
_geom_bond_site_symmetry_2
Ca0 Ir0 2.985967 1_555
Ca0 Ir0 2.985967 1_545
Ca0 Ir0 2.985967 1_455
Ca0 Ni1 2.997298 1_555
Ca0 Ni1 2.997298 1_545
Ca0 Ni2 2.997298 1_555
Ca0 Ni2 2.997298 1_455
Ca0 Ni0 2.997298 1_455
Ca0 Ni0 2.997299 1_545
Ca0 Ni2 3.002956 1_554
Ca0 Ni0 3.002956 1_554
Ca0 Ni1 3.002956 1_554
Ca0 Ca1 3.118266 1_445
Ca0 Ca1 3.118266 1_455
Ca0 Ca1 3.118266 1_545
Ca0 Ca1 3.161451 1_446
Ca1 Ir0 2.985967 1_555
Ca1 Ir0 2.985967 1_565
Ca1 Ir0 2.985967 1_655
Ca1 Ni1 2.997298 1_654
Ca1 Ni1 2.997298 1_664
Ca1 Ni2 2.997298 1_564
Ca1 Ni2 2.997298 1_664
Ca1 Ni0 2.997298 1_654
Ca1 Ni0 2.997299 1_564
Ca1 Ni2 3.002956 1_565
Ca1 Ni0 3.002956 1_555
Ca1 Ni1 3.002956 1_655
Ni0 Ni2 2.546587 1_565
Ni0 Ni2 2.546587 1_555
Ni0 Ni1 2.546587 1_655
Ni0 Ni1 2.546587 1_555
Ni1 Ni2 2.546587 1_465
Ni1 Ni2 2.546587 1_555
Ir0 Ni0 2.563177 1_554
Ir0 Ni0 2.563177 1_555
Ir0 Ni1 2.563177 1_555
Ir0 Ni1 2.563177 1_654
Ir0 Ni2 2.563177 1_564
Ir0 Ni2 2.563177 1_555
