# generated using pymatgen
data_Ca5Sb3H
_symmetry_space_group_name_H-M   'P 1'
_cell_length_a   6.87760185
_cell_length_b   9.00836563
_cell_length_c   9.00836553
_cell_angle_alpha   119.99999600
_cell_angle_beta   90.00000000
_cell_angle_gamma   90.00000000
_symmetry_Int_Tables_number   1
_chemical_formula_structural   Ca5Sb3H
_chemical_formula_sum   'Ca10 Sb6 H2'
_cell_volume   483.34773141
_cell_formula_units_Z   2
loop_
 _symmetry_equiv_pos_site_id
 _symmetry_equiv_pos_as_xyz
  1  'x, y, z'
loop_
 _atom_site_type_symbol
 _atom_site_label
 _atom_site_symmetry_multiplicity
 _atom_site_fract_x
 _atom_site_fract_y
 _atom_site_fract_z
 _atom_site_occupancy
  Ca  Ca0  1  0.50000000  0.33333300  0.66666700  1
  Ca  Ca1  1  0.50000000  0.66666600  0.33333300  1
  Ca  Ca2  1  0.00000000  0.66666700  0.33333300  1
  Ca  Ca3  1  0.00000000  0.33333400  0.66666700  1
  Ca  Ca4  1  0.75000000  0.24286976  0.00000000  1
  Ca  Ca5  1  0.75000000  0.75713024  0.75713024  1
  Ca  Ca6  1  0.75000000  0.00000000  0.24286976  1
  Ca  Ca7  1  0.25000000  0.75713024  1.00000000  1
  Ca  Ca8  1  0.25000000  0.24286976  0.24286976  1
  Ca  Ca9  1  0.25000000  1.00000000  0.75713024  1
  Sb  Sb0  1  0.75000000  0.60931727  1.00000000  1
  Sb  Sb1  1  0.75000000  0.39068273  0.39068273  1
  Sb  Sb2  1  0.75000000  0.00000000  0.60931727  1
  Sb  Sb3  1  0.25000000  0.39068273  0.00000000  1
  Sb  Sb4  1  0.25000000  0.60931727  0.60931727  1
  Sb  Sb5  1  0.25000000  0.00000000  0.39068273  1
  H  H0  1  0.50000000  0.00000000  0.00000000  1
  H  H1  1  0.00000000  0.00000000  0.00000000  1
loop_
_geom_bond_atom_site_label_1
_geom_bond_atom_site_label_2
_geom_bond_distance
_geom_bond_site_symmetry_2
Ca0 Sb3 3.269349 1_556
Ca0 Sb2 3.269349 1_555
Ca0 Sb0 3.269352 1_555
Ca0 Sb5 3.269352 1_555
Ca0 Sb1 3.269356 1_555
Ca0 Sb4 3.269356 1_555
Ca1 Sb1 3.269349 1_555
Ca1 Sb3 3.269349 1_555
Ca1 Sb4 3.269351 1_555
Ca1 Sb0 3.269352 1_554
Ca1 Sb5 3.269356 1_565
Ca1 Sb2 3.269356 1_565
Ca2 Sb0 3.269349 1_454
Ca2 Sb5 3.269349 1_565
Ca2 Sb3 3.269352 1_555
Ca2 Sb2 3.269352 1_465
Ca2 Sb4 3.269356 1_555
Ca2 Sb1 3.269356 1_455
Ca3 Sb4 3.269349 1_555
Ca3 Sb0 3.269349 1_455
Ca3 Sb1 3.269351 1_455
Ca3 Sb3 3.269352 1_556
Ca3 Sb2 3.269356 1_455
Ca3 Sb5 3.269356 1_555
Ca4 H0 2.782637 1_555
Ca4 H1 2.782637 1_655
Ca4 Sb1 3.077826 1_555
Ca4 Sb2 3.077827 1_554
Ca4 Sb0 3.301093 1_554
Ca4 Sb3 3.687599 1_655
Ca4 Sb3 3.687599 1_555
Ca5 H1 2.782637 1_666
Ca5 H0 2.782637 1_566
Ca5 Sb0 3.077826 1_555
Ca5 Sb2 3.077826 1_565
Ca5 Sb1 3.301093 1_555
Ca5 Sb4 3.687599 1_655
Ca5 Sb4 3.687599 1_555
Ca6 H0 2.782637 1_555
Ca6 H1 2.782637 1_655
Ca6 Sb1 3.077827 1_555
Ca6 Sb0 3.077827 1_544
Ca6 Sb2 3.301093 1_555
Ca6 Sb5 3.687599 1_655
Ca6 Sb5 3.687599 1_555
Ca7 H0 2.782637 1_566
Ca7 H1 2.782637 1_566
Ca7 Sb4 3.077826 1_555
Ca7 Sb5 3.077827 1_566
Ca7 Sb3 3.301093 1_556
Ca7 Sb0 3.687599 1_555
Ca7 Sb0 3.687599 1_455
Ca8 H0 2.782637 1_555
Ca8 H1 2.782637 1_555
Ca8 Sb3 3.077826 1_555
Ca8 Sb5 3.077826 1_555
Ca8 Sb4 3.301093 1_555
Ca8 Sb1 3.687599 1_555
Ca8 Sb1 3.687599 1_455
Ca9 H0 2.782637 1_566
Ca9 H1 2.782637 1_566
Ca9 Sb4 3.077827 1_555
Ca9 Sb3 3.077827 1_566
Ca9 Sb5 3.301093 1_565
Ca9 Sb2 3.687599 1_565
Ca9 Sb2 3.687599 1_465
