# generated using pymatgen
data_Hf16ReNi4Ru3
_symmetry_space_group_name_H-M   'P 1'
_cell_length_a   8.56730914
_cell_length_b   8.56730951
_cell_length_c   8.56730932
_cell_angle_alpha   59.96764921
_cell_angle_beta   59.96764609
_cell_angle_gamma   59.96764762
_symmetry_Int_Tables_number   1
_chemical_formula_structural   Hf16ReNi4Ru3
_chemical_formula_sum   'Hf16 Re1 Ni4 Ru3'
_cell_volume   444.32382766
_cell_formula_units_Z   1
loop_
 _symmetry_equiv_pos_site_id
 _symmetry_equiv_pos_as_xyz
  1  'x, y, z'
loop_
 _atom_site_type_symbol
 _atom_site_label
 _atom_site_symmetry_multiplicity
 _atom_site_fract_x
 _atom_site_fract_y
 _atom_site_fract_z
 _atom_site_occupancy
  Hf  Hf0  1  0.68438637  0.10509202  0.10509202  1
  Hf  Hf1  1  0.10509202  0.68438637  0.10509202  1
  Hf  Hf2  1  0.10509202  0.10509202  0.68438637  1
  Hf  Hf3  1  0.10735982  0.10735982  0.10735982  1
  Hf  Hf4  1  0.31465417  0.31465417  0.68232382  1
  Hf  Hf5  1  0.68465340  0.68465340  0.31486162  1
  Hf  Hf6  1  0.31465417  0.68232382  0.31465417  1
  Hf  Hf7  1  0.68465340  0.31486162  0.68465340  1
  Hf  Hf8  1  0.68232382  0.31465417  0.31465417  1
  Hf  Hf9  1  0.31486162  0.68465340  0.68465340  1
  Hf  Hf10  1  0.95075624  0.95075624  0.54910826  1
  Hf  Hf11  1  0.54874973  0.54874973  0.95238414  1
  Hf  Hf12  1  0.95075624  0.54910826  0.95075624  1
  Hf  Hf13  1  0.54874973  0.95238414  0.54874973  1
  Hf  Hf14  1  0.54910826  0.95075624  0.95075624  1
  Hf  Hf15  1  0.95238414  0.54874973  0.54874973  1
  Re  Re0  1  0.33341336  0.33341336  0.33341336  1
  Ni  Ni0  1  0.32026591  0.89424121  0.89424121  1
  Ni  Ni1  1  0.89424121  0.32026591  0.89424121  1
  Ni  Ni2  1  0.89424121  0.89424121  0.32026591  1
  Ni  Ni3  1  0.89236812  0.89236812  0.89236812  1
  Ru  Ru0  1  0.99647205  0.33537799  0.33537799  1
  Ru  Ru1  1  0.33537799  0.99647205  0.33537799  1
  Ru  Ru2  1  0.33537799  0.33537799  0.99647205  1
loop_
_geom_bond_atom_site_label_1
_geom_bond_atom_site_label_2
_geom_bond_distance
_geom_bond_site_symmetry_2
Hf0 Ni1 2.574346 1_554
Hf0 Ni2 2.574346 1_545
Hf0 Ni3 2.577082 1_544
Hf0 Ru1 2.956587 1_545
Hf0 Ru2 2.956587 1_554
Hf0 Re0 2.957881 1_555
Hf1 Ni2 2.574346 1_455
Hf1 Ni0 2.574346 1_554
Hf1 Ni3 2.577082 1_454
Hf1 Ru2 2.956587 1_554
Hf1 Ru0 2.956587 1_455
Hf1 Re0 2.957881 1_555
Hf2 Ni1 2.574346 1_455
Hf2 Ni0 2.574346 1_545
Hf2 Ni3 2.577082 1_445
Hf2 Ru1 2.956587 1_545
Hf2 Ru0 2.956587 1_455
Hf2 Re0 2.957881 1_555
Hf3 Ni0 2.581517 1_544
Hf3 Ni2 2.581517 1_445
Hf3 Ni1 2.581517 1_454
Hf3 Ru0 2.939293 1_455
Hf3 Ru2 2.939293 1_554
Hf3 Ru1 2.939293 1_545
Hf4 Re0 2.837464 1_555
Hf4 Ru2 2.880087 1_555
Hf5 Ru1 2.839631 1_555
Hf5 Ru0 2.839631 1_555
Hf6 Re0 2.837464 1_555
Hf6 Ru1 2.880087 1_555
Hf7 Ru2 2.839631 1_555
Hf7 Ru0 2.839631 1_555
Hf8 Re0 2.837464 1_555
Hf8 Ru0 2.880087 1_555
Hf9 Ru1 2.839631 1_555
Hf9 Ru2 2.839631 1_555
Hf10 Ni2 2.539238 1_555
Hf10 Ni3 2.540527 1_555
Hf10 Ru1 2.983083 1_655
Hf10 Ru0 2.983083 1_565
Hf11 Ni1 2.557648 1_555
Hf11 Ni0 2.557648 1_555
Hf11 Ru2 2.964563 1_555
Hf11 Re0 2.968774 1_556
Hf12 Ni1 2.539238 1_555
Hf12 Ni3 2.540527 1_555
Hf12 Ru2 2.983083 1_655
Hf12 Ru0 2.983083 1_556
Hf13 Ni2 2.557648 1_555
Hf13 Ni0 2.557648 1_555
Hf13 Ru1 2.964563 1_555
Hf13 Re0 2.968774 1_565
Hf14 Ni0 2.539238 1_555
Hf14 Ni3 2.540527 1_555
Hf14 Ru1 2.983083 1_556
Hf14 Ru2 2.983083 1_565
Hf15 Ni1 2.557648 1_555
Hf15 Ni2 2.557648 1_555
Hf15 Ru0 2.964563 1_555
Hf15 Re0 2.968774 1_655
Re0 Ru0 2.869931 1_455
Re0 Ru2 2.869931 1_554
Re0 Ru1 2.869931 1_545
Ru0 Ru2 2.902092 1_654
Ru0 Ru1 2.902092 1_645
Ru1 Ru2 2.902092 1_564
