# generated using pymatgen
data_La2W2O9
_symmetry_space_group_name_H-M   'P 1'
_cell_length_a   7.04368538
_cell_length_b   7.30092512
_cell_length_c   7.30949108
_cell_angle_alpha   70.42304441
_cell_angle_beta   84.94325653
_cell_angle_gamma   83.25511482
_symmetry_Int_Tables_number   1
_chemical_formula_structural   La2W2O9
_chemical_formula_sum   'La4 W4 O18'
_cell_volume   351.23445287
_cell_formula_units_Z   2
loop_
 _symmetry_equiv_pos_site_id
 _symmetry_equiv_pos_as_xyz
  1  'x, y, z'
loop_
 _atom_site_type_symbol
 _atom_site_label
 _atom_site_symmetry_multiplicity
 _atom_site_fract_x
 _atom_site_fract_y
 _atom_site_fract_z
 _atom_site_occupancy
  La  La0  1  0.84308394  0.74106785  0.84769194  1
  La  La1  1  0.15691572  0.25893401  0.15230763  1
  La  La2  1  0.37646240  0.72696891  0.59044305  1
  La  La3  1  0.62354183  0.27303635  0.40953907  1
  W  W0  1  0.15714949  0.20325161  0.64515907  1
  W  W1  1  0.84286057  0.79674238  0.35484293  1
  W  W2  1  0.72277852  0.26977832  0.93941626  1
  W  W3  1  0.27722299  0.73022556  0.06057338  1
  O  O0  1  0.34711814  0.35083549  0.64589939  1
  O  O1  1  0.65288320  0.64915612  0.35411223  1
  O  O2  1  0.01356904  0.27525615  0.84756462  1
  O  O3  1  0.98642918  0.72472651  0.15244724  1
  O  O4  1  0.49212753  0.76973618  0.90357847  1
  O  O5  1  0.50786942  0.23027333  0.09640865  1
  O  O6  1  0.65956161  0.49052729  0.74461577  1
  O  O7  1  0.34044528  0.50948631  0.25539282  1
  O  O8  1  0.27234015  0.91477313  0.17931725  1
  O  O9  1  0.72765290  0.08523144  0.82067573  1
  O  O10  1  0.81213607  0.41850291  0.08987802  1
  O  O11  1  0.18785725  0.58149562  0.91013198  1
  O  O12  1  0.97709445  0.29378684  0.46486630  1
  O  O13  1  0.02291216  0.70621533  0.53513719  1
  O  O14  1  0.85613088  0.05633108  0.19863832  1
  O  O15  1  0.14385523  0.94366059  0.80136011  1
  O  O16  1  0.31841431  0.09610804  0.47124736  1
  O  O17  1  0.68158775  0.90389264  0.52875524  1
loop_
_geom_bond_atom_site_label_1
_geom_bond_atom_site_label_2
_geom_bond_distance
_geom_bond_site_symmetry_2
La0 O10 2.446669 1_556
La0 O4 2.465632 1_555
La0 O3 2.487169 1_556
La0 O9 2.495932 1_565
La0 O17 2.536649 1_555
La0 O11 2.576345 1_655
La0 O13 2.586960 1_655
La0 O15 2.657927 1_655
La0 O6 2.689841 1_555
La1 O11 2.446615 1_554
La1 O5 2.465622 1_555
La1 O2 2.487133 1_554
La1 O8 2.495914 1_545
La1 O16 2.536675 1_555
La1 O10 2.576370 1_455
La1 O12 2.586966 1_455
La1 O14 2.658054 1_455
La1 O7 2.689978 1_555
La2 O16 2.533771 1_565
La2 O11 2.544470 1_555
La2 O6 2.551481 1_555
La2 O17 2.565515 1_555
La2 O13 2.587491 1_555
La2 O4 2.620600 1_555
La2 O1 2.627294 1_555
La2 O0 2.668483 1_555
La2 O15 2.853851 1_555
La2 O8 2.973159 1_555
La3 O17 2.533801 1_545
La3 O10 2.544275 1_555
La3 O7 2.551439 1_555
La3 O16 2.565537 1_555
La3 O12 2.587544 1_555
La3 O5 2.620573 1_555
La3 O0 2.627416 1_555
La3 O1 2.668424 1_555
La3 O14 2.853778 1_555
La3 O9 2.973207 1_555
O0 W0 1.815308 1_555
O1 W1 1.815351 1_555
O2 W0 1.902784 1_555
O2 W2 2.099158 1_455
O3 W1 1.902728 1_555
O3 W3 2.099221 1_655
O4 W3 1.807194 1_556
O5 W2 1.807209 1_554
O6 W2 1.796815 1_555
O7 W3 1.796852 1_555
O8 W3 1.826880 1_555
O9 W2 1.826865 1_555
O10 W2 1.966615 1_554
O11 W3 1.966556 1_556
O12 W0 1.815506 1_655
O13 W1 1.815493 1_455
O14 W1 1.864661 1_545
O14 W2 2.211808 1_554
O15 W0 1.864688 1_565
O15 W3 2.211778 1_556
O16 W0 1.929058 1_555
O17 W1 1.929116 1_555
