# generated using pymatgen
data_Sr3Al10CoO20
_symmetry_space_group_name_H-M   'P 1'
_cell_length_a   9.44663907
_cell_length_b   9.44663728
_cell_length_c   4.92091917
_cell_angle_alpha   75.38596526
_cell_angle_beta   75.38597998
_cell_angle_gamma   72.75317103
_symmetry_Int_Tables_number   1
_chemical_formula_structural   Sr3Al10CoO20
_chemical_formula_sum   'Sr3 Al10 Co1 O20'
_cell_volume   398.26807479
_cell_formula_units_Z   1
loop_
 _symmetry_equiv_pos_site_id
 _symmetry_equiv_pos_as_xyz
  1  'x, y, z'
loop_
 _atom_site_type_symbol
 _atom_site_label
 _atom_site_symmetry_multiplicity
 _atom_site_fract_x
 _atom_site_fract_y
 _atom_site_fract_z
 _atom_site_occupancy
  Sr  Sr0  1  0.00000000  0.00000000  0.00000000  1
  Sr  Sr1  1  0.27500983  0.27500983  0.72151771  1
  Sr  Sr2  1  0.72499017  0.72499017  0.27848229  1
  Al  Al0  1  0.84744309  0.42437884  0.82986861  1
  Al  Al1  1  0.57562116  0.15255691  0.17013139  1
  Al  Al2  1  0.15255691  0.57562116  0.17013139  1
  Al  Al3  1  0.42437884  0.84744309  0.82986861  1
  Al  Al4  1  0.36960092  0.63039908  0.50000000  1
  Al  Al5  1  0.63039908  0.36960092  0.50000000  1
  Al  Al6  1  0.99412086  0.71861752  0.65971100  1
  Al  Al7  1  0.28138248  0.00587914  0.34028900  1
  Al  Al8  1  0.00587914  0.28138248  0.34028900  1
  Al  Al9  1  0.71861752  0.99412086  0.65971100  1
  Co  Co0  1  0.50000000  0.50000000  0.00000000  1
  O  O0  1  0.54827967  0.31254418  0.89127647  1
  O  O1  1  0.68745582  0.45172033  0.10872353  1
  O  O2  1  0.45172033  0.68745582  0.10872353  1
  O  O3  1  0.31254418  0.54827967  0.89127647  1
  O  O4  1  0.71403954  0.01018260  0.00988315  1
  O  O5  1  0.98981740  0.28596046  0.99011685  1
  O  O6  1  0.28596046  0.98981740  0.99011685  1
  O  O7  1  0.01018260  0.71403954  0.00988315  1
  O  O8  1  0.43416433  0.43416433  0.39278367  1
  O  O9  1  0.56583567  0.56583567  0.60721633  1
  O  O10  1  0.90131957  0.90131957  0.51741464  1
  O  O11  1  0.09868043  0.09868043  0.48258536  1
  O  O12  1  0.88012374  0.60098675  0.67851432  1
  O  O13  1  0.39901325  0.11987626  0.32148568  1
  O  O14  1  0.11987626  0.39901325  0.32148568  1
  O  O15  1  0.60098675  0.88012374  0.67851432  1
  O  O16  1  0.17284256  0.65896207  0.43987004  1
  O  O17  1  0.34103793  0.82715744  0.56012996  1
  O  O18  1  0.82715744  0.34103793  0.56012996  1
  O  O19  1  0.65896207  0.17284256  0.43987004  1
loop_
_geom_bond_atom_site_label_1
_geom_bond_atom_site_label_2
_geom_bond_distance
_geom_bond_site_symmetry_2
Al0 O12 1.730837 1_555
Al0 O5 1.764248 1_555
Al0 O1 1.770514 1_556
Al0 O18 1.778648 1_555
Al1 O13 1.730837 1_555
Al1 O4 1.764248 1_555
Al1 O0 1.770514 1_554
Al1 O19 1.778648 1_555
Al2 O14 1.730837 1_555
Al2 O7 1.764248 1_555
Al2 O3 1.770514 1_554
Al2 O16 1.778648 1_555
Al3 O15 1.730837 1_555
Al3 O6 1.764248 1_555
Al3 O2 1.770514 1_556
Al3 O17 1.778648 1_555
Al4 O17 1.885468 1_555
Al4 O16 1.885468 1_555
Al4 O3 1.889485 1_555
Al4 O2 1.889486 1_555
Al4 O8 1.935845 1_555
Al4 O9 1.935845 1_555
Al5 O19 1.885468 1_555
Al5 O18 1.885468 1_555
Al5 O1 1.889485 1_555
Al5 O0 1.889486 1_555
Al5 O9 1.935845 1_555
Al5 O8 1.935845 1_555
Al6 O12 1.735072 1_555
Al6 O10 1.743666 1_555
Al6 O7 1.756315 1_656
Al6 O16 1.777678 1_655
Al7 O13 1.735073 1_555
Al7 O11 1.743666 1_555
Al7 O6 1.756315 1_544
Al7 O17 1.777678 1_545
Al8 O14 1.735072 1_555
Al8 O11 1.743666 1_555
Al8 O5 1.756315 1_454
Al8 O18 1.777678 1_455
Al9 O15 1.735073 1_555
Al9 O10 1.743666 1_555
Al9 O4 1.756315 1_566
Al9 O19 1.777678 1_565
Co0 O2 1.872465 1_555
Co0 O0 1.872465 1_554
Co0 O1 1.872465 1_555
Co0 O3 1.872465 1_554
Co0 O8 1.877683 1_555
Co0 O9 1.877683 1_554
O4 Sr0 2.662888 1_655
O4 Sr2 2.668857 1_545
O5 Sr0 2.662888 1_656
O5 Sr1 2.668857 1_655
O6 Sr0 2.662888 1_566
O6 Sr1 2.668857 1_565
O7 Sr0 2.662888 1_565
O7 Sr2 2.668857 1_455
O8 Sr1 2.454295 1_555
O9 Sr2 2.454295 1_555
O10 Sr0 2.518089 1_665
O11 Sr0 2.518089 1_556
O12 Sr2 2.582464 1_555
O13 Sr1 2.582465 1_555
O14 Sr1 2.582464 1_555
O15 Sr2 2.582465 1_555
