# generated using pymatgen
data_Sc12Co4BiRh
_symmetry_space_group_name_H-M   'P 1'
_cell_length_a   7.74225576
_cell_length_b   7.74225473
_cell_length_c   7.74225441
_cell_angle_alpha   111.37061606
_cell_angle_beta   110.33101571
_cell_angle_gamma   106.74767739
_symmetry_Int_Tables_number   1
_chemical_formula_structural   Sc12Co4BiRh
_chemical_formula_sum   'Sc12 Co4 Bi1 Rh1'
_cell_volume   356.62411259
_cell_formula_units_Z   1
loop_
 _symmetry_equiv_pos_site_id
 _symmetry_equiv_pos_as_xyz
  1  'x, y, z'
loop_
 _atom_site_type_symbol
 _atom_site_label
 _atom_site_symmetry_multiplicity
 _atom_site_fract_x
 _atom_site_fract_y
 _atom_site_fract_z
 _atom_site_occupancy
  Sc  Sc0  1  0.42081045  0.22128398  0.19952447  1
  Sc  Sc1  1  0.57918955  0.77871602  0.80047553  1
  Sc  Sc2  1  0.02175951  0.22128398  0.80047553  1
  Sc  Sc3  1  0.97824049  0.77871602  0.19952447  1
  Sc  Sc4  1  0.32041992  0.63204235  0.31162144  1
  Sc  Sc5  1  0.67958008  0.36795765  0.68837856  1
  Sc  Sc6  1  0.32041992  0.00879748  0.68837856  1
  Sc  Sc7  1  0.67958008  0.99120252  0.31162144  1
  Sc  Sc8  1  0.18166079  0.27813389  0.45979568  1
  Sc  Sc9  1  0.81833921  0.72186511  0.54020432  1
  Sc  Sc10  1  0.18166079  0.72186511  0.90352590  1
  Sc  Sc11  1  0.81833921  0.27813389  0.09647410  1
  Co  Co0  1  0.34722861  1.00000000  0.34722861  1
  Co  Co1  1  0.65277139  0.00000000  0.65277139  1
  Co  Co2  1  0.11709036  0.61709036  0.50000000  1
  Co  Co3  1  0.88290964  0.38290964  0.50000000  1
  Bi  Bi0  1  0.50000000  0.50000000  0.00000000  1
  Rh  Rh0  1  0.00000000  0.00000000  0.00000000  1
loop_
_geom_bond_atom_site_label_1
_geom_bond_atom_site_label_2
_geom_bond_distance
_geom_bond_site_symmetry_2
Sc0 Sc10 3.177801 1_544
Sc0 Sc8 3.177813 1_555
Sc0 Sc11 3.388880 1_555
Sc0 Sc9 3.388889 1_555
Sc1 Sc11 3.177794 1_566
Sc1 Sc9 3.177814 1_555
Sc1 Sc10 3.388879 1_555
Sc1 Sc8 3.388894 1_555
Sc2 Sc9 3.177801 1_445
Sc2 Sc8 3.388891 1_555
Sc3 Sc8 3.177794 1_665
Sc3 Sc9 3.388894 1_555
Sc4 Sc9 3.360654 1_555
Sc4 Sc8 3.380669 1_555
Sc5 Sc8 3.360652 1_555
Sc5 Sc9 3.380662 1_555
Sc6 Sc8 3.360651 1_555
Sc6 Sc9 3.380655 1_445
Sc7 Sc9 3.360658 1_555
Sc7 Sc8 3.380653 1_665
Sc10 Sc3 3.177801 1_456
Sc10 Sc9 3.213533 1_455
Sc10 Sc4 3.360646 1_556
Sc10 Sc7 3.360651 1_556
Sc10 Sc6 3.380650 1_565
Sc10 Sc5 3.380659 1_455
Sc10 Sc2 3.388894 1_555
Sc11 Sc2 3.177801 1_654
Sc11 Sc8 3.213533 1_655
Sc11 Sc5 3.360651 1_554
Sc11 Sc6 3.360652 1_554
Sc11 Sc7 3.380644 1_545
Sc11 Sc4 3.380661 1_655
Sc11 Sc3 3.388901 1_555
Co0 Sc3 2.426009 1_455
Co0 Sc0 2.426012 1_565
Co0 Sc4 2.698510 1_555
Co0 Sc5 2.698515 1_565
Co0 Sc7 2.698516 1_555
Co0 Sc6 2.698520 1_565
Co0 Co1 2.702487 1_565
Co0 Sc8 2.835347 1_565
Co0 Sc10 2.835353 1_554
Co1 Sc2 2.426009 1_655
Co1 Sc1 2.426012 1_545
Co1 Sc5 2.698510 1_555
Co1 Sc4 2.698515 1_545
Co1 Sc6 2.698516 1_555
Co1 Sc7 2.698520 1_545
Co1 Sc11 2.835351 1_556
Co1 Sc9 2.835353 1_545
Co2 Co3 2.163344 1_455
Co2 Sc6 2.496433 1_565
Co2 Sc4 2.496440 1_555
Co2 Sc10 2.739077 1_555
Co2 Sc9 2.739077 1_455
Co2 Sc11 2.739079 1_455
Co2 Sc8 2.739084 1_555
Co2 Sc1 3.048349 1_555
Co2 Sc3 3.048361 1_455
Co3 Sc7 2.496433 1_545
Co3 Sc5 2.496440 1_555
Co3 Sc11 2.739075 1_555
Co3 Sc10 2.739077 1_655
Co3 Sc9 2.739077 1_555
Co3 Sc8 2.739081 1_655
Co3 Sc0 3.048349 1_555
Co3 Sc2 3.048361 1_655
Bi0 Sc1 3.121501 1_554
Bi0 Sc0 3.121501 1_555
Bi0 Sc3 3.121504 1_555
Bi0 Sc2 3.121504 1_554
Bi0 Sc4 3.186164 1_555
Bi0 Sc5 3.186164 1_554
Bi0 Sc6 3.186169 1_554
Bi0 Sc7 3.186169 1_555
Bi0 Sc8 3.417428 1_554
Bi0 Sc9 3.417430 1_555
Bi0 Sc10 3.417430 1_554
Bi0 Sc11 3.417436 1_555
Rh0 Sc2 2.700589 1_554
Rh0 Sc3 2.700589 1_445
Rh0 Sc0 2.700602 1_555
Rh0 Sc1 2.700602 1_444
Rh0 Sc11 2.911416 1_455
Rh0 Sc8 2.911421 1_555
Rh0 Sc9 2.911422 1_444
Rh0 Sc10 2.911422 1_544
