# generated using pymatgen
data_MnAl5(PdPt4)2
_symmetry_space_group_name_H-M   'P 1'
_cell_length_a   4.01390362
_cell_length_b   5.41961532
_cell_length_c   10.68887500
_cell_angle_alpha   90.03065771
_cell_angle_beta   90.00000000
_cell_angle_gamma   90.00000000
_symmetry_Int_Tables_number   1
_chemical_formula_structural   MnAl5(PdPt4)2
_chemical_formula_sum   'Mn1 Al5 Pd2 Pt8'
_cell_volume   232.52376053
_cell_formula_units_Z   1
loop_
 _symmetry_equiv_pos_site_id
 _symmetry_equiv_pos_as_xyz
  1  'x, y, z'
loop_
 _atom_site_type_symbol
 _atom_site_label
 _atom_site_symmetry_multiplicity
 _atom_site_fract_x
 _atom_site_fract_y
 _atom_site_fract_z
 _atom_site_occupancy
  Mn  Mn0  1  0.50000000  0.18225925  0.63708561  1
  Al  Al0  1  0.50000000  0.82532428  0.36054912  1
  Al  Al1  1  0.50000000  0.68376092  0.85807989  1
  Al  Al2  1  0.50000000  0.32409099  0.13902600  1
  Al  Al3  1  0.00000000  0.48067760  0.50525799  1
  Al  Al4  1  0.00000000  0.99183284  0.99712550  1
  Pd  Pd0  1  0.00000000  0.43715566  0.74446869  1
  Pd  Pd1  1  0.00000000  0.58720336  0.27127404  1
  Pt  Pt0  1  0.50000000  0.30246281  0.38783881  1
  Pt  Pt1  1  0.50000000  0.68996755  0.60794259  1
  Pt  Pt2  1  0.50000000  0.79941189  0.10881172  1
  Pt  Pt3  1  0.50000000  0.20064182  0.89542048  1
  Pt  Pt4  1  0.00000000  0.93422094  0.76279118  1
  Pt  Pt5  1  0.00000000  0.08661617  0.22751227  1
  Pt  Pt6  1  0.00000000  0.49501703  0.00631071  1
  Pt  Pt7  1  0.00000000  0.97935290  0.49050838  1
loop_
_geom_bond_atom_site_label_1
_geom_bond_atom_site_label_2
_geom_bond_distance
_geom_bond_site_symmetry_2
Mn0 Pt1 2.685989 1_545
Mn0 Pd0 2.692952 1_655
Mn0 Pd0 2.692952 1_555
Mn0 Pt0 2.742999 1_555
Mn0 Pt3 2.763052 1_555
Mn0 Pt4 2.764463 1_645
Mn0 Pt4 2.764463 1_545
Mn0 Pt1 2.769326 1_555
Mn0 Pt7 2.773083 1_645
Mn0 Pt7 2.773083 1_545
Al0 Pd1 2.569549 1_555
Al0 Pd1 2.569549 1_655
Al0 Pt7 2.579363 1_555
Al0 Pt7 2.579363 1_655
Al0 Pt0 2.602152 1_565
Al0 Pt2 2.694377 1_555
Al0 Pt1 2.744603 1_555
Al0 Pt5 2.838570 1_565
Al0 Pt5 2.838570 1_665
Al0 Pt0 2.848837 1_555
Al1 Pt4 2.628548 1_555
Al1 Pt4 2.628548 1_655
Al1 Pt3 2.648777 1_555
Al1 Pt1 2.673916 1_555
Al1 Pd0 2.699458 1_655
Al1 Pd0 2.699458 1_555
Al1 Pt2 2.752032 1_556
Al1 Pt6 2.754332 1_556
Al1 Pt6 2.754332 1_656
Al1 Pt3 2.829375 1_565
Al1 Al4 3.003628 1_655
Al1 Al4 3.003628 1_555
Al2 Pt5 2.565182 1_555
Al2 Pt5 2.565182 1_655
Al2 Pt2 2.596393 1_555
Al2 Pt6 2.626738 1_655
Al2 Pt6 2.626738 1_555
Al2 Pt0 2.662174 1_555
Al2 Pt3 2.688102 1_554
Al2 Pd1 2.838538 1_655
Al2 Pd1 2.838538 1_555
Al2 Pt2 2.861668 1_545
Al3 Pt1 2.552995 1_455
Al3 Pt1 2.552995 1_555
Al3 Pt0 2.556298 1_455
Al3 Pt0 2.556298 1_555
Al3 Pd1 2.567096 1_555
Al3 Pd0 2.567875 1_555
Al3 Pt7 2.707307 1_555
Al3 Pt7 2.721473 1_545
Al3 Mn0 2.937946 1_455
Al3 Mn0 2.937946 1_555
Al4 Pt5 2.515313 1_566
Al4 Pt4 2.523990 1_555
Al4 Pt3 2.547872 1_565
Al4 Pt3 2.547872 1_465
Al4 Pt2 2.557709 1_556
Al4 Pt2 2.557709 1_456
Al4 Pt6 2.694392 1_556
Al4 Pt6 2.728779 1_566
Pd0 Pt4 2.700908 1_555
Pd0 Pt4 2.732844 1_545
Pd0 Pt6 2.816143 1_556
Pd0 Pt1 2.834938 1_555
Pd0 Pt1 2.834938 1_455
Pd0 Pt3 2.876893 1_455
Pd0 Pt3 2.876893 1_555
Pd1 Pt5 2.746994 1_565
Pd1 Pt5 2.752773 1_555
Pd1 Pt0 2.822005 1_555
Pd1 Pt0 2.822005 1_455
Pd1 Pt6 2.875627 1_555
Pd1 Pt2 2.892796 1_455
Pd1 Pt2 2.892796 1_555
Pt0 Pt7 2.881095 1_545
Pt0 Pt7 2.881095 1_645
Pt0 Pt5 2.886340 1_555
Pt0 Pt5 2.886340 1_655
Pt1 Pt7 2.839953 1_555
Pt1 Pt7 2.839953 1_655
Pt1 Pt4 2.918458 1_655
Pt1 Pt4 2.918458 1_555
Pt2 Pt6 2.819189 1_555
Pt2 Pt6 2.819189 1_655
Pt2 Pt5 2.838722 1_565
Pt2 Pt5 2.838722 1_665
Pt3 Pt6 2.824190 1_656
Pt3 Pt6 2.824190 1_556
Pt3 Pt4 2.849607 1_545
Pt3 Pt4 2.849607 1_645
Pt4 Pt7 2.920788 1_555
Pt5 Pt7 2.870915 1_545
