# generated using pymatgen
data_SnAs2(O3F)2
_symmetry_space_group_name_H-M   'P 1'
_cell_length_a   5.19143958
_cell_length_b   5.19143927
_cell_length_c   6.89638061
_cell_angle_alpha   90.00000000
_cell_angle_beta   90.00000000
_cell_angle_gamma   119.99999885
_symmetry_Int_Tables_number   1
_chemical_formula_structural   SnAs2(O3F)2
_chemical_formula_sum   'Sn1 As2 O6 F2'
_cell_volume   160.96351271
_cell_formula_units_Z   1
loop_
 _symmetry_equiv_pos_site_id
 _symmetry_equiv_pos_as_xyz
  1  'x, y, z'
loop_
 _atom_site_type_symbol
 _atom_site_label
 _atom_site_symmetry_multiplicity
 _atom_site_fract_x
 _atom_site_fract_y
 _atom_site_fract_z
 _atom_site_occupancy
  Sn  Sn0  1  0.00000000  0.00000000  0.00000000  1
  As  As0  1  0.33333400  0.66666700  0.23304219  1
  As  As1  1  0.66666700  0.33333300  0.76695881  1
  O  O0  1  0.29772913  0.33762794  0.17344834  1
  O  O1  1  0.03989881  0.70227087  0.17344834  1
  O  O2  1  0.66237206  0.96010019  0.17344834  1
  O  O3  1  0.33762794  0.03989981  0.82655166  1
  O  O4  1  0.96010019  0.29772913  0.82655166  1
  O  O5  1  0.70227087  0.66237206  0.82655166  1
  F  F0  1  0.66666700  0.33333300  0.52027326  1
  F  F1  1  0.33333400  0.66666700  0.47972774  1
loop_
_geom_bond_atom_site_label_1
_geom_bond_atom_site_label_2
_geom_bond_distance
_geom_bond_site_symmetry_2
As0 O2 1.674877 1_555
As0 O0 1.674882 1_555
As0 O1 1.674884 1_555
As0 F1 1.701237 1_555
As1 O4 1.674873 1_555
As1 O3 1.674879 1_555
As1 O5 1.674883 1_555
As1 F0 1.701237 1_555
O0 Sn0 2.045209 1_555
O1 Sn0 2.045209 1_565
O2 Sn0 2.045207 1_665
O3 Sn0 2.045207 1_556
O4 Sn0 2.045212 1_656
O5 Sn0 2.045209 1_666
