# generated using pymatgen
data_Cs11K(AsSe3)4
_symmetry_space_group_name_H-M   'P 1'
_cell_length_a   10.63135710
_cell_length_b   10.63135710
_cell_length_c   10.63135710
_cell_angle_alpha   89.63338038
_cell_angle_beta   89.63338038
_cell_angle_gamma   89.63338038
_symmetry_Int_Tables_number   1
_chemical_formula_structural   Cs11K(AsSe3)4
_chemical_formula_sum   'Cs11 K1 As4 Se12'
_cell_volume   1201.54366642
_cell_formula_units_Z   1
loop_
 _symmetry_equiv_pos_site_id
 _symmetry_equiv_pos_as_xyz
  1  'x, y, z'
loop_
 _atom_site_type_symbol
 _atom_site_label
 _atom_site_symmetry_multiplicity
 _atom_site_fract_x
 _atom_site_fract_y
 _atom_site_fract_z
 _atom_site_occupancy
  Cs  Cs0  1  0.80806071  0.18741026  0.68803952  1
  Cs  Cs1  1  0.68803952  0.80806071  0.18741026  1
  Cs  Cs2  1  0.18741026  0.68803952  0.80806071  1
  Cs  Cs3  1  0.31542105  0.31542105  0.31542105  1
  Cs  Cs4  1  0.18625853  0.31583098  0.68772957  1
  Cs  Cs5  1  0.31583098  0.68772957  0.18625953  1
  Cs  Cs6  1  0.68772957  0.18625853  0.31582998  1
  Cs  Cs7  1  0.81628721  0.81628721  0.81628721  1
  Cs  Cs8  1  0.42166943  0.07649866  0.92912009  1
  Cs  Cs9  1  0.07649866  0.92912009  0.42166943  1
  Cs  Cs10  1  0.92912009  0.42166943  0.07649866  1
  K  K0  1  0.60396872  0.60396872  0.60396872  1
  As  As0  1  0.02261571  0.02261571  0.02261571  1
  As  As1  1  0.47289878  0.97164689  0.52006166  1
  As  As2  1  0.97164689  0.52006166  0.47289878  1
  As  As3  1  0.52006166  0.47289878  0.97164689  1
  Se  Se0  1  0.30316830  0.40868545  0.99001792  1
  Se  Se1  1  0.80679909  0.09268562  0.01262575  1
  Se  Se2  1  0.68884798  0.89847613  0.51210669  1
  Se  Se3  1  0.09268562  0.01262575  0.80679909  1
  Se  Se4  1  0.51210669  0.68884798  0.89847613  1
  Se  Se5  1  0.01262575  0.80679909  0.09268562  1
  Se  Se6  1  0.40868545  0.99001792  0.30316830  1
  Se  Se7  1  0.99001792  0.30316830  0.40868545  1
  Se  Se8  1  0.89847613  0.51210669  0.68884798  1
  Se  Se9  1  0.59440059  0.48454989  0.18412080  1
  Se  Se10  1  0.48454989  0.18412080  0.59440059  1
  Se  Se11  1  0.18412080  0.59440059  0.48454989  1
loop_
_geom_bond_atom_site_label_1
_geom_bond_atom_site_label_2
_geom_bond_distance
_geom_bond_site_symmetry_2
Cs0 Se10 3.587095 1_555
Cs0 Se1 3.588510 1_556
Cs0 Se8 3.589297 1_555
Cs0 Se7 3.739946 1_555
Cs0 Se3 3.761684 1_655
Cs0 Se2 3.833289 1_545
Cs1 Se9 3.587095 1_555
Cs1 Se5 3.588510 1_655
Cs1 Se2 3.589297 1_555
Cs1 Se6 3.739946 1_555
Cs1 Se1 3.761684 1_565
Cs1 Se4 3.833289 1_554
Cs2 Se11 3.587095 1_555
Cs2 Se3 3.588510 1_565
Cs2 Se4 3.589297 1_555
Cs2 Se0 3.739946 1_555
Cs2 Se5 3.761684 1_556
Cs2 Se8 3.833289 1_455
Cs3 Se6 3.595593 1_545
Cs3 Se7 3.595593 1_455
Cs3 Se0 3.595593 1_554
Cs3 Se10 3.736506 1_555
Cs3 Se11 3.736506 1_555
Cs3 Se9 3.736506 1_555
Cs4 Se10 3.594812 1_555
Cs4 Se0 3.599283 1_555
Cs4 Se3 3.599391 1_555
Cs4 Se7 3.641362 1_455
Cs4 Se11 3.654485 1_555
Cs4 Se8 3.692311 1_455
Cs5 Se11 3.594802 1_555
Cs5 Se6 3.599280 1_555
Cs5 Se5 3.599394 1_555
Cs5 Se0 3.641368 1_554
Cs5 Se9 3.654485 1_555
Cs5 Se4 3.692320 1_554
Cs6 Se9 3.594808 1_555
Cs6 Se7 3.599286 1_555
Cs6 Se1 3.599381 1_555
Cs6 Se6 3.641362 1_545
Cs6 Se10 3.654493 1_555
Cs6 Se2 3.692317 1_545
Cs7 Se8 3.614093 1_555
Cs7 Se2 3.614093 1_555
Cs7 Se4 3.614093 1_555
Cs7 Se3 3.615787 1_665
Cs7 Se5 3.615787 1_656
Cs7 Se1 3.615787 1_566
Cs8 Se10 3.787657 1_555
Cs8 Se0 3.800051 1_555
Cs8 Se3 3.805913 1_555
Cs8 Se6 4.077480 1_546
Cs8 Se1 4.199974 1_556
Cs8 Se4 4.240018 1_545
Cs9 Se11 3.787657 1_555
Cs9 Se6 3.800051 1_555
Cs9 Se5 3.805913 1_555
Cs9 Se7 4.077480 1_465
Cs9 Se3 4.199974 1_565
Cs9 Se2 4.240018 1_455
Cs10 Se9 3.787657 1_555
Cs10 Se7 3.800051 1_555
Cs10 Se1 3.805913 1_555
Cs10 Se0 4.077480 1_654
Cs10 Se5 4.199974 1_655
Cs10 Se8 4.240018 1_554
K0 Se4 3.399569 1_555
K0 Se2 3.399569 1_555
K0 Se8 3.399569 1_555
As0 Se1 2.410565 1_455
As0 Se5 2.410565 1_545
As0 Se3 2.410565 1_554
As1 Se10 2.402124 1_565
As1 Se6 2.415348 1_555
As1 Se2 2.420463 1_555
As2 Se11 2.402124 1_655
As2 Se7 2.415348 1_555
As2 Se8 2.420463 1_555
As3 Se9 2.402124 1_556
As3 Se0 2.415348 1_555
As3 Se4 2.420463 1_555
