# generated using pymatgen
data_Cs4TaMnAs4
_symmetry_space_group_name_H-M   'P 1'
_cell_length_a   8.92867682
_cell_length_b   8.92867782
_cell_length_c   8.92867677
_cell_angle_alpha   137.10449007
_cell_angle_beta   127.27686178
_cell_angle_gamma   70.22889997
_symmetry_Int_Tables_number   1
_chemical_formula_structural   Cs4TaMnAs4
_chemical_formula_sum   'Cs4 Ta1 Mn1 As4'
_cell_volume   378.14851026
_cell_formula_units_Z   1
loop_
 _symmetry_equiv_pos_site_id
 _symmetry_equiv_pos_as_xyz
  1  'x, y, z'
loop_
 _atom_site_type_symbol
 _atom_site_label
 _atom_site_symmetry_multiplicity
 _atom_site_fract_x
 _atom_site_fract_y
 _atom_site_fract_z
 _atom_site_occupancy
  Cs  Cs0  1  0.00018016  0.14332310  0.83949534  1
  Cs  Cs1  1  0.99981984  0.83931519  0.14314194  1
  Cs  Cs2  1  0.69617324  0.35667690  0.35685806  1
  Cs  Cs3  1  0.30382676  0.66068481  0.66050466  1
  Ta  Ta0  1  0.50000000  0.25000000  0.75000000  1
  Mn  Mn0  1  0.50000000  0.75000000  0.25000000  1
  As  As0  1  0.23881539  0.40109520  0.82459869  1
  As  As1  1  0.76118461  0.58578430  0.16227981  1
  As  As2  1  0.42350349  0.09890480  0.33772019  1
  As  As3  1  0.57649651  0.91421570  0.67540131  1
loop_
_geom_bond_atom_site_label_1
_geom_bond_atom_site_label_2
_geom_bond_distance
_geom_bond_site_symmetry_2
As0 Ta0 2.477617 1_555
As0 Mn0 2.533438 1_556
As0 Cs1 3.653796 1_456
As0 Cs1 3.678457 1_445
As0 Cs0 3.736873 1_555
As0 Cs3 3.843407 1_555
As0 Cs2 3.928865 1_455
As1 Ta0 2.477621 1_554
As1 Mn0 2.533437 1_555
As1 Cs0 3.653795 1_665
As1 Cs0 3.678457 1_654
As1 Cs1 3.736873 1_555
As1 Cs2 3.843423 1_555
As1 Cs3 3.928869 1_655
As2 Ta0 2.477617 1_555
As2 Mn0 2.533438 1_545
As2 Cs3 3.653795 1_544
As2 Cs3 3.678458 1_555
As2 Cs2 3.736874 1_555
As2 Cs1 3.843407 1_445
As2 Cs0 3.928872 1_554
As3 Ta0 2.477625 1_565
As3 Mn0 2.533441 1_555
As3 Cs2 3.653796 1_555
As3 Cs2 3.678457 1_566
As3 Cs3 3.736874 1_555
As3 Cs0 3.843417 1_665
As3 Cs1 3.928862 1_556
