# generated using pymatgen
data_AlGa11W3
_symmetry_space_group_name_H-M   'P 1'
_cell_length_a   9.37216630
_cell_length_b   9.37216676
_cell_length_c   5.22317565
_cell_angle_alpha   86.92896104
_cell_angle_beta   93.07103905
_cell_angle_gamma   32.45311795
_symmetry_Int_Tables_number   1
_chemical_formula_structural   AlGa11W3
_chemical_formula_sum   'Al1 Ga11 W3'
_cell_volume   241.62434830
_cell_formula_units_Z   1
loop_
 _symmetry_equiv_pos_site_id
 _symmetry_equiv_pos_as_xyz
  1  'x, y, z'
loop_
 _atom_site_type_symbol
 _atom_site_label
 _atom_site_symmetry_multiplicity
 _atom_site_fract_x
 _atom_site_fract_y
 _atom_site_fract_z
 _atom_site_occupancy
  Al  Al0  1  0.14854062  0.85145938  0.50151087  1
  Ga  Ga0  1  0.89782989  0.59082057  0.59734886  1
  Ga  Ga1  1  0.40917943  0.10216911  0.59734886  1
  Ga  Ga2  1  0.27374952  0.22370821  0.08449412  1
  Ga  Ga3  1  0.77629179  0.72625048  0.08449412  1
  Ga  Ga4  1  0.92595248  0.30773295  0.21105089  1
  Ga  Ga5  1  0.69226605  0.07404652  0.21105089  1
  Ga  Ga6  1  0.32195835  0.91187016  0.80788276  1
  Ga  Ga7  1  0.08813084  0.67804265  0.80788276  1
  Ga  Ga8  1  0.50042154  0.49957846  0.14584502  1
  Ga  Ga9  1  0.74854056  0.40736383  0.67448272  1
  Ga  Ga10  1  0.59263617  0.25145944  0.67448272  1
  W  W0  1  0.46743501  0.80934409  0.33102273  1
  W  W1  1  0.19065591  0.53256499  0.33102273  1
  W  W2  1  0.98941084  0.01058916  0.98608195  1
loop_
_geom_bond_atom_site_label_1
_geom_bond_atom_site_label_2
_geom_bond_distance
_geom_bond_site_symmetry_2
Al0 Ga7 2.625689 1_555
Al0 Ga6 2.625703 1_555
Al0 W2 2.661223 1_464
Al0 W2 2.812398 1_465
Al0 Ga8 2.856740 1_555
Al0 W0 2.865868 1_555
Al0 W1 2.865868 1_555
Al0 Ga4 2.974971 1_465
Al0 Ga5 2.974983 1_465
Al0 Ga9 3.051922 1_555
Al0 Ga10 3.051922 1_555
Al0 Ga10 3.149444 1_465
Al0 Ga9 3.149444 1_465
Ga0 Ga1 2.626873 1_565
Ga0 Ga1 2.626878 1_655
Ga0 Ga3 2.636831 1_555
Ga0 Ga7 2.721249 1_655
Ga0 W0 2.748065 1_555
Ga0 Ga3 2.756687 1_556
Ga0 W1 2.779680 1_655
Ga0 Ga2 2.892856 1_656
Ga0 Ga9 3.020341 1_555
Ga1 Ga2 2.636831 1_555
Ga1 Ga6 2.721224 1_545
Ga1 W1 2.748073 1_555
Ga1 Ga2 2.756688 1_556
Ga1 W0 2.779672 1_545
Ga1 Ga3 2.892854 1_546
Ga1 Ga10 3.020350 1_555
Ga2 W1 2.710347 1_555
Ga2 W0 2.711320 1_545
Ga2 Ga4 2.763462 1_455
Ga2 Ga5 2.850853 1_555
Ga3 W0 2.710347 1_555
Ga3 W1 2.711319 1_655
Ga3 Ga5 2.763447 1_565
Ga3 Ga4 2.850869 1_555
Ga4 Ga8 2.634624 1_555
Ga4 W2 2.668387 1_554
Ga4 W0 2.702829 1_645
Ga4 W0 2.733123 1_555
Ga4 Ga9 2.747545 1_555
Ga4 Ga9 2.844494 1_554
Ga5 Ga8 2.634638 1_555
Ga5 W2 2.668401 1_554
Ga5 W1 2.702827 1_645
Ga5 W1 2.733120 1_555
Ga6 W2 2.640580 1_465
Ga6 W0 2.712383 1_556
Ga6 W0 2.719420 1_555
Ga7 W2 2.640566 1_465
Ga7 W1 2.712385 1_556
Ga7 W1 2.719423 1_555
Ga8 W2 2.646519 1_464
Ga8 W2 2.841808 1_554
Ga8 W1 2.877097 1_555
Ga8 W0 2.877097 1_555
Ga9 W2 2.522640 1_555
Ga9 W0 2.524119 1_555
Ga10 W2 2.522640 1_555
Ga10 W1 2.524119 1_555
Ga10 Ga5 2.747550 1_555
Ga10 Ga5 2.844498 1_556
