# generated using pymatgen
data_Hf6Cu2CN
_symmetry_space_group_name_H-M   'P 1'
_cell_length_a   5.78443371
_cell_length_b   5.78443185
_cell_length_c   8.75757231
_cell_angle_alpha   90.37859238
_cell_angle_beta   89.62140743
_cell_angle_gamma   146.88984245
_symmetry_Int_Tables_number   1
_chemical_formula_structural   Hf6Cu2CN
_chemical_formula_sum   'Hf6 Cu2 C1 N1'
_cell_volume   160.06146587
_cell_formula_units_Z   1
loop_
 _symmetry_equiv_pos_site_id
 _symmetry_equiv_pos_as_xyz
  1  'x, y, z'
loop_
 _atom_site_type_symbol
 _atom_site_label
 _atom_site_symmetry_multiplicity
 _atom_site_fract_x
 _atom_site_fract_y
 _atom_site_fract_z
 _atom_site_occupancy
  Hf  Hf0  1  0.63106298  0.36893702  0.43998260  1
  Hf  Hf1  1  0.36893702  0.63106298  0.56001740  1
  Hf  Hf2  1  0.62867008  0.37132992  0.05368998  1
  Hf  Hf3  1  0.37132992  0.62867008  0.94631002  1
  Hf  Hf4  1  0.94154096  0.05845904  0.25071528  1
  Hf  Hf5  1  0.05845904  0.94154096  0.74928472  1
  Cu  Cu0  1  0.24962867  0.75037133  0.24534143  1
  Cu  Cu1  1  0.75037133  0.24962867  0.75465857  1
  C  C0  1  0.00000000  0.00000000  0.50000000  1
  N  N0  1  0.00000000  0.00000000  0.00000000  1
loop_
_geom_bond_atom_site_label_1
_geom_bond_atom_site_label_2
_geom_bond_distance
_geom_bond_site_symmetry_2
Hf2 N0 2.232223 1_665
Hf2 N0 2.232224 1_555
Hf3 N0 2.232223 1_556
Hf3 N0 2.232224 1_666
Hf4 N0 2.285069 1_655
Hf5 N0 2.285069 1_566
Cu0 Hf4 2.692446 1_455
Cu0 Hf4 2.692447 1_565
Cu0 Hf0 2.705548 1_565
Cu0 Hf0 2.705549 1_455
Cu0 Hf2 2.713638 1_565
Cu0 Hf2 2.713639 1_455
Cu0 Hf3 2.937805 1_554
Cu0 Hf1 3.065149 1_555
Cu1 Hf5 2.692446 1_655
Cu1 Hf5 2.692447 1_545
Cu1 Hf1 2.705548 1_545
Cu1 Hf1 2.705549 1_655
Cu1 Hf3 2.713638 1_545
Cu1 Hf3 2.713639 1_655
Cu1 Hf2 2.937805 1_556
Cu1 Hf0 3.065149 1_555
C0 Hf1 2.257132 1_555
C0 Hf0 2.257132 1_445
C0 Hf0 2.257133 1_555
C0 Hf1 2.257133 1_445
C0 Hf4 2.281626 1_455
C0 Hf5 2.281626 1_545
