# generated using pymatgen
data_ErInCu
_symmetry_space_group_name_H-M   'P 1'
_cell_length_a   7.36549834
_cell_length_b   7.36549915
_cell_length_c   3.89077664
_cell_angle_alpha   90.00000000
_cell_angle_beta   90.00000000
_cell_angle_gamma   119.99999636
_symmetry_Int_Tables_number   1
_chemical_formula_structural   ErInCu
_chemical_formula_sum   'Er3 In3 Cu3'
_cell_volume   182.79792731
_cell_formula_units_Z   3
loop_
 _symmetry_equiv_pos_site_id
 _symmetry_equiv_pos_as_xyz
  1  'x, y, z'
loop_
 _atom_site_type_symbol
 _atom_site_label
 _atom_site_symmetry_multiplicity
 _atom_site_fract_x
 _atom_site_fract_y
 _atom_site_fract_z
 _atom_site_occupancy
  Er  Er0  1  -0.00000000  0.58967135  0.50000000  1
  Er  Er1  1  0.41032865  0.41032865  0.50000000  1
  Er  Er2  1  0.58967135  -0.00000000  0.50000000  1
  In  In0  1  0.74530650  0.74530650  0.00000000  1
  In  In1  1  -0.00000000  0.25469350  -0.00000000  1
  In  In2  1  0.25469350  -0.00000000  0.00000000  1
  Cu  Cu0  1  0.33333300  0.66666700  0.00000000  1
  Cu  Cu1  1  -0.00000000  -0.00000000  0.50000000  1
  Cu  Cu2  1  0.66666700  0.33333300  -0.00000000  1
loop_
_geom_bond_atom_site_label_1
_geom_bond_atom_site_label_2
_geom_bond_distance
_geom_bond_site_symmetry_2
Er0 In1 3.141974 1_556
Er0 In1 3.141974 1_555
Er0 In0 3.281498 1_456
Er0 In0 3.281498 1_455
Er0 In2 3.281498 1_566
Er0 In2 3.281498 1_565
Er1 In0 3.141974 1_555
Er1 In0 3.141974 1_556
Er1 In1 3.281498 1_555
Er1 In1 3.281498 1_556
Er1 In2 3.281498 1_555
Er1 In2 3.281498 1_556
Er2 In2 3.141974 1_556
Er2 In2 3.141974 1_555
Er2 In1 3.281498 1_656
Er2 In0 3.281498 1_545
Er2 In0 3.281498 1_546
Er2 In1 3.281498 1_655
Cu0 In2 2.790233 1_565
Cu0 In1 2.790238 1_555
Cu0 In0 2.790240 1_555
Cu0 Er0 2.956625 1_555
Cu0 Er0 2.956625 1_554
Cu0 Er2 2.956626 1_564
Cu0 Er2 2.956626 1_565
Cu0 Er1 2.956630 1_554
Cu0 Er1 2.956630 1_555
Cu1 In2 2.702537 1_556
Cu1 In2 2.702537 1_555
Cu1 In1 2.702537 1_556
Cu1 In0 2.702537 1_445
Cu1 In0 2.702537 1_446
Cu1 In1 2.702537 1_555
Cu1 Er2 3.022275 1_455
Cu1 Er0 3.022275 1_545
Cu1 Er1 3.022275 1_555
Cu2 In1 2.790233 1_655
Cu2 In2 2.790238 1_555
Cu2 In0 2.790241 1_555
Cu2 Er2 2.956625 1_555
Cu2 Er2 2.956625 1_554
Cu2 Er0 2.956626 1_655
Cu2 Er0 2.956626 1_654
Cu2 Er1 2.956630 1_555
Cu2 Er1 2.956630 1_554
