# generated using pymatgen
data_CaSb12(RuRh)2
_symmetry_space_group_name_H-M   'P 1'
_cell_length_a   8.09716195
_cell_length_b   8.07479537
_cell_length_c   8.09716192
_cell_angle_alpha   109.48703170
_cell_angle_beta   109.57458649
_cell_angle_gamma   109.46402776
_symmetry_Int_Tables_number   1
_chemical_formula_structural   CaSb12(RuRh)2
_chemical_formula_sum   'Ca1 Sb12 Ru2 Rh2'
_cell_volume   406.98020129
_cell_formula_units_Z   1
loop_
 _symmetry_equiv_pos_site_id
 _symmetry_equiv_pos_as_xyz
  1  'x, y, z'
loop_
 _atom_site_type_symbol
 _atom_site_label
 _atom_site_symmetry_multiplicity
 _atom_site_fract_x
 _atom_site_fract_y
 _atom_site_fract_z
 _atom_site_occupancy
  Ca  Ca0  1  0.00000000  0.00000000  0.00000000  1
  Sb  Sb0  1  0.15782503  0.49606068  0.33823565  1
  Sb  Sb1  1  0.50313201  0.65799071  0.84224792  1
  Sb  Sb2  1  0.33976479  0.84279008  0.18429772  1
  Sb  Sb3  1  0.81574180  0.65799071  0.15485971  1
  Sb  Sb4  1  0.65849335  0.84279008  0.50302429  1
  Sb  Sb5  1  0.18425820  0.34200929  0.84514029  1
  Sb  Sb6  1  0.66023521  0.15720992  0.81570228  1
  Sb  Sb7  1  0.34150665  0.15720992  0.49697571  1
  Sb  Sb8  1  0.49686799  0.34200929  0.15775208  1
  Sb  Sb9  1  0.84217497  0.50393932  0.66176435  1
  Sb  Sb10  1  0.84496055  0.18693241  0.34197086  1
  Sb  Sb11  1  0.15503945  0.81306759  0.65802914  1
  Ru  Ru0  1  0.50000000  0.50000000  0.50000000  1
  Ru  Ru1  1  0.00000000  0.50000000  0.00000000  1
  Rh  Rh0  1  0.50000000  0.00000000  0.00000000  1
  Rh  Rh1  1  0.00000000  0.00000000  0.50000000  1
loop_
_geom_bond_atom_site_label_1
_geom_bond_atom_site_label_2
_geom_bond_distance
_geom_bond_site_symmetry_2
Ca0 Sb0 3.478906 1_555
Ca0 Sb9 3.478906 1_444
Ca0 Sb8 3.499008 1_555
Ca0 Sb1 3.499008 1_444
Ca0 Sb3 3.499017 1_445
Ca0 Sb5 3.499017 1_554
Ca0 Sb2 3.499643 1_545
Ca0 Sb6 3.499643 1_454
Ca0 Sb7 3.499646 1_555
Ca0 Sb4 3.499646 1_444
Ca0 Sb11 3.510726 1_544
Ca0 Sb10 3.510726 1_455
Sb0 Sb10 2.921792 1_455
Sb0 Sb11 2.985514 1_555
Sb1 Sb3 2.919118 1_556
Sb1 Sb5 2.977792 1_555
Sb2 Sb7 2.918852 1_565
Sb2 Sb4 2.976235 1_555
Sb3 Sb8 2.977792 1_555
Sb4 Sb6 2.918852 1_565
Sb5 Sb8 2.919118 1_556
Sb6 Sb7 2.976235 1_555
Sb10 Sb9 2.985514 1_555
Sb11 Sb9 2.921792 1_455
Ru0 Sb9 2.622001 1_555
Ru0 Sb0 2.622001 1_555
Ru0 Sb7 2.622131 1_555
Ru0 Sb4 2.622131 1_555
Ru0 Sb1 2.623071 1_555
Ru0 Sb8 2.623071 1_555
Ru1 Sb0 2.622001 1_555
Ru1 Sb9 2.622001 1_454
Ru1 Sb2 2.622125 1_555
Ru1 Sb6 2.622125 1_454
Ru1 Sb5 2.623082 1_554
Ru1 Sb3 2.623082 1_455
Rh0 Sb10 2.639468 1_555
Rh0 Sb11 2.639468 1_544
Rh0 Sb8 2.640798 1_555
Rh0 Sb1 2.640798 1_544
Rh0 Sb6 2.642992 1_554
Rh0 Sb2 2.642992 1_545
Rh1 Sb11 2.639477 1_545
Rh1 Sb10 2.639477 1_455
Rh1 Sb5 2.640792 1_555
Rh1 Sb3 2.640792 1_445
Rh1 Sb7 2.642980 1_555
Rh1 Sb4 2.642980 1_445
