# generated using pymatgen
data_Zr6Ti5NbSn10
_symmetry_space_group_name_H-M   'P 1'
_cell_length_a   9.57087212
_cell_length_b   9.58041328
_cell_length_c   5.79987575
_cell_angle_alpha   90.21480620
_cell_angle_beta   90.00000000
_cell_angle_gamma   119.96706127
_symmetry_Int_Tables_number   1
_chemical_formula_structural   Zr6Ti5NbSn10
_chemical_formula_sum   'Zr6 Ti5 Nb1 Sn10'
_cell_volume   460.70726887
_cell_formula_units_Z   1
loop_
 _symmetry_equiv_pos_site_id
 _symmetry_equiv_pos_as_xyz
  1  'x, y, z'
loop_
 _atom_site_type_symbol
 _atom_site_label
 _atom_site_symmetry_multiplicity
 _atom_site_fract_x
 _atom_site_fract_y
 _atom_site_fract_z
 _atom_site_occupancy
  Zr  Zr0  1  0.84584929  0.69169958  0.74946649  1
  Zr  Zr1  1  0.15586675  0.84755522  0.25402001  1
  Zr  Zr2  1  0.69168846  0.84755522  0.25402001  1
  Zr  Zr3  1  0.30831154  0.15244478  0.74597999  1
  Zr  Zr4  1  0.84413325  0.15244478  0.74597999  1
  Zr  Zr5  1  0.15415071  0.30830042  0.25053351  1
  Ti  Ti0  1  0.50000000  0.50000000  0.00000000  1
  Ti  Ti1  1  0.00000000  0.50000000  0.00000000  1
  Ti  Ti2  1  0.00000000  0.50000000  0.50000000  1
  Ti  Ti3  1  0.50000000  0.00000000  0.00000000  1
  Ti  Ti4  1  0.50000000  0.50000000  0.50000000  1
  Nb  Nb0  1  0.50000000  0.00000000  0.50000000  1
  Sn  Sn0  1  0.21111364  0.42222729  0.75031016  1
  Sn  Sn1  1  0.79070200  0.21290390  0.24491474  1
  Sn  Sn2  1  0.42220190  0.21290390  0.24491474  1
  Sn  Sn3  1  0.57779810  0.78709610  0.75508526  1
  Sn  Sn4  1  0.20929800  0.78709610  0.75508526  1
  Sn  Sn5  1  0.78888636  0.57777271  0.24968984  1
  Sn  Sn6  1  0.66690446  0.33380792  0.74794917  1
  Sn  Sn7  1  0.33309554  0.66619208  0.25205083  1
  Sn  Sn8  1  0.00000000  0.00000000  0.50000000  1
  Sn  Sn9  1  0.00000000  0.00000000  0.00000000  1
loop_
_geom_bond_atom_site_label_1
_geom_bond_atom_site_label_2
_geom_bond_distance
_geom_bond_site_symmetry_2
Ti0 Ti4 2.899938 1_555
Ti0 Ti4 2.899938 1_554
Ti0 Zr0 3.223023 1_554
Ti0 Zr5 3.223023 1_555
Ti0 Zr2 3.237897 1_555
Ti0 Zr3 3.237897 1_554
Ti1 Ti2 2.899938 1_554
Ti1 Ti2 2.899938 1_555
Ti1 Zr5 3.223030 1_555
Ti1 Zr0 3.223030 1_454
Ti1 Zr1 3.237897 1_555
Ti1 Zr4 3.237897 1_454
Ti2 Zr0 3.214038 1_455
Ti2 Zr5 3.214038 1_555
Ti2 Zr1 3.228181 1_555
Ti2 Zr4 3.228181 1_455
Ti3 Zr2 3.219059 1_545
Ti3 Zr3 3.219059 1_554
Ti3 Zr4 3.219059 1_554
Ti3 Zr1 3.219059 1_545
Ti4 Zr0 3.214031 1_555
Ti4 Zr5 3.214031 1_555
Ti4 Zr2 3.228181 1_555
Ti4 Zr3 3.228181 1_555
Nb0 Ti3 2.899938 1_555
Nb0 Ti3 2.899938 1_556
Nb0 Sn3 2.905772 1_545
Nb0 Sn4 2.905772 1_545
Nb0 Sn2 2.905772 1_555
Nb0 Sn1 2.905772 1_555
Nb0 Sn6 3.115951 1_555
Nb0 Sn7 3.115951 1_545
Nb0 Zr3 3.193017 1_555
Nb0 Zr4 3.193017 1_555
Nb0 Zr2 3.193017 1_545
Nb0 Zr1 3.193017 1_545
Sn0 Ti0 2.868947 1_556
Sn0 Ti1 2.868947 1_556
Sn0 Ti4 2.873585 1_555
Sn0 Ti2 2.873585 1_555
Sn0 Zr5 3.045074 1_555
Sn0 Zr5 3.055318 1_556
Sn0 Zr3 3.154021 1_555
Sn0 Zr4 3.154021 1_455
Sn1 Ti1 2.849692 1_655
Sn1 Ti3 2.868466 1_555
Sn1 Ti2 2.869146 1_655
Sn1 Zr4 3.042072 1_554
Sn1 Zr4 3.057950 1_555
Sn1 Zr5 3.124139 1_655
Sn1 Zr2 3.136863 1_545
Sn2 Ti0 2.849692 1_555
Sn2 Ti3 2.868466 1_555
Sn2 Ti4 2.869146 1_555
Sn2 Zr3 3.042072 1_554
Sn2 Zr3 3.057950 1_555
Sn2 Zr5 3.124130 1_555
Sn2 Zr1 3.136863 1_545
Sn3 Ti0 2.849692 1_556
Sn3 Ti3 2.868466 1_566
Sn3 Ti4 2.869146 1_555
Sn3 Zr2 3.042072 1_556
Sn3 Zr2 3.057950 1_555
Sn3 Zr0 3.124130 1_555
Sn3 Zr4 3.136863 1_565
Sn4 Ti1 2.849692 1_556
Sn4 Ti3 2.868466 1_566
Sn4 Ti2 2.869146 1_555
Sn4 Zr1 3.042072 1_556
Sn4 Zr1 3.057950 1_555
Sn4 Zr0 3.124139 1_455
Sn4 Zr3 3.136863 1_565
Sn5 Ti0 2.868947 1_555
Sn5 Ti1 2.868947 1_655
Sn5 Ti4 2.873585 1_555
Sn5 Ti2 2.873585 1_655
Sn5 Zr0 3.045074 1_555
Sn5 Zr0 3.055318 1_554
Sn5 Zr2 3.154021 1_555
Sn5 Zr1 3.154021 1_655
Sn6 Zr0 2.970345 1_555
Sn6 Zr4 2.973305 1_555
Sn6 Zr3 2.973314 1_555
Sn6 Ti2 3.116547 1_655
Sn6 Ti4 3.116554 1_555
Sn6 Ti1 3.122055 1_656
Sn6 Ti0 3.122063 1_556
Sn6 Ti3 3.138101 1_556
Sn7 Zr5 2.970345 1_555
Sn7 Zr1 2.973305 1_555
Sn7 Zr2 2.973314 1_555
Sn7 Ti2 3.116547 1_555
Sn7 Ti4 3.116554 1_555
Sn7 Ti1 3.122055 1_555
Sn7 Ti0 3.122063 1_555
Sn7 Ti3 3.138101 1_565
Sn8 Zr4 2.924841 1_455
Sn8 Zr3 2.924841 1_555
Sn8 Zr1 2.924841 1_545
Sn8 Zr2 2.924841 1_445
Sn8 Zr5 2.944970 1_555
Sn8 Zr0 2.944970 1_445
Sn9 Zr5 2.937102 1_555
Sn9 Zr0 2.937102 1_444
Sn9 Zr1 2.953249 1_545
Sn9 Zr4 2.953249 1_454
Sn9 Zr3 2.953249 1_554
Sn9 Zr2 2.953249 1_445
