# generated using pymatgen
data_HgRh2(SeO3)4
_symmetry_space_group_name_H-M   'P 1'
_cell_length_a   6.72993517
_cell_length_b   9.27520747
_cell_length_c   8.82565082
_cell_angle_alpha   70.02701903
_cell_angle_beta   98.00697896
_cell_angle_gamma   90.21670235
_symmetry_Int_Tables_number   1
_chemical_formula_structural   HgRh2(SeO3)4
_chemical_formula_sum   'Hg2 Rh4 Se8 O24'
_cell_volume   512.15979027
_cell_formula_units_Z   2
loop_
 _symmetry_equiv_pos_site_id
 _symmetry_equiv_pos_as_xyz
  1  'x, y, z'
loop_
 _atom_site_type_symbol
 _atom_site_label
 _atom_site_symmetry_multiplicity
 _atom_site_fract_x
 _atom_site_fract_y
 _atom_site_fract_z
 _atom_site_occupancy
  Hg  Hg0  1  0.01603904  0.56500904  0.45502937  1
  Hg  Hg1  1  0.01603908  0.06501627  0.95503076  1
  Rh  Rh0  1  0.99918706  0.74782119  0.75145412  1
  Rh  Rh1  1  0.50069409  0.74815524  0.25180796  1
  Rh  Rh2  1  0.99919905  0.24782313  0.25145177  1
  Rh  Rh3  1  0.50069878  0.24815508  0.75180828  1
  Se  Se0  1  0.55059430  0.11351136  0.13727886  1
  Se  Se1  1  0.55058382  0.61350490  0.63728714  1
  Se  Se2  1  0.44959024  0.88116000  0.86831823  1
  Se  Se3  1  0.44962404  0.38116278  0.36832107  1
  Se  Se4  1  0.79682366  0.08866392  0.58007290  1
  Se  Se5  1  0.79682035  0.58864340  0.08008175  1
  Se  Se6  1  0.19706268  0.91531918  0.41740350  1
  Se  Se7  1  0.19707226  0.41532077  0.91740853  1
  O  O0  1  0.69916955  0.72933600  0.71326682  1
  O  O1  1  0.69918324  0.22932795  0.21327831  1
  O  O2  1  0.29955588  0.26758982  0.28887625  1
  O  O3  1  0.29955165  0.76758628  0.78887920  1
  O  O4  1  0.00365027  0.16071501  0.49437990  1
  O  O5  1  0.00363960  0.66070493  0.99437025  1
  O  O6  1  0.99918700  0.82310727  0.50753831  1
  O  O7  1  0.99920777  0.32311114  0.00753923  1
  O  O8  1  0.66110127  0.60880081  0.46906521  1
  O  O9  1  0.66111171  0.10880574  0.96906743  1
  O  O10  1  0.33735283  0.38941932  0.53306843  1
  O  O11  1  0.33734407  0.88941066  0.03307336  1
  O  O12  1  0.92124456  0.95493573  0.76168222  1
  O  O13  1  0.92122677  0.45493431  0.26167299  1
  O  O14  1  0.06613617  0.04064488  0.23667490  1
  O  O15  1  0.06613450  0.54063688  0.73669000  1
  O  O16  1  0.62176534  0.93857246  0.28245179  1
  O  O17  1  0.62174471  0.43856752  0.78245947  1
  O  O18  1  0.37720030  0.05736687  0.72424363  1
  O  O19  1  0.37719155  0.55736298  0.22422852  1
  O  O20  1  0.76004833  0.22551928  0.66657322  1
  O  O21  1  0.76003801  0.72551170  0.16656756  1
  O  O22  1  0.24949007  0.76898420  0.34669818  1
  O  O23  1  0.24949438  0.26898097  0.84669556  1
loop_
_geom_bond_atom_site_label_1
_geom_bond_atom_site_label_2
_geom_bond_distance
_geom_bond_site_symmetry_2
Hg0 O13 2.289893 1_455
Hg0 O15 2.393191 1_555
Hg0 O8 2.451612 1_455
Hg0 O22 2.474288 1_555
Hg0 O10 2.578429 1_555
Hg0 O6 2.594810 1_455
Hg1 O12 2.289851 1_445
Hg1 O14 2.393050 1_556
Hg1 O9 2.451541 1_455
Hg1 O23 2.474255 1_555
Hg1 O11 2.578459 1_546
Hg1 O7 2.594768 1_456
O0 Se1 1.703257 1_555
O0 Rh0 2.016686 1_555
O1 Se0 1.703258 1_555
O1 Rh2 2.016681 1_555
O2 Se3 1.708961 1_555
O2 Rh2 2.020213 1_455
O3 Se2 1.708833 1_555
O3 Rh0 2.020262 1_455
O4 Se4 1.702062 1_455
O4 Rh2 2.012290 1_455
O5 Se5 1.702111 1_456
O5 Rh0 2.012194 1_455
O6 Se6 1.720301 1_655
O6 Rh0 2.023577 1_555
O7 Se7 1.720216 1_654
O7 Rh2 2.023558 1_555
O8 Se1 1.763938 1_555
O8 Rh1 2.062378 1_555
O9 Se0 1.763858 1_556
O9 Rh3 2.062390 1_555
O10 Se3 1.753126 1_555
O10 Rh3 2.084180 1_555
O11 Se2 1.753078 1_554
O11 Rh1 2.084135 1_555
O12 Se4 1.756265 1_565
O12 Rh0 2.028038 1_555
O13 Se5 1.756064 1_555
O13 Rh2 2.028037 1_555
O14 Se6 1.738202 1_545
O14 Rh2 2.026497 1_455
O15 Se7 1.738145 1_555
O15 Rh0 2.026521 1_455
O16 Se0 1.708361 1_565
O16 Rh1 2.027413 1_555
O17 Se1 1.708337 1_555
O17 Rh3 2.027332 1_555
O18 Se2 1.714364 1_545
O18 Rh3 2.026845 1_555
O19 Se3 1.714433 1_555
O19 Rh1 2.026937 1_555
O20 Se4 1.724058 1_555
O20 Rh3 2.032943 1_555
O21 Se5 1.724083 1_555
O21 Rh1 2.032950 1_555
O22 Se6 1.731963 1_555
O22 Rh1 2.025879 1_555
O23 Se7 1.732039 1_555
O23 Rh3 2.025860 1_555
