# generated using pymatgen
data_Al2NiO4
_symmetry_space_group_name_H-M   'P 1'
_cell_length_a   5.75969324
_cell_length_b   5.75969324
_cell_length_c   13.99505714
_cell_angle_alpha   89.89882164
_cell_angle_beta   89.89882164
_cell_angle_gamma   60.13863189
_symmetry_Int_Tables_number   1
_chemical_formula_structural   Al2NiO4
_chemical_formula_sum   'Al12 Ni6 O24'
_cell_volume   402.63182854
_cell_formula_units_Z   6
loop_
 _symmetry_equiv_pos_site_id
 _symmetry_equiv_pos_as_xyz
  1  'x, y, z'
loop_
 _atom_site_type_symbol
 _atom_site_label
 _atom_site_symmetry_multiplicity
 _atom_site_fract_x
 _atom_site_fract_y
 _atom_site_fract_z
 _atom_site_occupancy
  Al  Al0  1  0.83305600  0.32880900  0.16744200  1
  Al  Al1  1  0.99927300  0.99927300  0.00402000  1
  Al  Al2  1  0.00490200  0.00490200  0.37893600  1
  Al  Al3  1  0.32880900  0.83305600  0.16744200  1
  Al  Al4  1  0.50043000  0.00014200  0.49933900  1
  Al  Al5  1  0.67420100  0.67420100  0.70838900  1
  Al  Al6  1  0.00014200  0.50043000  0.49933900  1
  Al  Al7  1  0.32677000  0.32677000  0.28792700  1
  Al  Al8  1  0.17024400  0.66586700  0.83182400  1
  Al  Al9  1  0.66586700  0.17024400  0.83182400  1
  Al  Al10  1  0.99531300  0.99531300  0.62206600  1
  Al  Al11  1  0.66046000  0.66046000  0.95985100  1
  Ni  Ni0  1  0.33465300  0.33465300  0.04166800  1
  Ni  Ni1  1  0.66595300  0.66595300  0.33264400  1
  Ni  Ni2  1  0.83294000  0.83294000  0.16753000  1
  Ni  Ni3  1  0.33441900  0.33441900  0.66662200  1
  Ni  Ni4  1  0.50006100  0.50006100  0.49972100  1
  Ni  Ni5  1  0.16903000  0.16903000  0.83229000  1
  O  O0  1  0.70375200  0.16287300  0.08499300  1
  O  O1  1  0.00614500  0.00614500  0.25015400  1
  O  O2  1  0.16287300  0.70375200  0.08499300  1
  O  O3  1  0.14629700  0.14629700  0.08985800  1
  O  O4  1  0.49957000  0.49957000  0.24199300  1
  O  O5  1  0.34284100  0.84526000  0.42251200  1
  O  O6  1  0.48536400  0.99075400  0.24412500  1
  O  O7  1  0.65731400  0.65731400  0.08874100  1
  O  O8  1  0.84526000  0.34284100  0.42251200  1
  O  O9  1  0.67562600  0.67562600  0.57831900  1
  O  O10  1  0.99075400  0.48536400  0.24412500  1
  O  O11  1  0.83086000  0.83086000  0.42358600  1
  O  O12  1  0.00684400  0.51607800  0.75459400  1
  O  O13  1  0.16914500  0.16914500  0.57743800  1
  O  O14  1  0.15465800  0.65800300  0.57831800  1
  O  O15  1  0.34714700  0.34714700  0.90018400  1
  O  O16  1  0.32493700  0.32493700  0.42025300  1
  O  O17  1  0.51607800  0.00684400  0.75459400  1
  O  O18  1  0.50375800  0.50375800  0.75514800  1
  O  O19  1  0.65800300  0.15465800  0.57831800  1
  O  O20  1  0.84173700  0.84173700  0.91633900  1
  O  O21  1  0.83279100  0.31187200  0.91771100  1
  O  O22  1  0.99247200  0.99247200  0.75458200  1
  O  O23  1  0.31187200  0.83279100  0.91771100  1
loop_
_geom_bond_atom_site_label_1
_geom_bond_atom_site_label_2
_geom_bond_distance
_geom_bond_site_symmetry_2
Al0 O0 1.874904 1_555
Al0 O10 1.900588 1_555
Al0 O3 1.909850 1_655
Al0 O4 1.964844 1_555
Al0 O7 1.976644 1_555
Al0 O1 1.984727 1_655
Al1 O0 1.862548 1_565
Al1 O2 1.862548 1_655
Al1 O3 1.896997 1_665
Al1 O21 1.974181 1_564
Al1 O23 1.974181 1_654
Al1 O20 1.995016 1_554
Al2 O5 1.796092 1_545
Al2 O8 1.796092 1_455
Al2 O1 1.802329 1_555
Al2 O11 1.842939 1_445
Al3 O2 1.874904 1_555
Al3 O6 1.900588 1_555
Al3 O3 1.909850 1_565
Al3 O4 1.964844 1_555
Al3 O7 1.976644 1_555
Al3 O1 1.984727 1_565
Al4 O5 1.894424 1_545
Al4 O19 1.910179 1_555
Al4 O11 1.960961 1_545
Al4 O9 1.962663 1_545
Al4 O16 1.964685 1_555
Al4 O13 1.982382 1_555
Al5 O17 1.784112 1_565
Al5 O12 1.784112 1_655
Al5 O18 1.819575 1_555
Al5 O9 1.820364 1_555
Al6 O8 1.894424 1_455
Al6 O14 1.910179 1_555
Al6 O11 1.960961 1_455
Al6 O9 1.962663 1_455
Al6 O16 1.964685 1_555
Al6 O13 1.982382 1_555
Al7 O6 1.788164 1_545
Al7 O10 1.788164 1_455
Al7 O4 1.837471 1_555
Al7 O16 1.851963 1_555
Al8 O15 1.859570 1_555
Al8 O12 1.900972 1_555
Al8 O23 1.955272 1_555
Al8 O22 1.958151 1_455
Al8 O18 1.980786 1_555
Al8 O20 2.023084 1_455
Al9 O15 1.859570 1_555
Al9 O17 1.900972 1_555
Al9 O21 1.955272 1_555
Al9 O22 1.958151 1_545
Al9 O18 1.980786 1_555
Al9 O20 2.023084 1_545
Al10 O19 1.793958 1_565
Al10 O14 1.793958 1_655
Al10 O13 1.840866 1_665
Al10 O22 1.854727 1_555
Al11 O7 1.804032 1_556
Al11 O23 1.838949 1_555
Al11 O21 1.838949 1_555
Al11 O20 1.905832 1_555
Ni0 O2 1.942649 1_555
Ni0 O0 1.942649 1_555
Ni0 O15 1.983737 1_554
Ni0 O3 1.993888 1_555
Ni1 O10 2.043279 1_555
Ni1 O6 2.043279 1_555
Ni1 O8 2.047981 1_555
Ni1 O5 2.047981 1_555
Ni1 O11 2.081119 1_555
Ni1 O4 2.090300 1_555
Ni2 O2 2.021472 1_655
Ni2 O0 2.021472 1_565
Ni2 O6 2.041283 1_555
Ni2 O10 2.041283 1_555
Ni2 O7 2.071026 1_555
Ni2 O1 2.080080 1_665
Ni3 O19 2.036565 1_555
Ni3 O14 2.036565 1_555
Ni3 O12 2.049591 1_555
Ni3 O17 2.049591 1_555
Ni3 O13 2.069041 1_555
Ni3 O18 2.096033 1_555
Ni4 O8 2.035600 1_555
Ni4 O5 2.035600 1_555
Ni4 O14 2.046677 1_555
Ni4 O19 2.046677 1_555
Ni4 O9 2.069085 1_555
Ni4 O16 2.071894 1_555
Ni5 O15 2.015620 1_555
Ni5 O12 2.046223 1_555
Ni5 O17 2.046223 1_555
Ni5 O21 2.065246 1_455
Ni5 O23 2.065246 1_545
Ni5 O22 2.070886 1_445
