# generated using pymatgen
data_Rb4Ba2HfSb4
_symmetry_space_group_name_H-M   'P 1'
_cell_length_a   11.43690084
_cell_length_b   11.43689952
_cell_length_c   8.65505986
_cell_angle_alpha   88.36284088
_cell_angle_beta   88.36283277
_cell_angle_gamma   119.63523523
_symmetry_Int_Tables_number   1
_chemical_formula_structural   Rb4Ba2HfSb4
_chemical_formula_sum   'Rb8 Ba4 Hf2 Sb8'
_cell_volume   982.42541895
_cell_formula_units_Z   2
loop_
 _symmetry_equiv_pos_site_id
 _symmetry_equiv_pos_as_xyz
  1  'x, y, z'
loop_
 _atom_site_type_symbol
 _atom_site_label
 _atom_site_symmetry_multiplicity
 _atom_site_fract_x
 _atom_site_fract_y
 _atom_site_fract_z
 _atom_site_occupancy
  Rb  Rb0  1  0.47680903  0.94785676  0.38498240  1
  Rb  Rb1  1  0.94785676  0.47680903  0.88498240  1
  Rb  Rb2  1  0.86406721  0.71879687  0.16880259  1
  Rb  Rb3  1  0.26859660  0.12726598  0.23247847  1
  Rb  Rb4  1  0.85325777  0.14134346  0.19551187  1
  Rb  Rb5  1  0.12726598  0.26859660  0.73247847  1
  Rb  Rb6  1  0.71879687  0.86406721  0.66880259  1
  Rb  Rb7  1  0.14134346  0.85325777  0.69551187  1
  Ba  Ba0  1  0.06295801  0.53101982  0.39328850  1
  Ba  Ba1  1  0.47779207  0.52892573  0.37902524  1
  Ba  Ba2  1  0.53101982  0.06295801  0.89328850  1
  Ba  Ba3  1  0.52892573  0.47779207  0.87902524  1
  Hf  Hf0  1  0.66465689  0.33465757  0.49297155  1
  Hf  Hf1  1  0.33465757  0.66465689  0.99297155  1
  Sb  Sb0  1  0.64692464  0.33203495  0.16828125  1
  Sb  Sb1  1  0.33203495  0.64692464  0.66828125  1
  Sb  Sb2  1  0.20820395  0.40144372  0.12582171  1
  Sb  Sb3  1  0.60365449  0.79800951  0.07849288  1
  Sb  Sb4  1  0.20788416  0.80365081  0.09801355  1
  Sb  Sb5  1  0.79800951  0.60365449  0.57849288  1
  Sb  Sb6  1  0.40144372  0.20820395  0.62582171  1
  Sb  Sb7  1  0.80365081  0.20788416  0.59801355  1
loop_
_geom_bond_atom_site_label_1
_geom_bond_atom_site_label_2
_geom_bond_distance
_geom_bond_site_symmetry_2
Rb0 Sb4 3.742024 1_555
Rb0 Sb1 3.774823 1_555
Rb0 Sb3 3.817987 1_555
Rb0 Sb7 3.991252 1_565
Rb0 Sb6 4.091946 1_565
Rb0 Sb0 4.180322 1_565
Rb1 Sb7 3.742024 1_555
Rb1 Sb0 3.774823 1_556
Rb1 Sb5 3.817987 1_555
Rb1 Sb4 3.991252 1_656
Rb1 Sb2 4.091947 1_656
Rb1 Sb1 4.180322 1_655
Rb2 Sb4 3.582435 1_655
Rb2 Sb3 3.614277 1_555
Rb2 Sb5 3.670763 1_555
Rb2 Sb0 3.856368 1_555
Rb3 Sb2 3.629751 1_555
Rb3 Sb4 3.644978 1_545
Rb3 Sb6 3.720224 1_555
Rb3 Sb0 3.779199 1_555
Rb4 Sb7 3.674586 1_555
Rb4 Sb2 3.675237 1_655
Rb4 Sb3 3.728357 1_545
Rb4 Sb0 3.933546 1_555
Rb5 Sb6 3.629751 1_555
Rb5 Sb7 3.644979 1_455
Rb5 Sb2 3.720223 1_556
Rb5 Sb1 3.779198 1_555
Rb6 Sb7 3.582434 1_565
Rb6 Sb5 3.614277 1_555
Rb6 Sb3 3.670763 1_556
Rb6 Sb1 3.856368 1_555
Rb7 Sb4 3.674586 1_556
Rb7 Sb6 3.675236 1_565
Rb7 Sb5 3.728358 1_455
Rb7 Sb1 3.933546 1_555
Ba0 Sb2 3.567274 1_555
Ba0 Sb4 3.632124 1_555
Ba0 Sb1 3.668362 1_555
Ba0 Sb7 3.752244 1_455
Ba0 Sb5 3.837911 1_455
Ba1 Sb2 3.543697 1_555
Ba1 Sb1 3.612100 1_555
Ba1 Sb3 3.640945 1_555
Ba1 Sb5 3.804400 1_555
Ba1 Sb6 3.880464 1_555
Ba1 Sb0 4.059578 1_555
Ba2 Sb6 3.567275 1_555
Ba2 Sb7 3.632124 1_555
Ba2 Sb0 3.668361 1_556
Ba2 Sb4 3.752244 1_546
Ba2 Sb3 3.837911 1_546
Ba3 Sb6 3.543697 1_555
Ba3 Sb0 3.612100 1_556
Ba3 Sb5 3.640945 1_555
Ba3 Sb3 3.804399 1_556
Ba3 Sb2 3.880464 1_556
Ba3 Sb1 4.059579 1_555
Hf0 Sb7 2.782516 1_555
Hf0 Sb6 2.806687 1_555
Hf0 Sb5 2.809468 1_555
Hf0 Sb0 2.823242 1_555
Hf1 Sb4 2.782516 1_556
Hf1 Sb2 2.806686 1_556
Hf1 Sb3 2.809468 1_556
Hf1 Sb1 2.823242 1_555
