# generated using pymatgen
data_Ba3ScBiSe6
_symmetry_space_group_name_H-M   'P 1'
_cell_length_a   8.78666156
_cell_length_b   8.78666090
_cell_length_c   8.78666112
_cell_angle_alpha   91.89033620
_cell_angle_beta   91.89033072
_cell_angle_gamma   91.89032742
_symmetry_Int_Tables_number   1
_chemical_formula_structural   Ba3ScBiSe6
_chemical_formula_sum   'Ba6 Sc2 Bi2 Se12'
_cell_volume   677.24530408
_cell_formula_units_Z   2
loop_
 _symmetry_equiv_pos_site_id
 _symmetry_equiv_pos_as_xyz
  1  'x, y, z'
loop_
 _atom_site_type_symbol
 _atom_site_label
 _atom_site_symmetry_multiplicity
 _atom_site_fract_x
 _atom_site_fract_y
 _atom_site_fract_z
 _atom_site_occupancy
  Ba  Ba0  1  0.37010378  0.75000000  0.12989622  1
  Ba  Ba1  1  0.12989622  0.37010378  0.75000000  1
  Ba  Ba2  1  0.75000000  0.12989622  0.37010378  1
  Ba  Ba3  1  0.62989622  0.25000000  0.87010378  1
  Ba  Ba4  1  0.87010378  0.62989622  0.25000000  1
  Ba  Ba5  1  0.25000000  0.87010378  0.62989622  1
  Sc  Sc0  1  0.50000000  0.50000000  0.50000000  1
  Sc  Sc1  1  0.00000000  0.00000000  0.00000000  1
  Bi  Bi0  1  0.25000000  0.25000000  0.25000000  1
  Bi  Bi1  1  0.75000000  0.75000000  0.75000000  1
  Se  Se0  1  0.54461087  0.41442541  0.20282269  1
  Se  Se1  1  0.20282269  0.54461087  0.41442541  1
  Se  Se2  1  0.41442541  0.20282269  0.54461087  1
  Se  Se3  1  0.95538913  0.29717731  0.08557459  1
  Se  Se4  1  0.08557459  0.95538913  0.29717731  1
  Se  Se5  1  0.29717731  0.08557459  0.95538913  1
  Se  Se6  1  0.45538913  0.58557459  0.79717731  1
  Se  Se7  1  0.79717731  0.45538913  0.58557459  1
  Se  Se8  1  0.58557459  0.79717731  0.45538913  1
  Se  Se9  1  0.04461087  0.70282269  0.91442541  1
  Se  Se10  1  0.70282269  0.91442541  0.04461087  1
  Se  Se11  1  0.91442541  0.04461087  0.70282269  1
loop_
_geom_bond_atom_site_label_1
_geom_bond_atom_site_label_2
_geom_bond_distance
_geom_bond_site_symmetry_2
Ba0 Se6 3.336608 1_554
Ba0 Se10 3.336609 1_555
Ba0 Se8 3.383587 1_555
Ba0 Se9 3.383587 1_554
Ba0 Se0 3.437142 1_555
Ba0 Se5 3.437142 1_564
Ba0 Se4 3.468821 1_555
Ba0 Se1 3.468821 1_555
Ba1 Se9 3.336608 1_555
Ba1 Se7 3.336609 1_455
Ba1 Se11 3.383587 1_455
Ba1 Se6 3.383587 1_555
Ba1 Se3 3.437142 1_456
Ba1 Se1 3.437142 1_555
Ba1 Se2 3.468821 1_555
Ba1 Se5 3.468821 1_555
Ba2 Se11 3.336608 1_555
Ba2 Se8 3.336609 1_545
Ba2 Se7 3.383587 1_555
Ba2 Se10 3.383587 1_545
Ba2 Se4 3.437142 1_645
Ba2 Se2 3.437142 1_555
Ba2 Se0 3.468821 1_555
Ba2 Se3 3.468821 1_555
Ba3 Se0 3.336608 1_556
Ba3 Se5 3.336609 1_555
Ba3 Se2 3.383587 1_555
Ba3 Se3 3.383587 1_556
Ba3 Se6 3.437142 1_555
Ba3 Se10 3.437142 1_546
Ba3 Se11 3.468821 1_555
Ba3 Se7 3.468821 1_555
Ba4 Se3 3.336608 1_555
Ba4 Se1 3.336609 1_655
Ba4 Se4 3.383587 1_655
Ba4 Se0 3.383587 1_555
Ba4 Se9 3.437142 1_654
Ba4 Se7 3.437142 1_555
Ba4 Se8 3.468821 1_555
Ba4 Se10 3.468821 1_555
Ba5 Se4 3.336608 1_555
Ba5 Se2 3.336609 1_565
Ba5 Se1 3.383587 1_555
Ba5 Se5 3.383587 1_565
Ba5 Se11 3.437142 1_465
Ba5 Se8 3.437142 1_555
Ba5 Se6 3.468821 1_555
Ba5 Se9 3.468821 1_555
Sc0 Se6 2.737665 1_555
Sc0 Se0 2.737665 1_555
Sc0 Se8 2.737665 1_555
Sc0 Se2 2.737665 1_555
Sc0 Se7 2.737665 1_555
Sc0 Se1 2.737665 1_555
Sc1 Se3 2.737665 1_455
Sc1 Se9 2.737665 1_544
Sc1 Se4 2.737665 1_545
Sc1 Se11 2.737665 1_454
Sc1 Se5 2.737665 1_554
Sc1 Se10 2.737665 1_445
Bi0 Se1 2.970487 1_555
Bi0 Se5 2.970487 1_554
Bi0 Se2 2.970488 1_555
Bi0 Se4 2.970488 1_545
Bi0 Se3 2.970488 1_455
Bi0 Se0 2.970488 1_555
Bi1 Se7 2.970487 1_555
Bi1 Se10 2.970487 1_556
Bi1 Se8 2.970488 1_555
Bi1 Se11 2.970488 1_565
Bi1 Se9 2.970488 1_655
Bi1 Se6 2.970488 1_555
