# generated using pymatgen
data_NaNO
_symmetry_space_group_name_H-M   'P 1'
_cell_length_a   9.29750800
_cell_length_b   5.14674900
_cell_length_c   6.25666351
_cell_angle_alpha   81.53318146
_cell_angle_beta   90.00000000
_cell_angle_gamma   90.00000000
_symmetry_Int_Tables_number   1
_chemical_formula_structural   NaNO
_chemical_formula_sum   'Na8 N8 O8'
_cell_volume   296.13048655
_cell_formula_units_Z   8
loop_
 _symmetry_equiv_pos_site_id
 _symmetry_equiv_pos_as_xyz
  1  'x, y, z'
loop_
 _atom_site_type_symbol
 _atom_site_label
 _atom_site_symmetry_multiplicity
 _atom_site_fract_x
 _atom_site_fract_y
 _atom_site_fract_z
 _atom_site_occupancy
  Na  Na0  1  0.24948700  0.20996300  0.94009900  1
  Na  Na1  1  0.74948700  0.79003700  0.55990100  1
  Na  Na2  1  0.75051300  0.79003700  0.05990100  1
  Na  Na3  1  0.25051300  0.20996300  0.44009900  1
  Na  Na4  1  0.93617200  0.31723500  0.78233300  1
  Na  Na5  1  0.43617200  0.68276500  0.71766700  1
  Na  Na6  1  0.06382800  0.68276500  0.21766700  1
  Na  Na7  1  0.56382800  0.31723500  0.28233300  1
  N  N0  1  0.67051800  0.22105200  0.83596100  1
  N  N1  1  0.92915600  0.09956400  0.24908900  1
  N  N2  1  0.42915600  0.90043600  0.25091100  1
  N  N3  1  0.07084400  0.90043600  0.75091100  1
  N  N4  1  0.82948200  0.22105200  0.33596100  1
  N  N5  1  0.32948200  0.77894800  0.16403900  1
  N  N6  1  0.17051800  0.77894800  0.66403900  1
  N  N7  1  0.57084400  0.09956400  0.74908900  1
  O  O0  1  0.84837700  0.47687100  0.35607600  1
  O  O1  1  0.65162300  0.47687100  0.85607600  1
  O  O2  1  0.15162300  0.52312900  0.64392400  1
  O  O3  1  0.34837700  0.52312900  0.14392400  1
  O  O4  1  0.44915400  0.23087800  0.67999500  1
  O  O5  1  0.94915400  0.76912200  0.82000500  1
  O  O6  1  0.55084600  0.76912200  0.32000500  1
  O  O7  1  0.05084600  0.23087800  0.17999500  1
loop_
_geom_bond_atom_site_label_1
_geom_bond_atom_site_label_2
_geom_bond_distance
_geom_bond_site_symmetry_2
Na0 O3 2.382181 1_556
Na0 O7 2.392264 1_556
Na0 O2 2.445424 1_555
Na0 O4 2.460614 1_555
Na1 O0 2.382181 1_555
Na1 O6 2.392264 1_555
Na1 O1 2.445424 1_555
Na1 O5 2.460614 1_555
Na2 O1 2.382181 1_554
Na2 O5 2.392264 1_554
Na2 O0 2.445424 1_555
Na2 O6 2.460614 1_555
Na3 O2 2.382181 1_555
Na3 O4 2.392264 1_555
Na3 O3 2.445424 1_555
Na3 O7 2.460614 1_555
Na4 O2 2.369655 1_655
Na4 O5 2.375007 1_555
Na4 O7 2.683092 1_656
Na4 O0 2.794405 1_555
Na4 O5 2.798636 1_545
Na5 O1 2.369655 1_555
Na5 O4 2.375007 1_555
Na5 O6 2.683092 1_555
Na5 O3 2.794405 1_556
Na5 O4 2.798636 1_565
Na6 O0 2.369655 1_455
Na6 O7 2.375007 1_555
Na6 O5 2.683092 1_454
Na6 O2 2.794405 1_555
Na6 O7 2.798636 1_565
Na7 O3 2.369655 1_555
Na7 O6 2.375007 1_555
Na7 O4 2.683092 1_555
Na7 O1 2.794405 1_554
Na7 O6 2.798636 1_545
N0 N7 1.282681 1_555
N0 O1 1.352415 1_555
N0 Na4 2.531646 1_555
N0 Na2 2.553822 1_546
N1 N4 1.282681 1_555
N1 O7 1.355619 1_655
N1 Na6 2.516414 1_645
N1 Na2 2.693127 1_545
N2 N5 1.282681 1_555
N2 O6 1.355619 1_555
N2 Na7 2.516414 1_565
N2 Na3 2.693127 1_565
N3 N6 1.282681 1_555
N3 O5 1.355619 1_455
N3 Na4 2.516414 1_465
N3 Na0 2.693127 1_565
N4 O0 1.352415 1_555
N4 Na7 2.531646 1_555
N4 Na1 2.553822 1_545
N5 O3 1.352415 1_555
N5 Na6 2.531646 1_555
N5 Na0 2.553822 1_564
N6 O2 1.352415 1_555
N6 Na5 2.531646 1_555
N6 Na3 2.553822 1_565
N7 O4 1.355619 1_555
N7 Na5 2.516414 1_545
N7 Na1 2.693127 1_545
