# generated using pymatgen
data_Sr4H12PdPt
_symmetry_space_group_name_H-M   'P 1'
_cell_length_a   7.48845697
_cell_length_b   7.48845728
_cell_length_c   5.57410814
_cell_angle_alpha   90.10312113
_cell_angle_beta   90.10311517
_cell_angle_gamma   136.24070673
_symmetry_Int_Tables_number   1
_chemical_formula_structural   Sr4H12PdPt
_chemical_formula_sum   'Sr4 H12 Pd1 Pt1'
_cell_volume   216.18670233
_cell_formula_units_Z   1
loop_
 _symmetry_equiv_pos_site_id
 _symmetry_equiv_pos_as_xyz
  1  'x, y, z'
loop_
 _atom_site_type_symbol
 _atom_site_label
 _atom_site_symmetry_multiplicity
 _atom_site_fract_x
 _atom_site_fract_y
 _atom_site_fract_z
 _atom_site_occupancy
  Sr  Sr0  1  0.64706528  0.35293472  1.00000000  1
  Sr  Sr1  1  0.35293472  0.64706528  0.00000000  1
  Sr  Sr2  1  0.85427616  0.14572384  0.50000000  1
  Sr  Sr3  1  0.14572384  0.85427616  0.50000000  1
  H  H0  1  0.88058433  0.11941567  0.00000000  1
  H  H1  1  0.11941567  0.88058433  1.00000000  1
  H  H2  1  0.61903588  0.38096412  0.50000000  1
  H  H3  1  0.38096412  0.61903588  0.50000000  1
  H  H4  1  0.00077399  0.50070258  0.25201734  1
  H  H5  1  0.99922601  0.49929742  0.74798266  1
  H  H6  1  0.49929742  0.99922601  0.74798266  1
  H  H7  1  0.50070258  0.00077399  0.25201734  1
  H  H8  1  0.21779272  0.21779272  0.21954578  1
  H  H9  1  0.78220728  0.78220728  0.78045422  1
  H  H10  1  0.28904503  0.28904503  0.71447290  1
  H  H11  1  0.71095497  0.71095497  0.28552710  1
  Pd  Pd0  1  0.00000000  0.00000000  0.00000000  1
  Pt  Pt0  1  0.50000000  0.50000000  0.50000000  1
loop_
_geom_bond_atom_site_label_1
_geom_bond_atom_site_label_2
_geom_bond_distance
_geom_bond_site_symmetry_2
H0 Pd0 1.659652 1_655
H0 Sr2 2.810935 1_555
H0 Sr2 2.810936 1_554
H0 Sr1 2.816968 1_545
H0 Sr1 2.816968 1_655
H1 Pd0 1.659652 1_566
H1 Sr3 2.810935 1_555
H1 Sr3 2.810936 1_556
H1 Sr0 2.816968 1_565
H1 Sr0 2.816968 1_455
H2 Pt0 1.654373 1_555
H2 Sr0 2.814147 1_554
H2 Sr0 2.814147 1_555
H2 Sr3 2.815176 1_655
H2 Sr3 2.815176 1_545
H3 Pt0 1.654373 1_555
H3 Sr1 2.814147 1_556
H3 Sr1 2.814147 1_555
H3 Sr2 2.815176 1_455
H3 Sr2 2.815176 1_565
H4 Sr3 2.435015 1_555
H4 Sr0 2.441486 1_454
H4 Sr1 2.443947 1_555
H4 Sr2 2.446769 1_455
H5 Sr2 2.435015 1_555
H5 Sr1 2.441486 1_656
H5 Sr0 2.443947 1_555
H5 Sr3 2.446769 1_655
H6 Sr3 2.435015 1_555
H6 Sr0 2.441486 1_565
H6 Sr1 2.443948 1_556
H6 Sr2 2.446769 1_565
H7 Sr2 2.435015 1_555
H7 Sr1 2.441486 1_545
H7 Sr0 2.443948 1_554
H7 Sr3 2.446769 1_545
H8 Pd0 1.720708 1_555
H8 Pt0 2.213804 1_555
H8 Sr2 2.835767 1_455
H8 Sr3 2.835767 1_545
H8 Sr0 2.859151 1_554
H8 Sr1 2.859151 1_555
H9 Pd0 1.720708 1_666
H9 Pt0 2.213804 1_555
H9 Sr3 2.835767 1_655
H9 Sr2 2.835767 1_565
H9 Sr1 2.859151 1_556
H9 Sr0 2.859151 1_555
H10 Pt0 1.681983 1_555
H10 Pd0 2.271651 1_556
H10 Sr1 2.842335 1_556
H10 Sr0 2.842335 1_555
H10 Sr2 2.848666 1_455
H10 Sr3 2.848666 1_545
H11 Pt0 1.681983 1_555
H11 Pd0 2.271651 1_665
H11 Sr0 2.842335 1_554
H11 Sr1 2.842335 1_555
H11 Sr3 2.848666 1_655
H11 Sr2 2.848666 1_565
