# generated using pymatgen
data_Lu10Zn3Bi2Pt
_symmetry_space_group_name_H-M   'P 1'
_cell_length_a   8.41527208
_cell_length_b   8.41527372
_cell_length_c   8.44770508
_cell_angle_alpha   124.36757386
_cell_angle_beta   124.36757855
_cell_angle_gamma   82.33672070
_symmetry_Int_Tables_number   1
_chemical_formula_structural   Lu10Zn3Bi2Pt
_chemical_formula_sum   'Lu10 Zn3 Bi2 Pt1'
_cell_volume   392.23919691
_cell_formula_units_Z   1
loop_
 _symmetry_equiv_pos_site_id
 _symmetry_equiv_pos_as_xyz
  1  'x, y, z'
loop_
 _atom_site_type_symbol
 _atom_site_label
 _atom_site_symmetry_multiplicity
 _atom_site_fract_x
 _atom_site_fract_y
 _atom_site_fract_z
 _atom_site_occupancy
  Lu  Lu0  1  0.00458962  0.00163421  0.00622384  1
  Lu  Lu1  1  0.49836579  0.49541038  0.99377616  1
  Lu  Lu2  1  0.78673340  0.29400547  0.80020850  1
  Lu  Lu3  1  0.20599453  0.71326660  0.19979150  1
  Lu  Lu4  1  0.48652490  0.99379697  0.19979150  1
  Lu  Lu5  1  0.29862651  0.47680409  0.50000000  1
  Lu  Lu6  1  0.02319591  0.20137349  0.50000000  1
  Lu  Lu7  1  0.50620303  0.01347510  0.80020850  1
  Lu  Lu8  1  0.70774572  0.51424137  0.50000000  1
  Lu  Lu9  1  0.98575863  0.79225428  0.50000000  1
  Zn  Zn0  1  0.13730943  0.63985636  0.77716679  1
  Zn  Zn1  1  0.86014364  0.36269057  0.22283321  1
  Zn  Zn2  1  0.63853344  0.86146656  0.50000000  1
  Bi  Bi0  1  0.24648232  0.25351768  0.00000000  1
  Bi  Bi1  1  0.74648232  0.75351768  0.00000000  1
  Pt  Pt0  1  0.36731081  0.13268919  0.50000000  1
loop_
_geom_bond_atom_site_label_1
_geom_bond_atom_site_label_2
_geom_bond_distance
_geom_bond_site_symmetry_2
Lu0 Zn0 3.023654 1_544
Lu0 Pt0 3.043376 1_555
Lu0 Zn1 3.050723 1_455
Lu0 Zn2 3.093509 1_444
Lu0 Lu6 3.415606 1_555
Lu0 Lu5 3.415606 1_555
Lu0 Lu4 3.418981 1_545
Lu0 Lu3 3.418982 1_545
Lu0 Lu9 3.495697 1_444
Lu0 Lu8 3.495697 1_444
Lu0 Lu7 3.531640 1_454
Lu0 Lu2 3.531640 1_454
Lu1 Zn1 3.023653 1_556
Lu1 Pt0 3.043376 1_555
Lu1 Zn0 3.050723 1_555
Lu1 Zn2 3.093509 1_556
Lu1 Lu6 3.415606 1_555
Lu1 Lu5 3.415606 1_555
Lu1 Lu2 3.418981 1_555
Lu1 Lu7 3.418982 1_555
Lu1 Lu9 3.495697 1_556
Lu1 Lu8 3.495697 1_556
Lu1 Lu3 3.531640 1_556
Lu1 Lu4 3.531640 1_556
Lu2 Pt0 2.831496 1_555
Lu2 Zn2 2.907583 1_545
Lu2 Zn1 2.955922 1_556
Lu2 Lu8 3.658303 1_555
Lu2 Lu6 3.748451 1_655
Lu3 Pt0 2.831497 1_565
Lu3 Zn2 2.907583 1_555
Lu3 Zn0 2.955922 1_554
Lu3 Lu9 3.658303 1_455
Lu3 Lu5 3.748451 1_555
Lu4 Pt0 2.831497 1_565
Lu4 Zn2 2.907583 1_555
Lu4 Zn0 2.955930 1_554
Lu4 Lu8 3.658303 1_565
Lu4 Lu6 3.748450 1_665
Lu5 Pt0 2.876362 1_555
Lu5 Zn1 2.944902 1_455
Lu5 Zn0 2.944910 1_555
Lu5 Lu9 3.480640 1_455
Lu5 Lu6 3.489616 1_555
Lu5 Lu8 3.498821 1_555
Lu5 Lu7 3.748451 1_565
Lu6 Pt0 2.876362 1_555
Lu6 Zn0 2.944903 1_555
Lu6 Zn1 2.944910 1_455
Lu6 Lu8 3.480640 1_455
Lu6 Lu9 3.498821 1_445
Lu7 Pt0 2.831497 1_555
Lu7 Zn2 2.907583 1_545
Lu7 Zn1 2.955930 1_556
Lu7 Lu9 3.658302 1_445
Lu8 Zn0 2.887226 1_655
Lu8 Zn1 2.887234 1_555
Lu8 Zn2 2.902308 1_555
Lu8 Lu9 3.522333 1_555
Lu9 Zn1 2.887226 1_555
Lu9 Zn0 2.887234 1_655
Lu9 Zn2 2.902308 1_555
Zn0 Zn1 3.098004 1_455
Bi0 Lu1 3.168093 1_554
Bi0 Lu0 3.168093 1_555
Bi0 Lu6 3.275822 1_554
Bi0 Lu5 3.275823 1_555
Bi0 Lu7 3.293036 1_554
Bi0 Lu4 3.293036 1_545
Bi0 Lu2 3.295241 1_454
Bi0 Lu3 3.295242 1_555
Bi0 Lu8 3.319643 1_555
Bi0 Lu9 3.319644 1_444
Bi1 Lu0 3.168093 1_665
Bi1 Lu1 3.168093 1_554
Bi1 Lu5 3.275822 1_554
Bi1 Lu6 3.275823 1_665
Bi1 Lu3 3.293036 1_655
Bi1 Lu2 3.293037 1_554
Bi1 Lu4 3.295241 1_555
Bi1 Lu7 3.295241 1_564
Bi1 Lu9 3.319644 1_555
Bi1 Lu8 3.319644 1_554
Pt0 Zn2 3.004905 1_545
