# generated using pymatgen
data_Zr6Al16Ir2Pt5
_symmetry_space_group_name_H-M   'P 1'
_cell_length_a   8.71528756
_cell_length_b   8.71911846
_cell_length_c   8.71911784
_cell_angle_alpha   59.85681678
_cell_angle_beta   60.01453131
_cell_angle_gamma   60.01453702
_symmetry_Int_Tables_number   1
_chemical_formula_structural   Zr6Al16Ir2Pt5
_chemical_formula_sum   'Zr6 Al16 Ir2 Pt5'
_cell_volume   468.09592180
_cell_formula_units_Z   1
loop_
 _symmetry_equiv_pos_site_id
 _symmetry_equiv_pos_as_xyz
  1  'x, y, z'
loop_
 _atom_site_type_symbol
 _atom_site_label
 _atom_site_symmetry_multiplicity
 _atom_site_fract_x
 _atom_site_fract_y
 _atom_site_fract_z
 _atom_site_occupancy
  Zr  Zr0  1  0.68671582  0.68525132  0.31474868  1
  Zr  Zr1  1  0.31328418  0.68525132  0.31474868  1
  Zr  Zr2  1  0.68902169  0.31097831  0.31097831  1
  Zr  Zr3  1  0.31328418  0.31474868  0.68525132  1
  Zr  Zr4  1  0.68671582  0.31474868  0.68525132  1
  Zr  Zr5  1  0.31097831  0.68902169  0.68902169  1
  Al  Al0  1  0.88360031  0.87527204  0.35752834  1
  Al  Al1  1  0.88360031  0.35752834  0.87527204  1
  Al  Al2  1  0.35614582  0.88109702  0.88109702  1
  Al  Al3  1  0.88166014  0.88109702  0.88109702  1
  Al  Al4  1  0.11639969  0.12472796  0.64247166  1
  Al  Al5  1  0.11639969  0.64247166  0.12472796  1
  Al  Al6  1  0.64385418  0.11890298  0.11890298  1
  Al  Al7  1  0.11833986  0.11890298  0.11890298  1
  Al  Al8  1  0.66577611  0.66517546  0.00327031  1
  Al  Al9  1  0.66577611  0.00327031  0.66517546  1
  Al  Al10  1  0.00359239  0.66458370  0.66458370  1
  Al  Al11  1  0.66723821  0.66458370  0.66458370  1
  Al  Al12  1  0.33422389  0.33482454  0.99672969  1
  Al  Al13  1  0.33422389  0.99672969  0.33482454  1
  Al  Al14  1  0.99640761  0.33541630  0.33541630  1
  Al  Al15  1  0.33276179  0.33541630  0.33541630  1
  Ir  Ir0  1  0.00000000  0.00000000  0.00000000  1
  Ir  Ir1  1  0.00000000  0.50000000  0.50000000  1
  Pt  Pt0  1  0.00000000  0.00000000  0.50000000  1
  Pt  Pt1  1  0.50000000  0.00000000  0.50000000  1
  Pt  Pt2  1  0.50000000  0.50000000  0.00000000  1
  Pt  Pt3  1  0.00000000  0.50000000  0.00000000  1
  Pt  Pt4  1  0.50000000  0.00000000  0.00000000  1
loop_
_geom_bond_atom_site_label_1
_geom_bond_atom_site_label_2
_geom_bond_distance
_geom_bond_site_symmetry_2
Zr0 Zr4 3.223462 1_555
Zr0 Zr1 3.254564 1_555
Zr0 Zr5 3.269915 1_555
Zr0 Zr2 3.269915 1_555
Zr1 Zr3 3.223462 1_555
Zr1 Zr5 3.269915 1_555
Zr1 Zr2 3.269915 1_555
Zr2 Zr4 3.269915 1_555
Zr2 Zr3 3.269915 1_555
Zr3 Zr4 3.254564 1_555
Zr3 Zr5 3.269915 1_555
Zr4 Zr5 3.269915 1_555
Al0 Ir0 2.542932 1_665
Al0 Ir1 2.671713 1_655
Al0 Pt0 2.733884 1_665
Al0 Pt1 2.733891 1_565
Al0 Zr1 3.151277 1_655
Al0 Zr0 3.151284 1_555
Al0 Zr2 3.189453 1_565
Al1 Ir0 2.542932 1_656
Al1 Ir1 2.671713 1_655
Al1 Pt3 2.733884 1_656
Al1 Pt2 2.733891 1_556
Al1 Zr3 3.151277 1_655
Al1 Zr4 3.151284 1_555
Al1 Zr2 3.189453 1_556
Al2 Ir0 2.535812 1_566
Al2 Pt1 2.713517 1_565
Al2 Pt2 2.713518 1_556
Al2 Pt4 2.720170 1_566
Al2 Zr5 3.146292 1_555
Al2 Zr1 3.176977 1_556
Al2 Zr3 3.176978 1_565
Al3 Ir0 2.535812 1_666
Al3 Pt0 2.713517 1_665
Al3 Pt3 2.713518 1_656
Al3 Pt4 2.720170 1_566
Al3 Zr5 3.146292 1_655
Al3 Zr0 3.176977 1_556
Al3 Zr4 3.176978 1_565
Al4 Ir0 2.542932 1_556
Al4 Ir1 2.671713 1_555
Al4 Pt0 2.733884 1_555
Al4 Pt1 2.733891 1_555
Al4 Zr4 3.151277 1_455
Al4 Zr3 3.151284 1_555
Al4 Zr5 3.189453 1_545
Al5 Ir0 2.542932 1_565
Al5 Ir1 2.671713 1_555
Al5 Pt3 2.733884 1_555
Al5 Pt2 2.733891 1_555
Al5 Zr0 3.151277 1_455
Al5 Zr1 3.151284 1_555
Al5 Zr5 3.189453 1_554
Al6 Ir0 2.535812 1_655
Al6 Pt1 2.713517 1_555
Al6 Pt2 2.713518 1_555
Al6 Pt4 2.720170 1_555
Al6 Zr2 3.146292 1_555
Al6 Zr4 3.176977 1_554
Al6 Zr0 3.176978 1_545
Al7 Ir0 2.535812 1_555
Al7 Pt0 2.713517 1_555
Al7 Pt3 2.713518 1_555
Al7 Pt4 2.720170 1_555
Al7 Zr2 3.146292 1_455
Al7 Zr3 3.176977 1_554
Al7 Zr1 3.176978 1_545
Al8 Pt2 2.514880 1_555
Al8 Pt3 2.514895 1_655
Al8 Pt4 2.520422 1_565
Al8 Zr2 2.893635 1_555
Al8 Zr1 2.905913 1_555
Al8 Zr0 2.905922 1_555
Al9 Pt1 2.514880 1_555
Al9 Pt0 2.514895 1_655
Al9 Pt4 2.520421 1_556
Al9 Zr2 2.893635 1_555
Al9 Zr3 2.905913 1_555
Al9 Zr4 2.905923 1_555
Al10 Ir1 2.505513 1_555
Al10 Pt3 2.520244 1_556
Al10 Pt0 2.520244 1_565
Al10 Zr1 2.885541 1_555
Al10 Zr3 2.885541 1_555
Al10 Zr5 2.907639 1_555
Al11 Ir1 2.505523 1_655
Al11 Pt2 2.520239 1_556
Al11 Pt1 2.520240 1_565
Al11 Zr0 2.885533 1_555
Al11 Zr4 2.885534 1_555
Al11 Zr5 2.907621 1_555
Al12 Pt2 2.514880 1_556
Al12 Pt3 2.514895 1_556
Al12 Pt4 2.520422 1_556
Al12 Zr5 2.893635 1_555
Al12 Zr4 2.905913 1_555
Al12 Zr3 2.905922 1_555
Al13 Pt1 2.514880 1_565
Al13 Pt0 2.514895 1_565
Al13 Pt4 2.520421 1_565
Al13 Zr5 2.893635 1_555
Al13 Zr0 2.905913 1_555
Al13 Zr1 2.905923 1_555
Al14 Ir1 2.505513 1_655
Al14 Pt3 2.520244 1_655
Al14 Pt0 2.520244 1_655
Al14 Zr4 2.885541 1_555
Al14 Zr0 2.885541 1_555
Al14 Zr2 2.907639 1_555
Al15 Ir1 2.505523 1_555
Al15 Pt2 2.520239 1_555
Al15 Pt1 2.520240 1_555
Al15 Zr3 2.885533 1_555
Al15 Zr1 2.885534 1_555
Al15 Zr2 2.907621 1_555
Ir1 Zr1 3.170576 1_555
Ir1 Zr4 3.170576 1_455
Ir1 Zr3 3.170576 1_555
Ir1 Zr0 3.170576 1_455
Pt0 Zr5 3.169383 1_545
Pt0 Zr2 3.169383 1_455
Pt0 Zr4 3.185772 1_455
Pt0 Zr1 3.185772 1_545
Pt1 Zr2 3.169382 1_555
Pt1 Zr5 3.169382 1_545
Pt1 Zr3 3.185771 1_555
Pt1 Zr0 3.185771 1_545
Pt2 Zr2 3.169382 1_555
Pt2 Zr5 3.169382 1_554
Pt2 Zr1 3.185771 1_555
Pt2 Zr4 3.185771 1_554
Pt3 Zr5 3.169382 1_554
Pt3 Zr2 3.169382 1_455
Pt3 Zr0 3.185771 1_455
Pt3 Zr3 3.185771 1_554
Pt4 Zr4 3.185408 1_554
Pt4 Zr1 3.185408 1_545
Pt4 Zr0 3.185408 1_545
Pt4 Zr3 3.185408 1_554
