# generated using pymatgen
data_BaAl3Zn
_symmetry_space_group_name_H-M   'P 1'
_cell_length_a   6.55485631
_cell_length_b   6.55485686
_cell_length_c   6.55485609
_cell_angle_alpha   140.32347692
_cell_angle_beta   140.32348147
_cell_angle_gamma   57.36246594
_symmetry_Int_Tables_number   1
_chemical_formula_structural   BaAl3Zn
_chemical_formula_sum   'Ba1 Al3 Zn1'
_cell_volume   113.82466148
_cell_formula_units_Z   1
loop_
 _symmetry_equiv_pos_site_id
 _symmetry_equiv_pos_as_xyz
  1  'x, y, z'
loop_
 _atom_site_type_symbol
 _atom_site_label
 _atom_site_symmetry_multiplicity
 _atom_site_fract_x
 _atom_site_fract_y
 _atom_site_fract_z
 _atom_site_occupancy
  Ba  Ba0  1  0.00588258  0.00588258  0.00000000  1
  Al  Al0  1  0.38956736  0.38956736  0.00000000  1
  Al  Al1  1  0.25217823  0.75217823  0.50000000  1
  Al  Al2  1  0.75217823  0.25217823  0.50000000  1
  Zn  Zn0  1  0.62419359  0.62419359  1.00000000  1
loop_
_geom_bond_atom_site_label_1
_geom_bond_atom_site_label_2
_geom_bond_distance
_geom_bond_site_symmetry_2
Ba0 Zn0 3.427582 1_443
Ba0 Zn0 3.427582 1_544
Ba0 Zn0 3.427582 1_454
Ba0 Zn0 3.427583 1_555
Al0 Zn0 2.698482 1_554
Al0 Al2 2.728594 1_555
Al0 Al1 2.728594 1_555
Al0 Al2 2.728594 1_454
Al0 Al1 2.728594 1_544
Al0 Ba0 3.418535 1_554
Al0 Ba0 3.418535 1_655
Al0 Ba0 3.418535 1_565
Al0 Ba0 3.418535 1_666
Al1 Zn0 2.667414 1_555
Al1 Zn0 2.667414 1_454
Al1 Ba0 3.601741 1_566
Al1 Ba0 3.601742 1_555
Al1 Ba0 3.669134 1_565
Al1 Ba0 3.669134 1_666
Al2 Zn0 2.667414 1_555
Al2 Zn0 2.667415 1_544
Al2 Ba0 3.601741 1_656
Al2 Ba0 3.601742 1_555
Al2 Ba0 3.669134 1_655
Al2 Ba0 3.669134 1_666
