# generated using pymatgen
data_Cd3InP6N13
_symmetry_space_group_name_H-M   'P 1'
_cell_length_a   7.17334079
_cell_length_b   7.21680525
_cell_length_c   7.21680531
_cell_angle_alpha   109.59290148
_cell_angle_beta   109.34927238
_cell_angle_gamma   109.34927062
_symmetry_Int_Tables_number   1
_chemical_formula_structural   Cd3InP6N13
_chemical_formula_sum   'Cd3 In1 P6 N13'
_cell_volume   288.03211682
_cell_formula_units_Z   1
loop_
 _symmetry_equiv_pos_site_id
 _symmetry_equiv_pos_as_xyz
  1  'x, y, z'
loop_
 _atom_site_type_symbol
 _atom_site_label
 _atom_site_symmetry_multiplicity
 _atom_site_fract_x
 _atom_site_fract_y
 _atom_site_fract_z
 _atom_site_occupancy
  Cd  Cd0  1  0.99807179  1.00000000  0.70743484  1
  Cd  Cd1  1  0.99807179  0.70743484  1.00000000  1
  Cd  Cd2  1  0.29063695  0.29256516  0.29256516  1
  In  In0  1  0.68933378  0.00000000  0.00000000  1
  P  P0  1  0.25123294  0.74839171  0.49901502  1
  P  P1  1  0.75221792  0.24937669  0.50098498  1
  P  P2  1  0.75221792  0.50098498  0.24937669  1
  P  P3  1  0.25123294  0.49901502  0.74839171  1
  P  P4  1  0.50284123  0.75062331  0.25160829  1
  P  P5  1  0.50284123  0.25160829  0.75062331  1
  N  N0  1  0.97818995  1.00000000  1.00000000  1
  N  N1  1  0.71553389  0.27526770  0.27526770  1
  N  N2  1  0.28074182  0.71743920  0.27926755  1
  N  N3  1  0.29438109  0.56856621  0.56856621  1
  N  N4  1  0.56330162  0.56182835  0.28256080  1
  N  N5  1  0.44026619  0.72473230  1.00000000  1
  N  N6  1  0.00147327  0.72073245  0.43817165  1
  N  N7  1  0.56330162  0.28256080  0.56182835  1
  N  N8  1  0.72581388  1.00000000  0.43143379  1
  N  N9  1  0.44026619  1.00000000  0.72473230  1
  N  N10  1  0.72581388  0.43143379  1.00000000  1
  N  N11  1  0.28074182  0.27926755  0.71743920  1
  N  N12  1  0.00147327  0.43817165  0.72073245  1
loop_
_geom_bond_atom_site_label_1
_geom_bond_atom_site_label_2
_geom_bond_distance
_geom_bond_site_symmetry_2
Cd0 N0 2.162829 1_555
Cd0 N8 2.281204 1_555
Cd0 N6 2.296956 1_655
Cd0 N11 2.296960 1_665
Cd1 N0 2.162829 1_555
Cd1 N10 2.281204 1_555
Cd1 N12 2.296956 1_655
Cd1 N2 2.296960 1_656
Cd2 N0 2.162829 1_444
Cd2 N3 2.281200 1_555
Cd2 N7 2.296956 1_555
Cd2 N4 2.296956 1_555
In0 N0 2.072064 1_544
In0 N9 2.187823 1_544
In0 N5 2.187823 1_544
In0 N1 2.187824 1_555
N1 P2 1.646307 1_555
N1 P1 1.646307 1_555
N2 P4 1.620319 1_555
N2 P0 1.620463 1_555
N3 P0 1.622355 1_555
N3 P3 1.622355 1_555
N4 P2 1.620326 1_555
N4 P4 1.620459 1_555
N5 P3 1.646307 1_555
N5 P4 1.646307 1_556
N6 P0 1.620326 1_555
N6 P2 1.620459 1_455
N7 P1 1.620326 1_555
N7 P5 1.620459 1_555
N8 P4 1.622352 1_555
N8 P1 1.622352 1_565
N9 P0 1.646307 1_555
N9 P5 1.646307 1_565
N10 P5 1.622352 1_555
N10 P2 1.622352 1_556
N11 P5 1.620319 1_555
N11 P3 1.620463 1_555
N12 P3 1.620326 1_555
N12 P1 1.620459 1_455
