# generated using pymatgen
data_Sr5Ga2Bi
_symmetry_space_group_name_H-M   'P 1'
_cell_length_a   9.88044909
_cell_length_b   9.88044867
_cell_length_c   9.88044806
_cell_angle_alpha   128.50267850
_cell_angle_beta   128.50267927
_cell_angle_gamma   75.81211435
_symmetry_Int_Tables_number   1
_chemical_formula_structural   Sr5Ga2Bi
_chemical_formula_sum   'Sr10 Ga4 Bi2'
_cell_volume   574.52051629
_cell_formula_units_Z   2
loop_
 _symmetry_equiv_pos_site_id
 _symmetry_equiv_pos_as_xyz
  1  'x, y, z'
loop_
 _atom_site_type_symbol
 _atom_site_label
 _atom_site_symmetry_multiplicity
 _atom_site_fract_x
 _atom_site_fract_y
 _atom_site_fract_z
 _atom_site_occupancy
  Sr  Sr0  1  0.00000000  0.00000000  0.00000000  1
  Sr  Sr1  1  0.50000000  0.50000000  0.00000000  1
  Sr  Sr2  1  0.18738051  0.68738051  0.15170609  1
  Sr  Sr3  1  0.46432558  0.96432558  0.15170609  1
  Sr  Sr4  1  0.03567442  0.18738151  0.50000000  1
  Sr  Sr5  1  0.31261849  0.46432558  0.50000000  1
  Sr  Sr6  1  0.68738051  0.53567442  0.50000000  1
  Sr  Sr7  1  0.96432558  0.81261949  0.50000000  1
  Sr  Sr8  1  0.53567442  0.03567442  0.84829391  1
  Sr  Sr9  1  0.81261849  0.31261849  0.84829391  1
  Ga  Ga0  1  0.89206688  0.39206788  0.28413675  1
  Ga  Ga1  1  0.39206688  0.10793212  0.49999900  1
  Ga  Ga2  1  0.60793112  0.89206688  0.49999900  1
  Ga  Ga3  1  0.10793212  0.60793212  0.71586225  1
  Bi  Bi0  1  0.25000000  0.25000000  0.00000000  1
  Bi  Bi1  1  0.75000000  0.75000000  0.00000000  1
loop_
_geom_bond_atom_site_label_1
_geom_bond_atom_site_label_2
_geom_bond_distance
_geom_bond_site_symmetry_2
Sr0 Sr9 3.836836 1_454
Sr0 Sr4 3.836842 1_555
Sr0 Sr5 3.836842 1_555
Sr0 Sr7 3.836845 1_444
Sr0 Sr6 3.836845 1_444
Sr0 Sr2 3.836845 1_545
Sr0 Sr8 3.836845 1_454
Sr0 Sr3 3.836845 1_545
Sr1 Sr9 3.836836 1_554
Sr1 Sr5 3.836842 1_554
Sr1 Sr4 3.836842 1_554
Sr1 Sr6 3.836845 1_555
Sr1 Sr7 3.836845 1_555
Sr1 Sr3 3.836845 1_555
Sr1 Sr8 3.836845 1_554
Sr1 Sr2 3.836845 1_555
Ga0 Ga3 2.620676 1_655
Ga0 Sr4 3.293667 1_655
Ga0 Sr6 3.293668 1_555
Ga0 Sr5 3.293687 1_655
Ga0 Sr7 3.293688 1_555
Ga0 Sr8 3.414805 1_554
Ga0 Sr9 3.414814 1_554
Ga0 Sr1 3.490955 1_555
Ga0 Sr0 3.490966 1_655
Ga1 Ga2 2.620701 1_545
Ga1 Sr9 3.293681 1_555
Ga1 Sr3 3.293683 1_545
Ga1 Sr2 3.293683 1_545
Ga1 Sr8 3.293691 1_555
Ga1 Sr5 3.414805 1_555
Ga1 Sr4 3.414805 1_555
Ga1 Sr0 3.490949 1_555
Ga1 Sr1 3.490959 1_556
Ga2 Sr2 3.293675 1_555
Ga2 Sr8 3.293683 1_565
Ga2 Sr9 3.293683 1_565
Ga2 Sr3 3.293685 1_555
Ga2 Sr6 3.414805 1_555
Ga2 Sr7 3.414815 1_555
Ga2 Sr1 3.490952 1_555
Ga2 Sr0 3.490962 1_666
Ga3 Sr5 3.293660 1_555
Ga3 Sr7 3.293669 1_455
Ga3 Sr4 3.293681 1_555
Ga3 Sr6 3.293690 1_455
Ga3 Sr3 3.414810 1_556
Ga3 Sr2 3.414829 1_556
Ga3 Sr0 3.490963 1_566
Ga3 Sr1 3.490963 1_556
Bi0 Sr7 3.617151 1_444
Bi0 Sr6 3.617151 1_555
Bi0 Sr3 3.617151 1_545
Bi0 Sr2 3.617151 1_555
Bi0 Sr8 3.617151 1_554
Bi0 Sr4 3.617156 1_554
Bi0 Sr5 3.617156 1_555
Bi0 Sr9 3.617159 1_454
Bi0 Sr1 3.897932 1_555
Bi0 Sr0 3.897932 1_555
Bi1 Sr7 3.617151 1_555
Bi1 Sr6 3.617151 1_554
Bi1 Sr8 3.617151 1_564
Bi1 Sr3 3.617151 1_555
Bi1 Sr2 3.617151 1_655
Bi1 Sr4 3.617156 1_665
Bi1 Sr5 3.617156 1_554
Bi1 Sr9 3.617158 1_554
Bi1 Sr0 3.897932 1_665
Bi1 Sr1 3.897932 1_555
