# generated using pymatgen
data_Ca3Si4(AsPd10)2
_symmetry_space_group_name_H-M   'P 1'
_cell_length_a   8.75188456
_cell_length_b   8.75188401
_cell_length_c   8.64065745
_cell_angle_alpha   60.41951935
_cell_angle_beta   60.41952139
_cell_angle_gamma   59.16095522
_symmetry_Int_Tables_number   1
_chemical_formula_structural   Ca3Si4(AsPd10)2
_chemical_formula_sum   'Ca3 Si4 As2 Pd20'
_cell_volume   467.83892618
_cell_formula_units_Z   1
loop_
 _symmetry_equiv_pos_site_id
 _symmetry_equiv_pos_as_xyz
  1  'x, y, z'
loop_
 _atom_site_type_symbol
 _atom_site_label
 _atom_site_symmetry_multiplicity
 _atom_site_fract_x
 _atom_site_fract_y
 _atom_site_fract_z
 _atom_site_occupancy
  Ca  Ca0  1  0.25000000  0.25000000  0.25000000  1
  Ca  Ca1  1  0.75000000  0.75000000  0.75000000  1
  Ca  Ca2  1  0.00000000  0.00000000  0.00000000  1
  Si  Si0  1  0.73258875  0.26741125  0.26741125  1
  Si  Si1  1  0.26741125  0.73258875  0.73258875  1
  Si  Si2  1  0.26741125  0.73258875  0.26741125  1
  Si  Si3  1  0.73258875  0.26741125  0.73258875  1
  As  As0  1  0.26356856  0.26356856  0.73643144  1
  As  As1  1  0.73643144  0.73643144  0.26356856  1
  Pd  Pd0  1  0.38733292  0.38733292  0.38069990  1
  Pd  Pd1  1  0.61266708  0.61266708  0.61930010  1
  Pd  Pd2  1  0.38733292  0.38733292  0.84463626  1
  Pd  Pd3  1  0.38069990  0.84463626  0.38733292  1
  Pd  Pd4  1  0.61266708  0.61266708  0.15536374  1
  Pd  Pd5  1  0.61930010  0.15536374  0.61266708  1
  Pd  Pd6  1  0.84463626  0.38069990  0.38733292  1
  Pd  Pd7  1  0.15536374  0.61930010  0.61266708  1
  Pd  Pd8  1  0.34696546  0.99095786  0.00904214  1
  Pd  Pd9  1  0.65303454  0.00904214  0.99095786  1
  Pd  Pd10  1  0.99095786  0.34696546  0.65303454  1
  Pd  Pd11  1  0.00904214  0.65303454  0.34696546  1
  Pd  Pd12  1  0.99095786  0.34696546  0.00904214  1
  Pd  Pd13  1  0.65303454  0.00904214  0.34696546  1
  Pd  Pd14  1  0.00904214  0.65303454  0.99095786  1
  Pd  Pd15  1  0.34696546  0.99095786  0.65303454  1
  Pd  Pd16  1  1.00000000  1.00000000  0.34642642  1
  Pd  Pd17  1  0.00000000  0.00000000  0.65357358  1
  Pd  Pd18  1  0.65357358  0.34642642  1.00000000  1
  Pd  Pd19  1  0.34642642  0.65357358  0.00000000  1
loop_
_geom_bond_atom_site_label_1
_geom_bond_atom_site_label_2
_geom_bond_distance
_geom_bond_site_symmetry_2
Ca0 Pd3 2.885460 1_545
Ca0 Pd6 2.885461 1_455
Ca0 Pd2 2.885461 1_554
Ca0 Pd0 2.885475 1_555
Ca1 Pd5 2.885460 1_565
Ca1 Pd7 2.885461 1_655
Ca1 Pd4 2.885461 1_556
Ca1 Pd1 2.885475 1_555
Ca2 Pd16 2.993352 1_445
Ca2 Pd17 2.993352 1_554
Ca2 Pd19 2.993352 1_545
Ca2 Pd18 2.993352 1_454
Ca2 Pd10 3.035634 1_454
Ca2 Pd11 3.035634 1_545
Ca2 Pd12 3.035634 1_455
Ca2 Pd14 3.035634 1_544
Ca2 Pd13 3.035634 1_455
Ca2 Pd15 3.035634 1_544
Ca2 Pd8 3.035634 1_545
Ca2 Pd9 3.035634 1_454
As0 Pd8 2.477312 1_546
As0 Pd15 2.477313 1_545
As0 Pd12 2.477313 1_456
As0 Pd10 2.477313 1_455
As0 Pd7 2.534402 1_555
As0 Pd5 2.534402 1_555
As0 Pd0 2.534403 1_555
As0 Pd2 2.534417 1_555
As0 Ca2 3.303135 1_556
As1 Pd9 2.477312 1_564
As1 Pd13 2.477313 1_565
As1 Pd14 2.477313 1_654
As1 Pd11 2.477313 1_655
As1 Pd6 2.534402 1_555
As1 Pd3 2.534402 1_555
As1 Pd1 2.534403 1_555
As1 Pd4 2.534417 1_555
As1 Ca2 3.303135 1_665
Pd0 Si2 2.456156 1_555
Pd0 Si0 2.456156 1_555
Pd1 Si3 2.456156 1_555
Pd1 Si1 2.456156 1_555
Pd2 Si1 2.456156 1_555
Pd2 Si3 2.456156 1_555
Pd3 Si1 2.456156 1_555
Pd3 Si2 2.456170 1_555
Pd4 Si0 2.456156 1_555
Pd4 Si2 2.456156 1_555
Pd5 Si0 2.456156 1_555
Pd5 Si3 2.456170 1_555
Pd6 Si3 2.456156 1_555
Pd6 Si0 2.456170 1_555
Pd7 Si2 2.456156 1_555
Pd7 Si1 2.456170 1_555
Pd8 Si2 2.382727 1_555
Pd9 Si3 2.382727 1_555
Pd10 Si3 2.382727 1_555
Pd11 Si2 2.382727 1_555
Pd12 Si0 2.382727 1_555
Pd13 Si0 2.382727 1_555
Pd14 Si1 2.382727 1_555
Pd15 Si1 2.382727 1_555
Pd16 Si0 2.409368 1_565
Pd16 Si2 2.409368 1_655
Pd17 Si1 2.409368 1_545
Pd17 Si3 2.409368 1_455
Pd18 Si0 2.409368 1_556
Pd18 Si3 2.409368 1_555
Pd19 Si1 2.409368 1_554
Pd19 Si2 2.409368 1_555
