# generated using pymatgen
data_Zn8Ag5
_symmetry_space_group_name_H-M   'P 1'
_cell_length_a   8.04897762
_cell_length_b   8.04897897
_cell_length_c   8.04897685
_cell_angle_alpha   109.47121785
_cell_angle_beta   109.47122123
_cell_angle_gamma   109.47122025
_symmetry_Int_Tables_number   1
_chemical_formula_structural   Zn8Ag5
_chemical_formula_sum   'Zn16 Ag10'
_cell_volume   401.42120833
_cell_formula_units_Z   2
loop_
 _symmetry_equiv_pos_site_id
 _symmetry_equiv_pos_as_xyz
  1  'x, y, z'
loop_
 _atom_site_type_symbol
 _atom_site_label
 _atom_site_symmetry_multiplicity
 _atom_site_fract_x
 _atom_site_fract_y
 _atom_site_fract_z
 _atom_site_occupancy
  Zn  Zn0  1  0.71482688  0.71482688  0.37076825  1
  Zn  Zn1  1  0.34405963  0.62923175  0.34405963  1
  Zn  Zn2  1  0.62923175  0.34405963  0.34405963  1
  Zn  Zn3  1  0.00000000  0.65594037  0.28517312  1
  Zn  Zn4  1  0.65594037  -0.00000000  0.28517312  1
  Zn  Zn5  1  0.28517312  -0.00000000  0.65594037  1
  Zn  Zn6  1  0.71482688  0.37076825  0.71482688  1
  Zn  Zn7  1  0.37076825  0.71482688  0.71482688  1
  Zn  Zn8  1  -0.00000000  0.28517312  0.65594037  1
  Zn  Zn9  1  0.28517312  0.65594037  0.00000000  1
  Zn  Zn10  1  0.21917881  0.21917881  0.21917881  1
  Zn  Zn11  1  0.78082119  0.00000000  0.00000000  1
  Zn  Zn12  1  -0.00000000  0.78082119  -0.00000000  1
  Zn  Zn13  1  0.00000000  0.00000000  0.78082119  1
  Zn  Zn14  1  0.34405963  0.34405963  0.62923175  1
  Zn  Zn15  1  0.65594037  0.28517312  -0.00000000  1
  Ag  Ag0  1  0.00000000  0.64630385  0.64630385  1
  Ag  Ag1  1  0.64630385  0.64630385  0.00000000  1
  Ag  Ag2  1  0.35369615  0.35369615  -0.00000000  1
  Ag  Ag3  1  0.35369615  0.00000000  0.35369615  1
  Ag  Ag4  1  0.64630385  -0.00000000  0.64630385  1
  Ag  Ag5  1  -0.00000000  0.35369615  0.35369615  1
  Ag  Ag6  1  0.00000000  0.00000000  0.35921777  1
  Ag  Ag7  1  -0.00000000  0.35921777  -0.00000000  1
  Ag  Ag8  1  0.35921777  0.00000000  0.00000000  1
  Ag  Ag9  1  0.64078223  0.64078223  0.64078223  1
loop_
_geom_bond_atom_site_label_1
_geom_bond_atom_site_label_2
_geom_bond_distance
_geom_bond_site_symmetry_2
Zn0 Zn1 2.744042 1_555
Zn0 Zn2 2.744042 1_555
Zn0 Zn3 2.744050 1_655
Zn0 Zn4 2.744050 1_565
Zn0 Zn13 2.795908 1_665
Zn1 Zn7 2.744041 1_555
Zn1 Zn9 2.744049 1_555
Zn1 Zn3 2.744050 1_555
Zn1 Zn10 2.795906 1_555
Zn2 Zn6 2.744041 1_555
Zn2 Zn4 2.744050 1_555
Zn3 Zn5 2.744046 1_565
Zn4 Zn8 2.744046 1_655
Zn4 Zn9 2.744046 1_545
Zn5 Zn7 2.744050 1_545
Zn6 Zn8 2.744050 1_655
Zn7 Zn9 2.744049 1_556
Zn8 Zn9 2.744046 1_556
Zn10 Zn14 2.795905 1_555
Zn10 Zn2 2.795905 1_555
Zn10 Zn13 2.880870 1_554
Zn10 Zn11 2.880870 1_455
Zn10 Zn12 2.880871 1_545
Zn11 Zn7 2.795908 1_544
Zn11 Zn4 2.795913 1_555
Zn11 Zn15 2.795913 1_555
Zn11 Zn13 2.880870 1_654
Zn11 Zn12 2.880870 1_645
Zn12 Zn6 2.795908 1_454
Zn12 Zn3 2.795913 1_555
Zn12 Zn9 2.795913 1_555
Zn12 Zn13 2.880870 1_564
Zn13 Zn5 2.795913 1_555
Zn13 Zn8 2.795913 1_555
Zn14 Zn6 2.744042 1_555
Zn14 Zn7 2.744042 1_555
Zn14 Zn8 2.744050 1_555
Zn14 Zn5 2.744050 1_555
Zn15 Zn5 2.744046 1_554
Zn15 Zn3 2.744046 1_655
Zn15 Zn2 2.744049 1_555
Zn15 Zn6 2.744049 1_554
Ag0 Zn2 2.667777 1_455
Ag0 Zn7 2.667781 1_555
Ag0 Zn12 2.687407 1_556
Ag0 Zn13 2.687407 1_565
Ag0 Ag5 2.719543 1_555
Ag0 Ag9 2.862014 1_455
Ag0 Ag8 2.862014 1_566
Ag0 Zn3 2.933499 1_555
Ag0 Zn8 2.933500 1_555
Ag0 Zn0 2.959242 1_455
Ag0 Zn6 2.959242 1_455
Ag0 Zn9 2.959246 1_556
Ag0 Zn5 2.959246 1_565
Ag1 Zn14 2.667777 1_554
Ag1 Zn0 2.667781 1_555
Ag1 Zn12 2.687407 1_655
Ag1 Zn11 2.687407 1_565
Ag1 Ag2 2.719543 1_555
Ag1 Ag9 2.862013 1_554
Ag1 Ag6 2.862014 1_665
Ag1 Zn9 2.933500 1_555
Ag1 Zn15 2.933500 1_555
Ag1 Zn7 2.959242 1_554
Ag1 Zn6 2.959242 1_554
Ag1 Zn3 2.959246 1_655
Ag1 Zn4 2.959246 1_565
Ag2 Zn15 2.667773 1_555
Ag2 Zn9 2.667773 1_555
Ag2 Zn10 2.687407 1_555
Ag2 Zn13 2.687407 1_554
Ag2 Ag7 2.862014 1_555
Ag2 Ag8 2.862014 1_555
Ag2 Zn0 2.933503 1_555
Ag2 Zn14 2.933507 1_554
Ag2 Zn2 2.959242 1_555
Ag2 Zn1 2.959243 1_555
Ag2 Zn8 2.959246 1_554
Ag2 Zn5 2.959246 1_554
Ag3 Zn5 2.667773 1_555
Ag3 Zn4 2.667773 1_555
Ag3 Zn12 2.687407 1_545
Ag3 Zn10 2.687407 1_555
Ag3 Ag4 2.719542 1_555
Ag3 Ag8 2.862013 1_555
Ag3 Ag6 2.862014 1_555
Ag3 Zn6 2.933503 1_555
Ag3 Zn1 2.933508 1_545
Ag3 Zn14 2.959243 1_555
Ag3 Zn2 2.959243 1_555
Ag3 Zn9 2.959246 1_545
Ag3 Zn3 2.959246 1_545
Ag4 Zn1 2.667777 1_545
Ag4 Zn6 2.667781 1_555
Ag4 Zn11 2.687407 1_556
Ag4 Zn13 2.687407 1_655
Ag4 Ag7 2.862014 1_656
Ag4 Ag9 2.862014 1_545
Ag4 Zn4 2.933499 1_555
Ag4 Zn5 2.933500 1_555
Ag4 Zn7 2.959242 1_545
Ag4 Zn0 2.959242 1_545
Ag4 Zn15 2.959246 1_556
Ag4 Zn8 2.959246 1_655
Ag5 Zn8 2.667773 1_555
Ag5 Zn3 2.667773 1_555
Ag5 Zn10 2.687407 1_555
Ag5 Zn11 2.687407 1_455
Ag5 Ag7 2.862013 1_555
Ag5 Ag6 2.862014 1_555
Ag5 Zn7 2.933503 1_555
Ag5 Zn2 2.933508 1_455
Ag5 Zn14 2.959242 1_555
Ag5 Zn1 2.959243 1_555
Ag5 Zn15 2.959246 1_455
Ag5 Zn4 2.959246 1_455
Ag6 Zn14 2.631360 1_555
Ag6 Zn4 2.631361 1_455
Ag6 Zn3 2.631361 1_545
Ag6 Zn5 2.705181 1_555
Ag6 Zn8 2.705181 1_555
Ag6 Zn0 2.705186 1_445
Ag6 Zn11 2.841051 1_455
Ag6 Zn12 2.841051 1_545
Ag6 Zn10 2.841051 1_555
Ag7 Zn1 2.631360 1_555
Ag7 Zn8 2.631360 1_554
Ag7 Zn15 2.631361 1_455
Ag7 Zn3 2.705181 1_555
Ag7 Zn9 2.705181 1_555
Ag7 Zn6 2.705185 1_454
Ag7 Zn10 2.841051 1_555
Ag7 Zn11 2.841052 1_455
Ag7 Zn13 2.841052 1_554
Ag8 Zn2 2.631360 1_555
Ag8 Zn5 2.631360 1_554
Ag8 Zn9 2.631361 1_545
Ag8 Zn4 2.705181 1_555
Ag8 Zn15 2.705181 1_555
Ag8 Zn7 2.705186 1_544
Ag8 Zn13 2.841051 1_554
Ag8 Zn12 2.841051 1_545
Ag8 Zn10 2.841051 1_555
Ag9 Zn0 2.631353 1_555
Ag9 Zn7 2.631353 1_555
Ag9 Zn6 2.631353 1_555
Ag9 Zn1 2.705176 1_555
Ag9 Zn2 2.705176 1_555
Ag9 Zn14 2.705176 1_555
Ag9 Zn12 2.841051 1_656
Ag9 Zn11 2.841052 1_566
Ag9 Zn13 2.841052 1_665
