# generated using pymatgen
data_CsZrCuAs2
_symmetry_space_group_name_H-M   'P 1'
_cell_length_a   8.31429781
_cell_length_b   8.31429816
_cell_length_c   8.31429717
_cell_angle_alpha   150.41828982
_cell_angle_beta   150.41829535
_cell_angle_gamma   42.32773591
_symmetry_Int_Tables_number   1
_chemical_formula_structural   CsZrCuAs2
_chemical_formula_sum   'Cs1 Zr1 Cu1 As2'
_cell_volume   139.72754809
_cell_formula_units_Z   1
loop_
 _symmetry_equiv_pos_site_id
 _symmetry_equiv_pos_as_xyz
  1  'x, y, z'
loop_
 _atom_site_type_symbol
 _atom_site_label
 _atom_site_symmetry_multiplicity
 _atom_site_fract_x
 _atom_site_fract_y
 _atom_site_fract_z
 _atom_site_occupancy
  Cs  Cs0  1  0.00000000  0.00000000  0.00000000  1
  Zr  Zr0  1  0.25000000  0.75000000  0.50000000  1
  Cu  Cu0  1  0.75000000  0.25000000  0.50000000  1
  As  As0  1  0.65427039  0.65427039  1.00000000  1
  As  As1  1  0.34572961  0.34572961  0.00000000  1
loop_
_geom_bond_atom_site_label_1
_geom_bond_atom_site_label_2
_geom_bond_distance
_geom_bond_site_symmetry_2
Cu0 Zr0 3.001765 1_555
Cu0 Zr0 3.001765 1_645
Cu0 Zr0 3.001766 1_656
Cu0 Zr0 3.001766 1_544
As0 Zr0 2.590170 1_555
As0 Cu0 2.590170 1_555
As0 Zr0 2.590171 1_656
As0 Cu0 2.590171 1_566
As0 Cs0 3.838433 1_667
As0 Cs0 3.838434 1_566
As0 Cs0 3.838434 1_656
As0 Cs0 3.838435 1_555
As1 Cu0 2.590170 1_555
As1 Zr0 2.590170 1_555
As1 Cu0 2.590171 1_454
As1 Zr0 2.590171 1_544
As1 Cs0 3.838433 1_554
As1 Cs0 3.838434 1_655
As1 Cs0 3.838434 1_565
As1 Cs0 3.838435 1_666
