# generated using pymatgen
data_Lu3HfAs6Ru7
_symmetry_space_group_name_H-M   'P 1'
_cell_length_a   7.10494692
_cell_length_b   7.08811638
_cell_length_c   7.08811694
_cell_angle_alpha   109.42307281
_cell_angle_beta   109.51932831
_cell_angle_gamma   109.51932271
_symmetry_Int_Tables_number   1
_chemical_formula_structural   Lu3HfAs6Ru7
_chemical_formula_sum   'Lu3 Hf1 As6 Ru7'
_cell_volume   274.62652784
_cell_formula_units_Z   1
loop_
 _symmetry_equiv_pos_site_id
 _symmetry_equiv_pos_as_xyz
  1  'x, y, z'
loop_
 _atom_site_type_symbol
 _atom_site_label
 _atom_site_symmetry_multiplicity
 _atom_site_fract_x
 _atom_site_fract_y
 _atom_site_fract_z
 _atom_site_occupancy
  Lu  Lu0  1  0.00000000  0.00000000  0.50000000  1
  Lu  Lu1  1  0.00000000  0.50000000  0.00000000  1
  Lu  Lu2  1  0.50000000  0.50000000  0.50000000  1
  Hf  Hf0  1  0.50000000  0.00000000  0.00000000  1
  As  As0  1  0.31443822  1.00000000  0.31338442  1
  As  As1  1  0.99894720  0.31338442  0.31338442  1
  As  As2  1  0.00105280  0.68661558  0.68661558  1
  As  As3  1  0.31443822  0.31338442  0.00000000  1
  As  As4  1  0.68556178  0.68661558  1.00000000  1
  As  As5  1  0.68556178  0.00000000  0.68661558  1
  Ru  Ru0  1  0.74604886  0.49209671  0.24604886  1
  Ru  Ru1  1  0.50000000  0.75395114  0.24604886  1
  Ru  Ru2  1  0.50000000  0.24604886  0.75395114  1
  Ru  Ru3  1  0.74604886  0.24604886  0.49209671  1
  Ru  Ru4  1  0.25395114  0.75395114  0.50790329  1
  Ru  Ru5  1  0.25395114  0.50790329  0.75395114  1
  Ru  Ru6  1  0.00000000  0.00000000  0.00000000  1
loop_
_geom_bond_atom_site_label_1
_geom_bond_atom_site_label_2
_geom_bond_distance
_geom_bond_site_symmetry_2
Lu0 Ru3 2.898368 1_455
Lu0 Ru4 2.898368 1_545
Lu0 Ru2 2.898368 1_555
Lu0 Ru1 2.898368 1_445
Lu0 Ru5 2.938578 1_555
Lu0 Ru0 2.938578 1_445
Lu1 Ru1 2.898368 1_555
Lu1 Ru2 2.898368 1_454
Lu1 Ru5 2.898369 1_554
Lu1 Ru0 2.898369 1_455
Lu1 Ru4 2.938578 1_555
Lu1 Ru3 2.938578 1_454
Lu2 Ru4 2.898368 1_555
Lu2 Ru3 2.898368 1_555
Lu2 Ru0 2.898369 1_555
Lu2 Ru5 2.898369 1_555
Lu2 Ru2 2.938572 1_555
Lu2 Ru1 2.938572 1_555
Hf0 Ru0 2.847125 1_555
Hf0 Ru5 2.847125 1_544
Hf0 Ru3 2.847126 1_555
Hf0 Ru4 2.847126 1_544
Hf0 Ru1 2.847131 1_545
Hf0 Ru2 2.847131 1_554
As0 Ru1 2.532000 1_555
As0 Ru3 2.532002 1_565
As0 Ru6 2.570804 1_565
As0 Ru2 2.573259 1_565
As0 Ru4 2.573264 1_555
As0 Hf0 2.937587 1_565
As0 Lu2 2.939829 1_565
As0 Lu1 2.939829 1_555
As0 Lu0 2.952200 1_565
As1 Ru0 2.532001 1_555
As1 Ru3 2.532001 1_555
As1 Ru6 2.570800 1_655
As1 Ru4 2.573257 1_655
As1 Ru5 2.573257 1_655
As1 Hf0 2.937592 1_555
As1 Lu0 2.939828 1_655
As1 Lu1 2.939828 1_655
As1 Lu2 2.952194 1_655
As2 Ru5 2.532001 1_555
As2 Ru4 2.532001 1_555
As2 Ru6 2.570800 1_566
As2 Ru3 2.573257 1_455
As2 Ru0 2.573257 1_455
As2 Hf0 2.937592 1_566
As2 Lu0 2.939828 1_565
As2 Lu1 2.939828 1_556
As2 Lu2 2.952194 1_455
As3 Ru2 2.532001 1_554
As3 Ru0 2.532002 1_555
As3 Ru6 2.570804 1_555
As3 Ru1 2.573259 1_555
As3 Ru5 2.573264 1_554
As3 Hf0 2.937587 1_555
As3 Lu0 2.939829 1_554
As3 Lu2 2.939829 1_555
As3 Lu1 2.952200 1_555
As4 Ru1 2.532001 1_556
As4 Ru5 2.532002 1_555
As4 Ru6 2.570804 1_666
As4 Ru2 2.573259 1_555
As4 Ru0 2.573264 1_556
As4 Hf0 2.937587 1_566
As4 Lu0 2.939829 1_666
As4 Lu2 2.939829 1_555
As4 Lu1 2.952200 1_656
As5 Ru2 2.532000 1_555
As5 Ru4 2.532002 1_545
As5 Ru6 2.570804 1_656
As5 Ru1 2.573259 1_545
As5 Ru3 2.573264 1_555
As5 Hf0 2.937587 1_556
As5 Lu2 2.939829 1_545
As5 Lu1 2.939829 1_656
As5 Lu0 2.952200 1_655
