# generated using pymatgen
data_SrBi6PtI12
_symmetry_space_group_name_H-M   'P 1'
_cell_length_a   10.16672047
_cell_length_b   10.16672153
_cell_length_c   10.16672050
_cell_angle_alpha   106.86618209
_cell_angle_beta   106.86619280
_cell_angle_gamma   106.86619996
_symmetry_Int_Tables_number   1
_chemical_formula_structural   SrBi6PtI12
_chemical_formula_sum   'Sr1 Bi6 Pt1 I12'
_cell_volume   878.33678658
_cell_formula_units_Z   1
loop_
 _symmetry_equiv_pos_site_id
 _symmetry_equiv_pos_as_xyz
  1  'x, y, z'
loop_
 _atom_site_type_symbol
 _atom_site_label
 _atom_site_symmetry_multiplicity
 _atom_site_fract_x
 _atom_site_fract_y
 _atom_site_fract_z
 _atom_site_occupancy
  Sr  Sr0  1  0.00000000  0.00000000  0.00000000  1
  Bi  Bi0  1  0.41078321  0.47283133  0.20794641  1
  Bi  Bi1  1  0.20794641  0.41078321  0.47283133  1
  Bi  Bi2  1  0.47283133  0.20794641  0.41078321  1
  Bi  Bi3  1  0.58921679  0.52716867  0.79205359  1
  Bi  Bi4  1  0.79205359  0.58921679  0.52716867  1
  Bi  Bi5  1  0.52716867  0.79205359  0.58921679  1
  Pt  Pt0  1  0.50000000  0.50000000  0.50000000  1
  I  I0  1  0.05216936  0.35746683  0.12573964  1
  I  I1  1  0.12573964  0.05216936  0.35746683  1
  I  I2  1  0.35746683  0.12573964  0.05216936  1
  I  I3  1  0.94783064  0.64253317  0.87426036  1
  I  I4  1  0.87426036  0.94783064  0.64253317  1
  I  I5  1  0.64253317  0.87426036  0.94783064  1
  I  I6  1  0.72801386  0.57375833  0.20372482  1
  I  I7  1  0.20372482  0.72801386  0.57375833  1
  I  I8  1  0.57375833  0.20372482  0.72801386  1
  I  I9  1  0.27198614  0.42624167  0.79627518  1
  I  I10  1  0.79627518  0.27198614  0.42624167  1
  I  I11  1  0.42624167  0.79627518  0.27198614  1
loop_
_geom_bond_atom_site_label_1
_geom_bond_atom_site_label_2
_geom_bond_distance
_geom_bond_site_symmetry_2
Bi0 Pt0 2.744309 1_555
Bi0 I6 3.105179 1_555
Bi0 I11 3.108105 1_555
Bi0 I2 3.225417 1_555
Bi0 I0 3.247851 1_555
Bi1 Pt0 2.744309 1_555
Bi1 I7 3.105180 1_555
Bi1 I9 3.108105 1_555
Bi1 I0 3.225416 1_555
Bi1 I1 3.247852 1_555
Bi2 Pt0 2.744309 1_555
Bi2 I8 3.105180 1_555
Bi2 I10 3.108105 1_555
Bi2 I1 3.225416 1_555
Bi2 I2 3.247851 1_555
Bi3 Pt0 2.744309 1_555
Bi3 I9 3.105179 1_555
Bi3 I8 3.108105 1_555
Bi3 I5 3.225417 1_555
Bi3 I3 3.247851 1_555
Bi4 Pt0 2.744309 1_555
Bi4 I10 3.105180 1_555
Bi4 I6 3.108105 1_555
Bi4 I3 3.225416 1_555
Bi4 I4 3.247852 1_555
Bi5 Pt0 2.744309 1_555
Bi5 I11 3.105180 1_555
Bi5 I7 3.108105 1_555
Bi5 I4 3.225416 1_555
Bi5 I5 3.247851 1_555
I0 Sr0 3.303867 1_555
I1 Sr0 3.303866 1_555
I2 Sr0 3.303866 1_555
I3 Sr0 3.303867 1_666
I4 Sr0 3.303866 1_666
I5 Sr0 3.303866 1_666
