# generated using pymatgen
data_LiPdPt5W
_symmetry_space_group_name_H-M   'P 1'
_cell_length_a   5.50368687
_cell_length_b   5.49514028
_cell_length_c   5.50368667
_cell_angle_alpha   60.05135893
_cell_angle_beta   60.23720585
_cell_angle_gamma   60.05136092
_symmetry_Int_Tables_number   1
_chemical_formula_structural   LiPdPt5W
_chemical_formula_sum   'Li1 Pd1 Pt5 W1'
_cell_volume   117.99989836
_cell_formula_units_Z   1
loop_
 _symmetry_equiv_pos_site_id
 _symmetry_equiv_pos_as_xyz
  1  'x, y, z'
loop_
 _atom_site_type_symbol
 _atom_site_label
 _atom_site_symmetry_multiplicity
 _atom_site_fract_x
 _atom_site_fract_y
 _atom_site_fract_z
 _atom_site_occupancy
  Li  Li0  1  0.00000000  0.00000000  0.00000000  1
  Pd  Pd0  1  0.00000000  0.50000000  0.00000000  1
  Pt  Pt0  1  0.00000000  0.00000000  0.50000000  1
  Pt  Pt1  1  0.50000000  0.00000000  0.50000000  1
  Pt  Pt2  1  0.00000000  0.50000000  0.50000000  1
  Pt  Pt3  1  0.50000000  0.50000000  0.00000000  1
  Pt  Pt4  1  0.50000000  0.00000000  0.00000000  1
  W  W0  1  0.50000000  0.50000000  0.50000000  1
loop_
_geom_bond_atom_site_label_1
_geom_bond_atom_site_label_2
_geom_bond_distance
_geom_bond_site_symmetry_2
Li0 Pd0 2.747570 1_545
Li0 Pd0 2.747570 1_555
Li0 Pt0 2.751843 1_555
Li0 Pt0 2.751843 1_554
Li0 Pt4 2.751843 1_455
Li0 Pt4 2.751843 1_555
Li0 Pt2 2.751844 1_554
Li0 Pt2 2.751844 1_545
Li0 Pt3 2.751844 1_455
Li0 Pt3 2.751844 1_545
Li0 Pt1 2.761704 1_554
Li0 Pt1 2.761704 1_455
Pd0 Pt2 2.751843 1_555
Pd0 Pt2 2.751843 1_554
Pd0 Pt3 2.751843 1_455
Pd0 Pt3 2.751843 1_555
Pd0 Pt0 2.751844 1_555
Pd0 Pt0 2.751844 1_564
Pd0 Pt4 2.751844 1_555
Pd0 Pt4 2.751844 1_465
Pd0 W0 2.761704 1_554
Pd0 W0 2.761704 1_455
Pt0 Pt2 2.747570 1_555
Pt0 Pt2 2.747570 1_545
Pt0 Pt1 2.751843 1_455
Pt0 Pt1 2.751843 1_555
Pt0 W0 2.751844 1_545
Pt0 W0 2.751844 1_455
Pt0 Pt4 2.761704 1_456
Pt0 Pt4 2.761704 1_555
Pt1 W0 2.747570 1_555
Pt1 W0 2.747570 1_545
Pt1 Pt4 2.751843 1_555
Pt1 Pt4 2.751843 1_556
Pt1 Pt3 2.751844 1_546
Pt1 Pt3 2.751844 1_555
Pt1 Pt2 2.751844 1_555
Pt1 Pt2 2.751844 1_645
Pt2 W0 2.751843 1_455
Pt2 W0 2.751843 1_555
Pt2 Pt3 2.761704 1_555
Pt2 Pt3 2.761704 1_456
Pt3 Pt4 2.747570 1_555
Pt3 Pt4 2.747570 1_565
Pt3 W0 2.751843 1_554
Pt3 W0 2.751843 1_555
Pt4 W0 2.751844 1_545
Pt4 W0 2.751844 1_554
