# generated using pymatgen
data_AlFe4Si3W4
_symmetry_space_group_name_H-M   'P 1'
_cell_length_a   4.73840649
_cell_length_b   4.69702441
_cell_length_c   7.75098025
_cell_angle_alpha   90.00000000
_cell_angle_beta   90.00000000
_cell_angle_gamma   120.17344901
_symmetry_Int_Tables_number   1
_chemical_formula_structural   AlFe4Si3W4
_chemical_formula_sum   'Al1 Fe4 Si3 W4'
_cell_volume   149.13537908
_cell_formula_units_Z   1
loop_
 _symmetry_equiv_pos_site_id
 _symmetry_equiv_pos_as_xyz
  1  'x, y, z'
loop_
 _atom_site_type_symbol
 _atom_site_label
 _atom_site_symmetry_multiplicity
 _atom_site_fract_x
 _atom_site_fract_y
 _atom_site_fract_z
 _atom_site_occupancy
  Al  Al0  1  0.35367567  0.18188907  0.75000000  1
  Fe  Fe0  1  0.84239021  0.67134516  0.75000000  1
  Fe  Fe1  1  0.17173612  0.32680051  0.25000000  1
  Fe  Fe2  1  0.66896729  0.82437461  0.25000000  1
  Fe  Fe3  1  0.84094112  0.17697698  0.75000000  1
  Si  Si0  1  0.98176366  0.99911826  0.99999626  1
  Si  Si1  1  0.98176366  0.99911826  0.50000374  1
  Si  Si2  1  0.17779889  0.81801751  0.25000000  1
  W  W0  1  0.32892780  0.67086763  0.93763239  1
  W  W1  1  0.66155289  0.33031268  0.43384325  1
  W  W2  1  0.66155289  0.33031268  0.06615675  1
  W  W3  1  0.32892780  0.67086763  0.56236761  1
loop_
_geom_bond_atom_site_label_1
_geom_bond_atom_site_label_2
_geom_bond_distance
_geom_bond_site_symmetry_2
Al0 Fe0 2.301352 1_555
Al0 Fe3 2.320544 1_555
Al0 Fe0 2.404131 1_445
Al0 Fe3 2.418030 1_455
Al0 Si1 2.465062 1_445
Al0 Si0 2.465062 1_445
Al0 W2 2.756259 1_556
Al0 W1 2.756259 1_555
Al0 W3 2.758123 1_545
Al0 W0 2.758123 1_545
Al0 W3 2.770310 1_555
Al0 W0 2.770310 1_555
Fe0 Fe3 2.318616 1_555
Fe0 Si1 2.353521 1_555
Fe0 Si0 2.353521 1_555
Fe0 Fe3 2.378424 1_565
Fe0 W3 2.726760 1_655
Fe0 W0 2.726760 1_655
Fe0 W2 2.815213 1_556
Fe0 W1 2.815213 1_555
Fe0 W3 2.833561 1_555
Fe0 W0 2.833561 1_555
Fe1 Si2 2.292954 1_555
Fe1 Fe2 2.340504 1_555
Fe1 Si0 2.354031 1_444
Fe1 Si1 2.354031 1_445
Fe1 Fe2 2.364976 1_445
Fe1 Si2 2.404334 1_545
Fe1 W1 2.716454 1_555
Fe1 W2 2.716454 1_555
Fe1 W0 2.796157 1_554
Fe1 W3 2.796157 1_555
Fe1 W1 2.813357 1_455
Fe1 W2 2.813357 1_455
Fe2 Si2 2.312492 1_555
Fe2 Si0 2.324336 1_554
Fe2 Si1 2.324336 1_555
Fe2 Si2 2.426196 1_655
Fe2 W1 2.708336 1_555
Fe2 W2 2.708336 1_555
Fe2 W1 2.786213 1_565
Fe2 W2 2.786213 1_565
Fe2 W0 2.794664 1_554
Fe2 W3 2.794664 1_555
Fe3 Si1 2.336294 1_545
Fe3 Si0 2.336294 1_545
Fe3 W3 2.729672 1_655
Fe3 W0 2.729672 1_655
Fe3 W3 2.802620 1_545
Fe3 W0 2.802620 1_545
Fe3 W2 2.803876 1_556
Fe3 W1 2.803876 1_555
Si0 Si2 2.477031 1_656
Si0 W2 2.712530 1_566
Si0 W0 2.717636 1_555
Si0 W2 2.764441 1_556
Si0 W0 2.770845 1_665
Si0 W0 2.804711 1_655
Si0 W2 2.832214 1_666
Si1 Si2 2.477031 1_655
Si1 W1 2.712530 1_565
Si1 W3 2.717636 1_555
Si1 W1 2.764441 1_555
Si1 W3 2.770845 1_665
Si1 W3 2.804711 1_655
Si1 W1 2.832214 1_665
Si2 W0 2.711100 1_554
Si2 W3 2.711100 1_555
Si2 W1 2.744144 1_565
Si2 W2 2.744144 1_565
Si2 W1 2.762055 1_455
Si2 W2 2.762055 1_455
W0 W2 2.857118 1_566
W0 W3 2.908670 1_555
W0 W2 2.909693 1_456
W0 W2 2.927384 1_556
W1 W2 2.849931 1_555
W1 W3 2.857118 1_545
W1 W3 2.909693 1_655
W1 W3 2.927384 1_555
