# generated using pymatgen
data_Ca3Sb4PbO14
_symmetry_space_group_name_H-M   'P 1'
_cell_length_a   7.40742233
_cell_length_b   7.40742281
_cell_length_c   7.33927515
_cell_angle_alpha   120.20783982
_cell_angle_beta   118.30046780
_cell_angle_gamma   91.81984016
_symmetry_Int_Tables_number   1
_chemical_formula_structural   Ca3Sb4PbO14
_chemical_formula_sum   'Ca3 Sb4 Pb1 O14'
_cell_volume   286.43838896
_cell_formula_units_Z   1
loop_
 _symmetry_equiv_pos_site_id
 _symmetry_equiv_pos_as_xyz
  1  'x, y, z'
loop_
 _atom_site_type_symbol
 _atom_site_label
 _atom_site_symmetry_multiplicity
 _atom_site_fract_x
 _atom_site_fract_y
 _atom_site_fract_z
 _atom_site_occupancy
  Ca  Ca0  1  0.00000000  0.50000000  0.00000000  1
  Ca  Ca1  1  0.00000000  0.00000000  0.00000000  1
  Ca  Ca2  1  0.50000000  0.50000000  0.00000000  1
  Sb  Sb0  1  0.50000000  0.00000000  0.00000000  1
  Sb  Sb1  1  0.50000000  0.50000000  0.50000000  1
  Sb  Sb2  1  0.50000000  0.00000000  0.50000000  1
  Sb  Sb3  1  0.00000000  0.50000000  0.50000000  1
  Pb  Pb0  1  0.00000000  0.00000000  0.50000000  1
  O  O0  1  0.44722928  0.08898648  0.77220089  1
  O  O1  1  0.55235191  0.32587744  0.64236006  1
  O  O2  1  0.18351838  0.40999285  0.35763994  1
  O  O3  1  0.81678459  0.17502839  0.22779911  1
  O  O4  1  0.55277072  0.91101452  0.22779911  1
  O  O5  1  0.44764809  0.67412256  0.35763994  1
  O  O6  1  0.81648162  0.59000715  0.64236006  1
  O  O7  1  0.18321541  0.82497161  0.77220089  1
  O  O8  1  0.59618046  0.75141561  0.84759607  1
  O  O9  1  0.40381954  0.24858439  0.15240393  1
  O  O10  1  0.18352188  0.89961046  0.26013432  1
  O  O11  1  0.81647812  0.10038954  0.73986568  1
  O  O12  1  0.86052386  0.57661244  0.26013432  1
  O  O13  1  0.13947614  0.42338756  0.73986568  1
loop_
_geom_bond_atom_site_label_1
_geom_bond_atom_site_label_2
_geom_bond_distance
_geom_bond_site_symmetry_2
Ca0 O13 2.419047 1_554
Ca0 O12 2.419047 1_455
Ca0 O10 2.419047 1_555
Ca0 O11 2.419047 1_454
Ca0 O2 2.759966 1_555
Ca0 O6 2.759966 1_454
Ca0 O5 2.759971 1_555
Ca0 O1 2.759971 1_454
Ca1 O10 2.253432 1_545
Ca1 O11 2.253432 1_454
Ca1 O2 2.508753 1_555
Ca1 O6 2.508753 1_444
Ca1 O3 2.529817 1_455
Ca1 O7 2.529817 1_544
Ca1 O8 2.827460 1_444
Ca1 O9 2.827460 1_555
Ca2 O12 2.253432 1_555
Ca2 O13 2.253432 1_554
Ca2 O5 2.508748 1_555
Ca2 O1 2.508748 1_554
Ca2 O0 2.529811 1_554
Ca2 O4 2.529817 1_555
Ca2 O8 2.827460 1_554
Ca2 O9 2.827460 1_555
O0 Sb0 1.971833 1_556
O0 Sb2 2.002508 1_555
O0 Pb0 2.767880 1_555
O1 Sb1 1.977186 1_555
O1 Sb2 2.021740 1_555
O2 Sb1 1.977179 1_555
O2 Sb3 2.021746 1_555
O3 Sb0 1.971827 1_555
O3 Sb3 2.002509 1_655
O3 Pb0 2.767881 1_655
O4 Sb0 1.971827 1_565
O4 Sb2 2.002509 1_565
O4 Pb0 2.767881 1_665
O5 Sb1 1.977186 1_555
O5 Sb2 2.021740 1_565
O6 Sb1 1.977179 1_555
O6 Sb3 2.021746 1_655
O7 Sb0 1.971827 1_566
O7 Sb3 2.002509 1_555
O7 Pb0 2.767881 1_565
O8 Sb1 1.973713 1_555
O8 Sb0 1.978817 1_566
O9 Sb1 1.973713 1_555
O9 Sb0 1.978817 1_555
O10 Sb2 1.951051 1_565
O10 Pb0 2.552693 1_565
O11 Sb2 1.951051 1_555
O11 Pb0 2.552693 1_655
O12 Sb3 1.951051 1_655
O12 Pb0 2.552693 1_665
O13 Sb3 1.951051 1_555
O13 Pb0 2.552693 1_555
