# generated using pymatgen
data_Hf16NbCo5Rh2
_symmetry_space_group_name_H-M   'P 1'
_cell_length_a   8.52920907
_cell_length_b   8.59073996
_cell_length_c   8.54051261
_cell_angle_alpha   60.19322654
_cell_angle_beta   59.95615818
_cell_angle_gamma   60.09186074
_symmetry_Int_Tables_number   1
_chemical_formula_structural   Hf16NbCo5Rh2
_chemical_formula_sum   'Hf16 Nb1 Co5 Rh2'
_cell_volume   443.29744599
_cell_formula_units_Z   1
loop_
 _symmetry_equiv_pos_site_id
 _symmetry_equiv_pos_as_xyz
  1  'x, y, z'
loop_
 _atom_site_type_symbol
 _atom_site_label
 _atom_site_symmetry_multiplicity
 _atom_site_fract_x
 _atom_site_fract_y
 _atom_site_fract_z
 _atom_site_occupancy
  Hf  Hf0  1  0.20064413  0.59988612  0.59973387  1
  Hf  Hf1  1  0.60405328  0.18626133  0.60484219  1
  Hf  Hf2  1  0.59948281  0.59899966  0.20206515  1
  Hf  Hf3  1  0.59948281  0.59899966  0.59945138  1
  Hf  Hf4  1  0.81496218  0.81436563  0.18533609  1
  Hf  Hf5  1  0.18372905  0.18857983  0.81384606  1
  Hf  Hf6  1  0.81514759  0.19124152  0.81385071  1
  Hf  Hf7  1  0.19172508  0.81467146  0.18016934  1
  Hf  Hf8  1  0.19172508  0.81467146  0.81343612  1
  Hf  Hf9  1  0.81514759  0.19124152  0.17976017  1
  Hf  Hf10  1  0.44823907  0.44279329  0.05448382  1
  Hf  Hf11  1  0.05033755  0.04945532  0.45010407  1
  Hf  Hf12  1  0.45134021  0.04783290  0.45250532  1
  Hf  Hf13  1  0.05564290  0.44161389  0.05518921  1
  Hf  Hf14  1  0.05564290  0.44161389  0.44755400  1
  Hf  Hf15  1  0.45134021  0.04783290  0.04832157  1
  Nb  Nb0  1  0.82308654  0.52220780  0.82735233  1
  Co  Co0  1  0.82721114  0.38679651  0.39299718  1
  Co  Co1  1  0.39061554  0.82868826  0.39034910  1
  Co  Co2  1  0.39246759  0.38788925  0.82633000  1
  Co  Co3  1  0.39246759  0.38788925  0.39331516  1
  Co  Co4  1  0.48131437  0.83929107  0.83969728  1
  Rh  Rh0  1  0.83209839  0.83858974  0.49197016  1
  Rh  Rh1  1  0.83209839  0.83858974  0.83734071  1
loop_
_geom_bond_atom_site_label_1
_geom_bond_atom_site_label_2
_geom_bond_distance
_geom_bond_site_symmetry_2
Hf0 Nb0 3.029746 1_455
Hf0 Rh0 3.086372 1_455
Hf0 Rh1 3.086376 1_455
Hf0 Hf5 3.109733 1_555
Hf1 Rh0 2.970660 1_545
Hf1 Rh1 2.970660 1_545
Hf1 Hf5 3.097654 1_555
Hf1 Hf9 3.130614 1_555
Hf1 Hf6 3.130621 1_555
Hf2 Nb0 3.007779 1_554
Hf2 Rh1 3.063615 1_554
Hf2 Hf9 3.094740 1_555
Hf3 Nb0 3.007779 1_555
Hf3 Rh0 3.063615 1_555
Hf3 Hf6 3.094743 1_555
Hf4 Rh0 2.806821 1_555
Hf4 Rh1 2.806829 1_554
Hf4 Hf9 3.215020 1_565
Hf4 Hf6 3.215020 1_564
Hf5 Nb0 2.978486 1_455
Hf5 Hf9 3.132346 1_456
Hf5 Hf6 3.132350 1_455
Hf5 Hf8 3.180417 1_545
Hf5 Hf7 3.180421 1_546
Hf6 Rh1 2.868326 1_545
Hf6 Nb0 2.937290 1_555
Hf6 Hf9 3.125054 1_556
Hf6 Hf8 3.228000 1_645
Hf7 Rh0 2.877239 1_455
Hf7 Hf9 3.228000 1_465
Hf8 Rh1 2.877250 1_455
Hf9 Rh0 2.868323 1_545
Hf9 Nb0 2.937295 1_554
Hf10 Nb0 3.016533 1_554
Hf10 Hf9 3.149323 1_555
Hf10 Hf6 3.149323 1_554
Hf11 Rh1 2.987696 1_445
Hf11 Rh0 2.987704 1_445
Hf11 Hf6 3.200579 1_455
Hf11 Hf9 3.200586 1_455
Hf12 Rh0 2.926389 1_545
Hf12 Hf5 3.177988 1_555
Hf12 Hf9 3.208420 1_555
Hf13 Nb0 3.058745 1_454
Hf13 Rh1 3.080121 1_454
Hf13 Hf9 3.147271 1_455
Hf13 Hf5 3.162053 1_554
Hf14 Nb0 3.058738 1_455
Hf14 Rh0 3.080118 1_455
Hf14 Hf6 3.147271 1_455
Hf14 Hf5 3.162061 1_555
Hf15 Rh1 2.926392 1_544
Hf15 Hf5 3.177981 1_554
Hf15 Hf6 3.208420 1_554
Nb0 Rh1 2.801047 1_555
Nb0 Rh0 2.801047 1_555
Co0 Hf14 2.505401 1_655
Co0 Hf13 2.505413 1_655
Co0 Hf11 2.506489 1_655
Co0 Hf3 2.537737 1_555
Co0 Hf2 2.537754 1_555
Co0 Hf1 2.566523 1_555
Co0 Hf6 3.090462 1_555
Co0 Hf9 3.090477 1_555
Co1 Hf11 2.504145 1_565
Co1 Hf12 2.517040 1_565
Co1 Hf15 2.517053 1_565
Co1 Hf3 2.536410 1_555
Co1 Hf2 2.536427 1_555
Co1 Hf0 2.543025 1_555
Co2 Hf13 2.497717 1_556
Co2 Hf10 2.512202 1_556
Co2 Hf15 2.522907 1_556
Co2 Hf0 2.536530 1_555
Co2 Hf3 2.536768 1_555
Co2 Hf1 2.560704 1_555
Co2 Hf5 3.086140 1_555
Co2 Hf6 3.095651 1_555
Co3 Hf14 2.497722 1_555
Co3 Hf10 2.512218 1_555
Co3 Hf12 2.522912 1_555
Co3 Hf0 2.536505 1_555
Co3 Hf2 2.536766 1_555
Co3 Hf1 2.560686 1_555
Co3 Hf5 3.086135 1_555
Co3 Hf9 3.095656 1_555
Co4 Hf8 2.705289 1_555
Co4 Hf7 2.705300 1_556
Co4 Hf5 2.793287 1_565
Co4 Nb0 2.826301 1_555
Co4 Hf15 2.951295 1_566
Co4 Hf12 2.951295 1_565
Co4 Rh1 2.978895 1_555
Co4 Rh0 2.978900 1_555
Co4 Hf1 3.011527 1_565
Co4 Hf10 3.045507 1_556
Co4 Hf2 3.090677 1_556
Co4 Hf3 3.090684 1_555
Rh0 Rh1 2.949642 1_555
