# generated using pymatgen
data_Hf6CoBi2
_symmetry_space_group_name_H-M   'P 1'
_cell_length_a   15.60511884
_cell_length_b   15.60512000
_cell_length_c   7.22837614
_cell_angle_alpha   90.00000000
_cell_angle_beta   90.00000000
_cell_angle_gamma   120.00000186
_symmetry_Int_Tables_number   1
_chemical_formula_structural   Hf6CoBi2
_chemical_formula_sum   'Hf48 Co8 Bi16'
_cell_volume   1524.42323775
_cell_formula_units_Z   8
loop_
 _symmetry_equiv_pos_site_id
 _symmetry_equiv_pos_as_xyz
  1  'x, y, z'
loop_
 _atom_site_type_symbol
 _atom_site_label
 _atom_site_symmetry_multiplicity
 _atom_site_fract_x
 _atom_site_fract_y
 _atom_site_fract_z
 _atom_site_occupancy
  Hf  Hf0_0  1  0.30572147  0.00000000  0.25000000  1
  Hf  Hf0_1  1  0.30572147  0.00000000  0.75000000  1
  Hf  Hf0_2  1  0.30572147  0.50000000  0.25000000  1
  Hf  Hf0_3  1  0.30572147  0.50000000  0.75000000  1
  Hf  Hf0_4  1  0.80572146  0.00000000  0.25000000  1
  Hf  Hf0_5  1  0.80572146  0.00000000  0.75000000  1
  Hf  Hf0_6  1  0.80572146  0.50000000  0.25000000  1
  Hf  Hf0_7  1  0.80572146  0.50000000  0.75000000  1
  Hf  Hf1_0  1  0.19427853  0.19427853  0.25000000  1
  Hf  Hf1_1  1  0.19427853  0.19427853  0.75000000  1
  Hf  Hf1_2  1  0.19427853  0.69427853  0.25000000  1
  Hf  Hf1_3  1  0.19427853  0.69427853  0.75000000  1
  Hf  Hf1_4  1  0.69427854  0.19427853  0.25000000  1
  Hf  Hf1_5  1  0.69427854  0.19427853  0.75000000  1
  Hf  Hf1_6  1  0.69427853  0.69427853  0.25000000  1
  Hf  Hf1_7  1  0.69427853  0.69427853  0.75000000  1
  Hf  Hf2_0  1  0.00000000  0.30572147  0.25000000  1
  Hf  Hf2_1  1  0.00000000  0.30572147  0.75000000  1
  Hf  Hf2_2  1  0.00000000  0.80572146  0.25000000  1
  Hf  Hf2_3  1  0.00000000  0.80572146  0.75000000  1
  Hf  Hf2_4  1  0.50000000  0.30572147  0.25000000  1
  Hf  Hf2_5  1  0.50000000  0.30572147  0.75000000  1
  Hf  Hf2_6  1  0.50000000  0.80572146  0.25000000  1
  Hf  Hf2_7  1  0.50000000  0.80572146  0.75000000  1
  Hf  Hf3_0  1  0.11669456  0.00000000  0.00000000  1
  Hf  Hf3_1  1  0.11669456  0.00000000  0.50000000  1
  Hf  Hf3_2  1  0.11669456  0.50000000  0.00000000  1
  Hf  Hf3_3  1  0.11669456  0.50000000  0.50000000  1
  Hf  Hf3_4  1  0.61669456  0.00000000  0.00000000  1
  Hf  Hf3_5  1  0.61669456  0.00000000  0.50000000  1
  Hf  Hf3_6  1  0.61669456  0.50000000  0.00000000  1
  Hf  Hf3_7  1  0.61669456  0.50000000  0.50000000  1
  Hf  Hf4_0  1  0.38330544  0.38330544  0.00000000  1
  Hf  Hf4_1  1  0.38330544  0.38330544  0.50000000  1
  Hf  Hf4_2  1  0.38330544  0.88330544  0.00000000  1
  Hf  Hf4_3  1  0.38330544  0.88330544  0.50000000  1
  Hf  Hf4_4  1  0.88330544  0.38330544  0.00000000  1
  Hf  Hf4_5  1  0.88330544  0.38330544  0.50000000  1
  Hf  Hf4_6  1  0.88330544  0.88330544  0.00000000  1
  Hf  Hf4_7  1  0.88330544  0.88330544  0.50000000  1
  Hf  Hf5_0  1  0.00000000  0.11669456  0.00000000  1
  Hf  Hf5_1  1  0.00000000  0.11669456  0.50000000  1
  Hf  Hf5_2  1  0.00000000  0.61669456  0.00000000  1
  Hf  Hf5_3  1  0.00000000  0.61669456  0.50000000  1
  Hf  Hf5_4  1  0.50000000  0.11669456  0.00000000  1
  Hf  Hf5_5  1  0.50000000  0.11669456  0.50000000  1
  Hf  Hf5_6  1  0.50000000  0.61669456  0.00000000  1
  Hf  Hf5_7  1  0.50000000  0.61669456  0.50000000  1
  Co  Co0_0  1  0.00000000  0.00000000  0.25000000  1
  Co  Co0_1  1  0.00000000  0.00000000  0.75000000  1
  Co  Co0_2  1  0.00000000  0.50000000  0.25000000  1
  Co  Co0_3  1  0.00000000  0.50000000  0.75000000  1
  Co  Co0_4  1  0.50000000  0.00000000  0.25000000  1
  Co  Co0_5  1  0.50000000  0.00000000  0.75000000  1
  Co  Co0_6  1  0.50000000  0.50000000  0.25000000  1
  Co  Co0_7  1  0.50000000  0.50000000  0.75000000  1
  Bi  Bi0_0  1  0.16666650  0.33333350  0.00000000  1
  Bi  Bi0_1  1  0.16666650  0.33333350  0.50000000  1
  Bi  Bi0_2  1  0.16666650  0.83333350  0.00000000  1
  Bi  Bi0_3  1  0.16666650  0.83333350  0.50000000  1
  Bi  Bi0_4  1  0.66666650  0.33333350  0.00000000  1
  Bi  Bi0_5  1  0.66666650  0.33333350  0.50000000  1
  Bi  Bi0_6  1  0.66666650  0.83333350  0.00000000  1
  Bi  Bi0_7  1  0.66666650  0.83333350  0.50000000  1
  Bi  Bi1_0  1  0.33333350  0.16666650  0.00000000  1
  Bi  Bi1_1  1  0.33333350  0.16666650  0.50000000  1
  Bi  Bi1_2  1  0.33333350  0.66666650  0.00000000  1
  Bi  Bi1_3  1  0.33333350  0.66666650  0.50000000  1
  Bi  Bi1_4  1  0.83333350  0.16666650  0.00000000  1
  Bi  Bi1_5  1  0.83333350  0.16666650  0.50000000  1
  Bi  Bi1_6  1  0.83333350  0.66666650  0.00000000  1
  Bi  Bi1_7  1  0.83333350  0.66666650  0.50000000  1
loop_
_geom_bond_atom_site_label_1
_geom_bond_atom_site_label_2
_geom_bond_distance
_geom_bond_site_symmetry_2
Hf0_0 Hf5_4 3.201921 1_555
Hf0_0 Hf5_5 3.201921 1_555
Hf0_0 Hf4_3 3.201921 1_545
Hf0_0 Hf4_2 3.201921 1_545
Hf0_0 Hf3_0 3.459311 1_555
Hf0_0 Hf3_1 3.459311 1_555
Hf0_0 Hf0_1 3.614188 1_555
Hf0_0 Hf0_1 3.614188 1_554
Hf0_1 Hf5_4 3.201921 1_556
Hf0_1 Hf5_5 3.201921 1_555
Hf0_1 Hf4_2 3.201921 1_546
Hf0_1 Hf4_3 3.201921 1_545
Hf0_1 Hf3_0 3.459311 1_556
Hf0_1 Hf3_1 3.459311 1_555
Hf0_2 Hf5_6 3.201921 1_555
Hf0_2 Hf5_7 3.201921 1_555
Hf0_2 Hf4_0 3.201921 1_555
Hf0_2 Hf4_1 3.201921 1_555
Hf0_2 Hf3_2 3.459311 1_555
Hf0_2 Hf3_3 3.459311 1_555
Hf0_2 Hf0_3 3.614188 1_554
Hf0_2 Hf0_3 3.614188 1_555
Hf0_3 Hf5_6 3.201921 1_556
Hf0_3 Hf5_7 3.201921 1_555
Hf0_3 Hf4_0 3.201921 1_556
Hf0_3 Hf4_1 3.201921 1_555
Hf0_3 Hf3_3 3.459311 1_555
Hf0_3 Hf3_2 3.459311 1_556
Hf0_4 Hf5_1 3.201921 1_655
Hf0_4 Hf5_0 3.201921 1_655
Hf0_4 Hf4_7 3.201921 1_545
Hf0_4 Hf4_6 3.201921 1_545
Hf0_4 Hf3_4 3.459311 1_555
Hf0_4 Hf3_5 3.459311 1_555
Hf0_4 Hf0_5 3.614188 1_554
Hf0_4 Hf0_5 3.614188 1_555
Hf0_5 Hf5_1 3.201921 1_655
Hf0_5 Hf5_0 3.201921 1_656
Hf0_5 Hf4_6 3.201921 1_546
Hf0_5 Hf4_7 3.201921 1_545
Hf0_5 Hf3_5 3.459311 1_555
Hf0_5 Hf3_4 3.459311 1_556
Hf0_6 Hf5_2 3.201921 1_655
Hf0_6 Hf5_3 3.201921 1_655
Hf0_6 Hf4_4 3.201921 1_555
Hf0_6 Hf4_5 3.201921 1_555
Hf0_6 Hf3_6 3.459311 1_555
Hf0_6 Hf3_7 3.459311 1_555
Hf0_6 Hf0_7 3.614188 1_554
Hf0_6 Hf0_7 3.614188 1_555
Hf0_7 Hf5_2 3.201921 1_656
Hf0_7 Hf5_3 3.201921 1_655
Hf0_7 Hf4_4 3.201921 1_556
Hf0_7 Hf4_5 3.201921 1_555
Hf0_7 Hf3_6 3.459311 1_556
Hf0_7 Hf3_7 3.459311 1_555
Hf1_0 Hf5_1 3.201921 1_555
Hf1_0 Hf5_0 3.201921 1_555
Hf1_0 Hf3_0 3.201921 1_555
Hf1_0 Hf3_1 3.201921 1_555
Hf1_0 Hf4_0 3.459311 1_555
Hf1_0 Hf4_1 3.459311 1_555
Hf1_0 Hf1_1 3.614188 1_555
Hf1_0 Hf1_1 3.614188 1_554
Hf1_1 Hf5_1 3.201921 1_555
Hf1_1 Hf5_0 3.201921 1_556
Hf1_1 Hf3_0 3.201921 1_556
Hf1_1 Hf3_1 3.201921 1_555
Hf1_1 Hf4_0 3.459311 1_556
Hf1_1 Hf4_1 3.459311 1_555
Hf1_2 Hf5_2 3.201921 1_555
Hf1_2 Hf5_3 3.201921 1_555
Hf1_2 Hf3_3 3.201921 1_555
Hf1_2 Hf3_2 3.201921 1_555
Hf1_2 Hf4_3 3.459311 1_555
Hf1_2 Hf4_2 3.459311 1_555
Hf1_2 Hf1_3 3.614188 1_555
Hf1_2 Hf1_3 3.614188 1_554
Hf1_3 Hf5_3 3.201921 1_555
Hf1_3 Hf5_2 3.201921 1_556
Hf1_3 Hf3_3 3.201921 1_555
Hf1_3 Hf3_2 3.201921 1_556
Hf1_3 Hf4_3 3.459311 1_555
Hf1_3 Hf4_2 3.459311 1_556
Hf1_4 Hf5_4 3.201921 1_555
Hf1_4 Hf5_5 3.201921 1_555
Hf1_4 Hf3_4 3.201921 1_555
Hf1_4 Hf3_5 3.201921 1_555
Hf1_4 Hf4_4 3.459311 1_555
Hf1_4 Hf4_5 3.459311 1_555
Hf1_4 Hf1_5 3.614188 1_554
Hf1_4 Hf1_5 3.614188 1_555
Hf1_5 Hf5_5 3.201921 1_555
Hf1_5 Hf5_4 3.201921 1_556
Hf1_5 Hf3_4 3.201921 1_556
Hf1_5 Hf3_5 3.201921 1_555
Hf1_5 Hf4_4 3.459311 1_556
Hf1_5 Hf4_5 3.459311 1_555
Hf1_6 Hf5_6 3.201921 1_555
Hf1_6 Hf5_7 3.201921 1_555
Hf1_6 Hf3_6 3.201921 1_555
Hf1_6 Hf3_7 3.201921 1_555
Hf1_6 Hf4_6 3.459311 1_555
Hf1_6 Hf4_7 3.459311 1_555
Hf1_6 Hf1_7 3.614188 1_555
Hf1_6 Hf1_7 3.614188 1_554
Hf1_7 Hf5_6 3.201921 1_556
Hf1_7 Hf5_7 3.201921 1_555
Hf1_7 Hf3_6 3.201921 1_556
Hf1_7 Hf3_7 3.201921 1_555
Hf1_7 Hf4_6 3.459311 1_556
Hf1_7 Hf4_7 3.459311 1_555
Hf2_0 Hf4_5 3.201921 1_455
Hf2_0 Hf4_4 3.201921 1_455
Hf2_0 Hf3_3 3.201921 1_555
Hf2_0 Hf3_2 3.201921 1_555
Hf2_0 Hf5_0 3.459311 1_555
Hf2_0 Hf5_1 3.459311 1_555
Hf2_0 Hf2_1 3.614188 1_555
Hf2_0 Hf2_1 3.614188 1_554
Hf2_1 Hf4_5 3.201921 1_455
Hf2_1 Hf4_4 3.201921 1_456
Hf2_1 Hf3_3 3.201921 1_555
Hf2_1 Hf3_2 3.201921 1_556
Hf2_1 Hf5_0 3.459311 1_556
Hf2_1 Hf5_1 3.459311 1_555
Hf2_2 Hf4_7 3.201921 1_455
Hf2_2 Hf4_6 3.201921 1_455
Hf2_2 Hf3_1 3.201921 1_565
Hf2_2 Hf3_0 3.201921 1_565
Hf2_2 Hf5_2 3.459311 1_555
Hf2_2 Hf5_3 3.459311 1_555
Hf2_2 Hf2_3 3.614188 1_554
Hf2_2 Hf2_3 3.614188 1_555
Hf2_3 Hf4_7 3.201921 1_455
Hf2_3 Hf4_6 3.201921 1_456
Hf2_3 Hf3_0 3.201921 1_566
Hf2_3 Hf3_1 3.201921 1_565
Hf2_3 Hf5_3 3.459311 1_555
Hf2_3 Hf5_2 3.459311 1_556
Hf2_4 Hf4_0 3.201921 1_555
Hf2_4 Hf4_1 3.201921 1_555
Hf2_4 Hf3_7 3.201921 1_555
Hf2_4 Hf3_6 3.201921 1_555
Hf2_4 Hf5_4 3.459311 1_555
Hf2_4 Hf5_5 3.459311 1_555
Hf2_4 Hf2_5 3.614188 1_554
Hf2_4 Hf2_5 3.614188 1_555
Hf2_5 Hf4_0 3.201921 1_556
Hf2_5 Hf4_1 3.201921 1_555
Hf2_5 Hf3_7 3.201921 1_555
Hf2_5 Hf3_6 3.201921 1_556
Hf2_5 Hf5_5 3.459311 1_555
Hf2_5 Hf5_4 3.459311 1_556
Hf2_6 Hf4_3 3.201921 1_555
Hf2_6 Hf4_2 3.201921 1_555
Hf2_6 Hf3_5 3.201921 1_565
Hf2_6 Hf3_4 3.201921 1_565
Hf2_6 Hf5_7 3.459311 1_555
Hf2_6 Hf5_6 3.459311 1_555
Hf2_6 Hf2_7 3.614188 1_555
Hf2_6 Hf2_7 3.614188 1_554
Hf2_7 Hf4_3 3.201921 1_555
Hf2_7 Hf4_2 3.201921 1_556
Hf2_7 Hf3_4 3.201921 1_566
Hf2_7 Hf3_5 3.201921 1_565
Hf2_7 Hf5_6 3.459311 1_556
Hf2_7 Hf5_7 3.459311 1_555
Co0_0 Hf3_1 2.565492 1_555
Co0_0 Hf3_0 2.565492 1_555
Co0_0 Hf4_7 2.565492 1_445
Co0_0 Hf4_6 2.565492 1_445
Co0_0 Hf5_1 2.565492 1_555
Co0_0 Hf5_0 2.565492 1_555
Co0_0 Hf0_4 3.031740 1_455
Co0_0 Hf1_0 3.031740 1_555
Co0_0 Hf2_2 3.031740 1_545
Co0_1 Hf3_1 2.565492 1_555
Co0_1 Hf3_0 2.565492 1_556
Co0_1 Hf4_7 2.565492 1_445
Co0_1 Hf4_6 2.565492 1_446
Co0_1 Hf5_1 2.565492 1_555
Co0_1 Hf5_0 2.565492 1_556
Co0_1 Hf0_5 3.031740 1_455
Co0_1 Hf1_1 3.031740 1_555
Co0_1 Hf2_3 3.031740 1_545
Co0_2 Hf3_3 2.565492 1_555
Co0_2 Hf3_2 2.565492 1_555
Co0_2 Hf4_4 2.565492 1_455
Co0_2 Hf4_5 2.565492 1_455
Co0_2 Hf5_2 2.565492 1_555
Co0_2 Hf5_3 2.565492 1_555
Co0_2 Hf0_6 3.031740 1_455
Co0_2 Hf1_2 3.031740 1_555
Co0_2 Hf2_0 3.031740 1_555
Co0_3 Hf3_3 2.565492 1_555
Co0_3 Hf3_2 2.565492 1_556
Co0_3 Hf4_5 2.565492 1_455
Co0_3 Hf4_4 2.565492 1_456
Co0_3 Hf5_3 2.565492 1_555
Co0_3 Hf5_2 2.565492 1_556
Co0_3 Hf0_7 3.031740 1_455
Co0_3 Hf1_3 3.031740 1_555
Co0_3 Hf2_1 3.031740 1_555
Co0_4 Hf3_4 2.565492 1_555
Co0_4 Hf3_5 2.565492 1_555
Co0_4 Hf4_3 2.565492 1_545
Co0_4 Hf4_2 2.565492 1_545
Co0_4 Hf5_4 2.565492 1_555
Co0_4 Hf5_5 2.565492 1_555
Co0_4 Hf0_0 3.031740 1_555
Co0_4 Hf1_4 3.031740 1_555
Co0_4 Hf2_6 3.031740 1_545
Co0_5 Hf3_4 2.565492 1_556
Co0_5 Hf3_5 2.565492 1_555
Co0_5 Hf4_2 2.565492 1_546
Co0_5 Hf4_3 2.565492 1_545
Co0_5 Hf5_4 2.565492 1_556
Co0_5 Hf5_5 2.565492 1_555
Co0_5 Hf0_1 3.031740 1_555
Co0_5 Hf1_5 3.031740 1_555
Co0_5 Hf2_7 3.031740 1_545
Co0_6 Hf3_6 2.565492 1_555
Co0_6 Hf3_7 2.565492 1_555
Co0_6 Hf4_0 2.565492 1_555
Co0_6 Hf4_1 2.565492 1_555
Co0_6 Hf5_6 2.565492 1_555
Co0_6 Hf5_7 2.565492 1_555
Co0_6 Hf0_2 3.031740 1_555
Co0_6 Hf1_6 3.031740 1_555
Co0_6 Hf2_4 3.031740 1_555
Co0_7 Hf3_6 2.565492 1_556
Co0_7 Hf3_7 2.565492 1_555
Co0_7 Hf4_0 2.565492 1_556
Co0_7 Hf4_1 2.565492 1_555
Co0_7 Hf5_6 2.565492 1_556
Co0_7 Hf5_7 2.565492 1_555
Co0_7 Hf0_3 3.031740 1_555
Co0_7 Hf1_7 3.031740 1_555
Co0_7 Hf2_5 3.031740 1_555
Bi0_0 Hf2_0 3.015792 1_555
Bi0_0 Hf2_1 3.015792 1_554
Bi0_0 Hf0_3 3.015794 1_554
Bi0_0 Hf0_2 3.015794 1_555
Bi0_0 Hf1_1 3.015798 1_554
Bi0_0 Hf1_0 3.015798 1_555
Bi0_0 Hf3_2 3.066061 1_555
Bi0_0 Hf5_0 3.066066 1_555
Bi0_0 Hf4_0 3.066069 1_555
Bi0_1 Hf2_0 3.015792 1_555
Bi0_1 Hf2_1 3.015792 1_555
Bi0_1 Hf0_3 3.015794 1_555
Bi0_1 Hf0_2 3.015794 1_555
Bi0_1 Hf1_1 3.015798 1_555
Bi0_1 Hf1_0 3.015798 1_555
Bi0_1 Hf3_3 3.066061 1_555
Bi0_1 Hf5_1 3.066066 1_555
Bi0_1 Hf4_1 3.066069 1_555
Bi0_2 Hf2_2 3.015792 1_555
Bi0_2 Hf2_3 3.015792 1_554
Bi0_2 Hf0_0 3.015794 1_565
Bi0_2 Hf0_1 3.015794 1_564
Bi0_2 Hf1_3 3.015798 1_554
Bi0_2 Hf1_2 3.015798 1_555
Bi0_2 Hf3_0 3.066061 1_565
Bi0_2 Hf5_2 3.066066 1_555
Bi0_2 Hf4_2 3.066069 1_555
Bi0_3 Hf2_3 3.015792 1_555
Bi0_3 Hf2_2 3.015792 1_555
Bi0_3 Hf0_0 3.015794 1_565
Bi0_3 Hf0_1 3.015794 1_565
Bi0_3 Hf1_2 3.015798 1_555
Bi0_3 Hf1_3 3.015798 1_555
Bi0_3 Hf3_1 3.066061 1_565
Bi0_3 Hf5_3 3.066066 1_555
Bi0_3 Hf4_3 3.066069 1_555
Bi0_4 Hf2_4 3.015792 1_555
Bi0_4 Hf2_5 3.015792 1_554
Bi0_4 Hf0_6 3.015794 1_555
Bi0_4 Hf0_7 3.015794 1_554
Bi0_4 Hf1_4 3.015798 1_555
Bi0_4 Hf1_5 3.015798 1_554
Bi0_4 Hf3_6 3.066061 1_555
Bi0_4 Hf5_4 3.066066 1_555
Bi0_4 Hf4_4 3.066069 1_555
Bi0_5 Hf2_4 3.015792 1_555
Bi0_5 Hf2_5 3.015792 1_555
Bi0_5 Hf0_6 3.015794 1_555
Bi0_5 Hf0_7 3.015794 1_555
Bi0_5 Hf1_4 3.015798 1_555
Bi0_5 Hf1_5 3.015798 1_555
Bi0_5 Hf3_7 3.066061 1_555
Bi0_5 Hf5_5 3.066066 1_555
Bi0_5 Hf4_5 3.066069 1_555
Bi0_6 Hf2_7 3.015792 1_554
Bi0_6 Hf2_6 3.015792 1_555
Bi0_6 Hf0_5 3.015794 1_564
Bi0_6 Hf0_4 3.015794 1_565
Bi0_6 Hf1_7 3.015798 1_554
Bi0_6 Hf1_6 3.015798 1_555
Bi0_6 Hf3_4 3.066061 1_565
Bi0_6 Hf5_6 3.066066 1_555
Bi0_6 Hf4_6 3.066069 1_555
Bi0_7 Hf2_7 3.015792 1_555
Bi0_7 Hf2_6 3.015792 1_555
Bi0_7 Hf0_5 3.015794 1_565
Bi0_7 Hf0_4 3.015794 1_565
Bi0_7 Hf1_7 3.015798 1_555
Bi0_7 Hf1_6 3.015798 1_555
Bi0_7 Hf3_5 3.066061 1_565
Bi0_7 Hf5_7 3.066066 1_555
Bi0_7 Hf4_7 3.066069 1_555
Bi1_0 Hf0_0 3.015792 1_555
Bi1_0 Hf0_1 3.015792 1_554
Bi1_0 Hf2_4 3.015794 1_555
Bi1_0 Hf2_5 3.015794 1_554
Bi1_0 Hf1_1 3.015798 1_554
Bi1_0 Hf1_0 3.015798 1_555
Bi1_0 Hf5_4 3.066061 1_555
Bi1_0 Hf3_0 3.066066 1_555
Bi1_0 Hf4_0 3.066069 1_555
Bi1_1 Hf0_1 3.015792 1_555
Bi1_1 Hf0_0 3.015792 1_555
Bi1_1 Hf2_4 3.015794 1_555
Bi1_1 Hf2_5 3.015794 1_555
Bi1_1 Hf1_1 3.015798 1_555
Bi1_1 Hf1_0 3.015798 1_555
Bi1_1 Hf5_5 3.066061 1_555
Bi1_1 Hf3_1 3.066066 1_555
Bi1_1 Hf4_1 3.066069 1_555
Bi1_2 Hf0_2 3.015792 1_555
Bi1_2 Hf0_3 3.015792 1_554
Bi1_2 Hf2_6 3.015794 1_555
Bi1_2 Hf2_7 3.015794 1_554
Bi1_2 Hf1_3 3.015798 1_554
Bi1_2 Hf1_2 3.015798 1_555
Bi1_2 Hf5_6 3.066061 1_555
Bi1_2 Hf3_2 3.066066 1_555
Bi1_2 Hf4_2 3.066069 1_555
Bi1_3 Hf0_3 3.015792 1_555
Bi1_3 Hf0_2 3.015792 1_555
Bi1_3 Hf2_6 3.015794 1_555
Bi1_3 Hf2_7 3.015794 1_555
Bi1_3 Hf1_2 3.015798 1_555
Bi1_3 Hf1_3 3.015798 1_555
Bi1_3 Hf5_7 3.066061 1_555
Bi1_3 Hf3_3 3.066066 1_555
Bi1_3 Hf4_3 3.066069 1_555
Bi1_4 Hf0_5 3.015792 1_554
Bi1_4 Hf0_4 3.015792 1_555
Bi1_4 Hf2_1 3.015794 1_654
Bi1_4 Hf2_0 3.015794 1_655
Bi1_4 Hf1_4 3.015798 1_555
Bi1_4 Hf1_5 3.015798 1_554
Bi1_4 Hf5_0 3.066061 1_655
Bi1_4 Hf3_4 3.066066 1_555
Bi1_4 Hf4_4 3.066069 1_555
Bi1_5 Hf0_5 3.015792 1_555
Bi1_5 Hf0_4 3.015792 1_555
Bi1_5 Hf2_0 3.015794 1_655
Bi1_5 Hf2_1 3.015794 1_655
Bi1_5 Hf1_4 3.015798 1_555
Bi1_5 Hf1_5 3.015798 1_555
Bi1_5 Hf5_1 3.066061 1_655
Bi1_5 Hf3_5 3.066066 1_555
Bi1_5 Hf4_5 3.066069 1_555
Bi1_6 Hf0_7 3.015792 1_554
Bi1_6 Hf0_6 3.015792 1_555
Bi1_6 Hf2_2 3.015794 1_655
Bi1_6 Hf2_3 3.015794 1_654
Bi1_6 Hf1_7 3.015798 1_554
Bi1_6 Hf1_6 3.015798 1_555
Bi1_6 Hf5_2 3.066061 1_655
Bi1_6 Hf3_6 3.066066 1_555
Bi1_6 Hf4_6 3.066069 1_555
Bi1_7 Hf0_7 3.015792 1_555
Bi1_7 Hf0_6 3.015792 1_555
Bi1_7 Hf2_2 3.015794 1_655
Bi1_7 Hf2_3 3.015794 1_655
Bi1_7 Hf1_7 3.015798 1_555
Bi1_7 Hf1_6 3.015798 1_555
Bi1_7 Hf5_3 3.066061 1_655
Bi1_7 Hf3_7 3.066066 1_555
Bi1_7 Hf4_7 3.066069 1_555
