# generated using pymatgen
data_SrLi2SnS4
_symmetry_space_group_name_H-M   'P 1'
_cell_length_a   6.42076071
_cell_length_b   6.42075994
_cell_length_c   15.82059461
_cell_angle_alpha   90.00000000
_cell_angle_beta   90.00000000
_cell_angle_gamma   120.00000905
_symmetry_Int_Tables_number   1
_chemical_formula_structural   SrLi2SnS4
_chemical_formula_sum   'Sr3 Li6 Sn3 S12'
_cell_volume   564.84112837
_cell_formula_units_Z   3
loop_
 _symmetry_equiv_pos_site_id
 _symmetry_equiv_pos_as_xyz
  1  'x, y, z'
loop_
 _atom_site_type_symbol
 _atom_site_label
 _atom_site_symmetry_multiplicity
 _atom_site_fract_x
 _atom_site_fract_y
 _atom_site_fract_z
 _atom_site_occupancy
  Sr  Sr0  1  0.54240782  1.00000000  0.83333300  1
  Sr  Sr1  1  1.00000000  0.54240782  0.16666700  1
  Sr  Sr2  1  0.45759218  0.45759218  0.50000000  1
  Li  Li0  1  0.42548595  0.33198132  0.25672691  1
  Li  Li1  1  0.57451405  0.90649537  0.07660609  1
  Li  Li2  1  0.33198132  0.42548595  0.74327309  1
  Li  Li3  1  0.66801868  0.09350463  0.59005991  1
  Li  Li4  1  0.90649537  0.57451405  0.92339391  1
  Li  Li5  1  0.09350463  0.66801868  0.40994009  1
  Sn  Sn0  1  0.73182832  1.00000000  0.33333300  1
  Sn  Sn1  1  0.26817168  0.26817168  0.00000000  1
  Sn  Sn2  1  1.00000000  0.73182832  0.66666700  1
  S  S0  1  0.77702584  0.65134058  0.32787878  1
  S  S1  1  0.87431374  0.22297416  0.99454478  1
  S  S2  1  0.34865942  0.12568626  0.66121178  1
  S  S3  1  0.12568626  0.34865942  0.33878822  1
  S  S4  1  0.22297416  0.87431374  0.00545522  1
  S  S5  1  0.65134058  0.77702584  0.67212122  1
  S  S6  1  0.95472307  0.48885744  0.54665776  1
  S  S7  1  0.53413437  0.04527693  0.21332376  1
  S  S8  1  0.04527693  0.53413437  0.78667624  1
  S  S9  1  0.48885744  0.95472307  0.45334224  1
  S  S10  1  0.46586563  0.51114256  0.12000924  1
  S  S11  1  0.51114256  0.46586563  0.87999076  1
loop_
_geom_bond_atom_site_label_1
_geom_bond_atom_site_label_2
_geom_bond_distance
_geom_bond_site_symmetry_2
Li0 S3 2.368223 1_555
Li0 S7 2.372998 1_555
Li0 S10 2.402218 1_555
Li0 S0 2.436837 1_555
Li1 S1 2.368225 1_564
Li1 S10 2.372998 1_555
Li1 S7 2.402218 1_565
Li1 S4 2.436827 1_555
Li2 S2 2.368223 1_555
Li2 S8 2.372998 1_555
Li2 S11 2.402218 1_555
Li2 S5 2.436837 1_555
Li3 S5 2.368228 1_545
Li3 S6 2.372993 1_555
Li3 S9 2.402218 1_545
Li3 S2 2.436840 1_555
Li4 S4 2.368225 1_656
Li4 S11 2.372998 1_555
Li4 S8 2.402218 1_655
Li4 S1 2.436827 1_555
Li5 S0 2.368228 1_455
Li5 S9 2.372993 1_555
Li5 S6 2.402218 1_455
Li5 S3 2.436840 1_555
S0 Sn0 2.398524 1_555
S0 Sr1 3.169400 1_555
S0 Sr2 3.258493 1_555
S1 Sn1 2.398532 1_656
S1 Sr0 3.169397 1_545
S1 Sr1 3.258505 1_556
S2 Sn2 2.398528 1_445
S2 Sr2 3.169396 1_555
S2 Sr0 3.258495 1_545
S3 Sn0 2.398529 1_445
S3 Sr2 3.169396 1_555
S3 Sr1 3.258495 1_455
S4 Sn1 2.398531 1_565
S4 Sr1 3.169396 1_455
S4 Sr0 3.258505 1_554
S5 Sn2 2.398525 1_555
S5 Sr0 3.169399 1_555
S5 Sr2 3.258492 1_555
S6 Sn2 2.381074 1_555
S6 Sr2 3.183236 1_555
S6 Sr2 3.414455 1_655
S7 Sn0 2.381074 1_545
S7 Sr1 3.183232 1_555
S7 Sr1 3.414451 1_445
S8 Sn2 2.381074 1_455
S8 Sr0 3.183232 1_555
S8 Sr0 3.414451 1_445
S9 Sn0 2.381074 1_555
S9 Sr2 3.183236 1_555
S9 Sr2 3.414455 1_565
S10 Sn1 2.381074 1_555
S10 Sr1 3.183236 1_455
S10 Sr1 3.414455 1_555
S11 Sn1 2.381074 1_556
S11 Sr0 3.183236 1_545
S11 Sr0 3.414455 1_555
