# generated using pymatgen
data_Hf10Ga6Se
_symmetry_space_group_name_H-M   'P 1'
_cell_length_a   8.06644019
_cell_length_b   8.06644205
_cell_length_c   5.75951909
_cell_angle_alpha   90.00000000
_cell_angle_beta   90.00000000
_cell_angle_gamma   120.00001232
_symmetry_Int_Tables_number   1
_chemical_formula_structural   Hf10Ga6Se
_chemical_formula_sum   'Hf10 Ga6 Se1'
_cell_volume   324.54934454
_cell_formula_units_Z   1
loop_
 _symmetry_equiv_pos_site_id
 _symmetry_equiv_pos_as_xyz
  1  'x, y, z'
loop_
 _atom_site_type_symbol
 _atom_site_label
 _atom_site_symmetry_multiplicity
 _atom_site_fract_x
 _atom_site_fract_y
 _atom_site_fract_z
 _atom_site_occupancy
  Hf  Hf0  1  1.00000000  0.74192811  0.22993037  1
  Hf  Hf1  1  0.25807189  0.25807189  0.22993037  1
  Hf  Hf2  1  0.74192811  1.00000000  0.22993037  1
  Hf  Hf3  1  0.00000000  0.25807189  0.77006963  1
  Hf  Hf4  1  0.74192811  0.74192811  0.77006963  1
  Hf  Hf5  1  0.25807189  0.00000000  0.77006963  1
  Hf  Hf6  1  0.33333300  0.66666700  0.50000000  1
  Hf  Hf7  1  0.66666700  0.33333300  0.50000000  1
  Hf  Hf8  1  0.66666700  0.33333300  0.00000000  1
  Hf  Hf9  1  0.33333300  0.66666700  0.00000000  1
  Ga  Ga0  1  0.00000000  0.39194006  0.25122833  1
  Ga  Ga1  1  0.60805994  0.60805994  0.25122833  1
  Ga  Ga2  1  0.39194006  0.00000000  0.25122833  1
  Ga  Ga3  1  1.00000000  0.60805994  0.74877167  1
  Ga  Ga4  1  0.39194006  0.39194006  0.74877167  1
  Ga  Ga5  1  0.60805994  1.00000000  0.74877167  1
  Se  Se0  1  0.00000000  0.00000000  0.50000000  1
loop_
_geom_bond_atom_site_label_1
_geom_bond_atom_site_label_2
_geom_bond_distance
_geom_bond_site_symmetry_2
Hf0 Se0 2.598664 1_665
Hf1 Se0 2.598664 1_555
Hf2 Se0 2.598664 1_665
Hf3 Se0 2.598664 1_555
Hf4 Se0 2.598664 1_665
Hf5 Se0 2.598664 1_555
Ga0 Hf2 2.786143 1_445
Ga0 Hf1 2.786143 1_555
Ga0 Hf0 2.825822 1_455
Ga0 Hf7 2.869667 1_455
Ga0 Hf6 2.869670 1_555
Ga0 Hf8 2.876758 1_455
Ga0 Hf9 2.876760 1_555
Ga0 Hf3 2.974196 1_554
Ga0 Hf3 3.177397 1_555
Ga1 Hf0 2.786142 1_555
Ga1 Hf2 2.786143 1_555
Ga1 Hf1 2.825821 1_555
Ga1 Hf6 2.869674 1_555
Ga1 Hf7 2.869675 1_555
Ga1 Hf9 2.876765 1_555
Ga1 Hf8 2.876765 1_555
Ga1 Hf4 2.974196 1_554
Ga1 Hf4 3.177397 1_555
Ga2 Hf0 2.786142 1_445
Ga2 Hf1 2.786143 1_555
Ga2 Hf2 2.825821 1_545
Ga2 Hf6 2.869668 1_545
Ga2 Hf7 2.869670 1_555
Ga2 Hf9 2.876758 1_545
Ga2 Hf8 2.876760 1_555
Ga2 Hf5 2.974196 1_554
Ga2 Hf5 3.177397 1_555
Ga3 Hf5 2.786143 1_665
Ga3 Hf4 2.786143 1_555
Ga3 Hf3 2.825822 1_655
Ga3 Hf6 2.869667 1_655
Ga3 Hf7 2.869670 1_555
Ga3 Hf9 2.876758 1_656
Ga3 Hf8 2.876760 1_556
Ga3 Hf0 2.974196 1_556
Ga3 Hf0 3.177397 1_555
Ga4 Hf3 2.786142 1_555
Ga4 Hf5 2.786143 1_555
Ga4 Hf4 2.825821 1_555
Ga4 Hf7 2.869674 1_555
Ga4 Hf6 2.869675 1_555
Ga4 Hf8 2.876765 1_556
Ga4 Hf9 2.876765 1_556
Ga4 Hf1 2.974196 1_556
Ga4 Hf1 3.177397 1_555
Ga5 Hf3 2.786142 1_665
Ga5 Hf4 2.786143 1_555
Ga5 Hf5 2.825821 1_565
Ga5 Hf7 2.869668 1_565
Ga5 Hf6 2.869670 1_555
Ga5 Hf8 2.876758 1_566
Ga5 Hf9 2.876760 1_556
Ga5 Hf2 2.974196 1_556
Ga5 Hf2 3.177397 1_555
