# generated using pymatgen
data_Cs2KHg3F12
_symmetry_space_group_name_H-M   'P 1'
_cell_length_a   8.10496820
_cell_length_b   8.10496744
_cell_length_c   12.96879477
_cell_angle_alpha   73.36243627
_cell_angle_beta   73.36243825
_cell_angle_gamma   60.42831789
_symmetry_Int_Tables_number   1
_chemical_formula_structural   Cs2KHg3F12
_chemical_formula_sum   'Cs4 K2 Hg6 F24'
_cell_volume   699.10169378
_cell_formula_units_Z   2
loop_
 _symmetry_equiv_pos_site_id
 _symmetry_equiv_pos_as_xyz
  1  'x, y, z'
loop_
 _atom_site_type_symbol
 _atom_site_label
 _atom_site_symmetry_multiplicity
 _atom_site_fract_x
 _atom_site_fract_y
 _atom_site_fract_z
 _atom_site_occupancy
  Cs  Cs0  1  0.91216064  0.48629917  0.68766564  1
  Cs  Cs1  1  0.08783936  0.51370083  0.31233436  1
  Cs  Cs2  1  0.51370083  0.08783936  0.81233436  1
  Cs  Cs3  1  0.48629917  0.91216064  0.18766564  1
  K  K0  1  0.22825810  0.77174190  0.75000000  1
  K  K1  1  0.77174190  0.22825810  0.25000000  1
  Hg  Hg0  1  0.50000000  0.00000000  0.50000000  1
  Hg  Hg1  1  0.00000000  0.50000000  0.00000000  1
  Hg  Hg2  1  0.00000000  0.00000000  0.50000000  1
  Hg  Hg3  1  0.00000000  0.00000000  0.00000000  1
  Hg  Hg4  1  0.50000000  0.50000000  0.50000000  1
  Hg  Hg5  1  0.50000000  0.50000000  0.00000000  1
  F  F0  1  0.87227655  0.93088592  0.65754226  1
  F  F1  1  0.53210738  0.83674996  0.65424891  1
  F  F2  1  0.23962935  0.40058208  0.07253672  1
  F  F3  1  0.66369459  0.21584027  0.07287673  1
  F  F4  1  0.83674996  0.53210738  0.15424891  1
  F  F5  1  0.16325004  0.46789262  0.84575109  1
  F  F6  1  0.46789262  0.16325004  0.34575109  1
  F  F7  1  0.78415973  0.33630541  0.42712327  1
  F  F8  1  0.12772345  0.06911408  0.34245774  1
  F  F9  1  0.59941792  0.76037065  0.42746328  1
  F  F10  1  0.42901871  0.58617720  0.14681527  1
  F  F11  1  0.40058208  0.23962935  0.57253672  1
  F  F12  1  0.58617720  0.42901871  0.64681527  1
  F  F13  1  0.84947217  0.91831381  0.43337074  1
  F  F14  1  0.15052783  0.08168619  0.56662926  1
  F  F15  1  0.57098129  0.41382280  0.85318473  1
  F  F16  1  0.91831381  0.84947217  0.93337074  1
  F  F17  1  0.41382280  0.57098129  0.35318473  1
  F  F18  1  0.76037065  0.59941792  0.92746328  1
  F  F19  1  0.93088592  0.87227655  0.15754226  1
  F  F20  1  0.08168619  0.15052783  0.06662926  1
  F  F21  1  0.33630541  0.78415973  0.92712327  1
  F  F22  1  0.06911408  0.12772345  0.84245774  1
  F  F23  1  0.21584027  0.66369459  0.57287673  1
loop_
_geom_bond_atom_site_label_1
_geom_bond_atom_site_label_2
_geom_bond_distance
_geom_bond_site_symmetry_2
Cs0 F22 2.926917 1_655
Cs0 F1 3.027832 1_555
Cs0 F12 3.103204 1_555
Cs0 F15 3.175160 1_555
Cs0 F5 3.206458 1_655
Cs0 F18 3.217768 1_555
Cs0 F23 3.241993 1_655
Cs0 F0 3.370139 1_555
Cs0 F14 3.450861 1_655
Cs0 F11 3.522820 1_655
Cs1 F19 2.926917 1_455
Cs1 F6 3.027832 1_555
Cs1 F17 3.103204 1_555
Cs1 F10 3.175160 1_555
Cs1 F4 3.206458 1_455
Cs1 F2 3.217768 1_555
Cs1 F7 3.241993 1_455
Cs1 F8 3.370139 1_555
Cs1 F13 3.450861 1_455
Cs1 F9 3.522820 1_455
Cs2 F0 2.926917 1_545
Cs2 F5 3.027832 1_555
Cs2 F15 3.103204 1_555
Cs2 F12 3.175160 1_555
Cs2 F1 3.206458 1_545
Cs2 F11 3.217768 1_555
Cs2 F21 3.241993 1_545
Cs2 F22 3.370140 1_555
Cs2 F16 3.450861 1_545
Cs2 F18 3.522819 1_545
Cs3 F8 2.926917 1_565
Cs3 F4 3.027832 1_555
Cs3 F10 3.103204 1_555
Cs3 F17 3.175160 1_555
Cs3 F6 3.206458 1_565
Cs3 F9 3.217768 1_555
Cs3 F3 3.241993 1_565
Cs3 F19 3.370140 1_555
Cs3 F20 3.450861 1_565
Cs3 F2 3.522819 1_565
F0 Hg2 2.065344 1_665
F0 K0 2.974586 1_655
F1 Hg0 2.064626 1_565
F1 K0 2.653176 1_555
F2 Hg1 2.091367 1_555
F2 Hg5 2.468825 1_555
F3 Hg5 2.100809 1_555
F3 Hg3 2.479589 1_655
F3 K1 2.724859 1_555
F4 Hg1 2.064626 1_655
F4 K1 2.653176 1_555
F5 Hg1 2.064626 1_556
F5 K0 2.653176 1_555
F6 Hg0 2.064626 1_555
F6 K1 2.653176 1_555
F7 Hg4 2.100810 1_555
F7 Hg2 2.479589 1_655
F7 K1 2.724859 1_555
F8 Hg2 2.065344 1_555
F8 K1 2.974586 1_455
F9 Hg0 2.091367 1_565
F9 Hg4 2.468825 1_555
F10 Hg5 2.044939 1_555
F10 K1 3.142316 1_555
F11 Hg0 2.091367 1_555
F11 Hg4 2.468825 1_555
F12 Hg4 2.044939 1_555
F12 K0 3.142316 1_555
F13 Hg2 2.098092 1_665
F13 Hg0 2.506583 1_565
F13 K1 2.870152 1_565
F14 Hg2 2.098092 1_555
F14 Hg0 2.506583 1_555
F14 K0 2.870152 1_545
F15 Hg5 2.044939 1_556
F15 K0 3.142316 1_555
F16 Hg3 2.098092 1_666
F16 Hg1 2.506582 1_656
F16 K0 2.870152 1_655
F17 Hg4 2.044939 1_555
F17 K1 3.142316 1_555
F18 Hg1 2.091367 1_656
F18 Hg5 2.468825 1_556
F19 Hg3 2.065344 1_665
F19 K1 2.974586 1_565
F20 Hg3 2.098092 1_555
F20 Hg1 2.506582 1_555
F20 K1 2.870152 1_455
F21 Hg5 2.100809 1_556
F21 Hg3 2.479589 1_566
F21 K0 2.724859 1_555
F22 Hg3 2.065344 1_556
F22 K0 2.974586 1_545
F23 Hg4 2.100810 1_555
F23 Hg2 2.479589 1_565
F23 K0 2.724859 1_555
