# generated using pymatgen
data_Sr4InSiIr4
_symmetry_space_group_name_H-M   'P 1'
_cell_length_a   5.89687752
_cell_length_b   5.89687677
_cell_length_c   7.79514951
_cell_angle_alpha   80.19694375
_cell_angle_beta   80.19694488
_cell_angle_gamma   62.61405568
_symmetry_Int_Tables_number   1
_chemical_formula_structural   Sr4InSiIr4
_chemical_formula_sum   'Sr4 In1 Si1 Ir4'
_cell_volume   235.85620581
_cell_formula_units_Z   1
loop_
 _symmetry_equiv_pos_site_id
 _symmetry_equiv_pos_as_xyz
  1  'x, y, z'
loop_
 _atom_site_type_symbol
 _atom_site_label
 _atom_site_symmetry_multiplicity
 _atom_site_fract_x
 _atom_site_fract_y
 _atom_site_fract_z
 _atom_site_occupancy
  Sr  Sr0  1  0.99418410  0.72079620  0.13887215  1
  Sr  Sr1  1  0.27920380  0.00581590  0.36112785  1
  Sr  Sr2  1  0.01376717  0.28235371  0.86085786  1
  Sr  Sr3  1  0.71764629  0.98623283  0.63914214  1
  In  In0  1  0.40930746  0.59069254  0.75000000  1
  Si  Si0  1  0.56359745  0.43640255  0.25000000  1
  Ir  Ir0  1  0.50336501  0.78727294  0.01134531  1
  Ir  Ir1  1  0.21272706  0.49663499  0.48865469  1
  Ir  Ir2  1  0.52051027  0.21430560  0.03144476  1
  Ir  Ir3  1  0.78569440  0.47948973  0.46855524  1
loop_
_geom_bond_atom_site_label_1
_geom_bond_atom_site_label_2
_geom_bond_distance
_geom_bond_site_symmetry_2
In0 Ir0 2.753566 1_556
In0 Ir1 2.753566 1_555
In0 Ir2 2.768074 1_556
In0 Ir3 2.768074 1_555
In0 Sr3 3.362953 1_545
In0 Sr2 3.362953 1_655
In0 Sr3 3.489011 1_555
In0 Sr2 3.489011 1_555
In0 Sr1 3.508161 1_565
In0 Sr0 3.508161 1_456
In0 Sr2 3.818955 1_565
In0 Sr3 3.818955 1_455
Si0 Sr1 3.186345 1_565
Si0 Sr0 3.186346 1_455
Si0 Sr3 3.612692 1_545
Si0 Sr2 3.612692 1_654
Ir0 Si0 2.471071 1_555
Ir0 Ir2 2.598049 1_565
Ir0 Sr1 3.040487 1_565
Ir0 Sr0 3.053218 1_555
Ir0 Sr0 3.176645 1_455
Ir0 Sr3 3.216743 1_554
Ir0 Sr2 3.235353 1_564
Ir0 Sr2 3.323089 1_654
Ir1 Si0 2.471071 1_555
Ir1 Ir3 2.598049 1_455
Ir1 Sr0 3.040487 1_455
Ir1 Sr1 3.053218 1_555
Ir1 Sr1 3.176644 1_565
Ir1 Sr2 3.216743 1_555
Ir1 Sr3 3.235353 1_455
Ir1 Sr3 3.323089 1_545
Ir2 Si0 2.428093 1_555
Ir2 Sr1 3.070684 1_555
Ir2 Sr0 3.075847 1_545
Ir2 Sr2 3.156678 1_654
Ir2 Sr0 3.270062 1_455
Ir2 Sr2 3.305585 1_554
Ir2 Sr3 3.356121 1_544
Ir3 Si0 2.428094 1_555
Ir3 Sr0 3.070684 1_555
Ir3 Sr1 3.075847 1_655
Ir3 Sr3 3.156678 1_545
Ir3 Sr1 3.270062 1_565
Ir3 Sr3 3.305584 1_555
Ir3 Sr2 3.356121 1_655
