# generated using pymatgen
data_Sr9(RhAu2)2
_symmetry_space_group_name_H-M   'P 1'
_cell_length_a   8.11597681
_cell_length_b   8.19628477
_cell_length_c   8.19084505
_cell_angle_alpha   71.19697805
_cell_angle_beta   72.27820818
_cell_angle_gamma   71.46469601
_symmetry_Int_Tables_number   1
_chemical_formula_structural   Sr9(RhAu2)2
_chemical_formula_sum   'Sr9 Rh2 Au4'
_cell_volume   476.49104498
_cell_formula_units_Z   1
loop_
 _symmetry_equiv_pos_site_id
 _symmetry_equiv_pos_as_xyz
  1  'x, y, z'
loop_
 _atom_site_type_symbol
 _atom_site_label
 _atom_site_symmetry_multiplicity
 _atom_site_fract_x
 _atom_site_fract_y
 _atom_site_fract_z
 _atom_site_occupancy
  Sr  Sr0  1  0.89941092  0.16816637  0.64922500  1
  Sr  Sr1  1  0.66072652  0.88469104  0.18042748  1
  Sr  Sr2  1  0.17251110  0.66795354  0.88051782  1
  Sr  Sr3  1  0.10796866  0.83104261  0.34335346  1
  Sr  Sr4  1  0.34034946  0.10080549  0.82545352  1
  Sr  Sr5  1  0.83778789  0.35067158  0.11652467  1
  Sr  Sr6  1  0.50303972  0.50423682  0.49880200  1
  Sr  Sr7  1  0.28492709  0.29433565  0.29685586  1
  Sr  Sr8  1  0.69586757  0.70225337  0.69394275  1
  Rh  Rh0  1  0.91224365  0.53891720  0.36709412  1
  Rh  Rh1  1  0.35136970  0.91709654  0.54110889  1
  Au  Au0  1  0.54835389  0.33800343  0.91557902  1
  Au  Au1  1  0.08650457  0.46148857  0.64459291  1
  Au  Au2  1  0.63813987  0.09068282  0.45911295  1
  Au  Au3  1  0.46079939  0.64965499  0.08740952  1
loop_
_geom_bond_atom_site_label_1
_geom_bond_atom_site_label_2
_geom_bond_distance
_geom_bond_site_symmetry_2
Rh0 Sr7 3.054087 1_655
Rh0 Sr1 3.156777 1_555
Rh0 Sr8 3.161788 1_555
Rh0 Sr0 3.180118 1_555
Rh0 Sr3 3.197493 1_655
Rh0 Sr5 3.216691 1_555
Rh0 Sr6 3.239689 1_555
Rh0 Sr2 3.878458 1_654
Rh1 Sr7 3.076145 1_565
Rh1 Sr4 3.122143 1_565
Rh1 Sr2 3.126345 1_555
Rh1 Sr8 3.172504 1_555
Rh1 Sr3 3.254819 1_555
Rh1 Sr1 3.266239 1_555
Rh1 Sr6 3.306682 1_555
Rh1 Sr0 3.587745 1_465
Au0 Au3 3.092792 1_556
Au0 Sr7 3.186404 1_556
Au0 Sr0 3.235292 1_555
Au0 Sr5 3.294969 1_556
Au0 Sr4 3.308321 1_555
Au0 Sr6 3.330585 1_555
Au0 Sr8 3.331314 1_555
Au0 Sr2 3.389480 1_555
Au0 Sr1 3.632746 1_546
Au1 Rh0 2.832987 1_455
Au1 Sr8 3.140922 1_455
Au1 Sr0 3.211566 1_455
Au1 Sr4 3.215769 1_555
Au1 Sr3 3.247940 1_555
Au1 Sr2 3.281070 1_555
Au1 Sr7 3.302015 1_555
Au1 Sr6 3.317054 1_555
Au1 Sr5 3.740849 1_456
Au2 Rh1 2.903429 1_545
Au2 Sr8 3.115732 1_545
Au2 Sr1 3.182397 1_545
Au2 Sr4 3.235723 1_555
Au2 Sr5 3.257773 1_555
Au2 Sr7 3.258441 1_555
Au2 Sr0 3.290652 1_555
Au2 Sr6 3.305715 1_555
Au2 Sr3 3.729369 1_645
Au3 Sr8 3.177465 1_554
Au3 Sr2 3.224206 1_554
Au3 Sr3 3.233104 1_555
Au3 Sr1 3.257380 1_555
Au3 Sr5 3.274748 1_555
Au3 Sr6 3.278287 1_555
Au3 Sr7 3.375413 1_555
Au3 Sr4 3.618980 1_564
