# generated using pymatgen
data_Sr10TiTcN10
_symmetry_space_group_name_H-M   'P 1'
_cell_length_a   7.28576558
_cell_length_b   7.28576568
_cell_length_c   9.35388654
_cell_angle_alpha   81.89186097
_cell_angle_beta   81.89186241
_cell_angle_gamma   59.65414298
_symmetry_Int_Tables_number   1
_chemical_formula_structural   Sr10TiTcN10
_chemical_formula_sum   'Sr10 Ti1 Tc1 N10'
_cell_volume   422.79728464
_cell_formula_units_Z   1
loop_
 _symmetry_equiv_pos_site_id
 _symmetry_equiv_pos_as_xyz
  1  'x, y, z'
loop_
 _atom_site_type_symbol
 _atom_site_label
 _atom_site_symmetry_multiplicity
 _atom_site_fract_x
 _atom_site_fract_y
 _atom_site_fract_z
 _atom_site_occupancy
  Sr  Sr0  1  0.88703534  0.35710365  0.84038800  1
  Sr  Sr1  1  0.88007689  0.88007689  0.81639425  1
  Sr  Sr2  1  0.73950794  0.73950794  0.53587591  1
  Sr  Sr3  1  0.73858781  0.25555679  0.51178948  1
  Sr  Sr4  1  0.62403251  0.12649518  0.13592999  1
  Sr  Sr5  1  0.35710365  0.88703534  0.84038800  1
  Sr  Sr6  1  0.25555679  0.73858781  0.51178948  1
  Sr  Sr7  1  0.24012040  0.24012040  0.50089902  1
  Sr  Sr8  1  0.13458299  0.13458299  0.16709240  1
  Sr  Sr9  1  0.12649518  0.62403251  0.13592999  1
  Ti  Ti0  1  0.36680802  0.36680802  0.77397233  1
  Tc  Tc0  1  0.63752620  0.63752620  0.22901125  1
  N  N0  1  0.88816948  0.48355771  0.31917898  1
  N  N1  1  0.99593713  0.99593713  0.01614460  1
  N  N2  1  0.69608881  0.69608881  0.04131380  1
  N  N3  1  0.52603300  0.52603300  0.70861217  1
  N  N4  1  0.48355771  0.88816948  0.31917898  1
  N  N5  1  0.52986182  0.09745326  0.67604721  1
  N  N6  1  0.49104788  0.49104788  0.26824470  1
  N  N7  1  0.30386988  0.30386988  0.97807755  1
  N  N8  1  0.06283630  0.06283630  0.64350271  1
  N  N9  1  0.09745326  0.52986182  0.67604721  1
loop_
_geom_bond_atom_site_label_1
_geom_bond_atom_site_label_2
_geom_bond_distance
_geom_bond_site_symmetry_2
N0 Tc0 1.844497 1_555
N0 Sr2 2.676795 1_555
N0 Sr8 2.720118 1_655
N0 Sr9 2.731642 1_655
N0 Sr3 2.761211 1_555
N0 Sr7 2.897230 1_655
N1 Sr8 2.422820 1_665
N1 Sr9 2.518360 1_655
N1 Sr4 2.518360 1_565
N1 Sr1 2.554602 1_554
N1 Sr0 2.700829 1_564
N1 Sr5 2.700829 1_654
N2 Tc0 1.791064 1_555
N2 Sr1 2.871363 1_554
N2 Sr5 2.944059 1_554
N2 Sr0 2.944059 1_554
N2 Sr9 3.143363 1_655
N2 Sr4 3.143363 1_565
N3 Ti0 2.006245 1_555
N3 Sr6 2.608955 1_555
N3 Sr3 2.608955 1_555
N3 Sr0 2.677240 1_555
N3 Sr5 2.677240 1_555
N3 Sr2 2.911234 1_555
N4 Tc0 1.844497 1_555
N4 Sr2 2.676795 1_555
N4 Sr8 2.720117 1_565
N4 Sr4 2.731642 1_565
N4 Sr6 2.761211 1_555
N4 Sr7 2.897230 1_565
N5 Ti0 1.986446 1_555
N5 Sr7 2.549284 1_555
N5 Sr3 2.571353 1_555
N5 Sr1 2.649042 1_545
N5 Sr5 2.652692 1_545
N5 Sr2 2.688488 1_545
N6 Tc0 1.828223 1_555
N6 Sr9 2.741143 1_555
N6 Sr4 2.741143 1_555
N6 Sr3 2.883725 1_555
N6 Sr6 2.883725 1_555
N7 Ti0 1.945266 1_555
N7 Sr8 2.544650 1_556
N7 Sr4 2.584325 1_556
N7 Sr9 2.584325 1_556
N8 Sr7 2.414489 1_555
N8 Sr3 2.460021 1_455
N8 Sr6 2.460021 1_545
N8 Sr1 2.595768 1_445
N8 Sr5 2.702301 1_545
N8 Sr0 2.702301 1_455
N9 Ti0 1.986446 1_555
N9 Sr7 2.549284 1_555
N9 Sr6 2.571353 1_555
N9 Sr1 2.649042 1_455
N9 Sr0 2.652692 1_455
N9 Sr2 2.688488 1_455
