# generated using pymatgen
data_Na4S2O5
_symmetry_space_group_name_H-M   'P 1'
_cell_length_a   5.26730100
_cell_length_b   5.48309004
_cell_length_c   6.34578434
_cell_angle_alpha   88.21200185
_cell_angle_beta   94.74026026
_cell_angle_gamma   117.01500333
_symmetry_Int_Tables_number   1
_chemical_formula_structural   Na4S2O5
_chemical_formula_sum   'Na4 S2 O5'
_cell_volume   162.71315465
_cell_formula_units_Z   1
loop_
 _symmetry_equiv_pos_site_id
 _symmetry_equiv_pos_as_xyz
  1  'x, y, z'
loop_
 _atom_site_type_symbol
 _atom_site_label
 _atom_site_symmetry_multiplicity
 _atom_site_fract_x
 _atom_site_fract_y
 _atom_site_fract_z
 _atom_site_occupancy
  Na  Na0  1  0.64168600  0.31956800  0.25581400  1
  Na  Na1  1  0.01740500  0.00288200  0.03274500  1
  Na  Na2  1  0.01384300  0.00950400  0.53569300  1
  Na  Na3  1  0.34932500  0.70089200  0.75478700  1
  S  S0  1  0.71632700  0.35356400  0.72881700  1
  S  S1  1  0.32266100  0.66378400  0.21837900  1
  O  O0  1  0.44090800  0.16496700  0.85693700  1
  O  O1  1  0.79382200  0.66704600  0.77809900  1
  O  O2  1  0.25637000  0.82066200  0.38336800  1
  O  O3  1  0.18079700  0.36094900  0.28889100  1
  O  O4  1  0.64685500  0.76318100  0.25247000  1
loop_
_geom_bond_atom_site_label_1
_geom_bond_atom_site_label_2
_geom_bond_distance
_geom_bond_site_symmetry_2
Na0 O4 2.419572 1_555
Na0 O3 2.564481 1_555
Na0 O0 2.668516 1_554
Na0 O2 2.710574 1_545
Na0 O3 2.734657 1_655
Na0 S0 2.995341 1_555
Na1 O1 2.300016 1_444
Na1 O4 2.342241 1_445
Na1 O0 2.357762 1_554
Na1 O3 2.381240 1_555
Na1 O2 2.841475 1_545
Na2 O2 2.259774 1_545
Na2 O1 2.317904 1_445
Na2 O3 2.332244 1_555
Na2 O4 2.448771 1_445
Na2 O0 2.747913 1_555
Na3 O1 2.423586 1_555
Na3 O0 2.462488 1_565
Na3 O2 2.496191 1_555
Na3 O1 2.862576 1_455
O0 S0 1.616964 1_555
O1 S0 1.610568 1_555
O2 S1 1.532148 1_555
O3 S1 1.548377 1_555
O4 S1 1.536445 1_555
