# generated using pymatgen
data_LiAl(CO3)2
_symmetry_space_group_name_H-M   'P 1'
_cell_length_a   5.50913978
_cell_length_b   5.50913945
_cell_length_c   5.50913998
_cell_angle_alpha   48.47356391
_cell_angle_beta   48.47356561
_cell_angle_gamma   48.47356120
_symmetry_Int_Tables_number   1
_chemical_formula_structural   LiAl(CO3)2
_chemical_formula_sum   'Li1 Al1 C2 O6'
_cell_volume   85.94568642
_cell_formula_units_Z   1
loop_
 _symmetry_equiv_pos_site_id
 _symmetry_equiv_pos_as_xyz
  1  'x, y, z'
loop_
 _atom_site_type_symbol
 _atom_site_label
 _atom_site_symmetry_multiplicity
 _atom_site_fract_x
 _atom_site_fract_y
 _atom_site_fract_z
 _atom_site_occupancy
  Li  Li0  1  0.00000000  0.00000000  0.00000000  1
  Al  Al0  1  0.50000000  0.50000000  0.50000000  1
  C  C0  1  0.24206714  0.24206714  0.24206714  1
  C  C1  1  0.75793286  0.75793286  0.75793286  1
  O  O0  1  0.72823268  0.05508596  0.48836631  1
  O  O1  1  0.94491404  0.51163369  0.27176732  1
  O  O2  1  0.51163369  0.27176732  0.94491404  1
  O  O3  1  0.48836631  0.72823268  0.05508596  1
  O  O4  1  0.05508596  0.48836631  0.72823268  1
  O  O5  1  0.27176732  0.94491404  0.51163369  1
loop_
_geom_bond_atom_site_label_1
_geom_bond_atom_site_label_2
_geom_bond_distance
_geom_bond_site_symmetry_2
Li0 O1 2.170585 1_445
Li0 O4 2.170585 1_554
Li0 O3 2.170586 1_545
Li0 O2 2.170586 1_454
Li0 O0 2.170586 1_455
Li0 O5 2.170586 1_544
Al0 O5 1.899464 1_555
Al0 O0 1.899464 1_555
Al0 O4 1.899465 1_555
Al0 O1 1.899465 1_555
Al0 O2 1.899465 1_555
Al0 O3 1.899465 1_555
C0 O1 1.286728 1_455
C0 O5 1.286728 1_545
C0 O2 1.286728 1_554
C1 O4 1.286728 1_655
C1 O0 1.286728 1_565
C1 O3 1.286728 1_556
