# generated using pymatgen
data_Sr4CoH12Au
_symmetry_space_group_name_H-M   'P 1'
_cell_length_a   7.38920112
_cell_length_b   7.38920058
_cell_length_c   5.57839724
_cell_angle_alpha   90.00165962
_cell_angle_beta   90.00165884
_cell_angle_gamma   135.65026350
_symmetry_Int_Tables_number   1
_chemical_formula_structural   Sr4CoH12Au
_chemical_formula_sum   'Sr4 Co1 H12 Au1'
_cell_volume   212.91394236
_cell_formula_units_Z   1
loop_
 _symmetry_equiv_pos_site_id
 _symmetry_equiv_pos_as_xyz
  1  'x, y, z'
loop_
 _atom_site_type_symbol
 _atom_site_label
 _atom_site_symmetry_multiplicity
 _atom_site_fract_x
 _atom_site_fract_y
 _atom_site_fract_z
 _atom_site_occupancy
  Sr  Sr0  1  0.14561904  0.85438096  0.50000000  1
  Sr  Sr1  1  0.64375401  0.35624599  1.00000000  1
  Sr  Sr2  1  0.85438096  0.14561904  0.50000000  1
  Sr  Sr3  1  0.35624599  0.64375401  0.00000000  1
  Co  Co0  1  0.50000000  0.50000000  0.50000000  1
  H  H0  1  0.99996531  0.50005043  0.75381087  1
  H  H1  1  0.49994957  0.00003469  0.24618913  1
  H  H2  1  0.00003469  0.49994957  0.24618913  1
  H  H3  1  0.50005043  0.99996531  0.75381087  1
  H  H4  1  0.38710251  0.61289749  0.50000000  1
  H  H5  1  0.87883145  0.12116855  0.00000000  1
  H  H6  1  0.61289749  0.38710251  0.50000000  1
  H  H7  1  0.12116855  0.87883145  0.00000000  1
  H  H8  1  0.30212078  0.30212078  0.69774457  1
  H  H9  1  0.69787922  0.69787922  0.30225543  1
  H  H10  1  0.30198851  0.30198851  0.30235754  1
  H  H11  1  0.69801149  0.69801149  0.69764246  1
  Au  Au0  1  0.00000000  0.00000000  0.00000000  1
loop_
_geom_bond_atom_site_label_1
_geom_bond_atom_site_label_2
_geom_bond_distance
_geom_bond_site_symmetry_2
Co0 H6 1.545040 1_555
Co0 H4 1.545040 1_555
Co0 H11 1.560534 1_555
Co0 H10 1.560534 1_555
Co0 H9 1.560535 1_555
Co0 H8 1.560535 1_555
H0 Sr1 2.437927 1_555
H0 Sr3 2.438451 1_656
H0 Sr0 2.447100 1_655
H0 Sr2 2.447706 1_555
H1 Sr1 2.437926 1_554
H1 Sr3 2.438450 1_545
H1 Sr0 2.447100 1_545
H1 Sr2 2.447706 1_555
H2 Sr3 2.437927 1_555
H2 Sr1 2.438451 1_454
H2 Sr2 2.447100 1_455
H2 Sr0 2.447706 1_555
H3 Sr3 2.437926 1_556
H3 Sr1 2.438450 1_565
H3 Sr2 2.447100 1_565
H3 Sr0 2.447706 1_555
H4 Sr3 2.820984 1_556
H4 Sr3 2.820984 1_555
H4 Sr2 2.824662 1_565
H4 Sr2 2.824662 1_455
H5 Sr3 2.806016 1_655
H5 Sr3 2.806016 1_545
H5 Sr2 2.809198 1_555
H5 Sr2 2.809198 1_554
H6 Sr1 2.820984 1_554
H6 Sr1 2.820984 1_555
H6 Sr0 2.824662 1_545
H6 Sr0 2.824662 1_655
H7 Sr1 2.806016 1_454
H7 Sr1 2.806016 1_564
H7 Sr0 2.809198 1_554
H7 Sr0 2.809198 1_555
H8 Sr3 2.816250 1_556
H8 Sr1 2.816250 1_555
H8 Sr0 2.833346 1_545
H8 Sr2 2.833346 1_455
H9 Sr1 2.816250 1_554
H9 Sr3 2.816250 1_555
H9 Sr2 2.833346 1_565
H9 Sr0 2.833346 1_655
H10 Sr3 2.816981 1_555
H10 Sr1 2.816981 1_554
H10 Sr0 2.832786 1_545
H10 Sr2 2.832786 1_455
H11 Sr1 2.816981 1_555
H11 Sr3 2.816981 1_556
H11 Sr2 2.832786 1_565
H11 Sr0 2.832786 1_655
Au0 H7 1.658232 1_545
Au0 H5 1.658232 1_455
