# generated using pymatgen
data_CsZnInAs2
_symmetry_space_group_name_H-M   'P 1'
_cell_length_a   4.31025264
_cell_length_b   4.31025315
_cell_length_c   8.29226719
_cell_angle_alpha   105.06389979
_cell_angle_beta   105.06389916
_cell_angle_gamma   89.99998982
_symmetry_Int_Tables_number   1
_chemical_formula_structural   CsZnInAs2
_chemical_formula_sum   'Cs1 Zn1 In1 As2'
_cell_volume   143.27280164
_cell_formula_units_Z   1
loop_
 _symmetry_equiv_pos_site_id
 _symmetry_equiv_pos_as_xyz
  1  'x, y, z'
loop_
 _atom_site_type_symbol
 _atom_site_label
 _atom_site_symmetry_multiplicity
 _atom_site_fract_x
 _atom_site_fract_y
 _atom_site_fract_z
 _atom_site_occupancy
  Cs  Cs0  1  0.00000000  0.00000000  0.00000000  1
  Zn  Zn0  1  0.75000000  0.25000000  0.50000000  1
  In  In0  1  0.25000000  0.75000000  0.50000000  1
  As  As0  1  0.64734089  0.64734089  0.29468078  1
  As  As1  1  0.35266111  0.35266111  0.70532222  1
loop_
_geom_bond_atom_site_label_1
_geom_bond_atom_site_label_2
_geom_bond_distance
_geom_bond_site_symmetry_2
As0 In0 2.674263 1_655
As0 Zn0 2.674263 1_565
As0 In0 2.674267 1_555
As0 Zn0 2.674267 1_555
As0 Cs0 3.801780 1_665
As0 Cs0 3.801781 1_565
As0 Cs0 3.801781 1_655
As0 Cs0 3.801784 1_555
As1 Zn0 2.674278 1_455
As1 In0 2.674279 1_545
As1 Zn0 2.674279 1_555
As1 In0 2.674279 1_555
As1 Cs0 3.801767 1_666
As1 Cs0 3.801767 1_656
As1 Cs0 3.801768 1_566
As1 Cs0 3.801768 1_556
