# generated using pymatgen
data_Ba4Ir5OsO19
_symmetry_space_group_name_H-M   'P 1'
_cell_length_a   8.23020314
_cell_length_b   8.19694010
_cell_length_c   8.23020318
_cell_angle_alpha   109.62797435
_cell_angle_beta   109.49865362
_cell_angle_gamma   109.45140679
_symmetry_Int_Tables_number   1
_chemical_formula_structural   Ba4Ir5OsO19
_chemical_formula_sum   'Ba4 Ir5 Os1 O19'
_cell_volume   426.54613754
_cell_formula_units_Z   1
loop_
 _symmetry_equiv_pos_site_id
 _symmetry_equiv_pos_as_xyz
  1  'x, y, z'
loop_
 _atom_site_type_symbol
 _atom_site_label
 _atom_site_symmetry_multiplicity
 _atom_site_fract_x
 _atom_site_fract_y
 _atom_site_fract_z
 _atom_site_occupancy
  Ba  Ba0  1  0.99847906  0.31060756  0.00060236  1
  Ba  Ba1  1  0.99724789  0.99364871  0.30519984  1
  Ba  Ba2  1  0.68999480  0.68939244  0.68787151  1
  Ba  Ba3  1  0.31155113  0.00635129  0.00359918  1
  Ir  Ir0  1  0.50263953  0.33932610  0.84394678  1
  Ir  Ir1  1  0.50462068  0.66067390  0.16331342  1
  Ir  Ir2  1  0.33893621  0.83942763  0.49693457  1
  Ir  Ir3  1  0.65750694  0.16057237  0.49950858  1
  Ir  Ir4  1  0.84072139  0.50000000  0.34072139  1
  Os  Os0  1  0.16280209  0.50000000  0.66280209  1
  O  O0  1  0.99858717  0.00000000  0.99858717  1
  O  O1  1  0.69358241  0.33245279  0.05184641  1
  O  O2  1  0.66085814  0.35677620  0.71352528  1
  O  O3  1  0.28900602  0.64016603  0.94299810  1
  O  O4  1  0.63629421  0.30862749  0.35642589  1
  O  O5  1  0.34759693  0.70402689  0.65444251  1
  O  O6  1  0.95041563  0.29597311  0.64357005  1
  O  O7  1  0.04779840  0.69137251  0.32766672  1
  O  O8  1  0.00679760  0.63714140  0.63904548  1
  O  O9  1  0.64055673  0.63815808  0.00238329  1
  O  O10  1  0.71939461  0.66754721  0.36112962  1
  O  O11  1  0.33635540  0.04831335  0.69269257  1
  O  O12  1  0.63599689  0.00000000  0.63599689  1
  O  O13  1  0.00190408  0.36285860  0.36965620  1
  O  O14  1  0.64438021  0.95168665  0.28804205  1
  O  O15  1  0.35674907  0.64322380  0.30408194  1
  O  O16  1  0.30283306  0.35983397  0.64883998  1
  O  O17  1  0.36216952  1.00000000  0.36216952  1
  O  O18  1  0.36422521  0.36184192  0.00239865  1
loop_
_geom_bond_atom_site_label_1
_geom_bond_atom_site_label_2
_geom_bond_distance
_geom_bond_site_symmetry_2
Ba0 O0 2.540807 1_554
Ba0 O1 2.731641 1_555
Ba0 O15 2.742376 1_655
Ba0 O6 2.785852 1_554
Ba0 O12 2.866924 1_554
Ba0 O18 2.891687 1_655
Ba0 O13 2.910461 1_655
Ba0 O7 3.151898 1_655
Ba0 O2 3.219476 1_554
Ba0 O3 3.248805 1_654
Ba1 O0 2.545045 1_564
Ba1 O7 2.699902 1_655
Ba1 O14 2.756949 1_555
Ba1 O16 2.802554 1_665
Ba1 O9 2.803555 1_555
Ba1 O17 2.860460 1_655
Ba1 O13 2.876201 1_665
Ba2 O0 2.540807 1_565
Ba2 O10 2.731644 1_555
Ba2 O2 2.742376 1_555
Ba2 O5 2.785852 1_555
Ba2 O12 2.866924 1_565
Ba2 O9 2.891687 1_556
Ba2 O8 2.910461 1_655
Ba2 O4 3.151898 1_555
Ba2 O15 3.219476 1_555
Ba2 O16 3.248799 1_555
Ba3 O0 2.545045 1_454
Ba3 O4 2.699902 1_555
Ba3 O11 2.756957 1_554
Ba3 O3 2.802552 1_544
Ba3 O18 2.803555 1_555
Ba3 O17 2.860460 1_545
Ba3 O8 2.876201 1_544
Ir0 O1 1.931110 1_556
Ir0 O2 1.944345 1_555
Ir0 O11 1.950967 1_555
Ir0 O16 1.978290 1_555
Ir0 O18 2.000627 1_556
Ir0 O9 2.000779 1_556
Ir1 O10 1.931115 1_555
Ir1 O15 1.944345 1_555
Ir1 O14 1.950967 1_555
Ir1 O3 1.978295 1_554
Ir1 O9 2.000627 1_555
Ir1 O18 2.000779 1_555
Ir2 O11 1.929161 1_565
Ir2 O15 1.929950 1_555
Ir2 O7 1.963169 1_555
Ir2 O5 1.968487 1_555
Ir2 O17 1.988436 1_555
Ir2 O12 1.999116 1_565
Ir3 O14 1.929166 1_545
Ir3 O2 1.929950 1_555
Ir3 O4 1.963169 1_555
Ir3 O6 1.968487 1_555
Ir3 O17 1.988436 1_545
Ir3 O12 1.999116 1_555
Ir4 O10 1.944686 1_555
Ir4 O1 1.944693 1_555
Ir4 O4 1.957489 1_555
Ir4 O7 1.957489 1_655
Ir4 O13 2.010554 1_655
Ir4 O8 2.010554 1_655
O3 Os0 1.882297 1_555
O5 Os0 1.888887 1_555
O6 Os0 1.888887 1_655
O8 Os0 1.972765 1_555
O13 Os0 1.972765 1_555
O16 Os0 1.882303 1_555
