# generated using pymatgen
data_Rb2TaTe4Au
_symmetry_space_group_name_H-M   'P 1'
_cell_length_a   15.26710659
_cell_length_b   13.65101836
_cell_length_c   8.13502330
_cell_angle_alpha   84.97751847
_cell_angle_beta   62.96293174
_cell_angle_gamma   32.05955898
_symmetry_Int_Tables_number   1
_chemical_formula_structural   Rb2TaTe4Au
_chemical_formula_sum   'Rb4 Ta2 Te8 Au2'
_cell_volume   622.72805456
_cell_formula_units_Z   2
loop_
 _symmetry_equiv_pos_site_id
 _symmetry_equiv_pos_as_xyz
  1  'x, y, z'
loop_
 _atom_site_type_symbol
 _atom_site_label
 _atom_site_symmetry_multiplicity
 _atom_site_fract_x
 _atom_site_fract_y
 _atom_site_fract_z
 _atom_site_occupancy
  Rb  Rb0  1  0.43178525  0.43178525  0.06821475  1
  Rb  Rb1  1  0.81821475  0.81821475  0.18178525  1
  Rb  Rb2  1  0.06821475  0.06821475  0.43178525  1
  Rb  Rb3  1  0.18178525  0.18178525  0.81821475  1
  Ta  Ta0  1  0.00000000  0.00000000  0.00000000  1
  Ta  Ta1  1  0.25000000  0.25000000  0.25000000  1
  Te  Te0  1  0.72269216  0.39430859  0.07032340  1
  Te  Te1  1  0.81267385  0.07032340  0.39430859  1
  Te  Te2  1  0.07032340  0.81267385  0.72269216  1
  Te  Te3  1  0.39430859  0.72269216  0.81267385  1
  Te  Te4  1  0.52730784  0.85569141  0.17967660  1
  Te  Te5  1  0.85569141  0.52730784  0.43732615  1
  Te  Te6  1  0.17967660  0.43732615  0.52730784  1
  Te  Te7  1  0.43732615  0.17967660  0.85569141  1
  Au  Au0  1  0.50000000  0.50000000  0.50000000  1
  Au  Au1  1  0.75000000  0.75000000  0.75000000  1
loop_
_geom_bond_atom_site_label_1
_geom_bond_atom_site_label_2
_geom_bond_distance
_geom_bond_site_symmetry_2
Rb0 Te2 3.736385 1_644
Rb0 Te1 3.736389 1_465
Rb0 Te7 3.905863 1_554
Rb0 Te6 3.905872 1_555
Rb0 Te2 3.916109 1_555
Rb0 Te1 3.916123 1_554
Rb0 Te0 4.025379 1_555
Rb0 Te3 4.025388 1_554
Rb1 Te6 3.736385 1_565
Rb1 Te7 3.736389 1_654
Rb1 Te1 3.905863 1_565
Rb1 Te2 3.905872 1_654
Rb1 Te6 3.916109 1_654
Rb1 Te7 3.916123 1_565
Rb1 Te4 4.025379 1_555
Rb1 Te5 4.025388 1_555
Rb2 Te0 3.736382 1_456
Rb2 Te3 3.736396 1_544
Rb2 Te5 3.905888 1_455
Rb2 Te4 3.905891 1_545
Rb2 Te0 3.916116 1_545
Rb2 Te3 3.916119 1_455
Rb2 Te2 4.025402 1_545
Rb2 Te1 4.025410 1_455
Rb3 Te4 3.736382 1_545
Rb3 Te5 3.736396 1_456
Rb3 Te3 3.905888 1_545
Rb3 Te0 3.905891 1_456
Rb3 Te4 3.916116 1_456
Rb3 Te5 3.916119 1_545
Rb3 Te6 4.025402 1_555
Rb3 Te7 4.025410 1_555
Ta0 Te3 2.633525 1_544
Ta0 Te0 2.633531 1_455
Ta0 Te1 2.633537 1_455
Ta0 Te2 2.633550 1_544
Ta1 Te5 2.633525 1_455
Ta1 Te4 2.633531 1_545
Ta1 Te7 2.633537 1_554
Ta1 Te6 2.633550 1_555
Au0 Te3 2.761000 1_555
Au0 Te0 2.761013 1_555
Au0 Te1 2.761019 1_555
Au0 Te2 2.761024 1_555
Au0 Ta0 3.118041 1_566
Au0 Ta0 3.118041 1_655
Au1 Te5 2.761000 1_555
Au1 Te4 2.761013 1_556
Au1 Te7 2.761019 1_565
Au1 Te6 2.761024 1_655
Au1 Ta1 3.118041 1_566
Au1 Ta1 3.118041 1_655
