# generated using pymatgen
data_KP12(RuRh)2
_symmetry_space_group_name_H-M   'P 1'
_cell_length_a   6.99200432
_cell_length_b   7.00008684
_cell_length_c   6.99200578
_cell_angle_alpha   109.48334260
_cell_angle_beta   109.39635679
_cell_angle_gamma   109.48711820
_symmetry_Int_Tables_number   1
_chemical_formula_structural   KP12(RuRh)2
_chemical_formula_sum   'K1 P12 Ru2 Rh2'
_cell_volume   263.59402630
_cell_formula_units_Z   1
loop_
 _symmetry_equiv_pos_site_id
 _symmetry_equiv_pos_as_xyz
  1  'x, y, z'
loop_
 _atom_site_type_symbol
 _atom_site_label
 _atom_site_symmetry_multiplicity
 _atom_site_fract_x
 _atom_site_fract_y
 _atom_site_fract_z
 _atom_site_occupancy
  K  K0  1  0.00000000  0.00000000  0.00000000  1
  P  P0  1  0.35793872  0.21561520  0.85767647  1
  P  P1  1  0.64206128  0.78438480  0.14232353  1
  P  P2  1  0.63968898  0.49909288  0.85940389  1
  P  P3  1  0.36031102  0.50090712  0.14059611  1
  P  P4  1  0.21787249  0.86077816  0.36135222  1
  P  P5  1  0.78212751  0.13922184  0.63864778  1
  P  P6  1  0.49942694  0.86077816  0.64290567  1
  P  P7  1  0.50057306  0.13922184  0.35709433  1
  P  P8  1  0.85618651  0.35679224  0.21782704  1
  P  P9  1  0.14381349  0.64320776  0.78217296  1
  P  P10  1  0.86103480  0.64320776  0.49939427  1
  P  P11  1  0.13896520  0.35679224  0.50060573  1
  Ru  Ru0  1  0.00000000  0.00000000  0.50000000  1
  Ru  Ru1  1  0.50000000  0.00000000  0.00000000  1
  Rh  Rh0  1  0.00000000  0.50000000  0.00000000  1
  Rh  Rh1  1  0.50000000  0.50000000  0.50000000  1
loop_
_geom_bond_atom_site_label_1
_geom_bond_atom_site_label_2
_geom_bond_distance
_geom_bond_site_symmetry_2
K0 P0 3.109303 1_554
K0 P1 3.109303 1_445
K0 P8 3.118338 1_455
K0 P9 3.118338 1_544
K0 P11 3.118338 1_555
K0 P10 3.118338 1_444
K0 P7 3.119387 1_555
K0 P6 3.119387 1_444
K0 P4 3.119392 1_545
K0 P5 3.119392 1_454
K0 P3 3.125702 1_555
K0 P2 3.125702 1_444
P0 P2 2.275695 1_555
P0 P3 2.285293 1_556
P0 Ru1 2.366559 1_556
P0 Ru0 2.366559 1_555
P1 P3 2.275695 1_555
P1 P2 2.285293 1_554
P1 Ru1 2.366559 1_565
P1 Ru0 2.366559 1_665
P2 Rh0 2.377706 1_656
P2 Rh1 2.377706 1_555
P3 Rh0 2.377706 1_555
P3 Rh1 2.377706 1_555
P4 P6 2.275274 1_555
P4 P7 2.283507 1_565
P4 Ru0 2.356139 1_565
P4 Rh0 2.388006 1_555
P5 P7 2.275274 1_555
P5 P6 2.283507 1_545
P5 Ru0 2.356139 1_655
P5 Rh0 2.388006 1_656
P6 Ru1 2.356143 1_566
P6 Rh1 2.388002 1_555
P7 Ru1 2.356143 1_555
P7 Rh1 2.388002 1_555
P8 Ru1 2.356502 1_555
P8 Rh0 2.387235 1_655
P9 Ru1 2.356502 1_566
P9 Rh0 2.387235 1_556
P10 P8 2.274661 1_555
P10 P9 2.285171 1_655
P10 Ru0 2.356502 1_665
P10 Rh1 2.387235 1_555
P11 P9 2.274661 1_555
P11 P8 2.285171 1_455
P11 Ru0 2.356502 1_555
P11 Rh1 2.387235 1_555
