# generated using pymatgen
data_Ba4Na2Mo2O11
_symmetry_space_group_name_H-M   'P 1'
_cell_length_a   5.89692385
_cell_length_b   5.89692380
_cell_length_c   8.54230206
_cell_angle_alpha   90.00000000
_cell_angle_beta   90.00000000
_cell_angle_gamma   90.65929321
_symmetry_Int_Tables_number   1
_chemical_formula_structural   Ba4Na2Mo2O11
_chemical_formula_sum   'Ba4 Na2 Mo2 O11'
_cell_volume   297.02787379
_cell_formula_units_Z   1
loop_
 _symmetry_equiv_pos_site_id
 _symmetry_equiv_pos_as_xyz
  1  'x, y, z'
loop_
 _atom_site_type_symbol
 _atom_site_label
 _atom_site_symmetry_multiplicity
 _atom_site_fract_x
 _atom_site_fract_y
 _atom_site_fract_z
 _atom_site_occupancy
  Ba  Ba0  1  0.01265413  0.47792621  0.27642810  1
  Ba  Ba1  1  0.01265413  0.47792621  0.72357190  1
  Ba  Ba2  1  0.52207379  0.98734587  0.27642810  1
  Ba  Ba3  1  0.52207379  0.98734587  0.72357190  1
  Na  Na0  1  0.51234866  0.48765134  0.50000000  1
  Na  Na1  1  0.98444994  0.01555006  0.00000000  1
  Mo  Mo0  1  0.50701328  0.49298672  0.00000000  1
  Mo  Mo1  1  0.01946864  0.98053136  0.50000000  1
  O  O0  1  0.24364235  0.75635665  0.50000000  1
  O  O1  1  0.78611560  0.21388440  0.50000000  1
  O  O2  1  0.78085353  0.76004108  0.50000000  1
  O  O3  1  0.23995892  0.21914647  0.50000000  1
  O  O4  1  0.02150265  0.97849735  0.27056210  1
  O  O5  1  0.02150265  0.97849735  0.72943790  1
  O  O6  1  0.49200756  0.50799244  0.77789738  1
  O  O7  1  0.49200756  0.50799244  0.22210262  1
  O  O8  1  0.72059366  0.27940634  0.00000000  1
  O  O9  1  0.61218510  0.78936592  0.00000000  1
  O  O10  1  0.21063408  0.38781490  0.00000000  1
loop_
_geom_bond_atom_site_label_1
_geom_bond_atom_site_label_2
_geom_bond_distance
_geom_bond_site_symmetry_2
Ba0 O10 2.689893 1_555
Ba0 O1 2.794364 1_455
Ba0 O3 2.796397 1_555
Ba0 O0 2.854311 1_555
Ba0 O7 2.868022 1_555
Ba0 O2 2.887175 1_455
Ba0 O4 2.946583 1_545
Ba0 O4 2.952116 1_555
Ba0 O7 3.112158 1_455
Ba0 O8 3.141035 1_455
Ba1 O10 2.689893 1_556
Ba1 O1 2.794364 1_455
Ba1 O3 2.796397 1_555
Ba1 O0 2.854311 1_555
Ba1 O6 2.868022 1_555
Ba1 O2 2.887175 1_455
Ba1 O5 2.946583 1_545
Ba1 O5 2.952116 1_555
Ba1 O6 3.112158 1_455
Ba1 O8 3.141035 1_456
Ba2 O9 2.689893 1_555
Ba2 O1 2.794364 1_565
Ba2 O2 2.796397 1_555
Ba2 O0 2.854317 1_555
Ba2 O7 2.868022 1_555
Ba2 O3 2.887175 1_565
Ba2 O4 2.946583 1_655
Ba2 O4 2.952116 1_555
Ba2 O7 3.112158 1_565
Ba2 O8 3.141035 1_565
Ba3 O9 2.689893 1_556
Ba3 O1 2.794364 1_565
Ba3 O2 2.796397 1_555
Ba3 O0 2.854317 1_555
Ba3 O6 2.868022 1_555
Ba3 O3 2.887175 1_565
Ba3 O5 2.946583 1_655
Ba3 O5 2.952116 1_555
Ba3 O6 3.112158 1_565
Ba3 O8 3.141035 1_566
Na0 O2 2.242444 1_555
Na0 O3 2.242444 1_555
Na0 O0 2.253730 1_555
Na0 O1 2.296180 1_555
Na0 O6 2.380006 1_555
Na0 O7 2.380006 1_555
Na1 O8 2.213055 1_555
Na1 O4 2.332023 1_645
Na1 O5 2.332023 1_644
Na1 O10 2.555503 1_655
Na1 O9 2.555503 1_545
Mo0 O8 1.791374 1_555
Mo0 O9 1.847765 1_555
Mo0 O10 1.847765 1_555
Mo0 O7 1.901438 1_555
Mo0 O6 1.901438 1_554
Mo1 O0 1.880228 1_555
Mo1 O3 1.904828 1_565
Mo1 O2 1.904828 1_455
Mo1 O1 1.957214 1_465
Mo1 O5 1.960002 1_555
Mo1 O4 1.960002 1_555
