# generated using pymatgen
data_Gd3GaO6
_symmetry_space_group_name_H-M   'P 1'
_cell_length_a   5.48258718
_cell_length_b   7.20643927
_cell_length_c   7.20643958
_cell_angle_alpha   102.83369773
_cell_angle_beta   90.00000000
_cell_angle_gamma   90.00000000
_symmetry_Int_Tables_number   1
_chemical_formula_structural   Gd3GaO6
_chemical_formula_sum   'Gd6 Ga2 O12'
_cell_volume   277.61316326
_cell_formula_units_Z   2
loop_
 _symmetry_equiv_pos_site_id
 _symmetry_equiv_pos_as_xyz
  1  'x, y, z'
loop_
 _atom_site_type_symbol
 _atom_site_label
 _atom_site_symmetry_multiplicity
 _atom_site_fract_x
 _atom_site_fract_y
 _atom_site_fract_z
 _atom_site_occupancy
  Gd  Gd0  1  0.07745742  0.60332902  0.39666998  1
  Gd  Gd1  1  0.57745742  0.39667098  0.60332902  1
  Gd  Gd2  1  0.03213343  0.08734795  0.29838977  1
  Gd  Gd3  1  0.53213243  0.91265205  0.70161023  1
  Gd  Gd4  1  0.03213343  0.70161023  0.91265205  1
  Gd  Gd5  1  0.53213243  0.29838977  0.08734795  1
  Ga  Ga0  1  0.49972364  0.80735403  0.19264597  1
  Ga  Ga1  1  -0.00027636  0.19264597  0.80735403  1
  O  O0  1  0.83235969  0.78446711  0.21553289  1
  O  O1  1  0.33235969  0.21553289  0.78446711  1
  O  O2  1  0.36208964  0.95985420  0.04014680  1
  O  O3  1  0.86208964  0.04014680  0.95985420  1
  O  O4  1  0.30348269  0.32476574  0.35533443  1
  O  O5  1  0.80348269  0.67523426  0.64466557  1
  O  O6  1  0.30348269  0.64466557  0.67523426  1
  O  O7  1  0.80348269  0.35533443  0.32476574  1
  O  O8  1  0.82567568  0.41913908  0.89404987  1
  O  O9  1  0.32567568  0.58086092  0.10595013  1
  O  O10  1  0.82567568  0.10595013  0.58086092  1
  O  O11  1  0.32567568  0.89404987  0.41913908  1
loop_
_geom_bond_atom_site_label_1
_geom_bond_atom_site_label_2
_geom_bond_distance
_geom_bond_site_symmetry_2
Gd0 O7 2.303762 1_455
Gd0 O5 2.303767 1_455
Gd0 O4 2.321327 1_555
Gd0 O6 2.321333 1_555
Gd0 O0 2.443482 1_455
Gd0 O9 2.473209 1_555
Gd0 O11 2.473214 1_555
Gd1 O6 2.303762 1_555
Gd1 O4 2.303762 1_555
Gd1 O5 2.321327 1_555
Gd1 O7 2.321327 1_555
Gd1 O1 2.443487 1_555
Gd1 O10 2.473215 1_555
Gd1 O8 2.473215 1_555
Gd2 O4 2.235405 1_555
Gd2 O7 2.274688 1_455
Gd2 O10 2.306882 1_455
Gd2 O0 2.396107 1_445
Gd2 O11 2.413749 1_545
Gd2 O3 2.562815 1_454
Gd2 O2 2.611600 1_545
Gd3 O5 2.235409 1_555
Gd3 O6 2.274685 1_555
Gd3 O11 2.306880 1_555
Gd3 O1 2.396105 1_565
Gd3 O10 2.413753 1_565
Gd3 O2 2.562819 1_556
Gd3 O3 2.611610 1_565
Gd4 O6 2.235405 1_555
Gd4 O5 2.274688 1_455
Gd4 O8 2.306882 1_455
Gd4 O0 2.396107 1_456
Gd4 O9 2.413749 1_556
Gd4 O3 2.562821 1_465
Gd4 O2 2.611606 1_556
Gd5 O7 2.235409 1_555
Gd5 O4 2.274685 1_555
Gd5 O9 2.306879 1_555
Gd5 O1 2.396105 1_554
Gd5 O8 2.413753 1_554
Gd5 O2 2.562813 1_545
Gd5 O3 2.611604 1_554
Ga0 O0 1.841845 1_555
Ga0 O9 1.874029 1_555
Ga0 O11 1.874029 1_555
Ga0 O2 1.876555 1_555
Ga1 O1 1.841845 1_555
Ga1 O8 1.874029 1_455
Ga1 O10 1.874029 1_455
Ga1 O3 1.876555 1_455
