# generated using pymatgen
data_Zr3AlRu2O
_symmetry_space_group_name_H-M   'P 1'
_cell_length_a   8.51369304
_cell_length_b   8.51369322
_cell_length_c   8.51369325
_cell_angle_alpha   60.00000370
_cell_angle_beta   60.00000298
_cell_angle_gamma   60.00000051
_symmetry_Int_Tables_number   1
_chemical_formula_structural   Zr3AlRu2O
_chemical_formula_sum   'Zr12 Al4 Ru8 O4'
_cell_volume   436.35404786
_cell_formula_units_Z   4
loop_
 _symmetry_equiv_pos_site_id
 _symmetry_equiv_pos_as_xyz
  1  'x, y, z'
loop_
 _atom_site_type_symbol
 _atom_site_label
 _atom_site_symmetry_multiplicity
 _atom_site_fract_x
 _atom_site_fract_y
 _atom_site_fract_z
 _atom_site_occupancy
  Zr  Zr0  1  0.80604607  0.80604607  0.19395393  1
  Zr  Zr1  1  0.19395393  0.19395393  0.80604607  1
  Zr  Zr2  1  0.80604607  0.19395393  0.80604607  1
  Zr  Zr3  1  0.19395393  0.80604607  0.19395393  1
  Zr  Zr4  1  0.19395393  0.80604607  0.80604607  1
  Zr  Zr5  1  0.80604607  0.19395393  0.19395393  1
  Zr  Zr6  1  0.44395393  0.44395393  0.05604607  1
  Zr  Zr7  1  0.05604607  0.05604607  0.44395393  1
  Zr  Zr8  1  0.44395393  0.05604607  0.44395393  1
  Zr  Zr9  1  0.05604607  0.44395393  0.05604607  1
  Zr  Zr10  1  0.05604607  0.44395393  0.44395393  1
  Zr  Zr11  1  0.44395393  0.05604607  0.05604607  1
  Al  Al0  1  0.12500000  0.62500000  0.62500000  1
  Al  Al1  1  0.62500000  0.12500000  0.62500000  1
  Al  Al2  1  0.62500000  0.62500000  0.12500000  1
  Al  Al3  1  0.62500000  0.62500000  0.62500000  1
  Ru  Ru0  1  0.75082418  0.41639261  0.41639261  1
  Ru  Ru1  1  0.41639261  0.75082418  0.41639261  1
  Ru  Ru2  1  0.41639261  0.41639261  0.75082418  1
  Ru  Ru3  1  0.41639261  0.41639261  0.41639261  1
  Ru  Ru4  1  0.49917582  0.83360739  0.83360739  1
  Ru  Ru5  1  0.83360739  0.49917582  0.83360739  1
  Ru  Ru6  1  0.83360739  0.83360739  0.49917582  1
  Ru  Ru7  1  0.83360739  0.83360739  0.83360739  1
  O  O0  1  0.62500000  0.12500000  0.12500000  1
  O  O1  1  0.12500000  0.62500000  0.12500000  1
  O  O2  1  0.12500000  0.12500000  0.62500000  1
  O  O3  1  0.12500000  0.12500000  0.12500000  1
loop_
_geom_bond_atom_site_label_1
_geom_bond_atom_site_label_2
_geom_bond_distance
_geom_bond_site_symmetry_2
Al0 Ru7 2.608686 1_455
Al0 Ru3 2.608686 1_555
Al0 Ru2 2.608695 1_555
Al0 Ru6 2.608695 1_455
Al0 Ru1 2.608696 1_555
Al0 Ru5 2.608696 1_455
Al1 Ru7 2.608686 1_545
Al1 Ru3 2.608686 1_555
Al1 Ru2 2.608695 1_555
Al1 Ru6 2.608695 1_545
Al1 Ru0 2.608696 1_555
Al1 Ru4 2.608696 1_545
Al2 Ru7 2.608686 1_554
Al2 Ru3 2.608686 1_555
Al2 Ru1 2.608696 1_555
Al2 Ru5 2.608696 1_554
Al2 Ru0 2.608696 1_555
Al2 Ru4 2.608696 1_554
Al3 Ru5 2.608682 1_555
Al3 Ru1 2.608682 1_555
Al3 Ru4 2.608682 1_555
Al3 Ru0 2.608682 1_555
Al3 Ru6 2.608682 1_555
Al3 Ru2 2.608682 1_555
Ru0 Zr10 2.852582 1_655
Ru0 Zr7 2.852592 1_655
Ru0 Zr9 2.852592 1_655
Ru0 Zr2 3.033052 1_555
Ru0 Zr0 3.033052 1_555
Ru0 Zr5 3.033067 1_555
Ru1 Zr8 2.852582 1_565
Ru1 Zr7 2.852592 1_565
Ru1 Zr11 2.852592 1_565
Ru1 Zr0 3.033052 1_555
Ru1 Zr4 3.033052 1_555
Ru1 Zr3 3.033067 1_555
Ru2 Zr6 2.852582 1_556
Ru2 Zr9 2.852592 1_556
Ru2 Zr11 2.852592 1_556
Ru2 Zr2 3.033052 1_555
Ru2 Zr4 3.033052 1_555
Ru2 Zr1 3.033067 1_555
Ru3 Zr10 2.852599 1_555
Ru3 Zr8 2.852599 1_555
Ru3 Zr6 2.852599 1_555
Ru3 Zr5 3.033059 1_555
Ru3 Zr3 3.033059 1_555
Ru3 Zr1 3.033059 1_555
Ru4 Zr4 2.852582 1_555
Ru4 Zr1 2.852592 1_565
Ru4 Zr3 2.852592 1_556
Ru4 Zr8 3.033052 1_565
Ru4 Zr6 3.033052 1_556
Ru4 Zr11 3.033067 1_566
Ru5 Zr2 2.852582 1_555
Ru5 Zr1 2.852592 1_655
Ru5 Zr5 2.852592 1_556
Ru5 Zr6 3.033052 1_556
Ru5 Zr10 3.033052 1_655
Ru5 Zr9 3.033067 1_656
Ru6 Zr0 2.852582 1_555
Ru6 Zr3 2.852592 1_655
Ru6 Zr5 2.852592 1_565
Ru6 Zr8 3.033052 1_565
Ru6 Zr10 3.033052 1_655
Ru6 Zr7 3.033067 1_665
Ru7 Zr4 2.852599 1_655
Ru7 Zr2 2.852599 1_565
Ru7 Zr0 2.852599 1_556
Ru7 Zr11 3.033059 1_566
Ru7 Zr9 3.033059 1_656
Ru7 Zr7 3.033059 1_665
O0 Zr5 2.284611 1_555
O0 Zr11 2.284611 1_555
O0 Zr6 2.284611 1_555
O0 Zr0 2.284611 1_545
O0 Zr8 2.284611 1_555
O0 Zr2 2.284611 1_554
O1 Zr3 2.284611 1_555
O1 Zr9 2.284611 1_555
O1 Zr6 2.284611 1_555
O1 Zr0 2.284611 1_455
O1 Zr10 2.284611 1_555
O1 Zr4 2.284611 1_554
O2 Zr1 2.284611 1_555
O2 Zr7 2.284611 1_555
O2 Zr2 2.284611 1_455
O2 Zr8 2.284611 1_555
O2 Zr10 2.284611 1_555
O2 Zr4 2.284611 1_545
O3 Zr11 2.284611 1_555
O3 Zr5 2.284611 1_455
O3 Zr9 2.284611 1_555
O3 Zr3 2.284611 1_545
O3 Zr7 2.284611 1_555
O3 Zr1 2.284611 1_554
