# generated using pymatgen
data_Sr2In3Rh2
_symmetry_space_group_name_H-M   'P 1'
_cell_length_a   4.28652007
_cell_length_b   5.92501006
_cell_length_c   7.82037523
_cell_angle_alpha   69.57588367
_cell_angle_beta   74.09393192
_cell_angle_gamma   68.79346441
_symmetry_Int_Tables_number   1
_chemical_formula_structural   Sr2In3Rh2
_chemical_formula_sum   'Sr2 In3 Rh2'
_cell_volume   171.02661645
_cell_formula_units_Z   1
loop_
 _symmetry_equiv_pos_site_id
 _symmetry_equiv_pos_as_xyz
  1  'x, y, z'
loop_
 _atom_site_type_symbol
 _atom_site_label
 _atom_site_symmetry_multiplicity
 _atom_site_fract_x
 _atom_site_fract_y
 _atom_site_fract_z
 _atom_site_occupancy
  Sr  Sr0  1  0.85604366  0.51294836  0.77496432  1
  Sr  Sr1  1  0.14395634  0.48705164  0.22503568  1
  In  In0  1  0.50000000  -0.00000000  0.00000000  1
  In  In1  1  0.64281163  0.15721024  0.55716550  1
  In  In2  1  0.35718837  0.84278976  0.44283450  1
  Rh  Rh0  1  0.87336223  0.04656332  0.20671222  1
  Rh  Rh1  1  0.12663777  0.95343668  0.79328778  1
loop_
_geom_bond_atom_site_label_1
_geom_bond_atom_site_label_2
_geom_bond_distance
_geom_bond_site_symmetry_2
In0 Rh0 2.701771 1_455
In0 Rh1 2.701771 1_644
In0 Rh0 2.701772 1_555
In0 Rh1 2.701772 1_544
In0 In2 3.199183 1_545
In0 In1 3.199183 1_554
In1 Rh1 2.810738 1_545
In1 Rh1 2.810741 1_645
In1 Rh0 2.866784 1_555
In1 In2 3.030124 1_545
In1 In2 3.030130 1_645
In1 Sr1 3.408296 1_555
In1 Sr1 3.408298 1_655
In1 Sr0 3.478407 1_545
In1 Sr0 3.596095 1_455
In1 Sr0 3.596097 1_555
In2 Rh0 2.810738 1_565
In2 Rh0 2.810741 1_465
In2 Rh1 2.866784 1_555
In2 Sr0 3.408296 1_555
In2 Sr0 3.408298 1_455
In2 Sr1 3.478407 1_565
In2 Sr1 3.596095 1_655
In2 Sr1 3.596097 1_555
Rh0 Sr1 3.055089 1_645
Rh0 Sr1 3.274095 1_655
Rh0 Sr1 3.274096 1_555
Rh0 Rh1 3.289988 1_644
Rh0 Sr0 3.538211 1_554
Rh1 Sr0 3.055089 1_465
Rh1 Sr0 3.274095 1_455
Rh1 Sr0 3.274096 1_555
Rh1 Sr1 3.538211 1_556
