# generated using pymatgen
data_TiNb15(Cu2N)4
_symmetry_space_group_name_H-M   'P 1'
_cell_length_a   8.26680131
_cell_length_b   8.26680130
_cell_length_c   8.26680207
_cell_angle_alpha   60.02341431
_cell_angle_beta   60.02341205
_cell_angle_gamma   60.02341516
_symmetry_Int_Tables_number   1
_chemical_formula_structural   TiNb15(Cu2N)4
_chemical_formula_sum   'Ti1 Nb15 Cu8 N4'
_cell_volume   399.69433279
_cell_formula_units_Z   1
loop_
 _symmetry_equiv_pos_site_id
 _symmetry_equiv_pos_as_xyz
  1  'x, y, z'
loop_
 _atom_site_type_symbol
 _atom_site_label
 _atom_site_symmetry_multiplicity
 _atom_site_fract_x
 _atom_site_fract_y
 _atom_site_fract_z
 _atom_site_occupancy
  Ti  Ti0  1  0.62500000  0.62500000  0.62500000  1
  Nb  Nb0  1  0.12500000  0.62500000  0.62500000  1
  Nb  Nb1  1  0.62500000  0.12500000  0.62500000  1
  Nb  Nb2  1  0.62500000  0.62500000  0.12500000  1
  Nb  Nb3  1  0.81463480  0.81463480  0.18524250  1
  Nb  Nb4  1  0.18590944  0.18590944  0.81392865  1
  Nb  Nb5  1  0.81463480  0.18524250  0.81463480  1
  Nb  Nb6  1  0.18590944  0.81392865  0.18590944  1
  Nb  Nb7  1  0.18524250  0.81463480  0.81463480  1
  Nb  Nb8  1  0.81392865  0.18590944  0.18590944  1
  Nb  Nb9  1  0.43536520  0.43536520  0.06475750  1
  Nb  Nb10  1  0.06409056  0.06409056  0.43607135  1
  Nb  Nb11  1  0.43536520  0.06475750  0.43536520  1
  Nb  Nb12  1  0.06409056  0.43607135  0.06409056  1
  Nb  Nb13  1  0.06475750  0.43536520  0.43536520  1
  Nb  Nb14  1  0.43607135  0.06409056  0.06409056  1
  Cu  Cu0  1  0.74653737  0.42061494  0.42061494  1
  Cu  Cu1  1  0.42061494  0.74653737  0.42061494  1
  Cu  Cu2  1  0.42061494  0.42061494  0.74653737  1
  Cu  Cu3  1  0.41743422  0.41743422  0.41743422  1
  Cu  Cu4  1  0.50346263  0.82938506  0.82938506  1
  Cu  Cu5  1  0.82938506  0.50346263  0.82938506  1
  Cu  Cu6  1  0.82938506  0.82938506  0.50346263  1
  Cu  Cu7  1  0.83256578  0.83256578  0.83256578  1
  N  N0  1  0.62500000  0.12500000  0.12500000  1
  N  N1  1  0.12500000  0.62500000  0.12500000  1
  N  N2  1  0.12500000  0.12500000  0.62500000  1
  N  N3  1  0.12500000  0.12500000  0.12500000  1
loop_
_geom_bond_atom_site_label_1
_geom_bond_atom_site_label_2
_geom_bond_distance
_geom_bond_site_symmetry_2
Cu0 Ti0 2.485763 1_555
Cu0 Nb1 2.543117 1_555
Cu0 Nb2 2.543117 1_555
Cu0 Cu2 2.695290 1_555
Cu0 Cu1 2.695290 1_555
Cu0 Cu3 2.747158 1_555
Cu0 Nb13 2.757912 1_655
Cu0 Nb10 2.796713 1_655
Cu0 Nb12 2.796713 1_655
Cu0 Nb3 3.019467 1_555
Cu0 Nb5 3.019468 1_555
Cu0 Nb8 3.072658 1_555
Cu1 Ti0 2.485763 1_555
Cu1 Nb0 2.543117 1_555
Cu1 Nb2 2.543117 1_555
Cu1 Cu2 2.695290 1_555
Cu1 Cu3 2.747158 1_555
Cu1 Nb11 2.757912 1_565
Cu1 Nb10 2.796713 1_565
Cu1 Nb14 2.796713 1_565
Cu1 Nb3 3.019467 1_555
Cu1 Nb7 3.019468 1_555
Cu1 Nb6 3.072658 1_555
Cu2 Ti0 2.485763 1_555
Cu2 Nb1 2.543117 1_555
Cu2 Nb0 2.543117 1_555
Cu2 Cu3 2.747158 1_555
Cu2 Nb9 2.757912 1_556
Cu2 Nb12 2.796713 1_556
Cu2 Nb14 2.796713 1_556
Cu2 Nb7 3.019467 1_555
Cu2 Nb5 3.019467 1_555
Cu2 Nb4 3.072658 1_555
Cu3 Nb2 2.526792 1_555
Cu3 Nb0 2.526792 1_555
Cu3 Nb1 2.526792 1_555
Cu3 Nb13 2.775313 1_555
Cu3 Nb11 2.775313 1_555
Cu3 Nb9 2.775313 1_555
Cu3 Nb8 3.031950 1_555
Cu3 Nb4 3.031950 1_555
Cu3 Nb6 3.031950 1_555
Cu4 Ti0 2.485763 1_555
Cu4 Nb1 2.543117 1_565
Cu4 Nb2 2.543117 1_556
Cu4 Cu6 2.695290 1_555
Cu4 Cu5 2.695290 1_555
Cu4 Cu7 2.747158 1_555
Cu4 Nb7 2.757912 1_555
Cu4 Nb4 2.796713 1_565
Cu4 Nb6 2.796713 1_556
Cu4 Nb9 3.019467 1_556
Cu4 Nb11 3.019468 1_565
Cu4 Nb14 3.072658 1_566
Cu5 Ti0 2.485763 1_555
Cu5 Nb0 2.543117 1_655
Cu5 Nb2 2.543117 1_556
Cu5 Cu6 2.695290 1_555
Cu5 Cu7 2.747158 1_555
Cu5 Nb5 2.757912 1_555
Cu5 Nb4 2.796713 1_655
Cu5 Nb8 2.796713 1_556
Cu5 Nb9 3.019467 1_556
Cu5 Nb13 3.019468 1_655
Cu5 Nb12 3.072658 1_656
Cu6 Ti0 2.485763 1_555
Cu6 Nb1 2.543117 1_565
Cu6 Nb0 2.543117 1_655
Cu6 Cu7 2.747158 1_555
Cu6 Nb3 2.757912 1_555
Cu6 Nb6 2.796713 1_655
Cu6 Nb8 2.796713 1_565
Cu6 Nb13 3.019467 1_655
Cu6 Nb11 3.019467 1_565
Cu6 Nb10 3.072658 1_665
Cu7 Nb2 2.526792 1_556
Cu7 Nb0 2.526792 1_655
Cu7 Nb1 2.526792 1_565
Cu7 Nb7 2.775313 1_655
Cu7 Nb5 2.775313 1_565
Cu7 Nb3 2.775313 1_556
Cu7 Nb14 3.031950 1_566
Cu7 Nb10 3.031950 1_665
Cu7 Nb12 3.031950 1_656
N0 Nb8 2.184377 1_555
N0 Nb14 2.184377 1_555
N0 Nb9 2.184607 1_555
N0 Nb3 2.184607 1_545
N0 Nb11 2.184607 1_555
N0 Nb5 2.184607 1_554
N1 Nb6 2.184377 1_555
N1 Nb12 2.184377 1_555
N1 Nb3 2.184607 1_455
N1 Nb9 2.184607 1_555
N1 Nb13 2.184607 1_555
N1 Nb7 2.184607 1_554
N2 Nb4 2.184377 1_555
N2 Nb10 2.184377 1_555
N2 Nb11 2.184607 1_555
N2 Nb5 2.184607 1_455
N2 Nb13 2.184607 1_555
N2 Nb7 2.184607 1_545
N3 Nb14 2.187582 1_555
N3 Nb8 2.187582 1_455
N3 Nb12 2.187582 1_555
N3 Nb6 2.187582 1_545
N3 Nb10 2.187582 1_555
N3 Nb4 2.187582 1_554
