# generated using pymatgen
data_PAuBrF3
_symmetry_space_group_name_H-M   'P 1'
_cell_length_a   4.67503650
_cell_length_b   5.66704321
_cell_length_c   18.48270746
_cell_angle_alpha   90.00000000
_cell_angle_beta   90.00000000
_cell_angle_gamma   90.00000000
_symmetry_Int_Tables_number   1
_chemical_formula_structural   PAuBrF3
_chemical_formula_sum   'P4 Au4 Br4 F12'
_cell_volume   489.67408411
_cell_formula_units_Z   4
loop_
 _symmetry_equiv_pos_site_id
 _symmetry_equiv_pos_as_xyz
  1  'x, y, z'
loop_
 _atom_site_type_symbol
 _atom_site_label
 _atom_site_symmetry_multiplicity
 _atom_site_fract_x
 _atom_site_fract_y
 _atom_site_fract_z
 _atom_site_occupancy
  P  P0  1  0.52106203  0.75000000  0.64921542  1
  P  P1  1  0.02106203  0.25000000  0.85078458  1
  P  P2  1  0.97893797  0.75000000  0.14921542  1
  P  P3  1  0.47893797  0.25000000  0.35078458  1
  Au  Au0  1  0.15015763  0.25000000  0.96423934  1
  Au  Au1  1  0.65015763  0.75000000  0.53576066  1
  Au  Au2  1  0.84984237  0.75000000  0.03576066  1
  Au  Au3  1  0.34984237  0.25000000  0.46423934  1
  Br  Br0  1  0.13426893  0.25000000  0.58314064  1
  Br  Br1  1  0.86573107  0.75000000  0.41685936  1
  Br  Br2  1  0.36573107  0.25000000  0.08314064  1
  Br  Br3  1  0.63426893  0.75000000  0.91685936  1
  F  F0  1  0.13256172  0.45759925  0.80448124  1
  F  F1  1  0.70449229  0.25000000  0.82688559  1
  F  F2  1  0.36743828  0.04240075  0.30448124  1
  F  F3  1  0.36743828  0.45759925  0.30448124  1
  F  F4  1  0.63256172  0.54240075  0.69551876  1
  F  F5  1  0.63256172  0.95759925  0.69551876  1
  F  F6  1  0.79550771  0.25000000  0.32688559  1
  F  F7  1  0.29550771  0.75000000  0.17311441  1
  F  F8  1  0.86743828  0.54240075  0.19551876  1
  F  F9  1  0.86743828  0.95759925  0.19551876  1
  F  F10  1  0.20449229  0.75000000  0.67311441  1
  F  F11  1  0.13256172  0.04240075  0.80448124  1
loop_
_geom_bond_atom_site_label_1
_geom_bond_atom_site_label_2
_geom_bond_distance
_geom_bond_site_symmetry_2
Au0 P1 2.182074 1_555
Au0 Br2 2.417688 1_556
Au1 P0 2.182074 1_555
Au1 Br1 2.417688 1_555
Au2 P2 2.182074 1_555
Au2 Br3 2.417688 1_554
Au3 P3 2.182074 1_555
Au3 Br0 2.417688 1_555
F0 P1 1.545387 1_555
F1 P1 1.544487 1_655
F2 P3 1.545387 1_555
F3 P3 1.545387 1_555
F4 P0 1.545387 1_555
F5 P0 1.545387 1_555
F6 P3 1.544487 1_555
F7 P2 1.544487 1_455
F8 P2 1.545387 1_555
F9 P2 1.545387 1_555
F10 P0 1.544487 1_555
F11 P1 1.545387 1_555
