# generated using pymatgen
data_Y2Lu2Ga16Co3
_symmetry_space_group_name_H-M   'P 1'
_cell_length_a   5.94577337
_cell_length_b   5.94577337
_cell_length_c   10.93356691
_cell_angle_alpha   90.00000000
_cell_angle_beta   90.00000000
_cell_angle_gamma   90.00000000
_symmetry_Int_Tables_number   1
_chemical_formula_structural   Y2Lu2Ga16Co3
_chemical_formula_sum   'Y2 Lu2 Ga16 Co3'
_cell_volume   386.52587353
_cell_formula_units_Z   1
loop_
 _symmetry_equiv_pos_site_id
 _symmetry_equiv_pos_as_xyz
  1  'x, y, z'
loop_
 _atom_site_type_symbol
 _atom_site_label
 _atom_site_symmetry_multiplicity
 _atom_site_fract_x
 _atom_site_fract_y
 _atom_site_fract_z
 _atom_site_occupancy
  Y  Y0  1  0.50000000  0.00000000  0.19357867  1
  Y  Y1  1  0.00000000  0.50000000  0.19357867  1
  Lu  Lu0  1  0.50000000  0.00000000  0.80344924  1
  Lu  Lu1  1  0.00000000  0.50000000  0.80344924  1
  Ga  Ga0  1  0.24922153  0.24922153  0.61769296  1
  Ga  Ga1  1  0.75077847  0.75077847  0.61769296  1
  Ga  Ga2  1  0.75077847  0.24922153  0.61769296  1
  Ga  Ga3  1  0.24922153  0.75077847  0.61769296  1
  Ga  Ga4  1  0.75018920  0.75018920  0.38642036  1
  Ga  Ga5  1  0.24981080  0.24981080  0.38642036  1
  Ga  Ga6  1  0.24981080  0.75018920  0.38642036  1
  Ga  Ga7  1  0.75018920  0.24981080  0.38642036  1
  Ga  Ga8  1  0.28093996  0.28093996  0.99559917  1
  Ga  Ga9  1  0.71906004  0.71906004  0.99559917  1
  Ga  Ga10  1  0.71906004  0.28093996  0.99559917  1
  Ga  Ga11  1  0.28093996  0.71906004  0.99559917  1
  Ga  Ga12  1  0.50000000  0.50000000  0.80333331  1
  Ga  Ga13  1  0.50000000  0.50000000  0.19271488  1
  Ga  Ga14  1  0.00000000  0.00000000  0.78294486  1
  Ga  Ga15  1  0.00000000  0.00000000  0.22144183  1
  Co  Co0  1  0.50000000  0.00000000  0.50251966  1
  Co  Co1  1  0.00000000  0.50000000  0.50251966  1
  Co  Co2  1  0.00000000  0.00000000  0.00162206  1
loop_
_geom_bond_atom_site_label_1
_geom_bond_atom_site_label_2
_geom_bond_distance
_geom_bond_site_symmetry_2
Ga0 Ga5 2.528639 1_555
Ga0 Ga14 2.766957 1_555
Ga0 Lu0 2.923003 1_555
Ga0 Lu1 2.923003 1_555
Ga0 Ga12 2.926827 1_555
Ga0 Ga3 2.963629 1_545
Ga0 Ga2 2.963629 1_455
Ga0 Ga3 2.982144 1_555
Ga0 Ga2 2.982144 1_555
Ga1 Ga4 2.528639 1_555
Ga1 Ga14 2.766957 1_665
Ga1 Lu0 2.923003 1_565
Ga1 Lu1 2.923003 1_655
Ga1 Ga12 2.926827 1_555
Ga1 Ga3 2.963629 1_655
Ga1 Ga2 2.963629 1_565
Ga1 Ga3 2.982144 1_555
Ga1 Ga2 2.982144 1_555
Ga2 Ga7 2.528639 1_555
Ga2 Lu0 2.923003 1_555
Ga2 Lu1 2.923003 1_655
Ga3 Ga6 2.528639 1_555
Ga3 Lu0 2.923003 1_565
Ga3 Lu1 2.923003 1_555
Ga4 Ga7 2.970637 1_565
Ga4 Ga6 2.970637 1_655
Ga4 Ga7 2.975137 1_555
Ga4 Ga6 2.975137 1_555
Ga4 Y1 2.977345 1_655
Ga4 Y0 2.977345 1_565
Ga5 Ga7 2.970637 1_455
Ga5 Ga6 2.970637 1_545
Ga5 Ga7 2.975137 1_555
Ga5 Ga6 2.975137 1_555
Ga5 Y1 2.977345 1_555
Ga5 Y0 2.977345 1_555
Ga6 Y1 2.977345 1_555
Ga6 Y0 2.977345 1_565
Ga7 Y0 2.977345 1_555
Ga7 Y1 2.977345 1_655
Ga8 Lu1 2.983358 1_555
Ga8 Lu0 2.983358 1_555
Ga8 Y1 3.028581 1_556
Ga8 Y0 3.028581 1_556
Ga9 Lu0 2.983358 1_565
Ga9 Lu1 2.983358 1_655
Ga9 Y0 3.028581 1_566
Ga9 Y1 3.028581 1_656
Ga10 Ga8 2.604963 1_555
Ga10 Ga9 2.604963 1_555
Ga10 Ga12 2.794988 1_555
Ga10 Ga13 2.835085 1_556
Ga10 Lu0 2.983358 1_555
Ga10 Lu1 2.983358 1_655
Ga10 Y0 3.028581 1_556
Ga10 Y1 3.028581 1_656
Ga11 Ga8 2.604963 1_555
Ga11 Ga9 2.604963 1_555
Ga11 Ga12 2.794988 1_555
Ga11 Ga13 2.835085 1_556
Ga11 Lu1 2.983358 1_555
Ga11 Lu0 2.983358 1_565
Ga11 Y1 3.028581 1_556
Ga11 Y0 3.028581 1_566
Ga12 Ga9 2.794988 1_555
Ga12 Ga8 2.794988 1_555
Ga12 Ga3 2.926827 1_555
Ga12 Ga2 2.926827 1_555
Ga12 Lu0 2.972887 1_555
Ga12 Lu0 2.972887 1_565
Ga12 Lu1 2.972887 1_555
Ga12 Lu1 2.972887 1_655
Ga13 Ga9 2.835085 1_554
Ga13 Ga8 2.835085 1_554
Ga13 Y0 2.972902 1_555
Ga13 Y0 2.972902 1_565
Ga13 Y1 2.972902 1_555
Ga13 Y1 2.972902 1_655
Ga13 Ga4 2.985161 1_555
Ga13 Ga7 2.985161 1_555
Ga13 Ga6 2.985161 1_555
Ga13 Ga5 2.985161 1_555
Ga14 Ga2 2.766957 1_455
Ga14 Ga3 2.766957 1_545
Ga14 Lu1 2.981328 1_545
Ga14 Lu1 2.981328 1_555
Ga14 Lu0 2.981328 1_455
Ga14 Lu0 2.981328 1_555
Ga15 Ga5 2.768763 1_555
Ga15 Ga7 2.768763 1_455
Ga15 Ga6 2.768763 1_545
Ga15 Ga4 2.768763 1_445
Ga15 Y1 2.988455 1_555
Ga15 Y0 2.988455 1_455
Ga15 Y0 2.988455 1_555
Ga15 Y1 2.988455 1_545
Co0 Ga0 2.450468 1_555
Co0 Ga3 2.450468 1_545
Co0 Ga2 2.450468 1_555
Co0 Ga1 2.450468 1_545
Co0 Ga7 2.455678 1_555
Co0 Ga5 2.455678 1_555
Co0 Ga4 2.455678 1_545
Co0 Ga6 2.455678 1_545
Co1 Ga0 2.450468 1_555
Co1 Ga2 2.450468 1_455
Co1 Ga3 2.450468 1_555
Co1 Ga1 2.450468 1_455
Co1 Ga6 2.455678 1_555
Co1 Ga4 2.455678 1_455
Co1 Ga5 2.455678 1_555
Co1 Ga7 2.455678 1_455
Co2 Ga8 2.363228 1_554
Co2 Ga11 2.363228 1_544
Co2 Ga10 2.363228 1_454
Co2 Ga9 2.363228 1_444
Co2 Ga14 2.390922 1_554
Co2 Ga15 2.403414 1_555
