# generated using pymatgen
data_Ga2CuAgBr8
_symmetry_space_group_name_H-M   'P 1'
_cell_length_a   6.05078429
_cell_length_b   6.05078429
_cell_length_c   10.56397129
_cell_angle_alpha   90.00000000
_cell_angle_beta   90.00000000
_cell_angle_gamma   90.00000000
_symmetry_Int_Tables_number   1
_chemical_formula_structural   Ga2CuAgBr8
_chemical_formula_sum   'Ga2 Cu1 Ag1 Br8'
_cell_volume   386.76801701
_cell_formula_units_Z   1
loop_
 _symmetry_equiv_pos_site_id
 _symmetry_equiv_pos_as_xyz
  1  'x, y, z'
loop_
 _atom_site_type_symbol
 _atom_site_label
 _atom_site_symmetry_multiplicity
 _atom_site_fract_x
 _atom_site_fract_y
 _atom_site_fract_z
 _atom_site_occupancy
  Ga  Ga0  1  0.00000000  0.50000000  0.25765528  1
  Ga  Ga1  1  0.50000000  0.00000000  0.74234472  1
  Cu  Cu0  1  0.00000000  0.00000000  0.50000000  1
  Ag  Ag0  1  0.00000000  0.00000000  0.00000000  1
  Br  Br0  1  0.24481212  0.29152502  0.13338282  1
  Br  Br1  1  0.75518788  0.70847598  0.13338282  1
  Br  Br2  1  0.29152502  0.75518788  0.86661718  1
  Br  Br3  1  0.77710015  0.26523890  0.38153709  1
  Br  Br4  1  0.70847598  0.24481212  0.86661718  1
  Br  Br5  1  0.22289985  0.73476210  0.38153709  1
  Br  Br6  1  0.73476210  0.77710015  0.61846291  1
  Br  Br7  1  0.26523890  0.22289985  0.61846291  1
loop_
_geom_bond_atom_site_label_1
_geom_bond_atom_site_label_2
_geom_bond_distance
_geom_bond_site_symmetry_2
Ag0 Br1 2.700224 1_445
Ag0 Br4 2.700224 1_454
Ag0 Br0 2.700228 1_555
Ag0 Br2 2.700228 1_544
Br0 Ga0 2.347118 1_555
Br1 Ga0 2.347121 1_655
Br2 Ga1 2.347118 1_565
Br3 Ga0 2.355734 1_655
Br3 Cu0 2.441487 1_655
Br4 Ga1 2.347121 1_555
Br5 Ga0 2.355738 1_555
Br5 Cu0 2.441483 1_565
Br6 Ga1 2.355738 1_565
Br6 Cu0 2.441483 1_665
Br7 Ga1 2.355734 1_555
Br7 Cu0 2.441487 1_555
