# generated using pymatgen
data_KRb3MgBr6
_symmetry_space_group_name_H-M   'P 1'
_cell_length_a   9.19675248
_cell_length_b   9.19675244
_cell_length_c   9.19675240
_cell_angle_alpha   90.40647137
_cell_angle_beta   90.40647000
_cell_angle_gamma   90.40647294
_symmetry_Int_Tables_number   1
_chemical_formula_structural   KRb3MgBr6
_chemical_formula_sum   'K2 Rb6 Mg2 Br12'
_cell_volume   777.80466822
_cell_formula_units_Z   2
loop_
 _symmetry_equiv_pos_site_id
 _symmetry_equiv_pos_as_xyz
  1  'x, y, z'
loop_
 _atom_site_type_symbol
 _atom_site_label
 _atom_site_symmetry_multiplicity
 _atom_site_fract_x
 _atom_site_fract_y
 _atom_site_fract_z
 _atom_site_occupancy
  K  K0  1  0.25000000  0.25000000  0.25000000  1
  K  K1  1  0.75000000  0.75000000  0.75000000  1
  Rb  Rb0  1  0.37450011  0.12549989  0.75000000  1
  Rb  Rb1  1  0.12549989  0.75000000  0.37450011  1
  Rb  Rb2  1  0.75000000  0.37450011  0.12549989  1
  Rb  Rb3  1  0.62549989  0.87450011  0.25000000  1
  Rb  Rb4  1  0.25000000  0.62549989  0.87450011  1
  Rb  Rb5  1  0.87450011  0.25000000  0.62549989  1
  Mg  Mg0  1  0.00000000  0.00000000  0.00000000  1
  Mg  Mg1  1  0.50000000  0.50000000  0.50000000  1
  Br  Br0  1  0.94621046  0.07313971  0.28217557  1
  Br  Br1  1  0.07313971  0.28217557  0.94621046  1
  Br  Br2  1  0.28217557  0.94621046  0.07313971  1
  Br  Br3  1  0.57313971  0.44621046  0.78217557  1
  Br  Br4  1  0.78217557  0.57313971  0.44621046  1
  Br  Br5  1  0.44621046  0.78217557  0.57313971  1
  Br  Br6  1  0.21782443  0.42686029  0.55378954  1
  Br  Br7  1  0.42686029  0.55378954  0.21782443  1
  Br  Br8  1  0.55378954  0.21782443  0.42686029  1
  Br  Br9  1  0.92686029  0.71782443  0.05378954  1
  Br  Br10  1  0.05378954  0.92686029  0.71782443  1
  Br  Br11  1  0.71782443  0.05378954  0.92686029  1
loop_
_geom_bond_atom_site_label_1
_geom_bond_atom_site_label_2
_geom_bond_distance
_geom_bond_site_symmetry_2
Br0 Mg0 2.725780 1_655
Br0 K0 3.239294 1_655
Br0 Rb3 3.468130 1_545
Br0 Rb1 3.515256 1_645
Br0 Rb5 3.608612 1_555
Br0 Rb2 3.620025 1_555
Br1 Mg0 2.725780 1_556
Br1 K0 3.239294 1_556
Br1 Rb5 3.468130 1_455
Br1 Rb2 3.515256 1_456
Br1 Rb4 3.608612 1_555
Br1 Rb0 3.620025 1_555
Br2 Mg0 2.725780 1_565
Br2 K0 3.239294 1_565
Br2 Rb4 3.468130 1_554
Br2 Rb0 3.515256 1_564
Br2 Rb3 3.608612 1_555
Br2 Rb1 3.620025 1_555
Br3 Mg1 2.725780 1_555
Br3 K1 3.239294 1_555
Br3 Rb0 3.468130 1_555
Br3 Rb4 3.515256 1_555
Br3 Rb2 3.608612 1_556
Br3 Rb5 3.620025 1_555
Br4 Mg1 2.725780 1_555
Br4 K1 3.239294 1_555
Br4 Rb2 3.468130 1_555
Br4 Rb5 3.515256 1_555
Br4 Rb1 3.608612 1_655
Br4 Rb3 3.620025 1_555
Br5 Mg1 2.725780 1_555
Br5 K1 3.239294 1_555
Br5 Rb1 3.468130 1_555
Br5 Rb3 3.515256 1_555
Br5 Rb0 3.608612 1_565
Br5 Rb4 3.620025 1_555
Br6 Mg1 2.725780 1_555
Br6 K0 3.239294 1_555
Br6 Rb4 3.468130 1_555
Br6 Rb1 3.515256 1_555
Br6 Rb5 3.608612 1_455
Br6 Rb0 3.620025 1_555
Br7 Mg1 2.725780 1_555
Br7 K0 3.239294 1_555
Br7 Rb3 3.468130 1_555
Br7 Rb2 3.515256 1_555
Br7 Rb4 3.608612 1_554
Br7 Rb1 3.620025 1_555
Br8 Mg1 2.725780 1_555
Br8 K0 3.239294 1_555
Br8 Rb5 3.468130 1_555
Br8 Rb0 3.515256 1_555
Br8 Rb3 3.608612 1_545
Br8 Rb2 3.620025 1_555
Br9 Mg0 2.725780 1_665
Br9 K1 3.239294 1_554
Br9 Rb1 3.468130 1_655
Br9 Rb4 3.515256 1_654
Br9 Rb2 3.608612 1_555
Br9 Rb3 3.620025 1_555
Br10 Mg0 2.725780 1_566
Br10 K1 3.239294 1_455
Br10 Rb0 3.468130 1_565
Br10 Rb5 3.515256 1_465
Br10 Rb1 3.608612 1_555
Br10 Rb4 3.620025 1_555
Br11 Mg0 2.725780 1_656
Br11 K1 3.239294 1_545
Br11 Rb2 3.468130 1_556
Br11 Rb3 3.515256 1_546
Br11 Rb0 3.608612 1_555
Br11 Rb5 3.620025 1_555
