# generated using pymatgen
data_Be2NbB2Mo
_symmetry_space_group_name_H-M   'P 1'
_cell_length_a   4.54267929
_cell_length_b   4.54267910
_cell_length_c   4.54267973
_cell_angle_alpha   138.03753921
_cell_angle_beta   103.25374195
_cell_angle_gamma   91.55593979
_symmetry_Int_Tables_number   1
_chemical_formula_structural   Be2NbB2Mo
_chemical_formula_sum   'Be2 Nb1 B2 Mo1'
_cell_volume   58.12991958
_cell_formula_units_Z   1
loop_
 _symmetry_equiv_pos_site_id
 _symmetry_equiv_pos_as_xyz
  1  'x, y, z'
loop_
 _atom_site_type_symbol
 _atom_site_label
 _atom_site_symmetry_multiplicity
 _atom_site_fract_x
 _atom_site_fract_y
 _atom_site_fract_z
 _atom_site_occupancy
  Be  Be0  1  0.58648441  0.25303256  0.33345185  1
  Be  Be1  1  0.08041929  0.74696844  0.33345285  1
  Nb  Nb0  1  0.49876880  0.50000100  0.99876780  1
  B  B0  1  0.91850254  0.25194034  0.66656220  1
  B  B1  1  0.41462386  0.74806066  0.66656420  1
  Mo  Mo0  1  0.00120110  1.00000000  0.00120110  1
loop_
_geom_bond_atom_site_label_1
_geom_bond_atom_site_label_2
_geom_bond_distance
_geom_bond_site_symmetry_2
Be0 Mo0 2.447399 1_645
Be0 Mo0 2.447399 1_656
Be0 Nb0 2.451953 1_554
Be0 Mo0 2.466210 1_545
Be0 Nb0 2.466925 1_544
Be0 Nb0 2.466926 1_555
Be1 Mo0 2.447397 1_556
Be1 Mo0 2.447401 1_545
Be1 Nb0 2.451945 1_454
Be1 Mo0 2.466210 1_555
Be1 Nb0 2.466932 1_565
Be1 Nb0 2.466936 1_554
B0 Be0 1.878759 1_555
B0 Be1 1.879535 1_645
B0 Be1 1.879541 1_656
B0 Nb0 2.445651 1_655
B0 Mo0 2.446664 1_656
B0 Mo0 2.446664 1_645
B0 Nb0 2.467760 1_555
B0 Nb0 2.467760 1_544
B0 Mo0 2.471985 1_646
B1 Be1 1.878767 1_555
B1 Be0 1.879533 1_566
B1 Be0 1.879535 1_555
B1 Nb0 2.445638 1_555
B1 Mo0 2.446668 1_556
B1 Mo0 2.446670 1_545
B1 Nb0 2.467768 1_565
B1 Nb0 2.467771 1_554
B1 Mo0 2.471976 1_656
