# generated using pymatgen
data_Li12CrReN8
_symmetry_space_group_name_H-M   'P 1'
_cell_length_a   6.54594242
_cell_length_b   6.54594242
_cell_length_c   4.84502524
_cell_angle_alpha   90.00000000
_cell_angle_beta   90.00000000
_cell_angle_gamma   90.00000000
_symmetry_Int_Tables_number   1
_chemical_formula_structural   Li12CrReN8
_chemical_formula_sum   'Li12 Cr1 Re1 N8'
_cell_volume   207.60624155
_cell_formula_units_Z   1
loop_
 _symmetry_equiv_pos_site_id
 _symmetry_equiv_pos_as_xyz
  1  'x, y, z'
loop_
 _atom_site_type_symbol
 _atom_site_label
 _atom_site_symmetry_multiplicity
 _atom_site_fract_x
 _atom_site_fract_y
 _atom_site_fract_z
 _atom_site_occupancy
  Li  Li0  1  0.50000000  0.00000000  0.60410762  1
  Li  Li1  1  0.00000000  0.50000000  0.91306232  1
  Li  Li2  1  0.00000000  0.50000000  0.39589238  1
  Li  Li3  1  0.50000000  0.00000000  0.08693768  1
  Li  Li4  1  0.20242358  0.20242358  0.50000000  1
  Li  Li5  1  0.79757642  0.79757642  0.50000000  1
  Li  Li6  1  0.72526167  0.72526167  0.00000000  1
  Li  Li7  1  0.27473833  0.27473833  0.00000000  1
  Li  Li8  1  0.20242358  0.79757642  0.50000000  1
  Li  Li9  1  0.79757642  0.20242358  0.50000000  1
  Li  Li10  1  0.72526167  0.27473833  0.00000000  1
  Li  Li11  1  0.27473833  0.72526167  0.00000000  1
  Cr  Cr0  1  0.00000000  0.00000000  0.00000000  1
  Re  Re0  1  0.50000000  0.50000000  0.50000000  1
  N  N0  1  0.50000000  0.26200587  0.30151044  1
  N  N1  1  0.50000000  0.73799413  0.30151044  1
  N  N2  1  0.00000000  0.75975952  0.18717440  1
  N  N3  1  0.00000000  0.24024048  0.18717440  1
  N  N4  1  0.26200587  0.50000000  0.69848956  1
  N  N5  1  0.73799413  0.50000000  0.69848956  1
  N  N6  1  0.75975952  0.00000000  0.81282560  1
  N  N7  1  0.24024048  0.00000000  0.81282560  1
loop_
_geom_bond_atom_site_label_1
_geom_bond_atom_site_label_2
_geom_bond_distance
_geom_bond_site_symmetry_2
Li0 N6 1.978352 1_555
Li0 N7 1.978352 1_555
Li0 N0 2.256304 1_555
Li0 N1 2.256304 1_545
Li1 N4 2.005561 1_555
Li1 N5 2.005561 1_455
Li1 N2 2.157558 1_556
Li1 N3 2.157558 1_556
Li2 N2 1.978352 1_555
Li2 N3 1.978352 1_555
Li2 N4 2.256304 1_555
Li2 N5 2.256304 1_455
Li3 N0 2.005561 1_555
Li3 N1 2.005561 1_545
Li3 N6 2.157558 1_554
Li3 N7 2.157558 1_554
Li4 N7 2.028357 1_555
Li4 N3 2.028357 1_555
Li4 N4 2.207112 1_555
Li4 N0 2.207112 1_555
Li5 N6 2.028357 1_565
Li5 N2 2.028357 1_655
Li5 N1 2.207112 1_555
Li5 N5 2.207112 1_555
Li6 N2 2.026751 1_655
Li6 N6 2.026751 1_564
Li6 N1 2.077319 1_555
Li6 N5 2.077319 1_554
Li7 N3 2.026751 1_555
Li7 N7 2.026751 1_554
Li7 N4 2.077319 1_554
Li7 N0 2.077319 1_555
Li8 N7 2.028357 1_565
Li8 N2 2.028357 1_555
Li8 N4 2.207112 1_555
Li8 N1 2.207112 1_555
Li9 N6 2.028357 1_555
Li9 N3 2.028357 1_655
Li9 N0 2.207112 1_555
Li9 N5 2.207112 1_555
Li10 N3 2.026751 1_655
Li10 N6 2.026751 1_554
Li10 N5 2.077319 1_554
Li10 N0 2.077319 1_555
Li11 N2 2.026751 1_555
Li11 N7 2.026751 1_564
Li11 N1 2.077319 1_555
Li11 N4 2.077319 1_554
Cr0 N3 1.815344 1_555
Cr0 N7 1.815344 1_554
Cr0 N2 1.815344 1_545
Cr0 N6 1.815344 1_454
N0 Re0 1.830814 1_555
N1 Re0 1.830814 1_555
N4 Re0 1.830814 1_555
N5 Re0 1.830814 1_555
