# generated using pymatgen
data_Lu4SiSb5Rh7
_symmetry_space_group_name_H-M   'P 1'
_cell_length_a   7.44869801
_cell_length_b   7.44875168
_cell_length_c   7.44869816
_cell_angle_alpha   110.84741712
_cell_angle_beta   106.75282279
_cell_angle_gamma   110.84742522
_symmetry_Int_Tables_number   1
_chemical_formula_structural   Lu4SiSb5Rh7
_chemical_formula_sum   'Lu4 Si1 Sb5 Rh7'
_cell_volume   317.60796554
_cell_formula_units_Z   1
loop_
 _symmetry_equiv_pos_site_id
 _symmetry_equiv_pos_as_xyz
  1  'x, y, z'
loop_
 _atom_site_type_symbol
 _atom_site_label
 _atom_site_symmetry_multiplicity
 _atom_site_fract_x
 _atom_site_fract_y
 _atom_site_fract_z
 _atom_site_occupancy
  Lu  Lu0  1  0.47656860  0.46554133  0.47656860  1
  Lu  Lu1  1  0.01103395  0.53446546  0.01103395  1
  Lu  Lu2  1  0.47656081  0.99998774  0.01102462  1
  Lu  Lu3  1  0.01102462  0.99998774  0.47656081  1
  Si  Si0  1  0.34884949  0.99997537  0.34884949  1
  Sb  Sb0  1  0.68120719  0.00019175  0.68120719  1
  Sb  Sb1  1  0.67837108  0.68777452  0.99058525  1
  Sb  Sb2  1  0.30280675  0.31220556  0.99061860  1
  Sb  Sb3  1  0.99058525  0.68777452  0.67837108  1
  Sb  Sb4  1  0.99061860  0.31220556  0.30280675  1
  Rh  Rh0  1  0.74326748  0.49998583  0.24325887  1
  Rh  Rh1  1  0.49178650  0.24672288  0.73851730  1
  Rh  Rh2  1  0.73851730  0.24672288  0.49178650  1
  Rh  Rh3  1  0.24503367  0.75324620  0.49177446  1
  Rh  Rh4  1  0.24325887  0.49998583  0.74326748  1
  Rh  Rh5  1  0.49177446  0.75324620  0.24503367  1
  Rh  Rh6  1  0.07873738  0.99998262  0.07873738  1
loop_
_geom_bond_atom_site_label_1
_geom_bond_atom_site_label_2
_geom_bond_distance
_geom_bond_site_symmetry_2
Lu0 Si0 2.935673 1_545
Lu0 Rh1 2.957057 1_555
Lu0 Rh2 2.957057 1_555
Lu0 Rh0 2.996197 1_555
Lu0 Rh4 2.996197 1_555
Lu0 Sb4 3.063707 1_455
Lu0 Sb2 3.063707 1_554
Lu0 Rh6 3.146043 1_545
Lu0 Sb3 3.171605 1_555
Lu0 Sb1 3.171605 1_555
Lu0 Rh5 3.185955 1_555
Lu0 Rh3 3.185955 1_555
Lu0 Sb0 3.244408 1_565
Lu1 Si0 2.935328 1_555
Lu1 Rh5 2.956883 1_555
Lu1 Rh3 2.956883 1_555
Lu1 Rh0 2.996109 1_455
Lu1 Rh4 2.996109 1_554
Lu1 Sb3 3.063913 1_454
Lu1 Sb1 3.063913 1_454
Lu1 Rh6 3.145863 1_555
Lu1 Sb4 3.171696 1_455
Lu1 Sb2 3.171696 1_554
Lu1 Rh1 3.185985 1_454
Lu1 Rh2 3.185986 1_454
Lu1 Sb0 3.242184 1_454
Lu2 Si0 2.935483 1_555
Lu2 Rh5 2.956961 1_555
Lu2 Rh2 2.957009 1_565
Lu2 Rh0 2.996157 1_565
Lu2 Rh4 2.996173 1_554
Lu2 Sb2 3.063867 1_564
Lu2 Sb3 3.063900 1_454
Lu2 Rh6 3.145931 1_555
Lu2 Sb1 3.171662 1_554
Lu2 Sb4 3.171834 1_565
Lu2 Rh1 3.185974 1_564
Lu2 Rh3 3.185998 1_554
Lu2 Sb0 3.243294 1_564
Lu3 Si0 2.935483 1_555
Lu3 Rh3 2.956961 1_555
Lu3 Rh1 2.957009 1_565
Lu3 Rh4 2.996157 1_565
Lu3 Rh0 2.996173 1_455
Lu3 Sb4 3.063867 1_465
Lu3 Sb1 3.063900 1_454
Lu3 Rh6 3.145931 1_555
Lu3 Sb3 3.171662 1_455
Lu3 Sb2 3.171834 1_565
Lu3 Rh2 3.185974 1_465
Lu3 Rh5 3.185997 1_455
Lu3 Sb0 3.243294 1_465
Rh0 Sb3 2.711396 1_555
Rh0 Sb4 2.711552 1_555
Rh0 Sb2 2.750047 1_554
Rh0 Sb1 2.750119 1_554
Rh1 Si0 2.442316 1_545
Rh1 Sb1 2.665591 1_555
Rh1 Sb2 2.665754 1_555
Rh1 Sb0 2.679286 1_555
Rh2 Si0 2.442316 1_545
Rh2 Sb3 2.665591 1_555
Rh2 Sb4 2.665754 1_555
Rh2 Sb0 2.679286 1_555
Rh3 Si0 2.442257 1_555
Rh3 Sb4 2.665493 1_455
Rh3 Sb3 2.665532 1_455
Rh3 Sb0 2.680717 1_565
Rh4 Sb1 2.711395 1_555
Rh4 Sb2 2.711552 1_555
Rh4 Sb4 2.750047 1_455
Rh4 Sb3 2.750119 1_455
Rh5 Si0 2.442257 1_555
Rh5 Sb2 2.665493 1_554
Rh5 Sb1 2.665532 1_554
Rh5 Sb0 2.680717 1_565
Rh6 Si0 2.400551 1_555
Rh6 Sb2 2.753268 1_564
Rh6 Sb4 2.753268 1_465
Rh6 Sb1 2.753350 1_454
Rh6 Sb3 2.753350 1_454
