# generated using pymatgen
data_Ca2B4Ir3Os
_symmetry_space_group_name_H-M   'P 1'
_cell_length_a   6.95337228
_cell_length_b   6.06194456
_cell_length_c   5.52984250
_cell_angle_alpha   73.55734597
_cell_angle_beta   56.73533575
_cell_angle_gamma   49.67349793
_symmetry_Int_Tables_number   1
_chemical_formula_structural   Ca2B4Ir3Os
_chemical_formula_sum   'Ca2 B4 Ir3 Os1'
_cell_volume   147.63408541
_cell_formula_units_Z   1
loop_
 _symmetry_equiv_pos_site_id
 _symmetry_equiv_pos_as_xyz
  1  'x, y, z'
loop_
 _atom_site_type_symbol
 _atom_site_label
 _atom_site_symmetry_multiplicity
 _atom_site_fract_x
 _atom_site_fract_y
 _atom_site_fract_z
 _atom_site_occupancy
  Ca  Ca0  1  0.99857716  0.99857716  0.00142284  1
  Ca  Ca1  1  0.25145324  0.25145324  0.24854676  1
  B  B0  1  0.31925362  0.68808036  0.32495618  1
  B  B1  1  0.56153504  0.93332783  0.57170135  1
  B  B2  1  0.68808036  0.31925362  0.66770985  1
  B  B3  1  0.93332783  0.56153504  0.93343578  1
  Ir  Ir0  1  0.88111421  0.88111421  0.61888579  1
  Ir  Ir1  1  0.61684429  0.61684429  0.88315571  1
  Ir  Ir2  1  0.36728282  0.36728282  0.63271718  1
  Os  Os0  1  0.63252945  0.63252945  0.36747055  1
loop_
_geom_bond_atom_site_label_1
_geom_bond_atom_site_label_2
_geom_bond_distance
_geom_bond_site_symmetry_2
Ca0 Ir0 3.024851 1_554
Ca0 Ir0 3.024851 1_555
Ca0 Ir1 3.026700 1_564
Ca0 Ir1 3.026701 1_654
Ca1 Ir2 3.017973 1_555
Ca1 Ir2 3.017973 1_554
Ca1 Os0 3.029505 1_545
Ca1 Os0 3.029506 1_455
Ca1 Ir0 3.363438 1_455
Ca1 Ir0 3.363438 1_544
Ca1 Ir1 3.384573 1_544
Ca1 Ir1 3.384574 1_455
B0 Ir0 2.079195 1_455
B0 Ir1 2.081315 1_554
B0 Os0 2.116916 1_555
B0 Ir2 2.167705 1_555
B0 Ca0 2.958619 1_455
B0 Ca1 3.062959 1_565
B0 Ca1 3.142143 1_555
B1 Os0 2.057473 1_555
B1 Ir2 2.064474 1_565
B1 Ir1 2.167019 1_555
B1 Ir0 2.187510 1_555
B1 Ca1 2.907813 1_565
B1 Ca0 3.074086 1_456
B1 Ca0 3.110119 1_555
B2 Ir0 2.079194 1_545
B2 Ir1 2.081315 1_555
B2 Os0 2.116916 1_555
B2 Ir2 2.167705 1_555
B2 Ca0 2.958619 1_546
B2 Ca1 3.062959 1_655
B2 Ca1 3.142143 1_556
B3 Os0 2.057473 1_556
B3 Ir2 2.064475 1_655
B3 Ir1 2.167019 1_555
B3 Ir0 2.187510 1_555
B3 Ca1 2.907813 1_656
B3 Ca0 3.074085 1_546
B3 Ca0 3.110119 1_556
