# generated using pymatgen
data_Li4ZnAsPd6
_symmetry_space_group_name_H-M   'P 1'
_cell_length_a   4.24843774
_cell_length_b   4.24843922
_cell_length_c   10.35066153
_cell_angle_alpha   90.00000000
_cell_angle_beta   90.00000000
_cell_angle_gamma   120.00001127
_symmetry_Int_Tables_number   1
_chemical_formula_structural   Li4ZnAsPd6
_chemical_formula_sum   'Li4 Zn1 As1 Pd6'
_cell_volume   161.79211667
_cell_formula_units_Z   1
loop_
 _symmetry_equiv_pos_site_id
 _symmetry_equiv_pos_as_xyz
  1  'x, y, z'
loop_
 _atom_site_type_symbol
 _atom_site_label
 _atom_site_symmetry_multiplicity
 _atom_site_fract_x
 _atom_site_fract_y
 _atom_site_fract_z
 _atom_site_occupancy
  Li  Li0  1  0.00000000  0.00000000  0.49296403  1
  Li  Li1  1  0.33333300  0.66666700  0.16677378  1
  Li  Li2  1  0.66666700  0.33333300  0.83945203  1
  Li  Li3  1  0.00000000  0.00000000  0.99993342  1
  Zn  Zn0  1  0.66666700  0.33333300  0.33144405  1
  As  As0  1  0.33333300  0.66666700  0.67191354  1
  Pd  Pd0  1  0.33333300  0.66666700  0.42067489  1
  Pd  Pd1  1  0.66666700  0.33333300  0.08442736  1
  Pd  Pd2  1  0.00000000  0.00000000  0.74428854  1
  Pd  Pd3  1  0.00000000  0.00000000  0.24835186  1
  Pd  Pd4  1  0.33333300  0.66666700  0.91514421  1
  Pd  Pd5  1  0.66666700  0.33333300  0.58463327  1
loop_
_geom_bond_atom_site_label_1
_geom_bond_atom_site_label_2
_geom_bond_distance
_geom_bond_site_symmetry_2
Li0 Pd3 2.531898 1_555
Li0 Pd0 2.564422 1_545
Li0 Pd0 2.564425 1_445
Li0 Pd0 2.564426 1_555
Li0 Pd2 2.601375 1_555
Li0 Pd5 2.629960 1_455
Li0 Pd5 2.629963 1_555
Li0 Pd5 2.629964 1_445
Li1 Pd3 2.594106 1_565
Li1 Pd3 2.594109 1_665
Li1 Pd3 2.594110 1_555
Li1 Pd1 2.596705 1_455
Li1 Pd1 2.596706 1_565
Li1 Pd1 2.596713 1_555
Li1 Pd4 2.604532 1_554
Li1 Pd0 2.628044 1_555
Li2 Pd1 2.535657 1_556
Li2 Pd4 2.574919 1_655
Li2 Pd4 2.574920 1_545
Li2 Pd4 2.574927 1_555
Li2 Pd5 2.637543 1_555
Li2 Pd2 2.643224 1_655
Li2 Pd2 2.643227 1_555
Li2 Pd2 2.643228 1_665
Li3 Pd3 2.571295 1_556
Li3 Pd1 2.604087 1_456
Li3 Pd1 2.604089 1_556
Li3 Pd1 2.604090 1_446
Li3 Pd4 2.605115 1_545
Li3 Pd4 2.605117 1_445
Li3 Pd4 2.605118 1_555
Li3 Pd2 2.646094 1_555
As0 Pd4 2.517598 1_555
As0 Pd2 2.564682 1_565
As0 Pd2 2.564685 1_665
As0 Pd2 2.564685 1_555
As0 Pd0 2.600486 1_555
As0 Pd5 2.613913 1_455
As0 Pd5 2.613914 1_565
As0 Pd5 2.613921 1_555
As0 Li2 3.003933 1_455
As0 Li2 3.003934 1_565
As0 Li2 3.003940 1_555
As0 Li0 3.073632 1_565
As0 Li0 3.073634 1_665
As0 Li0 3.073635 1_555
Pd0 Zn0 2.620959 1_455
Pd0 Zn0 2.620960 1_565
Pd0 Zn0 2.620967 1_555
Pd1 Zn0 2.556786 1_555
Pd3 Zn0 2.599250 1_455
Pd3 Zn0 2.599253 1_555
Pd3 Zn0 2.599253 1_445
Pd5 Zn0 2.620676 1_555
