# generated using pymatgen
data_Sc16SiHg7
_symmetry_space_group_name_H-M   'P 1'
_cell_length_a   9.25791447
_cell_length_b   9.25791480
_cell_length_c   9.25791542
_cell_angle_alpha   58.48164551
_cell_angle_beta   58.48164568
_cell_angle_gamma   58.48164019
_symmetry_Int_Tables_number   1
_chemical_formula_structural   Sc16SiHg7
_chemical_formula_sum   'Sc16 Si1 Hg7'
_cell_volume   541.58931711
_cell_formula_units_Z   1
loop_
 _symmetry_equiv_pos_site_id
 _symmetry_equiv_pos_as_xyz
  1  'x, y, z'
loop_
 _atom_site_type_symbol
 _atom_site_label
 _atom_site_symmetry_multiplicity
 _atom_site_fract_x
 _atom_site_fract_y
 _atom_site_fract_z
 _atom_site_occupancy
  Sc  Sc0  1  0.10672449  0.63275790  0.63275790  1
  Sc  Sc1  1  0.63275790  0.10672449  0.63275790  1
  Sc  Sc2  1  0.63275790  0.63275790  0.10672449  1
  Sc  Sc3  1  0.62343785  0.62343785  0.62343785  1
  Sc  Sc4  1  0.81620181  0.81620181  0.18142166  1
  Sc  Sc5  1  0.18921005  0.18921005  0.81337566  1
  Sc  Sc6  1  0.81620181  0.18142166  0.81620181  1
  Sc  Sc7  1  0.18921005  0.81337566  0.18921005  1
  Sc  Sc8  1  0.18142166  0.81620181  0.81620181  1
  Sc  Sc9  1  0.81337566  0.18921005  0.18921005  1
  Sc  Sc10  1  0.43669539  0.43669539  0.06369822  1
  Sc  Sc11  1  0.06357390  0.06357390  0.43960610  1
  Sc  Sc12  1  0.43669539  0.06369822  0.43669539  1
  Sc  Sc13  1  0.06357390  0.43960610  0.06357390  1
  Sc  Sc14  1  0.06369822  0.43669539  0.43669539  1
  Sc  Sc15  1  0.43960610  0.06357390  0.06357390  1
  Si  Si0  1  0.85505752  0.85505752  0.85505752  1
  Hg  Hg0  1  0.77891873  0.40536300  0.40536300  1
  Hg  Hg1  1  0.40536300  0.77891873  0.40536300  1
  Hg  Hg2  1  0.40536300  0.40536300  0.77891873  1
  Hg  Hg3  1  0.40660762  0.40660762  0.40660762  1
  Hg  Hg4  1  0.46441841  0.83956482  0.83956482  1
  Hg  Hg5  1  0.83956482  0.46441841  0.83956482  1
  Hg  Hg6  1  0.83956482  0.83956482  0.46441841  1
loop_
_geom_bond_atom_site_label_1
_geom_bond_atom_site_label_2
_geom_bond_distance
_geom_bond_site_symmetry_2
Sc0 Si0 2.881152 1_455
Sc1 Si0 2.881152 1_545
Sc2 Si0 2.881152 1_554
Sc4 Si0 2.692674 1_554
Sc6 Si0 2.692674 1_545
Sc8 Si0 2.692674 1_455
Sc11 Si0 3.258336 1_445
Sc13 Si0 3.258335 1_454
Sc15 Si0 3.258335 1_544
Hg0 Sc11 2.857268 1_655
Hg0 Sc13 2.857269 1_655
Hg0 Sc3 2.899793 1_555
Hg0 Sc2 2.958798 1_555
Hg0 Sc1 2.958798 1_555
Hg0 Sc14 2.967557 1_655
Hg0 Sc9 3.311010 1_555
Hg0 Sc4 3.356167 1_555
Hg0 Sc6 3.356167 1_555
Hg1 Sc11 2.857268 1_565
Hg1 Sc15 2.857269 1_565
Hg1 Sc3 2.899793 1_555
Hg1 Sc0 2.958798 1_555
Hg1 Sc2 2.958798 1_555
Hg1 Sc12 2.967557 1_565
Hg1 Sc7 3.311010 1_555
Hg1 Sc4 3.356167 1_555
Hg1 Sc8 3.356167 1_555
Hg2 Sc13 2.857268 1_556
Hg2 Sc15 2.857269 1_556
Hg2 Sc3 2.899793 1_555
Hg2 Sc0 2.958798 1_555
Hg2 Sc1 2.958798 1_555
Hg2 Sc10 2.967557 1_556
Hg2 Sc5 3.311010 1_555
Hg2 Sc6 3.356167 1_555
Hg2 Sc8 3.356167 1_555
Hg3 Sc14 2.909540 1_555
Hg3 Sc12 2.909540 1_555
Hg3 Sc10 2.909540 1_555
Hg3 Sc1 2.983812 1_555
Hg3 Sc0 2.983812 1_555
Hg3 Sc2 2.983812 1_555
Hg3 Sc9 3.266381 1_555
Hg3 Sc7 3.266381 1_555
Hg3 Sc5 3.266381 1_555
Hg4 Sc2 2.858542 1_556
Hg4 Sc1 2.858542 1_565
Hg4 Sc8 2.862104 1_555
Hg4 Sc3 2.863673 1_555
Hg4 Sc5 2.868928 1_565
Hg4 Sc7 2.868929 1_556
Hg4 Sc10 3.261100 1_556
Hg4 Sc12 3.261100 1_565
Hg4 Sc15 3.486420 1_566
Hg5 Sc0 2.858542 1_655
Hg5 Sc2 2.858542 1_556
Hg5 Sc6 2.862104 1_555
Hg5 Sc3 2.863673 1_555
Hg5 Sc5 2.868928 1_655
Hg5 Sc9 2.868929 1_556
Hg5 Sc10 3.261100 1_556
Hg5 Sc14 3.261100 1_655
Hg5 Sc13 3.486420 1_656
Hg6 Sc0 2.858542 1_655
Hg6 Sc1 2.858542 1_565
Hg6 Sc4 2.862105 1_555
Hg6 Sc3 2.863673 1_555
Hg6 Sc7 2.868928 1_655
Hg6 Sc9 2.868929 1_565
Hg6 Sc12 3.261099 1_565
Hg6 Sc14 3.261099 1_655
Hg6 Sc11 3.486420 1_665
