# generated using pymatgen
data_Lu4Sb6Ru4Rh3
_symmetry_space_group_name_H-M   'P 1'
_cell_length_a   7.46151312
_cell_length_b   7.46151306
_cell_length_c   7.46607077
_cell_angle_alpha   109.48359740
_cell_angle_beta   109.48359724
_cell_angle_gamma   109.45884137
_symmetry_Int_Tables_number   1
_chemical_formula_structural   Lu4Sb6Ru4Rh3
_chemical_formula_sum   'Lu4 Sb6 Ru4 Rh3'
_cell_volume   319.93198539
_cell_formula_units_Z   1
loop_
 _symmetry_equiv_pos_site_id
 _symmetry_equiv_pos_as_xyz
  1  'x, y, z'
loop_
 _atom_site_type_symbol
 _atom_site_label
 _atom_site_symmetry_multiplicity
 _atom_site_fract_x
 _atom_site_fract_y
 _atom_site_fract_z
 _atom_site_occupancy
  Lu  Lu0  1  0.00000000  0.00000000  0.50000000  1
  Lu  Lu1  1  0.00731222  0.50365661  0.00365661  1
  Lu  Lu2  1  0.49634339  0.99268778  0.99634339  1
  Lu  Lu3  1  0.49634339  0.50365661  0.50000000  1
  Sb  Sb0  1  0.68429182  0.68517242  0.99949644  1
  Sb  Sb1  1  0.31482758  0.99911940  0.31432502  1
  Sb  Sb2  1  0.00088060  0.31570818  0.31520462  1
  Sb  Sb3  1  0.31482758  0.31570818  0.00050356  1
  Sb  Sb4  1  0.68429182  0.99911940  0.68479538  1
  Sb  Sb5  1  0.00088060  0.68517242  0.68567498  1
  Ru  Ru0  1  0.24992287  0.49984474  0.74992287  1
  Ru  Ru1  1  0.24992287  0.75007713  0.50000000  1
  Ru  Ru2  1  0.50015526  0.75007713  0.25007713  1
  Ru  Ru3  1  0.00000000  0.00000000  0.00000000  1
  Rh  Rh0  1  0.75043317  0.24956683  0.50000000  1
  Rh  Rh1  1  0.75043317  0.50086733  0.25043317  1
  Rh  Rh2  1  0.49913267  0.24956683  0.74956683  1
loop_
_geom_bond_atom_site_label_1
_geom_bond_atom_site_label_2
_geom_bond_distance
_geom_bond_site_symmetry_2
Lu0 Rh1 3.040634 1_445
Lu0 Rh2 3.040634 1_555
Lu0 Rh0 3.040640 1_455
Lu0 Ru0 3.044971 1_555
Lu0 Ru2 3.044971 1_445
Lu0 Ru1 3.044978 1_545
Lu0 Sb5 3.101048 1_545
Lu0 Sb1 3.101048 1_545
Lu0 Sb3 3.101053 1_556
Lu0 Sb0 3.101053 1_444
Lu0 Sb2 3.101053 1_555
Lu0 Sb4 3.101053 1_445
Lu1 Ru2 3.002318 1_555
Lu1 Ru1 3.025301 1_555
Lu1 Ru0 3.025307 1_554
Lu1 Sb1 3.064304 1_555
Lu1 Sb3 3.064309 1_555
Lu1 Rh1 3.069781 1_455
Lu1 Rh0 3.069787 1_454
Lu1 Rh2 3.095746 1_454
Lu1 Sb2 3.095972 1_555
Lu1 Sb5 3.095981 1_554
Lu1 Sb0 3.130098 1_454
Lu1 Sb4 3.130104 1_444
Lu2 Ru0 3.002318 1_555
Lu2 Ru1 3.025301 1_555
Lu2 Ru2 3.025307 1_556
Lu2 Sb5 3.064304 1_555
Lu2 Sb0 3.064309 1_555
Lu2 Rh2 3.069781 1_565
Lu2 Rh0 3.069787 1_566
Lu2 Rh1 3.095746 1_566
Lu2 Sb4 3.095972 1_555
Lu2 Sb1 3.095981 1_556
Lu2 Sb3 3.130098 1_566
Lu2 Sb2 3.130104 1_666
Lu3 Ru1 3.002306 1_555
Lu3 Ru2 3.025301 1_555
Lu3 Ru0 3.025301 1_555
Lu3 Sb4 3.064302 1_555
Lu3 Sb2 3.064302 1_555
Lu3 Rh2 3.069787 1_555
Lu3 Rh1 3.069787 1_555
Lu3 Rh0 3.095746 1_555
Lu3 Sb3 3.095973 1_555
Lu3 Sb0 3.095973 1_555
Lu3 Sb1 3.130106 1_545
Lu3 Sb5 3.130106 1_655
Ru0 Sb0 2.674918 1_555
Ru0 Sb5 2.674926 1_555
Ru0 Sb3 2.678792 1_556
Ru0 Sb2 2.678799 1_555
Ru1 Sb2 2.674919 1_555
Ru1 Sb4 2.674919 1_555
Ru1 Sb1 2.678792 1_555
Ru1 Sb5 2.678792 1_555
Ru2 Sb3 2.674918 1_555
Ru2 Sb1 2.674926 1_555
Ru2 Sb0 2.678792 1_554
Ru2 Sb4 2.678799 1_555
Ru3 Sb2 2.714539 1_555
Ru3 Sb4 2.714539 1_444
Ru3 Sb3 2.714540 1_555
Ru3 Sb0 2.714540 1_444
Ru3 Sb5 2.714544 1_544
Ru3 Sb1 2.714544 1_545
Rh0 Sb5 2.682840 1_655
Rh0 Sb1 2.682840 1_545
Rh0 Sb4 2.683071 1_545
Rh0 Sb2 2.683071 1_655
Rh1 Sb3 2.682839 1_555
Rh1 Sb2 2.682845 1_655
Rh1 Sb0 2.683065 1_554
Rh1 Sb5 2.683065 1_655
Rh2 Sb0 2.682839 1_555
Rh2 Sb4 2.682845 1_545
Rh2 Sb3 2.683065 1_556
Rh2 Sb1 2.683065 1_545
