# generated using pymatgen
data_TiPd3Pt5
_symmetry_space_group_name_H-M   'P 1'
_cell_length_a   6.19876514
_cell_length_b   6.19876535
_cell_length_c   6.21900420
_cell_angle_alpha   95.64543075
_cell_angle_beta   95.64543242
_cell_angle_gamma   143.38041982
_symmetry_Int_Tables_number   1
_chemical_formula_structural   TiPd3Pt5
_chemical_formula_sum   'Ti1 Pd3 Pt5'
_cell_volume   135.37293981
_cell_formula_units_Z   1
loop_
 _symmetry_equiv_pos_site_id
 _symmetry_equiv_pos_as_xyz
  1  'x, y, z'
loop_
 _atom_site_type_symbol
 _atom_site_label
 _atom_site_symmetry_multiplicity
 _atom_site_fract_x
 _atom_site_fract_y
 _atom_site_fract_z
 _atom_site_occupancy
  Ti  Ti0  1  0.00201566  0.00201566  0.00403132  1
  Pd  Pd0  1  0.33552717  0.66309015  0.99861733  1
  Pd  Pd1  1  0.66309015  0.33552717  0.99861733  1
  Pd  Pd2  1  0.33761390  0.33761390  0.67522780  1
  Pt  Pt0  1  0.67138644  0.99962747  0.67101391  1
  Pt  Pt1  1  0.99962747  0.67138644  0.67101391  1
  Pt  Pt2  1  0.00023368  0.32926167  0.32949535  1
  Pt  Pt3  1  0.32926167  0.00023368  0.32949535  1
  Pt  Pt4  1  0.66124385  0.66124385  0.32248770  1
loop_
_geom_bond_atom_site_label_1
_geom_bond_atom_site_label_2
_geom_bond_distance
_geom_bond_site_symmetry_2
Pd0 Pd2 2.713696 1_555
Pd0 Pt4 2.715695 1_556
Pd0 Ti0 2.740301 1_666
Pd0 Ti0 2.740301 1_556
Pd0 Pt0 2.745202 1_445
Pd0 Pt0 2.745202 1_555
Pd0 Pt2 2.758878 1_666
Pd0 Pt2 2.758879 1_556
Pd0 Pt1 2.801214 1_455
Pd0 Pt3 2.811277 1_566
Pd0 Pd1 2.812716 1_455
Pd0 Pd1 2.812716 1_565
Pd1 Pd2 2.713696 1_555
Pd1 Pt4 2.715695 1_556
Pd1 Ti0 2.740301 1_556
Pd1 Ti0 2.740301 1_666
Pd1 Pt1 2.745202 1_445
Pd1 Pt1 2.745202 1_555
Pd1 Pt3 2.758878 1_666
Pd1 Pt3 2.758879 1_556
Pd1 Pt0 2.801214 1_545
Pd1 Pt2 2.811277 1_656
Pd2 Pt0 2.743036 1_445
Pd2 Pt1 2.743036 1_555
Pd2 Pt1 2.743036 1_445
Pd2 Pt0 2.743036 1_555
Pd2 Ti0 2.750200 1_666
Pd2 Ti0 2.750200 1_556
Pd2 Pt2 2.814067 1_555
Pd2 Pt3 2.814067 1_555
Pd2 Pt4 2.851786 1_445
Pd2 Pt4 2.851787 1_555
Pt0 Ti0 2.756810 1_666
Pt0 Pt2 2.803737 1_555
Pt0 Pt2 2.803737 1_665
Pt0 Pt1 2.806963 1_455
Pt0 Pt1 2.806963 1_565
Pt0 Pt4 2.822893 1_555
Pt0 Pt3 2.852498 1_565
Pt1 Ti0 2.756810 1_666
Pt1 Pt3 2.803737 1_555
Pt1 Pt3 2.803737 1_665
Pt1 Pt4 2.822892 1_555
Pt1 Pt2 2.852498 1_655
Pt2 Ti0 2.728445 1_555
Pt2 Pt4 2.746499 1_555
Pt2 Pt4 2.746499 1_445
Pt2 Pt3 2.800299 1_455
Pt2 Pt3 2.800299 1_565
Pt3 Ti0 2.728445 1_555
Pt3 Pt4 2.746499 1_445
Pt3 Pt4 2.746499 1_555
Pt4 Ti0 2.707392 1_555
Pt4 Ti0 2.707392 1_665
