# generated using pymatgen
data_RbP2IrRu
_symmetry_space_group_name_H-M   'P 1'
_cell_length_a   7.35899423
_cell_length_b   7.35899425
_cell_length_c   7.35899440
_cell_angle_alpha   148.68415801
_cell_angle_beta   148.68415103
_cell_angle_gamma   44.87642444
_symmetry_Int_Tables_number   1
_chemical_formula_structural   RbP2IrRu
_chemical_formula_sum   'Rb1 P2 Ir1 Ru1'
_cell_volume   107.32698136
_cell_formula_units_Z   1
loop_
 _symmetry_equiv_pos_site_id
 _symmetry_equiv_pos_as_xyz
  1  'x, y, z'
loop_
 _atom_site_type_symbol
 _atom_site_label
 _atom_site_symmetry_multiplicity
 _atom_site_fract_x
 _atom_site_fract_y
 _atom_site_fract_z
 _atom_site_occupancy
  Rb  Rb0  1  0.00000000  0.00000000  0.00000000  1
  P  P0  1  0.33857084  0.33857084  1.00000000  1
  P  P1  1  0.66142916  0.66142916  0.00000000  1
  Ir  Ir0  1  0.25000000  0.75000000  0.50000000  1
  Ru  Ru0  1  0.75000000  0.25000000  0.50000000  1
loop_
_geom_bond_atom_site_label_1
_geom_bond_atom_site_label_2
_geom_bond_distance
_geom_bond_site_symmetry_2
P0 Ru0 2.323044 1_455
P0 Ru0 2.323044 1_556
P0 Rb0 3.565404 1_667
P0 Rb0 3.565405 1_656
P0 Rb0 3.565405 1_566
P0 Rb0 3.565405 1_555
P1 Ru0 2.323044 1_565
P1 Ru0 2.323044 1_554
P1 Rb0 3.565404 1_554
P1 Rb0 3.565405 1_565
P1 Rb0 3.565405 1_655
P1 Rb0 3.565405 1_666
Ir0 P0 2.323044 1_565
Ir0 P0 2.323044 1_554
Ir0 P1 2.323044 1_455
Ir0 P1 2.323044 1_556
