# generated using pymatgen
data_Cs2Rb2Cd3O5
_symmetry_space_group_name_H-M   'P 1'
_cell_length_a   6.72182165
_cell_length_b   9.46849361
_cell_length_c   9.50998586
_cell_angle_alpha   66.91600871
_cell_angle_beta   73.40455717
_cell_angle_gamma   70.78826373
_symmetry_Int_Tables_number   1
_chemical_formula_structural   Cs2Rb2Cd3O5
_chemical_formula_sum   'Cs4 Rb4 Cd6 O10'
_cell_volume   517.18251728
_cell_formula_units_Z   2
loop_
 _symmetry_equiv_pos_site_id
 _symmetry_equiv_pos_as_xyz
  1  'x, y, z'
loop_
 _atom_site_type_symbol
 _atom_site_label
 _atom_site_symmetry_multiplicity
 _atom_site_fract_x
 _atom_site_fract_y
 _atom_site_fract_z
 _atom_site_occupancy
  Cs  Cs0  1  0.05362768  0.56632134  0.64659341  1
  Cs  Cs1  1  0.60802255  0.27969435  0.75166377  1
  Cs  Cs2  1  0.39197745  0.72030565  0.24833623  1
  Cs  Cs3  1  0.94637232  0.43367866  0.35340659  1
  Rb  Rb0  1  0.05826721  0.93880035  0.69458289  1
  Rb  Rb1  1  0.24290755  0.56785674  0.97706328  1
  Rb  Rb2  1  0.75709245  0.43214326  0.02293672  1
  Rb  Rb3  1  0.94173279  0.06119965  0.30541711  1
  Cd  Cd0  1  0.60780456  0.82087974  0.50369596  1
  Cd  Cd1  1  0.12273389  0.13780120  0.90455660  1
  Cd  Cd2  1  0.43687940  0.16761663  0.16718532  1
  Cd  Cd3  1  0.87726611  0.86219880  0.09544340  1
  Cd  Cd4  1  0.39219544  0.17912026  0.49630404  1
  Cd  Cd5  1  0.56312060  0.83238337  0.83281468  1
  O  O0  1  0.80312152  0.72786649  0.98578064  1
  O  O1  1  0.42062087  0.35868465  0.26550060  1
  O  O2  1  0.19687848  0.27213351  0.01421936  1
  O  O3  1  0.33842304  0.99630632  0.39752312  1
  O  O4  1  0.66157696  0.00369368  0.60247688  1
  O  O5  1  0.10046877  0.25062877  0.65591318  1
  O  O6  1  0.57937913  0.64131535  0.73449940  1
  O  O7  1  0.89953123  0.74937123  0.34408682  1
  O  O8  1  0.77034783  0.12153658  0.03441899  1
  O  O9  1  0.22965217  0.87846342  0.96558101  1
loop_
_geom_bond_atom_site_label_1
_geom_bond_atom_site_label_2
_geom_bond_distance
_geom_bond_site_symmetry_2
Cs0 O5 2.868921 1_555
Cs0 O6 2.969633 1_455
Cs0 O7 2.993960 1_455
Cs1 O8 2.847240 1_556
Cs1 O5 3.120436 1_655
Cs1 O2 3.150494 1_556
Cs1 O6 3.306561 1_555
Cs1 O4 3.311860 1_555
Cs2 O9 2.847240 1_554
Cs2 O7 3.120436 1_455
Cs2 O0 3.150494 1_554
Cs2 O1 3.306561 1_555
Cs2 O3 3.311860 1_555
Cs3 O7 2.868921 1_555
Cs3 O1 2.969633 1_655
Cs3 O5 2.993960 1_655
Cd0 O6 2.189252 1_555
Cd0 O3 2.192504 1_555
Cd0 O7 2.199896 1_555
Cd0 O4 2.426977 1_565
Cd1 O2 2.169808 1_556
Cd1 O9 2.200529 1_545
Cd1 O5 2.207043 1_555
Cd1 O8 2.362091 1_456
Cd2 O2 2.204324 1_555
Cd2 O3 2.227001 1_545
Cd2 O8 2.231731 1_555
Cd2 O1 2.301516 1_555
Cd3 O0 2.169808 1_554
Cd3 O8 2.200529 1_565
Cd3 O7 2.207043 1_555
Cd3 O9 2.362091 1_654
Cd4 O1 2.189252 1_555
Cd4 O4 2.192504 1_555
Cd4 O5 2.199896 1_555
Cd4 O3 2.426977 1_545
Cd5 O0 2.204324 1_555
Cd5 O4 2.227001 1_565
Cd5 O9 2.231731 1_555
Cd5 O6 2.301516 1_555
O0 Rb2 2.791547 1_556
O0 Rb1 2.837623 1_655
O0 Rb0 3.131040 1_655
O1 Rb2 2.777990 1_555
O1 Rb1 2.988037 1_554
O2 Rb1 2.791547 1_554
O2 Rb2 2.837623 1_455
O2 Rb3 3.131040 1_455
O3 Rb3 2.844078 1_465
O3 Rb0 2.872852 1_555
O4 Rb0 2.844078 1_645
O4 Rb3 2.872852 1_555
O5 Rb0 2.928040 1_545
O6 Rb1 2.777990 1_555
O6 Rb2 2.988037 1_556
O7 Rb3 2.928040 1_565
O8 Rb2 2.872366 1_555
O8 Rb3 2.898910 1_555
O9 Rb1 2.872366 1_555
O9 Rb0 2.898910 1_555
