# generated using pymatgen
data_KLi(NbBr3)3
_symmetry_space_group_name_H-M   'P 1'
_cell_length_a   9.82116531
_cell_length_b   9.84839552
_cell_length_c   9.88036329
_cell_angle_alpha   119.28876276
_cell_angle_beta   105.14463788
_cell_angle_gamma   96.52565781
_symmetry_Int_Tables_number   1
_chemical_formula_structural   KLi(NbBr3)3
_chemical_formula_sum   'K2 Li2 Nb6 Br18'
_cell_volume   770.74120996
_cell_formula_units_Z   2
loop_
 _symmetry_equiv_pos_site_id
 _symmetry_equiv_pos_as_xyz
  1  'x, y, z'
loop_
 _atom_site_type_symbol
 _atom_site_label
 _atom_site_symmetry_multiplicity
 _atom_site_fract_x
 _atom_site_fract_y
 _atom_site_fract_z
 _atom_site_occupancy
  K  K0  1  0.34080355  0.26830835  0.48295453  1
  K  K1  1  0.65919645  0.73169165  0.51704547  1
  Li  Li0  1  0.61742457  0.04969409  0.18956406  1
  Li  Li1  1  0.38257543  0.95030591  0.81043594  1
  Nb  Nb0  1  0.13563953  0.56801326  0.23823740  1
  Nb  Nb1  1  0.86436047  0.43198674  0.76176260  1
  Nb  Nb2  1  0.12723852  0.34986165  0.89489342  1
  Nb  Nb3  1  0.86331464  0.30601914  0.97916296  1
  Nb  Nb4  1  0.87276148  0.65013835  0.10510658  1
  Nb  Nb5  1  0.13668536  0.69398086  0.02083704  1
  Br  Br0  1  0.00262231  0.65315085  0.73172329  1
  Br  Br1  1  0.67769140  0.60125683  0.83520603  1
  Br  Br2  1  0.33000522  0.96771780  0.05865245  1
  Br  Br3  1  0.98803441  0.07747579  0.84705161  1
  Br  Br4  1  0.01115432  0.76613587  0.42009983  1
  Br  Br5  1  0.66874512  0.34093276  0.43619083  1
  Br  Br6  1  0.32401586  0.55651830  0.90115995  1
  Br  Br7  1  0.32230860  0.39874317  0.16479397  1
  Br  Br8  1  0.30086576  0.15230028  0.74776630  1
  Br  Br9  1  0.99737769  0.34684915  0.26827671  1
  Br  Br10  1  0.67598414  0.44348170  0.09884005  1
  Br  Br11  1  0.66597248  0.17561907  0.67954797  1
  Br  Br12  1  0.69913424  0.84769972  0.25223370  1
  Br  Br13  1  0.01196559  0.92252421  0.15294839  1
  Br  Br14  1  0.98884568  0.23386413  0.57990017  1
  Br  Br15  1  0.33125488  0.65906724  0.56380917  1
  Br  Br16  1  0.66999478  0.03228220  0.94134755  1
  Br  Br17  1  0.33402752  0.82438093  0.32045203  1
loop_
_geom_bond_atom_site_label_1
_geom_bond_atom_site_label_2
_geom_bond_distance
_geom_bond_site_symmetry_2
Br0 Nb5 2.616433 1_556
Br0 Nb1 2.616671 1_455
Br0 K1 3.864395 1_455
Br1 Nb1 2.621602 1_555
Br1 Nb4 2.622648 1_556
Br1 K0 3.763400 1_555
Br1 K1 3.907767 1_555
Br2 Li1 2.565315 1_554
Br2 Li0 2.616388 1_565
Br2 Nb5 2.914190 1_555
Br2 K0 3.728738 1_565
Br3 Nb3 2.618727 1_555
Br3 Nb2 2.622353 1_655
Br3 K1 3.713801 1_545
Br4 Nb0 2.605822 1_555
Br4 Nb4 2.607032 1_455
Br4 K1 3.842176 1_455
Br5 Li0 2.570968 1_555
Br5 Nb1 2.898203 1_555
Br5 K0 3.416972 1_555
Br5 K1 3.545412 1_555
Br6 Nb5 2.598539 1_556
Br6 Nb2 2.607885 1_555
Br6 K0 3.760902 1_555
Br7 Nb0 2.621602 1_555
Br7 Nb2 2.622648 1_554
Br7 K1 3.763400 1_555
Br7 K0 3.907767 1_555
Br8 Li1 2.508627 1_545
Br8 Nb2 2.844039 1_555
Br8 K0 3.415263 1_555
Br9 Nb3 2.616433 1_554
Br9 Nb0 2.616671 1_655
Br9 K0 3.864395 1_655
Br10 Nb3 2.598539 1_554
Br10 Nb4 2.607885 1_555
Br10 K1 3.760902 1_555
Br11 Nb1 2.622780 1_555
Br11 Nb3 2.624058 1_555
Br11 K0 3.736464 1_555
Br11 K1 3.834893 1_545
Br12 Li0 2.508627 1_565
Br12 Nb4 2.844039 1_555
Br12 K1 3.415263 1_555
Br13 Nb5 2.618727 1_555
Br13 Nb4 2.622353 1_455
Br13 K0 3.713801 1_565
Br14 Nb1 2.605822 1_555
Br14 Nb2 2.607032 1_655
Br14 K0 3.842176 1_655
Br15 Li1 2.570968 1_555
Br15 Nb0 2.898203 1_555
Br15 K1 3.416972 1_555
Br15 K0 3.545412 1_555
Br16 Li0 2.565315 1_556
Br16 Li1 2.616388 1_545
Br16 Nb3 2.914190 1_555
Br16 K1 3.728738 1_545
Br17 Nb0 2.622780 1_555
Br17 Nb5 2.624058 1_555
Br17 K1 3.736464 1_555
Br17 K0 3.834893 1_565
