# generated using pymatgen
data_Cs2KNbO4
_symmetry_space_group_name_H-M   'P 1'
_cell_length_a   6.62085665
_cell_length_b   6.80654880
_cell_length_c   8.45754682
_cell_angle_alpha   86.86769258
_cell_angle_beta   90.00000000
_cell_angle_gamma   90.00000000
_symmetry_Int_Tables_number   1
_chemical_formula_structural   Cs2KNbO4
_chemical_formula_sum   'Cs4 K2 Nb2 O8'
_cell_volume   380.57148487
_cell_formula_units_Z   2
loop_
 _symmetry_equiv_pos_site_id
 _symmetry_equiv_pos_as_xyz
  1  'x, y, z'
loop_
 _atom_site_type_symbol
 _atom_site_label
 _atom_site_symmetry_multiplicity
 _atom_site_fract_x
 _atom_site_fract_y
 _atom_site_fract_z
 _atom_site_occupancy
  Cs  Cs0  1  0.75000000  0.16809564  0.52560861  1
  Cs  Cs1  1  0.25000000  0.83190436  0.47439139  1
  Cs  Cs2  1  0.25000000  0.40054815  0.17331638  1
  Cs  Cs3  1  0.75000000  0.59945185  0.82668362  1
  K  K0  1  0.25000000  0.88851816  0.96021198  1
  K  K1  1  0.75000000  0.11148184  0.03978802  1
  Nb  Nb0  1  0.75000000  0.67539824  0.26962063  1
  Nb  Nb1  1  0.25000000  0.32460176  0.73037937  1
  O  O0  1  0.97781061  0.80036424  0.17796687  1
  O  O1  1  0.47781061  0.19963576  0.82203313  1
  O  O2  1  0.02218939  0.19963576  0.82203313  1
  O  O3  1  0.52218939  0.80036424  0.17796687  1
  O  O4  1  0.25000000  0.59015253  0.77989372  1
  O  O5  1  0.25000000  0.29414359  0.51188316  1
  O  O6  1  0.75000000  0.40984747  0.22010628  1
  O  O7  1  0.75000000  0.70585641  0.48811684  1
loop_
_geom_bond_atom_site_label_1
_geom_bond_atom_site_label_2
_geom_bond_distance
_geom_bond_site_symmetry_2
Cs0 O6 2.986477 1_555
Cs0 O2 3.104470 1_655
Cs0 O1 3.104470 1_555
Cs0 O7 3.179384 1_545
Cs0 O5 3.420177 1_555
Cs0 O5 3.420177 1_655
Cs0 O7 3.656701 1_555
Cs1 O4 2.986477 1_555
Cs1 O3 3.104470 1_555
Cs1 O0 3.104470 1_455
Cs1 O5 3.179384 1_565
Cs1 O7 3.420177 1_455
Cs1 O7 3.420177 1_555
Cs1 O5 3.656701 1_555
Cs2 O5 2.914998 1_555
Cs2 O3 3.265999 1_555
Cs2 O0 3.265999 1_455
Cs2 O6 3.335008 1_455
Cs2 O6 3.335008 1_555
Cs2 O4 3.502537 1_554
Cs2 O1 3.662772 1_554
Cs2 O2 3.662772 1_554
Cs3 O7 2.914998 1_555
Cs3 O2 3.265999 1_655
Cs3 O1 3.265999 1_555
Cs3 O4 3.335008 1_555
Cs3 O4 3.335008 1_655
Cs3 O6 3.502537 1_556
Cs3 O0 3.662772 1_556
Cs3 O3 3.662772 1_556
K0 O4 2.605486 1_555
K0 O3 2.622724 1_556
K0 O0 2.622724 1_456
K0 O1 2.802616 1_565
K0 O2 2.802616 1_565
K1 O6 2.605486 1_555
K1 O2 2.622724 1_654
K1 O1 2.622724 1_554
K1 O0 2.802616 1_545
K1 O3 2.802616 1_545
Nb0 O7 1.870758 1_555
Nb0 O6 1.877521 1_555
Nb0 O0 1.878110 1_555
Nb0 O3 1.878110 1_555
Nb1 O5 1.870758 1_555
Nb1 O4 1.877521 1_555
Nb1 O1 1.878110 1_555
Nb1 O2 1.878110 1_555
