# generated using pymatgen
data_Ga2CoO4
_symmetry_space_group_name_H-M   'P 1'
_cell_length_a   5.70089071
_cell_length_b   8.51017508
_cell_length_c   5.81850556
_cell_angle_alpha   90.00003789
_cell_angle_beta   89.99985147
_cell_angle_gamma   89.99986402
_symmetry_Int_Tables_number   1
_chemical_formula_structural   Ga2CoO4
_chemical_formula_sum   'Ga8 Co4 O16'
_cell_volume   282.28816061
_cell_formula_units_Z   4
loop_
 _symmetry_equiv_pos_site_id
 _symmetry_equiv_pos_as_xyz
  1  'x, y, z'
loop_
 _atom_site_type_symbol
 _atom_site_label
 _atom_site_symmetry_multiplicity
 _atom_site_fract_x
 _atom_site_fract_y
 _atom_site_fract_z
 _atom_site_occupancy
  Ga  Ga0  1  -0.00000060  0.01165591  0.00000106  1
  Ga  Ga1  1  0.50000100  0.51165287  0.49999986  1
  Ga  Ga2  1  0.49999997  0.23834460  0.00000068  1
  Ga  Ga3  1  -0.00000118  0.73834727  0.50000096  1
  Ga  Ga4  1  -0.00022468  0.37499722  0.25000055  1
  Ga  Ga5  1  0.50022382  0.87500303  0.74999912  1
  Ga  Ga6  1  0.00022504  0.37499586  0.74999849  1
  Ga  Ga7  1  0.49977500  0.87500246  0.25000107  1
  Co  Co0  1  0.25000163  0.12500242  0.50000020  1
  Co  Co1  1  0.24999915  0.62500200  0.00000155  1
  Co  Co2  1  0.75000124  0.62500008  -0.00000157  1
  Co  Co3  1  0.75000013  0.12499983  0.50000010  1
  O  O0  1  0.76415391  0.36913284  -0.00013298  1
  O  O1  1  0.26415029  0.86913106  0.50013104  1
  O  O2  1  0.23584650  0.36913149  0.00013067  1
  O  O3  1  0.73584904  0.86913152  0.49986953  1
  O  O4  1  0.26415253  0.88086804  -0.00013021  1
  O  O5  1  0.76415116  0.38086901  0.50013044  1
  O  O6  1  0.73584565  0.88086836  0.00013207  1
  O  O7  1  0.23584983  0.38086851  0.49986837  1
  O  O8  1  0.00143068  0.60984059  0.23526901  1
  O  O9  1  0.49856357  0.10984292  0.73527064  1
  O  O10  1  0.99856649  0.60984164  0.76473118  1
  O  O11  1  0.50143650  0.10984455  0.26473108  1
  O  O12  1  0.50143539  0.64015730  0.23526805  1
  O  O13  1  0.99856431  0.14015492  0.73526846  1
  O  O14  1  0.49856551  0.64015799  0.76473139  1
  O  O15  1  0.00143712  0.14015671  0.26473019  1
loop_
_geom_bond_atom_site_label_1
_geom_bond_atom_site_label_2
_geom_bond_distance
_geom_bond_site_symmetry_2
Ga0 O4 1.872587 1_545
Ga0 O6 1.872593 1_445
Ga0 O15 1.889063 1_555
Ga0 O13 1.889071 1_454
Ga1 O5 1.872553 1_555
Ga1 O7 1.872565 1_555
Ga1 O12 1.889094 1_555
Ga1 O14 1.889095 1_555
Ga2 O2 1.872584 1_555
Ga2 O0 1.872597 1_555
Ga2 O11 1.889066 1_555
Ga2 O9 1.889071 1_554
Ga3 O3 1.872553 1_455
Ga3 O1 1.872563 1_555
Ga3 O10 1.889093 1_455
Ga3 O8 1.889105 1_555
Ga4 O5 1.981159 1_455
Ga4 O0 1.981168 1_455
Ga4 O2 1.981776 1_555
Ga4 O7 1.981787 1_555
Ga4 O15 2.000393 1_555
Ga4 O8 2.000418 1_555
Ga5 O3 1.981162 1_555
Ga5 O6 1.981167 1_556
Ga5 O4 1.981780 1_556
Ga5 O1 1.981784 1_555
Ga5 O9 2.000388 1_565
Ga5 O14 2.000432 1_555
Ga6 O2 1.981162 1_556
Ga6 O7 1.981163 1_555
Ga6 O0 1.981770 1_456
Ga6 O5 1.981786 1_455
Ga6 O13 2.000397 1_455
Ga6 O10 2.000439 1_455
Ga7 O1 1.981162 1_555
Ga7 O4 1.981162 1_555
Ga7 O6 1.981771 1_555
Ga7 O3 1.981788 1_555
Ga7 O11 2.000407 1_565
Ga7 O12 2.000433 1_555
Co0 O9 1.974477 1_555
Co0 O15 1.974483 1_555
Co0 O11 1.986253 1_555
Co0 O13 1.986256 1_455
Co0 O7 2.178959 1_555
Co0 O1 2.179003 1_545
Co1 O14 1.974487 1_554
Co1 O8 1.974488 1_555
Co1 O12 1.986252 1_555
Co1 O10 1.986255 1_454
Co1 O4 2.178960 1_555
Co1 O2 2.178997 1_555
Co2 O10 1.974472 1_554
Co2 O12 1.974483 1_555
Co2 O8 1.986242 1_655
Co2 O14 1.986253 1_554
Co2 O0 2.178969 1_555
Co2 O6 2.178979 1_555
Co3 O13 1.974476 1_555
Co3 O11 1.974476 1_555
Co3 O15 1.986265 1_655
Co3 O9 1.986265 1_555
Co3 O3 2.178978 1_545
Co3 O5 2.178986 1_555
