# generated using pymatgen
data_LiRhS4
_symmetry_space_group_name_H-M   'P 1'
_cell_length_a   5.71888690
_cell_length_b   5.74731987
_cell_length_c   5.86190101
_cell_angle_alpha   88.96043941
_cell_angle_beta   90.00000000
_cell_angle_gamma   90.00000000
_symmetry_Int_Tables_number   1
_chemical_formula_structural   LiRhS4
_chemical_formula_sum   'Li2 Rh2 S8'
_cell_volume   192.63884640
_cell_formula_units_Z   2
loop_
 _symmetry_equiv_pos_site_id
 _symmetry_equiv_pos_as_xyz
  1  'x, y, z'
loop_
 _atom_site_type_symbol
 _atom_site_label
 _atom_site_symmetry_multiplicity
 _atom_site_fract_x
 _atom_site_fract_y
 _atom_site_fract_z
 _atom_site_occupancy
  Li  Li0  1  0.50000000  0.00000000  0.50000000  1
  Li  Li1  1  0.00000000  0.50000000  0.50000000  1
  Rh  Rh0  1  0.50000000  0.50000000  0.00000000  1
  Rh  Rh1  1  0.00000000  0.00000000  0.00000000  1
  S  S0  1  0.88971174  0.61242169  0.90477779  1
  S  S1  1  0.38971174  0.88757831  0.09522221  1
  S  S2  1  0.09512692  0.10106824  0.61108187  1
  S  S3  1  0.59512692  0.39893176  0.38891813  1
  S  S4  1  0.11028826  0.38757831  0.09522221  1
  S  S5  1  0.61028826  0.11242169  0.90477779  1
  S  S6  1  0.90487308  0.89893176  0.38891813  1
  S  S7  1  0.40487308  0.60106824  0.61108187  1
loop_
_geom_bond_atom_site_label_1
_geom_bond_atom_site_label_2
_geom_bond_distance
_geom_bond_site_symmetry_2
Li0 S3 2.433652 1_555
Li0 S7 2.433652 1_545
Li0 S6 2.477159 1_545
Li0 S2 2.477159 1_555
Li0 S5 2.549695 1_555
Li0 S1 2.549695 1_545
Li1 S6 2.433652 1_455
Li1 S2 2.433652 1_555
Li1 S7 2.477159 1_555
Li1 S3 2.477159 1_455
Li1 S0 2.549695 1_455
Li1 S4 2.549695 1_555
Rh0 S0 2.383933 1_554
Rh0 S4 2.383933 1_555
Rh0 S1 2.390903 1_555
Rh0 S5 2.390903 1_554
Rh0 S3 2.404746 1_555
Rh0 S7 2.404746 1_554
Rh1 S1 2.383933 1_545
Rh1 S5 2.383933 1_454
Rh1 S4 2.390903 1_555
Rh1 S0 2.390903 1_444
Rh1 S6 2.404746 1_445
Rh1 S2 2.404746 1_554
S0 S4 2.110709 1_656
S1 S5 2.110709 1_564
S2 S6 2.069871 1_445
S3 S7 2.069871 1_555
