# generated using pymatgen
data_CoH11C5NO6
_symmetry_space_group_name_H-M   'P 1'
_cell_length_a   14.04261881
_cell_length_b   8.17833036
_cell_length_c   8.57147169
_cell_angle_alpha   90.00000000
_cell_angle_beta   121.31189975
_cell_angle_gamma   90.00000000
_symmetry_Int_Tables_number   1
_chemical_formula_structural   CoH11C5NO6
_chemical_formula_sum   'Co4 H44 C20 N4 O24'
_cell_volume   841.01635107
_cell_formula_units_Z   4
loop_
 _symmetry_equiv_pos_site_id
 _symmetry_equiv_pos_as_xyz
  1  'x, y, z'
loop_
 _atom_site_type_symbol
 _atom_site_label
 _atom_site_symmetry_multiplicity
 _atom_site_fract_x
 _atom_site_fract_y
 _atom_site_fract_z
 _atom_site_occupancy
  Co  Co0  1  0.99958063  0.25179879  0.00085330  1
  Co  Co1  1  0.99958063  0.74820124  0.50085330  1
  Co  Co2  1  0.49958063  0.75179781  0.00085330  1
  Co  Co3  1  0.49958063  0.24820222  0.50085330  1
  H  H0  1  0.68568177  0.14598759  0.06455699  1
  H  H1  1  0.68568278  0.85401243  0.56455696  1
  H  H2  1  0.18568277  0.64598757  0.06455699  1
  H  H3  1  0.18568177  0.35401341  0.56455696  1
  H  H4  1  0.69077487  0.34434114  0.98072126  1
  H  H5  1  0.69077487  0.65565788  0.48072227  1
  H  H6  1  0.19077484  0.84434212  0.98072126  1
  H  H7  1  0.19077484  0.15565886  0.48072126  1
  H  H8  1  0.62520045  0.31635218  0.10924123  1
  H  H9  1  0.62520045  0.68364683  0.60924126  1
  H  H10  1  0.12520148  0.81635221  0.10924024  1
  H  H11  1  0.12520048  0.18364782  0.60924126  1
  H  H12  1  0.24967146  0.35129365  0.24974613  1
  H  H13  1  0.24967146  0.64870737  0.74974613  1
  H  H14  1  0.74967146  0.85129263  0.24974613  1
  H  H15  1  0.74967146  0.14870635  0.74974613  1
  H  H16  1  0.00475915  0.57043294  0.82590625  1
  H  H17  1  0.00475815  0.42956703  0.32590527  1
  H  H18  1  0.50475815  0.07043296  0.82590428  1
  H  H19  1  0.50475815  0.92956605  0.32590628  1
  H  H20  1  0.03816153  0.95296308  0.23647681  1
  H  H21  1  0.03816153  0.04703593  0.73647579  1
  H  H22  1  0.53816156  0.45296406  0.23647581  1
  H  H23  1  0.53816156  0.54703692  0.73647681  1
  H  H24  1  0.86298253  0.25740326  0.24502730  1
  H  H25  1  0.86298355  0.74259572  0.74502733  1
  H  H26  1  0.36298355  0.75740428  0.24502730  1
  H  H27  1  0.36298253  0.24259674  0.74502733  1
  H  H28  1  0.81450601  0.43395575  0.28386902  1
  H  H29  1  0.81450702  0.56604425  0.78387001  1
  H  H30  1  0.31450702  0.93395575  0.28387001  1
  H  H31  1  0.31450601  0.06604424  0.78386899  1
  H  H32  1  0.88556927  0.26373380  0.54483259  1
  H  H33  1  0.88556927  0.73626718  0.04483357  1
  H  H34  1  0.38556826  0.76373282  0.54483259  1
  H  H35  1  0.38556826  0.23626622  0.04483257  1
  H  H36  1  0.79414883  0.10467090  0.40598423  1
  H  H37  1  0.79414984  0.89532912  0.90598322  1
  H  H38  1  0.29414981  0.60467088  0.40598322  1
  H  H39  1  0.29414880  0.39532811  0.90598423  1
  H  H40  1  0.73732971  0.28854888  0.43493487  1
  H  H41  1  0.73732971  0.71145315  0.93493386  1
  H  H42  1  0.23732872  0.78854786  0.43493386  1
  H  H43  1  0.23732972  0.21145112  0.93493487  1
  C  C0  1  0.69289283  0.27678838  0.09157456  1
  C  C1  1  0.69289283  0.72321063  0.59157454  1
  C  C2  1  0.19289182  0.77679038  0.09157555  1
  C  C3  1  0.19289182  0.22321063  0.59157555  1
  C  C4  1  0.24808667  0.21658578  0.24882022  1
  C  C5  1  0.24808667  0.78341421  0.74881920  1
  C  C6  1  0.74808664  0.71658478  0.24881820  1
  C  C7  1  0.74808664  0.28341424  0.74881920  1
  C  C8  1  0.03255699  0.47959270  0.76302602  1
  C  C9  1  0.03255599  0.52040530  0.26302405  1
  C  C10  1  0.53255701  0.97959571  0.76302304  1
  C  C11  1  0.53255701  0.02040531  0.26302605  1
  C  C12  1  0.97839422  0.02394846  0.25520461  1
  C  C13  1  0.97839327  0.97605056  0.75520563  1
  C  C14  1  0.47839324  0.52394944  0.25520560  1
  C  C15  1  0.47839425  0.47605053  0.75520461  1
  C  C16  1  0.80501859  0.23643328  0.42431621  1
  C  C17  1  0.80501859  0.76356670  0.92431618  1
  C  C18  1  0.30501960  0.73643229  0.42431719  1
  C  C19  1  0.30501960  0.26356673  0.92431719  1
  N  N0  1  0.80062492  0.30809841  0.26203764  1
  N  N1  1  0.80062594  0.69190061  0.76203862  1
  N  N2  1  0.30062594  0.80809939  0.26203764  1
  N  N3  1  0.30062495  0.19190161  0.76203761  1
  O  O0  1  0.15615427  0.14367445  0.15930743  1
  O  O1  1  0.15615427  0.85632558  0.65930643  1
  O  O2  1  0.65615427  0.64367442  0.15930641  1
  O  O3  1  0.65615427  0.35632555  0.65930744  1
  O  O4  1  0.04690408  0.52608206  0.63627459  1
  O  O5  1  0.04690308  0.47391892  0.13627357  1
  O  O6  1  0.54690308  0.02608109  0.63627459  1
  O  O7  1  0.54690308  0.97391889  0.13627556  1
  O  O8  1  0.04910146  0.33534786  0.82455624  1
  O  O9  1  0.04910246  0.66465313  0.32455627  1
  O  O10  1  0.54910143  0.83534687  0.82455624  1
  O  O11  1  0.54910143  0.16465213  0.32455627  1
  O  O12  1  0.94476027  0.96705086  0.35440716  1
  O  O13  1  0.94476027  0.03294914  0.85440615  1
  O  O14  1  0.44476027  0.46705086  0.35440615  1
  O  O15  1  0.44476027  0.53294914  0.85440716  1
  O  O16  1  0.94656002  0.16120798  0.17388031  1
  O  O17  1  0.94656002  0.83879400  0.67388133  1
  O  O18  1  0.44655999  0.66120600  0.17388031  1
  O  O19  1  0.44655999  0.33879204  0.67388031  1
  O  O20  1  0.34057942  0.14191886  0.33964807  1
  O  O21  1  0.34057942  0.85808213  0.83964807  1
  O  O22  1  0.84057945  0.64191787  0.33964708  1
  O  O23  1  0.84057945  0.35808114  0.83964807  1
loop_
_geom_bond_atom_site_label_1
_geom_bond_atom_site_label_2
_geom_bond_distance
_geom_bond_site_symmetry_2
Co0 O5 2.070540 1_655
Co0 O8 2.079954 1_654
Co0 O0 2.087349 1_655
Co0 O13 2.089831 1_554
Co0 O23 2.107947 1_554
Co0 O16 2.109637 1_555
Co1 O4 2.070537 1_655
Co1 O9 2.079961 1_655
Co1 O1 2.087348 1_655
Co1 O12 2.089828 1_555
Co1 O22 2.107951 1_555
Co1 O17 2.109650 1_555
Co2 O7 2.070554 1_555
Co2 O10 2.079953 1_554
Co2 O2 2.087345 1_555
Co2 O15 2.089821 1_554
Co2 O21 2.107954 1_554
Co2 O18 2.109640 1_555
Co3 O6 2.070551 1_555
Co3 O11 2.079956 1_555
Co3 O3 2.087346 1_555
Co3 O14 2.089824 1_555
Co3 O20 2.107950 1_555
Co3 O19 2.109634 1_555
H24 N0 1.045297 1_555
H25 N1 1.045301 1_555
H26 N2 1.045297 1_555
H27 N3 1.045296 1_555
H28 N0 1.046214 1_555
H29 N1 1.046206 1_555
H30 N2 1.046207 1_555
H31 N3 1.046215 1_555
C0 H4 1.086079 1_554
C0 H8 1.086665 1_555
C0 H0 1.088042 1_555
C0 N0 1.480408 1_555
C1 H5 1.086071 1_555
C1 H9 1.086665 1_555
C1 H1 1.088051 1_555
C1 N1 1.480419 1_555
C2 H6 1.086088 1_554
C2 H10 1.086623 1_555
C2 H2 1.088060 1_555
C2 N2 1.480417 1_555
C3 H7 1.086088 1_555
C3 H11 1.086644 1_555
C3 H3 1.088060 1_555
C3 N3 1.480410 1_555
C4 H12 1.101855 1_555
C4 O0 1.257509 1_555
C4 O20 1.270814 1_555
C5 H13 1.101847 1_555
C5 O1 1.257510 1_555
C5 O21 1.270819 1_555
C6 H14 1.101855 1_555
C6 O2 1.257505 1_555
C6 O22 1.270816 1_555
C7 H15 1.101856 1_555
C7 O3 1.257508 1_555
C7 O23 1.270816 1_555
C8 H16 1.101582 1_555
C8 O4 1.262150 1_555
C8 O8 1.263497 1_555
C9 H17 1.101577 1_555
C9 O5 1.262135 1_555
C9 O9 1.263524 1_555
C10 H18 1.101581 1_565
C10 O6 1.262107 1_565
C10 O10 1.263535 1_555
C11 H19 1.101586 1_545
C11 O7 1.262126 1_545
C11 O11 1.263512 1_555
C12 H20 1.098744 1_645
C12 O12 1.257007 1_545
C12 O16 1.273571 1_555
C13 H21 1.098765 1_665
C13 O13 1.256985 1_565
C13 O17 1.273549 1_555
C14 H22 1.098765 1_555
C14 O14 1.256985 1_555
C14 O18 1.273552 1_555
C15 H23 1.098748 1_555
C15 O15 1.257010 1_555
C15 O19 1.273563 1_555
C16 H32 1.087164 1_555
C16 H40 1.087830 1_555
C16 H36 1.088243 1_555
C16 N0 1.480847 1_555
C17 H33 1.087166 1_556
C17 H41 1.087819 1_555
C17 H37 1.088243 1_555
C17 N1 1.480848 1_555
C18 H34 1.087145 1_555
C18 H42 1.087847 1_555
C18 H38 1.088237 1_555
C18 N2 1.480861 1_555
C19 H35 1.087145 1_556
C19 H43 1.087839 1_555
C19 H39 1.088237 1_555
C19 N3 1.480848 1_555
