# generated using pymatgen
data_CuOs3Pb4O13
_symmetry_space_group_name_H-M   'P 1'
_cell_length_a   7.27157373
_cell_length_b   7.27157259
_cell_length_c   7.27157183
_cell_angle_alpha   60.65905770
_cell_angle_beta   60.65906501
_cell_angle_gamma   60.65905671
_symmetry_Int_Tables_number   1
_chemical_formula_structural   CuOs3Pb4O13
_chemical_formula_sum   'Cu1 Os3 Pb4 O13'
_cell_volume   275.92075914
_cell_formula_units_Z   1
loop_
 _symmetry_equiv_pos_site_id
 _symmetry_equiv_pos_as_xyz
  1  'x, y, z'
loop_
 _atom_site_type_symbol
 _atom_site_label
 _atom_site_symmetry_multiplicity
 _atom_site_fract_x
 _atom_site_fract_y
 _atom_site_fract_z
 _atom_site_occupancy
  Cu  Cu0  1  0.49820589  0.49820589  0.49820589  1
  Os  Os0  1  0.00072891  0.49978172  0.49978172  1
  Os  Os1  1  0.49978172  0.49978172  0.00072891  1
  Os  Os2  1  0.49978172  0.00072891  0.49978172  1
  Pb  Pb0  1  0.99766355  0.99766355  0.99766355  1
  Pb  Pb1  1  0.50696199  0.99901098  0.99901098  1
  Pb  Pb2  1  0.99901098  0.99901098  0.50696199  1
  Pb  Pb3  1  0.99901098  0.50696199  0.99901098  1
  O  O0  1  0.83851523  0.42262326  0.42262326  1
  O  O1  1  0.41677336  0.82318985  0.82318985  1
  O  O2  1  0.42262326  0.42262326  0.83851523  1
  O  O3  1  0.82318985  0.82318985  0.41677336  1
  O  O4  1  0.82318985  0.41677336  0.82318985  1
  O  O5  1  0.42262326  0.83851523  0.42262326  1
  O  O6  1  0.16632852  0.57300671  0.57300671  1
  O  O7  1  0.57874359  0.18007005  0.18007005  1
  O  O8  1  0.57300671  0.57300671  0.16632852  1
  O  O9  1  0.18007005  0.18007005  0.57874359  1
  O  O10  1  0.18007005  0.57874359  0.18007005  1
  O  O11  1  0.57300671  0.16632852  0.57300671  1
  O  O12  1  0.12571082  0.12571082  0.12571082  1
loop_
_geom_bond_atom_site_label_1
_geom_bond_atom_site_label_2
_geom_bond_distance
_geom_bond_site_symmetry_2
Cu0 O8 2.032912 1_555
Cu0 O11 2.032912 1_555
Cu0 O6 2.032913 1_555
Cu0 O2 2.087585 1_555
Cu0 O5 2.087585 1_555
Cu0 O0 2.087585 1_555
O0 Os0 1.904354 1_655
O0 Pb3 2.559996 1_554
O0 Pb2 2.559996 1_545
O1 Os2 1.989638 1_565
O1 Os1 1.989638 1_556
O1 Pb0 2.550694 1_455
O1 Pb1 2.635235 1_555
O2 Os1 1.904354 1_556
O2 Pb1 2.559996 1_545
O2 Pb3 2.559997 1_455
O3 Os0 1.989638 1_655
O3 Os2 1.989638 1_565
O3 Pb0 2.550693 1_554
O3 Pb2 2.635235 1_555
O4 Os0 1.989638 1_655
O4 Os1 1.989638 1_556
O4 Pb0 2.550693 1_545
O4 Pb3 2.635235 1_555
O5 Os2 1.904354 1_565
O5 Pb1 2.559996 1_554
O5 Pb2 2.559997 1_455
O6 Os0 1.884573 1_555
O6 Pb3 2.593823 1_455
O6 Pb2 2.593823 1_455
O7 Os2 1.972193 1_555
O7 Os1 1.972193 1_555
O7 Pb0 2.569580 1_544
O7 Pb1 2.604790 1_544
O8 Os1 1.884573 1_555
O8 Pb1 2.593823 1_554
O8 Pb3 2.593824 1_554
O9 Os0 1.972193 1_555
O9 Os2 1.972193 1_555
O9 Pb0 2.569579 1_445
O9 Pb2 2.604790 1_445
O10 Os0 1.972193 1_555
O10 Os1 1.972193 1_555
O10 Pb0 2.569579 1_454
O10 Pb3 2.604790 1_454
O11 Os2 1.884573 1_555
O11 Pb1 2.593823 1_545
O11 Pb2 2.593824 1_545
O12 Pb0 2.269306 1_444
O12 Pb2 2.282304 1_445
O12 Pb3 2.282305 1_454
O12 Pb1 2.282305 1_544
