# generated using pymatgen
data_Lu6Bi2W
_symmetry_space_group_name_H-M   'P 1'
_cell_length_a   8.04188524
_cell_length_b   8.04188495
_cell_length_c   4.34199273
_cell_angle_alpha   90.00000000
_cell_angle_beta   90.00000000
_cell_angle_gamma   120.00000921
_symmetry_Int_Tables_number   1
_chemical_formula_structural   Lu6Bi2W
_chemical_formula_sum   'Lu6 Bi2 W1'
_cell_volume   243.18423097
_cell_formula_units_Z   1
loop_
 _symmetry_equiv_pos_site_id
 _symmetry_equiv_pos_as_xyz
  1  'x, y, z'
loop_
 _atom_site_type_symbol
 _atom_site_label
 _atom_site_symmetry_multiplicity
 _atom_site_fract_x
 _atom_site_fract_y
 _atom_site_fract_z
 _atom_site_occupancy
  Lu  Lu0  1  0.23559884  1.00000000  0.50000000  1
  Lu  Lu1  1  1.00000000  0.23559884  0.50000000  1
  Lu  Lu2  1  0.76440116  0.76440116  0.50000000  1
  Lu  Lu3  1  0.61647339  1.00000000  0.00000000  1
  Lu  Lu4  1  1.00000000  0.61647339  0.00000000  1
  Lu  Lu5  1  0.38352661  0.38352661  0.00000000  1
  Bi  Bi0  1  0.33333300  0.66666700  0.50000000  1
  Bi  Bi1  1  0.66666700  0.33333300  0.50000000  1
  W  W0  1  0.00000000  0.00000000  0.00000000  1
loop_
_geom_bond_atom_site_label_1
_geom_bond_atom_site_label_2
_geom_bond_distance
_geom_bond_site_symmetry_2
Lu0 W0 2.881485 1_565
Lu0 W0 2.881485 1_566
Lu0 Lu2 3.281645 1_455
Lu0 Lu1 3.281646 1_465
Lu0 Lu4 3.460067 1_456
Lu0 Lu4 3.460067 1_455
Lu0 Lu5 3.460068 1_566
Lu0 Lu5 3.460068 1_565
Lu0 Lu3 3.754315 1_556
Lu0 Lu3 3.754315 1_555
Lu1 W0 2.881485 1_655
Lu1 W0 2.881485 1_656
Lu1 Lu2 3.281645 1_545
Lu1 Lu3 3.460068 1_546
Lu1 Lu3 3.460068 1_545
Lu1 Lu5 3.460068 1_656
Lu1 Lu5 3.460068 1_655
Lu1 Lu4 3.754315 1_555
Lu1 Lu4 3.754315 1_556
Lu2 W0 2.881485 1_665
Lu2 W0 2.881485 1_666
Lu2 Lu3 3.460068 1_555
Lu2 Lu3 3.460068 1_556
Lu2 Lu4 3.460068 1_556
Lu2 Lu4 3.460068 1_555
Lu2 Lu5 3.754315 1_556
Lu2 Lu5 3.754315 1_555
Lu3 W0 3.084277 1_665
Lu4 W0 3.084277 1_665
Lu5 W0 3.084276 1_555
Bi0 Lu0 3.148076 1_555
Bi0 Lu1 3.148081 1_455
Bi0 Lu2 3.148084 1_555
Bi0 Lu4 3.313590 1_456
Bi0 Lu4 3.313590 1_455
Bi0 Lu3 3.313592 1_555
Bi0 Lu3 3.313592 1_556
Bi0 Lu5 3.313596 1_556
Bi0 Lu5 3.313596 1_555
Bi1 Lu1 3.148076 1_555
Bi1 Lu0 3.148081 1_545
Bi1 Lu2 3.148083 1_555
Bi1 Lu3 3.313589 1_546
Bi1 Lu3 3.313589 1_545
Bi1 Lu4 3.313592 1_555
Bi1 Lu4 3.313592 1_556
Bi1 Lu5 3.313596 1_556
Bi1 Lu5 3.313596 1_555
