# generated using pymatgen
data_Zr6Al16Cu3Rh4
_symmetry_space_group_name_H-M   'P 1'
_cell_length_a   8.66122394
_cell_length_b   8.66958521
_cell_length_c   8.61746867
_cell_angle_alpha   59.69051270
_cell_angle_beta   60.23107093
_cell_angle_gamma   59.63432684
_symmetry_Int_Tables_number   1
_chemical_formula_structural   Zr6Al16Cu3Rh4
_chemical_formula_sum   'Zr6 Al16 Cu3 Rh4'
_cell_volume   455.98646006
_cell_formula_units_Z   1
loop_
 _symmetry_equiv_pos_site_id
 _symmetry_equiv_pos_as_xyz
  1  'x, y, z'
loop_
 _atom_site_type_symbol
 _atom_site_label
 _atom_site_symmetry_multiplicity
 _atom_site_fract_x
 _atom_site_fract_y
 _atom_site_fract_z
 _atom_site_occupancy
  Zr  Zr0  1  0.69709909  0.69973146  0.30026854  1
  Zr  Zr1  1  0.32072648  0.67965394  0.32034606  1
  Zr  Zr2  1  0.69449428  0.30550572  0.30550572  1
  Zr  Zr3  1  0.30290091  0.30026854  0.69973146  1
  Zr  Zr4  1  0.67927352  0.32034606  0.67965394  1
  Zr  Zr5  1  0.30550572  0.69449428  0.69449428  1
  Al  Al0  1  0.88789941  0.87600397  0.35921960  1
  Al  Al1  1  0.87687602  0.35921960  0.87600397  1
  Al  Al2  1  0.35720170  0.87461810  0.88478207  1
  Al  Al3  1  0.88339712  0.88478207  0.87461810  1
  Al  Al4  1  0.11210059  0.12399603  0.64078040  1
  Al  Al5  1  0.12312398  0.64078040  0.12399603  1
  Al  Al6  1  0.64279830  0.12538190  0.11521793  1
  Al  Al7  1  0.11660288  0.11521793  0.12538190  1
  Al  Al8  1  0.66967907  0.66666969  0.99771380  1
  Al  Al9  1  0.66593643  0.99771380  0.66666969  1
  Al  Al10  1  0.00116423  0.66399945  0.66909595  1
  Al  Al11  1  0.66573938  0.66909595  0.66399945  1
  Al  Al12  1  0.33032093  0.33333031  0.00228620  1
  Al  Al13  1  0.33406357  0.00228620  0.33333031  1
  Al  Al14  1  0.99883577  0.33600055  0.33090405  1
  Al  Al15  1  0.33426062  0.33090405  0.33600055  1
  Cu  Cu0  1  0.50000000  0.00000000  0.50000000  1
  Cu  Cu1  1  0.00000000  0.50000000  0.00000000  1
  Cu  Cu2  1  0.50000000  0.00000000  0.00000000  1
  Rh  Rh0  1  0.00000000  0.00000000  0.00000000  1
  Rh  Rh1  1  0.00000000  0.00000000  0.50000000  1
  Rh  Rh2  1  0.00000000  0.50000000  0.50000000  1
  Rh  Rh3  1  0.50000000  0.50000000  0.00000000  1
loop_
_geom_bond_atom_site_label_1
_geom_bond_atom_site_label_2
_geom_bond_distance
_geom_bond_site_symmetry_2
Zr0 Zr1 3.266505 1_555
Zr0 Zr4 3.269435 1_555
Zr0 Zr2 3.406608 1_555
Zr0 Zr5 3.406608 1_555
Zr1 Zr2 3.226289 1_555
Zr1 Zr5 3.226289 1_555
Zr1 Zr3 3.269435 1_555
Zr2 Zr4 3.226289 1_555
Zr2 Zr3 3.406608 1_555
Zr3 Zr4 3.266505 1_555
Zr3 Zr5 3.406608 1_555
Zr4 Zr5 3.226289 1_555
Al0 Rh0 2.528387 1_665
Al0 Rh2 2.649311 1_655
Al0 Rh1 2.666712 1_665
Al0 Al10 2.701069 1_655
Al0 Cu0 2.744512 1_565
Al0 Al11 2.744874 1_555
Al0 Al9 2.746231 1_555
Al0 Al7 2.873494 1_665
Al0 Al5 2.879096 1_655
Al0 Al6 2.967465 1_565
Al0 Zr0 3.081402 1_555
Al0 Zr2 3.099915 1_565
Al0 Zr1 3.152803 1_655
Al1 Rh0 2.528387 1_656
Al1 Rh2 2.649311 1_655
Al1 Rh3 2.666705 1_556
Al1 Al11 2.701069 1_555
Al1 Cu1 2.744519 1_656
Al1 Al10 2.744874 1_655
Al1 Al8 2.746231 1_555
Al1 Al6 2.873482 1_556
Al1 Al4 2.879096 1_655
Al1 Al7 2.967477 1_656
Al1 Zr3 3.081410 1_655
Al1 Zr2 3.099915 1_556
Al1 Zr4 3.152796 1_555
Al2 Rh0 2.525466 1_566
Al2 Rh3 2.639513 1_556
Al2 Cu0 2.712005 1_565
Al2 Cu2 2.713880 1_566
Al2 Al8 2.726458 1_555
Al2 Al9 2.773406 1_555
Al2 Al5 2.873482 1_556
Al2 Al7 2.944901 1_566
Al2 Al4 2.967465 1_565
Al2 Zr5 3.057556 1_555
Al2 Zr3 3.071196 1_565
Al2 Zr1 3.162915 1_556
Al3 Rh0 2.525473 1_666
Al3 Rh1 2.639513 1_665
Al3 Cu1 2.712005 1_656
Al3 Cu2 2.713873 1_566
Al3 Al9 2.726458 1_555
Al3 Al8 2.773406 1_555
Al3 Al4 2.873494 1_665
Al3 Al6 2.944901 1_566
Al3 Al5 2.967477 1_656
Al3 Zr5 3.057562 1_655
Al3 Zr0 3.071194 1_556
Al3 Zr4 3.162913 1_565
Al4 Rh0 2.528387 1_556
Al4 Rh2 2.649311 1_555
Al4 Rh1 2.666712 1_555
Al4 Cu0 2.744512 1_555
Al4 Zr3 3.081402 1_555
Al4 Zr5 3.099915 1_545
Al4 Zr4 3.152803 1_455
Al5 Rh0 2.528387 1_565
Al5 Rh2 2.649311 1_555
Al5 Rh3 2.666705 1_555
Al5 Cu1 2.744519 1_555
Al5 Zr0 3.081410 1_455
Al5 Zr5 3.099915 1_554
Al5 Zr1 3.152796 1_555
Al6 Rh0 2.525466 1_655
Al6 Rh3 2.639513 1_555
Al6 Cu0 2.712005 1_555
Al6 Cu2 2.713880 1_555
Al6 Zr2 3.057556 1_555
Al6 Zr0 3.071196 1_545
Al6 Zr4 3.162915 1_554
Al7 Rh0 2.525473 1_555
Al7 Rh1 2.639513 1_555
Al7 Cu1 2.712005 1_555
Al7 Cu2 2.713873 1_555
Al7 Zr2 3.057562 1_455
Al7 Zr3 3.071194 1_554
Al7 Zr1 3.162913 1_545
Al8 Cu1 2.474094 1_656
Al8 Cu2 2.499243 1_566
Al8 Rh3 2.517458 1_556
Al8 Al9 2.847825 1_555
Al8 Zr0 2.893845 1_556
Al8 Zr2 2.896293 1_556
Al8 Zr1 2.916323 1_556
Al9 Cu0 2.474086 1_565
Al9 Cu2 2.499243 1_566
Al9 Rh1 2.517465 1_665
Al9 Zr3 2.893840 1_565
Al9 Zr2 2.896293 1_565
Al9 Zr4 2.916327 1_565
Al10 Cu1 2.459006 1_556
Al10 Rh2 2.503053 1_555
Al10 Rh1 2.511863 1_565
Al10 Al3 2.737657 1_455
Al10 Al8 2.861529 1_455
Al10 Al9 2.882245 1_455
Al10 Zr3 2.890728 1_555
Al10 Zr5 2.898624 1_555
Al10 Zr1 2.901603 1_555
Al10 Al11 2.904990 1_455
Al11 Cu0 2.459004 1_565
Al11 Rh2 2.503058 1_655
Al11 Rh3 2.511861 1_556
Al11 Al2 2.737657 1_555
Al11 Al9 2.861529 1_555
Al11 Al8 2.882245 1_555
Al11 Zr0 2.890724 1_555
Al11 Zr5 2.898615 1_555
Al11 Zr4 2.901599 1_555
Al12 Cu1 2.474094 1_555
Al12 Cu2 2.499243 1_555
Al12 Rh3 2.517458 1_555
Al12 Al6 2.726458 1_555
Al12 Al5 2.746231 1_555
Al12 Al7 2.773406 1_555
Al12 Al13 2.847825 1_555
Al12 Al14 2.861529 1_455
Al12 Al15 2.882245 1_555
Al12 Zr3 2.893845 1_554
Al12 Zr5 2.896293 1_554
Al12 Zr4 2.916323 1_554
Al13 Cu0 2.474086 1_555
Al13 Cu2 2.499243 1_555
Al13 Rh1 2.517465 1_555
Al13 Al7 2.726458 1_555
Al13 Al4 2.746231 1_555
Al13 Al6 2.773406 1_555
Al13 Al15 2.861529 1_555
Al13 Al14 2.882245 1_455
Al13 Zr0 2.893840 1_545
Al13 Zr5 2.896293 1_545
Al13 Zr1 2.916327 1_545
Al14 Cu1 2.459006 1_655
Al14 Rh2 2.503053 1_655
Al14 Rh1 2.511863 1_655
Al14 Al4 2.701069 1_655
Al14 Al7 2.737657 1_655
Al14 Al5 2.744874 1_655
Al14 Zr0 2.890728 1_555
Al14 Zr2 2.898624 1_555
Al14 Zr4 2.901603 1_555
Al14 Al15 2.904990 1_655
Al15 Cu0 2.459004 1_555
Al15 Rh2 2.503058 1_555
Al15 Rh3 2.511861 1_555
Al15 Al5 2.701069 1_555
Al15 Al6 2.737657 1_555
Al15 Al4 2.744874 1_555
Al15 Zr3 2.890724 1_555
Al15 Zr2 2.898615 1_555
Al15 Zr1 2.901599 1_555
Cu0 Zr3 3.124915 1_555
Cu0 Zr0 3.124915 1_545
Cu0 Zr2 3.144622 1_555
Cu0 Zr5 3.144622 1_545
Cu1 Zr0 3.124915 1_455
Cu1 Zr3 3.124915 1_554
Cu1 Zr5 3.144622 1_554
Cu1 Zr2 3.144622 1_455
Cu2 Zr0 3.079102 1_545
Cu2 Zr3 3.079102 1_554
Cu2 Zr4 3.179615 1_554
Cu2 Zr1 3.179615 1_545
Rh1 Zr5 3.108603 1_545
Rh1 Zr2 3.108603 1_455
Rh1 Zr4 3.177404 1_455
Rh1 Zr1 3.177404 1_545
Rh2 Zr3 3.118709 1_555
Rh2 Zr0 3.118709 1_455
Rh2 Zr1 3.195204 1_555
Rh2 Zr4 3.195204 1_455
Rh3 Zr2 3.108603 1_555
Rh3 Zr5 3.108603 1_554
Rh3 Zr1 3.177404 1_555
Rh3 Zr4 3.177404 1_554
