# generated using pymatgen
data_K8Sn4BiSb3
_symmetry_space_group_name_H-M   'P 1'
_cell_length_a   6.60416793
_cell_length_b   6.76132946
_cell_length_c   13.23964680
_cell_angle_alpha   90.01976397
_cell_angle_beta   90.00000000
_cell_angle_gamma   90.00000000
_symmetry_Int_Tables_number   1
_chemical_formula_structural   K8Sn4BiSb3
_chemical_formula_sum   'K8 Sn4 Bi1 Sb3'
_cell_volume   591.18932001
_cell_formula_units_Z   1
loop_
 _symmetry_equiv_pos_site_id
 _symmetry_equiv_pos_as_xyz
  1  'x, y, z'
loop_
 _atom_site_type_symbol
 _atom_site_label
 _atom_site_symmetry_multiplicity
 _atom_site_fract_x
 _atom_site_fract_y
 _atom_site_fract_z
 _atom_site_occupancy
  K  K0  1  0.75000000  0.37853984  0.66610608  1
  K  K1  1  0.25000000  0.60481615  0.33329683  1
  K  K2  1  0.75000000  0.62162217  0.16109309  1
  K  K3  1  0.25000000  0.15564849  0.51581047  1
  K  K4  1  0.25000000  0.84039364  0.01451033  1
  K  K5  1  0.75000000  0.83191034  0.49867748  1
  K  K6  1  0.75000000  0.17088098  0.99607557  1
  K  K7  1  0.25000000  0.39604714  0.83475292  1
  Sn  Sn0  1  0.47495221  0.09118905  0.24863010  1
  Sn  Sn1  1  0.02504779  0.09118905  0.24863010  1
  Sn  Sn2  1  0.02433318  0.90647072  0.75132214  1
  Sn  Sn3  1  0.47566682  0.90647072  0.75132214  1
  Bi  Bi0  1  0.75000000  0.32945135  0.38728532  1
  Sb  Sb0  1  0.25000000  0.34205836  0.10347237  1
  Sb  Sb1  1  0.25000000  0.65591413  0.60503978  1
  Sb  Sb2  1  0.75000000  0.67739786  0.88397531  1
loop_
_geom_bond_atom_site_label_1
_geom_bond_atom_site_label_2
_geom_bond_distance
_geom_bond_site_symmetry_2
K0 Sb2 3.521296 1_555
K0 Sn2 3.839985 1_645
K0 Sn3 3.839985 1_545
K0 Sb1 3.882740 1_555
K0 Sb1 3.882740 1_655
K1 Sb0 3.522946 1_555
K1 Sb1 3.614212 1_555
K1 Sn0 3.778965 1_565
K1 Sn1 3.778965 1_565
K1 Sn1 3.939707 1_555
K1 Sn0 3.939707 1_555
K2 Sb2 3.688401 1_554
K2 Sn0 3.836685 1_565
K2 Sn1 3.836685 1_665
K2 Sb0 3.880424 1_555
K2 Sb0 3.880424 1_655
K3 Sb1 3.579823 1_545
K3 Sb1 3.582444 1_555
K3 Sn3 3.845217 1_545
K3 Sn2 3.845217 1_545
K3 Sn1 3.861214 1_555
K3 Sn0 3.861214 1_555
K4 Sb0 3.569724 1_555
K4 Sb0 3.590215 1_565
K4 Sn3 3.816237 1_554
K4 Sn2 3.816237 1_554
K4 Sn1 3.832335 1_565
K4 Sn0 3.832335 1_565
K4 Sb2 3.886361 1_554
K4 Sb2 3.886361 1_454
K5 Sb1 3.782058 1_655
K5 Sb1 3.782058 1_555
K5 Sn2 3.837176 1_655
K5 Sn3 3.837176 1_555
K6 Sb2 3.651335 1_545
K6 Sb2 3.732964 1_555
K6 Sb0 3.776765 1_556
K6 Sb0 3.776765 1_656
K6 Sn1 3.843391 1_656
K6 Sn0 3.843391 1_556
K7 Sb1 3.512909 1_555
K7 Sb0 3.576554 1_556
K7 Sn3 3.794215 1_545
K7 Sn2 3.794215 1_545
K7 Sb2 3.866053 1_455
K7 Sb2 3.866053 1_555
K7 Sn3 3.918451 1_555
K7 Sn2 3.918451 1_555
Sn0 Sn1 2.971244 1_555
Sn2 Sn3 2.980683 1_555
Bi0 Sn0 3.043465 1_555
Bi0 Sn1 3.043465 1_655
Bi0 K2 3.588147 1_555
Bi0 K5 3.673580 1_545
Bi0 K5 3.703126 1_555
Bi0 K0 3.706265 1_555
Bi0 K1 3.857722 1_555
Bi0 K1 3.857722 1_655
Bi0 K3 3.896360 1_655
Bi0 K3 3.896360 1_555
Sb0 Sn1 2.963091 1_555
Sb0 Sn0 2.963091 1_555
Sb1 Sn3 2.973167 1_555
Sb1 Sn2 2.973167 1_555
Sb2 Sn2 2.961031 1_655
Sb2 Sn3 2.961031 1_555
