# generated using pymatgen
data_Rb2TbF6
_symmetry_space_group_name_H-M   'P 1'
_cell_length_a   6.84433977
_cell_length_b   6.84433977
_cell_length_c   7.37748253
_cell_angle_alpha   88.99750854
_cell_angle_beta   88.99750854
_cell_angle_gamma   117.29984857
_symmetry_Int_Tables_number   1
_chemical_formula_structural   Rb2TbF6
_chemical_formula_sum   'Rb4 Tb2 F12'
_cell_volume   306.93112121
_cell_formula_units_Z   2
loop_
 _symmetry_equiv_pos_site_id
 _symmetry_equiv_pos_as_xyz
  1  'x, y, z'
loop_
 _atom_site_type_symbol
 _atom_site_label
 _atom_site_symmetry_multiplicity
 _atom_site_fract_x
 _atom_site_fract_y
 _atom_site_fract_z
 _atom_site_occupancy
  Rb  Rb0  1  0.63706250  0.32415210  0.99836362  1
  Rb  Rb1  1  0.67584790  0.36293750  0.50163638  1
  Rb  Rb2  1  0.32415210  0.63706250  0.49836362  1
  Rb  Rb3  1  0.36293750  0.67584790  0.00163638  1
  Tb  Tb0  1  0.96098466  0.03901534  0.25000000  1
  Tb  Tb1  1  0.03901534  0.96098466  0.75000000  1
  F  F0  1  0.13550689  0.92845463  0.04484804  1
  F  F1  1  0.07154537  0.86449311  0.45515196  1
  F  F2  1  0.86449311  0.07154537  0.95515196  1
  F  F3  1  0.92845463  0.13550689  0.54484804  1
  F  F4  1  0.00850020  0.61481643  0.77020904  1
  F  F5  1  0.38518357  0.99149980  0.72979096  1
  F  F6  1  0.69418269  0.69255212  0.24027997  1
  F  F7  1  0.30744788  0.30581731  0.25972003  1
  F  F8  1  0.30581731  0.30744788  0.75972003  1
  F  F9  1  0.69255212  0.69418269  0.74027997  1
  F  F10  1  0.61481643  0.00850020  0.27020904  1
  F  F11  1  0.99149980  0.38518357  0.22979096  1
loop_
_geom_bond_atom_site_label_1
_geom_bond_atom_site_label_2
_geom_bond_distance
_geom_bond_site_symmetry_2
F0 Tb0 2.257447 1_465
F0 Tb1 2.320685 1_554
F0 Rb3 2.825680 1_555
F0 Rb0 3.261109 1_564
F1 Tb0 2.257447 1_465
F1 Tb1 2.320685 1_555
F1 Rb2 2.825680 1_555
F1 Rb1 3.261109 1_455
F2 Tb1 2.257447 1_645
F2 Tb0 2.320685 1_556
F2 Rb0 2.825680 1_555
F2 Rb3 3.261109 1_546
F3 Tb1 2.257447 1_645
F3 Tb0 2.320685 1_555
F3 Rb1 2.825680 1_555
F3 Rb2 3.261109 1_655
F4 Tb1 2.282988 1_555
F4 Rb3 2.866152 1_556
F4 Rb2 2.872067 1_555
F4 Rb0 2.889248 1_455
F4 Rb1 2.959492 1_455
F5 Tb1 2.282988 1_555
F5 Rb2 2.866152 1_555
F5 Rb3 2.872067 1_556
F5 Rb1 2.889248 1_565
F5 Rb0 2.959492 1_565
F6 Tb0 2.236358 1_565
F6 Rb3 2.856866 1_555
F6 Rb1 2.898735 1_555
F6 Rb0 2.995580 1_554
F6 Rb2 3.017826 1_555
F7 Tb0 2.236358 1_455
F7 Rb2 2.856866 1_555
F7 Rb0 2.898735 1_554
F7 Rb1 2.995580 1_555
F7 Rb3 3.017826 1_555
F8 Tb1 2.236358 1_545
F8 Rb0 2.856866 1_555
F8 Rb2 2.898735 1_555
F8 Rb3 2.995580 1_556
F8 Rb1 3.017826 1_555
F9 Tb1 2.236358 1_655
F9 Rb1 2.856866 1_555
F9 Rb3 2.898735 1_556
F9 Rb2 2.995580 1_555
F9 Rb0 3.017826 1_555
F10 Tb0 2.282988 1_555
F10 Rb1 2.866152 1_555
F10 Rb0 2.872067 1_554
F10 Rb2 2.889248 1_545
F10 Rb3 2.959492 1_545
F11 Tb0 2.282988 1_555
F11 Rb0 2.866152 1_554
F11 Rb1 2.872067 1_555
F11 Rb3 2.889248 1_655
F11 Rb2 2.959492 1_655
