# generated using pymatgen
data_CsRbSnSe3
_symmetry_space_group_name_H-M   'P 1'
_cell_length_a   7.42485973
_cell_length_b   8.18247643
_cell_length_c   9.18376135
_cell_angle_alpha   74.90342326
_cell_angle_beta   70.07763990
_cell_angle_gamma   65.19148575
_symmetry_Int_Tables_number   1
_chemical_formula_structural   CsRbSnSe3
_chemical_formula_sum   'Cs2 Rb2 Sn2 Se6'
_cell_volume   471.61601578
_cell_formula_units_Z   2
loop_
 _symmetry_equiv_pos_site_id
 _symmetry_equiv_pos_as_xyz
  1  'x, y, z'
loop_
 _atom_site_type_symbol
 _atom_site_label
 _atom_site_symmetry_multiplicity
 _atom_site_fract_x
 _atom_site_fract_y
 _atom_site_fract_z
 _atom_site_occupancy
  Cs  Cs0  1  0.66305343  0.44915881  0.68672235  1
  Cs  Cs1  1  0.33694657  0.55084119  0.31327765  1
  Rb  Rb0  1  0.90885445  0.79927529  0.87177606  1
  Rb  Rb1  1  0.09114555  0.20072471  0.12822394  1
  Sn  Sn0  1  0.63690005  0.93844280  0.30927003  1
  Sn  Sn1  1  0.36309995  0.06155720  0.69072997  1
  Se  Se0  1  0.26426463  0.97434669  0.48101667  1
  Se  Se1  1  0.73573537  0.02565331  0.51898333  1
  Se  Se2  1  0.36691807  0.82548246  0.92253466  1
  Se  Se3  1  0.63308193  0.17451754  0.07746534  1
  Se  Se4  1  0.16812534  0.38393436  0.73172873  1
  Se  Se5  1  0.83187466  0.61606564  0.26827127  1
loop_
_geom_bond_atom_site_label_1
_geom_bond_atom_site_label_2
_geom_bond_distance
_geom_bond_site_symmetry_2
Cs0 Se2 3.681476 1_555
Cs0 Se5 3.691153 1_555
Cs0 Se3 3.694827 1_556
Cs0 Se4 3.712239 1_655
Cs0 Se4 3.802027 1_555
Cs0 Se1 3.913765 1_555
Cs1 Se3 3.681476 1_555
Cs1 Se4 3.691153 1_555
Cs1 Se2 3.694827 1_554
Cs1 Se5 3.712239 1_455
Cs1 Se5 3.802027 1_555
Cs1 Se0 3.913765 1_555
Rb0 Se4 3.465448 1_655
Rb0 Se5 3.505776 1_556
Rb0 Se3 3.506818 1_566
Rb0 Se1 3.646188 1_565
Rb0 Se2 3.684431 1_655
Rb0 Se2 3.808406 1_555
Rb0 Se0 3.991847 1_655
Rb1 Se5 3.465448 1_455
Rb1 Se4 3.505776 1_554
Rb1 Se2 3.506818 1_544
Rb1 Se0 3.646188 1_545
Rb1 Se3 3.684431 1_455
Rb1 Se3 3.808406 1_555
Rb1 Se1 3.991847 1_455
Se0 Sn0 2.610435 1_555
Se0 Sn1 2.622132 1_565
Se1 Sn1 2.610435 1_555
Se1 Sn0 2.622132 1_545
Se2 Sn1 2.473312 1_565
Se3 Sn0 2.473312 1_545
Se4 Sn1 2.477306 1_555
Se5 Sn0 2.477306 1_555
