# generated using pymatgen
data_Mn3P6BrN12
_symmetry_space_group_name_H-M   'P 1'
_cell_length_a   7.23418304
_cell_length_b   7.23418321
_cell_length_c   7.23418350
_cell_angle_alpha   109.68438551
_cell_angle_beta   109.68438789
_cell_angle_gamma   109.68436651
_symmetry_Int_Tables_number   1
_chemical_formula_structural   Mn3P6BrN12
_chemical_formula_sum   'Mn3 P6 Br1 N12'
_cell_volume   289.11539811
_cell_formula_units_Z   1
loop_
 _symmetry_equiv_pos_site_id
 _symmetry_equiv_pos_as_xyz
  1  'x, y, z'
loop_
 _atom_site_type_symbol
 _atom_site_label
 _atom_site_symmetry_multiplicity
 _atom_site_fract_x
 _atom_site_fract_y
 _atom_site_fract_z
 _atom_site_occupancy
  Mn  Mn0  1  0.00534579  0.36937004  0.00534579  1
  Mn  Mn1  1  0.00534579  0.00534579  0.36937004  1
  Mn  Mn2  1  0.36937004  0.00534579  0.00534579  1
  P  P0  1  0.50000487  0.25571320  0.74742018  1
  P  P1  1  0.25571320  0.74742018  0.50000487  1
  P  P2  1  0.74742018  0.50000487  0.25571320  1
  P  P3  1  0.74742018  0.25571320  0.50000487  1
  P  P4  1  0.50000487  0.74742018  0.25571320  1
  P  P5  1  0.25571320  0.50000487  0.74742018  1
  Br  Br0  1  0.00418357  0.00418357  0.00418357  1
  N  N0  1  0.42602945  0.70376803  0.42602945  1
  N  N1  1  0.70376803  0.42602945  0.42602945  1
  N  N2  1  0.42602945  0.42602945  0.70376803  1
  N  N3  1  0.72443854  0.28489283  0.72443854  1
  N  N4  1  0.99719491  0.56135027  0.28139455  1
  N  N5  1  0.28139455  0.56135027  0.99719491  1
  N  N6  1  0.28139455  0.99719491  0.56135027  1
  N  N7  1  0.99719491  0.28139455  0.56135027  1
  N  N8  1  0.72443854  0.72443854  0.28489283  1
  N  N9  1  0.56135027  0.99719491  0.28139455  1
  N  N10  1  0.28489283  0.72443854  0.72443854  1
  N  N11  1  0.56135027  0.28139455  0.99719491  1
loop_
_geom_bond_atom_site_label_1
_geom_bond_atom_site_label_2
_geom_bond_distance
_geom_bond_site_symmetry_2
Mn0 N3 2.043858 1_454
Mn0 N4 2.046054 1_455
Mn0 N5 2.046055 1_554
Mn1 N8 2.043859 1_445
Mn1 N6 2.046054 1_545
Mn1 N7 2.046054 1_455
Mn2 N10 2.043858 1_544
Mn2 N9 2.046054 1_545
Mn2 N11 2.046055 1_554
Br0 Mn2 2.636173 1_555
Br0 Mn0 2.636173 1_555
Br0 Mn1 2.636174 1_555
N0 P1 1.580076 1_555
N0 P4 1.580076 1_555
N1 P3 1.580076 1_555
N1 P2 1.580076 1_555
N2 P5 1.580076 1_555
N2 P0 1.580076 1_555
N3 P0 1.637943 1_555
N3 P3 1.637943 1_555
N4 P2 1.635391 1_555
N4 P1 1.639511 1_655
N5 P5 1.635391 1_555
N5 P4 1.639511 1_556
N6 P1 1.635391 1_555
N6 P0 1.639511 1_565
N7 P3 1.635391 1_555
N7 P5 1.639511 1_655
N8 P4 1.637943 1_555
N8 P2 1.637943 1_555
N9 P4 1.635391 1_555
N9 P3 1.639511 1_565
N10 P1 1.637943 1_555
N10 P5 1.637943 1_555
N11 P0 1.635391 1_555
N11 P2 1.639511 1_556
