# generated using pymatgen
data_Sr6VTc3O14
_symmetry_space_group_name_H-M   'P 1'
_cell_length_a   10.63322640
_cell_length_b   10.63322728
_cell_length_c   5.53207814
_cell_angle_alpha   90.00000000
_cell_angle_beta   90.00000000
_cell_angle_gamma   149.74025394
_symmetry_Int_Tables_number   1
_chemical_formula_structural   Sr6VTc3O14
_chemical_formula_sum   'Sr6 V1 Tc3 O14'
_cell_volume   315.19610493
_cell_formula_units_Z   1
loop_
 _symmetry_equiv_pos_site_id
 _symmetry_equiv_pos_as_xyz
  1  'x, y, z'
loop_
 _atom_site_type_symbol
 _atom_site_label
 _atom_site_symmetry_multiplicity
 _atom_site_fract_x
 _atom_site_fract_y
 _atom_site_fract_z
 _atom_site_occupancy
  Sr  Sr0  1  0.49831124  0.50168876  0.00000000  1
  Sr  Sr1  1  0.99850280  0.00149720  0.50000000  1
  Sr  Sr2  1  0.81545670  0.18454330  0.50000000  1
  Sr  Sr3  1  0.31563613  0.68436387  0.00000000  1
  Sr  Sr4  1  0.68527061  0.31472939  0.00000000  1
  Sr  Sr5  1  0.18615114  0.81384886  0.50000000  1
  V  V0  1  0.40155056  0.59844944  0.50000000  1
  Tc  Tc0  1  0.90217913  0.09782087  0.00000000  1
  Tc  Tc1  1  0.09744484  0.90255516  0.00000000  1
  Tc  Tc2  1  0.59741580  0.40258420  0.50000000  1
  O  O0  1  0.80481327  0.19518673  0.00000000  1
  O  O1  1  0.30654441  0.69345559  0.50000000  1
  O  O2  1  0.69651774  0.30348226  0.50000000  1
  O  O3  1  0.19606677  0.80393323  0.00000000  1
  O  O4  1  0.49843522  0.50156478  0.50000000  1
  O  O5  1  0.99944307  0.00055693  0.00000000  1
  O  O6  1  0.64955920  0.84305796  0.74450835  1
  O  O7  1  0.15694204  0.35044080  0.25549165  1
  O  O8  1  0.15694204  0.35044080  0.74450835  1
  O  O9  1  0.64955920  0.84305796  0.25549165  1
  O  O10  1  0.84688538  0.65325684  0.75004700  1
  O  O11  1  0.34674216  0.15311362  0.24995300  1
  O  O12  1  0.34674216  0.15311362  0.75004700  1
  O  O13  1  0.84688538  0.65325684  0.24995300  1
loop_
_geom_bond_atom_site_label_1
_geom_bond_atom_site_label_2
_geom_bond_distance
_geom_bond_site_symmetry_2
O0 Tc0 1.998852 1_555
O0 Sr4 2.454126 1_555
O0 Sr2 2.774656 1_555
O0 Sr2 2.774656 1_554
O0 Sr3 2.784235 1_655
O0 Sr3 2.784235 1_545
O1 V0 1.950409 1_555
O1 Sr5 2.471588 1_555
O1 Sr3 2.772329 1_555
O1 Sr3 2.772329 1_556
O1 Sr2 2.781380 1_565
O1 Sr2 2.781380 1_455
O2 Tc2 2.034492 1_555
O2 Sr2 2.441732 1_555
O2 Sr4 2.775659 1_555
O2 Sr4 2.775659 1_556
O2 Sr5 2.783503 1_545
O2 Sr5 2.783503 1_655
O3 Tc1 2.024638 1_555
O3 Sr3 2.454674 1_555
O3 Sr5 2.773519 1_555
O3 Sr5 2.773519 1_554
O3 Sr4 2.784192 1_455
O3 Sr4 2.784192 1_565
O4 V0 1.988973 1_555
O4 Tc2 2.032001 1_555
O4 Sr0 2.766040 1_555
O4 Sr0 2.766040 1_556
O4 Sr1 2.775356 1_565
O4 Sr1 2.775356 1_455
O5 Tc0 1.996760 1_555
O5 Tc1 2.011907 1_645
O5 Sr1 2.766106 1_554
O5 Sr1 2.766106 1_555
O5 Sr0 2.775453 1_545
O5 Sr0 2.775453 1_655
O6 V0 1.923552 1_555
O6 Tc0 1.995274 1_566
O6 Sr2 2.657259 1_565
O6 Sr3 2.664975 1_556
O6 Sr1 2.763402 1_565
O6 Sr0 2.770444 1_556
O7 V0 1.923552 1_555
O7 Tc0 1.995274 1_455
O7 Sr2 2.657259 1_455
O7 Sr3 2.664975 1_555
O7 Sr1 2.763402 1_455
O7 Sr0 2.770444 1_555
O8 V0 1.923552 1_555
O8 Tc0 1.995274 1_456
O8 Sr2 2.657259 1_455
O8 Sr3 2.664975 1_556
O8 Sr1 2.763402 1_455
O8 Sr0 2.770444 1_556
O9 V0 1.923552 1_555
O9 Tc0 1.995274 1_565
O9 Sr2 2.657259 1_565
O9 Sr3 2.664975 1_555
O9 Sr1 2.763402 1_565
O9 Sr0 2.770444 1_555
O10 Tc1 1.958761 1_656
O10 Tc2 1.959684 1_555
O10 Sr4 2.671409 1_556
O10 Sr5 2.683590 1_655
O10 Sr1 2.812723 1_565
O10 Sr0 2.815679 1_556
O11 Tc1 1.958757 1_545
O11 Tc2 1.959688 1_555
O11 Sr4 2.671412 1_555
O11 Sr5 2.683587 1_545
O11 Sr1 2.812720 1_455
O11 Sr0 2.815682 1_555
O12 Tc1 1.958757 1_546
O12 Tc2 1.959688 1_555
O12 Sr4 2.671412 1_556
O12 Sr5 2.683587 1_545
O12 Sr1 2.812720 1_455
O12 Sr0 2.815682 1_556
O13 Tc1 1.958761 1_655
O13 Tc2 1.959684 1_555
O13 Sr4 2.671409 1_555
O13 Sr5 2.683590 1_655
O13 Sr1 2.812723 1_565
O13 Sr0 2.815679 1_555
