# generated using pymatgen
data_ZrInIrRu
_symmetry_space_group_name_H-M   'P 1'
_cell_length_a   4.57620199
_cell_length_b   4.57620248
_cell_length_c   4.57620265
_cell_angle_alpha   60.00000585
_cell_angle_beta   60.00000229
_cell_angle_gamma   60.00001324
_symmetry_Int_Tables_number   1
_chemical_formula_structural   ZrInIrRu
_chemical_formula_sum   'Zr1 In1 Ir1 Ru1'
_cell_volume   67.76426606
_cell_formula_units_Z   1
loop_
 _symmetry_equiv_pos_site_id
 _symmetry_equiv_pos_as_xyz
  1  'x, y, z'
loop_
 _atom_site_type_symbol
 _atom_site_label
 _atom_site_symmetry_multiplicity
 _atom_site_fract_x
 _atom_site_fract_y
 _atom_site_fract_z
 _atom_site_occupancy
  Zr  Zr0  1  0.50000000  0.50000000  0.50000000  1
  In  In0  1  0.00000000  0.00000000  0.00000000  1
  Ir  Ir0  1  0.24999900  0.24999900  0.24999900  1
  Ru  Ru0  1  0.74999900  0.74999900  0.74999900  1
loop_
_geom_bond_atom_site_label_1
_geom_bond_atom_site_label_2
_geom_bond_distance
_geom_bond_site_symmetry_2
In0 Ir0 2.802329 1_555
In0 Ru0 2.802337 1_544
In0 Ru0 2.802337 1_445
In0 Ru0 2.802337 1_454
In0 Ir0 2.802344 1_455
In0 Ir0 2.802344 1_554
In0 Ir0 2.802344 1_545
In0 Ru0 2.802351 1_444
Ir0 Zr0 2.802337 1_455
Ir0 Zr0 2.802337 1_554
Ir0 Zr0 2.802337 1_545
Ir0 Zr0 2.802351 1_555
Ru0 Zr0 2.802329 1_555
Ru0 Zr0 2.802344 1_655
Ru0 Zr0 2.802344 1_556
Ru0 Zr0 2.802344 1_565
