# generated using pymatgen
data_CsAl2GeAs
_symmetry_space_group_name_H-M   'P 1'
_cell_length_a   8.41413284
_cell_length_b   8.41413328
_cell_length_c   8.41413091
_cell_angle_alpha   151.64732274
_cell_angle_beta   151.64732729
_cell_angle_gamma   40.52854507
_symmetry_Int_Tables_number   1
_chemical_formula_structural   CsAl2GeAs
_chemical_formula_sum   'Cs1 Al2 Ge1 As1'
_cell_volume   134.07316993
_cell_formula_units_Z   1
loop_
 _symmetry_equiv_pos_site_id
 _symmetry_equiv_pos_as_xyz
  1  'x, y, z'
loop_
 _atom_site_type_symbol
 _atom_site_label
 _atom_site_symmetry_multiplicity
 _atom_site_fract_x
 _atom_site_fract_y
 _atom_site_fract_z
 _atom_site_occupancy
  Cs  Cs0  1  0.99811308  0.99811308  1.00000000  1
  Al  Al0  1  0.75158542  0.25158542  0.50000000  1
  Al  Al1  1  0.25158542  0.75158542  0.50000000  1
  Ge  Ge0  1  0.34570049  0.34570049  0.00000000  1
  As  As0  1  0.65301460  0.65301460  1.00000000  1
loop_
_geom_bond_atom_site_label_1
_geom_bond_atom_site_label_2
_geom_bond_distance
_geom_bond_site_symmetry_2
Cs0 Ge0 3.779161 1_667
Cs0 Ge0 3.779162 1_566
Cs0 Ge0 3.779162 1_656
Cs0 Ge0 3.779164 1_555
Al0 Ge0 2.540452 1_555
Al0 Ge0 2.540453 1_656
Al0 As0 2.582221 1_555
Al0 As0 2.582222 1_544
Al1 Ge0 2.540452 1_555
Al1 Ge0 2.540453 1_566
Al1 As0 2.582221 1_555
Al1 As0 2.582222 1_454
As0 Cs0 3.804298 1_556
As0 Cs0 3.804299 1_455
As0 Cs0 3.804299 1_545
As0 Cs0 3.804300 1_444
