# generated using pymatgen
data_LuReF7
_symmetry_space_group_name_H-M   'P 1'
_cell_length_a   5.46002048
_cell_length_b   8.65220397
_cell_length_c   11.72917430
_cell_angle_alpha   62.92280700
_cell_angle_beta   90.00000000
_cell_angle_gamma   90.00000000
_symmetry_Int_Tables_number   1
_chemical_formula_structural   LuReF7
_chemical_formula_sum   'Lu4 Re4 F28'
_cell_volume   493.36770628
_cell_formula_units_Z   4
loop_
 _symmetry_equiv_pos_site_id
 _symmetry_equiv_pos_as_xyz
  1  'x, y, z'
loop_
 _atom_site_type_symbol
 _atom_site_label
 _atom_site_symmetry_multiplicity
 _atom_site_fract_x
 _atom_site_fract_y
 _atom_site_fract_z
 _atom_site_occupancy
  Lu  Lu0  1  0.25807543  0.81513736  0.26532176  1
  Lu  Lu1  1  0.74192457  0.18486264  0.73467824  1
  Lu  Lu2  1  0.75807543  0.18486264  0.23467824  1
  Lu  Lu3  1  0.24192457  0.81513736  0.76532176  1
  Re  Re0  1  0.75715901  0.72801651  0.04353758  1
  Re  Re1  1  0.24284099  0.27198349  0.95646242  1
  Re  Re2  1  0.25715901  0.27198349  0.45646242  1
  Re  Re3  1  0.74284099  0.72801651  0.54353758  1
  F  F0  1  0.95311811  0.70720685  0.41558286  1
  F  F1  1  0.04688189  0.29279315  0.58441714  1
  F  F2  1  0.45311811  0.29279315  0.08441714  1
  F  F3  1  0.54688189  0.70720685  0.91558286  1
  F  F4  1  0.47053920  0.72838943  0.14447549  1
  F  F5  1  0.52946080  0.27161057  0.85552451  1
  F  F6  1  0.97053920  0.27161057  0.35552451  1
  F  F7  1  0.02946080  0.72838943  0.64447549  1
  F  F8  1  0.95907936  0.74699742  0.17596965  1
  F  F9  1  0.04092064  0.25300258  0.82403035  1
  F  F10  1  0.45907936  0.25300258  0.32403035  1
  F  F11  1  0.54092064  0.74699742  0.67596965  1
  F  F12  1  0.77059705  0.47420908  0.14378737  1
  F  F13  1  0.22940295  0.52579092  0.85621263  1
  F  F14  1  0.27059705  0.52579092  0.35621263  1
  F  F15  1  0.72940295  0.47420908  0.64378737  1
  F  F16  1  0.94202590  0.27717877  0.04840723  1
  F  F17  1  0.05797410  0.72282123  0.95159277  1
  F  F18  1  0.44202590  0.72282123  0.45159277  1
  F  F19  1  0.55797410  0.27717877  0.54840723  1
  F  F20  1  0.74208032  0.98158132  0.44495284  1
  F  F21  1  0.25791968  0.01841868  0.55504716  1
  F  F22  1  0.24208032  0.01841868  0.05504716  1
  F  F23  1  0.75791968  0.98158132  0.94495284  1
  F  F24  1  0.57942300  0.97039143  0.23332030  1
  F  F25  1  0.42057700  0.02960857  0.76667970  1
  F  F26  1  0.07942300  0.02960857  0.26667970  1
  F  F27  1  0.92057700  0.97039143  0.73332030  1
loop_
_geom_bond_atom_site_label_1
_geom_bond_atom_site_label_2
_geom_bond_distance
_geom_bond_site_symmetry_2
F0 Re3 1.961888 1_555
F0 Lu0 2.291807 1_655
F1 Re2 1.961888 1_555
F1 Lu1 2.291807 1_455
F2 Re1 1.961888 1_554
F2 Lu2 2.291807 1_555
F3 Re0 1.961888 1_556
F3 Lu3 2.291807 1_555
F4 Re0 1.963217 1_555
F4 Lu0 2.210587 1_555
F5 Re1 1.963217 1_555
F5 Lu1 2.210587 1_555
F6 Re2 1.963217 1_655
F6 Lu2 2.210587 1_555
F7 Re3 1.963217 1_455
F7 Lu3 2.210587 1_555
F8 Re0 1.971671 1_555
F8 Lu0 2.161846 1_655
F9 Re1 1.971671 1_555
F9 Lu1 2.161846 1_455
F10 Re2 1.971671 1_555
F10 Lu2 2.161846 1_555
F11 Re3 1.971671 1_555
F11 Lu3 2.161846 1_555
F12 Re0 1.964598 1_555
F12 Lu2 2.231346 1_555
F13 Re1 1.964598 1_555
F13 Lu3 2.231346 1_555
F14 Re2 1.964598 1_555
F14 Lu0 2.231346 1_555
F15 Re3 1.964598 1_555
F15 Lu1 2.231346 1_555
F16 Re1 1.976573 1_654
F16 Lu2 2.198051 1_555
F17 Re0 1.976573 1_456
F17 Lu3 2.198051 1_555
F18 Re3 1.976573 1_555
F18 Lu0 2.198051 1_555
F19 Re2 1.976573 1_555
F19 Lu1 2.198051 1_555
F20 Re3 1.959788 1_555
F20 Lu2 2.287980 1_565
F21 Re2 1.959788 1_555
F21 Lu3 2.287980 1_545
F22 Re1 1.959788 1_554
F22 Lu0 2.287980 1_545
F23 Re0 1.959788 1_556
F23 Lu1 2.287980 1_565
F24 Lu2 2.102876 1_565
F24 Lu0 2.136538 1_555
F25 Lu3 2.102876 1_545
F25 Lu1 2.136538 1_555
F26 Lu0 2.102876 1_545
F26 Lu2 2.136538 1_455
F27 Lu1 2.102876 1_565
F27 Lu3 2.136538 1_655
