# generated using pymatgen
data_Li2Y2Si2Sn
_symmetry_space_group_name_H-M   'P 1'
_cell_length_a   9.52990498
_cell_length_b   9.52990564
_cell_length_c   6.75573974
_cell_angle_alpha   90.00000000
_cell_angle_beta   90.00000000
_cell_angle_gamma   153.27187719
_symmetry_Int_Tables_number   1
_chemical_formula_structural   Li2Y2Si2Sn
_chemical_formula_sum   'Li4 Y4 Si4 Sn2'
_cell_volume   275.94875580
_cell_formula_units_Z   2
loop_
 _symmetry_equiv_pos_site_id
 _symmetry_equiv_pos_as_xyz
  1  'x, y, z'
loop_
 _atom_site_type_symbol
 _atom_site_label
 _atom_site_symmetry_multiplicity
 _atom_site_fract_x
 _atom_site_fract_y
 _atom_site_fract_z
 _atom_site_occupancy
  Li  Li0  1  0.18451471  0.81548529  0.05660835  1
  Li  Li1  1  0.18451471  0.81548529  0.44339165  1
  Li  Li2  1  0.81548529  0.18451471  0.94339165  1
  Li  Li3  1  0.81548529  0.18451471  0.55660835  1
  Y  Y0  1  0.34990110  0.65009890  0.25000000  1
  Y  Y1  1  0.65009890  0.34990110  0.75000000  1
  Y  Y2  1  0.54825785  0.45174215  0.25000000  1
  Y  Y3  1  0.45174215  0.54825785  0.75000000  1
  Si  Si0  1  0.05754893  0.94245107  0.92606841  1
  Si  Si1  1  0.94245107  0.05754893  0.07393159  1
  Si  Si2  1  0.94245107  0.05754893  0.42606841  1
  Si  Si3  1  0.05754893  0.94245107  0.57393159  1
  Sn  Sn0  1  0.71968357  0.28031643  0.25000000  1
  Sn  Sn1  1  0.28031643  0.71968357  0.75000000  1
loop_
_geom_bond_atom_site_label_1
_geom_bond_atom_site_label_2
_geom_bond_distance
_geom_bond_site_symmetry_2
Li0 Si0 2.514160 1_554
Li0 Sn0 2.642772 1_565
Li0 Sn0 2.642772 1_455
Li0 Sn1 2.728841 1_554
Li0 Y1 3.090280 1_454
Li0 Y1 3.090280 1_564
Li0 Y0 3.333567 1_555
Li1 Si3 2.514160 1_555
Li1 Sn0 2.642772 1_565
Li1 Sn0 2.642772 1_455
Li1 Sn1 2.728841 1_555
Li1 Y1 3.090280 1_455
Li1 Y1 3.090280 1_565
Li1 Y0 3.333567 1_555
Li2 Si1 2.514160 1_556
Li2 Sn1 2.642772 1_545
Li2 Sn1 2.642772 1_655
Li2 Sn0 2.728841 1_556
Li2 Y0 3.090280 1_656
Li2 Y0 3.090280 1_546
Li2 Y1 3.333567 1_555
Li3 Si2 2.514160 1_555
Li3 Sn1 2.642772 1_545
Li3 Sn1 2.642772 1_655
Li3 Sn0 2.728841 1_555
Li3 Y0 3.090280 1_655
Li3 Y0 3.090280 1_545
Li3 Y1 3.333567 1_555
Si0 Y1 3.035165 1_565
Si0 Y1 3.035165 1_455
Si0 Y2 3.109782 1_456
Si0 Y2 3.109782 1_566
Si0 Y3 3.180637 1_455
Si0 Y3 3.180638 1_565
Si1 Y0 3.035165 1_545
Si1 Y0 3.035165 1_655
Si1 Y3 3.109782 1_654
Si1 Y3 3.109782 1_544
Si1 Y2 3.180637 1_655
Si1 Y2 3.180638 1_545
Si2 Y0 3.035165 1_545
Si2 Y0 3.035165 1_655
Si2 Y3 3.109782 1_655
Si2 Y3 3.109782 1_545
Si2 Y2 3.180637 1_655
Si2 Y2 3.180638 1_545
Si3 Y1 3.035165 1_565
Si3 Y1 3.035165 1_455
Si3 Y2 3.109782 1_455
Si3 Y2 3.109782 1_565
Si3 Y3 3.180637 1_455
Si3 Y3 3.180638 1_565
Sn0 Y2 3.178866 1_555
Sn0 Y0 3.268458 1_655
Sn0 Y0 3.268458 1_545
Sn1 Y3 3.178866 1_555
Sn1 Y1 3.268458 1_455
Sn1 Y1 3.268458 1_565
