# generated using pymatgen
data_Rb2Ta2OF10
_symmetry_space_group_name_H-M   'P 1'
_cell_length_a   5.37551220
_cell_length_b   7.17701908
_cell_length_c   14.00222248
_cell_angle_alpha   77.51842108
_cell_angle_beta   90.00000000
_cell_angle_gamma   90.00000000
_symmetry_Int_Tables_number   1
_chemical_formula_structural   Rb2Ta2OF10
_chemical_formula_sum   'Rb4 Ta4 O2 F20'
_cell_volume   527.44037459
_cell_formula_units_Z   2
loop_
 _symmetry_equiv_pos_site_id
 _symmetry_equiv_pos_as_xyz
  1  'x, y, z'
loop_
 _atom_site_type_symbol
 _atom_site_label
 _atom_site_symmetry_multiplicity
 _atom_site_fract_x
 _atom_site_fract_y
 _atom_site_fract_z
 _atom_site_occupancy
  Rb  Rb0  1  0.45131327  0.22165485  0.59288057  1
  Rb  Rb1  1  0.54868673  0.22165485  0.09288057  1
  Rb  Rb2  1  0.54868673  0.77834515  0.40711943  1
  Rb  Rb3  1  0.45131327  0.77834515  0.90711943  1
  Ta  Ta0  1  0.05354582  0.28516553  0.34930688  1
  Ta  Ta1  1  0.94645418  0.28516553  0.84930688  1
  Ta  Ta2  1  0.05354582  0.71483447  0.15069312  1
  Ta  Ta3  1  0.94645418  0.71483447  0.65069312  1
  O  O0  1  0.04799770  0.50000000  0.75000000  1
  O  O1  1  0.95200230  0.50000000  0.25000000  1
  F  F0  1  0.79060808  0.87611076  0.17723164  1
  F  F1  1  0.68235908  0.56681419  0.61014826  1
  F  F2  1  0.25977189  0.79803320  0.24495686  1
  F  F3  1  0.79684476  0.07354262  0.94274207  1
  F  F4  1  0.31764092  0.43318581  0.38985174  1
  F  F5  1  0.20315524  0.92645738  0.05725793  1
  F  F6  1  0.25977189  0.20196680  0.25504314  1
  F  F7  1  0.20939192  0.87611076  0.67723164  1
  F  F8  1  0.74022811  0.20196680  0.75504314  1
  F  F9  1  0.68235908  0.43318581  0.88985174  1
  F  F10  1  0.20315524  0.07354262  0.44274207  1
  F  F11  1  0.14980307  0.35169490  0.94985822  1
  F  F12  1  0.20939192  0.12388924  0.82276836  1
  F  F13  1  0.85019693  0.64830510  0.05014178  1
  F  F14  1  0.74022811  0.79803320  0.74495686  1
  F  F15  1  0.79060808  0.12388924  0.32276836  1
  F  F16  1  0.79684476  0.92645738  0.55725793  1
  F  F17  1  0.85019693  0.35169490  0.44985822  1
  F  F18  1  0.31764092  0.56681419  0.11014826  1
  F  F19  1  0.14980307  0.64830510  0.55014178  1
loop_
_geom_bond_atom_site_label_1
_geom_bond_atom_site_label_2
_geom_bond_distance
_geom_bond_site_symmetry_2
O0 Ta1 1.918882 1_455
O0 Ta3 1.918882 1_455
O1 Ta0 1.918882 1_655
O1 Ta2 1.918882 1_655
F0 Ta2 1.913516 1_655
F0 Rb1 2.823181 1_565
F0 Rb2 3.401293 1_555
F1 Ta3 1.930537 1_555
F1 Rb0 2.827807 1_555
F1 Rb2 3.006227 1_555
F2 Ta2 1.915279 1_555
F2 Rb2 2.729301 1_555
F3 Ta1 1.950983 1_555
F3 Rb1 2.880102 1_556
F3 Rb3 2.940099 1_545
F4 Ta0 1.930537 1_555
F4 Rb2 2.827807 1_555
F4 Rb0 3.006227 1_555
F5 Ta2 1.950983 1_555
F5 Rb3 2.880102 1_554
F5 Rb1 2.940099 1_565
F6 Ta0 1.915279 1_555
F6 Rb1 2.729301 1_555
F7 Ta3 1.913516 1_455
F7 Rb0 2.823181 1_565
F7 Rb3 3.401293 1_555
F8 Ta1 1.915279 1_555
F8 Rb0 2.729301 1_555
F9 Ta1 1.930537 1_555
F9 Rb3 2.827807 1_555
F9 Rb1 3.006227 1_556
F10 Ta0 1.950983 1_555
F10 Rb0 2.880102 1_555
F10 Rb2 2.940099 1_545
F11 Ta1 1.922435 1_455
F11 Rb1 2.944705 1_556
F11 Rb3 3.401361 1_555
F12 Ta1 1.913516 1_455
F12 Rb3 2.823181 1_545
F12 Rb0 3.401293 1_555
F13 Ta2 1.922435 1_655
F13 Rb3 2.944705 1_554
F13 Rb1 3.401361 1_555
F14 Ta3 1.915279 1_555
F14 Rb3 2.729301 1_555
F15 Ta0 1.913516 1_655
F15 Rb2 2.823181 1_545
F15 Rb1 3.401293 1_555
F16 Ta3 1.950983 1_555
F16 Rb2 2.880102 1_555
F16 Rb0 2.940099 1_565
F17 Ta0 1.922435 1_655
F17 Rb0 2.944705 1_555
F17 Rb2 3.401361 1_555
F18 Ta2 1.930537 1_555
F18 Rb1 2.827807 1_555
F18 Rb3 3.006227 1_554
F19 Ta3 1.922435 1_455
F19 Rb2 2.944705 1_555
F19 Rb0 3.401361 1_555
