# generated using pymatgen
data_ZrTi6Sn3Sb
_symmetry_space_group_name_H-M   'P 1'
_cell_length_a   8.24374088
_cell_length_b   8.24374055
_cell_length_c   8.24374111
_cell_angle_alpha   40.46413082
_cell_angle_beta   40.46413373
_cell_angle_gamma   40.46413517
_symmetry_Int_Tables_number   1
_chemical_formula_structural   ZrTi6Sn3Sb
_chemical_formula_sum   'Zr1 Ti6 Sn3 Sb1'
_cell_volume   212.79035619
_cell_formula_units_Z   1
loop_
 _symmetry_equiv_pos_site_id
 _symmetry_equiv_pos_as_xyz
  1  'x, y, z'
loop_
 _atom_site_type_symbol
 _atom_site_label
 _atom_site_symmetry_multiplicity
 _atom_site_fract_x
 _atom_site_fract_y
 _atom_site_fract_z
 _atom_site_occupancy
  Zr  Zr0  1  0.00029251  0.00029251  0.00029251  1
  Ti  Ti0  1  0.60083685  0.60083685  0.11322028  1
  Ti  Ti1  1  0.88628764  0.39909297  0.39909397  1
  Ti  Ti2  1  0.39909297  0.88628764  0.39909397  1
  Ti  Ti3  1  0.60083785  0.11321928  0.60083685  1
  Ti  Ti4  1  0.11321928  0.60083785  0.60083685  1
  Ti  Ti5  1  0.39909397  0.39909397  0.88628664  1
  Sn  Sn0  1  0.33227235  0.33227235  0.33227235  1
  Sn  Sn1  1  0.66786426  0.66786426  0.66786426  1
  Sn  Sn2  1  0.87354066  0.87354066  0.87354066  1
  Sb  Sb0  1  0.12666164  0.12666164  0.12666164  1
loop_
_geom_bond_atom_site_label_1
_geom_bond_atom_site_label_2
_geom_bond_distance
_geom_bond_site_symmetry_2
Sn0 Ti0 2.890656 1_555
Sn0 Ti4 2.890659 1_555
Sn0 Ti3 2.890659 1_555
Sn0 Ti2 2.902150 1_545
Sn0 Ti1 2.902150 1_455
Sn0 Ti5 2.902153 1_554
Sn0 Zr0 3.292054 1_565
Sn0 Zr0 3.292054 1_556
Sn0 Zr0 3.292054 1_655
Sn1 Ti3 2.894939 1_565
Sn1 Ti4 2.894939 1_655
Sn1 Ti0 2.894942 1_556
Sn1 Ti5 2.896432 1_555
Sn1 Ti1 2.896435 1_555
Sn1 Ti2 2.896435 1_555
Sn1 Zr0 3.291975 1_656
Sn1 Zr0 3.291975 1_665
Sn1 Zr0 3.291975 1_566
Sn2 Ti4 2.860810 1_655
Sn2 Ti3 2.860810 1_565
Sn2 Ti0 2.860813 1_556
Sn2 Zr0 2.873952 1_666
Sn2 Ti1 2.891741 1_565
Sn2 Ti2 2.891741 1_655
Sn2 Ti5 2.891744 1_565
Sn2 Ti5 2.891744 1_655
Sn2 Ti1 2.891747 1_556
Sn2 Ti2 2.891747 1_556
Sb0 Ti1 2.854081 1_455
Sb0 Ti2 2.854081 1_545
Sb0 Ti5 2.854084 1_554
Sb0 Zr0 2.865274 1_555
Sb0 Ti4 2.893297 1_545
Sb0 Ti3 2.893298 1_455
Sb0 Ti0 2.893301 1_545
Sb0 Ti0 2.893301 1_455
Sb0 Ti4 2.893303 1_554
Sb0 Ti3 2.893303 1_554
