# generated using pymatgen
data_CsSb3Te5
_symmetry_space_group_name_H-M   'P 1'
_cell_length_a   4.36847097
_cell_length_b   13.09685448
_cell_length_c   24.12631870
_cell_angle_alpha   90.00000000
_cell_angle_beta   90.00000000
_cell_angle_gamma   90.00000000
_symmetry_Int_Tables_number   1
_chemical_formula_structural   CsSb3Te5
_chemical_formula_sum   'Cs4 Sb12 Te20'
_cell_volume   1380.34458628
_cell_formula_units_Z   4
loop_
 _symmetry_equiv_pos_site_id
 _symmetry_equiv_pos_as_xyz
  1  'x, y, z'
loop_
 _atom_site_type_symbol
 _atom_site_label
 _atom_site_symmetry_multiplicity
 _atom_site_fract_x
 _atom_site_fract_y
 _atom_site_fract_z
 _atom_site_occupancy
  Cs  Cs0  1  0.25000000  0.35405412  0.08397071  1
  Cs  Cs1  1  0.75000000  0.64594588  0.91602929  1
  Cs  Cs2  1  0.75000000  0.85405412  0.41602929  1
  Cs  Cs3  1  0.25000000  0.14594588  0.58397071  1
  Sb  Sb0  1  0.25000000  0.44895135  0.69424675  1
  Sb  Sb1  1  0.75000000  0.55104865  0.30575325  1
  Sb  Sb2  1  0.75000000  0.94895135  0.80575325  1
  Sb  Sb3  1  0.25000000  0.05104865  0.19424675  1
  Sb  Sb4  1  0.25000000  0.80358660  0.67007017  1
  Sb  Sb5  1  0.75000000  0.19641340  0.32992983  1
  Sb  Sb6  1  0.75000000  0.30358660  0.82992983  1
  Sb  Sb7  1  0.25000000  0.69641340  0.17007017  1
  Sb  Sb8  1  0.25000000  0.39251195  0.43725627  1
  Sb  Sb9  1  0.75000000  0.60748805  0.56274373  1
  Sb  Sb10  1  0.75000000  0.89251195  0.06274373  1
  Sb  Sb11  1  0.25000000  0.10748805  0.93725627  1
  Te  Te0  1  0.25000000  0.44263684  0.57048057  1
  Te  Te1  1  0.75000000  0.55736316  0.42951943  1
  Te  Te2  1  0.75000000  0.94263684  0.92951943  1
  Te  Te3  1  0.25000000  0.05736316  0.07048057  1
  Te  Te4  1  0.25000000  0.77647518  0.54762931  1
  Te  Te5  1  0.75000000  0.22352482  0.45237069  1
  Te  Te6  1  0.75000000  0.27647518  0.95237069  1
  Te  Te7  1  0.25000000  0.72352482  0.04762931  1
  Te  Te8  1  0.25000000  0.79452942  0.80104971  1
  Te  Te9  1  0.75000000  0.20547058  0.19895029  1
  Te  Te10  1  0.75000000  0.29452942  0.69895029  1
  Te  Te11  1  0.25000000  0.70547058  0.30104971  1
  Te  Te12  1  0.25000000  0.46115965  0.82537513  1
  Te  Te13  1  0.75000000  0.53884035  0.17462487  1
  Te  Te14  1  0.75000000  0.96115965  0.67462487  1
  Te  Te15  1  0.25000000  0.03884035  0.32537513  1
  Te  Te16  1  0.25000000  0.36938687  0.31546926  1
  Te  Te17  1  0.75000000  0.63061313  0.68453074  1
  Te  Te18  1  0.75000000  0.86938687  0.18453074  1
  Te  Te19  1  0.25000000  0.13061313  0.81546926  1
loop_
_geom_bond_atom_site_label_1
_geom_bond_atom_site_label_2
_geom_bond_distance
_geom_bond_site_symmetry_2
Cs0 Te3 3.899325 1_555
Cs0 Te13 3.925747 1_455
Cs0 Te13 3.925747 1_555
Cs0 Te6 3.985474 1_454
Cs0 Te6 3.985474 1_554
Cs0 Te9 4.031498 1_455
Cs0 Te9 4.031498 1_555
Cs1 Te2 3.899325 1_555
Cs1 Te12 3.925747 1_555
Cs1 Te12 3.925747 1_655
Cs1 Te7 3.985474 1_556
Cs1 Te7 3.985474 1_656
Cs1 Te8 4.031498 1_655
Cs1 Te8 4.031498 1_555
Cs2 Te1 3.899325 1_555
Cs2 Te15 3.925747 1_565
Cs2 Te15 3.925747 1_665
Cs2 Te4 3.985474 1_555
Cs2 Te4 3.985474 1_655
Cs2 Te11 4.031498 1_555
Cs2 Te11 4.031498 1_655
Cs3 Te0 3.899325 1_555
Cs3 Te14 3.925747 1_545
Cs3 Te14 3.925747 1_445
Cs3 Te5 3.985474 1_455
Cs3 Te5 3.985474 1_555
Cs3 Te10 4.031498 1_555
Cs3 Te10 4.031498 1_455
Sb0 Te10 2.978931 1_455
Sb0 Te10 2.978931 1_555
Sb0 Te0 2.987167 1_555
Sb0 Te12 3.167683 1_555
Sb0 Te17 3.238274 1_555
Sb0 Te17 3.238274 1_455
Sb1 Te11 2.978931 1_555
Sb1 Te11 2.978931 1_655
Sb1 Te1 2.987167 1_555
Sb1 Te13 3.167683 1_555
Sb1 Te16 3.238274 1_555
Sb1 Te16 3.238274 1_655
Sb2 Te8 2.978931 1_655
Sb2 Te8 2.978931 1_555
Sb2 Te2 2.987167 1_555
Sb2 Te14 3.167683 1_555
Sb2 Te19 3.238274 1_665
Sb2 Te19 3.238274 1_565
Sb3 Te9 2.978931 1_555
Sb3 Te9 2.978931 1_455
Sb3 Te3 2.987167 1_555
Sb3 Te15 3.167683 1_555
Sb3 Te18 3.238274 1_445
Sb3 Te18 3.238274 1_545
Sb4 Te4 2.975311 1_555
Sb4 Te14 3.006969 1_555
Sb4 Te14 3.006969 1_455
Sb4 Te8 3.162280 1_555
Sb4 Te17 3.166177 1_555
Sb4 Te17 3.166177 1_455
Sb5 Te5 2.975311 1_555
Sb5 Te15 3.006969 1_555
Sb5 Te15 3.006969 1_655
Sb5 Te9 3.162280 1_555
Sb5 Te16 3.166177 1_555
Sb5 Te16 3.166177 1_655
Sb6 Te6 2.975311 1_555
Sb6 Te12 3.006969 1_655
Sb6 Te12 3.006969 1_555
Sb6 Te10 3.162280 1_555
Sb6 Te19 3.166177 1_555
Sb6 Te19 3.166177 1_655
Sb7 Te7 2.975311 1_555
Sb7 Te13 3.006969 1_555
Sb7 Te13 3.006969 1_455
Sb7 Te11 3.162280 1_555
Sb7 Te18 3.166177 1_455
Sb7 Te18 3.166177 1_555
Sb8 Te16 2.953840 1_555
Sb8 Te1 3.076873 1_555
Sb8 Te1 3.076873 1_455
Sb8 Te5 3.130832 1_455
Sb8 Te5 3.130832 1_555
Sb8 Te0 3.280567 1_555
Sb9 Te17 2.953840 1_555
Sb9 Te0 3.076873 1_555
Sb9 Te0 3.076873 1_655
Sb9 Te4 3.130832 1_555
Sb9 Te4 3.130832 1_655
Sb9 Te1 3.280567 1_555
Sb10 Te18 2.953840 1_555
Sb10 Te3 3.076873 1_665
Sb10 Te3 3.076873 1_565
Sb10 Te7 3.130832 1_555
Sb10 Te7 3.130832 1_655
Sb10 Te2 3.280567 1_554
Sb11 Te19 2.953840 1_555
Sb11 Te2 3.076873 1_445
Sb11 Te2 3.076873 1_545
Sb11 Te6 3.130832 1_555
Sb11 Te6 3.130832 1_455
Sb11 Te3 3.280567 1_556
