# generated using pymatgen
data_BeGa2(TeO3)4
_symmetry_space_group_name_H-M   'P 1'
_cell_length_a   8.99240287
_cell_length_b   8.99240327
_cell_length_c   8.99240304
_cell_angle_alpha   109.91407715
_cell_angle_beta   109.91408173
_cell_angle_gamma   108.58908831
_symmetry_Int_Tables_number   1
_chemical_formula_structural   BeGa2(TeO3)4
_chemical_formula_sum   'Be2 Ga4 Te8 O24'
_cell_volume   559.66523405
_cell_formula_units_Z   2
loop_
 _symmetry_equiv_pos_site_id
 _symmetry_equiv_pos_as_xyz
  1  'x, y, z'
loop_
 _atom_site_type_symbol
 _atom_site_label
 _atom_site_symmetry_multiplicity
 _atom_site_fract_x
 _atom_site_fract_y
 _atom_site_fract_z
 _atom_site_occupancy
  Be  Be0  1  0.50000000  0.50000000  0.00000000  1
  Be  Be1  1  0.25000000  0.75000000  0.50000000  1
  Ga  Ga0  1  0.99963949  0.62500000  0.87463949  1
  Ga  Ga1  1  0.75036051  0.12500000  0.12536051  1
  Ga  Ga2  1  0.87500000  0.00036051  0.62536051  1
  Ga  Ga3  1  0.37500000  0.24963949  0.37463949  1
  Te  Te0  1  0.90581816  0.85667915  0.24156074  1
  Te  Te1  1  0.84418184  0.58574258  0.45086099  1
  Te  Te2  1  0.13488259  0.39332085  0.54913901  1
  Te  Te3  1  0.61511741  0.66425742  0.75843926  1
  Te  Te4  1  0.41425742  0.86511741  0.25843926  1
  Te  Te5  1  0.33574258  0.09418184  0.95086099  1
  Te  Te6  1  0.60667915  0.15581816  0.74156074  1
  Te  Te7  1  0.14332085  0.38488259  0.04913901  1
  O  O0  1  0.70434240  0.65338521  0.18541073  1
  O  O1  1  0.04565760  0.73106833  0.44904281  1
  O  O2  1  0.28202552  0.59661479  0.55095719  1
  O  O3  1  0.46797448  0.51893167  0.81458927  1
  O  O4  1  0.21556376  0.83017121  0.05604366  1
  O  O5  1  0.53443624  0.09048090  0.11460645  1
  O  O6  1  0.77412655  0.15951910  0.94395634  1
  O  O7  1  0.97587345  0.41982879  0.88539355  1
  O  O8  1  0.92208271  0.33663951  0.34222552  1
  O  O9  1  0.99441398  0.57985818  0.65777448  1
  O  O10  1  0.82791729  0.67014182  0.91455680  1
  O  O11  1  0.75558602  0.91336049  0.08544320  1
  O  O12  1  0.08663951  0.17208271  0.84222552  1
  O  O13  1  0.32985818  0.24441398  0.15777448  1
  O  O14  1  0.42014182  0.07791729  0.41455680  1
  O  O15  1  0.66336049  0.00558602  0.58544320  1
  O  O16  1  0.58017121  0.46556376  0.55604366  1
  O  O17  1  0.84048090  0.78443624  0.61460645  1
  O  O18  1  0.90951910  0.02412655  0.44395634  1
  O  O19  1  0.16982879  0.22587345  0.38539355  1
  O  O20  1  0.40338521  0.95434240  0.68541073  1
  O  O21  1  0.48106833  0.29565760  0.94904281  1
  O  O22  1  0.34661479  0.53202552  0.05095719  1
  O  O23  1  0.26893167  0.71797448  0.31458927  1
loop_
_geom_bond_atom_site_label_1
_geom_bond_atom_site_label_2
_geom_bond_distance
_geom_bond_site_symmetry_2
Be0 O0 1.670117 1_555
Be0 O3 1.670117 1_554
Be0 O22 1.670117 1_555
Be0 O21 1.670117 1_554
Be1 O1 1.670117 1_555
Be1 O23 1.670117 1_555
Be1 O2 1.670117 1_555
Be1 O20 1.670117 1_555
Ga0 O4 1.828441 1_656
Ga0 O7 1.828447 1_555
Ga0 O10 1.831980 1_555
Ga0 O9 1.831985 1_555
Ga1 O6 1.828434 1_554
Ga1 O5 1.828440 1_555
Ga1 O8 1.831983 1_555
Ga1 O11 1.831983 1_545
Ga2 O18 1.828434 1_555
Ga2 O17 1.828440 1_545
Ga2 O15 1.831983 1_555
Ga2 O12 1.831983 1_655
Ga3 O16 1.828441 1_555
Ga3 O19 1.828447 1_555
Ga3 O14 1.831980 1_555
Ga3 O13 1.831985 1_555
O0 Te0 1.875028 1_555
O1 Te1 1.875028 1_455
O2 Te2 1.875025 1_555
O3 Te3 1.875023 1_555
O4 Te4 1.908087 1_555
O5 Te5 1.908073 1_554
O6 Te6 1.908084 1_555
O7 Te7 1.908066 1_656
O8 Te2 1.920994 1_655
O8 Te1 2.537464 1_555
O9 Te1 1.920984 1_555
O9 Te2 2.537478 1_655
O10 Te3 1.921000 1_555
O10 Te0 2.537466 1_556
O11 Te0 1.920989 1_555
O11 Te3 2.537463 1_554
O12 Te7 1.920994 1_556
O12 Te5 2.537464 1_555
O13 Te5 1.920984 1_554
O13 Te7 2.537478 1_555
O14 Te4 1.921000 1_545
O14 Te6 2.537466 1_555
O15 Te6 1.920989 1_555
O15 Te4 2.537463 1_545
O16 Te3 1.908087 1_555
O17 Te1 1.908074 1_555
O18 Te0 1.908084 1_545
O19 Te2 1.908067 1_555
O20 Te6 1.875028 1_565
O21 Te5 1.875028 1_555
O22 Te7 1.875025 1_555
O23 Te4 1.875023 1_555
