# generated using pymatgen
data_Sr4Fe(BrN2)2
_symmetry_space_group_name_H-M   'P 1'
_cell_length_a   5.83354353
_cell_length_b   7.93192647
_cell_length_c   10.35624611
_cell_angle_alpha   81.66500242
_cell_angle_beta   90.00000000
_cell_angle_gamma   90.00000000
_symmetry_Int_Tables_number   1
_chemical_formula_structural   Sr4Fe(BrN2)2
_chemical_formula_sum   'Sr8 Fe2 Br4 N8'
_cell_volume   474.13478638
_cell_formula_units_Z   2
loop_
 _symmetry_equiv_pos_site_id
 _symmetry_equiv_pos_as_xyz
  1  'x, y, z'
loop_
 _atom_site_type_symbol
 _atom_site_label
 _atom_site_symmetry_multiplicity
 _atom_site_fract_x
 _atom_site_fract_y
 _atom_site_fract_z
 _atom_site_occupancy
  Sr  Sr0  1  0.75000000  0.28496013  0.29637756  1
  Sr  Sr1  1  0.75000000  0.00298346  0.61500371  1
  Sr  Sr2  1  0.75000000  0.45306497  0.60642379  1
  Sr  Sr3  1  0.75000000  0.80743542  0.11366179  1
  Sr  Sr4  1  0.25000000  0.99701654  0.38499629  1
  Sr  Sr5  1  0.25000000  0.54693503  0.39357621  1
  Sr  Sr6  1  0.25000000  0.19256458  0.88633821  1
  Sr  Sr7  1  0.25000000  0.71503987  0.70362244  1
  Fe  Fe0  1  0.75000000  0.76983321  0.40669305  1
  Fe  Fe1  1  0.25000000  0.23016679  0.59330695  1
  Br  Br0  1  0.25000000  0.33474696  0.15306388  1
  Br  Br1  1  0.75000000  0.66525304  0.84693612  1
  Br  Br2  1  0.25000000  0.84257322  0.08745544  1
  Br  Br3  1  0.75000000  0.15742678  0.91254456  1
  N  N0  1  0.25000000  0.03691462  0.69342650  1
  N  N1  1  0.01277914  0.24619685  0.49176437  1
  N  N2  1  0.51277914  0.75380315  0.50823563  1
  N  N3  1  0.98722086  0.75380315  0.50823563  1
  N  N4  1  0.75000000  0.60080308  0.31748704  1
  N  N5  1  0.75000000  0.96308538  0.30657350  1
  N  N6  1  0.48722086  0.24619685  0.49176437  1
  N  N7  1  0.25000000  0.39919692  0.68251296  1
loop_
_geom_bond_atom_site_label_1
_geom_bond_atom_site_label_2
_geom_bond_distance
_geom_bond_site_symmetry_2
Fe0 N5 1.721615 1_555
Fe0 N3 1.731552 1_555
Fe0 N2 1.731552 1_555
Fe0 N4 1.734979 1_555
Fe1 N0 1.721615 1_555
Fe1 N6 1.731552 1_555
Fe1 N1 1.731552 1_555
Fe1 N7 1.734979 1_555
Br0 Sr6 3.131331 1_554
Br0 Sr5 3.201906 1_555
Br0 Sr0 3.270536 1_555
Br0 Sr0 3.270536 1_455
Br0 Sr4 3.328682 1_545
Br1 Sr3 3.131331 1_556
Br1 Sr2 3.201906 1_555
Br1 Sr7 3.270536 1_655
Br1 Sr7 3.270536 1_555
Br1 Sr1 3.328682 1_565
Br2 Sr3 2.938871 1_555
Br2 Sr3 2.938871 1_455
Br2 Sr6 3.220022 1_564
Br2 Sr4 3.477093 1_555
Br2 Sr5 3.659803 1_555
Br3 Sr6 2.938871 1_655
Br3 Sr6 2.938871 1_555
Br3 Sr3 3.220022 1_546
Br3 Sr1 3.477093 1_555
Br3 Sr2 3.659803 1_555
N0 Sr6 2.496141 1_555
N0 Sr7 2.539930 1_545
N0 Sr1 3.050079 1_455
N0 Sr1 3.050079 1_555
N1 Sr0 2.521605 1_455
N1 Sr1 2.643219 1_455
N1 Sr2 2.649004 1_455
N1 Sr4 2.770865 1_545
N1 Sr5 2.817101 1_555
N2 Sr7 2.521605 1_555
N2 Sr4 2.643219 1_555
N2 Sr5 2.649004 1_555
N2 Sr1 2.770865 1_565
N2 Sr2 2.817101 1_555
N3 Sr7 2.521605 1_655
N3 Sr4 2.643219 1_655
N3 Sr5 2.649004 1_655
N3 Sr1 2.770865 1_565
N3 Sr2 2.817101 1_555
N4 Sr3 2.477702 1_555
N4 Sr0 2.546138 1_555
N4 Sr5 3.035367 1_555
N4 Sr5 3.035367 1_655
N4 Sr2 3.051307 1_555
N5 Sr3 2.496141 1_555
N5 Sr0 2.539930 1_565
N5 Sr4 3.050079 1_655
N5 Sr4 3.050079 1_555
N6 Sr0 2.521605 1_555
N6 Sr1 2.643219 1_555
N6 Sr2 2.649004 1_555
N6 Sr4 2.770865 1_545
N6 Sr5 2.817101 1_555
N7 Sr6 2.477702 1_555
N7 Sr7 2.546138 1_555
N7 Sr2 3.035367 1_555
N7 Sr2 3.035367 1_455
N7 Sr5 3.051307 1_555
