# generated using pymatgen
data_HfVCl6
_symmetry_space_group_name_H-M   'P 1'
_cell_length_a   7.15299011
_cell_length_b   7.15298962
_cell_length_c   7.15299010
_cell_angle_alpha   51.69164451
_cell_angle_beta   51.69164343
_cell_angle_gamma   51.69165036
_symmetry_Int_Tables_number   1
_chemical_formula_structural   HfVCl6
_chemical_formula_sum   'Hf1 V1 Cl6'
_cell_volume   208.19560095
_cell_formula_units_Z   1
loop_
 _symmetry_equiv_pos_site_id
 _symmetry_equiv_pos_as_xyz
  1  'x, y, z'
loop_
 _atom_site_type_symbol
 _atom_site_label
 _atom_site_symmetry_multiplicity
 _atom_site_fract_x
 _atom_site_fract_y
 _atom_site_fract_z
 _atom_site_occupancy
  Hf  Hf0  1  0.33336528  0.33336528  0.33336528  1
  V  V0  1  0.66666140  0.66666140  0.66666140  1
  Cl  Cl0  1  0.72305073  0.07964992  0.42556459  1
  Cl  Cl1  1  0.07964992  0.42556459  0.72305073  1
  Cl  Cl2  1  0.57096791  0.27306814  0.92767203  1
  Cl  Cl3  1  0.92767203  0.57096791  0.27306814  1
  Cl  Cl4  1  0.27306814  0.92767203  0.57096791  1
  Cl  Cl5  1  0.42556459  0.72305073  0.07964992  1
loop_
_geom_bond_atom_site_label_1
_geom_bond_atom_site_label_2
_geom_bond_distance
_geom_bond_site_symmetry_2
Cl0 Hf0 2.453931 1_555
Cl0 V0 2.482388 1_545
Cl1 Hf0 2.453930 1_555
Cl1 V0 2.482388 1_455
Cl2 Hf0 2.454380 1_556
Cl2 V0 2.483676 1_555
Cl3 Hf0 2.454380 1_655
Cl3 V0 2.483676 1_555
Cl4 Hf0 2.454380 1_565
Cl4 V0 2.483676 1_555
Cl5 Hf0 2.453930 1_555
Cl5 V0 2.482388 1_554
