# generated using pymatgen
data_KMn3CoO8
_symmetry_space_group_name_H-M   'P 1'
_cell_length_a   5.66215563
_cell_length_b   5.66215554
_cell_length_c   7.11610170
_cell_angle_alpha   68.49257092
_cell_angle_beta   68.49257096
_cell_angle_gamma   60.03368518
_symmetry_Int_Tables_number   1
_chemical_formula_structural   KMn3CoO8
_chemical_formula_sum   'K1 Mn3 Co1 O8'
_cell_volume   179.05323501
_cell_formula_units_Z   1
loop_
 _symmetry_equiv_pos_site_id
 _symmetry_equiv_pos_as_xyz
  1  'x, y, z'
loop_
 _atom_site_type_symbol
 _atom_site_label
 _atom_site_symmetry_multiplicity
 _atom_site_fract_x
 _atom_site_fract_y
 _atom_site_fract_z
 _atom_site_occupancy
  K  K0  1  0.50000000  0.50000000  0.50000000  1
  Mn  Mn0  1  0.00000000  0.00000000  0.00000000  1
  Mn  Mn1  1  0.00000000  0.50000000  0.00000000  1
  Mn  Mn2  1  0.50000000  0.00000000  0.00000000  1
  Co  Co0  1  0.50000000  0.50000000  0.00000000  1
  O  O0  1  0.71416478  0.71416478  0.84992463  1
  O  O1  1  0.71421727  0.21076050  0.84926662  1
  O  O2  1  0.21076050  0.71421727  0.84926662  1
  O  O3  1  0.21438977  0.21438977  0.84605530  1
  O  O4  1  0.78561023  0.78561023  0.15394470  1
  O  O5  1  0.78923950  0.28578273  0.15073338  1
  O  O6  1  0.28578273  0.78923950  0.15073338  1
  O  O7  1  0.28583522  0.28583522  0.15007537  1
loop_
_geom_bond_atom_site_label_1
_geom_bond_atom_site_label_2
_geom_bond_distance
_geom_bond_site_symmetry_2
K0 O2 2.751739 1_555
K0 O5 2.751739 1_555
K0 O1 2.751739 1_555
K0 O6 2.751739 1_555
K0 O3 2.840274 1_555
K0 O4 2.840274 1_555
Mn0 O5 1.896861 1_455
Mn0 O2 1.896861 1_544
Mn0 O6 1.896861 1_545
Mn0 O1 1.896861 1_454
Mn0 O3 1.915501 1_554
Mn0 O4 1.915501 1_445
Mn1 O7 1.894085 1_555
Mn1 O0 1.894085 1_454
Mn1 O2 1.897179 1_554
Mn1 O5 1.897179 1_455
Mn1 O4 1.910949 1_455
Mn1 O3 1.910949 1_554
Mn2 O7 1.894085 1_555
Mn2 O0 1.894085 1_544
Mn2 O1 1.897179 1_554
Mn2 O6 1.897179 1_545
Mn2 O4 1.910949 1_545
Mn2 O3 1.910949 1_554
Co0 O0 1.910842 1_554
Co0 O7 1.910842 1_555
Co0 O6 1.911426 1_555
Co0 O1 1.911426 1_554
Co0 O5 1.911426 1_555
Co0 O2 1.911426 1_554
