# generated using pymatgen
data_Y6Sc4Al12Ir7
_symmetry_space_group_name_H-M   'P 1'
_cell_length_a   9.06759949
_cell_length_b   9.06760001
_cell_length_c   9.06759888
_cell_angle_alpha   59.99999694
_cell_angle_beta   59.99999504
_cell_angle_gamma   59.99999859
_symmetry_Int_Tables_number   1
_chemical_formula_structural   Y6Sc4Al12Ir7
_chemical_formula_sum   'Y6 Sc4 Al12 Ir7'
_cell_volume   527.18367699
_cell_formula_units_Z   1
loop_
 _symmetry_equiv_pos_site_id
 _symmetry_equiv_pos_as_xyz
  1  'x, y, z'
loop_
 _atom_site_type_symbol
 _atom_site_label
 _atom_site_symmetry_multiplicity
 _atom_site_fract_x
 _atom_site_fract_y
 _atom_site_fract_z
 _atom_site_occupancy
  Y  Y0  1  0.70507360  0.70507360  0.29492640  1
  Y  Y1  1  0.29492640  0.70507360  0.29492640  1
  Y  Y2  1  0.70507360  0.29492640  0.29492640  1
  Y  Y3  1  0.29492640  0.29492640  0.70507360  1
  Y  Y4  1  0.70507360  0.29492640  0.70507360  1
  Y  Y5  1  0.29492640  0.70507360  0.70507360  1
  Sc  Sc0  1  0.88101774  0.88101774  0.35694578  1
  Sc  Sc1  1  0.88101774  0.35694578  0.88101774  1
  Sc  Sc2  1  0.35694578  0.88101774  0.88101774  1
  Sc  Sc3  1  0.88101774  0.88101774  0.88101774  1
  Al  Al0  1  0.12066224  0.12066224  0.63801229  1
  Al  Al1  1  0.12066224  0.63801229  0.12066224  1
  Al  Al2  1  0.63801229  0.12066224  0.12066224  1
  Al  Al3  1  0.12066224  0.12066224  0.12066224  1
  Al  Al4  1  0.66977248  0.66977248  0.99068256  1
  Al  Al5  1  0.66977248  0.99068256  0.66977248  1
  Al  Al6  1  0.99068256  0.66977248  0.66977248  1
  Al  Al7  1  0.66977248  0.66977248  0.66977248  1
  Al  Al8  1  0.32882693  0.32882693  0.01352020  1
  Al  Al9  1  0.32882693  0.01352020  0.32882693  1
  Al  Al10  1  0.01352020  0.32882693  0.32882693  1
  Al  Al11  1  0.32882693  0.32882693  0.32882693  1
  Ir  Ir0  1  0.00000000  0.00000000  0.00000000  1
  Ir  Ir1  1  0.00175160  0.00175160  0.49824840  1
  Ir  Ir2  1  0.49824840  0.00175160  0.49824840  1
  Ir  Ir3  1  0.00175160  0.49824840  0.49824840  1
  Ir  Ir4  1  0.49824840  0.49824840  0.00175160  1
  Ir  Ir5  1  0.00175160  0.49824840  0.00175160  1
  Ir  Ir6  1  0.49824840  0.00175160  0.00175160  1
loop_
_geom_bond_atom_site_label_1
_geom_bond_atom_site_label_2
_geom_bond_distance
_geom_bond_site_symmetry_2
Y0 Y5 3.719050 1_555
Y0 Y4 3.719050 1_555
Y0 Y1 3.719051 1_555
Y0 Y2 3.719051 1_555
Y1 Y5 3.719050 1_555
Y1 Y3 3.719050 1_555
Y1 Y2 3.719051 1_555
Y2 Y3 3.719050 1_555
Y2 Y4 3.719050 1_555
Y3 Y4 3.719051 1_555
Y3 Y5 3.719051 1_555
Y4 Y5 3.719051 1_555
Sc0 Y0 3.121933 1_555
Sc0 Y1 3.121940 1_655
Sc0 Y2 3.121941 1_565
Sc1 Y4 3.121933 1_555
Sc1 Y2 3.121940 1_556
Sc1 Y3 3.121940 1_655
Sc2 Y5 3.121933 1_555
Sc2 Y1 3.121940 1_556
Sc2 Y3 3.121941 1_565
Sc3 Y0 3.121939 1_556
Sc3 Y5 3.121939 1_655
Sc3 Y4 3.121939 1_565
Al0 Ir0 2.680035 1_556
Al0 Ir1 2.797645 1_555
Al0 Ir2 2.797652 1_555
Al0 Ir3 2.797652 1_555
Al0 Al9 2.822189 1_555
Al0 Al10 2.822189 1_555
Al0 Al11 2.822198 1_555
Al0 Sc1 3.073238 1_455
Al0 Sc2 3.073238 1_545
Al0 Sc3 3.073238 1_445
Al0 Y4 3.127643 1_455
Al0 Y5 3.127644 1_545
Al0 Y3 3.127651 1_555
Al1 Ir0 2.680035 1_565
Al1 Ir5 2.797645 1_555
Al1 Ir3 2.797651 1_555
Al1 Ir4 2.797652 1_555
Al1 Al10 2.822189 1_555
Al1 Al8 2.822189 1_555
Al1 Al11 2.822198 1_555
Al1 Sc3 3.073238 1_454
Al1 Sc0 3.073238 1_455
Al1 Sc2 3.073238 1_554
Al1 Y5 3.127643 1_554
Al1 Y0 3.127643 1_455
Al1 Y1 3.127651 1_555
Al2 Ir0 2.680035 1_655
Al2 Ir6 2.797645 1_555
Al2 Ir2 2.797651 1_555
Al2 Ir4 2.797652 1_555
Al2 Al9 2.822189 1_555
Al2 Al8 2.822189 1_555
Al2 Sc3 3.073238 1_544
Al2 Sc0 3.073238 1_545
Al2 Sc1 3.073238 1_554
Al2 Y4 3.127643 1_554
Al2 Y0 3.127644 1_545
Al2 Y2 3.127651 1_555
Al3 Ir0 2.680028 1_555
Al3 Ir1 2.797652 1_555
Al3 Ir6 2.797652 1_555
Al3 Ir5 2.797652 1_555
Al3 Al9 2.822204 1_555
Al3 Al8 2.822204 1_555
Al3 Sc1 3.073238 1_454
Al3 Sc2 3.073238 1_544
Al3 Sc0 3.073238 1_445
Al3 Y3 3.127645 1_554
Al3 Y2 3.127645 1_455
Al3 Y1 3.127645 1_545
Al4 Ir5 2.637204 1_656
Al4 Ir4 2.637204 1_556
Al4 Ir6 2.637204 1_566
Al4 Sc3 2.861222 1_555
Al4 Sc2 2.861230 1_555
Al4 Sc1 2.861230 1_555
Al4 Al6 2.909884 1_555
Al4 Al7 2.909884 1_555
Al4 Al5 2.909884 1_555
Al4 Y1 3.111959 1_556
Al4 Y0 3.111959 1_556
Al4 Y2 3.111959 1_556
Al5 Ir6 2.637204 1_566
Al5 Ir1 2.637204 1_665
Al5 Ir2 2.637204 1_565
Al5 Sc3 2.861222 1_555
Al5 Sc0 2.861229 1_555
Al5 Sc2 2.861230 1_555
Al5 Al6 2.909884 1_555
Al5 Al7 2.909884 1_555
Al5 Y2 3.111959 1_565
Al5 Y3 3.111959 1_565
Al5 Y4 3.111959 1_565
Al6 Ir5 2.637204 1_656
Al6 Ir3 2.637204 1_655
Al6 Ir1 2.637204 1_665
Al6 Sc3 2.861222 1_555
Al6 Sc0 2.861230 1_555
Al6 Sc1 2.861230 1_555
Al6 Al7 2.909884 1_555
Al6 Y1 3.111959 1_655
Al6 Y5 3.111959 1_655
Al6 Y3 3.111959 1_655
Al7 Ir4 2.637204 1_556
Al7 Ir3 2.637204 1_655
Al7 Ir2 2.637204 1_565
Al7 Sc0 2.861225 1_555
Al7 Sc2 2.861225 1_555
Al7 Sc1 2.861225 1_555
Al7 Y0 3.111959 1_555
Al7 Y5 3.111959 1_555
Al7 Y4 3.111959 1_555
Al8 Ir4 2.600705 1_555
Al8 Ir5 2.600713 1_555
Al8 Ir6 2.600713 1_555
Al8 Al9 2.859075 1_555
Al8 Y4 3.134553 1_554
Al8 Y5 3.134553 1_554
Al8 Y3 3.134558 1_554
Al9 Ir2 2.600705 1_555
Al9 Ir6 2.600713 1_555
Al9 Ir1 2.600713 1_555
Al9 Y5 3.134553 1_545
Al9 Y0 3.134553 1_545
Al9 Y1 3.134559 1_545
Al10 Ir3 2.600705 1_555
Al10 Ir5 2.600713 1_555
Al10 Ir1 2.600713 1_555
Al10 Al3 2.822204 1_555
Al10 Al8 2.859075 1_555
Al10 Al11 2.859075 1_555
Al10 Al9 2.859075 1_555
Al10 Y4 3.134553 1_455
Al10 Y0 3.134553 1_455
Al10 Y2 3.134559 1_455
Al11 Ir4 2.600710 1_555
Al11 Ir3 2.600710 1_555
Al11 Ir2 2.600710 1_555
Al11 Al2 2.822198 1_555
Al11 Al8 2.859075 1_555
Al11 Al9 2.859075 1_555
Al11 Y3 3.134549 1_555
Al11 Y2 3.134549 1_555
Al11 Y1 3.134550 1_555
Ir0 Sc0 2.642706 1_445
Ir0 Sc2 2.642706 1_544
Ir0 Sc1 2.642707 1_454
Ir0 Sc3 2.642714 1_444
Ir1 Sc3 2.835940 1_445
Ir1 Sc0 2.835948 1_445
Ir1 Y4 3.257312 1_455
Ir1 Y5 3.257312 1_545
Ir1 Y2 3.257312 1_455
Ir1 Y1 3.257312 1_545
Ir2 Sc2 2.835940 1_545
Ir2 Sc0 2.835941 1_545
Ir2 Y3 3.257312 1_555
Ir2 Y0 3.257312 1_545
Ir2 Y5 3.257312 1_545
Ir2 Y2 3.257312 1_555
Ir3 Sc1 2.835940 1_455
Ir3 Sc0 2.835941 1_455
Ir3 Y3 3.257312 1_555
Ir3 Y0 3.257312 1_455
Ir3 Y4 3.257312 1_455
Ir3 Y1 3.257312 1_555
Ir4 Sc1 2.835941 1_554
Ir4 Sc2 2.835941 1_554
Ir4 Y4 3.257312 1_554
Ir4 Y5 3.257312 1_554
Ir4 Y2 3.257312 1_555
Ir4 Y1 3.257312 1_555
Ir5 Sc3 2.835941 1_454
Ir5 Sc1 2.835948 1_454
Ir5 Y3 3.257312 1_554
Ir5 Y0 3.257312 1_455
Ir5 Y5 3.257312 1_554
Ir5 Y2 3.257312 1_455
Ir6 Sc3 2.835940 1_544
Ir6 Sc2 2.835948 1_544
Ir6 Y3 3.257312 1_554
Ir6 Y0 3.257312 1_545
Ir6 Y4 3.257312 1_554
Ir6 Y1 3.257312 1_545
