# generated using pymatgen
data_Hf10NiSn6P
_symmetry_space_group_name_H-M   'P 1'
_cell_length_a   5.78094509
_cell_length_b   8.51266248
_cell_length_c   8.51266225
_cell_angle_alpha   119.99999912
_cell_angle_beta   90.00000000
_cell_angle_gamma   90.00000000
_symmetry_Int_Tables_number   1
_chemical_formula_structural   Hf10NiSn6P
_chemical_formula_sum   'Hf10 Ni1 Sn6 P1'
_cell_volume   362.79416806
_cell_formula_units_Z   1
loop_
 _symmetry_equiv_pos_site_id
 _symmetry_equiv_pos_as_xyz
  1  'x, y, z'
loop_
 _atom_site_type_symbol
 _atom_site_label
 _atom_site_symmetry_multiplicity
 _atom_site_fract_x
 _atom_site_fract_y
 _atom_site_fract_z
 _atom_site_occupancy
  Hf  Hf0  1  0.74892987  0.74780384  0.74780384  1
  Hf  Hf1  1  0.25107013  0.25219616  0.25219616  1
  Hf  Hf2  1  0.74892987  0.00000000  0.25219616  1
  Hf  Hf3  1  0.25107013  0.00000000  0.74780384  1
  Hf  Hf4  1  0.74892987  0.25219616  0.00000000  1
  Hf  Hf5  1  0.25107013  0.74780384  1.00000000  1
  Hf  Hf6  1  0.00000000  0.66666700  0.33333300  1
  Hf  Hf7  1  0.00000000  0.33333300  0.66666700  1
  Hf  Hf8  1  0.50000000  0.33333300  0.66666700  1
  Hf  Hf9  1  0.50000000  0.66666700  0.33333300  1
  Ni  Ni0  1  0.50000000  0.00000000  0.00000000  1
  Sn  Sn0  1  0.74785571  0.39468629  0.39468629  1
  Sn  Sn1  1  0.25214429  0.60531371  0.60531371  1
  Sn  Sn2  1  0.74785571  0.00000000  0.60531371  1
  Sn  Sn3  1  0.25214429  0.00000000  0.39468629  1
  Sn  Sn4  1  0.74785571  0.60531371  0.00000000  1
  Sn  Sn5  1  0.25214429  0.39468629  1.00000000  1
  P  P0  1  0.00000000  0.00000000  0.00000000  1
loop_
_geom_bond_atom_site_label_1
_geom_bond_atom_site_label_2
_geom_bond_distance
_geom_bond_site_symmetry_2
Hf0 Ni0 2.584546 1_566
Hf0 P0 2.591455 1_666
Hf0 Sn4 2.946935 1_556
Hf0 Sn2 2.946935 1_565
Hf0 Sn0 3.005977 1_555
Hf0 Sn1 3.117539 1_555
Hf0 Sn1 3.151809 1_655
Hf1 Ni0 2.584546 1_555
Hf1 P0 2.591455 1_555
Hf1 Sn5 2.946935 1_554
Hf1 Sn3 2.946935 1_555
Hf1 Sn1 3.005977 1_555
Hf1 Sn0 3.117539 1_555
Hf1 Sn0 3.151809 1_455
Hf2 Ni0 2.584546 1_555
Hf2 P0 2.591455 1_655
Hf2 Sn4 2.946935 1_545
Hf2 Sn0 2.946935 1_555
Hf2 Sn2 3.005977 1_555
Hf2 Sn3 3.117539 1_555
Hf2 Sn3 3.151809 1_655
Hf3 Ni0 2.584546 1_556
Hf3 P0 2.591455 1_556
Hf3 Sn5 2.946935 1_555
Hf3 Sn1 2.946935 1_545
Hf3 Sn3 3.005977 1_555
Hf3 Sn2 3.117539 1_555
Hf3 Sn2 3.151809 1_455
Hf4 Ni0 2.584546 1_555
Hf4 P0 2.591455 1_655
Hf4 Sn0 2.946935 1_555
Hf4 Sn2 2.946935 1_554
Hf4 Sn4 3.005977 1_555
Hf4 Sn5 3.117539 1_554
Hf4 Sn5 3.151809 1_654
Hf5 Ni0 2.584546 1_566
Hf5 P0 2.591455 1_566
Hf5 Sn1 2.946935 1_555
Hf5 Sn3 2.946935 1_566
Hf5 Sn5 3.005977 1_555
Hf5 Sn4 3.117539 1_556
Hf5 Sn4 3.151809 1_456
Hf6 Sn4 2.994523 1_455
Hf6 Sn3 2.994523 1_565
Hf6 Sn5 2.994526 1_554
Hf6 Sn2 2.994526 1_465
Hf6 Sn1 2.994531 1_555
Hf6 Sn0 2.994531 1_455
Hf7 Sn5 2.994523 1_555
Hf7 Sn2 2.994523 1_455
Hf7 Sn4 2.994526 1_456
Hf7 Sn3 2.994526 1_555
Hf7 Sn0 2.994531 1_455
Hf7 Sn1 2.994531 1_555
Hf8 Sn5 2.982534 1_555
Hf8 Sn2 2.982534 1_555
Hf8 Sn4 2.982537 1_556
Hf8 Sn3 2.982537 1_555
Hf8 Sn0 2.982541 1_555
Hf8 Sn1 2.982541 1_555
Hf9 Sn4 2.982534 1_555
Hf9 Sn3 2.982534 1_565
Hf9 Sn5 2.982537 1_554
Hf9 Sn2 2.982537 1_565
Hf9 Sn1 2.982541 1_555
Hf9 Sn0 2.982541 1_555
