# generated using pymatgen
data_NaCa21Ga13Ag
_symmetry_space_group_name_H-M   'P 1'
_cell_length_a   11.32729904
_cell_length_b   11.31979925
_cell_length_c   11.32729987
_cell_angle_alpha   60.02190449
_cell_angle_beta   59.95619516
_cell_angle_gamma   60.02190491
_symmetry_Int_Tables_number   1
_chemical_formula_structural   NaCa21Ga13Ag
_chemical_formula_sum   'Na1 Ca21 Ga13 Ag1'
_cell_volume   1027.01343605
_cell_formula_units_Z   1
loop_
 _symmetry_equiv_pos_site_id
 _symmetry_equiv_pos_as_xyz
  1  'x, y, z'
loop_
 _atom_site_type_symbol
 _atom_site_label
 _atom_site_symmetry_multiplicity
 _atom_site_fract_x
 _atom_site_fract_y
 _atom_site_fract_z
 _atom_site_occupancy
  Na  Na0  1  0.49986228  0.50013772  0.49986228  1
  Ca  Ca0  1  0.99750366  0.00249634  0.99750366  1
  Ca  Ca1  1  0.12635640  0.13573437  0.12635640  1
  Ca  Ca2  1  0.38844618  0.87364360  0.86426563  1
  Ca  Ca3  1  0.87050075  0.38792772  0.87050075  1
  Ca  Ca4  1  0.86426563  0.87364360  0.38844618  1
  Ca  Ca5  1  0.12635640  0.61155382  0.12635640  1
  Ca  Ca6  1  0.12893122  0.12949925  0.61207228  1
  Ca  Ca7  1  0.61207228  0.12949925  0.12893122  1
  Ca  Ca8  1  0.87050075  0.87106878  0.87050075  1
  Ca  Ca9  1  0.49977960  0.83203889  0.49977960  1
  Ca  Ca10  1  0.83412969  0.49953539  0.50046461  1
  Ca  Ca11  1  0.50728153  0.83217371  0.16782629  1
  Ca  Ca12  1  0.16796111  0.50022040  0.83159708  1
  Ca  Ca13  1  0.83159708  0.50022040  0.16796111  1
  Ca  Ca14  1  0.50046461  0.49953539  0.83412969  1
  Ca  Ca15  1  0.16782629  0.83217371  0.50728153  1
  Ca  Ca16  1  0.50046461  0.16587031  0.83412969  1
  Ca  Ca17  1  0.50728153  0.49271847  0.16782629  1
  Ca  Ca18  1  0.83412969  0.16587031  0.50046461  1
  Ca  Ca19  1  0.16782629  0.49271847  0.50728153  1
  Ca  Ca20  1  0.49977960  0.16840292  0.49977960  1
  Ga  Ga0  1  0.21844589  0.78155411  0.78497881  1
  Ga  Ga1  1  0.78497881  0.21502119  0.21844589  1
  Ga  Ga2  1  0.78497881  0.78155411  0.21844589  1
  Ga  Ga3  1  0.21844589  0.21502119  0.78497881  1
  Ga  Ga4  1  0.78062521  0.21937479  0.78062521  1
  Ga  Ga5  1  0.30681443  0.31197335  0.30681343  1
  Ga  Ga6  1  0.92560020  0.69318657  0.68802665  1
  Ga  Ga7  1  0.69114456  0.92612040  0.69114456  1
  Ga  Ga8  1  0.68802665  0.69318657  0.92560020  1
  Ga  Ga9  1  0.30681343  0.07439980  0.30681343  1
  Ga  Ga10  1  0.30840851  0.30885544  0.07387960  1
  Ga  Ga11  1  0.07387960  0.30885544  0.30840851  1
  Ga  Ga12  1  0.69114456  0.69159149  0.69114356  1
  Ag  Ag0  1  0.21737524  0.78262476  0.21737524  1
loop_
_geom_bond_atom_site_label_1
_geom_bond_atom_site_label_2
_geom_bond_distance
_geom_bond_site_symmetry_2
Ca0 Ga3 3.470259 1_655
Ca0 Ga2 3.470259 1_546
Ca0 Ga1 3.470259 1_556
Ca0 Ga0 3.470259 1_645
Ca0 Ga4 3.476523 1_555
Ca0 Ca7 3.564034 1_556
Ca0 Ca3 3.564035 1_555
Ca0 Ca6 3.564035 1_655
Ca0 Ca8 3.564053 1_545
Ca0 Ca2 3.614991 1_645
Ca0 Ca4 3.614991 1_546
Ca0 Ca5 3.614991 1_646
Ca0 Ca1 3.615000 1_656
Ca1 Ga10 3.176987 1_555
Ca1 Ga11 3.176987 1_555
Ca1 Ga9 3.191547 1_555
Ca1 Ga1 3.205430 1_455
Ca1 Ga3 3.205430 1_554
Ca1 Ca13 3.872204 1_455
Ca1 Ca12 3.872204 1_554
Ca1 Ca16 3.911701 1_554
Ca1 Ca18 3.911701 1_455
Ca1 Ca11 4.030607 1_545
Ca1 Ca15 4.030607 1_545
Ca2 Ga12 3.177001 1_555
Ca2 Ga7 3.177006 1_555
Ca2 Ga8 3.191557 1_555
Ca2 Ga0 3.205420 1_555
Ca2 Ga3 3.205428 1_565
Ca2 Ca9 3.872198 1_555
Ca2 Ca20 3.872209 1_565
Ca3 Ga12 3.200932 1_555
Ca3 Ga6 3.213722 1_555
Ca3 Ga8 3.213722 1_555
Ca3 Ga4 3.260875 1_555
Ca3 Ga3 3.265839 1_655
Ca3 Ga1 3.265839 1_556
Ca4 Ga12 3.176992 1_555
Ca4 Ga7 3.177006 1_555
Ca4 Ga6 3.191557 1_555
Ca4 Ga2 3.205420 1_555
Ca4 Ga1 3.205428 1_565
Ca4 Ca9 3.872198 1_555
Ca5 Ga11 3.177006 1_555
Ca5 Ga10 3.177006 1_555
Ca5 Ga5 3.191557 1_555
Ca5 Ga2 3.205428 1_455
Ca5 Ga0 3.205428 1_554
Ca6 Ga11 3.200941 1_555
Ca6 Ga5 3.213717 1_555
Ca6 Ga9 3.213722 1_555
Ca6 Ga4 3.260892 1_455
Ca6 Ga3 3.265821 1_555
Ca6 Ga0 3.265839 1_545
Ca6 Ca9 3.923839 1_545
Ca7 Ga10 3.200941 1_555
Ca7 Ga5 3.213708 1_555
Ca7 Ga9 3.213722 1_555
Ca7 Ga4 3.260892 1_554
Ca7 Ga1 3.265821 1_555
Ca7 Ga2 3.265839 1_545
Ca7 Ca9 3.923839 1_545
Ca8 Ga7 3.200912 1_555
Ca8 Ga8 3.213702 1_555
Ca8 Ga6 3.213703 1_555
Ca8 Ga4 3.260896 1_565
Ca8 Ga0 3.265842 1_655
Ca8 Ga2 3.265842 1_556
Ca9 Ga12 3.121217 1_555
Ca9 Ga9 3.143343 1_565
Ca9 Ga0 3.253427 1_555
Ca9 Ga2 3.253427 1_555
Ca9 Na0 3.756119 1_555
Ca10 Ga12 3.112171 1_555
Ca10 Ga11 3.112178 1_655
Ca10 Ga4 3.230029 1_555
Ca10 Ga2 3.243389 1_555
Ca10 Ca9 3.776922 1_555
Ca10 Ca13 3.776928 1_555
Ca10 Ca14 3.777022 1_555
Ca10 Ca18 3.777022 1_555
Ca10 Ca19 3.780772 1_655
Ca10 Na0 3.786362 1_555
Ca10 Ca3 3.905335 1_555
Ca10 Ca6 3.905346 1_655
Ca10 Ca4 3.911698 1_555
Ca10 Ca5 3.911703 1_655
Ca11 Ga8 3.108900 1_554
Ca11 Ga9 3.108900 1_565
Ca11 Ga2 3.198139 1_555
Ca11 Ca13 3.717559 1_555
Ca11 Ca9 3.717564 1_555
Ca11 Na0 3.761899 1_555
Ca11 Ca16 3.780772 1_564
Ca11 Ca15 3.842565 1_555
Ca11 Ca17 3.842565 1_555
Ca11 Ca8 3.862322 1_554
Ca11 Ca7 3.862338 1_565
Ca11 Ca2 4.030615 1_554
Ca12 Ga10 3.121226 1_556
Ca12 Ga6 3.143336 1_455
Ca12 Ga3 3.253420 1_555
Ca12 Ga0 3.253432 1_555
Ca12 Ca19 3.717553 1_555
Ca12 Ca15 3.717559 1_555
Ca12 Na0 3.756113 1_555
Ca12 Ca16 3.776922 1_555
Ca12 Ca14 3.776928 1_555
Ca12 Ca13 3.807573 1_456
Ca12 Ca5 3.872220 1_556
Ca12 Ca8 3.923836 1_455
Ca12 Ca3 3.923844 1_455
Ca13 Ga11 3.121226 1_655
Ca13 Ga8 3.143336 1_554
Ca13 Ga1 3.253420 1_555
Ca13 Ga2 3.253432 1_555
Ca13 Ca17 3.717553 1_555
Ca13 Na0 3.756113 1_555
Ca13 Ca18 3.776923 1_555
Ca13 Ca5 3.872220 1_655
Ca13 Ca8 3.923836 1_554
Ca13 Ca3 3.923844 1_554
Ca14 Ga12 3.112178 1_555
Ca14 Ga10 3.112178 1_556
Ca14 Ga4 3.230029 1_555
Ca14 Ga0 3.243389 1_555
Ca14 Ca9 3.776922 1_555
Ca14 Ca16 3.777022 1_555
Ca14 Ca17 3.780772 1_556
Ca14 Na0 3.786362 1_555
Ca14 Ca3 3.905335 1_555
Ca14 Ca7 3.905346 1_556
Ca14 Ca2 3.911698 1_555
Ca14 Ca5 3.911703 1_556
Ca15 Ga6 3.108900 1_455
Ca15 Ga9 3.108900 1_565
Ca15 Ga0 3.198139 1_555
Ca15 Ca9 3.717564 1_555
Ca15 Na0 3.761899 1_555
Ca15 Ca18 3.780772 1_465
Ca15 Ca19 3.842565 1_555
Ca15 Ca8 3.862322 1_455
Ca15 Ca6 3.862338 1_565
Ca15 Ca4 4.030615 1_455
Ca16 Ga10 3.112171 1_556
Ca16 Ga7 3.112171 1_545
Ca16 Ga4 3.230029 1_555
Ca16 Ga3 3.243389 1_555
Ca16 Ca20 3.776917 1_555
Ca16 Ca18 3.777022 1_555
Ca16 Na0 3.786363 1_555
Ca16 Ca8 3.905341 1_545
Ca16 Ca7 3.905357 1_556
Ca16 Ca2 3.911709 1_545
Ca17 Ga5 3.108891 1_555
Ca17 Ga8 3.108900 1_554
Ca17 Ga1 3.198139 1_555
Ca17 Ca20 3.717559 1_555
Ca17 Na0 3.761899 1_555
Ca17 Ca19 3.842565 1_555
Ca17 Ca7 3.862316 1_555
Ca17 Ca3 3.862327 1_554
Ca17 Ca5 4.030604 1_555
Ca17 Ca2 4.030610 1_554
Ca18 Ga11 3.112171 1_655
Ca18 Ga7 3.112171 1_545
Ca18 Ga4 3.230029 1_555
Ca18 Ga1 3.243389 1_555
Ca18 Ca20 3.776916 1_555
Ca18 Na0 3.786362 1_555
Ca18 Ca8 3.905341 1_545
Ca18 Ca6 3.905357 1_655
Ca18 Ca4 3.911709 1_545
Ca19 Ga5 3.108898 1_555
Ca19 Ga6 3.108900 1_455
Ca19 Ga3 3.198139 1_555
Ca19 Ca20 3.717559 1_555
Ca19 Na0 3.761899 1_555
Ca19 Ca6 3.862316 1_555
Ca19 Ca3 3.862327 1_455
Ca19 Ca5 4.030604 1_555
Ca19 Ca4 4.030610 1_455
Ca20 Ga7 3.121226 1_545
Ca20 Ga5 3.143336 1_555
Ca20 Ga1 3.253425 1_555
Ca20 Ga3 3.253425 1_555
Ca20 Na0 3.756108 1_555
Ca20 Ca9 3.807573 1_545
Ca20 Ca4 3.872209 1_545
Ca20 Ca6 3.923833 1_555
Ca20 Ca7 3.923833 1_555
Ga5 Ga9 2.689291 1_555
Ga6 Ga7 2.647258 1_555
Ga6 Ga8 2.689285 1_555
Ga7 Ga8 2.647258 1_555
Ga10 Ga9 2.647258 1_555
Ga10 Ga5 2.647269 1_555
Ga10 Ga11 2.654820 1_555
Ga11 Ga9 2.647258 1_555
Ga11 Ga5 2.647274 1_555
Ga12 Ga6 2.647257 1_555
Ga12 Ga8 2.647263 1_555
Ga12 Ga7 2.654826 1_555
Ag0 Ca5 3.306153 1_555
Ag0 Ca4 3.306162 1_455
Ag0 Ca2 3.306162 1_554
Ag0 Ca1 3.306164 1_565
Ag0 Ca11 3.330741 1_555
Ag0 Ca15 3.330741 1_555
Ag0 Ca17 3.330741 1_555
Ag0 Ca19 3.330741 1_555
Ag0 Ca0 3.524502 1_464
