# generated using pymatgen
data_Mn2NiO4
_symmetry_space_group_name_H-M   'P 1'
_cell_length_a   5.86457587
_cell_length_b   5.93653792
_cell_length_c   5.94253855
_cell_angle_alpha   120.03165002
_cell_angle_beta   90.00127306
_cell_angle_gamma   119.59774520
_symmetry_Int_Tables_number   1
_chemical_formula_structural   Mn2NiO4
_chemical_formula_sum   'Mn4 Ni2 O8'
_cell_volume   147.10609501
_cell_formula_units_Z   2
loop_
 _symmetry_equiv_pos_site_id
 _symmetry_equiv_pos_as_xyz
  1  'x, y, z'
loop_
 _atom_site_type_symbol
 _atom_site_label
 _atom_site_symmetry_multiplicity
 _atom_site_fract_x
 _atom_site_fract_y
 _atom_site_fract_z
 _atom_site_occupancy
  Mn  Mn0  1  0.99441322  0.98886471  0.99443135  1
  Mn  Mn1  1  0.75549175  0.51095100  0.25547355  1
  Mn  Mn2  1  0.37497351  0.25000561  0.62500319  1
  Mn  Mn3  1  0.87503226  0.25000455  0.62500193  1
  Ni  Ni0  1  0.37504042  0.75007110  0.62502166  1
  Ni  Ni1  1  0.37503010  0.75007017  0.12505468  1
  O  O0  1  0.16548329  0.79891146  0.39945093  1
  O  O1  1  0.63344945  0.79891124  0.39945901  1
  O  O2  1  0.11666221  0.70114853  0.85056802  1
  O  O3  1  0.58446265  0.70115278  0.85058022  1
  O  O4  1  0.62226819  0.24453053  0.84015221  1
  O  O5  1  0.62226644  0.24453589  0.40438548  1
  O  O6  1  0.12771204  0.25542067  0.84559643  1
  O  O7  1  0.12771047  0.25542376  0.40982135  1
loop_
_geom_bond_atom_site_label_1
_geom_bond_atom_site_label_2
_geom_bond_distance
_geom_bond_site_symmetry_2
Mn0 O3 1.977437 1_555
Mn0 O2 1.977452 1_655
Mn0 O6 2.019014 1_665
Mn0 O7 2.019052 1_666
Mn1 O1 1.977693 1_555
Mn1 O0 1.977697 1_655
Mn1 O5 2.018715 1_555
Mn1 O4 2.018729 1_554
Mn2 O0 1.906422 1_545
Mn2 O3 1.906654 1_555
Mn2 O7 1.956044 1_555
Mn2 O6 1.956053 1_555
Mn2 O4 1.956293 1_555
Mn2 O5 1.956303 1_555
Mn3 O1 1.906418 1_545
Mn3 O2 1.906638 1_655
Mn3 O6 1.956026 1_655
Mn3 O7 1.956069 1_655
Mn3 O5 1.956274 1_555
Mn3 O4 1.956318 1_555
Ni0 O3 2.032552 1_555
Ni0 O2 2.032703 1_555
Ni0 O0 2.032782 1_555
Ni0 O1 2.032845 1_555
Ni0 O4 2.095840 1_565
Ni0 O7 2.096643 1_555
Ni1 O3 2.032634 1_554
Ni1 O2 2.032705 1_554
Ni1 O0 2.032728 1_555
Ni1 O1 2.032851 1_555
Ni1 O5 2.095874 1_565
Ni1 O6 2.096666 1_554
