# generated using pymatgen
data_NbRh(SeO3)4
_symmetry_space_group_name_H-M   'P 1'
_cell_length_a   8.06351754
_cell_length_b   8.16647111
_cell_length_c   8.27314889
_cell_angle_alpha   89.14549251
_cell_angle_beta   90.00000000
_cell_angle_gamma   90.00000000
_symmetry_Int_Tables_number   1
_chemical_formula_structural   NbRh(SeO3)4
_chemical_formula_sum   'Nb2 Rh2 Se8 O24'
_cell_volume   544.73026387
_cell_formula_units_Z   2
loop_
 _symmetry_equiv_pos_site_id
 _symmetry_equiv_pos_as_xyz
  1  'x, y, z'
loop_
 _atom_site_type_symbol
 _atom_site_label
 _atom_site_symmetry_multiplicity
 _atom_site_fract_x
 _atom_site_fract_y
 _atom_site_fract_z
 _atom_site_occupancy
  Nb  Nb0  1  0.00000000  0.00000000  0.50000000  1
  Nb  Nb1  1  0.50000000  0.00000000  0.00000000  1
  Rh  Rh0  1  0.00000000  0.50000000  0.00000000  1
  Rh  Rh1  1  0.50000000  0.50000000  0.50000000  1
  Se  Se0  1  0.31765977  0.64445362  0.18413726  1
  Se  Se1  1  0.81765977  0.35554638  0.31586274  1
  Se  Se2  1  0.66599966  0.80245729  0.66046952  1
  Se  Se3  1  0.16599966  0.19754271  0.83953048  1
  Se  Se4  1  0.68234023  0.35554638  0.81586274  1
  Se  Se5  1  0.18234023  0.64445362  0.68413726  1
  Se  Se6  1  0.33400034  0.19754271  0.33953048  1
  Se  Se7  1  0.83400034  0.80245729  0.16046952  1
  O  O0  1  0.24773636  0.52536998  0.03143455  1
  O  O1  1  0.74773636  0.47463002  0.46856545  1
  O  O2  1  0.76084056  0.96066446  0.55337609  1
  O  O3  1  0.26084056  0.03933554  0.94662391  1
  O  O4  1  0.53688986  0.92330093  0.77340257  1
  O  O5  1  0.46637351  0.51440028  0.25795462  1
  O  O6  1  0.96637351  0.48559972  0.24204538  1
  O  O7  1  0.03688986  0.07669907  0.72659743  1
  O  O8  1  0.94815003  0.22645844  0.42976373  1
  O  O9  1  0.53005923  0.74491075  0.51629650  1
  O  O10  1  0.44815003  0.77354156  0.07023627  1
  O  O11  1  0.03005923  0.25508925  0.98370350  1
  O  O12  1  0.75226364  0.47463002  0.96856545  1
  O  O13  1  0.25226364  0.52536998  0.53143455  1
  O  O14  1  0.23915944  0.03933554  0.44662391  1
  O  O15  1  0.73915944  0.96066446  0.05337609  1
  O  O16  1  0.46311014  0.07669907  0.22659743  1
  O  O17  1  0.53362649  0.48559972  0.74204538  1
  O  O18  1  0.03362649  0.51440028  0.75795462  1
  O  O19  1  0.96311014  0.92330093  0.27340257  1
  O  O20  1  0.05184997  0.77354156  0.57023627  1
  O  O21  1  0.46994077  0.25508925  0.48370350  1
  O  O22  1  0.55184997  0.22645844  0.92976373  1
  O  O23  1  0.96994077  0.74491075  0.01629650  1
loop_
_geom_bond_atom_site_label_1
_geom_bond_atom_site_label_2
_geom_bond_distance
_geom_bond_site_symmetry_2
Nb0 O8 1.974982 1_455
Nb0 O20 1.974982 1_545
Nb0 O14 2.003233 1_555
Nb0 O2 2.003233 1_445
Nb0 O7 2.007545 1_555
Nb0 O19 2.007545 1_445
Nb1 O10 1.974982 1_545
Nb1 O22 1.974982 1_554
Nb1 O15 2.003233 1_545
Nb1 O3 2.003233 1_554
Nb1 O16 2.007545 1_555
Nb1 O4 2.007545 1_544
O0 Se0 1.701852 1_555
O0 Rh0 2.025506 1_555
O1 Se1 1.701852 1_555
O1 Rh1 2.025506 1_555
O2 Se2 1.733478 1_555
O3 Se3 1.733478 1_555
O4 Se2 1.719939 1_555
O5 Se0 1.708682 1_555
O5 Rh1 2.022435 1_555
O6 Se1 1.708682 1_555
O6 Rh0 2.022435 1_655
O7 Se3 1.719939 1_555
O8 Se1 1.754083 1_555
O9 Se2 1.691693 1_555
O9 Rh1 2.021187 1_555
O10 Se0 1.754083 1_555
O11 Se3 1.691693 1_555
O11 Rh0 2.021187 1_556
O12 Se4 1.701852 1_555
O12 Rh0 2.025506 1_656
O13 Se5 1.701852 1_555
O13 Rh1 2.025506 1_555
O14 Se6 1.733478 1_555
O15 Se7 1.733478 1_555
O16 Se6 1.719939 1_555
O17 Se4 1.708682 1_555
O17 Rh1 2.022435 1_555
O18 Se5 1.708682 1_555
O18 Rh0 2.022435 1_556
O19 Se7 1.719939 1_555
O20 Se5 1.754083 1_555
O21 Se6 1.691693 1_555
O21 Rh1 2.021187 1_555
O22 Se4 1.754083 1_555
O23 Se7 1.691693 1_555
O23 Rh0 2.021187 1_655
