# generated using pymatgen
data_Cs2HfZn3As4
_symmetry_space_group_name_H-M   'P 1'
_cell_length_a   8.21600916
_cell_length_b   8.21600968
_cell_length_c   5.99436430
_cell_angle_alpha   90.00000000
_cell_angle_beta   90.00000000
_cell_angle_gamma   137.22012246
_symmetry_Int_Tables_number   1
_chemical_formula_structural   Cs2HfZn3As4
_chemical_formula_sum   'Cs2 Hf1 Zn3 As4'
_cell_volume   274.82242283
_cell_formula_units_Z   1
loop_
 _symmetry_equiv_pos_site_id
 _symmetry_equiv_pos_as_xyz
  1  'x, y, z'
loop_
 _atom_site_type_symbol
 _atom_site_label
 _atom_site_symmetry_multiplicity
 _atom_site_fract_x
 _atom_site_fract_y
 _atom_site_fract_z
 _atom_site_occupancy
  Cs  Cs0  1  0.50000000  0.00000000  0.25684861  1
  Cs  Cs1  1  0.00000000  0.50000000  0.74315139  1
  Hf  Hf0  1  0.00000000  0.00000000  0.00000000  1
  Zn  Zn0  1  0.50000000  0.50000000  0.50000000  1
  Zn  Zn1  1  0.50000000  0.50000000  0.00000000  1
  Zn  Zn2  1  0.00000000  0.00000000  0.50000000  1
  As  As0  1  0.65365616  0.84515076  0.74999594  1
  As  As1  1  0.15484924  0.34634384  0.25000406  1
  As  As2  1  0.84515076  0.65365616  0.25000406  1
  As  As3  1  0.34634384  0.15484924  0.74999594  1
loop_
_geom_bond_atom_site_label_1
_geom_bond_atom_site_label_2
_geom_bond_distance
_geom_bond_site_symmetry_2
As0 Zn0 2.574067 1_555
As0 Zn1 2.574095 1_556
As0 Zn2 2.578225 1_665
As0 Hf0 2.578253 1_666
As0 Cs0 3.782673 1_565
As0 Cs1 3.811726 1_555
As0 Cs1 3.817343 1_665
As0 Cs0 3.847217 1_566
As1 Zn0 2.574066 1_555
As1 Zn1 2.574095 1_555
As1 Zn2 2.578225 1_555
As1 Hf0 2.578253 1_555
As1 Cs1 3.782673 1_555
As1 Cs0 3.811726 1_565
As1 Cs0 3.817342 1_455
As1 Cs1 3.847217 1_554
As2 Zn0 2.574066 1_555
As2 Zn1 2.574095 1_555
As2 Zn2 2.578225 1_665
As2 Hf0 2.578253 1_665
As2 Cs1 3.782673 1_655
As2 Cs0 3.811726 1_555
As2 Cs0 3.817342 1_665
As2 Cs1 3.847217 1_654
As3 Zn0 2.574067 1_555
As3 Zn1 2.574095 1_556
As3 Zn2 2.578225 1_555
As3 Hf0 2.578253 1_556
As3 Cs0 3.782673 1_555
As3 Cs1 3.811726 1_655
As3 Cs1 3.817343 1_545
As3 Cs0 3.847217 1_556
