# generated using pymatgen
data_Ba3Nb2CoO9
_symmetry_space_group_name_H-M   'P 1'
_cell_length_a   5.86956034
_cell_length_b   5.85428623
_cell_length_c   7.19110699
_cell_angle_alpha   89.90355410
_cell_angle_beta   89.98560996
_cell_angle_gamma   119.99907332
_symmetry_Int_Tables_number   1
_chemical_formula_structural   Ba3Nb2CoO9
_chemical_formula_sum   'Ba3 Nb2 Co1 O9'
_cell_volume   213.99764820
_cell_formula_units_Z   1
loop_
 _symmetry_equiv_pos_site_id
 _symmetry_equiv_pos_as_xyz
  1  'x, y, z'
loop_
 _atom_site_type_symbol
 _atom_site_label
 _atom_site_symmetry_multiplicity
 _atom_site_fract_x
 _atom_site_fract_y
 _atom_site_fract_z
 _atom_site_occupancy
  Ba  Ba0  1  0.00000000  0.00000000  0.00000000  1
  Ba  Ba1  1  0.33241600  0.66582700  0.66502300  1
  Ba  Ba2  1  0.66758400  0.33417300  0.33497700  1
  Nb  Nb0  1  0.33339700  0.66682000  0.17781800  1
  Nb  Nb1  1  0.66660300  0.33318000  0.82218200  1
  Co  Co0  1  0.00000000  0.00000000  0.50000000  1
  O  O0  1  0.50000000  0.50000000  0.00000000  1
  O  O1  1  0.50000000  0.00000000  0.00000000  1
  O  O2  1  0.00000000  0.50000000  0.00000000  1
  O  O3  1  0.17078800  0.82795300  0.32523500  1
  O  O4  1  0.17064900  0.34192900  0.32622300  1
  O  O5  1  0.65658000  0.82786900  0.32502800  1
  O  O6  1  0.82921200  0.17204700  0.67476500  1
  O  O7  1  0.82935200  0.65807100  0.67377700  1
  O  O8  1  0.34342000  0.17213100  0.67497200  1
loop_
_geom_bond_atom_site_label_1
_geom_bond_atom_site_label_2
_geom_bond_distance
_geom_bond_site_symmetry_2
Ba0 O3 2.914149 1_545
Ba0 O6 2.914149 1_454
Ba0 O5 2.915500 1_445
Ba0 O8 2.915500 1_554
Ba0 O7 2.919857 1_444
Ba0 O4 2.919857 1_555
Ba0 O2 2.927143 1_545
Ba0 O2 2.927143 1_555
Ba0 O0 2.931010 1_555
Ba0 O0 2.931010 1_445
Ba0 O1 2.934780 1_555
Ba0 O1 2.934780 1_455
Ba1 O6 2.923411 1_455
Ba1 O8 2.923823 1_555
Ba1 O7 2.930985 1_455
Ba1 O8 2.933283 1_565
Ba1 O7 2.940449 1_555
Ba1 O2 2.940684 1_556
Ba1 O4 2.940954 1_555
Ba1 O6 2.941066 1_565
Ba1 O0 2.942924 1_556
Ba1 O3 2.943649 1_555
Ba1 O5 2.946667 1_555
Ba1 O1 2.947912 1_566
Ba2 O3 2.923411 1_655
Ba2 O5 2.923823 1_555
Ba2 O4 2.930990 1_655
Ba2 O5 2.933283 1_545
Ba2 O4 2.940443 1_555
Ba2 O2 2.940684 1_655
Ba2 O7 2.940954 1_555
Ba2 O3 2.941066 1_545
Ba2 O0 2.942924 1_555
Ba2 O6 2.943649 1_555
Ba2 O8 2.946667 1_555
Ba2 O1 2.947912 1_555
Nb0 O5 1.955475 1_555
Nb0 O3 1.956472 1_555
Nb0 O4 1.960828 1_555
Nb0 O1 2.116497 1_565
Nb0 O0 2.122191 1_555
Nb0 O2 2.124309 1_555
Nb1 O8 1.955475 1_555
Nb1 O6 1.956472 1_555
Nb1 O7 1.960828 1_555
Nb1 O1 2.116497 1_556
Nb1 O0 2.122191 1_556
Nb1 O2 2.124309 1_656
Co0 O7 2.134920 1_445
Co0 O4 2.134920 1_555
Co0 O3 2.147579 1_545
Co0 O6 2.147579 1_455
Co0 O5 2.153168 1_445
Co0 O8 2.153168 1_555
