# generated using pymatgen
data_Hf12Zn11PdC4
_symmetry_space_group_name_H-M   'P 1'
_cell_length_a   8.52370350
_cell_length_b   8.52370319
_cell_length_c   8.52370381
_cell_angle_alpha   59.74884808
_cell_angle_beta   59.74884719
_cell_angle_gamma   59.74885268
_symmetry_Int_Tables_number   1
_chemical_formula_structural   Hf12Zn11PdC4
_chemical_formula_sum   'Hf12 Zn11 Pd1 C4'
_cell_volume   435.39764129
_cell_formula_units_Z   1
loop_
 _symmetry_equiv_pos_site_id
 _symmetry_equiv_pos_as_xyz
  1  'x, y, z'
loop_
 _atom_site_type_symbol
 _atom_site_label
 _atom_site_symmetry_multiplicity
 _atom_site_fract_x
 _atom_site_fract_y
 _atom_site_fract_z
 _atom_site_occupancy
  Hf  Hf0  1  0.43978467  0.43978467  0.05711028  1
  Hf  Hf1  1  0.06038685  0.43981206  0.06038685  1
  Hf  Hf2  1  0.43981206  0.06038685  0.06038685  1
  Hf  Hf3  1  0.06038685  0.06038685  0.43981206  1
  Hf  Hf4  1  0.43978467  0.05711028  0.43978467  1
  Hf  Hf5  1  0.05711028  0.43978467  0.43978467  1
  Hf  Hf6  1  0.81021533  0.81021533  0.19288972  1
  Hf  Hf7  1  0.18961315  0.81018794  0.18961315  1
  Hf  Hf8  1  0.81018794  0.18961315  0.18961315  1
  Hf  Hf9  1  0.18961315  0.18961315  0.81018794  1
  Hf  Hf10  1  0.81021533  0.19288972  0.81021533  1
  Hf  Hf11  1  0.19288972  0.81021533  0.81021533  1
  Zn  Zn0  1  0.83175283  0.83175283  0.50613360  1
  Zn  Zn1  1  0.83175283  0.50613360  0.83175283  1
  Zn  Zn2  1  0.50613360  0.83175283  0.83175283  1
  Zn  Zn3  1  0.83212383  0.83212383  0.83212383  1
  Zn  Zn4  1  0.41824717  0.41824717  0.74386640  1
  Zn  Zn5  1  0.41824717  0.74386640  0.41824717  1
  Zn  Zn6  1  0.74386640  0.41824717  0.41824717  1
  Zn  Zn7  1  0.41787617  0.41787617  0.41787617  1
  Zn  Zn8  1  0.62500000  0.62500000  0.12500000  1
  Zn  Zn9  1  0.62500000  0.12500000  0.62500000  1
  Zn  Zn10  1  0.12500000  0.62500000  0.62500000  1
  Pd  Pd0  1  0.62500000  0.62500000  0.62500000  1
  C  C0  1  0.12500000  0.12500000  0.62500000  1
  C  C1  1  0.12500000  0.62500000  0.12500000  1
  C  C2  1  0.62500000  0.12500000  0.12500000  1
  C  C3  1  0.12500000  0.12500000  0.12500000  1
loop_
_geom_bond_atom_site_label_1
_geom_bond_atom_site_label_2
_geom_bond_distance
_geom_bond_site_symmetry_2
Hf0 Zn4 2.866705 1_554
Hf0 Zn7 2.898912 1_555
Hf0 Pd0 3.056826 1_554
Hf0 Zn2 3.084623 1_554
Hf0 Zn1 3.084623 1_554
Hf0 Zn8 3.109954 1_555
Hf1 Zn6 2.873980 1_455
Hf1 Zn4 2.873980 1_554
Hf1 Zn3 3.075121 1_454
Hf1 Zn10 3.079201 1_554
Hf1 Zn8 3.079201 1_455
Hf1 Zn1 3.085755 1_454
Hf2 Zn4 2.873980 1_554
Hf2 Zn5 2.873980 1_545
Hf2 Zn3 3.075121 1_544
Hf2 Zn8 3.079201 1_545
Hf2 Zn9 3.079201 1_554
Hf2 Zn2 3.085755 1_544
Hf3 Zn6 2.873980 1_455
Hf3 Zn5 2.873980 1_545
Hf3 Zn3 3.075120 1_445
Hf3 Zn10 3.079201 1_545
Hf3 Zn9 3.079201 1_455
Hf3 Zn0 3.085754 1_445
Hf4 Zn5 2.866704 1_545
Hf4 Zn7 2.898912 1_555
Hf4 Pd0 3.056826 1_545
Hf4 Zn2 3.084624 1_545
Hf4 Zn0 3.084624 1_545
Hf4 Zn9 3.109954 1_555
Hf5 Zn6 2.866705 1_455
Hf5 Zn7 2.898912 1_555
Hf5 Pd0 3.056826 1_455
Hf5 Zn0 3.084624 1_455
Hf5 Zn1 3.084624 1_455
Hf5 Zn10 3.109954 1_555
Hf6 Zn0 2.866705 1_555
Hf6 Zn3 2.898912 1_554
Hf6 Pd0 3.056826 1_555
Hf6 Zn6 3.084623 1_555
Hf6 Zn5 3.084623 1_555
Hf6 Zn8 3.109954 1_555
Hf7 Zn2 2.873980 1_554
Hf7 Zn0 2.873980 1_455
Hf7 Zn7 3.075121 1_555
Hf7 Zn10 3.079201 1_555
Hf7 Zn8 3.079201 1_555
Hf7 Zn5 3.085755 1_555
Hf8 Zn0 2.873980 1_545
Hf8 Zn1 2.873980 1_554
Hf8 Zn7 3.075121 1_555
Hf8 Zn8 3.079201 1_555
Hf8 Zn9 3.079201 1_555
Hf8 Zn6 3.085755 1_555
Hf9 Zn2 2.873980 1_545
Hf9 Zn1 2.873980 1_455
Hf9 Zn7 3.075120 1_555
Hf9 Zn10 3.079201 1_555
Hf9 Zn9 3.079201 1_555
Hf9 Zn4 3.085754 1_555
Hf10 Zn1 2.866704 1_555
Hf10 Zn3 2.898912 1_545
Hf10 Pd0 3.056826 1_555
Hf10 Zn6 3.084624 1_555
Hf10 Zn4 3.084624 1_555
Hf10 Zn9 3.109954 1_555
Hf11 Zn2 2.866705 1_555
Hf11 Zn3 2.898912 1_455
Hf11 Pd0 3.056826 1_555
Hf11 Zn4 3.084624 1_555
Hf11 Zn5 3.084624 1_555
Hf11 Zn10 3.109954 1_555
Zn0 Zn9 2.587329 1_565
Zn0 Zn10 2.587329 1_655
Zn0 Zn1 2.764939 1_555
Zn0 Zn2 2.764939 1_555
Zn0 Zn3 2.781834 1_555
Zn1 Zn10 2.587329 1_655
Zn1 Zn8 2.587329 1_556
Zn1 Zn2 2.764939 1_555
Zn1 Zn3 2.781834 1_555
Zn2 Zn9 2.587329 1_565
Zn2 Zn8 2.587329 1_556
Zn2 Zn3 2.781834 1_555
Zn3 Zn8 2.593215 1_556
Zn3 Zn9 2.593215 1_565
Zn4 Zn9 2.587329 1_555
Zn4 Zn5 2.764939 1_555
Zn4 Zn6 2.764939 1_555
Zn4 Zn7 2.781834 1_555
Zn5 Zn8 2.587329 1_555
Zn5 Zn6 2.764939 1_555
Zn5 Zn7 2.781834 1_555
Zn6 Zn9 2.587329 1_555
Zn6 Zn8 2.587329 1_555
Zn6 Zn7 2.781834 1_555
Zn7 Zn8 2.593215 1_555
Zn7 Zn9 2.593215 1_555
Zn10 Zn5 2.587329 1_555
Zn10 Zn4 2.587329 1_555
Zn10 Zn3 2.593215 1_455
Zn10 Zn7 2.593215 1_555
Pd0 Zn0 2.601740 1_555
Pd0 Zn4 2.601740 1_555
Pd0 Zn2 2.601740 1_555
Pd0 Zn6 2.601740 1_555
Pd0 Zn1 2.601740 1_555
Pd0 Zn5 2.601740 1_555
C0 Hf5 2.261513 1_555
C0 Hf11 2.261513 1_545
C0 Hf4 2.261513 1_555
C0 Hf10 2.261513 1_455
C0 Hf9 2.270626 1_555
C0 Hf3 2.270626 1_555
C1 Hf5 2.261513 1_555
C1 Hf11 2.261513 1_554
C1 Hf0 2.261513 1_555
C1 Hf6 2.261513 1_455
C1 Hf7 2.270626 1_555
C1 Hf1 2.270626 1_555
C2 Hf4 2.261513 1_555
C2 Hf10 2.261513 1_554
C2 Hf6 2.261513 1_545
C2 Hf0 2.261513 1_555
C2 Hf8 2.270626 1_555
C2 Hf2 2.270626 1_555
C3 Hf1 2.265965 1_555
C3 Hf7 2.265965 1_545
C3 Hf2 2.265965 1_555
C3 Hf8 2.265965 1_455
C3 Hf3 2.265965 1_555
C3 Hf9 2.265965 1_554
