# generated using pymatgen
data_Y16Al4CoPd3
_symmetry_space_group_name_H-M   'P 1'
_cell_length_a   9.61864466
_cell_length_b   9.61864551
_cell_length_c   9.61864502
_cell_angle_alpha   59.66066934
_cell_angle_beta   59.66066669
_cell_angle_gamma   59.66066466
_symmetry_Int_Tables_number   1
_chemical_formula_structural   Y16Al4CoPd3
_chemical_formula_sum   'Y16 Al4 Co1 Pd3'
_cell_volume   624.40361745
_cell_formula_units_Z   1
loop_
 _symmetry_equiv_pos_site_id
 _symmetry_equiv_pos_as_xyz
  1  'x, y, z'
loop_
 _atom_site_type_symbol
 _atom_site_label
 _atom_site_symmetry_multiplicity
 _atom_site_fract_x
 _atom_site_fract_y
 _atom_site_fract_z
 _atom_site_occupancy
  Y  Y0  1  0.35825152  0.35825152  0.35825152  1
  Y  Y1  1  0.34758043  0.34758043  0.94360658  1
  Y  Y2  1  0.34758043  0.94360658  0.34758043  1
  Y  Y3  1  0.94360658  0.34758043  0.34758043  1
  Y  Y4  1  0.81757513  0.19038027  0.19038027  1
  Y  Y5  1  0.19204456  0.80635484  0.80635484  1
  Y  Y6  1  0.19038027  0.81757513  0.19038027  1
  Y  Y7  1  0.80635484  0.19204456  0.80635484  1
  Y  Y8  1  0.19038027  0.19038027  0.81757513  1
  Y  Y9  1  0.80635484  0.80635484  0.19204456  1
  Y  Y10  1  0.93575707  0.56249826  0.56249826  1
  Y  Y11  1  0.56144977  0.93529236  0.93529236  1
  Y  Y12  1  0.56249826  0.93575707  0.56249826  1
  Y  Y13  1  0.93529236  0.56144977  0.93529236  1
  Y  Y14  1  0.56249826  0.56249826  0.93575707  1
  Y  Y15  1  0.93529236  0.93529236  0.56144977  1
  Al  Al0  1  0.57741731  0.57741731  0.57741731  1
  Al  Al1  1  0.57987710  0.57987710  0.26648708  1
  Al  Al2  1  0.57987710  0.26648708  0.57987710  1
  Al  Al3  1  0.26648708  0.57987710  0.57987710  1
  Co  Co0  1  0.14214600  0.14214600  0.14214600  1
  Pd  Pd0  1  0.14687872  0.14687872  0.56754200  1
  Pd  Pd1  1  0.14687872  0.56754200  0.14687872  1
  Pd  Pd2  1  0.56754200  0.14687872  0.14687872  1
loop_
_geom_bond_atom_site_label_1
_geom_bond_atom_site_label_2
_geom_bond_distance
_geom_bond_site_symmetry_2
Y0 Y10 3.464386 1_455
Y0 Y12 3.464387 1_545
Y0 Y14 3.464387 1_554
Y0 Y4 3.599165 1_555
Y0 Y8 3.599165 1_555
Y0 Y6 3.599165 1_555
Y1 Y13 3.446355 1_455
Y1 Y11 3.446356 1_545
Y1 Y14 3.543202 1_555
Y10 Y3 3.543202 1_555
Y10 Y12 3.571814 1_555
Y10 Y14 3.571814 1_555
Y10 Y13 3.578438 1_555
Y10 Y15 3.578438 1_555
Y10 Y9 3.582657 1_555
Y10 Y7 3.582658 1_555
Y10 Y8 3.629324 1_655
Y10 Y6 3.629324 1_655
Y11 Y2 3.446356 1_556
Y11 Y8 3.531339 1_565
Y11 Y6 3.531339 1_556
Y11 Y13 3.577400 1_555
Y11 Y15 3.577400 1_555
Y11 Y12 3.578438 1_555
Y11 Y14 3.578438 1_555
Y11 Y9 3.608006 1_556
Y11 Y7 3.608006 1_565
Y12 Y2 3.543202 1_555
Y12 Y14 3.571814 1_555
Y12 Y15 3.578438 1_555
Y12 Y9 3.582657 1_555
Y12 Y5 3.582657 1_555
Y12 Y8 3.629324 1_565
Y12 Y4 3.629324 1_565
Y13 Y3 3.446356 1_556
Y13 Y8 3.531339 1_655
Y13 Y4 3.531339 1_556
Y13 Y15 3.577400 1_555
Y13 Y14 3.578438 1_555
Y13 Y9 3.608006 1_556
Y13 Y5 3.608006 1_655
Y14 Y5 3.582657 1_555
Y14 Y7 3.582657 1_555
Y14 Y6 3.629324 1_556
Y14 Y4 3.629324 1_556
Y15 Y2 3.446355 1_655
Y15 Y3 3.446356 1_565
Y15 Y6 3.531339 1_655
Y15 Y4 3.531339 1_565
Y15 Y5 3.608006 1_655
Y15 Y7 3.608006 1_565
Al0 Al3 2.967013 1_555
Al0 Al1 2.967013 1_555
Al0 Al2 2.967013 1_555
Al0 Y10 3.307971 1_555
Al0 Y14 3.307971 1_555
Al0 Y12 3.307971 1_555
Al0 Y3 3.374200 1_555
Al0 Y2 3.374200 1_555
Al0 Y1 3.374201 1_555
Al0 Y5 3.441628 1_555
Al0 Y7 3.441628 1_555
Al0 Y9 3.441628 1_555
Al1 Al3 2.998913 1_555
Al1 Al2 2.998913 1_555
Al1 Y0 3.264481 1_555
Al1 Y13 3.289823 1_554
Al1 Y11 3.289824 1_554
Al1 Y3 3.307556 1_555
Al1 Y2 3.307557 1_555
Al1 Y14 3.358335 1_554
Al1 Y9 3.412641 1_555
Al1 Y6 3.496492 1_555
Al1 Y4 3.496492 1_555
Al2 Al3 2.998913 1_555
Al2 Y0 3.264480 1_555
Al2 Y15 3.289823 1_545
Al2 Y11 3.289824 1_545
Al2 Y3 3.307557 1_555
Al2 Y1 3.307557 1_555
Al2 Y12 3.358335 1_545
Al2 Y7 3.412640 1_555
Al2 Y8 3.496492 1_555
Al2 Y4 3.496492 1_555
Al3 Y0 3.264481 1_555
Al3 Y15 3.289823 1_455
Al3 Y13 3.289823 1_455
Al3 Y1 3.307557 1_555
Al3 Y2 3.307557 1_555
Al3 Y10 3.358335 1_455
Al3 Y5 3.412641 1_555
Al3 Y6 3.496492 1_555
Al3 Y8 3.496492 1_555
Co0 Y4 2.732748 1_455
Co0 Y8 2.732748 1_554
Co0 Y6 2.732748 1_545
Co0 Y2 2.788594 1_545
Co0 Y3 2.788594 1_455
Co0 Y1 2.788594 1_554
Co0 Y11 3.459687 1_544
Co0 Y13 3.459688 1_454
Co0 Y15 3.459688 1_445
Pd0 Y7 2.857124 1_455
Pd0 Y5 2.857125 1_545
Pd0 Y0 2.868111 1_555
Pd0 Y3 2.874996 1_455
Pd0 Y2 2.874996 1_545
Pd0 Y8 2.888630 1_555
Pd0 Y12 3.436570 1_545
Pd0 Y10 3.436571 1_455
Pd0 Y15 3.565475 1_445
Pd1 Y9 2.857124 1_455
Pd1 Y5 2.857124 1_554
Pd1 Y0 2.868111 1_555
Pd1 Y1 2.874996 1_554
Pd1 Y3 2.874996 1_455
Pd1 Y6 2.888630 1_555
Pd1 Y14 3.436570 1_554
Pd1 Y10 3.436570 1_455
Pd1 Y13 3.565475 1_454
Pd2 Y7 2.857124 1_554
Pd2 Y9 2.857124 1_545
Pd2 Y0 2.868111 1_555
Pd2 Y1 2.874996 1_554
Pd2 Y2 2.874996 1_545
Pd2 Y4 2.888630 1_555
Pd2 Y12 3.436571 1_545
Pd2 Y14 3.436571 1_554
Pd2 Y11 3.565475 1_544
