# generated using pymatgen
data_SrCu2O3
_symmetry_space_group_name_H-M   'P 1'
_cell_length_a   3.51435240
_cell_length_b   3.93636032
_cell_length_c   11.46958533
_cell_angle_alpha   90.00000000
_cell_angle_beta   90.00000000
_cell_angle_gamma   90.00000000
_symmetry_Int_Tables_number   1
_chemical_formula_structural   SrCu2O3
_chemical_formula_sum   'Sr2 Cu4 O6'
_cell_volume   158.66746022
_cell_formula_units_Z   2
loop_
 _symmetry_equiv_pos_site_id
 _symmetry_equiv_pos_as_xyz
  1  'x, y, z'
loop_
 _atom_site_type_symbol
 _atom_site_label
 _atom_site_symmetry_multiplicity
 _atom_site_fract_x
 _atom_site_fract_y
 _atom_site_fract_z
 _atom_site_occupancy
  Sr  Sr0  1  0.49047807  0.50000000  0.50000000  1
  Sr  Sr1  1  0.50952193  0.00000000  -0.00000000  1
  Cu  Cu0  1  0.00780349  0.50000000  0.83495478  1
  Cu  Cu1  1  0.99219651  -0.00000000  0.66504522  1
  Cu  Cu2  1  0.00780349  0.50000000  0.16504522  1
  Cu  Cu3  1  0.99219651  0.00000000  0.33495478  1
  O  O0  1  0.98541198  0.00000000  0.50000000  1
  O  O1  1  0.01458802  0.50000000  -0.00000000  1
  O  O2  1  0.99299346  0.50000000  0.32953961  1
  O  O3  1  0.99299346  0.50000000  0.67046039  1
  O  O4  1  0.00700654  -0.00000000  0.82953961  1
  O  O5  1  0.00700654  -0.00000000  0.17046039  1
loop_
_geom_bond_atom_site_label_1
_geom_bond_atom_site_label_2
_geom_bond_distance
_geom_bond_site_symmetry_2
Cu0 O3 1.887400 1_455
Cu0 O1 1.893150 1_556
Cu0 O4 1.969162 1_555
Cu0 O4 1.969162 1_565
Cu1 O4 1.887400 1_655
Cu1 O0 1.893150 1_555
Cu1 O3 1.969162 1_555
Cu1 O3 1.969162 1_545
Cu2 O2 1.887400 1_455
Cu2 O1 1.893150 1_555
Cu2 O5 1.969162 1_565
Cu2 O5 1.969162 1_555
Cu3 O5 1.887400 1_655
Cu3 O0 1.893150 1_555
Cu3 O2 1.969162 1_545
Cu3 O2 1.969162 1_555
O0 Sr0 2.626623 1_555
O0 Sr0 2.626623 1_545
O0 Sr0 2.650337 1_645
O0 Sr0 2.650337 1_655
O1 Sr1 2.626623 1_565
O1 Sr1 2.626623 1_555
O1 Sr1 2.650337 1_455
O1 Sr1 2.650337 1_465
O2 Sr0 2.622810 1_655
O2 Sr0 2.634629 1_555
O3 Sr0 2.622810 1_655
O3 Sr0 2.634629 1_555
O4 Sr1 2.622810 1_456
O4 Sr1 2.634629 1_556
O5 Sr1 2.622810 1_455
O5 Sr1 2.634629 1_555
