# generated using pymatgen
data_Nb2NiF12
_symmetry_space_group_name_H-M   'P 1'
_cell_length_a   5.38043871
_cell_length_b   10.92190267
_cell_length_c   5.44195068
_cell_angle_alpha   55.38485712
_cell_angle_beta   55.34458361
_cell_angle_gamma   56.38934085
_symmetry_Int_Tables_number   1
_chemical_formula_structural   Nb2NiF12
_chemical_formula_sum   'Nb2 Ni1 F12'
_cell_volume   203.55528233
_cell_formula_units_Z   1
loop_
 _symmetry_equiv_pos_site_id
 _symmetry_equiv_pos_as_xyz
  1  'x, y, z'
loop_
 _atom_site_type_symbol
 _atom_site_label
 _atom_site_symmetry_multiplicity
 _atom_site_fract_x
 _atom_site_fract_y
 _atom_site_fract_z
 _atom_site_occupancy
  Nb  Nb0  1  0.48412227  0.23388523  0.53447643  1
  Nb  Nb1  1  0.51587773  0.76611477  0.46552357  1
  Ni  Ni0  1  0.00000000  0.50000000  0.00000000  1
  F  F0  1  0.08621437  0.20778813  0.74144241  1
  F  F1  1  0.15008116  0.68499183  0.73774940  1
  F  F2  1  0.36951747  0.37338930  0.14250421  1
  F  F3  1  0.43642312  0.86861950  0.08787598  1
  F  F4  1  0.73974262  0.05863116  0.41247017  1
  F  F5  1  0.74494919  0.56761748  0.37093972  1
  F  F6  1  0.25505081  0.43238252  0.62906028  1
  F  F7  1  0.26025738  0.94136884  0.58752983  1
  F  F8  1  0.56357688  0.13138050  0.91212402  1
  F  F9  1  0.63048253  0.62661070  0.85749579  1
  F  F10  1  0.84991884  0.31500817  0.26225060  1
  F  F11  1  0.91378563  0.79221187  0.25855759  1
loop_
_geom_bond_atom_site_label_1
_geom_bond_atom_site_label_2
_geom_bond_distance
_geom_bond_site_symmetry_2
F0 Nb0 1.871319 1_555
F1 Nb1 1.994152 1_555
F1 Ni0 1.997672 1_556
F2 Ni0 1.989428 1_555
F2 Nb0 2.003764 1_555
F3 Nb1 1.874845 1_555
F4 Nb0 1.867372 1_555
F5 Ni0 1.981101 1_655
F5 Nb1 2.017973 1_555
F6 Ni0 1.981101 1_556
F6 Nb0 2.017973 1_555
F7 Nb1 1.867372 1_555
F8 Nb0 1.874845 1_555
F9 Ni0 1.989428 1_656
F9 Nb1 2.003764 1_555
F10 Nb0 1.994152 1_555
F10 Ni0 1.997672 1_655
F11 Nb1 1.871319 1_555
