# generated using pymatgen
data_KB13C2
_symmetry_space_group_name_H-M   'P 1'
_cell_length_a   5.65495252
_cell_length_b   7.47264200
_cell_length_c   7.47264289
_cell_angle_alpha   96.61274496
_cell_angle_beta   112.23318610
_cell_angle_gamma   112.23318586
_symmetry_Int_Tables_number   1
_chemical_formula_structural   KB13C2
_chemical_formula_sum   'K2 B26 C4'
_cell_volume   257.97580207
_cell_formula_units_Z   2
loop_
 _symmetry_equiv_pos_site_id
 _symmetry_equiv_pos_as_xyz
  1  'x, y, z'
loop_
 _atom_site_type_symbol
 _atom_site_label
 _atom_site_symmetry_multiplicity
 _atom_site_fract_x
 _atom_site_fract_y
 _atom_site_fract_z
 _atom_site_occupancy
  K  K0  1  0.34512742  0.59512742  0.09512742  1
  K  K1  1  0.65487258  0.40487258  0.90487258  1
  B  B0  1  0.32045180  0.21998319  0.09703469  1
  B  B1  1  0.99656408  0.21998319  0.09703469  1
  B  B2  1  0.30644278  0.98004292  0.12274771  1
  B  B3  1  0.79634685  0.98004292  0.12274771  1
  B  B4  1  0.98412195  0.82040371  0.14783919  1
  B  B5  1  0.17344546  0.09808385  0.24880607  1
  B  B6  1  0.00343292  0.40296431  0.28001581  1
  B  B7  1  0.67954720  0.40296431  0.28001581  1
  B  B8  1  0.98412195  0.64783919  0.32040371  1
  B  B9  1  0.65075061  0.90075061  0.40075061  1
  B  B10  1  0.82655454  0.25119293  0.40191615  1
  B  B11  1  0.30644278  0.62274771  0.48004292  1
  B  B12  1  0.79634685  0.62274771  0.48004292  1
  B  B13  1  0.20365315  0.37725229  0.51995708  1
  B  B14  1  0.69355722  0.37725229  0.51995708  1
  B  B15  1  0.17344546  0.74880707  0.59808385  1
  B  B16  1  0.34924939  0.09924939  0.59924939  1
  B  B17  1  0.01587805  0.35216081  0.67959629  1
  B  B18  1  0.32045280  0.59703569  0.71998419  1
  B  B19  1  0.99656608  0.59703569  0.71998419  1
  B  B20  1  0.82655454  0.90191615  0.75119393  1
  B  B21  1  0.01587805  0.17959629  0.85216081  1
  B  B22  1  0.20365315  0.01995708  0.87725229  1
  B  B23  1  0.69355722  0.01995708  0.87725229  1
  B  B24  1  0.00343592  0.78001681  0.90296531  1
  B  B25  1  0.67954720  0.78001681  0.90296531  1
  C  C0  1  0.63567900  0.01355394  0.25780406  1
  C  C1  1  0.36432100  0.24219494  0.48644506  1
  C  C2  1  0.63567900  0.75780506  0.51355494  1
  C  C3  1  0.36432100  0.98644606  0.74219594  1
loop_
_geom_bond_atom_site_label_1
_geom_bond_atom_site_label_2
_geom_bond_distance
_geom_bond_site_symmetry_2
B0 B5 1.784787 1_555
B0 B7 1.797176 1_555
B0 B22 1.798438 1_554
B0 B2 1.800382 1_545
B0 B1 1.831570 1_455
B0 B21 1.870926 1_554
B0 K0 2.755532 1_555
B0 K1 2.842873 1_554
B1 B5 1.784796 1_655
B1 B6 1.797169 1_655
B1 B23 1.798433 1_554
B1 B3 1.800381 1_545
B1 B21 1.870929 1_654
B1 K0 2.755535 1_655
B1 K1 2.842865 1_554
B2 C0 1.647617 1_565
B2 B24 1.798433 1_554
B2 B4 1.856121 1_455
B3 C0 1.647612 1_565
B3 B4 1.856130 1_555
B4 B5 1.835239 1_665
B4 B8 1.925790 1_555
B4 K1 2.858862 1_554
B5 C1 1.645480 1_555
B6 B7 1.831558 1_455
B6 B8 1.870928 1_455
B6 K1 2.755527 1_454
B6 K0 2.842873 1_555
B7 B8 1.870931 1_555
B7 K1 2.755527 1_554
B7 K0 2.842873 1_555
B8 K1 2.858862 1_554
B9 C2 1.432371 1_555
B9 C0 1.432372 1_565
B9 K0 2.498670 1_555
B10 C0 1.645482 1_555
B10 B7 1.784793 1_555
B10 B6 1.784793 1_655
B10 B17 1.835240 1_655
B11 C2 1.647615 1_555
B11 B6 1.798444 1_555
B11 B18 1.800386 1_555
B11 B8 1.856121 1_455
B12 C2 1.647620 1_555
B12 B7 1.798446 1_555
B12 B19 1.800386 1_555
B12 B8 1.856130 1_555
B13 C1 1.647620 1_555
B13 B18 1.798446 1_555
B13 B6 1.800388 1_555
B13 B17 1.856130 1_555
B14 C1 1.647615 1_555
B14 B19 1.798442 1_555
B14 B7 1.800386 1_555
B14 B17 1.856121 1_655
B15 C3 1.645482 1_555
B15 B18 1.784793 1_555
B15 B19 1.784796 1_455
B15 B8 1.835240 1_455
B16 C1 1.432371 1_555
B16 C3 1.432372 1_545
B16 K1 2.498670 1_555
B17 B19 1.870931 1_455
B17 B18 1.870931 1_555
B17 B21 1.925790 1_555
B17 K0 2.858862 1_556
B18 B25 1.797173 1_555
B18 B19 1.831564 1_455
B18 K0 2.755527 1_556
B18 K1 2.842873 1_555
B19 B24 1.797166 1_655
B19 K0 2.755529 1_656
B19 K1 2.842869 1_555
B20 C2 1.645480 1_555
B20 B25 1.784790 1_555
B20 B24 1.784796 1_655
B20 B21 1.835239 1_665
B21 B23 1.856121 1_455
B21 B22 1.856130 1_555
B21 K0 2.858862 1_556
B22 C3 1.647612 1_545
B22 B24 1.800381 1_545
B23 C3 1.647617 1_545
B23 B25 1.800381 1_545
B24 B25 1.831575 1_455
B24 B4 1.870929 1_456
B24 K1 2.755535 1_455
B24 K0 2.842865 1_556
B25 B3 1.798436 1_556
B25 B4 1.870929 1_556
B25 K1 2.755533 1_555
B25 K0 2.842869 1_556
