# generated using pymatgen
data_CsK3HfSe4
_symmetry_space_group_name_H-M   'P 1'
_cell_length_a   8.46652797
_cell_length_b   10.30795800
_cell_length_c   15.68166363
_cell_angle_alpha   90.00000000
_cell_angle_beta   90.00000000
_cell_angle_gamma   90.00000000
_symmetry_Int_Tables_number   1
_chemical_formula_structural   CsK3HfSe4
_chemical_formula_sum   'Cs4 K12 Hf4 Se16'
_cell_volume   1368.57978852
_cell_formula_units_Z   4
loop_
 _symmetry_equiv_pos_site_id
 _symmetry_equiv_pos_as_xyz
  1  'x, y, z'
loop_
 _atom_site_type_symbol
 _atom_site_label
 _atom_site_symmetry_multiplicity
 _atom_site_fract_x
 _atom_site_fract_y
 _atom_site_fract_z
 _atom_site_occupancy
  Cs  Cs0  1  0.00000000  0.00000000  0.00000000  1
  Cs  Cs1  1  0.50000000  0.00000000  0.50000000  1
  Cs  Cs2  1  0.00000000  0.50000000  0.00000000  1
  Cs  Cs3  1  0.50000000  0.50000000  0.50000000  1
  K  K0  1  0.97000379  0.75000000  0.43175222  1
  K  K1  1  0.47000379  0.25000000  0.06824778  1
  K  K2  1  0.02999621  0.25000000  0.56824778  1
  K  K3  1  0.52999621  0.75000000  0.93175222  1
  K  K4  1  0.82551425  0.05725267  0.26970567  1
  K  K5  1  0.32551425  0.94274733  0.23029433  1
  K  K6  1  0.17448575  0.55725267  0.73029433  1
  K  K7  1  0.67448575  0.44274733  0.76970567  1
  K  K8  1  0.17448575  0.94274733  0.73029433  1
  K  K9  1  0.67448575  0.05725267  0.76970567  1
  K  K10  1  0.82551425  0.44274733  0.26970567  1
  K  K11  1  0.32551425  0.55725267  0.23029433  1
  Hf  Hf0  1  0.77742723  0.75000000  0.67574583  1
  Hf  Hf1  1  0.22257277  0.25000000  0.32425417  1
  Hf  Hf2  1  0.72257277  0.75000000  0.17574583  1
  Hf  Hf3  1  0.27742723  0.25000000  0.82425417  1
  Se  Se0  1  0.98170557  0.25000000  0.81546034  1
  Se  Se1  1  0.51829443  0.25000000  0.31546034  1
  Se  Se2  1  0.48170557  0.75000000  0.68453966  1
  Se  Se3  1  0.01829443  0.75000000  0.18453966  1
  Se  Se4  1  0.62687103  0.55231382  0.10033762  1
  Se  Se5  1  0.12687103  0.44768618  0.39966238  1
  Se  Se6  1  0.37312897  0.05231382  0.89966238  1
  Se  Se7  1  0.87312897  0.94768618  0.60033762  1
  Se  Se8  1  0.37312897  0.44768618  0.89966238  1
  Se  Se9  1  0.87312897  0.55231382  0.60033762  1
  Se  Se10  1  0.62687103  0.94768618  0.10033762  1
  Se  Se11  1  0.12687103  0.05231382  0.39966238  1
  Se  Se12  1  0.61264620  0.75000000  0.32509880  1
  Se  Se13  1  0.11264620  0.25000000  0.17490120  1
  Se  Se14  1  0.38735380  0.25000000  0.67490120  1
  Se  Se15  1  0.88735380  0.75000000  0.82509880  1
loop_
_geom_bond_atom_site_label_1
_geom_bond_atom_site_label_2
_geom_bond_distance
_geom_bond_site_symmetry_2
Cs0 Se6 3.570227 1_554
Cs0 Se10 3.570227 1_445
Cs0 Se3 3.878074 1_545
Cs0 Se0 3.878074 1_454
Cs0 Se13 3.882408 1_555
Cs0 Se15 3.882408 1_444
Cs1 Se11 3.570227 1_555
Cs1 Se7 3.570227 1_545
Cs1 Se2 3.878074 1_545
Cs1 Se1 3.878074 1_555
Cs1 Se14 3.882408 1_555
Cs1 Se12 3.882408 1_545
Cs2 Se8 3.570227 1_554
Cs2 Se4 3.570227 1_455
Cs2 Se3 3.878074 1_555
Cs2 Se0 3.878074 1_454
Cs2 Se13 3.882408 1_555
Cs2 Se15 3.882408 1_454
Cs3 Se5 3.570227 1_555
Cs3 Se9 3.570227 1_555
Cs3 Se2 3.878074 1_555
Cs3 Se1 3.878074 1_555
Cs3 Se14 3.882408 1_555
Cs3 Se12 3.882408 1_555
K0 Se11 3.424628 1_665
K0 Se5 3.424628 1_655
K0 Se7 3.437187 1_555
K0 Se9 3.437187 1_555
K0 Se12 3.457078 1_555
K0 Se3 3.898204 1_655
K1 Se4 3.424628 1_555
K1 Se10 3.424628 1_545
K1 Se8 3.437187 1_554
K1 Se6 3.437187 1_554
K1 Se13 3.457078 1_555
K1 Se1 3.898204 1_555
K2 Se9 3.424628 1_455
K2 Se7 3.424628 1_445
K2 Se5 3.437187 1_555
K2 Se11 3.437187 1_555
K2 Se14 3.457078 1_555
K2 Se0 3.898204 1_455
K3 Se6 3.424628 1_565
K3 Se8 3.424628 1_555
K3 Se10 3.437187 1_556
K3 Se4 3.437187 1_556
K3 Se15 3.457078 1_555
K3 Se2 3.898204 1_555
K4 Se11 3.265832 1_655
K4 Se10 3.340399 1_545
K4 Se1 3.350815 1_555
K4 Se13 3.473840 1_655
K4 Se12 3.746132 1_545
K4 Se3 3.805064 1_645
K5 Se10 3.265832 1_555
K5 Se11 3.340399 1_565
K5 Se3 3.350815 1_555
K5 Se12 3.473840 1_555
K5 Se13 3.746132 1_565
K5 Se1 3.805064 1_565
K6 Se9 3.265832 1_455
K6 Se8 3.340399 1_555
K6 Se2 3.350815 1_555
K6 Se15 3.473840 1_455
K6 Se14 3.746132 1_555
K6 Se0 3.805064 1_455
K7 Se8 3.265832 1_555
K7 Se9 3.340399 1_555
K7 Se0 3.350815 1_555
K7 Se14 3.473840 1_555
K7 Se15 3.746132 1_555
K7 Se2 3.805064 1_555
K8 Se7 3.265832 1_455
K8 Se6 3.340399 1_565
K8 Se2 3.350815 1_555
K8 Se15 3.473840 1_455
K8 Se14 3.746132 1_565
K8 Se0 3.805064 1_465
K9 Se6 3.265832 1_555
K9 Se7 3.340399 1_545
K9 Se0 3.350815 1_555
K9 Se14 3.473840 1_555
K9 Se15 3.746132 1_545
K9 Se2 3.805064 1_545
K10 Se5 3.265832 1_655
K10 Se4 3.340399 1_555
K10 Se1 3.350815 1_555
K10 Se13 3.473840 1_655
K10 Se12 3.746132 1_555
K10 Se3 3.805064 1_655
K11 Se4 3.265832 1_555
K11 Se5 3.340399 1_555
K11 Se3 3.350815 1_555
K11 Se12 3.473840 1_555
K11 Se13 3.746132 1_555
K11 Se1 3.805064 1_555
Hf0 Se7 2.491441 1_555
Hf0 Se9 2.491441 1_555
Hf0 Se2 2.507531 1_555
Hf0 Se15 2.520247 1_555
Hf1 Se5 2.491441 1_555
Hf1 Se11 2.491441 1_555
Hf1 Se1 2.507531 1_555
Hf1 Se13 2.520247 1_555
Hf2 Se10 2.491441 1_555
Hf2 Se4 2.491441 1_555
Hf2 Se3 2.507531 1_655
Hf2 Se12 2.520247 1_555
Hf3 Se8 2.491441 1_555
Hf3 Se6 2.491441 1_555
Hf3 Se0 2.507531 1_455
Hf3 Se14 2.520247 1_555
