# generated using pymatgen
data_Zr6Nb3Al13Os7
_symmetry_space_group_name_H-M   'P 1'
_cell_length_a   8.81813048
_cell_length_b   8.81812958
_cell_length_c   8.81813045
_cell_angle_alpha   59.79719274
_cell_angle_beta   59.79718972
_cell_angle_gamma   59.79719868
_symmetry_Int_Tables_number   1
_chemical_formula_structural   Zr6Nb3Al13Os7
_chemical_formula_sum   'Zr6 Nb3 Al13 Os7'
_cell_volume   482.62568242
_cell_formula_units_Z   1
loop_
 _symmetry_equiv_pos_site_id
 _symmetry_equiv_pos_as_xyz
  1  'x, y, z'
loop_
 _atom_site_type_symbol
 _atom_site_label
 _atom_site_symmetry_multiplicity
 _atom_site_fract_x
 _atom_site_fract_y
 _atom_site_fract_z
 _atom_site_occupancy
  Zr  Zr0  1  0.71547762  0.29302114  0.29302114  1
  Zr  Zr1  1  0.70128749  0.30121202  0.70128749  1
  Zr  Zr2  1  0.70128749  0.70128749  0.30121202  1
  Zr  Zr3  1  0.30121202  0.70128749  0.70128749  1
  Zr  Zr4  1  0.29302114  0.71547762  0.29302114  1
  Zr  Zr5  1  0.29302114  0.29302114  0.71547762  1
  Nb  Nb0  1  0.63807715  0.12168896  0.12168896  1
  Nb  Nb1  1  0.12168896  0.63807715  0.12168896  1
  Nb  Nb2  1  0.12168896  0.12168896  0.63807715  1
  Al  Al0  1  0.11949473  0.11949473  0.11949473  1
  Al  Al1  1  0.36271494  0.87906984  0.87906984  1
  Al  Al2  1  0.87906984  0.36271494  0.87906984  1
  Al  Al3  1  0.87906984  0.87906984  0.36271494  1
  Al  Al4  1  0.87828020  0.87828020  0.87828020  1
  Al  Al5  1  0.99252757  0.33373893  0.33373893  1
  Al  Al6  1  0.33373893  0.99252757  0.33373893  1
  Al  Al7  1  0.33373893  0.33373893  0.99252757  1
  Al  Al8  1  0.34150705  0.34150705  0.34150705  1
  Al  Al9  1  0.00157187  0.66497204  0.66497204  1
  Al  Al10  1  0.66497204  0.00157187  0.66497204  1
  Al  Al11  1  0.66497204  0.66497204  0.00157187  1
  Al  Al12  1  0.66625344  0.66625344  0.66625344  1
  Os  Os0  1  0.99911632  0.99911632  0.99911632  1
  Os  Os1  1  0.49991976  0.99980584  0.99980584  1
  Os  Os2  1  0.49783622  0.00100640  0.49783622  1
  Os  Os3  1  0.49783622  0.49783622  0.00100640  1
  Os  Os4  1  0.00100640  0.49783622  0.49783622  1
  Os  Os5  1  0.99980584  0.49991976  0.99980584  1
  Os  Os6  1  0.99980584  0.99980584  0.49991976  1
loop_
_geom_bond_atom_site_label_1
_geom_bond_atom_site_label_2
_geom_bond_distance
_geom_bond_site_symmetry_2
Nb0 Os0 2.592955 1_544
Nb0 Os2 2.703589 1_555
Nb0 Os3 2.703589 1_555
Nb0 Os1 2.755285 1_544
Nb0 Zr0 3.066372 1_555
Nb0 Zr2 3.076355 1_545
Nb0 Zr1 3.076355 1_554
Nb1 Os0 2.592955 1_454
Nb1 Os4 2.703589 1_555
Nb1 Os3 2.703589 1_555
Nb1 Os5 2.755285 1_454
Nb1 Zr4 3.066372 1_555
Nb1 Zr3 3.076355 1_554
Nb1 Zr2 3.076355 1_455
Nb2 Os0 2.592955 1_445
Nb2 Os4 2.703589 1_555
Nb2 Os2 2.703589 1_555
Nb2 Os6 2.755286 1_445
Nb2 Zr5 3.066372 1_555
Nb2 Zr3 3.076355 1_545
Nb2 Zr1 3.076355 1_455
Al0 Os0 2.604142 1_444
Al0 Os5 2.734533 1_454
Al0 Os6 2.734533 1_445
Al0 Os1 2.734533 1_544
Al0 Zr5 2.959983 1_554
Al0 Zr4 2.959983 1_545
Al0 Zr0 2.959983 1_455
Al1 Os0 2.611322 1_455
Al1 Os1 2.731913 1_555
Al1 Os3 2.738497 1_556
Al1 Os2 2.738497 1_565
Al1 Zr5 3.019949 1_565
Al1 Zr4 3.019949 1_556
Al1 Zr3 3.064831 1_555
Al2 Os0 2.611322 1_545
Al2 Os5 2.731913 1_555
Al2 Os4 2.738497 1_655
Al2 Os3 2.738497 1_556
Al2 Zr0 3.019949 1_556
Al2 Zr5 3.019949 1_655
Al2 Zr1 3.064831 1_555
Al3 Os0 2.611322 1_554
Al3 Os6 2.731913 1_555
Al3 Os4 2.738497 1_655
Al3 Os2 2.738497 1_565
Al3 Zr0 3.019949 1_565
Al3 Zr4 3.019949 1_655
Al3 Zr2 3.064831 1_555
Al4 Os0 2.614044 1_555
Al4 Os5 2.718335 1_555
Al4 Os6 2.718335 1_555
Al4 Os1 2.718335 1_555
Al4 Zr2 3.085260 1_556
Al4 Zr1 3.085260 1_565
Al4 Zr3 3.085260 1_655
Al5 Os6 2.526956 1_545
Al5 Os5 2.526956 1_554
Al5 Os4 2.553002 1_655
Al5 Zr0 2.849778 1_555
Al5 Zr1 2.934901 1_555
Al5 Zr2 2.934901 1_555
Al6 Os1 2.526956 1_554
Al6 Os6 2.526956 1_455
Al6 Os2 2.553002 1_565
Al6 Zr4 2.849778 1_555
Al6 Zr3 2.934901 1_555
Al6 Zr2 2.934901 1_555
Al7 Os1 2.526956 1_545
Al7 Os5 2.526957 1_455
Al7 Os3 2.553002 1_556
Al7 Zr5 2.849778 1_555
Al7 Zr3 2.934901 1_555
Al7 Zr1 2.934901 1_555
Al8 Os3 2.529657 1_555
Al8 Os2 2.529657 1_555
Al8 Os4 2.529657 1_555
Al8 Zr4 2.930411 1_555
Al8 Zr5 2.930411 1_555
Al8 Zr0 2.930411 1_555
Al9 Os6 2.547414 1_455
Al9 Os5 2.547414 1_455
Al9 Os4 2.558242 1_555
Al9 Zr4 2.960076 1_555
Al9 Zr5 2.960076 1_555
Al9 Zr3 2.998750 1_555
Al10 Os1 2.547414 1_545
Al10 Os6 2.547414 1_545
Al10 Os2 2.558242 1_555
Al10 Zr0 2.960076 1_555
Al10 Zr5 2.960076 1_555
Al10 Zr1 2.998750 1_555
Al11 Os1 2.547414 1_554
Al11 Os5 2.547415 1_554
Al11 Os3 2.558242 1_555
Al11 Zr0 2.960076 1_555
Al11 Zr4 2.960076 1_555
Al11 Zr2 2.998750 1_555
Al12 Os3 2.553902 1_556
Al12 Os2 2.553902 1_565
Al12 Os4 2.553902 1_655
Al12 Zr1 2.940691 1_555
Al12 Zr2 2.940691 1_555
Al12 Zr3 2.940691 1_555
Os1 Zr4 3.103866 1_556
Os1 Zr5 3.103867 1_565
Os1 Zr1 3.186343 1_565
Os1 Zr2 3.186343 1_556
Os2 Zr3 3.149662 1_545
Os2 Zr2 3.149662 1_545
Os2 Zr0 3.222043 1_555
Os2 Zr5 3.222043 1_555
Os3 Zr1 3.149662 1_554
Os3 Zr3 3.149662 1_554
Os3 Zr4 3.222043 1_555
Os3 Zr0 3.222044 1_555
Os4 Zr1 3.149662 1_455
Os4 Zr2 3.149662 1_455
Os4 Zr4 3.222043 1_555
Os4 Zr5 3.222044 1_555
Os5 Zr0 3.103867 1_556
Os5 Zr5 3.103867 1_655
Os5 Zr3 3.186343 1_655
Os5 Zr2 3.186343 1_556
Os6 Zr4 3.103867 1_655
Os6 Zr0 3.103867 1_565
Os6 Zr1 3.186343 1_565
Os6 Zr3 3.186343 1_655
