# generated using pymatgen
data_YCu6IO8
_symmetry_space_group_name_H-M   'P 1'
_cell_length_a   6.53473445
_cell_length_b   6.53473425
_cell_length_c   6.53473498
_cell_angle_alpha   60.00000122
_cell_angle_beta   60.00000222
_cell_angle_gamma   59.99999765
_symmetry_Int_Tables_number   1
_chemical_formula_structural   YCu6IO8
_chemical_formula_sum   'Y1 Cu6 I1 O8'
_cell_volume   197.31897893
_cell_formula_units_Z   1
loop_
 _symmetry_equiv_pos_site_id
 _symmetry_equiv_pos_as_xyz
  1  'x, y, z'
loop_
 _atom_site_type_symbol
 _atom_site_label
 _atom_site_symmetry_multiplicity
 _atom_site_fract_x
 _atom_site_fract_y
 _atom_site_fract_z
 _atom_site_occupancy
  Y  Y0  1  0.00000000  0.00000000  0.00000000  1
  Cu  Cu0  1  0.00000000  0.00000000  0.50000000  1
  Cu  Cu1  1  0.50000000  0.00000000  0.50000000  1
  Cu  Cu2  1  0.00000000  0.50000000  0.50000000  1
  Cu  Cu3  1  0.50000000  0.50000000  0.00000000  1
  Cu  Cu4  1  0.00000000  0.50000000  0.00000000  1
  Cu  Cu5  1  0.50000000  0.00000000  0.00000000  1
  I  I0  1  0.50000000  0.50000000  0.50000000  1
  O  O0  1  0.85578042  0.85578042  0.43265775  1
  O  O1  1  0.85578042  0.43265775  0.85578042  1
  O  O2  1  0.43265775  0.85578042  0.85578042  1
  O  O3  1  0.85578042  0.85578042  0.85578042  1
  O  O4  1  0.14421958  0.14421958  0.56734225  1
  O  O5  1  0.14421958  0.56734225  0.14421958  1
  O  O6  1  0.56734225  0.14421958  0.14421958  1
  O  O7  1  0.14421958  0.14421958  0.14421958  1
loop_
_geom_bond_atom_site_label_1
_geom_bond_atom_site_label_2
_geom_bond_distance
_geom_bond_site_symmetry_2
Cu0 O3 1.920329 1_445
Cu0 O7 1.920329 1_555
Cu0 O4 1.920334 1_555
Cu0 O0 1.920334 1_445
Cu0 I0 3.267367 1_455
Cu0 I0 3.267367 1_545
Cu1 O0 1.920328 1_545
Cu1 O4 1.920328 1_555
Cu1 O2 1.920328 1_545
Cu1 O6 1.920328 1_555
Cu1 I0 3.267367 1_555
Cu1 I0 3.267367 1_545
Cu2 O0 1.920328 1_455
Cu2 O4 1.920328 1_555
Cu2 O1 1.920328 1_455
Cu2 O5 1.920328 1_555
Cu2 I0 3.267367 1_555
Cu2 I0 3.267367 1_455
Cu3 O2 1.920328 1_554
Cu3 O6 1.920328 1_555
Cu3 O1 1.920328 1_554
Cu3 O5 1.920328 1_555
Cu3 I0 3.267367 1_555
Cu3 I0 3.267367 1_554
Cu4 O3 1.920329 1_454
Cu4 O7 1.920329 1_555
Cu4 O5 1.920334 1_555
Cu4 O1 1.920334 1_454
Cu4 I0 3.267367 1_554
Cu4 I0 3.267367 1_455
Cu5 O3 1.920329 1_544
Cu5 O7 1.920329 1_555
Cu5 O6 1.920334 1_555
Cu5 O2 1.920334 1_544
Cu5 I0 3.267367 1_545
Cu5 I0 3.267367 1_554
O0 Y0 2.308484 1_665
O1 Y0 2.308484 1_656
O2 Y0 2.308484 1_566
O3 Y0 2.308489 1_666
O4 Y0 2.308484 1_556
O5 Y0 2.308484 1_565
O6 Y0 2.308484 1_655
O7 Y0 2.308489 1_555
