# generated using pymatgen
data_Hf6Si6Tc5Os
_symmetry_space_group_name_H-M   'P 1'
_cell_length_a   7.69991689
_cell_length_b   7.69993898
_cell_length_c   7.69993905
_cell_angle_alpha   126.63663080
_cell_angle_beta   128.16073370
_cell_angle_gamma   77.60755575
_symmetry_Int_Tables_number   1
_chemical_formula_structural   Hf6Si6Tc5Os
_chemical_formula_sum   'Hf6 Si6 Tc5 Os1'
_cell_volume   279.31406188
_cell_formula_units_Z   1
loop_
 _symmetry_equiv_pos_site_id
 _symmetry_equiv_pos_as_xyz
  1  'x, y, z'
loop_
 _atom_site_type_symbol
 _atom_site_label
 _atom_site_symmetry_multiplicity
 _atom_site_fract_x
 _atom_site_fract_y
 _atom_site_fract_z
 _atom_site_occupancy
  Hf  Hf0  1  0.54699207  0.09394850  0.04562409  1
  Hf  Hf1  1  0.45300793  0.49863203  0.54695544  1
  Hf  Hf2  1  0.95183575  0.49861119  0.04565910  1
  Hf  Hf3  1  0.04816425  0.09382334  0.54677644  1
  Hf  Hf4  1  0.74917748  0.89833559  0.64747569  1
  Hf  Hf5  1  0.25082252  0.89829821  0.14915711  1
  Si  Si0  1  0.33355102  0.83061174  0.49719533  1
  Si  Si1  1  0.66644898  0.16364431  0.49705971  1
  Si  Si2  1  0.83381649  0.83142758  0.99759805  1
  Si  Si3  1  0.16618351  0.16378156  0.99760909  1
  Si  Si4  1  0.74844274  0.49750261  0.24589026  1
  Si  Si5  1  0.25155726  0.49744752  0.74905987  1
  Tc  Tc0  1  0.12649214  0.74948696  0.62310327  1
  Tc  Tc1  1  0.87350786  0.49661113  0.62299482  1
  Tc  Tc2  1  0.62755142  0.75136360  0.12381922  1
  Tc  Tc3  1  0.37244858  0.49626680  0.12381219  1
  Tc  Tc4  1  0.50000000  0.24158163  0.74158163  1
  Os  Os0  1  0.00000000  0.24262869  0.24262869  1
loop_
_geom_bond_atom_site_label_1
_geom_bond_atom_site_label_2
_geom_bond_distance
_geom_bond_site_symmetry_2
Hf0 Si3 2.691559 1_554
Hf0 Si1 2.692830 1_555
Hf0 Si0 2.698128 1_544
Hf0 Si2 2.702099 1_544
Hf0 Si4 2.798894 1_555
Hf0 Tc2 2.904726 1_545
Hf0 Tc0 2.910864 1_544
Hf0 Tc3 2.958423 1_555
Hf0 Tc1 2.963319 1_555
Hf0 Tc4 2.976039 1_554
Hf0 Os0 2.980184 1_655
Hf1 Si2 2.691566 1_555
Hf1 Si0 2.692834 1_555
Hf1 Si1 2.698128 1_555
Hf1 Si3 2.702102 1_554
Hf1 Si5 2.798901 1_555
Hf1 Tc3 2.904714 1_555
Hf1 Tc1 2.910860 1_555
Hf1 Tc2 2.958436 1_556
Hf1 Tc0 2.963322 1_555
Hf1 Tc4 2.976045 1_555
Hf1 Os0 2.980187 1_555
Hf2 Si2 2.691976 1_554
Hf2 Si0 2.692836 1_655
Hf2 Si1 2.698859 1_554
Hf2 Si3 2.701416 1_654
Hf2 Si4 2.799116 1_555
Hf2 Tc3 2.903619 1_655
Hf2 Tc1 2.911065 1_554
Hf2 Tc2 2.959387 1_555
Hf2 Tc0 2.963903 1_655
Hf2 Tc4 2.976884 1_554
Hf2 Os0 2.980231 1_655
Hf3 Si3 2.691954 1_555
Hf3 Si1 2.692830 1_455
Hf3 Si0 2.698856 1_545
Hf3 Si2 2.701422 1_444
Hf3 Si5 2.799120 1_555
Hf3 Tc2 2.903619 1_445
Hf3 Tc0 2.911060 1_545
Hf3 Tc3 2.959382 1_556
Hf3 Tc1 2.963904 1_455
Hf3 Tc4 2.976887 1_555
Hf3 Os0 2.980239 1_555
Hf4 Si0 2.696794 1_555
Hf4 Si1 2.697041 1_565
Hf4 Si3 2.701659 1_665
Hf4 Si2 2.701943 1_555
Hf4 Si4 2.771850 1_555
Hf4 Tc4 2.906444 1_565
Hf4 Os0 2.918897 1_666
Hf4 Tc2 2.959467 1_555
Hf4 Tc3 2.959722 1_555
Hf4 Tc1 2.962487 1_555
Hf4 Tc0 2.962666 1_655
Hf5 Si1 2.696794 1_565
Hf5 Si0 2.697043 1_555
Hf5 Si2 2.701660 1_454
Hf5 Si3 2.701949 1_564
Hf5 Si5 2.771846 1_554
Hf5 Tc4 2.906449 1_565
Hf5 Os0 2.918898 1_565
Hf5 Tc3 2.959477 1_555
Hf5 Tc2 2.959715 1_555
Hf5 Tc0 2.962479 1_554
Hf5 Tc1 2.962664 1_454
Si0 Tc4 2.617437 1_565
Si0 Tc3 2.623498 1_555
Si0 Tc0 2.632923 1_555
Si1 Tc4 2.617444 1_555
Si1 Tc2 2.623494 1_545
Si1 Tc1 2.632918 1_555
Si2 Tc2 2.624862 1_556
Si2 Tc1 2.633615 1_555
Si3 Tc3 2.624846 1_556
Si3 Tc0 2.633610 1_545
Si4 Tc2 2.429298 1_555
Si4 Tc3 2.429739 1_555
Si4 Tc1 2.433993 1_555
Si4 Tc0 2.434080 1_655
Si4 Tc4 2.434628 1_554
Si5 Tc3 2.429303 1_556
Si5 Tc2 2.429739 1_556
Si5 Tc0 2.433993 1_555
Si5 Tc1 2.434080 1_455
Si5 Tc4 2.434628 1_555
Os0 Si5 2.444106 1_555
Os0 Si4 2.444106 1_455
Os0 Si2 2.616882 1_444
Os0 Si3 2.616896 1_554
