# generated using pymatgen
data_Zr8Nb2CuSn7
_symmetry_space_group_name_H-M   'P 1'
_cell_length_a   5.85677220
_cell_length_b   8.65614443
_cell_length_c   8.65616908
_cell_angle_alpha   119.99991384
_cell_angle_beta   90.00009046
_cell_angle_gamma   89.99982842
_symmetry_Int_Tables_number   1
_chemical_formula_structural   Zr8Nb2CuSn7
_chemical_formula_sum   'Zr8 Nb2 Cu1 Sn7'
_cell_volume   380.04897535
_cell_formula_units_Z   1
loop_
 _symmetry_equiv_pos_site_id
 _symmetry_equiv_pos_as_xyz
  1  'x, y, z'
loop_
 _atom_site_type_symbol
 _atom_site_label
 _atom_site_symmetry_multiplicity
 _atom_site_fract_x
 _atom_site_fract_y
 _atom_site_fract_z
 _atom_site_occupancy
  Zr  Zr0  1  0.00000100  0.66666603  0.33333406  1
  Zr  Zr1  1  0.00000100  0.33333197  0.66666594  1
  Zr  Zr2  1  0.73655130  0.27212129  1.00000000  1
  Zr  Zr3  1  0.73656024  0.72788191  0.72787886  1
  Zr  Zr4  1  0.73656024  0.00000305  0.27212114  1
  Zr  Zr5  1  0.26344070  0.72788071  0.00000000  1
  Zr  Zr6  1  0.26344076  0.27211609  0.27211914  1
  Zr  Zr7  1  0.26344076  0.99999695  0.72788086  1
  Nb  Nb0  1  0.50000100  0.33333522  0.66667045  1
  Nb  Nb1  1  0.50000100  0.66666478  0.33332955  1
  Cu  Cu0  1  0.50000000  0.00000100  0.00000000  1
  Sn  Sn0  1  0.74913685  0.61247485  1.00000000  1
  Sn  Sn1  1  0.74913261  0.38752962  0.38752945  1
  Sn  Sn2  1  0.74913261  0.00000016  0.61247055  1
  Sn  Sn3  1  0.25086115  0.38752615  0.00000000  1
  Sn  Sn4  1  0.25086939  0.61246938  0.61247055  1
  Sn  Sn5  1  0.25086939  0.99999884  0.38752945  1
  Sn  Sn6  1  0.99999800  0.00000100  0.00000000  1
loop_
_geom_bond_atom_site_label_1
_geom_bond_atom_site_label_2
_geom_bond_distance
_geom_bond_site_symmetry_2
Nb0 Zr1 2.928386 1_655
Nb0 Zr1 2.928386 1_555
Nb0 Sn4 3.053004 1_555
Nb0 Sn2 3.053011 1_555
Nb0 Sn0 3.053022 1_555
Nb0 Sn3 3.053031 1_556
Nb0 Sn1 3.053041 1_555
Nb0 Sn5 3.053045 1_545
Nb1 Zr0 2.928386 1_655
Nb1 Zr0 2.928386 1_555
Nb1 Sn5 3.053004 1_555
Nb1 Sn1 3.053011 1_555
Nb1 Sn0 3.053022 1_554
Nb1 Sn3 3.053030 1_555
Nb1 Sn2 3.053040 1_565
Nb1 Sn4 3.053045 1_555
Cu0 Zr2 2.732740 1_554
Cu0 Zr6 2.732740 1_555
Cu0 Zr7 2.732740 1_544
Cu0 Zr5 2.732764 1_545
Cu0 Zr3 2.732765 1_544
Cu0 Zr4 2.732765 1_555
Cu0 Sn6 2.928374 1_555
Cu0 Sn6 2.928398 1_455
Sn0 Zr2 2.947072 1_555
Sn0 Zr4 2.984126 1_566
Sn0 Zr3 2.984126 1_555
Sn0 Zr5 3.014919 1_556
Sn0 Zr0 3.057900 1_656
Sn0 Zr1 3.057900 1_655
Sn0 Zr5 3.173495 1_656
Sn1 Zr3 2.947054 1_555
Sn1 Zr4 2.984106 1_555
Sn1 Zr2 2.984140 1_554
Sn1 Zr6 3.014918 1_555
Sn1 Zr0 3.057881 1_655
Sn1 Zr1 3.057892 1_655
Sn1 Zr6 3.173532 1_655
Sn2 Zr4 2.947054 1_555
Sn2 Zr3 2.984106 1_545
Sn2 Zr2 2.984140 1_555
Sn2 Zr7 3.014918 1_545
Sn2 Zr1 3.057881 1_655
Sn2 Zr0 3.057891 1_645
Sn2 Zr7 3.173532 1_645
Sn3 Zr5 2.947080 1_555
Sn3 Zr7 2.984129 1_544
Sn3 Zr6 2.984129 1_555
Sn3 Zr2 3.014883 1_554
Sn3 Zr1 3.057881 1_554
Sn3 Zr0 3.057881 1_555
Sn3 Zr2 3.173525 1_454
Sn4 Zr6 2.947067 1_555
Sn4 Zr7 2.984110 1_555
Sn4 Zr5 2.984133 1_556
Sn4 Zr3 3.014908 1_555
Sn4 Zr0 3.057887 1_555
Sn4 Zr1 3.057889 1_555
Sn4 Zr3 3.173533 1_455
Sn5 Zr7 2.947067 1_555
Sn5 Zr6 2.984110 1_565
Sn5 Zr5 2.984133 1_555
Sn5 Zr4 3.014909 1_565
Sn5 Zr1 3.057887 1_565
Sn5 Zr0 3.057889 1_555
Sn5 Zr4 3.173533 1_465
Sn6 Zr6 2.815842 1_655
Sn6 Zr7 2.815842 1_644
Sn6 Zr3 2.815848 1_544
Sn6 Zr4 2.815848 1_555
Sn6 Zr5 2.815854 1_645
Sn6 Zr2 2.815866 1_554
