# generated using pymatgen
data_Y4Ge3Bi3Rh7
_symmetry_space_group_name_H-M   'P 1'
_cell_length_a   7.46824989
_cell_length_b   7.46825088
_cell_length_c   7.57574569
_cell_angle_alpha   109.76305695
_cell_angle_beta   109.76305968
_cell_angle_gamma   109.17781634
_symmetry_Int_Tables_number   1
_chemical_formula_structural   Y4Ge3Bi3Rh7
_chemical_formula_sum   'Y4 Ge3 Bi3 Rh7'
_cell_volume   324.08903838
_cell_formula_units_Z   1
loop_
 _symmetry_equiv_pos_site_id
 _symmetry_equiv_pos_as_xyz
  1  'x, y, z'
loop_
 _atom_site_type_symbol
 _atom_site_label
 _atom_site_symmetry_multiplicity
 _atom_site_fract_x
 _atom_site_fract_y
 _atom_site_fract_z
 _atom_site_occupancy
  Y  Y0  1  0.00000000  0.00000000  0.55458771  1
  Y  Y1  1  0.00000000  0.47196624  0.98501040  1
  Y  Y2  1  0.47196624  1.00000000  0.98501040  1
  Y  Y3  1  0.52803376  0.52803376  0.51304516  1
  Ge  Ge0  1  0.34067494  0.34067494  0.00771441  1
  Ge  Ge1  1  0.65932506  1.00000000  0.66703947  1
  Ge  Ge2  1  0.00000000  0.65932506  0.66703947  1
  Bi  Bi0  1  0.70371122  0.70371122  0.01330424  1
  Bi  Bi1  1  0.29628878  0.00000000  0.30959403  1
  Bi  Bi2  1  1.00000000  0.29628878  0.30959403  1
  Rh  Rh0  1  0.75032088  0.25157908  0.50944661  1
  Rh  Rh1  1  0.74842092  0.49874180  0.25786853  1
  Rh  Rh2  1  0.50125820  0.24967912  0.75912573  1
  Rh  Rh3  1  0.24967912  0.50125820  0.75912573  1
  Rh  Rh4  1  0.25157908  0.75032088  0.50944661  1
  Rh  Rh5  1  0.49874180  0.74842092  0.25786853  1
  Rh  Rh6  1  0.00000000  0.00000000  0.93518296  1
loop_
_geom_bond_atom_site_label_1
_geom_bond_atom_site_label_2
_geom_bond_distance
_geom_bond_site_symmetry_2
Ge0 Rh1 2.545706 1_555
Ge0 Rh5 2.545706 1_555
Ge0 Rh2 2.577601 1_554
Ge0 Rh3 2.577601 1_554
Ge0 Rh6 2.665438 1_554
Ge0 Y0 2.943586 1_554
Ge0 Y1 2.986854 1_554
Ge0 Y2 2.986855 1_544
Ge0 Y3 3.168591 1_555
Ge1 Rh4 2.545704 1_555
Ge1 Rh2 2.545705 1_565
Ge1 Rh5 2.577595 1_555
Ge1 Rh0 2.577601 1_565
Ge1 Rh6 2.665438 1_665
Ge1 Y0 2.943586 1_665
Ge1 Y1 2.986854 1_665
Ge1 Y3 2.986856 1_555
Ge1 Y2 3.168584 1_555
Ge2 Rh3 2.545705 1_555
Ge2 Rh0 2.545705 1_455
Ge2 Rh1 2.577595 1_455
Ge2 Rh4 2.577601 1_555
Ge2 Rh6 2.665438 1_565
Ge2 Y0 2.943586 1_565
Ge2 Y2 2.986854 1_555
Ge2 Y3 2.986855 1_455
Ge2 Y1 3.168584 1_555
Bi0 Rh5 2.779002 1_555
Bi0 Rh1 2.779002 1_555
Bi0 Rh3 2.781883 1_554
Bi0 Rh2 2.781883 1_554
Bi0 Rh6 2.949103 1_664
Bi0 Y3 3.154283 1_554
Bi0 Y1 3.244018 1_654
Bi0 Y2 3.244018 1_554
Bi0 Y0 3.334435 1_665
Bi1 Rh2 2.778989 1_555
Bi1 Rh4 2.778990 1_545
Bi1 Rh5 2.781883 1_545
Bi1 Rh0 2.781883 1_555
Bi1 Rh6 2.949108 1_554
Bi1 Y2 3.154297 1_544
Bi1 Y3 3.244018 1_555
Bi1 Y1 3.244019 1_544
Bi1 Y0 3.334429 1_555
Bi2 Rh0 2.778989 1_555
Bi2 Rh3 2.778989 1_655
Bi2 Rh1 2.781883 1_555
Bi2 Rh4 2.781884 1_655
Bi2 Rh6 2.949109 1_654
Bi2 Y1 3.154297 1_654
Bi2 Y3 3.244018 1_655
Bi2 Y2 3.244019 1_544
Bi2 Y0 3.334429 1_655
Rh0 Y1 2.931934 1_655
Rh0 Y3 3.043646 1_555
Rh0 Y0 3.070680 1_655
Rh0 Y2 3.230593 1_544
Rh1 Y3 2.931935 1_555
Rh1 Y2 3.043646 1_544
Rh1 Y0 3.070679 1_665
Rh1 Y1 3.230599 1_654
Rh2 Y2 2.931935 1_545
Rh2 Y1 3.043645 1_655
Rh2 Y0 3.070679 1_555
Rh2 Y3 3.230587 1_555
Rh3 Y1 2.931934 1_555
Rh3 Y2 3.043646 1_555
Rh3 Y0 3.070680 1_555
Rh3 Y3 3.230587 1_555
Rh4 Y2 2.931935 1_555
Rh4 Y3 3.043646 1_555
Rh4 Y0 3.070680 1_565
Rh4 Y1 3.230593 1_554
Rh5 Y3 2.931935 1_555
Rh5 Y1 3.043646 1_554
Rh5 Y0 3.070679 1_665
Rh5 Y2 3.230599 1_554
Rh6 Y0 2.883293 1_555
Rh6 Y3 3.415646 1_445
Rh6 Y2 3.415648 1_545
Rh6 Y1 3.415648 1_555
