# generated using pymatgen
data_Nb2Ni20SnB6
_symmetry_space_group_name_H-M   'P 1'
_cell_length_a   7.45695117
_cell_length_b   7.45695055
_cell_length_c   7.45695098
_cell_angle_alpha   60.00000244
_cell_angle_beta   60.00000521
_cell_angle_gamma   59.99999819
_symmetry_Int_Tables_number   1
_chemical_formula_structural   Nb2Ni20SnB6
_chemical_formula_sum   'Nb2 Ni20 Sn1 B6'
_cell_volume   293.20331210
_cell_formula_units_Z   1
loop_
 _symmetry_equiv_pos_site_id
 _symmetry_equiv_pos_as_xyz
  1  'x, y, z'
loop_
 _atom_site_type_symbol
 _atom_site_label
 _atom_site_symmetry_multiplicity
 _atom_site_fract_x
 _atom_site_fract_y
 _atom_site_fract_z
 _atom_site_occupancy
  Nb  Nb0  1  0.75000000  0.75000000  0.75000000  1
  Nb  Nb1  1  0.00000000  0.00000000  0.00000000  1
  Ni  Ni0  1  0.38550873  0.38550873  0.38550873  1
  Ni  Ni1  1  0.61535807  0.61535807  0.61535807  1
  Ni  Ni2  1  0.38550873  0.38550873  0.84347381  1
  Ni  Ni3  1  0.38550873  0.84347381  0.38550873  1
  Ni  Ni4  1  0.61535807  0.61535807  0.15392578  1
  Ni  Ni5  1  0.61535807  0.15392578  0.61535807  1
  Ni  Ni6  1  0.84347381  0.38550873  0.38550873  1
  Ni  Ni7  1  0.15392578  0.61535807  0.61535807  1
  Ni  Ni8  1  0.34528814  0.99729989  0.99729989  1
  Ni  Ni9  1  0.66011208  0.99729989  0.99729989  1
  Ni  Ni10  1  0.99729989  0.34528814  0.66011208  1
  Ni  Ni11  1  0.99729989  0.66011208  0.34528814  1
  Ni  Ni12  1  0.99729989  0.34528814  0.99729989  1
  Ni  Ni13  1  0.66011208  0.99729989  0.34528814  1
  Ni  Ni14  1  0.99729989  0.66011208  0.99729989  1
  Ni  Ni15  1  0.34528814  0.99729989  0.66011208  1
  Ni  Ni16  1  0.99729989  0.99729989  0.34528814  1
  Ni  Ni17  1  0.99729989  0.99729989  0.66011208  1
  Ni  Ni18  1  0.66011208  0.34528814  0.99729989  1
  Ni  Ni19  1  0.34528814  0.66011208  0.99729989  1
  Sn  Sn0  1  0.25000000  0.25000000  0.25000000  1
  B  B0  1  0.73084302  0.26915698  0.26915698  1
  B  B1  1  0.26915698  0.73084302  0.73084302  1
  B  B2  1  0.26915698  0.73084302  0.26915698  1
  B  B3  1  0.73084302  0.26915698  0.73084302  1
  B  B4  1  0.26915698  0.26915698  0.73084302  1
  B  B5  1  0.73084302  0.73084302  0.26915698  1
loop_
_geom_bond_atom_site_label_1
_geom_bond_atom_site_label_2
_geom_bond_distance
_geom_bond_site_symmetry_2
Nb0 Ni5 2.459332 1_565
Nb0 Ni1 2.459332 1_555
Nb0 Ni7 2.459333 1_655
Nb0 Ni4 2.459333 1_556
Nb0 Ni10 2.859942 1_555
Nb0 Ni12 2.859942 1_555
Nb0 Ni9 2.859942 1_555
Nb0 Ni14 2.859942 1_555
Nb0 Ni15 2.859942 1_555
Nb0 Ni18 2.859942 1_555
Nb0 Ni13 2.859942 1_555
Nb0 Ni17 2.859942 1_555
Nb0 Ni8 2.859942 1_555
Nb0 Ni11 2.859943 1_555
Nb0 Ni16 2.859943 1_555
Nb0 Ni19 2.859943 1_555
Nb1 Ni12 2.554821 1_454
Nb1 Ni14 2.554821 1_444
Nb1 Ni18 2.554821 1_454
Nb1 Ni19 2.554821 1_544
Nb1 Ni17 2.554821 1_444
Nb1 Ni16 2.554821 1_445
Nb1 Ni10 2.554821 1_454
Nb1 Ni11 2.554821 1_445
Nb1 Ni9 2.554821 1_444
Nb1 Ni8 2.554821 1_544
Nb1 Ni15 2.554821 1_544
Nb1 Ni13 2.554821 1_445
Ni0 Sn0 2.475165 1_555
Ni2 Sn0 2.475165 1_556
Ni3 Sn0 2.475165 1_565
Ni6 Sn0 2.475165 1_655
B0 Ni16 2.080639 1_545
B0 Ni13 2.080639 1_545
B0 Ni18 2.080639 1_554
B0 Ni12 2.080639 1_554
B0 Ni6 2.102655 1_555
B0 Ni0 2.102655 1_555
B0 Ni4 2.107871 1_555
B0 Ni5 2.107872 1_555
B1 Ni17 2.080639 1_455
B1 Ni15 2.080639 1_555
B1 Ni19 2.080639 1_555
B1 Ni14 2.080639 1_455
B1 Ni2 2.102655 1_555
B1 Ni3 2.102655 1_555
B1 Ni7 2.107872 1_555
B1 Ni1 2.107872 1_555
B2 Ni16 2.080639 1_455
B2 Ni19 2.080639 1_554
B2 Ni8 2.080639 1_554
B2 Ni11 2.080639 1_455
B2 Ni0 2.102655 1_555
B2 Ni3 2.102655 1_555
B2 Ni4 2.107872 1_555
B2 Ni7 2.107872 1_555
B3 Ni17 2.080639 1_545
B3 Ni18 2.080639 1_555
B3 Ni9 2.080639 1_545
B3 Ni10 2.080639 1_555
B3 Ni2 2.102655 1_555
B3 Ni6 2.102655 1_555
B3 Ni1 2.107871 1_555
B3 Ni5 2.107872 1_555
B4 Ni15 2.080639 1_545
B4 Ni8 2.080639 1_545
B4 Ni10 2.080639 1_455
B4 Ni12 2.080639 1_455
B4 Ni2 2.102655 1_555
B4 Ni0 2.102655 1_555
B4 Ni7 2.107871 1_555
B4 Ni5 2.107872 1_555
B5 Ni13 2.080639 1_555
B5 Ni9 2.080639 1_554
B5 Ni11 2.080639 1_555
B5 Ni14 2.080639 1_554
B5 Ni6 2.102655 1_555
B5 Ni3 2.102655 1_555
B5 Ni4 2.107872 1_555
B5 Ni1 2.107872 1_555
