# generated using pymatgen
data_Li2SbAu
_symmetry_space_group_name_H-M   'P 1'
_cell_length_a   4.62882368
_cell_length_b   4.62882366
_cell_length_c   4.62882388
_cell_angle_alpha   60.00000572
_cell_angle_beta   60.00000584
_cell_angle_gamma   59.99999965
_symmetry_Int_Tables_number   1
_chemical_formula_structural   Li2SbAu
_chemical_formula_sum   'Li2 Sb1 Au1'
_cell_volume   70.12889078
_cell_formula_units_Z   1
loop_
 _symmetry_equiv_pos_site_id
 _symmetry_equiv_pos_as_xyz
  1  'x, y, z'
loop_
 _atom_site_type_symbol
 _atom_site_label
 _atom_site_symmetry_multiplicity
 _atom_site_fract_x
 _atom_site_fract_y
 _atom_site_fract_z
 _atom_site_occupancy
  Li  Li0  1  0.25000000  0.25000000  0.25000000  1
  Li  Li1  1  0.50000000  0.50000000  0.50000000  1
  Sb  Sb0  1  -0.00000000  -0.00000000  -0.00000000  1
  Au  Au0  1  0.75000000  0.75000000  0.75000000  1
loop_
_geom_bond_atom_site_label_1
_geom_bond_atom_site_label_2
_geom_bond_distance
_geom_bond_site_symmetry_2
Li0 Sb0 2.834564 1_555
Li0 Sb0 2.834564 1_565
Li0 Sb0 2.834564 1_655
Li0 Sb0 2.834564 1_556
Au0 Li1 2.834564 1_555
Au0 Sb0 2.834564 1_666
Au0 Sb0 2.834564 1_656
Au0 Li1 2.834564 1_565
Au0 Sb0 2.834564 1_566
Au0 Li1 2.834564 1_655
Au0 Li1 2.834564 1_556
Au0 Sb0 2.834564 1_665
