# generated using pymatgen
data_KMnCuS2
_symmetry_space_group_name_H-M   'P 1'
_cell_length_a   7.22595807
_cell_length_b   7.22595810
_cell_length_c   7.22595767
_cell_angle_alpha   148.40216486
_cell_angle_beta   148.40217006
_cell_angle_gamma   45.29204070
_symmetry_Int_Tables_number   1
_chemical_formula_structural   KMnCuS2
_chemical_formula_sum   'K1 Mn1 Cu1 S2'
_cell_volume   103.24659226
_cell_formula_units_Z   1
loop_
 _symmetry_equiv_pos_site_id
 _symmetry_equiv_pos_as_xyz
  1  'x, y, z'
loop_
 _atom_site_type_symbol
 _atom_site_label
 _atom_site_symmetry_multiplicity
 _atom_site_fract_x
 _atom_site_fract_y
 _atom_site_fract_z
 _atom_site_occupancy
  K  K0  1  0.00000000  0.00000000  0.00000000  1
  Mn  Mn0  1  0.75000000  0.25000000  0.50000000  1
  Cu  Cu0  1  0.25000000  0.75000000  0.50000000  1
  S  S0  1  0.64489434  0.64489434  1.00000000  1
  S  S1  1  0.35510566  0.35510566  0.00000000  1
loop_
_geom_bond_atom_site_label_1
_geom_bond_atom_site_label_2
_geom_bond_distance
_geom_bond_site_symmetry_2
K0 S0 3.387585 1_443
K0 S1 3.387585 1_556
K0 S0 3.387585 1_555
K0 S1 3.387585 1_444
K0 S0 3.387586 1_544
K0 S1 3.387586 1_455
K0 S1 3.387586 1_545
K0 S0 3.387586 1_454
Mn0 S1 2.415722 1_555
Mn0 S1 2.415722 1_656
Mn0 S0 2.415722 1_555
Mn0 S0 2.415722 1_544
Cu0 S0 2.415722 1_555
Cu0 S0 2.415722 1_454
Cu0 S1 2.415722 1_555
Cu0 S1 2.415722 1_566
