# generated using pymatgen
data_ScCu6IO8
_symmetry_space_group_name_H-M   'P 1'
_cell_length_a   6.45387263
_cell_length_b   6.45387280
_cell_length_c   6.45387182
_cell_angle_alpha   60.00000003
_cell_angle_beta   59.99999915
_cell_angle_gamma   60.00000031
_symmetry_Int_Tables_number   1
_chemical_formula_structural   ScCu6IO8
_chemical_formula_sum   'Sc1 Cu6 I1 O8'
_cell_volume   190.08424758
_cell_formula_units_Z   1
loop_
 _symmetry_equiv_pos_site_id
 _symmetry_equiv_pos_as_xyz
  1  'x, y, z'
loop_
 _atom_site_type_symbol
 _atom_site_label
 _atom_site_symmetry_multiplicity
 _atom_site_fract_x
 _atom_site_fract_y
 _atom_site_fract_z
 _atom_site_occupancy
  Sc  Sc0  1  0.00000000  0.00000000  0.00000000  1
  Cu  Cu0  1  0.00000000  0.00000000  0.50000000  1
  Cu  Cu1  1  0.50000000  0.00000000  0.00000000  1
  Cu  Cu2  1  0.00000000  0.50000000  0.00000000  1
  Cu  Cu3  1  0.50000000  0.50000000  0.00000000  1
  Cu  Cu4  1  0.00000000  0.50000000  0.50000000  1
  Cu  Cu5  1  0.50000000  0.00000000  0.50000000  1
  I  I0  1  0.50000000  0.50000000  0.50000000  1
  O  O0  1  0.14074060  0.14074060  0.57777621  1
  O  O1  1  0.14074060  0.57777621  0.14074060  1
  O  O2  1  0.57777621  0.14074060  0.14074060  1
  O  O3  1  0.85925940  0.42222379  0.85925940  1
  O  O4  1  0.14074060  0.14074060  0.14074060  1
  O  O5  1  0.85925940  0.85925940  0.85925940  1
  O  O6  1  0.85925940  0.85925940  0.42222379  1
  O  O7  1  0.42222379  0.85925940  0.85925940  1
loop_
_geom_bond_atom_site_label_1
_geom_bond_atom_site_label_2
_geom_bond_distance
_geom_bond_site_symmetry_2
Cu0 O0 1.907613 1_555
Cu0 O6 1.907613 1_445
Cu0 O5 1.907622 1_445
Cu0 O4 1.907622 1_555
Cu0 I0 3.226936 1_455
Cu0 I0 3.226936 1_545
Cu1 O2 1.907613 1_555
Cu1 O7 1.907613 1_544
Cu1 O5 1.907622 1_544
Cu1 O4 1.907622 1_555
Cu1 I0 3.226936 1_545
Cu1 I0 3.226936 1_554
Cu2 O1 1.907613 1_555
Cu2 O3 1.907613 1_454
Cu2 O5 1.907622 1_454
Cu2 O4 1.907622 1_555
Cu2 I0 3.226936 1_554
Cu2 I0 3.226936 1_455
Cu3 O3 1.907624 1_554
Cu3 O1 1.907624 1_555
Cu3 O7 1.907624 1_554
Cu3 O2 1.907624 1_555
Cu3 I0 3.226936 1_555
Cu3 I0 3.226936 1_554
Cu4 O3 1.907623 1_455
Cu4 O1 1.907623 1_555
Cu4 O6 1.907624 1_455
Cu4 O0 1.907624 1_555
Cu4 I0 3.226936 1_455
Cu4 I0 3.226936 1_555
Cu5 O7 1.907623 1_545
Cu5 O2 1.907623 1_555
Cu5 O6 1.907624 1_545
Cu5 O0 1.907624 1_555
Cu5 I0 3.226936 1_555
Cu5 I0 3.226936 1_545
O0 Sc0 2.224935 1_556
O1 Sc0 2.224936 1_565
O2 Sc0 2.224936 1_655
O3 Sc0 2.224936 1_656
O4 Sc0 2.224925 1_555
O5 Sc0 2.224925 1_666
O6 Sc0 2.224935 1_665
O7 Sc0 2.224936 1_566
