# generated using pymatgen
data_Cs4Ba2ZrAs4
_symmetry_space_group_name_H-M   'P 1'
_cell_length_a   11.19095256
_cell_length_b   11.19095369
_cell_length_c   8.23882179
_cell_angle_alpha   87.52678324
_cell_angle_beta   87.52677617
_cell_angle_gamma   119.34880812
_symmetry_Int_Tables_number   1
_chemical_formula_structural   Cs4Ba2ZrAs4
_chemical_formula_sum   'Cs8 Ba4 Zr2 As8'
_cell_volume   896.08767616
_cell_formula_units_Z   2
loop_
 _symmetry_equiv_pos_site_id
 _symmetry_equiv_pos_as_xyz
  1  'x, y, z'
loop_
 _atom_site_type_symbol
 _atom_site_label
 _atom_site_symmetry_multiplicity
 _atom_site_fract_x
 _atom_site_fract_y
 _atom_site_fract_z
 _atom_site_occupancy
  Cs  Cs0  1  0.47567819  0.94340137  0.38979625  1
  Cs  Cs1  1  0.94340137  0.47567819  0.88979625  1
  Cs  Cs2  1  0.86838905  0.72159382  0.15281462  1
  Cs  Cs3  1  0.25664782  0.12130305  0.24604442  1
  Cs  Cs4  1  0.85613569  0.14309688  0.18746897  1
  Cs  Cs5  1  0.12130305  0.25664782  0.74604442  1
  Cs  Cs6  1  0.72159382  0.86838905  0.65281462  1
  Cs  Cs7  1  0.14309688  0.85613569  0.68746897  1
  Ba  Ba0  1  0.07517656  0.53475257  0.40233883  1
  Ba  Ba1  1  0.47608985  0.53077622  0.37710038  1
  Ba  Ba2  1  0.53475257  0.07517656  0.90233883  1
  Ba  Ba3  1  0.53077622  0.47608985  0.87710038  1
  Zr  Zr0  1  0.66382970  0.33699694  0.48922564  1
  Zr  Zr1  1  0.33699694  0.66382970  0.98922564  1
  As  As0  1  0.63317305  0.32887089  0.17027426  1
  As  As1  1  0.32887089  0.63317305  0.67027426  1
  As  As2  1  0.21743801  0.41582947  0.13915650  1
  As  As3  1  0.59262980  0.78978554  0.06982813  1
  As  As4  1  0.21844806  0.79976746  0.09361900  1
  As  As5  1  0.78978554  0.59262980  0.56982813  1
  As  As6  1  0.41582947  0.21743801  0.63915650  1
  As  As7  1  0.79976746  0.21844806  0.59361900  1
loop_
_geom_bond_atom_site_label_1
_geom_bond_atom_site_label_2
_geom_bond_distance
_geom_bond_site_symmetry_2
As0 Zr0 2.664407 1_555
As0 Ba3 3.407010 1_554
As0 Ba2 3.439754 1_554
As0 Cs1 3.671631 1_554
As0 Cs3 3.686979 1_555
As0 Cs2 3.851967 1_555
As0 Ba1 3.881574 1_555
As0 Cs4 3.957040 1_555
As0 Cs0 4.072437 1_545
As1 Zr1 2.664407 1_555
As1 Ba1 3.407010 1_555
As1 Ba0 3.439754 1_555
As1 Cs0 3.671631 1_555
As1 Cs5 3.686979 1_555
As1 Cs6 3.851966 1_555
As1 Ba3 3.881575 1_555
As1 Cs7 3.957040 1_555
As1 Cs1 4.072436 1_455
As2 Zr1 2.634408 1_554
As2 Ba1 3.306621 1_555
As2 Ba0 3.321963 1_555
As2 Cs3 3.610047 1_555
As2 Cs4 3.671731 1_455
As2 Cs5 3.706820 1_554
As2 Ba3 3.783523 1_554
As2 Cs1 4.063564 1_454
As3 Zr1 2.627514 1_554
As3 Ba1 3.447827 1_555
As3 Cs6 3.567561 1_554
As3 Cs2 3.608166 1_555
As3 Ba3 3.676727 1_554
As3 Cs0 3.730484 1_555
As3 Ba2 3.774728 1_564
As3 Cs4 3.796929 1_565
As4 Zr1 2.609002 1_554
As4 Ba0 3.488783 1_555
As4 Cs2 3.576136 1_455
As4 Cs7 3.590100 1_554
As4 Ba2 3.594112 1_564
As4 Cs0 3.637814 1_555
As4 Cs3 3.692689 1_565
As4 Cs1 3.934077 1_454
As5 Zr0 2.627515 1_555
As5 Ba3 3.447827 1_555
As5 Cs2 3.567561 1_555
As5 Cs6 3.608166 1_555
As5 Ba1 3.676727 1_555
As5 Cs1 3.730484 1_555
As5 Ba0 3.774728 1_655
As5 Cs7 3.796929 1_655
As6 Zr0 2.634408 1_555
As6 Ba3 3.306621 1_555
As6 Ba2 3.321963 1_555
As6 Cs5 3.610046 1_555
As6 Cs7 3.671731 1_545
As6 Cs3 3.706820 1_555
As6 Ba1 3.783524 1_555
As6 Cs0 4.063564 1_545
As7 Zr0 2.609002 1_555
As7 Ba2 3.488782 1_555
As7 Cs6 3.576137 1_545
As7 Cs4 3.590100 1_555
As7 Ba0 3.594112 1_655
As7 Cs1 3.637814 1_555
As7 Cs5 3.692689 1_655
As7 Cs0 3.934077 1_545
