# generated using pymatgen
data_AlCr4AgSe8
_symmetry_space_group_name_H-M   'P 1'
_cell_length_a   7.52345466
_cell_length_b   7.52345446
_cell_length_c   7.52345625
_cell_angle_alpha   60.00000081
_cell_angle_beta   60.00000170
_cell_angle_gamma   60.00000025
_symmetry_Int_Tables_number   1
_chemical_formula_structural   AlCr4AgSe8
_chemical_formula_sum   'Al1 Cr4 Ag1 Se8'
_cell_volume   301.11820694
_cell_formula_units_Z   1
loop_
 _symmetry_equiv_pos_site_id
 _symmetry_equiv_pos_as_xyz
  1  'x, y, z'
loop_
 _atom_site_type_symbol
 _atom_site_label
 _atom_site_symmetry_multiplicity
 _atom_site_fract_x
 _atom_site_fract_y
 _atom_site_fract_z
 _atom_site_occupancy
  Al  Al0  1  0.00000000  0.00000000  0.00000000  1
  Cr  Cr0  1  0.62158097  0.62158097  0.13525709  1
  Cr  Cr1  1  0.62158097  0.13525709  0.62158097  1
  Cr  Cr2  1  0.13525709  0.62158097  0.62158097  1
  Cr  Cr3  1  0.62158097  0.62158097  0.62158097  1
  Ag  Ag0  1  0.25000000  0.25000000  0.25000000  1
  Se  Se0  1  0.86760883  0.86760883  0.39717552  1
  Se  Se1  1  0.86760883  0.39717552  0.86760883  1
  Se  Se2  1  0.39717552  0.86760883  0.86760883  1
  Se  Se3  1  0.86760883  0.86760883  0.86760883  1
  Se  Se4  1  0.38836079  0.38836079  0.83491862  1
  Se  Se5  1  0.38836079  0.83491862  0.38836079  1
  Se  Se6  1  0.83491862  0.38836079  0.38836079  1
  Se  Se7  1  0.38836079  0.38836079  0.38836079  1
loop_
_geom_bond_atom_site_label_1
_geom_bond_atom_site_label_2
_geom_bond_distance
_geom_bond_site_symmetry_2
Al0 Se3 2.439787 1_444
Al0 Se1 2.439800 1_454
Al0 Se2 2.439800 1_544
Al0 Se0 2.439800 1_445
Cr0 Se7 2.485915 1_555
Cr0 Se6 2.485920 1_555
Cr0 Se5 2.485920 1_555
Cr0 Se2 2.622719 1_554
Cr0 Se1 2.622719 1_554
Cr0 Se3 2.622729 1_554
Cr1 Se7 2.485915 1_555
Cr1 Se6 2.485920 1_555
Cr1 Se4 2.485920 1_555
Cr1 Se2 2.622719 1_545
Cr1 Se0 2.622719 1_545
Cr1 Se3 2.622729 1_545
Cr2 Se7 2.485915 1_555
Cr2 Se5 2.485920 1_555
Cr2 Se4 2.485920 1_555
Cr2 Se1 2.622719 1_455
Cr2 Se0 2.622719 1_455
Cr2 Se3 2.622729 1_455
Cr3 Se4 2.485914 1_555
Cr3 Se6 2.485914 1_555
Cr3 Se5 2.485914 1_555
Cr3 Se0 2.622730 1_555
Cr3 Se2 2.622730 1_555
Cr3 Se1 2.622730 1_555
Ag0 Se5 2.549793 1_545
Ag0 Se6 2.549793 1_455
Ag0 Se4 2.549794 1_554
Ag0 Se7 2.549799 1_555
