# generated using pymatgen
data_Cd4Ir3PdO14
_symmetry_space_group_name_H-M   'P 1'
_cell_length_a   7.14478914
_cell_length_b   7.14503438
_cell_length_c   7.14464015
_cell_angle_alpha   60.57584096
_cell_angle_beta   60.57410967
_cell_angle_gamma   60.57691948
_symmetry_Int_Tables_number   1
_chemical_formula_structural   Cd4Ir3PdO14
_chemical_formula_sum   'Cd4 Ir3 Pd1 O14'
_cell_volume   261.25803346
_cell_formula_units_Z   1
loop_
 _symmetry_equiv_pos_site_id
 _symmetry_equiv_pos_as_xyz
  1  'x, y, z'
loop_
 _atom_site_type_symbol
 _atom_site_label
 _atom_site_symmetry_multiplicity
 _atom_site_fract_x
 _atom_site_fract_y
 _atom_site_fract_z
 _atom_site_occupancy
  Cd  Cd0  1  0.62500000  0.12500000  0.12500000  1
  Cd  Cd1  1  0.12500000  0.62500000  0.12500000  1
  Cd  Cd2  1  0.12500000  0.12500000  0.62500000  1
  Cd  Cd3  1  0.12500000  0.12500000  0.12500000  1
  Ir  Ir0  1  0.12500000  0.62500000  0.62500000  1
  Ir  Ir1  1  0.62500000  0.12500000  0.62500000  1
  Ir  Ir2  1  0.62500000  0.62500000  0.12500000  1
  Pd  Pd0  1  0.62500000  0.62500000  0.62500000  1
  O  O0  1  0.70581521  0.70581321  0.28975089  1
  O  O1  1  0.30282077  0.30273483  0.70642159  1
  O  O2  1  0.70580840  0.28969336  0.70581725  1
  O  O3  1  0.30275805  0.70640143  0.30280433  1
  O  O4  1  0.28973353  0.70581388  0.70581943  1
  O  O5  1  0.70644380  0.30270478  0.30283662  1
  O  O6  1  0.54418479  0.54418679  0.96024911  1
  O  O7  1  0.94717923  0.94726517  0.54357841  1
  O  O8  1  0.54419160  0.96030664  0.54418275  1
  O  O9  1  0.94724195  0.54359857  0.94719567  1
  O  O10  1  0.96026647  0.54418612  0.54418057  1
  O  O11  1  0.54355620  0.94729522  0.94716338  1
  O  O12  1  0.25037131  0.25037284  0.25036735  1
  O  O13  1  0.99962869  0.99962716  0.99963265  1
loop_
_geom_bond_atom_site_label_1
_geom_bond_atom_site_label_2
_geom_bond_distance
_geom_bond_site_symmetry_2
Cd0 O13 2.201357 1_544
Cd0 O12 2.201357 1_555
Cd0 O8 2.488638 1_545
Cd0 O2 2.488638 1_554
Cd0 O6 2.488838 1_554
Cd0 O0 2.488838 1_545
Cd0 O5 2.569558 1_555
Cd0 O11 2.569558 1_544
Cd1 O13 2.201461 1_454
Cd1 O12 2.201461 1_555
Cd1 O10 2.488597 1_455
Cd1 O4 2.488597 1_554
Cd1 O6 2.488692 1_554
Cd1 O0 2.488692 1_455
Cd1 O3 2.569456 1_555
Cd1 O9 2.569456 1_454
Cd2 O13 2.201312 1_445
Cd2 O12 2.201312 1_555
Cd2 O8 2.488767 1_545
Cd2 O2 2.488767 1_455
Cd2 O10 2.488844 1_455
Cd2 O4 2.488844 1_545
Cd2 O1 2.569539 1_555
Cd2 O7 2.569539 1_445
Cd3 O12 2.184536 1_555
Cd3 O13 2.184536 1_444
Cd3 O11 2.508091 1_544
Cd3 O5 2.508091 1_455
Cd3 O7 2.508145 1_445
Cd3 O1 2.508145 1_554
Cd3 O9 2.508448 1_454
Cd3 O3 2.508448 1_545
Ir0 O4 1.927497 1_555
Ir0 O10 1.927497 1_455
Ir0 O9 1.946256 1_455
Ir0 O3 1.946256 1_555
Ir0 O7 1.946885 1_455
Ir0 O1 1.946885 1_555
Ir1 O2 1.927213 1_555
Ir1 O8 1.927213 1_545
Ir1 O5 1.946050 1_555
Ir1 O11 1.946050 1_545
Ir1 O7 1.946236 1_545
Ir1 O1 1.946236 1_555
Ir2 O0 1.927573 1_555
Ir2 O6 1.927573 1_554
Ir2 O9 1.946611 1_554
Ir2 O3 1.946611 1_555
Ir2 O11 1.947050 1_554
Ir2 O5 1.947050 1_555
O0 Pd0 2.003416 1_555
O2 Pd0 2.003956 1_555
O4 Pd0 2.003585 1_555
O6 Pd0 2.003416 1_555
O8 Pd0 2.003956 1_555
O10 Pd0 2.003585 1_555
