# generated using pymatgen
data_TaNb(GaBr8)2
_symmetry_space_group_name_H-M   'P 1'
_cell_length_a   10.12443807
_cell_length_b   10.12443767
_cell_length_c   8.74445467
_cell_angle_alpha   90.00000000
_cell_angle_beta   90.00000000
_cell_angle_gamma   129.03392012
_symmetry_Int_Tables_number   1
_chemical_formula_structural   TaNb(GaBr8)2
_chemical_formula_sum   'Ta1 Nb1 Ga2 Br16'
_cell_volume   696.25581361
_cell_formula_units_Z   1
loop_
 _symmetry_equiv_pos_site_id
 _symmetry_equiv_pos_as_xyz
  1  'x, y, z'
loop_
 _atom_site_type_symbol
 _atom_site_label
 _atom_site_symmetry_multiplicity
 _atom_site_fract_x
 _atom_site_fract_y
 _atom_site_fract_z
 _atom_site_occupancy
  Ta  Ta0  1  0.88737803  0.11262197  0.25000000  1
  Nb  Nb0  1  0.11119811  0.88880189  0.75000000  1
  Ga  Ga0  1  0.31703222  0.68296778  0.75000000  1
  Ga  Ga1  1  0.68271478  0.31728522  0.25000000  1
  Br  Br0  1  0.38409345  0.61590655  0.52873647  1
  Br  Br1  1  0.61618500  0.38381500  0.47161260  1
  Br  Br2  1  0.43889174  0.97800515  0.75000000  1
  Br  Br3  1  0.97783755  0.43696248  0.25000000  1
  Br  Br4  1  0.56303752  0.02216245  0.25000000  1
  Br  Br5  1  0.02199485  0.56110826  0.75000000  1
  Br  Br6  1  0.24242158  0.18645335  0.75000000  1
  Br  Br7  1  0.18319230  0.24117546  0.25000000  1
  Br  Br8  1  0.75882454  0.81680770  0.25000000  1
  Br  Br9  1  0.81354665  0.75757842  0.75000000  1
  Br  Br10  1  0.13314282  0.86685718  0.47047162  1
  Br  Br11  1  0.86754379  0.13245621  0.52893377  1
  Br  Br12  1  0.86754379  0.13245621  0.97106623  1
  Br  Br13  1  0.13314282  0.86685718  0.02952838  1
  Br  Br14  1  0.38409345  0.61590655  0.97126353  1
  Br  Br15  1  0.61618500  0.38381500  0.02838740  1
loop_
_geom_bond_atom_site_label_1
_geom_bond_atom_site_label_2
_geom_bond_distance
_geom_bond_site_symmetry_2
Br0 Ga0 2.290451 1_555
Br1 Ga1 2.287851 1_555
Br2 Ga0 2.408928 1_555
Br2 Nb0 2.837042 1_555
Br3 Ga1 2.415757 1_555
Br3 Ta0 2.798900 1_555
Br4 Ga1 2.415757 1_555
Br4 Ta0 2.798900 1_555
Br5 Ga0 2.408928 1_555
Br5 Nb0 2.837042 1_555
Br6 Nb0 2.409084 1_545
Br7 Ta0 2.398735 1_455
Br8 Ta0 2.398735 1_565
Br9 Nb0 2.409084 1_655
Br10 Nb0 2.477018 1_555
Br11 Ta0 2.465921 1_555
Br12 Ta0 2.465921 1_556
Br13 Nb0 2.477018 1_554
Br14 Ga0 2.290451 1_555
Br15 Ga1 2.287851 1_555
