# generated using pymatgen
data_Cs10Cd4Sn4S17
_symmetry_space_group_name_H-M   'P 1'
_cell_length_a   10.73735570
_cell_length_b   10.73735572
_cell_length_c   10.73735681
_cell_angle_alpha   89.51064317
_cell_angle_beta   89.51064308
_cell_angle_gamma   89.51064231
_symmetry_Int_Tables_number   1
_chemical_formula_structural   Cs10Cd4Sn4S17
_chemical_formula_sum   'Cs10 Cd4 Sn4 S17'
_cell_volume   1237.78385186
_cell_formula_units_Z   1
loop_
 _symmetry_equiv_pos_site_id
 _symmetry_equiv_pos_as_xyz
  1  'x, y, z'
loop_
 _atom_site_type_symbol
 _atom_site_label
 _atom_site_symmetry_multiplicity
 _atom_site_fract_x
 _atom_site_fract_y
 _atom_site_fract_z
 _atom_site_occupancy
  Cs  Cs0  1  0.99933187  0.99933187  0.49877528  1
  Cs  Cs1  1  0.49877528  0.99933187  0.99933187  1
  Cs  Cs2  1  0.99933187  0.49877528  0.99933187  1
  Cs  Cs3  1  0.49764940  0.97294261  0.49764940  1
  Cs  Cs4  1  0.49764940  0.49764940  0.97294261  1
  Cs  Cs5  1  0.97294261  0.49764940  0.49764940  1
  Cs  Cs6  1  0.66244749  0.32775244  0.32775244  1
  Cs  Cs7  1  0.32775244  0.66244749  0.32775244  1
  Cs  Cs8  1  0.32775244  0.32775244  0.66244749  1
  Cs  Cs9  1  0.67408240  0.67408240  0.67408240  1
  Cd  Cd0  1  0.86561131  0.13205064  0.13205064  1
  Cd  Cd1  1  0.13205064  0.86561131  0.13205064  1
  Cd  Cd2  1  0.13205064  0.13205064  0.86561131  1
  Cd  Cd3  1  0.86705957  0.86705957  0.86705957  1
  Sn  Sn0  1  0.21792707  0.21792707  0.21792707  1
  Sn  Sn1  1  0.22217377  0.77847280  0.77847280  1
  Sn  Sn2  1  0.77847280  0.77847280  0.22217377  1
  Sn  Sn3  1  0.77847280  0.22217377  0.77847280  1
  S  S0  1  0.99871550  0.99871550  0.99871550  1
  S  S1  1  0.34365417  0.34365417  0.34365417  1
  S  S2  1  0.35481810  0.65352972  0.65352972  1
  S  S3  1  0.65352972  0.65352972  0.35481810  1
  S  S4  1  0.65352972  0.35481810  0.65352972  1
  S  S5  1  0.26725107  0.00237433  0.26725107  1
  S  S6  1  0.26725107  0.26725107  0.00237433  1
  S  S7  1  0.00237433  0.26725107  0.26725107  1
  S  S8  1  0.26886626  0.99377207  0.72894896  1
  S  S9  1  0.26886626  0.72894896  0.99377207  1
  S  S10  1  0.00745460  0.73025567  0.73025567  1
  S  S11  1  0.72894896  0.99377207  0.26886626  1
  S  S12  1  0.73025567  0.73025567  0.00745460  1
  S  S13  1  0.99377207  0.72894896  0.26886626  1
  S  S14  1  0.73025567  0.00745460  0.73025567  1
  S  S15  1  0.72894896  0.26886626  0.99377207  1
  S  S16  1  0.99377207  0.26886626  0.72894896  1
loop_
_geom_bond_atom_site_label_1
_geom_bond_atom_site_label_2
_geom_bond_distance
_geom_bond_site_symmetry_2
Cs0 S5 3.786129 1_665
Cs0 S7 3.786129 1_665
Cs0 S14 3.795955 1_565
Cs0 S10 3.795955 1_655
Cs0 S16 3.821532 1_565
Cs0 S8 3.821532 1_655
Cs0 S11 3.828065 1_555
Cs0 S13 3.828065 1_555
Cs1 S6 3.786128 1_566
Cs1 S5 3.786129 1_566
Cs1 S12 3.795955 1_556
Cs1 S14 3.795955 1_565
Cs1 S15 3.821532 1_565
Cs1 S11 3.821532 1_556
Cs1 S9 3.828065 1_555
Cs1 S8 3.828065 1_555
Cs2 S6 3.786128 1_656
Cs2 S7 3.786129 1_656
Cs2 S12 3.795955 1_556
Cs2 S10 3.795955 1_655
Cs2 S9 3.821532 1_655
Cs2 S13 3.821532 1_556
Cs2 S15 3.828065 1_555
Cs2 S16 3.828065 1_555
Cs3 S8 3.485460 1_555
Cs3 S11 3.485460 1_555
Cs3 S5 3.523883 1_565
Cs3 S14 3.570892 1_565
Cs4 S9 3.485460 1_555
Cs4 S15 3.485460 1_555
Cs4 S6 3.523883 1_556
Cs4 S12 3.570892 1_556
Cs5 S16 3.485460 1_555
Cs5 S13 3.485460 1_555
Cs5 S7 3.523883 1_655
Cs5 S10 3.570892 1_655
Cs6 S1 3.428666 1_555
Cs6 S3 3.512934 1_555
Cs6 S4 3.512934 1_555
Cs6 S11 3.709016 1_545
Cs6 S15 3.709016 1_554
Cs6 S7 3.753946 1_655
Cs7 S1 3.428666 1_555
Cs7 S3 3.512934 1_555
Cs7 S2 3.512934 1_555
Cs7 S13 3.709016 1_455
Cs7 S9 3.709016 1_554
Cs7 S5 3.753946 1_565
Cs8 S1 3.428666 1_555
Cs8 S4 3.512934 1_555
Cs8 S2 3.512934 1_555
Cs8 S16 3.709016 1_455
Cs8 S8 3.709016 1_545
Cs8 S6 3.753947 1_556
Cs9 S2 3.446104 1_555
Cs9 S4 3.446104 1_555
Cs9 S3 3.446104 1_555
Cs9 S10 3.690615 1_655
Cs9 S14 3.690615 1_565
Cs9 S12 3.690615 1_556
Cd0 S0 2.471240 1_544
Cd0 S15 2.545372 1_554
Cd0 S11 2.545372 1_545
Cd0 S7 2.545600 1_655
Cd0 Cs6 3.675405 1_555
Cd1 S0 2.471240 1_454
Cd1 S9 2.545372 1_554
Cd1 S13 2.545372 1_455
Cd1 S5 2.545600 1_565
Cd1 Cs7 3.675405 1_555
Cd2 S0 2.471240 1_445
Cd2 S8 2.545372 1_545
Cd2 S16 2.545372 1_455
Cd2 S6 2.545600 1_556
Cd2 Cs8 3.675406 1_555
Cd3 S0 2.469314 1_555
Cd3 S10 2.559118 1_655
Cd3 S14 2.559118 1_565
Cd3 S12 2.559118 1_556
Cd3 Cs9 3.619444 1_555
S1 Sn0 2.358114 1_555
S2 Sn1 2.365060 1_555
S3 Sn2 2.365060 1_555
S4 Sn3 2.365060 1_555
S5 Sn0 2.425004 1_555
S6 Sn0 2.425004 1_555
S7 Sn0 2.425004 1_555
S8 Sn1 2.423330 1_555
S9 Sn1 2.423330 1_555
S10 Sn1 2.428341 1_555
S11 Sn2 2.423330 1_555
S12 Sn2 2.428341 1_555
S13 Sn2 2.423330 1_555
S14 Sn3 2.428341 1_555
S15 Sn3 2.423330 1_555
S16 Sn3 2.423330 1_555
