# generated using pymatgen
data_Ba6MnNi4O15
_symmetry_space_group_name_H-M   'P 1'
_cell_length_a   7.18241519
_cell_length_b   7.18234550
_cell_length_c   7.18232762
_cell_angle_alpha   88.54545142
_cell_angle_beta   88.54494768
_cell_angle_gamma   88.54453903
_symmetry_Int_Tables_number   1
_chemical_formula_structural   Ba6MnNi4O15
_chemical_formula_sum   'Ba6 Mn1 Ni4 O15'
_cell_volume   370.15933207
_cell_formula_units_Z   1
loop_
 _symmetry_equiv_pos_site_id
 _symmetry_equiv_pos_as_xyz
  1  'x, y, z'
loop_
 _atom_site_type_symbol
 _atom_site_label
 _atom_site_symmetry_multiplicity
 _atom_site_fract_x
 _atom_site_fract_y
 _atom_site_fract_z
 _atom_site_occupancy
  Ba  Ba0  1  0.33326265  0.66859375  0.99656100  1
  Ba  Ba1  1  0.99655729  0.33324985  0.66859799  1
  Ba  Ba2  1  0.66858843  0.99656208  0.33325659  1
  Ba  Ba3  1  0.14887800  0.85425228  0.50025001  1
  Ba  Ba4  1  0.50025502  0.14885759  0.85423951  1
  Ba  Ba5  1  0.85423009  0.50025555  0.14885297  1
  Mn  Mn0  1  0.29384012  0.29383923  0.29383996  1
  Ni  Ni0  1  0.50076247  0.50077620  0.50078648  1
  Ni  Ni1  1  0.70987588  0.70986944  0.70986740  1
  Ni  Ni2  1  0.09523898  0.09524701  0.09524513  1
  Ni  Ni3  1  0.90461045  0.90461354  0.90461134  1
  O  O0  1  0.14236765  0.99950992  0.85727377  1
  O  O1  1  0.85726602  0.14237312  0.99950684  1
  O  O2  1  0.99949948  0.85727833  0.14237396  1
  O  O3  1  0.03520517  0.19404360  0.32833884  1
  O  O4  1  0.32832873  0.03520484  0.19403222  1
  O  O5  1  0.19403626  0.32833368  0.03520906  1
  O  O6  1  0.80497945  0.96182458  0.67208437  1
  O  O7  1  0.67208789  0.80497742  0.96182111  1
  O  O8  1  0.96182947  0.67208828  0.80497539  1
  O  O9  1  0.35766290  0.23688479  0.53482159  1
  O  O10  1  0.53481117  0.35764706  0.23688755  1
  O  O11  1  0.23691076  0.53481985  0.35766491  1
  O  O12  1  0.76152596  0.63724975  0.47011403  1
  O  O13  1  0.47012601  0.76153053  0.63725847  1
  O  O14  1  0.63726068  0.47011972  0.76153250  1
loop_
_geom_bond_atom_site_label_1
_geom_bond_atom_site_label_2
_geom_bond_distance
_geom_bond_site_symmetry_2
Ba0 O7 2.649899 1_555
Ba0 O5 2.669289 1_556
Ba0 O13 2.808658 1_555
Ba0 O11 2.818648 1_556
Ba0 O0 2.883238 1_555
Ba0 O2 2.908532 1_456
Ba0 O4 3.021341 1_566
Ba0 O8 3.031906 1_455
Ba0 O14 3.070158 1_555
Ba0 O10 3.135235 1_556
Ba1 O8 2.649924 1_555
Ba1 O3 2.669199 1_655
Ba1 O14 2.808641 1_555
Ba1 O9 2.818697 1_655
Ba1 O1 2.883152 1_555
Ba1 O0 2.908363 1_645
Ba1 O5 3.021385 1_656
Ba1 O6 3.031824 1_545
Ba1 O12 3.070221 1_555
Ba1 O11 3.135356 1_655
Ba2 O6 2.649906 1_555
Ba2 O4 2.669285 1_565
Ba2 O12 2.808709 1_555
Ba2 O10 2.818558 1_565
Ba2 O2 2.883161 1_555
Ba2 O1 2.908434 1_564
Ba2 O3 3.021460 1_665
Ba2 O7 3.031879 1_554
Ba2 O13 3.070171 1_555
Ba2 O9 3.135160 1_565
Ba3 O11 2.593251 1_555
Ba3 O13 2.596078 1_555
Ba3 O0 2.791654 1_555
Ba3 O2 2.809713 1_455
Ba3 O3 2.818537 1_565
Ba3 O4 2.825517 1_565
Ba3 O6 2.831568 1_455
Ba3 O8 2.846301 1_455
Ba3 O9 3.182122 1_565
Ba3 O12 3.237937 1_455
Ba4 O9 2.593185 1_555
Ba4 O14 2.596134 1_555
Ba4 O1 2.791635 1_555
Ba4 O0 2.809729 1_545
Ba4 O4 2.818555 1_556
Ba4 O5 2.825647 1_556
Ba4 O7 2.831460 1_545
Ba4 O6 2.846201 1_545
Ba4 O10 3.182193 1_556
Ba4 O13 3.237653 1_545
Ba5 O10 2.593277 1_555
Ba5 O12 2.596062 1_555
Ba5 O2 2.791710 1_555
Ba5 O1 2.809651 1_554
Ba5 O5 2.818606 1_655
Ba5 O3 2.825663 1_655
Ba5 O8 2.831483 1_554
Ba5 O7 2.846146 1_554
Ba5 O11 3.182523 1_655
Ba5 O14 3.237588 1_554
Mn0 O10 1.835125 1_555
Mn0 O11 1.835165 1_555
Mn0 O9 1.835209 1_555
Mn0 O5 2.015203 1_555
Mn0 O4 2.015225 1_555
Mn0 O3 2.015233 1_555
Ni0 O13 2.139621 1_555
Ni0 O14 2.139679 1_555
Ni0 O12 2.139735 1_555
Ni0 O11 2.184140 1_555
Ni0 O9 2.184307 1_555
Ni0 O10 2.184440 1_555
Ni1 O13 1.837985 1_555
Ni1 O12 1.837997 1_555
Ni1 O14 1.837997 1_555
Ni1 O7 1.960455 1_555
Ni1 O6 1.960468 1_555
Ni1 O8 1.960474 1_555
Ni2 O5 1.870901 1_555
Ni2 O4 1.870903 1_555
Ni2 O3 1.870921 1_555
Ni2 O0 1.878079 1_544
Ni2 O2 1.878088 1_445
Ni2 O1 1.878114 1_454
Ni3 O6 1.865749 1_555
Ni3 O7 1.865752 1_555
Ni3 O8 1.865753 1_555
Ni3 O1 1.874602 1_565
Ni3 O2 1.874603 1_556
Ni3 O0 1.874610 1_655
