# generated using pymatgen
data_Cs2CoGeO4
_symmetry_space_group_name_H-M   'P 1'
_cell_length_a   6.97510082
_cell_length_b   5.92924175
_cell_length_c   8.24561138
_cell_angle_alpha   90.00162284
_cell_angle_beta   89.99469067
_cell_angle_gamma   115.14437507
_symmetry_Int_Tables_number   1
_chemical_formula_structural   Cs2CoGeO4
_chemical_formula_sum   'Cs4 Co2 Ge2 O8'
_cell_volume   308.69972211
_cell_formula_units_Z   2
loop_
 _symmetry_equiv_pos_site_id
 _symmetry_equiv_pos_as_xyz
  1  'x, y, z'
loop_
 _atom_site_type_symbol
 _atom_site_label
 _atom_site_symmetry_multiplicity
 _atom_site_fract_x
 _atom_site_fract_y
 _atom_site_fract_z
 _atom_site_occupancy
  Cs  Cs0  1  0.18272075  0.59135676  0.07862753  1
  Cs  Cs1  1  0.86007924  0.93001217  0.23054304  1
  Cs  Cs2  1  0.81725294  0.40862299  0.57859851  1
  Cs  Cs3  1  0.13987379  0.06997016  0.73056790  1
  Co  Co0  1  0.40654119  0.20340398  0.30528116  1
  Co  Co1  1  0.59336588  0.79654754  0.80528301  1
  Ge  Ge0  1  0.61155539  0.30559549  0.01802737  1
  Ge  Ge1  1  0.38847918  0.69441949  0.51803327  1
  O  O0  1  0.33617132  0.16804594  0.06398345  1
  O  O1  1  0.70650652  0.35316941  0.22196594  1
  O  O2  1  0.29375098  0.40739458  0.41405737  1
  O  O3  1  0.29371068  0.88662094  0.41399669  1
  O  O4  1  0.66387630  0.83195974  0.56398281  1
  O  O5  1  0.29349025  0.64684177  0.72201938  1
  O  O6  1  0.70635161  0.11344507  0.91397765  1
  O  O7  1  0.70627197  0.59258997  0.91405189  1
loop_
_geom_bond_atom_site_label_1
_geom_bond_atom_site_label_2
_geom_bond_distance
_geom_bond_site_symmetry_2
Cs0 O5 3.022428 1_554
Cs0 O0 3.121199 1_565
Cs0 O0 3.121339 1_555
Cs0 O2 3.187118 1_555
Cs0 O3 3.187419 1_555
Cs0 O1 3.230733 1_455
Cs1 O4 3.015532 1_555
Cs1 O1 3.119532 1_565
Cs1 O1 3.120426 1_555
Cs1 O6 3.184012 1_564
Cs1 O7 3.184364 1_554
Cs1 O0 3.304870 1_665
Cs1 O3 3.487824 1_655
Cs1 O2 3.489438 1_665
Cs2 O1 3.022712 1_555
Cs2 O4 3.121108 1_545
Cs2 O4 3.121136 1_555
Cs2 O7 3.186988 1_555
Cs2 O6 3.187218 1_555
Cs2 O5 3.231313 1_655
Cs3 O0 3.015796 1_556
Cs3 O5 3.119566 1_545
Cs3 O5 3.120545 1_555
Cs3 O3 3.183965 1_545
Cs3 O2 3.184465 1_555
Cs3 O4 3.304636 1_445
Cs3 O6 3.486952 1_455
Cs3 O7 3.488895 1_445
Co0 O3 1.922154 1_545
Co0 O2 1.922176 1_555
Co0 O1 2.014706 1_555
Co0 O0 2.038695 1_555
Co1 O6 1.922632 1_565
Co1 O7 1.922637 1_555
Co1 O5 2.014144 1_555
Co1 O4 2.038832 1_555
Ge0 O6 1.763894 1_554
Ge0 O7 1.764020 1_554
Ge0 O0 1.779592 1_555
Ge0 O1 1.785328 1_555
Ge1 O3 1.764050 1_555
Ge1 O2 1.764177 1_555
Ge1 O4 1.779727 1_555
Ge1 O5 1.785676 1_555
