# generated using pymatgen
data_LiY(NiIr)2
_symmetry_space_group_name_H-M   'P 1'
_cell_length_a   4.92998853
_cell_length_b   5.05544466
_cell_length_c   5.05544540
_cell_angle_alpha   61.29477146
_cell_angle_beta   60.81756172
_cell_angle_gamma   60.81757179
_symmetry_Int_Tables_number   1
_chemical_formula_structural   LiY(NiIr)2
_chemical_formula_sum   'Li1 Y1 Ni2 Ir2'
_cell_volume   91.05040847
_cell_formula_units_Z   1
loop_
 _symmetry_equiv_pos_site_id
 _symmetry_equiv_pos_as_xyz
  1  'x, y, z'
loop_
 _atom_site_type_symbol
 _atom_site_label
 _atom_site_symmetry_multiplicity
 _atom_site_fract_x
 _atom_site_fract_y
 _atom_site_fract_z
 _atom_site_occupancy
  Li  Li0  1  0.24724001  0.25275999  0.25275999  1
  Y  Y0  1  0.99714851  0.00285149  0.00285149  1
  Ni  Ni0  1  0.12789933  0.62286238  0.62286238  1
  Ni  Ni1  1  0.62637490  0.62286238  0.62286238  1
  Ir  Ir0  1  0.62566812  0.62321824  0.12544451  1
  Ir  Ir1  1  0.62566812  0.12544451  0.62321824  1
loop_
_geom_bond_atom_site_label_1
_geom_bond_atom_site_label_2
_geom_bond_distance
_geom_bond_site_symmetry_2
Li0 Ni0 2.926351 1_555
Li0 Ni1 2.926353 1_455
Li0 Ni1 3.002916 1_554
Li0 Ni1 3.002916 1_545
Li0 Ni0 3.002918 1_545
Li0 Ni0 3.002919 1_554
Li0 Y0 3.046951 1_555
Li0 Y0 3.046951 1_455
Li0 Y0 3.139027 1_465
Li0 Y0 3.139027 1_456
Ni0 Ni1 2.457479 1_555
Ni0 Ni1 2.472510 1_455
Ni0 Y0 2.984816 1_456
Ni0 Y0 2.984817 1_465
Ni0 Y0 2.987626 1_466
Ni1 Y0 2.984818 1_565
Ni1 Y0 2.984819 1_556
Ni1 Y0 2.987624 1_466
Ir0 Ni0 2.515505 1_555
Ir0 Ni1 2.515505 1_555
Ir0 Ni0 2.539943 1_654
Ir0 Ni1 2.539943 1_554
Ir0 Ir1 2.565554 1_555
Ir0 Ir1 2.588503 1_564
Ir0 Li0 2.912181 1_555
Ir0 Li0 2.912185 1_655
Ir0 Y0 2.932512 1_465
Ir0 Y0 2.932515 1_565
Ir0 Y0 2.955198 1_555
Ir0 Li0 3.005063 1_565
Ir1 Ni1 2.515505 1_555
Ir1 Ni0 2.515505 1_555
Ir1 Ni1 2.539943 1_545
Ir1 Ni0 2.539943 1_645
Ir1 Li0 2.912181 1_555
Ir1 Li0 2.912185 1_655
Ir1 Y0 2.932511 1_456
Ir1 Y0 2.932516 1_556
Ir1 Y0 2.955198 1_555
Ir1 Li0 3.005063 1_556
