# generated using pymatgen
data_Zr2ScTcF15
_symmetry_space_group_name_H-M   'P 1'
_cell_length_a   7.86273953
_cell_length_b   7.86273991
_cell_length_c   7.92161092
_cell_angle_alpha   79.82568006
_cell_angle_beta   79.82567737
_cell_angle_gamma   99.81580387
_symmetry_Int_Tables_number   1
_chemical_formula_structural   Zr2ScTcF15
_chemical_formula_sum   'Zr4 Sc2 Tc2 F30'
_cell_volume   464.05894567
_cell_formula_units_Z   2
loop_
 _symmetry_equiv_pos_site_id
 _symmetry_equiv_pos_as_xyz
  1  'x, y, z'
loop_
 _atom_site_type_symbol
 _atom_site_label
 _atom_site_symmetry_multiplicity
 _atom_site_fract_x
 _atom_site_fract_y
 _atom_site_fract_z
 _atom_site_occupancy
  Zr  Zr0  1  0.75336585  0.67886290  0.67419643  1
  Zr  Zr1  1  0.32113710  0.24663415  0.82580357  1
  Zr  Zr2  1  0.24663415  0.32113710  0.32580357  1
  Zr  Zr3  1  0.67886290  0.75336585  0.17419643  1
  Sc  Sc0  1  0.17762939  0.82237061  0.25000000  1
  Sc  Sc1  1  0.82237061  0.17762939  0.75000000  1
  Tc  Tc0  1  0.74957932  0.25042068  0.25000000  1
  Tc  Tc1  1  0.25042068  0.74957932  0.75000000  1
  F  F0  1  0.31825115  0.35156649  0.05177714  1
  F  F1  1  0.94650987  0.81737629  0.15193937  1
  F  F2  1  0.84828497  0.45041721  0.68494125  1
  F  F3  1  0.45041721  0.84828497  0.18494125  1
  F  F4  1  0.81737629  0.94650987  0.65193937  1
  F  F5  1  0.35156649  0.31825115  0.55177614  1
  F  F6  1  0.68174885  0.64843351  0.94822286  1
  F  F7  1  0.05349013  0.18262371  0.84806063  1
  F  F8  1  0.15171503  0.54958279  0.31505875  1
  F  F9  1  0.54958279  0.15171503  0.81505875  1
  F  F10  1  0.18262371  0.05349013  0.34806063  1
  F  F11  1  0.64843351  0.68174885  0.44822286  1
  F  F12  1  0.77276019  0.28369979  0.99921143  1
  F  F13  1  0.00486099  0.27496641  0.21399813  1
  F  F14  1  0.78515986  0.50565220  0.22363259  1
  F  F15  1  0.50565220  0.78515986  0.72363259  1
  F  F16  1  0.27496641  0.00486099  0.71399813  1
  F  F17  1  0.28369979  0.77276019  0.49921143  1
  F  F18  1  0.22723981  0.71630021  0.00078857  1
  F  F19  1  0.99513901  0.72503359  0.78600187  1
  F  F20  1  0.21484014  0.49434780  0.77636741  1
  F  F21  1  0.49434780  0.21484014  0.27636741  1
  F  F22  1  0.72503359  0.99513901  0.28600187  1
  F  F23  1  0.71630021  0.22723981  0.50078857  1
  F  F24  1  0.46795156  0.53204844  0.25000000  1
  F  F25  1  0.74889328  0.96410358  0.96676943  1
  F  F26  1  0.03589642  0.25110672  0.53323057  1
  F  F27  1  0.25110672  0.03589642  0.03323057  1
  F  F28  1  0.96410358  0.74889328  0.46676943  1
  F  F29  1  0.53204844  0.46795156  0.75000000  1
loop_
_geom_bond_atom_site_label_1
_geom_bond_atom_site_label_2
_geom_bond_distance
_geom_bond_site_symmetry_2
F0 Zr1 2.097476 1_554
F0 Zr2 2.103602 1_555
F1 Zr3 2.046824 1_555
F1 Sc0 2.095816 1_655
F2 Zr0 2.053319 1_555
F2 Sc1 2.081085 1_555
F3 Zr3 2.053319 1_555
F3 Sc0 2.081085 1_555
F4 Zr0 2.046824 1_555
F4 Sc1 2.095816 1_565
F5 Zr2 2.097469 1_555
F5 Zr1 2.103610 1_555
F6 Zr3 2.097476 1_556
F6 Zr0 2.103602 1_555
F7 Zr1 2.046824 1_555
F7 Sc1 2.095816 1_455
F8 Zr2 2.053319 1_555
F8 Sc0 2.081085 1_555
F9 Zr1 2.053319 1_555
F9 Sc1 2.081085 1_555
F10 Zr2 2.046824 1_555
F10 Sc0 2.095816 1_545
F11 Zr0 2.097476 1_555
F11 Zr3 2.103602 1_555
F12 Tc0 1.928893 1_556
F12 Sc1 2.272785 1_555
F13 Tc0 1.947748 1_455
F13 Zr2 2.236766 1_555
F14 Tc0 1.946551 1_555
F14 Zr3 2.246479 1_555
F15 Tc1 1.946551 1_555
F15 Zr0 2.246479 1_555
F16 Tc1 1.947748 1_545
F16 Zr1 2.236767 1_555
F17 Tc1 1.928893 1_555
F17 Sc0 2.272785 1_555
F18 Tc1 1.928893 1_554
F18 Sc0 2.272785 1_555
F19 Tc1 1.947748 1_655
F19 Zr0 2.236766 1_555
F20 Tc1 1.946551 1_555
F20 Zr1 2.246479 1_555
F21 Tc0 1.946551 1_555
F21 Zr2 2.246479 1_555
F22 Tc0 1.947748 1_565
F22 Zr3 2.236767 1_555
F23 Tc0 1.928893 1_555
F23 Sc1 2.272785 1_555
F24 Zr2 2.105688 1_555
F24 Zr3 2.105688 1_555
F25 Zr3 2.038653 1_556
F25 Sc1 2.097955 1_565
F26 Zr2 2.038653 1_555
F26 Sc1 2.097955 1_455
F27 Zr1 2.038653 1_554
F27 Sc0 2.097955 1_545
F28 Zr0 2.038653 1_555
F28 Sc0 2.097955 1_655
F29 Zr0 2.105688 1_555
F29 Zr1 2.105688 1_555
