# generated using pymatgen
data_Sc29Fe6
_symmetry_space_group_name_H-M   'P 1'
_cell_length_a   14.35756100
_cell_length_b   14.35756100
_cell_length_c   14.35756100
_cell_angle_alpha   90.00000000
_cell_angle_beta   90.00000000
_cell_angle_gamma   90.00000000
_symmetry_Int_Tables_number   1
_chemical_formula_structural   Sc29Fe6
_chemical_formula_sum   'Sc116 Fe24'
_cell_volume   2959.66127661
_cell_formula_units_Z   4
loop_
 _symmetry_equiv_pos_site_id
 _symmetry_equiv_pos_as_xyz
  1  'x, y, z'
loop_
 _atom_site_type_symbol
 _atom_site_label
 _atom_site_symmetry_multiplicity
 _atom_site_fract_x
 _atom_site_fract_y
 _atom_site_fract_z
 _atom_site_occupancy
  Sc  Sc0  1  0.00000000  0.00000000  0.00000000  1
  Sc  Sc1  1  0.50000000  0.50000000  0.50000000  1
  Sc  Sc2  1  0.37507000  0.00000000  0.00000000  1
  Sc  Sc3  1  0.00000000  0.37507000  0.00000000  1
  Sc  Sc4  1  0.00000000  0.00000000  0.37507000  1
  Sc  Sc5  1  0.00000000  0.62493000  0.00000000  1
  Sc  Sc6  1  0.00000000  0.00000000  0.62493000  1
  Sc  Sc7  1  0.62493000  0.00000000  0.00000000  1
  Sc  Sc8  1  0.24971800  0.50000000  0.00000000  1
  Sc  Sc9  1  0.00000000  0.24971800  0.50000000  1
  Sc  Sc10  1  0.50000000  0.00000000  0.24971800  1
  Sc  Sc11  1  0.00000000  0.75028200  0.50000000  1
  Sc  Sc12  1  0.50000000  0.00000000  0.75028200  1
  Sc  Sc13  1  0.75028200  0.50000000  0.00000000  1
  Sc  Sc14  1  0.12453400  0.50000000  0.50000000  1
  Sc  Sc15  1  0.50000000  0.12453400  0.50000000  1
  Sc  Sc16  1  0.50000000  0.50000000  0.12453400  1
  Sc  Sc17  1  0.50000000  0.87546600  0.50000000  1
  Sc  Sc18  1  0.50000000  0.50000000  0.87546600  1
  Sc  Sc19  1  0.87546600  0.50000000  0.50000000  1
  Sc  Sc20  1  0.00000000  0.11210600  0.18773700  1
  Sc  Sc21  1  0.18773700  0.00000000  0.11210600  1
  Sc  Sc22  1  0.11210600  0.18773700  0.00000000  1
  Sc  Sc23  1  0.88789400  0.81226300  0.00000000  1
  Sc  Sc24  1  0.18773700  0.00000000  0.88789400  1
  Sc  Sc25  1  0.88789400  0.18773700  0.00000000  1
  Sc  Sc26  1  0.81226300  0.00000000  0.11210600  1
  Sc  Sc27  1  0.81226300  0.00000000  0.88789400  1
  Sc  Sc28  1  0.11210600  0.81226300  0.00000000  1
  Sc  Sc29  1  0.00000000  0.88789400  0.81226300  1
  Sc  Sc30  1  0.00000000  0.11210600  0.81226300  1
  Sc  Sc31  1  0.00000000  0.88789400  0.18773700  1
  Sc  Sc32  1  0.00000000  0.39432300  0.33448500  1
  Sc  Sc33  1  0.33448500  0.00000000  0.39432300  1
  Sc  Sc34  1  0.39432300  0.33448500  0.00000000  1
  Sc  Sc35  1  0.60567700  0.66551500  0.00000000  1
  Sc  Sc36  1  0.33448500  0.00000000  0.60567700  1
  Sc  Sc37  1  0.60567700  0.33448500  0.00000000  1
  Sc  Sc38  1  0.66551500  0.00000000  0.39432300  1
  Sc  Sc39  1  0.66551500  0.00000000  0.60567700  1
  Sc  Sc40  1  0.39432300  0.66551500  0.00000000  1
  Sc  Sc41  1  0.00000000  0.60567700  0.66551500  1
  Sc  Sc42  1  0.00000000  0.39432300  0.66551500  1
  Sc  Sc43  1  0.00000000  0.60567700  0.33448500  1
  Sc  Sc44  1  0.50000000  0.38825200  0.31107300  1
  Sc  Sc45  1  0.31107300  0.50000000  0.38825200  1
  Sc  Sc46  1  0.38825200  0.31107300  0.50000000  1
  Sc  Sc47  1  0.61174800  0.68892700  0.50000000  1
  Sc  Sc48  1  0.31107300  0.50000000  0.61174800  1
  Sc  Sc49  1  0.61174800  0.31107300  0.50000000  1
  Sc  Sc50  1  0.68892700  0.50000000  0.38825200  1
  Sc  Sc51  1  0.68892700  0.50000000  0.61174800  1
  Sc  Sc52  1  0.38825200  0.68892700  0.50000000  1
  Sc  Sc53  1  0.50000000  0.61174800  0.68892700  1
  Sc  Sc54  1  0.50000000  0.38825200  0.68892700  1
  Sc  Sc55  1  0.50000000  0.61174800  0.31107300  1
  Sc  Sc56  1  0.50000000  0.15249300  0.10571400  1
  Sc  Sc57  1  0.10571400  0.50000000  0.15249300  1
  Sc  Sc58  1  0.15249300  0.10571400  0.50000000  1
  Sc  Sc59  1  0.84750700  0.89428600  0.50000000  1
  Sc  Sc60  1  0.10571400  0.50000000  0.84750700  1
  Sc  Sc61  1  0.84750700  0.10571400  0.50000000  1
  Sc  Sc62  1  0.89428600  0.50000000  0.15249300  1
  Sc  Sc63  1  0.89428600  0.50000000  0.84750700  1
  Sc  Sc64  1  0.15249300  0.89428600  0.50000000  1
  Sc  Sc65  1  0.50000000  0.84750700  0.89428600  1
  Sc  Sc66  1  0.50000000  0.15249300  0.89428600  1
  Sc  Sc67  1  0.50000000  0.84750700  0.10571400  1
  Sc  Sc68  1  0.29241000  0.18365200  0.11260100  1
  Sc  Sc69  1  0.11260100  0.29241000  0.18365200  1
  Sc  Sc70  1  0.18365200  0.11260100  0.29241000  1
  Sc  Sc71  1  0.81634800  0.88739900  0.29241000  1
  Sc  Sc72  1  0.11260100  0.70759000  0.81634800  1
  Sc  Sc73  1  0.81634800  0.11260100  0.70759000  1
  Sc  Sc74  1  0.88739900  0.70759000  0.18365200  1
  Sc  Sc75  1  0.88739900  0.29241000  0.81634800  1
  Sc  Sc76  1  0.18365200  0.88739900  0.70759000  1
  Sc  Sc77  1  0.29241000  0.81634800  0.88739900  1
  Sc  Sc78  1  0.70759000  0.18365200  0.88739900  1
  Sc  Sc79  1  0.70759000  0.81634800  0.11260100  1
  Sc  Sc80  1  0.70759000  0.81634800  0.88739900  1
  Sc  Sc81  1  0.88739900  0.70759000  0.81634800  1
  Sc  Sc82  1  0.81634800  0.88739900  0.70759000  1
  Sc  Sc83  1  0.18365200  0.11260100  0.70759000  1
  Sc  Sc84  1  0.88739900  0.29241000  0.18365200  1
  Sc  Sc85  1  0.18365200  0.88739900  0.29241000  1
  Sc  Sc86  1  0.11260100  0.29241000  0.81634800  1
  Sc  Sc87  1  0.11260100  0.70759000  0.18365200  1
  Sc  Sc88  1  0.81634800  0.11260100  0.29241000  1
  Sc  Sc89  1  0.70759000  0.18365200  0.11260100  1
  Sc  Sc90  1  0.29241000  0.81634800  0.11260100  1
  Sc  Sc91  1  0.29241000  0.18365200  0.88739900  1
  Sc  Sc92  1  0.20085300  0.30752300  0.38825400  1
  Sc  Sc93  1  0.38825400  0.20085300  0.30752300  1
  Sc  Sc94  1  0.30752300  0.38825400  0.20085300  1
  Sc  Sc95  1  0.69247700  0.61174600  0.20085300  1
  Sc  Sc96  1  0.38825400  0.79914700  0.69247700  1
  Sc  Sc97  1  0.69247700  0.38825400  0.79914700  1
  Sc  Sc98  1  0.61174600  0.79914700  0.30752300  1
  Sc  Sc99  1  0.61174600  0.20085300  0.69247700  1
  Sc  Sc100  1  0.30752300  0.61174600  0.79914700  1
  Sc  Sc101  1  0.20085300  0.69247700  0.61174600  1
  Sc  Sc102  1  0.79914700  0.30752300  0.61174600  1
  Sc  Sc103  1  0.79914700  0.69247700  0.38825400  1
  Sc  Sc104  1  0.79914700  0.69247700  0.61174600  1
  Sc  Sc105  1  0.61174600  0.79914700  0.69247700  1
  Sc  Sc106  1  0.69247700  0.61174600  0.79914700  1
  Sc  Sc107  1  0.30752300  0.38825400  0.79914700  1
  Sc  Sc108  1  0.61174600  0.20085300  0.30752300  1
  Sc  Sc109  1  0.30752300  0.61174600  0.20085300  1
  Sc  Sc110  1  0.38825400  0.20085300  0.69247700  1
  Sc  Sc111  1  0.38825400  0.79914700  0.30752300  1
  Sc  Sc112  1  0.69247700  0.38825400  0.20085300  1
  Sc  Sc113  1  0.79914700  0.30752300  0.38825400  1
  Sc  Sc114  1  0.20085300  0.69247700  0.38825400  1
  Sc  Sc115  1  0.20085300  0.30752300  0.61174600  1
  Fe  Fe0  1  0.00000000  0.20094500  0.32887600  1
  Fe  Fe1  1  0.32887600  0.00000000  0.20094500  1
  Fe  Fe2  1  0.20094500  0.32887600  0.00000000  1
  Fe  Fe3  1  0.79905500  0.67112400  0.00000000  1
  Fe  Fe4  1  0.32887600  0.00000000  0.79905500  1
  Fe  Fe5  1  0.79905500  0.32887600  0.00000000  1
  Fe  Fe6  1  0.67112400  0.00000000  0.20094500  1
  Fe  Fe7  1  0.67112400  0.00000000  0.79905500  1
  Fe  Fe8  1  0.20094500  0.67112400  0.00000000  1
  Fe  Fe9  1  0.00000000  0.79905500  0.67112400  1
  Fe  Fe10  1  0.00000000  0.20094500  0.67112400  1
  Fe  Fe11  1  0.00000000  0.79905500  0.32887600  1
  Fe  Fe12  1  0.50000000  0.30572700  0.16799000  1
  Fe  Fe13  1  0.16799000  0.50000000  0.30572700  1
  Fe  Fe14  1  0.30572700  0.16799000  0.50000000  1
  Fe  Fe15  1  0.69427300  0.83201000  0.50000000  1
  Fe  Fe16  1  0.16799000  0.50000000  0.69427300  1
  Fe  Fe17  1  0.69427300  0.16799000  0.50000000  1
  Fe  Fe18  1  0.83201000  0.50000000  0.30572700  1
  Fe  Fe19  1  0.83201000  0.50000000  0.69427300  1
  Fe  Fe20  1  0.30572700  0.83201000  0.50000000  1
  Fe  Fe21  1  0.50000000  0.69427300  0.83201000  1
  Fe  Fe22  1  0.50000000  0.30572700  0.83201000  1
  Fe  Fe23  1  0.50000000  0.69427300  0.16799000  1
loop_
_geom_bond_atom_site_label_1
_geom_bond_atom_site_label_2
_geom_bond_distance
_geom_bond_site_symmetry_2
Sc0 Sc20 3.139449 1_555
Sc0 Sc22 3.139449 1_555
Sc0 Sc21 3.139449 1_555
Sc0 Sc26 3.139449 1_455
Sc0 Sc31 3.139449 1_545
Sc0 Sc28 3.139449 1_545
Sc0 Sc30 3.139449 1_554
Sc0 Sc24 3.139449 1_554
Sc0 Sc25 3.139449 1_455
Sc0 Sc29 3.139449 1_544
Sc0 Sc27 3.139449 1_454
Sc0 Sc23 3.139449 1_445
Sc1 Sc53 3.151510 1_555
Sc1 Sc47 3.151510 1_555
Sc1 Sc51 3.151510 1_555
Sc1 Sc52 3.151510 1_555
Sc1 Sc50 3.151510 1_555
Sc1 Sc54 3.151510 1_555
Sc1 Sc49 3.151510 1_555
Sc1 Sc55 3.151510 1_555
Sc1 Sc48 3.151510 1_555
Sc1 Sc46 3.151510 1_555
Sc1 Sc44 3.151510 1_555
Sc1 Sc45 3.151510 1_555
Fe0 Sc20 2.394426 1_555
Fe0 Sc9 2.554768 1_555
Fe0 Sc32 2.777604 1_555
Fe0 Sc84 2.947144 1_455
Fe0 Sc69 2.947144 1_555
Fe0 Sc4 2.960332 1_555
Fe0 Sc70 2.972483 1_555
Fe0 Sc88 2.972483 1_455
Fe1 Sc21 2.394426 1_555
Fe1 Sc10 2.554768 1_555
Fe1 Sc33 2.777604 1_555
Fe1 Sc85 2.947144 1_545
Fe1 Sc70 2.947144 1_555
Fe1 Sc2 2.960332 1_555
Fe1 Sc68 2.972483 1_555
Fe1 Sc90 2.972483 1_545
Fe2 Sc22 2.394426 1_555
Fe2 Sc8 2.554768 1_555
Fe2 Sc34 2.777604 1_555
Fe2 Sc91 2.947144 1_554
Fe2 Sc68 2.947144 1_555
Fe2 Sc3 2.960332 1_555
Fe2 Sc86 2.972483 1_554
Fe2 Sc69 2.972483 1_555
Fe3 Sc23 2.394426 1_555
Fe3 Sc13 2.554768 1_555
Fe3 Sc35 2.777604 1_555
Fe3 Sc80 2.947144 1_554
Fe3 Sc79 2.947144 1_555
Fe3 Sc5 2.960332 1_655
Fe3 Sc74 2.972483 1_555
Fe3 Sc81 2.972483 1_554
Fe4 Sc24 2.394426 1_555
Fe4 Sc12 2.554768 1_555
Fe4 Sc36 2.777604 1_555
Fe4 Sc76 2.947144 1_545
Fe4 Sc83 2.947144 1_555
Fe4 Sc2 2.960332 1_556
Fe4 Sc91 2.972483 1_555
Fe4 Sc77 2.972483 1_545
Fe5 Sc25 2.394426 1_555
Fe5 Sc13 2.554768 1_555
Fe5 Sc37 2.777604 1_555
Fe5 Sc78 2.947144 1_554
Fe5 Sc89 2.947144 1_555
Fe5 Sc3 2.960332 1_655
Fe5 Sc84 2.972483 1_555
Fe5 Sc75 2.972483 1_554
Fe6 Sc26 2.394426 1_555
Fe6 Sc10 2.554768 1_555
Fe6 Sc38 2.777604 1_555
Fe6 Sc71 2.947144 1_545
Fe6 Sc88 2.947144 1_555
Fe6 Sc7 2.960332 1_555
Fe6 Sc89 2.972483 1_555
Fe6 Sc79 2.972483 1_545
Fe7 Sc27 2.394426 1_555
Fe7 Sc12 2.554768 1_555
Fe7 Sc39 2.777604 1_555
Fe7 Sc82 2.947144 1_545
Fe7 Sc73 2.947144 1_555
Fe7 Sc7 2.960332 1_556
Fe7 Sc78 2.972483 1_555
Fe7 Sc80 2.972483 1_545
Fe8 Sc28 2.394426 1_555
Fe8 Sc8 2.554768 1_555
Fe8 Sc40 2.777604 1_555
Fe8 Sc77 2.947144 1_554
Fe8 Sc90 2.947144 1_555
Fe8 Sc5 2.960332 1_555
Fe8 Sc72 2.972483 1_554
Fe8 Sc87 2.972483 1_555
Fe9 Sc29 2.394426 1_555
Fe9 Sc11 2.554768 1_555
Fe9 Sc41 2.777604 1_555
Fe9 Sc81 2.947144 1_455
Fe9 Sc72 2.947144 1_555
Fe9 Sc6 2.960332 1_565
Fe9 Sc76 2.972483 1_555
Fe9 Sc82 2.972483 1_455
Fe10 Sc30 2.394426 1_555
Fe10 Sc9 2.554768 1_555
Fe10 Sc42 2.777604 1_555
Fe10 Sc75 2.947144 1_455
Fe10 Sc86 2.947144 1_555
Fe10 Sc6 2.960332 1_555
Fe10 Sc73 2.972483 1_455
Fe10 Sc83 2.972483 1_555
Fe11 Sc31 2.394426 1_555
Fe11 Sc11 2.554768 1_555
Fe11 Sc43 2.777604 1_555
Fe11 Sc74 2.947144 1_455
Fe11 Sc87 2.947144 1_555
Fe11 Sc4 2.960332 1_565
Fe11 Sc85 2.972483 1_555
Fe11 Sc71 2.972483 1_455
Fe12 Sc44 2.371525 1_555
Fe12 Sc56 2.374819 1_555
Fe12 Sc16 2.858216 1_555
Fe12 Sc37 2.879229 1_555
Fe12 Sc34 2.879229 1_555
Fe12 Sc93 2.975695 1_555
Fe12 Sc108 2.975695 1_555
Fe12 Sc94 3.043602 1_555
Fe12 Sc112 3.043602 1_555
Fe13 Sc45 2.371525 1_555
Fe13 Sc57 2.374819 1_555
Fe13 Sc14 2.858216 1_555
Fe13 Sc43 2.879229 1_555
Fe13 Sc32 2.879229 1_555
Fe13 Sc109 2.975695 1_555
Fe13 Sc94 2.975695 1_555
Fe13 Sc114 3.043602 1_555
Fe13 Sc92 3.043602 1_555
Fe14 Sc46 2.371525 1_555
Fe14 Sc58 2.374819 1_555
Fe14 Sc15 2.858216 1_555
Fe14 Sc33 2.879229 1_555
Fe14 Sc36 2.879229 1_555
Fe14 Sc92 2.975695 1_555
Fe14 Sc115 2.975695 1_555
Fe14 Sc93 3.043602 1_555
Fe14 Sc110 3.043602 1_555
Fe15 Sc47 2.371525 1_555
Fe15 Sc59 2.374819 1_555
Fe15 Sc17 2.858216 1_555
Fe15 Sc38 2.879229 1_565
Fe15 Sc39 2.879229 1_565
Fe15 Sc103 2.975695 1_555
Fe15 Sc104 2.975695 1_555
Fe15 Sc98 3.043602 1_555
Fe15 Sc105 3.043602 1_555
Fe16 Sc48 2.371525 1_555
Fe16 Sc60 2.374819 1_555
Fe16 Sc14 2.858216 1_555
Fe16 Sc41 2.879229 1_555
Fe16 Sc42 2.879229 1_555
Fe16 Sc100 2.975695 1_555
Fe16 Sc107 2.975695 1_555
Fe16 Sc101 3.043602 1_555
Fe16 Sc115 3.043602 1_555
Fe17 Sc49 2.371525 1_555
Fe17 Sc61 2.374819 1_555
Fe17 Sc15 2.858216 1_555
Fe17 Sc38 2.879229 1_555
Fe17 Sc39 2.879229 1_555
Fe17 Sc102 2.975695 1_555
Fe17 Sc113 2.975695 1_555
Fe17 Sc108 3.043602 1_555
Fe17 Sc99 3.043602 1_555
Fe18 Sc50 2.371525 1_555
Fe18 Sc62 2.374819 1_555
Fe18 Sc19 2.858216 1_555
Fe18 Sc43 2.879229 1_655
Fe18 Sc32 2.879229 1_655
Fe18 Sc95 2.975695 1_555
Fe18 Sc112 2.975695 1_555
Fe18 Sc103 3.043602 1_555
Fe18 Sc113 3.043602 1_555
Fe19 Sc51 2.371525 1_555
Fe19 Sc63 2.374819 1_555
Fe19 Sc19 2.858216 1_555
Fe19 Sc41 2.879229 1_655
Fe19 Sc42 2.879229 1_655
Fe19 Sc106 2.975695 1_555
Fe19 Sc97 2.975695 1_555
Fe19 Sc104 3.043602 1_555
Fe19 Sc102 3.043602 1_555
Fe20 Sc52 2.371525 1_555
Fe20 Sc64 2.374819 1_555
Fe20 Sc17 2.858216 1_555
Fe20 Sc36 2.879229 1_565
Fe20 Sc33 2.879229 1_565
Fe20 Sc101 2.975695 1_555
Fe20 Sc114 2.975695 1_555
Fe20 Sc111 3.043602 1_555
Fe20 Sc96 3.043602 1_555
Fe21 Sc53 2.371525 1_555
Fe21 Sc65 2.374819 1_555
Fe21 Sc18 2.858216 1_555
Fe21 Sc40 2.879229 1_556
Fe21 Sc35 2.879229 1_556
Fe21 Sc96 2.975695 1_555
Fe21 Sc105 2.975695 1_555
Fe21 Sc106 3.043602 1_555
Fe21 Sc100 3.043602 1_555
Fe22 Sc54 2.371525 1_555
Fe22 Sc66 2.374819 1_555
Fe22 Sc18 2.858216 1_555
Fe22 Sc34 2.879229 1_556
Fe22 Sc37 2.879229 1_556
Fe22 Sc99 2.975695 1_555
Fe22 Sc110 2.975695 1_555
Fe22 Sc107 3.043602 1_555
Fe22 Sc97 3.043602 1_555
Fe23 Sc55 2.371525 1_555
Fe23 Sc67 2.374819 1_555
Fe23 Sc16 2.858216 1_555
Fe23 Sc40 2.879229 1_555
Fe23 Sc35 2.879229 1_555
Fe23 Sc98 2.975695 1_555
Fe23 Sc111 2.975695 1_555
Fe23 Sc95 3.043602 1_555
Fe23 Sc109 3.043602 1_555
