# generated using pymatgen
data_Hf2Zr3BSb3
_symmetry_space_group_name_H-M   'P 1'
_cell_length_a   8.44983462
_cell_length_b   8.44983481
_cell_length_c   5.76860868
_cell_angle_alpha   90.00000000
_cell_angle_beta   90.00000000
_cell_angle_gamma   120.09056253
_symmetry_Int_Tables_number   1
_chemical_formula_structural   Hf2Zr3BSb3
_chemical_formula_sum   'Hf4 Zr6 B2 Sb6'
_cell_volume   356.36996304
_cell_formula_units_Z   2
loop_
 _symmetry_equiv_pos_site_id
 _symmetry_equiv_pos_as_xyz
  1  'x, y, z'
loop_
 _atom_site_type_symbol
 _atom_site_label
 _atom_site_symmetry_multiplicity
 _atom_site_fract_x
 _atom_site_fract_y
 _atom_site_fract_z
 _atom_site_occupancy
  Hf  Hf0  1  0.77018015  0.77018015  0.75000000  1
  Hf  Hf1  1  0.23115736  0.00108291  0.75000000  1
  Hf  Hf2  1  0.00108291  0.23115736  0.75000000  1
  Hf  Hf3  1  0.23005439  0.23005439  0.25000000  1
  Zr  Zr0  1  0.66651647  0.33331300  0.00002748  1
  Zr  Zr1  1  0.33331300  0.66651647  0.00002748  1
  Zr  Zr2  1  0.33331300  0.66651647  0.49997252  1
  Zr  Zr3  1  0.66651647  0.33331300  0.49997252  1
  Zr  Zr4  1  0.76577724  0.99979302  0.25000000  1
  Zr  Zr5  1  0.99979302  0.76577724  0.25000000  1
  B  B0  1  0.00116882  0.00116882  0.99787794  1
  B  B1  1  0.00116882  0.00116882  0.50212206  1
  Sb  Sb0  1  0.40000824  0.40000824  0.75000000  1
  Sb  Sb1  1  0.60112370  0.00011986  0.75000000  1
  Sb  Sb2  1  0.00011986  0.60112370  0.75000000  1
  Sb  Sb3  1  0.59985074  0.59985074  0.25000000  1
  Sb  Sb4  1  0.39810464  0.00075017  0.25000000  1
  Sb  Sb5  1  0.00075017  0.39810464  0.25000000  1
loop_
_geom_bond_atom_site_label_1
_geom_bond_atom_site_label_2
_geom_bond_distance
_geom_bond_site_symmetry_2
Hf0 Sb2 2.932367 1_655
Hf0 Sb1 2.932367 1_565
Hf0 Sb0 3.123609 1_555
Hf0 Sb3 3.222576 1_556
Hf0 Sb3 3.222576 1_555
Hf1 Sb0 2.928436 1_555
Hf1 Sb2 2.935479 1_545
Hf1 Sb1 3.130242 1_555
Hf1 Sb4 3.211418 1_556
Hf1 Sb4 3.211418 1_555
Hf2 Sb0 2.928435 1_555
Hf2 Sb1 2.935479 1_455
Hf2 Sb2 3.130242 1_555
Hf2 Sb5 3.211418 1_556
Hf2 Sb5 3.211418 1_555
Hf3 Sb5 2.920532 1_555
Hf3 Sb4 2.920532 1_555
Hf3 Sb3 3.120440 1_555
Hf3 Sb0 3.221164 1_554
Hf3 Sb0 3.221164 1_555
B0 Hf1 2.413033 1_555
B0 Hf2 2.413033 1_555
B0 Hf0 2.417397 1_445
B0 Hf3 2.417758 1_556
B0 Zr4 2.459351 1_446
B0 Zr5 2.459351 1_446
B1 Hf1 2.413033 1_555
B1 Hf2 2.413033 1_555
B1 Hf0 2.417397 1_445
B1 Hf3 2.417758 1_555
B1 Zr4 2.459351 1_445
B1 Zr5 2.459351 1_445
Sb0 Zr0 2.956643 1_556
Sb0 Zr3 2.956643 1_555
Sb0 Zr1 2.956643 1_556
Sb0 Zr2 2.956643 1_555
Sb1 Zr1 2.958193 1_546
Sb1 Zr2 2.958193 1_545
Sb1 Zr0 2.958423 1_556
Sb1 Zr3 2.958423 1_555
Sb1 Zr4 3.202932 1_546
Sb1 Zr4 3.202932 1_545
Sb2 Zr0 2.958193 1_456
Sb2 Zr3 2.958193 1_455
Sb2 Zr1 2.958423 1_556
Sb2 Zr2 2.958423 1_555
Sb2 Zr5 3.202932 1_456
Sb2 Zr5 3.202932 1_455
Sb3 Zr5 2.938585 1_555
Sb3 Zr4 2.938585 1_555
Sb3 Zr2 2.956559 1_555
Sb3 Zr1 2.956559 1_555
Sb3 Zr3 2.956559 1_555
Sb3 Zr0 2.956559 1_555
Sb4 Zr5 2.927302 1_445
Sb4 Zr3 2.954513 1_555
Sb4 Zr0 2.954513 1_555
Sb4 Zr2 2.967299 1_545
Sb4 Zr1 2.967299 1_545
Sb4 Zr4 3.110836 1_545
Sb5 Zr4 2.927302 1_445
Sb5 Zr2 2.954513 1_555
Sb5 Zr1 2.954513 1_555
Sb5 Zr3 2.967299 1_455
Sb5 Zr0 2.967299 1_455
Sb5 Zr5 3.110836 1_455
