# generated using pymatgen
data_Cs6MoAs4
_symmetry_space_group_name_H-M   'P 1'
_cell_length_a   11.01818171
_cell_length_b   11.01818191
_cell_length_c   8.96458545
_cell_angle_alpha   89.98964991
_cell_angle_beta   89.98964745
_cell_angle_gamma   120.02241789
_symmetry_Int_Tables_number   1
_chemical_formula_structural   Cs6MoAs4
_chemical_formula_sum   'Cs12 Mo2 As8'
_cell_volume   942.28555339
_cell_formula_units_Z   2
loop_
 _symmetry_equiv_pos_site_id
 _symmetry_equiv_pos_as_xyz
  1  'x, y, z'
loop_
 _atom_site_type_symbol
 _atom_site_label
 _atom_site_symmetry_multiplicity
 _atom_site_fract_x
 _atom_site_fract_y
 _atom_site_fract_z
 _atom_site_occupancy
  Cs  Cs0  1  0.46435149  0.53553619  0.49696705  1
  Cs  Cs1  1  0.07080911  0.53536905  0.49752018  1
  Cs  Cs2  1  0.53553619  0.46435149  0.99696705  1
  Cs  Cs3  1  0.53536905  0.07080911  0.99752018  1
  Cs  Cs4  1  0.85304733  0.14653993  0.68157120  1
  Cs  Cs5  1  0.29327181  0.14646485  0.68198373  1
  Cs  Cs6  1  0.85381560  0.70744841  0.68107712  1
  Cs  Cs7  1  0.14653993  0.85304733  0.18157120  1
  Cs  Cs8  1  0.70744841  0.85381560  0.18107712  1
  Cs  Cs9  1  0.14646485  0.29327181  0.18198373  1
  Cs  Cs10  1  0.46441195  0.92865835  0.49677061  1
  Cs  Cs11  1  0.92865835  0.46441195  0.99677061  1
  Mo  Mo0  1  0.66656192  0.33345385  0.39294383  1
  Mo  Mo1  1  0.33345385  0.66656192  0.89294383  1
  As  As0  1  0.66685734  0.33367531  0.66100336  1
  As  As1  1  0.33367531  0.66685734  0.16100336  1
  As  As2  1  0.78657617  0.21340448  0.30824603  1
  As  As3  1  0.42629954  0.21310694  0.30816284  1
  As  As4  1  0.78666989  0.57366950  0.30804005  1
  As  As5  1  0.21340448  0.78657617  0.80824603  1
  As  As6  1  0.57366950  0.78666989  0.80804005  1
  As  As7  1  0.21310694  0.42629954  0.80816284  1
loop_
_geom_bond_atom_site_label_1
_geom_bond_atom_site_label_2
_geom_bond_distance
_geom_bond_site_symmetry_2
As0 Mo0 2.403045 1_555
As0 Cs4 3.567454 1_555
As0 Cs5 3.568859 1_555
As0 Cs6 3.570341 1_555
As0 Cs11 3.911859 1_555
As0 Cs2 3.914349 1_555
As0 Cs3 3.922315 1_555
As0 Cs1 4.122493 1_655
As0 Cs0 4.129607 1_555
As0 Cs10 4.135237 1_545
As1 Mo1 2.403045 1_554
As1 Cs7 3.567454 1_555
As1 Cs9 3.568859 1_555
As1 Cs8 3.570341 1_555
As1 Cs10 3.911859 1_555
As1 Cs0 3.914350 1_555
As1 Cs1 3.922314 1_555
As1 Cs3 4.122493 1_564
As1 Cs2 4.129607 1_554
As1 Cs11 4.135237 1_454
As2 Mo0 2.413497 1_555
As2 Cs4 3.580437 1_555
As2 Cs3 3.679860 1_554
As2 Cs11 3.682297 1_554
As2 Cs10 3.761816 1_545
As2 Cs1 3.762727 1_655
As2 Cs9 3.779619 1_655
As2 Cs8 3.781892 1_545
As3 Mo0 2.415021 1_555
As3 Cs5 3.583025 1_555
As3 Cs3 3.680113 1_554
As3 Cs2 3.681906 1_554
As3 Cs10 3.764714 1_545
As3 Cs0 3.764747 1_555
As3 Cs9 3.780517 1_555
As3 Cs7 3.780733 1_545
As4 Mo0 2.414492 1_555
As4 Cs6 3.579750 1_555
As4 Cs2 3.681397 1_554
As4 Cs11 3.683378 1_554
As4 Cs0 3.763189 1_555
As4 Cs1 3.766742 1_655
As4 Cs7 3.777078 1_655
As4 Cs8 3.778927 1_555
As5 Mo1 2.413497 1_555
As5 Cs7 3.580437 1_556
As5 Cs1 3.679860 1_555
As5 Cs10 3.682297 1_555
As5 Cs11 3.761816 1_455
As5 Cs3 3.762727 1_565
As5 Cs5 3.779619 1_565
As5 Cs6 3.781892 1_455
As6 Mo1 2.414492 1_555
As6 Cs8 3.579750 1_556
As6 Cs0 3.681397 1_555
As6 Cs10 3.683378 1_555
As6 Cs2 3.763189 1_555
As6 Cs3 3.766742 1_565
As6 Cs4 3.777078 1_565
As6 Cs6 3.778927 1_555
As7 Mo1 2.415021 1_555
As7 Cs9 3.583025 1_556
As7 Cs1 3.680113 1_555
As7 Cs0 3.681906 1_555
As7 Cs11 3.764714 1_455
As7 Cs2 3.764747 1_555
As7 Cs5 3.780517 1_555
As7 Cs4 3.780733 1_455
