# generated using pymatgen
data_Cs3K2As2Pt
_symmetry_space_group_name_H-M   'P 1'
_cell_length_a   5.90969780
_cell_length_b   5.90969595
_cell_length_c   20.45788227
_cell_angle_alpha   90.00000000
_cell_angle_beta   90.00000000
_cell_angle_gamma   119.99999971
_symmetry_Int_Tables_number   1
_chemical_formula_structural   Cs3K2As2Pt
_chemical_formula_sum   'Cs6 K4 As4 Pt2'
_cell_volume   618.75926979
_cell_formula_units_Z   2
loop_
 _symmetry_equiv_pos_site_id
 _symmetry_equiv_pos_as_xyz
  1  'x, y, z'
loop_
 _atom_site_type_symbol
 _atom_site_label
 _atom_site_symmetry_multiplicity
 _atom_site_fract_x
 _atom_site_fract_y
 _atom_site_fract_z
 _atom_site_occupancy
  Cs  Cs0  1  0.33333300  0.66666700  0.54904612  1
  Cs  Cs1  1  0.66666700  0.33333300  0.04904612  1
  Cs  Cs2  1  0.66666700  0.33333300  0.45095388  1
  Cs  Cs3  1  0.33333300  0.66666700  0.95095388  1
  Cs  Cs4  1  0.33333300  0.66666700  0.75000000  1
  Cs  Cs5  1  0.66666700  0.33333300  0.25000000  1
  K  K0  1  0.00000000  0.00000000  0.15932674  1
  K  K1  1  0.00000000  0.00000000  0.65932674  1
  K  K2  1  0.00000000  0.00000000  0.84067326  1
  K  K3  1  0.00000000  0.00000000  0.34067326  1
  As  As0  1  0.33333300  0.66666700  0.36820827  1
  As  As1  1  0.66666700  0.33333300  0.86820827  1
  As  As2  1  0.66666700  0.33333300  0.63179173  1
  As  As3  1  0.33333300  0.66666700  0.13179173  1
  Pt  Pt0  1  0.33333300  0.66666700  0.25000000  1
  Pt  Pt1  1  0.66666700  0.33333300  0.75000000  1
loop_
_geom_bond_atom_site_label_1
_geom_bond_atom_site_label_2
_geom_bond_distance
_geom_bond_site_symmetry_2
Cs4 Pt1 3.411961 1_565
Cs4 Pt1 3.411962 1_455
Cs4 Pt1 3.411972 1_555
Cs5 Pt0 3.411961 1_545
Cs5 Pt0 3.411962 1_655
Cs5 Pt0 3.411972 1_555
As0 Pt0 2.418291 1_555
As0 K3 3.458150 1_565
As0 K3 3.458154 1_555
As0 K3 3.458155 1_665
As0 Cs0 3.699559 1_555
As0 Cs2 3.808812 1_565
As0 Cs2 3.808813 1_455
As0 Cs2 3.808822 1_555
As1 Pt1 2.418291 1_555
As1 K2 3.458150 1_655
As1 K2 3.458154 1_665
As1 K2 3.458155 1_555
As1 Cs1 3.699559 1_556
As1 Cs3 3.808812 1_545
As1 Cs3 3.808813 1_655
As1 Cs3 3.808822 1_555
As2 Pt1 2.418291 1_555
As2 K1 3.458150 1_655
As2 K1 3.458154 1_665
As2 K1 3.458155 1_555
As2 Cs2 3.699559 1_555
As2 Cs0 3.808812 1_545
As2 Cs0 3.808813 1_655
As2 Cs0 3.808822 1_555
As3 Pt0 2.418291 1_555
As3 K0 3.458150 1_565
As3 K0 3.458154 1_555
As3 K0 3.458155 1_665
As3 Cs3 3.699559 1_554
As3 Cs1 3.808812 1_565
As3 Cs1 3.808813 1_455
As3 Cs1 3.808822 1_555
