# generated using pymatgen
data_Lu12ZnGaNi4
_symmetry_space_group_name_H-M   'P 1'
_cell_length_a   8.05282384
_cell_length_b   8.05282402
_cell_length_c   8.05282319
_cell_angle_alpha   111.56207449
_cell_angle_beta   109.69050243
_cell_angle_gamma   107.19062217
_symmetry_Int_Tables_number   1
_chemical_formula_structural   Lu12ZnGaNi4
_chemical_formula_sum   'Lu12 Zn1 Ga1 Ni4'
_cell_volume   401.40980579
_cell_formula_units_Z   1
loop_
 _symmetry_equiv_pos_site_id
 _symmetry_equiv_pos_as_xyz
  1  'x, y, z'
loop_
 _atom_site_type_symbol
 _atom_site_label
 _atom_site_symmetry_multiplicity
 _atom_site_fract_x
 _atom_site_fract_y
 _atom_site_fract_z
 _atom_site_occupancy
  Lu  Lu0  1  0.43208111  0.23503870  0.19704241  1
  Lu  Lu1  1  0.56791889  0.76496130  0.80295759  1
  Lu  Lu2  1  0.03799629  0.23503870  0.80295759  1
  Lu  Lu3  1  0.96200371  0.76496130  0.19704241  1
  Lu  Lu4  1  0.18052918  0.28123546  0.46176365  1
  Lu  Lu5  1  0.81947082  0.71876454  0.53823635  1
  Lu  Lu6  1  0.18052918  0.71876454  0.89929372  1
  Lu  Lu7  1  0.81947082  0.28123546  0.10070628  1
  Lu  Lu8  1  0.32655105  0.63040918  0.30385813  1
  Lu  Lu9  1  0.67344895  0.36959082  0.69614187  1
  Lu  Lu10  1  0.32655105  0.02269292  0.69614187  1
  Lu  Lu11  1  0.67344895  0.97730708  0.30385813  1
  Zn  Zn0  1  0.00000000  0.00000000  0.00000000  1
  Ga  Ga0  1  0.50000000  0.50000000  0.00000000  1
  Ni  Ni0  1  0.35082194  0.00000000  0.35082194  1
  Ni  Ni1  1  0.64917806  1.00000000  0.64917806  1
  Ni  Ni2  1  0.12081455  0.62081455  0.50000000  1
  Ni  Ni3  1  0.87918545  0.37918545  0.50000000  1
loop_
_geom_bond_atom_site_label_1
_geom_bond_atom_site_label_2
_geom_bond_distance
_geom_bond_site_symmetry_2
Lu0 Ni0 2.660995 1_555
Lu0 Zn0 2.895878 1_555
Lu0 Ni3 3.129123 1_555
Lu1 Ni1 2.660995 1_555
Lu1 Zn0 2.895878 1_666
Lu1 Ni2 3.129123 1_555
Lu2 Ni1 2.660996 1_445
Lu2 Zn0 2.895878 1_556
Lu2 Ni3 3.129123 1_455
Lu3 Ni0 2.660996 1_665
Lu3 Zn0 2.895878 1_665
Lu3 Ni2 3.129123 1_655
Lu4 Ni2 2.839384 1_555
Lu4 Ni3 2.839388 1_455
Lu4 Ni0 2.996999 1_555
Lu4 Zn0 3.048081 1_555
Lu5 Ni3 2.839384 1_555
Lu5 Ni2 2.839388 1_655
Lu5 Ni1 2.996999 1_555
Lu5 Zn0 3.048081 1_666
Lu6 Ni2 2.839385 1_555
Lu6 Ni3 2.839385 1_455
Lu6 Ni0 2.997000 1_566
Lu6 Zn0 3.048087 1_566
Lu7 Ni3 2.839385 1_555
Lu7 Ni2 2.839385 1_655
Lu7 Ni1 2.997000 1_544
Lu7 Zn0 3.048087 1_655
Lu8 Ni2 2.650113 1_555
Lu8 Ni0 2.796123 1_565
Lu8 Ni1 2.796123 1_555
Lu9 Ni3 2.650113 1_555
Lu9 Ni1 2.796123 1_545
Lu9 Ni0 2.796123 1_555
Lu10 Ni2 2.650113 1_545
Lu10 Ni0 2.796122 1_555
Lu10 Ni1 2.796123 1_545
Lu11 Ni3 2.650113 1_565
Lu11 Ni1 2.796122 1_555
Lu11 Ni0 2.796123 1_565
Ga0 Lu1 3.122985 1_554
Ga0 Lu0 3.122985 1_555
Ga0 Lu3 3.122985 1_555
Ga0 Lu2 3.122985 1_554
Ga0 Lu8 3.212880 1_555
Ga0 Lu9 3.212880 1_554
Ga0 Lu11 3.212880 1_555
Ga0 Lu10 3.212880 1_554
Ga0 Lu7 3.564096 1_555
Ga0 Lu6 3.564096 1_554
Ga0 Lu5 3.564102 1_555
Ga0 Lu4 3.564102 1_554
Ni2 Ni3 2.309601 1_455
