# generated using pymatgen
data_K2Ga(GePd2)3
_symmetry_space_group_name_H-M   'P 1'
_cell_length_a   6.97858795
_cell_length_b   6.95840067
_cell_length_c   6.97858672
_cell_angle_alpha   129.13749277
_cell_angle_beta   117.32869643
_cell_angle_gamma   84.91067938
_symmetry_Int_Tables_number   1
_chemical_formula_structural   K2Ga(GePd2)3
_chemical_formula_sum   'K2 Ga1 Ge3 Pd6'
_cell_volume   223.34689474
_cell_formula_units_Z   1
loop_
 _symmetry_equiv_pos_site_id
 _symmetry_equiv_pos_as_xyz
  1  'x, y, z'
loop_
 _atom_site_type_symbol
 _atom_site_label
 _atom_site_symmetry_multiplicity
 _atom_site_fract_x
 _atom_site_fract_y
 _atom_site_fract_z
 _atom_site_occupancy
  K  K0  1  0.00053834  0.98099716  0.98045882  1
  K  K1  1  0.50001351  0.02904321  0.52902970  1
  Ga  Ga0  1  0.33906421  0.38852695  0.04946173  1
  Ge  Ge0  1  0.81759782  0.25984786  0.44224904  1
  Ge  Ge1  1  0.65535334  0.70122382  0.04587048  1
  Ge  Ge2  1  0.18630158  0.62582076  0.43951818  1
  Pd  Pd0  1  0.95347041  0.50111335  0.95436741  1
  Pd  Pd1  1  0.54674494  0.50111335  0.54764194  1
  Pd  Pd2  1  0.04115118  0.99979494  0.54124585  1
  Pd  Pd3  1  0.77893561  0.49886433  0.27658736  1
  Pd  Pd4  1  0.22227597  0.49886433  0.71992672  1
  Pd  Pd5  1  0.45855009  0.99979494  0.95864376  1
loop_
_geom_bond_atom_site_label_1
_geom_bond_atom_site_label_2
_geom_bond_distance
_geom_bond_site_symmetry_2
K0 Pd0 3.265518 1_455
K0 Pd1 3.265521 1_455
K0 Pd2 3.286717 1_555
K0 Pd5 3.286725 1_555
K0 Pd4 3.304171 1_555
K0 Pd3 3.304173 1_455
K0 Pd4 3.491789 1_566
K0 Pd3 3.491798 1_466
K0 K1 3.640849 1_566
K0 K1 3.640849 1_465
K1 Pd0 3.244384 1_555
K1 Pd1 3.244387 1_555
K1 Pd5 3.269710 1_545
K1 Pd2 3.269714 1_545
K1 Pd3 3.459458 1_556
K1 Pd4 3.459463 1_555
K1 Pd2 3.728224 1_645
K1 Pd5 3.728226 1_544
K1 Pd1 3.737522 1_545
K1 Pd0 3.737525 1_444
K1 Pd3 3.764658 1_545
K1 Pd4 3.764666 1_544
Ga0 Pd2 2.516871 1_544
Ga0 Pd5 2.516879 1_544
Ga0 Pd1 2.633955 1_555
Ga0 Pd0 2.633956 1_454
Ga0 Pd3 2.634231 1_555
Ga0 Pd4 2.634238 1_554
Ga0 Ge2 2.819711 1_555
Ga0 K1 3.306598 1_565
Ga0 K1 3.533826 1_554
Ge0 Pd0 2.467163 1_555
Ge0 Pd1 2.467164 1_555
Ge0 Pd3 2.497337 1_555
Ge0 Pd4 2.497338 1_655
Ge0 Pd5 2.504644 1_544
Ge0 Pd2 2.504654 1_645
Ge0 K1 3.309039 1_555
Ge0 K0 3.350338 1_644
Ge1 Pd0 2.501655 1_554
Ge1 Pd1 2.501659 1_554
Ge1 Pd3 2.586584 1_555
Ge1 Pd4 2.586590 1_554
Ge1 Pd5 2.625971 1_554
Ge1 Pd2 2.625973 1_655
Ge1 K1 3.309914 1_565
Ge1 K1 3.474851 1_554
Ge2 Pd2 2.482406 1_555
Ge2 Pd5 2.482411 1_555
Ge2 Pd0 2.519150 1_454
Ge2 Pd1 2.519151 1_555
Ge2 Pd4 2.522810 1_555
Ge2 Pd3 2.522817 1_455
Ge2 K1 3.267587 1_565
Ge2 K0 3.339050 1_544
