# generated using pymatgen
data_Zr6Nb3Al13Co7
_symmetry_space_group_name_H-M   'P 1'
_cell_length_a   8.57338552
_cell_length_b   8.57338418
_cell_length_c   8.57338516
_cell_angle_alpha   59.81454945
_cell_angle_beta   59.81455323
_cell_angle_gamma   59.81455548
_symmetry_Int_Tables_number   1
_chemical_formula_structural   Zr6Nb3Al13Co7
_chemical_formula_sum   'Zr6 Nb3 Al13 Co7'
_cell_volume   443.72100080
_cell_formula_units_Z   1
loop_
 _symmetry_equiv_pos_site_id
 _symmetry_equiv_pos_as_xyz
  1  'x, y, z'
loop_
 _atom_site_type_symbol
 _atom_site_label
 _atom_site_symmetry_multiplicity
 _atom_site_fract_x
 _atom_site_fract_y
 _atom_site_fract_z
 _atom_site_occupancy
  Zr  Zr0  1  0.69604054  0.30666500  0.30666500  1
  Zr  Zr1  1  0.69131258  0.30960867  0.69131258  1
  Zr  Zr2  1  0.69131258  0.69131258  0.30960867  1
  Zr  Zr3  1  0.30960867  0.69131258  0.69131258  1
  Zr  Zr4  1  0.30666500  0.69604054  0.30666500  1
  Zr  Zr5  1  0.30666500  0.30666500  0.69604054  1
  Nb  Nb0  1  0.64376409  0.11853716  0.11853716  1
  Nb  Nb1  1  0.11853716  0.64376409  0.11853716  1
  Nb  Nb2  1  0.11853716  0.11853716  0.64376409  1
  Al  Al0  1  0.11757579  0.11757579  0.11757579  1
  Al  Al1  1  0.36084643  0.88130654  0.88130654  1
  Al  Al2  1  0.88130654  0.36084643  0.88130654  1
  Al  Al3  1  0.88130654  0.88130654  0.36084643  1
  Al  Al4  1  0.87832819  0.87832819  0.87832819  1
  Al  Al5  1  0.99731244  0.33175013  0.33175013  1
  Al  Al6  1  0.33175013  0.99731244  0.33175013  1
  Al  Al7  1  0.33175013  0.33175013  0.99731244  1
  Al  Al8  1  0.33685681  0.33685681  0.33685681  1
  Al  Al9  1  0.00049845  0.66608864  0.66608864  1
  Al  Al10  1  0.66608864  0.00049845  0.66608864  1
  Al  Al11  1  0.66608864  0.66608864  0.00049845  1
  Al  Al12  1  0.66618297  0.66618297  0.66618297  1
  Co  Co0  1  0.99795464  0.99795464  0.99795464  1
  Co  Co1  1  0.50357001  0.00191860  0.00191860  1
  Co  Co2  1  0.49634036  0.00362294  0.49634036  1
  Co  Co3  1  0.49634036  0.49634036  0.00362294  1
  Co  Co4  1  0.00362294  0.49634036  0.49634036  1
  Co  Co5  1  0.00191860  0.50357001  0.00191860  1
  Co  Co6  1  0.00191860  0.00191860  0.50357001  1
loop_
_geom_bond_atom_site_label_1
_geom_bond_atom_site_label_2
_geom_bond_distance
_geom_bond_site_symmetry_2
Zr0 Zr2 3.290221 1_555
Zr0 Zr1 3.290221 1_555
Zr0 Zr4 3.328905 1_555
Zr0 Zr5 3.328905 1_555
Zr1 Zr2 3.263317 1_555
Zr1 Zr3 3.263318 1_555
Zr1 Zr5 3.290222 1_555
Zr2 Zr3 3.263318 1_555
Zr2 Zr4 3.290222 1_555
Zr3 Zr5 3.290221 1_555
Zr3 Zr4 3.290221 1_555
Zr4 Zr5 3.328904 1_555
Nb0 Zr2 3.066238 1_545
Nb0 Zr1 3.066238 1_554
Nb0 Zr0 3.077914 1_555
Nb1 Zr3 3.066238 1_554
Nb1 Zr2 3.066238 1_455
Nb1 Zr4 3.077914 1_555
Nb2 Zr3 3.066238 1_545
Nb2 Zr1 3.066238 1_455
Nb2 Zr5 3.077914 1_555
Al0 Co0 2.515609 1_444
Al0 Co5 2.703134 1_555
Al0 Co6 2.703134 1_555
Al0 Co1 2.703135 1_555
Al0 Al7 2.718303 1_554
Al0 Al5 2.718303 1_455
Al0 Al6 2.718303 1_545
Al0 Al3 2.861047 1_445
Al0 Al1 2.861047 1_544
Al0 Al2 2.861047 1_454
Al0 Zr4 3.029306 1_545
Al0 Zr5 3.029306 1_554
Al0 Zr0 3.029306 1_455
Al1 Co0 2.535339 1_455
Al1 Co3 2.689102 1_556
Al1 Co2 2.689102 1_565
Al1 Al10 2.689735 1_565
Al1 Al11 2.689735 1_556
Al1 Co1 2.693660 1_566
Al1 Al12 2.714097 1_555
Al1 Nb1 2.905183 1_556
Al1 Nb2 2.905183 1_565
Al1 Zr5 3.041579 1_565
Al1 Zr4 3.041579 1_556
Al1 Zr3 3.099482 1_555
Al2 Co0 2.535339 1_545
Al2 Co4 2.689102 1_655
Al2 Co3 2.689102 1_556
Al2 Al9 2.689734 1_655
Al2 Co5 2.693660 1_656
Al2 Nb0 2.905183 1_556
Al2 Nb2 2.905183 1_655
Al2 Zr0 3.041579 1_556
Al2 Zr5 3.041579 1_655
Al2 Zr1 3.099482 1_555
Al3 Co0 2.535339 1_554
Al3 Co4 2.689102 1_655
Al3 Co2 2.689102 1_565
Al3 Al9 2.689735 1_655
Al3 Co6 2.693660 1_665
Al3 Nb1 2.905183 1_655
Al3 Nb0 2.905183 1_565
Al3 Zr0 3.041579 1_565
Al3 Zr4 3.041579 1_655
Al3 Zr2 3.099482 1_555
Al4 Co0 2.515721 1_555
Al4 Co5 2.617357 1_656
Al4 Co6 2.617357 1_665
Al4 Co1 2.617357 1_566
Al4 Al9 2.686160 1_655
Al4 Nb2 2.908951 1_665
Al4 Nb0 2.908951 1_566
Al4 Nb1 2.908951 1_656
Al4 Zr1 3.078160 1_565
Al4 Zr2 3.078160 1_556
Al4 Zr3 3.078161 1_655
Al5 Co6 2.434165 1_655
Al5 Co5 2.434165 1_655
Al5 Co4 2.478143 1_655
Al5 Nb1 2.746885 1_655
Al5 Nb2 2.746885 1_655
Al5 Zr0 2.815618 1_555
Al5 Al6 2.859222 1_645
Al5 Al7 2.859222 1_654
Al5 Zr2 2.863773 1_555
Al5 Zr1 2.863773 1_555
Al5 Al8 2.955718 1_655
Al6 Co1 2.434165 1_565
Al6 Co6 2.434165 1_565
Al6 Co2 2.478143 1_565
Al6 Nb0 2.746885 1_565
Al6 Nb2 2.746885 1_565
Al6 Zr4 2.815618 1_555
Al6 Al7 2.859222 1_564
Al6 Zr3 2.863773 1_555
Al6 Zr2 2.863773 1_555
Al6 Al8 2.955718 1_565
Al7 Co1 2.434165 1_556
Al7 Co5 2.434165 1_556
Al7 Co3 2.478143 1_556
Al7 Nb1 2.746885 1_556
Al7 Nb0 2.746885 1_556
Al7 Zr5 2.815618 1_555
Al7 Zr3 2.863772 1_555
Al7 Zr1 2.863773 1_555
Al7 Al8 2.955718 1_556
Al8 Co2 2.434091 1_555
Al8 Co3 2.434091 1_555
Al8 Co4 2.434092 1_555
Al8 Nb2 2.747380 1_555
Al8 Nb1 2.747380 1_555
Al8 Nb0 2.747380 1_555
Al8 Zr4 2.842725 1_555
Al8 Zr5 2.842726 1_555
Al8 Zr0 2.842726 1_555
Al9 Co6 2.493061 1_565
Al9 Co5 2.493061 1_556
Al9 Co4 2.507592 1_555
Al9 Zr5 2.863517 1_555
Al9 Zr4 2.863517 1_555
Al9 Zr3 2.883804 1_555
Al10 Co1 2.493061 1_556
Al10 Co6 2.493062 1_655
Al10 Co2 2.507593 1_555
Al10 Al4 2.686160 1_545
Al10 Al3 2.689735 1_545
Al10 Al11 2.858984 1_546
Al10 Al9 2.858984 1_645
Al10 Zr0 2.863517 1_555
Al10 Zr5 2.863517 1_555
Al10 Al12 2.865402 1_545
Al10 Zr1 2.883803 1_555
Al11 Co1 2.493061 1_565
Al11 Co5 2.493062 1_655
Al11 Co3 2.507592 1_555
Al11 Al4 2.686160 1_554
Al11 Al2 2.689735 1_554
Al11 Al9 2.858984 1_654
Al11 Zr0 2.863517 1_555
Al11 Zr4 2.863517 1_555
Al11 Al12 2.865402 1_554
Al11 Zr2 2.883803 1_555
Al12 Co2 2.503978 1_565
Al12 Co3 2.503978 1_556
Al12 Co4 2.503979 1_655
Al12 Al3 2.714097 1_555
Al12 Al2 2.714097 1_555
Al12 Zr1 2.856645 1_555
Al12 Zr2 2.856646 1_555
Al12 Zr3 2.856646 1_555
Al12 Al9 2.865402 1_655
Co0 Nb1 2.473775 1_656
Co0 Nb2 2.473775 1_665
Co0 Nb0 2.473775 1_566
Co1 Nb0 2.620314 1_555
Co1 Zr1 3.088089 1_554
Co1 Zr2 3.088090 1_545
Co1 Zr4 3.111207 1_545
Co1 Zr5 3.111207 1_554
Co2 Nb0 2.643093 1_555
Co2 Nb2 2.643093 1_555
Co2 Zr3 3.105663 1_545
Co2 Zr2 3.105663 1_545
Co2 Zr0 3.122596 1_555
Co2 Zr5 3.122596 1_555
Co3 Nb0 2.643093 1_555
Co3 Nb1 2.643093 1_555
Co3 Zr1 3.105663 1_554
Co3 Zr3 3.105664 1_554
Co3 Zr4 3.122596 1_555
Co3 Zr0 3.122596 1_555
Co4 Nb2 2.643093 1_555
Co4 Nb1 2.643093 1_555
Co4 Zr1 3.105663 1_455
Co4 Zr2 3.105664 1_455
Co4 Zr4 3.122596 1_555
Co4 Zr5 3.122596 1_555
Co5 Nb1 2.620313 1_555
Co5 Zr3 3.088090 1_554
Co5 Zr2 3.088090 1_455
Co5 Zr0 3.111207 1_455
Co5 Zr5 3.111207 1_554
Co6 Nb2 2.620313 1_555
Co6 Zr1 3.088090 1_455
Co6 Zr3 3.088090 1_545
Co6 Zr4 3.111207 1_545
Co6 Zr0 3.111207 1_455
