# generated using pymatgen
data_Y12AlNi4Sn
_symmetry_space_group_name_H-M   'P 1'
_cell_length_a   8.40935131
_cell_length_b   8.40935079
_cell_length_c   8.40935139
_cell_angle_alpha   112.30759870
_cell_angle_beta   109.48929016
_cell_angle_gamma   106.66590346
_symmetry_Int_Tables_number   1
_chemical_formula_structural   Y12AlNi4Sn
_chemical_formula_sum   'Y12 Al1 Ni4 Sn1'
_cell_volume   456.67983044
_cell_formula_units_Z   1
loop_
 _symmetry_equiv_pos_site_id
 _symmetry_equiv_pos_as_xyz
  1  'x, y, z'
loop_
 _atom_site_type_symbol
 _atom_site_label
 _atom_site_symmetry_multiplicity
 _atom_site_fract_x
 _atom_site_fract_y
 _atom_site_fract_z
 _atom_site_occupancy
  Y  Y0  1  0.42811782  0.22827068  0.19984814  1
  Y  Y1  1  0.57188218  0.77172932  0.80015186  1
  Y  Y2  1  0.02842253  0.22827068  0.80015186  1
  Y  Y3  1  0.97157747  0.77172932  0.19984814  1
  Y  Y4  1  0.17933355  0.28932618  0.46866073  1
  Y  Y5  1  0.82066645  0.71067382  0.53133927  1
  Y  Y6  1  0.17933355  0.71067382  0.89000738  1
  Y  Y7  1  0.82066645  0.28932618  0.10999262  1
  Y  Y8  1  0.32528585  0.63381530  0.30852946  1
  Y  Y9  1  0.67471415  0.36618470  0.69147054  1
  Y  Y10  1  0.32528585  0.01675739  0.69147054  1
  Y  Y11  1  0.67471415  0.98324261  0.30852946  1
  Al  Al0  1  0.00000000  0.00000000  0.00000000  1
  Ni  Ni0  1  0.34994347  0.00000000  0.34994347  1
  Ni  Ni1  1  0.65005653  1.00000000  0.65005653  1
  Ni  Ni2  1  0.12231815  0.62231815  0.50000000  1
  Ni  Ni3  1  0.87768185  0.37768185  0.50000000  1
  Sn  Sn0  1  0.50000000  0.50000000  0.00000000  1
loop_
_geom_bond_atom_site_label_1
_geom_bond_atom_site_label_2
_geom_bond_distance
_geom_bond_site_symmetry_2
Al0 Y0 3.003389 1_555
Al0 Y1 3.003389 1_444
Al0 Y2 3.003395 1_554
Al0 Y3 3.003395 1_445
Al0 Y7 3.221254 1_455
Al0 Y6 3.221254 1_544
Al0 Y4 3.221261 1_555
Al0 Y5 3.221261 1_444
Ni0 Y0 2.716517 1_555
Ni0 Y3 2.716518 1_445
Ni0 Y10 2.901421 1_555
Ni0 Y8 2.901423 1_545
Ni0 Y9 2.901424 1_555
Ni0 Y11 2.901426 1_545
Ni0 Y6 3.176281 1_544
Ni0 Y4 3.176282 1_555
Ni1 Y1 2.716517 1_555
Ni1 Y2 2.716518 1_665
Ni1 Y11 2.901421 1_555
Ni1 Y9 2.901423 1_565
Ni1 Y8 2.901424 1_555
Ni1 Y10 2.901426 1_565
Ni1 Y7 3.176281 1_566
Ni1 Y5 3.176282 1_555
Ni2 Ni3 2.457010 1_455
Ni2 Y8 2.715232 1_555
Ni2 Y10 2.715239 1_565
Ni2 Y5 2.904283 1_455
Ni2 Y7 2.904285 1_455
Ni2 Y6 2.904285 1_555
Ni2 Y4 2.904287 1_555
Ni2 Y3 3.277607 1_455
Ni2 Y1 3.277614 1_555
Ni3 Y9 2.715232 1_555
Ni3 Y11 2.715239 1_545
Ni3 Y4 2.904283 1_655
Ni3 Y6 2.904285 1_655
Ni3 Y7 2.904285 1_555
Ni3 Y5 2.904287 1_555
Ni3 Y2 3.277607 1_655
Ni3 Y0 3.277614 1_555
Sn0 Y3 3.348473 1_555
Sn0 Y2 3.348473 1_554
Sn0 Y1 3.348474 1_554
Sn0 Y0 3.348474 1_555
Sn0 Y10 3.381115 1_554
Sn0 Y11 3.381115 1_555
Sn0 Y8 3.381122 1_555
Sn0 Y9 3.381122 1_554
Sn0 Y5 3.685884 1_555
Sn0 Y4 3.685884 1_554
Sn0 Y7 3.685890 1_555
Sn0 Y6 3.685890 1_554
