# generated using pymatgen
data_LaGaO3
_symmetry_space_group_name_H-M   'P 1'
_cell_length_a   5.52859349
_cell_length_b   5.52859349
_cell_length_c   5.52859264
_cell_angle_alpha   60.79416365
_cell_angle_beta   60.79416365
_cell_angle_gamma   60.79416118
_symmetry_Int_Tables_number   1
_chemical_formula_structural   LaGaO3
_chemical_formula_sum   'La2 Ga2 O6'
_cell_volume   121.62970280
_cell_formula_units_Z   2
loop_
 _symmetry_equiv_pos_site_id
 _symmetry_equiv_pos_as_xyz
  1  'x, y, z'
loop_
 _atom_site_type_symbol
 _atom_site_label
 _atom_site_symmetry_multiplicity
 _atom_site_fract_x
 _atom_site_fract_y
 _atom_site_fract_z
 _atom_site_occupancy
  La  La0  1  0.25000000  0.25000000  0.25000000  1
  La  La1  1  0.75000000  0.75000000  0.75000000  1
  Ga  Ga0  1  0.00000000  0.00000000  0.00000000  1
  Ga  Ga1  1  0.50000000  0.50000000  0.50000000  1
  O  O0  1  0.75000000  0.18085300  0.31914700  1
  O  O1  1  0.31914700  0.75000000  0.18085300  1
  O  O2  1  0.18085300  0.31914700  0.75000000  1
  O  O3  1  0.25000000  0.81914700  0.68085300  1
  O  O4  1  0.81914700  0.68085300  0.25000000  1
  O  O5  1  0.68085300  0.25000000  0.81914700  1
loop_
_geom_bond_atom_site_label_1
_geom_bond_atom_site_label_2
_geom_bond_distance
_geom_bond_site_symmetry_2
La0 O3 2.410547 1_545
La0 O5 2.410547 1_554
La0 O4 2.410547 1_455
La0 O2 2.791236 1_555
La0 O2 2.791236 1_554
La0 O0 2.791236 1_555
La0 O1 2.791236 1_545
La0 O1 2.791237 1_555
La0 O0 2.791237 1_455
La1 O1 2.410547 1_556
La1 O0 2.410547 1_565
La1 O2 2.410547 1_655
La1 O4 2.791236 1_556
La1 O4 2.791236 1_555
La1 O5 2.791236 1_565
La1 O3 2.791236 1_555
La1 O3 2.791237 1_655
La1 O5 2.791237 1_555
Ga0 O0 2.004090 1_455
Ga0 O3 2.004090 1_544
Ga0 O1 2.004090 1_545
Ga0 O5 2.004090 1_454
Ga0 O2 2.004090 1_554
Ga0 O4 2.004090 1_445
Ga1 O5 2.004090 1_555
Ga1 O1 2.004090 1_555
Ga1 O3 2.004090 1_555
Ga1 O0 2.004090 1_555
Ga1 O4 2.004090 1_555
Ga1 O2 2.004090 1_555
