# generated using pymatgen
data_Lu12GaCo4Rh
_symmetry_space_group_name_H-M   'P 1'
_cell_length_a   7.98303813
_cell_length_b   7.98303829
_cell_length_c   7.98303888
_cell_angle_alpha   111.40371466
_cell_angle_beta   110.28657583
_cell_angle_gamma   106.75901524
_symmetry_Int_Tables_number   1
_chemical_formula_structural   Lu12GaCo4Rh
_chemical_formula_sum   'Lu12 Ga1 Co4 Rh1'
_cell_volume   390.94280145
_cell_formula_units_Z   1
loop_
 _symmetry_equiv_pos_site_id
 _symmetry_equiv_pos_as_xyz
  1  'x, y, z'
loop_
 _atom_site_type_symbol
 _atom_site_label
 _atom_site_symmetry_multiplicity
 _atom_site_fract_x
 _atom_site_fract_y
 _atom_site_fract_z
 _atom_site_occupancy
  Lu  Lu0  1  0.03969616  0.73016000  0.30953616  1
  Lu  Lu1  1  0.96030384  0.26984000  0.69046384  1
  Lu  Lu2  1  0.57937515  0.26984000  0.30953616  1
  Lu  Lu3  1  0.42062485  0.73016000  0.69046384  1
  Lu  Lu4  1  0.67532587  0.86448719  0.18916132  1
  Lu  Lu5  1  0.32467413  0.51383445  0.18916132  1
  Lu  Lu6  1  0.32467413  0.13551281  0.81083868  1
  Lu  Lu7  1  0.67532587  0.48616555  0.81083868  1
  Lu  Lu8  1  0.18188142  0.21887113  0.40075255  1
  Lu  Lu9  1  0.81811858  0.21887113  0.03698871  1
  Lu  Lu10  1  0.18188142  0.78112887  0.96301129  1
  Lu  Lu11  1  0.81811858  0.78112887  0.59924745  1
  Ga  Ga0  1  0.50000000  0.00000000  0.50000000  1
  Co  Co0  1  0.65247905  0.50000000  0.15247905  1
  Co  Co1  1  0.34752095  0.50000000  0.84752095  1
  Co  Co2  1  0.88628417  0.88628417  0.00000000  1
  Co  Co3  1  0.11371583  0.11371583  1.00000000  1
  Rh  Rh0  1  0.00000000  0.50000000  0.50000000  1
loop_
_geom_bond_atom_site_label_1
_geom_bond_atom_site_label_2
_geom_bond_distance
_geom_bond_site_symmetry_2
Lu0 Rh0 2.797430 1_555
Lu1 Rh0 2.797430 1_655
Lu2 Rh0 2.797436 1_655
Lu3 Rh0 2.797436 1_555
Lu8 Rh0 3.025190 1_555
Lu9 Rh0 3.025197 1_655
Lu10 Rh0 3.025197 1_555
Lu11 Rh0 3.025190 1_655
Ga0 Lu2 3.102452 1_555
Ga0 Lu3 3.102452 1_545
Ga0 Lu1 3.102453 1_555
Ga0 Lu0 3.102453 1_545
Ga0 Lu6 3.257155 1_555
Ga0 Lu4 3.257155 1_545
Ga0 Lu5 3.257161 1_545
Ga0 Lu7 3.257161 1_555
Ga0 Lu9 3.507708 1_556
Ga0 Lu10 3.507708 1_544
Ga0 Lu11 3.507714 1_545
Ga0 Lu8 3.507714 1_555
Co0 Lu0 2.618956 1_655
Co0 Lu2 2.618958 1_555
Co0 Lu5 2.760518 1_555
Co0 Lu4 2.760520 1_555
Co0 Lu6 2.760521 1_554
Co0 Lu7 2.760523 1_554
Co0 Lu11 2.946488 1_555
Co0 Lu9 2.946489 1_555
Co1 Lu1 2.618956 1_455
Co1 Lu3 2.618958 1_555
Co1 Lu7 2.760518 1_555
Co1 Lu6 2.760520 1_555
Co1 Lu4 2.760521 1_556
Co1 Lu5 2.760523 1_556
Co1 Lu8 2.946488 1_555
Co1 Lu10 2.946489 1_555
Co2 Co3 2.166049 1_664
Co2 Lu7 2.633061 1_554
Co2 Lu4 2.633067 1_555
Co2 Lu10 2.793746 1_654
Co2 Lu8 2.793749 1_665
Co2 Lu11 2.793749 1_554
Co2 Lu9 2.793750 1_565
Co2 Lu3 3.191996 1_554
Co2 Lu0 3.192003 1_655
Co3 Lu5 2.633061 1_556
Co3 Lu6 2.633067 1_555
Co3 Lu9 2.793746 1_456
Co3 Lu11 2.793749 1_445
Co3 Lu8 2.793749 1_556
Co3 Lu10 2.793750 1_545
Co3 Lu2 3.191996 1_556
Co3 Lu1 3.192003 1_455
