# generated using pymatgen
data_Zr10AlSiSn4
_symmetry_space_group_name_H-M   'P 1'
_cell_length_a   8.38015061
_cell_length_b   8.38204276
_cell_length_c   8.38014925
_cell_angle_alpha   96.14961876
_cell_angle_beta   96.13851545
_cell_angle_gamma   141.78924541
_symmetry_Int_Tables_number   1
_chemical_formula_structural   Zr10AlSiSn4
_chemical_formula_sum   'Zr10 Al1 Si1 Sn4'
_cell_volume   344.09281849
_cell_formula_units_Z   1
loop_
 _symmetry_equiv_pos_site_id
 _symmetry_equiv_pos_as_xyz
  1  'x, y, z'
loop_
 _atom_site_type_symbol
 _atom_site_label
 _atom_site_symmetry_multiplicity
 _atom_site_fract_x
 _atom_site_fract_y
 _atom_site_fract_z
 _atom_site_occupancy
  Zr  Zr0  1  0.42581318  0.29080945  0.71321572  1
  Zr  Zr1  1  0.20917456  0.07416724  0.28677581  1
  Zr  Zr2  1  0.57702691  0.71205057  0.28681351  1
  Zr  Zr3  1  0.24999185  0.75000000  0.49999185  1
  Zr  Zr4  1  0.29019406  0.57699839  0.86495043  1
  Zr  Zr5  1  0.71260657  0.42583276  0.13500631  1
  Zr  Zr6  1  0.75007360  0.25000000  0.50007360  1
  Zr  Zr7  1  0.92240727  0.20919055  0.13500373  1
  Zr  Zr8  1  0.78795203  0.92300161  0.71319467  1
  Zr  Zr9  1  0.07476294  0.78794943  0.86497634  1
  Al  Al0  1  0.25000479  0.25000000  0.00000479  1
  Si  Si0  1  0.74995569  0.75000000  0.99995569  1
  Sn  Sn0  1  0.16422519  0.33589657  0.50000345  1
  Sn  Sn1  1  0.66410689  0.16410343  0.82832963  1
  Sn  Sn2  1  0.83579414  0.66411269  0.50002301  1
  Sn  Sn3  1  0.33591032  0.83588731  0.17168044  1
loop_
_geom_bond_atom_site_label_1
_geom_bond_atom_site_label_2
_geom_bond_distance
_geom_bond_site_symmetry_2
Zr3 Zr6 2.743188 1_455
Zr3 Zr6 2.743188 1_565
Al0 Si0 2.743188 1_554
Al0 Si0 2.743188 1_444
Al0 Zr4 2.863990 1_554
Al0 Zr8 2.863995 1_444
Al0 Zr2 2.864324 1_555
Al0 Zr9 2.864324 1_544
Al0 Zr7 2.864441 1_455
Al0 Zr0 2.864449 1_554
Al0 Zr5 2.864733 1_555
Al0 Zr1 2.864749 1_555
Si0 Zr7 2.856487 1_566
Si0 Zr0 2.856492 1_555
Si0 Zr5 2.856577 1_556
Si0 Zr1 2.856591 1_666
Si0 Zr4 2.857218 1_555
Si0 Zr8 2.857225 1_555
Si0 Zr2 2.857363 1_556
Si0 Zr9 2.857363 1_655
Sn0 Zr6 2.938958 1_455
Sn0 Zr3 2.940113 1_555
Sn0 Zr0 2.957993 1_555
Sn0 Zr1 2.958108 1_555
Sn0 Zr4 3.030606 1_555
Sn0 Zr7 3.030955 1_455
Sn0 Zr8 3.229097 1_555
Sn0 Zr2 3.229788 1_445
Sn0 Zr2 3.238548 1_555
Sn0 Zr8 3.239210 1_445
Sn1 Zr6 2.938966 1_555
Sn1 Zr3 2.940119 1_545
Sn1 Zr7 2.957991 1_556
Sn1 Zr5 2.958104 1_556
Sn1 Zr8 3.030611 1_545
Sn1 Zr0 3.030960 1_555
Sn1 Zr4 3.229096 1_545
Sn1 Zr9 3.229790 1_655
Sn1 Zr9 3.238545 1_545
Sn1 Zr4 3.239219 1_655
Sn2 Zr3 2.939343 1_655
Sn2 Zr6 2.940504 1_555
Sn2 Zr2 2.958171 1_555
Sn2 Zr8 2.958177 1_555
Sn2 Zr9 3.030639 1_655
Sn2 Zr5 3.031039 1_555
Sn2 Zr0 3.225394 1_555
Sn2 Zr1 3.226273 1_665
Sn2 Zr1 3.242577 1_555
Sn2 Zr0 3.243014 1_665
Sn3 Zr3 2.939351 1_555
Sn3 Zr6 2.940510 1_565
Sn3 Zr9 2.958164 1_554
Sn3 Zr4 2.958175 1_554
Sn3 Zr2 3.030642 1_555
Sn3 Zr1 3.031039 1_565
Sn3 Zr7 3.225398 1_565
Sn3 Zr5 3.226286 1_455
Sn3 Zr5 3.242581 1_565
Sn3 Zr7 3.243018 1_455
