# generated using pymatgen
data_LiCaGePd3
_symmetry_space_group_name_H-M   'P 1'
_cell_length_a   5.07255070
_cell_length_b   5.07255067
_cell_length_c   5.07254969
_cell_angle_alpha   66.04636511
_cell_angle_beta   66.04636432
_cell_angle_gamma   66.04635469
_symmetry_Int_Tables_number   1
_chemical_formula_structural   LiCaGePd3
_chemical_formula_sum   'Li1 Ca1 Ge1 Pd3'
_cell_volume   104.36285848
_cell_formula_units_Z   1
loop_
 _symmetry_equiv_pos_site_id
 _symmetry_equiv_pos_as_xyz
  1  'x, y, z'
loop_
 _atom_site_type_symbol
 _atom_site_label
 _atom_site_symmetry_multiplicity
 _atom_site_fract_x
 _atom_site_fract_y
 _atom_site_fract_z
 _atom_site_occupancy
  Li  Li0  1  0.86381993  0.86381993  0.86381993  1
  Ca  Ca0  1  0.12175919  0.12175919  0.12175919  1
  Ge  Ge0  1  0.50462937  0.50462937  0.50462937  1
  Pd  Pd0  1  0.50367251  0.50367251  0.00244750  1
  Pd  Pd1  1  0.00244750  0.50367251  0.50367251  1
  Pd  Pd2  1  0.50367251  0.00244750  0.50367251  1
loop_
_geom_bond_atom_site_label_1
_geom_bond_atom_site_label_2
_geom_bond_distance
_geom_bond_site_symmetry_2
Li0 Pd1 2.791612 1_655
Li0 Pd2 2.791612 1_565
Li0 Pd0 2.791612 1_556
Li0 Pd2 3.218983 1_566
Li0 Pd1 3.218984 1_656
Li0 Pd0 3.218984 1_566
Li0 Pd0 3.218984 1_656
Li0 Pd2 3.218984 1_665
Li0 Pd1 3.218984 1_665
Ca0 Pd1 3.002618 1_555
Ca0 Pd2 3.002618 1_555
Ca0 Pd0 3.002619 1_555
Ca0 Li0 3.050583 1_444
Ca0 Pd2 3.099361 1_554
Ca0 Pd1 3.099361 1_554
Ca0 Pd0 3.099361 1_545
Ca0 Pd0 3.099361 1_455
Ca0 Pd2 3.099362 1_455
Ca0 Pd1 3.099362 1_545
Ca0 Ge0 3.245406 1_455
Ca0 Ge0 3.245406 1_545
Ca0 Ge0 3.245406 1_554
Ca0 Li0 3.314287 1_445
Ca0 Li0 3.314287 1_544
Ca0 Li0 3.314287 1_454
Ge0 Pd0 2.521276 1_556
Ge0 Pd2 2.521277 1_565
Ge0 Pd1 2.521277 1_655
Ge0 Pd0 2.551294 1_555
Ge0 Pd2 2.551294 1_555
Ge0 Pd1 2.551294 1_555
Pd0 Pd1 2.757657 1_654
Pd0 Pd2 2.757657 1_564
Pd0 Pd1 2.771203 1_555
Pd0 Pd2 2.771203 1_555
Pd1 Pd2 2.757657 1_465
Pd1 Pd2 2.771203 1_555
