# generated using pymatgen
data_Ca4Sn3Sb3Rh7
_symmetry_space_group_name_H-M   'P 1'
_cell_length_a   7.57875143
_cell_length_b   7.58948619
_cell_length_c   7.57875092
_cell_angle_alpha   109.49992139
_cell_angle_beta   109.44251013
_cell_angle_gamma   109.49991871
_symmetry_Int_Tables_number   1
_chemical_formula_structural   Ca4Sn3Sb3Rh7
_chemical_formula_sum   'Ca4 Sn3 Sb3 Rh7'
_cell_volume   335.45310336
_cell_formula_units_Z   1
loop_
 _symmetry_equiv_pos_site_id
 _symmetry_equiv_pos_as_xyz
  1  'x, y, z'
loop_
 _atom_site_type_symbol
 _atom_site_label
 _atom_site_symmetry_multiplicity
 _atom_site_fract_x
 _atom_site_fract_y
 _atom_site_fract_z
 _atom_site_occupancy
  Ca  Ca0  1  0.50543828  0.00038892  1.00000000  1
  Ca  Ca1  1  1.00000000  0.48440686  1.00000000  1
  Ca  Ca2  1  1.00000000  0.00038892  0.50543828  1
  Ca  Ca3  1  0.49456172  0.49494864  0.49456172  1
  Sn  Sn0  1  0.30732748  0.99195738  0.30732748  1
  Sn  Sn1  1  0.00000000  0.68462990  0.69267252  1
  Sn  Sn2  1  0.69267252  0.68462990  1.00000000  1
  Sb  Sb0  1  0.67018844  0.99331278  0.67018844  1
  Sb  Sb1  1  0.00000000  0.32312334  0.32981156  1
  Sb  Sb2  1  0.32981156  0.32312334  0.00000000  1
  Rh  Rh0  1  0.25550486  0.50471457  0.75528209  1
  Rh  Rh1  1  0.49977623  0.24920872  0.74449514  1
  Rh  Rh2  1  0.74449514  0.24920872  0.49977623  1
  Rh  Rh3  1  0.50022377  0.74943248  0.24471791  1
  Rh  Rh4  1  0.00000000  0.01238049  0.00000000  1
  Rh  Rh5  1  0.24471791  0.74943248  0.50022377  1
  Rh  Rh6  1  0.75528209  0.50471457  0.25550486  1
loop_
_geom_bond_atom_site_label_1
_geom_bond_atom_site_label_2
_geom_bond_distance
_geom_bond_site_symmetry_2
Ca0 Rh0 3.070140 1_545
Ca0 Rh3 3.070141 1_546
Ca0 Rh2 3.093107 1_556
Ca0 Rh5 3.093108 1_545
Ca0 Rh1 3.123730 1_555
Ca0 Rh6 3.123736 1_556
Ca0 Sb1 3.137278 1_656
Ca0 Sb0 3.137279 1_545
Ca0 Sb2 3.153998 1_556
Ca0 Sn2 3.166510 1_545
Ca0 Sn1 3.169671 1_545
Ca0 Sn0 3.169671 1_546
Ca1 Rh6 3.097680 1_556
Ca1 Rh0 3.097680 1_655
Ca1 Rh2 3.097685 1_555
Ca1 Rh5 3.097686 1_656
Ca1 Rh1 3.097686 1_555
Ca1 Rh3 3.097686 1_656
Ca1 Sb0 3.128692 1_545
Ca1 Sb1 3.128697 1_656
Ca1 Sb2 3.128698 1_656
Ca1 Sn0 3.177586 1_656
Ca1 Sn1 3.177586 1_655
Ca1 Sn2 3.177586 1_555
Ca2 Rh6 3.070140 1_545
Ca2 Rh5 3.070141 1_645
Ca2 Rh1 3.093108 1_655
Ca2 Rh3 3.093108 1_545
Ca2 Rh2 3.123730 1_555
Ca2 Rh0 3.123736 1_655
Ca2 Sb2 3.137278 1_656
Ca2 Sb0 3.137279 1_545
Ca2 Sb1 3.153998 1_655
Ca2 Sn1 3.166510 1_645
Ca2 Sn2 3.169670 1_544
Ca2 Sn0 3.169671 1_645
Ca3 Rh1 3.070134 1_555
Ca3 Rh2 3.070134 1_555
Ca3 Rh0 3.093114 1_555
Ca3 Rh6 3.093114 1_555
Ca3 Rh3 3.123748 1_555
Ca3 Rh5 3.123748 1_555
Ca3 Sb2 3.137280 1_555
Ca3 Sb1 3.137280 1_555
Ca3 Sb0 3.154018 1_555
Ca3 Sn0 3.166496 1_545
Ca3 Sn2 3.169669 1_555
Ca3 Sn1 3.169669 1_655
Rh0 Sb1 2.672336 1_555
Rh0 Sb2 2.680591 1_556
Rh0 Sn1 2.724963 1_555
Rh0 Sn2 2.734904 1_555
Rh1 Sb2 2.672331 1_556
Rh1 Sb0 2.680585 1_545
Rh1 Sn2 2.724967 1_555
Rh1 Sn0 2.734903 1_545
Rh2 Sb1 2.672331 1_655
Rh2 Sb0 2.680585 1_545
Rh2 Sn1 2.724968 1_655
Rh2 Sn0 2.734903 1_545
Rh3 Sb0 2.672338 1_555
Rh3 Sb2 2.680590 1_555
Rh3 Sn0 2.724969 1_555
Rh3 Sn2 2.734898 1_554
Rh4 Sn1 2.782894 1_544
Rh4 Sn2 2.782894 1_444
Rh4 Sn0 2.782894 1_545
Rh4 Sb1 2.806108 1_555
Rh4 Sb2 2.806108 1_555
Rh4 Sb0 2.806112 1_444
Rh5 Sb0 2.672338 1_555
Rh5 Sb1 2.680590 1_555
Rh5 Sn0 2.724969 1_555
Rh5 Sn1 2.734898 1_555
Rh6 Sb2 2.672336 1_555
Rh6 Sb1 2.680591 1_655
Rh6 Sn2 2.724963 1_554
Rh6 Sn1 2.734903 1_655
