# generated using pymatgen
data_Na2LiInBi2
_symmetry_space_group_name_H-M   'P 1'
_cell_length_a   10.34635389
_cell_length_b   10.34635540
_cell_length_c   6.49625484
_cell_angle_alpha   90.00000000
_cell_angle_beta   90.00000000
_cell_angle_gamma   97.57712862
_symmetry_Int_Tables_number   1
_chemical_formula_structural   Na2LiInBi2
_chemical_formula_sum   'Na8 Li4 In4 Bi8'
_cell_volume   689.33284715
_cell_formula_units_Z   4
loop_
 _symmetry_equiv_pos_site_id
 _symmetry_equiv_pos_as_xyz
  1  'x, y, z'
loop_
 _atom_site_type_symbol
 _atom_site_label
 _atom_site_symmetry_multiplicity
 _atom_site_fract_x
 _atom_site_fract_y
 _atom_site_fract_z
 _atom_site_occupancy
  Na  Na0  1  0.42066639  0.07933361  0.25000000  1
  Na  Na1  1  0.07933361  0.42066639  0.75000000  1
  Na  Na2  1  0.57933361  0.92066639  0.75000000  1
  Na  Na3  1  0.32873941  0.67126059  0.25920261  1
  Na  Na4  1  0.82873941  0.17126059  0.24079739  1
  Na  Na5  1  0.67126059  0.32873941  0.74079739  1
  Na  Na6  1  0.17126059  0.82873941  0.75920261  1
  Na  Na7  1  0.92066639  0.57933361  0.25000000  1
  Li  Li0  1  0.37842689  0.37842689  0.50000000  1
  Li  Li1  1  0.12157311  0.12157311  0.00000000  1
  Li  Li2  1  0.62157311  0.62157311  0.50000000  1
  Li  Li3  1  0.87842689  0.87842689  0.00000000  1
  In  In0  1  0.86978159  0.86978159  0.50000000  1
  In  In1  1  0.13021841  0.13021841  0.50000000  1
  In  In2  1  0.63021841  0.63021841  0.00000000  1
  In  In3  1  0.36978159  0.36978159  0.00000000  1
  Bi  Bi0  1  0.11644384  0.88355616  0.25615371  1
  Bi  Bi1  1  0.61644384  0.38355616  0.24384629  1
  Bi  Bi2  1  0.88355616  0.11644384  0.74384629  1
  Bi  Bi3  1  0.38355616  0.61644384  0.75615371  1
  Bi  Bi4  1  0.13012244  0.36987756  0.25000000  1
  Bi  Bi5  1  0.36987756  0.13012244  0.75000000  1
  Bi  Bi6  1  0.86987756  0.63012244  0.75000000  1
  Bi  Bi7  1  0.63012244  0.86987756  0.25000000  1
loop_
_geom_bond_atom_site_label_1
_geom_bond_atom_site_label_2
_geom_bond_distance
_geom_bond_site_symmetry_2
In0 Li3 3.250265 1_556
In0 Li3 3.250265 1_555
In0 Li2 3.383870 1_555
In0 Na2 3.516032 1_555
In0 Na7 3.516032 1_555
In0 Na6 3.618622 1_655
In0 Na4 3.618622 1_565
In1 Li1 3.250265 1_555
In1 Li1 3.250265 1_556
In1 Li0 3.383870 1_555
In1 Na0 3.516032 1_555
In1 Na1 3.516032 1_555
In1 Na4 3.618622 1_455
In1 Na6 3.618622 1_545
In2 Li2 3.250265 1_555
In2 Li2 3.250265 1_554
In2 Li3 3.383870 1_555
In2 Na7 3.516032 1_555
In2 Na2 3.516032 1_554
In2 Na3 3.618622 1_555
In2 Na5 3.618622 1_554
In3 Li0 3.250265 1_554
In3 Li0 3.250265 1_555
In3 Li1 3.383870 1_555
In3 Na1 3.516032 1_554
In3 Na0 3.516032 1_555
In3 Na5 3.618622 1_554
In3 Na3 3.618622 1_555
Bi0 Li3 2.966785 1_455
Bi0 Li1 2.966786 1_565
Bi0 In0 2.991105 1_455
Bi0 In1 2.991106 1_565
Bi0 Na3 3.304818 1_555
Bi0 Na6 3.339193 1_554
Bi0 Na6 3.377506 1_555
Bi0 Na0 3.511484 1_565
Bi0 Na7 3.511485 1_455
Bi1 Li0 2.966785 1_555
Bi1 Li2 2.966786 1_555
Bi1 In3 2.991105 1_555
Bi1 In2 2.991106 1_555
Bi1 Na4 3.304818 1_555
Bi1 Na5 3.339193 1_555
Bi1 Na5 3.377506 1_554
Bi1 Na7 3.511484 1_555
Bi1 Na0 3.511485 1_555
Bi2 Li1 2.966785 1_656
Bi2 Li3 2.966786 1_546
Bi2 In1 2.991105 1_655
Bi2 In0 2.991106 1_545
Bi2 Na5 3.304818 1_555
Bi2 Na4 3.339193 1_556
Bi2 Na4 3.377506 1_555
Bi2 Na2 3.511484 1_545
Bi2 Na1 3.511485 1_655
Bi3 Li2 2.966785 1_555
Bi3 Li0 2.966786 1_555
Bi3 In2 2.991105 1_556
Bi3 In3 2.991106 1_556
Bi3 Na6 3.304818 1_555
Bi3 Na3 3.339193 1_555
Bi3 Na3 3.377506 1_556
Bi3 Na1 3.511484 1_555
Bi3 Na2 3.511485 1_555
Bi4 In3 2.964227 1_555
Bi4 In1 2.964227 1_555
Bi4 Li0 3.030755 1_555
Bi4 Li1 3.030755 1_555
Bi4 Na7 3.260557 1_455
Bi4 Na1 3.342964 1_554
Bi4 Na1 3.342964 1_555
Bi4 Na4 3.501404 1_455
Bi4 Na3 3.501405 1_555
Bi5 In1 2.964227 1_555
Bi5 In3 2.964227 1_556
Bi5 Li1 3.030755 1_556
Bi5 Li0 3.030755 1_555
Bi5 Na2 3.260557 1_545
Bi5 Na0 3.342964 1_555
Bi5 Na0 3.342964 1_556
Bi5 Na5 3.501404 1_555
Bi5 Na6 3.501405 1_545
Bi6 In2 2.964227 1_556
Bi6 In0 2.964227 1_555
Bi6 Li2 3.030755 1_555
Bi6 Li3 3.030755 1_556
Bi6 Na1 3.260557 1_655
Bi6 Na7 3.342964 1_555
Bi6 Na7 3.342964 1_556
Bi6 Na6 3.501404 1_655
Bi6 Na5 3.501405 1_555
Bi7 In0 2.964227 1_555
Bi7 In2 2.964227 1_555
Bi7 Li3 3.030755 1_555
Bi7 Li2 3.030755 1_555
Bi7 Na0 3.260557 1_565
Bi7 Na2 3.342964 1_555
Bi7 Na2 3.342964 1_554
Bi7 Na3 3.501404 1_555
Bi7 Na4 3.501405 1_565
