# generated using pymatgen
data_CsSc3(CuSe3)2
_symmetry_space_group_name_H-M   'P 1'
_cell_length_a   8.55883752
_cell_length_b   8.55883779
_cell_length_c   9.79550339
_cell_angle_alpha   67.51301077
_cell_angle_beta   67.51300966
_cell_angle_gamma   26.38483876
_symmetry_Int_Tables_number   1
_chemical_formula_structural   CsSc3(CuSe3)2
_chemical_formula_sum   'Cs1 Sc3 Cu2 Se6'
_cell_volume   293.24495718
_cell_formula_units_Z   1
loop_
 _symmetry_equiv_pos_site_id
 _symmetry_equiv_pos_as_xyz
  1  'x, y, z'
loop_
 _atom_site_type_symbol
 _atom_site_label
 _atom_site_symmetry_multiplicity
 _atom_site_fract_x
 _atom_site_fract_y
 _atom_site_fract_z
 _atom_site_occupancy
  Cs  Cs0  1  0.00000000  0.00000000  0.00000000  1
  Sc  Sc0  1  0.28620048  0.28620048  0.63453987  1
  Sc  Sc1  1  0.71379952  0.71379952  0.36546013  1
  Sc  Sc2  1  0.00000000  0.00000000  0.50000000  1
  Cu  Cu0  1  0.28527447  0.28527447  0.91441300  1
  Cu  Cu1  1  0.71472553  0.71472553  0.08558700  1
  Se  Se0  1  0.57191284  0.57191284  0.29621562  1
  Se  Se1  1  0.14302230  0.14302230  0.56809046  1
  Se  Se2  1  0.70785947  0.70785947  0.84618843  1
  Se  Se3  1  0.85697770  0.85697770  0.43190954  1
  Se  Se4  1  0.42808716  0.42808716  0.70378438  1
  Se  Se5  1  0.29214053  0.29214053  0.15381157  1
loop_
_geom_bond_atom_site_label_1
_geom_bond_atom_site_label_2
_geom_bond_distance
_geom_bond_site_symmetry_2
Cs0 Se2 3.739680 1_544
Cs0 Se5 3.739680 1_455
Cs0 Se2 3.739681 1_454
Cs0 Se5 3.739681 1_545
Cs0 Se3 3.956992 1_445
Cs0 Se1 3.956992 1_554
Cs0 Se0 4.050091 1_545
Cs0 Se4 4.050091 1_454
Cs0 Se0 4.050091 1_455
Cs0 Se4 4.050091 1_544
Sc0 Se3 2.703148 1_545
Sc0 Se3 2.703148 1_455
Sc0 Se4 2.704056 1_555
Sc0 Se1 2.708860 1_555
Sc0 Se2 2.773368 1_455
Sc0 Se2 2.773368 1_545
Sc1 Se1 2.703148 1_565
Sc1 Se1 2.703148 1_655
Sc1 Se0 2.704056 1_555
Sc1 Se3 2.708860 1_555
Sc1 Se5 2.773368 1_655
Sc1 Se5 2.773368 1_565
Sc2 Se4 2.712353 1_455
Sc2 Se0 2.712353 1_545
Sc2 Se4 2.712354 1_545
Sc2 Se0 2.712354 1_455
Sc2 Se1 2.715786 1_555
Sc2 Se3 2.715786 1_445
Cu0 Se5 2.392297 1_556
Cu0 Se4 2.462424 1_555
Cu0 Cu1 2.541727 1_456
Cu0 Cu1 2.541727 1_546
Cu0 Se2 2.569843 1_455
Cu0 Se2 2.569843 1_545
Cu0 Sc0 2.735472 1_555
Cu1 Se2 2.392297 1_554
Cu1 Se0 2.462424 1_555
Cu1 Se5 2.569843 1_655
Cu1 Se5 2.569843 1_565
Cu1 Sc1 2.735472 1_555
