# generated using pymatgen
data_Sc5TcP2
_symmetry_space_group_name_H-M   'P 1'
_cell_length_a   5.82315631
_cell_length_b   7.81364022
_cell_length_c   7.81363999
_cell_angle_alpha   121.68556928
_cell_angle_beta   90.00000000
_cell_angle_gamma   90.00000000
_symmetry_Int_Tables_number   1
_chemical_formula_structural   Sc5TcP2
_chemical_formula_sum   'Sc10 Tc2 P4'
_cell_volume   302.52825709
_cell_formula_units_Z   2
loop_
 _symmetry_equiv_pos_site_id
 _symmetry_equiv_pos_as_xyz
  1  'x, y, z'
loop_
 _atom_site_type_symbol
 _atom_site_label
 _atom_site_symmetry_multiplicity
 _atom_site_fract_x
 _atom_site_fract_y
 _atom_site_fract_z
 _atom_site_occupancy
  Sc  Sc0  1  0.75000000  0.75255275  0.75255275  1
  Sc  Sc1  1  0.25000000  0.24744725  0.24744725  1
  Sc  Sc2  1  0.75000000  0.01973117  0.26007865  1
  Sc  Sc3  1  0.25000000  0.98026883  0.73992135  1
  Sc  Sc4  1  0.75000000  0.26007865  0.01973117  1
  Sc  Sc5  1  0.25000000  0.73992135  0.98026883  1
  Sc  Sc6  1  0.00000000  0.66536769  0.33463231  1
  Sc  Sc7  1  0.00000000  0.33463231  0.66536769  1
  Sc  Sc8  1  0.50000000  0.33463231  0.66536769  1
  Sc  Sc9  1  0.50000000  0.66536769  0.33463231  1
  Tc  Tc0  1  0.75000000  0.40710631  0.40710631  1
  Tc  Tc1  1  0.25000000  0.59289369  0.59289369  1
  P  P0  1  0.75000000  0.00933877  0.62127526  1
  P  P1  1  0.25000000  0.99066123  0.37872474  1
  P  P2  1  0.75000000  0.62127526  0.00933877  1
  P  P3  1  0.25000000  0.37872474  0.99066123  1
loop_
_geom_bond_atom_site_label_1
_geom_bond_atom_site_label_2
_geom_bond_distance
_geom_bond_site_symmetry_2
Sc0 Tc0 2.630136 1_555
Sc0 Tc1 3.155150 1_555
Sc0 Tc1 3.155150 1_655
Sc1 Tc1 2.630136 1_555
Sc1 Tc0 3.155150 1_455
Sc1 Tc0 3.155150 1_555
Sc2 Tc0 2.613131 1_555
Sc3 Tc1 2.613131 1_555
Sc4 Tc0 2.613131 1_555
Sc5 Tc1 2.613131 1_555
Sc6 Tc1 2.777164 1_555
Sc6 Tc0 2.777164 1_455
Sc7 Tc0 2.777164 1_455
Sc7 Tc1 2.777164 1_555
Sc8 Tc0 2.777164 1_555
Sc8 Tc1 2.777164 1_555
Sc9 Tc1 2.777164 1_555
Sc9 Tc0 2.777164 1_555
P0 Sc4 2.669041 1_556
P0 Sc0 2.690729 1_545
P0 Sc7 2.788992 1_655
P0 Sc8 2.788992 1_555
P0 Sc6 2.834700 1_645
P0 Sc9 2.834700 1_545
P0 Sc2 2.865746 1_555
P0 Sc3 3.099924 1_645
P0 Sc3 3.099924 1_545
P1 Sc5 2.669041 1_554
P1 Sc1 2.690729 1_565
P1 Sc6 2.788992 1_555
P1 Sc9 2.788992 1_555
P1 Sc8 2.834700 1_565
P1 Sc7 2.834700 1_565
P1 Sc3 2.865746 1_555
P1 Sc2 3.099924 1_565
P1 Sc2 3.099924 1_465
P2 Sc2 2.669041 1_565
P2 Sc0 2.690729 1_554
P2 Sc6 2.788992 1_655
P2 Sc9 2.788992 1_555
P2 Sc7 2.834700 1_654
P2 Sc8 2.834700 1_554
P2 Sc4 2.865746 1_555
P2 Sc5 3.099924 1_654
P2 Sc5 3.099924 1_554
P3 Sc3 2.669041 1_545
P3 Sc1 2.690729 1_556
P3 Sc7 2.788992 1_555
P3 Sc8 2.788992 1_555
P3 Sc6 2.834700 1_556
P3 Sc9 2.834700 1_556
P3 Sc5 2.865746 1_555
P3 Sc4 3.099924 1_556
P3 Sc4 3.099924 1_456
