# generated using pymatgen
data_Cs16ZrSnSb8
_symmetry_space_group_name_H-M   'P 1'
_cell_length_a   12.50399359
_cell_length_b   12.50399257
_cell_length_c   12.50399359
_cell_angle_alpha   59.99999730
_cell_angle_beta   60.00000000
_cell_angle_gamma   60.00000329
_symmetry_Int_Tables_number   1
_chemical_formula_structural   Cs16ZrSnSb8
_chemical_formula_sum   'Cs16 Zr1 Sn1 Sb8'
_cell_volume   1382.39194820
_cell_formula_units_Z   1
loop_
 _symmetry_equiv_pos_site_id
 _symmetry_equiv_pos_as_xyz
  1  'x, y, z'
loop_
 _atom_site_type_symbol
 _atom_site_label
 _atom_site_symmetry_multiplicity
 _atom_site_fract_x
 _atom_site_fract_y
 _atom_site_fract_z
 _atom_site_occupancy
  Cs  Cs0  1  0.62297134  0.13108498  0.62297134  1
  Cs  Cs1  1  0.62297134  0.62297134  0.13108498  1
  Cs  Cs2  1  0.13108498  0.62297134  0.62297134  1
  Cs  Cs3  1  0.62297134  0.62297134  0.62297134  1
  Cs  Cs4  1  0.02248659  0.02248659  0.47751341  1
  Cs  Cs5  1  0.77603370  0.22396630  0.22396630  1
  Cs  Cs6  1  0.22396630  0.77603370  0.77603370  1
  Cs  Cs7  1  0.77603370  0.77603370  0.22396630  1
  Cs  Cs8  1  0.77603370  0.22396630  0.77603370  1
  Cs  Cs9  1  0.22396630  0.77603370  0.22396630  1
  Cs  Cs10  1  0.47751341  0.02248659  0.47751341  1
  Cs  Cs11  1  0.47751341  0.02248659  0.02248659  1
  Cs  Cs12  1  0.02248659  0.47751341  0.47751341  1
  Cs  Cs13  1  0.02248659  0.47751341  0.02248659  1
  Cs  Cs14  1  0.22396630  0.22396630  0.77603370  1
  Cs  Cs15  1  0.47751341  0.47751341  0.02248659  1
  Zr  Zr0  1  0.75000000  0.75000000  0.75000000  1
  Sn  Sn0  1  0.50000000  0.50000000  0.50000000  1
  Sb  Sb0  1  0.40272317  0.79182850  0.40272317  1
  Sb  Sb1  1  0.84468564  0.84468564  0.46594409  1
  Sb  Sb2  1  0.46594409  0.84468564  0.84468564  1
  Sb  Sb3  1  0.84468564  0.84468564  0.84468564  1
  Sb  Sb4  1  0.79182850  0.40272317  0.40272317  1
  Sb  Sb5  1  0.40272317  0.40272317  0.40272317  1
  Sb  Sb6  1  0.40272317  0.40272317  0.79182850  1
  Sb  Sb7  1  0.84468564  0.46594409  0.84468564  1
loop_
_geom_bond_atom_site_label_1
_geom_bond_atom_site_label_2
_geom_bond_distance
_geom_bond_site_symmetry_2
Cs0 Sn0 3.766426 1_555
Cs0 Zr0 3.890675 1_545
Cs0 Sb4 3.947363 1_555
Cs0 Sb6 3.947364 1_555
Cs0 Sb5 3.947371 1_555
Cs0 Sb2 4.003189 1_545
Cs0 Sb1 4.003189 1_545
Cs0 Sb3 4.003204 1_545
Cs0 Cs10 4.087498 1_555
Cs0 Cs11 4.087509 1_556
Cs0 Cs4 4.087509 1_655
Cs0 Cs5 4.096731 1_555
Cs0 Cs14 4.096731 1_555
Cs0 Cs8 4.096742 1_555
Cs1 Sn0 3.766426 1_555
Cs1 Zr0 3.890675 1_554
Cs1 Sb4 3.947364 1_555
Cs1 Sb0 3.947364 1_555
Cs1 Sb5 3.947371 1_555
Cs1 Sb2 4.003189 1_554
Cs1 Sb7 4.003189 1_554
Cs1 Sb3 4.003204 1_554
Cs1 Cs15 4.087498 1_555
Cs1 Cs11 4.087509 1_565
Cs1 Cs13 4.087509 1_655
Cs1 Cs5 4.096731 1_555
Cs1 Cs9 4.096731 1_555
Cs1 Cs7 4.096741 1_555
Cs2 Sn0 3.766426 1_555
Cs2 Zr0 3.890675 1_455
Cs2 Sb0 3.947363 1_555
Cs2 Sb6 3.947364 1_555
Cs2 Sb5 3.947371 1_555
Cs2 Sb7 4.003189 1_455
Cs2 Sb1 4.003189 1_455
Cs2 Sb3 4.003204 1_455
Cs2 Cs4 4.087509 1_565
Cs2 Cs9 4.096731 1_555
Cs2 Cs6 4.096741 1_555
Cs3 Sn0 3.766416 1_555
Cs3 Zr0 3.890685 1_555
Cs3 Sb6 3.947373 1_555
Cs3 Sb4 3.947373 1_555
Cs3 Sb0 3.947373 1_555
Cs3 Sb1 4.003209 1_555
Cs3 Sb2 4.003209 1_555
Cs3 Sb7 4.003209 1_555
Cs3 Cs8 4.096732 1_555
Cs3 Cs7 4.096732 1_555
Cs3 Cs6 4.096732 1_555
Cs4 Sb1 3.936027 1_445
Cs4 Sb3 3.936034 1_445
Cs4 Sb4 4.041807 1_455
Cs4 Sb0 4.041807 1_545
Cs5 Sb4 3.988723 1_555
Cs5 Sb5 3.988738 1_555
Cs5 Sb1 4.069402 1_545
Cs5 Sb7 4.069402 1_554
Cs6 Sb6 3.988744 1_555
Cs6 Sb0 3.988744 1_555
Cs6 Sb3 4.069399 1_455
Cs6 Sb2 4.069411 1_555
Cs7 Sb4 3.988744 1_555
Cs7 Sb0 3.988744 1_555
Cs7 Sb3 4.069399 1_554
Cs7 Sb1 4.069411 1_555
Cs8 Sb4 3.988744 1_555
Cs8 Sb6 3.988745 1_555
Cs8 Sb3 4.069399 1_545
Cs8 Sb7 4.069411 1_555
Cs9 Sb0 3.988723 1_555
Cs9 Sb5 3.988738 1_555
Cs9 Sb2 4.069403 1_554
Cs9 Sb1 4.069403 1_455
Cs10 Sb2 3.936038 1_545
Cs10 Sb1 3.936038 1_545
Cs10 Sb5 4.041801 1_555
Cs10 Sb0 4.041824 1_545
Cs10 Cs3 4.087508 1_545
Cs11 Sb2 3.936027 1_544
Cs11 Sb3 3.936035 1_544
Cs11 Sb6 4.041807 1_554
Cs11 Sb0 4.041807 1_545
Cs12 Sb1 3.936038 1_455
Cs12 Sb7 3.936038 1_455
Cs12 Sb5 4.041801 1_555
Cs12 Sb4 4.041825 1_455
Cs12 Cs2 4.087498 1_555
Cs12 Cs3 4.087508 1_455
Cs13 Sb7 3.936027 1_454
Cs13 Sb3 3.936034 1_454
Cs13 Sb4 4.041807 1_455
Cs13 Sb6 4.041807 1_554
Cs13 Cs2 4.087509 1_554
Cs14 Sb6 3.988723 1_555
Cs14 Sb5 3.988738 1_555
Cs14 Sb2 4.069403 1_545
Cs14 Sb7 4.069403 1_455
Cs14 Cs2 4.096731 1_555
Cs15 Sb2 3.936038 1_554
Cs15 Sb7 3.936038 1_554
Cs15 Sb5 4.041801 1_555
Cs15 Sb6 4.041825 1_554
Cs15 Cs3 4.087508 1_554
Sb0 Sn0 2.979413 1_555
Sb1 Zr0 2.900060 1_555
Sb2 Zr0 2.900060 1_555
Sb3 Zr0 2.900070 1_555
Sb4 Sn0 2.979414 1_555
Sb5 Sn0 2.979434 1_555
Sb6 Sn0 2.979414 1_555
Sb7 Zr0 2.900059 1_555
