# generated using pymatgen
data_Zr6Al16Pd6Ru
_symmetry_space_group_name_H-M   'P 1'
_cell_length_a   8.72735278
_cell_length_b   8.72735305
_cell_length_c   8.72735271
_cell_angle_alpha   59.99999755
_cell_angle_beta   59.99999656
_cell_angle_gamma   59.99999870
_symmetry_Int_Tables_number   1
_chemical_formula_structural   Zr6Al16Pd6Ru
_chemical_formula_sum   'Zr6 Al16 Pd6 Ru1'
_cell_volume   470.03758172
_cell_formula_units_Z   1
loop_
 _symmetry_equiv_pos_site_id
 _symmetry_equiv_pos_as_xyz
  1  'x, y, z'
loop_
 _atom_site_type_symbol
 _atom_site_label
 _atom_site_symmetry_multiplicity
 _atom_site_fract_x
 _atom_site_fract_y
 _atom_site_fract_z
 _atom_site_occupancy
  Zr  Zr0  1  0.18861981  0.81138019  0.81138019  1
  Zr  Zr1  1  0.81138019  0.18861981  0.18861981  1
  Zr  Zr2  1  0.81138019  0.18861981  0.81138019  1
  Zr  Zr3  1  0.81138019  0.81138019  0.18861981  1
  Zr  Zr4  1  0.18861981  0.81138019  0.18861981  1
  Zr  Zr5  1  0.18861981  0.18861981  0.81138019  1
  Al  Al0  1  0.83325555  0.83325555  0.83325555  1
  Al  Al1  1  0.83325555  0.83325555  0.50023134  1
  Al  Al2  1  0.50023134  0.83325555  0.83325555  1
  Al  Al3  1  0.83325555  0.50023134  0.83325555  1
  Al  Al4  1  0.16674445  0.16674445  0.16674445  1
  Al  Al5  1  0.16674445  0.16674445  0.49976866  1
  Al  Al6  1  0.16674445  0.49976866  0.16674445  1
  Al  Al7  1  0.49976866  0.16674445  0.16674445  1
  Al  Al8  1  0.61799221  0.61799221  0.61799221  1
  Al  Al9  1  0.61799221  0.61799221  0.14602537  1
  Al  Al10  1  0.14602537  0.61799221  0.61799221  1
  Al  Al11  1  0.61799221  0.14602537  0.61799221  1
  Al  Al12  1  0.38200779  0.38200779  0.38200779  1
  Al  Al13  1  0.38200779  0.38200779  0.85397463  1
  Al  Al14  1  0.38200779  0.85397463  0.38200779  1
  Al  Al15  1  0.85397463  0.38200779  0.38200779  1
  Pd  Pd0  1  0.00000000  0.50000000  0.50000000  1
  Pd  Pd1  1  0.50000000  0.00000000  0.00000000  1
  Pd  Pd2  1  0.50000000  0.00000000  0.50000000  1
  Pd  Pd3  1  0.50000000  0.50000000  0.00000000  1
  Pd  Pd4  1  0.00000000  0.50000000  0.00000000  1
  Pd  Pd5  1  0.00000000  0.00000000  0.50000000  1
  Ru  Ru0  1  0.50000000  0.50000000  0.50000000  1
loop_
_geom_bond_atom_site_label_1
_geom_bond_atom_site_label_2
_geom_bond_distance
_geom_bond_site_symmetry_2
Zr0 Zr3 3.292303 1_456
Zr0 Zr4 3.292303 1_556
Zr0 Zr2 3.292303 1_465
Zr0 Zr5 3.292303 1_565
Zr1 Zr5 3.292303 1_654
Zr1 Zr2 3.292303 1_554
Zr1 Zr4 3.292303 1_645
Zr1 Zr3 3.292303 1_545
Zr2 Zr3 3.292303 1_546
Zr2 Zr5 3.292303 1_655
Zr3 Zr4 3.292303 1_655
Zr4 Zr5 3.292303 1_564
Al0 Pd5 2.519370 1_665
Al0 Pd1 2.519370 1_566
Al0 Pd4 2.519370 1_656
Al0 Al9 2.789807 1_556
Al0 Al10 2.789807 1_655
Al0 Al11 2.789808 1_565
Al0 Al1 2.906420 1_555
Al0 Al2 2.906420 1_555
Al0 Al3 2.906420 1_555
Al0 Zr3 2.922971 1_556
Al0 Zr0 2.922971 1_655
Al0 Zr2 2.922972 1_565
Al1 Pd2 2.519365 1_565
Al1 Pd0 2.519365 1_655
Al1 Pd5 2.519380 1_665
Al1 Al8 2.789797 1_555
Al1 Al10 2.789826 1_655
Al1 Al11 2.789826 1_565
Al1 Al2 2.906420 1_555
Al1 Al3 2.906420 1_555
Al1 Zr3 2.922954 1_555
Al1 Zr4 2.922964 1_655
Al1 Zr1 2.922964 1_565
Al2 Pd2 2.519365 1_565
Al2 Pd3 2.519365 1_556
Al2 Pd1 2.519380 1_566
Al2 Al8 2.789797 1_555
Al2 Al9 2.789826 1_556
Al2 Al3 2.906420 1_555
Al2 Zr0 2.922954 1_555
Al2 Zr4 2.922964 1_556
Al2 Zr5 2.922964 1_565
Al3 Pd0 2.519365 1_655
Al3 Pd3 2.519365 1_556
Al3 Pd4 2.519380 1_656
Al3 Al8 2.789797 1_555
Al3 Al9 2.789826 1_556
Al3 Zr2 2.922954 1_555
Al3 Zr1 2.922964 1_556
Al3 Zr5 2.922964 1_655
Al4 Pd5 2.519370 1_555
Al4 Pd1 2.519370 1_555
Al4 Pd4 2.519370 1_555
Al4 Al5 2.906420 1_555
Al4 Al7 2.906420 1_555
Al4 Al6 2.906420 1_555
Al4 Zr5 2.922971 1_554
Al4 Zr1 2.922971 1_455
Al4 Zr4 2.922972 1_545
Al5 Pd2 2.519365 1_555
Al5 Pd0 2.519365 1_555
Al5 Pd5 2.519380 1_555
Al5 Al7 2.906420 1_555
Al5 Al6 2.906420 1_555
Al5 Zr5 2.922954 1_555
Al5 Zr2 2.922964 1_455
Al5 Zr0 2.922964 1_545
Al6 Pd0 2.519365 1_555
Al6 Pd3 2.519365 1_555
Al6 Pd4 2.519380 1_555
Al6 Al7 2.906420 1_555
Al6 Zr4 2.922954 1_555
Al6 Zr0 2.922964 1_554
Al6 Zr3 2.922964 1_455
Al7 Pd2 2.519365 1_555
Al7 Pd3 2.519365 1_555
Al7 Pd1 2.519380 1_555
Al7 Zr1 2.922954 1_555
Al7 Zr2 2.922964 1_554
Al7 Zr3 2.922964 1_545
Al8 Ru0 2.522386 1_555
Al8 Pd3 2.725793 1_556
Al8 Pd0 2.725793 1_655
Al8 Pd2 2.725793 1_565
Al8 Zr3 3.152574 1_555
Al8 Zr0 3.152574 1_555
Al8 Zr2 3.152574 1_555
Al9 Ru0 2.522371 1_555
Al9 Pd4 2.725794 1_655
Al9 Pd1 2.725794 1_565
Al9 Pd3 2.725808 1_555
Al9 Zr3 3.152563 1_555
Al9 Zr4 3.152577 1_555
Al9 Zr1 3.152578 1_555
Al10 Ru0 2.522371 1_555
Al10 Pd4 2.725794 1_556
Al10 Pd5 2.725794 1_565
Al10 Pd0 2.725808 1_555
Al10 Al3 2.789826 1_455
Al10 Al14 2.912575 1_555
Al10 Al13 2.912575 1_555
Al10 Al12 2.912600 1_555
Al10 Zr0 3.152563 1_555
Al10 Zr4 3.152577 1_555
Al10 Zr5 3.152578 1_555
Al11 Ru0 2.522371 1_555
Al11 Pd1 2.725794 1_556
Al11 Pd5 2.725794 1_655
Al11 Pd2 2.725808 1_555
Al11 Al2 2.789826 1_545
Al11 Al15 2.912575 1_555
Al11 Al13 2.912575 1_555
Al11 Al12 2.912600 1_555
Al11 Zr2 3.152562 1_555
Al11 Zr1 3.152577 1_555
Al11 Zr5 3.152577 1_555
Al12 Ru0 2.522386 1_555
Al12 Pd3 2.725793 1_555
Al12 Pd0 2.725793 1_555
Al12 Pd2 2.725793 1_555
Al12 Al6 2.789797 1_555
Al12 Al5 2.789797 1_555
Al12 Al7 2.789797 1_555
Al12 Al9 2.912600 1_555
Al12 Zr5 3.152574 1_555
Al12 Zr1 3.152574 1_555
Al12 Zr4 3.152574 1_555
Al13 Ru0 2.522371 1_555
Al13 Pd4 2.725794 1_556
Al13 Pd1 2.725794 1_556
Al13 Pd3 2.725808 1_556
Al13 Al4 2.789807 1_556
Al13 Al6 2.789826 1_556
Al13 Al7 2.789826 1_556
Al13 Al8 2.912600 1_555
Al13 Zr5 3.152563 1_555
Al13 Zr2 3.152577 1_555
Al13 Zr0 3.152578 1_555
Al14 Ru0 2.522371 1_555
Al14 Pd1 2.725794 1_565
Al14 Pd5 2.725794 1_565
Al14 Pd2 2.725808 1_565
Al14 Al4 2.789808 1_565
Al14 Al7 2.789826 1_565
Al14 Al5 2.789826 1_565
Al14 Al9 2.912575 1_555
Al14 Al8 2.912600 1_555
Al14 Zr4 3.152562 1_555
Al14 Zr0 3.152577 1_555
Al14 Zr3 3.152577 1_555
Al15 Ru0 2.522371 1_555
Al15 Pd4 2.725794 1_655
Al15 Pd5 2.725794 1_655
Al15 Pd0 2.725808 1_655
Al15 Al4 2.789807 1_655
Al15 Al6 2.789826 1_655
Al15 Al5 2.789826 1_655
Al15 Al9 2.912575 1_555
Al15 Al8 2.912600 1_555
Al15 Zr1 3.152563 1_555
Al15 Zr2 3.152577 1_555
Al15 Zr3 3.152578 1_555
Pd0 Zr4 3.177224 1_555
Pd0 Zr2 3.177224 1_455
Pd0 Zr5 3.177225 1_555
Pd0 Zr3 3.177225 1_455
Pd1 Zr2 3.177225 1_554
Pd1 Zr4 3.177225 1_545
Pd1 Zr3 3.177225 1_545
Pd1 Zr5 3.177225 1_554
Pd2 Zr1 3.177224 1_555
Pd2 Zr0 3.177224 1_545
Pd2 Zr5 3.177224 1_555
Pd2 Zr3 3.177224 1_545
Pd3 Zr1 3.177225 1_555
Pd3 Zr0 3.177225 1_554
Pd3 Zr2 3.177225 1_554
Pd3 Zr4 3.177225 1_555
Pd4 Zr0 3.177225 1_554
Pd4 Zr1 3.177225 1_455
Pd4 Zr3 3.177225 1_455
Pd4 Zr5 3.177225 1_554
Pd5 Zr4 3.177225 1_545
Pd5 Zr0 3.177225 1_545
Pd5 Zr2 3.177225 1_455
Pd5 Zr1 3.177225 1_455
