# generated using pymatgen
data_Zr3InF15
_symmetry_space_group_name_H-M   'P 1'
_cell_length_a   7.92314900
_cell_length_b   7.92314900
_cell_length_c   7.92314997
_cell_angle_alpha   99.85465601
_cell_angle_beta   99.85465601
_cell_angle_gamma   99.85465187
_symmetry_Int_Tables_number   1
_chemical_formula_structural   Zr3InF15
_chemical_formula_sum   'Zr6 In2 F30'
_cell_volume   472.41114963
_cell_formula_units_Z   2
loop_
 _symmetry_equiv_pos_site_id
 _symmetry_equiv_pos_as_xyz
  1  'x, y, z'
loop_
 _atom_site_type_symbol
 _atom_site_label
 _atom_site_symmetry_multiplicity
 _atom_site_fract_x
 _atom_site_fract_y
 _atom_site_fract_z
 _atom_site_occupancy
  Zr  Zr0  1  0.68022533  0.81977467  0.25000000  1
  Zr  Zr1  1  0.75000000  0.31977467  0.18022533  1
  Zr  Zr2  1  0.81977467  0.25000000  0.68022533  1
  Zr  Zr3  1  0.18022533  0.75000000  0.31977467  1
  Zr  Zr4  1  0.25000000  0.68022533  0.81977467  1
  Zr  Zr5  1  0.31977467  0.18022533  0.75000000  1
  In  In0  1  0.75000000  0.75000000  0.75000000  1
  In  In1  1  0.25000000  0.25000000  0.25000000  1
  F  F0  1  0.96221500  0.53778500  0.25000000  1
  F  F1  1  0.28537289  0.52068970  0.27853026  1
  F  F2  1  0.14841068  0.67393872  0.04783287  1
  F  F3  1  0.75000000  0.03778500  0.46221500  1
  F  F4  1  0.77853026  0.02068970  0.78537289  1
  F  F5  1  0.54783287  0.17393872  0.64841068  1
  F  F6  1  0.97931030  0.21462711  0.22146974  1
  F  F7  1  0.21462711  0.22146974  0.97931030  1
  F  F8  1  0.67393872  0.04783287  0.14841068  1
  F  F9  1  0.82606128  0.35158932  0.45216713  1
  F  F10  1  0.53778500  0.25000000  0.96221500  1
  F  F11  1  0.04783287  0.14841068  0.67393872  1
  F  F12  1  0.35158932  0.45216713  0.82606128  1
  F  F13  1  0.52068970  0.27853026  0.28537289  1
  F  F14  1  0.27853026  0.28537289  0.52068970  1
  F  F15  1  0.72146974  0.71462711  0.47931030  1
  F  F16  1  0.47931030  0.72146974  0.71462711  1
  F  F17  1  0.64841068  0.54783287  0.17393872  1
  F  F18  1  0.95216713  0.85158932  0.32606128  1
  F  F19  1  0.46221500  0.75000000  0.03778500  1
  F  F20  1  0.17393872  0.64841068  0.54783287  1
  F  F21  1  0.32606128  0.95216713  0.85158932  1
  F  F22  1  0.78537289  0.77853026  0.02068970  1
  F  F23  1  0.02068970  0.78537289  0.77853026  1
  F  F24  1  0.45216713  0.82606128  0.35158932  1
  F  F25  1  0.22146974  0.97931030  0.21462711  1
  F  F26  1  0.25000000  0.96221500  0.53778500  1
  F  F27  1  0.85158932  0.32606128  0.95216713  1
  F  F28  1  0.71462711  0.47931030  0.72146974  1
  F  F29  1  0.03778500  0.46221500  0.75000000  1
loop_
_geom_bond_atom_site_label_1
_geom_bond_atom_site_label_2
_geom_bond_distance
_geom_bond_site_symmetry_2
F0 Zr1 2.115946 1_555
F0 Zr3 2.115946 1_655
F1 In1 2.082321 1_555
F1 Zr3 2.123651 1_555
F2 Zr3 2.094469 1_555
F2 Zr4 2.104832 1_554
F3 Zr0 2.115946 1_545
F3 Zr2 2.115946 1_555
F4 In0 2.082321 1_545
F4 Zr2 2.123651 1_555
F5 Zr2 2.094468 1_555
F5 Zr5 2.104832 1_555
F6 In1 2.082321 1_655
F6 Zr1 2.123651 1_555
F7 In1 2.082321 1_556
F7 Zr5 2.123651 1_555
F8 Zr1 2.094468 1_555
F8 Zr0 2.104832 1_545
F9 Zr1 2.094469 1_555
F9 Zr2 2.104832 1_555
F10 Zr5 2.115946 1_555
F10 Zr1 2.115946 1_556
F11 Zr5 2.094468 1_555
F11 Zr2 2.104832 1_455
F12 Zr5 2.094468 1_555
F12 Zr4 2.104832 1_555
F13 In1 2.082321 1_555
F13 Zr1 2.123651 1_555
F14 In1 2.082321 1_555
F14 Zr5 2.123651 1_555
F15 In0 2.082321 1_555
F15 Zr0 2.123651 1_555
F16 In0 2.082321 1_555
F16 Zr4 2.123651 1_555
F17 Zr0 2.094468 1_555
F17 Zr1 2.104832 1_555
F18 Zr0 2.094468 1_555
F18 Zr3 2.104832 1_655
F19 Zr0 2.115946 1_555
F19 Zr4 2.115946 1_554
F20 Zr4 2.094469 1_555
F20 Zr3 2.104832 1_555
F21 Zr4 2.094468 1_555
F21 Zr5 2.104832 1_565
F22 In0 2.082321 1_554
F22 Zr0 2.123651 1_555
F23 In0 2.082321 1_455
F23 Zr4 2.123651 1_555
F24 Zr3 2.094468 1_555
F24 Zr0 2.104832 1_555
F25 In1 2.082321 1_565
F25 Zr3 2.123651 1_555
F26 Zr5 2.115946 1_565
F26 Zr3 2.115946 1_555
F27 Zr2 2.094469 1_555
F27 Zr1 2.104832 1_556
F28 In0 2.082321 1_555
F28 Zr2 2.123651 1_555
F29 Zr2 2.115946 1_455
F29 Zr4 2.115946 1_555
