# generated using pymatgen
data_Sr(PrSe2)2
_symmetry_space_group_name_H-M   'P 1'
_cell_length_a   7.87771371
_cell_length_b   7.87771347
_cell_length_c   7.87771432
_cell_angle_alpha   109.44792887
_cell_angle_beta   109.51780937
_cell_angle_gamma   109.44793472
_symmetry_Int_Tables_number   1
_chemical_formula_structural   Sr(PrSe2)2
_chemical_formula_sum   'Sr2 Pr4 Se8'
_cell_volume   376.33836164
_cell_formula_units_Z   2
loop_
 _symmetry_equiv_pos_site_id
 _symmetry_equiv_pos_as_xyz
  1  'x, y, z'
loop_
 _atom_site_type_symbol
 _atom_site_label
 _atom_site_symmetry_multiplicity
 _atom_site_fract_x
 _atom_site_fract_y
 _atom_site_fract_z
 _atom_site_occupancy
  Sr  Sr0  1  0.12500000  0.75000000  0.87500000  1
  Sr  Sr1  1  0.37500000  0.25000000  0.62500000  1
  Pr  Pr0  1  0.25000000  0.62719272  0.37719272  1
  Pr  Pr1  1  0.62280728  0.37280728  0.25000000  1
  Pr  Pr2  1  0.75000000  0.87280728  0.12280728  1
  Pr  Pr3  1  0.87719272  0.12719272  0.75000000  1
  Se  Se0  1  0.14280863  0.15123986  0.14340956  1
  Se  Se1  1  0.50782930  0.99939908  0.35659044  1
  Se  Se2  1  0.35719137  0.50060092  0.00843123  1
  Se  Se3  1  0.50843123  0.00060092  0.85719137  1
  Se  Se4  1  0.64340956  0.65123986  0.64280863  1
  Se  Se5  1  0.99156877  0.84876014  0.49217070  1
  Se  Se6  1  0.85659044  0.49939908  0.00782930  1
  Se  Se7  1  0.99217070  0.34876014  0.49156877  1
loop_
_geom_bond_atom_site_label_1
_geom_bond_atom_site_label_2
_geom_bond_distance
_geom_bond_site_symmetry_2
Pr0 Se4 3.005160 1_555
Pr0 Se6 3.005165 1_455
Pr0 Se7 3.052957 1_455
Pr0 Se1 3.052958 1_555
Pr0 Se0 3.227589 1_555
Pr0 Se2 3.227589 1_555
Pr0 Se3 3.249198 1_565
Pr0 Se5 3.249201 1_455
Pr1 Se2 3.005160 1_555
Pr1 Se7 3.005167 1_555
Pr1 Se3 3.052961 1_554
Pr1 Se4 3.052961 1_555
Pr1 Se5 3.227588 1_555
Pr1 Se6 3.227596 1_555
Pr1 Se0 3.249198 1_555
Pr1 Se1 3.249198 1_545
Pr2 Se3 3.005160 1_564
Pr2 Se5 3.005167 1_555
Pr2 Se2 3.052961 1_555
Pr2 Se0 3.052961 1_665
Pr2 Se7 3.227588 1_565
Pr2 Se1 3.227596 1_555
Pr2 Se4 3.249198 1_554
Pr2 Se6 3.249198 1_555
Pr3 Se0 3.005161 1_656
Pr3 Se1 3.005165 1_545
Pr3 Se5 3.052957 1_545
Pr3 Se6 3.052958 1_556
Pr3 Se4 3.227589 1_545
Pr3 Se3 3.227589 1_555
Pr3 Se2 3.249198 1_656
Pr3 Se7 3.249201 1_555
Se0 Sr0 3.088294 1_544
Se0 Sr1 3.285446 1_555
Se1 Sr1 3.088287 1_565
Se1 Sr0 3.285443 1_554
Se2 Sr1 3.088294 1_554
Se2 Sr0 3.285446 1_554
Se3 Sr0 3.088293 1_545
Se3 Sr1 3.285446 1_555
Se4 Sr1 3.088293 1_555
Se4 Sr0 3.285446 1_655
Se5 Sr1 3.088296 1_665
Se5 Sr0 3.285439 1_655
Se6 Sr0 3.088287 1_654
Se6 Sr1 3.285443 1_554
Se7 Sr0 3.088296 1_655
Se7 Sr1 3.285439 1_655
