# generated using pymatgen
data_Nb5B2As
_symmetry_space_group_name_H-M   'P 1'
_cell_length_a   7.35037684
_cell_length_b   7.35037713
_cell_length_c   7.35037739
_cell_angle_alpha   129.35942697
_cell_angle_beta   129.35943039
_cell_angle_gamma   74.43291912
_symmetry_Int_Tables_number   1
_chemical_formula_structural   Nb5B2As
_chemical_formula_sum   'Nb10 B4 As2'
_cell_volume   231.38217405
_cell_formula_units_Z   2
loop_
 _symmetry_equiv_pos_site_id
 _symmetry_equiv_pos_as_xyz
  1  'x, y, z'
loop_
 _atom_site_type_symbol
 _atom_site_label
 _atom_site_symmetry_multiplicity
 _atom_site_fract_x
 _atom_site_fract_y
 _atom_site_fract_z
 _atom_site_occupancy
  Nb  Nb0  1  0.00000000  0.00000000  0.00000000  1
  Nb  Nb1  1  0.50000000  0.50000000  0.00000000  1
  Nb  Nb2  1  0.80469739  0.30469739  0.83384093  1
  Nb  Nb3  1  0.19530261  0.69530261  0.16615907  1
  Nb  Nb4  1  0.47085646  0.97085646  0.16615907  1
  Nb  Nb5  1  0.30469739  0.47085646  0.50000000  1
  Nb  Nb6  1  0.02914354  0.19530261  0.50000000  1
  Nb  Nb7  1  0.52914354  0.02914354  0.83384093  1
  Nb  Nb8  1  0.69530261  0.52914354  0.50000000  1
  Nb  Nb9  1  0.97085646  0.80469739  0.50000000  1
  B  B0  1  0.11399638  0.61399638  0.72799075  1
  B  B1  1  0.88600362  0.38600362  0.27200925  1
  B  B2  1  0.61399638  0.88600362  0.50000000  1
  B  B3  1  0.38600362  0.11399638  0.50000000  1
  As  As0  1  0.25000000  0.25000000  0.00000000  1
  As  As1  1  0.75000000  0.75000000  0.00000000  1
loop_
_geom_bond_atom_site_label_1
_geom_bond_atom_site_label_2
_geom_bond_distance
_geom_bond_site_symmetry_2
B0 B1 2.027163 1_455
B0 Nb9 2.414888 1_455
B0 Nb5 2.414888 1_555
B0 Nb8 2.414903 1_455
B0 Nb6 2.414903 1_555
B0 Nb4 2.529069 1_556
B0 Nb3 2.529084 1_556
B0 Nb1 2.530501 1_556
B0 Nb0 2.530502 1_566
B1 Nb6 2.414888 1_655
B1 Nb8 2.414888 1_555
B1 Nb5 2.414903 1_655
B1 Nb9 2.414903 1_555
B1 Nb7 2.529069 1_554
B1 Nb2 2.529084 1_554
B1 Nb1 2.530501 1_555
B1 Nb0 2.530502 1_655
B2 B3 2.027181 1_565
B2 Nb3 2.414899 1_555
B2 Nb4 2.414899 1_555
B2 Nb2 2.414899 1_565
B2 Nb7 2.414899 1_565
B2 Nb9 2.529070 1_555
B2 Nb8 2.529070 1_555
B2 Nb0 2.530497 1_666
B2 Nb1 2.530498 1_555
B3 Nb2 2.414899 1_555
B3 Nb7 2.414899 1_555
B3 Nb3 2.414899 1_545
B3 Nb4 2.414899 1_545
B3 Nb6 2.529070 1_555
B3 Nb5 2.529070 1_555
B3 Nb0 2.530497 1_555
B3 Nb1 2.530498 1_556
As0 Nb2 2.685672 1_454
As0 Nb4 2.685672 1_545
As0 Nb7 2.685672 1_554
As0 Nb8 2.685672 1_555
As0 Nb3 2.685672 1_555
As0 Nb6 2.685672 1_554
As0 Nb9 2.685672 1_444
As0 Nb5 2.685672 1_555
As0 Nb0 2.926759 1_555
As0 Nb1 2.926759 1_555
As1 Nb3 2.685672 1_655
As1 Nb7 2.685672 1_564
As1 Nb4 2.685672 1_555
As1 Nb5 2.685672 1_554
As1 Nb2 2.685672 1_554
As1 Nb9 2.685672 1_555
As1 Nb6 2.685672 1_665
As1 Nb8 2.685672 1_554
As1 Nb1 2.926759 1_555
As1 Nb0 2.926759 1_665
