# generated using pymatgen
data_Zr4TiSn3P
_symmetry_space_group_name_H-M   'P 1'
_cell_length_a   8.53886100
_cell_length_b   8.53886281
_cell_length_c   5.84523418
_cell_angle_alpha   90.00001324
_cell_angle_beta   89.99997174
_cell_angle_gamma   120.00013599
_symmetry_Int_Tables_number   1
_chemical_formula_structural   Zr4TiSn3P
_chemical_formula_sum   'Zr8 Ti2 Sn6 P2'
_cell_volume   369.08970503
_cell_formula_units_Z   2
loop_
 _symmetry_equiv_pos_site_id
 _symmetry_equiv_pos_as_xyz
  1  'x, y, z'
loop_
 _atom_site_type_symbol
 _atom_site_label
 _atom_site_symmetry_multiplicity
 _atom_site_fract_x
 _atom_site_fract_y
 _atom_site_fract_z
 _atom_site_occupancy
  Zr  Zr0  1  0.33333334  0.66666642  0.49999990  1
  Zr  Zr1  1  0.66666666  0.33333358  0.50000010  1
  Zr  Zr2  1  0.74840809  0.74840782  0.74877134  1
  Zr  Zr3  1  0.25159197  0.00000047  0.74877085  1
  Zr  Zr4  1  0.00000060  0.25159176  0.74877145  1
  Zr  Zr5  1  0.25159191  0.25159218  0.25122866  1
  Zr  Zr6  1  0.74840803  0.99999953  0.25122915  1
  Zr  Zr7  1  0.99999940  0.74840824  0.25122855  1
  Ti  Ti0  1  0.66666688  0.33333411  0.00000004  1
  Ti  Ti1  1  0.33333312  0.66666589  0.99999996  1
  Sn  Sn0  1  0.40137706  0.40137716  0.76017450  1
  Sn  Sn1  1  0.59862312  0.99999995  0.76017448  1
  Sn  Sn2  1  0.99999994  0.59862302  0.76017458  1
  Sn  Sn3  1  0.59862294  0.59862284  0.23982550  1
  Sn  Sn4  1  0.40137688  0.00000005  0.23982552  1
  Sn  Sn5  1  0.00000006  0.40137698  0.23982542  1
  P  P0  1  0.00000000  0.00000000  0.00000000  1
  P  P1  1  0.00000000  0.00000000  0.50000000  1
loop_
_geom_bond_atom_site_label_1
_geom_bond_atom_site_label_2
_geom_bond_distance
_geom_bond_site_symmetry_2
Ti0 Zr1 2.922617 1_554
Ti0 Zr1 2.922617 1_555
Ti1 Zr0 2.922617 1_556
Ti1 Zr0 2.922617 1_555
Sn0 Ti1 2.958092 1_555
Sn0 Ti0 2.958097 1_556
Sn0 Zr2 2.963992 1_555
Sn0 Zr4 3.000521 1_555
Sn0 Zr3 3.000524 1_555
Sn0 Zr1 3.016283 1_555
Sn0 Zr0 3.016283 1_555
Sn0 Zr5 3.142386 1_556
Sn0 Zr5 3.238193 1_555
Sn1 Ti1 2.958097 1_555
Sn1 Ti0 2.958102 1_566
Sn1 Zr3 2.964003 1_565
Sn1 Zr4 3.000527 1_665
Sn1 Zr2 3.000532 1_555
Sn1 Zr0 3.016281 1_555
Sn1 Zr1 3.016285 1_565
Sn1 Zr6 3.142391 1_556
Sn1 Zr6 3.238191 1_555
Sn2 Ti0 2.958089 1_556
Sn2 Ti1 2.958097 1_655
Sn2 Zr4 2.964005 1_655
Sn2 Zr3 3.000527 1_665
Sn2 Zr2 3.000528 1_555
Sn2 Zr1 3.016279 1_555
Sn2 Zr0 3.016283 1_655
Sn2 Zr7 3.142388 1_556
Sn2 Zr7 3.238197 1_555
Sn3 Ti0 2.958092 1_555
Sn3 Ti1 2.958097 1_554
Sn3 Zr5 2.963992 1_555
Sn3 Zr7 3.000521 1_555
Sn3 Zr6 3.000524 1_555
Sn3 Zr0 3.016283 1_555
Sn3 Zr1 3.016283 1_555
Sn3 Zr2 3.142386 1_554
Sn3 Zr2 3.238193 1_555
Sn4 Ti0 2.958097 1_555
Sn4 Ti1 2.958102 1_544
Sn4 Zr6 2.964003 1_545
Sn4 Zr7 3.000527 1_445
Sn4 Zr5 3.000532 1_555
Sn4 Zr1 3.016281 1_555
Sn4 Zr0 3.016285 1_545
Sn4 Zr3 3.142391 1_554
Sn4 Zr3 3.238191 1_555
Sn5 Ti1 2.958089 1_554
Sn5 Ti0 2.958097 1_455
Sn5 Zr7 2.964005 1_455
Sn5 Zr6 3.000527 1_445
Sn5 Zr5 3.000528 1_555
Sn5 Zr0 3.016279 1_555
Sn5 Zr1 3.016283 1_455
Sn5 Zr4 3.142388 1_554
Sn5 Zr4 3.238197 1_555
P0 Zr4 2.602245 1_554
P0 Zr7 2.602245 1_445
P0 Zr5 2.602245 1_555
P0 Zr2 2.602245 1_444
P0 Zr3 2.602247 1_554
P0 Zr6 2.602247 1_445
P1 Zr5 2.594166 1_555
P1 Zr2 2.594166 1_445
P1 Zr4 2.594166 1_555
P1 Zr7 2.594166 1_445
P1 Zr3 2.594167 1_555
P1 Zr6 2.594167 1_445
