# generated using pymatgen
data_Mn2AlIr3S8
_symmetry_space_group_name_H-M   'P 1'
_cell_length_a   7.06180971
_cell_length_b   7.19640364
_cell_length_c   7.19640419
_cell_angle_alpha   59.99999745
_cell_angle_beta   59.36748868
_cell_angle_gamma   59.36748097
_symmetry_Int_Tables_number   1
_chemical_formula_structural   Mn2AlIr3S8
_chemical_formula_sum   'Mn2 Al1 Ir3 S8'
_cell_volume   256.10211488
_cell_formula_units_Z   1
loop_
 _symmetry_equiv_pos_site_id
 _symmetry_equiv_pos_as_xyz
  1  'x, y, z'
loop_
 _atom_site_type_symbol
 _atom_site_label
 _atom_site_symmetry_multiplicity
 _atom_site_fract_x
 _atom_site_fract_y
 _atom_site_fract_z
 _atom_site_occupancy
  Mn  Mn0  1  0.25866014  0.24711295  0.24711295  1
  Mn  Mn1  1  0.99133986  0.00288705  0.00288705  1
  Al  Al0  1  0.12500000  0.62500000  0.62500000  1
  Ir  Ir0  1  0.62500000  0.12500000  0.62500000  1
  Ir  Ir1  1  0.62500000  0.62500000  0.12500000  1
  Ir  Ir2  1  0.62500000  0.62500000  0.62500000  1
  S  S0  1  0.83147045  0.38950985  0.38950985  1
  S  S1  1  0.39115197  0.83480983  0.38701810  1
  S  S2  1  0.39115197  0.38701810  0.83480983  1
  S  S3  1  0.39115197  0.38701810  0.38701810  1
  S  S4  1  0.41852955  0.86049015  0.86049015  1
  S  S5  1  0.85884803  0.41519017  0.86298190  1
  S  S6  1  0.85884803  0.86298190  0.41519017  1
  S  S7  1  0.85884803  0.86298190  0.86298190  1
loop_
_geom_bond_atom_site_label_1
_geom_bond_atom_site_label_2
_geom_bond_distance
_geom_bond_site_symmetry_2
Mn0 S3 2.415855 1_555
Mn0 S1 2.415860 1_545
Mn0 S2 2.415861 1_554
Mn0 S0 2.439339 1_455
Mn1 S7 2.415855 1_544
Mn1 S5 2.415860 1_554
Mn1 S6 2.415861 1_545
Mn1 S4 2.439339 1_644
Al0 S2 2.402332 1_555
Al0 S6 2.402332 1_455
Al0 S1 2.402333 1_555
Al0 S5 2.402333 1_455
Al0 S7 2.402342 1_455
Al0 S3 2.402342 1_555
Ir0 S2 2.386452 1_555
Ir0 S6 2.386452 1_545
Ir0 S7 2.386462 1_545
Ir0 S3 2.386462 1_555
Ir0 S0 2.388660 1_555
Ir0 S4 2.388660 1_545
Ir1 S1 2.386452 1_555
Ir1 S5 2.386452 1_554
Ir1 S7 2.386462 1_554
Ir1 S3 2.386462 1_555
Ir1 S0 2.388660 1_555
Ir1 S4 2.388660 1_554
Ir2 S5 2.386463 1_555
Ir2 S1 2.386463 1_555
Ir2 S6 2.386463 1_555
Ir2 S2 2.386463 1_555
Ir2 S4 2.388660 1_555
Ir2 S0 2.388660 1_555
