# generated using pymatgen
data_Mg3AlP7N12
_symmetry_space_group_name_H-M   'P 1'
_cell_length_a   7.13242673
_cell_length_b   7.13242775
_cell_length_c   7.13242737
_cell_angle_alpha   109.50633153
_cell_angle_beta   109.50632688
_cell_angle_gamma   109.50631325
_symmetry_Int_Tables_number   1
_chemical_formula_structural   Mg3AlP7N12
_chemical_formula_sum   'Mg3 Al1 P7 N12'
_cell_volume   278.94876537
_cell_formula_units_Z   1
loop_
 _symmetry_equiv_pos_site_id
 _symmetry_equiv_pos_as_xyz
  1  'x, y, z'
loop_
 _atom_site_type_symbol
 _atom_site_label
 _atom_site_symmetry_multiplicity
 _atom_site_fract_x
 _atom_site_fract_y
 _atom_site_fract_z
 _atom_site_occupancy
  Mg  Mg0  1  0.99856393  0.66728488  0.99856393  1
  Mg  Mg1  1  0.66728488  0.99856393  0.99856393  1
  Mg  Mg2  1  0.99856393  0.99856393  0.66728488  1
  Al  Al0  1  0.35235965  0.35235965  0.35235965  1
  P  P0  1  0.49547671  0.24821304  0.74747985  1
  P  P1  1  0.49547671  0.74747985  0.24821304  1
  P  P2  1  0.74747985  0.24821304  0.49547671  1
  P  P3  1  0.24821304  0.49547671  0.74747985  1
  P  P4  1  0.74747985  0.49547671  0.24821304  1
  P  P5  1  0.24821304  0.74747985  0.49547671  1
  P  P6  1  0.03201255  0.03201255  0.03201255  1
  N  N0  1  0.99828371  0.71938259  0.44204772  1
  N  N1  1  0.26833908  0.70726804  0.26833908  1
  N  N2  1  0.29334467  0.55607848  0.55607848  1
  N  N3  1  0.55607848  0.55607848  0.29334467  1
  N  N4  1  0.55607848  0.29334467  0.55607848  1
  N  N5  1  0.71938259  0.99828371  0.44204772  1
  N  N6  1  0.44204772  0.99828371  0.71938259  1
  N  N7  1  0.71938259  0.44204772  0.99828371  1
  N  N8  1  0.26833908  0.26833908  0.70726804  1
  N  N9  1  0.70726804  0.26833908  0.26833908  1
  N  N10  1  0.99828371  0.44204772  0.71938259  1
  N  N11  1  0.44204772  0.71938259  0.99828371  1
loop_
_geom_bond_atom_site_label_1
_geom_bond_atom_site_label_2
_geom_bond_distance
_geom_bond_site_symmetry_2
Mg0 N1 2.068968 1_656
Mg0 N10 2.098749 1_555
Mg0 N7 2.098749 1_555
Mg0 P6 2.452377 1_666
Mg1 N9 2.068968 1_566
Mg1 N6 2.098749 1_555
Mg1 N11 2.098749 1_555
Mg1 P6 2.452376 1_666
Mg2 N8 2.068968 1_665
Mg2 N5 2.098749 1_555
Mg2 N0 2.098749 1_555
Mg2 P6 2.452377 1_666
Al0 N2 1.951051 1_555
Al0 N4 1.951051 1_555
Al0 N3 1.951051 1_555
Al0 P6 2.280890 1_555
N0 P5 1.618587 1_655
N0 P4 1.621055 1_555
N1 P1 1.612422 1_555
N1 P5 1.612422 1_555
N2 P5 1.657924 1_555
N2 P3 1.657924 1_555
N3 P4 1.657924 1_555
N3 P1 1.657924 1_555
N4 P2 1.657924 1_555
N4 P0 1.657924 1_555
N5 P2 1.618587 1_565
N5 P1 1.621056 1_555
N6 P0 1.618587 1_565
N6 P5 1.621055 1_555
N7 P4 1.618587 1_556
N7 P0 1.621055 1_555
N8 P0 1.612422 1_555
N8 P3 1.612422 1_555
N9 P2 1.612422 1_555
N9 P4 1.612422 1_555
N10 P3 1.618587 1_655
N10 P2 1.621055 1_555
N11 P1 1.618587 1_556
N11 P3 1.621055 1_555
