# generated using pymatgen
data_CaY3Sb6Rh7
_symmetry_space_group_name_H-M   'P 1'
_cell_length_a   7.55907714
_cell_length_b   7.58667095
_cell_length_c   7.58667072
_cell_angle_alpha   109.54478496
_cell_angle_beta   109.39756612
_cell_angle_gamma   109.39755362
_symmetry_Int_Tables_number   1
_chemical_formula_structural   CaY3Sb6Rh7
_chemical_formula_sum   'Ca1 Y3 Sb6 Rh7'
_cell_volume   335.23036123
_cell_formula_units_Z   1
loop_
 _symmetry_equiv_pos_site_id
 _symmetry_equiv_pos_as_xyz
  1  'x, y, z'
loop_
 _atom_site_type_symbol
 _atom_site_label
 _atom_site_symmetry_multiplicity
 _atom_site_fract_x
 _atom_site_fract_y
 _atom_site_fract_z
 _atom_site_occupancy
  Ca  Ca0  1  0.50000000  0.00000000  0.00000000  1
  Y  Y0  1  0.00000000  0.50000000  0.00000000  1
  Y  Y1  1  0.00000000  0.00000000  0.50000000  1
  Y  Y2  1  0.50000000  0.50000000  0.50000000  1
  Sb  Sb0  1  0.32078684  0.00000000  0.31775283  1
  Sb  Sb1  1  0.00303401  0.68224717  0.68224717  1
  Sb  Sb2  1  0.67921316  0.68224717  1.00000000  1
  Sb  Sb3  1  0.67921316  1.00000000  0.68224717  1
  Sb  Sb4  1  0.99696599  0.31775283  0.31775283  1
  Sb  Sb5  1  0.32078684  0.31775283  0.00000000  1
  Rh  Rh0  1  0.24680060  0.49360120  0.74680060  1
  Rh  Rh1  1  0.50000000  0.25319940  0.74680060  1
  Rh  Rh2  1  0.75319940  0.25319940  0.50639880  1
  Rh  Rh3  1  0.50000000  0.74680060  0.25319940  1
  Rh  Rh4  1  0.00000000  0.00000000  0.00000000  1
  Rh  Rh5  1  0.24680060  0.74680060  0.49360120  1
  Rh  Rh6  1  0.75319940  0.50639880  0.25319940  1
loop_
_geom_bond_atom_site_label_1
_geom_bond_atom_site_label_2
_geom_bond_distance
_geom_bond_site_symmetry_2
Ca0 Sb4 3.133020 1_555
Ca0 Sb1 3.133020 1_544
Ca0 Sb5 3.133020 1_555
Ca0 Sb2 3.133020 1_544
Ca0 Sb0 3.133020 1_555
Ca0 Sb3 3.133020 1_544
Ca0 Rh2 3.138306 1_555
Ca0 Rh5 3.138306 1_544
Ca0 Rh6 3.138306 1_555
Ca0 Rh0 3.138306 1_544
Ca0 Rh1 3.138306 1_554
Ca0 Rh3 3.138306 1_545
Sb0 Y0 3.157447 1_545
Sb0 Y2 3.157447 1_555
Sb0 Y1 3.165225 1_555
Sb1 Y0 3.157447 1_556
Sb1 Y1 3.157447 1_565
Sb1 Y2 3.165224 1_455
Sb2 Y1 3.157446 1_666
Sb2 Y2 3.157446 1_555
Sb2 Y0 3.165224 1_656
Sb3 Y0 3.157447 1_666
Sb3 Y2 3.157447 1_555
Sb3 Y1 3.165225 1_665
Sb4 Y0 3.157447 1_655
Sb4 Y1 3.157447 1_655
Sb4 Y2 3.165224 1_655
Sb5 Y1 3.157446 1_554
Sb5 Y2 3.157446 1_555
Sb5 Y0 3.165224 1_555
Rh0 Sb4 2.698020 1_455
Rh0 Sb5 2.698020 1_556
Rh0 Sb2 2.702741 1_555
Rh0 Sb1 2.702741 1_555
Rh0 Y1 3.058995 1_555
Rh0 Y0 3.090464 1_556
Rh0 Y2 3.090464 1_555
Rh1 Sb0 2.698020 1_555
Rh1 Sb2 2.698020 1_555
Rh1 Sb3 2.702741 1_545
Rh1 Sb5 2.702741 1_556
Rh1 Y2 3.058995 1_555
Rh1 Y0 3.090464 1_656
Rh1 Y1 3.090464 1_555
Rh2 Sb1 2.698020 1_655
Rh2 Sb3 2.698021 1_545
Rh2 Sb0 2.702741 1_555
Rh2 Sb4 2.702741 1_555
Rh2 Y0 3.058995 1_656
Rh2 Y2 3.090464 1_555
Rh2 Y1 3.090464 1_655
Rh3 Sb3 2.698020 1_555
Rh3 Sb5 2.698020 1_555
Rh3 Sb0 2.702741 1_565
Rh3 Sb2 2.702741 1_554
Rh3 Y2 3.058995 1_555
Rh3 Y0 3.090464 1_555
Rh3 Y1 3.090464 1_665
Rh4 Sb0 2.794361 1_555
Rh4 Sb3 2.794361 1_444
Rh4 Sb4 2.794361 1_455
Rh4 Sb1 2.794361 1_544
Rh4 Sb5 2.794361 1_555
Rh4 Sb2 2.794361 1_444
Rh5 Sb4 2.698020 1_455
Rh5 Sb0 2.698021 1_565
Rh5 Sb3 2.702741 1_555
Rh5 Sb1 2.702741 1_555
Rh5 Y0 3.058995 1_555
Rh5 Y2 3.090464 1_555
Rh5 Y1 3.090464 1_565
Rh6 Sb1 2.698020 1_655
Rh6 Sb2 2.698020 1_554
Rh6 Sb5 2.702741 1_555
Rh6 Sb4 2.702741 1_555
Rh6 Y1 3.058995 1_665
Rh6 Y0 3.090464 1_655
Rh6 Y2 3.090464 1_555
