# generated using pymatgen
data_YSc6Co6Sn23
_symmetry_space_group_name_H-M   'P 1'
_cell_length_a   9.53121321
_cell_length_b   9.53121501
_cell_length_c   9.63427050
_cell_angle_alpha   90.00000000
_cell_angle_beta   90.00000000
_cell_angle_gamma   120.00000409
_symmetry_Int_Tables_number   1
_chemical_formula_structural   YSc6Co6Sn23
_chemical_formula_sum   'Y1 Sc6 Co6 Sn23'
_cell_volume   757.95932602
_cell_formula_units_Z   1
loop_
 _symmetry_equiv_pos_site_id
 _symmetry_equiv_pos_as_xyz
  1  'x, y, z'
loop_
 _atom_site_type_symbol
 _atom_site_label
 _atom_site_symmetry_multiplicity
 _atom_site_fract_x
 _atom_site_fract_y
 _atom_site_fract_z
 _atom_site_occupancy
  Y  Y0  1  0.00000000  0.00000000  0.00000000  1
  Sc  Sc0  1  0.03506036  0.51752968  0.30805263  1
  Sc  Sc1  1  0.48247032  0.96493964  0.30805263  1
  Sc  Sc2  1  0.48247032  0.51752968  0.30805263  1
  Sc  Sc3  1  0.96493964  0.48247032  0.69194737  1
  Sc  Sc4  1  0.51752968  0.03506036  0.69194737  1
  Sc  Sc5  1  0.51752968  0.48247032  0.69194737  1
  Co  Co0  1  0.16926734  0.83073266  0.80068302  1
  Co  Co1  1  0.66146532  0.83073266  0.80068302  1
  Co  Co2  1  0.16926734  0.33853468  0.80068302  1
  Co  Co3  1  0.83073266  0.16926734  0.19931698  1
  Co  Co4  1  0.33853468  0.16926734  0.19931698  1
  Co  Co5  1  0.83073266  0.66146532  0.19931698  1
  Sn  Sn0  1  0.00000000  0.00000000  0.50000000  1
  Sn  Sn1  1  0.12071930  0.87928070  0.27816072  1
  Sn  Sn2  1  0.75856039  0.87928070  0.27816072  1
  Sn  Sn3  1  0.12071930  0.24143961  0.27816072  1
  Sn  Sn4  1  0.87928070  0.12071930  0.72183928  1
  Sn  Sn5  1  0.24143961  0.12071930  0.72183928  1
  Sn  Sn6  1  0.87928070  0.75856039  0.72183928  1
  Sn  Sn7  1  0.34851997  0.00000000  0.00000000  1
  Sn  Sn8  1  0.65148003  0.65148003  0.00000000  1
  Sn  Sn9  1  1.00000000  0.34851997  0.00000000  1
  Sn  Sn10  1  0.34851997  0.34851997  0.00000000  1
  Sn  Sn11  1  0.00000000  0.65148003  0.00000000  1
  Sn  Sn12  1  0.65148003  1.00000000  0.00000000  1
  Sn  Sn13  1  0.77854349  0.55708598  0.45445047  1
  Sn  Sn14  1  0.77854349  0.22145651  0.45445047  1
  Sn  Sn15  1  0.44291402  0.22145651  0.45445047  1
  Sn  Sn16  1  0.22145651  0.44291402  0.54554953  1
  Sn  Sn17  1  0.22145651  0.77854349  0.54554953  1
  Sn  Sn18  1  0.55708598  0.77854349  0.54554953  1
  Sn  Sn19  1  0.66666700  0.33333300  0.17318384  1
  Sn  Sn20  1  0.33333300  0.66666700  0.82681616  1
  Sn  Sn21  1  0.66666700  0.33333300  0.86717267  1
  Sn  Sn22  1  0.33333300  0.66666700  0.13282733  1
loop_
_geom_bond_atom_site_label_1
_geom_bond_atom_site_label_2
_geom_bond_distance
_geom_bond_site_symmetry_2
Sc0 Sn22 2.985209 1_555
Sc0 Sn13 3.005142 1_455
Sc0 Sn14 3.005142 1_455
Sc0 Sn3 3.134099 1_555
Sc0 Sn1 3.134118 1_555
Sc0 Sn16 3.187621 1_555
Sc0 Sn17 3.187630 1_555
Sc0 Sn19 3.306800 1_455
Sc0 Sn9 3.313076 1_455
Sc0 Sn11 3.313080 1_555
Sc1 Sn22 2.985209 1_555
Sc1 Sn14 3.005141 1_565
Sc1 Sn15 3.005142 1_565
Sc1 Sn2 3.134099 1_555
Sc1 Sn1 3.134117 1_555
Sc1 Sn18 3.187621 1_555
Sc1 Sn17 3.187630 1_555
Sc1 Sn19 3.306800 1_565
Sc1 Sn12 3.313075 1_555
Sc1 Sn7 3.313080 1_565
Sc2 Sn22 2.985223 1_555
Sc2 Sn13 3.005141 1_555
Sc2 Sn15 3.005142 1_555
Sc2 Sn3 3.134112 1_555
Sc2 Sn2 3.134112 1_555
Sc2 Sn16 3.187633 1_555
Sc2 Sn18 3.187634 1_555
Sc2 Sn19 3.306800 1_555
Sc2 Sn8 3.313077 1_555
Sc2 Sn10 3.313077 1_555
Sc3 Sn21 2.985209 1_555
Sc3 Sn16 3.005142 1_655
Sc3 Sn17 3.005142 1_655
Sc3 Sn6 3.134099 1_555
Sc3 Sn4 3.134118 1_555
Sc3 Sn13 3.187621 1_555
Sc3 Sn14 3.187630 1_555
Sc3 Sn20 3.306800 1_655
Sc3 Sn11 3.313076 1_656
Sc3 Sn9 3.313080 1_556
Sc4 Sn21 2.985209 1_555
Sc4 Sn17 3.005141 1_545
Sc4 Sn18 3.005142 1_545
Sc4 Sn5 3.134099 1_555
Sc4 Sn4 3.134117 1_555
Sc4 Sn15 3.187621 1_555
Sc4 Sn14 3.187630 1_555
Sc4 Sn20 3.306800 1_545
Sc4 Sn7 3.313075 1_556
Sc4 Sn12 3.313080 1_546
Sc5 Sn21 2.985223 1_555
Sc5 Sn16 3.005141 1_555
Sc5 Sn18 3.005142 1_555
Sc5 Sn6 3.134112 1_555
Sc5 Sn5 3.134112 1_555
Sc5 Sn13 3.187633 1_555
Sc5 Sn15 3.187634 1_555
Sc5 Sn20 3.306800 1_555
Sc5 Sn10 3.313077 1_556
Sc5 Sn8 3.313077 1_556
Co0 Sn7 2.540249 1_566
Co0 Sn11 2.540249 1_556
Co0 Sn17 2.604647 1_555
Co0 Sn6 2.605416 1_455
Co0 Sn5 2.605416 1_565
Co0 Sn20 2.720163 1_555
Co0 Sc4 3.073093 1_565
Co0 Sc3 3.073094 1_455
Co0 Y0 3.390559 1_566
Co1 Sn12 2.540249 1_556
Co1 Sn8 2.540249 1_556
Co1 Sn18 2.604650 1_555
Co1 Sn4 2.605419 1_565
Co1 Sn6 2.605425 1_555
Co1 Sn20 2.720170 1_555
Co1 Sc5 3.073093 1_555
Co1 Sc4 3.073101 1_565
Co1 Y0 3.390558 1_666
Co2 Sn10 2.540249 1_556
Co2 Sn9 2.540249 1_456
Co2 Sn16 2.604650 1_555
Co2 Sn4 2.605418 1_455
Co2 Sn5 2.605425 1_555
Co2 Sn20 2.720171 1_555
Co2 Sc5 3.073092 1_555
Co2 Sc3 3.073101 1_455
Co2 Y0 3.390559 1_556
Co3 Sn12 2.540249 1_545
Co3 Sn9 2.540249 1_555
Co3 Sn14 2.604647 1_555
Co3 Sn3 2.605416 1_655
Co3 Sn2 2.605416 1_545
Co3 Sn19 2.720163 1_555
Co3 Sc1 3.073093 1_545
Co3 Sc0 3.073094 1_655
Co3 Y0 3.390559 1_655
Co4 Sn7 2.540249 1_555
Co4 Sn10 2.540249 1_555
Co4 Sn15 2.604650 1_555
Co4 Sn1 2.605419 1_545
Co4 Sn3 2.605425 1_555
Co4 Sn19 2.720170 1_555
Co4 Sc2 3.073093 1_555
Co4 Sc1 3.073101 1_545
Co4 Y0 3.390558 1_555
Co5 Sn8 2.540249 1_555
Co5 Sn11 2.540249 1_655
Co5 Sn13 2.604650 1_555
Co5 Sn1 2.605418 1_655
Co5 Sn2 2.605425 1_555
Co5 Sn19 2.720171 1_555
Co5 Sc2 3.073092 1_555
Co5 Sc0 3.073101 1_655
Co5 Y0 3.390559 1_665
Sn0 Sn4 2.922248 1_455
Sn0 Sn1 2.922248 1_545
Sn0 Sn5 2.922253 1_555
Sn0 Sn2 2.922253 1_445
Sn0 Sn6 2.922253 1_445
Sn0 Sn3 2.922253 1_555
Sn1 Sn17 3.066255 1_555
Sn1 Y0 3.339668 1_565
Sn2 Y0 3.339673 1_665
Sn3 Y0 3.339673 1_555
Sn4 Y0 3.339668 1_656
Sn5 Y0 3.339673 1_556
Sn6 Y0 3.339673 1_666
Sn7 Y0 3.321818 1_555
Sn8 Y0 3.321818 1_665
Sn9 Y0 3.321819 1_655
Sn10 Y0 3.321818 1_555
Sn11 Y0 3.321819 1_565
Sn12 Y0 3.321818 1_665
Sn13 Sn6 3.066256 1_555
Sn14 Sn4 3.066255 1_555
Sn15 Sn5 3.066255 1_555
Sn16 Sn3 3.066256 1_555
Sn18 Sn2 3.066255 1_555
Sn19 Sn21 2.948194 1_554
Sn20 Sn22 2.948194 1_556
