# generated using pymatgen
data_Ba2Sb4PdRh
_symmetry_space_group_name_H-M   'P 1'
_cell_length_a   9.67475001
_cell_length_b   9.67475033
_cell_length_c   4.89282306
_cell_angle_alpha   90.00000000
_cell_angle_beta   90.00000000
_cell_angle_gamma   150.56245415
_symmetry_Int_Tables_number   1
_chemical_formula_structural   Ba2Sb4PdRh
_chemical_formula_sum   'Ba2 Sb4 Pd1 Rh1'
_cell_volume   225.08163744
_cell_formula_units_Z   1
loop_
 _symmetry_equiv_pos_site_id
 _symmetry_equiv_pos_as_xyz
  1  'x, y, z'
loop_
 _atom_site_type_symbol
 _atom_site_label
 _atom_site_symmetry_multiplicity
 _atom_site_fract_x
 _atom_site_fract_y
 _atom_site_fract_z
 _atom_site_occupancy
  Ba  Ba0  1  0.39463912  0.60536088  0.75000000  1
  Ba  Ba1  1  0.60791876  0.39208124  0.25000000  1
  Sb  Sb0  1  0.04465033  0.95534967  0.75000000  1
  Sb  Sb1  1  0.95001418  0.04998582  0.25000000  1
  Sb  Sb2  1  0.25146315  0.74853685  0.25000000  1
  Sb  Sb3  1  0.75314610  0.24685390  0.75000000  1
  Pd  Pd0  1  0.18752390  0.81247610  0.75000000  1
  Rh  Rh0  1  0.81064246  0.18935754  0.25000000  1
loop_
_geom_bond_atom_site_label_1
_geom_bond_atom_site_label_2
_geom_bond_distance
_geom_bond_site_symmetry_2
Ba0 Sb3 3.613044 1_455
Ba0 Sb3 3.613044 1_565
Ba0 Sb1 3.619557 1_565
Ba0 Sb1 3.619557 1_566
Ba0 Sb1 3.619557 1_455
Ba0 Sb1 3.619557 1_456
Ba0 Sb2 3.628292 1_555
Ba0 Sb2 3.628292 1_556
Ba0 Sb0 3.731454 1_655
Ba0 Sb0 3.731454 1_545
Ba0 Rh0 3.807662 1_455
Ba0 Rh0 3.807662 1_456
Ba0 Rh0 3.807662 1_566
Ba0 Rh0 3.807662 1_565
Ba0 Pd0 3.876065 1_555
Ba1 Sb2 3.641274 1_655
Ba1 Sb2 3.641274 1_545
Ba1 Sb3 3.656734 1_554
Ba1 Sb3 3.656734 1_555
Ba1 Sb0 3.664585 1_544
Ba1 Sb0 3.664585 1_545
Ba1 Sb0 3.664586 1_655
Ba1 Sb0 3.664586 1_654
Ba1 Pd0 3.774475 1_655
Ba1 Pd0 3.774475 1_654
Ba1 Pd0 3.774475 1_545
Ba1 Pd0 3.774475 1_544
Ba1 Rh0 3.793880 1_555
Ba1 Sb1 3.843825 1_455
Ba1 Sb1 3.843825 1_565
Sb0 Sb1 3.020203 1_466
Sb0 Sb1 3.020203 1_465
Pd0 Sb0 2.673813 1_555
Pd0 Sb2 2.723374 1_555
Pd0 Sb2 2.723374 1_556
Pd0 Sb3 2.747819 1_565
Pd0 Sb3 2.747819 1_455
Rh0 Sb1 2.608277 1_555
Rh0 Sb3 2.672591 1_555
Rh0 Sb3 2.672591 1_554
Rh0 Sb2 2.696089 1_545
Rh0 Sb2 2.696089 1_655
