# generated using pymatgen
data_MgGeO3
_symmetry_space_group_name_H-M   'P 1'
_cell_length_a   4.88136629
_cell_length_b   4.88136629
_cell_length_c   6.93351539
_cell_angle_alpha   90.00000000
_cell_angle_beta   90.00000000
_cell_angle_gamma   146.49240551
_symmetry_Int_Tables_number   1
_chemical_formula_structural   MgGeO3
_chemical_formula_sum   'Mg2 Ge2 O6'
_cell_volume   91.20375853
_cell_formula_units_Z   2
loop_
 _symmetry_equiv_pos_site_id
 _symmetry_equiv_pos_as_xyz
  1  'x, y, z'
loop_
 _atom_site_type_symbol
 _atom_site_label
 _atom_site_symmetry_multiplicity
 _atom_site_fract_x
 _atom_site_fract_y
 _atom_site_fract_z
 _atom_site_occupancy
  Mg  Mg0  1  0.26030089  0.73969911  0.25000000  1
  Mg  Mg1  1  0.73969911  0.26030089  0.75000000  1
  Ge  Ge0  1  -0.00000000  0.00000000  0.50000000  1
  Ge  Ge1  1  0.00000000  -0.00000000  -0.00000000  1
  O  O0  1  0.36892691  0.63107309  0.94021129  1
  O  O1  1  0.63107309  0.36892691  0.05978871  1
  O  O2  1  0.63107309  0.36892691  0.44021129  1
  O  O3  1  0.36892691  0.63107309  0.55978871  1
  O  O4  1  0.08294773  0.91705227  0.75000000  1
  O  O5  1  0.91705227  0.08294773  0.25000000  1
loop_
_geom_bond_atom_site_label_1
_geom_bond_atom_site_label_2
_geom_bond_distance
_geom_bond_site_symmetry_2
Mg0 O5 2.031557 1_455
Mg0 O5 2.031557 1_565
Mg0 O1 2.275670 1_565
Mg0 O2 2.275670 1_565
Mg0 O1 2.275670 1_455
Mg0 O2 2.275670 1_455
Mg0 O3 2.375871 1_555
Mg0 O0 2.375871 1_554
Mg1 O4 2.031557 1_655
Mg1 O4 2.031557 1_545
Mg1 O0 2.275670 1_655
Mg1 O3 2.275670 1_655
Mg1 O3 2.275670 1_545
Mg1 O0 2.275670 1_545
Mg1 O2 2.375871 1_555
Mg1 O1 2.375871 1_556
Ge0 O5 1.898916 1_455
Ge0 O4 1.898916 1_545
Ge0 O3 1.911329 1_555
Ge0 O2 1.911329 1_555
Ge0 O3 1.911329 1_445
Ge0 O2 1.911329 1_445
Ge1 O5 1.898916 1_455
Ge1 O4 1.898916 1_544
Ge1 O1 1.911329 1_445
Ge1 O0 1.911329 1_554
Ge1 O1 1.911329 1_555
Ge1 O0 1.911329 1_444
