# generated using pymatgen
data_LiB2Ir2Pt
_symmetry_space_group_name_H-M   'P 1'
_cell_length_a   6.82322698
_cell_length_b   6.02314314
_cell_length_c   5.49524148
_cell_angle_alpha   72.48764563
_cell_angle_beta   57.33364294
_cell_angle_gamma   52.23544108
_symmetry_Int_Tables_number   1
_chemical_formula_structural   LiB2Ir2Pt
_chemical_formula_sum   'Li2 B4 Ir4 Pt2'
_cell_volume   150.14555430
_cell_formula_units_Z   2
loop_
 _symmetry_equiv_pos_site_id
 _symmetry_equiv_pos_as_xyz
  1  'x, y, z'
loop_
 _atom_site_type_symbol
 _atom_site_label
 _atom_site_symmetry_multiplicity
 _atom_site_fract_x
 _atom_site_fract_y
 _atom_site_fract_z
 _atom_site_occupancy
  Li  Li0  1  0.12500000  0.62500000  0.62500000  1
  Li  Li1  1  0.62500000  0.12500000  0.62500000  1
  B  B0  1  0.43885585  0.04044902  0.42322023  1
  B  B1  1  0.20955098  0.81114415  0.15252511  1
  B  B2  1  0.04044902  0.43885585  0.09747489  1
  B  B3  1  0.81114415  0.20955098  0.82677977  1
  Ir  Ir0  1  0.38138941  0.38138941  0.11861059  1
  Ir  Ir1  1  0.86861059  0.86861059  0.13138941  1
  Ir  Ir2  1  0.13760087  0.13760087  0.86239913  1
  Ir  Ir3  1  0.11239913  0.11239913  0.38760087  1
  Pt  Pt0  1  0.62500000  0.62500000  0.62500000  1
  Pt  Pt1  1  0.62500000  0.62500000  0.12500000  1
loop_
_geom_bond_atom_site_label_1
_geom_bond_atom_site_label_2
_geom_bond_distance
_geom_bond_site_symmetry_2
B0 Ir2 2.100856 1_555
B0 Ir3 2.103587 1_555
B0 Ir1 2.108737 1_545
B0 Ir0 2.196876 1_555
B0 Pt0 2.249865 1_545
B0 Li1 2.398828 1_555
B0 Pt1 2.624620 1_545
B1 Ir3 2.100856 1_565
B1 Ir2 2.103587 1_564
B1 Ir0 2.108737 1_555
B1 Ir1 2.196876 1_455
B1 Pt1 2.249865 1_555
B1 Li0 2.398828 1_555
B1 Pt0 2.624619 1_554
B2 Ir2 2.100856 1_554
B2 Ir3 2.103587 1_555
B2 Ir1 2.108737 1_455
B2 Ir0 2.196876 1_555
B2 Pt1 2.249865 1_455
B2 Li0 2.398828 1_554
B2 Pt0 2.624619 1_455
B3 Ir3 2.100856 1_655
B3 Ir2 2.103587 1_655
B3 Ir0 2.108737 1_556
B3 Ir1 2.196876 1_546
B3 Pt0 2.249865 1_555
B3 Li1 2.398828 1_555
B3 Pt1 2.624620 1_556
Ir0 Li0 2.648614 1_555
Ir0 Li1 2.648614 1_554
Ir1 Li0 2.648614 1_654
Ir1 Li1 2.648614 1_565
