# generated using pymatgen
data_Co3Cu2PS8
_symmetry_space_group_name_H-M   'P 1'
_cell_length_a   6.71611732
_cell_length_b   6.66919246
_cell_length_c   6.71611677
_cell_angle_alpha   59.76696761
_cell_angle_beta   59.99999304
_cell_angle_gamma   59.76696714
_symmetry_Int_Tables_number   1
_chemical_formula_structural   Co3Cu2PS8
_chemical_formula_sum   'Co3 Cu2 P1 S8'
_cell_volume   211.96102878
_cell_formula_units_Z   1
loop_
 _symmetry_equiv_pos_site_id
 _symmetry_equiv_pos_as_xyz
  1  'x, y, z'
loop_
 _atom_site_type_symbol
 _atom_site_label
 _atom_site_symmetry_multiplicity
 _atom_site_fract_x
 _atom_site_fract_y
 _atom_site_fract_z
 _atom_site_occupancy
  Co  Co0  1  0.12500000  0.12500000  0.62500000  1
  Co  Co1  1  0.12500000  0.12500000  0.12500000  1
  Co  Co2  1  0.62500000  0.12500000  0.12500000  1
  Cu  Cu0  1  0.75117891  0.74646328  0.75117891  1
  Cu  Cu1  1  0.49882109  0.50353672  0.49882109  1
  P  P0  1  0.12500000  0.62500000  0.12500000  1
  S  S0  1  0.88733199  0.33800504  0.88733199  1
  S  S1  1  0.36531893  0.35931438  0.91004776  1
  S  S2  1  0.36531893  0.35931438  0.36531893  1
  S  S3  1  0.91004776  0.35931438  0.36531893  1
  S  S4  1  0.88468107  0.89068562  0.88468107  1
  S  S5  1  0.33995224  0.89068562  0.88468107  1
  S  S6  1  0.36266801  0.91199496  0.36266801  1
  S  S7  1  0.88468107  0.89068562  0.33995224  1
loop_
_geom_bond_atom_site_label_1
_geom_bond_atom_site_label_2
_geom_bond_distance
_geom_bond_site_symmetry_2
Co0 S5 2.251483 1_545
Co0 S3 2.251483 1_455
Co0 S2 2.251483 1_555
Co0 S4 2.251483 1_445
Co0 S0 2.257146 1_455
Co0 S6 2.257146 1_545
Co1 S3 2.251483 1_455
Co1 S5 2.251483 1_544
Co1 S1 2.251483 1_554
Co1 S7 2.251483 1_445
Co1 S6 2.257141 1_545
Co1 S0 2.257141 1_454
Co2 S2 2.251483 1_555
Co2 S4 2.251483 1_544
Co2 S7 2.251483 1_545
Co2 S1 2.251483 1_554
Co2 S0 2.257146 1_554
Co2 S6 2.257146 1_545
Cu0 S0 2.216341 1_555
Cu0 S7 2.252523 1_555
Cu0 S5 2.252523 1_555
Cu0 S4 2.252523 1_555
Cu1 S6 2.216341 1_555
Cu1 S1 2.252523 1_555
Cu1 S3 2.252523 1_555
Cu1 S2 2.252523 1_555
P0 S2 2.279198 1_555
P0 S4 2.279198 1_454
P0 S7 2.279198 1_455
P0 S1 2.279198 1_554
P0 S5 2.279198 1_554
P0 S3 2.279198 1_455
