# generated using pymatgen
data_Ba8Si12Ag3Hg
_symmetry_space_group_name_H-M   'P 1'
_cell_length_a   12.53539649
_cell_length_b   10.96088228
_cell_length_c   8.61192659
_cell_angle_alpha   78.64433438
_cell_angle_beta   58.94151439
_cell_angle_gamma   42.35782683
_symmetry_Int_Tables_number   1
_chemical_formula_structural   Ba8Si12Ag3Hg
_chemical_formula_sum   'Ba8 Si12 Ag3 Hg1'
_cell_volume   647.17934892
_cell_formula_units_Z   1
loop_
 _symmetry_equiv_pos_site_id
 _symmetry_equiv_pos_as_xyz
  1  'x, y, z'
loop_
 _atom_site_type_symbol
 _atom_site_label
 _atom_site_symmetry_multiplicity
 _atom_site_fract_x
 _atom_site_fract_y
 _atom_site_fract_z
 _atom_site_occupancy
  Ba  Ba0  1  0.12459231  0.12189390  0.37755130  1
  Ba  Ba1  1  0.87578155  0.87976824  0.12342102  1
  Ba  Ba2  1  0.12352940  0.12108638  0.87560289  1
  Ba  Ba3  1  0.37739998  0.37599728  0.12463554  1
  Ba  Ba4  1  0.62092432  0.62471464  0.37862319  1
  Ba  Ba5  1  0.37865511  0.37565124  0.62087531  1
  Ba  Ba6  1  0.62488545  0.62477191  0.87446304  1
  Ba  Ba7  1  0.87453448  0.87589187  0.62474410  1
  Si  Si0  1  0.33775077  0.65661368  0.82206175  1
  Si  Si1  1  0.18234724  0.81989425  0.65825006  1
  Si  Si2  1  0.82204747  0.18354955  0.33781759  1
  Si  Si3  1  0.65818603  0.33945012  0.18247898  1
  Si  Si4  1  0.91124449  0.59703684  0.43142303  1
  Si  Si5  1  0.07057231  0.42144008  0.59168915  1
  Si  Si6  1  0.43144593  0.06029818  0.91117875  1
  Si  Si7  1  0.90782277  0.59253375  0.90730259  1
  Si  Si8  1  0.65990120  0.33991607  0.66003799  1
  Si  Si9  1  0.33997121  0.65995160  0.34012758  1
  Si  Si10  1  0.58714998  0.91298956  0.58718417  1
  Si  Si11  1  0.59159566  0.91629448  0.07061383  1
  Ag  Ag0  1  0.16691713  0.83299123  0.16673047  1
  Ag  Ag1  1  0.41687437  0.08323500  0.41654132  1
  Ag  Ag2  1  0.83286760  0.16701766  0.83330600  1
  Hg  Hg0  1  0.08300124  0.41701150  0.08334035  1
loop_
_geom_bond_atom_site_label_1
_geom_bond_atom_site_label_2
_geom_bond_distance
_geom_bond_site_symmetry_2
Ba0 Si2 3.523795 1_455
Ba0 Si1 3.526749 1_545
Ba0 Si5 3.528371 1_555
Ba0 Si9 3.545652 1_545
Ba0 Si8 3.557414 1_455
Ba0 Si6 3.559753 1_554
Ba0 Hg0 3.577458 1_555
Ba0 Si11 3.635625 1_545
Ba0 Si4 3.684757 1_455
Ba1 Si0 3.508856 1_654
Ba1 Si3 3.514520 1_565
Ba1 Si11 3.542565 1_555
Ba1 Si1 3.559522 1_654
Ba1 Si2 3.573912 1_565
Ba1 Si4 3.575007 1_555
Ba1 Hg0 3.589735 1_655
Ba1 Si10 3.590246 1_555
Ba1 Si7 3.633838 1_554
Ba2 Si2 3.510425 1_456
Ba2 Si1 3.515430 1_545
Ba2 Si5 3.540079 1_555
Ba2 Si3 3.562325 1_456
Ba2 Si6 3.574249 1_555
Ba2 Si0 3.575530 1_545
Ba2 Hg0 3.590486 1_556
Ba2 Si10 3.590667 1_545
Ba2 Si7 3.637634 1_455
Ba3 Si0 3.523962 1_554
Ba3 Si3 3.527622 1_555
Ba3 Si11 3.529052 1_545
Ba3 Si9 3.545291 1_555
Ba3 Si8 3.555152 1_554
Ba3 Si4 3.558594 1_455
Ba3 Hg0 3.575893 1_555
Ba3 Si5 3.635202 1_555
Ba3 Si6 3.683398 1_554
Ba4 Si1 3.403930 1_555
Ba4 Si2 3.405869 1_555
Ba4 Si9 3.436069 1_555
Ba4 Si8 3.441701 1_555
Ba4 Si3 3.457661 1_555
Ba4 Si0 3.465634 1_555
Ba4 Hg0 3.576740 1_655
Ba4 Si10 3.586428 1_555
Ba4 Si7 3.627739 1_554
Ba4 Si11 3.649212 1_555
Ba4 Si4 3.683015 1_555
Ba5 Si3 3.402119 1_555
Ba5 Si0 3.405811 1_555
Ba5 Si9 3.435246 1_555
Ba5 Si8 3.439556 1_555
Ba5 Si1 3.458372 1_555
Ba5 Si2 3.466035 1_555
Ba5 Hg0 3.577800 1_556
Ba5 Si10 3.583411 1_545
Ba5 Si7 3.622385 1_455
Ba5 Si5 3.649247 1_555
Ba5 Si6 3.682323 1_555
Ba6 Si6 3.385887 1_565
Ba6 Si5 3.436200 1_655
Ba6 Si7 3.453631 1_555
Ba6 Si10 3.499399 1_555
Ba6 Si4 3.499640 1_555
Ba6 Si11 3.558857 1_556
Ba6 Si8 3.572105 1_555
Ba6 Si9 3.575152 1_556
Ba6 Si3 3.596863 1_556
Ba6 Si0 3.610839 1_555
Ba7 Si4 3.385322 1_555
Ba7 Si11 3.437397 1_556
Ba7 Si7 3.449332 1_555
Ba7 Si10 3.497638 1_555
Ba7 Si6 3.500706 1_565
Ba7 Si5 3.560618 1_655
Ba7 Si8 3.569422 1_565
Ba7 Si9 3.573558 1_655
Ba7 Si1 3.595466 1_655
Ba7 Si2 3.609361 1_565
Si0 Si1 2.382619 1_555
Si0 Si8 2.383387 1_555
Si1 Si9 2.381111 1_555
Si2 Si8 2.381969 1_555
Si2 Si3 2.382537 1_555
Si3 Si9 2.382474 1_555
Si4 Si5 2.390691 1_655
Si5 Si7 2.387060 1_455
Si10 Si6 2.387299 1_565
Si10 Si4 2.389706 1_555
Si11 Si7 2.389111 1_554
Si11 Si6 2.390502 1_564
Ag0 Si9 2.584473 1_555
Ag0 Si0 2.591611 1_554
Ag0 Si2 2.594546 1_465
Ag0 Ba1 3.504945 1_455
Ag0 Ba2 3.507748 1_564
Ag0 Ba3 3.518434 1_555
Ag0 Ba0 3.520291 1_565
Ag0 Ba7 3.532561 1_455
Ag0 Ba6 3.534126 1_554
Ag1 Si10 2.543200 1_545
Ag1 Si11 2.551764 1_545
Ag1 Si5 2.554324 1_555
Ag1 Ba3 3.552711 1_555
Ag1 Ba0 3.554598 1_555
Ag1 Ba5 3.561009 1_555
Ag1 Ba4 3.562789 1_545
Ag1 Ba1 3.565265 1_545
Ag1 Ba2 3.565726 1_555
Ag2 Si8 2.582856 1_555
Ag2 Si3 2.595553 1_556
Ag2 Si1 2.598314 1_645
Ag2 Ba1 3.497229 1_546
Ag2 Ba2 3.499703 1_655
Ag2 Ba3 3.506282 1_556
Ag2 Ba0 3.507718 1_655
Ag2 Ba7 3.536541 1_545
Ag2 Ba6 3.537138 1_555
Hg0 Si7 2.620022 1_454
Hg0 Si4 2.627980 1_455
Hg0 Si6 2.631553 1_554
