# generated using pymatgen
data_CsMgAgTe2
_symmetry_space_group_name_H-M   'P 1'
_cell_length_a   8.66554152
_cell_length_b   8.66554156
_cell_length_c   8.66554282
_cell_angle_alpha   149.18242961
_cell_angle_beta   149.18242848
_cell_angle_gamma   44.14284638
_symmetry_Int_Tables_number   1
_chemical_formula_structural   CsMgAgTe2
_chemical_formula_sum   'Cs1 Mg1 Ag1 Te2'
_cell_volume   170.29030412
_cell_formula_units_Z   1
loop_
 _symmetry_equiv_pos_site_id
 _symmetry_equiv_pos_as_xyz
  1  'x, y, z'
loop_
 _atom_site_type_symbol
 _atom_site_label
 _atom_site_symmetry_multiplicity
 _atom_site_fract_x
 _atom_site_fract_y
 _atom_site_fract_z
 _atom_site_occupancy
  Cs  Cs0  1  0.00000000  0.00000000  0.00000000  1
  Mg  Mg0  1  0.75000000  0.25000000  0.50000000  1
  Ag  Ag0  1  0.25000000  0.75000000  0.50000000  1
  Te  Te0  1  0.35598283  0.35598283  0.00000000  1
  Te  Te1  1  0.64401617  0.64401617  1.00000000  1
loop_
_geom_bond_atom_site_label_1
_geom_bond_atom_site_label_2
_geom_bond_distance
_geom_bond_site_symmetry_2
Cs0 Te1 3.994107 1_544
Cs0 Te1 3.994107 1_454
Cs0 Te1 3.994107 1_555
Cs0 Te1 3.994108 1_443
Cs0 Te0 3.994116 1_455
Cs0 Te0 3.994116 1_545
Cs0 Te0 3.994116 1_444
Cs0 Te0 3.994117 1_556
Mg0 Te0 2.863356 1_656
Mg0 Te0 2.863357 1_555
Mg0 Te1 2.863366 1_544
Mg0 Te1 2.863367 1_555
Ag0 Te0 2.863356 1_566
Ag0 Te0 2.863357 1_555
Ag0 Te1 2.863366 1_454
Ag0 Te1 2.863367 1_555
Ag0 Mg0 3.256182 1_555
Ag0 Mg0 3.256182 1_465
Ag0 Mg0 3.256183 1_454
Ag0 Mg0 3.256183 1_566
