# generated using pymatgen
data_Na16HfGeP8
_symmetry_space_group_name_H-M   'P 1'
_cell_length_a   9.51580593
_cell_length_b   9.51580644
_cell_length_c   9.51580550
_cell_angle_alpha   59.99999651
_cell_angle_beta   59.99999476
_cell_angle_gamma   59.99999826
_symmetry_Int_Tables_number   1
_chemical_formula_structural   Na16HfGeP8
_chemical_formula_sum   'Na16 Hf1 Ge1 P8'
_cell_volume   609.28670295
_cell_formula_units_Z   1
loop_
 _symmetry_equiv_pos_site_id
 _symmetry_equiv_pos_as_xyz
  1  'x, y, z'
loop_
 _atom_site_type_symbol
 _atom_site_label
 _atom_site_symmetry_multiplicity
 _atom_site_fract_x
 _atom_site_fract_y
 _atom_site_fract_z
 _atom_site_occupancy
  Na  Na0  1  0.62046596  0.62046596  0.13860311  1
  Na  Na1  1  0.62046596  0.13860311  0.62046596  1
  Na  Na2  1  0.13860311  0.62046596  0.62046596  1
  Na  Na3  1  0.62046596  0.62046596  0.62046596  1
  Na  Na4  1  0.02283005  0.47716995  0.47716995  1
  Na  Na5  1  0.78163458  0.21836542  0.21836542  1
  Na  Na6  1  0.47716995  0.02283005  0.47716995  1
  Na  Na7  1  0.47716995  0.47716995  0.02283005  1
  Na  Na8  1  0.02283005  0.02283005  0.47716995  1
  Na  Na9  1  0.02283005  0.47716995  0.02283005  1
  Na  Na10  1  0.47716995  0.02283005  0.02283005  1
  Na  Na11  1  0.78163458  0.21836542  0.78163458  1
  Na  Na12  1  0.21836542  0.78163458  0.21836542  1
  Na  Na13  1  0.21836542  0.21836542  0.78163458  1
  Na  Na14  1  0.78163458  0.78163458  0.21836542  1
  Na  Na15  1  0.21836542  0.78163458  0.78163458  1
  Hf  Hf0  1  0.75000000  0.75000000  0.75000000  1
  Ge  Ge0  1  0.50000000  0.50000000  0.50000000  1
  P  P0  1  0.85712631  0.85712631  0.42862307  1
  P  P1  1  0.85712631  0.42862307  0.85712631  1
  P  P2  1  0.39663844  0.39663844  0.81008169  1
  P  P3  1  0.39663844  0.81008169  0.39663844  1
  P  P4  1  0.81008169  0.39663844  0.39663844  1
  P  P5  1  0.85712631  0.85712631  0.85712631  1
  P  P6  1  0.42862307  0.85712631  0.85712631  1
  P  P7  1  0.39663844  0.39663844  0.39663844  1
loop_
_geom_bond_atom_site_label_1
_geom_bond_atom_site_label_2
_geom_bond_distance
_geom_bond_site_symmetry_2
Na0 P3 3.029645 1_555
Na0 P4 3.029645 1_555
Na0 P7 3.029670 1_555
Na0 P1 3.213249 1_554
Na0 P6 3.213249 1_554
Na0 P5 3.213255 1_554
Na1 P4 3.029645 1_555
Na1 P2 3.029646 1_555
Na1 P7 3.029670 1_555
Na1 P6 3.213249 1_545
Na1 P0 3.213249 1_545
Na1 P5 3.213255 1_545
Na2 P3 3.029645 1_555
Na2 P2 3.029645 1_555
Na2 P7 3.029670 1_555
Na2 P1 3.213249 1_455
Na2 P0 3.213249 1_455
Na2 P5 3.213255 1_455
Na3 P3 3.029674 1_555
Na3 P4 3.029674 1_555
Na3 P2 3.029674 1_555
Na3 P1 3.213256 1_555
Na3 P6 3.213256 1_555
Na3 P0 3.213256 1_555
Na4 P7 2.993806 1_555
Na4 P4 2.993833 1_455
Na4 P1 3.021472 1_455
Na4 P0 3.021473 1_455
Na5 P1 2.902708 1_554
Na5 P0 2.902708 1_545
Na5 P4 3.102441 1_555
Na5 P7 3.102459 1_555
Na6 P7 2.993806 1_555
Na6 P3 2.993833 1_545
Na6 P6 3.021472 1_545
Na6 P0 3.021473 1_545
Na7 P7 2.993806 1_555
Na7 P2 2.993832 1_554
Na7 P1 3.021472 1_554
Na7 P6 3.021473 1_554
Na8 P3 2.993812 1_545
Na8 P4 2.993812 1_455
Na8 P0 3.021456 1_445
Na8 P5 3.021469 1_445
Na9 P4 2.993811 1_455
Na9 P2 2.993812 1_554
Na9 P1 3.021456 1_454
Na9 P5 3.021469 1_454
Na10 P3 2.993812 1_545
Na10 P2 2.993812 1_554
Na10 P6 3.021456 1_544
Na10 P5 3.021469 1_544
Na11 P5 2.902704 1_545
Na11 P1 2.902722 1_555
Na11 P4 3.102465 1_555
Na11 P2 3.102465 1_555
Na12 P6 2.902708 1_554
Na12 P0 2.902708 1_455
Na12 P3 3.102441 1_555
Na12 P7 3.102459 1_555
Na13 P1 2.902708 1_455
Na13 P6 2.902708 1_545
Na13 P2 3.102441 1_555
Na13 P7 3.102459 1_555
Na14 P5 2.902704 1_554
Na14 P0 2.902722 1_555
Na14 P3 3.102465 1_555
Na14 P4 3.102466 1_555
Na15 P5 2.902704 1_455
Na15 P6 2.902722 1_555
Na15 P3 3.102465 1_555
Na15 P2 3.102466 1_555
Hf0 P0 2.496977 1_555
Hf0 P6 2.496977 1_555
Hf0 P1 2.496978 1_555
Hf0 P5 2.496993 1_555
Hf0 Na3 3.019292 1_555
Hf0 Na0 3.019299 1_556
Hf0 Na2 3.019300 1_655
Hf0 Na1 3.019300 1_565
Ge0 P2 2.409218 1_555
Ge0 P4 2.409218 1_555
Ge0 P3 2.409218 1_555
Ge0 P7 2.409241 1_555
Ge0 Na0 2.807917 1_555
Ge0 Na2 2.807917 1_555
Ge0 Na1 2.807918 1_555
Ge0 Na3 2.807925 1_555
