# generated using pymatgen
data_Nb3AlAu2C
_symmetry_space_group_name_H-M   'P 1'
_cell_length_a   8.51397127
_cell_length_b   8.51397264
_cell_length_c   8.51397055
_cell_angle_alpha   59.99999662
_cell_angle_beta   59.99999129
_cell_angle_gamma   59.99999731
_symmetry_Int_Tables_number   1
_chemical_formula_structural   Nb3AlAu2C
_chemical_formula_sum   'Nb12 Al4 Au8 C4'
_cell_volume   436.39677076
_cell_formula_units_Z   4
loop_
 _symmetry_equiv_pos_site_id
 _symmetry_equiv_pos_as_xyz
  1  'x, y, z'
loop_
 _atom_site_type_symbol
 _atom_site_label
 _atom_site_symmetry_multiplicity
 _atom_site_fract_x
 _atom_site_fract_y
 _atom_site_fract_z
 _atom_site_occupancy
  Nb  Nb0  1  0.82264059  0.17735941  0.82264059  1
  Nb  Nb1  1  0.07264059  0.42735941  0.42735941  1
  Nb  Nb2  1  0.42735941  0.07264059  0.07264059  1
  Nb  Nb3  1  0.07264059  0.42735941  0.07264059  1
  Nb  Nb4  1  0.42735941  0.42735941  0.07264059  1
  Nb  Nb5  1  0.07264059  0.07264059  0.42735941  1
  Nb  Nb6  1  0.82264059  0.82264059  0.17735941  1
  Nb  Nb7  1  0.17735941  0.82264059  0.82264059  1
  Nb  Nb8  1  0.82264059  0.17735941  0.17735941  1
  Nb  Nb9  1  0.17735941  0.17735941  0.82264059  1
  Nb  Nb10  1  0.42735941  0.07264059  0.42735941  1
  Nb  Nb11  1  0.17735941  0.82264059  0.17735941  1
  Al  Al0  1  0.62500000  0.62500000  0.62500000  1
  Al  Al1  1  0.12500000  0.62500000  0.62500000  1
  Al  Al2  1  0.62500000  0.12500000  0.62500000  1
  Al  Al3  1  0.62500000  0.62500000  0.12500000  1
  Au  Au0  1  0.41488486  0.41488486  0.41488486  1
  Au  Au1  1  0.49465657  0.83511514  0.83511514  1
  Au  Au2  1  0.83511514  0.49465657  0.83511514  1
  Au  Au3  1  0.83511514  0.83511514  0.49465657  1
  Au  Au4  1  0.41488486  0.75534343  0.41488486  1
  Au  Au5  1  0.41488486  0.41488486  0.75534343  1
  Au  Au6  1  0.75534343  0.41488486  0.41488486  1
  Au  Au7  1  0.83511514  0.83511514  0.83511514  1
  C  C0  1  0.12500000  0.12500000  0.12500000  1
  C  C1  1  0.62500000  0.12500000  0.12500000  1
  C  C2  1  0.12500000  0.62500000  0.12500000  1
  C  C3  1  0.12500000  0.12500000  0.62500000  1
loop_
_geom_bond_atom_site_label_1
_geom_bond_atom_site_label_2
_geom_bond_distance
_geom_bond_site_symmetry_2
Al0 Au2 2.619486 1_555
Al0 Au4 2.619486 1_555
Al0 Au1 2.619486 1_555
Al0 Au6 2.619486 1_555
Al0 Au3 2.619486 1_555
Al0 Au5 2.619486 1_555
Al1 Au4 2.619472 1_555
Al1 Au2 2.619472 1_455
Al1 Au5 2.619472 1_555
Al1 Au3 2.619472 1_455
Al1 Au7 2.619481 1_455
Al1 Au0 2.619481 1_555
Al2 Au5 2.619472 1_555
Al2 Au3 2.619472 1_545
Al2 Au6 2.619472 1_555
Al2 Au1 2.619472 1_545
Al2 Au7 2.619481 1_545
Al2 Au0 2.619481 1_555
Al3 Au4 2.619472 1_555
Al3 Au2 2.619472 1_554
Al3 Au6 2.619472 1_555
Al3 Au1 2.619472 1_554
Al3 Au7 2.619481 1_554
Al3 Au0 2.619481 1_555
Au0 Nb4 2.811664 1_555
Au0 Nb1 2.811665 1_555
Au0 Nb10 2.811665 1_555
Au1 Nb11 2.811672 1_556
Au1 Nb9 2.811673 1_565
Au1 Nb7 2.811682 1_555
Au2 Nb8 2.811672 1_556
Au2 Nb9 2.811673 1_655
Au2 Nb0 2.811682 1_555
Au3 Nb11 2.811672 1_655
Au3 Nb8 2.811673 1_565
Au3 Nb6 2.811681 1_555
Au4 Nb2 2.811672 1_565
Au4 Nb5 2.811673 1_565
Au4 Nb10 2.811682 1_565
Au5 Nb3 2.811672 1_556
Au5 Nb2 2.811673 1_556
Au5 Nb4 2.811681 1_556
Au6 Nb3 2.811672 1_655
Au6 Nb5 2.811673 1_655
Au6 Nb1 2.811682 1_655
Au7 Nb6 2.811664 1_556
Au7 Nb7 2.811665 1_655
Au7 Nb0 2.811665 1_565
C0 Nb5 2.219894 1_555
C0 Nb9 2.219894 1_554
C0 Nb2 2.219895 1_555
C0 Nb8 2.219895 1_455
C0 Nb3 2.219895 1_555
C0 Nb11 2.219895 1_545
C1 Nb10 2.219894 1_555
C1 Nb0 2.219894 1_554
C1 Nb8 2.219895 1_555
C1 Nb2 2.219895 1_555
C1 Nb4 2.219895 1_555
C1 Nb6 2.219895 1_545
C2 Nb1 2.219895 1_555
C2 Nb7 2.219895 1_554
C2 Nb4 2.219895 1_555
C2 Nb6 2.219895 1_455
C2 Nb11 2.219895 1_555
C2 Nb3 2.219895 1_555
C3 Nb10 2.219894 1_555
C3 Nb0 2.219894 1_455
C3 Nb9 2.219895 1_555
C3 Nb5 2.219895 1_555
C3 Nb1 2.219895 1_555
C3 Nb7 2.219895 1_545
