# generated using pymatgen
data_Ir7RhSe16
_symmetry_space_group_name_H-M   'P 1'
_cell_length_a   3.76183831
_cell_length_b   5.98849485
_cell_length_c   21.16179817
_cell_angle_alpha   90.02251115
_cell_angle_beta   90.00000000
_cell_angle_gamma   90.00000000
_symmetry_Int_Tables_number   1
_chemical_formula_structural   Ir7RhSe16
_chemical_formula_sum   'Ir7 Rh1 Se16'
_cell_volume   476.72764778
_cell_formula_units_Z   1
loop_
 _symmetry_equiv_pos_site_id
 _symmetry_equiv_pos_as_xyz
  1  'x, y, z'
loop_
 _atom_site_type_symbol
 _atom_site_label
 _atom_site_symmetry_multiplicity
 _atom_site_fract_x
 _atom_site_fract_y
 _atom_site_fract_z
 _atom_site_occupancy
  Ir  Ir0  1  0.25000000  0.07152613  0.57651610  1
  Ir  Ir1  1  0.25000000  0.43009886  0.07634825  1
  Ir  Ir2  1  0.75000000  0.93065613  0.42366427  1
  Ir  Ir3  1  0.75000000  0.57001996  0.92357045  1
  Ir  Ir4  1  0.25000000  0.05688600  0.80467900  1
  Ir  Ir5  1  0.25000000  0.44245349  0.30487155  1
  Ir  Ir6  1  0.75000000  0.94224448  0.19513480  1
  Rh  Rh0  1  0.75000000  0.55597251  0.69525072  1
  Se  Se0  1  0.25000000  0.42823558  0.86091124  1
  Se  Se1  1  0.25000000  0.07288749  0.36132889  1
  Se  Se2  1  0.75000000  0.57254372  0.13865792  1
  Se  Se3  1  0.75000000  0.92751016  0.63873607  1
  Se  Se4  1  0.75000000  0.18094534  0.73789718  1
  Se  Se5  1  0.75000000  0.31802207  0.23816771  1
  Se  Se6  1  0.25000000  0.81800157  0.26180246  1
  Se  Se7  1  0.25000000  0.68126162  0.76218135  1
  Se  Se8  1  0.75000000  0.95056109  0.87776677  1
  Se  Se9  1  0.75000000  0.54979312  0.37790987  1
  Se  Se10  1  0.25000000  0.04950068  0.12205813  1
  Se  Se11  1  0.25000000  0.44890727  0.62256173  1
  Se  Se12  1  0.75000000  0.22512038  0.50870255  1
  Se  Se13  1  0.75000000  0.27576651  0.00861966  1
  Se  Se14  1  0.25000000  0.77751794  0.49145528  1
  Se  Se15  1  0.25000000  0.72356989  0.99120904  1
loop_
_geom_bond_atom_site_label_1
_geom_bond_atom_site_label_2
_geom_bond_distance
_geom_bond_site_symmetry_2
Ir0 Se3 2.452797 1_445
Ir0 Se3 2.452797 1_545
Ir0 Se11 2.460710 1_555
Ir0 Se14 2.517459 1_545
Ir0 Se12 2.538565 1_455
Ir0 Se12 2.538565 1_555
Ir1 Se2 2.450163 1_455
Ir1 Se2 2.450163 1_555
Ir1 Se10 2.476329 1_555
Ir1 Se15 2.517387 1_554
Ir1 Se13 2.538745 1_455
Ir1 Se13 2.538745 1_555
Ir2 Se1 2.450372 1_565
Ir2 Se1 2.450372 1_665
Ir2 Se9 2.477457 1_555
Ir2 Se12 2.519028 1_565
Ir2 Se14 2.537306 1_655
Ir2 Se14 2.537306 1_555
Ir3 Se0 2.452780 1_555
Ir3 Se0 2.452780 1_655
Ir3 Se8 2.476792 1_555
Ir3 Se13 2.519300 1_556
Ir3 Se15 2.535969 1_555
Ir3 Se15 2.535969 1_655
Ir4 Se7 2.422212 1_545
Ir4 Se4 2.467352 1_455
Ir4 Se4 2.467352 1_555
Ir4 Se8 2.517188 1_545
Ir4 Se8 2.517188 1_445
Ir4 Se0 2.521777 1_555
Ir5 Se6 2.426964 1_555
Ir5 Se5 2.466744 1_555
Ir5 Se5 2.466744 1_455
Ir5 Se1 2.515449 1_555
Ir5 Se9 2.517781 1_455
Ir5 Se9 2.517781 1_555
Ir6 Se5 2.427287 1_565
Ir6 Se6 2.466300 1_555
Ir6 Se6 2.466300 1_655
Ir6 Se2 2.515530 1_555
Ir6 Se10 2.518462 1_565
Ir6 Se10 2.518462 1_665
Rh0 Se4 2.420721 1_555
Rh0 Se7 2.471047 1_555
Rh0 Se7 2.471047 1_655
Rh0 Se11 2.512831 1_655
Rh0 Se11 2.512831 1_555
Rh0 Se3 2.526420 1_555
Se0 Se7 2.581402 1_555
Se1 Se6 2.600620 1_545
Se2 Se5 2.600025 1_555
Se3 Se4 2.589265 1_565
