# generated using pymatgen
data_LiMnRhS4
_symmetry_space_group_name_H-M   'P 1'
_cell_length_a   7.03528801
_cell_length_b   7.03528728
_cell_length_c   6.95993430
_cell_angle_alpha   60.35367044
_cell_angle_beta   60.35367381
_cell_angle_gamma   61.12490171
_symmetry_Int_Tables_number   1
_chemical_formula_structural   LiMnRhS4
_chemical_formula_sum   'Li2 Mn2 Rh2 S8'
_cell_volume   246.91717687
_cell_formula_units_Z   2
loop_
 _symmetry_equiv_pos_site_id
 _symmetry_equiv_pos_as_xyz
  1  'x, y, z'
loop_
 _atom_site_type_symbol
 _atom_site_label
 _atom_site_symmetry_multiplicity
 _atom_site_fract_x
 _atom_site_fract_y
 _atom_site_fract_z
 _atom_site_occupancy
  Li  Li0  1  0.24885923  0.24885923  0.25114077  1
  Li  Li1  1  0.00114077  0.00114077  0.99885923  1
  Mn  Mn0  1  0.62500000  0.62500000  0.12500000  1
  Mn  Mn1  1  0.62500000  0.62500000  0.62500000  1
  Rh  Rh0  1  0.12500000  0.62500000  0.62500000  1
  Rh  Rh1  1  0.62500000  0.12500000  0.62500000  1
  S  S0  1  0.41292788  0.85899627  0.86403892  1
  S  S1  1  0.86189789  0.86189789  0.41338276  1
  S  S2  1  0.86189789  0.86189789  0.86282147  1
  S  S3  1  0.83707212  0.39100373  0.38596108  1
  S  S4  1  0.39100373  0.83707212  0.38596108  1
  S  S5  1  0.38810211  0.38810211  0.83661724  1
  S  S6  1  0.85899627  0.41292788  0.86403892  1
  S  S7  1  0.38810211  0.38810211  0.38717853  1
loop_
_geom_bond_atom_site_label_1
_geom_bond_atom_site_label_2
_geom_bond_distance
_geom_bond_site_symmetry_2
Li0 S5 2.361720 1_554
Li0 S7 2.361721 1_555
Li0 S4 2.390471 1_545
Li0 S3 2.390472 1_455
Li1 S1 2.361720 1_446
Li1 S2 2.361721 1_445
Li1 S6 2.390471 1_455
Li1 S0 2.390472 1_545
Mn0 S2 2.355963 1_554
Mn0 S7 2.355963 1_555
Mn0 S0 2.363395 1_554
Mn0 S3 2.363395 1_555
Mn0 S4 2.363395 1_555
Mn0 S6 2.363395 1_554
Mn1 S1 2.355964 1_555
Mn1 S5 2.355964 1_555
Mn1 S0 2.363406 1_555
Mn1 S3 2.363406 1_555
Mn1 S6 2.363406 1_555
Mn1 S4 2.363406 1_555
Rh0 S4 2.378445 1_555
Rh0 S6 2.378445 1_455
Rh0 S2 2.379563 1_455
Rh0 S7 2.379563 1_555
Rh0 S5 2.379563 1_555
Rh0 S1 2.379563 1_455
Rh1 S0 2.378445 1_545
Rh1 S3 2.378445 1_555
Rh1 S2 2.379563 1_545
Rh1 S7 2.379563 1_555
Rh1 S5 2.379563 1_555
Rh1 S1 2.379563 1_545
