# generated using pymatgen
data_PuNi2
_symmetry_space_group_name_H-M   'P 1'
_cell_length_a   4.87983582
_cell_length_b   4.87983582
_cell_length_c   4.87983582
_cell_angle_alpha   60.00000000
_cell_angle_beta   60.00000000
_cell_angle_gamma   60.00000000
_symmetry_Int_Tables_number   1
_chemical_formula_structural   PuNi2
_chemical_formula_sum   'Pu2 Ni4'
_cell_volume   82.16760608
_cell_formula_units_Z   2
loop_
 _symmetry_equiv_pos_site_id
 _symmetry_equiv_pos_as_xyz
  1  'x, y, z'
loop_
 _atom_site_type_symbol
 _atom_site_label
 _atom_site_symmetry_multiplicity
 _atom_site_fract_x
 _atom_site_fract_y
 _atom_site_fract_z
 _atom_site_occupancy
  Pu  Pu0  1  0.75000000  0.75000000  0.75000000  1
  Pu  Pu1  1  0.50000000  0.50000000  0.50000000  1
  Ni  Ni0  1  0.12500000  0.62500000  0.12500000  1
  Ni  Ni1  1  0.12500000  0.12500000  0.62500000  1
  Ni  Ni2  1  0.62500000  0.12500000  0.12500000  1
  Ni  Ni3  1  0.12500000  0.12500000  0.12500000  1
loop_
_geom_bond_atom_site_label_1
_geom_bond_atom_site_label_2
_geom_bond_distance
_geom_bond_site_symmetry_2
Pu0 Pu1 2.988277 1_655
Pu0 Pu1 2.988277 1_555
Pu0 Pu1 2.988277 1_556
Pu0 Pu1 2.988277 1_565
Ni0 Ni2 2.439918 1_465
Ni0 Ni1 2.439918 1_555
Ni0 Ni3 2.439918 1_565
Ni0 Ni1 2.439918 1_564
Ni0 Ni2 2.439918 1_555
Ni0 Ni3 2.439918 1_555
Ni0 Pu1 2.861057 1_554
Ni0 Pu0 2.861057 1_554
Ni0 Pu0 2.861057 1_454
Ni0 Pu1 2.861057 1_455
Ni0 Pu1 2.861057 1_555
Ni0 Pu0 2.861057 1_455
Ni1 Ni2 2.439918 1_555
Ni1 Ni3 2.439918 1_556
Ni1 Ni3 2.439918 1_555
Ni1 Ni2 2.439918 1_456
Ni1 Pu0 2.861057 1_545
Ni1 Pu1 2.861057 1_455
Ni1 Pu0 2.861057 1_455
Ni1 Pu1 2.861057 1_555
Ni1 Pu1 2.861057 1_545
Ni1 Pu0 2.861057 1_445
Ni2 Ni3 2.439918 1_655
Ni2 Ni3 2.439918 1_555
Ni2 Pu0 2.861057 1_545
Ni2 Pu1 2.861057 1_554
Ni2 Pu0 2.861057 1_554
Ni2 Pu0 2.861057 1_544
Ni2 Pu1 2.861057 1_555
Ni2 Pu1 2.861057 1_545
Ni3 Pu1 2.861057 1_554
Ni3 Pu1 2.861057 1_455
Ni3 Pu0 2.861057 1_544
Ni3 Pu1 2.861057 1_545
Ni3 Pu0 2.861057 1_454
Ni3 Pu0 2.861057 1_445
