# generated using pymatgen
data_Hf3VZn2N
_symmetry_space_group_name_H-M   'P 1'
_cell_length_a   8.47650348
_cell_length_b   8.47650299
_cell_length_c   8.49712072
_cell_angle_alpha   59.91950238
_cell_angle_beta   59.91950429
_cell_angle_gamma   59.57511974
_symmetry_Int_Tables_number   1
_chemical_formula_structural   Hf3VZn2N
_chemical_formula_sum   'Hf12 V4 Zn8 N4'
_cell_volume   429.78394213
_cell_formula_units_Z   4
loop_
 _symmetry_equiv_pos_site_id
 _symmetry_equiv_pos_as_xyz
  1  'x, y, z'
loop_
 _atom_site_type_symbol
 _atom_site_label
 _atom_site_symmetry_multiplicity
 _atom_site_fract_x
 _atom_site_fract_y
 _atom_site_fract_z
 _atom_site_occupancy
  Hf  Hf0  1  0.81020103  0.18613589  0.18743046  1
  Hf  Hf1  1  0.18613589  0.81020103  0.18743046  1
  Hf  Hf2  1  0.81362617  0.81362617  0.18637383  1
  Hf  Hf3  1  0.18613589  0.81020103  0.81623262  1
  Hf  Hf4  1  0.81020103  0.18613589  0.81623262  1
  Hf  Hf5  1  0.19060420  0.19060420  0.80939580  1
  Hf  Hf6  1  0.43519005  0.07431753  0.05623118  1
  Hf  Hf7  1  0.07431753  0.43519005  0.05623118  1
  Hf  Hf8  1  0.43595913  0.43595913  0.06404087  1
  Hf  Hf9  1  0.07431753  0.43519005  0.43426123  1
  Hf  Hf10  1  0.43519005  0.07431753  0.43426123  1
  Hf  Hf11  1  0.06149838  0.06149838  0.43850162  1
  V  V0  1  0.41670551  0.41670551  0.73801649  1
  V  V1  1  0.41670551  0.41670551  0.42857149  1
  V  V2  1  0.13669086  0.61431366  0.62449774  1
  V  V3  1  0.61431366  0.13669086  0.62449774  1
  Zn  Zn0  1  0.74699762  0.42114478  0.41592830  1
  Zn  Zn1  1  0.42114478  0.74699762  0.41592830  1
  Zn  Zn2  1  0.83028859  0.83028859  0.50506548  1
  Zn  Zn3  1  0.83028859  0.83028859  0.83435935  1
  Zn  Zn4  1  0.50011413  0.83250957  0.83368865  1
  Zn  Zn5  1  0.83250957  0.50011413  0.83368865  1
  Zn  Zn6  1  0.62528653  0.62528653  0.12304933  1
  Zn  Zn7  1  0.62528653  0.62528653  0.62637861  1
  N  N0  1  0.12188352  0.12188352  0.62452467  1
  N  N1  1  0.12188352  0.12188352  0.13170929  1
  N  N2  1  0.62607435  0.12045285  0.12673640  1
  N  N3  1  0.12045285  0.62607435  0.12673640  1
loop_
_geom_bond_atom_site_label_1
_geom_bond_atom_site_label_2
_geom_bond_distance
_geom_bond_site_symmetry_2
Hf0 N2 2.233095 1_555
Hf0 N1 2.246786 1_655
Hf0 Zn5 2.841574 1_554
Hf0 Zn2 2.862072 1_545
Hf0 Zn6 3.085703 1_555
Hf0 V3 3.112570 1_555
Hf0 V1 3.115191 1_555
Hf0 Zn0 3.127061 1_555
Hf1 N3 2.233095 1_555
Hf1 N1 2.246786 1_565
Hf1 Zn4 2.841574 1_554
Hf1 Zn2 2.862072 1_455
Hf1 Zn6 3.085703 1_555
Hf1 V2 3.112570 1_555
Hf1 V1 3.115191 1_555
Hf1 Zn1 3.127061 1_555
Hf2 N2 2.201622 1_565
Hf2 N3 2.201622 1_655
Hf2 Zn3 2.856547 1_554
Hf2 Zn2 2.856564 1_555
Hf2 Zn0 3.079835 1_555
Hf2 Zn1 3.079836 1_555
Hf2 Zn6 3.112953 1_555
Hf2 Zn7 3.112958 1_555
Hf3 N3 2.233095 1_556
Hf3 N0 2.246784 1_565
Hf3 Zn4 2.841579 1_555
Hf3 Zn3 2.862065 1_455
Hf3 Zn7 3.085701 1_555
Hf3 V2 3.112570 1_555
Hf3 V0 3.115195 1_555
Hf3 Zn1 3.127068 1_555
Hf4 N2 2.233095 1_556
Hf4 N0 2.246784 1_655
Hf4 Zn5 2.841579 1_555
Hf4 Zn3 2.862065 1_545
Hf4 Zn7 3.085701 1_555
Hf4 V3 3.112570 1_555
Hf4 V0 3.115195 1_555
Hf4 Zn0 3.127068 1_555
Hf5 N0 2.307488 1_555
Hf5 N1 2.307495 1_556
Hf5 Zn4 2.826387 1_545
Hf5 Zn5 2.826387 1_455
Hf5 V2 2.996251 1_555
Hf5 V3 2.996251 1_555
Hf5 V0 3.017270 1_555
Hf5 V1 3.017273 1_555
Hf6 N2 2.230986 1_555
Hf6 N1 2.257030 1_555
Hf6 V0 2.802919 1_554
Hf6 Zn1 2.919388 1_545
Hf6 V3 3.054164 1_554
Hf6 Zn3 3.100446 1_544
Hf6 Zn4 3.127223 1_544
Hf6 Zn6 3.153588 1_545
Hf7 N3 2.230986 1_555
Hf7 N1 2.257030 1_555
Hf7 V0 2.802919 1_554
Hf7 Zn0 2.919388 1_455
Hf7 V2 3.054164 1_554
Hf7 Zn3 3.100446 1_454
Hf7 Zn5 3.127223 1_454
Hf7 Zn6 3.153589 1_455
Hf8 N2 2.258425 1_555
Hf8 N3 2.258425 1_555
Hf8 V1 2.942961 1_555
Hf8 V0 2.942969 1_554
Hf8 Zn4 3.100756 1_554
Hf8 Zn5 3.100756 1_554
Hf8 Zn7 3.102274 1_554
Hf8 Zn6 3.102280 1_555
Hf9 N3 2.230985 1_555
Hf9 N0 2.257032 1_555
Hf9 V1 2.802915 1_555
Hf9 Zn0 2.919393 1_455
Hf9 V2 3.054164 1_555
Hf9 Zn2 3.100453 1_455
Hf9 Zn5 3.127230 1_455
Hf9 Zn7 3.153590 1_455
Hf10 N2 2.230985 1_555
Hf10 N0 2.257032 1_555
Hf10 V1 2.802915 1_555
Hf10 Zn1 2.919392 1_545
Hf10 V3 3.054164 1_555
Hf10 Zn2 3.100453 1_545
Hf10 Zn4 3.127230 1_545
Hf10 Zn7 3.153590 1_545
Hf11 N1 2.215822 1_555
Hf11 N0 2.215830 1_555
Hf11 Zn0 2.851755 1_455
Hf11 Zn1 2.851755 1_545
Hf11 Zn2 3.109629 1_445
Hf11 Zn3 3.109637 1_445
Hf11 V2 3.135265 1_545
Hf11 V3 3.135265 1_455
V0 V3 2.453276 1_555
V0 V2 2.453276 1_555
V0 V1 2.629391 1_555
V0 Zn7 2.637290 1_555
V0 Zn1 2.766323 1_555
V0 Zn0 2.766323 1_555
V1 V3 2.453280 1_555
V1 V2 2.453280 1_555
V1 Zn6 2.637284 1_555
V1 Zn1 2.766323 1_555
V1 Zn0 2.766323 1_555
V2 Zn1 2.585436 1_555
V2 Zn5 2.636950 1_455
V2 Zn2 2.662894 1_455
V2 Zn3 2.662903 1_455
V3 Zn0 2.585436 1_555
V3 Zn4 2.636950 1_545
V3 Zn2 2.662894 1_545
V3 Zn3 2.662903 1_545
Zn0 Zn6 2.588580 1_555
Zn0 Zn7 2.588594 1_555
Zn0 Zn1 2.744335 1_555
Zn1 Zn6 2.588580 1_555
Zn1 Zn7 2.588594 1_555
Zn2 Zn7 2.562983 1_555
Zn2 Zn5 2.792085 1_555
Zn2 Zn4 2.792085 1_555
Zn2 Zn3 2.798050 1_555
Zn3 Zn6 2.562981 1_556
Zn3 Zn5 2.792089 1_555
Zn3 Zn4 2.792090 1_555
Zn4 Zn6 2.579672 1_556
Zn4 Zn7 2.579672 1_555
Zn4 Zn5 2.799437 1_555
Zn5 Zn6 2.579672 1_556
Zn5 Zn7 2.579672 1_555
