# generated using pymatgen
data_Ta6Cr6Si5P
_symmetry_space_group_name_H-M   'P 1'
_cell_length_a   7.35255563
_cell_length_b   7.35237016
_cell_length_c   7.35255754
_cell_angle_alpha   126.80957712
_cell_angle_beta   127.15518558
_cell_angle_gamma   78.28033513
_symmetry_Int_Tables_number   1
_chemical_formula_structural   Ta6Cr6Si5P
_chemical_formula_sum   'Ta6 Cr6 Si5 P1'
_cell_volume   245.65290802
_cell_formula_units_Z   1
loop_
 _symmetry_equiv_pos_site_id
 _symmetry_equiv_pos_as_xyz
  1  'x, y, z'
loop_
 _atom_site_type_symbol
 _atom_site_label
 _atom_site_symmetry_multiplicity
 _atom_site_fract_x
 _atom_site_fract_y
 _atom_site_fract_z
 _atom_site_occupancy
  Ta  Ta0  1  0.54891728  0.09474364  0.04582636  1
  Ta  Ta1  1  0.45037366  0.49663866  0.54626400  1
  Ta  Ta2  1  0.95115278  0.49697195  0.04581817  1
  Ta  Ta3  1  0.04946131  0.09547041  0.54600909  1
  Ta  Ta4  1  0.75006324  0.89758254  0.64751930  1
  Ta  Ta5  1  0.24997409  0.89961877  0.14964467  1
  Cr  Cr0  1  0.50577572  0.24534159  0.75115305  1
  Cr  Cr1  1  0.99418854  0.24534159  0.23956587  1
  Cr  Cr2  1  0.12038231  0.74812002  0.61704636  1
  Cr  Cr3  1  0.86876509  0.49667834  0.61688534  1
  Cr  Cr4  1  0.63107266  0.74812002  0.12773671  1
  Cr  Cr5  1  0.37979400  0.49667834  0.12791325  1
  Si  Si0  1  0.24991412  0.49717961  0.74726550  1
  Si  Si1  1  0.33366972  0.83006926  0.49703795  1
  Si  Si2  1  0.66684670  0.16344383  0.49691389  1
  Si  Si3  1  0.83303232  0.83006926  0.99639954  1
  Si  Si4  1  0.16652894  0.16344383  0.99659713  1
  P  P0  1  0.75008753  0.49668534  0.24659782  1
loop_
_geom_bond_atom_site_label_1
_geom_bond_atom_site_label_2
_geom_bond_distance
_geom_bond_site_symmetry_2
Cr0 P0 2.299798 1_556
Cr0 Si0 2.356204 1_555
Cr0 Si1 2.508403 1_545
Cr0 Si2 2.508996 1_555
Cr0 Ta4 2.792334 1_545
Cr0 Ta0 2.814724 1_556
Cr0 Ta2 2.815684 1_556
Cr0 Ta5 2.825124 1_545
Cr0 Ta1 2.852618 1_555
Cr0 Ta3 2.853615 1_555
Cr1 P0 2.299798 1_555
Cr1 Si0 2.356205 1_655
Cr1 Si3 2.508401 1_544
Cr1 Si4 2.508989 1_654
Cr1 Ta4 2.792335 1_544
Cr1 Ta0 2.814723 1_555
Cr1 Ta2 2.815688 1_555
Cr1 Ta5 2.825123 1_645
Cr1 Ta1 2.852614 1_655
Cr1 Ta3 2.853616 1_655
Cr2 P0 2.302602 1_455
Cr2 Si0 2.351442 1_555
Cr2 Si4 2.508598 1_565
Cr2 Si1 2.508646 1_555
Cr2 Ta3 2.792003 1_565
Cr2 Ta4 2.810290 1_455
Cr2 Ta2 2.815154 1_455
Cr2 Ta0 2.827875 1_566
Cr2 Ta1 2.850637 1_555
Cr2 Ta5 2.860144 1_556
Cr3 P0 2.303085 1_555
Cr3 Si0 2.351034 1_655
Cr3 Si2 2.508183 1_555
Cr3 Si3 2.508273 1_555
Cr3 Ta1 2.793491 1_555
Cr3 Ta4 2.810260 1_555
Cr3 Ta0 2.814254 1_555
Cr3 Ta2 2.828036 1_556
Cr3 Ta3 2.853125 1_655
Cr3 Ta5 2.860353 1_656
Cr4 P0 2.302607 1_555
Cr4 Si0 2.351437 1_554
Cr4 Si2 2.508596 1_565
Cr4 Si3 2.508652 1_554
Cr4 Ta3 2.792007 1_665
Cr4 Ta4 2.810295 1_555
Cr4 Ta2 2.815153 1_555
Cr4 Ta0 2.827871 1_565
Cr4 Ta1 2.850638 1_554
Cr4 Ta5 2.860139 1_555
Cr5 P0 2.303078 1_555
Cr5 Si0 2.351033 1_554
Cr5 Si4 2.508191 1_554
Cr5 Si1 2.508282 1_555
Cr5 Ta1 2.793491 1_555
Cr5 Ta4 2.810258 1_555
Cr5 Ta0 2.814251 1_555
Cr5 Ta2 2.828047 1_455
Cr5 Ta3 2.853127 1_554
Cr5 Ta5 2.860354 1_555
Si0 Ta1 2.641637 1_555
Si0 Ta3 2.642325 1_555
Si0 Ta5 2.648929 1_556
Si1 Ta0 2.588600 1_566
Si1 Ta5 2.588993 1_555
Si1 Ta2 2.589453 1_455
Si1 Ta1 2.590502 1_555
Si1 Ta4 2.590590 1_555
Si1 Ta3 2.591219 1_565
Si2 Ta2 2.589073 1_556
Si2 Ta5 2.589111 1_545
Si2 Ta0 2.589151 1_555
Si2 Ta4 2.590547 1_545
Si2 Ta3 2.590847 1_655
Si2 Ta1 2.591285 1_555
Si3 Ta0 2.588605 1_566
Si3 Ta5 2.588985 1_656
Si3 Ta2 2.589449 1_556
Si3 Ta1 2.590510 1_555
Si3 Ta4 2.590588 1_555
Si3 Ta3 2.591221 1_666
Si4 Ta2 2.589073 1_456
Si4 Ta5 2.589110 1_546
Si4 Ta0 2.589157 1_556
Si4 Ta4 2.590541 1_445
Si4 Ta3 2.590851 1_555
Si4 Ta1 2.591282 1_556
P0 Ta4 2.639333 1_555
P0 Ta2 2.646889 1_555
P0 Ta0 2.647813 1_555
