# generated using pymatgen
data_K2RbAs2Au3
_symmetry_space_group_name_H-M   'P 1'
_cell_length_a   7.67852413
_cell_length_b   7.67852375
_cell_length_c   7.67852461
_cell_angle_alpha   47.76106357
_cell_angle_beta   47.76106704
_cell_angle_gamma   47.76106920
_symmetry_Int_Tables_number   1
_chemical_formula_structural   K2RbAs2Au3
_chemical_formula_sum   'K2 Rb1 As2 Au3'
_cell_volume   227.21182037
_cell_formula_units_Z   1
loop_
 _symmetry_equiv_pos_site_id
 _symmetry_equiv_pos_as_xyz
  1  'x, y, z'
loop_
 _atom_site_type_symbol
 _atom_site_label
 _atom_site_symmetry_multiplicity
 _atom_site_fract_x
 _atom_site_fract_y
 _atom_site_fract_z
 _atom_site_occupancy
  K  K0  1  0.08487530  0.08487530  0.08487530  1
  K  K1  1  0.91512470  0.91512470  0.91512470  1
  Rb  Rb0  1  0.50000000  0.50000000  0.50000000  1
  As  As0  1  0.75268583  0.75268583  0.75268583  1
  As  As1  1  0.24731417  0.24731417  0.24731417  1
  Au  Au0  1  0.50000000  0.50000000  0.00000000  1
  Au  Au1  1  0.50000000  0.00000000  0.50000000  1
  Au  Au2  1  0.00000000  0.50000000  0.50000000  1
loop_
_geom_bond_atom_site_label_1
_geom_bond_atom_site_label_2
_geom_bond_distance
_geom_bond_site_symmetry_2
As0 Au0 2.507848 1_556
As0 Au1 2.507848 1_565
As0 Au2 2.507848 1_655
As0 K1 3.307871 1_555
As0 K0 3.589467 1_656
As0 K0 3.589467 1_665
As0 K0 3.589467 1_566
As0 Rb0 3.947258 1_565
As0 Rb0 3.947258 1_655
As0 Rb0 3.947258 1_556
As1 Au0 2.507848 1_555
As1 Au1 2.507848 1_555
As1 Au2 2.507848 1_555
As1 K0 3.307871 1_555
As1 K1 3.589467 1_454
As1 K1 3.589467 1_445
As1 K1 3.589467 1_544
As1 Rb0 3.947258 1_545
As1 Rb0 3.947258 1_455
As1 Rb0 3.947258 1_554
Au0 K0 3.556699 1_565
Au0 K1 3.556699 1_544
Au0 K0 3.556699 1_655
Au0 K1 3.556699 1_454
Au0 Rb0 3.839262 1_554
Au0 Rb0 3.839262 1_555
Au1 K0 3.556699 1_655
Au1 K1 3.556699 1_445
Au1 K0 3.556699 1_556
Au1 K1 3.556699 1_544
Au1 Rb0 3.839262 1_545
Au1 Rb0 3.839262 1_555
Au2 K0 3.556698 1_565
Au2 K1 3.556698 1_445
Au2 K0 3.556699 1_556
Au2 K1 3.556699 1_454
Au2 Rb0 3.839262 1_455
Au2 Rb0 3.839262 1_555
