# generated using pymatgen
data_Na2ZnAg3
_symmetry_space_group_name_H-M   'P 1'
_cell_length_a   5.64868753
_cell_length_b   5.41163166
_cell_length_c   5.64868768
_cell_angle_alpha   58.54005493
_cell_angle_beta   60.00000463
_cell_angle_gamma   58.54004979
_symmetry_Int_Tables_number   1
_chemical_formula_structural   Na2ZnAg3
_chemical_formula_sum   'Na2 Zn1 Ag3'
_cell_volume   119.33384837
_cell_formula_units_Z   1
loop_
 _symmetry_equiv_pos_site_id
 _symmetry_equiv_pos_as_xyz
  1  'x, y, z'
loop_
 _atom_site_type_symbol
 _atom_site_label
 _atom_site_symmetry_multiplicity
 _atom_site_fract_x
 _atom_site_fract_y
 _atom_site_fract_z
 _atom_site_occupancy
  Na  Na0  1  0.50076058  0.49771827  0.50076058  1
  Na  Na1  1  0.74923942  0.75228173  0.74923942  1
  Zn  Zn0  1  0.12500000  0.62500000  0.12500000  1
  Ag  Ag0  1  0.62500000  0.12500000  0.12500000  1
  Ag  Ag1  1  0.12500000  0.12500000  0.12500000  1
  Ag  Ag2  1  0.12500000  0.12500000  0.62500000  1
loop_
_geom_bond_atom_site_label_1
_geom_bond_atom_site_label_2
_geom_bond_distance
_geom_bond_site_symmetry_2
Na0 Na1 3.219204 1_545
Na0 Zn0 3.307269 1_555
Na0 Zn0 3.307269 1_556
Na0 Zn0 3.307269 1_655
Na0 Na1 3.441577 1_555
Na0 Na1 3.441577 1_455
Na0 Na1 3.441577 1_554
Na1 Zn0 3.307269 1_656
Na1 Zn0 3.307269 1_655
Na1 Zn0 3.307269 1_556
Ag0 Zn0 2.705816 1_645
Ag0 Zn0 2.705816 1_555
Ag0 Ag1 2.824344 1_555
Ag0 Ag1 2.824344 1_655
Ag0 Ag2 2.824344 1_555
Ag0 Ag2 2.824344 1_654
Ag0 Na1 3.161861 1_554
Ag0 Na0 3.161861 1_545
Ag0 Na0 3.250806 1_555
Ag0 Na1 3.250806 1_544
Ag0 Na1 3.250806 1_545
Ag0 Na0 3.250806 1_554
Ag1 Zn0 2.705816 1_545
Ag1 Zn0 2.705816 1_555
Ag1 Ag2 2.824344 1_555
Ag1 Ag2 2.824344 1_554
Ag1 Na0 3.161861 1_545
Ag1 Na1 3.161861 1_454
Ag1 Na0 3.250806 1_455
Ag1 Na1 3.250806 1_544
Ag1 Na0 3.250806 1_554
Ag1 Na1 3.250806 1_445
Ag2 Zn0 2.705816 1_546
Ag2 Zn0 2.705816 1_555
Ag2 Na1 3.161861 1_455
Ag2 Na0 3.161861 1_545
Ag2 Na1 3.250806 1_545
Ag2 Na0 3.250806 1_455
Ag2 Na0 3.250806 1_555
Ag2 Na1 3.250806 1_445
