# generated using pymatgen
data_K2TiZn3As4
_symmetry_space_group_name_H-M   'P 1'
_cell_length_a   7.61741117
_cell_length_b   7.61741063
_cell_length_c   5.81243680
_cell_angle_alpha   90.00000000
_cell_angle_beta   90.00000000
_cell_angle_gamma   135.13759729
_symmetry_Int_Tables_number   1
_chemical_formula_structural   K2TiZn3As4
_chemical_formula_sum   'K2 Ti1 Zn3 As4'
_cell_volume   237.90991076
_cell_formula_units_Z   1
loop_
 _symmetry_equiv_pos_site_id
 _symmetry_equiv_pos_as_xyz
  1  'x, y, z'
loop_
 _atom_site_type_symbol
 _atom_site_label
 _atom_site_symmetry_multiplicity
 _atom_site_fract_x
 _atom_site_fract_y
 _atom_site_fract_z
 _atom_site_occupancy
  K  K0  1  0.50000000  0.00000000  0.25570872  1
  K  K1  1  0.00000000  0.50000000  0.74429128  1
  Ti  Ti0  1  0.00000000  0.00000000  0.00000000  1
  Zn  Zn0  1  0.50000000  0.50000000  0.50000000  1
  Zn  Zn1  1  0.50000000  0.50000000  0.00000000  1
  Zn  Zn2  1  0.00000000  0.00000000  0.50000000  1
  As  As0  1  0.65221142  0.86140412  0.75725962  1
  As  As1  1  0.13859588  0.34778858  0.24274038  1
  As  As2  1  0.86140412  0.65221142  0.24274038  1
  As  As3  1  0.34778858  0.13859588  0.75725962  1
loop_
_geom_bond_atom_site_label_1
_geom_bond_atom_site_label_2
_geom_bond_distance
_geom_bond_site_symmetry_2
As0 Ti0 2.481703 1_666
As0 Zn1 2.527629 1_556
As0 Zn2 2.530635 1_665
As0 Zn0 2.575688 1_555
As0 K1 3.523943 1_665
As0 K0 3.547956 1_566
As0 K0 3.562694 1_565
As0 K1 3.588634 1_555
As1 Ti0 2.481703 1_555
As1 Zn1 2.527629 1_555
As1 Zn2 2.530635 1_555
As1 Zn0 2.575688 1_555
As1 K0 3.523944 1_455
As1 K1 3.547956 1_554
As1 K1 3.562694 1_555
As1 K0 3.588634 1_565
As2 Ti0 2.481703 1_665
As2 Zn1 2.527629 1_555
As2 Zn2 2.530635 1_665
As2 Zn0 2.575688 1_555
As2 K0 3.523944 1_665
As2 K1 3.547956 1_654
As2 K1 3.562694 1_655
As2 K0 3.588634 1_555
As3 Ti0 2.481703 1_556
As3 Zn1 2.527629 1_556
As3 Zn2 2.530635 1_555
As3 Zn0 2.575688 1_555
As3 K1 3.523943 1_545
As3 K0 3.547956 1_556
As3 K0 3.562694 1_555
As3 K1 3.588634 1_655
