# generated using pymatgen
data_KBaPt4
_symmetry_space_group_name_H-M   'P 1'
_cell_length_a   5.58353167
_cell_length_b   5.58353119
_cell_length_c   5.58353038
_cell_angle_alpha   59.99999320
_cell_angle_beta   59.99999609
_cell_angle_gamma   59.99998784
_symmetry_Int_Tables_number   1
_chemical_formula_structural   KBaPt4
_chemical_formula_sum   'K1 Ba1 Pt4'
_cell_volume   123.08687366
_cell_formula_units_Z   1
loop_
 _symmetry_equiv_pos_site_id
 _symmetry_equiv_pos_as_xyz
  1  'x, y, z'
loop_
 _atom_site_type_symbol
 _atom_site_label
 _atom_site_symmetry_multiplicity
 _atom_site_fract_x
 _atom_site_fract_y
 _atom_site_fract_z
 _atom_site_occupancy
  K  K0  1  0.50000000  0.50000000  0.50000000  1
  Ba  Ba0  1  0.75000000  0.75000000  0.75000000  1
  Pt  Pt0  1  0.12525833  0.12525833  0.12525833  1
  Pt  Pt1  1  0.62422500  0.12525833  0.12525833  1
  Pt  Pt2  1  0.12525833  0.62422500  0.12525833  1
  Pt  Pt3  1  0.12525833  0.12525833  0.62422500  1
loop_
_geom_bond_atom_site_label_1
_geom_bond_atom_site_label_2
_geom_bond_distance
_geom_bond_site_symmetry_2
K0 Pt1 3.273021 1_556
K0 Pt0 3.273022 1_565
K0 Pt2 3.273022 1_556
K0 Pt3 3.273022 1_565
K0 Pt0 3.273022 1_655
K0 Pt1 3.273022 1_555
K0 Pt0 3.273022 1_556
K0 Pt3 3.273022 1_655
K0 Pt2 3.273022 1_555
K0 Pt1 3.273022 1_565
K0 Pt2 3.273022 1_655
K0 Pt3 3.273023 1_555
Ba0 Pt1 3.274252 1_565
Ba0 Pt0 3.274252 1_656
Ba0 Pt2 3.274252 1_655
Ba0 Pt0 3.274252 1_566
Ba0 Pt3 3.274252 1_655
Ba0 Pt1 3.274252 1_566
Ba0 Pt0 3.274252 1_665
Ba0 Pt3 3.274252 1_565
Ba0 Pt2 3.274252 1_656
Ba0 Pt1 3.274252 1_556
Ba0 Pt2 3.274252 1_556
Ba0 Pt3 3.274253 1_665
Ba0 K0 3.419200 1_556
Ba0 K0 3.419200 1_565
Ba0 K0 3.419201 1_655
Ba0 K0 3.419201 1_555
Pt0 Pt3 2.785996 1_555
Pt0 Pt2 2.785996 1_555
Pt0 Pt1 2.785996 1_555
Pt0 Pt3 2.797535 1_554
Pt0 Pt2 2.797535 1_545
Pt0 Pt1 2.797535 1_455
Pt1 Pt2 2.785996 1_555
Pt1 Pt3 2.785996 1_555
Pt1 Pt2 2.797535 1_645
Pt1 Pt3 2.797535 1_654
Pt2 Pt3 2.785995 1_555
Pt2 Pt3 2.797535 1_564
