# generated using pymatgen
data_Cu2GeRh3S8
_symmetry_space_group_name_H-M   'P 1'
_cell_length_a   6.95221050
_cell_length_b   6.97539117
_cell_length_c   6.97529579
_cell_angle_alpha   60.00264505
_cell_angle_beta   59.89164053
_cell_angle_gamma   59.89055541
_symmetry_Int_Tables_number   1
_chemical_formula_structural   Cu2GeRh3S8
_chemical_formula_sum   'Cu2 Ge1 Rh3 S8'
_cell_volume   238.79813321
_cell_formula_units_Z   1
loop_
 _symmetry_equiv_pos_site_id
 _symmetry_equiv_pos_as_xyz
  1  'x, y, z'
loop_
 _atom_site_type_symbol
 _atom_site_label
 _atom_site_symmetry_multiplicity
 _atom_site_fract_x
 _atom_site_fract_y
 _atom_site_fract_z
 _atom_site_occupancy
  Cu  Cu0  1  0.74507039  0.75163964  0.75165591  1
  Cu  Cu1  1  0.50492961  0.49836036  0.49834409  1
  Ge  Ge0  1  0.62500000  0.12500000  0.12500000  1
  Rh  Rh0  1  0.12500000  0.12500000  0.62500000  1
  Rh  Rh1  1  0.12500000  0.62500000  0.12500000  1
  Rh  Rh2  1  0.12500000  0.12500000  0.12500000  1
  S  S0  1  0.88848200  0.34899742  0.88126377  1
  S  S1  1  0.36150149  0.36873851  0.90099764  1
  S  S2  1  0.36148941  0.36874746  0.36875648  1
  S  S3  1  0.90430898  0.36524515  0.36522682  1
  S  S4  1  0.88851059  0.88125254  0.88124352  1
  S  S5  1  0.34569102  0.88475485  0.88477318  1
  S  S6  1  0.36151800  0.90100258  0.36873623  1
  S  S7  1  0.88849851  0.88126149  0.34900236  1
loop_
_geom_bond_atom_site_label_1
_geom_bond_atom_site_label_2
_geom_bond_distance
_geom_bond_site_symmetry_2
Cu0 S5 2.263305 1_555
Cu0 S4 2.292380 1_555
Cu0 S0 2.292476 1_555
Cu0 S7 2.292538 1_555
Cu1 S3 2.263305 1_555
Cu1 S2 2.292380 1_555
Cu1 S6 2.292476 1_555
Cu1 S1 2.292538 1_555
Ge0 S0 2.403767 1_554
Ge0 S6 2.403767 1_545
Ge0 S7 2.403819 1_545
Ge0 S1 2.403819 1_554
Ge0 S2 2.403820 1_555
Ge0 S4 2.403820 1_544
Rh0 S2 2.367760 1_555
Rh0 S4 2.367760 1_445
Rh0 S0 2.367797 1_455
Rh0 S6 2.367797 1_545
Rh0 S5 2.370431 1_545
Rh0 S3 2.370431 1_455
Rh1 S2 2.367752 1_555
Rh1 S4 2.367752 1_454
Rh1 S7 2.367811 1_455
Rh1 S1 2.367811 1_554
Rh1 S5 2.370392 1_554
Rh1 S3 2.370392 1_455
Rh2 S1 2.367763 1_554
Rh2 S7 2.367763 1_445
Rh2 S6 2.367781 1_545
Rh2 S0 2.367781 1_454
Rh2 S3 2.370442 1_455
Rh2 S5 2.370442 1_544
