# generated using pymatgen
data_Ba8IrW3O20
_symmetry_space_group_name_H-M   'P 1'
_cell_length_a   5.74562410
_cell_length_b   7.43383161
_cell_length_c   11.60654851
_cell_angle_alpha   89.94501123
_cell_angle_beta   90.00000000
_cell_angle_gamma   90.00000000
_symmetry_Int_Tables_number   1
_chemical_formula_structural   Ba8IrW3O20
_chemical_formula_sum   'Ba8 Ir1 W3 O20'
_cell_volume   495.73869504
_cell_formula_units_Z   1
loop_
 _symmetry_equiv_pos_site_id
 _symmetry_equiv_pos_as_xyz
  1  'x, y, z'
loop_
 _atom_site_type_symbol
 _atom_site_label
 _atom_site_symmetry_multiplicity
 _atom_site_fract_x
 _atom_site_fract_y
 _atom_site_fract_z
 _atom_site_occupancy
  Ba  Ba0  1  0.75000000  0.17791065  0.58087350  1
  Ba  Ba1  1  0.25000000  0.84112266  0.41834399  1
  Ba  Ba2  1  0.75000000  0.67257609  0.91596454  1
  Ba  Ba3  1  0.25000000  0.32264534  0.08519623  1
  Ba  Ba4  1  0.25000000  0.02052763  0.78568974  1
  Ba  Ba5  1  0.75000000  0.97839770  0.21371558  1
  Ba  Ba6  1  0.25000000  0.51638397  0.71485936  1
  Ba  Ba7  1  0.75000000  0.47695551  0.28679066  1
  Ir  Ir0  1  0.25000000  0.33337708  0.43702823  1
  W  W0  1  0.75000000  0.67934832  0.56711192  1
  W  W1  1  0.25000000  0.82113277  0.06532569  1
  W  W2  1  0.75000000  0.17585719  0.93395398  1
  O  O0  1  0.49018018  0.67576932  0.11449895  1
  O  O1  1  0.99018290  0.32163061  0.88439541  1
  O  O2  1  0.00878756  0.18122630  0.38296391  1
  O  O3  1  0.51038630  0.82172563  0.61769740  1
  O  O4  1  0.50981710  0.32163061  0.88439541  1
  O  O5  1  0.00981982  0.67576932  0.11449895  1
  O  O6  1  0.98961370  0.82172563  0.61769740  1
  O  O7  1  0.49121244  0.18122630  0.38296391  1
  O  O8  1  0.75000000  0.27585736  0.08902833  1
  O  O9  1  0.25000000  0.72181557  0.90987694  1
  O  O10  1  0.75000000  0.77906743  0.41271850  1
  O  O11  1  0.25000000  0.21180198  0.58853891  1
  O  O12  1  0.00133073  0.50088850  0.50038296  1
  O  O13  1  0.49866927  0.50088850  0.50038296  1
  O  O14  1  0.50001943  0.99878853  0.00006584  1
  O  O15  1  0.99998057  0.99878853  0.00006584  1
  O  O16  1  0.25000000  0.47641862  0.30164324  1
  O  O17  1  0.75000000  0.52228970  0.69340933  1
  O  O18  1  0.25000000  0.97243640  0.19449437  1
  O  O19  1  0.75000000  0.02401921  0.80542505  1
loop_
_geom_bond_atom_site_label_1
_geom_bond_atom_site_label_2
_geom_bond_distance
_geom_bond_site_symmetry_2
Ba0 O2 2.736382 1_655
Ba0 O7 2.736382 1_555
Ba0 O19 2.845287 1_555
Ba0 O17 2.875124 1_555
Ba0 O11 2.885218 1_655
Ba0 O11 2.885218 1_555
Ba0 O12 2.952688 1_655
Ba0 O13 2.952688 1_555
Ba0 O6 3.014437 1_545
Ba0 O3 3.014437 1_545
Ba1 O3 2.759005 1_555
Ba1 O6 2.759005 1_455
Ba1 O18 2.774575 1_555
Ba1 O10 2.910357 1_455
Ba1 O10 2.910357 1_555
Ba1 O7 2.911969 1_565
Ba1 O2 2.911969 1_565
Ba1 O16 3.031835 1_555
Ba1 O13 3.056218 1_555
Ba1 O12 3.056218 1_555
Ba1 O11 3.392007 1_565
Ba2 O5 2.745723 1_656
Ba2 O0 2.745723 1_556
Ba2 O17 2.815329 1_555
Ba2 O9 2.896891 1_655
Ba2 O9 2.896891 1_555
Ba2 O19 2.909489 1_565
Ba2 O4 2.974339 1_555
Ba2 O1 2.974339 1_555
Ba2 O15 2.983450 1_556
Ba2 O14 2.983450 1_556
Ba3 O16 2.761052 1_555
Ba3 O1 2.767724 1_454
Ba3 O4 2.767724 1_554
Ba3 O8 2.894127 1_455
Ba3 O8 2.894127 1_555
Ba3 O18 2.894927 1_545
Ba3 O14 2.973293 1_545
Ba3 O15 2.973293 1_445
Ba3 O0 2.985415 1_555
Ba3 O5 2.985415 1_555
Ba4 O9 2.646205 1_545
Ba4 O11 2.692880 1_555
Ba4 O3 2.868733 1_545
Ba4 O6 2.868733 1_445
Ba4 O14 2.877482 1_546
Ba4 O15 2.877482 1_446
Ba4 O19 2.882048 1_455
Ba4 O19 2.882048 1_555
Ba4 O1 2.925079 1_455
Ba4 O4 2.925079 1_555
Ba5 O8 2.641572 1_565
Ba5 O10 2.742993 1_555
Ba5 O15 2.869545 1_555
Ba5 O14 2.869545 1_555
Ba5 O18 2.881805 1_655
Ba5 O18 2.881805 1_555
Ba5 O2 2.889431 1_665
Ba5 O7 2.889431 1_565
Ba5 O5 2.936103 1_655
Ba5 O0 2.936103 1_555
Ba6 O11 2.698630 1_555
Ba6 O9 2.731694 1_555
Ba6 O4 2.861991 1_555
Ba6 O1 2.861991 1_455
Ba6 O13 2.872619 1_555
Ba6 O12 2.872619 1_555
Ba6 O17 2.883910 1_455
Ba6 O17 2.883910 1_555
Ba6 O3 2.942337 1_555
Ba6 O6 2.942337 1_455
Ba7 O10 2.680742 1_555
Ba7 O8 2.740434 1_555
Ba7 O12 2.874643 1_655
Ba7 O13 2.874643 1_555
Ba7 O16 2.877982 1_655
Ba7 O16 2.877982 1_555
Ba7 O2 2.878386 1_655
Ba7 O7 2.878386 1_555
Ba7 O5 2.899317 1_655
Ba7 O0 2.899317 1_555
Ir0 O7 1.896098 1_555
Ir0 O2 1.896098 1_555
Ir0 O16 1.896483 1_555
Ir0 O11 1.976392 1_555
Ir0 O13 2.033341 1_555
Ir0 O12 2.033341 1_555
O0 W1 1.842993 1_555
O1 W2 1.846178 1_555
O3 W0 1.833445 1_555
O4 W2 1.846178 1_555
O5 W1 1.842993 1_555
O6 W0 1.833445 1_555
O8 W2 1.948012 1_554
O9 W1 1.950097 1_556
O10 W0 1.938593 1_555
O12 W0 2.108808 1_455
O13 W0 2.108808 1_555
O14 W1 2.092733 1_555
O14 W2 2.093428 1_564
O15 W1 2.092733 1_655
O15 W2 2.093428 1_564
O17 W0 1.873146 1_555
O18 W1 1.875085 1_555
O19 W2 1.871545 1_555
