# generated using pymatgen
data_KRbInGa13
_symmetry_space_group_name_H-M   'P 1'
_cell_length_a   10.32063472
_cell_length_b   10.32063338
_cell_length_c   10.32063543
_cell_angle_alpha   37.73021220
_cell_angle_beta   37.73021346
_cell_angle_gamma   37.73021718
_symmetry_Int_Tables_number   1
_chemical_formula_structural   KRbInGa13
_chemical_formula_sum   'K1 Rb1 In1 Ga13'
_cell_volume   369.34543025
_cell_formula_units_Z   1
loop_
 _symmetry_equiv_pos_site_id
 _symmetry_equiv_pos_as_xyz
  1  'x, y, z'
loop_
 _atom_site_type_symbol
 _atom_site_label
 _atom_site_symmetry_multiplicity
 _atom_site_fract_x
 _atom_site_fract_y
 _atom_site_fract_z
 _atom_site_occupancy
  K  K0  1  0.19754260  0.19754260  0.19754260  1
  Rb  Rb0  1  0.80378543  0.80378543  0.80378543  1
  In  In0  1  0.45693727  0.45693727  0.45693727  1
  Ga  Ga0  1  0.54930949  0.54930949  0.54930949  1
  Ga  Ga1  1  0.58064577  0.18187388  0.18187388  1
  Ga  Ga2  1  0.18187388  0.18187388  0.58064577  1
  Ga  Ga3  1  0.18187388  0.58064577  0.18187388  1
  Ga  Ga4  1  0.81688980  0.41785360  0.81688980  1
  Ga  Ga5  1  0.41785360  0.81688980  0.81688980  1
  Ga  Ga6  1  0.81688980  0.81688980  0.41785360  1
  Ga  Ga7  1  0.80609597  0.20893025  0.20893025  1
  Ga  Ga8  1  0.20893025  0.20893025  0.80609597  1
  Ga  Ga9  1  0.20893025  0.80609597  0.20893025  1
  Ga  Ga10  1  0.78562897  0.20118208  0.78562897  1
  Ga  Ga11  1  0.20118208  0.78562897  0.78562897  1
  Ga  Ga12  1  0.78562897  0.78562897  0.20118208  1
loop_
_geom_bond_atom_site_label_1
_geom_bond_atom_site_label_2
_geom_bond_distance
_geom_bond_site_symmetry_2
In0 Rb0 3.872839 1_554
In0 Rb0 3.872839 1_545
In0 Rb0 3.872839 1_455
Ga0 Ga12 2.548126 1_555
Ga0 Ga11 2.548127 1_555
Ga0 Ga10 2.548127 1_555
Ga0 In0 2.653199 1_555
Ga0 K0 3.889540 1_556
Ga0 K0 3.889541 1_565
Ga0 K0 3.889541 1_655
Ga1 Ga4 2.533594 1_554
Ga1 Ga6 2.533595 1_545
Ga1 Ga12 2.632873 1_545
Ga1 Ga10 2.632873 1_554
Ga1 Ga3 2.661472 1_555
Ga1 Ga2 2.661472 1_555
Ga1 Ga7 2.783653 1_555
Ga1 K0 3.701888 1_555
Ga2 Ga4 2.533595 1_455
Ga2 Ga5 2.533595 1_545
Ga2 Ga3 2.661472 1_555
Ga2 Ga8 2.783653 1_555
Ga2 K0 3.701889 1_555
Ga3 Ga5 2.533594 1_554
Ga3 Ga6 2.533595 1_455
Ga3 Ga9 2.783653 1_555
Ga3 K0 3.701888 1_555
Ga4 Ga8 2.626698 1_655
Ga4 Ga7 2.626698 1_556
Ga4 Ga6 2.663236 1_555
Ga4 Ga5 2.663237 1_555
Ga4 Rb0 3.771749 1_555
Ga5 Ga8 2.626697 1_565
Ga5 Ga9 2.626698 1_556
Ga5 Ga6 2.663237 1_555
Ga5 Rb0 3.771749 1_555
Ga6 Ga7 2.626697 1_565
Ga6 Ga9 2.626698 1_655
Ga6 Rb0 3.771749 1_555
Ga7 Ga9 2.688586 1_645
Ga7 Ga8 2.688586 1_654
Ga7 In0 2.696648 1_555
Ga7 Rb0 3.807304 1_554
Ga7 Rb0 3.807305 1_545
Ga7 K0 3.856006 1_655
Ga8 Ga9 2.688585 1_546
Ga8 In0 2.696648 1_555
Ga8 Rb0 3.807304 1_455
Ga8 Rb0 3.807305 1_545
Ga8 K0 3.856007 1_556
Ga9 In0 2.696648 1_555
Ga9 Rb0 3.807304 1_554
Ga9 Rb0 3.807305 1_455
Ga9 K0 3.856006 1_565
Ga10 Ga2 2.632873 1_655
Ga10 Ga4 2.766911 1_555
Ga10 Ga12 2.773473 1_546
Ga10 Ga11 2.773473 1_645
Ga10 K0 3.769066 1_556
Ga10 K0 3.769066 1_655
Ga10 Rb0 3.809956 1_545
Ga11 Ga2 2.632872 1_565
Ga11 Ga3 2.632873 1_556
Ga11 Ga5 2.766911 1_555
Ga11 Ga12 2.773473 1_456
Ga11 K0 3.769065 1_556
Ga11 K0 3.769066 1_565
Ga11 Rb0 3.809956 1_455
Ga12 Ga3 2.632873 1_655
Ga12 Ga6 2.766911 1_555
Ga12 K0 3.769066 1_655
Ga12 K0 3.769066 1_565
Ga12 Rb0 3.809957 1_554
