# generated using pymatgen
data_Bi3SbO7
_symmetry_space_group_name_H-M   'P 1'
_cell_length_a   6.61626455
_cell_length_b   6.96873844
_cell_length_c   7.61190484
_cell_angle_alpha   106.38098812
_cell_angle_beta   89.41556888
_cell_angle_gamma   103.67477169
_symmetry_Int_Tables_number   1
_chemical_formula_structural   Bi3SbO7
_chemical_formula_sum   'Bi6 Sb2 O14'
_cell_volume   326.57015625
_cell_formula_units_Z   2
loop_
 _symmetry_equiv_pos_site_id
 _symmetry_equiv_pos_as_xyz
  1  'x, y, z'
loop_
 _atom_site_type_symbol
 _atom_site_label
 _atom_site_symmetry_multiplicity
 _atom_site_fract_x
 _atom_site_fract_y
 _atom_site_fract_z
 _atom_site_occupancy
  Bi  Bi0  1  0.51849983  0.01010142  0.74470746  1
  Bi  Bi1  1  0.48150017  0.98989858  0.25529254  1
  Bi  Bi2  1  0.26578403  0.50998559  0.87920810  1
  Bi  Bi3  1  0.73421597  0.49001441  0.12079190  1
  Bi  Bi4  1  0.74137222  0.53775503  0.62931206  1
  Bi  Bi5  1  0.25862778  0.46224497  0.37068794  1
  Sb  Sb0  1  -0.00000000  0.00000000  0.50000000  1
  Sb  Sb1  1  -0.00000000  0.00000000  -0.00000000  1
  O  O0  1  0.46750165  0.62451872  0.18185970  1
  O  O1  1  0.53249835  0.37548128  0.81814030  1
  O  O2  1  0.27753577  0.95278882  0.94569088  1
  O  O3  1  0.72246423  0.04721118  0.05430912  1
  O  O4  1  0.27399472  0.93856700  0.52207484  1
  O  O5  1  0.72600528  0.06143300  0.47792516  1
  O  O6  1  0.52960058  0.34030799  0.36181202  1
  O  O7  1  0.47039942  0.65969201  0.63818798  1
  O  O8  1  0.89263174  0.69856074  0.96342157  1
  O  O9  1  0.10736826  0.30143926  0.03657843  1
  O  O10  1  0.11220257  0.29963405  0.61750355  1
  O  O11  1  0.88779743  0.70036595  0.38249645  1
  O  O12  1  0.90613584  0.92795081  0.73143703  1
  O  O13  1  0.09386416  0.07204919  0.26856297  1
loop_
_geom_bond_atom_site_label_1
_geom_bond_atom_site_label_2
_geom_bond_distance
_geom_bond_site_symmetry_2
Bi0 O4 2.221595 1_545
Bi0 O2 2.244006 1_545
Bi0 O7 2.289690 1_545
Bi0 O1 2.427161 1_555
Bi0 O5 2.501465 1_555
Bi0 O3 2.645360 1_556
Bi0 O12 2.751720 1_545
Bi1 O5 2.221595 1_565
Bi1 O3 2.244006 1_565
Bi1 O6 2.289690 1_565
Bi1 O0 2.427161 1_555
Bi1 O4 2.501465 1_555
Bi1 O2 2.645360 1_554
Bi1 O13 2.751720 1_565
Bi2 O1 2.174450 1_555
Bi2 O10 2.199911 1_555
Bi2 O9 2.209457 1_556
Bi2 O0 2.499492 1_556
Bi2 O7 2.578393 1_555
Bi3 O0 2.174450 1_555
Bi3 O11 2.199911 1_555
Bi3 O8 2.209457 1_554
Bi3 O1 2.499492 1_554
Bi3 O6 2.578393 1_555
Bi4 O7 2.150891 1_555
Bi4 O1 2.322058 1_555
Bi4 O6 2.359841 1_555
Bi4 O11 2.529222 1_555
Bi4 O12 2.570996 1_555
Bi4 O8 2.576702 1_555
Bi5 O6 2.150891 1_555
Bi5 O0 2.322058 1_555
Bi5 O7 2.359841 1_555
Bi5 O10 2.529222 1_555
Bi5 O13 2.570996 1_555
Bi5 O9 2.576702 1_555
O2 Sb1 1.960714 1_566
O3 Sb1 1.960714 1_655
O4 Sb0 1.977770 1_565
O5 Sb0 1.977770 1_655
O8 Sb1 1.990844 1_666
O9 Sb1 1.990844 1_555
O10 Sb0 1.984525 1_555
O11 Sb0 1.984525 1_665
O12 Sb0 2.017533 1_665
O12 Sb1 2.028881 1_666
O13 Sb0 2.017533 1_555
O13 Sb1 2.028881 1_555
