# generated using pymatgen
data_Sc4Si6IrRh6
_symmetry_space_group_name_H-M   'P 1'
_cell_length_a   6.93044189
_cell_length_b   6.93044149
_cell_length_c   6.93044199
_cell_angle_alpha   109.47121923
_cell_angle_beta   109.47121804
_cell_angle_gamma   109.47122035
_symmetry_Int_Tables_number   1
_chemical_formula_structural   Sc4Si6IrRh6
_chemical_formula_sum   'Sc4 Si6 Ir1 Rh6'
_cell_volume   256.24824085
_cell_formula_units_Z   1
loop_
 _symmetry_equiv_pos_site_id
 _symmetry_equiv_pos_as_xyz
  1  'x, y, z'
loop_
 _atom_site_type_symbol
 _atom_site_label
 _atom_site_symmetry_multiplicity
 _atom_site_fract_x
 _atom_site_fract_y
 _atom_site_fract_z
 _atom_site_occupancy
  Sc  Sc0  1  0.00000000  0.00000000  0.50000000  1
  Sc  Sc1  1  0.00000000  0.50000000  0.00000000  1
  Sc  Sc2  1  0.50000000  0.00000000  0.00000000  1
  Sc  Sc3  1  0.50000000  0.50000000  0.50000000  1
  Si  Si0  1  0.67922984  0.67922984  0.00000000  1
  Si  Si1  1  0.32077016  1.00000000  0.32077016  1
  Si  Si2  1  1.00000000  0.32077016  0.32077016  1
  Si  Si3  1  0.32077016  0.32077016  1.00000000  1
  Si  Si4  1  0.67922984  0.00000000  0.67922984  1
  Si  Si5  1  0.00000000  0.67922984  0.67922984  1
  Ir  Ir0  1  0.00000000  0.00000000  0.00000000  1
  Rh  Rh0  1  0.75000000  0.25000000  0.50000000  1
  Rh  Rh1  1  0.75000000  0.50000000  0.25000000  1
  Rh  Rh2  1  0.50000000  0.25000000  0.75000000  1
  Rh  Rh3  1  0.25000000  0.50000000  0.75000000  1
  Rh  Rh4  1  0.25000000  0.75000000  0.50000000  1
  Rh  Rh5  1  0.50000000  0.75000000  0.25000000  1
loop_
_geom_bond_atom_site_label_1
_geom_bond_atom_site_label_2
_geom_bond_distance
_geom_bond_site_symmetry_2
Sc0 Si2 2.885466 1_455
Sc0 Si5 2.885466 1_545
Sc0 Si1 2.885466 1_545
Sc0 Si4 2.885466 1_455
Sc0 Si3 2.885467 1_555
Sc0 Si0 2.885467 1_445
Sc1 Si3 2.885466 1_554
Sc1 Si0 2.885466 1_455
Sc1 Si2 2.885466 1_455
Sc1 Si5 2.885466 1_554
Sc1 Si1 2.885466 1_555
Sc1 Si4 2.885466 1_454
Sc2 Si3 2.885466 1_554
Sc2 Si0 2.885466 1_545
Sc2 Si1 2.885466 1_545
Sc2 Si4 2.885466 1_554
Sc2 Si2 2.885467 1_555
Sc2 Si5 2.885467 1_544
Sc3 Si4 2.885466 1_565
Sc3 Si1 2.885466 1_545
Sc3 Si5 2.885467 1_655
Sc3 Si2 2.885467 1_455
Sc3 Si0 2.885467 1_556
Sc3 Si3 2.885467 1_554
Ir0 Si3 2.566990 1_554
Ir0 Si0 2.566990 1_445
Ir0 Si2 2.566990 1_455
Ir0 Si5 2.566990 1_544
Ir0 Si1 2.566991 1_545
Ir0 Si4 2.566991 1_454
Rh0 Si4 2.461668 1_555
Rh0 Si5 2.461668 1_655
Rh0 Si2 2.461668 1_555
Rh0 Si1 2.461668 1_545
Rh0 Sc0 2.829341 1_655
Rh0 Sc3 2.829341 1_555
Rh0 Sc1 2.829341 1_656
Rh0 Sc2 2.829341 1_555
Rh1 Si2 2.461668 1_555
Rh1 Si0 2.461668 1_555
Rh1 Si3 2.461668 1_554
Rh1 Si5 2.461668 1_655
Rh1 Sc0 2.829341 1_665
Rh1 Sc2 2.829341 1_555
Rh1 Sc1 2.829341 1_655
Rh1 Sc3 2.829341 1_555
Rh2 Si4 2.461668 1_555
Rh2 Si0 2.461668 1_556
Rh2 Si3 2.461668 1_555
Rh2 Si1 2.461668 1_545
Rh2 Sc2 2.829341 1_556
Rh2 Sc3 2.829341 1_555
Rh2 Sc0 2.829341 1_555
Rh2 Sc1 2.829341 1_656
Rh3 Si5 2.461668 1_555
Rh3 Si3 2.461668 1_555
Rh3 Si0 2.461668 1_556
Rh3 Si2 2.461668 1_455
Rh3 Sc2 2.829341 1_566
Rh3 Sc0 2.829341 1_555
Rh3 Sc1 2.829341 1_556
Rh3 Sc3 2.829341 1_555
Rh4 Si1 2.461668 1_555
Rh4 Si2 2.461668 1_455
Rh4 Si5 2.461668 1_555
Rh4 Si4 2.461668 1_565
Rh4 Sc0 2.829341 1_565
Rh4 Sc3 2.829341 1_555
Rh4 Sc1 2.829341 1_555
Rh4 Sc2 2.829341 1_566
Rh5 Si1 2.461668 1_555
Rh5 Si3 2.461668 1_554
Rh5 Si0 2.461668 1_555
Rh5 Si4 2.461668 1_565
Rh5 Sc2 2.829341 1_565
Rh5 Sc3 2.829341 1_555
Rh5 Sc0 2.829341 1_665
Rh5 Sc1 2.829341 1_555
