# generated using pymatgen
data_VZn2O4
_symmetry_space_group_name_H-M   'P 1'
_cell_length_a   5.95176821
_cell_length_b   10.29504589
_cell_length_c   5.95247028
_cell_angle_alpha   73.58897542
_cell_angle_beta   120.48796212
_cell_angle_gamma   89.87388722
_symmetry_Int_Tables_number   1
_chemical_formula_structural   VZn2O4
_chemical_formula_sum   'V4 Zn8 O16'
_cell_volume   296.78621909
_cell_formula_units_Z   4
loop_
 _symmetry_equiv_pos_site_id
 _symmetry_equiv_pos_as_xyz
  1  'x, y, z'
loop_
 _atom_site_type_symbol
 _atom_site_label
 _atom_site_symmetry_multiplicity
 _atom_site_fract_x
 _atom_site_fract_y
 _atom_site_fract_z
 _atom_site_occupancy
  V  V0  1  0.56242191  0.81247862  0.12480489  1
  V  V1  1  0.56259697  0.31245212  0.62514430  1
  V  V2  1  0.06242190  0.31247516  0.12480747  1
  V  V3  1  0.06259400  0.81245658  0.62513671  1
  Zn  Zn0  1  0.49625193  0.49594944  0.00819959  1
  Zn  Zn1  1  0.99626919  0.99594223  0.00821852  1
  Zn  Zn2  1  0.62905040  0.12886675  0.24212729  1
  Zn  Zn3  1  0.12903229  0.62886631  0.24211012  1
  Zn  Zn4  1  0.06241401  0.31272533  0.62453770  1
  Zn  Zn5  1  0.56241167  0.81272623  0.62453057  1
  Zn  Zn6  1  0.31250434  0.06263524  0.62496766  1
  Zn  Zn7  1  0.81250037  0.56265166  0.62494822  1
  O  O0  1  0.96226060  0.20130632  0.35843899  1
  O  O1  1  0.46228711  0.70130287  0.35843430  1
  O  O2  1  0.44015494  0.20134301  0.83639772  1
  O  O3  1  0.94015568  0.70132016  0.83641369  1
  O  O4  1  0.68482921  0.42366800  0.41375484  1
  O  O5  1  0.18482873  0.92368856  0.41373906  1
  O  O6  1  0.16261208  0.42369879  0.89152943  1
  O  O7  1  0.66258445  0.92369935  0.89152825  1
  O  O8  1  0.20176399  0.42677788  0.37144616  1
  O  O9  1  0.70174781  0.92678710  0.37143788  1
  O  O10  1  0.69812358  0.42326462  0.87852488  1
  O  O11  1  0.19812792  0.92327684  0.87852111  1
  O  O12  1  0.42677778  0.20170248  0.37149933  1
  O  O13  1  0.92677865  0.70169019  0.37150052  1
  O  O14  1  0.92323953  0.19812716  0.87865041  1
  O  O15  1  0.42325295  0.69811803  0.87865236  1
loop_
_geom_bond_atom_site_label_1
_geom_bond_atom_site_label_2
_geom_bond_distance
_geom_bond_site_symmetry_2
O0 V2 1.882585 1_655
O0 Zn2 1.968137 1_555
O0 Zn4 2.061926 1_655
O0 Zn6 2.061987 1_655
O1 V0 1.882495 1_555
O1 Zn3 1.968339 1_555
O1 Zn7 2.061773 1_555
O1 Zn5 2.061966 1_555
O2 V1 1.881898 1_555
O2 Zn2 1.968832 1_556
O2 Zn6 2.061638 1_555
O2 Zn4 2.062612 1_555
O3 V3 1.882098 1_655
O3 Zn3 1.968667 1_656
O3 Zn7 2.061421 1_555
O3 Zn5 2.062706 1_555
O4 V1 1.882013 1_555
O4 Zn0 1.968009 1_555
O4 Zn4 2.060806 1_655
O4 Zn7 2.063234 1_555
O5 V3 1.882127 1_555
O5 Zn1 1.967834 1_455
O5 Zn5 2.060869 1_555
O5 Zn6 2.063036 1_565
O6 V2 1.881400 1_556
O6 Zn0 1.969215 1_556
O6 Zn4 2.062497 1_555
O6 Zn7 2.062893 1_455
O7 V0 1.881268 1_556
O7 Zn1 1.969392 1_556
O7 Zn5 2.062537 1_555
O7 Zn6 2.062687 1_565
O8 Zn3 1.965049 1_555
O8 V1 1.992896 1_555
O8 V2 1.993212 1_555
O8 Zn4 2.146806 1_555
O9 Zn2 1.964963 1_565
O9 V3 1.992969 1_655
O9 V0 1.993232 1_555
O9 Zn5 2.146780 1_555
O10 Zn0 1.965403 1_556
O10 V1 1.992163 1_555
O10 V2 1.992528 1_656
O10 Zn7 2.150344 1_555
O11 Zn1 1.965353 1_456
O11 V3 1.992243 1_555
O11 V0 1.992543 1_556
O11 Zn6 2.150111 1_565
O12 Zn2 1.966639 1_555
O12 V2 1.992765 1_555
O12 V1 1.992815 1_555
O12 Zn6 2.147949 1_555
O13 Zn3 1.966576 1_655
O13 V0 1.992828 1_555
O13 V3 1.992913 1_655
O13 Zn7 2.147747 1_555
O14 Zn1 1.965999 1_546
O14 V2 1.991560 1_656
O14 V1 1.992058 1_555
O14 Zn4 2.152513 1_655
O15 Zn0 1.965838 1_556
O15 V0 1.991641 1_556
O15 V3 1.992181 1_555
O15 Zn5 2.152520 1_555
