# generated using pymatgen
data_Ga5Pd
_symmetry_space_group_name_H-M   'P 1'
_cell_length_a   6.45095868
_cell_length_b   6.45095881
_cell_length_c   6.72253002
_cell_angle_alpha   118.67242642
_cell_angle_beta   118.67243017
_cell_angle_gamma   90.00000594
_symmetry_Int_Tables_number   1
_chemical_formula_structural   Ga5Pd
_chemical_formula_sum   'Ga10 Pd2'
_cell_volume   205.49900384
_cell_formula_units_Z   2
loop_
 _symmetry_equiv_pos_site_id
 _symmetry_equiv_pos_as_xyz
  1  'x, y, z'
loop_
 _atom_site_type_symbol
 _atom_site_label
 _atom_site_symmetry_multiplicity
 _atom_site_fract_x
 _atom_site_fract_y
 _atom_site_fract_z
 _atom_site_occupancy
  Ga  Ga0  1  -0.00000000  -0.00000000  -0.00000000  1
  Ga  Ga1  1  0.50000000  0.50000000  -0.00000000  1
  Ga  Ga2  1  0.28534574  0.78534574  0.28003619  1
  Ga  Ga3  1  0.49469045  0.28534574  0.28003619  1
  Ga  Ga4  1  0.78534574  0.99469045  0.28003619  1
  Ga  Ga5  1  0.50530955  0.71465426  0.71996381  1
  Ga  Ga6  1  0.21465426  0.00530955  0.71996381  1
  Ga  Ga7  1  0.00530955  0.50530955  0.71996381  1
  Ga  Ga8  1  0.71465426  0.21465426  0.71996381  1
  Ga  Ga9  1  0.99469045  0.49469045  0.28003619  1
  Pd  Pd0  1  0.25000000  0.25000000  0.50000000  1
  Pd  Pd1  1  0.75000000  0.75000000  0.50000000  1
loop_
_geom_bond_atom_site_label_1
_geom_bond_atom_site_label_2
_geom_bond_distance
_geom_bond_site_symmetry_2
Ga0 Pd1 2.469057 1_444
Ga0 Pd0 2.469057 1_555
Ga0 Ga6 2.833024 1_554
Ga0 Ga4 2.833024 1_445
Ga0 Ga5 2.833024 1_444
Ga0 Ga3 2.833024 1_555
Ga0 Ga2 2.833024 1_545
Ga0 Ga8 2.833024 1_454
Ga0 Ga7 2.833024 1_544
Ga0 Ga9 2.833024 1_455
Ga1 Pd1 2.469057 1_555
Ga1 Pd0 2.469057 1_554
Ga1 Ga5 2.833024 1_554
Ga1 Ga3 2.833024 1_555
Ga1 Ga6 2.833024 1_554
Ga1 Ga4 2.833024 1_555
Ga1 Ga7 2.833024 1_554
Ga1 Ga9 2.833024 1_555
Ga1 Ga2 2.833024 1_555
Ga1 Ga8 2.833024 1_554
Ga2 Ga9 2.651658 1_455
Ga2 Pd1 2.700665 1_555
Ga2 Pd0 2.700666 1_565
Ga2 Ga7 2.765702 1_554
Ga2 Ga5 2.869673 1_555
Ga2 Ga6 2.869673 1_565
Ga2 Ga8 2.892566 1_565
Ga3 Ga4 2.651658 1_545
Ga3 Pd0 2.700665 1_555
Ga3 Pd1 2.700665 1_555
Ga3 Ga6 2.765702 1_554
Ga3 Ga8 2.869673 1_555
Ga3 Ga7 2.869673 1_655
Ga3 Ga5 2.892566 1_555
Ga4 Pd1 2.700665 1_555
Ga4 Pd0 2.700665 1_665
Ga4 Ga5 2.765702 1_554
Ga4 Ga8 2.869673 1_565
Ga4 Ga7 2.869673 1_665
Ga4 Ga6 2.892566 1_665
Ga5 Ga6 2.651658 1_565
Ga5 Pd1 2.700665 1_555
Ga5 Pd0 2.700665 1_555
Ga5 Ga9 2.869673 1_455
Ga6 Pd0 2.700665 1_555
Ga6 Pd1 2.700665 1_445
Ga6 Ga9 2.869673 1_445
Ga7 Ga8 2.651658 1_455
Ga7 Pd1 2.700665 1_455
Ga7 Pd0 2.700665 1_555
Ga7 Ga9 2.892566 1_455
Ga8 Pd0 2.700665 1_555
Ga8 Pd1 2.700666 1_545
Ga8 Ga9 2.765702 1_556
Ga9 Pd0 2.700665 1_655
Ga9 Pd1 2.700665 1_555
