# generated using pymatgen
data_Al2Sn2S5
_symmetry_space_group_name_H-M   'P 1'
_cell_length_a   6.32297303
_cell_length_b   10.94950890
_cell_length_c   12.56596386
_cell_angle_alpha   90.00000000
_cell_angle_beta   90.00000000
_cell_angle_gamma   90.00000000
_symmetry_Int_Tables_number   1
_chemical_formula_structural   Al2Sn2S5
_chemical_formula_sum   'Al8 Sn8 S20'
_cell_volume   869.98502353
_cell_formula_units_Z   4
loop_
 _symmetry_equiv_pos_site_id
 _symmetry_equiv_pos_as_xyz
  1  'x, y, z'
loop_
 _atom_site_type_symbol
 _atom_site_label
 _atom_site_symmetry_multiplicity
 _atom_site_fract_x
 _atom_site_fract_y
 _atom_site_fract_z
 _atom_site_occupancy
  Al  Al0  1  0.64610291  0.11399218  0.76779368  1
  Al  Al1  1  0.35389709  0.61399218  0.23220632  1
  Al  Al2  1  0.85389709  0.11399218  0.26779368  1
  Al  Al3  1  0.14610291  0.61399218  0.73220632  1
  Al  Al4  1  0.14956327  0.28085555  0.81880191  1
  Al  Al5  1  0.85043673  0.78085555  0.18119809  1
  Al  Al6  1  0.35043673  0.28085555  0.31880191  1
  Al  Al7  1  0.64956327  0.78085555  0.68119809  1
  Sn  Sn0  1  0.54710777  0.48208323  0.53967572  1
  Sn  Sn1  1  0.45289223  0.98208323  0.46032428  1
  Sn  Sn2  1  0.95289223  0.48208323  0.03967572  1
  Sn  Sn3  1  0.04710777  0.98208323  0.96032428  1
  Sn  Sn4  1  0.55039614  0.25677212  0.01552203  1
  Sn  Sn5  1  0.44960386  0.75677212  0.98447797  1
  Sn  Sn6  1  0.94960386  0.25677212  0.51552203  1
  Sn  Sn7  1  0.05039614  0.75677212  0.48447797  1
  S  S0  1  0.48588070  0.96576283  0.67180654  1
  S  S1  1  0.51411930  0.46576283  0.32819346  1
  S  S2  1  0.01411930  0.96576283  0.17180654  1
  S  S3  1  0.98588070  0.46576283  0.82819346  1
  S  S4  1  0.51117402  0.79709661  0.22666101  1
  S  S5  1  0.48882598  0.29709661  0.77333899  1
  S  S6  1  0.98882598  0.79709661  0.72666101  1
  S  S7  1  0.01117402  0.29709661  0.27333899  1
  S  S8  1  0.14515007  0.53881982  0.56376575  1
  S  S9  1  0.85484993  0.03881982  0.43623425  1
  S  S10  1  0.35484993  0.53881982  0.06376575  1
  S  S11  1  0.64515007  0.03881982  0.93623425  1
  S  S12  1  0.64053442  0.72220402  0.50830683  1
  S  S13  1  0.35946558  0.22220402  0.49169317  1
  S  S14  1  0.85946558  0.72220402  0.00830683  1
  S  S15  1  0.14053442  0.22220402  0.99169317  1
  S  S16  1  0.98447509  0.14281264  0.71364498  1
  S  S17  1  0.01552491  0.64281264  0.28635502  1
  S  S18  1  0.51552491  0.14281264  0.21364498  1
  S  S19  1  0.48447509  0.64281264  0.78635502  1
loop_
_geom_bond_atom_site_label_1
_geom_bond_atom_site_label_2
_geom_bond_distance
_geom_bond_site_symmetry_2
Al0 S5 2.239071 1_555
Al0 S0 2.261733 1_545
Al0 S16 2.267181 1_555
Al0 S11 2.271036 1_555
Al1 S4 2.239071 1_555
Al1 S1 2.261733 1_555
Al1 S17 2.267181 1_555
Al1 S10 2.271036 1_555
Al2 S7 2.239071 1_655
Al2 S2 2.261733 1_645
Al2 S18 2.267181 1_555
Al2 S9 2.271036 1_555
Al3 S6 2.239071 1_455
Al3 S3 2.261733 1_455
Al3 S19 2.267181 1_555
Al3 S8 2.271036 1_555
Al4 S5 2.227028 1_555
Al4 S16 2.262819 1_455
Al4 S15 2.266195 1_555
Al4 S3 2.276896 1_455
Al5 S4 2.227028 1_555
Al5 S17 2.262819 1_655
Al5 S14 2.266195 1_555
Al5 S2 2.276896 1_655
Al6 S7 2.227028 1_555
Al6 S18 2.262819 1_555
Al6 S13 2.266195 1_555
Al6 S1 2.276896 1_555
Al7 S6 2.227028 1_555
Al7 S19 2.262819 1_555
Al7 S12 2.266195 1_555
Al7 S0 2.276896 1_555
S0 Sn1 2.671635 1_555
S1 Sn0 2.671635 1_555
S2 Sn3 2.671635 1_554
S3 Sn2 2.671635 1_556
S4 Sn5 3.099671 1_554
S5 Sn4 3.099671 1_556
S6 Sn7 3.099671 1_655
S7 Sn6 3.099671 1_455
S8 Sn0 2.633845 1_555
S8 Sn7 2.654593 1_555
S9 Sn1 2.633845 1_545
S9 Sn6 2.654593 1_555
S10 Sn2 2.633845 1_455
S10 Sn5 2.654593 1_554
S11 Sn3 2.633845 1_645
S11 Sn4 2.654593 1_556
S12 Sn7 2.636101 1_655
S12 Sn0 2.723428 1_555
S13 Sn6 2.636101 1_455
S13 Sn1 2.723428 1_545
S14 Sn5 2.636101 1_554
S14 Sn2 2.723428 1_555
S15 Sn4 2.636101 1_556
S15 Sn3 2.723428 1_545
S16 Sn6 2.793521 1_555
S17 Sn7 2.793521 1_555
S18 Sn4 2.793521 1_555
S19 Sn5 2.793521 1_555
