# generated using pymatgen
data_Cs6InBiSb2
_symmetry_space_group_name_H-M   'P 1'
_cell_length_a   6.63963048
_cell_length_b   11.27249952
_cell_length_c   13.16791381
_cell_angle_alpha   78.81744627
_cell_angle_beta   90.00000000
_cell_angle_gamma   90.00000000
_symmetry_Int_Tables_number   1
_chemical_formula_structural   Cs6InBiSb2
_chemical_formula_sum   'Cs12 In2 Bi2 Sb4'
_cell_volume   966.84404818
_cell_formula_units_Z   2
loop_
 _symmetry_equiv_pos_site_id
 _symmetry_equiv_pos_as_xyz
  1  'x, y, z'
loop_
 _atom_site_type_symbol
 _atom_site_label
 _atom_site_symmetry_multiplicity
 _atom_site_fract_x
 _atom_site_fract_y
 _atom_site_fract_z
 _atom_site_occupancy
  Cs  Cs0  1  0.75000000  0.45958037  0.07632833  1
  Cs  Cs1  1  0.25000000  0.54041963  0.92367167  1
  Cs  Cs2  1  0.75000000  0.74905341  0.22079177  1
  Cs  Cs3  1  0.25000000  0.25094659  0.77920823  1
  Cs  Cs4  1  0.25000000  0.55683549  0.54352539  1
  Cs  Cs5  1  0.75000000  0.44316451  0.45647461  1
  Cs  Cs6  1  0.25000000  0.86489142  0.02308390  1
  Cs  Cs7  1  0.75000000  0.13510858  0.97691610  1
  Cs  Cs8  1  0.25000000  0.87891053  0.67254604  1
  Cs  Cs9  1  0.75000000  0.12108947  0.32745396  1
  Cs  Cs10  1  0.25000000  0.91139077  0.36739530  1
  Cs  Cs11  1  0.75000000  0.08860923  0.63260470  1
  In  In0  1  0.25000000  0.32625746  0.28270517  1
  In  In1  1  0.75000000  0.67374254  0.71729483  1
  Bi  Bi0  1  0.25000000  0.18236436  0.12022728  1
  Bi  Bi1  1  0.75000000  0.81763564  0.87977272  1
  Sb  Sb0  1  0.25000000  0.21096025  0.49166956  1
  Sb  Sb1  1  0.75000000  0.78903975  0.50833044  1
  Sb  Sb2  1  0.25000000  0.57699140  0.22968569  1
  Sb  Sb3  1  0.75000000  0.42300860  0.77031431  1
loop_
_geom_bond_atom_site_label_1
_geom_bond_atom_site_label_2
_geom_bond_distance
_geom_bond_site_symmetry_2
Cs0 Sb3 4.129370 1_554
Cs0 Sb2 4.229361 1_655
Cs0 Sb2 4.229361 1_555
Cs1 Sb2 4.129370 1_556
Cs1 Sb3 4.229361 1_455
Cs1 Sb3 4.229361 1_555
Cs2 Sb2 3.835194 1_655
Cs2 Sb2 3.835194 1_555
Cs2 Sb1 3.898857 1_555
Cs3 Sb3 3.835194 1_455
Cs3 Sb3 3.835194 1_555
Cs3 Sb0 3.898857 1_555
Cs4 Sb0 4.086580 1_555
Cs4 Sb2 4.094622 1_555
Cs4 Sb1 4.197244 1_555
Cs4 Sb1 4.197244 1_455
Cs5 Sb1 4.086580 1_555
Cs5 Sb3 4.094622 1_555
Cs5 Sb0 4.197244 1_655
Cs5 Sb0 4.197244 1_555
Cs6 Sb2 3.809066 1_555
Cs7 Sb3 3.809066 1_555
Cs8 In1 4.023511 1_555
Cs8 In1 4.023511 1_455
Cs8 Sb0 4.028052 1_565
Cs8 Sb1 4.192021 1_555
Cs8 Sb1 4.192021 1_455
Cs9 In0 4.023511 1_655
Cs9 In0 4.023511 1_555
Cs9 Sb1 4.028052 1_545
Cs9 Sb0 4.192021 1_655
Cs9 Sb0 4.192021 1_555
Cs10 Sb1 3.921054 1_555
Cs10 Sb1 3.921054 1_455
Cs10 Sb0 4.027995 1_565
Cs11 Sb0 3.921054 1_555
Cs11 Sb0 3.921054 1_655
Cs11 Sb1 4.027995 1_545
In0 Sb2 2.776792 1_555
In0 Sb0 2.805976 1_555
In1 Sb3 2.776792 1_555
In1 Sb1 2.805976 1_555
Bi0 In0 2.924804 1_555
Bi0 Cs7 3.905896 1_554
Bi0 Cs7 3.905896 1_454
Bi0 Cs10 4.008391 1_545
Bi0 Cs6 4.027292 1_545
Bi0 Cs9 4.267698 1_555
Bi0 Cs9 4.267698 1_455
Bi0 Cs1 4.351751 1_554
Bi0 Cs3 4.406339 1_554
Bi0 Cs0 4.518826 1_555
Bi0 Cs0 4.518826 1_455
Bi1 In1 2.924804 1_555
Bi1 Cs6 3.905896 1_656
Bi1 Cs6 3.905896 1_556
Bi1 Cs11 4.008391 1_565
Bi1 Cs7 4.027292 1_565
Bi1 Cs8 4.267698 1_655
Bi1 Cs8 4.267698 1_555
Bi1 Cs0 4.351751 1_556
Bi1 Cs2 4.406339 1_556
Bi1 Cs1 4.518826 1_555
Bi1 Cs1 4.518826 1_655
