# generated using pymatgen
data_Zr6GeAsN2
_symmetry_space_group_name_H-M   'P 1'
_cell_length_a   5.84885779
_cell_length_b   5.84885719
_cell_length_c   8.58723843
_cell_angle_alpha   90.00000000
_cell_angle_beta   90.00000000
_cell_angle_gamma   145.13132453
_symmetry_Int_Tables_number   1
_chemical_formula_structural   Zr6GeAsN2
_chemical_formula_sum   'Zr6 Ge1 As1 N2'
_cell_volume   167.94296500
_cell_formula_units_Z   1
loop_
 _symmetry_equiv_pos_site_id
 _symmetry_equiv_pos_as_xyz
  1  'x, y, z'
loop_
 _atom_site_type_symbol
 _atom_site_label
 _atom_site_symmetry_multiplicity
 _atom_site_fract_x
 _atom_site_fract_y
 _atom_site_fract_z
 _atom_site_occupancy
  Zr  Zr0  1  0.63065925  0.36934075  0.94583174  1
  Zr  Zr1  1  0.37012763  0.62987237  0.44686682  1
  Zr  Zr2  1  0.37012763  0.62987237  0.05313318  1
  Zr  Zr3  1  0.63065925  0.36934075  0.55416826  1
  Zr  Zr4  1  0.94000035  0.05999965  0.75000000  1
  Zr  Zr5  1  0.05797179  0.94202821  0.25000000  1
  Ge  Ge0  1  0.74621032  0.25378968  0.25000000  1
  As  As0  1  0.25312667  0.74687333  0.75000000  1
  N  N0  1  0.00055855  0.99944145  0.99908052  1
  N  N1  1  0.00055855  0.99944145  0.50091948  1
loop_
_geom_bond_atom_site_label_1
_geom_bond_atom_site_label_2
_geom_bond_distance
_geom_bond_site_symmetry_2
Ge0 Zr5 2.735737 1_655
Ge0 Zr5 2.735737 1_545
Ge0 Zr1 2.800247 1_545
Ge0 Zr2 2.800247 1_545
Ge0 Zr1 2.800247 1_655
Ge0 Zr2 2.800247 1_655
Ge0 Zr3 2.912971 1_555
Ge0 Zr0 2.912971 1_554
As0 Zr4 2.724057 1_455
As0 Zr4 2.724058 1_565
As0 Zr0 2.786918 1_565
As0 Zr3 2.786918 1_565
As0 Zr0 2.786919 1_455
As0 Zr3 2.786919 1_455
As0 Zr2 2.912223 1_556
As0 Zr1 2.912223 1_555
N0 Zr4 2.243151 1_465
N0 Zr5 2.247958 1_556
N0 Zr0 2.321243 1_455
N0 Zr0 2.321244 1_565
N0 Zr2 2.324919 1_566
N0 Zr2 2.324919 1_456
N1 Zr4 2.243151 1_465
N1 Zr5 2.247958 1_555
N1 Zr3 2.321243 1_455
N1 Zr3 2.321244 1_565
N1 Zr1 2.324919 1_565
N1 Zr1 2.324919 1_455
