# generated using pymatgen
data_NaAlSi4
_symmetry_space_group_name_H-M   'P 1'
_cell_length_a   4.33359000
_cell_length_b   4.33359000
_cell_length_c   5.99563300
_cell_angle_alpha   90.00000000
_cell_angle_beta   90.00000000
_cell_angle_gamma   90.00000000
_symmetry_Int_Tables_number   1
_chemical_formula_structural   NaAlSi4
_chemical_formula_sum   'Na1 Al1 Si4'
_cell_volume   112.59800146
_cell_formula_units_Z   1
loop_
 _symmetry_equiv_pos_site_id
 _symmetry_equiv_pos_as_xyz
  1  'x, y, z'
loop_
 _atom_site_type_symbol
 _atom_site_label
 _atom_site_symmetry_multiplicity
 _atom_site_fract_x
 _atom_site_fract_y
 _atom_site_fract_z
 _atom_site_occupancy
  Na  Na0  1  0.00000000  0.00000000  0.33804800  1
  Al  Al0  1  0.50000000  0.50000000  0.67155200  1
  Si  Si0  1  0.50000000  0.00000000  0.99043600  1
  Si  Si1  1  0.00000000  0.50000000  0.99043600  1
  Si  Si2  1  0.50000000  0.50000000  0.21550000  1
  Si  Si3  1  0.00000000  0.00000000  0.79402700  1
loop_
_geom_bond_atom_site_label_1
_geom_bond_atom_site_label_2
_geom_bond_distance
_geom_bond_site_symmetry_2
Na0 Si3 2.733883 1_555
Na0 Si0 3.006443 1_554
Na0 Si1 3.006443 1_544
Na0 Si0 3.006443 1_454
Na0 Si1 3.006443 1_554
Na0 Si2 3.151168 1_545
Na0 Si2 3.151168 1_555
Na0 Si2 3.151168 1_445
Na0 Si2 3.151168 1_455
Al0 Si2 2.734320 1_555
Al0 Si0 2.889707 1_565
Al0 Si0 2.889707 1_555
Al0 Si1 2.889707 1_555
Al0 Si1 2.889707 1_655
Si0 Si3 2.466117 1_555
Si0 Si3 2.466117 1_655
Si0 Si2 2.552623 1_546
Si0 Si2 2.552623 1_556
Si1 Si3 2.466117 1_555
Si1 Si3 2.466117 1_565
Si1 Si2 2.552623 1_456
Si1 Si2 2.552623 1_556
