# generated using pymatgen
data_BaTcP2Ir
_symmetry_space_group_name_H-M   'P 1'
_cell_length_a   6.81376207
_cell_length_b   6.81376252
_cell_length_c   6.81376256
_cell_angle_alpha   145.25353655
_cell_angle_beta   145.25354675
_cell_angle_gamma   49.95685134
_symmetry_Int_Tables_number   1
_chemical_formula_structural   BaTcP2Ir
_chemical_formula_sum   'Ba1 Tc1 P2 Ir1'
_cell_volume   102.26750225
_cell_formula_units_Z   1
loop_
 _symmetry_equiv_pos_site_id
 _symmetry_equiv_pos_as_xyz
  1  'x, y, z'
loop_
 _atom_site_type_symbol
 _atom_site_label
 _atom_site_symmetry_multiplicity
 _atom_site_fract_x
 _atom_site_fract_y
 _atom_site_fract_z
 _atom_site_occupancy
  Ba  Ba0  1  0.00000000  0.00000000  0.00000000  1
  Tc  Tc0  1  0.25000000  0.75000000  0.50000000  1
  P  P0  1  0.65648025  0.65648025  0.00000000  1
  P  P1  1  0.34351975  0.34351975  1.00000000  1
  Ir  Ir0  1  0.75000000  0.25000000  0.50000000  1
loop_
_geom_bond_atom_site_label_1
_geom_bond_atom_site_label_2
_geom_bond_distance
_geom_bond_site_symmetry_2
Ba0 P0 3.466303 1_556
Ba0 P1 3.466303 1_443
Ba0 P0 3.466303 1_545
Ba0 P1 3.466303 1_454
Ba0 P0 3.466303 1_455
Ba0 P1 3.466303 1_544
Ba0 P0 3.466303 1_444
Ba0 P1 3.466303 1_555
Ba0 Ir0 3.698181 1_555
Ba0 Ir0 3.698181 1_454
Ba0 Ir0 3.698182 1_444
Ba0 Ir0 3.698182 1_455
P0 Tc0 2.339656 1_655
P0 Tc0 2.339656 1_554
P1 Tc0 2.339657 1_545
P1 Tc0 2.339657 1_556
Ir0 P1 2.339656 1_655
Ir0 P1 2.339656 1_554
Ir0 P0 2.339657 1_545
Ir0 P0 2.339657 1_556
Ir0 Tc0 2.877295 1_656
Ir0 Tc0 2.877295 1_544
Ir0 Tc0 2.877295 1_555
Ir0 Tc0 2.877295 1_645
