# generated using pymatgen
data_Sm2Hf2O7
_symmetry_space_group_name_H-M   'P 1'
_cell_length_a   7.46587545
_cell_length_b   7.46587545
_cell_length_c   7.46587545
_cell_angle_alpha   60.00000000
_cell_angle_beta   60.00000000
_cell_angle_gamma   60.00000000
_symmetry_Int_Tables_number   1
_chemical_formula_structural   Sm2Hf2O7
_chemical_formula_sum   'Sm4 Hf4 O14'
_cell_volume   294.25728536
_cell_formula_units_Z   2
loop_
 _symmetry_equiv_pos_site_id
 _symmetry_equiv_pos_as_xyz
  1  'x, y, z'
loop_
 _atom_site_type_symbol
 _atom_site_label
 _atom_site_symmetry_multiplicity
 _atom_site_fract_x
 _atom_site_fract_y
 _atom_site_fract_z
 _atom_site_occupancy
  Sm  Sm0  1  0.62500000  0.12500000  0.12500000  1
  Sm  Sm1  1  0.12500000  0.62500000  0.12500000  1
  Sm  Sm2  1  0.12500000  0.12500000  0.62500000  1
  Sm  Sm3  1  0.12500000  0.12500000  0.12500000  1
  Hf  Hf0  1  0.12500000  0.62500000  0.62500000  1
  Hf  Hf1  1  0.62500000  0.12500000  0.62500000  1
  Hf  Hf2  1  0.62500000  0.62500000  0.12500000  1
  Hf  Hf3  1  0.62500000  0.62500000  0.62500000  1
  O  O0  1  0.70913591  0.70913591  0.29086409  1
  O  O1  1  0.29086409  0.29086409  0.70913591  1
  O  O2  1  0.70913591  0.29086409  0.70913591  1
  O  O3  1  0.29086409  0.70913591  0.29086409  1
  O  O4  1  0.29086409  0.70913591  0.70913591  1
  O  O5  1  0.70913591  0.29086409  0.29086409  1
  O  O6  1  0.54086409  0.54086409  0.95913591  1
  O  O7  1  0.95913591  0.95913591  0.54086409  1
  O  O8  1  0.54086409  0.95913591  0.54086409  1
  O  O9  1  0.95913591  0.54086409  0.95913591  1
  O  O10  1  0.95913591  0.54086409  0.54086409  1
  O  O11  1  0.54086409  0.95913591  0.95913591  1
  O  O12  1  0.25000000  0.25000000  0.25000000  1
  O  O13  1  0.00000000  0.00000000  0.00000000  1
loop_
_geom_bond_atom_site_label_1
_geom_bond_atom_site_label_2
_geom_bond_distance
_geom_bond_site_symmetry_2
Hf0 O10 2.067086 1_455
Hf0 O3 2.067086 1_555
Hf0 O7 2.067086 1_455
Hf0 O4 2.067086 1_555
Hf0 O9 2.067086 1_455
Hf0 O1 2.067086 1_555
Hf1 O5 2.067086 1_555
Hf1 O2 2.067086 1_555
Hf1 O7 2.067086 1_545
Hf1 O11 2.067086 1_545
Hf1 O8 2.067086 1_545
Hf1 O1 2.067086 1_555
Hf2 O9 2.067086 1_554
Hf2 O5 2.067086 1_555
Hf2 O3 2.067086 1_555
Hf2 O6 2.067086 1_554
Hf2 O0 2.067086 1_555
Hf2 O11 2.067086 1_554
Hf3 O8 2.067086 1_555
Hf3 O2 2.067086 1_555
Hf3 O10 2.067086 1_555
Hf3 O0 2.067086 1_555
Hf3 O6 2.067086 1_555
Hf3 O4 2.067086 1_555
O0 Sm1 2.559410 1_655
O0 Sm0 2.559410 1_565
O1 Sm2 2.559410 1_555
O1 Sm3 2.559410 1_556
O2 Sm2 2.559410 1_655
O2 Sm0 2.559410 1_556
O3 Sm3 2.559410 1_565
O3 Sm1 2.559410 1_555
O4 Sm1 2.559410 1_556
O4 Sm2 2.559410 1_565
O5 Sm3 2.559410 1_655
O5 Sm0 2.559410 1_555
O6 Sm0 2.559410 1_556
O6 Sm1 2.559410 1_556
O7 Sm3 2.559410 1_665
O7 Sm2 2.559410 1_665
O8 Sm2 2.559410 1_565
O8 Sm0 2.559410 1_565
O9 Sm3 2.559410 1_656
O9 Sm1 2.559410 1_656
O10 Sm2 2.559410 1_655
O10 Sm1 2.559410 1_655
O11 Sm3 2.559410 1_566
O11 Sm0 2.559410 1_566
O12 Sm3 2.285948 1_555
O12 Sm2 2.285948 1_555
O12 Sm1 2.285948 1_555
O12 Sm0 2.285948 1_555
O13 Sm3 2.285948 1_555
O13 Sm0 2.285948 1_455
O13 Sm2 2.285948 1_554
O13 Sm1 2.285948 1_545
