# generated using pymatgen
data_RbScZnSe3
_symmetry_space_group_name_H-M   'P 1'
_cell_length_a   7.90424652
_cell_length_b   7.90424588
_cell_length_c   10.51488544
_cell_angle_alpha   90.00000000
_cell_angle_beta   90.00000000
_cell_angle_gamma   150.74032192
_symmetry_Int_Tables_number   1
_chemical_formula_structural   RbScZnSe3
_chemical_formula_sum   'Rb2 Sc2 Zn2 Se6'
_cell_volume   321.09147248
_cell_formula_units_Z   2
loop_
 _symmetry_equiv_pos_site_id
 _symmetry_equiv_pos_as_xyz
  1  'x, y, z'
loop_
 _atom_site_type_symbol
 _atom_site_label
 _atom_site_symmetry_multiplicity
 _atom_site_fract_x
 _atom_site_fract_y
 _atom_site_fract_z
 _atom_site_occupancy
  Rb  Rb0  1  0.74612493  0.25387507  0.25000000  1
  Rb  Rb1  1  0.25387507  0.74612493  0.75000000  1
  Sc  Sc0  1  0.00000000  0.00000000  0.00000000  1
  Sc  Sc1  1  0.00000000  0.00000000  0.50000000  1
  Zn  Zn0  1  0.46318486  0.53681514  0.25000000  1
  Zn  Zn1  1  0.53681514  0.46318486  0.75000000  1
  Se  Se0  1  0.38258576  0.61741424  0.05251281  1
  Se  Se1  1  0.93984818  0.06015182  0.75000000  1
  Se  Se2  1  0.38258576  0.61741424  0.44748719  1
  Se  Se3  1  0.06015182  0.93984818  0.25000000  1
  Se  Se4  1  0.61741424  0.38258576  0.94748719  1
  Se  Se5  1  0.61741424  0.38258576  0.55251281  1
loop_
_geom_bond_atom_site_label_1
_geom_bond_atom_site_label_2
_geom_bond_distance
_geom_bond_site_symmetry_2
Rb0 Se3 3.475279 1_655
Rb0 Se3 3.475279 1_545
Rb0 Se2 3.557318 1_545
Rb0 Se0 3.557318 1_545
Rb0 Se2 3.557318 1_655
Rb0 Se0 3.557318 1_655
Rb0 Se5 3.740859 1_555
Rb0 Se4 3.740859 1_554
Rb1 Se1 3.475279 1_455
Rb1 Se1 3.475279 1_565
Rb1 Se4 3.557318 1_565
Rb1 Se5 3.557318 1_565
Rb1 Se4 3.557318 1_455
Rb1 Se5 3.557318 1_455
Rb1 Se0 3.740859 1_556
Rb1 Se2 3.740859 1_555
Sc0 Se0 2.741530 1_555
Sc0 Se4 2.741530 1_444
Sc0 Se0 2.741530 1_445
Sc0 Se4 2.741530 1_554
Sc0 Se1 2.785089 1_454
Sc0 Se3 2.785089 1_545
Sc1 Se2 2.741530 1_555
Sc1 Se5 2.741530 1_445
Sc1 Se2 2.741530 1_445
Sc1 Se5 2.741530 1_555
Sc1 Se1 2.785089 1_455
Sc1 Se3 2.785089 1_545
Se0 Zn0 2.414948 1_555
Se1 Zn1 2.487067 1_545
Se1 Zn1 2.487068 1_655
Se2 Zn0 2.414948 1_555
Se3 Zn0 2.487067 1_565
Se3 Zn0 2.487068 1_455
Se4 Zn1 2.414948 1_555
Se5 Zn1 2.414948 1_555
