# generated using pymatgen
data_Hf6AlTc6As5
_symmetry_space_group_name_H-M   'P 1'
_cell_length_a   7.76628605
_cell_length_b   7.76593276
_cell_length_c   7.76482930
_cell_angle_alpha   126.99564853
_cell_angle_beta   126.26677437
_cell_angle_gamma   78.86015970
_symmetry_Int_Tables_number   1
_chemical_formula_structural   Hf6AlTc6As5
_chemical_formula_sum   'Hf6 Al1 Tc6 As5'
_cell_volume   291.78203241
_cell_formula_units_Z   1
loop_
 _symmetry_equiv_pos_site_id
 _symmetry_equiv_pos_as_xyz
  1  'x, y, z'
loop_
 _atom_site_type_symbol
 _atom_site_label
 _atom_site_symmetry_multiplicity
 _atom_site_fract_x
 _atom_site_fract_y
 _atom_site_fract_z
 _atom_site_occupancy
  Hf  Hf0  1  0.45161210  0.65639195  0.70488620  1
  Hf  Hf1  1  0.54618312  0.25308295  0.20662398  1
  Hf  Hf2  1  0.75018420  0.84880740  0.59885841  1
  Hf  Hf3  1  0.25019631  0.84877886  0.09878139  1
  Hf  Hf4  1  0.04857323  0.25347703  0.70490708  1
  Hf  Hf5  1  0.95349699  0.65987177  0.20639669  1
  Al  Al0  1  0.25008627  0.25255708  0.50244598  1
  Tc  Tc0  1  0.50297204  0.50649492  0.00959678  1
  Tc  Tc1  1  0.99707454  0.50655982  0.50362603  1
  Tc  Tc2  1  0.12255273  0.25327705  0.12244621  1
  Tc  Tc3  1  0.86970161  0.99987121  0.12291701  1
  Tc  Tc4  1  0.37686657  0.99996634  0.63027289  1
  Tc  Tc5  1  0.63060833  0.25322004  0.63055257  1
  As  As0  1  0.74973464  0.25430212  0.00454504  1
  As  As1  1  0.33342464  0.58671223  0.25326271  1
  As  As2  1  0.66676465  0.91987615  0.25326166  1
  As  As3  1  0.16658888  0.91979558  0.75307603  1
  As  As4  1  0.83338215  0.58655748  0.75314132  1
loop_
_geom_bond_atom_site_label_1
_geom_bond_atom_site_label_2
_geom_bond_distance
_geom_bond_site_symmetry_2
Hf0 Tc3 2.941336 1_556
Hf0 Tc4 2.942079 1_555
Hf0 Tc1 3.021519 1_455
Hf0 Tc0 3.021772 1_556
Hf0 Tc5 3.026762 1_555
Hf0 Tc2 3.027043 1_555
Hf1 Tc2 2.950703 1_555
Hf1 Tc5 2.950933 1_555
Hf1 Tc4 3.011704 1_544
Hf1 Tc3 3.014440 1_545
Hf1 Tc0 3.014464 1_555
Hf1 Tc1 3.016861 1_555
Hf2 Tc0 2.937475 1_555
Hf2 Tc1 2.937761 1_555
Hf2 Tc2 2.998230 1_666
Hf2 Tc5 2.999965 1_565
Hf2 Tc3 3.000542 1_556
Hf2 Tc4 3.003394 1_555
Hf3 Tc1 2.962002 1_454
Hf3 Tc0 2.962399 1_555
Hf3 Tc5 3.031139 1_565
Hf3 Tc4 3.031409 1_555
Hf3 Tc3 3.032303 1_455
Hf3 Tc2 3.033447 1_565
Hf4 Tc2 2.939960 1_556
Hf4 Tc5 2.941762 1_455
Hf4 Tc0 3.019748 1_556
Hf4 Tc1 3.019799 1_455
Hf4 Tc4 3.024523 1_545
Hf4 Tc3 3.024747 1_445
Hf5 Tc4 2.951246 1_655
Hf5 Tc3 2.951653 1_555
Hf5 Tc2 3.008737 1_655
Hf5 Tc5 3.009087 1_554
Hf5 Tc1 3.014286 1_555
Hf5 Tc0 3.015024 1_555
Al0 Tc3 2.498588 1_445
Al0 Tc4 2.498641 1_545
Al0 Tc5 2.498960 1_555
Al0 Tc2 2.499485 1_555
Al0 Tc0 2.500771 1_556
Al0 Tc1 2.500801 1_455
Al0 Hf0 2.794445 1_555
Al0 Hf4 2.795292 1_555
Al0 Hf3 2.798300 1_545
As0 Tc1 2.460852 1_555
As0 Tc0 2.460927 1_555
As0 Tc4 2.465362 1_544
As0 Tc3 2.465409 1_545
As0 Tc5 2.466617 1_554
As0 Tc2 2.466866 1_655
As0 Hf2 2.812434 1_544
As0 Hf1 2.814174 1_555
As0 Hf5 2.816258 1_555
As1 Tc0 2.629383 1_555
As1 Tc2 2.631349 1_555
As1 Tc4 2.631768 1_555
As1 Hf5 2.737175 1_455
As1 Hf1 2.738395 1_555
As1 Hf3 2.740641 1_555
As1 Hf2 2.741590 1_555
As1 Hf4 2.743628 1_554
As1 Hf0 2.744598 1_555
As2 Tc3 2.629929 1_555
As2 Tc0 2.631419 1_555
As2 Tc5 2.632098 1_565
As2 Hf1 2.737572 1_565
As2 Hf5 2.739580 1_555
As2 Hf3 2.740825 1_555
As2 Hf2 2.740980 1_555
As2 Hf0 2.743630 1_554
As2 Hf4 2.744846 1_665
As3 Tc4 2.629358 1_555
As3 Tc1 2.630272 1_455
As3 Tc2 2.632262 1_566
As3 Hf1 2.736386 1_566
As3 Hf5 2.738552 1_455
As3 Hf2 2.740242 1_455
As3 Hf3 2.740932 1_556
As3 Hf0 2.744698 1_555
As3 Hf4 2.745573 1_565
As4 Tc1 2.629832 1_555
As4 Tc5 2.631256 1_555
As4 Tc3 2.631790 1_556
As4 Hf5 2.736842 1_556
As4 Hf1 2.738135 1_555
As4 Hf2 2.740899 1_555
As4 Hf3 2.742222 1_656
As4 Hf4 2.743788 1_655
As4 Hf0 2.744857 1_555
