# generated using pymatgen
data_K2RbNbTe4
_symmetry_space_group_name_H-M   'P 1'
_cell_length_a   10.57263573
_cell_length_b   10.58002559
_cell_length_c   11.79876859
_cell_angle_alpha   90.00000000
_cell_angle_beta   90.00000000
_cell_angle_gamma   90.00000000
_symmetry_Int_Tables_number   1
_chemical_formula_structural   K2RbNbTe4
_chemical_formula_sum   'K8 Rb4 Nb4 Te16'
_cell_volume   1319.79558421
_cell_formula_units_Z   4
loop_
 _symmetry_equiv_pos_site_id
 _symmetry_equiv_pos_as_xyz
  1  'x, y, z'
loop_
 _atom_site_type_symbol
 _atom_site_label
 _atom_site_symmetry_multiplicity
 _atom_site_fract_x
 _atom_site_fract_y
 _atom_site_fract_z
 _atom_site_occupancy
  K  K0  1  0.94521017  0.70443391  0.45099042  1
  K  K1  1  0.44521017  0.79556609  0.04900958  1
  K  K2  1  0.55478983  0.20443391  0.54900958  1
  K  K3  1  0.05478983  0.29556609  0.95099042  1
  K  K4  1  0.05478983  0.29556609  0.54900958  1
  K  K5  1  0.55478983  0.20443391  0.95099042  1
  K  K6  1  0.44521017  0.79556609  0.45099042  1
  K  K7  1  0.94521017  0.70443391  0.04900958  1
  Rb  Rb0  1  0.36920661  0.59380961  0.75000000  1
  Rb  Rb1  1  0.13079339  0.09380961  0.25000000  1
  Rb  Rb2  1  0.63079339  0.40619039  0.25000000  1
  Rb  Rb3  1  0.86920661  0.90619039  0.75000000  1
  Nb  Nb0  1  0.21152715  0.51542701  0.25000000  1
  Nb  Nb1  1  0.71152715  0.98457299  0.25000000  1
  Nb  Nb2  1  0.28847285  0.01542701  0.75000000  1
  Nb  Nb3  1  0.78847285  0.48457299  0.75000000  1
  Te  Te0  1  0.33238666  0.44634464  0.43308630  1
  Te  Te1  1  0.66761334  0.55365536  0.93308630  1
  Te  Te2  1  0.83238666  0.05365536  0.06691370  1
  Te  Te3  1  0.16761334  0.94634464  0.56691370  1
  Te  Te4  1  0.01718673  0.58199450  0.75000000  1
  Te  Te5  1  0.51718673  0.91800550  0.75000000  1
  Te  Te6  1  0.48281327  0.08199450  0.25000000  1
  Te  Te7  1  0.98281327  0.41800550  0.25000000  1
  Te  Te8  1  0.80831546  0.23857758  0.75000000  1
  Te  Te9  1  0.30831546  0.26142242  0.75000000  1
  Te  Te10  1  0.69168454  0.73857758  0.25000000  1
  Te  Te11  1  0.19168454  0.76142242  0.25000000  1
  Te  Te12  1  0.66761334  0.55365536  0.56691370  1
  Te  Te13  1  0.16761334  0.94634464  0.93308630  1
  Te  Te14  1  0.83238666  0.05365536  0.43308630  1
  Te  Te15  1  0.33238666  0.44634464  0.06691370  1
loop_
_geom_bond_atom_site_label_1
_geom_bond_atom_site_label_2
_geom_bond_distance
_geom_bond_site_symmetry_2
K0 Te11 3.574618 1_655
K0 Te10 3.597075 1_555
K0 Te12 3.609620 1_555
K0 Te3 3.735025 1_655
K0 Te4 3.834525 1_655
K0 Te7 3.868492 1_555
K0 Te14 3.888295 1_565
K1 Te10 3.574618 1_555
K1 Te11 3.597075 1_555
K1 Te13 3.609620 1_554
K1 Te1 3.735025 1_554
K1 Te5 3.834525 1_554
K1 Te6 3.868492 1_565
K1 Te15 3.888295 1_555
K2 Te9 3.574618 1_555
K2 Te8 3.597075 1_555
K2 Te14 3.609620 1_555
K2 Te0 3.735025 1_555
K2 Te6 3.834525 1_555
K2 Te5 3.868492 1_545
K2 Te12 3.888295 1_555
K3 Te8 3.574618 1_455
K3 Te9 3.597075 1_555
K3 Te15 3.609620 1_556
K3 Te2 3.735025 1_456
K3 Te7 3.834525 1_456
K3 Te4 3.868492 1_555
K3 Te13 3.888295 1_545
K4 Te8 3.574618 1_455
K4 Te9 3.597075 1_555
K4 Te0 3.609620 1_555
K4 Te14 3.735025 1_455
K4 Te7 3.834525 1_455
K4 Te4 3.868492 1_555
K4 Te3 3.888295 1_545
K5 Te9 3.574618 1_555
K5 Te8 3.597075 1_555
K5 Te2 3.609620 1_556
K5 Te15 3.735025 1_556
K5 Te6 3.834525 1_556
K5 Te5 3.868492 1_545
K5 Te1 3.888295 1_555
K6 Te10 3.574618 1_555
K6 Te11 3.597075 1_555
K6 Te3 3.609620 1_555
K6 Te12 3.735025 1_555
K6 Te5 3.834525 1_555
K6 Te6 3.868492 1_565
K6 Te0 3.888295 1_555
K7 Te11 3.574618 1_655
K7 Te10 3.597075 1_555
K7 Te1 3.609620 1_554
K7 Te13 3.735025 1_654
K7 Te4 3.834525 1_654
K7 Te7 3.868492 1_555
K7 Te2 3.888295 1_565
Rb0 Te9 3.575106 1_555
Rb0 Te4 3.723877 1_555
Rb0 Te5 3.769972 1_555
Rb0 Te1 3.847155 1_555
Rb0 Te12 3.847155 1_555
Rb0 Te15 4.070291 1_556
Rb0 Te0 4.070291 1_555
Rb1 Te11 3.575106 1_545
Rb1 Te6 3.723877 1_555
Rb1 Te7 3.769972 1_455
Rb1 Te14 3.847155 1_455
Rb1 Te2 3.847155 1_455
Rb1 Te3 4.070291 1_545
Rb1 Te13 4.070291 1_544
Rb2 Te10 3.575106 1_555
Rb2 Te7 3.723877 1_555
Rb2 Te6 3.769972 1_555
Rb2 Te0 3.847155 1_555
Rb2 Te15 3.847155 1_555
Rb2 Te12 4.070291 1_555
Rb2 Te1 4.070291 1_554
Rb3 Te8 3.575106 1_565
Rb3 Te5 3.723877 1_555
Rb3 Te4 3.769972 1_655
Rb3 Te13 3.847155 1_655
Rb3 Te3 3.847155 1_655
Rb3 Te2 4.070291 1_566
Rb3 Te14 4.070291 1_565
Nb0 Te11 2.611079 1_555
Nb0 Te0 2.614081 1_555
Nb0 Te15 2.614081 1_555
Nb0 Te7 2.628619 1_455
Nb1 Te10 2.611079 1_555
Nb1 Te14 2.614081 1_565
Nb1 Te2 2.614081 1_565
Nb1 Te6 2.628619 1_565
Nb2 Te9 2.611079 1_555
Nb2 Te13 2.614081 1_545
Nb2 Te3 2.614081 1_545
Nb2 Te5 2.628619 1_545
Nb3 Te8 2.611079 1_555
Nb3 Te1 2.614081 1_555
Nb3 Te12 2.614081 1_555
Nb3 Te4 2.628619 1_655
