# generated using pymatgen
data_Rb2Zr(CuTe2)2
_symmetry_space_group_name_H-M   'P 1'
_cell_length_a   8.08733280
_cell_length_b   8.08733332
_cell_length_c   6.23675172
_cell_angle_alpha   90.00000000
_cell_angle_beta   90.00000000
_cell_angle_gamma   134.60449661
_symmetry_Int_Tables_number   1
_chemical_formula_structural   Rb2Zr(CuTe2)2
_chemical_formula_sum   'Rb2 Zr1 Cu2 Te4'
_cell_volume   290.42324958
_cell_formula_units_Z   1
loop_
 _symmetry_equiv_pos_site_id
 _symmetry_equiv_pos_as_xyz
  1  'x, y, z'
loop_
 _atom_site_type_symbol
 _atom_site_label
 _atom_site_symmetry_multiplicity
 _atom_site_fract_x
 _atom_site_fract_y
 _atom_site_fract_z
 _atom_site_occupancy
  Rb  Rb0  1  0.50000000  0.00000000  0.24918644  1
  Rb  Rb1  1  0.00000000  0.50000000  0.75081356  1
  Zr  Zr0  1  0.00000000  0.00000000  0.00000000  1
  Cu  Cu0  1  0.00000000  0.00000000  0.50000000  1
  Cu  Cu1  1  0.50000000  0.50000000  0.00000000  1
  Te  Te0  1  0.84301973  0.64102888  0.25781156  1
  Te  Te1  1  0.15698027  0.35897112  0.25781156  1
  Te  Te2  1  0.64102888  0.84301973  0.74218844  1
  Te  Te3  1  0.35897112  0.15698027  0.74218844  1
loop_
_geom_bond_atom_site_label_1
_geom_bond_atom_site_label_2
_geom_bond_distance
_geom_bond_site_symmetry_2
Rb0 Te0 3.791688 1_555
Rb0 Te1 3.791688 1_545
Rb0 Te3 3.794754 1_555
Rb0 Te2 3.794754 1_545
Rb0 Te3 3.865819 1_554
Rb0 Te2 3.865819 1_544
Rb0 Te1 3.872760 1_655
Rb0 Te0 3.872760 1_445
Rb1 Te2 3.791688 1_555
Rb1 Te3 3.791688 1_455
Rb1 Te1 3.794754 1_555
Rb1 Te0 3.794754 1_455
Rb1 Te1 3.865819 1_556
Rb1 Te0 3.865819 1_456
Rb1 Te3 3.872760 1_565
Rb1 Te2 3.872760 1_445
Cu0 Te3 2.673045 1_555
Cu0 Te2 2.673045 1_445
Cu0 Te1 2.673046 1_555
Cu0 Te0 2.673046 1_445
Cu0 Zr0 3.118376 1_556
Cu0 Zr0 3.118376 1_555
Cu1 Te0 2.671766 1_555
Cu1 Te1 2.671766 1_555
Cu1 Te2 2.671766 1_554
Cu1 Te3 2.671766 1_554
Cu1 Zr0 3.120658 1_555
Cu1 Zr0 3.120658 1_665
Te0 Zr0 2.729289 1_665
Te1 Zr0 2.729289 1_555
Te2 Zr0 2.729289 1_666
Te3 Zr0 2.729289 1_556
