# generated using pymatgen
data_TaNb(Ag3Se4)2
_symmetry_space_group_name_H-M   'P 1'
_cell_length_a   8.78710324
_cell_length_b   8.78710324
_cell_length_c   6.21445390
_cell_angle_alpha   90.00000000
_cell_angle_beta   90.00000000
_cell_angle_gamma   90.00000000
_symmetry_Int_Tables_number   1
_chemical_formula_structural   TaNb(Ag3Se4)2
_chemical_formula_sum   'Ta1 Nb1 Ag6 Se8'
_cell_volume   479.83776815
_cell_formula_units_Z   1
loop_
 _symmetry_equiv_pos_site_id
 _symmetry_equiv_pos_as_xyz
  1  'x, y, z'
loop_
 _atom_site_type_symbol
 _atom_site_label
 _atom_site_symmetry_multiplicity
 _atom_site_fract_x
 _atom_site_fract_y
 _atom_site_fract_z
 _atom_site_occupancy
  Ta  Ta0  1  0.50000000  0.50000000  0.00000000  1
  Nb  Nb0  1  0.00000000  0.00000000  0.00000000  1
  Ag  Ag0  1  0.24884767  0.75115233  0.00000000  1
  Ag  Ag1  1  0.75115233  0.24884767  0.00000000  1
  Ag  Ag2  1  0.24884767  0.24884767  0.00000000  1
  Ag  Ag3  1  0.75115233  0.75115233  0.00000000  1
  Ag  Ag4  1  0.00000000  0.00000000  0.50000000  1
  Ag  Ag5  1  0.50000000  0.50000000  0.50000000  1
  Se  Se0  1  0.50000000  0.27061210  0.77109963  1
  Se  Se1  1  0.00000000  0.76925875  0.76874448  1
  Se  Se2  1  0.50000000  0.72938790  0.77109963  1
  Se  Se3  1  0.00000000  0.23074125  0.76874448  1
  Se  Se4  1  0.76925875  0.00000000  0.23125552  1
  Se  Se5  1  0.27061210  0.50000000  0.22890037  1
  Se  Se6  1  0.23074125  0.00000000  0.23125552  1
  Se  Se7  1  0.72938790  0.50000000  0.22890037  1
loop_
_geom_bond_atom_site_label_1
_geom_bond_atom_site_label_2
_geom_bond_distance
_geom_bond_site_symmetry_2
Nb0 Se6 2.485212 1_555
Nb0 Se3 2.485212 1_554
Nb0 Se4 2.485212 1_455
Nb0 Se1 2.485212 1_544
Ag0 Se1 2.621466 1_554
Ag0 Se6 2.621466 1_565
Ag0 Se5 2.632578 1_555
Ag0 Se2 2.632578 1_554
Ag1 Se4 2.621466 1_555
Ag1 Se3 2.621466 1_654
Ag1 Se0 2.632578 1_554
Ag1 Se7 2.632578 1_555
Ag2 Se6 2.621466 1_555
Ag2 Se3 2.621466 1_554
Ag2 Se5 2.632578 1_555
Ag2 Se0 2.632578 1_554
Ag3 Se4 2.621466 1_565
Ag3 Se1 2.621466 1_654
Ag3 Se7 2.632578 1_555
Ag3 Se2 2.632578 1_554
Ag4 Se3 2.626820 1_555
Ag4 Se6 2.626820 1_555
Ag4 Se1 2.626820 1_545
Ag4 Se4 2.626820 1_455
Ag5 Se2 2.627014 1_555
Ag5 Se7 2.627014 1_555
Ag5 Se0 2.627014 1_555
Ag5 Se5 2.627014 1_555
Se0 Ta0 2.467052 1_556
Se2 Ta0 2.467052 1_556
Se5 Ta0 2.467052 1_555
Se7 Ta0 2.467052 1_555
