# generated using pymatgen
data_Hf4ScPb3
_symmetry_space_group_name_H-M   'P 1'
_cell_length_a   8.51367309
_cell_length_b   8.53144774
_cell_length_c   5.82965876
_cell_angle_alpha   90.00000000
_cell_angle_beta   90.00000000
_cell_angle_gamma   59.93006492
_symmetry_Int_Tables_number   1
_chemical_formula_structural   Hf4ScPb3
_chemical_formula_sum   'Hf8 Sc2 Pb6'
_cell_volume   366.44346971
_cell_formula_units_Z   2
loop_
 _symmetry_equiv_pos_site_id
 _symmetry_equiv_pos_as_xyz
  1  'x, y, z'
loop_
 _atom_site_type_symbol
 _atom_site_label
 _atom_site_symmetry_multiplicity
 _atom_site_fract_x
 _atom_site_fract_y
 _atom_site_fract_z
 _atom_site_occupancy
  Hf  Hf0  1  0.16810643  0.16379286  0.99986276  1
  Hf  Hf1  1  0.83189704  0.83189328  0.99986344  1
  Hf  Hf2  1  0.49998530  0.75142152  0.25000100  1
  Hf  Hf3  1  0.16810643  0.16379286  0.50013724  1
  Hf  Hf4  1  0.83189704  0.83189328  0.50013656  1
  Hf  Hf5  1  0.49999956  0.25602794  0.75000000  1
  Hf  Hf6  1  0.73734908  0.50167463  0.75000000  1
  Hf  Hf7  1  0.26268053  0.73899974  0.75000000  1
  Sc  Sc0  1  0.74490618  0.25695508  0.25000100  1
  Sc  Sc1  1  0.25509123  0.50185219  0.25000100  1
  Pb  Pb0  1  0.49998140  0.11474146  0.25000100  1
  Pb  Pb1  1  0.89106495  0.49763413  0.25000100  1
  Pb  Pb2  1  0.10892563  0.88870651  0.25000100  1
  Pb  Pb3  1  0.89077818  0.10861840  0.75000000  1
  Pb  Pb4  1  0.10923850  0.49938954  0.75000000  1
  Pb  Pb5  1  0.49999052  0.89260557  0.75000000  1
loop_
_geom_bond_atom_site_label_1
_geom_bond_atom_site_label_2
_geom_bond_distance
_geom_bond_site_symmetry_2
Hf0 Hf3 2.913229 1_555
Hf0 Hf3 2.916429 1_556
Hf0 Pb5 2.984500 1_545
Hf0 Pb3 3.005289 1_455
Hf0 Pb1 3.011576 1_456
Hf0 Pb2 3.012159 1_546
Hf0 Pb0 3.016611 1_556
Hf0 Pb4 3.021989 1_555
Hf0 Hf7 3.602768 1_545
Hf0 Hf6 3.645087 1_455
Hf1 Hf4 2.913237 1_555
Hf1 Hf4 2.916422 1_556
Hf1 Pb5 2.984648 1_555
Hf1 Pb4 3.005298 1_655
Hf1 Pb2 3.011576 1_656
Hf1 Pb1 3.012121 1_556
Hf1 Pb0 3.016840 1_566
Hf1 Pb3 3.022038 1_565
Hf1 Hf6 3.602648 1_555
Hf1 Hf7 3.645272 1_655
Hf2 Pb2 2.923814 1_555
Hf2 Pb1 2.923949 1_555
Hf2 Pb0 3.099628 1_565
Hf2 Pb5 3.153899 1_555
Hf2 Pb5 3.153910 1_554
Hf2 Hf7 3.578231 1_555
Hf2 Hf7 3.578241 1_554
Hf2 Hf6 3.578403 1_555
Hf2 Hf6 3.578413 1_554
Hf3 Pb5 2.984500 1_545
Hf3 Pb3 3.005289 1_455
Hf3 Pb1 3.011570 1_455
Hf3 Pb2 3.012154 1_545
Hf3 Pb0 3.016605 1_555
Hf3 Pb4 3.021989 1_555
Hf3 Hf7 3.602768 1_545
Hf3 Hf6 3.645087 1_455
Hf4 Pb5 2.984648 1_555
Hf4 Pb4 3.005298 1_655
Hf4 Pb2 3.011570 1_655
Hf4 Pb1 3.012115 1_555
Hf4 Pb0 3.016834 1_565
Hf4 Pb3 3.022038 1_565
Hf4 Hf6 3.602648 1_555
Hf4 Hf7 3.645272 1_655
Hf5 Pb4 2.908020 1_555
Hf5 Pb3 2.908159 1_555
Hf5 Pb5 3.100558 1_545
Hf5 Pb0 3.154254 1_555
Hf5 Pb0 3.154265 1_556
Hf5 Hf7 3.566169 1_555
Hf5 Hf6 3.566392 1_555
Hf6 Pb5 2.907439 1_555
Hf6 Pb3 2.926024 1_555
Hf6 Pb4 3.156422 1_655
Hf6 Pb1 3.188234 1_555
Hf6 Pb1 3.188245 1_556
Hf6 Hf7 3.497289 1_555
Hf6 Sc0 3.567168 1_555
Hf6 Sc0 3.567177 1_556
Hf7 Pb5 2.907328 1_555
Hf7 Pb4 2.926009 1_555
Hf7 Pb3 3.156498 1_465
Hf7 Pb2 3.188350 1_555
Hf7 Pb2 3.188360 1_556
Hf7 Sc1 3.567178 1_555
Hf7 Sc1 3.567188 1_556
Pb0 Sc1 2.890314 1_555
Pb0 Sc0 2.890584 1_555
Pb1 Sc0 2.885322 1_555
Pb1 Sc1 3.117387 1_655
Pb1 Pb4 3.460412 1_655
Pb1 Pb4 3.460421 1_654
Pb2 Sc1 2.885414 1_555
Pb2 Sc0 3.117337 1_465
Pb2 Pb3 3.460300 1_465
Pb2 Pb3 3.460310 1_464
Pb3 Sc0 3.172554 1_555
Pb3 Sc0 3.172565 1_556
Pb4 Sc1 3.172492 1_555
Pb4 Sc1 3.172503 1_556
