# generated using pymatgen
data_Sr2CoIrI
_symmetry_space_group_name_H-M   'P 1'
_cell_length_a   4.18564884
_cell_length_b   4.18564718
_cell_length_c   18.53244915
_cell_angle_alpha   90.00000000
_cell_angle_beta   90.00000000
_cell_angle_gamma   120.00000541
_symmetry_Int_Tables_number   1
_chemical_formula_structural   Sr2CoIrI
_chemical_formula_sum   'Sr4 Co2 Ir2 I2'
_cell_volume   281.18285287
_cell_formula_units_Z   2
loop_
 _symmetry_equiv_pos_site_id
 _symmetry_equiv_pos_as_xyz
  1  'x, y, z'
loop_
 _atom_site_type_symbol
 _atom_site_label
 _atom_site_symmetry_multiplicity
 _atom_site_fract_x
 _atom_site_fract_y
 _atom_site_fract_z
 _atom_site_occupancy
  Sr  Sr0  1  0.00000000  0.00000000  0.61138403  1
  Sr  Sr1  1  0.00000000  0.00000000  0.38877321  1
  Sr  Sr2  1  0.00000000  0.00000000  0.11138403  1
  Sr  Sr3  1  0.00000000  0.00000000  0.88877321  1
  Co  Co0  1  0.66666700  0.33333300  0.99906538  1
  Co  Co1  1  0.33333300  0.66666700  0.49906538  1
  Ir  Ir0  1  0.66666700  0.33333300  0.50073786  1
  Ir  Ir1  1  0.33333300  0.66666700  0.00073786  1
  I  I0  1  0.66666700  0.33333300  0.25003951  1
  I  I1  1  0.33333300  0.66666700  0.75003951  1
loop_
_geom_bond_atom_site_label_1
_geom_bond_atom_site_label_2
_geom_bond_distance
_geom_bond_site_symmetry_2
Co0 Ir1 2.416781 1_546
Co0 Ir1 2.416782 1_656
Co0 Ir1 2.416789 1_556
Co0 Sr3 3.165082 1_655
Co0 Sr3 3.165084 1_665
Co0 Sr3 3.165085 1_555
Co0 Sr2 3.189464 1_656
Co0 Sr2 3.189466 1_666
Co0 Sr2 3.189467 1_556
Co1 Ir0 2.416781 1_565
Co1 Ir0 2.416782 1_455
Co1 Ir0 2.416789 1_555
Co1 Sr1 3.165082 1_565
Co1 Sr1 3.165084 1_555
Co1 Sr1 3.165085 1_665
Co1 Sr0 3.189464 1_565
Co1 Sr0 3.189466 1_555
Co1 Sr0 3.189467 1_665
Ir0 Sr0 3.169322 1_655
Ir0 Sr0 3.169325 1_665
Ir0 Sr0 3.169325 1_555
Ir0 Sr1 3.185186 1_655
Ir0 Sr1 3.185188 1_665
Ir0 Sr1 3.185189 1_555
Ir1 Sr2 3.169322 1_565
Ir1 Sr2 3.169325 1_555
Ir1 Sr2 3.169325 1_665
Ir1 Sr3 3.185186 1_564
Ir1 Sr3 3.185188 1_554
Ir1 Sr3 3.185189 1_664
I0 Sr2 3.527442 1_655
I0 Sr2 3.527444 1_665
I0 Sr2 3.527445 1_555
I0 Sr1 3.528498 1_655
I0 Sr1 3.528500 1_665
I0 Sr1 3.528501 1_555
I1 Sr0 3.527442 1_565
I1 Sr0 3.527444 1_555
I1 Sr0 3.527445 1_665
I1 Sr3 3.528498 1_565
I1 Sr3 3.528500 1_555
I1 Sr3 3.528501 1_665
