# generated using pymatgen
data_HfZrInC
_symmetry_space_group_name_H-M   'P 1'
_cell_length_a   3.33330000
_cell_length_b   3.33329955
_cell_length_c   14.94793112
_cell_angle_alpha   90.00000000
_cell_angle_beta   90.00000000
_cell_angle_gamma   120.00002409
_symmetry_Int_Tables_number   1
_chemical_formula_structural   HfZrInC
_chemical_formula_sum   'Hf2 Zr2 In2 C2'
_cell_volume   143.83360329
_cell_formula_units_Z   2
loop_
 _symmetry_equiv_pos_site_id
 _symmetry_equiv_pos_as_xyz
  1  'x, y, z'
loop_
 _atom_site_type_symbol
 _atom_site_label
 _atom_site_symmetry_multiplicity
 _atom_site_fract_x
 _atom_site_fract_y
 _atom_site_fract_z
 _atom_site_occupancy
  Hf  Hf0  1  0.66666700  0.33333300  0.91869122  1
  Hf  Hf1  1  0.33333300  0.66666700  0.41869122  1
  Zr  Zr0  1  0.33333300  0.66666700  0.08258454  1
  Zr  Zr1  1  0.66666700  0.33333300  0.58258454  1
  In  In0  1  0.33333300  0.66666700  0.75125126  1
  In  In1  1  0.66666700  0.33333300  0.25125126  1
  C  C0  1  0.00000000  0.00000000  0.99747399  1
  C  C1  1  0.00000000  0.00000000  0.49747399  1
loop_
_geom_bond_atom_site_label_1
_geom_bond_atom_site_label_2
_geom_bond_distance
_geom_bond_site_symmetry_2
Hf0 In0 3.157219 1_545
Hf0 In0 3.157219 1_655
Hf0 In0 3.157223 1_555
Hf1 In1 3.157219 1_565
Hf1 In1 3.157219 1_455
Hf1 In1 3.157223 1_555
In0 Zr1 3.171776 1_565
In0 Zr1 3.171776 1_455
In0 Zr1 3.171780 1_555
In1 Zr0 3.171776 1_545
In1 Zr0 3.171776 1_655
In1 Zr0 3.171780 1_555
C0 Hf0 2.256204 1_455
C0 Hf0 2.256206 1_445
C0 Hf0 2.256206 1_555
C0 Zr0 2.306986 1_546
C0 Zr0 2.306987 1_556
C0 Zr0 2.306988 1_446
C1 Hf1 2.256204 1_545
C1 Hf1 2.256206 1_555
C1 Hf1 2.256206 1_445
C1 Zr1 2.306986 1_455
C1 Zr1 2.306987 1_445
C1 Zr1 2.306988 1_555
