# generated using pymatgen
data_HfCu2Rh3S8
_symmetry_space_group_name_H-M   'P 1'
_cell_length_a   6.85699128
_cell_length_b   6.85699141
_cell_length_c   6.85699170
_cell_angle_alpha   63.13564429
_cell_angle_beta   63.13564145
_cell_angle_gamma   63.13563889
_symmetry_Int_Tables_number   1
_chemical_formula_structural   HfCu2Rh3S8
_chemical_formula_sum   'Hf1 Cu2 Rh3 S8'
_cell_volume   243.82747917
_cell_formula_units_Z   1
loop_
 _symmetry_equiv_pos_site_id
 _symmetry_equiv_pos_as_xyz
  1  'x, y, z'
loop_
 _atom_site_type_symbol
 _atom_site_label
 _atom_site_symmetry_multiplicity
 _atom_site_fract_x
 _atom_site_fract_y
 _atom_site_fract_z
 _atom_site_occupancy
  Hf  Hf0  1  0.12500000  0.12500000  0.12500000  1
  Cu  Cu0  1  0.74665356  0.74665356  0.74665356  1
  Cu  Cu1  1  0.50334644  0.50334644  0.50334644  1
  Rh  Rh0  1  0.12500000  0.12500000  0.62500000  1
  Rh  Rh1  1  0.12500000  0.62500000  0.12500000  1
  Rh  Rh2  1  0.62500000  0.12500000  0.12500000  1
  S  S0  1  0.87233687  0.35916243  0.87233687  1
  S  S1  1  0.37766313  0.37766313  0.89083757  1
  S  S2  1  0.36508295  0.36508295  0.36508295  1
  S  S3  1  0.89083757  0.37766313  0.37766313  1
  S  S4  1  0.88491705  0.88491705  0.88491705  1
  S  S5  1  0.35916243  0.87233687  0.87233687  1
  S  S6  1  0.37766313  0.89083757  0.37766313  1
  S  S7  1  0.87233687  0.87233687  0.35916243  1
loop_
_geom_bond_atom_site_label_1
_geom_bond_atom_site_label_2
_geom_bond_distance
_geom_bond_site_symmetry_2
Hf0 S3 2.503165 1_455
Hf0 S5 2.503165 1_544
Hf0 S6 2.503165 1_545
Hf0 S0 2.503165 1_454
Hf0 S1 2.503165 1_554
Hf0 S7 2.503165 1_445
Cu0 S5 2.253330 1_555
Cu0 S0 2.253330 1_555
Cu0 S7 2.253330 1_555
Cu0 S4 2.265728 1_555
Cu1 S3 2.253330 1_555
Cu1 S6 2.253330 1_555
Cu1 S1 2.253330 1_555
Cu1 S2 2.265728 1_555
Rh0 S2 2.396387 1_555
Rh0 S4 2.396387 1_445
Rh0 S0 2.397403 1_455
Rh0 S6 2.397403 1_545
Rh0 S5 2.397403 1_545
Rh0 S3 2.397403 1_455
Rh1 S2 2.396387 1_555
Rh1 S4 2.396387 1_454
Rh1 S7 2.397403 1_455
Rh1 S1 2.397403 1_554
Rh1 S5 2.397404 1_554
Rh1 S3 2.397404 1_455
Rh2 S2 2.396387 1_555
Rh2 S4 2.396387 1_544
Rh2 S7 2.397403 1_545
Rh2 S1 2.397403 1_554
Rh2 S0 2.397404 1_554
Rh2 S6 2.397404 1_545
