# generated using pymatgen
data_Li7BiO6
_symmetry_space_group_name_H-M   'P 1'
_cell_length_a   5.43462916
_cell_length_b   5.48396042
_cell_length_c   5.95117999
_cell_angle_alpha   63.53285627
_cell_angle_beta   64.42535808
_cell_angle_gamma   60.86009538
_symmetry_Int_Tables_number   1
_chemical_formula_structural   Li7BiO6
_chemical_formula_sum   'Li7 Bi1 O6'
_cell_volume   133.35067398
_cell_formula_units_Z   1
loop_
 _symmetry_equiv_pos_site_id
 _symmetry_equiv_pos_as_xyz
  1  'x, y, z'
loop_
 _atom_site_type_symbol
 _atom_site_label
 _atom_site_symmetry_multiplicity
 _atom_site_fract_x
 _atom_site_fract_y
 _atom_site_fract_z
 _atom_site_occupancy
  Li  Li0  1  0.11079050  0.74164646  0.61580959  1
  Li  Li1  1  0.47508459  0.14984966  0.61267107  1
  Li  Li2  1  0.35828927  0.33328919  0.98521858  1
  Li  Li3  1  0.62173995  0.63298353  0.06075649  1
  Li  Li4  1  0.50299152  0.89684285  0.37308830  1
  Li  Li5  1  0.91083719  0.23353432  0.35547770  1
  Li  Li6  1  0.80211598  0.49422051  0.62054394  1
  Bi  Bi0  1  0.00915510  0.97946614  0.00465706  1
  O  O0  1  0.09477408  0.37235440  0.78229852  1
  O  O1  1  0.24408166  0.91699490  0.24176053  1
  O  O2  1  0.62123042  0.22384472  0.23686257  1
  O  O3  1  0.39948297  0.75260065  0.75710416  1
  O  O4  1  0.78013642  0.09828031  0.73306676  1
  O  O5  1  0.87929036  0.61909037  0.24268573  1
loop_
_geom_bond_atom_site_label_1
_geom_bond_atom_site_label_2
_geom_bond_distance
_geom_bond_site_symmetry_2
Li0 O0 1.843710 1_555
Li0 O1 1.944942 1_555
Li0 O4 2.062106 1_465
Li0 O3 2.109045 1_555
Li1 O0 1.902703 1_555
Li1 O4 1.931352 1_555
Li1 O2 1.941320 1_555
Li1 O3 2.133347 1_545
Li2 O0 2.125772 1_555
Li2 O3 2.153392 1_555
Li2 O2 2.203668 1_556
Li2 O4 2.246074 1_555
Li2 O1 2.320126 1_546
Li2 O5 2.510819 1_456
Li3 O2 2.009998 1_555
Li3 O5 2.065954 1_555
Li3 O1 2.066910 1_555
Li3 O3 2.282785 1_554
Li3 O0 2.500515 1_654
Li4 O1 1.823169 1_555
Li4 O2 1.913777 1_565
Li4 O5 1.937613 1_555
Li4 O3 1.969012 1_555
Li5 O5 1.852506 1_555
Li5 O1 1.917942 1_645
Li5 O4 1.937400 1_555
Li5 O2 2.013059 1_555
Li6 O0 1.901627 1_655
Li6 O5 1.947904 1_555
Li6 O3 1.981873 1_555
Li6 O4 2.016134 1_555
Bi0 O5 2.100059 1_455
Bi0 O1 2.106420 1_555
Bi0 O0 2.124424 1_564
Bi0 O2 2.129362 1_465
Bi0 O3 2.140908 1_554
Bi0 O4 2.143441 1_464
