# generated using pymatgen
data_Cs2NaScSb2
_symmetry_space_group_name_H-M   'P 1'
_cell_length_a   11.40356432
_cell_length_b   11.40356456
_cell_length_c   7.41125530
_cell_angle_alpha   90.00000000
_cell_angle_beta   90.00000000
_cell_angle_gamma   100.55927744
_symmetry_Int_Tables_number   1
_chemical_formula_structural   Cs2NaScSb2
_chemical_formula_sum   'Cs8 Na4 Sc4 Sb8'
_cell_volume   947.44852176
_cell_formula_units_Z   4
loop_
 _symmetry_equiv_pos_site_id
 _symmetry_equiv_pos_as_xyz
  1  'x, y, z'
loop_
 _atom_site_type_symbol
 _atom_site_label
 _atom_site_symmetry_multiplicity
 _atom_site_fract_x
 _atom_site_fract_y
 _atom_site_fract_z
 _atom_site_occupancy
  Cs  Cs0  1  0.07076837  0.42923163  0.25000000  1
  Cs  Cs1  1  0.42923163  0.07076837  0.75000000  1
  Cs  Cs2  1  0.92923163  0.57076837  0.75000000  1
  Cs  Cs3  1  0.57076837  0.92923163  0.25000000  1
  Cs  Cs4  1  0.67843368  0.32156632  0.20943964  1
  Cs  Cs5  1  0.82156632  0.17843368  0.70943964  1
  Cs  Cs6  1  0.32156632  0.67843368  0.79056036  1
  Cs  Cs7  1  0.17843368  0.82156632  0.29056036  1
  Na  Na0  1  0.38316296  0.38316296  0.00000000  1
  Na  Na1  1  0.11683704  0.11683704  0.50000000  1
  Na  Na2  1  0.61683704  0.61683704  0.00000000  1
  Na  Na3  1  0.88316296  0.88316296  0.50000000  1
  Sc  Sc0  1  0.13032119  0.13032119  0.00000000  1
  Sc  Sc1  1  0.36967881  0.36967881  0.50000000  1
  Sc  Sc2  1  0.86967881  0.86967881  0.00000000  1
  Sc  Sc3  1  0.63032119  0.63032119  0.50000000  1
  Sb  Sb0  1  0.83570933  0.66428967  0.25000000  1
  Sb  Sb1  1  0.66428967  0.83570933  0.75000000  1
  Sb  Sb2  1  0.16428967  0.33570933  0.75000000  1
  Sb  Sb3  1  0.33570933  0.16428967  0.25000000  1
  Sb  Sb4  1  0.90894934  0.09105066  0.20112408  1
  Sb  Sb5  1  0.59105066  0.40894934  0.70112408  1
  Sb  Sb6  1  0.09105066  0.90894934  0.79887592  1
  Sb  Sb7  1  0.40894934  0.59105066  0.29887592  1
loop_
_geom_bond_atom_site_label_1
_geom_bond_atom_site_label_2
_geom_bond_distance
_geom_bond_site_symmetry_2
Cs0 Sb7 3.974990 1_555
Cs0 Sb4 3.974990 1_455
Cs0 Sb2 4.052567 1_555
Cs0 Sb2 4.052567 1_554
Cs0 Sb0 4.123542 1_455
Cs1 Sb6 3.974990 1_545
Cs1 Sb5 3.974990 1_555
Cs1 Sb3 4.052567 1_555
Cs1 Sb3 4.052567 1_556
Cs1 Sb1 4.123542 1_545
Cs2 Sb5 3.974990 1_555
Cs2 Sb6 3.974990 1_655
Cs2 Sb0 4.052567 1_556
Cs2 Sb0 4.052567 1_555
Cs2 Sb2 4.123542 1_655
Cs3 Sb4 3.974990 1_565
Cs3 Sb7 3.974990 1_555
Cs3 Sb1 4.052567 1_555
Cs3 Sb1 4.052567 1_554
Cs3 Sb3 4.123542 1_565
Cs4 Sb5 3.953302 1_555
Cs4 Sb0 4.001569 1_555
Cs4 Sb3 4.001583 1_555
Cs4 Sb4 4.044317 1_555
Cs4 Sb5 4.067196 1_554
Cs5 Sb4 3.953302 1_556
Cs5 Sb2 4.001569 1_655
Cs5 Sb1 4.001583 1_545
Cs5 Sb5 4.044317 1_555
Cs5 Sb4 4.067196 1_555
Cs6 Sb7 3.953302 1_555
Cs6 Sb1 4.001569 1_555
Cs6 Sb2 4.001583 1_555
Cs6 Sb6 4.044317 1_555
Cs6 Sb7 4.067196 1_556
Cs7 Sb6 3.953302 1_554
Cs7 Sb3 4.001569 1_565
Cs7 Sb0 4.001583 1_455
Cs7 Sb7 4.044317 1_555
Cs7 Sb6 4.067196 1_555
Na0 Sb2 3.075780 1_554
Na0 Sb3 3.075781 1_555
Na0 Sb5 3.218297 1_554
Na0 Sb7 3.218297 1_555
Na1 Sb3 3.075771 1_555
Na1 Sb2 3.075771 1_555
Na1 Sb4 3.218297 1_455
Na1 Sb6 3.218297 1_545
Na2 Sb0 3.075771 1_555
Na2 Sb1 3.075771 1_554
Na2 Sb7 3.218297 1_555
Na2 Sb5 3.218297 1_554
Na3 Sb1 3.075780 1_555
Na3 Sb0 3.075781 1_555
Na3 Sb6 3.218297 1_655
Na3 Sb4 3.218297 1_565
Sb0 Sc3 2.955698 1_555
Sb0 Sc2 2.955707 1_555
Sb1 Sc3 2.955698 1_555
Sb1 Sc2 2.955707 1_556
Sb2 Sc0 2.955698 1_556
Sb2 Sc1 2.955707 1_555
Sb3 Sc0 2.955698 1_555
Sb3 Sc1 2.955707 1_555
Sb4 Sc0 2.894958 1_655
Sb4 Sc2 2.894958 1_545
Sb5 Sc1 2.894958 1_555
Sb5 Sc3 2.894958 1_555
Sb6 Sc2 2.894958 1_456
Sb6 Sc0 2.894958 1_566
Sb7 Sc3 2.894958 1_555
Sb7 Sc1 2.894958 1_555
