# generated using pymatgen
data_Cs2SeOF4
_symmetry_space_group_name_H-M   'P 1'
_cell_length_a   7.88228119
_cell_length_b   7.88228094
_cell_length_c   7.14239443
_cell_angle_alpha   90.00000000
_cell_angle_beta   90.00000000
_cell_angle_gamma   131.45645424
_symmetry_Int_Tables_number   1
_chemical_formula_structural   Cs2SeOF4
_chemical_formula_sum   'Cs4 Se2 O2 F8'
_cell_volume   332.57959861
_cell_formula_units_Z   2
loop_
 _symmetry_equiv_pos_site_id
 _symmetry_equiv_pos_as_xyz
  1  'x, y, z'
loop_
 _atom_site_type_symbol
 _atom_site_label
 _atom_site_symmetry_multiplicity
 _atom_site_fract_x
 _atom_site_fract_y
 _atom_site_fract_z
 _atom_site_occupancy
  Cs  Cs0  1  0.44977520  0.55022480  0.25000000  1
  Cs  Cs1  1  0.23770963  0.76229037  0.75000000  1
  Cs  Cs2  1  0.76229037  0.23770963  0.25000000  1
  Cs  Cs3  1  0.55022480  0.44977520  0.75000000  1
  Se  Se0  1  0.11727212  0.88272788  0.25000000  1
  Se  Se1  1  0.88272788  0.11727212  0.75000000  1
  O  O0  1  0.22995503  0.77004497  0.25000000  1
  O  O1  1  0.77004497  0.22995503  0.75000000  1
  F  F0  1  0.33180154  0.10983128  0.05569770  1
  F  F1  1  0.66819846  0.89016872  0.94430230  1
  F  F2  1  0.89016872  0.66819846  0.44430230  1
  F  F3  1  0.10983128  0.33180154  0.94430230  1
  F  F4  1  0.66819846  0.89016872  0.55569770  1
  F  F5  1  0.89016872  0.66819846  0.05569770  1
  F  F6  1  0.10983128  0.33180154  0.55569770  1
  F  F7  1  0.33180154  0.10983128  0.44430230  1
loop_
_geom_bond_atom_site_label_1
_geom_bond_atom_site_label_2
_geom_bond_distance
_geom_bond_site_symmetry_2
Cs0 F4 2.966968 1_555
Cs0 F1 2.966968 1_554
Cs0 F6 2.966969 1_555
Cs0 F3 2.966969 1_554
Cs0 O0 3.159051 1_555
Cs0 F7 3.250609 1_555
Cs0 F0 3.250609 1_555
Cs0 F2 3.250609 1_555
Cs0 F5 3.250609 1_555
Cs1 F3 3.150743 1_555
Cs1 F6 3.150743 1_555
Cs1 F1 3.150743 1_555
Cs1 F4 3.150743 1_555
Cs1 F0 3.183011 1_566
Cs1 F7 3.183011 1_565
Cs1 F5 3.183011 1_456
Cs1 F2 3.183011 1_455
Cs1 O1 3.273285 1_455
Cs1 O1 3.273285 1_565
Cs1 O0 3.572936 1_556
Cs1 O0 3.572936 1_555
Cs2 F2 3.150743 1_555
Cs2 F5 3.150743 1_555
Cs2 F7 3.150743 1_555
Cs2 F0 3.150743 1_555
Cs2 F4 3.183011 1_545
Cs2 F1 3.183011 1_544
Cs2 F6 3.183011 1_655
Cs2 F3 3.183011 1_654
Cs2 O0 3.273285 1_655
Cs2 O0 3.273285 1_545
Cs2 O1 3.572936 1_555
Cs2 O1 3.572936 1_554
Cs3 F0 2.966968 1_556
Cs3 F7 2.966968 1_555
Cs3 F5 2.966969 1_556
Cs3 F2 2.966969 1_555
Cs3 O1 3.159051 1_555
Cs3 F1 3.250609 1_555
Cs3 F4 3.250609 1_555
Cs3 F3 3.250609 1_555
Cs3 F6 3.250609 1_555
O0 Se0 1.619374 1_555
O1 Se1 1.619374 1_555
F0 Se0 1.995425 1_545
F1 Se1 1.995425 1_565
F2 Se0 1.995425 1_655
F3 Se1 1.995425 1_455
F4 Se1 1.995425 1_565
F5 Se0 1.995425 1_655
F6 Se1 1.995425 1_455
F7 Se0 1.995425 1_545
