# generated using pymatgen
data_Cd3B2Rh5
_symmetry_space_group_name_H-M   'P 1'
_cell_length_a   9.77862758
_cell_length_b   9.77862758
_cell_length_c   2.92533916
_cell_angle_alpha   90.00000000
_cell_angle_beta   90.00000000
_cell_angle_gamma   90.00000000
_symmetry_Int_Tables_number   1
_chemical_formula_structural   Cd3B2Rh5
_chemical_formula_sum   'Cd6 B4 Rh10'
_cell_volume   279.72548626
_cell_formula_units_Z   2
loop_
 _symmetry_equiv_pos_site_id
 _symmetry_equiv_pos_as_xyz
  1  'x, y, z'
loop_
 _atom_site_type_symbol
 _atom_site_label
 _atom_site_symmetry_multiplicity
 _atom_site_fract_x
 _atom_site_fract_y
 _atom_site_fract_z
 _atom_site_occupancy
  Cd  Cd0  1  0.67929267  0.17929267  0.00000000  1
  Cd  Cd1  1  0.32070733  0.82070733  0.00000000  1
  Cd  Cd2  1  0.17929267  0.32070733  0.00000000  1
  Cd  Cd3  1  0.82070733  0.67929267  0.00000000  1
  Cd  Cd4  1  0.00000000  0.00000000  0.00000000  1
  Cd  Cd5  1  0.50000000  0.50000000  0.00000000  1
  B  B0  1  0.12301234  0.62301234  0.00000000  1
  B  B1  1  0.87698766  0.37698766  0.00000000  1
  B  B2  1  0.62301234  0.87698766  0.00000000  1
  B  B3  1  0.37698766  0.12301234  0.00000000  1
  Rh  Rh0  1  0.50000000  0.00000000  0.50000000  1
  Rh  Rh1  1  0.00000000  0.50000000  0.50000000  1
  Rh  Rh2  1  0.22921327  0.06875568  0.50000000  1
  Rh  Rh3  1  0.77078673  0.93124432  0.50000000  1
  Rh  Rh4  1  0.06875568  0.77078673  0.50000000  1
  Rh  Rh5  1  0.72921327  0.43124432  0.50000000  1
  Rh  Rh6  1  0.93124432  0.22921327  0.50000000  1
  Rh  Rh7  1  0.27078673  0.56875568  0.50000000  1
  Rh  Rh8  1  0.56875568  0.72921327  0.50000000  1
  Rh  Rh9  1  0.43124432  0.27078673  0.50000000  1
loop_
_geom_bond_atom_site_label_1
_geom_bond_atom_site_label_2
_geom_bond_distance
_geom_bond_site_symmetry_2
Cd0 Rh0 2.878728 1_555
Cd0 Rh0 2.878728 1_554
Cd0 Rh6 2.906496 1_555
Cd0 Rh5 2.906496 1_554
Cd0 Rh5 2.906496 1_555
Cd0 Rh6 2.906496 1_554
Cd0 Rh3 2.970399 1_544
Cd0 Rh3 2.970399 1_545
Cd0 Rh9 2.970399 1_554
Cd0 Rh9 2.970399 1_555
Cd1 Rh0 2.878728 1_565
Cd1 Rh0 2.878728 1_564
Cd1 Rh4 2.906496 1_555
Cd1 Rh7 2.906496 1_555
Cd1 Rh4 2.906496 1_554
Cd1 Rh7 2.906496 1_554
Cd1 Rh8 2.970399 1_555
Cd1 Rh8 2.970399 1_554
Cd1 Rh2 2.970399 1_564
Cd1 Rh2 2.970399 1_565
Cd2 Rh1 2.878728 1_554
Cd2 Rh1 2.878728 1_555
Cd2 Rh9 2.906496 1_555
Cd2 Rh2 2.906496 1_554
Cd2 Rh9 2.906496 1_554
Cd2 Rh2 2.906496 1_555
Cd2 Rh6 2.970399 1_455
Cd2 Rh6 2.970399 1_454
Cd2 Rh7 2.970399 1_554
Cd2 Rh7 2.970399 1_555
Cd3 Rh1 2.878728 1_655
Cd3 Rh1 2.878728 1_654
Cd3 Rh3 2.906496 1_554
Cd3 Rh8 2.906496 1_555
Cd3 Rh3 2.906496 1_555
Cd3 Rh8 2.906496 1_554
Cd3 Rh5 2.970399 1_554
Cd3 Rh5 2.970399 1_555
Cd3 Rh4 2.970399 1_655
Cd3 Rh4 2.970399 1_654
Cd4 Rh2 2.759578 1_554
Cd4 Rh2 2.759578 1_555
Cd4 Rh6 2.759578 1_455
Cd4 Rh6 2.759578 1_454
Cd4 Rh4 2.759578 1_544
Cd4 Rh4 2.759578 1_545
Cd4 Rh3 2.759578 1_444
Cd4 Rh3 2.759578 1_445
Cd5 Rh8 2.759578 1_555
Cd5 Rh8 2.759578 1_554
Cd5 Rh5 2.759578 1_554
Cd5 Rh5 2.759578 1_555
Cd5 Rh7 2.759578 1_555
Cd5 Rh7 2.759578 1_554
Cd5 Rh9 2.759578 1_554
Cd5 Rh9 2.759578 1_555
B0 Rh4 2.123442 1_555
B0 Rh4 2.123442 1_554
B0 Rh7 2.123442 1_554
B0 Rh7 2.123442 1_555
B0 Rh1 2.243502 1_554
B0 Rh1 2.243502 1_555
B0 Cd1 2.733937 1_555
B1 Rh6 2.123442 1_554
B1 Rh6 2.123442 1_555
B1 Rh5 2.123442 1_554
B1 Rh5 2.123442 1_555
B1 Rh1 2.243502 1_655
B1 Rh1 2.243502 1_654
B1 Cd0 2.733937 1_555
B2 Rh8 2.123442 1_555
B2 Rh3 2.123442 1_555
B2 Rh8 2.123442 1_554
B2 Rh3 2.123442 1_554
B2 Rh0 2.243502 1_565
B2 Rh0 2.243502 1_564
B2 Cd3 2.733937 1_555
B3 Rh2 2.123442 1_555
B3 Rh2 2.123442 1_554
B3 Rh9 2.123442 1_554
B3 Rh9 2.123442 1_555
B3 Rh0 2.243502 1_555
B3 Rh0 2.243502 1_554
B3 Cd2 2.733937 1_555
