# generated using pymatgen
data_NaSc2(SbAu)4
_symmetry_space_group_name_H-M   'P 1'
_cell_length_a   7.87601792
_cell_length_b   7.87601721
_cell_length_c   7.87601774
_cell_angle_alpha   131.52842082
_cell_angle_beta   131.52841641
_cell_angle_gamma   70.97486413
_symmetry_Int_Tables_number   1
_chemical_formula_structural   NaSc2(SbAu)4
_chemical_formula_sum   'Na1 Sc2 Sb4 Au4'
_cell_volume   268.12970128
_cell_formula_units_Z   1
loop_
 _symmetry_equiv_pos_site_id
 _symmetry_equiv_pos_as_xyz
  1  'x, y, z'
loop_
 _atom_site_type_symbol
 _atom_site_label
 _atom_site_symmetry_multiplicity
 _atom_site_fract_x
 _atom_site_fract_y
 _atom_site_fract_z
 _atom_site_occupancy
  Na  Na0  1  0.00000000  0.00000000  0.00000000  1
  Sc  Sc0  1  0.75000100  0.25000000  0.50000100  1
  Sc  Sc1  1  0.25000000  0.75000100  0.50000100  1
  Sb  Sb0  1  0.25046771  0.25046771  0.00000000  1
  Sb  Sb1  1  0.74953229  0.74953229  0.00000000  1
  Sb  Sb2  1  0.50000100  0.00000000  0.50000100  1
  Sb  Sb3  1  0.00000000  0.50000100  0.50000100  1
  Au  Au0  1  0.61843032  0.13452843  0.00000000  1
  Au  Au1  1  0.13452843  0.61843032  1.00000000  1
  Au  Au2  1  0.86547157  0.86547157  0.48390289  1
  Au  Au3  1  0.38156968  0.38156968  0.51609811  1
loop_
_geom_bond_atom_site_label_1
_geom_bond_atom_site_label_2
_geom_bond_distance
_geom_bond_site_symmetry_2
Na0 Sb0 3.212494 1_555
Na0 Sb1 3.212494 1_445
Na0 Sb3 3.233041 1_544
Na0 Sb2 3.233042 1_454
Na0 Sb3 3.233054 1_555
Na0 Sb2 3.233055 1_555
Sb0 Sc1 3.233047 1_544
Sb0 Sc0 3.233047 1_454
Sb0 Sc1 3.233060 1_555
Sb0 Sc0 3.233060 1_555
Sb1 Sc0 3.233053 1_565
Sb1 Sc0 3.233053 1_554
Sb1 Sc1 3.233054 1_554
Sb1 Sc1 3.233054 1_655
Sb2 Sc0 3.206496 1_555
Sb2 Sc1 3.206496 1_545
Sb3 Sc1 3.206496 1_555
Sb3 Sc0 3.206496 1_455
Au0 Sb0 2.739956 1_555
Au0 Sb2 2.782377 1_554
Au0 Sb3 2.782384 1_655
Au0 Sc1 2.804158 1_544
Au0 Sc0 2.804165 1_555
Au0 Na0 2.842213 1_655
Au0 Sb1 2.866942 1_545
Au1 Sb0 2.739956 1_556
Au1 Sb3 2.782377 1_555
Au1 Sb2 2.782384 1_566
Au1 Sc0 2.804158 1_455
Au1 Sc1 2.804165 1_556
Au1 Na0 2.842213 1_566
Au1 Sb1 2.866942 1_456
Au2 Sb1 2.739964 1_555
Au2 Sb3 2.782373 1_655
Au2 Sb2 2.782373 1_565
Au2 Sc0 2.804161 1_565
Au2 Sc1 2.804162 1_655
Au2 Na0 2.842205 1_666
Au2 Sb0 2.866942 1_666
Au3 Sb1 2.739956 1_556
Au3 Sb2 2.782384 1_555
Au3 Sb3 2.782384 1_555
Au3 Sc1 2.804165 1_555
Au3 Sc0 2.804165 1_555
Au3 Na0 2.842213 1_555
Au3 Sb0 2.866942 1_555
