# generated using pymatgen
data_Ca2In3SnPt2
_symmetry_space_group_name_H-M   'P 1'
_cell_length_a   5.74172244
_cell_length_b   5.74172343
_cell_length_c   7.71045669
_cell_angle_alpha   90.39229770
_cell_angle_beta   89.60770383
_cell_angle_gamma   134.28721275
_symmetry_Int_Tables_number   1
_chemical_formula_structural   Ca2In3SnPt2
_chemical_formula_sum   'Ca2 In3 Sn1 Pt2'
_cell_volume   181.95908758
_cell_formula_units_Z   1
loop_
 _symmetry_equiv_pos_site_id
 _symmetry_equiv_pos_as_xyz
  1  'x, y, z'
loop_
 _atom_site_type_symbol
 _atom_site_label
 _atom_site_symmetry_multiplicity
 _atom_site_fract_x
 _atom_site_fract_y
 _atom_site_fract_z
 _atom_site_occupancy
  Ca  Ca0  1  0.93115024  0.06884976  0.74841631  1
  Ca  Ca1  1  0.06844492  0.93155508  0.24993065  1
  In  In0  1  0.64322157  0.35677843  0.54968564  1
  In  In1  1  0.35937173  0.64062827  0.05253055  1
  In  In2  1  0.35476353  0.64523647  0.44986921  1
  Sn  Sn0  1  0.64444045  0.35555955  0.94842725  1
  Pt  Pt0  1  0.21290862  0.78709138  0.75498137  1
  Pt  Pt1  1  0.78569894  0.21430106  0.24615802  1
loop_
_geom_bond_atom_site_label_1
_geom_bond_atom_site_label_2
_geom_bond_distance
_geom_bond_site_symmetry_2
Ca0 Pt0 2.982311 1_645
Ca0 Pt0 3.210599 1_545
Ca0 Pt0 3.210600 1_655
Ca0 In2 3.309649 1_545
Ca0 In2 3.309649 1_655
Ca0 In1 3.320041 1_546
Ca0 In1 3.320041 1_656
Ca0 Sn0 3.393129 1_555
Ca0 In0 3.420572 1_555
Ca0 In0 3.508086 1_655
Ca0 In0 3.508087 1_545
Ca0 Sn0 3.535236 1_655
Ca0 Sn0 3.535237 1_545
Ca1 Pt1 2.992313 1_465
Ca1 Pt1 3.202938 1_565
Ca1 Pt1 3.202939 1_455
Ca1 In0 3.311950 1_565
Ca1 In0 3.311950 1_455
Ca1 Sn0 3.316192 1_564
Ca1 Sn0 3.316192 1_454
Ca1 In2 3.409611 1_555
Ca1 In1 3.424076 1_555
Ca1 In1 3.497869 1_455
Ca1 In1 3.497870 1_565
Ca1 In2 3.522975 1_455
Ca1 In2 3.522975 1_565
In0 Pt1 2.774490 1_555
In0 Pt0 2.835601 1_655
In0 Pt0 2.835601 1_545
In0 Sn0 3.074603 1_555
In0 In2 3.153472 1_555
In0 In2 3.248296 1_655
In0 In2 3.248297 1_545
In1 Pt0 2.778198 1_554
In1 Pt1 2.791638 1_455
In1 Pt1 2.791638 1_565
In1 In2 3.063688 1_555
In1 Sn0 3.115734 1_554
In1 Sn0 3.289070 1_454
In1 Sn0 3.289071 1_564
In2 Pt0 2.781235 1_555
In2 Pt1 2.827038 1_455
In2 Pt1 2.827039 1_565
Pt0 Sn0 2.776232 1_455
Pt0 Sn0 2.776232 1_565
Pt1 Sn0 2.748688 1_554
