# generated using pymatgen
data_CaY2Se3
_symmetry_space_group_name_H-M   'P 1'
_cell_length_a   4.10445286
_cell_length_b   4.10445440
_cell_length_c   10.08260341
_cell_angle_alpha   90.00000000
_cell_angle_beta   90.00000000
_cell_angle_gamma   119.99999552
_symmetry_Int_Tables_number   1
_chemical_formula_structural   CaY2Se3
_chemical_formula_sum   'Ca1 Y2 Se3'
_cell_volume   147.10046410
_cell_formula_units_Z   1
loop_
 _symmetry_equiv_pos_site_id
 _symmetry_equiv_pos_as_xyz
  1  'x, y, z'
loop_
 _atom_site_type_symbol
 _atom_site_label
 _atom_site_symmetry_multiplicity
 _atom_site_fract_x
 _atom_site_fract_y
 _atom_site_fract_z
 _atom_site_occupancy
  Ca  Ca0  1  0.00000000  0.00000000  0.00000000  1
  Y  Y0  1  0.33333300  0.66666700  0.65629207  1
  Y  Y1  1  0.66666700  0.33333300  0.34370793  1
  Se  Se0  1  0.33333300  0.66666700  0.17162779  1
  Se  Se1  1  0.66666700  0.33333300  0.82837221  1
  Se  Se2  1  0.00000000  0.00000000  0.50000000  1
loop_
_geom_bond_atom_site_label_1
_geom_bond_atom_site_label_2
_geom_bond_distance
_geom_bond_site_symmetry_2
Ca0 Se0 2.934276 1_545
Ca0 Se1 2.934276 1_454
Ca0 Se0 2.934279 1_445
Ca0 Se1 2.934279 1_554
Ca0 Se0 2.934279 1_555
Ca0 Se1 2.934279 1_444
Se0 Y1 2.936968 1_455
Se0 Y1 2.936969 1_565
Se0 Y1 2.936974 1_555
Se1 Y0 2.936968 1_655
Se1 Y0 2.936969 1_545
Se1 Y0 2.936974 1_555
Se2 Y0 2.845829 1_545
Se2 Y1 2.845829 1_455
Se2 Y0 2.845832 1_445
Se2 Y1 2.845832 1_555
Se2 Y0 2.845833 1_555
Se2 Y1 2.845833 1_445
