# generated using pymatgen
data_HfZr(VTc)2
_symmetry_space_group_name_H-M   'P 1'
_cell_length_a   5.22546511
_cell_length_b   5.18568218
_cell_length_c   5.18568251
_cell_angle_alpha   60.47712565
_cell_angle_beta   59.74589474
_cell_angle_gamma   59.74590117
_symmetry_Int_Tables_number   1
_chemical_formula_structural   HfZr(VTc)2
_chemical_formula_sum   'Hf1 Zr1 V2 Tc2'
_cell_volume   99.32814877
_cell_formula_units_Z   1
loop_
 _symmetry_equiv_pos_site_id
 _symmetry_equiv_pos_as_xyz
  1  'x, y, z'
loop_
 _atom_site_type_symbol
 _atom_site_label
 _atom_site_symmetry_multiplicity
 _atom_site_fract_x
 _atom_site_fract_y
 _atom_site_fract_z
 _atom_site_occupancy
  Hf  Hf0  1  0.25115045  0.24884955  0.24884955  1
  Zr  Zr0  1  0.99903292  0.00096708  0.00096708  1
  V  V0  1  0.12497584  0.62501661  0.62501661  1
  V  V1  1  0.62499094  0.62501661  0.62501661  1
  Tc  Tc0  1  0.62492492  0.62496707  0.12518408  1
  Tc  Tc1  1  0.62492492  0.12518408  0.62496707  1
loop_
_geom_bond_atom_site_label_1
_geom_bond_atom_site_label_2
_geom_bond_distance
_geom_bond_site_symmetry_2
Hf0 Tc1 3.017964 1_554
Hf0 Tc0 3.017965 1_545
Hf0 V0 3.033677 1_555
Hf0 V1 3.033677 1_455
Hf0 V0 3.056001 1_545
Hf0 V1 3.056001 1_554
Hf0 V0 3.056001 1_554
Hf0 V1 3.056001 1_545
Hf0 Tc1 3.061700 1_455
Hf0 Tc0 3.061700 1_455
Hf0 Tc0 3.061705 1_555
Hf0 Tc1 3.061705 1_555
Hf0 Zr0 3.175176 1_455
Hf0 Zr0 3.175176 1_555
Hf0 Zr0 3.191799 1_456
Hf0 Zr0 3.191799 1_465
V0 V1 2.612654 1_455
V0 V1 2.612812 1_555
V0 Zr0 3.032288 1_466
V0 Zr0 3.056432 1_456
V0 Zr0 3.056433 1_465
V1 Zr0 3.032288 1_466
V1 Zr0 3.056432 1_565
V1 Zr0 3.056433 1_556
Tc0 V1 2.592273 1_555
Tc0 V0 2.592276 1_555
Tc0 V0 2.593407 1_654
Tc0 V1 2.593409 1_554
Tc0 Tc1 2.610384 1_555
Tc0 Tc1 2.612651 1_564
Tc0 Zr0 3.019670 1_555
Tc0 Zr0 3.061454 1_565
Tc0 Zr0 3.061459 1_465
Tc1 V1 2.592273 1_555
Tc1 V0 2.592276 1_555
Tc1 V0 2.593407 1_645
Tc1 V1 2.593409 1_545
Tc1 Zr0 3.019670 1_555
Tc1 Zr0 3.061454 1_556
Tc1 Zr0 3.061458 1_456
