# generated using pymatgen
data_RbLi4NbO5
_symmetry_space_group_name_H-M   'P 1'
_cell_length_a   5.84015631
_cell_length_b   5.90947026
_cell_length_c   8.37096440
_cell_angle_alpha   89.06986767
_cell_angle_beta   100.69997634
_cell_angle_gamma   119.65849021
_symmetry_Int_Tables_number   1
_chemical_formula_structural   RbLi4NbO5
_chemical_formula_sum   'Rb2 Li8 Nb2 O10'
_cell_volume   245.71698345
_cell_formula_units_Z   2
loop_
 _symmetry_equiv_pos_site_id
 _symmetry_equiv_pos_as_xyz
  1  'x, y, z'
loop_
 _atom_site_type_symbol
 _atom_site_label
 _atom_site_symmetry_multiplicity
 _atom_site_fract_x
 _atom_site_fract_y
 _atom_site_fract_z
 _atom_site_occupancy
  Rb  Rb0  1  0.60194095  0.74932994  0.40246518  1
  Rb  Rb1  1  0.39805905  0.25067006  0.59753482  1
  Li  Li0  1  0.33623029  0.99221750  0.88135229  1
  Li  Li1  1  0.66376971  0.00778250  0.11864771  1
  Li  Li2  1  0.59327842  0.38922847  0.07946842  1
  Li  Li3  1  0.88991928  0.34457016  0.38030353  1
  Li  Li4  1  0.09207635  0.39629891  0.09548085  1
  Li  Li5  1  0.40672158  0.61077153  0.92053158  1
  Li  Li6  1  0.11008072  0.65542984  0.61969647  1
  Li  Li7  1  0.90792365  0.60370109  0.90451915  1
  Nb  Nb0  1  0.14759740  0.94610292  0.19963096  1
  Nb  Nb1  1  0.85240260  0.05389708  0.80036904  1
  O  O0  1  0.77868281  0.76265653  0.03816925  1
  O  O1  1  0.52952810  0.19568208  0.26800700  1
  O  O2  1  0.22131719  0.23734347  0.96183075  1
  O  O3  1  0.25905283  0.75755184  0.05300375  1
  O  O4  1  0.47047190  0.80431792  0.73199300  1
  O  O5  1  0.91756957  0.27431836  0.62851002  1
  O  O6  1  0.03460882  0.18143024  0.27269524  1
  O  O7  1  0.74094717  0.24244816  0.94699625  1
  O  O8  1  0.08243043  0.72568164  0.37148998  1
  O  O9  1  0.96539118  0.81856976  0.72730476  1
loop_
_geom_bond_atom_site_label_1
_geom_bond_atom_site_label_2
_geom_bond_distance
_geom_bond_site_symmetry_2
Li0 O3 1.936000 1_556
Li0 O7 2.039692 1_565
Li0 O2 2.040647 1_565
Li0 O9 2.052526 1_455
Li0 O4 2.163653 1_555
Li0 Rb1 2.786143 1_565
Li1 O7 1.936000 1_554
Li1 O3 2.039692 1_545
Li1 O0 2.040647 1_545
Li1 O6 2.052526 1_655
Li1 O1 2.163653 1_555
Li1 Rb0 2.786143 1_545
Li2 O1 1.917245 1_555
Li2 O2 1.949104 1_554
Li2 O7 1.962775 1_554
Li2 O0 1.977684 1_555
Li3 O1 1.883397 1_555
Li3 O6 1.889961 1_655
Li3 O8 1.965002 1_655
Li3 O5 2.104550 1_555
Li4 O6 1.904611 1_555
Li4 O3 1.917982 1_555
Li4 O2 1.937291 1_554
Li4 O7 1.954943 1_454
Li5 O4 1.917245 1_555
Li5 O0 1.949104 1_556
Li5 O3 1.962775 1_556
Li5 O2 1.977684 1_555
Li6 O4 1.883397 1_555
Li6 O9 1.889961 1_455
Li6 O5 1.965002 1_455
Li6 O8 2.104550 1_555
Li7 O9 1.904611 1_555
Li7 O7 1.917982 1_555
Li7 O0 1.937291 1_556
Li7 O3 1.954943 1_656
Nb0 O8 1.887603 1_555
Nb0 O1 1.943128 1_565
Nb0 O6 1.956805 1_565
Nb0 O3 2.056844 1_555
Nb0 O0 2.073331 1_455
Nb0 O2 2.565875 1_564
Nb1 O5 1.887603 1_555
Nb1 O4 1.943128 1_545
Nb1 O9 1.956805 1_545
Nb1 O7 2.056844 1_555
Nb1 O2 2.073331 1_655
Nb1 O0 2.565875 1_546
O1 Rb0 3.038750 1_545
O1 Rb1 3.060510 1_555
O1 Rb0 3.274694 1_555
O3 Rb0 3.238271 1_555
O4 Rb1 3.038750 1_565
O4 Rb0 3.060510 1_555
O4 Rb1 3.274694 1_555
O5 Rb1 2.929418 1_555
O5 Rb1 2.936087 1_655
O5 Rb0 3.136722 1_545
O6 Rb0 2.937510 1_445
O6 Rb1 3.016681 1_555
O6 Rb0 3.346359 1_555
O7 Rb1 3.238271 1_555
O8 Rb0 2.929418 1_555
O8 Rb0 2.936087 1_455
O8 Rb1 3.136722 1_565
O9 Rb1 2.937510 1_665
O9 Rb0 3.016681 1_555
O9 Rb1 3.346359 1_555
