# generated using pymatgen
data_Ta3BiPb4O13
_symmetry_space_group_name_H-M   'P 1'
_cell_length_a   7.68819426
_cell_length_b   7.68819520
_cell_length_c   7.68819383
_cell_angle_alpha   59.40105953
_cell_angle_beta   59.40105335
_cell_angle_gamma   59.40105108
_symmetry_Int_Tables_number   1
_chemical_formula_structural   Ta3BiPb4O13
_chemical_formula_sum   'Ta3 Bi1 Pb4 O13'
_cell_volume   316.95530909
_cell_formula_units_Z   1
loop_
 _symmetry_equiv_pos_site_id
 _symmetry_equiv_pos_as_xyz
  1  'x, y, z'
loop_
 _atom_site_type_symbol
 _atom_site_label
 _atom_site_symmetry_multiplicity
 _atom_site_fract_x
 _atom_site_fract_y
 _atom_site_fract_z
 _atom_site_occupancy
  Ta  Ta0  1  0.00598613  0.49987344  0.49987344  1
  Ta  Ta1  1  0.49987344  0.49987344  0.00598613  1
  Ta  Ta2  1  0.49987344  0.00598613  0.49987344  1
  Bi  Bi0  1  0.50474736  0.50474736  0.50474736  1
  Pb  Pb0  1  0.00249989  0.00249989  0.00249989  1
  Pb  Pb1  1  0.49807971  0.01481263  0.01481263  1
  Pb  Pb2  1  0.01481263  0.01481263  0.49807971  1
  Pb  Pb3  1  0.01481263  0.49807971  0.01481263  1
  O  O0  1  0.89743887  0.39074536  0.39074536  1
  O  O1  1  0.42919305  0.79365866  0.79365866  1
  O  O2  1  0.39074536  0.39074536  0.89743887  1
  O  O3  1  0.79365866  0.79365866  0.42919305  1
  O  O4  1  0.79365866  0.42919305  0.79365866  1
  O  O5  1  0.39074536  0.89743887  0.39074536  1
  O  O6  1  0.15873677  0.57240773  0.57240773  1
  O  O7  1  0.58511125  0.19005460  0.19005460  1
  O  O8  1  0.57240773  0.57240773  0.15873677  1
  O  O9  1  0.19005460  0.19005460  0.58511125  1
  O  O10  1  0.19005460  0.58511125  0.19005460  1
  O  O11  1  0.57240773  0.15873677  0.57240773  1
  O  O12  1  0.12010215  0.12010215  0.12010215  1
loop_
_geom_bond_atom_site_label_1
_geom_bond_atom_site_label_2
_geom_bond_distance
_geom_bond_site_symmetry_2
Bi0 O8 2.252944 1_555
Bi0 O6 2.252944 1_555
Bi0 O11 2.252945 1_555
Bi0 O0 2.458770 1_555
Bi0 O2 2.458770 1_555
Bi0 O5 2.458770 1_555
O0 Ta0 2.060709 1_655
O0 Pb3 2.350228 1_655
O0 Pb2 2.350229 1_655
O1 Ta2 1.990372 1_565
O1 Ta1 1.990372 1_556
O1 Pb0 2.795998 1_566
O2 Ta1 2.060709 1_556
O2 Pb3 2.350228 1_556
O2 Pb1 2.350229 1_556
O3 Ta2 1.990372 1_565
O3 Ta0 1.990372 1_655
O3 Pb0 2.795998 1_665
O4 Ta1 1.990372 1_556
O4 Ta0 1.990372 1_655
O4 Pb0 2.795999 1_656
O5 Ta2 2.060709 1_565
O5 Pb2 2.350228 1_565
O5 Pb1 2.350228 1_565
O6 Ta0 1.910802 1_555
O7 Ta2 2.007266 1_555
O7 Ta1 2.007266 1_555
O7 Pb0 2.674187 1_655
O8 Ta1 1.910802 1_555
O9 Ta2 2.007266 1_555
O9 Ta0 2.007266 1_555
O9 Pb0 2.674187 1_556
O10 Ta1 2.007265 1_555
O10 Ta0 2.007266 1_555
O10 Pb0 2.674188 1_565
O11 Ta2 1.910802 1_555
O12 Pb0 2.224676 1_555
O12 Pb1 2.373323 1_555
O12 Pb2 2.373323 1_555
O12 Pb3 2.373323 1_555
