# generated using pymatgen
data_Rb7NbIn3P5
_symmetry_space_group_name_H-M   'P 1'
_cell_length_a   8.48100163
_cell_length_b   9.35085763
_cell_length_c   14.24583551
_cell_angle_alpha   85.25161625
_cell_angle_beta   83.94410827
_cell_angle_gamma   86.30766657
_symmetry_Int_Tables_number   1
_chemical_formula_structural   Rb7NbIn3P5
_chemical_formula_sum   'Rb14 Nb2 In6 P10'
_cell_volume   1117.83262229
_cell_formula_units_Z   2
loop_
 _symmetry_equiv_pos_site_id
 _symmetry_equiv_pos_as_xyz
  1  'x, y, z'
loop_
 _atom_site_type_symbol
 _atom_site_label
 _atom_site_symmetry_multiplicity
 _atom_site_fract_x
 _atom_site_fract_y
 _atom_site_fract_z
 _atom_site_occupancy
  Rb  Rb0  1  0.84841705  0.35382124  0.65248128  1
  Rb  Rb1  1  0.81833231  0.80672818  0.13254457  1
  Rb  Rb2  1  0.24105707  0.01323669  0.46704083  1
  Rb  Rb3  1  0.27667924  0.25647132  0.25124332  1
  Rb  Rb4  1  0.74254944  0.49936416  0.97318940  1
  Rb  Rb5  1  0.25745056  0.50063584  0.02681060  1
  Rb  Rb6  1  0.67569638  0.08056516  0.88535051  1
  Rb  Rb7  1  0.75894293  0.98676331  0.53295917  1
  Rb  Rb8  1  0.72332076  0.74352868  0.74875668  1
  Rb  Rb9  1  0.34226843  0.34612960  0.59855277  1
  Rb  Rb10  1  0.15158295  0.64617876  0.34751872  1
  Rb  Rb11  1  0.18166769  0.19327182  0.86745543  1
  Rb  Rb12  1  0.32430362  0.91943484  0.11464949  1
  Rb  Rb13  1  0.65773157  0.65387040  0.40144723  1
  Nb  Nb0  1  0.35030773  0.60753821  0.77422923  1
  Nb  Nb1  1  0.64969227  0.39246179  0.22577077  1
  In  In0  1  0.04881019  0.81479559  0.87116877  1
  In  In1  1  0.95118981  0.18520441  0.12883123  1
  In  In2  1  0.35950022  0.95740751  0.70243639  1
  In  In3  1  0.08963622  0.72153365  0.62254033  1
  In  In4  1  0.91036378  0.27846635  0.37745967  1
  In  In5  1  0.64049978  0.04259249  0.29756361  1
  P  P0  1  0.92465865  0.44986910  0.21006279  1
  P  P1  1  0.63118742  0.19488724  0.12507623  1
  P  P2  1  0.07534135  0.55013090  0.78993721  1
  P  P3  1  0.58901376  0.29071414  0.38830532  1
  P  P4  1  0.41098624  0.70928586  0.61169468  1
  P  P5  1  0.03026532  0.98910892  0.70322949  1
  P  P6  1  0.51509716  0.40610143  0.81022825  1
  P  P7  1  0.48490284  0.59389857  0.18977175  1
  P  P8  1  0.36881258  0.80511276  0.87492377  1
  P  P9  1  0.96973468  0.01089108  0.29677051  1
loop_
_geom_bond_atom_site_label_1
_geom_bond_atom_site_label_2
_geom_bond_distance
_geom_bond_site_symmetry_2
Nb0 P6 2.327326 1_555
Nb0 P2 2.409908 1_555
Nb0 P4 2.445042 1_555
Nb0 P8 2.453404 1_555
Nb0 Rb8 3.457762 1_555
Nb1 P7 2.327326 1_555
Nb1 P0 2.409908 1_555
Nb1 P3 2.445042 1_555
Nb1 P1 2.453404 1_555
Nb1 Rb3 3.457762 1_555
In0 P8 2.715643 1_555
In0 P5 2.793934 1_555
In0 P2 2.803943 1_555
In0 Rb8 3.542660 1_455
In0 Rb11 3.777235 1_565
In0 Rb6 3.894299 1_465
In0 Rb1 4.015948 1_456
In1 P1 2.715643 1_555
In1 P9 2.793934 1_555
In1 P0 2.803943 1_555
In1 Rb3 3.542660 1_655
In1 Rb1 3.777235 1_545
In1 Rb12 3.894299 1_645
In1 Rb11 4.015948 1_654
In2 P4 2.737112 1_555
In2 P8 2.742141 1_555
In2 P5 2.787814 1_555
In2 Rb11 3.513878 1_565
In2 Rb2 3.588913 1_565
In2 Rb8 3.656807 1_555
In2 Rb9 3.809264 1_565
In2 Rb7 3.957910 1_555
In3 P4 2.708969 1_555
In3 P2 2.757103 1_555
In3 P5 2.833182 1_555
In3 Rb8 3.424517 1_455
In3 Rb2 3.584287 1_565
In3 Rb7 3.870495 1_455
In3 Rb10 4.012186 1_555
In3 Rb0 4.082768 1_455
In4 P3 2.708969 1_555
In4 P0 2.757103 1_555
In4 P9 2.833182 1_555
In4 Rb3 3.424517 1_655
In4 Rb7 3.584287 1_545
In4 Rb2 3.870495 1_655
In4 Rb0 4.012186 1_555
In4 Rb10 4.082768 1_655
In5 P3 2.737112 1_555
In5 P1 2.742141 1_555
In5 P9 2.787814 1_555
In5 Rb1 3.513878 1_545
In5 Rb7 3.588913 1_545
In5 Rb3 3.656807 1_555
In5 Rb13 3.809264 1_545
In5 Rb2 3.957910 1_555
P0 Rb3 3.467888 1_655
P0 Rb1 3.518562 1_555
P0 Rb10 3.571173 1_655
P0 Rb5 3.663224 1_655
P0 Rb4 3.838697 1_554
P0 Rb13 3.898680 1_555
P1 Rb3 3.377841 1_555
P1 Rb4 3.546146 1_554
P1 Rb6 3.637111 1_554
P1 Rb12 3.799825 1_545
P1 Rb1 3.864493 1_545
P2 Rb8 3.467888 1_455
P2 Rb11 3.518562 1_555
P2 Rb0 3.571173 1_455
P2 Rb4 3.663224 1_455
P2 Rb5 3.838697 1_556
P2 Rb9 3.898680 1_555
P3 Rb3 3.497973 1_555
P3 Rb13 3.505637 1_555
P3 Rb9 3.523268 1_555
P3 Rb7 3.678451 1_545
P4 Rb8 3.497973 1_555
P4 Rb9 3.505637 1_555
P4 Rb13 3.523268 1_555
P4 Rb2 3.678451 1_565
P5 Rb7 3.517418 1_455
P5 Rb11 3.529290 1_565
P5 Rb8 3.554968 1_455
P5 Rb2 3.636645 1_565
P5 Rb0 3.698849 1_465
P5 Rb6 3.859432 1_465
P6 Rb4 3.371627 1_555
P6 Rb6 3.391290 1_555
P6 Rb0 3.455987 1_555
P6 Rb11 3.548468 1_555
P6 Rb9 3.588118 1_555
P6 Rb8 3.711447 1_555
P6 Rb5 3.722365 1_556
P7 Rb5 3.371627 1_555
P7 Rb12 3.391290 1_555
P7 Rb10 3.455987 1_555
P7 Rb1 3.548468 1_555
P7 Rb13 3.588118 1_555
P7 Rb3 3.711447 1_555
P7 Rb4 3.722365 1_554
P8 Rb8 3.377841 1_555
P8 Rb5 3.546146 1_556
P8 Rb12 3.637111 1_556
P8 Rb6 3.799825 1_565
P8 Rb11 3.864493 1_565
P9 Rb2 3.517418 1_655
P9 Rb1 3.529290 1_545
P9 Rb3 3.554968 1_655
P9 Rb7 3.636645 1_545
P9 Rb10 3.698849 1_645
P9 Rb12 3.859432 1_645
