# generated using pymatgen
data_Ag6AsS5I
_symmetry_space_group_name_H-M   'P 1'
_cell_length_a   7.53467791
_cell_length_b   7.53467849
_cell_length_c   13.02716954
_cell_angle_alpha   73.07878932
_cell_angle_beta   73.07878587
_cell_angle_gamma   60.06119748
_symmetry_Int_Tables_number   1
_chemical_formula_structural   Ag6AsS5I
_chemical_formula_sum   'Ag12 As2 S10 I2'
_cell_volume   603.57903409
_cell_formula_units_Z   2
loop_
 _symmetry_equiv_pos_site_id
 _symmetry_equiv_pos_as_xyz
  1  'x, y, z'
loop_
 _atom_site_type_symbol
 _atom_site_label
 _atom_site_symmetry_multiplicity
 _atom_site_fract_x
 _atom_site_fract_y
 _atom_site_fract_z
 _atom_site_occupancy
  Ag  Ag0  1  0.47563641  0.54209815  0.50284558  1
  Ag  Ag1  1  0.54209815  0.47563641  0.00284558  1
  Ag  Ag2  1  0.05359526  0.52346342  0.49402634  1
  Ag  Ag3  1  0.52346342  0.05359526  0.99402634  1
  Ag  Ag4  1  0.37593735  0.64990317  0.72485903  1
  Ag  Ag5  1  0.64990317  0.37593735  0.22485903  1
  Ag  Ag6  1  0.13525666  0.28833460  0.72255177  1
  Ag  Ag7  1  0.28833460  0.13525666  0.22255177  1
  Ag  Ag8  1  0.97272976  0.02030842  0.00019792  1
  Ag  Ag9  1  0.02030842  0.97272976  0.50019792  1
  Ag  Ag10  1  0.78485617  0.88099343  0.72352408  1
  Ag  Ag11  1  0.88099343  0.78485617  0.22352408  1
  As  As0  1  0.01663880  0.51629275  0.98763322  1
  As  As1  1  0.51629275  0.01663880  0.48763322  1
  S  S0  1  0.20400241  0.68620325  0.92777589  1
  S  S1  1  0.68620325  0.20400241  0.42777589  1
  S  S2  1  0.18526257  0.22209245  0.92572216  1
  S  S3  1  0.22209245  0.18526257  0.42572216  1
  S  S4  1  0.45354283  0.95983399  0.66674332  1
  S  S5  1  0.95983399  0.45354283  0.16674332  1
  S  S6  1  0.13483356  0.63542275  0.62978907  1
  S  S7  1  0.63542275  0.13483356  0.12978907  1
  S  S8  1  0.72036361  0.70458369  0.92784208  1
  S  S9  1  0.70458369  0.72036361  0.42784208  1
  I  I0  1  0.75486490  0.26295063  0.75249054  1
  I  I1  1  0.26295063  0.75486490  0.25249054  1
loop_
_geom_bond_atom_site_label_1
_geom_bond_atom_site_label_2
_geom_bond_distance
_geom_bond_site_symmetry_2
Ag0 S6 2.495138 1_555
Ag0 S9 2.510420 1_555
Ag0 S1 2.544765 1_555
Ag1 S7 2.495138 1_555
Ag1 S8 2.510420 1_554
Ag1 S0 2.544765 1_554
Ag2 S6 2.495661 1_555
Ag2 S3 2.515989 1_555
Ag2 S9 2.557488 1_455
Ag3 S7 2.495661 1_556
Ag3 S2 2.515989 1_555
Ag3 S8 2.557488 1_545
Ag4 S6 2.536165 1_555
Ag4 S4 2.538600 1_555
Ag4 S0 2.610470 1_555
Ag4 I0 2.908638 1_555
Ag5 S7 2.536166 1_555
Ag5 S5 2.538600 1_555
Ag5 S1 2.610470 1_555
Ag5 I1 2.908638 1_555
Ag6 S6 2.540444 1_555
Ag6 S4 2.552235 1_545
Ag6 S2 2.649546 1_555
Ag6 I0 2.873399 1_455
Ag7 S7 2.540444 1_555
Ag7 S5 2.552235 1_455
Ag7 S3 2.649546 1_555
Ag7 I1 2.873399 1_545
Ag8 S7 2.493041 1_555
Ag8 S0 2.512124 1_644
Ag8 S2 2.546435 1_654
Ag9 S6 2.493041 1_555
Ag9 S1 2.512124 1_465
Ag9 S3 2.546435 1_565
Ag10 S6 2.537510 1_655
Ag10 S4 2.543749 1_555
Ag10 S8 2.630550 1_555
Ag10 I0 2.899880 1_565
Ag11 S7 2.537511 1_565
Ag11 S5 2.543750 1_555
Ag11 S9 2.630550 1_555
Ag11 I1 2.899880 1_655
As0 S8 2.193286 1_455
As0 S2 2.193525 1_555
As0 S0 2.195913 1_555
As0 S5 2.197608 1_456
As1 S9 2.193286 1_545
As1 S3 2.193525 1_555
As1 S1 2.195913 1_555
As1 S4 2.197608 1_545
