# generated using pymatgen
data_Ta6Be14Co8Si
_symmetry_space_group_name_H-M   'P 1'
_cell_length_a   7.54425553
_cell_length_b   7.54425601
_cell_length_c   7.54425632
_cell_angle_alpha   60.00000293
_cell_angle_beta   60.00000084
_cell_angle_gamma   60.00000016
_symmetry_Int_Tables_number   1
_chemical_formula_structural   Ta6Be14Co8Si
_chemical_formula_sum   'Ta6 Be14 Co8 Si1'
_cell_volume   303.62271375
_cell_formula_units_Z   1
loop_
 _symmetry_equiv_pos_site_id
 _symmetry_equiv_pos_as_xyz
  1  'x, y, z'
loop_
 _atom_site_type_symbol
 _atom_site_label
 _atom_site_symmetry_multiplicity
 _atom_site_fract_x
 _atom_site_fract_y
 _atom_site_fract_z
 _atom_site_occupancy
  Ta  Ta0  1  0.71088416  0.28911584  0.28911584  1
  Ta  Ta1  1  0.28911584  0.71088416  0.71088416  1
  Ta  Ta2  1  0.28911584  0.71088416  0.28911584  1
  Ta  Ta3  1  0.71088416  0.28911584  0.71088416  1
  Ta  Ta4  1  0.28911584  0.28911584  0.71088416  1
  Ta  Ta5  1  0.71088416  0.71088416  0.28911584  1
  Be  Be0  1  0.32614100  0.32614100  0.32614100  1
  Be  Be1  1  0.67385900  0.67385900  0.67385900  1
  Be  Be2  1  0.32614100  0.32614100  0.02157599  1
  Be  Be3  1  0.32614100  0.02157599  0.32614100  1
  Be  Be4  1  0.67385900  0.67385900  0.97842401  1
  Be  Be5  1  0.67385900  0.97842401  0.67385900  1
  Be  Be6  1  0.02157599  0.32614100  0.32614100  1
  Be  Be7  1  0.97842401  0.67385900  0.67385900  1
  Be  Be8  1  0.50000000  0.00000000  0.00000000  1
  Be  Be9  1  0.00000000  0.50000000  0.50000000  1
  Be  Be10  1  0.00000000  0.50000000  0.00000000  1
  Be  Be11  1  0.50000000  0.00000000  0.50000000  1
  Be  Be12  1  0.00000000  0.00000000  0.50000000  1
  Be  Be13  1  0.50000000  0.50000000  0.00000000  1
  Co  Co0  1  0.12398347  0.12398347  0.12398347  1
  Co  Co1  1  0.87601653  0.87601753  0.87601653  1
  Co  Co2  1  0.12398347  0.12398347  0.62804958  1
  Co  Co3  1  0.12398347  0.62804958  0.12398247  1
  Co  Co4  1  0.87601653  0.87601753  0.37195042  1
  Co  Co5  1  0.87601653  0.37195042  0.87601653  1
  Co  Co6  1  0.62804958  0.12398347  0.12398347  1
  Co  Co7  1  0.37195042  0.87601653  0.87601653  1
  Si  Si0  1  0.00000000  0.00000000  0.00000000  1
loop_
_geom_bond_atom_site_label_1
_geom_bond_atom_site_label_2
_geom_bond_distance
_geom_bond_site_symmetry_2
Be0 Be9 2.181891 1_555
Be0 Be11 2.181891 1_555
Be0 Be13 2.181891 1_555
Be0 Co6 2.284373 1_555
Be0 Co2 2.284373 1_555
Be0 Co3 2.284377 1_555
Be0 Be6 2.297716 1_555
Be0 Be3 2.297716 1_555
Be0 Be2 2.297717 1_555
Be0 Ta0 2.652850 1_555
Be0 Ta2 2.652850 1_555
Be0 Ta4 2.652850 1_555
Be1 Be9 2.181891 1_655
Be1 Be11 2.181891 1_565
Be1 Be13 2.181891 1_556
Be1 Co7 2.284373 1_555
Be1 Co5 2.284373 1_555
Be1 Co4 2.284377 1_555
Be1 Be7 2.297716 1_555
Be1 Be5 2.297716 1_555
Be1 Be4 2.297717 1_555
Be1 Ta1 2.652850 1_555
Be1 Ta3 2.652850 1_555
Be1 Ta5 2.652850 1_555
Be2 Be8 2.181889 1_555
Be2 Co0 2.284370 1_555
Be2 Co3 2.284373 1_555
Be2 Co6 2.284377 1_555
Be2 Be6 2.297716 1_555
Be2 Be3 2.297717 1_555
Be2 Ta4 2.652842 1_554
Be2 Ta3 2.652847 1_554
Be2 Ta1 2.652847 1_554
Be3 Be8 2.181889 1_555
Be3 Co0 2.284370 1_555
Be3 Co6 2.284377 1_555
Be3 Co2 2.284377 1_555
Be3 Be6 2.297716 1_555
Be3 Ta2 2.652842 1_545
Be3 Ta5 2.652847 1_545
Be3 Ta1 2.652847 1_545
Be4 Be8 2.181889 1_566
Be4 Co7 2.284377 1_555
Be4 Co1 2.284377 1_555
Be4 Co5 2.284377 1_555
Be4 Be7 2.297716 1_555
Be4 Be5 2.297717 1_555
Be4 Ta5 2.652842 1_556
Be4 Ta2 2.652847 1_556
Be4 Ta0 2.652847 1_556
Be5 Be8 2.181889 1_566
Be5 Co1 2.284373 1_555
Be5 Co4 2.284373 1_555
Be5 Co7 2.284377 1_555
Be5 Be7 2.297716 1_555
Be5 Ta3 2.652842 1_565
Be5 Ta4 2.652847 1_565
Be5 Ta0 2.652847 1_565
Be6 Be9 2.181895 1_555
Be6 Co0 2.284370 1_555
Be6 Co3 2.284377 1_555
Be6 Co2 2.284377 1_555
Be6 Ta0 2.652842 1_455
Be6 Ta5 2.652847 1_455
Be6 Ta3 2.652847 1_455
Be7 Be9 2.181895 1_655
Be7 Co1 2.284377 1_555
Be7 Co5 2.284377 1_555
Be7 Co4 2.284377 1_555
Be7 Ta1 2.652842 1_655
Be7 Ta4 2.652847 1_655
Be7 Ta2 2.652847 1_655
Be8 Co0 2.316276 1_555
Be8 Co1 2.316276 1_544
Be8 Co6 2.316277 1_555
Be8 Co7 2.316277 1_544
Be8 Ta3 2.699749 1_554
Be8 Ta2 2.699749 1_545
Be8 Ta5 2.699749 1_545
Be8 Ta4 2.699749 1_554
Be9 Co2 2.316277 1_555
Be9 Co5 2.316277 1_455
Be9 Co4 2.316283 1_455
Be9 Co3 2.316283 1_555
Be9 Ta2 2.699749 1_555
Be9 Ta3 2.699749 1_455
Be9 Ta4 2.699749 1_555
Be9 Ta5 2.699749 1_455
Be10 Be2 2.181888 1_555
Be10 Be4 2.181888 1_454
Be10 Be6 2.181889 1_555
Be10 Be7 2.181889 1_454
Be10 Co3 2.316270 1_555
Be10 Co5 2.316277 1_454
Be10 Co0 2.316277 1_555
Be10 Co1 2.316283 1_454
Be10 Ta0 2.699749 1_455
Be10 Ta1 2.699749 1_554
Be10 Ta5 2.699749 1_455
Be10 Ta4 2.699749 1_554
Be11 Be5 2.181895 1_545
Be11 Be3 2.181895 1_555
Be11 Co2 2.316276 1_555
Be11 Co4 2.316276 1_545
Be11 Co7 2.316277 1_545
Be11 Co6 2.316277 1_555
Be11 Ta1 2.699749 1_545
Be11 Ta0 2.699749 1_555
Be11 Ta4 2.699749 1_555
Be11 Ta5 2.699749 1_545
Be12 Be3 2.181888 1_555
Be12 Be5 2.181888 1_445
Be12 Be6 2.181889 1_555
Be12 Be7 2.181889 1_445
Be12 Co4 2.316270 1_445
Be12 Co2 2.316277 1_555
Be12 Co0 2.316277 1_555
Be12 Co1 2.316277 1_445
Be12 Ta1 2.699749 1_545
Be12 Ta3 2.699749 1_455
Be12 Ta0 2.699749 1_455
Be12 Ta2 2.699749 1_545
Be13 Be4 2.181895 1_554
Be13 Be2 2.181895 1_555
Be13 Co5 2.316276 1_554
Be13 Co3 2.316276 1_555
Be13 Co7 2.316277 1_554
Be13 Co6 2.316277 1_555
Be13 Ta0 2.699749 1_555
Be13 Ta1 2.699749 1_554
Be13 Ta2 2.699749 1_555
Be13 Ta3 2.699749 1_554
Co0 Si0 2.291162 1_555
Co0 Ta0 2.569758 1_455
Co0 Ta2 2.569758 1_545
Co0 Ta4 2.569758 1_554
Co1 Si0 2.291156 1_666
Co1 Ta3 2.569753 1_565
Co1 Ta1 2.569759 1_655
Co1 Ta5 2.569759 1_556
Co2 Si0 2.291162 1_556
Co2 Ta3 2.569758 1_455
Co2 Ta4 2.569758 1_555
Co2 Ta1 2.569758 1_545
Co3 Si0 2.291162 1_565
Co3 Ta1 2.569752 1_554
Co3 Ta5 2.569758 1_455
Co3 Ta2 2.569764 1_555
Co4 Si0 2.291162 1_665
Co4 Ta0 2.569752 1_565
Co4 Ta2 2.569758 1_655
Co4 Ta5 2.569764 1_555
Co5 Si0 2.291162 1_656
Co5 Ta4 2.569758 1_655
Co5 Ta3 2.569758 1_555
Co5 Ta0 2.569758 1_556
Co6 Si0 2.291162 1_655
Co6 Ta0 2.569758 1_555
Co6 Ta5 2.569758 1_545
Co6 Ta3 2.569758 1_554
Co7 Si0 2.291162 1_566
Co7 Ta1 2.569758 1_555
Co7 Ta4 2.569758 1_565
Co7 Ta2 2.569758 1_556
