# generated using pymatgen
data_Zr6GePN2
_symmetry_space_group_name_H-M   'P 1'
_cell_length_a   5.81537276
_cell_length_b   5.81537451
_cell_length_c   8.52957979
_cell_angle_alpha   90.00000000
_cell_angle_beta   90.00000000
_cell_angle_gamma   145.16669301
_symmetry_Int_Tables_number   1
_chemical_formula_structural   Zr6GePN2
_chemical_formula_sum   'Zr6 Ge1 P1 N2'
_cell_volume   164.76467298
_cell_formula_units_Z   1
loop_
 _symmetry_equiv_pos_site_id
 _symmetry_equiv_pos_as_xyz
  1  'x, y, z'
loop_
 _atom_site_type_symbol
 _atom_site_label
 _atom_site_symmetry_multiplicity
 _atom_site_fract_x
 _atom_site_fract_y
 _atom_site_fract_z
 _atom_site_occupancy
  Zr  Zr0  1  0.94257761  0.05742239  0.75000000  1
  Zr  Zr1  1  0.06563117  0.93436883  0.25000000  1
  Zr  Zr2  1  0.63054769  0.36945231  0.55010184  1
  Zr  Zr3  1  0.36688449  0.63311551  0.44008638  1
  Zr  Zr4  1  0.36688449  0.63311551  0.05991362  1
  Zr  Zr5  1  0.63054769  0.36945231  0.94989816  1
  Ge  Ge0  1  0.25351385  0.74648615  0.75000000  1
  P  P0  1  0.74518227  0.25481773  0.25000000  1
  N  N0  1  0.99911487  0.00088513  0.49774830  1
  N  N1  1  0.99911487  0.00088513  0.00225170  1
loop_
_geom_bond_atom_site_label_1
_geom_bond_atom_site_label_2
_geom_bond_distance
_geom_bond_site_symmetry_2
Ge0 Zr0 2.726175 1_565
Ge0 Zr0 2.726177 1_455
Ge0 Zr5 2.792708 1_455
Ge0 Zr2 2.792708 1_455
Ge0 Zr5 2.792709 1_565
Ge0 Zr2 2.792709 1_565
Ge0 Zr4 2.927565 1_556
Ge0 Zr3 2.927565 1_555
P0 Zr1 2.645787 1_545
P0 Zr1 2.645788 1_655
P0 Zr3 2.735461 1_655
P0 Zr4 2.735461 1_655
P0 Zr3 2.735462 1_545
P0 Zr4 2.735462 1_545
P0 Zr2 2.858439 1_555
P0 Zr5 2.858439 1_554
N0 Zr1 2.238405 1_645
N0 Zr0 2.241215 1_555
N0 Zr2 2.314456 1_655
N0 Zr2 2.314458 1_545
N0 Zr3 2.329183 1_545
N0 Zr3 2.329184 1_655
N1 Zr1 2.238405 1_645
N1 Zr0 2.241215 1_554
N1 Zr5 2.314456 1_654
N1 Zr5 2.314458 1_544
N1 Zr4 2.329183 1_545
N1 Zr4 2.329184 1_655
