# generated using pymatgen
data_ZrV5(SiOs)6
_symmetry_space_group_name_H-M   'P 1'
_cell_length_a   7.32976663
_cell_length_b   7.34254254
_cell_length_c   7.32976638
_cell_angle_alpha   128.17820519
_cell_angle_beta   122.90246614
_cell_angle_gamma   80.67032608
_symmetry_Int_Tables_number   1
_chemical_formula_structural   ZrV5(SiOs)6
_chemical_formula_sum   'Zr1 V5 Si6 Os6'
_cell_volume   251.18484573
_cell_formula_units_Z   1
loop_
 _symmetry_equiv_pos_site_id
 _symmetry_equiv_pos_as_xyz
  1  'x, y, z'
loop_
 _atom_site_type_symbol
 _atom_site_label
 _atom_site_symmetry_multiplicity
 _atom_site_fract_x
 _atom_site_fract_y
 _atom_site_fract_z
 _atom_site_occupancy
  Zr  Zr0  1  0.75545423  0.58356007  0.32810584  1
  V  V0  1  0.45398060  0.39526312  0.44128152  1
  V  V1  1  0.55863667  0.03021311  0.97157545  1
  V  V2  1  0.03023114  0.98401528  0.45378415  1
  V  V3  1  0.96548698  0.44417586  0.97868888  1
  V  V4  1  0.24131480  0.58807076  0.84675597  1
  Si  Si0  1  0.21065770  0.93179663  0.22113893  1
  Si  Si1  1  0.77713212  0.05925282  0.78211970  1
  Si  Si2  1  0.19398034  0.67434228  0.52631711  1
  Si  Si3  1  0.83991999  0.33221972  0.51158188  1
  Si  Si4  1  0.64802417  0.67434228  0.98036094  1
  Si  Si5  1  0.32063885  0.33221972  0.99229973  1
  Os  Os0  1  0.04016344  0.25834392  0.29511543  1
  Os  Os1  1  0.46322849  0.25834392  0.71818049  1
  Os  Os2  1  0.41550733  0.74926536  0.42020164  1
  Os  Os3  1  0.58996375  0.00665537  0.34004169  1
  Os  Os4  1  0.82906272  0.74926536  0.83375803  1
  Os  Os5  1  0.16661369  0.00665537  0.91669262  1
loop_
_geom_bond_atom_site_label_1
_geom_bond_atom_site_label_2
_geom_bond_distance
_geom_bond_site_symmetry_2
V1 Zr0 3.177577 1_556
V2 Zr0 3.179099 1_455
V3 Zr0 3.241811 1_556
Si0 V4 2.423801 1_554
Si0 V2 2.506227 1_555
Si1 V3 2.457640 1_555
Si1 V1 2.726108 1_555
Si1 Zr0 2.921584 1_545
Si2 V0 2.581619 1_555
Si2 V2 2.609530 1_555
Si2 V1 2.620737 1_565
Si2 V4 2.630763 1_555
Si2 V3 2.645974 1_454
Si2 Zr0 2.703852 1_455
Si3 V4 2.540617 1_655
Si3 V3 2.566637 1_555
Si3 V1 2.569207 1_554
Si3 V0 2.601697 1_555
Si3 V2 2.609360 1_645
Si3 Zr0 2.718600 1_555
Si4 V0 2.581619 1_555
Si4 V2 2.609535 1_656
Si4 V1 2.620737 1_565
Si4 V4 2.630758 1_555
Si4 V3 2.645979 1_555
Si4 Zr0 2.703857 1_556
Si5 V4 2.540616 1_555
Si5 V3 2.566644 1_455
Si5 V1 2.569198 1_555
Si5 V0 2.601694 1_556
Si5 V2 2.609361 1_545
Si5 Zr0 2.718595 1_556
Os0 Si0 2.400436 1_545
Os0 Si2 2.472782 1_555
Os0 Si3 2.484731 1_455
Os0 Si1 2.497079 1_454
Os0 V4 2.638806 1_555
Os0 V0 2.735951 1_555
Os0 Os5 2.805139 1_554
Os0 Zr0 2.886911 1_455
Os0 Os4 2.892437 1_444
Os0 V2 2.907003 1_545
Os0 Os1 2.963946 1_555
Os0 V1 2.966427 1_454
Os0 V3 3.135533 1_454
Os1 Si0 2.400436 1_545
Os1 Si4 2.472782 1_555
Os1 Si5 2.484725 1_555
Os1 Si1 2.497074 1_555
Os1 V4 2.638806 1_555
Os1 V0 2.735955 1_555
Os1 Os3 2.805145 1_555
Os1 Zr0 2.886912 1_556
Os1 Os2 2.892436 1_545
Os1 V2 2.907003 1_545
Os1 V1 2.966422 1_555
Os1 V3 3.135533 1_555
Os2 Si0 2.358923 1_555
Os2 Si2 2.394750 1_555
Os2 Si1 2.469071 1_565
Os2 Si5 2.479024 1_554
Os2 V0 2.659159 1_555
Os2 V1 2.734659 1_565
Os2 Zr0 2.823800 1_555
Os2 V3 2.864979 1_454
Os2 Os3 2.919690 1_565
Os3 Si3 2.419422 1_555
Os3 Si4 2.452585 1_544
Os3 Si0 2.462145 1_545
Os3 Si1 2.515188 1_555
Os3 V0 2.636232 1_555
Os3 V1 2.695868 1_554
Os3 V4 2.796509 1_544
Os3 V2 2.865496 1_645
Os3 Os5 2.965939 1_554
Os3 Zr0 3.112471 1_545
Os3 V3 3.176104 1_555
Os4 Si0 2.358928 1_656
Os4 Si4 2.394744 1_555
Os4 Si1 2.469075 1_565
Os4 Si3 2.479025 1_555
Os4 V0 2.659158 1_555
Os4 V1 2.734657 1_565
Os4 Zr0 2.823803 1_555
Os4 V3 2.864979 1_555
Os4 Os5 2.919691 1_665
Os5 Si5 2.419430 1_555
Os5 Si2 2.452589 1_545
Os5 Si0 2.462138 1_546
Os5 Si1 2.515193 1_455
Os5 V0 2.636226 1_556
Os5 V1 2.695867 1_555
Os5 V4 2.796506 1_545
Os5 V2 2.865503 1_545
Os5 Zr0 3.112473 1_445
Os5 V3 3.176106 1_455
