# generated using pymatgen
data_Sr6Sn8BiSb
_symmetry_space_group_name_H-M   'P 1'
_cell_length_a   9.03470324
_cell_length_b   9.03470330
_cell_length_c   9.03470421
_cell_angle_alpha   120.34155944
_cell_angle_beta   120.34155747
_cell_angle_gamma   89.40941599
_symmetry_Int_Tables_number   1
_chemical_formula_structural   Sr6Sn8BiSb
_chemical_formula_sum   'Sr6 Sn8 Bi1 Sb1'
_cell_volume   518.74484600
_cell_formula_units_Z   1
loop_
 _symmetry_equiv_pos_site_id
 _symmetry_equiv_pos_as_xyz
  1  'x, y, z'
loop_
 _atom_site_type_symbol
 _atom_site_label
 _atom_site_symmetry_multiplicity
 _atom_site_fract_x
 _atom_site_fract_y
 _atom_site_fract_z
 _atom_site_occupancy
  Sr  Sr0  1  0.24741249  0.24741249  0.00000000  1
  Sr  Sr1  1  0.75258751  0.75258751  0.00000000  1
  Sr  Sr2  1  0.16091635  0.66786488  0.82878223  1
  Sr  Sr3  1  0.83908365  0.33213512  0.17121777  1
  Sr  Sr4  1  0.66786488  0.83908365  0.50694853  1
  Sr  Sr5  1  0.33213512  0.16091635  0.49305147  1
  Sn  Sn0  1  0.83520640  0.33712314  0.78739954  1
  Sn  Sn1  1  0.16479360  0.66287686  0.21260046  1
  Sn  Sn2  1  0.54972260  0.04780686  0.21260046  1
  Sn  Sn3  1  0.33712314  0.54972260  0.50191574  1
  Sn  Sn4  1  0.95219314  0.16479360  0.50191574  1
  Sn  Sn5  1  0.45027740  0.95219314  0.78739954  1
  Sn  Sn6  1  0.66287686  0.45027740  0.49808426  1
  Sn  Sn7  1  0.04780686  0.83520640  0.49808426  1
  Bi  Bi0  1  0.50000000  0.50000000  0.00000000  1
  Sb  Sb0  1  0.00000000  0.00000000  0.00000000  1
loop_
_geom_bond_atom_site_label_1
_geom_bond_atom_site_label_2
_geom_bond_distance
_geom_bond_site_symmetry_2
Sn0 Sn6 2.976053 1_555
Sn0 Sn4 2.976060 1_555
Sn0 Sn1 3.080139 1_656
Sn0 Sr3 3.473214 1_556
Sn0 Sr1 3.527417 1_556
Sn0 Sr0 3.535434 1_656
Sn0 Sr4 3.701883 1_545
Sn0 Sr5 3.731591 1_555
Sn0 Sr2 3.958444 1_655
Sn1 Sn3 2.976053 1_555
Sn1 Sn7 2.976060 1_555
Sn1 Sr2 3.473214 1_554
Sn1 Sr0 3.527417 1_555
Sn1 Sr1 3.535434 1_455
Sn1 Sr5 3.701883 1_565
Sn1 Sr4 3.731591 1_555
Sn1 Sr3 3.958444 1_455
Sn2 Sn4 2.976059 1_555
Sn2 Sn6 2.976060 1_555
Sn2 Sn5 3.080146 1_544
Sn2 Sr2 3.473218 1_544
Sn2 Sr1 3.527424 1_545
Sn2 Sr0 3.535430 1_555
Sn2 Sr5 3.701875 1_555
Sn2 Sr4 3.731590 1_545
Sn2 Sr3 3.958463 1_555
Sn3 Sn5 2.976060 1_555
Sn3 Sn6 3.080128 1_555
Sn3 Sr5 3.473218 1_555
Sn3 Sr1 3.527420 1_556
Sn3 Sr0 3.535426 1_555
Sn3 Sr3 3.701881 1_455
Sn3 Sr2 3.731606 1_555
Sn3 Sr4 3.958449 1_555
Sn4 Sn7 3.080145 1_645
Sn4 Sr5 3.473218 1_655
Sn4 Sr0 3.527424 1_656
Sn4 Sr1 3.535430 1_545
Sn4 Sr3 3.701883 1_555
Sn4 Sr2 3.731589 1_655
Sn4 Sr4 3.958456 1_545
Sn5 Sn7 2.976059 1_555
Sn5 Sr3 3.473218 1_566
Sn5 Sr0 3.527424 1_566
Sn5 Sr1 3.535430 1_556
Sn5 Sr4 3.701875 1_555
Sn5 Sr5 3.731590 1_565
Sn5 Sr2 3.958463 1_555
Sn6 Sr4 3.473218 1_555
Sn6 Sr0 3.527420 1_555
Sn6 Sr1 3.535426 1_556
Sn6 Sr2 3.701881 1_655
Sn6 Sr3 3.731606 1_555
Sn6 Sr5 3.958449 1_555
Sn7 Sr4 3.473218 1_455
Sn7 Sr1 3.527424 1_455
Sn7 Sr0 3.535430 1_566
Sn7 Sr2 3.701883 1_555
Sn7 Sr3 3.731589 1_455
Sn7 Sr5 3.958456 1_565
Bi0 Sr1 3.243901 1_555
Bi0 Sr0 3.243901 1_555
Bi0 Sr2 3.400706 1_554
Bi0 Sr3 3.400706 1_555
Bi0 Sr4 3.400708 1_555
Bi0 Sr5 3.400708 1_554
Sb0 Sr0 3.177439 1_555
Sb0 Sr1 3.177439 1_445
Sb0 Sr3 3.317147 1_455
Sb0 Sr2 3.317147 1_544
Sb0 Sr5 3.317150 1_555
Sb0 Sr4 3.317150 1_444
