# generated using pymatgen
data_Ca7ZrCr2N9
_symmetry_space_group_name_H-M   'P 1'
_cell_length_a   10.01577627
_cell_length_b   6.10744916
_cell_length_c   9.07176795
_cell_angle_alpha   87.52098658
_cell_angle_beta   90.00000000
_cell_angle_gamma   90.00000000
_symmetry_Int_Tables_number   1
_chemical_formula_structural   Ca7ZrCr2N9
_chemical_formula_sum   'Ca14 Zr2 Cr4 N18'
_cell_volume   554.40836669
_cell_formula_units_Z   2
loop_
 _symmetry_equiv_pos_site_id
 _symmetry_equiv_pos_as_xyz
  1  'x, y, z'
loop_
 _atom_site_type_symbol
 _atom_site_label
 _atom_site_symmetry_multiplicity
 _atom_site_fract_x
 _atom_site_fract_y
 _atom_site_fract_z
 _atom_site_occupancy
  Ca  Ca0  1  0.93396125  0.43023994  0.16738534  1
  Ca  Ca1  1  0.08117518  0.24578660  0.49666149  1
  Ca  Ca2  1  0.25000000  0.08678403  0.79830639  1
  Ca  Ca3  1  0.43396125  0.56976006  0.83261466  1
  Ca  Ca4  1  0.58117518  0.75421340  0.50333851  1
  Ca  Ca5  1  0.57798591  0.06445792  0.82585593  1
  Ca  Ca6  1  0.92201409  0.06445792  0.82585593  1
  Ca  Ca7  1  0.42201409  0.93554208  0.17414407  1
  Ca  Ca8  1  0.41882482  0.24578660  0.49666149  1
  Ca  Ca9  1  0.07798591  0.93554208  0.17414407  1
  Ca  Ca10  1  0.91882482  0.75421340  0.50333851  1
  Ca  Ca11  1  0.06603875  0.56976006  0.83261466  1
  Ca  Ca12  1  0.75000000  0.91321597  0.20169361  1
  Ca  Ca13  1  0.56603875  0.43023994  0.16738534  1
  Zr  Zr0  1  0.75000000  0.27368458  0.44281300  1
  Zr  Zr1  1  0.25000000  0.72631542  0.55718700  1
  Cr  Cr0  1  0.25000000  0.32330640  0.06553735  1
  Cr  Cr1  1  0.75000000  0.46471174  0.72955064  1
  Cr  Cr2  1  0.75000000  0.67669360  0.93446265  1
  Cr  Cr3  1  0.25000000  0.53528826  0.27044936  1
  N  N0  1  0.39943028  0.23053206  0.98291967  1
  N  N1  1  0.25000000  0.22985629  0.26459552  1
  N  N2  1  0.90951845  0.10852875  0.33854978  1
  N  N3  1  0.60786807  0.37343038  0.63784208  1
  N  N4  1  0.75000000  0.56371614  0.33111115  1
  N  N5  1  0.25000000  0.62908576  0.07203693  1
  N  N6  1  0.89213193  0.37343038  0.63784208  1
  N  N7  1  0.39213193  0.62656962  0.36215792  1
  N  N8  1  0.75000000  0.37091424  0.92796307  1
  N  N9  1  0.09048155  0.89147125  0.66145022  1
  N  N10  1  0.75000000  0.77014371  0.73540448  1
  N  N11  1  0.10786807  0.62656962  0.36215792  1
  N  N12  1  0.60056972  0.76946794  0.01708033  1
  N  N13  1  0.25000000  0.43628386  0.66888885  1
  N  N14  1  0.40951845  0.89147125  0.66145022  1
  N  N15  1  0.59048155  0.10852875  0.33854978  1
  N  N16  1  0.10056972  0.23053206  0.98291967  1
  N  N17  1  0.89943028  0.76946794  0.01708033  1
loop_
_geom_bond_atom_site_label_1
_geom_bond_atom_site_label_2
_geom_bond_distance
_geom_bond_site_symmetry_2
Ca0 N17 2.454971 1_555
Ca0 N2 2.463262 1_555
Ca0 N4 2.523929 1_555
Ca0 N16 2.692438 1_654
Ca0 N11 2.788730 1_655
Ca0 N8 2.883008 1_554
Ca1 N2 2.412474 1_455
Ca1 N6 2.432997 1_455
Ca1 N9 2.578057 1_545
Ca1 N11 2.592937 1_555
Ca1 N13 2.609822 1_555
Ca1 N1 2.705261 1_555
Ca2 N14 2.375937 1_545
Ca2 N9 2.375937 1_545
Ca2 N13 2.391214 1_555
Ca2 N16 2.437787 1_555
Ca2 N0 2.437787 1_555
Ca3 N0 2.454971 1_555
Ca3 N14 2.463262 1_555
Ca3 N13 2.523929 1_555
Ca3 N12 2.692438 1_556
Ca3 N3 2.788730 1_555
Ca3 N5 2.883008 1_556
Ca4 N14 2.412474 1_555
Ca4 N7 2.432997 1_555
Ca4 N15 2.578057 1_565
Ca4 N3 2.592937 1_555
Ca4 N4 2.609822 1_555
Ca4 N10 2.705261 1_555
Ca5 N12 2.456832 1_546
Ca5 N3 2.506228 1_555
Ca5 N14 2.514763 1_545
Ca5 N0 2.526315 1_555
Ca5 N10 2.645784 1_545
Ca5 N8 2.734842 1_555
Ca6 N17 2.456832 1_546
Ca6 N6 2.506228 1_555
Ca6 N9 2.514763 1_645
Ca6 N16 2.526315 1_655
Ca6 N10 2.645784 1_545
Ca6 N8 2.734842 1_555
Ca7 N0 2.456832 1_564
Ca7 N7 2.506228 1_555
Ca7 N15 2.514763 1_565
Ca7 N12 2.526315 1_555
Ca7 N1 2.645784 1_565
Ca7 N5 2.734842 1_555
Ca8 N15 2.412474 1_555
Ca8 N3 2.432997 1_555
Ca8 N14 2.578057 1_545
Ca8 N7 2.592937 1_555
Ca8 N13 2.609822 1_555
Ca8 N1 2.705261 1_555
Ca9 N16 2.456832 1_564
Ca9 N11 2.506228 1_555
Ca9 N2 2.514763 1_465
Ca9 N17 2.526315 1_455
Ca9 N1 2.645784 1_565
Ca9 N5 2.734842 1_555
Ca10 N9 2.412474 1_655
Ca10 N11 2.432997 1_655
Ca10 N2 2.578057 1_565
Ca10 N6 2.592937 1_555
Ca10 N4 2.609822 1_555
Ca10 N10 2.705261 1_555
Ca11 N16 2.454971 1_555
Ca11 N9 2.463262 1_555
Ca11 N13 2.523929 1_555
Ca11 N17 2.692438 1_456
Ca11 N6 2.788730 1_455
Ca11 N5 2.883008 1_556
Ca12 N2 2.375937 1_565
Ca12 N15 2.375937 1_565
Ca12 N4 2.391214 1_555
Ca12 N12 2.437787 1_555
Ca12 N17 2.437787 1_555
Ca13 N12 2.454971 1_555
Ca13 N15 2.463262 1_555
Ca13 N4 2.523929 1_555
Ca13 N0 2.692438 1_554
Ca13 N7 2.788730 1_555
Ca13 N8 2.883008 1_554
Cr0 N16 1.777502 1_554
Cr0 N0 1.777502 1_554
Cr0 N1 1.870170 1_555
Cr0 N5 1.871010 1_555
Cr1 N6 1.752030 1_555
Cr1 N3 1.752030 1_555
Cr1 N8 1.865154 1_555
Cr1 N10 1.868461 1_555
Cr2 N12 1.777502 1_556
Cr2 N17 1.777502 1_556
Cr2 N10 1.870170 1_555
Cr2 N8 1.871010 1_555
Cr3 N7 1.752030 1_555
Cr3 N11 1.752030 1_555
Cr3 N5 1.865154 1_555
Cr3 N1 1.868461 1_555
N2 Zr0 2.132429 1_555
N3 Zr0 2.370898 1_555
N4 Zr0 2.002313 1_555
N6 Zr0 2.370898 1_555
N7 Zr1 2.370898 1_555
N9 Zr1 2.132429 1_555
N11 Zr1 2.370898 1_555
N13 Zr1 2.002313 1_555
N14 Zr1 2.132429 1_555
N15 Zr0 2.132429 1_555
