# generated using pymatgen
data_Rb12NbTcAs8
_symmetry_space_group_name_H-M   'P 1'
_cell_length_a   10.68395169
_cell_length_b   10.68314041
_cell_length_c   8.52566598
_cell_angle_alpha   89.95155738
_cell_angle_beta   89.97516028
_cell_angle_gamma   119.95198859
_symmetry_Int_Tables_number   1
_chemical_formula_structural   Rb12NbTcAs8
_chemical_formula_sum   'Rb12 Nb1 Tc1 As8'
_cell_volume   843.13930768
_cell_formula_units_Z   1
loop_
 _symmetry_equiv_pos_site_id
 _symmetry_equiv_pos_as_xyz
  1  'x, y, z'
loop_
 _atom_site_type_symbol
 _atom_site_label
 _atom_site_symmetry_multiplicity
 _atom_site_fract_x
 _atom_site_fract_y
 _atom_site_fract_z
 _atom_site_occupancy
  Rb  Rb0  1  0.46525721  0.53469000  0.61067645  1
  Rb  Rb1  1  0.06899208  0.53452094  0.61098878  1
  Rb  Rb2  1  0.52946348  0.47027734  0.10589939  1
  Rb  Rb3  1  0.52916784  0.05846065  0.10642290  1
  Rb  Rb4  1  0.85546797  0.14405943  0.78924987  1
  Rb  Rb5  1  0.29125223  0.14566201  0.79146588  1
  Rb  Rb6  1  0.85518647  0.71088953  0.78758785  1
  Rb  Rb7  1  0.14639975  0.85282672  0.29192835  1
  Rb  Rb8  1  0.70621595  0.85274564  0.29070952  1
  Rb  Rb9  1  0.14793654  0.29602358  0.29444548  1
  Rb  Rb10  1  0.46494848  0.93028554  0.61009681  1
  Rb  Rb11  1  0.94017640  0.46986428  0.10514001  1
  Nb  Nb0  1  0.33307883  0.66681265  0.99984966  1
  Tc  Tc0  1  0.66671582  0.33290780  0.49878982  1
  As  As0  1  0.66759421  0.33353449  0.77308383  1
  As  As1  1  0.33426035  0.66883020  0.29257948  1
  As  As2  1  0.20232434  0.79674822  0.90871948  1
  As  As3  1  0.59351199  0.79673305  0.90824642  1
  As  As4  1  0.20267769  0.40579013  0.91027602  1
  As  As5  1  0.78660376  0.21250545  0.40949200  1
  As  As6  1  0.42628918  0.21305207  0.41047494  1
  As  As7  1  0.78647642  0.57278228  0.40827805  1
loop_
_geom_bond_atom_site_label_1
_geom_bond_atom_site_label_2
_geom_bond_distance
_geom_bond_site_symmetry_2
As0 Tc0 2.338564 1_555
As0 Rb5 3.487184 1_555
As0 Rb4 3.493167 1_555
As0 Rb6 3.495278 1_555
As0 Rb11 3.794175 1_556
As0 Rb2 3.810432 1_556
As0 Rb3 3.813398 1_556
As0 Rb1 3.963153 1_655
As0 Rb0 3.980561 1_555
As0 Rb10 3.984499 1_545
As1 Nb0 2.495811 1_554
As1 Rb7 3.439739 1_555
As1 Rb8 3.443286 1_555
As1 Rb9 3.450844 1_555
As1 Rb10 3.633339 1_555
As1 Rb0 3.656050 1_555
As1 Rb1 3.658749 1_555
As2 Nb0 2.533284 1_555
As2 Rb7 3.427679 1_556
As2 Rb5 3.500394 1_565
As2 Rb6 3.503010 1_455
As2 Rb1 3.514354 1_555
As2 Rb10 3.518606 1_555
As2 Rb11 3.614318 1_456
As2 Rb3 3.621618 1_566
As3 Nb0 2.533450 1_555
As3 Rb8 3.424574 1_556
As3 Rb4 3.500240 1_565
As3 Rb6 3.503506 1_555
As3 Rb0 3.512179 1_555
As3 Rb10 3.512478 1_555
As3 Rb3 3.615475 1_566
As3 Rb2 3.616223 1_556
As4 Nb0 2.534824 1_555
As4 Rb9 3.428085 1_556
As4 Rb5 3.503465 1_555
As4 Rb4 3.506380 1_455
As4 Rb1 3.521468 1_555
As4 Rb0 3.524362 1_555
As4 Rb11 3.606797 1_456
As4 Rb2 3.612624 1_556
As5 Tc0 2.349626 1_555
As5 Rb4 3.477628 1_555
As5 Rb3 3.527478 1_555
As5 Rb11 3.530438 1_555
As5 Rb9 3.635534 1_655
As5 Rb8 3.639487 1_545
As5 Rb10 3.669496 1_545
As5 Rb1 3.679499 1_655
As6 Tc0 2.350258 1_555
As6 Rb5 3.479282 1_555
As6 Rb2 3.531300 1_555
As6 Rb3 3.531685 1_555
As6 Rb9 3.638913 1_555
As6 Rb7 3.645732 1_545
As6 Rb10 3.664744 1_545
As6 Rb0 3.670903 1_555
As7 Tc0 2.349741 1_555
As7 Rb6 3.478831 1_555
As7 Rb11 3.519778 1_555
As7 Rb2 3.520441 1_555
As7 Rb7 3.636699 1_655
As7 Rb8 3.638964 1_555
As7 Rb1 3.674214 1_655
As7 Rb0 3.676985 1_555
