# generated using pymatgen
data_Ba8Cd3Si12Ag
_symmetry_space_group_name_H-M   'P 1'
_cell_length_a   12.67385672
_cell_length_b   11.11179345
_cell_length_c   8.62816905
_cell_angle_alpha   78.77883927
_cell_angle_beta   59.27299149
_cell_angle_gamma   41.89812264
_symmetry_Int_Tables_number   1
_chemical_formula_structural   Ba8Cd3Si12Ag
_chemical_formula_sum   'Ba8 Cd3 Si12 Ag1'
_cell_volume   660.02150375
_cell_formula_units_Z   1
loop_
 _symmetry_equiv_pos_site_id
 _symmetry_equiv_pos_as_xyz
  1  'x, y, z'
loop_
 _atom_site_type_symbol
 _atom_site_label
 _atom_site_symmetry_multiplicity
 _atom_site_fract_x
 _atom_site_fract_y
 _atom_site_fract_z
 _atom_site_occupancy
  Ba  Ba0  1  0.12181543  0.12648166  0.37897881  1
  Ba  Ba1  1  0.87670487  0.87869143  0.11976591  1
  Ba  Ba2  1  0.11989475  0.12465896  0.87652444  1
  Ba  Ba3  1  0.37910093  0.37251898  0.12181748  1
  Ba  Ba4  1  0.62075555  0.62173554  0.37968326  1
  Ba  Ba5  1  0.37959191  0.37773079  0.62104807  1
  Ba  Ba6  1  0.62899568  0.62389805  0.87221751  1
  Ba  Ba7  1  0.87225740  0.87505135  0.62885687  1
  Cd  Cd0  1  0.08239786  0.41715861  0.08293485  1
  Cd  Cd1  1  0.16763606  0.83244285  0.16746467  1
  Cd  Cd2  1  0.41751393  0.08241865  0.41767052  1
  Si  Si0  1  0.33976624  0.65464946  0.81801025  1
  Si  Si1  1  0.17792291  0.82757046  0.65950442  1
  Si  Si2  1  0.81808137  0.18755286  0.33970752  1
  Si  Si3  1  0.65939602  0.33493965  0.17803933  1
  Si  Si4  1  0.91433092  0.59642826  0.42662904  1
  Si  Si5  1  0.06524481  0.42900120  0.59384818  1
  Si  Si6  1  0.42692759  0.06287187  0.91398999  1
  Si  Si7  1  0.90949473  0.59077417  0.90929428  1
  Si  Si8  1  0.66281037  0.33724986  0.66275671  1
  Si  Si9  1  0.34225465  0.65775827  0.34227941  1
  Si  Si10  1  0.59094561  0.90911466  0.59080580  1
  Si  Si11  1  0.59358915  0.91189224  0.06549993  1
  Ag  Ag0  1  0.83257225  0.16740816  0.83267177  1
loop_
_geom_bond_atom_site_label_1
_geom_bond_atom_site_label_2
_geom_bond_distance
_geom_bond_site_symmetry_2
Ba0 Si1 3.536953 1_545
Ba0 Si8 3.565935 1_455
Ba0 Si6 3.567901 1_554
Ba0 Si5 3.567957 1_555
Ba0 Si2 3.570493 1_455
Ba0 Cd1 3.571566 1_545
Ba0 Cd2 3.588773 1_555
Ba0 Cd0 3.591321 1_555
Ba0 Si9 3.620583 1_545
Ba0 Si11 3.675813 1_545
Ba0 Si4 3.693432 1_455
Ba1 Si3 3.511607 1_565
Ba1 Si0 3.546412 1_654
Ba1 Cd1 3.560424 1_655
Ba1 Si1 3.581128 1_654
Ba1 Si4 3.592572 1_555
Ba1 Si11 3.592945 1_555
Ba1 Cd2 3.600884 1_565
Ba1 Cd0 3.617056 1_655
Ba1 Si7 3.635463 1_554
Ba1 Si2 3.637288 1_565
Ba1 Si10 3.663219 1_555
Ba2 Si1 3.511295 1_545
Ba2 Si2 3.546450 1_456
Ba2 Cd1 3.558933 1_546
Ba2 Si3 3.583152 1_456
Ba2 Si5 3.590835 1_555
Ba2 Si6 3.597209 1_555
Ba2 Cd2 3.598539 1_555
Ba2 Cd0 3.612467 1_556
Ba2 Si0 3.635843 1_545
Ba2 Si7 3.640838 1_455
Ba2 Si10 3.664318 1_545
Ba3 Si3 3.535991 1_555
Ba3 Si4 3.564088 1_455
Ba3 Si8 3.566995 1_554
Ba3 Si11 3.567746 1_545
Ba3 Si0 3.571884 1_554
Ba3 Cd1 3.573621 1_555
Ba3 Cd2 3.588246 1_555
Ba3 Cd0 3.598149 1_555
Ba3 Si9 3.621814 1_555
Ba3 Si5 3.677912 1_555
Ba3 Si6 3.688808 1_554
Ba4 Si2 3.384393 1_555
Ba4 Si9 3.425426 1_555
Ba4 Si1 3.428123 1_555
Ba4 Si0 3.457654 1_555
Ba4 Si8 3.472674 1_555
Ba4 Si3 3.519443 1_555
Ba4 Cd2 3.620455 1_565
Ba4 Cd0 3.621094 1_655
Ba4 Si10 3.663705 1_555
Ba4 Si7 3.670680 1_554
Ba4 Si11 3.709713 1_555
Ba4 Si4 3.745020 1_555
Ba5 Si0 3.384915 1_555
Ba5 Si9 3.427776 1_555
Ba5 Si3 3.428932 1_555
Ba5 Si2 3.459840 1_555
Ba5 Si8 3.474127 1_555
Ba5 Si1 3.519654 1_555
Ba5 Cd2 3.620708 1_555
Ba5 Cd0 3.625572 1_556
Ba5 Si10 3.661714 1_545
Ba5 Si7 3.665977 1_455
Ba5 Si5 3.711658 1_555
Ba5 Si6 3.737949 1_555
Ba6 Si6 3.409692 1_565
Ba6 Si5 3.414268 1_655
Ba6 Si7 3.470494 1_555
Ba6 Si10 3.478327 1_555
Ba6 Si11 3.521064 1_556
Ba6 Si4 3.543673 1_555
Ba6 Cd1 3.599168 1_556
Ba6 Si8 3.607214 1_555
Ba6 Si9 3.646118 1_556
Ba6 Si3 3.649726 1_556
Ba6 Si0 3.687502 1_555
Ba7 Si4 3.407070 1_555
Ba7 Si11 3.418404 1_556
Ba7 Si7 3.468233 1_555
Ba7 Si10 3.478695 1_555
Ba7 Si5 3.524270 1_655
Ba7 Si6 3.540750 1_565
Ba7 Cd1 3.598930 1_655
Ba7 Si8 3.606239 1_565
Ba7 Si9 3.645196 1_655
Ba7 Si1 3.647700 1_655
Ba7 Si2 3.685518 1_565
Cd0 Si7 2.589418 1_454
Cd0 Si4 2.612804 1_455
Cd0 Si6 2.613112 1_554
Cd1 Si9 2.611000 1_555
Cd1 Si0 2.633235 1_554
Cd1 Si2 2.633647 1_465
Cd2 Si10 2.589583 1_545
Cd2 Si11 2.611540 1_545
Cd2 Si5 2.611891 1_555
Si0 Si8 2.394584 1_555
Si0 Si1 2.397168 1_555
Si1 Si9 2.392502 1_555
Si2 Si8 2.394767 1_555
Si2 Si3 2.397306 1_555
Si3 Si9 2.392742 1_555
Si4 Si5 2.383111 1_655
Si5 Si7 2.380592 1_455
Si10 Si6 2.378967 1_565
Si10 Si4 2.379127 1_555
Si11 Si7 2.380873 1_554
Si11 Si6 2.382835 1_564
Ag0 Si8 2.538099 1_555
Ag0 Si3 2.560363 1_556
Ag0 Si1 2.560797 1_645
Ag0 Ba2 3.520254 1_655
Ag0 Ba1 3.520344 1_546
Ag0 Ba3 3.536987 1_556
Ag0 Ba0 3.537736 1_655
Ag0 Ba7 3.575764 1_545
Ag0 Ba6 3.576878 1_555
