# generated using pymatgen
data_Mn3Nb12Ga9N4
_symmetry_space_group_name_H-M   'P 1'
_cell_length_a   8.27250257
_cell_length_b   8.26475783
_cell_length_c   8.26475777
_cell_angle_alpha   59.99999626
_cell_angle_beta   60.03096071
_cell_angle_gamma   60.03096762
_symmetry_Int_Tables_number   1
_chemical_formula_structural   Mn3Nb12Ga9N4
_chemical_formula_sum   'Mn3 Nb12 Ga9 N4'
_cell_volume   399.74704686
_cell_formula_units_Z   1
loop_
 _symmetry_equiv_pos_site_id
 _symmetry_equiv_pos_as_xyz
  1  'x, y, z'
loop_
 _atom_site_type_symbol
 _atom_site_label
 _atom_site_symmetry_multiplicity
 _atom_site_fract_x
 _atom_site_fract_y
 _atom_site_fract_z
 _atom_site_occupancy
  Mn  Mn0  1  0.62500000  0.12500000  0.62500000  1
  Mn  Mn1  1  0.62500000  0.62500000  0.12500000  1
  Mn  Mn2  1  0.62500000  0.62500000  0.62500000  1
  Nb  Nb0  1  0.81065112  0.80730374  0.19102357  1
  Nb  Nb1  1  0.19145365  0.19656774  0.80598981  1
  Nb  Nb2  1  0.81065112  0.19102357  0.80730374  1
  Nb  Nb3  1  0.19145365  0.80598981  0.19656774  1
  Nb  Nb4  1  0.19145365  0.80598981  0.80598981  1
  Nb  Nb5  1  0.81065112  0.19102357  0.19102357  1
  Nb  Nb6  1  0.43934888  0.44269626  0.05897643  1
  Nb  Nb7  1  0.05854635  0.05343226  0.44401019  1
  Nb  Nb8  1  0.43934888  0.05897643  0.44269626  1
  Nb  Nb9  1  0.05854635  0.44401019  0.05343226  1
  Nb  Nb10  1  0.05854635  0.44401019  0.44401019  1
  Nb  Nb11  1  0.43934888  0.05897643  0.05897643  1
  Ga  Ga0  1  0.12500000  0.62500000  0.62500000  1
  Ga  Ga1  1  0.76652180  0.41115973  0.41115973  1
  Ga  Ga2  1  0.42078438  0.76032999  0.40944331  1
  Ga  Ga3  1  0.42078438  0.40944331  0.76032999  1
  Ga  Ga4  1  0.42078438  0.40944331  0.40944331  1
  Ga  Ga5  1  0.48347820  0.83884027  0.83884027  1
  Ga  Ga6  1  0.82921562  0.48967001  0.84055669  1
  Ga  Ga7  1  0.82921562  0.84055669  0.48967001  1
  Ga  Ga8  1  0.82921562  0.84055669  0.84055669  1
  N  N0  1  0.62500000  0.12500000  0.12500000  1
  N  N1  1  0.12500000  0.62500000  0.12500000  1
  N  N2  1  0.12500000  0.12500000  0.62500000  1
  N  N3  1  0.12500000  0.12500000  0.12500000  1
loop_
_geom_bond_atom_site_label_1
_geom_bond_atom_site_label_2
_geom_bond_distance
_geom_bond_site_symmetry_2
Ga0 Ga8 2.607396 1_455
Ga0 Ga4 2.607396 1_555
Ga0 Ga2 2.607400 1_555
Ga0 Ga6 2.607400 1_455
Ga0 Ga3 2.607400 1_555
Ga0 Ga7 2.607400 1_455
Ga0 Nb9 2.942423 1_556
Ga0 Nb3 2.942423 1_555
Ga0 Nb7 2.942423 1_565
Ga0 Nb1 2.942423 1_555
Ga0 Nb4 2.942430 1_555
Ga0 Nb10 2.942430 1_555
Ga1 Mn2 2.570364 1_555
Ga1 Mn0 2.570370 1_555
Ga1 Mn1 2.570371 1_555
Ga1 Nb10 2.714341 1_655
Ga1 Nb9 2.714350 1_655
Ga1 Nb7 2.714350 1_655
Ga1 Ga3 2.874356 1_555
Ga1 Ga4 2.874356 1_555
Ga1 Ga2 2.874356 1_555
Ga1 Nb5 2.955757 1_555
Ga1 Nb0 2.955764 1_555
Ga1 Nb2 2.955764 1_555
Ga2 Mn2 2.530870 1_555
Ga2 Mn1 2.530877 1_555
Ga2 Nb8 2.700100 1_565
Ga2 Nb11 2.700114 1_565
Ga2 Nb7 2.741156 1_565
Ga2 Ga3 2.899993 1_555
Ga2 Ga4 2.899993 1_555
Ga2 Nb0 2.923128 1_555
Ga2 Nb4 2.965193 1_555
Ga2 Nb3 2.965193 1_555
Ga3 Mn2 2.530870 1_555
Ga3 Mn0 2.530877 1_555
Ga3 Nb6 2.700100 1_556
Ga3 Nb11 2.700114 1_556
Ga3 Nb9 2.741155 1_556
Ga3 Ga4 2.899993 1_555
Ga3 Nb2 2.923128 1_555
Ga3 Nb1 2.965193 1_555
Ga3 Nb4 2.965193 1_555
Ga4 Mn1 2.530872 1_555
Ga4 Mn0 2.530872 1_555
Ga4 Nb6 2.700124 1_555
Ga4 Nb8 2.700124 1_555
Ga4 Nb10 2.741162 1_555
Ga4 Nb5 2.923125 1_555
Ga4 Nb1 2.965193 1_555
Ga4 Nb3 2.965193 1_555
Ga5 Mn2 2.570364 1_555
Ga5 Mn0 2.570370 1_565
Ga5 Mn1 2.570371 1_556
Ga5 Nb4 2.714341 1_555
Ga5 Nb3 2.714350 1_556
Ga5 Nb1 2.714350 1_565
Ga5 Ga7 2.874356 1_555
Ga5 Ga8 2.874356 1_555
Ga5 Ga6 2.874356 1_555
Ga5 Nb11 2.955757 1_566
Ga5 Nb6 2.955764 1_556
Ga5 Nb8 2.955764 1_565
Ga6 Mn2 2.530870 1_555
Ga6 Mn1 2.530877 1_556
Ga6 Nb2 2.700100 1_555
Ga6 Nb5 2.700114 1_556
Ga6 Nb1 2.741156 1_655
Ga6 Ga7 2.899993 1_555
Ga6 Ga8 2.899993 1_555
Ga6 Nb6 2.923128 1_556
Ga6 Nb10 2.965193 1_655
Ga6 Nb9 2.965193 1_656
Ga7 Mn2 2.530870 1_555
Ga7 Mn0 2.530877 1_565
Ga7 Nb0 2.700100 1_555
Ga7 Nb5 2.700114 1_565
Ga7 Nb3 2.741155 1_655
Ga7 Ga8 2.899993 1_555
Ga7 Nb8 2.923128 1_565
Ga7 Nb7 2.965193 1_665
Ga7 Nb10 2.965193 1_655
Ga8 Mn1 2.530872 1_556
Ga8 Mn0 2.530872 1_565
Ga8 Nb0 2.700124 1_556
Ga8 Nb2 2.700124 1_565
Ga8 Nb4 2.741162 1_655
Ga8 Nb11 2.923125 1_566
Ga8 Nb7 2.965193 1_665
Ga8 Nb9 2.965193 1_656
N0 Nb8 2.219549 1_555
N0 Nb2 2.219549 1_554
N0 Nb0 2.219549 1_545
N0 Nb6 2.219549 1_555
N0 Nb5 2.219561 1_555
N0 Nb11 2.219561 1_555
N1 Nb6 2.195522 1_555
N1 Nb0 2.195522 1_455
N1 Nb10 2.218277 1_555
N1 Nb4 2.218277 1_554
N1 Nb3 2.218284 1_555
N1 Nb9 2.218284 1_555
N2 Nb8 2.195522 1_555
N2 Nb2 2.195522 1_455
N2 Nb10 2.218277 1_555
N2 Nb4 2.218277 1_545
N2 Nb1 2.218284 1_555
N2 Nb7 2.218284 1_555
N3 Nb11 2.195518 1_555
N3 Nb5 2.195518 1_455
N3 Nb7 2.218276 1_555
N3 Nb1 2.218276 1_554
N3 Nb9 2.218276 1_555
N3 Nb3 2.218276 1_545
