# generated using pymatgen
data_Hf6SnAsC4
_symmetry_space_group_name_H-M   'P 1'
_cell_length_a   3.34876915
_cell_length_b   3.34877037
_cell_length_c   18.68750377
_cell_angle_alpha   90.00000000
_cell_angle_beta   90.00000000
_cell_angle_gamma   119.99999778
_symmetry_Int_Tables_number   1
_chemical_formula_structural   Hf6SnAsC4
_chemical_formula_sum   'Hf6 Sn1 As1 C4'
_cell_volume   181.48992197
_cell_formula_units_Z   1
loop_
 _symmetry_equiv_pos_site_id
 _symmetry_equiv_pos_as_xyz
  1  'x, y, z'
loop_
 _atom_site_type_symbol
 _atom_site_label
 _atom_site_symmetry_multiplicity
 _atom_site_fract_x
 _atom_site_fract_y
 _atom_site_fract_z
 _atom_site_occupancy
  Hf  Hf0  1  0.00000000  0.00000000  0.01199769  1
  Hf  Hf1  1  0.33333300  0.66666700  0.14759893  1
  Hf  Hf2  1  0.33333300  0.66666700  0.35240107  1
  Hf  Hf3  1  0.00000000  0.00000000  0.48800231  1
  Hf  Hf4  1  0.66666700  0.33333300  0.62224484  1
  Hf  Hf5  1  0.66666700  0.33333300  0.87775516  1
  Sn  Sn0  1  0.00000000  0.00000000  0.75000000  1
  As  As0  1  0.00000000  0.00000000  0.25000000  1
  C  C0  1  0.33333300  0.66666700  0.93928243  1
  C  C1  1  0.66666700  0.33333300  0.08546947  1
  C  C2  1  0.66666700  0.33333300  0.41453053  1
  C  C3  1  0.33333300  0.66666700  0.56071757  1
loop_
_geom_bond_atom_site_label_1
_geom_bond_atom_site_label_2
_geom_bond_distance
_geom_bond_site_symmetry_2
Hf4 Sn0 3.072113 1_655
Hf4 Sn0 3.072114 1_555
Hf4 Sn0 3.072115 1_665
Hf5 Sn0 3.072113 1_655
Hf5 Sn0 3.072114 1_555
Hf5 Sn0 3.072115 1_665
As0 Hf2 2.720298 1_545
As0 Hf1 2.720298 1_545
As0 Hf2 2.720300 1_445
As0 Hf1 2.720300 1_445
As0 Hf2 2.720300 1_555
As0 Hf1 2.720300 1_555
C0 Hf5 2.249466 1_455
C0 Hf5 2.249467 1_565
C0 Hf5 2.249471 1_555
C0 Hf0 2.363175 1_566
C0 Hf0 2.363177 1_666
C0 Hf0 2.363178 1_556
C1 Hf1 2.255239 1_655
C1 Hf1 2.255239 1_545
C1 Hf1 2.255244 1_555
C1 Hf0 2.371333 1_655
C1 Hf0 2.371335 1_555
C1 Hf0 2.371335 1_665
C2 Hf2 2.255239 1_655
C2 Hf2 2.255239 1_545
C2 Hf2 2.255244 1_555
C2 Hf3 2.371333 1_655
C2 Hf3 2.371335 1_555
C2 Hf3 2.371335 1_665
C3 Hf4 2.249466 1_455
C3 Hf4 2.249467 1_565
C3 Hf4 2.249471 1_555
C3 Hf3 2.363175 1_565
C3 Hf3 2.363177 1_665
C3 Hf3 2.363178 1_555
