# generated using pymatgen
data_RbGeH3
_symmetry_space_group_name_H-M   'P 1'
_cell_length_a   5.66017116
_cell_length_b   7.21720404
_cell_length_c   9.22082701
_cell_angle_alpha   90.00000000
_cell_angle_beta   90.00000000
_cell_angle_gamma   90.00000000
_symmetry_Int_Tables_number   1
_chemical_formula_structural   RbGeH3
_chemical_formula_sum   'Rb4 Ge4 H12'
_cell_volume   376.67640948
_cell_formula_units_Z   4
loop_
 _symmetry_equiv_pos_site_id
 _symmetry_equiv_pos_as_xyz
  1  'x, y, z'
loop_
 _atom_site_type_symbol
 _atom_site_label
 _atom_site_symmetry_multiplicity
 _atom_site_fract_x
 _atom_site_fract_y
 _atom_site_fract_z
 _atom_site_occupancy
  Rb  Rb0  1  0.25000000  0.34583422  0.68540848  1
  Rb  Rb1  1  0.75000000  0.65416578  0.31459152  1
  Rb  Rb2  1  0.75000000  0.84583422  0.81459152  1
  Rb  Rb3  1  0.25000000  0.15416578  0.18540848  1
  Ge  Ge0  1  0.25000000  0.84997691  0.55094798  1
  Ge  Ge1  1  0.75000000  0.15002309  0.44905202  1
  Ge  Ge2  1  0.75000000  0.34997691  0.94905202  1
  Ge  Ge3  1  0.25000000  0.65002309  0.05094798  1
  H  H0  1  0.95390558  0.30072726  0.42022363  1
  H  H1  1  0.45390558  0.69927274  0.57977637  1
  H  H2  1  0.04609442  0.80072726  0.07977637  1
  H  H3  1  0.54609442  0.19927274  0.92022363  1
  H  H4  1  0.04609442  0.69927274  0.57977637  1
  H  H5  1  0.54609442  0.30072726  0.42022363  1
  H  H6  1  0.95390558  0.19927274  0.92022363  1
  H  H7  1  0.45390558  0.80072726  0.07977637  1
  H  H8  1  0.25000000  0.69274256  0.88103237  1
  H  H9  1  0.75000000  0.30725744  0.11896763  1
  H  H10  1  0.75000000  0.19274256  0.61896763  1
  H  H11  1  0.25000000  0.80725744  0.38103237  1
loop_
_geom_bond_atom_site_label_1
_geom_bond_atom_site_label_2
_geom_bond_distance
_geom_bond_site_symmetry_2
Ge0 H11 1.596810 1_555
Ge0 H4 1.608015 1_555
Ge0 H1 1.608015 1_555
Ge0 Rb0 3.787389 1_565
Ge1 H10 1.596810 1_555
Ge1 H5 1.608015 1_555
Ge1 H0 1.608015 1_555
Ge1 Rb1 3.787389 1_545
Ge2 H9 1.596810 1_556
Ge2 H3 1.608015 1_555
Ge2 H6 1.608015 1_555
Ge2 Rb2 3.787389 1_555
Ge3 H8 1.596810 1_554
Ge3 H2 1.608015 1_555
Ge3 H7 1.608015 1_555
Ge3 Rb3 3.787389 1_555
H0 Rb3 2.935252 1_655
H0 Rb1 2.964375 1_555
H0 Rb0 2.982263 1_655
H1 Rb2 2.935252 1_555
H1 Rb0 2.964375 1_555
H1 Rb1 2.982263 1_555
H2 Rb1 2.935252 1_455
H2 Rb3 2.964375 1_565
H2 Rb2 2.982263 1_454
H3 Rb0 2.935252 1_555
H3 Rb2 2.964375 1_545
H3 Rb3 2.982263 1_556
H4 Rb2 2.935252 1_455
H4 Rb0 2.964375 1_555
H4 Rb1 2.982263 1_455
H5 Rb3 2.935252 1_555
H5 Rb1 2.964375 1_555
H5 Rb0 2.982263 1_555
H6 Rb0 2.935252 1_655
H6 Rb2 2.964375 1_545
H6 Rb3 2.982263 1_656
H7 Rb1 2.935252 1_555
H7 Rb3 2.964375 1_565
H7 Rb2 2.982263 1_554
H8 Rb0 3.085822 1_555
H8 Rb2 3.099274 1_555
H8 Rb2 3.099274 1_455
H9 Rb1 3.085822 1_555
H9 Rb3 3.099274 1_655
H9 Rb3 3.099274 1_555
H10 Rb2 3.085822 1_545
H10 Rb0 3.099274 1_655
H10 Rb0 3.099274 1_555
H11 Rb3 3.085822 1_565
H11 Rb1 3.099274 1_455
H11 Rb1 3.099274 1_555
