# generated using pymatgen
data_K3Rb6InAs4
_symmetry_space_group_name_H-M   'P 1'
_cell_length_a   10.29345454
_cell_length_b   10.29345508
_cell_length_c   10.93472400
_cell_angle_alpha   90.00000000
_cell_angle_beta   90.00000000
_cell_angle_gamma   119.99999518
_symmetry_Int_Tables_number   1
_chemical_formula_structural   K3Rb6InAs4
_chemical_formula_sum   'K6 Rb12 In2 As8'
_cell_volume   1003.36928656
_cell_formula_units_Z   2
loop_
 _symmetry_equiv_pos_site_id
 _symmetry_equiv_pos_as_xyz
  1  'x, y, z'
loop_
 _atom_site_type_symbol
 _atom_site_label
 _atom_site_symmetry_multiplicity
 _atom_site_fract_x
 _atom_site_fract_y
 _atom_site_fract_z
 _atom_site_occupancy
  K  K0  1  0.12035093  0.24070086  0.25000000  1
  K  K1  1  0.87964907  0.12035093  0.75000000  1
  K  K2  1  0.24070086  0.12035093  0.75000000  1
  K  K3  1  0.75929914  0.87964907  0.25000000  1
  K  K4  1  0.12035093  0.87964907  0.25000000  1
  K  K5  1  0.87964907  0.75929914  0.75000000  1
  Rb  Rb0  1  0.20716836  0.41433473  0.54771098  1
  Rb  Rb1  1  0.79283164  0.20716836  0.04771098  1
  Rb  Rb2  1  0.41433473  0.20716836  0.04771098  1
  Rb  Rb3  1  0.58566527  0.79283164  0.54771098  1
  Rb  Rb4  1  0.20716836  0.79283164  0.54771098  1
  Rb  Rb5  1  0.79283164  0.58566527  0.45228902  1
  Rb  Rb6  1  0.79283164  0.20716836  0.45228902  1
  Rb  Rb7  1  0.79283164  0.58566527  0.04771098  1
  Rb  Rb8  1  0.41433473  0.20716836  0.45228902  1
  Rb  Rb9  1  0.58566527  0.79283164  0.95228902  1
  Rb  Rb10  1  0.20716836  0.41433473  0.95228902  1
  Rb  Rb11  1  0.20716836  0.79283164  0.95228902  1
  In  In0  1  0.33333300  0.66666700  0.25000000  1
  In  In1  1  0.66666700  0.33333300  0.75000000  1
  As  As0  1  0.48100982  0.51899018  0.25000000  1
  As  As1  1  0.96201764  0.48100982  0.75000000  1
  As  As2  1  0.51899018  0.03798236  0.75000000  1
  As  As3  1  0.48100982  0.96201764  0.25000000  1
  As  As4  1  0.03798236  0.51899018  0.25000000  1
  As  As5  1  0.51899018  0.48100982  0.75000000  1
  As  As6  1  0.00000000  0.00000000  0.00000000  1
  As  As7  1  0.00000000  0.00000000  0.50000000  1
loop_
_geom_bond_atom_site_label_1
_geom_bond_atom_site_label_2
_geom_bond_distance
_geom_bond_site_symmetry_2
As0 In0 2.632898 1_555
As0 K0 3.369472 1_555
As0 K3 3.369472 1_555
As0 Rb5 3.669237 1_555
As0 Rb7 3.669237 1_555
As0 Rb8 3.669237 1_555
As0 Rb2 3.669237 1_555
As1 In1 2.632872 1_555
As1 K5 3.369465 1_555
As1 K1 3.369475 1_555
As1 Rb11 3.669248 1_655
As1 Rb4 3.669248 1_655
As1 Rb10 3.669269 1_655
As1 Rb0 3.669269 1_655
As2 In1 2.632872 1_555
As2 K2 3.369465 1_555
As2 K1 3.369475 1_555
As2 Rb11 3.669248 1_545
As2 Rb4 3.669248 1_545
As2 Rb9 3.669269 1_545
As2 Rb3 3.669269 1_545
As3 In0 2.632872 1_555
As3 K3 3.369465 1_555
As3 K4 3.369475 1_555
As3 Rb6 3.669248 1_565
As3 Rb1 3.669248 1_565
As3 Rb8 3.669269 1_565
As3 Rb2 3.669269 1_565
As4 In0 2.632872 1_555
As4 K0 3.369465 1_555
As4 K4 3.369475 1_555
As4 Rb6 3.669248 1_455
As4 Rb1 3.669248 1_455
As4 Rb5 3.669269 1_455
As4 Rb7 3.669269 1_455
As5 In1 2.632898 1_555
As5 K5 3.369472 1_555
As5 K2 3.369472 1_555
As5 Rb10 3.669237 1_555
As5 Rb0 3.669237 1_555
As5 Rb9 3.669237 1_555
As5 Rb3 3.669237 1_555
As6 K2 3.475205 1_554
As6 K3 3.475205 1_445
As6 K0 3.475205 1_555
As6 K5 3.475205 1_444
As6 K1 3.475210 1_454
As6 K4 3.475210 1_545
As6 Rb2 3.730206 1_555
As6 Rb9 3.730206 1_444
As6 Rb10 3.730206 1_554
As6 Rb7 3.730206 1_445
As6 Rb1 3.730223 1_455
As6 Rb11 3.730223 1_544
As7 K2 3.475205 1_555
As7 K3 3.475205 1_445
As7 K0 3.475205 1_555
As7 K5 3.475205 1_445
As7 K1 3.475210 1_455
As7 K4 3.475210 1_545
As7 Rb8 3.730206 1_555
As7 Rb3 3.730206 1_445
As7 Rb0 3.730206 1_555
As7 Rb5 3.730206 1_445
As7 Rb6 3.730223 1_455
As7 Rb4 3.730223 1_545
