# generated using pymatgen
data_K2Cd(PS3)2
_symmetry_space_group_name_H-M   'P 1'
_cell_length_a   12.12532499
_cell_length_b   6.37191361
_cell_length_c   8.79472023
_cell_angle_alpha   57.23839748
_cell_angle_beta   90.00000000
_cell_angle_gamma   90.00000000
_symmetry_Int_Tables_number   1
_chemical_formula_structural   K2Cd(PS3)2
_chemical_formula_sum   'K4 Cd2 P4 S12'
_cell_volume   571.40607843
_cell_formula_units_Z   2
loop_
 _symmetry_equiv_pos_site_id
 _symmetry_equiv_pos_as_xyz
  1  'x, y, z'
loop_
 _atom_site_type_symbol
 _atom_site_label
 _atom_site_symmetry_multiplicity
 _atom_site_fract_x
 _atom_site_fract_y
 _atom_site_fract_z
 _atom_site_occupancy
  K  K0  1  0.18447300  0.29638865  0.98344236  1
  K  K1  1  0.68447300  0.70361135  0.51655764  1
  K  K2  1  0.81552700  0.70361135  0.01655764  1
  K  K3  1  0.31552700  0.29638865  0.48344236  1
  Cd  Cd0  1  0.00000000  0.00000000  0.50000000  1
  Cd  Cd1  1  0.50000000  0.00000000  0.00000000  1
  P  P0  1  0.03528213  0.64634821  0.36437691  1
  P  P1  1  0.53528213  0.35365179  0.13562309  1
  P  P2  1  0.96471787  0.35365179  0.63562309  1
  P  P3  1  0.46471787  0.64634821  0.86437691  1
  S  S0  1  0.17163141  0.77817438  0.41694063  1
  S  S1  1  0.67163141  0.22182562  0.08305937  1
  S  S2  1  0.82836859  0.22182562  0.58305937  1
  S  S3  1  0.32836859  0.77817438  0.91694063  1
  S  S4  1  0.91933286  0.91670324  0.24575715  1
  S  S5  1  0.41933286  0.08329676  0.25424285  1
  S  S6  1  0.08066714  0.08329676  0.75424285  1
  S  S7  1  0.58066714  0.91670324  0.74575715  1
  S  S8  1  0.43752939  0.46223664  0.73967872  1
  S  S9  1  0.93752939  0.53776336  0.76032128  1
  S  S10  1  0.56247061  0.53776336  0.26032128  1
  S  S11  1  0.06247061  0.46223664  0.23967872  1
loop_
_geom_bond_atom_site_label_1
_geom_bond_atom_site_label_2
_geom_bond_distance
_geom_bond_site_symmetry_2
K0 S6 3.233163 1_555
K0 S3 3.296570 1_555
K0 S11 3.310733 1_556
K0 S0 3.440614 1_546
K0 S9 3.451862 1_455
K0 S5 3.482175 1_556
K0 S8 3.560314 1_555
K1 S7 3.233163 1_555
K1 S2 3.296570 1_555
K1 S10 3.310733 1_555
K1 S1 3.440614 1_565
K1 S8 3.451862 1_555
K1 S4 3.482175 1_555
K1 S9 3.560314 1_555
K2 S4 3.233163 1_555
K2 S1 3.296570 1_555
K2 S9 3.310733 1_554
K2 S2 3.440614 1_564
K2 S11 3.451862 1_655
K2 S7 3.482175 1_554
K2 S10 3.560314 1_555
K3 S5 3.233163 1_555
K3 S0 3.296570 1_555
K3 S8 3.310733 1_555
K3 S3 3.440614 1_545
K3 S10 3.451862 1_555
K3 S6 3.482175 1_555
K3 S11 3.560314 1_555
Cd0 S11 2.681837 1_555
Cd0 S9 2.681837 1_445
Cd0 S6 2.742722 1_555
Cd0 S4 2.742722 1_445
Cd0 S0 2.824863 1_545
Cd0 S2 2.824863 1_455
Cd1 S8 2.681837 1_554
Cd1 S10 2.681837 1_545
Cd1 S5 2.742722 1_555
Cd1 S7 2.742722 1_544
Cd1 S1 2.824863 1_555
Cd1 S3 2.824863 1_544
P0 S0 2.018137 1_555
P0 S11 2.019927 1_555
P0 S4 2.021765 1_455
P1 S1 2.018137 1_555
P1 S10 2.019927 1_555
P1 S5 2.021765 1_555
P2 S2 2.018137 1_555
P2 S9 2.019927 1_555
P2 S6 2.021765 1_655
P3 S3 2.018137 1_555
P3 S8 2.019927 1_555
P3 S7 2.021765 1_555
