# generated using pymatgen
data_LuZr3(BRu)16
_symmetry_space_group_name_H-M   'P 1'
_cell_length_a   9.09387456
_cell_length_b   7.38049663
_cell_length_c   7.38049663
_cell_angle_alpha   89.93517223
_cell_angle_beta   113.96973891
_cell_angle_gamma   113.96973764
_symmetry_Int_Tables_number   1
_chemical_formula_structural   LuZr3(BRu)16
_chemical_formula_sum   'Lu1 Zr3 B16 Ru16'
_cell_volume   405.55585123
_cell_formula_units_Z   1
loop_
 _symmetry_equiv_pos_site_id
 _symmetry_equiv_pos_as_xyz
  1  'x, y, z'
loop_
 _atom_site_type_symbol
 _atom_site_label
 _atom_site_symmetry_multiplicity
 _atom_site_fract_x
 _atom_site_fract_y
 _atom_site_fract_z
 _atom_site_occupancy
  Lu  Lu0  1  0.25000000  0.12500000  0.87500000  1
  Zr  Zr0  1  0.75000000  0.87500000  0.12500000  1
  Zr  Zr1  1  0.25000000  0.62500000  0.37500000  1
  Zr  Zr2  1  0.75000000  0.37500000  0.62500000  1
  B  B0  1  0.91396347  0.28781676  0.06851522  1
  B  B1  1  0.41267548  0.56802876  0.12405664  1
  B  B2  1  0.08732352  0.21138116  0.15535228  1
  B  B3  1  0.58624220  0.15447334  0.21159657  1
  B  B4  1  0.41301832  0.06677389  0.28829226  1
  B  B5  1  0.91396347  0.62614671  0.34544826  1
  B  B6  1  0.58603653  0.65455174  0.37385329  1
  B  B7  1  0.08732352  0.87594136  0.43197124  1
  B  B8  1  0.91375780  0.12535637  0.56823114  1
  B  B9  1  0.41301832  0.34624543  0.62472606  1
  B  B10  1  0.08698068  0.37527194  0.65375357  1
  B  B11  1  0.58603653  0.93148478  0.71218224  1
  B  B12  1  0.41267548  0.84464772  0.78861784  1
  B  B13  1  0.91375780  0.78840143  0.84552666  1
  B  B14  1  0.58624220  0.43176886  0.87464363  1
  B  B15  1  0.08698068  0.71170774  0.93322611  1
  Ru  Ru0  1  0.87247312  0.54983849  0.03255586  1
  Ru  Ru1  1  0.37348077  0.83665895  0.05180946  1
  Ru  Ru2  1  0.12652023  0.94819054  0.16334205  1
  Ru  Ru3  1  0.62891173  0.46830022  0.17870020  1
  Ru  Ru4  1  0.37432550  0.33981989  0.32382763  1
  Ru  Ru5  1  0.87247312  0.32263463  0.33991725  1
  Ru  Ru6  1  0.62752688  0.96744414  0.45016151  1
  Ru  Ru7  1  0.12652023  0.17832969  0.46317918  1
  Ru  Ru8  1  0.87108827  0.82129980  0.53169978  1
  Ru  Ru9  1  0.37432550  0.03450561  0.55049686  1
  Ru  Ru10  1  0.12567550  0.67617237  0.66018111  1
  Ru  Ru11  1  0.62752688  0.66008275  0.67736537  1
  Ru  Ru12  1  0.37348077  0.53682182  0.82167031  1
  Ru  Ru13  1  0.87108827  0.04978846  0.83938849  1
  Ru  Ru14  1  0.62891173  0.16061151  0.95021154  1
  Ru  Ru15  1  0.12567550  0.44950314  0.96549539  1
loop_
_geom_bond_atom_site_label_1
_geom_bond_atom_site_label_2
_geom_bond_distance
_geom_bond_site_symmetry_2
Lu0 Ru7 2.870079 1_555
Lu0 Ru1 2.870083 1_546
Lu0 Ru2 2.870085 1_546
Lu0 Ru12 2.870086 1_555
Lu0 Ru14 3.156096 1_555
Lu0 Ru8 3.156096 1_445
Lu0 Ru13 3.156096 1_455
Lu0 Ru3 3.156096 1_556
Lu0 Ru10 3.205862 1_545
Lu0 Ru4 3.205862 1_556
Lu0 Ru15 3.205864 1_555
Lu0 Ru9 3.205869 1_555
B0 B2 1.765006 1_655
B0 Ru0 2.112559 1_555
B0 Ru14 2.132810 1_554
B0 Ru5 2.216924 1_555
B0 Ru13 2.238844 1_554
B0 Ru15 2.242649 1_654
B0 Zr0 2.913932 1_545
B0 Zr1 2.977495 1_655
B0 Zr2 3.187680 1_554
B1 B6 1.765014 1_555
B1 Ru12 2.109262 1_554
B1 Ru15 2.147592 1_554
B1 Ru1 2.181634 1_555
B1 Ru4 2.251059 1_555
B1 Ru3 2.258808 1_555
B1 Zr1 2.920419 1_555
B1 Zr0 2.979747 1_555
B1 Lu0 3.183186 1_554
B2 Ru2 2.109264 1_545
B2 Ru4 2.147607 1_555
B2 Ru7 2.181643 1_555
B2 Ru15 2.251055 1_554
B2 Ru13 2.258801 1_454
B2 Zr1 2.920421 1_555
B2 Zr0 2.979744 1_445
B2 Lu0 3.183187 1_554
B3 B4 1.765244 1_555
B3 Ru14 2.113761 1_554
B3 Ru5 2.141840 1_555
B3 Ru3 2.217953 1_555
B3 Ru6 2.241652 1_545
B3 Ru1 2.258569 1_545
B3 Zr2 2.919964 1_555
B3 Lu0 2.976143 1_554
B3 Zr0 3.186345 1_545
B4 Ru9 2.099920 1_555
B4 Ru2 2.145075 1_545
B4 Ru4 2.214950 1_555
B4 Ru6 2.244195 1_545
B4 Ru1 2.249592 1_545
B4 Lu0 2.920145 1_554
B4 Zr2 2.983714 1_555
B4 Zr1 3.174419 1_545
B5 B7 1.765001 1_655
B5 Ru5 2.112559 1_555
B5 Ru3 2.132810 1_555
B5 Ru0 2.216924 1_555
B5 Ru8 2.238844 1_555
B5 Ru10 2.242654 1_655
B5 Zr0 2.913932 1_555
B5 Zr1 2.977495 1_655
B5 Zr2 3.187680 1_555
B6 Ru11 2.112559 1_555
B6 Ru8 2.132810 1_555
B6 Ru6 2.216924 1_555
B6 Ru3 2.238844 1_555
B6 Ru4 2.242645 1_555
B6 Zr0 2.913932 1_555
B6 Zr1 2.977495 1_555
B6 Zr2 3.187680 1_555
B7 Ru7 2.109271 1_565
B7 Ru9 2.147608 1_565
B7 Ru2 2.181637 1_555
B7 Ru10 2.251055 1_555
B7 Ru8 2.258802 1_455
B7 Zr1 2.920414 1_555
B7 Zr0 2.979747 1_455
B7 Lu0 3.183190 1_565
B8 Ru8 2.113775 1_545
B8 Ru6 2.141840 1_545
B8 Ru13 2.217956 1_555
B8 Ru5 2.241642 1_555
B8 Ru7 2.258573 1_655
B8 Zr2 2.919951 1_555
B8 Lu0 2.976149 1_655
B8 Zr0 3.186351 1_545
B9 Ru4 2.099927 1_555
B9 Ru7 2.145075 1_555
B9 Ru9 2.214959 1_555
B9 Ru11 2.244190 1_555
B9 Ru12 2.249581 1_555
B9 Lu0 2.920148 1_555
B9 Zr2 2.983717 1_555
B9 Zr1 3.174413 1_555
B10 B8 1.765221 1_455
B10 Ru10 2.099936 1_555
B10 Ru12 2.145091 1_555
B10 Ru15 2.214970 1_555
B10 Ru5 2.244185 1_455
B10 Ru7 2.249573 1_555
B10 Lu0 2.920143 1_555
B10 Zr2 2.983716 1_455
B10 Zr1 3.174417 1_555
B11 B12 1.765014 1_555
B11 Ru6 2.112551 1_555
B11 Ru13 2.132810 1_565
B11 Ru11 2.216923 1_555
B11 Ru14 2.238849 1_565
B11 Ru9 2.242645 1_565
B11 Zr0 2.913938 1_556
B11 Zr1 2.977492 1_555
B11 Zr2 3.187677 1_565
B12 Ru1 2.109261 1_556
B12 Ru10 2.147594 1_555
B12 Ru12 2.181641 1_555
B12 Ru9 2.251053 1_565
B12 Ru14 2.258805 1_565
B12 Zr1 2.920416 1_555
B12 Zr0 2.979753 1_556
B12 Lu0 3.183182 1_565
B13 B15 1.765226 1_655
B13 Ru13 2.113775 1_565
B13 Ru11 2.141840 1_555
B13 Ru8 2.217956 1_555
B13 Ru0 2.241642 1_556
B13 Ru2 2.258578 1_656
B13 Zr2 2.919952 1_555
B13 Lu0 2.976149 1_665
B13 Zr0 3.186351 1_556
B14 B9 1.765234 1_555
B14 Ru3 2.113775 1_556
B14 Ru0 2.141840 1_556
B14 Ru14 2.217956 1_555
B14 Ru11 2.241642 1_555
B14 Ru12 2.258570 1_555
B14 Zr2 2.919952 1_555
B14 Lu0 2.976149 1_555
B14 Zr0 3.186351 1_556
B15 Ru15 2.099929 1_555
B15 Ru1 2.145091 1_556
B15 Ru10 2.214954 1_555
B15 Ru0 2.244188 1_456
B15 Ru2 2.249589 1_556
B15 Lu0 2.920146 1_565
B15 Zr2 2.983711 1_455
B15 Zr1 3.174420 1_556
Ru0 Zr2 2.841209 1_554
Ru0 Zr1 3.144494 1_655
Ru0 Zr0 3.202826 1_555
Ru1 Zr0 3.131463 1_555
Ru1 Zr1 3.183323 1_555
Ru2 Zr0 3.131469 1_455
Ru2 Zr1 3.183316 1_555
Ru3 Zr0 2.836520 1_555
Ru3 Zr2 3.193820 1_555
Ru4 Zr1 2.851875 1_555
Ru4 Zr2 3.128920 1_555
Ru5 Zr2 2.841209 1_555
Ru5 Zr1 3.144494 1_655
Ru5 Zr0 3.202826 1_545
Ru6 Zr2 2.841209 1_565
Ru6 Zr1 3.144494 1_555
Ru6 Zr0 3.202826 1_555
Ru7 Zr0 3.131472 1_445
Ru7 Zr1 3.183318 1_555
Ru8 Zr0 2.836520 1_555
Ru8 Zr2 3.193820 1_555
Ru9 Zr1 2.851872 1_545
Ru9 Zr2 3.128918 1_555
Ru10 Zr1 2.851874 1_555
Ru10 Zr2 3.128925 1_455
Ru11 Zr2 2.841209 1_555
Ru11 Zr1 3.144494 1_555
Ru11 Zr0 3.202826 1_556
Ru12 Zr0 3.131465 1_556
Ru12 Zr1 3.183316 1_555
Ru13 Zr0 2.836520 1_546
Ru13 Zr2 3.193820 1_555
Ru14 Zr0 2.836520 1_546
Ru14 Zr2 3.193820 1_555
Ru15 Zr1 2.851868 1_556
Ru15 Zr2 3.128927 1_455
