# generated using pymatgen
data_K5BaVP4
_symmetry_space_group_name_H-M   'P 1'
_cell_length_a   10.05661053
_cell_length_b   10.05660998
_cell_length_c   7.91763341
_cell_angle_alpha   89.32492281
_cell_angle_beta   89.32492450
_cell_angle_gamma   120.44818373
_symmetry_Int_Tables_number   1
_chemical_formula_structural   K5BaVP4
_chemical_formula_sum   'K10 Ba2 V2 P8'
_cell_volume   690.12517490
_cell_formula_units_Z   2
loop_
 _symmetry_equiv_pos_site_id
 _symmetry_equiv_pos_as_xyz
  1  'x, y, z'
loop_
 _atom_site_type_symbol
 _atom_site_label
 _atom_site_symmetry_multiplicity
 _atom_site_fract_x
 _atom_site_fract_y
 _atom_site_fract_z
 _atom_site_occupancy
  K  K0  1  0.46792318  0.52428530  0.50332612  1
  K  K1  1  0.05762029  0.52593478  0.50082635  1
  K  K2  1  0.52428530  0.46792318  0.00332612  1
  K  K3  1  0.52593478  0.05762029  0.00082635  1
  K  K4  1  0.86614461  0.14304374  0.67662378  1
  K  K5  1  0.29449288  0.15460656  0.70385392  1
  K  K6  1  0.85420853  0.71432799  0.66298540  1
  K  K7  1  0.14304374  0.86614461  0.17662378  1
  K  K8  1  0.71432799  0.85420853  0.16298540  1
  K  K9  1  0.15460656  0.29449288  0.20385392  1
  Ba  Ba0  1  0.46534816  0.93393513  0.49507100  1
  Ba  Ba1  1  0.93393513  0.46534816  0.99507100  1
  V  V0  1  0.66830457  0.33351569  0.39297248  1
  V  V1  1  0.33351569  0.66830457  0.89297248  1
  P  P0  1  0.67641369  0.33243786  0.68229699  1
  P  P1  1  0.33243786  0.67641369  0.18229699  1
  P  P2  1  0.79101131  0.20438731  0.29529245  1
  P  P3  1  0.41432932  0.20223185  0.31325619  1
  P  P4  1  0.79382152  0.58167375  0.28778433  1
  P  P5  1  0.20438731  0.79101131  0.79529245  1
  P  P6  1  0.58167375  0.79382152  0.78778433  1
  P  P7  1  0.20223185  0.41432932  0.81325619  1
loop_
_geom_bond_atom_site_label_1
_geom_bond_atom_site_label_2
_geom_bond_distance
_geom_bond_site_symmetry_2
K0 P6 3.284888 1_555
K0 P7 3.342274 1_555
K0 P3 3.377809 1_555
K0 P4 3.451807 1_555
K0 P1 3.572174 1_555
K1 P5 3.310643 1_555
K1 P7 3.341798 1_555
K1 P2 3.425374 1_455
K1 P4 3.433338 1_455
K1 P1 3.434488 1_555
K1 P0 3.576507 1_455
K2 P4 3.284889 1_555
K2 P3 3.342274 1_555
K2 P7 3.377809 1_554
K2 P6 3.451807 1_554
K2 P0 3.572174 1_554
K3 P2 3.310643 1_555
K3 P3 3.341798 1_555
K3 P5 3.425374 1_544
K3 P6 3.433338 1_544
K3 P0 3.434488 1_554
K3 P1 3.576507 1_545
K4 P2 3.248015 1_555
K4 P7 3.293499 1_655
K4 P0 3.309642 1_555
K4 P6 3.313280 1_545
K5 P3 3.246271 1_555
K5 P7 3.305138 1_555
K5 P0 3.315878 1_555
K5 P5 3.358496 1_545
K6 P4 3.207549 1_555
K6 P0 3.315111 1_555
K6 P6 3.361965 1_555
K6 P5 3.383388 1_655
K7 P5 3.248015 1_554
K7 P3 3.293499 1_565
K7 P1 3.309642 1_555
K7 P4 3.313280 1_455
K8 P6 3.207549 1_554
K8 P1 3.315111 1_555
K8 P4 3.361965 1_555
K8 P2 3.383388 1_565
K9 P7 3.246271 1_554
K9 P3 3.305139 1_555
K9 P1 3.315878 1_555
K9 P2 3.358496 1_455
Ba0 P6 3.222244 1_555
Ba0 P5 3.248543 1_555
Ba0 P3 3.308251 1_565
Ba0 P1 3.368538 1_555
Ba0 P2 3.372546 1_565
Ba1 P4 3.222245 1_556
Ba1 P2 3.248543 1_556
Ba1 P7 3.308251 1_655
Ba1 P0 3.368538 1_555
Ba1 P5 3.372546 1_655
P0 V0 2.293270 1_555
P1 V1 2.293270 1_554
P2 V0 2.330793 1_555
P3 V0 2.303250 1_555
P4 V0 2.290987 1_555
P5 V1 2.330793 1_555
P6 V1 2.290987 1_555
P7 V1 2.303250 1_555
