# generated using pymatgen
data_Sr5CdSi9(Pb3O11)3
_symmetry_space_group_name_H-M   'P 1'
_cell_length_a   9.90655300
_cell_length_b   9.90655228
_cell_length_c   10.43671898
_cell_angle_alpha   90.00000000
_cell_angle_beta   90.00000000
_cell_angle_gamma   119.99999694
_symmetry_Int_Tables_number   1
_chemical_formula_structural   Sr5CdSi9(Pb3O11)3
_chemical_formula_sum   'Sr5 Cd1 Si9 Pb9 O33'
_cell_volume   887.03292042
_cell_formula_units_Z   1
loop_
 _symmetry_equiv_pos_site_id
 _symmetry_equiv_pos_as_xyz
  1  'x, y, z'
loop_
 _atom_site_type_symbol
 _atom_site_label
 _atom_site_symmetry_multiplicity
 _atom_site_fract_x
 _atom_site_fract_y
 _atom_site_fract_z
 _atom_site_occupancy
  Sr  Sr0  1  0.00000000  0.00000000  0.16741985  1
  Sr  Sr1  1  0.33333300  0.66666700  0.17368574  1
  Sr  Sr2  1  0.00000000  0.00000000  0.83258015  1
  Sr  Sr3  1  0.33333300  0.66666700  0.82631426  1
  Sr  Sr4  1  0.00000000  0.00000000  0.50000000  1
  Cd  Cd0  1  0.33333300  0.66666700  0.50000000  1
  Si  Si0  1  0.27015723  0.95409371  0.35390135  1
  Si  Si1  1  0.04590629  0.31606352  0.35390135  1
  Si  Si2  1  0.64783242  0.93577941  0.00000000  1
  Si  Si3  1  0.68393648  0.72984277  0.64609865  1
  Si  Si4  1  0.28794899  0.35216758  0.00000000  1
  Si  Si5  1  0.27015723  0.95409371  0.64609865  1
  Si  Si6  1  0.06422059  0.71205101  0.00000000  1
  Si  Si7  1  0.04590629  0.31606352  0.64609865  1
  Si  Si8  1  0.68393648  0.72984277  0.35390135  1
  Pb  Pb0  1  0.93265286  0.59248230  0.67975622  1
  Pb  Pb1  1  0.40751770  0.34017056  0.32024378  1
  Pb  Pb2  1  0.66567586  0.58935507  0.00000000  1
  Pb  Pb3  1  0.92367921  0.33432414  0.00000000  1
  Pb  Pb4  1  0.65982944  0.06734714  0.67975622  1
  Pb  Pb5  1  0.41064493  0.07632079  0.00000000  1
  Pb  Pb6  1  0.93265286  0.59248230  0.32024378  1
  Pb  Pb7  1  0.40751770  0.34017056  0.67975622  1
  Pb  Pb8  1  0.65982944  0.06734714  0.32024378  1
  O  O0  1  0.18855266  0.16526397  0.00000000  1
  O  O1  1  0.29645674  0.03756495  0.50000000  1
  O  O2  1  0.96243505  0.25889079  0.50000000  1
  O  O3  1  0.40597187  0.42454937  0.12355179  1
  O  O4  1  0.14131983  0.22078550  0.33621817  1
  O  O5  1  0.34410353  0.09190391  0.75319784  1
  O  O6  1  0.15662605  0.50125917  0.65023259  1
  O  O7  1  0.01857650  0.59402813  0.12355179  1
  O  O8  1  0.34463312  0.84337395  0.34976741  1
  O  O9  1  0.15662605  0.50125917  0.34976741  1
  O  O10  1  0.77921450  0.92053332  0.33621817  1
  O  O11  1  0.34463312  0.84337395  0.65023259  1
  O  O12  1  0.90809609  0.25219962  0.75319784  1
  O  O13  1  0.34410353  0.09190391  0.24680216  1
  O  O14  1  0.97671131  0.81144734  0.00000000  1
  O  O15  1  0.74780038  0.65589647  0.75319784  1
  O  O16  1  0.74780038  0.65589647  0.24680216  1
  O  O17  1  0.74110921  0.70354326  0.50000000  1
  O  O18  1  0.56269080  0.74456874  0.00000000  1
  O  O19  1  0.14131983  0.22078550  0.66378183  1
  O  O20  1  0.57545063  0.98142350  0.87644821  1
  O  O21  1  0.07946668  0.85868017  0.33621817  1
  O  O22  1  0.90809609  0.25219962  0.24680216  1
  O  O23  1  0.49874083  0.65536688  0.65023259  1
  O  O24  1  0.07946668  0.85868017  0.66378183  1
  O  O25  1  0.57545063  0.98142350  0.12355179  1
  O  O26  1  0.25543126  0.81812105  0.00000000  1
  O  O27  1  0.18187895  0.43730920  0.00000000  1
  O  O28  1  0.49874083  0.65536688  0.34976741  1
  O  O29  1  0.77921450  0.92053332  0.66378183  1
  O  O30  1  0.83473603  0.02328869  0.00000000  1
  O  O31  1  0.01857650  0.59402813  0.87644821  1
  O  O32  1  0.40597187  0.42454937  0.87644821  1
loop_
_geom_bond_atom_site_label_1
_geom_bond_atom_site_label_2
_geom_bond_distance
_geom_bond_site_symmetry_2
Cd0 O11 2.310722 1_555
Cd0 O8 2.310722 1_555
Cd0 O6 2.310725 1_555
Cd0 O9 2.310725 1_555
Cd0 O23 2.310729 1_555
Cd0 O28 2.310729 1_555
O0 Si4 1.604588 1_555
O0 Sr0 2.482834 1_555
O0 Sr2 2.482834 1_554
O0 Pb5 2.748769 1_555
O1 Si5 1.691511 1_545
O1 Si0 1.691511 1_545
O1 Sr4 2.769610 1_555
O2 Si7 1.691512 1_655
O2 Si1 1.691512 1_655
O2 Sr4 2.769600 1_655
O3 Si4 1.644859 1_555
O3 Pb1 2.219422 1_555
O3 Pb2 2.597502 1_555
O3 Sr1 2.875873 1_555
O4 Si1 1.646382 1_555
O4 Pb1 2.293902 1_555
O4 Sr4 2.569764 1_555
O4 Sr0 2.604883 1_555
O5 Si5 1.627811 1_545
O5 Pb7 2.342234 1_555
O5 Pb5 2.682332 1_556
O6 Si7 1.599546 1_555
O6 Sr3 2.501645 1_555
O6 Pb0 2.799975 1_455
O7 Si6 1.644857 1_555
O7 Pb6 2.219419 1_455
O7 Pb3 2.597503 1_455
O7 Sr1 2.875873 1_555
O8 Si0 1.599546 1_555
O8 Sr1 2.501641 1_555
O8 Pb8 2.799975 1_565
O9 Si1 1.599546 1_555
O9 Sr1 2.501645 1_555
O9 Pb6 2.799975 1_455
O10 Si8 1.646373 1_555
O10 Pb8 2.293911 1_565
O10 Sr4 2.569763 1_665
O10 Sr0 2.604882 1_665
O11 Si5 1.599546 1_555
O11 Sr3 2.501641 1_555
O11 Pb4 2.799975 1_565
O12 Si7 1.627811 1_655
O12 Pb4 2.342234 1_555
O12 Pb3 2.682332 1_556
O13 Si0 1.627811 1_545
O13 Pb1 2.342234 1_555
O13 Pb5 2.682332 1_555
O14 Si6 1.604605 1_655
O14 Sr0 2.482834 1_665
O14 Sr2 2.482834 1_664
O14 Pb2 2.748769 1_555
O15 Si3 1.627811 1_555
O15 Pb0 2.342234 1_555
O15 Pb2 2.682332 1_556
O16 Si8 1.627811 1_555
O16 Pb6 2.342234 1_555
O16 Pb2 2.682332 1_555
O17 Si3 1.691515 1_555
O17 Si8 1.691515 1_555
O17 Sr4 2.769606 1_665
O18 Si2 1.643730 1_555
O18 Pb2 2.230227 1_555
O18 Sr1 2.700118 1_555
O18 Sr3 2.700118 1_554
O19 Si7 1.646382 1_555
O19 Pb7 2.293902 1_555
O19 Sr4 2.569764 1_555
O19 Sr2 2.604883 1_555
O20 Si2 1.644874 1_556
O20 Pb4 2.219420 1_565
O20 Pb5 2.597495 1_566
O20 Sr3 2.875873 1_555
O21 Si0 1.646373 1_555
O21 Pb6 2.293903 1_455
O21 Sr4 2.569770 1_565
O21 Sr0 2.604889 1_565
O22 Si1 1.627811 1_655
O22 Pb8 2.342234 1_555
O22 Pb3 2.682332 1_555
O23 Si3 1.599546 1_555
O23 Sr3 2.501648 1_555
O23 Pb7 2.799975 1_555
O24 Si5 1.646373 1_555
O24 Pb0 2.293903 1_455
O24 Sr4 2.569770 1_565
O24 Sr2 2.604889 1_565
O25 Si2 1.644874 1_555
O25 Pb8 2.219420 1_565
O25 Pb5 2.597495 1_565
O25 Sr1 2.875873 1_555
O26 Si6 1.643731 1_555
O26 Pb5 2.230235 1_565
O26 Sr1 2.700104 1_555
O26 Sr3 2.700104 1_554
O27 Si4 1.643739 1_555
O27 Pb3 2.230236 1_455
O27 Sr1 2.700115 1_555
O27 Sr3 2.700115 1_554
O28 Si8 1.599546 1_555
O28 Sr1 2.501648 1_555
O28 Pb1 2.799975 1_555
O29 Si3 1.646373 1_555
O29 Pb4 2.293911 1_565
O29 Sr4 2.569763 1_665
O29 Sr2 2.604882 1_665
O30 Si2 1.604587 1_545
O30 Sr0 2.482834 1_655
O30 Sr2 2.482834 1_654
O30 Pb3 2.748769 1_555
O31 Si6 1.644857 1_556
O31 Pb0 2.219419 1_455
O31 Pb3 2.597503 1_456
O31 Sr3 2.875873 1_555
O32 Si4 1.644859 1_556
O32 Pb7 2.219422 1_555
O32 Pb2 2.597502 1_556
O32 Sr3 2.875873 1_555
