# generated using pymatgen
data_Hf16Ni4Mo3Os
_symmetry_space_group_name_H-M   'P 1'
_cell_length_a   8.62986129
_cell_length_b   8.62986170
_cell_length_c   8.62986307
_cell_angle_alpha   60.02550401
_cell_angle_beta   60.02549228
_cell_angle_gamma   60.02550125
_symmetry_Int_Tables_number   1
_chemical_formula_structural   Hf16Ni4Mo3Os
_chemical_formula_sum   'Hf16 Ni4 Mo3 Os1'
_cell_volume   454.72363043
_cell_formula_units_Z   1
loop_
 _symmetry_equiv_pos_site_id
 _symmetry_equiv_pos_as_xyz
  1  'x, y, z'
loop_
 _atom_site_type_symbol
 _atom_site_label
 _atom_site_symmetry_multiplicity
 _atom_site_fract_x
 _atom_site_fract_y
 _atom_site_fract_z
 _atom_site_occupancy
  Hf  Hf0  1  0.69446133  0.10206027  0.10206027  1
  Hf  Hf1  1  0.10206027  0.69446133  0.10206027  1
  Hf  Hf2  1  0.10206027  0.10206027  0.69446133  1
  Hf  Hf3  1  0.10233421  0.10233421  0.10233421  1
  Hf  Hf4  1  0.31464339  0.31464339  0.68488554  1
  Hf  Hf5  1  0.68512742  0.68512742  0.31477365  1
  Hf  Hf6  1  0.31464339  0.68488554  0.31464339  1
  Hf  Hf7  1  0.68512742  0.31477365  0.68512742  1
  Hf  Hf8  1  0.68488554  0.31464339  0.31464339  1
  Hf  Hf9  1  0.31477365  0.68512742  0.68512742  1
  Hf  Hf10  1  0.95213201  0.95213201  0.54748430  1
  Hf  Hf11  1  0.54624606  0.54624606  0.95376067  1
  Hf  Hf12  1  0.95213201  0.54748430  0.95213201  1
  Hf  Hf13  1  0.54624606  0.95376067  0.54624606  1
  Hf  Hf14  1  0.54748430  0.95213201  0.95213201  1
  Hf  Hf15  1  0.95376067  0.54624606  0.54624606  1
  Ni  Ni0  1  0.32595716  0.89101959  0.89101959  1
  Ni  Ni1  1  0.89101959  0.32595716  0.89101959  1
  Ni  Ni2  1  0.89101959  0.89101959  0.32595716  1
  Ni  Ni3  1  0.89116772  0.89116772  0.89116772  1
  Mo  Mo0  1  0.00298093  0.33253675  0.33253675  1
  Mo  Mo1  1  0.33253675  0.00298093  0.33253675  1
  Mo  Mo2  1  0.33253675  0.33253675  0.00298093  1
  Os  Os0  1  0.33465848  0.33465848  0.33465848  1
loop_
_geom_bond_atom_site_label_1
_geom_bond_atom_site_label_2
_geom_bond_distance
_geom_bond_site_symmetry_2
Hf0 Ni1 2.568935 1_554
Hf0 Ni2 2.568936 1_545
Hf0 Ni3 2.577170 1_544
Hf0 Mo1 3.033841 1_555
Hf0 Mo2 3.033841 1_555
Hf0 Os0 3.044668 1_555
Hf1 Ni0 2.568935 1_554
Hf1 Ni2 2.568935 1_455
Hf1 Ni3 2.577170 1_454
Hf1 Mo2 3.033841 1_555
Hf1 Mo0 3.033841 1_555
Hf1 Os0 3.044669 1_555
Hf2 Ni1 2.568935 1_455
Hf2 Ni0 2.568936 1_545
Hf2 Ni3 2.577170 1_445
Hf2 Mo1 3.033841 1_555
Hf2 Mo0 3.033842 1_555
Hf2 Os0 3.044669 1_555
Hf3 Ni2 2.581723 1_445
Hf3 Ni0 2.581723 1_544
Hf3 Ni1 2.581724 1_454
Hf3 Mo2 3.027868 1_555
Hf3 Mo0 3.027869 1_555
Hf3 Mo1 3.027869 1_555
Hf4 Os0 2.860271 1_555
Hf4 Mo2 2.907633 1_556
Hf5 Mo1 2.901793 1_565
Hf5 Mo0 2.901793 1_655
Hf6 Os0 2.860271 1_555
Hf6 Mo1 2.907633 1_565
Hf7 Mo2 2.901793 1_556
Hf7 Mo0 2.901793 1_655
Hf8 Os0 2.860271 1_555
Hf8 Mo0 2.907633 1_655
Hf9 Mo2 2.901793 1_556
Hf9 Mo1 2.901793 1_565
Hf10 Ni2 2.550279 1_555
Hf10 Ni3 2.551184 1_555
Hf10 Mo1 2.991945 1_665
Hf10 Mo0 2.991945 1_665
Hf11 Ni1 2.554744 1_555
Hf11 Ni0 2.554744 1_555
Hf11 Os0 2.968150 1_556
Hf11 Mo2 2.969237 1_556
Hf12 Ni1 2.550278 1_555
Hf12 Ni3 2.551184 1_555
Hf12 Mo2 2.991945 1_656
Hf12 Mo0 2.991946 1_656
Hf13 Ni2 2.554744 1_555
Hf13 Ni0 2.554744 1_555
Hf13 Os0 2.968150 1_565
Hf13 Mo1 2.969237 1_565
Hf14 Ni0 2.550278 1_555
Hf14 Ni3 2.551184 1_555
Hf14 Mo2 2.991945 1_566
Hf14 Mo1 2.991945 1_566
Hf15 Ni2 2.554744 1_555
Hf15 Ni1 2.554744 1_555
Hf15 Os0 2.968149 1_655
Hf15 Mo0 2.969237 1_655
Mo0 Mo2 2.845117 1_555
Mo0 Mo1 2.845117 1_555
Mo0 Os0 2.880744 1_555
Mo1 Mo2 2.845118 1_555
Mo1 Os0 2.880744 1_555
Mo2 Os0 2.880744 1_555
