# generated using pymatgen
data_Y2SiPdI2
_symmetry_space_group_name_H-M   'P 1'
_cell_length_a   4.24207996
_cell_length_b   4.24208054
_cell_length_c   11.49998327
_cell_angle_alpha   90.00000000
_cell_angle_beta   90.00000000
_cell_angle_gamma   120.00000318
_symmetry_Int_Tables_number   1
_chemical_formula_structural   Y2SiPdI2
_chemical_formula_sum   'Y2 Si1 Pd1 I2'
_cell_volume   179.21963428
_cell_formula_units_Z   1
loop_
 _symmetry_equiv_pos_site_id
 _symmetry_equiv_pos_as_xyz
  1  'x, y, z'
loop_
 _atom_site_type_symbol
 _atom_site_label
 _atom_site_symmetry_multiplicity
 _atom_site_fract_x
 _atom_site_fract_y
 _atom_site_fract_z
 _atom_site_occupancy
  Y  Y0  1  0.00000000  0.00000000  0.84461400  1
  Y  Y1  1  0.00000000  0.00000000  0.15776422  1
  Si  Si0  1  0.66666700  0.33333300  0.00907275  1
  Pd  Pd0  1  0.33333300  0.66666700  0.99157519  1
  I  I0  1  0.33333300  0.66666700  0.33302075  1
  I  I1  1  0.66666700  0.33333300  0.66395309  1
loop_
_geom_bond_atom_site_label_1
_geom_bond_atom_site_label_2
_geom_bond_distance
_geom_bond_site_symmetry_2
Si0 Y1 2.987027 1_655
Si0 Y1 2.987030 1_555
Si0 Y1 2.987030 1_665
Si0 Y0 3.094401 1_654
Si0 Y0 3.094403 1_554
Si0 Y0 3.094404 1_664
Pd0 Si0 2.457416 1_456
Pd0 Si0 2.457416 1_566
Pd0 Si0 2.457423 1_556
Pd0 Y0 2.975681 1_565
Pd0 Y0 2.975684 1_665
Pd0 Y0 2.975684 1_555
Pd0 Y1 3.106602 1_566
Pd0 Y1 3.106605 1_666
Pd0 Y1 3.106605 1_556
I0 Y1 3.171818 1_565
I0 Y1 3.171821 1_665
I0 Y1 3.171821 1_555
I1 Y0 3.211668 1_655
I1 Y0 3.211671 1_555
I1 Y0 3.211671 1_665
