# generated using pymatgen
data_ScTa(PRh)2
_symmetry_space_group_name_H-M   'P 1'
_cell_length_a   3.74926101
_cell_length_b   6.34516271
_cell_length_c   7.30051164
_cell_angle_alpha   90.00000000
_cell_angle_beta   90.00000000
_cell_angle_gamma   90.00000000
_symmetry_Int_Tables_number   1
_chemical_formula_structural   ScTa(PRh)2
_chemical_formula_sum   'Sc2 Ta2 P4 Rh4'
_cell_volume   173.67677133
_cell_formula_units_Z   2
loop_
 _symmetry_equiv_pos_site_id
 _symmetry_equiv_pos_as_xyz
  1  'x, y, z'
loop_
 _atom_site_type_symbol
 _atom_site_label
 _atom_site_symmetry_multiplicity
 _atom_site_fract_x
 _atom_site_fract_y
 _atom_site_fract_z
 _atom_site_occupancy
  Sc  Sc0  1  0.25000000  0.02974726  0.82180956  1
  Sc  Sc1  1  0.25000000  0.52974726  0.67819044  1
  Ta  Ta0  1  0.75000000  0.97055093  0.17939630  1
  Ta  Ta1  1  0.75000000  0.47055093  0.32060370  1
  P  P0  1  0.25000000  0.75894731  0.37228237  1
  P  P1  1  0.25000000  0.25894731  0.12771763  1
  P  P2  1  0.75000000  0.24427778  0.61756302  1
  P  P3  1  0.75000000  0.74427778  0.88243698  1
  Rh  Rh0  1  0.25000000  0.14351140  0.43485844  1
  Rh  Rh1  1  0.25000000  0.64351140  0.06514156  1
  Rh  Rh2  1  0.75000000  0.85296532  0.56125951  1
  Rh  Rh3  1  0.75000000  0.35296532  0.93874049  1
loop_
_geom_bond_atom_site_label_1
_geom_bond_atom_site_label_2
_geom_bond_distance
_geom_bond_site_symmetry_2
P0 Rh1 2.358885 1_555
P0 Rh2 2.402811 1_455
P0 Rh2 2.402811 1_555
P0 Rh0 2.482518 1_565
P0 Ta1 2.646733 1_455
P0 Ta1 2.646733 1_555
P0 Sc1 2.665068 1_555
P0 Ta0 2.701834 1_455
P0 Ta0 2.701834 1_555
P1 Rh0 2.358885 1_555
P1 Rh3 2.402811 1_554
P1 Rh3 2.402811 1_454
P1 Rh1 2.482518 1_555
P1 Ta0 2.646733 1_545
P1 Ta0 2.646733 1_445
P1 Sc0 2.665068 1_554
P1 Ta1 2.701834 1_455
P1 Ta1 2.701834 1_555
P2 Rh0 2.387921 1_555
P2 Rh0 2.387921 1_655
P2 Rh3 2.444075 1_555
P2 Rh2 2.516735 1_545
P2 Ta1 2.600265 1_555
P2 Sc1 2.644075 1_655
P2 Sc1 2.644075 1_555
P2 Sc0 2.755101 1_655
P2 Sc0 2.755101 1_555
P3 Rh1 2.387921 1_556
P3 Rh1 2.387921 1_656
P3 Rh2 2.444075 1_555
P3 Rh3 2.516735 1_555
P3 Ta0 2.600265 1_556
P3 Sc0 2.644075 1_665
P3 Sc0 2.644075 1_565
P3 Sc1 2.755101 1_555
P3 Sc1 2.755101 1_655
Rh0 Rh2 2.786486 1_445
Rh0 Rh2 2.786486 1_545
Rh0 Ta0 2.863024 1_445
Rh0 Ta0 2.863024 1_545
Rh0 Sc0 2.915710 1_555
Rh0 Ta1 2.918238 1_455
Rh0 Ta1 2.918238 1_555
Rh0 Sc1 3.026854 1_555
Rh1 Rh3 2.786486 1_554
Rh1 Rh3 2.786486 1_454
Rh1 Ta1 2.863024 1_555
Rh1 Ta1 2.863024 1_455
Rh1 Sc1 2.915710 1_554
Rh1 Ta0 2.918238 1_555
Rh1 Ta0 2.918238 1_455
Rh1 Sc0 3.026854 1_564
Rh2 Ta0 2.885910 1_555
Rh2 Sc0 2.896661 1_665
Rh2 Sc0 2.896661 1_565
Rh2 Sc1 2.906723 1_655
Rh2 Sc1 2.906723 1_555
Rh2 Ta1 2.995755 1_555
Rh3 Ta1 2.885910 1_556
Rh3 Sc1 2.896661 1_655
Rh3 Sc1 2.896661 1_555
Rh3 Sc0 2.906723 1_655
Rh3 Sc0 2.906723 1_555
Rh3 Ta0 2.995755 1_546
