# generated using pymatgen
data_Cs2BeS2
_symmetry_space_group_name_H-M   'P 1'
_cell_length_a   8.34295833
_cell_length_b   8.34295795
_cell_length_c   8.34295795
_cell_angle_alpha   138.16176863
_cell_angle_beta   128.43291341
_cell_angle_gamma   68.49213597
_symmetry_Int_Tables_number   1
_chemical_formula_structural   Cs2BeS2
_chemical_formula_sum   'Cs4 Be2 S4'
_cell_volume   298.20910163
_cell_formula_units_Z   2
loop_
 _symmetry_equiv_pos_site_id
 _symmetry_equiv_pos_as_xyz
  1  'x, y, z'
loop_
 _atom_site_type_symbol
 _atom_site_label
 _atom_site_symmetry_multiplicity
 _atom_site_fract_x
 _atom_site_fract_y
 _atom_site_fract_z
 _atom_site_occupancy
  Cs  Cs0  1  0.47654537  0.14930841  0.32723795  1
  Cs  Cs1  1  0.52345463  0.85069159  0.67276205  1
  Cs  Cs2  1  0.17792954  0.35069159  0.82723795  1
  Cs  Cs3  1  0.82207046  0.64930841  0.17276205  1
  Be  Be0  1  0.00000000  0.75000000  0.75000000  1
  Be  Be1  1  0.00000000  0.25000000  0.25000000  1
  S  S0  1  0.76420816  0.41612989  0.34807827  1
  S  S1  1  0.23579184  0.58387011  0.65192173  1
  S  S2  1  0.06805263  0.91612989  0.15192173  1
  S  S3  1  0.93194737  0.08387011  0.84807827  1
loop_
_geom_bond_atom_site_label_1
_geom_bond_atom_site_label_2
_geom_bond_distance
_geom_bond_site_symmetry_2
Cs0 S1 3.362628 1_555
Cs0 S1 3.362633 1_544
Cs0 S2 3.458785 1_545
Cs0 S3 3.592920 1_454
Cs0 S0 3.683397 1_555
Cs0 S3 3.886476 1_555
Cs1 S0 3.362628 1_555
Cs1 S0 3.362633 1_566
Cs1 S3 3.458785 1_565
Cs1 S2 3.592920 1_656
Cs1 S1 3.683397 1_555
Cs1 S2 3.886476 1_555
Cs2 S2 3.362631 1_556
Cs2 S2 3.362636 1_545
Cs2 S1 3.458800 1_555
Cs2 S0 3.592920 1_455
Cs2 S3 3.683396 1_455
Cs2 S0 3.886476 1_556
Cs3 S3 3.362631 1_554
Cs3 S3 3.362636 1_565
Cs3 S0 3.458800 1_555
Cs3 S1 3.592920 1_655
Cs3 S2 3.683396 1_655
Cs3 S1 3.886476 1_554
Be0 S2 2.184586 1_556
Be0 S0 2.184590 1_455
Be0 S1 2.184590 1_555
Be0 S3 2.184590 1_465
Be1 S3 2.184586 1_454
Be1 S1 2.184590 1_555
Be1 S0 2.184590 1_455
Be1 S2 2.184590 1_545
