# generated using pymatgen
data_Mo5W7Br24
_symmetry_space_group_name_H-M   'P 1'
_cell_length_a   9.79242783
_cell_length_b   9.79242739
_cell_length_c   12.05063027
_cell_angle_alpha   89.94934436
_cell_angle_beta   89.94934515
_cell_angle_gamma   104.83205571
_symmetry_Int_Tables_number   1
_chemical_formula_structural   Mo5W7Br24
_chemical_formula_sum   'Mo5 W7 Br24'
_cell_volume   1117.05079760
_cell_formula_units_Z   1
loop_
 _symmetry_equiv_pos_site_id
 _symmetry_equiv_pos_as_xyz
  1  'x, y, z'
loop_
 _atom_site_type_symbol
 _atom_site_label
 _atom_site_symmetry_multiplicity
 _atom_site_fract_x
 _atom_site_fract_y
 _atom_site_fract_z
 _atom_site_occupancy
  Mo  Mo0  1  0.06949626  0.06949626  0.86075250  1
  Mo  Mo1  1  0.43061284  0.43061284  0.36000752  1
  Mo  Mo2  1  0.56914970  0.56914970  0.63988504  1
  Mo  Mo3  1  0.93073602  0.93073602  0.13965293  1
  Mo  Mo4  1  0.86005272  0.86005272  0.93194309  1
  W  W0  1  0.63890931  0.63890931  0.43229391  1
  W  W1  1  0.36091739  0.36091739  0.56752384  1
  W  W2  1  0.13897040  0.13897040  0.06785091  1
  W  W3  1  0.38068612  0.61913066  0.49986855  1
  W  W4  1  0.11895032  0.88097576  0.00011938  1
  W  W5  1  0.61913066  0.38068612  0.49986855  1
  W  W6  1  0.88097576  0.11895032  0.00011938  1
  Br  Br0  1  0.65283475  0.65283475  0.84702172  1
  Br  Br1  1  0.84600459  0.84600459  0.34770731  1
  Br  Br2  1  0.15409029  0.15409029  0.65258953  1
  Br  Br3  1  0.34576688  0.34576688  0.15173014  1
  Br  Br4  1  0.21568204  0.78412934  0.49957693  1
  Br  Br5  1  0.28417619  0.71626932  0.00031164  1
  Br  Br6  1  0.78412934  0.21568204  0.49957693  1
  Br  Br7  1  0.71626932  0.28417619  0.00031164  1
  Br  Br8  1  0.32888076  0.08977790  0.92934755  1
  Br  Br9  1  0.17100742  0.40997897  0.42896969  1
  Br  Br10  1  0.58961669  0.82874612  0.57078670  1
  Br  Br11  1  0.91103167  0.67199465  0.07102710  1
  Br  Br12  1  0.95272534  0.19121828  0.20747704  1
  Br  Br13  1  0.54697039  0.30793642  0.70712556  1
  Br  Br14  1  0.69168683  0.45321861  0.29236223  1
  Br  Br15  1  0.80934376  0.04832829  0.79354841  1
  Br  Br16  1  0.04832829  0.80934376  0.79354841  1
  Br  Br17  1  0.45321861  0.69168683  0.29236223  1
  Br  Br18  1  0.30793642  0.54697039  0.70712556  1
  Br  Br19  1  0.19121828  0.95272534  0.20747704  1
  Br  Br20  1  0.08977790  0.32888076  0.92934755  1
  Br  Br21  1  0.40997897  0.17100742  0.42896969  1
  Br  Br22  1  0.82874612  0.58961669  0.57078670  1
  Br  Br23  1  0.67199465  0.91103167  0.07102710  1
loop_
_geom_bond_atom_site_label_1
_geom_bond_atom_site_label_2
_geom_bond_distance
_geom_bond_site_symmetry_2
Mo0 W4 2.629972 1_546
Mo0 W6 2.629972 1_456
Mo0 W2 2.631172 1_556
Mo0 Mo4 2.643681 1_445
Mo1 W1 2.634499 1_555
Mo1 W3 2.636979 1_555
Mo1 W5 2.636979 1_555
Mo1 W0 2.637426 1_555
Mo2 W0 2.635595 1_555
Mo2 W1 2.637001 1_555
Mo2 W5 2.637973 1_555
Mo2 W3 2.637973 1_555
Mo3 W6 2.630106 1_565
Mo3 W4 2.630106 1_655
Mo3 W2 2.632426 1_665
Mo3 Mo4 2.642764 1_554
Mo4 W6 2.623436 1_566
Mo4 W4 2.623436 1_656
W0 W5 2.615329 1_555
W0 W3 2.615329 1_555
W1 W3 2.615556 1_555
W1 W5 2.615556 1_555
W2 W4 2.614890 1_545
W2 W6 2.614890 1_455
Br0 Mo4 2.679847 1_555
Br0 Mo2 2.690198 1_555
Br1 W0 2.674216 1_555
Br1 Mo3 2.702416 1_555
Br2 W1 2.673455 1_555
Br2 Mo0 2.703018 1_555
Br3 W2 2.670399 1_555
Br3 Mo1 2.708143 1_555
Br4 W3 2.560860 1_555
Br5 W4 2.560314 1_555
Br6 W5 2.560860 1_555
Br7 W6 2.560314 1_555
Br8 Mo0 2.630606 1_555
Br8 W2 2.632638 1_556
Br8 W4 2.641196 1_546
Br9 Mo1 2.631929 1_555
Br9 W1 2.634103 1_555
Br9 W3 2.644574 1_555
Br10 Mo2 2.632642 1_555
Br10 W0 2.633915 1_555
Br10 W3 2.643044 1_555
Br11 Mo3 2.625736 1_555
Br11 Mo4 2.629891 1_554
Br11 W4 2.631365 1_655
Br12 W2 2.625432 1_655
Br12 Mo3 2.635057 1_545
Br12 W6 2.643876 1_555
Br13 W1 2.628008 1_555
Br13 Mo2 2.637850 1_555
Br13 W5 2.642107 1_555
Br14 W0 2.627176 1_555
Br14 Mo1 2.637365 1_555
Br14 W5 2.645289 1_555
Br15 Mo4 2.625228 1_545
Br15 Mo0 2.631026 1_655
Br15 W6 2.631488 1_556
Br16 Mo4 2.625228 1_455
Br16 Mo0 2.631026 1_565
Br16 W4 2.631488 1_556
Br17 W0 2.627176 1_555
Br17 Mo1 2.637365 1_555
Br17 W3 2.645289 1_555
Br18 W1 2.628008 1_555
Br18 Mo2 2.637850 1_555
Br18 W3 2.642107 1_555
Br19 W2 2.625432 1_565
Br19 Mo3 2.635057 1_455
Br19 W4 2.643876 1_555
Br20 Mo0 2.630606 1_555
Br20 W2 2.632638 1_556
Br20 W6 2.641196 1_456
Br21 Mo1 2.631929 1_555
Br21 W1 2.634103 1_555
Br21 W5 2.644574 1_555
Br22 Mo2 2.632643 1_555
Br22 W0 2.633915 1_555
Br22 W5 2.643044 1_555
Br23 Mo3 2.625736 1_555
Br23 Mo4 2.629891 1_554
Br23 W6 2.631365 1_565
