# generated using pymatgen
data_RbHfF5
_symmetry_space_group_name_H-M   'P 1'
_cell_length_a   7.71733109
_cell_length_b   7.71733109
_cell_length_c   7.86925421
_cell_angle_alpha   90.00000000
_cell_angle_beta   90.00000000
_cell_angle_gamma   118.66451408
_symmetry_Int_Tables_number   1
_chemical_formula_structural   RbHfF5
_chemical_formula_sum   'Rb4 Hf4 F20'
_cell_volume   411.23205720
_cell_formula_units_Z   4
loop_
 _symmetry_equiv_pos_site_id
 _symmetry_equiv_pos_as_xyz
  1  'x, y, z'
loop_
 _atom_site_type_symbol
 _atom_site_label
 _atom_site_symmetry_multiplicity
 _atom_site_fract_x
 _atom_site_fract_y
 _atom_site_fract_z
 _atom_site_occupancy
  Rb  Rb0  1  0.79576327  0.20423673  0.50000000  1
  Rb  Rb1  1  0.70423673  0.29576327  -0.00000000  1
  Rb  Rb2  1  0.20423673  0.79576327  0.50000000  1
  Rb  Rb3  1  0.29576327  0.70423673  -0.00000000  1
  Hf  Hf0  1  0.66228448  0.66228448  0.66166676  1
  Hf  Hf1  1  0.83771552  0.83771552  0.16166676  1
  Hf  Hf2  1  0.33771552  0.33771552  0.33833324  1
  Hf  Hf3  1  0.16228448  0.16228448  0.83833324  1
  F  F0  1  0.08772834  0.91227166  -0.00000000  1
  F  F1  1  0.41227166  0.58772834  0.50000000  1
  F  F2  1  0.91227166  0.08772834  -0.00000000  1
  F  F3  1  0.58772834  0.41227166  0.50000000  1
  F  F4  1  0.29022843  0.29022843  0.06417699  1
  F  F5  1  0.20977157  0.20977157  0.56417699  1
  F  F6  1  0.70977157  0.70977157  0.93582301  1
  F  F7  1  0.79022843  0.79022843  0.43582301  1
  F  F8  1  0.57009775  0.85850850  0.71082851  1
  F  F9  1  0.92990225  0.64149150  0.21082851  1
  F  F10  1  0.42990225  0.14149150  0.28917149  1
  F  F11  1  0.07009775  0.35850850  0.78917149  1
  F  F12  1  0.85850850  0.57009775  0.71082851  1
  F  F13  1  0.64149150  0.92990225  0.21082851  1
  F  F14  1  0.14149150  0.42990225  0.28917149  1
  F  F15  1  0.35850850  0.07009775  0.78917149  1
  F  F16  1  0.43708244  0.43708244  0.79051779  1
  F  F17  1  0.06291756  0.06291756  0.29051779  1
  F  F18  1  0.56291756  0.56291756  0.20948221  1
  F  F19  1  0.93708244  0.93708244  0.70948221  1
loop_
_geom_bond_atom_site_label_1
_geom_bond_atom_site_label_2
_geom_bond_distance
_geom_bond_site_symmetry_2
F0 Hf1 2.146443 1_455
F0 Hf3 2.146443 1_564
F0 Rb3 2.761864 1_555
F1 Hf2 2.146443 1_555
F1 Hf0 2.146443 1_555
F1 Rb2 2.761864 1_555
F2 Hf1 2.146443 1_545
F2 Hf3 2.146443 1_654
F2 Rb1 2.761864 1_555
F3 Hf0 2.146443 1_555
F3 Hf2 2.146443 1_555
F3 Rb0 2.761864 1_555
F4 Hf3 2.042809 1_554
F4 Hf2 2.189557 1_555
F4 Rb3 3.214689 1_555
F4 Rb1 3.214689 1_555
F5 Hf2 2.042809 1_555
F5 Hf3 2.189557 1_555
F5 Rb2 3.214689 1_545
F5 Rb0 3.214689 1_455
F6 Hf1 2.042809 1_556
F6 Hf0 2.189557 1_555
F6 Rb3 3.214689 1_556
F6 Rb1 3.214689 1_556
F7 Hf0 2.042809 1_555
F7 Hf1 2.189557 1_555
F7 Rb0 3.214689 1_565
F7 Rb2 3.214689 1_655
F8 Hf0 1.995633 1_555
F8 Rb0 2.906275 1_565
F8 Rb3 2.942742 1_556
F8 Rb2 3.106013 1_555
F9 Hf1 1.995633 1_555
F9 Rb1 2.906275 1_555
F9 Rb2 2.942742 1_655
F9 Rb3 3.106013 1_655
F10 Hf2 1.995633 1_555
F10 Rb2 2.906275 1_545
F10 Rb1 2.942742 1_555
F10 Rb0 3.106013 1_555
F11 Hf3 1.995633 1_555
F11 Rb3 2.906275 1_556
F11 Rb0 2.942742 1_455
F11 Rb1 3.106013 1_456
F12 Hf0 1.995633 1_555
F12 Rb2 2.906275 1_655
F12 Rb1 2.942742 1_556
F12 Rb0 3.106013 1_555
F13 Hf1 1.995633 1_555
F13 Rb3 2.906275 1_555
F13 Rb0 2.942742 1_565
F13 Rb1 3.106013 1_565
F14 Hf2 1.995633 1_555
F14 Rb0 2.906275 1_455
F14 Rb3 2.942742 1_555
F14 Rb2 3.106013 1_555
F15 Hf3 1.995633 1_555
F15 Rb1 2.906275 1_556
F15 Rb2 2.942742 1_545
F15 Rb3 3.106013 1_546
F16 Hf0 2.042393 1_555
F16 Hf3 2.195849 1_555
F16 Rb3 3.211650 1_556
F16 Rb1 3.211650 1_556
F17 Hf1 2.042393 1_445
F17 Hf2 2.195849 1_555
F17 Rb0 3.211650 1_455
F17 Rb2 3.211650 1_545
F18 Hf2 2.042393 1_555
F18 Hf1 2.195849 1_555
F18 Rb1 3.211650 1_555
F18 Rb3 3.211650 1_555
F19 Hf3 2.042393 1_665
F19 Hf0 2.195849 1_555
F19 Rb0 3.211650 1_565
F19 Rb2 3.211650 1_655
