# generated using pymatgen
data_Rb8Sc6BBr20
_symmetry_space_group_name_H-M   'P 1'
_cell_length_a   11.84643854
_cell_length_b   11.84643962
_cell_length_c   11.84643926
_cell_angle_alpha   60.00000102
_cell_angle_beta   59.99999801
_cell_angle_gamma   60.00000018
_symmetry_Int_Tables_number   1
_chemical_formula_structural   Rb8Sc6BBr20
_chemical_formula_sum   'Rb8 Sc6 B1 Br20'
_cell_volume   1175.56996773
_cell_formula_units_Z   1
loop_
 _symmetry_equiv_pos_site_id
 _symmetry_equiv_pos_as_xyz
  1  'x, y, z'
loop_
 _atom_site_type_symbol
 _atom_site_label
 _atom_site_symmetry_multiplicity
 _atom_site_fract_x
 _atom_site_fract_y
 _atom_site_fract_z
 _atom_site_occupancy
  Rb  Rb0  1  0.35994716  0.35994716  0.35994716  1
  Rb  Rb1  1  0.64005284  0.64005284  0.64005284  1
  Rb  Rb2  1  0.35994716  0.35994716  0.92016052  1
  Rb  Rb3  1  0.35994716  0.92016052  0.35994716  1
  Rb  Rb4  1  0.64005284  0.64005284  0.07983948  1
  Rb  Rb5  1  0.64005284  0.07983948  0.64005284  1
  Rb  Rb6  1  0.92016052  0.35994716  0.35994716  1
  Rb  Rb7  1  0.07983948  0.64005284  0.64005284  1
  Sc  Sc0  1  0.85296288  0.14703712  0.14703712  1
  Sc  Sc1  1  0.14703712  0.85296288  0.85296288  1
  Sc  Sc2  1  0.14703712  0.85296288  0.14703712  1
  Sc  Sc3  1  0.85296288  0.14703712  0.85296288  1
  Sc  Sc4  1  0.14703712  0.14703712  0.85296288  1
  Sc  Sc5  1  0.85296288  0.85296288  0.14703712  1
  B  B0  1  0.00000000  0.00000000  0.00000000  1
  Br  Br0  1  0.32250988  0.00000000  0.00000000  1
  Br  Br1  1  0.67749012  1.00000000  1.00000000  1
  Br  Br2  1  1.00000000  0.32250988  0.67749012  1
  Br  Br3  1  0.00000000  0.67749012  0.32250988  1
  Br  Br4  1  1.00000000  0.32250988  1.00000000  1
  Br  Br5  1  0.67749012  1.00000000  0.32250988  1
  Br  Br6  1  0.00000000  0.67749012  0.00000000  1
  Br  Br7  1  0.32250988  0.00000000  0.67749012  1
  Br  Br8  1  0.00000000  0.00000000  0.32250988  1
  Br  Br9  1  0.00000000  0.00000000  0.67749012  1
  Br  Br10  1  0.67749012  0.32250988  1.00000000  1
  Br  Br11  1  0.32250988  0.67749012  0.00000000  1
  Br  Br12  1  0.68700813  0.31299187  0.31299187  1
  Br  Br13  1  0.31299187  0.68700813  0.68700813  1
  Br  Br14  1  0.31299187  0.68700813  0.31299187  1
  Br  Br15  1  0.68700813  0.31299187  0.68700813  1
  Br  Br16  1  0.31299187  0.31299187  0.68700813  1
  Br  Br17  1  0.68700813  0.68700813  0.31299187  1
  Br  Br18  1  0.25000000  0.25000000  0.25000000  1
  Br  Br19  1  0.75000000  0.75000000  0.75000000  1
loop_
_geom_bond_atom_site_label_1
_geom_bond_atom_site_label_2
_geom_bond_distance
_geom_bond_site_symmetry_2
B0 Sc4 2.463371 1_554
B0 Sc5 2.463371 1_445
B0 Sc0 2.463371 1_455
B0 Sc2 2.463371 1_545
B0 Sc3 2.463371 1_454
B0 Sc1 2.463371 1_544
Br0 Sc2 2.712048 1_545
Br0 Sc4 2.712048 1_554
Br1 Sc3 2.712048 1_565
Br1 Sc5 2.712048 1_556
Br2 Sc3 2.712048 1_555
Br2 Sc4 2.712048 1_655
Br3 Sc2 2.712048 1_555
Br3 Sc5 2.712048 1_455
Br4 Sc0 2.712048 1_556
Br4 Sc4 2.712048 1_655
Br5 Sc0 2.712048 1_565
Br5 Sc5 2.712048 1_555
Br6 Sc1 2.712048 1_554
Br6 Sc5 2.712048 1_455
Br7 Sc1 2.712048 1_545
Br7 Sc4 2.712048 1_555
Br8 Sc0 2.712048 1_455
Br8 Sc2 2.712048 1_545
Br9 Sc1 2.712048 1_545
Br9 Sc3 2.712048 1_455
Br10 Sc3 2.712048 1_555
Br10 Sc0 2.712048 1_556
Br11 Sc2 2.712048 1_555
Br11 Sc1 2.712048 1_554
Br12 Sc0 2.780306 1_555
Br12 Rb0 3.410227 1_555
Br12 Rb5 3.410235 1_555
Br12 Rb4 3.410235 1_555
Br12 Rb6 3.410250 1_555
Br13 Sc1 2.780306 1_555
Br13 Rb1 3.410227 1_555
Br13 Rb3 3.410235 1_555
Br13 Rb2 3.410235 1_555
Br13 Rb7 3.410250 1_555
Br14 Sc2 2.780306 1_555
Br14 Rb0 3.410227 1_555
Br14 Rb4 3.410235 1_555
Br14 Rb7 3.410235 1_555
Br14 Rb3 3.410250 1_555
Br15 Sc3 2.780306 1_555
Br15 Rb1 3.410227 1_555
Br15 Rb2 3.410235 1_555
Br15 Rb6 3.410235 1_555
Br15 Rb5 3.410250 1_555
Br16 Sc4 2.780305 1_555
Br16 Rb0 3.410227 1_555
Br16 Rb5 3.410235 1_555
Br16 Rb7 3.410235 1_555
Br16 Rb2 3.410250 1_555
Br17 Sc5 2.780305 1_555
Br17 Rb1 3.410227 1_555
Br17 Rb3 3.410235 1_555
Br17 Rb6 3.410235 1_555
Br17 Rb4 3.410250 1_555
Br18 Rb6 3.190398 1_455
Br18 Rb2 3.190398 1_554
Br18 Rb3 3.190398 1_545
Br18 Rb0 3.190417 1_555
Br19 Rb7 3.190398 1_655
Br19 Rb4 3.190398 1_556
Br19 Rb5 3.190398 1_565
Br19 Rb1 3.190417 1_555
