# generated using pymatgen
data_Ba5Sr(YSb3)2
_symmetry_space_group_name_H-M   'P 1'
_cell_length_a   8.61953283
_cell_length_b   8.73944251
_cell_length_c   9.81709757
_cell_angle_alpha   113.84466556
_cell_angle_beta   113.14108793
_cell_angle_gamma   104.22256089
_symmetry_Int_Tables_number   1
_chemical_formula_structural   Ba5Sr(YSb3)2
_chemical_formula_sum   'Ba5 Sr1 Y2 Sb6'
_cell_volume   545.29302946
_cell_formula_units_Z   1
loop_
 _symmetry_equiv_pos_site_id
 _symmetry_equiv_pos_as_xyz
  1  'x, y, z'
loop_
 _atom_site_type_symbol
 _atom_site_label
 _atom_site_symmetry_multiplicity
 _atom_site_fract_x
 _atom_site_fract_y
 _atom_site_fract_z
 _atom_site_occupancy
  Ba  Ba0  1  0.49727764  0.91754747  0.37545035  1
  Ba  Ba1  1  0.94259007  0.35440093  0.48121344  1
  Ba  Ba2  1  0.42370536  0.99858959  0.87514742  1
  Ba  Ba3  1  0.67639988  0.67517541  0.67524485  1
  Ba  Ba4  1  0.17526176  0.17772670  0.17478151  1
  Sr  Sr0  1  0.86279027  0.46092873  0.98477602  1
  Y  Y0  1  0.98633837  0.87029589  0.43353358  1
  Y  Y1  1  0.36947147  0.48434282  0.93144847  1
  Sb  Sb0  1  0.74293834  0.87043307  0.10939285  1
  Sb  Sb1  1  0.38419722  0.24270208  0.61411274  1
  Sb  Sb2  1  0.20688086  0.63619813  0.41784296  1
  Sb  Sb3  1  0.97240636  0.12204349  0.75339902  1
  Sb  Sb4  1  0.61896733  0.47568252  0.24828332  1
  Sb  Sb5  1  0.14077405  0.71393315  0.92537247  1
loop_
_geom_bond_atom_site_label_1
_geom_bond_atom_site_label_2
_geom_bond_distance
_geom_bond_site_symmetry_2
Ba0 Sb2 3.332622 1_555
Ba0 Sb1 3.505361 1_565
Ba0 Sb5 3.523674 1_554
Ba0 Sb3 3.582135 1_565
Ba0 Sb0 3.921902 1_555
Ba0 Sb4 4.085691 1_555
Ba1 Sb2 3.352256 1_655
Ba1 Sb5 3.497769 1_655
Ba1 Sb4 3.540127 1_555
Ba1 Sb0 3.630218 1_545
Ba1 Sb3 3.928542 1_555
Ba1 Sb1 4.012029 1_655
Ba2 Sb5 3.366762 1_555
Ba2 Sb2 3.560767 1_555
Ba2 Sb0 3.568952 1_556
Ba2 Sb4 3.604590 1_566
Ba2 Sb1 3.914796 1_565
Ba2 Sb3 4.144290 1_465
Ba3 Sb4 3.590282 1_555
Ba3 Sb5 3.619652 1_655
Ba3 Sb0 3.622652 1_556
Ba3 Sb1 3.645452 1_555
Ba3 Sb2 3.669951 1_555
Ba3 Sb3 3.673275 1_565
Ba4 Sb3 3.560320 1_454
Ba4 Sb2 3.611720 1_555
Ba4 Sb0 3.649536 1_445
Ba4 Sb5 3.650262 1_544
Ba4 Sb4 3.653286 1_555
Ba4 Sb1 3.685061 1_555
Sb0 Y0 3.047039 1_555
Sb0 Y1 3.205711 1_554
Sb0 Sr0 3.826506 1_554
Sb1 Y1 3.050304 1_555
Sb1 Y0 3.250857 1_445
Sb1 Sr0 3.552537 1_555
Sb2 Y0 3.116004 1_455
Sb2 Sr0 3.436462 1_454
Sb3 Y0 3.091267 1_545
Sb3 Y1 3.208210 1_655
Sb3 Sr0 3.527953 1_555
Sb4 Y1 3.052524 1_554
Sb4 Y0 3.203851 1_555
Sb4 Sr0 3.906676 1_554
Sb5 Y1 3.140599 1_555
Sb5 Sr0 3.241586 1_455
