# generated using pymatgen
data_Li2Hf2Ge6Ir7
_symmetry_space_group_name_H-M   'P 1'
_cell_length_a   7.05914459
_cell_length_b   6.91752536
_cell_length_c   6.91752530
_cell_angle_alpha   108.82297769
_cell_angle_beta   109.38308981
_cell_angle_gamma   109.38309906
_symmetry_Int_Tables_number   1
_chemical_formula_structural   Li2Hf2Ge6Ir7
_chemical_formula_sum   'Li2 Hf2 Ge6 Ir7'
_cell_volume   262.64128006
_cell_formula_units_Z   1
loop_
 _symmetry_equiv_pos_site_id
 _symmetry_equiv_pos_as_xyz
  1  'x, y, z'
loop_
 _atom_site_type_symbol
 _atom_site_label
 _atom_site_symmetry_multiplicity
 _atom_site_fract_x
 _atom_site_fract_y
 _atom_site_fract_z
 _atom_site_occupancy
  Li  Li0  1  0.50000000  0.00000000  0.00000000  1
  Li  Li1  1  0.50000000  0.50000000  0.50000000  1
  Hf  Hf0  1  0.00000000  0.00000000  0.50000000  1
  Hf  Hf1  1  0.00000000  0.50000000  0.00000000  1
  Ge  Ge0  1  0.67596475  0.69168496  0.98427978  1
  Ge  Ge1  1  0.32403525  0.01572022  0.30831504  1
  Ge  Ge2  1  1.00000000  0.30967462  0.30967462  1
  Ge  Ge3  1  0.32403525  0.30831504  0.01572022  1
  Ge  Ge4  1  0.67596475  0.98427978  0.69168496  1
  Ge  Ge5  1  0.00000000  0.69032538  0.69032538  1
  Ir  Ir0  1  0.75488307  0.24983737  0.50504470  1
  Ir  Ir1  1  0.75488307  0.50504470  0.24983737  1
  Ir  Ir2  1  0.50000000  0.25000000  0.75000000  1
  Ir  Ir3  1  0.24511693  0.49495530  0.75016263  1
  Ir  Ir4  1  0.24511693  0.75016263  0.49495530  1
  Ir  Ir5  1  0.50000000  0.75000000  0.25000000  1
  Ir  Ir6  1  0.00000000  0.00000000  0.00000000  1
loop_
_geom_bond_atom_site_label_1
_geom_bond_atom_site_label_2
_geom_bond_distance
_geom_bond_site_symmetry_2
Hf0 Ir4 2.822798 1_545
Hf0 Ir0 2.822798 1_455
Hf0 Ir3 2.822804 1_555
Hf0 Ir1 2.822804 1_445
Hf0 Ir5 2.899357 1_445
Hf0 Ir2 2.899357 1_555
Hf1 Ir1 2.822798 1_455
Hf1 Ir3 2.822798 1_554
Hf1 Ir4 2.822804 1_555
Hf1 Ir0 2.822804 1_454
Hf1 Ir5 2.899357 1_555
Hf1 Ir2 2.899357 1_454
Ge0 Ir6 2.497967 1_666
Ge0 Ir3 2.507201 1_555
Ge0 Ir5 2.540485 1_556
Ge0 Ir2 2.540485 1_555
Ge0 Ir1 2.584652 1_556
Ge0 Li0 2.793208 1_566
Ge0 Li1 2.793208 1_555
Ge0 Hf1 2.990570 1_656
Ge0 Hf0 2.990570 1_666
Ge1 Ir6 2.497967 1_555
Ge1 Ir0 2.507201 1_555
Ge1 Ir5 2.540485 1_545
Ge1 Ir2 2.540485 1_555
Ge1 Ir4 2.584652 1_545
Ge1 Li0 2.793207 1_555
Ge1 Li1 2.793208 1_555
Ge1 Hf0 2.990569 1_555
Ge1 Hf1 2.990570 1_545
Ge2 Ir6 2.493328 1_655
Ge2 Ir0 2.535666 1_555
Ge2 Ir1 2.535666 1_555
Ge2 Ir4 2.535671 1_655
Ge2 Ir3 2.535671 1_655
Ge2 Hf1 2.853468 1_655
Ge2 Hf0 2.853468 1_655
Ge2 Li1 2.938898 1_655
Ge2 Li0 2.938898 1_555
Ge3 Ir6 2.497967 1_555
Ge3 Ir1 2.507201 1_555
Ge3 Ir2 2.540485 1_554
Ge3 Ir5 2.540485 1_555
Ge3 Ir3 2.584652 1_554
Ge3 Li0 2.793208 1_555
Ge3 Li1 2.793208 1_555
Ge3 Hf1 2.990570 1_555
Ge3 Hf0 2.990570 1_554
Ge4 Ir6 2.497967 1_666
Ge4 Ir4 2.507201 1_555
Ge4 Ir2 2.540485 1_565
Ge4 Ir5 2.540485 1_555
Ge4 Ir0 2.584652 1_565
Ge4 Li0 2.793207 1_566
Ge4 Li1 2.793208 1_555
Ge4 Hf0 2.990569 1_665
Ge4 Hf1 2.990570 1_666
Ge5 Ir6 2.493328 1_566
Ge5 Ir4 2.535666 1_555
Ge5 Ir3 2.535666 1_555
Ge5 Ir0 2.535671 1_455
Ge5 Ir1 2.535671 1_455
Ge5 Hf1 2.853468 1_556
Ge5 Hf0 2.853468 1_565
Ge5 Li1 2.938898 1_455
Ge5 Li0 2.938898 1_566
Ir0 Li0 2.880481 1_555
Ir0 Li1 2.880487 1_555
Ir1 Li0 2.880481 1_555
Ir1 Li1 2.880486 1_555
Ir2 Li0 2.812726 1_556
Ir2 Li1 2.812726 1_555
Ir3 Li0 2.880481 1_566
Ir3 Li1 2.880486 1_555
Ir4 Li0 2.880481 1_566
Ir4 Li1 2.880487 1_555
Ir5 Li1 2.812726 1_555
Ir5 Li0 2.812726 1_565
