# generated using pymatgen
data_DySnAu
_symmetry_space_group_name_H-M   'P 1'
_cell_length_a   4.66219066
_cell_length_b   4.66219066
_cell_length_c   7.44919606
_cell_angle_alpha   90.00000000
_cell_angle_beta   90.00000000
_cell_angle_gamma   120.00000486
_symmetry_Int_Tables_number   1
_chemical_formula_structural   DySnAu
_chemical_formula_sum   'Dy2 Sn2 Au2'
_cell_volume   140.22326521
_cell_formula_units_Z   2
loop_
 _symmetry_equiv_pos_site_id
 _symmetry_equiv_pos_as_xyz
  1  'x, y, z'
loop_
 _atom_site_type_symbol
 _atom_site_label
 _atom_site_symmetry_multiplicity
 _atom_site_fract_x
 _atom_site_fract_y
 _atom_site_fract_z
 _atom_site_occupancy
  Dy  Dy0  1  -0.00000000  0.00000000  0.24725018  1
  Dy  Dy1  1  -0.00000000  0.00000000  0.74725018  1
  Sn  Sn0  1  0.66666700  0.33333300  0.97311002  1
  Sn  Sn1  1  0.33333300  0.66666700  0.47311002  1
  Au  Au0  1  0.33333300  0.66666700  0.07813979  1
  Au  Au1  1  0.66666700  0.33333300  0.57813979  1
loop_
_geom_bond_atom_site_label_1
_geom_bond_atom_site_label_2
_geom_bond_distance
_geom_bond_site_symmetry_2
Dy0 Sn1 3.174279 1_545
Dy0 Sn1 3.174282 1_555
Dy0 Sn1 3.174282 1_445
Dy0 Sn0 3.378697 1_454
Dy0 Sn0 3.378700 1_554
Dy0 Sn0 3.378700 1_444
Dy0 Dy1 3.724598 1_555
Dy0 Dy1 3.724598 1_554
Dy1 Sn0 3.174279 1_455
Dy1 Sn0 3.174282 1_445
Dy1 Sn0 3.174282 1_555
Dy1 Sn1 3.378697 1_545
Dy1 Sn1 3.378700 1_555
Dy1 Sn1 3.378700 1_445
Au0 Sn0 2.803115 1_454
Au0 Sn0 2.803115 1_564
Au0 Sn0 2.803123 1_554
Au0 Sn1 2.942211 1_555
Au0 Dy0 2.971912 1_565
Au0 Dy0 2.971916 1_665
Au0 Dy0 2.971916 1_555
Au0 Dy1 3.649777 1_564
Au0 Dy1 3.649779 1_664
Au0 Dy1 3.649779 1_554
Au1 Sn1 2.803115 1_545
Au1 Sn1 2.803115 1_655
Au1 Sn1 2.803123 1_555
Au1 Sn0 2.942211 1_555
Au1 Dy1 2.971912 1_655
Au1 Dy1 2.971916 1_665
Au1 Dy1 2.971916 1_555
Au1 Dy0 3.649777 1_655
Au1 Dy0 3.649779 1_665
Au1 Dy0 3.649779 1_555
