# generated using pymatgen
data_KMn2FeO6
_symmetry_space_group_name_H-M   'P 1'
_cell_length_a   5.01046065
_cell_length_b   5.01045341
_cell_length_c   13.18107525
_cell_angle_alpha   79.33649505
_cell_angle_beta   100.64834249
_cell_angle_gamma   120.07813897
_symmetry_Int_Tables_number   1
_chemical_formula_structural   KMn2FeO6
_chemical_formula_sum   'K2 Mn4 Fe2 O12'
_cell_volume   279.74959081
_cell_formula_units_Z   2
loop_
 _symmetry_equiv_pos_site_id
 _symmetry_equiv_pos_as_xyz
  1  'x, y, z'
loop_
 _atom_site_type_symbol
 _atom_site_label
 _atom_site_symmetry_multiplicity
 _atom_site_fract_x
 _atom_site_fract_y
 _atom_site_fract_z
 _atom_site_occupancy
  K  K0  1  0.40805475  0.90819579  0.24999579  1
  K  K1  1  0.59201737  0.09191976  0.75000303  1
  Mn  Mn0  1  0.16550206  0.83289504  0.50012155  1
  Mn  Mn1  1  0.33303323  0.66563971  0.99987774  1
  Mn  Mn2  1  0.66724777  0.33433707  0.00011577  1
  Mn  Mn3  1  0.83420405  0.16711685  0.49987014  1
  Fe  Fe0  1  0.49981606  0.50001575  0.49996376  1
  Fe  Fe1  1  0.00016637  0.99995420  0.00006019  1
  O  O0  1  0.52474207  0.82546294  0.57727807  1
  O  O1  1  0.67457004  0.97496410  0.07734951  1
  O  O2  1  0.32571433  0.02499230  0.92272063  1
  O  O3  1  0.87263820  0.47356218  0.57734521  1
  O  O4  1  0.47492223  0.17453989  0.42264798  1
  O  O5  1  0.82287834  0.87441086  0.42241408  1
  O  O6  1  0.02649502  0.62702896  0.07742741  1
  O  O7  1  0.97382141  0.37288440  0.92264814  1
  O  O8  1  0.62589853  0.67707349  0.92249530  1
  O  O9  1  0.17680184  0.12562541  0.57750779  1
  O  O10  1  0.37446237  0.32292215  0.07758060  1
  O  O11  1  0.12701198  0.52645714  0.42257330  1
loop_
_geom_bond_atom_site_label_1
_geom_bond_atom_site_label_2
_geom_bond_distance
_geom_bond_site_symmetry_2
K0 O4 2.732425 1_565
K0 O1 2.732630 1_555
K0 O11 2.773024 1_555
K0 O6 2.773579 1_555
K0 O10 2.823579 1_565
K0 O5 2.824578 1_555
K1 O2 2.732638 1_555
K1 O0 2.733053 1_545
K1 O3 2.773057 1_555
K1 O7 2.774403 1_555
K1 O8 2.825023 1_545
K1 O9 2.826346 1_555
Mn0 O9 1.908931 1_565
Mn0 O11 1.910658 1_555
Mn0 O0 1.911073 1_555
Mn0 O4 1.911711 1_565
Mn0 O3 1.912185 1_455
Mn0 O5 1.915393 1_455
Mn1 O8 1.908958 1_555
Mn1 O6 1.910618 1_556
Mn1 O2 1.911088 1_565
Mn1 O1 1.911720 1_556
Mn1 O7 1.912184 1_455
Mn1 O10 1.915361 1_556
Mn2 O10 1.909389 1_555
Mn2 O7 1.910178 1_554
Mn2 O2 1.911236 1_554
Mn2 O1 1.911540 1_545
Mn2 O6 1.912682 1_655
Mn2 O8 1.914879 1_554
Mn3 O5 1.909385 1_545
Mn3 O3 1.910161 1_555
Mn3 O0 1.911377 1_545
Mn3 O4 1.911541 1_555
Mn3 O11 1.912574 1_655
Mn3 O9 1.914905 1_655
Fe0 O11 2.010254 1_555
Fe0 O3 2.010320 1_555
Fe0 O9 2.010366 1_555
Fe0 O5 2.010517 1_555
Fe0 O0 2.019141 1_555
Fe0 O4 2.019349 1_555
Fe1 O6 2.010203 1_555
Fe1 O10 2.010372 1_565
Fe1 O8 2.010406 1_454
Fe1 O7 2.010451 1_464
Fe1 O1 2.019211 1_455
Fe1 O2 2.019321 1_564
