# generated using pymatgen
data_Y12Co4AgSn
_symmetry_space_group_name_H-M   'P 1'
_cell_length_a   8.41203025
_cell_length_b   8.41203017
_cell_length_c   8.41203121
_cell_angle_alpha   111.17594760
_cell_angle_beta   109.86043348
_cell_angle_gamma   107.39975639
_symmetry_Int_Tables_number   1
_chemical_formula_structural   Y12Co4AgSn
_chemical_formula_sum   'Y12 Co4 Ag1 Sn1'
_cell_volume   457.71702900
_cell_formula_units_Z   1
loop_
 _symmetry_equiv_pos_site_id
 _symmetry_equiv_pos_as_xyz
  1  'x, y, z'
loop_
 _atom_site_type_symbol
 _atom_site_label
 _atom_site_symmetry_multiplicity
 _atom_site_fract_x
 _atom_site_fract_y
 _atom_site_fract_z
 _atom_site_occupancy
  Y  Y0  1  0.42312921  0.21624140  0.20688781  1
  Y  Y1  1  0.57687079  0.78375860  0.79311219  1
  Y  Y2  1  0.00935359  0.21624140  0.79311219  1
  Y  Y3  1  0.99064641  0.78375860  0.20688781  1
  Y  Y4  1  0.18562497  0.29328393  0.47890890  1
  Y  Y5  1  0.81437503  0.70671607  0.52109110  1
  Y  Y6  1  0.18562497  0.70671607  0.89234004  1
  Y  Y7  1  0.81437503  0.29328393  0.10765996  1
  Y  Y8  1  0.31613648  0.61740434  0.30126786  1
  Y  Y9  1  0.68386352  0.38259566  0.69873214  1
  Y  Y10  1  0.31613648  0.01486962  0.69873214  1
  Y  Y11  1  0.68386352  0.98513038  0.30126786  1
  Co  Co0  1  0.38427884  1.00000000  0.38427884  1
  Co  Co1  1  0.61572116  0.00000000  0.61572116  1
  Co  Co2  1  0.10908013  0.60908013  0.50000000  1
  Co  Co3  1  0.89091987  0.39091987  0.50000000  1
  Ag  Ag0  1  0.00000000  0.00000000  0.00000000  1
  Sn  Sn0  1  0.50000000  0.50000000  0.00000000  1
loop_
_geom_bond_atom_site_label_1
_geom_bond_atom_site_label_2
_geom_bond_distance
_geom_bond_site_symmetry_2
Y0 Y4 3.529438 1_555
Y0 Y6 3.529439 1_544
Y0 Y7 3.595874 1_555
Y0 Y5 3.595879 1_555
Y1 Y5 3.529438 1_555
Y1 Y7 3.529439 1_566
Y1 Y6 3.595874 1_555
Y1 Y4 3.595879 1_555
Y2 Y5 3.529438 1_445
Y2 Y7 3.529446 1_456
Y2 Y4 3.595880 1_555
Y2 Y6 3.595882 1_555
Y3 Y4 3.529438 1_665
Y3 Y6 3.529446 1_654
Y3 Y5 3.595880 1_555
Y3 Y7 3.595882 1_555
Y4 Y7 3.588743 1_455
Y4 Y8 3.624936 1_555
Y4 Y9 3.660205 1_555
Y5 Y6 3.588743 1_655
Y5 Y9 3.624936 1_555
Y5 Y8 3.660205 1_555
Y6 Y9 3.624938 1_455
Y6 Y8 3.660213 1_556
Y7 Y8 3.624938 1_655
Y7 Y9 3.660213 1_554
Y10 Y6 3.624936 1_545
Y10 Y5 3.624938 1_445
Y10 Y4 3.660198 1_555
Y10 Y7 3.660209 1_556
Y11 Y7 3.624936 1_565
Y11 Y4 3.624938 1_665
Y11 Y5 3.660198 1_555
Y11 Y6 3.660209 1_554
Co0 Co1 2.237275 1_565
Co0 Y3 2.753045 1_455
Co0 Y0 2.753045 1_565
Co0 Y10 2.859255 1_565
Co0 Y8 2.859256 1_555
Co0 Y9 2.859256 1_565
Co0 Y11 2.859258 1_555
Co0 Y4 3.385783 1_565
Co0 Y6 3.385790 1_554
Co1 Y2 2.753045 1_655
Co1 Y1 2.753045 1_545
Co1 Y11 2.859255 1_545
Co1 Y9 2.859256 1_555
Co1 Y8 2.859256 1_545
Co1 Y10 2.859258 1_555
Co1 Y5 3.385783 1_545
Co1 Y7 3.385790 1_556
Co2 Co3 2.172897 1_455
Co2 Y8 2.797040 1_555
Co2 Y10 2.797046 1_565
Co2 Y6 2.874558 1_555
Co2 Y7 2.874562 1_455
Co2 Y4 2.874566 1_555
Co2 Y5 2.874566 1_455
Co2 Y1 3.324937 1_555
Co2 Y3 3.324937 1_455
Co3 Y9 2.797040 1_555
Co3 Y11 2.797046 1_545
Co3 Y7 2.874558 1_555
Co3 Y6 2.874562 1_655
Co3 Y5 2.874566 1_555
Co3 Y4 2.874566 1_655
Co3 Y0 3.324937 1_555
Co3 Y2 3.324937 1_655
Ag0 Y0 2.939124 1_555
Ag0 Y1 2.939124 1_444
Ag0 Y2 2.939124 1_554
Ag0 Y3 2.939124 1_445
Ag0 Y4 3.315973 1_555
Ag0 Y5 3.315973 1_444
Ag0 Y7 3.315974 1_455
Ag0 Y6 3.315974 1_544
Sn0 Y11 3.399798 1_555
Sn0 Y10 3.399798 1_554
Sn0 Y8 3.399805 1_555
Sn0 Y9 3.399805 1_554
Sn0 Y3 3.462285 1_555
Sn0 Y2 3.462285 1_554
Sn0 Y1 3.462285 1_554
Sn0 Y0 3.462285 1_555
Sn0 Y5 3.619150 1_555
Sn0 Y4 3.619150 1_554
Sn0 Y7 3.619151 1_555
Sn0 Y6 3.619151 1_554
