# generated using pymatgen
data_Y16Al4Pd3Rh
_symmetry_space_group_name_H-M   'P 1'
_cell_length_a   9.62877458
_cell_length_b   9.62877377
_cell_length_c   9.62877371
_cell_angle_alpha   59.81249872
_cell_angle_beta   59.81250304
_cell_angle_gamma   59.81249743
_symmetry_Int_Tables_number   1
_chemical_formula_structural   Y16Al4Pd3Rh
_chemical_formula_sum   'Y16 Al4 Pd3 Rh1'
_cell_volume   628.55841562
_cell_formula_units_Z   1
loop_
 _symmetry_equiv_pos_site_id
 _symmetry_equiv_pos_as_xyz
  1  'x, y, z'
loop_
 _atom_site_type_symbol
 _atom_site_label
 _atom_site_symmetry_multiplicity
 _atom_site_fract_x
 _atom_site_fract_y
 _atom_site_fract_z
 _atom_site_occupancy
  Y  Y0  1  0.35697841  0.35697841  0.35697841  1
  Y  Y1  1  0.35198049  0.35198049  0.93848899  1
  Y  Y2  1  0.35198049  0.93848899  0.35198049  1
  Y  Y3  1  0.93848899  0.35198049  0.35198049  1
  Y  Y4  1  0.81226118  0.19130197  0.19130197  1
  Y  Y5  1  0.19227908  0.80683052  0.80683052  1
  Y  Y6  1  0.19130197  0.81226118  0.19130197  1
  Y  Y7  1  0.80683052  0.19227908  0.80683052  1
  Y  Y8  1  0.19130197  0.19130197  0.81226118  1
  Y  Y9  1  0.80683052  0.80683052  0.19227908  1
  Y  Y10  1  0.93598947  0.56336880  0.56336880  1
  Y  Y11  1  0.56219879  0.93587263  0.93587263  1
  Y  Y12  1  0.56336880  0.93598947  0.56336880  1
  Y  Y13  1  0.93587263  0.56219879  0.93587263  1
  Y  Y14  1  0.56336880  0.56336880  0.93598947  1
  Y  Y15  1  0.93587263  0.93587263  0.56219879  1
  Al  Al0  1  0.57785607  0.57785607  0.57785607  1
  Al  Al1  1  0.57882308  0.57882308  0.26598802  1
  Al  Al2  1  0.57882308  0.26598802  0.57882308  1
  Al  Al3  1  0.26598802  0.57882308  0.57882308  1
  Pd  Pd0  1  0.14580398  0.14580398  0.56661343  1
  Pd  Pd1  1  0.14580398  0.56661343  0.14580398  1
  Pd  Pd2  1  0.56661343  0.14580398  0.14580398  1
  Rh  Rh0  1  0.14338462  0.14338462  0.14338462  1
loop_
_geom_bond_atom_site_label_1
_geom_bond_atom_site_label_2
_geom_bond_distance
_geom_bond_site_symmetry_2
Y0 Y12 3.478423 1_545
Y0 Y14 3.478423 1_554
Y0 Y10 3.478423 1_455
Y0 Y6 3.577842 1_555
Y0 Y8 3.577842 1_555
Y0 Y4 3.577843 1_555
Y1 Y11 3.470598 1_545
Y1 Y13 3.470599 1_455
Y1 Y14 3.514854 1_555
Y10 Y3 3.514853 1_555
Y10 Y12 3.577707 1_555
Y10 Y14 3.577707 1_555
Y10 Y13 3.580539 1_555
Y10 Y15 3.580539 1_555
Y10 Y9 3.594811 1_555
Y10 Y7 3.594811 1_555
Y10 Y8 3.613172 1_655
Y10 Y6 3.613172 1_655
Y11 Y2 3.470599 1_556
Y11 Y8 3.566131 1_565
Y11 Y6 3.566131 1_556
Y11 Y12 3.580539 1_555
Y11 Y14 3.580539 1_555
Y11 Y13 3.587819 1_555
Y11 Y15 3.587819 1_555
Y11 Y9 3.606616 1_556
Y11 Y7 3.606616 1_565
Y12 Y2 3.514853 1_555
Y12 Y14 3.577707 1_555
Y12 Y15 3.580539 1_555
Y12 Y9 3.594811 1_555
Y12 Y5 3.594811 1_555
Y12 Y8 3.613172 1_565
Y12 Y4 3.613172 1_565
Y13 Y3 3.470598 1_556
Y13 Y8 3.566131 1_655
Y13 Y4 3.566131 1_556
Y13 Y14 3.580539 1_555
Y13 Y15 3.587819 1_555
Y13 Y9 3.606616 1_556
Y13 Y5 3.606616 1_655
Y14 Y7 3.594811 1_555
Y14 Y5 3.594811 1_555
Y14 Y4 3.613172 1_556
Y14 Y6 3.613172 1_556
Y15 Y3 3.470598 1_565
Y15 Y2 3.470599 1_655
Y15 Y4 3.566131 1_565
Y15 Y6 3.566131 1_655
Y15 Y7 3.606616 1_565
Y15 Y5 3.606616 1_655
Al0 Al1 2.993572 1_555
Al0 Al2 2.993572 1_555
Al0 Al3 2.993572 1_555
Al0 Y14 3.313961 1_555
Al0 Y12 3.313961 1_555
Al0 Y10 3.313961 1_555
Al0 Y2 3.329460 1_555
Al0 Y3 3.329460 1_555
Al0 Y1 3.329460 1_555
Al0 Y7 3.454032 1_555
Al0 Y5 3.454033 1_555
Al0 Y9 3.454033 1_555
Al1 Al2 3.003677 1_555
Al1 Al3 3.003677 1_555
Al1 Y0 3.273826 1_555
Al1 Y2 3.302666 1_555
Al1 Y3 3.302666 1_555
Al1 Y11 3.304109 1_554
Al1 Y13 3.304110 1_554
Al1 Y14 3.333760 1_554
Al1 Y9 3.443372 1_555
Al1 Y4 3.482936 1_555
Al1 Y6 3.482936 1_555
Al2 Al3 3.003677 1_555
Al2 Y0 3.273826 1_555
Al2 Y1 3.302666 1_555
Al2 Y3 3.302666 1_555
Al2 Y11 3.304109 1_545
Al2 Y15 3.304109 1_545
Al2 Y12 3.333760 1_545
Al2 Y7 3.443372 1_555
Al2 Y4 3.482936 1_555
Al2 Y8 3.482936 1_555
Al3 Y0 3.273826 1_555
Al3 Y1 3.302666 1_555
Al3 Y2 3.302666 1_555
Al3 Y15 3.304109 1_455
Al3 Y13 3.304110 1_455
Al3 Y10 3.333760 1_455
Al3 Y5 3.443372 1_555
Al3 Y6 3.482936 1_555
Al3 Y8 3.482936 1_555
Pd0 Y5 2.860624 1_545
Pd0 Y7 2.860624 1_455
Pd0 Y3 2.869565 1_455
Pd0 Y2 2.869565 1_545
Pd0 Y0 2.871616 1_555
Pd0 Y8 2.873254 1_555
Pd0 Y10 3.466464 1_455
Pd0 Y12 3.466464 1_545
Pd0 Y15 3.529266 1_445
Pd1 Y5 2.860624 1_554
Pd1 Y9 2.860624 1_455
Pd1 Y1 2.869565 1_554
Pd1 Y3 2.869565 1_455
Pd1 Y0 2.871616 1_555
Pd1 Y6 2.873254 1_555
Pd1 Y10 3.466464 1_455
Pd1 Y14 3.466464 1_554
Pd1 Y13 3.529266 1_454
Pd2 Y9 2.860624 1_545
Pd2 Y7 2.860624 1_554
Pd2 Y1 2.869565 1_554
Pd2 Y2 2.869565 1_545
Pd2 Y0 2.871616 1_555
Pd2 Y4 2.873254 1_555
Pd2 Y12 3.466464 1_545
Pd2 Y14 3.466464 1_554
Pd2 Y11 3.529265 1_544
Rh0 Y6 2.801148 1_545
Rh0 Y8 2.801148 1_554
Rh0 Y4 2.801149 1_455
Rh0 Y2 2.836822 1_545
Rh0 Y3 2.836822 1_455
Rh0 Y1 2.836822 1_554
Rh0 Y13 3.472112 1_454
Rh0 Y15 3.472113 1_445
Rh0 Y11 3.472113 1_544
