# generated using pymatgen
data_Sc2BiI2
_symmetry_space_group_name_H-M   'P 1'
_cell_length_a   11.22808320
_cell_length_b   11.22808322
_cell_length_c   11.22808394
_cell_angle_alpha   21.54679261
_cell_angle_beta   21.54679088
_cell_angle_gamma   21.54679438
_symmetry_Int_Tables_number   1
_chemical_formula_structural   Sc2BiI2
_chemical_formula_sum   'Sc2 Bi1 I2'
_cell_volume   167.29521146
_cell_formula_units_Z   1
loop_
 _symmetry_equiv_pos_site_id
 _symmetry_equiv_pos_as_xyz
  1  'x, y, z'
loop_
 _atom_site_type_symbol
 _atom_site_label
 _atom_site_symmetry_multiplicity
 _atom_site_fract_x
 _atom_site_fract_y
 _atom_site_fract_z
 _atom_site_occupancy
  Sc  Sc0  1  0.61618881  0.61618881  0.61618881  1
  Sc  Sc1  1  0.38381119  0.38381219  0.38381119  1
  Bi  Bi0  1  0.00000000  0.00000000  0.00000000  1
  I  I0  1  0.22771981  0.22771981  0.22771981  1
  I  I1  1  0.77228019  0.77228019  0.77228019  1
loop_
_geom_bond_atom_site_label_1
_geom_bond_atom_site_label_2
_geom_bond_distance
_geom_bond_site_symmetry_2
Bi0 Sc0 2.937636 1_445
Bi0 Sc0 2.937637 1_544
Bi0 Sc0 2.937637 1_454
Bi0 Sc1 2.937641 1_545
Bi0 Sc1 2.937643 1_554
Bi0 Sc1 2.937644 1_455
I0 Sc0 3.026856 1_554
I0 Sc0 3.026857 1_455
I0 Sc0 3.026857 1_545
I1 Sc1 3.026849 1_556
I1 Sc1 3.026849 1_655
I1 Sc1 3.026852 1_565
