# generated using pymatgen
data_Rb2Hg3Br8
_symmetry_space_group_name_H-M   'P 1'
_cell_length_a   10.72811885
_cell_length_b   10.72811941
_cell_length_c   7.51782124
_cell_angle_alpha   85.13307915
_cell_angle_beta   85.13307715
_cell_angle_gamma   143.43787137
_symmetry_Int_Tables_number   1
_chemical_formula_structural   Rb2Hg3Br8
_chemical_formula_sum   'Rb2 Hg3 Br8'
_cell_volume   496.21037094
_cell_formula_units_Z   1
loop_
 _symmetry_equiv_pos_site_id
 _symmetry_equiv_pos_as_xyz
  1  'x, y, z'
loop_
 _atom_site_type_symbol
 _atom_site_label
 _atom_site_symmetry_multiplicity
 _atom_site_fract_x
 _atom_site_fract_y
 _atom_site_fract_z
 _atom_site_occupancy
  Rb  Rb0  1  0.66645174  0.94854908  0.51229791  1
  Rb  Rb1  1  0.94854908  0.66645174  0.51229791  1
  Hg  Hg0  1  0.88675651  0.88675651  0.04002946  1
  Hg  Hg1  1  0.97945318  0.35241775  0.90539497  1
  Hg  Hg2  1  0.35241775  0.97945318  0.90539497  1
  Br  Br0  1  0.62036380  0.62036380  0.34293097  1
  Br  Br1  1  0.01155035  0.01155035  0.69683229  1
  Br  Br2  1  0.54012708  0.91590203  0.00029496  1
  Br  Br3  1  0.91590203  0.54012708  0.00029496  1
  Br  Br4  1  0.11208321  0.48537729  0.54974204  1
  Br  Br5  1  0.48537729  0.11208321  0.54974204  1
  Br  Br6  1  0.29041987  0.10493411  0.12454926  1
  Br  Br7  1  0.10493411  0.29041987  0.12454926  1
loop_
_geom_bond_atom_site_label_1
_geom_bond_atom_site_label_2
_geom_bond_distance
_geom_bond_site_symmetry_2
Br0 Hg0 2.488264 1_555
Br0 Rb1 3.511810 1_555
Br0 Rb0 3.511810 1_555
Br1 Hg0 2.487987 1_446
Br1 Rb0 3.619254 1_445
Br1 Rb1 3.619254 1_445
Br2 Hg2 2.719538 1_554
Br2 Hg1 2.838891 1_564
Br2 Rb0 3.687046 1_554
Br3 Hg1 2.719538 1_554
Br3 Hg2 2.838891 1_654
Br3 Rb1 3.687046 1_554
Br4 Hg1 2.579726 1_455
Br4 Rb0 3.485118 1_555
Br4 Rb0 3.518008 1_445
Br4 Rb1 3.520898 1_455
Br5 Hg2 2.579726 1_545
Br5 Rb1 3.485118 1_555
Br5 Rb1 3.518007 1_445
Br5 Rb0 3.520898 1_545
Br6 Hg2 2.568613 1_544
Br6 Hg0 3.012002 1_445
Br6 Rb1 3.495861 1_445
Br7 Hg1 2.568613 1_454
Br7 Hg0 3.012002 1_445
Br7 Rb0 3.495861 1_445
