# generated using pymatgen
data_LiHS
_symmetry_space_group_name_H-M   'P 1'
_cell_length_a   3.95730000
_cell_length_b   7.91596600
_cell_length_c   12.33103700
_cell_angle_alpha   90.00000000
_cell_angle_beta   90.00000000
_cell_angle_gamma   90.00000000
_symmetry_Int_Tables_number   1
_chemical_formula_structural   LiHS
_chemical_formula_sum   'Li8 H8 S8'
_cell_volume   386.28024317
_cell_formula_units_Z   8
loop_
 _symmetry_equiv_pos_site_id
 _symmetry_equiv_pos_as_xyz
  1  'x, y, z'
loop_
 _atom_site_type_symbol
 _atom_site_label
 _atom_site_symmetry_multiplicity
 _atom_site_fract_x
 _atom_site_fract_y
 _atom_site_fract_z
 _atom_site_occupancy
  Li  Li0  1  0.50032700  0.00311600  0.87496700  1
  Li  Li1  1  0.49967300  0.99688400  0.12503300  1
  Li  Li2  1  0.50032700  0.99688400  0.37496700  1
  Li  Li3  1  0.49967300  0.50311600  0.87496700  1
  Li  Li4  1  0.49967300  0.49688400  0.37496700  1
  Li  Li5  1  0.49967300  0.00311600  0.62503300  1
  Li  Li6  1  0.50032700  0.49688400  0.12503300  1
  Li  Li7  1  0.50032700  0.50311600  0.62503300  1
  H  H0  1  0.14513300  0.25000000  0.00000000  1
  H  H1  1  0.14513300  0.75000000  0.50000000  1
  H  H2  1  0.85486700  0.75000000  0.00000000  1
  H  H3  1  0.85486700  0.25000000  0.50000000  1
  H  H4  1  0.00000000  0.82379900  0.75000000  1
  H  H5  1  0.00000000  0.17620100  0.25000000  1
  H  H6  1  0.00000000  0.32379900  0.75000000  1
  H  H7  1  0.00000000  0.67620100  0.25000000  1
  S  S0  1  0.48663700  0.25000000  0.00000000  1
  S  S1  1  0.51336300  0.25000000  0.50000000  1
  S  S2  1  0.51336300  0.75000000  0.00000000  1
  S  S3  1  0.48663700  0.75000000  0.50000000  1
  S  S4  1  0.00000000  0.99441100  0.75000000  1
  S  S5  1  0.00000000  0.00558900  0.25000000  1
  S  S6  1  0.00000000  0.49441100  0.75000000  1
  S  S7  1  0.00000000  0.50558900  0.25000000  1
loop_
_geom_bond_atom_site_label_1
_geom_bond_atom_site_label_2
_geom_bond_distance
_geom_bond_site_symmetry_2
Li0 S0 2.489865 1_556
Li0 S4 2.507844 1_645
Li0 S4 2.509885 1_545
Li0 S2 2.528717 1_546
Li1 S2 2.489865 1_555
Li1 S5 2.507844 1_565
Li1 S5 2.509885 1_665
Li1 S0 2.528717 1_565
Li2 S3 2.489865 1_555
Li2 S5 2.507844 1_665
Li2 S5 2.509885 1_565
Li2 S1 2.528717 1_565
Li3 S2 2.489865 1_556
Li3 S6 2.507844 1_555
Li3 S6 2.509885 1_655
Li3 S0 2.528717 1_556
Li4 S1 2.489865 1_555
Li4 S7 2.507844 1_555
Li4 S7 2.509885 1_655
Li4 S3 2.528717 1_555
Li5 S1 2.489865 1_555
Li5 S4 2.507844 1_545
Li5 S4 2.509885 1_645
Li5 S3 2.528717 1_545
Li6 S0 2.489865 1_555
Li6 S7 2.507844 1_655
Li6 S7 2.509885 1_555
Li6 S2 2.528717 1_555
Li7 S3 2.489865 1_555
Li7 S6 2.507844 1_655
Li7 S6 2.509885 1_555
Li7 S1 2.528717 1_555
H0 S0 1.351434 1_555
H1 S3 1.351434 1_555
H2 S2 1.351434 1_555
H3 S1 1.351434 1_555
H4 S4 1.350559 1_555
H5 S5 1.350559 1_555
H6 S6 1.350559 1_555
H7 S7 1.350559 1_555
