# generated using pymatgen
data_Ba5P3H
_symmetry_space_group_name_H-M   'P 1'
_cell_length_a   7.58296174
_cell_length_b   9.29194814
_cell_length_c   9.29194052
_cell_angle_alpha   119.99996292
_cell_angle_beta   90.00000000
_cell_angle_gamma   90.00000000
_symmetry_Int_Tables_number   1
_chemical_formula_structural   Ba5P3H
_chemical_formula_sum   'Ba10 P6 H2'
_cell_volume   566.99973671
_cell_formula_units_Z   2
loop_
 _symmetry_equiv_pos_site_id
 _symmetry_equiv_pos_as_xyz
  1  'x, y, z'
loop_
 _atom_site_type_symbol
 _atom_site_label
 _atom_site_symmetry_multiplicity
 _atom_site_fract_x
 _atom_site_fract_y
 _atom_site_fract_z
 _atom_site_occupancy
  Ba  Ba0  1  0.50000028  0.33333501  0.66666597  1
  Ba  Ba1  1  0.49999989  0.66666416  0.33333398  1
  Ba  Ba2  1  0.00000028  0.66666499  0.33333403  1
  Ba  Ba3  1  0.99999989  0.33333584  0.66666602  1
  Ba  Ba4  1  0.75000031  0.25173375  0.00000108  1
  Ba  Ba5  1  0.74999988  0.74826448  0.74826484  1
  Ba  Ba6  1  0.74999984  0.00000105  0.25173331  1
  Ba  Ba7  1  0.25000031  0.74826625  0.99999892  1
  Ba  Ba8  1  0.24999988  0.25173552  0.25173516  1
  Ba  Ba9  1  0.24999984  0.99999895  0.74826669  1
  P  P0  1  0.74999984  0.60490430  0.99999853  1
  P  P1  1  0.75000003  0.39509667  0.39509666  1
  P  P2  1  0.75000004  0.99999922  0.60490477  1
  P  P3  1  0.24999984  0.39509570  0.00000147  1
  P  P4  1  0.25000003  0.60490333  0.60490334  1
  P  P5  1  0.25000004  0.00000078  0.39509523  1
  H  H0  1  0.49999989  0.99999999  0.00000006  1
  H  H1  1  0.99999989  0.00000001  0.99999994  1
loop_
_geom_bond_atom_site_label_1
_geom_bond_atom_site_label_2
_geom_bond_distance
_geom_bond_site_symmetry_2
Ba0 P1 3.426207 1_555
Ba0 P4 3.426208 1_555
Ba0 P0 3.426216 1_555
Ba0 P5 3.426232 1_555
Ba0 P3 3.426247 1_556
Ba0 P2 3.426247 1_545
Ba1 P1 3.426201 1_555
Ba1 P4 3.426203 1_555
Ba1 P3 3.426215 1_555
Ba1 P2 3.426235 1_555
Ba1 P0 3.426247 1_554
Ba1 P5 3.426254 1_565
Ba2 P4 3.426207 1_555
Ba2 P1 3.426208 1_455
Ba2 P3 3.426216 1_555
Ba2 P2 3.426232 1_455
Ba2 P0 3.426247 1_454
Ba2 P5 3.426247 1_565
Ba3 P4 3.426201 1_655
Ba3 P1 3.426203 1_555
Ba3 P0 3.426215 1_555
Ba3 P5 3.426235 1_655
Ba3 P3 3.426247 1_656
Ba3 P2 3.426254 1_545
Ba4 H1 3.010842 1_554
Ba4 H0 3.010846 1_545
Ba4 P1 3.218976 1_555
Ba4 P2 3.218985 1_544
Ba4 P0 3.281654 1_554
Ba5 H1 3.010860 1_565
Ba5 H0 3.010860 1_556
Ba5 P0 3.218965 1_555
Ba5 P2 3.218974 1_555
Ba5 P1 3.281619 1_555
Ba6 H0 3.010839 1_545
Ba6 H1 3.010840 1_554
Ba6 P1 3.218979 1_555
Ba6 P0 3.218991 1_544
Ba6 P2 3.281657 1_545
Ba7 H0 3.010842 1_556
Ba7 H1 3.010846 1_465
Ba7 P4 3.218976 1_555
Ba7 P5 3.218985 1_566
Ba7 P3 3.281654 1_556
Ba8 H0 3.010860 1_545
Ba8 H1 3.010860 1_454
Ba8 P3 3.218965 1_555
Ba8 P5 3.218974 1_555
Ba8 P4 3.281619 1_555
Ba9 H1 3.010839 1_465
Ba9 H0 3.010840 1_556
Ba9 P4 3.218979 1_555
Ba9 P3 3.218991 1_566
Ba9 P5 3.281657 1_565
