# generated using pymatgen
data_CdRh3PbS2
_symmetry_space_group_name_H-M   'P 1'
_cell_length_a   5.65609827
_cell_length_b   5.65609847
_cell_length_c   5.65609853
_cell_angle_alpha   60.47413284
_cell_angle_beta   60.47413364
_cell_angle_gamma   60.47412852
_symmetry_Int_Tables_number   1
_chemical_formula_structural   CdRh3PbS2
_chemical_formula_sum   'Cd1 Rh3 Pb1 S2'
_cell_volume   129.31994300
_cell_formula_units_Z   1
loop_
 _symmetry_equiv_pos_site_id
 _symmetry_equiv_pos_as_xyz
  1  'x, y, z'
loop_
 _atom_site_type_symbol
 _atom_site_label
 _atom_site_symmetry_multiplicity
 _atom_site_fract_x
 _atom_site_fract_y
 _atom_site_fract_z
 _atom_site_occupancy
  Cd  Cd0  1  0.50000000  0.50000000  0.50000000  1
  Rh  Rh0  1  0.00000000  0.50000000  0.00000000  1
  Rh  Rh1  1  0.00000000  0.00000000  0.50000000  1
  Rh  Rh2  1  0.50000000  0.00000000  0.00000000  1
  Pb  Pb0  1  0.00000000  0.00000000  0.00000000  1
  S  S0  1  0.71805611  0.71805611  0.71805611  1
  S  S1  1  0.28194389  0.28194389  0.28194389  1
loop_
_geom_bond_atom_site_label_1
_geom_bond_atom_site_label_2
_geom_bond_distance
_geom_bond_site_symmetry_2
Cd0 Rh1 2.848292 1_565
Cd0 Rh1 2.848292 1_655
Cd0 Rh0 2.848292 1_556
Cd0 Rh0 2.848292 1_655
Cd0 Rh2 2.848292 1_565
Cd0 Rh2 2.848292 1_556
Cd0 S0 3.010200 1_555
Cd0 S1 3.010200 1_555
Rh0 S1 2.288385 1_555
Rh0 S0 2.288385 1_454
Rh1 S1 2.288385 1_555
Rh1 S0 2.288385 1_445
Rh2 S1 2.288385 1_555
Rh2 S0 2.288385 1_544
Pb0 Rh2 2.828049 1_455
Pb0 Rh2 2.828049 1_555
Pb0 Rh0 2.828049 1_545
Pb0 Rh0 2.828049 1_555
Pb0 Rh1 2.828049 1_554
Pb0 Rh1 2.828049 1_555
