# generated using pymatgen
data_Li2Ge(IO3)6
_symmetry_space_group_name_H-M   'P 1'
_cell_length_a   5.18336701
_cell_length_b   9.20065695
_cell_length_c   9.20052364
_cell_angle_alpha   60.00114170
_cell_angle_beta   89.99909900
_cell_angle_gamma   89.99947797
_symmetry_Int_Tables_number   1
_chemical_formula_structural   Li2Ge(IO3)6
_chemical_formula_sum   'Li2 Ge1 I6 O18'
_cell_volume   379.99595403
_cell_formula_units_Z   1
loop_
 _symmetry_equiv_pos_site_id
 _symmetry_equiv_pos_as_xyz
  1  'x, y, z'
loop_
 _atom_site_type_symbol
 _atom_site_label
 _atom_site_symmetry_multiplicity
 _atom_site_fract_x
 _atom_site_fract_y
 _atom_site_fract_z
 _atom_site_occupancy
  Li  Li0  1  0.74417649  0.33331410  0.33335763  1
  Li  Li1  1  0.22024657  0.66673240  0.66657671  1
  Ge  Ge0  1  0.66041172  0.99999511  0.00000918  1
  I  I0  1  0.78247361  0.96572094  0.67207747  1
  I  I1  1  0.78247861  0.36220677  0.96570470  1
  I  I2  1  0.78246132  0.67208448  0.36220920  1
  I  I3  1  0.29489461  0.02919528  0.30871153  1
  I  I4  1  0.29490751  0.66211633  0.02916169  1
  I  I5  1  0.29490592  0.30869019  0.66211530  1
  O  O0  1  0.50773785  0.24132072  0.55272311  1
  O  O1  1  0.50774511  0.20593860  0.24134649  1
  O  O2  1  0.50772504  0.55271769  0.20595106  1
  O  O3  1  0.00047219  0.76301852  0.44731126  1
  O  O4  1  0.00049216  0.78968973  0.76299129  1
  O  O5  1  0.00047148  0.44730019  0.78968849  1
  O  O6  1  0.87609915  0.04639462  0.81711250  1
  O  O7  1  0.87608854  0.13649279  0.04640610  1
  O  O8  1  0.87609545  0.81710225  0.13650247  1
  O  O9  1  0.44658016  0.93258519  0.19084940  1
  O  O10  1  0.44658513  0.87657460  0.93258803  1
  O  O11  1  0.44659482  0.19082240  0.87658859  1
  O  O12  1  0.97301516  0.11425639  0.49630539  1
  O  O13  1  0.97301151  0.38943247  0.11426063  1
  O  O14  1  0.97301186  0.49630207  0.38945171  1
  O  O15  1  0.44664098  0.88313213  0.50276368  1
  O  O16  1  0.44663317  0.61410996  0.88312840  1
  O  O17  1  0.44664489  0.50275510  0.61410998  1
loop_
_geom_bond_atom_site_label_1
_geom_bond_atom_site_label_2
_geom_bond_distance
_geom_bond_site_symmetry_2
Li0 O0 2.140919 1_555
Li0 O1 2.141050 1_555
Li0 O2 2.141255 1_555
Li0 O12 2.166847 1_555
Li0 O14 2.167031 1_555
Li0 O13 2.167060 1_555
Li1 O3 2.089306 1_555
Li1 O4 2.089882 1_555
Li1 O5 2.090458 1_555
Li1 O15 2.147573 1_555
Li1 O17 2.148142 1_555
Li1 O16 2.148594 1_555
Ge0 O7 1.882903 1_565
Ge0 O6 1.882917 1_564
Ge0 O8 1.882922 1_555
Ge0 O11 1.899140 1_564
Ge0 O9 1.899232 1_555
Ge0 O10 1.899235 1_554
I0 O4 1.801429 1_655
I0 O12 1.802326 1_565
I0 O6 1.886138 1_565
I1 O5 1.801228 1_655
I1 O13 1.802397 1_556
I1 O7 1.886155 1_556
I2 O3 1.801424 1_655
I2 O14 1.802411 1_555
I2 O8 1.886128 1_555
I3 O15 1.792495 1_545
I3 O1 1.799422 1_555
I3 O9 1.883615 1_545
I4 O16 1.792260 1_554
I4 O2 1.799599 1_555
I4 O10 1.883561 1_554
I5 O17 1.792542 1_555
I5 O0 1.799439 1_555
I5 O11 1.883671 1_555
