# generated using pymatgen
data_Rb2Sn(AuSe2)2
_symmetry_space_group_name_H-M   'P 1'
_cell_length_a   7.71549264
_cell_length_b   8.91391397
_cell_length_c   9.78943580
_cell_angle_alpha   71.93248249
_cell_angle_beta   82.24194196
_cell_angle_gamma   68.06470092
_symmetry_Int_Tables_number   1
_chemical_formula_structural   Rb2Sn(AuSe2)2
_chemical_formula_sum   'Rb4 Sn2 Au4 Se8'
_cell_volume   593.59589102
_cell_formula_units_Z   2
loop_
 _symmetry_equiv_pos_site_id
 _symmetry_equiv_pos_as_xyz
  1  'x, y, z'
loop_
 _atom_site_type_symbol
 _atom_site_label
 _atom_site_symmetry_multiplicity
 _atom_site_fract_x
 _atom_site_fract_y
 _atom_site_fract_z
 _atom_site_occupancy
  Rb  Rb0  1  0.77081182  0.82920520  0.41945404  1
  Rb  Rb1  1  0.22918818  0.17079480  0.58054596  1
  Rb  Rb2  1  0.03166620  0.25374647  0.08247250  1
  Rb  Rb3  1  0.96833380  0.74625353  0.91752750  1
  Sn  Sn0  1  0.62405264  0.28632511  0.80158626  1
  Sn  Sn1  1  0.37594736  0.71367489  0.19841374  1
  Au  Au0  1  0.53530136  0.70839312  0.83651761  1
  Au  Au1  1  0.25941923  0.66170658  0.57659275  1
  Au  Au2  1  0.46469864  0.29160688  0.16348239  1
  Au  Au3  1  0.74058077  0.33829342  0.42340725  1
  Se  Se0  1  0.72791797  0.58195050  0.22284222  1
  Se  Se1  1  0.76682699  0.09846323  0.63162112  1
  Se  Se2  1  0.30024424  0.91096073  0.94363727  1
  Se  Se3  1  0.21481998  0.49640526  0.25858770  1
  Se  Se4  1  0.27208203  0.41804950  0.77715778  1
  Se  Se5  1  0.69975576  0.08903927  0.05636273  1
  Se  Se6  1  0.23317301  0.90153677  0.36837888  1
  Se  Se7  1  0.78518002  0.50359474  0.74141230  1
loop_
_geom_bond_atom_site_label_1
_geom_bond_atom_site_label_2
_geom_bond_distance
_geom_bond_site_symmetry_2
Rb0 Se0 3.466974 1_555
Rb0 Se7 3.542605 1_555
Rb0 Se5 3.573538 1_565
Rb0 Se1 3.618742 1_565
Rb0 Se6 3.798495 1_655
Rb0 Se6 4.029222 1_555
Rb0 Se3 4.106657 1_655
Rb1 Se4 3.466974 1_555
Rb1 Se3 3.542605 1_555
Rb1 Se2 3.573538 1_545
Rb1 Se6 3.618742 1_545
Rb1 Se1 3.798495 1_455
Rb1 Se1 4.029222 1_555
Rb1 Se7 4.106657 1_455
Rb2 Se5 3.463723 1_455
Rb2 Se6 3.490729 1_545
Rb2 Se4 3.512366 1_554
Rb2 Se0 3.527222 1_455
Rb2 Se2 3.544389 1_544
Rb2 Se7 3.696195 1_454
Rb2 Se3 3.860394 1_555
Rb3 Se2 3.463723 1_655
Rb3 Se1 3.490729 1_565
Rb3 Se0 3.512366 1_556
Rb3 Se4 3.527222 1_655
Rb3 Se5 3.544389 1_566
Rb3 Se3 3.696195 1_656
Rb3 Se7 3.860394 1_555
Au0 Se7 2.420025 1_555
Au0 Se2 2.421487 1_555
Au0 Rb3 3.691781 1_555
Au1 Se4 2.414541 1_555
Au1 Se6 2.418903 1_555
Au1 Rb0 3.839677 1_455
Au1 Rb3 3.875969 1_455
Au2 Se3 2.420025 1_555
Au2 Se5 2.421487 1_555
Au2 Rb2 3.691781 1_555
Au3 Se0 2.414541 1_555
Au3 Se1 2.418903 1_555
Au3 Rb1 3.839677 1_655
Au3 Rb2 3.875969 1_655
Se0 Sn1 2.535624 1_555
Se1 Sn0 2.577085 1_555
Se2 Sn1 2.561190 1_556
Se3 Sn1 2.556728 1_555
Se4 Sn0 2.535624 1_555
Se5 Sn0 2.561190 1_554
Se6 Sn1 2.577085 1_555
Se7 Sn0 2.556728 1_555
