# generated using pymatgen
data_Zr10SnGeSb5
_symmetry_space_group_name_H-M   'P 1'
_cell_length_a   5.86025798
_cell_length_b   8.56997571
_cell_length_c   8.55099917
_cell_angle_alpha   119.92586316
_cell_angle_beta   89.71030831
_cell_angle_gamma   90.14459951
_symmetry_Int_Tables_number   1
_chemical_formula_structural   Zr10SnGeSb5
_chemical_formula_sum   'Zr10 Sn1 Ge1 Sb5'
_cell_volume   372.18788046
_cell_formula_units_Z   1
loop_
 _symmetry_equiv_pos_site_id
 _symmetry_equiv_pos_as_xyz
  1  'x, y, z'
loop_
 _atom_site_type_symbol
 _atom_site_label
 _atom_site_symmetry_multiplicity
 _atom_site_fract_x
 _atom_site_fract_y
 _atom_site_fract_z
 _atom_site_occupancy
  Zr  Zr0  1  0.49988528  0.33499883  0.66790298  1
  Zr  Zr1  1  0.49989248  0.66501254  0.33291469  1
  Zr  Zr2  1  0.00067908  0.66585526  0.33323470  1
  Zr  Zr3  1  0.00068532  0.33415149  0.66738746  1
  Zr  Zr4  1  0.76041481  0.25764654  0.99902787  1
  Zr  Zr5  1  0.76040673  0.74238689  0.74134059  1
  Zr  Zr6  1  0.76470533  0.99995391  0.25502689  1
  Zr  Zr7  1  0.23843272  0.74134430  0.00047821  1
  Zr  Zr8  1  0.23844526  0.25869593  0.25910197  1
  Zr  Zr9  1  0.23627892  0.99996410  0.74409316  1
  Sn  Sn0  1  0.25368555  0.99995781  0.39007164  1
  Ge  Ge0  1  0.49881258  0.99999642  0.00047637  1
  Sb  Sb0  1  0.74906459  0.61161271  0.00068764  1
  Sb  Sb1  1  0.74911138  0.38843416  0.38906154  1
  Sb  Sb2  1  0.74895993  0.99996088  0.60769426  1
  Sb  Sb3  1  0.25027468  0.38842155  0.99997230  1
  Sb  Sb4  1  0.25026336  0.61160769  0.61152672  1
loop_
_geom_bond_atom_site_label_1
_geom_bond_atom_site_label_2
_geom_bond_distance
_geom_bond_site_symmetry_2
Sn0 Zr7 2.941676 1_555
Sn0 Zr8 2.942568 1_565
Sn0 Zr9 3.028413 1_555
Sn0 Zr1 3.028901 1_555
Sn0 Zr0 3.029474 1_565
Sn0 Zr2 3.038119 1_555
Sn0 Zr3 3.038694 1_565
Sn0 Zr6 3.094881 1_455
Sn0 Zr6 3.204178 1_555
Ge0 Zr6 2.683455 1_555
Ge0 Zr9 2.684558 1_554
Ge0 Zr7 2.687902 1_555
Ge0 Zr8 2.687958 1_565
Ge0 Zr5 2.689958 1_554
Ge0 Zr4 2.689969 1_564
Sb0 Zr6 2.931399 1_555
Sb0 Zr5 2.942198 1_554
Sb0 Zr1 3.012718 1_555
Sb0 Zr0 3.023823 1_554
Sb0 Zr3 3.027320 1_654
Sb0 Zr4 3.027324 1_554
Sb0 Zr2 3.032567 1_655
Sb0 Zr7 3.073491 1_655
Sb0 Zr7 3.195245 1_555
Sb1 Zr6 2.932446 1_545
Sb1 Zr4 2.941495 1_554
Sb1 Zr0 3.013129 1_555
Sb1 Zr1 3.023527 1_555
Sb1 Zr2 3.026777 1_655
Sb1 Zr5 3.027183 1_555
Sb1 Zr3 3.032786 1_655
Sb1 Zr8 3.073351 1_655
Sb1 Zr8 3.195474 1_555
Sb2 Zr5 2.949856 1_555
Sb2 Zr4 2.950815 1_565
Sb2 Zr6 3.016574 1_555
Sb2 Zr2 3.027192 1_655
Sb2 Zr3 3.027687 1_665
Sb2 Zr1 3.029029 1_555
Sb2 Zr0 3.029588 1_565
Sb2 Zr9 3.090258 1_655
Sb2 Zr9 3.217387 1_555
Sb3 Zr8 2.933699 1_556
Sb3 Zr9 2.934206 1_545
Sb3 Zr0 3.012725 1_555
Sb3 Zr2 3.021338 1_556
Sb3 Zr7 3.023355 1_556
Sb3 Zr1 3.025756 1_556
Sb3 Zr3 3.026968 1_555
Sb3 Zr4 3.077667 1_455
Sb3 Zr4 3.193929 1_555
Sb4 Zr9 2.933391 1_555
Sb4 Zr7 2.934488 1_556
Sb4 Zr1 3.012427 1_555
Sb4 Zr3 3.021566 1_555
Sb4 Zr8 3.023379 1_555
Sb4 Zr0 3.025985 1_555
Sb4 Zr2 3.026669 1_555
Sb4 Zr5 3.077639 1_455
Sb4 Zr5 3.193930 1_555
