# generated using pymatgen
data_YBiIr2O7
_symmetry_space_group_name_H-M   'P 1'
_cell_length_a   7.25252946
_cell_length_b   7.25252968
_cell_length_c   7.25253023
_cell_angle_alpha   119.67894870
_cell_angle_beta   120.31692307
_cell_angle_gamma   90.00446010
_symmetry_Int_Tables_number   1
_chemical_formula_structural   YBiIr2O7
_chemical_formula_sum   'Y2 Bi2 Ir4 O14'
_cell_volume   269.74307262
_cell_formula_units_Z   2
loop_
 _symmetry_equiv_pos_site_id
 _symmetry_equiv_pos_as_xyz
  1  'x, y, z'
loop_
 _atom_site_type_symbol
 _atom_site_label
 _atom_site_symmetry_multiplicity
 _atom_site_fract_x
 _atom_site_fract_y
 _atom_site_fract_z
 _atom_site_occupancy
  Y  Y0  1  0.50000000  0.50000000  0.00000000  1
  Y  Y1  1  0.00000000  0.50000000  0.50000000  1
  Bi  Bi0  1  0.50000000  0.50000000  0.50000000  1
  Bi  Bi1  1  0.50000000  0.00000000  0.00000000  1
  Ir  Ir0  1  0.00000000  0.00000000  0.50000000  1
  Ir  Ir1  1  0.00000000  0.50000000  0.00000000  1
  Ir  Ir2  1  0.00000000  0.00000000  0.00000000  1
  Ir  Ir3  1  0.50000000  0.00000000  0.50000000  1
  O  O0  1  0.33574473  0.09070079  0.67179159  1
  O  O1  1  0.91890920  0.09070079  0.25495605  1
  O  O2  1  0.91377172  0.66377172  0.25000000  1
  O  O3  1  0.91890920  0.66395114  0.82820841  1
  O  O4  1  0.33574473  0.66395114  0.24504395  1
  O  O5  1  0.33316164  0.08316164  0.25000000  1
  O  O6  1  0.66425527  0.90929921  0.32820841  1
  O  O7  1  0.08109080  0.90929921  0.74504395  1
  O  O8  1  0.08622828  0.33622828  0.75000000  1
  O  O9  1  0.08109080  0.33604886  0.17179159  1
  O  O10  1  0.66425527  0.33604886  0.75495605  1
  O  O11  1  0.66683836  0.91683836  0.75000000  1
  O  O12  1  0.63068220  0.38068220  0.25000000  1
  O  O13  1  0.36931780  0.61931780  0.75000000  1
loop_
_geom_bond_atom_site_label_1
_geom_bond_atom_site_label_2
_geom_bond_distance
_geom_bond_site_symmetry_2
Bi0 O12 2.261820 1_555
Bi0 O13 2.261820 1_555
Bi0 O4 2.491137 1_555
Bi0 O10 2.491137 1_555
Bi0 O3 2.491149 1_555
Bi0 O9 2.491149 1_555
Bi0 O11 2.499476 1_555
Bi0 O5 2.499476 1_555
Bi1 O13 2.261820 1_544
Bi1 O12 2.261820 1_555
Bi1 O1 2.491149 1_555
Bi1 O7 2.491149 1_544
Bi1 O6 2.491149 1_545
Bi1 O0 2.491149 1_554
Bi1 O5 2.499476 1_555
Bi1 O11 2.499476 1_544
Ir0 O0 2.009864 1_555
Ir0 O6 2.009864 1_445
Ir0 O7 2.009864 1_545
Ir0 O1 2.009864 1_455
Ir0 O8 2.025223 1_555
Ir0 O2 2.025223 1_445
Ir1 O3 2.009851 1_454
Ir1 O9 2.009851 1_555
Ir1 O4 2.009862 1_555
Ir1 O10 2.009862 1_454
Ir1 O2 2.025223 1_455
Ir1 O8 2.025223 1_554
Ir2 O11 1.995867 1_444
Ir2 O5 1.995867 1_555
Ir2 O1 2.022644 1_455
Ir2 O7 2.022644 1_544
Ir2 O9 2.022657 1_555
Ir2 O3 2.022657 1_444
Ir3 O5 1.995867 1_555
Ir3 O11 1.995867 1_545
Ir3 O6 2.022644 1_545
Ir3 O0 2.022644 1_555
Ir3 O10 2.022654 1_555
Ir3 O4 2.022654 1_545
O0 Y0 2.456893 1_556
O1 Y1 2.456893 1_655
O2 Y0 2.465224 1_555
O2 Y1 2.465224 1_655
O3 Y1 2.456893 1_655
O4 Y0 2.456891 1_555
O6 Y0 2.456893 1_555
O7 Y1 2.456893 1_555
O8 Y0 2.465224 1_556
O8 Y1 2.465224 1_555
O9 Y1 2.456893 1_555
O10 Y0 2.456891 1_556
O12 Y1 2.180268 1_655
O12 Y0 2.180268 1_555
O13 Y1 2.180268 1_555
O13 Y0 2.180268 1_556
