# generated using pymatgen
data_K2RbNbSe4
_symmetry_space_group_name_H-M   'P 1'
_cell_length_a   9.89117710
_cell_length_b   9.96756644
_cell_length_c   11.04709236
_cell_angle_alpha   90.00000000
_cell_angle_beta   90.00000000
_cell_angle_gamma   90.00000000
_symmetry_Int_Tables_number   1
_chemical_formula_structural   K2RbNbSe4
_chemical_formula_sum   'K8 Rb4 Nb4 Se16'
_cell_volume   1089.14349466
_cell_formula_units_Z   4
loop_
 _symmetry_equiv_pos_site_id
 _symmetry_equiv_pos_as_xyz
  1  'x, y, z'
loop_
 _atom_site_type_symbol
 _atom_site_label
 _atom_site_symmetry_multiplicity
 _atom_site_fract_x
 _atom_site_fract_y
 _atom_site_fract_z
 _atom_site_occupancy
  K  K0  1  0.94327173  0.70857067  0.45223659  1
  K  K1  1  0.44327173  0.79142933  0.04776341  1
  K  K2  1  0.55672827  0.20857067  0.54776341  1
  K  K3  1  0.05672827  0.29142933  0.95223659  1
  K  K4  1  0.05672827  0.29142933  0.54776341  1
  K  K5  1  0.55672827  0.20857067  0.95223659  1
  K  K6  1  0.44327173  0.79142933  0.45223659  1
  K  K7  1  0.94327173  0.70857067  0.04776341  1
  Rb  Rb0  1  0.36368375  0.58717471  0.75000000  1
  Rb  Rb1  1  0.13631625  0.08717471  0.25000000  1
  Rb  Rb2  1  0.63631625  0.41282529  0.25000000  1
  Rb  Rb3  1  0.86368375  0.91282529  0.75000000  1
  Nb  Nb0  1  0.21391716  0.51374636  0.25000000  1
  Nb  Nb1  1  0.71391716  0.98625364  0.25000000  1
  Nb  Nb2  1  0.28608284  0.01374636  0.75000000  1
  Nb  Nb3  1  0.78608284  0.48625364  0.75000000  1
  Se  Se0  1  0.33264901  0.44588330  0.42985245  1
  Se  Se1  1  0.66735099  0.55411670  0.92985245  1
  Se  Se2  1  0.83264901  0.05411670  0.07014755  1
  Se  Se3  1  0.16735099  0.94588330  0.57014755  1
  Se  Se4  1  0.01081815  0.58124224  0.75000000  1
  Se  Se5  1  0.51081815  0.91875776  0.75000000  1
  Se  Se6  1  0.48918185  0.08124224  0.25000000  1
  Se  Se7  1  0.98918185  0.41875776  0.25000000  1
  Se  Se8  1  0.80712727  0.24568251  0.75000000  1
  Se  Se9  1  0.30712727  0.25431749  0.75000000  1
  Se  Se10  1  0.69287273  0.74568251  0.25000000  1
  Se  Se11  1  0.19287273  0.75431749  0.25000000  1
  Se  Se12  1  0.66735099  0.55411670  0.57014755  1
  Se  Se13  1  0.16735099  0.94588330  0.92985245  1
  Se  Se14  1  0.83264901  0.05411670  0.42985245  1
  Se  Se15  1  0.33264901  0.44588330  0.07014755  1
loop_
_geom_bond_atom_site_label_1
_geom_bond_atom_site_label_2
_geom_bond_distance
_geom_bond_site_symmetry_2
K0 Se10 3.355950 1_555
K0 Se11 3.360722 1_655
K0 Se12 3.393417 1_555
K0 Se3 3.493482 1_655
K0 Se4 3.588511 1_655
K0 Se14 3.622330 1_565
K0 Se7 3.679985 1_555
K1 Se11 3.355950 1_555
K1 Se10 3.360722 1_555
K1 Se13 3.393417 1_554
K1 Se1 3.493482 1_554
K1 Se5 3.588511 1_554
K1 Se15 3.622330 1_555
K1 Se6 3.679985 1_565
K2 Se8 3.355950 1_555
K2 Se9 3.360722 1_555
K2 Se14 3.393417 1_555
K2 Se0 3.493482 1_555
K2 Se6 3.588511 1_555
K2 Se12 3.622330 1_555
K2 Se5 3.679985 1_545
K3 Se9 3.355950 1_555
K3 Se8 3.360722 1_455
K3 Se15 3.393417 1_556
K3 Se2 3.493482 1_456
K3 Se7 3.588511 1_456
K3 Se13 3.622330 1_545
K3 Se4 3.679985 1_555
K4 Se9 3.355950 1_555
K4 Se8 3.360722 1_455
K4 Se0 3.393417 1_555
K4 Se14 3.493482 1_455
K4 Se7 3.588511 1_455
K4 Se3 3.622330 1_545
K4 Se4 3.679985 1_555
K5 Se8 3.355950 1_555
K5 Se9 3.360722 1_555
K5 Se2 3.393417 1_556
K5 Se15 3.493482 1_556
K5 Se6 3.588511 1_556
K5 Se1 3.622330 1_555
K5 Se5 3.679985 1_545
K6 Se11 3.355950 1_555
K6 Se10 3.360722 1_555
K6 Se3 3.393417 1_555
K6 Se12 3.493482 1_555
K6 Se5 3.588511 1_555
K6 Se0 3.622330 1_555
K6 Se6 3.679985 1_565
K7 Se10 3.355950 1_555
K7 Se11 3.360722 1_655
K7 Se1 3.393417 1_554
K7 Se13 3.493482 1_654
K7 Se4 3.588511 1_654
K7 Se2 3.622330 1_565
K7 Se7 3.679985 1_555
Rb0 Se9 3.364607 1_555
Rb0 Se4 3.490757 1_555
Rb0 Se5 3.611305 1_555
Rb0 Se1 3.616339 1_555
Rb0 Se12 3.616339 1_555
Rb0 Se15 3.819146 1_556
Rb0 Se0 3.819146 1_555
Rb1 Se11 3.364607 1_545
Rb1 Se6 3.490757 1_555
Rb1 Se7 3.611305 1_455
Rb1 Se14 3.616339 1_455
Rb1 Se2 3.616339 1_455
Rb1 Se3 3.819146 1_545
Rb1 Se13 3.819146 1_544
Rb2 Se10 3.364607 1_555
Rb2 Se7 3.490757 1_555
Rb2 Se6 3.611305 1_555
Rb2 Se0 3.616339 1_555
Rb2 Se15 3.616339 1_555
Rb2 Se12 3.819146 1_555
Rb2 Se1 3.819146 1_554
Rb3 Se8 3.364607 1_565
Rb3 Se5 3.490757 1_555
Rb3 Se4 3.611305 1_655
Rb3 Se13 3.616339 1_655
Rb3 Se3 3.616339 1_655
Rb3 Se2 3.819146 1_566
Rb3 Se14 3.819146 1_565
Nb0 Se0 2.405063 1_555
Nb0 Se15 2.405063 1_555
Nb0 Se11 2.406926 1_555
Nb0 Se7 2.416135 1_455
Nb1 Se14 2.405063 1_565
Nb1 Se2 2.405063 1_565
Nb1 Se10 2.406926 1_555
Nb1 Se6 2.416135 1_565
Nb2 Se13 2.405063 1_545
Nb2 Se3 2.405063 1_545
Nb2 Se9 2.406926 1_555
Nb2 Se5 2.416135 1_545
Nb3 Se1 2.405063 1_555
Nb3 Se12 2.405063 1_555
Nb3 Se8 2.406926 1_555
Nb3 Se4 2.416135 1_655
