# generated using pymatgen
data_LiNiP2O7
_symmetry_space_group_name_H-M   'P 1'
_cell_length_a   7.12301621
_cell_length_b   8.30546700
_cell_length_c   9.78598854
_cell_angle_alpha   90.00000000
_cell_angle_beta   110.13180746
_cell_angle_gamma   90.00000000
_symmetry_Int_Tables_number   1
_chemical_formula_structural   LiNiP2O7
_chemical_formula_sum   'Li4 Ni4 P8 O28'
_cell_volume   543.56761046
_cell_formula_units_Z   4
loop_
 _symmetry_equiv_pos_site_id
 _symmetry_equiv_pos_as_xyz
  1  'x, y, z'
loop_
 _atom_site_type_symbol
 _atom_site_label
 _atom_site_symmetry_multiplicity
 _atom_site_fract_x
 _atom_site_fract_y
 _atom_site_fract_z
 _atom_site_occupancy
  Li  Li0  1  0.17758700  0.62595300  0.74384600  1
  Li  Li1  1  0.17758800  0.87404700  0.24384500  1
  Li  Li2  1  0.82241300  0.12595300  0.75615400  1
  Li  Li3  1  0.82241300  0.37404700  0.25615500  1
  Ni  Ni0  1  0.22744300  0.99897100  0.75023500  1
  Ni  Ni1  1  0.22744200  0.50102900  0.25023500  1
  Ni  Ni2  1  0.77255800  0.49897100  0.74976400  1
  Ni  Ni3  1  0.77255700  0.00102900  0.24976400  1
  P  P0  1  0.80918800  0.68858300  0.05917200  1
  P  P1  1  0.80918800  0.81141600  0.55917300  1
  P  P2  1  0.40259300  0.78002400  0.05546000  1
  P  P3  1  0.59740600  0.28002300  0.44454000  1
  P  P4  1  0.19081300  0.31141700  0.94082800  1
  P  P5  1  0.19081200  0.18858300  0.44082800  1
  P  P6  1  0.40259400  0.71997700  0.55546000  1
  P  P7  1  0.59740700  0.21997700  0.94454000  1
  O  O0  1  0.27484400  0.81278700  0.62667100  1
  O  O1  1  0.88228200  0.85404700  0.12475500  1
  O  O2  1  0.92377800  0.94859300  0.65871100  1
  O  O3  1  0.80675200  0.82752300  0.40449000  1
  O  O4  1  0.07622300  0.44859300  0.84129000  1
  O  O5  1  0.11771700  0.14595300  0.87524400  1
  O  O6  1  0.07622300  0.05140700  0.34129000  1
  O  O7  1  0.19324800  0.17247700  0.59550900  1
  O  O8  1  0.27995600  0.80349100  0.89435700  1
  O  O9  1  0.11771700  0.35404700  0.37524500  1
  O  O10  1  0.41481500  0.33779800  0.93766600  1
  O  O11  1  0.92377700  0.55140700  0.15871000  1
  O  O12  1  0.19324700  0.32752300  0.09550900  1
  O  O13  1  0.51976900  0.06689800  0.85726000  1
  O  O14  1  0.27995600  0.69650900  0.39435700  1
  O  O15  1  0.48023000  0.56689800  0.64274000  1
  O  O16  1  0.41481500  0.16220200  0.43766500  1
  O  O17  1  0.27484400  0.68721400  0.12667200  1
  O  O18  1  0.72004400  0.19650900  0.10564200  1
  O  O19  1  0.58518500  0.83779800  0.56233500  1
  O  O20  1  0.51977000  0.43310100  0.35726000  1
  O  O21  1  0.72004300  0.30349100  0.60564200  1
  O  O22  1  0.48023100  0.93310100  0.14274000  1
  O  O23  1  0.80675300  0.67247700  0.90449100  1
  O  O24  1  0.72515500  0.18721300  0.37332800  1
  O  O25  1  0.58518400  0.66220200  0.06233500  1
  O  O26  1  0.88228300  0.64595300  0.62475500  1
  O  O27  1  0.72515600  0.31278700  0.87332900  1
loop_
_geom_bond_atom_site_label_1
_geom_bond_atom_site_label_2
_geom_bond_distance
_geom_bond_site_symmetry_2
Li0 O4 2.018533 1_555
Li0 O26 2.030484 1_455
Li0 O8 2.033736 1_555
Li0 O0 2.179336 1_555
Li1 O6 2.018542 1_565
Li1 O1 2.030494 1_455
Li1 O14 2.033741 1_555
Li1 O17 2.179314 1_555
Li2 O2 2.018531 1_545
Li2 O5 2.030482 1_655
Li2 O21 2.033743 1_555
Li2 O27 2.179336 1_555
Li3 O11 2.018539 1_555
Li3 O9 2.030482 1_655
Li3 O18 2.033748 1_555
Li3 O24 2.179327 1_555
Ni0 O7 2.043213 1_565
Ni0 O0 2.061159 1_555
Ni0 O13 2.061493 1_565
Ni0 O5 2.062966 1_565
Ni0 O2 2.079017 1_455
Ni0 O8 2.098059 1_555
Ni1 O12 2.043213 1_555
Ni1 O17 2.061161 1_555
Ni1 O20 2.061507 1_555
Ni1 O9 2.062969 1_555
Ni1 O11 2.079017 1_455
Ni1 O14 2.098059 1_555
Ni2 O23 2.043220 1_555
Ni2 O27 2.061168 1_555
Ni2 O15 2.061503 1_555
Ni2 O26 2.062962 1_555
Ni2 O4 2.079018 1_655
Ni2 O21 2.098058 1_555
Ni3 O3 2.043213 1_545
Ni3 O24 2.061161 1_555
Ni3 O22 2.061493 1_545
Ni3 O1 2.062962 1_545
Ni3 O6 2.079024 1_655
Ni3 O18 2.098059 1_555
O0 P6 1.531128 1_555
O1 P0 1.530209 1_555
O2 P1 1.538118 1_555
O3 P1 1.513765 1_555
O4 P4 1.538112 1_555
O5 P4 1.530215 1_555
O6 P5 1.538109 1_555
O7 P5 1.513744 1_555
O8 P2 1.529242 1_556
O9 P5 1.530210 1_555
O10 P7 1.610420 1_555
O10 P4 1.621356 1_555
O11 P0 1.538109 1_555
O12 P4 1.513749 1_554
O13 P7 1.525335 1_555
O14 P6 1.529244 1_555
O15 P6 1.525332 1_555
O16 P3 1.610412 1_555
O16 P5 1.621366 1_555
O17 P2 1.531129 1_555
O18 P7 1.529235 1_554
O19 P6 1.610412 1_555
O19 P1 1.621364 1_555
O20 P3 1.525325 1_555
O21 P3 1.529235 1_555
O22 P2 1.525321 1_555
O23 P0 1.513747 1_556
O24 P3 1.531129 1_555
O25 P2 1.610417 1_555
O25 P0 1.621373 1_555
O26 P1 1.530200 1_555
O27 P7 1.531123 1_555
