# generated using pymatgen
data_SrB2IrRh
_symmetry_space_group_name_H-M   'P 1'
_cell_length_a   7.12900666
_cell_length_b   6.14673582
_cell_length_c   5.60137841
_cell_angle_alpha   74.55789161
_cell_angle_beta   56.21076580
_cell_angle_gamma   49.23132599
_symmetry_Int_Tables_number   1
_chemical_formula_structural   SrB2IrRh
_chemical_formula_sum   'Sr2 B4 Ir2 Rh2'
_cell_volume   152.65310300
_cell_formula_units_Z   2
loop_
 _symmetry_equiv_pos_site_id
 _symmetry_equiv_pos_as_xyz
  1  'x, y, z'
loop_
 _atom_site_type_symbol
 _atom_site_label
 _atom_site_symmetry_multiplicity
 _atom_site_fract_x
 _atom_site_fract_y
 _atom_site_fract_z
 _atom_site_occupancy
  Sr  Sr0  1  0.00195073  0.00195073  0.99804927  1
  Sr  Sr1  1  0.25195073  0.25195073  0.24804927  1
  B  B0  1  0.32212761  0.67867389  0.33280451  1
  B  B1  1  0.58360601  0.91719549  0.57132611  1
  B  B2  1  0.67867389  0.32212761  0.66639399  1
  B  B3  1  0.91719549  0.58360601  0.92787239  1
  Ir  Ir0  1  0.62941196  0.62941196  0.37058804  1
  Ir  Ir1  1  0.87941196  0.87941196  0.62058804  1
  Rh  Rh0  1  0.61783581  0.61783581  0.88216419  1
  Rh  Rh1  1  0.36783581  0.36783581  0.63216419  1
loop_
_geom_bond_atom_site_label_1
_geom_bond_atom_site_label_2
_geom_bond_distance
_geom_bond_site_symmetry_2
B0 Ir1 2.096766 1_455
B0 Rh0 2.123654 1_554
B0 Ir0 2.133212 1_555
B0 Rh1 2.158006 1_555
B0 Sr0 3.086625 1_564
B0 Sr1 3.156521 1_565
B0 Sr1 3.161752 1_555
B1 Ir0 2.096766 1_555
B1 Rh1 2.123654 1_565
B1 Ir1 2.133212 1_555
B1 Rh0 2.158006 1_555
B1 Sr1 3.086625 1_565
B1 Sr0 3.156521 1_664
B1 Sr0 3.161752 1_565
B2 Ir1 2.096766 1_545
B2 Rh0 2.123654 1_555
B2 Ir0 2.133211 1_555
B2 Rh1 2.158006 1_555
B2 Sr0 3.086625 1_655
B2 Sr1 3.156521 1_655
B2 Sr1 3.161752 1_556
B3 Ir0 2.096766 1_556
B3 Rh1 2.123654 1_655
B3 Ir1 2.133211 1_555
B3 Rh0 2.158006 1_555
B3 Sr1 3.086625 1_656
B3 Sr0 3.156521 1_665
B3 Sr0 3.161752 1_655
Ir0 Sr1 3.092337 1_565
Ir0 Sr1 3.092338 1_655
Ir1 Sr0 3.092337 1_664
Ir1 Sr0 3.092338 1_665
Rh0 Sr0 3.062837 1_655
Rh0 Sr0 3.062838 1_565
Rh1 Sr1 3.062837 1_556
Rh1 Sr1 3.062838 1_555
