# generated using pymatgen
data_RbZnGaF6
_symmetry_space_group_name_H-M   'P 1'
_cell_length_a   7.25507500
_cell_length_b   7.25507437
_cell_length_c   7.25507450
_cell_angle_alpha   120.75389648
_cell_angle_beta   119.50400787
_cell_angle_gamma   89.78021694
_symmetry_Int_Tables_number   1
_chemical_formula_structural   RbZnGaF6
_chemical_formula_sum   'Rb2 Zn2 Ga2 F12'
_cell_volume   269.46041201
_cell_formula_units_Z   2
loop_
 _symmetry_equiv_pos_site_id
 _symmetry_equiv_pos_as_xyz
  1  'x, y, z'
loop_
 _atom_site_type_symbol
 _atom_site_label
 _atom_site_symmetry_multiplicity
 _atom_site_fract_x
 _atom_site_fract_y
 _atom_site_fract_z
 _atom_site_occupancy
  Rb  Rb0  1  0.36639599  0.11639599  0.25000000  1
  Rb  Rb1  1  0.63360401  0.88360401  0.75000000  1
  Zn  Zn0  1  0.00000000  0.50000000  0.00000000  1
  Zn  Zn1  1  0.00000000  0.00000000  0.50000000  1
  Ga  Ga0  1  0.00000000  0.50000000  0.50000000  1
  Ga  Ga1  1  0.50000000  0.50000000  0.00000000  1
  F  F0  1  0.30811391  0.55811391  0.75000000  1
  F  F1  1  0.92026967  0.17026967  0.75000000  1
  F  F2  1  0.33415263  0.18841291  0.76837814  1
  F  F3  1  0.92003477  0.56577548  0.73162186  1
  F  F4  1  0.33415263  0.56577548  0.14574071  1
  F  F5  1  0.92003477  0.18841291  0.35425929  1
  F  F6  1  0.69188609  0.44188609  0.25000000  1
  F  F7  1  0.07973033  0.82973033  0.25000000  1
  F  F8  1  0.66584737  0.81158709  0.23162186  1
  F  F9  1  0.07996523  0.43422452  0.26837814  1
  F  F10  1  0.66584737  0.43422452  0.85425929  1
  F  F11  1  0.07996523  0.81158709  0.64574071  1
loop_
_geom_bond_atom_site_label_1
_geom_bond_atom_site_label_2
_geom_bond_distance
_geom_bond_site_symmetry_2
F0 Ga1 1.922524 1_556
F0 Ga0 1.922524 1_555
F0 Rb1 3.346001 1_555
F1 Zn0 1.971508 1_656
F1 Zn1 1.971508 1_655
F1 Rb1 2.946890 1_545
F2 Ga1 1.877813 1_556
F2 Zn1 2.047192 1_555
F2 Rb1 3.094345 1_545
F3 Ga0 1.877811 1_655
F3 Zn0 2.047197 1_656
F3 Rb1 3.094339 1_555
F4 Ga1 1.877818 1_555
F4 Zn0 2.047191 1_555
F4 Rb1 3.094339 1_555
F5 Ga0 1.877811 1_655
F5 Zn1 2.047197 1_655
F5 Rb1 3.094339 1_544
F6 Ga1 1.922524 1_555
F6 Ga0 1.922524 1_655
F6 Rb0 3.346001 1_555
F7 Zn0 1.971508 1_555
F7 Zn1 1.971508 1_565
F7 Rb0 2.946890 1_565
F8 Ga1 1.877813 1_555
F8 Zn1 2.047192 1_665
F8 Rb0 3.094345 1_565
F9 Ga0 1.877811 1_555
F9 Zn0 2.047197 1_555
F9 Rb0 3.094339 1_555
F10 Ga1 1.877818 1_556
F10 Zn0 2.047191 1_656
F10 Rb0 3.094339 1_555
F11 Ga0 1.877811 1_555
F11 Zn1 2.047197 1_565
F11 Rb0 3.094339 1_566
