# generated using pymatgen
data_Ta4InRe24
_symmetry_space_group_name_H-M   'P 1'
_cell_length_a   8.37459044
_cell_length_b   8.37459040
_cell_length_c   8.37459074
_cell_angle_alpha   109.47122144
_cell_angle_beta   109.47122136
_cell_angle_gamma   109.47122674
_symmetry_Int_Tables_number   1
_chemical_formula_structural   Ta4InRe24
_chemical_formula_sum   'Ta4 In1 Re24'
_cell_volume   452.13571366
_cell_formula_units_Z   1
loop_
 _symmetry_equiv_pos_site_id
 _symmetry_equiv_pos_as_xyz
  1  'x, y, z'
loop_
 _atom_site_type_symbol
 _atom_site_label
 _atom_site_symmetry_multiplicity
 _atom_site_fract_x
 _atom_site_fract_y
 _atom_site_fract_z
 _atom_site_occupancy
  Ta  Ta0  1  0.63262855  1.00000000  1.00000000  1
  Ta  Ta1  1  1.00000000  0.63262855  1.00000000  1
  Ta  Ta2  1  0.00000000  0.00000000  0.63262855  1
  Ta  Ta3  1  0.36737145  0.36737145  0.36737145  1
  In  In0  1  0.00000000  0.00000000  0.00000000  1
  Re  Re0  1  0.39832901  0.68063225  1.00000000  1
  Re  Re1  1  0.71769676  0.31936775  0.31936775  1
  Re  Re2  1  0.39832901  1.00000000  0.68063225  1
  Re  Re3  1  0.68063225  0.39832901  1.00000000  1
  Re  Re4  1  1.00000000  0.39832901  0.68063225  1
  Re  Re5  1  0.31936775  0.71769676  0.31936775  1
  Re  Re6  1  0.31936775  0.31936775  0.71769676  1
  Re  Re7  1  1.00000000  0.68063225  0.39832901  1
  Re  Re8  1  0.68063225  1.00000000  0.39832901  1
  Re  Re9  1  0.60167099  0.60167099  0.28230324  1
  Re  Re10  1  0.28230324  0.60167099  0.60167099  1
  Re  Re11  1  0.60167099  0.28230324  0.60167099  1
  Re  Re12  1  0.37632069  0.19460029  0.00000000  1
  Re  Re13  1  0.18171940  0.80539971  0.80539971  1
  Re  Re14  1  0.37632069  1.00000000  0.19460029  1
  Re  Re15  1  0.19460029  0.37632069  0.00000000  1
  Re  Re16  1  1.00000000  0.37632069  0.19460029  1
  Re  Re17  1  0.80539971  0.18171940  0.80539971  1
  Re  Re18  1  0.80539971  0.80539971  0.18171940  1
  Re  Re19  1  0.00000000  0.19460029  0.37632069  1
  Re  Re20  1  0.19460029  0.00000000  0.37632069  1
  Re  Re21  1  0.62367931  0.62367931  0.81828060  1
  Re  Re22  1  0.81828060  0.62367931  0.62367931  1
  Re  Re23  1  0.62367931  0.81828060  0.62367931  1
loop_
_geom_bond_atom_site_label_1
_geom_bond_atom_site_label_2
_geom_bond_distance
_geom_bond_site_symmetry_2
In0 Re18 3.027209 1_445
In0 Re13 3.027209 1_544
In0 Re17 3.027209 1_454
In0 Re15 3.027216 1_555
In0 Re12 3.027216 1_555
In0 Re16 3.027216 1_455
In0 Re14 3.027216 1_545
In0 Re19 3.027216 1_555
In0 Re20 3.027216 1_555
In0 Re21 3.027217 1_444
In0 Re22 3.027217 1_444
In0 Re23 3.027218 1_444
In0 Ta3 3.076585 1_555
In0 Ta1 3.076585 1_444
In0 Ta0 3.076585 1_444
In0 Ta2 3.076586 1_554
Re0 Re15 2.550878 1_556
Re0 Re14 2.732450 1_556
Re0 Re13 2.732455 1_555
Re0 Ta0 2.739488 1_555
Re0 Re6 2.834689 1_555
Re0 Re9 2.834689 1_556
Re0 Re21 2.852348 1_555
Re0 Re18 2.852353 1_556
Re0 Re4 2.906789 1_455
Re0 Re8 2.906789 1_556
Re0 Re10 2.906789 1_555
Re0 Re5 2.906789 1_556
Re0 Ta1 3.224194 1_455
Re1 Re22 2.550876 1_555
Re1 Re14 2.732450 1_545
Re1 Re12 2.732450 1_555
Re1 Ta0 2.739488 1_544
Re1 Re7 2.834688 1_555
Re1 Re4 2.834689 1_555
Re1 Re16 2.852354 1_555
Re1 Re19 2.852354 1_655
Re1 Re8 2.906789 1_545
Re1 Re9 2.906789 1_555
Re1 Re11 2.906789 1_555
Re1 Re3 2.906789 1_554
Re1 Ta3 3.224194 1_555
Re2 Re20 2.550879 1_565
Re2 Ta0 2.739488 1_555
Re2 Re5 2.834689 1_555
Re2 Re23 2.852348 1_555
Re2 Re7 2.906789 1_455
Re2 Re3 2.906789 1_565
Re2 Re6 2.906789 1_565
Re2 Ta2 3.224194 1_565
Re3 Ta1 2.739488 1_555
Re3 Re6 2.834689 1_555
Re3 Re9 2.834689 1_556
Re3 Re7 2.906789 1_556
Re3 Ta0 3.224194 1_545
Re4 Ta1 2.739488 1_555
Re4 Re8 2.906789 1_545
Re4 Re6 2.906789 1_655
Re4 Ta2 3.224194 1_655
Re5 Ta1 2.739488 1_454
Re5 Re8 2.834688 1_555
Re5 Re7 2.906789 1_455
Re5 Re9 2.906789 1_555
Re5 Ta3 3.224194 1_555
Re6 Ta2 2.739488 1_555
Re6 Ta3 3.224194 1_555
Re7 Ta2 2.739488 1_665
Re7 Re9 2.906789 1_555
Re7 Ta1 3.224194 1_554
Re8 Ta2 2.739488 1_665
Re8 Re9 2.906789 1_555
Re8 Ta0 3.224194 1_554
Re9 Ta3 2.739488 1_555
Re9 Ta2 3.224193 1_665
Re10 Re13 2.550885 1_555
Re10 Re23 2.732452 1_555
Re10 Re21 2.732452 1_555
Re10 Ta3 2.739488 1_555
Re10 Re4 2.834688 1_455
Re10 Re7 2.834689 1_455
Re10 Re19 2.852353 1_555
Re10 Re16 2.852353 1_455
Re10 Re2 2.906789 1_555
Re10 Re6 2.906789 1_555
Re10 Re5 2.906789 1_555
Re10 Ta0 3.224194 1_555
Re11 Re17 2.550885 1_555
Re11 Re22 2.732452 1_555
Re11 Re21 2.732452 1_555
Re11 Ta3 2.739488 1_555
Re11 Re2 2.834688 1_545
Re11 Re8 2.834689 1_545
Re11 Re20 2.852353 1_555
Re11 Re14 2.852353 1_545
Re11 Re4 2.906789 1_555
Re11 Re6 2.906789 1_555
Re11 Re3 2.906789 1_555
Re11 Ta1 3.224194 1_555
Re12 Re15 2.485144 1_555
Re12 Re3 2.550878 1_554
Re12 Re13 2.661285 1_544
Re12 Re14 2.661285 1_545
Re12 Re2 2.732450 1_544
Re12 Re9 2.852353 1_555
Re12 Re6 2.852354 1_554
Re12 Ta2 2.970327 1_554
Re12 Ta3 2.970327 1_555
Re12 Ta0 3.097633 1_544
Re13 Re22 2.485130 1_455
Re13 Re14 2.661285 1_556
Re13 Re2 2.732455 1_555
Re13 Re4 2.852353 1_455
Re13 Re7 2.852353 1_455
Re13 Ta1 2.970322 1_455
Re13 Ta2 2.970322 1_565
Re13 Ta0 3.097640 1_555
Re14 Re20 2.485144 1_565
Re14 Re8 2.550879 1_555
Re14 Re5 2.852354 1_555
Re14 Ta1 2.970326 1_454
Re14 Ta3 2.970327 1_565
Re14 Ta0 3.097633 1_554
Re15 Re17 2.661285 1_454
Re15 Re16 2.661285 1_455
Re15 Re5 2.732450 1_555
Re15 Re4 2.732450 1_454
Re15 Re9 2.852353 1_555
Re15 Re6 2.852354 1_554
Re15 Ta2 2.970327 1_554
Re15 Ta3 2.970327 1_555
Re15 Ta1 3.097633 1_454
Re16 Re19 2.485144 1_655
Re16 Re7 2.550879 1_555
Re16 Re17 2.661285 1_554
Re16 Re5 2.732450 1_655
Re16 Re3 2.732450 1_554
Re16 Ta0 2.970326 1_544
Re16 Ta3 2.970327 1_655
Re16 Ta1 3.097633 1_554
Re17 Re23 2.485130 1_545
Re17 Re4 2.732455 1_555
Re17 Re3 2.732455 1_555
Re17 Re2 2.852353 1_545
Re17 Re8 2.852353 1_545
Re17 Ta0 2.970322 1_545
Re17 Ta2 2.970322 1_655
Re17 Ta1 3.097640 1_555
Re18 Re21 2.485131 1_554
Re18 Re9 2.550885 1_555
Re18 Re19 2.661285 1_665
Re18 Re20 2.661285 1_665
Re18 Re8 2.732455 1_555
Re18 Re7 2.732455 1_555
Re18 Re3 2.852353 1_554
Re18 Ta0 2.970322 1_554
Re18 Ta1 2.970322 1_554
Re18 Ta2 3.097640 1_665
Re19 Re4 2.550879 1_455
Re19 Re20 2.661285 1_555
Re19 Re8 2.732450 1_445
Re19 Re6 2.732450 1_555
Re19 Ta0 2.970327 1_444
Re19 Ta3 2.970327 1_555
Re19 Ta2 3.097633 1_555
Re20 Re7 2.732450 1_445
Re20 Re6 2.732450 1_555
Re20 Re5 2.852354 1_545
Re20 Ta1 2.970327 1_444
Re20 Ta3 2.970327 1_555
Re20 Ta2 3.097633 1_555
Re21 Re6 2.550875 1_555
Re21 Re23 2.661299 1_555
Re21 Re22 2.661299 1_555
Re21 Re3 2.852348 1_555
Re21 Ta0 2.970326 1_555
Re21 Ta1 2.970326 1_555
Re21 Ta3 3.097639 1_555
Re22 Re23 2.661299 1_555
Re22 Re9 2.732452 1_555
Re22 Re7 2.852348 1_555
Re22 Re4 2.852348 1_555
Re22 Ta2 2.970325 1_665
Re22 Ta1 2.970326 1_555
Re22 Ta3 3.097639 1_555
Re23 Re5 2.550876 1_555
Re23 Re9 2.732452 1_555
Re23 Re8 2.852348 1_555
Re23 Ta2 2.970325 1_665
Re23 Ta0 2.970326 1_555
Re23 Ta3 3.097639 1_555
