# generated using pymatgen
data_Rb8Zr(SeO4)6
_symmetry_space_group_name_H-M   'P 1'
_cell_length_a   7.96813043
_cell_length_b   9.93086191
_cell_length_c   10.36117904
_cell_angle_alpha   61.36460490
_cell_angle_beta   100.03555580
_cell_angle_gamma   111.32269512
_symmetry_Int_Tables_number   1
_chemical_formula_structural   Rb8Zr(SeO4)6
_chemical_formula_sum   'Rb8 Zr1 Se6 O24'
_cell_volume   670.34313063
_cell_formula_units_Z   1
loop_
 _symmetry_equiv_pos_site_id
 _symmetry_equiv_pos_as_xyz
  1  'x, y, z'
loop_
 _atom_site_type_symbol
 _atom_site_label
 _atom_site_symmetry_multiplicity
 _atom_site_fract_x
 _atom_site_fract_y
 _atom_site_fract_z
 _atom_site_occupancy
  Rb  Rb0  1  0.63257144  0.21448366  1.00000000  1
  Rb  Rb1  1  0.36742856  0.78551534  0.00000000  1
  Rb  Rb2  1  0.50000100  0.33540336  0.32919328  1
  Rb  Rb3  1  0.89099641  0.13533107  0.34129107  1
  Rb  Rb4  1  0.10900359  0.52337586  0.34129107  1
  Rb  Rb5  1  0.89099741  0.47662414  0.65870893  1
  Rb  Rb6  1  0.10900259  0.86466793  0.65870893  1
  Rb  Rb7  1  0.50000000  0.66459764  0.67080672  1
  Zr  Zr0  1  0.00000000  0.00000000  0.00000000  1
  Se  Se0  1  0.20692271  0.38640503  1.00000000  1
  Se  Se1  1  0.79307729  0.61359497  0.00000000  1
  Se  Se2  1  0.71635206  0.73448653  0.31822120  1
  Se  Se3  1  0.28364794  0.94729227  0.31822120  1
  Se  Se4  1  0.71635206  0.05270773  0.68177880  1
  Se  Se5  1  0.28364794  0.26551247  0.68177880  1
  O  O0  1  0.02975419  0.22234347  0.00000000  1
  O  O1  1  0.38652463  0.34412797  1.00000000  1
  O  O2  1  0.61347537  0.65587103  0.00000000  1
  O  O3  1  0.97024581  0.77765553  1.00000000  1
  O  O4  1  0.80156654  0.90478355  0.15799049  1
  O  O5  1  0.19843246  0.93722596  0.15799049  1
  O  O6  1  0.18793318  0.40375913  0.14622976  1
  O  O7  1  0.81206582  0.45001211  0.14622976  1
  O  O8  1  0.50253367  0.03076929  0.29591306  1
  O  O9  1  0.49746633  0.67331665  0.29591306  1
  O  O10  1  0.19444482  0.05819878  0.34181588  1
  O  O11  1  0.80555418  0.59998534  0.34181588  1
  O  O12  1  0.22411585  0.76145217  0.45166810  1
  O  O13  1  0.77588415  0.78687974  0.45166810  1
  O  O14  1  0.22411585  0.21312026  0.54833190  1
  O  O15  1  0.77588515  0.23854783  0.54833190  1
  O  O16  1  0.19444582  0.40001466  0.65818412  1
  O  O17  1  0.80555418  0.94180122  0.65818412  1
  O  O18  1  0.50253267  0.32668335  0.70408694  1
  O  O19  1  0.49746633  0.96923071  0.70408694  1
  O  O20  1  0.18793318  0.54998789  0.85377124  1
  O  O21  1  0.81206582  0.59624087  0.85377124  1
  O  O22  1  0.80156654  0.06277304  0.84200851  1
  O  O23  1  0.19843346  0.09521645  0.84200851  1
loop_
_geom_bond_atom_site_label_1
_geom_bond_atom_site_label_2
_geom_bond_distance
_geom_bond_site_symmetry_2
O0 Se0 1.724745 1_554
O0 Zr0 2.133316 1_555
O0 Rb0 3.137264 1_454
O1 Se0 1.631334 1_555
O1 Rb0 2.708682 1_555
O1 Rb2 3.340316 1_556
O1 Rb7 3.340319 1_555
O2 Se1 1.631328 1_555
O2 Rb1 2.708682 1_555
O2 Rb7 3.340308 1_554
O2 Rb2 3.340311 1_555
O3 Se1 1.724738 1_556
O3 Zr0 2.133326 1_666
O3 Rb1 3.137264 1_656
O4 Se2 1.715828 1_555
O4 Zr0 2.098802 1_665
O4 Rb0 3.371983 1_564
O5 Se3 1.715829 1_555
O5 Zr0 2.098796 1_565
O5 Rb1 3.371996 1_555
O6 Se0 1.642345 1_554
O6 Rb2 2.930697 1_555
O6 Rb3 2.950387 1_455
O6 Rb4 3.029648 1_555
O6 Rb1 3.165526 1_555
O7 Se1 1.642337 1_555
O7 Rb2 2.930676 1_555
O7 Rb4 2.950383 1_655
O7 Rb3 3.029676 1_555
O7 Rb0 3.165541 1_554
O8 Se3 1.639492 1_545
O8 Rb0 2.858950 1_554
O8 Rb3 2.916094 1_555
O8 Rb2 3.212212 1_555
O9 Se2 1.639493 1_555
O9 Rb1 2.858950 1_555
O9 Rb4 2.916094 1_555
O9 Rb2 3.212208 1_555
O10 Se3 1.632792 1_545
O10 Rb3 2.787730 1_455
O10 Rb2 2.900838 1_555
O10 Rb6 2.952471 1_545
O11 Se2 1.632786 1_555
O11 Rb4 2.787749 1_655
O11 Rb2 2.900826 1_555
O11 Rb5 2.952472 1_555
O12 Se3 1.639806 1_555
O12 Rb4 2.896215 1_555
O12 Rb7 2.935617 1_555
O12 Rb6 3.157668 1_555
O12 Rb5 3.218186 1_455
O13 Se2 1.639806 1_555
O13 Rb3 2.896197 1_565
O13 Rb7 2.935621 1_555
O13 Rb5 3.157660 1_555
O13 Rb6 3.218188 1_655
O14 Se5 1.639800 1_555
O14 Rb6 2.896205 1_545
O14 Rb2 2.935625 1_555
O14 Rb4 3.157656 1_555
O14 Rb3 3.218196 1_455
O15 Se4 1.639807 1_555
O15 Rb5 2.896215 1_555
O15 Rb2 2.935619 1_555
O15 Rb3 3.157667 1_555
O15 Rb4 3.218186 1_655
O16 Se5 1.632795 1_555
O16 Rb5 2.787742 1_455
O16 Rb7 2.900836 1_555
O16 Rb4 2.952471 1_555
O17 Se4 1.632786 1_565
O17 Rb6 2.787736 1_655
O17 Rb7 2.900824 1_555
O17 Rb3 2.952470 1_565
O18 Se5 1.639486 1_555
O18 Rb0 2.858953 1_555
O18 Rb5 2.916109 1_555
O18 Rb7 3.212212 1_555
O19 Se4 1.639492 1_565
O19 Rb1 2.858950 1_556
O19 Rb6 2.916101 1_555
O19 Rb7 3.212205 1_555
O20 Se0 1.642335 1_555
O20 Rb7 2.930693 1_555
O20 Rb5 2.950381 1_455
O20 Rb6 3.029669 1_555
O20 Rb1 3.165526 1_556
O21 Se1 1.642333 1_556
O21 Rb7 2.930691 1_555
O21 Rb6 2.950388 1_655
O21 Rb5 3.029665 1_555
O21 Rb0 3.165533 1_555
O22 Se4 1.715814 1_555
O22 Zr0 2.098805 1_656
O22 Rb0 3.371999 1_555
O23 Se5 1.715818 1_555
O23 Zr0 2.098809 1_556
O23 Rb1 3.371991 1_546
