# generated using pymatgen
data_Ca7Mn2NbN9
_symmetry_space_group_name_H-M   'P 1'
_cell_length_a   9.96011419
_cell_length_b   6.06166966
_cell_length_c   8.98028066
_cell_angle_alpha   87.94973311
_cell_angle_beta   90.00000000
_cell_angle_gamma   90.00000000
_symmetry_Int_Tables_number   1
_chemical_formula_structural   Ca7Mn2NbN9
_chemical_formula_sum   'Ca14 Mn4 Nb2 N18'
_cell_volume   541.83665125
_cell_formula_units_Z   2
loop_
 _symmetry_equiv_pos_site_id
 _symmetry_equiv_pos_as_xyz
  1  'x, y, z'
loop_
 _atom_site_type_symbol
 _atom_site_label
 _atom_site_symmetry_multiplicity
 _atom_site_fract_x
 _atom_site_fract_y
 _atom_site_fract_z
 _atom_site_occupancy
  Ca  Ca0  1  0.93419400  0.42686242  0.16287016  1
  Ca  Ca1  1  0.07992516  0.24790962  0.49296236  1
  Ca  Ca2  1  0.25000000  0.08685600  0.79923592  1
  Ca  Ca3  1  0.43419400  0.57313758  0.83712984  1
  Ca  Ca4  1  0.57992516  0.75209038  0.50703764  1
  Ca  Ca5  1  0.58144081  0.06813040  0.82682463  1
  Ca  Ca6  1  0.91855919  0.06813040  0.82682463  1
  Ca  Ca7  1  0.41855919  0.93186960  0.17317537  1
  Ca  Ca8  1  0.42007484  0.24790962  0.49296236  1
  Ca  Ca9  1  0.08144081  0.93186960  0.17317537  1
  Ca  Ca10  1  0.92007484  0.75209038  0.50703764  1
  Ca  Ca11  1  0.06580600  0.57313758  0.83712984  1
  Ca  Ca12  1  0.75000000  0.91314400  0.20076408  1
  Ca  Ca13  1  0.56580600  0.42686242  0.16287016  1
  Mn  Mn0  1  0.25000000  0.32386795  0.06303045  1
  Mn  Mn1  1  0.75000000  0.46555986  0.72811473  1
  Mn  Mn2  1  0.75000000  0.67613205  0.93696955  1
  Mn  Mn3  1  0.25000000  0.53444014  0.27188527  1
  Nb  Nb0  1  0.75000000  0.28112600  0.44300382  1
  Nb  Nb1  1  0.25000000  0.71887400  0.55699618  1
  N  N0  1  0.40269466  0.23080218  0.98224761  1
  N  N1  1  0.25000000  0.22673333  0.26723492  1
  N  N2  1  0.90156216  0.11379299  0.34238653  1
  N  N3  1  0.60723796  0.36465047  0.62922388  1
  N  N4  1  0.75000000  0.55691364  0.33392589  1
  N  N5  1  0.25000000  0.63372473  0.06822007  1
  N  N6  1  0.89276204  0.36465047  0.62922388  1
  N  N7  1  0.39276204  0.63534953  0.37077612  1
  N  N8  1  0.75000000  0.36627527  0.93177993  1
  N  N9  1  0.09843784  0.88620701  0.65761347  1
  N  N10  1  0.75000000  0.77326667  0.73276508  1
  N  N11  1  0.10723796  0.63534953  0.37077612  1
  N  N12  1  0.59730534  0.76919782  0.01775239  1
  N  N13  1  0.25000000  0.44308636  0.66607411  1
  N  N14  1  0.40156216  0.88620701  0.65761347  1
  N  N15  1  0.59843784  0.11379299  0.34238653  1
  N  N16  1  0.09730534  0.23080218  0.98224761  1
  N  N17  1  0.90269466  0.76919782  0.01775239  1
loop_
_geom_bond_atom_site_label_1
_geom_bond_atom_site_label_2
_geom_bond_distance
_geom_bond_site_symmetry_2
Ca0 N17 2.430925 1_555
Ca0 N2 2.467180 1_555
Ca0 N4 2.536441 1_555
Ca0 N16 2.611651 1_654
Ca0 N8 2.803896 1_554
Ca0 N11 2.867480 1_655
Ca1 N6 2.352699 1_455
Ca1 N2 2.392503 1_455
Ca1 N11 2.570840 1_555
Ca1 N9 2.606814 1_545
Ca1 N13 2.611052 1_555
Ca1 N1 2.648345 1_555
Ca2 N14 2.342287 1_545
Ca2 N9 2.342287 1_545
Ca2 N0 2.424468 1_555
Ca2 N16 2.424468 1_555
Ca2 N13 2.430646 1_555
Ca3 N0 2.430925 1_555
Ca3 N14 2.467180 1_555
Ca3 N13 2.536441 1_555
Ca3 N12 2.611651 1_556
Ca3 N5 2.803896 1_556
Ca3 N3 2.867480 1_555
Ca4 N7 2.352699 1_555
Ca4 N14 2.392503 1_555
Ca4 N3 2.570840 1_555
Ca4 N15 2.606814 1_565
Ca4 N4 2.611052 1_555
Ca4 N10 2.648345 1_555
Ca5 N12 2.454775 1_546
Ca5 N0 2.487664 1_555
Ca5 N3 2.493463 1_555
Ca5 N10 2.614344 1_545
Ca5 N14 2.618192 1_545
Ca5 N8 2.663647 1_555
Ca6 N17 2.454775 1_546
Ca6 N16 2.487664 1_655
Ca6 N6 2.493463 1_555
Ca6 N10 2.614344 1_545
Ca6 N9 2.618192 1_645
Ca6 N8 2.663647 1_555
Ca7 N0 2.454775 1_564
Ca7 N12 2.487664 1_555
Ca7 N7 2.493463 1_555
Ca7 N1 2.614344 1_565
Ca7 N15 2.618192 1_565
Ca7 N5 2.663647 1_555
Ca8 N3 2.352699 1_555
Ca8 N15 2.392503 1_555
Ca8 N7 2.570840 1_555
Ca8 N14 2.606814 1_545
Ca8 N13 2.611052 1_555
Ca8 N1 2.648345 1_555
Ca9 N16 2.454775 1_564
Ca9 N17 2.487664 1_455
Ca9 N11 2.493463 1_555
Ca9 N1 2.614344 1_565
Ca9 N2 2.618192 1_465
Ca9 N5 2.663647 1_555
Ca10 N11 2.352699 1_655
Ca10 N9 2.392503 1_655
Ca10 N6 2.570840 1_555
Ca10 N2 2.606814 1_565
Ca10 N4 2.611052 1_555
Ca10 N10 2.648345 1_555
Ca11 N16 2.430925 1_555
Ca11 N9 2.467180 1_555
Ca11 N13 2.536441 1_555
Ca11 N17 2.611651 1_456
Ca11 N5 2.803896 1_556
Ca11 N6 2.867480 1_455
Ca12 N2 2.342287 1_565
Ca12 N15 2.342287 1_565
Ca12 N17 2.424468 1_555
Ca12 N12 2.424468 1_555
Ca12 N4 2.430646 1_555
Ca13 N12 2.430925 1_555
Ca13 N15 2.467180 1_555
Ca13 N4 2.536441 1_555
Ca13 N0 2.611651 1_554
Ca13 N8 2.803896 1_554
Ca13 N7 2.867480 1_555
Mn0 N0 1.785165 1_554
Mn0 N16 1.785165 1_554
Mn0 N5 1.880494 1_555
Mn0 N1 1.905858 1_555
Mn1 N3 1.795427 1_555
Mn1 N6 1.795427 1_555
Mn1 N10 1.867178 1_555
Mn1 N8 1.904881 1_555
Mn2 N17 1.785165 1_556
Mn2 N12 1.785165 1_556
Mn2 N8 1.880494 1_555
Mn2 N10 1.905858 1_555
Mn3 N11 1.795427 1_555
Mn3 N7 1.795427 1_555
Mn3 N1 1.867178 1_555
Mn3 N5 1.904881 1_555
N2 Nb0 2.046871 1_555
N3 Nb0 2.266144 1_555
N4 Nb0 1.907103 1_555
N6 Nb0 2.266144 1_555
N7 Nb1 2.266144 1_555
N9 Nb1 2.046871 1_555
N11 Nb1 2.266144 1_555
N13 Nb1 1.907103 1_555
N14 Nb1 2.046871 1_555
N15 Nb0 2.046871 1_555
