# generated using pymatgen
data_LiCaPRh2
_symmetry_space_group_name_H-M   'P 1'
_cell_length_a   5.59436526
_cell_length_b   5.59436444
_cell_length_c   5.59436580
_cell_angle_alpha   135.91181942
_cell_angle_beta   135.91181592
_cell_angle_gamma   64.11670263
_symmetry_Int_Tables_number   1
_chemical_formula_structural   LiCaPRh2
_chemical_formula_sum   'Li1 Ca1 P1 Rh2'
_cell_volume   83.61026420
_cell_formula_units_Z   1
loop_
 _symmetry_equiv_pos_site_id
 _symmetry_equiv_pos_as_xyz
  1  'x, y, z'
loop_
 _atom_site_type_symbol
 _atom_site_label
 _atom_site_symmetry_multiplicity
 _atom_site_fract_x
 _atom_site_fract_y
 _atom_site_fract_z
 _atom_site_occupancy
  Li  Li0  1  0.61881029  0.61881029  0.00000000  1
  Ca  Ca0  1  0.00250743  0.00250743  0.00000000  1
  P  P0  1  0.35169119  0.35169119  1.00000000  1
  Rh  Rh0  1  0.76349504  0.26349504  0.50000000  1
  Rh  Rh1  1  0.26349504  0.76349504  0.50000000  1
loop_
_geom_bond_atom_site_label_1
_geom_bond_atom_site_label_2
_geom_bond_distance
_geom_bond_site_symmetry_2
Li0 Rh0 2.508180 1_565
Li0 Rh1 2.508180 1_655
Li0 Rh1 2.508181 1_554
Li0 Rh0 2.508181 1_554
Li0 P0 2.532967 1_554
Ca0 Rh0 3.089564 1_444
Ca0 Rh1 3.089565 1_444
Ca0 Rh1 3.089565 1_545
Ca0 Rh0 3.089566 1_455
Ca0 Li0 3.167579 1_556
Ca0 Li0 3.167579 1_455
Ca0 Li0 3.167579 1_545
Ca0 Li0 3.167580 1_444
Ca0 Rh1 3.245520 1_555
Ca0 Rh0 3.245520 1_555
Ca0 Rh0 3.245521 1_454
Ca0 Rh1 3.245521 1_544
Ca0 P0 3.295835 1_443
Ca0 P0 3.295836 1_544
Ca0 P0 3.295836 1_454
Ca0 P0 3.295836 1_555
Ca0 P0 3.311148 1_554
P0 Rh1 2.260106 1_545
P0 Rh0 2.260106 1_455
P0 Rh1 2.260106 1_556
P0 Rh0 2.260107 1_556
