# generated using pymatgen
data_Sr2HgPd2
_symmetry_space_group_name_H-M   'P 1'
_cell_length_a   5.91809448
_cell_length_b   5.91809378
_cell_length_c   5.91809404
_cell_angle_alpha   133.51652167
_cell_angle_beta   119.20868002
_cell_angle_gamma   79.83080295
_symmetry_Int_Tables_number   1
_chemical_formula_structural   Sr2HgPd2
_chemical_formula_sum   'Sr2 Hg1 Pd2'
_cell_volume   126.96670439
_cell_formula_units_Z   1
loop_
 _symmetry_equiv_pos_site_id
 _symmetry_equiv_pos_as_xyz
  1  'x, y, z'
loop_
 _atom_site_type_symbol
 _atom_site_label
 _atom_site_symmetry_multiplicity
 _atom_site_fract_x
 _atom_site_fract_y
 _atom_site_fract_z
 _atom_site_occupancy
  Sr  Sr0  1  0.70077596  0.20077596  0.50000000  1
  Sr  Sr1  1  0.29922404  0.79922404  0.50000000  1
  Hg  Hg0  1  0.00000000  0.00000000  0.00000000  1
  Pd  Pd0  1  0.73085955  0.50000000  0.23085955  1
  Pd  Pd1  1  0.26914045  0.50000000  0.76914045  1
loop_
_geom_bond_atom_site_label_1
_geom_bond_atom_site_label_2
_geom_bond_distance
_geom_bond_site_symmetry_2
Hg0 Pd0 2.837566 1_444
Hg0 Pd1 2.837566 1_555
Hg0 Pd1 2.837566 1_544
Hg0 Pd0 2.837566 1_455
Hg0 Sr1 3.505492 1_545
Hg0 Sr0 3.505492 1_454
Hg0 Sr0 3.505492 1_555
Hg0 Sr1 3.505492 1_444
Hg0 Sr0 3.582300 1_444
Hg0 Sr1 3.582300 1_555
Hg0 Sr1 3.582300 1_544
Hg0 Sr0 3.582300 1_455
Pd0 Pd1 2.765115 1_554
Pd0 Sr0 3.158633 1_555
Pd0 Sr1 3.158633 1_655
Pd0 Sr0 3.269180 1_565
Pd0 Sr1 3.269180 1_544
Pd0 Sr0 3.269180 1_554
Pd0 Sr1 3.269181 1_555
Pd1 Sr1 3.158633 1_555
Pd1 Sr0 3.158633 1_455
Pd1 Sr1 3.269180 1_545
Pd1 Sr0 3.269180 1_566
Pd1 Sr1 3.269180 1_556
Pd1 Sr0 3.269181 1_555
