# generated using pymatgen
data_Zr5InGeSb2
_symmetry_space_group_name_H-M   'P 1'
_cell_length_a   8.68236180
_cell_length_b   8.69476849
_cell_length_c   5.87938355
_cell_angle_alpha   90.00000000
_cell_angle_beta   90.00000000
_cell_angle_gamma   120.04723052
_symmetry_Int_Tables_number   1
_chemical_formula_structural   Zr5InGeSb2
_chemical_formula_sum   'Zr10 In2 Ge2 Sb4'
_cell_volume   384.19476047
_cell_formula_units_Z   2
loop_
 _symmetry_equiv_pos_site_id
 _symmetry_equiv_pos_as_xyz
  1  'x, y, z'
loop_
 _atom_site_type_symbol
 _atom_site_label
 _atom_site_symmetry_multiplicity
 _atom_site_fract_x
 _atom_site_fract_y
 _atom_site_fract_z
 _atom_site_occupancy
  Zr  Zr0  1  0.26197618  0.00000979  0.25000000  1
  Zr  Zr1  1  0.26197718  0.26196839  0.75000000  1
  Zr  Zr2  1  0.00147897  0.73647393  0.75000000  1
  Zr  Zr3  1  0.00147797  0.26500404  0.25000000  1
  Zr  Zr4  1  0.73774070  0.73580011  0.25000000  1
  Zr  Zr5  1  0.73773870  0.00193959  0.75000000  1
  Zr  Zr6  1  0.33017641  0.66508821  0.99999900  1
  Zr  Zr7  1  0.66694052  0.33347076  0.50000000  1
  Zr  Zr8  1  0.66694052  0.33347076  0.00000000  1
  Zr  Zr9  1  0.33017641  0.66508821  0.50000100  1
  In  In0  1  0.60886870  0.99877313  0.25000000  1
  In  In1  1  0.60886970  0.61009657  0.75000000  1
  Ge  Ge0  1  0.99750008  0.99874954  0.99999900  1
  Ge  Ge1  1  0.99750008  0.99874954  0.50000100  1
  Sb  Sb0  1  0.99851799  0.39185379  0.75000000  1
  Sb  Sb1  1  0.99851799  0.60666420  0.25000000  1
  Sb  Sb2  1  0.39680044  0.39691025  0.25000000  1
  Sb  Sb3  1  0.39680044  0.99988919  0.75000000  1
loop_
_geom_bond_atom_site_label_1
_geom_bond_atom_site_label_2
_geom_bond_distance
_geom_bond_site_symmetry_2
Zr7 Zr8 2.939692 1_556
Zr7 Zr8 2.939692 1_555
In0 Zr4 3.006998 1_555
In0 Zr3 3.012669 1_665
In0 Zr0 3.017245 1_565
In0 Zr9 3.066385 1_555
In0 Zr6 3.066385 1_554
In0 Zr7 3.068237 1_565
In0 Zr8 3.068237 1_565
In0 Zr5 3.140641 1_565
In0 Zr5 3.140641 1_564
In1 Zr5 3.006988 1_565
In1 Zr2 3.012669 1_655
In1 Zr1 3.017243 1_555
In1 Zr6 3.066380 1_555
In1 Zr9 3.066380 1_555
In1 Zr8 3.068231 1_556
In1 Zr7 3.068231 1_555
In1 Zr4 3.140643 1_555
In1 Zr4 3.140643 1_556
Ge0 Zr4 2.703771 1_556
Ge0 Zr5 2.703778 1_565
Ge0 Zr0 2.721815 1_666
Ge0 Zr1 2.721824 1_665
Ge0 Zr2 2.727793 1_655
Ge0 Zr3 2.727803 1_666
Ge1 Zr4 2.703771 1_555
Ge1 Zr5 2.703778 1_565
Ge1 Zr0 2.721815 1_665
Ge1 Zr1 2.721824 1_665
Ge1 Zr2 2.727793 1_655
Ge1 Zr3 2.727803 1_665
Sb0 Zr2 2.983603 1_655
Sb0 Zr5 2.988821 1_555
Sb0 Zr1 3.015750 1_655
Sb0 Zr8 3.040160 1_556
Sb0 Zr7 3.040160 1_555
Sb0 Zr6 3.040656 1_655
Sb0 Zr9 3.040656 1_655
Sb0 Zr3 3.144406 1_656
Sb0 Zr3 3.144406 1_655
Sb1 Zr3 2.983607 1_655
Sb1 Zr4 2.988808 1_555
Sb1 Zr0 3.015757 1_665
Sb1 Zr8 3.040159 1_555
Sb1 Zr7 3.040159 1_555
Sb1 Zr9 3.040661 1_655
Sb1 Zr6 3.040661 1_654
Sb1 Zr2 3.144404 1_654
Sb1 Zr2 3.144404 1_655
Sb2 Zr4 2.951283 1_555
Sb2 Zr3 3.025580 1_555
Sb2 Zr0 3.038744 1_555
Sb2 Zr8 3.043260 1_555
Sb2 Zr7 3.043260 1_555
Sb2 Zr9 3.046776 1_555
Sb2 Zr6 3.046776 1_554
Sb2 Zr1 3.164375 1_555
Sb2 Zr1 3.164375 1_554
Sb3 Zr5 2.951263 1_565
Sb3 Zr2 3.025573 1_555
Sb3 Zr1 3.038760 1_565
Sb3 Zr8 3.043272 1_566
Sb3 Zr7 3.043272 1_565
Sb3 Zr6 3.046763 1_555
Sb3 Zr9 3.046763 1_555
Sb3 Zr0 3.164381 1_566
Sb3 Zr0 3.164381 1_565
