# generated using pymatgen
data_Ba2ScCoO5
_symmetry_space_group_name_H-M   'P 1'
_cell_length_a   5.92791301
_cell_length_b   6.01216022
_cell_length_c   15.61098619
_cell_angle_alpha   90.00000000
_cell_angle_beta   90.00000000
_cell_angle_gamma   90.00000000
_symmetry_Int_Tables_number   1
_chemical_formula_structural   Ba2ScCoO5
_chemical_formula_sum   'Ba8 Sc4 Co4 O20'
_cell_volume   556.36872308
_cell_formula_units_Z   4
loop_
 _symmetry_equiv_pos_site_id
 _symmetry_equiv_pos_as_xyz
  1  'x, y, z'
loop_
 _atom_site_type_symbol
 _atom_site_label
 _atom_site_symmetry_multiplicity
 _atom_site_fract_x
 _atom_site_fract_y
 _atom_site_fract_z
 _atom_site_occupancy
  Ba  Ba0  1  0.00215462  0.49946187  0.11950528  1
  Ba  Ba1  1  0.00215462  0.49946187  0.38049472  1
  Ba  Ba2  1  0.50215462  0.00053813  0.11950528  1
  Ba  Ba3  1  0.50215462  0.00053813  0.38049472  1
  Ba  Ba4  1  0.49784538  0.99946187  0.61950528  1
  Ba  Ba5  1  0.49784538  0.99946187  0.88049472  1
  Ba  Ba6  1  0.99784538  0.50053813  0.61950528  1
  Ba  Ba7  1  0.99784538  0.50053813  0.88049472  1
  Sc  Sc0  1  0.50000000  0.50000000  0.00000000  1
  Sc  Sc1  1  0.50000000  0.50000000  0.50000000  1
  Sc  Sc2  1  0.00000000  0.00000000  0.50000000  1
  Sc  Sc3  1  0.00000000  0.00000000  0.00000000  1
  Co  Co0  1  0.49440314  0.55514980  0.75000000  1
  Co  Co1  1  0.99440314  0.94485020  0.75000000  1
  Co  Co2  1  0.00559686  0.05514980  0.25000000  1
  Co  Co3  1  0.50559686  0.44485020  0.25000000  1
  O  O0  1  0.49267133  0.55043671  0.14153645  1
  O  O1  1  0.49267133  0.55043671  0.35846355  1
  O  O2  1  0.21486933  0.71013159  0.75000000  1
  O  O3  1  0.25117002  0.75124644  0.50843171  1
  O  O4  1  0.25117002  0.75124644  0.99156829  1
  O  O5  1  0.75117002  0.74875356  0.50843171  1
  O  O6  1  0.75117002  0.74875356  0.99156829  1
  O  O7  1  0.71486933  0.78986841  0.75000000  1
  O  O8  1  0.99267133  0.94956329  0.14153645  1
  O  O9  1  0.99267133  0.94956329  0.35846355  1
  O  O10  1  0.00732867  0.05043671  0.64153645  1
  O  O11  1  0.00732867  0.05043671  0.85846355  1
  O  O12  1  0.28513067  0.21013159  0.25000000  1
  O  O13  1  0.24882998  0.25124644  0.00843171  1
  O  O14  1  0.24882998  0.25124644  0.49156829  1
  O  O15  1  0.74882998  0.24875356  0.00843171  1
  O  O16  1  0.74882998  0.24875356  0.49156829  1
  O  O17  1  0.78513067  0.28986841  0.25000000  1
  O  O18  1  0.50732867  0.44956329  0.64153645  1
  O  O19  1  0.50732867  0.44956329  0.85846355  1
loop_
_geom_bond_atom_site_label_1
_geom_bond_atom_site_label_2
_geom_bond_distance
_geom_bond_site_symmetry_2
Ba0 O13 2.715119 1_555
Ba0 O17 2.718996 1_455
Ba0 O8 2.728429 1_455
Ba0 O15 2.744751 1_455
Ba0 O6 2.906688 1_454
Ba0 O4 2.908503 1_554
Ba0 O0 2.944005 1_555
Ba0 O0 3.055103 1_455
Ba0 O12 3.160650 1_555
Ba0 O8 3.324395 1_445
Ba1 O14 2.715119 1_555
Ba1 O17 2.718996 1_455
Ba1 O9 2.728429 1_455
Ba1 O16 2.744751 1_455
Ba1 O5 2.906688 1_455
Ba1 O3 2.908503 1_555
Ba1 O1 2.944005 1_555
Ba1 O1 3.055103 1_455
Ba1 O12 3.160650 1_555
Ba1 O9 3.324395 1_445
Ba2 O15 2.715119 1_555
Ba2 O12 2.718996 1_555
Ba2 O0 2.728429 1_545
Ba2 O13 2.744751 1_555
Ba2 O4 2.906688 1_544
Ba2 O6 2.908503 1_544
Ba2 O8 2.944005 1_545
Ba2 O8 3.055103 1_445
Ba2 O17 3.160650 1_555
Ba2 O0 3.324395 1_555
Ba3 O16 2.715119 1_555
Ba3 O12 2.718996 1_555
Ba3 O1 2.728429 1_545
Ba3 O14 2.744751 1_555
Ba3 O3 2.906688 1_545
Ba3 O5 2.908503 1_545
Ba3 O9 2.944005 1_545
Ba3 O9 3.055103 1_445
Ba3 O17 3.160650 1_555
Ba3 O1 3.324395 1_555
Ba4 O3 2.715119 1_555
Ba4 O7 2.718996 1_555
Ba4 O18 2.728429 1_565
Ba4 O5 2.744751 1_555
Ba4 O16 2.906688 1_565
Ba4 O14 2.908503 1_565
Ba4 O10 2.944005 1_565
Ba4 O10 3.055103 1_665
Ba4 O2 3.160650 1_555
Ba4 O18 3.324395 1_555
Ba5 O4 2.715119 1_555
Ba5 O7 2.718996 1_555
Ba5 O19 2.728429 1_565
Ba5 O6 2.744751 1_555
Ba5 O15 2.906688 1_566
Ba5 O13 2.908503 1_566
Ba5 O11 2.944005 1_565
Ba5 O11 3.055103 1_665
Ba5 O2 3.160650 1_555
Ba5 O19 3.324395 1_555
Ba6 O5 2.715119 1_555
Ba6 O2 2.718996 1_655
Ba6 O10 2.728429 1_655
Ba6 O3 2.744751 1_655
Ba6 O14 2.906688 1_655
Ba6 O16 2.908503 1_555
Ba6 O18 2.944005 1_555
Ba6 O18 3.055103 1_655
Ba6 O7 3.160650 1_555
Ba6 O10 3.324395 1_665
Ba7 O6 2.715119 1_555
Ba7 O2 2.718996 1_655
Ba7 O11 2.728429 1_655
Ba7 O4 2.744751 1_655
Ba7 O13 2.906688 1_656
Ba7 O15 2.908503 1_556
Ba7 O19 2.944005 1_555
Ba7 O19 3.055103 1_655
Ba7 O7 3.160650 1_555
Ba7 O11 3.324395 1_665
Co0 O19 1.809931 1_555
Co0 O18 1.809931 1_555
Co0 O2 1.901059 1_555
Co0 O7 1.923379 1_555
Co1 O11 1.809931 1_665
Co1 O10 1.809931 1_665
Co1 O7 1.901059 1_555
Co1 O2 1.923379 1_655
Co2 O9 1.809931 1_445
Co2 O8 1.809931 1_445
Co2 O12 1.901059 1_555
Co2 O17 1.923379 1_455
Co3 O1 1.809931 1_555
Co3 O0 1.809931 1_555
Co3 O17 1.901059 1_555
Co3 O12 1.923379 1_555
O0 Sc0 2.230657 1_555
O1 Sc1 2.230657 1_555
O3 Sc2 2.114438 1_565
O3 Sc1 2.115370 1_555
O4 Sc3 2.114438 1_566
O4 Sc0 2.115370 1_556
O5 Sc1 2.114438 1_555
O5 Sc2 2.115370 1_665
O6 Sc0 2.114438 1_556
O6 Sc3 2.115370 1_666
O8 Sc3 2.230657 1_665
O9 Sc2 2.230657 1_665
O10 Sc2 2.230657 1_555
O11 Sc3 2.230657 1_556
O13 Sc0 2.114438 1_555
O13 Sc3 2.115370 1_555
O14 Sc1 2.114438 1_555
O14 Sc2 2.115370 1_555
O15 Sc3 2.114438 1_655
O15 Sc0 2.115370 1_555
O16 Sc2 2.114438 1_655
O16 Sc1 2.115370 1_555
O18 Sc1 2.230657 1_555
O19 Sc0 2.230657 1_556
