# generated using pymatgen
data_Hf6Zn5CuC2
_symmetry_space_group_name_H-M   'P 1'
_cell_length_a   8.47045669
_cell_length_b   8.47045619
_cell_length_c   8.48255987
_cell_angle_alpha   59.95272393
_cell_angle_beta   59.95272588
_cell_angle_gamma   59.89063724
_symmetry_Int_Tables_number   1
_chemical_formula_structural   Hf6Zn5CuC2
_chemical_formula_sum   'Hf12 Zn10 Cu2 C4'
_cell_volume   429.68989482
_cell_formula_units_Z   2
loop_
 _symmetry_equiv_pos_site_id
 _symmetry_equiv_pos_as_xyz
  1  'x, y, z'
loop_
 _atom_site_type_symbol
 _atom_site_label
 _atom_site_symmetry_multiplicity
 _atom_site_fract_x
 _atom_site_fract_y
 _atom_site_fract_z
 _atom_site_occupancy
  Hf  Hf0  1  0.44112551  0.44112551  0.05887449  1
  Hf  Hf1  1  0.05766561  0.44090686  0.06070710  1
  Hf  Hf2  1  0.44090686  0.05766561  0.06070710  1
  Hf  Hf3  1  0.05934242  0.05934242  0.44065758  1
  Hf  Hf4  1  0.44090686  0.05766561  0.44072043  1
  Hf  Hf5  1  0.05766561  0.44090686  0.44072043  1
  Hf  Hf6  1  0.80887449  0.80887449  0.19112551  1
  Hf  Hf7  1  0.19233439  0.80909314  0.18929290  1
  Hf  Hf8  1  0.80909314  0.19233439  0.18929290  1
  Hf  Hf9  1  0.19065758  0.19065758  0.80934242  1
  Hf  Hf10  1  0.80909314  0.19233439  0.80927957  1
  Hf  Hf11  1  0.19233439  0.80909314  0.80927957  1
  Zn  Zn0  1  0.82850657  0.82850657  0.50736155  1
  Zn  Zn1  1  0.82603950  0.50938413  0.83228819  1
  Zn  Zn2  1  0.50938413  0.82603950  0.83228819  1
  Zn  Zn3  1  0.82850657  0.82850657  0.83562431  1
  Zn  Zn4  1  0.42149343  0.42149343  0.74263845  1
  Zn  Zn5  1  0.42396050  0.74061587  0.41771181  1
  Zn  Zn6  1  0.74061587  0.42396050  0.41771181  1
  Zn  Zn7  1  0.42149343  0.42149343  0.41437569  1
  Zn  Zn8  1  0.62500000  0.12500000  0.62500000  1
  Zn  Zn9  1  0.12500000  0.62500000  0.62500000  1
  Cu  Cu0  1  0.62500000  0.62500000  0.12500000  1
  Cu  Cu1  1  0.62500000  0.62500000  0.62500000  1
  C  C0  1  0.12500000  0.12500000  0.62500000  1
  C  C1  1  0.12500000  0.62500000  0.12500000  1
  C  C2  1  0.62500000  0.12500000  0.12500000  1
  C  C3  1  0.12500000  0.12500000  0.12500000  1
loop_
_geom_bond_atom_site_label_1
_geom_bond_atom_site_label_2
_geom_bond_distance
_geom_bond_site_symmetry_2
Hf0 Zn4 2.858713 1_554
Hf0 Zn7 2.858722 1_555
Hf0 Zn2 3.026815 1_554
Hf0 Zn1 3.026815 1_554
Hf1 Zn6 2.865419 1_455
Hf1 Zn4 2.900527 1_554
Hf1 Zn3 3.038461 1_454
Hf1 Zn9 3.070263 1_554
Hf1 Zn1 3.078909 1_454
Hf2 Zn5 2.865419 1_545
Hf2 Zn4 2.900527 1_554
Hf2 Zn3 3.038461 1_544
Hf2 Zn8 3.070263 1_554
Hf2 Zn2 3.078909 1_544
Hf3 Zn6 2.902383 1_455
Hf3 Zn5 2.902383 1_545
Hf3 Zn9 3.057270 1_545
Hf3 Zn8 3.057270 1_455
Hf3 Zn3 3.096181 1_445
Hf3 Zn0 3.096185 1_445
Hf4 Zn5 2.865419 1_545
Hf4 Zn7 2.900530 1_555
Hf4 Zn0 3.038457 1_545
Hf4 Zn8 3.070263 1_555
Hf4 Zn2 3.078909 1_545
Hf5 Zn6 2.865419 1_455
Hf5 Zn7 2.900530 1_555
Hf5 Zn0 3.038457 1_455
Hf5 Zn9 3.070263 1_555
Hf5 Zn1 3.078909 1_455
Hf6 Zn0 2.858713 1_555
Hf6 Zn3 2.858722 1_554
Hf6 Zn6 3.026815 1_555
Hf6 Zn5 3.026815 1_555
Hf7 Zn2 2.865419 1_554
Hf7 Zn0 2.900527 1_455
Hf7 Zn7 3.038461 1_555
Hf7 Zn9 3.070263 1_555
Hf7 Zn5 3.078909 1_555
Hf8 Zn1 2.865419 1_554
Hf8 Zn0 2.900527 1_545
Hf8 Zn7 3.038461 1_555
Hf8 Zn8 3.070263 1_555
Hf8 Zn6 3.078909 1_555
Hf9 Zn2 2.902383 1_545
Hf9 Zn1 2.902383 1_455
Hf9 Zn9 3.057270 1_555
Hf9 Zn8 3.057270 1_555
Hf9 Zn7 3.096181 1_555
Hf9 Zn4 3.096185 1_555
Hf10 Zn1 2.865419 1_555
Hf10 Zn3 2.900530 1_545
Hf10 Zn4 3.038457 1_555
Hf10 Zn8 3.070263 1_555
Hf10 Zn6 3.078909 1_555
Hf11 Zn2 2.865419 1_555
Hf11 Zn3 2.900530 1_455
Hf11 Zn4 3.038457 1_555
Hf11 Zn9 3.070263 1_555
Hf11 Zn5 3.078909 1_555
Zn0 Zn8 2.591932 1_565
Zn0 Zn9 2.591933 1_655
Zn0 Zn1 2.727994 1_555
Zn0 Zn2 2.727994 1_555
Zn0 Zn3 2.784508 1_555
Zn1 Zn9 2.601574 1_655
Zn1 Zn2 2.677781 1_555
Zn1 Zn3 2.727989 1_555
Zn2 Zn8 2.601574 1_565
Zn2 Zn3 2.727990 1_555
Zn3 Zn8 2.591928 1_565
Zn3 Zn9 2.591928 1_655
Zn4 Zn8 2.591932 1_555
Zn4 Zn9 2.591933 1_555
Zn4 Zn5 2.727994 1_555
Zn4 Zn6 2.727994 1_555
Zn4 Zn7 2.784508 1_555
Zn5 Zn9 2.601574 1_555
Zn5 Zn6 2.677781 1_555
Zn5 Zn7 2.727989 1_555
Zn6 Zn8 2.601574 1_555
Zn6 Zn7 2.727990 1_555
Zn7 Zn8 2.591928 1_555
Zn7 Zn9 2.591928 1_555
Cu0 Zn3 2.544563 1_554
Cu0 Zn7 2.544563 1_555
Cu0 Zn6 2.559606 1_555
Cu0 Zn2 2.559606 1_554
Cu0 Zn5 2.559606 1_555
Cu0 Zn1 2.559606 1_554
Cu0 Hf2 3.045763 1_565
Cu0 Hf8 3.045763 1_555
Cu0 Hf1 3.045764 1_655
Cu0 Hf7 3.045764 1_555
Cu0 Hf6 3.057746 1_555
Cu0 Hf0 3.057746 1_555
Cu1 Zn0 2.544561 1_555
Cu1 Zn4 2.544561 1_555
Cu1 Zn2 2.559606 1_555
Cu1 Zn6 2.559606 1_555
Cu1 Zn1 2.559606 1_555
Cu1 Zn5 2.559606 1_555
Cu1 Hf4 3.045764 1_565
Cu1 Hf10 3.045764 1_555
Cu1 Hf5 3.045764 1_655
Cu1 Hf11 3.045764 1_555
Cu1 Hf0 3.057746 1_556
Cu1 Hf6 3.057746 1_555
C0 Hf5 2.258733 1_555
C0 Hf11 2.258733 1_545
C0 Hf4 2.258733 1_555
C0 Hf10 2.258733 1_455
C0 Hf9 2.261826 1_555
C0 Hf3 2.261826 1_555
C1 Hf0 2.257668 1_555
C1 Hf6 2.257668 1_455
C1 Hf7 2.260479 1_555
C1 Hf1 2.260479 1_555
C1 Hf5 2.260479 1_555
C1 Hf11 2.260479 1_554
C2 Hf0 2.257668 1_555
C2 Hf6 2.257668 1_545
C2 Hf8 2.260479 1_555
C2 Hf2 2.260479 1_555
C2 Hf4 2.260479 1_555
C2 Hf10 2.260479 1_554
C3 Hf1 2.258733 1_555
C3 Hf7 2.258733 1_545
C3 Hf2 2.258733 1_555
C3 Hf8 2.258733 1_455
C3 Hf3 2.261826 1_555
C3 Hf9 2.261826 1_554
