# generated using pymatgen
data_BeFe(BW)6
_symmetry_space_group_name_H-M   'P 1'
_cell_length_a   4.48723011
_cell_length_b   4.48723057
_cell_length_c   10.63072250
_cell_angle_alpha   90.87224961
_cell_angle_beta   89.12775110
_cell_angle_gamma   138.45510101
_symmetry_Int_Tables_number   1
_chemical_formula_structural   BeFe(BW)6
_chemical_formula_sum   'Be1 Fe1 B6 W6'
_cell_volume   141.94198657
_cell_formula_units_Z   1
loop_
 _symmetry_equiv_pos_site_id
 _symmetry_equiv_pos_as_xyz
  1  'x, y, z'
loop_
 _atom_site_type_symbol
 _atom_site_label
 _atom_site_symmetry_multiplicity
 _atom_site_fract_x
 _atom_site_fract_y
 _atom_site_fract_z
 _atom_site_occupancy
  Be  Be0  1  0.50000000  0.50000000  0.00000000  1
  Fe  Fe0  1  0.50000000  0.50000000  0.50000000  1
  B  B0  1  0.08859674  0.91140326  0.39814395  1
  B  B1  1  0.91140326  0.08859674  0.60185605  1
  B  B2  1  0.09216830  0.90783170  0.10096068  1
  B  B3  1  0.90783170  0.09216830  0.89903932  1
  B  B4  1  0.21364888  0.78635112  0.24879222  1
  B  B5  1  0.78635112  0.21364888  0.75120778  1
  W  W0  1  0.79125242  0.20874758  0.39238184  1
  W  W1  1  0.20874758  0.79125242  0.60761816  1
  W  W2  1  0.79801214  0.20198786  0.10335887  1
  W  W3  1  0.20198786  0.79801214  0.89664113  1
  W  W4  1  0.50829878  0.49170122  0.24956160  1
  W  W5  1  0.49170122  0.50829878  0.75043840  1
loop_
_geom_bond_atom_site_label_1
_geom_bond_atom_site_label_2
_geom_bond_distance
_geom_bond_site_symmetry_2
Be0 W2 2.559687 1_455
Be0 W3 2.559687 1_654
Be0 W2 2.559688 1_565
Be0 W3 2.559688 1_544
Be0 W4 2.655067 1_555
Be0 W5 2.655067 1_554
Fe0 W1 2.641012 1_655
Fe0 W0 2.641012 1_455
Fe0 W1 2.641012 1_545
Fe0 W0 2.641012 1_565
Fe0 W5 2.662118 1_555
Fe0 W4 2.662118 1_555
Fe0 W1 2.681528 1_555
Fe0 W0 2.681528 1_555
B0 B4 1.888829 1_555
B0 Fe0 2.057079 1_455
B0 Fe0 2.057080 1_565
B0 W0 2.329101 1_565
B0 W0 2.329102 1_455
B0 W4 2.348666 1_455
B0 W4 2.348666 1_565
B0 W1 2.459366 1_555
B0 W0 2.496791 1_465
B1 B5 1.888829 1_555
B1 Fe0 2.057079 1_655
B1 Fe0 2.057080 1_545
B1 W1 2.329101 1_545
B1 W1 2.329102 1_655
B1 W5 2.348666 1_655
B1 W5 2.348666 1_545
B1 W0 2.459366 1_555
B1 W1 2.496791 1_645
B2 B4 1.887071 1_555
B2 Be0 2.075994 1_455
B2 Be0 2.075995 1_565
B2 W4 2.342495 1_455
B2 W4 2.342495 1_565
B2 W3 2.345604 1_554
B2 W2 2.349071 1_565
B2 W2 2.349072 1_455
B2 W2 2.468007 1_465
B3 B5 1.887071 1_555
B3 Be0 2.075994 1_656
B3 Be0 2.075995 1_546
B3 W5 2.342495 1_655
B3 W5 2.342495 1_545
B3 W2 2.345604 1_556
B3 W3 2.349071 1_545
B3 W3 2.349072 1_655
B3 W3 2.468007 1_645
B4 W0 2.306324 1_565
B4 W0 2.306325 1_455
B4 W2 2.321301 1_565
B4 W2 2.321301 1_455
B4 W4 2.345499 1_455
B4 W4 2.345499 1_565
B4 W4 2.472580 1_555
B5 W1 2.306324 1_545
B5 W1 2.306325 1_655
B5 W3 2.321301 1_545
B5 W3 2.321301 1_655
B5 W5 2.345499 1_655
B5 W5 2.345499 1_545
B5 W5 2.472580 1_555
