# generated using pymatgen
data_TiNb9(GaSn2)2
_symmetry_space_group_name_H-M   'P 1'
_cell_length_a   7.98882235
_cell_length_b   7.98882276
_cell_length_c   7.98882266
_cell_angle_alpha   95.94127556
_cell_angle_beta   95.94127478
_cell_angle_gamma   142.46504530
_symmetry_Int_Tables_number   1
_chemical_formula_structural   TiNb9(GaSn2)2
_chemical_formula_sum   'Ti1 Nb9 Ga2 Sn4'
_cell_volume   294.11250039
_cell_formula_units_Z   1
loop_
 _symmetry_equiv_pos_site_id
 _symmetry_equiv_pos_as_xyz
  1  'x, y, z'
loop_
 _atom_site_type_symbol
 _atom_site_label
 _atom_site_symmetry_multiplicity
 _atom_site_fract_x
 _atom_site_fract_y
 _atom_site_fract_z
 _atom_site_occupancy
  Ti  Ti0  1  0.25000000  0.75000000  0.50000000  1
  Nb  Nb0  1  0.75000000  0.25000000  0.50000000  1
  Nb  Nb1  1  0.78712613  0.93053819  0.71167984  1
  Nb  Nb2  1  0.92455271  0.21287387  0.14341206  1
  Nb  Nb3  1  0.06946181  0.78114165  0.85658794  1
  Nb  Nb4  1  0.21885835  0.07544729  0.28832016  1
  Nb  Nb5  1  0.57544729  0.71885835  0.28832016  1
  Nb  Nb6  1  0.43053819  0.28712613  0.71167984  1
  Nb  Nb7  1  0.28114165  0.56946181  0.85658794  1
  Nb  Nb8  1  0.71287387  0.42455271  0.14341206  1
  Ga  Ga0  1  0.75000000  0.75000000  0.00000000  1
  Ga  Ga1  1  0.25000000  0.25000000  0.00000000  1
  Sn  Sn0  1  0.32898954  0.82898954  0.16775146  1
  Sn  Sn1  1  0.83876092  0.67101046  0.50000000  1
  Sn  Sn2  1  0.17101046  0.33876092  0.50000000  1
  Sn  Sn3  1  0.66123908  0.16123908  0.83224854  1
loop_
_geom_bond_atom_site_label_1
_geom_bond_atom_site_label_2
_geom_bond_distance
_geom_bond_site_symmetry_2
Nb0 Ti0 2.570230 1_655
Nb0 Ti0 2.570230 1_545
Nb0 Sn3 2.834189 1_555
Nb0 Sn0 2.834192 1_545
Nb0 Sn2 2.834197 1_655
Nb0 Sn1 2.834197 1_555
Nb0 Nb2 3.383949 1_555
Nb0 Nb8 3.383949 1_555
Nb0 Nb6 3.383953 1_555
Nb0 Nb7 3.383953 1_655
Nb0 Nb1 3.383953 1_545
Nb0 Nb3 3.383953 1_655
Nb0 Nb4 3.383958 1_555
Nb0 Nb5 3.383958 1_545
Nb1 Sn1 2.846667 1_555
Nb1 Sn3 2.847554 1_565
Nb1 Nb7 2.975188 1_665
Nb1 Sn2 3.025518 1_555
Nb1 Nb7 3.027873 1_555
Nb1 Sn2 3.042010 1_665
Nb1 Nb5 3.202324 1_555
Nb1 Nb6 3.363490 1_665
Nb1 Nb6 3.363491 1_555
Nb1 Ti0 3.395616 1_555
Nb1 Nb3 3.444832 1_655
Nb1 Nb2 3.444835 1_566
Nb2 Sn3 2.846669 1_554
Nb2 Sn2 2.847559 1_655
Nb2 Nb5 2.975189 1_545
Nb2 Sn0 3.025514 1_655
Nb2 Nb5 3.027883 1_655
Nb2 Sn0 3.042006 1_545
Nb2 Nb8 3.202308 1_555
Nb2 Nb7 3.363489 1_544
Nb2 Nb7 3.363492 1_654
Nb2 Ti0 3.395613 1_655
Nb2 Nb4 3.444832 1_655
Nb3 Sn0 2.846673 1_556
Nb3 Sn1 2.847556 1_455
Nb3 Nb6 2.975188 1_455
Nb3 Sn3 3.025520 1_565
Nb3 Nb6 3.027873 1_565
Nb3 Sn3 3.042008 1_455
Nb3 Nb7 3.202324 1_555
Nb3 Nb8 3.363489 1_566
Nb3 Nb8 3.363492 1_456
Nb3 Ti0 3.395616 1_555
Nb3 Nb4 3.444835 1_566
Nb4 Sn2 2.846660 1_555
Nb4 Sn0 2.847561 1_545
Nb4 Nb8 2.975189 1_555
Nb4 Sn1 3.025520 1_445
Nb4 Nb8 3.027883 1_445
Nb4 Sn1 3.042008 1_555
Nb4 Nb6 3.202324 1_555
Nb4 Nb5 3.363481 1_445
Nb4 Nb5 3.363481 1_555
Nb4 Ti0 3.395623 1_545
Nb5 Sn1 2.846660 1_555
Nb5 Sn0 2.847561 1_555
Nb5 Sn2 3.025520 1_555
Nb5 Sn2 3.042008 1_665
Nb5 Ti0 3.395623 1_555
Nb5 Nb8 3.444832 1_555
Nb5 Nb7 3.444835 1_554
Nb6 Sn2 2.846667 1_555
Nb6 Sn3 2.847554 1_555
Nb6 Sn1 3.025518 1_445
Nb6 Sn1 3.042010 1_555
Nb6 Ti0 3.395616 1_545
Nb6 Nb7 3.444832 1_555
Nb6 Nb8 3.444835 1_556
Nb7 Sn0 2.846673 1_556
Nb7 Sn2 2.847556 1_555
Nb7 Sn3 3.025520 1_565
Nb7 Sn3 3.042008 1_455
Nb7 Ti0 3.395616 1_555
Nb8 Sn3 2.846669 1_554
Nb8 Sn1 2.847559 1_555
Nb8 Sn0 3.025514 1_655
Nb8 Sn0 3.042006 1_545
Nb8 Ti0 3.395613 1_655
Ga0 Ga1 2.570230 1_665
Ga0 Ga1 2.570230 1_555
Ga0 Nb5 2.746846 1_555
Ga0 Nb3 2.746850 1_654
Ga0 Nb6 2.746850 1_554
Ga0 Nb2 2.746855 1_565
Ga0 Nb4 2.761203 1_665
Ga0 Nb7 2.761205 1_554
Ga0 Nb1 2.761205 1_554
Ga0 Nb8 2.761212 1_555
Ga1 Nb4 2.746846 1_555
Ga1 Nb1 2.746850 1_444
Ga1 Nb7 2.746850 1_554
Ga1 Nb8 2.746855 1_555
Ga1 Nb5 2.761203 1_555
Ga1 Nb6 2.761205 1_554
Ga1 Nb3 2.761205 1_544
Ga1 Nb2 2.761212 1_455
Sn0 Ti0 2.811322 1_555
Sn1 Ti0 2.811329 1_655
Sn2 Ti0 2.811330 1_555
Sn3 Ti0 2.811324 1_545
