# generated using pymatgen
data_BaCrTcP2
_symmetry_space_group_name_H-M   'P 1'
_cell_length_a   6.97014825
_cell_length_b   6.97014795
_cell_length_c   6.97014840
_cell_angle_alpha   146.48184092
_cell_angle_beta   146.48185407
_cell_angle_gamma   48.13161828
_symmetry_Int_Tables_number   1
_chemical_formula_structural   BaCrTcP2
_chemical_formula_sum   'Ba1 Cr1 Tc1 P2'
_cell_volume   102.83181560
_cell_formula_units_Z   1
loop_
 _symmetry_equiv_pos_site_id
 _symmetry_equiv_pos_as_xyz
  1  'x, y, z'
loop_
 _atom_site_type_symbol
 _atom_site_label
 _atom_site_symmetry_multiplicity
 _atom_site_fract_x
 _atom_site_fract_y
 _atom_site_fract_z
 _atom_site_occupancy
  Ba  Ba0  1  0.00000000  0.00000000  0.00000000  1
  Cr  Cr0  1  0.25000000  0.75000000  0.50000000  1
  Tc  Tc0  1  0.75000000  0.25000000  0.50000000  1
  P  P0  1  0.65261883  0.65261883  0.00000000  1
  P  P1  1  0.34738117  0.34738117  1.00000000  1
loop_
_geom_bond_atom_site_label_1
_geom_bond_atom_site_label_2
_geom_bond_distance
_geom_bond_site_symmetry_2
Ba0 P0 3.442758 1_556
Ba0 P1 3.442758 1_443
Ba0 P0 3.442759 1_444
Ba0 P1 3.442759 1_555
Ba0 P1 3.442759 1_544
Ba0 P0 3.442759 1_455
Ba0 P0 3.442759 1_545
Ba0 P1 3.442759 1_454
Cr0 P0 2.361318 1_455
Cr0 P0 2.361319 1_556
Cr0 P1 2.361319 1_565
Cr0 P1 2.361319 1_554
P0 Tc0 2.361319 1_565
P0 Tc0 2.361319 1_554
P1 Tc0 2.361318 1_455
P1 Tc0 2.361319 1_556
