# generated using pymatgen
data_Na2PtO3
_symmetry_space_group_name_H-M   'P 1'
_cell_length_a   5.55475873
_cell_length_b   5.55475873
_cell_length_c   5.46909899
_cell_angle_alpha   79.20642354
_cell_angle_beta   79.20642354
_cell_angle_gamma   117.69476026
_symmetry_Int_Tables_number   1
_chemical_formula_structural   Na2PtO3
_chemical_formula_sum   'Na4 Pt2 O6'
_cell_volume   139.28417752
_cell_formula_units_Z   2
loop_
 _symmetry_equiv_pos_site_id
 _symmetry_equiv_pos_as_xyz
  1  'x, y, z'
loop_
 _atom_site_type_symbol
 _atom_site_label
 _atom_site_symmetry_multiplicity
 _atom_site_fract_x
 _atom_site_fract_y
 _atom_site_fract_z
 _atom_site_occupancy
  Na  Na0  1  0.91450300  0.08549700  0.75000000  1
  Na  Na1  1  0.24051300  0.75948700  0.75000000  1
  Na  Na2  1  0.08549700  0.91450300  0.25000000  1
  Na  Na3  1  0.75948700  0.24051300  0.25000000  1
  Pt  Pt0  1  0.58488200  0.41511800  0.75000000  1
  Pt  Pt1  1  0.41511800  0.58488200  0.25000000  1
  O  O0  1  0.23278100  0.37107700  0.00207500  1
  O  O1  1  0.76721900  0.62892300  0.99792500  1
  O  O2  1  0.62892300  0.76721900  0.49792500  1
  O  O3  1  0.50000000  0.00000000  0.00000000  1
  O  O4  1  0.37107700  0.23278100  0.50207500  1
  O  O5  1  0.00000000  0.50000000  0.50000000  1
loop_
_geom_bond_atom_site_label_1
_geom_bond_atom_site_label_2
_geom_bond_distance
_geom_bond_site_symmetry_2
Na0 O3 2.226570 1_556
Na0 O5 2.226570 1_655
Na0 O1 2.303871 1_545
Na0 O4 2.303871 1_655
Na0 O2 2.582209 1_545
Na0 O0 2.582209 1_656
Na1 O0 2.309762 1_556
Na1 O2 2.309762 1_555
Na1 O5 2.316085 1_555
Na1 O3 2.316085 1_566
Na1 O1 2.408430 1_455
Na1 O4 2.408430 1_565
Na2 O5 2.226570 1_555
Na2 O3 2.226570 1_565
Na2 O2 2.303871 1_455
Na2 O0 2.303871 1_565
Na2 O1 2.582209 1_454
Na2 O4 2.582209 1_565
Na3 O4 2.309762 1_555
Na3 O1 2.309762 1_554
Na3 O3 2.316085 1_555
Na3 O5 2.316085 1_655
Na3 O2 2.408430 1_545
Na3 O0 2.408430 1_655
O0 Pt0 2.050555 1_554
O0 Pt1 2.067429 1_555
O1 Pt1 2.050555 1_556
O1 Pt0 2.067429 1_555
O2 Pt0 2.050555 1_555
O2 Pt1 2.067429 1_555
O3 Pt0 2.230681 1_554
O3 Pt1 2.230681 1_545
O4 Pt1 2.050555 1_555
O4 Pt0 2.067429 1_555
O5 Pt1 2.230681 1_555
O5 Pt0 2.230681 1_455
