# generated using pymatgen
data_MnSb12Ru2Au
_symmetry_space_group_name_H-M   'P 1'
_cell_length_a   8.17285168
_cell_length_b   8.17828393
_cell_length_c   9.42476704
_cell_angle_alpha   54.63038540
_cell_angle_beta   54.56402635
_cell_angle_gamma   70.28166416
_symmetry_Int_Tables_number   1
_chemical_formula_structural   MnSb12Ru2Au
_chemical_formula_sum   'Mn1 Sb12 Ru2 Au1'
_cell_volume   418.52937247
_cell_formula_units_Z   1
loop_
 _symmetry_equiv_pos_site_id
 _symmetry_equiv_pos_as_xyz
  1  'x, y, z'
loop_
 _atom_site_type_symbol
 _atom_site_label
 _atom_site_symmetry_multiplicity
 _atom_site_fract_x
 _atom_site_fract_y
 _atom_site_fract_z
 _atom_site_occupancy
  Mn  Mn0  1  0.50000000  0.00000000  0.50000000  1
  Sb  Sb0  1  0.15476348  0.15537791  0.17561845  1
  Sb  Sb1  1  0.84523652  0.84462209  0.82438155  1
  Sb  Sb2  1  0.84310498  0.85623356  0.50180472  1
  Sb  Sb3  1  0.15689502  0.14376644  0.49819528  1
  Sb  Sb4  1  0.80700346  0.50364057  0.33516357  1
  Sb  Sb5  1  0.19299654  0.49635943  0.66483643  1
  Sb  Sb6  1  0.50521372  0.81705733  0.33528319  1
  Sb  Sb7  1  0.49478628  0.18294267  0.66471681  1
  Sb  Sb8  1  0.64626673  0.33353234  0.85870380  1
  Sb  Sb9  1  0.35373327  0.66646766  0.14129620  1
  Sb  Sb10  1  0.66560690  0.34318374  0.15079203  1
  Sb  Sb11  1  0.33439310  0.65681626  0.84920797  1
  Ru  Ru0  1  0.00000000  0.50000000  0.00000000  1
  Ru  Ru1  1  0.50000000  0.00000000  0.00000000  1
  Au  Au0  1  0.00000000  0.50000000  0.50000000  1
loop_
_geom_bond_atom_site_label_1
_geom_bond_atom_site_label_2
_geom_bond_distance
_geom_bond_site_symmetry_2
Mn0 Sb2 2.655805 1_545
Mn0 Sb3 2.655805 1_555
Mn0 Sb7 2.686915 1_555
Mn0 Sb6 2.686915 1_545
Mn0 Sb10 2.691687 1_555
Mn0 Sb11 2.691687 1_545
Sb0 Sb2 2.888229 1_445
Sb0 Sb3 2.996377 1_555
Sb1 Sb3 2.888229 1_665
Sb1 Sb2 2.996377 1_555
Ru0 Sb4 2.601276 1_455
Ru0 Sb5 2.601276 1_554
Ru0 Sb11 2.623878 1_554
Ru0 Sb10 2.623878 1_455
Ru0 Sb0 2.627622 1_555
Ru0 Sb1 2.627622 1_454
Ru1 Sb8 2.606138 1_554
Ru1 Sb9 2.606138 1_545
Ru1 Sb6 2.620197 1_545
Ru1 Sb7 2.620197 1_554
Ru1 Sb0 2.629755 1_555
Ru1 Sb1 2.629755 1_544
Au0 Sb9 2.763097 1_555
Au0 Sb8 2.763097 1_455
Au0 Sb2 2.764691 1_455
Au0 Sb3 2.764691 1_555
Au0 Sb5 2.767425 1_555
Au0 Sb4 2.767425 1_455
