# generated using pymatgen
data_TaBe9NbW
_symmetry_space_group_name_H-M   'P 1'
_cell_length_a   7.42356845
_cell_length_b   7.42356880
_cell_length_c   7.42356856
_cell_angle_alpha   35.32802953
_cell_angle_beta   35.32802449
_cell_angle_gamma   35.32802336
_symmetry_Int_Tables_number   1
_chemical_formula_structural   TaBe9NbW
_chemical_formula_sum   'Ta1 Be9 Nb1 W1'
_cell_volume   122.21302142
_cell_formula_units_Z   1
loop_
 _symmetry_equiv_pos_site_id
 _symmetry_equiv_pos_as_xyz
  1  'x, y, z'
loop_
 _atom_site_type_symbol
 _atom_site_label
 _atom_site_symmetry_multiplicity
 _atom_site_fract_x
 _atom_site_fract_y
 _atom_site_fract_z
 _atom_site_occupancy
  Ta  Ta0  1  0.14204639  0.14204639  0.14204639  1
  Be  Be0  1  0.50008861  0.50008861  0.50008861  1
  Be  Be1  1  0.33521669  0.33521669  0.33521769  1
  Be  Be2  1  0.66610759  0.66610759  0.66610659  1
  Be  Be3  1  0.07539178  0.58577697  0.58577697  1
  Be  Be4  1  0.58577697  0.58577697  0.07539178  1
  Be  Be5  1  0.58577697  0.07539178  0.58577697  1
  Be  Be6  1  0.41554575  0.92164070  0.41554575  1
  Be  Be7  1  0.92164070  0.41554575  0.41554575  1
  Be  Be8  1  0.41554575  0.41554575  0.92164070  1
  Nb  Nb0  1  0.99868137  0.99868137  0.99868137  1
  W  W0  1  0.85818244  0.85818244  0.85818244  1
loop_
_geom_bond_atom_site_label_1
_geom_bond_atom_site_label_2
_geom_bond_distance
_geom_bond_site_symmetry_2
Ta0 W0 2.798248 1_544
Ta0 W0 2.798248 1_445
Ta0 W0 2.798248 1_454
Be0 Be7 2.194139 1_555
Be0 Be8 2.194140 1_555
Be0 Be6 2.194140 1_555
Be0 Be3 2.205590 1_555
Be0 Be4 2.205590 1_555
Be0 Be5 2.205590 1_555
Be0 Ta0 2.651613 1_655
Be0 Ta0 2.651614 1_565
Be0 Ta0 2.651614 1_556
Be0 W0 2.651823 1_455
Be0 W0 2.651823 1_545
Be0 W0 2.651823 1_554
Be1 Be3 2.139410 1_555
Be1 Be5 2.139410 1_555
Be1 Be4 2.139413 1_555
Be1 Be7 2.177804 1_455
Be1 Be6 2.177804 1_545
Be1 Be8 2.177807 1_554
Be1 Nb0 2.601896 1_445
Be1 Nb0 2.601900 1_544
Be1 Nb0 2.601900 1_454
Be2 Be3 2.147125 1_655
Be2 Be5 2.147125 1_565
Be2 Be4 2.147128 1_556
Be2 Be7 2.156076 1_555
Be2 Be6 2.156076 1_555
Be2 Be8 2.156079 1_555
Be2 Nb0 2.601087 1_554
Be2 Nb0 2.601091 1_455
Be2 Nb0 2.601091 1_545
Be3 Be5 2.205781 1_465
Be3 Be4 2.205781 1_456
Be3 Be5 2.299354 1_555
Be3 Be4 2.299354 1_555
Be3 Ta0 2.574321 1_556
Be3 Ta0 2.574322 1_565
Be3 W0 2.609642 1_455
Be3 Nb0 2.849232 1_454
Be3 Nb0 2.849232 1_445
Be4 Be5 2.205781 1_564
Be4 Be5 2.299355 1_555
Be4 Ta0 2.574321 1_655
Be4 Ta0 2.574321 1_565
Be4 W0 2.609642 1_554
Be4 Nb0 2.849232 1_454
Be4 Nb0 2.849232 1_544
Be5 Ta0 2.574321 1_556
Be5 Ta0 2.574321 1_655
Be5 W0 2.609642 1_545
Be5 Nb0 2.849232 1_544
Be5 Nb0 2.849232 1_445
Be6 Be7 2.225109 1_465
Be6 Be8 2.225110 1_564
Be6 Be7 2.280026 1_555
Be6 Be8 2.280027 1_555
Be6 W0 2.570841 1_554
Be6 W0 2.570842 1_455
Be6 Ta0 2.609000 1_565
Be6 Nb0 2.817145 1_455
Be6 Nb0 2.817145 1_554
Be7 Be8 2.225109 1_654
Be7 Be8 2.280026 1_555
Be7 W0 2.570842 1_554
Be7 W0 2.570842 1_545
Be7 Ta0 2.609000 1_655
Be7 Nb0 2.817146 1_545
Be7 Nb0 2.817146 1_554
Be8 W0 2.570841 1_455
Be8 W0 2.570842 1_545
Be8 Ta0 2.609000 1_556
Be8 Nb0 2.817145 1_545
Be8 Nb0 2.817145 1_455
Nb0 W0 2.930659 1_555
Nb0 Ta0 2.990443 1_666
