# generated using pymatgen
data_Mn7Nb12Al5N4
_symmetry_space_group_name_H-M   'P 1'
_cell_length_a   8.28261315
_cell_length_b   8.26463818
_cell_length_c   8.26463853
_cell_angle_alpha   59.99999860
_cell_angle_beta   60.07176245
_cell_angle_gamma   60.07176371
_symmetry_Int_Tables_number   1
_chemical_formula_structural   Mn7Nb12Al5N4
_chemical_formula_sum   'Mn7 Nb12 Al5 N4'
_cell_volume   400.47029913
_cell_formula_units_Z   1
loop_
 _symmetry_equiv_pos_site_id
 _symmetry_equiv_pos_as_xyz
  1  'x, y, z'
loop_
 _atom_site_type_symbol
 _atom_site_label
 _atom_site_symmetry_multiplicity
 _atom_site_fract_x
 _atom_site_fract_y
 _atom_site_fract_z
 _atom_site_occupancy
  Mn  Mn0  1  0.12379596  0.62540135  0.62540135  1
  Mn  Mn1  1  0.63454408  0.11607707  0.62468892  1
  Mn  Mn2  1  0.63454408  0.62468892  0.11607707  1
  Mn  Mn3  1  0.63454408  0.62468892  0.62468892  1
  Mn  Mn4  1  0.82738406  0.50533432  0.83364031  1
  Mn  Mn5  1  0.82738406  0.83364031  0.50533432  1
  Mn  Mn6  1  0.82738406  0.83364031  0.83364031  1
  Nb  Nb0  1  0.80890873  0.81069938  0.19019695  1
  Nb  Nb1  1  0.18781178  0.19203353  0.81007735  1
  Nb  Nb2  1  0.80890873  0.19019695  0.81069938  1
  Nb  Nb3  1  0.18781178  0.81007735  0.19203353  1
  Nb  Nb4  1  0.18781178  0.81007735  0.81007735  1
  Nb  Nb5  1  0.80890873  0.19019695  0.19019695  1
  Nb  Nb6  1  0.43507914  0.43733713  0.06379086  1
  Nb  Nb7  1  0.06410260  0.05937480  0.43826180  1
  Nb  Nb8  1  0.43507914  0.06379086  0.43733713  1
  Nb  Nb9  1  0.06410260  0.43826180  0.05937480  1
  Nb  Nb10  1  0.06410260  0.43826180  0.43826180  1
  Nb  Nb11  1  0.43507914  0.06379086  0.06379086  1
  Al  Al0  1  0.75377834  0.41540755  0.41540755  1
  Al  Al1  1  0.42045683  0.74882756  0.41535830  1
  Al  Al2  1  0.42045683  0.41535830  0.74882756  1
  Al  Al3  1  0.42045683  0.41535830  0.41535830  1
  Al  Al4  1  0.49590997  0.83469668  0.83469668  1
  N  N0  1  0.62527238  0.12490987  0.12490987  1
  N  N1  1  0.12212724  0.62854327  0.12466475  1
  N  N2  1  0.12212724  0.12466475  0.62854327  1
  N  N3  1  0.12212724  0.12466475  0.12466475  1
loop_
_geom_bond_atom_site_label_1
_geom_bond_atom_site_label_2
_geom_bond_distance
_geom_bond_site_symmetry_2
Mn0 Mn6 2.545777 1_455
Mn0 Mn4 2.545781 1_455
Mn0 Mn5 2.545781 1_455
Mn0 Nb1 2.980728 1_555
Mn0 Nb3 2.980728 1_555
Mn0 Nb4 2.980728 1_555
Mn0 Nb10 2.991119 1_555
Mn0 Nb7 2.991126 1_565
Mn0 Nb9 2.991126 1_556
Mn1 Mn5 2.446025 1_545
Mn1 Mn6 2.446025 1_545
Mn1 Nb7 2.973281 1_655
Mn1 Nb5 2.977241 1_555
Mn1 Nb2 2.977263 1_555
Mn1 Nb11 3.040991 1_556
Mn1 Nb8 3.040998 1_555
Mn1 Nb1 3.069145 1_555
Mn2 Mn6 2.446025 1_554
Mn2 Mn4 2.446025 1_554
Mn2 Nb9 2.973281 1_655
Mn2 Nb5 2.977241 1_555
Mn2 Nb0 2.977263 1_555
Mn2 Nb11 3.040991 1_565
Mn2 Nb6 3.040998 1_555
Mn2 Nb3 3.069145 1_555
Mn3 Mn5 2.446025 1_555
Mn3 Mn4 2.446025 1_555
Mn3 Nb10 2.973278 1_655
Mn3 Nb2 2.977245 1_555
Mn3 Nb0 2.977245 1_555
Mn3 Nb8 3.040992 1_565
Mn3 Nb6 3.040992 1_556
Mn3 Nb4 3.069147 1_555
Mn4 Mn6 2.713330 1_555
Mn4 Mn5 2.713330 1_555
Mn4 Nb2 2.786254 1_555
Mn4 Nb5 2.786268 1_556
Mn4 Nb1 2.804547 1_655
Mn4 Nb6 3.012946 1_556
Mn4 Nb10 3.027057 1_655
Mn4 Nb9 3.027071 1_656
Mn5 Mn6 2.713330 1_555
Mn5 Nb0 2.786254 1_555
Mn5 Nb5 2.786268 1_565
Mn5 Nb3 2.804547 1_655
Mn5 Nb8 3.012946 1_565
Mn5 Nb10 3.027057 1_655
Mn5 Nb7 3.027071 1_665
Mn6 Nb2 2.786278 1_565
Mn6 Nb0 2.786278 1_556
Mn6 Nb4 2.804551 1_655
Mn6 Nb11 3.012943 1_566
Mn6 Nb7 3.027064 1_665
Mn6 Nb9 3.027064 1_656
Al0 Mn3 2.557605 1_555
Al0 Mn1 2.557619 1_555
Al0 Mn2 2.557619 1_555
Al0 Al1 2.761179 1_555
Al0 Al3 2.761179 1_555
Al0 Al2 2.761179 1_555
Al0 Nb7 2.771698 1_655
Al0 Nb10 2.771698 1_655
Al0 Nb9 2.771698 1_655
Al0 Nb5 2.984211 1_555
Al0 Nb0 2.984218 1_555
Al0 Nb2 2.984219 1_555
Al1 Mn0 2.562336 1_555
Al1 Mn3 2.580833 1_555
Al1 Mn2 2.580846 1_555
Al1 Al3 2.756003 1_555
Al1 Al2 2.756003 1_555
Al1 Nb8 2.762777 1_565
Al1 Nb11 2.762791 1_565
Al1 Nb7 2.775633 1_565
Al1 Nb0 2.965110 1_555
Al1 Nb4 3.002825 1_555
Al1 Nb3 3.002832 1_555
Al2 Mn0 2.562336 1_555
Al2 Mn3 2.580833 1_555
Al2 Mn1 2.580846 1_555
Al2 Al3 2.756003 1_555
Al2 Nb6 2.762777 1_556
Al2 Nb11 2.762791 1_556
Al2 Nb9 2.775633 1_556
Al2 Nb2 2.965110 1_555
Al2 Nb4 3.002824 1_555
Al2 Nb1 3.002831 1_555
Al3 Mn0 2.562332 1_555
Al3 Mn2 2.580837 1_555
Al3 Mn1 2.580838 1_555
Al3 Nb8 2.762802 1_555
Al3 Nb6 2.762802 1_555
Al3 Nb10 2.775633 1_555
Al3 Nb5 2.965107 1_555
Al3 Nb1 3.002828 1_555
Al3 Nb3 3.002828 1_555
Al4 Mn1 2.525573 1_565
Al4 Mn2 2.525573 1_556
Al4 Mn3 2.525579 1_555
Al4 Mn6 2.736788 1_555
Al4 Mn4 2.736792 1_555
Al4 Mn5 2.736792 1_555
Al4 Nb1 2.769906 1_565
Al4 Nb3 2.769906 1_556
Al4 Nb4 2.769906 1_555
Al4 Nb11 3.017408 1_566
Al4 Nb6 3.017422 1_556
Al4 Nb8 3.017422 1_565
N0 Nb0 2.196506 1_545
N0 Nb5 2.196506 1_555
N0 Nb2 2.196506 1_554
N0 Nb6 2.198843 1_555
N0 Nb8 2.198843 1_555
N0 Nb11 2.198867 1_555
N1 Nb0 2.192309 1_455
N1 Nb3 2.192938 1_555
N1 Nb4 2.192938 1_554
N1 Nb9 2.203797 1_555
N1 Nb10 2.203803 1_555
N1 Nb6 2.208087 1_555
N2 Nb2 2.192309 1_455
N2 Nb4 2.192938 1_545
N2 Nb1 2.192938 1_555
N2 Nb7 2.203797 1_555
N2 Nb10 2.203803 1_555
N2 Nb8 2.208087 1_555
N3 Nb5 2.192306 1_455
N3 Nb3 2.192938 1_545
N3 Nb1 2.192938 1_554
N3 Nb9 2.203805 1_555
N3 Nb7 2.203805 1_555
N3 Nb11 2.208083 1_555
