# generated using pymatgen
data_Cd3Au
_symmetry_space_group_name_H-M   'P 1'
_cell_length_a   8.19576513
_cell_length_b   8.19576313
_cell_length_c   8.63507114
_cell_angle_alpha   90.00000000
_cell_angle_beta   90.00000000
_cell_angle_gamma   120.00001220
_symmetry_Int_Tables_number   1
_chemical_formula_structural   Cd3Au
_chemical_formula_sum   'Cd18 Au6'
_cell_volume   502.31413658
_cell_formula_units_Z   6
loop_
 _symmetry_equiv_pos_site_id
 _symmetry_equiv_pos_as_xyz
  1  'x, y, z'
loop_
 _atom_site_type_symbol
 _atom_site_label
 _atom_site_symmetry_multiplicity
 _atom_site_fract_x
 _atom_site_fract_y
 _atom_site_fract_z
 _atom_site_occupancy
  Cd  Cd0  1  0.63385072  0.00000000  0.92223255  1
  Cd  Cd1  1  0.63385072  0.63385072  0.42223255  1
  Cd  Cd2  1  -0.00000000  0.36614928  0.42223255  1
  Cd  Cd3  1  0.00000000  0.63385072  0.92223255  1
  Cd  Cd4  1  0.36614928  0.36614928  0.92223255  1
  Cd  Cd5  1  0.36614928  -0.00000000  0.42223255  1
  Cd  Cd6  1  0.00000000  0.00000000  0.32831892  1
  Cd  Cd7  1  0.00000000  0.00000000  0.82831892  1
  Cd  Cd8  1  0.33333300  0.66666700  0.20443714  1
  Cd  Cd9  1  0.66666700  0.33333300  0.70443714  1
  Cd  Cd10  1  0.33333300  0.66666700  0.70443714  1
  Cd  Cd11  1  0.66666700  0.33333300  0.20443714  1
  Cd  Cd12  1  0.29491559  -0.00000000  0.07762021  1
  Cd  Cd13  1  0.29491559  0.29491559  0.57762021  1
  Cd  Cd14  1  0.00000000  0.70508441  0.57762021  1
  Cd  Cd15  1  -0.00000000  0.29491559  0.07762021  1
  Cd  Cd16  1  0.70508441  0.70508441  0.07762021  1
  Cd  Cd17  1  0.70508441  0.00000000  0.57762021  1
  Au  Au0  1  0.67064480  -0.00000000  0.25008250  1
  Au  Au1  1  0.67064480  0.67064480  0.75008250  1
  Au  Au2  1  0.00000000  0.32935520  0.75008250  1
  Au  Au3  1  -0.00000000  0.67064480  0.25008250  1
  Au  Au4  1  0.32935520  0.32935520  0.25008250  1
  Au  Au5  1  0.32935520  0.00000000  0.75008250  1
loop_
_geom_bond_atom_site_label_1
_geom_bond_atom_site_label_2
_geom_bond_distance
_geom_bond_site_symmetry_2
Au0 Cd11 2.776483 1_555
Au0 Cd8 2.776487 1_545
Au0 Cd6 2.782575 1_655
Au0 Cd17 2.842361 1_555
Au0 Cd0 2.847023 1_554
Au0 Cd5 2.904764 1_555
Au0 Cd15 2.970163 1_655
Au0 Cd16 2.970163 1_545
Au0 Cd2 3.225059 1_655
Au0 Cd1 3.225059 1_545
Au0 Cd12 3.420588 1_555
Au1 Cd9 2.776491 1_555
Au1 Cd10 2.776492 1_555
Au1 Cd7 2.782574 1_665
Au1 Cd16 2.842361 1_556
Au1 Cd1 2.847023 1_555
Au1 Cd4 2.904763 1_555
Au1 Cd17 2.970163 1_565
Au1 Cd14 2.970163 1_655
Au1 Cd0 3.225060 1_565
Au1 Cd3 3.225060 1_655
Au1 Cd13 3.420587 1_555
Au2 Cd9 2.776484 1_455
Au2 Cd10 2.776487 1_555
Au2 Cd7 2.782574 1_555
Au2 Cd15 2.842361 1_556
Au2 Cd2 2.847023 1_555
Au2 Cd3 2.904763 1_555
Au2 Cd17 2.970162 1_455
Au2 Cd13 2.970163 1_555
Au2 Cd0 3.225059 1_455
Au2 Cd4 3.225060 1_555
Au2 Cd14 3.420587 1_555
Au3 Cd8 2.776484 1_555
Au3 Cd11 2.776487 1_455
Au3 Cd6 2.782574 1_565
Au3 Cd14 2.842361 1_555
Au3 Cd3 2.847023 1_554
Au3 Cd2 2.904763 1_555
Au3 Cd12 2.970162 1_565
Au3 Cd16 2.970163 1_455
Au3 Cd5 3.225059 1_565
Au3 Cd1 3.225060 1_455
Au3 Cd15 3.420587 1_555
Au4 Cd8 2.776491 1_555
Au4 Cd11 2.776492 1_555
Au4 Cd6 2.782574 1_555
Au4 Cd13 2.842361 1_555
Au4 Cd4 2.847023 1_554
Au4 Cd1 2.904763 1_555
Au4 Cd12 2.970163 1_555
Au4 Cd15 2.970163 1_555
Au4 Cd5 3.225060 1_555
Au4 Cd2 3.225060 1_555
Au4 Cd16 3.420587 1_555
Au5 Cd10 2.776483 1_545
Au5 Cd9 2.776487 1_555
Au5 Cd7 2.782575 1_555
Au5 Cd12 2.842361 1_556
Au5 Cd5 2.847023 1_555
Au5 Cd0 2.904764 1_555
Au5 Cd14 2.970163 1_545
Au5 Cd13 2.970163 1_555
Au5 Cd3 3.225059 1_545
Au5 Cd4 3.225059 1_555
Au5 Cd17 3.420588 1_555
