# generated using pymatgen
data_ScNi20(SnB3)2
_symmetry_space_group_name_H-M   'P 1'
_cell_length_a   7.46784482
_cell_length_b   7.46781563
_cell_length_c   7.46740096
_cell_angle_alpha   60.00183683
_cell_angle_beta   60.00196612
_cell_angle_gamma   60.00589524
_symmetry_Int_Tables_number   1
_chemical_formula_structural   ScNi20(SnB3)2
_chemical_formula_sum   'Sc1 Ni20 Sn2 B6'
_cell_volume   294.49313366
_cell_formula_units_Z   1
loop_
 _symmetry_equiv_pos_site_id
 _symmetry_equiv_pos_as_xyz
  1  'x, y, z'
loop_
 _atom_site_type_symbol
 _atom_site_label
 _atom_site_symmetry_multiplicity
 _atom_site_fract_x
 _atom_site_fract_y
 _atom_site_fract_z
 _atom_site_occupancy
  Sc  Sc0  1  0.00000000  0.00000000  0.00000000  1
  Ni  Ni0  1  0.61442514  0.61433354  0.15697604  1
  Ni  Ni1  1  0.61452526  0.15680236  0.61433619  1
  Ni  Ni2  1  0.15660254  0.61453261  0.61443242  1
  Ni  Ni3  1  0.61442514  0.61433354  0.61426628  1
  Ni  Ni4  1  0.38557486  0.38566646  0.84302396  1
  Ni  Ni5  1  0.38547474  0.84319764  0.38566381  1
  Ni  Ni6  1  0.84339746  0.38546739  0.38556758  1
  Ni  Ni7  1  0.38557486  0.38566646  0.38573372  1
  Ni  Ni8  1  0.00000000  0.00000000  0.34136977  1
  Ni  Ni9  1  0.65883150  0.99985471  0.34146686  1
  Ni  Ni10  1  0.99997349  0.65864802  0.34140381  1
  Ni  Ni11  1  0.65876267  0.34145571  0.99989081  1
  Ni  Ni12  1  0.00002651  0.34135198  0.00002432  1
  Ni  Ni13  1  0.00002651  0.34135198  0.65859619  1
  Ni  Ni14  1  0.34123733  0.65854429  0.00010919  1
  Ni  Ni15  1  0.34116850  0.00014529  0.65853314  1
  Ni  Ni16  1  0.34116850  0.00014529  0.00015406  1
  Ni  Ni17  1  0.00000000  0.00000000  0.65863023  1
  Ni  Ni18  1  0.99997349  0.65864802  0.99997568  1
  Ni  Ni19  1  0.65883150  0.99985471  0.99984594  1
  Sn  Sn0  1  0.74982783  0.74998041  0.75009638  1
  Sn  Sn1  1  0.25017217  0.25001959  0.24990362  1
  B  B0  1  0.72987063  0.72990464  0.27011236  1
  B  B1  1  0.27010912  0.72989599  0.27010932  1
  B  B2  1  0.72989088  0.27010401  0.27011344  1
  B  B3  1  0.27012937  0.27009536  0.72988764  1
  B  B4  1  0.72989088  0.27010401  0.72989068  1
  B  B5  1  0.27010912  0.72989599  0.72988656  1
loop_
_geom_bond_atom_site_label_1
_geom_bond_atom_site_label_2
_geom_bond_distance
_geom_bond_site_symmetry_2
Ni0 Sn0 2.480824 1_554
Ni0 Ni19 2.638742 1_554
Ni0 Ni18 2.638794 1_554
Ni0 Ni11 2.639224 1_554
Ni0 Ni12 2.639448 1_655
Ni0 Ni14 2.640593 1_555
Ni0 Ni16 2.640847 1_565
Ni1 Sn0 2.480708 1_545
Ni1 Ni19 2.638421 1_545
Ni1 Ni9 2.638427 1_545
Ni1 Ni8 2.638534 1_655
Ni1 Ni17 2.638534 1_655
Ni1 Ni15 2.640606 1_555
Ni1 Ni16 2.640610 1_556
Ni2 Sn0 2.480432 1_455
Ni2 Ni8 2.638396 1_565
Ni3 Sn0 2.480824 1_555
Ni3 Ni9 2.638744 1_555
Ni4 Sn1 2.480824 1_556
Ni5 Sn1 2.480708 1_565
Ni5 Ni8 2.638534 1_565
Ni5 Ni9 2.640606 1_555
Ni6 Sn1 2.480432 1_655
Ni6 Ni8 2.638396 1_655
Ni7 Sn1 2.480824 1_555
Ni7 Ni9 2.640847 1_545
Ni8 Ni9 2.547974 1_445
Ni8 Sc0 2.549145 1_555
Ni8 Sn1 2.894711 1_555
Ni8 Sn0 2.894714 1_445
Ni9 Sc0 2.548908 1_665
Ni9 Sn0 2.892546 1_555
Ni9 Sn1 2.894830 1_565
Ni10 Ni13 2.369121 1_655
Ni10 Ni9 2.548059 1_555
Ni10 Ni14 2.548620 1_655
Ni10 Ni8 2.549126 1_665
Ni10 Sc0 2.549347 1_665
Ni10 Ni18 2.549581 1_554
Ni10 Ni2 2.638400 1_655
Ni10 Ni3 2.638794 1_555
Ni10 Ni6 2.639032 1_555
Ni10 Ni7 2.639443 1_655
Ni10 Sn0 2.894056 1_555
Ni10 Sn1 2.894419 1_655
Ni11 Ni14 2.369807 1_556
Ni11 Ni12 2.548617 1_656
Ni11 Ni13 2.548620 1_655
Ni11 Sc0 2.549345 1_656
Ni11 Ni9 2.550920 1_546
Ni11 Ni19 2.550924 1_545
Ni11 Ni3 2.639219 1_555
Ni11 Ni7 2.640587 1_556
Ni11 Ni4 2.640593 1_555
Ni11 Sn0 2.892183 1_555
Ni11 Sn1 2.893832 1_556
Ni12 Ni18 2.369129 1_454
Ni12 Ni16 2.548059 1_555
Ni12 Ni8 2.549129 1_555
Ni12 Sc0 2.549343 1_555
Ni12 Ni13 2.549581 1_554
Ni12 Ni6 2.638407 1_455
Ni12 Ni4 2.638794 1_554
Ni12 Ni2 2.639028 1_554
Ni12 Sn1 2.894056 1_555
Ni12 Sn0 2.894412 1_454
Ni13 Ni15 2.548059 1_555
Ni13 Ni17 2.549126 1_555
Ni13 Sc0 2.549347 1_556
Ni13 Ni6 2.638400 1_455
Ni13 Ni7 2.638794 1_555
Ni13 Ni2 2.639032 1_555
Ni13 Ni3 2.639443 1_455
Ni13 Sn1 2.894056 1_555
Ni13 Sn0 2.894419 1_455
Ni14 Ni18 2.548617 1_454
Ni14 Sc0 2.549345 1_565
Ni14 Ni15 2.550920 1_564
Ni14 Ni16 2.550924 1_565
Ni14 Ni7 2.639219 1_555
Ni14 Ni4 2.639224 1_554
Ni14 Ni3 2.640587 1_554
Ni14 Sn1 2.892183 1_555
Ni14 Sn0 2.893832 1_554
Ni15 Ni9 2.370032 1_545
Ni15 Ni17 2.547974 1_555
Ni15 Sc0 2.548908 1_556
Ni15 Ni16 2.551020 1_556
Ni15 Ni5 2.638427 1_545
Ni15 Ni7 2.638744 1_555
Ni15 Ni3 2.640847 1_545
Ni15 Sn1 2.892546 1_555
Ni15 Sn0 2.894830 1_545
Ni16 Ni19 2.370025 1_544
Ni16 Ni8 2.547970 1_555
Ni16 Sc0 2.548912 1_555
Ni16 Ni5 2.638421 1_545
Ni16 Ni4 2.638742 1_554
Ni16 Sn1 2.892534 1_555
Ni16 Sn0 2.894830 1_544
Ni17 Ni8 2.369111 1_555
Ni17 Ni19 2.547970 1_445
Ni17 Ni18 2.549129 1_445
Ni17 Sc0 2.549145 1_556
Ni17 Ni6 2.638396 1_455
Ni17 Ni2 2.638396 1_545
Ni17 Ni5 2.638534 1_545
Ni17 Sn0 2.894711 1_445
Ni17 Sn1 2.894714 1_555
Ni18 Ni19 2.548059 1_555
Ni18 Sc0 2.549343 1_666
Ni18 Ni2 2.638407 1_655
Ni18 Ni6 2.639028 1_556
Ni18 Ni4 2.639448 1_655
Ni18 Sn0 2.894056 1_555
Ni18 Sn1 2.894412 1_656
Ni19 Sc0 2.548912 1_666
Ni19 Ni9 2.551020 1_556
Ni19 Ni5 2.640610 1_556
Ni19 Ni4 2.640847 1_565
Ni19 Sn0 2.892534 1_555
Ni19 Sn1 2.894830 1_566
B0 Ni9 2.086028 1_555
B0 Ni19 2.086033 1_554
B0 Ni18 2.086268 1_554
B0 Ni10 2.086272 1_555
B0 Ni0 2.098392 1_555
B0 Ni3 2.098398 1_555
B0 Ni5 2.100080 1_555
B0 Ni6 2.100315 1_555
B1 Ni16 2.085974 1_565
B1 Ni14 2.086027 1_555
B1 Ni10 2.086177 1_455
B1 Ni8 2.086289 1_565
B1 Ni5 2.098807 1_555
B1 Ni7 2.099059 1_555
B1 Ni2 2.099420 1_555
B1 Ni0 2.099599 1_555
B2 Ni9 2.085974 1_545
B2 Ni11 2.086020 1_554
B2 Ni12 2.086177 1_655
B2 Ni8 2.086290 1_655
B2 Ni1 2.098813 1_555
B2 Ni0 2.099059 1_555
B2 Ni6 2.099426 1_555
B2 Ni7 2.099599 1_555
B3 Ni15 2.086028 1_555
B3 Ni16 2.086033 1_556
B3 Ni12 2.086268 1_556
B3 Ni13 2.086272 1_555
B3 Ni4 2.098392 1_555
B3 Ni7 2.098398 1_555
B3 Ni1 2.100080 1_555
B3 Ni2 2.100315 1_555
B4 Ni19 2.085974 1_545
B4 Ni11 2.086027 1_555
B4 Ni13 2.086177 1_655
B4 Ni17 2.086289 1_655
B4 Ni1 2.098807 1_555
B4 Ni3 2.099059 1_555
B4 Ni6 2.099420 1_555
B4 Ni4 2.099599 1_555
B5 Ni15 2.085974 1_565
B5 Ni14 2.086020 1_556
B5 Ni18 2.086177 1_455
B5 Ni17 2.086290 1_565
B5 Ni5 2.098813 1_555
B5 Ni4 2.099059 1_555
B5 Ni2 2.099426 1_555
B5 Ni3 2.099599 1_555
