# generated using pymatgen
data_Lu2BIrPt5
_symmetry_space_group_name_H-M   'P 1'
_cell_length_a   5.83464157
_cell_length_b   5.83194059
_cell_length_c   5.83193959
_cell_angle_alpha   60.03065614
_cell_angle_beta   59.98467974
_cell_angle_gamma   59.98468039
_symmetry_Int_Tables_number   1
_chemical_formula_structural   Lu2BIrPt5
_chemical_formula_sum   'Lu2 B1 Ir1 Pt5'
_cell_volume   140.32180377
_cell_formula_units_Z   1
loop_
 _symmetry_equiv_pos_site_id
 _symmetry_equiv_pos_as_xyz
  1  'x, y, z'
loop_
 _atom_site_type_symbol
 _atom_site_label
 _atom_site_symmetry_multiplicity
 _atom_site_fract_x
 _atom_site_fract_y
 _atom_site_fract_z
 _atom_site_occupancy
  Lu  Lu0  1  0.74893356  0.75106644  0.75106644  1
  Lu  Lu1  1  0.24893356  0.25106644  0.25106644  1
  B  B0  1  0.00517842  0.99482158  0.99482158  1
  Ir  Ir0  1  0.25535846  0.74464154  0.74464154  1
  Pt  Pt0  1  0.74128829  0.74319297  0.25871171  1
  Pt  Pt1  1  0.25680703  0.74319297  0.25871171  1
  Pt  Pt2  1  0.74540435  0.25459565  0.25459565  1
  Pt  Pt3  1  0.25680703  0.25871171  0.74319297  1
  Pt  Pt4  1  0.74128829  0.25871171  0.74319297  1
loop_
_geom_bond_atom_site_label_1
_geom_bond_atom_site_label_2
_geom_bond_distance
_geom_bond_site_symmetry_2
Lu0 Pt0 2.916008 1_556
Lu0 Pt1 2.916008 1_556
Lu0 Pt4 2.916009 1_565
Lu0 Pt3 2.916009 1_565
Lu0 Pt0 2.917337 1_555
Lu0 Pt1 2.917338 1_655
Lu0 Pt4 2.917338 1_555
Lu0 Pt3 2.917338 1_655
Lu0 Pt2 2.917466 1_556
Lu0 Pt2 2.917466 1_565
Lu1 Pt3 2.916008 1_555
Lu1 Pt4 2.916008 1_455
Lu1 Pt1 2.916009 1_555
Lu1 Pt0 2.916009 1_455
Lu1 Pt3 2.917337 1_554
Lu1 Pt4 2.917338 1_554
Lu1 Pt1 2.917338 1_545
Lu1 Pt0 2.917338 1_545
Lu1 Pt2 2.917466 1_555
Lu1 Pt2 2.917466 1_455
B0 Ir0 2.062431 1_555
B0 Pt1 2.127484 1_556
B0 Pt4 2.127484 1_465
B0 Pt0 2.127484 1_456
B0 Pt3 2.127484 1_565
B0 Pt2 2.141522 1_466
Ir0 Lu0 2.917802 1_555
Ir0 Lu0 2.917802 1_455
Ir0 Lu1 2.917802 1_556
Ir0 Lu1 2.917802 1_565
