# generated using pymatgen
data_In2Ir3S2
_symmetry_space_group_name_H-M   'P 1'
_cell_length_a   5.61046546
_cell_length_b   5.61046595
_cell_length_c   5.61046438
_cell_angle_alpha   60.71182513
_cell_angle_beta   60.71182088
_cell_angle_gamma   60.71182249
_symmetry_Int_Tables_number   1
_chemical_formula_structural   In2Ir3S2
_chemical_formula_sum   'In2 Ir3 S2'
_cell_volume   126.88287237
_cell_formula_units_Z   1
loop_
 _symmetry_equiv_pos_site_id
 _symmetry_equiv_pos_as_xyz
  1  'x, y, z'
loop_
 _atom_site_type_symbol
 _atom_site_label
 _atom_site_symmetry_multiplicity
 _atom_site_fract_x
 _atom_site_fract_y
 _atom_site_fract_z
 _atom_site_occupancy
  In  In0  1  0.50000000  0.50000000  0.50000000  1
  In  In1  1  0.00000000  0.00000000  0.00000000  1
  Ir  Ir0  1  0.00000000  0.00000000  0.50000000  1
  Ir  Ir1  1  0.00000000  0.50000000  0.00000000  1
  Ir  Ir2  1  0.50000000  0.00000000  0.00000000  1
  S  S0  1  0.71401026  0.71401026  0.71401026  1
  S  S1  1  0.28598974  0.28598974  0.28598974  1
loop_
_geom_bond_atom_site_label_1
_geom_bond_atom_site_label_2
_geom_bond_distance
_geom_bond_site_symmetry_2
In0 Ir1 2.835360 1_655
In0 Ir1 2.835360 1_556
In0 Ir2 2.835360 1_556
In0 Ir2 2.835360 1_565
In0 Ir0 2.835361 1_565
In0 Ir0 2.835361 1_655
In0 S0 2.925174 1_555
In0 S1 2.925174 1_555
In1 Ir0 2.805232 1_555
In1 Ir0 2.805232 1_554
In1 Ir2 2.805233 1_455
In1 Ir2 2.805233 1_555
In1 Ir1 2.805233 1_545
In1 Ir1 2.805233 1_555
Ir0 S1 2.310793 1_555
Ir0 S0 2.310793 1_445
Ir1 S1 2.310793 1_555
Ir1 S0 2.310793 1_454
Ir2 S1 2.310793 1_555
Ir2 S0 2.310793 1_544
