# generated using pymatgen
data_Cs3NaCaI6
_symmetry_space_group_name_H-M   'P 1'
_cell_length_a   10.18303211
_cell_length_b   10.18303249
_cell_length_c   10.18303389
_cell_angle_alpha   93.25390144
_cell_angle_beta   93.25390404
_cell_angle_gamma   93.25390285
_symmetry_Int_Tables_number   1
_chemical_formula_structural   Cs3NaCaI6
_chemical_formula_sum   'Cs6 Na2 Ca2 I12'
_cell_volume   1050.61163518
_cell_formula_units_Z   2
loop_
 _symmetry_equiv_pos_site_id
 _symmetry_equiv_pos_as_xyz
  1  'x, y, z'
loop_
 _atom_site_type_symbol
 _atom_site_label
 _atom_site_symmetry_multiplicity
 _atom_site_fract_x
 _atom_site_fract_y
 _atom_site_fract_z
 _atom_site_occupancy
  Cs  Cs0  1  0.86746284  0.63253716  0.25000000  1
  Cs  Cs1  1  0.63253716  0.25000000  0.86746284  1
  Cs  Cs2  1  0.25000000  0.86746284  0.63253716  1
  Cs  Cs3  1  0.13253716  0.36746284  0.75000000  1
  Cs  Cs4  1  0.36746284  0.75000000  0.13253716  1
  Cs  Cs5  1  0.75000000  0.13253716  0.36746284  1
  Na  Na0  1  0.25000000  0.25000000  0.25000000  1
  Na  Na1  1  0.75000000  0.75000000  0.75000000  1
  Ca  Ca0  1  0.00000000  0.00000000  0.00000000  1
  Ca  Ca1  1  0.50000000  0.50000000  0.50000000  1
  I  I0  1  0.20378883  0.53684390  0.41421341  1
  I  I1  1  0.03684390  0.70378883  0.91421341  1
  I  I2  1  0.91421341  0.03684390  0.70378883  1
  I  I3  1  0.79621117  0.46315610  0.58578659  1
  I  I4  1  0.70378883  0.91421341  0.03684390  1
  I  I5  1  0.46315610  0.58578659  0.79621117  1
  I  I6  1  0.58578659  0.79621117  0.46315610  1
  I  I7  1  0.53684390  0.41421341  0.20378883  1
  I  I8  1  0.08578659  0.96315610  0.29621117  1
  I  I9  1  0.96315610  0.29621117  0.08578659  1
  I  I10  1  0.29621117  0.08578659  0.96315610  1
  I  I11  1  0.41421341  0.20378883  0.53684390  1
loop_
_geom_bond_atom_site_label_1
_geom_bond_atom_site_label_2
_geom_bond_distance
_geom_bond_site_symmetry_2
Cs0 I7 3.917963 1_555
Cs0 I8 3.917963 1_655
Cs0 I0 3.922863 1_655
Cs0 I9 3.922863 1_555
Cs0 I3 4.000287 1_555
Cs0 I1 4.000287 1_654
Cs0 I4 4.068823 1_555
Cs0 I6 4.068823 1_555
Cs1 I9 3.917963 1_556
Cs1 I11 3.917963 1_555
Cs1 I10 3.922863 1_555
Cs1 I7 3.922863 1_556
Cs1 I5 4.000286 1_555
Cs1 I4 4.000286 1_546
Cs1 I2 4.068823 1_555
Cs1 I3 4.068823 1_555
Cs2 I0 3.917963 1_555
Cs2 I10 3.917963 1_565
Cs2 I11 3.922863 1_565
Cs2 I8 3.922863 1_555
Cs2 I2 4.000286 1_465
Cs2 I6 4.000286 1_555
Cs2 I5 4.068823 1_555
Cs2 I1 4.068823 1_555
Cs3 I5 3.917963 1_555
Cs3 I2 3.917963 1_455
Cs3 I3 3.922863 1_455
Cs3 I1 3.922863 1_555
Cs3 I0 4.000287 1_555
Cs3 I9 4.000287 1_456
Cs3 I10 4.068823 1_555
Cs3 I11 4.068823 1_555
Cs4 I1 3.917963 1_554
Cs4 I6 3.917963 1_555
Cs4 I4 3.922863 1_555
Cs4 I5 3.922863 1_554
Cs4 I7 4.000286 1_555
Cs4 I10 4.000286 1_564
Cs4 I8 4.068823 1_555
Cs4 I0 4.068823 1_555
Cs5 I3 3.917963 1_555
Cs5 I4 3.917963 1_545
Cs5 I6 3.922863 1_545
Cs5 I2 3.922863 1_555
Cs5 I8 4.000286 1_645
Cs5 I11 4.000286 1_555
Cs5 I7 4.068823 1_555
Cs5 I9 4.068823 1_555
Ca0 I10 3.141443 1_554
Ca0 I4 3.141443 1_445
Ca0 I9 3.141444 1_455
Ca0 I1 3.141444 1_544
Ca0 I8 3.141444 1_545
Ca0 I2 3.141444 1_454
Ca1 I3 3.141443 1_555
Ca1 I0 3.141443 1_555
Ca1 I6 3.141443 1_555
Ca1 I11 3.141443 1_555
Ca1 I5 3.141444 1_555
Ca1 I7 3.141444 1_555
I0 Na0 3.352676 1_555
I1 Na1 3.352676 1_455
I2 Na1 3.352676 1_545
I3 Na1 3.352676 1_555
I4 Na1 3.352676 1_554
I5 Na1 3.352676 1_555
I6 Na1 3.352676 1_555
I7 Na0 3.352676 1_555
I8 Na0 3.352676 1_565
I9 Na0 3.352676 1_655
I10 Na0 3.352676 1_556
I11 Na0 3.352676 1_555
