# generated using pymatgen
data_Zr5SiSnSb2
_symmetry_space_group_name_H-M   'P 1'
_cell_length_a   8.64203720
_cell_length_b   8.65054303
_cell_length_c   5.86172344
_cell_angle_alpha   90.00000000
_cell_angle_beta   90.00000000
_cell_angle_gamma   120.03256088
_symmetry_Int_Tables_number   1
_chemical_formula_structural   Zr5SiSnSb2
_chemical_formula_sum   'Zr10 Si2 Sn2 Sb4'
_cell_volume   379.37863564
_cell_formula_units_Z   2
loop_
 _symmetry_equiv_pos_site_id
 _symmetry_equiv_pos_as_xyz
  1  'x, y, z'
loop_
 _atom_site_type_symbol
 _atom_site_label
 _atom_site_symmetry_multiplicity
 _atom_site_fract_x
 _atom_site_fract_y
 _atom_site_fract_z
 _atom_site_occupancy
  Zr  Zr0  1  0.25887830  0.00007433  0.25000000  1
  Zr  Zr1  1  0.25887830  0.25880496  0.75000000  1
  Zr  Zr2  1  0.00071658  0.73999311  0.75000000  1
  Zr  Zr3  1  0.00071658  0.26072248  0.25000000  1
  Zr  Zr4  1  0.74086103  0.74006593  0.25000000  1
  Zr  Zr5  1  0.74086103  0.00079510  0.75000000  1
  Zr  Zr6  1  0.33222417  0.66611309  0.00000000  1
  Zr  Zr7  1  0.66662888  0.33331444  0.50000000  1
  Zr  Zr8  1  0.66662888  0.33331444  0.00000000  1
  Zr  Zr9  1  0.33222417  0.66611309  0.50000000  1
  Si  Si0  1  0.99872752  0.99936426  0.00000000  1
  Si  Si1  1  0.99872752  0.99936426  0.50000000  1
  Sn  Sn0  1  0.60632135  0.99944762  0.25000000  1
  Sn  Sn1  1  0.60632135  0.60687373  0.75000000  1
  Sb  Sb0  1  0.99936902  0.39417949  0.75000000  1
  Sb  Sb1  1  0.99936902  0.60518953  0.25000000  1
  Sb  Sb2  1  0.39627315  0.39634859  0.25000000  1
  Sb  Sb3  1  0.39627315  0.99992456  0.75000000  1
loop_
_geom_bond_atom_site_label_1
_geom_bond_atom_site_label_2
_geom_bond_distance
_geom_bond_site_symmetry_2
Si0 Zr5 2.672345 1_564
Si0 Zr4 2.672349 1_555
Si0 Zr0 2.681092 1_665
Si0 Zr1 2.681092 1_664
Si0 Zr3 2.687100 1_665
Si0 Zr2 2.687115 1_654
Si1 Zr5 2.672345 1_565
Si1 Zr4 2.672349 1_555
Si1 Zr0 2.681092 1_665
Si1 Zr1 2.681092 1_665
Si1 Zr3 2.687100 1_665
Si1 Zr2 2.687115 1_655
Sn0 Zr4 2.999648 1_555
Sn0 Zr3 3.002385 1_665
Sn0 Zr0 3.005333 1_565
Sn0 Zr9 3.039099 1_555
Sn0 Zr6 3.039099 1_555
Sn0 Zr7 3.041988 1_565
Sn0 Zr8 3.041988 1_565
Sn0 Zr5 3.150934 1_565
Sn0 Zr5 3.150934 1_564
Sn1 Zr5 2.999648 1_565
Sn1 Zr2 3.002386 1_655
Sn1 Zr1 3.005329 1_555
Sn1 Zr9 3.039108 1_555
Sn1 Zr6 3.039108 1_556
Sn1 Zr7 3.041988 1_555
Sn1 Zr8 3.041988 1_556
Sn1 Zr4 3.150934 1_555
Sn1 Zr4 3.150934 1_556
Sb0 Zr2 2.985664 1_655
Sb0 Zr5 2.993554 1_555
Sb0 Zr1 3.004989 1_655
Sb0 Zr7 3.029521 1_555
Sb0 Zr8 3.029521 1_556
Sb0 Zr6 3.030231 1_656
Sb0 Zr9 3.030231 1_655
Sb0 Zr3 3.152199 1_656
Sb0 Zr3 3.152199 1_655
Sb1 Zr3 2.985673 1_655
Sb1 Zr4 2.993554 1_555
Sb1 Zr0 3.004995 1_665
Sb1 Zr8 3.029521 1_555
Sb1 Zr7 3.029521 1_555
Sb1 Zr6 3.030225 1_655
Sb1 Zr9 3.030225 1_655
Sb1 Zr2 3.152196 1_655
Sb1 Zr2 3.152196 1_654
Sb2 Zr4 2.974180 1_555
Sb2 Zr3 3.007903 1_555
Sb2 Zr0 3.014407 1_555
Sb2 Zr8 3.029679 1_555
Sb2 Zr7 3.029679 1_555
Sb2 Zr6 3.031922 1_555
Sb2 Zr9 3.031922 1_555
Sb2 Zr1 3.162488 1_554
Sb2 Zr1 3.162488 1_555
Sb3 Zr5 2.974179 1_565
Sb3 Zr2 3.007905 1_555
Sb3 Zr1 3.014415 1_565
Sb3 Zr7 3.029679 1_565
Sb3 Zr8 3.029679 1_566
Sb3 Zr6 3.031908 1_556
Sb3 Zr9 3.031908 1_555
Sb3 Zr0 3.162490 1_566
Sb3 Zr0 3.162490 1_565
