# generated using pymatgen
data_Y5Sc(Be2Rh5)2
_symmetry_space_group_name_H-M   'P 1'
_cell_length_a   19.51076791
_cell_length_b   19.51076791
_cell_length_c   6.61724918
_cell_angle_alpha   90.00000000
_cell_angle_beta   90.00000000
_cell_angle_gamma   90.00000000
_symmetry_Int_Tables_number   1
_chemical_formula_structural   Y5Sc(Be2Rh5)2
_chemical_formula_sum   'Y40 Sc8 Be32 Rh80'
_cell_volume   2518.98867167
_cell_formula_units_Z   8
loop_
 _symmetry_equiv_pos_site_id
 _symmetry_equiv_pos_as_xyz
  1  'x, y, z'
loop_
 _atom_site_type_symbol
 _atom_site_label
 _atom_site_symmetry_multiplicity
 _atom_site_fract_x
 _atom_site_fract_y
 _atom_site_fract_z
 _atom_site_occupancy
  Y  Y0_0  1  0.41133668  0.16309859  0.00000000  1
  Y  Y0_1  1  0.41133668  0.16309859  0.50000000  1
  Y  Y0_2  1  0.41133668  0.66309859  0.00000000  1
  Y  Y0_3  1  0.41133668  0.66309859  0.50000000  1
  Y  Y0_4  1  0.91133668  0.16309859  0.00000000  1
  Y  Y0_5  1  0.91133668  0.16309859  0.50000000  1
  Y  Y0_6  1  0.91133668  0.66309859  0.00000000  1
  Y  Y0_7  1  0.91133668  0.66309859  0.50000000  1
  Y  Y1_0  1  0.16309859  0.08866332  0.00000000  1
  Y  Y1_1  1  0.16309859  0.08866332  0.50000000  1
  Y  Y1_2  1  0.16309859  0.58866332  0.00000000  1
  Y  Y1_3  1  0.16309859  0.58866332  0.50000000  1
  Y  Y1_4  1  0.66309859  0.08866332  0.00000000  1
  Y  Y1_5  1  0.66309859  0.08866332  0.50000000  1
  Y  Y1_6  1  0.66309859  0.58866332  0.00000000  1
  Y  Y1_7  1  0.66309859  0.58866332  0.50000000  1
  Y  Y2_0  1  0.33690141  0.41133668  0.00000000  1
  Y  Y2_1  1  0.33690141  0.41133668  0.50000000  1
  Y  Y2_2  1  0.33690141  0.91133668  0.00000000  1
  Y  Y2_3  1  0.33690141  0.91133668  0.50000000  1
  Y  Y2_4  1  0.83690141  0.41133668  0.00000000  1
  Y  Y2_5  1  0.83690141  0.41133668  0.50000000  1
  Y  Y2_6  1  0.83690141  0.91133668  0.00000000  1
  Y  Y2_7  1  0.83690141  0.91133668  0.50000000  1
  Y  Y3_0  1  0.08866332  0.33690141  0.00000000  1
  Y  Y3_1  1  0.08866332  0.33690141  0.50000000  1
  Y  Y3_2  1  0.08866332  0.83690141  0.00000000  1
  Y  Y3_3  1  0.08866332  0.83690141  0.50000000  1
  Y  Y3_4  1  0.58866332  0.33690141  0.00000000  1
  Y  Y3_5  1  0.58866332  0.33690141  0.50000000  1
  Y  Y3_6  1  0.58866332  0.83690141  0.00000000  1
  Y  Y3_7  1  0.58866332  0.83690141  0.50000000  1
  Y  Y4_0  1  0.00000000  0.00000000  0.00000000  1
  Y  Y4_1  1  0.00000000  0.00000000  0.50000000  1
  Y  Y4_2  1  0.00000000  0.50000000  0.00000000  1
  Y  Y4_3  1  0.00000000  0.50000000  0.50000000  1
  Y  Y4_4  1  0.50000000  0.00000000  0.00000000  1
  Y  Y4_5  1  0.50000000  0.00000000  0.50000000  1
  Y  Y4_6  1  0.50000000  0.50000000  0.00000000  1
  Y  Y4_7  1  0.50000000  0.50000000  0.50000000  1
  Sc  Sc0_0  1  0.25000000  0.25000000  0.00000000  1
  Sc  Sc0_1  1  0.25000000  0.25000000  0.50000000  1
  Sc  Sc0_2  1  0.25000000  0.75000000  0.00000000  1
  Sc  Sc0_3  1  0.25000000  0.75000000  0.50000000  1
  Sc  Sc0_4  1  0.75000000  0.25000000  0.00000000  1
  Sc  Sc0_5  1  0.75000000  0.25000000  0.50000000  1
  Sc  Sc0_6  1  0.75000000  0.75000000  0.00000000  1
  Sc  Sc0_7  1  0.75000000  0.75000000  0.50000000  1
  Be  Be0_0  1  0.30851918  0.06066751  0.00000000  1
  Be  Be0_1  1  0.30851918  0.06066751  0.50000000  1
  Be  Be0_2  1  0.30851918  0.56066751  0.00000000  1
  Be  Be0_3  1  0.30851918  0.56066751  0.50000000  1
  Be  Be0_4  1  0.80851918  0.06066751  0.00000000  1
  Be  Be0_5  1  0.80851918  0.06066751  0.50000000  1
  Be  Be0_6  1  0.80851918  0.56066751  0.00000000  1
  Be  Be0_7  1  0.80851918  0.56066751  0.50000000  1
  Be  Be1_0  1  0.06066751  0.19148082  0.00000000  1
  Be  Be1_1  1  0.06066751  0.19148082  0.50000000  1
  Be  Be1_2  1  0.06066751  0.69148082  0.00000000  1
  Be  Be1_3  1  0.06066751  0.69148082  0.50000000  1
  Be  Be1_4  1  0.56066751  0.19148082  0.00000000  1
  Be  Be1_5  1  0.56066751  0.19148082  0.50000000  1
  Be  Be1_6  1  0.56066751  0.69148082  0.00000000  1
  Be  Be1_7  1  0.56066751  0.69148082  0.50000000  1
  Be  Be2_0  1  0.43933249  0.30851918  0.00000000  1
  Be  Be2_1  1  0.43933249  0.30851918  0.50000000  1
  Be  Be2_2  1  0.43933249  0.80851918  0.00000000  1
  Be  Be2_3  1  0.43933249  0.80851918  0.50000000  1
  Be  Be2_4  1  0.93933249  0.30851918  0.00000000  1
  Be  Be2_5  1  0.93933249  0.30851918  0.50000000  1
  Be  Be2_6  1  0.93933249  0.80851918  0.00000000  1
  Be  Be2_7  1  0.93933249  0.80851918  0.50000000  1
  Be  Be3_0  1  0.19148082  0.43933249  0.00000000  1
  Be  Be3_1  1  0.19148082  0.43933249  0.50000000  1
  Be  Be3_2  1  0.19148082  0.93933249  0.00000000  1
  Be  Be3_3  1  0.19148082  0.93933249  0.50000000  1
  Be  Be3_4  1  0.69148082  0.43933249  0.00000000  1
  Be  Be3_5  1  0.69148082  0.43933249  0.50000000  1
  Be  Be3_6  1  0.69148082  0.93933249  0.00000000  1
  Be  Be3_7  1  0.69148082  0.93933249  0.50000000  1
  Rh  Rh0_0  1  0.03677610  0.11202632  0.25000000  1
  Rh  Rh0_1  1  0.03677610  0.11202632  0.75000000  1
  Rh  Rh0_2  1  0.03677610  0.61202632  0.25000000  1
  Rh  Rh0_3  1  0.03677610  0.61202632  0.75000000  1
  Rh  Rh0_4  1  0.53677610  0.11202632  0.25000000  1
  Rh  Rh0_5  1  0.53677610  0.11202632  0.75000000  1
  Rh  Rh0_6  1  0.53677610  0.61202632  0.25000000  1
  Rh  Rh0_7  1  0.53677610  0.61202632  0.75000000  1
  Rh  Rh1_0  1  0.11202632  0.46322390  0.25000000  1
  Rh  Rh1_1  1  0.11202632  0.46322390  0.75000000  1
  Rh  Rh1_2  1  0.11202632  0.96322390  0.25000000  1
  Rh  Rh1_3  1  0.11202632  0.96322390  0.75000000  1
  Rh  Rh1_4  1  0.61202632  0.46322390  0.25000000  1
  Rh  Rh1_5  1  0.61202632  0.46322390  0.75000000  1
  Rh  Rh1_6  1  0.61202632  0.96322390  0.25000000  1
  Rh  Rh1_7  1  0.61202632  0.96322390  0.75000000  1
  Rh  Rh2_0  1  0.38797368  0.03677610  0.25000000  1
  Rh  Rh2_1  1  0.38797368  0.03677610  0.75000000  1
  Rh  Rh2_2  1  0.38797368  0.53677610  0.25000000  1
  Rh  Rh2_3  1  0.38797368  0.53677610  0.75000000  1
  Rh  Rh2_4  1  0.88797368  0.03677610  0.25000000  1
  Rh  Rh2_5  1  0.88797368  0.03677610  0.75000000  1
  Rh  Rh2_6  1  0.88797368  0.53677610  0.25000000  1
  Rh  Rh2_7  1  0.88797368  0.53677610  0.75000000  1
  Rh  Rh3_0  1  0.46322390  0.38797368  0.25000000  1
  Rh  Rh3_1  1  0.46322390  0.38797368  0.75000000  1
  Rh  Rh3_2  1  0.46322390  0.88797368  0.25000000  1
  Rh  Rh3_3  1  0.46322390  0.88797368  0.75000000  1
  Rh  Rh3_4  1  0.96322390  0.38797368  0.25000000  1
  Rh  Rh3_5  1  0.96322390  0.38797368  0.75000000  1
  Rh  Rh3_6  1  0.96322390  0.88797368  0.25000000  1
  Rh  Rh3_7  1  0.96322390  0.88797368  0.75000000  1
  Rh  Rh4_0  1  0.21616052  0.35823378  0.25000000  1
  Rh  Rh4_1  1  0.21616052  0.35823378  0.75000000  1
  Rh  Rh4_2  1  0.21616052  0.85823378  0.25000000  1
  Rh  Rh4_3  1  0.21616052  0.85823378  0.75000000  1
  Rh  Rh4_4  1  0.71616052  0.35823378  0.25000000  1
  Rh  Rh4_5  1  0.71616052  0.35823378  0.75000000  1
  Rh  Rh4_6  1  0.71616052  0.85823378  0.25000000  1
  Rh  Rh4_7  1  0.71616052  0.85823378  0.75000000  1
  Rh  Rh5_0  1  0.28383948  0.14176622  0.25000000  1
  Rh  Rh5_1  1  0.28383948  0.14176622  0.75000000  1
  Rh  Rh5_2  1  0.28383948  0.64176622  0.25000000  1
  Rh  Rh5_3  1  0.28383948  0.64176622  0.75000000  1
  Rh  Rh5_4  1  0.78383948  0.14176622  0.25000000  1
  Rh  Rh5_5  1  0.78383948  0.14176622  0.75000000  1
  Rh  Rh5_6  1  0.78383948  0.64176622  0.25000000  1
  Rh  Rh5_7  1  0.78383948  0.64176622  0.75000000  1
  Rh  Rh6_0  1  0.35823378  0.28383948  0.25000000  1
  Rh  Rh6_1  1  0.35823378  0.28383948  0.75000000  1
  Rh  Rh6_2  1  0.35823378  0.78383948  0.25000000  1
  Rh  Rh6_3  1  0.35823378  0.78383948  0.75000000  1
  Rh  Rh6_4  1  0.85823378  0.28383948  0.25000000  1
  Rh  Rh6_5  1  0.85823378  0.28383948  0.75000000  1
  Rh  Rh6_6  1  0.85823378  0.78383948  0.25000000  1
  Rh  Rh6_7  1  0.85823378  0.78383948  0.75000000  1
  Rh  Rh7_0  1  0.14176622  0.21616052  0.25000000  1
  Rh  Rh7_1  1  0.14176622  0.21616052  0.75000000  1
  Rh  Rh7_2  1  0.14176622  0.71616052  0.25000000  1
  Rh  Rh7_3  1  0.14176622  0.71616052  0.75000000  1
  Rh  Rh7_4  1  0.64176622  0.21616052  0.25000000  1
  Rh  Rh7_5  1  0.64176622  0.21616052  0.75000000  1
  Rh  Rh7_6  1  0.64176622  0.71616052  0.25000000  1
  Rh  Rh7_7  1  0.64176622  0.71616052  0.75000000  1
  Rh  Rh8_0  1  0.25000000  0.00000000  0.25000000  1
  Rh  Rh8_1  1  0.25000000  0.00000000  0.75000000  1
  Rh  Rh8_2  1  0.25000000  0.50000000  0.25000000  1
  Rh  Rh8_3  1  0.25000000  0.50000000  0.75000000  1
  Rh  Rh8_4  1  0.75000000  0.00000000  0.25000000  1
  Rh  Rh8_5  1  0.75000000  0.00000000  0.75000000  1
  Rh  Rh8_6  1  0.75000000  0.50000000  0.25000000  1
  Rh  Rh8_7  1  0.75000000  0.50000000  0.75000000  1
  Rh  Rh9_0  1  0.00000000  0.25000000  0.25000000  1
  Rh  Rh9_1  1  0.00000000  0.25000000  0.75000000  1
  Rh  Rh9_2  1  0.00000000  0.75000000  0.25000000  1
  Rh  Rh9_3  1  0.00000000  0.75000000  0.75000000  1
  Rh  Rh9_4  1  0.50000000  0.25000000  0.25000000  1
  Rh  Rh9_5  1  0.50000000  0.25000000  0.75000000  1
  Rh  Rh9_6  1  0.50000000  0.75000000  0.25000000  1
  Rh  Rh9_7  1  0.50000000  0.75000000  0.75000000  1
loop_
_geom_bond_atom_site_label_1
_geom_bond_atom_site_label_2
_geom_bond_distance
_geom_bond_site_symmetry_2
Y0_0 Y0_1 3.308625 1_555
Y0_0 Y0_1 3.308625 1_554
Y0_2 Y0_3 3.308625 1_555
Y0_2 Y0_3 3.308625 1_554
Y0_4 Y0_5 3.308625 1_555
Y0_4 Y0_5 3.308625 1_554
Y0_6 Y0_7 3.308625 1_555
Y0_6 Y0_7 3.308625 1_554
Y1_0 Y1_1 3.308625 1_555
Y1_0 Y1_1 3.308625 1_554
Y1_2 Y1_3 3.308625 1_555
Y1_2 Y1_3 3.308625 1_554
Y1_4 Y1_5 3.308625 1_555
Y1_4 Y1_5 3.308625 1_554
Y1_6 Y1_7 3.308625 1_555
Y1_6 Y1_7 3.308625 1_554
Y2_0 Y2_1 3.308625 1_555
Y2_0 Y2_1 3.308625 1_554
Y2_2 Y2_3 3.308625 1_555
Y2_2 Y2_3 3.308625 1_554
Y2_4 Y2_5 3.308625 1_555
Y2_4 Y2_5 3.308625 1_554
Y2_6 Y2_7 3.308625 1_555
Y2_6 Y2_7 3.308625 1_554
Y3_0 Y3_1 3.308625 1_555
Y3_0 Y3_1 3.308625 1_554
Y3_2 Y3_3 3.308625 1_555
Y3_2 Y3_3 3.308625 1_554
Y3_4 Y3_5 3.308625 1_555
Y3_4 Y3_5 3.308625 1_554
Y3_6 Y3_7 3.308625 1_555
Y3_6 Y3_7 3.308625 1_554
Be0_0 Rh2_0 2.314565 1_555
Be0_0 Rh2_1 2.314565 1_554
Be0_0 Rh8_0 2.332686 1_555
Be0_0 Rh8_1 2.332686 1_554
Be0_0 Rh5_0 2.339290 1_555
Be0_0 Rh5_1 2.339290 1_554
Be0_0 Y0_0 2.831655 1_555
Be0_0 Y1_0 2.889367 1_555
Be0_0 Y2_2 2.965717 1_545
Be0_1 Rh2_1 2.314565 1_555
Be0_1 Rh2_0 2.314565 1_555
Be0_1 Rh8_0 2.332686 1_555
Be0_1 Rh8_1 2.332686 1_555
Be0_1 Rh5_1 2.339290 1_555
Be0_1 Rh5_0 2.339290 1_555
Be0_1 Y0_1 2.831655 1_555
Be0_1 Y1_1 2.889367 1_555
Be0_1 Y2_3 2.965717 1_545
Be0_2 Rh2_2 2.314565 1_555
Be0_2 Rh2_3 2.314565 1_554
Be0_2 Rh8_2 2.332686 1_555
Be0_2 Rh8_3 2.332686 1_554
Be0_2 Rh5_2 2.339290 1_555
Be0_2 Rh5_3 2.339290 1_554
Be0_2 Y0_2 2.831655 1_555
Be0_2 Y1_2 2.889367 1_555
Be0_2 Y2_0 2.965717 1_555
Be0_3 Rh2_3 2.314565 1_555
Be0_3 Rh2_2 2.314565 1_555
Be0_3 Rh8_2 2.332686 1_555
Be0_3 Rh8_3 2.332686 1_555
Be0_3 Rh5_2 2.339290 1_555
Be0_3 Rh5_3 2.339290 1_555
Be0_3 Y0_3 2.831655 1_555
Be0_3 Y1_3 2.889367 1_555
Be0_3 Y2_1 2.965717 1_555
Be0_4 Rh2_4 2.314565 1_555
Be0_4 Rh2_5 2.314565 1_554
Be0_4 Rh8_4 2.332686 1_555
Be0_4 Rh8_5 2.332686 1_554
Be0_4 Rh5_4 2.339290 1_555
Be0_4 Rh5_5 2.339290 1_554
Be0_4 Y0_4 2.831655 1_555
Be0_4 Y1_4 2.889367 1_555
Be0_4 Y2_6 2.965717 1_545
Be0_5 Rh2_5 2.314565 1_555
Be0_5 Rh2_4 2.314565 1_555
Be0_5 Rh8_4 2.332686 1_555
Be0_5 Rh8_5 2.332686 1_555
Be0_5 Rh5_5 2.339290 1_555
Be0_5 Rh5_4 2.339290 1_555
Be0_5 Y0_5 2.831655 1_555
Be0_5 Y1_5 2.889367 1_555
Be0_5 Y2_7 2.965717 1_545
Be0_6 Rh2_6 2.314565 1_555
Be0_6 Rh2_7 2.314565 1_554
Be0_6 Rh8_6 2.332686 1_555
Be0_6 Rh8_7 2.332686 1_554
Be0_6 Rh5_6 2.339290 1_555
Be0_6 Rh5_7 2.339290 1_554
Be0_6 Y0_6 2.831655 1_555
Be0_6 Y1_6 2.889367 1_555
Be0_6 Y2_4 2.965717 1_555
Be0_7 Rh2_6 2.314565 1_555
Be0_7 Rh2_7 2.314565 1_555
Be0_7 Rh8_6 2.332686 1_555
Be0_7 Rh8_7 2.332686 1_555
Be0_7 Rh5_6 2.339290 1_555
Be0_7 Rh5_7 2.339290 1_555
Be0_7 Y0_7 2.831655 1_555
Be0_7 Y1_7 2.889367 1_555
Be0_7 Y2_5 2.965717 1_555
Be1_0 Rh0_0 2.314565 1_555
Be1_0 Rh0_1 2.314565 1_554
Be1_0 Rh9_0 2.332686 1_555
Be1_0 Rh9_1 2.332686 1_554
Be1_0 Rh7_0 2.339290 1_555
Be1_0 Rh7_1 2.339290 1_554
Be1_0 Y1_0 2.831655 1_555
Be1_0 Y3_0 2.889367 1_555
Be1_0 Y0_4 2.965717 1_455
Be1_1 Rh0_0 2.314565 1_555
Be1_1 Rh0_1 2.314565 1_555
Be1_1 Rh9_1 2.332686 1_555
Be1_1 Rh9_0 2.332686 1_555
Be1_1 Rh7_1 2.339290 1_555
Be1_1 Rh7_0 2.339290 1_555
Be1_1 Y1_1 2.831655 1_555
Be1_1 Y3_1 2.889367 1_555
Be1_1 Y0_5 2.965717 1_455
Be1_2 Rh0_2 2.314565 1_555
Be1_2 Rh0_3 2.314565 1_554
Be1_2 Rh9_2 2.332686 1_555
Be1_2 Rh9_3 2.332686 1_554
Be1_2 Rh7_2 2.339290 1_555
Be1_2 Rh7_3 2.339290 1_554
Be1_2 Y1_2 2.831655 1_555
Be1_2 Y3_2 2.889367 1_555
Be1_2 Y0_6 2.965717 1_455
Be1_3 Rh0_3 2.314565 1_555
Be1_3 Rh0_2 2.314565 1_555
Be1_3 Rh9_3 2.332686 1_555
Be1_3 Rh9_2 2.332686 1_555
Be1_3 Rh7_2 2.339290 1_555
Be1_3 Rh7_3 2.339290 1_555
Be1_3 Y1_3 2.831655 1_555
Be1_3 Y3_3 2.889367 1_555
Be1_3 Y0_7 2.965717 1_455
Be1_4 Rh0_4 2.314565 1_555
Be1_4 Rh0_5 2.314565 1_554
Be1_4 Rh9_4 2.332686 1_555
Be1_4 Rh9_5 2.332686 1_554
Be1_4 Rh7_4 2.339290 1_555
Be1_4 Rh7_5 2.339290 1_554
Be1_4 Y1_4 2.831655 1_555
Be1_4 Y3_4 2.889367 1_555
Be1_4 Y0_0 2.965717 1_555
Be1_5 Rh0_5 2.314565 1_555
Be1_5 Rh0_4 2.314565 1_555
Be1_5 Rh9_5 2.332686 1_555
Be1_5 Rh9_4 2.332686 1_555
Be1_5 Rh7_5 2.339290 1_555
Be1_5 Rh7_4 2.339290 1_555
Be1_5 Y1_5 2.831655 1_555
Be1_5 Y3_5 2.889367 1_555
Be1_5 Y0_1 2.965717 1_555
Be1_6 Rh0_6 2.314565 1_555
Be1_6 Rh0_7 2.314565 1_554
Be1_6 Rh9_6 2.332686 1_555
Be1_6 Rh9_7 2.332686 1_554
Be1_6 Rh7_6 2.339290 1_555
Be1_6 Rh7_7 2.339290 1_554
Be1_6 Y1_6 2.831655 1_555
Be1_6 Y3_6 2.889367 1_555
Be1_6 Y0_2 2.965717 1_555
Be1_7 Rh0_6 2.314565 1_555
Be1_7 Rh0_7 2.314565 1_555
Be1_7 Rh9_6 2.332686 1_555
Be1_7 Rh9_7 2.332686 1_555
Be1_7 Rh7_7 2.339290 1_555
Be1_7 Rh7_6 2.339290 1_555
Be1_7 Y1_7 2.831655 1_555
Be1_7 Y3_7 2.889367 1_555
Be1_7 Y0_3 2.965717 1_555
Be2_0 Rh3_0 2.314565 1_555
Be2_0 Rh3_1 2.314565 1_554
Be2_0 Rh9_4 2.332686 1_555
Be2_0 Rh9_5 2.332686 1_554
Be2_0 Rh6_0 2.339290 1_555
Be2_0 Rh6_1 2.339290 1_554
Be2_0 Y2_0 2.831655 1_555
Be2_0 Y0_0 2.889367 1_555
Be2_0 Y3_4 2.965717 1_555
Be2_1 Rh3_0 2.314565 1_555
Be2_1 Rh3_1 2.314565 1_555
Be2_1 Rh9_4 2.332686 1_555
Be2_1 Rh9_5 2.332686 1_555
Be2_1 Rh6_0 2.339290 1_555
Be2_1 Rh6_1 2.339290 1_555
Be2_1 Y2_1 2.831655 1_555
Be2_1 Y0_1 2.889367 1_555
Be2_1 Y3_5 2.965717 1_555
Be2_2 Rh3_2 2.314565 1_555
Be2_2 Rh3_3 2.314565 1_554
Be2_2 Rh9_6 2.332686 1_555
Be2_2 Rh9_7 2.332686 1_554
Be2_2 Rh6_2 2.339290 1_555
Be2_2 Rh6_3 2.339290 1_554
Be2_2 Y2_2 2.831655 1_555
Be2_2 Y0_2 2.889367 1_555
Be2_2 Y3_6 2.965717 1_555
Be2_3 Rh3_3 2.314565 1_555
Be2_3 Rh3_2 2.314565 1_555
Be2_3 Rh9_7 2.332686 1_555
Be2_3 Rh9_6 2.332686 1_555
Be2_3 Rh6_2 2.339290 1_555
Be2_3 Rh6_3 2.339290 1_555
Be2_3 Y2_3 2.831655 1_555
Be2_3 Y0_3 2.889367 1_555
Be2_3 Y3_7 2.965717 1_555
Be2_4 Rh3_4 2.314565 1_555
Be2_4 Rh3_5 2.314565 1_554
Be2_4 Rh9_0 2.332686 1_655
Be2_4 Rh9_1 2.332686 1_654
Be2_4 Rh6_4 2.339290 1_555
Be2_4 Rh6_5 2.339290 1_554
Be2_4 Y2_4 2.831655 1_555
Be2_4 Y0_4 2.889367 1_555
Be2_4 Y3_0 2.965717 1_655
Be2_5 Rh3_4 2.314565 1_555
Be2_5 Rh3_5 2.314565 1_555
Be2_5 Rh9_1 2.332686 1_655
Be2_5 Rh9_0 2.332686 1_655
Be2_5 Rh6_4 2.339290 1_555
Be2_5 Rh6_5 2.339290 1_555
Be2_5 Y2_5 2.831655 1_555
Be2_5 Y0_5 2.889367 1_555
Be2_5 Y3_1 2.965717 1_655
Be2_6 Rh3_6 2.314565 1_555
Be2_6 Rh3_7 2.314565 1_554
Be2_6 Rh9_2 2.332686 1_655
Be2_6 Rh9_3 2.332686 1_654
Be2_6 Rh6_6 2.339290 1_555
Be2_6 Rh6_7 2.339290 1_554
Be2_6 Y2_6 2.831655 1_555
Be2_6 Y0_6 2.889367 1_555
Be2_6 Y3_2 2.965717 1_655
Be2_7 Rh3_7 2.314565 1_555
Be2_7 Rh3_6 2.314565 1_555
Be2_7 Rh9_2 2.332686 1_655
Be2_7 Rh9_3 2.332686 1_655
Be2_7 Rh6_6 2.339290 1_555
Be2_7 Rh6_7 2.339290 1_555
Be2_7 Y2_7 2.831655 1_555
Be2_7 Y0_7 2.889367 1_555
Be2_7 Y3_3 2.965717 1_655
Be3_0 Rh1_0 2.314565 1_555
Be3_0 Rh1_1 2.314565 1_554
Be3_0 Rh8_2 2.332686 1_555
Be3_0 Rh8_3 2.332686 1_554
Be3_0 Rh4_0 2.339290 1_555
Be3_0 Rh4_1 2.339290 1_554
Be3_0 Y3_0 2.831655 1_555
Be3_0 Y2_0 2.889367 1_555
Be3_0 Y1_2 2.965717 1_555
Be3_1 Rh1_0 2.314565 1_555
Be3_1 Rh1_1 2.314565 1_555
Be3_1 Rh8_2 2.332686 1_555
Be3_1 Rh8_3 2.332686 1_555
Be3_1 Rh4_1 2.339290 1_555
Be3_1 Rh4_0 2.339290 1_555
Be3_1 Y3_1 2.831655 1_555
Be3_1 Y2_1 2.889367 1_555
Be3_1 Y1_3 2.965717 1_555
Be3_2 Rh1_2 2.314565 1_555
Be3_2 Rh1_3 2.314565 1_554
Be3_2 Rh8_0 2.332686 1_565
Be3_2 Rh8_1 2.332686 1_564
Be3_2 Rh4_2 2.339290 1_555
Be3_2 Rh4_3 2.339290 1_554
Be3_2 Y3_2 2.831655 1_555
Be3_2 Y2_2 2.889367 1_555
Be3_2 Y1_0 2.965717 1_565
Be3_3 Rh1_3 2.314565 1_555
Be3_3 Rh1_2 2.314565 1_555
Be3_3 Rh8_0 2.332686 1_565
Be3_3 Rh8_1 2.332686 1_565
Be3_3 Rh4_3 2.339290 1_555
Be3_3 Rh4_2 2.339290 1_555
Be3_3 Y3_3 2.831655 1_555
Be3_3 Y2_3 2.889367 1_555
Be3_3 Y1_1 2.965717 1_565
Be3_4 Rh1_4 2.314565 1_555
Be3_4 Rh1_5 2.314565 1_554
Be3_4 Rh8_6 2.332686 1_555
Be3_4 Rh8_7 2.332686 1_554
Be3_4 Rh4_4 2.339290 1_555
Be3_4 Rh4_5 2.339290 1_554
Be3_4 Y3_4 2.831655 1_555
Be3_4 Y2_4 2.889367 1_555
Be3_4 Y1_6 2.965717 1_555
Be3_5 Rh1_5 2.314565 1_555
Be3_5 Rh1_4 2.314565 1_555
Be3_5 Rh8_6 2.332686 1_555
Be3_5 Rh8_7 2.332686 1_555
Be3_5 Rh4_5 2.339290 1_555
Be3_5 Rh4_4 2.339290 1_555
Be3_5 Y3_5 2.831655 1_555
Be3_5 Y2_5 2.889367 1_555
Be3_5 Y1_7 2.965717 1_555
Be3_6 Rh1_6 2.314565 1_555
Be3_6 Rh1_7 2.314565 1_554
Be3_6 Rh8_4 2.332686 1_565
Be3_6 Rh8_5 2.332686 1_564
Be3_6 Rh4_6 2.339290 1_555
Be3_6 Rh4_7 2.339290 1_554
Be3_6 Y3_6 2.831655 1_555
Be3_6 Y2_6 2.889367 1_555
Be3_6 Y1_4 2.965717 1_565
Be3_7 Rh1_6 2.314565 1_555
Be3_7 Rh1_7 2.314565 1_555
Be3_7 Rh8_4 2.332686 1_565
Be3_7 Rh8_5 2.332686 1_565
Be3_7 Rh4_6 2.339290 1_555
Be3_7 Rh4_7 2.339290 1_555
Be3_7 Y3_7 2.831655 1_555
Be3_7 Y2_7 2.889367 1_555
Be3_7 Y1_5 2.965717 1_565
Rh0_0 Y4_1 2.833543 1_555
Rh0_0 Y4_0 2.833543 1_555
Rh0_0 Y1_0 3.003169 1_555
Rh0_0 Y1_1 3.003169 1_555
Rh0_0 Y0_4 3.117618 1_455
Rh0_0 Y0_5 3.117618 1_455
Rh0_1 Y4_1 2.833543 1_555
Rh0_1 Y4_0 2.833543 1_556
Rh0_1 Y1_1 3.003169 1_555
Rh0_1 Y1_0 3.003169 1_556
Rh0_1 Y0_5 3.117618 1_455
Rh0_1 Y0_4 3.117618 1_456
Rh0_2 Y4_2 2.833543 1_555
Rh0_2 Y4_3 2.833543 1_555
Rh0_2 Y1_3 3.003169 1_555
Rh0_2 Y1_2 3.003169 1_555
Rh0_2 Y0_7 3.117618 1_455
Rh0_2 Y0_6 3.117618 1_455
Rh0_3 Y4_3 2.833543 1_555
Rh0_3 Y4_2 2.833543 1_556
Rh0_3 Y1_3 3.003169 1_555
Rh0_3 Y1_2 3.003169 1_556
Rh0_3 Y0_7 3.117618 1_455
Rh0_3 Y0_6 3.117618 1_456
Rh0_4 Y4_5 2.833543 1_555
Rh0_4 Y4_4 2.833543 1_555
Rh0_4 Y1_5 3.003169 1_555
Rh0_4 Y1_4 3.003169 1_555
Rh0_4 Y0_0 3.117618 1_555
Rh0_4 Y0_1 3.117618 1_555
Rh0_5 Y4_5 2.833543 1_555
Rh0_5 Y4_4 2.833543 1_556
Rh0_5 Y1_5 3.003169 1_555
Rh0_5 Y1_4 3.003169 1_556
Rh0_5 Y0_1 3.117618 1_555
Rh0_5 Y0_0 3.117618 1_556
Rh0_6 Y4_6 2.833543 1_555
Rh0_6 Y4_7 2.833543 1_555
Rh0_6 Y1_6 3.003169 1_555
Rh0_6 Y1_7 3.003169 1_555
Rh0_6 Y0_2 3.117618 1_555
Rh0_6 Y0_3 3.117618 1_555
Rh0_7 Y4_7 2.833543 1_555
Rh0_7 Y4_6 2.833543 1_556
Rh0_7 Y1_7 3.003169 1_555
Rh0_7 Y1_6 3.003169 1_556
Rh0_7 Y0_3 3.117618 1_555
Rh0_7 Y0_2 3.117618 1_556
Rh1_0 Y4_2 2.833543 1_555
Rh1_0 Y4_3 2.833543 1_555
Rh1_0 Y3_0 3.003169 1_555
Rh1_0 Y3_1 3.003169 1_555
Rh1_0 Y1_3 3.117618 1_555
Rh1_0 Y1_2 3.117618 1_555
Rh1_1 Y4_3 2.833543 1_555
Rh1_1 Y4_2 2.833543 1_556
Rh1_1 Y3_1 3.003169 1_555
Rh1_1 Y3_0 3.003169 1_556
Rh1_1 Y1_3 3.117618 1_555
Rh1_1 Y1_2 3.117618 1_556
Rh1_2 Y4_0 2.833543 1_565
Rh1_2 Y4_1 2.833543 1_565
Rh1_2 Y3_3 3.003169 1_555
Rh1_2 Y3_2 3.003169 1_555
Rh1_2 Y1_1 3.117618 1_565
Rh1_2 Y1_0 3.117618 1_565
Rh1_3 Y4_1 2.833543 1_565
Rh1_3 Y4_0 2.833543 1_566
Rh1_3 Y3_3 3.003169 1_555
Rh1_3 Y3_2 3.003169 1_556
Rh1_3 Y1_1 3.117618 1_565
Rh1_3 Y1_0 3.117618 1_566
Rh1_4 Y4_6 2.833543 1_555
Rh1_4 Y4_7 2.833543 1_555
Rh1_4 Y3_4 3.003169 1_555
Rh1_4 Y3_5 3.003169 1_555
Rh1_4 Y1_7 3.117618 1_555
Rh1_4 Y1_6 3.117618 1_555
Rh1_5 Y4_7 2.833543 1_555
Rh1_5 Y4_6 2.833543 1_556
Rh1_5 Y3_5 3.003169 1_555
Rh1_5 Y3_4 3.003169 1_556
Rh1_5 Y1_7 3.117618 1_555
Rh1_5 Y1_6 3.117618 1_556
Rh1_6 Y4_5 2.833543 1_565
Rh1_6 Y4_4 2.833543 1_565
Rh1_6 Y3_6 3.003169 1_555
Rh1_6 Y3_7 3.003169 1_555
Rh1_6 Y1_5 3.117618 1_565
Rh1_6 Y1_4 3.117618 1_565
Rh1_7 Y4_5 2.833543 1_565
Rh1_7 Y4_4 2.833543 1_566
Rh1_7 Y3_7 3.003169 1_555
Rh1_7 Y3_6 3.003169 1_556
Rh1_7 Y1_5 3.117618 1_565
Rh1_7 Y1_4 3.117618 1_566
Rh2_0 Y4_5 2.833543 1_555
Rh2_0 Y4_4 2.833543 1_555
Rh2_0 Y0_0 3.003169 1_555
Rh2_0 Y0_1 3.003169 1_555
Rh2_0 Y2_2 3.117618 1_545
Rh2_0 Y2_3 3.117618 1_545
Rh2_1 Y4_5 2.833543 1_555
Rh2_1 Y4_4 2.833543 1_556
Rh2_1 Y0_1 3.003169 1_555
Rh2_1 Y0_0 3.003169 1_556
Rh2_1 Y2_3 3.117618 1_545
Rh2_1 Y2_2 3.117618 1_546
Rh2_2 Y4_6 2.833543 1_555
Rh2_2 Y4_7 2.833543 1_555
Rh2_2 Y0_2 3.003169 1_555
Rh2_2 Y0_3 3.003169 1_555
Rh2_2 Y2_0 3.117618 1_555
Rh2_2 Y2_1 3.117618 1_555
Rh2_3 Y4_7 2.833543 1_555
Rh2_3 Y4_6 2.833543 1_556
Rh2_3 Y0_3 3.003169 1_555
Rh2_3 Y0_2 3.003169 1_556
Rh2_3 Y2_1 3.117618 1_555
Rh2_3 Y2_0 3.117618 1_556
Rh2_4 Y4_1 2.833543 1_655
Rh2_4 Y4_0 2.833543 1_655
Rh2_4 Y0_4 3.003169 1_555
Rh2_4 Y0_5 3.003169 1_555
Rh2_4 Y2_6 3.117618 1_545
Rh2_4 Y2_7 3.117618 1_545
Rh2_5 Y4_1 2.833543 1_655
Rh2_5 Y4_0 2.833543 1_656
Rh2_5 Y0_5 3.003169 1_555
Rh2_5 Y0_4 3.003169 1_556
Rh2_5 Y2_7 3.117618 1_545
Rh2_5 Y2_6 3.117618 1_546
Rh2_6 Y4_3 2.833543 1_655
Rh2_6 Y4_2 2.833543 1_655
Rh2_6 Y0_7 3.003169 1_555
Rh2_6 Y0_6 3.003169 1_555
Rh2_6 Y2_5 3.117618 1_555
Rh2_6 Y2_4 3.117618 1_555
Rh2_7 Y4_3 2.833543 1_655
Rh2_7 Y4_2 2.833543 1_656
Rh2_7 Y0_7 3.003169 1_555
Rh2_7 Y0_6 3.003169 1_556
Rh2_7 Y2_5 3.117618 1_555
Rh2_7 Y2_4 3.117618 1_556
Rh3_0 Y4_6 2.833543 1_555
Rh3_0 Y4_7 2.833543 1_555
Rh3_0 Y2_0 3.003169 1_555
Rh3_0 Y2_1 3.003169 1_555
Rh3_0 Y3_5 3.117618 1_555
Rh3_0 Y3_4 3.117618 1_555
Rh3_1 Y4_7 2.833543 1_555
Rh3_1 Y4_6 2.833543 1_556
Rh3_1 Y2_1 3.003169 1_555
Rh3_1 Y2_0 3.003169 1_556
Rh3_1 Y3_5 3.117618 1_555
Rh3_1 Y3_4 3.117618 1_556
Rh3_2 Y4_5 2.833543 1_565
Rh3_2 Y4_4 2.833543 1_565
Rh3_2 Y2_3 3.003169 1_555
Rh3_2 Y2_2 3.003169 1_555
Rh3_2 Y3_7 3.117618 1_555
Rh3_2 Y3_6 3.117618 1_555
Rh3_3 Y4_5 2.833543 1_565
Rh3_3 Y4_4 2.833543 1_566
Rh3_3 Y2_3 3.003169 1_555
Rh3_3 Y2_2 3.003169 1_556
Rh3_3 Y3_7 3.117618 1_555
Rh3_3 Y3_6 3.117618 1_556
Rh3_4 Y4_3 2.833543 1_655
Rh3_4 Y4_2 2.833543 1_655
Rh3_4 Y2_4 3.003169 1_555
Rh3_4 Y2_5 3.003169 1_555
Rh3_4 Y3_0 3.117618 1_655
Rh3_4 Y3_1 3.117618 1_655
Rh3_5 Y4_3 2.833543 1_655
Rh3_5 Y4_2 2.833543 1_656
Rh3_5 Y2_5 3.003169 1_555
Rh3_5 Y2_4 3.003169 1_556
Rh3_5 Y3_1 3.117618 1_655
Rh3_5 Y3_0 3.117618 1_656
Rh3_6 Y4_0 2.833543 1_665
Rh3_6 Y4_1 2.833543 1_665
Rh3_6 Y2_6 3.003169 1_555
Rh3_6 Y2_7 3.003169 1_555
Rh3_6 Y3_3 3.117618 1_655
Rh3_6 Y3_2 3.117618 1_655
Rh3_7 Y4_1 2.833543 1_665
Rh3_7 Y4_0 2.833543 1_666
Rh3_7 Y2_7 3.003169 1_555
Rh3_7 Y2_6 3.003169 1_556
Rh3_7 Y3_3 3.117618 1_655
Rh3_7 Y3_2 3.117618 1_656
Rh4_0 Sc0_1 2.762614 1_555
Rh4_0 Sc0_0 2.762614 1_555
Rh4_0 Y3_0 3.016285 1_555
Rh4_0 Y3_1 3.016285 1_555
Rh4_0 Y2_0 3.059372 1_555
Rh4_0 Y2_1 3.059372 1_555
Rh4_1 Sc0_1 2.762614 1_555
Rh4_1 Sc0_0 2.762614 1_556
Rh4_1 Y3_1 3.016285 1_555
Rh4_1 Y3_0 3.016285 1_556
Rh4_1 Y2_1 3.059372 1_555
Rh4_1 Y2_0 3.059372 1_556
Rh4_2 Sc0_2 2.762614 1_555
Rh4_2 Sc0_3 2.762614 1_555
Rh4_2 Y3_3 3.016285 1_555
Rh4_2 Y3_2 3.016285 1_555
Rh4_2 Y2_2 3.059372 1_555
Rh4_2 Y2_3 3.059372 1_555
Rh4_3 Sc0_3 2.762614 1_555
Rh4_3 Sc0_2 2.762614 1_556
Rh4_3 Y3_3 3.016285 1_555
Rh4_3 Y3_2 3.016285 1_556
Rh4_3 Y2_3 3.059372 1_555
Rh4_3 Y2_2 3.059372 1_556
Rh4_4 Sc0_4 2.762614 1_555
Rh4_4 Sc0_5 2.762614 1_555
Rh4_4 Y3_4 3.016285 1_555
Rh4_4 Y3_5 3.016285 1_555
Rh4_4 Y2_4 3.059372 1_555
Rh4_4 Y2_5 3.059372 1_555
Rh4_5 Sc0_5 2.762614 1_555
Rh4_5 Sc0_4 2.762614 1_556
Rh4_5 Y3_5 3.016285 1_555
Rh4_5 Y3_4 3.016285 1_556
Rh4_5 Y2_5 3.059372 1_555
Rh4_5 Y2_4 3.059372 1_556
Rh4_6 Sc0_6 2.762614 1_555
Rh4_6 Sc0_7 2.762614 1_555
Rh4_6 Y3_6 3.016285 1_555
Rh4_6 Y3_7 3.016285 1_555
Rh4_6 Y2_7 3.059372 1_555
Rh4_6 Y2_6 3.059372 1_555
Rh4_7 Sc0_7 2.762614 1_555
Rh4_7 Sc0_6 2.762614 1_556
Rh4_7 Y3_7 3.016285 1_555
Rh4_7 Y3_6 3.016285 1_556
Rh4_7 Y2_7 3.059372 1_555
Rh4_7 Y2_6 3.059372 1_556
Rh5_0 Sc0_1 2.762614 1_555
Rh5_0 Sc0_0 2.762614 1_555
Rh5_0 Y0_0 3.016285 1_555
Rh5_0 Y0_1 3.016285 1_555
Rh5_0 Y1_1 3.059372 1_555
Rh5_0 Y1_0 3.059372 1_555
Rh5_1 Sc0_1 2.762614 1_555
Rh5_1 Sc0_0 2.762614 1_556
Rh5_1 Y0_1 3.016285 1_555
Rh5_1 Y0_0 3.016285 1_556
Rh5_1 Y1_1 3.059372 1_555
Rh5_1 Y1_0 3.059372 1_556
Rh5_2 Sc0_3 2.762614 1_555
Rh5_2 Sc0_2 2.762614 1_555
Rh5_2 Y0_3 3.016285 1_555
Rh5_2 Y0_2 3.016285 1_555
Rh5_2 Y1_3 3.059372 1_555
Rh5_2 Y1_2 3.059372 1_555
Rh5_3 Sc0_3 2.762614 1_555
Rh5_3 Sc0_2 2.762614 1_556
Rh5_3 Y0_3 3.016285 1_555
Rh5_3 Y0_2 3.016285 1_556
Rh5_3 Y1_3 3.059372 1_555
Rh5_3 Y1_2 3.059372 1_556
Rh5_4 Sc0_4 2.762614 1_555
Rh5_4 Sc0_5 2.762614 1_555
Rh5_4 Y0_4 3.016285 1_555
Rh5_4 Y0_5 3.016285 1_555
Rh5_4 Y1_5 3.059372 1_555
Rh5_4 Y1_4 3.059372 1_555
Rh5_5 Sc0_5 2.762614 1_555
Rh5_5 Sc0_4 2.762614 1_556
Rh5_5 Y0_5 3.016285 1_555
Rh5_5 Y0_4 3.016285 1_556
Rh5_5 Y1_5 3.059372 1_555
Rh5_5 Y1_4 3.059372 1_556
Rh5_6 Sc0_6 2.762614 1_555
Rh5_6 Sc0_7 2.762614 1_555
Rh5_6 Y0_7 3.016285 1_555
Rh5_6 Y0_6 3.016285 1_555
Rh5_6 Y1_6 3.059372 1_555
Rh5_6 Y1_7 3.059372 1_555
Rh5_7 Sc0_7 2.762614 1_555
Rh5_7 Sc0_6 2.762614 1_556
Rh5_7 Y0_7 3.016285 1_555
Rh5_7 Y0_6 3.016285 1_556
Rh5_7 Y1_7 3.059372 1_555
Rh5_7 Y1_6 3.059372 1_556
Rh6_0 Sc0_0 2.762614 1_555
Rh6_0 Sc0_1 2.762614 1_555
Rh6_0 Y2_0 3.016285 1_555
Rh6_0 Y2_1 3.016285 1_555
Rh6_0 Y0_1 3.059372 1_555
Rh6_0 Y0_0 3.059372 1_555
Rh6_1 Sc0_1 2.762614 1_555
Rh6_1 Sc0_0 2.762614 1_556
Rh6_1 Y2_1 3.016285 1_555
Rh6_1 Y2_0 3.016285 1_556
Rh6_1 Y0_1 3.059372 1_555
Rh6_1 Y0_0 3.059372 1_556
Rh6_2 Sc0_3 2.762614 1_555
Rh6_2 Sc0_2 2.762614 1_555
Rh6_2 Y2_2 3.016285 1_555
Rh6_2 Y2_3 3.016285 1_555
Rh6_2 Y0_3 3.059372 1_555
Rh6_2 Y0_2 3.059372 1_555
Rh6_3 Sc0_3 2.762614 1_555
Rh6_3 Sc0_2 2.762614 1_556
Rh6_3 Y2_3 3.016285 1_555
Rh6_3 Y2_2 3.016285 1_556
Rh6_3 Y0_3 3.059372 1_555
Rh6_3 Y0_2 3.059372 1_556
Rh6_4 Sc0_4 2.762614 1_555
Rh6_4 Sc0_5 2.762614 1_555
Rh6_4 Y2_4 3.016285 1_555
Rh6_4 Y2_5 3.016285 1_555
Rh6_4 Y0_5 3.059372 1_555
Rh6_4 Y0_4 3.059372 1_555
Rh6_5 Sc0_5 2.762614 1_555
Rh6_5 Sc0_4 2.762614 1_556
Rh6_5 Y2_5 3.016285 1_555
Rh6_5 Y2_4 3.016285 1_556
Rh6_5 Y0_5 3.059372 1_555
Rh6_5 Y0_4 3.059372 1_556
Rh6_6 Sc0_6 2.762614 1_555
Rh6_6 Sc0_7 2.762614 1_555
Rh6_6 Y2_7 3.016285 1_555
Rh6_6 Y2_6 3.016285 1_555
Rh6_6 Y0_6 3.059372 1_555
Rh6_6 Y0_7 3.059372 1_555
Rh6_7 Sc0_7 2.762614 1_555
Rh6_7 Sc0_6 2.762614 1_556
Rh6_7 Y2_7 3.016285 1_555
Rh6_7 Y2_6 3.016285 1_556
Rh6_7 Y0_7 3.059372 1_555
Rh6_7 Y0_6 3.059372 1_556
Rh7_0 Sc0_1 2.762614 1_555
Rh7_0 Sc0_0 2.762614 1_555
Rh7_0 Y1_0 3.016285 1_555
Rh7_0 Y1_1 3.016285 1_555
Rh7_0 Y3_1 3.059372 1_555
Rh7_0 Y3_0 3.059372 1_555
Rh7_1 Sc0_1 2.762614 1_555
Rh7_1 Sc0_0 2.762614 1_556
Rh7_1 Y1_1 3.016285 1_555
Rh7_1 Y1_0 3.016285 1_556
Rh7_1 Y3_1 3.059372 1_555
Rh7_1 Y3_0 3.059372 1_556
Rh7_2 Sc0_2 2.762614 1_555
Rh7_2 Sc0_3 2.762614 1_555
Rh7_2 Y1_2 3.016285 1_555
Rh7_2 Y1_3 3.016285 1_555
Rh7_2 Y3_3 3.059372 1_555
Rh7_2 Y3_2 3.059372 1_555
Rh7_3 Sc0_3 2.762614 1_555
Rh7_3 Sc0_2 2.762614 1_556
Rh7_3 Y1_3 3.016285 1_555
Rh7_3 Y1_2 3.016285 1_556
Rh7_3 Y3_3 3.059372 1_555
Rh7_3 Y3_2 3.059372 1_556
Rh7_4 Sc0_5 2.762614 1_555
Rh7_4 Sc0_4 2.762614 1_555
Rh7_4 Y1_4 3.016285 1_555
Rh7_4 Y1_5 3.016285 1_555
Rh7_4 Y3_4 3.059372 1_555
Rh7_4 Y3_5 3.059372 1_555
Rh7_5 Sc0_5 2.762614 1_555
Rh7_5 Sc0_4 2.762614 1_556
Rh7_5 Y1_5 3.016285 1_555
Rh7_5 Y1_4 3.016285 1_556
Rh7_5 Y3_5 3.059372 1_555
Rh7_5 Y3_4 3.059372 1_556
Rh7_6 Sc0_6 2.762614 1_555
Rh7_6 Sc0_7 2.762614 1_555
Rh7_6 Y1_6 3.016285 1_555
Rh7_6 Y1_7 3.016285 1_555
Rh7_6 Y3_6 3.059372 1_555
Rh7_6 Y3_7 3.059372 1_555
Rh7_7 Sc0_7 2.762614 1_555
Rh7_7 Sc0_6 2.762614 1_556
Rh7_7 Y1_7 3.016285 1_555
Rh7_7 Y1_6 3.016285 1_556
Rh7_7 Y3_7 3.059372 1_555
Rh7_7 Y3_6 3.059372 1_556
Rh8_0 Y1_0 2.933263 1_555
Rh8_0 Y1_1 2.933263 1_555
Rh8_0 Y2_2 2.933263 1_545
Rh8_0 Y2_3 2.933263 1_545
Rh8_1 Y1_1 2.933263 1_555
Rh8_1 Y1_0 2.933263 1_556
Rh8_1 Y2_3 2.933263 1_545
Rh8_1 Y2_2 2.933263 1_546
Rh8_2 Y1_2 2.933263 1_555
Rh8_2 Y1_3 2.933263 1_555
Rh8_2 Y2_0 2.933263 1_555
Rh8_2 Y2_1 2.933263 1_555
Rh8_3 Y1_3 2.933263 1_555
Rh8_3 Y1_2 2.933263 1_556
Rh8_3 Y2_1 2.933263 1_555
Rh8_3 Y2_0 2.933263 1_556
Rh8_4 Y1_5 2.933263 1_555
Rh8_4 Y1_4 2.933263 1_555
Rh8_4 Y2_6 2.933263 1_545
Rh8_4 Y2_7 2.933263 1_545
Rh8_5 Y1_5 2.933263 1_555
Rh8_5 Y1_4 2.933263 1_556
Rh8_5 Y2_7 2.933263 1_545
Rh8_5 Y2_6 2.933263 1_546
Rh8_6 Y2_5 2.933263 1_555
Rh8_6 Y1_7 2.933263 1_555
Rh8_6 Y1_6 2.933263 1_555
Rh8_6 Y2_4 2.933263 1_555
Rh8_7 Y1_7 2.933263 1_555
Rh8_7 Y2_5 2.933263 1_555
Rh8_7 Y2_4 2.933263 1_556
Rh8_7 Y1_6 2.933263 1_556
Rh9_0 Y3_1 2.933263 1_555
Rh9_0 Y3_0 2.933263 1_555
Rh9_0 Y0_5 2.933263 1_455
Rh9_0 Y0_4 2.933263 1_455
Rh9_1 Y3_1 2.933263 1_555
Rh9_1 Y3_0 2.933263 1_556
Rh9_1 Y0_5 2.933263 1_455
Rh9_1 Y0_4 2.933263 1_456
Rh9_2 Y3_2 2.933263 1_555
Rh9_2 Y3_3 2.933263 1_555
Rh9_2 Y0_6 2.933263 1_455
Rh9_2 Y0_7 2.933263 1_455
Rh9_3 Y3_3 2.933263 1_555
Rh9_3 Y3_2 2.933263 1_556
Rh9_3 Y0_7 2.933263 1_455
Rh9_3 Y0_6 2.933263 1_456
Rh9_4 Y3_5 2.933263 1_555
Rh9_4 Y3_4 2.933263 1_555
Rh9_4 Y0_1 2.933263 1_555
Rh9_4 Y0_0 2.933263 1_555
Rh9_5 Y3_5 2.933263 1_555
Rh9_5 Y3_4 2.933263 1_556
Rh9_5 Y0_1 2.933263 1_555
Rh9_5 Y0_0 2.933263 1_556
Rh9_6 Y3_7 2.933263 1_555
Rh9_6 Y3_6 2.933263 1_555
Rh9_6 Y0_2 2.933263 1_555
Rh9_6 Y0_3 2.933263 1_555
Rh9_7 Y3_7 2.933263 1_555
Rh9_7 Y3_6 2.933263 1_556
Rh9_7 Y0_3 2.933263 1_555
Rh9_7 Y0_2 2.933263 1_556
