# generated using pymatgen
data_Cs4V2NiS8
_symmetry_space_group_name_H-M   'P 1'
_cell_length_a   7.11911582
_cell_length_b   7.33982773
_cell_length_c   9.60876198
_cell_angle_alpha   84.58298599
_cell_angle_beta   72.14692647
_cell_angle_gamma   83.72147878
_symmetry_Int_Tables_number   1
_chemical_formula_structural   Cs4V2NiS8
_chemical_formula_sum   'Cs4 V2 Ni1 S8'
_cell_volume   474.05901245
_cell_formula_units_Z   1
loop_
 _symmetry_equiv_pos_site_id
 _symmetry_equiv_pos_as_xyz
  1  'x, y, z'
loop_
 _atom_site_type_symbol
 _atom_site_label
 _atom_site_symmetry_multiplicity
 _atom_site_fract_x
 _atom_site_fract_y
 _atom_site_fract_z
 _atom_site_occupancy
  Cs  Cs0  1  0.28483268  0.29912675  0.13011056  1
  Cs  Cs1  1  0.69968698  0.25166528  0.52639797  1
  Cs  Cs2  1  0.30031302  0.74833472  0.47360203  1
  Cs  Cs3  1  0.71516732  0.70087325  0.86988944  1
  V  V0  1  0.85728079  0.76468784  0.25010006  1
  V  V1  1  0.14271921  0.23531216  0.74989994  1
  Ni  Ni0  1  0.00000000  0.00000000  0.00000000  1
  S  S0  1  0.70575842  0.00141344  0.16697941  1
  S  S1  1  0.76350337  0.51864843  0.20440439  1
  S  S2  1  0.16222626  0.80433130  0.12387421  1
  S  S3  1  0.80602275  0.76676333  0.48041565  1
  S  S4  1  0.19397725  0.23323667  0.51958435  1
  S  S5  1  0.83777374  0.19566870  0.87612579  1
  S  S6  1  0.23649663  0.48135157  0.79559561  1
  S  S7  1  0.29424158  0.99858656  0.83302059  1
loop_
_geom_bond_atom_site_label_1
_geom_bond_atom_site_label_2
_geom_bond_distance
_geom_bond_site_symmetry_2
Cs0 S6 3.464779 1_554
Cs0 S4 3.591659 1_555
Cs0 S0 3.598987 1_555
Cs0 Ni0 3.679893 1_555
Cs0 S2 3.714534 1_555
Cs0 S7 3.749540 1_544
Cs0 S1 3.763633 1_455
Cs0 S2 3.836834 1_545
Cs0 S5 3.979177 1_554
Cs0 S1 4.198566 1_555
Cs1 S1 3.436158 1_555
Cs1 S4 3.487350 1_655
Cs1 S3 3.596940 1_545
Cs1 S4 3.638238 1_555
Cs1 S5 3.755579 1_555
Cs1 S6 3.844993 1_555
Cs1 S3 3.894578 1_555
Cs1 S7 3.922680 1_545
Cs1 S0 4.048662 1_555
Cs2 S6 3.436158 1_555
Cs2 S3 3.487350 1_455
Cs2 S4 3.596940 1_565
Cs2 S3 3.638238 1_555
Cs2 S2 3.755579 1_555
Cs2 S1 3.844993 1_555
Cs2 S4 3.894578 1_555
Cs2 S0 3.922680 1_565
Cs2 S7 4.048662 1_555
Cs3 S1 3.464779 1_556
Cs3 S3 3.591659 1_555
Cs3 S7 3.598987 1_555
Cs3 Ni0 3.679893 1_666
Cs3 S5 3.714534 1_555
Cs3 S0 3.749540 1_566
Cs3 S6 3.763633 1_655
Cs3 S5 3.836834 1_565
Cs3 S2 3.979177 1_556
Cs3 S6 4.198566 1_555
Ni0 S7 2.213587 1_544
Ni0 S0 2.213587 1_455
Ni0 S2 2.229463 1_545
Ni0 S5 2.229463 1_454
S0 V0 2.162590 1_545
S1 V0 2.119639 1_555
S2 V0 2.173883 1_455
S3 V0 2.130953 1_555
S4 V1 2.130953 1_555
S5 V1 2.173883 1_655
S6 V1 2.119639 1_555
S7 V1 2.162590 1_565
