# generated using pymatgen
data_Hf5Ta(ReGe)6
_symmetry_space_group_name_H-M   'P 1'
_cell_length_a   7.79751996
_cell_length_b   7.79798325
_cell_length_c   7.79751989
_cell_angle_alpha   126.34135759
_cell_angle_beta   128.34360685
_cell_angle_gamma   77.70216059
_symmetry_Int_Tables_number   1
_chemical_formula_structural   Hf5Ta(ReGe)6
_chemical_formula_sum   'Hf5 Ta1 Re6 Ge6'
_cell_volume   290.42204831
_cell_formula_units_Z   1
loop_
 _symmetry_equiv_pos_site_id
 _symmetry_equiv_pos_as_xyz
  1  'x, y, z'
loop_
 _atom_site_type_symbol
 _atom_site_label
 _atom_site_symmetry_multiplicity
 _atom_site_fract_x
 _atom_site_fract_y
 _atom_site_fract_z
 _atom_site_occupancy
  Hf  Hf0  1  0.55062817  0.09286200  0.04223383  1
  Hf  Hf1  1  0.45203805  0.50018901  0.54815196  1
  Hf  Hf2  1  0.94941849  0.49172169  0.04230320  1
  Hf  Hf3  1  0.04799630  0.09604986  0.54805556  1
  Hf  Hf4  1  0.75002176  0.89852156  0.64849980  1
  Ta  Ta0  1  0.25004251  0.89921361  0.14917009  1
  Re  Re0  1  0.49674588  0.23706238  0.73378295  1
  Re  Re1  1  0.00327943  0.23706238  0.24031749  1
  Re  Re2  1  0.12930652  0.75617631  0.62884622  1
  Re  Re3  1  0.87259346  0.49953272  0.62888904  1
  Re  Re4  1  0.62733109  0.75617631  0.12686979  1
  Re  Re5  1  0.37064368  0.49953272  0.12693926  1
  Ge  Ge0  1  0.74997580  0.49568227  0.24570647  1
  Ge  Ge1  1  0.24995763  0.49774882  0.74779119  1
  Ge  Ge2  1  0.33019094  0.83002938  0.49252036  1
  Ge  Ge3  1  0.66251210  0.16230281  0.49249263  1
  Ge  Ge4  1  0.83750901  0.83002938  0.99983944  1
  Ge  Ge5  1  0.16981118  0.16230281  0.99979171  1
loop_
_geom_bond_atom_site_label_1
_geom_bond_atom_site_label_2
_geom_bond_distance
_geom_bond_site_symmetry_2
Hf0 Re4 2.929375 1_545
Hf0 Re2 2.929376 1_544
Hf0 Re1 2.996000 1_655
Hf0 Re0 2.996003 1_554
Hf0 Re5 3.038789 1_555
Hf0 Re3 3.038789 1_555
Hf1 Re3 2.930062 1_555
Hf1 Re5 2.930066 1_555
Hf1 Re0 3.002664 1_555
Hf1 Re1 3.002671 1_555
Hf1 Re4 3.008242 1_556
Hf1 Re2 3.008249 1_555
Hf2 Re3 2.928373 1_554
Hf2 Re5 2.928373 1_655
Hf2 Re0 2.996329 1_554
Hf2 Re1 2.996335 1_655
Hf2 Re4 3.038412 1_555
Hf2 Re2 3.038418 1_655
Hf3 Re2 2.930958 1_545
Hf3 Re4 2.930961 1_445
Hf3 Re0 3.002431 1_555
Hf3 Re1 3.002431 1_555
Hf3 Re5 3.008895 1_556
Hf3 Re3 3.008903 1_455
Hf4 Re0 2.939335 1_565
Hf4 Re1 2.939340 1_666
Hf4 Re2 2.994092 1_655
Hf4 Re4 2.994096 1_555
Hf4 Re3 2.994631 1_555
Hf4 Re5 2.994632 1_555
Re0 Ta0 2.909711 1_545
Re1 Ta0 2.909708 1_545
Re2 Ta0 2.989342 1_556
Re3 Ta0 2.990254 1_656
Re4 Ta0 2.989353 1_555
Re5 Ta0 2.990257 1_555
Ge0 Re4 2.490650 1_555
Ge0 Re2 2.490650 1_655
Ge0 Re3 2.490749 1_555
Ge0 Re5 2.490749 1_555
Ge0 Re1 2.505152 1_655
Ge0 Re0 2.505153 1_554
Ge0 Hf0 2.813154 1_555
Ge0 Hf2 2.813690 1_555
Ge0 Hf4 2.835176 1_555
Ge1 Re5 2.476095 1_556
Ge1 Re3 2.476095 1_455
Ge1 Re2 2.476150 1_555
Ge1 Re4 2.476155 1_556
Ge1 Re1 2.485681 1_555
Ge1 Re0 2.485685 1_555
Ge1 Ta0 2.825224 1_556
Ge1 Hf3 2.827363 1_555
Ge1 Hf1 2.828057 1_555
Ge2 Re5 2.632440 1_555
Ge2 Re0 2.635886 1_565
Ge2 Re2 2.662904 1_555
Ge2 Ta0 2.709556 1_555
Ge2 Hf0 2.734123 1_566
Ge2 Hf1 2.734320 1_555
Ge2 Hf3 2.739661 1_565
Ge2 Hf4 2.741536 1_555
Ge2 Hf2 2.743522 1_455
Ge3 Re4 2.632803 1_545
Ge3 Re0 2.635705 1_555
Ge3 Re3 2.662434 1_555
Ge3 Ta0 2.708939 1_545
Ge3 Hf3 2.734508 1_655
Ge3 Hf2 2.734771 1_556
Ge3 Hf1 2.740539 1_555
Ge3 Hf4 2.741223 1_545
Ge3 Hf0 2.743793 1_555
Ge4 Re3 2.632445 1_555
Ge4 Re1 2.635886 1_666
Ge4 Re4 2.662890 1_556
Ge4 Ta0 2.709555 1_656
Ge4 Hf0 2.734122 1_566
Ge4 Hf1 2.734317 1_555
Ge4 Hf3 2.739664 1_666
Ge4 Hf4 2.741544 1_555
Ge4 Hf2 2.743518 1_556
Ge5 Re2 2.632801 1_545
Ge5 Re1 2.635712 1_556
Ge5 Re5 2.662434 1_556
Ge5 Ta0 2.708930 1_546
Ge5 Hf3 2.734504 1_555
Ge5 Hf2 2.734775 1_456
Ge5 Hf1 2.740539 1_556
Ge5 Hf4 2.741227 1_445
Ge5 Hf0 2.743788 1_556
