# generated using pymatgen
data_Sr5(BiO4)3
_symmetry_space_group_name_H-M   'P 1'
_cell_length_a   5.96217637
_cell_length_b   6.13467124
_cell_length_c   8.50518385
_cell_angle_alpha   90.28767623
_cell_angle_beta   89.83370976
_cell_angle_gamma   90.01189774
_symmetry_Int_Tables_number   1
_chemical_formula_structural   Sr5(BiO4)3
_chemical_formula_sum   'Sr5 Bi3 O12'
_cell_volume   311.08029797
_cell_formula_units_Z   1
loop_
 _symmetry_equiv_pos_site_id
 _symmetry_equiv_pos_as_xyz
  1  'x, y, z'
loop_
 _atom_site_type_symbol
 _atom_site_label
 _atom_site_symmetry_multiplicity
 _atom_site_fract_x
 _atom_site_fract_y
 _atom_site_fract_z
 _atom_site_occupancy
  Sr  Sr0  1  -0.00000000  0.00000000  -0.00000000  1
  Sr  Sr1  1  0.01546582  0.44795243  0.75700337  1
  Sr  Sr2  1  0.48858613  0.95103724  0.75510414  1
  Sr  Sr3  1  0.51141387  0.04896276  0.24489586  1
  Sr  Sr4  1  0.98453418  0.55204757  0.24299663  1
  Bi  Bi0  1  0.50000000  0.50000000  0.50000000  1
  Bi  Bi1  1  0.50000000  0.50000000  -0.00000000  1
  Bi  Bi2  1  -0.00000000  0.00000000  0.50000000  1
  O  O0  1  0.10587241  0.95696752  0.27132499  1
  O  O1  1  0.20926765  0.71746018  0.56286780  1
  O  O2  1  0.21168399  0.67573854  0.95311748  1
  O  O3  1  0.28664686  0.21064486  0.55616898  1
  O  O4  1  0.32919673  0.21334697  0.94824122  1
  O  O5  1  0.39575221  0.45890973  0.25068783  1
  O  O6  1  0.60424779  0.54109027  0.74931217  1
  O  O7  1  0.67080327  0.78665303  0.05175878  1
  O  O8  1  0.71335314  0.78935514  0.44383102  1
  O  O9  1  0.78831601  0.32426146  0.04688252  1
  O  O10  1  0.79073235  0.28253982  0.43713220  1
  O  O11  1  0.89412759  0.04303248  0.72867501  1
loop_
_geom_bond_atom_site_label_1
_geom_bond_atom_site_label_2
_geom_bond_distance
_geom_bond_site_symmetry_2
Bi0 O5 2.224492 1_555
Bi0 O6 2.224492 1_555
Bi0 O3 2.236372 1_555
Bi0 O8 2.236372 1_555
Bi0 O1 2.249149 1_555
Bi0 O10 2.249149 1_555
Bi1 O2 2.070094 1_554
Bi1 O9 2.070094 1_555
Bi1 O4 2.077819 1_554
Bi1 O7 2.077819 1_555
Bi1 O6 2.234624 1_554
Bi1 O5 2.234624 1_555
Bi2 O0 2.058799 1_545
Bi2 O11 2.058799 1_455
Bi2 O8 2.194661 1_445
Bi2 O3 2.194661 1_555
Bi2 O1 2.204769 1_545
Bi2 O10 2.204769 1_455
O0 Sr0 2.410004 1_565
O0 Sr3 2.492563 1_565
O0 Sr4 2.597341 1_455
O1 Sr1 2.609702 1_555
O1 Sr2 2.736999 1_555
O1 Sr4 3.196778 1_455
O2 Sr0 2.387281 1_566
O2 Sr1 2.467947 1_555
O2 Sr2 2.902665 1_555
O2 Sr4 2.913328 1_456
O3 Sr2 2.624592 1_545
O3 Sr1 2.758840 1_555
O3 Sr3 3.121245 1_555
O4 Sr0 2.399749 1_556
O4 Sr2 2.481117 1_545
O4 Sr1 2.873682 1_555
O4 Sr3 2.933463 1_556
O5 Sr4 2.518676 1_455
O5 Sr3 2.608049 1_555
O6 Sr1 2.518676 1_655
O6 Sr2 2.608049 1_555
O7 Sr0 2.399749 1_665
O7 Sr3 2.481117 1_565
O7 Sr4 2.873682 1_555
O7 Sr2 2.933463 1_554
O8 Sr3 2.624592 1_565
O8 Sr4 2.758840 1_555
O8 Sr2 3.121245 1_555
O9 Sr0 2.387281 1_655
O9 Sr4 2.467947 1_555
O9 Sr3 2.902665 1_555
O9 Sr1 2.913328 1_654
O10 Sr4 2.609702 1_555
O10 Sr3 2.736999 1_555
O10 Sr1 3.196778 1_655
O11 Sr0 2.410004 1_656
O11 Sr2 2.492563 1_545
O11 Sr1 2.597341 1_655
