# generated using pymatgen
data_NaP2RhO7
_symmetry_space_group_name_H-M   'P 1'
_cell_length_a   4.80231362
_cell_length_b   7.10730404
_cell_length_c   7.95901952
_cell_angle_alpha   89.99998382
_cell_angle_beta   89.99992709
_cell_angle_gamma   107.16334416
_symmetry_Int_Tables_number   1
_chemical_formula_structural   NaP2RhO7
_chemical_formula_sum   'Na2 P4 Rh2 O14'
_cell_volume   259.55585780
_cell_formula_units_Z   2
loop_
 _symmetry_equiv_pos_site_id
 _symmetry_equiv_pos_as_xyz
  1  'x, y, z'
loop_
 _atom_site_type_symbol
 _atom_site_label
 _atom_site_symmetry_multiplicity
 _atom_site_fract_x
 _atom_site_fract_y
 _atom_site_fract_z
 _atom_site_occupancy
  Na  Na0  1  0.20954459  0.74799435  0.93325028  1
  Na  Na1  1  0.79045341  0.25200665  0.43324828  1
  P  P0  1  0.39063364  0.49138245  0.19347023  1
  P  P1  1  0.60936636  0.50861655  0.69347023  1
  P  P2  1  0.21556987  0.11515745  0.76188115  1
  P  P3  1  0.78442813  0.88484355  0.26188315  1
  Rh  Rh0  1  0.77544765  0.27007900  0.99680195  1
  Rh  Rh1  1  0.22455235  0.72991800  0.49679995  1
  O  O0  1  0.05892079  0.82474015  0.28997889  1
  O  O1  1  0.94107721  0.17525985  0.78997989  1
  O  O2  1  0.14099009  0.93110765  0.65727851  1
  O  O3  1  0.85900791  0.06889135  0.15727951  1
  O  O4  1  0.17645020  0.44862737  0.04981165  1
  O  O5  1  0.82355180  0.55137263  0.54981165  1
  O  O6  1  0.25643708  0.49145708  0.36655783  1
  O  O7  1  0.74356392  0.50854192  0.86655783  1
  O  O8  1  0.40377554  0.63460758  0.69968100  1
  O  O9  1  0.59622947  0.36539542  0.19968000  1
  O  O10  1  0.62324046  0.90666166  0.42261552  1
  O  O11  1  0.37676054  0.09334034  0.92261252  1
  O  O12  1  0.56975383  0.71566376  0.14883298  1
  O  O13  1  0.43024417  0.28433624  0.64883098  1
loop_
_geom_bond_atom_site_label_1
_geom_bond_atom_site_label_2
_geom_bond_distance
_geom_bond_site_symmetry_2
Na0 O4 2.283289 1_556
Na0 O8 2.327858 1_555
Na0 O11 2.348022 1_565
Na0 O7 2.436818 1_455
Na0 O12 2.494755 1_556
Na0 O2 2.622874 1_555
Na1 O5 2.283286 1_555
Na1 O9 2.327843 1_555
Na1 O10 2.348014 1_545
Na1 O6 2.436817 1_655
Na1 O13 2.494750 1_555
Na1 O3 2.622862 1_555
O0 P3 1.517389 1_455
O0 Rh1 2.028020 1_555
O1 P2 1.517388 1_655
O1 Rh0 2.028011 1_555
O2 P2 1.502000 1_565
O2 Rh1 2.043460 1_555
O3 P3 1.501992 1_545
O3 Rh0 2.043441 1_554
O4 P0 1.507701 1_555
O4 Rh0 2.013590 1_454
O5 P1 1.507705 1_555
O5 Rh1 2.013577 1_655
O6 P0 1.520961 1_555
O6 Rh1 2.030651 1_555
O7 P1 1.520965 1_555
O7 Rh0 2.030669 1_555
O8 P1 1.516858 1_555
O8 Rh1 2.037430 1_555
O9 P0 1.516855 1_555
O9 Rh0 2.037417 1_554
O10 P3 1.526635 1_555
O10 Rh1 2.042766 1_555
O11 P2 1.526636 1_555
O11 Rh0 2.042764 1_555
O12 P3 1.608290 1_555
O12 P0 1.611780 1_555
O13 P2 1.608284 1_555
O13 P1 1.611780 1_555
