# generated using pymatgen
data_Zr5Nb(SiOs)6
_symmetry_space_group_name_H-M   'P 1'
_cell_length_a   7.58790590
_cell_length_b   7.58347197
_cell_length_c   7.58790610
_cell_angle_alpha   127.88411180
_cell_angle_beta   121.26954842
_cell_angle_gamma   82.36567901
_symmetry_Int_Tables_number   1
_chemical_formula_structural   Zr5Nb(SiOs)6
_chemical_formula_sum   'Zr5 Nb1 Si6 Os6'
_cell_volume   283.14748202
_cell_formula_units_Z   1
loop_
 _symmetry_equiv_pos_site_id
 _symmetry_equiv_pos_as_xyz
  1  'x, y, z'
loop_
 _atom_site_type_symbol
 _atom_site_label
 _atom_site_symmetry_multiplicity
 _atom_site_fract_x
 _atom_site_fract_y
 _atom_site_fract_z
 _atom_site_occupancy
  Zr  Zr0  1  0.44915897  0.41035647  0.46119750  1
  Zr  Zr1  1  0.54953675  0.00126209  0.95172535  1
  Zr  Zr2  1  0.03010139  0.00976553  0.47966513  1
  Zr  Zr3  1  0.96887921  0.44330629  0.97442608  1
  Zr  Zr4  1  0.24667272  0.57872799  0.83205427  1
  Nb  Nb0  1  0.75111833  0.58566552  0.33454720  1
  Si  Si0  1  0.23066892  0.99582077  0.26515185  1
  Si  Si1  1  0.77689796  0.00329237  0.72639440  1
  Si  Si2  1  0.16655382  0.67058330  0.50747447  1
  Si  Si3  1  0.82337987  0.33826777  0.49412755  1
  Si  Si4  1  0.66310783  0.67058330  0.00403048  1
  Si  Si5  1  0.34414222  0.33826777  0.01488890  1
  Os  Os0  1  0.97607909  0.24890383  0.22494244  1
  Os  Os1  1  0.52396140  0.24890383  0.77282574  1
  Os  Os2  1  0.39574852  0.75639700  0.39920591  1
  Os  Os3  1  0.59512246  0.00074907  0.34906962  1
  Os  Os4  1  0.85719009  0.75639700  0.86064748  1
  Os  Os5  1  0.15167946  0.00074907  0.90562762  1
loop_
_geom_bond_atom_site_label_1
_geom_bond_atom_site_label_2
_geom_bond_distance
_geom_bond_site_symmetry_2
Nb0 Si1 2.627737 1_565
Nb0 Si5 2.667237 1_555
Nb0 Si3 2.667248 1_555
Nb0 Si4 2.698315 1_555
Nb0 Si2 2.698325 1_655
Nb0 Os1 2.799012 1_554
Nb0 Os0 2.799017 1_555
Nb0 Os4 2.975543 1_555
Nb0 Os2 2.975547 1_555
Si0 Zr2 2.700784 1_565
Si0 Zr0 2.815154 1_565
Si0 Zr4 2.892308 1_554
Si1 Zr3 2.744309 1_555
Si1 Zr1 3.000250 1_555
Si2 Zr4 2.713061 1_555
Si2 Zr3 2.721634 1_454
Si2 Zr0 2.724398 1_555
Si2 Zr2 2.732183 1_565
Si2 Zr1 2.735276 1_565
Si3 Zr1 2.720849 1_554
Si3 Zr0 2.728203 1_555
Si3 Zr4 2.735017 1_655
Si3 Zr2 2.735544 1_655
Si3 Zr3 2.761671 1_555
Si4 Zr4 2.713056 1_554
Si4 Zr3 2.721635 1_554
Si4 Zr0 2.724405 1_554
Si4 Zr2 2.732190 1_665
Si4 Zr1 2.735280 1_564
Si5 Zr1 2.720840 1_554
Si5 Zr0 2.728201 1_555
Si5 Zr4 2.735027 1_554
Si5 Zr2 2.735546 1_554
Si5 Zr3 2.761688 1_454
Os0 Si1 2.494621 1_554
Os0 Si2 2.550036 1_655
Os0 Si3 2.553827 1_555
Os0 Si0 2.575003 1_645
Os0 Os4 2.833973 1_544
Os0 Zr1 2.857943 1_554
Os0 Os5 2.876256 1_654
Os0 Zr4 3.014602 1_655
Os0 Zr3 3.016998 1_554
Os0 Zr0 3.064351 1_655
Os0 Zr2 3.236873 1_655
Os1 Si1 2.494621 1_555
Os1 Si4 2.550035 1_556
Os1 Si5 2.553814 1_556
Os1 Si0 2.575007 1_545
Os1 Os2 2.833974 1_545
Os1 Zr1 2.857936 1_555
Os1 Os3 2.876268 1_555
Os1 Zr4 3.014607 1_555
Os1 Zr3 3.016997 1_555
Os1 Zr0 3.064358 1_555
Os1 Zr2 3.236866 1_555
Os2 Si0 2.498306 1_555
Os2 Si1 2.511897 1_565
Os2 Si5 2.549499 1_555
Os2 Si2 2.561916 1_555
Os2 Os3 2.841693 1_565
Os2 Zr0 2.882253 1_555
Os2 Zr1 2.884861 1_565
Os2 Zr3 2.885175 1_454
Os2 Zr4 3.137707 1_554
Os2 Zr2 3.265540 1_565
Os3 Si1 2.437171 1_555
Os3 Si0 2.494931 1_545
Os3 Si4 2.529407 1_545
Os3 Si3 2.549806 1_555
Os3 Zr1 2.853304 1_554
Os3 Zr0 2.901333 1_555
Os3 Zr2 2.908920 1_655
Os3 Zr4 2.946908 1_544
Os4 Si0 2.498312 1_656
Os4 Si1 2.511891 1_565
Os4 Si3 2.549497 1_555
Os4 Si4 2.561929 1_556
Os4 Os5 2.841688 1_665
Os4 Zr0 2.882249 1_555
Os4 Zr1 2.884856 1_565
Os4 Zr3 2.885174 1_555
Os4 Zr4 3.137707 1_655
Os4 Zr2 3.265549 1_666
Os5 Si1 2.437171 1_455
Os5 Si0 2.494924 1_546
Os5 Si2 2.529420 1_545
Os5 Si5 2.549815 1_556
Os5 Zr1 2.853307 1_555
Os5 Zr0 2.901330 1_556
Os5 Zr2 2.908922 1_555
Os5 Zr4 2.946901 1_545
