# generated using pymatgen
data_Hf4MnBiPb
_symmetry_space_group_name_H-M   'P 1'
_cell_length_a   8.18105843
_cell_length_b   8.18114838
_cell_length_c   8.18105997
_cell_angle_alpha   96.15544370
_cell_angle_beta   96.19251770
_cell_angle_gamma   141.71091986
_symmetry_Int_Tables_number   1
_chemical_formula_structural   Hf4MnBiPb
_chemical_formula_sum   'Hf8 Mn2 Bi2 Pb2'
_cell_volume   320.52286638
_cell_formula_units_Z   2
loop_
 _symmetry_equiv_pos_site_id
 _symmetry_equiv_pos_as_xyz
  1  'x, y, z'
loop_
 _atom_site_type_symbol
 _atom_site_label
 _atom_site_symmetry_multiplicity
 _atom_site_fract_x
 _atom_site_fract_y
 _atom_site_fract_z
 _atom_site_occupancy
  Hf  Hf0  1  0.69470457  0.58117711  0.27584699  1
  Hf  Hf1  1  0.30545976  0.41981502  0.72531917  1
  Hf  Hf2  1  0.58005076  0.30415747  0.88418987  1
  Hf  Hf3  1  0.08156971  0.19352887  0.27507777  1
  Hf  Hf4  1  0.80533011  0.08117711  0.88647154  1
  Hf  Hf5  1  0.41845111  0.69352887  0.11195916  1
  Hf  Hf6  1  0.91996760  0.80415747  0.72410671  1
  Hf  Hf7  1  0.19449585  0.91981502  0.11435527  1
  Mn  Mn0  1  0.25002880  0.25035742  0.00036080  1
  Mn  Mn1  1  0.74999662  0.75035742  0.00032862  1
  Bi  Bi0  1  0.86303488  0.36273625  0.22587933  1
  Bi  Bi1  1  0.63685592  0.86273625  0.49970137  1
  Pb  Pb0  1  0.13828779  0.63822886  0.77646234  1
  Pb  Pb1  1  0.36176752  0.13822886  0.49994107  1
loop_
_geom_bond_atom_site_label_1
_geom_bond_atom_site_label_2
_geom_bond_distance
_geom_bond_site_symmetry_2
Hf0 Mn0 2.665694 1_555
Hf0 Mn1 2.665927 1_555
Hf0 Hf3 3.199308 1_665
Hf0 Hf3 3.199318 1_555
Hf0 Hf7 3.210508 1_655
Hf0 Hf7 3.210936 1_545
Hf0 Hf5 3.259129 1_555
Hf0 Hf2 3.277204 1_554
Hf0 Pb1 3.304486 1_555
Hf0 Pb1 3.304601 1_665
Hf0 Hf6 3.464478 1_555
Hf1 Mn1 2.663187 1_556
Hf1 Mn0 2.663257 1_556
Hf1 Pb0 3.006297 1_555
Hf1 Pb1 3.139611 1_555
Hf1 Hf4 3.210503 1_455
Hf1 Hf4 3.210936 1_565
Hf1 Hf6 3.219050 1_445
Hf1 Hf6 3.219278 1_555
Hf1 Hf5 3.236518 1_556
Hf1 Hf2 3.256029 1_555
Hf1 Hf3 3.479811 1_555
Hf2 Mn0 2.676645 1_556
Hf2 Mn1 2.676832 1_556
Hf2 Pb1 2.997014 1_555
Hf2 Hf6 3.202950 1_445
Hf2 Hf6 3.202950 1_555
Hf2 Hf7 3.219050 1_656
Hf2 Hf7 3.219279 1_546
Hf2 Pb0 3.300618 1_545
Hf2 Pb0 3.300701 1_655
Hf2 Hf4 3.464477 1_555
Hf3 Mn0 2.655776 1_555
Hf3 Mn1 2.655935 1_445
Hf3 Pb1 3.120947 1_555
Hf3 Hf5 3.221187 1_445
Hf3 Hf5 3.221187 1_555
Hf3 Hf7 3.236517 1_545
Hf3 Hf4 3.259137 1_454
Hf4 Mn1 2.665698 1_546
Hf4 Mn0 2.665928 1_656
Hf4 Hf5 3.199310 1_656
Hf4 Hf5 3.199325 1_546
Hf4 Hf6 3.277201 1_545
Hf4 Pb0 3.304486 1_545
Hf4 Pb0 3.304593 1_655
Hf5 Mn1 2.655776 1_555
Hf5 Mn0 2.655935 1_555
Hf5 Pb0 3.120940 1_554
Hf5 Hf7 3.479810 1_555
Hf6 Mn1 2.676645 1_556
Hf6 Mn0 2.676833 1_666
Hf6 Pb0 2.997015 1_655
Hf6 Hf7 3.256029 1_656
Hf6 Pb1 3.300618 1_555
Hf6 Pb1 3.300706 1_665
Hf7 Mn0 2.663187 1_565
Hf7 Mn1 2.663257 1_455
Hf7 Pb1 3.006297 1_565
Hf7 Pb0 3.139605 1_554
Mn0 Mn1 2.683012 1_445
Mn0 Mn1 2.683012 1_555
Bi0 Hf0 3.014198 1_555
Bi0 Hf3 3.020609 1_655
Bi0 Hf4 3.142851 1_554
Bi0 Hf2 3.158863 1_554
Bi0 Hf7 3.313598 1_545
Bi0 Hf7 3.313901 1_655
Bi0 Hf5 3.314675 1_545
Bi0 Hf5 3.315161 1_655
Bi1 Hf4 3.014190 1_565
Bi1 Hf5 3.020609 1_555
Bi1 Hf0 3.142850 1_555
Bi1 Hf6 3.158869 1_555
Bi1 Hf1 3.313598 1_555
Bi1 Hf1 3.313905 1_665
Bi1 Hf3 3.314675 1_555
Bi1 Hf3 3.315165 1_665
