# generated using pymatgen
data_Zr5BeBi2Pb
_symmetry_space_group_name_H-M   'P 1'
_cell_length_a   8.73064231
_cell_length_b   8.73064275
_cell_length_c   5.87838296
_cell_angle_alpha   90.00000000
_cell_angle_beta   90.00000000
_cell_angle_gamma   119.96465623
_symmetry_Int_Tables_number   1
_chemical_formula_structural   Zr5BeBi2Pb
_chemical_formula_sum   'Zr10 Be2 Bi4 Pb2'
_cell_volume   388.18208068
_cell_formula_units_Z   2
loop_
 _symmetry_equiv_pos_site_id
 _symmetry_equiv_pos_as_xyz
  1  'x, y, z'
loop_
 _atom_site_type_symbol
 _atom_site_label
 _atom_site_symmetry_multiplicity
 _atom_site_fract_x
 _atom_site_fract_y
 _atom_site_fract_z
 _atom_site_occupancy
  Zr  Zr0  1  0.66662493  0.33338695  0.50154356  1
  Zr  Zr1  1  0.33338695  0.66662493  0.50154356  1
  Zr  Zr2  1  0.33338695  0.66662493  0.99845644  1
  Zr  Zr3  1  0.66662493  0.33338695  0.99845644  1
  Zr  Zr4  1  0.75353017  0.75353017  0.25000000  1
  Zr  Zr5  1  0.24482648  0.99925724  0.25000000  1
  Zr  Zr6  1  0.99925724  0.24482648  0.25000000  1
  Zr  Zr7  1  0.24956356  0.24956356  0.75000000  1
  Zr  Zr8  1  0.75076471  0.00241937  0.75000000  1
  Zr  Zr9  1  0.00241937  0.75076471  0.75000000  1
  Be  Be0  1  0.00001624  0.00001624  0.50610726  1
  Be  Be1  1  0.00001624  0.00001624  0.99389274  1
  Bi  Bi0  1  0.39036129  0.39036129  0.25000000  1
  Bi  Bi1  1  0.60690538  0.00030552  0.25000000  1
  Bi  Bi2  1  0.00030552  0.60690538  0.25000000  1
  Bi  Bi3  1  0.61203964  0.61203964  0.75000000  1
  Pb  Pb0  1  0.38948563  0.00048476  0.75000000  1
  Pb  Pb1  1  0.00048476  0.38948563  0.75000000  1
loop_
_geom_bond_atom_site_label_1
_geom_bond_atom_site_label_2
_geom_bond_distance
_geom_bond_site_symmetry_2
Be0 Zr7 2.609085 1_555
Be0 Zr8 2.614776 1_455
Be0 Zr9 2.614776 1_545
Be0 Zr5 2.617055 1_545
Be0 Zr6 2.617056 1_455
Be0 Zr4 2.627260 1_445
Be1 Zr7 2.609085 1_555
Be1 Zr8 2.614776 1_455
Be1 Zr9 2.614776 1_545
Be1 Zr5 2.617055 1_546
Be1 Zr6 2.617056 1_456
Be1 Zr4 2.627260 1_446
Bi0 Zr6 2.989966 1_455
Bi0 Zr5 2.989966 1_545
Bi0 Zr0 3.074072 1_555
Bi0 Zr3 3.074072 1_554
Bi0 Zr1 3.074072 1_555
Bi0 Zr2 3.074072 1_554
Bi0 Zr4 3.172391 1_555
Bi0 Zr7 3.186146 1_555
Bi0 Zr7 3.186146 1_554
Bi1 Zr6 2.997736 1_555
Bi1 Zr4 3.005949 1_545
Bi1 Zr0 3.065986 1_555
Bi1 Zr3 3.065986 1_554
Bi1 Zr1 3.070276 1_545
Bi1 Zr2 3.070276 1_544
Bi1 Zr5 3.156620 1_545
Bi1 Zr8 3.192731 1_554
Bi1 Zr8 3.192731 1_555
Bi2 Zr5 2.997736 1_555
Bi2 Zr4 3.005949 1_455
Bi2 Zr1 3.065986 1_555
Bi2 Zr2 3.065986 1_554
Bi2 Zr0 3.070276 1_455
Bi2 Zr3 3.070276 1_454
Bi2 Zr6 3.156620 1_455
Bi2 Zr9 3.192731 1_555
Bi2 Zr9 3.192731 1_554
Bi3 Zr9 2.993266 1_655
Bi3 Zr8 2.993266 1_565
Bi3 Zr2 3.071969 1_555
Bi3 Zr1 3.071969 1_555
Bi3 Zr3 3.071969 1_555
Bi3 Zr0 3.071969 1_555
Bi3 Zr7 3.166340 1_555
Bi3 Zr4 3.188487 1_555
Bi3 Zr4 3.188487 1_556
Pb0 Zr9 2.968746 1_545
Pb0 Zr7 2.979092 1_555
Pb0 Zr3 3.067591 1_555
Pb0 Zr0 3.067591 1_555
Pb0 Zr2 3.072954 1_545
Pb0 Zr1 3.072954 1_545
Pb0 Zr8 3.145796 1_555
Pb0 Zr5 3.196956 1_546
Pb0 Zr5 3.196956 1_545
Pb1 Zr8 2.968746 1_455
Pb1 Zr7 2.979092 1_555
Pb1 Zr2 3.067591 1_555
Pb1 Zr1 3.067591 1_555
Pb1 Zr3 3.072954 1_455
Pb1 Zr0 3.072954 1_455
Pb1 Zr9 3.145796 1_555
Pb1 Zr6 3.196956 1_456
Pb1 Zr6 3.196956 1_455
