# generated using pymatgen
data_Cs4V2PbS8
_symmetry_space_group_name_H-M   'P 1'
_cell_length_a   9.57072133
_cell_length_b   9.70824813
_cell_length_c   11.73181378
_cell_angle_alpha   106.49283943
_cell_angle_beta   102.23768715
_cell_angle_gamma   94.52440696
_symmetry_Int_Tables_number   1
_chemical_formula_structural   Cs4V2PbS8
_chemical_formula_sum   'Cs8 V4 Pb2 S16'
_cell_volume   1010.14963778
_cell_formula_units_Z   2
loop_
 _symmetry_equiv_pos_site_id
 _symmetry_equiv_pos_as_xyz
  1  'x, y, z'
loop_
 _atom_site_type_symbol
 _atom_site_label
 _atom_site_symmetry_multiplicity
 _atom_site_fract_x
 _atom_site_fract_y
 _atom_site_fract_z
 _atom_site_occupancy
  Cs  Cs0  1  0.93380274  0.52285304  0.25476964  1
  Cs  Cs1  1  0.06619726  0.47714696  0.74523036  1
  Cs  Cs2  1  0.76177217  0.99263948  0.46908034  1
  Cs  Cs3  1  0.23822783  0.00736052  0.53091966  1
  Cs  Cs4  1  0.59820728  0.74762984  0.01765837  1
  Cs  Cs5  1  0.40179272  0.25237016  0.98234163  1
  Cs  Cs6  1  0.61033960  0.68744477  0.61823203  1
  Cs  Cs7  1  0.38966040  0.31255523  0.38176797  1
  V  V0  1  0.95207923  0.11360506  0.23755858  1
  V  V1  1  0.04792077  0.88639494  0.76244142  1
  V  V2  1  0.37353917  0.68038354  0.25936921  1
  V  V3  1  0.62646083  0.31961646  0.74063079  1
  Pb  Pb0  1  0.84999130  0.14384055  0.92353656  1
  Pb  Pb1  1  0.15000870  0.85615945  0.07646344  1
  S  S0  1  0.95585328  0.88900185  0.23388728  1
  S  S1  1  0.04414672  0.11099815  0.76611272  1
  S  S2  1  0.59646324  0.08943165  0.72889115  1
  S  S3  1  0.40353676  0.91056835  0.27110885  1
  S  S4  1  0.28815530  0.65584863  0.40677876  1
  S  S5  1  0.71184470  0.34415137  0.59322124  1
  S  S6  1  0.78068899  0.42907259  0.91393307  1
  S  S7  1  0.21931101  0.57092741  0.08606693  1
  S  S8  1  0.02221119  0.25354888  0.41963504  1
  S  S9  1  0.97778881  0.74645112  0.58036496  1
  S  S10  1  0.10089276  0.16309767  0.13277266  1
  S  S11  1  0.89910724  0.83690233  0.86722734  1
  S  S12  1  0.74019133  0.14173825  0.14801150  1
  S  S13  1  0.25980867  0.85826175  0.85198850  1
  S  S14  1  0.57305442  0.59471788  0.26865853  1
  S  S15  1  0.42694558  0.40528212  0.73134147  1
loop_
_geom_bond_atom_site_label_1
_geom_bond_atom_site_label_2
_geom_bond_distance
_geom_bond_site_symmetry_2
Cs0 S4 3.433199 1_655
Cs0 S14 3.603872 1_555
Cs0 S0 3.624668 1_555
Cs0 S8 3.717372 1_655
Cs0 S9 3.734498 1_555
Cs0 S12 3.741022 1_555
Cs0 S6 3.768784 1_554
Cs0 S7 3.770633 1_655
Cs0 S10 3.977092 1_655
Cs1 S5 3.433199 1_455
Cs1 S15 3.603872 1_555
Cs1 S1 3.624668 1_555
Cs1 S9 3.717372 1_455
Cs1 S8 3.734498 1_555
Cs1 S13 3.741022 1_555
Cs1 S7 3.768784 1_556
Cs1 S6 3.770633 1_455
Cs1 S11 3.977092 1_455
Cs2 S5 3.424233 1_565
Cs2 S3 3.595373 1_555
Cs2 S0 3.601023 1_555
Cs2 S9 3.619144 1_555
Cs2 S2 3.650947 1_565
Cs2 S8 3.662869 1_665
Cs2 S1 3.743185 1_665
Cs2 S14 3.956757 1_555
Cs3 S4 3.424233 1_545
Cs3 S2 3.595373 1_555
Cs3 S1 3.601023 1_555
Cs3 S8 3.619144 1_555
Cs3 S3 3.650947 1_545
Cs3 S9 3.662869 1_445
Cs3 S0 3.743185 1_445
Cs3 S15 3.956757 1_555
Cs4 S0 3.692718 1_555
Cs4 S14 3.695819 1_555
Cs4 S6 3.702930 1_554
Cs4 S12 3.714946 1_565
Cs4 S13 3.806043 1_554
Cs4 S11 3.845579 1_554
Cs4 S3 3.867525 1_555
Cs4 S15 3.934914 1_554
Cs5 S1 3.692718 1_555
Cs5 S15 3.695819 1_555
Cs5 S7 3.702930 1_556
Cs5 S13 3.714946 1_545
Cs5 S12 3.806043 1_556
Cs5 S10 3.845579 1_556
Cs5 S2 3.867525 1_555
Cs5 S14 3.934914 1_556
Cs6 S11 3.437273 1_555
Cs6 S4 3.454297 1_555
Cs6 S5 3.494806 1_555
Cs6 S9 3.658149 1_555
Cs6 S2 3.769802 1_565
Cs6 S15 3.825990 1_555
Cs6 S14 3.871650 1_555
Cs7 S10 3.437273 1_555
Cs7 S5 3.454297 1_555
Cs7 S4 3.494806 1_555
Cs7 S8 3.658149 1_555
Cs7 S3 3.769802 1_545
Cs7 S14 3.825990 1_555
Cs7 S15 3.871650 1_555
Pb0 S2 2.853973 1_555
Pb0 S1 2.859987 1_655
Pb0 S6 2.925028 1_555
Pb0 S11 2.961708 1_545
Pb0 S10 2.999430 1_656
Pb0 S12 3.039803 1_556
Pb1 S3 2.853973 1_555
Pb1 S0 2.859987 1_455
Pb1 S7 2.925028 1_555
Pb1 S10 2.961708 1_565
Pb1 S11 2.999430 1_454
Pb1 S13 3.039803 1_554
S0 V0 2.171984 1_565
S1 V1 2.171984 1_545
S2 V3 2.191461 1_555
S3 V2 2.191461 1_555
S4 V2 2.125460 1_555
S5 V3 2.125460 1_555
S6 V3 2.166852 1_555
S7 V2 2.166852 1_555
S8 V0 2.111807 1_455
S9 V1 2.111807 1_655
S10 V0 2.177220 1_455
S11 V1 2.177220 1_655
S12 V0 2.153566 1_555
S13 V1 2.153566 1_555
S14 V2 2.136243 1_555
S15 V3 2.136243 1_555
