# generated using pymatgen
data_SrRhIO6
_symmetry_space_group_name_H-M   'P 1'
_cell_length_a   5.20850999
_cell_length_b   5.20850958
_cell_length_c   5.37389425
_cell_angle_alpha   90.00000000
_cell_angle_beta   90.00000000
_cell_angle_gamma   119.99999655
_symmetry_Int_Tables_number   1
_chemical_formula_structural   SrRhIO6
_chemical_formula_sum   'Sr1 Rh1 I1 O6'
_cell_volume   126.25446072
_cell_formula_units_Z   1
loop_
 _symmetry_equiv_pos_site_id
 _symmetry_equiv_pos_as_xyz
  1  'x, y, z'
loop_
 _atom_site_type_symbol
 _atom_site_label
 _atom_site_symmetry_multiplicity
 _atom_site_fract_x
 _atom_site_fract_y
 _atom_site_fract_z
 _atom_site_occupancy
  Sr  Sr0  1  0.00000000  0.00000000  0.00000000  1
  Rh  Rh0  1  0.33333400  0.66666700  0.49999900  1
  I  I0  1  0.66666700  0.33333400  0.49999900  1
  O  O0  1  0.63959466  0.01817313  0.30089208  1
  O  O1  1  0.37857747  0.36040634  0.30089208  1
  O  O2  1  0.98182787  0.62142253  0.30089208  1
  O  O3  1  0.37857847  0.01817313  0.69910892  1
  O  O4  1  0.98182887  0.36040634  0.69910892  1
  O  O5  1  0.63959466  0.62142253  0.69910892  1
loop_
_geom_bond_atom_site_label_1
_geom_bond_atom_site_label_2
_geom_bond_distance
_geom_bond_site_symmetry_2
I0 O0 1.904693 1_555
I0 O2 1.904694 1_555
I0 O1 1.904698 1_555
I0 O5 1.904702 1_555
I0 O3 1.904703 1_555
I0 O4 1.904707 1_555
O0 Rh0 2.029988 1_545
O0 Sr0 2.514954 1_655
O1 Rh0 2.029983 1_555
O1 Sr0 2.514954 1_555
O2 Rh0 2.029990 1_655
O2 Sr0 2.514952 1_665
O3 Rh0 2.029998 1_545
O3 Sr0 2.514951 1_556
O4 Rh0 2.029994 1_655
O4 Sr0 2.514951 1_656
O5 Rh0 2.029994 1_555
O5 Sr0 2.514949 1_666
