# generated using pymatgen
data_PAuIF3
_symmetry_space_group_name_H-M   'P 1'
_cell_length_a   4.73911153
_cell_length_b   6.17271404
_cell_length_c   18.73158090
_cell_angle_alpha   90.00000000
_cell_angle_beta   90.00000000
_cell_angle_gamma   90.00000000
_symmetry_Int_Tables_number   1
_chemical_formula_structural   PAuIF3
_chemical_formula_sum   'P4 Au4 I4 F12'
_cell_volume   547.95831299
_cell_formula_units_Z   4
loop_
 _symmetry_equiv_pos_site_id
 _symmetry_equiv_pos_as_xyz
  1  'x, y, z'
loop_
 _atom_site_type_symbol
 _atom_site_label
 _atom_site_symmetry_multiplicity
 _atom_site_fract_x
 _atom_site_fract_y
 _atom_site_fract_z
 _atom_site_occupancy
  P  P0  1  0.52684595  0.75000000  0.65527001  1
  P  P1  1  0.02684595  0.25000000  0.84472999  1
  P  P2  1  0.97315405  0.75000000  0.15527001  1
  P  P3  1  0.47315405  0.25000000  0.34472999  1
  Au  Au0  1  0.15194141  0.25000000  0.95743513  1
  Au  Au1  1  0.65194141  0.75000000  0.54256487  1
  Au  Au2  1  0.84805859  0.75000000  0.04256487  1
  Au  Au3  1  0.34805859  0.25000000  0.45743513  1
  I  I0  1  0.13613004  0.25000000  0.58388338  1
  I  I1  1  0.86386996  0.75000000  0.41611662  1
  I  I2  1  0.36386996  0.25000000  0.08388338  1
  I  I3  1  0.63613004  0.75000000  0.91611662  1
  F  F0  1  0.13625566  0.44044976  0.79868375  1
  F  F1  1  0.71366316  0.25000000  0.82134735  1
  F  F2  1  0.36374434  0.05955024  0.29868375  1
  F  F3  1  0.36374434  0.44044976  0.29868375  1
  F  F4  1  0.63625566  0.55955024  0.70131625  1
  F  F5  1  0.63625566  0.94044976  0.70131625  1
  F  F6  1  0.78633684  0.25000000  0.32134735  1
  F  F7  1  0.28633684  0.75000000  0.17865265  1
  F  F8  1  0.86374434  0.55955024  0.20131625  1
  F  F9  1  0.86374434  0.94044976  0.20131625  1
  F  F10  1  0.21366316  0.75000000  0.67865265  1
  F  F11  1  0.13625566  0.05955024  0.79868375  1
loop_
_geom_bond_atom_site_label_1
_geom_bond_atom_site_label_2
_geom_bond_distance
_geom_bond_site_symmetry_2
Au0 P1 2.192805 1_555
Au0 I2 2.572718 1_556
Au1 P0 2.192805 1_555
Au1 I1 2.572718 1_555
Au2 P2 2.192805 1_555
Au2 I3 2.572718 1_554
Au3 P3 2.192805 1_555
Au3 I0 2.572718 1_555
F0 P1 1.547515 1_555
F1 P1 1.547486 1_655
F2 P3 1.547515 1_555
F3 P3 1.547515 1_555
F4 P0 1.547515 1_555
F5 P0 1.547515 1_555
F6 P3 1.547486 1_555
F7 P2 1.547486 1_455
F8 P2 1.547515 1_555
F9 P2 1.547515 1_555
F10 P0 1.547486 1_555
F11 P1 1.547515 1_555
