# generated using pymatgen
data_SrNi(Sn2Ru)3
_symmetry_space_group_name_H-M   'P 1'
_cell_length_a   6.92971031
_cell_length_b   6.92971086
_cell_length_c   6.82642713
_cell_angle_alpha   119.80795520
_cell_angle_beta   119.80795233
_cell_angle_gamma   90.11479085
_symmetry_Int_Tables_number   1
_chemical_formula_structural   SrNi(Sn2Ru)3
_chemical_formula_sum   'Sr1 Ni1 Sn6 Ru3'
_cell_volume   232.90745146
_cell_formula_units_Z   1
loop_
 _symmetry_equiv_pos_site_id
 _symmetry_equiv_pos_as_xyz
  1  'x, y, z'
loop_
 _atom_site_type_symbol
 _atom_site_label
 _atom_site_symmetry_multiplicity
 _atom_site_fract_x
 _atom_site_fract_y
 _atom_site_fract_z
 _atom_site_occupancy
  Sr  Sr0  1  0.00159154  0.00159154  0.00076462  1
  Ni  Ni0  1  0.41957252  0.41957252  0.16718938  1
  Sn  Sn0  1  0.47861853  0.47861853  0.59079292  1
  Sn  Sn1  1  0.11564639  0.11564639  0.58747286  1
  Sn  Sn2  1  0.88432601  0.52206438  0.40771485  1
  Sn  Sn3  1  0.52206438  0.88432601  0.40771485  1
  Sn  Sn4  1  0.99403682  0.49972538  0.99289452  1
  Sn  Sn5  1  0.49972538  0.99403682  0.99289452  1
  Ru  Ru0  1  0.74898705  0.74898705  0.16741055  1
  Ru  Ru1  1  0.25493375  0.58049663  0.84257547  1
  Ru  Ru2  1  0.58049663  0.25493375  0.84257547  1
loop_
_geom_bond_atom_site_label_1
_geom_bond_atom_site_label_2
_geom_bond_distance
_geom_bond_site_symmetry_2
Ni0 Sn0 2.518619 1_555
Ni0 Sn2 2.673359 1_555
Ni0 Sn3 2.673360 1_555
Ni0 Ru2 2.721041 1_554
Ni0 Ru1 2.721041 1_554
Ni0 Sn4 2.755944 1_454
Ni0 Sn5 2.755944 1_544
Ni0 Sn1 2.818164 1_554
Ni0 Sr0 3.390174 1_555
Sn0 Sn4 3.188214 1_555
Sn0 Sn5 3.188214 1_555
Sn0 Sr0 3.399972 1_555
Sn0 Sr0 3.725628 1_666
Sn1 Sn4 3.233887 1_455
Sn1 Sn5 3.233887 1_545
Sn1 Sr0 3.315661 1_555
Sn1 Sr0 3.693297 1_556
Sn2 Sn4 3.213369 1_554
Sn2 Sn5 3.266053 1_544
Sn2 Sr0 3.381725 1_666
Sn2 Sr0 3.698778 1_655
Sn3 Sn5 3.213369 1_554
Sn3 Sn4 3.266053 1_454
Sn3 Sr0 3.381725 1_666
Sn3 Sr0 3.698778 1_565
Sn4 Sr0 3.451282 1_666
Sn4 Sr0 3.479038 1_656
Sn5 Sr0 3.451282 1_666
Sn5 Sr0 3.479038 1_566
Ru0 Sn1 2.573211 1_665
Ru0 Sn3 2.661633 1_555
Ru0 Sn2 2.661633 1_555
Ru0 Sn4 2.695117 1_554
Ru0 Sn5 2.695118 1_554
Ru0 Sn0 2.799377 1_554
Ru0 Ru1 2.804284 1_554
Ru0 Ru2 2.804285 1_554
Ru0 Sr0 3.371899 1_665
Ru1 Sn2 2.606370 1_455
Ru1 Sn4 2.654484 1_455
Ru1 Sn1 2.660877 1_555
Ru1 Sn0 2.702234 1_555
Ru1 Sn5 2.732993 1_555
Ru1 Sn3 2.748076 1_556
Ru1 Sr0 3.396441 1_566
Ru2 Sn3 2.606370 1_545
Ru2 Sn5 2.654484 1_545
Ru2 Sn1 2.660877 1_555
Ru2 Sn0 2.702234 1_555
Ru2 Sn4 2.732993 1_555
Ru2 Sn2 2.748076 1_556
Ru2 Sr0 3.396441 1_656
