# generated using pymatgen
data_As2(PSe3)3
_symmetry_space_group_name_H-M   'P 1'
_cell_length_a   6.36772368
_cell_length_b   7.97752627
_cell_length_c   15.18107408
_cell_angle_alpha   89.01641615
_cell_angle_beta   102.32916195
_cell_angle_gamma   88.71201138
_symmetry_Int_Tables_number   1
_chemical_formula_structural   As2(PSe3)3
_chemical_formula_sum   'As4 P6 Se18'
_cell_volume   753.01203877
_cell_formula_units_Z   2
loop_
 _symmetry_equiv_pos_site_id
 _symmetry_equiv_pos_as_xyz
  1  'x, y, z'
loop_
 _atom_site_type_symbol
 _atom_site_label
 _atom_site_symmetry_multiplicity
 _atom_site_fract_x
 _atom_site_fract_y
 _atom_site_fract_z
 _atom_site_occupancy
  As  As0  1  0.56204097  0.62220489  0.11255690  1
  As  As1  1  0.21317979  0.92653506  0.42676555  1
  As  As2  1  0.43795903  0.37779511  0.88744310  1
  As  As3  1  0.78682021  0.07346494  0.57323445  1
  P  P0  1  0.31874061  0.29424870  0.63554173  1
  P  P1  1  0.96557410  0.62257294  0.96386545  1
  P  P2  1  0.64604065  0.95073118  0.29193039  1
  P  P3  1  0.35395935  0.04926882  0.70806961  1
  P  P4  1  0.03442590  0.37742706  0.03613455  1
  P  P5  1  0.68125939  0.70575130  0.36445827  1
  Se  Se0  1  0.13921760  0.20430292  0.94239601  1
  Se  Se1  1  0.79899250  0.53018739  0.27790807  1
  Se  Se2  1  0.49649403  0.87466939  0.62507112  1
  Se  Se3  1  0.70867166  0.30715066  0.05541244  1
  Se  Se4  1  0.35255963  0.65060723  0.38128598  1
  Se  Se5  1  0.02563971  0.98137481  0.72059607  1
  Se  Se6  1  0.25008924  0.41329764  0.16387795  1
  Se  Se7  1  0.91476371  0.73990290  0.49110826  1
  Se  Se8  1  0.56715780  0.08227470  0.83862063  1
  Se  Se9  1  0.86078240  0.79569708  0.05760399  1
  Se  Se10  1  0.50350597  0.12533061  0.37492888  1
  Se  Se11  1  0.20100750  0.46981261  0.72209193  1
  Se  Se12  1  0.29132834  0.69284934  0.94458756  1
  Se  Se13  1  0.97436029  0.01862519  0.27940393  1
  Se  Se14  1  0.64744037  0.34939277  0.61871402  1
  Se  Se15  1  0.74991076  0.58670236  0.83612205  1
  Se  Se16  1  0.43284220  0.91772530  0.16137937  1
  Se  Se17  1  0.08523629  0.26009710  0.50889174  1
loop_
_geom_bond_atom_site_label_1
_geom_bond_atom_site_label_2
_geom_bond_distance
_geom_bond_site_symmetry_2
As0 Se9 2.643243 1_555
As0 Se16 2.649017 1_555
As0 Se1 2.717735 1_555
As0 Se12 2.796648 1_554
As0 Se6 2.845258 1_555
As0 Se3 2.873430 1_555
As1 Se13 2.509480 1_465
As1 Se4 2.517106 1_555
As1 Se10 2.694873 1_565
As1 Se7 2.766160 1_455
As2 Se0 2.643243 1_555
As2 Se8 2.649017 1_555
As2 Se11 2.717735 1_555
As2 Se3 2.796648 1_556
As2 Se15 2.845258 1_555
As2 Se12 2.873430 1_555
As3 Se5 2.509480 1_645
As3 Se14 2.517106 1_555
As3 Se2 2.694873 1_545
As3 Se17 2.766160 1_655
P0 Se11 2.164870 1_555
P0 Se17 2.190229 1_555
P0 P3 2.209750 1_555
P0 Se14 2.214860 1_555
P1 Se15 2.151279 1_555
P1 Se9 2.193025 1_556
P1 P4 2.214242 1_656
P1 Se12 2.237997 1_655
P2 Se16 2.173768 1_555
P2 Se10 2.200747 1_565
P2 P5 2.209750 1_555
P2 Se13 2.217541 1_565
P3 Se8 2.173768 1_555
P3 Se2 2.200747 1_545
P3 Se5 2.217541 1_545
P4 Se6 2.151279 1_555
P4 Se0 2.193025 1_554
P4 Se3 2.237997 1_455
P5 Se1 2.164870 1_555
P5 Se7 2.190229 1_555
P5 Se4 2.214860 1_555
