# generated using pymatgen
data_ScVCo3Sn2
_symmetry_space_group_name_H-M   'P 1'
_cell_length_a   7.43032214
_cell_length_b   7.43032220
_cell_length_c   7.43032372
_cell_angle_alpha   33.02540043
_cell_angle_beta   33.02539849
_cell_angle_gamma   33.02539632
_symmetry_Int_Tables_number   1
_chemical_formula_structural   ScVCo3Sn2
_chemical_formula_sum   'Sc1 V1 Co3 Sn2'
_cell_volume   108.44236130
_cell_formula_units_Z   1
loop_
 _symmetry_equiv_pos_site_id
 _symmetry_equiv_pos_as_xyz
  1  'x, y, z'
loop_
 _atom_site_type_symbol
 _atom_site_label
 _atom_site_symmetry_multiplicity
 _atom_site_fract_x
 _atom_site_fract_y
 _atom_site_fract_z
 _atom_site_occupancy
  Sc  Sc0  1  0.24696075  0.24696075  0.24696075  1
  V  V0  1  0.75155302  0.75155302  0.75155302  1
  Co  Co0  1  0.11644553  0.11644553  0.11644553  1
  Co  Co1  1  0.63414589  0.63414589  0.63414589  1
  Co  Co2  1  0.37825422  0.37825422  0.37825422  1
  Sn  Sn0  1  0.99650621  0.99650621  0.99650621  1
  Sn  Sn1  1  0.50113639  0.50113639  0.50113639  1
loop_
_geom_bond_atom_site_label_1
_geom_bond_atom_site_label_2
_geom_bond_distance
_geom_bond_site_symmetry_2
Sc0 Sn1 2.953803 1_455
Sc0 Sn1 2.953804 1_545
Sc0 Sn1 2.953805 1_554
Sc0 Sn0 2.998714 1_544
Sc0 Sn0 2.998714 1_454
Sc0 Sn0 2.998715 1_445
Co0 Sn0 2.525472 1_444
Co0 V0 2.527536 1_544
Co0 V0 2.527536 1_454
Co0 V0 2.527536 1_445
Co0 Sn1 2.667634 1_554
Co0 Sn1 2.667635 1_455
Co0 Sn1 2.667635 1_545
Co0 Sc0 2.748161 1_555
Co1 V0 2.472154 1_555
Co1 Sn0 2.514044 1_455
Co1 Sn0 2.514045 1_545
Co1 Sn0 2.514045 1_554
Co1 Sc0 2.689353 1_556
Co1 Sc0 2.689354 1_655
Co1 Sc0 2.689354 1_565
Co1 Sn1 2.800681 1_555
Co2 V0 2.579732 1_455
Co2 V0 2.579732 1_554
Co2 V0 2.579732 1_545
Co2 Sn1 2.587437 1_555
Co2 Sn0 2.643122 1_445
Co2 Sn0 2.643122 1_544
Co2 Sn0 2.643122 1_454
Co2 Sc0 2.764548 1_555
Sn1 V0 2.999178 1_455
Sn1 V0 2.999178 1_545
Sn1 V0 2.999180 1_554
