# generated using pymatgen
data_FeCo(IrO4)2
_symmetry_space_group_name_H-M   'P 1'
_cell_length_a   5.33401124
_cell_length_b   5.33401142
_cell_length_c   5.33401171
_cell_angle_alpha   108.79208234
_cell_angle_beta   108.36199917
_cell_angle_gamma   111.27503988
_symmetry_Int_Tables_number   1
_chemical_formula_structural   FeCo(IrO4)2
_chemical_formula_sum   'Fe1 Co1 Ir2 O8'
_cell_volume   116.73738912
_cell_formula_units_Z   1
loop_
 _symmetry_equiv_pos_site_id
 _symmetry_equiv_pos_as_xyz
  1  'x, y, z'
loop_
 _atom_site_type_symbol
 _atom_site_label
 _atom_site_symmetry_multiplicity
 _atom_site_fract_x
 _atom_site_fract_y
 _atom_site_fract_z
 _atom_site_occupancy
  Fe  Fe0  1  0.49717270  0.99717170  0.50000000  1
  Co  Co0  1  0.75068421  0.75068421  1.00000000  1
  Ir  Ir0  1  0.25012939  0.25012939  0.00000000  1
  Ir  Ir1  1  0.99998545  0.49998545  0.50000000  1
  O  O0  1  0.99229196  0.18487491  0.19258295  1
  O  O1  1  0.50841227  0.70574084  0.19732857  1
  O  O2  1  0.06523464  0.75942157  0.30581306  1
  O  O3  1  0.54900333  0.24087882  0.30812551  1
  O  O4  1  0.93275231  0.24087882  0.69187349  1
  O  O5  1  0.45360851  0.75942157  0.69418594  1
  O  O6  1  0.50841227  0.31108270  0.80267043  1
  O  O7  1  0.99229196  0.79970801  0.80741705  1
loop_
_geom_bond_atom_site_label_1
_geom_bond_atom_site_label_2
_geom_bond_distance
_geom_bond_site_symmetry_2
Fe0 O5 1.875944 1_555
Fe0 O2 1.875952 1_555
Fe0 O1 1.881017 1_555
Fe0 O6 1.881017 1_565
Fe0 O4 1.894291 1_565
Fe0 O3 1.894298 1_565
Co0 O7 1.883355 1_555
Co0 O0 1.883356 1_566
Co0 O1 1.905270 1_556
Co0 O6 1.905274 1_555
Co0 O2 1.909980 1_656
Co0 O5 1.909983 1_555
Ir0 O3 1.924496 1_555
Ir0 O4 1.924505 1_454
Ir0 O0 1.959825 1_455
Ir0 O7 1.959830 1_444
Ir0 O1 1.980057 1_555
Ir0 O6 1.980060 1_554
Ir1 O7 1.909834 1_555
Ir1 O0 1.909837 1_555
Ir1 O4 1.967000 1_555
Ir1 O3 1.967008 1_555
Ir1 O2 1.977396 1_655
Ir1 O5 1.977397 1_655
