# generated using pymatgen
data_ScNb6InBr18
_symmetry_space_group_name_H-M   'P 1'
_cell_length_a   10.53741915
_cell_length_b   10.53741911
_cell_length_c   10.53741952
_cell_angle_alpha   55.57141360
_cell_angle_beta   55.57141608
_cell_angle_gamma   55.57141923
_symmetry_Int_Tables_number   1
_chemical_formula_structural   ScNb6InBr18
_chemical_formula_sum   'Sc1 Nb6 In1 Br18'
_cell_volume   742.30245387
_cell_formula_units_Z   1
loop_
 _symmetry_equiv_pos_site_id
 _symmetry_equiv_pos_as_xyz
  1  'x, y, z'
loop_
 _atom_site_type_symbol
 _atom_site_label
 _atom_site_symmetry_multiplicity
 _atom_site_fract_x
 _atom_site_fract_y
 _atom_site_fract_z
 _atom_site_occupancy
  Sc  Sc0  1  0.49874764  0.49874764  0.49874764  1
  Nb  Nb0  1  0.80725694  0.14675230  0.91138839  1
  Nb  Nb1  1  0.91138839  0.80725694  0.14675230  1
  Nb  Nb2  1  0.14675230  0.91138839  0.80725694  1
  Nb  Nb3  1  0.19357009  0.85424703  0.08850484  1
  Nb  Nb4  1  0.08850484  0.19357009  0.85424703  1
  Nb  Nb5  1  0.85424703  0.08850484  0.19357009  1
  In  In0  1  0.21376754  0.21376754  0.21376754  1
  Br  Br0  1  0.86866439  0.41809060  0.71694894  1
  Br  Br1  1  0.71694894  0.86866439  0.41809060  1
  Br  Br2  1  0.41809060  0.71694894  0.86866439  1
  Br  Br3  1  0.13176657  0.58233566  0.28494403  1
  Br  Br4  1  0.28494403  0.13176657  0.58233566  1
  Br  Br5  1  0.58233566  0.28494403  0.13176657  1
  Br  Br6  1  0.52748028  0.34945854  0.79642322  1
  Br  Br7  1  0.79642322  0.52748028  0.34945854  1
  Br  Br8  1  0.34945854  0.79642322  0.52748028  1
  Br  Br9  1  0.46932672  0.65226651  0.20723110  1
  Br  Br10  1  0.20723110  0.46932672  0.65226651  1
  Br  Br11  1  0.65226651  0.20723110  0.46932672  1
  Br  Br12  1  0.65506304  0.94139466  0.07079792  1
  Br  Br13  1  0.07079792  0.65506304  0.94139466  1
  Br  Br14  1  0.94139466  0.07079792  0.65506304  1
  Br  Br15  1  0.34706604  0.05891409  0.92873091  1
  Br  Br16  1  0.92873091  0.34706604  0.05891409  1
  Br  Br17  1  0.05891409  0.92873091  0.34706604  1
loop_
_geom_bond_atom_site_label_1
_geom_bond_atom_site_label_2
_geom_bond_distance
_geom_bond_site_symmetry_2
Br0 Nb0 2.600079 1_555
Br0 Nb4 2.603634 1_655
Br1 Nb1 2.600079 1_555
Br1 Nb5 2.603633 1_565
Br2 Nb2 2.600079 1_555
Br2 Nb3 2.603634 1_556
Br3 Nb3 2.607236 1_555
Br3 Nb1 2.613070 1_455
Br4 Nb4 2.607237 1_555
Br4 Nb2 2.613069 1_545
Br5 Nb5 2.607237 1_555
Br5 Nb0 2.613070 1_554
Br6 Sc0 2.713136 1_555
Br6 Nb0 2.951846 1_555
Br7 Sc0 2.713136 1_555
Br7 Nb1 2.951845 1_555
Br8 Sc0 2.713136 1_555
Br8 Nb2 2.951846 1_555
Br9 Sc0 2.653282 1_555
Br9 Nb3 2.940260 1_555
Br10 Sc0 2.653282 1_555
Br10 Nb4 2.940260 1_555
Br11 Sc0 2.653282 1_555
Br11 Nb5 2.940260 1_555
Br12 Nb1 2.604260 1_555
Br12 Nb0 2.616107 1_564
Br13 Nb2 2.604260 1_555
Br13 Nb1 2.616107 1_456
Br14 Nb0 2.604260 1_555
Br14 Nb2 2.616107 1_645
Br15 Nb4 2.615325 1_555
Br15 Nb3 2.619412 1_546
Br16 Nb5 2.615325 1_555
Br16 Nb4 2.619412 1_654
Br17 Nb3 2.615325 1_555
Br17 Nb5 2.619412 1_465
