# generated using pymatgen
data_Be4N6O19
_symmetry_space_group_name_H-M   'P 1'
_cell_length_a   13.45509469
_cell_length_b   13.45509456
_cell_length_c   6.42516006
_cell_angle_alpha   90.00000000
_cell_angle_beta   90.00000000
_cell_angle_gamma   120.00000031
_symmetry_Int_Tables_number   1
_chemical_formula_structural   Be4N6O19
_chemical_formula_sum   'Be12 N18 O57'
_cell_volume   1007.36786809
_cell_formula_units_Z   3
loop_
 _symmetry_equiv_pos_site_id
 _symmetry_equiv_pos_as_xyz
  1  'x, y, z'
loop_
 _atom_site_type_symbol
 _atom_site_label
 _atom_site_symmetry_multiplicity
 _atom_site_fract_x
 _atom_site_fract_y
 _atom_site_fract_z
 _atom_site_occupancy
  Be  Be0  1  0.66666700  0.33333300  0.00211365  1
  Be  Be1  1  0.76500241  0.30693928  0.33389014  1
  Be  Be2  1  0.69306072  0.45806313  0.33389014  1
  Be  Be3  1  0.54193687  0.23499759  0.33389014  1
  Be  Be4  1  0.33333300  0.66666700  0.17675979  1
  Be  Be5  1  0.38208953  0.58495647  0.50830368  1
  Be  Be6  1  0.41504353  0.79713306  0.50830368  1
  Be  Be7  1  0.20286694  0.61791047  0.50830368  1
  Be  Be8  1  0.00000000  0.00000000  0.85507347  1
  Be  Be9  1  0.12520042  0.09909103  0.52284443  1
  Be  Be10  1  0.90090897  0.02610939  0.52284443  1
  Be  Be11  1  0.97389061  0.87479958  0.52284443  1
  N  N0  1  0.69870674  0.53552353  0.96706439  1
  N  N1  1  0.46447647  0.16318321  0.96706439  1
  N  N2  1  0.83681679  0.30129326  0.96706439  1
  N  N3  1  0.62176755  0.12325618  0.53037120  1
  N  N4  1  0.87674382  0.49851138  0.53037120  1
  N  N5  1  0.50148862  0.37823245  0.53037120  1
  N  N6  1  0.43023350  0.54695231  0.14275195  1
  N  N7  1  0.45304769  0.88328120  0.14275195  1
  N  N8  1  0.11671880  0.56976650  0.14275195  1
  N  N9  1  0.55493062  0.75009367  0.69470798  1
  N  N10  1  0.24990633  0.80483695  0.69470798  1
  N  N11  1  0.19516305  0.44506938  0.69470798  1
  N  N12  1  0.19913866  0.17552836  0.89040454  1
  N  N13  1  0.82447164  0.02361030  0.89040454  1
  N  N14  1  0.97638970  0.80086134  0.89040454  1
  N  N15  1  0.04340745  0.21409671  0.33649801  1
  N  N16  1  0.78590329  0.82931074  0.33649801  1
  N  N17  1  0.17068926  0.95659255  0.33649801  1
  O  O0  1  0.66666700  0.33333300  0.25394664  1
  O  O1  1  0.33333300  0.66666700  0.42767526  1
  O  O2  1  0.00000000  0.00000000  0.60161822  1
  O  O3  1  0.64163346  0.42974550  0.90343397  1
  O  O4  1  0.57025450  0.21188797  0.90343397  1
  O  O5  1  0.78811203  0.35836654  0.90343397  1
  O  O6  1  0.74374151  0.55417903  0.15028113  1
  O  O7  1  0.44582097  0.18956247  0.15028113  1
  O  O8  1  0.81043753  0.25625849  0.15028113  1
  O  O9  1  0.70910586  0.61249988  0.85867126  1
  O  O10  1  0.38750012  0.09660598  0.85867126  1
  O  O11  1  0.90339402  0.29089414  0.85867126  1
  O  O12  1  0.54069517  0.12048282  0.41878074  1
  O  O13  1  0.87951718  0.42021235  0.41878074  1
  O  O14  1  0.57978765  0.45930483  0.41878074  1
  O  O15  1  0.72226475  0.21395191  0.52173200  1
  O  O16  1  0.78604809  0.50831284  0.52173200  1
  O  O17  1  0.49168716  0.27773525  0.52173200  1
  O  O18  1  0.60467168  0.04409202  0.63987496  1
  O  O19  1  0.95590798  0.56058066  0.63987496  1
  O  O20  1  0.43941934  0.39532832  0.63987496  1
  O  O21  1  0.42696596  0.63678394  0.07867774  1
  O  O22  1  0.36321606  0.79018202  0.07867774  1
  O  O23  1  0.20981798  0.57303404  0.07867774  1
  O  O24  1  0.49685150  0.87949671  0.31922761  1
  O  O25  1  0.12050329  0.61735479  0.31922761  1
  O  O26  1  0.38264521  0.50314850  0.31922761  1
  O  O27  1  0.47512579  0.50607532  0.03991981  1
  O  O28  1  0.49392468  0.96904947  0.03991981  1
  O  O29  1  0.03095053  0.52487421  0.03991981  1
  O  O30  1  0.51459993  0.65703245  0.58749243  1
  O  O31  1  0.34296755  0.85756649  0.58749243  1
  O  O32  1  0.14243351  0.48540007  0.58749243  1
  O  O33  1  0.49797721  0.80402832  0.69803758  1
  O  O34  1  0.19597168  0.69394889  0.69803758  1
  O  O35  1  0.30605111  0.50202279  0.69803758  1
  O  O36  1  0.64311208  0.78589702  0.79006156  1
  O  O37  1  0.21410298  0.85721506  0.79006156  1
  O  O38  1  0.14278494  0.35688792  0.79006156  1
  O  O39  1  0.09301684  0.12326725  0.95370342  1
  O  O40  1  0.87673275  0.96974959  0.95370342  1
  O  O41  1  0.03025041  0.90698316  0.95370342  1
  O  O42  1  0.21970902  0.14825308  0.70972066  1
  O  O43  1  0.85174692  0.07145594  0.70972066  1
  O  O44  1  0.92854406  0.78029098  0.70972066  1
  O  O45  1  0.27434460  0.24551252  0.99765156  1
  O  O46  1  0.75448748  0.02883307  0.99765156  1
  O  O47  1  0.97116693  0.72565540  0.99765156  1
  O  O48  1  0.12612475  0.21341810  0.43667819  1
  O  O49  1  0.78658190  0.91270765  0.43667819  1
  O  O50  1  0.08729235  0.87387525  0.43667819  1
  O  O51  1  0.94356075  0.12255124  0.33992615  1
  O  O52  1  0.87744876  0.82101051  0.33992615  1
  O  O53  1  0.17898949  0.05643925  0.33992615  1
  O  O54  1  0.05929557  0.29783109  0.24206323  1
  O  O55  1  0.70216891  0.76146449  0.24206323  1
  O  O56  1  0.23853551  0.94070443  0.24206323  1
loop_
_geom_bond_atom_site_label_1
_geom_bond_atom_site_label_2
_geom_bond_distance
_geom_bond_site_symmetry_2
Be0 O0 1.618067 1_555
Be0 O5 1.623326 1_554
Be0 O4 1.623330 1_554
Be0 O3 1.623339 1_554
Be1 O0 1.615691 1_555
Be1 O15 1.622725 1_555
Be1 O13 1.626691 1_555
Be1 O8 1.627067 1_555
Be2 O0 1.615703 1_555
Be2 O16 1.622725 1_555
Be2 O14 1.626691 1_555
Be2 O6 1.627067 1_555
Be3 O0 1.615699 1_555
Be3 O17 1.622725 1_555
Be3 O12 1.626691 1_555
Be3 O7 1.627067 1_555
Be4 O1 1.612172 1_555
Be4 O22 1.628657 1_555
Be4 O23 1.628661 1_555
Be4 O21 1.628670 1_555
Be5 O1 1.621333 1_555
Be5 O35 1.623700 1_555
Be5 O30 1.627626 1_555
Be5 O26 1.641873 1_555
Be6 O1 1.621323 1_555
Be6 O33 1.623700 1_555
Be6 O31 1.627616 1_555
Be6 O24 1.641873 1_555
Be7 O1 1.621321 1_555
Be7 O34 1.623700 1_555
Be7 O32 1.627627 1_555
Be7 O25 1.641873 1_555
Be8 O39 1.625745 1_555
Be8 O41 1.625745 1_545
Be8 O40 1.625745 1_445
Be8 O2 1.628491 1_555
Be9 O2 1.620372 1_555
Be9 O53 1.627808 1_555
Be9 O48 1.629062 1_555
Be9 O42 1.629457 1_555
Be10 O2 1.620372 1_655
Be10 O51 1.627817 1_555
Be10 O49 1.629055 1_545
Be10 O43 1.629457 1_555
Be11 O2 1.620372 1_665
Be11 O52 1.627816 1_555
Be11 O50 1.629049 1_655
Be11 O44 1.629457 1_555
N0 O9 1.196836 1_555
N0 O6 1.289911 1_556
N0 O3 1.299828 1_555
N1 O10 1.196836 1_555
N1 O7 1.289911 1_556
N1 O4 1.299828 1_555
N2 O11 1.196836 1_555
N2 O8 1.289911 1_556
N2 O5 1.299829 1_555
N3 O18 1.198953 1_555
N3 O12 1.290225 1_555
N3 O15 1.292513 1_555
N4 O19 1.198957 1_555
N4 O13 1.290225 1_555
N4 O16 1.292513 1_555
N5 O20 1.198964 1_555
N5 O14 1.290225 1_555
N5 O17 1.292513 1_555
N6 O27 1.198381 1_555
N6 O26 1.290609 1_555
N6 O21 1.298267 1_555
N7 O28 1.198371 1_555
N7 O24 1.290609 1_555
N7 O22 1.298268 1_555
N8 O29 1.198371 1_555
N8 O25 1.290609 1_555
N8 O23 1.298268 1_555
N9 O36 1.201502 1_555
N9 O30 1.287407 1_555
N9 O33 1.292455 1_555
N10 O37 1.201502 1_555
N10 O31 1.287406 1_555
N10 O34 1.292455 1_555
N11 O38 1.201502 1_555
N11 O32 1.287396 1_555
N11 O35 1.292455 1_555
N12 O45 1.196920 1_555
N12 O42 1.288644 1_555
N12 O39 1.301789 1_555
N13 O46 1.196926 1_555
N13 O43 1.288644 1_555
N13 O40 1.301789 1_545
N14 O47 1.196916 1_555
N14 O44 1.288644 1_555
N14 O41 1.301789 1_655
N15 O54 1.200980 1_555
N15 O48 1.289675 1_555
N15 O51 1.291416 1_455
N16 O55 1.200980 1_555
N16 O49 1.289687 1_555
N16 O52 1.291408 1_555
N17 O56 1.200980 1_555
N17 O50 1.289681 1_555
N17 O53 1.291422 1_565
