# generated using pymatgen
data_Cs5BaTaP4
_symmetry_space_group_name_H-M   'P 1'
_cell_length_a   10.95751600
_cell_length_b   10.95751573
_cell_length_c   8.33201338
_cell_angle_alpha   87.79656517
_cell_angle_beta   87.79656408
_cell_angle_gamma   120.94146106
_symmetry_Int_Tables_number   1
_chemical_formula_structural   Cs5BaTaP4
_chemical_formula_sum   'Cs10 Ba2 Ta2 P8'
_cell_volume   855.42243759
_cell_formula_units_Z   2
loop_
 _symmetry_equiv_pos_site_id
 _symmetry_equiv_pos_as_xyz
  1  'x, y, z'
loop_
 _atom_site_type_symbol
 _atom_site_label
 _atom_site_symmetry_multiplicity
 _atom_site_fract_x
 _atom_site_fract_y
 _atom_site_fract_z
 _atom_site_occupancy
  Cs  Cs0  1  0.46229729  0.52563489  0.49338688  1
  Cs  Cs1  1  0.06667406  0.52901506  0.49808207  1
  Cs  Cs2  1  0.52563489  0.46229729  0.99338688  1
  Cs  Cs3  1  0.52901506  0.06667406  0.99808207  1
  Cs  Cs4  1  0.86630794  0.13969643  0.68105922  1
  Cs  Cs5  1  0.29445996  0.15156160  0.72857805  1
  Cs  Cs6  1  0.85714933  0.71927354  0.64712505  1
  Cs  Cs7  1  0.13969643  0.86630794  0.18105922  1
  Cs  Cs8  1  0.71927354  0.85714933  0.14712505  1
  Cs  Cs9  1  0.15156160  0.29445996  0.22857805  1
  Ba  Ba0  1  0.46229349  0.93095206  0.48989032  1
  Ba  Ba1  1  0.93095206  0.46229349  0.98989032  1
  Ta  Ta0  1  0.67117492  0.32826140  0.39472996  1
  Ta  Ta1  1  0.32826140  0.67117492  0.89472996  1
  P  P0  1  0.69011578  0.34117164  0.68165252  1
  P  P1  1  0.34117164  0.69011578  0.18165252  1
  P  P2  1  0.78363339  0.20323431  0.29399508  1
  P  P3  1  0.42309846  0.19527127  0.33725489  1
  P  P4  1  0.79261838  0.56610378  0.26853396  1
  P  P5  1  0.20323431  0.78363339  0.79399508  1
  P  P6  1  0.56610378  0.79261838  0.76853396  1
  P  P7  1  0.19527127  0.42309846  0.83725489  1
loop_
_geom_bond_atom_site_label_1
_geom_bond_atom_site_label_2
_geom_bond_distance
_geom_bond_site_symmetry_2
Cs0 P6 3.521688 1_555
Cs0 P7 3.709402 1_555
Cs0 P3 3.713105 1_555
Cs0 P1 3.757813 1_555
Cs0 P4 3.817267 1_555
Cs1 P5 3.552693 1_555
Cs1 P1 3.561819 1_555
Cs1 P7 3.613098 1_555
Cs1 P0 3.760359 1_455
Cs1 P4 3.804980 1_455
Cs1 P2 3.839387 1_455
Cs2 P4 3.521688 1_556
Cs2 P3 3.709402 1_556
Cs2 P7 3.713105 1_555
Cs2 P0 3.757813 1_555
Cs2 P6 3.817267 1_555
Cs3 P2 3.552693 1_556
Cs3 P0 3.561819 1_555
Cs3 P3 3.613098 1_556
Cs3 P1 3.760359 1_546
Cs3 P6 3.804980 1_545
Cs3 P5 3.839387 1_545
Cs4 P2 3.522320 1_555
Cs4 P6 3.543089 1_545
Cs4 P0 3.603354 1_555
Cs4 P7 3.673025 1_655
Cs5 P3 3.417522 1_555
Cs5 P5 3.632481 1_545
Cs5 P0 3.716160 1_555
Cs5 P7 3.782978 1_555
Cs6 P4 3.553241 1_555
Cs6 P0 3.559177 1_555
Cs6 P5 3.748192 1_655
Cs6 P6 3.780193 1_555
Cs7 P5 3.522320 1_554
Cs7 P4 3.543089 1_455
Cs7 P1 3.603354 1_555
Cs7 P3 3.673025 1_565
Cs8 P6 3.553241 1_554
Cs8 P1 3.559177 1_555
Cs8 P2 3.748192 1_565
Cs8 P4 3.780193 1_555
Cs9 P7 3.417522 1_554
Cs9 P2 3.632482 1_455
Cs9 P1 3.716160 1_555
Cs9 P3 3.782978 1_555
Ba0 P6 3.269126 1_555
Ba0 P3 3.350846 1_565
Ba0 P5 3.391786 1_555
Ba0 P2 3.513459 1_565
Ba0 P1 3.535971 1_555
Ba1 P4 3.269126 1_556
Ba1 P7 3.350846 1_655
Ba1 P2 3.391786 1_556
Ba1 P5 3.513459 1_655
Ba1 P0 3.535971 1_555
P0 Ta0 2.410856 1_555
P1 Ta1 2.410856 1_554
P2 Ta0 2.417581 1_555
P3 Ta0 2.412962 1_555
P4 Ta0 2.404967 1_555
P5 Ta1 2.417581 1_555
P6 Ta1 2.404967 1_555
P7 Ta1 2.412962 1_555
