# generated using pymatgen
data_Ba3CdPtO6
_symmetry_space_group_name_H-M   'P 1'
_cell_length_a   7.11926057
_cell_length_b   7.11926096
_cell_length_c   7.11926125
_cell_angle_alpha   91.48015840
_cell_angle_beta   91.48015778
_cell_angle_gamma   91.48014427
_symmetry_Int_Tables_number   1
_chemical_formula_structural   Ba3CdPtO6
_chemical_formula_sum   'Ba6 Cd2 Pt2 O12'
_cell_volume   360.46419952
_cell_formula_units_Z   2
loop_
 _symmetry_equiv_pos_site_id
 _symmetry_equiv_pos_as_xyz
  1  'x, y, z'
loop_
 _atom_site_type_symbol
 _atom_site_label
 _atom_site_symmetry_multiplicity
 _atom_site_fract_x
 _atom_site_fract_y
 _atom_site_fract_z
 _atom_site_occupancy
  Ba  Ba0  1  0.75000000  0.38921715  0.11078285  1
  Ba  Ba1  1  0.11078285  0.75000000  0.38921715  1
  Ba  Ba2  1  0.25000000  0.61078285  0.88921715  1
  Ba  Ba3  1  0.38921715  0.11078285  0.75000000  1
  Ba  Ba4  1  0.61078285  0.88921715  0.25000000  1
  Ba  Ba5  1  0.88921715  0.25000000  0.61078285  1
  Cd  Cd0  1  0.25000000  0.25000000  0.25000000  1
  Cd  Cd1  1  0.75000000  0.75000000  0.75000000  1
  Pt  Pt0  1  0.50000000  0.50000000  0.50000000  1
  Pt  Pt1  1  0.00000000  0.00000000  0.00000000  1
  O  O0  1  0.09024717  0.27244215  0.95589347  1
  O  O1  1  0.95589347  0.09024717  0.27244215  1
  O  O2  1  0.27244215  0.95589347  0.09024717  1
  O  O3  1  0.40975283  0.54410653  0.22755785  1
  O  O4  1  0.22755785  0.40975283  0.54410653  1
  O  O5  1  0.54410653  0.22755785  0.40975283  1
  O  O6  1  0.90975283  0.72755785  0.04410653  1
  O  O7  1  0.04410653  0.90975283  0.72755785  1
  O  O8  1  0.72755785  0.04410653  0.90975283  1
  O  O9  1  0.59024717  0.45589347  0.77244215  1
  O  O10  1  0.45589347  0.77244215  0.59024717  1
  O  O11  1  0.77244215  0.59024717  0.45589347  1
loop_
_geom_bond_atom_site_label_1
_geom_bond_atom_site_label_2
_geom_bond_distance
_geom_bond_site_symmetry_2
Ba0 O9 2.695602 1_554
Ba0 O6 2.695602 1_555
Ba0 O8 2.810086 1_554
Ba0 O11 2.810086 1_555
Ba0 O3 2.823000 1_555
Ba0 O0 2.823001 1_654
Ba0 O1 2.864264 1_555
Ba0 O5 2.864265 1_555
Ba1 O7 2.695602 1_555
Ba1 O11 2.695602 1_455
Ba1 O10 2.810086 1_555
Ba1 O6 2.810086 1_455
Ba1 O1 2.823001 1_465
Ba1 O4 2.823001 1_555
Ba1 O3 2.864264 1_555
Ba1 O2 2.864265 1_555
Ba2 O3 2.695602 1_556
Ba2 O0 2.695602 1_555
Ba2 O2 2.810086 1_556
Ba2 O4 2.810086 1_555
Ba2 O9 2.823000 1_555
Ba2 O6 2.823001 1_456
Ba2 O7 2.864264 1_555
Ba2 O10 2.864265 1_555
Ba3 O8 2.695602 1_555
Ba3 O10 2.695602 1_545
Ba3 O7 2.810086 1_545
Ba3 O9 2.810086 1_555
Ba3 O5 2.823001 1_555
Ba3 O2 2.823001 1_546
Ba3 O0 2.864264 1_555
Ba3 O4 2.864264 1_555
Ba4 O2 2.695602 1_555
Ba4 O5 2.695602 1_565
Ba4 O1 2.810086 1_565
Ba4 O3 2.810086 1_555
Ba4 O10 2.823001 1_555
Ba4 O8 2.823001 1_564
Ba4 O6 2.864264 1_555
Ba4 O11 2.864264 1_555
Ba5 O1 2.695602 1_555
Ba5 O4 2.695602 1_655
Ba5 O5 2.810086 1_555
Ba5 O0 2.810086 1_655
Ba5 O7 2.823001 1_645
Ba5 O11 2.823001 1_555
Ba5 O9 2.864264 1_555
Ba5 O8 2.864265 1_555
Cd0 O5 2.367860 1_555
Cd0 O2 2.367860 1_545
Cd0 O0 2.367860 1_554
Cd0 O4 2.367860 1_555
Cd0 O1 2.367860 1_455
Cd0 O3 2.367860 1_555
Cd1 O10 2.367860 1_555
Cd1 O8 2.367860 1_565
Cd1 O6 2.367860 1_556
Cd1 O11 2.367860 1_555
Cd1 O7 2.367860 1_655
Cd1 O9 2.367860 1_555
O0 Pt1 2.061772 1_556
O1 Pt1 2.061771 1_655
O2 Pt1 2.061771 1_565
O3 Pt0 2.061771 1_555
O4 Pt0 2.061771 1_555
O5 Pt0 2.061771 1_555
O6 Pt1 2.061772 1_665
O7 Pt1 2.061771 1_566
O8 Pt1 2.061771 1_656
O9 Pt0 2.061771 1_555
O10 Pt0 2.061771 1_555
O11 Pt0 2.061771 1_555
