# generated using pymatgen
data_Co2SbTe
_symmetry_space_group_name_H-M   'P 1'
_cell_length_a   3.89827956
_cell_length_b   3.89827956
_cell_length_c   5.24730100
_cell_angle_alpha   90.00000000
_cell_angle_beta   90.00000000
_cell_angle_gamma   119.99999249
_symmetry_Int_Tables_number   1
_chemical_formula_structural   Co2SbTe
_chemical_formula_sum   'Co2 Sb1 Te1'
_cell_volume   69.05777838
_cell_formula_units_Z   1
loop_
 _symmetry_equiv_pos_site_id
 _symmetry_equiv_pos_as_xyz
  1  'x, y, z'
loop_
 _atom_site_type_symbol
 _atom_site_label
 _atom_site_symmetry_multiplicity
 _atom_site_fract_x
 _atom_site_fract_y
 _atom_site_fract_z
 _atom_site_occupancy
  Co  Co0  1  0.00000000  0.00000000  0.75048200  1
  Co  Co1  1  0.00000000  0.00000000  0.24951800  1
  Sb  Sb0  1  0.66666700  0.33333300  0.50000000  1
  Te  Te0  1  0.33333300  0.66666700  0.00000000  1
loop_
_geom_bond_atom_site_label_1
_geom_bond_atom_site_label_2
_geom_bond_distance
_geom_bond_site_symmetry_2
Co0 Te0 2.603800 1_546
Co0 Te0 2.603803 1_446
Co0 Te0 2.603803 1_556
Co0 Sb0 2.606347 1_455
Co0 Sb0 2.606350 1_555
Co0 Sb0 2.606350 1_445
Co0 Co1 2.618592 1_556
Co0 Co1 2.628709 1_555
Co1 Te0 2.603800 1_545
Co1 Te0 2.603803 1_445
Co1 Te0 2.603803 1_555
Co1 Sb0 2.606347 1_455
Co1 Sb0 2.606350 1_555
Co1 Sb0 2.606350 1_445
