# generated using pymatgen
data_Rb2Ta6PbCl18
_symmetry_space_group_name_H-M   'P 1'
_cell_length_a   10.28171199
_cell_length_b   10.28171114
_cell_length_c   10.28171167
_cell_angle_alpha   54.75424541
_cell_angle_beta   54.75425224
_cell_angle_gamma   54.75424950
_symmetry_Int_Tables_number   1
_chemical_formula_structural   Rb2Ta6PbCl18
_chemical_formula_sum   'Rb2 Ta6 Pb1 Cl18'
_cell_volume   674.66726368
_cell_formula_units_Z   1
loop_
 _symmetry_equiv_pos_site_id
 _symmetry_equiv_pos_as_xyz
  1  'x, y, z'
loop_
 _atom_site_type_symbol
 _atom_site_label
 _atom_site_symmetry_multiplicity
 _atom_site_fract_x
 _atom_site_fract_y
 _atom_site_fract_z
 _atom_site_occupancy
  Rb  Rb0  1  0.72333327  0.72333327  0.72333327  1
  Rb  Rb1  1  0.27666673  0.27666673  0.27666673  1
  Ta  Ta0  1  0.57748494  0.35483862  0.70231604  1
  Ta  Ta1  1  0.35483862  0.70231604  0.57748494  1
  Ta  Ta2  1  0.70231604  0.57748494  0.35483862  1
  Ta  Ta3  1  0.64516138  0.29768396  0.42251506  1
  Ta  Ta4  1  0.42251506  0.64516138  0.29768396  1
  Ta  Ta5  1  0.29768396  0.42251506  0.64516138  1
  Pb  Pb0  1  0.00000000  0.00000000  0.00000000  1
  Cl  Cl0  1  0.91423142  0.35147307  0.23310289  1
  Cl  Cl1  1  0.83460682  0.41967594  0.56963640  1
  Cl  Cl2  1  0.76689711  0.08576858  0.64852693  1
  Cl  Cl3  1  0.08576858  0.64852693  0.76689711  1
  Cl  Cl4  1  0.66895067  0.17226261  0.96796118  1
  Cl  Cl5  1  0.23310289  0.91423142  0.35147307  1
  Cl  Cl6  1  0.43036360  0.16539318  0.58032406  1
  Cl  Cl7  1  0.64852693  0.76689711  0.08576858  1
  Cl  Cl8  1  0.58032406  0.43036360  0.16539318  1
  Cl  Cl9  1  0.03203882  0.33104933  0.82773739  1
  Cl  Cl10  1  0.56963640  0.83460682  0.41967594  1
  Cl  Cl11  1  0.35147307  0.23310289  0.91423142  1
  Cl  Cl12  1  0.96796118  0.66895067  0.17226261  1
  Cl  Cl13  1  0.16539318  0.58032406  0.43036360  1
  Cl  Cl14  1  0.82773739  0.03203882  0.33104933  1
  Cl  Cl15  1  0.41967594  0.56963640  0.83460682  1
  Cl  Cl16  1  0.17226261  0.96796118  0.66895067  1
  Cl  Cl17  1  0.33104933  0.82773739  0.03203882  1
loop_
_geom_bond_atom_site_label_1
_geom_bond_atom_site_label_2
_geom_bond_distance
_geom_bond_site_symmetry_2
Cl0 Ta3 2.461001 1_555
Cl0 Ta2 2.465689 1_555
Cl0 Rb1 3.591583 1_655
Cl1 Ta0 2.473121 1_555
Cl1 Ta2 2.478748 1_555
Cl1 Rb0 3.610937 1_555
Cl1 Rb1 3.672959 1_655
Cl2 Ta0 2.461001 1_555
Cl2 Ta3 2.465689 1_555
Cl2 Rb0 3.591583 1_545
Cl3 Ta1 2.461001 1_555
Cl3 Ta5 2.465689 1_555
Cl3 Rb0 3.591583 1_455
Cl4 Ta0 2.622521 1_555
Cl4 Pb0 2.914406 1_656
Cl4 Rb1 3.413849 1_556
Cl5 Ta4 2.461001 1_555
Cl5 Ta1 2.465689 1_555
Cl5 Rb1 3.591583 1_565
Cl6 Ta5 2.473121 1_555
Cl6 Ta3 2.478748 1_555
Cl6 Rb1 3.610937 1_555
Cl6 Rb0 3.672958 1_545
Cl7 Ta2 2.461001 1_555
Cl7 Ta4 2.465689 1_555
Cl7 Rb0 3.591583 1_554
Cl8 Ta3 2.473121 1_555
Cl8 Ta4 2.478748 1_555
Cl8 Rb1 3.610937 1_555
Cl8 Rb0 3.672958 1_554
Cl9 Ta5 2.622521 1_555
Cl9 Pb0 2.914405 1_556
Cl9 Rb0 3.413848 1_455
Cl10 Ta2 2.473121 1_555
Cl10 Ta1 2.478748 1_555
Cl10 Rb0 3.610937 1_555
Cl10 Rb1 3.672958 1_565
Cl11 Ta5 2.461001 1_555
Cl11 Ta0 2.465689 1_555
Cl11 Rb1 3.591583 1_556
Cl12 Ta2 2.622521 1_555
Cl12 Pb0 2.914405 1_665
Cl12 Rb1 3.413848 1_655
Cl13 Ta4 2.473121 1_555
Cl13 Ta5 2.478748 1_555
Cl13 Rb1 3.610937 1_555
Cl13 Rb0 3.672959 1_455
Cl14 Ta3 2.622521 1_555
Cl14 Pb0 2.914406 1_655
Cl14 Rb0 3.413848 1_545
Cl15 Ta1 2.473121 1_555
Cl15 Ta0 2.478748 1_555
Cl15 Rb0 3.610937 1_555
Cl15 Rb1 3.672958 1_556
Cl16 Ta1 2.622521 1_555
Cl16 Pb0 2.914406 1_566
Cl16 Rb1 3.413848 1_565
Cl17 Ta4 2.622521 1_555
Cl17 Pb0 2.914406 1_565
Cl17 Rb0 3.413849 1_554
