# generated using pymatgen
data_K4LuSbCl12
_symmetry_space_group_name_H-M   'P 1'
_cell_length_a   7.13690325
_cell_length_b   7.13690325
_cell_length_c   10.17360577
_cell_angle_alpha   90.00000000
_cell_angle_beta   90.00000000
_cell_angle_gamma   90.00000000
_symmetry_Int_Tables_number   1
_chemical_formula_structural   K4LuSbCl12
_chemical_formula_sum   'K4 Lu1 Sb1 Cl12'
_cell_volume   518.19655741
_cell_formula_units_Z   1
loop_
 _symmetry_equiv_pos_site_id
 _symmetry_equiv_pos_as_xyz
  1  'x, y, z'
loop_
 _atom_site_type_symbol
 _atom_site_label
 _atom_site_symmetry_multiplicity
 _atom_site_fract_x
 _atom_site_fract_y
 _atom_site_fract_z
 _atom_site_occupancy
  K  K0  1  0.50000000  0.00000000  0.78894458  1
  K  K1  1  0.00000000  0.50000000  0.21105542  1
  K  K2  1  0.50000000  0.00000000  0.21105542  1
  K  K3  1  0.00000000  0.50000000  0.78894458  1
  Lu  Lu0  1  0.00000000  0.00000000  0.00000000  1
  Sb  Sb0  1  0.50000000  0.50000000  0.50000000  1
  Cl  Cl0  1  0.00000000  0.00000000  0.74842460  1
  Cl  Cl1  1  0.50000000  0.50000000  0.26468750  1
  Cl  Cl2  1  0.73661755  0.73661755  0.50000000  1
  Cl  Cl3  1  0.25297692  0.25297692  0.00000000  1
  Cl  Cl4  1  0.73661755  0.26338245  0.50000000  1
  Cl  Cl5  1  0.25297692  0.74702308  0.00000000  1
  Cl  Cl6  1  0.00000000  0.00000000  0.25157540  1
  Cl  Cl7  1  0.50000000  0.50000000  0.73531250  1
  Cl  Cl8  1  0.26338245  0.26338245  0.50000000  1
  Cl  Cl9  1  0.74702308  0.74702308  0.00000000  1
  Cl  Cl10  1  0.26338245  0.73661755  0.50000000  1
  Cl  Cl11  1  0.74702308  0.25297692  0.00000000  1
loop_
_geom_bond_atom_site_label_1
_geom_bond_atom_site_label_2
_geom_bond_distance
_geom_bond_site_symmetry_2
Cl0 Lu0 2.559429 1_556
Cl0 K3 3.592184 1_545
Cl0 K3 3.592184 1_555
Cl0 K0 3.592184 1_455
Cl0 K0 3.592184 1_555
Cl1 Sb0 2.393977 1_555
Cl1 K1 3.609925 1_655
Cl1 K2 3.609925 1_555
Cl1 K2 3.609925 1_565
Cl1 K1 3.609925 1_555
Cl2 Sb0 2.388206 1_555
Cl3 Lu0 2.553323 1_555
Cl3 K2 3.313347 1_555
Cl3 K1 3.313347 1_555
Cl3 K3 3.313347 1_554
Cl3 K0 3.313347 1_554
Cl4 Sb0 2.388206 1_555
Cl5 Lu0 2.553323 1_565
Cl5 K1 3.313347 1_555
Cl5 K3 3.313347 1_554
Cl5 K2 3.313347 1_565
Cl5 K0 3.313347 1_564
Cl6 Lu0 2.559429 1_555
Cl6 K2 3.592184 1_455
Cl6 K1 3.592184 1_545
Cl6 K2 3.592184 1_555
Cl6 K1 3.592184 1_555
Cl7 Sb0 2.393977 1_555
Cl7 K3 3.609925 1_555
Cl7 K0 3.609925 1_555
Cl7 K0 3.609925 1_565
Cl7 K3 3.609925 1_655
Cl8 Sb0 2.388206 1_555
Cl9 Lu0 2.553323 1_665
Cl9 K1 3.313347 1_655
Cl9 K2 3.313347 1_565
Cl9 K0 3.313347 1_564
Cl9 K3 3.313347 1_654
Cl10 Sb0 2.388206 1_555
Cl11 Lu0 2.553323 1_655
Cl11 K2 3.313347 1_555
Cl11 K0 3.313347 1_554
Cl11 K1 3.313347 1_655
Cl11 K3 3.313347 1_654
