# generated using pymatgen
data_Ca10TaCrN10
_symmetry_space_group_name_H-M   'P 1'
_cell_length_a   6.86573084
_cell_length_b   6.86572959
_cell_length_c   8.80273850
_cell_angle_alpha   80.90816004
_cell_angle_beta   80.90816883
_cell_angle_gamma   59.58698296
_symmetry_Int_Tables_number   1
_chemical_formula_structural   Ca10TaCrN10
_chemical_formula_sum   'Ca10 Ta1 Cr1 N10'
_cell_volume   351.86639447
_cell_formula_units_Z   1
loop_
 _symmetry_equiv_pos_site_id
 _symmetry_equiv_pos_as_xyz
  1  'x, y, z'
loop_
 _atom_site_type_symbol
 _atom_site_label
 _atom_site_symmetry_multiplicity
 _atom_site_fract_x
 _atom_site_fract_y
 _atom_site_fract_z
 _atom_site_occupancy
  Ca  Ca0  1  0.87762361  0.35299953  0.83656650  1
  Ca  Ca1  1  0.87599391  0.87599391  0.82082498  1
  Ca  Ca2  1  0.73788721  0.73788721  0.52595723  1
  Ca  Ca3  1  0.75078426  0.25330033  0.50121376  1
  Ca  Ca4  1  0.62961495  0.12930164  0.15011849  1
  Ca  Ca5  1  0.35299953  0.87762361  0.83656650  1
  Ca  Ca6  1  0.25330033  0.75078426  0.50121376  1
  Ca  Ca7  1  0.23921223  0.23921223  0.49313389  1
  Ca  Ca8  1  0.13810187  0.13810187  0.16321958  1
  Ca  Ca9  1  0.12930164  0.62961495  0.15011849  1
  Ta  Ta0  1  0.36947223  0.36947223  0.77354623  1
  Cr  Cr0  1  0.63414651  0.63414651  0.22984019  1
  N  N0  1  0.89781835  0.47697270  0.31978488  1
  N  N1  1  0.99633282  0.99633282  0.01493668  1
  N  N2  1  0.68260019  0.68260019  0.03461173  1
  N  N3  1  0.53599426  0.53599426  0.69678715  1
  N  N4  1  0.47697270  0.89781835  0.31978488  1
  N  N5  1  0.53821360  0.08469527  0.67419969  1
  N  N6  1  0.48318942  0.48318942  0.28920870  1
  N  N7  1  0.31604787  0.31604787  0.99486380  1
  N  N8  1  0.06198526  0.06198526  0.64511119  1
  N  N9  1  0.08469527  0.53821360  0.67419969  1
loop_
_geom_bond_atom_site_label_1
_geom_bond_atom_site_label_2
_geom_bond_distance
_geom_bond_site_symmetry_2
Ca0 N3 2.456408 1_555
Ca0 N8 2.502815 1_655
Ca0 N1 2.508934 1_546
Ca0 N9 2.508966 1_655
Ca0 N2 2.719249 1_556
Ca1 N1 2.422485 1_556
Ca1 N8 2.460951 1_665
Ca1 N9 2.468688 1_655
Ca1 N5 2.468688 1_565
Ca1 N2 2.696890 1_556
Ca2 N4 2.472783 1_555
Ca2 N0 2.472783 1_555
Ca2 N5 2.522603 1_565
Ca2 N9 2.522603 1_655
Ca2 N3 2.594596 1_555
Ca3 N8 2.320137 1_655
Ca3 N0 2.492582 1_555
Ca3 N5 2.497974 1_555
Ca3 N3 2.502282 1_555
Ca3 N6 2.562455 1_555
Ca4 N1 2.378650 1_545
Ca4 N7 2.393305 1_554
Ca4 N4 2.509249 1_545
Ca4 N6 2.547802 1_555
Ca5 N3 2.456408 1_555
Ca5 N8 2.502815 1_565
Ca5 N1 2.508935 1_456
Ca5 N5 2.508966 1_565
Ca5 N2 2.719249 1_556
Ca6 N8 2.320137 1_565
Ca6 N4 2.492582 1_555
Ca6 N9 2.497974 1_555
Ca6 N3 2.502282 1_555
Ca6 N6 2.562456 1_555
Ca7 N8 2.284960 1_555
Ca7 N5 2.484926 1_555
Ca7 N9 2.484926 1_555
Ca7 N0 2.637506 1_455
Ca7 N4 2.637506 1_545
Ca8 N1 2.315355 1_445
Ca8 N7 2.355492 1_554
Ca8 N4 2.538274 1_545
Ca8 N0 2.538274 1_455
Ca9 N1 2.378649 1_455
Ca9 N7 2.393305 1_554
Ca9 N0 2.509249 1_455
Ca9 N6 2.547802 1_555
Cr0 N2 1.710387 1_555
Cr0 N6 1.779525 1_555
Cr0 N4 1.809325 1_555
Cr0 N0 1.809325 1_555
N3 Ta0 1.976343 1_555
N5 Ta0 1.963822 1_555
N7 Ta0 1.936262 1_555
N9 Ta0 1.963822 1_555
