# generated using pymatgen
data_Mg2Zr6(Al2Pt)7
_symmetry_space_group_name_H-M   'P 1'
_cell_length_a   8.77597147
_cell_length_b   8.77694795
_cell_length_c   8.77694752
_cell_angle_alpha   59.96980466
_cell_angle_beta   60.00367585
_cell_angle_gamma   60.00367285
_symmetry_Int_Tables_number   1
_chemical_formula_structural   Mg2Zr6(Al2Pt)7
_chemical_formula_sum   'Mg2 Zr6 Al14 Pt7'
_cell_volume   477.96063681
_cell_formula_units_Z   1
loop_
 _symmetry_equiv_pos_site_id
 _symmetry_equiv_pos_as_xyz
  1  'x, y, z'
loop_
 _atom_site_type_symbol
 _atom_site_label
 _atom_site_symmetry_multiplicity
 _atom_site_fract_x
 _atom_site_fract_y
 _atom_site_fract_z
 _atom_site_occupancy
  Mg  Mg0  1  0.88063667  0.88381393  0.35491273  1
  Mg  Mg1  1  0.88063667  0.35491273  0.88381393  1
  Zr  Zr0  1  0.68425432  0.68461066  0.31476471  1
  Zr  Zr1  1  0.31637031  0.68461066  0.31476471  1
  Zr  Zr2  1  0.68151252  0.31848748  0.31848748  1
  Zr  Zr3  1  0.31637031  0.31476471  0.68461066  1
  Zr  Zr4  1  0.68425432  0.31476471  0.68461066  1
  Zr  Zr5  1  0.31290641  0.68709359  0.68709359  1
  Al  Al0  1  0.36094447  0.87987965  0.87987965  1
  Al  Al1  1  0.87929723  0.87987965  0.87987965  1
  Al  Al2  1  0.11993016  0.12203568  0.63810400  1
  Al  Al3  1  0.11993016  0.63810400  0.12203568  1
  Al  Al4  1  0.64099209  0.11952624  0.11952624  1
  Al  Al5  1  0.11995543  0.11952624  0.11952624  1
  Al  Al6  1  0.66528568  0.66408894  0.00534070  1
  Al  Al7  1  0.66528568  0.00534070  0.66408894  1
  Al  Al8  1  0.00450763  0.66448066  0.66448066  1
  Al  Al9  1  0.66653205  0.66448066  0.66448066  1
  Al  Al10  1  0.33478001  0.33442661  0.99601238  1
  Al  Al11  1  0.33478001  0.99601238  0.33442661  1
  Al  Al12  1  0.99514672  0.33445222  0.33445222  1
  Al  Al13  1  0.33594785  0.33445222  0.33445222  1
  Pt  Pt0  1  0.00879800  0.99120200  0.99120200  1
  Pt  Pt1  1  0.00045250  0.00042075  0.50595518  1
  Pt  Pt2  1  0.49317157  0.00042075  0.50595518  1
  Pt  Pt3  1  0.00267434  0.49732566  0.49732566  1
  Pt  Pt4  1  0.49317157  0.50595518  0.00042075  1
  Pt  Pt5  1  0.00045250  0.50595518  0.00042075  1
  Pt  Pt6  1  0.50102183  0.99897817  0.99897817  1
loop_
_geom_bond_atom_site_label_1
_geom_bond_atom_site_label_2
_geom_bond_distance
_geom_bond_site_symmetry_2
Mg0 Pt0 2.608130 1_654
Mg0 Pt3 2.770981 1_655
Mg0 Pt2 2.781804 1_565
Mg0 Pt1 2.781805 1_665
Mg0 Zr2 3.222213 1_565
Mg0 Zr1 3.223065 1_655
Mg0 Zr0 3.223066 1_555
Mg1 Pt0 2.608130 1_645
Mg1 Pt3 2.770981 1_655
Mg1 Pt4 2.781804 1_556
Mg1 Pt5 2.781805 1_656
Mg1 Zr2 3.222213 1_556
Mg1 Zr3 3.223065 1_655
Mg1 Zr4 3.223065 1_555
Zr0 Zr2 3.209253 1_555
Zr0 Zr1 3.228540 1_555
Zr0 Zr4 3.244637 1_555
Zr0 Zr5 3.263729 1_555
Zr1 Zr2 3.209252 1_555
Zr1 Zr3 3.244637 1_555
Zr1 Zr5 3.263729 1_555
Zr2 Zr3 3.209252 1_555
Zr2 Zr4 3.209253 1_555
Zr3 Zr4 3.228540 1_555
Zr3 Zr5 3.263730 1_555
Zr4 Zr5 3.263729 1_555
Al0 Pt0 2.525303 1_555
Al0 Pt2 2.679754 1_565
Al0 Pt4 2.679754 1_556
Al0 Pt6 2.712946 1_555
Al0 Al6 2.780036 1_556
Al0 Al7 2.780037 1_565
Al0 Al9 2.789057 1_555
Al0 Al5 2.975475 1_566
Al0 Al2 2.995466 1_565
Al0 Al3 2.995467 1_556
Al0 Zr5 3.193151 1_555
Al0 Zr1 3.207683 1_556
Al0 Zr3 3.207684 1_565
Al1 Pt0 2.525295 1_655
Al1 Pt1 2.679754 1_665
Al1 Pt5 2.679755 1_656
Al1 Pt6 2.712953 1_555
Al1 Al7 2.780036 1_565
Al1 Al6 2.780037 1_556
Al1 Al8 2.789058 1_655
Al1 Al4 2.975475 1_566
Al1 Al3 2.995460 1_656
Al1 Al2 2.995460 1_665
Al1 Zr5 3.193144 1_655
Al1 Zr4 3.207685 1_565
Al1 Zr0 3.207685 1_556
Al2 Pt0 2.531792 1_545
Al2 Pt2 2.675508 1_555
Al2 Pt1 2.675509 1_555
Al2 Pt3 2.691452 1_555
Al2 Mg1 2.971601 1_455
Al2 Zr5 3.201072 1_545
Al2 Zr4 3.211018 1_455
Al2 Zr3 3.211019 1_555
Al3 Pt0 2.531792 1_554
Al3 Pt4 2.675508 1_555
Al3 Pt5 2.675509 1_555
Al3 Pt3 2.691452 1_555
Al3 Mg0 2.971601 1_455
Al3 Zr5 3.201072 1_554
Al3 Zr0 3.211018 1_455
Al3 Zr1 3.211018 1_555
Al4 Pt0 2.637347 1_644
Al4 Pt6 2.732647 1_544
Al4 Pt2 2.772523 1_555
Al4 Pt4 2.772523 1_555
Al4 Mg0 2.947430 1_545
Al4 Mg1 2.947430 1_554
Al4 Zr4 3.210305 1_554
Al4 Zr0 3.210305 1_545
Al4 Zr2 3.243374 1_555
Al5 Pt0 2.637347 1_544
Al5 Pt6 2.732647 1_544
Al5 Pt1 2.772523 1_555
Al5 Pt5 2.772523 1_555
Al5 Mg1 2.947430 1_454
Al5 Mg0 2.947430 1_445
Al5 Zr1 3.210305 1_545
Al5 Zr3 3.210305 1_554
Al5 Zr2 3.243373 1_455
Al6 Pt6 2.529865 1_554
Al6 Pt5 2.535960 1_655
Al6 Pt4 2.535968 1_555
Al6 Mg1 2.797633 1_554
Al6 Zr2 2.896596 1_555
Al6 Zr0 2.899543 1_555
Al6 Zr1 2.899548 1_555
Al6 Al8 2.984541 1_654
Al6 Al9 2.984541 1_554
Al6 Al7 2.993782 1_564
Al7 Pt6 2.529865 1_545
Al7 Pt1 2.535960 1_655
Al7 Pt2 2.535968 1_555
Al7 Mg0 2.797633 1_545
Al7 Zr2 2.896596 1_555
Al7 Zr4 2.899543 1_555
Al7 Zr3 2.899548 1_555
Al7 Al8 2.984541 1_645
Al7 Al9 2.984541 1_545
Al8 Pt5 2.543492 1_556
Al8 Pt1 2.543492 1_565
Al8 Pt3 2.550817 1_555
Al8 Mg0 2.809918 1_455
Al8 Mg1 2.809918 1_455
Al8 Zr3 2.912760 1_555
Al8 Zr1 2.912760 1_555
Al8 Zr5 2.918486 1_555
Al8 Al9 2.966064 1_455
Al9 Pt2 2.543494 1_565
Al9 Pt4 2.543494 1_556
Al9 Pt3 2.550812 1_655
Al9 Mg1 2.809913 1_555
Al9 Mg0 2.809914 1_555
Al9 Zr0 2.912764 1_555
Al9 Zr4 2.912764 1_555
Al9 Zr5 2.918494 1_555
Al10 Pt5 2.530759 1_556
Al10 Pt4 2.530767 1_556
Al10 Pt6 2.542417 1_545
Al10 Al3 2.779076 1_556
Al10 Al5 2.784347 1_556
Al10 Al4 2.784354 1_556
Al10 Zr3 2.909902 1_555
Al10 Zr4 2.909907 1_555
Al10 Zr5 2.914707 1_555
Al10 Al11 2.968888 1_546
Al10 Al12 2.975718 1_456
Al10 Al13 2.975719 1_556
Al11 Pt1 2.530759 1_565
Al11 Pt2 2.530767 1_565
Al11 Pt6 2.542417 1_554
Al11 Al2 2.779076 1_565
Al11 Al5 2.784347 1_565
Al11 Al4 2.784354 1_565
Al11 Zr1 2.909902 1_555
Al11 Zr0 2.909907 1_555
Al11 Zr5 2.914707 1_555
Al11 Al12 2.975718 1_465
Al11 Al13 2.975719 1_565
Al12 Pt3 2.515108 1_655
Al12 Pt5 2.525819 1_655
Al12 Pt1 2.525819 1_655
Al12 Al2 2.771560 1_655
Al12 Al3 2.771560 1_655
Al12 Al5 2.783249 1_655
Al12 Zr2 2.899335 1_555
Al12 Zr0 2.911156 1_555
Al12 Zr4 2.911156 1_555
Al12 Al13 2.990861 1_655
Al13 Pt3 2.515102 1_555
Al13 Pt2 2.525821 1_555
Al13 Pt4 2.525821 1_555
Al13 Al3 2.771555 1_555
Al13 Al2 2.771555 1_555
Al13 Al4 2.783251 1_555
Al13 Zr2 2.899343 1_555
Al13 Zr3 2.911160 1_555
Al13 Zr1 2.911161 1_555
Pt1 Zr5 3.170528 1_545
Pt1 Zr4 3.177311 1_455
Pt1 Zr1 3.241199 1_545
Pt1 Zr2 3.244920 1_455
Pt2 Zr5 3.170528 1_545
Pt2 Zr3 3.177311 1_555
Pt2 Zr0 3.241199 1_545
Pt2 Zr2 3.244920 1_555
Pt3 Zr0 3.213452 1_455
Pt3 Zr3 3.213452 1_555
Pt3 Zr4 3.213453 1_455
Pt3 Zr1 3.213453 1_555
Pt4 Zr5 3.170528 1_554
Pt4 Zr1 3.177311 1_555
Pt4 Zr4 3.241199 1_554
Pt4 Zr2 3.244920 1_555
Pt5 Zr5 3.170528 1_554
Pt5 Zr0 3.177311 1_455
Pt5 Zr3 3.241199 1_554
Pt5 Zr2 3.244920 1_455
Pt6 Zr3 3.201013 1_565
Pt6 Zr0 3.201013 1_556
Pt6 Zr1 3.201013 1_556
Pt6 Zr4 3.201013 1_565
