# generated using pymatgen
data_LiAl3(GaO4)2
_symmetry_space_group_name_H-M   'P 1'
_cell_length_a   5.65435916
_cell_length_b   5.68863626
_cell_length_c   7.99222648
_cell_angle_alpha   90.00000000
_cell_angle_beta   90.00000000
_cell_angle_gamma   90.00000000
_symmetry_Int_Tables_number   1
_chemical_formula_structural   LiAl3(GaO4)2
_chemical_formula_sum   'Li2 Al6 Ga4 O16'
_cell_volume   257.07470046
_cell_formula_units_Z   2
loop_
 _symmetry_equiv_pos_site_id
 _symmetry_equiv_pos_as_xyz
  1  'x, y, z'
loop_
 _atom_site_type_symbol
 _atom_site_label
 _atom_site_symmetry_multiplicity
 _atom_site_fract_x
 _atom_site_fract_y
 _atom_site_fract_z
 _atom_site_occupancy
  Li  Li0  1  0.50000000  0.50000000  0.00000000  1
  Li  Li1  1  0.50000000  0.00000000  0.50000000  1
  Al  Al0  1  0.00000000  0.00000000  0.50000000  1
  Al  Al1  1  0.26119922  0.75000000  0.75000000  1
  Al  Al2  1  0.73880078  0.25000000  0.25000000  1
  Al  Al3  1  0.73880078  0.75000000  0.25000000  1
  Al  Al4  1  0.26119922  0.25000000  0.75000000  1
  Al  Al5  1  0.00000000  0.50000000  0.00000000  1
  Ga  Ga0  1  0.75240071  0.00000000  0.88304553  1
  Ga  Ga1  1  0.24759929  0.00000000  0.11695447  1
  Ga  Ga2  1  0.75240071  0.50000000  0.61695447  1
  Ga  Ga3  1  0.24759929  0.50000000  0.38304553  1
  O  O0  1  0.98049653  0.00000000  0.26107293  1
  O  O1  1  0.23466128  0.73369915  0.98421380  1
  O  O2  1  0.47635066  0.50000000  0.74283773  1
  O  O3  1  0.76533872  0.23369915  0.48421380  1
  O  O4  1  0.52364934  0.50000000  0.25716227  1
  O  O5  1  0.23466128  0.76630085  0.51578620  1
  O  O6  1  0.01950347  0.00000000  0.73892707  1
  O  O7  1  0.76533872  0.26630085  0.01578620  1
  O  O8  1  0.23466128  0.23369915  0.51578620  1
  O  O9  1  0.98049653  0.50000000  0.23892707  1
  O  O10  1  0.76533872  0.73369915  0.01578620  1
  O  O11  1  0.47635066  0.00000000  0.75716227  1
  O  O12  1  0.23466128  0.26630085  0.98421380  1
  O  O13  1  0.52364934  0.00000000  0.24283773  1
  O  O14  1  0.76533872  0.76630085  0.48421380  1
  O  O15  1  0.01950347  0.50000000  0.76107293  1
loop_
_geom_bond_atom_site_label_1
_geom_bond_atom_site_label_2
_geom_bond_distance
_geom_bond_site_symmetry_2
Li0 O10 2.008547 1_555
Li0 O7 2.008547 1_555
Li0 O1 2.008547 1_554
Li0 O12 2.008547 1_554
Li0 O4 2.059645 1_555
Li0 O2 2.059645 1_554
Li1 O3 2.008547 1_555
Li1 O14 2.008547 1_545
Li1 O8 2.008547 1_555
Li1 O5 2.008547 1_545
Li1 O11 2.059645 1_555
Li1 O13 2.059645 1_555
Al0 O8 1.882513 1_555
Al0 O3 1.882513 1_455
Al0 O5 1.882513 1_545
Al0 O14 1.882513 1_445
Al0 O6 1.912741 1_555
Al0 O0 1.912741 1_455
Al1 O11 1.872376 1_565
Al1 O2 1.872376 1_555
Al1 O5 1.880183 1_555
Al1 O1 1.880183 1_555
Al1 O15 1.974350 1_555
Al1 O6 1.974350 1_565
Al2 O4 1.872376 1_555
Al2 O13 1.872376 1_555
Al2 O7 1.880183 1_555
Al2 O3 1.880183 1_555
Al2 O0 1.974350 1_555
Al2 O9 1.974350 1_555
Al3 O4 1.872376 1_555
Al3 O13 1.872376 1_565
Al3 O10 1.880183 1_555
Al3 O14 1.880183 1_555
Al3 O0 1.974350 1_565
Al3 O9 1.974350 1_555
Al4 O11 1.872376 1_555
Al4 O2 1.872376 1_555
Al4 O8 1.880183 1_555
Al4 O12 1.880183 1_555
Al4 O15 1.974350 1_555
Al4 O6 1.974350 1_555
Al5 O1 1.882513 1_554
Al5 O10 1.882513 1_455
Al5 O12 1.882513 1_554
Al5 O7 1.882513 1_455
Al5 O9 1.912741 1_455
Al5 O15 1.912741 1_554
Ga0 O7 1.850874 1_556
Ga0 O10 1.850874 1_546
Ga0 O11 1.857035 1_555
Ga0 O6 1.899394 1_655
Ga1 O12 1.850874 1_554
Ga1 O1 1.850874 1_544
Ga1 O13 1.857035 1_555
Ga1 O0 1.899394 1_455
Ga2 O14 1.850874 1_555
Ga2 O3 1.850874 1_555
Ga2 O2 1.857035 1_555
Ga2 O15 1.899394 1_655
Ga3 O5 1.850874 1_555
Ga3 O8 1.850874 1_555
Ga3 O4 1.857035 1_555
Ga3 O9 1.899394 1_455
