# generated using pymatgen
data_FeSbPtO6
_symmetry_space_group_name_H-M   'P 1'
_cell_length_a   4.61334149
_cell_length_b   9.22577739
_cell_length_c   9.33051063
_cell_angle_alpha   90.00000000
_cell_angle_beta   90.00000000
_cell_angle_gamma   90.00000000
_symmetry_Int_Tables_number   1
_chemical_formula_structural   FeSbPtO6
_chemical_formula_sum   'Fe4 Sb4 Pt4 O24'
_cell_volume   397.12203635
_cell_formula_units_Z   4
loop_
 _symmetry_equiv_pos_site_id
 _symmetry_equiv_pos_as_xyz
  1  'x, y, z'
loop_
 _atom_site_type_symbol
 _atom_site_label
 _atom_site_symmetry_multiplicity
 _atom_site_fract_x
 _atom_site_fract_y
 _atom_site_fract_z
 _atom_site_occupancy
  Fe  Fe0  1  0.00000000  0.50000000  0.00018051  1
  Fe  Fe1  1  0.50000000  0.75000000  0.50018051  1
  Fe  Fe2  1  0.00000000  0.00000000  0.00018051  1
  Fe  Fe3  1  0.50000000  0.25000000  0.50018051  1
  Sb  Sb0  1  0.50000000  0.25000000  0.16789188  1
  Sb  Sb1  1  0.50000000  0.75000000  0.16789188  1
  Sb  Sb2  1  0.00000000  0.00000000  0.66789188  1
  Sb  Sb3  1  0.00000000  0.50000000  0.66789188  1
  Pt  Pt0  1  0.00000000  0.00000000  0.33340795  1
  Pt  Pt1  1  0.00000000  0.50000000  0.33340795  1
  Pt  Pt2  1  0.50000000  0.25000000  0.83340795  1
  Pt  Pt3  1  0.50000000  0.75000000  0.83340795  1
  O  O0  1  0.30744392  0.15367067  0.00155765  1
  O  O1  1  0.30744392  0.65367067  0.00155765  1
  O  O2  1  0.19255608  0.40367067  0.50155765  1
  O  O3  1  0.19255608  0.90367067  0.50155765  1
  O  O4  1  0.80744392  0.09632933  0.50155765  1
  O  O5  1  0.80744392  0.59632933  0.50155765  1
  O  O6  1  0.69255608  0.34632933  0.00155765  1
  O  O7  1  0.69255608  0.84632933  0.00155765  1
  O  O8  1  0.30731402  0.15365210  0.33321873  1
  O  O9  1  0.30731402  0.65365210  0.33321873  1
  O  O10  1  0.19268598  0.40365210  0.83321873  1
  O  O11  1  0.19268598  0.90365210  0.83321873  1
  O  O12  1  0.80731402  0.09634790  0.83321873  1
  O  O13  1  0.80731402  0.59634790  0.83321873  1
  O  O14  1  0.80625518  0.09690028  0.16448295  1
  O  O15  1  0.80625518  0.59690028  0.16448295  1
  O  O16  1  0.19374482  0.40309972  0.16448295  1
  O  O17  1  0.19374482  0.90309972  0.16448295  1
  O  O18  1  0.69268598  0.34634790  0.33321873  1
  O  O19  1  0.69268598  0.84634790  0.33321873  1
  O  O20  1  0.30625518  0.15309972  0.66448295  1
  O  O21  1  0.30625518  0.65309972  0.66448295  1
  O  O22  1  0.69374482  0.34690028  0.66448295  1
  O  O23  1  0.69374482  0.84690028  0.66448295  1
loop_
_geom_bond_atom_site_label_1
_geom_bond_atom_site_label_2
_geom_bond_distance
_geom_bond_site_symmetry_2
Fe0 O15 1.987025 1_455
Fe0 O16 1.987025 1_555
Fe0 O13 2.001791 1_454
Fe0 O10 2.001791 1_554
Fe0 O1 2.005449 1_555
Fe0 O6 2.005449 1_455
Fe1 O23 1.987025 1_555
Fe1 O21 1.987025 1_555
Fe1 O19 2.001791 1_555
Fe1 O9 2.001791 1_555
Fe1 O3 2.005449 1_555
Fe1 O5 2.005449 1_555
Fe2 O14 1.987025 1_455
Fe2 O17 1.987025 1_545
Fe2 O12 2.001791 1_454
Fe2 O11 2.001791 1_544
Fe2 O0 2.005449 1_555
Fe2 O7 2.005449 1_445
Fe3 O22 1.987025 1_555
Fe3 O20 1.987025 1_555
Fe3 O18 2.001791 1_555
Fe3 O8 2.001791 1_555
Fe3 O2 2.005449 1_555
Fe3 O4 2.005449 1_555
O0 Sb0 1.996895 1_555
O0 Pt2 2.010088 1_554
O1 Sb1 1.996895 1_555
O1 Pt3 2.010088 1_554
O2 Sb3 1.996895 1_555
O2 Pt1 2.010088 1_555
O3 Sb2 1.996895 1_565
O3 Pt0 2.010088 1_565
O4 Sb2 1.996895 1_655
O4 Pt0 2.010088 1_655
O5 Sb3 1.996895 1_655
O5 Pt1 2.010088 1_655
O6 Sb0 1.996895 1_555
O6 Pt2 2.010088 1_554
O7 Sb1 1.996895 1_555
O7 Pt3 2.010088 1_554
O8 Sb0 1.989942 1_555
O8 Pt0 2.004864 1_555
O9 Sb1 1.989942 1_555
O9 Pt1 2.004864 1_555
O10 Sb3 1.989942 1_555
O10 Pt2 2.004864 1_555
O11 Sb2 1.989942 1_565
O11 Pt3 2.004864 1_555
O12 Sb2 1.989942 1_655
O12 Pt2 2.004864 1_555
O13 Sb3 1.989942 1_655
O13 Pt3 2.004864 1_555
O14 Sb0 1.998059 1_555
O14 Pt0 2.020487 1_655
O15 Sb1 1.998059 1_555
O15 Pt1 2.020487 1_655
O16 Sb0 1.998059 1_555
O16 Pt1 2.020487 1_555
O17 Sb1 1.998059 1_555
O17 Pt0 2.020487 1_565
O18 Sb0 1.989942 1_555
O18 Pt1 2.004864 1_655
O19 Sb1 1.989942 1_555
O19 Pt0 2.004864 1_665
O20 Sb2 1.998059 1_555
O20 Pt2 2.020487 1_555
O21 Sb3 1.998059 1_555
O21 Pt3 2.020487 1_555
O22 Sb3 1.998059 1_655
O22 Pt2 2.020487 1_555
O23 Sb2 1.998059 1_665
O23 Pt3 2.020487 1_555
