# generated using pymatgen
data_Y10Cd2InCo
_symmetry_space_group_name_H-M   'P 1'
_cell_length_a   9.71114905
_cell_length_b   9.75140032
_cell_length_c   9.65121797
_cell_angle_alpha   90.00000000
_cell_angle_beta   90.00000000
_cell_angle_gamma   120.13719703
_symmetry_Int_Tables_number   1
_chemical_formula_structural   Y10Cd2InCo
_chemical_formula_sum   'Y20 Cd4 In2 Co2'
_cell_volume   790.40247731
_cell_formula_units_Z   2
loop_
 _symmetry_equiv_pos_site_id
 _symmetry_equiv_pos_as_xyz
  1  'x, y, z'
loop_
 _atom_site_type_symbol
 _atom_site_label
 _atom_site_symmetry_multiplicity
 _atom_site_fract_x
 _atom_site_fract_y
 _atom_site_fract_z
 _atom_site_occupancy
  Y  Y0  1  0.00505150  0.00252625  0.50697494  1
  Y  Y1  1  0.00505150  0.00252625  0.99302506  1
  Y  Y2  1  0.53784082  0.45348246  0.25000000  1
  Y  Y3  1  0.53784082  0.08435836  0.25000000  1
  Y  Y4  1  0.91324411  0.45662255  0.25000000  1
  Y  Y5  1  0.45652996  0.54354656  0.75000000  1
  Y  Y6  1  0.45652996  0.91298341  0.75000000  1
  Y  Y7  1  0.08350104  0.54175102  0.75000000  1
  Y  Y8  1  0.21097907  0.78802402  0.43418891  1
  Y  Y9  1  0.21097907  0.42295604  0.43418891  1
  Y  Y10  1  0.57815571  0.78907786  0.43330341  1
  Y  Y11  1  0.78819268  0.21088222  0.56561331  1
  Y  Y12  1  0.78819268  0.57730945  0.56561331  1
  Y  Y13  1  0.42405711  0.21202856  0.56748565  1
  Y  Y14  1  0.78819268  0.21088222  0.93438669  1
  Y  Y15  1  0.78819268  0.57730945  0.93438669  1
  Y  Y16  1  0.42405711  0.21202856  0.93251435  1
  Y  Y17  1  0.21097907  0.78802402  0.06581109  1
  Y  Y18  1  0.21097907  0.42295604  0.06581109  1
  Y  Y19  1  0.57815571  0.78907786  0.06669659  1
  Cd  Cd0  1  0.22975273  0.11487636  0.25000000  1
  Cd  Cd1  1  0.11699290  0.88151542  0.75000000  1
  Cd  Cd2  1  0.11699290  0.23547648  0.75000000  1
  Cd  Cd3  1  0.76681782  0.88340891  0.75000000  1
  In  In0  1  0.88454330  0.11635306  0.25000000  1
  In  In1  1  0.88454330  0.76819024  0.25000000  1
  Co  Co0  1  0.33239989  0.66620145  0.25000000  1
  Co  Co1  1  0.67125181  0.33562591  0.75000000  1
loop_
_geom_bond_atom_site_label_1
_geom_bond_atom_site_label_2
_geom_bond_distance
_geom_bond_site_symmetry_2
Cd0 Y0 3.116457 1_555
Cd0 Y1 3.116457 1_554
Cd0 Y3 3.151828 1_555
Cd0 Y2 3.151828 1_555
Cd0 In0 3.359633 1_455
Cd0 In1 3.359634 1_445
Cd0 Y13 3.471571 1_555
Cd0 Y16 3.471571 1_554
Cd0 Y8 3.573297 1_545
Cd0 Y17 3.573297 1_545
Cd0 Y9 3.573306 1_555
Cd0 Y18 3.573306 1_555
Cd1 Y1 3.060002 1_565
Cd1 Y0 3.060002 1_565
Cd1 Y6 3.154413 1_555
Cd1 Y7 3.162416 1_555
Cd1 Cd3 3.409910 1_455
Cd1 Y17 3.433629 1_556
Cd1 Y8 3.433629 1_555
Cd1 Y15 3.556798 1_455
Cd1 Y12 3.556798 1_455
Cd1 Y16 3.568165 1_565
Cd1 Y13 3.568165 1_565
Cd2 Y1 3.059991 1_555
Cd2 Y0 3.059991 1_555
Cd2 Y5 3.154418 1_555
Cd2 Y7 3.162436 1_555
Cd2 Cd3 3.409906 1_445
Cd2 Y18 3.433637 1_556
Cd2 Y9 3.433637 1_555
Cd2 Y14 3.556798 1_455
Cd2 Y11 3.556798 1_455
Cd2 Y16 3.568160 1_555
Cd2 Y13 3.568160 1_555
Cd3 Y1 3.082935 1_665
Cd3 Y0 3.082935 1_665
Cd3 Y6 3.167879 1_555
Cd3 Y5 3.167879 1_555
Cd3 Y19 3.442787 1_556
Cd3 Y10 3.442787 1_555
Cd3 Y14 3.569541 1_565
Cd3 Y11 3.569541 1_565
Cd3 Y15 3.569549 1_555
Cd3 Y12 3.569549 1_555
In0 Y0 3.171266 1_655
In0 Y1 3.171266 1_654
In0 Y4 3.187295 1_555
In0 Y3 3.221556 1_555
In0 In1 3.395075 1_545
In0 Y11 3.445243 1_555
In0 Y14 3.445243 1_554
In0 Y9 3.554030 1_655
In0 Y18 3.554030 1_655
In0 Y10 3.554239 1_545
In0 Y19 3.554239 1_545
In1 Y0 3.171271 1_665
In1 Y1 3.171271 1_664
In1 Y4 3.187285 1_555
In1 Y2 3.221556 1_555
In1 Y12 3.445247 1_555
In1 Y15 3.445247 1_554
In1 Y8 3.554026 1_655
In1 Y17 3.554026 1_655
In1 Y10 3.554239 1_555
In1 Y19 3.554239 1_555
Co0 Y8 2.714432 1_555
Co0 Y17 2.714432 1_555
Co0 Y9 2.714445 1_555
Co0 Y18 2.714445 1_555
Co0 Y10 2.718397 1_555
Co0 Y19 2.718397 1_555
Co1 Y15 2.706154 1_555
Co1 Y12 2.706154 1_555
Co1 Y14 2.706160 1_555
Co1 Y11 2.706160 1_555
Co1 Y16 2.722651 1_555
Co1 Y13 2.722651 1_555
