# generated using pymatgen
data_Zn3Hg(PN2)6
_symmetry_space_group_name_H-M   'P 1'
_cell_length_a   7.22586260
_cell_length_b   7.22586260
_cell_length_c   7.22586237
_cell_angle_alpha   109.45137328
_cell_angle_beta   109.45137091
_cell_angle_gamma   109.45135882
_symmetry_Int_Tables_number   1
_chemical_formula_structural   Zn3Hg(PN2)6
_chemical_formula_sum   'Zn3 Hg1 P6 N12'
_cell_volume   290.64710731
_cell_formula_units_Z   1
loop_
 _symmetry_equiv_pos_site_id
 _symmetry_equiv_pos_as_xyz
  1  'x, y, z'
loop_
 _atom_site_type_symbol
 _atom_site_label
 _atom_site_symmetry_multiplicity
 _atom_site_fract_x
 _atom_site_fract_y
 _atom_site_fract_z
 _atom_site_occupancy
  Zn  Zn0  1  0.00053602  0.43488370  0.00053602  1
  Zn  Zn1  1  0.00053602  0.00053602  0.43488370  1
  Zn  Zn2  1  0.43488370  0.00053602  0.00053602  1
  Hg  Hg0  1  0.90684761  0.90684761  0.90684761  1
  P  P0  1  0.49941786  0.25625274  0.74934851  1
  P  P1  1  0.25625274  0.74934851  0.49941786  1
  P  P2  1  0.74934851  0.49941786  0.25625274  1
  P  P3  1  0.74934851  0.25625274  0.49941786  1
  P  P4  1  0.49941786  0.74934851  0.25625274  1
  P  P5  1  0.25625274  0.49941786  0.74934851  1
  N  N0  1  0.43836295  0.71892646  0.43836295  1
  N  N1  1  0.71892646  0.43836295  0.43836295  1
  N  N2  1  0.43836295  0.43836295  0.71892646  1
  N  N3  1  0.72078537  0.27960748  0.72078537  1
  N  N4  1  0.00096093  0.56431424  0.27988725  1
  N  N5  1  0.27988725  0.56431424  0.00096093  1
  N  N6  1  0.27988725  0.00096093  0.56431424  1
  N  N7  1  0.00096093  0.27988725  0.56431424  1
  N  N8  1  0.72078537  0.72078537  0.27960748  1
  N  N9  1  0.56431424  0.00096093  0.27988725  1
  N  N10  1  0.27960748  0.72078537  0.72078537  1
  N  N11  1  0.56431424  0.27988725  0.00096093  1
loop_
_geom_bond_atom_site_label_1
_geom_bond_atom_site_label_2
_geom_bond_distance
_geom_bond_site_symmetry_2
N0 P1 1.577744 1_555
N0 P4 1.577744 1_555
N1 P3 1.577744 1_555
N1 P2 1.577744 1_555
N2 P5 1.577744 1_555
N2 P0 1.577744 1_555
N3 P3 1.641035 1_555
N3 P0 1.641035 1_555
N3 Zn0 1.920608 1_656
N4 P1 1.644009 1_555
N4 P2 1.651258 1_455
N4 Zn0 1.919866 1_555
N5 P4 1.644009 1_555
N5 P5 1.651258 1_554
N5 Zn0 1.919866 1_555
N6 P0 1.644009 1_555
N6 P1 1.651258 1_545
N6 Zn1 1.919866 1_555
N7 P5 1.644009 1_555
N7 P3 1.651258 1_455
N7 Zn1 1.919866 1_555
N8 P2 1.641035 1_555
N8 P4 1.641035 1_555
N8 Zn1 1.920608 1_665
N9 P3 1.644009 1_555
N9 P4 1.651258 1_545
N9 Zn2 1.919866 1_555
N10 P1 1.641035 1_555
N10 P5 1.641035 1_555
N10 Zn2 1.920608 1_566
N11 P2 1.644009 1_555
N11 P0 1.651258 1_554
N11 Zn2 1.919866 1_555
