# generated using pymatgen
data_Sc8Al(Ga2Rh)7
_symmetry_space_group_name_H-M   'P 1'
_cell_length_a   8.81614994
_cell_length_b   8.83073900
_cell_length_c   8.83073782
_cell_angle_alpha   120.21586915
_cell_angle_beta   119.84633696
_cell_angle_gamma   89.99353373
_symmetry_Int_Tables_number   1
_chemical_formula_structural   Sc8Al(Ga2Rh)7
_chemical_formula_sum   'Sc8 Al1 Ga14 Rh7'
_cell_volume   485.70125970
_cell_formula_units_Z   1
loop_
 _symmetry_equiv_pos_site_id
 _symmetry_equiv_pos_as_xyz
  1  'x, y, z'
loop_
 _atom_site_type_symbol
 _atom_site_label
 _atom_site_symmetry_multiplicity
 _atom_site_fract_x
 _atom_site_fract_y
 _atom_site_fract_z
 _atom_site_occupancy
  Sc  Sc0  1  0.79493942  0.28077142  0.06308472  1
  Sc  Sc1  1  0.22064077  0.28629308  0.49042696  1
  Sc  Sc2  1  0.20662384  0.70332826  0.50329657  1
  Sc  Sc3  1  0.22064077  0.73021381  0.93434769  1
  Sc  Sc4  1  0.79493942  0.73185370  0.51416700  1
  Sc  Sc5  1  0.76613636  0.26720535  0.49893101  1
  Sc  Sc6  1  0.37755591  0.12248074  0.74481729  1
  Sc  Sc7  1  0.37755591  0.63273662  0.25507417  1
  Al  Al0  1  0.12614344  0.87390630  0.25223813  1
  Ga  Ga0  1  0.98542969  0.48670393  0.49872676  1
  Ga  Ga1  1  0.15684014  0.34313864  0.18615147  1
  Ga  Ga2  1  0.15684014  0.97068967  0.81370350  1
  Ga  Ga3  1  0.15047299  0.35071235  0.79976063  1
  Ga  Ga4  1  0.55144666  0.35067081  0.20077685  1
  Ga  Ga5  1  0.84596185  0.65136350  0.80745136  1
  Ga  Ga6  1  0.84596185  0.03851050  0.19459835  1
  Ga  Ga7  1  0.84475595  0.65435077  0.19040618  1
  Ga  Ga8  1  0.46948677  0.65523079  0.81425598  1
  Ga  Ga9  1  0.37161519  0.12541373  0.24620246  1
  Ga  Ga10  1  0.87840913  0.12736830  0.75103983  1
  Ga  Ga11  1  0.62129689  0.86586755  0.24706978  1
  Ga  Ga12  1  0.62129689  0.37422710  0.75542834  1
  Ga  Ga13  1  0.61564007  0.87483415  0.74080492  1
  Rh  Rh0  1  0.99778770  0.99996782  0.49870604  1
  Rh  Rh1  1  0.50191931  0.00051055  0.00566247  1
  Rh  Rh2  1  0.50103069  0.49968263  0.00134805  1
  Rh  Rh3  1  0.50191931  0.49625684  0.50140877  1
  Rh  Rh4  1  0.99778770  0.49908266  0.99781988  1
  Rh  Rh5  1  0.99667329  0.99817753  0.99849576  1
  Rh  Rh6  1  0.50224996  0.00845190  0.49379807  1
loop_
_geom_bond_atom_site_label_1
_geom_bond_atom_site_label_2
_geom_bond_distance
_geom_bond_site_symmetry_2
Sc0 Sc6 3.024294 1_554
Sc1 Sc6 3.038103 1_555
Sc2 Sc6 3.062125 1_565
Sc2 Sc7 3.062136 1_555
Sc3 Sc7 3.038109 1_556
Sc4 Sc7 3.024293 1_555
Al0 Rh0 2.696181 1_455
Al0 Rh4 2.696181 1_454
Al0 Rh6 2.714085 1_565
Al0 Rh5 2.730758 1_454
Al0 Ga7 2.792608 1_455
Al0 Ga6 2.822394 1_465
Al0 Ga5 2.822399 1_454
Al0 Sc1 2.987780 1_565
Al0 Sc3 2.987787 1_554
Al0 Sc6 3.073492 1_565
Al0 Sc7 3.073511 1_555
Al0 Sc2 3.079459 1_555
Ga0 Sc2 2.703451 1_655
Ga0 Sc4 2.730482 1_555
Ga0 Sc0 2.730495 1_555
Ga0 Sc3 2.730821 1_655
Ga0 Sc1 2.730828 1_655
Ga0 Sc5 2.739109 1_555
Ga1 Rh5 2.571111 1_444
Ga1 Rh4 2.571405 1_454
Ga1 Rh3 2.572162 1_555
Ga1 Ga9 2.754841 1_555
Ga1 Sc0 2.758767 1_455
Ga1 Sc1 2.764316 1_555
Ga1 Ga10 2.768377 1_454
Ga1 Sc7 2.820032 1_555
Ga1 Sc2 2.822047 1_555
Ga2 Rh5 2.571097 1_455
Ga2 Rh0 2.571407 1_455
Ga2 Rh1 2.572164 1_566
Ga2 Ga9 2.754833 1_566
Ga2 Sc4 2.758772 1_455
Ga2 Sc3 2.764313 1_555
Ga2 Sc6 2.820050 1_565
Ga2 Sc2 2.822052 1_555
Ga3 Rh2 2.572714 1_556
Ga3 Rh0 2.573741 1_445
Ga3 Rh4 2.573743 1_455
Ga3 Sc5 2.855058 1_455
Ga3 Sc1 2.878538 1_555
Ga3 Sc3 2.878538 1_555
Ga3 Sc7 2.878728 1_556
Ga3 Sc6 2.878737 1_555
Ga4 Rh2 2.565902 1_555
Ga4 Rh3 2.570955 1_555
Ga4 Rh1 2.570962 1_555
Ga4 Sc5 2.837373 1_555
Ga4 Sc4 2.882692 1_555
Ga4 Sc0 2.882704 1_555
Ga4 Sc7 2.883254 1_555
Ga4 Sc6 2.883274 1_554
Ga5 Rh4 2.541917 1_555
Ga5 Rh3 2.548689 1_555
Ga5 Rh5 2.561348 1_555
Ga5 Sc4 2.847535 1_555
Ga5 Sc3 2.860537 1_655
Ga5 Sc5 2.866310 1_555
Ga6 Rh0 2.541924 1_545
Ga6 Rh1 2.548689 1_555
Ga6 Rh5 2.561348 1_544
Ga6 Sc0 2.847533 1_555
Ga6 Sc1 2.860537 1_655
Ga6 Sc5 2.866310 1_555
Ga7 Rh2 2.550650 1_555
Ga7 Rh0 2.555156 1_555
Ga7 Rh4 2.555162 1_554
Ga7 Sc2 2.832484 1_655
Ga7 Sc4 2.848807 1_555
Ga7 Sc0 2.848820 1_555
Ga8 Rh2 2.553540 1_556
Ga8 Rh3 2.562697 1_555
Ga8 Rh1 2.562697 1_566
Ga8 Sc2 2.816211 1_555
Ga8 Sc3 2.825738 1_555
Ga8 Sc1 2.825738 1_555
Ga9 Rh6 2.634407 1_555
Ga9 Rh3 2.668071 1_555
Ga9 Rh1 2.668078 1_555
Ga9 Rh5 2.702579 1_444
Ga9 Sc5 2.847480 1_555
Ga9 Sc1 2.866022 1_555
Ga9 Sc3 2.866030 1_544
Ga10 Rh0 2.673843 1_545
Ga10 Rh4 2.673858 1_555
Ga10 Rh6 2.713330 1_555
Ga10 Rh5 2.721213 1_545
Ga10 Ga2 2.768367 1_645
Ga10 Sc5 2.834521 1_555
Ga10 Sc0 2.868937 1_556
Ga10 Sc4 2.868937 1_545
Ga11 Rh2 2.633937 1_555
Ga11 Rh6 2.636019 1_565
Ga11 Rh0 2.714435 1_555
Ga11 Rh1 2.717300 1_565
Ga11 Ga8 2.759097 1_554
Ga11 Ga7 2.767665 1_555
Ga11 Ga6 2.843820 1_565
Ga11 Sc5 2.894519 1_565
Ga11 Sc3 2.915491 1_554
Ga11 Sc4 2.919331 1_555
Ga11 Sc7 3.026476 1_555
Ga12 Rh2 2.633944 1_556
Ga12 Rh6 2.636018 1_555
Ga12 Rh4 2.714435 1_555
Ga12 Rh3 2.717293 1_555
Ga12 Ga8 2.759097 1_555
Ga12 Ga7 2.767676 1_556
Ga12 Ga5 2.843814 1_555
Ga12 Sc5 2.894512 1_555
Ga12 Sc1 2.915490 1_555
Ga12 Sc0 2.919338 1_556
Ga12 Sc6 3.026476 1_555
Ga13 Rh3 2.725496 1_555
Ga13 Rh1 2.725503 1_566
Ga13 Rh5 2.747101 1_555
Ga13 Rh6 2.751244 1_565
Ga13 Ga8 2.817836 1_555
Ga13 Ga5 2.888331 1_555
Ga13 Ga6 2.888336 1_566
Ga13 Sc4 2.950164 1_555
Ga13 Sc0 2.950164 1_566
Ga13 Sc2 2.995290 1_555
Ga13 Sc7 3.030599 1_555
Ga13 Sc6 3.030600 1_565
Rh0 Sc6 2.737714 1_665
Rh0 Sc4 3.064621 1_555
Rh0 Sc5 3.120619 1_565
Rh0 Sc2 3.207013 1_655
Rh0 Sc1 3.254028 1_665
Rh1 Sc6 2.766094 1_554
Rh1 Sc3 3.029404 1_544
Rh1 Sc5 3.085917 1_555
Rh1 Sc2 3.183232 1_544
Rh1 Sc0 3.238862 1_555
Rh2 Sc7 2.713561 1_555
Rh2 Sc6 2.713568 1_554
Rh2 Sc1 3.218757 1_554
Rh2 Sc3 3.218758 1_554
Rh2 Sc4 3.225190 1_555
Rh2 Sc0 3.225196 1_555
Rh3 Sc7 2.766086 1_555
Rh3 Sc1 3.029404 1_555
Rh3 Sc5 3.085918 1_555
Rh3 Sc2 3.183238 1_555
Rh3 Sc4 3.238862 1_555
Rh4 Sc7 2.737714 1_656
Rh4 Sc0 3.064627 1_556
Rh4 Sc5 3.120618 1_555
Rh4 Sc2 3.207020 1_656
Rh4 Sc3 3.254022 1_655
Rh5 Sc0 3.048291 1_566
Rh5 Sc4 3.048297 1_555
Rh5 Sc1 3.095512 1_666
Rh5 Sc3 3.095512 1_655
Rh6 Sc6 2.704584 1_555
Rh6 Sc7 2.704599 1_545
Rh6 Sc5 3.229183 1_555
Rh6 Sc3 3.490441 1_544
Rh6 Sc1 3.490441 1_555
