# generated using pymatgen
data_Y3Ag3C
_symmetry_space_group_name_H-M   'P 1'
_cell_length_a   9.32890169
_cell_length_b   9.32887452
_cell_length_c   9.32888917
_cell_angle_alpha   59.99995151
_cell_angle_beta   60.00004788
_cell_angle_gamma   59.99991745
_symmetry_Int_Tables_number   1
_chemical_formula_structural   Y3Ag3C
_chemical_formula_sum   'Y12 Ag12 C4'
_cell_volume   574.08266210
_cell_formula_units_Z   4
loop_
 _symmetry_equiv_pos_site_id
 _symmetry_equiv_pos_as_xyz
  1  'x, y, z'
loop_
 _atom_site_type_symbol
 _atom_site_label
 _atom_site_symmetry_multiplicity
 _atom_site_fract_x
 _atom_site_fract_y
 _atom_site_fract_z
 _atom_site_occupancy
  Y  Y0  1  0.44314002  0.44314002  0.05685998  1
  Y  Y1  1  0.05685998  0.44314002  0.05685998  1
  Y  Y2  1  0.44314002  0.05685998  0.05686098  1
  Y  Y3  1  0.05686098  0.05685998  0.44314002  1
  Y  Y4  1  0.44314002  0.05685998  0.44314002  1
  Y  Y5  1  0.05685998  0.44314002  0.44314002  1
  Y  Y6  1  0.80685998  0.80685998  0.19314002  1
  Y  Y7  1  0.19314002  0.80685998  0.19314002  1
  Y  Y8  1  0.80685998  0.19314002  0.19313902  1
  Y  Y9  1  0.19313902  0.19314002  0.80685998  1
  Y  Y10  1  0.80685998  0.19314002  0.80685998  1
  Y  Y11  1  0.19314002  0.80685998  0.80685998  1
  Ag  Ag0  1  0.83110131  0.83110031  0.50669708  1
  Ag  Ag1  1  0.83110031  0.50669708  0.83110131  1
  Ag  Ag2  1  0.50669708  0.83110031  0.83110131  1
  Ag  Ag3  1  0.83110131  0.83110031  0.83110031  1
  Ag  Ag4  1  0.41889869  0.41889969  0.74330292  1
  Ag  Ag5  1  0.41889969  0.74330292  0.41889869  1
  Ag  Ag6  1  0.74330292  0.41889969  0.41889869  1
  Ag  Ag7  1  0.41889869  0.41889969  0.41889969  1
  Ag  Ag8  1  0.62500000  0.62500000  0.12500000  1
  Ag  Ag9  1  0.62500000  0.12500000  0.62500000  1
  Ag  Ag10  1  0.12500000  0.62500000  0.62500000  1
  Ag  Ag11  1  0.62500000  0.62500000  0.62500000  1
  C  C0  1  0.12500000  0.12500000  0.62500000  1
  C  C1  1  0.12500000  0.62500000  0.12500000  1
  C  C2  1  0.62500000  0.12500000  0.12500000  1
  C  C3  1  0.12500000  0.12500000  0.12500000  1
loop_
_geom_bond_atom_site_label_1
_geom_bond_atom_site_label_2
_geom_bond_distance
_geom_bond_site_symmetry_2
Ag0 Ag10 2.839778 1_655
Ag0 Ag11 2.839779 1_555
Ag0 Ag9 2.839781 1_565
Ag0 Ag3 3.026322 1_555
Ag0 Ag1 3.026322 1_555
Ag0 Ag2 3.026335 1_555
Ag0 Y6 3.167466 1_555
Ag0 Y8 3.167469 1_565
Ag0 Y7 3.167470 1_655
Ag0 Y5 3.340769 1_655
Ag0 Y4 3.340784 1_565
Ag0 Y3 3.340793 1_665
Ag1 Ag11 2.839778 1_555
Ag1 Ag8 2.839778 1_556
Ag1 Ag10 2.839790 1_655
Ag1 Ag3 3.026317 1_555
Ag1 Ag2 3.026318 1_555
Ag1 Y8 3.167456 1_556
Ag1 Y10 3.167462 1_555
Ag1 Y9 3.167463 1_655
Ag1 Y0 3.340782 1_556
Ag1 Y1 3.340785 1_656
Ag1 Y5 3.340785 1_655
Ag2 Ag8 2.839776 1_556
Ag2 Ag9 2.839784 1_565
Ag2 Ag3 3.026331 1_555
Ag2 Y9 3.167469 1_565
Ag2 Y11 3.167469 1_555
Ag2 Y7 3.167470 1_556
Ag2 Y0 3.340771 1_556
Ag2 Y4 3.340781 1_565
Ag2 Y2 3.340789 1_566
Ag3 Ag9 2.839776 1_565
Ag3 Ag8 2.839782 1_556
Ag3 Y10 3.167469 1_565
Ag3 Y11 3.167474 1_655
Ag3 Y6 3.167475 1_556
Ag3 Y1 3.340773 1_656
Ag3 Y3 3.340785 1_665
Ag3 Y2 3.340792 1_566
Ag4 Ag9 2.839781 1_555
Ag4 Ag7 3.026322 1_555
Ag4 Ag5 3.026322 1_555
Ag4 Ag6 3.026335 1_555
Ag4 Y0 3.167466 1_556
Ag4 Y2 3.167469 1_556
Ag4 Y1 3.167470 1_556
Ag4 Y11 3.340769 1_555
Ag4 Y10 3.340784 1_555
Ag4 Y9 3.340793 1_555
Ag5 Ag8 2.839778 1_555
Ag5 Ag7 3.026317 1_555
Ag5 Ag6 3.026318 1_555
Ag5 Y2 3.167456 1_565
Ag5 Y4 3.167462 1_565
Ag5 Y3 3.167463 1_565
Ag5 Y6 3.340782 1_555
Ag5 Y7 3.340785 1_555
Ag5 Y11 3.340785 1_555
Ag6 Ag8 2.839776 1_555
Ag6 Ag9 2.839784 1_555
Ag6 Ag7 3.026331 1_555
Ag6 Y3 3.167469 1_655
Ag6 Y5 3.167469 1_655
Ag6 Y1 3.167470 1_655
Ag6 Y6 3.340771 1_555
Ag6 Y10 3.340781 1_555
Ag6 Y8 3.340789 1_555
Ag7 Ag9 2.839776 1_555
Ag7 Ag8 2.839782 1_555
Ag7 Y4 3.167469 1_555
Ag7 Y5 3.167474 1_555
Ag7 Y0 3.167475 1_555
Ag7 Y7 3.340773 1_555
Ag7 Y9 3.340785 1_555
Ag7 Y8 3.340792 1_555
Ag8 Y2 3.346011 1_565
Ag8 Y8 3.346011 1_555
Ag8 Y6 3.346019 1_555
Ag8 Y0 3.346019 1_555
Ag8 Y1 3.346021 1_655
Ag8 Y7 3.346021 1_555
Ag9 Y10 3.346019 1_555
Ag9 Y4 3.346019 1_555
Ag9 Y2 3.346027 1_556
Ag9 Y8 3.346027 1_555
Ag9 Y3 3.346031 1_655
Ag9 Y9 3.346031 1_555
Ag10 Ag7 2.839773 1_555
Ag10 Ag3 2.839773 1_455
Ag10 Ag4 2.839778 1_555
Ag10 Ag5 2.839790 1_555
Ag10 Y3 3.346011 1_565
Ag10 Y9 3.346011 1_555
Ag10 Y11 3.346017 1_555
Ag10 Y5 3.346017 1_555
Ag10 Y1 3.346017 1_556
Ag10 Y7 3.346017 1_555
Ag11 Ag2 2.839776 1_555
Ag11 Ag6 2.839776 1_555
Ag11 Ag5 2.839778 1_555
Ag11 Ag4 2.839779 1_555
Ag11 Y4 3.346009 1_565
Ag11 Y10 3.346009 1_555
Ag11 Y0 3.346019 1_556
Ag11 Y6 3.346019 1_555
Ag11 Y11 3.346021 1_555
Ag11 Y5 3.346021 1_655
C0 Y9 2.499476 1_555
C0 Y3 2.499476 1_555
C0 Y5 2.499477 1_555
C0 Y11 2.499477 1_545
C0 Y4 2.499487 1_555
C0 Y10 2.499487 1_455
C1 Y7 2.499482 1_555
C1 Y1 2.499482 1_555
C1 Y5 2.499482 1_555
C1 Y11 2.499482 1_554
C1 Y0 2.499484 1_555
C1 Y6 2.499484 1_455
C2 Y0 2.499477 1_555
C2 Y6 2.499477 1_545
C2 Y8 2.499478 1_555
C2 Y2 2.499478 1_555
C2 Y4 2.499485 1_555
C2 Y10 2.499485 1_554
C3 Y1 2.499477 1_555
C3 Y7 2.499477 1_545
C3 Y3 2.499485 1_555
C3 Y9 2.499485 1_554
C3 Y2 2.499489 1_555
C3 Y8 2.499489 1_455
