# generated using pymatgen
data_SrNi(P4Ru)3
_symmetry_space_group_name_H-M   'P 1'
_cell_length_a   6.99742450
_cell_length_b   6.95754114
_cell_length_c   6.95754156
_cell_angle_alpha   109.35482147
_cell_angle_beta   109.58737764
_cell_angle_gamma   109.58737570
_symmetry_Int_Tables_number   1
_chemical_formula_structural   SrNi(P4Ru)3
_chemical_formula_sum   'Sr1 Ni1 P12 Ru3'
_cell_volume   260.37741475
_cell_formula_units_Z   1
loop_
 _symmetry_equiv_pos_site_id
 _symmetry_equiv_pos_as_xyz
  1  'x, y, z'
loop_
 _atom_site_type_symbol
 _atom_site_label
 _atom_site_symmetry_multiplicity
 _atom_site_fract_x
 _atom_site_fract_y
 _atom_site_fract_z
 _atom_site_occupancy
  Sr  Sr0  1  0.00000000  0.00000000  0.00000000  1
  Ni  Ni0  1  0.50000000  0.00000000  0.00000000  1
  P  P0  1  0.14500246  0.78736283  0.64444959  1
  P  P1  1  0.14387354  0.50126272  0.35845916  1
  P  P2  1  0.85612646  0.49873728  0.64154084  1
  P  P3  1  0.35738919  0.14280357  0.50126272  1
  P  P4  1  0.78541538  0.64154084  0.14280357  1
  P  P5  1  0.85499754  0.21263717  0.35555041  1
  P  P6  1  0.64235937  0.14291324  0.78736283  1
  P  P7  1  0.49944613  0.64444959  0.85708676  1
  P  P8  1  0.64261081  0.85719643  0.49873728  1
  P  P9  1  0.50055387  0.35555041  0.14291324  1
  P  P10  1  0.35764063  0.85708676  0.21263717  1
  P  P11  1  0.21458462  0.35845916  0.85719643  1
  Ru  Ru0  1  0.50000000  0.50000000  0.50000000  1
  Ru  Ru1  1  0.00000000  0.50000000  0.00000000  1
  Ru  Ru2  1  0.00000000  0.00000000  0.50000000  1
loop_
_geom_bond_atom_site_label_1
_geom_bond_atom_site_label_2
_geom_bond_distance
_geom_bond_site_symmetry_2
Ni0 P9 2.338540 1_555
Ni0 P7 2.338540 1_544
Ni0 P6 2.338541 1_554
Ni0 P10 2.338541 1_545
Ni0 P5 2.338544 1_555
Ni0 P0 2.338544 1_544
P0 P1 2.296781 1_555
P0 P2 2.311487 1_455
P0 Ru2 2.352989 1_565
P0 Sr0 3.098590 1_566
P1 P5 2.311487 1_455
P1 Ru1 2.351530 1_555
P1 Ru0 2.356858 1_555
P1 Sr0 3.097367 1_555
P2 P5 2.296781 1_555
P2 Ru1 2.351530 1_656
P2 Ru0 2.356858 1_555
P2 Sr0 3.097367 1_666
P3 P6 2.296778 1_555
P3 Ru0 2.351530 1_555
P3 Ru2 2.356858 1_555
P3 Sr0 3.097368 1_555
P4 P9 2.296782 1_555
P4 P7 2.311495 1_554
P4 Ru2 2.351530 1_665
P4 Ru1 2.356852 1_655
P4 Sr0 3.097366 1_665
P5 Ru2 2.352989 1_655
P5 Sr0 3.098590 1_655
P6 P8 2.311490 1_545
P6 Ru1 2.352993 1_656
P6 Sr0 3.098596 1_656
P7 Ru0 2.352993 1_555
P7 Sr0 3.098596 1_666
P8 Ru0 2.351530 1_555
P8 Ru2 2.356858 1_665
P8 Sr0 3.097368 1_666
P9 Ru0 2.352993 1_555
P9 Sr0 3.098596 1_555
P10 P8 2.296778 1_555
P10 P3 2.311490 1_565
P10 Ru1 2.352993 1_555
P10 Sr0 3.098596 1_565
P11 P7 2.296782 1_555
P11 P9 2.311495 1_556
P11 Ru2 2.351530 1_555
P11 Ru1 2.356852 1_556
P11 Sr0 3.097366 1_556
