# generated using pymatgen
data_Li3TaO4
_symmetry_space_group_name_H-M   'P 1'
_cell_length_a   5.98996120
_cell_length_b   5.98996120
_cell_length_c   9.27650154
_cell_angle_alpha   71.22185067
_cell_angle_beta   71.22185067
_cell_angle_gamma   90.03759748
_symmetry_Int_Tables_number   1
_chemical_formula_structural   Li3TaO4
_chemical_formula_sum   'Li12 Ta4 O16'
_cell_volume   296.32227946
_cell_formula_units_Z   4
loop_
 _symmetry_equiv_pos_site_id
 _symmetry_equiv_pos_as_xyz
  1  'x, y, z'
loop_
 _atom_site_type_symbol
 _atom_site_label
 _atom_site_symmetry_multiplicity
 _atom_site_fract_x
 _atom_site_fract_y
 _atom_site_fract_z
 _atom_site_occupancy
  Li  Li0  1  0.30416999  0.05650183  0.63710934  1
  Li  Li1  1  0.69583001  0.94349817  0.36289066  1
  Li  Li2  1  0.05650183  0.30416999  0.13710934  1
  Li  Li3  1  0.94349817  0.69583001  0.86289066  1
  Li  Li4  1  0.43246373  0.19593108  0.88604052  1
  Li  Li5  1  0.80406892  0.56753627  0.61395948  1
  Li  Li6  1  0.56753627  0.80406892  0.11395948  1
  Li  Li7  1  0.19593108  0.43246373  0.38604052  1
  Li  Li8  1  0.64515642  0.43669342  0.37543762  1
  Li  Li9  1  0.56330658  0.35484358  0.12456238  1
  Li  Li10  1  0.35484358  0.56330658  0.62456238  1
  Li  Li11  1  0.43669342  0.64515642  0.87543762  1
  Ta  Ta0  1  0.93828061  0.22179510  0.87492894  1
  Ta  Ta1  1  0.77820490  0.06171939  0.62507106  1
  Ta  Ta2  1  0.06171939  0.77820490  0.12507106  1
  Ta  Ta3  1  0.22179510  0.93828061  0.37492894  1
  O  O0  1  0.05230250  0.83166339  0.61311519  1
  O  O1  1  0.83166339  0.05230250  0.11311519  1
  O  O2  1  0.16833661  0.94769750  0.88688481  1
  O  O3  1  0.94769750  0.16833661  0.38688481  1
  O  O4  1  0.29045538  0.04257945  0.13677955  1
  O  O5  1  0.95742055  0.70954462  0.36322045  1
  O  O6  1  0.70954462  0.95742055  0.86322045  1
  O  O7  1  0.04257945  0.29045538  0.63677955  1
  O  O8  1  0.57491667  0.30269719  0.61866420  1
  O  O9  1  0.69730281  0.42508333  0.88133580  1
  O  O10  1  0.42508333  0.69730281  0.38133580  1
  O  O11  1  0.30269719  0.57491667  0.11866420  1
  O  O12  1  0.81998263  0.56927809  0.13186927  1
  O  O13  1  0.43072191  0.18001737  0.36813073  1
  O  O14  1  0.18001737  0.43072191  0.86813073  1
  O  O15  1  0.56927809  0.81998263  0.63186927  1
loop_
_geom_bond_atom_site_label_1
_geom_bond_atom_site_label_2
_geom_bond_distance
_geom_bond_site_symmetry_2
Li0 O2 2.066110 1_545
Li0 O7 2.102925 1_555
Li0 O8 2.118935 1_555
Li0 O15 2.128101 1_545
Li0 O0 2.132127 1_545
Li0 O13 2.222825 1_555
Li1 O1 2.066110 1_565
Li1 O5 2.102925 1_555
Li1 O10 2.118935 1_555
Li1 O13 2.128101 1_565
Li1 O3 2.132127 1_565
Li1 O15 2.222825 1_555
Li2 O3 2.066110 1_455
Li2 O4 2.102925 1_555
Li2 O11 2.118935 1_555
Li2 O12 2.128101 1_455
Li2 O1 2.132127 1_455
Li2 O14 2.222825 1_554
Li3 O0 2.066110 1_655
Li3 O6 2.102925 1_555
Li3 O9 2.118935 1_555
Li3 O14 2.128101 1_655
Li3 O2 2.132127 1_655
Li3 O12 2.222825 1_556
Li4 O14 2.075141 1_555
Li4 O9 2.077633 1_555
Li4 O4 2.080180 1_556
Li4 O2 2.166904 1_545
Li4 O6 2.193661 1_545
Li4 O8 2.214621 1_555
Li5 O15 2.075141 1_555
Li5 O8 2.077633 1_555
Li5 O5 2.080180 1_555
Li5 O0 2.166904 1_655
Li5 O7 2.193661 1_655
Li5 O9 2.214621 1_555
Li6 O12 2.075141 1_555
Li6 O11 2.077633 1_555
Li6 O6 2.080180 1_554
Li6 O1 2.166904 1_565
Li6 O4 2.193661 1_565
Li6 O10 2.214621 1_555
Li7 O13 2.075141 1_555
Li7 O10 2.077633 1_555
Li7 O7 2.080180 1_555
Li7 O3 2.166904 1_455
Li7 O5 2.193661 1_455
Li7 O11 2.214621 1_555
Li8 O8 2.033361 1_555
Li8 O13 2.034408 1_555
Li8 O12 2.037852 1_555
Li8 O10 2.046661 1_555
Li8 O3 2.428392 1_555
Li8 O5 2.433690 1_555
Li9 O9 2.033361 1_554
Li9 O12 2.034408 1_555
Li9 O13 2.037852 1_555
Li9 O11 2.046661 1_555
Li9 O1 2.428392 1_555
Li9 O4 2.433690 1_555
Li10 O10 2.033361 1_555
Li10 O15 2.034408 1_555
Li10 O14 2.037852 1_555
Li10 O8 2.046661 1_555
Li10 O0 2.428392 1_555
Li10 O7 2.433690 1_555
Li11 O11 2.033361 1_556
Li11 O14 2.034408 1_555
Li11 O15 2.037852 1_555
Li11 O9 2.046661 1_555
Li11 O2 2.428392 1_555
Li11 O6 2.433690 1_555
O0 Ta3 1.991758 1_555
O0 Ta1 2.142664 1_465
O1 Ta0 1.991758 1_554
O1 Ta2 2.142664 1_645
O2 Ta2 1.991758 1_556
O2 Ta0 2.142664 1_465
O3 Ta1 1.991758 1_555
O3 Ta3 2.142664 1_645
O4 Ta3 1.991512 1_545
O4 Ta2 2.144875 1_545
O5 Ta2 1.991512 1_655
O5 Ta3 2.144875 1_655
O6 Ta1 1.991512 1_565
O6 Ta0 2.144875 1_565
O7 Ta0 1.991512 1_455
O7 Ta1 2.144875 1_455
O8 Ta1 1.887725 1_555
O9 Ta0 1.887725 1_555
O10 Ta3 1.887725 1_555
O11 Ta2 1.887725 1_555
O12 Ta2 1.885430 1_655
O13 Ta3 1.885430 1_545
O14 Ta0 1.885430 1_455
O15 Ta1 1.885430 1_565
