# generated using pymatgen
data_Mn3GaSiRu3
_symmetry_space_group_name_H-M   'P 1'
_cell_length_a   4.19308821
_cell_length_b   4.19308727
_cell_length_c   7.29432342
_cell_angle_alpha   73.29634693
_cell_angle_beta   90.00000003
_cell_angle_gamma   119.99999936
_symmetry_Int_Tables_number   1
_chemical_formula_structural   Mn3GaSiRu3
_chemical_formula_sum   'Mn3 Ga1 Si1 Ru3'
_cell_volume   104.77131271
_cell_formula_units_Z   1
loop_
 _symmetry_equiv_pos_site_id
 _symmetry_equiv_pos_as_xyz
  1  'x, y, z'
loop_
 _atom_site_type_symbol
 _atom_site_label
 _atom_site_symmetry_multiplicity
 _atom_site_fract_x
 _atom_site_fract_y
 _atom_site_fract_z
 _atom_site_occupancy
  Mn  Mn0  1  0.24966278  0.49932357  0.25101365  1
  Mn  Mn1  1  0.74988890  0.49977580  0.75033530  1
  Mn  Mn2  1  0.62253995  0.24508191  0.13237914  1
  Ga  Ga0  1  0.00153658  0.00307117  0.99539325  1
  Si  Si0  1  0.49750891  0.99501681  0.50747228  1
  Ru  Ru0  1  0.12786686  0.25573271  0.61640143  1
  Ru  Ru1  1  0.87489479  0.74978758  0.37531764  1
  Ru  Ru2  1  0.37610323  0.75220846  0.87168731  1
loop_
_geom_bond_atom_site_label_1
_geom_bond_atom_site_label_2
_geom_bond_distance
_geom_bond_site_symmetry_2
Mn0 Ru0 2.514189 1_555
Mn0 Mn2 2.554794 1_555
Mn0 Mn2 2.554808 1_455
Mn0 Mn2 2.554810 1_565
Mn0 Ru1 2.567534 1_445
Mn0 Ru1 2.567535 1_455
Mn0 Ru1 2.567535 1_555
Mn0 Ru2 2.610098 1_554
Mn1 Ru2 2.560834 1_655
Mn1 Ru2 2.560837 1_545
Mn1 Ru2 2.560848 1_555
Mn1 Ru1 2.580451 1_555
Mn1 Ru0 2.590359 1_655
Mn1 Ru0 2.590363 1_555
Mn1 Ru0 2.590365 1_665
Mn1 Mn2 2.628797 1_556
Mn2 Si0 2.580970 1_545
Mn2 Ru1 2.941934 1_555
Mn2 Ru1 2.941937 1_445
Mn2 Ru1 2.941948 1_545
Mn2 Ru2 3.013026 1_554
Mn2 Ru2 3.013026 1_654
Mn2 Ru2 3.013032 1_544
Ga0 Ru2 2.566160 1_545
Ga0 Ru2 2.566166 1_555
Ga0 Ru2 2.566174 1_445
Ga0 Mn2 2.597903 1_446
Ga0 Mn2 2.597904 1_556
Ga0 Mn2 2.597917 1_456
Ga0 Ru0 2.607796 1_555
Ga0 Ru1 2.614213 1_446
Ru0 Si0 2.534249 1_555
Ru0 Si0 2.534260 1_545
Ru0 Si0 2.534260 1_445
Ru1 Si0 2.586029 1_655
Ru1 Si0 2.586032 1_555
Ru1 Si0 2.586035 1_545
Ru2 Si0 2.506119 1_555
