# generated using pymatgen
data_Lu10OsRu3
_symmetry_space_group_name_H-M   'P 1'
_cell_length_a   6.14444870
_cell_length_b   7.18713829
_cell_length_c   8.19099512
_cell_angle_alpha   96.95952111
_cell_angle_beta   111.93726719
_cell_angle_gamma   89.92642915
_symmetry_Int_Tables_number   1
_chemical_formula_structural   Lu10OsRu3
_chemical_formula_sum   'Lu10 Os1 Ru3'
_cell_volume   332.67907076
_cell_formula_units_Z   1
loop_
 _symmetry_equiv_pos_site_id
 _symmetry_equiv_pos_as_xyz
  1  'x, y, z'
loop_
 _atom_site_type_symbol
 _atom_site_label
 _atom_site_symmetry_multiplicity
 _atom_site_fract_x
 _atom_site_fract_y
 _atom_site_fract_z
 _atom_site_occupancy
  Lu  Lu0  1  0.52126817  0.08623340  0.81523678  1
  Lu  Lu1  1  0.47817097  0.91611857  0.18521727  1
  Lu  Lu2  1  0.70883586  0.41418017  0.18430940  1
  Lu  Lu3  1  0.29435411  0.58578037  0.81964585  1
  Lu  Lu4  1  0.29378715  0.31900505  0.43470947  1
  Lu  Lu5  1  0.70443810  0.68058354  0.56452582  1
  Lu  Lu6  1  0.86035920  0.18141585  0.56611273  1
  Lu  Lu7  1  0.14103113  0.81773766  0.43385283  1
  Lu  Lu8  1  0.08126892  0.24936044  0.99986050  1
  Lu  Lu9  1  0.91829426  0.75032007  0.99999814  1
  Os  Os0  1  0.32285116  0.57860116  0.21856566  1
  Ru  Ru0  1  0.67536689  0.42071411  0.77877914  1
  Ru  Ru1  1  0.10172379  0.92112636  0.77684705  1
  Ru  Ru2  1  0.89824829  0.07882226  0.22233837  1
loop_
_geom_bond_atom_site_label_1
_geom_bond_atom_site_label_2
_geom_bond_distance
_geom_bond_site_symmetry_2
Lu0 Ru0 2.675034 1_555
Lu0 Ru1 2.732064 1_545
Lu0 Ru2 3.280105 1_556
Lu1 Os0 2.689078 1_555
Lu1 Ru2 2.730819 1_565
Lu1 Ru1 3.284545 1_554
Lu2 Ru2 2.676710 1_555
Lu2 Os0 2.740374 1_555
Lu2 Ru0 3.256615 1_554
Lu3 Ru1 2.687039 1_555
Lu3 Ru0 2.735410 1_555
Lu3 Os0 3.213027 1_556
Lu4 Os0 2.772171 1_555
Lu4 Ru2 2.834913 1_455
Lu4 Ru0 2.922694 1_555
Lu5 Ru0 2.762158 1_555
Lu5 Ru1 2.842970 1_655
Lu5 Os0 2.932822 1_555
Lu6 Ru1 2.746138 1_645
Lu6 Ru0 2.834215 1_555
Lu6 Ru2 2.917729 1_555
Lu7 Ru2 2.756372 1_465
Lu7 Os0 2.836244 1_555
Lu7 Ru1 2.916197 1_555
Lu8 Os0 2.829633 1_556
Lu8 Ru1 2.836247 1_545
Lu8 Ru2 2.857234 1_456
Lu8 Ru0 2.859058 1_455
Lu9 Ru2 2.833908 1_566
Lu9 Ru0 2.840973 1_555
Lu9 Os0 2.847772 1_656
Lu9 Ru1 2.864414 1_655
