# generated using pymatgen
data_Ta6Zn4Cu2N
_symmetry_space_group_name_H-M   'P 1'
_cell_length_a   8.04711027
_cell_length_b   8.04711096
_cell_length_c   8.04710954
_cell_angle_alpha   60.00000585
_cell_angle_beta   60.00000304
_cell_angle_gamma   60.00000484
_symmetry_Int_Tables_number   1
_chemical_formula_structural   Ta6Zn4Cu2N
_chemical_formula_sum   'Ta12 Zn8 Cu4 N2'
_cell_volume   368.47234878
_cell_formula_units_Z   2
loop_
 _symmetry_equiv_pos_site_id
 _symmetry_equiv_pos_as_xyz
  1  'x, y, z'
loop_
 _atom_site_type_symbol
 _atom_site_label
 _atom_site_symmetry_multiplicity
 _atom_site_fract_x
 _atom_site_fract_y
 _atom_site_fract_z
 _atom_site_occupancy
  Ta  Ta0  1  0.19229408  0.80770592  0.19229408  1
  Ta  Ta1  1  0.44229408  0.05770592  0.44229408  1
  Ta  Ta2  1  0.44229408  0.05770592  0.05770592  1
  Ta  Ta3  1  0.44229408  0.44229408  0.05770592  1
  Ta  Ta4  1  0.19229408  0.80770592  0.80770592  1
  Ta  Ta5  1  0.05770592  0.44229408  0.05770592  1
  Ta  Ta6  1  0.80770592  0.80770592  0.19229408  1
  Ta  Ta7  1  0.05770592  0.44229408  0.44229408  1
  Ta  Ta8  1  0.19229408  0.19229408  0.80770592  1
  Ta  Ta9  1  0.80770592  0.19229408  0.19229408  1
  Ta  Ta10  1  0.80770592  0.19229408  0.80770592  1
  Ta  Ta11  1  0.05770592  0.05770592  0.44229408  1
  Zn  Zn0  1  0.83201875  0.50394676  0.83201875  1
  Zn  Zn1  1  0.41798125  0.41798125  0.74605324  1
  Zn  Zn2  1  0.74605324  0.41798125  0.41798125  1
  Zn  Zn3  1  0.41798125  0.41798125  0.41798125  1
  Zn  Zn4  1  0.83201875  0.83201875  0.50394676  1
  Zn  Zn5  1  0.41798125  0.74605324  0.41798125  1
  Zn  Zn6  1  0.83201875  0.83201875  0.83201875  1
  Zn  Zn7  1  0.50394676  0.83201875  0.83201875  1
  Cu  Cu0  1  0.62500000  0.12500000  0.62500000  1
  Cu  Cu1  1  0.62500000  0.62500000  0.12500000  1
  Cu  Cu2  1  0.12500000  0.62500000  0.62500000  1
  Cu  Cu3  1  0.62500000  0.62500000  0.62500000  1
  N  N0  1  0.00000000  0.00000000  0.00000000  1
  N  N1  1  0.25000000  0.25000000  0.25000000  1
loop_
_geom_bond_atom_site_label_1
_geom_bond_atom_site_label_2
_geom_bond_distance
_geom_bond_site_symmetry_2
Ta0 Zn7 2.717659 1_554
Ta0 Zn4 2.717659 1_455
Ta0 Zn5 2.887743 1_555
Ta0 Zn3 2.887755 1_555
Ta1 Zn3 2.717649 1_555
Ta1 Zn5 2.717673 1_545
Ta1 Zn7 2.887764 1_545
Ta1 Zn4 2.887764 1_545
Ta2 Zn5 2.717659 1_545
Ta2 Zn1 2.717660 1_554
Ta2 Zn7 2.887743 1_544
Ta2 Zn6 2.887755 1_544
Ta3 Zn3 2.717649 1_555
Ta3 Zn1 2.717673 1_554
Ta3 Zn0 2.887764 1_554
Ta3 Zn7 2.887765 1_554
Ta4 Zn6 2.717649 1_455
Ta4 Zn7 2.717673 1_555
Ta4 Zn5 2.887764 1_555
Ta4 Zn1 2.887765 1_555
Ta5 Zn2 2.717659 1_455
Ta5 Zn1 2.717659 1_554
Ta5 Zn0 2.887743 1_454
Ta5 Zn6 2.887755 1_454
Ta6 Zn6 2.717649 1_554
Ta6 Zn4 2.717673 1_555
Ta6 Zn5 2.887764 1_555
Ta6 Zn2 2.887765 1_555
Ta7 Zn3 2.717649 1_555
Ta7 Zn2 2.717673 1_455
Ta7 Zn0 2.887764 1_455
Ta7 Zn4 2.887765 1_455
Ta8 Zn0 2.717660 1_455
Ta8 Zn7 2.717660 1_545
Ta8 Zn1 2.887744 1_555
Ta8 Zn3 2.887755 1_555
Ta9 Zn0 2.717659 1_554
Ta9 Zn4 2.717660 1_545
Ta9 Zn2 2.887743 1_555
Ta9 Zn3 2.887755 1_555
Ta10 Zn6 2.717649 1_545
Ta10 Zn0 2.717673 1_555
Ta10 Zn2 2.887764 1_555
Ta10 Zn1 2.887764 1_555
Ta11 Zn5 2.717660 1_545
Ta11 Zn2 2.717660 1_455
Ta11 Zn4 2.887744 1_445
Ta11 Zn6 2.887755 1_445
Zn0 Zn6 2.640032 1_555
Zn0 Zn4 2.640032 1_555
Zn0 Zn7 2.640032 1_555
Zn1 Zn3 2.640031 1_555
Zn1 Zn2 2.640031 1_555
Zn1 Zn5 2.640032 1_555
Zn2 Zn3 2.640031 1_555
Zn2 Zn5 2.640032 1_555
Zn3 Zn5 2.640032 1_555
Zn4 Zn6 2.640031 1_555
Zn4 Zn7 2.640031 1_555
Zn6 Zn7 2.640031 1_555
Cu0 Zn1 2.455386 1_555
Cu0 Zn4 2.455386 1_545
Cu0 Zn2 2.455386 1_555
Cu0 Zn7 2.455386 1_545
Cu0 Zn6 2.455399 1_545
Cu0 Zn3 2.455399 1_555
Cu0 Ta2 2.893190 1_556
Cu0 Ta9 2.893190 1_555
Cu0 Ta1 2.893190 1_555
Cu0 Ta10 2.893190 1_555
Cu0 Ta11 2.893190 1_655
Cu0 Ta8 2.893190 1_555
Cu1 Zn5 2.455385 1_555
Cu1 Zn0 2.455385 1_554
Cu1 Zn2 2.455385 1_555
Cu1 Zn7 2.455385 1_554
Cu1 Zn6 2.455399 1_554
Cu1 Zn3 2.455399 1_555
Cu1 Ta3 2.893190 1_555
Cu1 Ta6 2.893190 1_555
Cu1 Ta5 2.893190 1_655
Cu1 Ta0 2.893190 1_555
Cu1 Ta2 2.893190 1_565
Cu1 Ta9 2.893190 1_555
Cu2 Zn1 2.455386 1_555
Cu2 Zn4 2.455386 1_455
Cu2 Zn5 2.455386 1_555
Cu2 Zn0 2.455386 1_455
Cu2 Zn6 2.455398 1_455
Cu2 Zn3 2.455398 1_555
Cu2 Ta4 2.893190 1_555
Cu2 Ta7 2.893190 1_555
Cu2 Ta5 2.893190 1_556
Cu2 Ta0 2.893190 1_555
Cu2 Ta11 2.893190 1_565
Cu2 Ta8 2.893190 1_555
Cu3 Zn0 2.455405 1_555
Cu3 Zn5 2.455405 1_555
Cu3 Zn7 2.455405 1_555
Cu3 Zn2 2.455405 1_555
Cu3 Zn4 2.455405 1_555
Cu3 Zn1 2.455405 1_555
Cu3 Ta3 2.893190 1_556
Cu3 Ta6 2.893190 1_555
Cu3 Ta7 2.893190 1_655
Cu3 Ta4 2.893190 1_555
Cu3 Ta1 2.893190 1_565
Cu3 Ta10 2.893190 1_555
N0 Ta0 2.188371 1_545
N0 Ta10 2.188371 1_454
N0 Ta9 2.188371 1_455
N0 Ta4 2.188371 1_544
N0 Ta8 2.188371 1_554
N0 Ta6 2.188371 1_445
N1 Ta5 2.188371 1_555
N1 Ta1 2.188371 1_555
N1 Ta7 2.188371 1_555
N1 Ta2 2.188371 1_555
N1 Ta11 2.188371 1_555
N1 Ta3 2.188371 1_555
