# generated using pymatgen
data_LiPt5Rh2
_symmetry_space_group_name_H-M   'P 1'
_cell_length_a   5.46097351
_cell_length_b   5.46097360
_cell_length_c   5.46097351
_cell_angle_alpha   119.92950404
_cell_angle_beta   90.02576281
_cell_angle_gamma   120.04076816
_symmetry_Int_Tables_number   1
_chemical_formula_structural   LiPt5Rh2
_chemical_formula_sum   'Li1 Pt5 Rh2'
_cell_volume   115.18402853
_cell_formula_units_Z   1
loop_
 _symmetry_equiv_pos_site_id
 _symmetry_equiv_pos_as_xyz
  1  'x, y, z'
loop_
 _atom_site_type_symbol
 _atom_site_label
 _atom_site_symmetry_multiplicity
 _atom_site_fract_x
 _atom_site_fract_y
 _atom_site_fract_z
 _atom_site_occupancy
  Li  Li0  1  0.49999900  0.00000000  0.49999900  1
  Pt  Pt0  1  0.49999900  0.00000000  0.00000000  1
  Pt  Pt1  1  0.00000000  0.49999900  0.00000000  1
  Pt  Pt2  1  0.00000000  0.00000000  0.49999900  1
  Pt  Pt3  1  0.00000000  0.49999900  0.49999900  1
  Pt  Pt4  1  0.49999900  0.49999900  0.49999900  1
  Rh  Rh0  1  0.00000000  0.00000000  0.00000000  1
  Rh  Rh1  1  0.49999900  0.49999900  0.00000000  1
loop_
_geom_bond_atom_site_label_1
_geom_bond_atom_site_label_2
_geom_bond_distance
_geom_bond_site_symmetry_2
Li0 Pt3 2.728804 1_655
Li0 Pt3 2.728804 1_545
Li0 Pt0 2.730481 1_555
Li0 Pt2 2.730481 1_555
Li0 Pt4 2.730481 1_555
Li0 Pt1 2.730482 1_545
Li0 Pt0 2.730492 1_556
Li0 Pt2 2.730492 1_655
Li0 Pt4 2.730492 1_545
Li0 Pt1 2.730493 1_656
Li0 Rh1 2.733396 1_556
Li0 Rh1 2.733396 1_545
Pt0 Rh0 2.730481 1_555
Pt0 Rh0 2.730492 1_655
Pt1 Rh0 2.730481 1_555
Pt1 Rh0 2.730492 1_565
Pt2 Rh0 2.730481 1_555
Pt2 Rh0 2.730492 1_556
Pt3 Rh0 2.733390 1_555
Pt3 Rh0 2.733401 1_566
Pt4 Rh0 2.730482 1_555
Pt4 Rh0 2.730493 1_666
Rh0 Rh1 2.728799 1_555
Rh0 Rh1 2.728810 1_445
