# generated using pymatgen
data_Rb6LuInBi4
_symmetry_space_group_name_H-M   'P 1'
_cell_length_a   10.21308675
_cell_length_b   10.21308772
_cell_length_c   10.21308915
_cell_angle_alpha   127.78372190
_cell_angle_beta   69.78445733
_cell_angle_gamma   137.12755501
_symmetry_Int_Tables_number   1
_chemical_formula_structural   Rb6LuInBi4
_chemical_formula_sum   'Rb6 Lu1 In1 Bi4'
_cell_volume   562.12291004
_cell_formula_units_Z   1
loop_
 _symmetry_equiv_pos_site_id
 _symmetry_equiv_pos_as_xyz
  1  'x, y, z'
loop_
 _atom_site_type_symbol
 _atom_site_label
 _atom_site_symmetry_multiplicity
 _atom_site_fract_x
 _atom_site_fract_y
 _atom_site_fract_z
 _atom_site_occupancy
  Rb  Rb0  1  0.25000000  0.25000000  0.00000000  1
  Rb  Rb1  1  0.75000000  0.75000000  0.00000000  1
  Rb  Rb2  1  0.82994862  0.31721822  0.12402358  1
  Rb  Rb3  1  0.67005038  0.79407595  0.48726960  1
  Rb  Rb4  1  0.30680536  0.18278178  0.51273040  1
  Rb  Rb5  1  0.19319364  0.70592505  0.87597642  1
  Lu  Lu0  1  0.75000000  0.25000000  0.50000000  1
  In  In0  1  0.25000000  0.75000000  0.50000000  1
  Bi  Bi0  1  0.39788371  0.80571035  0.20799422  1
  Bi  Bi1  1  0.10211629  0.31011051  0.40782864  1
  Bi  Bi2  1  0.90228387  0.69428965  0.59217236  1
  Bi  Bi3  1  0.59771613  0.18988949  0.79200578  1
loop_
_geom_bond_atom_site_label_1
_geom_bond_atom_site_label_2
_geom_bond_distance
_geom_bond_site_symmetry_2
Lu0 Rb3 4.015502 1_545
Lu0 Rb5 4.015513 1_655
Lu0 Rb4 4.015518 1_555
Lu0 Rb2 4.015519 1_555
In0 Lu0 3.732529 1_565
In0 Lu0 3.732529 1_455
In0 Rb3 3.934387 1_555
In0 Rb5 3.934402 1_555
In0 Rb4 3.934404 1_565
In0 Rb2 3.934404 1_455
Bi0 In0 3.034076 1_555
Bi0 Lu0 3.054214 1_565
Bi0 Rb0 3.726228 1_555
Bi0 Rb4 3.734351 1_565
Bi0 Rb1 3.742643 1_555
Bi0 Rb5 3.801193 1_554
Bi0 Rb2 3.879338 1_455
Bi0 Rb2 4.072368 1_565
Bi1 In0 3.034084 1_555
Bi1 Lu0 3.054213 1_455
Bi1 Rb0 3.726247 1_555
Bi1 Rb5 3.734338 1_555
Bi1 Rb1 3.742654 1_445
Bi1 Rb4 3.801172 1_555
Bi1 Rb3 3.879333 1_555
Bi1 Rb3 4.072350 1_445
Bi2 In0 3.034075 1_655
Bi2 Lu0 3.054218 1_555
Bi2 Rb0 3.726234 1_666
Bi2 Rb2 3.734344 1_555
Bi2 Rb1 3.742653 1_556
Bi2 Rb3 3.801198 1_555
Bi2 Rb4 3.879332 1_665
Bi2 Rb4 4.072368 1_555
Bi3 In0 3.034076 1_545
Bi3 Lu0 3.054214 1_555
Bi3 Rb0 3.726228 1_556
Bi3 Rb3 3.734337 1_545
Bi3 Rb1 3.742644 1_556
Bi3 Rb2 3.801186 1_556
Bi3 Rb5 3.879339 1_545
Bi3 Rb5 4.072361 1_655
