# generated using pymatgen
data_Ti8Al14GaRu7
_symmetry_space_group_name_H-M   'P 1'
_cell_length_a   8.60075036
_cell_length_b   8.60075057
_cell_length_c   8.60075011
_cell_angle_alpha   120.11029900
_cell_angle_beta   119.93023525
_cell_angle_gamma   89.96497317
_symmetry_Int_Tables_number   1
_chemical_formula_structural   Ti8Al14GaRu7
_chemical_formula_sum   'Ti8 Al14 Ga1 Ru7'
_cell_volume   449.73794032
_cell_formula_units_Z   1
loop_
 _symmetry_equiv_pos_site_id
 _symmetry_equiv_pos_as_xyz
  1  'x, y, z'
loop_
 _atom_site_type_symbol
 _atom_site_label
 _atom_site_symmetry_multiplicity
 _atom_site_fract_x
 _atom_site_fract_y
 _atom_site_fract_z
 _atom_site_occupancy
  Ti  Ti0  1  0.79223132  0.28395358  0.06812206  1
  Ti  Ti1  1  0.21583252  0.28395358  0.49172227  1
  Ti  Ti2  1  0.21219693  0.71219693  0.50000000  1
  Ti  Ti3  1  0.21583252  0.72411026  0.93187794  1
  Ti  Ti4  1  0.79223132  0.72411026  0.50827773  1
  Ti  Ti5  1  0.77865143  0.27865143  0.50000000  1
  Ti  Ti6  1  0.37917559  0.12070701  0.74153142  1
  Ti  Ti7  1  0.37917559  0.63764517  0.25846858  1
  Al  Al0  1  0.15872228  0.34124060  0.18251732  1
  Al  Al1  1  0.15872228  0.97620495  0.81748268  1
  Al  Al2  1  0.15379498  0.34520386  0.80859012  1
  Al  Al3  1  0.53661375  0.34520386  0.19140988  1
  Al  Al4  1  0.84386134  0.65461200  0.81075166  1
  Al  Al5  1  0.84386134  0.03310968  0.18924834  1
  Al  Al6  1  0.84121819  0.65589993  0.18531726  1
  Al  Al7  1  0.47058367  0.65589993  0.81468274  1
  Al  Al8  1  0.38009225  0.12147769  0.25861356  1
  Al  Al9  1  0.86286513  0.12147769  0.74138644  1
  Al  Al10  1  0.61979066  0.87627625  0.25648559  1
  Al  Al11  1  0.61979066  0.36330507  0.74351441  1
  Al  Al12  1  0.62012410  0.87768143  0.74244267  1
  Al  Al13  1  0.13523777  0.87768143  0.25755733  1
  Ga  Ga0  1  0.99513440  0.49513440  0.50000000  1
  Ru  Ru0  1  0.99964151  0.99911283  0.50046130  1
  Ru  Ru1  1  0.49865153  0.99911283  0.99947133  1
  Ru  Ru2  1  0.49833798  0.49833798  0.00000000  1
  Ru  Ru3  1  0.49865153  0.49918021  0.49953870  1
  Ru  Ru4  1  0.99964151  0.49918021  0.00052867  1
  Ru  Ru5  1  0.00014844  0.00014844  0.00000000  1
  Ru  Ru6  1  0.49918847  0.99918847  0.50000000  1
loop_
_geom_bond_atom_site_label_1
_geom_bond_atom_site_label_2
_geom_bond_distance
_geom_bond_site_symmetry_2
Al0 Ru4 2.482176 1_455
Al0 Ru3 2.482184 1_555
Al0 Ru5 2.485663 1_555
Al1 Ru0 2.482184 1_455
Al1 Ru1 2.482184 1_555
Al1 Ru5 2.485656 1_566
Al2 Ru2 2.487436 1_556
Al2 Ru0 2.495048 1_445
Al2 Ru4 2.495055 1_456
Al2 Ti5 2.777564 1_455
Al3 Ru2 2.487444 1_555
Al3 Ru3 2.495048 1_555
Al3 Ru1 2.495048 1_544
Al3 Ti5 2.777558 1_555
Al4 Ru4 2.500242 1_556
Al4 Ru3 2.500250 1_555
Al4 Ru5 2.501285 1_666
Al4 Ti5 2.783698 1_555
Al5 Ru0 2.500250 1_545
Al5 Ru1 2.500250 1_544
Al5 Ru5 2.501278 1_655
Al5 Ti5 2.783704 1_555
Al6 Ru4 2.491725 1_555
Al6 Ru0 2.491733 1_555
Al6 Ru2 2.494178 1_555
Al7 Ru3 2.491727 1_555
Al7 Ru1 2.491735 1_555
Al7 Ru2 2.494173 1_556
Al8 Ru6 2.556000 1_545
Al8 Ru1 2.651065 1_544
Al8 Ru3 2.651072 1_555
Al8 Ru5 2.671528 1_555
Al8 Ti5 2.824232 1_555
Al9 Ru6 2.556007 1_545
Al9 Ru0 2.651065 1_545
Al9 Ru4 2.651072 1_556
Al9 Ru5 2.671521 1_656
Al9 Ti5 2.824239 1_555
Al10 Ru6 2.554426 1_555
Al10 Ru2 2.652117 1_555
Al10 Ru0 2.670513 1_555
Al10 Ru1 2.670513 1_554
Al10 Ti5 2.847433 1_565
Al11 Ru6 2.554426 1_545
Al11 Ru2 2.652117 1_556
Al11 Ru4 2.670513 1_556
Al11 Ru3 2.670513 1_555
Al11 Ti5 2.847433 1_555
Al12 Ru6 2.557887 1_555
Al12 Ru1 2.656331 1_555
Al12 Ru3 2.656331 1_555
Al12 Ru5 2.671643 1_666
Al13 Ru6 2.557894 1_555
Al13 Ru0 2.656324 1_455
Al13 Ru4 2.656331 1_455
Al13 Ru5 2.671643 1_565
Ga0 Ti0 2.628302 1_555
Ga0 Ti3 2.628303 1_655
Ga0 Ti1 2.628309 1_655
Ga0 Ti4 2.628309 1_555
Ga0 Ti5 2.633952 1_555
Ga0 Ti2 2.641003 1_655
Ru0 Ti6 2.668878 1_665
Ru0 Ti5 3.064219 1_565
Ru1 Ti6 2.668878 1_565
Ru1 Ti5 3.064219 1_566
Ru2 Ti6 2.650931 1_554
Ru2 Ti7 2.650931 1_555
Ru3 Ti7 2.668885 1_555
Ru3 Ti5 3.064219 1_555
Ru4 Ti7 2.668878 1_655
Ru4 Ti5 3.064219 1_554
Ru5 Ti4 3.017372 1_444
Ru5 Ti1 3.017372 1_555
Ru5 Ti0 3.017373 1_455
Ru5 Ti3 3.017373 1_544
Ru6 Ti7 2.536366 1_555
Ru6 Ti6 2.536373 1_565
