# generated using pymatgen
data_Co7NiIrS8
_symmetry_space_group_name_H-M   'P 1'
_cell_length_a   6.94898111
_cell_length_b   6.93682348
_cell_length_c   6.93682308
_cell_angle_alpha   60.00000652
_cell_angle_beta   60.05786448
_cell_angle_gamma   60.05787251
_symmetry_Int_Tables_number   1
_chemical_formula_structural   Co7NiIrS8
_chemical_formula_sum   'Co7 Ni1 Ir1 S8'
_cell_volume   236.65012191
_cell_formula_units_Z   1
loop_
 _symmetry_equiv_pos_site_id
 _symmetry_equiv_pos_as_xyz
  1  'x, y, z'
loop_
 _atom_site_type_symbol
 _atom_site_label
 _atom_site_symmetry_multiplicity
 _atom_site_fract_x
 _atom_site_fract_y
 _atom_site_fract_z
 _atom_site_occupancy
  Co  Co0  1  0.12671265  0.62210738  0.12558899  1
  Co  Co1  1  0.12671265  0.12558899  0.62210738  1
  Co  Co2  1  0.12671265  0.12558899  0.12558899  1
  Co  Co3  1  0.37722317  0.87425861  0.87425861  1
  Co  Co4  1  0.87308062  0.37913949  0.87389094  1
  Co  Co5  1  0.87308062  0.87389094  0.37913949  1
  Co  Co6  1  0.87308062  0.87389094  0.87389094  1
  Ni  Ni0  1  0.61654873  0.12781742  0.12781742  1
  Ir  Ir0  1  0.50242620  0.49919193  0.49919193  1
  S  S0  1  0.24103243  0.25298919  0.25298919  1
  S  S1  1  0.74717730  0.75094123  0.75094123  1
  S  S2  1  0.74859795  0.25636084  0.25636084  1
  S  S3  1  0.74859795  0.25636084  0.73868037  1
  S  S4  1  0.74859795  0.73868037  0.25636084  1
  S  S5  1  0.25680618  0.74313517  0.74313517  1
  S  S6  1  0.25680618  0.74313517  0.25692548  1
  S  S7  1  0.25680618  0.25692548  0.74313517  1
loop_
_geom_bond_atom_site_label_1
_geom_bond_atom_site_label_2
_geom_bond_distance
_geom_bond_site_symmetry_2
Co0 S0 2.091830 1_555
Co0 S4 2.147982 1_455
Co0 S5 2.167188 1_554
Co0 S6 2.167211 1_555
Co1 S0 2.091829 1_555
Co1 S3 2.147982 1_455
Co1 S5 2.167188 1_545
Co1 S7 2.167211 1_555
Co2 S0 2.091841 1_555
Co2 S2 2.147982 1_455
Co2 S7 2.167189 1_554
Co2 S6 2.167189 1_545
Co3 S1 2.100887 1_555
Co3 S5 2.168356 1_555
Co3 S6 2.168373 1_556
Co3 S7 2.168373 1_565
Co4 S1 2.106514 1_555
Co4 S2 2.167376 1_556
Co4 S3 2.167388 1_555
Co4 S7 2.179360 1_655
Co5 S1 2.106514 1_555
Co5 S2 2.167377 1_565
Co5 S4 2.167388 1_555
Co5 S6 2.179360 1_655
Co6 S1 2.106519 1_555
Co6 S4 2.167377 1_556
Co6 S3 2.167377 1_565
Co6 S5 2.179360 1_655
Ni0 S0 2.132473 1_555
Ni0 S2 2.204737 1_555
Ni0 S3 2.204743 1_554
Ni0 S4 2.204743 1_545
Ir0 S4 2.384459 1_555
Ir0 S3 2.384459 1_555
Ir0 S2 2.384469 1_555
Ir0 S7 2.395275 1_555
Ir0 S6 2.395275 1_555
Ir0 S5 2.395275 1_555
