# generated using pymatgen
data_Nb21S8
_symmetry_space_group_name_H-M   'P 1'
_cell_length_a   3.37978612
_cell_length_b   12.09055724
_cell_length_c   12.09055812
_cell_angle_alpha   88.88061984
_cell_angle_beta   81.96550461
_cell_angle_gamma   81.96548883
_symmetry_Int_Tables_number   1
_chemical_formula_structural   Nb21S8
_chemical_formula_sum   'Nb21 S8'
_cell_volume   484.41074048
_cell_formula_units_Z   1
loop_
 _symmetry_equiv_pos_site_id
 _symmetry_equiv_pos_as_xyz
  1  'x, y, z'
loop_
 _atom_site_type_symbol
 _atom_site_label
 _atom_site_symmetry_multiplicity
 _atom_site_fract_x
 _atom_site_fract_y
 _atom_site_fract_z
 _atom_site_occupancy
  Nb  Nb0  1  0.72244573  0.25879477  0.29631177  1
  Nb  Nb1  1  0.38332828  0.80209780  0.43124664  1
  Nb  Nb2  1  0.81457392  0.56875336  0.80209780  1
  Nb  Nb3  1  0.18542608  0.43124664  0.19790220  1
  Nb  Nb4  1  0.61667172  0.19790220  0.56875336  1
  Nb  Nb5  1  0.19074811  0.00738257  0.61112121  1
  Nb  Nb6  1  0.80186932  0.38887879  0.00738257  1
  Nb  Nb7  1  0.19813068  0.61112121  0.99261743  1
  Nb  Nb8  1  0.80925189  0.99261743  0.38887879  1
  Nb  Nb9  1  0.45143553  0.91446855  0.18265839  1
  Nb  Nb10  1  0.63409392  0.81734161  0.91446855  1
  Nb  Nb11  1  0.36590608  0.18265839  0.08553145  1
  Nb  Nb12  1  0.54856447  0.08553145  0.81734161  1
  Nb  Nb13  1  0.01875950  0.70368823  0.25879477  1
  Nb  Nb14  1  0.98124050  0.29631177  0.74120523  1
  Nb  Nb15  1  0.27755427  0.74120523  0.70368823  1
  Nb  Nb16  1  0.91839245  0.63107309  0.53214401  1
  Nb  Nb17  1  0.45053646  0.46785599  0.63107309  1
  Nb  Nb18  1  0.54946354  0.53214401  0.36892691  1
  Nb  Nb19  1  0.08160755  0.36892691  0.46785599  1
  Nb  Nb20  1  -0.00000000  0.00000000  0.00000000  1
  S  S0  1  0.78679358  0.84808488  0.57832697  1
  S  S1  1  0.36512154  0.42167303  0.84808488  1
  S  S2  1  0.63487846  0.57832697  0.15191512  1
  S  S3  1  0.21320642  0.15191512  0.42167303  1
  S  S4  1  0.86255332  0.07335737  0.20153599  1
  S  S5  1  0.06408931  0.79846401  0.07335737  1
  S  S6  1  0.93591069  0.20153599  0.92664263  1
  S  S7  1  0.13744668  0.92664263  0.79846401  1
loop_
_geom_bond_atom_site_label_1
_geom_bond_atom_site_label_2
_geom_bond_distance
_geom_bond_site_symmetry_2
Nb0 S4 2.493184 1_555
Nb0 S3 2.597191 1_555
Nb0 S3 2.597197 1_655
Nb1 S0 2.501869 1_555
Nb1 S0 2.501874 1_455
Nb2 S1 2.501869 1_555
Nb2 S1 2.501873 1_655
Nb3 S2 2.501869 1_555
Nb3 S2 2.501873 1_455
Nb4 S3 2.501869 1_555
Nb4 S3 2.501874 1_655
Nb5 S7 2.442271 1_545
Nb5 S0 2.578154 1_545
Nb5 S0 2.578156 1_445
Nb5 S3 2.852732 1_555
Nb6 S6 2.442271 1_554
Nb6 S1 2.578153 1_554
Nb6 S1 2.578156 1_654
Nb6 S2 2.852732 1_555
Nb7 S5 2.442271 1_556
Nb7 S2 2.578153 1_556
Nb7 S2 2.578156 1_456
Nb7 S1 2.852732 1_555
Nb8 S4 2.442271 1_565
Nb8 S3 2.578154 1_565
Nb8 S3 2.578156 1_665
Nb8 S0 2.852732 1_555
Nb9 S5 2.548871 1_555
Nb9 S5 2.548876 1_655
Nb9 S4 2.554439 1_465
Nb9 S4 2.554443 1_565
Nb10 S7 2.548871 1_555
Nb10 S7 2.548876 1_655
Nb10 S5 2.554440 1_556
Nb10 S5 2.554443 1_656
Nb11 S4 2.548871 1_555
Nb11 S4 2.548876 1_455
Nb11 S6 2.554440 1_554
Nb11 S6 2.554443 1_454
Nb12 S6 2.548871 1_555
Nb12 S6 2.548876 1_455
Nb12 S7 2.554439 1_645
Nb12 S7 2.554443 1_545
Nb13 S5 2.493184 1_555
Nb13 S2 2.597191 1_555
Nb13 S2 2.597197 1_455
Nb14 S6 2.493184 1_555
Nb14 S1 2.597191 1_555
Nb14 S1 2.597197 1_655
Nb15 S7 2.493184 1_555
Nb15 S0 2.597191 1_555
Nb15 S0 2.597197 1_455
Nb16 S0 2.656219 1_555
Nb17 S1 2.656219 1_555
Nb18 S2 2.656219 1_555
Nb19 S3 2.656219 1_555
Nb20 S6 2.567627 1_454
Nb20 S5 2.567627 1_545
Nb20 S7 2.567628 1_544
Nb20 S4 2.567628 1_455
