# generated using pymatgen
data_CaLuReH6
_symmetry_space_group_name_H-M   'P 1'
_cell_length_a   5.00086002
_cell_length_b   5.00086037
_cell_length_c   5.00085982
_cell_angle_alpha   59.99999705
_cell_angle_beta   59.99999473
_cell_angle_gamma   59.99999880
_symmetry_Int_Tables_number   1
_chemical_formula_structural   CaLuReH6
_chemical_formula_sum   'Ca1 Lu1 Re1 H6'
_cell_volume   88.43396127
_cell_formula_units_Z   1
loop_
 _symmetry_equiv_pos_site_id
 _symmetry_equiv_pos_as_xyz
  1  'x, y, z'
loop_
 _atom_site_type_symbol
 _atom_site_label
 _atom_site_symmetry_multiplicity
 _atom_site_fract_x
 _atom_site_fract_y
 _atom_site_fract_z
 _atom_site_occupancy
  Ca  Ca0  1  0.75000000  0.75000000  0.75000000  1
  Lu  Lu0  1  0.25000000  0.25000000  0.25000000  1
  Re  Re0  1  0.00000000  0.00000000  0.00000000  1
  H  H0  1  0.75093017  0.75093017  0.24906983  1
  H  H1  1  0.24906983  0.75093017  0.24906983  1
  H  H2  1  0.75093017  0.24906983  0.24906983  1
  H  H3  1  0.24906983  0.24906983  0.75093017  1
  H  H4  1  0.75093017  0.24906983  0.75093017  1
  H  H5  1  0.24906983  0.75093017  0.75093017  1
loop_
_geom_bond_atom_site_label_1
_geom_bond_atom_site_label_2
_geom_bond_distance
_geom_bond_site_symmetry_2
Ca0 H1 2.500438 1_655
Ca0 H1 2.500438 1_556
Ca0 H0 2.500439 1_555
Ca0 H0 2.500439 1_556
Ca0 H2 2.500439 1_565
Ca0 H2 2.500439 1_556
Ca0 H5 2.500439 1_555
Ca0 H5 2.500439 1_655
Ca0 H3 2.500439 1_565
Ca0 H3 2.500439 1_655
Ca0 H4 2.500439 1_565
Ca0 H4 2.500439 1_555
H0 Re0 1.761493 1_665
H0 Lu0 2.500439 1_565
H0 Lu0 2.500439 1_655
H1 Re0 1.761493 1_565
H1 Lu0 2.500439 1_565
H1 Lu0 2.500439 1_555
H2 Re0 1.761493 1_655
H2 Lu0 2.500439 1_555
H2 Lu0 2.500439 1_655
H3 Re0 1.761493 1_556
H3 Lu0 2.500439 1_555
H3 Lu0 2.500439 1_556
H4 Re0 1.761493 1_656
H4 Lu0 2.500438 1_655
H4 Lu0 2.500438 1_556
H5 Re0 1.761493 1_566
H5 Lu0 2.500439 1_565
H5 Lu0 2.500439 1_556
