# generated using pymatgen
data_Ca3TcH7
_symmetry_space_group_name_H-M   'P 1'
_cell_length_a   5.19895504
_cell_length_b   5.19890832
_cell_length_c   12.05376158
_cell_angle_alpha   90.00000000
_cell_angle_beta   90.00000000
_cell_angle_gamma   120.00028461
_symmetry_Int_Tables_number   1
_chemical_formula_structural   Ca3TcH7
_chemical_formula_sum   'Ca6 Tc2 H14'
_cell_volume   282.15009694
_cell_formula_units_Z   2
loop_
 _symmetry_equiv_pos_site_id
 _symmetry_equiv_pos_as_xyz
  1  'x, y, z'
loop_
 _atom_site_type_symbol
 _atom_site_label
 _atom_site_symmetry_multiplicity
 _atom_site_fract_x
 _atom_site_fract_y
 _atom_site_fract_z
 _atom_site_occupancy
  Ca  Ca0  1  0.33333241  0.66666482  0.06356013  1
  Ca  Ca1  1  0.00001358  0.00002715  0.25000000  1
  Ca  Ca2  1  0.33333241  0.66666482  0.43643987  1
  Ca  Ca3  1  0.66666659  0.33333518  0.56356013  1
  Ca  Ca4  1  0.99998542  0.99997285  0.75000000  1
  Ca  Ca5  1  0.66666659  0.33333518  0.93643987  1
  Tc  Tc0  1  0.00000000  0.00000000  0.00000000  1
  Tc  Tc1  1  0.00000000  0.00000000  0.50000000  1
  H  H0  1  0.31766084  0.15882797  0.08835334  1
  H  H1  1  0.84116713  0.15882797  0.08835334  1
  H  H2  1  0.84116941  0.68234083  0.08835455  1
  H  H3  1  0.33330246  0.66660592  0.25000000  1
  H  H4  1  0.84116941  0.68234083  0.41164445  1
  H  H5  1  0.31766084  0.15882797  0.41164666  1
  H  H6  1  0.84116713  0.15882797  0.41164666  1
  H  H7  1  0.15883187  0.84117203  0.58835334  1
  H  H8  1  0.68234016  0.84117203  0.58835334  1
  H  H9  1  0.15882959  0.31765917  0.58835555  1
  H  H10  1  0.66669654  0.33339408  0.75000000  1
  H  H11  1  0.15882959  0.31765917  0.91164445  1
  H  H12  1  0.15883187  0.84117203  0.91164666  1
  H  H13  1  0.68234016  0.84117203  0.91164666  1
loop_
_geom_bond_atom_site_label_1
_geom_bond_atom_site_label_2
_geom_bond_distance
_geom_bond_site_symmetry_2
Ca0 H3 2.247302 1_555
Ca0 H12 2.412936 1_554
Ca0 H13 2.412936 1_554
Ca0 H11 2.412941 1_554
Ca0 H0 2.617523 1_565
Ca0 H1 2.617524 1_565
Ca0 H0 2.617533 1_555
Ca0 H1 2.617533 1_455
Ca0 H2 2.617548 1_555
Ca0 H2 2.617559 1_455
Ca1 H1 2.416996 1_455
Ca1 H6 2.416996 1_455
Ca1 H0 2.416996 1_555
Ca1 H5 2.416996 1_555
Ca1 H4 2.417072 1_445
Ca1 H2 2.417081 1_445
Ca2 H3 2.247302 1_555
Ca2 H7 2.412936 1_555
Ca2 H8 2.412936 1_555
Ca2 H9 2.412941 1_555
Ca2 H5 2.617523 1_565
Ca2 H6 2.617524 1_565
Ca2 H5 2.617533 1_555
Ca2 H6 2.617533 1_455
Ca2 H4 2.617550 1_555
Ca2 H4 2.617560 1_455
Ca3 H10 2.247302 1_555
Ca3 H5 2.412930 1_555
Ca3 H6 2.412936 1_555
Ca3 H4 2.412941 1_555
Ca3 H7 2.617524 1_545
Ca3 H8 2.617528 1_555
Ca3 H8 2.617529 1_545
Ca3 H7 2.617533 1_655
Ca3 H9 2.617550 1_555
Ca3 H9 2.617560 1_655
Ca4 H8 2.416991 1_555
Ca4 H13 2.416991 1_555
Ca4 H7 2.416996 1_655
Ca4 H12 2.416996 1_655
Ca4 H11 2.417072 1_665
Ca4 H9 2.417072 1_665
Ca5 H10 2.247302 1_555
Ca5 H0 2.412930 1_556
Ca5 H2 2.412932 1_556
Ca5 H1 2.412936 1_556
Ca5 H12 2.617524 1_545
Ca5 H13 2.617528 1_555
Ca5 H13 2.617529 1_545
Ca5 H12 2.617533 1_655
Ca5 H11 2.617550 1_555
Ca5 H11 2.617560 1_655
H0 Tc0 1.783197 1_555
H1 Tc0 1.783197 1_655
H2 Tc0 1.783190 1_665
H4 Tc1 1.783197 1_665
H5 Tc1 1.783197 1_555
H6 Tc1 1.783197 1_655
H7 Tc1 1.783193 1_565
H8 Tc1 1.783194 1_665
H9 Tc1 1.783197 1_555
H11 Tc0 1.783197 1_556
H12 Tc0 1.783193 1_566
H13 Tc0 1.783194 1_666
