# generated using pymatgen
data_Ba2FeTcN6
_symmetry_space_group_name_H-M   'P 1'
_cell_length_a   6.78437111
_cell_length_b   6.78437149
_cell_length_c   5.80480710
_cell_angle_alpha   90.00000000
_cell_angle_beta   90.00000000
_cell_angle_gamma   143.70255248
_symmetry_Int_Tables_number   1
_chemical_formula_structural   Ba2FeTcN6
_chemical_formula_sum   'Ba2 Fe1 Tc1 N6'
_cell_volume   158.16560370
_cell_formula_units_Z   1
loop_
 _symmetry_equiv_pos_site_id
 _symmetry_equiv_pos_as_xyz
  1  'x, y, z'
loop_
 _atom_site_type_symbol
 _atom_site_label
 _atom_site_symmetry_multiplicity
 _atom_site_fract_x
 _atom_site_fract_y
 _atom_site_fract_z
 _atom_site_occupancy
  Ba  Ba0  1  0.13224242  0.86775658  0.24999900  1
  Ba  Ba1  1  0.87442474  0.12557426  0.75000000  1
  Fe  Fe0  1  0.58914583  0.41085317  0.75000000  1
  Tc  Tc0  1  0.41524709  0.58475191  0.24999900  1
  N  N0  1  0.50080093  0.49919907  0.99764136  1
  N  N1  1  0.66553308  0.02895495  0.24999900  1
  N  N2  1  0.97104405  0.33446592  0.24999900  1
  N  N3  1  0.50080093  0.49919907  0.50235964  1
  N  N4  1  0.02898523  0.67822830  0.75000000  1
  N  N5  1  0.32177070  0.97101377  0.75000000  1
loop_
_geom_bond_atom_site_label_1
_geom_bond_atom_site_label_2
_geom_bond_distance
_geom_bond_site_symmetry_2
Ba0 N1 2.812162 1_565
Ba0 N2 2.812162 1_455
Ba0 N5 3.019282 1_554
Ba0 N4 3.019282 1_554
Ba0 N5 3.019293 1_555
Ba0 N4 3.019293 1_555
Ba0 N0 3.079591 1_454
Ba0 N0 3.079594 1_564
Ba0 N3 3.079599 1_455
Ba0 N3 3.079602 1_565
Ba1 N5 2.969886 1_545
Ba1 N4 2.969886 1_655
Ba1 N3 3.031048 1_545
Ba1 N3 3.031051 1_655
Ba1 N0 3.031051 1_545
Ba1 N0 3.031054 1_655
Ba1 N1 3.060167 1_556
Ba1 N2 3.060167 1_556
Ba1 N1 3.060178 1_555
Ba1 N2 3.060178 1_555
Fe0 N3 1.834112 1_555
Fe0 N0 1.834117 1_555
Fe0 N4 1.862730 1_655
Fe0 N5 1.862730 1_545
N0 Tc0 1.833774 1_556
N1 N2 1.291228 1_555
N1 Tc0 1.927895 1_545
N2 Tc0 1.927894 1_655
N3 Tc0 1.833787 1_555
