# generated using pymatgen
data_Ba14Na14MgN6
_symmetry_space_group_name_H-M   'P 1'
_cell_length_a   12.62628650
_cell_length_b   12.62628606
_cell_length_c   12.62628706
_cell_angle_alpha   60.00000009
_cell_angle_beta   60.00000125
_cell_angle_gamma   60.00000124
_symmetry_Int_Tables_number   1
_chemical_formula_structural   Ba14Na14MgN6
_chemical_formula_sum   'Ba14 Na14 Mg1 N6'
_cell_volume   1423.35074766
_cell_formula_units_Z   1
loop_
 _symmetry_equiv_pos_site_id
 _symmetry_equiv_pos_as_xyz
  1  'x, y, z'
loop_
 _atom_site_type_symbol
 _atom_site_label
 _atom_site_symmetry_multiplicity
 _atom_site_fract_x
 _atom_site_fract_y
 _atom_site_fract_z
 _atom_site_occupancy
  Ba  Ba0  1  0.89504947  0.89504947  0.89504947  1
  Ba  Ba1  1  0.68514942  0.10495053  0.10495053  1
  Ba  Ba2  1  0.10495053  0.10495053  0.68514942  1
  Ba  Ba3  1  0.10495053  0.68514942  0.10495053  1
  Ba  Ba4  1  0.89504947  0.89504947  0.31485058  1
  Ba  Ba5  1  0.89504947  0.31485058  0.89504947  1
  Ba  Ba6  1  0.31485058  0.89504947  0.89504947  1
  Ba  Ba7  1  0.10495053  0.10495053  0.10495053  1
  Ba  Ba8  1  0.28378794  0.71621206  0.28378794  1
  Ba  Ba9  1  0.71621206  0.71621206  0.28378794  1
  Ba  Ba10  1  0.28378794  0.28378794  0.71621206  1
  Ba  Ba11  1  0.28378794  0.71621206  0.71621206  1
  Ba  Ba12  1  0.71621206  0.28378794  0.28378794  1
  Ba  Ba13  1  0.71621206  0.28378794  0.71621206  1
  Na  Na0  1  0.67155558  0.67155558  0.67155558  1
  Na  Na1  1  0.01466575  0.32844442  0.32844442  1
  Na  Na2  1  0.32844442  0.32844442  0.01466575  1
  Na  Na3  1  0.32844442  0.01466575  0.32844442  1
  Na  Na4  1  0.67155558  0.67155558  0.98533425  1
  Na  Na5  1  0.67155558  0.98533425  0.67155558  1
  Na  Na6  1  0.98533425  0.67155558  0.67155558  1
  Na  Na7  1  0.32844442  0.32844442  0.32844442  1
  Na  Na8  1  0.50000000  0.00000000  0.00000000  1
  Na  Na9  1  0.00000000  0.50000000  0.50000000  1
  Na  Na10  1  0.00000000  0.50000000  0.00000000  1
  Na  Na11  1  0.50000000  0.00000000  0.50000000  1
  Na  Na12  1  0.50000000  0.50000000  0.00000000  1
  Na  Na13  1  0.00000000  0.00000000  0.50000000  1
  Mg  Mg0  1  0.00000000  0.00000000  0.00000000  1
  N  N0  1  0.14023305  0.85976695  0.14023305  1
  N  N1  1  0.85976695  0.85976695  0.14023305  1
  N  N2  1  0.14023305  0.14023305  0.85976695  1
  N  N3  1  0.14023305  0.85976695  0.85976695  1
  N  N4  1  0.85976695  0.14023305  0.14023305  1
  N  N5  1  0.85976695  0.14023305  0.85976695  1
loop_
_geom_bond_atom_site_label_1
_geom_bond_atom_site_label_2
_geom_bond_distance
_geom_bond_site_symmetry_2
Ba0 N5 2.724124 1_565
Ba0 N3 2.724124 1_655
Ba0 N1 2.724124 1_556
Ba0 Na10 4.114438 1_656
Ba0 Na8 4.114438 1_566
Ba0 Na13 4.114438 1_665
Ba0 Na4 4.330719 1_555
Ba0 Na6 4.330719 1_555
Ba0 Na5 4.330719 1_555
Ba1 N4 2.724112 1_555
Ba1 N1 2.724120 1_545
Ba1 N5 2.724120 1_554
Ba1 Na12 4.114440 1_555
Ba1 Na11 4.114440 1_555
Ba1 Na8 4.114449 1_555
Ba1 Na7 4.330729 1_555
Ba1 Na3 4.330740 1_555
Ba1 Na2 4.330740 1_555
Ba2 N2 2.724112 1_555
Ba2 N3 2.724120 1_545
Ba2 N5 2.724120 1_455
Ba2 Na9 4.114440 1_555
Ba2 Na11 4.114440 1_555
Ba2 Na13 4.114450 1_555
Ba2 Na7 4.330729 1_555
Ba2 Na1 4.330740 1_555
Ba2 Na3 4.330740 1_555
Ba3 N0 2.724112 1_555
Ba3 N1 2.724120 1_455
Ba3 N3 2.724120 1_554
Ba3 Na12 4.114440 1_555
Ba3 Na9 4.114440 1_555
Ba3 Na10 4.114449 1_555
Ba3 Na7 4.330729 1_555
Ba3 Na1 4.330740 1_555
Ba3 Na2 4.330740 1_555
Ba4 N1 2.724112 1_555
Ba4 N4 2.724120 1_565
Ba4 N0 2.724120 1_655
Ba4 Na9 4.114440 1_655
Ba4 Na11 4.114440 1_565
Ba4 Na13 4.114450 1_665
Ba4 Na0 4.330729 1_555
Ba4 Na6 4.330740 1_555
Ba4 Na5 4.330740 1_555
Ba5 N5 2.724112 1_555
Ba5 N2 2.724120 1_655
Ba5 N4 2.724120 1_556
Ba5 Na12 4.114440 1_556
Ba5 Na9 4.114440 1_655
Ba5 Na10 4.114449 1_656
Ba5 Na0 4.330729 1_555
Ba5 Na6 4.330740 1_555
Ba5 Na4 4.330740 1_555
Ba6 N3 2.724112 1_555
Ba6 N2 2.724120 1_565
Ba6 N0 2.724120 1_556
Ba6 Na12 4.114440 1_556
Ba6 Na11 4.114440 1_565
Ba6 Na8 4.114449 1_566
Ba6 Na0 4.330729 1_555
Ba6 Na5 4.330740 1_555
Ba6 Na4 4.330740 1_555
Ba7 N0 2.724124 1_545
Ba7 N4 2.724124 1_455
Ba7 N2 2.724124 1_554
Ba7 Na10 4.114438 1_555
Ba7 Na8 4.114438 1_555
Ba7 Na13 4.114438 1_555
Ba7 Na2 4.330719 1_555
Ba7 Na1 4.330719 1_555
Ba7 Na3 4.330719 1_555
Ba8 N0 2.563354 1_555
Ba8 Na3 4.404982 1_565
Ba8 Na4 4.404990 1_554
Ba8 Na6 4.404990 1_455
Ba8 Na7 4.404994 1_555
Ba9 N1 2.563354 1_555
Ba9 Na4 4.404982 1_554
Ba9 Na1 4.404989 1_655
Ba9 Na3 4.404990 1_565
Ba9 Na0 4.404994 1_555
Ba10 N2 2.563354 1_555
Ba10 Na2 4.404982 1_556
Ba10 Na6 4.404989 1_455
Ba10 Na5 4.404990 1_545
Ba10 Na7 4.404994 1_555
Ba11 N3 2.563354 1_555
Ba11 Na6 4.404982 1_455
Ba11 Na2 4.404989 1_556
Ba11 Na3 4.404990 1_565
Ba11 Na0 4.404994 1_555
Ba12 N4 2.563354 1_555
Ba12 Na1 4.404982 1_655
Ba12 Na4 4.404989 1_554
Ba12 Na5 4.404990 1_545
Ba12 Na7 4.404994 1_555
Ba13 N5 2.563354 1_555
Ba13 Na5 4.404982 1_545
Ba13 Na2 4.404990 1_556
Ba13 Na1 4.404990 1_655
Ba13 Na0 4.404994 1_555
Na0 Na11 3.648030 1_565
Na0 Na9 3.648030 1_655
Na0 Na12 3.648030 1_556
Na0 Na5 3.961859 1_555
Na0 Na6 3.961859 1_555
Na0 Na4 3.961859 1_555
Na1 Na13 3.648026 1_555
Na1 Na10 3.648026 1_555
Na1 Na9 3.648037 1_555
Na1 Na7 3.961859 1_555
Na1 Na3 3.961859 1_555
Na1 Na2 3.961859 1_555
Na2 Na8 3.648026 1_555
Na2 Na3 3.961859 1_555
Na2 Na7 3.961859 1_555
Na3 Na8 3.648026 1_555
Na3 Na7 3.961859 1_555
Na4 Na8 3.648026 1_566
Na4 Na5 3.961859 1_555
Na4 Na6 3.961859 1_555
Na5 Na8 3.648026 1_566
Na5 Na6 3.961859 1_555
Na6 Na9 3.648037 1_655
Na7 Na9 3.648030 1_555
Na10 Na2 3.648026 1_555
Na10 Na4 3.648026 1_454
Na10 Na6 3.648026 1_454
Na11 Na7 3.648030 1_555
Na11 Na5 3.648037 1_545
Na11 Na3 3.648037 1_555
Na12 Na7 3.648030 1_555
Na12 Na4 3.648037 1_554
Na12 Na2 3.648037 1_555
Na13 Na6 3.648026 1_445
Na13 Na3 3.648026 1_555
Na13 Na5 3.648026 1_445
Mg0 N2 2.504039 1_554
Mg0 N1 2.504039 1_445
Mg0 N4 2.504039 1_455
Mg0 N3 2.504039 1_544
Mg0 N0 2.504039 1_545
Mg0 N5 2.504039 1_454
