# generated using pymatgen
data_Ca2CoO3
_symmetry_space_group_name_H-M   'P 1'
_cell_length_a   3.28397930
_cell_length_b   3.28397930
_cell_length_c   11.08547698
_cell_angle_alpha   84.44271662
_cell_angle_beta   84.44271662
_cell_angle_gamma   89.72821710
_symmetry_Int_Tables_number   1
_chemical_formula_structural   Ca2CoO3
_chemical_formula_sum   'Ca2 Co1 O3'
_cell_volume   118.42907926
_cell_formula_units_Z   1
loop_
 _symmetry_equiv_pos_site_id
 _symmetry_equiv_pos_as_xyz
  1  'x, y, z'
loop_
 _atom_site_type_symbol
 _atom_site_label
 _atom_site_symmetry_multiplicity
 _atom_site_fract_x
 _atom_site_fract_y
 _atom_site_fract_z
 _atom_site_occupancy
  Ca  Ca0  1  0.56298800  0.56298800  0.79809000  1
  Ca  Ca1  1  0.43701200  0.43701200  0.20191000  1
  Co  Co0  1  0.00000000  0.00000000  0.00000000  1
  O  O0  1  0.06150100  0.06150100  0.80353300  1
  O  O1  1  0.93849900  0.93849900  0.19646700  1
  O  O2  1  0.50000000  0.50000000  0.00000000  1
loop_
_geom_bond_atom_site_label_1
_geom_bond_atom_site_label_2
_geom_bond_distance
_geom_bond_site_symmetry_2
Ca0 O2 2.217314 1_556
Ca0 O0 2.317381 1_565
Ca0 O0 2.317381 1_655
Ca0 O0 2.327071 1_555
Ca0 O0 2.329714 1_665
Ca1 O2 2.217314 1_555
Ca1 O1 2.317381 1_545
Ca1 O1 2.317381 1_455
Ca1 O1 2.327071 1_555
Ca1 O1 2.329714 1_445
Co0 O1 2.157536 1_445
Co0 O0 2.157536 1_554
Co0 O2 2.316610 1_545
Co0 O2 2.316610 1_455
Co0 O2 2.327625 1_445
Co0 O2 2.327625 1_555
