# generated using pymatgen
data_Na(CoO2)3
_symmetry_space_group_name_H-M   'P 1'
_cell_length_a   4.79378900
_cell_length_b   5.27142027
_cell_length_c   5.36156043
_cell_angle_alpha   63.92902788
_cell_angle_beta   68.41727413
_cell_angle_gamma   64.67015584
_symmetry_Int_Tables_number   1
_chemical_formula_structural   Na(CoO2)3
_chemical_formula_sum   'Na1 Co3 O6'
_cell_volume   107.26894608
_cell_formula_units_Z   1
loop_
 _symmetry_equiv_pos_site_id
 _symmetry_equiv_pos_as_xyz
  1  'x, y, z'
loop_
 _atom_site_type_symbol
 _atom_site_label
 _atom_site_symmetry_multiplicity
 _atom_site_fract_x
 _atom_site_fract_y
 _atom_site_fract_z
 _atom_site_occupancy
  Na  Na0  1  0.43620900  0.16904200  0.19093600  1
  Co  Co0  1  0.12393400  0.93602000  0.00169500  1
  Co  Co1  1  0.72750100  0.46817600  0.31574000  1
  Co  Co2  1  0.02370000  0.68177000  0.64413300  1
  O  O0  1  0.87385100  0.07486900  0.38116200  1
  O  O1  1  0.18758700  0.28240300  0.84883300  1
  O  O2  1  0.66943000  0.57232900  0.64229500  1
  O  O3  1  0.28256700  0.58789600  0.30927100  1
  O  O4  1  0.81621700  0.78822500  0.99173900  1
  O  O5  1  0.35400400  0.79660300  0.65353100  1
loop_
_geom_bond_atom_site_label_1
_geom_bond_atom_site_label_2
_geom_bond_distance
_geom_bond_site_symmetry_2
Na0 O1 2.275378 1_554
Na0 O3 2.305671 1_555
Na0 O4 2.411031 1_544
Na0 O5 2.413342 1_545
Na0 O0 2.434357 1_555
Na0 O0 2.689132 1_455
Na0 O2 2.922304 1_554
Co0 O1 1.753917 1_564
Co0 O3 1.932338 1_555
Co0 O4 1.965628 1_454
Co0 O5 2.058823 1_554
Co0 O0 2.208159 1_465
Co1 O0 1.791920 1_555
Co1 O4 1.881297 1_554
Co1 O2 1.949350 1_555
Co1 O3 1.957610 1_555
Co2 O1 1.855268 1_555
Co2 O3 1.903840 1_555
Co2 O0 1.923876 1_465
Co2 O5 1.944683 1_555
Co2 O4 1.963556 1_455
Co2 O2 2.018113 1_455
O2 O5 1.467548 1_555
