# generated using pymatgen
data_Y5GeRhO12
_symmetry_space_group_name_H-M   'P 1'
_cell_length_a   6.77030098
_cell_length_b   6.77030083
_cell_length_c   7.19635385
_cell_angle_alpha   74.48819076
_cell_angle_beta   74.48819087
_cell_angle_gamma   50.94031633
_symmetry_Int_Tables_number   1
_chemical_formula_structural   Y5GeRhO12
_chemical_formula_sum   'Y5 Ge1 Rh1 O12'
_cell_volume   244.63639830
_cell_formula_units_Z   1
loop_
 _symmetry_equiv_pos_site_id
 _symmetry_equiv_pos_as_xyz
  1  'x, y, z'
loop_
 _atom_site_type_symbol
 _atom_site_label
 _atom_site_symmetry_multiplicity
 _atom_site_fract_x
 _atom_site_fract_y
 _atom_site_fract_z
 _atom_site_occupancy
  Y  Y0  1  0.50069975  0.49930025  0.50000000  1
  Y  Y1  1  0.19032877  0.19418624  0.16879432  1
  Y  Y2  1  0.80581376  0.80967123  0.83120568  1
  Y  Y3  1  0.80905463  0.79771910  0.35967800  1
  Y  Y4  1  0.20228090  0.19094537  0.64032200  1
  Ge  Ge0  1  0.25323751  0.74676249  0.00000000  1
  Rh  Rh0  1  0.74214513  0.25785487  1.00000000  1
  O  O0  1  0.00650782  0.99324033  0.18153344  1
  O  O1  1  0.00675967  0.99349218  0.81846656  1
  O  O2  1  0.49094768  0.50978827  0.82116316  1
  O  O3  1  0.49021173  0.50905232  0.17883684  1
  O  O4  1  0.59933365  0.09764724  0.57355150  1
  O  O5  1  0.90235276  0.40066635  0.42644850  1
  O  O6  1  0.40551309  0.90233205  0.42334572  1
  O  O7  1  0.39914615  0.92198132  0.91995962  1
  O  O8  1  0.07801868  0.60085385  0.08004038  1
  O  O9  1  0.59796700  0.07798565  0.08152410  1
  O  O10  1  0.92201435  0.40203300  0.91847590  1
  O  O11  1  0.09766795  0.59448691  0.57665428  1
loop_
_geom_bond_atom_site_label_1
_geom_bond_atom_site_label_2
_geom_bond_distance
_geom_bond_site_symmetry_2
Ge0 O7 1.876677 1_554
Ge0 O8 1.876677 1_555
Ge0 O2 1.887576 1_554
Ge0 O3 1.887576 1_555
Ge0 O0 1.940996 1_555
Ge0 O1 1.940996 1_554
O0 Rh0 2.019259 1_464
O0 Y1 2.326833 1_565
O0 Y3 2.364035 1_455
O1 Rh0 2.019259 1_465
O1 Y2 2.326833 1_455
O1 Y4 2.364035 1_565
O2 Rh0 1.949033 1_555
O2 Y0 2.313291 1_555
O3 Rh0 1.949033 1_554
O3 Y0 2.313291 1_555
O4 Y4 2.277642 1_555
O4 Y2 2.282841 1_545
O4 Y0 2.291600 1_555
O4 Y3 2.318931 1_545
O5 Y3 2.277642 1_555
O5 Y1 2.282841 1_655
O5 Y0 2.291600 1_555
O5 Y4 2.318931 1_655
O6 Y3 2.289387 1_555
O6 Y4 2.289951 1_565
O6 Y1 2.290407 1_565
O6 Y0 2.309557 1_555
O7 Y2 2.290716 1_555
O7 Y4 2.357518 1_565
O7 Y1 2.393568 1_566
O8 Y1 2.290716 1_555
O8 Y3 2.357518 1_455
O8 Y2 2.393568 1_454
O9 Rh0 1.894626 1_554
O9 Y1 2.287126 1_555
O9 Y2 2.387043 1_544
O9 Y3 2.393884 1_545
O10 Rh0 1.894626 1_555
O10 Y2 2.287126 1_555
O10 Y1 2.387043 1_656
O10 Y4 2.393884 1_655
O11 Y4 2.289387 1_555
O11 Y3 2.289951 1_455
O11 Y2 2.290407 1_455
O11 Y0 2.309557 1_555
