# generated using pymatgen
data_YTiAlPd5
_symmetry_space_group_name_H-M   'P 1'
_cell_length_a   8.00125728
_cell_length_b   8.00125741
_cell_length_c   8.00125643
_cell_angle_alpha   149.75236491
_cell_angle_beta   149.75236826
_cell_angle_gamma   43.30502276
_symmetry_Int_Tables_number   1
_chemical_formula_structural   YTiAlPd5
_chemical_formula_sum   'Y1 Ti1 Al1 Pd5'
_cell_volume   129.63519570
_cell_formula_units_Z   1
loop_
 _symmetry_equiv_pos_site_id
 _symmetry_equiv_pos_as_xyz
  1  'x, y, z'
loop_
 _atom_site_type_symbol
 _atom_site_label
 _atom_site_symmetry_multiplicity
 _atom_site_fract_x
 _atom_site_fract_y
 _atom_site_fract_z
 _atom_site_occupancy
  Y  Y0  1  0.00159674  0.00159674  1.00000000  1
  Ti  Ti0  1  0.74797291  0.74797291  0.00000000  1
  Al  Al0  1  0.25212406  0.25212406  1.00000000  1
  Pd  Pd0  1  0.49780902  0.49780902  0.00000000  1
  Pd  Pd1  1  0.85765425  0.35765425  0.50000000  1
  Pd  Pd2  1  0.35765425  0.85765425  0.50000000  1
  Pd  Pd3  1  0.14259438  0.64259438  0.50000000  1
  Pd  Pd4  1  0.64259438  0.14259438  0.50000000  1
loop_
_geom_bond_atom_site_label_1
_geom_bond_atom_site_label_2
_geom_bond_distance
_geom_bond_site_symmetry_2
Al0 Pd1 2.611814 1_455
Al0 Pd2 2.611814 1_545
Al0 Pd1 2.611814 1_556
Al0 Pd2 2.611815 1_556
Al0 Pd4 2.647989 1_556
Al0 Pd3 2.647989 1_556
Al0 Pd4 2.647990 1_455
Al0 Pd3 2.647990 1_545
Pd0 Y0 2.952813 1_553
Pd0 Y0 2.952813 1_665
Pd0 Y0 2.952814 1_654
Pd0 Y0 2.952814 1_564
Pd1 Ti0 2.649378 1_556
Pd1 Ti0 2.649378 1_545
Pd1 Y0 2.990226 1_654
Pd1 Y0 2.990227 1_665
Pd2 Ti0 2.649378 1_556
Pd2 Ti0 2.649378 1_455
Pd2 Y0 2.990226 1_564
Pd2 Y0 2.990227 1_665
Pd3 Ti0 2.610459 1_455
Pd3 Ti0 2.610460 1_556
Pd3 Y0 2.959025 1_565
Pd3 Y0 2.959026 1_554
Pd4 Ti0 2.610459 1_545
Pd4 Ti0 2.610460 1_556
Pd4 Y0 2.959025 1_655
Pd4 Y0 2.959025 1_554
