# generated using pymatgen
data_P(Pt4Pb)2
_symmetry_space_group_name_H-M   'P 1'
_cell_length_a   9.08680067
_cell_length_b   9.08679968
_cell_length_c   4.25258553
_cell_angle_alpha   90.00000000
_cell_angle_beta   90.00000000
_cell_angle_gamma   144.66709257
_symmetry_Int_Tables_number   1
_chemical_formula_structural   P(Pt4Pb)2
_chemical_formula_sum   'P1 Pt8 Pb2'
_cell_volume   203.07101249
_cell_formula_units_Z   1
loop_
 _symmetry_equiv_pos_site_id
 _symmetry_equiv_pos_as_xyz
  1  'x, y, z'
loop_
 _atom_site_type_symbol
 _atom_site_label
 _atom_site_symmetry_multiplicity
 _atom_site_fract_x
 _atom_site_fract_y
 _atom_site_fract_z
 _atom_site_occupancy
  P  P0  1  0.19725262  0.19725262  0.00000000  1
  Pt  Pt0  1  0.08690543  0.86982650  0.00000000  1
  Pt  Pt1  1  0.86982650  0.08690543  0.00000000  1
  Pt  Pt2  1  0.50095169  0.00783985  0.00000000  1
  Pt  Pt3  1  0.00783985  0.50095169  0.00000000  1
  Pt  Pt4  1  0.20508696  0.80721283  0.50000000  1
  Pt  Pt5  1  0.80721283  0.20508696  0.50000000  1
  Pt  Pt6  1  0.98873911  0.98873911  0.50000000  1
  Pt  Pt7  1  0.59971099  0.59971099  0.00000000  1
  Pb  Pb0  1  0.65062116  0.39945287  0.50000000  1
  Pb  Pb1  1  0.39945287  0.65062116  0.50000000  1
loop_
_geom_bond_atom_site_label_1
_geom_bond_atom_site_label_2
_geom_bond_distance
_geom_bond_site_symmetry_2
P0 Pt7 2.219654 1_555
P0 Pt0 2.233826 1_545
P0 Pt1 2.233826 1_455
P0 Pt6 2.417359 1_444
P0 Pt6 2.417359 1_445
Pt0 Pt4 2.644805 1_554
Pt0 Pt4 2.644805 1_555
Pt0 Pt3 2.796809 1_555
Pt0 Pt2 2.833645 1_565
Pt1 Pt5 2.644805 1_554
Pt1 Pt5 2.644805 1_555
Pt1 Pt2 2.796810 1_555
Pt1 Pt3 2.833644 1_655
Pt2 Pt4 2.660001 1_545
Pt2 Pt4 2.660001 1_544
Pt2 Pt5 2.709225 1_554
Pt2 Pt5 2.709225 1_555
Pt2 Pt3 2.760197 1_545
Pt2 Pt3 2.760197 1_655
Pt3 Pt5 2.660001 1_455
Pt3 Pt5 2.660001 1_454
Pt3 Pt4 2.709225 1_554
Pt3 Pt4 2.709225 1_555
Pb0 Pt4 2.941812 1_655
Pb0 Pt5 3.040467 1_555
Pb0 Pt7 3.069197 1_555
Pb0 Pt7 3.069197 1_556
Pb0 Pt4 3.131017 1_545
Pb0 Pt0 3.295348 1_656
Pb0 Pt0 3.295348 1_655
Pb0 Pt3 3.320159 1_655
Pb0 Pt3 3.320159 1_656
Pb0 Pt2 3.337268 1_555
Pb0 Pt2 3.337268 1_556
Pb0 Pt6 3.357033 1_555
Pb1 Pt5 2.941812 1_565
Pb1 Pt4 3.040467 1_555
Pb1 Pt7 3.069197 1_556
Pb1 Pt7 3.069197 1_555
Pb1 Pt5 3.131018 1_455
Pb1 Pt1 3.295349 1_565
Pb1 Pt1 3.295349 1_566
Pb1 Pt2 3.320159 1_566
Pb1 Pt2 3.320159 1_565
Pb1 Pt3 3.337268 1_556
Pb1 Pt3 3.337268 1_555
Pb1 Pt6 3.357033 1_555
