# generated using pymatgen
data_ScBeB14
_symmetry_space_group_name_H-M   'P 1'
_cell_length_a   7.12424128
_cell_length_b   7.12424056
_cell_length_c   7.12424108
_cell_angle_alpha   132.40439323
_cell_angle_beta   110.69644093
_cell_angle_gamma   88.40835547
_symmetry_Int_Tables_number   1
_chemical_formula_structural   ScBeB14
_chemical_formula_sum   'Sc2 Be2 B28'
_cell_volume   237.88210477
_cell_formula_units_Z   2
loop_
 _symmetry_equiv_pos_site_id
 _symmetry_equiv_pos_as_xyz
  1  'x, y, z'
loop_
 _atom_site_type_symbol
 _atom_site_label
 _atom_site_symmetry_multiplicity
 _atom_site_fract_x
 _atom_site_fract_y
 _atom_site_fract_z
 _atom_site_occupancy
  Sc  Sc0  1  0.10461498  0.75000000  0.35461498  1
  Sc  Sc1  1  0.89538502  0.25000000  0.64538502  1
  Be  Be0  1  0.50000000  0.50000000  0.50000000  1
  Be  Be1  1  0.50000000  0.00000000  0.00000000  1
  B  B0  1  0.13291764  0.16679276  0.96612388  1
  B  B1  1  0.86708236  0.83320724  0.03387612  1
  B  B2  1  0.70066988  0.66679276  0.03387612  1
  B  B3  1  0.29933012  0.33320724  0.96612388  1
  B  B4  1  0.28661948  0.65708573  0.62953475  1
  B  B5  1  0.71338052  0.34291427  0.37046525  1
  B  B6  1  0.52755097  0.15708573  0.37046525  1
  B  B7  1  0.47244903  0.84291427  0.62953475  1
  B  B8  1  0.42216943  0.59183058  0.83033886  1
  B  B9  1  0.57783057  0.40816942  0.16966114  1
  B  B10  1  0.26149072  0.09183058  0.16966114  1
  B  B11  1  0.73850928  0.90816942  0.83033886  1
  B  B12  1  0.89889307  0.89925757  0.67636641  1
  B  B13  1  0.10110693  0.77747234  0.00036450  1
  B  B14  1  0.72289216  0.39925757  0.00036450  1
  B  B15  1  0.27710784  0.27747234  0.67636641  1
  B  B16  1  0.10110693  0.10074243  0.32363359  1
  B  B17  1  0.89889307  0.22252766  0.99963550  1
  B  B18  1  0.27710784  0.60074243  0.99963550  1
  B  B19  1  0.72289216  0.72252766  0.32363359  1
  B  B20  1  0.53526503  0.32955823  0.70082571  1
  B  B21  1  0.46473497  0.16556167  0.79429420  1
  B  B22  1  0.12873353  0.82955823  0.79429420  1
  B  B23  1  0.87126647  0.66556167  0.70082571  1
  B  B24  1  0.46473497  0.67044177  0.29917429  1
  B  B25  1  0.53526503  0.83443833  0.20570580  1
  B  B26  1  0.87126647  0.17044177  0.20570580  1
  B  B27  1  0.12873353  0.33443833  0.29917429  1
loop_
_geom_bond_atom_site_label_1
_geom_bond_atom_site_label_2
_geom_bond_distance
_geom_bond_site_symmetry_2
B0 B3 1.699774 1_555
B0 B12 1.763827 1_445
B0 B17 1.763830 1_455
B0 B22 1.811943 1_545
B0 B27 1.811943 1_556
B0 B10 1.818052 1_556
B0 Sc1 2.733929 1_455
B1 B2 1.699774 1_555
B1 B16 1.763827 1_665
B1 B13 1.763830 1_655
B1 B26 1.811943 1_565
B1 B23 1.811943 1_554
B1 B11 1.818052 1_554
B1 Sc0 2.733929 1_655
B2 B25 1.811943 1_555
B2 B20 1.811943 1_554
B2 B8 1.818061 1_554
B2 Sc0 2.733921 1_655
B3 B9 1.818061 1_556
B3 Sc1 2.733921 1_455
B4 B8 1.758065 1_555
B4 B7 1.898088 1_555
B4 Be1 1.979684 1_566
B4 Be0 1.979688 1_555
B4 Sc0 2.421028 1_555
B5 B9 1.758065 1_555
B5 B6 1.898088 1_555
B5 Be1 1.979684 1_555
B5 Be0 1.979688 1_555
B5 Sc1 2.421028 1_555
B6 Be0 1.979681 1_555
B6 Be1 1.979682 1_555
B6 Sc1 2.421030 1_555
B7 Be0 1.979681 1_555
B7 Be1 1.979682 1_566
B7 Sc0 2.421030 1_555
B8 Be1 2.258244 1_566
B8 Be0 2.258244 1_555
B9 Be1 2.258244 1_555
B9 Be0 2.258244 1_555
B10 B6 1.758069 1_555
B10 B27 1.763054 1_555
B10 B22 1.763064 1_544
B10 B16 1.816819 1_555
B10 B13 1.816828 1_545
B10 Be0 2.258248 1_555
B10 Be1 2.258251 1_555
B11 B7 1.758069 1_555
B11 B23 1.763054 1_555
B11 B26 1.763064 1_566
B11 B12 1.816819 1_555
B11 B17 1.816828 1_565
B11 Be0 2.258248 1_555
B11 Be1 2.258251 1_566
B12 B19 1.750883 1_555
B12 B22 1.782898 1_655
B12 B23 1.809625 1_555
B12 B17 1.858609 1_565
B12 Sc1 2.651357 1_565
B12 Sc0 2.744758 1_655
B13 B18 1.750873 1_554
B13 B23 1.782899 1_454
B13 B22 1.809632 1_554
B13 B16 1.858609 1_565
B13 Sc0 2.651352 1_555
B13 Sc1 2.744753 1_454
B14 B17 1.750873 1_554
B14 B2 1.763823 1_555
B14 B20 1.782893 1_554
B14 B21 1.809635 1_554
B14 B9 1.816831 1_555
B14 B19 1.858609 1_555
B14 Sc0 2.651353 1_655
B14 Sc1 2.744753 1_554
B15 B16 1.750883 1_555
B15 B3 1.763819 1_555
B15 B21 1.782887 1_555
B15 B20 1.809640 1_555
B15 B8 1.816834 1_555
B15 B18 1.858609 1_555
B15 Sc1 2.651350 1_455
B15 Sc0 2.744751 1_545
B16 B26 1.782898 1_455
B16 B27 1.809625 1_555
B16 Sc0 2.651357 1_545
B16 Sc1 2.744758 1_455
B17 B27 1.782899 1_656
B17 B26 1.809632 1_556
B17 Sc1 2.651352 1_555
B17 Sc0 2.744753 1_656
B18 B3 1.763823 1_555
B18 B24 1.782893 1_556
B18 B25 1.809635 1_556
B18 B8 1.816831 1_555
B18 Sc1 2.651353 1_455
B18 Sc0 2.744753 1_556
B19 B2 1.763819 1_555
B19 B25 1.782887 1_555
B19 B24 1.809640 1_555
B19 B9 1.816834 1_555
B19 Sc0 2.651350 1_655
B19 Sc1 2.744751 1_565
B20 B6 1.750441 1_555
B20 B8 1.763068 1_555
B20 B21 1.838300 1_555
B20 Be0 2.378372 1_555
B20 Sc1 2.719009 1_555
B21 B7 1.750446 1_545
B21 B9 1.763064 1_556
B21 B3 1.811943 1_555
B21 Be1 2.378372 1_556
B21 Sc0 2.719012 1_545
B22 B4 1.750432 1_555
B22 B23 1.838307 1_455
B22 Be1 2.378367 1_566
B22 Sc0 2.719014 1_555
B23 B5 1.750441 1_555
B23 Be0 2.378367 1_555
B23 Sc1 2.719017 1_555
B24 B7 1.750441 1_555
B24 B9 1.763068 1_555
B24 B3 1.811943 1_554
B24 B25 1.838300 1_555
B24 Be0 2.378372 1_555
B24 Sc0 2.719009 1_555
B25 B6 1.750446 1_565
B25 B8 1.763064 1_554
B25 Be1 2.378372 1_565
B25 Sc1 2.719012 1_565
B26 B5 1.750432 1_555
B26 B27 1.838307 1_655
B26 Be1 2.378367 1_555
B26 Sc1 2.719014 1_555
B27 B4 1.750441 1_555
B27 Be0 2.378367 1_555
B27 Sc0 2.719017 1_555
