# generated using pymatgen
data_SrTa2HgO7
_symmetry_space_group_name_H-M   'P 1'
_cell_length_a   7.60974005
_cell_length_b   7.47933504
_cell_length_c   7.47933504
_cell_angle_alpha   58.99477860
_cell_angle_beta   59.42154176
_cell_angle_gamma   59.42154023
_symmetry_Int_Tables_number   1
_chemical_formula_structural   SrTa2HgO7
_chemical_formula_sum   'Sr2 Ta4 Hg2 O14'
_cell_volume   296.05835893
_cell_formula_units_Z   2
loop_
 _symmetry_equiv_pos_site_id
 _symmetry_equiv_pos_as_xyz
  1  'x, y, z'
loop_
 _atom_site_type_symbol
 _atom_site_label
 _atom_site_symmetry_multiplicity
 _atom_site_fract_x
 _atom_site_fract_y
 _atom_site_fract_z
 _atom_site_occupancy
  Sr  Sr0  1  0.62500000  0.62500000  0.62500000  1
  Sr  Sr1  1  0.12500000  0.62500000  0.62500000  1
  Ta  Ta0  1  0.12500000  0.62500000  0.12500000  1
  Ta  Ta1  1  0.12500000  0.12500000  0.62500000  1
  Ta  Ta2  1  0.62500000  0.12500000  0.12500000  1
  Ta  Ta3  1  0.12500000  0.12500000  0.12500000  1
  Hg  Hg0  1  0.62500000  0.12500000  0.62500000  1
  Hg  Hg1  1  0.62500000  0.62500000  0.12500000  1
  O  O0  1  0.72443052  0.77556948  0.77556948  1
  O  O1  1  0.19430279  0.80569721  0.80569721  1
  O  O2  1  0.18162531  0.81001269  0.19407483  1
  O  O3  1  0.81428817  0.81001269  0.19407483  1
  O  O4  1  0.81428817  0.19407483  0.81001269  1
  O  O5  1  0.18162531  0.19407483  0.81001269  1
  O  O6  1  0.43247837  0.06752163  0.06752163  1
  O  O7  1  0.81752163  0.18247837  0.18247837  1
  O  O8  1  0.06837469  0.43998731  0.05592517  1
  O  O9  1  0.06837469  0.05592517  0.43998731  1
  O  O10  1  0.43571183  0.43998731  0.05592517  1
  O  O11  1  0.43571183  0.05592517  0.43998731  1
  O  O12  1  0.05569721  0.44430279  0.44430279  1
  O  O13  1  0.52556948  0.47443052  0.47443052  1
loop_
_geom_bond_atom_site_label_1
_geom_bond_atom_site_label_2
_geom_bond_distance
_geom_bond_site_symmetry_2
Hg0 O0 2.119893 1_545
Hg0 O13 2.119893 1_555
Hg1 O13 2.119893 1_555
Hg1 O0 2.119893 1_554
O0 Sr1 2.479811 1_655
O0 Sr0 2.479811 1_555
O1 Ta1 1.981565 1_565
O1 Ta0 1.981565 1_556
O1 Sr0 2.695052 1_555
O1 Sr1 2.695053 1_555
O2 Ta0 1.984213 1_555
O2 Ta3 1.985582 1_565
O2 Sr1 2.662200 1_555
O3 Ta0 1.984207 1_655
O3 Ta2 1.985584 1_565
O3 Sr0 2.662201 1_555
O4 Ta1 1.984207 1_655
O4 Ta2 1.985584 1_556
O4 Sr0 2.662201 1_555
O5 Ta1 1.984213 1_555
O5 Ta3 1.985582 1_556
O5 Sr1 2.662200 1_555
O6 Ta3 1.996991 1_555
O6 Ta2 1.996991 1_555
O7 Ta3 1.996991 1_655
O7 Ta2 1.996991 1_555
O8 Ta0 1.984213 1_555
O8 Ta3 1.985582 1_555
O8 Sr1 2.662200 1_554
O9 Ta1 1.984213 1_555
O9 Ta3 1.985582 1_555
O9 Sr1 2.662200 1_545
O10 Ta0 1.984207 1_555
O10 Ta2 1.985584 1_555
O10 Sr0 2.662201 1_554
O11 Ta1 1.984207 1_555
O11 Ta2 1.985584 1_555
O11 Sr0 2.662201 1_545
O12 Ta1 1.981565 1_555
O12 Ta0 1.981565 1_555
O12 Sr0 2.695052 1_455
O12 Sr1 2.695053 1_555
O13 Sr1 2.479811 1_555
O13 Sr0 2.479811 1_555
