# generated using pymatgen
data_Ba4Sn3HgAu4
_symmetry_space_group_name_H-M   'P 1'
_cell_length_a   6.51788798
_cell_length_b   6.51788745
_cell_length_c   12.03642697
_cell_angle_alpha   88.90263608
_cell_angle_beta   88.90263598
_cell_angle_gamma   44.67333997
_symmetry_Int_Tables_number   1
_chemical_formula_structural   Ba4Sn3HgAu4
_chemical_formula_sum   'Ba4 Sn3 Hg1 Au4'
_cell_volume   359.42891773
_cell_formula_units_Z   1
loop_
 _symmetry_equiv_pos_site_id
 _symmetry_equiv_pos_as_xyz
  1  'x, y, z'
loop_
 _atom_site_type_symbol
 _atom_site_label
 _atom_site_symmetry_multiplicity
 _atom_site_fract_x
 _atom_site_fract_y
 _atom_site_fract_z
 _atom_site_occupancy
  Ba  Ba0  1  0.68668646  0.68668646  0.68761704  1
  Ba  Ba1  1  0.18136508  0.18136508  0.17556623  1
  Ba  Ba2  1  0.40793493  0.40793493  0.90524502  1
  Ba  Ba3  1  0.88517534  0.88517534  0.39486590  1
  Sn  Sn0  1  0.16691596  0.16691596  0.48615451  1
  Sn  Sn1  1  0.98211534  0.98211534  0.66835951  1
  Sn  Sn2  1  0.48004490  0.48004490  0.18747544  1
  Hg  Hg0  1  0.69262633  0.69262633  0.97909690  1
  Au  Au0  1  0.38165400  0.38165400  0.60834017  1
  Au  Au1  1  0.89458012  0.89458012  0.11658655  1
  Au  Au2  1  0.11180894  0.11180894  0.87432757  1
  Au  Au3  1  0.60149361  0.60149361  0.38876616  1
loop_
_geom_bond_atom_site_label_1
_geom_bond_atom_site_label_2
_geom_bond_distance
_geom_bond_site_symmetry_2
Ba0 Sn0 3.478065 1_655
Ba0 Sn0 3.478065 1_565
Ba0 Sn1 3.506828 1_545
Ba0 Sn1 3.506828 1_455
Ba0 Hg0 3.510589 1_555
Ba0 Sn1 3.564921 1_555
Ba1 Hg0 3.425412 1_454
Ba1 Hg0 3.425412 1_544
Ba1 Sn2 3.469111 1_545
Ba1 Sn2 3.469112 1_455
Ba1 Sn2 3.607195 1_555
Ba1 Sn0 3.738826 1_555
Ba2 Sn2 3.523950 1_556
Ba2 Hg0 3.563710 1_555
Ba2 Hg0 3.683817 1_545
Ba2 Hg0 3.683818 1_455
Ba2 Sn1 3.867836 1_455
Ba2 Sn1 3.867836 1_545
Ba3 Sn1 3.515978 1_555
Ba3 Sn0 3.591993 1_665
Ba3 Sn2 3.682060 1_565
Ba3 Sn2 3.682061 1_655
Ba3 Sn0 3.761582 1_655
Ba3 Sn0 3.761583 1_565
Sn0 Sn1 3.093940 1_445
Au0 Sn1 2.856838 1_455
Au0 Sn1 2.856838 1_545
Au0 Sn0 3.004120 1_555
Au0 Ba0 3.532734 1_545
Au0 Ba0 3.532735 1_455
Au0 Ba3 3.568687 1_545
Au0 Ba3 3.568687 1_455
Au0 Ba2 3.594225 1_555
Au0 Ba0 3.818817 1_555
Au1 Sn2 2.821784 1_565
Au1 Sn2 2.821785 1_655
Au1 Hg0 2.972403 1_554
Au1 Ba3 3.349061 1_555
Au1 Ba1 3.544442 1_665
Au1 Ba2 3.551894 1_564
Au1 Ba2 3.551894 1_654
Au1 Ba1 3.629581 1_655
Au1 Ba1 3.629582 1_565
Au2 Hg0 2.954116 1_455
Au2 Hg0 2.954116 1_545
Au2 Sn1 2.958386 1_445
Au2 Ba0 3.452199 1_455
Au2 Ba0 3.452199 1_545
Au2 Ba2 3.504232 1_545
Au2 Ba2 3.504233 1_455
Au2 Ba2 3.597581 1_555
Au2 Ba1 3.738450 1_556
Au3 Sn2 2.856818 1_555
Au3 Sn0 2.858446 1_565
Au3 Sn0 2.858446 1_655
Au3 Ba3 3.422845 1_555
Au3 Ba3 3.596766 1_545
Au3 Ba3 3.596767 1_455
Au3 Ba1 3.680548 1_565
Au3 Ba1 3.680549 1_655
Au3 Ba0 3.761291 1_555
