# generated using pymatgen
data_Zr6Zn17PPt6
_symmetry_space_group_name_H-M   'P 1'
_cell_length_a   8.73299674
_cell_length_b   8.73299683
_cell_length_c   8.73299767
_cell_angle_alpha   60.00000416
_cell_angle_beta   60.00000380
_cell_angle_gamma   60.00000289
_symmetry_Int_Tables_number   1
_chemical_formula_structural   Zr6Zn17PPt6
_chemical_formula_sum   'Zr6 Zn17 P1 Pt6'
_cell_volume   470.95019672
_cell_formula_units_Z   1
loop_
 _symmetry_equiv_pos_site_id
 _symmetry_equiv_pos_as_xyz
  1  'x, y, z'
loop_
 _atom_site_type_symbol
 _atom_site_label
 _atom_site_symmetry_multiplicity
 _atom_site_fract_x
 _atom_site_fract_y
 _atom_site_fract_z
 _atom_site_occupancy
  Zr  Zr0  1  0.70777143  0.29222857  0.29222857  1
  Zr  Zr1  1  0.29222857  0.70777143  0.70777143  1
  Zr  Zr2  1  0.29222857  0.70777143  0.29222857  1
  Zr  Zr3  1  0.70777143  0.29222857  0.70777143  1
  Zr  Zr4  1  0.29222857  0.29222857  0.70777143  1
  Zr  Zr5  1  0.70777143  0.70777143  0.29222857  1
  Zn  Zn0  1  0.12253862  0.12253862  0.12253862  1
  Zn  Zn1  1  0.87746138  0.87746138  0.87746138  1
  Zn  Zn2  1  0.12253862  0.12253862  0.63238515  1
  Zn  Zn3  1  0.12253862  0.63238515  0.12253862  1
  Zn  Zn4  1  0.87746138  0.87746138  0.36761485  1
  Zn  Zn5  1  0.87746138  0.36761485  0.87746138  1
  Zn  Zn6  1  0.63238515  0.12253862  0.12253862  1
  Zn  Zn7  1  0.36761485  0.87746138  0.87746138  1
  Zn  Zn8  1  0.33750893  0.33750893  0.33750893  1
  Zn  Zn9  1  0.66249107  0.66249107  0.66249107  1
  Zn  Zn10  1  0.33750893  0.33750893  0.98747520  1
  Zn  Zn11  1  0.33750893  0.98747520  0.33750893  1
  Zn  Zn12  1  0.66249107  0.66249107  0.01252480  1
  Zn  Zn13  1  0.66249107  0.01252480  0.66249107  1
  Zn  Zn14  1  0.98747520  0.33750893  0.33750893  1
  Zn  Zn15  1  0.01252480  0.66249107  0.66249107  1
  Zn  Zn16  1  0.00000000  0.00000000  0.00000000  1
  P  P0  1  0.50000000  0.50000000  0.50000000  1
  Pt  Pt0  1  0.50000000  0.00000000  0.00000000  1
  Pt  Pt1  1  0.00000000  0.50000000  0.50000000  1
  Pt  Pt2  1  0.00000000  0.50000000  0.00000000  1
  Pt  Pt3  1  0.50000000  0.00000000  0.50000000  1
  Pt  Pt4  1  0.00000000  0.00000000  0.50000000  1
  Pt  Pt5  1  0.50000000  0.50000000  0.00000000  1
loop_
_geom_bond_atom_site_label_1
_geom_bond_atom_site_label_2
_geom_bond_distance
_geom_bond_site_symmetry_2
Zn0 Zn16 2.621271 1_555
Zn1 Zn16 2.621271 1_666
Zn16 Zn7 2.621264 1_544
Zn16 Zn6 2.621264 1_455
Zn16 Zn5 2.621264 1_454
Zn16 Zn3 2.621264 1_545
Zn16 Zn4 2.621264 1_445
Zn16 Zn2 2.621264 1_554
P0 Zr5 2.566044 1_555
P0 Zr4 2.566044 1_555
P0 Zr1 2.566044 1_555
P0 Zr3 2.566044 1_555
P0 Zr0 2.566044 1_555
P0 Zr2 2.566044 1_555
Pt0 Zn10 2.522586 1_554
Pt0 Zn12 2.522586 1_545
Pt0 Zn11 2.522586 1_545
Pt0 Zn13 2.522586 1_554
Pt0 Zn1 2.691932 1_544
Pt0 Zn0 2.691932 1_555
Pt0 Zn6 2.691939 1_555
Pt0 Zn7 2.691939 1_544
Pt0 Zr3 3.131318 1_554
Pt0 Zr2 3.131318 1_545
Pt0 Zr5 3.131319 1_545
Pt0 Zr4 3.131319 1_554
Pt1 Zn15 2.522570 1_555
Pt1 Zn14 2.522570 1_455
Pt1 Zn8 2.522581 1_555
Pt1 Zn9 2.522581 1_455
Pt1 Zn4 2.691932 1_455
Pt1 Zn2 2.691932 1_555
Pt1 Zn5 2.691932 1_455
Pt1 Zn3 2.691932 1_555
Pt1 Zr2 3.131318 1_555
Pt1 Zr3 3.131318 1_455
Pt1 Zr4 3.131318 1_555
Pt1 Zr5 3.131318 1_455
Pt2 Zn10 2.522586 1_554
Pt2 Zn12 2.522586 1_455
Pt2 Zn14 2.522586 1_455
Pt2 Zn15 2.522586 1_554
Pt2 Zn1 2.691932 1_454
Pt2 Zn0 2.691932 1_555
Pt2 Zn3 2.691939 1_555
Pt2 Zn5 2.691939 1_454
Pt2 Zr1 3.131318 1_554
Pt2 Zr0 3.131318 1_455
Pt2 Zr5 3.131319 1_455
Pt2 Zr4 3.131319 1_554
Pt3 Zn13 2.522570 1_555
Pt3 Zn11 2.522570 1_545
Pt3 Zn8 2.522581 1_555
Pt3 Zn9 2.522581 1_545
Pt3 Zn4 2.691932 1_545
Pt3 Zn2 2.691932 1_555
Pt3 Zn7 2.691932 1_545
Pt3 Zn6 2.691932 1_555
Pt3 Zr0 3.131318 1_555
Pt3 Zr1 3.131318 1_545
Pt3 Zr4 3.131318 1_555
Pt3 Zr5 3.131318 1_545
Pt4 Zn11 2.522586 1_545
Pt4 Zn13 2.522586 1_455
Pt4 Zn14 2.522586 1_455
Pt4 Zn15 2.522586 1_545
Pt4 Zn1 2.691932 1_445
Pt4 Zn0 2.691932 1_555
Pt4 Zn2 2.691939 1_555
Pt4 Zn4 2.691939 1_445
Pt4 Zr3 3.131319 1_455
Pt4 Zr1 3.131319 1_545
Pt4 Zr2 3.131319 1_545
Pt4 Zr0 3.131319 1_455
Pt5 Zn12 2.522570 1_555
Pt5 Zn10 2.522570 1_554
Pt5 Zn8 2.522581 1_555
Pt5 Zn9 2.522581 1_554
Pt5 Zn5 2.691932 1_554
Pt5 Zn3 2.691932 1_555
Pt5 Zn7 2.691932 1_554
Pt5 Zn6 2.691932 1_555
Pt5 Zr2 3.131319 1_555
Pt5 Zr0 3.131319 1_555
Pt5 Zr3 3.131319 1_554
Pt5 Zr1 3.131319 1_554
