# generated using pymatgen
data_SrAs12Os3Pt
_symmetry_space_group_name_H-M   'P 1'
_cell_length_a   7.44232226
_cell_length_b   7.44232384
_cell_length_c   7.44232313
_cell_angle_alpha   109.42517016
_cell_angle_beta   109.42517760
_cell_angle_gamma   109.42518055
_symmetry_Int_Tables_number   1
_chemical_formula_structural   SrAs12Os3Pt
_chemical_formula_sum   'Sr1 As12 Os3 Pt1'
_cell_volume   317.86435463
_cell_formula_units_Z   1
loop_
 _symmetry_equiv_pos_site_id
 _symmetry_equiv_pos_as_xyz
  1  'x, y, z'
loop_
 _atom_site_type_symbol
 _atom_site_label
 _atom_site_symmetry_multiplicity
 _atom_site_fract_x
 _atom_site_fract_y
 _atom_site_fract_z
 _atom_site_occupancy
  Sr  Sr0  1  0.00000000  0.00000000  0.00000000  1
  As  As0  1  0.34683577  0.19763233  0.84988186  1
  As  As1  1  0.65316423  0.80236767  0.15011814  1
  As  As2  1  0.65254137  0.50195611  0.85851285  1
  As  As3  1  0.34745863  0.49804389  0.14148715  1
  As  As4  1  0.19763233  0.84988186  0.34683577  1
  As  As5  1  0.80236767  0.15011814  0.65316423  1
  As  As6  1  0.50195611  0.85851285  0.65254137  1
  As  As7  1  0.49804389  0.14148715  0.34745863  1
  As  As8  1  0.84988186  0.34683577  0.19763233  1
  As  As9  1  0.15011814  0.65316423  0.80236767  1
  As  As10  1  0.85851285  0.65254137  0.50195611  1
  As  As11  1  0.14148715  0.34745863  0.49804389  1
  Os  Os0  1  0.00000000  0.00000000  0.50000000  1
  Os  Os1  1  0.50000000  0.00000000  0.00000000  1
  Os  Os2  1  0.00000000  0.50000000  0.00000000  1
  Pt  Pt0  1  0.50000000  0.50000000  0.50000000  1
loop_
_geom_bond_atom_site_label_1
_geom_bond_atom_site_label_2
_geom_bond_distance
_geom_bond_site_symmetry_2
As0 Os0 2.462346 1_555
As0 Os1 2.464159 1_556
As0 As3 2.543137 1_556
As0 As2 2.586246 1_555
As0 Sr0 3.249675 1_556
As1 Os0 2.462346 1_665
As1 Os1 2.464159 1_565
As1 As2 2.543137 1_554
As1 As3 2.586246 1_555
As1 Sr0 3.249675 1_665
As2 Os2 2.453559 1_656
As2 Pt0 2.521217 1_555
As2 Sr0 3.279010 1_666
As3 Os2 2.453559 1_555
As3 Pt0 2.521217 1_555
As3 Sr0 3.279010 1_555
As4 Os2 2.462347 1_555
As4 Os0 2.464159 1_565
As4 As7 2.543136 1_565
As4 As6 2.586246 1_555
As4 Sr0 3.249675 1_565
As5 Os2 2.462347 1_656
As5 Os0 2.464159 1_655
As5 As6 2.543136 1_545
As5 As7 2.586246 1_555
As5 Sr0 3.249675 1_656
As6 Os1 2.453560 1_566
As6 Pt0 2.521217 1_555
As6 Sr0 3.279009 1_666
As7 Os1 2.453560 1_555
As7 Pt0 2.521217 1_555
As7 Sr0 3.279009 1_555
As8 Os1 2.462346 1_555
As8 Os2 2.464159 1_655
As8 Sr0 3.249675 1_655
As9 Os1 2.462346 1_566
As9 Os2 2.464159 1_556
As9 Sr0 3.249675 1_566
As10 Os0 2.453560 1_665
As10 Pt0 2.521217 1_555
As10 As9 2.543136 1_655
As10 As8 2.586247 1_555
As10 Sr0 3.279010 1_666
As11 Os0 2.453560 1_555
As11 Pt0 2.521217 1_555
As11 As8 2.543136 1_455
As11 As9 2.586247 1_555
As11 Sr0 3.279010 1_555
