# generated using pymatgen
data_Cs4MgCd5Se8
_symmetry_space_group_name_H-M   'P 1'
_cell_length_a   10.21230845
_cell_length_b   10.18192763
_cell_length_c   10.21129562
_cell_angle_alpha   143.23471016
_cell_angle_beta   105.35322797
_cell_angle_gamma   86.34374456
_symmetry_Int_Tables_number   1
_chemical_formula_structural   Cs4MgCd5Se8
_chemical_formula_sum   'Cs4 Mg1 Cd5 Se8'
_cell_volume   592.25179512
_cell_formula_units_Z   1
loop_
 _symmetry_equiv_pos_site_id
 _symmetry_equiv_pos_as_xyz
  1  'x, y, z'
loop_
 _atom_site_type_symbol
 _atom_site_label
 _atom_site_symmetry_multiplicity
 _atom_site_fract_x
 _atom_site_fract_y
 _atom_site_fract_z
 _atom_site_occupancy
  Cs  Cs0  1  0.11907357  0.23031508  0.35167401  1
  Cs  Cs1  1  0.38001529  0.73782748  0.11948000  1
  Cs  Cs2  1  0.62134506  0.26973947  0.88877572  1
  Cs  Cs3  1  0.88164270  0.76219244  0.64220771  1
  Mg  Mg0  1  0.52162638  0.74995482  0.77159798  1
  Cd  Cd0  1  0.97011162  0.74999249  0.22011014  1
  Cd  Cd1  1  0.47333976  0.24995087  0.22333060  1
  Cd  Cd2  1  0.74755785  0.25004940  0.49759539  1
  Cd  Cd3  1  0.25055461  0.75000627  0.50055312  1
  Cd  Cd4  1  0.02819175  0.24998072  0.77813574  1
  Se  Se0  1  0.22290200  0.07611740  0.58793699  1
  Se  Se1  1  0.28346602  0.85751537  0.84993307  1
  Se  Se2  1  0.01179788  0.42385917  0.14677797  1
  Se  Se3  1  0.49236424  0.64252338  0.42590876  1
  Se  Se4  1  0.77670826  0.92437256  0.41291951  1
  Se  Se5  1  0.71743292  0.12141316  0.13472389  1
  Se  Se6  1  0.98853090  0.57563944  0.85230902  1
  Se  Se7  1  0.51333920  0.37855247  0.59602938  1
loop_
_geom_bond_atom_site_label_1
_geom_bond_atom_site_label_2
_geom_bond_distance
_geom_bond_site_symmetry_2
Cs0 Se0 3.729811 1_555
Cs0 Se7 3.759886 1_555
Cs0 Se1 3.778057 1_555
Cs0 Se6 3.806083 1_455
Cs0 Se2 3.818122 1_555
Cs0 Se5 3.846256 1_455
Cs0 Se6 3.909884 1_444
Cs0 Se1 4.007425 1_544
Cs1 Se1 3.717112 1_554
Cs1 Se6 3.741884 1_454
Cs1 Se0 3.779106 1_565
Cs1 Se4 3.799043 1_555
Cs1 Se7 3.854208 1_565
Cs1 Se3 3.856244 1_555
Cs1 Se0 3.950272 1_554
Cs1 Se7 3.961907 1_554
Cs2 Se2 3.730188 1_656
Cs2 Se5 3.759530 1_556
Cs2 Se3 3.778070 1_545
Cs2 Se4 3.806348 1_545
Cs2 Se0 3.818542 1_555
Cs2 Se7 3.845079 1_555
Cs2 Se4 3.909702 1_556
Cs2 Se3 4.007263 1_556
Cs3 Se3 3.717982 1_555
Cs3 Se4 3.741278 1_555
Cs3 Se2 3.779117 1_655
Cs3 Se6 3.798271 1_555
Cs3 Se5 3.854550 1_555
Cs3 Se1 3.857542 1_655
Cs3 Se2 3.949975 1_666
Cs3 Se5 3.961698 1_566
Mg0 Se7 2.572934 1_555
Mg0 Se5 2.573189 1_566
Mg0 Se1 2.653603 1_555
Mg0 Se3 2.653850 1_555
Cd0 Se4 2.634562 1_555
Cd0 Se6 2.634678 1_554
Cd0 Se2 2.788070 1_655
Cd0 Se0 2.788255 1_665
Cd1 Se1 2.631968 1_544
Cd1 Se3 2.632983 1_555
Cd1 Se7 2.761505 1_555
Cd1 Se5 2.761581 1_555
Cd2 Se7 2.685212 1_555
Cd2 Se5 2.685528 1_555
Cd2 Se6 2.692107 1_555
Cd2 Se4 2.692365 1_545
Cd3 Se0 2.677329 1_565
Cd3 Se2 2.677857 1_555
Cd3 Se3 2.681850 1_555
Cd3 Se1 2.682181 1_555
Cd4 Se0 2.635767 1_555
Cd4 Se2 2.636429 1_556
Cd4 Se6 2.774858 1_455
Cd4 Se4 2.774862 1_445
