# generated using pymatgen
data_Hf16Nb2Pt5Rh
_symmetry_space_group_name_H-M   'P 1'
_cell_length_a   8.75087409
_cell_length_b   8.82945979
_cell_length_c   8.82945903
_cell_angle_alpha   60.31018973
_cell_angle_beta   60.34240677
_cell_angle_gamma   60.34241527
_symmetry_Int_Tables_number   1
_chemical_formula_structural   Hf16Nb2Pt5Rh
_chemical_formula_sum   'Hf16 Nb2 Pt5 Rh1'
_cell_volume   486.01684074
_cell_formula_units_Z   1
loop_
 _symmetry_equiv_pos_site_id
 _symmetry_equiv_pos_as_xyz
  1  'x, y, z'
loop_
 _atom_site_type_symbol
 _atom_site_label
 _atom_site_symmetry_multiplicity
 _atom_site_fract_x
 _atom_site_fract_y
 _atom_site_fract_z
 _atom_site_occupancy
  Hf  Hf0  1  0.16205079  0.61356494  0.61356494  1
  Hf  Hf1  1  0.61628778  0.14773688  0.62229974  1
  Hf  Hf2  1  0.61628778  0.62229974  0.14773688  1
  Hf  Hf3  1  0.60987308  0.61391010  0.61391010  1
  Hf  Hf4  1  0.81702162  0.81726682  0.18754377  1
  Hf  Hf5  1  0.17761025  0.18703834  0.81735945  1
  Hf  Hf6  1  0.81702162  0.18754377  0.81726682  1
  Hf  Hf7  1  0.17761025  0.81735945  0.18703834  1
  Hf  Hf8  1  0.17585010  0.81777416  0.81777416  1
  Hf  Hf9  1  0.81734889  0.18257234  0.18257234  1
  Hf  Hf10  1  0.44877818  0.44258126  0.05554773  1
  Hf  Hf11  1  0.05345573  0.05465649  0.44225056  1
  Hf  Hf12  1  0.44877818  0.05554773  0.44258126  1
  Hf  Hf13  1  0.05345573  0.44225056  0.05465649  1
  Hf  Hf14  1  0.04492580  0.45498890  0.45498890  1
  Hf  Hf15  1  0.44788488  0.05332404  0.05332404  1
  Nb  Nb0  1  0.83670717  0.49183400  0.83590416  1
  Nb  Nb1  1  0.83670717  0.83590416  0.49183400  1
  Pt  Pt0  1  0.80708277  0.39591215  0.39591215  1
  Pt  Pt1  1  0.39896181  0.81084485  0.39128137  1
  Pt  Pt2  1  0.39896181  0.39128137  0.81084485  1
  Pt  Pt3  1  0.40202465  0.39577110  0.39577110  1
  Pt  Pt4  1  0.49181839  0.83394621  0.83394621  1
  Rh  Rh0  1  0.84349955  0.83409062  0.83409062  1
loop_
_geom_bond_atom_site_label_1
_geom_bond_atom_site_label_2
_geom_bond_distance
_geom_bond_site_symmetry_2
Hf0 Pt1 2.710101 1_555
Hf0 Pt2 2.710101 1_555
Hf0 Pt3 2.734266 1_555
Hf0 Rh0 2.892392 1_455
Hf0 Nb0 2.919200 1_455
Hf0 Nb1 2.919200 1_455
Hf0 Hf14 3.123085 1_555
Hf0 Hf8 3.188736 1_555
Hf0 Hf13 3.206735 1_556
Hf0 Hf11 3.206735 1_565
Hf0 Hf7 3.234384 1_555
Hf0 Hf5 3.234384 1_555
Hf1 Pt2 2.716277 1_555
Hf1 Pt0 2.750218 1_555
Hf1 Pt3 2.760568 1_555
Hf1 Pt4 2.863223 1_545
Hf1 Rh0 2.867022 1_545
Hf1 Nb1 2.883660 1_545
Hf1 Hf15 3.142114 1_556
Hf1 Hf11 3.162606 1_655
Hf1 Hf12 3.176716 1_555
Hf1 Hf6 3.221098 1_555
Hf1 Hf5 3.248681 1_555
Hf1 Hf9 3.294959 1_555
Hf2 Pt1 2.716277 1_555
Hf2 Pt0 2.750218 1_555
Hf2 Pt3 2.760568 1_555
Hf2 Pt4 2.863223 1_554
Hf2 Rh0 2.867022 1_554
Hf2 Nb0 2.883660 1_554
Hf2 Hf4 3.221098 1_555
Hf2 Hf7 3.248681 1_555
Hf2 Hf9 3.294959 1_555
Hf3 Pt2 2.705992 1_555
Hf3 Pt1 2.705992 1_555
Hf3 Pt0 2.735590 1_555
Hf3 Pt4 2.895290 1_555
Hf3 Nb1 2.929868 1_555
Hf3 Nb0 2.929868 1_555
Hf3 Hf4 3.233221 1_555
Hf3 Hf6 3.233221 1_555
Hf3 Hf8 3.253260 1_555
Hf4 Nb1 2.863435 1_555
Hf4 Rh0 2.945229 1_554
Hf4 Hf7 3.153664 1_655
Hf4 Pt1 3.196009 1_555
Hf4 Hf9 3.205344 1_565
Hf4 Hf8 3.220747 1_654
Hf4 Pt0 3.258035 1_555
Hf4 Hf6 3.284662 1_564
Hf5 Nb0 2.859506 1_455
Hf5 Pt4 2.960433 1_545
Hf5 Hf6 3.153664 1_455
Hf5 Pt2 3.201772 1_555
Hf5 Hf9 3.205495 1_456
Hf5 Pt3 3.265119 1_555
Hf5 Hf8 3.266236 1_545
Hf5 Hf7 3.279356 1_546
Hf6 Nb0 2.863435 1_555
Hf6 Rh0 2.945229 1_545
Hf6 Pt2 3.196009 1_555
Hf6 Hf9 3.205344 1_556
Hf6 Hf8 3.220748 1_645
Hf6 Pt0 3.258034 1_555
Hf7 Nb1 2.859505 1_455
Hf7 Pt4 2.960432 1_554
Hf7 Pt1 3.201772 1_555
Hf7 Hf9 3.205496 1_465
Hf7 Pt3 3.265119 1_555
Hf7 Hf8 3.266236 1_554
Hf8 Rh0 2.773322 1_455
Hf8 Pt4 2.913355 1_555
Hf8 Pt1 3.290928 1_555
Hf8 Pt2 3.290929 1_555
Hf9 Nb0 2.918736 1_554
Hf9 Nb1 2.918736 1_545
Hf9 Pt3 3.203944 1_555
Hf9 Pt0 3.206946 1_555
Hf10 Pt3 2.661447 1_555
Hf10 Pt2 2.675883 1_554
Hf10 Nb0 3.095890 1_554
Hf10 Pt4 3.126020 1_554
Hf10 Hf2 3.176716 1_555
Hf10 Hf3 3.210623 1_554
Hf10 Hf9 3.260754 1_555
Hf10 Hf6 3.268622 1_554
Hf10 Hf7 3.352210 1_555
Hf10 Hf8 3.365822 1_554
Hf10 Hf14 3.550351 1_555
Hf11 Pt0 2.667836 1_455
Hf11 Pt1 2.673966 1_545
Hf11 Nb1 3.079923 1_445
Hf11 Rh0 3.116724 1_445
Hf11 Hf9 3.258085 1_455
Hf11 Hf7 3.263343 1_545
Hf11 Hf8 3.308046 1_545
Hf11 Hf6 3.359730 1_455
Hf11 Hf14 3.554837 1_555
Hf12 Pt3 2.661448 1_555
Hf12 Pt1 2.675883 1_545
Hf12 Nb1 3.095890 1_545
Hf12 Pt4 3.126020 1_545
Hf12 Hf3 3.210624 1_545
Hf12 Hf9 3.260753 1_555
Hf12 Hf4 3.268622 1_545
Hf12 Hf5 3.352210 1_555
Hf12 Hf8 3.365821 1_545
Hf12 Hf14 3.550351 1_555
Hf13 Pt0 2.667836 1_455
Hf13 Pt2 2.673966 1_554
Hf13 Nb0 3.079923 1_454
Hf13 Rh0 3.116725 1_454
Hf13 Hf2 3.162606 1_455
Hf13 Hf9 3.258085 1_455
Hf13 Hf5 3.263343 1_554
Hf13 Hf8 3.308046 1_554
Hf13 Hf4 3.359730 1_455
Hf13 Hf14 3.554837 1_555
Hf14 Pt0 2.700823 1_455
Hf14 Pt3 2.710873 1_555
Hf14 Nb0 3.028213 1_455
Hf14 Nb1 3.028213 1_455
Hf14 Hf3 3.131919 1_455
Hf14 Hf7 3.262189 1_555
Hf14 Hf5 3.262189 1_555
Hf14 Hf6 3.263488 1_455
Hf14 Hf4 3.263488 1_455
Hf15 Pt1 2.642987 1_545
Hf15 Pt2 2.642987 1_554
Hf15 Hf2 3.142114 1_545
Hf15 Pt4 3.145537 1_544
Hf15 Rh0 3.150749 1_544
Hf15 Hf6 3.295744 1_554
Hf15 Hf4 3.295744 1_545
Hf15 Hf7 3.317373 1_545
Hf15 Hf5 3.317373 1_554
Nb0 Pt4 3.035020 1_555
Nb0 Rh0 3.043813 1_555
Nb0 Nb1 3.052186 1_555
Nb1 Pt4 3.035020 1_555
Nb1 Rh0 3.043813 1_555
Pt4 Rh0 3.078780 1_555
