# generated using pymatgen
data_Lu12Fe2ReSn2
_symmetry_space_group_name_H-M   'P 1'
_cell_length_a   8.18588138
_cell_length_b   8.18588185
_cell_length_c   8.18588065
_cell_angle_alpha   108.93104017
_cell_angle_beta   108.93105184
_cell_angle_gamma   110.55705597
_symmetry_Int_Tables_number   1
_chemical_formula_structural   Lu12Fe2ReSn2
_chemical_formula_sum   'Lu12 Fe2 Re1 Sn2'
_cell_volume   422.14066287
_cell_formula_units_Z   1
loop_
 _symmetry_equiv_pos_site_id
 _symmetry_equiv_pos_as_xyz
  1  'x, y, z'
loop_
 _atom_site_type_symbol
 _atom_site_label
 _atom_site_symmetry_multiplicity
 _atom_site_fract_x
 _atom_site_fract_y
 _atom_site_fract_z
 _atom_site_occupancy
  Lu  Lu0  1  0.30975849  0.30975849  0.61951698  1
  Lu  Lu1  1  0.69024151  0.69024151  0.38048302  1
  Lu  Lu2  1  0.69024151  0.30975849  1.00000000  1
  Lu  Lu3  1  0.30975849  0.69024151  0.00000000  1
  Lu  Lu4  1  0.19134747  0.42958420  0.23823672  1
  Lu  Lu5  1  0.80865253  0.57041580  0.76176328  1
  Lu  Lu6  1  0.19134747  0.95311175  0.76176328  1
  Lu  Lu7  1  0.95311175  0.19134747  0.76176328  1
  Lu  Lu8  1  0.80865253  0.04688825  0.23823672  1
  Lu  Lu9  1  0.04688825  0.80865253  0.23823672  1
  Lu  Lu10  1  0.42958420  0.19134747  0.23823672  1
  Lu  Lu11  1  0.57041580  0.80865253  0.76176328  1
  Fe  Fe0  1  0.37844102  0.37844102  1.00000000  1
  Fe  Fe1  1  0.62155898  0.62155898  0.00000000  1
  Re  Re0  1  0.00000000  0.00000000  0.00000000  1
  Sn  Sn0  1  0.00000000  0.50000000  0.50000000  1
  Sn  Sn1  1  0.50000000  0.00000000  0.50000000  1
loop_
_geom_bond_atom_site_label_1
_geom_bond_atom_site_label_2
_geom_bond_distance
_geom_bond_site_symmetry_2
Lu0 Lu7 3.430666 1_455
Lu0 Lu6 3.430666 1_545
Lu0 Lu5 3.430673 1_555
Lu0 Lu11 3.430673 1_555
Lu0 Sn0 3.458886 1_555
Lu0 Sn1 3.458887 1_555
Lu0 Lu8 3.512004 1_455
Lu0 Lu9 3.512004 1_545
Lu0 Lu4 3.512004 1_555
Lu0 Lu10 3.512005 1_555
Lu1 Lu9 3.430666 1_655
Lu1 Lu8 3.430666 1_565
Lu1 Lu4 3.430673 1_555
Lu1 Lu10 3.430673 1_555
Lu1 Sn0 3.458886 1_655
Lu1 Sn1 3.458887 1_565
Lu1 Lu6 3.512004 1_655
Lu1 Lu7 3.512004 1_565
Lu1 Lu5 3.512004 1_555
Lu1 Lu11 3.512005 1_555
Lu2 Lu6 3.430671 1_545
Lu2 Lu9 3.430671 1_656
Lu2 Lu5 3.430673 1_555
Lu2 Sn0 3.458886 1_656
Lu2 Sn1 3.458886 1_555
Lu2 Lu4 3.512005 1_656
Lu2 Lu8 3.512012 1_556
Lu2 Lu7 3.512012 1_555
Lu3 Lu8 3.430671 1_565
Lu3 Lu7 3.430671 1_454
Lu3 Lu4 3.430673 1_555
Lu3 Sn0 3.458886 1_554
Lu3 Sn1 3.458886 1_565
Lu3 Lu5 3.512005 1_454
Lu3 Lu6 3.512012 1_554
Lu3 Lu9 3.512012 1_555
Lu4 Re0 2.884880 1_555
Lu4 Sn0 3.063912 1_555
Lu4 Lu7 3.205821 1_454
Lu4 Lu8 3.568694 1_455
Lu4 Lu9 3.688356 1_555
Lu4 Sn1 3.806296 1_565
Lu5 Re0 2.884880 1_666
Lu5 Sn0 3.063912 1_655
Lu5 Lu9 3.205821 1_656
Lu5 Lu6 3.568694 1_655
Lu5 Lu7 3.688356 1_555
Lu5 Sn1 3.806296 1_555
Lu6 Re0 2.884879 1_566
Lu6 Sn0 3.063919 1_555
Lu6 Lu7 3.205808 1_465
Lu6 Lu9 3.688347 1_555
Lu6 Sn1 3.806296 1_565
Lu7 Re0 2.884879 1_656
Lu7 Sn1 3.063918 1_555
Lu7 Lu8 3.688347 1_555
Lu7 Sn0 3.806295 1_655
Lu8 Re0 2.884879 1_655
Lu8 Sn0 3.063919 1_655
Lu8 Lu9 3.205808 1_645
Lu8 Sn1 3.806296 1_555
Lu9 Re0 2.884879 1_565
Lu9 Sn1 3.063918 1_565
Lu9 Sn0 3.806295 1_555
Lu10 Re0 2.884879 1_555
Lu10 Sn1 3.063911 1_555
Lu10 Lu6 3.205821 1_544
Lu10 Lu4 3.205821 1_555
Lu10 Lu2 3.430673 1_554
Lu10 Lu3 3.512005 1_545
Lu10 Lu9 3.568694 1_545
Lu10 Lu5 3.688350 1_555
Lu10 Lu8 3.688356 1_555
Lu10 Sn0 3.806296 1_655
Lu11 Re0 2.884879 1_666
Lu11 Sn1 3.063911 1_565
Lu11 Lu8 3.205821 1_566
Lu11 Lu5 3.205821 1_555
Lu11 Lu3 3.430673 1_556
Lu11 Lu2 3.512005 1_565
Lu11 Lu7 3.568694 1_565
Lu11 Lu4 3.688350 1_555
Lu11 Lu6 3.688356 1_555
Lu11 Sn0 3.806296 1_555
Fe0 Fe1 2.267112 1_556
Fe0 Lu0 2.799719 1_555
Fe0 Lu1 2.799719 1_556
Fe0 Lu2 2.799719 1_555
Fe0 Lu3 2.799719 1_556
Fe0 Lu7 2.860507 1_455
Fe0 Lu6 2.860507 1_545
Fe0 Lu10 2.860514 1_556
Fe0 Lu4 2.860514 1_556
Fe1 Lu1 2.799719 1_555
Fe1 Lu0 2.799719 1_554
Fe1 Lu3 2.799719 1_555
Fe1 Lu2 2.799719 1_554
Fe1 Lu9 2.860507 1_655
Fe1 Lu8 2.860507 1_565
Fe1 Lu11 2.860514 1_554
Fe1 Lu5 2.860514 1_554
