# generated using pymatgen
data_Cs2Hf3VSe8
_symmetry_space_group_name_H-M   'P 1'
_cell_length_a   6.55800709
_cell_length_b   7.61932255
_cell_length_c   17.63821568
_cell_angle_alpha   90.14466992
_cell_angle_beta   90.00000000
_cell_angle_gamma   90.00000000
_symmetry_Int_Tables_number   1
_chemical_formula_structural   Cs2Hf3VSe8
_chemical_formula_sum   'Cs4 Hf6 V2 Se16'
_cell_volume   881.33599032
_cell_formula_units_Z   2
loop_
 _symmetry_equiv_pos_site_id
 _symmetry_equiv_pos_as_xyz
  1  'x, y, z'
loop_
 _atom_site_type_symbol
 _atom_site_label
 _atom_site_symmetry_multiplicity
 _atom_site_fract_x
 _atom_site_fract_y
 _atom_site_fract_z
 _atom_site_occupancy
  Cs  Cs0  1  0.35979229  0.00000000  0.00000000  1
  Cs  Cs1  1  0.64020771  0.50000000  0.50000000  1
  Cs  Cs2  1  0.03613181  0.00000000  0.50000000  1
  Cs  Cs3  1  0.96386819  0.50000000  0.00000000  1
  Hf  Hf0  1  0.00197538  0.99153807  0.24880234  1
  Hf  Hf1  1  0.00197538  0.00846193  0.75119766  1
  Hf  Hf2  1  0.99802462  0.50846193  0.25119766  1
  Hf  Hf3  1  0.99802462  0.49153807  0.74880234  1
  Hf  Hf4  1  0.50000000  0.25000000  0.25000000  1
  Hf  Hf5  1  0.50000000  0.75000000  0.75000000  1
  V  V0  1  0.50000000  0.75000000  0.25000000  1
  V  V1  1  0.50000000  0.25000000  0.75000000  1
  Se  Se0  1  0.83494960  0.24970736  0.33706860  1
  Se  Se1  1  0.83494960  0.75029264  0.66293140  1
  Se  Se2  1  0.16673510  0.74755853  0.16203511  1
  Se  Se3  1  0.16673510  0.25244147  0.83796489  1
  Se  Se4  1  0.16505040  0.25029264  0.16293140  1
  Se  Se5  1  0.16505040  0.74970736  0.83706860  1
  Se  Se6  1  0.83326490  0.75244147  0.33796489  1
  Se  Se7  1  0.83326490  0.24755853  0.66203511  1
  Se  Se8  1  0.67019249  0.00065005  0.16402065  1
  Se  Se9  1  0.67019249  0.99934995  0.83597935  1
  Se  Se10  1  0.32980751  0.49934995  0.33597935  1
  Se  Se11  1  0.32980751  0.50065005  0.66402065  1
  Se  Se12  1  0.33595035  0.00050632  0.33498405  1
  Se  Se13  1  0.33595035  0.99949368  0.66501595  1
  Se  Se14  1  0.66404965  0.49949368  0.16501595  1
  Se  Se15  1  0.66404965  0.50050632  0.83498405  1
loop_
_geom_bond_atom_site_label_1
_geom_bond_atom_site_label_2
_geom_bond_distance
_geom_bond_site_symmetry_2
Cs0 Se8 3.537411 1_555
Cs0 Se9 3.537411 1_544
Cs0 Se2 3.674032 1_545
Cs0 Se3 3.674032 1_554
Cs0 Se4 3.674108 1_555
Cs0 Se5 3.674108 1_544
Cs1 Se11 3.537411 1_555
Cs1 Se10 3.537411 1_555
Cs1 Se7 3.674032 1_555
Cs1 Se6 3.674032 1_555
Cs1 Se1 3.674108 1_555
Cs1 Se0 3.674108 1_555
Cs2 Se12 3.512489 1_555
Cs2 Se13 3.512489 1_545
Cs2 Se7 3.669990 1_455
Cs2 Se6 3.669990 1_445
Cs2 Se1 3.694189 1_445
Cs2 Se0 3.694189 1_455
Cs3 Se15 3.512489 1_554
Cs3 Se14 3.512489 1_555
Cs3 Se2 3.669990 1_655
Cs3 Se3 3.669990 1_654
Cs3 Se4 3.694189 1_655
Cs3 Se5 3.694189 1_654
Hf0 Se2 2.636477 1_555
Hf0 Se8 2.641177 1_465
Hf0 Se6 2.651542 1_455
Hf0 Se12 2.666804 1_565
Hf0 Se4 2.709204 1_565
Hf0 Se0 2.734508 1_465
Hf1 Se3 2.636477 1_555
Hf1 Se9 2.641177 1_445
Hf1 Se7 2.651542 1_455
Hf1 Se13 2.666804 1_545
Hf1 Se5 2.709204 1_545
Hf1 Se1 2.734508 1_445
Hf2 Se6 2.636477 1_555
Hf2 Se10 2.641177 1_655
Hf2 Se2 2.651542 1_655
Hf2 Se14 2.666804 1_555
Hf2 Se0 2.709204 1_555
Hf2 Se4 2.734508 1_655
Hf3 Se7 2.636477 1_555
Hf3 Se11 2.641177 1_655
Hf3 Se3 2.651542 1_655
Hf3 Se15 2.666804 1_555
Hf3 Se1 2.709204 1_555
Hf3 Se5 2.734508 1_655
Hf4 Se14 2.651871 1_555
Hf4 Se12 2.651871 1_555
Hf4 Se10 2.672182 1_555
Hf4 Se8 2.672182 1_555
Hf4 Se0 2.680217 1_555
Hf4 Se4 2.680217 1_555
Hf5 Se13 2.651871 1_555
Hf5 Se15 2.651871 1_555
Hf5 Se9 2.672182 1_555
Hf5 Se11 2.672182 1_555
Hf5 Se1 2.680217 1_555
Hf5 Se5 2.680217 1_555
Se2 V0 2.680323 1_555
Se3 V1 2.680323 1_555
Se6 V0 2.680323 1_555
Se7 V1 2.680323 1_555
Se8 V0 2.684673 1_545
Se9 V1 2.684673 1_565
Se10 V0 2.684673 1_555
Se11 V1 2.684673 1_555
Se12 V0 2.651976 1_545
Se13 V1 2.651976 1_565
Se14 V0 2.651976 1_555
Se15 V1 2.651976 1_555
