# generated using pymatgen
data_Ti13Al3(Pt2N)4
_symmetry_space_group_name_H-M   'P 1'
_cell_length_a   8.19542890
_cell_length_b   8.18729829
_cell_length_c   8.19542902
_cell_angle_alpha   59.96714339
_cell_angle_beta   59.99999952
_cell_angle_gamma   59.96714585
_symmetry_Int_Tables_number   1
_chemical_formula_structural   Ti13Al3(Pt2N)4
_chemical_formula_sum   'Ti13 Al3 Pt8 N4'
_cell_volume   388.64505043
_cell_formula_units_Z   1
loop_
 _symmetry_equiv_pos_site_id
 _symmetry_equiv_pos_as_xyz
  1  'x, y, z'
loop_
 _atom_site_type_symbol
 _atom_site_label
 _atom_site_symmetry_multiplicity
 _atom_site_fract_x
 _atom_site_fract_y
 _atom_site_fract_z
 _atom_site_occupancy
  Ti  Ti0  1  0.62500000  0.12500000  0.62500000  1
  Ti  Ti1  1  0.81764362  0.81638830  0.18298454  1
  Ti  Ti2  1  0.18087229  0.18330768  0.81790951  1
  Ti  Ti3  1  0.81790951  0.18330768  0.81790951  1
  Ti  Ti4  1  0.18298454  0.81638830  0.18298454  1
  Ti  Ti5  1  0.18298454  0.81638830  0.81764362  1
  Ti  Ti6  1  0.81790951  0.18330768  0.18087229  1
  Ti  Ti7  1  0.43235638  0.43361170  0.06701546  1
  Ti  Ti8  1  0.06912771  0.06669232  0.43209049  1
  Ti  Ti9  1  0.43209049  0.06669232  0.43209049  1
  Ti  Ti10  1  0.06701546  0.43361170  0.06701546  1
  Ti  Ti11  1  0.06701546  0.43361170  0.43235638  1
  Ti  Ti12  1  0.43209049  0.06669232  0.06912771  1
  Al  Al0  1  0.12500000  0.62500000  0.62500000  1
  Al  Al1  1  0.62500000  0.62500000  0.12500000  1
  Al  Al2  1  0.62500000  0.62500000  0.62500000  1
  Pt  Pt0  1  0.77172589  0.40932287  0.40947662  1
  Pt  Pt1  1  0.40928488  0.77214337  0.40928488  1
  Pt  Pt2  1  0.40947662  0.40932287  0.77172589  1
  Pt  Pt3  1  0.40947662  0.40932287  0.40947662  1
  Pt  Pt4  1  0.47827411  0.84067713  0.84052338  1
  Pt  Pt5  1  0.84071512  0.47785663  0.84071512  1
  Pt  Pt6  1  0.84052338  0.84067713  0.47827411  1
  Pt  Pt7  1  0.84052338  0.84067713  0.84052338  1
  N  N0  1  0.62500000  0.12500000  0.12500000  1
  N  N1  1  0.12500000  0.62500000  0.12500000  1
  N  N2  1  0.12500000  0.12500000  0.62500000  1
  N  N3  1  0.12500000  0.12500000  0.12500000  1
loop_
_geom_bond_atom_site_label_1
_geom_bond_atom_site_label_2
_geom_bond_distance
_geom_bond_site_symmetry_2
Al0 Pt7 2.560578 1_455
Al0 Pt3 2.560578 1_555
Al0 Pt2 2.560588 1_555
Al0 Pt6 2.560588 1_455
Al0 Pt1 2.561962 1_555
Al0 Pt5 2.561962 1_455
Al1 Pt7 2.560578 1_554
Al1 Pt3 2.560578 1_555
Al1 Pt0 2.560588 1_555
Al1 Pt4 2.560588 1_554
Al1 Pt1 2.561962 1_555
Al1 Pt5 2.561962 1_554
Al2 Pt6 2.560575 1_555
Al2 Pt2 2.560575 1_555
Al2 Pt4 2.560575 1_555
Al2 Pt0 2.560575 1_555
Al2 Pt5 2.561975 1_555
Al2 Pt1 2.561975 1_555
Pt0 Ti0 2.558686 1_555
Pt0 Ti11 2.627556 1_655
Pt0 Ti10 2.627570 1_655
Pt0 Ti8 2.632766 1_655
Pt1 Ti12 2.612028 1_565
Pt1 Ti8 2.612028 1_565
Pt1 Ti9 2.612042 1_565
Pt2 Ti0 2.558686 1_555
Pt2 Ti7 2.627556 1_556
Pt2 Ti10 2.627570 1_556
Pt2 Ti12 2.632766 1_556
Pt3 Ti0 2.558677 1_555
Pt3 Ti11 2.627581 1_555
Pt3 Ti7 2.627581 1_555
Pt3 Ti9 2.632770 1_555
Pt4 Ti0 2.558686 1_565
Pt4 Ti5 2.627556 1_555
Pt4 Ti4 2.627570 1_556
Pt4 Ti2 2.632766 1_565
Pt5 Ti6 2.612028 1_556
Pt5 Ti2 2.612028 1_655
Pt5 Ti3 2.612042 1_555
Pt6 Ti0 2.558686 1_565
Pt6 Ti1 2.627556 1_555
Pt6 Ti4 2.627570 1_655
Pt6 Ti6 2.632766 1_565
Pt7 Ti0 2.558677 1_565
Pt7 Ti5 2.627581 1_655
Pt7 Ti1 2.627581 1_556
Pt7 Ti3 2.632770 1_565
N0 Ti6 2.152966 1_555
N0 Ti12 2.152966 1_555
N0 Ti9 2.152972 1_555
N0 Ti3 2.152972 1_554
N0 Ti7 2.158210 1_555
N0 Ti1 2.158210 1_545
N1 Ti5 2.150238 1_554
N1 Ti11 2.150238 1_555
N1 Ti7 2.150238 1_555
N1 Ti1 2.150238 1_455
N1 Ti4 2.150244 1_555
N1 Ti10 2.150244 1_555
N2 Ti2 2.152966 1_555
N2 Ti8 2.152966 1_555
N2 Ti3 2.152972 1_455
N2 Ti9 2.152972 1_555
N2 Ti11 2.158210 1_555
N2 Ti5 2.158210 1_545
N3 Ti12 2.152974 1_555
N3 Ti6 2.152974 1_455
N3 Ti8 2.152974 1_555
N3 Ti2 2.152974 1_554
N3 Ti10 2.158208 1_555
N3 Ti4 2.158208 1_545
