# generated using pymatgen
data_In2BPdPt5
_symmetry_space_group_name_H-M   'P 1'
_cell_length_a   5.77943996
_cell_length_b   5.83631932
_cell_length_c   5.83631939
_cell_angle_alpha   59.35625959
_cell_angle_beta   60.32186567
_cell_angle_gamma   60.32187185
_symmetry_Int_Tables_number   1
_chemical_formula_structural   In2BPdPt5
_chemical_formula_sum   'In2 B1 Pd1 Pt5'
_cell_volume   139.17689137
_cell_formula_units_Z   1
loop_
 _symmetry_equiv_pos_site_id
 _symmetry_equiv_pos_as_xyz
  1  'x, y, z'
loop_
 _atom_site_type_symbol
 _atom_site_label
 _atom_site_symmetry_multiplicity
 _atom_site_fract_x
 _atom_site_fract_y
 _atom_site_fract_z
 _atom_site_occupancy
  In  In0  1  0.24917815  0.25082185  0.25082185  1
  In  In1  1  0.74917815  0.75082185  0.75082185  1
  B  B0  1  0.50235717  0.49764083  0.49764083  1
  Pd  Pd0  1  0.24545026  0.75454874  0.75454874  1
  Pt  Pt0  1  0.75702465  0.24297435  0.24297435  1
  Pt  Pt1  1  0.24366261  0.75633639  0.24525780  1
  Pt  Pt2  1  0.75474120  0.75633639  0.24525780  1
  Pt  Pt3  1  0.24366261  0.24525780  0.75633639  1
  Pt  Pt4  1  0.75474120  0.24525780  0.75633639  1
loop_
_geom_bond_atom_site_label_1
_geom_bond_atom_site_label_2
_geom_bond_distance
_geom_bond_site_symmetry_2
In0 Pd0 2.889887 1_545
In0 Pd0 2.889887 1_554
In0 Pt0 2.890454 1_555
In0 Pt0 2.890466 1_455
In0 Pt1 2.918361 1_555
In0 Pt3 2.918361 1_555
In0 Pt4 2.918366 1_455
In0 Pt2 2.918367 1_455
In0 Pt4 2.918655 1_554
In0 Pt2 2.918655 1_545
In0 Pt1 2.918661 1_545
In0 Pt3 2.918661 1_554
In1 Pd0 2.889881 1_655
In1 Pd0 2.889893 1_555
In1 Pt0 2.890460 1_565
In1 Pt0 2.890460 1_556
In1 Pt4 2.918361 1_565
In1 Pt2 2.918361 1_556
In1 Pt1 2.918367 1_556
In1 Pt3 2.918367 1_565
In1 Pt1 2.918655 1_655
In1 Pt3 2.918656 1_655
In1 Pt4 2.918661 1_555
In1 Pt2 2.918661 1_555
B0 Pt3 2.088777 1_555
B0 Pt1 2.088777 1_555
B0 Pt2 2.088785 1_555
B0 Pt4 2.088785 1_555
B0 Pt0 2.122254 1_555
B0 Pd0 2.140933 1_555
