# generated using pymatgen
data_Sc(NbCl3)6
_symmetry_space_group_name_H-M   'P 1'
_cell_length_a   9.97034888
_cell_length_b   9.97034854
_cell_length_c   9.97034921
_cell_angle_alpha   55.85528851
_cell_angle_beta   55.85529339
_cell_angle_gamma   55.85529276
_symmetry_Int_Tables_number   1
_chemical_formula_structural   Sc(NbCl3)6
_chemical_formula_sum   'Sc1 Nb6 Cl18'
_cell_volume   633.49703356
_cell_formula_units_Z   1
loop_
 _symmetry_equiv_pos_site_id
 _symmetry_equiv_pos_as_xyz
  1  'x, y, z'
loop_
 _atom_site_type_symbol
 _atom_site_label
 _atom_site_symmetry_multiplicity
 _atom_site_fract_x
 _atom_site_fract_y
 _atom_site_fract_z
 _atom_site_occupancy
  Sc  Sc0  1  0.00000000  0.00000000  0.00000000  1
  Nb  Nb0  1  0.40435741  0.29692062  0.65412863  1
  Nb  Nb1  1  0.34587137  0.59564259  0.70307938  1
  Nb  Nb2  1  0.70307938  0.34587137  0.59564259  1
  Nb  Nb3  1  0.29692062  0.65412863  0.40435741  1
  Nb  Nb4  1  0.65412863  0.40435741  0.29692062  1
  Nb  Nb5  1  0.59564259  0.70307938  0.34587137  1
  Cl  Cl0  1  0.56933640  0.15408389  0.44294771  1
  Cl  Cl1  1  0.21581978  0.37107917  0.91630039  1
  Cl  Cl2  1  0.91630039  0.21581978  0.37107917  1
  Cl  Cl3  1  0.37107917  0.91630039  0.21581978  1
  Cl  Cl4  1  0.78418022  0.62892083  0.08369961  1
  Cl  Cl5  1  0.08369961  0.78418022  0.62892083  1
  Cl  Cl6  1  0.71225373  0.96401929  0.15148696  1
  Cl  Cl7  1  0.96401929  0.15148696  0.71225373  1
  Cl  Cl8  1  0.15148696  0.71225373  0.96401929  1
  Cl  Cl9  1  0.28774627  0.03598071  0.84851304  1
  Cl  Cl10  1  0.03598071  0.84851304  0.28774627  1
  Cl  Cl11  1  0.84851304  0.28774627  0.03598071  1
  Cl  Cl12  1  0.55705229  0.43066360  0.84591611  1
  Cl  Cl13  1  0.15408389  0.44294771  0.56933640  1
  Cl  Cl14  1  0.44294771  0.56933640  0.15408389  1
  Cl  Cl15  1  0.43066360  0.84591611  0.55705229  1
  Cl  Cl16  1  0.84591611  0.55705229  0.43066360  1
  Cl  Cl17  1  0.62892083  0.08369961  0.78418022  1
loop_
_geom_bond_atom_site_label_1
_geom_bond_atom_site_label_2
_geom_bond_distance
_geom_bond_site_symmetry_2
Cl0 Nb4 2.443182 1_555
Cl0 Nb0 2.452690 1_555
Cl1 Nb0 2.450802 1_555
Cl1 Nb1 2.456649 1_555
Cl2 Nb4 2.450802 1_555
Cl2 Nb2 2.456650 1_555
Cl3 Nb3 2.450802 1_555
Cl3 Nb5 2.456649 1_555
Cl4 Nb5 2.450802 1_555
Cl4 Nb4 2.456649 1_555
Cl5 Nb1 2.450802 1_555
Cl5 Nb3 2.456650 1_555
Cl6 Sc0 2.514661 1_665
Cl6 Nb5 2.661276 1_555
Cl7 Sc0 2.514661 1_656
Cl7 Nb2 2.661276 1_555
Cl8 Sc0 2.514661 1_566
Cl8 Nb1 2.661276 1_555
Cl9 Sc0 2.514661 1_556
Cl9 Nb0 2.661276 1_555
Cl10 Sc0 2.514661 1_565
Cl10 Nb3 2.661276 1_555
Cl11 Sc0 2.514661 1_655
Cl11 Nb4 2.661276 1_555
Cl12 Nb2 2.443182 1_555
Cl12 Nb1 2.452689 1_555
Cl13 Nb0 2.443182 1_555
Cl13 Nb3 2.452689 1_555
Cl14 Nb3 2.443182 1_555
Cl14 Nb4 2.452689 1_555
Cl15 Nb1 2.443182 1_555
Cl15 Nb5 2.452690 1_555
Cl16 Nb5 2.443182 1_555
Cl16 Nb2 2.452689 1_555
Cl17 Nb2 2.450802 1_555
Cl17 Nb0 2.456649 1_555
