# generated using pymatgen
data_NbPdAu3
_symmetry_space_group_name_H-M   'P 1'
_cell_length_a   5.06161819
_cell_length_b   5.06169320
_cell_length_c   4.99511804
_cell_angle_alpha   98.80995371
_cell_angle_beta   98.84744097
_cell_angle_gamma   134.19919932
_symmetry_Int_Tables_number   1
_chemical_formula_structural   NbPdAu3
_chemical_formula_sum   'Nb1 Pd1 Au3'
_cell_volume   84.31103337
_cell_formula_units_Z   1
loop_
 _symmetry_equiv_pos_site_id
 _symmetry_equiv_pos_as_xyz
  1  'x, y, z'
loop_
 _atom_site_type_symbol
 _atom_site_label
 _atom_site_symmetry_multiplicity
 _atom_site_fract_x
 _atom_site_fract_y
 _atom_site_fract_z
 _atom_site_occupancy
  Nb  Nb0  1  0.99712908  0.00427092  0.00142570  1
  Pd  Pd0  1  0.60858755  0.78971654  0.39823649  1
  Au  Au0  1  0.39169941  0.20396570  0.59570371  1
  Au  Au1  1  0.20346501  0.60612361  0.80946122  1
  Au  Au2  1  0.79912095  0.39592423  0.19517188  1
loop_
_geom_bond_atom_site_label_1
_geom_bond_atom_site_label_2
_geom_bond_distance
_geom_bond_site_symmetry_2
Nb0 Pd0 2.802916 1_655
Nb0 Pd0 2.802929 1_545
Nb0 Pd0 2.884838 1_544
Au0 Pd0 2.767045 1_445
Au0 Pd0 2.767542 1_555
Au0 Nb0 2.859031 1_566
Au0 Nb0 2.859267 1_456
Au0 Nb0 2.874855 1_455
Au0 Au2 2.875809 1_445
Au0 Au2 2.875834 1_555
Au0 Au1 2.913369 1_545
Au0 Au1 2.913605 1_655
Au0 Au1 2.922821 1_555
Au0 Au2 2.928954 1_556
Au0 Pd0 3.079575 1_545
Au1 Au2 2.798587 1_566
Au1 Au2 2.799552 1_456
Au1 Nb0 2.837942 1_566
Au1 Nb0 2.838555 1_456
Au1 Pd0 2.892868 1_556
Au1 Pd0 2.917300 1_445
Au1 Pd0 2.917407 1_555
Au1 Nb0 2.953382 1_466
Au1 Au2 2.961102 1_455
Au2 Pd0 2.879915 1_555
Au2 Nb0 2.885898 1_455
Au2 Nb0 2.886364 1_565
Au2 Nb0 2.890003 1_555
Au2 Pd0 2.915900 1_545
Au2 Pd0 2.916217 1_655
