# generated using pymatgen
data_Sr6AgSn8P
_symmetry_space_group_name_H-M   'P 1'
_cell_length_a   8.89175112
_cell_length_b   8.89175039
_cell_length_c   8.89175057
_cell_angle_alpha   120.48438726
_cell_angle_beta   120.48438761
_cell_angle_gamma   89.16304235
_symmetry_Int_Tables_number   1
_chemical_formula_structural   Sr6AgSn8P
_chemical_formula_sum   'Sr6 Ag1 Sn8 P1'
_cell_volume   493.40689611
_cell_formula_units_Z   1
loop_
 _symmetry_equiv_pos_site_id
 _symmetry_equiv_pos_as_xyz
  1  'x, y, z'
loop_
 _atom_site_type_symbol
 _atom_site_label
 _atom_site_symmetry_multiplicity
 _atom_site_fract_x
 _atom_site_fract_y
 _atom_site_fract_z
 _atom_site_occupancy
  Sr  Sr0  1  0.26652197  0.26652197  0.00000000  1
  Sr  Sr1  1  0.73347803  0.73347803  1.00000000  1
  Sr  Sr2  1  0.18415923  0.64817196  0.83233119  1
  Sr  Sr3  1  0.81584077  0.35182804  0.16766881  1
  Sr  Sr4  1  0.64817196  0.81584077  0.46401272  1
  Sr  Sr5  1  0.35182804  0.18415923  0.53598728  1
  Ag  Ag0  1  0.00000000  0.00000000  0.00000000  1
  Sn  Sn0  1  0.83911415  0.32543966  0.78513953  1
  Sn  Sn1  1  0.16088585  0.67456034  0.21486047  1
  Sn  Sn2  1  0.54030013  0.05397461  0.21486047  1
  Sn  Sn3  1  0.32543966  0.54030013  0.48632451  1
  Sn  Sn4  1  0.94602539  0.16088585  0.48632451  1
  Sn  Sn5  1  0.45969987  0.94602539  0.78513953  1
  Sn  Sn6  1  0.67456034  0.45969987  0.51367549  1
  Sn  Sn7  1  0.05397461  0.83911415  0.51367549  1
  P  P0  1  0.50000000  0.50000000  0.00000000  1
loop_
_geom_bond_atom_site_label_1
_geom_bond_atom_site_label_2
_geom_bond_distance
_geom_bond_site_symmetry_2
Ag0 Sr0 3.375859 1_555
Ag0 Sr1 3.375859 1_444
Ag0 Sr3 3.505133 1_455
Ag0 Sr2 3.505133 1_544
Ag0 Sr5 3.505133 1_555
Ag0 Sr4 3.505133 1_444
Sn0 Sn6 2.946476 1_555
Sn0 Sn4 2.946490 1_555
Sn0 Sn1 3.091166 1_656
Sn0 Sr3 3.401484 1_556
Sn0 Sr0 3.458052 1_656
Sn0 Sr1 3.519120 1_555
Sn0 Sr5 3.585478 1_555
Sn0 Sr4 3.707620 1_545
Sn1 Sn3 2.946476 1_555
Sn1 Sn7 2.946490 1_555
Sn1 Sr2 3.401484 1_554
Sn1 Sr1 3.458052 1_454
Sn1 Sr0 3.519120 1_555
Sn1 Sr4 3.585478 1_555
Sn1 Sr5 3.707620 1_565
Sn2 Sn4 2.946483 1_555
Sn2 Sn6 2.946483 1_555
Sn2 Sn5 3.091166 1_544
Sn2 Sr2 3.401484 1_544
Sn2 Sr0 3.458052 1_555
Sn2 Sr1 3.519120 1_544
Sn2 Sr4 3.585478 1_545
Sn2 Sr5 3.707620 1_555
Sn3 Sn5 2.946483 1_555
Sn3 Sn6 3.091161 1_555
Sn3 Sr5 3.401489 1_555
Sn3 Sr0 3.458045 1_555
Sn3 Sr1 3.519125 1_555
Sn3 Sr2 3.585486 1_555
Sn3 Sr3 3.707621 1_455
Sn4 Sn7 3.091173 1_645
Sn4 Sr5 3.401480 1_655
Sn4 Sr1 3.458049 1_544
Sn4 Sr0 3.519126 1_656
Sn4 Sr2 3.585477 1_655
Sn4 Sr3 3.707612 1_555
Sn5 Sn7 2.946483 1_555
Sn5 Sr3 3.401484 1_566
Sn5 Sr1 3.458052 1_555
Sn5 Sr0 3.519120 1_566
Sn5 Sr5 3.585478 1_565
Sn5 Sr4 3.707620 1_555
Sn6 Sr4 3.401489 1_555
Sn6 Sr1 3.458045 1_555
Sn6 Sr0 3.519125 1_555
Sn6 Sr3 3.585486 1_555
Sn6 Sr2 3.707621 1_655
Sn7 Sr4 3.401480 1_455
Sn7 Sr0 3.458049 1_566
Sn7 Sr1 3.519126 1_454
Sn7 Sr3 3.585477 1_455
Sn7 Sr2 3.707612 1_555
P0 Sr1 2.957313 1_554
P0 Sr0 2.957313 1_555
P0 Sr4 3.079326 1_555
P0 Sr5 3.079326 1_554
P0 Sr3 3.079326 1_555
P0 Sr2 3.079326 1_554
