# generated using pymatgen
data_Ca3Ge(AsPd4)5
_symmetry_space_group_name_H-M   'P 1'
_cell_length_a   8.81164280
_cell_length_b   8.81164237
_cell_length_c   8.82481862
_cell_angle_alpha   59.95052281
_cell_angle_beta   59.95052442
_cell_angle_gamma   60.09895974
_symmetry_Int_Tables_number   1
_chemical_formula_structural   Ca3Ge(AsPd4)5
_chemical_formula_sum   'Ca3 Ge1 As5 Pd20'
_cell_volume   484.50985388
_cell_formula_units_Z   1
loop_
 _symmetry_equiv_pos_site_id
 _symmetry_equiv_pos_as_xyz
  1  'x, y, z'
loop_
 _atom_site_type_symbol
 _atom_site_label
 _atom_site_symmetry_multiplicity
 _atom_site_fract_x
 _atom_site_fract_y
 _atom_site_fract_z
 _atom_site_occupancy
  Ca  Ca0  1  0.24955632  0.24955632  0.25044368  1
  Ca  Ca1  1  0.74955632  0.74955632  0.75044368  1
  Ca  Ca2  1  0.00057210  0.00057210  0.99942790  1
  Ge  Ge0  1  0.26541880  0.26541880  0.73458120  1
  As  As0  1  0.73558122  0.26351871  0.26441878  1
  As  As1  1  0.26351871  0.73558122  0.26441878  1
  As  As2  1  0.26351871  0.73558122  0.73648129  1
  As  As3  1  0.73635990  0.73635990  0.26364010  1
  As  As4  1  0.73558122  0.26351871  0.73648129  1
  Pd  Pd0  1  0.99970329  0.65029605  0.00029671  1
  Pd  Pd1  1  0.38377477  0.84704270  0.38459077  1
  Pd  Pd2  1  0.99970329  0.65029605  0.34970395  1
  Pd  Pd3  1  0.34862420  0.00072809  0.99927191  1
  Pd  Pd4  1  0.65280103  0.34996843  0.99861577  1
  Pd  Pd5  1  0.61569685  0.15153343  0.61638486  1
  Pd  Pd6  1  0.65029605  0.99970329  0.34970395  1
  Pd  Pd7  1  0.84704270  0.38377477  0.38459077  1
  Pd  Pd8  1  0.34862420  0.00072809  0.65137580  1
  Pd  Pd9  1  0.38361514  0.38361514  0.38430315  1
  Pd  Pd10  1  0.00138423  0.00138423  0.65003157  1
  Pd  Pd11  1  0.00138423  0.00138423  0.34719897  1
  Pd  Pd12  1  0.61540923  0.61540923  0.61622523  1
  Pd  Pd13  1  0.15153343  0.61569685  0.61638486  1
  Pd  Pd14  1  0.61540923  0.61540923  0.15295730  1
  Pd  Pd15  1  0.34996843  0.65280103  0.99861577  1
  Pd  Pd16  1  0.00072809  0.34862420  0.99927191  1
  Pd  Pd17  1  0.38361514  0.38361514  0.84846657  1
  Pd  Pd18  1  0.00072809  0.34862420  0.65137580  1
  Pd  Pd19  1  0.65029605  0.99970329  0.00029671  1
loop_
_geom_bond_atom_site_label_1
_geom_bond_atom_site_label_2
_geom_bond_distance
_geom_bond_site_symmetry_2
Ca0 Pd9 2.893535 1_555
Ca0 Pd17 2.893535 1_554
Ca0 Pd1 2.897400 1_545
Ca0 Pd7 2.897401 1_455
Ca0 Pd10 3.364680 1_555
Ca0 Pd11 3.364684 1_555
Ca0 Pd0 3.391011 1_455
Ca0 Pd2 3.391011 1_455
Ca0 Pd19 3.391011 1_545
Ca0 Pd6 3.391011 1_545
Ca0 Pd3 3.391705 1_554
Ca0 Pd8 3.391705 1_555
Ca0 Pd16 3.391705 1_554
Ca0 Pd18 3.391705 1_555
Ca0 Pd15 3.406483 1_554
Ca0 Pd4 3.406484 1_554
Ca1 Pd5 2.893535 1_565
Ca1 Pd13 2.893535 1_655
Ca1 Pd12 2.897393 1_555
Ca1 Pd14 2.897400 1_556
Ca1 Pd4 3.364676 1_555
Ca1 Pd15 3.364676 1_555
Ca1 Pd6 3.391011 1_555
Ca1 Pd19 3.391011 1_556
Ca1 Pd2 3.391011 1_555
Ca1 Pd0 3.391011 1_556
Ca1 Pd18 3.391705 1_655
Ca1 Pd16 3.391705 1_655
Ca1 Pd8 3.391705 1_565
Ca1 Pd3 3.391705 1_565
Ca1 Pd10 3.406476 1_665
Ca1 Pd11 3.406479 1_665
Ca2 Pd16 3.066907 1_555
Ca2 Pd18 3.066907 1_555
Ca2 Pd3 3.066907 1_555
Ca2 Pd8 3.066907 1_555
Ca2 Pd11 3.076200 1_556
Ca2 Pd4 3.076205 1_455
Ca2 Pd15 3.076205 1_545
Ca2 Pd10 3.076209 1_555
Ca2 Pd2 3.086494 1_446
Ca2 Pd0 3.086494 1_446
Ca2 Pd6 3.086494 1_446
Ca2 Pd19 3.086494 1_446
Ca2 Ge0 3.295456 1_555
Ge0 Pd3 2.446975 1_555
Ge0 Pd8 2.446975 1_555
Ge0 Pd16 2.446975 1_555
Ge0 Pd18 2.446975 1_555
Ge0 Pd17 2.521427 1_555
Ge0 Pd9 2.521427 1_555
Ge0 Pd13 2.521427 1_555
Ge0 Pd5 2.521427 1_555
As0 Pd6 2.440959 1_545
As0 Pd4 2.446332 1_554
As0 Pd11 2.446335 1_655
As0 Pd16 2.451644 1_654
As0 Pd7 2.533448 1_555
As0 Pd14 2.533455 1_555
As0 Pd5 2.533932 1_555
As0 Pd9 2.533933 1_555
As0 Ca2 3.294402 1_654
As1 Pd2 2.440959 1_455
As1 Pd15 2.446332 1_554
As1 Pd11 2.446335 1_565
As1 Pd3 2.451644 1_564
As1 Pd1 2.533448 1_555
As1 Pd14 2.533455 1_555
As1 Pd13 2.533932 1_555
As1 Pd9 2.533933 1_555
As1 Ca2 3.294402 1_564
As2 Pd0 2.440959 1_456
As2 Pd10 2.446337 1_565
As2 Pd15 2.446340 1_555
As2 Pd8 2.451644 1_565
As2 Pd1 2.533455 1_555
As2 Pd12 2.533455 1_555
As2 Pd13 2.533932 1_555
As2 Pd17 2.533933 1_555
As2 Ca2 3.294402 1_565
As3 Pd19 2.443422 1_555
As3 Pd6 2.443422 1_555
As3 Pd0 2.443423 1_555
As3 Pd2 2.443423 1_555
As3 Pd14 2.538383 1_555
As3 Pd12 2.538390 1_555
As3 Pd7 2.538391 1_555
As3 Pd1 2.538391 1_555
As3 Ca2 3.287561 1_664
As4 Pd19 2.440959 1_546
As4 Pd10 2.446337 1_655
As4 Pd4 2.446340 1_555
As4 Pd18 2.451644 1_655
As4 Pd12 2.533455 1_555
As4 Pd7 2.533455 1_555
As4 Pd5 2.533932 1_555
As4 Pd17 2.533933 1_555
As4 Ca2 3.294402 1_655
Pd0 Pd16 2.658267 1_654
Pd0 Pd10 3.090041 1_664
Pd0 Pd15 3.090046 1_654
Pd1 Pd11 3.067119 1_565
Pd1 Pd10 3.067119 1_565
Pd4 Pd9 3.085920 1_556
Pd4 Pd6 3.090041 1_546
Pd6 Pd8 2.658267 1_565
Pd10 Pd11 2.672443 1_555
Pd10 Pd18 3.062828 1_555
Pd10 Pd8 3.062828 1_555
Pd10 Pd7 3.067119 1_455
Pd10 Pd13 3.085919 1_545
Pd10 Pd5 3.085919 1_455
Pd10 Pd19 3.090042 1_446
Pd11 Pd16 3.062824 1_554
Pd11 Pd3 3.062824 1_554
Pd11 Pd7 3.067119 1_455
Pd11 Pd13 3.085922 1_545
Pd11 Pd5 3.085923 1_455
Pd11 Pd2 3.090037 1_445
Pd11 Pd6 3.090037 1_445
Pd12 Pd4 3.067119 1_555
Pd12 Pd15 3.067119 1_555
Pd14 Pd4 3.067119 1_554
Pd14 Pd15 3.067119 1_554
Pd15 Pd4 2.672443 1_555
Pd15 Pd3 3.062819 1_565
Pd15 Pd8 3.062824 1_565
Pd15 Pd9 3.085920 1_556
Pd15 Pd17 3.085927 1_555
Pd15 Pd2 3.090042 1_456
Pd16 Pd4 3.062819 1_455
Pd17 Pd4 3.085927 1_555
Pd18 Pd2 2.658267 1_455
Pd18 Pd4 3.062824 1_455
Pd19 Pd3 2.658267 1_564
Pd19 Pd4 3.090046 1_564
