# generated using pymatgen
data_Na3Sr3AlBi4
_symmetry_space_group_name_H-M   'P 1'
_cell_length_a   10.41191793
_cell_length_b   10.41191825
_cell_length_c   8.13971476
_cell_angle_alpha   90.00000000
_cell_angle_beta   90.00000000
_cell_angle_gamma   120.00000512
_symmetry_Int_Tables_number   1
_chemical_formula_structural   Na3Sr3AlBi4
_chemical_formula_sum   'Na6 Sr6 Al2 Bi8'
_cell_volume   764.18987881
_cell_formula_units_Z   2
loop_
 _symmetry_equiv_pos_site_id
 _symmetry_equiv_pos_as_xyz
  1  'x, y, z'
loop_
 _atom_site_type_symbol
 _atom_site_label
 _atom_site_symmetry_multiplicity
 _atom_site_fract_x
 _atom_site_fract_y
 _atom_site_fract_z
 _atom_site_occupancy
  Na  Na0  1  0.85732376  0.71464751  0.95415422  1
  Na  Na1  1  0.85732376  0.14267624  0.95415422  1
  Na  Na2  1  0.14267624  0.28535249  0.45415422  1
  Na  Na3  1  0.28535249  0.14267624  0.95415422  1
  Na  Na4  1  0.14267624  0.85732376  0.45415422  1
  Na  Na5  1  0.71464751  0.85732376  0.45415422  1
  Sr  Sr0  1  0.47957851  0.95915703  0.78112076  1
  Sr  Sr1  1  0.47957851  0.52042149  0.78112076  1
  Sr  Sr2  1  0.52042149  0.04084297  0.28112076  1
  Sr  Sr3  1  0.04084297  0.52042149  0.78112076  1
  Sr  Sr4  1  0.52042149  0.47957851  0.28112076  1
  Sr  Sr5  1  0.95915703  0.47957851  0.28112076  1
  Al  Al0  1  0.66666700  0.33333300  0.64967582  1
  Al  Al1  1  0.33333300  0.66666700  0.14967582  1
  Bi  Bi0  1  0.66666700  0.33333300  0.00185683  1
  Bi  Bi1  1  0.33333300  0.66666700  0.50185683  1
  Bi  Bi2  1  0.81507500  0.63014999  0.55634813  1
  Bi  Bi3  1  0.81507500  0.18492500  0.55634813  1
  Bi  Bi4  1  0.18492500  0.36985001  0.05634813  1
  Bi  Bi5  1  0.36985001  0.18492500  0.55634813  1
  Bi  Bi6  1  0.18492500  0.81507500  0.05634813  1
  Bi  Bi7  1  0.63014999  0.81507500  0.05634813  1
loop_
_geom_bond_atom_site_label_1
_geom_bond_atom_site_label_2
_geom_bond_distance
_geom_bond_site_symmetry_2
Na0 Sr1 3.686257 1_555
Na0 Sr3 3.686258 1_655
Na0 Sr4 4.097892 1_556
Na0 Sr5 4.097893 1_556
Na1 Sr0 3.686257 1_545
Na1 Sr3 3.686258 1_655
Na1 Sr2 4.097893 1_556
Na1 Sr5 4.097893 1_556
Na2 Sr4 3.686257 1_555
Na2 Sr5 3.686258 1_455
Na2 Sr1 4.097892 1_555
Na2 Sr3 4.097893 1_555
Na3 Sr1 3.686258 1_555
Na3 Sr0 3.686258 1_545
Na3 Sr4 4.097893 1_556
Na3 Sr2 4.097893 1_556
Na4 Sr2 3.686257 1_565
Na4 Sr5 3.686258 1_455
Na4 Sr0 4.097893 1_555
Na4 Sr3 4.097893 1_555
Na5 Sr4 3.686258 1_555
Na5 Sr2 3.686258 1_565
Na5 Sr1 4.097893 1_555
Na5 Sr0 4.097893 1_555
Sr0 Sr2 4.135972 1_565
Sr0 Sr2 4.135972 1_566
Sr1 Sr4 4.135972 1_555
Sr1 Sr4 4.135972 1_556
Sr3 Sr5 4.135972 1_455
Sr3 Sr5 4.135972 1_456
Al0 Bi3 2.782108 1_555
Al0 Bi5 2.782116 1_555
Al0 Bi2 2.782116 1_555
Al0 Bi0 2.866653 1_556
Al0 Sr3 3.539520 1_655
Al0 Sr0 3.539520 1_545
Al0 Sr1 3.539529 1_555
Al1 Bi6 2.782108 1_555
Al1 Bi7 2.782116 1_555
Al1 Bi4 2.782116 1_555
Al1 Bi1 2.866653 1_555
Al1 Sr5 3.539520 1_455
Al1 Sr2 3.539520 1_565
Al1 Sr4 3.539529 1_555
Bi0 Na1 3.460154 1_554
Bi0 Na3 3.460162 1_554
Bi0 Na0 3.460162 1_554
Bi0 Sr5 3.481792 1_555
Bi0 Sr2 3.481792 1_555
Bi0 Sr4 3.481799 1_555
Bi0 Sr3 3.822525 1_654
Bi0 Sr0 3.822525 1_544
Bi0 Sr1 3.822533 1_554
Bi1 Na4 3.460154 1_555
Bi1 Na5 3.460162 1_555
Bi1 Na2 3.460162 1_555
Bi1 Sr3 3.481792 1_555
Bi1 Sr0 3.481792 1_555
Bi1 Sr1 3.481799 1_555
Bi1 Sr5 3.822525 1_455
Bi1 Sr2 3.822525 1_565
Bi1 Sr4 3.822533 1_555
Bi2 Na4 3.138996 1_655
Bi2 Na5 3.138996 1_555
Bi2 Na0 3.326460 1_555
Bi2 Sr4 3.475486 1_555
Bi2 Sr5 3.475487 1_555
Bi2 Sr1 3.586635 1_555
Bi2 Sr3 3.586635 1_655
Bi3 Na2 3.138996 1_655
Bi3 Na5 3.138996 1_545
Bi3 Na1 3.326460 1_555
Bi3 Sr2 3.475486 1_555
Bi3 Sr5 3.475487 1_555
Bi3 Sr0 3.586635 1_545
Bi3 Sr3 3.586635 1_655
Bi4 Na1 3.138996 1_454
Bi4 Na3 3.138996 1_554
Bi4 Na2 3.326460 1_555
Bi4 Sr1 3.475486 1_554
Bi4 Sr3 3.475487 1_554
Bi4 Sr4 3.586635 1_555
Bi4 Sr5 3.586635 1_455
Bi5 Na4 3.138996 1_545
Bi5 Na2 3.138996 1_555
Bi5 Na3 3.326460 1_555
Bi5 Sr4 3.475487 1_555
Bi5 Sr2 3.475487 1_555
Bi5 Sr1 3.586635 1_555
Bi5 Sr0 3.586635 1_545
Bi6 Na0 3.138996 1_454
Bi6 Na3 3.138996 1_564
Bi6 Na4 3.326460 1_555
Bi6 Sr0 3.475486 1_554
Bi6 Sr3 3.475487 1_554
Bi6 Sr2 3.586635 1_565
Bi6 Sr5 3.586635 1_455
Bi7 Na1 3.138996 1_564
Bi7 Na0 3.138996 1_554
Bi7 Na5 3.326460 1_555
Bi7 Sr1 3.475487 1_554
Bi7 Sr0 3.475487 1_554
Bi7 Sr4 3.586635 1_555
Bi7 Sr2 3.586635 1_565
