# generated using pymatgen
data_Sr2AuN
_symmetry_space_group_name_H-M   'P 1'
_cell_length_a   9.79152057
_cell_length_b   9.79152057
_cell_length_c   5.30453800
_cell_angle_alpha   90.00000000
_cell_angle_beta   90.00000000
_cell_angle_gamma   157.66972448
_symmetry_Int_Tables_number   1
_chemical_formula_structural   Sr2AuN
_chemical_formula_sum   'Sr4 Au2 N2'
_cell_volume   193.22733887
_cell_formula_units_Z   2
loop_
 _symmetry_equiv_pos_site_id
 _symmetry_equiv_pos_as_xyz
  1  'x, y, z'
loop_
 _atom_site_type_symbol
 _atom_site_label
 _atom_site_symmetry_multiplicity
 _atom_site_fract_x
 _atom_site_fract_y
 _atom_site_fract_z
 _atom_site_occupancy
  Sr  Sr0  1  0.21427300  0.78572700  0.75000000  1
  Sr  Sr1  1  0.78572700  0.21427300  0.25000000  1
  Sr  Sr2  1  0.60096400  0.39903600  0.25000000  1
  Sr  Sr3  1  0.39903600  0.60096400  0.75000000  1
  Au  Au0  1  0.03985800  0.96014200  0.75000000  1
  Au  Au1  1  0.96014200  0.03985800  0.25000000  1
  N  N0  1  0.19292400  0.80707600  0.25000000  1
  N  N1  1  0.80707600  0.19292400  0.75000000  1
loop_
_geom_bond_atom_site_label_1
_geom_bond_atom_site_label_2
_geom_bond_distance
_geom_bond_site_symmetry_2
Au0 Au1 3.062700 1_466
Au0 Au1 3.062700 1_465
Au0 Sr3 3.303743 1_565
Au0 Sr3 3.303743 1_455
Au0 Sr0 3.350930 1_555
Au0 Sr2 3.465202 1_455
Au0 Sr2 3.465202 1_456
Au0 Sr2 3.465202 1_566
Au0 Sr2 3.465202 1_565
Au1 Sr2 3.303743 1_655
Au1 Sr2 3.303743 1_545
Au1 Sr1 3.350930 1_555
Au1 Sr3 3.465202 1_544
Au1 Sr3 3.465202 1_545
Au1 Sr3 3.465202 1_655
Au1 Sr3 3.465202 1_654
N0 Sr2 2.591586 1_455
N0 Sr2 2.591586 1_565
N0 Sr1 2.602654 1_455
N0 Sr1 2.602654 1_565
N0 Sr0 2.683797 1_555
N0 Sr0 2.683797 1_554
N1 Sr3 2.591586 1_655
N1 Sr3 2.591586 1_545
N1 Sr0 2.602654 1_545
N1 Sr0 2.602654 1_655
N1 Sr1 2.683797 1_556
N1 Sr1 2.683797 1_555
