# generated using pymatgen
data_SrReH9
_symmetry_space_group_name_H-M   'P 1'
_cell_length_a   5.01822341
_cell_length_b   5.01822374
_cell_length_c   9.20122246
_cell_angle_alpha   90.00000000
_cell_angle_beta   90.00000000
_cell_angle_gamma   120.00000433
_symmetry_Int_Tables_number   1
_chemical_formula_structural   SrReH9
_chemical_formula_sum   'Sr2 Re2 H18'
_cell_volume   200.66709136
_cell_formula_units_Z   2
loop_
 _symmetry_equiv_pos_site_id
 _symmetry_equiv_pos_as_xyz
  1  'x, y, z'
loop_
 _atom_site_type_symbol
 _atom_site_label
 _atom_site_symmetry_multiplicity
 _atom_site_fract_x
 _atom_site_fract_y
 _atom_site_fract_z
 _atom_site_occupancy
  Sr  Sr0  1  0.00000000  0.00000000  0.00000000  1
  Sr  Sr1  1  0.00000000  0.00000000  0.50000000  1
  Re  Re0  1  0.33333300  0.66666700  0.25000000  1
  Re  Re1  1  0.66666700  0.33333300  0.75000000  1
  H  H0  1  0.47220715  0.52779285  0.38010648  1
  H  H1  1  0.47220715  0.94441329  0.38010648  1
  H  H2  1  0.05558671  0.52779285  0.38010648  1
  H  H3  1  0.94441329  0.47220715  0.88010648  1
  H  H4  1  0.14263862  0.28527823  0.25000000  1
  H  H5  1  0.85736138  0.14263862  0.75000000  1
  H  H6  1  0.28527823  0.14263862  0.75000000  1
  H  H7  1  0.71472177  0.85736138  0.25000000  1
  H  H8  1  0.14263862  0.85736138  0.25000000  1
  H  H9  1  0.85736138  0.71472177  0.75000000  1
  H  H10  1  0.47220715  0.94441329  0.11989352  1
  H  H11  1  0.52779285  0.47220715  0.61989352  1
  H  H12  1  0.94441329  0.47220715  0.61989352  1
  H  H13  1  0.05558671  0.52779285  0.11989352  1
  H  H14  1  0.47220715  0.52779285  0.11989352  1
  H  H15  1  0.52779285  0.05558671  0.88010648  1
  H  H16  1  0.52779285  0.47220715  0.88010648  1
  H  H17  1  0.52779285  0.05558671  0.61989352  1
loop_
_geom_bond_atom_site_label_1
_geom_bond_atom_site_label_2
_geom_bond_distance
_geom_bond_site_symmetry_2
H0 Re0 1.700046 1_555
H0 Sr1 2.751540 1_665
H0 Sr1 2.751540 1_555
H1 Re0 1.700040 1_555
H1 Sr1 2.751539 1_665
H1 Sr1 2.751543 1_565
H2 Re0 1.700040 1_555
H2 Sr1 2.751539 1_555
H2 Sr1 2.751543 1_565
H3 Re1 1.700040 1_555
H3 Sr0 2.751539 1_666
H3 Sr0 2.751543 1_656
H4 Re0 1.657481 1_555
H4 Sr0 2.613139 1_555
H4 Sr1 2.613139 1_555
H5 Re1 1.657481 1_555
H5 Sr1 2.613137 1_655
H5 Sr0 2.613137 1_656
H6 Re1 1.657481 1_555
H6 Sr1 2.613139 1_555
H6 Sr0 2.613139 1_556
H7 Re0 1.657481 1_555
H7 Sr0 2.613139 1_665
H7 Sr1 2.613139 1_665
H8 Re0 1.657481 1_555
H8 Sr1 2.613137 1_565
H8 Sr0 2.613137 1_565
H9 Re1 1.657481 1_555
H9 Sr1 2.613139 1_665
H9 Sr0 2.613139 1_666
H10 Re0 1.700040 1_555
H10 Sr0 2.751539 1_665
H10 Sr0 2.751543 1_565
H11 Re1 1.700046 1_555
H11 Sr1 2.751540 1_555
H11 Sr1 2.751540 1_665
H12 Re1 1.700040 1_555
H12 Sr1 2.751539 1_665
H12 Sr1 2.751543 1_655
H13 Re0 1.700040 1_555
H13 Sr0 2.751539 1_555
H13 Sr0 2.751543 1_565
H14 Re0 1.700046 1_555
H14 Sr0 2.751540 1_665
H14 Sr0 2.751540 1_555
H15 Re1 1.700040 1_555
H15 Sr0 2.751539 1_556
H15 Sr0 2.751543 1_656
H16 Re1 1.700046 1_555
H16 Sr0 2.751540 1_556
H16 Sr0 2.751540 1_666
H17 Re1 1.700040 1_555
H17 Sr1 2.751539 1_555
H17 Sr1 2.751543 1_655
