# generated using pymatgen
data_KLu(SeO4)2
_symmetry_space_group_name_H-M   'P 1'
_cell_length_a   5.24059105
_cell_length_b   5.24055649
_cell_length_c   8.09623436
_cell_angle_alpha   87.26872013
_cell_angle_beta   87.32519983
_cell_angle_gamma   65.31598833
_symmetry_Int_Tables_number   1
_chemical_formula_structural   KLu(SeO4)2
_chemical_formula_sum   'K1 Lu1 Se2 O8'
_cell_volume   201.71710076
_cell_formula_units_Z   1
loop_
 _symmetry_equiv_pos_site_id
 _symmetry_equiv_pos_as_xyz
  1  'x, y, z'
loop_
 _atom_site_type_symbol
 _atom_site_label
 _atom_site_symmetry_multiplicity
 _atom_site_fract_x
 _atom_site_fract_y
 _atom_site_fract_z
 _atom_site_occupancy
  K  K0  1  0.00010788  0.99998000  0.49999931  1
  Lu  Lu0  1  0.00001492  0.99998314  0.99998367  1
  Se  Se0  1  0.63134038  0.63127037  0.21956460  1
  Se  Se1  1  0.36863907  0.36874305  0.78044269  1
  O  O0  1  0.24490712  0.71268706  0.80648118  1
  O  O1  1  0.28573779  0.76715591  0.19727924  1
  O  O2  1  0.75509578  0.28731518  0.19355773  1
  O  O3  1  0.71425212  0.23279830  0.80272884  1
  O  O4  1  0.23748032  0.23989679  0.93518491  1
  O  O5  1  0.76244706  0.76009413  0.06479553  1
  O  O6  1  0.29711749  0.30783331  0.59797961  1
  O  O7  1  0.70285806  0.69224274  0.40200269  1
loop_
_geom_bond_atom_site_label_1
_geom_bond_atom_site_label_2
_geom_bond_distance
_geom_bond_site_symmetry_2
K0 O6 2.826551 1_565
K0 O7 2.827110 1_455
K0 O1 2.855408 1_555
K0 O3 2.855828 1_465
K0 O0 2.897844 1_555
K0 O2 2.897928 1_465
Lu0 O4 2.141890 1_565
Lu0 O5 2.142242 1_456
Lu0 O0 2.188951 1_555
Lu0 O3 2.189341 1_465
Lu0 O2 2.189497 1_466
Lu0 O1 2.189497 1_556
O0 Se1 1.661634 1_555
O1 Se0 1.661621 1_555
O2 Se0 1.661639 1_555
O3 Se1 1.661663 1_555
O4 Se1 1.650639 1_555
O5 Se0 1.650580 1_555
O6 Se1 1.619022 1_555
O7 Se0 1.618936 1_555
