# generated using pymatgen
data_Cs3TaF8
_symmetry_space_group_name_H-M   'P 1'
_cell_length_a   8.95368096
_cell_length_b   8.95367996
_cell_length_c   6.92378797
_cell_angle_alpha   90.00000000
_cell_angle_beta   90.00000000
_cell_angle_gamma   120.00000027
_symmetry_Int_Tables_number   1
_chemical_formula_structural   Cs3TaF8
_chemical_formula_sum   'Cs6 Ta2 F16'
_cell_volume   480.70381933
_cell_formula_units_Z   2
loop_
 _symmetry_equiv_pos_site_id
 _symmetry_equiv_pos_as_xyz
  1  'x, y, z'
loop_
 _atom_site_type_symbol
 _atom_site_label
 _atom_site_symmetry_multiplicity
 _atom_site_fract_x
 _atom_site_fract_y
 _atom_site_fract_z
 _atom_site_occupancy
  Cs  Cs0  1  0.15888792  0.31777584  0.24442112  1
  Cs  Cs1  1  0.84111208  0.68222416  0.74442212  1
  Cs  Cs2  1  0.68222416  0.84111208  0.24442112  1
  Cs  Cs3  1  0.15888792  0.84111208  0.24442112  1
  Cs  Cs4  1  0.84111208  0.15888792  0.74442212  1
  Cs  Cs5  1  0.31777584  0.15888792  0.74442212  1
  Ta  Ta0  1  0.33333300  0.66666700  0.73811439  1
  Ta  Ta1  1  0.66666700  0.33333300  0.23811439  1
  F  F0  1  0.00000000  0.00000000  0.99960474  1
  F  F1  1  0.00000000  0.00000000  0.49960474  1
  F  F2  1  0.43030258  0.56969742  0.55323097  1
  F  F3  1  0.56969742  0.43030258  0.05323097  1
  F  F4  1  0.43030258  0.86060516  0.55323097  1
  F  F5  1  0.13939484  0.56969742  0.55323097  1
  F  F6  1  0.86060516  0.43030258  0.05323097  1
  F  F7  1  0.56969742  0.13939484  0.05323097  1
  F  F8  1  0.33333300  0.66666700  0.02300282  1
  F  F9  1  0.66666700  0.33333300  0.52300282  1
  F  F10  1  0.21103726  0.78896274  0.81048959  1
  F  F11  1  0.78896274  0.21103726  0.31048959  1
  F  F12  1  0.21103726  0.42207352  0.81048959  1
  F  F13  1  0.57792648  0.78896274  0.81048959  1
  F  F14  1  0.42207352  0.21103726  0.31048959  1
  F  F15  1  0.78896274  0.57792648  0.31048959  1
loop_
_geom_bond_atom_site_label_1
_geom_bond_atom_site_label_2
_geom_bond_distance
_geom_bond_site_symmetry_2
Cs0 F14 2.987928 1_555
Cs0 F11 2.987937 1_455
Cs0 F0 2.990796 1_554
Cs0 F1 3.032055 1_555
Cs0 F8 3.109522 1_555
Cs0 F12 3.111394 1_554
Cs0 F5 3.175470 1_555
Cs0 F2 3.175470 1_555
Cs0 F6 3.548391 1_455
Cs0 F3 3.548391 1_555
Cs1 F13 2.987927 1_555
Cs1 F10 2.987936 1_655
Cs1 F1 2.990800 1_665
Cs1 F0 3.032051 1_665
Cs1 F9 3.109526 1_555
Cs1 F15 3.111401 1_555
Cs1 F6 3.175465 1_556
Cs1 F3 3.175465 1_556
Cs1 F5 3.548394 1_655
Cs1 F2 3.548394 1_555
Cs2 F15 2.987928 1_555
Cs2 F11 2.987937 1_565
Cs2 F0 2.990796 1_664
Cs2 F1 3.032055 1_665
Cs2 F8 3.109522 1_555
Cs2 F13 3.111394 1_554
Cs2 F2 3.175470 1_555
Cs2 F4 3.175470 1_555
Cs2 F3 3.548391 1_555
Cs2 F7 3.548391 1_565
Cs3 F14 2.987935 1_565
Cs3 F15 2.987935 1_455
Cs3 F0 2.990796 1_564
Cs3 F1 3.032055 1_565
Cs3 F8 3.109515 1_555
Cs3 F10 3.111396 1_554
Cs3 F5 3.175470 1_555
Cs3 F4 3.175470 1_555
Cs3 F6 3.548391 1_455
Cs3 F7 3.548391 1_565
Cs4 F13 2.987934 1_545
Cs4 F12 2.987934 1_655
Cs4 F1 2.990800 1_655
Cs4 F0 3.032051 1_655
Cs4 F9 3.109519 1_555
Cs4 F11 3.111403 1_555
Cs4 F6 3.175465 1_556
Cs4 F7 3.175465 1_556
Cs4 F5 3.548394 1_655
Cs4 F4 3.548394 1_545
Cs5 F12 2.987927 1_555
Cs5 F10 2.987936 1_545
Cs5 F1 2.990800 1_555
Cs5 F0 3.032051 1_555
Cs5 F9 3.109526 1_555
Cs5 F14 3.111401 1_555
Cs5 F3 3.175465 1_556
Cs5 F7 3.175465 1_556
Cs5 F2 3.548394 1_555
Cs5 F4 3.548394 1_545
F2 Ta0 1.974876 1_555
F3 Ta1 1.974876 1_555
F4 Ta0 1.974870 1_555
F5 Ta0 1.974870 1_555
F6 Ta1 1.974870 1_555
F7 Ta1 1.974870 1_555
F8 Ta0 1.972507 1_554
F9 Ta1 1.972507 1_555
F10 Ta0 1.961675 1_555
F11 Ta1 1.961675 1_555
F12 Ta0 1.961689 1_555
F13 Ta0 1.961690 1_555
F14 Ta1 1.961690 1_555
F15 Ta1 1.961689 1_555
