# generated using pymatgen
data_Lu3B6Ir7Os
_symmetry_space_group_name_H-M   'P 1'
_cell_length_a   9.91242195
_cell_length_b   9.11789709
_cell_length_c   5.49258615
_cell_angle_alpha   81.35907497
_cell_angle_beta   65.42321009
_cell_angle_gamma   33.21771663
_symmetry_Int_Tables_number   1
_chemical_formula_structural   Lu3B6Ir7Os
_chemical_formula_sum   'Lu3 B6 Ir7 Os1'
_cell_volume   227.00476466
_cell_formula_units_Z   1
loop_
 _symmetry_equiv_pos_site_id
 _symmetry_equiv_pos_as_xyz
  1  'x, y, z'
loop_
 _atom_site_type_symbol
 _atom_site_label
 _atom_site_symmetry_multiplicity
 _atom_site_fract_x
 _atom_site_fract_y
 _atom_site_fract_z
 _atom_site_occupancy
  Lu  Lu0  1  0.00000000  0.00000000  0.00000000  1
  Lu  Lu1  1  0.17704691  0.17704691  0.82295309  1
  Lu  Lu2  1  0.82295309  0.82295309  0.17704691  1
  B  B0  1  0.81916270  0.53276490  0.47982460  1
  B  B1  1  0.16824680  0.47982460  0.53276490  1
  B  B2  1  0.47982460  0.16824680  0.81916270  1
  B  B3  1  0.67100515  0.32899485  0.67100515  1
  B  B4  1  0.53276490  0.81916270  0.16824680  1
  B  B5  1  0.32899485  0.67100515  0.32899485  1
  Ir  Ir0  1  0.41456234  0.41456234  0.58543766  1
  Ir  Ir1  1  0.58567906  0.58567906  0.91432094  1
  Ir  Ir2  1  0.08625757  0.08625757  0.41374243  1
  Ir  Ir3  1  0.91432094  0.91432094  0.58567906  1
  Ir  Ir4  1  0.58543766  0.58543766  0.41456234  1
  Ir  Ir5  1  0.25000000  0.25000000  0.25000000  1
  Ir  Ir6  1  0.41374243  0.41374243  0.08625757  1
  Os  Os0  1  0.75000000  0.75000000  0.75000000  1
loop_
_geom_bond_atom_site_label_1
_geom_bond_atom_site_label_2
_geom_bond_distance
_geom_bond_site_symmetry_2
Lu0 Lu1 3.079025 1_554
Lu0 Lu2 3.079025 1_445
Lu1 Os0 3.025194 1_455
Lu1 Os0 3.025194 1_545
Lu2 Os0 3.025194 1_555
Lu2 Os0 3.025194 1_554
B0 Os0 2.088136 1_555
B0 Ir4 2.122261 1_555
B0 Ir5 2.133018 1_655
B0 Ir1 2.273288 1_555
B0 Ir2 2.307769 1_655
B0 Lu2 2.925760 1_555
B0 Lu1 3.059505 1_565
B0 Lu1 3.120813 1_654
B1 Os0 2.088128 1_455
B1 Ir0 2.122271 1_555
B1 Ir5 2.133010 1_555
B1 Ir3 2.273292 1_455
B1 Ir6 2.307773 1_555
B1 Lu1 2.925755 1_555
B1 Lu2 3.059506 1_456
B1 Lu2 3.120815 1_545
B2 Os0 2.088129 1_545
B2 Ir0 2.122268 1_555
B2 Ir5 2.133014 1_556
B2 Ir3 2.273292 1_545
B2 Ir6 2.307777 1_556
B2 Lu1 2.925753 1_555
B2 Lu2 3.059502 1_545
B2 Lu2 3.120815 1_456
B3 Ir1 2.160211 1_555
B3 Ir3 2.160211 1_545
B3 Ir6 2.167162 1_556
B3 Ir2 2.167163 1_655
B3 Ir4 2.203739 1_555
B3 Ir0 2.203739 1_555
B3 Lu0 3.131110 1_656
B3 Lu0 3.189506 1_655
B3 Lu0 3.189506 1_566
B4 Os0 2.088132 1_554
B4 Ir4 2.122264 1_555
B4 Ir5 2.133017 1_565
B4 Ir1 2.273284 1_554
B4 Ir2 2.307769 1_565
B4 Lu2 2.925763 1_555
B4 Lu1 3.059504 1_654
B4 Lu1 3.120817 1_565
B5 Ir1 2.160211 1_554
B5 Ir3 2.160211 1_455
B5 Ir6 2.167163 1_555
B5 Ir2 2.167163 1_565
B5 Ir0 2.203739 1_555
B5 Ir4 2.203739 1_555
B5 Lu0 3.131110 1_565
B5 Lu0 3.189506 1_566
B5 Lu0 3.189506 1_655
Ir0 Lu0 3.119610 1_655
Ir0 Lu0 3.119610 1_566
Ir0 Lu2 3.172135 1_456
Ir0 Lu2 3.172135 1_545
Ir1 Lu0 3.124478 1_656
Ir1 Lu0 3.124478 1_566
Ir1 Lu1 3.172851 1_565
Ir1 Lu1 3.172851 1_655
Ir2 Lu0 3.129288 1_556
Ir2 Lu0 3.129288 1_555
Ir2 Lu1 3.167824 1_554
Ir2 Lu1 3.167824 1_555
Ir3 Lu0 3.124478 1_665
Ir3 Lu0 3.124478 1_666
Ir3 Lu2 3.172851 1_556
Ir3 Lu2 3.172851 1_555
Ir4 Lu0 3.119610 1_566
Ir4 Lu0 3.119610 1_655
Ir4 Lu1 3.172135 1_654
Ir4 Lu1 3.172135 1_565
Ir5 Lu1 3.025194 1_555
Ir5 Lu1 3.025194 1_554
Ir5 Lu2 3.025194 1_455
Ir5 Lu2 3.025194 1_545
Ir6 Lu0 3.129289 1_565
Ir6 Lu0 3.129289 1_655
Ir6 Lu2 3.167824 1_545
Ir6 Lu2 3.167824 1_455
