# generated using pymatgen
data_TaNb5(SiTc)6
_symmetry_space_group_name_H-M   'P 1'
_cell_length_a   7.53122725
_cell_length_b   7.51863274
_cell_length_c   7.53122716
_cell_angle_alpha   127.40280878
_cell_angle_beta   124.63973749
_cell_angle_gamma   79.91514765
_symmetry_Int_Tables_number   1
_chemical_formula_structural   TaNb5(SiTc)6
_chemical_formula_sum   'Ta1 Nb5 Si6 Tc6'
_cell_volume   269.10643548
_cell_formula_units_Z   1
loop_
 _symmetry_equiv_pos_site_id
 _symmetry_equiv_pos_as_xyz
  1  'x, y, z'
loop_
 _atom_site_type_symbol
 _atom_site_label
 _atom_site_symmetry_multiplicity
 _atom_site_fract_x
 _atom_site_fract_y
 _atom_site_fract_z
 _atom_site_occupancy
  Ta  Ta0  1  0.25256008  0.09534212  0.34278204  1
  Nb  Nb0  1  0.94509910  0.90636301  0.46126491  1
  Nb  Nb1  1  0.04985212  0.50413934  0.95428823  1
  Nb  Nb2  1  0.53759854  0.50342547  0.46582593  1
  Nb  Nb3  1  0.46440093  0.92750000  0.96309806  1
  Nb  Nb4  1  0.74827901  0.08775266  0.83947365  1
  Si  Si0  1  0.72857633  0.48220869  0.25363336  1
  Si  Si1  1  0.27456166  0.51124113  0.73667947  1
  Si  Si2  1  0.66840478  0.17305946  0.50637186  1
  Si  Si3  1  0.32718913  0.83755910  0.49998254  1
  Si  Si4  1  0.16668860  0.17305946  0.00465468  1
  Si  Si5  1  0.83757656  0.83755910  0.01036996  1
  Tc  Tc0  1  0.48234247  0.75454127  0.23726143  1
  Tc  Tc1  1  0.01727984  0.75454127  0.77219880  1
  Tc  Tc2  1  0.90413210  0.25196852  0.40797000  1
  Tc  Tc3  1  0.09261686  0.50278294  0.34394258  1
  Tc  Tc4  1  0.34399852  0.25196852  0.84783642  1
  Tc  Tc5  1  0.65884036  0.50278294  0.91016608  1
loop_
_geom_bond_atom_site_label_1
_geom_bond_atom_site_label_2
_geom_bond_distance
_geom_bond_site_symmetry_2
Ta0 Tc0 2.780061 1_545
Ta0 Tc1 2.780061 1_544
Ta0 Tc2 2.862455 1_455
Ta0 Tc4 2.862456 1_555
Ta0 Tc3 3.085871 1_555
Ta0 Tc5 3.085871 1_555
Nb0 Si4 2.644328 1_666
Nb0 Si2 2.644333 1_565
Nb0 Si3 2.709479 1_655
Nb0 Si5 2.709484 1_555
Nb0 Tc4 2.802473 1_665
Nb0 Tc2 2.802476 1_565
Nb0 Tc3 2.810813 1_655
Nb0 Tc5 2.810817 1_554
Nb0 Si0 2.852847 1_555
Nb0 Tc1 2.943631 1_655
Nb0 Tc0 2.943635 1_555
Nb1 Si3 2.663897 1_556
Nb1 Si5 2.663901 1_456
Nb1 Si4 2.667424 1_556
Nb1 Si2 2.667428 1_455
Nb1 Tc3 2.770615 1_556
Nb1 Tc5 2.770619 1_455
Nb1 Tc4 2.801156 1_555
Nb1 Tc2 2.801160 1_455
Nb1 Tc0 2.842105 1_556
Nb1 Tc1 2.842109 1_555
Nb1 Si1 2.973833 1_555
Nb2 Si0 2.621246 1_555
Nb2 Si4 2.637412 1_555
Nb2 Si2 2.637419 1_555
Nb2 Si3 2.678188 1_555
Nb2 Si5 2.678193 1_556
Nb2 Tc3 2.928599 1_555
Nb2 Tc5 2.928604 1_555
Nb2 Tc0 3.091882 1_555
Nb2 Tc1 3.091886 1_655
Nb2 Tc4 3.150110 1_554
Nb2 Tc2 3.150114 1_555
Nb3 Si3 2.640484 1_555
Nb3 Si5 2.640489 1_556
Nb3 Si1 2.656890 1_555
Nb3 Si4 2.679533 1_566
Nb3 Si2 2.679543 1_566
Nb3 Tc4 2.903497 1_565
Nb3 Tc2 2.903502 1_566
Nb3 Tc1 2.975879 1_555
Nb3 Tc0 2.975882 1_556
Nb3 Tc3 3.159099 1_555
Nb3 Tc5 3.159102 1_555
Nb4 Si5 2.676110 1_546
Nb4 Si3 2.676110 1_545
Nb4 Si2 2.677807 1_555
Nb4 Si4 2.677814 1_656
Nb4 Si0 2.771443 1_556
Nb4 Tc5 2.850925 1_555
Nb4 Tc3 2.850926 1_656
Nb4 Tc1 2.912880 1_645
Nb4 Tc0 2.912880 1_545
Nb4 Tc4 3.099316 1_555
Nb4 Tc2 3.099316 1_556
Si0 Tc3 2.429842 1_655
Si0 Tc5 2.429846 1_554
Si0 Tc2 2.447767 1_555
Si0 Tc4 2.447773 1_554
Si0 Tc1 2.522627 1_655
Si0 Tc0 2.522632 1_555
Si1 Tc3 2.413439 1_555
Si1 Tc5 2.413439 1_555
Si1 Tc4 2.429436 1_555
Si1 Tc2 2.429436 1_455
Si1 Tc1 2.434291 1_555
Si1 Tc0 2.434291 1_556
Si1 Ta0 2.638057 1_555
Si2 Tc5 2.535139 1_555
Si2 Tc2 2.540007 1_555
Si2 Tc0 2.557518 1_545
Si2 Ta0 2.654715 1_555
Si3 Tc4 2.536188 1_565
Si3 Tc3 2.537962 1_555
Si3 Tc0 2.557827 1_555
Si3 Ta0 2.669024 1_565
Si4 Tc3 2.535143 1_555
Si4 Tc4 2.540001 1_554
Si4 Tc1 2.557520 1_544
Si4 Ta0 2.654717 1_555
Si5 Tc2 2.536188 1_565
Si5 Tc5 2.537962 1_554
Si5 Tc1 2.557827 1_654
Si5 Ta0 2.669025 1_665
Tc0 Tc4 2.899540 1_554
Tc0 Tc5 2.931728 1_554
Tc1 Tc2 2.899540 1_455
Tc1 Tc3 2.931728 1_555
Tc2 Tc3 2.936676 1_655
Tc2 Tc4 3.077762 1_655
Tc3 Tc5 3.035150 1_454
Tc4 Tc5 2.936676 1_555
