# generated using pymatgen
data_Rb3SrOs2O9
_symmetry_space_group_name_H-M   'P 1'
_cell_length_a   6.21138012
_cell_length_b   6.21138026
_cell_length_c   15.02182716
_cell_angle_alpha   90.00000000
_cell_angle_beta   90.00000000
_cell_angle_gamma   119.99998393
_symmetry_Int_Tables_number   1
_chemical_formula_structural   Rb3SrOs2O9
_chemical_formula_sum   'Rb6 Sr2 Os4 O18'
_cell_volume   501.91443664
_cell_formula_units_Z   2
loop_
 _symmetry_equiv_pos_site_id
 _symmetry_equiv_pos_as_xyz
  1  'x, y, z'
loop_
 _atom_site_type_symbol
 _atom_site_label
 _atom_site_symmetry_multiplicity
 _atom_site_fract_x
 _atom_site_fract_y
 _atom_site_fract_z
 _atom_site_occupancy
  Rb  Rb0  1  0.00000000  0.00000000  0.25000000  1
  Rb  Rb1  1  0.00000000  0.00000000  0.75000000  1
  Rb  Rb2  1  0.33333300  0.66666700  0.39035101  1
  Rb  Rb3  1  0.66666700  0.33333300  0.60964899  1
  Rb  Rb4  1  0.66666700  0.33333300  0.89035101  1
  Rb  Rb5  1  0.33333300  0.66666700  0.10964899  1
  Sr  Sr0  1  0.00000000  0.00000000  0.50000000  1
  Sr  Sr1  1  0.00000000  0.00000000  0.00000000  1
  Os  Os0  1  0.66666700  0.33333300  0.34596254  1
  Os  Os1  1  0.33333300  0.66666700  0.65403746  1
  Os  Os2  1  0.33333300  0.66666700  0.84596254  1
  Os  Os3  1  0.66666700  0.33333300  0.15403746  1
  O  O0  1  0.53602136  0.46397864  0.25000000  1
  O  O1  1  0.53602136  0.07204172  0.25000000  1
  O  O2  1  0.92795828  0.46397864  0.25000000  1
  O  O3  1  0.46397864  0.53602136  0.75000000  1
  O  O4  1  0.46397864  0.92795828  0.75000000  1
  O  O5  1  0.07204172  0.53602136  0.75000000  1
  O  O6  1  0.36988947  0.18494474  0.40535508  1
  O  O7  1  0.81505526  0.18494474  0.40535508  1
  O  O8  1  0.81505526  0.63011053  0.40535508  1
  O  O9  1  0.63011053  0.81505526  0.59464492  1
  O  O10  1  0.18494474  0.81505526  0.59464492  1
  O  O11  1  0.18494474  0.36988947  0.59464492  1
  O  O12  1  0.63011053  0.81505526  0.90535508  1
  O  O13  1  0.18494474  0.81505526  0.90535508  1
  O  O14  1  0.18494474  0.36988947  0.90535508  1
  O  O15  1  0.36988947  0.18494474  0.09464492  1
  O  O16  1  0.81505526  0.18494474  0.09464492  1
  O  O17  1  0.81505526  0.63011053  0.09464492  1
loop_
_geom_bond_atom_site_label_1
_geom_bond_atom_site_label_2
_geom_bond_distance
_geom_bond_site_symmetry_2
O0 Os0 2.013346 1_555
O0 Os3 2.013346 1_555
O0 Rb2 3.033166 1_555
O0 Rb5 3.033166 1_555
O0 Rb0 3.129776 1_555
O0 Rb0 3.129776 1_665
O1 Os0 2.013346 1_555
O1 Os3 2.013346 1_555
O1 Rb2 3.033159 1_545
O1 Rb5 3.033159 1_545
O1 Rb0 3.129771 1_655
O1 Rb0 3.129778 1_555
O2 Os0 2.013346 1_555
O2 Os3 2.013346 1_555
O2 Rb2 3.033159 1_655
O2 Rb5 3.033159 1_655
O2 Rb0 3.129771 1_655
O2 Rb0 3.129778 1_665
O3 Os2 2.013346 1_555
O3 Os1 2.013346 1_555
O3 Rb3 3.033166 1_555
O3 Rb4 3.033166 1_555
O3 Rb1 3.129776 1_665
O3 Rb1 3.129776 1_555
O4 Os2 2.013346 1_555
O4 Os1 2.013346 1_555
O4 Rb3 3.033159 1_565
O4 Rb4 3.033159 1_565
O4 Rb1 3.129771 1_565
O4 Rb1 3.129778 1_665
O5 Os2 2.013346 1_555
O5 Os1 2.013346 1_555
O5 Rb3 3.033159 1_455
O5 Rb4 3.033159 1_455
O5 Rb1 3.129771 1_565
O5 Rb1 3.129778 1_555
O6 Os0 1.828820 1_555
O6 Sr0 2.445467 1_555
O6 Rb0 3.066790 1_555
O6 Rb2 3.120058 1_545
O6 Rb2 3.120064 1_555
O6 Rb3 3.459268 1_555
O7 Os0 1.828815 1_555
O7 Sr0 2.445466 1_655
O7 Rb0 3.066789 1_655
O7 Rb2 3.120061 1_655
O7 Rb2 3.120061 1_545
O7 Rb3 3.459266 1_555
O8 Os0 1.828820 1_555
O8 Sr0 2.445467 1_665
O8 Rb0 3.066790 1_665
O8 Rb2 3.120058 1_655
O8 Rb2 3.120064 1_555
O8 Rb3 3.459268 1_555
O9 Os1 1.828820 1_555
O9 Sr0 2.445467 1_665
O9 Rb1 3.066790 1_665
O9 Rb3 3.120058 1_565
O9 Rb3 3.120064 1_555
O9 Rb2 3.459268 1_555
O10 Os1 1.828815 1_555
O10 Sr0 2.445466 1_565
O10 Rb1 3.066789 1_565
O10 Rb3 3.120061 1_455
O10 Rb3 3.120061 1_565
O10 Rb2 3.459266 1_555
O11 Os1 1.828820 1_555
O11 Sr0 2.445467 1_555
O11 Rb1 3.066790 1_555
O11 Rb3 3.120058 1_455
O11 Rb3 3.120064 1_555
O11 Rb2 3.459268 1_555
O12 Os2 1.828820 1_555
O12 Sr1 2.445467 1_666
O12 Rb1 3.066790 1_665
O12 Rb4 3.120058 1_565
O12 Rb4 3.120064 1_555
O12 Rb5 3.459268 1_556
O13 Os2 1.828815 1_555
O13 Sr1 2.445466 1_566
O13 Rb1 3.066789 1_565
O13 Rb4 3.120061 1_455
O13 Rb4 3.120061 1_565
O13 Rb5 3.459266 1_556
O14 Os2 1.828820 1_555
O14 Sr1 2.445467 1_556
O14 Rb1 3.066790 1_555
O14 Rb4 3.120058 1_455
O14 Rb4 3.120064 1_555
O14 Rb5 3.459268 1_556
O15 Os3 1.828820 1_555
O15 Sr1 2.445467 1_555
O15 Rb0 3.066790 1_555
O15 Rb5 3.120058 1_545
O15 Rb5 3.120064 1_555
O15 Rb4 3.459268 1_554
O16 Os3 1.828815 1_555
O16 Sr1 2.445466 1_655
O16 Rb0 3.066789 1_655
O16 Rb5 3.120061 1_655
O16 Rb5 3.120061 1_545
O16 Rb4 3.459266 1_554
O17 Os3 1.828820 1_555
O17 Sr1 2.445467 1_665
O17 Rb0 3.066790 1_665
O17 Rb5 3.120058 1_655
O17 Rb5 3.120064 1_555
O17 Rb4 3.459268 1_554
