# generated using pymatgen
data_Ta4VB4Mo
_symmetry_space_group_name_H-M   'P 1'
_cell_length_a   6.05436249
_cell_length_b   6.05436249
_cell_length_c   3.24668096
_cell_angle_alpha   90.00000000
_cell_angle_beta   90.00000000
_cell_angle_gamma   90.00000000
_symmetry_Int_Tables_number   1
_chemical_formula_structural   Ta4VB4Mo
_chemical_formula_sum   'Ta4 V1 B4 Mo1'
_cell_volume   119.00808128
_cell_formula_units_Z   1
loop_
 _symmetry_equiv_pos_site_id
 _symmetry_equiv_pos_as_xyz
  1  'x, y, z'
loop_
 _atom_site_type_symbol
 _atom_site_label
 _atom_site_symmetry_multiplicity
 _atom_site_fract_x
 _atom_site_fract_y
 _atom_site_fract_z
 _atom_site_occupancy
  Ta  Ta0  1  0.68207170  0.17727283  0.50000000  1
  Ta  Ta1  1  0.31792830  0.82272717  0.50000000  1
  Ta  Ta2  1  0.17727283  0.31792830  0.50000000  1
  Ta  Ta3  1  0.82272717  0.68207170  0.50000000  1
  V  V0  1  0.00000000  0.00000000  0.00000000  1
  B  B0  1  0.10819320  0.61068288  0.00000000  1
  B  B1  1  0.89180680  0.38931712  0.00000000  1
  B  B2  1  0.61068288  0.89180680  0.00000000  1
  B  B3  1  0.38931712  0.10819320  0.00000000  1
  Mo  Mo0  1  0.50000000  0.50000000  0.00000000  1
loop_
_geom_bond_atom_site_label_1
_geom_bond_atom_site_label_2
_geom_bond_distance
_geom_bond_site_symmetry_2
Ta0 V0 2.737190 1_655
Ta0 V0 2.737190 1_656
Ta1 V0 2.737190 1_565
Ta1 V0 2.737190 1_566
Ta2 V0 2.737190 1_556
Ta2 V0 2.737190 1_555
Ta3 V0 2.737190 1_665
Ta3 V0 2.737190 1_666
B0 B1 1.874174 1_455
B0 Ta3 2.410211 1_455
B0 Ta3 2.410211 1_454
B0 Ta1 2.428123 1_554
B0 Ta1 2.428123 1_555
B0 Ta2 2.439612 1_555
B0 Ta2 2.439612 1_554
B0 V0 2.446394 1_565
B0 Mo0 2.464975 1_555
B1 Ta2 2.410211 1_655
B1 Ta2 2.410211 1_654
B1 Ta0 2.428123 1_555
B1 Ta0 2.428123 1_554
B1 Ta3 2.439612 1_554
B1 Ta3 2.439612 1_555
B1 V0 2.446394 1_655
B1 Mo0 2.464975 1_555
B2 B3 1.874174 1_565
B2 Ta0 2.410211 1_564
B2 Ta0 2.410211 1_565
B2 Ta3 2.428123 1_555
B2 Ta3 2.428123 1_554
B2 Ta1 2.439612 1_555
B2 Ta1 2.439612 1_554
B2 V0 2.446394 1_665
B2 Mo0 2.464975 1_555
B3 Ta1 2.410211 1_544
B3 Ta1 2.410211 1_545
B3 Ta2 2.428123 1_554
B3 Ta2 2.428123 1_555
B3 Ta0 2.439612 1_555
B3 Ta0 2.439612 1_554
B3 V0 2.446394 1_555
B3 Mo0 2.464975 1_555
Mo0 Ta3 2.769136 1_555
Mo0 Ta3 2.769136 1_554
Mo0 Ta1 2.769136 1_554
Mo0 Ta1 2.769136 1_555
Mo0 Ta0 2.769136 1_555
Mo0 Ta0 2.769136 1_554
Mo0 Ta2 2.769136 1_555
Mo0 Ta2 2.769136 1_554
