# generated using pymatgen
data_Ti8Al14AsRu7
_symmetry_space_group_name_H-M   'P 1'
_cell_length_a   8.59613755
_cell_length_b   8.59613757
_cell_length_c   8.59613785
_cell_angle_alpha   120.09641811
_cell_angle_beta   119.90098310
_cell_angle_gamma   90.00233101
_symmetry_Int_Tables_number   1
_chemical_formula_structural   Ti8Al14AsRu7
_chemical_formula_sum   'Ti8 Al14 As1 Ru7'
_cell_volume   449.16100834
_cell_formula_units_Z   1
loop_
 _symmetry_equiv_pos_site_id
 _symmetry_equiv_pos_as_xyz
  1  'x, y, z'
loop_
 _atom_site_type_symbol
 _atom_site_label
 _atom_site_symmetry_multiplicity
 _atom_site_fract_x
 _atom_site_fract_y
 _atom_site_fract_z
 _atom_site_occupancy
  Ti  Ti0  1  0.79617192  0.29063621  0.07849872  1
  Ti  Ti1  1  0.21213649  0.29063621  0.49446429  1
  Ti  Ti2  1  0.20761198  0.70761198  0.50000000  1
  Ti  Ti3  1  0.21213649  0.71767220  0.92150128  1
  Ti  Ti4  1  0.79617192  0.71767220  0.50553571  1
  Ti  Ti5  1  0.78369068  0.28369068  0.50000000  1
  Ti  Ti6  1  0.37975221  0.11939234  0.73963913  1
  Ti  Ti7  1  0.37975221  0.64011408  0.26036087  1
  Al  Al0  1  0.16118735  0.33820291  0.17701456  1
  Al  Al1  1  0.16118735  0.98417479  0.82298544  1
  Al  Al2  1  0.15816893  0.34077573  0.81739320  1
  Al  Al3  1  0.52338153  0.34077573  0.18260680  1
  Al  Al4  1  0.84018789  0.65906928  0.81888339  1
  Al  Al5  1  0.84018789  0.02130450  0.18111661  1
  Al  Al6  1  0.83867355  0.66005328  0.17862128  1
  Al  Al7  1  0.48143200  0.66005328  0.82137872  1
  Al  Al8  1  0.38007964  0.11959145  0.26048919  1
  Al  Al9  1  0.85910325  0.11959145  0.73951081  1
  Al  Al10  1  0.61942910  0.87800591  0.25857581  1
  Al  Al11  1  0.61942910  0.36085329  0.74142419  1
  Al  Al12  1  0.62066721  0.87926306  0.74140415  1
  Al  Al13  1  0.13785790  0.87926306  0.25859585  1
  As  As0  1  0.99609530  0.49609530  0.50000000  1
  Ru  Ru0  1  0.99993978  0.00009183  0.50097384  1
  Ru  Ru1  1  0.49911799  0.00009183  0.00015204  1
  Ru  Ru2  1  0.49870880  0.49870880  0.00000000  1
  Ru  Ru3  1  0.49911799  0.49896595  0.49902616  1
  Ru  Ru4  1  0.99993978  0.49896595  0.99984796  1
  Ru  Ru5  1  0.00022341  0.00022341  0.00000000  1
  Ru  Ru6  1  0.49845434  0.99845434  0.50000000  1
loop_
_geom_bond_atom_site_label_1
_geom_bond_atom_site_label_2
_geom_bond_distance
_geom_bond_site_symmetry_2
Al0 Ru5 2.477419 1_555
Al0 Ru4 2.481268 1_454
Al0 Ru3 2.481275 1_555
Al1 Ru5 2.477416 1_566
Al1 Ru0 2.481265 1_465
Al1 Ru1 2.481280 1_566
Al2 Ru4 2.479340 1_455
Al2 Ru0 2.479341 1_455
Al2 Ru2 2.481423 1_556
Al3 Ru3 2.479335 1_555
Al3 Ru1 2.479342 1_555
Al3 Ru2 2.481425 1_555
Al4 Ru5 2.490349 1_666
Al4 Ru4 2.493452 1_555
Al4 Ru3 2.493467 1_555
Al5 Ru5 2.490334 1_655
Al5 Ru1 2.493467 1_555
Al5 Ru0 2.493467 1_555
Al6 Ru0 2.488121 1_565
Al6 Ru4 2.488128 1_554
Al6 Ru2 2.492325 1_555
Al7 Ru1 2.488121 1_566
Al7 Ru3 2.488121 1_555
Al7 Ru2 2.492333 1_556
Al8 Ru6 2.533812 1_545
Al8 Ru3 2.662345 1_555
Al8 Ru1 2.662352 1_555
Al8 Ru5 2.671085 1_555
Al9 Ru6 2.533819 1_545
Al9 Ru0 2.662338 1_555
Al9 Ru4 2.662345 1_555
Al9 Ru5 2.671091 1_656
Al10 Ru6 2.541092 1_555
Al10 Ru2 2.660817 1_555
Al10 Ru1 2.674593 1_565
Al10 Ru0 2.674600 1_565
Al11 Ru6 2.541092 1_545
Al11 Ru2 2.660810 1_556
Al11 Ru3 2.674600 1_555
Al11 Ru4 2.674600 1_555
Al12 Ru6 2.533491 1_555
Al12 Ru1 2.667943 1_566
Al12 Ru3 2.667943 1_555
Al12 Ru5 2.668041 1_666
Al13 Ru6 2.533498 1_555
Al13 Ru0 2.667936 1_465
Al13 Ru4 2.667943 1_454
Al13 Ru5 2.668041 1_565
As0 Ti1 2.564088 1_655
As0 Ti4 2.564088 1_555
As0 Ti3 2.564094 1_655
As0 Ti0 2.564094 1_555
As0 Ti2 2.571308 1_655
As0 Ti5 2.582102 1_555
Ru0 Ti6 2.670552 1_655
Ru1 Ti6 2.670559 1_554
Ru2 Ti6 2.661889 1_554
Ru2 Ti7 2.661897 1_555
Ru3 Ti7 2.670559 1_555
Ru4 Ti7 2.670552 1_656
Ru5 Ti3 3.042229 1_544
Ru5 Ti0 3.042229 1_455
Ru5 Ti4 3.042230 1_444
Ru5 Ti1 3.042230 1_555
Ru6 Ti7 2.512638 1_555
Ru6 Ti6 2.512645 1_565
