# generated using pymatgen
data_Rb4NaAlTe4
_symmetry_space_group_name_H-M   'P 1'
_cell_length_a   9.07222423
_cell_length_b   9.07222506
_cell_length_c   9.07222319
_cell_angle_alpha   131.93739063
_cell_angle_beta   129.95398374
_cell_angle_gamma   71.91121965
_symmetry_Int_Tables_number   1
_chemical_formula_structural   Rb4NaAlTe4
_chemical_formula_sum   'Rb4 Na1 Al1 Te4'
_cell_volume   416.45793127
_cell_formula_units_Z   1
loop_
 _symmetry_equiv_pos_site_id
 _symmetry_equiv_pos_as_xyz
  1  'x, y, z'
loop_
 _atom_site_type_symbol
 _atom_site_label
 _atom_site_symmetry_multiplicity
 _atom_site_fract_x
 _atom_site_fract_y
 _atom_site_fract_z
 _atom_site_occupancy
  Rb  Rb0  1  0.46931426  0.13283494  0.31564028  1
  Rb  Rb1  1  0.81719466  0.65367398  0.18435972  1
  Rb  Rb2  1  0.53068574  0.84632602  0.66352068  1
  Rb  Rb3  1  0.18280534  0.36716506  0.83647932  1
  Na  Na0  1  0.00000000  0.75000000  0.75000000  1
  Al  Al0  1  0.00000000  0.25000000  0.25000000  1
  Te  Te0  1  0.08698089  0.93207426  0.23100480  1
  Te  Te1  1  0.91301911  0.14402191  0.84509137  1
  Te  Te2  1  0.29893054  0.56792574  0.65490863  1
  Te  Te3  1  0.70106946  0.35597809  0.26899520  1
loop_
_geom_bond_atom_site_label_1
_geom_bond_atom_site_label_2
_geom_bond_distance
_geom_bond_site_symmetry_2
Rb0 Te2 3.677790 1_555
Rb0 Te3 3.691730 1_555
Rb0 Te1 3.748980 1_555
Rb0 Te0 3.817243 1_545
Rb0 Te1 4.036702 1_454
Rb0 Te2 4.067319 1_544
Rb1 Te1 3.677797 1_554
Rb1 Te0 3.691716 1_655
Rb1 Te2 3.748975 1_554
Rb1 Te3 3.817226 1_555
Rb1 Te2 4.036712 1_655
Rb1 Te1 4.067312 1_565
Rb2 Te3 3.677790 1_566
Rb2 Te2 3.691731 1_555
Rb2 Te0 3.748981 1_555
Rb2 Te1 3.817242 1_565
Rb2 Te0 4.036703 1_656
Rb2 Te3 4.067319 1_555
Rb3 Te0 3.677782 1_545
Rb3 Te1 3.691715 1_455
Rb3 Te3 3.748975 1_556
Rb3 Te2 3.817226 1_555
Rb3 Te3 4.036712 1_455
Rb3 Te0 4.067326 1_556
Na0 Te1 3.024204 1_465
Na0 Te2 3.024205 1_555
Na0 Te3 3.024205 1_455
Na0 Te0 3.024214 1_556
Na0 Rb1 3.717935 1_455
Na0 Rb0 3.717936 1_566
Na0 Rb2 3.717936 1_455
Na0 Rb3 3.717936 1_555
Al0 Te3 2.658657 1_455
Al0 Te2 2.658657 1_555
Al0 Te0 2.658657 1_545
Al0 Te1 2.658665 1_454
Al0 Rb3 3.793670 1_555
Al0 Rb2 3.793671 1_444
Al0 Rb0 3.793671 1_555
Al0 Rb1 3.793671 1_455
