# generated using pymatgen
data_Re2PdO8
_symmetry_space_group_name_H-M   'P 1'
_cell_length_a   5.82498744
_cell_length_b   5.82498747
_cell_length_c   6.45939606
_cell_angle_alpha   90.00000000
_cell_angle_beta   90.00000000
_cell_angle_gamma   120.00000602
_symmetry_Int_Tables_number   1
_chemical_formula_structural   Re2PdO8
_chemical_formula_sum   'Re2 Pd1 O8'
_cell_volume   189.80712355
_cell_formula_units_Z   1
loop_
 _symmetry_equiv_pos_site_id
 _symmetry_equiv_pos_as_xyz
  1  'x, y, z'
loop_
 _atom_site_type_symbol
 _atom_site_label
 _atom_site_symmetry_multiplicity
 _atom_site_fract_x
 _atom_site_fract_y
 _atom_site_fract_z
 _atom_site_occupancy
  Re  Re0  1  0.66666700  0.33333300  0.71872090  1
  Re  Re1  1  0.33333300  0.66666700  0.28127910  1
  Pd  Pd0  1  0.00000000  0.00000000  0.00000000  1
  O  O0  1  0.34329659  0.21463957  0.80761105  1
  O  O1  1  0.21463957  0.87134299  0.19238895  1
  O  O2  1  0.12865701  0.34329659  0.19238895  1
  O  O3  1  0.66666700  0.33333300  0.45196859  1
  O  O4  1  0.33333300  0.66666700  0.54803141  1
  O  O5  1  0.87134299  0.65670341  0.80761105  1
  O  O6  1  0.78536043  0.12865701  0.80761105  1
  O  O7  1  0.65670341  0.78536043  0.19238895  1
loop_
_geom_bond_atom_site_label_1
_geom_bond_atom_site_label_2
_geom_bond_distance
_geom_bond_site_symmetry_2
O0 Re0 1.747408 1_555
O0 Pd0 2.146194 1_556
O1 Re1 1.747403 1_555
O1 Pd0 2.146195 1_565
O2 Re1 1.747407 1_555
O2 Pd0 2.146195 1_555
O3 Re0 1.723059 1_555
O4 Re1 1.723059 1_555
O5 Re0 1.747407 1_555
O5 Pd0 2.146195 1_666
O6 Re0 1.747403 1_555
O6 Pd0 2.146195 1_656
O7 Re1 1.747408 1_555
O7 Pd0 2.146194 1_665
