# generated using pymatgen
data_K4Rb2Zn2O5
_symmetry_space_group_name_H-M   'P 1'
_cell_length_a   6.70362969
_cell_length_b   6.70362969
_cell_length_c   11.89022833
_cell_angle_alpha   90.00000000
_cell_angle_beta   90.00000000
_cell_angle_gamma   90.00000000
_symmetry_Int_Tables_number   1
_chemical_formula_structural   K4Rb2Zn2O5
_chemical_formula_sum   'K8 Rb4 Zn4 O10'
_cell_volume   534.33082145
_cell_formula_units_Z   2
loop_
 _symmetry_equiv_pos_site_id
 _symmetry_equiv_pos_as_xyz
  1  'x, y, z'
loop_
 _atom_site_type_symbol
 _atom_site_label
 _atom_site_symmetry_multiplicity
 _atom_site_fract_x
 _atom_site_fract_y
 _atom_site_fract_z
 _atom_site_occupancy
  K  K0  1  0.50000000  0.00000000  0.25000000  1
  K  K1  1  0.50000000  0.00000000  0.75000000  1
  K  K2  1  0.00000000  0.00000000  0.78031738  1
  K  K3  1  0.50000000  0.50000000  0.28031738  1
  K  K4  1  0.50000000  0.50000000  0.71968262  1
  K  K5  1  0.00000000  0.00000000  0.21968262  1
  K  K6  1  0.00000000  0.50000000  0.25000000  1
  K  K7  1  0.00000000  0.50000000  0.75000000  1
  Rb  Rb0  1  0.32328488  0.32328488  0.00000000  1
  Rb  Rb1  1  0.17671512  0.82328488  0.50000000  1
  Rb  Rb2  1  0.82328488  0.17671512  0.50000000  1
  Rb  Rb3  1  0.67671512  0.67671512  0.00000000  1
  Zn  Zn0  1  0.20171034  0.79828966  0.00000000  1
  Zn  Zn1  1  0.70171034  0.70171034  0.50000000  1
  Zn  Zn2  1  0.29828966  0.29828966  0.50000000  1
  Zn  Zn3  1  0.79828966  0.20171034  0.00000000  1
  O  O0  1  0.50000000  0.50000000  0.50000000  1
  O  O1  1  0.00000000  0.00000000  0.00000000  1
  O  O2  1  0.78994375  0.78994375  0.35940255  1
  O  O3  1  0.21005625  0.21005625  0.35940255  1
  O  O4  1  0.78994375  0.78994375  0.64059745  1
  O  O5  1  0.28994375  0.71005625  0.85940255  1
  O  O6  1  0.71005625  0.28994375  0.85940255  1
  O  O7  1  0.71005625  0.28994375  0.14059745  1
  O  O8  1  0.21005625  0.21005625  0.64059745  1
  O  O9  1  0.28994375  0.71005625  0.14059745  1
loop_
_geom_bond_atom_site_label_1
_geom_bond_atom_site_label_2
_geom_bond_distance
_geom_bond_site_symmetry_2
K0 O2 2.729994 1_545
K0 O3 2.729994 1_555
K0 O7 2.729994 1_555
K0 O9 2.729994 1_545
K1 O6 2.729994 1_555
K1 O5 2.729994 1_545
K1 O4 2.729994 1_545
K1 O8 2.729994 1_555
K2 O8 2.593383 1_555
K2 O4 2.593383 1_445
K2 O1 2.612076 1_556
K2 O6 2.905166 1_455
K2 O5 2.905166 1_545
K3 O7 2.593383 1_555
K3 O9 2.593383 1_555
K3 O0 2.612076 1_555
K3 O2 2.905166 1_555
K3 O3 2.905166 1_555
K4 O5 2.593383 1_555
K4 O6 2.593383 1_555
K4 O0 2.612076 1_555
K4 O4 2.905166 1_555
K4 O8 2.905166 1_555
K5 O3 2.593383 1_555
K5 O2 2.593383 1_445
K5 O1 2.612076 1_555
K5 O9 2.905166 1_545
K5 O7 2.905166 1_455
K6 O2 2.729994 1_455
K6 O3 2.729994 1_555
K6 O9 2.729994 1_555
K6 O7 2.729994 1_455
K7 O5 2.729994 1_555
K7 O6 2.729994 1_455
K7 O4 2.729994 1_455
K7 O8 2.729994 1_555
O0 Zn1 1.912287 1_555
O0 Zn2 1.912287 1_555
O0 Rb1 3.064858 1_555
O0 Rb2 3.064858 1_555
O1 Zn3 1.912287 1_455
O1 Zn0 1.912287 1_545
O1 Rb0 3.064858 1_555
O1 Rb3 3.064858 1_445
O2 Zn1 1.869333 1_555
O2 Rb2 3.093077 1_565
O2 Rb1 3.093077 1_655
O3 Zn2 1.869333 1_555
O3 Rb2 3.093077 1_455
O3 Rb1 3.093077 1_545
O4 Zn1 1.869333 1_555
O4 Rb1 3.093077 1_655
O4 Rb2 3.093077 1_565
O5 Zn0 1.869333 1_556
O5 Rb0 3.093077 1_556
O5 Rb3 3.093077 1_556
O6 Zn3 1.869333 1_556
O6 Rb0 3.093077 1_556
O6 Rb3 3.093077 1_556
O7 Zn3 1.869333 1_555
O7 Rb0 3.093077 1_555
O7 Rb3 3.093077 1_555
O8 Zn2 1.869333 1_555
O8 Rb1 3.093077 1_545
O8 Rb2 3.093077 1_455
O9 Zn0 1.869333 1_555
O9 Rb0 3.093077 1_555
O9 Rb3 3.093077 1_555
