# generated using pymatgen
data_TiTcSnRh
_symmetry_space_group_name_H-M   'P 1'
_cell_length_a   4.45369828
_cell_length_b   4.45369888
_cell_length_c   4.45369843
_cell_angle_alpha   60.00000335
_cell_angle_beta   59.99999887
_cell_angle_gamma   59.99999535
_symmetry_Int_Tables_number   1
_chemical_formula_structural   TiTcSnRh
_chemical_formula_sum   'Ti1 Tc1 Sn1 Rh1'
_cell_volume   62.46653898
_cell_formula_units_Z   1
loop_
 _symmetry_equiv_pos_site_id
 _symmetry_equiv_pos_as_xyz
  1  'x, y, z'
loop_
 _atom_site_type_symbol
 _atom_site_label
 _atom_site_symmetry_multiplicity
 _atom_site_fract_x
 _atom_site_fract_y
 _atom_site_fract_z
 _atom_site_occupancy
  Ti  Ti0  1  0.00000000  0.00000000  0.00000000  1
  Tc  Tc0  1  0.25000000  0.25000000  0.25000000  1
  Sn  Sn0  1  0.50000000  0.50000000  0.50000000  1
  Rh  Rh0  1  0.75000000  0.75000000  0.75000000  1
loop_
_geom_bond_atom_site_label_1
_geom_bond_atom_site_label_2
_geom_bond_distance
_geom_bond_site_symmetry_2
Tc0 Ti0 2.727322 1_655
Tc0 Ti0 2.727322 1_555
Tc0 Ti0 2.727322 1_556
Tc0 Ti0 2.727322 1_565
Sn0 Tc0 2.727322 1_655
Sn0 Tc0 2.727322 1_555
Sn0 Tc0 2.727322 1_556
Sn0 Tc0 2.727322 1_565
Sn0 Ti0 3.149240 1_565
Sn0 Ti0 3.149240 1_656
Sn0 Ti0 3.149240 1_655
Sn0 Ti0 3.149240 1_566
Sn0 Ti0 3.149241 1_665
Sn0 Ti0 3.149241 1_556
Rh0 Ti0 2.727322 1_566
Rh0 Sn0 2.727322 1_655
Rh0 Sn0 2.727322 1_555
Rh0 Ti0 2.727322 1_666
Rh0 Ti0 2.727322 1_665
Rh0 Sn0 2.727322 1_556
Rh0 Ti0 2.727322 1_656
Rh0 Sn0 2.727322 1_565
Rh0 Tc0 3.149240 1_656
Rh0 Tc0 3.149240 1_655
Rh0 Tc0 3.149240 1_566
Rh0 Tc0 3.149240 1_565
Rh0 Tc0 3.149241 1_556
Rh0 Tc0 3.149241 1_665
