# generated using pymatgen
data_Hf16Pt8CN
_symmetry_space_group_name_H-M   'P 1'
_cell_length_a   8.77333314
_cell_length_b   8.77825330
_cell_length_c   8.77333168
_cell_angle_alpha   120.16372555
_cell_angle_beta   119.77377277
_cell_angle_gamma   90.03829496
_symmetry_Int_Tables_number   1
_chemical_formula_structural   Hf16Pt8CN
_chemical_formula_sum   'Hf16 Pt8 C1 N1'
_cell_volume   478.05976139
_cell_formula_units_Z   1
loop_
 _symmetry_equiv_pos_site_id
 _symmetry_equiv_pos_as_xyz
  1  'x, y, z'
loop_
 _atom_site_type_symbol
 _atom_site_label
 _atom_site_symmetry_multiplicity
 _atom_site_fract_x
 _atom_site_fract_y
 _atom_site_fract_z
 _atom_site_occupancy
  Hf  Hf0  1  0.94148433  0.19271748  0.75123315  1
  Hf  Hf1  1  0.31213487  0.56182117  0.74968630  1
  Hf  Hf2  1  0.94016586  0.56090715  0.75699655  1
  Hf  Hf3  1  0.30294992  0.18167868  0.74149886  1
  Hf  Hf4  1  0.94017983  0.18167868  0.37872976  1
  Hf  Hf5  1  0.30391060  0.56090715  0.12074129  1
  Hf  Hf6  1  0.05851567  0.80728252  0.24876685  1
  Hf  Hf7  1  0.68786513  0.43817883  0.25031370  1
  Hf  Hf8  1  0.05983414  0.43909285  0.24300345  1
  Hf  Hf9  1  0.69705008  0.81832132  0.25850114  1
  Hf  Hf10  1  0.05982017  0.81832132  0.62127024  1
  Hf  Hf11  1  0.69608940  0.43909285  0.87925871  1
  Hf  Hf12  1  0.50000000  0.00000000  0.00000000  1
  Hf  Hf13  1  0.50000000  0.50000000  0.50000000  1
  Hf  Hf14  1  0.50000000  0.00000000  0.50000000  1
  Hf  Hf15  1  0.00000000  0.00000000  0.00000000  1
  Pt  Pt0  1  0.72099552  0.77617621  0.55518069  1
  Pt  Pt1  1  0.72007612  0.16560321  0.94552809  1
  Pt  Pt2  1  0.71840074  0.77904015  0.94142172  1
  Pt  Pt3  1  0.33761943  0.77904015  0.56063942  1
  Pt  Pt4  1  0.27900448  0.22382379  0.44481931  1
  Pt  Pt5  1  0.27992388  0.83439679  0.05447191  1
  Pt  Pt6  1  0.28159926  0.22095985  0.05857828  1
  Pt  Pt7  1  0.66238057  0.22095985  0.43936058  1
  C  C0  1  0.00000000  0.50000000  0.00000000  1
  N  N0  1  0.00000000  0.00000000  0.50000000  1
loop_
_geom_bond_atom_site_label_1
_geom_bond_atom_site_label_2
_geom_bond_distance
_geom_bond_site_symmetry_2
Hf0 N0 2.315489 1_655
Hf0 Pt6 2.751806 1_656
Hf0 Pt7 2.751810 1_555
Hf0 Pt1 3.229745 1_555
Hf0 Pt0 3.230506 1_545
Hf1 Pt5 2.697565 1_556
Hf1 Pt4 2.700617 1_555
Hf1 Pt2 3.159535 1_555
Hf1 Pt3 3.159538 1_555
Hf2 Pt5 2.725403 1_656
Hf2 Pt7 2.738348 1_555
Hf2 Pt2 3.176149 1_555
Hf2 Pt0 3.223241 1_555
Hf3 N0 2.258905 1_555
Hf3 Pt4 2.716741 1_555
Hf3 Pt6 2.728784 1_556
Hf3 Pt3 3.153958 1_545
Hf3 Pt1 3.219521 1_555
Hf4 N0 2.258899 1_655
Hf4 Pt4 2.716745 1_655
Hf4 Pt7 2.728788 1_555
Hf4 Pt2 3.153958 1_544
Hf4 Pt1 3.219520 1_554
Hf5 Pt5 2.725407 1_555
Hf5 Pt6 2.738344 1_555
Hf5 Pt3 3.176144 1_555
Hf5 Pt0 3.223242 1_555
Hf6 N0 2.315489 1_565
Hf6 Pt2 2.751806 1_454
Hf6 Pt3 2.751810 1_555
Hf6 Pt5 3.229745 1_555
Hf6 Pt4 3.230506 1_565
Hf7 Pt1 2.697565 1_554
Hf7 Pt0 2.700617 1_555
Hf7 Pt6 3.159535 1_555
Hf7 Pt7 3.159538 1_555
Hf8 Pt1 2.725403 1_454
Hf8 Pt3 2.738348 1_555
Hf8 Pt6 3.176149 1_555
Hf8 Pt4 3.223241 1_555
Hf9 N0 2.258905 1_665
Hf9 Pt0 2.716741 1_555
Hf9 Pt2 2.728784 1_554
Hf9 Pt7 3.153958 1_565
Hf9 Pt5 3.219521 1_555
Hf10 N0 2.258899 1_565
Hf10 Pt0 2.716745 1_455
Hf10 Pt3 2.728788 1_555
Hf10 Pt6 3.153958 1_566
Hf10 Pt5 3.219520 1_556
Hf11 Pt1 2.725407 1_555
Hf11 Pt2 2.738344 1_555
Hf11 Pt7 3.176144 1_555
Hf11 Pt4 3.223242 1_555
Hf12 Pt2 2.771097 1_544
Hf12 Pt6 2.771097 1_555
Hf12 Pt7 2.771098 1_555
Hf12 Pt3 2.771098 1_544
Hf12 Pt1 2.771366 1_554
Hf12 Pt5 2.771366 1_545
Hf13 Pt0 2.784430 1_555
Hf13 Pt4 2.784430 1_555
Hf13 Pt3 2.785739 1_555
Hf13 Pt7 2.785739 1_555
Hf13 Pt2 2.785744 1_555
Hf13 Pt6 2.785744 1_555
Hf14 Pt7 2.803716 1_555
Hf14 Pt3 2.803716 1_545
Hf14 Pt4 2.807617 1_555
Hf14 Pt0 2.807617 1_545
Hf14 Pt1 2.812521 1_555
Hf14 Pt5 2.812521 1_545
Hf15 Pt6 2.803721 1_555
Hf15 Pt2 2.803721 1_444
Hf15 Pt4 2.807617 1_555
Hf15 Pt0 2.807617 1_444
Hf15 Pt5 2.812515 1_545
Hf15 Pt1 2.812515 1_454
C0 Hf8 2.267382 1_555
C0 Hf2 2.267382 1_454
C0 Hf5 2.267382 1_555
C0 Hf11 2.267382 1_454
C0 Hf6 2.296093 1_555
C0 Hf0 2.296093 1_454
