# generated using pymatgen
data_YGaTeO6
_symmetry_space_group_name_H-M   'P 1'
_cell_length_a   5.10386565
_cell_length_b   5.10351792
_cell_length_c   9.76118381
_cell_angle_alpha   90.00224486
_cell_angle_beta   89.99881980
_cell_angle_gamma   119.99775844
_symmetry_Int_Tables_number   1
_chemical_formula_structural   YGaTeO6
_chemical_formula_sum   'Y2 Ga2 Te2 O12'
_cell_volume   220.19720859
_cell_formula_units_Z   2
loop_
 _symmetry_equiv_pos_site_id
 _symmetry_equiv_pos_as_xyz
  1  'x, y, z'
loop_
 _atom_site_type_symbol
 _atom_site_label
 _atom_site_symmetry_multiplicity
 _atom_site_fract_x
 _atom_site_fract_y
 _atom_site_fract_z
 _atom_site_occupancy
  Y  Y0  1  0.00000000  0.00000000  0.00000000  1
  Y  Y1  1  0.00000000  0.00000000  0.50000000  1
  Ga  Ga0  1  0.33317817  0.66658808  0.25000100  1
  Ga  Ga1  1  0.66682183  0.33341192  0.74999900  1
  Te  Te0  1  0.33347470  0.66673785  0.75000000  1
  Te  Te1  1  0.66652530  0.33326215  0.25000000  1
  O  O0  1  0.36651785  0.35709541  0.14015855  1
  O  O1  1  0.64275030  0.00940543  0.14016242  1
  O  O2  1  0.99039767  0.63330702  0.14015743  1
  O  O3  1  0.63348215  0.64290459  0.85984145  1
  O  O4  1  0.35724970  0.99059457  0.85983758  1
  O  O5  1  0.00960233  0.36669298  0.85984257  1
  O  O6  1  0.64275030  0.63334587  0.35983758  1
  O  O7  1  0.36651885  0.00942244  0.35984145  1
  O  O8  1  0.99039867  0.35709366  0.35984157  1
  O  O9  1  0.35724970  0.36665413  0.64016242  1
  O  O10  1  0.63348115  0.99057756  0.64015855  1
  O  O11  1  0.00960133  0.64290634  0.64015843  1
loop_
_geom_bond_atom_site_label_1
_geom_bond_atom_site_label_2
_geom_bond_distance
_geom_bond_site_symmetry_2
Ga0 O7 1.985440 1_565
Ga0 O0 1.985444 1_555
Ga0 O8 1.985460 1_455
Ga0 O2 1.985489 1_455
Ga0 O6 1.985654 1_555
Ga0 O1 1.985670 1_565
Ga1 O10 1.985440 1_545
Ga1 O3 1.985444 1_555
Ga1 O11 1.985460 1_655
Ga1 O5 1.985489 1_655
Ga1 O9 1.985654 1_555
Ga1 O4 1.985670 1_545
O0 Te1 1.922302 1_555
O0 Y0 2.298558 1_555
O1 Te1 1.922321 1_555
O1 Y0 2.299168 1_655
O2 Te1 1.922461 1_555
O2 Y0 2.298874 1_665
O3 Te0 1.922302 1_555
O3 Y0 2.298558 1_666
O4 Te0 1.922321 1_555
O4 Y0 2.299168 1_566
O5 Te0 1.922461 1_555
O5 Y0 2.298874 1_556
O6 Te1 1.922329 1_555
O6 Y1 2.299167 1_665
O7 Te1 1.922296 1_555
O7 Y1 2.298560 1_555
O8 Te1 1.922454 1_555
O8 Y1 2.298890 1_655
O9 Te0 1.922329 1_555
O9 Y1 2.299167 1_555
O10 Te0 1.922296 1_555
O10 Y1 2.298560 1_665
O11 Te0 1.922454 1_555
O11 Y1 2.298890 1_565
