# generated using pymatgen
data_Cs3Sc(AsSe2)6
_symmetry_space_group_name_H-M   'P 1'
_cell_length_a   9.89534631
_cell_length_b   9.89534690
_cell_length_c   8.61284111
_cell_angle_alpha   90.00000000
_cell_angle_beta   90.00000000
_cell_angle_gamma   119.99999803
_symmetry_Int_Tables_number   1
_chemical_formula_structural   Cs3Sc(AsSe2)6
_chemical_formula_sum   'Cs3 Sc1 As6 Se12'
_cell_volume   730.36356099
_cell_formula_units_Z   1
loop_
 _symmetry_equiv_pos_site_id
 _symmetry_equiv_pos_as_xyz
  1  'x, y, z'
loop_
 _atom_site_type_symbol
 _atom_site_label
 _atom_site_symmetry_multiplicity
 _atom_site_fract_x
 _atom_site_fract_y
 _atom_site_fract_z
 _atom_site_occupancy
  Cs  Cs0  1  0.00000000  0.00000000  0.00000000  1
  Cs  Cs1  1  0.33333300  0.66666700  0.85672908  1
  Cs  Cs2  1  0.66666700  0.33333300  0.14327092  1
  Sc  Sc0  1  0.00000000  0.00000000  0.50000000  1
  As  As0  1  0.28332400  0.83408056  0.40343291  1
  As  As1  1  0.16591944  0.44924344  0.40343291  1
  As  As2  1  0.55075656  0.71667600  0.40343291  1
  As  As3  1  0.71667600  0.16591944  0.59656709  1
  As  As4  1  0.83408056  0.55075656  0.59656709  1
  As  As5  1  0.44924344  0.28332400  0.59656709  1
  Se  Se0  1  0.24409201  0.03748607  0.31725205  1
  Se  Se1  1  0.96251393  0.20660794  0.31725205  1
  Se  Se2  1  0.79339206  0.75590799  0.31725205  1
  Se  Se3  1  0.75590799  0.96251393  0.68274795  1
  Se  Se4  1  0.03748607  0.79339206  0.68274795  1
  Se  Se5  1  0.20660794  0.24409201  0.68274795  1
  Se  Se6  1  0.52138127  0.90838820  0.25086798  1
  Se  Se7  1  0.09161180  0.61299107  0.25086798  1
  Se  Se8  1  0.38700893  0.47861873  0.25086798  1
  Se  Se9  1  0.47861873  0.09161180  0.74913202  1
  Se  Se10  1  0.90838820  0.38700893  0.74913202  1
  Se  Se11  1  0.61299107  0.52138127  0.74913202  1
loop_
_geom_bond_atom_site_label_1
_geom_bond_atom_site_label_2
_geom_bond_distance
_geom_bond_site_symmetry_2
Cs0 Se0 3.541457 1_555
Cs0 Se3 3.541457 1_444
Cs0 Se2 3.541461 1_445
Cs0 Se5 3.541461 1_554
Cs0 Se1 3.541469 1_455
Cs0 Se4 3.541469 1_544
Cs1 Se11 3.816033 1_555
Cs1 Se10 3.816040 1_455
Cs1 Se9 3.816042 1_565
Cs1 Se4 4.007402 1_555
Cs1 Se3 4.007422 1_555
Cs1 Se5 4.007428 1_555
Cs1 Se7 4.031949 1_556
Cs1 Se6 4.031954 1_556
Cs1 Se8 4.031964 1_556
Cs2 Se8 3.816033 1_555
Cs2 Se7 3.816040 1_655
Cs2 Se6 3.816042 1_545
Cs2 Se1 4.007402 1_555
Cs2 Se0 4.007422 1_555
Cs2 Se2 4.007428 1_555
Cs2 Se10 4.031949 1_554
Cs2 Se9 4.031954 1_554
Cs2 Se11 4.031964 1_554
Sc0 Se3 2.748288 1_445
Sc0 Se0 2.748288 1_555
Sc0 Se5 2.748294 1_555
Sc0 Se2 2.748294 1_445
Sc0 Se4 2.748304 1_545
Sc0 Se1 2.748304 1_455
As0 Se0 2.352506 1_565
As0 Se7 2.441608 1_555
As0 Se6 2.466642 1_555
As1 Se1 2.352494 1_455
As1 Se8 2.441615 1_555
As1 Se7 2.466626 1_555
As2 Se2 2.352487 1_555
As2 Se6 2.441598 1_555
As2 Se8 2.466638 1_555
As3 Se3 2.352506 1_545
As3 Se10 2.441608 1_555
As3 Se9 2.466642 1_555
As4 Se4 2.352494 1_655
As4 Se11 2.441615 1_555
As4 Se10 2.466626 1_555
As5 Se5 2.352487 1_555
As5 Se9 2.441598 1_555
As5 Se11 2.466638 1_555
