# generated using pymatgen
data_SrH5Ir
_symmetry_space_group_name_H-M   'P 1'
_cell_length_a   4.66801116
_cell_length_b   5.03003821
_cell_length_c   12.38653439
_cell_angle_alpha   90.00000000
_cell_angle_beta   90.00000000
_cell_angle_gamma   90.00000000
_symmetry_Int_Tables_number   1
_chemical_formula_structural   SrH5Ir
_chemical_formula_sum   'Sr4 H20 Ir4'
_cell_volume   290.83922773
_cell_formula_units_Z   4
loop_
 _symmetry_equiv_pos_site_id
 _symmetry_equiv_pos_as_xyz
  1  'x, y, z'
loop_
 _atom_site_type_symbol
 _atom_site_label
 _atom_site_symmetry_multiplicity
 _atom_site_fract_x
 _atom_site_fract_y
 _atom_site_fract_z
 _atom_site_occupancy
  Sr  Sr0  1  0.26430896  0.18100918  0.63630109  1
  Sr  Sr1  1  0.76430896  0.31899082  0.36369891  1
  Sr  Sr2  1  0.23569104  0.81899082  0.13630109  1
  Sr  Sr3  1  0.73569104  0.68100918  0.86369891  1
  H  H0  1  0.71269341  0.36839403  0.55675011  1
  H  H1  1  0.21269341  0.13160597  0.44324989  1
  H  H2  1  0.78730659  0.63160597  0.05675011  1
  H  H3  1  0.28730659  0.86839403  0.94324989  1
  H  H4  1  0.02975690  0.09609677  0.81508298  1
  H  H5  1  0.52975690  0.40390323  0.18491702  1
  H  H6  1  0.47024310  0.90390323  0.31508298  1
  H  H7  1  0.97024310  0.59609677  0.68491702  1
  H  H8  1  0.22088654  0.49077667  0.86028342  1
  H  H9  1  0.72088654  0.00922333  0.13971658  1
  H  H10  1  0.27911346  0.50922333  0.36028342  1
  H  H11  1  0.77911346  0.99077667  0.63971658  1
  H  H12  1  0.52231293  0.15899234  0.82627784  1
  H  H13  1  0.02231293  0.34100766  0.17372216  1
  H  H14  1  0.97768707  0.84100766  0.32627784  1
  H  H15  1  0.47768707  0.65899234  0.67372216  1
  H  H16  1  0.94180102  0.15251428  0.98807747  1
  H  H17  1  0.44180102  0.34748572  0.01192253  1
  H  H18  1  0.55819898  0.84748572  0.48807747  1
  H  H19  1  0.05819898  0.65251428  0.51192253  1
  Ir  Ir0  1  0.25198816  0.18487909  0.90795958  1
  Ir  Ir1  1  0.75198816  0.31512091  0.09204042  1
  Ir  Ir2  1  0.24801184  0.81512091  0.40795958  1
  Ir  Ir3  1  0.74801184  0.68487909  0.59204042  1
loop_
_geom_bond_atom_site_label_1
_geom_bond_atom_site_label_2
_geom_bond_distance
_geom_bond_site_symmetry_2
H0 Ir3 1.659068 1_555
H0 Sr1 2.416156 1_555
H0 Sr0 2.498051 1_555
H1 Ir2 1.659068 1_545
H1 Sr0 2.416156 1_555
H1 Sr1 2.498051 1_455
H2 Ir1 1.659068 1_555
H2 Sr3 2.416156 1_554
H2 Sr2 2.498051 1_655
H3 Ir0 1.659068 1_565
H3 Sr2 2.416156 1_556
H3 Sr3 2.498051 1_555
H4 Ir0 1.612157 1_555
H4 Sr0 2.507024 1_555
H4 Sr3 2.570270 1_445
H5 Ir1 1.612157 1_555
H5 Sr1 2.507024 1_555
H5 Sr2 2.570270 1_555
H6 Ir2 1.612157 1_555
H6 Sr2 2.507024 1_555
H6 Sr1 2.570270 1_565
H7 Ir3 1.612157 1_555
H7 Sr3 2.507024 1_555
H7 Sr0 2.570270 1_655
H8 Ir0 1.654492 1_555
H8 Sr3 2.459099 1_455
H8 Sr3 2.586959 1_555
H9 Ir1 1.654492 1_555
H9 Sr2 2.459099 1_545
H9 Sr2 2.586959 1_645
H10 Ir2 1.654492 1_555
H10 Sr1 2.459099 1_555
H10 Sr1 2.586959 1_455
H11 Ir3 1.654492 1_555
H11 Sr0 2.459099 1_665
H11 Sr0 2.586959 1_565
H12 Ir0 1.622633 1_555
H12 Sr3 2.643388 1_545
H12 Sr0 2.645769 1_555
H12 Sr3 2.846332 1_555
H13 Ir1 1.622633 1_455
H13 Sr2 2.643388 1_555
H13 Sr1 2.645769 1_455
H13 Sr2 2.846332 1_545
H14 Ir2 1.622633 1_655
H14 Sr1 2.643388 1_565
H14 Sr2 2.645769 1_655
H14 Sr1 2.846332 1_555
H15 Ir3 1.622633 1_555
H15 Sr0 2.643388 1_555
H15 Sr3 2.645769 1_555
H15 Sr0 2.846332 1_565
H16 Ir0 1.762925 1_655
H16 Ir1 1.764185 1_556
H17 Ir1 1.762925 1_555
H17 Ir0 1.764185 1_554
H18 Ir2 1.762925 1_555
H18 Ir3 1.764185 1_555
H19 Ir3 1.762925 1_455
H19 Ir2 1.764185 1_555
