# generated using pymatgen
data_KSr4Sb2P
_symmetry_space_group_name_H-M   'P 1'
_cell_length_a   8.43045685
_cell_length_b   9.88200482
_cell_length_c   13.48715461
_cell_angle_alpha   90.00000000
_cell_angle_beta   90.00000000
_cell_angle_gamma   90.00000000
_symmetry_Int_Tables_number   1
_chemical_formula_structural   KSr4Sb2P
_chemical_formula_sum   'K4 Sr16 Sb8 P4'
_cell_volume   1123.61235935
_cell_formula_units_Z   4
loop_
 _symmetry_equiv_pos_site_id
 _symmetry_equiv_pos_as_xyz
  1  'x, y, z'
loop_
 _atom_site_type_symbol
 _atom_site_label
 _atom_site_symmetry_multiplicity
 _atom_site_fract_x
 _atom_site_fract_y
 _atom_site_fract_z
 _atom_site_occupancy
  K  K0  1  0.00734568  0.75000000  0.49957008  1
  K  K1  1  0.99265432  0.25000000  0.50042992  1
  K  K2  1  0.50734568  0.25000000  0.00042992  1
  K  K3  1  0.49265432  0.75000000  0.99957008  1
  Sr  Sr0  1  0.84329807  0.75000000  0.80000919  1
  Sr  Sr1  1  0.15670193  0.25000000  0.19999081  1
  Sr  Sr2  1  0.34329807  0.25000000  0.69999081  1
  Sr  Sr3  1  0.65670193  0.75000000  0.30000919  1
  Sr  Sr4  1  0.68820802  0.50227630  0.57298654  1
  Sr  Sr5  1  0.31179198  0.49772370  0.42701346  1
  Sr  Sr6  1  0.18820802  0.49772370  0.92701346  1
  Sr  Sr7  1  0.31179198  0.00227630  0.42701346  1
  Sr  Sr8  1  0.81179198  0.50227630  0.07298654  1
  Sr  Sr9  1  0.68820802  0.99772370  0.57298654  1
  Sr  Sr10  1  0.81179198  0.99772370  0.07298654  1
  Sr  Sr11  1  0.18820802  0.00227630  0.92701346  1
  Sr  Sr12  1  0.34182337  0.75000000  0.70140596  1
  Sr  Sr13  1  0.65817663  0.25000000  0.29859404  1
  Sr  Sr14  1  0.84182337  0.25000000  0.79859404  1
  Sr  Sr15  1  0.15817663  0.75000000  0.20140596  1
  Sb  Sb0  1  0.56031743  0.50020186  0.82048237  1
  Sb  Sb1  1  0.43968257  0.49979814  0.17951763  1
  Sb  Sb2  1  0.06031743  0.49979814  0.67951763  1
  Sb  Sb3  1  0.43968257  0.00020186  0.17951763  1
  Sb  Sb4  1  0.93968257  0.50020186  0.32048237  1
  Sb  Sb5  1  0.56031743  0.99979814  0.82048237  1
  Sb  Sb6  1  0.93968257  0.99979814  0.32048237  1
  Sb  Sb7  1  0.06031743  0.00020186  0.67951763  1
  P  P0  1  0.00413855  0.75000000  0.99950253  1
  P  P1  1  0.99586145  0.25000000  0.00049747  1
  P  P2  1  0.50413855  0.25000000  0.50049747  1
  P  P3  1  0.49586145  0.75000000  0.49950253  1
loop_
_geom_bond_atom_site_label_1
_geom_bond_atom_site_label_2
_geom_bond_distance
_geom_bond_site_symmetry_2
K0 Sb7 3.493265 1_565
K0 Sb2 3.493265 1_555
K0 Sb6 3.500428 1_455
K0 Sb4 3.500428 1_455
K1 Sb4 3.493265 1_555
K1 Sb6 3.493265 1_545
K1 Sb2 3.500428 1_655
K1 Sb7 3.500428 1_655
K2 Sb0 3.493265 1_554
K2 Sb5 3.493265 1_544
K2 Sb1 3.500428 1_555
K2 Sb3 3.500428 1_555
K3 Sb3 3.493265 1_566
K3 Sb1 3.493265 1_556
K3 Sb5 3.500428 1_555
K3 Sb0 3.500428 1_555
Sb0 Sr14 3.439851 1_555
Sb0 Sr0 3.443998 1_555
Sb0 Sr6 3.450521 1_555
Sb0 Sr12 3.473579 1_555
Sb0 Sr2 3.478719 1_555
Sb0 Sr4 3.507880 1_555
Sb1 Sr15 3.439851 1_555
Sb1 Sr1 3.443998 1_555
Sb1 Sr8 3.450521 1_555
Sb1 Sr13 3.473579 1_555
Sb1 Sr3 3.478719 1_555
Sb1 Sr5 3.507880 1_555
Sb2 Sr12 3.439851 1_555
Sb2 Sr2 3.443998 1_555
Sb2 Sr4 3.450521 1_455
Sb2 Sr14 3.473579 1_455
Sb2 Sr0 3.478719 1_455
Sb2 Sr6 3.507880 1_555
Sb3 Sr15 3.439851 1_545
Sb3 Sr1 3.443998 1_555
Sb3 Sr10 3.450521 1_545
Sb3 Sr13 3.473579 1_555
Sb3 Sr3 3.478719 1_545
Sb3 Sr7 3.507880 1_555
Sb4 Sr13 3.439851 1_555
Sb4 Sr3 3.443998 1_555
Sb4 Sr5 3.450521 1_655
Sb4 Sr15 3.473579 1_655
Sb4 Sr1 3.478719 1_655
Sb4 Sr8 3.507880 1_555
Sb5 Sr14 3.439851 1_565
Sb5 Sr0 3.443998 1_555
Sb5 Sr11 3.450521 1_565
Sb5 Sr12 3.473579 1_555
Sb5 Sr2 3.478719 1_565
Sb5 Sr9 3.507880 1_555
Sb6 Sr13 3.439851 1_565
Sb6 Sr3 3.443998 1_555
Sb6 Sr7 3.450521 1_665
Sb6 Sr15 3.473579 1_655
Sb6 Sr1 3.478719 1_665
Sb6 Sr10 3.507880 1_555
Sb7 Sr12 3.439851 1_545
Sb7 Sr2 3.443998 1_555
Sb7 Sr9 3.450521 1_445
Sb7 Sr14 3.473579 1_455
Sb7 Sr0 3.478719 1_445
Sb7 Sr11 3.507880 1_555
P0 Sr0 3.012962 1_455
P0 Sr15 3.016899 1_556
P0 Sr11 3.094983 1_565
P0 Sr6 3.094983 1_555
P0 Sr10 3.099110 1_456
P0 Sr8 3.099110 1_456
P1 Sr1 3.012962 1_655
P1 Sr14 3.016899 1_554
P1 Sr8 3.094983 1_555
P1 Sr10 3.094983 1_545
P1 Sr6 3.099110 1_654
P1 Sr11 3.099110 1_654
P2 Sr2 3.012962 1_555
P2 Sr13 3.016899 1_555
P2 Sr4 3.094983 1_555
P2 Sr9 3.094983 1_545
P2 Sr5 3.099110 1_555
P2 Sr7 3.099110 1_555
P3 Sr3 3.012962 1_555
P3 Sr12 3.016899 1_555
P3 Sr7 3.094983 1_565
P3 Sr5 3.094983 1_555
P3 Sr9 3.099110 1_555
P3 Sr4 3.099110 1_555
