# generated using pymatgen
data_Ag2GeTeO6
_symmetry_space_group_name_H-M   'P 1'
_cell_length_a   5.11646381
_cell_length_b   5.11646289
_cell_length_c   11.29926571
_cell_angle_alpha   90.00000000
_cell_angle_beta   90.00000000
_cell_angle_gamma   119.99999369
_symmetry_Int_Tables_number   1
_chemical_formula_structural   Ag2GeTeO6
_chemical_formula_sum   'Ag4 Ge2 Te2 O12'
_cell_volume   256.16548649
_cell_formula_units_Z   2
loop_
 _symmetry_equiv_pos_site_id
 _symmetry_equiv_pos_as_xyz
  1  'x, y, z'
loop_
 _atom_site_type_symbol
 _atom_site_label
 _atom_site_symmetry_multiplicity
 _atom_site_fract_x
 _atom_site_fract_y
 _atom_site_fract_z
 _atom_site_occupancy
  Ag  Ag0  1  0.66666700  0.33333300  0.96515233  1
  Ag  Ag1  1  0.66666700  0.33333300  0.53484767  1
  Ag  Ag2  1  0.33333300  0.66666700  0.46515233  1
  Ag  Ag3  1  0.33333300  0.66666700  0.03484767  1
  Ge  Ge0  1  0.33333300  0.66666700  0.75000000  1
  Ge  Ge1  1  0.66666700  0.33333300  0.25000000  1
  Te  Te0  1  0.00000000  0.00000000  0.25000000  1
  Te  Te1  1  0.00000000  0.00000000  0.75000000  1
  O  O0  1  0.94657124  0.66162949  0.15429871  1
  O  O1  1  0.33837051  0.28494275  0.15429871  1
  O  O2  1  0.71505725  0.05342876  0.15429871  1
  O  O3  1  0.33837051  0.05342876  0.34570129  1
  O  O4  1  0.71505725  0.66162949  0.34570129  1
  O  O5  1  0.94657124  0.28494275  0.34570129  1
  O  O6  1  0.05342876  0.33837051  0.84570129  1
  O  O7  1  0.66162949  0.71505725  0.84570129  1
  O  O8  1  0.05342876  0.71505725  0.65429871  1
  O  O9  1  0.28494275  0.33837051  0.65429871  1
  O  O10  1  0.66162949  0.94657124  0.65429871  1
  O  O11  1  0.28494275  0.94657124  0.84570129  1
loop_
_geom_bond_atom_site_label_1
_geom_bond_atom_site_label_2
_geom_bond_distance
_geom_bond_site_symmetry_2
Ag0 O7 2.384792 1_555
Ag0 O6 2.384792 1_655
Ag0 O11 2.384792 1_545
Ag0 O2 2.652269 1_556
Ag0 O0 2.652273 1_556
Ag0 O1 2.652275 1_556
Ag1 O10 2.384792 1_545
Ag1 O9 2.384792 1_555
Ag1 O8 2.384792 1_655
Ag1 O5 2.652269 1_555
Ag1 O3 2.652273 1_555
Ag1 O4 2.652275 1_555
Ag2 O3 2.384792 1_565
Ag2 O4 2.384792 1_555
Ag2 O5 2.384792 1_455
Ag2 O8 2.652269 1_555
Ag2 O10 2.652273 1_555
Ag2 O9 2.652275 1_555
Ag3 O1 2.384792 1_555
Ag3 O0 2.384792 1_455
Ag3 O2 2.384792 1_565
Ag3 O11 2.652269 1_554
Ag3 O6 2.652273 1_554
Ag3 O7 2.652275 1_554
Ge0 O11 1.906874 1_555
Ge0 O8 1.906874 1_555
Ge0 O6 1.906879 1_555
Ge0 O10 1.906879 1_555
Ge0 O9 1.906882 1_555
Ge0 O7 1.906882 1_555
Ge1 O2 1.906874 1_555
Ge1 O5 1.906874 1_555
Ge1 O0 1.906879 1_555
Ge1 O3 1.906879 1_555
Ge1 O4 1.906882 1_555
Ge1 O1 1.906882 1_555
O0 Te0 1.941147 1_665
O1 Te0 1.941148 1_555
O2 Te0 1.941151 1_655
O3 Te0 1.941147 1_555
O4 Te0 1.941148 1_665
O5 Te0 1.941151 1_655
O6 Te1 1.941147 1_555
O7 Te1 1.941148 1_665
O8 Te1 1.941151 1_565
O9 Te1 1.941148 1_555
O10 Te1 1.941147 1_665
O11 Te1 1.941151 1_565
