# generated using pymatgen
data_Pr2Co7B3
_symmetry_space_group_name_H-M   'P 1'
_cell_length_a   5.15105793
_cell_length_b   5.15105793
_cell_length_c   12.73249400
_cell_angle_alpha   90.00000000
_cell_angle_beta   90.00000000
_cell_angle_gamma   119.99999906
_symmetry_Int_Tables_number   1
_chemical_formula_structural   Pr2Co7B3
_chemical_formula_sum   'Pr4 Co14 B6'
_cell_volume   292.57484502
_cell_formula_units_Z   2
loop_
 _symmetry_equiv_pos_site_id
 _symmetry_equiv_pos_as_xyz
  1  'x, y, z'
loop_
 _atom_site_type_symbol
 _atom_site_label
 _atom_site_symmetry_multiplicity
 _atom_site_fract_x
 _atom_site_fract_y
 _atom_site_fract_z
 _atom_site_occupancy
  Pr  Pr0  1  0.00000000  0.00000000  0.73998600  1
  Pr  Pr1  1  0.00000000  0.00000000  0.26001400  1
  Pr  Pr2  1  0.00000000  0.00000000  0.50000000  1
  Pr  Pr3  1  0.00000000  0.00000000  0.00000000  1
  Co  Co0  1  0.50000000  0.50000000  0.15687400  1
  Co  Co1  1  0.50000000  0.00000000  0.84312600  1
  Co  Co2  1  0.50000000  0.50000000  0.84312600  1
  Co  Co3  1  0.00000000  0.50000000  0.15687400  1
  Co  Co4  1  0.50000000  0.00000000  0.38495400  1
  Co  Co5  1  0.50000000  0.50000000  0.38495400  1
  Co  Co6  1  0.00000000  0.50000000  0.38495400  1
  Co  Co7  1  0.50000000  0.00000000  0.61504600  1
  Co  Co8  1  0.50000000  0.50000000  0.61504600  1
  Co  Co9  1  0.00000000  0.50000000  0.61504600  1
  Co  Co10  1  0.33333300  0.66666700  0.00000000  1
  Co  Co11  1  0.66666700  0.33333300  0.00000000  1
  Co  Co12  1  0.00000000  0.50000000  0.84312600  1
  Co  Co13  1  0.50000000  0.00000000  0.15687400  1
  B  B0  1  0.33333300  0.66666700  0.73106500  1
  B  B1  1  0.66666700  0.33333300  0.73106500  1
  B  B2  1  0.66666700  0.33333300  0.26893500  1
  B  B3  1  0.33333300  0.66666700  0.26893500  1
  B  B4  1  0.66666700  0.33333300  0.50000000  1
  B  B5  1  0.33333300  0.66666700  0.50000000  1
loop_
_geom_bond_atom_site_label_1
_geom_bond_atom_site_label_2
_geom_bond_distance
_geom_bond_site_symmetry_2
Pr0 Pr2 3.055620 1_555
Pr0 Pr3 3.310627 1_556
Pr1 Pr2 3.055620 1_555
Pr1 Pr3 3.310627 1_555
Co0 Co11 2.490125 1_555
Co0 Co10 2.490125 1_555
Co0 Pr1 2.891007 1_555
Co0 Pr1 2.891007 1_665
Co1 Co10 2.490122 1_546
Co1 Co11 2.490122 1_556
Co1 Pr0 2.891007 1_555
Co1 Pr0 2.891007 1_655
Co2 Pr0 2.891007 1_555
Co2 Pr0 2.891007 1_665
Co3 Pr1 2.891007 1_565
Co3 Pr1 2.891007 1_555
Co4 Pr2 2.962947 1_655
Co4 Pr2 2.962947 1_555
Co4 Pr1 3.027208 1_655
Co4 Pr1 3.027208 1_555
Co5 Pr2 2.962947 1_665
Co5 Pr2 2.962947 1_555
Co5 Pr1 3.027208 1_555
Co5 Pr1 3.027208 1_665
Co6 Pr2 2.962947 1_565
Co6 Pr2 2.962947 1_555
Co6 Pr1 3.027208 1_565
Co6 Pr1 3.027208 1_555
Co7 Pr2 2.962947 1_655
Co7 Pr2 2.962947 1_555
Co7 Pr0 3.027208 1_555
Co7 Pr0 3.027208 1_655
Co8 Pr2 2.962947 1_555
Co8 Pr2 2.962947 1_665
Co8 Pr0 3.027208 1_665
Co8 Pr0 3.027208 1_555
Co9 Pr2 2.962947 1_565
Co9 Pr2 2.962947 1_555
Co9 Pr0 3.027208 1_555
Co9 Pr0 3.027208 1_565
Co10 Co3 2.490122 1_555
Co10 Co13 2.490122 1_565
Co10 Co12 2.490122 1_554
Co10 Co2 2.490125 1_554
Co10 Pr3 2.973962 1_565
Co10 Pr3 2.973966 1_555
Co10 Pr3 2.973966 1_665
Co11 Co13 2.490122 1_555
Co11 Co3 2.490122 1_655
Co11 Co12 2.490122 1_654
Co11 Co2 2.490125 1_554
Co11 Pr3 2.973962 1_655
Co11 Pr3 2.973966 1_555
Co11 Pr3 2.973966 1_665
Co12 Pr0 2.891007 1_555
Co12 Pr0 2.891007 1_565
Co13 Pr1 2.891007 1_655
Co13 Pr1 2.891007 1_555
B0 Co12 2.060805 1_555
B0 Co1 2.060805 1_565
B0 Co2 2.060808 1_555
B0 Co7 2.096012 1_565
B0 Co9 2.096012 1_555
B0 Co8 2.096015 1_555
B0 Pr0 2.976130 1_565
B0 Pr0 2.976135 1_555
B0 Pr0 2.976135 1_665
B1 Co12 2.060805 1_655
B1 Co1 2.060805 1_555
B1 Co2 2.060808 1_555
B1 Co7 2.096012 1_555
B1 Co9 2.096012 1_655
B1 Co8 2.096015 1_555
B1 Pr0 2.976130 1_655
B1 Pr0 2.976135 1_665
B1 Pr0 2.976135 1_555
B2 Co3 2.060805 1_655
B2 Co13 2.060805 1_555
B2 Co0 2.060808 1_555
B2 Co4 2.096012 1_555
B2 Co6 2.096012 1_655
B2 Co5 2.096015 1_555
B2 Pr1 2.976130 1_655
B2 Pr1 2.976135 1_555
B2 Pr1 2.976135 1_665
B3 Co13 2.060805 1_565
B3 Co3 2.060805 1_555
B3 Co0 2.060808 1_555
B3 Co4 2.096012 1_565
B3 Co6 2.096012 1_555
B3 Co5 2.096015 1_555
B3 Pr1 2.976130 1_565
B3 Pr1 2.976135 1_555
B3 Pr1 2.976135 1_665
B4 Co9 2.087299 1_655
B4 Co7 2.087299 1_555
B4 Co4 2.087299 1_555
B4 Co6 2.087299 1_655
B4 Co8 2.087302 1_555
B4 Co5 2.087302 1_555
B4 Pr2 2.973962 1_655
B4 Pr2 2.973966 1_665
B4 Pr2 2.973966 1_555
B5 Co9 2.087299 1_555
B5 Co7 2.087299 1_565
B5 Co4 2.087299 1_565
B5 Co6 2.087299 1_555
B5 Co8 2.087302 1_555
B5 Co5 2.087302 1_555
B5 Pr2 2.973962 1_565
B5 Pr2 2.973966 1_665
B5 Pr2 2.973966 1_555
