# generated using pymatgen
data_Hf4Fe(CoSi)6
_symmetry_space_group_name_H-M   'P 1'
_cell_length_a   6.61001807
_cell_length_b   6.61001842
_cell_length_c   6.61001754
_cell_angle_alpha   109.58678442
_cell_angle_beta   109.24034139
_cell_angle_gamma   109.58677749
_symmetry_Int_Tables_number   1
_chemical_formula_structural   Hf4Fe(CoSi)6
_chemical_formula_sum   'Hf4 Fe1 Co6 Si6'
_cell_volume   222.32114886
_cell_formula_units_Z   1
loop_
 _symmetry_equiv_pos_site_id
 _symmetry_equiv_pos_as_xyz
  1  'x, y, z'
loop_
 _atom_site_type_symbol
 _atom_site_label
 _atom_site_symmetry_multiplicity
 _atom_site_fract_x
 _atom_site_fract_y
 _atom_site_fract_z
 _atom_site_occupancy
  Hf  Hf0  1  0.50212503  0.50000000  0.49787497  1
  Hf  Hf1  1  0.99787497  0.50000000  0.00212503  1
  Hf  Hf2  1  0.99787497  0.99574994  0.49787497  1
  Hf  Hf3  1  0.50212503  0.00425006  0.00212503  1
  Fe  Fe0  1  0.75000000  0.50000000  0.25000000  1
  Co  Co0  1  0.00000000  0.00000000  0.00000000  1
  Co  Co1  1  0.49861845  0.75050836  0.24912681  1
  Co  Co2  1  0.49861845  0.24949164  0.74811009  1
  Co  Co3  1  0.75087319  0.24949164  0.50138155  1
  Co  Co4  1  0.25188991  0.75050836  0.50138155  1
  Co  Co5  1  0.25000000  0.50000000  0.75000000  1
  Si  Si0  1  0.67415718  0.67482347  0.99933371  1
  Si  Si1  1  0.67412480  0.00000000  0.67412480  1
  Si  Si2  1  0.32451024  0.32517653  0.99933371  1
  Si  Si3  1  0.00066629  0.67482347  0.67548976  1
  Si  Si4  1  0.32587520  1.00000000  0.32587520  1
  Si  Si5  1  0.00066629  0.32517653  0.32584282  1
loop_
_geom_bond_atom_site_label_1
_geom_bond_atom_site_label_2
_geom_bond_distance
_geom_bond_site_symmetry_2
Hf0 Si2 2.749640 1_554
Hf0 Si3 2.749641 1_655
Hf0 Si1 2.756649 1_565
Hf0 Si4 2.756650 1_545
Hf0 Si0 2.771651 1_555
Hf0 Si5 2.771651 1_555
Hf1 Si5 2.749641 1_655
Hf1 Si0 2.749641 1_554
Hf1 Si1 2.756650 1_554
Hf1 Si4 2.756650 1_655
Hf1 Si3 2.771651 1_654
Hf1 Si2 2.771651 1_654
Hf2 Si0 2.749641 1_554
Hf2 Si3 2.749641 1_655
Hf2 Si1 2.756649 1_565
Hf2 Si4 2.756649 1_655
Hf2 Si2 2.771651 1_665
Hf2 Si5 2.771651 1_665
Hf3 Si2 2.749641 1_554
Hf3 Si5 2.749641 1_655
Hf3 Si1 2.756649 1_554
Hf3 Si4 2.756649 1_545
Hf3 Si0 2.771651 1_544
Hf3 Si3 2.771651 1_544
Fe0 Si3 2.335972 1_655
Fe0 Si0 2.335972 1_554
Fe0 Si5 2.335972 1_655
Fe0 Si2 2.335972 1_554
Fe0 Hf0 2.671773 1_555
Fe0 Hf1 2.671773 1_555
Fe0 Hf2 2.671774 1_555
Fe0 Hf3 2.671774 1_555
Co0 Si5 2.478404 1_555
Co0 Si3 2.478404 1_544
Co0 Si2 2.478404 1_554
Co0 Si0 2.478404 1_444
Co0 Si4 2.494354 1_545
Co0 Si1 2.494354 1_454
Co1 Si4 2.316073 1_555
Co1 Si1 2.328212 1_565
Co1 Si0 2.328279 1_554
Co1 Si2 2.328280 1_554
Co1 Co4 2.689282 1_555
Co1 Co3 2.689283 1_565
Co1 Co5 2.695711 1_554
Co1 Hf0 2.696658 1_555
Co1 Hf2 2.696658 1_555
Co1 Hf3 2.704480 1_565
Co1 Hf1 2.704481 1_455
Co1 Fe0 2.710683 1_555
Co2 Si4 2.316073 1_545
Co2 Si1 2.328212 1_555
Co2 Si2 2.328279 1_555
Co2 Si0 2.328280 1_555
Co2 Co3 2.689282 1_555
Co2 Co4 2.689283 1_545
Co2 Co5 2.695711 1_555
Co2 Hf3 2.696658 1_556
Co2 Hf1 2.696658 1_556
Co2 Hf0 2.704480 1_555
Co2 Hf2 2.704481 1_445
Co2 Fe0 2.710683 1_556
Co3 Si1 2.316073 1_555
Co3 Si4 2.328212 1_545
Co3 Si5 2.328280 1_655
Co3 Si3 2.328280 1_655
Co3 Co5 2.695711 1_655
Co3 Hf3 2.696658 1_555
Co3 Hf0 2.696658 1_555
Co3 Hf1 2.704480 1_556
Co3 Hf2 2.704480 1_545
Co3 Fe0 2.710683 1_555
Co4 Si1 2.316074 1_565
Co4 Si4 2.328212 1_555
Co4 Si3 2.328280 1_555
Co4 Si5 2.328280 1_555
Co4 Co5 2.695711 1_555
Co4 Hf1 2.696658 1_455
Co4 Hf2 2.696658 1_455
Co4 Hf3 2.704480 1_566
Co4 Hf0 2.704480 1_555
Co4 Fe0 2.710683 1_455
Co5 Si5 2.327601 1_555
Co5 Si2 2.327601 1_555
Co5 Si3 2.327602 1_555
Co5 Si0 2.327602 1_555
Co5 Hf1 2.717584 1_456
Co5 Hf0 2.717584 1_555
Co5 Hf3 2.717584 1_566
Co5 Hf2 2.717584 1_445
