# generated using pymatgen
data_Sc2Al(Ni10B3)2
_symmetry_space_group_name_H-M   'P 1'
_cell_length_a   7.42054086
_cell_length_b   7.42054164
_cell_length_c   7.42054146
_cell_angle_alpha   60.00000081
_cell_angle_beta   59.99999735
_cell_angle_gamma   59.99999917
_symmetry_Int_Tables_number   1
_chemical_formula_structural   Sc2Al(Ni10B3)2
_chemical_formula_sum   'Sc2 Al1 Ni20 B6'
_cell_volume   288.92941392
_cell_formula_units_Z   1
loop_
 _symmetry_equiv_pos_site_id
 _symmetry_equiv_pos_as_xyz
  1  'x, y, z'
loop_
 _atom_site_type_symbol
 _atom_site_label
 _atom_site_symmetry_multiplicity
 _atom_site_fract_x
 _atom_site_fract_y
 _atom_site_fract_z
 _atom_site_occupancy
  Sc  Sc0  1  0.75000000  0.75000000  0.75000000  1
  Sc  Sc1  1  0.25000000  0.25000000  0.25000000  1
  Al  Al0  1  0.00000000  0.00000000  0.00000000  1
  Ni  Ni0  1  0.61457392  0.61457392  0.15627823  1
  Ni  Ni1  1  0.61457392  0.15627823  0.61457392  1
  Ni  Ni2  1  0.15627823  0.61457392  0.61457392  1
  Ni  Ni3  1  0.61457392  0.61457392  0.61457392  1
  Ni  Ni4  1  0.38542608  0.38542608  0.84372177  1
  Ni  Ni5  1  0.38542608  0.84372177  0.38542608  1
  Ni  Ni6  1  0.84372177  0.38542608  0.38542608  1
  Ni  Ni7  1  0.38542608  0.38542608  0.38542608  1
  Ni  Ni8  1  0.00000000  0.00000000  0.33877742  1
  Ni  Ni9  1  0.66122258  1.00000000  0.33877742  1
  Ni  Ni10  1  0.00000000  0.66122258  0.33877742  1
  Ni  Ni11  1  0.66122258  0.33877742  1.00000000  1
  Ni  Ni12  1  1.00000000  0.33877742  1.00000000  1
  Ni  Ni13  1  1.00000000  0.33877742  0.66122258  1
  Ni  Ni14  1  0.33877742  0.66122258  0.00000000  1
  Ni  Ni15  1  0.33877742  0.00000000  0.66122258  1
  Ni  Ni16  1  0.33877742  0.00000000  0.00000000  1
  Ni  Ni17  1  0.00000000  0.00000000  0.66122258  1
  Ni  Ni18  1  0.00000000  0.66122258  0.00000000  1
  Ni  Ni19  1  0.66122258  1.00000000  1.00000000  1
  B  B0  1  0.72879694  0.72879694  0.27120306  1
  B  B1  1  0.27120306  0.72879694  0.27120306  1
  B  B2  1  0.72879694  0.27120306  0.27120306  1
  B  B3  1  0.27120306  0.27120306  0.72879694  1
  B  B4  1  0.72879694  0.27120306  0.72879694  1
  B  B5  1  0.27120306  0.72879694  0.72879694  1
loop_
_geom_bond_atom_site_label_1
_geom_bond_atom_site_label_2
_geom_bond_distance
_geom_bond_site_symmetry_2
Al0 Ni16 2.513912 1_555
Al0 Ni9 2.513912 1_445
Al0 Ni15 2.513912 1_554
Al0 Ni19 2.513912 1_444
Al0 Ni11 2.513912 1_454
Al0 Ni14 2.513912 1_545
Al0 Ni8 2.513912 1_555
Al0 Ni17 2.513912 1_554
Al0 Ni12 2.513912 1_454
Al0 Ni13 2.513912 1_454
Al0 Ni10 2.513912 1_545
Al0 Ni18 2.513912 1_545
Ni0 Sc0 2.461578 1_554
Ni1 Sc0 2.461578 1_545
Ni2 Sc0 2.461577 1_455
Ni3 Sc0 2.461578 1_555
Ni4 Sc1 2.461578 1_556
Ni5 Sc1 2.461578 1_565
Ni6 Sc1 2.461577 1_655
Ni7 Sc1 2.461578 1_555
B0 Ni10 2.074003 1_655
B0 Ni18 2.074003 1_655
B0 Ni9 2.074003 1_555
B0 Ni19 2.074003 1_554
B0 Ni5 2.080433 1_555
B0 Ni3 2.080434 1_555
B0 Ni0 2.080434 1_555
B0 Ni6 2.080434 1_555
B1 Ni10 2.074003 1_555
B1 Ni8 2.074003 1_565
B1 Ni14 2.074003 1_555
B1 Ni16 2.074003 1_565
B1 Ni0 2.080433 1_555
B1 Ni2 2.080434 1_555
B1 Ni5 2.080434 1_555
B1 Ni7 2.080434 1_555
B2 Ni12 2.074003 1_554
B2 Ni8 2.074003 1_655
B2 Ni11 2.074003 1_554
B2 Ni9 2.074003 1_545
B2 Ni7 2.080433 1_555
B2 Ni6 2.080434 1_555
B2 Ni1 2.080434 1_555
B2 Ni0 2.080434 1_555
B3 Ni12 2.074003 1_455
B3 Ni13 2.074003 1_455
B3 Ni15 2.074003 1_555
B3 Ni16 2.074003 1_556
B3 Ni1 2.080433 1_555
B3 Ni7 2.080434 1_555
B3 Ni4 2.080434 1_555
B3 Ni2 2.080434 1_555
B4 Ni13 2.074003 1_555
B4 Ni17 2.074003 1_655
B4 Ni11 2.074003 1_555
B4 Ni19 2.074003 1_545
B4 Ni4 2.080433 1_555
B4 Ni6 2.080434 1_555
B4 Ni1 2.080434 1_555
B4 Ni3 2.080434 1_555
B5 Ni18 2.074003 1_556
B5 Ni17 2.074003 1_565
B5 Ni14 2.074003 1_556
B5 Ni15 2.074003 1_565
B5 Ni3 2.080433 1_555
B5 Ni2 2.080434 1_555
B5 Ni5 2.080434 1_555
B5 Ni4 2.080434 1_555
