# generated using pymatgen
data_Sr(La2Se3)4
_symmetry_space_group_name_H-M   'P 1'
_cell_length_a   9.12462913
_cell_length_b   9.12462913
_cell_length_c   15.14228863
_cell_angle_alpha   72.47625296
_cell_angle_beta   72.47625296
_cell_angle_gamma   90.02301746
_symmetry_Int_Tables_number   1
_chemical_formula_structural   Sr(La2Se3)4
_chemical_formula_sum   'Sr2 La16 Se24'
_cell_volume   1140.66655950
_cell_formula_units_Z   2
loop_
 _symmetry_equiv_pos_site_id
 _symmetry_equiv_pos_as_xyz
  1  'x, y, z'
loop_
 _atom_site_type_symbol
 _atom_site_label
 _atom_site_symmetry_multiplicity
 _atom_site_fract_x
 _atom_site_fract_y
 _atom_site_fract_z
 _atom_site_occupancy
  Sr  Sr0  1  0.12524300  0.75009100  0.49992900  1
  Sr  Sr1  1  0.75009100  0.12524300  0.99992900  1
  La  La0  1  0.25030300  0.37339300  0.99996500  1
  La  La1  1  0.45787000  0.70996300  0.08333300  1
  La  La2  1  0.04239900  0.91714800  0.16671300  1
  La  La3  1  0.08327100  0.45808400  0.33359000  1
  La  La4  1  0.37509600  0.12481400  0.24987000  1
  La  La5  1  0.79228200  0.41541600  0.16647200  1
  La  La6  1  0.58222800  0.70869800  0.33306500  1
  La  La7  1  0.79276500  0.04122700  0.41647600  1
  La  La8  1  0.37339300  0.25030300  0.49996500  1
  La  La9  1  0.41541600  0.79228200  0.66647200  1
  La  La10  1  0.70996300  0.45787000  0.58333300  1
  La  La11  1  0.91714800  0.04239900  0.66671300  1
  La  La12  1  0.12481400  0.37509600  0.74987000  1
  La  La13  1  0.70869800  0.58222800  0.83306500  1
  La  La14  1  0.04122700  0.79276500  0.91647600  1
  La  La15  1  0.45808400  0.08327100  0.83359000  1
  Se  Se0  1  0.54730700  0.40338100  0.05086300  1
  Se  Se1  1  0.76694400  0.76217700  0.11846400  1
  Se  Se2  1  0.39623800  0.04938600  0.05027200  1
  Se  Se3  1  0.28497200  0.78365300  0.28037700  1
  Se  Se4  1  0.43370800  0.43280500  0.28396100  1
  Se  Se5  1  0.11791100  0.61662800  0.11624800  1
  Se  Se6  1  0.71611600  0.06588200  0.21929200  1
  Se  Se7  1  0.88000000  0.73326700  0.38212300  1
  Se  Se8  1  0.06626200  0.21746900  0.21671200  1
  Se  Se9  1  0.10030100  0.10413500  0.44892900  1
  Se  Se10  1  0.73299300  0.38262500  0.38333200  1
  Se  Se11  1  0.61662800  0.11791100  0.61624800  1
  Se  Se12  1  0.76217700  0.76694400  0.61846400  1
  Se  Se13  1  0.45365900  0.95188800  0.45001400  1
  Se  Se14  1  0.04938600  0.39623800  0.55027200  1
  Se  Se15  1  0.21746900  0.06626200  0.71671200  1
  Se  Se16  1  0.40338100  0.54730700  0.55086300  1
  Se  Se17  1  0.43280500  0.43370800  0.78396100  1
  Se  Se18  1  0.06588200  0.71611600  0.71929200  1
  Se  Se19  1  0.95188800  0.45365900  0.95001400  1
  Se  Se20  1  0.10413500  0.10030100  0.94892900  1
  Se  Se21  1  0.38262500  0.73299300  0.88333200  1
  Se  Se22  1  0.78365300  0.28497200  0.78037700  1
  Se  Se23  1  0.73326700  0.88000000  0.88212300  1
loop_
_geom_bond_atom_site_label_1
_geom_bond_atom_site_label_2
_geom_bond_distance
_geom_bond_site_symmetry_2
La0 Se0 3.065526 1_556
La0 Se17 3.067458 1_555
La0 Se19 3.071009 1_455
La0 Se8 3.079467 1_556
La0 Se2 3.217421 1_556
La0 Se20 3.219182 1_555
La0 Se5 3.249643 1_556
La0 Se21 3.250575 1_555
La1 Se0 3.053182 1_555
La1 Se2 3.065323 1_565
La1 Se5 3.067138 1_555
La1 Se1 3.085192 1_555
La1 Se3 3.196531 1_555
La1 Se23 3.247199 1_554
La1 Se21 3.249036 1_554
La1 Se4 3.262370 1_555
La2 Se7 3.072767 1_455
La2 Se8 3.078657 1_565
La2 Se5 3.086145 1_555
La2 Se20 3.089834 1_564
La2 Se2 3.205692 1_565
La2 Se3 3.221630 1_555
La2 Se6 3.250539 1_465
La2 Se1 3.252036 1_455
La3 Se14 3.074629 1_555
La3 Se10 3.081075 1_455
La3 Se4 3.082294 1_555
La3 Se5 3.087049 1_555
La3 Se9 3.205016 1_555
La3 Se8 3.237541 1_555
La3 Se3 3.243858 1_555
La3 Se7 3.252573 1_455
La4 Se6 3.077296 1_555
La4 Se3 3.079516 1_545
La4 Se4 3.080420 1_555
La4 Se8 3.083228 1_555
La4 Se9 3.242515 1_555
La4 Se0 3.247058 1_555
La4 Se2 3.247660 1_555
La4 Se13 3.258506 1_545
La5 Se1 3.051210 1_555
La5 Se19 3.069542 1_554
La5 Se6 3.069544 1_555
La5 Se10 3.082799 1_555
La5 Se8 3.226819 1_655
La5 Se0 3.247344 1_555
La5 Se4 3.249668 1_555
La5 Se5 3.251386 1_655
La6 Se7 3.049551 1_555
La6 Se1 3.063438 1_555
La6 Se3 3.071997 1_555
La6 Se16 3.088794 1_555
La6 Se6 3.229669 1_565
La6 Se4 3.233897 1_555
La6 Se13 3.248653 1_555
La6 Se10 3.254887 1_555
La7 Se13 3.049425 1_545
La7 Se7 3.071336 1_545
La7 Se9 3.073184 1_655
La7 Se10 3.078650 1_555
La7 Se6 3.210614 1_555
La7 Se8 3.238112 1_655
La7 Se11 3.251322 1_555
La7 Se12 3.251463 1_545
La8 Se16 3.065526 1_555
La8 Se4 3.067458 1_555
La8 Se13 3.071009 1_545
La8 Se15 3.079467 1_555
La8 Se14 3.217421 1_555
La8 Se9 3.219182 1_555
La8 Se11 3.249643 1_555
La8 Se10 3.250575 1_555
La9 Se12 3.051210 1_555
La9 Se13 3.069542 1_555
La9 Se18 3.069544 1_555
La9 Se21 3.082799 1_555
La9 Se15 3.226819 1_565
La9 Se16 3.247344 1_555
La9 Se17 3.249668 1_555
La9 Se11 3.251386 1_565
La10 Se16 3.053182 1_555
La10 Se14 3.065323 1_655
La10 Se11 3.067138 1_555
La10 Se12 3.085192 1_555
La10 Se22 3.196531 1_555
La10 Se7 3.247199 1_555
La10 Se10 3.249036 1_555
La10 Se17 3.262370 1_555
La11 Se23 3.072767 1_545
La11 Se15 3.078657 1_655
La11 Se11 3.086145 1_555
La11 Se9 3.089834 1_655
La11 Se14 3.205692 1_655
La11 Se22 3.221630 1_555
La11 Se18 3.250539 1_645
La11 Se12 3.252036 1_545
La12 Se18 3.077296 1_555
La12 Se22 3.079516 1_455
La12 Se17 3.080420 1_555
La12 Se15 3.083228 1_555
La12 Se20 3.242515 1_555
La12 Se16 3.247058 1_555
La12 Se14 3.247660 1_555
La12 Se19 3.258506 1_455
La13 Se23 3.049551 1_555
La13 Se12 3.063438 1_555
La13 Se22 3.071997 1_555
La13 Se0 3.088794 1_556
La13 Se18 3.229669 1_655
La13 Se17 3.233897 1_555
La13 Se19 3.248653 1_555
La13 Se21 3.254887 1_555
La14 Se19 3.049425 1_455
La14 Se23 3.071336 1_455
La14 Se20 3.073184 1_565
La14 Se21 3.078650 1_555
La14 Se18 3.210614 1_555
La14 Se15 3.238112 1_565
La14 Se5 3.251322 1_556
La14 Se1 3.251463 1_456
La15 Se2 3.074629 1_556
La15 Se21 3.081075 1_545
La15 Se17 3.082294 1_555
La15 Se11 3.087049 1_555
La15 Se20 3.205016 1_555
La15 Se15 3.237541 1_555
La15 Se22 3.243858 1_555
La15 Se23 3.252573 1_545
Se0 Sr1 3.283693 1_554
Se1 Sr1 3.287252 1_564
Se2 Sr1 3.111825 1_554
Se3 Sr0 3.120748 1_555
Se6 Sr1 3.117561 1_554
Se7 Sr0 3.283556 1_655
Se9 Sr0 3.112635 1_545
Se12 Sr0 3.287252 1_655
Se13 Sr0 3.276477 1_555
Se14 Sr0 3.111825 1_555
Se16 Sr0 3.283693 1_555
Se18 Sr0 3.117561 1_555
Se19 Sr1 3.276477 1_555
Se20 Sr1 3.112635 1_455
Se22 Sr1 3.120748 1_555
Se23 Sr1 3.283556 1_565
