# generated using pymatgen
data_Ta2Co20CuB6
_symmetry_space_group_name_H-M   'P 1'
_cell_length_a   7.38344109
_cell_length_b   7.38344183
_cell_length_c   7.38344180
_cell_angle_alpha   60.00000013
_cell_angle_beta   59.99999684
_cell_angle_gamma   60.00000119
_symmetry_Int_Tables_number   1
_chemical_formula_structural   Ta2Co20CuB6
_chemical_formula_sum   'Ta2 Co20 Cu1 B6'
_cell_volume   284.61745015
_cell_formula_units_Z   1
loop_
 _symmetry_equiv_pos_site_id
 _symmetry_equiv_pos_as_xyz
  1  'x, y, z'
loop_
 _atom_site_type_symbol
 _atom_site_label
 _atom_site_symmetry_multiplicity
 _atom_site_fract_x
 _atom_site_fract_y
 _atom_site_fract_z
 _atom_site_occupancy
  Ta  Ta0  1  0.75000000  0.75000000  0.75000000  1
  Ta  Ta1  1  0.25000000  0.25000000  0.25000000  1
  Co  Co0  1  0.61623721  0.61623721  0.15128937  1
  Co  Co1  1  0.61623721  0.15128937  0.61623721  1
  Co  Co2  1  0.15128937  0.61623721  0.61623721  1
  Co  Co3  1  0.61623721  0.61623721  0.61623721  1
  Co  Co4  1  0.38376279  0.38376279  0.84871063  1
  Co  Co5  1  0.38376279  0.84871063  0.38376279  1
  Co  Co6  1  0.84871063  0.38376279  0.38376279  1
  Co  Co7  1  0.38376279  0.38376279  0.38376279  1
  Co  Co8  1  0.00000000  0.00000000  0.34314003  1
  Co  Co9  1  0.65685997  0.00000000  0.34314003  1
  Co  Co10  1  1.00000000  0.65685997  0.34314003  1
  Co  Co11  1  0.65685997  0.34314003  0.00000000  1
  Co  Co12  1  0.00000000  0.34314003  1.00000000  1
  Co  Co13  1  0.00000000  0.34314003  0.65685997  1
  Co  Co14  1  0.34314003  0.65685997  1.00000000  1
  Co  Co15  1  0.34314003  0.00000000  0.65685997  1
  Co  Co16  1  0.34314003  0.00000000  1.00000000  1
  Co  Co17  1  0.00000000  0.00000000  0.65685997  1
  Co  Co18  1  1.00000000  0.65685997  0.00000000  1
  Co  Co19  1  0.65685997  0.00000000  0.00000000  1
  Cu  Cu0  1  0.00000000  0.00000000  0.00000000  1
  B  B0  1  0.72496635  0.72496635  0.27503365  1
  B  B1  1  0.27503365  0.72496635  0.27503365  1
  B  B2  1  0.72496635  0.27503365  0.27503365  1
  B  B3  1  0.27503365  0.27503365  0.72496635  1
  B  B4  1  0.72496635  0.27503365  0.72496635  1
  B  B5  1  0.27503365  0.72496635  0.72496635  1
loop_
_geom_bond_atom_site_label_1
_geom_bond_atom_site_label_2
_geom_bond_distance
_geom_bond_site_symmetry_2
Co0 Ta0 2.419195 1_554
Co1 Ta0 2.419195 1_545
Co2 Ta0 2.419195 1_455
Co3 Ta0 2.419189 1_555
Co4 Ta1 2.419195 1_556
Co5 Ta1 2.419195 1_565
Co6 Ta1 2.419195 1_655
Co7 Ta1 2.419189 1_555
Co8 Cu0 2.533554 1_555
Co9 Cu0 2.533554 1_655
Co10 Cu0 2.533554 1_665
Co11 Cu0 2.533554 1_655
Co12 Cu0 2.533554 1_556
Co13 Cu0 2.533554 1_556
Co14 Cu0 2.533554 1_566
Co15 Cu0 2.533554 1_556
Co16 Cu0 2.533554 1_556
Co17 Cu0 2.533554 1_556
Co18 Cu0 2.533554 1_665
Co19 Cu0 2.533554 1_655
B0 Co0 2.057954 1_555
B0 Co5 2.057960 1_555
B0 Co6 2.057960 1_555
B0 Co3 2.057960 1_555
B0 Co10 2.092030 1_555
B0 Co18 2.092030 1_555
B0 Co9 2.092030 1_565
B0 Co19 2.092030 1_565
B1 Co5 2.057954 1_555
B1 Co0 2.057960 1_555
B1 Co2 2.057960 1_555
B1 Co7 2.057960 1_555
B1 Co10 2.092030 1_455
B1 Co8 2.092030 1_565
B1 Co16 2.092030 1_564
B1 Co14 2.092030 1_554
B2 Co6 2.057954 1_555
B2 Co1 2.057960 1_555
B2 Co7 2.057960 1_555
B2 Co0 2.057960 1_555
B2 Co12 2.092030 1_654
B2 Co8 2.092030 1_655
B2 Co9 2.092030 1_555
B2 Co11 2.092030 1_555
B3 Co4 2.057954 1_555
B3 Co1 2.057960 1_555
B3 Co2 2.057960 1_555
B3 Co7 2.057960 1_555
B3 Co13 2.092030 1_555
B3 Co12 2.092030 1_555
B3 Co15 2.092030 1_555
B3 Co16 2.092030 1_555
B4 Co1 2.057954 1_555
B4 Co4 2.057960 1_555
B4 Co6 2.057960 1_555
B4 Co3 2.057960 1_555
B4 Co13 2.092030 1_655
B4 Co17 2.092030 1_655
B4 Co19 2.092030 1_556
B4 Co11 2.092030 1_556
B5 Co2 2.057954 1_555
B5 Co5 2.057960 1_555
B5 Co3 2.057960 1_555
B5 Co4 2.057960 1_555
B5 Co18 2.092030 1_456
B5 Co17 2.092030 1_565
B5 Co15 2.092030 1_565
B5 Co14 2.092030 1_555
