# generated using pymatgen
data_CdHg(PAu)4
_symmetry_space_group_name_H-M   'P 1'
_cell_length_a   11.82748598
_cell_length_b   11.82748694
_cell_length_c   22.51341646
_cell_angle_alpha   90.00000000
_cell_angle_beta   90.00000000
_cell_angle_gamma   148.10864960
_symmetry_Int_Tables_number   1
_chemical_formula_structural   CdHg(PAu)4
_chemical_formula_sum   'Cd8 Hg8 P32 Au32'
_cell_volume   1663.85428897
_cell_formula_units_Z   8
loop_
 _symmetry_equiv_pos_site_id
 _symmetry_equiv_pos_as_xyz
  1  'x, y, z'
loop_
 _atom_site_type_symbol
 _atom_site_label
 _atom_site_symmetry_multiplicity
 _atom_site_fract_x
 _atom_site_fract_y
 _atom_site_fract_z
 _atom_site_occupancy
  Cd  Cd0_0  1  0.24024056  0.25975944  0.12500000  1
  Cd  Cd0_1  1  0.24024056  0.25975944  0.62500000  1
  Cd  Cd0_2  1  0.24024056  0.75975944  0.12500000  1
  Cd  Cd0_3  1  0.24024056  0.75975944  0.62500000  1
  Cd  Cd0_4  1  0.74024056  0.25975944  0.12500000  1
  Cd  Cd0_5  1  0.74024056  0.25975944  0.62500000  1
  Cd  Cd0_6  1  0.74024056  0.75975944  0.12500000  1
  Cd  Cd0_7  1  0.74024056  0.75975944  0.62500000  1
  Hg  Hg0_0  1  0.25976489  0.24023511  0.37500000  1
  Hg  Hg0_1  1  0.25976489  0.24023511  0.87500000  1
  Hg  Hg0_2  1  0.25976489  0.74023511  0.37500000  1
  Hg  Hg0_3  1  0.25976489  0.74023511  0.87500000  1
  Hg  Hg0_4  1  0.75976489  0.24023511  0.37500000  1
  Hg  Hg0_5  1  0.75976489  0.24023511  0.87500000  1
  Hg  Hg0_6  1  0.75976489  0.74023511  0.37500000  1
  Hg  Hg0_7  1  0.75976489  0.74023511  0.87500000  1
  P  P0_0  1  0.39898479  0.10101521  0.27137471  1
  P  P0_1  1  0.39898479  0.10101521  0.77137471  1
  P  P0_2  1  0.39898479  0.60101521  0.27137471  1
  P  P0_3  1  0.39898479  0.60101521  0.77137471  1
  P  P0_4  1  0.89898479  0.10101521  0.27137471  1
  P  P0_5  1  0.89898479  0.10101521  0.77137471  1
  P  P0_6  1  0.89898479  0.60101521  0.27137471  1
  P  P0_7  1  0.89898479  0.60101521  0.77137471  1
  P  P1_0  1  0.10105639  0.39894361  0.02168979  1
  P  P1_1  1  0.10105639  0.39894361  0.52168979  1
  P  P1_2  1  0.10105639  0.89894361  0.02168979  1
  P  P1_3  1  0.10105639  0.89894361  0.52168979  1
  P  P1_4  1  0.60105639  0.39894361  0.02168979  1
  P  P1_5  1  0.60105639  0.39894361  0.52168979  1
  P  P1_6  1  0.60105639  0.89894361  0.02168979  1
  P  P1_7  1  0.60105639  0.89894361  0.52168979  1
  P  P2_0  1  0.10105639  0.39894361  0.22831021  1
  P  P2_1  1  0.10105639  0.39894361  0.72831021  1
  P  P2_2  1  0.10105639  0.89894361  0.22831021  1
  P  P2_3  1  0.10105639  0.89894361  0.72831021  1
  P  P2_4  1  0.60105639  0.39894361  0.22831021  1
  P  P2_5  1  0.60105639  0.39894361  0.72831021  1
  P  P2_6  1  0.60105639  0.89894361  0.22831021  1
  P  P2_7  1  0.60105639  0.89894361  0.72831021  1
  P  P3_0  1  0.39898479  0.10101521  0.47862529  1
  P  P3_1  1  0.39898479  0.10101521  0.97862529  1
  P  P3_2  1  0.39898479  0.60101521  0.47862529  1
  P  P3_3  1  0.39898479  0.60101521  0.97862529  1
  P  P3_4  1  0.89898479  0.10101521  0.47862529  1
  P  P3_5  1  0.89898479  0.10101521  0.97862529  1
  P  P3_6  1  0.89898479  0.60101521  0.47862529  1
  P  P3_7  1  0.89898479  0.60101521  0.97862529  1
  Au  Au0_0  1  0.49949171  0.00050829  0.00300132  1
  Au  Au0_1  1  0.49949171  0.00050829  0.50300132  1
  Au  Au0_2  1  0.49949171  0.50050829  0.00300132  1
  Au  Au0_3  1  0.49949171  0.50050829  0.50300132  1
  Au  Au0_4  1  0.99949171  0.00050829  0.00300132  1
  Au  Au0_5  1  0.99949171  0.00050829  0.50300132  1
  Au  Au0_6  1  0.99949171  0.50050829  0.00300132  1
  Au  Au0_7  1  0.99949171  0.50050829  0.50300132  1
  Au  Au1_0  1  0.38867987  0.11132013  0.37500000  1
  Au  Au1_1  1  0.38867987  0.11132013  0.87500000  1
  Au  Au1_2  1  0.38867987  0.61132013  0.37500000  1
  Au  Au1_3  1  0.38867987  0.61132013  0.87500000  1
  Au  Au1_4  1  0.88867987  0.11132013  0.37500000  1
  Au  Au1_5  1  0.88867987  0.11132013  0.87500000  1
  Au  Au1_6  1  0.88867987  0.61132013  0.37500000  1
  Au  Au1_7  1  0.88867987  0.61132013  0.87500000  1
  Au  Au2_0  1  0.49949171  0.00050829  0.24699868  1
  Au  Au2_1  1  0.49949171  0.00050829  0.74699868  1
  Au  Au2_2  1  0.49949171  0.50050829  0.24699868  1
  Au  Au2_3  1  0.49949171  0.50050829  0.74699868  1
  Au  Au2_4  1  0.99949171  0.00050829  0.24699868  1
  Au  Au2_5  1  0.99949171  0.00050829  0.74699868  1
  Au  Au2_6  1  0.99949171  0.50050829  0.24699868  1
  Au  Au2_7  1  0.99949171  0.50050829  0.74699868  1
  Au  Au3_0  1  0.11224991  0.38775009  0.12500000  1
  Au  Au3_1  1  0.11224991  0.38775009  0.62500000  1
  Au  Au3_2  1  0.11224991  0.88775009  0.12500000  1
  Au  Au3_3  1  0.11224991  0.88775009  0.62500000  1
  Au  Au3_4  1  0.61224991  0.38775009  0.12500000  1
  Au  Au3_5  1  0.61224991  0.38775009  0.62500000  1
  Au  Au3_6  1  0.61224991  0.88775009  0.12500000  1
  Au  Au3_7  1  0.61224991  0.88775009  0.62500000  1
loop_
_geom_bond_atom_site_label_1
_geom_bond_atom_site_label_2
_geom_bond_distance
_geom_bond_site_symmetry_2
Hg0_0 Hg0_6 3.249316 1_445
Hg0_0 Hg0_6 3.249316 1_555
Hg0_1 Hg0_7 3.249316 1_445
Hg0_1 Hg0_7 3.249316 1_555
Hg0_2 Hg0_4 3.249316 1_565
Hg0_2 Hg0_4 3.249316 1_455
Hg0_3 Hg0_5 3.249316 1_565
Hg0_3 Hg0_5 3.249316 1_455
P0_0 P2_2 2.183544 1_545
P0_0 P2_4 2.183544 1_555
P0_1 P2_3 2.183544 1_545
P0_1 P2_5 2.183544 1_555
P0_2 P2_0 2.183544 1_555
P0_2 P2_6 2.183544 1_555
P0_3 P2_1 2.183544 1_555
P0_3 P2_7 2.183544 1_555
P0_4 P2_6 2.183544 1_545
P0_4 P2_0 2.183544 1_655
P0_5 P2_7 2.183544 1_545
P0_5 P2_1 2.183544 1_655
P0_6 P2_4 2.183544 1_555
P0_6 P2_2 2.183544 1_655
P0_7 P2_5 2.183544 1_555
P0_7 P2_3 2.183544 1_655
P1_0 P3_3 2.183544 1_554
P1_0 P3_5 2.183544 1_454
P1_1 P3_2 2.183544 1_555
P1_1 P3_4 2.183544 1_455
P1_2 P3_1 2.183544 1_564
P1_2 P3_7 2.183544 1_454
P1_3 P3_0 2.183544 1_565
P1_3 P3_6 2.183544 1_455
P1_4 P3_7 2.183544 1_554
P1_4 P3_1 2.183544 1_554
P1_5 P3_6 2.183544 1_555
P1_5 P3_0 2.183544 1_555
P1_6 P3_5 2.183544 1_564
P1_6 P3_3 2.183544 1_554
P1_7 P3_4 2.183544 1_565
P1_7 P3_2 2.183544 1_555
Au0_0 P1_6 2.348071 1_545
Au0_0 P3_1 2.350958 1_554
Au0_0 Cd0_2 3.198068 1_545
Au0_0 Cd0_4 3.198068 1_555
Au0_0 Hg0_5 3.316410 1_554
Au0_0 Hg0_3 3.316410 1_544
Au0_1 P1_7 2.348071 1_545
Au0_1 P3_0 2.350958 1_555
Au0_1 Cd0_3 3.198068 1_545
Au0_1 Cd0_5 3.198068 1_555
Au0_1 Hg0_4 3.316410 1_555
Au0_1 Hg0_2 3.316410 1_545
Au0_2 P1_4 2.348071 1_555
Au0_2 P3_3 2.350958 1_554
Au0_2 Cd0_0 3.198068 1_555
Au0_2 Cd0_6 3.198068 1_555
Au0_2 Hg0_7 3.316410 1_554
Au0_2 Hg0_1 3.316410 1_554
Au0_3 P1_5 2.348071 1_555
Au0_3 P3_2 2.350958 1_555
Au0_3 Cd0_1 3.198068 1_555
Au0_3 Cd0_7 3.198068 1_555
Au0_3 Hg0_6 3.316410 1_555
Au0_3 Hg0_0 3.316410 1_555
Au0_4 P1_2 2.348071 1_645
Au0_4 P3_5 2.350958 1_554
Au0_4 Cd0_6 3.198068 1_545
Au0_4 Cd0_0 3.198068 1_655
Au0_4 Hg0_1 3.316410 1_654
Au0_4 Hg0_7 3.316410 1_544
Au0_5 P1_3 2.348071 1_645
Au0_5 P3_4 2.350958 1_555
Au0_5 Cd0_7 3.198068 1_545
Au0_5 Cd0_1 3.198068 1_655
Au0_5 Hg0_0 3.316410 1_655
Au0_5 Hg0_6 3.316410 1_545
Au0_6 P1_0 2.348071 1_655
Au0_6 P3_7 2.350958 1_554
Au0_6 Cd0_4 3.198068 1_555
Au0_6 Cd0_2 3.198068 1_655
Au0_6 Hg0_3 3.316410 1_654
Au0_6 Hg0_5 3.316410 1_554
Au0_7 P1_1 2.348071 1_655
Au0_7 P3_6 2.350958 1_555
Au0_7 Cd0_5 3.198068 1_555
Au0_7 Cd0_3 3.198068 1_655
Au0_7 Hg0_2 3.316410 1_655
Au0_7 Hg0_4 3.316410 1_555
Au1_0 P0_0 2.344703 1_555
Au1_0 P3_0 2.344703 1_555
Au1_0 Hg0_0 2.932144 1_555
Au1_0 Hg0_4 3.197549 1_555
Au1_0 Hg0_2 3.197550 1_545
Au1_1 P3_1 2.344703 1_555
Au1_1 P0_1 2.344703 1_555
Au1_1 Hg0_1 2.932144 1_555
Au1_1 Hg0_5 3.197549 1_555
Au1_1 Hg0_3 3.197550 1_545
Au1_2 P0_2 2.344703 1_555
Au1_2 P3_2 2.344703 1_555
Au1_2 Hg0_2 2.932144 1_555
Au1_2 Hg0_6 3.197549 1_555
Au1_2 Hg0_0 3.197550 1_555
Au1_3 P3_3 2.344703 1_555
Au1_3 P0_3 2.344703 1_555
Au1_3 Hg0_3 2.932144 1_555
Au1_3 Hg0_7 3.197549 1_555
Au1_3 Hg0_1 3.197550 1_555
Au1_4 P0_4 2.344703 1_555
Au1_4 P3_4 2.344703 1_555
Au1_4 Hg0_4 2.932144 1_555
Au1_4 Hg0_0 3.197549 1_655
Au1_4 Hg0_6 3.197550 1_545
Au1_5 P3_5 2.344703 1_555
Au1_5 P0_5 2.344703 1_555
Au1_5 Hg0_5 2.932144 1_555
Au1_5 Hg0_1 3.197549 1_655
Au1_5 Hg0_7 3.197550 1_545
Au1_6 P0_6 2.344703 1_555
Au1_6 P3_6 2.344703 1_555
Au1_6 Hg0_6 2.932144 1_555
Au1_6 Hg0_2 3.197549 1_655
Au1_6 Hg0_4 3.197550 1_555
Au1_7 P3_7 2.344703 1_555
Au1_7 P0_7 2.344703 1_555
Au1_7 Hg0_7 2.932144 1_555
Au1_7 Hg0_3 3.197549 1_655
Au1_7 Hg0_5 3.197550 1_555
Au2_0 P2_6 2.348071 1_545
Au2_0 P0_0 2.350958 1_555
Au2_0 Cd0_2 3.198068 1_545
Au2_0 Cd0_4 3.198068 1_555
Au2_0 Hg0_4 3.316410 1_555
Au2_0 Hg0_2 3.316410 1_545
Au2_1 P2_7 2.348071 1_545
Au2_1 P0_1 2.350958 1_555
Au2_1 Cd0_3 3.198068 1_545
Au2_1 Cd0_5 3.198068 1_555
Au2_1 Hg0_5 3.316410 1_555
Au2_1 Hg0_3 3.316410 1_545
Au2_2 P2_4 2.348071 1_555
Au2_2 P0_2 2.350958 1_555
Au2_2 Cd0_0 3.198068 1_555
Au2_2 Cd0_6 3.198068 1_555
Au2_2 Hg0_6 3.316410 1_555
Au2_2 Hg0_0 3.316410 1_555
Au2_3 P2_5 2.348071 1_555
Au2_3 P0_3 2.350958 1_555
Au2_3 Cd0_1 3.198068 1_555
Au2_3 Cd0_7 3.198068 1_555
Au2_3 Hg0_7 3.316410 1_555
Au2_3 Hg0_1 3.316410 1_555
Au2_4 P2_2 2.348071 1_645
Au2_4 P0_4 2.350958 1_555
Au2_4 Cd0_6 3.198068 1_545
Au2_4 Cd0_0 3.198068 1_655
Au2_4 Hg0_0 3.316410 1_655
Au2_4 Hg0_6 3.316410 1_545
Au2_5 P2_3 2.348071 1_645
Au2_5 P0_5 2.350958 1_555
Au2_5 Cd0_7 3.198068 1_545
Au2_5 Cd0_1 3.198068 1_655
Au2_5 Hg0_1 3.316410 1_655
Au2_5 Hg0_7 3.316410 1_545
Au2_6 P2_0 2.348071 1_655
Au2_6 P0_6 2.350958 1_555
Au2_6 Cd0_4 3.198068 1_555
Au2_6 Cd0_2 3.198068 1_655
Au2_6 Hg0_2 3.316410 1_655
Au2_6 Hg0_4 3.316410 1_555
Au2_7 P2_1 2.348071 1_655
Au2_7 P0_7 2.350958 1_555
Au2_7 Cd0_5 3.198068 1_555
Au2_7 Cd0_3 3.198068 1_655
Au2_7 Hg0_3 3.316410 1_655
Au2_7 Hg0_5 3.316410 1_555
Au3_0 P2_0 2.339758 1_555
Au3_0 P1_0 2.339758 1_555
Au3_0 Cd0_0 2.911121 1_555
Au3_0 Cd0_4 3.215675 1_455
Au3_0 Cd0_2 3.215675 1_555
Au3_1 P2_1 2.339758 1_555
Au3_1 P1_1 2.339758 1_555
Au3_1 Cd0_1 2.911121 1_555
Au3_1 Cd0_5 3.215675 1_455
Au3_1 Cd0_3 3.215675 1_555
Au3_2 P2_2 2.339758 1_555
Au3_2 P1_2 2.339758 1_555
Au3_2 Cd0_2 2.911121 1_555
Au3_2 Cd0_6 3.215675 1_455
Au3_2 Cd0_0 3.215675 1_565
Au3_3 P2_3 2.339758 1_555
Au3_3 P1_3 2.339758 1_555
Au3_3 Cd0_3 2.911121 1_555
Au3_3 Cd0_7 3.215675 1_455
Au3_3 Cd0_1 3.215675 1_565
Au3_4 P2_4 2.339758 1_555
Au3_4 P1_4 2.339758 1_555
Au3_4 Cd0_4 2.911121 1_555
Au3_4 Cd0_0 3.215675 1_555
Au3_4 Cd0_6 3.215675 1_555
Au3_5 P2_5 2.339758 1_555
Au3_5 P1_5 2.339758 1_555
Au3_5 Cd0_5 2.911121 1_555
Au3_5 Cd0_1 3.215675 1_555
Au3_5 Cd0_7 3.215675 1_555
Au3_6 P2_6 2.339758 1_555
Au3_6 P1_6 2.339758 1_555
Au3_6 Cd0_6 2.911121 1_555
Au3_6 Cd0_2 3.215675 1_555
Au3_6 Cd0_4 3.215675 1_565
Au3_7 P2_7 2.339758 1_555
Au3_7 P1_7 2.339758 1_555
Au3_7 Cd0_7 2.911121 1_555
Au3_7 Cd0_3 3.215675 1_555
Au3_7 Cd0_5 3.215675 1_565
