# generated using pymatgen
data_Y4Zn9GaSn2
_symmetry_space_group_name_H-M   'P 1'
_cell_length_a   8.32458114
_cell_length_b   8.32458236
_cell_length_c   8.96545791
_cell_angle_alpha   90.18662153
_cell_angle_beta   89.81337858
_cell_angle_gamma   149.90524463
_symmetry_Int_Tables_number   1
_chemical_formula_structural   Y4Zn9GaSn2
_chemical_formula_sum   'Y4 Zn9 Ga1 Sn2'
_cell_volume   311.53475261
_cell_formula_units_Z   1
loop_
 _symmetry_equiv_pos_site_id
 _symmetry_equiv_pos_as_xyz
  1  'x, y, z'
loop_
 _atom_site_type_symbol
 _atom_site_label
 _atom_site_symmetry_multiplicity
 _atom_site_fract_x
 _atom_site_fract_y
 _atom_site_fract_z
 _atom_site_occupancy
  Y  Y0  1  0.20154178  0.79845822  0.24975954  1
  Y  Y1  1  0.79816283  0.20183717  0.75129655  1
  Y  Y2  1  0.00020906  0.99979094  0.50007632  1
  Y  Y3  1  0.00092148  0.99907852  0.99736501  1
  Zn  Zn0  1  0.18465398  0.81534602  0.61196272  1
  Zn  Zn1  1  0.81388572  0.18611428  0.10579077  1
  Zn  Zn2  1  0.18669274  0.81330726  0.89249282  1
  Zn  Zn3  1  0.65522328  0.34477672  0.48287591  1
  Zn  Zn4  1  0.34330654  0.65669346  0.51992745  1
  Zn  Zn5  1  0.65681876  0.34318124  0.01840344  1
  Zn  Zn6  1  0.34350953  0.65649047  0.98115002  1
  Zn  Zn7  1  0.39098610  0.60901390  0.24697281  1
  Zn  Zn8  1  0.61063840  0.38936160  0.75123293  1
  Ga  Ga0  1  0.81279422  0.18720578  0.39107099  1
  Sn  Sn0  1  0.55238021  0.44761979  0.25006288  1
  Sn  Sn1  1  0.44827738  0.55172262  0.74955983  1
loop_
_geom_bond_atom_site_label_1
_geom_bond_atom_site_label_2
_geom_bond_distance
_geom_bond_site_symmetry_2
Y0 Zn7 3.045959 1_555
Y0 Zn5 3.082256 1_455
Y0 Zn5 3.082257 1_565
Y0 Zn3 3.095644 1_455
Y0 Zn3 3.095644 1_565
Y0 Zn1 3.095776 1_565
Y0 Zn1 3.095777 1_455
Y0 Zn2 3.212748 1_554
Y0 Zn0 3.257737 1_555
Y0 Zn6 3.312497 1_554
Y0 Zn4 3.331600 1_555
Y1 Zn8 3.015074 1_555
Y1 Zn6 3.075580 1_655
Y1 Zn6 3.075581 1_545
Y1 Zn2 3.077360 1_545
Y1 Zn2 3.077361 1_655
Y1 Zn4 3.080640 1_655
Y1 Zn4 3.080641 1_545
Y1 Zn0 3.094738 1_545
Y1 Zn0 3.094739 1_655
Y1 Zn1 3.189091 1_556
Y1 Zn5 3.295850 1_556
Y1 Zn3 3.333234 1_555
Y2 Zn0 3.133822 1_555
Y2 Zn3 3.302103 1_565
Y2 Zn3 3.302104 1_455
Y2 Zn4 3.326199 1_455
Y2 Zn4 3.326200 1_565
Y3 Zn2 3.128348 1_555
Y3 Zn1 3.157305 1_466
Y3 Zn5 3.315484 1_566
Y3 Zn5 3.315485 1_456
Y3 Zn6 3.331661 1_455
Y3 Zn6 3.331662 1_565
Zn0 Zn3 2.497564 1_455
Zn0 Zn3 2.497564 1_565
Zn0 Zn2 2.515405 1_555
Zn0 Zn4 2.678348 1_555
Zn0 Zn8 2.763342 1_455
Zn0 Zn8 2.763342 1_565
Zn1 Zn6 2.478470 1_654
Zn1 Zn6 2.478470 1_544
Zn1 Zn5 2.646630 1_555
Zn1 Zn7 2.796475 1_655
Zn1 Zn7 2.796475 1_545
Zn2 Zn5 2.484385 1_456
Zn2 Zn5 2.484385 1_566
Zn2 Zn6 2.646222 1_555
Zn2 Zn8 2.789352 1_455
Zn2 Zn8 2.789353 1_565
Zn3 Zn8 2.508147 1_555
Zn4 Zn7 2.561960 1_555
Zn5 Zn8 2.510139 1_554
Zn6 Zn7 2.504938 1_556
Ga0 Zn4 2.499988 1_655
Ga0 Zn4 2.499988 1_545
Ga0 Zn1 2.557669 1_555
Ga0 Zn3 2.661176 1_555
Ga0 Zn7 2.812369 1_655
Ga0 Zn7 2.812369 1_545
Ga0 Y0 3.080718 1_545
Ga0 Y0 3.080718 1_655
Ga0 Y2 3.170959 1_645
Ga0 Y1 3.237352 1_555
Sn0 Zn7 2.595182 1_555
Sn0 Zn5 2.666423 1_555
Sn0 Zn3 2.667245 1_555
Sn0 Y2 3.222734 1_545
Sn0 Y2 3.222735 1_655
Sn0 Y0 3.228381 1_655
Sn0 Y0 3.228382 1_545
Sn0 Y3 3.240483 1_544
Sn0 Y3 3.240483 1_654
Sn1 Zn8 2.610581 1_555
Sn1 Zn4 2.666540 1_555
Sn1 Zn6 2.669265 1_555
Sn1 Y3 3.214940 1_655
Sn1 Y3 3.214940 1_545
Sn1 Y2 3.218444 1_655
Sn1 Y2 3.218444 1_545
Sn1 Y1 3.239784 1_455
Sn1 Y1 3.239785 1_565
