# generated using pymatgen
data_Ta12Mn9Al3N4
_symmetry_space_group_name_H-M   'P 1'
_cell_length_a   8.13497216
_cell_length_b   8.09753988
_cell_length_c   8.09753942
_cell_angle_alpha   60.00000185
_cell_angle_beta   60.15209864
_cell_angle_gamma   60.15209871
_symmetry_Int_Tables_number   1
_chemical_formula_structural   Ta12Mn9Al3N4
_chemical_formula_sum   'Ta12 Mn9 Al3 N4'
_cell_volume   378.04357360
_cell_formula_units_Z   1
loop_
 _symmetry_equiv_pos_site_id
 _symmetry_equiv_pos_as_xyz
  1  'x, y, z'
loop_
 _atom_site_type_symbol
 _atom_site_label
 _atom_site_symmetry_multiplicity
 _atom_site_fract_x
 _atom_site_fract_y
 _atom_site_fract_z
 _atom_site_occupancy
  Ta  Ta0  1  0.81132096  0.80805817  0.19031093  1
  Ta  Ta1  1  0.19709673  0.19125617  0.80582355  1
  Ta  Ta2  1  0.81132096  0.19031093  0.80805817  1
  Ta  Ta3  1  0.19709673  0.80582355  0.19125617  1
  Ta  Ta4  1  0.19709673  0.80582355  0.80582355  1
  Ta  Ta5  1  0.81132096  0.19031093  0.19031093  1
  Ta  Ta6  1  0.43867904  0.44194183  0.05968907  1
  Ta  Ta7  1  0.05290327  0.05874383  0.44417645  1
  Ta  Ta8  1  0.43867904  0.05968907  0.44194183  1
  Ta  Ta9  1  0.05290327  0.44417645  0.05874383  1
  Ta  Ta10  1  0.05290327  0.44417645  0.44417645  1
  Ta  Ta11  1  0.43867904  0.05968907  0.05968907  1
  Mn  Mn0  1  0.12500000  0.62500000  0.62500000  1
  Mn  Mn1  1  0.73953512  0.42015496  0.42015496  1
  Mn  Mn2  1  0.40947878  0.74570099  0.42241011  1
  Mn  Mn3  1  0.40947878  0.42241011  0.74570099  1
  Mn  Mn4  1  0.40947878  0.42241011  0.42241011  1
  Mn  Mn5  1  0.51046488  0.82984504  0.82984504  1
  Mn  Mn6  1  0.84052122  0.50429901  0.82758989  1
  Mn  Mn7  1  0.84052122  0.82758989  0.50429901  1
  Mn  Mn8  1  0.84052122  0.82758989  0.82758989  1
  Al  Al0  1  0.62500000  0.12500000  0.62500000  1
  Al  Al1  1  0.62500000  0.62500000  0.12500000  1
  Al  Al2  1  0.62500000  0.62500000  0.62500000  1
  N  N0  1  0.62500000  0.12500000  0.12500000  1
  N  N1  1  0.12500000  0.62500000  0.12500000  1
  N  N2  1  0.12500000  0.12500000  0.62500000  1
  N  N3  1  0.12500000  0.12500000  0.12500000  1
loop_
_geom_bond_atom_site_label_1
_geom_bond_atom_site_label_2
_geom_bond_distance
_geom_bond_site_symmetry_2
Mn0 Mn3 2.423060 1_555
Mn0 Mn7 2.423060 1_455
Mn0 Mn8 2.423060 1_455
Mn0 Mn4 2.423060 1_555
Mn0 Mn2 2.423060 1_555
Mn0 Mn6 2.423060 1_455
Mn0 Ta4 2.912990 1_555
Mn0 Ta10 2.912990 1_555
Mn0 Ta9 2.912990 1_556
Mn0 Ta3 2.912990 1_555
Mn0 Ta7 2.912990 1_565
Mn0 Ta1 2.912990 1_555
Mn1 Mn3 2.666948 1_555
Mn1 Mn4 2.666948 1_555
Mn1 Mn2 2.666948 1_555
Mn1 Ta10 2.756684 1_655
Mn1 Ta9 2.756684 1_655
Mn1 Ta7 2.756684 1_655
Mn1 Ta5 2.927310 1_555
Mn1 Ta2 2.927317 1_555
Mn1 Ta0 2.927317 1_555
Mn2 Mn3 2.617861 1_555
Mn2 Mn4 2.617861 1_555
Mn2 Ta7 2.736716 1_565
Mn2 Ta8 2.754380 1_565
Mn2 Ta11 2.754384 1_565
Mn2 Ta3 2.862883 1_555
Mn2 Ta4 2.862883 1_555
Mn2 Ta0 3.008641 1_555
Mn3 Mn4 2.617861 1_555
Mn3 Ta9 2.736716 1_556
Mn3 Ta6 2.754379 1_556
Mn3 Ta11 2.754384 1_556
Mn3 Ta1 2.862883 1_555
Mn3 Ta4 2.862883 1_555
Mn3 Ta2 3.008641 1_555
Mn4 Ta10 2.736716 1_555
Mn4 Ta6 2.754388 1_555
Mn4 Ta8 2.754388 1_555
Mn4 Ta1 2.862883 1_555
Mn4 Ta3 2.862883 1_555
Mn4 Ta5 3.008638 1_555
Mn5 Mn7 2.666948 1_555
Mn5 Mn8 2.666948 1_555
Mn5 Mn6 2.666948 1_555
Mn5 Ta4 2.756684 1_555
Mn5 Ta3 2.756684 1_556
Mn5 Ta1 2.756684 1_565
Mn5 Ta11 2.927310 1_566
Mn5 Ta8 2.927317 1_565
Mn5 Ta6 2.927317 1_556
Mn6 Mn7 2.617861 1_555
Mn6 Mn8 2.617861 1_555
Mn6 Ta1 2.736716 1_655
Mn6 Ta2 2.754380 1_555
Mn6 Ta5 2.754384 1_556
Mn6 Ta9 2.862883 1_656
Mn6 Ta10 2.862883 1_655
Mn6 Ta6 3.008641 1_556
Mn7 Mn8 2.617861 1_555
Mn7 Ta3 2.736716 1_655
Mn7 Ta0 2.754379 1_555
Mn7 Ta5 2.754384 1_565
Mn7 Ta7 2.862883 1_665
Mn7 Ta10 2.862883 1_655
Mn7 Ta8 3.008641 1_565
Mn8 Ta4 2.736716 1_655
Mn8 Ta0 2.754388 1_556
Mn8 Ta2 2.754388 1_565
Mn8 Ta7 2.862883 1_665
Mn8 Ta9 2.862883 1_656
Mn8 Ta11 3.008638 1_566
Al0 Mn1 2.458779 1_555
Al0 Mn5 2.458779 1_545
Al0 Mn3 2.504840 1_555
Al0 Mn7 2.504840 1_545
Al0 Mn8 2.504840 1_545
Al0 Mn4 2.504840 1_555
Al0 Ta7 2.898642 1_655
Al0 Ta1 2.898642 1_555
Al0 Ta11 2.931315 1_556
Al0 Ta5 2.931315 1_555
Al0 Ta2 2.931321 1_555
Al0 Ta8 2.931321 1_555
Al1 Mn1 2.458779 1_555
Al1 Mn5 2.458779 1_554
Al1 Mn2 2.504840 1_555
Al1 Mn6 2.504840 1_554
Al1 Mn8 2.504840 1_554
Al1 Mn4 2.504840 1_555
Al1 Ta9 2.898642 1_655
Al1 Ta3 2.898642 1_555
Al1 Ta11 2.931315 1_565
Al1 Ta5 2.931315 1_555
Al1 Ta0 2.931322 1_555
Al1 Ta6 2.931322 1_555
Al2 Mn5 2.458779 1_555
Al2 Mn1 2.458779 1_555
Al2 Mn6 2.504840 1_555
Al2 Mn2 2.504840 1_555
Al2 Mn7 2.504840 1_555
Al2 Mn3 2.504840 1_555
Al2 Ta10 2.898642 1_655
Al2 Ta4 2.898642 1_555
Al2 Ta6 2.931316 1_556
Al2 Ta0 2.931316 1_555
Al2 Ta8 2.931316 1_565
Al2 Ta2 2.931316 1_555
N0 Ta8 2.175376 1_555
N0 Ta2 2.175376 1_554
N0 Ta6 2.175376 1_555
N0 Ta0 2.175376 1_545
N0 Ta5 2.175382 1_555
N0 Ta11 2.175382 1_555
N1 Ta6 2.159626 1_555
N1 Ta0 2.159626 1_455
N1 Ta3 2.174720 1_555
N1 Ta9 2.174720 1_555
N1 Ta10 2.174720 1_555
N1 Ta4 2.174720 1_554
N2 Ta8 2.159626 1_555
N2 Ta2 2.159626 1_455
N2 Ta1 2.174720 1_555
N2 Ta7 2.174720 1_555
N2 Ta10 2.174720 1_555
N2 Ta4 2.174720 1_545
N3 Ta11 2.159624 1_555
N3 Ta5 2.159624 1_455
N3 Ta7 2.174720 1_555
N3 Ta1 2.174720 1_554
N3 Ta9 2.174720 1_555
N3 Ta3 2.174720 1_545
