# generated using pymatgen
data_Ti5Al16SiRh7
_symmetry_space_group_name_H-M   'P 1'
_cell_length_a   8.54571276
_cell_length_b   8.54571233
_cell_length_c   8.44218072
_cell_angle_alpha   60.39995190
_cell_angle_beta   60.39995352
_cell_angle_gamma   59.20009000
_symmetry_Int_Tables_number   1
_chemical_formula_structural   Ti5Al16SiRh7
_chemical_formula_sum   'Ti5 Al16 Si1 Rh7'
_cell_volume   435.82306710
_cell_formula_units_Z   1
loop_
 _symmetry_equiv_pos_site_id
 _symmetry_equiv_pos_as_xyz
  1  'x, y, z'
loop_
 _atom_site_type_symbol
 _atom_site_label
 _atom_site_symmetry_multiplicity
 _atom_site_fract_x
 _atom_site_fract_y
 _atom_site_fract_z
 _atom_site_occupancy
  Ti  Ti0  1  0.28914557  0.70881223  0.29118777  1
  Ti  Ti1  1  0.70881223  0.28914557  0.29118777  1
  Ti  Ti2  1  0.31327294  0.31327294  0.68672706  1
  Ti  Ti3  1  0.70881223  0.28914557  0.71085443  1
  Ti  Ti4  1  0.28914557  0.70881223  0.71085443  1
  Al  Al0  1  0.88425099  0.88425199  0.35073707  1
  Al  Al1  1  0.88199521  0.37697045  0.87051767  1
  Al  Al2  1  0.37696945  0.88199521  0.87051767  1
  Al  Al3  1  0.88425099  0.88425099  0.88075996  1
  Al  Al4  1  0.12948133  0.12948233  0.62302955  1
  Al  Al5  1  0.11924004  0.64926293  0.11574901  1
  Al  Al6  1  0.64926293  0.11924004  0.11574901  1
  Al  Al7  1  0.12948233  0.12948233  0.11800479  1
  Al  Al8  1  0.65919675  0.65919675  0.07051196  1
  Al  Al9  1  0.67041925  0.03267560  0.64845157  1
  Al  Al10  1  0.03267560  0.67041925  0.64845157  1
  Al  Al11  1  0.65919675  0.65919675  0.61109255  1
  Al  Al12  1  0.35154843  0.35154843  0.96732440  1
  Al  Al13  1  0.38890745  0.92948804  0.34080325  1
  Al  Al14  1  0.92948804  0.38890745  0.34080325  1
  Al  Al15  1  0.35154843  0.35154843  0.32958075  1
  Si  Si0  1  0.52546573  0.52546573  0.47453427  1
  Rh  Rh0  1  0.01311495  0.01311495  0.98688505  1
  Rh  Rh1  1  0.01141308  0.01141308  0.48858692  1
  Rh  Rh2  1  0.50473561  0.01101121  0.49526439  1
  Rh  Rh3  1  0.01101121  0.50473561  0.49526439  1
  Rh  Rh4  1  0.51141308  0.51141308  0.98858692  1
  Rh  Rh5  1  0.01101121  0.50473561  0.98898879  1
  Rh  Rh6  1  0.50473561  0.01101121  0.98898879  1
loop_
_geom_bond_atom_site_label_1
_geom_bond_atom_site_label_2
_geom_bond_distance
_geom_bond_site_symmetry_2
Al0 Rh0 2.533644 1_664
Al0 Rh2 2.641840 1_565
Al0 Rh3 2.641847 1_655
Al0 Rh1 2.724711 1_665
Al1 Rh0 2.528004 1_655
Al1 Rh4 2.574789 1_555
Al1 Rh5 2.609392 1_655
Al1 Rh3 2.609399 1_655
Al2 Rh0 2.527997 1_565
Al2 Rh4 2.574789 1_555
Al2 Rh2 2.609399 1_565
Al2 Rh6 2.609399 1_565
Al3 Rh0 2.533651 1_665
Al3 Rh5 2.641839 1_655
Al3 Rh6 2.641840 1_565
Al3 Rh1 2.724711 1_665
Al4 Rh0 2.528003 1_555
Al4 Rh1 2.574775 1_555
Al4 Rh3 2.609400 1_555
Al4 Rh2 2.609407 1_555
Al5 Rh0 2.533644 1_564
Al5 Rh3 2.641839 1_555
Al5 Rh5 2.641847 1_554
Al5 Rh4 2.724711 1_554
Al6 Rh0 2.533644 1_654
Al6 Rh2 2.641839 1_555
Al6 Rh6 2.641847 1_554
Al6 Rh4 2.724711 1_554
Al7 Rh0 2.527997 1_554
Al7 Rh1 2.574789 1_555
Al7 Rh5 2.609399 1_554
Al7 Rh6 2.609400 1_554
Al8 Rh6 2.458521 1_564
Al8 Rh5 2.458521 1_654
Al8 Rh4 2.650925 1_554
Al8 Si0 2.807462 1_555
Al9 Rh2 2.454653 1_555
Al9 Rh6 2.454667 1_555
Al9 Rh1 2.482119 1_655
Al10 Rh3 2.454652 1_555
Al10 Rh5 2.454666 1_555
Al10 Rh1 2.482119 1_565
Al11 Rh2 2.458520 1_565
Al11 Rh3 2.458520 1_655
Al11 Rh4 2.650937 1_555
Al11 Si0 2.807449 1_555
Al12 Rh6 2.454668 1_555
Al12 Rh5 2.454668 1_555
Al12 Rh4 2.482104 1_555
Al13 Rh2 2.458507 1_565
Al13 Rh6 2.458521 1_564
Al13 Rh1 2.650939 1_565
Al13 Si0 2.807463 1_555
Al14 Rh3 2.458507 1_655
Al14 Rh5 2.458521 1_654
Al14 Rh1 2.650939 1_655
Al14 Si0 2.807463 1_555
Al15 Rh2 2.454663 1_555
Al15 Rh3 2.454663 1_555
Al15 Rh4 2.482114 1_554
Si0 Ti3 2.526067 1_555
Si0 Ti4 2.526067 1_555
Si0 Ti1 2.526067 1_555
Si0 Ti0 2.526067 1_555
Si0 Ti2 2.595144 1_555
Rh1 Ti4 3.026863 1_545
Rh1 Ti3 3.026863 1_455
Rh1 Ti0 3.026863 1_545
Rh1 Ti1 3.026863 1_455
Rh4 Ti1 3.026863 1_556
Rh4 Ti0 3.026863 1_556
Rh4 Ti3 3.026863 1_555
Rh4 Ti4 3.026863 1_555
