# generated using pymatgen
data_K2NaSbS4
_symmetry_space_group_name_H-M   'P 1'
_cell_length_a   7.93121332
_cell_length_b   10.38805973
_cell_length_c   10.81388624
_cell_angle_alpha   90.00000000
_cell_angle_beta   90.00000000
_cell_angle_gamma   90.00000000
_symmetry_Int_Tables_number   1
_chemical_formula_structural   K2NaSbS4
_chemical_formula_sum   'K8 Na4 Sb4 S16'
_cell_volume   890.95519770
_cell_formula_units_Z   4
loop_
 _symmetry_equiv_pos_site_id
 _symmetry_equiv_pos_as_xyz
  1  'x, y, z'
loop_
 _atom_site_type_symbol
 _atom_site_label
 _atom_site_symmetry_multiplicity
 _atom_site_fract_x
 _atom_site_fract_y
 _atom_site_fract_z
 _atom_site_occupancy
  K  K0  1  0.44000754  0.75606205  0.26087288  1
  K  K1  1  0.94000754  0.74393795  0.76087288  1
  K  K2  1  0.80569700  0.00000000  0.50000000  1
  K  K3  1  0.30569700  0.50000000  0.00000000  1
  K  K4  1  0.94000754  0.25606205  0.23912712  1
  K  K5  1  0.95459927  0.50000000  0.50000000  1
  K  K6  1  0.45459927  0.00000000  0.00000000  1
  K  K7  1  0.44000754  0.24393795  0.73912712  1
  Na  Na0  1  0.46162150  0.50000000  0.50000000  1
  Na  Na1  1  0.76778150  0.50000000  0.00000000  1
  Na  Na2  1  0.26778150  0.00000000  0.50000000  1
  Na  Na3  1  0.96162150  0.00000000  0.00000000  1
  Sb  Sb0  1  0.44075821  0.73289565  0.73356649  1
  Sb  Sb1  1  0.94075821  0.23289565  0.76643351  1
  Sb  Sb2  1  0.94075821  0.76710435  0.23356649  1
  Sb  Sb3  1  0.44075821  0.26710435  0.26643351  1
  S  S0  1  0.77707345  0.42063455  0.75840732  1
  S  S1  1  0.27707345  0.92063455  0.74159268  1
  S  S2  1  0.59080782  0.71994062  0.92081049  1
  S  S3  1  0.27707345  0.07936545  0.25840732  1
  S  S4  1  0.77707345  0.57936545  0.24159268  1
  S  S5  1  0.76564084  0.94894317  0.21159622  1
  S  S6  1  0.11906300  0.23441687  0.94051562  1
  S  S7  1  0.61906300  0.73441687  0.55948438  1
  S  S8  1  0.26564084  0.55105683  0.71159622  1
  S  S9  1  0.09080782  0.21994062  0.57918951  1
  S  S10  1  0.76564084  0.05105683  0.78840378  1
  S  S11  1  0.61906300  0.26558313  0.44051562  1
  S  S12  1  0.11906300  0.76558313  0.05948438  1
  S  S13  1  0.09080782  0.78005938  0.42081049  1
  S  S14  1  0.59080782  0.28005938  0.07918951  1
  S  S15  1  0.26564084  0.44894317  0.28840378  1
loop_
_geom_bond_atom_site_label_1
_geom_bond_atom_site_label_2
_geom_bond_distance
_geom_bond_site_symmetry_2
K0 S4 3.249525 1_555
K0 S13 3.274757 1_555
K0 S5 3.311915 1_555
K0 S12 3.351422 1_555
K0 S15 3.489930 1_555
K0 S7 3.534789 1_555
K0 S3 3.598631 1_565
K1 S1 3.249525 1_655
K1 S2 3.274757 1_555
K1 S8 3.311915 1_655
K1 S7 3.351422 1_555
K1 S10 3.489930 1_565
K1 S12 3.534789 1_656
K1 S0 3.598631 1_555
K2 S10 3.179455 1_555
K2 S5 3.179455 1_545
K2 S11 3.196305 1_555
K2 S7 3.196305 1_545
K2 S9 3.326681 1_655
K2 S13 3.326681 1_645
K3 S15 3.179455 1_555
K3 S8 3.179455 1_554
K3 S12 3.196305 1_555
K3 S6 3.196305 1_554
K3 S14 3.326681 1_555
K3 S2 3.326681 1_554
K4 S3 3.249525 1_655
K4 S14 3.274757 1_555
K4 S15 3.311915 1_655
K4 S11 3.351422 1_555
K4 S5 3.489930 1_545
K4 S6 3.534789 1_654
K4 S4 3.598631 1_555
K5 S13 3.219355 1_655
K5 S9 3.219355 1_655
K5 S0 3.235857 1_555
K5 S4 3.235857 1_555
K5 S8 3.406294 1_655
K5 S15 3.406294 1_655
K5 S7 3.664111 1_555
K5 S11 3.664111 1_555
K6 S2 3.219355 1_544
K6 S14 3.219355 1_555
K6 S3 3.235857 1_555
K6 S1 3.235857 1_544
K6 S5 3.406294 1_545
K6 S10 3.406294 1_554
K6 S6 3.664111 1_554
K6 S12 3.664111 1_545
K7 S0 3.249525 1_555
K7 S9 3.274757 1_555
K7 S10 3.311915 1_555
K7 S6 3.351422 1_555
K7 S8 3.489930 1_555
K7 S11 3.534789 1_555
K7 S1 3.598631 1_545
Na0 S7 2.811214 1_555
Na0 S11 2.811214 1_555
Na0 S8 2.816578 1_555
Na0 S15 2.816578 1_555
Na1 S4 2.740548 1_555
Na1 S0 2.740548 1_554
Na1 S14 2.814885 1_555
Na1 S2 2.814885 1_554
Na2 S1 2.740548 1_545
Na2 S3 2.740548 1_555
Na2 S9 2.814885 1_555
Na2 S13 2.814885 1_545
Na3 S6 2.811214 1_654
Na3 S12 2.811214 1_645
Na3 S5 2.816578 1_545
Na3 S10 2.816578 1_554
S0 Sb1 2.344430 1_555
S1 Sb0 2.344430 1_555
S2 Sb0 2.352520 1_555
S3 Sb3 2.344430 1_555
S4 Sb2 2.344430 1_555
S5 Sb2 2.356610 1_555
S6 Sb1 2.354561 1_455
S7 Sb0 2.354561 1_555
S8 Sb0 2.356610 1_555
S9 Sb1 2.352520 1_455
S10 Sb1 2.356610 1_555
S11 Sb3 2.354561 1_555
S12 Sb2 2.354561 1_455
S13 Sb2 2.352520 1_455
S14 Sb3 2.352520 1_555
S15 Sb3 2.356610 1_555
