# generated using pymatgen
data_K2LiPS4
_symmetry_space_group_name_H-M   'P 1'
_cell_length_a   12.62077481
_cell_length_b   11.26991641
_cell_length_c   7.03360173
_cell_angle_alpha   83.77208291
_cell_angle_beta   62.58506276
_cell_angle_gamma   33.64285708
_symmetry_Int_Tables_number   1
_chemical_formula_structural   K2LiPS4
_chemical_formula_sum   'K4 Li2 P2 S8'
_cell_volume   408.01226114
_cell_formula_units_Z   2
loop_
 _symmetry_equiv_pos_site_id
 _symmetry_equiv_pos_as_xyz
  1  'x, y, z'
loop_
 _atom_site_type_symbol
 _atom_site_label
 _atom_site_symmetry_multiplicity
 _atom_site_fract_x
 _atom_site_fract_y
 _atom_site_fract_z
 _atom_site_occupancy
  K  K0  1  0.68180596  0.68180596  0.31819404  1
  K  K1  1  0.93180596  0.93180596  0.56819404  1
  K  K2  1  0.56819404  0.56819404  0.93180596  1
  K  K3  1  0.31819404  0.31819404  0.68180596  1
  Li  Li0  1  0.00000000  0.00000000  0.00000000  1
  Li  Li1  1  0.25000000  0.25000000  0.25000000  1
  P  P0  1  0.50000000  0.50000000  0.50000000  1
  P  P1  1  0.75000000  0.75000000  0.75000000  1
  S  S0  1  0.91364612  0.69450710  0.40107588  1
  S  S1  1  0.33635388  0.55549290  0.84892412  1
  S  S2  1  0.69450710  0.91364612  0.99076990  1
  S  S3  1  0.84892412  0.25923010  0.33635388  1
  S  S4  1  0.55549290  0.33635388  0.25923010  1
  S  S5  1  0.25923010  0.84892412  0.55549290  1
  S  S6  1  0.40107588  0.99076990  0.91364612  1
  S  S7  1  0.99076990  0.40107588  0.69450710  1
loop_
_geom_bond_atom_site_label_1
_geom_bond_atom_site_label_2
_geom_bond_distance
_geom_bond_site_symmetry_2
K0 S5 3.246055 1_555
K0 S3 3.246057 1_555
K0 S6 3.343164 1_555
K0 S7 3.343170 1_554
K0 S0 3.347840 1_555
K0 S2 3.347844 1_554
K1 S2 3.246063 1_555
K1 S0 3.246067 1_555
K1 S1 3.343167 1_565
K1 S4 3.343169 1_655
K1 S3 3.347849 1_565
K1 S5 3.347852 1_655
K2 S7 3.246055 1_555
K2 S6 3.246057 1_555
K2 S3 3.343164 1_555
K2 S5 3.343170 1_556
K2 S1 3.347840 1_555
K2 S4 3.347844 1_556
K3 S4 3.246063 1_555
K3 S1 3.246067 1_555
K3 S0 3.343167 1_545
K3 S2 3.343169 1_455
K3 S6 3.347849 1_545
K3 S7 3.347852 1_455
Li0 S4 2.416292 1_455
Li0 S1 2.416293 1_544
Li0 S5 2.416295 1_544
Li0 S3 2.416301 1_455
Li1 S2 2.416292 1_544
Li1 S0 2.416293 1_455
Li1 S7 2.416295 1_455
Li1 S6 2.416301 1_544
P0 S4 2.048062 1_555
P0 S1 2.048067 1_555
P0 S5 2.048070 1_555
P0 S3 2.048072 1_555
P1 S2 2.048062 1_555
P1 S0 2.048067 1_555
P1 S7 2.048070 1_555
P1 S6 2.048072 1_555
