# generated using pymatgen
data_K2ZrHCl7
_symmetry_space_group_name_H-M   'P 1'
_cell_length_a   7.82652952
_cell_length_b   7.25127321
_cell_length_c   10.76680493
_cell_angle_alpha   90.00000000
_cell_angle_beta   100.13615955
_cell_angle_gamma   90.00000000
_symmetry_Int_Tables_number   1
_chemical_formula_structural   K2ZrHCl7
_chemical_formula_sum   'K4 Zr2 H2 Cl14'
_cell_volume   601.50404584
_cell_formula_units_Z   2
loop_
 _symmetry_equiv_pos_site_id
 _symmetry_equiv_pos_as_xyz
  1  'x, y, z'
loop_
 _atom_site_type_symbol
 _atom_site_label
 _atom_site_symmetry_multiplicity
 _atom_site_fract_x
 _atom_site_fract_y
 _atom_site_fract_z
 _atom_site_occupancy
  K  K0  1  0.22593645  0.25000000  0.99224601  1
  K  K1  1  0.77406355  0.75000000  0.00775399  1
  K  K2  1  0.18353000  0.75000000  0.66805520  1
  K  K3  1  0.81647000  0.25000000  0.33194480  1
  Zr  Zr0  1  0.30863726  0.75000000  0.21695022  1
  Zr  Zr1  1  0.69136274  0.25000000  0.78304978  1
  H  H0  1  0.30626270  0.25000000  0.53248825  1
  H  H1  1  0.69373730  0.75000000  0.46751175  1
  Cl  Cl0  1  0.15186449  0.25000000  0.56221229  1
  Cl  Cl1  1  0.84813551  0.75000000  0.43778771  1
  Cl  Cl2  1  0.40846726  0.75000000  0.44887603  1
  Cl  Cl3  1  0.59153274  0.25000000  0.55112397  1
  Cl  Cl4  1  0.09432280  0.50753179  0.23510563  1
  Cl  Cl5  1  0.90567720  0.00753179  0.76489437  1
  Cl  Cl6  1  0.90567720  0.49246821  0.76489437  1
  Cl  Cl7  1  0.09432280  0.99246821  0.23510563  1
  Cl  Cl8  1  0.19750404  0.75000000  0.98675678  1
  Cl  Cl9  1  0.80249596  0.25000000  0.01324322  1
  Cl  Cl10  1  0.52317213  0.98834576  0.18344045  1
  Cl  Cl11  1  0.47682787  0.48834576  0.81655955  1
  Cl  Cl12  1  0.47682787  0.01165424  0.81655955  1
  Cl  Cl13  1  0.52317213  0.51165424  0.18344045  1
loop_
_geom_bond_atom_site_label_1
_geom_bond_atom_site_label_2
_geom_bond_distance
_geom_bond_site_symmetry_2
Cl0 H0 1.303371 1_555
Cl0 K3 3.278186 1_455
Cl1 H1 1.303371 1_555
Cl1 K2 3.278186 1_655
Cl2 Zr0 2.481784 1_555
Cl2 K2 3.182844 1_555
Cl3 Zr1 2.481784 1_555
Cl3 K3 3.182844 1_555
Cl4 Zr0 2.461373 1_555
Cl4 K3 3.178281 1_455
Cl4 K0 3.511937 1_554
Cl4 K1 3.634049 1_455
Cl5 Zr1 2.461373 1_555
Cl5 K2 3.178281 1_645
Cl5 K1 3.511937 1_546
Cl5 K0 3.634049 1_655
Cl6 Zr1 2.461373 1_555
Cl6 K2 3.178281 1_655
Cl6 K1 3.511937 1_556
Cl6 K0 3.634049 1_655
Cl7 Zr0 2.461373 1_555
Cl7 K3 3.178281 1_465
Cl7 K0 3.511937 1_564
Cl7 K1 3.634049 1_455
Cl8 Zr0 2.477997 1_556
Cl8 K1 3.361231 1_456
Cl8 K2 3.413848 1_555
Cl8 K0 3.632303 1_565
Cl8 K0 3.632303 1_555
Cl9 Zr1 2.477997 1_554
Cl9 K0 3.361231 1_654
Cl9 K3 3.413848 1_555
Cl9 K1 3.632303 1_555
Cl9 K1 3.632303 1_545
Cl10 Zr0 2.479860 1_555
Cl10 K3 3.183372 1_565
Cl10 K0 3.400545 1_564
Cl10 K1 3.424654 1_555
Cl11 Zr1 2.479860 1_555
Cl11 K2 3.183372 1_555
Cl11 K1 3.400545 1_556
Cl11 K0 3.424654 1_555
Cl12 Zr1 2.479860 1_555
Cl12 K2 3.183372 1_545
Cl12 K1 3.400545 1_546
Cl12 K0 3.424654 1_555
Cl13 Zr0 2.479860 1_555
Cl13 K3 3.183372 1_555
Cl13 K0 3.400545 1_554
Cl13 K1 3.424654 1_555
