# generated using pymatgen
data_K4Ca2TiP4
_symmetry_space_group_name_H-M   'P 1'
_cell_length_a   9.91655822
_cell_length_b   9.91655829
_cell_length_c   7.31444873
_cell_angle_alpha   87.61725102
_cell_angle_beta   87.61724989
_cell_angle_gamma   119.51816291
_symmetry_Int_Tables_number   1
_chemical_formula_structural   K4Ca2TiP4
_chemical_formula_sum   'K8 Ca4 Ti2 P8'
_cell_volume   623.78884467
_cell_formula_units_Z   2
loop_
 _symmetry_equiv_pos_site_id
 _symmetry_equiv_pos_as_xyz
  1  'x, y, z'
loop_
 _atom_site_type_symbol
 _atom_site_label
 _atom_site_symmetry_multiplicity
 _atom_site_fract_x
 _atom_site_fract_y
 _atom_site_fract_z
 _atom_site_occupancy
  K  K0  1  0.47916784  0.94687818  0.39626727  1
  K  K1  1  0.94687818  0.47916784  0.89626727  1
  K  K2  1  0.86617488  0.71639670  0.16505627  1
  K  K3  1  0.26065011  0.12252440  0.24793583  1
  K  K4  1  0.85274860  0.14294428  0.19594178  1
  K  K5  1  0.12252440  0.26065011  0.74793583  1
  K  K6  1  0.71639670  0.86617488  0.66505627  1
  K  K7  1  0.14294428  0.85274860  0.69594178  1
  Ca  Ca0  1  0.07864061  0.53097352  0.40395675  1
  Ca  Ca1  1  0.47462264  0.52678906  0.38508222  1
  Ca  Ca2  1  0.53097352  0.07864061  0.90395675  1
  Ca  Ca3  1  0.52678906  0.47462264  0.88508222  1
  Ti  Ti0  1  0.66475649  0.33912120  0.50020191  1
  Ti  Ti1  1  0.33912120  0.66475649  0.00020191  1
  P  P0  1  0.63451493  0.32957688  0.17252457  1
  P  P1  1  0.32957688  0.63451493  0.67252457  1
  P  P2  1  0.21542512  0.40774394  0.14892658  1
  P  P3  1  0.60073033  0.79044766  0.08454596  1
  P  P4  1  0.21603568  0.80214995  0.10909485  1
  P  P5  1  0.79044766  0.60073033  0.58454596  1
  P  P6  1  0.40774394  0.21542512  0.64892658  1
  P  P7  1  0.80214995  0.21603568  0.60909485  1
loop_
_geom_bond_atom_site_label_1
_geom_bond_atom_site_label_2
_geom_bond_distance
_geom_bond_site_symmetry_2
K0 P4 3.208871 1_555
K0 P1 3.252842 1_555
K0 P3 3.311577 1_555
K0 P7 3.484536 1_565
K0 P0 3.600959 1_565
K0 P6 3.628764 1_565
K1 P7 3.208871 1_555
K1 P0 3.252841 1_556
K1 P5 3.311577 1_555
K1 P4 3.484536 1_656
K1 P1 3.600959 1_655
K1 P2 3.628764 1_656
K2 P3 3.132523 1_555
K2 P4 3.142176 1_655
K2 P5 3.156144 1_555
K2 P0 3.359075 1_555
K3 P2 3.135611 1_555
K3 P4 3.200164 1_545
K3 P0 3.240355 1_555
K3 P6 3.291700 1_555
K4 P7 3.213091 1_555
K4 P2 3.234866 1_655
K4 P3 3.305500 1_545
K4 P0 3.476969 1_555
K5 P6 3.135611 1_555
K5 P7 3.200164 1_455
K5 P1 3.240355 1_555
K5 P2 3.291700 1_556
K6 P5 3.132523 1_555
K6 P7 3.142176 1_565
K6 P3 3.156144 1_556
K6 P1 3.359075 1_555
K7 P4 3.213091 1_556
K7 P6 3.234866 1_565
K7 P5 3.305500 1_455
K7 P1 3.476969 1_555
Ca0 P2 2.902669 1_555
Ca0 P1 3.026867 1_555
Ca0 P4 3.066333 1_555
Ca0 P7 3.217624 1_455
Ca0 P5 3.478644 1_455
Ca1 P2 2.921085 1_555
Ca1 P1 3.013290 1_555
Ca1 P3 3.050222 1_555
Ca1 P5 3.268178 1_555
Ca1 P6 3.328385 1_555
Ca1 P0 3.443741 1_555
Ca2 P6 2.902669 1_555
Ca2 P0 3.026867 1_556
Ca2 P7 3.066333 1_555
Ca2 P4 3.217624 1_546
Ca2 P3 3.478644 1_546
Ca3 P6 2.921085 1_555
Ca3 P0 3.013290 1_556
Ca3 P5 3.050222 1_555
Ca3 P3 3.268178 1_556
Ca3 P2 3.328385 1_556
Ca3 P1 3.443741 1_555
P0 Ti0 2.427777 1_555
P1 Ti1 2.427777 1_556
P2 Ti1 2.400344 1_555
P3 Ti1 2.382237 1_555
P4 Ti1 2.372483 1_555
P5 Ti0 2.382237 1_555
P6 Ti0 2.400344 1_555
P7 Ti0 2.372483 1_555
