# generated using pymatgen
data_CrNi2Sb12Os
_symmetry_space_group_name_H-M   'P 1'
_cell_length_a   7.98539126
_cell_length_b   8.03895336
_cell_length_c   9.26749183
_cell_angle_alpha   55.21322676
_cell_angle_beta   55.09996086
_cell_angle_gamma   71.15597930
_symmetry_Int_Tables_number   1
_chemical_formula_structural   CrNi2Sb12Os
_chemical_formula_sum   'Cr1 Ni2 Sb12 Os1'
_cell_volume   400.71731360
_cell_formula_units_Z   1
loop_
 _symmetry_equiv_pos_site_id
 _symmetry_equiv_pos_as_xyz
  1  'x, y, z'
loop_
 _atom_site_type_symbol
 _atom_site_label
 _atom_site_symmetry_multiplicity
 _atom_site_fract_x
 _atom_site_fract_y
 _atom_site_fract_z
 _atom_site_occupancy
  Cr  Cr0  1  0.50000000  0.00000000  0.00000000  1
  Ni  Ni0  1  0.00000000  0.50000000  0.50000000  1
  Ni  Ni1  1  0.50000000  0.00000000  0.50000000  1
  Sb  Sb0  1  0.15098933  0.15731068  0.18520609  1
  Sb  Sb1  1  0.84901067  0.84268932  0.81479391  1
  Sb  Sb2  1  0.84309958  0.84339253  0.49577475  1
  Sb  Sb3  1  0.15690042  0.15660747  0.50422525  1
  Sb  Sb4  1  0.81885053  0.50968925  0.33712580  1
  Sb  Sb5  1  0.18114947  0.49031075  0.66287420  1
  Sb  Sb6  1  0.50271906  0.81420711  0.34814660  1
  Sb  Sb7  1  0.49728094  0.18579289  0.65185340  1
  Sb  Sb8  1  0.66555953  0.34926663  0.83531931  1
  Sb  Sb9  1  0.33444047  0.65073337  0.16468069  1
  Sb  Sb10  1  0.66036614  0.33280840  0.15780626  1
  Sb  Sb11  1  0.33963386  0.66719160  0.84219374  1
  Os  Os0  1  0.00000000  0.50000000  0.00000000  1
loop_
_geom_bond_atom_site_label_1
_geom_bond_atom_site_label_2
_geom_bond_distance
_geom_bond_site_symmetry_2
Cr0 Sb0 2.653060 1_555
Cr0 Sb1 2.653060 1_544
Cr0 Sb8 2.675817 1_554
Cr0 Sb9 2.675817 1_545
Cr0 Sb6 2.683610 1_545
Cr0 Sb7 2.683610 1_554
Ni0 Sb9 2.560214 1_555
Ni0 Sb8 2.560214 1_455
Ni0 Sb5 2.582355 1_555
Ni0 Sb4 2.582355 1_455
Ni0 Sb2 2.624940 1_455
Ni0 Sb3 2.624940 1_555
Ni1 Sb7 2.560121 1_555
Ni1 Sb6 2.560121 1_545
Ni1 Sb10 2.596097 1_555
Ni1 Sb11 2.596097 1_545
Ni1 Sb2 2.607342 1_545
Ni1 Sb3 2.607342 1_555
Sb0 Sb2 2.884439 1_445
Sb0 Sb3 2.980544 1_555
Sb1 Sb3 2.884439 1_665
Sb1 Sb2 2.980544 1_555
Sb4 Sb6 2.893804 1_555
Sb4 Sb7 2.993974 1_555
Sb5 Sb7 2.893804 1_555
Sb5 Sb6 2.993974 1_555
Sb10 Sb8 2.891669 1_554
Sb10 Sb9 3.001489 1_555
Sb11 Sb9 2.891669 1_556
Sb11 Sb8 3.001489 1_555
Os0 Sb0 2.610757 1_555
Os0 Sb1 2.610757 1_454
Os0 Sb11 2.621830 1_554
Os0 Sb10 2.621830 1_455
Os0 Sb4 2.625488 1_455
Os0 Sb5 2.625488 1_554
