# generated using pymatgen
data_HgSO4
_symmetry_space_group_name_H-M   'P 1'
_cell_length_a   4.78768090
_cell_length_b   4.83552278
_cell_length_c   6.64964392
_cell_angle_alpha   90.00000000
_cell_angle_beta   90.00000000
_cell_angle_gamma   90.00000000
_symmetry_Int_Tables_number   1
_chemical_formula_structural   HgSO4
_chemical_formula_sum   'Hg2 S2 O8'
_cell_volume   153.94550778
_cell_formula_units_Z   2
loop_
 _symmetry_equiv_pos_site_id
 _symmetry_equiv_pos_as_xyz
  1  'x, y, z'
loop_
 _atom_site_type_symbol
 _atom_site_label
 _atom_site_symmetry_multiplicity
 _atom_site_fract_x
 _atom_site_fract_y
 _atom_site_fract_z
 _atom_site_occupancy
  Hg  Hg0  1  0.82263299  0.74816984  0.50000000  1
  Hg  Hg1  1  0.17736701  0.24816984  -0.00000000  1
  S  S0  1  0.32300030  0.23901924  0.50000000  1
  S  S1  1  0.67699970  0.73901924  -0.00000000  1
  O  O0  1  0.81353149  0.60684606  0.82362988  1
  O  O1  1  0.18646851  0.10684606  0.67637012  1
  O  O2  1  0.18646851  0.10684606  0.32362988  1
  O  O3  1  0.81353149  0.60684606  0.17637012  1
  O  O4  1  0.37342865  0.68580971  -0.00000000  1
  O  O5  1  0.62657135  0.18580971  0.50000000  1
  O  O6  1  0.71487029  0.04120809  -0.00000000  1
  O  O7  1  0.28512971  0.54120809  0.50000000  1
loop_
_geom_bond_atom_site_label_1
_geom_bond_atom_site_label_2
_geom_bond_distance
_geom_bond_site_symmetry_2
Hg0 O3 2.258341 1_555
Hg0 O0 2.258341 1_555
Hg0 O5 2.315059 1_565
Hg0 O7 2.429939 1_655
Hg1 O2 2.258341 1_555
Hg1 O1 2.258341 1_554
Hg1 O4 2.315059 1_555
Hg1 O6 2.429939 1_455
O0 S1 1.487019 1_556
O1 S0 1.487019 1_555
O2 S0 1.487019 1_555
O3 S1 1.487019 1_555
O4 S1 1.476000 1_555
O5 S0 1.476000 1_555
O6 S1 1.472447 1_545
O7 S0 1.472447 1_555
