# generated using pymatgen
data_Li2TiO3
_symmetry_space_group_name_H-M   'P 1'
_cell_length_a   4.99356197
_cell_length_b   4.99356197
_cell_length_c   5.03409089
_cell_angle_alpha   78.91254110
_cell_angle_beta   78.91254110
_cell_angle_gamma   118.02225005
_symmetry_Int_Tables_number   1
_chemical_formula_structural   Li2TiO3
_chemical_formula_sum   'Li4 Ti2 O6'
_cell_volume   102.79241310
_cell_formula_units_Z   2
loop_
 _symmetry_equiv_pos_site_id
 _symmetry_equiv_pos_as_xyz
  1  'x, y, z'
loop_
 _atom_site_type_symbol
 _atom_site_label
 _atom_site_symmetry_multiplicity
 _atom_site_fract_x
 _atom_site_fract_y
 _atom_site_fract_z
 _atom_site_occupancy
  Li  Li0  1  0.91941185  0.08058815  0.75000000  1
  Li  Li1  1  0.24372551  0.75627449  0.75000000  1
  Li  Li2  1  0.08058815  0.91941185  0.25000000  1
  Li  Li3  1  0.75627449  0.24372551  0.25000000  1
  Ti  Ti0  1  0.58960210  0.41039790  0.75000000  1
  Ti  Ti1  1  0.41039790  0.58960210  0.25000000  1
  O  O0  1  0.64938459  0.79833046  0.48880712  1
  O  O1  1  0.35061541  0.20166954  0.51119288  1
  O  O2  1  0.20166954  0.35061541  0.01119288  1
  O  O3  1  -0.00000000  0.50000000  0.50000000  1
  O  O4  1  0.79833046  0.64938459  0.98880712  1
  O  O5  1  0.50000000  -0.00000000  0.00000000  1
loop_
_geom_bond_atom_site_label_1
_geom_bond_atom_site_label_2
_geom_bond_distance
_geom_bond_site_symmetry_2
Li0 O4 1.987152 1_545
Li0 O1 1.987152 1_655
Li0 O5 2.032651 1_556
Li0 O3 2.032651 1_655
Li0 O0 2.267725 1_545
Li0 O2 2.267725 1_656
Li1 O1 2.070300 1_565
Li1 O4 2.070300 1_455
Li1 O0 2.084711 1_555
Li1 O2 2.084711 1_556
Li1 O3 2.109002 1_555
Li1 O5 2.109002 1_566
Li2 O0 1.987152 1_455
Li2 O2 1.987152 1_565
Li2 O5 2.032651 1_565
Li2 O3 2.032651 1_555
Li2 O4 2.267725 1_454
Li2 O1 2.267725 1_565
Li3 O2 2.070300 1_655
Li3 O0 2.070300 1_545
Li3 O1 2.084711 1_555
Li3 O4 2.084711 1_554
Li3 O5 2.109002 1_555
Li3 O3 2.109002 1_655
O0 Ti1 1.954675 1_555
O0 Ti0 1.973979 1_555
O1 Ti0 1.954675 1_555
O1 Ti1 1.973979 1_555
O2 Ti1 1.954675 1_555
O2 Ti0 1.973979 1_554
O3 Ti1 1.978321 1_555
O3 Ti0 1.978321 1_455
O4 Ti0 1.954675 1_555
O4 Ti1 1.973979 1_556
O5 Ti1 1.978321 1_545
O5 Ti0 1.978321 1_554
