# generated using pymatgen
data_Nb3SBr5Cl2
_symmetry_space_group_name_H-M   'P 1'
_cell_length_a   7.10657299
_cell_length_b   7.10657333
_cell_length_c   6.47548845
_cell_angle_alpha   90.11588883
_cell_angle_beta   89.88410854
_cell_angle_gamma   119.76046353
_symmetry_Int_Tables_number   1
_chemical_formula_structural   Nb3SBr5Cl2
_chemical_formula_sum   'Nb3 S1 Br5 Cl2'
_cell_volume   283.90017249
_cell_formula_units_Z   1
loop_
 _symmetry_equiv_pos_site_id
 _symmetry_equiv_pos_as_xyz
  1  'x, y, z'
loop_
 _atom_site_type_symbol
 _atom_site_label
 _atom_site_symmetry_multiplicity
 _atom_site_fract_x
 _atom_site_fract_y
 _atom_site_fract_z
 _atom_site_occupancy
  Nb  Nb0  1  0.60209871  0.80230437  0.21965273  1
  Nb  Nb1  1  0.19769563  0.39790129  0.21965273  1
  Nb  Nb2  1  0.19874774  0.80125226  0.21941412  1
  S  S0  1  0.33300821  0.66699179  0.48859307  1
  Br  Br0  1  0.99891885  0.00108115  0.99699773  1
  Br  Br1  1  0.33572640  0.16804966  0.44267183  1
  Br  Br2  1  0.83078017  0.16921983  0.44403405  1
  Br  Br3  1  0.83195034  0.66427360  0.44267183  1
  Br  Br4  1  0.50272996  0.49727004  0.95603402  1
  Cl  Cl0  1  0.00520047  0.50352048  0.97758895  1
  Cl  Cl1  1  0.49647952  0.99479953  0.97758895  1
loop_
_geom_bond_atom_site_label_1
_geom_bond_atom_site_label_2
_geom_bond_distance
_geom_bond_site_symmetry_2
Nb0 S0 2.404632 1_555
Nb1 S0 2.404632 1_555
Nb2 S0 2.403380 1_555
Br0 Nb0 2.839700 1_546
Br0 Nb1 2.839700 1_656
Br0 Nb2 2.850667 1_646
Br1 Nb2 2.702551 1_545
Br1 Nb1 2.705910 1_555
Br2 Nb1 2.709007 1_655
Br2 Nb0 2.709007 1_545
Br3 Nb2 2.702551 1_655
Br3 Nb0 2.705910 1_555
Br4 Nb1 2.565554 1_556
Br4 Nb0 2.565554 1_556
Cl0 Nb1 2.434037 1_556
Cl0 Nb2 2.434546 1_556
Cl1 Nb0 2.434037 1_556
Cl1 Nb2 2.434546 1_556
