# generated using pymatgen
data_Ba3SrPt2O9
_symmetry_space_group_name_H-M   'P 1'
_cell_length_a   6.00111894
_cell_length_b   6.00111846
_cell_length_c   15.23828874
_cell_angle_alpha   88.23151971
_cell_angle_beta   88.23151963
_cell_angle_gamma   119.34059465
_symmetry_Int_Tables_number   1
_chemical_formula_structural   Ba3SrPt2O9
_chemical_formula_sum   'Ba6 Sr2 Pt4 O18'
_cell_volume   477.49217679
_cell_formula_units_Z   2
loop_
 _symmetry_equiv_pos_site_id
 _symmetry_equiv_pos_as_xyz
  1  'x, y, z'
loop_
 _atom_site_type_symbol
 _atom_site_label
 _atom_site_symmetry_multiplicity
 _atom_site_fract_x
 _atom_site_fract_y
 _atom_site_fract_z
 _atom_site_occupancy
  Ba  Ba0  1  0.34187644  0.68041196  0.90991355  1
  Ba  Ba1  1  0.31958804  0.65812356  0.59008645  1
  Ba  Ba2  1  0.65812356  0.31958804  0.09008645  1
  Ba  Ba3  1  0.68041196  0.34187644  0.40991355  1
  Ba  Ba4  1  0.98450316  0.01549684  0.75000000  1
  Ba  Ba5  1  0.01549684  0.98450316  0.25000000  1
  Sr  Sr0  1  0.00000000  0.00000000  0.50000000  1
  Sr  Sr1  1  0.00000000  0.00000000  0.00000000  1
  Pt  Pt0  1  0.68948761  0.36694489  0.83856412  1
  Pt  Pt1  1  0.63305511  0.31051239  0.66143588  1
  Pt  Pt2  1  0.36694489  0.68948761  0.33856412  1
  Pt  Pt3  1  0.31051239  0.63305511  0.16143588  1
  O  O0  1  0.87076384  0.69335355  0.89201407  1
  O  O1  1  0.30664645  0.12923616  0.60798593  1
  O  O2  1  0.12923616  0.30664645  0.10798593  1
  O  O3  1  0.69335355  0.87076384  0.39201407  1
  O  O4  1  0.86952231  0.23467649  0.90858966  1
  O  O5  1  0.76532351  0.13047769  0.59141034  1
  O  O6  1  0.13047769  0.76532351  0.09141034  1
  O  O7  1  0.23467649  0.86952231  0.40858966  1
  O  O8  1  0.41418337  0.23733803  0.92889582  1
  O  O9  1  0.76266197  0.58581663  0.57110418  1
  O  O10  1  0.58581663  0.76266197  0.07110418  1
  O  O11  1  0.23733803  0.41418337  0.42889582  1
  O  O12  1  0.48796331  0.51203669  0.25000000  1
  O  O13  1  0.51203669  0.48796331  0.75000000  1
  O  O14  1  0.48296730  0.94998434  0.23317083  1
  O  O15  1  0.05001566  0.51703270  0.26682917  1
  O  O16  1  0.51703270  0.05001566  0.76682917  1
  O  O17  1  0.94998434  0.48296730  0.73317083  1
loop_
_geom_bond_atom_site_label_1
_geom_bond_atom_site_label_2
_geom_bond_distance
_geom_bond_site_symmetry_2
Ba0 O4 2.786912 1_455
Ba0 O10 2.829943 1_556
Ba0 O16 2.837915 1_565
Ba0 O0 2.887035 1_455
Ba0 O8 2.903944 1_555
Ba0 O13 3.080660 1_555
Ba0 O0 3.139723 1_555
Ba0 O6 3.165773 1_556
Ba0 O8 3.176208 1_565
Ba0 O4 3.280366 1_565
Ba1 O5 2.786912 1_565
Ba1 O11 2.829943 1_555
Ba1 O17 2.837915 1_455
Ba1 O1 2.887035 1_565
Ba1 O9 2.903944 1_555
Ba1 O13 3.080660 1_555
Ba1 O1 3.139723 1_555
Ba1 O7 3.165773 1_555
Ba1 O9 3.176208 1_455
Ba1 O5 3.280366 1_455
Ba2 O6 2.786912 1_655
Ba2 O8 2.829943 1_554
Ba2 O14 2.837915 1_545
Ba2 O2 2.887035 1_655
Ba2 O10 2.903944 1_555
Ba2 O12 3.080660 1_555
Ba2 O2 3.139723 1_555
Ba2 O4 3.165773 1_554
Ba2 O10 3.176208 1_545
Ba2 O6 3.280366 1_545
Ba3 O7 2.786912 1_545
Ba3 O9 2.829943 1_555
Ba3 O15 2.837915 1_655
Ba3 O3 2.887035 1_545
Ba3 O11 2.903944 1_555
Ba3 O12 3.080660 1_555
Ba3 O3 3.139723 1_555
Ba3 O5 3.165773 1_555
Ba3 O11 3.176208 1_655
Ba3 O7 3.280366 1_655
Ba4 O0 2.691432 1_545
Ba4 O1 2.691432 1_655
Ba4 O17 2.916681 1_555
Ba4 O16 2.916681 1_555
Ba4 O4 3.004834 1_555
Ba4 O5 3.004834 1_555
Ba4 O13 3.043810 1_545
Ba4 O13 3.043810 1_655
Ba4 O17 3.118771 1_545
Ba4 O16 3.118772 1_655
Ba5 O2 2.691432 1_565
Ba5 O3 2.691432 1_455
Ba5 O15 2.916681 1_555
Ba5 O14 2.916681 1_555
Ba5 O6 3.004834 1_555
Ba5 O7 3.004834 1_555
Ba5 O12 3.043810 1_565
Ba5 O12 3.043810 1_455
Ba5 O15 3.118771 1_565
Ba5 O14 3.118772 1_455
O0 Pt0 1.936143 1_555
O0 Sr1 2.358529 1_666
O1 Pt1 1.936143 1_555
O1 Sr0 2.358529 1_555
O2 Pt3 1.936143 1_555
O2 Sr1 2.358529 1_555
O3 Pt2 1.936143 1_555
O3 Sr0 2.358529 1_665
O4 Pt0 1.948150 1_555
O4 Sr1 2.358743 1_656
O5 Pt1 1.948150 1_555
O5 Sr0 2.358743 1_655
O6 Pt3 1.948150 1_555
O6 Sr1 2.358743 1_565
O7 Pt2 1.948150 1_555
O7 Sr0 2.358743 1_565
O8 Pt0 1.939973 1_555
O8 Sr1 2.376926 1_556
O9 Pt1 1.939973 1_555
O9 Sr0 2.376926 1_665
O10 Pt3 1.939973 1_555
O10 Sr1 2.376926 1_665
O11 Pt2 1.939973 1_555
O11 Sr0 2.376926 1_555
O12 Pt2 2.066133 1_555
O12 Pt3 2.066133 1_555
O13 Pt1 2.066133 1_555
O13 Pt0 2.066133 1_555
O14 Pt3 2.037761 1_555
O14 Pt2 2.053587 1_555
O15 Pt2 2.037762 1_555
O15 Pt3 2.053587 1_555
O16 Pt0 2.037761 1_555
O16 Pt1 2.053587 1_555
O17 Pt1 2.037762 1_555
O17 Pt0 2.053587 1_555
