# generated using pymatgen
data_Zr6Al16SiPd7
_symmetry_space_group_name_H-M   'P 1'
_cell_length_a   8.80499270
_cell_length_b   8.80499266
_cell_length_c   8.80499206
_cell_angle_alpha   60.00000224
_cell_angle_beta   60.00000240
_cell_angle_gamma   60.00000144
_symmetry_Int_Tables_number   1
_chemical_formula_structural   Zr6Al16SiPd7
_chemical_formula_sum   'Zr6 Al16 Si1 Pd7'
_cell_volume   482.69409860
_cell_formula_units_Z   1
loop_
 _symmetry_equiv_pos_site_id
 _symmetry_equiv_pos_as_xyz
  1  'x, y, z'
loop_
 _atom_site_type_symbol
 _atom_site_label
 _atom_site_symmetry_multiplicity
 _atom_site_fract_x
 _atom_site_fract_y
 _atom_site_fract_z
 _atom_site_occupancy
  Zr  Zr0  1  0.70457974  0.29542026  0.29542026  1
  Zr  Zr1  1  0.29542026  0.70457974  0.70457974  1
  Zr  Zr2  1  0.29542026  0.70457974  0.29542026  1
  Zr  Zr3  1  0.70457974  0.29542026  0.70457974  1
  Zr  Zr4  1  0.29542026  0.29542026  0.70457974  1
  Zr  Zr5  1  0.70457974  0.70457974  0.29542026  1
  Al  Al0  1  0.12054602  0.12054602  0.12054602  1
  Al  Al1  1  0.87945398  0.87945398  0.87945398  1
  Al  Al2  1  0.12054602  0.12054602  0.63836194  1
  Al  Al3  1  0.12054602  0.63836194  0.12054602  1
  Al  Al4  1  0.87945398  0.87945398  0.36163806  1
  Al  Al5  1  0.87945398  0.36163806  0.87945398  1
  Al  Al6  1  0.63836194  0.12054602  0.12054602  1
  Al  Al7  1  0.36163806  0.87945398  0.87945398  1
  Al  Al8  1  0.33280430  0.33280430  0.33280430  1
  Al  Al9  1  0.66719570  0.66719570  0.66719570  1
  Al  Al10  1  0.33280430  0.33280430  0.00158809  1
  Al  Al11  1  0.33280430  0.00158809  0.33280430  1
  Al  Al12  1  0.66719570  0.66719570  0.99841191  1
  Al  Al13  1  0.66719570  0.99841191  0.66719570  1
  Al  Al14  1  0.00158809  0.33280430  0.33280430  1
  Al  Al15  1  0.99841191  0.66719570  0.66719570  1
  Si  Si0  1  0.50000000  0.50000000  0.50000000  1
  Pd  Pd0  1  0.50000000  0.00000000  0.00000000  1
  Pd  Pd1  1  0.00000000  0.50000000  0.50000000  1
  Pd  Pd2  1  0.00000000  0.50000000  0.00000000  1
  Pd  Pd3  1  0.50000000  0.00000000  0.50000000  1
  Pd  Pd4  1  0.00000000  0.00000000  0.50000000  1
  Pd  Pd5  1  0.50000000  0.50000000  0.00000000  1
  Pd  Pd6  1  0.00000000  0.00000000  0.00000000  1
loop_
_geom_bond_atom_site_label_1
_geom_bond_atom_site_label_2
_geom_bond_distance
_geom_bond_site_symmetry_2
Al0 Pd6 2.599905 1_555
Al0 Pd4 2.729491 1_555
Al0 Pd2 2.729491 1_555
Al0 Pd0 2.729491 1_555
Al1 Pd6 2.599905 1_666
Al1 Pd4 2.729491 1_665
Al1 Pd2 2.729491 1_656
Al1 Pd0 2.729491 1_566
Al2 Pd6 2.599905 1_556
Al2 Pd4 2.729491 1_555
Al2 Pd1 2.729491 1_555
Al2 Pd3 2.729491 1_555
Al3 Pd6 2.599905 1_565
Al3 Pd2 2.729491 1_555
Al3 Pd1 2.729491 1_555
Al3 Pd5 2.729491 1_555
Al4 Pd6 2.599905 1_665
Al4 Pd4 2.729491 1_665
Al4 Pd1 2.729491 1_655
Al4 Pd3 2.729491 1_565
Al5 Pd6 2.599905 1_656
Al5 Pd2 2.729491 1_656
Al5 Pd1 2.729491 1_655
Al5 Pd5 2.729491 1_556
Al6 Pd6 2.599905 1_655
Al6 Pd0 2.729491 1_555
Al6 Pd3 2.729491 1_555
Al6 Pd5 2.729491 1_555
Al7 Pd6 2.599905 1_566
Al7 Pd0 2.729491 1_566
Al7 Pd3 2.729491 1_565
Al7 Pd5 2.729491 1_556
Al8 Pd5 2.541808 1_555
Al8 Pd3 2.541808 1_555
Al8 Pd1 2.541808 1_555
Al9 Pd5 2.541808 1_556
Al9 Pd3 2.541808 1_565
Al9 Pd1 2.541808 1_655
Al10 Pd5 2.541803 1_555
Al10 Pd0 2.541811 1_555
Al10 Pd2 2.541811 1_555
Al11 Pd3 2.541803 1_555
Al11 Pd0 2.541811 1_555
Al11 Pd4 2.541811 1_555
Al12 Pd5 2.541803 1_556
Al12 Pd0 2.541811 1_566
Al12 Pd2 2.541811 1_656
Al13 Pd3 2.541803 1_565
Al13 Pd0 2.541811 1_566
Al13 Pd4 2.541811 1_665
Al14 Pd1 2.541803 1_555
Al14 Pd2 2.541811 1_555
Al14 Pd4 2.541811 1_555
Al15 Pd1 2.541803 1_655
Al15 Pd2 2.541811 1_656
Al15 Pd4 2.541811 1_665
Si0 Zr1 2.547456 1_555
Si0 Zr0 2.547456 1_555
Si0 Zr3 2.547456 1_555
Si0 Zr2 2.547456 1_555
Si0 Zr5 2.547456 1_555
Si0 Zr4 2.547456 1_555
Pd0 Zr5 3.163995 1_545
Pd0 Zr4 3.163995 1_554
Pd0 Zr3 3.163995 1_554
Pd0 Zr2 3.163995 1_545
Pd1 Zr4 3.163995 1_555
Pd1 Zr5 3.163995 1_455
Pd1 Zr2 3.163995 1_555
Pd1 Zr3 3.163995 1_455
Pd2 Zr5 3.163995 1_455
Pd2 Zr4 3.163995 1_554
Pd2 Zr1 3.163995 1_554
Pd2 Zr0 3.163995 1_455
Pd3 Zr4 3.163995 1_555
Pd3 Zr5 3.163995 1_545
Pd3 Zr0 3.163995 1_555
Pd3 Zr1 3.163995 1_545
Pd4 Zr1 3.163995 1_545
Pd4 Zr0 3.163995 1_455
Pd4 Zr3 3.163995 1_455
Pd4 Zr2 3.163995 1_545
Pd5 Zr2 3.163995 1_555
Pd5 Zr3 3.163995 1_554
Pd5 Zr0 3.163995 1_555
Pd5 Zr1 3.163995 1_554
