# generated using pymatgen
data_Sm2Tl
_symmetry_space_group_name_H-M   'P 1'
_cell_length_a   5.49790877
_cell_length_b   5.49790867
_cell_length_c   6.82934433
_cell_angle_alpha   90.00000000
_cell_angle_beta   90.00000000
_cell_angle_gamma   120.00000690
_symmetry_Int_Tables_number   1
_chemical_formula_structural   Sm2Tl
_chemical_formula_sum   'Sm4 Tl2'
_cell_volume   178.77412529
_cell_formula_units_Z   2
loop_
 _symmetry_equiv_pos_site_id
 _symmetry_equiv_pos_as_xyz
  1  'x, y, z'
loop_
 _atom_site_type_symbol
 _atom_site_label
 _atom_site_symmetry_multiplicity
 _atom_site_fract_x
 _atom_site_fract_y
 _atom_site_fract_z
 _atom_site_occupancy
  Sm  Sm0  1  -0.00000000  -0.00000000  -0.00000000  1
  Sm  Sm1  1  -0.00000000  -0.00000000  0.50000000  1
  Sm  Sm2  1  0.33333300  0.66666700  0.75004983  1
  Sm  Sm3  1  0.66666700  0.33333300  0.24995017  1
  Tl  Tl0  1  0.33333300  0.66666700  0.24998438  1
  Tl  Tl1  1  0.66666700  0.33333300  0.75001562  1
loop_
_geom_bond_atom_site_label_1
_geom_bond_atom_site_label_2
_geom_bond_distance
_geom_bond_site_symmetry_2
Sm0 Sm1 3.414672 1_554
Sm0 Sm1 3.414672 1_555
Sm0 Sm2 3.604092 1_544
Sm0 Sm3 3.604092 1_455
Sm0 Sm3 3.604096 1_445
Sm0 Sm2 3.604096 1_554
Sm0 Sm3 3.604096 1_555
Sm0 Sm2 3.604096 1_444
Sm0 Tl1 3.604203 1_454
Sm0 Tl0 3.604203 1_545
Sm0 Tl1 3.604207 1_444
Sm0 Tl0 3.604207 1_555
Sm0 Tl1 3.604207 1_554
Sm0 Tl0 3.604207 1_445
Sm1 Tl0 3.604304 1_545
Sm1 Tl1 3.604304 1_455
Sm1 Tl0 3.604308 1_555
Sm1 Tl1 3.604308 1_445
Sm1 Tl0 3.604308 1_445
Sm1 Tl1 3.604308 1_555
Sm1 Sm2 3.604415 1_545
Sm1 Sm3 3.604415 1_455
Sm1 Sm3 3.604419 1_445
Sm1 Sm2 3.604419 1_555
Sm1 Sm2 3.604419 1_445
Sm1 Sm3 3.604419 1_555
Sm2 Tl1 3.174216 1_565
Sm2 Tl1 3.174216 1_455
Sm2 Tl1 3.174226 1_555
Sm2 Tl0 3.414225 1_556
Sm2 Tl0 3.415119 1_555
Sm3 Tl0 3.174216 1_545
Sm3 Tl0 3.174216 1_655
Sm3 Tl0 3.174226 1_555
Sm3 Tl1 3.414225 1_554
Sm3 Tl1 3.415119 1_555
