# generated using pymatgen
data_NbP2O7
_symmetry_space_group_name_H-M   'P 1'
_cell_length_a   8.45771800
_cell_length_b   8.45771800
_cell_length_c   8.45771800
_cell_angle_alpha   90.00000000
_cell_angle_beta   90.00000000
_cell_angle_gamma   90.00000000
_symmetry_Int_Tables_number   1
_chemical_formula_structural   NbP2O7
_chemical_formula_sum   'Nb4 P8 O28'
_cell_volume   605.00588898
_cell_formula_units_Z   4
loop_
 _symmetry_equiv_pos_site_id
 _symmetry_equiv_pos_as_xyz
  1  'x, y, z'
loop_
 _atom_site_type_symbol
 _atom_site_label
 _atom_site_symmetry_multiplicity
 _atom_site_fract_x
 _atom_site_fract_y
 _atom_site_fract_z
 _atom_site_occupancy
  Nb  Nb0  1  0.00000000  0.00000000  0.00000000  1
  Nb  Nb1  1  0.00000000  0.50000000  0.50000000  1
  Nb  Nb2  1  0.50000000  0.00000000  0.50000000  1
  Nb  Nb3  1  0.50000000  0.50000000  0.00000000  1
  P  P0  1  0.10809700  0.60809700  0.89190300  1
  P  P1  1  0.10809700  0.89190300  0.39190300  1
  P  P2  1  0.39190300  0.39190300  0.39190300  1
  P  P3  1  0.39190300  0.10809700  0.89190300  1
  P  P4  1  0.60809700  0.60809700  0.60809700  1
  P  P5  1  0.60809700  0.89190300  0.10809700  1
  P  P6  1  0.89190300  0.10809700  0.60809700  1
  P  P7  1  0.89190300  0.39190300  0.10809700  1
  O  O0  1  0.05915900  0.72196900  0.42345600  1
  O  O1  1  0.07654400  0.94084100  0.22196900  1
  O  O2  1  0.27803100  0.92345600  0.44084100  1
  O  O3  1  0.50000000  0.00000000  0.00000000  1
  O  O4  1  0.55915900  0.77803100  0.57654400  1
  O  O5  1  0.55915900  0.72196900  0.07654400  1
  O  O6  1  0.57654400  0.55915900  0.77803100  1
  O  O7  1  0.57654400  0.94084100  0.27803100  1
  O  O8  1  0.72196900  0.42345600  0.05915900  1
  O  O9  1  0.77803100  0.57654400  0.55915900  1
  O  O10  1  0.77803100  0.92345600  0.05915900  1
  O  O11  1  0.92345600  0.44084100  0.27803100  1
  O  O12  1  0.94084100  0.22196900  0.07654400  1
  O  O13  1  0.00000000  0.50000000  0.00000000  1
  O  O14  1  0.05915900  0.77803100  0.92345600  1
  O  O15  1  0.07654400  0.55915900  0.72196900  1
  O  O16  1  0.22196900  0.07654400  0.94084100  1
  O  O17  1  0.22196900  0.42345600  0.44084100  1
  O  O18  1  0.27803100  0.57654400  0.94084100  1
  O  O19  1  0.42345600  0.05915900  0.72196900  1
  O  O20  1  0.42345600  0.44084100  0.22196900  1
  O  O21  1  0.44084100  0.27803100  0.92345600  1
  O  O22  1  0.44084100  0.22196900  0.42345600  1
  O  O23  1  0.50000000  0.50000000  0.50000000  1
  O  O24  1  0.72196900  0.07654400  0.55915900  1
  O  O25  1  0.92345600  0.05915900  0.77803100  1
  O  O26  1  0.94084100  0.27803100  0.57654400  1
  O  O27  1  0.00000000  0.00000000  0.50000000  1
loop_
_geom_bond_atom_site_label_1
_geom_bond_atom_site_label_2
_geom_bond_distance
_geom_bond_site_symmetry_2
Nb0 O25 2.047903 1_454
Nb0 O10 2.047903 1_445
Nb0 O12 2.047903 1_455
Nb0 O14 2.047903 1_544
Nb0 O1 2.047903 1_545
Nb0 O16 2.047903 1_554
Nb1 O15 2.047903 1_555
Nb1 O9 2.047903 1_455
Nb1 O0 2.047903 1_555
Nb1 O26 2.047903 1_455
Nb1 O17 2.047903 1_555
Nb1 O11 2.047903 1_455
Nb2 O24 2.047903 1_555
Nb2 O7 2.047903 1_545
Nb2 O4 2.047903 1_545
Nb2 O19 2.047903 1_555
Nb2 O22 2.047903 1_555
Nb2 O2 2.047903 1_545
Nb3 O8 2.047903 1_555
Nb3 O5 2.047903 1_555
Nb3 O6 2.047903 1_554
Nb3 O21 2.047903 1_554
Nb3 O20 2.047903 1_555
Nb3 O18 2.047903 1_554
O0 P1 1.519287 1_555
O1 P1 1.519287 1_555
O2 P1 1.519287 1_555
O3 P5 1.583534 1_545
O3 P3 1.583534 1_554
O4 P4 1.519287 1_555
O5 P5 1.519287 1_555
O6 P4 1.519287 1_555
O7 P5 1.519287 1_555
O8 P7 1.519287 1_555
O9 P4 1.519287 1_555
O10 P5 1.519287 1_555
O11 P7 1.519287 1_555
O12 P7 1.519287 1_555
O13 P0 1.583534 1_554
O13 P7 1.583534 1_455
O14 P0 1.519287 1_555
O15 P0 1.519287 1_555
O16 P3 1.519287 1_555
O17 P2 1.519287 1_555
O18 P0 1.519287 1_555
O19 P3 1.519287 1_555
O20 P2 1.519287 1_555
O21 P3 1.519287 1_555
O22 P2 1.519287 1_555
O23 P4 1.583534 1_555
O23 P2 1.583534 1_555
O24 P6 1.519287 1_555
O25 P6 1.519287 1_555
O26 P6 1.519287 1_555
O27 P6 1.583534 1_455
O27 P1 1.583534 1_545
