# generated using pymatgen
data_Hf9Nb(ZnSn3)2
_symmetry_space_group_name_H-M   'P 1'
_cell_length_a   8.54840987
_cell_length_b   8.54841108
_cell_length_c   5.75922217
_cell_angle_alpha   90.00000000
_cell_angle_beta   90.00000000
_cell_angle_gamma   119.99999148
_symmetry_Int_Tables_number   1
_chemical_formula_structural   Hf9Nb(ZnSn3)2
_chemical_formula_sum   'Hf9 Nb1 Zn2 Sn6'
_cell_volume   364.47289545
_cell_formula_units_Z   1
loop_
 _symmetry_equiv_pos_site_id
 _symmetry_equiv_pos_as_xyz
  1  'x, y, z'
loop_
 _atom_site_type_symbol
 _atom_site_label
 _atom_site_symmetry_multiplicity
 _atom_site_fract_x
 _atom_site_fract_y
 _atom_site_fract_z
 _atom_site_occupancy
  Hf  Hf0  1  0.66666700  0.33333300  0.50000000  1
  Hf  Hf1  1  0.66666700  0.33333300  0.00000000  1
  Hf  Hf2  1  0.33333300  0.66666700  0.50000000  1
  Hf  Hf3  1  0.26754346  0.99959498  0.24877603  1
  Hf  Hf4  1  0.26754346  0.26794847  0.75122397  1
  Hf  Hf5  1  0.00040502  0.73245654  0.75122397  1
  Hf  Hf6  1  0.00040502  0.26794847  0.24877603  1
  Hf  Hf7  1  0.73205153  0.73245654  0.24877603  1
  Hf  Hf8  1  0.73205153  0.99959498  0.75122397  1
  Nb  Nb0  1  0.33333300  0.66666700  0.00000000  1
  Zn  Zn0  1  0.00000000  0.00000000  0.00000000  1
  Zn  Zn1  1  0.00000000  0.00000000  0.50000000  1
  Sn  Sn0  1  0.61276028  0.99853451  0.24852125  1
  Sn  Sn1  1  0.61276028  0.61422677  0.75147875  1
  Sn  Sn2  1  0.00146549  0.38723972  0.75147875  1
  Sn  Sn3  1  0.00146549  0.61422677  0.24852125  1
  Sn  Sn4  1  0.38577323  0.38723972  0.24852125  1
  Sn  Sn5  1  0.38577323  0.99853451  0.75147875  1
loop_
_geom_bond_atom_site_label_1
_geom_bond_atom_site_label_2
_geom_bond_distance
_geom_bond_site_symmetry_2
Hf0 Hf1 2.879611 1_555
Hf0 Hf1 2.879611 1_556
Hf0 Sn2 3.030206 1_655
Hf0 Sn0 3.030206 1_545
Hf0 Sn3 3.030212 1_655
Hf0 Sn5 3.030212 1_545
Hf0 Sn4 3.030221 1_555
Hf0 Sn1 3.030221 1_555
Hf1 Sn2 3.022102 1_654
Hf1 Sn0 3.022102 1_545
Hf1 Sn3 3.022108 1_655
Hf1 Sn5 3.022108 1_544
Hf1 Sn4 3.022117 1_555
Hf1 Sn1 3.022117 1_554
Hf2 Nb0 2.879611 1_555
Hf2 Nb0 2.879611 1_556
Hf2 Sn1 3.012486 1_555
Hf2 Sn3 3.012486 1_555
Hf2 Sn4 3.012486 1_555
Hf2 Sn2 3.012487 1_555
Hf2 Sn5 3.012487 1_555
Hf2 Sn0 3.012487 1_555
Hf3 Zn0 2.700262 1_565
Hf3 Zn1 2.707769 1_565
Hf3 Sn3 2.921109 1_555
Hf3 Sn4 2.941643 1_565
Hf3 Sn0 2.955598 1_555
Hf3 Sn5 3.038662 1_554
Hf3 Sn5 3.068022 1_555
Hf4 Zn0 2.700263 1_556
Hf4 Zn1 2.707769 1_555
Hf4 Sn2 2.921114 1_555
Hf4 Sn5 2.941634 1_545
Hf4 Sn1 2.955603 1_555
Hf4 Sn4 3.038664 1_556
Hf4 Sn4 3.068024 1_555
Hf5 Zn0 2.700262 1_566
Hf5 Zn1 2.707769 1_565
Hf5 Sn5 2.921108 1_555
Hf5 Sn1 2.941642 1_455
Hf5 Sn2 2.955599 1_555
Hf5 Sn3 3.038662 1_556
Hf5 Sn3 3.068022 1_555
Hf6 Zn0 2.700262 1_555
Hf6 Zn1 2.707769 1_555
Hf6 Sn4 2.921106 1_555
Hf6 Sn0 2.941640 1_445
Hf6 Sn3 2.955607 1_555
Hf6 Sn2 3.038665 1_554
Hf6 Sn2 3.068025 1_555
Hf7 Zn0 2.700263 1_665
Hf7 Zn1 2.707769 1_665
Hf7 Sn0 2.921114 1_555
Hf7 Sn3 2.941634 1_655
Hf7 Sn4 2.955603 1_555
Hf7 Sn1 3.038664 1_554
Hf7 Sn1 3.068024 1_555
Hf8 Zn0 2.700262 1_666
Hf8 Zn1 2.707769 1_665
Hf8 Sn1 2.921107 1_555
Hf8 Sn2 2.941641 1_665
Hf8 Sn5 2.955607 1_555
Hf8 Sn0 3.038665 1_556
Hf8 Sn0 3.068025 1_555
Nb0 Sn1 3.004334 1_554
Nb0 Sn3 3.004334 1_555
Nb0 Sn4 3.004335 1_555
Nb0 Sn2 3.004335 1_554
Nb0 Sn5 3.004335 1_554
Nb0 Sn0 3.004335 1_555
