# generated using pymatgen
data_Cs4PbSe4
_symmetry_space_group_name_H-M   'P 1'
_cell_length_a   9.27207547
_cell_length_b   11.00140055
_cell_length_c   15.73288237
_cell_angle_alpha   90.00000000
_cell_angle_beta   90.00000000
_cell_angle_gamma   90.00000000
_symmetry_Int_Tables_number   1
_chemical_formula_structural   Cs4PbSe4
_chemical_formula_sum   'Cs16 Pb4 Se16'
_cell_volume   1604.84550757
_cell_formula_units_Z   4
loop_
 _symmetry_equiv_pos_site_id
 _symmetry_equiv_pos_as_xyz
  1  'x, y, z'
loop_
 _atom_site_type_symbol
 _atom_site_label
 _atom_site_symmetry_multiplicity
 _atom_site_fract_x
 _atom_site_fract_y
 _atom_site_fract_z
 _atom_site_occupancy
  Cs  Cs0  1  0.00000000  0.00000000  0.00000000  1
  Cs  Cs1  1  0.50000000  0.00000000  0.50000000  1
  Cs  Cs2  1  0.00000000  0.50000000  0.00000000  1
  Cs  Cs3  1  0.50000000  0.50000000  0.50000000  1
  Cs  Cs4  1  0.98849818  0.75000000  0.41667423  1
  Cs  Cs5  1  0.48849818  0.25000000  0.08332577  1
  Cs  Cs6  1  0.01150182  0.25000000  0.58332577  1
  Cs  Cs7  1  0.51150182  0.75000000  0.91667423  1
  Cs  Cs8  1  0.82995301  0.05051094  0.27938092  1
  Cs  Cs9  1  0.32995301  0.94948906  0.22061908  1
  Cs  Cs10  1  0.17004699  0.55051094  0.72061908  1
  Cs  Cs11  1  0.67004699  0.44948906  0.77938092  1
  Cs  Cs12  1  0.17004699  0.94948906  0.72061908  1
  Cs  Cs13  1  0.67004699  0.05051094  0.77938092  1
  Cs  Cs14  1  0.82995301  0.44948906  0.27938092  1
  Cs  Cs15  1  0.32995301  0.55051094  0.22061908  1
  Pb  Pb0  1  0.77040144  0.75000000  0.66227213  1
  Pb  Pb1  1  0.22959856  0.25000000  0.33772787  1
  Pb  Pb2  1  0.72959856  0.75000000  0.16227213  1
  Pb  Pb3  1  0.27040144  0.25000000  0.83772787  1
  Se  Se0  1  0.98391351  0.25000000  0.82556995  1
  Se  Se1  1  0.51608649  0.25000000  0.32556995  1
  Se  Se2  1  0.48391351  0.75000000  0.67443005  1
  Se  Se3  1  0.01608649  0.75000000  0.17443005  1
  Se  Se4  1  0.64316259  0.55387542  0.08281002  1
  Se  Se5  1  0.14316259  0.44612458  0.41718998  1
  Se  Se6  1  0.35683741  0.05387542  0.91718998  1
  Se  Se7  1  0.85683741  0.94612458  0.58281002  1
  Se  Se8  1  0.35683741  0.44612458  0.91718998  1
  Se  Se9  1  0.85683741  0.55387542  0.58281002  1
  Se  Se10  1  0.64316259  0.94612458  0.08281002  1
  Se  Se11  1  0.14316259  0.05387542  0.41718998  1
  Se  Se12  1  0.61910772  0.75000000  0.31895682  1
  Se  Se13  1  0.11910772  0.25000000  0.18104318  1
  Se  Se14  1  0.38089228  0.25000000  0.68104318  1
  Se  Se15  1  0.88089228  0.75000000  0.81895682  1
loop_
_geom_bond_atom_site_label_1
_geom_bond_atom_site_label_2
_geom_bond_distance
_geom_bond_site_symmetry_2
Cs0 Se6 3.604952 1_554
Cs0 Se10 3.604952 1_445
Cs0 Se3 3.888160 1_545
Cs0 Se0 3.888160 1_454
Cs0 Se13 4.110604 1_555
Cs0 Se15 4.110604 1_444
Cs1 Se7 3.604952 1_545
Cs1 Se11 3.604952 1_555
Cs1 Se2 3.888160 1_545
Cs1 Se1 3.888160 1_555
Cs1 Se14 4.110604 1_555
Cs1 Se12 4.110604 1_545
Cs2 Se8 3.604952 1_554
Cs2 Se4 3.604952 1_455
Cs2 Se3 3.888160 1_555
Cs2 Se0 3.888160 1_454
Cs2 Se13 4.110604 1_555
Cs2 Se15 4.110604 1_454
Cs3 Se9 3.604952 1_555
Cs3 Se5 3.604952 1_555
Cs3 Se2 3.888160 1_555
Cs3 Se1 3.888160 1_555
Cs3 Se14 4.110604 1_555
Cs3 Se12 4.110604 1_555
Cs4 Se9 3.602448 1_555
Cs4 Se7 3.602448 1_555
Cs4 Se11 3.637666 1_665
Cs4 Se5 3.637666 1_655
Cs4 Se12 3.754233 1_555
Cs4 Se3 3.819774 1_655
Cs5 Se8 3.602448 1_554
Cs5 Se6 3.602448 1_554
Cs5 Se10 3.637666 1_545
Cs5 Se4 3.637666 1_555
Cs5 Se13 3.754233 1_555
Cs5 Se1 3.819774 1_555
Cs6 Se11 3.602448 1_555
Cs6 Se5 3.602448 1_555
Cs6 Se7 3.637666 1_445
Cs6 Se9 3.637666 1_455
Cs6 Se14 3.754233 1_555
Cs6 Se0 3.819774 1_455
Cs7 Se4 3.602448 1_556
Cs7 Se10 3.602448 1_556
Cs7 Se6 3.637666 1_565
Cs7 Se8 3.637666 1_555
Cs7 Se15 3.754233 1_555
Cs7 Se2 3.819774 1_555
Cs8 Se11 3.624360 1_655
Cs8 Se1 3.716696 1_555
Cs8 Se10 3.725957 1_545
Cs8 Se13 3.794504 1_655
Cs8 Se12 3.890953 1_545
Cs8 Pb2 3.897484 1_545
Cs8 Se3 4.078583 1_645
Cs9 Se10 3.624360 1_555
Cs9 Se3 3.716696 1_555
Cs9 Se11 3.725957 1_565
Cs9 Se12 3.794504 1_555
Cs9 Se13 3.890953 1_565
Cs9 Pb1 3.897484 1_565
Cs9 Se1 4.078583 1_565
Cs10 Se9 3.624360 1_455
Cs10 Se2 3.716696 1_555
Cs10 Se8 3.725957 1_555
Cs10 Se15 3.794504 1_455
Cs10 Se14 3.890953 1_555
Cs10 Pb3 3.897484 1_555
Cs10 Se0 4.078583 1_455
Cs11 Se8 3.624360 1_555
Cs11 Se0 3.716696 1_555
Cs11 Se9 3.725957 1_555
Cs11 Se14 3.794504 1_555
Cs11 Se15 3.890953 1_555
Cs11 Pb0 3.897484 1_555
Cs11 Se2 4.078583 1_555
Cs12 Se7 3.624360 1_455
Cs12 Se2 3.716696 1_555
Cs12 Se6 3.725957 1_565
Cs12 Se15 3.794504 1_455
Cs12 Se14 3.890953 1_565
Cs12 Pb3 3.897484 1_565
Cs12 Se0 4.078583 1_465
Cs13 Se6 3.624360 1_555
Cs13 Se0 3.716696 1_555
Cs13 Se7 3.725957 1_545
Cs13 Se14 3.794504 1_555
Cs13 Se15 3.890953 1_545
Cs13 Pb0 3.897484 1_545
Cs13 Se2 4.078583 1_545
Cs14 Se5 3.624360 1_655
Cs14 Se1 3.716696 1_555
Cs14 Se4 3.725957 1_555
Cs14 Se13 3.794504 1_655
Cs14 Se12 3.890953 1_555
Cs14 Pb2 3.897484 1_555
Cs14 Se3 4.078583 1_655
Cs15 Se4 3.624360 1_555
Cs15 Se3 3.716696 1_555
Cs15 Se5 3.725957 1_555
Cs15 Se12 3.794504 1_555
Cs15 Se13 3.890953 1_555
Cs15 Pb1 3.897484 1_555
Cs15 Se1 4.078583 1_555
Pb0 Se9 2.619286 1_555
Pb0 Se7 2.619286 1_555
Pb0 Se2 2.663216 1_555
Pb0 Se15 2.669510 1_555
Pb1 Se11 2.619286 1_555
Pb1 Se5 2.619286 1_555
Pb1 Se1 2.663216 1_555
Pb1 Se13 2.669510 1_555
Pb2 Se4 2.619286 1_555
Pb2 Se10 2.619286 1_555
Pb2 Se3 2.663216 1_655
Pb2 Se12 2.669510 1_555
Pb3 Se6 2.619286 1_555
Pb3 Se8 2.619286 1_555
Pb3 Se0 2.663216 1_455
Pb3 Se14 2.669510 1_555
