# generated using pymatgen
data_Hf4ZnGeH2
_symmetry_space_group_name_H-M   'P 1'
_cell_length_a   5.40142848
_cell_length_b   5.40143070
_cell_length_c   5.40142719
_cell_angle_alpha   104.56780546
_cell_angle_beta   104.56777848
_cell_angle_gamma   119.79835544
_symmetry_Int_Tables_number   1
_chemical_formula_structural   Hf4ZnGeH2
_chemical_formula_sum   'Hf4 Zn1 Ge1 H2'
_cell_volume   118.31070807
_cell_formula_units_Z   1
loop_
 _symmetry_equiv_pos_site_id
 _symmetry_equiv_pos_as_xyz
  1  'x, y, z'
loop_
 _atom_site_type_symbol
 _atom_site_label
 _atom_site_symmetry_multiplicity
 _atom_site_fract_x
 _atom_site_fract_y
 _atom_site_fract_z
 _atom_site_occupancy
  Hf  Hf0  1  0.16106709  0.66106709  0.82213418  1
  Hf  Hf1  1  0.83893291  0.33893291  0.17786582  1
  Hf  Hf2  1  0.33893291  0.16106709  0.50000000  1
  Hf  Hf3  1  0.66106709  0.83893291  0.50000000  1
  Zn  Zn0  1  0.25000000  0.25000000  0.00000000  1
  Ge  Ge0  1  0.75000000  0.75000000  0.00000000  1
  H  H0  1  0.75000000  0.25000000  0.50000000  1
  H  H1  1  0.25000000  0.75000000  0.50000000  1
loop_
_geom_bond_atom_site_label_1
_geom_bond_atom_site_label_2
_geom_bond_distance
_geom_bond_site_symmetry_2
Hf0 Zn0 2.825722 1_556
Hf0 Zn0 2.825722 1_566
Hf1 Zn0 2.825721 1_655
Hf1 Zn0 2.825721 1_555
Hf2 Zn0 2.825720 1_556
Hf2 Zn0 2.825721 1_555
Hf3 Zn0 2.825722 1_666
Hf3 Zn0 2.825722 1_555
Ge0 Zn0 2.708942 1_555
Ge0 Zn0 2.708942 1_665
Ge0 Hf3 2.825720 1_555
Ge0 Hf0 2.825721 1_654
Ge0 Hf3 2.825721 1_554
Ge0 Hf0 2.825721 1_554
Ge0 Hf2 2.825722 1_665
Ge0 Hf2 2.825722 1_554
Ge0 Hf1 2.825722 1_555
Ge0 Hf1 2.825722 1_565
H0 Hf1 2.025001 1_555
H0 Hf2 2.025002 1_555
H0 Hf0 2.025003 1_655
H0 Hf3 2.025003 1_545
H1 Hf0 2.025001 1_555
H1 Hf3 2.025002 1_555
H1 Hf1 2.025003 1_455
H1 Hf2 2.025003 1_565
