# generated using pymatgen
data_Li8As3PPd12
_symmetry_space_group_name_H-M   'P 1'
_cell_length_a   7.24603102
_cell_length_b   7.24641457
_cell_length_c   7.24524081
_cell_angle_alpha   90.55053509
_cell_angle_beta   89.43717085
_cell_angle_gamma   89.44441650
_symmetry_Int_Tables_number   1
_chemical_formula_structural   Li8As3PPd12
_chemical_formula_sum   'Li8 As3 P1 Pd12'
_cell_volume   380.37710236
_cell_formula_units_Z   1
loop_
 _symmetry_equiv_pos_site_id
 _symmetry_equiv_pos_as_xyz
  1  'x, y, z'
loop_
 _atom_site_type_symbol
 _atom_site_label
 _atom_site_symmetry_multiplicity
 _atom_site_fract_x
 _atom_site_fract_y
 _atom_site_fract_z
 _atom_site_occupancy
  Li  Li0  1  0.28132787  0.28234502  0.28144440  1
  Li  Li1  1  0.03139616  0.46783203  0.53134876  1
  Li  Li2  1  0.53201810  0.03185513  0.46905364  1
  Li  Li3  1  0.46523190  0.53476526  0.03474656  1
  Li  Li4  1  0.21881620  0.71841277  0.78221918  1
  Li  Li5  1  0.96852887  0.96847990  0.96727812  1
  Li  Li6  1  0.78474470  0.21526450  0.71522159  1
  Li  Li7  1  0.71752582  0.78156849  0.21851416  1
  As  As0  1  0.87505382  0.37530624  0.12559083  1
  As  As1  1  0.37520119  0.12421011  0.87443697  1
  As  As2  1  0.62494404  0.62534707  0.62471327  1
  P  P0  1  0.12494070  0.87511360  0.37488499  1
  Pd  Pd0  1  0.16669355  0.08207943  0.61600241  1
  Pd  Pd1  1  0.40585686  0.37533437  0.65646071  1
  Pd  Pd2  1  0.08317053  0.63402676  0.16782537  1
  Pd  Pd3  1  0.91794085  0.11609120  0.33305921  1
  Pd  Pd4  1  0.33199951  0.91700557  0.13383233  1
  Pd  Pd5  1  0.65617817  0.40658680  0.37518731  1
  Pd  Pd6  1  0.59404556  0.87469186  0.84379688  1
  Pd  Pd7  1  0.62494492  0.15634430  0.09377653  1
  Pd  Pd8  1  0.36598684  0.66807916  0.41684687  1
  Pd  Pd9  1  0.88393042  0.83320274  0.58192381  1
  Pd  Pd10  1  0.12519074  0.34271822  0.90724694  1
  Pd  Pd11  1  0.84433266  0.59333949  0.87458917  1
loop_
_geom_bond_atom_site_label_1
_geom_bond_atom_site_label_2
_geom_bond_distance
_geom_bond_site_symmetry_2
Li0 Pd4 2.864676 1_545
Li0 Pd3 2.928374 1_455
Li0 Pd1 2.945437 1_555
Li0 Pd5 2.953199 1_555
Li0 Pd0 2.953463 1_555
Li0 Pd7 2.957599 1_555
Li0 Pd10 2.982482 1_554
Li0 Pd8 3.023935 1_555
Li0 Pd2 3.037500 1_555
Li1 Pd9 2.864399 1_455
Li1 Pd2 2.928891 1_555
Li1 Pd1 2.942442 1_555
Li1 Pd11 2.952172 1_455
Li1 Pd8 2.953585 1_555
Li1 Pd10 2.961933 1_555
Li1 Pd5 2.990548 1_455
Li1 Pd0 3.023698 1_555
Li1 Pd3 3.038089 1_455
Li2 Pd0 2.862153 1_555
Li2 Pd8 2.930973 1_545
Li2 Pd7 2.946684 1_555
Li2 Pd5 2.952370 1_555
Li2 Pd1 2.956515 1_555
Li2 Pd4 2.957330 1_545
Li2 Pd6 2.990702 1_545
Li2 Pd3 3.025536 1_555
Li2 Pd9 3.039029 1_545
Li3 Pd6 2.989569 1_554
Li3 Pd5 2.991193 1_555
Li3 Pd10 2.991253 1_554
Li3 Pd1 3.000602 1_554
Li3 Pd2 3.001141 1_555
Li3 Pd8 3.001751 1_555
Li3 Pd7 3.002095 1_555
Li3 Pd4 3.002648 1_555
Li3 Pd11 3.006987 1_554
Li4 Pd8 2.862938 1_555
Li4 Pd0 2.930572 1_565
Li4 Pd11 2.942140 1_455
Li4 Pd1 2.952040 1_555
Li4 Pd9 2.956256 1_455
Li4 Pd10 2.960342 1_555
Li4 Pd6 2.991304 1_555
Li4 Pd2 3.022568 1_556
Li4 Pd4 3.037587 1_556
Li5 Pd3 2.867189 1_566
Li5 Pd4 2.929818 1_656
Li5 Pd11 2.945321 1_555
Li5 Pd6 2.949109 1_555
Li5 Pd2 2.954220 1_656
Li5 Pd7 2.959210 1_566
Li5 Pd10 2.984090 1_665
Li5 Pd9 3.020691 1_555
Li5 Pd0 3.034514 1_665
Li6 Pd5 2.990842 1_555
Li6 Pd6 2.992142 1_545
Li6 Pd10 2.993504 1_655
Li6 Pd11 2.999583 1_555
Li6 Pd0 3.000613 1_655
Li6 Pd3 3.001724 1_555
Li6 Pd9 3.001778 1_545
Li6 Pd7 3.002546 1_556
Li6 Pd1 3.005793 1_555
Li7 Pd2 2.866368 1_655
Li7 Pd9 2.928944 1_555
Li7 Pd7 2.943809 1_565
Li7 Pd6 2.949225 1_554
Li7 Pd3 2.954178 1_565
Li7 Pd11 2.962988 1_554
Li7 Pd5 2.990400 1_555
Li7 Pd4 3.022509 1_555
Li7 Pd8 3.036639 1_555
As0 Pd5 2.401204 1_555
As0 Pd10 2.402434 1_654
As0 Pd11 2.430918 1_554
As0 Pd7 2.431476 1_555
As0 Pd2 2.436286 1_655
As0 Pd3 2.436490 1_555
As1 Pd6 2.400611 1_545
As1 Pd10 2.402952 1_555
As1 Pd1 2.431289 1_555
As1 Pd7 2.431476 1_556
As1 Pd0 2.436263 1_555
As1 Pd4 2.436458 1_546
As2 Pd5 2.400523 1_555
As2 Pd6 2.400932 1_555
As2 Pd1 2.431451 1_555
As2 Pd11 2.432279 1_555
As2 Pd8 2.436839 1_555
As2 Pd9 2.436976 1_555
P0 Pd3 2.314998 1_465
P0 Pd9 2.315113 1_455
P0 Pd4 2.315376 1_555
P0 Pd0 2.315490 1_565
P0 Pd8 2.315662 1_555
P0 Pd2 2.315830 1_555
Pd0 Pd1 2.770273 1_555
Pd0 Pd10 2.830233 1_555
Pd1 Pd10 2.727334 1_555
Pd1 Pd5 2.727364 1_555
Pd1 Pd8 2.768796 1_555
Pd3 Pd7 2.769125 1_555
Pd3 Pd5 2.832115 1_555
Pd4 Pd7 2.768930 1_565
Pd4 Pd6 2.830752 1_554
Pd5 Pd7 2.728102 1_555
Pd5 Pd8 2.828860 1_555
Pd6 Pd7 2.727965 1_566
Pd6 Pd9 2.828590 1_555
Pd10 Pd11 2.727989 1_455
Pd10 Pd2 2.830691 1_556
Pd11 Pd6 2.727736 1_555
Pd11 Pd2 2.768732 1_656
Pd11 Pd9 2.769162 1_555
