# generated using pymatgen
data_CsK2LiPb4
_symmetry_space_group_name_H-M   'P 1'
_cell_length_a   8.84085048
_cell_length_b   8.84084999
_cell_length_c   10.65967975
_cell_angle_alpha   90.00000000
_cell_angle_beta   90.00000000
_cell_angle_gamma   132.33831625
_symmetry_Int_Tables_number   1
_chemical_formula_structural   CsK2LiPb4
_chemical_formula_sum   'Cs2 K4 Li2 Pb8'
_cell_volume   615.86132972
_cell_formula_units_Z   2
loop_
 _symmetry_equiv_pos_site_id
 _symmetry_equiv_pos_as_xyz
  1  'x, y, z'
loop_
 _atom_site_type_symbol
 _atom_site_label
 _atom_site_symmetry_multiplicity
 _atom_site_fract_x
 _atom_site_fract_y
 _atom_site_fract_z
 _atom_site_occupancy
  Cs  Cs0  1  0.22273572  0.77726428  0.25000000  1
  Cs  Cs1  1  0.77726428  0.22273572  0.75000000  1
  K  K0  1  0.61273946  0.38726054  0.03898087  1
  K  K1  1  0.38726054  0.61273946  0.96101913  1
  K  K2  1  0.38726054  0.61273946  0.53898087  1
  K  K3  1  0.61273946  0.38726054  0.46101913  1
  Li  Li0  1  0.00000000  0.00000000  0.00000000  1
  Li  Li1  1  0.00000000  0.00000000  0.50000000  1
  Pb  Pb0  1  0.19024624  0.25505617  0.25000000  1
  Pb  Pb1  1  0.80975376  0.74494383  0.75000000  1
  Pb  Pb2  1  0.74494383  0.80975376  0.25000000  1
  Pb  Pb3  1  0.25505617  0.19024624  0.75000000  1
  Pb  Pb4  1  0.83199705  0.16800295  0.10715230  1
  Pb  Pb5  1  0.16800295  0.83199705  0.89284770  1
  Pb  Pb6  1  0.16800295  0.83199705  0.60715230  1
  Pb  Pb7  1  0.83199705  0.16800295  0.39284770  1
loop_
_geom_bond_atom_site_label_1
_geom_bond_atom_site_label_2
_geom_bond_distance
_geom_bond_site_symmetry_2
Cs0 Pb6 3.908697 1_555
Cs0 Pb5 3.908697 1_554
Cs0 Pb7 4.266280 1_455
Cs0 Pb4 4.266280 1_455
Cs0 Pb7 4.266280 1_565
Cs0 Pb4 4.266280 1_565
Cs0 Pb0 4.422640 1_565
Cs0 Pb2 4.422641 1_455
Cs0 Pb0 4.428402 1_555
Cs0 Pb2 4.428402 1_555
Cs1 Pb4 3.908697 1_556
Cs1 Pb7 3.908697 1_555
Cs1 Pb5 4.266280 1_655
Cs1 Pb6 4.266280 1_655
Cs1 Pb5 4.266280 1_545
Cs1 Pb6 4.266280 1_545
Cs1 Pb1 4.422640 1_545
Cs1 Pb3 4.422641 1_655
Cs1 Pb1 4.428402 1_555
Cs1 Pb3 4.428402 1_555
K0 Pb4 3.620004 1_555
K0 Pb2 3.807484 1_555
K0 Pb0 3.807484 1_555
K0 Pb1 3.886307 1_554
K0 Pb3 3.886307 1_554
K0 Pb5 3.998117 1_544
K0 Pb5 3.998117 1_654
K1 Pb5 3.620004 1_555
K1 Pb3 3.807484 1_555
K1 Pb1 3.807484 1_555
K1 Pb0 3.886307 1_556
K1 Pb2 3.886307 1_556
K1 Pb4 3.998117 1_566
K1 Pb4 3.998117 1_456
K2 Pb6 3.620004 1_555
K2 Pb3 3.807484 1_555
K2 Pb1 3.807484 1_555
K2 Pb0 3.886307 1_555
K2 Pb2 3.886307 1_555
K2 Pb7 3.998117 1_565
K2 Pb7 3.998117 1_455
K3 Pb7 3.620004 1_555
K3 Pb2 3.807484 1_555
K3 Pb0 3.807484 1_555
K3 Pb1 3.886307 1_555
K3 Pb3 3.886307 1_555
K3 Pb6 3.998117 1_545
K3 Pb6 3.998117 1_655
Li0 Pb4 2.947615 1_455
Li0 Pb5 2.947615 1_544
Li0 Pb0 3.147480 1_555
Li0 Pb1 3.147480 1_444
Li0 Pb3 3.147480 1_554
Li0 Pb2 3.147480 1_445
Li1 Pb6 2.947615 1_545
Li1 Pb7 2.947615 1_455
Li1 Pb0 3.147480 1_555
Li1 Pb1 3.147480 1_445
Li1 Pb3 3.147480 1_555
Li1 Pb2 3.147480 1_445
Pb0 Pb7 3.107869 1_455
Pb0 Pb4 3.107869 1_455
Pb0 Pb2 3.181274 1_445
Pb1 Pb5 3.107869 1_655
Pb1 Pb6 3.107869 1_655
Pb1 Pb3 3.181274 1_665
Pb2 Pb7 3.107869 1_565
Pb2 Pb4 3.107869 1_565
Pb3 Pb5 3.107869 1_545
Pb3 Pb6 3.107869 1_545
Pb4 Pb7 3.045422 1_555
Pb5 Pb6 3.045422 1_555
