# generated using pymatgen
data_NaY6Sn23Rh6
_symmetry_space_group_name_H-M   'P 1'
_cell_length_a   9.84796164
_cell_length_b   9.84796332
_cell_length_c   9.98101098
_cell_angle_alpha   90.00000000
_cell_angle_beta   90.00000000
_cell_angle_gamma   120.00000430
_symmetry_Int_Tables_number   1
_chemical_formula_structural   NaY6Sn23Rh6
_chemical_formula_sum   'Na1 Y6 Sn23 Rh6'
_cell_volume   838.29700963
_cell_formula_units_Z   1
loop_
 _symmetry_equiv_pos_site_id
 _symmetry_equiv_pos_as_xyz
  1  'x, y, z'
loop_
 _atom_site_type_symbol
 _atom_site_label
 _atom_site_symmetry_multiplicity
 _atom_site_fract_x
 _atom_site_fract_y
 _atom_site_fract_z
 _atom_site_occupancy
  Na  Na0  1  0.00000000  0.00000000  0.00000000  1
  Y  Y0  1  0.03810275  0.51905187  0.30643283  1
  Y  Y1  1  0.48094813  0.96189725  0.30643283  1
  Y  Y2  1  0.48094813  0.51905187  0.30643283  1
  Y  Y3  1  0.96189725  0.48094813  0.69356717  1
  Y  Y4  1  0.51905187  0.03810275  0.69356717  1
  Y  Y5  1  0.51905187  0.48094813  0.69356717  1
  Sn  Sn0  1  0.00000000  0.00000000  0.50000000  1
  Sn  Sn1  1  0.11571993  0.88428007  0.27866586  1
  Sn  Sn2  1  0.76856014  0.88428007  0.27866586  1
  Sn  Sn3  1  0.11571993  0.23143986  0.27866586  1
  Sn  Sn4  1  0.88428007  0.11571993  0.72133414  1
  Sn  Sn5  1  0.23143986  0.11571993  0.72133414  1
  Sn  Sn6  1  0.88428007  0.76856014  0.72133414  1
  Sn  Sn7  1  0.34964177  1.00000000  0.00000000  1
  Sn  Sn8  1  0.65035823  0.65035823  0.00000000  1
  Sn  Sn9  1  0.00000000  0.34964177  0.00000000  1
  Sn  Sn10  1  0.34964177  0.34964177  0.00000000  1
  Sn  Sn11  1  1.00000000  0.65035823  0.00000000  1
  Sn  Sn12  1  0.65035823  0.00000000  0.00000000  1
  Sn  Sn13  1  0.77799011  0.55598022  0.46065066  1
  Sn  Sn14  1  0.77799011  0.22200989  0.46065066  1
  Sn  Sn15  1  0.44401978  0.22200989  0.46065066  1
  Sn  Sn16  1  0.22200989  0.44401978  0.53934934  1
  Sn  Sn17  1  0.22200989  0.77799011  0.53934934  1
  Sn  Sn18  1  0.55598022  0.77799011  0.53934934  1
  Sn  Sn19  1  0.66666700  0.33333300  0.17814492  1
  Sn  Sn20  1  0.33333300  0.66666700  0.82185508  1
  Sn  Sn21  1  0.66666700  0.33333300  0.88130658  1
  Sn  Sn22  1  0.33333300  0.66666700  0.11869342  1
  Rh  Rh0  1  0.17159603  0.82840397  0.79754129  1
  Rh  Rh1  1  0.65680694  0.82840397  0.79754129  1
  Rh  Rh2  1  0.17159603  0.34319306  0.79754129  1
  Rh  Rh3  1  0.82840397  0.17159603  0.20245871  1
  Rh  Rh4  1  0.34319306  0.17159603  0.20245871  1
  Rh  Rh5  1  0.82840397  0.65680694  0.20245871  1
loop_
_geom_bond_atom_site_label_1
_geom_bond_atom_site_label_2
_geom_bond_distance
_geom_bond_site_symmetry_2
Na0 Sn2 3.410587 1_445
Na0 Sn5 3.410587 1_554
Na0 Sn1 3.410587 1_545
Na0 Sn4 3.410587 1_454
Na0 Sn3 3.410587 1_555
Na0 Sn6 3.410587 1_444
Na0 Sn7 3.443259 1_545
Na0 Sn12 3.443259 1_455
Na0 Sn10 3.443259 1_555
Na0 Sn8 3.443259 1_445
Na0 Sn9 3.443259 1_555
Na0 Sn11 3.443259 1_445
Na0 Rh3 3.556739 1_455
Na0 Rh0 3.556739 1_544
Na0 Rh4 3.556746 1_555
Na0 Rh1 3.556746 1_444
Na0 Rh2 3.556747 1_554
Na0 Rh5 3.556747 1_445
Sn0 Sn5 2.962498 1_555
Sn0 Sn2 2.962498 1_445
Sn0 Sn4 2.962498 1_455
Sn0 Sn1 2.962498 1_545
Sn0 Sn6 2.962498 1_445
Sn0 Sn3 2.962498 1_555
Sn1 Y1 3.293699 1_555
Sn1 Y0 3.293699 1_555
Sn2 Y2 3.293702 1_555
Sn2 Y1 3.293708 1_555
Sn3 Y2 3.293702 1_555
Sn3 Y0 3.293709 1_555
Sn4 Y4 3.293699 1_555
Sn4 Y3 3.293699 1_555
Sn5 Y5 3.293702 1_555
Sn5 Y4 3.293708 1_555
Sn6 Y5 3.293702 1_555
Sn6 Y3 3.293709 1_555
Sn7 Y1 3.413591 1_555
Sn7 Y4 3.413595 1_564
Sn8 Y2 3.413594 1_555
Sn8 Y5 3.413594 1_554
Sn9 Y3 3.413591 1_454
Sn9 Y0 3.413595 1_555
Sn10 Y5 3.413594 1_554
Sn10 Y2 3.413594 1_555
Sn11 Y0 3.413591 1_655
Sn11 Y3 3.413595 1_554
Sn12 Y4 3.413591 1_554
Sn12 Y1 3.413595 1_545
Sn13 Y0 3.161455 1_655
Sn13 Y2 3.161464 1_555
Sn13 Y5 3.250961 1_555
Sn13 Y3 3.250968 1_555
Sn14 Y1 3.161461 1_545
Sn14 Y0 3.161461 1_655
Sn14 Y4 3.250963 1_555
Sn14 Y3 3.250963 1_555
Sn15 Y1 3.161456 1_545
Sn15 Y2 3.161464 1_555
Sn15 Y5 3.250962 1_555
Sn15 Y4 3.250968 1_555
Sn16 Y3 3.161455 1_455
Sn16 Y5 3.161464 1_555
Sn16 Y2 3.250961 1_555
Sn16 Y0 3.250968 1_555
Sn17 Y4 3.161461 1_565
Sn17 Y3 3.161461 1_455
Sn17 Y1 3.250963 1_555
Sn17 Y0 3.250963 1_555
Sn18 Y4 3.161456 1_565
Sn18 Y5 3.161464 1_555
Sn18 Y2 3.250962 1_555
Sn18 Y1 3.250968 1_555
Sn19 Y0 3.416815 1_655
Sn19 Y1 3.416816 1_545
Sn19 Y2 3.416831 1_555
Sn20 Y3 3.416815 1_455
Sn20 Y4 3.416816 1_565
Sn20 Y5 3.416831 1_555
Sn21 Y3 3.138636 1_555
Sn21 Y5 3.138636 1_555
Sn21 Y4 3.138636 1_555
Sn22 Y0 3.138636 1_555
Sn22 Y2 3.138636 1_555
Sn22 Y1 3.138636 1_555
Rh0 Sn7 2.655265 1_556
Rh0 Sn11 2.655265 1_456
Rh0 Sn6 2.695234 1_455
Rh0 Sn5 2.695234 1_565
Rh0 Sn17 2.716703 1_555
Rh0 Sn20 2.769428 1_555
Rh0 Y4 3.159689 1_565
Rh0 Y3 3.159689 1_455
Rh1 Sn12 2.655262 1_566
Rh1 Sn8 2.655269 1_556
Rh1 Sn4 2.695237 1_565
Rh1 Sn6 2.695243 1_555
Rh1 Sn18 2.716700 1_555
Rh1 Sn20 2.769428 1_555
Rh1 Y4 3.159674 1_565
Rh1 Y5 3.159691 1_555
Rh2 Sn9 2.655262 1_556
Rh2 Sn10 2.655268 1_556
Rh2 Sn4 2.695237 1_455
Rh2 Sn5 2.695243 1_555
Rh2 Sn16 2.716700 1_555
Rh2 Sn20 2.769428 1_555
Rh2 Y3 3.159674 1_455
Rh2 Y5 3.159691 1_555
Rh3 Sn12 2.655265 1_555
Rh3 Sn9 2.655265 1_655
Rh3 Sn3 2.695234 1_655
Rh3 Sn2 2.695234 1_545
Rh3 Sn14 2.716703 1_555
Rh3 Sn19 2.769428 1_555
Rh3 Y1 3.159689 1_545
Rh3 Y0 3.159689 1_655
Rh4 Sn7 2.655262 1_545
Rh4 Sn10 2.655269 1_555
Rh4 Sn1 2.695237 1_545
Rh4 Sn3 2.695243 1_555
Rh4 Sn15 2.716700 1_555
Rh4 Sn19 2.769428 1_555
Rh4 Y1 3.159674 1_545
Rh4 Y2 3.159691 1_555
Rh5 Sn11 2.655262 1_555
Rh5 Sn8 2.655268 1_555
Rh5 Sn1 2.695237 1_655
Rh5 Sn2 2.695243 1_555
Rh5 Sn13 2.716700 1_555
Rh5 Sn19 2.769428 1_555
Rh5 Y0 3.159674 1_655
Rh5 Y2 3.159691 1_555
