# generated using pymatgen
data_Zr6Zn18SnIr5
_symmetry_space_group_name_H-M   'P 1'
_cell_length_a   8.76905741
_cell_length_b   8.76905570
_cell_length_c   8.76905705
_cell_angle_alpha   59.78173052
_cell_angle_beta   59.78172939
_cell_angle_gamma   59.78172972
_symmetry_Int_Tables_number   1
_chemical_formula_structural   Zr6Zn18SnIr5
_chemical_formula_sum   'Zr6 Zn18 Sn1 Ir5'
_cell_volume   474.44530345
_cell_formula_units_Z   1
loop_
 _symmetry_equiv_pos_site_id
 _symmetry_equiv_pos_as_xyz
  1  'x, y, z'
loop_
 _atom_site_type_symbol
 _atom_site_label
 _atom_site_symmetry_multiplicity
 _atom_site_fract_x
 _atom_site_fract_y
 _atom_site_fract_z
 _atom_site_occupancy
  Zr  Zr0  1  0.72479249  0.26906026  0.26906026  1
  Zr  Zr1  1  0.27520751  0.73093974  0.73093974  1
  Zr  Zr2  1  0.26906026  0.72479249  0.26906026  1
  Zr  Zr3  1  0.73093974  0.27520751  0.73093974  1
  Zr  Zr4  1  0.26906026  0.26906026  0.72479249  1
  Zr  Zr5  1  0.73093974  0.73093974  0.27520751  1
  Zn  Zn0  1  0.12836014  0.12836014  0.61091445  1
  Zn  Zn1  1  0.12836014  0.61091445  0.12836014  1
  Zn  Zn2  1  0.87163986  0.87163986  0.38908555  1
  Zn  Zn3  1  0.87163986  0.38908555  0.87163986  1
  Zn  Zn4  1  0.61091445  0.12836014  0.12836014  1
  Zn  Zn5  1  0.38908555  0.87163986  0.87163986  1
  Zn  Zn6  1  0.50000000  0.00000000  0.00000000  1
  Zn  Zn7  1  0.00000000  0.50000000  0.00000000  1
  Zn  Zn8  1  0.00000000  0.00000000  0.50000000  1
  Zn  Zn9  1  0.34319110  0.34319110  0.34319110  1
  Zn  Zn10  1  0.65680890  0.65680890  0.65680890  1
  Zn  Zn11  1  0.33683266  0.33683266  0.97735898  1
  Zn  Zn12  1  0.33683266  0.97735898  0.33683266  1
  Zn  Zn13  1  0.66316734  0.66316734  0.02264102  1
  Zn  Zn14  1  0.66316734  0.02264102  0.66316734  1
  Zn  Zn15  1  0.97735898  0.33683266  0.33683266  1
  Zn  Zn16  1  0.02264102  0.66316734  0.66316734  1
  Zn  Zn17  1  0.00000000  0.00000000  0.00000000  1
  Sn  Sn0  1  0.50000000  0.50000000  0.50000000  1
  Ir  Ir0  1  0.11815588  0.11815588  0.11815588  1
  Ir  Ir1  1  0.88184412  0.88184412  0.88184412  1
  Ir  Ir2  1  0.00000000  0.50000000  0.50000000  1
  Ir  Ir3  1  0.50000000  0.00000000  0.50000000  1
  Ir  Ir4  1  0.50000000  0.50000000  0.00000000  1
loop_
_geom_bond_atom_site_label_1
_geom_bond_atom_site_label_2
_geom_bond_distance
_geom_bond_site_symmetry_2
Zn0 Zn8 2.638033 1_555
Zn0 Zn12 2.686256 1_545
Zn0 Zn15 2.686256 1_455
Zn0 Zn9 2.697797 1_555
Zn0 Zn17 2.778292 1_556
Zn0 Zr4 2.838044 1_555
Zn0 Zr1 2.840079 1_545
Zn0 Zr3 2.840079 1_455
Zn1 Zn7 2.638033 1_555
Zn1 Zn11 2.686256 1_554
Zn1 Zn15 2.686256 1_455
Zn1 Zn9 2.697797 1_555
Zn1 Zn17 2.778291 1_565
Zn1 Zr2 2.838044 1_555
Zn1 Zr1 2.840079 1_554
Zn1 Zr5 2.840079 1_455
Zn2 Zn8 2.638033 1_665
Zn2 Zr5 2.838044 1_555
Zn2 Zr0 2.840079 1_565
Zn2 Zr2 2.840079 1_655
Zn3 Zn7 2.638033 1_656
Zn3 Zr3 2.838044 1_555
Zn3 Zr0 2.840079 1_556
Zn3 Zr4 2.840079 1_655
Zn4 Zn6 2.638033 1_555
Zn4 Zn9 2.697797 1_555
Zn4 Zr0 2.838044 1_555
Zn4 Zr5 2.840079 1_545
Zn4 Zr3 2.840079 1_554
Zn5 Zn6 2.638033 1_566
Zn5 Zr1 2.838044 1_555
Zn5 Zr4 2.840079 1_565
Zn5 Zr2 2.840079 1_556
Zn9 Zr2 2.844099 1_555
Zn9 Zr4 2.844099 1_555
Zn9 Zr0 2.844099 1_555
Zn10 Zn5 2.697797 1_555
Zn10 Zn2 2.697797 1_555
Zn10 Zn3 2.697797 1_555
Zn10 Zr3 2.844099 1_555
Zn10 Zr5 2.844099 1_555
Zn10 Zr1 2.844099 1_555
Zn11 Zn6 2.500522 1_556
Zn11 Zn7 2.500523 1_556
Zn11 Zn4 2.686256 1_556
Zn11 Zr4 2.935462 1_555
Zn11 Zr1 2.946762 1_555
Zn11 Zr3 2.946763 1_555
Zn12 Zn6 2.500523 1_565
Zn12 Zn8 2.500523 1_565
Zn12 Zn4 2.686256 1_565
Zn12 Zr2 2.935462 1_555
Zn12 Zr1 2.946763 1_555
Zn12 Zr5 2.946763 1_555
Zn13 Zn6 2.500522 1_565
Zn13 Zn7 2.500523 1_655
Zn13 Zn3 2.686256 1_554
Zn13 Zn5 2.686256 1_554
Zn13 Zr5 2.935462 1_555
Zn13 Zr0 2.946762 1_555
Zn13 Zr2 2.946763 1_555
Zn14 Zn6 2.500523 1_556
Zn14 Zn8 2.500523 1_655
Zn14 Zn2 2.686256 1_545
Zn14 Zn5 2.686256 1_545
Zn14 Zr3 2.935462 1_555
Zn14 Zr0 2.946763 1_555
Zn14 Zr4 2.946763 1_555
Zn15 Zn8 2.500522 1_655
Zn15 Zn7 2.500523 1_655
Zn15 Zr0 2.935462 1_555
Zn15 Zr5 2.946762 1_555
Zn15 Zr3 2.946763 1_555
Zn16 Zn8 2.500522 1_565
Zn16 Zn7 2.500523 1_556
Zn16 Zn3 2.686256 1_455
Zn16 Zn2 2.686256 1_455
Zn16 Zr1 2.935462 1_555
Zn16 Zr4 2.946762 1_555
Zn16 Zr2 2.946763 1_555
Zn17 Zn3 2.778291 1_454
Zn17 Zn2 2.778292 1_445
Zn17 Zn5 2.778292 1_544
Zn17 Zn4 2.778292 1_455
Sn0 Zr1 2.859994 1_555
Sn0 Zr0 2.859994 1_555
Sn0 Zr5 2.859994 1_555
Sn0 Zr4 2.859994 1_555
Sn0 Zr3 2.859994 1_555
Sn0 Zr2 2.859994 1_555
Ir0 Zn17 2.542133 1_555
Ir0 Zn7 2.730408 1_555
Ir0 Zn8 2.730409 1_555
Ir0 Zn6 2.730409 1_555
Ir0 Zn15 2.795303 1_455
Ir0 Zn11 2.795303 1_554
Ir0 Zn12 2.795304 1_545
Ir0 Zr2 2.823830 1_545
Ir0 Zr4 2.823830 1_554
Ir0 Zr0 2.823830 1_455
Ir0 Zn5 3.058584 1_544
Ir0 Zn2 3.058584 1_445
Ir0 Zn3 3.058584 1_454
Ir1 Zn17 2.542133 1_666
Ir1 Zn7 2.730408 1_656
Ir1 Zn8 2.730409 1_665
Ir1 Zn6 2.730409 1_566
Ir1 Zn16 2.795303 1_655
Ir1 Zn13 2.795303 1_556
Ir1 Zn14 2.795304 1_565
Ir1 Zr3 2.823830 1_565
Ir1 Zr5 2.823830 1_556
Ir1 Zr1 2.823830 1_655
Ir1 Zn4 3.058584 1_566
Ir1 Zn0 3.058584 1_665
Ir1 Zn1 3.058584 1_656
Ir2 Zn9 2.531951 1_555
Ir2 Zn10 2.531951 1_455
Ir2 Zn16 2.601265 1_555
Ir2 Zn15 2.601265 1_455
Ir2 Zn2 2.655667 1_455
Ir2 Zn0 2.655667 1_555
Ir2 Zn3 2.655668 1_455
Ir2 Zn1 2.655668 1_555
Ir2 Zr2 3.067136 1_555
Ir2 Zr3 3.067136 1_455
Ir2 Zr4 3.067136 1_555
Ir2 Zr5 3.067136 1_455
Ir3 Zn9 2.531951 1_555
Ir3 Zn10 2.531951 1_545
Ir3 Zn14 2.601265 1_555
Ir3 Zn12 2.601265 1_545
Ir3 Zn5 2.655668 1_545
Ir3 Zn4 2.655668 1_555
Ir3 Zn2 2.655668 1_545
Ir3 Zn0 2.655668 1_555
Ir3 Zr4 3.067136 1_555
Ir3 Zr5 3.067136 1_545
Ir3 Zr0 3.067136 1_555
Ir3 Zr1 3.067136 1_545
Ir4 Zn9 2.531951 1_555
Ir4 Zn10 2.531951 1_554
Ir4 Zn13 2.601265 1_555
Ir4 Zn11 2.601265 1_554
Ir4 Zn5 2.655667 1_554
Ir4 Zn4 2.655667 1_555
Ir4 Zn3 2.655668 1_554
Ir4 Zn1 2.655668 1_555
Ir4 Zr2 3.067136 1_555
Ir4 Zr3 3.067136 1_554
Ir4 Zr0 3.067136 1_555
Ir4 Zr1 3.067136 1_554
