# generated using pymatgen
data_YAsPd4Pt
_symmetry_space_group_name_H-M   'P 1'
_cell_length_a   4.08561577
_cell_length_b   4.08561577
_cell_length_c   7.12205180
_cell_angle_alpha   90.00000000
_cell_angle_beta   90.00000000
_cell_angle_gamma   90.00000000
_symmetry_Int_Tables_number   1
_chemical_formula_structural   YAsPd4Pt
_chemical_formula_sum   'Y1 As1 Pd4 Pt1'
_cell_volume   118.88311324
_cell_formula_units_Z   1
loop_
 _symmetry_equiv_pos_site_id
 _symmetry_equiv_pos_as_xyz
  1  'x, y, z'
loop_
 _atom_site_type_symbol
 _atom_site_label
 _atom_site_symmetry_multiplicity
 _atom_site_fract_x
 _atom_site_fract_y
 _atom_site_fract_z
 _atom_site_occupancy
  Y  Y0  1  0.00000000  0.00000000  0.00000000  1
  As  As0  1  0.50000000  0.50000000  0.50000000  1
  Pd  Pd0  1  0.00000000  0.50000000  0.29278291  1
  Pd  Pd1  1  0.50000000  0.00000000  0.29278291  1
  Pd  Pd2  1  0.00000000  0.50000000  0.70721709  1
  Pd  Pd3  1  0.50000000  0.00000000  0.70721709  1
  Pt  Pt0  1  0.50000000  0.50000000  0.00000000  1
loop_
_geom_bond_atom_site_label_1
_geom_bond_atom_site_label_2
_geom_bond_distance
_geom_bond_site_symmetry_2
As0 Pd3 2.520135 1_555
As0 Pd2 2.520135 1_555
As0 Pd2 2.520135 1_655
As0 Pd3 2.520135 1_565
As0 Pd1 2.520135 1_565
As0 Pd0 2.520135 1_655
As0 Pd0 2.520135 1_555
As0 Pd1 2.520135 1_555
Pd0 Pd1 2.888967 1_555
Pd0 Pd1 2.888967 1_565
Pd0 Pd1 2.888967 1_465
Pd0 Pd1 2.888967 1_455
Pd0 Pt0 2.919107 1_455
Pd0 Y0 2.919107 1_555
Pd0 Y0 2.919107 1_565
Pd0 Pt0 2.919107 1_555
Pd0 Pd2 2.951622 1_555
Pd1 Y0 2.919107 1_655
Pd1 Pt0 2.919107 1_545
Pd1 Y0 2.919107 1_555
Pd1 Pt0 2.919107 1_555
Pd1 Pd3 2.951622 1_555
Pd2 Pd3 2.888967 1_465
Pd2 Pd3 2.888967 1_555
Pd2 Pd3 2.888967 1_455
Pd2 Pd3 2.888967 1_565
Pd2 Y0 2.919107 1_556
Pd2 Pt0 2.919107 1_456
Pd2 Pt0 2.919107 1_556
Pd2 Y0 2.919107 1_566
Pd3 Y0 2.919107 1_556
Pd3 Pt0 2.919107 1_546
Pd3 Y0 2.919107 1_656
Pd3 Pt0 2.919107 1_556
Pt0 Y0 2.888967 1_555
Pt0 Y0 2.888967 1_565
Pt0 Y0 2.888967 1_665
Pt0 Y0 2.888967 1_655
