# generated using pymatgen
data_K2Cd3SnP4
_symmetry_space_group_name_H-M   'P 1'
_cell_length_a   9.15389762
_cell_length_b   9.15389805
_cell_length_c   7.50202947
_cell_angle_alpha   65.85757825
_cell_angle_beta   65.85757634
_cell_angle_gamma   27.26725223
_symmetry_Int_Tables_number   1
_chemical_formula_structural   K2Cd3SnP4
_chemical_formula_sum   'K2 Cd3 Sn1 P4'
_cell_volume   261.25036980
_cell_formula_units_Z   1
loop_
 _symmetry_equiv_pos_site_id
 _symmetry_equiv_pos_as_xyz
  1  'x, y, z'
loop_
 _atom_site_type_symbol
 _atom_site_label
 _atom_site_symmetry_multiplicity
 _atom_site_fract_x
 _atom_site_fract_y
 _atom_site_fract_z
 _atom_site_occupancy
  K  K0  1  0.49406686  0.49406686  0.51065282  1
  K  K1  1  0.99672130  0.99672130  0.99957611  1
  Cd  Cd0  1  0.19443205  0.19443205  0.48521955  1
  Cd  Cd1  1  0.32574847  0.32574847  0.02151605  1
  Cd  Cd2  1  0.82468502  0.82468502  0.49477331  1
  Sn  Sn0  1  0.68515697  0.68515697  0.96943684  1
  P  P0  1  0.36600007  0.36600007  0.30332247  1
  P  P1  1  0.84343840  0.84343840  0.82024738  1
  P  P2  1  0.63385175  0.63385175  0.70096234  1
  P  P3  1  0.13681011  0.13681011  0.19429313  1
loop_
_geom_bond_atom_site_label_1
_geom_bond_atom_site_label_2
_geom_bond_distance
_geom_bond_site_symmetry_2
K0 P0 3.254877 1_555
K0 P2 3.348511 1_555
K0 P3 3.415374 1_655
K0 P3 3.415375 1_565
K0 P1 3.463085 1_455
K0 P1 3.463085 1_545
K1 P0 3.285792 1_566
K1 P0 3.285792 1_656
K1 P2 3.320574 1_655
K1 P2 3.320575 1_565
K1 P3 3.377992 1_666
K1 P1 3.512238 1_555
Cd0 P2 2.639798 1_455
Cd0 P2 2.639799 1_545
Cd0 P0 2.770171 1_555
Cd0 P3 2.774515 1_555
Cd1 P0 2.501357 1_555
Cd1 P1 2.575758 1_544
Cd1 P1 2.575759 1_454
Cd1 P3 3.051672 1_555
Cd2 P0 2.523916 1_655
Cd2 P0 2.523917 1_565
Cd2 P1 2.599820 1_555
Cd2 P2 3.082204 1_555
P1 Sn0 2.555432 1_555
P2 Sn0 2.537200 1_555
P3 Sn0 2.649476 1_544
P3 Sn0 2.649476 1_454
