# generated using pymatgen
data_K2LiH6Ir
_symmetry_space_group_name_H-M   'P 1'
_cell_length_a   9.56505358
_cell_length_b   9.56505343
_cell_length_c   9.56505345
_cell_angle_alpha   34.21126170
_cell_angle_beta   34.21126224
_cell_angle_gamma   34.21126277
_symmetry_Int_Tables_number   1
_chemical_formula_structural   K2LiH6Ir
_chemical_formula_sum   'K4 Li2 H12 Ir2'
_cell_volume   246.67719086
_cell_formula_units_Z   2
loop_
 _symmetry_equiv_pos_site_id
 _symmetry_equiv_pos_as_xyz
  1  'x, y, z'
loop_
 _atom_site_type_symbol
 _atom_site_label
 _atom_site_symmetry_multiplicity
 _atom_site_fract_x
 _atom_site_fract_y
 _atom_site_fract_z
 _atom_site_occupancy
  K  K0  1  0.12763919  0.12763919  0.12763919  1
  K  K1  1  0.87236081  0.87236081  0.87236081  1
  K  K2  1  0.28489372  0.28489372  0.28489372  1
  K  K3  1  0.71510628  0.71510628  0.71510628  1
  Li  Li0  1  0.40684703  0.40684703  0.40684703  1
  Li  Li1  1  0.59315297  0.59315297  0.59315297  1
  H  H0  1  0.17862489  0.17862489  0.74909210  1
  H  H1  1  0.74909210  0.17862489  0.17862489  1
  H  H2  1  0.17862489  0.74909210  0.17862489  1
  H  H3  1  0.82137511  0.25090790  0.82137511  1
  H  H4  1  0.82137511  0.82137511  0.25090790  1
  H  H5  1  0.25090790  0.82137511  0.82137511  1
  H  H6  1  0.39728059  0.39728059  0.81549586  1
  H  H7  1  0.81549586  0.39728059  0.39728059  1
  H  H8  1  0.18450414  0.60271941  0.60271941  1
  H  H9  1  0.60271941  0.60271941  0.18450414  1
  H  H10  1  0.60271941  0.18450414  0.60271941  1
  H  H11  1  0.39728059  0.81549586  0.39728059  1
  Ir  Ir0  1  0.00000000  0.00000000  0.00000000  1
  Ir  Ir1  1  0.50000000  0.50000000  0.50000000  1
loop_
_geom_bond_atom_site_label_1
_geom_bond_atom_site_label_2
_geom_bond_distance
_geom_bond_site_symmetry_2
H0 Ir0 1.691869 1_556
H0 Li0 2.118974 1_555
H0 K3 2.844405 1_455
H0 K3 2.844405 1_545
H0 K0 2.852772 1_556
H0 K2 2.925831 1_555
H1 Ir0 1.691869 1_655
H1 Li0 2.118974 1_555
H1 K3 2.844405 1_545
H1 K3 2.844405 1_554
H1 K0 2.852772 1_655
H1 K2 2.925831 1_555
H2 Ir0 1.691869 1_565
H2 Li0 2.118974 1_555
H2 K3 2.844405 1_455
H2 K3 2.844405 1_554
H2 K0 2.852772 1_565
H2 K2 2.925831 1_555
H3 Ir0 1.691869 1_656
H3 Li1 2.118974 1_555
H3 K2 2.844405 1_655
H3 K2 2.844405 1_556
H3 K1 2.852772 1_545
H3 K3 2.925831 1_555
H4 Ir0 1.691869 1_665
H4 Li1 2.118974 1_555
H4 K2 2.844405 1_655
H4 K2 2.844405 1_565
H4 K1 2.852772 1_554
H4 K3 2.925831 1_555
H5 Ir0 1.691869 1_566
H5 Li1 2.118974 1_555
H5 K2 2.844405 1_565
H5 K2 2.844405 1_556
H5 K1 2.852772 1_455
H5 K3 2.925831 1_555
H6 Ir1 1.681140 1_555
H6 Li1 2.041695 1_555
H6 K0 2.783497 1_556
H6 K1 2.826634 1_545
H6 K1 2.826634 1_455
H6 K2 2.900943 1_556
H7 Ir1 1.681140 1_555
H7 Li1 2.041695 1_555
H7 K0 2.783497 1_655
H7 K1 2.826634 1_554
H7 K1 2.826634 1_545
H7 K2 2.900943 1_655
H8 Ir1 1.681140 1_555
H8 Li0 2.041695 1_555
H8 K1 2.783497 1_455
H8 K0 2.826634 1_556
H8 K0 2.826634 1_565
H8 K3 2.900943 1_455
H9 Ir1 1.681140 1_555
H9 Li0 2.041695 1_555
H9 K1 2.783497 1_554
H9 K0 2.826634 1_565
H9 K0 2.826634 1_655
H9 K3 2.900943 1_554
H10 Ir1 1.681140 1_555
H10 Li0 2.041695 1_555
H10 K1 2.783497 1_545
H10 K0 2.826634 1_556
H10 K0 2.826634 1_655
H10 K3 2.900943 1_545
H11 Ir1 1.681140 1_555
H11 Li1 2.041695 1_555
H11 K0 2.783497 1_565
H11 K1 2.826634 1_554
H11 K1 2.826634 1_455
H11 K2 2.900943 1_565
