# generated using pymatgen
data_HfAl3CuMo
_symmetry_space_group_name_H-M   'P 1'
_cell_length_a   4.94868216
_cell_length_b   4.94868283
_cell_length_c   4.94868316
_cell_angle_alpha   62.35387922
_cell_angle_beta   62.35387790
_cell_angle_gamma   62.35389119
_symmetry_Int_Tables_number   1
_chemical_formula_structural   HfAl3CuMo
_chemical_formula_sum   'Hf1 Al3 Cu1 Mo1'
_cell_volume   90.19485381
_cell_formula_units_Z   1
loop_
 _symmetry_equiv_pos_site_id
 _symmetry_equiv_pos_as_xyz
  1  'x, y, z'
loop_
 _atom_site_type_symbol
 _atom_site_label
 _atom_site_symmetry_multiplicity
 _atom_site_fract_x
 _atom_site_fract_y
 _atom_site_fract_z
 _atom_site_occupancy
  Hf  Hf0  1  0.87691797  0.87691797  0.87691797  1
  Al  Al0  1  0.00201490  0.49920826  0.49920826  1
  Al  Al1  1  0.49920826  0.49920826  0.00201490  1
  Al  Al2  1  0.49920826  0.00201490  0.49920826  1
  Cu  Cu0  1  0.50105373  0.50105373  0.50105373  1
  Mo  Mo0  1  0.12159588  0.12159588  0.12159588  1
loop_
_geom_bond_atom_site_label_1
_geom_bond_atom_site_label_2
_geom_bond_distance
_geom_bond_site_symmetry_2
Hf0 Mo0 2.912062 1_666
Hf0 Mo0 3.140712 1_566
Hf0 Mo0 3.140713 1_665
Hf0 Mo0 3.140713 1_656
Al0 Cu0 2.470657 1_455
Al0 Cu0 2.478095 1_555
Al0 Al1 2.547467 1_555
Al0 Al2 2.547467 1_555
Al0 Al1 2.576228 1_456
Al0 Al2 2.576228 1_465
Al0 Hf0 2.909538 1_455
Al0 Mo0 2.919300 1_555
Al0 Mo0 2.941518 1_565
Al0 Mo0 2.941519 1_556
Al0 Hf0 2.951950 1_445
Al0 Hf0 2.951950 1_454
Al1 Cu0 2.470658 1_554
Al1 Cu0 2.478095 1_555
Al1 Al2 2.547467 1_555
Al1 Al2 2.576228 1_564
Al1 Hf0 2.909537 1_554
Al1 Mo0 2.919300 1_555
Al1 Mo0 2.941519 1_655
Al1 Mo0 2.941519 1_565
Al1 Hf0 2.951950 1_454
Al1 Hf0 2.951950 1_544
Al2 Cu0 2.470658 1_545
Al2 Cu0 2.478095 1_555
Al2 Hf0 2.909537 1_545
Al2 Mo0 2.919300 1_555
Al2 Mo0 2.941518 1_655
Al2 Mo0 2.941519 1_556
Al2 Hf0 2.951949 1_445
Al2 Hf0 2.951950 1_544
Cu0 Hf0 3.001162 1_554
Cu0 Hf0 3.001162 1_455
Cu0 Hf0 3.001163 1_545
Cu0 Mo0 3.008671 1_556
Cu0 Mo0 3.008671 1_655
Cu0 Mo0 3.008672 1_565
