# generated using pymatgen
data_KP4RhO12
_symmetry_space_group_name_H-M   'P 1'
_cell_length_a   10.48743899
_cell_length_b   10.48743871
_cell_length_c   5.11386851
_cell_angle_alpha   80.56307428
_cell_angle_beta   80.56307352
_cell_angle_gamma   71.78078755
_symmetry_Int_Tables_number   1
_chemical_formula_structural   KP4RhO12
_chemical_formula_sum   'K2 P8 Rh2 O24'
_cell_volume   523.20226201
_cell_formula_units_Z   2
loop_
 _symmetry_equiv_pos_site_id
 _symmetry_equiv_pos_as_xyz
  1  'x, y, z'
loop_
 _atom_site_type_symbol
 _atom_site_label
 _atom_site_symmetry_multiplicity
 _atom_site_fract_x
 _atom_site_fract_y
 _atom_site_fract_z
 _atom_site_occupancy
  K  K0  1  0.40802412  0.40802412  0.74058818  1
  K  K1  1  0.59197588  0.59197588  0.25941182  1
  P  P0  1  0.79811624  0.35584449  0.83675733  1
  P  P1  1  0.07039294  0.30921329  0.52988736  1
  P  P2  1  0.30921329  0.07039294  0.52988736  1
  P  P3  1  0.64415551  0.20188376  0.16324267  1
  P  P4  1  0.35584449  0.79811624  0.83675733  1
  P  P5  1  0.69078671  0.92960706  0.47011264  1
  P  P6  1  0.92960706  0.69078671  0.47011264  1
  P  P7  1  0.20188376  0.64415551  0.16324267  1
  Rh  Rh0  1  0.50000000  0.00000000  0.00000000  1
  Rh  Rh1  1  0.00000000  0.50000000  0.00000000  1
  O  O0  1  0.42709290  0.84178225  0.02371604  1
  O  O1  1  0.40750280  0.10135701  0.67500782  1
  O  O2  1  0.42963535  0.67720313  0.70709010  1
  O  O3  1  0.15821775  0.57290710  0.97628396  1
  O  O4  1  0.57290710  0.15821775  0.97628396  1
  O  O5  1  0.90556515  0.66792070  0.76798684  1
  O  O6  1  0.21583118  0.78416882  1.00000000  1
  O  O7  1  0.57036465  0.32279687  0.29290990  1
  O  O8  1  0.59249720  0.89864299  0.32499218  1
  O  O9  1  0.70494203  0.07484688  0.37511066  1
  O  O10  1  0.32279687  0.57036465  0.29290990  1
  O  O11  1  0.89864299  0.59249720  0.32499218  1
  O  O12  1  0.84178225  0.42709290  0.02371604  1
  O  O13  1  0.07484688  0.70494203  0.37511066  1
  O  O14  1  0.16010537  0.16010537  0.61719105  1
  O  O15  1  0.10135701  0.40750280  0.67500782  1
  O  O16  1  0.67720313  0.42963535  0.70709010  1
  O  O17  1  0.29505797  0.92515312  0.62488934  1
  O  O18  1  0.78416882  0.21583118  0.00000000  1
  O  O19  1  0.33207930  0.09443485  0.23201316  1
  O  O20  1  0.66792070  0.90556515  0.76798684  1
  O  O21  1  0.83989463  0.83989463  0.38280895  1
  O  O22  1  0.92515312  0.29505797  0.62488934  1
  O  O23  1  0.09443485  0.33207930  0.23201316  1
loop_
_geom_bond_atom_site_label_1
_geom_bond_atom_site_label_2
_geom_bond_distance
_geom_bond_site_symmetry_2
K0 O7 2.716623 1_555
K0 O10 2.716623 1_555
K0 O4 2.849848 1_555
K0 O3 2.849848 1_555
K0 O2 2.877291 1_555
K0 O16 2.877292 1_555
K1 O2 2.716623 1_555
K1 O16 2.716623 1_555
K1 O0 2.849848 1_555
K1 O12 2.849848 1_555
K1 O7 2.877291 1_555
K1 O10 2.877292 1_555
O0 P4 1.507961 1_554
O0 Rh0 2.012348 1_565
O1 P2 1.502652 1_555
O1 Rh0 2.034119 1_556
O2 P4 1.463016 1_555
O3 P7 1.507961 1_556
O3 Rh1 2.012348 1_556
O4 P3 1.507961 1_556
O4 Rh0 2.012348 1_556
O5 P6 1.494511 1_555
O5 Rh1 2.024713 1_656
O6 P7 1.602100 1_556
O6 P4 1.602100 1_555
O7 P3 1.463016 1_555
O8 P5 1.502652 1_555
O8 Rh0 2.034119 1_565
O9 P5 1.566290 1_545
O9 P3 1.605412 1_555
O10 P7 1.463016 1_555
O11 P6 1.502652 1_555
O11 Rh1 2.034119 1_655
O12 P0 1.507961 1_554
O12 Rh1 2.012348 1_655
O13 P6 1.566290 1_455
O13 P7 1.605412 1_555
O14 P1 1.587037 1_555
O14 P2 1.587037 1_555
O15 P1 1.502652 1_555
O15 Rh1 2.034119 1_556
O16 P0 1.463016 1_555
O17 P2 1.566290 1_565
O17 P4 1.605412 1_555
O18 P0 1.602100 1_554
O18 P3 1.602100 1_555
O19 P2 1.494511 1_555
O19 Rh0 2.024713 1_555
O20 P5 1.494511 1_555
O20 Rh0 2.024713 1_566
O21 P6 1.587037 1_555
O21 P5 1.587037 1_555
O22 P1 1.566290 1_655
O22 P0 1.605412 1_555
O23 P1 1.494511 1_555
O23 Rh1 2.024713 1_555
