# generated using pymatgen
data_K6AlTe4Br
_symmetry_space_group_name_H-M   'P 1'
_cell_length_a   11.21281137
_cell_length_b   11.21281230
_cell_length_c   8.19817827
_cell_angle_alpha   90.00000000
_cell_angle_beta   90.00000000
_cell_angle_gamma   120.00000296
_symmetry_Int_Tables_number   1
_chemical_formula_structural   K6AlTe4Br
_chemical_formula_sum   'K12 Al2 Te8 Br2'
_cell_volume   892.64144107
_cell_formula_units_Z   2
loop_
 _symmetry_equiv_pos_site_id
 _symmetry_equiv_pos_as_xyz
  1  'x, y, z'
loop_
 _atom_site_type_symbol
 _atom_site_label
 _atom_site_symmetry_multiplicity
 _atom_site_fract_x
 _atom_site_fract_y
 _atom_site_fract_z
 _atom_site_occupancy
  K  K0  1  0.13060340  0.86939660  0.51546683  1
  K  K1  1  0.73879120  0.86939660  0.51546683  1
  K  K2  1  0.95296306  0.47648153  0.31934056  1
  K  K3  1  0.52351847  0.47648153  0.31934056  1
  K  K4  1  0.86939660  0.73879120  0.01546683  1
  K  K5  1  0.26120880  0.13060340  0.01546683  1
  K  K6  1  0.52351847  0.04703694  0.31934056  1
  K  K7  1  0.13060340  0.26120880  0.51546683  1
  K  K8  1  0.86939660  0.13060340  0.01546683  1
  K  K9  1  0.04703694  0.52351847  0.81934056  1
  K  K10  1  0.47648153  0.95296306  0.81934056  1
  K  K11  1  0.47648153  0.52351847  0.81934056  1
  Al  Al0  1  0.66666700  0.33333300  0.70785915  1
  Al  Al1  1  0.33333300  0.66666700  0.20785915  1
  Te  Te0  1  0.40955788  0.20477894  0.60702695  1
  Te  Te1  1  0.59044212  0.79522106  0.10702695  1
  Te  Te2  1  0.66666700  0.33333300  0.03244208  1
  Te  Te3  1  0.79522106  0.59044212  0.60702695  1
  Te  Te4  1  0.20477894  0.40955788  0.10702695  1
  Te  Te5  1  0.33333300  0.66666700  0.53244208  1
  Te  Te6  1  0.20477894  0.79522106  0.10702695  1
  Te  Te7  1  0.79522106  0.20477894  0.60702695  1
  Br  Br0  1  0.00000000  0.00000000  0.27479877  1
  Br  Br1  1  0.00000000  0.00000000  0.77479877  1
loop_
_geom_bond_atom_site_label_1
_geom_bond_atom_site_label_2
_geom_bond_distance
_geom_bond_site_symmetry_2
K0 Te3 3.567401 1_455
K0 Te0 3.567401 1_565
K0 Te6 3.645197 1_555
K0 Te5 3.939703 1_555
K1 Te7 3.567393 1_565
K1 Te3 3.567415 1_555
K1 Te1 3.645189 1_555
K1 Te5 3.939693 1_555
K2 Te7 3.547378 1_555
K2 Te3 3.547378 1_555
K2 Te2 3.641576 1_555
K2 Te6 3.699197 1_655
K2 Te4 3.699197 1_655
K3 Te3 3.547378 1_555
K3 Te0 3.547378 1_555
K3 Te2 3.641583 1_555
K3 Te4 3.699197 1_555
K3 Te1 3.699198 1_555
K4 Te6 3.567393 1_655
K4 Te1 3.567414 1_555
K4 Te3 3.645189 1_554
K4 Te2 3.939693 1_555
K5 Te6 3.567393 1_545
K5 Te4 3.567415 1_555
K5 Te0 3.645189 1_554
K5 Te2 3.939693 1_555
K6 Te7 3.547378 1_555
K6 Te0 3.547378 1_555
K6 Te2 3.641576 1_555
K6 Te6 3.699197 1_545
K6 Te1 3.699198 1_545
K7 Te7 3.567393 1_455
K7 Te0 3.567414 1_555
K7 Te4 3.645189 1_555
K7 Te5 3.939693 1_555
K8 Te4 3.567401 1_655
K8 Te1 3.567401 1_545
K8 Te7 3.645197 1_554
K8 Te2 3.939703 1_555
K9 Te6 3.547378 1_556
K9 Te4 3.547378 1_556
K9 Te5 3.641576 1_555
K9 Te7 3.699197 1_455
K9 Te3 3.699197 1_455
K10 Te6 3.547378 1_556
K10 Te1 3.547378 1_556
K10 Te5 3.641576 1_555
K10 Te7 3.699197 1_565
K10 Te0 3.699198 1_565
K11 Te4 3.547378 1_556
K11 Te1 3.547378 1_556
K11 Te5 3.641583 1_555
K11 Te3 3.699197 1_555
K11 Te0 3.699198 1_555
Al0 Te7 2.629960 1_555
Al0 Te0 2.629969 1_555
Al0 Te3 2.629969 1_555
Al0 Te2 2.660989 1_556
Al1 Te6 2.629960 1_555
Al1 Te1 2.629969 1_555
Al1 Te4 2.629969 1_555
Al1 Te5 2.660989 1_555
Br0 K0 3.213497 1_545
Br0 K1 3.213512 1_445
Br0 K7 3.213512 1_555
Br0 K8 3.309647 1_455
Br0 K5 3.309662 1_555
Br0 K4 3.309662 1_445
Br1 K8 3.213497 1_456
Br1 K5 3.213512 1_556
Br1 K4 3.213512 1_446
Br1 K0 3.309647 1_545
Br1 K1 3.309662 1_445
Br1 K7 3.309662 1_555
