# generated using pymatgen
data_K3LiSn3Se8
_symmetry_space_group_name_H-M   'P 1'
_cell_length_a   8.22484316
_cell_length_b   8.22484316
_cell_length_c   13.40027255
_cell_angle_alpha   90.00000000
_cell_angle_beta   90.00000000
_cell_angle_gamma   90.00000000
_symmetry_Int_Tables_number   1
_chemical_formula_structural   K3LiSn3Se8
_chemical_formula_sum   'K6 Li2 Sn6 Se16'
_cell_volume   906.50223953
_cell_formula_units_Z   2
loop_
 _symmetry_equiv_pos_site_id
 _symmetry_equiv_pos_as_xyz
  1  'x, y, z'
loop_
 _atom_site_type_symbol
 _atom_site_label
 _atom_site_symmetry_multiplicity
 _atom_site_fract_x
 _atom_site_fract_y
 _atom_site_fract_z
 _atom_site_occupancy
  K  K0  1  0.50000000  0.50000000  0.27176557  1
  K  K1  1  0.00000000  0.00000000  0.72823443  1
  K  K2  1  0.00000000  0.00000000  0.00000000  1
  K  K3  1  0.50000000  0.50000000  0.72823443  1
  K  K4  1  0.00000000  0.00000000  0.27176557  1
  K  K5  1  0.50000000  0.50000000  0.00000000  1
  Li  Li0  1  0.00000000  0.50000000  0.00000000  1
  Li  Li1  1  0.50000000  0.00000000  0.00000000  1
  Sn  Sn0  1  0.00000000  0.50000000  0.23765000  1
  Sn  Sn1  1  0.00000000  0.50000000  0.76235000  1
  Sn  Sn2  1  0.50000000  0.00000000  0.50000000  1
  Sn  Sn3  1  0.50000000  0.00000000  0.23765000  1
  Sn  Sn4  1  0.50000000  0.00000000  0.76235000  1
  Sn  Sn5  1  0.00000000  0.50000000  0.50000000  1
  Se  Se0  1  0.32388416  0.17611584  0.86748765  1
  Se  Se1  1  0.33600995  0.16399005  0.37378133  1
  Se  Se2  1  0.82388416  0.32388416  0.86748765  1
  Se  Se3  1  0.82388416  0.67611584  0.13251235  1
  Se  Se4  1  0.33600995  0.83600995  0.62621867  1
  Se  Se5  1  0.32388416  0.82388416  0.13251235  1
  Se  Se6  1  0.66399005  0.16399005  0.62621867  1
  Se  Se7  1  0.16399005  0.33600995  0.62621867  1
  Se  Se8  1  0.83600995  0.33600995  0.37378133  1
  Se  Se9  1  0.66399005  0.83600995  0.37378133  1
  Se  Se10  1  0.17611584  0.32388416  0.13251235  1
  Se  Se11  1  0.17611584  0.67611584  0.86748765  1
  Se  Se12  1  0.83600995  0.66399005  0.62621867  1
  Se  Se13  1  0.67611584  0.82388416  0.86748765  1
  Se  Se14  1  0.67611584  0.17611584  0.13251235  1
  Se  Se15  1  0.16399005  0.66399005  0.37378133  1
loop_
_geom_bond_atom_site_label_1
_geom_bond_atom_site_label_2
_geom_bond_distance
_geom_bond_site_symmetry_2
K0 Se9 3.365365 1_555
K0 Se8 3.365365 1_555
K0 Se15 3.365365 1_555
K0 Se1 3.365365 1_555
K0 Se3 3.560427 1_555
K0 Se5 3.560427 1_555
K0 Se14 3.560427 1_555
K0 Se10 3.560427 1_555
K1 Se7 3.365365 1_555
K1 Se4 3.365365 1_545
K1 Se6 3.365365 1_455
K1 Se12 3.365365 1_445
K1 Se0 3.560427 1_555
K1 Se2 3.560427 1_455
K1 Se11 3.560427 1_545
K1 Se13 3.560427 1_445
K2 Se0 3.513927 1_554
K2 Se2 3.513927 1_454
K2 Se11 3.513927 1_544
K2 Se13 3.513927 1_444
K2 Se10 3.513927 1_555
K2 Se5 3.513927 1_545
K2 Se14 3.513927 1_455
K2 Se3 3.513927 1_445
K3 Se12 3.365365 1_555
K3 Se4 3.365365 1_555
K3 Se6 3.365365 1_555
K3 Se7 3.365365 1_555
K3 Se13 3.560427 1_555
K3 Se2 3.560427 1_555
K3 Se11 3.560427 1_555
K3 Se0 3.560427 1_555
K4 Se1 3.365365 1_555
K4 Se8 3.365365 1_455
K4 Se15 3.365365 1_545
K4 Se9 3.365365 1_445
K4 Se10 3.560427 1_555
K4 Se5 3.560427 1_545
K4 Se14 3.560427 1_455
K4 Se3 3.560427 1_445
K5 Se13 3.513927 1_554
K5 Se2 3.513927 1_554
K5 Se11 3.513927 1_554
K5 Se0 3.513927 1_554
K5 Se3 3.513927 1_555
K5 Se5 3.513927 1_555
K5 Se14 3.513927 1_555
K5 Se10 3.513927 1_555
Li0 Se11 2.711008 1_554
Li0 Se2 2.711008 1_454
Li0 Se10 2.711008 1_555
Li0 Se3 2.711008 1_455
Li1 Se13 2.711008 1_544
Li1 Se0 2.711008 1_554
Li1 Se14 2.711008 1_555
Li1 Se5 2.711008 1_545
Se0 Sn4 2.486237 1_555
Se1 Sn2 2.549352 1_555
Se1 Sn3 2.639352 1_555
Se2 Sn1 2.486237 1_655
Se3 Sn0 2.486237 1_655
Se4 Sn2 2.549352 1_565
Se4 Sn4 2.639352 1_565
Se5 Sn3 2.486237 1_565
Se6 Sn2 2.549352 1_555
Se6 Sn4 2.639352 1_555
Se7 Sn5 2.549352 1_555
Se7 Sn1 2.639352 1_555
Se8 Sn5 2.549352 1_655
Se8 Sn0 2.639352 1_655
Se9 Sn2 2.549352 1_565
Se9 Sn3 2.639352 1_565
Se10 Sn0 2.486237 1_555
Se11 Sn1 2.486237 1_555
Se12 Sn5 2.549352 1_655
Se12 Sn1 2.639352 1_655
Se13 Sn4 2.486237 1_565
Se14 Sn3 2.486237 1_555
Se15 Sn5 2.549352 1_555
Se15 Sn0 2.639352 1_555
