# generated using pymatgen
data_Ba4Zn2TeWO12
_symmetry_space_group_name_H-M   'P 1'
_cell_length_a   5.77546975
_cell_length_b   8.14369225
_cell_length_c   11.55217307
_cell_angle_alpha   90.00000000
_cell_angle_beta   90.00000000
_cell_angle_gamma   90.00000000
_symmetry_Int_Tables_number   1
_chemical_formula_structural   Ba4Zn2TeWO12
_chemical_formula_sum   'Ba8 Zn4 Te2 W2 O24'
_cell_volume   543.34084458
_cell_formula_units_Z   2
loop_
 _symmetry_equiv_pos_site_id
 _symmetry_equiv_pos_as_xyz
  1  'x, y, z'
loop_
 _atom_site_type_symbol
 _atom_site_label
 _atom_site_symmetry_multiplicity
 _atom_site_fract_x
 _atom_site_fract_y
 _atom_site_fract_z
 _atom_site_occupancy
  Ba  Ba0  1  0.99952652  0.25014754  0.12499745  1
  Ba  Ba1  1  0.00047348  0.74985246  0.62499745  1
  Ba  Ba2  1  0.50006275  0.74982690  0.87499389  1
  Ba  Ba3  1  0.49993725  0.25017310  0.37499389  1
  Ba  Ba4  1  0.50006275  0.25017310  0.87499389  1
  Ba  Ba5  1  0.49993725  0.74982690  0.37499389  1
  Ba  Ba6  1  0.99952652  0.74985246  0.12499745  1
  Ba  Ba7  1  0.00047348  0.25014754  0.62499745  1
  Zn  Zn0  1  0.99956032  0.50000000  0.37504463  1
  Zn  Zn1  1  0.00043968  0.50000000  0.87504463  1
  Zn  Zn2  1  0.50065295  0.00000000  0.62493806  1
  Zn  Zn3  1  0.49934705  0.00000000  0.12493806  1
  Te  Te0  1  0.99994732  0.00000000  0.87500009  1
  Te  Te1  1  0.00005268  0.00000000  0.37500009  1
  W  W0  1  0.49969354  0.50000000  0.12503506  1
  W  W1  1  0.50030646  0.50000000  0.62503506  1
  O  O0  1  0.49978726  0.73852515  0.12503518  1
  O  O1  1  0.50021274  0.26147485  0.62503518  1
  O  O2  1  0.99983201  0.23759222  0.87497790  1
  O  O3  1  0.00016799  0.76240778  0.37497790  1
  O  O4  1  0.99983201  0.76240778  0.87497790  1
  O  O5  1  0.00016799  0.23759222  0.37497790  1
  O  O6  1  0.49978726  0.26147485  0.12503518  1
  O  O7  1  0.50021274  0.73852515  0.62503518  1
  O  O8  1  0.26270801  0.50000000  0.00633608  1
  O  O9  1  0.73729199  0.50000000  0.50633608  1
  O  O10  1  0.23707305  0.00000000  0.99374674  1
  O  O11  1  0.76292695  0.00000000  0.49374674  1
  O  O12  1  0.26230179  0.50000000  0.24347695  1
  O  O13  1  0.73769821  0.50000000  0.74347695  1
  O  O14  1  0.23753320  0.00000000  0.75641182  1
  O  O15  1  0.76246680  0.00000000  0.25641182  1
  O  O16  1  0.73669693  0.50000000  0.24366070  1
  O  O17  1  0.26330307  0.50000000  0.74366070  1
  O  O18  1  0.76273714  0.00000000  0.75623244  1
  O  O19  1  0.23726286  0.00000000  0.25623244  1
  O  O20  1  0.73701599  0.50000000  0.00650353  1
  O  O21  1  0.26298401  0.50000000  0.50650353  1
  O  O22  1  0.76237049  0.00000000  0.99360407  1
  O  O23  1  0.23762951  0.00000000  0.49360407  1
loop_
_geom_bond_atom_site_label_1
_geom_bond_atom_site_label_2
_geom_bond_distance
_geom_bond_site_symmetry_2
Ba0 O20 2.883141 1_555
Ba0 O12 2.883866 1_655
Ba0 O16 2.885039 1_555
Ba0 O15 2.886016 1_555
Ba0 O8 2.886099 1_655
Ba0 O22 2.886153 1_554
Ba0 O10 2.886357 1_654
Ba0 O19 2.886783 1_655
Ba0 O6 2.887703 1_555
Ba0 O5 2.889629 1_655
Ba0 O2 2.890079 1_554
Ba0 O6 2.890713 1_655
Ba1 O21 2.883141 1_555
Ba1 O13 2.883866 1_455
Ba1 O17 2.885039 1_555
Ba1 O14 2.886016 1_565
Ba1 O9 2.886099 1_455
Ba1 O23 2.886153 1_565
Ba1 O11 2.886357 1_465
Ba1 O18 2.886783 1_465
Ba1 O7 2.887703 1_555
Ba1 O4 2.889629 1_455
Ba1 O3 2.890079 1_555
Ba1 O7 2.890713 1_455
Ba2 O17 2.882858 1_555
Ba2 O20 2.884461 1_556
Ba2 O8 2.884544 1_556
Ba2 O22 2.885006 1_565
Ba2 O14 2.885525 1_565
Ba2 O13 2.886377 1_555
Ba2 O18 2.886949 1_565
Ba2 O10 2.887859 1_565
Ba2 O4 2.888220 1_555
Ba2 O7 2.889033 1_555
Ba2 O0 2.889987 1_556
Ba2 O4 2.890884 1_455
Ba3 O16 2.882858 1_555
Ba3 O21 2.884461 1_555
Ba3 O9 2.884544 1_555
Ba3 O23 2.885006 1_555
Ba3 O15 2.885525 1_555
Ba3 O12 2.886377 1_555
Ba3 O19 2.886949 1_555
Ba3 O11 2.887859 1_555
Ba3 O5 2.888220 1_555
Ba3 O6 2.889033 1_555
Ba3 O1 2.889987 1_555
Ba3 O5 2.890884 1_655
Ba4 O17 2.882858 1_555
Ba4 O20 2.884461 1_556
Ba4 O8 2.884544 1_556
Ba4 O22 2.885006 1_555
Ba4 O14 2.885525 1_555
Ba4 O13 2.886377 1_555
Ba4 O18 2.886949 1_555
Ba4 O10 2.887859 1_555
Ba4 O2 2.888220 1_555
Ba4 O1 2.889033 1_555
Ba4 O6 2.889987 1_556
Ba4 O2 2.890884 1_455
Ba5 O16 2.882858 1_555
Ba5 O21 2.884461 1_555
Ba5 O9 2.884544 1_555
Ba5 O23 2.885006 1_565
Ba5 O15 2.885525 1_565
Ba5 O12 2.886377 1_555
Ba5 O19 2.886949 1_565
Ba5 O11 2.887859 1_565
Ba5 O3 2.888220 1_555
Ba5 O0 2.889033 1_555
Ba5 O7 2.889987 1_555
Ba5 O3 2.890884 1_655
Ba6 O20 2.883141 1_555
Ba6 O12 2.883866 1_655
Ba6 O16 2.885039 1_555
Ba6 O15 2.886016 1_565
Ba6 O8 2.886099 1_655
Ba6 O22 2.886153 1_564
Ba6 O10 2.886357 1_664
Ba6 O19 2.886783 1_665
Ba6 O0 2.887703 1_555
Ba6 O3 2.889629 1_655
Ba6 O4 2.890079 1_554
Ba6 O0 2.890713 1_655
Ba7 O21 2.883141 1_555
Ba7 O13 2.883866 1_455
Ba7 O17 2.885039 1_555
Ba7 O14 2.886016 1_555
Ba7 O9 2.886099 1_455
Ba7 O23 2.886153 1_555
Ba7 O11 2.886357 1_455
Ba7 O18 2.886783 1_455
Ba7 O1 2.887703 1_555
Ba7 O2 2.889629 1_455
Ba7 O5 2.890079 1_555
Ba7 O1 2.890713 1_455
O0 W0 1.942476 1_555
O0 Zn3 2.129373 1_565
O1 W1 1.942476 1_555
O1 Zn2 2.129373 1_555
O2 Te0 1.934878 1_555
O2 Zn1 2.136971 1_655
O3 Te1 1.934878 1_565
O3 Zn0 2.136971 1_455
O4 Te0 1.934878 1_565
O4 Zn1 2.136971 1_655
O5 Te1 1.934878 1_555
O5 Zn0 2.136971 1_455
O6 W0 1.942476 1_555
O6 Zn3 2.129373 1_555
O7 W1 1.942476 1_555
O7 Zn2 2.129373 1_565
O8 W0 1.937427 1_555
O8 Zn1 2.143541 1_554
O9 W1 1.937427 1_555
O9 Zn0 2.143541 1_555
O10 Te0 1.938388 1_455
O10 Zn3 2.142746 1_556
O11 Te1 1.938388 1_655
O11 Zn2 2.142746 1_555
O12 W0 1.936986 1_555
O12 Zn0 2.147730 1_455
O13 W1 1.936986 1_555
O13 Zn1 2.147730 1_655
O14 Te0 1.938974 1_455
O14 Zn2 2.148507 1_555
O15 Te1 1.938974 1_655
O15 Zn3 2.148507 1_555
O16 W0 1.936900 1_555
O16 Zn0 2.146726 1_555
O17 W1 1.936900 1_555
O17 Zn1 2.146726 1_555
O18 Te0 1.938905 1_555
O18 Zn2 2.142814 1_555
O19 Te1 1.938905 1_555
O19 Zn3 2.142814 1_555
O20 W0 1.937434 1_555
O20 Zn1 2.149628 1_654
O21 W1 1.937434 1_555
O21 Zn0 2.149628 1_455
O22 Te0 1.939065 1_555
O22 Zn3 2.146972 1_556
O23 Te1 1.939065 1_555
O23 Zn2 2.146972 1_555
