# generated using pymatgen
data_YB2Ir3
_symmetry_space_group_name_H-M   'P 1'
_cell_length_a   6.30051229
_cell_length_b   10.87383572
_cell_length_c   10.87406124
_cell_angle_alpha   120.00128953
_cell_angle_beta   90.00003024
_cell_angle_gamma   89.99992631
_symmetry_Int_Tables_number   1
_chemical_formula_structural   YB2Ir3
_chemical_formula_sum   'Y8 B16 Ir24'
_cell_volume   645.17182500
_cell_formula_units_Z   8
loop_
 _symmetry_equiv_pos_site_id
 _symmetry_equiv_pos_as_xyz
  1  'x, y, z'
loop_
 _atom_site_type_symbol
 _atom_site_label
 _atom_site_symmetry_multiplicity
 _atom_site_fract_x
 _atom_site_fract_y
 _atom_site_fract_z
 _atom_site_occupancy
  Y  Y0_0  1  0.49999648  0.00000090  0.00000044  1
  Y  Y0_1  1  0.49999648  0.00000089  0.50000043  1
  Y  Y0_2  1  0.49999648  0.50000090  0.00000043  1
  Y  Y0_3  1  0.49999648  0.50000090  0.50000044  1
  Y  Y0_4  1  0.99999648  0.00000090  0.00000044  1
  Y  Y0_5  1  0.99999648  0.00000089  0.50000043  1
  Y  Y0_6  1  0.99999648  0.50000090  0.00000043  1
  Y  Y0_7  1  0.99999648  0.50000090  0.50000044  1
  B  B0_0  1  0.49999865  0.16667153  0.33333736  1
  B  B0_1  1  0.49999865  0.16667153  0.83333736  1
  B  B0_2  1  0.49999864  0.66667153  0.33333736  1
  B  B0_3  1  0.49999865  0.66667153  0.83333736  1
  B  B0_4  1  0.99999864  0.16667153  0.33333736  1
  B  B0_5  1  0.99999864  0.16667153  0.83333736  1
  B  B0_6  1  0.99999865  0.66667153  0.33333736  1
  B  B0_7  1  0.99999865  0.66667153  0.83333736  1
  B  B1_0  1  0.99999876  0.33332657  0.16666216  1
  B  B1_1  1  0.99999876  0.33332657  0.66666216  1
  B  B1_2  1  0.99999876  0.83332657  0.16666216  1
  B  B1_3  1  0.99999876  0.83332657  0.66666216  1
  B  B1_4  1  0.49999876  0.33332657  0.16666216  1
  B  B1_5  1  0.49999876  0.33332657  0.66666216  1
  B  B1_6  1  0.49999876  0.83332657  0.16666216  1
  B  B1_7  1  0.49999876  0.83332657  0.66666216  1
  Ir  Ir0_0  1  0.25000288  0.25000030  0.00000012  1
  Ir  Ir0_1  1  0.25000287  0.25000030  0.50000012  1
  Ir  Ir0_2  1  0.25000288  0.75000030  0.00000012  1
  Ir  Ir0_3  1  0.25000288  0.75000030  0.50000012  1
  Ir  Ir0_4  1  0.75000288  0.25000030  0.00000012  1
  Ir  Ir0_5  1  0.75000288  0.25000030  0.50000012  1
  Ir  Ir0_6  1  0.75000287  0.75000030  0.00000012  1
  Ir  Ir0_7  1  0.75000287  0.75000030  0.50000012  1
  Ir  Ir1_0  1  0.25000288  0.25000088  0.25000068  1
  Ir  Ir1_1  1  0.25000288  0.25000088  0.75000068  1
  Ir  Ir1_2  1  0.25000288  0.75000088  0.25000068  1
  Ir  Ir1_3  1  0.25000288  0.75000088  0.75000068  1
  Ir  Ir1_4  1  0.75000287  0.25000088  0.25000069  1
  Ir  Ir1_5  1  0.75000287  0.25000088  0.75000068  1
  Ir  Ir1_6  1  0.75000287  0.75000088  0.25000069  1
  Ir  Ir1_7  1  0.75000287  0.75000088  0.75000068  1
  Ir  Ir2_0  1  0.25000036  0.00000032  0.24999974  1
  Ir  Ir2_1  1  0.25000036  0.00000032  0.74999973  1
  Ir  Ir2_2  1  0.25000036  0.50000033  0.24999974  1
  Ir  Ir2_3  1  0.25000036  0.50000033  0.74999974  1
  Ir  Ir2_4  1  0.75000036  0.00000032  0.24999974  1
  Ir  Ir2_5  1  0.75000036  0.00000033  0.74999974  1
  Ir  Ir2_6  1  0.75000036  0.50000033  0.24999974  1
  Ir  Ir2_7  1  0.75000036  0.50000033  0.74999974  1
loop_
_geom_bond_atom_site_label_1
_geom_bond_atom_site_label_2
_geom_bond_distance
_geom_bond_site_symmetry_2
Y0_0 Y0_4 3.150256 1_455
Y0_0 Y0_4 3.150256 1_555
Y0_1 Y0_5 3.150256 1_555
Y0_1 Y0_5 3.150256 1_455
Y0_2 Y0_6 3.150256 1_555
Y0_2 Y0_6 3.150256 1_455
Y0_3 Y0_7 3.150256 1_455
Y0_3 Y0_7 3.150256 1_555
B0_0 Ir0_1 2.223557 1_555
B0_0 Ir1_0 2.223588 1_555
B0_0 Ir0_5 2.223595 1_555
B0_0 Ir2_0 2.223603 1_555
B0_0 Ir2_4 2.223616 1_555
B0_0 Ir1_4 2.223628 1_555
B0_0 Y0_3 3.138928 1_555
B0_0 Y0_1 3.139062 1_555
B0_0 Y0_0 3.139064 1_555
B0_1 Ir0_0 2.223557 1_556
B0_1 Ir1_1 2.223588 1_555
B0_1 Ir0_4 2.223595 1_556
B0_1 Ir2_1 2.223603 1_555
B0_1 Ir2_5 2.223616 1_555
B0_1 Ir1_5 2.223628 1_555
B0_1 Y0_2 3.138928 1_556
B0_1 Y0_0 3.139062 1_556
B0_1 Y0_1 3.139064 1_555
B0_2 Ir0_3 2.223557 1_555
B0_2 Ir1_2 2.223588 1_555
B0_2 Ir0_7 2.223595 1_555
B0_2 Ir2_2 2.223603 1_555
B0_2 Ir2_6 2.223616 1_555
B0_2 Ir1_6 2.223628 1_555
B0_2 Y0_1 3.138928 1_565
B0_2 Y0_3 3.139062 1_555
B0_2 Y0_2 3.139064 1_555
B0_3 Ir0_2 2.223557 1_556
B0_3 Ir1_3 2.223588 1_555
B0_3 Ir0_6 2.223595 1_556
B0_3 Ir2_3 2.223603 1_555
B0_3 Ir2_7 2.223616 1_555
B0_3 Ir1_7 2.223628 1_555
B0_3 Y0_0 3.138928 1_566
B0_3 Y0_2 3.139062 1_556
B0_3 Y0_3 3.139064 1_555
B0_4 Ir0_5 2.223557 1_555
B0_4 Ir1_4 2.223588 1_555
B0_4 Ir0_1 2.223595 1_655
B0_4 Ir2_4 2.223603 1_555
B0_4 Ir2_0 2.223616 1_655
B0_4 Ir1_0 2.223628 1_655
B0_4 Y0_7 3.138928 1_555
B0_4 Y0_5 3.139062 1_555
B0_4 Y0_4 3.139064 1_555
B0_5 Ir0_4 2.223557 1_556
B0_5 Ir1_5 2.223588 1_555
B0_5 Ir0_0 2.223595 1_656
B0_5 Ir2_5 2.223603 1_555
B0_5 Ir2_1 2.223616 1_655
B0_5 Ir1_1 2.223628 1_655
B0_5 Y0_6 3.138928 1_556
B0_5 Y0_4 3.139062 1_556
B0_5 Y0_5 3.139064 1_555
B0_6 Ir0_7 2.223557 1_555
B0_6 Ir1_6 2.223588 1_555
B0_6 Ir0_3 2.223595 1_655
B0_6 Ir2_6 2.223603 1_555
B0_6 Ir2_2 2.223616 1_655
B0_6 Ir1_2 2.223628 1_655
B0_6 Y0_5 3.138928 1_565
B0_6 Y0_7 3.139062 1_555
B0_6 Y0_6 3.139064 1_555
B0_7 Ir0_6 2.223557 1_556
B0_7 Ir1_7 2.223588 1_555
B0_7 Ir0_2 2.223595 1_656
B0_7 Ir2_7 2.223603 1_555
B0_7 Ir2_3 2.223616 1_655
B0_7 Ir1_3 2.223628 1_655
B0_7 Y0_4 3.138928 1_566
B0_7 Y0_6 3.139062 1_556
B0_7 Y0_7 3.139064 1_555
B1_0 Ir0_4 2.223553 1_555
B1_0 Ir1_4 2.223579 1_555
B1_0 Ir0_0 2.223590 1_655
B1_0 Ir1_0 2.223613 1_655
B1_0 Ir2_6 2.223618 1_555
B1_0 Ir2_2 2.223635 1_655
B1_0 Y0_4 3.138893 1_555
B1_0 Y0_7 3.139077 1_555
B1_0 Y0_6 3.139085 1_555
B1_1 Ir0_5 2.223553 1_555
B1_1 Ir1_5 2.223579 1_555
B1_1 Ir0_1 2.223590 1_655
B1_1 Ir1_1 2.223613 1_655
B1_1 Ir2_7 2.223618 1_555
B1_1 Ir2_3 2.223635 1_655
B1_1 Y0_5 3.138893 1_555
B1_1 Y0_6 3.139077 1_556
B1_1 Y0_7 3.139085 1_555
B1_2 Ir0_6 2.223553 1_555
B1_2 Ir1_6 2.223579 1_555
B1_2 Ir0_2 2.223590 1_655
B1_2 Ir1_2 2.223613 1_655
B1_2 Ir2_4 2.223618 1_565
B1_2 Ir2_0 2.223635 1_665
B1_2 Y0_6 3.138893 1_555
B1_2 Y0_5 3.139077 1_565
B1_2 Y0_4 3.139085 1_565
B1_3 Ir0_7 2.223553 1_555
B1_3 Ir1_7 2.223579 1_555
B1_3 Ir0_3 2.223590 1_655
B1_3 Ir1_3 2.223613 1_655
B1_3 Ir2_5 2.223618 1_565
B1_3 Ir2_1 2.223635 1_665
B1_3 Y0_7 3.138893 1_555
B1_3 Y0_4 3.139077 1_566
B1_3 Y0_5 3.139085 1_565
B1_4 Ir0_0 2.223553 1_555
B1_4 Ir1_0 2.223579 1_555
B1_4 Ir0_4 2.223590 1_555
B1_4 Ir1_4 2.223613 1_555
B1_4 Ir2_2 2.223618 1_555
B1_4 Ir2_6 2.223635 1_555
B1_4 Y0_0 3.138893 1_555
B1_4 Y0_3 3.139077 1_555
B1_4 Y0_2 3.139085 1_555
B1_5 Ir0_1 2.223553 1_555
B1_5 Ir1_1 2.223579 1_555
B1_5 Ir0_5 2.223590 1_555
B1_5 Ir1_5 2.223613 1_555
B1_5 Ir2_3 2.223618 1_555
B1_5 Ir2_7 2.223635 1_555
B1_5 Y0_1 3.138893 1_555
B1_5 Y0_2 3.139077 1_556
B1_5 Y0_3 3.139085 1_555
B1_6 Ir0_2 2.223553 1_555
B1_6 Ir1_2 2.223579 1_555
B1_6 Ir0_6 2.223590 1_555
B1_6 Ir1_6 2.223613 1_555
B1_6 Ir2_0 2.223618 1_565
B1_6 Ir2_4 2.223635 1_565
B1_6 Y0_2 3.138893 1_555
B1_6 Y0_1 3.139077 1_565
B1_6 Y0_0 3.139085 1_565
B1_7 Ir0_3 2.223553 1_555
B1_7 Ir1_3 2.223579 1_555
B1_7 Ir0_7 2.223590 1_555
B1_7 Ir1_7 2.223613 1_555
B1_7 Ir2_1 2.223618 1_565
B1_7 Ir2_5 2.223635 1_565
B1_7 Y0_3 3.138893 1_555
B1_7 Y0_0 3.139077 1_566
B1_7 Y0_1 3.139085 1_565
Ir0_0 Y0_0 3.141796 1_555
Ir0_0 Y0_2 3.141808 1_555
Ir0_0 Y0_4 3.141840 1_455
Ir0_0 Y0_6 3.141845 1_455
Ir0_1 Y0_1 3.141796 1_555
Ir0_1 Y0_3 3.141808 1_555
Ir0_1 Y0_5 3.141840 1_455
Ir0_1 Y0_7 3.141845 1_455
Ir0_2 Y0_2 3.141796 1_555
Ir0_2 Y0_0 3.141808 1_565
Ir0_2 Y0_6 3.141840 1_455
Ir0_2 Y0_4 3.141845 1_465
Ir0_3 Y0_3 3.141796 1_555
Ir0_3 Y0_1 3.141808 1_565
Ir0_3 Y0_7 3.141840 1_455
Ir0_3 Y0_5 3.141845 1_465
Ir0_4 Y0_4 3.141796 1_555
Ir0_4 Y0_6 3.141808 1_555
Ir0_4 Y0_0 3.141840 1_555
Ir0_4 Y0_2 3.141845 1_555
Ir0_5 Y0_5 3.141796 1_555
Ir0_5 Y0_7 3.141808 1_555
Ir0_5 Y0_1 3.141840 1_555
Ir0_5 Y0_3 3.141845 1_555
Ir0_6 Y0_6 3.141796 1_555
Ir0_6 Y0_4 3.141808 1_565
Ir0_6 Y0_2 3.141840 1_555
Ir0_6 Y0_0 3.141845 1_565
Ir0_7 Y0_7 3.141796 1_555
Ir0_7 Y0_5 3.141808 1_565
Ir0_7 Y0_3 3.141840 1_555
Ir0_7 Y0_1 3.141845 1_565
Ir1_0 Y0_3 3.141781 1_555
Ir1_0 Y0_0 3.141781 1_555
Ir1_0 Y0_7 3.141819 1_455
Ir1_0 Y0_4 3.141823 1_455
Ir1_1 Y0_2 3.141781 1_556
Ir1_1 Y0_1 3.141781 1_555
Ir1_1 Y0_6 3.141819 1_456
Ir1_1 Y0_5 3.141823 1_455
Ir1_2 Y0_1 3.141781 1_565
Ir1_2 Y0_2 3.141781 1_555
Ir1_2 Y0_5 3.141819 1_465
Ir1_2 Y0_6 3.141823 1_455
Ir1_3 Y0_0 3.141781 1_566
Ir1_3 Y0_3 3.141781 1_555
Ir1_3 Y0_4 3.141819 1_466
Ir1_3 Y0_7 3.141823 1_455
Ir1_4 Y0_7 3.141781 1_555
Ir1_4 Y0_4 3.141781 1_555
Ir1_4 Y0_3 3.141819 1_555
Ir1_4 Y0_0 3.141823 1_555
Ir1_5 Y0_6 3.141781 1_556
Ir1_5 Y0_5 3.141781 1_555
Ir1_5 Y0_2 3.141819 1_556
Ir1_5 Y0_1 3.141823 1_555
Ir1_6 Y0_5 3.141781 1_565
Ir1_6 Y0_6 3.141781 1_555
Ir1_6 Y0_1 3.141819 1_565
Ir1_6 Y0_2 3.141823 1_555
Ir1_7 Y0_4 3.141781 1_566
Ir1_7 Y0_7 3.141781 1_555
Ir1_7 Y0_0 3.141819 1_566
Ir1_7 Y0_3 3.141823 1_555
Ir2_0 Y0_0 3.141856 1_555
Ir2_0 Y0_1 3.141862 1_555
Ir2_0 Y0_4 3.141879 1_455
Ir2_0 Y0_5 3.141888 1_455
Ir2_1 Y0_1 3.141856 1_555
Ir2_1 Y0_0 3.141862 1_556
Ir2_1 Y0_5 3.141879 1_455
Ir2_1 Y0_4 3.141888 1_456
Ir2_2 Y0_2 3.141856 1_555
Ir2_2 Y0_3 3.141862 1_555
Ir2_2 Y0_6 3.141879 1_455
Ir2_2 Y0_7 3.141888 1_455
Ir2_3 Y0_3 3.141856 1_555
Ir2_3 Y0_2 3.141862 1_556
Ir2_3 Y0_7 3.141879 1_455
Ir2_3 Y0_6 3.141888 1_456
Ir2_4 Y0_4 3.141856 1_555
Ir2_4 Y0_5 3.141862 1_555
Ir2_4 Y0_0 3.141879 1_555
Ir2_4 Y0_1 3.141888 1_555
Ir2_5 Y0_5 3.141856 1_555
Ir2_5 Y0_4 3.141862 1_556
Ir2_5 Y0_1 3.141879 1_555
Ir2_5 Y0_0 3.141888 1_556
Ir2_6 Y0_6 3.141856 1_555
Ir2_6 Y0_7 3.141862 1_555
Ir2_6 Y0_2 3.141879 1_555
Ir2_6 Y0_3 3.141888 1_555
Ir2_7 Y0_7 3.141856 1_555
Ir2_7 Y0_6 3.141862 1_556
Ir2_7 Y0_3 3.141879 1_555
Ir2_7 Y0_2 3.141888 1_556
