# generated using pymatgen
data_ScZn2Ni2Hg
_symmetry_space_group_name_H-M   'P 1'
_cell_length_a   4.94699069
_cell_length_b   4.94699146
_cell_length_c   4.94699133
_cell_angle_alpha   119.64474445
_cell_angle_beta   118.38620707
_cell_angle_gamma   91.71722988
_symmetry_Int_Tables_number   1
_chemical_formula_structural   ScZn2Ni2Hg
_chemical_formula_sum   'Sc1 Zn2 Ni2 Hg1'
_cell_volume   86.82592077
_cell_formula_units_Z   1
loop_
 _symmetry_equiv_pos_site_id
 _symmetry_equiv_pos_as_xyz
  1  'x, y, z'
loop_
 _atom_site_type_symbol
 _atom_site_label
 _atom_site_symmetry_multiplicity
 _atom_site_fract_x
 _atom_site_fract_y
 _atom_site_fract_z
 _atom_site_occupancy
  Sc  Sc0  1  0.01114902  0.01114902  0.00000000  1
  Zn  Zn0  1  0.62243116  0.87264279  0.25021264  1
  Zn  Zn1  1  0.62243116  0.37221952  0.74978736  1
  Ni  Ni0  1  0.12307189  0.37316567  0.74990723  1
  Ni  Ni1  1  0.62325844  0.37316567  0.25009277  1
  Hg  Hg0  1  0.24765834  0.74765834  0.50000000  1
loop_
_geom_bond_atom_site_label_1
_geom_bond_atom_site_label_2
_geom_bond_distance
_geom_bond_site_symmetry_2
Sc0 Zn0 2.924101 1_444
Sc0 Zn1 2.924103 1_555
Sc0 Zn0 2.924105 1_545
Sc0 Zn1 2.924107 1_454
Sc0 Zn1 2.953424 1_444
Sc0 Zn0 2.953430 1_445
Zn0 Zn1 2.484656 1_565
Zn0 Zn1 2.488876 1_554
Ni0 Zn0 2.470747 1_556
Ni0 Zn1 2.470752 1_555
Ni0 Zn1 2.476247 1_455
Ni0 Zn0 2.476252 1_445
Ni0 Ni1 2.532640 1_455
Ni0 Ni1 2.534526 1_556
Ni0 Sc0 2.797912 1_556
Ni0 Sc0 2.948140 1_566
Ni0 Sc0 2.948144 1_555
Ni1 Zn0 2.470742 1_555
Ni1 Zn1 2.470750 1_554
Ni1 Zn1 2.476249 1_555
Ni1 Zn0 2.476257 1_545
Ni1 Sc0 2.797914 1_555
Ni1 Sc0 2.948142 1_655
Ni1 Sc0 2.948142 1_666
Hg0 Zn0 2.865653 1_555
Hg0 Zn1 2.865659 1_565
Hg0 Ni1 2.874406 1_455
Hg0 Ni0 2.874408 1_555
Hg0 Ni0 2.921957 1_554
Hg0 Ni1 2.921959 1_555
Hg0 Ni1 2.921959 1_566
Hg0 Ni0 2.921961 1_565
Hg0 Zn1 2.951644 1_555
Hg0 Zn0 2.951646 1_455
Hg0 Zn1 2.951648 1_454
Hg0 Zn0 2.951651 1_556
Hg0 Sc0 2.973181 1_566
Hg0 Sc0 2.973181 1_555
Hg0 Sc0 3.116947 1_666
Hg0 Sc0 3.116948 1_565
