# generated using pymatgen
data_K2LiVSe4
_symmetry_space_group_name_H-M   'P 1'
_cell_length_a   13.33344068
_cell_length_b   11.95200915
_cell_length_c   7.29434005
_cell_angle_alpha   83.98307464
_cell_angle_beta   63.05667501
_cell_angle_gamma   32.96026071
_symmetry_Int_Tables_number   1
_chemical_formula_structural   K2LiVSe4
_chemical_formula_sum   'K4 Li2 V2 Se8'
_cell_volume   464.10992576
_cell_formula_units_Z   2
loop_
 _symmetry_equiv_pos_site_id
 _symmetry_equiv_pos_as_xyz
  1  'x, y, z'
loop_
 _atom_site_type_symbol
 _atom_site_label
 _atom_site_symmetry_multiplicity
 _atom_site_fract_x
 _atom_site_fract_y
 _atom_site_fract_z
 _atom_site_occupancy
  K  K0  1  0.06961459  0.06961459  0.43038541  1
  K  K1  1  0.18038541  0.18038541  0.81961459  1
  K  K2  1  0.43038541  0.43038541  0.06961459  1
  K  K3  1  0.81961459  0.81961459  0.18038541  1
  Li  Li0  1  0.50000000  0.50000000  0.50000000  1
  Li  Li1  1  0.75000000  0.75000000  0.75000000  1
  V  V0  1  0.00000000  0.00000000  0.00000000  1
  V  V1  1  0.25000000  0.25000000  0.25000000  1
  Se  Se0  1  0.73872197  0.37444440  0.06170427  1
  Se  Se1  1  0.06170427  0.82512836  0.73872197  1
  Se  Se2  1  0.82512836  0.06170427  0.37444440  1
  Se  Se3  1  0.37444440  0.73872197  0.82512836  1
  Se  Se4  1  0.51127803  0.87555560  0.18829573  1
  Se  Se5  1  0.42487164  0.18829573  0.87555560  1
  Se  Se6  1  0.18829573  0.42487164  0.51127803  1
  Se  Se7  1  0.87555560  0.51127803  0.42487164  1
loop_
_geom_bond_atom_site_label_1
_geom_bond_atom_site_label_2
_geom_bond_distance
_geom_bond_site_symmetry_2
K0 Se7 3.419246 1_455
K0 Se4 3.419247 1_545
K0 Se0 3.475219 1_456
K0 Se3 3.475226 1_544
K0 Se1 3.540157 1_545
K0 Se2 3.540160 1_455
K0 Se0 3.796209 1_545
K0 Se3 3.796210 1_455
K1 Se3 3.419246 1_545
K1 Se0 3.419247 1_456
K1 Se4 3.475219 1_545
K1 Se7 3.475226 1_456
K1 Se6 3.540157 1_555
K1 Se5 3.540160 1_555
K1 Se4 3.796209 1_456
K1 Se7 3.796210 1_545
K2 Se5 3.419235 1_554
K2 Se6 3.419239 1_555
K2 Se1 3.475220 1_644
K2 Se2 3.475222 1_465
K2 Se0 3.540147 1_555
K2 Se3 3.540151 1_554
K2 Se1 3.796206 1_555
K2 Se2 3.796212 1_554
K3 Se2 3.419235 1_565
K3 Se1 3.419239 1_654
K3 Se6 3.475220 1_565
K3 Se5 3.475222 1_654
K3 Se4 3.540147 1_555
K3 Se7 3.540151 1_555
K3 Se6 3.796206 1_654
K3 Se5 3.796212 1_565
Li0 Se3 2.524489 1_555
Li0 Se0 2.524494 1_555
Li0 Se2 2.524497 1_555
Li0 Se1 2.524498 1_555
Li1 Se7 2.524489 1_555
Li1 Se4 2.524494 1_556
Li1 Se5 2.524497 1_565
Li1 Se6 2.524498 1_655
Se0 V0 2.281676 1_655
Se1 V0 2.281684 1_566
Se2 V0 2.281679 1_655
Se3 V0 2.281673 1_566
Se4 V1 2.281676 1_565
Se5 V1 2.281679 1_556
Se6 V1 2.281684 1_555
Se7 V1 2.281673 1_655
