# generated using pymatgen
data_Nb12Al9Rh3N4
_symmetry_space_group_name_H-M   'P 1'
_cell_length_a   8.28574819
_cell_length_b   8.28574777
_cell_length_c   8.30486847
_cell_angle_alpha   60.07613123
_cell_angle_beta   60.07613337
_cell_angle_gamma   60.00000061
_symmetry_Int_Tables_number   1
_chemical_formula_structural   Nb12Al9Rh3N4
_chemical_formula_sum   'Nb12 Al9 Rh3 N4'
_cell_volume   403.62680915
_cell_formula_units_Z   1
loop_
 _symmetry_equiv_pos_site_id
 _symmetry_equiv_pos_as_xyz
  1  'x, y, z'
loop_
 _atom_site_type_symbol
 _atom_site_label
 _atom_site_symmetry_multiplicity
 _atom_site_fract_x
 _atom_site_fract_y
 _atom_site_fract_z
 _atom_site_occupancy
  Nb  Nb0  1  0.80999066  0.80999066  0.18301184  1
  Nb  Nb1  1  0.18238227  0.18238227  0.81911368  1
  Nb  Nb2  1  0.81612178  0.18238227  0.81911368  1
  Nb  Nb3  1  0.19700583  0.80999066  0.18301184  1
  Nb  Nb4  1  0.18238227  0.81612178  0.81911368  1
  Nb  Nb5  1  0.80999066  0.19700583  0.18301184  1
  Nb  Nb6  1  0.44000934  0.44000934  0.06698816  1
  Nb  Nb7  1  0.06761773  0.06761773  0.43088632  1
  Nb  Nb8  1  0.43387822  0.06761773  0.43088632  1
  Nb  Nb9  1  0.05299417  0.44000934  0.06698816  1
  Nb  Nb10  1  0.06761773  0.43387822  0.43088632  1
  Nb  Nb11  1  0.44000934  0.05299417  0.06698816  1
  Al  Al0  1  0.62500000  0.62500000  0.12500000  1
  Al  Al1  1  0.74954319  0.41112120  0.42821641  1
  Al  Al2  1  0.41112120  0.74954319  0.42821641  1
  Al  Al3  1  0.41445714  0.41445714  0.75662957  1
  Al  Al4  1  0.41112120  0.41112120  0.42821641  1
  Al  Al5  1  0.50045681  0.83887880  0.82178359  1
  Al  Al6  1  0.83887880  0.50045681  0.82178359  1
  Al  Al7  1  0.83554286  0.83554286  0.49337043  1
  Al  Al8  1  0.83887880  0.83887880  0.82178359  1
  Rh  Rh0  1  0.12500000  0.62500000  0.62500000  1
  Rh  Rh1  1  0.62500000  0.12500000  0.62500000  1
  Rh  Rh2  1  0.62500000  0.62500000  0.62500000  1
  N  N0  1  0.62500000  0.12500000  0.12500000  1
  N  N1  1  0.12500000  0.62500000  0.12500000  1
  N  N2  1  0.12500000  0.12500000  0.62500000  1
  N  N3  1  0.12500000  0.12500000  0.12500000  1
loop_
_geom_bond_atom_site_label_1
_geom_bond_atom_site_label_2
_geom_bond_distance
_geom_bond_site_symmetry_2
Al0 Al8 2.618799 1_554
Al0 Al4 2.618799 1_555
Al0 Al1 2.618807 1_555
Al0 Al5 2.618807 1_554
Al0 Al2 2.618807 1_555
Al0 Al6 2.618807 1_554
Al0 Nb0 2.958707 1_555
Al0 Nb6 2.958707 1_555
Al0 Nb11 2.958714 1_565
Al0 Nb5 2.958714 1_555
Al0 Nb9 2.958714 1_655
Al0 Nb3 2.958714 1_555
Al1 Rh2 2.500875 1_555
Al1 Rh1 2.500889 1_555
Al2 Rh2 2.500876 1_555
Al2 Rh0 2.500889 1_555
Al3 Rh2 2.553355 1_555
Al3 Rh1 2.553361 1_555
Al3 Rh0 2.553361 1_555
Al4 Rh1 2.500880 1_555
Al4 Rh0 2.500880 1_555
Al5 Rh2 2.500875 1_555
Al5 Rh1 2.500889 1_565
Al6 Rh2 2.500876 1_555
Al6 Rh0 2.500889 1_655
Al7 Rh2 2.553355 1_555
Al7 Rh1 2.553361 1_565
Al7 Rh0 2.553361 1_655
Al8 Rh1 2.500880 1_565
Al8 Rh0 2.500880 1_655
N0 Nb2 2.172890 1_554
N0 Nb8 2.172890 1_555
N0 Nb5 2.208063 1_555
N0 Nb11 2.208063 1_555
N0 Nb6 2.208069 1_555
N0 Nb0 2.208069 1_545
N1 Nb10 2.172890 1_555
N1 Nb4 2.172890 1_554
N1 Nb3 2.208063 1_555
N1 Nb9 2.208063 1_555
N1 Nb6 2.208069 1_555
N1 Nb0 2.208069 1_455
N2 Nb10 2.192356 1_555
N2 Nb4 2.192356 1_545
N2 Nb1 2.192356 1_555
N2 Nb7 2.192356 1_555
N2 Nb8 2.192356 1_555
N2 Nb2 2.192356 1_455
N3 Nb7 2.172890 1_555
N3 Nb1 2.172890 1_554
N3 Nb9 2.208071 1_555
N3 Nb3 2.208071 1_545
N3 Nb11 2.208071 1_555
N3 Nb5 2.208071 1_455
