# generated using pymatgen
data_Rb4Cu(PS4)2
_symmetry_space_group_name_H-M   'P 1'
_cell_length_a   6.73563983
_cell_length_b   7.06228189
_cell_length_c   9.23826437
_cell_angle_alpha   86.96500940
_cell_angle_beta   77.06926928
_cell_angle_gamma   83.89511043
_symmetry_Int_Tables_number   1
_chemical_formula_structural   Rb4Cu(PS4)2
_chemical_formula_sum   'Rb4 Cu1 P2 S8'
_cell_volume   425.68920276
_cell_formula_units_Z   1
loop_
 _symmetry_equiv_pos_site_id
 _symmetry_equiv_pos_as_xyz
  1  'x, y, z'
loop_
 _atom_site_type_symbol
 _atom_site_label
 _atom_site_symmetry_multiplicity
 _atom_site_fract_x
 _atom_site_fract_y
 _atom_site_fract_z
 _atom_site_occupancy
  Rb  Rb0  1  0.30081788  0.32029915  0.13753416  1
  Rb  Rb1  1  0.72500847  0.23158336  0.50199637  1
  Rb  Rb2  1  0.27499153  0.76841664  0.49800363  1
  Rb  Rb3  1  0.69918212  0.67970085  0.86246584  1
  Cu  Cu0  1  0.00000000  0.00000000  0.00000000  1
  P  P0  1  0.83995318  0.73657952  0.26021771  1
  P  P1  1  0.16004682  0.26342048  0.73978229  1
  S  S0  1  0.68905605  0.96198887  0.16147258  1
  S  S1  1  0.78379697  0.48716694  0.19083202  1
  S  S2  1  0.13677092  0.80304433  0.16840136  1
  S  S3  1  0.77770870  0.74721370  0.48374117  1
  S  S4  1  0.22229130  0.25278630  0.51625883  1
  S  S5  1  0.86322908  0.19695567  0.83159864  1
  S  S6  1  0.21620303  0.51283306  0.80916798  1
  S  S7  1  0.31094395  0.03801113  0.83852742  1
loop_
_geom_bond_atom_site_label_1
_geom_bond_atom_site_label_2
_geom_bond_distance
_geom_bond_site_symmetry_2
Rb0 S6 3.398260 1_554
Rb0 S4 3.434702 1_555
Rb0 S7 3.475529 1_554
Rb0 S0 3.476025 1_545
Rb0 S2 3.476512 1_555
Rb0 S1 3.489976 1_455
Rb0 S1 3.715927 1_555
Rb1 S1 3.281984 1_555
Rb1 S4 3.346666 1_555
Rb1 S5 3.367457 1_555
Rb1 S4 3.400785 1_655
Rb1 S3 3.410577 1_545
Rb1 S3 3.687585 1_555
Rb1 S0 3.827962 1_545
Rb2 S6 3.281984 1_555
Rb2 S3 3.346666 1_555
Rb2 S2 3.367457 1_555
Rb2 S3 3.400785 1_455
Rb2 S4 3.410577 1_565
Rb2 S4 3.687585 1_555
Rb2 S7 3.827962 1_565
Rb3 S1 3.398260 1_556
Rb3 S3 3.434702 1_555
Rb3 S0 3.475529 1_556
Rb3 S7 3.476025 1_565
Rb3 S5 3.476512 1_555
Rb3 S6 3.489976 1_655
Rb3 S6 3.715927 1_555
Cu0 S2 2.311598 1_545
Cu0 S5 2.311598 1_454
Cu0 S7 2.315766 1_554
Cu0 S0 2.315766 1_445
P0 S1 2.006576 1_555
P0 S3 2.016872 1_555
P0 S0 2.077598 1_555
P0 S2 2.082146 1_655
P1 S6 2.006576 1_555
P1 S4 2.016872 1_555
P1 S7 2.077598 1_555
P1 S5 2.082146 1_455
