# generated using pymatgen
data_Na3BO3
_symmetry_space_group_name_H-M   'P 1'
_cell_length_a   7.39605066
_cell_length_b   5.64589474
_cell_length_c   9.50697128
_cell_angle_alpha   56.53146320
_cell_angle_beta   90.00000000
_cell_angle_gamma   90.00000000
_symmetry_Int_Tables_number   1
_chemical_formula_structural   Na3BO3
_chemical_formula_sum   'Na12 B4 O12'
_cell_volume   331.16099807
_cell_formula_units_Z   4
loop_
 _symmetry_equiv_pos_site_id
 _symmetry_equiv_pos_as_xyz
  1  'x, y, z'
loop_
 _atom_site_type_symbol
 _atom_site_label
 _atom_site_symmetry_multiplicity
 _atom_site_fract_x
 _atom_site_fract_y
 _atom_site_fract_z
 _atom_site_occupancy
  Na  Na0  1  0.65007583  0.95346619  0.42776056  1
  Na  Na1  1  0.15007583  0.04653381  0.07223944  1
  Na  Na2  1  0.34992417  0.04653381  0.57223944  1
  Na  Na3  1  0.84992417  0.95346619  0.92776056  1
  Na  Na4  1  0.02681565  0.79205314  0.45553354  1
  Na  Na5  1  0.52681565  0.20794686  0.04446646  1
  Na  Na6  1  0.97318435  0.20794686  0.54446646  1
  Na  Na7  1  0.47318435  0.79205314  0.95553354  1
  Na  Na8  1  0.27860134  0.40082887  0.72494209  1
  Na  Na9  1  0.77860134  0.59917113  0.77505791  1
  Na  Na10  1  0.72139866  0.59917113  0.27505791  1
  Na  Na11  1  0.22139866  0.40082887  0.22494209  1
  B  B0  1  0.83932360  0.28038311  0.15269792  1
  B  B1  1  0.66067640  0.28038311  0.65269792  1
  B  B2  1  0.16067640  0.71961689  0.84730208  1
  B  B3  1  0.33932360  0.71961689  0.34730208  1
  O  O0  1  0.08136108  0.74736266  0.70669080  1
  O  O1  1  0.73231616  0.51601460  0.04647628  1
  O  O2  1  0.76768384  0.51601460  0.54647628  1
  O  O3  1  0.23231616  0.48398540  0.45352372  1
  O  O4  1  0.35089675  0.94099029  0.37155326  1
  O  O5  1  0.85089675  0.05900971  0.12844674  1
  O  O6  1  0.64910325  0.05900971  0.62844674  1
  O  O7  1  0.14910325  0.94099029  0.87155326  1
  O  O8  1  0.58136108  0.25263734  0.79330920  1
  O  O9  1  0.91863892  0.25263734  0.29330920  1
  O  O10  1  0.41863892  0.74736266  0.20669080  1
  O  O11  1  0.26768384  0.48398540  0.95352372  1
loop_
_geom_bond_atom_site_label_1
_geom_bond_atom_site_label_2
_geom_bond_distance
_geom_bond_site_symmetry_2
Na0 O2 2.248526 1_555
Na0 O4 2.286537 1_555
Na0 O6 2.291122 1_565
Na0 O9 2.459871 1_565
Na1 O11 2.248526 1_554
Na1 O5 2.286537 1_455
Na1 O7 2.291122 1_544
Na1 O10 2.459871 1_545
Na2 O3 2.248526 1_555
Na2 O6 2.286537 1_555
Na2 O4 2.291122 1_545
Na2 O0 2.459871 1_545
Na3 O1 2.248526 1_556
Na3 O7 2.286537 1_655
Na3 O5 2.291122 1_566
Na3 O8 2.459871 1_565
Na4 O0 2.294175 1_555
Na4 O9 2.314607 1_465
Na4 O2 2.315897 1_455
Na4 O3 2.317827 1_555
Na4 O4 2.519776 1_555
Na5 O8 2.294175 1_554
Na5 O10 2.314607 1_545
Na5 O11 2.315897 1_554
Na5 O1 2.317827 1_555
Na5 O5 2.519776 1_555
Na6 O9 2.294175 1_555
Na6 O0 2.314607 1_645
Na6 O3 2.315897 1_655
Na6 O2 2.317827 1_555
Na6 O6 2.519776 1_555
Na7 O10 2.294175 1_556
Na7 O8 2.314607 1_565
Na7 O1 2.315897 1_556
Na7 O11 2.317827 1_555
Na7 O7 2.519776 1_555
Na8 O8 2.353044 1_555
Na8 O7 2.368358 1_545
Na8 O0 2.368889 1_555
Na8 O3 2.379014 1_555
Na8 O11 2.464690 1_555
Na9 O0 2.353044 1_655
Na9 O6 2.368358 1_565
Na9 O8 2.368889 1_555
Na9 O1 2.379014 1_556
Na9 O2 2.464690 1_555
Na10 O10 2.353044 1_555
Na10 O5 2.368358 1_565
Na10 O9 2.368889 1_555
Na10 O2 2.379014 1_555
Na10 O1 2.464690 1_555
Na11 O9 2.353044 1_455
Na11 O4 2.368358 1_545
Na11 O10 2.368889 1_555
Na11 O11 2.379014 1_554
Na11 O3 2.464690 1_555
B0 O9 1.387334 1_555
B0 O1 1.390762 1_555
B0 O5 1.392996 1_555
B1 O8 1.387334 1_555
B1 O2 1.390762 1_555
B1 O6 1.392996 1_555
B2 O0 1.387334 1_555
B2 O11 1.390762 1_555
B2 O7 1.392996 1_555
B3 O10 1.387334 1_555
B3 O3 1.390762 1_555
B3 O4 1.392996 1_555
