# generated using pymatgen
data_Li12TaReN8
_symmetry_space_group_name_H-M   'P 1'
_cell_length_a   6.68645679
_cell_length_b   6.68645679
_cell_length_c   4.87708770
_cell_angle_alpha   90.00000000
_cell_angle_beta   90.00000000
_cell_angle_gamma   90.00000000
_symmetry_Int_Tables_number   1
_chemical_formula_structural   Li12TaReN8
_chemical_formula_sum   'Li12 Ta1 Re1 N8'
_cell_volume   218.04827218
_cell_formula_units_Z   1
loop_
 _symmetry_equiv_pos_site_id
 _symmetry_equiv_pos_as_xyz
  1  'x, y, z'
loop_
 _atom_site_type_symbol
 _atom_site_label
 _atom_site_symmetry_multiplicity
 _atom_site_fract_x
 _atom_site_fract_y
 _atom_site_fract_z
 _atom_site_occupancy
  Li  Li0  1  0.00000000  0.50000000  0.56842992  1
  Li  Li1  1  0.50000000  0.00000000  0.91302079  1
  Li  Li2  1  0.50000000  0.00000000  0.43157008  1
  Li  Li3  1  0.00000000  0.50000000  0.08697921  1
  Li  Li4  1  0.21718321  0.21718321  0.50000000  1
  Li  Li5  1  0.78281679  0.78281679  0.50000000  1
  Li  Li6  1  0.70907872  0.70907872  0.00000000  1
  Li  Li7  1  0.29092128  0.29092128  0.00000000  1
  Li  Li8  1  0.78281679  0.21718321  0.50000000  1
  Li  Li9  1  0.21718321  0.78281679  0.50000000  1
  Li  Li10  1  0.29092128  0.70907872  0.00000000  1
  Li  Li11  1  0.70907872  0.29092128  0.00000000  1
  Ta  Ta0  1  0.50000000  0.50000000  0.50000000  1
  Re  Re0  1  0.00000000  0.00000000  0.00000000  1
  N  N0  1  0.24797299  0.50000000  0.29765212  1
  N  N1  1  0.75202701  0.50000000  0.29765212  1
  N  N2  1  0.76761149  0.00000000  0.20033586  1
  N  N3  1  0.23238851  0.00000000  0.20033586  1
  N  N4  1  0.50000000  0.24797299  0.70234788  1
  N  N5  1  0.50000000  0.75202701  0.70234788  1
  N  N6  1  0.00000000  0.76761149  0.79966414  1
  N  N7  1  0.00000000  0.23238851  0.79966414  1
loop_
_geom_bond_atom_site_label_1
_geom_bond_atom_site_label_2
_geom_bond_distance
_geom_bond_site_symmetry_2
Li0 N6 2.115106 1_555
Li0 N7 2.115106 1_555
Li0 N0 2.119709 1_555
Li0 N1 2.119709 1_455
Li1 N4 1.950605 1_555
Li1 N5 1.950605 1_545
Li1 N2 2.272749 1_556
Li1 N3 2.272749 1_556
Li2 N2 2.115106 1_555
Li2 N3 2.115106 1_555
Li2 N4 2.119709 1_555
Li2 N5 2.119709 1_545
Li3 N0 1.950605 1_555
Li3 N1 1.950605 1_455
Li3 N6 2.272749 1_554
Li3 N7 2.272749 1_554
Li4 N7 2.062796 1_555
Li4 N3 2.062796 1_555
Li4 N4 2.142973 1_555
Li4 N0 2.142973 1_555
Li5 N6 2.062796 1_655
Li5 N2 2.062796 1_565
Li5 N5 2.142973 1_555
Li5 N1 2.142973 1_555
Li6 N1 2.035736 1_555
Li6 N5 2.035736 1_554
Li6 N2 2.211729 1_565
Li6 N6 2.211729 1_654
Li7 N0 2.035736 1_555
Li7 N4 2.035736 1_554
Li7 N3 2.211729 1_555
Li7 N7 2.211729 1_554
Li8 N2 2.062796 1_555
Li8 N7 2.062796 1_655
Li8 N4 2.142973 1_555
Li8 N1 2.142973 1_555
Li9 N6 2.062796 1_555
Li9 N3 2.062796 1_565
Li9 N0 2.142973 1_555
Li9 N5 2.142973 1_555
Li10 N0 2.035736 1_555
Li10 N5 2.035736 1_554
Li10 N6 2.211729 1_554
Li10 N3 2.211729 1_565
Li11 N4 2.035736 1_554
Li11 N1 2.035736 1_555
Li11 N2 2.211729 1_555
Li11 N7 2.211729 1_654
N0 Ta0 1.952870 1_555
N1 Ta0 1.952870 1_555
N2 Re0 1.835512 1_655
N3 Re0 1.835512 1_555
N4 Ta0 1.952870 1_555
N5 Ta0 1.952870 1_555
N6 Re0 1.835512 1_566
N7 Re0 1.835512 1_556
