# generated using pymatgen
data_U(SiRu)2
_symmetry_space_group_name_H-M   'P 1'
_cell_length_a   4.16377965
_cell_length_b   4.16377974
_cell_length_c   5.61232309
_cell_angle_alpha   111.77419878
_cell_angle_beta   111.77420316
_cell_angle_gamma   89.99999877
_symmetry_Int_Tables_number   1
_chemical_formula_structural   U(SiRu)2
_chemical_formula_sum   'U1 Si2 Ru2'
_cell_volume   82.83712733
_cell_formula_units_Z   1
loop_
 _symmetry_equiv_pos_site_id
 _symmetry_equiv_pos_as_xyz
  1  'x, y, z'
loop_
 _atom_site_type_symbol
 _atom_site_label
 _atom_site_symmetry_multiplicity
 _atom_site_fract_x
 _atom_site_fract_y
 _atom_site_fract_z
 _atom_site_occupancy
  U  U0  1  -0.00000000  -0.00000000  -0.00000000  1
  Si  Si0  1  0.62948337  0.62948337  0.25896673  1
  Si  Si1  1  0.37051663  0.37051663  0.74103327  1
  Ru  Ru0  1  0.75000000  0.25000000  0.50000000  1
  Ru  Ru1  1  0.25000000  0.75000000  0.50000000  1
loop_
_geom_bond_atom_site_label_1
_geom_bond_atom_site_label_2
_geom_bond_distance
_geom_bond_site_symmetry_2
Si0 U0 3.193677 1_565
Si0 U0 3.193677 1_665
Si0 U0 3.193677 1_655
Si0 U0 3.193677 1_555
Si1 U0 3.193677 1_656
Si1 U0 3.193677 1_556
Si1 U0 3.193677 1_566
Si1 U0 3.193677 1_666
Ru0 Si0 2.379201 1_555
Ru0 Si1 2.379201 1_655
Ru0 Si1 2.379202 1_555
Ru0 Si0 2.379202 1_545
Ru0 U0 3.168860 1_656
Ru0 U0 3.168860 1_555
Ru0 U0 3.168860 1_655
Ru0 U0 3.168860 1_666
Ru1 Si1 2.379201 1_555
Ru1 Si0 2.379201 1_455
Ru1 Si0 2.379202 1_555
Ru1 Si1 2.379202 1_565
Ru1 U0 3.168860 1_565
Ru1 U0 3.168860 1_666
Ru1 U0 3.168860 1_566
Ru1 U0 3.168860 1_555
