# generated using pymatgen
data_Ti17Mn2Si12Tc
_symmetry_space_group_name_H-M   'P 1'
_cell_length_a   7.34317146
_cell_length_b   7.34317172
_cell_length_c   13.83975598
_cell_angle_alpha   90.00000000
_cell_angle_beta   90.00000000
_cell_angle_gamma   140.78733414
_symmetry_Int_Tables_number   1
_chemical_formula_structural   Ti17Mn2Si12Tc
_chemical_formula_sum   'Ti17 Mn2 Si12 Tc1'
_cell_volume   471.79212596
_cell_formula_units_Z   1
loop_
 _symmetry_equiv_pos_site_id
 _symmetry_equiv_pos_as_xyz
  1  'x, y, z'
loop_
 _atom_site_type_symbol
 _atom_site_label
 _atom_site_symmetry_multiplicity
 _atom_site_fract_x
 _atom_site_fract_y
 _atom_site_fract_z
 _atom_site_occupancy
  Ti  Ti0  1  0.06728388  0.42730075  0.39878241  1
  Ti  Ti1  1  0.57037904  0.93221625  0.90181231  1
  Ti  Ti2  1  0.42730075  0.06728388  0.60121759  1
  Ti  Ti3  1  0.93221625  0.57037904  0.09818769  1
  Ti  Ti4  1  0.84915528  0.64923375  0.68144172  1
  Ti  Ti5  1  0.35217672  0.15308521  0.17979588  1
  Ti  Ti6  1  0.64923375  0.84915528  0.31855828  1
  Ti  Ti7  1  0.15308521  0.35217672  0.82020412  1
  Ti  Ti8  1  0.64923375  0.84915528  0.68144172  1
  Ti  Ti9  1  0.15308521  0.35217672  0.17979588  1
  Ti  Ti10  1  0.84915528  0.64923375  0.31855828  1
  Ti  Ti11  1  0.35217672  0.15308521  0.82020412  1
  Ti  Ti12  1  0.42730075  0.06728388  0.39878241  1
  Ti  Ti13  1  0.93221625  0.57037904  0.90181231  1
  Ti  Ti14  1  0.06728388  0.42730075  0.60121759  1
  Ti  Ti15  1  0.57037904  0.93221625  0.09818769  1
  Ti  Ti16  1  0.99753310  0.99753310  0.50000000  1
  Mn  Mn0  1  0.50188458  0.50188458  0.00000000  1
  Mn  Mn1  1  0.00254424  0.00254424  0.00000000  1
  Si  Si0  1  0.25004832  0.75013642  0.75154154  1
  Si  Si1  1  0.75013642  0.25004832  0.24845846  1
  Si  Si2  1  0.75013642  0.25004832  0.75154154  1
  Si  Si3  1  0.25004832  0.75013642  0.24845846  1
  Si  Si4  1  0.25244144  0.25244144  0.65947756  1
  Si  Si5  1  0.75424810  0.75424810  0.15353536  1
  Si  Si6  1  0.25244144  0.25244144  0.34052244  1
  Si  Si7  1  0.75424810  0.75424810  0.84646464  1
  Si  Si8  1  0.58136778  0.90077485  0.50000000  1
  Si  Si9  1  0.09821426  0.40528180  0.00000000  1
  Si  Si10  1  0.90077485  0.58136778  0.50000000  1
  Si  Si11  1  0.40528180  0.09821426  0.00000000  1
  Tc  Tc0  1  0.49699104  0.49699104  0.50000000  1
loop_
_geom_bond_atom_site_label_1
_geom_bond_atom_site_label_2
_geom_bond_distance
_geom_bond_site_symmetry_2
Mn0 Si9 2.455890 1_555
Mn0 Si11 2.455890 1_555
Mn0 Si5 2.462088 1_555
Mn0 Si7 2.462088 1_554
Mn1 Si5 2.452024 1_445
Mn1 Si7 2.452024 1_444
Mn1 Si11 2.453586 1_555
Mn1 Si9 2.453586 1_555
Si0 Si2 2.464043 1_565
Si0 Si2 2.464043 1_455
Si0 Ti7 2.593347 1_555
Si0 Ti13 2.596291 1_455
Si0 Ti2 2.597844 1_565
Si0 Ti8 2.599915 1_555
Si0 Ti1 2.602370 1_555
Si0 Ti4 2.603133 1_455
Si0 Ti11 2.604232 1_565
Si0 Ti14 2.611351 1_555
Si1 Si3 2.464043 1_545
Si1 Si3 2.464043 1_655
Si1 Ti5 2.593347 1_555
Si1 Ti15 2.596291 1_545
Si1 Ti0 2.597844 1_655
Si1 Ti10 2.599915 1_555
Si1 Ti3 2.602370 1_555
Si1 Ti6 2.603133 1_545
Si1 Ti9 2.604232 1_655
Si1 Ti12 2.611351 1_555
Si2 Ti11 2.593347 1_555
Si2 Ti1 2.596291 1_545
Si2 Ti14 2.597844 1_655
Si2 Ti4 2.599915 1_555
Si2 Ti13 2.602370 1_555
Si2 Ti8 2.603133 1_545
Si2 Ti7 2.604232 1_655
Si2 Ti2 2.611351 1_555
Si3 Ti9 2.593347 1_555
Si3 Ti3 2.596291 1_455
Si3 Ti12 2.597844 1_565
Si3 Ti6 2.599915 1_555
Si3 Ti15 2.602370 1_555
Si3 Ti10 2.603133 1_455
Si3 Ti5 2.604232 1_565
Si3 Ti0 2.611351 1_555
Si4 Tc0 2.514724 1_555
Si4 Ti16 2.539584 1_445
Si4 Ti11 2.616239 1_555
Si4 Ti7 2.616239 1_555
Si4 Ti14 2.617785 1_555
Si4 Ti2 2.617785 1_555
Si4 Ti4 2.828045 1_555
Si4 Ti8 2.828045 1_555
Si4 Ti8 2.855792 1_445
Si4 Ti4 2.855792 1_445
Si5 Ti15 2.617607 1_555
Si5 Ti3 2.617607 1_555
Si5 Ti6 2.670063 1_555
Si5 Ti10 2.670063 1_555
Si5 Ti5 2.839201 1_665
Si5 Ti9 2.839201 1_665
Si5 Ti9 2.853000 1_555
Si5 Ti5 2.853000 1_555
Si6 Tc0 2.514724 1_555
Si6 Ti16 2.539584 1_445
Si6 Ti5 2.616239 1_555
Si6 Ti9 2.616239 1_555
Si6 Ti0 2.617785 1_555
Si6 Ti12 2.617785 1_555
Si6 Ti10 2.828045 1_555
Si6 Ti6 2.828045 1_555
Si6 Ti6 2.855792 1_445
Si6 Ti10 2.855792 1_445
Si7 Ti1 2.617607 1_555
Si7 Ti13 2.617607 1_555
Si7 Ti8 2.670063 1_555
Si7 Ti4 2.670063 1_555
Si7 Ti11 2.839201 1_665
Si7 Ti7 2.839201 1_665
Si7 Ti7 2.853000 1_555
Si7 Ti11 2.853000 1_555
Si8 Tc0 2.515673 1_555
Si8 Ti16 2.545412 1_555
Si8 Ti2 2.623132 1_565
Si8 Ti12 2.623132 1_565
Si8 Ti8 2.643941 1_555
Si8 Ti6 2.643941 1_555
Si8 Ti14 2.821807 1_555
Si8 Ti0 2.821807 1_555
Si8 Ti14 2.874850 1_665
Si8 Ti0 2.874850 1_665
Si9 Ti9 2.598017 1_555
Si9 Ti7 2.598017 1_554
Si9 Ti3 2.663115 1_455
Si9 Ti13 2.663115 1_454
Si9 Ti15 2.837377 1_555
Si9 Ti1 2.837377 1_554
Si9 Ti15 2.841229 1_445
Si9 Ti1 2.841229 1_444
Si10 Tc0 2.515673 1_555
Si10 Ti16 2.545412 1_555
Si10 Ti14 2.623132 1_655
Si10 Ti0 2.623132 1_655
Si10 Ti4 2.643941 1_555
Si10 Ti10 2.643941 1_555
Si10 Ti2 2.821807 1_555
Si10 Ti12 2.821807 1_555
Si10 Ti2 2.874850 1_665
Si10 Ti12 2.874850 1_665
Si11 Ti5 2.598017 1_555
Si11 Ti11 2.598017 1_554
Si11 Ti15 2.663115 1_545
Si11 Ti1 2.663115 1_544
Si11 Ti3 2.837377 1_555
Si11 Ti13 2.837377 1_554
Si11 Ti3 2.841229 1_445
Si11 Ti13 2.841229 1_444
Tc0 Ti16 2.461372 1_445
Tc0 Ti16 2.466714 1_555
