# generated using pymatgen
data_Sr8MnTc3O16
_symmetry_space_group_name_H-M   'P 1'
_cell_length_a   5.51383603
_cell_length_b   8.82558051
_cell_length_c   8.82561349
_cell_angle_alpha   88.63679907
_cell_angle_beta   71.79785173
_cell_angle_gamma   108.20475826
_symmetry_Int_Tables_number   1
_chemical_formula_structural   Sr8MnTc3O16
_chemical_formula_sum   'Sr8 Mn1 Tc3 O16'
_cell_volume   384.04485631
_cell_formula_units_Z   1
loop_
 _symmetry_equiv_pos_site_id
 _symmetry_equiv_pos_as_xyz
  1  'x, y, z'
loop_
 _atom_site_type_symbol
 _atom_site_label
 _atom_site_symmetry_multiplicity
 _atom_site_fract_x
 _atom_site_fract_y
 _atom_site_fract_z
 _atom_site_occupancy
  Sr  Sr0  1  0.25267364  0.39794374  0.89179468  1
  Sr  Sr1  1  0.99998096  0.64322032  0.64319210  1
  Sr  Sr2  1  0.74726627  0.89171838  0.39799332  1
  Sr  Sr3  1  0.50003296  0.14886455  0.14878114  1
  Sr  Sr4  1  0.00001577  0.35677822  0.35680826  1
  Sr  Sr5  1  0.74733048  0.60206159  0.10820366  1
  Sr  Sr6  1  0.49996799  0.85113733  0.85121900  1
  Sr  Sr7  1  0.25272896  0.10827562  0.60200847  1
  Mn  Mn0  1  0.49999525  0.49999085  0.50000523  1
  Tc  Tc0  1  0.24988576  0.75004277  0.24999969  1
  Tc  Tc1  1  0.00000983  0.00001198  0.99999100  1
  Tc  Tc2  1  0.75012209  0.24996300  0.74999418  1
  O  O0  1  0.24968456  0.58836768  0.08858892  1
  O  O1  1  0.99982756  0.83748492  0.83780795  1
  O  O2  1  0.75059314  0.08881691  0.58809158  1
  O  O3  1  0.49977456  0.34539767  0.34570910  1
  O  O4  1  0.00017232  0.16251672  0.16219447  1
  O  O5  1  0.75032014  0.41164214  0.91140942  1
  O  O6  1  0.50022617  0.65460243  0.65428836  1
  O  O7  1  0.24940908  0.91117582  0.41190860  1
  O  O8  1  0.87886684  0.12649896  0.87331652  1
  O  O9  1  0.61548555  0.37713470  0.62305491  1
  O  O10  1  0.38450158  0.62286080  0.37693936  1
  O  O11  1  0.12113768  0.87349755  0.12669488  1
  O  O12  1  0.37644009  0.12425684  0.87556500  1
  O  O13  1  0.13391567  0.38143351  0.61884535  1
  O  O14  1  0.86608810  0.61856627  0.38114808  1
  O  O15  1  0.62354299  0.87573874  0.12444576  1
loop_
_geom_bond_atom_site_label_1
_geom_bond_atom_site_label_2
_geom_bond_distance
_geom_bond_site_symmetry_2
Mn0 O9 1.888907 1_555
Mn0 O10 1.889096 1_555
Mn0 O13 1.890697 1_555
Mn0 O14 1.890814 1_555
Mn0 O3 1.950462 1_555
Mn0 O6 1.950497 1_555
O0 Tc0 2.040105 1_555
O0 Sr0 2.445318 1_554
O0 Sr5 2.761794 1_455
O0 Sr6 2.763040 1_554
O0 Sr4 2.766251 1_555
O0 Sr5 2.768450 1_555
O1 Tc1 2.050362 1_665
O1 Sr1 2.455561 1_555
O1 Sr6 2.762106 1_555
O1 Sr6 2.762313 1_655
O1 Sr5 2.798440 1_556
O1 Sr7 2.802680 1_665
O2 Tc2 2.039875 1_555
O2 Sr2 2.445234 1_545
O2 Sr7 2.761632 1_655
O2 Sr4 2.763168 1_655
O2 Sr6 2.766739 1_545
O2 Sr7 2.768629 1_555
O3 Sr3 2.484486 1_555
O3 Sr7 2.724028 1_555
O3 Sr5 2.728140 1_555
O3 Sr4 2.760021 1_555
O3 Sr4 2.761120 1_655
O4 Tc1 2.050350 1_554
O4 Sr4 2.455529 1_555
O4 Sr3 2.762106 1_555
O4 Sr3 2.762315 1_455
O4 Sr0 2.798483 1_554
O4 Sr2 2.802723 1_445
O5 Tc2 2.040159 1_555
O5 Sr5 2.445290 1_556
O5 Sr0 2.761805 1_655
O5 Sr3 2.763096 1_556
O5 Sr1 2.766183 1_555
O5 Sr0 2.768443 1_555
O6 Sr6 2.484514 1_555
O6 Sr2 2.723971 1_555
O6 Sr0 2.728114 1_555
O6 Sr1 2.760011 1_555
O6 Sr1 2.761129 1_455
O7 Tc0 2.039832 1_555
O7 Sr7 2.445252 1_565
O7 Sr2 2.761668 1_455
O7 Sr1 2.763133 1_455
O7 Sr3 2.766786 1_565
O7 Sr2 2.768590 1_555
O8 Tc2 1.945617 1_555
O8 Tc1 1.953277 1_655
O8 Sr7 2.674043 1_655
O8 Sr0 2.675314 1_655
O8 Sr6 2.722766 1_545
O8 Sr3 2.724059 1_556
O9 Tc2 2.011537 1_555
O9 Sr0 2.635740 1_555
O9 Sr7 2.636886 1_555
O9 Sr1 2.680566 1_555
O9 Sr4 2.682305 1_655
O10 Tc0 2.011517 1_555
O10 Sr5 2.635734 1_555
O10 Sr2 2.636921 1_555
O10 Sr4 2.680503 1_555
O10 Sr1 2.682319 1_455
O11 Tc0 1.945474 1_555
O11 Tc1 1.953552 1_564
O11 Sr2 2.674007 1_455
O11 Sr5 2.675301 1_455
O11 Sr3 2.722754 1_565
O11 Sr6 2.724098 1_554
O12 Tc2 1.947053 1_555
O12 Tc1 1.952687 1_555
O12 Sr6 2.698025 1_545
O12 Sr3 2.699069 1_556
O12 Sr7 2.701665 1_555
O12 Sr0 2.702951 1_555
O13 Tc2 2.008951 1_455
O13 Sr1 2.630622 1_455
O13 Sr4 2.632678 1_555
O13 Sr0 2.682458 1_555
O13 Sr7 2.684427 1_555
O14 Tc0 2.008978 1_655
O14 Sr4 2.630611 1_655
O14 Sr1 2.632717 1_555
O14 Sr5 2.682415 1_555
O14 Sr2 2.684401 1_555
O15 Tc0 1.946904 1_555
O15 Tc1 1.952940 1_664
O15 Sr3 2.698027 1_565
O15 Sr6 2.699109 1_554
O15 Sr2 2.701623 1_555
O15 Sr5 2.702926 1_555
