# generated using pymatgen
data_Sc2Zn8RuPt
_symmetry_space_group_name_H-M   'P 1'
_cell_length_a   4.96353898
_cell_length_b   4.96353799
_cell_length_c   8.14697490
_cell_angle_alpha   90.00000000
_cell_angle_beta   90.00000000
_cell_angle_gamma   120.00000014
_symmetry_Int_Tables_number   1
_chemical_formula_structural   Sc2Zn8RuPt
_chemical_formula_sum   'Sc2 Zn8 Ru1 Pt1'
_cell_volume   173.82402291
_cell_formula_units_Z   1
loop_
 _symmetry_equiv_pos_site_id
 _symmetry_equiv_pos_as_xyz
  1  'x, y, z'
loop_
 _atom_site_type_symbol
 _atom_site_label
 _atom_site_symmetry_multiplicity
 _atom_site_fract_x
 _atom_site_fract_y
 _atom_site_fract_z
 _atom_site_occupancy
  Sc  Sc0  1  0.66666700  0.33333300  0.43039435  1
  Sc  Sc1  1  0.33333300  0.66666700  0.93981033  1
  Zn  Zn0  1  0.00000000  0.00000000  0.99806783  1
  Zn  Zn1  1  0.00000000  0.00000000  0.50124792  1
  Zn  Zn2  1  0.16984060  0.33967920  0.24517263  1
  Zn  Zn3  1  0.82890730  0.17109270  0.75131282  1
  Zn  Zn4  1  0.34218340  0.17109270  0.75131282  1
  Zn  Zn5  1  0.66032080  0.83015940  0.24517263  1
  Zn  Zn6  1  0.16984060  0.83015940  0.24517263  1
  Zn  Zn7  1  0.82890730  0.65781660  0.75131282  1
  Ru  Ru0  1  0.66666700  0.33333300  0.07018255  1
  Pt  Pt0  1  0.33333300  0.66666700  0.57084367  1
loop_
_geom_bond_atom_site_label_1
_geom_bond_atom_site_label_2
_geom_bond_distance
_geom_bond_site_symmetry_2
Sc0 Zn5 2.904648 1_555
Sc0 Zn2 2.904648 1_555
Sc0 Zn6 2.904650 1_545
Sc0 Zn6 2.904650 1_655
Sc0 Zn5 2.904652 1_545
Sc0 Zn2 2.904653 1_655
Sc0 Zn1 2.923257 1_655
Sc0 Zn1 2.923261 1_665
Sc0 Zn1 2.923261 1_555
Sc0 Zn3 2.963300 1_555
Sc0 Zn7 2.963306 1_555
Sc0 Zn4 2.963306 1_555
Sc1 Zn6 2.857384 1_556
Sc1 Zn2 2.857391 1_556
Sc1 Zn5 2.857391 1_556
Sc1 Zn0 2.904735 1_565
Sc1 Zn0 2.904739 1_555
Sc1 Zn0 2.904740 1_665
Sc1 Zn4 2.918722 1_555
Sc1 Zn7 2.918723 1_555
Sc1 Zn3 2.918725 1_565
Sc1 Zn3 2.918725 1_455
Sc1 Zn4 2.918726 1_565
Sc1 Zn7 2.918727 1_455
Zn0 Zn2 2.486920 1_556
Zn0 Zn5 2.486921 1_446
Zn0 Zn6 2.486926 1_546
Zn0 Zn7 2.490955 1_445
Zn0 Zn4 2.490955 1_555
Zn0 Zn3 2.490960 1_455
Zn1 Zn7 2.512768 1_445
Zn1 Zn4 2.512768 1_555
Zn1 Zn3 2.512773 1_455
Zn1 Zn2 2.546442 1_555
Zn1 Zn5 2.546442 1_445
Zn1 Zn6 2.546447 1_545
Zn2 Zn6 2.434517 1_555
Zn2 Zn5 2.434517 1_555
Zn2 Zn6 2.529021 1_545
Zn2 Zn5 2.529021 1_445
Zn3 Zn7 2.415873 1_555
Zn3 Zn4 2.415873 1_555
Zn3 Zn7 2.547665 1_545
Zn3 Zn4 2.547666 1_655
Zn4 Zn7 2.415873 1_555
Zn4 Zn7 2.547666 1_445
Zn5 Zn6 2.434518 1_555
Zn5 Zn6 2.529021 1_655
Ru0 Zn5 2.862230 1_555
Ru0 Zn2 2.862230 1_555
Ru0 Zn6 2.862232 1_545
Ru0 Zn6 2.862232 1_655
Ru0 Zn5 2.862234 1_545
Ru0 Zn2 2.862234 1_655
Ru0 Zn0 2.925303 1_654
Ru0 Zn0 2.925307 1_664
Ru0 Zn0 2.925307 1_554
Ru0 Sc0 2.934636 1_555
Ru0 Zn3 2.948583 1_554
Ru0 Zn7 2.948589 1_554
Ru0 Zn4 2.948590 1_554
Ru0 Sc1 3.056200 1_544
Ru0 Sc1 3.056201 1_654
Ru0 Sc1 3.056209 1_554
Pt0 Zn4 2.884845 1_555
Pt0 Zn7 2.884845 1_555
Pt0 Zn3 2.884847 1_565
Pt0 Zn3 2.884847 1_455
Pt0 Zn4 2.884849 1_565
Pt0 Zn7 2.884849 1_455
Pt0 Zn1 2.921251 1_565
Pt0 Zn1 2.921254 1_555
Pt0 Zn1 2.921255 1_665
Pt0 Zn6 3.002541 1_555
Pt0 Zn2 3.002547 1_555
Pt0 Zn5 3.002547 1_555
Pt0 Sc1 3.005962 1_555
Pt0 Sc0 3.085693 1_565
Pt0 Sc0 3.085693 1_455
Pt0 Sc0 3.085701 1_555
