# generated using pymatgen
data_CuMo3PtN
_symmetry_space_group_name_H-M   'P 1'
_cell_length_a   6.76360267
_cell_length_b   6.76360267
_cell_length_c   6.76360267
_cell_angle_alpha   90.00000000
_cell_angle_beta   90.00000000
_cell_angle_gamma   90.00000000
_symmetry_Int_Tables_number   1
_chemical_formula_structural   CuMo3PtN
_chemical_formula_sum   'Cu4 Mo12 Pt4 N4'
_cell_volume   309.40993991
_cell_formula_units_Z   4
loop_
 _symmetry_equiv_pos_site_id
 _symmetry_equiv_pos_as_xyz
  1  'x, y, z'
loop_
 _atom_site_type_symbol
 _atom_site_label
 _atom_site_symmetry_multiplicity
 _atom_site_fract_x
 _atom_site_fract_y
 _atom_site_fract_z
 _atom_site_occupancy
  Cu  Cu0  1  0.18506153  0.81493847  0.31493847  1
  Cu  Cu1  1  0.31493847  0.18506153  0.81493847  1
  Cu  Cu2  1  0.81493847  0.31493847  0.18506153  1
  Cu  Cu3  1  0.68506153  0.68506153  0.68506153  1
  Mo  Mo0  1  0.80484922  0.96117073  0.37408186  1
  Mo  Mo1  1  0.69515078  0.03882927  0.87408186  1
  Mo  Mo2  1  0.19515078  0.46117073  0.12591814  1
  Mo  Mo3  1  0.30484922  0.53882927  0.62591814  1
  Mo  Mo4  1  0.96117073  0.37408186  0.80484922  1
  Mo  Mo5  1  0.03882927  0.87408186  0.69515078  1
  Mo  Mo6  1  0.46117073  0.12591814  0.19515078  1
  Mo  Mo7  1  0.53882927  0.62591814  0.30484922  1
  Mo  Mo8  1  0.37408186  0.80484922  0.96117073  1
  Mo  Mo9  1  0.87408186  0.69515078  0.03882927  1
  Mo  Mo10  1  0.12591814  0.19515078  0.46117073  1
  Mo  Mo11  1  0.62591814  0.30484922  0.53882927  1
  Pt  Pt0  1  0.56544638  0.43455362  0.93455362  1
  Pt  Pt1  1  0.43455362  0.93455362  0.56544638  1
  Pt  Pt2  1  0.93455362  0.56544638  0.43455362  1
  Pt  Pt3  1  0.06544638  0.06544638  0.06544638  1
  N  N0  1  0.87297639  0.12702361  0.62702361  1
  N  N1  1  0.62702361  0.87297639  0.12702361  1
  N  N2  1  0.12702361  0.62702361  0.87297639  1
  N  N3  1  0.37297639  0.37297639  0.37297639  1
loop_
_geom_bond_atom_site_label_1
_geom_bond_atom_site_label_2
_geom_bond_distance
_geom_bond_site_symmetry_2
Cu0 Pt3 2.524449 1_565
Cu0 Pt2 2.524449 1_455
Cu0 Pt1 2.524449 1_555
Cu0 Mo8 2.713731 1_554
Cu0 Mo2 2.713731 1_555
Cu0 Mo7 2.713731 1_555
Cu0 Mo5 2.784134 1_555
Cu0 Mo0 2.784134 1_455
Cu0 Mo10 2.784134 1_565
Cu0 Mo9 2.927115 1_455
Cu0 Mo3 2.927115 1_555
Cu0 Mo6 2.927115 1_565
Cu1 Pt3 2.524449 1_556
Cu1 Pt1 2.524449 1_545
Cu1 Pt0 2.524449 1_555
Cu1 Mo4 2.713731 1_455
Cu1 Mo10 2.713731 1_555
Cu1 Mo3 2.713731 1_555
Cu1 Mo1 2.784134 1_555
Cu1 Mo8 2.784134 1_545
Cu1 Mo6 2.784134 1_556
Cu1 Mo5 2.927115 1_545
Cu1 Mo11 2.927115 1_555
Cu1 Mo2 2.927115 1_556
Cu2 Pt2 2.524449 1_555
Cu2 Pt0 2.524449 1_554
Cu2 Pt3 2.524449 1_655
Cu2 Mo0 2.713731 1_545
Cu2 Mo6 2.713731 1_555
Cu2 Mo11 2.713731 1_555
Cu2 Mo9 2.784134 1_555
Cu2 Mo4 2.784134 1_554
Cu2 Mo2 2.784134 1_655
Cu2 Mo1 2.927115 1_554
Cu2 Mo7 2.927115 1_555
Cu2 Mo10 2.927115 1_655
Cu3 Pt0 2.524449 1_555
Cu3 Pt2 2.524449 1_555
Cu3 Pt1 2.524449 1_555
Cu3 Mo9 2.713731 1_556
Cu3 Mo5 2.713731 1_655
Cu3 Mo1 2.713731 1_565
Cu3 Mo3 2.784134 1_555
Cu3 Mo7 2.784134 1_555
Cu3 Mo11 2.784134 1_555
Cu3 Mo4 2.927115 1_555
Cu3 Mo8 2.927115 1_555
Cu3 Mo0 2.927115 1_555
Mo0 N0 2.097022 1_565
Mo0 N1 2.143518 1_555
Mo0 Pt3 2.821648 1_665
Mo0 Pt1 2.824949 1_555
Mo0 Pt2 2.846166 1_555
Mo1 N1 2.097022 1_546
Mo1 N0 2.143518 1_555
Mo1 Pt1 2.821648 1_545
Mo1 Pt3 2.824949 1_656
Mo1 Pt0 2.846166 1_555
Mo2 N2 2.097022 1_554
Mo2 N3 2.143518 1_555
Mo2 Pt2 2.821648 1_455
Mo2 Pt0 2.824949 1_554
Mo2 Pt3 2.846166 1_555
Mo3 N3 2.097022 1_555
Mo3 N2 2.143518 1_555
Mo3 Pt0 2.821648 1_555
Mo3 Pt2 2.824949 1_455
Mo3 Pt1 2.846166 1_555
Mo4 N2 2.097022 1_655
Mo4 N0 2.143518 1_555
Mo4 Pt3 2.821648 1_656
Mo4 Pt2 2.824949 1_555
Mo4 Pt0 2.846166 1_555
Mo5 N0 2.097022 1_465
Mo5 N2 2.143518 1_555
Mo5 Pt2 2.821648 1_455
Mo5 Pt3 2.824949 1_566
Mo5 Pt1 2.846166 1_555
Mo6 N1 2.097022 1_545
Mo6 N3 2.143518 1_555
Mo6 Pt0 2.821648 1_554
Mo6 Pt1 2.824949 1_545
Mo6 Pt3 2.846166 1_555
Mo7 N3 2.097022 1_555
Mo7 N1 2.143518 1_555
Mo7 Pt1 2.821648 1_555
Mo7 Pt0 2.824949 1_554
Mo7 Pt2 2.846166 1_555
Mo8 N1 2.097022 1_556
Mo8 N2 2.143518 1_555
Mo8 Pt3 2.821648 1_566
Mo8 Pt0 2.824949 1_555
Mo8 Pt1 2.846166 1_555
Mo9 N2 2.097022 1_654
Mo9 N1 2.143518 1_555
Mo9 Pt0 2.821648 1_554
Mo9 Pt3 2.824949 1_665
Mo9 Pt2 2.846166 1_555
Mo10 N0 2.097022 1_455
Mo10 N3 2.143518 1_555
Mo10 Pt1 2.821648 1_545
Mo10 Pt2 2.824949 1_455
Mo10 Pt3 2.846166 1_555
Mo11 N3 2.097022 1_555
Mo11 N0 2.143518 1_555
Mo11 Pt2 2.821648 1_555
Mo11 Pt1 2.824949 1_545
Mo11 Pt0 2.846166 1_555
