# generated using pymatgen
data_Ba2SrScSb3
_symmetry_space_group_name_H-M   'P 1'
_cell_length_a   4.94777359
_cell_length_b   13.98060722
_cell_length_c   15.83067630
_cell_angle_alpha   90.00000000
_cell_angle_beta   90.00000000
_cell_angle_gamma   90.00000000
_symmetry_Int_Tables_number   1
_chemical_formula_structural   Ba2SrScSb3
_chemical_formula_sum   'Ba8 Sr4 Sc4 Sb12'
_cell_volume   1095.05345893
_cell_formula_units_Z   4
loop_
 _symmetry_equiv_pos_site_id
 _symmetry_equiv_pos_as_xyz
  1  'x, y, z'
loop_
 _atom_site_type_symbol
 _atom_site_label
 _atom_site_symmetry_multiplicity
 _atom_site_fract_x
 _atom_site_fract_y
 _atom_site_fract_z
 _atom_site_occupancy
  Ba  Ba0  1  0.25000000  0.06760824  0.89610989  1
  Ba  Ba1  1  0.75000000  0.93239176  0.10389011  1
  Ba  Ba2  1  0.25000000  0.56760824  0.60389011  1
  Ba  Ba3  1  0.75000000  0.43239176  0.39610989  1
  Ba  Ba4  1  0.25000000  0.84965749  0.49293449  1
  Ba  Ba5  1  0.75000000  0.15034251  0.50706551  1
  Ba  Ba6  1  0.25000000  0.34965749  0.00706551  1
  Ba  Ba7  1  0.75000000  0.65034251  0.99293449  1
  Sr  Sr0  1  0.75000000  0.22934950  0.21780788  1
  Sr  Sr1  1  0.25000000  0.77065050  0.78219212  1
  Sr  Sr2  1  0.75000000  0.72934950  0.28219212  1
  Sr  Sr3  1  0.25000000  0.27065050  0.71780788  1
  Sc  Sc0  1  0.25000000  0.05654664  0.29432403  1
  Sc  Sc1  1  0.75000000  0.94345336  0.70567597  1
  Sc  Sc2  1  0.25000000  0.55654664  0.20567597  1
  Sc  Sc3  1  0.75000000  0.44345336  0.79432403  1
  Sb  Sb0  1  0.25000000  0.24135350  0.36966415  1
  Sb  Sb1  1  0.75000000  0.75864650  0.63033585  1
  Sb  Sb2  1  0.25000000  0.74135350  0.13033585  1
  Sb  Sb3  1  0.75000000  0.25864650  0.86966415  1
  Sb  Sb4  1  0.25000000  0.11150980  0.11912809  1
  Sb  Sb5  1  0.75000000  0.88849020  0.88087191  1
  Sb  Sb6  1  0.25000000  0.61150980  0.38087191  1
  Sb  Sb7  1  0.75000000  0.38849020  0.61912809  1
  Sb  Sb8  1  0.25000000  0.03697213  0.65467876  1
  Sb  Sb9  1  0.75000000  0.96302787  0.34532124  1
  Sb  Sb10  1  0.25000000  0.53697213  0.84532124  1
  Sb  Sb11  1  0.75000000  0.46302787  0.15467876  1
loop_
_geom_bond_atom_site_label_1
_geom_bond_atom_site_label_2
_geom_bond_distance
_geom_bond_site_symmetry_2
Ba0 Sb5 3.528345 1_445
Ba0 Sb5 3.528345 1_545
Ba0 Sb4 3.583483 1_556
Ba0 Sb3 3.664522 1_455
Ba0 Sb3 3.664522 1_555
Ba0 Sb8 3.845942 1_555
Ba1 Sb4 3.528345 1_565
Ba1 Sb4 3.528345 1_665
Ba1 Sb5 3.583483 1_554
Ba1 Sb2 3.664522 1_655
Ba1 Sb2 3.664522 1_555
Ba1 Sb9 3.845942 1_555
Ba2 Sb7 3.528345 1_455
Ba2 Sb7 3.528345 1_555
Ba2 Sb6 3.583483 1_555
Ba2 Sb1 3.664522 1_455
Ba2 Sb1 3.664522 1_555
Ba2 Sb10 3.845942 1_555
Ba3 Sb6 3.528345 1_555
Ba3 Sb6 3.528345 1_655
Ba3 Sb7 3.583483 1_555
Ba3 Sb0 3.664522 1_555
Ba3 Sb0 3.664522 1_655
Ba3 Sb11 3.845942 1_555
Ba4 Sb1 3.531345 1_455
Ba4 Sb1 3.531345 1_555
Ba4 Sb8 3.662545 1_565
Ba4 Sb9 3.754067 1_455
Ba4 Sb9 3.754067 1_555
Ba4 Sb6 3.772586 1_555
Ba5 Sb0 3.531345 1_555
Ba5 Sb0 3.531345 1_655
Ba5 Sb9 3.662545 1_545
Ba5 Sb8 3.754067 1_555
Ba5 Sb8 3.754067 1_655
Ba5 Sb7 3.772586 1_555
Ba6 Sb3 3.531345 1_554
Ba6 Sb3 3.531345 1_454
Ba6 Sb10 3.662545 1_554
Ba6 Sb11 3.754067 1_455
Ba6 Sb11 3.754067 1_555
Ba6 Sb4 3.772586 1_555
Ba7 Sb2 3.531345 1_556
Ba7 Sb2 3.531345 1_656
Ba7 Sb11 3.662545 1_556
Ba7 Sb10 3.754067 1_555
Ba7 Sb10 3.754067 1_655
Ba7 Sb5 3.772586 1_555
Sb0 Sc0 2.845710 1_555
Sb0 Sr0 3.453612 1_455
Sb0 Sr0 3.453612 1_555
Sb1 Sc1 2.845710 1_555
Sb1 Sr1 3.453612 1_555
Sb1 Sr1 3.453612 1_655
Sb2 Sc2 2.845710 1_555
Sb2 Sr2 3.453612 1_455
Sb2 Sr2 3.453612 1_555
Sb3 Sc3 2.845710 1_555
Sb3 Sr3 3.453612 1_655
Sb3 Sr3 3.453612 1_555
Sb4 Sc0 2.877951 1_555
Sb4 Sr0 3.357774 1_555
Sb4 Sr0 3.357774 1_455
Sb5 Sc1 2.877951 1_555
Sb5 Sr1 3.357774 1_555
Sb5 Sr1 3.357774 1_655
Sb6 Sc2 2.877951 1_555
Sb6 Sr2 3.357774 1_455
Sb6 Sr2 3.357774 1_555
Sb7 Sc3 2.877951 1_555
Sb7 Sr3 3.357774 1_555
Sb7 Sr3 3.357774 1_655
Sb8 Sc1 2.912268 1_445
Sb8 Sc1 2.912268 1_545
Sb8 Sr3 3.416404 1_555
Sb9 Sc0 2.912268 1_665
Sb9 Sc0 2.912268 1_565
Sb9 Sr2 3.416404 1_555
Sb10 Sc3 2.912268 1_555
Sb10 Sc3 2.912268 1_455
Sb10 Sr1 3.416404 1_555
Sb11 Sc2 2.912268 1_655
Sb11 Sc2 2.912268 1_555
Sb11 Sr0 3.416404 1_555
