# generated using pymatgen
data_SrCa7(CdBi2)4
_symmetry_space_group_name_H-M   'P 1'
_cell_length_a   4.74520919
_cell_length_b   7.49708983
_cell_length_c   18.05512025
_cell_angle_alpha   89.87365797
_cell_angle_beta   90.00000000
_cell_angle_gamma   90.00000000
_symmetry_Int_Tables_number   1
_chemical_formula_structural   SrCa7(CdBi2)4
_chemical_formula_sum   'Sr1 Ca7 Cd4 Bi8'
_cell_volume   642.31402726
_cell_formula_units_Z   1
loop_
 _symmetry_equiv_pos_site_id
 _symmetry_equiv_pos_as_xyz
  1  'x, y, z'
loop_
 _atom_site_type_symbol
 _atom_site_label
 _atom_site_symmetry_multiplicity
 _atom_site_fract_x
 _atom_site_fract_y
 _atom_site_fract_z
 _atom_site_occupancy
  Sr  Sr0  1  0.75000000  0.77817652  0.44683962  1
  Ca  Ca0  1  0.25000000  0.70268245  0.94569801  1
  Ca  Ca1  1  0.25000000  0.53499744  0.73125741  1
  Ca  Ca2  1  0.75000000  0.96381739  0.22376295  1
  Ca  Ca3  1  0.75000000  0.29813320  0.05291806  1
  Ca  Ca4  1  0.25000000  0.20884295  0.55540111  1
  Ca  Ca5  1  0.75000000  0.46307775  0.26951973  1
  Ca  Ca6  1  0.25000000  0.03569128  0.77333477  1
  Cd  Cd0  1  0.25000000  0.63496143  0.14763473  1
  Cd  Cd1  1  0.75000000  0.86450309  0.65709303  1
  Cd  Cd2  1  0.75000000  0.36332306  0.84913169  1
  Cd  Cd3  1  0.25000000  0.13688528  0.34746914  1
  Bi  Bi0  1  0.75000000  0.25992758  0.68330371  1
  Bi  Bi1  1  0.25000000  0.74366225  0.31129295  1
  Bi  Bi2  1  0.25000000  0.24222897  0.18056438  1
  Bi  Bi3  1  0.75000000  0.76360694  0.06711367  1
  Bi  Bi4  1  0.75000000  0.75915563  0.82086202  1
  Bi  Bi5  1  0.25000000  0.23683731  0.93035963  1
  Bi  Bi6  1  0.75000000  0.26518668  0.42920025  1
  Bi  Bi7  1  0.25000000  0.74430379  0.57724115  1
loop_
_geom_bond_atom_site_label_1
_geom_bond_atom_site_label_2
_geom_bond_distance
_geom_bond_site_symmetry_2
Ca0 Ca1 4.073370 1_555
Ca1 Cd2 3.435560 1_555
Ca1 Cd2 3.435560 1_455
Ca1 Cd1 3.675630 1_555
Ca1 Cd1 3.675630 1_455
Ca1 Ca6 3.818015 1_555
Ca1 Ca6 3.831495 1_565
Ca1 Ca4 4.011807 1_555
Ca2 Ca5 3.834866 1_565
Ca2 Ca5 3.842138 1_555
Ca3 Ca5 4.104221 1_555
Ca5 Cd0 3.481402 1_655
Ca5 Cd0 3.481402 1_555
Ca5 Cd3 3.684461 1_555
Ca5 Cd3 3.684461 1_655
Ca5 Sr0 3.982930 1_555
Ca6 Cd1 3.419513 1_545
Ca6 Cd1 3.419513 1_445
Bi0 Cd1 3.003098 1_545
Bi0 Cd2 3.094417 1_555
Bi0 Ca1 3.261828 1_655
Bi0 Ca1 3.261828 1_555
Bi0 Ca6 3.329517 1_655
Bi0 Ca6 3.329517 1_555
Bi0 Ca4 3.333569 1_555
Bi0 Ca4 3.333569 1_655
Bi1 Cd3 3.020925 1_565
Bi1 Cd0 3.066920 1_555
Bi1 Ca5 3.260382 1_455
Bi1 Ca5 3.260382 1_555
Bi1 Ca2 3.292344 1_455
Bi1 Ca2 3.292344 1_555
Bi1 Sr0 3.418820 1_455
Bi1 Sr0 3.418820 1_555
Bi2 Cd0 3.002494 1_555
Bi2 Cd3 3.113573 1_555
Bi2 Ca2 3.253787 1_545
Bi2 Ca2 3.253787 1_445
Bi2 Ca5 3.310884 1_455
Bi2 Ca5 3.310884 1_555
Bi2 Ca3 3.333490 1_455
Bi2 Ca3 3.333490 1_555
Bi3 Cd0 2.943952 1_655
Bi3 Cd0 2.943952 1_555
Bi3 Ca2 3.204858 1_555
Bi3 Ca0 3.263116 1_554
Bi3 Ca0 3.263116 1_654
Bi3 Ca3 3.499662 1_555
Bi4 Cd2 3.010057 1_555
Bi4 Cd1 3.058849 1_555
Bi4 Ca6 3.264348 1_665
Bi4 Ca6 3.264348 1_565
Bi4 Ca0 3.299166 1_555
Bi4 Ca0 3.299166 1_655
Bi4 Ca1 3.329082 1_555
Bi4 Ca1 3.329082 1_655
Bi5 Cd2 2.945030 1_555
Bi5 Cd2 2.945030 1_455
Bi5 Ca6 3.214149 1_555
Bi5 Ca3 3.277412 1_556
Bi5 Ca3 3.277412 1_456
Bi5 Ca0 3.504054 1_555
Bi6 Cd3 2.956066 1_555
Bi6 Cd3 2.956066 1_655
Bi6 Ca5 3.239477 1_555
Bi6 Ca4 3.315921 1_655
Bi6 Ca4 3.315921 1_555
Bi6 Sr0 3.664323 1_545
Bi6 Sr0 3.859795 1_555
Bi7 Cd1 2.919871 1_455
Bi7 Cd1 2.919871 1_555
Bi7 Ca1 3.189962 1_555
Bi7 Sr0 3.351772 1_455
Bi7 Sr0 3.351772 1_555
Bi7 Ca4 3.504080 1_565
