# generated using pymatgen
data_Li3Bi2(SbS2)9
_symmetry_space_group_name_H-M   'P 1'
_cell_length_a   6.88275948
_cell_length_b   8.16690529
_cell_length_c   15.53030447
_cell_angle_alpha   74.10140604
_cell_angle_beta   79.12452886
_cell_angle_gamma   71.98240222
_symmetry_Int_Tables_number   1
_chemical_formula_structural   Li3Bi2(SbS2)9
_chemical_formula_sum   'Li3 Bi2 Sb9 S18'
_cell_volume   793.23386553
_cell_formula_units_Z   1
loop_
 _symmetry_equiv_pos_site_id
 _symmetry_equiv_pos_as_xyz
  1  'x, y, z'
loop_
 _atom_site_type_symbol
 _atom_site_label
 _atom_site_symmetry_multiplicity
 _atom_site_fract_x
 _atom_site_fract_y
 _atom_site_fract_z
 _atom_site_occupancy
  Li  Li0  1  0.00665365  0.69613174  0.50849150  1
  Li  Li1  1  0.87453751  0.62133595  0.80696675  1
  Li  Li2  1  0.01162802  0.25532703  0.50291162  1
  Bi  Bi0  1  0.29516998  0.21382908  0.92870717  1
  Bi  Bi1  1  0.14858810  0.87059428  0.18682132  1
  Sb  Sb0  1  0.54851835  0.55131126  0.62771960  1
  Sb  Sb1  1  0.44582750  0.95174238  0.37866226  1
  Sb  Sb2  1  0.29814387  0.72243395  0.91623572  1
  Sb  Sb3  1  0.73900753  0.29544635  0.05601405  1
  Sb  Sb4  1  0.12060709  0.37195098  0.18760237  1
  Sb  Sb5  1  0.50804338  0.04464572  0.60938820  1
  Sb  Sb6  1  0.50745051  0.42663508  0.40204391  1
  Sb  Sb7  1  0.89170996  0.13551884  0.80804649  1
  Sb  Sb8  1  0.69571920  0.77944551  0.07317160  1
  S  S0  1  0.00233662  0.02666281  0.00828782  1
  S  S1  1  0.13483450  0.32032915  0.77659162  1
  S  S2  1  0.53543162  0.46342543  0.86339248  1
  S  S3  1  0.20648242  0.78878695  0.36269690  1
  S  S4  1  0.70943702  0.57460866  0.46779731  1
  S  S5  1  0.96877799  0.48820138  0.98975766  1
  S  S6  1  0.12837103  0.85327442  0.77298640  1
  S  S7  1  0.28419892  0.93175189  0.53667032  1
  S  S8  1  0.77504234  0.72377354  0.64710404  1
  S  S9  1  0.45059625  0.03819159  0.13307799  1
  S  S10  1  0.54714023  0.89926206  0.88352321  1
  S  S11  1  0.19995171  0.26579834  0.34648529  1
  S  S12  1  0.72323055  0.10600204  0.46482895  1
  S  S13  1  0.85903792  0.19889110  0.21438754  1
  S  S14  1  0.27101936  0.39967755  0.53860431  1
  S  S15  1  0.79783569  0.24062818  0.65202535  1
  S  S16  1  0.44795247  0.59951585  0.12451706  1
  S  S17  1  0.86671773  0.64486893  0.22448419  1
loop_
_geom_bond_atom_site_label_1
_geom_bond_atom_site_label_2
_geom_bond_distance
_geom_bond_site_symmetry_2
Li0 S8 2.444377 1_455
Li0 S3 2.474068 1_555
Li0 S14 2.523260 1_555
Li0 S4 2.767062 1_455
Li1 S8 2.545964 1_555
Li1 S1 2.658451 1_655
Li1 S6 2.840859 1_655
Li1 S5 2.868657 1_555
Li1 S2 2.889578 1_555
Li1 S10 2.991124 1_555
Li2 S15 2.492712 1_455
Li2 S11 2.521044 1_555
Li2 S14 2.630199 1_555
Li2 S7 2.706100 1_545
Li2 S4 2.777875 1_455
Li2 S12 2.848298 1_455
Bi0 S1 2.611420 1_555
Bi0 S0 2.803054 1_556
Bi0 S10 2.805760 1_545
Bi0 S5 2.865814 1_455
Bi0 S2 2.870227 1_555
Bi1 S3 2.704056 1_555
Bi1 S9 2.714845 1_565
Bi1 S16 2.771710 1_555
Bi1 S13 2.888782 1_465
Bi1 S0 2.940902 1_565
Bi1 S17 2.949203 1_455
S0 Sb3 2.564406 1_455
S0 Sb8 3.203776 1_445
S1 Sb7 2.483319 1_455
S2 Sb2 2.474569 1_555
S3 Sb1 2.497509 1_555
S3 Sb6 3.018208 1_555
S4 Sb0 2.502964 1_555
S4 Sb6 2.585941 1_555
S5 Sb3 2.465057 1_556
S5 Sb8 2.978577 1_556
S6 Sb7 2.508642 1_465
S6 Sb2 2.522431 1_555
S7 Sb1 2.479645 1_555
S7 Sb5 2.569996 1_565
S8 Sb0 2.504630 1_555
S8 Sb5 2.678342 1_565
S9 Sb8 2.541009 1_545
S10 Sb2 2.466014 1_555
S10 Sb8 3.101065 1_556
S11 Sb4 2.486362 1_555
S11 Sb1 2.573697 1_545
S11 Sb6 3.158958 1_555
S12 Sb5 2.464343 1_555
S12 Sb6 2.599075 1_555
S13 Sb4 2.526094 1_655
S13 Sb3 2.579739 1_555
S14 Sb6 2.420324 1_555
S14 Sb5 2.877717 1_555
S15 Sb7 2.476618 1_555
S15 Sb0 2.559554 1_555
S16 Sb8 2.469494 1_555
S16 Sb3 2.979508 1_555
S17 Sb4 2.502393 1_655
S17 Sb8 2.635100 1_555
