# generated using pymatgen
data_Ca10HgIr3
_symmetry_space_group_name_H-M   'P 1'
_cell_length_a   8.71779349
_cell_length_b   8.75462288
_cell_length_c   7.73591826
_cell_angle_alpha   83.03309511
_cell_angle_beta   82.52988568
_cell_angle_gamma   44.43840316
_symmetry_Int_Tables_number   1
_chemical_formula_structural   Ca10HgIr3
_chemical_formula_sum   'Ca10 Hg1 Ir3'
_cell_volume   409.51978138
_cell_formula_units_Z   1
loop_
 _symmetry_equiv_pos_site_id
 _symmetry_equiv_pos_as_xyz
  1  'x, y, z'
loop_
 _atom_site_type_symbol
 _atom_site_label
 _atom_site_symmetry_multiplicity
 _atom_site_fract_x
 _atom_site_fract_y
 _atom_site_fract_z
 _atom_site_occupancy
  Ca  Ca0  1  0.01996470  0.81279340  0.93534463  1
  Ca  Ca1  1  0.19841731  0.98759218  0.58413120  1
  Ca  Ca2  1  0.98829862  0.19180783  0.08948651  1
  Ca  Ca3  1  0.77422160  0.05670148  0.41258523  1
  Ca  Ca4  1  0.37689276  0.18216068  0.83503729  1
  Ca  Ca5  1  0.78604293  0.63287136  0.67373898  1
  Ca  Ca6  1  0.64241388  0.79074905  0.17508044  1
  Ca  Ca7  1  0.19990268  0.35387388  0.30591091  1
  Ca  Ca8  1  0.58680070  0.41878931  0.76602211  1
  Ca  Ca9  1  0.43783487  0.57427497  0.23010353  1
  Hg  Hg0  1  0.17931791  0.59963413  0.57668962  1
  Ir  Ir0  1  0.39298634  0.82618102  0.91342664  1
  Ir  Ir1  1  0.82156616  0.39432886  0.41692918  1
  Ir  Ir2  1  0.59533953  0.17824085  0.08551473  1
loop_
_geom_bond_atom_site_label_1
_geom_bond_atom_site_label_2
_geom_bond_distance
_geom_bond_site_symmetry_2
Ca0 Ir2 2.856533 1_466
Ca0 Hg0 3.108399 1_555
Ca0 Ir0 3.318672 1_555
Ca0 Ca8 3.620109 1_555
Ca0 Ca8 3.887579 1_465
Ca1 Ir0 2.861938 1_555
Ca1 Ir1 2.903095 1_465
Ca1 Hg0 3.524804 1_555
Ca1 Ca8 3.701771 1_555
Ca1 Ca8 3.905754 1_465
Ca2 Ir1 2.850392 1_555
Ca2 Ir0 2.868725 1_644
Ca2 Ir2 3.515681 1_555
Ca2 Ca8 3.687853 1_554
Ca3 Ir2 2.822991 1_555
Ca3 Hg0 3.138289 1_645
Ca3 Ir1 3.267733 1_555
Ca3 Ca8 3.706562 1_555
Ca4 Ir2 2.869220 1_556
Ca4 Ir0 3.006504 1_545
Ca4 Hg0 3.232998 1_555
Ca4 Ca8 3.579981 1_555
Ca5 Ir1 2.885636 1_555
Ca5 Ir0 2.978560 1_555
Ca5 Hg0 3.219001 1_655
Ca5 Ca8 3.322807 1_555
Ca6 Ir0 2.991743 1_554
Ca6 Ir1 3.070579 1_555
Ca6 Ir2 3.110016 1_565
Ca7 Ir2 2.948493 1_555
Ca7 Ir1 3.067683 1_455
Ca7 Hg0 3.081138 1_555
Ca8 Ir0 2.959009 1_555
Ca8 Ir2 3.018338 1_556
Ca8 Ir1 3.099173 1_555
Ca8 Hg0 3.167016 1_555
Ca8 Ca9 3.725196 1_556
Ca9 Ir0 2.953808 1_554
Ca9 Ir2 2.983390 1_555
Ca9 Ir1 2.990097 1_555
Ca9 Hg0 3.189955 1_555
