# generated using pymatgen
data_Rb2Bi4Te7
_symmetry_space_group_name_H-M   'P 1'
_cell_length_a   4.51117703
_cell_length_b   13.98310120
_cell_length_c   16.26271429
_cell_angle_alpha   86.71419438
_cell_angle_beta   90.00000000
_cell_angle_gamma   90.00000000
_symmetry_Int_Tables_number   1
_chemical_formula_structural   Rb2Bi4Te7
_chemical_formula_sum   'Rb4 Bi8 Te14'
_cell_volume   1024.16954160
_cell_formula_units_Z   2
loop_
 _symmetry_equiv_pos_site_id
 _symmetry_equiv_pos_as_xyz
  1  'x, y, z'
loop_
 _atom_site_type_symbol
 _atom_site_label
 _atom_site_symmetry_multiplicity
 _atom_site_fract_x
 _atom_site_fract_y
 _atom_site_fract_z
 _atom_site_occupancy
  Rb  Rb0  1  0.25000000  0.56377309  0.81203041  1
  Rb  Rb1  1  0.75000000  0.43622691  0.18796959  1
  Rb  Rb2  1  0.75000000  0.82111078  0.62662465  1
  Rb  Rb3  1  0.25000000  0.17888922  0.37337535  1
  Bi  Bi0  1  0.25000000  0.83571157  0.27785580  1
  Bi  Bi1  1  0.75000000  0.16428843  0.72214420  1
  Bi  Bi2  1  0.75000000  0.60899893  0.43116975  1
  Bi  Bi3  1  0.25000000  0.39100107  0.56883025  1
  Bi  Bi4  1  0.75000000  0.73035691  0.04879736  1
  Bi  Bi5  1  0.25000000  0.26964309  0.95120264  1
  Bi  Bi6  1  0.25000000  0.94303774  0.87619655  1
  Bi  Bi7  1  0.75000000  0.05696226  0.12380345  1
  Te  Te0  1  0.25000000  0.58947726  0.03625820  1
  Te  Te1  1  0.75000000  0.41052274  0.96374180  1
  Te  Te2  1  0.75000000  0.99439282  0.30319064  1
  Te  Te3  1  0.25000000  0.00560718  0.69680936  1
  Te  Te4  1  0.75000000  0.69129385  0.24251381  1
  Te  Te5  1  0.25000000  0.30870615  0.75748619  1
  Te  Te6  1  0.75000000  0.78748387  0.85903843  1
  Te  Te7  1  0.25000000  0.21251613  0.14096157  1
  Te  Te8  1  0.25000000  0.90430440  0.08438445  1
  Te  Te9  1  0.75000000  0.09569560  0.91561555  1
  Te  Te10  1  0.25000000  0.76146504  0.45934073  1
  Te  Te11  1  0.75000000  0.23853496  0.54065927  1
  Te  Te12  1  0.25000000  0.45842474  0.38618673  1
  Te  Te13  1  0.75000000  0.54157526  0.61381327  1
loop_
_geom_bond_atom_site_label_1
_geom_bond_atom_site_label_2
_geom_bond_distance
_geom_bond_site_symmetry_2
Rb0 Te0 3.684668 1_556
Rb0 Te5 3.724289 1_555
Rb0 Te1 3.893707 1_455
Rb0 Te1 3.893707 1_555
Rb0 Te13 3.961059 1_555
Rb0 Te13 3.961059 1_455
Rb0 Te6 3.966320 1_555
Rb0 Te6 3.966320 1_455
Rb1 Te1 3.684668 1_554
Rb1 Te4 3.724289 1_555
Rb1 Te0 3.893707 1_555
Rb1 Te0 3.893707 1_655
Rb1 Te12 3.961059 1_655
Rb1 Te12 3.961059 1_555
Rb1 Te7 3.966320 1_555
Rb1 Te7 3.966320 1_655
Rb2 Te3 3.658352 1_565
Rb2 Te3 3.658352 1_665
Rb2 Te10 3.666669 1_555
Rb2 Te10 3.666669 1_655
Rb2 Te6 3.781976 1_555
Rb2 Te13 3.926229 1_555
Rb3 Te2 3.658352 1_445
Rb3 Te2 3.658352 1_545
Rb3 Te11 3.666669 1_555
Rb3 Te11 3.666669 1_455
Rb3 Te7 3.781976 1_555
Rb3 Te12 3.926229 1_555
Bi0 Te10 3.072064 1_555
Bi0 Te4 3.103076 1_455
Bi0 Te4 3.103076 1_555
Bi0 Te2 3.207110 1_455
Bi0 Te2 3.207110 1_555
Bi0 Te8 3.236302 1_555
Bi1 Te11 3.072064 1_555
Bi1 Te5 3.103076 1_555
Bi1 Te5 3.103076 1_655
Bi1 Te3 3.207110 1_555
Bi1 Te3 3.207110 1_655
Bi1 Te9 3.236302 1_555
Bi2 Te13 3.064376 1_555
Bi2 Te10 3.155113 1_655
Bi2 Te10 3.155113 1_555
Bi2 Te12 3.198830 1_655
Bi2 Te12 3.198830 1_555
Bi2 Te4 3.214414 1_555
Bi3 Te12 3.064376 1_555
Bi3 Te11 3.155113 1_555
Bi3 Te11 3.155113 1_455
Bi3 Te13 3.198830 1_455
Bi3 Te13 3.198830 1_555
Bi3 Te5 3.214414 1_555
Bi4 Te0 3.009311 1_555
Bi4 Te0 3.009311 1_655
Bi4 Te6 3.143069 1_554
Bi4 Te4 3.166360 1_555
Bi4 Te8 3.391194 1_655
Bi4 Te8 3.391194 1_555
Bi5 Te1 3.009311 1_455
Bi5 Te1 3.009311 1_555
Bi5 Te7 3.143069 1_556
Bi5 Te5 3.166360 1_555
Bi5 Te9 3.391194 1_455
Bi5 Te9 3.391194 1_555
Bi6 Te3 2.997275 1_565
Bi6 Te6 3.156943 1_455
Bi6 Te6 3.156943 1_555
Bi6 Te9 3.195646 1_565
Bi6 Te9 3.195646 1_465
Bi6 Te8 3.397956 1_556
Bi7 Te2 2.997275 1_545
Bi7 Te7 3.156943 1_655
Bi7 Te7 3.156943 1_555
Bi7 Te8 3.195646 1_545
Bi7 Te8 3.195646 1_645
Bi7 Te9 3.397956 1_554
