# generated using pymatgen
data_AlAs3Se5Br4
_symmetry_space_group_name_H-M   'P 1'
_cell_length_a   10.37788667
_cell_length_b   6.87006088
_cell_length_c   12.44093455
_cell_angle_alpha   73.66853410
_cell_angle_beta   90.00000000
_cell_angle_gamma   90.00000000
_symmetry_Int_Tables_number   1
_chemical_formula_structural   AlAs3Se5Br4
_chemical_formula_sum   'Al2 As6 Se10 Br8'
_cell_volume   851.20828021
_cell_formula_units_Z   2
loop_
 _symmetry_equiv_pos_site_id
 _symmetry_equiv_pos_as_xyz
  1  'x, y, z'
loop_
 _atom_site_type_symbol
 _atom_site_label
 _atom_site_symmetry_multiplicity
 _atom_site_fract_x
 _atom_site_fract_y
 _atom_site_fract_z
 _atom_site_occupancy
  Al  Al0  1  0.75000000  0.50219149  0.70756064  1
  Al  Al1  1  0.25000000  0.49780851  0.29243936  1
  As  As0  1  0.07908457  0.03419610  0.68085328  1
  As  As1  1  0.57908457  0.96580390  0.31914672  1
  As  As2  1  0.92091543  0.96580390  0.31914672  1
  As  As3  1  0.75000000  0.01232856  0.03700606  1
  As  As4  1  0.25000000  0.98767144  0.96299394  1
  As  As5  1  0.42091543  0.03419610  0.68085328  1
  Se  Se0  1  0.43642601  0.88879766  0.87778694  1
  Se  Se1  1  0.75000000  0.69827969  0.32141028  1
  Se  Se2  1  0.75000000  0.65717876  0.14445047  1
  Se  Se3  1  0.56357399  0.11120234  0.12221306  1
  Se  Se4  1  0.25000000  0.30172031  0.67858972  1
  Se  Se5  1  0.25000000  0.85734211  0.61709872  1
  Se  Se6  1  0.25000000  0.34282124  0.85554953  1
  Se  Se7  1  0.75000000  0.14265789  0.38290128  1
  Se  Se8  1  0.06357399  0.88879766  0.87778694  1
  Se  Se9  1  0.93642601  0.11120234  0.12221306  1
  Br  Br0  1  0.25000000  0.45196562  0.11630913  1
  Br  Br1  1  0.75000000  0.16437576  0.71440446  1
  Br  Br2  1  0.75000000  0.54803438  0.88369087  1
  Br  Br3  1  0.25000000  0.83562424  0.28559554  1
  Br  Br4  1  0.93338855  0.64730824  0.61044426  1
  Br  Br5  1  0.56661145  0.64730824  0.61044426  1
  Br  Br6  1  0.06661145  0.35269176  0.38955574  1
  Br  Br7  1  0.43338855  0.35269176  0.38955574  1
loop_
_geom_bond_atom_site_label_1
_geom_bond_atom_site_label_2
_geom_bond_distance
_geom_bond_site_symmetry_2
Al0 Br1 2.298326 1_555
Al0 Br2 2.299731 1_555
Al0 Br4 2.323449 1_555
Al0 Br5 2.323449 1_555
Al1 Br3 2.298326 1_555
Al1 Br0 2.299731 1_555
Al1 Br7 2.323449 1_555
Al1 Br6 2.323449 1_555
As0 Se8 2.376982 1_545
As0 Se5 2.406961 1_545
As0 Se4 2.548676 1_555
As1 Se3 2.376982 1_565
As1 Se7 2.406961 1_565
As1 Se1 2.548676 1_555
As2 Se9 2.376982 1_565
As2 Se7 2.406961 1_565
As2 Se1 2.548676 1_555
As3 Se3 2.394404 1_555
As3 Se9 2.394404 1_555
As3 Se2 2.430168 1_545
As4 Se8 2.394404 1_555
As4 Se0 2.394404 1_555
As4 Se6 2.430168 1_565
As5 Se0 2.376982 1_545
As5 Se5 2.406961 1_545
As5 Se4 2.548676 1_555
Se1 Se2 2.296984 1_555
Se4 Se6 2.296984 1_555
