# generated using pymatgen
data_Sr(PrS2)2
_symmetry_space_group_name_H-M   'P 1'
_cell_length_a   7.57129879
_cell_length_b   7.57131071
_cell_length_c   7.57129904
_cell_angle_alpha   109.43366591
_cell_angle_beta   109.54633201
_cell_angle_gamma   109.43366682
_symmetry_Int_Tables_number   1
_chemical_formula_structural   Sr(PrS2)2
_chemical_formula_sum   'Sr2 Pr4 S8'
_cell_volume   334.11004134
_cell_formula_units_Z   2
loop_
 _symmetry_equiv_pos_site_id
 _symmetry_equiv_pos_as_xyz
  1  'x, y, z'
loop_
 _atom_site_type_symbol
 _atom_site_label
 _atom_site_symmetry_multiplicity
 _atom_site_fract_x
 _atom_site_fract_y
 _atom_site_fract_z
 _atom_site_occupancy
  Sr  Sr0  1  0.12500008  0.74999949  0.87500064  1
  Sr  Sr1  1  0.37500064  0.24999949  0.62500008  1
  Pr  Pr0  1  0.25000056  0.62783901  0.37784020  1
  Pr  Pr1  1  0.74999960  0.87216179  0.12216124  1
  Pr  Pr2  1  0.62216124  0.37216179  0.24999960  1
  Pr  Pr3  1  0.87784020  0.12783901  0.75000056  1
  S  S0  1  0.99106766  0.84849725  0.49190797  1
  S  S1  1  0.99190797  0.34849725  0.49106766  1
  S  S2  1  0.50893473  0.00084209  0.85743103  1
  S  S3  1  0.14256810  0.15150113  0.14340947  1
  S  S4  1  0.35743103  0.50084209  0.00893473  1
  S  S5  1  0.64340947  0.65150113  0.64256810  1
  S  S6  1  0.50809197  0.99915726  0.35658875  1
  S  S7  1  0.85658875  0.49915726  0.00809197  1
loop_
_geom_bond_atom_site_label_1
_geom_bond_atom_site_label_2
_geom_bond_distance
_geom_bond_site_symmetry_2
Pr0 S5 2.886645 1_555
Pr0 S7 2.886662 1_455
Pr0 S6 2.933236 1_555
Pr0 S1 2.933238 1_455
Pr0 S4 3.105001 1_555
Pr0 S3 3.105017 1_555
Pr0 S0 3.119729 1_455
Pr0 S2 3.119733 1_565
Pr1 S2 2.886649 1_564
Pr1 S0 2.886662 1_555
Pr1 S3 2.933230 1_665
Pr1 S4 2.933237 1_555
Pr1 S6 3.104992 1_555
Pr1 S1 3.105005 1_565
Pr1 S5 3.119743 1_554
Pr1 S7 3.119752 1_555
Pr2 S4 2.886649 1_555
Pr2 S1 2.886661 1_555
Pr2 S5 2.933230 1_555
Pr2 S2 2.933237 1_554
Pr2 S7 3.104992 1_555
Pr2 S0 3.105005 1_555
Pr2 S3 3.119743 1_555
Pr2 S6 3.119752 1_545
Pr3 S3 2.886645 1_656
Pr3 S6 2.886662 1_545
Pr3 S7 2.933236 1_556
Pr3 S0 2.933238 1_545
Pr3 S2 3.105001 1_555
Pr3 S5 3.105017 1_545
Pr3 S1 3.119729 1_555
Pr3 S4 3.119733 1_656
S0 Sr1 2.971153 1_665
S0 Sr0 3.157830 1_655
S1 Sr0 2.971153 1_655
S1 Sr1 3.157830 1_655
S2 Sr0 2.971166 1_545
S2 Sr1 3.157820 1_555
S3 Sr0 2.971151 1_544
S3 Sr1 3.157830 1_555
S4 Sr1 2.971166 1_554
S4 Sr0 3.157820 1_554
S5 Sr1 2.971151 1_555
S5 Sr0 3.157830 1_655
S6 Sr1 2.971157 1_565
S6 Sr0 3.157818 1_554
S7 Sr0 2.971157 1_654
S7 Sr1 3.157818 1_554
