# generated using pymatgen
data_SrScGe4N7
_symmetry_space_group_name_H-M   'P 1'
_cell_length_a   6.14455510
_cell_length_b   6.14455338
_cell_length_c   10.02469507
_cell_angle_alpha   90.00000000
_cell_angle_beta   90.00000000
_cell_angle_gamma   119.99999347
_symmetry_Int_Tables_number   1
_chemical_formula_structural   SrScGe4N7
_chemical_formula_sum   'Sr2 Sc2 Ge8 N14'
_cell_volume   327.78010983
_cell_formula_units_Z   2
loop_
 _symmetry_equiv_pos_site_id
 _symmetry_equiv_pos_as_xyz
  1  'x, y, z'
loop_
 _atom_site_type_symbol
 _atom_site_label
 _atom_site_symmetry_multiplicity
 _atom_site_fract_x
 _atom_site_fract_y
 _atom_site_fract_z
 _atom_site_occupancy
  Sr  Sr0  1  0.66666700  0.33333300  0.58025157  1
  Sr  Sr1  1  0.33333300  0.66666700  0.08025157  1
  Sc  Sc0  1  0.66666700  0.33333300  0.95111040  1
  Sc  Sc1  1  0.33333300  0.66666700  0.45111040  1
  Ge  Ge0  1  0.17352562  0.34705023  0.76132614  1
  Ge  Ge1  1  0.82647438  0.17352562  0.26132614  1
  Ge  Ge2  1  0.34705023  0.17352562  0.26132614  1
  Ge  Ge3  1  0.65294977  0.82647438  0.76132614  1
  Ge  Ge4  1  0.17352562  0.82647438  0.76132614  1
  Ge  Ge5  1  0.82647438  0.65294977  0.26132614  1
  Ge  Ge6  1  0.00000000  0.00000000  0.02290621  1
  Ge  Ge7  1  0.00000000  0.00000000  0.52290621  1
  N  N0  1  0.00000000  0.00000000  0.83031279  1
  N  N1  1  0.00000000  0.00000000  0.33031279  1
  N  N2  1  0.83723511  0.67446923  0.07876906  1
  N  N3  1  0.16276489  0.83723511  0.57876906  1
  N  N4  1  0.67446923  0.83723511  0.57876906  1
  N  N5  1  0.32553077  0.16276489  0.07876906  1
  N  N6  1  0.83723511  0.16276489  0.07876906  1
  N  N7  1  0.16276489  0.32553077  0.57876906  1
  N  N8  1  0.49786719  0.50213281  0.82265181  1
  N  N9  1  0.99573538  0.49786719  0.32265181  1
  N  N10  1  0.50213281  0.00426462  0.32265181  1
  N  N11  1  0.49786719  0.99573538  0.82265181  1
  N  N12  1  0.50213281  0.49786719  0.32265181  1
  N  N13  1  0.00426462  0.50213281  0.82265181  1
loop_
_geom_bond_atom_site_label_1
_geom_bond_atom_site_label_2
_geom_bond_distance
_geom_bond_site_symmetry_2
Ge0 N8 1.832671 1_555
Ge0 N13 1.832681 1_555
Ge0 N7 1.833658 1_555
Ge0 N0 1.972013 1_555
Ge1 N9 1.832671 1_555
Ge1 N10 1.832671 1_555
Ge1 N6 1.833659 1_555
Ge1 N1 1.972018 1_655
Ge2 N12 1.832670 1_555
Ge2 N10 1.832681 1_555
Ge2 N5 1.833658 1_555
Ge2 N1 1.972014 1_555
Ge3 N8 1.832670 1_555
Ge3 N11 1.832681 1_555
Ge3 N4 1.833658 1_555
Ge3 N0 1.972014 1_665
Ge4 N13 1.832671 1_555
Ge4 N11 1.832671 1_555
Ge4 N3 1.833659 1_555
Ge4 N0 1.972018 1_565
Ge5 N12 1.832671 1_555
Ge5 N9 1.832681 1_555
Ge5 N2 1.833658 1_555
Ge5 N1 1.972013 1_665
Ge6 N6 1.820526 1_455
Ge6 N2 1.820531 1_445
Ge6 N5 1.820531 1_555
Ge6 N0 1.930690 1_554
Ge7 N3 1.820526 1_545
Ge7 N7 1.820531 1_555
Ge7 N4 1.820531 1_445
Ge7 N1 1.930690 1_555
N2 Sc0 2.221048 1_554
N2 Sr1 3.072588 1_655
N2 Sr1 3.072600 1_555
N3 Sc1 2.221048 1_555
N3 Sr0 3.072594 1_455
N3 Sr0 3.072594 1_565
N4 Sc1 2.221048 1_555
N4 Sr0 3.072587 1_565
N4 Sr0 3.072599 1_555
N5 Sc0 2.221048 1_554
N5 Sr1 3.072587 1_545
N5 Sr1 3.072599 1_555
N6 Sc0 2.221048 1_554
N6 Sr1 3.072594 1_655
N6 Sr1 3.072594 1_545
N7 Sc1 2.221048 1_555
N7 Sr0 3.072588 1_455
N7 Sr0 3.072600 1_555
N8 Sc0 2.210355 1_555
N8 Sr0 3.021952 1_555
N8 Sr1 3.120076 1_556
N9 Sc1 2.210347 1_655
N9 Sr1 3.021946 1_655
N9 Sr0 3.120076 1_555
N10 Sc1 2.210346 1_545
N10 Sr1 3.021945 1_545
N10 Sr0 3.120076 1_555
N11 Sc0 2.210346 1_565
N11 Sr0 3.021945 1_565
N11 Sr1 3.120076 1_556
N12 Sc1 2.210355 1_555
N12 Sr1 3.021952 1_555
N12 Sr0 3.120076 1_555
N13 Sc0 2.210347 1_455
N13 Sr0 3.021946 1_455
N13 Sr1 3.120076 1_556
