# generated using pymatgen
data_Ba2Na2SrSb4
_symmetry_space_group_name_H-M   'P 1'
_cell_length_a   8.20835597
_cell_length_b   9.04233095
_cell_length_c   19.30991893
_cell_angle_alpha   62.21819529
_cell_angle_beta   90.00000000
_cell_angle_gamma   90.00000000
_symmetry_Int_Tables_number   1
_chemical_formula_structural   Ba2Na2SrSb4
_chemical_formula_sum   'Ba8 Na8 Sr4 Sb16'
_cell_volume   1268.02353257
_cell_formula_units_Z   4
loop_
 _symmetry_equiv_pos_site_id
 _symmetry_equiv_pos_as_xyz
  1  'x, y, z'
loop_
 _atom_site_type_symbol
 _atom_site_label
 _atom_site_symmetry_multiplicity
 _atom_site_fract_x
 _atom_site_fract_y
 _atom_site_fract_z
 _atom_site_occupancy
  Ba  Ba0  1  0.98881654  0.78453470  0.40336192  1
  Ba  Ba1  1  0.48881654  0.21546530  0.09663808  1
  Ba  Ba2  1  0.01049136  0.91382180  0.90194938  1
  Ba  Ba3  1  0.51049136  0.08617820  0.59805062  1
  Ba  Ba4  1  0.01118346  0.21546530  0.59663808  1
  Ba  Ba5  1  0.51118346  0.78453470  0.90336192  1
  Ba  Ba6  1  0.98950864  0.08617820  0.09805062  1
  Ba  Ba7  1  0.48950864  0.91382180  0.40194938  1
  Na  Na0  1  0.65232415  0.76086706  0.24736782  1
  Na  Na1  1  0.15232415  0.23913294  0.25263218  1
  Na  Na2  1  0.34767585  0.23913294  0.75263218  1
  Na  Na3  1  0.84767585  0.76086706  0.74736782  1
  Na  Na4  1  0.82317484  0.29068900  0.37530220  1
  Na  Na5  1  0.32317484  0.70931100  0.12469780  1
  Na  Na6  1  0.17682516  0.70931100  0.62469780  1
  Na  Na7  1  0.67682516  0.29068900  0.87530220  1
  Sr  Sr0  1  0.17372594  0.45195997  0.87183535  1
  Sr  Sr1  1  0.67372594  0.54804003  0.62816465  1
  Sr  Sr2  1  0.82627406  0.54804003  0.12816465  1
  Sr  Sr3  1  0.32627406  0.45195997  0.37183535  1
  Sb  Sb0  1  0.52192374  0.34912425  0.24839296  1
  Sb  Sb1  1  0.02192374  0.65087575  0.25160704  1
  Sb  Sb2  1  0.47807626  0.65087575  0.75160704  1
  Sb  Sb3  1  0.97807626  0.34912425  0.74839296  1
  Sb  Sb4  1  0.77604050  0.12665110  0.24928920  1
  Sb  Sb5  1  0.27604050  0.87334890  0.25071080  1
  Sb  Sb6  1  0.22395950  0.87334890  0.75071080  1
  Sb  Sb7  1  0.72395950  0.12665110  0.74928920  1
  Sb  Sb8  1  0.65524289  0.49950860  0.46260902  1
  Sb  Sb9  1  0.15524289  0.50049140  0.03739098  1
  Sb  Sb10  1  0.34531373  0.07310261  0.96246275  1
  Sb  Sb11  1  0.84531373  0.92689739  0.53753725  1
  Sb  Sb12  1  0.34475711  0.50049140  0.53739098  1
  Sb  Sb13  1  0.84475711  0.49950860  0.96260902  1
  Sb  Sb14  1  0.65468627  0.92689739  0.03753725  1
  Sb  Sb15  1  0.15468627  0.07310261  0.46246275  1
loop_
_geom_bond_atom_site_label_1
_geom_bond_atom_site_label_2
_geom_bond_distance
_geom_bond_site_symmetry_2
Ba0 Sb5 3.561664 1_655
Ba0 Sb8 3.563676 1_555
Ba0 Sb15 3.569413 1_665
Ba0 Sb11 3.587008 1_555
Ba0 Sb4 3.590541 1_565
Ba0 Sb1 3.663764 1_655
Ba0 Sb12 3.954053 1_655
Ba1 Sb4 3.561664 1_555
Ba1 Sb9 3.563676 1_555
Ba1 Sb14 3.569413 1_545
Ba1 Sb10 3.587008 1_554
Ba1 Sb5 3.590541 1_545
Ba1 Sb0 3.663764 1_555
Ba1 Sb13 3.954053 1_554
Ba2 Sb10 3.544298 1_565
Ba2 Sb7 3.554806 1_465
Ba2 Sb6 3.567816 1_555
Ba2 Sb9 3.620545 1_556
Ba2 Sb13 3.628658 1_455
Ba2 Sb3 3.670982 1_465
Ba2 Sb14 3.960711 1_456
Ba3 Sb11 3.544298 1_545
Ba3 Sb6 3.554806 1_545
Ba3 Sb7 3.567816 1_555
Ba3 Sb8 3.620545 1_555
Ba3 Sb12 3.628658 1_555
Ba3 Sb2 3.670982 1_545
Ba3 Sb15 3.960711 1_555
Ba4 Sb7 3.561664 1_455
Ba4 Sb12 3.563676 1_555
Ba4 Sb11 3.569413 1_445
Ba4 Sb15 3.587008 1_555
Ba4 Sb6 3.590541 1_545
Ba4 Sb3 3.663764 1_455
Ba4 Sb8 3.954053 1_455
Ba5 Sb6 3.561664 1_555
Ba5 Sb13 3.563676 1_555
Ba5 Sb10 3.569413 1_565
Ba5 Sb14 3.587008 1_556
Ba5 Sb7 3.590541 1_565
Ba5 Sb2 3.663764 1_555
Ba5 Sb9 3.954053 1_556
Ba6 Sb14 3.544298 1_545
Ba6 Sb5 3.554806 1_645
Ba6 Sb4 3.567816 1_555
Ba6 Sb13 3.620545 1_554
Ba6 Sb9 3.628658 1_655
Ba6 Sb1 3.670982 1_645
Ba6 Sb10 3.960711 1_654
Ba7 Sb15 3.544298 1_565
Ba7 Sb4 3.554806 1_565
Ba7 Sb5 3.567816 1_555
Ba7 Sb12 3.620545 1_555
Ba7 Sb8 3.628658 1_555
Ba7 Sb0 3.670982 1_565
Ba7 Sb11 3.960711 1_555
Na0 Sb1 3.181817 1_655
Na0 Sb5 3.261862 1_555
Na0 Sb4 3.476615 1_565
Na0 Sb14 3.605666 1_555
Na0 Sb8 3.701864 1_555
Na1 Sb0 3.181817 1_555
Na1 Sb4 3.261862 1_455
Na1 Sb5 3.476615 1_545
Na1 Sb15 3.605666 1_555
Na1 Sb9 3.701864 1_555
Na2 Sb3 3.181817 1_455
Na2 Sb7 3.261862 1_555
Na2 Sb6 3.476615 1_545
Na2 Sb10 3.605666 1_555
Na2 Sb12 3.701864 1_555
Na3 Sb2 3.181817 1_555
Na3 Sb6 3.261862 1_655
Na3 Sb7 3.476615 1_565
Na3 Sb11 3.605666 1_555
Na3 Sb13 3.701864 1_555
Na4 Sb15 3.319866 1_655
Na4 Sb11 3.325872 1_545
Na4 Sb0 3.345474 1_555
Na4 Sb8 3.357859 1_555
Na4 Sb4 3.411068 1_555
Na4 Sb1 3.423774 1_655
Na5 Sb14 3.319866 1_555
Na5 Sb10 3.325872 1_564
Na5 Sb1 3.345474 1_555
Na5 Sb9 3.357859 1_555
Na5 Sb5 3.411068 1_555
Na5 Sb0 3.423774 1_555
Na6 Sb11 3.319866 1_455
Na6 Sb15 3.325872 1_565
Na6 Sb2 3.345474 1_555
Na6 Sb12 3.357859 1_555
Na6 Sb6 3.411068 1_555
Na6 Sb3 3.423774 1_455
Na7 Sb10 3.319866 1_555
Na7 Sb14 3.325872 1_546
Na7 Sb3 3.345474 1_555
Na7 Sb13 3.357859 1_555
Na7 Sb7 3.411068 1_555
Na7 Sb2 3.423774 1_555
Sb0 Sb4 2.892332 1_555
Sb0 Sr2 3.312610 1_555
Sb0 Sr3 3.345427 1_555
Sb1 Sb5 2.892332 1_555
Sb1 Sr3 3.312610 1_555
Sb1 Sr2 3.345427 1_455
Sb2 Sb6 2.892332 1_555
Sb2 Sr0 3.312610 1_555
Sb2 Sr1 3.345427 1_555
Sb3 Sb7 2.892332 1_555
Sb3 Sr1 3.312610 1_555
Sb3 Sr0 3.345427 1_655
Sb4 Sr2 3.442570 1_555
Sb5 Sr3 3.442570 1_555
Sb6 Sr0 3.442570 1_555
Sb7 Sr1 3.442570 1_555
Sb8 Sr3 3.354311 1_555
Sb8 Sr1 3.426857 1_555
Sb9 Sr2 3.354311 1_455
Sb9 Sr0 3.426857 1_554
Sb10 Sb14 2.917448 1_546
Sb10 Sr0 3.345648 1_555
Sb11 Sb15 2.917448 1_665
Sb11 Sr1 3.345648 1_555
Sb12 Sb8 2.931301 1_555
Sb12 Sr1 3.354311 1_555
Sb12 Sr3 3.426857 1_555
Sb13 Sb9 2.931301 1_656
Sb13 Sr0 3.354311 1_655
Sb13 Sr2 3.426857 1_556
Sb14 Sr2 3.345648 1_555
Sb15 Sr3 3.345648 1_555
