# generated using pymatgen
data_CaSiPdRh
_symmetry_space_group_name_H-M   'P 1'
_cell_length_a   9.07262181
_cell_length_b   9.07262089
_cell_length_c   4.10087350
_cell_angle_alpha   90.00000000
_cell_angle_beta   90.00000000
_cell_angle_gamma   154.29713910
_symmetry_Int_Tables_number   1
_chemical_formula_structural   CaSiPdRh
_chemical_formula_sum   'Ca2 Si2 Pd2 Rh2'
_cell_volume   146.39810282
_cell_formula_units_Z   2
loop_
 _symmetry_equiv_pos_site_id
 _symmetry_equiv_pos_as_xyz
  1  'x, y, z'
loop_
 _atom_site_type_symbol
 _atom_site_label
 _atom_site_symmetry_multiplicity
 _atom_site_fract_x
 _atom_site_fract_y
 _atom_site_fract_z
 _atom_site_occupancy
  Ca  Ca0  1  0.10058294  0.89941706  0.75000000  1
  Ca  Ca1  1  0.89941706  0.10058294  0.25000000  1
  Si  Si0  1  0.31935664  0.68064336  0.75000000  1
  Si  Si1  1  0.68064336  0.31935664  0.25000000  1
  Pd  Pd0  1  0.54815111  0.45184889  0.25000000  1
  Pd  Pd1  1  0.45184889  0.54815111  0.75000000  1
  Rh  Rh0  1  0.25008898  0.74991102  0.25000000  1
  Rh  Rh1  1  0.74991102  0.25008898  0.75000000  1
loop_
_geom_bond_atom_site_label_1
_geom_bond_atom_site_label_2
_geom_bond_distance
_geom_bond_site_symmetry_2
Ca0 Pd0 3.022720 1_566
Ca0 Pd0 3.022720 1_565
Ca0 Pd0 3.022721 1_455
Ca0 Pd0 3.022721 1_456
Ca0 Si1 3.206627 1_455
Ca0 Si1 3.206627 1_456
Ca0 Si1 3.206627 1_566
Ca0 Si1 3.206627 1_565
Ca0 Pd1 3.315939 1_565
Ca0 Pd1 3.315940 1_455
Ca0 Rh1 3.324284 1_455
Ca0 Rh1 3.324285 1_565
Ca0 Rh0 3.346582 1_555
Ca0 Rh0 3.346582 1_556
Ca1 Pd1 3.022720 1_545
Ca1 Pd1 3.022720 1_544
Ca1 Pd1 3.022721 1_655
Ca1 Pd1 3.022721 1_654
Ca1 Si0 3.206627 1_655
Ca1 Si0 3.206627 1_654
Ca1 Si0 3.206627 1_544
Ca1 Si0 3.206627 1_545
Ca1 Pd0 3.315939 1_545
Ca1 Pd0 3.315940 1_655
Ca1 Rh0 3.324284 1_655
Ca1 Rh0 3.324285 1_545
Ca1 Rh1 3.346582 1_555
Ca1 Rh1 3.346582 1_554
Pd0 Si1 2.343881 1_555
Pd0 Pd1 2.665845 1_555
Pd0 Pd1 2.665845 1_554
Pd1 Si0 2.343881 1_555
Rh0 Si1 2.362520 1_565
Rh0 Si1 2.362521 1_455
Rh0 Si0 2.388699 1_554
Rh0 Si0 2.388699 1_555
Rh1 Si0 2.362520 1_545
Rh1 Si0 2.362521 1_655
Rh1 Si1 2.388699 1_555
Rh1 Si1 2.388699 1_556
