# generated using pymatgen
data_ScTaBRh6
_symmetry_space_group_name_H-M   'P 1'
_cell_length_a   5.61143648
_cell_length_b   5.61143621
_cell_length_c   5.61143658
_cell_angle_alpha   59.99999777
_cell_angle_beta   59.99999940
_cell_angle_gamma   59.99999797
_symmetry_Int_Tables_number   1
_chemical_formula_structural   ScTaBRh6
_chemical_formula_sum   'Sc1 Ta1 B1 Rh6'
_cell_volume   124.94161826
_cell_formula_units_Z   1
loop_
 _symmetry_equiv_pos_site_id
 _symmetry_equiv_pos_as_xyz
  1  'x, y, z'
loop_
 _atom_site_type_symbol
 _atom_site_label
 _atom_site_symmetry_multiplicity
 _atom_site_fract_x
 _atom_site_fract_y
 _atom_site_fract_z
 _atom_site_occupancy
  Sc  Sc0  1  0.75000000  0.75000000  0.75000000  1
  Ta  Ta0  1  0.25000000  0.25000000  0.25000000  1
  B  B0  1  0.50000000  0.50000000  0.50000000  1
  Rh  Rh0  1  0.75751362  0.75751362  0.24248638  1
  Rh  Rh1  1  0.75751362  0.24248638  0.24248638  1
  Rh  Rh2  1  0.24248638  0.75751362  0.24248638  1
  Rh  Rh3  1  0.24248638  0.24248638  0.75751362  1
  Rh  Rh4  1  0.75751362  0.24248638  0.75751362  1
  Rh  Rh5  1  0.24248638  0.75751362  0.75751362  1
loop_
_geom_bond_atom_site_label_1
_geom_bond_atom_site_label_2
_geom_bond_distance
_geom_bond_site_symmetry_2
B0 Rh0 2.043569 1_555
B0 Rh3 2.043569 1_555
B0 Rh4 2.043569 1_555
B0 Rh2 2.043569 1_555
B0 Rh5 2.043569 1_555
B0 Rh1 2.043569 1_555
Rh0 Ta0 2.806352 1_655
Rh0 Ta0 2.806352 1_565
Rh0 Sc0 2.806352 1_554
Rh0 Sc0 2.806352 1_555
Rh1 Sc0 2.806352 1_554
Rh1 Sc0 2.806352 1_545
Rh1 Ta0 2.806352 1_555
Rh1 Ta0 2.806352 1_655
Rh2 Ta0 2.806352 1_555
Rh2 Ta0 2.806352 1_565
Rh2 Sc0 2.806352 1_554
Rh2 Sc0 2.806352 1_455
Rh3 Sc0 2.806352 1_455
Rh3 Sc0 2.806352 1_545
Rh3 Ta0 2.806352 1_555
Rh3 Ta0 2.806352 1_556
Rh4 Sc0 2.806352 1_555
Rh4 Sc0 2.806352 1_545
Rh4 Ta0 2.806352 1_556
Rh4 Ta0 2.806352 1_655
Rh5 Ta0 2.806352 1_556
Rh5 Ta0 2.806352 1_565
Rh5 Sc0 2.806352 1_555
Rh5 Sc0 2.806352 1_455
