# generated using pymatgen
data_Cs2Hf(SiO3)3
_symmetry_space_group_name_H-M   'P 1'
_cell_length_a   7.21392171
_cell_length_b   7.21392150
_cell_length_c   10.26628320
_cell_angle_alpha   90.00000000
_cell_angle_beta   90.00000000
_cell_angle_gamma   120.00000098
_symmetry_Int_Tables_number   1
_chemical_formula_structural   Cs2Hf(SiO3)3
_chemical_formula_sum   'Cs4 Hf2 Si6 O18'
_cell_volume   462.68636833
_cell_formula_units_Z   2
loop_
 _symmetry_equiv_pos_site_id
 _symmetry_equiv_pos_as_xyz
  1  'x, y, z'
loop_
 _atom_site_type_symbol
 _atom_site_label
 _atom_site_symmetry_multiplicity
 _atom_site_fract_x
 _atom_site_fract_y
 _atom_site_fract_z
 _atom_site_occupancy
  Cs  Cs0  1  0.33333300  0.66666700  0.43635266  1
  Cs  Cs1  1  0.66666700  0.33333300  0.93635266  1
  Cs  Cs2  1  0.66666700  0.33333300  0.56364734  1
  Cs  Cs3  1  0.33333300  0.66666700  0.06364734  1
  Hf  Hf0  1  0.00000000  0.00000000  0.50000000  1
  Hf  Hf1  1  0.00000000  0.00000000  0.00000000  1
  Si  Si0  1  0.61243231  0.76587059  0.75000000  1
  Si  Si1  1  0.84656172  0.61243231  0.25000000  1
  Si  Si2  1  0.76587059  0.15343828  0.25000000  1
  Si  Si3  1  0.23412941  0.84656172  0.75000000  1
  Si  Si4  1  0.15343828  0.38756769  0.75000000  1
  Si  Si5  1  0.38756769  0.23412941  0.25000000  1
  O  O0  1  0.25751602  0.19576503  0.38298618  1
  O  O1  1  0.06175099  0.25751602  0.88298618  1
  O  O2  1  0.19576503  0.93824901  0.88298618  1
  O  O3  1  0.80423497  0.06175099  0.38298618  1
  O  O4  1  0.93824901  0.74248398  0.38298618  1
  O  O5  1  0.74248398  0.80423497  0.88298618  1
  O  O6  1  0.74248398  0.80423497  0.61701382  1
  O  O7  1  0.93824901  0.74248398  0.11701382  1
  O  O8  1  0.80423497  0.06175099  0.11701382  1
  O  O9  1  0.19576503  0.93824901  0.61701382  1
  O  O10  1  0.06175099  0.25751602  0.61701382  1
  O  O11  1  0.25751602  0.19576503  0.11701382  1
  O  O12  1  0.51153134  0.09382274  0.25000000  1
  O  O13  1  0.41770660  0.51153134  0.75000000  1
  O  O14  1  0.09382274  0.58229340  0.75000000  1
  O  O15  1  0.90617726  0.41770660  0.25000000  1
  O  O16  1  0.58229340  0.48846866  0.25000000  1
  O  O17  1  0.48846866  0.90617726  0.75000000  1
loop_
_geom_bond_atom_site_label_1
_geom_bond_atom_site_label_2
_geom_bond_distance
_geom_bond_site_symmetry_2
Cs0 O9 3.194916 1_555
Cs0 O10 3.194921 1_555
Cs0 O6 3.194922 1_555
Cs0 O4 3.206437 1_455
Cs0 O3 3.206441 1_565
Cs0 O0 3.206444 1_555
Cs0 O12 3.293458 1_565
Cs0 O15 3.293459 1_455
Cs0 O16 3.293474 1_555
Cs1 O8 3.194916 1_556
Cs1 O7 3.194921 1_556
Cs1 O11 3.194922 1_556
Cs1 O1 3.206437 1_655
Cs1 O2 3.206441 1_545
Cs1 O5 3.206444 1_555
Cs1 O17 3.293458 1_545
Cs1 O14 3.293459 1_655
Cs1 O13 3.293474 1_555
Cs2 O3 3.194916 1_555
Cs2 O4 3.194921 1_555
Cs2 O0 3.194922 1_555
Cs2 O10 3.206437 1_655
Cs2 O9 3.206441 1_545
Cs2 O6 3.206444 1_555
Cs2 O17 3.293458 1_545
Cs2 O14 3.293459 1_655
Cs2 O13 3.293474 1_555
Cs3 O2 3.194916 1_554
Cs3 O1 3.194921 1_554
Cs3 O5 3.194922 1_554
Cs3 O7 3.206437 1_455
Cs3 O8 3.206441 1_565
Cs3 O11 3.206444 1_555
Cs3 O12 3.293458 1_565
Cs3 O15 3.293459 1_455
Cs3 O16 3.293474 1_555
Hf0 O10 2.065203 1_555
Hf0 O4 2.065203 1_445
Hf0 O6 2.065203 1_445
Hf0 O0 2.065203 1_555
Hf0 O9 2.065203 1_545
Hf0 O3 2.065203 1_455
Hf1 O1 2.065203 1_554
Hf1 O7 2.065203 1_445
Hf1 O11 2.065203 1_555
Hf1 O5 2.065203 1_444
Hf1 O8 2.065203 1_455
Hf1 O2 2.065203 1_544
O0 Si5 1.600345 1_555
O1 Si4 1.600345 1_555
O2 Si3 1.600345 1_555
O3 Si2 1.600345 1_555
O4 Si1 1.600345 1_555
O5 Si0 1.600345 1_555
O6 Si0 1.600345 1_555
O7 Si1 1.600345 1_555
O8 Si2 1.600345 1_555
O9 Si3 1.600345 1_555
O10 Si4 1.600345 1_555
O11 Si5 1.600345 1_555
O12 Si5 1.652065 1_555
O12 Si2 1.662021 1_555
O13 Si4 1.652052 1_555
O13 Si0 1.662025 1_555
O14 Si3 1.652053 1_555
O14 Si4 1.662035 1_555
O15 Si2 1.652053 1_555
O15 Si1 1.662035 1_555
O16 Si1 1.652052 1_555
O16 Si5 1.662025 1_555
O17 Si0 1.652065 1_555
O17 Si3 1.662021 1_555
