# generated using pymatgen
data_Zr7Sb4
_symmetry_space_group_name_H-M   'P 1'
_cell_length_a   8.52939364
_cell_length_b   11.16418866
_cell_length_c   11.22874514
_cell_angle_alpha   90.00000000
_cell_angle_beta   90.00000000
_cell_angle_gamma   111.77391081
_symmetry_Int_Tables_number   1
_chemical_formula_structural   Zr7Sb4
_chemical_formula_sum   'Zr28 Sb16'
_cell_volume   992.95798291
_cell_formula_units_Z   4
loop_
 _symmetry_equiv_pos_site_id
 _symmetry_equiv_pos_as_xyz
  1  'x, y, z'
loop_
 _atom_site_type_symbol
 _atom_site_label
 _atom_site_symmetry_multiplicity
 _atom_site_fract_x
 _atom_site_fract_y
 _atom_site_fract_z
 _atom_site_occupancy
  Zr  Zr0  1  0.39569430  0.84043739  0.93941371  1
  Zr  Zr1  1  0.39569430  0.34043739  0.56058629  1
  Zr  Zr2  1  0.66046481  0.98253991  0.26250241  1
  Zr  Zr3  1  0.01381605  0.92996208  0.29419905  1
  Zr  Zr4  1  0.64669749  0.82792674  0.72290967  1
  Zr  Zr5  1  0.01139506  0.71072151  0.07866170  1
  Zr  Zr6  1  0.63500516  0.63486720  0.94139951  1
  Zr  Zr7  1  0.20224248  0.05478684  0.00055291  1
  Zr  Zr8  1  0.66046481  0.48253991  0.23749759  1
  Zr  Zr9  1  0.01381605  0.42996208  0.20580095  1
  Zr  Zr10  1  0.64669749  0.32792674  0.77709033  1
  Zr  Zr11  1  0.01139506  0.21072151  0.42133830  1
  Zr  Zr12  1  0.63500516  0.13486720  0.55860049  1
  Zr  Zr13  1  0.20224248  0.55478684  0.49944709  1
  Zr  Zr14  1  0.79775752  0.44521316  0.50055291  1
  Zr  Zr15  1  0.36499484  0.86513280  0.44139951  1
  Zr  Zr16  1  0.98860494  0.78927849  0.57866170  1
  Zr  Zr17  1  0.35330251  0.67207326  0.22290967  1
  Zr  Zr18  1  0.98618395  0.57003792  0.79419905  1
  Zr  Zr19  1  0.33953519  0.51746009  0.76250241  1
  Zr  Zr20  1  0.79775752  0.94521316  0.99944709  1
  Zr  Zr21  1  0.36499484  0.36513280  0.05860049  1
  Zr  Zr22  1  0.98860494  0.28927849  0.92133830  1
  Zr  Zr23  1  0.35330251  0.17207326  0.27709033  1
  Zr  Zr24  1  0.98618395  0.07003792  0.70580095  1
  Zr  Zr25  1  0.33953519  0.01746009  0.73749759  1
  Zr  Zr26  1  0.60430570  0.65956261  0.43941371  1
  Zr  Zr27  1  0.60430570  0.15956261  0.06058629  1
  Sb  Sb0  1  0.28596908  0.75128237  0.68262255  1
  Sb  Sb1  1  0.28596908  0.25128237  0.81737745  1
  Sb  Sb2  1  0.01185142  0.66098242  0.34645117  1
  Sb  Sb3  1  0.77354565  0.93847737  0.49258531  1
  Sb  Sb4  1  0.67925531  0.57830709  0.67638051  1
  Sb  Sb5  1  0.01185142  0.16098242  0.15354883  1
  Sb  Sb6  1  0.77354565  0.43847737  0.00741469  1
  Sb  Sb7  1  0.32074469  0.92169291  0.17638051  1
  Sb  Sb8  1  0.67925531  0.07830709  0.82361949  1
  Sb  Sb9  1  0.22645435  0.56152263  0.99258531  1
  Sb  Sb10  1  0.32074469  0.42169291  0.32361949  1
  Sb  Sb11  1  0.22645435  0.06152263  0.50741469  1
  Sb  Sb12  1  0.71403092  0.74871763  0.18262255  1
  Sb  Sb13  1  0.71403092  0.24871763  0.31737745  1
  Sb  Sb14  1  0.98814858  0.83901758  0.84645117  1
  Sb  Sb15  1  0.98814858  0.33901758  0.65354883  1
loop_
_geom_bond_atom_site_label_1
_geom_bond_atom_site_label_2
_geom_bond_distance
_geom_bond_site_symmetry_2
Sb0 Zr18 2.892006 1_455
Sb0 Zr13 2.896665 1_555
Sb0 Zr25 2.900328 1_565
Sb0 Zr4 2.906938 1_555
Sb0 Zr19 2.951690 1_555
Sb0 Zr15 2.961583 1_555
Sb0 Zr16 2.962068 1_455
Sb0 Zr0 3.080543 1_555
Sb1 Zr24 2.892006 1_455
Sb1 Zr7 2.896665 1_556
Sb1 Zr19 2.900328 1_555
Sb1 Zr10 2.906938 1_555
Sb1 Zr25 2.951690 1_555
Sb1 Zr21 2.961583 1_556
Sb1 Zr22 2.962068 1_455
Sb1 Zr1 3.080543 1_555
Sb2 Zr13 2.902147 1_555
Sb2 Zr14 2.977930 1_455
Sb2 Zr16 3.016664 1_455
Sb2 Zr9 3.029629 1_555
Sb2 Zr3 3.053660 1_555
Sb2 Zr5 3.058048 1_555
Sb2 Zr8 3.165204 1_455
Sb2 Zr17 3.186545 1_555
Sb2 Zr15 3.211060 1_555
Sb2 Zr26 3.623865 1_455
Sb3 Zr2 2.863383 1_555
Sb3 Zr4 2.896877 1_555
Sb3 Zr12 2.945358 1_565
Sb3 Zr26 2.966747 1_555
Sb3 Zr24 3.033533 1_565
Sb3 Zr3 3.052177 1_655
Sb3 Zr16 3.056176 1_555
Sb3 Zr11 3.069044 1_665
Sb3 Zr15 3.320693 1_555
Sb4 Zr14 2.870827 1_555
Sb4 Zr19 2.886597 1_555
Sb4 Zr10 2.931501 1_555
Sb4 Zr4 2.947963 1_555
Sb4 Zr26 2.956671 1_555
Sb4 Zr18 2.965048 1_555
Sb4 Zr16 3.017110 1_555
Sb4 Zr6 3.094117 1_555
Sb4 Zr1 3.134880 1_555
Sb5 Zr7 2.902147 1_555
Sb5 Zr20 2.977930 1_444
Sb5 Zr22 3.016664 1_454
Sb5 Zr3 3.029629 1_545
Sb5 Zr9 3.053660 1_555
Sb5 Zr11 3.058048 1_555
Sb5 Zr2 3.165204 1_445
Sb5 Zr23 3.186545 1_555
Sb5 Zr21 3.211060 1_555
Sb5 Zr27 3.623865 1_455
Sb6 Zr8 2.863383 1_555
Sb6 Zr10 2.896877 1_554
Sb6 Zr6 2.945358 1_554
Sb6 Zr27 2.966747 1_555
Sb6 Zr18 3.033533 1_554
Sb6 Zr9 3.052177 1_655
Sb6 Zr22 3.056176 1_554
Sb6 Zr5 3.069044 1_655
Sb6 Zr21 3.320693 1_555
Sb7 Zr7 2.870827 1_565
Sb7 Zr2 2.886597 1_555
Sb7 Zr23 2.931501 1_565
Sb7 Zr17 2.947963 1_555
Sb7 Zr0 2.956671 1_554
Sb7 Zr3 2.965048 1_555
Sb7 Zr5 3.017110 1_555
Sb7 Zr15 3.094117 1_555
Sb7 Zr27 3.134880 1_565
Sb8 Zr20 2.870827 1_545
Sb8 Zr25 2.886597 1_555
Sb8 Zr4 2.931501 1_545
Sb8 Zr10 2.947963 1_555
Sb8 Zr27 2.956671 1_556
Sb8 Zr24 2.965048 1_555
Sb8 Zr22 3.017110 1_555
Sb8 Zr12 3.094117 1_555
Sb8 Zr0 3.134880 1_545
Sb9 Zr19 2.863383 1_555
Sb9 Zr17 2.896877 1_556
Sb9 Zr21 2.945358 1_556
Sb9 Zr0 2.966747 1_555
Sb9 Zr9 3.033533 1_556
Sb9 Zr18 3.052177 1_455
Sb9 Zr5 3.056176 1_556
Sb9 Zr22 3.069044 1_455
Sb9 Zr6 3.320693 1_555
Sb10 Zr13 2.870827 1_555
Sb10 Zr8 2.886597 1_555
Sb10 Zr17 2.931501 1_555
Sb10 Zr23 2.947963 1_555
Sb10 Zr1 2.956671 1_555
Sb10 Zr9 2.965048 1_555
Sb10 Zr11 3.017110 1_555
Sb10 Zr21 3.094117 1_555
Sb10 Zr26 3.134880 1_555
Sb11 Zr25 2.863383 1_555
Sb11 Zr23 2.896877 1_555
Sb11 Zr15 2.945358 1_545
Sb11 Zr1 2.966747 1_555
Sb11 Zr3 3.033533 1_545
Sb11 Zr24 3.052177 1_455
Sb11 Zr11 3.056176 1_555
Sb11 Zr16 3.069044 1_445
Sb11 Zr12 3.320693 1_555
Sb12 Zr3 2.892006 1_655
Sb12 Zr20 2.896665 1_554
Sb12 Zr8 2.900328 1_555
Sb12 Zr17 2.906938 1_555
Sb12 Zr2 2.951690 1_555
Sb12 Zr6 2.961583 1_554
Sb12 Zr5 2.962068 1_655
Sb12 Zr26 3.080543 1_555
Sb13 Zr9 2.892006 1_655
Sb13 Zr14 2.896665 1_555
Sb13 Zr2 2.900328 1_545
Sb13 Zr23 2.906938 1_555
Sb13 Zr8 2.951690 1_555
Sb13 Zr12 2.961583 1_555
Sb13 Zr11 2.962068 1_655
Sb13 Zr27 3.080543 1_555
Sb14 Zr20 2.902147 1_555
Sb14 Zr7 2.977930 1_666
Sb14 Zr5 3.016664 1_656
Sb14 Zr24 3.029629 1_565
Sb14 Zr18 3.053660 1_555
Sb14 Zr16 3.058048 1_555
Sb14 Zr25 3.165204 1_665
Sb14 Zr4 3.186545 1_555
Sb14 Zr6 3.211060 1_555
Sb14 Zr0 3.623865 1_655
Sb15 Zr14 2.902147 1_555
Sb15 Zr13 2.977930 1_655
Sb15 Zr11 3.016664 1_655
Sb15 Zr18 3.029629 1_555
Sb15 Zr24 3.053660 1_555
Sb15 Zr22 3.058048 1_555
Sb15 Zr19 3.165204 1_655
Sb15 Zr10 3.186545 1_555
Sb15 Zr12 3.211060 1_555
Sb15 Zr1 3.623865 1_655
