# generated using pymatgen
data_KSiAgF6
_symmetry_space_group_name_H-M   'P 1'
_cell_length_a   5.48958877
_cell_length_b   9.30497759
_cell_length_c   9.86139172
_cell_angle_alpha   90.00000000
_cell_angle_beta   90.00000000
_cell_angle_gamma   90.00000000
_symmetry_Int_Tables_number   1
_chemical_formula_structural   KSiAgF6
_chemical_formula_sum   'K4 Si4 Ag4 F24'
_cell_volume   503.72482475
_cell_formula_units_Z   4
loop_
 _symmetry_equiv_pos_site_id
 _symmetry_equiv_pos_as_xyz
  1  'x, y, z'
loop_
 _atom_site_type_symbol
 _atom_site_label
 _atom_site_symmetry_multiplicity
 _atom_site_fract_x
 _atom_site_fract_y
 _atom_site_fract_z
 _atom_site_occupancy
  K  K0  1  0.75000000  0.97915452  0.31876041  1
  K  K1  1  0.25000000  0.52084548  0.81876041  1
  K  K2  1  0.25000000  0.02084548  0.68123959  1
  K  K3  1  0.75000000  0.47915452  0.18123959  1
  Si  Si0  1  0.75000000  0.25958378  0.57657082  1
  Si  Si1  1  0.25000000  0.24041622  0.07657082  1
  Si  Si2  1  0.75000000  0.75958378  0.92342918  1
  Si  Si3  1  0.25000000  0.74041622  0.42342918  1
  Ag  Ag0  1  0.75000000  0.12273797  0.94283262  1
  Ag  Ag1  1  0.75000000  0.62273797  0.55716738  1
  Ag  Ag2  1  0.25000000  0.37726203  0.44283262  1
  Ag  Ag3  1  0.25000000  0.87726203  0.05716738  1
  F  F0  1  0.53089907  0.16458779  0.49463206  1
  F  F1  1  0.96921008  0.35739338  0.65446377  1
  F  F2  1  0.75000000  0.13677735  0.70368294  1
  F  F3  1  0.96910093  0.66458779  0.00536794  1
  F  F4  1  0.03078992  0.64260662  0.34553623  1
  F  F5  1  0.96910093  0.16458779  0.49463206  1
  F  F6  1  0.25000000  0.61849849  0.55576507  1
  F  F7  1  0.03089907  0.83541221  0.50536794  1
  F  F8  1  0.25000000  0.86322265  0.29631706  1
  F  F9  1  0.25000000  0.36322265  0.20368294  1
  F  F10  1  0.46921008  0.14260662  0.15446377  1
  F  F11  1  0.53089907  0.66458779  0.00536794  1
  F  F12  1  0.75000000  0.63677735  0.79631706  1
  F  F13  1  0.03078992  0.14260662  0.15446377  1
  F  F14  1  0.46910093  0.83541221  0.50536794  1
  F  F15  1  0.75000000  0.88150151  0.05576507  1
  F  F16  1  0.03089907  0.33541221  0.99463206  1
  F  F17  1  0.46921008  0.64260662  0.34553623  1
  F  F18  1  0.46910093  0.33541221  0.99463206  1
  F  F19  1  0.96921008  0.85739338  0.84553623  1
  F  F20  1  0.25000000  0.11849849  0.94423493  1
  F  F21  1  0.75000000  0.38150151  0.44423493  1
  F  F22  1  0.53078992  0.85739338  0.84553623  1
  F  F23  1  0.53078992  0.35739338  0.65446377  1
loop_
_geom_bond_atom_site_label_1
_geom_bond_atom_site_label_2
_geom_bond_distance
_geom_bond_site_symmetry_2
Ag0 F2 2.361964 1_555
Ag0 F15 2.505781 1_546
Ag0 F16 2.560257 1_655
Ag0 F18 2.560257 1_555
Ag0 F13 2.601083 1_656
Ag0 F10 2.601083 1_556
Ag1 F12 2.361964 1_555
Ag1 F21 2.505781 1_555
Ag1 F7 2.560257 1_655
Ag1 F14 2.560257 1_555
Ag1 F4 2.601083 1_655
Ag1 F17 2.601083 1_555
Ag2 F9 2.361964 1_555
Ag2 F6 2.505781 1_555
Ag2 F0 2.560257 1_555
Ag2 F5 2.560257 1_455
Ag2 F23 2.601083 1_555
Ag2 F1 2.601083 1_455
Ag3 F8 2.361964 1_555
Ag3 F20 2.505781 1_564
Ag3 F11 2.560257 1_555
Ag3 F3 2.560257 1_455
Ag3 F22 2.601083 1_554
Ag3 F19 2.601083 1_454
F0 Si0 1.697327 1_555
F0 K0 2.726130 1_545
F0 K2 2.748301 1_555
F1 Si0 1.693058 1_555
F1 K1 2.704477 1_655
F2 Si0 1.696189 1_555
F2 K2 2.957460 1_655
F2 K2 2.957460 1_555
F3 Si2 1.697327 1_554
F3 K3 2.726130 1_555
F3 K1 2.748301 1_654
F4 Si3 1.693058 1_555
F4 K3 2.704477 1_455
F5 Si0 1.697327 1_555
F5 K0 2.726130 1_545
F5 K2 2.748301 1_655
F6 Si3 1.729169 1_555
F6 K1 2.748073 1_555
F7 Si3 1.697327 1_555
F7 K2 2.726130 1_565
F7 K0 2.748301 1_455
F8 Si3 1.696189 1_555
F8 K0 2.957460 1_555
F8 K0 2.957460 1_455
F9 Si1 1.696189 1_555
F9 K3 2.957460 1_455
F9 K3 2.957460 1_555
F10 Si1 1.693058 1_555
F10 K0 2.704477 1_545
F11 Si2 1.697327 1_554
F11 K3 2.726130 1_555
F11 K1 2.748301 1_554
F12 Si2 1.696189 1_555
F12 K1 2.957460 1_555
F12 K1 2.957460 1_655
F13 Si1 1.693058 1_555
F13 K0 2.704477 1_445
F14 Si3 1.697327 1_555
F14 K2 2.726130 1_565
F14 K0 2.748301 1_555
F15 Si2 1.729169 1_554
F15 K0 2.748073 1_555
F16 Si1 1.697327 1_556
F16 K1 2.726130 1_555
F16 K3 2.748301 1_456
F17 Si3 1.693058 1_555
F17 K3 2.704477 1_555
F18 Si1 1.697327 1_556
F18 K1 2.726130 1_555
F18 K3 2.748301 1_556
F19 Si2 1.693058 1_555
F19 K2 2.704477 1_665
F20 Si1 1.729169 1_556
F20 K2 2.748073 1_555
F21 Si0 1.729169 1_555
F21 K3 2.748073 1_555
F22 Si2 1.693058 1_555
F22 K2 2.704477 1_565
F23 Si0 1.693058 1_555
F23 K1 2.704477 1_555
