# generated using pymatgen
data_Cs4Bi2Au7
_symmetry_space_group_name_H-M   'P 1'
_cell_length_a   11.37849885
_cell_length_b   11.37849850
_cell_length_c   11.37849853
_cell_angle_alpha   35.68745713
_cell_angle_beta   35.68746158
_cell_angle_gamma   35.68745558
_symmetry_Int_Tables_number   1
_chemical_formula_structural   Cs4Bi2Au7
_chemical_formula_sum   'Cs4 Bi2 Au7'
_cell_volume   448.16851860
_cell_formula_units_Z   1
loop_
 _symmetry_equiv_pos_site_id
 _symmetry_equiv_pos_as_xyz
  1  'x, y, z'
loop_
 _atom_site_type_symbol
 _atom_site_label
 _atom_site_symmetry_multiplicity
 _atom_site_fract_x
 _atom_site_fract_y
 _atom_site_fract_z
 _atom_site_occupancy
  Cs  Cs0  1  0.81294936  0.81294936  0.81294936  1
  Cs  Cs1  1  0.68710313  0.68710313  0.68710313  1
  Cs  Cs2  1  0.31289687  0.31289687  0.31289687  1
  Cs  Cs3  1  0.18705064  0.18705064  0.18705064  1
  Bi  Bi0  1  0.44336225  0.44336225  0.44336225  1
  Bi  Bi1  1  0.55663775  0.55663775  0.55663775  1
  Au  Au0  1  0.79556440  0.79556440  0.18975523  1
  Au  Au1  1  0.20443560  0.81024477  0.20443560  1
  Au  Au2  1  0.79556440  0.18975523  0.79556440  1
  Au  Au3  1  0.81024477  0.20443560  0.20443560  1
  Au  Au4  1  0.18975523  0.79556440  0.79556440  1
  Au  Au5  1  0.00000000  0.00000000  0.00000000  1
  Au  Au6  1  0.20443560  0.20443560  0.81024477  1
loop_
_geom_bond_atom_site_label_1
_geom_bond_atom_site_label_2
_geom_bond_distance
_geom_bond_site_symmetry_2
Cs0 Cs1 4.017933 1_555
Cs0 Cs3 4.231181 1_656
Cs0 Cs3 4.231181 1_566
Cs0 Cs3 4.231181 1_665
Cs1 Cs2 4.232213 1_565
Cs1 Cs2 4.232214 1_655
Cs1 Cs2 4.232214 1_556
Cs2 Cs3 4.017933 1_555
Bi0 Cs2 4.165410 1_555
Bi0 Cs0 4.189090 1_545
Bi0 Cs0 4.189090 1_455
Bi0 Cs0 4.189090 1_554
Bi1 Cs1 4.165410 1_555
Bi1 Cs3 4.189090 1_565
Bi1 Cs3 4.189090 1_655
Bi1 Cs3 4.189090 1_556
Au0 Bi1 2.709877 1_555
Au0 Au2 2.748788 1_564
Au0 Au4 2.748788 1_654
Au0 Au5 2.820728 1_665
Au0 Cs1 3.854267 1_555
Au0 Cs2 3.893396 1_655
Au0 Cs2 3.893396 1_565
Au0 Cs0 3.971010 1_554
Au0 Cs3 4.219776 1_655
Au0 Cs3 4.219776 1_565
Au1 Bi0 2.709876 1_555
Au1 Au3 2.748788 1_465
Au1 Au6 2.748788 1_564
Au1 Au5 2.820727 1_565
Au1 Cs2 3.854267 1_555
Au1 Cs1 3.893397 1_554
Au1 Cs1 3.893397 1_455
Au1 Cs3 3.971010 1_565
Au1 Cs0 4.219776 1_455
Au1 Cs0 4.219776 1_554
Au2 Bi1 2.709876 1_555
Au2 Au4 2.748788 1_645
Au2 Au5 2.820727 1_656
Au2 Cs1 3.854267 1_555
Au2 Cs2 3.893397 1_556
Au2 Cs2 3.893397 1_655
Au2 Cs0 3.971010 1_545
Au2 Cs3 4.219776 1_655
Au2 Cs3 4.219776 1_556
Au3 Bi0 2.709877 1_555
Au3 Au6 2.748788 1_654
Au3 Au5 2.820727 1_655
Au3 Cs2 3.854267 1_555
Au3 Cs1 3.893396 1_554
Au3 Cs1 3.893396 1_545
Au3 Cs3 3.971010 1_655
Au3 Cs0 4.219776 1_554
Au3 Cs0 4.219776 1_545
Au4 Bi1 2.709877 1_555
Au4 Au5 2.820727 1_566
Au4 Cs1 3.854267 1_555
Au4 Cs2 3.893396 1_556
Au4 Cs2 3.893396 1_565
Au4 Cs0 3.971010 1_455
Au4 Cs3 4.219776 1_556
Au4 Cs3 4.219776 1_565
Au5 Au6 2.820728 1_554
Au5 Cs1 4.078533 1_454
Au5 Cs2 4.078533 1_545
Au5 Cs1 4.078534 1_544
Au5 Cs2 4.078534 1_455
Au5 Cs1 4.078534 1_445
Au5 Cs2 4.078534 1_554
Au6 Bi0 2.709877 1_555
Au6 Cs2 3.854267 1_555
Au6 Cs1 3.893396 1_455
Au6 Cs1 3.893396 1_545
Au6 Cs3 3.971010 1_556
Au6 Cs0 4.219776 1_455
Au6 Cs0 4.219776 1_545
