# generated using pymatgen
data_Sr4CuNiH12
_symmetry_space_group_name_H-M   'P 1'
_cell_length_a   7.44064132
_cell_length_b   7.44064042
_cell_length_c   5.41543322
_cell_angle_alpha   90.03036161
_cell_angle_beta   90.03036478
_cell_angle_gamma   137.32565783
_symmetry_Int_Tables_number   1
_chemical_formula_structural   Sr4CuNiH12
_chemical_formula_sum   'Sr4 Cu1 Ni1 H12'
_cell_volume   203.22378464
_cell_formula_units_Z   1
loop_
 _symmetry_equiv_pos_site_id
 _symmetry_equiv_pos_as_xyz
  1  'x, y, z'
loop_
 _atom_site_type_symbol
 _atom_site_label
 _atom_site_symmetry_multiplicity
 _atom_site_fract_x
 _atom_site_fract_y
 _atom_site_fract_z
 _atom_site_occupancy
  Sr  Sr0  1  0.14393666  0.85606334  0.50000000  1
  Sr  Sr1  1  0.64413712  0.35586288  1.00000000  1
  Sr  Sr2  1  0.85606334  0.14393666  0.50000000  1
  Sr  Sr3  1  0.35586288  0.64413712  0.00000000  1
  Cu  Cu0  1  0.00000000  0.00000000  0.00000000  1
  Ni  Ni0  1  0.50000000  0.50000000  0.50000000  1
  H  H0  1  0.99986088  0.50005025  0.74957711  1
  H  H1  1  0.49994975  0.00013912  0.25042289  1
  H  H2  1  0.00013912  0.49994975  0.25042289  1
  H  H3  1  0.50005025  0.99986088  0.74957711  1
  H  H4  1  0.38863836  0.61136164  0.50000000  1
  H  H5  1  0.88782999  0.11217001  1.00000000  1
  H  H6  1  0.61136164  0.38863836  0.50000000  1
  H  H7  1  0.11217001  0.88782999  0.00000000  1
  H  H8  1  0.28474560  0.28474560  0.71566039  1
  H  H9  1  0.71525440  0.71525440  0.28433961  1
  H  H10  1  0.28389858  0.28389858  0.28414494  1
  H  H11  1  0.71610142  0.71610142  0.71585506  1
loop_
_geom_bond_atom_site_label_1
_geom_bond_atom_site_label_2
_geom_bond_distance
_geom_bond_site_symmetry_2
Cu0 H7 1.554816 1_545
Cu0 H5 1.554816 1_454
Cu0 H10 2.173459 1_555
Cu0 H11 2.173459 1_444
Cu0 H9 2.180619 1_445
Cu0 H8 2.180619 1_554
H0 Sr2 2.412138 1_555
H0 Sr0 2.413018 1_655
H0 Sr3 2.413282 1_656
H0 Sr1 2.413631 1_555
H1 Sr2 2.412139 1_555
H1 Sr0 2.413018 1_545
H1 Sr3 2.413281 1_545
H1 Sr1 2.413631 1_554
H2 Sr0 2.412138 1_555
H2 Sr2 2.413018 1_455
H2 Sr1 2.413282 1_454
H2 Sr3 2.413631 1_555
H3 Sr0 2.412139 1_555
H3 Sr2 2.413018 1_565
H3 Sr1 2.413281 1_565
H3 Sr3 2.413631 1_556
H4 Ni0 1.543611 1_555
H4 Sr2 2.744714 1_565
H4 Sr2 2.744714 1_455
H4 Sr3 2.745565 1_555
H4 Sr3 2.745565 1_556
H5 Sr2 2.743286 1_555
H5 Sr2 2.743286 1_556
H5 Sr3 2.743340 1_656
H5 Sr3 2.743340 1_546
H6 Ni0 1.543611 1_555
H6 Sr0 2.744714 1_545
H6 Sr0 2.744714 1_655
H6 Sr1 2.745565 1_555
H6 Sr1 2.745565 1_554
H7 Sr0 2.743286 1_555
H7 Sr0 2.743286 1_554
H7 Sr1 2.743340 1_454
H7 Sr1 2.743340 1_564
H8 Ni0 1.651178 1_555
H8 Sr3 2.777761 1_556
H8 Sr1 2.777762 1_555
H8 Sr0 2.777850 1_545
H8 Sr2 2.777851 1_455
H9 Ni0 1.651178 1_555
H9 Sr1 2.777761 1_554
H9 Sr3 2.777762 1_555
H9 Sr2 2.777850 1_565
H9 Sr0 2.777851 1_655
H10 Ni0 1.652760 1_555
H10 Sr0 2.777638 1_545
H10 Sr2 2.777639 1_455
H10 Sr3 2.780988 1_555
H10 Sr1 2.780989 1_554
H11 Ni0 1.652760 1_555
H11 Sr2 2.777638 1_565
H11 Sr0 2.777639 1_655
H11 Sr1 2.780988 1_555
H11 Sr3 2.780989 1_556
