# generated using pymatgen
data_Ba2Li4CaBi4
_symmetry_space_group_name_H-M   'P 1'
_cell_length_a   9.41025733
_cell_length_b   9.41025697
_cell_length_c   9.41025802
_cell_angle_alpha   148.61291950
_cell_angle_beta   133.15557375
_cell_angle_gamma   57.47620004
_symmetry_Int_Tables_number   1
_chemical_formula_structural   Ba2Li4CaBi4
_chemical_formula_sum   'Ba2 Li4 Ca1 Bi4'
_cell_volume   314.24881879
_cell_formula_units_Z   1
loop_
 _symmetry_equiv_pos_site_id
 _symmetry_equiv_pos_as_xyz
  1  'x, y, z'
loop_
 _atom_site_type_symbol
 _atom_site_label
 _atom_site_symmetry_multiplicity
 _atom_site_fract_x
 _atom_site_fract_y
 _atom_site_fract_z
 _atom_site_occupancy
  Ba  Ba0  1  0.63087635  0.13087635  0.50000000  1
  Ba  Ba1  1  0.36912365  0.86912365  0.50000000  1
  Li  Li0  1  0.98170382  0.67355343  0.30815039  1
  Li  Li1  1  0.01829618  0.32644657  0.69184961  1
  Li  Li2  1  0.63459695  0.32644657  0.30815039  1
  Li  Li3  1  0.36540305  0.67355343  0.69184961  1
  Ca  Ca0  1  0.00000000  0.00000000  0.00000000  1
  Bi  Bi0  1  0.79289779  0.79289779  1.00000000  1
  Bi  Bi1  1  0.20710221  0.20710221  0.00000000  1
  Bi  Bi2  1  0.70890035  0.50000000  0.20890035  1
  Bi  Bi3  1  0.29109965  0.50000000  0.79109965  1
loop_
_geom_bond_atom_site_label_1
_geom_bond_atom_site_label_2
_geom_bond_distance
_geom_bond_site_symmetry_2
Ba0 Li3 3.505660 1_555
Ba0 Li0 3.505660 1_556
Ba0 Li0 3.505660 1_545
Ba0 Li3 3.505660 1_544
Ba0 Li1 3.532121 1_655
Ba0 Li2 3.532121 1_555
Ba0 Bi3 3.685929 1_544
Ba0 Bi2 3.685929 1_545
Ba0 Bi3 3.685929 1_555
Ba0 Bi2 3.685930 1_556
Ba0 Bi0 3.691597 1_555
Ba0 Bi0 3.691598 1_544
Ba0 Bi1 3.946454 1_656
Ba0 Bi1 3.946454 1_555
Ba0 Ca0 4.319347 1_555
Ba0 Ca0 4.319347 1_656
Ba0 Ba1 4.319529 1_545
Ba1 Li2 3.505660 1_555
Ba1 Li1 3.505660 1_554
Ba1 Li1 3.505660 1_565
Ba1 Li2 3.505660 1_566
Ba1 Li0 3.532121 1_455
Ba1 Li3 3.532121 1_555
Ba1 Bi2 3.685929 1_566
Ba1 Bi3 3.685929 1_565
Ba1 Bi2 3.685929 1_555
Ba1 Bi3 3.685930 1_554
Ba1 Bi1 3.691597 1_555
Ba1 Bi1 3.691598 1_566
Ba1 Bi0 3.946454 1_454
Ba1 Bi0 3.946454 1_555
Ba1 Ca0 4.319347 1_666
Ba1 Ca0 4.319347 1_565
Li0 Li3 2.870540 1_655
Li1 Li2 2.870540 1_455
Bi0 Li2 2.974149 1_566
Bi0 Li1 2.974149 1_666
Bi0 Li1 2.974149 1_655
Bi0 Li2 2.974149 1_555
Bi0 Li3 3.032057 1_555
Bi0 Li0 3.032058 1_556
Bi0 Ca0 3.417669 1_666
Bi1 Li3 2.974149 1_544
Bi1 Li0 2.974149 1_444
Bi1 Li0 2.974149 1_455
Bi1 Li3 2.974149 1_555
Bi1 Li2 3.032057 1_555
Bi1 Li1 3.032058 1_554
Bi1 Ca0 3.417669 1_555
Bi2 Li0 2.958720 1_555
Bi2 Li2 2.958720 1_555
Bi2 Bi3 3.125661 1_554
Bi2 Ca0 3.349893 1_655
Bi2 Ca0 3.349894 1_666
Bi3 Li1 2.958720 1_555
Bi3 Li3 2.958720 1_555
Bi3 Ca0 3.349893 1_566
Bi3 Ca0 3.349894 1_555
