# generated using pymatgen
data_Zn4As(PN2)6
_symmetry_space_group_name_H-M   'P 1'
_cell_length_a   7.12460632
_cell_length_b   7.12460719
_cell_length_c   7.12460679
_cell_angle_alpha   109.47122228
_cell_angle_beta   109.47122473
_cell_angle_gamma   109.47122191
_symmetry_Int_Tables_number   1
_chemical_formula_structural   Zn4As(PN2)6
_chemical_formula_sum   'Zn4 As1 P6 N12'
_cell_volume   278.39457560
_cell_formula_units_Z   1
loop_
 _symmetry_equiv_pos_site_id
 _symmetry_equiv_pos_as_xyz
  1  'x, y, z'
loop_
 _atom_site_type_symbol
 _atom_site_label
 _atom_site_symmetry_multiplicity
 _atom_site_fract_x
 _atom_site_fract_y
 _atom_site_fract_z
 _atom_site_occupancy
  Zn  Zn0  1  1.00000000  0.34166612  1.00000000  1
  Zn  Zn1  1  0.65833388  0.65833388  0.65833388  1
  Zn  Zn2  1  0.34166612  0.00000000  0.00000000  1
  Zn  Zn3  1  0.00000000  0.00000000  0.34166612  1
  As  As0  1  0.00000000  0.00000000  0.00000000  1
  P  P0  1  0.75000000  0.25000000  0.50000000  1
  P  P1  1  0.25000000  0.75000000  0.50000000  1
  P  P2  1  0.50000000  0.75000000  0.25000000  1
  P  P3  1  0.50000000  0.25000000  0.75000000  1
  P  P4  1  0.75000000  0.50000000  0.25000000  1
  P  P5  1  0.25000000  0.50000000  0.75000000  1
  N  N0  1  0.55541939  0.27267269  0.00000000  1
  N  N1  1  0.44458061  0.44458061  0.71725330  1
  N  N2  1  0.00000000  0.27267269  0.55541939  1
  N  N3  1  0.27267269  0.00000000  0.55541939  1
  N  N4  1  0.71725330  0.44458061  0.44458061  1
  N  N5  1  0.00000000  0.55541939  0.27267269  1
  N  N6  1  0.55541939  0.00000000  0.27267269  1
  N  N7  1  0.44458061  0.71725330  0.44458061  1
  N  N8  1  0.27267269  0.55541939  0.00000000  1
  N  N9  1  0.72732731  0.28274670  0.72732731  1
  N  N10  1  0.72732731  0.72732731  0.28274670  1
  N  N11  1  0.28274670  0.72732731  0.72732731  1
loop_
_geom_bond_atom_site_label_1
_geom_bond_atom_site_label_2
_geom_bond_distance
_geom_bond_site_symmetry_2
As0 Zn1 2.434236 1_444
As0 Zn2 2.434237 1_555
As0 Zn3 2.434237 1_555
As0 Zn0 2.434237 1_454
N0 P4 1.628286 1_555
N0 P3 1.628286 1_554
N0 Zn2 2.030005 1_555
N1 P5 1.628286 1_555
N1 P3 1.628286 1_555
N1 Zn1 2.030005 1_555
N2 P5 1.628286 1_555
N2 P0 1.628286 1_455
N2 Zn3 2.030005 1_555
N3 P3 1.628286 1_555
N3 P1 1.628286 1_545
N3 Zn3 2.030005 1_555
N4 P4 1.628286 1_555
N4 P0 1.628286 1_555
N4 Zn1 2.030005 1_555
N5 P1 1.628286 1_555
N5 P4 1.628286 1_455
N5 Zn0 2.030005 1_454
N6 P0 1.628286 1_555
N6 P2 1.628286 1_545
N6 Zn2 2.030005 1_555
N7 P1 1.628286 1_555
N7 P2 1.628286 1_555
N7 Zn1 2.030005 1_555
N8 P2 1.628286 1_555
N8 P5 1.628286 1_554
N8 Zn0 2.030005 1_454
N9 P3 1.628286 1_555
N9 P0 1.628286 1_555
N9 Zn0 2.030005 1_555
N10 P2 1.628286 1_555
N10 P4 1.628286 1_555
N10 Zn3 2.030005 1_665
N11 P1 1.628286 1_555
N11 P5 1.628286 1_555
N11 Zn2 2.030005 1_566
