# generated using pymatgen
data_Lu6CrB14Os
_symmetry_space_group_name_H-M   'P 1'
_cell_length_a   7.86752841
_cell_length_b   7.86752805
_cell_length_c   9.16826768
_cell_angle_alpha   90.00000000
_cell_angle_beta   90.00000000
_cell_angle_gamma   154.88634632
_symmetry_Int_Tables_number   1
_chemical_formula_structural   Lu6CrB14Os
_chemical_formula_sum   'Lu6 Cr1 B14 Os1'
_cell_volume   240.85454348
_cell_formula_units_Z   1
loop_
 _symmetry_equiv_pos_site_id
 _symmetry_equiv_pos_as_xyz
  1  'x, y, z'
loop_
 _atom_site_type_symbol
 _atom_site_label
 _atom_site_symmetry_multiplicity
 _atom_site_fract_x
 _atom_site_fract_y
 _atom_site_fract_z
 _atom_site_occupancy
  Lu  Lu0  1  0.10586442  0.89413558  0.06042021  1
  Lu  Lu1  1  0.89396048  0.10603952  0.94265519  1
  Lu  Lu2  1  0.75751869  0.24248131  0.25000000  1
  Lu  Lu3  1  0.24455920  0.75544080  0.75000000  1
  Lu  Lu4  1  0.10586442  0.89413558  0.43957979  1
  Lu  Lu5  1  0.89396048  0.10603952  0.55734481  1
  Cr  Cr0  1  0.94780872  0.05219128  0.25000000  1
  B  B0  1  0.72739008  0.27260992  0.53516927  1
  B  B1  1  0.27187486  0.72812514  0.46537995  1
  B  B2  1  0.27187486  0.72812514  0.03462005  1
  B  B3  1  0.72739008  0.27260992  0.96483073  1
  B  B4  1  0.51892844  0.48107156  0.90562607  1
  B  B5  1  0.48057188  0.51942812  0.09553216  1
  B  B6  1  0.48057188  0.51942812  0.40446784  1
  B  B7  1  0.51892844  0.48107156  0.59437393  1
  B  B8  1  0.45231335  0.54768665  0.75000000  1
  B  B9  1  0.54670238  0.45329762  0.25000000  1
  B  B10  1  0.63193059  0.36806941  0.64938610  1
  B  B11  1  0.36840987  0.63159013  0.34892963  1
  B  B12  1  0.36840987  0.63159013  0.15107037  1
  B  B13  1  0.63193059  0.36806941  0.85061390  1
  Os  Os0  1  0.05323541  0.94676459  0.75000000  1
loop_
_geom_bond_atom_site_label_1
_geom_bond_atom_site_label_2
_geom_bond_distance
_geom_bond_site_symmetry_2
Lu3 Os0 2.938482 1_555
B0 B10 1.801697 1_555
B0 B1 1.949842 1_545
B0 B1 1.949842 1_655
B0 Lu5 2.566369 1_555
B0 Lu3 2.621954 1_545
B0 Lu3 2.621954 1_655
B0 Lu2 2.655142 1_555
B0 Lu4 2.679079 1_655
B0 Lu4 2.679080 1_545
B1 B11 1.827054 1_555
B1 Lu4 2.560651 1_555
B1 Lu2 2.621752 1_565
B1 Lu2 2.621752 1_455
B1 Lu3 2.642982 1_555
B1 Lu5 2.674416 1_455
B1 Lu5 2.674416 1_565
B2 B3 1.949842 1_564
B2 B3 1.949842 1_454
B2 Lu0 2.560651 1_555
B2 Lu2 2.621752 1_565
B2 Lu2 2.621752 1_455
B2 Lu3 2.642982 1_554
B2 Lu1 2.674416 1_454
B2 Lu1 2.674416 1_564
B3 Lu1 2.566369 1_555
B3 Lu3 2.621954 1_545
B3 Lu3 2.621954 1_655
B3 Lu2 2.655142 1_556
B3 Lu0 2.679079 1_656
B3 Lu0 2.679080 1_546
B4 B8 1.755732 1_555
B4 B5 1.838072 1_556
B4 Os0 2.288915 1_545
B4 Os0 2.288916 1_655
B4 Lu0 2.592800 1_546
B4 Lu0 2.592800 1_656
B4 Lu1 2.593225 1_565
B4 Lu1 2.593225 1_455
B5 B9 1.742765 1_555
B5 Cr0 2.276954 1_565
B5 Cr0 2.276954 1_455
B5 Lu1 2.580648 1_564
B5 Lu1 2.580648 1_454
B5 Lu0 2.594678 1_545
B5 Lu0 2.594678 1_655
B6 B9 1.742765 1_555
B6 B7 1.838072 1_555
B6 Cr0 2.276954 1_565
B6 Cr0 2.276954 1_455
B6 Lu5 2.580648 1_565
B6 Lu5 2.580648 1_455
B6 Lu4 2.594678 1_545
B6 Lu4 2.594678 1_655
B7 B8 1.755732 1_555
B7 Os0 2.288915 1_545
B7 Os0 2.288916 1_655
B7 Lu4 2.592800 1_545
B7 Lu4 2.592800 1_655
B7 Lu5 2.593225 1_565
B7 Lu5 2.593225 1_455
B8 Os0 2.308305 1_545
B8 Os0 2.308306 1_655
B8 Lu5 2.617014 1_565
B8 Lu1 2.617014 1_565
B8 Lu5 2.617014 1_455
B8 Lu1 2.617014 1_455
B8 Lu3 3.190831 1_555
B9 Cr0 2.287502 1_565
B9 Cr0 2.287503 1_455
B9 Lu4 2.602380 1_545
B9 Lu0 2.602380 1_545
B9 Lu4 2.602380 1_655
B9 Lu0 2.602380 1_655
B9 Lu2 3.237862 1_555
B10 B7 1.807366 1_555
B10 B13 1.844910 1_555
B10 Os0 2.288548 1_655
B10 Os0 2.288548 1_545
B10 Lu3 2.601712 1_545
B10 Lu3 2.601713 1_655
B10 Lu4 2.605003 1_655
B10 Lu4 2.605003 1_545
B11 B6 1.796339 1_555
B11 B12 1.814027 1_555
B11 Cr0 2.288109 1_455
B11 Cr0 2.288109 1_565
B11 Lu2 2.578575 1_565
B11 Lu2 2.578575 1_455
B11 Lu5 2.594390 1_455
B11 Lu5 2.594390 1_565
B12 B5 1.796339 1_555
B12 B2 1.827054 1_555
B12 Cr0 2.288109 1_455
B12 Cr0 2.288109 1_565
B12 Lu2 2.578575 1_565
B12 Lu2 2.578575 1_455
B12 Lu1 2.594390 1_454
B12 Lu1 2.594390 1_564
B13 B3 1.801697 1_555
B13 B4 1.807366 1_555
B13 Os0 2.288548 1_655
B13 Os0 2.288548 1_545
B13 Lu3 2.601712 1_545
B13 Lu3 2.601713 1_655
B13 Lu0 2.605003 1_656
B13 Lu0 2.605003 1_546
