# generated using pymatgen
data_Al11Tc3Ru
_symmetry_space_group_name_H-M   'P 1'
_cell_length_a   5.14034708
_cell_length_b   5.10688259
_cell_length_c   8.93922077
_cell_angle_alpha   104.92178640
_cell_angle_beta   90.78834015
_cell_angle_gamma   99.85742504
_symmetry_Int_Tables_number   1
_chemical_formula_structural   Al11Tc3Ru
_chemical_formula_sum   'Al11 Tc3 Ru1'
_cell_volume   222.99120228
_cell_formula_units_Z   1
loop_
 _symmetry_equiv_pos_site_id
 _symmetry_equiv_pos_as_xyz
  1  'x, y, z'
loop_
 _atom_site_type_symbol
 _atom_site_label
 _atom_site_symmetry_multiplicity
 _atom_site_fract_x
 _atom_site_fract_y
 _atom_site_fract_z
 _atom_site_occupancy
  Al  Al0  1  0.99906276  0.99821997  0.00259047  1
  Al  Al1  1  0.94726097  0.80362498  0.66891147  1
  Al  Al2  1  0.04698403  0.20713287  0.33244977  1
  Al  Al3  1  0.79527567  0.25734366  0.63462904  1
  Al  Al4  1  0.85159290  0.52939488  0.12926400  1
  Al  Al5  1  0.14899033  0.46728724  0.87160932  1
  Al  Al6  1  0.50209203  0.89791750  0.12584451  1
  Al  Al7  1  0.50009925  0.09884876  0.87440598  1
  Al  Al8  1  0.55993498  0.31578369  0.37554370  1
  Al  Al9  1  0.43796618  0.67921184  0.62247815  1
  Al  Al10  1  0.20730125  0.74989285  0.36219718  1
  Tc  Tc0  1  0.72502182  0.84490743  0.40137581  1
  Tc  Tc1  1  0.66235453  0.60745777  0.86509054  1
  Tc  Tc2  1  0.33883474  0.38744314  0.13270712  1
  Ru  Ru0  1  0.27722755  0.15553442  0.60090193  1
loop_
_geom_bond_atom_site_label_1
_geom_bond_atom_site_label_2
_geom_bond_distance
_geom_bond_site_symmetry_2
Al0 Tc2 2.432918 1_665
Al0 Tc1 2.446305 1_554
Al0 Al6 2.814674 1_555
Al0 Al7 2.853351 1_664
Al0 Al2 2.857194 1_665
Al0 Al1 2.883871 1_554
Al0 Al4 2.891557 1_565
Al0 Al4 2.896148 1_555
Al0 Al5 2.902062 1_654
Al0 Al5 2.922388 1_664
Al0 Al6 2.971224 1_655
Al0 Al7 2.971403 1_564
Al1 Ru0 2.454313 1_665
Al1 Al9 2.587355 1_555
Al1 Tc1 2.587846 1_555
Al1 Al3 2.655579 1_565
Al1 Al3 2.700755 1_555
Al1 Tc0 2.708505 1_555
Al1 Al9 2.716648 1_655
Al1 Al5 3.077294 1_655
Al2 Tc0 2.471311 1_445
Al2 Tc2 2.595032 1_555
Al2 Al8 2.601872 1_555
Al2 Al8 2.667657 1_455
Al2 Ru0 2.753777 1_555
Al2 Al3 2.981550 1_455
Al2 Al4 3.011897 1_455
Al3 Tc0 2.524181 1_545
Al3 Tc1 2.543220 1_555
Al3 Ru0 2.622142 1_555
Al3 Ru0 2.622896 1_655
Al3 Al5 2.645744 1_655
Al3 Al8 2.705360 1_555
Al3 Al7 2.848525 1_555
Al4 Tc2 2.614034 1_555
Al4 Tc1 2.690034 1_554
Al4 Tc0 2.705632 1_555
Al4 Tc2 2.725893 1_655
Al4 Al5 2.762095 1_654
Al4 Al6 2.820686 1_555
Al4 Al8 3.008689 1_555
Al4 Al7 3.039094 1_554
Al5 Tc1 2.618852 1_555
Al5 Tc2 2.670184 1_556
Al5 Ru0 2.691528 1_555
Al5 Tc1 2.720989 1_455
Al5 Al7 2.825604 1_555
Al5 Al9 3.019836 1_555
Al5 Al6 3.040009 1_556
Al6 Tc2 2.615115 1_555
Al6 Al8 2.633638 1_565
Al6 Tc1 2.646283 1_554
Al6 Al7 2.701076 1_564
Al6 Tc2 2.756543 1_565
Al6 Tc0 2.797310 1_555
Al7 Tc1 2.611636 1_555
Al7 Tc2 2.628544 1_556
Al7 Al9 2.650783 1_545
Al7 Tc1 2.758799 1_545
Al7 Ru0 2.788345 1_555
Al8 Tc2 2.573230 1_555
Al8 Tc0 2.638809 1_555
Al8 Al9 2.652731 1_555
Al8 Ru0 2.713355 1_555
Al8 Tc0 2.745063 1_545
Al9 Tc1 2.579418 1_555
Al9 Ru0 2.616385 1_555
Al9 Tc0 2.704418 1_555
Al9 Ru0 2.749995 1_565
Al10 Ru0 2.534024 1_565
Al10 Tc2 2.569611 1_555
Al10 Tc0 2.617672 1_455
Al10 Tc0 2.623951 1_555
Al10 Al4 2.632440 1_455
Al10 Al2 2.678621 1_565
Al10 Al2 2.695375 1_555
Al10 Al9 2.729999 1_555
Al10 Al6 2.801795 1_555
