# generated using pymatgen
data_Cs3NbSe3S
_symmetry_space_group_name_H-M   'P 1'
_cell_length_a   10.36707205
_cell_length_b   10.31279011
_cell_length_c   11.85521925
_cell_angle_alpha   90.00000000
_cell_angle_beta   90.00000000
_cell_angle_gamma   90.00000000
_symmetry_Int_Tables_number   1
_chemical_formula_structural   Cs3NbSe3S
_chemical_formula_sum   'Cs12 Nb4 Se12 S4'
_cell_volume   1267.48224891
_cell_formula_units_Z   4
loop_
 _symmetry_equiv_pos_site_id
 _symmetry_equiv_pos_as_xyz
  1  'x, y, z'
loop_
 _atom_site_type_symbol
 _atom_site_label
 _atom_site_symmetry_multiplicity
 _atom_site_fract_x
 _atom_site_fract_y
 _atom_site_fract_z
 _atom_site_occupancy
  Cs  Cs0  1  0.55009809  0.20775572  0.04539152  1
  Cs  Cs1  1  0.05009809  0.29224428  0.45460848  1
  Cs  Cs2  1  0.44990191  0.79224428  0.54539152  1
  Cs  Cs3  1  0.94990191  0.70775572  0.95460848  1
  Cs  Cs4  1  0.44990191  0.79224428  0.95460848  1
  Cs  Cs5  1  0.94990191  0.70775572  0.54539152  1
  Cs  Cs6  1  0.55009809  0.20775572  0.45460848  1
  Cs  Cs7  1  0.05009809  0.29224428  0.04539152  1
  Cs  Cs8  1  0.64422561  0.42030398  0.75000000  1
  Cs  Cs9  1  0.14422561  0.07969602  0.75000000  1
  Cs  Cs10  1  0.35577439  0.57969602  0.25000000  1
  Cs  Cs11  1  0.85577439  0.92030398  0.25000000  1
  Nb  Nb0  1  0.71957102  0.98098839  0.75000000  1
  Nb  Nb1  1  0.21957102  0.51901161  0.75000000  1
  Nb  Nb2  1  0.28042898  0.01901161  0.25000000  1
  Nb  Nb3  1  0.78042898  0.48098839  0.25000000  1
  Se  Se0  1  0.83297457  0.04694682  0.58192420  1
  Se  Se1  1  0.33297457  0.45305318  0.91807580  1
  Se  Se2  1  0.16702543  0.95305318  0.08192420  1
  Se  Se3  1  0.66702543  0.54694682  0.41807580  1
  Se  Se4  1  0.16702543  0.95305318  0.41807580  1
  Se  Se5  1  0.66702543  0.54694682  0.08192420  1
  Se  Se6  1  0.83297457  0.04694682  0.91807580  1
  Se  Se7  1  0.33297457  0.45305318  0.58192420  1
  Se  Se8  1  0.50520322  0.07510288  0.75000000  1
  Se  Se9  1  0.00520322  0.42489712  0.75000000  1
  Se  Se10  1  0.49479678  0.92489712  0.25000000  1
  Se  Se11  1  0.99479678  0.57510288  0.25000000  1
  S  S0  1  0.70318182  0.76072734  0.75000000  1
  S  S1  1  0.20318182  0.73927266  0.75000000  1
  S  S2  1  0.29681818  0.23927266  0.25000000  1
  S  S3  1  0.79681818  0.26072734  0.25000000  1
loop_
_geom_bond_atom_site_label_1
_geom_bond_atom_site_label_2
_geom_bond_distance
_geom_bond_site_symmetry_2
Cs0 S3 3.567142 1_555
Cs0 S2 3.589461 1_555
Cs0 Se6 3.691687 1_554
Cs0 Se1 3.707324 1_554
Cs0 Se5 3.727337 1_555
Cs0 Se8 3.788354 1_554
Cs0 Se10 3.836906 1_545
Cs1 S2 3.567142 1_555
Cs1 S3 3.589461 1_455
Cs1 Se7 3.691687 1_555
Cs1 Se0 3.707324 1_455
Cs1 Se4 3.727337 1_545
Cs1 Se9 3.788354 1_555
Cs1 Se11 3.836906 1_455
Cs2 S1 3.567142 1_555
Cs2 S0 3.589461 1_555
Cs2 Se4 3.691687 1_555
Cs2 Se3 3.707324 1_555
Cs2 Se7 3.727337 1_555
Cs2 Se10 3.788354 1_555
Cs2 Se8 3.836906 1_565
Cs3 S0 3.567142 1_555
Cs3 S1 3.589461 1_655
Cs3 Se5 3.691687 1_556
Cs3 Se2 3.707324 1_656
Cs3 Se6 3.727337 1_565
Cs3 Se11 3.788354 1_556
Cs3 Se9 3.836906 1_655
Cs4 S1 3.567142 1_555
Cs4 S0 3.589461 1_555
Cs4 Se2 3.691687 1_556
Cs4 Se5 3.707324 1_556
Cs4 Se1 3.727337 1_555
Cs4 Se10 3.788354 1_556
Cs4 Se8 3.836906 1_565
Cs5 S0 3.567142 1_555
Cs5 S1 3.589461 1_655
Cs5 Se3 3.691687 1_555
Cs5 Se4 3.707324 1_655
Cs5 Se0 3.727337 1_565
Cs5 Se11 3.788354 1_555
Cs5 Se9 3.836906 1_655
Cs6 S3 3.567142 1_555
Cs6 S2 3.589461 1_555
Cs6 Se0 3.691687 1_555
Cs6 Se7 3.707324 1_555
Cs6 Se3 3.727337 1_555
Cs6 Se8 3.788354 1_555
Cs6 Se10 3.836906 1_545
Cs7 S2 3.567142 1_555
Cs7 S3 3.589461 1_455
Cs7 Se1 3.691687 1_554
Cs7 Se6 3.707324 1_454
Cs7 Se2 3.727337 1_545
Cs7 Se9 3.788354 1_554
Cs7 Se11 3.836906 1_455
Cs8 S0 3.563522 1_555
Cs8 Se9 3.742581 1_655
Cs8 Se1 3.807416 1_555
Cs8 Se7 3.807416 1_555
Cs8 Se8 3.840667 1_555
Cs8 Se5 4.152843 1_556
Cs8 Se3 4.152843 1_555
Cs9 S1 3.563522 1_545
Cs9 Se8 3.742581 1_555
Cs9 Se6 3.807416 1_455
Cs9 Se0 3.807416 1_455
Cs9 Se9 3.840667 1_555
Cs9 Se2 4.152843 1_546
Cs9 Se4 4.152843 1_545
Cs10 S2 3.563522 1_555
Cs10 Se11 3.742581 1_455
Cs10 Se3 3.807416 1_555
Cs10 Se5 3.807416 1_555
Cs10 Se10 3.840667 1_555
Cs10 Se7 4.152843 1_555
Cs10 Se1 4.152843 1_554
Cs11 S3 3.563522 1_565
Cs11 Se10 3.742581 1_555
Cs11 Se4 3.807416 1_655
Cs11 Se2 3.807416 1_655
Cs11 Se11 3.840667 1_555
Cs11 Se0 4.152843 1_565
Cs11 Se6 4.152843 1_564
Nb0 S0 2.277852 1_555
Nb0 Se6 2.411479 1_565
Nb0 Se0 2.411479 1_565
Nb0 Se8 2.425066 1_565
Nb1 S1 2.277852 1_555
Nb1 Se1 2.411479 1_555
Nb1 Se7 2.411479 1_555
Nb1 Se9 2.425066 1_555
Nb2 S2 2.277852 1_555
Nb2 Se4 2.411479 1_545
Nb2 Se2 2.411479 1_545
Nb2 Se10 2.425066 1_545
Nb3 S3 2.277852 1_555
Nb3 Se3 2.411479 1_555
Nb3 Se5 2.411479 1_555
Nb3 Se11 2.425066 1_555
