# generated using pymatgen
data_KCrAs2Pt
_symmetry_space_group_name_H-M   'P 1'
_cell_length_a   7.48562341
_cell_length_b   7.48562255
_cell_length_c   7.48562452
_cell_angle_alpha   148.95020427
_cell_angle_beta   148.95019287
_cell_angle_gamma   44.48461503
_symmetry_Int_Tables_number   1
_chemical_formula_structural   KCrAs2Pt
_chemical_formula_sum   'K1 Cr1 As2 Pt1'
_cell_volume   111.25534592
_cell_formula_units_Z   1
loop_
 _symmetry_equiv_pos_site_id
 _symmetry_equiv_pos_as_xyz
  1  'x, y, z'
loop_
 _atom_site_type_symbol
 _atom_site_label
 _atom_site_symmetry_multiplicity
 _atom_site_fract_x
 _atom_site_fract_y
 _atom_site_fract_z
 _atom_site_occupancy
  K  K0  1  0.00000000  0.00000000  0.00000000  1
  Cr  Cr0  1  0.75000000  0.25000000  0.50000000  1
  As  As0  1  0.35557445  0.35557445  1.00000000  1
  As  As1  1  0.64442555  0.64442555  0.00000000  1
  Pt  Pt0  1  0.25000000  0.75000000  0.50000000  1
loop_
_geom_bond_atom_site_label_1
_geom_bond_atom_site_label_2
_geom_bond_distance
_geom_bond_site_symmetry_2
Cr0 Pt0 2.833491 1_555
Cr0 Pt0 2.833491 1_645
Cr0 Pt0 2.833491 1_656
Cr0 Pt0 2.833491 1_544
As0 Pt0 2.480850 1_545
As0 Cr0 2.480851 1_455
As0 Pt0 2.480851 1_556
As0 Cr0 2.480852 1_556
As0 K0 3.469011 1_566
As0 K0 3.469011 1_667
As0 K0 3.469011 1_656
As0 K0 3.469012 1_555
As1 Cr0 2.480850 1_565
As1 Pt0 2.480851 1_655
As1 Cr0 2.480851 1_554
As1 Pt0 2.480852 1_554
As1 K0 3.469011 1_655
As1 K0 3.469011 1_554
As1 K0 3.469011 1_565
As1 K0 3.469012 1_666
