# generated using pymatgen
data_SrGaSn2Pd
_symmetry_space_group_name_H-M   'P 1'
_cell_length_a   6.44758923
_cell_length_b   6.44758954
_cell_length_c   6.44758901
_cell_angle_alpha   137.38585787
_cell_angle_beta   137.38586068
_cell_angle_gamma   61.84490449
_symmetry_Int_Tables_number   1
_chemical_formula_structural   SrGaSn2Pd
_chemical_formula_sum   'Sr1 Ga1 Sn2 Pd1'
_cell_volume   121.43933350
_cell_formula_units_Z   1
loop_
 _symmetry_equiv_pos_site_id
 _symmetry_equiv_pos_as_xyz
  1  'x, y, z'
loop_
 _atom_site_type_symbol
 _atom_site_label
 _atom_site_symmetry_multiplicity
 _atom_site_fract_x
 _atom_site_fract_y
 _atom_site_fract_z
 _atom_site_occupancy
  Sr  Sr0  1  0.00177991  0.00177991  0.00000000  1
  Ga  Ga0  1  0.59039550  0.59039550  0.00000000  1
  Sn  Sn0  1  0.24913071  0.74913071  0.50000000  1
  Sn  Sn1  1  0.74913071  0.24913071  0.50000000  1
  Pd  Pd0  1  0.36856416  0.36856416  1.00000000  1
loop_
_geom_bond_atom_site_label_1
_geom_bond_atom_site_label_2
_geom_bond_distance
_geom_bond_site_symmetry_2
Ga0 Pd0 2.453966 1_554
Ga0 Sn0 2.927855 1_655
Ga0 Sn0 2.927855 1_554
Ga0 Sn1 2.927855 1_554
Ga0 Sn1 2.927855 1_565
Ga0 Sr0 3.455247 1_554
Ga0 Sr0 3.455247 1_666
Ga0 Sr0 3.455248 1_565
Ga0 Sr0 3.455248 1_655
Sn0 Sr0 3.602229 1_566
Sn0 Sr0 3.602229 1_555
Sn0 Sr0 3.646950 1_666
Sn0 Sr0 3.646951 1_565
Sn1 Sr0 3.602229 1_555
Sn1 Sr0 3.602229 1_656
Sn1 Sr0 3.646951 1_655
Sn1 Sr0 3.646951 1_666
Pd0 Sn1 2.689698 1_455
Pd0 Sn1 2.689698 1_556
Pd0 Sn0 2.689698 1_556
Pd0 Sn0 2.689698 1_545
Pd0 Sr0 3.626220 1_667
Pd0 Sr0 3.626220 1_555
Pd0 Sr0 3.626221 1_656
Pd0 Sr0 3.626221 1_566
