# generated using pymatgen
data_Sr5Sn3H
_symmetry_space_group_name_H-M   'P 1'
_cell_length_a   10.08313718
_cell_length_b   10.08313759
_cell_length_c   10.08313771
_cell_angle_alpha   129.49511876
_cell_angle_beta   129.49511939
_cell_angle_gamma   74.21519726
_symmetry_Int_Tables_number   1
_chemical_formula_structural   Sr5Sn3H
_chemical_formula_sum   'Sr10 Sn6 H2'
_cell_volume   595.16362406
_cell_formula_units_Z   2
loop_
 _symmetry_equiv_pos_site_id
 _symmetry_equiv_pos_as_xyz
  1  'x, y, z'
loop_
 _atom_site_type_symbol
 _atom_site_label
 _atom_site_symmetry_multiplicity
 _atom_site_fract_x
 _atom_site_fract_y
 _atom_site_fract_z
 _atom_site_occupancy
  Sr  Sr0  1  0.50000000  0.50000000  0.00000000  1
  Sr  Sr1  1  0.00000000  0.00000000  0.00000000  1
  Sr  Sr2  1  0.51231619  0.01231619  0.82743707  1
  Sr  Sr3  1  0.18488011  0.68488011  0.17256293  1
  Sr  Sr4  1  0.01231619  0.18488011  0.50000000  1
  Sr  Sr5  1  0.68488011  0.51231619  0.50000000  1
  Sr  Sr6  1  0.48768381  0.98768381  0.17256293  1
  Sr  Sr7  1  0.81511989  0.31511989  0.82743707  1
  Sr  Sr8  1  0.98768381  0.81511989  0.50000000  1
  Sr  Sr9  1  0.31511989  0.48768381  0.50000000  1
  Sn  Sn0  1  0.25000000  0.25000000  0.00000000  1
  Sn  Sn1  1  0.75000000  0.75000000  0.00000000  1
  Sn  Sn2  1  0.88000716  0.38000716  0.26001532  1
  Sn  Sn3  1  0.11999284  0.61999284  0.73998468  1
  Sn  Sn4  1  0.38000716  0.11999284  0.50000000  1
  Sn  Sn5  1  0.61999284  0.88000716  0.50000000  1
  H  H0  1  0.25000000  0.75000000  0.50000000  1
  H  H1  1  0.75000000  0.25000000  0.50000000  1
loop_
_geom_bond_atom_site_label_1
_geom_bond_atom_site_label_2
_geom_bond_distance
_geom_bond_site_symmetry_2
Sn0 Sr2 3.587212 1_554
Sn0 Sr6 3.587212 1_545
Sn0 Sr5 3.587218 1_555
Sn0 Sr4 3.587218 1_554
Sn0 Sr9 3.587218 1_555
Sn0 Sr8 3.587218 1_444
Sn0 Sr7 3.587219 1_454
Sn0 Sr3 3.587219 1_555
Sn0 Sr0 4.020671 1_555
Sn0 Sr1 4.020671 1_555
Sn1 Sr6 3.587212 1_555
Sn1 Sr2 3.587212 1_564
Sn1 Sr9 3.587218 1_554
Sn1 Sr8 3.587218 1_555
Sn1 Sr5 3.587218 1_554
Sn1 Sr4 3.587218 1_665
Sn1 Sr3 3.587219 1_655
Sn1 Sr7 3.587219 1_554
Sn1 Sr1 4.020671 1_665
Sn1 Sr0 4.020671 1_555
Sn2 Sn3 2.919796 1_655
Sn2 Sr0 3.428346 1_555
Sn2 Sr1 3.428346 1_655
Sn2 Sr5 3.468121 1_555
Sn2 Sr4 3.468121 1_655
Sn2 Sr9 3.468132 1_655
Sn2 Sr8 3.468132 1_555
Sn2 Sr7 3.585216 1_554
Sn2 Sr2 3.585216 1_554
Sn3 Sr0 3.428346 1_556
Sn3 Sr1 3.428346 1_566
Sn3 Sr9 3.468121 1_555
Sn3 Sr8 3.468121 1_455
Sn3 Sr5 3.468132 1_455
Sn3 Sr4 3.468132 1_555
Sn3 Sr3 3.585216 1_556
Sn3 Sr6 3.585216 1_556
Sn4 Sn5 2.919808 1_545
Sn4 Sr1 3.428343 1_555
Sn4 Sr0 3.428343 1_556
Sn4 Sr7 3.468127 1_555
Sn4 Sr3 3.468127 1_545
Sn4 Sr6 3.468138 1_545
Sn4 Sr2 3.468138 1_555
Sn4 Sr4 3.585216 1_555
Sn4 Sr9 3.585216 1_555
Sn5 Sr1 3.428343 1_666
Sn5 Sr0 3.428343 1_555
Sn5 Sr3 3.468127 1_555
Sn5 Sr7 3.468127 1_565
Sn5 Sr2 3.468138 1_565
Sn5 Sr6 3.468138 1_555
Sn5 Sr8 3.585216 1_555
Sn5 Sr5 3.585216 1_555
H0 Sr2 2.546005 1_565
H0 Sr8 2.546005 1_455
H0 Sr9 2.546006 1_555
H0 Sr3 2.546015 1_555
H1 Sr6 2.546005 1_545
H1 Sr4 2.546005 1_655
H1 Sr5 2.546006 1_555
H1 Sr7 2.546015 1_555
