# generated using pymatgen
data_BaHfSe3
_symmetry_space_group_name_H-M   'P 1'
_cell_length_a   4.02501471
_cell_length_b   9.14590143
_cell_length_c   15.07783904
_cell_angle_alpha   90.03296245
_cell_angle_beta   90.00000000
_cell_angle_gamma   90.00000000
_symmetry_Int_Tables_number   1
_chemical_formula_structural   BaHfSe3
_chemical_formula_sum   'Ba4 Hf4 Se12'
_cell_volume   555.05116623
_cell_formula_units_Z   4
loop_
 _symmetry_equiv_pos_site_id
 _symmetry_equiv_pos_as_xyz
  1  'x, y, z'
loop_
 _atom_site_type_symbol
 _atom_site_label
 _atom_site_symmetry_multiplicity
 _atom_site_fract_x
 _atom_site_fract_y
 _atom_site_fract_z
 _atom_site_occupancy
  Ba  Ba0  1  0.50000000  0.93487111  0.82547778  1
  Ba  Ba1  1  0.50000000  0.43500830  0.67463159  1
  Ba  Ba2  1  0.00000000  0.06503413  0.17452795  1
  Ba  Ba3  1  0.00000000  0.56456560  0.32534442  1
  Hf  Hf0  1  0.50000000  0.66325779  0.05843571  1
  Hf  Hf1  1  0.50000000  0.16278070  0.44188411  1
  Hf  Hf2  1  0.00000000  0.33729503  0.94169138  1
  Hf  Hf3  1  0.00000000  0.83678519  0.55800458  1
  Se  Se0  1  0.50000000  0.67074581  0.49508239  1
  Se  Se1  1  0.50000000  0.17157870  0.00467299  1
  Se  Se2  1  0.00000000  0.32869392  0.50479461  1
  Se  Se3  1  0.00000000  0.82936269  0.99562414  1
  Se  Se4  1  0.50000000  0.52372290  0.89673674  1
  Se  Se5  1  0.50000000  0.02310189  0.60310556  1
  Se  Se6  1  0.00000000  0.47664348  0.10325964  1
  Se  Se7  1  0.00000000  0.97651494  0.39669582  1
  Se  Se8  1  0.50000000  0.78336576  0.21125644  1
  Se  Se9  1  0.50000000  0.28267910  0.28887890  1
  Se  Se10  1  0.00000000  0.21695431  0.78883779  1
  Se  Se11  1  0.00000000  0.71703767  0.71105747  1
loop_
_geom_bond_atom_site_label_1
_geom_bond_atom_site_label_2
_geom_bond_distance
_geom_bond_site_symmetry_2
Ba0 Se11 3.315385 1_555
Ba0 Se11 3.315385 1_655
Ba0 Se10 3.318575 1_665
Ba0 Se10 3.318575 1_565
Ba0 Se3 3.400835 1_555
Ba0 Se3 3.400835 1_655
Ba0 Se5 3.449082 1_565
Ba0 Se1 3.461245 1_566
Ba0 Se4 3.911402 1_555
Ba1 Se10 3.316112 1_555
Ba1 Se10 3.316112 1_655
Ba1 Se11 3.317163 1_655
Ba1 Se11 3.317163 1_555
Ba1 Se2 3.398578 1_555
Ba1 Se2 3.398578 1_655
Ba1 Se4 3.445302 1_555
Ba1 Se0 3.461820 1_555
Ba2 Se9 3.313806 1_455
Ba2 Se9 3.313806 1_555
Ba2 Se8 3.315849 1_545
Ba2 Se8 3.315849 1_445
Ba2 Se1 3.400229 1_455
Ba2 Se1 3.400229 1_555
Ba2 Se7 3.446707 1_545
Ba2 Se3 3.451897 1_544
Ba2 Se6 3.915496 1_555
Ba3 Se9 3.316246 1_555
Ba3 Se9 3.316246 1_455
Ba3 Se8 3.319297 1_455
Ba3 Se8 3.319297 1_555
Ba3 Se0 3.397103 1_455
Ba3 Se0 3.397103 1_555
Ba3 Se6 3.443307 1_555
Ba3 Se2 3.461417 1_555
Hf0 Se8 2.552087 1_555
Hf0 Se3 2.693821 1_654
Hf0 Se3 2.693821 1_554
Hf0 Se6 2.724206 1_555
Hf0 Se6 2.724206 1_655
Hf0 Se4 2.751223 1_554
Hf1 Se9 2.554915 1_555
Hf1 Se2 2.692743 1_655
Hf1 Se2 2.692743 1_555
Hf1 Se7 2.723091 1_645
Hf1 Se7 2.723091 1_545
Hf1 Se5 2.746759 1_555
Hf2 Se10 2.553450 1_555
Hf2 Se1 2.692722 1_456
Hf2 Se1 2.692722 1_556
Hf2 Se4 2.723629 1_455
Hf2 Se4 2.723629 1_555
Hf2 Se6 2.748687 1_556
Hf3 Se11 2.554972 1_555
Hf3 Se0 2.693455 1_455
Hf3 Se0 2.693455 1_555
Hf3 Se5 2.723053 1_565
Hf3 Se5 2.723053 1_465
Hf3 Se7 2.748141 1_555
