# generated using pymatgen
data_CsSbTeSe
_symmetry_space_group_name_H-M   'P 1'
_cell_length_a   10.64910735
_cell_length_b   7.56353474
_cell_length_c   8.01712878
_cell_angle_alpha   80.39075070
_cell_angle_beta   90.00000000
_cell_angle_gamma   90.00000000
_symmetry_Int_Tables_number   1
_chemical_formula_structural   CsSbTeSe
_chemical_formula_sum   'Cs4 Sb4 Te4 Se4'
_cell_volume   636.67848831
_cell_formula_units_Z   4
loop_
 _symmetry_equiv_pos_site_id
 _symmetry_equiv_pos_as_xyz
  1  'x, y, z'
loop_
 _atom_site_type_symbol
 _atom_site_label
 _atom_site_symmetry_multiplicity
 _atom_site_fract_x
 _atom_site_fract_y
 _atom_site_fract_z
 _atom_site_occupancy
  Cs  Cs0  1  0.94447053  0.27260546  0.34891027  1
  Cs  Cs1  1  0.44447053  0.22739454  0.65108973  1
  Cs  Cs2  1  0.05552947  0.72739454  0.65108973  1
  Cs  Cs3  1  0.55552947  0.77260546  0.34891027  1
  Sb  Sb0  1  0.17125123  0.85456828  0.09526493  1
  Sb  Sb1  1  0.82874877  0.14543172  0.90473507  1
  Sb  Sb2  1  0.67125123  0.64543172  0.90473507  1
  Sb  Sb3  1  0.32874877  0.35456828  0.09526493  1
  Te  Te0  1  0.08225897  0.20410476  0.82174024  1
  Te  Te1  1  0.58225897  0.29589524  0.17825976  1
  Te  Te2  1  0.91774103  0.79589524  0.17825976  1
  Te  Te3  1  0.41774103  0.70410476  0.82174024  1
  Se  Se0  1  0.25201190  0.04414419  0.31422725  1
  Se  Se1  1  0.75201190  0.45585581  0.68577275  1
  Se  Se2  1  0.74798810  0.95585581  0.68577275  1
  Se  Se3  1  0.24798810  0.54414419  0.31422725  1
loop_
_geom_bond_atom_site_label_1
_geom_bond_atom_site_label_2
_geom_bond_distance
_geom_bond_site_symmetry_2
Cs0 Se0 3.734905 1_655
Cs0 Se3 3.814680 1_655
Cs0 Se1 3.829472 1_555
Cs0 Se2 3.905268 1_545
Cs0 Te2 3.976194 1_555
Cs0 Te0 4.016899 1_655
Cs0 Sb1 4.033386 1_554
Cs0 Te2 4.074327 1_545
Cs0 Te1 4.086632 1_555
Cs1 Se1 3.734905 1_555
Cs1 Se2 3.814680 1_545
Cs1 Se0 3.829472 1_555
Cs1 Se3 3.905268 1_555
Cs1 Te3 3.976194 1_545
Cs1 Te1 4.016899 1_555
Cs1 Sb3 4.033386 1_556
Cs1 Te3 4.074327 1_555
Cs1 Te0 4.086632 1_555
Cs2 Se2 3.734905 1_455
Cs2 Se1 3.814680 1_455
Cs2 Se3 3.829472 1_555
Cs2 Se0 3.905268 1_565
Cs2 Te0 3.976194 1_555
Cs2 Te2 4.016899 1_455
Cs2 Sb0 4.033386 1_556
Cs2 Te0 4.074327 1_565
Cs2 Te3 4.086632 1_555
Cs3 Se3 3.734905 1_555
Cs3 Se0 3.814680 1_565
Cs3 Se2 3.829472 1_555
Cs3 Se1 3.905268 1_555
Cs3 Te1 3.976194 1_565
Cs3 Te3 4.016899 1_555
Cs3 Sb2 4.033386 1_554
Cs3 Te1 4.074327 1_555
Cs3 Te2 4.086632 1_555
Sb0 Se0 2.591825 1_565
Sb0 Te2 2.798077 1_455
Sb0 Se3 2.808203 1_555
Sb0 Te0 3.280346 1_564
Sb1 Se2 2.591825 1_545
Sb1 Te0 2.798077 1_655
Sb1 Se1 2.808203 1_555
Sb1 Te2 3.280346 1_546
Sb2 Se1 2.591825 1_555
Sb2 Te3 2.798077 1_555
Sb2 Se2 2.808203 1_555
Sb2 Te1 3.280346 1_556
Sb3 Se3 2.591825 1_555
Sb3 Te1 2.798077 1_555
Sb3 Se0 2.808203 1_555
Sb3 Te3 3.280346 1_554
