# generated using pymatgen
data_Y2PdPtO7
_symmetry_space_group_name_H-M   'P 1'
_cell_length_a   7.19346394
_cell_length_b   7.18214464
_cell_length_c   7.19346399
_cell_angle_alpha   60.05203281
_cell_angle_beta   60.07150073
_cell_angle_gamma   60.05203828
_symmetry_Int_Tables_number   1
_chemical_formula_structural   Y2PdPtO7
_chemical_formula_sum   'Y4 Pd2 Pt2 O14'
_cell_volume   263.14245658
_cell_formula_units_Z   2
loop_
 _symmetry_equiv_pos_site_id
 _symmetry_equiv_pos_as_xyz
  1  'x, y, z'
loop_
 _atom_site_type_symbol
 _atom_site_label
 _atom_site_symmetry_multiplicity
 _atom_site_fract_x
 _atom_site_fract_y
 _atom_site_fract_z
 _atom_site_occupancy
  Y  Y0  1  0.12500000  0.62500000  0.12500000  1
  Y  Y1  1  0.12500000  0.12500000  0.62500000  1
  Y  Y2  1  0.62500000  0.12500000  0.12500000  1
  Y  Y3  1  0.12500000  0.12500000  0.12500000  1
  Pd  Pd0  1  0.12500000  0.62500000  0.62500000  1
  Pd  Pd1  1  0.62500000  0.62500000  0.12500000  1
  Pt  Pt0  1  0.62500000  0.62500000  0.62500000  1
  Pt  Pt1  1  0.62500000  0.12500000  0.62500000  1
  O  O0  1  0.28599954  0.71407417  0.71440854  1
  O  O1  1  0.53559146  0.96448125  0.96400046  1
  O  O2  1  0.71440854  0.71407417  0.28599954  1
  O  O3  1  0.28599954  0.28551875  0.71440854  1
  O  O4  1  0.99991153  0.00008847  0.99991153  1
  O  O5  1  0.28702090  0.71297910  0.28702090  1
  O  O6  1  0.71580799  0.28419201  0.71580799  1
  O  O7  1  0.96297910  0.53702090  0.96297910  1
  O  O8  1  0.53559146  0.53592583  0.96400046  1
  O  O9  1  0.96400046  0.96448125  0.53559146  1
  O  O10  1  0.25008847  0.24991153  0.25008847  1
  O  O11  1  0.53419201  0.96580799  0.53419201  1
  O  O12  1  0.71440854  0.28551875  0.28599954  1
  O  O13  1  0.96400046  0.53592583  0.53559146  1
loop_
_geom_bond_atom_site_label_1
_geom_bond_atom_site_label_2
_geom_bond_distance
_geom_bond_site_symmetry_2
O0 Pt0 2.014403 1_555
O0 Pd0 2.014457 1_555
O0 Y1 2.429132 1_565
O0 Y0 2.431892 1_556
O1 Pt1 2.014404 1_565
O1 Pd1 2.014451 1_556
O1 Y2 2.429138 1_566
O1 Y3 2.431893 1_566
O2 Pt0 2.014403 1_555
O2 Pd1 2.014457 1_555
O2 Y2 2.429132 1_565
O2 Y0 2.431892 1_655
O3 Pt1 2.014404 1_555
O3 Pd0 2.014451 1_555
O3 Y1 2.429138 1_555
O3 Y3 2.431892 1_556
O4 Y0 2.200930 1_646
O4 Y3 2.200931 1_656
O4 Y1 2.203787 1_655
O4 Y2 2.203787 1_556
O5 Pd0 2.010613 1_555
O5 Pd1 2.010614 1_555
O5 Y3 2.437627 1_565
O5 Y0 2.437627 1_555
O6 Pt0 2.019349 1_555
O6 Pt1 2.019350 1_555
O6 Y2 2.421797 1_556
O6 Y1 2.421797 1_655
O7 Pd0 2.010613 1_655
O7 Pd1 2.010614 1_556
O7 Y3 2.437627 1_656
O7 Y0 2.437627 1_656
O8 Pt0 2.014403 1_555
O8 Pd1 2.014457 1_556
O8 Y2 2.429132 1_556
O8 Y0 2.431892 1_556
O9 Pt1 2.014404 1_565
O9 Pd0 2.014451 1_655
O9 Y1 2.429138 1_665
O9 Y3 2.431892 1_665
O10 Y0 2.200930 1_555
O10 Y3 2.200931 1_555
O10 Y1 2.203787 1_555
O10 Y2 2.203787 1_555
O11 Pt0 2.019349 1_555
O11 Pt1 2.019350 1_565
O11 Y2 2.421797 1_565
O11 Y1 2.421797 1_565
O12 Pt1 2.014404 1_555
O12 Pd1 2.014451 1_555
O12 Y2 2.429138 1_555
O12 Y3 2.431893 1_655
O13 Pt0 2.014403 1_555
O13 Pd0 2.014457 1_655
O13 Y1 2.429132 1_655
O13 Y0 2.431892 1_655
