# generated using pymatgen
data_Cs5ScGa2Se7
_symmetry_space_group_name_H-M   'P 1'
_cell_length_a   11.42272974
_cell_length_b   11.42272944
_cell_length_c   9.63445932
_cell_angle_alpha   76.51259307
_cell_angle_beta   76.51259436
_cell_angle_gamma   70.66604741
_symmetry_Int_Tables_number   1
_chemical_formula_structural   Cs5ScGa2Se7
_chemical_formula_sum   'Cs10 Sc2 Ga4 Se14'
_cell_volume   1136.68882176
_cell_formula_units_Z   2
loop_
 _symmetry_equiv_pos_site_id
 _symmetry_equiv_pos_as_xyz
  1  'x, y, z'
loop_
 _atom_site_type_symbol
 _atom_site_label
 _atom_site_symmetry_multiplicity
 _atom_site_fract_x
 _atom_site_fract_y
 _atom_site_fract_z
 _atom_site_occupancy
  Cs  Cs0  1  0.03199823  0.42703878  0.71789790  1
  Cs  Cs1  1  0.42703878  0.03199823  0.71789790  1
  Cs  Cs2  1  0.96800177  0.57296122  0.28210210  1
  Cs  Cs3  1  0.57296122  0.96800177  0.28210210  1
  Cs  Cs4  1  0.29209189  0.70790811  0.00000000  1
  Cs  Cs5  1  0.70790811  0.29209189  1.00000000  1
  Cs  Cs6  1  0.84622613  0.15377387  0.50000000  1
  Cs  Cs7  1  0.15377387  0.84622613  0.50000000  1
  Cs  Cs8  1  0.43036251  0.43036251  0.69192087  1
  Cs  Cs9  1  0.56963749  0.56963749  0.30807913  1
  Sc  Sc0  1  0.21375201  0.21375201  0.18163323  1
  Sc  Sc1  1  0.78624799  0.78624799  0.81836677  1
  Ga  Ga0  1  0.07158296  0.07158296  0.05755921  1
  Ga  Ga1  1  0.92841704  0.92841704  0.94244079  1
  Ga  Ga2  1  0.34686653  0.34686653  0.33733240  1
  Ga  Ga3  1  0.65313347  0.65313347  0.66266760  1
  Se  Se0  1  0.99267346  0.28471381  0.11246494  1
  Se  Se1  1  0.28471381  0.99267346  0.11246494  1
  Se  Se2  1  0.00732654  0.71528619  0.88753506  1
  Se  Se3  1  0.71528619  0.00732654  0.88753506  1
  Se  Se4  1  0.20811094  0.20811094  0.44704271  1
  Se  Se5  1  0.79188906  0.79188906  0.55295729  1
  Se  Se6  1  0.06061239  0.06061239  0.81188537  1
  Se  Se7  1  0.93938761  0.93938761  0.18811463  1
  Se  Se8  1  0.35487058  0.35487058  0.07242921  1
  Se  Se9  1  0.64512942  0.64512942  0.92757079  1
  Se  Se10  1  0.24860391  0.55071329  0.39775478  1
  Se  Se11  1  0.55071329  0.24860391  0.39775478  1
  Se  Se12  1  0.75139609  0.44928671  0.60224522  1
  Se  Se13  1  0.44928671  0.75139609  0.60224522  1
loop_
_geom_bond_atom_site_label_1
_geom_bond_atom_site_label_2
_geom_bond_distance
_geom_bond_site_symmetry_2
Cs0 Se12 3.546015 1_455
Cs0 Se0 3.754991 1_456
Cs0 Se10 3.788556 1_555
Cs0 Se4 3.791385 1_555
Cs0 Se2 3.908004 1_555
Cs0 Se6 3.988759 1_555
Cs1 Se13 3.546015 1_545
Cs1 Se1 3.754991 1_546
Cs1 Se11 3.788556 1_555
Cs1 Se4 3.791385 1_555
Cs1 Se3 3.908004 1_555
Cs1 Se6 3.988759 1_555
Cs2 Se10 3.546015 1_655
Cs2 Se2 3.754991 1_654
Cs2 Se12 3.788556 1_555
Cs2 Se5 3.791385 1_555
Cs2 Se0 3.908004 1_555
Cs2 Se7 3.988759 1_555
Cs3 Se11 3.546015 1_565
Cs3 Se3 3.754991 1_564
Cs3 Se13 3.788556 1_555
Cs3 Se5 3.791385 1_555
Cs3 Se1 3.908004 1_555
Cs3 Se7 3.988759 1_555
Cs4 Se1 3.630675 1_555
Cs4 Se2 3.630675 1_554
Cs4 Se8 3.777489 1_555
Cs4 Se9 3.777489 1_554
Cs4 Se10 3.827430 1_555
Cs4 Se13 3.827430 1_554
Cs5 Se3 3.630675 1_555
Cs5 Se0 3.630675 1_556
Cs5 Se9 3.777489 1_555
Cs5 Se8 3.777489 1_556
Cs5 Se12 3.827430 1_555
Cs5 Se11 3.827430 1_556
Cs6 Se12 3.488607 1_555
Cs6 Se11 3.488608 1_555
Cs6 Se3 3.887701 1_555
Cs6 Se0 3.887701 1_555
Cs6 Se6 4.046464 1_655
Cs6 Se7 4.046464 1_545
Cs7 Se10 3.488607 1_555
Cs7 Se13 3.488608 1_555
Cs7 Se1 3.887701 1_555
Cs7 Se2 3.887701 1_555
Cs7 Se7 4.046464 1_455
Cs7 Se6 4.046464 1_565
Cs8 Se8 3.531266 1_556
Cs8 Se13 3.633255 1_555
Cs8 Se12 3.633255 1_555
Cs8 Se10 3.642820 1_555
Cs8 Se11 3.642820 1_555
Cs9 Se9 3.531266 1_554
Cs9 Se11 3.633255 1_555
Cs9 Se10 3.633255 1_555
Cs9 Se12 3.642820 1_555
Cs9 Se13 3.642820 1_555
Sc0 Se4 2.529027 1_555
Sc0 Se8 2.538128 1_555
Sc0 Se1 2.579923 1_545
Sc0 Se0 2.579923 1_455
Sc1 Se5 2.529027 1_555
Sc1 Se9 2.538128 1_555
Sc1 Se3 2.579923 1_565
Sc1 Se2 2.579923 1_655
Ga0 Se7 2.424951 1_445
Ga0 Se6 2.433290 1_554
Ga0 Se0 2.438144 1_455
Ga0 Se1 2.438144 1_545
Ga1 Se6 2.424951 1_665
Ga1 Se7 2.433290 1_556
Ga1 Se2 2.438144 1_655
Ga1 Se3 2.438144 1_565
Ga2 Se10 2.370130 1_555
Ga2 Se11 2.370130 1_555
Ga2 Se4 2.498389 1_555
Ga2 Se8 2.513619 1_555
Ga3 Se12 2.370130 1_555
Ga3 Se13 2.370130 1_555
Ga3 Se5 2.498389 1_555
Ga3 Se9 2.513619 1_555
