# generated using pymatgen
data_YCdNiPt3
_symmetry_space_group_name_H-M   'P 1'
_cell_length_a   5.13690346
_cell_length_b   5.13690270
_cell_length_c   5.13690206
_cell_angle_alpha   63.15386703
_cell_angle_beta   63.15387268
_cell_angle_gamma   63.15386695
_symmetry_Int_Tables_number   1
_chemical_formula_structural   YCdNiPt3
_chemical_formula_sum   'Y1 Cd1 Ni1 Pt3'
_cell_volume   102.55242078
_cell_formula_units_Z   1
loop_
 _symmetry_equiv_pos_site_id
 _symmetry_equiv_pos_as_xyz
  1  'x, y, z'
loop_
 _atom_site_type_symbol
 _atom_site_label
 _atom_site_symmetry_multiplicity
 _atom_site_fract_x
 _atom_site_fract_y
 _atom_site_fract_z
 _atom_site_occupancy
  Y  Y0  1  0.24934189  0.24934189  0.24934189  1
  Cd  Cd0  1  0.99764179  0.99764179  0.99764179  1
  Ni  Ni0  1  0.62653815  0.62653815  0.62653815  1
  Pt  Pt0  1  0.62637220  0.62637220  0.12373577  1
  Pt  Pt1  1  0.62637220  0.12373577  0.62637220  1
  Pt  Pt2  1  0.12373577  0.62637220  0.62637220  1
loop_
_geom_bond_atom_site_label_1
_geom_bond_atom_site_label_2
_geom_bond_distance
_geom_bond_site_symmetry_2
Cd0 Pt2 2.957684 1_655
Cd0 Pt1 2.957684 1_565
Cd0 Pt0 2.957685 1_556
Cd0 Y0 3.089489 1_666
Cd0 Pt2 3.114223 1_656
Cd0 Pt1 3.114223 1_566
Cd0 Pt0 3.114223 1_566
Cd0 Pt2 3.114223 1_665
Cd0 Pt0 3.114224 1_656
Cd0 Pt1 3.114224 1_665
Cd0 Ni0 3.140441 1_565
Cd0 Ni0 3.140442 1_556
Cd0 Ni0 3.140442 1_655
Cd0 Y0 3.263656 1_665
Cd0 Y0 3.263656 1_656
Cd0 Y0 3.263657 1_566
Ni0 Pt0 2.553286 1_556
Ni0 Pt1 2.553286 1_565
Ni0 Pt2 2.553287 1_655
Ni0 Pt0 2.583617 1_555
Ni0 Pt1 2.583617 1_555
Ni0 Pt2 2.583617 1_555
Ni0 Y0 3.152349 1_565
Ni0 Y0 3.152349 1_556
Ni0 Y0 3.152350 1_655
Pt0 Pt1 2.675719 1_564
Pt0 Pt2 2.675720 1_654
Pt0 Pt1 2.704086 1_555
Pt0 Pt2 2.704087 1_555
Pt0 Y0 3.008163 1_555
Pt0 Y0 3.089754 1_565
Pt0 Y0 3.089755 1_655
Pt1 Pt2 2.675720 1_645
Pt1 Pt2 2.704087 1_555
Pt1 Y0 3.008162 1_555
Pt1 Y0 3.089754 1_556
Pt1 Y0 3.089755 1_655
Pt2 Y0 3.008162 1_555
Pt2 Y0 3.089754 1_556
Pt2 Y0 3.089754 1_565
