# generated using pymatgen
data_HfSc7S12
_symmetry_space_group_name_H-M   'P 1'
_cell_length_a   12.16734717
_cell_length_b   11.60695982
_cell_length_c   6.37245101
_cell_angle_alpha   79.37105098
_cell_angle_beta   69.64836259
_cell_angle_gamma   31.08889220
_symmetry_Int_Tables_number   1
_chemical_formula_structural   HfSc7S12
_chemical_formula_sum   'Hf1 Sc7 S12'
_cell_volume   423.58190224
_cell_formula_units_Z   1
loop_
 _symmetry_equiv_pos_site_id
 _symmetry_equiv_pos_as_xyz
  1  'x, y, z'
loop_
 _atom_site_type_symbol
 _atom_site_label
 _atom_site_symmetry_multiplicity
 _atom_site_fract_x
 _atom_site_fract_y
 _atom_site_fract_z
 _atom_site_occupancy
  Hf  Hf0  1  0.16547523  0.16547523  0.33452477  1
  Sc  Sc0  1  0.33500956  0.33500956  0.16499044  1
  Sc  Sc1  1  0.08279889  0.08279889  0.91720111  1
  Sc  Sc2  1  0.91635022  0.91635022  0.08364978  1
  Sc  Sc3  1  0.50173000  0.50173000  0.99827000  1
  Sc  Sc4  1  0.99742105  0.99742105  0.50257895  1
  Sc  Sc5  1  0.74862763  0.74862763  0.25137237  1
  Sc  Sc6  1  0.25284590  0.25284590  0.74715410  1
  S  S0  1  0.48823525  0.00834868  0.01142136  1
  S  S1  1  0.00834868  0.48823525  0.49199472  1
  S  S2  1  0.75834640  0.24219007  0.24145427  1
  S  S3  1  0.24219007  0.75834640  0.75800926  1
  S  S4  1  0.58390635  0.07794961  0.40934712  1
  S  S5  1  0.92999117  0.40689147  0.08216401  1
  S  S6  1  0.40689147  0.92999117  0.58095234  1
  S  S7  1  0.07794961  0.58390635  0.92879693  1
  S  S8  1  0.66556306  0.17242619  0.84055297  1
  S  S9  1  0.32268446  0.84320783  0.17276155  1
  S  S10  1  0.84320783  0.32268446  0.66134716  1
  S  S11  1  0.17242619  0.66556306  0.32145878  1
loop_
_geom_bond_atom_site_label_1
_geom_bond_atom_site_label_2
_geom_bond_distance
_geom_bond_site_symmetry_2
Hf0 S6 2.537538 1_545
Hf0 S5 2.537543 1_455
Hf0 S1 2.545972 1_555
Hf0 S0 2.545972 1_555
Hf0 S9 2.551368 1_545
Hf0 S10 2.551371 1_455
S0 Sc6 2.600640 1_554
S0 Sc5 2.602813 1_545
S0 Sc0 2.608081 1_555
S1 Sc6 2.600640 1_555
S1 Sc5 2.602813 1_455
S1 Sc0 2.608081 1_555
S2 Sc1 2.550341 1_654
S2 Sc2 2.572161 1_545
S2 Sc3 2.599810 1_554
S2 Sc4 2.602004 1_545
S3 Sc1 2.550341 1_565
S3 Sc2 2.572161 1_456
S3 Sc3 2.599810 1_555
S3 Sc4 2.602004 1_455
S4 Sc5 2.556590 1_545
S4 Sc6 2.560492 1_555
S4 Sc0 2.566818 1_555
S4 Sc2 2.605687 1_545
S5 Sc5 2.587803 1_555
S5 Sc6 2.594415 1_654
S5 Sc1 2.613977 1_654
S6 Sc5 2.587801 1_555
S6 Sc6 2.594417 1_565
S6 Sc1 2.613980 1_565
S7 Sc5 2.556591 1_456
S7 Sc6 2.560491 1_555
S7 Sc0 2.566818 1_556
S7 Sc2 2.605687 1_456
S8 Sc3 2.562608 1_555
S8 Sc4 2.566302 1_545
S8 Sc2 2.569205 1_546
S8 Sc0 2.582210 1_556
S9 Sc1 2.576516 1_564
S9 Sc4 2.598690 1_455
S9 Sc3 2.616098 1_554
S10 Sc1 2.576511 1_655
S10 Sc4 2.598693 1_545
S10 Sc3 2.616096 1_555
S11 Sc3 2.562610 1_554
S11 Sc4 2.566299 1_455
S11 Sc2 2.569211 1_455
S11 Sc0 2.582212 1_555
