# generated using pymatgen
data_Cs2Cr4O13
_symmetry_space_group_name_H-M   'P 1'
_cell_length_a   21.28402700
_cell_length_b   8.22503100
_cell_length_c   10.31860265
_cell_angle_alpha   56.69539798
_cell_angle_beta   90.00000000
_cell_angle_gamma   90.00000000
_symmetry_Int_Tables_number   1
_chemical_formula_structural   Cs2Cr4O13
_chemical_formula_sum   'Cs8 Cr16 O52'
_cell_volume   1509.71687631
_cell_formula_units_Z   4
loop_
 _symmetry_equiv_pos_site_id
 _symmetry_equiv_pos_as_xyz
  1  'x, y, z'
loop_
 _atom_site_type_symbol
 _atom_site_label
 _atom_site_symmetry_multiplicity
 _atom_site_fract_x
 _atom_site_fract_y
 _atom_site_fract_z
 _atom_site_occupancy
  Cs  Cs0  1  0.26352800  0.90218200  0.49923400  1
  Cs  Cs1  1  0.76352800  0.09781800  0.00076600  1
  Cs  Cs2  1  0.73647200  0.09781800  0.50076600  1
  Cs  Cs3  1  0.23647200  0.90218200  0.99923400  1
  Cs  Cs4  1  0.40071000  0.40893100  0.90908900  1
  Cs  Cs5  1  0.90071000  0.59106900  0.59091100  1
  Cs  Cs6  1  0.59929000  0.59106900  0.09091100  1
  Cs  Cs7  1  0.09929000  0.40893100  0.40908900  1
  Cr  Cr0  1  0.92425600  0.05758200  0.69596300  1
  Cr  Cr1  1  0.42425600  0.94241800  0.80403700  1
  Cr  Cr2  1  0.07574400  0.94241800  0.30403700  1
  Cr  Cr3  1  0.57574400  0.05758200  0.19596300  1
  Cr  Cr4  1  0.05257300  0.78309800  0.85630300  1
  Cr  Cr5  1  0.55257300  0.21690200  0.64369700  1
  Cr  Cr6  1  0.94742700  0.21690200  0.14369700  1
  Cr  Cr7  1  0.44742700  0.78309800  0.35630300  1
  Cr  Cr8  1  0.10720400  0.44886900  0.80721100  1
  Cr  Cr9  1  0.60720400  0.55113100  0.69278900  1
  Cr  Cr10  1  0.89279600  0.55113100  0.19278900  1
  Cr  Cr11  1  0.39279600  0.44886900  0.30721100  1
  Cr  Cr12  1  0.22400800  0.38768000  0.04153800  1
  Cr  Cr13  1  0.72400800  0.61232000  0.45846200  1
  Cr  Cr14  1  0.77599200  0.61232000  0.95846200  1
  Cr  Cr15  1  0.27599200  0.38768000  0.54153800  1
  O  O0  1  0.87615300  0.12842600  0.77788800  1
  O  O1  1  0.37615300  0.87157400  0.72211200  1
  O  O2  1  0.12384700  0.87157400  0.22211200  1
  O  O3  1  0.62384700  0.12842600  0.27788800  1
  O  O4  1  0.96589300  0.24184500  0.56604300  1
  O  O5  1  0.46589300  0.75815500  0.93395700  1
  O  O6  1  0.03410700  0.75815500  0.43395700  1
  O  O7  1  0.53410700  0.24184500  0.06604300  1
  O  O8  1  0.88550300  0.96189700  0.61796300  1
  O  O9  1  0.38550300  0.03810300  0.88203700  1
  O  O10  1  0.11449700  0.03810300  0.38203700  1
  O  O11  1  0.61449700  0.96189700  0.11796300  1
  O  O12  1  0.97765700  0.86885000  0.84387900  1
  O  O13  1  0.47765700  0.13115000  0.65612100  1
  O  O14  1  0.02234300  0.13115000  0.15612100  1
  O  O15  1  0.52234300  0.86885000  0.34387900  1
  O  O16  1  0.08228100  0.70679000  0.02342000  1
  O  O17  1  0.58228100  0.29321000  0.47658000  1
  O  O18  1  0.04910500  0.58379800  0.83270200  1
  O  O19  1  0.91771900  0.29321000  0.97658000  1
  O  O20  1  0.09738300  0.94747700  0.72543400  1
  O  O21  1  0.59738300  0.05252300  0.77456600  1
  O  O22  1  0.90261700  0.05252300  0.27456600  1
  O  O23  1  0.40261700  0.94747700  0.22543400  1
  O  O24  1  0.29683900  0.41599800  0.67931500  1
  O  O25  1  0.79683900  0.58400200  0.82068500  1
  O  O26  1  0.70316100  0.58400200  0.32068500  1
  O  O27  1  0.20316100  0.41599800  0.17931500  1
  O  O28  1  0.24543700  0.58898400  0.39954600  1
  O  O29  1  0.74543700  0.41101600  0.10045400  1
  O  O30  1  0.75456300  0.41101600  0.60045400  1
  O  O31  1  0.25456300  0.58898400  0.89954600  1
  O  O32  1  0.22623800  0.20806100  0.60629700  1
  O  O33  1  0.72623800  0.79193900  0.89370300  1
  O  O34  1  0.77376200  0.79193900  0.39370300  1
  O  O35  1  0.27376200  0.20806100  0.10629700  1
  O  O36  1  0.34550200  0.32641300  0.47020200  1
  O  O37  1  0.84550200  0.67358700  0.02979800  1
  O  O38  1  0.65449800  0.67358700  0.52979800  1
  O  O39  1  0.15449800  0.32641300  0.97020200  1
  O  O40  1  0.42666200  0.29599600  0.28012800  1
  O  O41  1  0.92666200  0.70400400  0.21987200  1
  O  O42  1  0.57333800  0.70400400  0.71987200  1
  O  O43  1  0.07333800  0.29599600  0.78012800  1
  O  O44  1  0.34996200  0.59288600  0.15999300  1
  O  O45  1  0.84996200  0.40711400  0.34000700  1
  O  O46  1  0.65003800  0.40711400  0.84000700  1
  O  O47  1  0.15003800  0.59288600  0.65999300  1
  O  O48  1  0.45089500  0.58379800  0.33270200  1
  O  O49  1  0.95089500  0.41620200  0.16729800  1
  O  O50  1  0.54910500  0.41620200  0.66729800  1
  O  O51  1  0.41771900  0.70679000  0.52342000  1
loop_
_geom_bond_atom_site_label_1
_geom_bond_atom_site_label_2
_geom_bond_distance
_geom_bond_site_symmetry_2
Cs0 O47 3.228608 1_555
Cs0 O1 3.234617 1_555
Cs0 O28 3.279096 1_555
Cs0 O32 3.351449 1_565
Cs0 O10 3.359914 1_565
Cs0 O35 3.407969 1_565
Cs0 O24 3.433126 1_555
Cs0 O31 3.471211 1_555
Cs0 O51 3.602063 1_555
Cs1 O46 3.228608 1_554
Cs1 O0 3.234617 1_554
Cs1 O29 3.279096 1_555
Cs1 O33 3.351449 1_544
Cs1 O11 3.359914 1_545
Cs1 O34 3.407969 1_545
Cs1 O25 3.433126 1_554
Cs1 O30 3.471211 1_554
Cs1 O19 3.602063 1_554
Cs2 O45 3.228608 1_555
Cs2 O3 3.234617 1_555
Cs2 O30 3.279096 1_555
Cs2 O34 3.351449 1_545
Cs2 O8 3.359914 1_545
Cs2 O33 3.407969 1_545
Cs2 O26 3.433126 1_555
Cs2 O29 3.471211 1_555
Cs2 O17 3.602063 1_555
Cs3 O44 3.228608 1_556
Cs3 O2 3.234617 1_556
Cs3 O31 3.279096 1_555
Cs3 O35 3.351449 1_566
Cs3 O9 3.359914 1_565
Cs3 O32 3.407969 1_565
Cs3 O27 3.433126 1_556
Cs3 O28 3.471211 1_556
Cs3 O16 3.602063 1_556
Cs4 O7 3.182539 1_556
Cs4 O24 3.218855 1_555
Cs4 O1 3.226928 1_555
Cs4 O9 3.228095 1_555
Cs4 O35 3.237133 1_556
Cs4 O5 3.324242 1_555
Cs4 O51 3.356078 1_555
Cs4 O23 3.384790 1_546
Cs4 O31 3.423237 1_555
Cs4 O40 3.452626 1_556
Cs5 O6 3.182539 1_655
Cs5 O25 3.218855 1_555
Cs5 O0 3.226928 1_555
Cs5 O8 3.228095 1_555
Cs5 O34 3.237133 1_555
Cs5 O4 3.324242 1_555
Cs5 O19 3.356078 1_555
Cs5 O22 3.384790 1_565
Cs5 O30 3.423237 1_555
Cs5 O41 3.452626 1_555
Cs6 O5 3.182539 1_554
Cs6 O26 3.218855 1_555
Cs6 O3 3.226928 1_555
Cs6 O11 3.228095 1_555
Cs6 O33 3.237133 1_554
Cs6 O7 3.324242 1_555
Cs6 O17 3.356078 1_555
Cs6 O21 3.384790 1_564
Cs6 O29 3.423237 1_555
Cs6 O42 3.452626 1_554
Cs7 O4 3.182539 1_455
Cs7 O27 3.218855 1_555
Cs7 O2 3.226928 1_555
Cs7 O10 3.228095 1_555
Cs7 O32 3.237133 1_555
Cs7 O6 3.324242 1_555
Cs7 O16 3.356078 1_555
Cs7 O20 3.384790 1_545
Cs7 O28 3.423237 1_555
Cs7 O43 3.452626 1_555
Cr0 O8 1.625767 1_545
Cr0 O0 1.625827 1_555
Cr0 O4 1.627346 1_555
Cr0 O12 1.851807 1_545
Cr1 O9 1.625767 1_565
Cr1 O1 1.625827 1_555
Cr1 O5 1.627346 1_555
Cr1 O13 1.851807 1_565
Cr2 O10 1.625767 1_565
Cr2 O2 1.625827 1_555
Cr2 O6 1.627346 1_555
Cr2 O14 1.851807 1_565
Cr3 O11 1.625767 1_545
Cr3 O3 1.625827 1_555
Cr3 O7 1.627346 1_555
Cr3 O15 1.851807 1_545
Cr4 O20 1.598786 1_555
Cr4 O16 1.605857 1_556
Cr4 O12 1.719616 1_455
Cr4 O18 1.786138 1_555
Cr5 O21 1.598786 1_555
Cr5 O17 1.605857 1_555
Cr5 O13 1.719616 1_555
Cr5 O50 1.786138 1_555
Cr6 O22 1.598786 1_555
Cr6 O19 1.605857 1_554
Cr6 O14 1.719616 1_655
Cr6 O49 1.786138 1_555
Cr7 O23 1.598786 1_555
Cr7 O51 1.605857 1_555
Cr7 O15 1.719616 1_555
Cr7 O48 1.786138 1_555
Cr8 O43 1.601425 1_555
Cr8 O47 1.601822 1_555
Cr8 O39 1.730905 1_555
Cr8 O18 1.774974 1_555
Cr9 O42 1.601425 1_555
Cr9 O46 1.601822 1_555
Cr9 O38 1.730905 1_555
Cr9 O50 1.774974 1_555
Cr10 O41 1.601425 1_555
Cr10 O45 1.601822 1_555
Cr10 O37 1.730905 1_555
Cr10 O49 1.774974 1_555
Cr11 O40 1.601425 1_555
Cr11 O44 1.601822 1_555
Cr11 O36 1.730905 1_555
Cr11 O48 1.774974 1_555
Cr12 O27 1.623546 1_555
Cr12 O31 1.626956 1_554
Cr12 O35 1.632917 1_555
Cr12 O39 1.841709 1_554
Cr13 O26 1.623546 1_555
Cr13 O30 1.626956 1_555
Cr13 O34 1.632917 1_555
Cr13 O38 1.841709 1_555
Cr14 O25 1.623546 1_555
Cr14 O29 1.626956 1_556
Cr14 O33 1.632917 1_555
Cr14 O37 1.841709 1_556
Cr15 O24 1.623546 1_555
Cr15 O28 1.626956 1_555
Cr15 O32 1.632917 1_555
Cr15 O36 1.841709 1_555
