# generated using pymatgen
data_Cs4YSbCl12
_symmetry_space_group_name_H-M   'P 1'
_cell_length_a   12.94160111
_cell_length_b   12.94160175
_cell_length_c   12.94160128
_cell_angle_alpha   131.67907870
_cell_angle_beta   131.67907751
_cell_angle_gamma   70.73636173
_symmetry_Int_Tables_number   1
_chemical_formula_structural   Cs4YSbCl12
_chemical_formula_sum   'Cs8 Y2 Sb2 Cl24'
_cell_volume   1184.37909787
_cell_formula_units_Z   2
loop_
 _symmetry_equiv_pos_site_id
 _symmetry_equiv_pos_as_xyz
  1  'x, y, z'
loop_
 _atom_site_type_symbol
 _atom_site_label
 _atom_site_symmetry_multiplicity
 _atom_site_fract_x
 _atom_site_fract_y
 _atom_site_fract_z
 _atom_site_occupancy
  Cs  Cs0  1  0.37500000  0.84995604  0.97495604  1
  Cs  Cs1  1  0.59995604  0.62500000  0.47495604  1
  Cs  Cs2  1  0.87500000  0.84995604  0.47495604  1
  Cs  Cs3  1  0.59995604  0.12500000  0.97495604  1
  Cs  Cs4  1  0.87500000  0.40004396  0.02504396  1
  Cs  Cs5  1  0.15004396  0.12500000  0.52504396  1
  Cs  Cs6  1  0.37500000  0.40004396  0.52504396  1
  Cs  Cs7  1  0.15004396  0.62500000  0.02504396  1
  Y  Y0  1  0.50000000  0.50000000  0.00000000  1
  Y  Y1  1  0.25000000  0.75000000  0.50000000  1
  Sb  Sb0  1  0.00000000  0.00000000  0.00000000  1
  Sb  Sb1  1  0.75000000  0.25000000  0.50000000  1
  Cl  Cl0  1  0.74432779  0.49542823  0.24889956  1
  Cl  Cl1  1  0.50457177  0.25567221  0.75110044  1
  Cl  Cl2  1  0.37509842  0.37509842  1.00000000  1
  Cl  Cl3  1  0.12509842  0.62509842  0.50000000  1
  Cl  Cl4  1  0.37490158  0.87490158  0.50000000  1
  Cl  Cl5  1  0.62490158  0.62490158  0.00000000  1
  Cl  Cl6  1  0.11344405  0.11344405  0.00000000  1
  Cl  Cl7  1  0.86344405  0.36344405  0.50000000  1
  Cl  Cl8  1  0.63655595  0.13655595  0.50000000  1
  Cl  Cl9  1  0.88655595  0.88655595  1.00000000  1
  Cl  Cl10  1  0.22700425  0.00080633  0.22619792  1
  Cl  Cl11  1  0.75080633  0.02460941  0.27380208  1
  Cl  Cl12  1  0.50457177  0.75346933  0.24889956  1
  Cl  Cl13  1  0.52299575  0.24919367  0.27380208  1
  Cl  Cl14  1  0.97539059  0.24919367  0.72619792  1
  Cl  Cl15  1  0.99919367  0.22539059  0.22619792  1
  Cl  Cl16  1  0.99919367  0.77299575  0.77380208  1
  Cl  Cl17  1  0.77460941  0.00080633  0.77380208  1
  Cl  Cl18  1  0.75080633  0.47700425  0.72619792  1
  Cl  Cl19  1  0.24542823  0.49653067  0.25110044  1
  Cl  Cl20  1  0.24542823  0.99432779  0.74889956  1
  Cl  Cl21  1  0.00567221  0.75457177  0.25110044  1
  Cl  Cl22  1  0.50346933  0.75457177  0.74889956  1
  Cl  Cl23  1  0.24653067  0.49542823  0.75110044  1
loop_
_geom_bond_atom_site_label_1
_geom_bond_atom_site_label_2
_geom_bond_distance
_geom_bond_site_symmetry_2
Cl0 Y0 2.638564 1_555
Cl0 Cs4 3.627484 1_555
Cl0 Cs2 3.627484 1_555
Cl0 Cs1 3.679601 1_555
Cl0 Cs3 3.679602 1_554
Cl1 Y0 2.638564 1_556
Cl1 Cs5 3.627484 1_555
Cl1 Cs3 3.627484 1_555
Cl1 Cs4 3.679602 1_556
Cl1 Cs6 3.679602 1_555
Cl2 Y0 2.636228 1_556
Cl2 Cs7 3.562823 1_556
Cl2 Cs3 3.562823 1_555
Cl2 Cs1 3.562823 1_556
Cl2 Cs5 3.562823 1_555
Cl3 Y1 2.636228 1_555
Cl3 Cs2 3.562823 1_455
Cl3 Cs6 3.562823 1_555
Cl3 Cs0 3.562823 1_555
Cl3 Cs4 3.562823 1_455
Cl4 Y1 2.636228 1_555
Cl4 Cs1 3.562823 1_555
Cl4 Cs5 3.562823 1_565
Cl4 Cs7 3.562823 1_555
Cl4 Cs3 3.562823 1_565
Cl5 Y0 2.636228 1_555
Cl5 Cs4 3.562823 1_555
Cl5 Cs0 3.562823 1_554
Cl5 Cs6 3.562823 1_554
Cl5 Cs2 3.562823 1_555
Cl6 Sb0 2.394400 1_555
Cl6 Cs0 3.945105 1_544
Cl6 Cs4 3.945105 1_455
Cl6 Cs2 3.945105 1_444
Cl6 Cs6 3.945105 1_555
Cl7 Sb1 2.394400 1_555
Cl7 Cs5 3.945105 1_655
Cl7 Cs1 3.945105 1_555
Cl7 Cs3 3.945105 1_554
Cl7 Cs7 3.945105 1_656
Cl8 Sb1 2.394400 1_555
Cl8 Cs6 3.945105 1_555
Cl8 Cs2 3.945105 1_545
Cl8 Cs4 3.945105 1_556
Cl8 Cs0 3.945105 1_544
Cl9 Sb0 2.394400 1_666
Cl9 Cs3 3.945105 1_565
Cl9 Cs7 3.945105 1_656
Cl9 Cs5 3.945105 1_666
Cl9 Cs1 3.945105 1_555
Cl10 Sb0 2.396362 1_555
Cl10 Cs5 3.785874 1_555
Cl10 Cs7 3.785874 1_545
Cl10 Cs0 3.927438 1_544
Cl10 Cs6 3.927438 1_555
Cl11 Sb1 2.396357 1_555
Cl11 Cs0 3.785878 1_544
Cl11 Cs2 3.785886 1_545
Cl11 Cs3 3.927427 1_554
Cl11 Cs5 3.927435 1_655
Cl12 Y0 2.638552 1_555
Cl12 Cs1 3.627462 1_555
Cl12 Cs7 3.627475 1_555
Cl12 Cs2 3.679608 1_555
Cl12 Cs0 3.679623 1_554
Cl13 Sb1 2.396362 1_555
Cl13 Cs3 3.785874 1_554
Cl13 Cs1 3.785874 1_555
Cl13 Cs6 3.927438 1_555
Cl13 Cs0 3.927438 1_544
Cl14 Sb1 2.396357 1_555
Cl14 Cs7 3.785878 1_656
Cl14 Cs5 3.785885 1_655
Cl14 Cs4 3.927427 1_556
Cl14 Cs2 3.927435 1_545
Cl15 Sb0 2.396357 1_655
Cl15 Cs6 3.785878 1_655
Cl15 Cs4 3.785886 1_555
Cl15 Cs5 3.927427 1_655
Cl15 Cs3 3.927435 1_554
Cl16 Sb0 2.396362 1_666
Cl16 Cs0 3.785874 1_655
Cl16 Cs2 3.785874 1_555
Cl16 Cs1 3.927438 1_555
Cl16 Cs7 3.927438 1_656
Cl17 Sb0 2.396357 1_656
Cl17 Cs1 3.785878 1_545
Cl17 Cs3 3.785885 1_555
Cl17 Cs2 3.927427 1_545
Cl17 Cs4 3.927435 1_556
Cl18 Sb1 2.396362 1_555
Cl18 Cs6 3.785874 1_555
Cl18 Cs4 3.785874 1_556
Cl18 Cs7 3.927438 1_656
Cl18 Cs1 3.927438 1_555
Cl19 Y1 2.638552 1_555
Cl19 Cs7 3.627462 1_555
Cl19 Cs1 3.627475 1_555
Cl19 Cs4 3.679608 1_455
Cl19 Cs6 3.679623 1_555
Cl20 Y1 2.638564 1_555
Cl20 Cs3 3.627484 1_565
Cl20 Cs5 3.627484 1_565
Cl20 Cs2 3.679602 1_455
Cl20 Cs0 3.679602 1_555
Cl21 Y1 2.638564 1_555
Cl21 Cs2 3.627484 1_455
Cl21 Cs4 3.627484 1_455
Cl21 Cs7 3.679601 1_555
Cl21 Cs5 3.679602 1_565
Cl22 Y1 2.638552 1_555
Cl22 Cs0 3.627461 1_555
Cl22 Cs6 3.627476 1_555
Cl22 Cs3 3.679608 1_565
Cl22 Cs1 3.679623 1_555
Cl23 Y0 2.638552 1_556
Cl23 Cs6 3.627461 1_555
Cl23 Cs0 3.627476 1_555
Cl23 Cs5 3.679608 1_555
Cl23 Cs7 3.679623 1_556
