# generated using pymatgen
data_Lu3CuNi8
_symmetry_space_group_name_H-M   'P 1'
_cell_length_a   4.86881354
_cell_length_b   4.86881364
_cell_length_c   15.90552190
_cell_angle_alpha   90.00000000
_cell_angle_beta   90.00000000
_cell_angle_gamma   119.99999932
_symmetry_Int_Tables_number   1
_chemical_formula_structural   Lu3CuNi8
_chemical_formula_sum   'Lu6 Cu2 Ni16'
_cell_volume   326.53132725
_cell_formula_units_Z   2
loop_
 _symmetry_equiv_pos_site_id
 _symmetry_equiv_pos_as_xyz
  1  'x, y, z'
loop_
 _atom_site_type_symbol
 _atom_site_label
 _atom_site_symmetry_multiplicity
 _atom_site_fract_x
 _atom_site_fract_y
 _atom_site_fract_z
 _atom_site_occupancy
  Lu  Lu0  1  0.33333300  0.66666700  0.95835817  1
  Lu  Lu1  1  0.66666700  0.33333300  0.04164183  1
  Lu  Lu2  1  0.66666700  0.33333300  0.45835817  1
  Lu  Lu3  1  0.33333300  0.66666700  0.54164183  1
  Lu  Lu4  1  0.33333300  0.66666700  0.75000000  1
  Lu  Lu5  1  0.66666700  0.33333300  0.25000000  1
  Cu  Cu0  1  0.33333300  0.66666700  0.25000000  1
  Cu  Cu1  1  0.66666700  0.33333300  0.75000000  1
  Ni  Ni0  1  0.16685029  0.83314971  0.37483837  1
  Ni  Ni1  1  0.16685029  0.33370058  0.37483837  1
  Ni  Ni2  1  0.66629942  0.83314971  0.37483837  1
  Ni  Ni3  1  0.83314971  0.16685029  0.62516163  1
  Ni  Ni4  1  0.83314971  0.66629942  0.62516163  1
  Ni  Ni5  1  0.33370058  0.16685029  0.62516163  1
  Ni  Ni6  1  0.83314971  0.16685029  0.87483837  1
  Ni  Ni7  1  0.83314971  0.66629942  0.87483837  1
  Ni  Ni8  1  0.33370058  0.16685029  0.87483837  1
  Ni  Ni9  1  0.16685029  0.83314971  0.12516163  1
  Ni  Ni10  1  0.16685029  0.33370058  0.12516163  1
  Ni  Ni11  1  0.66629942  0.83314971  0.12516163  1
  Ni  Ni12  1  0.00000000  0.00000000  0.25000000  1
  Ni  Ni13  1  0.00000000  0.00000000  0.75000000  1
  Ni  Ni14  1  0.00000000  0.00000000  0.50000000  1
  Ni  Ni15  1  0.00000000  0.00000000  0.00000000  1
loop_
_geom_bond_atom_site_label_1
_geom_bond_atom_site_label_2
_geom_bond_distance
_geom_bond_site_symmetry_2
Lu0 Ni7 2.773273 1_455
Lu0 Ni8 2.773273 1_565
Lu0 Ni6 2.773275 1_455
Lu0 Ni6 2.773275 1_565
Lu0 Ni7 2.773277 1_555
Lu0 Ni8 2.773277 1_555
Lu0 Ni15 2.887984 1_566
Lu0 Ni15 2.887988 1_666
Lu0 Ni15 2.887989 1_556
Lu0 Ni9 3.001667 1_556
Lu0 Ni11 3.001669 1_556
Lu0 Ni10 3.001669 1_556
Lu0 Lu1 3.107494 1_456
Lu0 Lu1 3.107494 1_566
Lu0 Lu1 3.107501 1_556
Lu0 Lu4 3.314045 1_555
Lu1 Ni10 2.773273 1_655
Lu1 Ni11 2.773273 1_545
Lu1 Ni9 2.773275 1_655
Lu1 Ni9 2.773275 1_545
Lu1 Ni10 2.773277 1_555
Lu1 Ni11 2.773277 1_555
Lu1 Ni15 2.887984 1_655
Lu1 Ni15 2.887988 1_555
Lu1 Ni15 2.887989 1_665
Lu1 Ni6 3.001667 1_554
Lu1 Ni8 3.001669 1_554
Lu1 Ni7 3.001669 1_554
Lu1 Lu5 3.314045 1_555
Lu2 Ni1 2.773273 1_655
Lu2 Ni2 2.773273 1_545
Lu2 Ni0 2.773275 1_655
Lu2 Ni0 2.773275 1_545
Lu2 Ni1 2.773277 1_555
Lu2 Ni2 2.773277 1_555
Lu2 Ni14 2.887984 1_655
Lu2 Ni14 2.887988 1_555
Lu2 Ni14 2.887989 1_665
Lu2 Ni3 3.001667 1_555
Lu2 Ni5 3.001669 1_555
Lu2 Ni4 3.001669 1_555
Lu2 Lu3 3.107494 1_655
Lu2 Lu3 3.107494 1_545
Lu2 Lu3 3.107501 1_555
Lu2 Lu5 3.314045 1_555
Lu3 Ni4 2.773273 1_455
Lu3 Ni5 2.773273 1_565
Lu3 Ni3 2.773275 1_455
Lu3 Ni3 2.773275 1_565
Lu3 Ni4 2.773277 1_555
Lu3 Ni5 2.773277 1_555
Lu3 Ni14 2.887984 1_565
Lu3 Ni14 2.887988 1_665
Lu3 Ni14 2.887989 1_555
Lu3 Ni0 3.001667 1_555
Lu3 Ni2 3.001669 1_555
Lu3 Ni1 3.001669 1_555
Lu3 Lu4 3.314045 1_555
Lu4 Ni13 2.811008 1_565
Lu4 Ni13 2.811012 1_665
Lu4 Ni13 2.811012 1_555
Lu4 Ni7 3.141498 1_455
Lu4 Ni4 3.141498 1_455
Lu4 Ni8 3.141498 1_565
Lu4 Ni5 3.141498 1_565
Lu4 Ni6 3.141500 1_455
Lu4 Ni3 3.141500 1_455
Lu4 Ni6 3.141500 1_565
Lu4 Ni3 3.141500 1_565
Lu4 Ni7 3.141502 1_555
Lu4 Ni4 3.141502 1_555
Lu4 Ni8 3.141502 1_555
Lu4 Ni5 3.141502 1_555
Lu5 Ni12 2.811008 1_655
Lu5 Ni12 2.811012 1_555
Lu5 Ni12 2.811012 1_665
Lu5 Ni1 3.141498 1_655
Lu5 Ni10 3.141498 1_655
Lu5 Ni2 3.141498 1_545
Lu5 Ni11 3.141498 1_545
Lu5 Ni0 3.141500 1_655
Lu5 Ni9 3.141500 1_655
Lu5 Ni0 3.141500 1_545
Lu5 Ni9 3.141500 1_545
Lu5 Ni1 3.141502 1_555
Lu5 Ni10 3.141502 1_555
Lu5 Ni2 3.141502 1_555
Lu5 Ni11 3.141502 1_555
Cu0 Ni0 2.431825 1_555
Cu0 Ni9 2.431825 1_555
Cu0 Ni2 2.431827 1_555
Cu0 Ni11 2.431827 1_555
Cu0 Ni1 2.431827 1_555
Cu0 Ni10 2.431827 1_555
Cu0 Ni12 2.811008 1_565
Cu0 Lu5 2.811008 1_455
Cu0 Lu5 2.811008 1_565
Cu0 Ni12 2.811012 1_665
Cu0 Ni12 2.811012 1_555
Cu0 Lu5 2.811016 1_555
Cu1 Ni6 2.431825 1_555
Cu1 Ni3 2.431825 1_555
Cu1 Ni8 2.431827 1_555
Cu1 Ni5 2.431827 1_555
Cu1 Ni7 2.431827 1_555
Cu1 Ni4 2.431827 1_555
Cu1 Ni13 2.811008 1_655
Cu1 Lu4 2.811008 1_655
Cu1 Lu4 2.811008 1_545
Cu1 Ni13 2.811012 1_555
Cu1 Ni13 2.811012 1_665
Cu1 Lu4 2.811016 1_555
Ni0 Ni2 2.431725 1_555
Ni0 Ni1 2.431725 1_555
Ni0 Ni12 2.433616 1_565
Ni0 Ni2 2.437089 1_455
Ni0 Ni1 2.437089 1_565
Ni0 Ni14 2.437813 1_565
Ni1 Ni2 2.431725 1_555
Ni1 Ni12 2.433616 1_555
Ni1 Ni2 2.437089 1_445
Ni1 Ni14 2.437813 1_555
Ni3 Ni5 2.431725 1_555
Ni3 Ni4 2.431725 1_555
Ni3 Ni5 2.437089 1_655
Ni3 Ni4 2.437089 1_545
Ni4 Ni5 2.431725 1_555
Ni4 Ni5 2.437089 1_665
Ni6 Ni8 2.431725 1_555
Ni6 Ni7 2.431725 1_555
Ni6 Ni8 2.437089 1_655
Ni6 Ni7 2.437089 1_545
Ni7 Ni8 2.431725 1_555
Ni7 Ni8 2.437089 1_665
Ni10 Ni9 2.431725 1_555
Ni10 Ni11 2.431725 1_555
Ni10 Ni12 2.433616 1_555
Ni10 Ni9 2.437089 1_545
Ni10 Ni11 2.437089 1_445
Ni10 Ni15 2.437813 1_555
Ni11 Ni9 2.431725 1_555
Ni11 Ni12 2.433616 1_665
Ni11 Ni9 2.437089 1_655
Ni11 Ni15 2.437813 1_665
Ni12 Ni2 2.433616 1_445
Ni12 Ni9 2.433616 1_545
Ni13 Ni8 2.433616 1_555
Ni13 Ni5 2.433616 1_555
Ni13 Ni6 2.433616 1_455
Ni13 Ni3 2.433616 1_455
Ni13 Ni7 2.433616 1_445
Ni13 Ni4 2.433616 1_445
Ni14 Ni5 2.437813 1_555
Ni14 Ni2 2.437813 1_445
Ni14 Ni3 2.437813 1_455
Ni14 Ni4 2.437813 1_445
Ni15 Ni8 2.437813 1_554
Ni15 Ni9 2.437813 1_545
Ni15 Ni6 2.437813 1_454
Ni15 Ni7 2.437813 1_444
