# generated using pymatgen
data_Ta2TiZnOs4
_symmetry_space_group_name_H-M   'P 1'
_cell_length_a   6.25675145
_cell_length_b   4.39776787
_cell_length_c   8.80651899
_cell_angle_alpha   90.00000000
_cell_angle_beta   90.00032302
_cell_angle_gamma   90.00000000
_symmetry_Int_Tables_number   1
_chemical_formula_structural   Ta2TiZnOs4
_chemical_formula_sum   'Ta4 Ti2 Zn2 Os8'
_cell_volume   242.31789113
_cell_formula_units_Z   2
loop_
 _symmetry_equiv_pos_site_id
 _symmetry_equiv_pos_as_xyz
  1  'x, y, z'
loop_
 _atom_site_type_symbol
 _atom_site_label
 _atom_site_symmetry_multiplicity
 _atom_site_fract_x
 _atom_site_fract_y
 _atom_site_fract_z
 _atom_site_occupancy
  Ta  Ta0  1  0.74999900  0.25000000  0.13430658  1
  Ta  Ta1  1  0.25000000  0.74999900  0.36569342  1
  Ta  Ta2  1  0.75000000  0.25000000  0.61691508  1
  Ta  Ta3  1  0.25000000  0.74999900  0.88308492  1
  Ti  Ti0  1  0.25000100  0.25000000  0.62473845  1
  Ti  Ti1  1  0.75000000  0.74999900  0.87526155  1
  Zn  Zn0  1  0.25000000  0.25000000  0.12431697  1
  Zn  Zn1  1  0.74999900  0.74999900  0.37568303  1
  Os  Os0  1  0.50465416  0.74999900  0.12087886  1
  Os  Os1  1  0.99534384  0.74999900  0.12088186  1
  Os  Os2  1  0.49534684  0.25000000  0.37912014  1
  Os  Os3  1  0.00465416  0.25000000  0.37911914  1
  Os  Os4  1  0.00434228  0.74999900  0.62835088  1
  Os  Os5  1  0.49566472  0.74999900  0.62835288  1
  Os  Os6  1  0.99565872  0.25000000  0.87164912  1
  Os  Os7  1  0.50433628  0.25000000  0.87164712  1
loop_
_geom_bond_atom_site_label_1
_geom_bond_atom_site_label_2
_geom_bond_distance
_geom_bond_site_symmetry_2
Os0 Ta3 2.631350 1_554
Os0 Ti1 2.652392 1_554
Os0 Ta1 2.680830 1_555
Os0 Ta0 2.684300 1_555
Os0 Ta0 2.684307 1_565
Os0 Zn0 2.715625 1_555
Os0 Zn0 2.715632 1_565
Os0 Zn1 2.718756 1_555
Os1 Ta3 2.631393 1_654
Os1 Ti1 2.652392 1_554
Os1 Ta1 2.680802 1_655
Os1 Ta0 2.684300 1_555
Os1 Ta0 2.684307 1_565
Os1 Zn0 2.715632 1_655
Os1 Zn0 2.715639 1_665
Os1 Zn1 2.718748 1_555
Os2 Ta2 2.631353 1_555
Os2 Ti0 2.652399 1_555
Os2 Ta0 2.680815 1_555
Os2 Ta1 2.684307 1_555
Os2 Ta1 2.684314 1_545
Os2 Zn1 2.715617 1_555
Os2 Zn1 2.715625 1_545
Os2 Zn0 2.718755 1_555
Os3 Ta2 2.631378 1_455
Os3 Ti0 2.652396 1_555
Os3 Ta0 2.680805 1_455
Os3 Ta1 2.684304 1_555
Os3 Ta1 2.684311 1_545
Os3 Zn1 2.715628 1_455
Os3 Zn1 2.715635 1_445
Os3 Zn0 2.718759 1_555
Os4 Ti0 2.683008 1_555
Os4 Ti0 2.683015 1_565
Os4 Ti1 2.694545 1_455
Os4 Ta2 2.716179 1_455
Os4 Ta2 2.716186 1_465
Os4 Ta3 2.719352 1_555
Os4 Zn1 2.735612 1_455
Os4 Ta1 2.777209 1_555
Os5 Ti0 2.683026 1_555
Os5 Ti0 2.683033 1_565
Os5 Ti1 2.694490 1_555
Os5 Ta2 2.716154 1_555
Os5 Ta2 2.716162 1_565
Os5 Ta3 2.719376 1_555
Os5 Zn1 2.735608 1_555
Os5 Ta1 2.777234 1_555
Os6 Ti1 2.683008 1_555
Os6 Ti1 2.683015 1_545
Os6 Ti0 2.694545 1_655
Os6 Ta3 2.716175 1_655
Os6 Ta3 2.716182 1_645
Os6 Ta2 2.719355 1_555
Os6 Zn0 2.735605 1_656
Os6 Ta0 2.777216 1_556
Os7 Ti1 2.683026 1_555
Os7 Ti1 2.683033 1_545
Os7 Ti0 2.694490 1_555
Os7 Ta3 2.716158 1_555
Os7 Ta3 2.716165 1_545
Os7 Ta2 2.719373 1_555
Os7 Zn0 2.735615 1_556
Os7 Ta0 2.777227 1_556
