# generated using pymatgen
data_BaSc2O4
_symmetry_space_group_name_H-M   'P 1'
_cell_length_a   5.73608850
_cell_length_b   5.73608850
_cell_length_c   20.61042266
_cell_angle_alpha   89.92421871
_cell_angle_beta   89.92421871
_cell_angle_gamma   61.08167629
_symmetry_Int_Tables_number   1
_chemical_formula_structural   BaSc2O4
_chemical_formula_sum   'Ba6 Sc12 O24'
_cell_volume   593.58090983
_cell_formula_units_Z   6
loop_
 _symmetry_equiv_pos_site_id
 _symmetry_equiv_pos_as_xyz
  1  'x, y, z'
loop_
 _atom_site_type_symbol
 _atom_site_label
 _atom_site_symmetry_multiplicity
 _atom_site_fract_x
 _atom_site_fract_y
 _atom_site_fract_z
 _atom_site_occupancy
  Ba  Ba0  1  0.94380250  0.72547469  0.13735016  1
  Ba  Ba1  1  0.27452531  0.05619750  0.36264984  1
  Ba  Ba2  1  0.05619750  0.27452531  0.86264984  1
  Ba  Ba3  1  0.72547469  0.94380250  0.63735016  1
  Ba  Ba4  1  0.60747937  0.39252063  0.25000000  1
  Ba  Ba5  1  0.39252063  0.60747937  0.75000000  1
  Sc  Sc0  1  0.95764760  0.71471203  0.44692626  1
  Sc  Sc1  1  0.28528797  0.04235240  0.05307374  1
  Sc  Sc2  1  0.04235240  0.28528797  0.55307374  1
  Sc  Sc3  1  0.71471203  0.95764760  0.94692626  1
  Sc  Sc4  1  0.61886834  0.38606873  0.07007967  1
  Sc  Sc5  1  0.61393127  0.38113166  0.42992033  1
  Sc  Sc6  1  0.38113166  0.61393127  0.92992033  1
  Sc  Sc7  1  0.38606873  0.61886834  0.57007967  1
  Sc  Sc8  1  0.94068591  0.72265288  0.30479535  1
  Sc  Sc9  1  0.27734712  0.05931409  0.19520465  1
  Sc  Sc10  1  0.05931409  0.27734712  0.69520465  1
  Sc  Sc11  1  0.72265288  0.94068591  0.80479535  1
  O  O0  1  0.81580932  0.52395091  0.37581056  1
  O  O1  1  0.47604909  0.18419068  0.12418944  1
  O  O2  1  0.18419068  0.47604909  0.62418944  1
  O  O3  1  0.52395091  0.81580932  0.87581056  1
  O  O4  1  0.07734403  0.92265597  0.25000000  1
  O  O5  1  0.92265597  0.07734403  0.75000000  1
  O  O6  1  -0.00000000  -0.00000000  0.50000000  1
  O  O7  1  -0.00000000  -0.00000000  0.00000000  1
  O  O8  1  0.12841122  0.39566989  0.24862831  1
  O  O9  1  0.60433011  0.87158878  0.25137169  1
  O  O10  1  0.87158878  0.60433011  0.75137169  1
  O  O11  1  0.39566989  0.12841122  0.74862831  1
  O  O12  1  0.27111548  0.59068313  0.37621199  1
  O  O13  1  0.40931687  0.72888452  0.12378801  1
  O  O14  1  0.72888452  0.40931687  0.62378801  1
  O  O15  1  0.59068313  0.27111548  0.87621199  1
  O  O16  1  0.29465345  0.40017015  0.49638808  1
  O  O17  1  0.59982985  0.70534655  0.00361192  1
  O  O18  1  0.24738937  0.96483005  0.61932435  1
  O  O19  1  0.03516995  0.75261063  0.88067565  1
  O  O20  1  0.75261063  0.03516995  0.38067565  1
  O  O21  1  0.96483005  0.24738937  0.11932435  1
  O  O22  1  0.40017015  0.29465345  0.99638808  1
  O  O23  1  0.70534655  0.59982985  0.50361192  1
loop_
_geom_bond_atom_site_label_1
_geom_bond_atom_site_label_2
_geom_bond_distance
_geom_bond_site_symmetry_2
Ba0 O13 2.693914 1_655
Ba0 O21 2.712136 1_555
Ba0 O1 2.714442 1_565
Ba0 O8 2.831577 1_655
Ba0 O4 2.847134 1_655
Ba0 O9 2.903720 1_555
Ba0 O13 3.069569 1_555
Ba0 O21 3.075918 1_565
Ba0 O1 3.141192 1_655
Ba0 O7 3.327762 1_665
Ba0 O17 3.426307 1_555
Ba1 O12 2.693914 1_545
Ba1 O20 2.712136 1_555
Ba1 O0 2.714442 1_455
Ba1 O9 2.831577 1_545
Ba1 O4 2.847134 1_545
Ba1 O8 2.903720 1_555
Ba1 O12 3.069569 1_555
Ba1 O20 3.075918 1_455
Ba1 O0 3.141192 1_545
Ba1 O6 3.327762 1_555
Ba1 O16 3.426307 1_555
Ba2 O15 2.693914 1_455
Ba2 O19 2.712136 1_555
Ba2 O3 2.714442 1_545
Ba2 O10 2.831577 1_455
Ba2 O5 2.847134 1_455
Ba2 O11 2.903720 1_555
Ba2 O15 3.069569 1_555
Ba2 O19 3.075918 1_545
Ba2 O3 3.141192 1_455
Ba2 O7 3.327762 1_556
Ba2 O22 3.426307 1_555
Ba3 O14 2.693914 1_565
Ba3 O18 2.712136 1_555
Ba3 O2 2.714442 1_655
Ba3 O11 2.831577 1_565
Ba3 O5 2.847134 1_565
Ba3 O10 2.903720 1_555
Ba3 O14 3.069569 1_555
Ba3 O18 3.075918 1_655
Ba3 O2 3.141192 1_565
Ba3 O6 3.327762 1_665
Ba3 O23 3.426307 1_555
Ba4 O4 2.739130 1_645
Ba4 O8 2.739471 1_555
Ba4 O9 2.739471 1_555
Ba4 O9 2.996984 1_545
Ba4 O8 2.996984 1_655
Ba4 O4 3.090484 1_555
Ba4 O1 3.099150 1_555
Ba4 O0 3.099150 1_555
Ba4 O12 3.107228 1_555
Ba4 O13 3.107228 1_555
Ba4 O21 3.238743 1_555
Ba4 O20 3.238743 1_555
Ba5 O5 2.739130 1_465
Ba5 O11 2.739471 1_555
Ba5 O10 2.739471 1_555
Ba5 O10 2.996984 1_455
Ba5 O11 2.996984 1_565
Ba5 O5 3.090484 1_555
Ba5 O2 3.099150 1_555
Ba5 O3 3.099150 1_555
Ba5 O14 3.107228 1_555
Ba5 O15 3.107228 1_555
Ba5 O18 3.238743 1_555
Ba5 O19 3.238743 1_555
O0 Sc5 2.041428 1_555
O0 Sc8 2.176430 1_555
O0 Sc0 2.208166 1_555
O1 Sc4 2.041428 1_555
O1 Sc9 2.176430 1_555
O1 Sc1 2.208166 1_555
O2 Sc7 2.041428 1_555
O2 Sc10 2.176430 1_555
O2 Sc2 2.208166 1_555
O3 Sc6 2.041428 1_555
O3 Sc11 2.176430 1_555
O3 Sc3 2.208166 1_555
O4 Sc9 2.017431 1_565
O4 Sc8 2.017431 1_455
O5 Sc11 2.017431 1_545
O5 Sc10 2.017431 1_655
O6 Sc2 2.079284 1_555
O6 Sc0 2.079284 1_445
O6 Sc5 2.662271 1_455
O6 Sc7 2.662271 1_545
O7 Sc1 2.079284 1_555
O7 Sc3 2.079284 1_444
O7 Sc6 2.662271 1_544
O7 Sc4 2.662271 1_455
O8 Sc8 2.016601 1_455
O8 Sc9 2.018348 1_555
O9 Sc9 2.016601 1_565
O9 Sc8 2.018348 1_555
O10 Sc10 2.016601 1_655
O10 Sc11 2.018348 1_555
O11 Sc11 2.016601 1_545
O11 Sc10 2.018348 1_555
O12 Sc5 2.062345 1_555
O12 Sc0 2.149893 1_455
O12 Sc8 2.224605 1_455
O13 Sc4 2.062345 1_555
O13 Sc1 2.149893 1_565
O13 Sc9 2.224605 1_565
O14 Sc7 2.062345 1_555
O14 Sc2 2.149893 1_655
O14 Sc10 2.224605 1_655
O15 Sc6 2.062345 1_555
O15 Sc3 2.149893 1_545
O15 Sc11 2.224605 1_545
O16 Sc0 2.158383 1_455
O16 Sc7 2.190612 1_555
O16 Sc2 2.193052 1_555
O16 Sc5 2.245665 1_555
O17 Sc1 2.158383 1_565
O17 Sc6 2.190612 1_554
O17 Sc3 2.193052 1_554
O17 Sc4 2.245665 1_555
O18 Sc7 2.019286 1_555
O18 Sc2 2.129171 1_565
O18 Sc10 2.226169 1_565
O19 Sc6 2.019286 1_555
O19 Sc3 2.129171 1_455
O19 Sc11 2.226169 1_455
O20 Sc5 2.019286 1_555
O20 Sc0 2.129171 1_545
O20 Sc8 2.226169 1_545
O21 Sc4 2.019286 1_555
O21 Sc1 2.129171 1_655
O21 Sc9 2.226169 1_655
O22 Sc3 2.158383 1_545
O22 Sc4 2.190612 1_556
O22 Sc1 2.193052 1_556
O22 Sc6 2.245665 1_555
O23 Sc2 2.158383 1_655
O23 Sc5 2.190612 1_555
O23 Sc0 2.193052 1_555
O23 Sc7 2.245665 1_555
