# generated using pymatgen
data_Sc7(BiTe3)2
_symmetry_space_group_name_H-M   'P 1'
_cell_length_a   8.02555209
_cell_length_b   8.02555032
_cell_length_c   9.95267054
_cell_angle_alpha   54.50592942
_cell_angle_beta   54.50593759
_cell_angle_gamma   63.40459466
_symmetry_Int_Tables_number   1
_chemical_formula_structural   Sc7(BiTe3)2
_chemical_formula_sum   'Sc7 Bi2 Te6'
_cell_volume   418.98488434
_cell_formula_units_Z   1
loop_
 _symmetry_equiv_pos_site_id
 _symmetry_equiv_pos_as_xyz
  1  'x, y, z'
loop_
 _atom_site_type_symbol
 _atom_site_label
 _atom_site_symmetry_multiplicity
 _atom_site_fract_x
 _atom_site_fract_y
 _atom_site_fract_z
 _atom_site_occupancy
  Sc  Sc0  1  0.73749785  0.26250215  0.50000000  1
  Sc  Sc1  1  0.26250215  0.73749785  0.50000000  1
  Sc  Sc2  1  0.50000000  0.00000000  0.50000000  1
  Sc  Sc3  1  0.00000000  0.50000000  0.50000000  1
  Sc  Sc4  1  0.74691111  0.74691111  0.00446891  1
  Sc  Sc5  1  0.25308889  0.25308889  0.99553109  1
  Sc  Sc6  1  0.00000000  0.00000000  0.00000000  1
  Bi  Bi0  1  0.96055579  0.96055579  0.33512275  1
  Bi  Bi1  1  0.03944421  0.03944421  0.66487725  1
  Te  Te0  1  0.54245583  0.04012190  0.16595706  1
  Te  Te1  1  0.45754417  0.95987810  0.83404294  1
  Te  Te2  1  0.95987810  0.45754417  0.83404294  1
  Te  Te3  1  0.04012190  0.54245583  0.16595706  1
  Te  Te4  1  0.45590830  0.45590830  0.32827251  1
  Te  Te5  1  0.54409170  0.54409170  0.67172749  1
loop_
_geom_bond_atom_site_label_1
_geom_bond_atom_site_label_2
_geom_bond_distance
_geom_bond_site_symmetry_2
Sc0 Te5 2.949831 1_555
Sc0 Te4 2.949831 1_555
Sc0 Te1 2.972394 1_545
Sc0 Te3 2.972394 1_655
Sc1 Te4 2.949831 1_555
Sc1 Te5 2.949831 1_555
Sc1 Te0 2.972394 1_565
Sc1 Te2 2.972394 1_455
Sc2 Te4 2.952144 1_555
Sc2 Te5 2.952144 1_545
Sc2 Te1 2.968589 1_545
Sc2 Te0 2.968589 1_555
Sc3 Te4 2.952144 1_555
Sc3 Te5 2.952144 1_455
Sc3 Te2 2.968589 1_455
Sc3 Te3 2.968589 1_555
Sc4 Te0 2.947081 1_565
Sc4 Te3 2.947081 1_655
Sc4 Te4 2.949267 1_555
Sc4 Te2 2.974105 1_554
Sc4 Te1 2.974105 1_554
Sc5 Te1 2.947081 1_545
Sc5 Te2 2.947081 1_455
Sc5 Te5 2.949267 1_555
Sc5 Te3 2.974105 1_556
Sc5 Te0 2.974105 1_556
Sc6 Te2 2.971795 1_454
Sc6 Te3 2.971795 1_545
Sc6 Te1 2.971796 1_544
Sc6 Te0 2.971796 1_455
Bi0 Sc5 2.992237 1_664
Bi0 Sc6 2.993766 1_665
Bi0 Sc3 2.994531 1_655
Bi0 Sc2 2.994532 1_565
Bi0 Sc0 3.015298 1_565
Bi0 Sc1 3.015298 1_655
Bi1 Sc4 2.992237 1_446
Bi1 Sc6 2.993766 1_556
Bi1 Sc3 2.994531 1_555
Bi1 Sc2 2.994532 1_555
Bi1 Sc1 3.015298 1_545
Bi1 Sc0 3.015298 1_455
