# generated using pymatgen
data_La5(AlBr)4
_symmetry_space_group_name_H-M   'P 1'
_cell_length_a   11.72709532
_cell_length_b   11.72709532
_cell_length_c   11.72772019
_cell_angle_alpha   138.37222662
_cell_angle_beta   138.37222662
_cell_angle_gamma   60.34791040
_symmetry_Int_Tables_number   1
_chemical_formula_structural   La5(AlBr)4
_chemical_formula_sum   'La10 Al8 Br8'
_cell_volume   704.19591040
_cell_formula_units_Z   2
loop_
 _symmetry_equiv_pos_site_id
 _symmetry_equiv_pos_as_xyz
  1  'x, y, z'
loop_
 _atom_site_type_symbol
 _atom_site_label
 _atom_site_symmetry_multiplicity
 _atom_site_fract_x
 _atom_site_fract_y
 _atom_site_fract_z
 _atom_site_occupancy
  La  La0  1  0.25003371  0.24996629  -0.00000000  1
  La  La1  1  0.74996629  0.75003371  -0.00000000  1
  La  La2  1  0.72408538  0.54659349  0.50000945  1
  La  La3  1  0.27591462  0.45340651  0.49999055  1
  La  La4  1  0.95340651  0.77591462  0.49999055  1
  La  La5  1  0.77564725  0.27564725  0.82193224  1
  La  La6  1  0.45354883  0.95354883  0.17756726  1
  La  La7  1  0.54645117  0.04645117  0.82243274  1
  La  La8  1  0.22435275  0.72435275  0.17806776  1
  La  La9  1  0.04659349  0.22408538  0.50000945  1
  Al  Al0  1  0.57819031  0.36297359  0.50000915  1
  Al  Al1  1  0.42180969  0.63702641  0.49999085  1
  Al  Al2  1  0.13702641  0.92180969  0.49999085  1
  Al  Al3  1  0.92156603  0.42156603  0.78443688  1
  Al  Al4  1  0.63714642  0.13714642  0.21564857  1
  Al  Al5  1  0.36285358  0.86285358  0.78435143  1
  Al  Al6  1  0.07843397  0.57843397  0.21556312  1
  Al  Al7  1  0.86297359  0.07819031  0.50000915  1
  Br  Br0  1  0.64425355  0.85574645  0.50000000  1
  Br  Br1  1  0.85554818  0.35554818  0.21110141  1
  Br  Br2  1  0.90672453  0.90667687  0.00003996  1
  Br  Br3  1  0.59332313  0.59327547  0.99996004  1
  Br  Br4  1  0.09327547  0.09332313  0.99996004  1
  Br  Br5  1  0.40667687  0.40672453  0.00003996  1
  Br  Br6  1  0.35574645  0.14425355  0.50000000  1
  Br  Br7  1  0.14445182  0.64445182  0.78889859  1
loop_
_geom_bond_atom_site_label_1
_geom_bond_atom_site_label_2
_geom_bond_distance
_geom_bond_site_symmetry_2
Al0 Al3 2.654229 1_555
Al0 Al4 2.654266 1_555
Al0 Al1 2.803684 1_555
Al0 La3 3.157511 1_555
Al0 La1 3.262491 1_556
Al0 La0 3.262651 1_555
Al0 La6 3.320760 1_545
Al0 La5 3.320961 1_555
Al0 La2 3.348049 1_555
Al1 Al6 2.654229 1_555
Al1 Al5 2.654266 1_555
Al1 La2 3.157511 1_555
Al1 La0 3.262491 1_555
Al1 La1 3.262651 1_556
Al1 La7 3.320760 1_565
Al1 La8 3.320961 1_555
Al1 La3 3.348049 1_555
Al2 Al6 2.654229 1_555
Al2 Al5 2.654266 1_555
Al2 Al7 2.803684 1_465
Al2 La9 3.157511 1_565
Al2 La1 3.262491 1_455
Al2 La0 3.262651 1_566
Al2 La7 3.320760 1_565
Al2 La8 3.320961 1_555
Al2 La4 3.348049 1_455
Al3 Al7 2.654229 1_555
Al3 Al6 2.805580 1_656
Al3 La8 3.161119 1_656
Al3 La0 3.264356 1_656
Al3 La1 3.264356 1_556
Al3 La9 3.323107 1_655
Al3 La2 3.323107 1_555
Al3 La5 3.346192 1_555
Al4 Al7 2.654266 1_555
Al4 Al5 2.805310 1_544
Al4 La7 3.159605 1_554
Al4 La0 3.263580 1_555
Al4 La1 3.263580 1_545
Al4 La9 3.322495 1_655
Al4 La2 3.322495 1_555
Al4 La6 3.344052 1_545
Al5 La6 3.159605 1_556
Al5 La0 3.263580 1_566
Al5 La1 3.263580 1_556
Al5 La4 3.322495 1_455
Al5 La3 3.322495 1_555
Al5 La7 3.344052 1_565
Al6 La5 3.161119 1_454
Al6 La1 3.264356 1_455
Al6 La0 3.264356 1_555
Al6 La4 3.323107 1_455
Al6 La3 3.323107 1_555
Al6 La8 3.346192 1_555
Al7 La4 3.157511 1_545
Al7 La0 3.262491 1_656
Al7 La1 3.262651 1_545
Al7 La6 3.320760 1_545
Al7 La5 3.320961 1_555
Al7 La9 3.348049 1_655
Br0 La2 3.265353 1_555
Br0 La4 3.265353 1_555
Br0 La8 3.448762 1_555
Br0 La5 3.448762 1_565
Br0 La7 3.452417 1_565
Br0 La6 3.452417 1_555
Br1 La7 3.264273 1_554
Br1 La5 3.266328 1_554
Br1 La3 3.451682 1_655
Br1 La4 3.451682 1_555
Br1 La9 3.452460 1_655
Br1 La2 3.452460 1_555
Br2 La2 3.156052 1_554
Br2 La9 3.156182 1_665
Br2 La7 3.157753 1_564
Br2 La8 3.157916 1_655
Br2 La1 3.176894 1_555
Br3 La4 3.156052 1_556
Br3 La3 3.156182 1_555
Br3 La6 3.157753 1_556
Br3 La5 3.157916 1_555
Br3 La1 3.176894 1_556
Br4 La3 3.156052 1_556
Br4 La4 3.156182 1_445
Br4 La6 3.157753 1_546
Br4 La5 3.157916 1_455
Br4 La0 3.176894 1_556
Br5 La9 3.156052 1_554
Br5 La2 3.156182 1_555
Br5 La7 3.157753 1_554
Br5 La8 3.157916 1_555
Br5 La0 3.176894 1_555
Br6 La9 3.265353 1_555
Br6 La3 3.265353 1_555
Br6 La5 3.448762 1_555
Br6 La8 3.448762 1_545
Br6 La7 3.452417 1_555
Br6 La6 3.452417 1_545
Br7 La6 3.264273 1_556
Br7 La8 3.266328 1_556
Br7 La2 3.451682 1_455
Br7 La9 3.451682 1_555
Br7 La4 3.452460 1_455
Br7 La3 3.452460 1_555
