# generated using pymatgen
data_Hf6Ta4Al12Os7
_symmetry_space_group_name_H-M   'P 1'
_cell_length_a   8.77631152
_cell_length_b   8.77631154
_cell_length_c   8.77631064
_cell_angle_alpha   59.99999229
_cell_angle_beta   59.99999222
_cell_angle_gamma   59.99999275
_symmetry_Int_Tables_number   1
_chemical_formula_structural   Hf6Ta4Al12Os7
_chemical_formula_sum   'Hf6 Ta4 Al12 Os7'
_cell_volume   477.99238294
_cell_formula_units_Z   1
loop_
 _symmetry_equiv_pos_site_id
 _symmetry_equiv_pos_as_xyz
  1  'x, y, z'
loop_
 _atom_site_type_symbol
 _atom_site_label
 _atom_site_symmetry_multiplicity
 _atom_site_fract_x
 _atom_site_fract_y
 _atom_site_fract_z
 _atom_site_occupancy
  Hf  Hf0  1  0.69972254  0.69972254  0.30027746  1
  Hf  Hf1  1  0.30027746  0.69972254  0.30027746  1
  Hf  Hf2  1  0.69972254  0.30027746  0.30027746  1
  Hf  Hf3  1  0.30027746  0.30027746  0.69972254  1
  Hf  Hf4  1  0.69972254  0.30027746  0.69972254  1
  Hf  Hf5  1  0.30027746  0.69972254  0.69972254  1
  Ta  Ta0  1  0.87910140  0.87910140  0.36269780  1
  Ta  Ta1  1  0.87910140  0.36269780  0.87910140  1
  Ta  Ta2  1  0.36269780  0.87910140  0.87910140  1
  Ta  Ta3  1  0.87910140  0.87910140  0.87910140  1
  Al  Al0  1  0.12126708  0.12126708  0.63619976  1
  Al  Al1  1  0.12126708  0.63619976  0.12126708  1
  Al  Al2  1  0.63619976  0.12126708  0.12126708  1
  Al  Al3  1  0.12126708  0.12126708  0.12126708  1
  Al  Al4  1  0.65928424  0.65928424  0.02214629  1
  Al  Al5  1  0.65928424  0.02214629  0.65928424  1
  Al  Al6  1  0.02214629  0.65928424  0.65928424  1
  Al  Al7  1  0.65928424  0.65928424  0.65928424  1
  Al  Al8  1  0.33366534  0.33366534  0.99900399  1
  Al  Al9  1  0.33366534  0.99900399  0.33366534  1
  Al  Al10  1  0.99900399  0.33366534  0.33366534  1
  Al  Al11  1  0.33366534  0.33366534  0.33366534  1
  Os  Os0  1  0.00000000  0.00000000  0.00000000  1
  Os  Os1  1  0.99760869  0.99760869  0.50239131  1
  Os  Os2  1  0.50239131  0.99760869  0.50239131  1
  Os  Os3  1  0.99760869  0.50239131  0.50239131  1
  Os  Os4  1  0.50239131  0.50239131  0.99760869  1
  Os  Os5  1  0.99760869  0.50239131  0.99760869  1
  Os  Os6  1  0.50239131  0.99760869  0.99760869  1
loop_
_geom_bond_atom_site_label_1
_geom_bond_atom_site_label_2
_geom_bond_distance
_geom_bond_site_symmetry_2
Hf0 Ta3 3.075711 1_554
Hf0 Ta0 3.075724 1_555
Hf0 Os5 3.165160 1_554
Hf0 Os6 3.165160 1_554
Hf0 Os3 3.165160 1_555
Hf0 Os2 3.165160 1_555
Hf1 Ta2 3.075708 1_554
Hf1 Ta0 3.075708 1_455
Hf1 Os1 3.165160 1_455
Hf1 Os4 3.165160 1_554
Hf1 Os6 3.165160 1_554
Hf1 Os3 3.165160 1_455
Hf2 Ta1 3.075708 1_554
Hf2 Ta0 3.075708 1_545
Hf2 Os1 3.165160 1_545
Hf2 Os4 3.165160 1_554
Hf2 Os5 3.165160 1_554
Hf2 Os2 3.165160 1_545
Hf3 Ta1 3.075708 1_455
Hf3 Ta2 3.075708 1_545
Hf3 Os5 3.165160 1_455
Hf3 Os6 3.165160 1_545
Hf3 Os3 3.165160 1_455
Hf3 Os2 3.165160 1_545
Hf4 Ta3 3.075711 1_545
Hf4 Ta1 3.075723 1_555
Hf4 Os1 3.165160 1_545
Hf4 Os4 3.165160 1_555
Hf4 Os6 3.165160 1_545
Hf4 Os3 3.165160 1_555
Hf5 Ta3 3.075711 1_455
Hf5 Ta2 3.075723 1_555
Hf5 Os1 3.165160 1_455
Hf5 Os4 3.165160 1_555
Hf5 Os5 3.165160 1_455
Hf5 Os2 3.165160 1_555
Al0 Os0 2.606930 1_556
Al0 Os2 2.731555 1_545
Al0 Os3 2.731555 1_455
Al0 Os1 2.731562 1_445
Al0 Al11 2.752329 1_555
Al0 Al9 2.752334 1_545
Al0 Al10 2.752334 1_455
Al0 Ta3 3.005665 1_445
Al0 Ta1 3.005671 1_455
Al0 Ta2 3.005671 1_545
Al0 Hf3 3.076867 1_555
Al0 Hf4 3.076874 1_455
Al0 Hf5 3.076874 1_545
Al1 Os0 2.606930 1_565
Al1 Os3 2.731555 1_455
Al1 Os4 2.731555 1_554
Al1 Os5 2.731562 1_454
Al1 Al11 2.752329 1_555
Al1 Al8 2.752334 1_554
Al1 Al10 2.752334 1_455
Al1 Ta3 3.005665 1_454
Al1 Ta0 3.005671 1_455
Al1 Ta2 3.005671 1_554
Al1 Hf1 3.076867 1_555
Al1 Hf5 3.076874 1_554
Al1 Hf0 3.076874 1_455
Al2 Os0 2.606930 1_655
Al2 Os2 2.731555 1_545
Al2 Os4 2.731555 1_554
Al2 Os6 2.731562 1_544
Al2 Al8 2.752334 1_554
Al2 Al9 2.752334 1_545
Al2 Ta3 3.005665 1_544
Al2 Ta0 3.005671 1_545
Al2 Ta1 3.005671 1_554
Al2 Hf2 3.076867 1_555
Al2 Hf4 3.076874 1_554
Al2 Hf0 3.076874 1_545
Al3 Os0 2.606937 1_555
Al3 Os1 2.731554 1_445
Al3 Os6 2.731555 1_544
Al3 Os5 2.731555 1_454
Al3 Al9 2.752327 1_545
Al3 Al8 2.752327 1_554
Al3 Ta1 3.005665 1_454
Al3 Ta2 3.005665 1_544
Al3 Ta0 3.005665 1_445
Al3 Hf3 3.076873 1_554
Al3 Hf2 3.076873 1_455
Al3 Hf1 3.076873 1_545
Al4 Os4 2.515417 1_554
Al4 Os5 2.515425 1_554
Al4 Os6 2.515425 1_554
Al4 Ta2 2.810224 1_554
Al4 Ta1 2.810224 1_554
Al4 Ta3 2.810245 1_554
Al4 Hf1 2.840552 1_555
Al4 Hf2 2.840552 1_555
Al4 Hf0 2.840557 1_555
Al5 Os2 2.515417 1_545
Al5 Os6 2.515424 1_545
Al5 Os1 2.515425 1_545
Al5 Ta0 2.810223 1_545
Al5 Ta2 2.810224 1_545
Al5 Ta3 2.810245 1_545
Al5 Hf2 2.840552 1_555
Al5 Hf3 2.840552 1_555
Al5 Hf4 2.840558 1_555
Al6 Os3 2.515417 1_455
Al6 Os5 2.515424 1_455
Al6 Os1 2.515425 1_455
Al6 Ta0 2.810223 1_455
Al6 Ta1 2.810224 1_455
Al6 Ta3 2.810245 1_455
Al6 Hf1 2.840552 1_555
Al6 Hf3 2.840552 1_555
Al6 Hf5 2.840558 1_555
Al7 Os4 2.515422 1_555
Al7 Os3 2.515423 1_555
Al7 Os2 2.515423 1_555
Al7 Ta2 2.810238 1_555
Al7 Ta1 2.810238 1_555
Al7 Ta0 2.810238 1_555
Al7 Hf0 2.840549 1_555
Al7 Hf5 2.840549 1_555
Al7 Hf4 2.840549 1_555
Al8 Os5 2.557756 1_455
Al8 Os6 2.557756 1_545
Al8 Os4 2.557756 1_555
Al8 Hf4 2.948871 1_555
Al8 Hf5 2.948871 1_555
Al8 Hf3 2.948872 1_555
Al9 Os6 2.557756 1_554
Al9 Os1 2.557756 1_455
Al9 Os2 2.557756 1_555
Al9 Hf5 2.948871 1_555
Al9 Hf0 2.948871 1_555
Al9 Hf1 2.948872 1_555
Al10 Os5 2.557756 1_554
Al10 Os1 2.557756 1_545
Al10 Os3 2.557756 1_555
Al10 Al3 2.752327 1_655
Al10 Hf4 2.948871 1_555
Al10 Hf0 2.948871 1_555
Al10 Hf2 2.948872 1_555
Al11 Os4 2.557756 1_554
Al11 Os3 2.557756 1_455
Al11 Os2 2.557756 1_545
Al11 Al2 2.752329 1_555
Al11 Hf3 2.948871 1_555
Al11 Hf2 2.948872 1_555
Al11 Hf1 2.948872 1_555
Os0 Ta3 2.599016 1_444
Os0 Ta0 2.599030 1_445
Os0 Ta2 2.599030 1_544
Os0 Ta1 2.599030 1_454
Os1 Ta0 2.701559 1_555
Os1 Ta3 2.701573 1_555
Os2 Ta2 2.701573 1_555
Os2 Ta0 2.701573 1_555
Os3 Ta1 2.701573 1_555
Os3 Ta0 2.701573 1_555
Os4 Ta1 2.701573 1_555
Os4 Ta2 2.701573 1_555
Os5 Ta1 2.701559 1_555
Os5 Ta3 2.701574 1_555
Os6 Ta2 2.701559 1_555
Os6 Ta3 2.701574 1_555
