# generated using pymatgen
data_Zr3Al2PtO
_symmetry_space_group_name_H-M   'P 1'
_cell_length_a   8.58198125
_cell_length_b   8.58198171
_cell_length_c   8.58198213
_cell_angle_alpha   60.00000215
_cell_angle_beta   60.00000039
_cell_angle_gamma   60.00000638
_symmetry_Int_Tables_number   1
_chemical_formula_structural   Zr3Al2PtO
_chemical_formula_sum   'Zr12 Al8 Pt4 O4'
_cell_volume   446.93851663
_cell_formula_units_Z   4
loop_
 _symmetry_equiv_pos_site_id
 _symmetry_equiv_pos_as_xyz
  1  'x, y, z'
loop_
 _atom_site_type_symbol
 _atom_site_label
 _atom_site_symmetry_multiplicity
 _atom_site_fract_x
 _atom_site_fract_y
 _atom_site_fract_z
 _atom_site_occupancy
  Zr  Zr0  1  0.56018069  0.93981931  0.56018069  1
  Zr  Zr1  1  0.31018069  0.68981931  0.68981931  1
  Zr  Zr2  1  0.68981931  0.31018069  0.31018069  1
  Zr  Zr3  1  0.31018069  0.68981931  0.31018069  1
  Zr  Zr4  1  0.68981931  0.68981931  0.31018069  1
  Zr  Zr5  1  0.31018069  0.31018069  0.68981931  1
  Zr  Zr6  1  0.56018069  0.56018069  0.93981931  1
  Zr  Zr7  1  0.93981931  0.56018069  0.56018069  1
  Zr  Zr8  1  0.56018069  0.93981931  0.93981931  1
  Zr  Zr9  1  0.93981931  0.93981931  0.56018069  1
  Zr  Zr10  1  0.68981931  0.31018069  0.68981931  1
  Zr  Zr11  1  0.93981931  0.56018069  0.93981931  1
  Al  Al0  1  0.33146110  0.33146110  0.33146110  1
  Al  Al1  1  0.24438431  0.91853890  0.91853890  1
  Al  Al2  1  0.91853890  0.24438431  0.91853890  1
  Al  Al3  1  0.91853890  0.91853890  0.24438431  1
  Al  Al4  1  0.33146110  0.00561569  0.33146110  1
  Al  Al5  1  0.33146110  0.33146110  0.00561569  1
  Al  Al6  1  0.00561569  0.33146110  0.33146110  1
  Al  Al7  1  0.91853890  0.91853890  0.91853890  1
  Pt  Pt0  1  0.12500000  0.12500000  0.12500000  1
  Pt  Pt1  1  0.62500000  0.12500000  0.12500000  1
  Pt  Pt2  1  0.12500000  0.62500000  0.12500000  1
  Pt  Pt3  1  0.12500000  0.12500000  0.62500000  1
  O  O0  1  0.62500000  0.62500000  0.62500000  1
  O  O1  1  0.12500000  0.62500000  0.62500000  1
  O  O2  1  0.62500000  0.12500000  0.62500000  1
  O  O3  1  0.62500000  0.62500000  0.12500000  1
loop_
_geom_bond_atom_site_label_1
_geom_bond_atom_site_label_2
_geom_bond_distance
_geom_bond_site_symmetry_2
Al0 Pt3 2.614829 1_555
Al0 Pt1 2.614829 1_555
Al0 Pt2 2.614829 1_555
Al0 Al6 2.796399 1_555
Al0 Al4 2.796399 1_555
Al0 Al5 2.796400 1_555
Al0 Zr2 2.904302 1_555
Al0 Zr3 2.904302 1_555
Al0 Zr5 2.904302 1_555
Al0 Zr6 3.108158 1_554
Al0 Zr7 3.108158 1_455
Al0 Zr0 3.108158 1_545
Al1 Pt0 2.614826 1_566
Al1 Pt2 2.614833 1_556
Al1 Pt3 2.614834 1_565
Al1 Al7 2.796399 1_455
Al1 Al3 2.796399 1_456
Al1 Al2 2.796400 1_465
Al1 Zr8 2.904294 1_555
Al1 Zr0 2.904299 1_555
Al1 Zr6 2.904299 1_555
Al1 Zr5 3.108155 1_565
Al1 Zr3 3.108155 1_556
Al1 Zr1 3.108162 1_555
Al2 Pt0 2.614826 1_656
Al2 Pt1 2.614833 1_556
Al2 Pt3 2.614834 1_655
Al2 Al7 2.796399 1_545
Al2 Al3 2.796400 1_546
Al2 Zr11 2.904294 1_555
Al2 Zr7 2.904299 1_555
Al2 Zr6 2.904299 1_555
Al2 Zr5 3.108154 1_655
Al2 Zr2 3.108155 1_556
Al2 Zr10 3.108162 1_555
Al3 Pt0 2.614826 1_665
Al3 Pt1 2.614833 1_565
Al3 Pt2 2.614834 1_655
Al3 Al7 2.796400 1_554
Al3 Zr9 2.904294 1_555
Al3 Zr0 2.904299 1_555
Al3 Zr7 2.904299 1_555
Al3 Zr3 3.108155 1_655
Al3 Zr2 3.108155 1_565
Al3 Zr4 3.108162 1_555
Al4 Pt0 2.614826 1_555
Al4 Pt1 2.614833 1_555
Al4 Pt3 2.614834 1_555
Al4 Al5 2.796400 1_555
Al4 Al6 2.796400 1_555
Al4 Zr3 2.904294 1_545
Al4 Zr1 2.904299 1_545
Al4 Zr4 2.904299 1_545
Al4 Zr9 3.108154 1_445
Al4 Zr8 3.108155 1_544
Al4 Zr0 3.108162 1_545
Al5 Pt0 2.614826 1_555
Al5 Pt1 2.614833 1_555
Al5 Pt2 2.614834 1_555
Al5 Al6 2.796399 1_555
Al5 Zr5 2.904294 1_554
Al5 Zr10 2.904299 1_554
Al5 Zr1 2.904299 1_554
Al5 Zr11 3.108155 1_454
Al5 Zr8 3.108155 1_544
Al5 Zr6 3.108162 1_554
Al6 Pt0 2.614826 1_555
Al6 Pt2 2.614833 1_555
Al6 Pt3 2.614834 1_555
Al6 Zr2 2.904294 1_455
Al6 Zr10 2.904299 1_455
Al6 Zr4 2.904299 1_455
Al6 Zr9 3.108155 1_445
Al6 Zr11 3.108155 1_454
Al6 Zr7 3.108162 1_455
Al7 Pt3 2.614829 1_665
Al7 Pt1 2.614829 1_566
Al7 Pt2 2.614829 1_656
Al7 Zr8 2.904302 1_555
Al7 Zr11 2.904302 1_555
Al7 Zr9 2.904302 1_555
Al7 Zr4 3.108158 1_556
Al7 Zr1 3.108158 1_655
Al7 Zr10 3.108158 1_565
Pt0 Zr8 3.107149 1_544
Pt0 Zr2 3.107149 1_455
Pt0 Zr5 3.107149 1_554
Pt0 Zr9 3.107149 1_445
Pt0 Zr11 3.107149 1_454
Pt0 Zr3 3.107149 1_545
Pt1 Zr2 3.107149 1_555
Pt1 Zr8 3.107149 1_544
Pt1 Zr6 3.107149 1_554
Pt1 Zr4 3.107149 1_545
Pt1 Zr0 3.107149 1_545
Pt1 Zr10 3.107149 1_554
Pt2 Zr6 3.107149 1_554
Pt2 Zr4 3.107149 1_455
Pt2 Zr3 3.107149 1_555
Pt2 Zr11 3.107149 1_454
Pt2 Zr7 3.107149 1_455
Pt2 Zr1 3.107149 1_554
Pt3 Zr5 3.107149 1_555
Pt3 Zr9 3.107149 1_445
Pt3 Zr0 3.107149 1_545
Pt3 Zr10 3.107149 1_455
Pt3 Zr7 3.107149 1_455
Pt3 Zr1 3.107149 1_545
O0 Zr7 2.285179 1_555
O0 Zr1 2.285179 1_555
O0 Zr0 2.285179 1_555
O0 Zr10 2.285179 1_555
O0 Zr6 2.285179 1_555
O0 Zr4 2.285179 1_555
O1 Zr1 2.285179 1_555
O1 Zr7 2.285179 1_455
O1 Zr11 2.285179 1_455
O1 Zr3 2.285179 1_555
O1 Zr9 2.285179 1_455
O1 Zr5 2.285179 1_555
O2 Zr10 2.285179 1_555
O2 Zr0 2.285179 1_545
O2 Zr5 2.285179 1_555
O2 Zr9 2.285179 1_545
O2 Zr8 2.285179 1_545
O2 Zr2 2.285179 1_555
O3 Zr11 2.285179 1_554
O3 Zr3 2.285179 1_555
O3 Zr4 2.285179 1_555
O3 Zr6 2.285179 1_554
O3 Zr8 2.285179 1_554
O3 Zr2 2.285179 1_555
