# generated using pymatgen
data_Y5NbRuO12
_symmetry_space_group_name_H-M   'P 1'
_cell_length_a   6.79292847
_cell_length_b   6.79292692
_cell_length_c   7.43147407
_cell_angle_alpha   73.98497813
_cell_angle_beta   73.98497189
_cell_angle_gamma   50.59047832
_symmetry_Int_Tables_number   1
_chemical_formula_structural   Y5NbRuO12
_chemical_formula_sum   'Y5 Nb1 Ru1 O12'
_cell_volume   252.31062488
_cell_formula_units_Z   1
loop_
 _symmetry_equiv_pos_site_id
 _symmetry_equiv_pos_as_xyz
  1  'x, y, z'
loop_
 _atom_site_type_symbol
 _atom_site_label
 _atom_site_symmetry_multiplicity
 _atom_site_fract_x
 _atom_site_fract_y
 _atom_site_fract_z
 _atom_site_occupancy
  Y  Y0  1  0.69488148  0.68152633  0.67512195  1
  Y  Y1  1  0.70240847  0.69004790  0.13887979  1
  Y  Y2  1  0.00146375  0.99853625  0.00000000  1
  Y  Y3  1  0.30995210  0.29759153  0.86112021  1
  Y  Y4  1  0.31847367  0.30511852  0.32487805  1
  Nb  Nb0  1  0.20842755  0.79157245  0.50000000  1
  Ru  Ru0  1  0.75160262  0.24839738  0.50000000  1
  O  O0  1  0.40904860  0.89728955  0.92525675  1
  O  O1  1  0.58097537  0.09114956  0.58420162  1
  O  O2  1  0.90885044  0.41902463  0.41579838  1
  O  O3  1  0.10271045  0.59095140  0.07474325  1
  O  O4  1  0.98928609  0.00932786  0.29985868  1
  O  O5  1  0.49555652  0.50394933  0.68443298  1
  O  O6  1  0.90768986  0.40180003  0.92599578  1
  O  O7  1  0.10109142  0.56734215  0.58360204  1
  O  O8  1  0.43265785  0.89890858  0.41639796  1
  O  O9  1  0.59819997  0.09231014  0.07400422  1
  O  O10  1  0.49605067  0.50444348  0.31556702  1
  O  O11  1  0.99067214  0.01071391  0.70014132  1
loop_
_geom_bond_atom_site_label_1
_geom_bond_atom_site_label_2
_geom_bond_distance
_geom_bond_site_symmetry_2
Nb0 O11 1.956542 1_465
Nb0 O4 1.956542 1_465
Nb0 O7 1.968684 1_555
Nb0 O8 1.968684 1_555
Nb0 O10 2.158470 1_555
Nb0 O5 2.158470 1_555
O0 Y3 2.283027 1_565
O0 Y0 2.296080 1_555
O0 Y2 2.321990 1_556
O0 Y1 2.328871 1_556
O1 Ru0 1.918064 1_555
O1 Y0 2.305457 1_545
O1 Y3 2.411377 1_555
O1 Y4 2.462908 1_555
O2 Ru0 1.918064 1_555
O2 Y4 2.305458 1_655
O2 Y1 2.411378 1_555
O2 Y0 2.462908 1_555
O3 Y1 2.283028 1_455
O3 Y4 2.296080 1_555
O3 Y2 2.321989 1_555
O3 Y3 2.328870 1_554
O4 Ru0 2.033428 1_555
O4 Y2 2.226807 1_645
O5 Ru0 2.020150 1_555
O5 Y0 2.295484 1_555
O5 Y3 2.365089 1_555
O6 Y3 2.281593 1_655
O6 Y0 2.284915 1_555
O6 Y1 2.303570 1_556
O6 Y2 2.314874 1_646
O7 Y0 2.283909 1_455
O7 Y3 2.419156 1_555
O7 Y4 2.456338 1_555
O8 Y4 2.283909 1_565
O8 Y1 2.419156 1_555
O8 Y0 2.456339 1_555
O9 Y1 2.281592 1_545
O9 Y4 2.284915 1_555
O9 Y3 2.303571 1_554
O9 Y2 2.314875 1_645
O10 Ru0 2.020151 1_555
O10 Y4 2.295484 1_555
O10 Y1 2.365089 1_555
O11 Ru0 2.033428 1_555
O11 Y2 2.226807 1_646
