# generated using pymatgen
data_Ba4TaMoO8
_symmetry_space_group_name_H-M   'P 1'
_cell_length_a   7.36872946
_cell_length_b   7.36872961
_cell_length_c   5.80641014
_cell_angle_alpha   90.00000000
_cell_angle_beta   90.00000000
_cell_angle_gamma   133.62547274
_symmetry_Int_Tables_number   1
_chemical_formula_structural   Ba4TaMoO8
_chemical_formula_sum   'Ba4 Ta1 Mo1 O8'
_cell_volume   228.21839061
_cell_formula_units_Z   1
loop_
 _symmetry_equiv_pos_site_id
 _symmetry_equiv_pos_as_xyz
  1  'x, y, z'
loop_
 _atom_site_type_symbol
 _atom_site_label
 _atom_site_symmetry_multiplicity
 _atom_site_fract_x
 _atom_site_fract_y
 _atom_site_fract_z
 _atom_site_occupancy
  Ba  Ba0  1  0.64728457  0.35271543  0.00000000  1
  Ba  Ba1  1  0.14592273  0.85407727  0.50000000  1
  Ba  Ba2  1  0.85407727  0.14592273  0.50000000  1
  Ba  Ba3  1  0.35271543  0.64728457  0.00000000  1
  Ta  Ta0  1  0.50000000  0.50000000  0.50000000  1
  Mo  Mo0  1  0.00000000  0.00000000  0.00000000  1
  O  O0  1  0.74337173  0.74337173  0.74145496  1
  O  O1  1  0.25662827  0.25662827  0.25854504  1
  O  O2  1  0.25662827  0.25662827  0.74145496  1
  O  O3  1  0.74337173  0.74337173  0.25854504  1
  O  O4  1  0.84232209  0.15767791  0.00000000  1
  O  O5  1  0.34991338  0.65008662  0.50000000  1
  O  O6  1  0.65008662  0.34991338  0.50000000  1
  O  O7  1  0.15767791  0.84232209  0.00000000  1
loop_
_geom_bond_atom_site_label_1
_geom_bond_atom_site_label_2
_geom_bond_distance
_geom_bond_site_symmetry_2
Ba0 O4 2.642175 1_555
Ba0 O1 2.868638 1_555
Ba0 O2 2.868638 1_554
Ba0 O3 2.868638 1_555
Ba0 O0 2.868638 1_554
Ba0 O6 2.903453 1_555
Ba0 O6 2.903453 1_554
Ba0 O7 2.904760 1_655
Ba0 O7 2.904760 1_545
Ba1 O5 2.763463 1_555
Ba1 O0 2.844449 1_455
Ba1 O3 2.844449 1_455
Ba1 O2 2.844449 1_565
Ba1 O1 2.844449 1_565
Ba1 O6 2.901894 1_565
Ba1 O6 2.901894 1_455
Ba1 O7 2.907569 1_555
Ba1 O7 2.907569 1_556
Ba2 O6 2.763463 1_555
Ba2 O2 2.844449 1_655
Ba2 O1 2.844449 1_655
Ba2 O0 2.844449 1_545
Ba2 O3 2.844449 1_545
Ba2 O5 2.901894 1_545
Ba2 O5 2.901894 1_655
Ba2 O4 2.907569 1_556
Ba2 O4 2.907569 1_555
Ba3 O7 2.642175 1_555
Ba3 O3 2.868638 1_555
Ba3 O0 2.868638 1_554
Ba3 O1 2.868638 1_555
Ba3 O2 2.868638 1_554
Ba3 O5 2.903453 1_555
Ba3 O5 2.903453 1_554
Ba3 O4 2.904760 1_455
Ba3 O4 2.904760 1_565
Mo0 O1 2.114516 1_555
Mo0 O3 2.114516 1_445
Mo0 O2 2.114516 1_554
Mo0 O0 2.114516 1_444
Mo0 O4 2.136064 1_455
Mo0 O7 2.136064 1_545
O0 Ta0 1.989951 1_555
O1 Ta0 1.989951 1_555
O2 Ta0 1.989951 1_555
O3 Ta0 1.989951 1_555
O5 Ta0 2.033225 1_555
O6 Ta0 2.033225 1_555
