# generated using pymatgen
data_Sr4Si6HgPd
_symmetry_space_group_name_H-M   'P 1'
_cell_length_a   11.85462825
_cell_length_b   10.25914696
_cell_length_c   8.40033061
_cell_angle_alpha   78.18763829
_cell_angle_beta   57.89614579
_cell_angle_gamma   43.91622485
_symmetry_Int_Tables_number   1
_chemical_formula_structural   Sr4Si6HgPd
_chemical_formula_sum   'Sr8 Si12 Hg2 Pd2'
_cell_volume   572.00388029
_cell_formula_units_Z   2
loop_
 _symmetry_equiv_pos_site_id
 _symmetry_equiv_pos_as_xyz
  1  'x, y, z'
loop_
 _atom_site_type_symbol
 _atom_site_label
 _atom_site_symmetry_multiplicity
 _atom_site_fract_x
 _atom_site_fract_y
 _atom_site_fract_z
 _atom_site_occupancy
  Sr  Sr0  1  0.11733000  0.13145463  0.87946976  1
  Sr  Sr1  1  0.87947076  0.87174760  0.11732900  1
  Sr  Sr2  1  0.11854637  0.13267100  0.37825240  1
  Sr  Sr3  1  0.37825340  0.37053024  0.11854537  1
  Sr  Sr4  1  0.63092980  0.61885399  0.37213649  1
  Sr  Sr5  1  0.37213649  0.37808072  0.63092980  1
  Sr  Sr6  1  0.63114701  0.61907020  0.87191928  1
  Sr  Sr7  1  0.87192028  0.87786451  0.63114601  1
  Si  Si0  1  0.92077118  0.58443108  0.41027211  1
  Si  Si1  1  0.06422675  0.43751407  0.59245284  1
  Si  Si2  1  0.41027211  0.08452463  0.92077118  1
  Si  Si3  1  0.59245284  0.90580634  0.06422675  1
  Si  Si4  1  0.34419366  0.65754716  0.81248593  1
  Si  Si5  1  0.66556892  0.32922882  0.16547537  1
  Si  Si6  1  0.81248593  0.18577325  0.34419366  1
  Si  Si7  1  0.16547537  0.83972789  0.66556892  1
  Si  Si8  1  0.91846599  0.58153501  0.91846499  1
  Si  Si9  1  0.59351689  0.90648411  0.59351589  1
  Si  Si10  1  0.34351689  0.65648411  0.34351689  1
  Si  Si11  1  0.66846499  0.33153501  0.66846499  1
  Hg  Hg0  1  0.16748690  0.83251310  0.16748690  1
  Hg  Hg1  1  0.41748690  0.08251310  0.41748690  1
  Pd  Pd0  1  0.08294128  0.41705872  0.08294128  1
  Pd  Pd1  1  0.83294128  0.16705872  0.83294128  1
loop_
_geom_bond_atom_site_label_1
_geom_bond_atom_site_label_2
_geom_bond_distance
_geom_bond_site_symmetry_2
Si0 Si9 2.367347 1_555
Si0 Si1 2.373811 1_655
Si0 Sr3 3.341005 1_655
Si0 Sr1 3.348962 1_555
Si0 Sr2 3.351785 1_655
Si0 Sr4 3.377669 1_555
Si0 Sr7 3.387234 1_555
Si0 Sr6 3.406955 1_555
Si1 Si8 2.370105 1_455
Si1 Sr6 3.246678 1_455
Si1 Sr7 3.269173 1_455
Si1 Sr2 3.406479 1_555
Si1 Sr0 3.425566 1_555
Si1 Sr5 3.430267 1_555
Si1 Sr3 3.443967 1_555
Si2 Si9 2.367343 1_545
Si2 Si3 2.373811 1_546
Si2 Sr2 3.340992 1_556
Si2 Sr0 3.348936 1_555
Si2 Sr3 3.351799 1_556
Si2 Sr5 3.377683 1_555
Si2 Sr6 3.387212 1_545
Si2 Sr7 3.406972 1_545
Si3 Si8 2.370105 1_554
Si3 Sr7 3.246691 1_554
Si3 Sr6 3.269160 1_554
Si3 Sr3 3.406483 1_565
Si3 Sr1 3.425585 1_555
Si3 Sr4 3.430261 1_555
Si3 Sr2 3.443958 1_565
Si4 Si7 2.373804 1_555
Si4 Sr5 3.246678 1_555
Si4 Sr4 3.269164 1_555
Si4 Sr1 3.406470 1_456
Si4 Sr3 3.425567 1_556
Si4 Sr6 3.430267 1_555
Si4 Sr0 3.443971 1_565
Si5 Si6 2.373803 1_555
Si5 Sr1 3.340993 1_545
Si5 Sr3 3.348959 1_555
Si5 Sr0 3.351799 1_654
Si5 Sr6 3.377681 1_554
Si5 Sr5 3.387216 1_555
Si5 Sr4 3.406959 1_555
Si6 Sr4 3.246687 1_555
Si6 Sr5 3.269160 1_555
Si6 Sr0 3.406487 1_654
Si6 Sr2 3.425573 1_655
Si6 Sr7 3.430255 1_545
Si6 Sr1 3.443949 1_545
Si7 Sr0 3.341005 1_565
Si7 Sr2 3.348960 1_565
Si7 Sr1 3.351785 1_456
Si7 Sr7 3.377674 1_455
Si7 Sr4 3.387216 1_555
Si7 Sr5 3.406959 1_555
Si8 Sr0 3.331873 1_655
Si8 Sr1 3.331882 1_556
Si8 Sr5 3.346438 1_655
Si8 Sr4 3.346447 1_556
Si8 Sr6 3.371450 1_555
Si8 Sr7 3.371450 1_555
Si9 Sr7 3.279234 1_555
Si9 Sr6 3.279234 1_555
Si9 Sr5 3.441941 1_565
Si9 Sr4 3.441945 1_555
Si9 Sr0 3.471230 1_565
Si9 Sr1 3.471233 1_555
Si10 Si7 2.367343 1_555
Si10 Si5 2.367347 1_555
Si10 Sr4 3.279222 1_555
Si10 Sr5 3.279228 1_555
Si10 Sr7 3.441942 1_455
Si10 Sr6 3.441947 1_554
Si10 Sr2 3.471230 1_565
Si10 Sr3 3.471244 1_555
Si11 Si6 2.370101 1_555
Si11 Si4 2.370101 1_555
Si11 Sr3 3.331873 1_556
Si11 Sr2 3.331882 1_655
Si11 Sr7 3.346434 1_545
Si11 Sr6 3.346447 1_555
Si11 Sr5 3.371439 1_555
Si11 Sr4 3.371445 1_555
Hg0 Si10 2.561193 1_555
Hg0 Si4 2.576353 1_554
Hg0 Si6 2.576353 1_465
Hg0 Sr1 3.387750 1_455
Hg0 Sr0 3.387769 1_564
Hg0 Sr3 3.394132 1_555
Hg0 Sr2 3.394135 1_565
Hg0 Sr7 3.398698 1_455
Hg0 Sr6 3.398711 1_554
Hg1 Si9 2.561186 1_545
Hg1 Si3 2.576353 1_545
Hg1 Si1 2.576353 1_555
Hg1 Sr2 3.387761 1_555
Hg1 Sr3 3.387768 1_555
Hg1 Sr0 3.394128 1_555
Hg1 Sr1 3.394145 1_545
Hg1 Sr4 3.398702 1_545
Hg1 Sr5 3.398711 1_555
Pd0 Si8 2.393082 1_454
Pd0 Si0 2.400731 1_455
Pd0 Si2 2.400735 1_554
Pd0 Sr4 3.337796 1_455
Pd0 Sr5 3.337800 1_554
Pd0 Sr2 3.349610 1_555
Pd0 Sr3 3.349616 1_555
Pd0 Sr0 3.355852 1_554
Pd0 Sr1 3.355874 1_455
Pd1 Si11 2.393090 1_555
Pd1 Si7 2.400735 1_645
Pd1 Si5 2.400739 1_556
Pd1 Sr7 3.337787 1_545
Pd1 Sr6 3.337800 1_555
Pd1 Sr1 3.349609 1_546
Pd1 Sr0 3.349628 1_655
Pd1 Sr3 3.355861 1_556
Pd1 Sr2 3.355870 1_655
