# generated using pymatgen
data_Zn22IrPt2Au
_symmetry_space_group_name_H-M   'P 1'
_cell_length_a   7.84700537
_cell_length_b   7.84700619
_cell_length_c   7.83377103
_cell_angle_alpha   109.42789187
_cell_angle_beta   109.42789739
_cell_angle_gamma   109.51573931
_symmetry_Int_Tables_number   1
_chemical_formula_structural   Zn22IrPt2Au
_chemical_formula_sum   'Zn22 Ir1 Pt2 Au1'
_cell_volume   371.52008048
_cell_formula_units_Z   1
loop_
 _symmetry_equiv_pos_site_id
 _symmetry_equiv_pos_as_xyz
  1  'x, y, z'
loop_
 _atom_site_type_symbol
 _atom_site_label
 _atom_site_symmetry_multiplicity
 _atom_site_fract_x
 _atom_site_fract_y
 _atom_site_fract_z
 _atom_site_occupancy
  Zn  Zn0  1  0.72332427  0.37529462  0.72749516  1
  Zn  Zn1  1  0.62438791  0.35011605  0.35511952  1
  Zn  Zn2  1  0.35390826  0.35390826  0.62703780  1
  Zn  Zn3  1  0.65280146  0.28065973  0.00661972  1
  Zn  Zn4  1  0.22475039  0.22475039  0.22075625  1
  Zn  Zn5  1  0.99667170  0.99667170  0.78009187  1
  Zn  Zn6  1  0.77864294  0.99715403  0.99258593  1
  Zn  Zn7  1  0.99715403  0.77864294  0.99258593  1
  Zn  Zn8  1  0.34872884  0.34872884  0.98376957  1
  Zn  Zn9  1  0.00005222  0.64648600  0.63824375  1
  Zn  Zn10  1  0.99071652  0.35297356  0.35140356  1
  Zn  Zn11  1  0.35297356  0.99071652  0.35140356  1
  Zn  Zn12  1  0.64648600  0.00005222  0.63824375  1
  Zn  Zn13  1  0.64190157  0.64190157  0.99866314  1
  Zn  Zn14  1  0.35011605  0.62438791  0.35511952  1
  Zn  Zn15  1  0.28906719  0.00259024  0.65470133  1
  Zn  Zn16  1  0.64951145  0.00271504  0.27880980  1
  Zn  Zn17  1  0.28065973  0.65280146  0.00661972  1
  Zn  Zn18  1  0.71324063  0.71324063  0.36721652  1
  Zn  Zn19  1  0.37529462  0.72332427  0.72749516  1
  Zn  Zn20  1  0.00271504  0.64951145  0.27880980  1
  Zn  Zn21  1  0.00259024  0.28906719  0.65470133  1
  Ir  Ir0  1  0.65380429  0.65380429  0.65472601  1
  Pt  Pt0  1  0.00156539  0.34763861  0.00211467  1
  Pt  Pt1  1  0.34763861  0.00156539  0.00211467  1
  Au  Au0  1  0.00129610  0.00129610  0.35355394  1
loop_
_geom_bond_atom_site_label_1
_geom_bond_atom_site_label_2
_geom_bond_distance
_geom_bond_site_symmetry_2
Zn0 Zn12 2.585815 1_555
Zn0 Zn7 2.657532 1_555
Zn0 Zn2 2.668352 1_555
Zn0 Zn21 2.674054 1_655
Zn0 Zn1 2.675593 1_555
Zn0 Zn3 2.692492 1_556
Zn0 Zn13 2.852551 1_555
Zn0 Zn9 2.940256 1_655
Zn0 Zn11 2.960192 1_545
Zn1 Zn9 2.579981 1_655
Zn1 Zn4 2.638948 1_555
Zn1 Zn18 2.657715 1_555
Zn1 Zn16 2.679738 1_555
Zn1 Zn3 2.701168 1_555
Zn1 Zn10 2.877084 1_555
Zn1 Zn11 2.895078 1_545
Zn1 Zn8 2.986454 1_554
Zn2 Zn4 2.684407 1_555
Zn2 Zn21 2.727521 1_555
Zn2 Zn8 2.821853 1_555
Zn3 Zn8 2.577135 1_554
Zn3 Zn6 2.704374 1_544
Zn4 Zn8 2.666485 1_554
Zn4 Zn5 2.821850 1_444
Zn4 Zn6 2.859298 1_444
Zn4 Zn7 2.859298 1_444
Zn5 Zn9 2.612182 1_655
Zn5 Zn8 2.616472 1_665
Zn5 Zn6 2.755506 1_555
Zn5 Zn7 2.755506 1_555
Zn6 Zn7 2.800793 1_555
Zn7 Zn9 2.631347 1_655
Zn10 Zn20 2.552731 1_655
Zn10 Zn21 2.565529 1_655
Zn10 Zn9 2.587307 1_655
Zn10 Zn6 2.651246 1_544
Zn10 Zn4 2.689298 1_655
Zn10 Zn3 2.803387 1_555
Zn10 Zn16 2.841977 1_555
Zn10 Zn14 2.895078 1_655
Zn10 Zn2 2.943890 1_655
Zn10 Zn19 2.960192 1_655
Zn11 Zn16 2.552731 1_565
Zn11 Zn15 2.565529 1_565
Zn11 Zn12 2.587306 1_565
Zn11 Zn7 2.651246 1_454
Zn11 Zn4 2.689298 1_565
Zn11 Zn17 2.803387 1_555
Zn11 Zn20 2.841977 1_555
Zn11 Zn14 2.877084 1_555
Zn11 Zn2 2.943890 1_565
Zn12 Zn14 2.579981 1_545
Zn12 Zn5 2.612181 1_545
Zn12 Zn6 2.631347 1_545
Zn12 Zn16 2.830649 1_555
Zn12 Zn15 2.856455 1_555
Zn12 Zn18 2.862903 1_545
Zn12 Zn21 2.880985 1_655
Zn12 Zn19 2.940256 1_545
Zn12 Zn3 2.963692 1_556
Zn13 Zn2 2.554196 1_555
Zn13 Zn18 2.569576 1_556
Zn13 Zn8 2.589463 1_555
Zn13 Zn7 2.654895 1_555
Zn13 Zn6 2.654895 1_555
Zn13 Zn19 2.852551 1_555
Zn13 Zn17 2.884877 1_556
Zn13 Zn3 2.884878 1_556
Zn13 Zn20 2.915899 1_656
Zn13 Zn16 2.915899 1_566
Zn14 Zn4 2.638949 1_555
Zn14 Zn18 2.657715 1_555
Zn14 Zn19 2.675593 1_555
Zn14 Zn20 2.679738 1_555
Zn14 Zn17 2.701168 1_555
Zn14 Zn8 2.986454 1_554
Zn15 Zn3 2.666571 1_556
Zn15 Zn19 2.674054 1_545
Zn15 Zn20 2.721720 1_545
Zn15 Zn2 2.727522 1_555
Zn15 Zn5 2.773065 1_445
Zn15 Zn8 2.816310 1_555
Zn15 Zn9 2.880985 1_545
Zn16 Zn17 2.674516 1_545
Zn16 Zn21 2.721720 1_655
Zn16 Zn18 2.732133 1_545
Zn16 Zn6 2.744464 1_544
Zn17 Zn8 2.577135 1_554
Zn17 Zn21 2.666571 1_554
Zn17 Zn19 2.692492 1_554
Zn17 Zn7 2.704374 1_454
Zn17 Zn9 2.963692 1_554
Zn18 Zn20 2.732133 1_655
Zn18 Zn5 2.734680 1_555
Zn18 Zn9 2.862902 1_655
Zn18 Zn8 2.913458 1_554
Zn19 Zn9 2.585815 1_555
Zn19 Zn6 2.657532 1_555
Zn19 Zn2 2.668352 1_555
Zn20 Zn3 2.674516 1_455
Zn20 Zn7 2.744464 1_454
Zn20 Zn9 2.830649 1_555
Zn21 Zn5 2.773065 1_445
Zn21 Zn8 2.816309 1_555
Zn21 Zn9 2.856455 1_555
Ir0 Zn2 2.596873 1_555
Ir0 Zn18 2.600022 1_555
Ir0 Zn14 2.606168 1_555
Ir0 Zn1 2.606169 1_555
Ir0 Zn19 2.610995 1_555
Ir0 Zn0 2.610995 1_555
Ir0 Zn7 2.644200 1_555
Ir0 Zn6 2.644200 1_555
Ir0 Zn5 2.662700 1_555
Ir0 Zn13 2.757866 1_555
Ir0 Zn9 2.781151 1_655
Ir0 Zn12 2.781151 1_565
Pt0 Zn21 2.608273 1_554
Pt0 Zn14 2.617043 1_555
Pt0 Zn20 2.620429 1_555
Pt0 Zn3 2.623519 1_455
Pt0 Zn17 2.630631 1_555
Pt0 Zn0 2.635289 1_454
Pt0 Zn4 2.676247 1_555
Pt0 Zn6 2.681725 1_444
Pt0 Zn5 2.703641 1_444
Pt0 Zn10 2.752671 1_455
Pt0 Zn8 2.772660 1_554
Pt0 Zn12 2.791931 1_454
Pt1 Zn15 2.608273 1_554
Pt1 Zn1 2.617043 1_555
Pt1 Zn16 2.620429 1_555
Pt1 Zn17 2.623520 1_545
Pt1 Zn3 2.630631 1_555
Pt1 Zn19 2.635289 1_544
Pt1 Zn4 2.676247 1_555
Pt1 Zn7 2.681725 1_444
Pt1 Zn5 2.703640 1_444
Pt1 Zn11 2.752671 1_545
Pt1 Zn8 2.772660 1_554
Pt1 Zn9 2.791931 1_544
Au0 Zn2 2.626729 1_555
Au0 Zn16 2.629204 1_455
Au0 Zn20 2.629204 1_545
Au0 Zn15 2.662631 1_555
Au0 Zn21 2.662632 1_555
Au0 Zn18 2.671747 1_445
Au0 Zn4 2.757559 1_555
Au0 Zn6 2.768398 1_444
Au0 Zn7 2.768398 1_444
Au0 Zn11 2.793871 1_545
Au0 Zn10 2.793871 1_455
Au0 Zn13 2.808986 1_444
