# generated using pymatgen
data_SrLiAs2Pd
_symmetry_space_group_name_H-M   'P 1'
_cell_length_a   6.13706254
_cell_length_b   6.13706220
_cell_length_c   6.13706260
_cell_angle_alpha   139.04454570
_cell_angle_beta   139.04453983
_cell_angle_gamma   59.30694507
_symmetry_Int_Tables_number   1
_chemical_formula_structural   SrLiAs2Pd
_chemical_formula_sum   'Sr1 Li1 As2 Pd1'
_cell_volume   98.33886656
_cell_formula_units_Z   1
loop_
 _symmetry_equiv_pos_site_id
 _symmetry_equiv_pos_as_xyz
  1  'x, y, z'
loop_
 _atom_site_type_symbol
 _atom_site_label
 _atom_site_symmetry_multiplicity
 _atom_site_fract_x
 _atom_site_fract_y
 _atom_site_fract_z
 _atom_site_occupancy
  Sr  Sr0  1  0.00000000  0.00000000  0.00000000  1
  Li  Li0  1  0.75000000  0.25000000  0.50000000  1
  As  As0  1  0.61852464  0.61852464  1.00000000  1
  As  As1  1  0.38147536  0.38147536  0.00000000  1
  Pd  Pd0  1  0.25000000  0.75000000  0.50000000  1
loop_
_geom_bond_atom_site_label_1
_geom_bond_atom_site_label_2
_geom_bond_distance
_geom_bond_site_symmetry_2
Li0 Pd0 3.036330 1_544
Li0 Pd0 3.036330 1_656
Li0 Pd0 3.036331 1_645
Li0 Pd0 3.036331 1_555
As0 As1 2.528516 1_556
As0 Li0 2.564444 1_566
As0 Li0 2.564444 1_555
As0 Pd0 2.564444 1_656
As0 Pd0 2.564444 1_555
As0 Sr0 3.289020 1_555
As0 Sr0 3.289020 1_667
As0 Sr0 3.289020 1_656
As0 Sr0 3.289020 1_566
As1 Pd0 2.564444 1_544
As1 Pd0 2.564444 1_555
As1 Li0 2.564444 1_454
As1 Li0 2.564444 1_555
As1 Sr0 3.289020 1_666
As1 Sr0 3.289020 1_554
As1 Sr0 3.289020 1_565
As1 Sr0 3.289020 1_655
Pd0 Sr0 3.423552 1_555
Pd0 Sr0 3.423552 1_666
Pd0 Sr0 3.423552 1_566
Pd0 Sr0 3.423552 1_565
