# generated using pymatgen
data_Y2MoO6
_symmetry_space_group_name_H-M   'P 1'
_cell_length_a   9.86943753
_cell_length_b   9.86943753
_cell_length_c   5.35095806
_cell_angle_alpha   74.80927266
_cell_angle_beta   74.80927266
_cell_angle_gamma   67.93322353
_symmetry_Int_Tables_number   1
_chemical_formula_structural   Y2MoO6
_chemical_formula_sum   'Y8 Mo4 O24'
_cell_volume   458.29147947
_cell_formula_units_Z   4
loop_
 _symmetry_equiv_pos_site_id
 _symmetry_equiv_pos_as_xyz
  1  'x, y, z'
loop_
 _atom_site_type_symbol
 _atom_site_label
 _atom_site_symmetry_multiplicity
 _atom_site_fract_x
 _atom_site_fract_y
 _atom_site_fract_z
 _atom_site_occupancy
  Y  Y0  1  0.60737592  0.39262408  0.25000000  1
  Y  Y1  1  0.39262408  0.60737592  0.75000000  1
  Y  Y2  1  0.13584875  0.86415125  0.25000000  1
  Y  Y3  1  0.86415125  0.13584875  0.75000000  1
  Y  Y4  1  0.78442655  0.55182140  0.62074462  1
  Y  Y5  1  0.44817860  0.21557345  0.87925538  1
  Y  Y6  1  0.55182140  0.78442655  0.12074462  1
  Y  Y7  1  0.21557345  0.44817860  0.37925538  1
  Mo  Mo0  1  0.70487919  0.98644671  0.43950360  1
  Mo  Mo1  1  0.01355329  0.29512081  0.06049640  1
  Mo  Mo2  1  0.29512081  0.01355329  0.56049640  1
  Mo  Mo3  1  0.98644671  0.70487919  0.93950360  1
  O  O0  1  0.42684307  0.38970227  0.07833422  1
  O  O1  1  0.61029773  0.57315693  0.42166578  1
  O  O2  1  0.57315693  0.61029773  0.92166578  1
  O  O3  1  0.38970227  0.42684307  0.57833422  1
  O  O4  1  0.19225050  0.66342857  0.08307187  1
  O  O5  1  0.33657143  0.80774950  0.41692813  1
  O  O6  1  0.80774950  0.33657143  0.91692813  1
  O  O7  1  0.66342857  0.19225050  0.58307187  1
  O  O8  1  0.11391087  0.67383672  0.63306029  1
  O  O9  1  0.32616328  0.88608913  0.86693971  1
  O  O10  1  0.88608913  0.32616328  0.36693971  1
  O  O11  1  0.67383672  0.11391087  0.13306029  1
  O  O12  1  0.71234117  0.81679830  0.36424639  1
  O  O13  1  0.18320170  0.28765883  0.13575361  1
  O  O14  1  0.28765883  0.18320170  0.63575361  1
  O  O15  1  0.81679830  0.71234117  0.86424639  1
  O  O16  1  0.88836577  0.95152927  0.48623375  1
  O  O17  1  0.04847073  0.11163423  0.01376625  1
  O  O18  1  0.97566108  0.56829548  0.24161905  1
  O  O19  1  0.95152927  0.88836577  0.98623375  1
  O  O20  1  0.56829548  0.97566108  0.74161905  1
  O  O21  1  0.02433892  0.43170452  0.75838095  1
  O  O22  1  0.43170452  0.02433892  0.25838095  1
  O  O23  1  0.11163423  0.04847073  0.51376625  1
loop_
_geom_bond_atom_site_label_1
_geom_bond_atom_site_label_2
_geom_bond_distance
_geom_bond_site_symmetry_2
Mo0 O16 1.784354 1_555
Mo0 O12 1.793361 1_555
Mo0 O11 1.804962 1_565
Mo0 O20 1.821389 1_555
Mo0 O7 2.216276 1_565
Mo1 O17 1.784354 1_555
Mo1 O13 1.793361 1_555
Mo1 O10 1.804962 1_455
Mo1 O21 1.821389 1_554
Mo1 O6 2.216276 1_454
Mo2 O23 1.784354 1_555
Mo2 O14 1.793361 1_555
Mo2 O9 1.804962 1_545
Mo2 O22 1.821389 1_555
Mo2 O5 2.216276 1_545
Mo3 O19 1.784354 1_555
Mo3 O15 1.793361 1_555
Mo3 O8 1.804962 1_655
Mo3 O18 1.821389 1_556
Mo3 O4 2.216276 1_656
O0 Y5 2.168526 1_554
O0 Y0 2.220246 1_555
O0 Y7 2.257621 1_555
O0 Y1 2.367236 1_554
O1 Y4 2.168526 1_555
O1 Y0 2.220246 1_555
O1 Y6 2.257621 1_555
O1 Y1 2.367236 1_555
O2 Y6 2.168526 1_556
O2 Y1 2.220246 1_555
O2 Y4 2.257621 1_555
O2 Y0 2.367236 1_556
O3 Y7 2.168526 1_555
O3 Y1 2.220246 1_555
O3 Y5 2.257621 1_555
O3 Y0 2.367236 1_555
O4 Y2 2.206885 1_555
O4 Y7 2.266525 1_555
O4 Y1 2.289295 1_554
O5 Y2 2.206885 1_555
O5 Y6 2.266525 1_555
O5 Y1 2.289295 1_555
O6 Y3 2.206885 1_555
O6 Y4 2.266525 1_555
O6 Y0 2.289295 1_556
O7 Y3 2.206885 1_555
O7 Y5 2.266525 1_555
O7 Y0 2.289295 1_555
O8 Y2 2.414878 1_555
O8 Y7 2.646355 1_555
O8 Y1 2.778422 1_555
O9 Y2 2.414878 1_556
O9 Y6 2.646355 1_556
O9 Y1 2.778422 1_555
O10 Y3 2.414878 1_555
O10 Y4 2.646355 1_555
O10 Y0 2.778422 1_555
O11 Y3 2.414878 1_554
O11 Y5 2.646355 1_554
O11 Y0 2.778422 1_555
O12 Y6 2.447421 1_555
O12 Y4 2.542002 1_555
O13 Y7 2.447421 1_555
O13 Y5 2.542002 1_554
O14 Y5 2.447421 1_555
O14 Y7 2.542002 1_555
O15 Y4 2.447421 1_555
O15 Y6 2.542002 1_556
O16 Y2 2.382860 1_655
O16 Y3 2.490087 1_565
O17 Y2 2.382860 1_545
O17 Y3 2.490087 1_454
O18 Y4 2.399023 1_555
O18 Y7 2.429300 1_655
O19 Y3 2.382860 1_565
O19 Y2 2.490087 1_656
O20 Y6 2.399023 1_556
O20 Y5 2.429300 1_565
O21 Y7 2.399023 1_555
O21 Y4 2.429300 1_455
O22 Y5 2.399023 1_554
O22 Y6 2.429300 1_545
O23 Y3 2.382860 1_455
O23 Y2 2.490087 1_545
