# generated using pymatgen
data_Rb2Ti(SeO3)3
_symmetry_space_group_name_H-M   'P 1'
_cell_length_a   7.96705081
_cell_length_b   7.96717559
_cell_length_c   9.80957924
_cell_angle_alpha   90.00000000
_cell_angle_beta   90.00000000
_cell_angle_gamma   119.99739682
_symmetry_Int_Tables_number   1
_chemical_formula_structural   Rb2Ti(SeO3)3
_chemical_formula_sum   'Rb4 Ti2 Se6 O18'
_cell_volume   539.25524579
_cell_formula_units_Z   2
loop_
 _symmetry_equiv_pos_site_id
 _symmetry_equiv_pos_as_xyz
  1  'x, y, z'
loop_
 _atom_site_type_symbol
 _atom_site_label
 _atom_site_symmetry_multiplicity
 _atom_site_fract_x
 _atom_site_fract_y
 _atom_site_fract_z
 _atom_site_occupancy
  Rb  Rb0  1  0.33336469  0.66667645  0.05655087  1
  Rb  Rb1  1  0.33336469  0.66667645  0.44344913  1
  Rb  Rb2  1  0.66665531  0.33333646  0.55658681  1
  Rb  Rb3  1  0.66665531  0.33333646  0.94341419  1
  Ti  Ti0  1  0.99999442  0.00000201  0.00000150  1
  Ti  Ti1  1  0.99999442  0.00000201  0.49999850  1
  Se  Se0  1  0.76322406  0.07070848  0.25000000  1
  Se  Se1  1  0.30748011  0.23676949  0.25000000  1
  Se  Se2  1  0.92929496  0.69252676  0.25000000  1
  Se  Se3  1  0.07069855  0.30742658  0.75000100  1
  Se  Se4  1  0.69255172  0.76328409  0.75000100  1
  Se  Se5  1  0.23674029  0.92928459  0.75000100  1
  O  O0  1  0.16120166  0.22791320  0.11382062  1
  O  O1  1  0.77207800  0.93328595  0.11382345  1
  O  O2  1  0.06670366  0.83878789  0.11382229  1
  O  O3  1  0.52965097  0.00232269  0.25000000  1
  O  O4  1  0.99774788  0.52736094  0.25000000  1
  O  O5  1  0.47267011  0.47034153  0.25000000  1
  O  O6  1  0.06670366  0.83878789  0.38617771  1
  O  O7  1  0.77207800  0.93328595  0.38617655  1
  O  O8  1  0.16120166  0.22791320  0.38617838  1
  O  O9  1  0.93325807  0.16119859  0.61382289  1
  O  O10  1  0.83879402  0.77208190  0.61383003  1
  O  O11  1  0.22792624  0.06671600  0.61382509  1
  O  O12  1  0.52724778  0.52972087  0.75000100  1
  O  O13  1  0.00243203  0.47272512  0.75000100  1
  O  O14  1  0.47030039  0.99753198  0.75000100  1
  O  O15  1  0.93325807  0.16119859  0.88617611  1
  O  O16  1  0.83879402  0.77208190  0.88616997  1
  O  O17  1  0.22792624  0.06671600  0.88617491  1
loop_
_geom_bond_atom_site_label_1
_geom_bond_atom_site_label_2
_geom_bond_distance
_geom_bond_site_symmetry_2
O0 Se1 1.750845 1_555
O0 Ti0 1.965038 1_455
O0 Rb0 3.102014 1_555
O1 Se0 1.750827 1_565
O1 Ti0 1.965022 1_565
O1 Rb0 3.101703 1_555
O2 Se2 1.750786 1_455
O2 Ti0 1.965054 1_465
O2 Rb0 3.102003 1_555
O3 Se0 1.657091 1_555
O3 Rb1 3.002691 1_545
O3 Rb0 3.002691 1_545
O4 Se2 1.657295 1_555
O4 Rb0 3.002509 1_655
O4 Rb1 3.002509 1_655
O5 Se1 1.657147 1_555
O5 Rb0 3.002604 1_555
O5 Rb1 3.002604 1_555
O6 Se2 1.750786 1_455
O6 Ti1 1.965054 1_465
O6 Rb1 3.102003 1_555
O7 Se0 1.750827 1_565
O7 Ti1 1.965022 1_565
O7 Rb1 3.101703 1_555
O8 Se1 1.750838 1_555
O8 Ti1 1.965044 1_455
O8 Rb1 3.102015 1_555
O9 Se3 1.750770 1_655
O9 Ti1 1.965093 1_555
O9 Rb2 3.101684 1_555
O10 Se4 1.750732 1_555
O10 Ti1 1.965139 1_565
O10 Rb2 3.101861 1_555
O11 Se5 1.750756 1_545
O11 Ti1 1.965148 1_455
O11 Rb2 3.101751 1_555
O12 Se4 1.657307 1_555
O12 Rb3 3.003172 1_555
O12 Rb2 3.003179 1_555
O13 Se3 1.657231 1_555
O13 Rb3 3.003141 1_455
O13 Rb2 3.003147 1_455
O14 Se5 1.657248 1_555
O14 Rb3 3.003304 1_565
O14 Rb2 3.003311 1_565
O15 Se3 1.750747 1_655
O15 Ti0 1.965099 1_556
O15 Rb3 3.101688 1_555
O16 Se4 1.750717 1_555
O16 Ti0 1.965139 1_566
O16 Rb3 3.101863 1_555
O17 Se5 1.750741 1_545
O17 Ti0 1.965148 1_456
O17 Rb3 3.101753 1_555
