# generated using pymatgen
data_Be6V4GaSi
_symmetry_space_group_name_H-M   'P 1'
_cell_length_a   4.42930724
_cell_length_b   4.42930748
_cell_length_c   7.32190438
_cell_angle_alpha   90.00000000
_cell_angle_beta   90.00000000
_cell_angle_gamma   119.99999822
_symmetry_Int_Tables_number   1
_chemical_formula_structural   Be6V4GaSi
_chemical_formula_sum   'Be6 V4 Ga1 Si1'
_cell_volume   124.40170387
_cell_formula_units_Z   1
loop_
 _symmetry_equiv_pos_site_id
 _symmetry_equiv_pos_as_xyz
  1  'x, y, z'
loop_
 _atom_site_type_symbol
 _atom_site_label
 _atom_site_symmetry_multiplicity
 _atom_site_fract_x
 _atom_site_fract_y
 _atom_site_fract_z
 _atom_site_occupancy
  Be  Be0  1  0.82367587  0.64735375  0.25311129  1
  Be  Be1  1  0.17632413  0.82367587  0.74688871  1
  Be  Be2  1  0.64735375  0.82367587  0.74688871  1
  Be  Be3  1  0.35264625  0.17632413  0.25311129  1
  Be  Be4  1  0.82367587  0.17632413  0.25311129  1
  Be  Be5  1  0.17632413  0.35264625  0.74688871  1
  V  V0  1  0.33333300  0.66666700  0.06704684  1
  V  V1  1  0.66666700  0.33333300  0.56440409  1
  V  V2  1  0.66666700  0.33333300  0.93295316  1
  V  V3  1  0.33333300  0.66666700  0.43559591  1
  Ga  Ga0  1  0.00000000  0.00000000  0.00000000  1
  Si  Si0  1  0.00000000  0.00000000  0.50000000  1
loop_
_geom_bond_atom_site_label_1
_geom_bond_atom_site_label_2
_geom_bond_distance
_geom_bond_site_symmetry_2
Be0 Be4 2.086335 1_555
Be0 Be3 2.086335 1_555
Be0 Si0 2.257786 1_665
Be0 Ga0 2.294427 1_665
Be0 Be3 2.342972 1_665
Be0 Be4 2.342972 1_565
Be0 V1 2.577974 1_555
Be0 V3 2.587552 1_555
Be0 V3 2.587556 1_655
Be0 V0 2.601184 1_555
Be0 V0 2.601187 1_655
Be0 V2 2.635538 1_554
Be1 Be2 2.086335 1_555
Be1 Be5 2.086335 1_555
Be1 Si0 2.257790 1_565
Be1 Ga0 2.294431 1_566
Be1 Be2 2.342972 1_455
Be1 Be5 2.342972 1_565
Be1 V3 2.577968 1_555
Be1 V1 2.587554 1_455
Be1 V1 2.587554 1_565
Be1 V2 2.601186 1_455
Be1 V2 2.601186 1_565
Be1 V0 2.635533 1_556
Be2 Be5 2.086335 1_555
Be2 Si0 2.257786 1_665
Be2 Ga0 2.294427 1_666
Be2 Be5 2.342972 1_665
Be2 V3 2.577974 1_555
Be2 V1 2.587552 1_555
Be2 V1 2.587556 1_565
Be2 V2 2.601184 1_555
Be2 V2 2.601187 1_565
Be2 V0 2.635538 1_556
Be3 Be4 2.086335 1_555
Be3 Si0 2.257786 1_555
Be3 Ga0 2.294427 1_555
Be3 Be4 2.342972 1_455
Be3 V1 2.577974 1_555
Be3 V3 2.587552 1_555
Be3 V3 2.587556 1_545
Be3 V0 2.601184 1_555
Be3 V0 2.601187 1_545
Be3 V2 2.635538 1_554
Be4 Si0 2.257790 1_655
Be4 Ga0 2.294431 1_655
Be4 V1 2.577968 1_555
Be4 V3 2.587554 1_655
Be4 V3 2.587554 1_545
Be4 V0 2.601186 1_655
Be4 V0 2.601186 1_545
Be4 V2 2.635533 1_554
Be5 Si0 2.257786 1_555
Be5 Ga0 2.294427 1_556
Be5 V3 2.577974 1_555
Be5 V1 2.587552 1_555
Be5 V1 2.587556 1_455
Be5 V2 2.601184 1_555
Be5 V2 2.601187 1_455
Be5 V0 2.635538 1_556
V0 V3 2.698481 1_555
V0 V2 2.739260 1_454
V0 V2 2.739260 1_564
V0 V2 2.739268 1_554
V1 V2 2.698481 1_555
V1 V3 2.725629 1_655
V1 V3 2.725629 1_545
V1 V3 2.725636 1_555
Ga0 V0 2.603952 1_545
Ga0 V2 2.603952 1_454
Ga0 V2 2.603956 1_554
Ga0 V0 2.603956 1_445
Ga0 V0 2.603956 1_555
Ga0 V2 2.603956 1_444
Si0 V1 2.600374 1_455
Si0 V3 2.600374 1_545
Si0 V1 2.600378 1_555
Si0 V3 2.600378 1_445
Si0 V3 2.600378 1_555
Si0 V1 2.600378 1_445
