# generated using pymatgen
data_K3Ba3LuP4
_symmetry_space_group_name_H-M   'P 1'
_cell_length_a   10.50532071
_cell_length_b   10.50532121
_cell_length_c   7.94942228
_cell_angle_alpha   90.00000000
_cell_angle_beta   90.00000000
_cell_angle_gamma   119.99999843
_symmetry_Int_Tables_number   1
_chemical_formula_structural   K3Ba3LuP4
_chemical_formula_sum   'K6 Ba6 Lu2 P8'
_cell_volume   759.77475166
_cell_formula_units_Z   2
loop_
 _symmetry_equiv_pos_site_id
 _symmetry_equiv_pos_as_xyz
  1  'x, y, z'
loop_
 _atom_site_type_symbol
 _atom_site_label
 _atom_site_symmetry_multiplicity
 _atom_site_fract_x
 _atom_site_fract_y
 _atom_site_fract_z
 _atom_site_occupancy
  K  K0  1  0.73400978  0.86700489  0.16546885  1
  K  K1  1  0.86700489  0.13299511  0.66546885  1
  K  K2  1  0.86700489  0.73400978  0.66546885  1
  K  K3  1  0.13299511  0.26599022  0.16546885  1
  K  K4  1  0.13299511  0.86700489  0.16546885  1
  K  K5  1  0.26599022  0.13299511  0.66546885  1
  Ba  Ba0  1  0.06034566  0.53017333  0.49655157  1
  Ba  Ba1  1  0.46982667  0.93965434  0.49655157  1
  Ba  Ba2  1  0.46982667  0.53017333  0.49655157  1
  Ba  Ba3  1  0.53017333  0.46982667  0.99655157  1
  Ba  Ba4  1  0.53017333  0.06034566  0.99655157  1
  Ba  Ba5  1  0.93965434  0.46982667  0.99655157  1
  Lu  Lu0  1  0.33333300  0.66666700  0.89239475  1
  Lu  Lu1  1  0.66666700  0.33333300  0.39239475  1
  P  P0  1  0.66666700  0.33333300  0.73007458  1
  P  P1  1  0.60522231  0.80261265  0.77355714  1
  P  P2  1  0.80261265  0.19738735  0.27355714  1
  P  P3  1  0.80261265  0.60522231  0.27355714  1
  P  P4  1  0.33333300  0.66666700  0.23007458  1
  P  P5  1  0.19738735  0.39477769  0.77355714  1
  P  P6  1  0.19738735  0.80261265  0.77355714  1
  P  P7  1  0.39477769  0.19738735  0.27355714  1
loop_
_geom_bond_atom_site_label_1
_geom_bond_atom_site_label_2
_geom_bond_distance
_geom_bond_site_symmetry_2
K0 P2 3.286730 1_565
K0 P3 3.286760 1_555
K0 P1 3.328517 1_554
K0 P4 3.681308 1_555
K1 P5 3.286740 1_655
K1 P1 3.286740 1_545
K1 P2 3.328508 1_555
K1 P0 3.681299 1_555
K2 P6 3.286730 1_655
K2 P1 3.286760 1_555
K2 P3 3.328517 1_555
K2 P0 3.681308 1_555
K3 P2 3.286730 1_455
K3 P7 3.286760 1_555
K3 P5 3.328517 1_554
K3 P4 3.681308 1_555
K4 P3 3.286740 1_455
K4 P7 3.286740 1_565
K4 P6 3.328508 1_554
K4 P4 3.681299 1_555
K5 P6 3.286730 1_545
K5 P5 3.286760 1_555
K5 P7 3.328517 1_555
K5 P0 3.681308 1_555
Ba0 P4 3.264299 1_555
Ba0 P5 3.315493 1_555
Ba0 P6 3.315506 1_555
Ba0 P3 3.637250 1_455
Ba0 P2 3.637275 1_455
Ba1 P4 3.264299 1_555
Ba1 P1 3.315493 1_555
Ba1 P6 3.315506 1_555
Ba1 P7 3.637250 1_565
Ba1 P2 3.637275 1_565
Ba2 P4 3.264299 1_555
Ba2 P5 3.315506 1_555
Ba2 P1 3.315506 1_555
Ba2 P3 3.637286 1_555
Ba2 P7 3.637286 1_555
Ba3 P0 3.264299 1_555
Ba3 P3 3.315506 1_556
Ba3 P7 3.315506 1_556
Ba3 P5 3.637286 1_555
Ba3 P1 3.637286 1_555
Ba4 P0 3.264299 1_555
Ba4 P7 3.315493 1_556
Ba4 P2 3.315506 1_556
Ba4 P1 3.637250 1_545
Ba4 P6 3.637275 1_545
Ba5 P0 3.264299 1_555
Ba5 P3 3.315493 1_556
Ba5 P2 3.315506 1_556
Ba5 P5 3.637250 1_655
Ba5 P6 3.637275 1_655
Lu0 P1 2.647869 1_555
Lu0 P5 2.647869 1_555
Lu0 P6 2.647886 1_555
Lu0 P4 2.684359 1_556
Lu1 P7 2.647869 1_555
Lu1 P3 2.647869 1_555
Lu1 P2 2.647886 1_555
Lu1 P0 2.684359 1_555
