# generated using pymatgen
data_CsP4IrO12
_symmetry_space_group_name_H-M   'P 1'
_cell_length_a   13.38073873
_cell_length_b   5.13938388
_cell_length_c   7.61965393
_cell_angle_alpha   79.20730660
_cell_angle_beta   90.00000000
_cell_angle_gamma   90.00000000
_symmetry_Int_Tables_number   1
_chemical_formula_structural   CsP4IrO12
_chemical_formula_sum   'Cs2 P8 Ir2 O24'
_cell_volume   514.72523909
_cell_formula_units_Z   2
loop_
 _symmetry_equiv_pos_site_id
 _symmetry_equiv_pos_as_xyz
  1  'x, y, z'
loop_
 _atom_site_type_symbol
 _atom_site_label
 _atom_site_symmetry_multiplicity
 _atom_site_fract_x
 _atom_site_fract_y
 _atom_site_fract_z
 _atom_site_occupancy
  Cs  Cs0  1  0.99863328  0.40283369  0.83575317  1
  Cs  Cs1  1  0.49863328  0.59716631  0.16424683  1
  P  P0  1  0.87088483  0.02521674  0.44173253  1
  P  P1  1  0.81790103  0.78580078  0.14238695  1
  P  P2  1  0.37088483  0.97478326  0.55826747  1
  P  P3  1  0.18327003  0.86983420  0.10103172  1
  P  P4  1  0.09784192  0.02854628  0.42768996  1
  P  P5  1  0.59784192  0.97145372  0.57231004  1
  P  P6  1  0.68327003  0.13016580  0.89896828  1
  P  P7  1  0.31790103  0.21419922  0.85761305  1
  Ir  Ir0  1  0.23451843  0.50217618  0.48970049  1
  Ir  Ir1  1  0.73451843  0.49782382  0.51029951  1
  O  O0  1  0.15463194  0.81411575  0.54622740  1
  O  O1  1  0.10327768  0.29952620  0.47331368  1
  O  O2  1  0.62299438  0.95767371  0.77489506  1
  O  O3  1  0.98472848  0.94111108  0.44708451  1
  O  O4  1  0.86565849  0.29302878  0.49190114  1
  O  O5  1  0.83909599  0.03656867  0.24264835  1
  O  O6  1  0.12299438  0.04232629  0.22510494  1
  O  O7  1  0.62108440  0.15428570  0.05233747  1
  O  O8  1  0.12108440  0.84571430  0.94766253  1
  O  O9  1  0.23074453  0.36412882  0.76049779  1
  O  O10  1  0.36565849  0.70697122  0.50809886  1
  O  O11  1  0.60327768  0.70047380  0.52668632  1
  O  O12  1  0.65463194  0.18588425  0.45377260  1
  O  O13  1  0.48472848  0.05888892  0.55291549  1
  O  O14  1  0.27744139  0.06181620  0.04419827  1
  O  O15  1  0.91190533  0.65329073  0.11775910  1
  O  O16  1  0.72712790  0.37129834  0.78221876  1
  O  O17  1  0.77744139  0.93818380  0.95580173  1
  O  O18  1  0.41190533  0.34670927  0.88224090  1
  O  O19  1  0.81802396  0.80787333  0.56679285  1
  O  O20  1  0.31802396  0.19212667  0.43320715  1
  O  O21  1  0.33909599  0.96343133  0.75735165  1
  O  O22  1  0.73074453  0.63587118  0.23950221  1
  O  O23  1  0.22712790  0.62870166  0.21778124  1
loop_
_geom_bond_atom_site_label_1
_geom_bond_atom_site_label_2
_geom_bond_distance
_geom_bond_site_symmetry_2
Cs0 O15 2.942235 1_556
Cs0 O8 3.052773 1_655
Cs0 O9 3.171311 1_655
Cs0 O1 3.227759 1_655
Cs0 O8 3.270409 1_645
Cs0 O4 3.301923 1_555
Cs1 O18 2.942235 1_554
Cs1 O7 3.052773 1_555
Cs1 O22 3.171311 1_555
Cs1 O11 3.227759 1_555
Cs1 O7 3.270409 1_565
Cs1 O10 3.301923 1_555
Ir0 O0 2.038856 1_555
Ir0 O9 2.053094 1_555
Ir0 O23 2.054492 1_555
Ir0 O20 2.056651 1_555
Ir0 O1 2.057398 1_555
Ir0 O10 2.064428 1_555
Ir1 O12 2.038856 1_555
Ir1 O22 2.053094 1_555
Ir1 O16 2.054492 1_555
Ir1 O19 2.056651 1_555
Ir1 O11 2.057398 1_555
Ir1 O4 2.064428 1_555
O0 P4 1.494973 1_565
O1 P4 1.498996 1_555
O2 P5 1.568481 1_555
O2 P6 1.626048 1_565
O3 P4 1.577879 1_665
O3 P0 1.581892 1_565
O4 P0 1.497503 1_555
O5 P0 1.565993 1_555
O5 P1 1.641276 1_545
O6 P4 1.568481 1_555
O6 P3 1.626048 1_545
O7 P6 1.458652 1_554
O8 P3 1.458652 1_556
O9 P7 1.512561 1_555
O10 P2 1.497503 1_555
O11 P5 1.498996 1_555
O12 P5 1.494973 1_545
O13 P5 1.577879 1_545
O13 P2 1.581892 1_545
O14 P7 1.584521 1_554
O14 P3 1.608986 1_545
O15 P1 1.459124 1_555
O16 P6 1.502892 1_555
O17 P1 1.584521 1_556
O17 P6 1.608986 1_565
O18 P7 1.459124 1_555
O19 P0 1.502473 1_565
O20 P2 1.502473 1_545
O21 P2 1.565993 1_555
O21 P7 1.641276 1_565
O22 P1 1.512561 1_555
O23 P3 1.502892 1_555
