# generated using pymatgen
data_Cs3K5(ZrSe4)2
_symmetry_space_group_name_H-M   'P 1'
_cell_length_a   8.41717563
_cell_length_b   10.62887944
_cell_length_c   15.96894950
_cell_angle_alpha   90.00000000
_cell_angle_beta   90.00000000
_cell_angle_gamma   90.00000000
_symmetry_Int_Tables_number   1
_chemical_formula_structural   Cs3K5(ZrSe4)2
_chemical_formula_sum   'Cs6 K10 Zr4 Se16'
_cell_volume   1428.66438210
_cell_formula_units_Z   2
loop_
 _symmetry_equiv_pos_site_id
 _symmetry_equiv_pos_as_xyz
  1  'x, y, z'
loop_
 _atom_site_type_symbol
 _atom_site_label
 _atom_site_symmetry_multiplicity
 _atom_site_fract_x
 _atom_site_fract_y
 _atom_site_fract_z
 _atom_site_occupancy
  Cs  Cs0  1  0.00191116  0.99832032  0.99960657  1
  Cs  Cs1  1  0.50191116  0.00167968  0.50039343  1
  Cs  Cs2  1  0.00191116  0.50167968  0.99960657  1
  Cs  Cs3  1  0.50191116  0.49832032  0.50039343  1
  Cs  Cs4  1  0.99243503  0.75000000  0.43052973  1
  Cs  Cs5  1  0.49243503  0.25000000  0.06947027  1
  K  K0  1  0.02719550  0.25000000  0.56589304  1
  K  K1  1  0.52719550  0.75000000  0.93410696  1
  K  K2  1  0.82786556  0.05586387  0.26789048  1
  K  K3  1  0.32786556  0.94413613  0.23210952  1
  K  K4  1  0.17131911  0.55836375  0.73236523  1
  K  K5  1  0.67131911  0.44163625  0.76763477  1
  K  K6  1  0.17131911  0.94163625  0.73236523  1
  K  K7  1  0.67131911  0.05836375  0.76763477  1
  K  K8  1  0.82786556  0.44413613  0.26789048  1
  K  K9  1  0.32786556  0.55586387  0.23210952  1
  Zr  Zr0  1  0.77228444  0.75000000  0.67831273  1
  Zr  Zr1  1  0.22488434  0.25000000  0.32280356  1
  Zr  Zr2  1  0.72488434  0.75000000  0.17719644  1
  Zr  Zr3  1  0.27228444  0.25000000  0.82168727  1
  Se  Se0  1  0.97145612  0.25000000  0.81866998  1
  Se  Se1  1  0.52647776  0.25000000  0.31452255  1
  Se  Se2  1  0.47145612  0.75000000  0.68133002  1
  Se  Se3  1  0.02647776  0.75000000  0.18547745  1
  Se  Se4  1  0.62865137  0.55931085  0.10013299  1
  Se  Se5  1  0.12865137  0.44068915  0.39986701  1
  Se  Se6  1  0.37013245  0.05313211  0.89423622  1
  Se  Se7  1  0.87013245  0.94686789  0.60576378  1
  Se  Se8  1  0.37013245  0.44686789  0.89423622  1
  Se  Se9  1  0.87013245  0.55313211  0.60576378  1
  Se  Se10  1  0.62865137  0.94068915  0.10013299  1
  Se  Se11  1  0.12865137  0.05931085  0.39986701  1
  Se  Se12  1  0.60285206  0.75000000  0.32368073  1
  Se  Se13  1  0.10285206  0.25000000  0.17631927  1
  Se  Se14  1  0.38265446  0.25000000  0.67277190  1
  Se  Se15  1  0.88265446  0.75000000  0.82722810  1
loop_
_geom_bond_atom_site_label_1
_geom_bond_atom_site_label_2
_geom_bond_distance
_geom_bond_site_symmetry_2
Cs0 Se6 3.574480 1_565
Cs0 Se10 3.580933 1_456
Cs0 Se15 3.943508 1_455
Cs0 Se0 3.945906 1_465
Cs0 Se3 3.977311 1_556
Cs0 Se13 3.980089 1_566
Cs1 Se7 3.574480 1_545
Cs1 Se11 3.580933 1_555
Cs1 Se14 3.943508 1_555
Cs1 Se2 3.945906 1_545
Cs1 Se1 3.977311 1_555
Cs1 Se12 3.980089 1_545
Cs2 Se8 3.574480 1_555
Cs2 Se4 3.580933 1_456
Cs2 Se15 3.943508 1_455
Cs2 Se0 3.945906 1_455
Cs2 Se3 3.977311 1_556
Cs2 Se13 3.980089 1_556
Cs3 Se9 3.574480 1_555
Cs3 Se5 3.580933 1_555
Cs3 Se14 3.943508 1_555
Cs3 Se2 3.945906 1_555
Cs3 Se1 3.977311 1_555
Cs3 Se12 3.980089 1_555
Cs4 Se11 3.516084 1_665
Cs4 Se5 3.516084 1_655
Cs4 Se9 3.642629 1_555
Cs4 Se7 3.642629 1_555
Cs4 Se12 3.696542 1_555
Cs4 Se3 3.923704 1_655
Cs5 Se4 3.516084 1_555
Cs5 Se10 3.516084 1_545
Cs5 Se6 3.642629 1_554
Cs5 Se8 3.642629 1_554
Cs5 Se13 3.696542 1_555
Cs5 Se1 3.923704 1_555
K0 Se14 3.444532 1_555
K0 Se5 3.444767 1_555
K0 Se11 3.444767 1_555
K0 Se7 3.540357 1_445
K0 Se9 3.540357 1_455
K1 Se15 3.444532 1_555
K1 Se10 3.444767 1_556
K1 Se4 3.444767 1_556
K1 Se8 3.540357 1_555
K1 Se6 3.540357 1_565
K2 Se11 3.294367 1_655
K2 Se1 3.353785 1_555
K2 Se10 3.389234 1_545
K2 Se13 3.428345 1_655
K2 Se3 3.885316 1_645
K3 Se10 3.294367 1_555
K3 Se3 3.353785 1_555
K3 Se11 3.389234 1_565
K3 Se12 3.428345 1_555
K3 Se1 3.885316 1_565
K4 Se9 3.243034 1_455
K4 Se8 3.299483 1_555
K4 Se2 3.345936 1_555
K4 Se15 3.513875 1_455
K4 Se14 3.848679 1_555
K5 Se8 3.243034 1_555
K5 Se9 3.299483 1_555
K5 Se0 3.345936 1_555
K5 Se14 3.513875 1_555
K5 Se15 3.848679 1_555
K6 Se7 3.243034 1_455
K6 Se6 3.299483 1_565
K6 Se2 3.345936 1_555
K6 Se15 3.513875 1_455
K6 Se14 3.848679 1_565
K7 Se6 3.243034 1_555
K7 Se7 3.299483 1_545
K7 Se0 3.345936 1_555
K7 Se14 3.513875 1_555
K7 Se15 3.848679 1_545
K8 Se5 3.294367 1_655
K8 Se1 3.353785 1_555
K8 Se4 3.389234 1_555
K8 Se13 3.428345 1_655
K8 Se3 3.885316 1_655
K9 Se4 3.294367 1_555
K9 Se3 3.353785 1_555
K9 Se5 3.389234 1_555
K9 Se12 3.428345 1_555
K9 Se1 3.885316 1_555
Se0 Zr3 2.532583 1_655
Se1 Zr1 2.542007 1_555
Se2 Zr0 2.532583 1_555
Se3 Zr2 2.542007 1_455
Se4 Zr2 2.505696 1_555
Se5 Zr1 2.505696 1_555
Se6 Zr3 2.529626 1_555
Se7 Zr0 2.529626 1_555
Se8 Zr3 2.529626 1_555
Se9 Zr0 2.529626 1_555
Se10 Zr2 2.505696 1_555
Se11 Zr1 2.505696 1_555
Se12 Zr2 2.554786 1_555
Se13 Zr1 2.554786 1_555
Se14 Zr3 2.553045 1_555
Se15 Zr0 2.553045 1_555
