# generated using pymatgen
data_Na3LiTeO5
_symmetry_space_group_name_H-M   'P 1'
_cell_length_a   5.63284856
_cell_length_b   6.00034251
_cell_length_c   7.69456951
_cell_angle_alpha   76.34660019
_cell_angle_beta   70.51992384
_cell_angle_gamma   73.60429869
_symmetry_Int_Tables_number   1
_chemical_formula_structural   Na3LiTeO5
_chemical_formula_sum   'Na6 Li2 Te2 O10'
_cell_volume   232.29787000
_cell_formula_units_Z   2
loop_
 _symmetry_equiv_pos_site_id
 _symmetry_equiv_pos_as_xyz
  1  'x, y, z'
loop_
 _atom_site_type_symbol
 _atom_site_label
 _atom_site_symmetry_multiplicity
 _atom_site_fract_x
 _atom_site_fract_y
 _atom_site_fract_z
 _atom_site_occupancy
  Na  Na0  1  0.70215800  0.06394243  0.57861729  1
  Na  Na1  1  0.31180901  0.44617061  0.38813940  1
  Na  Na2  1  0.52162714  0.74186508  0.98865291  1
  Na  Na3  1  0.68819099  0.55382939  0.61186060  1
  Na  Na4  1  0.29784200  0.93605757  0.42138271  1
  Na  Na5  1  0.47837286  0.25813492  0.01134709  1
  Li  Li0  1  0.87154684  0.37018251  0.15593392  1
  Li  Li1  1  0.12845316  0.62981749  0.84406608  1
  Te  Te0  1  0.10427596  0.15746400  0.80216850  1
  Te  Te1  1  0.89572404  0.84253600  0.19783150  1
  O  O0  1  0.01638327  0.22347603  0.57860323  1
  O  O1  1  0.84785778  0.94458175  0.93327180  1
  O  O2  1  0.84808901  0.42202590  0.89496255  1
  O  O3  1  0.64090968  0.66059551  0.27137055  1
  O  O4  1  0.98361673  0.77652397  0.42139677  1
  O  O5  1  0.35367098  0.87790485  0.73069004  1
  O  O6  1  0.64632902  0.12209515  0.26930996  1
  O  O7  1  0.15214222  0.05541825  0.06672820  1
  O  O8  1  0.15191099  0.57797410  0.10503745  1
  O  O9  1  0.35909032  0.33940449  0.72862945  1
loop_
_geom_bond_atom_site_label_1
_geom_bond_atom_site_label_2
_geom_bond_distance
_geom_bond_site_symmetry_2
Na0 O0 2.237301 1_655
Na0 O4 2.261301 1_545
Na0 O9 2.325617 1_555
Na0 O5 2.357331 1_545
Na0 O6 2.435193 1_555
Na1 O4 2.295100 1_455
Na1 O0 2.325249 1_555
Na1 O3 2.364109 1_555
Na1 O6 2.406174 1_555
Na1 O8 2.504998 1_555
Na1 O9 2.630975 1_555
Na2 O2 2.315396 1_555
Na2 O1 2.352198 1_555
Na2 O5 2.356443 1_555
Na2 O8 2.366987 1_556
Na2 O3 2.389697 1_556
Na2 O7 2.391943 1_566
Na3 O0 2.295100 1_655
Na3 O4 2.325249 1_555
Na3 O9 2.364109 1_555
Na3 O5 2.406174 1_555
Na3 O2 2.504998 1_555
Na3 O3 2.630975 1_555
Na4 O4 2.237301 1_455
Na4 O0 2.261301 1_565
Na4 O3 2.325617 1_555
Na4 O6 2.357331 1_565
Na4 O5 2.435193 1_555
Na5 O8 2.315396 1_555
Na5 O7 2.352198 1_555
Na5 O6 2.356443 1_555
Na5 O2 2.366987 1_554
Na5 O9 2.389697 1_554
Na5 O1 2.391943 1_544
Li0 O2 2.001351 1_554
Li0 O3 2.048502 1_555
Li0 O6 2.073958 1_555
Li0 O8 2.161144 1_655
Li0 O7 2.177074 1_655
Li1 O8 2.001351 1_556
Li1 O9 2.048502 1_555
Li1 O5 2.073958 1_555
Li1 O2 2.161144 1_455
Li1 O1 2.177074 1_455
O0 Te0 1.869991 1_555
O1 Te0 2.048642 1_665
O1 Te1 2.067850 1_556
O2 Te0 1.914921 1_655
O3 Te1 1.903540 1_555
O4 Te1 1.869991 1_555
O5 Te0 1.918259 1_565
O6 Te1 1.918259 1_545
O7 Te1 2.048642 1_445
O7 Te0 2.067850 1_554
O8 Te1 1.914921 1_455
O9 Te0 1.903540 1_555
