# generated using pymatgen
data_Lu6Zn15SiAg8
_symmetry_space_group_name_H-M   'P 1'
_cell_length_a   9.01384839
_cell_length_b   9.01384775
_cell_length_c   9.01384785
_cell_angle_alpha   59.99999612
_cell_angle_beta   59.99999843
_cell_angle_gamma   59.99999460
_symmetry_Int_Tables_number   1
_chemical_formula_structural   Lu6Zn15SiAg8
_chemical_formula_sum   'Lu6 Zn15 Si1 Ag8'
_cell_volume   517.86392307
_cell_formula_units_Z   1
loop_
 _symmetry_equiv_pos_site_id
 _symmetry_equiv_pos_as_xyz
  1  'x, y, z'
loop_
 _atom_site_type_symbol
 _atom_site_label
 _atom_site_symmetry_multiplicity
 _atom_site_fract_x
 _atom_site_fract_y
 _atom_site_fract_z
 _atom_site_occupancy
  Lu  Lu0  1  0.71076430  0.28923570  0.28923570  1
  Lu  Lu1  1  0.28923570  0.71076430  0.71076430  1
  Lu  Lu2  1  0.28923570  0.71076430  0.28923570  1
  Lu  Lu3  1  0.71076430  0.28923570  0.71076430  1
  Lu  Lu4  1  0.28923570  0.28923570  0.71076430  1
  Lu  Lu5  1  0.71076430  0.71076430  0.28923570  1
  Zn  Zn0  1  0.50000000  0.00000000  0.00000000  1
  Zn  Zn1  1  0.00000000  0.50000000  0.50000000  1
  Zn  Zn2  1  0.00000000  0.50000000  0.00000000  1
  Zn  Zn3  1  0.50000000  0.00000000  0.50000000  1
  Zn  Zn4  1  0.00000000  0.00000000  0.50000000  1
  Zn  Zn5  1  0.50000000  0.50000000  0.00000000  1
  Zn  Zn6  1  0.32939588  0.32939588  0.32939588  1
  Zn  Zn7  1  0.67060412  0.67060412  0.67060412  1
  Zn  Zn8  1  0.32939588  0.32939588  0.01181337  1
  Zn  Zn9  1  0.32939588  0.01181337  0.32939588  1
  Zn  Zn10  1  0.67060412  0.67060412  0.98818663  1
  Zn  Zn11  1  0.67060412  0.98818663  0.67060412  1
  Zn  Zn12  1  0.01181337  0.32939588  0.32939588  1
  Zn  Zn13  1  0.98818663  0.67060412  0.67060412  1
  Zn  Zn14  1  0.00000000  0.00000000  0.00000000  1
  Si  Si0  1  0.50000000  0.50000000  0.50000000  1
  Ag  Ag0  1  0.12074655  0.12074655  0.12074655  1
  Ag  Ag1  1  0.87925345  0.87925345  0.87925345  1
  Ag  Ag2  1  0.12074655  0.12074655  0.63776335  1
  Ag  Ag3  1  0.12074655  0.63776335  0.12074655  1
  Ag  Ag4  1  0.87925345  0.87925345  0.36223665  1
  Ag  Ag5  1  0.87925345  0.36223665  0.87925345  1
  Ag  Ag6  1  0.63776335  0.12074655  0.12074655  1
  Ag  Ag7  1  0.36223665  0.87925345  0.87925345  1
loop_
_geom_bond_atom_site_label_1
_geom_bond_atom_site_label_2
_geom_bond_distance
_geom_bond_site_symmetry_2
Lu0 Si0 2.686719 1_555
Lu0 Zn6 3.117915 1_555
Lu0 Zn10 3.117918 1_554
Lu0 Zn11 3.117918 1_545
Lu0 Zn12 3.117924 1_655
Lu0 Zn4 3.225886 1_655
Lu0 Zn5 3.225886 1_555
Lu0 Zn3 3.225886 1_555
Lu0 Zn2 3.225886 1_655
Lu1 Si0 2.686719 1_555
Lu1 Zn7 3.117915 1_555
Lu1 Zn8 3.117918 1_556
Lu1 Zn9 3.117918 1_565
Lu1 Zn13 3.117924 1_455
Lu1 Zn4 3.225886 1_565
Lu1 Zn5 3.225886 1_556
Lu1 Zn3 3.225886 1_565
Lu1 Zn2 3.225886 1_556
Lu2 Si0 2.686719 1_555
Lu2 Zn6 3.117915 1_555
Lu2 Zn13 3.117919 1_455
Lu2 Zn10 3.117919 1_554
Lu2 Zn9 3.117924 1_565
Lu2 Zn4 3.225886 1_565
Lu2 Zn5 3.225886 1_555
Lu2 Zn0 3.225886 1_565
Lu2 Zn1 3.225886 1_555
Lu3 Si0 2.686719 1_555
Lu3 Zn7 3.117915 1_555
Lu3 Zn12 3.117919 1_655
Lu3 Zn8 3.117919 1_556
Lu3 Zn11 3.117924 1_545
Lu3 Zn4 3.225886 1_655
Lu3 Zn5 3.225886 1_556
Lu3 Zn0 3.225886 1_556
Lu3 Zn1 3.225886 1_655
Lu4 Si0 2.686719 1_555
Lu4 Zn6 3.117915 1_555
Lu4 Zn13 3.117918 1_455
Lu4 Zn11 3.117918 1_545
Lu4 Zn8 3.117924 1_556
Lu4 Zn0 3.225886 1_556
Lu4 Zn3 3.225886 1_555
Lu4 Zn2 3.225886 1_556
Lu4 Zn1 3.225886 1_555
Lu5 Si0 2.686719 1_555
Lu5 Zn7 3.117915 1_555
Lu5 Zn12 3.117918 1_655
Lu5 Zn9 3.117918 1_565
Lu5 Zn10 3.117924 1_554
Lu5 Zn0 3.225886 1_565
Lu5 Zn3 3.225886 1_565
Lu5 Zn2 3.225886 1_655
Lu5 Zn1 3.225886 1_655
Zn0 Zn8 2.603528 1_555
Zn0 Zn10 2.603528 1_544
Zn0 Zn9 2.603528 1_555
Zn0 Zn11 2.603528 1_544
Zn1 Zn13 2.603521 1_455
Zn1 Zn12 2.603521 1_555
Zn1 Zn7 2.603526 1_455
Zn1 Zn6 2.603526 1_555
Zn2 Zn8 2.603528 1_555
Zn3 Zn9 2.603521 1_555
Zn3 Zn7 2.603525 1_545
Zn3 Zn6 2.603525 1_555
Zn4 Zn9 2.603529 1_555
Zn5 Zn8 2.603521 1_555
Zn5 Zn7 2.603526 1_554
Zn5 Zn6 2.603526 1_555
Zn6 Zn9 2.862640 1_555
Zn6 Zn8 2.862640 1_555
Zn8 Zn9 2.862640 1_555
Zn10 Zn5 2.603521 1_556
Zn10 Zn2 2.603528 1_656
Zn10 Zn11 2.862640 1_555
Zn10 Zn7 2.862640 1_555
Zn10 Zn13 2.862640 1_555
Zn11 Zn3 2.603521 1_565
Zn11 Zn4 2.603529 1_665
Zn11 Zn13 2.862640 1_555
Zn11 Zn7 2.862640 1_555
Zn12 Zn4 2.603528 1_555
Zn12 Zn2 2.603528 1_555
Zn12 Zn9 2.862640 1_555
Zn12 Zn8 2.862640 1_555
Zn12 Zn6 2.862641 1_555
Zn13 Zn4 2.603528 1_665
Zn13 Zn2 2.603528 1_656
Zn13 Zn7 2.862641 1_555
Ag0 Zn14 2.666003 1_555
Ag0 Zn2 2.792624 1_555
Ag0 Zn4 2.792624 1_555
Ag0 Zn0 2.792624 1_555
Ag0 Zn12 2.807526 1_555
Ag0 Zn9 2.807526 1_555
Ag0 Zn8 2.807526 1_555
Ag0 Lu2 3.058021 1_545
Ag0 Lu4 3.058021 1_554
Ag0 Lu0 3.058021 1_455
Ag1 Zn14 2.666003 1_666
Ag1 Zn2 2.792624 1_656
Ag1 Zn4 2.792624 1_665
Ag1 Zn0 2.792624 1_566
Ag1 Zn13 2.807526 1_555
Ag1 Zn11 2.807526 1_555
Ag1 Zn10 2.807526 1_555
Ag1 Lu3 3.058021 1_565
Ag1 Lu5 3.058021 1_556
Ag1 Lu1 3.058021 1_655
Ag2 Zn14 2.665980 1_556
Ag2 Zn1 2.792625 1_555
Ag2 Zn3 2.792625 1_555
Ag2 Zn4 2.792647 1_555
Ag2 Zn6 2.807532 1_555
Ag2 Zn12 2.807541 1_555
Ag2 Zn9 2.807541 1_555
Ag2 Lu4 3.058002 1_555
Ag2 Lu1 3.058025 1_545
Ag2 Lu3 3.058025 1_455
Ag3 Zn14 2.665980 1_565
Ag3 Zn1 2.792625 1_555
Ag3 Zn5 2.792625 1_555
Ag3 Zn2 2.792647 1_555
Ag3 Zn6 2.807532 1_555
Ag3 Zn8 2.807541 1_555
Ag3 Zn12 2.807541 1_555
Ag3 Lu2 3.058002 1_555
Ag3 Lu1 3.058025 1_554
Ag3 Lu5 3.058025 1_455
Ag4 Zn14 2.665980 1_665
Ag4 Zn1 2.792625 1_655
Ag4 Zn3 2.792625 1_565
Ag4 Zn4 2.792647 1_665
Ag4 Zn7 2.807532 1_555
Ag4 Zn13 2.807541 1_555
Ag4 Zn11 2.807541 1_555
Ag4 Lu5 3.058002 1_555
Ag4 Lu0 3.058025 1_565
Ag4 Lu2 3.058025 1_655
Ag5 Zn14 2.665980 1_656
Ag5 Zn1 2.792625 1_655
Ag5 Zn5 2.792625 1_556
Ag5 Zn2 2.792647 1_656
Ag5 Zn7 2.807532 1_555
Ag5 Zn10 2.807541 1_555
Ag5 Zn13 2.807541 1_555
Ag5 Lu3 3.058002 1_555
Ag5 Lu0 3.058025 1_556
Ag5 Lu4 3.058025 1_655
Ag6 Zn14 2.665981 1_655
Ag6 Zn5 2.792625 1_555
Ag6 Zn3 2.792625 1_555
Ag6 Zn0 2.792647 1_555
Ag6 Zn6 2.807532 1_555
Ag6 Zn8 2.807541 1_555
Ag6 Zn9 2.807541 1_555
Ag6 Lu0 3.058002 1_555
Ag6 Lu5 3.058025 1_545
Ag6 Lu3 3.058025 1_554
Ag7 Zn14 2.665981 1_566
Ag7 Zn5 2.792625 1_556
Ag7 Zn3 2.792625 1_565
Ag7 Zn0 2.792647 1_566
Ag7 Zn7 2.807532 1_555
Ag7 Zn10 2.807541 1_555
Ag7 Zn11 2.807541 1_555
Ag7 Lu1 3.058002 1_555
Ag7 Lu4 3.058025 1_565
Ag7 Lu2 3.058025 1_556
