# generated using pymatgen
data_Hf3Ga3IrAu2
_symmetry_space_group_name_H-M   'P 1'
_cell_length_a   7.16262279
_cell_length_b   7.16262203
_cell_length_c   7.14027400
_cell_angle_alpha   90.00000000
_cell_angle_beta   90.00000000
_cell_angle_gamma   120.00000350
_symmetry_Int_Tables_number   1
_chemical_formula_structural   Hf3Ga3IrAu2
_chemical_formula_sum   'Hf6 Ga6 Ir2 Au4'
_cell_volume   317.24121804
_cell_formula_units_Z   2
loop_
 _symmetry_equiv_pos_site_id
 _symmetry_equiv_pos_as_xyz
  1  'x, y, z'
loop_
 _atom_site_type_symbol
 _atom_site_label
 _atom_site_symmetry_multiplicity
 _atom_site_fract_x
 _atom_site_fract_y
 _atom_site_fract_z
 _atom_site_occupancy
  Hf  Hf0  1  0.42464177  0.37722310  0.25000000  1
  Hf  Hf1  1  0.59981183  0.99097506  0.75000000  1
  Hf  Hf2  1  0.39116323  0.40018817  0.75000000  1
  Hf  Hf3  1  0.00902494  0.60883677  0.75000000  1
  Hf  Hf4  1  0.95258033  0.57535823  0.25000000  1
  Hf  Hf5  1  0.62277690  0.04741967  0.25000000  1
  Ga  Ga0  1  0.27342243  0.00015703  0.99730224  1
  Ga  Ga1  1  0.27342243  0.00015703  0.50269776  1
  Ga  Ga2  1  0.99984297  0.27326340  0.50269776  1
  Ga  Ga3  1  0.99984297  0.27326340  0.99730224  1
  Ga  Ga4  1  0.72673660  0.72657757  0.99730224  1
  Ga  Ga5  1  0.72673660  0.72657757  0.50269776  1
  Ir  Ir0  1  0.66666700  0.33333300  0.53563008  1
  Ir  Ir1  1  0.66666700  0.33333300  0.96436992  1
  Au  Au0  1  0.00000000  0.00000000  0.75000000  1
  Au  Au1  1  0.33333300  0.66666700  0.03807712  1
  Au  Au2  1  0.33333300  0.66666700  0.46192288  1
  Au  Au3  1  0.00000000  0.00000000  0.25000000  1
loop_
_geom_bond_atom_site_label_1
_geom_bond_atom_site_label_2
_geom_bond_distance
_geom_bond_site_symmetry_2
Hf0 Ir0 2.794353 1_555
Hf0 Ir1 2.794353 1_554
Hf1 Ir1 2.722346 1_565
Hf1 Ir0 2.722346 1_565
Hf2 Ir1 2.722352 1_555
Hf2 Ir0 2.722352 1_555
Hf3 Ir1 2.722348 1_455
Hf3 Ir0 2.722348 1_455
Hf4 Ir0 2.794347 1_555
Hf4 Ir1 2.794347 1_554
Hf5 Ir0 2.794343 1_555
Hf5 Ir1 2.794343 1_554
Ga0 Ir1 2.638585 1_555
Ga0 Hf1 2.956598 1_545
Ga0 Hf5 2.963882 1_556
Ga0 Hf0 2.966093 1_556
Ga0 Hf3 3.041803 1_545
Ga0 Hf2 3.102045 1_555
Ga0 Hf4 3.286689 1_446
Ga1 Ir0 2.638585 1_555
Ga1 Hf1 2.956598 1_545
Ga1 Hf5 2.963882 1_555
Ga1 Hf0 2.966093 1_555
Ga1 Hf3 3.041803 1_545
Ga1 Hf2 3.102045 1_555
Ga1 Hf4 3.286689 1_445
Ga2 Ir0 2.638589 1_555
Ga2 Hf3 2.956610 1_655
Ga2 Hf4 2.963899 1_555
Ga2 Hf5 2.966091 1_555
Ga2 Hf2 3.041801 1_655
Ga2 Hf1 3.102043 1_545
Ga2 Hf0 3.286684 1_655
Ga3 Ir1 2.638589 1_555
Ga3 Hf3 2.956610 1_655
Ga3 Hf4 2.963899 1_556
Ga3 Hf5 2.966091 1_556
Ga3 Hf2 3.041801 1_655
Ga3 Hf1 3.102043 1_545
Ga3 Hf0 3.286684 1_656
Ga4 Ir1 2.638582 1_555
Ga4 Hf2 2.956604 1_555
Ga4 Hf0 2.963889 1_556
Ga4 Hf4 2.966078 1_556
Ga4 Hf1 3.041812 1_555
Ga4 Hf3 3.102034 1_655
Ga4 Hf5 3.286701 1_566
Ga5 Ir0 2.638582 1_555
Ga5 Hf2 2.956604 1_555
Ga5 Hf0 2.963889 1_555
Ga5 Hf4 2.966078 1_555
Ga5 Hf1 3.041812 1_555
Ga5 Hf3 3.102034 1_655
Ga5 Hf5 3.286701 1_565
Au0 Ga2 2.636518 1_455
Au0 Ga3 2.636518 1_455
Au0 Ga5 2.636523 1_445
Au0 Ga4 2.636523 1_445
Au0 Ga1 2.636529 1_555
Au0 Ga0 2.636529 1_555
Au0 Hf2 2.834628 1_555
Au0 Hf3 2.834628 1_545
Au0 Hf1 2.834629 1_445
Au1 Ga0 2.645682 1_564
Au1 Ga3 2.645695 1_454
Au1 Ga4 2.645703 1_554
Au1 Hf5 2.893339 1_565
Au1 Hf0 2.893339 1_555
Au1 Hf4 2.893339 1_455
Au1 Hf3 2.972589 1_554
Au1 Hf1 2.972590 1_554
Au1 Hf2 2.972594 1_554
Au2 Ga1 2.645682 1_565
Au2 Ga2 2.645695 1_455
Au2 Ga5 2.645703 1_555
Au2 Hf5 2.893339 1_565
Au2 Hf0 2.893339 1_555
Au2 Hf4 2.893339 1_455
Au2 Hf3 2.972589 1_555
Au2 Hf1 2.972590 1_555
Au2 Hf2 2.972594 1_555
Au3 Ga3 2.662474 1_454
Au3 Ga2 2.662474 1_455
Au3 Ga4 2.662479 1_444
Au3 Ga5 2.662479 1_445
Au3 Ga0 2.662485 1_554
Au3 Ga1 2.662485 1_555
Au3 Hf4 2.886749 1_445
Au3 Hf0 2.886752 1_555
Au3 Hf5 2.886756 1_455
