# generated using pymatgen
data_YZrSb
_symmetry_space_group_name_H-M   'P 1'
_cell_length_a   4.27804863
_cell_length_b   4.27804911
_cell_length_c   8.85563168
_cell_angle_alpha   103.97349594
_cell_angle_beta   103.97349278
_cell_angle_gamma   90.00253309
_symmetry_Int_Tables_number   1
_chemical_formula_structural   YZrSb
_chemical_formula_sum   'Y2 Zr2 Sb2'
_cell_volume   152.32946980
_cell_formula_units_Z   2
loop_
 _symmetry_equiv_pos_site_id
 _symmetry_equiv_pos_as_xyz
  1  'x, y, z'
loop_
 _atom_site_type_symbol
 _atom_site_label
 _atom_site_symmetry_multiplicity
 _atom_site_fract_x
 _atom_site_fract_y
 _atom_site_fract_z
 _atom_site_occupancy
  Y  Y0  1  0.32364949  0.32364949  0.64714976  1
  Y  Y1  1  0.67635051  0.67635051  0.35285024  1
  Zr  Zr0  1  0.50000000  0.00000000  0.00000000  1
  Zr  Zr1  1  -0.00000000  0.50000000  0.00000000  1
  Sb  Sb0  1  0.13262524  0.13262524  0.26565038  1
  Sb  Sb1  1  0.86737476  0.86737476  0.73434962  1
loop_
_geom_bond_atom_site_label_1
_geom_bond_atom_site_label_2
_geom_bond_distance
_geom_bond_site_symmetry_2
Sb0 Zr0 3.075909 1_455
Sb0 Zr1 3.075909 1_545
Sb0 Zr0 3.076901 1_555
Sb0 Zr1 3.076901 1_555
Sb0 Y1 3.110020 1_445
Sb0 Y1 3.110952 1_455
Sb0 Y1 3.110952 1_545
Sb0 Y1 3.111623 1_555
Sb0 Y0 3.175312 1_555
Sb1 Zr0 3.075909 1_666
Sb1 Zr1 3.075909 1_666
Sb1 Zr0 3.076901 1_566
Sb1 Zr1 3.076901 1_656
Sb1 Y0 3.110020 1_665
Sb1 Y0 3.110952 1_655
Sb1 Y0 3.110952 1_565
Sb1 Y0 3.111623 1_555
Sb1 Y1 3.175312 1_555
