# generated using pymatgen
data_NaSrHgBi
_symmetry_space_group_name_H-M   'P 1'
_cell_length_a   5.59126501
_cell_length_b   5.59126405
_cell_length_c   5.59126487
_cell_angle_alpha   60.00000097
_cell_angle_beta   60.00000662
_cell_angle_gamma   60.00000210
_symmetry_Int_Tables_number   1
_chemical_formula_structural   NaSrHgBi
_chemical_formula_sum   'Na1 Sr1 Hg1 Bi1'
_cell_volume   123.59906333
_cell_formula_units_Z   1
loop_
 _symmetry_equiv_pos_site_id
 _symmetry_equiv_pos_as_xyz
  1  'x, y, z'
loop_
 _atom_site_type_symbol
 _atom_site_label
 _atom_site_symmetry_multiplicity
 _atom_site_fract_x
 _atom_site_fract_y
 _atom_site_fract_z
 _atom_site_occupancy
  Na  Na0  1  0.50000000  0.50000000  0.50000000  1
  Sr  Sr0  1  0.00000000  0.00000000  0.00000000  1
  Hg  Hg0  1  0.75000000  0.75000000  0.75000000  1
  Bi  Bi0  1  0.25000000  0.25000000  0.25000000  1
loop_
_geom_bond_atom_site_label_1
_geom_bond_atom_site_label_2
_geom_bond_distance
_geom_bond_site_symmetry_2
Hg0 Sr0 3.423936 1_656
Hg0 Na0 3.423936 1_565
Hg0 Na0 3.423936 1_555
Hg0 Sr0 3.423936 1_666
Hg0 Na0 3.423937 1_556
Hg0 Sr0 3.423937 1_665
Hg0 Sr0 3.423937 1_566
Hg0 Na0 3.423937 1_655
Bi0 Na0 3.423936 1_545
Bi0 Sr0 3.423936 1_565
Bi0 Sr0 3.423936 1_555
Bi0 Na0 3.423936 1_555
Bi0 Sr0 3.423937 1_556
Bi0 Na0 3.423937 1_554
Bi0 Na0 3.423937 1_455
Bi0 Sr0 3.423937 1_655
