# generated using pymatgen
data_Er5Bi3
_symmetry_space_group_name_H-M   'P 1'
_cell_length_a   8.16146397
_cell_length_b   9.37800973
_cell_length_c   11.90337508
_cell_angle_alpha   90.00000000
_cell_angle_beta   90.00000000
_cell_angle_gamma   90.00000000
_symmetry_Int_Tables_number   1
_chemical_formula_structural   Er5Bi3
_chemical_formula_sum   'Er20 Bi12'
_cell_volume   911.06395626
_cell_formula_units_Z   4
loop_
 _symmetry_equiv_pos_site_id
 _symmetry_equiv_pos_as_xyz
  1  'x, y, z'
loop_
 _atom_site_type_symbol
 _atom_site_label
 _atom_site_symmetry_multiplicity
 _atom_site_fract_x
 _atom_site_fract_y
 _atom_site_fract_z
 _atom_site_occupancy
  Er  Er0  1  0.35458369  0.75000000  0.21559281  1
  Er  Er1  1  0.85458369  0.75000000  0.28440719  1
  Er  Er2  1  0.64541631  0.25000000  0.78440719  1
  Er  Er3  1  0.14541631  0.25000000  0.71559281  1
  Er  Er4  1  0.69295209  0.56522506  0.05903396  1
  Er  Er5  1  0.19295209  0.93477494  0.44096604  1
  Er  Er6  1  0.30704791  0.06522506  0.94096604  1
  Er  Er7  1  0.80704791  0.43477494  0.55903396  1
  Er  Er8  1  0.30704791  0.43477494  0.94096604  1
  Er  Er9  1  0.80704791  0.06522506  0.55903396  1
  Er  Er10  1  0.69295209  0.93477494  0.05903396  1
  Er  Er11  1  0.19295209  0.56522506  0.44096604  1
  Er  Er12  1  0.47661624  0.25000000  0.48858928  1
  Er  Er13  1  0.97661624  0.25000000  0.01141072  1
  Er  Er14  1  0.52338376  0.75000000  0.51141072  1
  Er  Er15  1  0.02338376  0.75000000  0.98858928  1
  Er  Er16  1  0.31448477  0.25000000  0.21740185  1
  Er  Er17  1  0.81448477  0.25000000  0.28259815  1
  Er  Er18  1  0.68551523  0.75000000  0.78259815  1
  Er  Er19  1  0.18551523  0.75000000  0.71740185  1
  Bi  Bi0  1  0.40586170  0.75000000  0.95783216  1
  Bi  Bi1  1  0.90586170  0.75000000  0.54216784  1
  Bi  Bi2  1  0.59413830  0.25000000  0.04216784  1
  Bi  Bi3  1  0.09413830  0.25000000  0.45783216  1
  Bi  Bi4  1  0.56567037  0.99586871  0.32566118  1
  Bi  Bi5  1  0.06567037  0.50413129  0.17433782  1
  Bi  Bi6  1  0.43432963  0.49586871  0.67433882  1
  Bi  Bi7  1  0.93432963  0.00413129  0.82566118  1
  Bi  Bi8  1  0.43432963  0.00413129  0.67433882  1
  Bi  Bi9  1  0.93432963  0.49586871  0.82566118  1
  Bi  Bi10  1  0.56567037  0.50413129  0.32566118  1
  Bi  Bi11  1  0.06567037  0.99586871  0.17433782  1
loop_
_geom_bond_atom_site_label_1
_geom_bond_atom_site_label_2
_geom_bond_distance
_geom_bond_site_symmetry_2
Bi0 Er6 3.070784 1_565
Bi0 Er8 3.070784 1_555
Bi0 Er18 3.091949 1_555
Bi0 Er0 3.096632 1_556
Bi0 Er15 3.142976 1_555
Bi0 Er4 3.153387 1_556
Bi0 Er10 3.153387 1_556
Bi0 Er19 3.380047 1_555
Bi1 Er9 3.070784 1_565
Bi1 Er7 3.070784 1_555
Bi1 Er19 3.091949 1_655
Bi1 Er1 3.096632 1_555
Bi1 Er14 3.142976 1_555
Bi1 Er11 3.153387 1_655
Bi1 Er5 3.153387 1_655
Bi1 Er18 3.380047 1_555
Bi2 Er10 3.070784 1_545
Bi2 Er4 3.070784 1_555
Bi2 Er16 3.091949 1_555
Bi2 Er2 3.096632 1_554
Bi2 Er13 3.142976 1_555
Bi2 Er8 3.153387 1_554
Bi2 Er6 3.153387 1_554
Bi2 Er17 3.380047 1_555
Bi3 Er5 3.070784 1_545
Bi3 Er11 3.070784 1_555
Bi3 Er17 3.091949 1_455
Bi3 Er3 3.096632 1_555
Bi3 Er12 3.142976 1_555
Bi3 Er9 3.153387 1_455
Bi3 Er7 3.153387 1_455
Bi3 Er16 3.380047 1_555
Bi4 Er12 3.157430 1_565
Bi4 Er0 3.162447 1_555
Bi4 Er17 3.172746 1_565
Bi4 Er14 3.213154 1_555
Bi4 Er1 3.334310 1_555
Bi4 Er5 3.386057 1_555
Bi4 Er10 3.388237 1_555
Bi4 Er16 3.397522 1_565
Bi4 Er9 3.467101 1_565
Bi5 Er13 3.157423 1_455
Bi5 Er1 3.162452 1_455
Bi5 Er16 3.172748 1_555
Bi5 Er15 3.213146 1_554
Bi5 Er0 3.334312 1_555
Bi5 Er4 3.386052 1_455
Bi5 Er11 3.388248 1_555
Bi5 Er17 3.397527 1_455
Bi5 Er8 3.467091 1_554
Bi6 Er14 3.157430 1_555
Bi6 Er2 3.162447 1_555
Bi6 Er19 3.172746 1_555
Bi6 Er12 3.213154 1_555
Bi6 Er3 3.334310 1_555
Bi6 Er7 3.386057 1_555
Bi6 Er8 3.388237 1_555
Bi6 Er18 3.397522 1_555
Bi6 Er11 3.467101 1_555
Bi7 Er15 3.157430 1_645
Bi7 Er3 3.162447 1_655
Bi7 Er18 3.172746 1_545
Bi7 Er13 3.213154 1_556
Bi7 Er2 3.334310 1_555
Bi7 Er6 3.386057 1_655
Bi7 Er9 3.388237 1_555
Bi7 Er19 3.397522 1_645
Bi7 Er10 3.467101 1_546
Bi8 Er14 3.157430 1_545
Bi8 Er2 3.162447 1_555
Bi8 Er19 3.172746 1_545
Bi8 Er12 3.213154 1_555
Bi8 Er3 3.334310 1_555
Bi8 Er9 3.386057 1_555
Bi8 Er6 3.388237 1_555
Bi8 Er18 3.397522 1_545
Bi8 Er5 3.467101 1_545
Bi9 Er15 3.157430 1_655
Bi9 Er3 3.162447 1_655
Bi9 Er18 3.172746 1_555
Bi9 Er13 3.213154 1_556
Bi9 Er2 3.334310 1_555
Bi9 Er8 3.386057 1_655
Bi9 Er7 3.388237 1_555
Bi9 Er19 3.397522 1_655
Bi9 Er4 3.467101 1_556
Bi10 Er12 3.157430 1_555
Bi10 Er0 3.162447 1_555
Bi10 Er17 3.172746 1_555
Bi10 Er14 3.213154 1_555
Bi10 Er1 3.334310 1_555
Bi10 Er11 3.386057 1_555
Bi10 Er4 3.388237 1_555
Bi10 Er16 3.397522 1_555
Bi10 Er7 3.467101 1_555
Bi11 Er13 3.157423 1_465
Bi11 Er1 3.162452 1_455
Bi11 Er16 3.172748 1_565
Bi11 Er15 3.213146 1_554
Bi11 Er0 3.334312 1_555
Bi11 Er10 3.386052 1_455
Bi11 Er5 3.388248 1_555
Bi11 Er17 3.397527 1_465
Bi11 Er6 3.467091 1_564
