# generated using pymatgen
data_Ca5Sn2BiF
_symmetry_space_group_name_H-M   'P 1'
_cell_length_a   9.48105770
_cell_length_b   9.48105751
_cell_length_c   9.48105800
_cell_angle_alpha   128.90478595
_cell_angle_beta   128.90478332
_cell_angle_gamma   75.16382164
_symmetry_Int_Tables_number   1
_chemical_formula_structural   Ca5Sn2BiF
_chemical_formula_sum   'Ca10 Sn4 Bi2 F2'
_cell_volume   502.45839119
_cell_formula_units_Z   2
loop_
 _symmetry_equiv_pos_site_id
 _symmetry_equiv_pos_as_xyz
  1  'x, y, z'
loop_
 _atom_site_type_symbol
 _atom_site_label
 _atom_site_symmetry_multiplicity
 _atom_site_fract_x
 _atom_site_fract_y
 _atom_site_fract_z
 _atom_site_occupancy
  Ca  Ca0  1  0.50000000  0.50000000  0.00000000  1
  Ca  Ca1  1  0.00000000  0.00000000  0.00000000  1
  Ca  Ca2  1  0.51057271  0.01057271  0.81492579  1
  Ca  Ca3  1  0.19564692  0.69564692  0.18507421  1
  Ca  Ca4  1  0.01057271  0.19564692  0.50000000  1
  Ca  Ca5  1  0.69564692  0.51057271  0.50000000  1
  Ca  Ca6  1  0.48942729  0.98942729  0.18507421  1
  Ca  Ca7  1  0.80435308  0.30435308  0.81492579  1
  Ca  Ca8  1  0.98942729  0.80435308  0.50000000  1
  Ca  Ca9  1  0.30435308  0.48942729  0.50000000  1
  Sn  Sn0  1  0.87015330  0.37015330  0.24030761  1
  Sn  Sn1  1  0.12984670  0.62984670  0.75969339  1
  Sn  Sn2  1  0.37015330  0.12984670  0.50000000  1
  Sn  Sn3  1  0.62984670  0.87015330  0.50000000  1
  Bi  Bi0  1  0.25000000  0.25000000  0.00000000  1
  Bi  Bi1  1  0.75000000  0.75000000  0.00000000  1
  F  F0  1  0.25000000  0.75000000  0.50000000  1
  F  F1  1  0.75000000  0.25000000  0.50000000  1
loop_
_geom_bond_atom_site_label_1
_geom_bond_atom_site_label_2
_geom_bond_distance
_geom_bond_site_symmetry_2
Ca0 Sn1 3.207813 1_554
Ca0 Sn3 3.207813 1_555
Ca0 Sn2 3.207813 1_554
Ca0 Sn0 3.207815 1_555
Ca1 Sn1 3.207812 1_544
Ca1 Sn2 3.207813 1_555
Ca1 Sn3 3.207813 1_444
Ca1 Sn0 3.207815 1_455
Ca2 F0 2.391020 1_545
Ca2 Sn3 3.231646 1_545
Ca2 Sn2 3.231646 1_555
Ca2 Sn0 3.304948 1_556
Ca3 F0 2.391020 1_555
Ca3 Sn2 3.231646 1_565
Ca3 Sn3 3.231646 1_555
Ca3 Sn1 3.304949 1_554
Ca4 F1 2.391020 1_455
Ca4 Sn0 3.231638 1_455
Ca4 Sn1 3.231646 1_555
Ca4 Sn2 3.304948 1_555
Ca5 F1 2.391020 1_555
Ca5 Sn0 3.231638 1_555
Ca5 Sn1 3.231646 1_655
Ca5 Sn3 3.304948 1_555
Ca6 F1 2.391020 1_565
Ca6 Sn2 3.231646 1_565
Ca6 Sn3 3.231646 1_555
Ca6 Sn1 3.304949 1_554
Ca7 F1 2.391020 1_555
Ca7 Sn3 3.231646 1_545
Ca7 Sn2 3.231646 1_555
Ca7 Sn0 3.304958 1_556
Ca8 F0 2.391020 1_655
Ca8 Sn1 3.231646 1_655
Ca8 Sn0 3.231649 1_555
Ca8 Sn3 3.304948 1_555
Ca9 F0 2.391020 1_555
Ca9 Sn1 3.231646 1_555
Ca9 Sn0 3.231649 1_455
Ca9 Sn2 3.304948 1_555
Sn0 Sn1 3.003323 1_655
Sn2 Sn3 3.003328 1_545
Bi0 Ca3 3.450399 1_555
Bi0 Ca2 3.450399 1_554
Bi0 Ca6 3.450399 1_545
Bi0 Ca7 3.450399 1_454
Bi0 Ca9 3.450399 1_555
Bi0 Ca4 3.450399 1_554
Bi0 Ca8 3.450399 1_444
Bi0 Ca5 3.450399 1_555
Bi0 Ca0 3.756785 1_555
Bi0 Ca1 3.756785 1_555
Bi1 Ca7 3.450399 1_554
Bi1 Ca6 3.450399 1_555
Bi1 Ca2 3.450399 1_564
Bi1 Ca3 3.450399 1_655
Bi1 Ca5 3.450399 1_554
Bi1 Ca8 3.450399 1_555
Bi1 Ca4 3.450399 1_665
Bi1 Ca9 3.450399 1_554
Bi1 Ca0 3.756785 1_555
Bi1 Ca1 3.756785 1_665
