# generated using pymatgen
data_Rb5HfBi3
_symmetry_space_group_name_H-M   'P 1'
_cell_length_a   9.32132868
_cell_length_b   10.12755109
_cell_length_c   19.70917578
_cell_angle_alpha   59.94771281
_cell_angle_beta   90.00000000
_cell_angle_gamma   90.00000000
_symmetry_Int_Tables_number   1
_chemical_formula_structural   Rb5HfBi3
_chemical_formula_sum   'Rb20 Hf4 Bi12'
_cell_volume   1610.46873074
_cell_formula_units_Z   4
loop_
 _symmetry_equiv_pos_site_id
 _symmetry_equiv_pos_as_xyz
  1  'x, y, z'
loop_
 _atom_site_type_symbol
 _atom_site_label
 _atom_site_symmetry_multiplicity
 _atom_site_fract_x
 _atom_site_fract_y
 _atom_site_fract_z
 _atom_site_occupancy
  Rb  Rb0  1  0.17491442  0.15605808  0.25987239  1
  Rb  Rb1  1  0.67491442  0.84394192  0.24012761  1
  Rb  Rb2  1  0.82508558  0.84394192  0.74012761  1
  Rb  Rb3  1  0.32508558  0.15605808  0.75987239  1
  Rb  Rb4  1  0.16751549  0.84045183  0.58020391  1
  Rb  Rb5  1  0.66751549  0.15954817  0.91979609  1
  Rb  Rb6  1  0.83248451  0.15954817  0.41979609  1
  Rb  Rb7  1  0.33248451  0.84045183  0.08020391  1
  Rb  Rb8  1  0.00399210  0.91040998  0.90776570  1
  Rb  Rb9  1  0.50399210  0.08959002  0.59223430  1
  Rb  Rb10  1  0.99600790  0.08959002  0.09223430  1
  Rb  Rb11  1  0.49600790  0.91040998  0.40776570  1
  Rb  Rb12  1  0.51143381  0.73332752  0.92388332  1
  Rb  Rb13  1  0.01143381  0.26667248  0.57611668  1
  Rb  Rb14  1  0.48856619  0.26667248  0.07611668  1
  Rb  Rb15  1  0.98856619  0.73332752  0.42388332  1
  Rb  Rb16  1  0.98794064  0.46006711  0.74462959  1
  Rb  Rb17  1  0.48794064  0.53993289  0.75537041  1
  Rb  Rb18  1  0.01205936  0.53993289  0.25537041  1
  Rb  Rb19  1  0.51205936  0.46006711  0.24462959  1
  Hf  Hf0  1  0.36860127  0.50619712  0.42011482  1
  Hf  Hf1  1  0.86860127  0.49380288  0.07988518  1
  Hf  Hf2  1  0.63139873  0.49380288  0.57988518  1
  Hf  Hf3  1  0.13139873  0.50619712  0.92011482  1
  Bi  Bi0  1  0.25290689  0.24345478  0.92217177  1
  Bi  Bi1  1  0.75290689  0.75654522  0.57782823  1
  Bi  Bi2  1  0.74709311  0.75654522  0.07782823  1
  Bi  Bi3  1  0.24709311  0.24345478  0.42217177  1
  Bi  Bi4  1  0.18193641  0.51365905  0.06515043  1
  Bi  Bi5  1  0.68193641  0.48634095  0.43484957  1
  Bi  Bi6  1  0.81806359  0.48634095  0.93484957  1
  Bi  Bi7  1  0.31806359  0.51365905  0.56515043  1
  Bi  Bi8  1  0.28487289  0.78256411  0.28109539  1
  Bi  Bi9  1  0.78487289  0.21743589  0.21890461  1
  Bi  Bi10  1  0.71512711  0.21743589  0.71890461  1
  Bi  Bi11  1  0.21512711  0.78256411  0.78109539  1
loop_
_geom_bond_atom_site_label_1
_geom_bond_atom_site_label_2
_geom_bond_distance
_geom_bond_site_symmetry_2
Rb0 Rb10 4.047011 1_455
Rb0 Rb11 4.047305 1_545
Rb0 Rb18 4.132926 1_555
Rb0 Rb15 4.234888 1_445
Rb0 Rb19 4.303421 1_555
Rb0 Rb14 4.342306 1_555
Rb0 Rb6 4.498439 1_455
Rb1 Rb11 4.047011 1_555
Rb1 Rb10 4.047305 1_565
Rb1 Rb19 4.132926 1_555
Rb1 Rb14 4.234888 1_565
Rb1 Rb18 4.303421 1_655
Rb1 Rb15 4.342306 1_555
Rb1 Rb7 4.498439 1_555
Rb2 Rb8 4.047011 1_655
Rb2 Rb9 4.047305 1_565
Rb2 Rb4 4.498439 1_655
Rb3 Rb9 4.047011 1_555
Rb3 Rb8 4.047305 1_545
Rb3 Rb5 4.498439 1_555
Rb4 Rb9 4.105950 1_565
Rb4 Rb6 4.467485 1_465
Rb5 Rb8 4.105950 1_645
Rb5 Rb7 4.467485 1_546
Rb6 Rb9 4.360800 1_555
Rb7 Rb8 4.360800 1_554
Rb10 Rb7 4.105950 1_645
Rb10 Rb5 4.360800 1_554
Rb10 Rb8 4.808847 1_644
Rb10 Rb18 4.839589 1_645
Rb10 Rb14 4.881255 1_655
Rb10 Rb14 5.011968 1_555
Rb11 Rb6 4.105950 1_565
Rb11 Rb4 4.360800 1_555
Rb11 Rb9 4.808847 1_565
Rb11 Rb19 4.839589 1_565
Rb11 Rb15 4.881255 1_555
Rb11 Rb15 5.011968 1_455
Rb12 Rb7 4.098716 1_556
Rb12 Rb14 4.145006 1_556
Rb12 Rb3 4.234888 1_565
Rb12 Rb2 4.342306 1_555
Rb12 Rb5 4.517489 1_565
Rb12 Rb17 4.629272 1_555
Rb12 Rb8 4.881255 1_655
Rb12 Rb8 5.011968 1_555
Rb13 Rb6 4.098716 1_455
Rb13 Rb15 4.145006 1_455
Rb13 Rb2 4.234888 1_445
Rb13 Rb3 4.342306 1_555
Rb13 Rb4 4.517489 1_545
Rb13 Rb16 4.629272 1_455
Rb13 Rb9 4.881255 1_555
Rb13 Rb9 5.011968 1_455
Rb14 Rb5 4.098716 1_554
Rb14 Rb7 4.517489 1_545
Rb14 Rb19 4.629272 1_555
Rb15 Rb4 4.098716 1_655
Rb15 Rb6 4.517489 1_565
Rb15 Rb18 4.629272 1_655
Rb16 Rb4 3.954822 1_655
Rb16 Rb2 4.132926 1_555
Rb16 Rb3 4.303421 1_655
Rb16 Rb5 4.424803 1_555
Rb16 Rb17 4.753139 1_655
Rb16 Rb17 4.753139 1_555
Rb16 Rb8 4.839589 1_645
Rb17 Rb5 3.954822 1_555
Rb17 Rb3 4.132926 1_555
Rb17 Rb2 4.303421 1_555
Rb17 Rb4 4.424803 1_555
Rb17 Rb9 4.839589 1_565
Rb18 Rb6 3.954822 1_455
Rb18 Rb7 4.424803 1_555
Rb18 Rb19 4.753139 1_455
Rb18 Rb19 4.753139 1_555
Rb19 Rb7 3.954822 1_555
Rb19 Rb6 4.424803 1_555
Hf0 Rb19 3.948063 1_555
Hf0 Rb9 4.070230 1_555
Hf0 Rb11 4.150898 1_555
Hf1 Rb18 3.948063 1_655
Hf1 Rb8 4.070230 1_654
Hf1 Rb10 4.150898 1_555
Hf2 Rb17 3.948063 1_555
Hf2 Rb11 4.070230 1_555
Hf2 Rb9 4.150898 1_555
Hf3 Rb16 3.948063 1_455
Hf3 Rb10 4.070230 1_456
Hf3 Rb8 4.150898 1_555
Bi0 Hf3 2.873500 1_555
Bi0 Rb10 3.763743 1_456
Bi0 Rb7 3.765250 1_546
Bi0 Rb3 3.782076 1_555
Bi0 Rb17 3.838801 1_555
Bi0 Rb14 3.847219 1_556
Bi0 Rb16 3.933013 1_455
Bi0 Rb5 3.962333 1_555
Bi0 Rb8 4.218988 1_545
Bi1 Hf2 2.873500 1_555
Bi1 Rb11 3.763743 1_555
Bi1 Rb6 3.765250 1_565
Bi1 Rb2 3.782076 1_555
Bi1 Rb16 3.838801 1_555
Bi1 Rb15 3.847219 1_555
Bi1 Rb17 3.933013 1_555
Bi1 Rb4 3.962333 1_655
Bi1 Rb9 4.218988 1_565
Bi2 Hf1 2.873500 1_555
Bi2 Rb8 3.763743 1_654
Bi2 Rb5 3.765250 1_564
Bi2 Rb1 3.782076 1_555
Bi2 Rb19 3.838801 1_555
Bi2 Rb12 3.847219 1_554
Bi2 Rb18 3.933013 1_655
Bi2 Rb7 3.962333 1_555
Bi2 Rb10 4.218988 1_565
Bi3 Hf0 2.873500 1_555
Bi3 Rb9 3.763743 1_555
Bi3 Rb4 3.765250 1_545
Bi3 Rb0 3.782076 1_555
Bi3 Rb18 3.838801 1_555
Bi3 Rb13 3.847219 1_555
Bi3 Rb19 3.933013 1_555
Bi3 Rb6 3.962333 1_455
Bi3 Rb11 4.218988 1_545
Bi4 Hf1 2.932025 1_455
Bi4 Hf3 2.935166 1_554
Bi4 Rb0 3.732044 1_555
Bi4 Rb14 3.732474 1_555
Bi4 Rb7 3.740897 1_555
Bi4 Rb12 3.991325 1_554
Bi4 Rb8 4.004349 1_554
Bi4 Rb18 4.199163 1_555
Bi4 Rb10 4.408803 1_455
Bi5 Hf0 2.932025 1_555
Bi5 Hf2 2.935166 1_555
Bi5 Rb1 3.732044 1_555
Bi5 Rb15 3.732474 1_555
Bi5 Rb6 3.740897 1_555
Bi5 Rb13 3.991325 1_655
Bi5 Rb9 4.004349 1_555
Bi5 Rb19 4.199163 1_555
Bi5 Rb11 4.408803 1_555
Bi6 Hf3 2.932025 1_655
Bi6 Hf1 2.935166 1_556
Bi6 Rb2 3.732044 1_555
Bi6 Rb12 3.732474 1_555
Bi6 Rb5 3.740897 1_555
Bi6 Rb14 3.991325 1_556
Bi6 Rb10 4.004349 1_556
Bi6 Rb16 4.199163 1_555
Bi6 Rb8 4.408803 1_655
Bi7 Hf2 2.932025 1_555
Bi7 Hf0 2.935166 1_555
Bi7 Rb3 3.732044 1_555
Bi7 Rb13 3.732474 1_555
Bi7 Rb4 3.740897 1_555
Bi7 Rb15 3.991325 1_455
Bi7 Rb11 4.004349 1_555
Bi7 Rb17 4.199163 1_555
Bi7 Rb9 4.408803 1_555
Bi8 Hf0 2.875657 1_555
Bi8 Rb1 3.708639 1_555
Bi8 Rb7 3.727284 1_555
Bi8 Rb0 3.734796 1_565
Bi8 Rb18 3.742968 1_555
Bi8 Rb15 3.793616 1_455
Bi8 Rb11 3.875577 1_555
Bi8 Rb19 4.244956 1_555
Bi8 Rb10 4.379684 1_465
Bi9 Hf1 2.875657 1_555
Bi9 Rb0 3.708639 1_655
Bi9 Rb6 3.727284 1_555
Bi9 Rb1 3.734796 1_545
Bi9 Rb19 3.742968 1_555
Bi9 Rb14 3.793616 1_555
Bi9 Rb10 3.875577 1_555
Bi9 Rb18 4.244956 1_655
Bi9 Rb11 4.379684 1_545
Bi10 Hf2 2.875657 1_555
Bi10 Rb3 3.708639 1_555
Bi10 Rb5 3.727284 1_555
Bi10 Rb2 3.734796 1_545
Bi10 Rb16 3.742968 1_555
Bi10 Rb13 3.793616 1_655
Bi10 Rb9 3.875577 1_555
Bi10 Rb17 4.244956 1_555
Bi10 Rb8 4.379684 1_645
Bi11 Hf3 2.875657 1_555
Bi11 Rb2 3.708639 1_455
Bi11 Rb4 3.727284 1_555
Bi11 Rb3 3.734796 1_565
Bi11 Rb17 3.742968 1_555
Bi11 Rb12 3.793616 1_555
Bi11 Rb8 3.875577 1_555
Bi11 Rb16 4.244956 1_455
Bi11 Rb9 4.379684 1_565
