# generated using pymatgen
data_Sc12Zn11SiC4
_symmetry_space_group_name_H-M   'P 1'
_cell_length_a   8.57917107
_cell_length_b   8.57917113
_cell_length_c   8.57821906
_cell_angle_alpha   59.99633459
_cell_angle_beta   59.99633684
_cell_angle_gamma   59.99999685
_symmetry_Int_Tables_number   1
_chemical_formula_structural   Sc12Zn11SiC4
_chemical_formula_sum   'Sc12 Zn11 Si1 C4'
_cell_volume   446.42522586
_cell_formula_units_Z   1
loop_
 _symmetry_equiv_pos_site_id
 _symmetry_equiv_pos_as_xyz
  1  'x, y, z'
loop_
 _atom_site_type_symbol
 _atom_site_label
 _atom_site_symmetry_multiplicity
 _atom_site_fract_x
 _atom_site_fract_y
 _atom_site_fract_z
 _atom_site_occupancy
  Sc  Sc0  1  0.44490498  0.44490498  0.05488426  1
  Sc  Sc1  1  0.05530677  0.44490498  0.05488426  1
  Sc  Sc2  1  0.44490498  0.05530677  0.05488426  1
  Sc  Sc3  1  0.05562292  0.05562292  0.44501765  1
  Sc  Sc4  1  0.44373551  0.05562292  0.44501765  1
  Sc  Sc5  1  0.05562292  0.44373551  0.44501765  1
  Sc  Sc6  1  0.80701623  0.80701623  0.19555960  1
  Sc  Sc7  1  0.19040693  0.80701623  0.19555960  1
  Sc  Sc8  1  0.80701623  0.19040693  0.19555960  1
  Sc  Sc9  1  0.19268332  0.19268332  0.80743728  1
  Sc  Sc10  1  0.80719509  0.19268332  0.80743728  1
  Sc  Sc11  1  0.19268332  0.80719509  0.80743728  1
  Zn  Zn0  1  0.82898998  0.51258761  0.82943243  1
  Zn  Zn1  1  0.51258761  0.82898998  0.82943243  1
  Zn  Zn2  1  0.82898998  0.82898998  0.82943243  1
  Zn  Zn3  1  0.42163649  0.42163649  0.73509054  1
  Zn  Zn4  1  0.42182610  0.73615372  0.42019507  1
  Zn  Zn5  1  0.73615372  0.42182610  0.42019507  1
  Zn  Zn6  1  0.42182610  0.42182610  0.42019507  1
  Zn  Zn7  1  0.62527265  0.62527265  0.12418104  1
  Zn  Zn8  1  0.62516250  0.12494439  0.62472961  1
  Zn  Zn9  1  0.12494439  0.62516250  0.62472961  1
  Zn  Zn10  1  0.62516250  0.62516250  0.62472961  1
  Si  Si0  1  0.82945184  0.82945184  0.51164447  1
  C  C0  1  0.12656839  0.12656839  0.62029382  1
  C  C1  1  0.12643634  0.62145284  0.12567347  1
  C  C2  1  0.62145284  0.12643634  0.12567347  1
  C  C3  1  0.12643634  0.12643634  0.12567347  1
loop_
_geom_bond_atom_site_label_1
_geom_bond_atom_site_label_2
_geom_bond_distance
_geom_bond_site_symmetry_2
Sc0 Zn6 2.949019 1_555
Sc0 Zn3 2.956416 1_554
Sc0 Zn1 3.058129 1_554
Sc0 Zn0 3.058129 1_554
Sc0 Zn10 3.062092 1_554
Sc0 Zn7 3.062130 1_555
Sc1 Zn5 2.949019 1_455
Sc1 Zn3 2.956411 1_554
Sc1 Zn2 3.058132 1_454
Sc1 Zn0 3.058136 1_454
Sc1 Zn9 3.062095 1_554
Sc1 Zn7 3.062145 1_455
Sc2 Zn4 2.949019 1_545
Sc2 Zn3 2.956411 1_554
Sc2 Zn2 3.058132 1_544
Sc2 Zn1 3.058136 1_544
Sc2 Zn8 3.062095 1_554
Sc2 Zn7 3.062145 1_545
Sc3 Zn5 2.954907 1_455
Sc3 Zn4 2.954907 1_545
Sc3 Zn2 3.064426 1_445
Sc3 Zn9 3.065175 1_545
Sc3 Zn8 3.065175 1_455
Sc3 Si0 3.066500 1_445
Sc4 Zn4 2.954897 1_545
Sc4 Zn6 2.954914 1_555
Sc4 Zn1 3.064429 1_545
Sc4 Zn8 3.065175 1_555
Sc4 Zn10 3.065175 1_545
Sc4 Si0 3.066507 1_545
Sc5 Zn5 2.954897 1_455
Sc5 Zn6 2.954914 1_555
Sc5 Zn0 3.064429 1_455
Sc5 Zn9 3.065175 1_555
Sc5 Zn10 3.065175 1_455
Sc5 Si0 3.066507 1_455
Sc6 Si0 2.916674 1_555
Sc6 Zn2 2.964194 1_554
Sc6 Zn10 3.060565 1_555
Sc6 Zn5 3.077673 1_555
Sc6 Zn4 3.077673 1_555
Sc6 Zn7 3.094824 1_555
Sc7 Si0 2.916670 1_455
Sc7 Zn1 2.964198 1_554
Sc7 Zn9 3.060565 1_555
Sc7 Zn6 3.077680 1_555
Sc7 Zn4 3.077687 1_555
Sc7 Zn7 3.094824 1_555
Sc8 Si0 2.916669 1_545
Sc8 Zn0 2.964198 1_554
Sc8 Zn8 3.060565 1_555
Sc8 Zn6 3.077680 1_555
Sc8 Zn5 3.077687 1_555
Sc8 Zn7 3.094824 1_555
Sc9 Zn1 2.944357 1_545
Sc9 Zn0 2.944357 1_455
Sc9 Zn9 3.082120 1_555
Sc9 Zn8 3.082120 1_555
Sc9 Zn3 3.085683 1_555
Sc9 Zn6 3.092967 1_555
Sc10 Zn2 2.944353 1_545
Sc10 Zn0 2.944362 1_555
Sc10 Zn8 3.082120 1_555
Sc10 Zn10 3.082120 1_555
Sc10 Zn3 3.085675 1_555
Sc10 Zn5 3.092959 1_555
Sc11 Zn2 2.944353 1_455
Sc11 Zn1 2.944362 1_555
Sc11 Zn9 3.082120 1_555
Sc11 Zn10 3.082120 1_555
Sc11 Zn3 3.085675 1_555
Sc11 Zn4 3.092959 1_555
Zn0 Zn7 2.591827 1_556
Zn0 Zn9 2.600013 1_655
Zn0 Zn10 2.600020 1_555
Zn0 Zn1 2.714470 1_555
Zn0 Zn2 2.714470 1_555
Zn1 Zn7 2.591827 1_556
Zn1 Zn8 2.600013 1_565
Zn1 Zn10 2.600020 1_555
Zn1 Zn2 2.714470 1_555
Zn2 Zn7 2.591832 1_556
Zn2 Zn8 2.600017 1_565
Zn2 Zn9 2.600017 1_655
Zn3 Zn9 2.595440 1_555
Zn3 Zn8 2.595440 1_555
Zn3 Zn6 2.699616 1_555
Zn3 Zn4 2.699621 1_555
Zn3 Zn5 2.699621 1_555
Zn4 Zn7 2.592712 1_555
Zn4 Zn9 2.599504 1_555
Zn4 Zn5 2.696670 1_555
Zn4 Zn6 2.696670 1_555
Zn5 Zn7 2.592712 1_555
Zn5 Zn8 2.599504 1_555
Zn5 Zn6 2.696670 1_555
Zn6 Zn7 2.592703 1_555
Zn6 Zn8 2.599495 1_555
Zn6 Zn9 2.599495 1_555
Zn10 Zn3 2.595433 1_555
Zn10 Zn4 2.599490 1_555
Zn10 Zn5 2.599490 1_555
Si0 Zn9 2.599123 1_655
Si0 Zn8 2.599123 1_565
Si0 Zn10 2.599130 1_555
Si0 Zn2 2.722098 1_555
Si0 Zn0 2.722098 1_555
Si0 Zn1 2.722098 1_555
C0 Sc3 2.280911 1_555
C0 Sc5 2.280911 1_555
C0 Sc4 2.280911 1_555
C0 Sc9 2.315969 1_555
C0 Sc11 2.315970 1_545
C0 Sc10 2.315970 1_455
C1 Sc1 2.291285 1_555
C1 Sc0 2.291297 1_555
C1 Sc5 2.298417 1_555
C1 Sc11 2.306081 1_554
C1 Sc6 2.313492 1_455
C1 Sc7 2.313492 1_555
C2 Sc2 2.291285 1_555
C2 Sc0 2.291297 1_555
C2 Sc4 2.298417 1_555
C2 Sc10 2.306081 1_554
C2 Sc6 2.313492 1_545
C2 Sc8 2.313492 1_555
C3 Sc1 2.291301 1_555
C3 Sc2 2.291301 1_555
C3 Sc3 2.298417 1_555
C3 Sc9 2.306081 1_554
C3 Sc7 2.313492 1_545
C3 Sc8 2.313492 1_455
