# generated using pymatgen
data_Cs2NaMnO4
_symmetry_space_group_name_H-M   'P 1'
_cell_length_a   6.13663467
_cell_length_b   6.02067387
_cell_length_c   8.25720420
_cell_angle_alpha   87.05911646
_cell_angle_beta   90.00000000
_cell_angle_gamma   90.00000000
_symmetry_Int_Tables_number   1
_chemical_formula_structural   Cs2NaMnO4
_chemical_formula_sum   'Cs4 Na2 Mn2 O8'
_cell_volume   304.67446334
_cell_formula_units_Z   2
loop_
 _symmetry_equiv_pos_site_id
 _symmetry_equiv_pos_as_xyz
  1  'x, y, z'
loop_
 _atom_site_type_symbol
 _atom_site_label
 _atom_site_symmetry_multiplicity
 _atom_site_fract_x
 _atom_site_fract_y
 _atom_site_fract_z
 _atom_site_occupancy
  Cs  Cs0  1  0.25000000  0.14944644  0.81855315  1
  Cs  Cs1  1  0.75000000  0.85055356  0.18144685  1
  Cs  Cs2  1  0.25000000  0.69763443  0.51141388  1
  Cs  Cs3  1  0.75000000  0.30236557  0.48858612  1
  Na  Na0  1  0.75000000  0.37452345  0.97318743  1
  Na  Na1  1  0.25000000  0.62547655  0.02681257  1
  Mn  Mn0  1  0.25000000  0.20385266  0.24063702  1
  Mn  Mn1  1  0.75000000  0.79614734  0.75936298  1
  O  O0  1  0.97265279  0.65660058  0.83485463  1
  O  O1  1  0.47265279  0.34339942  0.16514537  1
  O  O2  1  0.02734721  0.34339942  0.16514537  1
  O  O3  1  0.52734721  0.65660058  0.83485463  1
  O  O4  1  0.75000000  0.06018630  0.82341512  1
  O  O5  1  0.75000000  0.80164936  0.55463389  1
  O  O6  1  0.25000000  0.93981370  0.17658488  1
  O  O7  1  0.25000000  0.19835064  0.44536611  1
loop_
_geom_bond_atom_site_label_1
_geom_bond_atom_site_label_2
_geom_bond_distance
_geom_bond_site_symmetry_2
Cs0 O7 3.080442 1_555
Cs0 O4 3.114928 1_555
Cs0 O4 3.114928 1_455
Cs0 O6 3.154371 1_546
Cs1 O5 3.080442 1_555
Cs1 O6 3.114928 1_555
Cs1 O6 3.114928 1_655
Cs1 O4 3.154371 1_564
Cs2 O7 3.035924 1_565
Cs2 O6 3.058791 1_555
Cs2 O7 3.082505 1_555
Cs2 O5 3.155478 1_555
Cs2 O5 3.155478 1_455
Cs2 O3 3.165879 1_555
Cs2 O0 3.165879 1_455
Cs3 O5 3.035924 1_545
Cs3 O4 3.058791 1_555
Cs3 O5 3.082505 1_555
Cs3 O7 3.155478 1_555
Cs3 O7 3.155478 1_655
Cs3 O2 3.165879 1_655
Cs3 O1 3.165879 1_555
Na0 O4 2.313272 1_555
Na0 O2 2.326737 1_656
Na0 O1 2.326737 1_556
Na0 O0 2.420073 1_555
Na0 O3 2.420073 1_555
Na1 O6 2.313272 1_555
Na1 O3 2.326737 1_554
Na1 O0 2.326737 1_454
Na1 O1 2.420073 1_555
Na1 O2 2.420073 1_555
Mn0 O7 1.689114 1_555
Mn0 O6 1.700918 1_545
Mn0 O1 1.705164 1_555
Mn0 O2 1.705164 1_555
Mn1 O5 1.689114 1_555
Mn1 O4 1.700918 1_565
Mn1 O0 1.705164 1_555
Mn1 O3 1.705164 1_555
