# generated using pymatgen
data_YPSe
_symmetry_space_group_name_H-M   'P 1'
_cell_length_a   5.46510051
_cell_length_b   5.51911186
_cell_length_c   17.24923122
_cell_angle_alpha   90.00000000
_cell_angle_beta   90.00000000
_cell_angle_gamma   90.00000000
_symmetry_Int_Tables_number   1
_chemical_formula_structural   YPSe
_chemical_formula_sum   'Y8 P8 Se8'
_cell_volume   520.27995475
_cell_formula_units_Z   8
loop_
 _symmetry_equiv_pos_site_id
 _symmetry_equiv_pos_as_xyz
  1  'x, y, z'
loop_
 _atom_site_type_symbol
 _atom_site_label
 _atom_site_symmetry_multiplicity
 _atom_site_fract_x
 _atom_site_fract_y
 _atom_site_fract_z
 _atom_site_occupancy
  Y  Y0  1  0.75000000  0.01480741  0.35859135  1
  Y  Y1  1  0.25000000  0.48519259  0.85859135  1
  Y  Y2  1  0.75000000  0.51480741  0.14140865  1
  Y  Y3  1  0.25000000  0.98519259  0.64140865  1
  Y  Y4  1  0.75000000  0.48243350  0.63148817  1
  Y  Y5  1  0.25000000  0.01756650  0.13148817  1
  Y  Y6  1  0.75000000  0.98243350  0.86851183  1
  Y  Y7  1  0.25000000  0.51756650  0.36851183  1
  P  P0  1  0.54334229  0.30175342  0.00317880  1
  P  P1  1  0.45665771  0.19824658  0.50317880  1
  P  P2  1  0.95665771  0.80175342  0.49682120  1
  P  P3  1  0.04334229  0.69824658  0.99682120  1
  P  P4  1  0.45665771  0.69824658  0.99682120  1
  P  P5  1  0.54334229  0.80175342  0.49682120  1
  P  P6  1  0.04334229  0.19824658  0.50317880  1
  P  P7  1  0.95665771  0.30175342  0.00317880  1
  Se  Se0  1  0.75000000  0.01205737  0.18378271  1
  Se  Se1  1  0.25000000  0.48794263  0.68378271  1
  Se  Se2  1  0.75000000  0.51205737  0.31621729  1
  Se  Se3  1  0.25000000  0.98794263  0.81621729  1
  Se  Se4  1  0.75000000  0.48370656  0.81078974  1
  Se  Se5  1  0.25000000  0.01629344  0.31078974  1
  Se  Se6  1  0.75000000  0.98370656  0.68921026  1
  Se  Se7  1  0.25000000  0.51629344  0.18921026  1
loop_
_geom_bond_atom_site_label_1
_geom_bond_atom_site_label_2
_geom_bond_distance
_geom_bond_site_symmetry_2
P0 P4 2.241667 1_554
P0 P7 2.258810 1_555
P0 Y2 2.888493 1_555
P0 Y6 3.126875 1_544
P0 Y1 3.132925 1_554
P0 Y5 3.150962 1_555
P1 P5 2.241667 1_545
P1 P6 2.258810 1_555
P1 Y3 2.888493 1_545
P1 Y7 3.126875 1_555
P1 Y0 3.132925 1_555
P1 Y4 3.150962 1_555
P2 P6 2.241667 1_665
P2 P5 2.258810 1_555
P2 Y0 2.888493 1_565
P2 Y4 3.126875 1_555
P2 Y3 3.132925 1_655
P2 Y7 3.150962 1_655
P3 P7 2.241667 1_456
P3 P4 2.258810 1_555
P3 Y1 2.888493 1_555
P3 Y5 3.126875 1_566
P3 Y2 3.132925 1_456
P3 Y6 3.150962 1_455
P4 Y1 2.888493 1_555
P4 Y5 3.126875 1_566
P4 Y2 3.132925 1_556
P4 Y6 3.150962 1_555
P5 Y0 2.888493 1_565
P5 Y4 3.126875 1_555
P5 Y3 3.132925 1_555
P5 Y7 3.150962 1_555
P6 Y3 2.888493 1_545
P6 Y7 3.126875 1_555
P6 Y0 3.132925 1_455
P6 Y4 3.150962 1_455
P7 Y2 2.888493 1_555
P7 Y6 3.126875 1_544
P7 Y1 3.132925 1_654
P7 Y5 3.150962 1_655
Se0 Y2 2.840045 1_545
Se0 Y2 2.869389 1_555
Se0 Y5 2.877748 1_655
Se0 Y5 2.877748 1_555
Se0 Y0 3.015353 1_555
Se1 Y3 2.840045 1_555
Se1 Y3 2.869389 1_545
Se1 Y4 2.877748 1_555
Se1 Y4 2.877748 1_455
Se1 Y1 3.015353 1_555
Se2 Y0 2.840045 1_555
Se2 Y0 2.869389 1_565
Se2 Y7 2.877748 1_555
Se2 Y7 2.877748 1_655
Se2 Y2 3.015353 1_555
Se3 Y1 2.840045 1_565
Se3 Y1 2.869389 1_555
Se3 Y6 2.877748 1_455
Se3 Y6 2.877748 1_555
Se3 Y3 3.015353 1_555
Se4 Y1 2.854254 1_555
Se4 Y1 2.854254 1_655
Se4 Y6 2.927074 1_555
Se4 Y6 2.940292 1_545
Se4 Y4 3.092822 1_555
Se5 Y0 2.854254 1_455
Se5 Y0 2.854254 1_555
Se5 Y7 2.927074 1_545
Se5 Y7 2.940292 1_555
Se5 Y5 3.092822 1_555
Se6 Y3 2.854254 1_655
Se6 Y3 2.854254 1_555
Se6 Y4 2.927074 1_565
Se6 Y4 2.940292 1_555
Se6 Y6 3.092822 1_555
Se7 Y2 2.854254 1_455
Se7 Y2 2.854254 1_555
Se7 Y5 2.927074 1_555
Se7 Y5 2.940292 1_565
Se7 Y7 3.092822 1_555
