# generated using pymatgen
data_Lu12Co4CuBi
_symmetry_space_group_name_H-M   'P 1'
_cell_length_a   8.10640861
_cell_length_b   8.10640848
_cell_length_c   8.10640809
_cell_angle_alpha   110.24227009
_cell_angle_beta   110.99418415
_cell_angle_gamma   107.20169547
_symmetry_Int_Tables_number   1
_chemical_formula_structural   Lu12Co4CuBi
_chemical_formula_sum   'Lu12 Co4 Cu1 Bi1'
_cell_volume   409.57667043
_cell_formula_units_Z   1
loop_
 _symmetry_equiv_pos_site_id
 _symmetry_equiv_pos_as_xyz
  1  'x, y, z'
loop_
 _atom_site_type_symbol
 _atom_site_label
 _atom_site_symmetry_multiplicity
 _atom_site_fract_x
 _atom_site_fract_y
 _atom_site_fract_z
 _atom_site_occupancy
  Lu  Lu0  1  0.28713596  0.18237919  0.46951515  1
  Lu  Lu1  1  0.71286404  0.81762081  0.53048485  1
  Lu  Lu2  1  0.28713596  0.81762081  0.10475577  1
  Lu  Lu3  1  0.71286404  0.18237919  0.89524423  1
  Lu  Lu4  1  0.61831395  0.31228428  0.30602967  1
  Lu  Lu5  1  0.38168605  0.68771572  0.69397033  1
  Lu  Lu6  1  0.00625361  0.31228428  0.69397033  1
  Lu  Lu7  1  0.99374639  0.68771572  0.30602967  1
  Lu  Lu8  1  0.21253252  0.41667086  0.20413934  1
  Lu  Lu9  1  0.78746748  0.58332914  0.79586066  1
  Lu  Lu10  1  0.21253252  0.00839319  0.79586066  1
  Lu  Lu11  1  0.78746748  0.99160681  0.20413934  1
  Co  Co0  1  0.00000000  0.38024812  0.38024812  1
  Co  Co1  1  1.00000000  0.61975188  0.61975188  1
  Co  Co2  1  0.38797800  0.88797800  0.50000000  1
  Co  Co3  1  0.61202200  0.11202200  0.50000000  1
  Cu  Cu0  1  0.00000000  0.00000000  0.00000000  1
  Bi  Bi0  1  0.50000000  0.50000000  0.00000000  1
loop_
_geom_bond_atom_site_label_1
_geom_bond_atom_site_label_2
_geom_bond_distance
_geom_bond_site_symmetry_2
Co0 Co1 2.220485 1_455
Co0 Lu8 2.616632 1_555
Co0 Lu11 2.616632 1_445
Co0 Lu7 2.769016 1_455
Co0 Lu5 2.769018 1_555
Co0 Lu4 2.769018 1_455
Co0 Lu6 2.769020 1_555
Co0 Lu3 3.212307 1_454
Co0 Lu0 3.212314 1_555
Co1 Lu9 2.616632 1_555
Co1 Lu10 2.616632 1_665
Co1 Lu6 2.769016 1_655
Co1 Lu4 2.769018 1_555
Co1 Lu5 2.769018 1_655
Co1 Lu7 2.769020 1_555
Co1 Lu2 3.212307 1_656
Co1 Lu1 3.212314 1_555
Co2 Co3 2.155482 1_565
Co2 Lu7 2.623995 1_455
Co2 Lu5 2.624001 1_555
Co2 Lu0 2.800383 1_565
Co2 Lu1 2.800383 1_555
Co2 Lu3 2.800387 1_565
Co2 Lu2 2.800391 1_555
Co2 Lu10 3.220720 1_565
Co2 Lu8 3.220726 1_555
Co3 Lu6 2.623995 1_655
Co3 Lu4 2.624001 1_555
Co3 Lu1 2.800383 1_545
Co3 Lu0 2.800383 1_555
Co3 Lu2 2.800387 1_545
Co3 Lu3 2.800391 1_555
Co3 Lu11 3.220720 1_545
Co3 Lu9 3.220726 1_555
Cu0 Lu9 2.786195 1_444
Cu0 Lu8 2.786195 1_555
Cu0 Lu11 2.786202 1_445
Cu0 Lu10 2.786202 1_554
Cu0 Lu3 3.132520 1_454
Cu0 Lu2 3.132520 1_545
Cu0 Lu0 3.132521 1_555
Cu0 Lu1 3.132521 1_444
Bi0 Lu5 3.340719 1_554
Bi0 Lu4 3.340719 1_555
Bi0 Lu7 3.340725 1_555
Bi0 Lu6 3.340725 1_554
Bi0 Lu10 3.351254 1_554
Bi0 Lu11 3.351254 1_555
Bi0 Lu8 3.351255 1_555
Bi0 Lu9 3.351255 1_554
Bi0 Lu2 3.534537 1_555
Bi0 Lu3 3.534537 1_554
Bi0 Lu1 3.534539 1_555
Bi0 Lu0 3.534539 1_554
