# generated using pymatgen
data_CrReO4
_symmetry_space_group_name_H-M   'P 1'
_cell_length_a   5.77836543
_cell_length_b   7.40704202
_cell_length_c   7.16134766
_cell_angle_alpha   99.52504007
_cell_angle_beta   66.21128660
_cell_angle_gamma   112.97191092
_symmetry_Int_Tables_number   1
_chemical_formula_structural   CrReO4
_chemical_formula_sum   'Cr4 Re4 O16'
_cell_volume   258.21460067
_cell_formula_units_Z   4
loop_
 _symmetry_equiv_pos_site_id
 _symmetry_equiv_pos_as_xyz
  1  'x, y, z'
loop_
 _atom_site_type_symbol
 _atom_site_label
 _atom_site_symmetry_multiplicity
 _atom_site_fract_x
 _atom_site_fract_y
 _atom_site_fract_z
 _atom_site_occupancy
  Cr  Cr0  1  0.75362300  0.01701600  0.50975300  1
  Cr  Cr1  1  0.24637200  0.98297700  0.49024600  1
  Cr  Cr2  1  0.25363000  0.51702300  0.00975600  1
  Cr  Cr3  1  0.74636700  0.48297900  0.99024400  1
  Re  Re0  1  0.72177200  0.49996300  0.50001700  1
  Re  Re1  1  0.22174500  0.99996000  0.00002200  1
  Re  Re2  1  0.27823700  0.50003700  0.49997800  1
  Re  Re3  1  0.77821900  0.00004000  0.99998000  1
  O  O0  1  0.09163500  0.68309700  0.49967800  1
  O  O1  1  0.59165100  0.18309900  0.99968300  1
  O  O2  1  0.40832800  0.81690300  0.00031800  1
  O  O3  1  0.90831100  0.31690300  0.50032000  1
  O  O4  1  0.39341000  0.27701400  0.49040800  1
  O  O5  1  0.89336900  0.77701800  0.99041500  1
  O  O6  1  0.10664400  0.22298200  0.00958800  1
  O  O7  1  0.60668800  0.72298500  0.50958900  1
  O  O8  1  0.61268400  0.99646900  0.29405700  1
  O  O9  1  0.11267000  0.49646500  0.79407800  1
  O  O10  1  0.41027800  0.50354800  0.20593500  1
  O  O11  1  0.91026200  0.00354400  0.70595000  1
  O  O12  1  0.88730600  0.50353700  0.20596800  1
  O  O13  1  0.38731400  0.00354100  0.70595100  1
  O  O14  1  0.08973500  0.99644800  0.29404100  1
  O  O15  1  0.58974700  0.49645200  0.79402400  1
loop_
_geom_bond_atom_site_label_1
_geom_bond_atom_site_label_2
_geom_bond_distance
_geom_bond_site_symmetry_2
Cr0 O8 1.978060 1_545
Cr0 O14 1.978461 1_645
Cr0 O11 1.986493 1_555
Cr0 O13 1.986624 1_555
Cr0 O7 2.005175 1_545
Cr0 O3 2.046645 1_555
Cr1 O13 1.978105 1_565
Cr1 O11 1.978430 1_465
Cr1 O14 1.986534 1_555
Cr1 O8 1.986587 1_555
Cr1 O4 2.005215 1_565
Cr1 O0 2.046597 1_555
Cr2 O9 1.978007 1_554
Cr2 O15 1.978542 1_554
Cr2 O10 1.986425 1_555
Cr2 O12 1.986698 1_455
Cr2 O6 2.005242 1_555
Cr2 O2 2.046598 1_555
Cr3 O12 1.978230 1_556
Cr3 O10 1.978315 1_556
Cr3 O9 1.986511 1_655
Cr3 O15 1.986561 1_555
Cr3 O5 2.005229 1_555
Cr3 O1 2.046599 1_555
O0 Re0 2.035114 1_455
O0 Re2 2.035985 1_555
O1 Re1 2.035320 1_546
O1 Re3 2.035816 1_555
O2 Re3 2.035250 1_564
O2 Re1 2.035870 1_555
O3 Re2 2.035395 1_655
O3 Re0 2.035704 1_555
O4 Re0 1.988442 1_555
O4 Re2 1.990071 1_555
O5 Re1 1.988467 1_656
O5 Re3 1.989987 1_565
O6 Re3 1.988651 1_454
O6 Re1 1.989803 1_545
O7 Re2 1.988774 1_555
O7 Re0 1.989729 1_555
O8 Re3 1.929873 1_564
O9 Re2 1.930029 1_555
O10 Re2 1.929633 1_555
O11 Re3 1.929543 1_555
O12 Re0 1.929693 1_555
O13 Re1 1.929844 1_546
O14 Re1 1.929482 1_555
O15 Re0 1.929397 1_555
