# generated using pymatgen
data_EuPO4
_symmetry_space_group_name_H-M   'P 1'
_cell_length_a   6.91908224
_cell_length_b   6.38567092
_cell_length_c   8.07327725
_cell_angle_alpha   53.53341808
_cell_angle_beta   90.00117132
_cell_angle_gamma   90.00057124
_symmetry_Int_Tables_number   1
_chemical_formula_structural   EuPO4
_chemical_formula_sum   'Eu4 P4 O16'
_cell_volume   286.86062317
_cell_formula_units_Z   4
loop_
 _symmetry_equiv_pos_site_id
 _symmetry_equiv_pos_as_xyz
  1  'x, y, z'
loop_
 _atom_site_type_symbol
 _atom_site_label
 _atom_site_symmetry_multiplicity
 _atom_site_fract_x
 _atom_site_fract_y
 _atom_site_fract_z
 _atom_site_occupancy
  Eu  Eu0  1  0.65829749  0.18270615  0.22223987  1
  Eu  Eu1  1  0.15832684  0.81731713  0.27774369  1
  Eu  Eu2  1  0.34169786  0.81728960  0.77777078  1
  Eu  Eu3  1  0.84168833  0.18268744  0.72224861  1
  P  P0  1  0.66277780  0.69122481  0.19639554  1
  P  P1  1  0.16280043  0.30875382  0.30359191  1
  P  P2  1  0.33720736  0.30874439  0.80360438  1
  P  P3  1  0.83721319  0.69122657  0.69641744  1
  O  O0  1  0.71245186  0.41134810  0.37754526  1
  O  O1  1  0.21245302  0.58857826  0.12249604  1
  O  O2  1  0.28756242  0.58858581  0.62250903  1
  O  O3  1  0.78754930  0.41138227  0.87754568  1
  O  O4  1  0.60380793  0.66272257  0.02746438  1
  O  O5  1  0.10387743  0.33730055  0.47249454  1
  O  O6  1  0.39613294  0.33727628  0.97250074  1
  O  O7  1  0.89616394  0.66276194  0.52745482  1
  O  O8  1  0.99466954  0.81080120  0.75000972  1
  O  O9  1  0.49460600  0.18920114  0.74998462  1
  O  O10  1  0.00538150  0.18924010  0.24998454  1
  O  O11  1  0.50532906  0.81079062  0.25002759  1
  O  O12  1  0.66469425  0.88095104  0.61686846  1
  O  O13  1  0.16471605  0.11905093  0.88312106  1
  O  O14  1  0.33530963  0.11907563  0.38313534  1
  O  O15  1  0.83528484  0.88097964  0.11684698  1
loop_
_geom_bond_atom_site_label_1
_geom_bond_atom_site_label_2
_geom_bond_distance
_geom_bond_site_symmetry_2
Eu0 O10 2.414584 1_655
Eu0 O3 2.417807 1_554
Eu0 O6 2.442130 1_554
Eu0 O0 2.453612 1_555
Eu0 O11 2.485451 1_545
Eu0 O14 2.493858 1_555
Eu0 O4 2.506167 1_555
Eu0 O12 2.562748 1_545
Eu0 O15 2.807972 1_545
Eu1 O11 2.414003 1_555
Eu1 O2 2.418161 1_555
Eu1 O7 2.442044 1_455
Eu1 O1 2.453748 1_555
Eu1 O10 2.485552 1_565
Eu1 O15 2.494127 1_455
Eu1 O5 2.506146 1_555
Eu1 O13 2.562708 1_564
Eu1 O14 2.808096 1_565
Eu2 O8 2.414193 1_455
Eu2 O1 2.417970 1_556
Eu2 O4 2.441636 1_556
Eu2 O2 2.453642 1_555
Eu2 O9 2.485256 1_565
Eu2 O12 2.493905 1_555
Eu2 O6 2.506130 1_555
Eu2 O14 2.562793 1_565
Eu2 O13 2.807904 1_565
Eu3 O9 2.414565 1_555
Eu3 O0 2.417803 1_555
Eu3 O5 2.442349 1_655
Eu3 O3 2.453853 1_555
Eu3 O8 2.485439 1_545
Eu3 O13 2.493980 1_655
Eu3 O7 2.506453 1_555
Eu3 O15 2.562552 1_546
Eu3 O12 2.807942 1_545
O0 P0 1.531035 1_555
O1 P1 1.530694 1_555
O2 P2 1.530740 1_555
O3 P3 1.530855 1_555
O4 P0 1.534495 1_555
O5 P1 1.534387 1_555
O6 P2 1.534266 1_555
O7 P3 1.534564 1_555
O8 P3 1.532910 1_555
O9 P2 1.532645 1_555
O10 P1 1.532538 1_555
O11 P0 1.533044 1_555
O12 P3 1.542786 1_555
O13 P2 1.542546 1_555
O14 P1 1.542577 1_555
O15 P0 1.542828 1_555
