# generated using pymatgen
data_Hf6Zn15Cu8Si
_symmetry_space_group_name_H-M   'P 1'
_cell_length_a   8.48740200
_cell_length_b   8.48740205
_cell_length_c   8.48740192
_cell_angle_alpha   59.99999673
_cell_angle_beta   59.99999656
_cell_angle_gamma   59.99999570
_symmetry_Int_Tables_number   1
_chemical_formula_structural   Hf6Zn15Cu8Si
_chemical_formula_sum   'Hf6 Zn15 Cu8 Si1'
_cell_volume   432.32393746
_cell_formula_units_Z   1
loop_
 _symmetry_equiv_pos_site_id
 _symmetry_equiv_pos_as_xyz
  1  'x, y, z'
loop_
 _atom_site_type_symbol
 _atom_site_label
 _atom_site_symmetry_multiplicity
 _atom_site_fract_x
 _atom_site_fract_y
 _atom_site_fract_z
 _atom_site_occupancy
  Hf  Hf0  1  0.71688369  0.28311631  0.28311631  1
  Hf  Hf1  1  0.28311631  0.71688369  0.71688369  1
  Hf  Hf2  1  0.28311631  0.71688369  0.28311631  1
  Hf  Hf3  1  0.71688369  0.28311631  0.71688369  1
  Hf  Hf4  1  0.28311631  0.28311631  0.71688369  1
  Hf  Hf5  1  0.71688369  0.71688369  0.28311631  1
  Zn  Zn0  1  0.50000000  0.00000000  0.00000000  1
  Zn  Zn1  1  0.00000000  0.50000000  0.50000000  1
  Zn  Zn2  1  0.00000000  0.50000000  0.00000000  1
  Zn  Zn3  1  0.50000000  0.00000000  0.50000000  1
  Zn  Zn4  1  0.00000000  0.00000000  0.50000000  1
  Zn  Zn5  1  0.50000000  0.50000000  0.00000000  1
  Zn  Zn6  1  0.33126821  0.33126821  0.33126821  1
  Zn  Zn7  1  0.66873179  0.66873179  0.66873179  1
  Zn  Zn8  1  0.33126821  0.33126821  0.00619638  1
  Zn  Zn9  1  0.33126821  0.00619638  0.33126821  1
  Zn  Zn10  1  0.66873179  0.66873179  0.99380362  1
  Zn  Zn11  1  0.66873179  0.99380362  0.66873179  1
  Zn  Zn12  1  0.00619638  0.33126821  0.33126821  1
  Zn  Zn13  1  0.99380362  0.66873179  0.66873179  1
  Zn  Zn14  1  0.00000000  0.00000000  0.00000000  1
  Cu  Cu0  1  0.11963099  0.11963099  0.11963099  1
  Cu  Cu1  1  0.88036901  0.88036901  0.88036901  1
  Cu  Cu2  1  0.11963099  0.11963099  0.64110902  1
  Cu  Cu3  1  0.11963099  0.64110902  0.11963099  1
  Cu  Cu4  1  0.88036901  0.88036901  0.35889098  1
  Cu  Cu5  1  0.88036901  0.35889098  0.88036901  1
  Cu  Cu6  1  0.64110902  0.11963099  0.11963099  1
  Cu  Cu7  1  0.35889098  0.88036901  0.88036901  1
  Si  Si0  1  0.50000000  0.50000000  0.50000000  1
loop_
_geom_bond_atom_site_label_1
_geom_bond_atom_site_label_2
_geom_bond_distance
_geom_bond_site_symmetry_2
Hf0 Si0 2.603255 1_555
Hf0 Zn6 2.921921 1_555
Hf0 Zn11 2.921924 1_545
Hf0 Zn10 2.921924 1_554
Hf0 Zn12 2.921930 1_655
Hf0 Zn4 3.026962 1_655
Hf0 Zn5 3.026962 1_555
Hf0 Zn2 3.026962 1_655
Hf0 Zn3 3.026962 1_555
Hf1 Si0 2.603255 1_555
Hf1 Zn7 2.921921 1_555
Hf1 Zn9 2.921924 1_565
Hf1 Zn8 2.921924 1_556
Hf1 Zn13 2.921930 1_455
Hf1 Zn4 3.026962 1_565
Hf1 Zn5 3.026962 1_556
Hf1 Zn2 3.026962 1_556
Hf1 Zn3 3.026962 1_565
Hf2 Si0 2.603255 1_555
Hf2 Zn6 2.921921 1_555
Hf2 Zn10 2.921924 1_554
Hf2 Zn13 2.921924 1_455
Hf2 Zn9 2.921930 1_565
Hf2 Zn4 3.026962 1_565
Hf2 Zn5 3.026962 1_555
Hf2 Zn0 3.026962 1_565
Hf2 Zn1 3.026962 1_555
Hf3 Si0 2.603255 1_555
Hf3 Zn7 2.921921 1_555
Hf3 Zn8 2.921924 1_556
Hf3 Zn12 2.921924 1_655
Hf3 Zn11 2.921930 1_545
Hf3 Zn4 3.026962 1_655
Hf3 Zn5 3.026962 1_556
Hf3 Zn0 3.026962 1_556
Hf3 Zn1 3.026962 1_655
Hf4 Si0 2.603255 1_555
Hf4 Zn6 2.921921 1_555
Hf4 Zn11 2.921924 1_545
Hf4 Zn13 2.921924 1_455
Hf4 Zn8 2.921930 1_556
Hf4 Zn2 3.026962 1_556
Hf4 Zn0 3.026962 1_556
Hf4 Zn1 3.026962 1_555
Hf4 Zn3 3.026962 1_555
Hf5 Si0 2.603255 1_555
Hf5 Zn7 2.921921 1_555
Hf5 Zn9 2.921924 1_565
Hf5 Zn12 2.921924 1_655
Hf5 Zn10 2.921930 1_554
Hf5 Zn2 3.026962 1_655
Hf5 Zn0 3.026962 1_565
Hf5 Zn1 3.026962 1_655
Hf5 Zn3 3.026962 1_565
Zn0 Zn9 2.450481 1_555
Zn0 Zn11 2.450481 1_544
Zn0 Zn8 2.450481 1_555
Zn0 Zn10 2.450481 1_544
Zn1 Zn13 2.450473 1_455
Zn1 Zn12 2.450473 1_555
Zn1 Zn6 2.450478 1_555
Zn1 Zn7 2.450478 1_455
Zn2 Zn8 2.450481 1_555
Zn3 Zn9 2.450473 1_555
Zn3 Zn6 2.450478 1_555
Zn3 Zn7 2.450478 1_545
Zn4 Zn9 2.450481 1_555
Zn5 Zn8 2.450473 1_555
Zn5 Zn7 2.450478 1_554
Zn5 Zn6 2.450478 1_555
Zn6 Zn8 2.759015 1_555
Zn6 Zn9 2.759015 1_555
Zn8 Zn9 2.759015 1_555
Zn10 Zn5 2.450473 1_556
Zn10 Zn2 2.450481 1_656
Zn10 Zn13 2.759015 1_555
Zn10 Zn11 2.759015 1_555
Zn10 Zn7 2.759015 1_555
Zn11 Zn3 2.450473 1_565
Zn11 Zn4 2.450481 1_665
Zn11 Zn13 2.759015 1_555
Zn11 Zn7 2.759015 1_555
Zn12 Zn2 2.450481 1_555
Zn12 Zn4 2.450481 1_555
Zn12 Zn9 2.759015 1_555
Zn12 Zn8 2.759015 1_555
Zn12 Zn6 2.759015 1_555
Zn13 Zn2 2.450481 1_656
Zn13 Zn4 2.450481 1_665
Zn13 Zn7 2.759015 1_555
Cu0 Zn14 2.487105 1_555
Cu0 Zn4 2.638032 1_555
Cu0 Zn0 2.638032 1_555
Cu0 Zn2 2.638032 1_555
Cu0 Zn9 2.673523 1_555
Cu0 Zn12 2.673523 1_555
Cu0 Zn8 2.673523 1_555
Cu0 Hf0 2.823910 1_455
Cu0 Hf4 2.823910 1_554
Cu0 Hf2 2.823910 1_545
Cu1 Zn14 2.487105 1_666
Cu1 Zn4 2.638032 1_665
Cu1 Zn0 2.638032 1_566
Cu1 Zn2 2.638032 1_656
Cu1 Zn11 2.673523 1_555
Cu1 Zn13 2.673523 1_555
Cu1 Zn10 2.673523 1_555
Cu1 Hf1 2.823910 1_655
Cu1 Hf5 2.823910 1_556
Cu1 Hf3 2.823910 1_565
Cu2 Zn14 2.487091 1_556
Cu2 Zn3 2.638033 1_555
Cu2 Zn1 2.638033 1_555
Cu2 Zn4 2.638047 1_555
Cu2 Zn6 2.673526 1_555
Cu2 Zn9 2.673530 1_555
Cu2 Zn12 2.673530 1_555
Cu2 Hf4 2.823898 1_555
Cu2 Hf3 2.823913 1_455
Cu2 Hf1 2.823913 1_545
Cu3 Zn14 2.487091 1_565
Cu3 Zn5 2.638033 1_555
Cu3 Zn1 2.638033 1_555
Cu3 Zn2 2.638047 1_555
Cu3 Zn6 2.673526 1_555
Cu3 Zn8 2.673530 1_555
Cu3 Zn12 2.673530 1_555
Cu3 Hf2 2.823898 1_555
Cu3 Hf1 2.823913 1_554
Cu3 Hf5 2.823913 1_455
Cu4 Zn14 2.487091 1_665
Cu4 Zn3 2.638033 1_565
Cu4 Zn1 2.638033 1_655
Cu4 Zn4 2.638047 1_665
Cu4 Zn7 2.673526 1_555
Cu4 Zn11 2.673530 1_555
Cu4 Zn13 2.673530 1_555
Cu4 Hf5 2.823898 1_555
Cu4 Hf2 2.823913 1_655
Cu4 Hf0 2.823913 1_565
Cu5 Zn14 2.487091 1_656
Cu5 Zn5 2.638033 1_556
Cu5 Zn1 2.638033 1_655
Cu5 Zn2 2.638047 1_656
Cu5 Zn7 2.673526 1_555
Cu5 Zn10 2.673530 1_555
Cu5 Zn13 2.673530 1_555
Cu5 Hf3 2.823898 1_555
Cu5 Hf0 2.823913 1_556
Cu5 Hf4 2.823913 1_655
Cu6 Zn14 2.487091 1_655
Cu6 Zn3 2.638033 1_555
Cu6 Zn5 2.638033 1_555
Cu6 Zn0 2.638047 1_555
Cu6 Zn6 2.673526 1_555
Cu6 Zn8 2.673530 1_555
Cu6 Zn9 2.673530 1_555
Cu6 Hf0 2.823898 1_555
Cu6 Hf3 2.823913 1_554
Cu6 Hf5 2.823913 1_545
Cu7 Zn14 2.487091 1_566
Cu7 Zn3 2.638033 1_565
Cu7 Zn5 2.638033 1_556
Cu7 Zn0 2.638047 1_566
Cu7 Zn7 2.673526 1_555
Cu7 Zn10 2.673530 1_555
Cu7 Zn11 2.673530 1_555
Cu7 Hf1 2.823898 1_555
Cu7 Hf2 2.823913 1_556
Cu7 Hf4 2.823913 1_565
