# generated using pymatgen
data_CrCd3P7N12
_symmetry_space_group_name_H-M   'P 1'
_cell_length_a   7.23773454
_cell_length_b   7.29854478
_cell_length_c   7.29854583
_cell_angle_alpha   109.63937772
_cell_angle_beta   109.30253416
_cell_angle_gamma   109.30253582
_symmetry_Int_Tables_number   1
_chemical_formula_structural   CrCd3P7N12
_chemical_formula_sum   'Cr1 Cd3 P7 N12'
_cell_volume   297.40842322
_cell_formula_units_Z   1
loop_
 _symmetry_equiv_pos_site_id
 _symmetry_equiv_pos_as_xyz
  1  'x, y, z'
loop_
 _atom_site_type_symbol
 _atom_site_label
 _atom_site_symmetry_multiplicity
 _atom_site_fract_x
 _atom_site_fract_y
 _atom_site_fract_z
 _atom_site_occupancy
  Cr  Cr0  1  0.62837251  1.00000000  1.00000000  1
  Cd  Cd0  1  0.00121572  0.00000000  0.68567365  1
  Cd  Cd1  1  0.00121572  0.68567365  1.00000000  1
  Cd  Cd2  1  0.31554208  0.31432635  0.31432635  1
  P  P0  1  0.25565812  0.74867890  0.50102744  1
  P  P1  1  0.75462968  0.24765046  0.49897256  1
  P  P2  1  0.75462968  0.49897256  0.24765046  1
  P  P3  1  0.25565812  0.50102744  0.74867890  1
  P  P4  1  0.50697923  0.75234954  0.25132110  1
  P  P5  1  0.50697923  0.25132110  0.75234954  1
  P  P6  1  0.94998920  0.00000000  0.00000000  1
  N  N0  1  0.70907439  0.27463446  0.27463446  1
  N  N1  1  0.29157660  0.72000323  0.28757289  1
  N  N2  1  0.30483070  0.57881299  0.57881299  1
  N  N3  1  0.57157336  0.56756965  0.27999677  1
  N  N4  1  0.43444093  0.72536554  1.00000000  1
  N  N5  1  0.00400471  0.71242711  0.43243035  1
  N  N6  1  0.57157336  0.27999677  0.56756965  1
  N  N7  1  0.72601872  1.00000000  0.42118701  1
  N  N8  1  0.43444093  0.00000000  0.72536554  1
  N  N9  1  0.72601872  0.42118701  1.00000000  1
  N  N10  1  0.29157660  0.28757289  0.72000323  1
  N  N11  1  0.00400471  0.43243035  0.71242711  1
loop_
_geom_bond_atom_site_label_1
_geom_bond_atom_site_label_2
_geom_bond_distance
_geom_bond_site_symmetry_2
Cr0 N4 2.031721 1_555
Cr0 N8 2.031721 1_565
Cr0 N0 2.031724 1_566
Cr0 P6 2.327776 1_566
Cd0 N7 2.269731 1_445
Cd0 N10 2.294960 1_555
Cd0 N5 2.294965 1_545
Cd0 P6 2.441886 1_456
Cd1 N9 2.269731 1_455
Cd1 N1 2.294961 1_556
Cd1 N11 2.294965 1_555
Cd1 P6 2.441885 1_466
Cd2 N2 2.269736 1_555
Cd2 N3 2.294961 1_555
Cd2 N6 2.294961 1_555
Cd2 P6 2.441885 1_455
N0 P2 1.652625 1_555
N0 P1 1.652625 1_555
N1 P0 1.619572 1_555
N1 P4 1.621010 1_555
N2 P0 1.617795 1_555
N2 P3 1.617795 1_555
N3 P4 1.619579 1_555
N3 P2 1.621006 1_555
N4 P4 1.652619 1_556
N4 P3 1.652622 1_555
N5 P2 1.619581 1_455
N5 P0 1.621003 1_555
N6 P5 1.619579 1_555
N6 P1 1.621006 1_555
N7 P1 1.617793 1_565
N7 P4 1.617794 1_555
N8 P5 1.652619 1_555
N8 P0 1.652621 1_545
N9 P2 1.617793 1_556
N9 P5 1.617794 1_555
N10 P3 1.619572 1_555
N10 P5 1.621010 1_555
N11 P1 1.619581 1_455
N11 P3 1.621003 1_555
