# generated using pymatgen
data_Ca4Sb3Pt4Pb
_symmetry_space_group_name_H-M   'P 1'
_cell_length_a   4.61979830
_cell_length_b   7.39286473
_cell_length_c   7.98609382
_cell_angle_alpha   90.39826102
_cell_angle_beta   90.00000000
_cell_angle_gamma   90.00000000
_symmetry_Int_Tables_number   1
_chemical_formula_structural   Ca4Sb3Pt4Pb
_chemical_formula_sum   'Ca4 Sb3 Pt4 Pb1'
_cell_volume   272.74681642
_cell_formula_units_Z   1
loop_
 _symmetry_equiv_pos_site_id
 _symmetry_equiv_pos_as_xyz
  1  'x, y, z'
loop_
 _atom_site_type_symbol
 _atom_site_label
 _atom_site_symmetry_multiplicity
 _atom_site_fract_x
 _atom_site_fract_y
 _atom_site_fract_z
 _atom_site_occupancy
  Ca  Ca0  1  0.75000000  0.50900519  0.19465765  1
  Ca  Ca1  1  0.75000000  0.00807052  0.30160625  1
  Ca  Ca2  1  0.25000000  0.49190809  0.80479480  1
  Ca  Ca3  1  0.25000000  0.98798356  0.70151275  1
  Sb  Sb0  1  0.75000000  0.18357516  0.91010207  1
  Sb  Sb1  1  0.75000000  0.68385162  0.58740169  1
  Sb  Sb2  1  0.25000000  0.81229652  0.08955639  1
  Pt  Pt0  1  0.75000000  0.30917256  0.59616641  1
  Pt  Pt1  1  0.75000000  0.79847376  0.91364856  1
  Pt  Pt2  1  0.25000000  0.71098805  0.41262791  1
  Pt  Pt3  1  0.25000000  0.19285427  0.07753621  1
  Pb  Pb0  1  0.25000000  0.31182070  0.41038933  1
loop_
_geom_bond_atom_site_label_1
_geom_bond_atom_site_label_2
_geom_bond_distance
_geom_bond_site_symmetry_2
Ca0 Pt1 3.111695 1_554
Ca0 Pb0 3.234785 1_555
Ca0 Pb0 3.234785 1_655
Ca0 Pt2 3.249521 1_555
Ca0 Pt2 3.249521 1_655
Ca0 Sb0 3.297932 1_554
Ca0 Sb2 3.330725 1_655
Ca0 Sb2 3.330725 1_555
Ca0 Sb1 3.384091 1_555
Ca0 Pt3 3.412169 1_655
Ca0 Pt3 3.412169 1_555
Ca0 Pt0 3.539764 1_555
Ca1 Sb2 3.203763 1_645
Ca1 Sb2 3.203763 1_545
Ca1 Pt0 3.227387 1_555
Ca1 Pt3 3.230775 1_555
Ca1 Pt3 3.230775 1_655
Ca1 Pt2 3.312478 1_545
Ca1 Pt2 3.312478 1_645
Ca1 Sb1 3.321222 1_545
Ca1 Pb0 3.332550 1_555
Ca1 Pb0 3.332550 1_655
Ca1 Sb0 3.393437 1_554
Ca1 Pt1 3.454494 1_544
Ca2 Pt3 3.114346 1_556
Ca2 Pt0 3.147277 1_555
Ca2 Pt0 3.147277 1_455
Ca2 Sb1 3.224531 1_555
Ca2 Sb1 3.224531 1_455
Ca2 Sb2 3.272157 1_556
Ca2 Pt1 3.346717 1_455
Ca2 Pt1 3.346717 1_555
Ca2 Sb0 3.356413 1_455
Ca2 Sb0 3.356413 1_555
Ca2 Pb0 3.411042 1_555
Ca2 Pt2 3.535873 1_555
Ca3 Pt2 3.074134 1_555
Ca3 Sb0 3.188722 1_465
Ca3 Sb0 3.188722 1_565
Ca3 Pt1 3.193992 1_455
Ca3 Pt1 3.193992 1_555
Ca3 Sb1 3.345587 1_555
Ca3 Sb1 3.345587 1_455
Ca3 Pb0 3.348785 1_565
Ca3 Pt3 3.353877 1_566
Ca3 Sb2 3.368445 1_556
Ca3 Pt0 3.421912 1_565
Ca3 Pt0 3.421912 1_465
Pt0 Sb0 2.679584 1_555
Pt0 Sb1 2.771322 1_555
Pt1 Sb2 2.705105 1_656
Pt1 Sb2 2.705105 1_556
Pt1 Sb1 2.734169 1_555
Pt1 Sb0 2.847340 1_565
Pt2 Sb2 2.691582 1_555
Pt2 Sb1 2.707013 1_455
Pt2 Sb1 2.707013 1_555
Pt3 Sb0 2.669648 1_554
Pt3 Sb0 2.669648 1_454
Pt3 Sb2 2.815716 1_545
Pb0 Pt0 2.745467 1_455
Pb0 Pt0 2.745467 1_555
Pb0 Pt3 2.794107 1_555
Pb0 Pt2 2.950920 1_555
