# generated using pymatgen
data_BaSn2(AsRh3)3
_symmetry_space_group_name_H-M   'P 1'
_cell_length_a   7.55972684
_cell_length_b   7.55972654
_cell_length_c   11.16488689
_cell_angle_alpha   90.00000000
_cell_angle_beta   90.00000000
_cell_angle_gamma   119.99999290
_symmetry_Int_Tables_number   1
_chemical_formula_structural   BaSn2(AsRh3)3
_chemical_formula_sum   'Ba2 Sn4 As6 Rh18'
_cell_volume   552.58256717
_cell_formula_units_Z   2
loop_
 _symmetry_equiv_pos_site_id
 _symmetry_equiv_pos_as_xyz
  1  'x, y, z'
loop_
 _atom_site_type_symbol
 _atom_site_label
 _atom_site_symmetry_multiplicity
 _atom_site_fract_x
 _atom_site_fract_y
 _atom_site_fract_z
 _atom_site_occupancy
  Ba  Ba0  1  0.00000000  0.00000000  0.00000000  1
  Ba  Ba1  1  0.00000000  0.00000000  0.50000000  1
  Sn  Sn0  1  0.33333300  0.66666700  0.06684813  1
  Sn  Sn1  1  0.66666700  0.33333300  0.56684813  1
  Sn  Sn2  1  0.66666700  0.33333300  0.93315187  1
  Sn  Sn3  1  0.33333300  0.66666700  0.43315187  1
  As  As0  1  0.83288514  0.16711486  0.25000000  1
  As  As1  1  0.66576927  0.83288514  0.75000000  1
  As  As2  1  0.16711486  0.33423073  0.75000000  1
  As  As3  1  0.83288514  0.66576927  0.25000000  1
  As  As4  1  0.33423073  0.16711486  0.25000000  1
  As  As5  1  0.16711486  0.83288514  0.75000000  1
  Rh  Rh0  1  0.53902580  0.46097420  0.12154115  1
  Rh  Rh1  1  0.07805059  0.53902580  0.62154115  1
  Rh  Rh2  1  0.46097420  0.92194941  0.62154115  1
  Rh  Rh3  1  0.53902580  0.07805059  0.12154115  1
  Rh  Rh4  1  0.92194941  0.46097420  0.12154115  1
  Rh  Rh5  1  0.07805059  0.53902580  0.87845885  1
  Rh  Rh6  1  0.46097420  0.92194941  0.87845885  1
  Rh  Rh7  1  0.46097420  0.53902580  0.62154115  1
  Rh  Rh8  1  0.46097420  0.53902580  0.87845885  1
  Rh  Rh9  1  0.53902580  0.46097420  0.37845885  1
  Rh  Rh10  1  0.92194941  0.46097420  0.37845885  1
  Rh  Rh11  1  0.53902580  0.07805059  0.37845885  1
  Rh  Rh12  1  0.19662766  0.80337234  0.25000000  1
  Rh  Rh13  1  0.39325632  0.19662766  0.75000000  1
  Rh  Rh14  1  0.80337234  0.60674368  0.75000000  1
  Rh  Rh15  1  0.19662766  0.39325632  0.25000000  1
  Rh  Rh16  1  0.60674368  0.80337234  0.25000000  1
  Rh  Rh17  1  0.80337234  0.19662766  0.75000000  1
loop_
_geom_bond_atom_site_label_1
_geom_bond_atom_site_label_2
_geom_bond_distance
_geom_bond_site_symmetry_2
Ba0 Rh12 3.797306 1_545
Ba0 Rh17 3.797306 1_454
Ba0 Rh15 3.797310 1_555
Ba0 Rh14 3.797310 1_444
Ba0 Rh13 3.797310 1_554
Ba0 Rh16 3.797310 1_445
Ba0 Rh4 4.048442 1_455
Ba0 Rh5 4.048442 1_544
Ba0 Rh3 4.048442 1_455
Ba0 Rh6 4.048442 1_544
Ba0 Rh8 4.048446 1_554
Ba0 Rh0 4.048446 1_445
Ba0 Rh0 4.048446 1_555
Ba0 Rh8 4.048446 1_444
Ba0 Rh5 4.048449 1_554
Ba0 Rh4 4.048449 1_445
Ba0 Rh3 4.048449 1_555
Ba0 Rh6 4.048449 1_444
Ba1 Rh12 3.797306 1_545
Ba1 Rh17 3.797306 1_455
Ba1 Rh15 3.797310 1_555
Ba1 Rh14 3.797310 1_445
Ba1 Rh13 3.797310 1_555
Ba1 Rh16 3.797310 1_445
Ba1 Rh1 4.048442 1_545
Ba1 Rh10 4.048442 1_455
Ba1 Rh2 4.048442 1_545
Ba1 Rh11 4.048442 1_455
Ba1 Rh7 4.048446 1_555
Ba1 Rh9 4.048446 1_445
Ba1 Rh9 4.048446 1_555
Ba1 Rh7 4.048446 1_445
Ba1 Rh1 4.048449 1_555
Ba1 Rh10 4.048449 1_445
Ba1 Rh11 4.048449 1_555
Ba1 Rh2 4.048449 1_445
As0 Rh16 2.404793 1_545
As0 Rh15 2.404793 1_655
As0 Rh10 2.439192 1_555
As0 Rh4 2.439192 1_555
As0 Rh11 2.439192 1_555
As0 Rh3 2.439192 1_555
As0 Ba0 3.546692 1_655
As0 Ba1 3.546692 1_655
As1 Rh17 2.404791 1_565
As1 Rh14 2.404805 1_555
As1 Rh6 2.439192 1_555
As1 Rh2 2.439192 1_555
As1 Rh8 2.439192 1_555
As1 Rh7 2.439192 1_555
As1 Ba0 3.546696 1_666
As1 Ba1 3.546696 1_665
As2 Rh17 2.404791 1_455
As2 Rh13 2.404805 1_555
As2 Rh5 2.439191 1_555
As2 Rh1 2.439191 1_555
As2 Rh8 2.439192 1_555
As2 Rh7 2.439192 1_555
As2 Ba0 3.546696 1_556
As2 Ba1 3.546696 1_555
As3 Rh12 2.404791 1_655
As3 Rh16 2.404805 1_555
As3 Rh10 2.439191 1_555
As3 Rh4 2.439191 1_555
As3 Rh9 2.439192 1_555
As3 Rh0 2.439192 1_555
As3 Ba1 3.546696 1_665
As3 Ba0 3.546696 1_665
As4 Rh12 2.404791 1_545
As4 Rh15 2.404805 1_555
As4 Rh11 2.439192 1_555
As4 Rh3 2.439192 1_555
As4 Rh9 2.439192 1_555
As4 Rh0 2.439192 1_555
As4 Ba1 3.546696 1_555
As4 Ba0 3.546696 1_555
As5 Rh13 2.404793 1_565
As5 Rh14 2.404793 1_455
As5 Rh5 2.439192 1_555
As5 Rh1 2.439192 1_555
As5 Rh6 2.439192 1_555
As5 Rh2 2.439192 1_555
As5 Ba0 3.546692 1_566
As5 Ba1 3.546692 1_565
Rh0 Sn2 2.686512 1_554
Rh0 Sn0 2.761663 1_555
Rh1 Sn3 2.686512 1_555
Rh1 Sn1 2.761651 1_455
Rh2 Sn3 2.686512 1_555
Rh2 Sn1 2.761651 1_565
Rh3 Sn2 2.686512 1_554
Rh3 Sn0 2.761651 1_545
Rh4 Sn2 2.686512 1_554
Rh4 Sn0 2.761651 1_655
Rh5 Sn0 2.686512 1_556
Rh5 Sn2 2.761651 1_455
Rh6 Sn0 2.686512 1_556
Rh6 Sn2 2.761651 1_565
Rh7 Sn3 2.686512 1_555
Rh7 Sn1 2.761663 1_555
Rh8 Sn0 2.686512 1_556
Rh8 Sn2 2.761663 1_555
Rh9 Sn1 2.686512 1_555
Rh9 Sn3 2.761663 1_555
Rh10 Sn1 2.686512 1_555
Rh10 Sn3 2.761651 1_655
Rh11 Sn1 2.686512 1_555
Rh11 Sn3 2.761651 1_545
Rh12 Sn3 2.717642 1_555
Rh12 Sn0 2.717642 1_555
Rh13 Sn2 2.717643 1_555
Rh13 Sn1 2.717643 1_555
Rh14 Sn2 2.717643 1_555
Rh14 Sn1 2.717643 1_555
Rh15 Sn3 2.717643 1_555
Rh15 Sn0 2.717643 1_555
Rh16 Sn3 2.717643 1_555
Rh16 Sn0 2.717643 1_555
Rh17 Sn2 2.717642 1_555
Rh17 Sn1 2.717642 1_555
