# generated using pymatgen
data_Y2AlNiRu
_symmetry_space_group_name_H-M   'P 1'
_cell_length_a   5.47571419
_cell_length_b   5.47571436
_cell_length_c   5.47571391
_cell_angle_alpha   136.35890745
_cell_angle_beta   118.08599457
_cell_angle_gamma   78.78603940
_symmetry_Int_Tables_number   1
_chemical_formula_structural   Y2AlNiRu
_chemical_formula_sum   'Y2 Al1 Ni1 Ru1'
_cell_volume   97.03880837
_cell_formula_units_Z   1
loop_
 _symmetry_equiv_pos_site_id
 _symmetry_equiv_pos_as_xyz
  1  'x, y, z'
loop_
 _atom_site_type_symbol
 _atom_site_label
 _atom_site_symmetry_multiplicity
 _atom_site_fract_x
 _atom_site_fract_y
 _atom_site_fract_z
 _atom_site_occupancy
  Y  Y0  1  0.69452938  0.20072761  0.49380177  1
  Y  Y1  1  0.29307416  0.79927239  0.49380177  1
  Al  Al0  1  0.99913740  1.00000000  0.99913740  1
  Ni  Ni0  1  0.74369251  0.50000000  0.24369251  1
  Ru  Ru0  1  0.26956554  0.50000000  0.76956554  1
loop_
_geom_bond_atom_site_label_1
_geom_bond_atom_site_label_2
_geom_bond_distance
_geom_bond_site_symmetry_2
Y0 Y1 3.397669 1_545
Y0 Y1 3.573769 1_544
Y0 Y1 3.573769 1_645
Y0 Y1 3.573769 1_555
Y0 Y1 3.573769 1_656
Al0 Ni0 2.492652 1_555
Al0 Ni0 2.492652 1_566
Al0 Ru0 2.542314 1_666
Al0 Ru0 2.542314 1_655
Al0 Y1 3.249434 1_655
Al0 Y0 3.249434 1_566
Al0 Y1 3.249435 1_666
Al0 Y0 3.249435 1_555
Al0 Y1 3.263632 1_656
Al0 Y0 3.263632 1_666
Al0 Y0 3.315108 1_565
Al0 Y1 3.315108 1_555
Ni0 Ru0 2.670926 1_554
Ni0 Y0 2.898365 1_555
Ni0 Y1 2.898365 1_655
Ni0 Ru0 2.962430 1_655
Ni0 Y0 3.001713 1_554
Ni0 Y1 3.001713 1_555
Ni0 Y0 3.001713 1_565
Ni0 Y1 3.001713 1_544
Ru0 Y1 2.936712 1_556
Ru0 Y0 2.936712 1_555
Ru0 Y1 2.936712 1_545
Ru0 Y0 2.936712 1_566
Ru0 Y1 2.971304 1_555
Ru0 Y0 2.971305 1_455
