# generated using pymatgen
data_Zr10AlCuSn6
_symmetry_space_group_name_H-M   'P 1'
_cell_length_a   8.68784320
_cell_length_b   8.68784400
_cell_length_c   5.86824025
_cell_angle_alpha   90.00000000
_cell_angle_beta   90.00000000
_cell_angle_gamma   119.99999322
_symmetry_Int_Tables_number   1
_chemical_formula_structural   Zr10AlCuSn6
_chemical_formula_sum   'Zr10 Al1 Cu1 Sn6'
_cell_volume   383.58581181
_cell_formula_units_Z   1
loop_
 _symmetry_equiv_pos_site_id
 _symmetry_equiv_pos_as_xyz
  1  'x, y, z'
loop_
 _atom_site_type_symbol
 _atom_site_label
 _atom_site_symmetry_multiplicity
 _atom_site_fract_x
 _atom_site_fract_y
 _atom_site_fract_z
 _atom_site_occupancy
  Zr  Zr0  1  0.33333300  0.66666700  0.00000000  1
  Zr  Zr1  1  0.66666700  0.33333300  0.50000000  1
  Zr  Zr2  1  0.66666700  0.33333300  0.00000000  1
  Zr  Zr3  1  0.33333300  0.66666700  0.50000000  1
  Zr  Zr4  1  0.26666923  1.00000000  0.25300909  1
  Zr  Zr5  1  0.26666923  0.26666923  0.74699091  1
  Zr  Zr6  1  0.00000000  0.73333077  0.74699091  1
  Zr  Zr7  1  1.00000000  0.26666923  0.25300909  1
  Zr  Zr8  1  0.73333077  0.73333077  0.25300909  1
  Zr  Zr9  1  0.73333077  0.00000000  0.74699091  1
  Al  Al0  1  0.00000000  0.00000000  0.00000000  1
  Cu  Cu0  1  0.00000000  0.00000000  0.50000000  1
  Sn  Sn0  1  0.61441725  0.00000000  0.24825591  1
  Sn  Sn1  1  0.61441725  0.61441725  0.75174409  1
  Sn  Sn2  1  1.00000000  0.38558275  0.75174409  1
  Sn  Sn3  1  0.00000000  0.61441725  0.24825591  1
  Sn  Sn4  1  0.38558275  0.38558275  0.24825591  1
  Sn  Sn5  1  0.38558275  1.00000000  0.75174409  1
loop_
_geom_bond_atom_site_label_1
_geom_bond_atom_site_label_2
_geom_bond_distance
_geom_bond_site_symmetry_2
Zr0 Zr3 2.934120 1_554
Zr0 Zr3 2.934120 1_555
Zr1 Zr2 2.934120 1_556
Zr1 Zr2 2.934120 1_555
Al0 Zr4 2.751701 1_545
Al0 Zr9 2.751701 1_454
Al0 Zr7 2.751701 1_455
Al0 Zr6 2.751701 1_544
Al0 Zr5 2.751702 1_554
Al0 Zr8 2.751702 1_445
Al0 Cu0 2.934120 1_555
Al0 Cu0 2.934120 1_554
Cu0 Zr4 2.732808 1_545
Cu0 Zr9 2.732808 1_455
Cu0 Zr7 2.732808 1_455
Cu0 Zr6 2.732808 1_545
Cu0 Zr5 2.732808 1_555
Cu0 Zr8 2.732808 1_445
Sn0 Zr8 2.971367 1_545
Sn0 Zr7 2.971367 1_555
Sn0 Zr4 3.021309 1_545
Sn0 Zr2 3.065994 1_555
Sn0 Zr0 3.065997 1_545
Sn0 Zr1 3.075773 1_555
Sn0 Zr3 3.075776 1_545
Sn0 Zr9 3.103684 1_555
Sn0 Zr9 3.117688 1_554
Sn1 Zr6 2.971367 1_655
Sn1 Zr9 2.971367 1_565
Sn1 Zr5 3.021309 1_555
Sn1 Zr0 3.066001 1_556
Sn1 Zr2 3.066001 1_556
Sn1 Zr3 3.075780 1_555
Sn1 Zr1 3.075780 1_555
Sn1 Zr8 3.103684 1_555
Sn1 Zr8 3.117688 1_556
Sn2 Zr5 2.971367 1_655
Sn2 Zr9 2.971367 1_555
Sn2 Zr6 3.021309 1_655
Sn2 Zr2 3.065994 1_556
Sn2 Zr0 3.065997 1_656
Sn2 Zr1 3.075773 1_555
Sn2 Zr3 3.075776 1_655
Sn2 Zr7 3.103684 1_555
Sn2 Zr7 3.117688 1_556
Sn3 Zr8 2.971367 1_455
Sn3 Zr4 2.971367 1_555
Sn3 Zr7 3.021309 1_455
Sn3 Zr0 3.065994 1_555
Sn3 Zr2 3.065997 1_455
Sn3 Zr3 3.075773 1_555
Sn3 Zr1 3.075776 1_455
Sn3 Zr6 3.103684 1_555
Sn3 Zr6 3.117688 1_554
Sn4 Zr7 2.971367 1_455
Sn4 Zr4 2.971367 1_545
Sn4 Zr8 3.021309 1_555
Sn4 Zr2 3.066001 1_555
Sn4 Zr0 3.066001 1_555
Sn4 Zr1 3.075780 1_555
Sn4 Zr3 3.075780 1_555
Sn4 Zr5 3.103684 1_555
Sn4 Zr5 3.117688 1_554
Sn5 Zr5 2.971367 1_565
Sn5 Zr6 2.971367 1_555
Sn5 Zr9 3.021309 1_565
Sn5 Zr0 3.065994 1_556
Sn5 Zr2 3.065997 1_566
Sn5 Zr3 3.075773 1_555
Sn5 Zr1 3.075776 1_565
Sn5 Zr4 3.103684 1_555
Sn5 Zr4 3.117688 1_556
