# generated using pymatgen
data_Ti8Al14SbIr7
_symmetry_space_group_name_H-M   'P 1'
_cell_length_a   8.64043536
_cell_length_b   8.64043365
_cell_length_c   8.64043485
_cell_angle_alpha   119.99099829
_cell_angle_beta   119.93320233
_cell_angle_gamma   90.06566623
_symmetry_Int_Tables_number   1
_chemical_formula_structural   Ti8Al14SbIr7
_chemical_formula_sum   'Ti8 Al14 Sb1 Ir7'
_cell_volume   456.39410689
_cell_formula_units_Z   1
loop_
 _symmetry_equiv_pos_site_id
 _symmetry_equiv_pos_as_xyz
  1  'x, y, z'
loop_
 _atom_site_type_symbol
 _atom_site_label
 _atom_site_symmetry_multiplicity
 _atom_site_fract_x
 _atom_site_fract_y
 _atom_site_fract_z
 _atom_site_occupancy
  Ti  Ti0  1  0.78794516  0.28625774  0.06632457  1
  Ti  Ti1  1  0.21993317  0.28625774  0.49831458  1
  Ti  Ti2  1  0.21359058  0.71359058  0.50000000  1
  Ti  Ti3  1  0.21993317  0.72162059  0.93367543  1
  Ti  Ti4  1  0.78794516  0.72162059  0.50168542  1
  Ti  Ti5  1  0.77992739  0.27992739  0.50000000  1
  Ti  Ti6  1  0.37999676  0.12313293  0.74313618  1
  Ti  Ti7  1  0.37999676  0.63685958  0.25686382  1
  Al  Al0  1  0.15830646  0.33886314  0.18055368  1
  Al  Al1  1  0.15830646  0.97775277  0.81944632  1
  Al  Al2  1  0.15441799  0.34111614  0.81330285  1
  Al  Al3  1  0.52781229  0.34111614  0.18669715  1
  Al  Al4  1  0.83958821  0.65826817  0.81868097  1
  Al  Al5  1  0.83958821  0.02090824  0.18131903  1
  Al  Al6  1  0.83789700  0.65965028  0.17824672  1
  Al  Al7  1  0.48140356  0.65965028  0.82175328  1
  Al  Al8  1  0.38010038  0.12098283  0.25911855  1
  Al  Al9  1  0.86186427  0.12098283  0.74088145  1
  Al  Al10  1  0.62097137  0.87909754  0.25812717  1
  Al  Al11  1  0.62097137  0.36284520  0.74187283  1
  Al  Al12  1  0.62147271  0.87884103  0.74263168  1
  Al  Al13  1  0.13620835  0.87884103  0.25736832  1
  Sb  Sb0  1  0.99731340  0.49731340  0.50000000  1
  Ir  Ir0  1  0.00118408  0.99946958  0.50142841  1
  Ir  Ir1  1  0.49804116  0.99946958  0.99828550  1
  Ir  Ir2  1  0.49741691  0.49741691  1.00000000  1
  Ir  Ir3  1  0.49804116  0.49975466  0.49857159  1
  Ir  Ir4  1  0.00118408  0.49975466  0.00171450  1
  Ir  Ir5  1  0.99968651  0.99968651  0.00000000  1
  Ir  Ir6  1  0.49895093  0.99895093  0.50000000  1
loop_
_geom_bond_atom_site_label_1
_geom_bond_atom_site_label_2
_geom_bond_distance
_geom_bond_site_symmetry_2
Al0 Ir5 2.487378 1_445
Al0 Ir4 2.494347 1_555
Al0 Ir3 2.494377 1_555
Al1 Ir5 2.487356 1_456
Al1 Ir0 2.494377 1_555
Al1 Ir1 2.494377 1_555
Al2 Ir4 2.491279 1_556
Al2 Ir0 2.491288 1_545
Al2 Ir2 2.500217 1_555
Al3 Ir3 2.491283 1_555
Al3 Ir1 2.491290 1_544
Al3 Ir2 2.500211 1_554
Al4 Ir5 2.505580 1_556
Al4 Ir4 2.508517 1_656
Al4 Ir3 2.508517 1_555
Al5 Ir5 2.505571 1_545
Al5 Ir1 2.508515 1_544
Al5 Ir0 2.508522 1_645
Al6 Ir0 2.504247 1_655
Al6 Ir4 2.504249 1_655
Al6 Ir2 2.510416 1_554
Al7 Ir1 2.504247 1_555
Al7 Ir3 2.504247 1_555
Al7 Ir2 2.510415 1_555
Al8 Ir6 2.561572 1_545
Al8 Ir3 2.673734 1_555
Al8 Ir1 2.673749 1_544
Al8 Ir5 2.686459 1_445
Al9 Ir6 2.561572 1_545
Al9 Ir4 2.673735 1_656
Al9 Ir0 2.673742 1_645
Al9 Ir5 2.686465 1_546
Al10 Ir6 2.566983 1_555
Al10 Ir0 2.684711 1_655
Al10 Ir1 2.684718 1_554
Al10 Ir2 2.693040 1_554
Al11 Ir6 2.566990 1_545
Al11 Ir3 2.684696 1_555
Al11 Ir4 2.684710 1_656
Al11 Ir2 2.693047 1_555
Al12 Ir6 2.560380 1_555
Al12 Ir5 2.670804 1_556
Al12 Ir1 2.674921 1_555
Al12 Ir3 2.674928 1_555
Al13 Ir6 2.560388 1_555
Al13 Ir5 2.670803 1_455
Al13 Ir0 2.674914 1_555
Al13 Ir4 2.674927 1_555
Sb0 Ti2 2.641267 1_655
Sb0 Ti1 2.652394 1_655
Sb0 Ti3 2.652395 1_655
Sb0 Ti0 2.652395 1_555
Sb0 Ti4 2.652395 1_555
Sb0 Ti5 2.654808 1_555
Ir0 Ti6 2.675016 1_565
Ir0 Ti4 3.026142 1_455
Ir0 Ti2 3.077731 1_555
Ir0 Ti5 3.089369 1_465
Ir0 Ti1 3.133716 1_565
Ir1 Ti6 2.675016 1_565
Ir1 Ti3 3.026154 1_555
Ir1 Ti2 3.077731 1_555
Ir1 Ti5 3.089369 1_566
Ir1 Ti0 3.133728 1_566
Ir2 Ti6 2.642622 1_555
Ir2 Ti7 2.642622 1_556
Ir3 Ti7 2.675016 1_555
Ir3 Ti1 3.026161 1_555
Ir3 Ti2 3.077736 1_555
Ir3 Ti5 3.089364 1_555
Ir3 Ti4 3.133746 1_555
Ir4 Ti7 2.675016 1_555
Ir4 Ti0 3.026148 1_455
Ir4 Ti2 3.077730 1_555
Ir4 Ti5 3.089370 1_454
Ir4 Ti3 3.133734 1_554
Ir5 Ti0 3.073242 1_565
Ir5 Ti3 3.073242 1_654
Ir5 Ti1 3.073254 1_665
Ir5 Ti4 3.073254 1_554
Ir6 Ti6 2.554400 1_565
Ir6 Ti7 2.554407 1_555
