# generated using pymatgen
data_Ti8Al14PRh7
_symmetry_space_group_name_H-M   'P 1'
_cell_length_a   8.56604159
_cell_length_b   8.56604136
_cell_length_c   8.56604170
_cell_angle_alpha   119.98346924
_cell_angle_beta   119.91229046
_cell_angle_gamma   90.09031518
_symmetry_Int_Tables_number   1
_chemical_formula_structural   Ti8Al14PRh7
_chemical_formula_sum   'Ti8 Al14 P1 Rh7'
_cell_volume   444.80198641
_cell_formula_units_Z   1
loop_
 _symmetry_equiv_pos_site_id
 _symmetry_equiv_pos_as_xyz
  1  'x, y, z'
loop_
 _atom_site_type_symbol
 _atom_site_label
 _atom_site_symmetry_multiplicity
 _atom_site_fract_x
 _atom_site_fract_y
 _atom_site_fract_z
 _atom_site_occupancy
  Ti  Ti0  1  0.80219797  0.30054575  0.09687446  1
  Ti  Ti1  1  0.20367229  0.30054575  0.49834878  1
  Ti  Ti2  1  0.19964392  0.69964392  0.50000000  1
  Ti  Ti3  1  0.20367229  0.70532351  0.90312554  1
  Ti  Ti4  1  0.80219797  0.70532351  0.50165122  1
  Ti  Ti5  1  0.79771477  0.29771477  0.50000000  1
  Ti  Ti6  1  0.38028056  0.12265090  0.74237034  1
  Ti  Ti7  1  0.38028056  0.63791022  0.25762966  1
  Al  Al0  1  0.16042300  0.33641034  0.17598634  1
  Al  Al1  1  0.16042300  0.98443667  0.82401366  1
  Al  Al2  1  0.15625770  0.33841225  0.81784446  1
  Al  Al3  1  0.52056779  0.33841225  0.18215554  1
  Al  Al4  1  0.83799232  0.66019035  0.82219903  1
  Al  Al5  1  0.83799232  0.01579329  0.17780097  1
  Al  Al6  1  0.83664085  0.66153341  0.17510644  1
  Al  Al7  1  0.48642597  0.66153341  0.82489356  1
  Al  Al8  1  0.38096393  0.11926161  0.26170232  1
  Al  Al9  1  0.85756029  0.11926161  0.73829768  1
  Al  Al10  1  0.62033081  0.88081190  0.26048109  1
  Al  Al11  1  0.62033081  0.35985072  0.73951891  1
  Al  Al12  1  0.62176410  0.87968580  0.74207730  1
  Al  Al13  1  0.13760750  0.87968580  0.25792270  1
  P  P0  1  0.99921559  0.49921559  0.50000000  1
  Rh  Rh0  1  0.00195639  0.99999856  0.50149562  1
  Rh  Rh1  1  0.49850293  0.99999856  0.99804217  1
  Rh  Rh2  1  0.49757304  0.49757304  1.00000000  1
  Rh  Rh3  1  0.49850293  0.50046077  0.49850438  1
  Rh  Rh4  1  0.00195639  0.50046077  0.00195783  1
  Rh  Rh5  1  0.00007224  0.00007224  0.00000000  1
  Rh  Rh6  1  0.49727873  0.99727873  0.50000000  1
loop_
_geom_bond_atom_site_label_1
_geom_bond_atom_site_label_2
_geom_bond_distance
_geom_bond_site_symmetry_2
Al0 Rh5 2.457884 1_555
Al0 Rh4 2.474129 1_555
Al0 Rh3 2.474136 1_555
Al1 Rh5 2.457877 1_566
Al1 Rh1 2.474136 1_555
Al1 Rh0 2.474136 1_555
Al2 Rh0 2.461271 1_545
Al2 Rh4 2.461278 1_556
Al2 Rh2 2.480496 1_555
Al3 Rh1 2.461271 1_544
Al3 Rh3 2.461271 1_555
Al3 Rh2 2.480503 1_554
Al4 Rh5 2.483952 1_666
Al4 Rh4 2.484096 1_656
Al4 Rh3 2.484103 1_555
Al5 Rh5 2.483945 1_655
Al5 Rh1 2.484103 1_544
Al5 Rh0 2.484103 1_645
Al6 Rh4 2.482832 1_655
Al6 Rh0 2.482839 1_655
Al6 Rh2 2.488953 1_554
Al7 Rh1 2.482837 1_555
Al7 Rh3 2.482845 1_555
Al7 Rh2 2.488943 1_555
Al8 Rh6 2.521520 1_545
Al8 Rh5 2.668390 1_555
Al8 Rh3 2.668963 1_555
Al8 Rh1 2.668963 1_544
Al9 Rh6 2.521526 1_545
Al9 Rh5 2.668390 1_656
Al9 Rh0 2.668956 1_645
Al9 Rh4 2.668963 1_656
Al10 Rh6 2.535807 1_555
Al10 Rh0 2.672598 1_655
Al10 Rh1 2.672598 1_554
Al10 Rh2 2.681263 1_554
Al11 Rh6 2.535814 1_545
Al11 Rh3 2.672591 1_555
Al11 Rh4 2.672597 1_656
Al11 Rh2 2.681263 1_555
Al12 Rh6 2.517447 1_555
Al12 Rh5 2.649112 1_666
Al12 Rh3 2.652973 1_555
Al12 Rh1 2.652980 1_555
Al13 Rh6 2.517454 1_555
Al13 Rh5 2.649119 1_565
Al13 Rh0 2.652966 1_555
Al13 Rh4 2.652972 1_555
P0 Ti2 2.426117 1_655
P0 Ti5 2.439099 1_555
P0 Ti0 2.444122 1_555
P0 Ti3 2.444122 1_655
P0 Ti4 2.444122 1_555
P0 Ti1 2.444128 1_655
Rh0 Ti6 2.648986 1_565
Rh1 Ti6 2.648986 1_565
Rh2 Ti6 2.624592 1_555
Rh2 Ti7 2.624592 1_556
Rh3 Ti7 2.648986 1_555
Rh4 Ti7 2.648986 1_555
Rh6 Ti7 2.513615 1_555
Rh6 Ti6 2.513615 1_565
