# generated using pymatgen
data_Na2Pd3Au3O8
_symmetry_space_group_name_H-M   'P 1'
_cell_length_a   5.77460348
_cell_length_b   5.76905831
_cell_length_c   5.82540971
_cell_angle_alpha   90.00000000
_cell_angle_beta   90.00000000
_cell_angle_gamma   90.00000000
_symmetry_Int_Tables_number   1
_chemical_formula_structural   Na2Pd3Au3O8
_chemical_formula_sum   'Na2 Pd3 Au3 O8'
_cell_volume   194.06784000
_cell_formula_units_Z   1
loop_
 _symmetry_equiv_pos_site_id
 _symmetry_equiv_pos_as_xyz
  1  'x, y, z'
loop_
 _atom_site_type_symbol
 _atom_site_label
 _atom_site_symmetry_multiplicity
 _atom_site_fract_x
 _atom_site_fract_y
 _atom_site_fract_z
 _atom_site_occupancy
  Na  Na0  1  0.49811877  0.50000000  0.50000000  1
  Na  Na1  1  0.00236044  0.00000000  0.00000000  1
  Pd  Pd0  1  0.25008566  0.00000000  0.50000000  1
  Pd  Pd1  1  0.49768916  0.74924216  0.00000000  1
  Pd  Pd2  1  0.49768916  0.25075784  0.00000000  1
  Au  Au0  1  0.74836361  0.00000000  0.50000000  1
  Au  Au1  1  0.00245966  0.50000000  0.24875593  1
  Au  Au2  1  0.00245966  0.50000000  0.75124407  1
  O  O0  1  0.74697124  0.25056695  0.24581470  1
  O  O1  1  0.25322223  0.24698980  0.74953021  1
  O  O2  1  0.25322223  0.75301020  0.25046979  1
  O  O3  1  0.74697124  0.74943305  0.75418530  1
  O  O4  1  0.25322223  0.24698980  0.25046979  1
  O  O5  1  0.74697124  0.74943305  0.24581470  1
  O  O6  1  0.74697124  0.25056695  0.75418530  1
  O  O7  1  0.25322223  0.75301020  0.74953021  1
loop_
_geom_bond_atom_site_label_1
_geom_bond_atom_site_label_2
_geom_bond_distance
_geom_bond_site_symmetry_2
Na0 O7 2.498685 1_555
Na0 O2 2.498685 1_555
Na0 O1 2.498685 1_555
Na0 O4 2.498685 1_555
Na0 O3 2.515614 1_555
Na0 O6 2.515614 1_555
Na0 O5 2.515614 1_555
Na0 O0 2.515614 1_555
Na1 O4 2.501559 1_555
Na1 O2 2.501559 1_545
Na1 O1 2.501559 1_554
Na1 O7 2.501559 1_544
Na1 O0 2.512979 1_455
Na1 O5 2.512979 1_445
Na1 O6 2.512979 1_454
Na1 O3 2.512979 1_444
Au0 O6 2.069350 1_555
Au0 O3 2.069350 1_545
Au0 O0 2.069350 1_555
Au0 O5 2.069350 1_545
Au1 O2 2.056084 1_555
Au1 O4 2.056084 1_555
Au1 O5 2.060980 1_455
Au1 O0 2.060980 1_455
Au2 O7 2.056084 1_555
Au2 O1 2.056084 1_555
Au2 O3 2.060980 1_455
Au2 O6 2.060980 1_455
O0 Pd2 2.030448 1_555
O1 Pd2 2.030347 1_556
O1 Pd0 2.035599 1_555
O2 Pd1 2.030347 1_555
O2 Pd0 2.035599 1_565
O3 Pd1 2.030448 1_556
O4 Pd2 2.030347 1_555
O4 Pd0 2.035599 1_555
O5 Pd1 2.030448 1_555
O6 Pd2 2.030448 1_556
O7 Pd1 2.030347 1_556
O7 Pd0 2.035599 1_565
