# generated using pymatgen
data_Ti4NbTe4
_symmetry_space_group_name_H-M   'P 1'
_cell_length_a   7.50653773
_cell_length_b   7.50653808
_cell_length_c   7.50653716
_cell_angle_alpha   93.58001732
_cell_angle_beta   93.58000901
_cell_angle_gamma   151.05861218
_symmetry_Int_Tables_number   1
_chemical_formula_structural   Ti4NbTe4
_chemical_formula_sum   'Ti4 Nb1 Te4'
_cell_volume   198.19229593
_cell_formula_units_Z   1
loop_
 _symmetry_equiv_pos_site_id
 _symmetry_equiv_pos_as_xyz
  1  'x, y, z'
loop_
 _atom_site_type_symbol
 _atom_site_label
 _atom_site_symmetry_multiplicity
 _atom_site_fract_x
 _atom_site_fract_y
 _atom_site_fract_z
 _atom_site_occupancy
  Ti  Ti0  1  0.61356752  0.68303452  0.29660204  1
  Ti  Ti1  1  0.38643248  0.31696548  0.70339796  1
  Ti  Ti2  1  0.31696548  0.61356752  0.93053300  1
  Ti  Ti3  1  0.68303452  0.38643248  0.06946700  1
  Nb  Nb0  1  0.00000000  0.00000000  0.00000000  1
  Te  Te0  1  0.72012671  0.93561512  0.65574183  1
  Te  Te1  1  0.27987329  0.06438488  0.34425817  1
  Te  Te2  1  0.06438488  0.72012671  0.78451259  1
  Te  Te3  1  0.93561512  0.27987329  0.21548741  1
loop_
_geom_bond_atom_site_label_1
_geom_bond_atom_site_label_2
_geom_bond_distance
_geom_bond_site_symmetry_2
Nb0 Ti0 2.901898 1_445
Nb0 Ti1 2.901898 1_554
Nb0 Ti2 2.901899 1_444
Nb0 Ti3 2.901899 1_555
Nb0 Ti2 2.901899 1_554
Nb0 Ti3 2.901899 1_445
Nb0 Ti0 2.901899 1_555
Nb0 Ti1 2.901899 1_444
Nb0 Te3 2.951976 1_455
Nb0 Te2 2.951976 1_544
Nb0 Te1 2.951980 1_555
Nb0 Te0 2.951980 1_444
Te0 Ti2 2.802726 1_555
Te0 Ti2 2.802726 1_665
Te0 Ti1 2.815712 1_665
Te0 Ti1 2.815712 1_555
Te0 Ti0 2.817886 1_555
Te1 Ti3 2.802726 1_555
Te1 Ti3 2.802726 1_445
Te1 Ti0 2.815712 1_445
Te1 Ti0 2.815712 1_555
Te1 Ti1 2.817886 1_555
Te2 Ti1 2.802726 1_455
Te2 Ti1 2.802729 1_565
Te2 Ti3 2.815705 1_456
Te2 Ti3 2.815708 1_566
Te2 Ti2 2.817883 1_555
Te3 Ti0 2.802726 1_655
Te3 Ti0 2.802729 1_545
Te3 Ti2 2.815705 1_654
Te3 Ti2 2.815708 1_544
Te3 Ti3 2.817883 1_555
