# generated using pymatgen
data_SrUO4
_symmetry_space_group_name_H-M   'P 1'
_cell_length_a   6.59515279
_cell_length_b   6.59515200
_cell_length_c   6.59515293
_cell_angle_alpha   34.54717745
_cell_angle_beta   34.54719596
_cell_angle_gamma   34.54718194
_symmetry_Int_Tables_number   1
_chemical_formula_structural   SrUO4
_chemical_formula_sum   'Sr1 U1 O4'
_cell_volume   82.30568888
_cell_formula_units_Z   1
loop_
 _symmetry_equiv_pos_site_id
 _symmetry_equiv_pos_as_xyz
  1  'x, y, z'
loop_
 _atom_site_type_symbol
 _atom_site_label
 _atom_site_symmetry_multiplicity
 _atom_site_fract_x
 _atom_site_fract_y
 _atom_site_fract_z
 _atom_site_occupancy
  Sr  Sr0  1  0.50000000  0.50000000  0.50000000  1
  U  U0  1  0.00000000  -0.00000000  0.00000000  1
  O  O0  1  0.35948185  0.35948185  0.35948185  1
  O  O1  1  0.10617504  0.10617504  0.10617504  1
  O  O2  1  0.64051815  0.64051815  0.64051815  1
  O  O3  1  0.89382496  0.89382496  0.89382496  1
loop_
_geom_bond_atom_site_label_1
_geom_bond_atom_site_label_2
_geom_bond_distance
_geom_bond_site_symmetry_2
O0 U0 2.312921 1_565
O0 U0 2.312922 1_556
O0 U0 2.312922 1_655
O0 Sr0 2.611686 1_555
O1 U0 1.973381 1_555
O1 Sr0 2.525365 1_545
O1 Sr0 2.525365 1_554
O1 Sr0 2.525366 1_455
O2 U0 2.312921 1_656
O2 U0 2.312922 1_665
O2 U0 2.312922 1_566
O2 Sr0 2.611686 1_555
O3 U0 1.973381 1_666
O3 Sr0 2.525365 1_565
O3 Sr0 2.525365 1_556
O3 Sr0 2.525366 1_655
