# generated using pymatgen
data_InAg(IO3)4
_symmetry_space_group_name_H-M   'P 1'
_cell_length_a   4.98991799
_cell_length_b   7.33483786
_cell_length_c   15.44698371
_cell_angle_alpha   78.47804497
_cell_angle_beta   90.00000000
_cell_angle_gamma   90.00000000
_symmetry_Int_Tables_number   1
_chemical_formula_structural   InAg(IO3)4
_chemical_formula_sum   'In2 Ag2 I8 O24'
_cell_volume   553.97023494
_cell_formula_units_Z   2
loop_
 _symmetry_equiv_pos_site_id
 _symmetry_equiv_pos_as_xyz
  1  'x, y, z'
loop_
 _atom_site_type_symbol
 _atom_site_label
 _atom_site_symmetry_multiplicity
 _atom_site_fract_x
 _atom_site_fract_y
 _atom_site_fract_z
 _atom_site_occupancy
  In  In0  1  0.50000000  0.00000000  0.00000000  1
  In  In1  1  0.00000000  0.00000000  0.50000000  1
  Ag  Ag0  1  0.50000000  0.50000000  0.00000000  1
  Ag  Ag1  1  0.00000000  0.50000000  0.50000000  1
  I  I0  1  0.91721622  0.66553678  0.16381378  1
  I  I1  1  0.41721622  0.33446322  0.33618622  1
  I  I2  1  0.08278378  0.33446322  0.83618622  1
  I  I3  1  0.58278378  0.66553678  0.66381378  1
  I  I4  1  0.99162287  0.17855710  0.14070330  1
  I  I5  1  0.49162287  0.82144290  0.35929670  1
  I  I6  1  0.00837713  0.82144290  0.85929670  1
  I  I7  1  0.50837713  0.17855710  0.64070330  1
  O  O0  1  0.67831749  0.74830540  0.07335669  1
  O  O1  1  0.17831749  0.25169460  0.42664331  1
  O  O2  1  0.32168251  0.25169460  0.92664331  1
  O  O3  1  0.82168251  0.74830540  0.57335669  1
  O  O4  1  0.81441712  0.82476596  0.23368910  1
  O  O5  1  0.31441712  0.17523404  0.26631090  1
  O  O6  1  0.18558288  0.17523404  0.76631090  1
  O  O7  1  0.68558288  0.82476596  0.73368910  1
  O  O8  1  0.73034215  0.45553314  0.20777529  1
  O  O9  1  0.23034215  0.54446686  0.29222471  1
  O  O10  1  0.26965785  0.54446686  0.79222471  1
  O  O11  1  0.76965785  0.45553314  0.70777529  1
  O  O12  1  0.75223009  0.19157991  0.04846410  1
  O  O13  1  0.25223009  0.80842009  0.45153590  1
  O  O14  1  0.24776991  0.80842009  0.95153590  1
  O  O15  1  0.74776991  0.19157991  0.54846410  1
  O  O16  1  0.21909836  0.00681650  0.10876682  1
  O  O17  1  0.71909836  0.99318350  0.39123318  1
  O  O18  1  0.78090164  0.99318350  0.89123318  1
  O  O19  1  0.28090164  0.00681650  0.60876682  1
  O  O20  1  0.15362418  0.39427157  0.09397903  1
  O  O21  1  0.65362418  0.60572843  0.40602097  1
  O  O22  1  0.84637582  0.60572843  0.90602097  1
  O  O23  1  0.34637582  0.39427157  0.59397903  1
loop_
_geom_bond_atom_site_label_1
_geom_bond_atom_site_label_2
_geom_bond_distance
_geom_bond_site_symmetry_2
In0 O12 2.130584 1_555
In0 O14 2.130584 1_544
In0 O0 2.155983 1_545
In0 O2 2.155983 1_554
In0 O16 2.196259 1_555
In0 O18 2.196259 1_544
In1 O15 2.130584 1_455
In1 O13 2.130584 1_545
In1 O3 2.155983 1_445
In1 O1 2.155983 1_555
In1 O19 2.196259 1_555
In1 O17 2.196259 1_445
Ag0 O22 2.290501 1_554
Ag0 O20 2.290501 1_555
Ag0 O0 2.493439 1_555
Ag0 O2 2.493439 1_554
Ag0 O14 2.566239 1_554
Ag0 O12 2.566239 1_555
Ag1 O23 2.290501 1_555
Ag1 O21 2.290501 1_455
Ag1 O3 2.493439 1_455
Ag1 O1 2.493439 1_555
Ag1 O13 2.566239 1_555
Ag1 O15 2.566239 1_455
I0 O8 1.812584 1_555
I0 O4 1.815430 1_555
I0 O0 1.844768 1_555
I1 O9 1.812584 1_555
I1 O5 1.815430 1_555
I1 O1 1.844768 1_555
I2 O10 1.812584 1_555
I2 O6 1.815430 1_555
I2 O2 1.844768 1_555
I3 O11 1.812584 1_555
I3 O7 1.815430 1_555
I3 O3 1.844768 1_555
I4 O20 1.794893 1_655
I4 O16 1.834899 1_655
I4 O12 1.847108 1_555
I5 O21 1.794893 1_555
I5 O17 1.834899 1_555
I5 O13 1.847108 1_555
I6 O22 1.794893 1_455
I6 O18 1.834899 1_455
I6 O14 1.847108 1_555
I7 O23 1.794893 1_555
I7 O19 1.834899 1_555
I7 O15 1.847108 1_555
