# generated using pymatgen
data_LuAlCdPt3
_symmetry_space_group_name_H-M   'P 1'
_cell_length_a   5.09658655
_cell_length_b   5.09658582
_cell_length_c   5.09658589
_cell_angle_alpha   64.81575573
_cell_angle_beta   64.81575659
_cell_angle_gamma   64.81574754
_symmetry_Int_Tables_number   1
_chemical_formula_structural   LuAlCdPt3
_chemical_formula_sum   'Lu1 Al1 Cd1 Pt3'
_cell_volume   103.47023515
_cell_formula_units_Z   1
loop_
 _symmetry_equiv_pos_site_id
 _symmetry_equiv_pos_as_xyz
  1  'x, y, z'
loop_
 _atom_site_type_symbol
 _atom_site_label
 _atom_site_symmetry_multiplicity
 _atom_site_fract_x
 _atom_site_fract_y
 _atom_site_fract_z
 _atom_site_occupancy
  Lu  Lu0  1  0.24724591  0.24724591  0.24724591  1
  Al  Al0  1  0.62658347  0.62658347  0.62658347  1
  Cd  Cd0  1  0.99747994  0.99747994  0.99747994  1
  Pt  Pt0  1  0.62664738  0.62664738  0.12539893  1
  Pt  Pt1  1  0.62664738  0.12539893  0.62664738  1
  Pt  Pt2  1  0.12539893  0.62664738  0.62664738  1
loop_
_geom_bond_atom_site_label_1
_geom_bond_atom_site_label_2
_geom_bond_distance
_geom_bond_site_symmetry_2
Lu0 Pt2 3.000313 1_555
Lu0 Pt1 3.000313 1_555
Lu0 Pt0 3.000313 1_555
Lu0 Pt0 3.094090 1_545
Lu0 Pt2 3.094090 1_554
Lu0 Pt1 3.094090 1_554
Lu0 Pt0 3.094090 1_455
Lu0 Pt2 3.094090 1_545
Lu0 Pt1 3.094091 1_455
Al0 Pt1 2.542533 1_565
Al0 Pt0 2.542533 1_556
Al0 Pt2 2.542533 1_655
Al0 Pt1 2.554053 1_555
Al0 Pt0 2.554053 1_555
Al0 Pt2 2.554053 1_555
Al0 Cd0 3.186141 1_545
Al0 Cd0 3.186141 1_455
Al0 Cd0 3.186142 1_554
Al0 Lu0 3.202069 1_565
Al0 Lu0 3.202069 1_655
Al0 Lu0 3.202070 1_556
Cd0 Pt2 2.917497 1_655
Cd0 Pt1 2.917497 1_565
Cd0 Pt0 2.917498 1_556
Cd0 Lu0 2.999740 1_666
Cd0 Pt0 3.138809 1_566
Cd0 Pt2 3.138810 1_656
Cd0 Pt1 3.138810 1_566
Cd0 Pt2 3.138810 1_665
Cd0 Pt0 3.138810 1_656
Cd0 Pt1 3.138810 1_665
Cd0 Lu0 3.309880 1_656
Cd0 Lu0 3.309880 1_665
Cd0 Lu0 3.309880 1_566
Pt0 Pt1 2.724659 1_564
Pt0 Pt2 2.724659 1_654
Pt0 Pt1 2.738299 1_555
Pt0 Pt2 2.738299 1_555
Pt1 Pt2 2.724659 1_645
Pt1 Pt2 2.738299 1_555
