# generated using pymatgen
data_Ba4HfIrO8
_symmetry_space_group_name_H-M   'P 1'
_cell_length_a   7.33042406
_cell_length_b   7.33042270
_cell_length_c   5.78104721
_cell_angle_alpha   90.00000000
_cell_angle_beta   90.00000000
_cell_angle_gamma   133.11395923
_symmetry_Int_Tables_number   1
_chemical_formula_structural   Ba4HfIrO8
_chemical_formula_sum   'Ba4 Hf1 Ir1 O8'
_cell_volume   226.76967972
_cell_formula_units_Z   1
loop_
 _symmetry_equiv_pos_site_id
 _symmetry_equiv_pos_as_xyz
  1  'x, y, z'
loop_
 _atom_site_type_symbol
 _atom_site_label
 _atom_site_symmetry_multiplicity
 _atom_site_fract_x
 _atom_site_fract_y
 _atom_site_fract_z
 _atom_site_occupancy
  Ba  Ba0  1  0.64595585  0.35404415  0.00000000  1
  Ba  Ba1  1  0.14426174  0.85573826  0.50000000  1
  Ba  Ba2  1  0.85573826  0.14426174  0.50000000  1
  Ba  Ba3  1  0.35404415  0.64595585  0.00000000  1
  Hf  Hf0  1  0.50000000  0.50000000  0.50000000  1
  Ir  Ir0  1  0.00000000  0.00000000  0.00000000  1
  O  O0  1  0.74882007  0.74882007  0.75390180  1
  O  O1  1  0.25117993  0.25117993  0.24609820  1
  O  O2  1  0.25117993  0.25117993  0.75390180  1
  O  O3  1  0.74882007  0.74882007  0.24609820  1
  O  O4  1  0.84841184  0.15158816  0.00000000  1
  O  O5  1  0.34448692  0.65551308  0.50000000  1
  O  O6  1  0.65551308  0.34448692  0.50000000  1
  O  O7  1  0.15158816  0.84841184  0.00000000  1
loop_
_geom_bond_atom_site_label_1
_geom_bond_atom_site_label_2
_geom_bond_distance
_geom_bond_site_symmetry_2
Ba0 O4 2.723172 1_555
Ba0 O3 2.825679 1_555
Ba0 O0 2.825679 1_554
Ba0 O1 2.825680 1_555
Ba0 O2 2.825680 1_554
Ba0 O6 2.893381 1_555
Ba0 O6 2.893381 1_554
Ba0 O7 2.917297 1_545
Ba0 O7 2.917297 1_655
Ba1 O5 2.693166 1_555
Ba1 O2 2.840080 1_565
Ba1 O1 2.840080 1_565
Ba1 O0 2.840080 1_455
Ba1 O3 2.840080 1_455
Ba1 O7 2.892203 1_556
Ba1 O7 2.892203 1_555
Ba1 O6 2.920237 1_455
Ba1 O6 2.920237 1_565
Ba2 O6 2.693166 1_555
Ba2 O0 2.840080 1_545
Ba2 O3 2.840080 1_545
Ba2 O2 2.840080 1_655
Ba2 O1 2.840080 1_655
Ba2 O4 2.892203 1_555
Ba2 O4 2.892203 1_556
Ba2 O5 2.920237 1_655
Ba2 O5 2.920237 1_545
Ba3 O7 2.723172 1_555
Ba3 O1 2.825679 1_555
Ba3 O2 2.825679 1_554
Ba3 O3 2.825680 1_555
Ba3 O0 2.825680 1_554
Ba3 O5 2.893381 1_554
Ba3 O5 2.893381 1_555
Ba3 O4 2.917297 1_565
Ba3 O4 2.917297 1_455
Hf0 O0 2.064143 1_555
Hf0 O2 2.064143 1_555
Hf0 O3 2.064143 1_555
Hf0 O1 2.064143 1_555
Hf0 O6 2.091757 1_555
Hf0 O5 2.091757 1_555
Ir0 O7 2.038964 1_545
Ir0 O4 2.038964 1_455
Ir0 O1 2.042163 1_555
Ir0 O3 2.042163 1_445
Ir0 O2 2.042163 1_554
Ir0 O0 2.042163 1_444
