# generated using pymatgen
data_SrMgAlGa2
_symmetry_space_group_name_H-M   'P 1'
_cell_length_a   6.52291286
_cell_length_b   6.52291282
_cell_length_c   6.52291293
_cell_angle_alpha   140.64932574
_cell_angle_beta   140.64932558
_cell_angle_gamma   56.86870224
_symmetry_Int_Tables_number   1
_chemical_formula_structural   SrMgAlGa2
_chemical_formula_sum   'Sr1 Mg1 Al1 Ga2'
_cell_volume   110.66579478
_cell_formula_units_Z   1
loop_
 _symmetry_equiv_pos_site_id
 _symmetry_equiv_pos_as_xyz
  1  'x, y, z'
loop_
 _atom_site_type_symbol
 _atom_site_label
 _atom_site_symmetry_multiplicity
 _atom_site_fract_x
 _atom_site_fract_y
 _atom_site_fract_z
 _atom_site_occupancy
  Sr  Sr0  1  0.00000000  0.00000000  0.00000000  1
  Mg  Mg0  1  0.75000000  0.25000000  0.50000000  1
  Al  Al0  1  0.25000000  0.75000000  0.50000000  1
  Ga  Ga0  1  0.38881692  0.38881692  0.00000000  1
  Ga  Ga1  1  0.61118308  0.61118308  1.00000000  1
loop_
_geom_bond_atom_site_label_1
_geom_bond_atom_site_label_2
_geom_bond_distance
_geom_bond_site_symmetry_2
Mg0 Sr0 3.612305 1_656
Mg0 Sr0 3.612305 1_655
Mg0 Sr0 3.612305 1_666
Mg0 Sr0 3.612305 1_555
Al0 Ga1 2.712818 1_555
Al0 Ga0 2.712818 1_555
Al0 Ga0 2.712818 1_566
Al0 Ga1 2.712818 1_454
Al0 Mg0 3.105895 1_555
Al0 Mg0 3.105895 1_465
Al0 Mg0 3.105895 1_454
Al0 Mg0 3.105895 1_566
Al0 Sr0 3.612305 1_565
Al0 Sr0 3.612305 1_566
Al0 Sr0 3.612305 1_555
Al0 Sr0 3.612305 1_666
Ga0 Ga1 2.550989 1_554
Ga0 Mg0 2.712818 1_555
Ga0 Mg0 2.712818 1_454
Ga0 Sr0 3.357599 1_565
Ga0 Sr0 3.357599 1_655
Ga0 Sr0 3.357599 1_554
Ga0 Sr0 3.357599 1_666
Ga1 Mg0 2.712818 1_555
Ga1 Mg0 2.712818 1_566
Ga1 Sr0 3.357599 1_656
Ga1 Sr0 3.357599 1_566
Ga1 Sr0 3.357599 1_667
Ga1 Sr0 3.357599 1_555
