# generated using pymatgen
data_Li4As6Ir4Rh3
_symmetry_space_group_name_H-M   'P 1'
_cell_length_a   6.91845146
_cell_length_b   6.91849307
_cell_length_c   6.91845128
_cell_angle_alpha   109.45686183
_cell_angle_beta   109.36003551
_cell_angle_gamma   109.59660561
_symmetry_Int_Tables_number   1
_chemical_formula_structural   Li4As6Ir4Rh3
_chemical_formula_sum   'Li4 As6 Ir4 Rh3'
_cell_volume   254.92172768
_cell_formula_units_Z   1
loop_
 _symmetry_equiv_pos_site_id
 _symmetry_equiv_pos_as_xyz
  1  'x, y, z'
loop_
 _atom_site_type_symbol
 _atom_site_label
 _atom_site_symmetry_multiplicity
 _atom_site_fract_x
 _atom_site_fract_y
 _atom_site_fract_z
 _atom_site_occupancy
  Li  Li0  1  0.50058017  0.50153319  0.49816720  1
  Li  Li1  1  0.00336599  0.50153319  0.00095303  1
  Li  Li2  1  0.49942689  0.99749123  0.00088499  1
  Li  Li3  1  0.99660624  0.99749123  0.49806334  1
  As  As0  1  0.68722206  0.00057000  0.68778799  1
  As  As1  1  0.68707804  0.68645777  0.99937973  1
  As  As2  1  0.31293040  0.31235663  0.99942522  1
  As  As3  1  0.00002316  0.68770101  0.68767785  1
  As  As4  1  0.99998893  0.31315177  0.31316284  1
  As  As5  1  0.31278302  0.00057000  0.31334894  1
  Ir  Ir0  1  0.49999956  0.74880679  0.24880723  1
  Ir  Ir1  1  0.75063086  0.25121461  0.50058375  1
  Ir  Ir2  1  0.24936558  0.74994465  0.50057907  1
  Ir  Ir3  1  0.00000210  0.00031617  0.00031407  1
  Rh  Rh0  1  0.25043920  0.49987016  0.75030580  1
  Rh  Rh1  1  0.49999146  0.25112044  0.75112898  1
  Rh  Rh2  1  0.74956536  0.49987016  0.24943096  1
loop_
_geom_bond_atom_site_label_1
_geom_bond_atom_site_label_2
_geom_bond_distance
_geom_bond_site_symmetry_2
Li0 Rh2 2.809687 1_555
Li0 Rh0 2.835412 1_555
Li0 Rh1 2.843285 1_555
Li1 Rh0 2.809681 1_554
Li1 Rh2 2.835406 1_455
Li1 Rh1 2.843285 1_454
Li2 Rh0 2.809144 1_554
Li2 Rh2 2.835999 1_565
Li2 Rh1 2.843349 1_564
Li3 Rh2 2.809144 1_555
Li3 Rh0 2.835999 1_665
Li3 Rh1 2.843349 1_665
As0 Ir1 2.497914 1_555
As0 Ir2 2.497963 1_545
As0 Rh1 2.500246 1_555
As0 Ir3 2.502146 1_656
As0 Ir0 2.507928 1_545
As0 Li0 2.859655 1_545
As0 Li3 2.860010 1_545
As0 Li2 2.873816 1_546
As0 Li1 2.874208 1_656
As1 Rh1 2.482234 1_555
As1 Ir0 2.489694 1_556
As1 Rh0 2.492463 1_555
As1 Rh2 2.492464 1_556
As1 Ir3 2.496018 1_666
As1 Li3 2.860798 1_556
As1 Li2 2.860803 1_556
As1 Li0 2.880406 1_555
As1 Li1 2.880406 1_656
As2 Rh1 2.482381 1_555
As2 Ir0 2.489374 1_556
As2 Rh0 2.492434 1_555
As2 Rh2 2.492446 1_556
As2 Ir3 2.496054 1_556
As2 Li1 2.861138 1_556
As2 Li0 2.861143 1_556
As2 Li3 2.881268 1_445
As2 Li2 2.881269 1_546
As3 Ir2 2.488046 1_555
As3 Ir1 2.488363 1_455
As3 Ir3 2.498019 1_566
As3 Rh2 2.503117 1_455
As3 Rh0 2.503118 1_555
As3 Li2 2.863849 1_556
As3 Li3 2.863854 1_455
As3 Li1 2.864175 1_556
As3 Li0 2.864175 1_455
As4 Ir1 2.489693 1_555
As4 Ir2 2.489810 1_655
As4 Rh2 2.497835 1_555
As4 Rh0 2.497840 1_655
As4 Ir3 2.499718 1_655
As4 Li3 2.872816 1_545
As4 Li2 2.872821 1_545
As4 Li1 2.872855 1_655
As4 Li0 2.872856 1_655
As5 Ir1 2.497910 1_555
As5 Ir2 2.497958 1_545
As5 Rh1 2.500241 1_555
As5 Ir3 2.502154 1_555
As5 Ir0 2.507923 1_545
As5 Li1 2.859657 1_545
As5 Li2 2.860007 1_545
As5 Li3 2.873813 1_445
As5 Li0 2.874210 1_555
Ir0 Li2 2.805054 1_555
Ir0 Li3 2.805054 1_555
Ir0 Li0 2.805207 1_555
Ir0 Li1 2.805207 1_555
Ir0 Rh0 2.818173 1_554
Ir0 Rh2 2.818178 1_555
Ir0 Ir2 2.836106 1_555
Ir0 Ir1 2.836143 1_565
Ir1 Rh2 2.823151 1_555
Ir1 Rh0 2.823151 1_655
Ir1 Li3 2.825031 1_545
Ir1 Li2 2.825031 1_545
Ir1 Li1 2.828795 1_656
Ir1 Li0 2.828795 1_555
Ir1 Rh1 2.829193 1_555
Ir2 Rh2 2.823106 1_455
Ir2 Rh0 2.823111 1_555
Ir2 Li1 2.824617 1_555
Ir2 Li0 2.824617 1_555
Ir2 Li2 2.828441 1_556
Ir2 Li3 2.828441 1_455
Ir2 Rh1 2.829169 1_565
