# generated using pymatgen
data_Zr4TaSn3Ge
_symmetry_space_group_name_H-M   'P 1'
_cell_length_a   8.62702221
_cell_length_b   8.62702109
_cell_length_c   5.80139649
_cell_angle_alpha   90.00000000
_cell_angle_beta   90.00000000
_cell_angle_gamma   120.00000431
_symmetry_Int_Tables_number   1
_chemical_formula_structural   Zr4TaSn3Ge
_chemical_formula_sum   'Zr8 Ta2 Sn6 Ge2'
_cell_volume   373.92537385
_cell_formula_units_Z   2
loop_
 _symmetry_equiv_pos_site_id
 _symmetry_equiv_pos_as_xyz
  1  'x, y, z'
loop_
 _atom_site_type_symbol
 _atom_site_label
 _atom_site_symmetry_multiplicity
 _atom_site_fract_x
 _atom_site_fract_y
 _atom_site_fract_z
 _atom_site_occupancy
  Zr  Zr0  1  0.33333300  0.66666700  0.50000000  1
  Zr  Zr1  1  0.66666700  0.33333300  0.50000000  1
  Zr  Zr2  1  0.73597381  0.73597381  0.75042761  1
  Zr  Zr3  1  0.26402619  0.00000000  0.75042761  1
  Zr  Zr4  1  1.00000000  0.26402619  0.75042761  1
  Zr  Zr5  1  0.26402619  0.26402619  0.24957239  1
  Zr  Zr6  1  0.73597381  0.00000000  0.24957239  1
  Zr  Zr7  1  0.00000000  0.73597381  0.24957239  1
  Ta  Ta0  1  0.66666700  0.33333300  0.00000000  1
  Ta  Ta1  1  0.33333300  0.66666700  0.00000000  1
  Sn  Sn0  1  0.39467161  0.39467161  0.75703357  1
  Sn  Sn1  1  0.60532839  0.00000000  0.75703357  1
  Sn  Sn2  1  1.00000000  0.60532839  0.75703357  1
  Sn  Sn3  1  0.60532839  0.60532839  0.24296643  1
  Sn  Sn4  1  0.39467161  0.00000000  0.24296643  1
  Sn  Sn5  1  0.00000000  0.39467161  0.24296643  1
  Ge  Ge0  1  0.00000000  0.00000000  0.00000000  1
  Ge  Ge1  1  0.00000000  0.00000000  0.50000000  1
loop_
_geom_bond_atom_site_label_1
_geom_bond_atom_site_label_2
_geom_bond_distance
_geom_bond_site_symmetry_2
Ta0 Zr1 2.900698 1_555
Ta0 Zr1 2.900698 1_554
Ta1 Zr0 2.900698 1_554
Ta1 Zr0 2.900698 1_555
Sn0 Zr2 2.944671 1_555
Sn0 Ta1 3.002440 1_556
Sn0 Ta0 3.002440 1_556
Sn0 Zr3 3.004528 1_555
Sn0 Zr4 3.004528 1_455
Sn0 Zr0 3.041607 1_555
Sn0 Zr1 3.041607 1_555
Sn0 Zr5 3.071664 1_556
Sn0 Zr5 3.152356 1_555
Sn1 Zr3 2.944671 1_555
Sn1 Ta0 3.002433 1_556
Sn1 Ta1 3.002435 1_546
Sn1 Zr2 3.004528 1_545
Sn1 Zr4 3.004528 1_555
Sn1 Zr1 3.041599 1_555
Sn1 Zr0 3.041602 1_545
Sn1 Zr6 3.071664 1_556
Sn1 Zr6 3.152356 1_555
Sn2 Zr4 2.944671 1_555
Sn2 Ta1 3.002433 1_656
Sn2 Ta0 3.002435 1_556
Sn2 Zr3 3.004528 1_665
Sn2 Zr2 3.004528 1_555
Sn2 Zr0 3.041599 1_655
Sn2 Zr1 3.041602 1_555
Sn2 Zr7 3.071664 1_656
Sn2 Zr7 3.152356 1_655
Sn3 Zr5 2.944671 1_555
Sn3 Ta0 3.002440 1_555
Sn3 Ta1 3.002440 1_555
Sn3 Zr6 3.004528 1_565
Sn3 Zr7 3.004528 1_655
Sn3 Zr1 3.041607 1_555
Sn3 Zr0 3.041607 1_555
Sn3 Zr2 3.071664 1_554
Sn3 Zr2 3.152356 1_555
Sn4 Zr6 2.944671 1_555
Sn4 Ta1 3.002433 1_545
Sn4 Ta0 3.002435 1_555
Sn4 Zr7 3.004528 1_545
Sn4 Zr5 3.004528 1_555
Sn4 Zr0 3.041599 1_545
Sn4 Zr1 3.041602 1_555
Sn4 Zr3 3.071664 1_554
Sn4 Zr3 3.152356 1_555
Sn5 Zr7 2.944671 1_555
Sn5 Ta0 3.002433 1_455
Sn5 Ta1 3.002435 1_555
Sn5 Zr6 3.004528 1_455
Sn5 Zr5 3.004528 1_555
Sn5 Zr1 3.041599 1_455
Sn5 Zr0 3.041602 1_555
Sn5 Zr4 3.071664 1_454
Sn5 Zr4 3.152356 1_455
Ge0 Zr7 2.698983 1_545
Ge0 Zr2 2.698983 1_444
Ge0 Zr5 2.698983 1_555
Ge0 Zr4 2.698983 1_454
Ge0 Zr3 2.698984 1_554
Ge0 Zr6 2.698984 1_455
Ge1 Zr7 2.701648 1_545
Ge1 Zr2 2.701648 1_445
Ge1 Zr4 2.701648 1_455
Ge1 Zr5 2.701648 1_555
Ge1 Zr3 2.701648 1_555
Ge1 Zr6 2.701648 1_455
