# generated using pymatgen
data_CaP2OsRu
_symmetry_space_group_name_H-M   'P 1'
_cell_length_a   5.68266158
_cell_length_b   5.68266129
_cell_length_c   5.68266083
_cell_angle_alpha   138.03483582
_cell_angle_beta   138.03483619
_cell_angle_gamma   60.84964537
_symmetry_Int_Tables_number   1
_chemical_formula_structural   CaP2OsRu
_chemical_formula_sum   'Ca1 P2 Os1 Ru1'
_cell_volume   81.15979957
_cell_formula_units_Z   1
loop_
 _symmetry_equiv_pos_site_id
 _symmetry_equiv_pos_as_xyz
  1  'x, y, z'
loop_
 _atom_site_type_symbol
 _atom_site_label
 _atom_site_symmetry_multiplicity
 _atom_site_fract_x
 _atom_site_fract_y
 _atom_site_fract_z
 _atom_site_occupancy
  Ca  Ca0  1  0.00000000  0.00000000  0.00000000  1
  P  P0  1  0.63418230  0.63418230  1.00000000  1
  P  P1  1  0.36581770  0.36581770  0.00000000  1
  Os  Os0  1  0.75000000  0.25000000  0.50000000  1
  Ru  Ru0  1  0.25000000  0.75000000  0.50000000  1
loop_
_geom_bond_atom_site_label_1
_geom_bond_atom_site_label_2
_geom_bond_distance
_geom_bond_site_symmetry_2
Ca0 P1 3.163965 1_556
Ca0 P0 3.163965 1_443
Ca0 P0 3.163965 1_454
Ca0 P1 3.163965 1_545
Ca0 P1 3.163965 1_455
Ca0 P0 3.163965 1_544
Ca0 P0 3.163966 1_555
Ca0 P1 3.163966 1_444
Ca0 Os0 3.184887 1_454
Ca0 Ru0 3.184887 1_545
Ca0 Os0 3.184887 1_455
Ca0 Ru0 3.184887 1_544
Ca0 Ru0 3.184888 1_555
Ca0 Os0 3.184888 1_444
Ca0 Ru0 3.184888 1_444
Ca0 Os0 3.184888 1_555
P0 Ru0 2.330026 1_555
P0 Ru0 2.330026 1_656
P0 P1 2.630041 1_556
P1 Ru0 2.330026 1_555
P1 Ru0 2.330026 1_544
Os0 P1 2.330026 1_555
Os0 P0 2.330026 1_555
Os0 P0 2.330026 1_544
Os0 P1 2.330026 1_656
