# generated using pymatgen
data_Zn3PI2Br
_symmetry_space_group_name_H-M   'P 1'
_cell_length_a   4.11900267
_cell_length_b   6.79341827
_cell_length_c   7.28164937
_cell_angle_alpha   88.91948345
_cell_angle_beta   90.00000000
_cell_angle_gamma   90.00000000
_symmetry_Int_Tables_number   1
_chemical_formula_structural   Zn3PI2Br
_chemical_formula_sum   'Zn3 P1 I2 Br1'
_cell_volume   203.71966782
_cell_formula_units_Z   1
loop_
 _symmetry_equiv_pos_site_id
 _symmetry_equiv_pos_as_xyz
  1  'x, y, z'
loop_
 _atom_site_type_symbol
 _atom_site_label
 _atom_site_symmetry_multiplicity
 _atom_site_fract_x
 _atom_site_fract_y
 _atom_site_fract_z
 _atom_site_occupancy
  Zn  Zn0  1  0.00000000  0.46577412  0.71290583  1
  Zn  Zn1  1  0.50000000  0.50588519  0.11329160  1
  Zn  Zn2  1  0.50000000  0.03661173  0.86023438  1
  P  P0  1  0.50000000  0.37274690  0.82744260  1
  I  I0  1  0.00000000  0.87418085  0.66700061  1
  I  I1  1  0.00000000  0.37676829  0.32902554  1
  Br  Br0  1  0.50000000  0.86403193  0.15675043  1
loop_
_geom_bond_atom_site_label_1
_geom_bond_atom_site_label_2
_geom_bond_distance
_geom_bond_site_symmetry_2
P0 Zn1 2.285060 1_556
P0 Zn2 2.291474 1_555
P0 Zn0 2.305784 1_555
P0 Zn0 2.305784 1_655
I0 Zn2 2.738165 1_465
I0 Zn2 2.738165 1_565
I0 Zn0 2.788276 1_555
I1 Zn1 2.725194 1_455
I1 Zn1 2.725194 1_555
I1 Zn0 2.871054 1_555
Br0 Zn2 2.437394 1_564
Br0 Zn1 2.459444 1_555
