# generated using pymatgen
data_Y2U3O11
_symmetry_space_group_name_H-M   'P 1'
_cell_length_a   9.96308327
_cell_length_b   9.96308327
_cell_length_c   9.96308327
_cell_angle_alpha   158.10934254
_cell_angle_beta   148.28672455
_cell_angle_gamma   38.86867135
_symmetry_Int_Tables_number   1
_chemical_formula_structural   Y2U3O11
_chemical_formula_sum   'Y2 U3 O11'
_cell_volume   193.53328241
_cell_formula_units_Z   1
loop_
 _symmetry_equiv_pos_site_id
 _symmetry_equiv_pos_as_xyz
  1  'x, y, z'
loop_
 _atom_site_type_symbol
 _atom_site_label
 _atom_site_symmetry_multiplicity
 _atom_site_fract_x
 _atom_site_fract_y
 _atom_site_fract_z
 _atom_site_occupancy
  Y  Y0  1  0.79709500  0.79709500  0.00000000  1
  Y  Y1  1  0.20290500  0.20290500  0.00000000  1
  U  U0  1  0.59817300  0.59817300  0.00000000  1
  U  U1  1  0.00000000  0.00000000  0.00000000  1
  U  U2  1  0.40182700  0.40182700  0.00000000  1
  O  O0  1  0.07073200  0.30750800  0.76322400  1
  O  O1  1  0.45571500  0.69249200  0.76322400  1
  O  O2  1  0.54428500  0.30750800  0.23677600  1
  O  O3  1  0.86234600  0.10064600  0.76170100  1
  O  O4  1  0.92926800  0.69249200  0.23677600  1
  O  O5  1  0.21933300  0.50000000  0.71933300  1
  O  O6  1  0.33894500  0.10064600  0.23829900  1
  O  O7  1  0.50000000  0.00000000  0.50000000  1
  O  O8  1  0.66105500  0.89935400  0.76170100  1
  O  O9  1  0.78066700  0.50000000  0.28066700  1
  O  O10  1  0.13765400  0.89935400  0.23829900  1
loop_
_geom_bond_atom_site_label_1
_geom_bond_atom_site_label_2
_geom_bond_distance
_geom_bond_site_symmetry_2
O0 U2 2.191571 1_556
O0 Y1 2.350599 1_556
O0 Y0 2.381317 1_445
O0 Y0 2.381317 1_456
O1 U0 2.191565 1_556
O1 Y0 2.350609 1_556
O1 Y1 2.381314 1_566
O1 Y1 2.381317 1_555
O2 U2 2.191565 1_555
O2 Y1 2.350609 1_555
O2 Y0 2.381314 1_545
O2 Y0 2.381317 1_556
O3 U1 2.293461 1_656
O3 Y1 2.318533 1_656
O3 U0 2.368719 1_556
O3 U0 2.368722 1_545
O4 U0 2.191571 1_555
O4 Y0 2.350599 1_555
O4 Y1 2.381317 1_655
O4 Y1 2.381317 1_666
O5 U1 2.237089 1_555
O5 U1 2.237089 1_566
O5 U0 2.395441 1_556
O5 U2 2.395441 1_556
O6 U1 2.293467 1_555
O6 Y1 2.318524 1_555
O6 U0 2.368722 1_545
O6 U0 2.368722 1_556
O7 U0 2.642289 1_556
O7 U0 2.642289 1_545
O7 U2 2.642289 1_556
O7 U2 2.642289 1_545
O7 U1 2.722226 1_555
O7 U1 2.722226 1_656
O8 U1 2.293467 1_666
O8 Y0 2.318524 1_556
O8 U2 2.368722 1_555
O8 U2 2.368722 1_566
O9 U1 2.237089 1_655
O9 U1 2.237089 1_666
O9 U0 2.395441 1_555
O9 U2 2.395441 1_555
O10 U1 2.293461 1_565
O10 Y0 2.318533 1_455
O10 U2 2.368719 1_555
O10 U2 2.368722 1_566
