# generated using pymatgen
data_Zr2(ScRe8)3
_symmetry_space_group_name_H-M   'P 1'
_cell_length_a   8.42962026
_cell_length_b   8.43066150
_cell_length_c   8.42962047
_cell_angle_alpha   109.47691683
_cell_angle_beta   109.45482501
_cell_angle_gamma   109.47691247
_symmetry_Int_Tables_number   1
_chemical_formula_structural   Zr2(ScRe8)3
_chemical_formula_sum   'Zr2 Sc3 Re24'
_cell_volume   461.19290216
_cell_formula_units_Z   1
loop_
 _symmetry_equiv_pos_site_id
 _symmetry_equiv_pos_as_xyz
  1  'x, y, z'
loop_
 _atom_site_type_symbol
 _atom_site_label
 _atom_site_symmetry_multiplicity
 _atom_site_fract_x
 _atom_site_fract_y
 _atom_site_fract_z
 _atom_site_occupancy
  Zr  Zr0  1  0.36974469  0.36942690  0.36974469  1
  Zr  Zr1  1  0.00031779  0.63057310  0.00031779  1
  Sc  Sc0  1  0.63039439  0.00000000  0.00036120  1
  Sc  Sc1  1  0.00036120  1.00000000  0.63039439  1
  Sc  Sc2  1  0.99752789  1.00000000  0.99752789  1
  Re  Re0  1  0.99822790  0.39562951  0.67592848  1
  Re  Re1  1  0.28029996  0.60437049  0.60259839  1
  Re  Re2  1  0.72113532  0.32527068  0.32344598  1
  Re  Re3  1  0.32388827  0.72116127  0.32388827  1
  Re  Re4  1  0.67637442  0.00000000  0.39638799  1
  Re  Re5  1  0.99817630  0.67472932  0.39586665  1
  Re  Re6  1  0.60259839  0.60437049  0.28029996  1
  Re  Re7  1  0.80783057  0.80871190  0.18540498  1
  Re  Re8  1  0.37669308  0.19128810  0.99911767  1
  Re  Re9  1  0.19344830  0.37627975  0.99930248  1
  Re  Re10  1  0.62429079  0.81574814  0.62429079  1
  Re  Re11  1  0.37802265  1.00000000  0.19375295  1
  Re  Re12  1  0.99930248  0.37627975  0.19344830  1
  Re  Re13  1  0.81716755  0.62372025  0.62302273  1
  Re  Re14  1  0.18540498  0.80871190  0.80783057  1
  Re  Re15  1  0.80854266  0.18425186  0.80854266  1
  Re  Re16  1  0.19375295  1.00000000  0.37802265  1
  Re  Re17  1  0.99911767  0.19128810  0.37669308  1
  Re  Re18  1  0.62302273  0.62372025  0.81716755  1
  Re  Re19  1  0.39638799  0.00000000  0.67637442  1
  Re  Re20  1  0.60272599  0.27883873  0.60272599  1
  Re  Re21  1  0.67592848  0.39562951  0.99822790  1
  Re  Re22  1  0.39586665  0.67472932  0.99817630  1
  Re  Re23  1  0.32344598  0.32527068  0.72113532  1
loop_
_geom_bond_atom_site_label_1
_geom_bond_atom_site_label_2
_geom_bond_distance
_geom_bond_site_symmetry_2
Sc0 Sc2 3.102833 1_544
Sc1 Sc2 3.102833 1_455
Sc2 Zr1 3.130275 1_656
Sc2 Zr0 3.130275 1_666
Re0 Re17 2.540469 1_555
Re0 Re15 2.757006 1_555
Re0 Re9 2.766363 1_655
Re0 Zr1 2.780964 1_656
Re0 Re2 2.813173 1_555
Re0 Re1 2.836708 1_655
Re0 Re13 2.881285 1_555
Re0 Re14 2.904984 1_655
Re0 Re20 2.915600 1_555
Re0 Re4 2.916187 1_555
Re0 Re23 2.924370 1_655
Re0 Re22 2.926412 1_655
Re0 Sc1 3.234737 1_645
Re1 Re14 2.540480 1_555
Re1 Re10 2.756999 1_555
Re1 Re18 2.766354 1_555
Re1 Zr0 2.780957 1_555
Re1 Re5 2.813167 1_455
Re1 Re12 2.881281 1_455
Re1 Re17 2.904988 1_455
Re1 Re3 2.915592 1_555
Re1 Re19 2.916188 1_565
Re1 Re22 2.924378 1_555
Re1 Re23 2.926398 1_555
Re1 Sc0 3.234736 1_566
Re2 Re8 2.765257 1_554
Re2 Sc0 2.784874 1_555
Re2 Re5 2.787328 1_555
Re2 Re21 2.924370 1_554
Re2 Re6 2.926398 1_555
Re2 Re20 2.934485 1_555
Re2 Re4 2.937569 1_555
Re2 Zr0 3.236262 1_555
Re3 Re9 2.776376 1_554
Re3 Zr1 2.780035 1_555
Re3 Re4 2.811203 1_565
Re3 Re6 2.915592 1_555
Re3 Re5 2.934489 1_455
Re3 Zr0 3.243673 1_555
Re4 Re7 2.753842 1_545
Re4 Sc1 2.785910 1_645
Re4 Re6 2.916188 1_545
Re4 Sc0 3.230004 1_555
Re5 Re7 2.765266 1_555
Re5 Sc1 2.784872 1_655
Re5 Re6 2.924378 1_555
Re5 Zr1 3.236276 1_655
Re6 Re7 2.540480 1_555
Re6 Zr0 2.780957 1_555
Re6 Re9 2.881281 1_554
Re6 Re8 2.904988 1_554
Re6 Sc1 3.234736 1_655
Re7 Sc0 3.000493 1_565
Re7 Zr1 3.011877 1_655
Re7 Sc2 3.055565 1_554
Re7 Sc1 3.077459 1_655
Re8 Re9 2.534740 1_555
Re8 Sc1 3.000489 1_545
Re8 Zr0 3.011885 1_556
Re8 Sc2 3.055570 1_445
Re8 Sc0 3.077458 1_556
Re9 Sc1 2.998301 1_545
Re9 Zr0 3.008211 1_556
Re9 Sc2 3.041275 1_445
Re9 Zr1 3.093732 1_556
Re10 Re15 2.536535 1_565
Re10 Re3 2.548744 1_555
Re10 Re13 2.649493 1_555
Re10 Re18 2.649493 1_555
Re10 Re6 2.756999 1_555
Re10 Re19 2.897165 1_565
Re10 Re4 2.897165 1_565
Re10 Sc0 3.003254 1_566
Re10 Sc1 3.003254 1_655
Re10 Sc2 3.016386 1_555
Re10 Zr0 3.087337 1_555
Re11 Re4 2.526117 1_565
Re11 Re16 2.536310 1_555
Re11 Re14 2.656502 1_554
Re11 Re8 2.656509 1_564
Re11 Re2 2.772352 1_565
Re11 Re22 2.772359 1_554
Re11 Re20 2.876736 1_565
Re11 Re3 2.876742 1_555
Re11 Zr0 3.006433 1_565
Re11 Zr1 3.006433 1_555
Re11 Sc2 3.080513 1_454
Re11 Sc0 3.081176 1_565
Re12 Re5 2.531047 1_555
Re12 Re17 2.534740 1_555
Re12 Re15 2.649500 1_554
Re12 Re9 2.672246 1_654
Re12 Re21 2.766363 1_554
Re12 Re3 2.776376 1_655
Re12 Re2 2.870111 1_555
Re12 Sc0 2.998301 1_555
Re12 Zr0 3.008211 1_655
Re12 Sc2 3.041275 1_544
Re12 Zr1 3.093733 1_655
Re13 Re2 2.531049 1_555
Re13 Re14 2.534747 1_655
Re13 Re18 2.672233 1_555
Re13 Re6 2.766354 1_555
Re13 Re20 2.776372 1_555
Re13 Re5 2.870107 1_555
Re13 Sc1 2.998302 1_655
Re13 Zr1 3.008212 1_656
Re13 Sc2 3.041273 1_555
Re13 Zr0 3.093726 1_555
Re14 Re8 2.633400 1_565
Re14 Re19 2.753842 1_565
Re14 Re22 2.765266 1_555
Re14 Re5 2.893248 1_455
Re14 Sc1 3.000493 1_555
Re14 Zr1 3.011878 1_556
Re14 Sc2 3.055565 1_455
Re14 Sc0 3.077459 1_566
Re15 Re20 2.548753 1_555
Re15 Re9 2.649500 1_655
Re15 Re21 2.757006 1_555
Re15 Re4 2.897165 1_555
Re15 Re19 2.897165 1_555
Re15 Sc1 3.003254 1_645
Re15 Sc0 3.003254 1_556
Re15 Sc2 3.016386 1_545
Re15 Zr1 3.087337 1_656
Re16 Re19 2.526117 1_565
Re16 Re7 2.656502 1_455
Re16 Re17 2.656508 1_465
Re16 Re23 2.772352 1_565
Re16 Re5 2.772359 1_455
Re16 Re20 2.876736 1_565
Re16 Re3 2.876742 1_555
Re16 Zr0 3.006433 1_565
Re16 Zr1 3.006433 1_555
Re16 Sc2 3.080513 1_454
Re16 Sc1 3.081176 1_555
Re17 Re7 2.633400 1_545
Re17 Re4 2.753835 1_555
Re17 Re23 2.765257 1_655
Re17 Re2 2.893255 1_555
Re17 Sc0 3.000489 1_555
Re17 Zr0 3.011885 1_655
Re17 Sc2 3.055570 1_544
Re17 Sc1 3.077458 1_645
Re18 Re23 2.531049 1_555
Re18 Re7 2.534747 1_556
Re18 Re20 2.776372 1_555
Re18 Re22 2.870107 1_555
Re18 Re21 2.881285 1_555
Re18 Sc0 2.998302 1_566
Re18 Zr1 3.008212 1_656
Re18 Sc2 3.041273 1_555
Re18 Zr0 3.093726 1_555
Re19 Re8 2.753835 1_555
Re19 Sc0 2.785910 1_556
Re19 Re3 2.811203 1_545
Re19 Re20 2.811206 1_555
Re19 Re21 2.916187 1_555
Re19 Re5 2.937563 1_445
Re19 Re23 2.937569 1_555
Re19 Sc1 3.230004 1_545
Re20 Zr0 2.780026 1_555
Re20 Re4 2.811206 1_555
Re20 Re21 2.915600 1_555
Re20 Re23 2.934485 1_555
Re20 Zr1 3.243679 1_656
Re21 Re8 2.540469 1_555
Re21 Zr1 2.780964 1_656
Re21 Re23 2.813173 1_555
Re21 Re6 2.836708 1_556
Re21 Re7 2.904984 1_556
Re21 Re5 2.926412 1_556
Re21 Sc0 3.234737 1_556
Re22 Re9 2.531047 1_555
Re22 Sc0 2.784872 1_566
Re22 Re23 2.787328 1_555
Re22 Re6 2.813167 1_556
Re22 Re7 2.893248 1_556
Re22 Re3 2.934489 1_556
Re22 Re4 2.937563 1_566
Re22 Zr1 3.236276 1_556
Re23 Sc1 2.784874 1_545
Re23 Re9 2.870111 1_555
Re23 Re8 2.893255 1_555
Re23 Zr0 3.236262 1_555
