# generated using pymatgen
data_LuTa3(NbN2)6
_symmetry_space_group_name_H-M   'P 1'
_cell_length_a   5.27418412
_cell_length_b   5.27418426
_cell_length_c   10.48154668
_cell_angle_alpha   90.00000000
_cell_angle_beta   90.00000000
_cell_angle_gamma   119.99999912
_symmetry_Int_Tables_number   1
_chemical_formula_structural   LuTa3(NbN2)6
_chemical_formula_sum   'Lu1 Ta3 Nb6 N12'
_cell_volume   252.50303002
_cell_formula_units_Z   1
loop_
 _symmetry_equiv_pos_site_id
 _symmetry_equiv_pos_as_xyz
  1  'x, y, z'
loop_
 _atom_site_type_symbol
 _atom_site_label
 _atom_site_symmetry_multiplicity
 _atom_site_fract_x
 _atom_site_fract_y
 _atom_site_fract_z
 _atom_site_occupancy
  Lu  Lu0  1  0.66666700  0.33333300  0.00000000  1
  Ta  Ta0  1  0.33333300  0.66666700  0.00000000  1
  Ta  Ta1  1  0.33333300  0.66666700  0.50000000  1
  Ta  Ta2  1  0.66666700  0.33333300  0.50000000  1
  Nb  Nb0  1  0.67756079  0.67630349  0.74687907  1
  Nb  Nb1  1  0.32369651  0.00125731  0.74687907  1
  Nb  Nb2  1  0.99874269  0.32243921  0.74687907  1
  Nb  Nb3  1  0.32369651  0.32243921  0.25312093  1
  Nb  Nb4  1  0.67756079  0.00125731  0.25312093  1
  Nb  Nb5  1  0.99874269  0.67630349  0.25312093  1
  N  N0  1  0.65520130  0.65512147  0.38376351  1
  N  N1  1  0.34487853  0.00008083  0.38376351  1
  N  N2  1  0.99991917  0.34479870  0.38376351  1
  N  N3  1  0.34487853  0.34479870  0.61623649  1
  N  N4  1  0.65520130  0.00008083  0.61623649  1
  N  N5  1  0.99991917  0.65512147  0.61623649  1
  N  N6  1  0.33863069  0.35359372  0.87359759  1
  N  N7  1  0.64640628  0.98503697  0.87359759  1
  N  N8  1  0.01496303  0.66136931  0.87359759  1
  N  N9  1  0.64640628  0.66136931  0.12640241  1
  N  N10  1  0.33863069  0.98503697  0.12640241  1
  N  N11  1  0.01496303  0.35359372  0.12640241  1
loop_
_geom_bond_atom_site_label_1
_geom_bond_atom_site_label_2
_geom_bond_distance
_geom_bond_site_symmetry_2
Lu0 N11 2.223724 1_655
Lu0 N7 2.223724 1_544
Lu0 N8 2.223726 1_654
Lu0 N10 2.223726 1_545
Lu0 N6 2.223728 1_554
Lu0 N9 2.223728 1_555
N0 Ta2 2.114481 1_555
N0 Ta1 2.115006 1_555
N0 Nb3 2.223273 1_555
N0 Nb5 2.228929 1_555
N0 Nb4 2.237512 1_565
N1 Ta2 2.114476 1_555
N1 Ta1 2.115006 1_545
N1 Nb4 2.223275 1_555
N1 Nb3 2.228925 1_555
N1 Nb5 2.237514 1_445
N2 Ta2 2.114472 1_555
N2 Ta1 2.115006 1_655
N2 Nb5 2.223271 1_555
N2 Nb4 2.228927 1_555
N2 Nb3 2.237516 1_655
N3 Ta2 2.114481 1_555
N3 Ta1 2.115006 1_555
N3 Nb0 2.223273 1_555
N3 Nb1 2.228929 1_555
N3 Nb2 2.237512 1_455
N4 Ta2 2.114472 1_555
N4 Ta1 2.115006 1_545
N4 Nb1 2.223271 1_555
N4 Nb2 2.228927 1_555
N4 Nb0 2.237516 1_545
N5 Ta2 2.114476 1_555
N5 Ta1 2.115006 1_655
N5 Nb2 2.223275 1_555
N5 Nb0 2.228925 1_555
N5 Nb1 2.237514 1_665
N6 Ta0 2.128084 1_556
N6 Nb2 2.170277 1_455
N6 Nb0 2.194075 1_555
N6 Nb1 2.253264 1_555
N7 Ta0 2.128081 1_556
N7 Nb0 2.170277 1_555
N7 Nb1 2.194075 1_565
N7 Nb2 2.253264 1_565
N8 Ta0 2.128079 1_556
N8 Nb1 2.170277 1_565
N8 Nb2 2.194075 1_455
N8 Nb0 2.253264 1_455
N9 Ta0 2.128083 1_555
N9 Nb4 2.170277 1_565
N9 Nb3 2.194075 1_555
N9 Nb5 2.253264 1_555
N10 Ta0 2.128079 1_555
N10 Nb5 2.170277 1_455
N10 Nb4 2.194075 1_565
N10 Nb3 2.253264 1_565
N11 Ta0 2.128081 1_555
N11 Nb3 2.170277 1_555
N11 Nb5 2.194075 1_455
N11 Nb4 2.253264 1_455
