# generated using pymatgen
data_Lu4Re3Os4W
_symmetry_space_group_name_H-M   'P 1'
_cell_length_a   5.39219281
_cell_length_b   5.21840349
_cell_length_c   8.85869248
_cell_angle_alpha   90.00000000
_cell_angle_beta   90.00000000
_cell_angle_gamma   121.10791290
_symmetry_Int_Tables_number   1
_chemical_formula_structural   Lu4Re3Os4W
_chemical_formula_sum   'Lu4 Re3 Os4 W1'
_cell_volume   213.42522959
_cell_formula_units_Z   1
loop_
 _symmetry_equiv_pos_site_id
 _symmetry_equiv_pos_as_xyz
  1  'x, y, z'
loop_
 _atom_site_type_symbol
 _atom_site_label
 _atom_site_symmetry_multiplicity
 _atom_site_fract_x
 _atom_site_fract_y
 _atom_site_fract_z
 _atom_site_occupancy
  Lu  Lu0  1  0.33181199  0.66362398  0.43698216  1
  Lu  Lu1  1  0.67084721  0.34169542  0.56438605  1
  Lu  Lu2  1  0.67084721  0.34169542  0.93561395  1
  Lu  Lu3  1  0.33181199  0.66362398  0.06301784  1
  Re  Re0  1  0.34469462  0.17075214  0.25000000  1
  Re  Re1  1  0.82920414  0.65840828  0.25000000  1
  Re  Re2  1  0.82605851  0.17075214  0.25000000  1
  Os  Os0  1  0.17393912  0.82379981  0.75000000  1
  Os  Os1  1  0.64985869  0.82379981  0.75000000  1
  Os  Os2  1  0.00370626  0.00741352  0.00072200  1
  Os  Os3  1  0.00370626  0.00741352  0.49927800  1
  W  W0  1  0.16351299  0.32702597  0.75000000  1
loop_
_geom_bond_atom_site_label_1
_geom_bond_atom_site_label_2
_geom_bond_distance
_geom_bond_site_symmetry_2
Lu0 Os3 2.983416 1_555
Lu0 Re2 3.090041 1_455
Lu0 Re0 3.090043 1_555
Lu0 Re0 3.092251 1_565
Lu0 Re2 3.092254 1_565
Lu0 Os1 3.138105 1_555
Lu0 Os0 3.138109 1_555
Lu0 Os3 3.151650 1_665
Lu0 Os3 3.151655 1_565
Lu0 W0 3.154502 1_555
Lu0 Re1 3.164364 1_555
Lu0 Re1 3.164364 1_455
Lu0 Lu1 3.233005 1_565
Lu0 Lu1 3.257551 1_555
Lu0 Lu1 3.257555 1_455
Lu0 Lu3 3.312835 1_555
Lu1 Os3 3.029817 1_665
Lu1 Os0 3.056148 1_655
Lu1 Os1 3.056150 1_555
Lu1 Os1 3.115197 1_545
Lu1 Os0 3.115200 1_545
Lu1 Re1 3.123925 1_555
Lu1 Os3 3.135655 1_655
Lu1 Os3 3.135655 1_555
Lu1 W0 3.158628 1_555
Lu1 W0 3.158632 1_655
Lu1 Re0 3.166090 1_555
Lu1 Re2 3.166094 1_555
Lu1 Lu2 3.288594 1_555
Lu2 Os2 3.029817 1_666
Lu2 Os0 3.056148 1_655
Lu2 Os1 3.056150 1_555
Lu2 Os1 3.115197 1_545
Lu2 Os0 3.115200 1_545
Lu2 Re1 3.123925 1_556
Lu2 Os2 3.135655 1_656
Lu2 Os2 3.135655 1_556
Lu2 W0 3.158628 1_555
Lu2 W0 3.158632 1_655
Lu2 Re0 3.166090 1_556
Lu2 Re2 3.166094 1_556
Lu2 Lu3 3.233005 1_546
Lu2 Lu3 3.257551 1_556
Lu2 Lu3 3.257555 1_656
Lu3 Os2 2.983416 1_555
Lu3 Re2 3.090041 1_455
Lu3 Re0 3.090043 1_555
Lu3 Re0 3.092251 1_565
Lu3 Re2 3.092254 1_565
Lu3 Os1 3.138105 1_554
Lu3 Os0 3.138109 1_554
Lu3 Os2 3.151650 1_665
Lu3 Os2 3.151655 1_565
Lu3 W0 3.154502 1_554
Lu3 Re1 3.164364 1_555
Lu3 Re1 3.164364 1_455
Re0 Re1 2.536062 1_555
Re0 Re2 2.595607 1_555
Re0 Re1 2.682422 1_445
Re0 Re2 2.796586 1_455
Re1 Re2 2.536065 1_555
Re1 Re2 2.682420 1_565
Os0 W0 2.563772 1_555
Os0 Os1 2.566250 1_555
Os0 W0 2.655519 1_565
Os0 Os2 2.757291 1_566
Os0 Os3 2.757291 1_565
Os0 Os1 2.825943 1_455
Os1 W0 2.563767 1_555
Os1 W0 2.655525 1_665
Os1 Os2 2.757294 1_666
Os1 Os3 2.757294 1_665
Os2 W0 2.640528 1_554
Os2 Re1 2.703341 1_445
Os2 Re2 2.713723 1_455
Os2 Re0 2.713729 1_555
Os3 W0 2.640528 1_555
Os3 Re1 2.703341 1_445
Os3 Re2 2.713723 1_455
Os3 Re0 2.713729 1_555
