# generated using pymatgen
data_RbGaPH
_symmetry_space_group_name_H-M   'P 1'
_cell_length_a   3.95665618
_cell_length_b   3.95665630
_cell_length_c   6.29837219
_cell_angle_alpha   90.00000000
_cell_angle_beta   90.00000000
_cell_angle_gamma   119.99999898
_symmetry_Int_Tables_number   1
_chemical_formula_structural   RbGaPH
_chemical_formula_sum   'Rb1 Ga1 P1 H1'
_cell_volume   85.39168742
_cell_formula_units_Z   1
loop_
 _symmetry_equiv_pos_site_id
 _symmetry_equiv_pos_as_xyz
  1  'x, y, z'
loop_
 _atom_site_type_symbol
 _atom_site_label
 _atom_site_symmetry_multiplicity
 _atom_site_fract_x
 _atom_site_fract_y
 _atom_site_fract_z
 _atom_site_occupancy
  Rb  Rb0  1  0.00000000  0.00000000  0.03815878  1
  Ga  Ga0  1  0.66666700  0.33333300  0.55922096  1
  P  P0  1  0.33333300  0.66666700  0.44135264  1
  H  H0  1  0.66666700  0.33333300  0.81836763  1
loop_
_geom_bond_atom_site_label_1
_geom_bond_atom_site_label_2
_geom_bond_distance
_geom_bond_site_symmetry_2
Ga0 H0 1.632202 1_555
Ga0 P0 2.401977 1_655
Ga0 P0 2.401977 1_545
Ga0 P0 2.401983 1_555
P0 Rb0 3.415735 1_565
P0 Rb0 3.415738 1_665
P0 Rb0 3.415738 1_555
H0 Rb0 2.671091 1_656
H0 Rb0 2.671094 1_556
H0 Rb0 2.671094 1_666
