# generated using pymatgen
data_Y2CoSi5Pt2
_symmetry_space_group_name_H-M   'P 1'
_cell_length_a   8.04087889
_cell_length_b   8.04087906
_cell_length_c   5.82955672
_cell_angle_alpha   68.76938179
_cell_angle_beta   68.76937989
_cell_angle_gamma   88.99462197
_symmetry_Int_Tables_number   1
_chemical_formula_structural   Y2CoSi5Pt2
_chemical_formula_sum   'Y4 Co2 Si10 Pt4'
_cell_volume   324.67792943
_cell_formula_units_Z   2
loop_
 _symmetry_equiv_pos_site_id
 _symmetry_equiv_pos_as_xyz
  1  'x, y, z'
loop_
 _atom_site_type_symbol
 _atom_site_label
 _atom_site_symmetry_multiplicity
 _atom_site_fract_x
 _atom_site_fract_y
 _atom_site_fract_z
 _atom_site_occupancy
  Y  Y0  1  0.86181254  0.59951715  0.76964405  1
  Y  Y1  1  0.40048285  0.13818746  0.73035595  1
  Y  Y2  1  0.13818746  0.40048285  0.23035595  1
  Y  Y3  1  0.59951715  0.86181254  0.26964405  1
  Co  Co0  1  0.00018836  0.99981164  0.75000000  1
  Co  Co1  1  0.99981164  0.00018836  0.25000000  1
  Si  Si0  1  0.04445327  0.24404048  0.85535182  1
  Si  Si1  1  0.75595952  0.95554673  0.64464818  1
  Si  Si2  1  0.95554673  0.75595952  0.14464818  1
  Si  Si3  1  0.24404048  0.04445327  0.35535182  1
  Si  Si4  1  0.21988830  0.78011170  0.75000000  1
  Si  Si5  1  0.78011170  0.21988830  0.25000000  1
  Si  Si6  1  0.50014565  0.49985435  0.75000000  1
  Si  Si7  1  0.49985435  0.50014565  0.25000000  1
  Si  Si8  1  0.78000374  0.21999626  0.75000000  1
  Si  Si9  1  0.21999626  0.78000374  0.25000000  1
  Pt  Pt0  1  0.24466212  0.52321442  0.61612726  1
  Pt  Pt1  1  0.47678558  0.75533788  0.88387274  1
  Pt  Pt2  1  0.75533788  0.47678558  0.38387274  1
  Pt  Pt3  1  0.52321442  0.24466212  0.11612726  1
loop_
_geom_bond_atom_site_label_1
_geom_bond_atom_site_label_2
_geom_bond_distance
_geom_bond_site_symmetry_2
Co0 Si1 2.327399 1_455
Co0 Si0 2.327399 1_565
Co0 Si3 2.329357 1_565
Co0 Si2 2.329357 1_456
Co0 Si4 2.476307 1_555
Co0 Si8 2.481770 1_465
Co0 Y1 3.373089 1_565
Co0 Y0 3.373090 1_455
Co0 Y3 3.377896 1_456
Co0 Y2 3.377896 1_565
Co1 Si3 2.327399 1_655
Co1 Si2 2.327399 1_545
Co1 Si1 2.329357 1_545
Co1 Si0 2.329357 1_654
Co1 Si5 2.476307 1_555
Co1 Si9 2.481770 1_645
Co1 Y3 3.373089 1_545
Co1 Y2 3.373090 1_655
Co1 Y1 3.377896 1_654
Co1 Y0 3.377896 1_545
Si0 Si8 2.445898 1_455
Si0 Si5 2.449039 1_456
Si0 Y1 2.881643 1_555
Si0 Y0 3.150608 1_455
Si0 Y2 3.185560 1_556
Si0 Y2 3.185945 1_555
Si1 Si8 2.445898 1_565
Si1 Si5 2.449039 1_565
Si1 Y0 2.881643 1_555
Si1 Y1 3.150608 1_565
Si1 Y3 3.185560 1_555
Si1 Y3 3.185945 1_556
Si2 Si9 2.445898 1_655
Si2 Si4 2.449039 1_654
Si2 Y3 2.881643 1_555
Si2 Y2 3.150608 1_655
Si2 Y0 3.185560 1_554
Si2 Y0 3.185945 1_555
Si3 Si9 2.445898 1_545
Si3 Si4 2.449039 1_545
Si3 Y2 2.881643 1_555
Si3 Y3 3.150608 1_545
Si3 Y1 3.185560 1_555
Si3 Y1 3.185945 1_554
Si4 Y3 3.184075 1_555
Si4 Y2 3.184075 1_556
Si4 Y0 3.193643 1_455
Si4 Y1 3.193643 1_565
Si5 Y1 3.184075 1_555
Si5 Y0 3.184075 1_554
Si5 Y2 3.193643 1_655
Si5 Y3 3.193643 1_545
Si6 Y0 3.082518 1_555
Si6 Y1 3.082518 1_555
Si6 Y2 3.083695 1_556
Si6 Y3 3.083696 1_555
Si7 Y2 3.082518 1_555
Si7 Y3 3.082518 1_555
Si7 Y0 3.083695 1_554
Si7 Y1 3.083696 1_555
Si8 Y1 3.183818 1_555
Si8 Y0 3.183818 1_555
Si8 Y2 3.197137 1_655
Si8 Y3 3.197137 1_546
Si9 Y3 3.183818 1_555
Si9 Y2 3.183818 1_555
Si9 Y0 3.197137 1_455
Si9 Y1 3.197137 1_564
Pt0 Si0 2.410223 1_555
Pt0 Si7 2.429387 1_555
Pt0 Si6 2.430217 1_555
Pt0 Si4 2.440551 1_555
Pt0 Si9 2.441046 1_555
Pt0 Y0 2.998376 1_455
Pt0 Y2 3.127034 1_556
Pt0 Y2 3.129823 1_555
Pt0 Y1 3.251652 1_555
Pt0 Y3 3.427796 1_555
Pt1 Si1 2.410223 1_555
Pt1 Si7 2.429387 1_556
Pt1 Si6 2.430217 1_555
Pt1 Si4 2.440551 1_555
Pt1 Si9 2.441046 1_556
Pt1 Y1 2.998377 1_565
Pt1 Y3 3.127034 1_555
Pt1 Y3 3.129823 1_556
Pt1 Y0 3.251652 1_555
Pt1 Y2 3.427796 1_556
Pt2 Si2 2.410223 1_555
Pt2 Si6 2.429387 1_555
Pt2 Si7 2.430217 1_555
Pt2 Si5 2.440551 1_555
Pt2 Si8 2.441046 1_555
Pt2 Y2 2.998376 1_655
Pt2 Y0 3.127034 1_554
Pt2 Y0 3.129823 1_555
Pt2 Y3 3.251652 1_555
Pt2 Y1 3.427796 1_555
Pt3 Si3 2.410223 1_555
Pt3 Si6 2.429387 1_554
Pt3 Si7 2.430217 1_555
Pt3 Si5 2.440551 1_555
Pt3 Si8 2.441046 1_554
Pt3 Y3 2.998377 1_545
Pt3 Y1 3.127034 1_555
Pt3 Y1 3.129823 1_554
Pt3 Y2 3.251652 1_555
Pt3 Y0 3.427796 1_554
