# generated using pymatgen
data_Bi2Te7Cl8
_symmetry_space_group_name_H-M   'P 1'
_cell_length_a   5.51943038
_cell_length_b   13.41554554
_cell_length_c   15.22185636
_cell_angle_alpha   103.39446722
_cell_angle_beta   94.95386929
_cell_angle_gamma   96.70551672
_symmetry_Int_Tables_number   1
_chemical_formula_structural   Bi2Te7Cl8
_chemical_formula_sum   'Bi4 Te14 Cl16'
_cell_volume   1081.43257147
_cell_formula_units_Z   2
loop_
 _symmetry_equiv_pos_site_id
 _symmetry_equiv_pos_as_xyz
  1  'x, y, z'
loop_
 _atom_site_type_symbol
 _atom_site_label
 _atom_site_symmetry_multiplicity
 _atom_site_fract_x
 _atom_site_fract_y
 _atom_site_fract_z
 _atom_site_occupancy
  Bi  Bi0  1  0.79842568  0.25950232  0.27544551  1
  Bi  Bi1  1  0.20157432  0.74049768  0.72455449  1
  Bi  Bi2  1  0.91237583  0.59166344  0.39072476  1
  Bi  Bi3  1  0.08762417  0.40833656  0.60927524  1
  Te  Te0  1  0.81371657  0.98413918  0.56491610  1
  Te  Te1  1  0.18628343  0.01586082  0.43508390  1
  Te  Te2  1  0.46983319  0.81009102  0.16674205  1
  Te  Te3  1  0.53016681  0.18990898  0.83325795  1
  Te  Te4  1  0.17008585  0.95806476  0.15073948  1
  Te  Te5  1  0.82991415  0.04193524  0.84926052  1
  Te  Te6  1  0.77739819  0.83870132  0.03357745  1
  Te  Te7  1  0.22260181  0.16129868  0.96642255  1
  Te  Te8  1  0.06025138  0.64996957  0.04550042  1
  Te  Te9  1  0.93974862  0.35003043  0.95449958  1
  Te  Te10  1  0.35687269  0.49219749  0.07065710  1
  Te  Te11  1  0.64312731  0.50780251  0.92934290  1
  Te  Te12  1  0.55768107  0.14759656  0.56232816  1
  Te  Te13  1  0.44231893  0.85240344  0.43767184  1
  Cl  Cl0  1  0.79999346  0.15132275  0.11122734  1
  Cl  Cl1  1  0.20000654  0.84867725  0.88877266  1
  Cl  Cl2  1  0.35578366  0.27610165  0.22994981  1
  Cl  Cl3  1  0.64421634  0.72389835  0.77005019  1
  Cl  Cl4  1  0.90698790  0.45039997  0.22411759  1
  Cl  Cl5  1  0.09301210  0.54960003  0.77588241  1
  Cl  Cl6  1  0.84809912  0.73789904  0.53809500  1
  Cl  Cl7  1  0.15190088  0.26210096  0.46190500  1
  Cl  Cl8  1  0.72157793  0.42295721  0.44303327  1
  Cl  Cl9  1  0.27842207  0.57704279  0.55696673  1
  Cl  Cl10  1  0.47103049  0.60109340  0.33182407  1
  Cl  Cl11  1  0.52896951  0.39890660  0.66817593  1
  Cl  Cl12  1  0.00907143  0.75639753  0.31131092  1
  Cl  Cl13  1  0.99092857  0.24360247  0.68868908  1
  Cl  Cl14  1  0.35229746  0.91919488  0.68995279  1
  Cl  Cl15  1  0.64770254  0.08080512  0.31004721  1
loop_
_geom_bond_atom_site_label_1
_geom_bond_atom_site_label_2
_geom_bond_distance
_geom_bond_site_symmetry_2
Bi0 Cl2 2.530687 1_555
Bi0 Cl0 2.584709 1_555
Bi0 Cl15 2.628985 1_555
Bi0 Cl4 2.859670 1_555
Bi0 Cl8 3.050967 1_555
Bi1 Cl3 2.530687 1_555
Bi1 Cl1 2.584709 1_555
Bi1 Cl14 2.628985 1_555
Bi1 Cl5 2.859670 1_555
Bi1 Cl9 3.050967 1_555
Bi2 Cl10 2.549735 1_555
Bi2 Cl6 2.695892 1_555
Bi2 Cl8 2.699739 1_555
Bi2 Cl12 2.775589 1_655
Bi2 Cl4 2.787672 1_555
Bi2 Cl9 3.156481 1_655
Bi3 Cl11 2.549735 1_555
Bi3 Cl7 2.695892 1_555
Bi3 Cl9 2.699739 1_555
Bi3 Cl13 2.775589 1_455
Bi3 Cl5 2.787672 1_555
Bi3 Cl8 3.156481 1_455
Te0 Te12 2.749797 1_565
Te0 Te13 2.821227 1_555
Te0 Te1 3.033576 1_665
Te1 Te13 2.749797 1_545
Te1 Te12 2.821227 1_555
Te2 Te4 2.767441 1_555
Te2 Te6 2.817885 1_555
Te2 Te8 3.072389 1_555
Te3 Te5 2.767441 1_555
Te3 Te7 2.817885 1_555
Te3 Te9 3.072389 1_555
Te4 Te6 2.764285 1_455
Te5 Te7 2.764285 1_655
Te6 Te8 3.157221 1_655
Te7 Te9 3.157221 1_455
Te10 Te11 2.808121 1_554
Te10 Te8 2.895424 1_555
Te10 Te9 2.962013 1_454
Te11 Te9 2.895424 1_555
Te11 Te8 2.962013 1_656
Cl12 Te13 2.900921 1_555
Cl13 Te12 2.900921 1_555
