# generated using pymatgen
data_NiBiTeO6
_symmetry_space_group_name_H-M   'P 1'
_cell_length_a   5.18274887
_cell_length_b   8.70619065
_cell_length_c   9.99593803
_cell_angle_alpha   90.00657962
_cell_angle_beta   88.76927066
_cell_angle_gamma   89.99446113
_symmetry_Int_Tables_number   1
_chemical_formula_structural   NiBiTeO6
_chemical_formula_sum   'Ni4 Bi4 Te4 O24'
_cell_volume   450.93265757
_cell_formula_units_Z   4
loop_
 _symmetry_equiv_pos_site_id
 _symmetry_equiv_pos_as_xyz
  1  'x, y, z'
loop_
 _atom_site_type_symbol
 _atom_site_label
 _atom_site_symmetry_multiplicity
 _atom_site_fract_x
 _atom_site_fract_y
 _atom_site_fract_z
 _atom_site_occupancy
  Ni  Ni0  1  0.50004210  0.83127917  0.74999446  1
  Ni  Ni1  1  0.49995790  0.16872083  0.25000554  1
  Ni  Ni2  1  0.00004210  0.33127917  0.74999446  1
  Ni  Ni3  1  0.99995790  0.66872083  0.25000554  1
  Bi  Bi0  1  0.00000000  0.00000000  0.50000000  1
  Bi  Bi1  1  0.50000000  0.50000000  0.50000000  1
  Bi  Bi2  1  0.00000000  0.00000000  0.00000000  1
  Bi  Bi3  1  0.50000000  0.50000000  0.00000000  1
  Te  Te0  1  0.50006513  0.16711531  0.74998766  1
  Te  Te1  1  0.00006513  0.66711531  0.74998766  1
  Te  Te2  1  0.99993487  0.33288469  0.25001234  1
  Te  Te3  1  0.49993487  0.83288469  0.25001234  1
  O  O0  1  0.62747156  0.99517163  0.64367270  1
  O  O1  1  0.12747156  0.49517163  0.64367270  1
  O  O2  1  0.67575693  0.31014100  0.63733660  1
  O  O3  1  0.17575693  0.81014100  0.63733660  1
  O  O4  1  0.18619699  0.18122163  0.64684987  1
  O  O5  1  0.68619699  0.68122163  0.64684987  1
  O  O6  1  0.17586691  0.18987421  0.13729974  1
  O  O7  1  0.67586691  0.68987421  0.13729974  1
  O  O8  1  0.12755302  0.50483939  0.14375429  1
  O  O9  1  0.62755302  0.00483939  0.14375429  1
  O  O10  1  0.68627372  0.31882135  0.14685955  1
  O  O11  1  0.18627372  0.81882135  0.14685955  1
  O  O12  1  0.87252844  0.50482837  0.35632730  1
  O  O13  1  0.37252844  0.00482837  0.35632730  1
  O  O14  1  0.82424307  0.18985900  0.36266340  1
  O  O15  1  0.32424307  0.68985900  0.36266340  1
  O  O16  1  0.31380301  0.31877837  0.35315013  1
  O  O17  1  0.81380301  0.81877837  0.35315013  1
  O  O18  1  0.32413309  0.31012579  0.86270026  1
  O  O19  1  0.82413309  0.81012579  0.86270026  1
  O  O20  1  0.37244698  0.99516061  0.85624571  1
  O  O21  1  0.87244698  0.49516061  0.85624571  1
  O  O22  1  0.81372628  0.18117865  0.85314045  1
  O  O23  1  0.31372628  0.68117865  0.85314045  1
loop_
_geom_bond_atom_site_label_1
_geom_bond_atom_site_label_2
_geom_bond_distance
_geom_bond_site_symmetry_2
Ni0 O20 1.889533 1_555
Ni0 O0 1.889987 1_555
Ni0 O5 1.912412 1_555
Ni0 O23 1.913375 1_555
Ni0 O19 2.050794 1_555
Ni0 O3 2.051352 1_555
Ni1 O9 1.889533 1_555
Ni1 O13 1.889987 1_555
Ni1 O16 1.912412 1_555
Ni1 O10 1.913375 1_555
Ni1 O6 2.050794 1_555
Ni1 O14 2.051352 1_555
Ni2 O21 1.889533 1_455
Ni2 O1 1.889987 1_555
Ni2 O4 1.912412 1_555
Ni2 O22 1.913375 1_455
Ni2 O18 2.050794 1_555
Ni2 O2 2.051352 1_455
Ni3 O8 1.889533 1_655
Ni3 O12 1.889987 1_555
Ni3 O17 1.912412 1_555
Ni3 O11 1.913375 1_655
Ni3 O7 2.050794 1_555
Ni3 O15 2.051352 1_655
Bi0 O3 2.345322 1_545
Bi0 O14 2.345322 1_455
Bi0 O4 2.374004 1_555
Bi0 O17 2.374004 1_445
Bi0 O0 2.381780 1_445
Bi0 O13 2.381780 1_555
Bi1 O2 2.345322 1_555
Bi1 O15 2.345322 1_555
Bi1 O5 2.374004 1_555
Bi1 O16 2.374004 1_555
Bi1 O1 2.381780 1_555
Bi1 O12 2.381780 1_555
Bi2 O6 2.345327 1_555
Bi2 O19 2.345327 1_444
Bi2 O11 2.374083 1_545
Bi2 O22 2.374083 1_454
Bi2 O9 2.381911 1_455
Bi2 O20 2.381911 1_544
Bi3 O7 2.345327 1_555
Bi3 O18 2.345327 1_554
Bi3 O10 2.374083 1_555
Bi3 O23 2.374083 1_554
Bi3 O8 2.381911 1_555
Bi3 O21 2.381911 1_554
O0 Te0 1.943095 1_565
O1 Te1 1.943095 1_555
O2 Te0 1.898464 1_555
O3 Te1 1.898464 1_555
O4 Te0 1.948369 1_555
O5 Te1 1.948369 1_655
O6 Te2 1.899033 1_455
O7 Te3 1.899033 1_555
O8 Te2 1.943509 1_455
O9 Te3 1.943509 1_545
O10 Te2 1.947525 1_555
O11 Te3 1.947525 1_555
O12 Te2 1.943095 1_555
O13 Te3 1.943095 1_545
O14 Te2 1.898464 1_555
O15 Te3 1.898464 1_555
O16 Te2 1.948369 1_455
O17 Te3 1.948369 1_555
O18 Te0 1.899033 1_555
O19 Te1 1.899033 1_655
O20 Te0 1.943509 1_565
O21 Te1 1.943509 1_655
O22 Te0 1.947525 1_555
O23 Te1 1.947525 1_555
