# generated using pymatgen
data_Ca6Sc5Al11Ir7
_symmetry_space_group_name_H-M   'P 1'
_cell_length_a   9.14416913
_cell_length_b   9.14416948
_cell_length_c   9.16531512
_cell_angle_alpha   60.07628928
_cell_angle_beta   60.07628927
_cell_angle_gamma   59.99999578
_symmetry_Int_Tables_number   1
_chemical_formula_structural   Ca6Sc5Al11Ir7
_chemical_formula_sum   'Ca6 Sc5 Al11 Ir7'
_cell_volume   542.52622407
_cell_formula_units_Z   1
loop_
 _symmetry_equiv_pos_site_id
 _symmetry_equiv_pos_as_xyz
  1  'x, y, z'
loop_
 _atom_site_type_symbol
 _atom_site_label
 _atom_site_symmetry_multiplicity
 _atom_site_fract_x
 _atom_site_fract_y
 _atom_site_fract_z
 _atom_site_occupancy
  Ca  Ca0  1  0.69951662  0.69951662  0.30171325  1
  Ca  Ca1  1  0.29925151  0.69951662  0.30171325  1
  Ca  Ca2  1  0.69951662  0.29925151  0.30171325  1
  Ca  Ca3  1  0.30144325  0.30144325  0.70187583  1
  Ca  Ca4  1  0.69523868  0.30144325  0.70187583  1
  Ca  Ca5  1  0.30144325  0.69523868  0.70187583  1
  Sc  Sc0  1  0.88135069  0.88135069  0.35594792  1
  Sc  Sc1  1  0.87632227  0.35980668  0.88754878  1
  Sc  Sc2  1  0.35980668  0.87632227  0.88754878  1
  Sc  Sc3  1  0.87632227  0.87632227  0.88754878  1
  Sc  Sc4  1  0.12310170  0.12310170  0.63069389  1
  Al  Al0  1  0.12230978  0.63605011  0.11933033  1
  Al  Al1  1  0.63605011  0.12230978  0.11933033  1
  Al  Al2  1  0.12230978  0.12230978  0.11933033  1
  Al  Al3  1  0.67073122  0.67073122  0.98780335  1
  Al  Al4  1  0.67208513  0.98370589  0.67212285  1
  Al  Al5  1  0.98370589  0.67208513  0.67212285  1
  Al  Al6  1  0.67208513  0.67208513  0.67212285  1
  Al  Al7  1  0.32704139  0.32704139  0.01887582  1
  Al  Al8  1  0.33066739  0.01862968  0.32003554  1
  Al  Al9  1  0.01862968  0.33066739  0.32003554  1
  Al  Al10  1  0.33066739  0.33066739  0.32003554  1
  Ir  Ir0  1  0.99960655  0.99960655  0.00118035  1
  Ir  Ir1  1  0.00109824  0.00109824  0.49731433  1
  Ir  Ir2  1  0.50048819  0.00109824  0.49731433  1
  Ir  Ir3  1  0.00109824  0.50048819  0.49731433  1
  Ir  Ir4  1  0.49848771  0.49848771  0.00189264  1
  Ir  Ir5  1  0.00113193  0.49848771  0.00189264  1
  Ir  Ir6  1  0.49848771  0.00113193  0.00189264  1
loop_
_geom_bond_atom_site_label_1
_geom_bond_atom_site_label_2
_geom_bond_distance
_geom_bond_site_symmetry_2
Ca0 Sc3 3.163062 1_554
Ca0 Sc0 3.192210 1_555
Ca0 Ir3 3.284742 1_655
Ca0 Ir2 3.284742 1_565
Ca0 Ir6 3.308392 1_565
Ca0 Ir5 3.308392 1_655
Ca0 Ca5 3.658231 1_555
Ca0 Ca4 3.658231 1_555
Ca0 Ca1 3.660092 1_555
Ca0 Ca2 3.660092 1_555
Ca1 Sc2 3.163059 1_554
Ca1 Sc0 3.192194 1_455
Ca1 Ir3 3.284734 1_555
Ca1 Ir1 3.284741 1_565
Ca1 Ir4 3.308390 1_555
Ca1 Ir6 3.308403 1_565
Ca1 Ca3 3.658231 1_555
Ca1 Ca5 3.658244 1_555
Ca1 Ca2 3.660092 1_555
Ca2 Sc1 3.163059 1_554
Ca2 Sc0 3.192194 1_545
Ca2 Ir2 3.284734 1_555
Ca2 Ir1 3.284741 1_655
Ca2 Ir4 3.308390 1_555
Ca2 Ir5 3.308403 1_655
Ca2 Ca3 3.658231 1_555
Ca2 Ca4 3.658244 1_555
Ca3 Sc1 3.244051 1_455
Ca3 Sc2 3.244051 1_545
Ca3 Sc4 3.244529 1_555
Ca3 Ir6 3.287883 1_556
Ca3 Ir5 3.287883 1_556
Ca3 Ir3 3.332358 1_555
Ca3 Ir2 3.332358 1_555
Ca3 Ca4 3.600932 1_555
Ca3 Ca5 3.600932 1_555
Ca4 Sc1 3.244043 1_555
Ca4 Sc3 3.244049 1_545
Ca4 Sc4 3.244513 1_655
Ca4 Ir4 3.287881 1_556
Ca4 Ir6 3.287888 1_556
Ca4 Ir3 3.332343 1_655
Ca4 Ir1 3.332355 1_655
Ca4 Ca5 3.600932 1_555
Ca5 Sc2 3.244043 1_555
Ca5 Sc3 3.244049 1_455
Ca5 Sc4 3.244513 1_565
Ca5 Ir4 3.287881 1_556
Ca5 Ir5 3.287888 1_556
Ca5 Ir2 3.332343 1_565
Ca5 Ir1 3.332355 1_565
Sc1 Sc4 3.196638 1_655
Sc2 Sc4 3.196638 1_565
Sc3 Sc4 3.196632 1_665
Al0 Ir0 2.715481 1_455
Al0 Al10 2.804121 1_555
Al0 Al9 2.804121 1_555
Al0 Ir4 2.811268 1_555
Al0 Ir5 2.811268 1_555
Al0 Al7 2.814719 1_555
Al0 Ir3 2.832894 1_555
Al0 Sc3 3.093281 1_454
Al0 Sc2 3.093282 1_554
Al0 Sc0 3.119766 1_455
Al0 Ca5 3.191057 1_554
Al0 Ca1 3.217788 1_555
Al0 Ca0 3.217804 1_455
Al1 Ir0 2.715480 1_545
Al1 Al10 2.804121 1_555
Al1 Al8 2.804121 1_555
Al1 Ir4 2.811268 1_555
Al1 Ir6 2.811268 1_555
Al1 Al7 2.814719 1_555
Al1 Ir2 2.832894 1_555
Al1 Sc3 3.093282 1_544
Al1 Sc1 3.093282 1_554
Al1 Sc0 3.119765 1_545
Al1 Ca4 3.191057 1_554
Al1 Ca2 3.217788 1_555
Al1 Ca0 3.217804 1_545
Al2 Ir0 2.715481 1_445
Al2 Al8 2.804121 1_555
Al2 Al9 2.804121 1_555
Al2 Ir6 2.811268 1_555
Al2 Ir5 2.811268 1_555
Al2 Al7 2.814719 1_555
Al2 Ir1 2.832894 1_555
Al2 Sc1 3.093281 1_454
Al2 Sc2 3.093282 1_544
Al2 Sc0 3.119766 1_445
Al2 Ca3 3.191059 1_554
Al2 Ca2 3.217801 1_455
Al2 Ca1 3.217801 1_545
Al3 Ir4 2.655737 1_556
Al3 Ir5 2.655761 1_656
Al3 Ir6 2.655761 1_566
Al3 Sc2 2.828434 1_555
Al3 Sc1 2.828434 1_555
Al3 Sc3 2.828457 1_555
Al3 Al6 2.881013 1_555
Al3 Al5 2.881022 1_555
Al3 Al4 2.881022 1_555
Al3 Ca1 3.161730 1_556
Al3 Ca2 3.161730 1_556
Al3 Ca0 3.161735 1_556
Al4 Ir1 2.656839 1_665
Al4 Ir2 2.656839 1_565
Al4 Ir6 2.668557 1_566
Al4 Al5 2.849513 1_555
Al4 Al6 2.849513 1_555
Al4 Sc2 2.874235 1_555
Al4 Sc3 2.874242 1_555
Al4 Sc0 2.884059 1_555
Al4 Ca2 3.164648 1_565
Al4 Ca3 3.166061 1_565
Al4 Ca4 3.166072 1_565
Al5 Ir1 2.656839 1_665
Al5 Ir3 2.656839 1_655
Al5 Ir5 2.668557 1_656
Al5 Al6 2.849513 1_555
Al5 Sc1 2.874235 1_555
Al5 Sc3 2.874242 1_555
Al5 Sc0 2.884059 1_555
Al5 Ca1 3.164648 1_655
Al5 Ca3 3.166061 1_655
Al5 Ca5 3.166072 1_655
Al6 Ir3 2.656838 1_655
Al6 Ir2 2.656839 1_565
Al6 Ir4 2.668554 1_556
Al6 Sc2 2.874239 1_555
Al6 Sc1 2.874239 1_555
Al6 Sc0 2.884064 1_555
Al6 Ca0 3.164652 1_555
Al6 Ca5 3.166053 1_555
Al6 Ca4 3.166054 1_555
Al7 Ir5 2.628815 1_555
Al7 Ir6 2.628815 1_555
Al7 Ir4 2.628816 1_555
Al7 Al9 2.793698 1_555
Al7 Al8 2.793698 1_555
Al7 Ca3 3.156385 1_554
Al7 Ca4 3.156390 1_554
Al7 Ca5 3.156391 1_554
Al8 Ir6 2.576529 1_555
Al8 Ir2 2.661883 1_555
Al8 Ir1 2.661891 1_555
Al8 Sc4 2.851481 1_555
Al8 Al9 2.853325 1_555
Al8 Ca0 3.162406 1_545
Al8 Ca1 3.162417 1_545
Al8 Ca5 3.255132 1_545
Al9 Ir5 2.576529 1_555
Al9 Ir3 2.661884 1_555
Al9 Ir1 2.661891 1_555
Al9 Sc4 2.851481 1_555
Al9 Ca0 3.162406 1_455
Al9 Ca2 3.162416 1_455
Al9 Ca4 3.255132 1_455
Al10 Ir4 2.576529 1_555
Al10 Ir3 2.661888 1_555
Al10 Ir2 2.661888 1_555
Al10 Al7 2.793698 1_555
Al10 Sc4 2.851486 1_555
Al10 Al9 2.853326 1_555
Al10 Al8 2.853326 1_555
Al10 Ca2 3.162398 1_555
Al10 Ca1 3.162398 1_555
Al10 Ca3 3.255136 1_555
Ir0 Sc0 2.657942 1_555
Ir0 Sc2 2.690732 1_654
Ir0 Sc1 2.690732 1_564
Ir0 Sc3 2.690732 1_554
Ir0 Sc4 2.775709 1_664
Ir1 Sc4 2.819498 1_555
Ir1 Sc0 2.847230 1_445
Ir1 Sc3 2.924868 1_445
Ir2 Sc4 2.819498 1_555
Ir2 Sc0 2.847238 1_545
Ir2 Sc2 2.924868 1_545
Ir3 Sc4 2.819498 1_555
Ir3 Sc0 2.847238 1_455
Ir3 Sc1 2.924868 1_455
Ir4 Sc1 2.824086 1_554
Ir4 Sc2 2.824086 1_554
Ir5 Sc3 2.824086 1_454
Ir5 Sc1 2.824086 1_454
Ir6 Sc3 2.824086 1_544
Ir6 Sc2 2.824086 1_544
