# generated using pymatgen
data_Ba3FeO5
_symmetry_space_group_name_H-M   'P 1'
_cell_length_a   7.28767733
_cell_length_b   8.35687385
_cell_length_c   10.48886657
_cell_angle_alpha   90.00048326
_cell_angle_beta   90.00003626
_cell_angle_gamma   89.99746767
_symmetry_Int_Tables_number   1
_chemical_formula_structural   Ba3FeO5
_chemical_formula_sum   'Ba12 Fe4 O20'
_cell_volume   638.79505041
_cell_formula_units_Z   4
loop_
 _symmetry_equiv_pos_site_id
 _symmetry_equiv_pos_as_xyz
  1  'x, y, z'
loop_
 _atom_site_type_symbol
 _atom_site_label
 _atom_site_symmetry_multiplicity
 _atom_site_fract_x
 _atom_site_fract_y
 _atom_site_fract_z
 _atom_site_occupancy
  Ba  Ba0  1  0.62111539  0.24999894  0.97150224  1
  Ba  Ba1  1  0.12112650  0.74999876  0.52849800  1
  Ba  Ba2  1  0.37886503  0.75000191  0.02849901  1
  Ba  Ba3  1  0.87888069  0.25000092  0.47150025  1
  Ba  Ba4  1  0.42255920  0.02487502  0.31836831  1
  Ba  Ba5  1  0.92254915  0.97512609  0.18163184  1
  Ba  Ba6  1  0.57744607  0.52487279  0.68162868  1
  Ba  Ba7  1  0.07743433  0.47512734  0.81836966  1
  Ba  Ba8  1  0.57743875  0.97513933  0.68163033  1
  Ba  Ba9  1  0.07745249  0.02488193  0.81836657  1
  Ba  Ba10  1  0.42254888  0.47511603  0.31836867  1
  Ba  Ba11  1  0.92256143  0.52486349  0.18163198  1
  Fe  Fe0  1  0.30141562  0.24999969  0.59299900  1
  Fe  Fe1  1  0.80140552  0.75000636  0.90700351  1
  Fe  Fe2  1  0.69858575  0.74999839  0.40700086  1
  Fe  Fe3  1  0.19858508  0.24999366  0.09299906  1
  O  O0  1  0.83297172  0.25000126  0.71923872  1
  O  O1  1  0.33296504  0.75000148  0.78076109  1
  O  O2  1  0.16703250  0.74999747  0.28075939  1
  O  O3  1  0.66703542  0.24999858  0.21924214  1
  O  O4  1  0.50191672  0.25000003  0.49792686  1
  O  O5  1  0.00190542  0.75000236  0.00207526  1
  O  O6  1  0.49808585  0.75000457  0.50207665  1
  O  O7  1  0.99808784  0.24999376  0.99792672  1
  O  O8  1  0.28613910  0.05607230  0.06423072  1
  O  O9  1  0.78611237  0.94391415  0.43576675  1
  O  O10  1  0.71389311  0.55609624  0.93576470  1
  O  O11  1  0.21387811  0.44392040  0.56422759  1
  O  O12  1  0.71387915  0.94393813  0.93576696  1
  O  O13  1  0.21389237  0.05609125  0.56423188  1
  O  O14  1  0.28612407  0.44389163  0.06423244  1
  O  O15  1  0.78612000  0.55607713  0.43577148  1
  O  O16  1  0.15970572  0.24999406  0.26440590  1
  O  O17  1  0.65970024  0.74999981  0.23559197  1
  O  O18  1  0.84029406  0.75000616  0.73559688  1
  O  O19  1  0.34029329  0.24999960  0.76440792  1
loop_
_geom_bond_atom_site_label_1
_geom_bond_atom_site_label_2
_geom_bond_distance
_geom_bond_site_symmetry_2
Ba0 O3 2.619971 1_556
Ba0 O12 2.671934 1_545
Ba0 O10 2.672318 1_555
Ba0 O7 2.761199 1_555
Ba0 O19 2.984411 1_555
Ba0 O0 3.063471 1_555
Ba0 O14 3.087252 1_556
Ba0 O8 3.087430 1_556
Ba1 O2 2.619945 1_555
Ba1 O11 2.672050 1_555
Ba1 O13 2.672246 1_565
Ba1 O6 2.761101 1_555
Ba1 O18 2.984500 1_455
Ba1 O1 3.063400 1_555
Ba1 O9 3.087494 1_455
Ba1 O15 3.087566 1_455
Ba2 O1 2.619932 1_554
Ba2 O8 2.671936 1_565
Ba2 O14 2.672348 1_555
Ba2 O5 2.761105 1_555
Ba2 O17 2.984466 1_555
Ba2 O2 3.063355 1_555
Ba2 O10 3.087534 1_554
Ba2 O12 3.087702 1_554
Ba3 O0 2.619946 1_555
Ba3 O15 2.672048 1_555
Ba3 O9 2.672205 1_545
Ba3 O4 2.761140 1_555
Ba3 O16 2.984428 1_655
Ba3 O3 3.063380 1_555
Ba3 O13 3.087456 1_655
Ba3 O11 3.087507 1_655
Ba4 O4 2.724154 1_555
Ba4 O16 2.743867 1_555
Ba4 O3 2.791967 1_555
Ba4 O8 2.856898 1_555
Ba4 O2 2.983369 1_545
Ba4 O9 2.998921 1_545
Ba4 O17 3.002798 1_545
Ba4 O13 3.005145 1_555
Ba4 O6 3.048328 1_545
Ba5 O5 2.724095 1_655
Ba5 O17 2.743997 1_555
Ba5 O2 2.791927 1_655
Ba5 O9 2.856934 1_555
Ba5 O3 2.983153 1_565
Ba5 O8 2.999196 1_665
Ba5 O16 3.002927 1_665
Ba5 O12 3.005158 1_554
Ba5 O7 3.048342 1_564
Ba6 O6 2.724136 1_555
Ba6 O18 2.744043 1_555
Ba6 O1 2.791924 1_555
Ba6 O10 2.856975 1_555
Ba6 O0 2.983206 1_555
Ba6 O11 2.999060 1_555
Ba6 O19 3.002972 1_555
Ba6 O15 3.005120 1_555
Ba6 O4 3.048315 1_555
Ba7 O7 2.724198 1_455
Ba7 O19 2.743937 1_555
Ba7 O0 2.791923 1_455
Ba7 O11 2.857006 1_555
Ba7 O1 2.983371 1_555
Ba7 O10 2.998841 1_455
Ba7 O18 3.002818 1_455
Ba7 O14 3.005238 1_556
Ba7 O5 3.048318 1_556
Ba8 O6 2.724168 1_555
Ba8 O18 2.743966 1_555
Ba8 O1 2.792053 1_555
Ba8 O12 2.856943 1_555
Ba8 O0 2.983297 1_565
Ba8 O13 2.998861 1_565
Ba8 O19 3.002725 1_565
Ba8 O9 3.005176 1_555
Ba8 O4 3.048228 1_565
Ba9 O7 2.724066 1_455
Ba9 O19 2.743903 1_555
Ba9 O0 2.791863 1_455
Ba9 O13 2.856938 1_555
Ba9 O1 2.983193 1_545
Ba9 O12 2.999082 1_445
Ba9 O18 3.002971 1_445
Ba9 O8 3.005214 1_556
Ba9 O5 3.048452 1_546
Ba10 O4 2.724102 1_555
Ba10 O16 2.743942 1_555
Ba10 O3 2.791864 1_555
Ba10 O14 2.856921 1_555
Ba10 O2 2.983226 1_555
Ba10 O15 2.999104 1_555
Ba10 O17 3.003026 1_555
Ba10 O11 3.005118 1_555
Ba10 O6 3.048465 1_555
Ba11 O5 2.724222 1_655
Ba11 O17 2.743994 1_555
Ba11 O2 2.791993 1_655
Ba11 O15 2.856980 1_555
Ba11 O3 2.983292 1_555
Ba11 O14 2.999004 1_655
Ba11 O16 3.002778 1_655
Ba11 O10 3.005198 1_554
Ba11 O7 3.048279 1_554
Fe0 O13 1.767452 1_555
Fe0 O11 1.767544 1_555
Fe0 O4 1.769033 1_555
Fe0 O19 1.820073 1_555
Fe1 O10 1.767430 1_555
Fe1 O12 1.767581 1_555
Fe1 O5 1.769022 1_656
Fe1 O18 1.820062 1_555
Fe2 O9 1.767515 1_555
Fe2 O15 1.767538 1_555
Fe2 O6 1.769047 1_555
Fe2 O17 1.820082 1_555
Fe3 O14 1.767417 1_555
Fe3 O8 1.767582 1_555
Fe3 O7 1.769009 1_454
Fe3 O16 1.820054 1_555
