# generated using pymatgen
data_Ca19Cd6In2N7
_symmetry_space_group_name_H-M   'P 1'
_cell_length_a   10.40750128
_cell_length_b   10.40750106
_cell_length_c   10.38925849
_cell_angle_alpha   60.05796620
_cell_angle_beta   60.05796690
_cell_angle_gamma   60.03947827
_symmetry_Int_Tables_number   1
_chemical_formula_structural   Ca19Cd6In2N7
_chemical_formula_sum   'Ca19 Cd6 In2 N7'
_cell_volume   796.65829627
_cell_formula_units_Z   1
loop_
 _symmetry_equiv_pos_site_id
 _symmetry_equiv_pos_as_xyz
  1  'x, y, z'
loop_
 _atom_site_type_symbol
 _atom_site_label
 _atom_site_symmetry_multiplicity
 _atom_site_fract_x
 _atom_site_fract_y
 _atom_site_fract_z
 _atom_site_occupancy
  Ca  Ca0  1  0.17512376  0.49981117  0.82648642  1
  Ca  Ca1  1  0.49972632  0.82639024  0.17438818  1
  Ca  Ca2  1  0.82630223  0.17397995  0.49985891  1
  Ca  Ca3  1  0.16589470  0.83422391  0.16501723  1
  Ca  Ca4  1  0.82639024  0.49972632  0.17438818  1
  Ca  Ca5  1  0.17397995  0.82630223  0.49985891  1
  Ca  Ca6  1  0.16508189  0.16508189  0.83491811  1
  Ca  Ca7  1  0.17512376  0.49981117  0.49857965  1
  Ca  Ca8  1  0.83474504  0.83474504  0.16525496  1
  Ca  Ca9  1  0.83422391  0.16589470  0.83486417  1
  Ca  Ca10  1  0.49972632  0.82639024  0.49949526  1
  Ca  Ca11  1  0.50022119  0.50022119  0.49977881  1
  Ca  Ca12  1  0.50021768  0.50021768  0.17418104  1
  Ca  Ca13  1  0.16589470  0.83422391  0.83486417  1
  Ca  Ca14  1  0.49981117  0.17512376  0.82648642  1
  Ca  Ca15  1  0.49981117  0.17512376  0.49857965  1
  Ca  Ca16  1  0.82639024  0.49972632  0.49949526  1
  Ca  Ca17  1  0.83422391  0.16589470  0.16501723  1
  Ca  Ca18  1  0.50021768  0.50021768  0.82538460  1
  Cd  Cd0  1  0.17663023  0.17663023  0.47021073  1
  Cd  Cd1  1  0.82612057  0.52163861  0.82612091  1
  Cd  Cd2  1  0.47278320  0.17727961  0.17496810  1
  Cd  Cd3  1  0.17727961  0.47278320  0.17496810  1
  Cd  Cd4  1  0.52163861  0.82612057  0.82612091  1
  Cd  Cd5  1  0.17663023  0.17663023  0.17652681  1
  In  In0  1  0.82281396  0.82281396  0.82592442  1
  In  In1  1  0.82281396  0.82281396  0.52844966  1
  N  N0  1  0.67345668  0.32688988  0.67333937  1
  N  N1  1  0.67345668  0.32688988  0.32631407  1
  N  N2  1  0.32688988  0.67345668  0.67333937  1
  N  N3  1  0.32688988  0.67345668  0.32631407  1
  N  N4  1  0.32605885  0.32605885  0.67394115  1
  N  N5  1  0.67389927  0.67389927  0.32610073  1
  N  N6  1  0.99953353  0.99953353  0.00046647  1
loop_
_geom_bond_atom_site_label_1
_geom_bond_atom_site_label_2
_geom_bond_distance
_geom_bond_site_symmetry_2
Ca0 N2 2.400917 1_555
Ca0 N4 2.405783 1_555
Ca0 Cd3 3.499366 1_556
Ca0 Cd5 3.511762 1_556
Ca0 Cd1 3.526135 1_455
Ca0 In0 3.526416 1_455
Ca1 N5 2.402208 1_555
Ca1 N3 2.403730 1_555
Ca1 In0 3.503139 1_554
Ca1 Cd4 3.511334 1_554
Ca1 Cd5 3.515448 1_565
Ca1 Cd2 3.523120 1_565
Ca2 N1 2.405027 1_555
Ca2 N0 2.405027 1_555
Ca2 Cd0 3.515695 1_655
Ca2 Cd5 3.515704 1_655
Ca2 In1 3.533396 1_545
Ca2 In0 3.533405 1_545
Ca3 N3 2.370441 1_555
Ca3 N6 2.433878 1_455
Ca3 Cd4 3.617069 1_554
Ca3 Cd3 3.654300 1_555
Ca3 In1 3.679354 1_455
Ca3 Cd5 3.682714 1_565
Ca4 N5 2.402208 1_555
Ca4 N1 2.403730 1_555
Ca4 In0 3.503139 1_554
Ca4 Cd1 3.511334 1_554
Ca4 Cd5 3.515448 1_655
Ca4 Cd3 3.523121 1_655
Ca5 N3 2.405027 1_555
Ca5 N2 2.405027 1_555
Ca5 Cd0 3.515695 1_565
Ca5 Cd5 3.515704 1_565
Ca5 In1 3.533396 1_455
Ca5 In0 3.533405 1_455
Ca6 N4 2.370695 1_555
Ca6 N6 2.438018 1_446
Ca6 Cd1 3.623779 1_455
Ca6 Cd4 3.623779 1_545
Ca6 Cd5 3.672979 1_556
Ca6 Cd0 3.673000 1_555
Ca7 N3 2.400918 1_555
Ca7 N4 2.405776 1_555
Ca7 Cd3 3.499387 1_555
Ca7 Cd0 3.511779 1_555
Ca7 Cd1 3.526135 1_455
Ca7 In1 3.526416 1_455
Ca8 N5 2.368763 1_555
Ca8 N6 2.426827 1_555
Ca8 In0 3.653575 1_554
Ca8 In1 3.653596 1_555
Ca8 Cd3 3.670999 1_655
Ca8 Cd2 3.670999 1_565
Ca9 N0 2.370441 1_555
Ca9 N6 2.433878 1_546
Ca9 Cd1 3.617074 1_555
Ca9 Cd2 3.654295 1_556
Ca9 In0 3.679343 1_545
Ca9 Cd0 3.682725 1_655
Ca10 N5 2.402208 1_555
Ca10 N2 2.403730 1_555
Ca10 In1 3.503150 1_555
Ca10 Cd4 3.511344 1_555
Ca10 Cd0 3.515449 1_565
Ca10 Cd2 3.523125 1_565
Ca11 N0 2.550670 1_555
Ca11 N1 2.550670 1_555
Ca11 N3 2.550670 1_555
Ca11 N2 2.550670 1_555
Ca11 N5 2.557744 1_555
Ca11 N4 2.564875 1_555
Ca12 N1 2.398538 1_555
Ca12 N3 2.398538 1_555
Ca12 Cd2 3.508062 1_555
Ca12 Cd3 3.508062 1_555
Ca12 Cd4 3.512431 1_554
Ca12 Cd1 3.512431 1_554
Ca13 N2 2.370441 1_555
Ca13 N6 2.433878 1_456
Ca13 Cd4 3.617074 1_555
Ca13 Cd3 3.654295 1_556
Ca13 In0 3.679343 1_455
Ca13 Cd0 3.682725 1_565
Ca14 N0 2.400917 1_555
Ca14 N4 2.405783 1_555
Ca14 Cd2 3.499366 1_556
Ca14 Cd5 3.511762 1_556
Ca14 Cd4 3.526135 1_545
Ca14 In0 3.526416 1_545
Ca15 N1 2.400918 1_555
Ca15 N4 2.405776 1_555
Ca15 Cd2 3.499387 1_555
Ca15 Cd0 3.511780 1_555
Ca15 Cd4 3.526135 1_545
Ca15 In1 3.526416 1_545
Ca16 N5 2.402208 1_555
Ca16 N0 2.403730 1_555
Ca16 In1 3.503150 1_555
Ca16 Cd1 3.511344 1_555
Ca16 Cd0 3.515449 1_655
Ca16 Cd3 3.523126 1_655
Ca17 N1 2.370441 1_555
Ca17 N6 2.433878 1_545
Ca17 Cd1 3.617069 1_554
Ca17 Cd2 3.654300 1_555
Ca17 In1 3.679354 1_545
Ca17 Cd5 3.682714 1_655
Ca18 N0 2.398545 1_555
Ca18 N2 2.398545 1_555
Ca18 Cd2 3.508051 1_556
Ca18 Cd3 3.508051 1_556
Ca18 Cd4 3.512431 1_555
Ca18 Cd1 3.512431 1_555
Cd0 Cd5 3.051158 1_555
Cd0 Cd3 3.077528 1_555
Cd0 Cd2 3.077528 1_555
Cd1 In1 3.116421 1_555
Cd1 In0 3.116426 1_555
Cd1 Cd4 3.170787 1_555
Cd2 Cd3 3.077289 1_555
Cd2 Cd5 3.077533 1_555
Cd3 Cd5 3.077533 1_555
Cd4 In1 3.116421 1_555
Cd4 In0 3.116427 1_555
In0 In1 3.090542 1_555
