# generated using pymatgen
data_Nb4Co4Sb5Ir
_symmetry_space_group_name_H-M   'P 1'
_cell_length_a   7.28088385
_cell_length_b   7.28077060
_cell_length_c   7.28021104
_cell_angle_alpha   99.78158466
_cell_angle_beta   99.77883993
_cell_angle_gamma   131.32250971
_symmetry_Int_Tables_number   1
_chemical_formula_structural   Nb4Co4Sb5Ir
_chemical_formula_sum   'Nb4 Co4 Sb5 Ir1'
_cell_volume   264.06862361
_cell_formula_units_Z   1
loop_
 _symmetry_equiv_pos_site_id
 _symmetry_equiv_pos_as_xyz
  1  'x, y, z'
loop_
 _atom_site_type_symbol
 _atom_site_label
 _atom_site_symmetry_multiplicity
 _atom_site_fract_x
 _atom_site_fract_y
 _atom_site_fract_z
 _atom_site_occupancy
  Nb  Nb0  1  0.81108715  0.41326236  0.20449539  1
  Nb  Nb1  1  0.59348149  0.78895321  0.40220173  1
  Nb  Nb2  1  0.18659877  0.59109682  0.79785227  1
  Nb  Nb3  1  0.00877630  0.00658315  0.99546584  1
  Co  Co0  1  0.46038985  0.36584903  0.28075207  1
  Co  Co1  1  0.23426041  0.71489166  0.49455329  1
  Co  Co2  1  0.02043778  0.13966211  0.70547914  1
  Co  Co3  1  0.88508948  0.57964296  0.91927918  1
  Sb  Sb0  1  0.30782605  0.92460129  0.23121657  1
  Sb  Sb1  1  0.12327508  0.29222285  0.41660810  1
  Sb  Sb2  1  0.89994341  0.69991457  0.59983523  1
  Sb  Sb3  1  0.67550371  0.10649611  0.78332378  1
  Sb  Sb4  1  0.49339688  0.47684083  0.96891675  1
  Ir  Ir0  1  0.64993364  0.94998307  0.10001867  1
loop_
_geom_bond_atom_site_label_1
_geom_bond_atom_site_label_2
_geom_bond_distance
_geom_bond_site_symmetry_2
Nb0 Sb2 2.932825 1_555
Nb0 Sb0 2.951624 1_655
Nb0 Sb4 2.973577 1_554
Nb0 Sb3 3.016260 1_554
Nb0 Sb0 3.063263 1_545
Nb0 Sb1 3.200495 1_655
Nb1 Sb2 2.933565 1_555
Nb1 Sb1 2.951466 1_555
Nb1 Sb3 2.972303 1_565
Nb1 Sb0 3.016869 1_555
Nb1 Sb1 3.063188 1_665
Nb1 Sb4 3.200301 1_554
Nb2 Sb2 2.934562 1_455
Nb2 Sb3 2.950960 1_455
Nb2 Sb1 2.973132 1_555
Nb2 Sb4 3.015568 1_555
Nb2 Sb3 3.063723 1_565
Nb2 Sb0 3.201515 1_556
Nb3 Sb2 2.934667 1_445
Nb3 Sb4 2.951724 1_555
Nb3 Sb0 2.972846 1_546
Nb3 Sb1 3.015966 1_556
Nb3 Sb4 3.062929 1_445
Nb3 Sb3 3.200348 1_455
Co0 Nb1 2.460035 1_555
Co0 Nb0 2.515905 1_555
Co0 Sb4 2.533170 1_554
Co0 Sb0 2.538207 1_545
Co0 Nb3 2.538412 1_554
Co0 Sb1 2.560736 1_555
Co0 Sb2 2.613343 1_555
Co1 Nb0 2.460412 1_455
Co1 Nb2 2.516326 1_555
Co1 Sb1 2.532199 1_555
Co1 Nb1 2.537998 1_555
Co1 Sb3 2.538236 1_565
Co1 Sb0 2.560672 1_555
Co1 Sb2 2.614568 1_455
Co2 Nb3 2.459740 1_555
Co2 Nb1 2.515732 1_445
Co2 Sb3 2.532954 1_455
Co2 Nb2 2.537775 1_555
Co2 Sb1 2.539195 1_555
Co2 Sb4 2.560454 1_555
Co2 Sb2 2.614727 1_445
Co3 Nb2 2.459691 1_655
Co3 Nb3 2.515721 1_665
Co3 Sb0 2.533312 1_656
Co3 Nb0 2.538130 1_556
Co3 Sb4 2.539106 1_555
Co3 Sb3 2.561587 1_555
Co3 Sb2 2.615213 1_555
Ir0 Nb1 2.632584 1_555
Ir0 Nb0 2.632710 1_565
Ir0 Nb2 2.632964 1_554
Ir0 Nb3 2.633559 1_664
Ir0 Sb4 2.721265 1_554
Ir0 Sb3 2.721652 1_564
Ir0 Sb1 2.721801 1_665
Ir0 Sb0 2.722322 1_555
