# generated using pymatgen
data_Cs12Nb3BiS16
_symmetry_space_group_name_H-M   'P 1'
_cell_length_a   10.06016163
_cell_length_b   10.16208754
_cell_length_c   11.68390832
_cell_angle_alpha   90.00000000
_cell_angle_beta   90.00000000
_cell_angle_gamma   89.83209227
_symmetry_Int_Tables_number   1
_chemical_formula_structural   Cs12Nb3BiS16
_chemical_formula_sum   'Cs12 Nb3 Bi1 S16'
_cell_volume   1194.46702671
_cell_formula_units_Z   1
loop_
 _symmetry_equiv_pos_site_id
 _symmetry_equiv_pos_as_xyz
  1  'x, y, z'
loop_
 _atom_site_type_symbol
 _atom_site_label
 _atom_site_symmetry_multiplicity
 _atom_site_fract_x
 _atom_site_fract_y
 _atom_site_fract_z
 _atom_site_occupancy
  Cs  Cs0  1  0.94951157  0.29151284  0.95933072  1
  Cs  Cs1  1  0.45287368  0.20597612  0.96068500  1
  Cs  Cs2  1  0.55127659  0.79388898  0.45910080  1
  Cs  Cs3  1  0.04840499  0.71120200  0.04329936  1
  Cs  Cs4  1  0.14514564  0.91749084  0.75000000  1
  Cs  Cs5  1  0.64663801  0.58083296  0.75000000  1
  Cs  Cs6  1  0.35072760  0.41614470  0.25000000  1
  Cs  Cs7  1  0.85357754  0.08172880  0.25000000  1
  Cs  Cs8  1  0.04840499  0.71120200  0.45670064  1
  Cs  Cs9  1  0.45287368  0.20597612  0.53931500  1
  Cs  Cs10  1  0.55127659  0.79388898  0.04089920  1
  Cs  Cs11  1  0.94951157  0.29151284  0.54066928  1
  Nb  Nb0  1  0.77653741  0.51717505  0.25000000  1
  Nb  Nb1  1  0.27887057  0.98292424  0.25000000  1
  Nb  Nb2  1  0.72208600  0.01675305  0.75000000  1
  Bi  Bi0  1  0.22334478  0.48383040  0.75000000  1
  S  S0  1  0.66570434  0.45460042  0.08811692  1
  S  S1  1  0.16765712  0.04633085  0.41162832  1
  S  S2  1  0.83309117  0.95442067  0.91212171  1
  S  S3  1  0.34110805  0.54623340  0.57504871  1
  S  S4  1  0.34110805  0.54623340  0.92495129  1
  S  S5  1  0.83309117  0.95442067  0.58787829  1
  S  S6  1  0.16765712  0.04633085  0.08837168  1
  S  S7  1  0.66570434  0.45460042  0.41188308  1
  S  S8  1  0.00020977  0.58339828  0.75000000  1
  S  S9  1  0.51307162  0.92666688  0.75000000  1
  S  S10  1  0.48868716  0.07201791  0.25000000  1
  S  S11  1  0.98624031  0.42715540  0.25000000  1
  S  S12  1  0.20078255  0.24393782  0.75000000  1
  S  S13  1  0.79437412  0.74201307  0.25000000  1
  S  S14  1  0.29676185  0.75814126  0.25000000  1
  S  S15  1  0.70368505  0.24145680  0.75000000  1
loop_
_geom_bond_atom_site_label_1
_geom_bond_atom_site_label_2
_geom_bond_distance
_geom_bond_site_symmetry_2
Cs0 S15 3.516257 1_555
Cs0 S12 3.549426 1_655
Cs0 S0 3.624225 1_556
Cs0 S6 3.642139 1_656
Cs0 S2 3.665236 1_545
Cs0 S11 3.684208 1_556
Cs0 S8 3.879314 1_655
Cs1 S15 3.544218 1_555
Cs1 S12 3.554485 1_555
Cs1 S6 3.621873 1_556
Cs1 S0 3.635424 1_556
Cs1 S4 3.656722 1_555
Cs1 S10 3.661515 1_556
Cs1 S9 3.804285 1_545
Cs2 S13 3.495729 1_555
Cs2 S14 3.558396 1_555
Cs2 S3 3.559582 1_555
Cs2 S5 3.604172 1_555
Cs2 S7 3.673438 1_555
Cs2 S9 3.676603 1_555
Cs2 S10 3.787244 1_565
Cs3 S14 3.508509 1_555
Cs3 S13 3.529442 1_455
Cs3 S2 3.621947 1_454
Cs3 S6 3.652221 1_565
Cs3 S4 3.655738 1_554
Cs3 S8 3.697169 1_554
Cs3 S11 3.816566 1_455
Cs4 S12 3.365887 1_565
Cs4 S2 3.684739 1_455
Cs4 S5 3.684739 1_455
Cs4 S8 3.698859 1_555
Cs4 S9 3.702842 1_555
Cs5 S15 3.494536 1_555
Cs5 S8 3.557161 1_655
Cs5 S4 3.708892 1_555
Cs5 S3 3.708892 1_555
Cs5 S9 3.758832 1_555
Cs6 S14 3.515976 1_555
Cs6 S11 3.668180 1_455
Cs6 S7 3.711905 1_555
Cs6 S0 3.711905 1_555
Cs6 S10 3.758609 1_555
Cs6 S3 4.022414 1_555
Cs6 S4 4.022414 1_554
Cs7 S13 3.504942 1_545
Cs7 S10 3.672471 1_555
Cs7 S1 3.697652 1_655
Cs7 S6 3.697652 1_655
Cs7 S11 3.759060 1_555
Cs8 S14 3.508509 1_555
Cs8 S13 3.529442 1_455
Cs8 S5 3.621947 1_455
Cs8 S1 3.652221 1_565
Cs8 S3 3.655738 1_555
Cs8 S8 3.697169 1_555
Cs8 S11 3.816566 1_455
Cs9 S15 3.544218 1_555
Cs9 S12 3.554485 1_555
Cs9 S1 3.621873 1_555
Cs9 S7 3.635424 1_555
Cs9 S3 3.656722 1_555
Cs9 S10 3.661515 1_555
Cs9 S9 3.804285 1_545
Cs10 S13 3.495729 1_555
Cs10 S14 3.558396 1_555
Cs10 S4 3.559582 1_554
Cs10 S2 3.604172 1_554
Cs10 S0 3.673438 1_555
Cs10 S9 3.676603 1_554
Cs10 S10 3.787244 1_565
Cs11 S15 3.516257 1_555
Cs11 S12 3.549426 1_655
Cs11 S7 3.624225 1_555
Cs11 S1 3.642139 1_655
Cs11 S5 3.665236 1_545
Cs11 S11 3.684208 1_555
Cs11 S8 3.879314 1_655
Nb0 S7 2.286751 1_555
Nb0 S0 2.286751 1_555
Nb0 S13 2.292383 1_555
Nb0 S11 2.296982 1_555
Nb1 S1 2.286694 1_565
Nb1 S6 2.286694 1_565
Nb1 S14 2.290819 1_555
Nb1 S10 2.299204 1_565
Nb2 S2 2.287405 1_545
Nb2 S5 2.287405 1_545
Nb2 S15 2.290410 1_555
Nb2 S9 2.295818 1_545
Bi0 S4 2.447142 1_555
Bi0 S3 2.447142 1_555
Bi0 S12 2.449016 1_555
Bi0 S8 2.459568 1_555
