# generated using pymatgen
data_K5SrTaSb4
_symmetry_space_group_name_H-M   'P 1'
_cell_length_a   11.00606165
_cell_length_b   11.00606225
_cell_length_c   8.39224425
_cell_angle_alpha   88.51739521
_cell_angle_beta   88.51739261
_cell_angle_gamma   120.63149659
_symmetry_Int_Tables_number   1
_chemical_formula_structural   K5SrTaSb4
_chemical_formula_sum   'K10 Sr2 Ta2 Sb8'
_cell_volume   873.53476871
_cell_formula_units_Z   2
loop_
 _symmetry_equiv_pos_site_id
 _symmetry_equiv_pos_as_xyz
  1  'x, y, z'
loop_
 _atom_site_type_symbol
 _atom_site_label
 _atom_site_symmetry_multiplicity
 _atom_site_fract_x
 _atom_site_fract_y
 _atom_site_fract_z
 _atom_site_occupancy
  K  K0  1  0.46915538  0.52388055  0.60750070  1
  K  K1  1  0.05164750  0.52534957  0.61122236  1
  K  K2  1  0.52388055  0.46915538  0.10750070  1
  K  K3  1  0.52534957  0.05164750  0.11122236  1
  K  K4  1  0.86351111  0.14410170  0.78867216  1
  K  K5  1  0.29641669  0.15480522  0.82754532  1
  K  K6  1  0.85452511  0.71505698  0.76588402  1
  K  K7  1  0.14410170  0.86351111  0.28867216  1
  K  K8  1  0.71505698  0.85452511  0.26588402  1
  K  K9  1  0.15480522  0.29641669  0.32754532  1
  Sr  Sr0  1  0.46823177  0.94258979  0.60460575  1
  Sr  Sr1  1  0.94258979  0.46823177  0.10460575  1
  Ta  Ta0  1  0.66906689  0.33060512  0.49858999  1
  Ta  Ta1  1  0.33060512  0.66906689  0.99858999  1
  Sb  Sb0  1  0.68213628  0.33678116  0.81825029  1
  Sb  Sb1  1  0.33678116  0.68213628  0.31825029  1
  Sb  Sb2  1  0.19263888  0.79718428  0.89109414  1
  Sb  Sb3  1  0.59579973  0.80289767  0.87164998  1
  Sb  Sb4  1  0.18747891  0.39613972  0.92218628  1
  Sb  Sb5  1  0.79718428  0.19263888  0.39109414  1
  Sb  Sb6  1  0.39613972  0.18747891  0.42218628  1
  Sb  Sb7  1  0.80289767  0.59579973  0.37164998  1
loop_
_geom_bond_atom_site_label_1
_geom_bond_atom_site_label_2
_geom_bond_distance
_geom_bond_site_symmetry_2
K0 Sb3 3.526714 1_555
K0 Sb4 3.674872 1_555
K0 Sb1 3.687692 1_555
K0 Sb6 3.755438 1_555
K0 Sb7 3.823144 1_555
K1 Sb2 3.563275 1_555
K1 Sb1 3.568475 1_555
K1 Sb4 3.639232 1_555
K1 Ta0 3.785698 1_455
K1 Sb7 3.808699 1_455
K1 Sb0 3.835637 1_455
K1 Sb5 3.851304 1_455
K2 Sb7 3.526714 1_555
K2 Sb6 3.674872 1_555
K2 Sb0 3.687692 1_554
K2 Sb4 3.755438 1_554
K2 Sb3 3.823144 1_554
K3 Sb5 3.563275 1_555
K3 Sb0 3.568475 1_554
K3 Sb6 3.639232 1_555
K3 Ta1 3.785699 1_544
K3 Sb3 3.808699 1_544
K3 Sb1 3.835637 1_545
K3 Sb2 3.851304 1_544
K4 Sb3 3.428116 1_545
K4 Sb4 3.457223 1_655
K4 Sb5 3.518831 1_555
K4 Sb0 3.585955 1_555
K5 Sb6 3.499710 1_555
K5 Sb2 3.515646 1_545
K5 Sb4 3.525423 1_555
K5 Sb0 3.653772 1_555
K6 Sb3 3.542598 1_555
K6 Sb7 3.543146 1_555
K6 Sb2 3.548675 1_655
K6 Sb0 3.597075 1_555
K7 Sb7 3.428115 1_455
K7 Sb6 3.457223 1_565
K7 Sb2 3.518831 1_554
K7 Sb1 3.585955 1_555
K8 Sb7 3.542598 1_555
K8 Sb3 3.543146 1_554
K8 Sb5 3.548675 1_565
K8 Sb1 3.597074 1_555
K9 Sb4 3.499710 1_554
K9 Sb5 3.515646 1_455
K9 Sb6 3.525423 1_555
K9 Sb1 3.653772 1_555
Sb0 Ta0 2.690995 1_555
Sb0 Sr1 3.520762 1_556
Sb1 Ta1 2.690995 1_554
Sb1 Sr0 3.520762 1_555
Sb2 Ta1 2.700891 1_555
Sb2 Sr0 3.466832 1_555
Sb2 Sr1 3.626032 1_456
Sb3 Ta1 2.683372 1_555
Sb3 Sr0 3.397325 1_555
Sb4 Ta1 2.691794 1_555
Sb4 Sr1 3.502326 1_456
Sb5 Ta0 2.700891 1_555
Sb5 Sr1 3.466832 1_555
Sb5 Sr0 3.626032 1_545
Sb6 Ta0 2.691794 1_555
Sb6 Sr0 3.502326 1_545
Sb7 Ta0 2.683372 1_555
Sb7 Sr1 3.397325 1_555
