# generated using pymatgen
data_Nb3Ga2AuC
_symmetry_space_group_name_H-M   'P 1'
_cell_length_a   8.42514518
_cell_length_b   8.42514531
_cell_length_c   8.42514369
_cell_angle_alpha   60.00000246
_cell_angle_beta   60.00000195
_cell_angle_gamma   60.00000181
_symmetry_Int_Tables_number   1
_chemical_formula_structural   Nb3Ga2AuC
_chemical_formula_sum   'Nb12 Ga8 Au4 C4'
_cell_volume   422.87998660
_cell_formula_units_Z   4
loop_
 _symmetry_equiv_pos_site_id
 _symmetry_equiv_pos_as_xyz
  1  'x, y, z'
loop_
 _atom_site_type_symbol
 _atom_site_label
 _atom_site_symmetry_multiplicity
 _atom_site_fract_x
 _atom_site_fract_y
 _atom_site_fract_z
 _atom_site_occupancy
  Nb  Nb0  1  0.56908100  0.93091900  0.56908100  1
  Nb  Nb1  1  0.31908100  0.68091900  0.68091900  1
  Nb  Nb2  1  0.68091900  0.31908100  0.31908100  1
  Nb  Nb3  1  0.31908100  0.68091900  0.31908100  1
  Nb  Nb4  1  0.68091900  0.68091900  0.31908100  1
  Nb  Nb5  1  0.31908100  0.31908100  0.68091900  1
  Nb  Nb6  1  0.56908100  0.56908100  0.93091900  1
  Nb  Nb7  1  0.93091900  0.56908100  0.56908100  1
  Nb  Nb8  1  0.56908100  0.93091900  0.93091900  1
  Nb  Nb9  1  0.93091900  0.93091900  0.56908100  1
  Nb  Nb10  1  0.68091900  0.31908100  0.68091900  1
  Nb  Nb11  1  0.93091900  0.56908100  0.93091900  1
  Ga  Ga0  1  0.91201320  0.91201320  0.91201320  1
  Ga  Ga1  1  0.98604060  0.33798680  0.33798680  1
  Ga  Ga2  1  0.33798680  0.98604060  0.33798680  1
  Ga  Ga3  1  0.33798680  0.33798680  0.98604060  1
  Ga  Ga4  1  0.91201320  0.26395940  0.91201320  1
  Ga  Ga5  1  0.91201320  0.91201320  0.26395940  1
  Ga  Ga6  1  0.26395940  0.91201320  0.91201320  1
  Ga  Ga7  1  0.33798680  0.33798680  0.33798680  1
  Au  Au0  1  0.12500000  0.12500000  0.12500000  1
  Au  Au1  1  0.62500000  0.12500000  0.12500000  1
  Au  Au2  1  0.12500000  0.62500000  0.12500000  1
  Au  Au3  1  0.12500000  0.12500000  0.62500000  1
  C  C0  1  0.62500000  0.62500000  0.62500000  1
  C  C1  1  0.12500000  0.62500000  0.62500000  1
  C  C2  1  0.62500000  0.12500000  0.62500000  1
  C  C3  1  0.62500000  0.62500000  0.12500000  1
loop_
_geom_bond_atom_site_label_1
_geom_bond_atom_site_label_2
_geom_bond_distance
_geom_bond_site_symmetry_2
Ga0 Nb9 2.739247 1_555
Ga0 Nb8 2.739247 1_555
Ga0 Nb11 2.739247 1_555
Ga1 Nb10 2.739251 1_555
Ga1 Nb4 2.739251 1_555
Ga1 Nb2 2.739256 1_555
Ga2 Nb1 2.739251 1_555
Ga2 Nb4 2.739251 1_555
Ga2 Nb3 2.739256 1_555
Ga3 Nb10 2.739251 1_555
Ga3 Nb1 2.739251 1_555
Ga3 Nb5 2.739255 1_555
Ga4 Nb7 2.739251 1_555
Ga4 Nb6 2.739251 1_555
Ga4 Nb11 2.739256 1_555
Ga5 Nb0 2.739251 1_555
Ga5 Nb7 2.739251 1_555
Ga5 Nb9 2.739255 1_555
Ga6 Nb0 2.739251 1_555
Ga6 Nb6 2.739251 1_555
Ga6 Nb8 2.739256 1_555
Ga7 Nb5 2.739247 1_555
Ga7 Nb2 2.739247 1_555
Ga7 Nb3 2.739247 1_555
Au0 Ga2 2.613246 1_545
Au0 Ga4 2.613246 1_454
Au0 Ga1 2.613246 1_455
Au0 Ga6 2.613246 1_544
Au0 Ga3 2.613246 1_554
Au0 Ga5 2.613246 1_445
Au0 Nb9 3.127929 1_445
Au0 Nb5 3.127929 1_554
Au0 Nb8 3.127929 1_544
Au0 Nb2 3.127929 1_455
Au0 Nb11 3.127930 1_454
Au0 Nb3 3.127930 1_545
Au1 Ga5 2.613239 1_545
Au1 Ga3 2.613239 1_554
Au1 Ga4 2.613239 1_554
Au1 Ga2 2.613239 1_545
Au1 Ga7 2.613244 1_555
Au1 Ga0 2.613244 1_544
Au1 Nb0 3.127929 1_545
Au1 Nb10 3.127929 1_554
Au1 Nb2 3.127929 1_555
Au1 Nb8 3.127929 1_544
Au1 Nb6 3.127930 1_554
Au1 Nb4 3.127930 1_545
Au2 Ga5 2.613239 1_455
Au2 Ga3 2.613239 1_554
Au2 Ga6 2.613239 1_554
Au2 Ga1 2.613239 1_455
Au2 Ga7 2.613244 1_555
Au2 Ga0 2.613244 1_454
Au2 Nb7 3.127929 1_455
Au2 Nb1 3.127929 1_554
Au2 Nb3 3.127929 1_555
Au2 Nb11 3.127929 1_454
Au2 Nb6 3.127929 1_554
Au2 Nb4 3.127929 1_455
Au3 Ga4 2.613239 1_455
Au3 Ga2 2.613239 1_545
Au3 Ga6 2.613239 1_545
Au3 Ga1 2.613239 1_455
Au3 Ga7 2.613244 1_555
Au3 Ga0 2.613244 1_445
Au3 Nb5 3.127929 1_555
Au3 Nb9 3.127929 1_445
Au3 Nb0 3.127930 1_545
Au3 Nb10 3.127930 1_455
Au3 Nb7 3.127930 1_455
Au3 Nb1 3.127930 1_545
C0 Nb6 2.209153 1_555
C0 Nb4 2.209153 1_555
C0 Nb7 2.209154 1_555
C0 Nb1 2.209154 1_555
C0 Nb0 2.209154 1_555
C0 Nb10 2.209154 1_555
C1 Nb11 2.209154 1_455
C1 Nb3 2.209154 1_555
C1 Nb1 2.209154 1_555
C1 Nb7 2.209154 1_455
C1 Nb9 2.209154 1_455
C1 Nb5 2.209154 1_555
C2 Nb8 2.209154 1_545
C2 Nb2 2.209154 1_555
C2 Nb10 2.209154 1_555
C2 Nb0 2.209154 1_545
C2 Nb9 2.209154 1_545
C2 Nb5 2.209154 1_555
C3 Nb4 2.209154 1_555
C3 Nb6 2.209154 1_554
C3 Nb11 2.209154 1_554
C3 Nb3 2.209154 1_555
C3 Nb8 2.209154 1_554
C3 Nb2 2.209154 1_555
