# generated using pymatgen
data_Ta3ZnGa2Ir3
_symmetry_space_group_name_H-M   'P 1'
_cell_length_a   14.86721223
_cell_length_b   14.84468553
_cell_length_c   5.78866105
_cell_angle_alpha   90.00000000
_cell_angle_beta   90.00000000
_cell_angle_gamma   120.05021097
_symmetry_Int_Tables_number   1
_chemical_formula_structural   Ta3ZnGa2Ir3
_chemical_formula_sum   'Ta24 Zn8 Ga16 Ir24'
_cell_volume   1105.83246986
_cell_formula_units_Z   8
loop_
 _symmetry_equiv_pos_site_id
 _symmetry_equiv_pos_as_xyz
  1  'x, y, z'
loop_
 _atom_site_type_symbol
 _atom_site_label
 _atom_site_symmetry_multiplicity
 _atom_site_fract_x
 _atom_site_fract_y
 _atom_site_fract_z
 _atom_site_occupancy
  Ta  Ta0_0  1  0.18594758  0.00000000  0.25000050  1
  Ta  Ta0_1  1  0.18594758  0.00000000  0.75000050  1
  Ta  Ta0_2  1  0.18594758  0.50000000  0.25000050  1
  Ta  Ta0_3  1  0.18594758  0.50000000  0.75000050  1
  Ta  Ta0_4  1  0.68594758  0.00000000  0.25000050  1
  Ta  Ta0_5  1  0.68594758  0.00000000  0.75000050  1
  Ta  Ta0_6  1  0.68594758  0.50000000  0.25000050  1
  Ta  Ta0_7  1  0.68594758  0.50000000  0.75000050  1
  Ta  Ta1_0  1  0.49771051  0.18050626  0.25000050  1
  Ta  Ta1_1  1  0.49771051  0.18050626  0.75000050  1
  Ta  Ta1_2  1  0.49771051  0.68050626  0.25000050  1
  Ta  Ta1_3  1  0.49771051  0.68050626  0.75000050  1
  Ta  Ta1_4  1  0.99771051  0.18050626  0.25000050  1
  Ta  Ta1_5  1  0.99771051  0.18050626  0.75000050  1
  Ta  Ta1_6  1  0.99771051  0.68050626  0.25000050  1
  Ta  Ta1_7  1  0.99771051  0.68050626  0.75000050  1
  Ta  Ta2_0  1  0.31720426  0.31949424  0.25000050  1
  Ta  Ta2_1  1  0.31720426  0.31949424  0.75000050  1
  Ta  Ta2_2  1  0.31720426  0.81949424  0.25000050  1
  Ta  Ta2_3  1  0.31720426  0.81949424  0.75000050  1
  Ta  Ta2_4  1  0.81720426  0.31949424  0.25000050  1
  Ta  Ta2_5  1  0.81720426  0.31949424  0.75000050  1
  Ta  Ta2_6  1  0.81720426  0.81949424  0.25000050  1
  Ta  Ta2_7  1  0.81720426  0.81949424  0.75000050  1
  Zn  Zn0_0  1  0.35148749  0.00000000  0.00000000  1
  Zn  Zn0_1  1  0.35148749  0.00000000  0.50000000  1
  Zn  Zn0_2  1  0.35148749  0.50000000  0.00000000  1
  Zn  Zn0_3  1  0.35148749  0.50000000  0.50000000  1
  Zn  Zn0_4  1  0.85148749  0.00000000  0.00000000  1
  Zn  Zn0_5  1  0.85148749  0.00000000  0.50000000  1
  Zn  Zn0_6  1  0.85148749  0.50000000  0.00000000  1
  Zn  Zn0_7  1  0.85148749  0.50000000  0.50000000  1
  Ga  Ga0_0  1  0.14750111  0.14689336  0.00000000  1
  Ga  Ga0_1  1  0.14750111  0.14689336  0.50000000  1
  Ga  Ga0_2  1  0.14750111  0.64689336  0.00000000  1
  Ga  Ga0_3  1  0.14750111  0.64689336  0.50000000  1
  Ga  Ga0_4  1  0.64750111  0.14689336  0.00000000  1
  Ga  Ga0_5  1  0.64750111  0.14689336  0.50000000  1
  Ga  Ga0_6  1  0.64750111  0.64689336  0.00000000  1
  Ga  Ga0_7  1  0.64750111  0.64689336  0.50000000  1
  Ga  Ga1_0  1  0.00060775  0.35310714  0.00000000  1
  Ga  Ga1_1  1  0.00060775  0.35310714  0.50000000  1
  Ga  Ga1_2  1  0.00060775  0.85310714  0.00000000  1
  Ga  Ga1_3  1  0.00060775  0.85310714  0.50000000  1
  Ga  Ga1_4  1  0.50060775  0.35310714  0.00000000  1
  Ga  Ga1_5  1  0.50060775  0.35310714  0.50000000  1
  Ga  Ga1_6  1  0.50060775  0.85310714  0.00000000  1
  Ga  Ga1_7  1  0.50060775  0.85310714  0.50000000  1
  Ir  Ir0_0  1  0.33353735  0.16856135  0.00000000  1
  Ir  Ir0_1  1  0.33353735  0.16856135  0.50000000  1
  Ir  Ir0_2  1  0.33353735  0.66856135  0.00000000  1
  Ir  Ir0_3  1  0.33353735  0.66856135  0.50000000  1
  Ir  Ir0_4  1  0.83353735  0.16856135  0.00000000  1
  Ir  Ir0_5  1  0.83353735  0.16856135  0.50000000  1
  Ir  Ir0_6  1  0.83353735  0.66856135  0.00000000  1
  Ir  Ir0_7  1  0.83353735  0.66856135  0.50000000  1
  Ir  Ir1_0  1  0.16497650  0.33143915  0.00000000  1
  Ir  Ir1_1  1  0.16497650  0.33143915  0.50000000  1
  Ir  Ir1_2  1  0.16497650  0.83143915  0.00000000  1
  Ir  Ir1_3  1  0.16497650  0.83143915  0.50000000  1
  Ir  Ir1_4  1  0.66497650  0.33143915  0.00000000  1
  Ir  Ir1_5  1  0.66497650  0.33143915  0.50000000  1
  Ir  Ir1_6  1  0.66497650  0.83143915  0.00000000  1
  Ir  Ir1_7  1  0.66497650  0.83143915  0.50000000  1
  Ir  Ir2_0  1  0.00102794  0.00000000  0.25000050  1
  Ir  Ir2_1  1  0.00102794  0.00000000  0.75000050  1
  Ir  Ir2_2  1  0.00102794  0.50000000  0.25000050  1
  Ir  Ir2_3  1  0.00102794  0.50000000  0.75000050  1
  Ir  Ir2_4  1  0.50102794  0.00000000  0.25000050  1
  Ir  Ir2_5  1  0.50102794  0.00000000  0.75000050  1
  Ir  Ir2_6  1  0.50102794  0.50000000  0.25000050  1
  Ir  Ir2_7  1  0.50102794  0.50000000  0.75000050  1
loop_
_geom_bond_atom_site_label_1
_geom_bond_atom_site_label_2
_geom_bond_distance
_geom_bond_site_symmetry_2
Ta0_0 Zn0_1 2.855061 1_555
Ta0_0 Zn0_0 2.855064 1_555
Ta0_0 Ta0_1 2.894331 1_554
Ta0_0 Ta0_1 2.894331 1_555
Ta0_1 Zn0_0 2.855061 1_556
Ta0_1 Zn0_1 2.855064 1_555
Ta0_2 Zn0_3 2.855061 1_555
Ta0_2 Zn0_2 2.855064 1_555
Ta0_2 Ta0_3 2.894331 1_554
Ta0_2 Ta0_3 2.894331 1_555
Ta0_3 Zn0_2 2.855061 1_556
Ta0_3 Zn0_3 2.855064 1_555
Ta0_4 Zn0_5 2.855061 1_555
Ta0_4 Zn0_4 2.855064 1_555
Ta0_4 Ta0_5 2.894331 1_554
Ta0_4 Ta0_5 2.894331 1_555
Ta0_5 Zn0_4 2.855061 1_556
Ta0_5 Zn0_5 2.855064 1_555
Ta0_6 Zn0_7 2.855061 1_555
Ta0_6 Zn0_6 2.855064 1_555
Ta0_6 Ta0_7 2.894331 1_554
Ta0_6 Ta0_7 2.894331 1_555
Ta0_7 Zn0_6 2.855061 1_556
Ta0_7 Zn0_7 2.855064 1_555
Ta1_0 Zn0_1 2.857669 1_555
Ta1_0 Zn0_0 2.857672 1_555
Ta1_0 Ta1_1 2.894331 1_554
Ta1_0 Ta1_1 2.894331 1_555
Ta1_1 Zn0_0 2.857669 1_556
Ta1_1 Zn0_1 2.857672 1_555
Ta1_2 Zn0_3 2.857669 1_555
Ta1_2 Zn0_2 2.857672 1_555
Ta1_2 Ta1_3 2.894331 1_554
Ta1_2 Ta1_3 2.894331 1_555
Ta1_3 Zn0_2 2.857669 1_556
Ta1_3 Zn0_3 2.857672 1_555
Ta1_4 Zn0_5 2.857669 1_555
Ta1_4 Zn0_4 2.857672 1_555
Ta1_4 Ta1_5 2.894331 1_554
Ta1_4 Ta1_5 2.894331 1_555
Ta1_5 Zn0_4 2.857669 1_556
Ta1_5 Zn0_5 2.857672 1_555
Ta1_6 Zn0_7 2.857669 1_555
Ta1_6 Zn0_6 2.857672 1_555
Ta1_6 Ta1_7 2.894331 1_554
Ta1_6 Ta1_7 2.894331 1_555
Ta1_7 Zn0_6 2.857669 1_556
Ta1_7 Zn0_7 2.857672 1_555
Ta2_0 Zn0_3 2.857662 1_555
Ta2_0 Zn0_2 2.857665 1_555
Ta2_0 Ta2_1 2.894331 1_554
Ta2_0 Ta2_1 2.894331 1_555
Ta2_1 Zn0_2 2.857662 1_556
Ta2_1 Zn0_3 2.857665 1_555
Ta2_2 Zn0_1 2.857662 1_565
Ta2_2 Zn0_0 2.857665 1_565
Ta2_2 Ta2_3 2.894331 1_554
Ta2_2 Ta2_3 2.894331 1_555
Ta2_3 Zn0_0 2.857662 1_566
Ta2_3 Zn0_1 2.857665 1_565
Ta2_4 Zn0_7 2.857662 1_555
Ta2_4 Zn0_6 2.857665 1_555
Ta2_4 Ta2_5 2.894331 1_554
Ta2_4 Ta2_5 2.894331 1_555
Ta2_5 Zn0_6 2.857662 1_556
Ta2_5 Zn0_7 2.857665 1_555
Ta2_6 Zn0_5 2.857662 1_565
Ta2_6 Zn0_4 2.857665 1_565
Ta2_6 Ta2_7 2.894331 1_554
Ta2_6 Ta2_7 2.894331 1_555
Ta2_7 Zn0_4 2.857662 1_566
Ta2_7 Zn0_5 2.857665 1_565
Zn0_0 Zn0_1 2.894331 1_555
Zn0_0 Zn0_1 2.894331 1_554
Zn0_2 Zn0_3 2.894331 1_554
Zn0_2 Zn0_3 2.894331 1_555
Zn0_4 Zn0_5 2.894331 1_555
Zn0_4 Zn0_5 2.894331 1_554
Zn0_6 Zn0_7 2.894331 1_554
Zn0_6 Zn0_7 2.894331 1_555
Ga0_0 Ir2_1 2.614504 1_554
Ga0_0 Ir2_0 2.614507 1_555
Ga0_0 Ir1_0 2.619095 1_555
Ga0_0 Ir0_0 2.619607 1_555
Ga0_0 Ga0_1 2.894331 1_555
Ga0_0 Ga0_1 2.894331 1_554
Ga0_0 Ta1_5 2.900952 1_454
Ga0_0 Ta1_4 2.900955 1_455
Ga0_0 Ta0_1 2.902455 1_554
Ga0_0 Ta0_0 2.902458 1_555
Ga0_0 Ta2_1 2.924121 1_554
Ga0_0 Ta2_0 2.924124 1_555
Ga0_1 Ir2_0 2.614504 1_555
Ga0_1 Ir2_1 2.614507 1_555
Ga0_1 Ir1_1 2.619095 1_555
Ga0_1 Ir0_1 2.619607 1_555
Ga0_1 Ta1_4 2.900952 1_455
Ga0_1 Ta1_5 2.900955 1_455
Ga0_1 Ta0_0 2.902455 1_555
Ga0_1 Ta0_1 2.902458 1_555
Ga0_1 Ta2_0 2.924121 1_555
Ga0_1 Ta2_1 2.924124 1_555
Ga0_2 Ir2_3 2.614504 1_554
Ga0_2 Ir2_2 2.614507 1_555
Ga0_2 Ir1_2 2.619095 1_555
Ga0_2 Ir0_2 2.619607 1_555
Ga0_2 Ga0_3 2.894331 1_554
Ga0_2 Ga0_3 2.894331 1_555
Ga0_2 Ta1_7 2.900952 1_454
Ga0_2 Ta1_6 2.900955 1_455
Ga0_2 Ta0_3 2.902455 1_554
Ga0_2 Ta0_2 2.902458 1_555
Ga0_2 Ta2_3 2.924121 1_554
Ga0_2 Ta2_2 2.924124 1_555
Ga0_3 Ir2_2 2.614504 1_555
Ga0_3 Ir2_3 2.614507 1_555
Ga0_3 Ir1_3 2.619095 1_555
Ga0_3 Ir0_3 2.619607 1_555
Ga0_3 Ta1_6 2.900952 1_455
Ga0_3 Ta1_7 2.900955 1_455
Ga0_3 Ta0_2 2.902455 1_555
Ga0_3 Ta0_3 2.902458 1_555
Ga0_3 Ta2_2 2.924121 1_555
Ga0_3 Ta2_3 2.924124 1_555
Ga0_4 Ir2_5 2.614504 1_554
Ga0_4 Ir2_4 2.614507 1_555
Ga0_4 Ir1_4 2.619095 1_555
Ga0_4 Ir0_4 2.619607 1_555
Ga0_4 Ga0_5 2.894331 1_555
Ga0_4 Ga0_5 2.894331 1_554
Ga0_4 Ta1_1 2.900952 1_554
Ga0_4 Ta1_0 2.900955 1_555
Ga0_4 Ta0_5 2.902455 1_554
Ga0_4 Ta0_4 2.902458 1_555
Ga0_4 Ta2_5 2.924121 1_554
Ga0_4 Ta2_4 2.924124 1_555
Ga0_5 Ir2_4 2.614504 1_555
Ga0_5 Ir2_5 2.614507 1_555
Ga0_5 Ir1_5 2.619095 1_555
Ga0_5 Ir0_5 2.619607 1_555
Ga0_5 Ta1_0 2.900952 1_555
Ga0_5 Ta1_1 2.900955 1_555
Ga0_5 Ta0_4 2.902455 1_555
Ga0_5 Ta0_5 2.902458 1_555
Ga0_5 Ta2_4 2.924121 1_555
Ga0_5 Ta2_5 2.924124 1_555
Ga0_6 Ir2_7 2.614504 1_554
Ga0_6 Ir2_6 2.614507 1_555
Ga0_6 Ir1_6 2.619095 1_555
Ga0_6 Ir0_6 2.619607 1_555
Ga0_6 Ga0_7 2.894331 1_555
Ga0_6 Ga0_7 2.894331 1_554
Ga0_6 Ta1_3 2.900952 1_554
Ga0_6 Ta1_2 2.900955 1_555
Ga0_6 Ta0_7 2.902455 1_554
Ga0_6 Ta0_6 2.902458 1_555
Ga0_6 Ta2_7 2.924121 1_554
Ga0_6 Ta2_6 2.924124 1_555
Ga0_7 Ir2_6 2.614504 1_555
Ga0_7 Ir2_7 2.614507 1_555
Ga0_7 Ir1_7 2.619095 1_555
Ga0_7 Ir0_7 2.619607 1_555
Ga0_7 Ta1_2 2.900952 1_555
Ga0_7 Ta1_3 2.900955 1_555
Ga0_7 Ta0_6 2.902455 1_555
Ga0_7 Ta0_7 2.902458 1_555
Ga0_7 Ta2_6 2.924121 1_555
Ga0_7 Ta2_7 2.924124 1_555
Ga1_0 Ir2_3 2.614497 1_554
Ga1_0 Ir2_2 2.614501 1_555
Ga1_0 Ir0_4 2.619095 1_455
Ga1_0 Ir1_0 2.619614 1_555
Ga1_0 Ga1_1 2.894331 1_554
Ga1_0 Ga1_1 2.894331 1_555
Ga1_0 Ta2_5 2.900952 1_454
Ga1_0 Ta2_4 2.900955 1_455
Ga1_0 Ta0_3 2.902453 1_554
Ga1_0 Ta0_2 2.902456 1_555
Ga1_0 Ta1_5 2.924124 1_454
Ga1_0 Ta1_4 2.924127 1_455
Ga1_1 Ir2_2 2.614497 1_555
Ga1_1 Ir2_3 2.614501 1_555
Ga1_1 Ir0_5 2.619095 1_455
Ga1_1 Ir1_1 2.619614 1_555
Ga1_1 Ta2_4 2.900952 1_455
Ga1_1 Ta2_5 2.900955 1_455
Ga1_1 Ta0_2 2.902453 1_555
Ga1_1 Ta0_3 2.902456 1_555
Ga1_1 Ta1_4 2.924124 1_455
Ga1_1 Ta1_5 2.924127 1_455
Ga1_2 Ir2_1 2.614497 1_564
Ga1_2 Ir2_0 2.614501 1_565
Ga1_2 Ir0_6 2.619095 1_455
Ga1_2 Ir1_2 2.619614 1_555
Ga1_2 Ga1_3 2.894331 1_555
Ga1_2 Ga1_3 2.894331 1_554
Ga1_2 Ta2_7 2.900952 1_454
Ga1_2 Ta2_6 2.900955 1_455
Ga1_2 Ta0_1 2.902453 1_564
Ga1_2 Ta0_0 2.902456 1_565
Ga1_2 Ta1_7 2.924124 1_454
Ga1_2 Ta1_6 2.924127 1_455
Ga1_3 Ir2_0 2.614497 1_565
Ga1_3 Ir2_1 2.614501 1_565
Ga1_3 Ir0_7 2.619095 1_455
Ga1_3 Ir1_3 2.619614 1_555
Ga1_3 Ta2_6 2.900952 1_455
Ga1_3 Ta2_7 2.900955 1_455
Ga1_3 Ta0_0 2.902453 1_565
Ga1_3 Ta0_1 2.902456 1_565
Ga1_3 Ta1_6 2.924124 1_455
Ga1_3 Ta1_7 2.924127 1_455
Ga1_4 Ir2_7 2.614497 1_554
Ga1_4 Ir2_6 2.614501 1_555
Ga1_4 Ir0_0 2.619095 1_555
Ga1_4 Ir1_4 2.619614 1_555
Ga1_4 Ga1_5 2.894331 1_554
Ga1_4 Ga1_5 2.894331 1_555
Ga1_4 Ta2_1 2.900952 1_554
Ga1_4 Ta2_0 2.900955 1_555
Ga1_4 Ta0_7 2.902453 1_554
Ga1_4 Ta0_6 2.902456 1_555
Ga1_4 Ta1_1 2.924124 1_554
Ga1_4 Ta1_0 2.924127 1_555
Ga1_5 Ir2_6 2.614497 1_555
Ga1_5 Ir2_7 2.614501 1_555
Ga1_5 Ir0_1 2.619095 1_555
Ga1_5 Ir1_5 2.619614 1_555
Ga1_5 Ta2_0 2.900952 1_555
Ga1_5 Ta2_1 2.900955 1_555
Ga1_5 Ta0_6 2.902453 1_555
Ga1_5 Ta0_7 2.902456 1_555
Ga1_5 Ta1_0 2.924124 1_555
Ga1_5 Ta1_1 2.924127 1_555
Ga1_6 Ir2_5 2.614497 1_564
Ga1_6 Ir2_4 2.614501 1_565
Ga1_6 Ir0_2 2.619095 1_555
Ga1_6 Ir1_6 2.619614 1_555
Ga1_6 Ga1_7 2.894331 1_554
Ga1_6 Ga1_7 2.894331 1_555
Ga1_6 Ta2_3 2.900952 1_554
Ga1_6 Ta2_2 2.900955 1_555
Ga1_6 Ta0_5 2.902453 1_564
Ga1_6 Ta0_4 2.902456 1_565
Ga1_6 Ta1_3 2.924124 1_554
Ga1_6 Ta1_2 2.924127 1_555
Ga1_7 Ir2_4 2.614497 1_565
Ga1_7 Ir2_5 2.614501 1_565
Ga1_7 Ir0_3 2.619095 1_555
Ga1_7 Ir1_7 2.619614 1_555
Ga1_7 Ta2_2 2.900952 1_555
Ga1_7 Ta2_3 2.900955 1_555
Ga1_7 Ta0_4 2.902453 1_565
Ga1_7 Ta0_5 2.902456 1_565
Ga1_7 Ta1_2 2.924124 1_555
Ga1_7 Ta1_3 2.924127 1_555
Ir0_0 Zn0_0 2.645979 1_555
Ir0_0 Ta1_1 2.765819 1_554
Ir0_0 Ta1_0 2.765822 1_555
Ir0_0 Ta0_1 2.769719 1_554
Ir0_0 Ta0_0 2.769722 1_555
Ir0_0 Ta2_1 2.778166 1_554
Ir0_0 Ta2_0 2.778169 1_555
Ir0_0 Ir0_1 2.894331 1_555
Ir0_0 Ir0_1 2.894331 1_554
Ir0_1 Zn0_1 2.645979 1_555
Ir0_1 Ta1_0 2.765819 1_555
Ir0_1 Ta1_1 2.765822 1_555
Ir0_1 Ta0_0 2.769719 1_555
Ir0_1 Ta0_1 2.769722 1_555
Ir0_1 Ta2_0 2.778166 1_555
Ir0_1 Ta2_1 2.778169 1_555
Ir0_2 Zn0_2 2.645979 1_555
Ir0_2 Ta1_3 2.765819 1_554
Ir0_2 Ta1_2 2.765822 1_555
Ir0_2 Ta0_3 2.769719 1_554
Ir0_2 Ta0_2 2.769722 1_555
Ir0_2 Ta2_3 2.778166 1_554
Ir0_2 Ta2_2 2.778169 1_555
Ir0_2 Ir0_3 2.894331 1_554
Ir0_2 Ir0_3 2.894331 1_555
Ir0_3 Zn0_3 2.645979 1_555
Ir0_3 Ta1_2 2.765819 1_555
Ir0_3 Ta1_3 2.765822 1_555
Ir0_3 Ta0_2 2.769719 1_555
Ir0_3 Ta0_3 2.769722 1_555
Ir0_3 Ta2_2 2.778166 1_555
Ir0_3 Ta2_3 2.778169 1_555
Ir0_4 Zn0_4 2.645979 1_555
Ir0_4 Ta1_5 2.765819 1_554
Ir0_4 Ta1_4 2.765822 1_555
Ir0_4 Ta0_5 2.769719 1_554
Ir0_4 Ta0_4 2.769722 1_555
Ir0_4 Ta2_5 2.778166 1_554
Ir0_4 Ta2_4 2.778169 1_555
Ir0_4 Ir0_5 2.894331 1_554
Ir0_4 Ir0_5 2.894331 1_555
Ir0_5 Zn0_5 2.645979 1_555
Ir0_5 Ta1_4 2.765819 1_555
Ir0_5 Ta1_5 2.765822 1_555
Ir0_5 Ta0_4 2.769719 1_555
Ir0_5 Ta0_5 2.769722 1_555
Ir0_5 Ta2_4 2.778166 1_555
Ir0_5 Ta2_5 2.778169 1_555
Ir0_6 Zn0_6 2.645979 1_555
Ir0_6 Ta1_7 2.765819 1_554
Ir0_6 Ta1_6 2.765822 1_555
Ir0_6 Ta0_7 2.769719 1_554
Ir0_6 Ta0_6 2.769722 1_555
Ir0_6 Ta2_7 2.778166 1_554
Ir0_6 Ta2_6 2.778169 1_555
Ir0_6 Ir0_7 2.894331 1_554
Ir0_6 Ir0_7 2.894331 1_555
Ir0_7 Zn0_7 2.645979 1_555
Ir0_7 Ta1_6 2.765819 1_555
Ir0_7 Ta1_7 2.765822 1_555
Ir0_7 Ta0_6 2.769719 1_555
Ir0_7 Ta0_7 2.769722 1_555
Ir0_7 Ta2_6 2.778166 1_555
Ir0_7 Ta2_7 2.778169 1_555
Ir1_0 Zn0_2 2.645972 1_555
Ir1_0 Ta2_1 2.765813 1_554
Ir1_0 Ta2_0 2.765816 1_555
Ir1_0 Ta0_3 2.769715 1_554
Ir1_0 Ta0_2 2.769718 1_555
Ir1_0 Ta1_5 2.778166 1_454
Ir1_0 Ta1_4 2.778169 1_455
Ir1_0 Ir1_1 2.894331 1_555
Ir1_0 Ir1_1 2.894331 1_554
Ir1_1 Zn0_3 2.645972 1_555
Ir1_1 Ta2_0 2.765813 1_555
Ir1_1 Ta2_1 2.765816 1_555
Ir1_1 Ta0_2 2.769715 1_555
Ir1_1 Ta0_3 2.769718 1_555
Ir1_1 Ta1_4 2.778166 1_455
Ir1_1 Ta1_5 2.778169 1_455
Ir1_2 Zn0_0 2.645972 1_565
Ir1_2 Ta2_3 2.765813 1_554
Ir1_2 Ta2_2 2.765816 1_555
Ir1_2 Ta0_1 2.769715 1_564
Ir1_2 Ta0_0 2.769718 1_565
Ir1_2 Ta1_7 2.778166 1_454
Ir1_2 Ta1_6 2.778169 1_455
Ir1_2 Ir1_3 2.894331 1_554
Ir1_2 Ir1_3 2.894331 1_555
Ir1_3 Zn0_1 2.645972 1_565
Ir1_3 Ta2_2 2.765813 1_555
Ir1_3 Ta2_3 2.765816 1_555
Ir1_3 Ta0_0 2.769715 1_565
Ir1_3 Ta0_1 2.769718 1_565
Ir1_3 Ta1_6 2.778166 1_455
Ir1_3 Ta1_7 2.778169 1_455
Ir1_4 Zn0_6 2.645972 1_555
Ir1_4 Ta2_5 2.765813 1_554
Ir1_4 Ta2_4 2.765816 1_555
Ir1_4 Ta0_7 2.769715 1_554
Ir1_4 Ta0_6 2.769718 1_555
Ir1_4 Ta1_1 2.778166 1_554
Ir1_4 Ta1_0 2.778169 1_555
Ir1_4 Ir1_5 2.894331 1_555
Ir1_4 Ir1_5 2.894331 1_554
Ir1_5 Zn0_7 2.645972 1_555
Ir1_5 Ta2_4 2.765813 1_555
Ir1_5 Ta2_5 2.765816 1_555
Ir1_5 Ta0_6 2.769715 1_555
Ir1_5 Ta0_7 2.769718 1_555
Ir1_5 Ta1_0 2.778166 1_555
Ir1_5 Ta1_1 2.778169 1_555
Ir1_6 Zn0_4 2.645972 1_565
Ir1_6 Ta2_7 2.765813 1_554
Ir1_6 Ta2_6 2.765816 1_555
Ir1_6 Ta0_5 2.769715 1_564
Ir1_6 Ta0_4 2.769718 1_565
Ir1_6 Ta1_3 2.778166 1_554
Ir1_6 Ta1_2 2.778169 1_555
Ir1_6 Ir1_7 2.894331 1_554
Ir1_6 Ir1_7 2.894331 1_555
Ir1_7 Zn0_5 2.645972 1_565
Ir1_7 Ta2_6 2.765813 1_555
Ir1_7 Ta2_7 2.765816 1_555
Ir1_7 Ta0_4 2.769715 1_565
Ir1_7 Ta0_5 2.769718 1_565
Ir1_7 Ta1_2 2.778166 1_555
Ir1_7 Ta1_3 2.778169 1_555
Ir2_0 Zn0_5 2.652757 1_455
Ir2_0 Zn0_4 2.652760 1_455
Ir2_0 Ta2_6 2.704590 1_445
Ir2_0 Ta1_4 2.704593 1_455
Ir2_0 Ta0_0 2.749239 1_555
Ir2_0 Ir2_1 2.894331 1_554
Ir2_0 Ir2_1 2.894331 1_555
Ir2_1 Zn0_4 2.652757 1_456
Ir2_1 Zn0_5 2.652760 1_455
Ir2_1 Ta2_7 2.704590 1_445
Ir2_1 Ta1_5 2.704593 1_455
Ir2_1 Ta0_1 2.749239 1_555
Ir2_2 Zn0_7 2.652757 1_455
Ir2_2 Zn0_6 2.652760 1_455
Ir2_2 Ta2_4 2.704590 1_455
Ir2_2 Ta1_6 2.704593 1_455
Ir2_2 Ta0_2 2.749239 1_555
Ir2_2 Ir2_3 2.894331 1_554
Ir2_2 Ir2_3 2.894331 1_555
Ir2_3 Zn0_6 2.652757 1_456
Ir2_3 Zn0_7 2.652760 1_455
Ir2_3 Ta2_5 2.704590 1_455
Ir2_3 Ta1_7 2.704593 1_455
Ir2_3 Ta0_3 2.749239 1_555
Ir2_4 Zn0_1 2.652757 1_555
Ir2_4 Zn0_0 2.652760 1_555
Ir2_4 Ta2_2 2.704590 1_545
Ir2_4 Ta1_0 2.704593 1_555
Ir2_4 Ta0_4 2.749239 1_555
Ir2_4 Ir2_5 2.894331 1_554
Ir2_4 Ir2_5 2.894331 1_555
Ir2_5 Zn0_0 2.652757 1_556
Ir2_5 Zn0_1 2.652760 1_555
Ir2_5 Ta2_3 2.704590 1_545
Ir2_5 Ta1_1 2.704593 1_555
Ir2_5 Ta0_5 2.749239 1_555
Ir2_6 Zn0_3 2.652757 1_555
Ir2_6 Zn0_2 2.652760 1_555
Ir2_6 Ta2_0 2.704590 1_555
Ir2_6 Ta1_2 2.704593 1_555
Ir2_6 Ta0_6 2.749239 1_555
Ir2_6 Ir2_7 2.894331 1_554
Ir2_6 Ir2_7 2.894331 1_555
Ir2_7 Zn0_2 2.652757 1_556
Ir2_7 Zn0_3 2.652760 1_555
Ir2_7 Ta2_1 2.704590 1_555
Ir2_7 Ta1_3 2.704593 1_555
Ir2_7 Ta0_7 2.749239 1_555
