# generated using pymatgen
data_Zr6Ti7Al9Os7
_symmetry_space_group_name_H-M   'P 1'
_cell_length_a   8.84504987
_cell_length_b   8.84505117
_cell_length_c   8.84505075
_cell_angle_alpha   59.54791200
_cell_angle_beta   59.54790845
_cell_angle_gamma   59.54790656
_symmetry_Int_Tables_number   1
_chemical_formula_structural   Zr6Ti7Al9Os7
_chemical_formula_sum   'Zr6 Ti7 Al9 Os7'
_cell_volume   484.28258673
_cell_formula_units_Z   1
loop_
 _symmetry_equiv_pos_site_id
 _symmetry_equiv_pos_as_xyz
  1  'x, y, z'
loop_
 _atom_site_type_symbol
 _atom_site_label
 _atom_site_symmetry_multiplicity
 _atom_site_fract_x
 _atom_site_fract_y
 _atom_site_fract_z
 _atom_site_occupancy
  Zr  Zr0  1  0.69441879  0.69441879  0.30741336  1
  Zr  Zr1  1  0.30093497  0.70597806  0.30093497  1
  Zr  Zr2  1  0.70597806  0.30093497  0.30093497  1
  Zr  Zr3  1  0.30093497  0.30093497  0.70597806  1
  Zr  Zr4  1  0.69441879  0.30741336  0.69441879  1
  Zr  Zr5  1  0.30741336  0.69441879  0.69441879  1
  Ti  Ti0  1  0.88022123  0.88022123  0.36317973  1
  Ti  Ti1  1  0.88022123  0.36317973  0.88022123  1
  Ti  Ti2  1  0.36317973  0.88022123  0.88022123  1
  Ti  Ti3  1  0.87712164  0.87712164  0.87712164  1
  Ti  Ti4  1  0.12154218  0.12154218  0.63393542  1
  Ti  Ti5  1  0.12154218  0.63393542  0.12154218  1
  Ti  Ti6  1  0.63393542  0.12154218  0.12154218  1
  Al  Al0  1  0.11859600  0.11859600  0.11859600  1
  Al  Al1  1  0.66402901  0.66402901  0.00658873  1
  Al  Al2  1  0.66402901  0.00658873  0.66402901  1
  Al  Al3  1  0.00658873  0.66402901  0.66402901  1
  Al  Al4  1  0.66452025  0.66452025  0.66452025  1
  Al  Al5  1  0.33257771  0.33257771  0.99970326  1
  Al  Al6  1  0.33257771  0.99970326  0.33257771  1
  Al  Al7  1  0.99970326  0.33257771  0.33257771  1
  Al  Al8  1  0.33564907  0.33564907  0.33564907  1
  Os  Os0  1  0.99764429  0.99764429  0.99764429  1
  Os  Os1  1  0.99968233  0.99968233  0.50208870  1
  Os  Os2  1  0.50015515  0.00046077  0.50015515  1
  Os  Os3  1  0.00046077  0.50015515  0.50015515  1
  Os  Os4  1  0.50015515  0.50015515  0.00046077  1
  Os  Os5  1  0.99968233  0.50208870  0.99968233  1
  Os  Os6  1  0.50208870  0.99968233  0.99968233  1
loop_
_geom_bond_atom_site_label_1
_geom_bond_atom_site_label_2
_geom_bond_distance
_geom_bond_site_symmetry_2
Ti0 Zr1 3.081562 1_655
Ti0 Zr2 3.081563 1_565
Ti0 Zr0 3.166403 1_555
Ti1 Zr3 3.081562 1_655
Ti1 Zr2 3.081563 1_556
Ti1 Zr4 3.166403 1_555
Ti2 Zr1 3.081563 1_556
Ti2 Zr3 3.081563 1_565
Ti2 Zr5 3.166403 1_555
Ti3 Zr5 3.144314 1_655
Ti3 Zr0 3.144315 1_556
Ti3 Zr4 3.144315 1_565
Ti4 Zr4 3.131917 1_455
Ti4 Zr5 3.131917 1_545
Ti4 Zr3 3.169128 1_555
Ti5 Zr0 3.131917 1_455
Ti5 Zr5 3.131917 1_554
Ti5 Zr1 3.169128 1_555
Ti6 Zr4 3.131917 1_554
Ti6 Zr0 3.131917 1_545
Ti6 Zr2 3.169129 1_555
Al0 Os0 2.629441 1_444
Al0 Os6 2.758070 1_544
Al0 Os1 2.758070 1_445
Al0 Os5 2.758070 1_454
Al0 Al6 2.804715 1_545
Al0 Al5 2.804715 1_554
Al0 Al7 2.804715 1_455
Al0 Ti1 2.971574 1_454
Al0 Ti2 2.971574 1_544
Al0 Ti0 2.971575 1_445
Al0 Zr2 3.037409 1_455
Al0 Zr3 3.037409 1_554
Al0 Zr1 3.037409 1_545
Al1 Os5 2.542432 1_554
Al1 Os6 2.542432 1_554
Al1 Os4 2.548288 1_555
Al1 Zr1 2.919950 1_555
Al1 Zr2 2.919950 1_555
Al1 Zr0 2.957634 1_555
Al2 Os1 2.542432 1_545
Al2 Os6 2.542432 1_545
Al2 Os2 2.548288 1_555
Al2 Zr3 2.919950 1_555
Al2 Zr2 2.919950 1_555
Al2 Zr4 2.957634 1_555
Al3 Os5 2.542432 1_455
Al3 Os1 2.542432 1_455
Al3 Os3 2.548288 1_555
Al3 Zr3 2.919950 1_555
Al3 Zr1 2.919950 1_555
Al3 Zr5 2.957634 1_555
Al4 Os3 2.537966 1_655
Al4 Os2 2.537966 1_565
Al4 Os4 2.537966 1_556
Al4 Zr5 2.914497 1_555
Al4 Zr0 2.914497 1_555
Al4 Zr4 2.914497 1_555
Al5 Os5 2.538358 1_455
Al5 Os6 2.538359 1_545
Al5 Os4 2.577045 1_556
Al5 Zr3 2.908582 1_555
Al5 Zr4 2.951485 1_555
Al5 Zr5 2.951485 1_555
Al6 Os1 2.538358 1_455
Al6 Os6 2.538359 1_554
Al6 Os2 2.577045 1_565
Al6 Zr1 2.908582 1_555
Al6 Zr0 2.951485 1_555
Al6 Zr5 2.951485 1_555
Al7 Os5 2.538359 1_554
Al7 Os1 2.538359 1_545
Al7 Os3 2.577045 1_655
Al7 Zr2 2.908582 1_555
Al7 Zr4 2.951485 1_555
Al7 Zr0 2.951485 1_555
Al8 Os3 2.534723 1_555
Al8 Os2 2.534724 1_555
Al8 Os4 2.534724 1_555
Al8 Zr2 2.995761 1_555
Al8 Zr3 2.995762 1_555
Al8 Zr1 2.995762 1_555
Os0 Ti6 2.611778 1_566
Os0 Ti4 2.611779 1_665
Os0 Ti5 2.611779 1_656
Os0 Ti3 2.620113 1_555
Os0 Ti2 2.626154 1_655
Os0 Ti0 2.626155 1_556
Os0 Ti1 2.626155 1_565
Os1 Ti3 2.693544 1_555
Os1 Ti4 2.722025 1_665
Os1 Ti0 2.739741 1_555
Os1 Zr2 3.142838 1_565
Os1 Zr1 3.142838 1_655
Os1 Zr5 3.190798 1_655
Os1 Zr4 3.190798 1_565
Os2 Ti4 2.719262 1_555
Os2 Ti6 2.719262 1_555
Os2 Ti0 2.730139 1_545
Os2 Ti2 2.730139 1_545
Os2 Zr0 3.190650 1_545
Os2 Zr5 3.190650 1_545
Os2 Zr3 3.223100 1_555
Os2 Zr2 3.223100 1_555
Os3 Ti5 2.719262 1_555
Os3 Ti4 2.719262 1_555
Os3 Ti1 2.730139 1_455
Os3 Ti0 2.730140 1_455
Os3 Zr0 3.190650 1_455
Os3 Zr4 3.190650 1_455
Os3 Zr3 3.223099 1_555
Os3 Zr1 3.223099 1_555
Os4 Ti5 2.719262 1_555
Os4 Ti6 2.719262 1_555
Os4 Ti1 2.730139 1_554
Os4 Ti2 2.730140 1_554
Os4 Zr5 3.190650 1_554
Os4 Zr4 3.190650 1_554
Os4 Zr2 3.223099 1_555
Os4 Zr1 3.223099 1_555
Os5 Ti3 2.693544 1_555
Os5 Ti5 2.722025 1_656
Os5 Ti1 2.739741 1_555
Os5 Zr3 3.142838 1_655
Os5 Zr2 3.142838 1_556
Os5 Zr0 3.190798 1_556
Os5 Zr5 3.190798 1_655
Os6 Ti3 2.693544 1_555
Os6 Ti6 2.722025 1_566
Os6 Ti2 2.739741 1_555
Os6 Zr3 3.142838 1_565
Os6 Zr1 3.142838 1_556
Os6 Zr0 3.190798 1_556
Os6 Zr4 3.190798 1_565
