# generated using pymatgen
data_SrCaAs4F24
_symmetry_space_group_name_H-M   'P 1'
_cell_length_a   9.65754009
_cell_length_b   9.65660885
_cell_length_c   9.65729559
_cell_angle_alpha   132.28545341
_cell_angle_beta   132.29850723
_cell_angle_gamma   69.77017291
_symmetry_Int_Tables_number   1
_chemical_formula_structural   SrCaAs4F24
_chemical_formula_sum   'Sr1 Ca1 As4 F24'
_cell_volume   483.30179819
_cell_formula_units_Z   1
loop_
 _symmetry_equiv_pos_site_id
 _symmetry_equiv_pos_as_xyz
  1  'x, y, z'
loop_
 _atom_site_type_symbol
 _atom_site_label
 _atom_site_symmetry_multiplicity
 _atom_site_fract_x
 _atom_site_fract_y
 _atom_site_fract_z
 _atom_site_occupancy
  Sr  Sr0  1  0.75005122  0.25005709  0.49998835  1
  Ca  Ca0  1  0.99994167  0.99994986  0.00000472  1
  As  As0  1  0.78370809  0.78369937  0.99999135  1
  As  As1  1  0.21613631  0.21619994  0.99996708  1
  As  As2  1  0.97581559  0.47581606  0.50006711  1
  As  As3  1  0.52429818  0.02430798  0.49995102  1
  F  F0  1  0.85711751  0.77641334  0.21216482  1
  F  F1  1  0.56424319  0.64493554  0.78782969  1
  F  F2  1  0.40233208  0.79895638  0.29894939  1
  F  F3  1  0.35498048  0.14285541  0.91941347  1
  F  F4  1  0.22344018  0.43563543  0.08064115  1
  F  F5  1  0.20119736  0.50016660  0.60351428  1
  F  F6  1  0.65228141  0.25224584  0.69111833  1
  F  F7  1  0.74782152  0.43895387  0.39992487  1
  F  F8  1  0.03902199  0.34791398  0.60013437  1
  F  F9  1  0.07467958  0.27326394  0.08154017  1
  F  F10  1  0.19167695  0.99315563  0.91843149  1
  F  F11  1  0.56109773  0.96110963  0.30881552  1
  F  F12  1  0.72659251  0.80818083  0.80139299  1
  F  F13  1  0.00677478  0.92523241  0.19861860  1
  F  F14  1  0.31145230  0.09611987  0.35111624  1
  F  F15  1  0.90401704  0.25508155  0.21540669  1
  F  F16  1  0.03974719  0.68863707  0.78463257  1
  F  F17  1  0.42031361  0.30190854  0.29650825  1
  F  F18  1  0.00540060  0.12385172  0.70351508  1
  F  F19  1  0.74500965  0.96027499  0.64883321  1
  F  F20  1  0.69799509  0.99445281  0.11837430  1
  F  F21  1  0.87606227  0.57961307  0.88161522  1
  F  F22  1  0.50002828  0.10332334  0.70098679  1
  F  F23  1  0.89676862  0.59768492  0.39655285  1
loop_
_geom_bond_atom_site_label_1
_geom_bond_atom_site_label_2
_geom_bond_distance
_geom_bond_site_symmetry_2
Ca0 F15 2.318242 1_565
Ca0 F16 2.318247 1_654
Ca0 F14 2.318398 1_665
Ca0 F19 2.318434 1_554
Ca0 F9 2.421312 1_665
Ca0 F13 2.421347 1_655
Ca0 F12 2.421384 1_554
Ca0 F10 2.421468 1_654
As0 F0 1.705958 1_556
As0 F1 1.705970 1_555
As0 F21 1.763927 1_555
As0 F20 1.764064 1_556
As0 F12 1.770475 1_555
As0 F13 1.770495 1_656
As1 F4 1.705872 1_556
As1 F3 1.706054 1_555
As1 F18 1.763713 1_555
As1 F17 1.764344 1_556
As1 F10 1.770371 1_545
As1 F9 1.770403 1_556
As2 F23 1.703426 1_555
As2 F5 1.703546 1_655
As2 F8 1.767121 1_655
As2 F7 1.767148 1_555
As2 F16 1.775048 1_655
As2 F15 1.775635 1_555
As3 F22 1.703471 1_555
As3 F2 1.703493 1_545
As3 F6 1.767154 1_555
As3 F11 1.767211 1_545
As3 F14 1.775067 1_555
As3 F19 1.775618 1_545
F6 Sr0 2.564857 1_555
F7 Sr0 2.564848 1_555
F8 Sr0 2.564702 1_455
F11 Sr0 2.564892 1_565
F17 Sr0 2.459986 1_555
F18 Sr0 2.459829 1_455
F20 Sr0 2.459818 1_565
F21 Sr0 2.459723 1_555
