# generated using pymatgen
data_Rb2AuIBr6
_symmetry_space_group_name_H-M   'P 1'
_cell_length_a   6.99044186
_cell_length_b   6.99044288
_cell_length_c   9.55778339
_cell_angle_alpha   70.37060060
_cell_angle_beta   70.37059984
_cell_angle_gamma   62.38146685
_symmetry_Int_Tables_number   1
_chemical_formula_structural   Rb2AuIBr6
_chemical_formula_sum   'Rb2 Au1 I1 Br6'
_cell_volume   380.58954183
_cell_formula_units_Z   1
loop_
 _symmetry_equiv_pos_site_id
 _symmetry_equiv_pos_as_xyz
  1  'x, y, z'
loop_
 _atom_site_type_symbol
 _atom_site_label
 _atom_site_symmetry_multiplicity
 _atom_site_fract_x
 _atom_site_fract_y
 _atom_site_fract_z
 _atom_site_occupancy
  Rb  Rb0  1  0.71105535  0.71105535  0.75883688  1
  Rb  Rb1  1  0.28894465  0.28894465  0.24116312  1
  Au  Au0  1  0.00000000  0.00000000  0.00000000  1
  I  I0  1  0.50000000  0.50000000  0.50000000  1
  Br  Br0  1  0.31007801  0.83005977  0.12770967  1
  Br  Br1  1  0.16994023  0.68992199  0.87229033  1
  Br  Br2  1  0.68992199  0.16994023  0.87229033  1
  Br  Br3  1  0.83005977  0.31007801  0.12770967  1
  Br  Br4  1  0.25240114  0.25240114  0.63810862  1
  Br  Br5  1  0.74759886  0.74759886  0.36189138  1
loop_
_geom_bond_atom_site_label_1
_geom_bond_atom_site_label_2
_geom_bond_distance
_geom_bond_site_symmetry_2
Au0 Br2 2.452655 1_454
Au0 Br0 2.452655 1_545
Au0 Br3 2.452655 1_455
Au0 Br1 2.452655 1_544
Br0 Rb1 3.627759 1_555
Br0 Rb1 3.643865 1_565
Br0 Rb0 3.761351 1_554
Br1 Rb0 3.627758 1_555
Br1 Rb0 3.643864 1_455
Br1 Rb1 3.761351 1_556
Br2 Rb0 3.627759 1_555
Br2 Rb0 3.643865 1_545
Br2 Rb1 3.761351 1_556
Br3 Rb1 3.627758 1_555
Br3 Rb1 3.643864 1_655
Br3 Rb0 3.761351 1_554
Br4 I0 2.727902 1_555
Br4 Rb1 3.644519 1_555
Br4 Rb0 3.772826 1_455
Br4 Rb0 3.772826 1_545
Br5 I0 2.727902 1_555
Br5 Rb0 3.644519 1_555
Br5 Rb1 3.772826 1_655
Br5 Rb1 3.772826 1_565
