# generated using pymatgen
data_Cs12Sc(AlTe4)3
_symmetry_space_group_name_H-M   'P 1'
_cell_length_a   14.69986011
_cell_length_b   9.27537716
_cell_length_c   12.12010780
_cell_angle_alpha   53.18167901
_cell_angle_beta   90.34843335
_cell_angle_gamma   90.56730685
_symmetry_Int_Tables_number   1
_chemical_formula_structural   Cs12Sc(AlTe4)3
_chemical_formula_sum   'Cs12 Sc1 Al3 Te12'
_cell_volume   1322.85696015
_cell_formula_units_Z   1
loop_
 _symmetry_equiv_pos_site_id
 _symmetry_equiv_pos_as_xyz
  1  'x, y, z'
loop_
 _atom_site_type_symbol
 _atom_site_label
 _atom_site_symmetry_multiplicity
 _atom_site_fract_x
 _atom_site_fract_y
 _atom_site_fract_z
 _atom_site_occupancy
  Cs  Cs0  1  0.58002847  0.65151351  0.11230899  1
  Cs  Cs1  1  0.08036814  0.35068147  0.38832883  1
  Cs  Cs2  1  0.41961108  0.35153448  0.89301135  1
  Cs  Cs3  1  0.92073274  0.64658767  0.61396087  1
  Cs  Cs4  1  0.30693646  0.87369401  0.91331460  1
  Cs  Cs5  1  0.81563632  0.12857967  0.58564324  1
  Cs  Cs6  1  0.69027764  0.12408656  0.08286428  1
  Cs  Cs7  1  0.18682259  0.87458375  0.40651923  1
  Cs  Cs8  1  0.87595760  0.62028448  0.01914351  1
  Cs  Cs9  1  0.37106275  0.38089472  0.48569914  1
  Cs  Cs10  1  0.12593358  0.37686013  0.98339397  1
  Cs  Cs11  1  0.62826211  0.62124759  0.51541705  1
  Sc  Sc0  1  0.55888880  0.93676536  0.65436418  1
  Al  Al0  1  0.05817273  0.06638703  0.84194549  1
  Al  Al1  1  0.44094801  0.06561283  0.34336493  1
  Al  Al2  1  0.94123018  0.93272445  0.15830837  1
  Te  Te0  1  0.10560414  0.85849919  0.11150359  1
  Te  Te1  1  0.60944284  0.14955298  0.37377497  1
  Te  Te2  1  0.89401708  0.13973326  0.88849937  1
  Te  Te3  1  0.38471300  0.85692063  0.60894552  1
  Te  Te4  1  0.83554695  0.64857223  0.30769580  1
  Te  Te5  1  0.33520337  0.34753031  0.19723380  1
  Te  Te6  1  0.16462260  0.34938752  0.69437901  1
  Te  Te7  1  0.67158734  0.64249038  0.81122001  1
  Te  Te8  1  0.05640863  0.88612256  0.74029449  1
  Te  Te9  1  0.55584884  0.12222141  0.76607938  1
  Te  Te10  1  0.94358947  0.11286855  0.26005676  1
  Te  Te11  1  0.44254953  0.88406227  0.24272926  1
loop_
_geom_bond_atom_site_label_1
_geom_bond_atom_site_label_2
_geom_bond_distance
_geom_bond_site_symmetry_2
Cs0 Te1 3.774358 1_555
Cs0 Te9 3.853707 1_564
Cs0 Te11 3.930271 1_555
Cs0 Te7 3.945044 1_554
Cs0 Te5 4.281017 1_555
Cs0 Te4 4.419647 1_555
Cs1 Te0 3.823589 1_555
Cs1 Te8 3.853018 1_545
Cs1 Te6 3.896732 1_555
Cs1 Te10 3.912745 1_455
Cs1 Te4 4.296375 1_455
Cs1 Te5 4.425698 1_555
Cs2 Te3 3.843598 1_555
Cs2 Te11 3.855397 1_546
Cs2 Te9 3.865901 1_555
Cs2 Te5 3.876471 1_556
Cs2 Te7 4.315759 1_555
Cs2 Te6 4.448835 1_555
Cs3 Te2 3.815499 1_555
Cs3 Te10 3.869182 1_565
Cs3 Te4 3.899886 1_555
Cs3 Te8 3.900131 1_655
Cs3 Te6 4.281966 1_655
Cs3 Te7 4.373261 1_555
Cs4 Te0 3.771105 1_556
Cs4 Te3 3.960136 1_555
Cs4 Te5 3.965628 1_556
Cs4 Te9 4.107120 1_565
Cs4 Te6 4.119226 1_565
Cs4 Te8 4.194995 1_555
Cs4 Te11 4.503693 1_556
Cs5 Te1 3.890645 1_555
Cs5 Te4 3.899571 1_555
Cs5 Te2 3.900416 1_555
Cs5 Te8 4.015252 1_645
Cs5 Sc0 4.028957 1_545
Cs5 Te7 4.170574 1_545
Cs5 Te9 4.394554 1_555
Cs5 Te10 4.462733 1_555
Cs6 Te2 3.769298 1_554
Cs6 Te1 3.867071 1_555
Cs6 Te7 3.882855 1_554
Cs6 Te11 4.089842 1_545
Cs6 Te4 4.141179 1_545
Cs6 Te10 4.258065 1_555
Cs6 Te9 4.316639 1_554
Cs7 Te3 3.734847 1_555
Cs7 Te0 3.849239 1_555
Cs7 Te6 3.952375 1_555
Cs7 Te10 4.024557 1_465
Cs7 Te5 4.120246 1_565
Cs7 Te11 4.237311 1_555
Cs8 Te4 3.712262 1_555
Cs8 Te8 3.811805 1_654
Cs8 Te7 3.836204 1_554
Cs8 Te10 3.905296 1_555
Cs8 Te2 4.077687 1_564
Cs9 Te5 3.724033 1_555
Cs9 Te6 3.857629 1_555
Cs9 Te9 3.863621 1_555
Cs9 Te11 3.876297 1_555
Cs9 Te3 4.148030 1_545
Cs10 Te6 3.708850 1_555
Cs10 Te10 3.816106 1_456
Cs10 Te5 3.915226 1_556
Cs10 Te8 3.926329 1_555
Cs10 Te0 4.080009 1_546
Cs11 Te7 3.756892 1_555
Cs11 Te11 3.831943 1_555
Cs11 Te9 3.856788 1_555
Cs11 Te4 3.873030 1_555
Cs11 Te1 4.119992 1_565
Sc0 Te9 2.754661 1_565
Sc0 Te7 2.764189 1_555
Sc0 Te3 2.800157 1_555
Sc0 Te1 2.823089 1_565
Al0 Te8 2.604217 1_545
Al0 Te6 2.619819 1_555
Al0 Te2 2.667062 1_455
Al0 Te0 2.706726 1_546
Al0 Cs4 3.943698 1_545
Al1 Te11 2.605158 1_545
Al1 Te5 2.624293 1_555
Al1 Te1 2.677959 1_555
Al1 Te3 2.706311 1_545
Al2 Te10 2.604217 1_565
Al2 Te4 2.621402 1_555
Al2 Te0 2.674301 1_655
Al2 Te2 2.708357 1_564
Al2 Cs6 3.967169 1_565
