# generated using pymatgen
data_K3LiH6Ru
_symmetry_space_group_name_H-M   'P 1'
_cell_length_a   6.83205008
_cell_length_b   6.83204959
_cell_length_c   6.83205020
_cell_angle_alpha   96.16009403
_cell_angle_beta   96.16010570
_cell_angle_gamma   96.16009497
_symmetry_Int_Tables_number   1
_chemical_formula_structural   K3LiH6Ru
_chemical_formula_sum   'K6 Li2 H12 Ru2'
_cell_volume   312.94118651
_cell_formula_units_Z   2
loop_
 _symmetry_equiv_pos_site_id
 _symmetry_equiv_pos_as_xyz
  1  'x, y, z'
loop_
 _atom_site_type_symbol
 _atom_site_label
 _atom_site_symmetry_multiplicity
 _atom_site_fract_x
 _atom_site_fract_y
 _atom_site_fract_z
 _atom_site_occupancy
  K  K0  1  0.89025114  0.60974886  0.25000000  1
  K  K1  1  0.25000000  0.89025114  0.60974886  1
  K  K2  1  0.60974886  0.25000000  0.89025114  1
  K  K3  1  0.75000000  0.10974886  0.39025114  1
  K  K4  1  0.39025114  0.75000000  0.10974886  1
  K  K5  1  0.10974886  0.39025114  0.75000000  1
  Li  Li0  1  0.25000000  0.25000000  0.25000000  1
  Li  Li1  1  0.75000000  0.75000000  0.75000000  1
  H  H0  1  0.25479584  0.52564541  0.41735170  1
  H  H1  1  0.41735170  0.25479584  0.52564541  1
  H  H2  1  0.52564541  0.41735170  0.25479584  1
  H  H3  1  0.91735170  0.02564541  0.75479584  1
  H  H4  1  0.75479584  0.91735170  0.02564541  1
  H  H5  1  0.02564541  0.75479584  0.91735170  1
  H  H6  1  0.74520416  0.47435459  0.58264830  1
  H  H7  1  0.58264830  0.74520416  0.47435459  1
  H  H8  1  0.47435459  0.58264830  0.74520416  1
  H  H9  1  0.08264830  0.97435459  0.24520416  1
  H  H10  1  0.24520416  0.08264830  0.97435459  1
  H  H11  1  0.97435459  0.24520416  0.08264830  1
  Ru  Ru0  1  0.50000000  0.50000000  0.50000000  1
  Ru  Ru1  1  0.00000000  0.00000000  0.00000000  1
loop_
_geom_bond_atom_site_label_1
_geom_bond_atom_site_label_2
_geom_bond_distance
_geom_bond_site_symmetry_2
H0 Ru0 1.742757 1_555
H0 Li0 2.090808 1_555
H0 K1 2.694075 1_555
H0 K0 2.770819 1_455
H0 K5 2.782175 1_555
H0 K4 2.902887 1_555
H1 Ru0 1.742757 1_555
H1 Li0 2.090808 1_555
H1 K2 2.694075 1_555
H1 K1 2.770819 1_545
H1 K3 2.782175 1_555
H1 K5 2.902887 1_555
H2 Ru0 1.742758 1_555
H2 Li0 2.090808 1_555
H2 K0 2.694075 1_555
H2 K2 2.770819 1_554
H2 K4 2.782175 1_555
H2 K3 2.902887 1_555
H3 Ru1 1.742757 1_656
H3 Li1 2.090808 1_545
H3 K5 2.694075 1_655
H3 K3 2.770819 1_555
H3 K1 2.782175 1_645
H3 K2 2.902887 1_555
H4 Ru1 1.742758 1_665
H4 Li1 2.090808 1_554
H4 K3 2.694075 1_565
H4 K4 2.770819 1_555
H4 K2 2.782175 1_564
H4 K0 2.902887 1_555
H5 Ru1 1.742757 1_566
H5 Li1 2.090808 1_455
H5 K4 2.694075 1_556
H5 K5 2.770819 1_555
H5 K0 2.782175 1_456
H5 K1 2.902887 1_555
H6 Ru0 1.742757 1_555
H6 Li1 2.090808 1_555
H6 K3 2.694075 1_555
H6 K5 2.770819 1_655
H6 K0 2.782175 1_555
H6 K2 2.902887 1_555
H7 Ru0 1.742757 1_555
H7 Li1 2.090808 1_555
H7 K4 2.694075 1_555
H7 K3 2.770819 1_565
H7 K1 2.782175 1_555
H7 K0 2.902887 1_555
H8 Ru0 1.742758 1_555
H8 Li1 2.090808 1_555
H8 K5 2.694075 1_555
H8 K4 2.770819 1_556
H8 K2 2.782175 1_555
H8 K1 2.902887 1_555
H9 Ru1 1.742757 1_565
H9 Li0 2.090808 1_565
H9 K0 2.694075 1_455
H9 K1 2.770819 1_555
H9 K3 2.782175 1_465
H9 K4 2.902887 1_555
H10 Ru1 1.742758 1_556
H10 Li0 2.090808 1_556
H10 K1 2.694075 1_545
H10 K2 2.770819 1_555
H10 K4 2.782175 1_546
H10 K5 2.902887 1_555
H11 Ru1 1.742757 1_655
H11 Li0 2.090808 1_655
H11 K2 2.694075 1_554
H11 K0 2.770819 1_555
H11 K5 2.782175 1_654
H11 K3 2.902887 1_555
