# generated using pymatgen
data_Li2ZnPt3O8
_symmetry_space_group_name_H-M   'P 1'
_cell_length_a   5.88172318
_cell_length_b   5.88172309
_cell_length_c   5.88172220
_cell_angle_alpha   62.97495959
_cell_angle_beta   62.97495908
_cell_angle_gamma   62.97495168
_symmetry_Int_Tables_number   1
_chemical_formula_structural   Li2ZnPt3O8
_chemical_formula_sum   'Li2 Zn1 Pt3 O8'
_cell_volume   153.38385961
_cell_formula_units_Z   1
loop_
 _symmetry_equiv_pos_site_id
 _symmetry_equiv_pos_as_xyz
  1  'x, y, z'
loop_
 _atom_site_type_symbol
 _atom_site_label
 _atom_site_symmetry_multiplicity
 _atom_site_fract_x
 _atom_site_fract_y
 _atom_site_fract_z
 _atom_site_occupancy
  Li  Li0  1  0.62258456  0.62258456  0.62258456  1
  Li  Li1  1  0.23950914  0.23950914  0.23950914  1
  Zn  Zn0  1  0.02186875  0.02186875  0.02186875  1
  Pt  Pt0  1  0.62411258  0.12701864  0.62411258  1
  Pt  Pt1  1  0.12701864  0.62411258  0.62411258  1
  Pt  Pt2  1  0.62411258  0.62411258  0.12701864  1
  O  O0  1  0.86347159  0.86347159  0.86347159  1
  O  O1  1  0.86651383  0.40526678  0.86651383  1
  O  O2  1  0.40526678  0.86651383  0.86651383  1
  O  O3  1  0.86651383  0.86651383  0.40526678  1
  O  O4  1  0.38716423  0.38716423  0.38716423  1
  O  O5  1  0.37930078  0.84326492  0.37930078  1
  O  O6  1  0.84326492  0.37930078  0.37930078  1
  O  O7  1  0.37930078  0.37930078  0.84326492  1
loop_
_geom_bond_atom_site_label_1
_geom_bond_atom_site_label_2
_geom_bond_distance
_geom_bond_site_symmetry_2
Li0 O6 2.065160 1_555
Li0 O5 2.065160 1_555
Li0 O7 2.065161 1_555
Li0 O2 2.070797 1_555
Li0 O1 2.070797 1_555
Li0 O3 2.070797 1_555
Li1 O7 1.978710 1_554
Li1 O5 1.978710 1_545
Li1 O6 1.978710 1_455
Li1 O4 2.078209 1_555
O0 Pt1 2.049799 1_655
O0 Pt0 2.049799 1_565
O0 Pt2 2.049799 1_556
O0 Zn0 2.229401 1_666
O1 Zn0 1.941333 1_656
O1 Pt2 2.043675 1_556
O1 Pt1 2.043675 1_655
O2 Zn0 1.941333 1_566
O2 Pt2 2.043675 1_556
O2 Pt0 2.043675 1_565
O3 Zn0 1.941333 1_665
O3 Pt0 2.043675 1_565
O3 Pt1 2.043675 1_655
O4 Pt1 2.028579 1_555
O4 Pt0 2.028579 1_555
O4 Pt2 2.028579 1_555
O5 Pt2 2.011584 1_555
O5 Pt1 2.011585 1_555
O6 Pt2 2.011584 1_555
O6 Pt0 2.011585 1_555
O7 Pt0 2.011584 1_555
O7 Pt1 2.011584 1_555
