# generated using pymatgen
data_Zr(SCl6)2
_symmetry_space_group_name_H-M   'P 1'
_cell_length_a   8.33718600
_cell_length_b   8.33718635
_cell_length_c   8.33718659
_cell_angle_alpha   76.93907193
_cell_angle_beta   76.93907452
_cell_angle_gamma   76.93906825
_symmetry_Int_Tables_number   1
_chemical_formula_structural   Zr(SCl6)2
_chemical_formula_sum   'Zr1 S2 Cl12'
_cell_volume   540.48814946
_cell_formula_units_Z   1
loop_
 _symmetry_equiv_pos_site_id
 _symmetry_equiv_pos_as_xyz
  1  'x, y, z'
loop_
 _atom_site_type_symbol
 _atom_site_label
 _atom_site_symmetry_multiplicity
 _atom_site_fract_x
 _atom_site_fract_y
 _atom_site_fract_z
 _atom_site_occupancy
  Zr  Zr0  1  0.00000000  0.00000000  0.00000000  1
  S  S0  1  0.21262061  0.21262061  0.21262061  1
  S  S1  1  0.78737939  0.78737939  0.78737939  1
  Cl  Cl0  1  0.83583883  0.83583883  0.53631009  1
  Cl  Cl1  1  0.85945926  0.19533134  0.19533134  1
  Cl  Cl2  1  0.19533134  0.19533134  0.85945926  1
  Cl  Cl3  1  0.19533134  0.85945926  0.19533134  1
  Cl  Cl4  1  0.80466866  0.14054074  0.80466866  1
  Cl  Cl5  1  0.14054074  0.80466866  0.80466866  1
  Cl  Cl6  1  0.80466866  0.80466866  0.14054074  1
  Cl  Cl7  1  0.46368991  0.16416117  0.16416117  1
  Cl  Cl8  1  0.16416117  0.16416117  0.46368991  1
  Cl  Cl9  1  0.16416117  0.46368991  0.16416117  1
  Cl  Cl10  1  0.83583883  0.53631009  0.83583883  1
  Cl  Cl11  1  0.53631009  0.83583883  0.83583883  1
loop_
_geom_bond_atom_site_label_1
_geom_bond_atom_site_label_2
_geom_bond_distance
_geom_bond_site_symmetry_2
Cl0 S1 2.004322 1_555
Cl1 Zr0 2.480084 1_655
Cl2 Zr0 2.480084 1_556
Cl3 Zr0 2.480084 1_565
Cl4 Zr0 2.480084 1_656
Cl5 Zr0 2.480084 1_566
Cl6 Zr0 2.480084 1_665
Cl7 S0 2.004322 1_555
Cl8 S0 2.004322 1_555
Cl9 S0 2.004322 1_555
Cl10 S1 2.004322 1_555
Cl11 S1 2.004322 1_555
