# generated using pymatgen
data_Mn4GaPd8Au3
_symmetry_space_group_name_H-M   'P 1'
_cell_length_a   6.84187635
_cell_length_b   6.84187697
_cell_length_c   6.84187645
_cell_angle_alpha   106.99500426
_cell_angle_beta   106.99499911
_cell_angle_gamma   114.54598706
_symmetry_Int_Tables_number   1
_chemical_formula_structural   Mn4GaPd8Au3
_chemical_formula_sum   'Mn4 Ga1 Pd8 Au3'
_cell_volume   245.08559372
_cell_formula_units_Z   1
loop_
 _symmetry_equiv_pos_site_id
 _symmetry_equiv_pos_as_xyz
  1  'x, y, z'
loop_
 _atom_site_type_symbol
 _atom_site_label
 _atom_site_symmetry_multiplicity
 _atom_site_fract_x
 _atom_site_fract_y
 _atom_site_fract_z
 _atom_site_occupancy
  Mn  Mn0  1  0.25799617  0.25799617  0.51599333  1
  Mn  Mn1  1  0.74200383  0.74200383  0.48400667  1
  Mn  Mn2  1  0.25799617  0.74200383  0.00000000  1
  Mn  Mn3  1  0.74200383  0.25799617  0.00000000  1
  Ga  Ga0  1  0.00000000  0.00000000  0.00000000  1
  Pd  Pd0  1  0.48271144  0.23753857  0.24517187  1
  Pd  Pd1  1  0.51728856  0.76246143  0.75482813  1
  Pd  Pd2  1  0.99236669  0.23753857  0.75482813  1
  Pd  Pd3  1  0.23753857  0.99236669  0.75482813  1
  Pd  Pd4  1  0.00763331  0.76246143  0.24517187  1
  Pd  Pd5  1  0.76246143  0.00763331  0.24517187  1
  Pd  Pd6  1  0.23753857  0.48271144  0.24517187  1
  Pd  Pd7  1  0.76246143  0.51728856  0.75482813  1
  Au  Au0  1  0.50000000  0.00000000  0.50000000  1
  Au  Au1  1  0.00000000  0.50000000  0.50000000  1
  Au  Au2  1  0.50000000  0.50000000  0.00000000  1
loop_
_geom_bond_atom_site_label_1
_geom_bond_atom_site_label_2
_geom_bond_distance
_geom_bond_site_symmetry_2
Mn0 Pd5 2.740300 1_455
Mn0 Pd4 2.740300 1_545
Mn0 Pd0 2.740310 1_555
Mn0 Pd6 2.740310 1_555
Mn0 Pd2 2.766076 1_455
Mn0 Pd3 2.766076 1_545
Mn0 Pd7 2.766082 1_555
Mn0 Pd1 2.766082 1_555
Mn1 Pd3 2.740300 1_655
Mn1 Pd2 2.740300 1_565
Mn1 Pd1 2.740310 1_555
Mn1 Pd7 2.740310 1_555
Mn1 Pd4 2.766076 1_655
Mn1 Pd5 2.766076 1_565
Mn1 Pd6 2.766082 1_555
Mn1 Pd0 2.766082 1_555
Mn2 Pd7 2.740298 1_454
Mn2 Pd0 2.740298 1_565
Mn2 Pd4 2.740299 1_555
Mn2 Pd3 2.740299 1_554
Mn2 Pd1 2.766076 1_554
Mn2 Pd6 2.766076 1_555
Mn2 Pd5 2.766082 1_565
Mn2 Pd2 2.766082 1_454
Mn3 Pd6 2.740298 1_655
Mn3 Pd1 2.740298 1_544
Mn3 Pd2 2.740299 1_554
Mn3 Pd5 2.740299 1_555
Mn3 Pd0 2.766076 1_555
Mn3 Pd7 2.766076 1_554
Mn3 Pd3 2.766082 1_544
Mn3 Pd4 2.766082 1_655
Ga0 Pd5 2.659097 1_455
Ga0 Pd3 2.659097 1_544
Ga0 Pd2 2.659097 1_454
Ga0 Pd4 2.659097 1_545
Ga0 Pd0 2.659102 1_555
Ga0 Pd1 2.659102 1_444
Ga0 Pd6 2.659102 1_555
Ga0 Pd7 2.659102 1_444
Ga0 Mn2 2.969933 1_545
Ga0 Mn3 2.969933 1_455
Ga0 Mn0 2.969939 1_555
Ga0 Mn1 2.969939 1_444
Pd0 Pd3 2.822306 1_544
Pd0 Pd6 2.822317 1_555
Pd0 Pd5 2.939247 1_555
Pd0 Pd7 2.939252 1_555
Pd1 Pd5 2.822306 1_566
Pd1 Pd7 2.822317 1_555
Pd1 Pd3 2.939247 1_555
Pd1 Pd6 2.939252 1_555
Pd2 Pd6 2.822306 1_656
Pd2 Pd3 2.822306 1_645
Pd2 Pd7 2.939247 1_555
Pd2 Pd5 2.939253 1_555
Pd3 Pd4 2.939253 1_555
Pd4 Pd7 2.822306 1_454
Pd4 Pd5 2.822306 1_465
Pd4 Pd6 2.939247 1_555
Au0 Pd0 2.718583 1_555
Au0 Pd1 2.718583 1_545
Au0 Pd4 2.718584 1_545
Au0 Pd2 2.718584 1_555
Au0 Pd7 2.841245 1_555
Au0 Pd6 2.841245 1_545
Au0 Pd5 2.841251 1_555
Au0 Pd3 2.841251 1_545
Au0 Mn2 2.879357 1_545
Au0 Mn3 2.879357 1_556
Au0 Mn0 2.879357 1_555
Au0 Mn1 2.879357 1_545
Au1 Pd7 2.718583 1_455
Au1 Pd6 2.718583 1_555
Au1 Pd3 2.718584 1_555
Au1 Pd5 2.718584 1_455
Au1 Pd1 2.841245 1_555
Au1 Pd0 2.841245 1_455
Au1 Pd4 2.841251 1_555
Au1 Pd2 2.841251 1_455
Au1 Mn2 2.879357 1_556
Au1 Mn3 2.879357 1_455
Au1 Mn0 2.879357 1_555
Au1 Mn1 2.879357 1_455
Au2 Pd2 2.784386 1_454
Au2 Pd4 2.784386 1_655
Au2 Pd5 2.784386 1_565
Au2 Pd3 2.784386 1_544
Au2 Pd6 2.784386 1_555
Au2 Pd7 2.784386 1_554
Au2 Pd1 2.784386 1_554
Au2 Pd0 2.784386 1_555
Au2 Mn1 2.785831 1_555
Au2 Mn0 2.785831 1_554
Au2 Mn2 2.785837 1_555
Au2 Mn3 2.785837 1_555
