# generated using pymatgen
data_HfNb5Zn7
_symmetry_space_group_name_H-M   'P 1'
_cell_length_a   5.07717986
_cell_length_b   5.07718099
_cell_length_c   9.65735863
_cell_angle_alpha   74.75981756
_cell_angle_beta   74.75981197
_cell_angle_gamma   59.99999254
_symmetry_Int_Tables_number   1
_chemical_formula_structural   HfNb5Zn7
_chemical_formula_sum   'Hf1 Nb5 Zn7'
_cell_volume   205.42139142
_cell_formula_units_Z   1
loop_
 _symmetry_equiv_pos_site_id
 _symmetry_equiv_pos_as_xyz
  1  'x, y, z'
loop_
 _atom_site_type_symbol
 _atom_site_label
 _atom_site_symmetry_multiplicity
 _atom_site_fract_x
 _atom_site_fract_y
 _atom_site_fract_z
 _atom_site_occupancy
  Hf  Hf0  1  0.83441541  0.83441541  0.49675577  1
  Nb  Nb0  1  0.16541939  0.16541939  0.50373983  1
  Nb  Nb1  1  0.64915291  0.64915291  0.05254027  1
  Nb  Nb2  1  0.35162807  0.35162807  0.94511578  1
  Nb  Nb3  1  0.54512748  0.54512748  0.36461755  1
  Nb  Nb4  1  0.45486369  0.45486369  0.63540792  1
  Zn  Zn0  1  0.99955155  0.99955155  0.00134535  1
  Zn  Zn1  1  0.90555164  0.90555164  0.77797723  1
  Zn  Zn2  1  0.41091749  0.90555164  0.77797723  1
  Zn  Zn3  1  0.90555164  0.41091749  0.77797723  1
  Zn  Zn4  1  0.09625972  0.09625972  0.22218128  1
  Zn  Zn5  1  0.58530028  0.09625972  0.22218128  1
  Zn  Zn6  1  0.09625972  0.58530028  0.22218128  1
loop_
_geom_bond_atom_site_label_1
_geom_bond_atom_site_label_2
_geom_bond_distance
_geom_bond_site_symmetry_2
Hf0 Nb0 2.932004 1_665
Hf0 Nb0 2.932021 1_565
Hf0 Nb0 2.932022 1_655
Hf0 Zn4 2.937151 1_665
Hf0 Zn6 2.937154 1_655
Hf0 Zn5 2.937154 1_565
Hf0 Zn1 2.966240 1_555
Hf0 Zn2 2.966249 1_555
Hf0 Zn3 2.966249 1_555
Hf0 Nb3 3.173481 1_655
Hf0 Nb3 3.173482 1_565
Hf0 Nb3 3.173490 1_555
Hf0 Nb4 3.196925 1_655
Hf0 Nb4 3.196925 1_565
Hf0 Nb4 3.196937 1_555
Nb0 Zn3 2.926150 1_455
Nb0 Zn1 2.926150 1_445
Nb0 Zn2 2.926150 1_545
Nb0 Zn4 2.960975 1_555
Nb0 Zn5 2.960981 1_555
Nb0 Zn6 2.960982 1_555
Nb0 Nb4 3.171827 1_455
Nb0 Nb4 3.171828 1_545
Nb0 Nb4 3.171832 1_555
Nb0 Nb3 3.198655 1_455
Nb0 Nb3 3.198655 1_545
Nb0 Nb3 3.198664 1_555
Nb1 Nb3 2.871653 1_555
Nb1 Zn1 2.912948 1_554
Nb1 Zn3 2.912950 1_554
Nb1 Zn2 2.912950 1_554
Nb1 Zn0 2.968921 1_455
Nb1 Zn0 2.968922 1_545
Nb1 Zn0 2.968926 1_555
Nb1 Zn6 2.980292 1_555
Nb1 Zn5 2.980293 1_555
Nb1 Zn4 2.980296 1_565
Nb1 Zn4 2.980297 1_655
Nb1 Zn6 2.980301 1_655
Nb1 Zn5 2.980301 1_565
Nb1 Nb2 3.093491 1_554
Nb1 Nb2 3.093494 1_654
Nb1 Nb2 3.093495 1_564
Nb2 Nb4 2.849851 1_555
Nb2 Zn4 2.924871 1_556
Nb2 Zn6 2.924873 1_556
Nb2 Zn5 2.924873 1_556
Nb2 Zn3 2.968164 1_555
Nb2 Zn2 2.968164 1_555
Nb2 Zn1 2.968168 1_545
Nb2 Zn1 2.968168 1_455
Nb2 Zn3 2.968173 1_455
Nb2 Zn2 2.968173 1_545
Nb2 Zn0 2.976625 1_546
Nb2 Zn0 2.976626 1_456
Nb2 Zn0 2.976626 1_446
Nb3 Nb4 2.491742 1_555
Nb3 Zn6 2.857147 1_555
Nb3 Zn5 2.857148 1_555
Nb3 Zn4 2.857150 1_655
Nb3 Zn4 2.857150 1_565
Nb3 Zn6 2.857152 1_655
Nb3 Zn5 2.857152 1_565
Nb4 Zn3 2.857572 1_555
Nb4 Zn2 2.857572 1_555
Nb4 Zn1 2.857574 1_455
Nb4 Zn1 2.857574 1_545
Nb4 Zn3 2.857576 1_455
Nb4 Zn2 2.857577 1_545
Zn0 Zn5 2.524415 1_565
Zn0 Zn6 2.524415 1_655
Zn0 Zn4 2.524418 1_665
Zn0 Zn2 2.533586 1_654
Zn0 Zn3 2.533586 1_564
Zn0 Zn1 2.533591 1_554
Zn1 Zn2 2.511347 1_555
Zn1 Zn3 2.511347 1_555
Zn1 Zn2 2.565833 1_655
Zn1 Zn3 2.565834 1_565
Zn2 Zn3 2.511347 1_555
Zn2 Zn3 2.565833 1_465
Zn4 Zn5 2.482947 1_555
Zn4 Zn6 2.482947 1_555
Zn4 Zn5 2.594233 1_455
Zn4 Zn6 2.594234 1_545
Zn5 Zn6 2.482947 1_555
Zn5 Zn6 2.594233 1_645
