# generated using pymatgen
data_Ti3Si3Ir2W
_symmetry_space_group_name_H-M   'P 1'
_cell_length_a   7.40956397
_cell_length_b   7.40956461
_cell_length_c   7.40956375
_cell_angle_alpha   126.63566419
_cell_angle_beta   123.96883997
_cell_angle_gamma   81.05615188
_symmetry_Int_Tables_number   1
_chemical_formula_structural   Ti3Si3Ir2W
_chemical_formula_sum   'Ti6 Si6 Ir4 W2'
_cell_volume   260.86684889
_cell_formula_units_Z   2
loop_
 _symmetry_equiv_pos_site_id
 _symmetry_equiv_pos_as_xyz
  1  'x, y, z'
loop_
 _atom_site_type_symbol
 _atom_site_label
 _atom_site_symmetry_multiplicity
 _atom_site_fract_x
 _atom_site_fract_y
 _atom_site_fract_z
 _atom_site_occupancy
  Ti  Ti0  1  0.24708690  0.91750021  0.17041232  1
  Ti  Ti1  1  0.96351604  0.48095275  0.01743471  1
  Ti  Ti2  1  0.03648396  0.05391866  0.51743471  1
  Ti  Ti3  1  0.43957735  0.47501117  0.53543383  1
  Ti  Ti4  1  0.75291310  0.92332642  0.67041232  1
  Ti  Ti5  1  0.56042265  0.09585548  0.03543383  1
  Si  Si0  1  0.78217842  0.55271921  0.27054079  1
  Si  Si1  1  0.17586244  0.15930109  0.99676202  1
  Si  Si2  1  0.66253907  0.15930109  0.48343765  1
  Si  Si3  1  0.33746093  0.82089859  0.49676202  1
  Si  Si4  1  0.21782158  0.48836237  0.77054079  1
  Si  Si5  1  0.82413756  0.82089859  0.98343765  1
  Ir  Ir0  1  0.83543786  0.49670993  0.58865987  1
  Ir  Ir1  1  0.59195093  0.75322200  0.08865987  1
  Ir  Ir2  1  0.40804907  0.49670993  0.16127207  1
  Ir  Ir3  1  0.16456214  0.75322200  0.66127207  1
  W  W0  1  0.50000000  0.24714874  0.74714874  1
  W  W1  1  0.00000000  0.24714874  0.24714874  1
loop_
_geom_bond_atom_site_label_1
_geom_bond_atom_site_label_2
_geom_bond_distance
_geom_bond_site_symmetry_2
Ti0 W1 2.785061 1_565
Ti0 W0 2.785065 1_565
Ti1 W0 2.971624 1_554
Ti1 W1 2.971632 1_655
Ti2 W0 2.971619 1_555
Ti2 W1 2.971619 1_555
Ti3 W1 2.766392 1_555
Ti3 W0 2.766392 1_555
Ti4 W0 2.785061 1_565
Ti4 W1 2.785065 1_666
Ti5 W1 2.766394 1_655
Ti5 W0 2.766398 1_554
Si0 W0 2.543481 1_554
Si0 W1 2.543482 1_655
Si0 Ti1 2.647418 1_555
Si0 Ti4 2.681246 1_555
Si0 Ti5 2.947336 1_555
Si1 W1 2.561294 1_556
Si1 Ti3 2.604599 1_556
Si1 Ti0 2.615800 1_546
Si1 Ti1 2.616644 1_456
Si1 Ti4 2.629650 1_445
Si1 Ti2 2.670656 1_555
Si1 Ti5 2.693358 1_556
Si2 W0 2.561301 1_555
Si2 Ti3 2.604599 1_555
Si2 Ti0 2.615806 1_545
Si2 Ti1 2.616637 1_556
Si2 Ti4 2.629651 1_545
Si2 Ti2 2.670654 1_655
Si2 Ti5 2.693346 1_555
Si3 W0 2.561301 1_565
Si3 Ti5 2.604599 1_566
Si3 Ti4 2.615810 1_555
Si3 Ti2 2.616635 1_565
Si3 Ti0 2.629664 1_555
Si3 Ti1 2.670649 1_455
Si3 Ti3 2.693351 1_555
Si4 W1 2.543481 1_555
Si4 W0 2.543482 1_555
Si4 Ti2 2.647414 1_555
Si4 Ti0 2.681248 1_556
Si4 Ti3 2.947329 1_555
Si5 W1 2.561299 1_666
Si5 Ti5 2.604600 1_566
Si5 Ti4 2.615812 1_555
Si5 Ti2 2.616636 1_666
Si5 Ti0 2.629652 1_656
Si5 Ti1 2.670639 1_556
Si5 Ti3 2.693354 1_555
Ir0 Si4 2.371848 1_655
Ir0 Si0 2.441526 1_555
Ir0 Si2 2.460248 1_555
Ir0 Si5 2.481718 1_555
Ir0 Ti3 2.750100 1_555
Ir0 Ti5 2.791853 1_555
Ir0 Ti1 2.836687 1_556
Ir0 Ti4 2.874147 1_555
Ir0 W1 2.910639 1_655
Ir1 Si0 2.371847 1_555
Ir1 Si4 2.441531 1_554
Ir1 Si5 2.460248 1_554
Ir1 Si2 2.481724 1_565
Ir1 Ti5 2.750092 1_565
Ir1 Ti3 2.791849 1_554
Ir1 Ti2 2.836692 1_665
Ir1 Ti0 2.874148 1_555
Ir1 W0 2.910639 1_554
Ir2 Si4 2.371848 1_554
Ir2 Si0 2.441533 1_555
Ir2 Si1 2.460248 1_554
Ir2 Si3 2.481717 1_555
Ir2 Ti3 2.750096 1_555
Ir2 Ti5 2.791860 1_555
Ir2 Ti1 2.836689 1_455
Ir2 Ti4 2.874145 1_555
Ir2 W0 2.910644 1_554
Ir3 Si0 2.371848 1_455
Ir3 Si4 2.441526 1_555
Ir3 Si3 2.460248 1_555
Ir3 Si1 2.481725 1_565
Ir3 Ti5 2.750096 1_566
Ir3 Ti3 2.791851 1_555
Ir3 Ti2 2.836697 1_565
Ir3 Ti0 2.874137 1_556
Ir3 W1 2.910639 1_555
