# generated using pymatgen
data_Zr10Bi3B2Pb3
_symmetry_space_group_name_H-M   'P 1'
_cell_length_a   8.67025828
_cell_length_b   8.67025875
_cell_length_c   5.88308956
_cell_angle_alpha   90.00000000
_cell_angle_beta   90.00000000
_cell_angle_gamma   120.00000570
_symmetry_Int_Tables_number   1
_chemical_formula_structural   Zr10Bi3B2Pb3
_chemical_formula_sum   'Zr10 Bi3 B2 Pb3'
_cell_volume   383.00122250
_cell_formula_units_Z   1
loop_
 _symmetry_equiv_pos_site_id
 _symmetry_equiv_pos_as_xyz
  1  'x, y, z'
loop_
 _atom_site_type_symbol
 _atom_site_label
 _atom_site_symmetry_multiplicity
 _atom_site_fract_x
 _atom_site_fract_y
 _atom_site_fract_z
 _atom_site_occupancy
  Zr  Zr0  1  0.66666700  0.33333300  0.49827343  1
  Zr  Zr1  1  0.33333300  0.66666700  0.49827343  1
  Zr  Zr2  1  0.33333300  0.66666700  0.00172657  1
  Zr  Zr3  1  0.66666700  0.33333300  0.00172657  1
  Zr  Zr4  1  0.77244884  0.77244884  0.25000000  1
  Zr  Zr5  1  0.22755116  0.00000000  0.25000000  1
  Zr  Zr6  1  0.00000000  0.22755116  0.25000000  1
  Zr  Zr7  1  0.22485614  0.22485614  0.75000000  1
  Zr  Zr8  1  0.77514386  0.00000000  0.75000000  1
  Zr  Zr9  1  0.00000000  0.77514386  0.75000000  1
  Bi  Bi0  1  0.59922434  0.59922434  0.75000000  1
  Bi  Bi1  1  0.40077566  0.00000000  0.75000000  1
  Bi  Bi2  1  0.00000000  0.40077566  0.75000000  1
  B  B0  1  0.00000000  0.00000000  0.49835392  1
  B  B1  1  0.00000000  0.00000000  0.00164608  1
  Pb  Pb0  1  0.39769367  0.39769367  0.25000000  1
  Pb  Pb1  1  0.60230633  0.00000000  0.25000000  1
  Pb  Pb2  1  0.00000000  0.60230633  0.25000000  1
loop_
_geom_bond_atom_site_label_1
_geom_bond_atom_site_label_2
_geom_bond_distance
_geom_bond_site_symmetry_2
Bi0 Zr9 3.016758 1_655
Bi0 Zr8 3.016758 1_565
Bi0 Zr2 3.032778 1_556
Bi0 Zr1 3.032778 1_555
Bi0 Zr3 3.032778 1_556
Bi0 Zr0 3.032778 1_555
Bi0 Zr7 3.245869 1_555
Bi0 Zr4 3.302786 1_555
Bi0 Zr4 3.302786 1_556
Bi0 Pb0 3.421377 1_555
Bi0 Pb0 3.421377 1_556
Bi1 Zr9 3.016758 1_545
Bi1 Zr7 3.016758 1_555
Bi1 Zr2 3.032771 1_546
Bi1 Zr1 3.032771 1_545
Bi1 Zr3 3.032773 1_556
Bi1 Zr0 3.032773 1_555
Bi1 Zr8 3.245869 1_555
Bi1 Zr5 3.302786 1_556
Bi1 Zr5 3.302786 1_555
Bi1 Pb1 3.421377 1_556
Bi1 Pb1 3.421377 1_555
Bi2 Zr8 3.016758 1_455
Bi2 Zr7 3.016758 1_555
Bi2 Zr3 3.032771 1_456
Bi2 Zr0 3.032771 1_455
Bi2 Zr2 3.032773 1_556
Bi2 Zr1 3.032773 1_555
Bi2 Zr9 3.245869 1_555
Bi2 Zr6 3.302786 1_556
Bi2 Zr6 3.302786 1_555
Bi2 Pb2 3.421377 1_555
Bi2 Pb2 3.421377 1_556
B0 Zr7 2.447966 1_555
B0 Zr8 2.447966 1_455
B0 Zr9 2.447966 1_545
B0 Zr4 2.455040 1_445
B0 Zr5 2.455040 1_555
B0 Zr6 2.455040 1_555
B1 Zr7 2.447966 1_554
B1 Zr8 2.447966 1_454
B1 Zr9 2.447966 1_544
B1 Zr4 2.455040 1_445
B1 Zr5 2.455040 1_555
B1 Zr6 2.455040 1_555
Pb0 Zr6 2.996501 1_555
Pb0 Zr5 2.996501 1_555
Pb0 Zr0 3.030623 1_555
Pb0 Zr3 3.030623 1_555
Pb0 Zr1 3.030623 1_555
Pb0 Zr2 3.030623 1_555
Pb0 Zr4 3.249224 1_555
Pb0 Zr7 3.301261 1_555
Pb0 Zr7 3.301261 1_554
Pb1 Zr6 2.996501 1_655
Pb1 Zr4 2.996501 1_545
Pb1 Zr0 3.030616 1_555
Pb1 Zr3 3.030616 1_555
Pb1 Zr1 3.030618 1_545
Pb1 Zr2 3.030618 1_545
Pb1 Zr5 3.249224 1_555
Pb1 Zr8 3.301261 1_555
Pb1 Zr8 3.301261 1_554
Pb2 Zr5 2.996501 1_565
Pb2 Zr4 2.996501 1_455
Pb2 Zr1 3.030616 1_555
Pb2 Zr2 3.030616 1_555
Pb2 Zr0 3.030618 1_455
Pb2 Zr3 3.030618 1_455
Pb2 Zr6 3.249224 1_555
Pb2 Zr9 3.301261 1_554
Pb2 Zr9 3.301261 1_555
