# generated using pymatgen
data_SrTe3O8
_symmetry_space_group_name_H-M   'P 1'
_cell_length_a   6.85404138
_cell_length_b   6.85404138
_cell_length_c   6.77059248
_cell_angle_alpha   90.00000000
_cell_angle_beta   90.00000000
_cell_angle_gamma   90.00000000
_symmetry_Int_Tables_number   1
_chemical_formula_structural   SrTe3O8
_chemical_formula_sum   'Sr2 Te6 O16'
_cell_volume   318.06810298
_cell_formula_units_Z   2
loop_
 _symmetry_equiv_pos_site_id
 _symmetry_equiv_pos_as_xyz
  1  'x, y, z'
loop_
 _atom_site_type_symbol
 _atom_site_label
 _atom_site_symmetry_multiplicity
 _atom_site_fract_x
 _atom_site_fract_y
 _atom_site_fract_z
 _atom_site_occupancy
  Sr  Sr0  1  -0.00000000  0.00000000  0.25000000  1
  Sr  Sr1  1  -0.00000000  0.00000000  0.75000000  1
  Te  Te0  1  0.78245073  0.56394118  -0.00000000  1
  Te  Te1  1  0.56394118  0.21754927  0.50000000  1
  Te  Te2  1  0.43605882  0.78245073  0.50000000  1
  Te  Te3  1  0.21754927  0.43605882  -0.00000000  1
  Te  Te4  1  0.50000000  0.00000000  -0.00000000  1
  Te  Te5  1  -0.00000000  0.50000000  0.50000000  1
  O  O0  1  0.95457481  0.32312279  -0.00000000  1
  O  O1  1  0.32312279  0.04542519  0.50000000  1
  O  O2  1  0.67687721  0.95457481  0.50000000  1
  O  O3  1  0.04542519  0.67687721  -0.00000000  1
  O  O4  1  0.75438243  0.88073006  -0.00000000  1
  O  O5  1  0.88073006  0.24561757  0.50000000  1
  O  O6  1  0.11926994  0.75438243  0.50000000  1
  O  O7  1  0.24561757  0.11926994  -0.00000000  1
  O  O8  1  0.18555214  0.41034658  0.30526181  1
  O  O9  1  0.41034658  0.81444786  0.80526181  1
  O  O10  1  0.58965342  0.18555214  0.80526181  1
  O  O11  1  0.81444786  0.58965342  0.30526181  1
  O  O12  1  0.81444786  0.58965342  0.69473819  1
  O  O13  1  0.58965342  0.18555214  0.19473819  1
  O  O14  1  0.41034658  0.81444786  0.19473819  1
  O  O15  1  0.18555214  0.41034658  0.69473819  1
loop_
_geom_bond_atom_site_label_1
_geom_bond_atom_site_label_2
_geom_bond_distance
_geom_bond_site_symmetry_2
O0 Te3 1.961623 1_655
O0 Te0 2.028845 1_555
O0 Sr0 2.804795 1_655
O0 Sr1 2.804795 1_654
O1 Te2 1.961623 1_545
O1 Te1 2.028845 1_555
O1 Sr0 2.804795 1_555
O1 Sr1 2.804795 1_555
O2 Te1 1.961623 1_565
O2 Te2 2.028845 1_555
O2 Sr1 2.804795 1_665
O2 Sr0 2.804795 1_665
O3 Te0 1.961623 1_455
O3 Te3 2.028845 1_555
O3 Sr1 2.804795 1_564
O3 Sr0 2.804795 1_565
O4 Te4 1.925678 1_565
O4 Te0 2.179790 1_555
O4 Sr1 2.523374 1_664
O4 Sr0 2.523374 1_665
O5 Te5 1.925678 1_655
O5 Te1 2.179790 1_555
O5 Sr1 2.523374 1_655
O5 Sr0 2.523374 1_655
O6 Te5 1.925678 1_555
O6 Te2 2.179790 1_555
O6 Sr1 2.523374 1_565
O6 Sr0 2.523374 1_565
O7 Te4 1.925678 1_555
O7 Te3 2.179790 1_555
O7 Sr0 2.523374 1_555
O7 Sr1 2.523374 1_554
O8 Te5 1.932213 1_555
O8 Te3 2.085864 1_555
O9 Te4 1.932213 1_566
O9 Te2 2.085864 1_555
O10 Te4 1.932213 1_556
O10 Te1 2.085864 1_555
O11 Te5 1.932213 1_655
O11 Te0 2.085864 1_555
O12 Te5 1.932213 1_655
O12 Te0 2.085864 1_556
O13 Te4 1.932213 1_555
O13 Te1 2.085864 1_555
O14 Te4 1.932213 1_565
O14 Te2 2.085864 1_555
O15 Te5 1.932213 1_555
O15 Te3 2.085864 1_556
