# generated using pymatgen
data_Na2Tl
_symmetry_space_group_name_H-M   'P 1'
_cell_length_a   8.23242019
_cell_length_b   8.23242120
_cell_length_c   11.54832421
_cell_angle_alpha   90.00000000
_cell_angle_beta   90.00000000
_cell_angle_gamma   114.85794828
_symmetry_Int_Tables_number   1
_chemical_formula_structural   Na2Tl
_chemical_formula_sum   'Na16 Tl8'
_cell_volume   710.15026923
_cell_formula_units_Z   8
loop_
 _symmetry_equiv_pos_site_id
 _symmetry_equiv_pos_as_xyz
  1  'x, y, z'
loop_
 _atom_site_type_symbol
 _atom_site_label
 _atom_site_symmetry_multiplicity
 _atom_site_fract_x
 _atom_site_fract_y
 _atom_site_fract_z
 _atom_site_occupancy
  Na  Na0  1  0.07022058  0.92977942  -0.00000000  1
  Na  Na1  1  0.92977942  0.07022058  0.50000000  1
  Na  Na2  1  0.59223205  0.59223205  0.25000000  1
  Na  Na3  1  0.40776795  0.40776795  0.75000000  1
  Na  Na4  1  0.49324104  0.90213310  0.42155396  1
  Na  Na5  1  0.50675896  0.09786690  0.92155396  1
  Na  Na6  1  0.90213310  0.49324104  0.07844604  1
  Na  Na7  1  0.09786690  0.50675896  0.57844604  1
  Na  Na8  1  0.40243166  0.15684037  0.20953477  1
  Na  Na9  1  0.59756834  0.84315963  0.70953477  1
  Na  Na10  1  0.15684037  0.40243166  0.29046523  1
  Na  Na11  1  0.84315963  0.59756834  0.79046523  1
  Na  Na12  1  0.77775200  0.04426383  0.16811315  1
  Na  Na13  1  0.22224800  0.95573617  0.66811315  1
  Na  Na14  1  0.04426383  0.77775200  0.33188685  1
  Na  Na15  1  0.95573617  0.22224800  0.83188685  1
  Tl  Tl0  1  0.33316938  0.76503790  0.13374305  1
  Tl  Tl1  1  0.66683062  0.23496210  0.63374305  1
  Tl  Tl2  1  0.76503790  0.33316938  0.36625695  1
  Tl  Tl3  1  0.23496210  0.66683062  0.86625695  1
  Tl  Tl4  1  0.72605315  0.63074208  0.52644093  1
  Tl  Tl5  1  0.27394685  0.36925792  0.02644093  1
  Tl  Tl6  1  0.63074208  0.72605315  0.97355907  1
  Tl  Tl7  1  0.36925792  0.27394685  0.47355907  1
loop_
_geom_bond_atom_site_label_1
_geom_bond_atom_site_label_2
_geom_bond_distance
_geom_bond_site_symmetry_2
Na0 Tl6 3.300649 1_454
Na0 Tl5 3.300649 1_565
Na0 Tl0 3.373285 1_555
Na0 Tl3 3.373285 1_554
Na0 Na5 3.386698 1_564
Na0 Na6 3.386698 1_455
Na0 Na12 3.516018 1_465
Na0 Na15 3.516019 1_464
Na0 Na8 3.539925 1_565
Na0 Na11 3.539925 1_454
Na1 Tl7 3.300649 1_655
Na1 Tl4 3.300649 1_545
Na1 Tl1 3.373285 1_555
Na1 Tl2 3.373285 1_555
Na1 Na4 3.386698 1_545
Na1 Na7 3.386698 1_655
Na1 Na13 3.516018 1_645
Na1 Na14 3.516019 1_645
Na1 Na9 3.539925 1_545
Na1 Na10 3.539925 1_655
Na2 Na8 3.286124 1_555
Na2 Tl0 3.305391 1_555
Na2 Tl2 3.305391 1_555
Na2 Tl4 3.348456 1_555
Na2 Tl6 3.348456 1_554
Na2 Na6 3.584117 1_555
Na2 Na4 3.584118 1_555
Na2 Tl5 3.585638 1_555
Na2 Tl7 3.585638 1_555
Na3 Na9 3.286124 1_555
Na3 Tl1 3.305391 1_555
Na3 Tl3 3.305391 1_555
Na3 Tl5 3.348456 1_556
Na3 Tl7 3.348456 1_555
Na3 Na7 3.584117 1_555
Na3 Na5 3.584118 1_555
Na3 Tl4 3.585638 1_555
Na3 Tl6 3.585638 1_555
Na4 Tl2 3.366110 1_565
Na4 Tl1 3.501763 1_565
Na4 Na8 3.502656 1_565
Na4 Na9 3.519116 1_555
Na4 Tl0 3.578704 1_555
Na4 Tl7 3.660385 1_565
Na4 Tl4 3.705719 1_555
Na4 Na7 3.945161 1_555
Na5 Tl3 3.366110 1_545
Na5 Tl0 3.501763 1_546
Na5 Na9 3.502656 1_545
Na5 Na8 3.519116 1_556
Na5 Tl1 3.578704 1_555
Na5 Tl6 3.660385 1_545
Na5 Tl5 3.705719 1_556
Na5 Na6 3.945161 1_556
Na6 Tl0 3.366110 1_655
Na6 Tl3 3.501763 1_654
Na6 Tl2 3.578704 1_555
Na6 Tl5 3.660385 1_655
Na6 Tl6 3.705719 1_554
Na7 Tl1 3.366110 1_455
Na7 Tl2 3.501763 1_455
Na7 Tl3 3.578704 1_555
Na7 Tl4 3.660385 1_455
Na7 Tl7 3.705719 1_555
Na8 Tl0 3.154157 1_545
Na8 Tl5 3.194168 1_555
Na8 Tl7 3.243764 1_555
Na8 Tl2 3.263539 1_555
Na9 Tl1 3.154157 1_565
Na9 Tl4 3.194168 1_555
Na9 Tl6 3.243764 1_555
Na9 Tl3 3.263539 1_555
Na10 Tl2 3.154156 1_455
Na10 Tl7 3.194168 1_555
Na10 Tl5 3.243764 1_555
Na10 Tl0 3.263540 1_555
Na10 Na2 3.286124 1_555
Na10 Na6 3.502655 1_455
Na10 Na7 3.519116 1_555
Na10 Na8 3.533503 1_555
Na10 Na12 3.562812 1_455
Na10 Na14 3.611381 1_555
Na11 Tl3 3.154156 1_655
Na11 Tl6 3.194168 1_555
Na11 Tl4 3.243764 1_555
Na11 Tl1 3.263540 1_555
Na11 Na3 3.286124 1_555
Na11 Na7 3.502655 1_655
Na11 Na6 3.519116 1_556
Na11 Na9 3.533503 1_555
Na11 Na13 3.562812 1_655
Na11 Na15 3.611381 1_555
Na12 Tl6 3.272572 1_544
Na12 Tl2 3.333615 1_555
Na12 Tl0 3.429836 1_545
Na12 Na2 3.506666 1_545
Na12 Na6 3.549713 1_555
Na12 Na8 3.611381 1_555
Na12 Na4 3.621767 1_545
Na12 Na5 3.755906 1_554
Na13 Tl7 3.272572 1_565
Na13 Tl3 3.333615 1_555
Na13 Tl1 3.429836 1_565
Na13 Na3 3.506666 1_565
Na13 Na7 3.549713 1_555
Na13 Na9 3.611381 1_555
Na13 Na5 3.621767 1_565
Na13 Na4 3.755906 1_555
Na14 Tl4 3.272572 1_455
Na14 Tl0 3.333615 1_555
Na14 Tl2 3.429836 1_455
Na14 Na2 3.506665 1_455
Na14 Na4 3.549713 1_555
Na14 Na8 3.562812 1_565
Na14 Na6 3.621767 1_455
Na14 Na7 3.755907 1_555
Na15 Tl5 3.272572 1_656
Na15 Tl1 3.333615 1_555
Na15 Tl3 3.429836 1_655
Na15 Na3 3.506665 1_655
Na15 Na5 3.549713 1_555
Na15 Na9 3.562812 1_545
Na15 Na7 3.621767 1_655
Na15 Na6 3.755907 1_556
Tl0 Tl6 3.191742 1_554
Tl0 Tl3 3.209325 1_554
Tl0 Tl5 3.324714 1_555
Tl1 Tl7 3.191742 1_555
Tl1 Tl2 3.209325 1_555
Tl1 Tl4 3.324714 1_555
Tl2 Tl4 3.191743 1_555
Tl2 Tl7 3.324713 1_555
Tl3 Tl5 3.191743 1_556
Tl3 Tl6 3.324713 1_555
Tl4 Tl7 3.220971 1_555
Tl5 Tl6 3.220971 1_554
