# generated using pymatgen
data_As6IrRh
_symmetry_space_group_name_H-M   'P 1'
_cell_length_a   7.37053424
_cell_length_b   7.37058930
_cell_length_c   7.36984572
_cell_angle_alpha   109.46214700
_cell_angle_beta   109.46639703
_cell_angle_gamma   109.48967490
_symmetry_Int_Tables_number   1
_chemical_formula_structural   As6IrRh
_chemical_formula_sum   'As12 Ir2 Rh2'
_cell_volume   308.18623520
_cell_formula_units_Z   2
loop_
 _symmetry_equiv_pos_site_id
 _symmetry_equiv_pos_as_xyz
  1  'x, y, z'
loop_
 _atom_site_type_symbol
 _atom_site_label
 _atom_site_symmetry_multiplicity
 _atom_site_fract_x
 _atom_site_fract_y
 _atom_site_fract_z
 _atom_site_occupancy
  As  As0  1  0.49372619  0.14612178  0.34884640  1
  As  As1  1  0.79727439  0.14488279  0.65115660  1
  As  As2  1  0.50627581  0.85387922  0.65115560  1
  As  As3  1  0.20272561  0.85511821  0.34884240  1
  As  As4  1  0.34865787  0.49356818  0.14592173  1
  As  As5  1  0.14593363  0.34846947  0.49439711  1
  As  As6  1  0.34764845  0.20273913  0.85408227  1
  As  As7  1  0.14479566  0.65196227  0.79675793  1
  As  As8  1  0.65235055  0.79726087  0.14591873  1
  As  As9  1  0.85406737  0.65153253  0.50560489  1
  As  As10  1  0.65134413  0.50643382  0.85407927  1
  As  As11  1  0.85520534  0.34803673  0.20324207  1
  Ir  Ir0  1  0.49999900  0.00000000  0.00000000  1
  Ir  Ir1  1  0.00000000  0.49999900  0.00000000  1
  Rh  Rh0  1  0.49999900  0.49999900  0.49999900  1
  Rh  Rh1  1  0.00000000  0.00000000  0.49999900  1
loop_
_geom_bond_atom_site_label_1
_geom_bond_atom_site_label_2
_geom_bond_distance
_geom_bond_site_symmetry_2
As0 Rh0 2.448520 1_555
As0 Ir0 2.457471 1_555
As0 As3 2.476077 1_545
As0 As1 2.583486 1_555
As1 Rh1 2.448552 1_655
As1 Ir1 2.457436 1_656
As1 As2 2.476081 1_545
As2 Rh0 2.448529 1_555
As2 Ir0 2.457472 1_566
As2 As3 2.583508 1_555
As3 Rh1 2.448544 1_565
As3 Ir1 2.457444 1_555
As4 Rh0 2.449122 1_555
As4 Ir1 2.456806 1_555
As4 As6 2.475365 1_554
As4 As8 2.584089 1_555
As5 Rh0 2.451933 1_555
As5 Rh1 2.451995 1_555
As5 As7 2.583178 1_555
As6 Rh1 2.449130 1_555
As6 Ir0 2.456823 1_556
As7 Ir0 2.454122 1_566
As7 Ir1 2.454153 1_556
As7 As9 2.474331 1_455
As8 Rh1 2.449122 1_665
As8 Ir0 2.456830 1_565
As9 Rh0 2.451942 1_555
As9 Rh1 2.451996 1_665
As10 Rh0 2.449131 1_555
As10 Ir1 2.456808 1_656
As10 As8 2.475369 1_556
As10 As6 2.584110 1_555
As11 Ir0 2.454130 1_555
As11 Ir1 2.454146 1_655
As11 As5 2.474327 1_655
As11 As9 2.583199 1_555
