# generated using pymatgen
data_KBa4(BeAs)10
_symmetry_space_group_name_H-M   'P 1'
_cell_length_a   9.08986297
_cell_length_b   9.09017583
_cell_length_c   9.08957567
_cell_angle_alpha   123.72137837
_cell_angle_beta   123.71051441
_cell_angle_gamma   83.68022076
_symmetry_Int_Tables_number   1
_chemical_formula_structural   KBa4(BeAs)10
_chemical_formula_sum   'K1 Ba4 Be10 As10'
_cell_volume   497.90987073
_cell_formula_units_Z   1
loop_
 _symmetry_equiv_pos_site_id
 _symmetry_equiv_pos_as_xyz
  1  'x, y, z'
loop_
 _atom_site_type_symbol
 _atom_site_label
 _atom_site_symmetry_multiplicity
 _atom_site_fract_x
 _atom_site_fract_y
 _atom_site_fract_z
 _atom_site_occupancy
  K  K0  1  0.00000648  0.00000061  0.00000343  1
  Ba  Ba0  1  0.38745630  0.80342026  0.19087155  1
  Ba  Ba1  1  0.80342000  0.61254344  0.41596536  1
  Ba  Ba2  1  0.19657779  0.38745369  0.58403100  1
  Ba  Ba3  1  0.61254168  0.19657707  0.80912633  1
  Be  Be0  1  0.95197549  0.65199308  0.10055301  1
  Be  Be1  1  0.34801366  0.44855531  0.30006041  1
  Be  Be2  1  0.75002641  0.25000897  0.50006573  1
  Be  Be3  1  0.14855156  0.04800264  0.70005334  1
  Be  Be4  1  0.55145466  0.85144601  0.89944943  1
  Be  Be5  1  0.65198872  0.55145099  0.69994179  1
  Be  Be6  1  0.04802203  0.34800565  0.89944441  1
  Be  Be7  1  0.44854626  0.14855270  0.10055146  1
  Be  Be8  1  0.85144814  0.95199403  0.29994284  1
  Be  Be9  1  0.24997685  0.74998961  0.49993303  1
  As  As0  1  0.94923661  0.54649087  0.79950163  1
  As  As1  1  0.34709509  0.34710626  0.00003244  1
  As  As2  1  0.74699962  0.14976029  0.20052821  1
  As  As3  1  0.14975449  0.94925237  0.40277386  1
  As  As4  1  0.54646810  0.74701514  0.59724030  1
  As  As5  1  0.65289961  0.65289073  0.99996164  1
  As  As6  1  0.05076050  0.45350819  0.20049758  1
  As  As7  1  0.45352833  0.25299843  0.40276481  1
  As  As8  1  0.85025140  0.05075012  0.59724064  1
  As  As9  1  0.25299920  0.85023253  0.79946676  1
loop_
_geom_bond_atom_site_label_1
_geom_bond_atom_site_label_2
_geom_bond_distance
_geom_bond_site_symmetry_2
As0 Be2 2.325856 1_555
As0 Be0 2.328998 1_556
As0 Be5 2.329348 1_555
As0 Be6 2.333382 1_655
As0 Ba0 3.327329 1_656
As0 Ba1 3.360160 1_555
As0 K0 3.416524 1_666
As0 Ba2 3.465414 1_655
As1 Be6 2.338992 1_554
As1 Be3 2.339015 1_554
As1 Be1 2.339187 1_555
As1 Be7 2.339260 1_555
As1 Ba1 3.462472 1_555
As1 Ba0 3.462505 1_555
As1 Ba3 3.462615 1_554
As1 Ba2 3.462848 1_554
As2 Be2 2.326303 1_555
As2 Be4 2.329007 1_544
As2 Be8 2.329254 1_545
As2 Be7 2.333396 1_555
As2 Ba3 3.327466 1_554
As2 Ba2 3.359929 1_655
As2 K0 3.416594 1_655
As2 Ba1 3.465306 1_555
As3 Be9 2.326065 1_555
As3 Be8 2.329073 1_455
As3 Be0 2.329336 1_455
As3 Be3 2.333444 1_565
As3 Ba2 3.327265 1_565
As3 Ba0 3.360000 1_555
As3 K0 3.416739 1_565
As3 Ba3 3.465331 1_565
As4 Be9 2.326154 1_555
As4 Be4 2.329144 1_555
As4 Be5 2.329166 1_555
As4 Be1 2.333050 1_555
As4 Ba1 3.327372 1_555
As4 Ba3 3.359744 1_565
As4 K0 3.416679 1_666
As4 Ba0 3.465421 1_555
As5 Be0 2.339008 1_556
As5 Be8 2.339026 1_556
As5 Be5 2.339180 1_555
As5 Be4 2.339233 1_555
As5 Ba2 3.462453 1_555
As5 Ba3 3.462511 1_555
As5 Ba0 3.462610 1_556
As5 Ba1 3.462860 1_556
As6 Be9 2.325868 1_555
As6 Be6 2.329015 1_554
As6 Be1 2.329380 1_555
As6 Be0 2.333389 1_455
As6 Ba3 3.327328 1_454
As6 Ba2 3.360148 1_555
As6 K0 3.416525 1_555
As6 Ba1 3.465389 1_455
As7 Be2 2.326240 1_555
As7 Be1 2.329114 1_555
As7 Be7 2.329171 1_555
As7 Be5 2.333022 1_555
As7 Ba2 3.327304 1_555
As7 Ba0 3.359867 1_545
As7 K0 3.416599 1_555
As7 Ba3 3.465460 1_555
As8 Be2 2.326119 1_555
As8 Be3 2.329066 1_655
As8 Be6 2.329280 1_655
As8 Be8 2.333554 1_545
As8 Ba1 3.327270 1_545
As8 Ba3 3.359959 1_555
As8 K0 3.416669 1_656
As8 Ba0 3.465395 1_545
As9 Be9 2.326307 1_555
As9 Be7 2.329049 1_566
As9 Be3 2.329280 1_565
As9 Be4 2.333396 1_555
As9 Ba0 3.327465 1_556
As9 Ba1 3.359928 1_455
As9 K0 3.416551 1_566
As9 Ba2 3.465273 1_555
