# generated using pymatgen
data_Y2Si5PdPt2
_symmetry_space_group_name_H-M   'P 1'
_cell_length_a   8.14253258
_cell_length_b   8.14253245
_cell_length_c   5.97250314
_cell_angle_alpha   68.41060881
_cell_angle_beta   68.41061138
_cell_angle_gamma   88.75543878
_symmetry_Int_Tables_number   1
_chemical_formula_structural   Y2Si5PdPt2
_chemical_formula_sum   'Y4 Si10 Pd2 Pt4'
_cell_volume   339.39872316
_cell_formula_units_Z   2
loop_
 _symmetry_equiv_pos_site_id
 _symmetry_equiv_pos_as_xyz
  1  'x, y, z'
loop_
 _atom_site_type_symbol
 _atom_site_label
 _atom_site_symmetry_multiplicity
 _atom_site_fract_x
 _atom_site_fract_y
 _atom_site_fract_z
 _atom_site_occupancy
  Y  Y0  1  0.85931627  0.60280336  0.76835246  1
  Y  Y1  1  0.14068373  0.39719664  0.23164754  1
  Y  Y2  1  0.39719664  0.14068373  0.73164754  1
  Y  Y3  1  0.60280336  0.85931627  0.26835246  1
  Si  Si0  1  0.77196959  0.22803041  0.75000000  1
  Si  Si1  1  0.22803041  0.77196959  0.25000000  1
  Si  Si2  1  0.49949824  0.50050176  0.75000000  1
  Si  Si3  1  0.50050176  0.49949824  0.25000000  1
  Si  Si4  1  0.22849158  0.77150842  0.75000000  1
  Si  Si5  1  0.77150842  0.22849158  0.25000000  1
  Si  Si6  1  0.26444212  0.03553599  0.34971920  1
  Si  Si7  1  0.73555788  0.96446401  0.65028080  1
  Si  Si8  1  0.96446401  0.73555788  0.15028080  1
  Si  Si9  1  0.03553599  0.26444212  0.84971920  1
  Pd  Pd0  1  0.99999042  0.00000958  0.25000000  1
  Pd  Pd1  1  0.00000958  0.99999042  0.75000000  1
  Pt  Pt0  1  0.52344606  0.24935643  0.11340723  1
  Pt  Pt1  1  0.75064357  0.47655394  0.38659277  1
  Pt  Pt2  1  0.47655394  0.75064357  0.88659277  1
  Pt  Pt3  1  0.24935643  0.52344606  0.61340723  1
loop_
_geom_bond_atom_site_label_1
_geom_bond_atom_site_label_2
_geom_bond_distance
_geom_bond_site_symmetry_2
Si0 Si7 2.479220 1_545
Si0 Si9 2.479220 1_655
Si0 Y0 3.198112 1_555
Si0 Y2 3.198112 1_555
Si0 Y3 3.270603 1_546
Si0 Y1 3.270603 1_655
Si1 Si6 2.479220 1_565
Si1 Si8 2.479220 1_455
Si1 Y1 3.198112 1_555
Si1 Y3 3.198112 1_555
Si1 Y2 3.270603 1_564
Si1 Y0 3.270603 1_455
Si2 Y3 3.108025 1_555
Si2 Y1 3.108026 1_556
Si2 Y2 3.114375 1_555
Si2 Y0 3.114375 1_555
Si3 Y2 3.108025 1_555
Si3 Y0 3.108026 1_554
Si3 Y3 3.114375 1_555
Si3 Y1 3.114375 1_555
Si4 Si6 2.480519 1_565
Si4 Si8 2.480520 1_456
Si4 Y1 3.194469 1_556
Si4 Y3 3.194470 1_555
Si4 Y2 3.280441 1_565
Si4 Y0 3.280442 1_455
Si5 Si7 2.480519 1_545
Si5 Si9 2.480520 1_654
Si5 Y0 3.194469 1_554
Si5 Y2 3.194470 1_555
Si5 Y3 3.280441 1_545
Si5 Y1 3.280442 1_655
Si6 Y1 3.008426 1_555
Si6 Y3 3.040036 1_545
Si6 Y2 3.210311 1_554
Si6 Y2 3.224396 1_555
Si7 Y0 3.008426 1_555
Si7 Y2 3.040036 1_565
Si7 Y3 3.210311 1_556
Si7 Y3 3.224396 1_555
Si8 Y3 3.008426 1_555
Si8 Y1 3.040036 1_655
Si8 Y0 3.210311 1_555
Si8 Y0 3.224396 1_554
Si9 Y2 3.008426 1_555
Si9 Y0 3.040036 1_455
Si9 Y1 3.210311 1_555
Si9 Y1 3.224396 1_556
Pd0 Si9 2.482938 1_654
Pd0 Si7 2.482938 1_545
Pd0 Si8 2.484496 1_545
Pd0 Si6 2.484496 1_655
Pd0 Si1 2.597270 1_645
Pd0 Si5 2.602304 1_555
Pd0 Y0 3.397012 1_545
Pd0 Y2 3.397012 1_654
Pd0 Y1 3.404635 1_655
Pd0 Y3 3.404635 1_545
Pd1 Si8 2.482938 1_456
Pd1 Si6 2.482938 1_565
Pd1 Si9 2.484496 1_565
Pd1 Si7 2.484496 1_455
Pd1 Si0 2.597270 1_465
Pd1 Si4 2.602304 1_555
Pd1 Y1 3.397012 1_565
Pd1 Y3 3.397012 1_456
Pd1 Y0 3.404635 1_455
Pd1 Y2 3.404635 1_565
Pt0 Si6 2.373104 1_555
Pt0 Si0 2.421963 1_554
Pt0 Si5 2.422795 1_555
Pt0 Si3 2.437835 1_555
Pt0 Si2 2.441018 1_554
Pt0 Y3 3.090051 1_545
Pt0 Y2 3.207422 1_554
Pt0 Y2 3.211793 1_555
Pt0 Y1 3.241032 1_555
Pt0 Y0 3.440733 1_554
Pt1 Si8 2.373103 1_555
Pt1 Si0 2.421962 1_555
Pt1 Si5 2.422795 1_555
Pt1 Si3 2.437835 1_555
Pt1 Si2 2.441019 1_555
Pt1 Y1 3.090051 1_655
Pt1 Y0 3.207422 1_555
Pt1 Y0 3.211793 1_554
Pt1 Y3 3.241032 1_555
Pt1 Y2 3.440733 1_555
Pt2 Si7 2.373104 1_555
Pt2 Si1 2.421963 1_556
Pt2 Si4 2.422795 1_555
Pt2 Si2 2.437835 1_555
Pt2 Si3 2.441018 1_556
Pt2 Y2 3.090051 1_565
Pt2 Y3 3.207422 1_556
Pt2 Y3 3.211793 1_555
Pt2 Y0 3.241032 1_555
Pt2 Y1 3.440733 1_556
Pt3 Si9 2.373103 1_555
Pt3 Si1 2.421962 1_555
Pt3 Si4 2.422795 1_555
Pt3 Si2 2.437835 1_555
Pt3 Si3 2.441019 1_555
Pt3 Y0 3.090051 1_455
Pt3 Y1 3.207422 1_555
Pt3 Y1 3.211793 1_556
Pt3 Y2 3.241032 1_555
Pt3 Y3 3.440733 1_555
