# generated using pymatgen
data_Ba10Ga
_symmetry_space_group_name_H-M   'P 1'
_cell_length_a   15.43702492
_cell_length_b   15.43702492
_cell_length_c   15.43702492
_cell_angle_alpha   60.00000000
_cell_angle_beta   60.00000000
_cell_angle_gamma   60.00000000
_symmetry_Int_Tables_number   1
_chemical_formula_structural   Ba10Ga
_chemical_formula_sum   'Ba40 Ga4'
_cell_volume   2601.21241193
_cell_formula_units_Z   4
loop_
 _symmetry_equiv_pos_site_id
 _symmetry_equiv_pos_as_xyz
  1  'x, y, z'
loop_
 _atom_site_type_symbol
 _atom_site_label
 _atom_site_symmetry_multiplicity
 _atom_site_fract_x
 _atom_site_fract_y
 _atom_site_fract_z
 _atom_site_occupancy
  Ba  Ba0  1  0.61814200  0.61814200  0.88185800  1
  Ba  Ba1  1  0.36814200  0.63185800  0.63185800  1
  Ba  Ba2  1  0.63185800  0.36814200  0.36814200  1
  Ba  Ba3  1  0.36814200  0.36814200  0.63185800  1
  Ba  Ba4  1  0.36814200  0.63185800  0.36814200  1
  Ba  Ba5  1  0.63185800  0.36814200  0.63185800  1
  Ba  Ba6  1  0.88185800  0.61814200  0.88185800  1
  Ba  Ba7  1  0.88185800  0.61814200  0.61814200  1
  Ba  Ba8  1  0.61814200  0.88185800  0.88185800  1
  Ba  Ba9  1  0.61814200  0.88185800  0.61814200  1
  Ba  Ba10  1  0.63185800  0.63185800  0.36814200  1
  Ba  Ba11  1  0.88185800  0.88185800  0.61814200  1
  Ba  Ba12  1  0.79186100  0.07054500  0.34573200  1
  Ba  Ba13  1  0.45813900  0.45813900  0.17945500  1
  Ba  Ba14  1  0.17945500  0.90426800  0.45813900  1
  Ba  Ba15  1  0.45813900  0.90426800  0.45813900  1
  Ba  Ba16  1  0.90426800  0.45813900  0.17945500  1
  Ba  Ba17  1  0.90426800  0.45813900  0.45813900  1
  Ba  Ba18  1  0.17945500  0.45813900  0.45813900  1
  Ba  Ba19  1  0.34573200  0.07054500  0.79186100  1
  Ba  Ba20  1  0.79186100  0.07054500  0.79186100  1
  Ba  Ba21  1  0.07054500  0.79186100  0.34573200  1
  Ba  Ba22  1  0.79186100  0.79186100  0.34573200  1
  Ba  Ba23  1  0.07054500  0.34573200  0.79186100  1
  Ba  Ba24  1  0.34573200  0.79186100  0.07054500  1
  Ba  Ba25  1  0.79186100  0.79186100  0.07054500  1
  Ba  Ba26  1  0.79186100  0.34573200  0.79186100  1
  Ba  Ba27  1  0.17945500  0.45813900  0.90426800  1
  Ba  Ba28  1  0.45813900  0.45813900  0.90426800  1
  Ba  Ba29  1  0.45813900  0.90426800  0.17945500  1
  Ba  Ba30  1  0.45813900  0.17945500  0.90426800  1
  Ba  Ba31  1  0.90426800  0.17945500  0.45813900  1
  Ba  Ba32  1  0.45813900  0.17945500  0.45813900  1
  Ba  Ba33  1  0.34573200  0.79186100  0.79186100  1
  Ba  Ba34  1  0.07054500  0.79186100  0.79186100  1
  Ba  Ba35  1  0.79186100  0.34573200  0.07054500  1
  Ba  Ba36  1  0.12500000  0.12500000  0.12500000  1
  Ba  Ba37  1  0.62500000  0.12500000  0.12500000  1
  Ba  Ba38  1  0.12500000  0.12500000  0.62500000  1
  Ba  Ba39  1  0.12500000  0.62500000  0.12500000  1
  Ga  Ga0  1  0.62500000  0.62500000  0.62500000  1
  Ga  Ga1  1  0.12500000  0.62500000  0.62500000  1
  Ga  Ga2  1  0.62500000  0.62500000  0.12500000  1
  Ga  Ga3  1  0.62500000  0.12500000  0.62500000  1
loop_
_geom_bond_atom_site_label_1
_geom_bond_atom_site_label_2
_geom_bond_distance
_geom_bond_site_symmetry_2
Ba0 Ga0 3.862159 1_555
Ba0 Ga2 3.862159 1_556
Ba1 Ga1 3.862159 1_555
Ba1 Ga0 3.862159 1_555
Ba2 Ga3 3.862159 1_555
Ba2 Ga2 3.862159 1_555
Ba3 Ga1 3.862159 1_555
Ba3 Ga3 3.862159 1_555
Ba4 Ga1 3.862159 1_555
Ba4 Ga2 3.862159 1_555
Ba5 Ga3 3.862159 1_555
Ba5 Ga0 3.862159 1_555
Ba6 Ga1 3.862159 1_655
Ba6 Ga2 3.862159 1_556
Ba7 Ga0 3.862159 1_555
Ba7 Ga1 3.862159 1_655
Ba8 Ga3 3.862159 1_565
Ba8 Ga2 3.862159 1_556
Ba9 Ga0 3.862159 1_555
Ba9 Ga3 3.862159 1_565
Ba10 Ga2 3.862159 1_555
Ba10 Ga0 3.862159 1_555
Ba11 Ga3 3.862159 1_565
Ba11 Ga1 3.862159 1_655
Ba12 Ga3 4.034966 1_555
Ba12 Ba37 4.764411 1_555
Ba12 Ba36 4.764423 1_655
Ba13 Ga2 4.034953 1_555
Ba13 Ba39 4.764424 1_555
Ba13 Ba37 4.764424 1_555
Ba14 Ga1 4.034966 1_555
Ba14 Ba38 4.764411 1_565
Ba14 Ba36 4.764423 1_565
Ba15 Ga0 4.034960 1_555
Ba15 Ba38 4.764418 1_565
Ba15 Ba37 4.764418 1_565
Ba16 Ga2 4.034966 1_555
Ba16 Ba39 4.764411 1_655
Ba16 Ba36 4.764423 1_655
Ba17 Ga0 4.034960 1_555
Ba17 Ba38 4.764418 1_655
Ba17 Ba39 4.764418 1_655
Ba18 Ga1 4.034953 1_555
Ba18 Ba39 4.764424 1_555
Ba18 Ba38 4.764424 1_555
Ba19 Ga3 4.034966 1_555
Ba19 Ba38 4.764411 1_555
Ba19 Ba36 4.764423 1_556
Ba20 Ga3 4.034953 1_555
Ba20 Ba37 4.764424 1_556
Ba20 Ba38 4.764424 1_655
Ba21 Ga1 4.034966 1_555
Ba21 Ba39 4.764411 1_555
Ba21 Ba36 4.764423 1_565
Ba22 Ga0 4.034960 1_555
Ba22 Ba39 4.764418 1_655
Ba22 Ba37 4.764418 1_565
Ba23 Ga1 4.034966 1_555
Ba23 Ba38 4.764411 1_555
Ba23 Ba36 4.764423 1_556
Ba24 Ga2 4.034966 1_555
Ba24 Ba39 4.764411 1_555
Ba24 Ba36 4.764423 1_565
Ba25 Ga2 4.034953 1_555
Ba25 Ba39 4.764424 1_655
Ba25 Ba37 4.764424 1_565
Ba26 Ga0 4.034960 1_555
Ba26 Ba38 4.764418 1_655
Ba26 Ba37 4.764418 1_556
Ba27 Ga1 4.034966 1_555
Ba27 Ba39 4.764411 1_556
Ba27 Ba36 4.764423 1_556
Ba28 Ga0 4.034960 1_555
Ba28 Ba37 4.764418 1_556
Ba28 Ba39 4.764418 1_556
Ba29 Ga2 4.034966 1_555
Ba29 Ba37 4.764411 1_565
Ba29 Ba36 4.764423 1_565
Ba30 Ga3 4.034966 1_555
Ba30 Ba37 4.764411 1_556
Ba30 Ba36 4.764423 1_556
Ba31 Ga3 4.034966 1_555
Ba31 Ba38 4.764411 1_655
Ba31 Ba36 4.764423 1_655
Ba32 Ga3 4.034953 1_555
Ba32 Ba37 4.764424 1_555
Ba32 Ba38 4.764424 1_555
Ba33 Ga0 4.034960 1_555
Ba33 Ba39 4.764418 1_556
Ba33 Ba38 4.764418 1_565
Ba34 Ga1 4.034953 1_555
Ba34 Ba38 4.764424 1_565
Ba34 Ba39 4.764424 1_556
Ba35 Ga2 4.034966 1_555
Ba35 Ba37 4.764411 1_555
Ba35 Ba36 4.764423 1_655
