# generated using pymatgen
data_Zr5CuSnSb2
_symmetry_space_group_name_H-M   'P 1'
_cell_length_a   8.62173411
_cell_length_b   8.62875140
_cell_length_c   5.84220848
_cell_angle_alpha   90.00000000
_cell_angle_beta   90.00000000
_cell_angle_gamma   120.02691839
_symmetry_Int_Tables_number   1
_chemical_formula_structural   Zr5CuSnSb2
_chemical_formula_sum   'Zr10 Cu2 Sn2 Sb4'
_cell_volume   376.29842391
_cell_formula_units_Z   2
loop_
 _symmetry_equiv_pos_site_id
 _symmetry_equiv_pos_as_xyz
  1  'x, y, z'
loop_
 _atom_site_type_symbol
 _atom_site_label
 _atom_site_symmetry_multiplicity
 _atom_site_fract_x
 _atom_site_fract_y
 _atom_site_fract_z
 _atom_site_occupancy
  Zr  Zr0  1  0.66762823  0.33389235  0.99909055  1
  Zr  Zr1  1  0.33237177  0.66626512  0.99909055  1
  Zr  Zr2  1  0.33237177  0.66626512  0.50090945  1
  Zr  Zr3  1  0.66762823  0.33389235  0.50090945  1
  Zr  Zr4  1  0.73653013  0.73656690  0.75000000  1
  Zr  Zr5  1  0.26346987  0.00003677  0.75000000  1
  Zr  Zr6  1  1.00000000  0.26476842  0.75000000  1
  Zr  Zr7  1  0.25968682  0.25889972  0.25000000  1
  Zr  Zr8  1  0.74031318  0.99921290  0.25000000  1
  Zr  Zr9  1  0.00000000  0.73960621  0.25000000  1
  Cu  Cu0  1  0.00000000  0.00131642  0.50626507  1
  Cu  Cu1  1  0.00000000  0.00131642  0.99373493  1
  Sn  Sn0  1  0.38493568  0.38477928  0.75000000  1
  Sn  Sn1  1  0.61506432  0.99984361  0.75000000  1
  Sb  Sb0  1  1.00000000  0.61542869  0.75000000  1
  Sb  Sb1  1  0.61136239  0.61165884  0.25000000  1
  Sb  Sb2  1  0.38863761  0.00029745  0.25000000  1
  Sb  Sb3  1  0.00000000  0.38595244  0.25000000  1
loop_
_geom_bond_atom_site_label_1
_geom_bond_atom_site_label_2
_geom_bond_distance
_geom_bond_site_symmetry_2
Cu0 Zr6 2.682416 1_455
Cu0 Zr5 2.685680 1_555
Cu0 Zr4 2.685680 1_445
Cu0 Zr8 2.685894 1_445
Cu0 Zr7 2.685895 1_555
Cu0 Zr9 2.709443 1_545
Cu1 Zr6 2.682416 1_455
Cu1 Zr5 2.685680 1_555
Cu1 Zr4 2.685680 1_445
Cu1 Zr8 2.685894 1_446
Cu1 Zr7 2.685895 1_556
Cu1 Zr9 2.709443 1_546
Sn0 Zr5 2.939147 1_555
Sn0 Zr6 2.940629 1_455
Sn0 Zr4 3.032189 1_555
Sn0 Zr0 3.053198 1_555
Sn0 Zr3 3.053198 1_555
Sn0 Zr1 3.053549 1_555
Sn0 Zr2 3.053549 1_555
Sn0 Zr7 3.115263 1_555
Sn0 Zr7 3.115263 1_556
Sn1 Zr4 2.939147 1_555
Sn1 Zr6 2.940629 1_565
Sn1 Zr5 3.032188 1_565
Sn1 Zr1 3.053194 1_555
Sn1 Zr2 3.053194 1_555
Sn1 Zr0 3.053541 1_565
Sn1 Zr3 3.053541 1_565
Sn1 Zr8 3.115263 1_556
Sn1 Zr8 3.115263 1_555
Sb0 Zr4 2.937507 1_555
Sb0 Zr5 2.937507 1_665
Sb0 Zr6 3.025760 1_555
Sb0 Zr1 3.043662 1_655
Sb0 Zr2 3.043662 1_655
Sb0 Zr0 3.043665 1_555
Sb0 Zr3 3.043665 1_555
Sb0 Zr9 3.111423 1_655
Sb0 Zr9 3.111423 1_656
Sb1 Zr8 2.949267 1_555
Sb1 Zr9 2.957019 1_655
Sb1 Zr7 3.036743 1_555
Sb1 Zr2 3.048105 1_555
Sb1 Zr1 3.048105 1_554
Sb1 Zr3 3.048324 1_555
Sb1 Zr0 3.048324 1_554
Sb1 Zr4 3.113684 1_555
Sb1 Zr4 3.113684 1_554
Sb2 Zr7 2.949258 1_555
Sb2 Zr9 2.957021 1_545
Sb2 Zr8 3.036747 1_545
Sb2 Zr3 3.048096 1_555
Sb2 Zr0 3.048096 1_554
Sb2 Zr2 3.048325 1_545
Sb2 Zr1 3.048325 1_544
Sb2 Zr5 3.113682 1_555
Sb2 Zr5 3.113682 1_554
Sb3 Zr7 2.944717 1_555
Sb3 Zr8 2.944718 1_445
Sb3 Zr3 3.045327 1_455
Sb3 Zr0 3.045327 1_454
Sb3 Zr2 3.045330 1_555
Sb3 Zr1 3.045330 1_554
Sb3 Zr9 3.051590 1_555
Sb3 Zr6 3.102623 1_454
Sb3 Zr6 3.102623 1_455
