# generated using pymatgen
data_Sr2LiReH6
_symmetry_space_group_name_H-M   'P 1'
_cell_length_a   5.42113713
_cell_length_b   5.42113692
_cell_length_c   5.42113713
_cell_angle_alpha   120.00001948
_cell_angle_beta   89.99997897
_cell_angle_gamma   120.00001948
_symmetry_Int_Tables_number   1
_chemical_formula_structural   Sr2LiReH6
_chemical_formula_sum   'Sr2 Li1 Re1 H6'
_cell_volume   112.65643105
_cell_formula_units_Z   1
loop_
 _symmetry_equiv_pos_site_id
 _symmetry_equiv_pos_as_xyz
  1  'x, y, z'
loop_
 _atom_site_type_symbol
 _atom_site_label
 _atom_site_symmetry_multiplicity
 _atom_site_fract_x
 _atom_site_fract_y
 _atom_site_fract_z
 _atom_site_occupancy
  Sr  Sr0  1  0.74999800  0.49999800  0.25000000  1
  Sr  Sr1  1  0.24999900  0.49999800  0.75000100  1
  Li  Li0  1  0.50000000  0.00000000  0.50000000  1
  Re  Re0  1  0.00000000  0.00000000  0.00000000  1
  H  H0  1  0.23583855  1.00000000  0.23583855  1
  H  H1  1  0.23583855  0.47167810  0.23583855  1
  H  H2  1  0.76416145  0.00000000  0.23583955  1
  H  H3  1  0.76416045  0.00000000  0.76416045  1
  H  H4  1  0.76416145  0.52832190  0.76416145  1
  H  H5  1  0.23583955  0.00000000  0.76416145  1
loop_
_geom_bond_atom_site_label_1
_geom_bond_atom_site_label_2
_geom_bond_distance
_geom_bond_site_symmetry_2
H0 Re0 1.808091 1_565
H0 Li0 2.025233 1_565
H0 Sr0 2.712730 1_565
H0 Sr1 2.712742 1_565
H0 Sr1 2.712742 1_554
H0 Sr0 2.712752 1_455
H1 Re0 1.808094 1_555
H1 Li0 2.025227 1_565
H1 Sr1 2.712728 1_554
H1 Sr0 2.712739 1_555
H1 Sr0 2.712744 1_455
H1 Sr1 2.712755 1_555
H2 Re0 1.808094 1_655
H2 Li0 2.025228 1_555
H2 Sr1 2.712739 1_655
H2 Sr0 2.712739 1_555
H2 Sr1 2.712744 1_544
H2 Sr0 2.712745 1_545
H3 Re0 1.808099 1_656
H3 Li0 2.025225 1_555
H3 Sr1 2.712730 1_655
H3 Sr0 2.712741 1_545
H3 Sr0 2.712741 1_556
H3 Sr1 2.712751 1_545
H4 Re0 1.808094 1_666
H4 Li0 2.025227 1_555
H4 Sr0 2.712740 1_555
H4 Sr1 2.712740 1_655
H4 Sr1 2.712745 1_555
H4 Sr0 2.712745 1_556
H5 Re0 1.808094 1_556
H5 Li0 2.025228 1_555
H5 Sr0 2.712733 1_556
H5 Sr1 2.712733 1_555
H5 Sr0 2.712749 1_445
H5 Sr1 2.712750 1_545
