# generated using pymatgen
data_Be15Nb6(CuRh3)2
_symmetry_space_group_name_H-M   'P 1'
_cell_length_a   7.80926951
_cell_length_b   7.77186576
_cell_length_c   7.77186648
_cell_angle_alpha   59.99999693
_cell_angle_beta   60.15831156
_cell_angle_gamma   60.15831560
_symmetry_Int_Tables_number   1
_chemical_formula_structural   Be15Nb6(CuRh3)2
_chemical_formula_sum   'Be15 Nb6 Cu2 Rh6'
_cell_volume   334.33444151
_cell_formula_units_Z   1
loop_
 _symmetry_equiv_pos_site_id
 _symmetry_equiv_pos_as_xyz
  1  'x, y, z'
loop_
 _atom_site_type_symbol
 _atom_site_label
 _atom_site_symmetry_multiplicity
 _atom_site_fract_x
 _atom_site_fract_y
 _atom_site_fract_z
 _atom_site_occupancy
  Be  Be0  1  0.32927101  0.32801986  0.32801986  1
  Be  Be1  1  0.67072899  0.67198014  0.67198014  1
  Be  Be2  1  0.32927101  0.32801986  0.01469126  1
  Be  Be3  1  0.32927101  0.01469126  0.32801986  1
  Be  Be4  1  0.67072899  0.67198014  0.98530874  1
  Be  Be5  1  0.67072899  0.98530874  0.67198014  1
  Be  Be6  1  0.02343919  0.32552060  0.32552060  1
  Be  Be7  1  0.97656081  0.67447940  0.67447940  1
  Be  Be8  1  0.50000000  0.00000000  0.00000000  1
  Be  Be9  1  0.00000000  0.50000000  0.50000000  1
  Be  Be10  1  0.00000000  0.50000000  0.00000000  1
  Be  Be11  1  0.50000000  0.00000000  0.50000000  1
  Be  Be12  1  0.00000000  0.00000000  0.50000000  1
  Be  Be13  1  0.50000000  0.50000000  0.00000000  1
  Be  Be14  1  0.00000000  0.00000000  0.00000000  1
  Nb  Nb0  1  0.70436180  0.30151520  0.30151520  1
  Nb  Nb1  1  0.29563820  0.69848480  0.69848480  1
  Nb  Nb2  1  0.29563820  0.69848480  0.30739321  1
  Nb  Nb3  1  0.70436180  0.30151520  0.69260679  1
  Nb  Nb4  1  0.29563820  0.30739321  0.69848480  1
  Nb  Nb5  1  0.70436180  0.69260679  0.30151520  1
  Cu  Cu0  1  0.62709423  0.12430226  0.12430226  1
  Cu  Cu1  1  0.37290577  0.87569774  0.87569774  1
  Rh  Rh0  1  0.12967915  0.12075903  0.12075903  1
  Rh  Rh1  1  0.87032085  0.87924097  0.87924097  1
  Rh  Rh2  1  0.12967915  0.12075903  0.62880280  1
  Rh  Rh3  1  0.12967915  0.62880280  0.12075903  1
  Rh  Rh4  1  0.87032085  0.87924097  0.37119720  1
  Rh  Rh5  1  0.87032085  0.37119720  0.87924097  1
loop_
_geom_bond_atom_site_label_1
_geom_bond_atom_site_label_2
_geom_bond_distance
_geom_bond_site_symmetry_2
Be0 Be13 2.246465 1_555
Be0 Be11 2.246465 1_555
Be0 Be9 2.265080 1_555
Be0 Rh2 2.365533 1_555
Be0 Rh3 2.365534 1_555
Be0 Cu0 2.366446 1_555
Be0 Be6 2.407811 1_555
Be0 Be3 2.435148 1_555
Be0 Be2 2.435148 1_555
Be0 Nb2 2.685563 1_555
Be0 Nb4 2.685563 1_555
Be0 Nb0 2.739787 1_555
Be1 Be13 2.246465 1_556
Be1 Be11 2.246465 1_565
Be1 Be9 2.265080 1_655
Be1 Rh4 2.365533 1_555
Be1 Rh5 2.365534 1_555
Be1 Cu1 2.366446 1_555
Be1 Be7 2.407811 1_555
Be1 Be5 2.435148 1_555
Be1 Be4 2.435148 1_555
Be1 Nb3 2.685563 1_555
Be1 Nb5 2.685563 1_555
Be1 Nb1 2.739787 1_555
Be2 Be8 2.246470 1_555
Be2 Rh3 2.365526 1_555
Be2 Rh0 2.365538 1_555
Be2 Cu0 2.366442 1_555
Be2 Be6 2.407808 1_555
Be2 Be3 2.435148 1_555
Be2 Nb1 2.685566 1_554
Be2 Nb4 2.685571 1_554
Be2 Nb3 2.739797 1_554
Be3 Be8 2.246470 1_555
Be3 Rh2 2.365526 1_555
Be3 Rh0 2.365539 1_555
Be3 Cu0 2.366442 1_555
Be3 Be6 2.407808 1_555
Be3 Nb1 2.685566 1_545
Be3 Nb2 2.685570 1_545
Be3 Nb5 2.739797 1_545
Be4 Be8 2.246470 1_566
Be4 Rh5 2.365526 1_555
Be4 Rh1 2.365538 1_555
Be4 Cu1 2.366442 1_555
Be4 Be7 2.407808 1_555
Be4 Be5 2.435148 1_555
Be4 Nb0 2.685566 1_556
Be4 Nb5 2.685571 1_556
Be4 Nb2 2.739797 1_556
Be5 Be8 2.246470 1_566
Be5 Rh4 2.365526 1_555
Be5 Rh1 2.365539 1_555
Be5 Cu1 2.366442 1_555
Be5 Be7 2.407808 1_555
Be5 Nb0 2.685566 1_565
Be5 Nb3 2.685570 1_565
Be5 Nb4 2.739797 1_565
Be6 Be9 2.248536 1_555
Be6 Rh3 2.378616 1_555
Be6 Rh2 2.378617 1_555
Be6 Rh0 2.378623 1_555
Be6 Nb3 2.690456 1_455
Be6 Nb5 2.690456 1_455
Be6 Nb0 2.690465 1_455
Be7 Be9 2.248536 1_655
Be7 Rh5 2.378616 1_555
Be7 Rh4 2.378617 1_555
Be7 Rh1 2.378623 1_555
Be7 Nb2 2.690456 1_655
Be7 Nb4 2.690456 1_655
Be7 Nb1 2.690465 1_655
Be8 Rh1 2.367165 1_544
Be8 Rh0 2.367165 1_555
Be8 Cu0 2.386079 1_555
Be8 Cu1 2.386079 1_544
Be8 Nb3 2.841611 1_554
Be8 Nb2 2.841611 1_545
Be8 Nb5 2.841611 1_545
Be8 Nb4 2.841611 1_554
Be9 Rh4 2.408889 1_455
Be9 Rh2 2.408889 1_555
Be9 Rh5 2.408889 1_455
Be9 Rh3 2.408889 1_555
Be9 Nb2 2.783229 1_555
Be9 Nb3 2.783229 1_455
Be9 Nb4 2.783230 1_555
Be9 Nb5 2.783230 1_455
Be10 Be6 2.248543 1_555
Be10 Be7 2.248543 1_454
Be10 Be4 2.265085 1_454
Be10 Be2 2.265085 1_555
Be10 Rh1 2.408889 1_454
Be10 Rh0 2.408889 1_555
Be10 Rh3 2.408889 1_555
Be10 Rh5 2.408889 1_454
Be10 Nb5 2.783224 1_455
Be10 Nb4 2.783224 1_554
Be10 Nb1 2.783228 1_554
Be10 Nb0 2.783228 1_455
Be11 Be3 2.246456 1_555
Be11 Be5 2.246456 1_545
Be11 Rh4 2.367165 1_545
Be11 Rh2 2.367165 1_555
Be11 Cu1 2.386072 1_545
Be11 Cu0 2.386072 1_555
Be11 Nb0 2.841609 1_555
Be11 Nb1 2.841609 1_545
Be11 Nb4 2.841616 1_555
Be11 Nb5 2.841616 1_545
Be12 Be6 2.248543 1_555
Be12 Be7 2.248543 1_445
Be12 Be5 2.265085 1_445
Be12 Be3 2.265085 1_555
Be12 Rh2 2.408889 1_555
Be12 Rh1 2.408889 1_445
Be12 Rh0 2.408889 1_555
Be12 Rh4 2.408889 1_445
Be12 Nb3 2.783224 1_455
Be12 Nb2 2.783224 1_545
Be12 Nb1 2.783229 1_545
Be12 Nb0 2.783229 1_455
Be13 Be2 2.246456 1_555
Be13 Be4 2.246456 1_554
Be13 Rh3 2.367165 1_555
Be13 Rh5 2.367165 1_554
Be13 Cu1 2.386072 1_554
Be13 Cu0 2.386072 1_555
Be13 Nb0 2.841610 1_555
Be13 Nb1 2.841610 1_554
Be13 Nb2 2.841616 1_555
Be13 Nb3 2.841616 1_554
Be14 Rh5 2.357926 1_454
Be14 Rh3 2.357926 1_545
Be14 Rh0 2.357926 1_555
Be14 Rh4 2.357926 1_445
Be14 Rh2 2.357926 1_554
Be14 Rh1 2.357926 1_444
Be14 Cu1 2.383411 1_544
Be14 Cu0 2.383411 1_455
Nb0 Rh4 2.726125 1_545
Nb0 Rh5 2.726125 1_554
Nb0 Rh0 2.768586 1_655
Nb0 Nb5 3.039511 1_555
Nb0 Nb3 3.039512 1_555
Nb0 Nb4 3.147042 1_555
Nb0 Nb2 3.147042 1_555
Nb1 Rh2 2.726125 1_565
Nb1 Rh3 2.726125 1_556
Nb1 Rh1 2.768586 1_455
Nb1 Nb4 3.039511 1_555
Nb1 Nb2 3.039512 1_555
Nb1 Nb5 3.147042 1_555
Nb1 Nb3 3.147042 1_555
Nb2 Rh0 2.726126 1_565
Nb2 Rh3 2.726132 1_555
Nb2 Rh4 2.768587 1_455
Nb2 Nb4 3.039511 1_555
Nb2 Nb5 3.147035 1_555
Nb3 Rh1 2.726126 1_545
Nb3 Rh5 2.726132 1_555
Nb3 Rh2 2.768587 1_655
Nb3 Nb5 3.039511 1_555
Nb3 Nb4 3.147035 1_555
Nb4 Rh0 2.726126 1_556
Nb4 Rh2 2.726132 1_555
Nb4 Rh5 2.768587 1_455
Nb5 Rh1 2.726126 1_554
Nb5 Rh4 2.726132 1_555
Nb5 Rh3 2.768587 1_655
Cu0 Rh5 2.699912 1_554
Cu0 Rh4 2.699913 1_545
Cu0 Rh1 2.699918 1_544
Cu0 Nb0 2.776491 1_555
Cu0 Nb5 2.776504 1_545
Cu0 Nb3 2.776504 1_554
Cu1 Rh3 2.699912 1_556
Cu1 Rh2 2.699913 1_565
Cu1 Rh0 2.699918 1_566
Cu1 Nb1 2.776491 1_555
Cu1 Nb4 2.776504 1_565
Cu1 Nb2 2.776504 1_556
Rh0 Rh4 2.760568 1_445
Rh0 Rh5 2.760568 1_454
Rh1 Rh2 2.760568 1_665
Rh1 Rh3 2.760568 1_656
Rh2 Rh5 2.760568 1_455
Rh3 Rh4 2.760568 1_455
