# generated using pymatgen
data_HfZr5(GaRu)6
_symmetry_space_group_name_H-M   'P 1'
_cell_length_a   7.84928803
_cell_length_b   7.84999802
_cell_length_c   7.84928794
_cell_angle_alpha   126.43883440
_cell_angle_beta   128.52494647
_cell_angle_gamma   77.47569758
_symmetry_Int_Tables_number   1
_chemical_formula_structural   HfZr5(GaRu)6
_chemical_formula_sum   'Hf1 Zr5 Ga6 Ru6'
_cell_volume   295.25710422
_cell_formula_units_Z   1
loop_
 _symmetry_equiv_pos_site_id
 _symmetry_equiv_pos_as_xyz
  1  'x, y, z'
loop_
 _atom_site_type_symbol
 _atom_site_label
 _atom_site_symmetry_multiplicity
 _atom_site_fract_x
 _atom_site_fract_y
 _atom_site_fract_z
 _atom_site_occupancy
  Hf  Hf0  1  0.95001047  0.65408927  0.20407880  1
  Zr  Zr0  1  0.45290831  0.65817947  0.70527116  1
  Zr  Zr1  1  0.54770046  0.25459185  0.20689038  1
  Zr  Zr2  1  0.74947958  0.84814945  0.59866987  1
  Zr  Zr3  1  0.25075771  0.85240130  0.10164459  1
  Zr  Zr4  1  0.04840412  0.25209523  0.70369011  1
  Ga  Ga0  1  0.25073557  0.25540986  0.50467429  1
  Ga  Ga1  1  0.74877248  0.25086654  0.00209405  1
  Ga  Ga2  1  0.33004476  0.58698240  0.25045069  1
  Ga  Ga3  1  0.66759155  0.91915063  0.25334162  1
  Ga  Ga4  1  0.16580901  0.91915063  0.75155909  1
  Ga  Ga5  1  0.83653171  0.58698240  0.75693764  1
  Ru  Ru0  1  0.50230086  0.51155494  0.01240720  1
  Ru  Ru1  1  0.99914774  0.51155494  0.50925408  1
  Ru  Ru2  1  0.12802878  0.25454685  0.12424528  1
  Ru  Ru3  1  0.87280447  0.99467469  0.12600384  1
  Ru  Ru4  1  0.36867085  0.99467469  0.62187022  1
  Ru  Ru5  1  0.63030357  0.25454685  0.62652007  1
loop_
_geom_bond_atom_site_label_1
_geom_bond_atom_site_label_2
_geom_bond_distance
_geom_bond_site_symmetry_2
Hf0 Ru4 2.944820 1_655
Hf0 Ru3 2.944820 1_555
Hf0 Ru0 2.997415 1_555
Hf0 Ru1 2.997415 1_555
Hf0 Ru5 3.006234 1_554
Hf0 Ru2 3.006242 1_655
Ga0 Ru0 2.494905 1_556
Ga0 Ru1 2.494905 1_455
Ga0 Ru2 2.498103 1_555
Ga0 Ru5 2.498113 1_555
Ga0 Ru3 2.499310 1_445
Ga0 Ru4 2.499310 1_545
Ga0 Zr4 2.849542 1_555
Ga0 Zr3 2.850917 1_545
Ga0 Zr0 2.853716 1_555
Ga1 Ru1 2.493660 1_555
Ga1 Ru0 2.493660 1_555
Ga1 Ru5 2.496158 1_554
Ga1 Ru2 2.496167 1_655
Ga1 Ru4 2.496638 1_544
Ga1 Ru3 2.496638 1_545
Ga1 Hf0 2.848703 1_555
Ga1 Zr2 2.853716 1_544
Ga1 Zr1 2.856655 1_555
Ga2 Ru4 2.658907 1_555
Ga2 Ru2 2.659468 1_555
Ga2 Ru0 2.674985 1_555
Ga2 Hf0 2.738971 1_455
Ga2 Zr3 2.741492 1_555
Ga2 Zr4 2.741507 1_554
Ga2 Zr0 2.749930 1_555
Ga2 Zr2 2.752067 1_555
Ga2 Zr1 2.752896 1_555
Ga3 Ru0 2.655773 1_555
Ga3 Ru3 2.658721 1_555
Ga3 Ru5 2.677693 1_565
Ga3 Hf0 2.739460 1_555
Ga3 Zr4 2.740806 1_665
Ga3 Zr2 2.745906 1_555
Ga3 Zr0 2.746037 1_554
Ga3 Zr3 2.747116 1_555
Ga3 Zr1 2.755124 1_565
Ga4 Ru1 2.655773 1_455
Ga4 Ru4 2.658721 1_555
Ga4 Ru2 2.677693 1_566
Ga4 Hf0 2.739460 1_455
Ga4 Zr4 2.740810 1_565
Ga4 Zr2 2.745906 1_455
Ga4 Zr0 2.746038 1_555
Ga4 Zr3 2.747120 1_556
Ga4 Zr1 2.755119 1_566
Ga5 Ru3 2.658907 1_556
Ga5 Ru5 2.659468 1_555
Ga5 Ru1 2.674985 1_555
Ga5 Hf0 2.738971 1_556
Ga5 Zr3 2.741496 1_656
Ga5 Zr4 2.741502 1_655
Ga5 Zr0 2.749930 1_555
Ga5 Zr2 2.752067 1_555
Ga5 Zr1 2.752901 1_555
Ru0 Zr2 2.929041 1_555
Ru0 Zr3 2.958599 1_555
Ru0 Zr1 3.032304 1_555
Ru0 Zr0 3.037355 1_554
Ru0 Zr4 3.040261 1_554
Ru1 Zr2 2.929041 1_555
Ru1 Zr3 2.958603 1_656
Ru1 Zr1 3.032307 1_555
Ru1 Zr0 3.037355 1_655
Ru1 Zr4 3.040257 1_655
Ru2 Zr1 2.934336 1_555
Ru2 Zr4 2.940687 1_554
Ru2 Zr3 3.025526 1_545
Ru2 Zr0 3.031905 1_555
Ru2 Zr2 3.038481 1_444
Ru3 Zr0 2.932691 1_554
Ru3 Zr4 3.013585 1_665
Ru3 Zr3 3.016774 1_655
Ru3 Zr2 3.037907 1_554
Ru3 Zr1 3.049462 1_565
Ru4 Zr0 2.932692 1_555
Ru4 Zr4 3.013589 1_565
Ru4 Zr3 3.016770 1_555
Ru4 Zr2 3.037907 1_555
Ru4 Zr1 3.049458 1_566
Ru5 Zr1 2.934347 1_555
Ru5 Zr4 2.940675 1_655
Ru5 Zr3 3.025530 1_545
Ru5 Zr0 3.031913 1_555
Ru5 Zr2 3.038474 1_545
