# generated using pymatgen
data_Hf16Os3Pt5O4
_symmetry_space_group_name_H-M   'P 1'
_cell_length_a   8.70469771
_cell_length_b   8.70469809
_cell_length_c   8.70469782
_cell_angle_alpha   60.23915840
_cell_angle_beta   60.23915677
_cell_angle_gamma   60.23915362
_symmetry_Int_Tables_number   1
_chemical_formula_structural   Hf16Os3Pt5O4
_chemical_formula_sum   'Hf16 Os3 Pt5 O4'
_cell_volume   468.91168172
_cell_formula_units_Z   1
loop_
 _symmetry_equiv_pos_site_id
 _symmetry_equiv_pos_as_xyz
  1  'x, y, z'
loop_
 _atom_site_type_symbol
 _atom_site_label
 _atom_site_symmetry_multiplicity
 _atom_site_fract_x
 _atom_site_fract_y
 _atom_site_fract_z
 _atom_site_occupancy
  Hf  Hf0  1  0.11565375  0.62754596  0.62754596  1
  Hf  Hf1  1  0.62754596  0.11565375  0.62754596  1
  Hf  Hf2  1  0.62754596  0.62754596  0.11565375  1
  Hf  Hf3  1  0.63329879  0.63329879  0.63329879  1
  Hf  Hf4  1  0.80429116  0.80429116  0.19419609  1
  Hf  Hf5  1  0.18721246  0.18721246  0.81231099  1
  Hf  Hf6  1  0.80429116  0.19419609  0.80429116  1
  Hf  Hf7  1  0.18721246  0.81231099  0.18721246  1
  Hf  Hf8  1  0.19419609  0.80429116  0.80429116  1
  Hf  Hf9  1  0.81231099  0.18721246  0.18721246  1
  Hf  Hf10  1  0.43344109  0.43344109  0.05933697  1
  Hf  Hf11  1  0.06547761  0.06547761  0.43364937  1
  Hf  Hf12  1  0.43344109  0.05933697  0.43344109  1
  Hf  Hf13  1  0.06547761  0.43364937  0.06547761  1
  Hf  Hf14  1  0.05933697  0.43344109  0.43344109  1
  Hf  Hf15  1  0.43364937  0.06547761  0.06547761  1
  Os  Os0  1  0.76164740  0.41732770  0.41732770  1
  Os  Os1  1  0.41732770  0.76164740  0.41732770  1
  Os  Os2  1  0.41732770  0.41732770  0.76164740  1
  Pt  Pt0  1  0.41279076  0.41279076  0.41279076  1
  Pt  Pt1  1  0.45099260  0.85303133  0.85303133  1
  Pt  Pt2  1  0.85303133  0.45099260  0.85303133  1
  Pt  Pt3  1  0.85303133  0.85303133  0.45099260  1
  Pt  Pt4  1  0.84726382  0.84726382  0.84726382  1
  O  O0  1  0.62417770  0.12665882  0.12665882  1
  O  O1  1  0.12665882  0.62417770  0.12665882  1
  O  O2  1  0.12665882  0.12665882  0.62417770  1
  O  O3  1  0.12471047  0.12471047  0.12471047  1
loop_
_geom_bond_atom_site_label_1
_geom_bond_atom_site_label_2
_geom_bond_distance
_geom_bond_site_symmetry_2
Hf0 Pt3 2.734794 1_455
Hf0 Pt2 2.734794 1_455
Hf0 Pt4 2.744743 1_455
Hf0 Pt0 2.747381 1_555
Hf0 Os2 2.785494 1_555
Hf0 Os1 2.785494 1_555
Hf1 Pt3 2.734794 1_545
Hf1 Pt1 2.734794 1_545
Hf1 Pt4 2.744743 1_545
Hf1 Pt0 2.747381 1_555
Hf1 Os2 2.785494 1_555
Hf1 Os0 2.785494 1_555
Hf2 Pt2 2.734794 1_554
Hf2 Pt1 2.734794 1_554
Hf2 Pt4 2.744743 1_554
Hf2 Pt0 2.747381 1_555
Hf2 Os1 2.785494 1_555
Hf2 Os0 2.785494 1_555
Hf3 Pt2 2.727724 1_555
Hf3 Pt1 2.727724 1_555
Hf3 Pt3 2.727724 1_555
Hf3 Os1 2.766785 1_555
Hf3 Os0 2.766785 1_555
Hf3 Os2 2.766785 1_555
Hf4 O1 2.363813 1_655
Hf4 O0 2.363813 1_565
Hf4 Pt4 2.701083 1_554
Hf4 Pt3 2.723687 1_555
Hf4 Os1 3.047440 1_555
Hf4 Os0 3.047440 1_555
Hf5 O2 2.286325 1_555
Hf5 O3 2.311522 1_556
Hf5 Pt2 2.648244 1_455
Hf5 Pt1 2.648244 1_545
Hf5 Pt0 3.174093 1_555
Hf5 Os2 3.232415 1_555
Hf6 O2 2.363813 1_655
Hf6 O0 2.363813 1_556
Hf6 Pt4 2.701083 1_545
Hf6 Pt2 2.723687 1_555
Hf6 Os2 3.047440 1_555
Hf6 Os0 3.047440 1_555
Hf7 O1 2.286325 1_555
Hf7 O3 2.311522 1_565
Hf7 Pt3 2.648244 1_455
Hf7 Pt1 2.648244 1_554
Hf7 Pt0 3.174093 1_555
Hf7 Os1 3.232414 1_555
Hf8 O1 2.363813 1_556
Hf8 O2 2.363813 1_565
Hf8 Pt4 2.701083 1_455
Hf8 Pt1 2.723687 1_555
Hf8 Os2 3.047440 1_555
Hf8 Os1 3.047440 1_555
Hf9 O0 2.286325 1_555
Hf9 O3 2.311522 1_655
Hf9 Pt3 2.648244 1_545
Hf9 Pt2 2.648244 1_554
Hf9 Pt0 3.174092 1_555
Hf9 Os0 3.232415 1_555
Hf10 O1 2.289536 1_555
Hf10 O0 2.289536 1_555
Hf10 Os2 2.737766 1_554
Hf10 Pt0 2.909422 1_555
Hf10 Pt2 3.218445 1_554
Hf10 Pt1 3.218446 1_554
Hf11 O3 2.296617 1_555
Hf11 O2 2.313684 1_555
Hf11 Os1 2.880067 1_545
Hf11 Os0 2.880067 1_455
Hf11 Pt3 3.115001 1_445
Hf11 Pt4 3.190932 1_445
Hf12 O2 2.289536 1_555
Hf12 O0 2.289536 1_555
Hf12 Os1 2.737766 1_545
Hf12 Pt0 2.909422 1_555
Hf12 Pt3 3.218445 1_545
Hf12 Pt1 3.218446 1_545
Hf13 O3 2.296617 1_555
Hf13 O1 2.313684 1_555
Hf13 Os2 2.880067 1_554
Hf13 Os0 2.880067 1_455
Hf13 Pt2 3.115001 1_454
Hf13 Pt4 3.190932 1_454
Hf14 O2 2.289536 1_555
Hf14 O1 2.289536 1_555
Hf14 Os0 2.737766 1_455
Hf14 Pt0 2.909422 1_555
Hf14 Pt2 3.218446 1_455
Hf14 Pt3 3.218446 1_455
Hf15 O3 2.296617 1_555
Hf15 O0 2.313684 1_555
Hf15 Os1 2.880068 1_545
Hf15 Os2 2.880068 1_554
Hf15 Pt1 3.115001 1_544
Hf15 Pt4 3.190932 1_544
Os0 Os1 3.008027 1_555
Os0 Os2 3.008027 1_555
Os0 Pt0 3.076407 1_555
Os1 Os2 3.008027 1_555
Os1 Pt0 3.076407 1_555
Os2 Pt0 3.076407 1_555
