# generated using pymatgen
data_Sr10Si5Bi
_symmetry_space_group_name_H-M   'P 1'
_cell_length_a   9.80070607
_cell_length_b   9.80070699
_cell_length_c   9.80070788
_cell_angle_alpha   130.48548764
_cell_angle_beta   130.48548731
_cell_angle_gamma   72.63181964
_symmetry_Int_Tables_number   1
_chemical_formula_structural   Sr10Si5Bi
_chemical_formula_sum   'Sr10 Si5 Bi1'
_cell_volume   532.10943658
_cell_formula_units_Z   1
loop_
 _symmetry_equiv_pos_site_id
 _symmetry_equiv_pos_as_xyz
  1  'x, y, z'
loop_
 _atom_site_type_symbol
 _atom_site_label
 _atom_site_symmetry_multiplicity
 _atom_site_fract_x
 _atom_site_fract_y
 _atom_site_fract_z
 _atom_site_occupancy
  Sr  Sr0  1  0.04931747  0.52810387  0.85445185  1
  Sr  Sr1  1  0.30513338  0.82634698  0.85445185  1
  Sr  Sr2  1  0.97189613  0.45068253  0.14554815  1
  Sr  Sr3  1  0.98940360  0.98940360  0.00000000  1
  Sr  Sr4  1  0.45068253  0.30513338  0.47878639  1
  Sr  Sr5  1  0.19486662  0.04931747  0.52121361  1
  Sr  Sr6  1  0.67365302  0.19486662  0.14554815  1
  Sr  Sr7  1  0.52810387  0.67365302  0.47878639  1
  Sr  Sr8  1  0.82634698  0.97189613  0.52121361  1
  Sr  Sr9  1  0.51059640  0.51059640  1.00000000  1
  Si  Si0  1  0.89165430  0.60834570  0.50000000  1
  Si  Si1  1  0.60834570  0.10834570  0.71669040  1
  Si  Si2  1  0.10834570  0.39165430  0.50000000  1
  Si  Si3  1  0.25000000  0.25000000  0.00000000  1
  Si  Si4  1  0.39165430  0.89165430  0.28330960  1
  Bi  Bi0  1  0.75000000  0.75000000  0.00000000  1
loop_
_geom_bond_atom_site_label_1
_geom_bond_atom_site_label_2
_geom_bond_distance
_geom_bond_site_symmetry_2
Si0 Si2 2.515501 1_655
Si0 Sr1 3.210321 1_655
Si0 Sr6 3.210321 1_555
Si0 Sr2 3.305405 1_555
Si0 Sr0 3.305406 1_655
Si0 Sr7 3.316258 1_555
Si0 Sr8 3.316258 1_555
Si0 Sr9 3.339868 1_554
Si0 Sr3 3.339868 1_556
Si1 Si4 2.515490 1_545
Si1 Sr8 3.210315 1_545
Si1 Sr5 3.210326 1_555
Si1 Sr4 3.305389 1_555
Si1 Sr7 3.305399 1_545
Si1 Sr2 3.316258 1_556
Si1 Sr6 3.316258 1_556
Si1 Sr9 3.339870 1_555
Si1 Sr3 3.339871 1_546
Si2 Sr0 3.210332 1_555
Si2 Sr2 3.210332 1_455
Si2 Sr6 3.305394 1_455
Si2 Sr1 3.305395 1_555
Si2 Sr4 3.316258 1_555
Si2 Sr5 3.316258 1_555
Si2 Sr9 3.339868 1_555
Si2 Sr3 3.339868 1_445
Si3 Sr2 3.396644 1_455
Si3 Sr0 3.396644 1_554
Si3 Sr8 3.396649 1_444
Si3 Sr7 3.396649 1_555
Si3 Sr5 3.396650 1_554
Si3 Sr4 3.396650 1_555
Si3 Sr6 3.396652 1_555
Si3 Sr1 3.396652 1_544
Si4 Sr7 3.210316 1_555
Si4 Sr4 3.210326 1_565
Si4 Sr5 3.305389 1_565
Si4 Sr8 3.305399 1_555
Si4 Sr0 3.316258 1_554
Si4 Sr1 3.316258 1_554
Si4 Sr3 3.339870 1_455
Si4 Sr9 3.339871 1_554
Bi0 Sr0 3.600914 1_654
Bi0 Sr2 3.600914 1_555
Bi0 Sr5 3.600919 1_665
Bi0 Sr4 3.600919 1_554
Bi0 Sr8 3.600919 1_555
Bi0 Sr7 3.600919 1_554
Bi0 Sr1 3.600921 1_554
Bi0 Sr6 3.600921 1_565
Bi0 Sr3 3.781167 1_555
Bi0 Sr9 3.781167 1_554
