# generated using pymatgen
data_Li7Ti12O24
_symmetry_space_group_name_H-M   'P 1'
_cell_length_a   3.99850700
_cell_length_b   4.01908000
_cell_length_c   26.16326877
_cell_angle_alpha   89.95308289
_cell_angle_beta   90.00000000
_cell_angle_gamma   90.00000000
_symmetry_Int_Tables_number   1
_chemical_formula_structural   Li7Ti12O24
_chemical_formula_sum   'Li7 Ti12 O24'
_cell_volume   420.45194772
_cell_formula_units_Z   1
loop_
 _symmetry_equiv_pos_site_id
 _symmetry_equiv_pos_as_xyz
  1  'x, y, z'
loop_
 _atom_site_type_symbol
 _atom_site_label
 _atom_site_symmetry_multiplicity
 _atom_site_fract_x
 _atom_site_fract_y
 _atom_site_fract_z
 _atom_site_occupancy
  Li  Li0  1  0.50000000  0.74976700  0.95706400  1
  Li  Li1  1  0.00000000  0.75060500  0.87221300  1
  Li  Li2  1  0.50000000  0.24900700  0.70510600  1
  Li  Li3  1  0.00000000  0.75103000  0.54025300  1
  Li  Li4  1  0.50000000  0.74967900  0.28843300  1
  Li  Li5  1  0.50000000  0.24949600  0.37730100  1
  Li  Li6  1  0.00000000  0.24929600  0.11997600  1
  Ti  Ti0  1  0.50000000  0.25062300  0.86907000  1
  Ti  Ti1  1  0.00000000  0.75084700  0.71278400  1
  Ti  Ti2  1  0.00000000  0.24977600  0.96379900  1
  Ti  Ti3  1  0.50000000  0.24913800  0.53825400  1
  Ti  Ti4  1  0.50000000  0.75114700  0.79159300  1
  Ti  Ti5  1  0.00000000  0.74943400  0.38005800  1
  Ti  Ti6  1  0.00000000  0.27731600  0.62436100  1
  Ti  Ti7  1  0.50000000  0.24945100  0.20733100  1
  Ti  Ti8  1  0.50000000  0.74887800  0.45843000  1
  Ti  Ti9  1  0.00000000  0.74943200  0.03985300  1
  Ti  Ti10  1  0.00000000  0.24974300  0.28613200  1
  Ti  Ti11  1  0.50000000  0.74945800  0.12879100  1
  O  O0  1  0.50000000  0.75044300  0.87109300  1
  O  O1  1  0.50000000  0.24984800  0.95072900  1
  O  O2  1  0.00000000  0.24857800  0.70083400  1
  O  O3  1  0.00000000  0.75036800  0.78942900  1
  O  O4  1  0.00000000  0.25042100  0.88173900  1
  O  O5  1  0.00000000  0.74977700  0.96211900  1
  O  O6  1  0.50000000  0.74850500  0.53638400  1
  O  O7  1  0.50000000  0.24754800  0.61739800  1
  O  O8  1  0.50000000  0.74959700  0.71381300  1
  O  O9  1  0.50000000  0.25067600  0.79352800  1
  O  O10  1  0.00000000  0.24954500  0.36748700  1
  O  O11  1  0.00000000  0.74898400  0.45622900  1
  O  O12  1  0.00000000  0.24669400  0.54786800  1
  O  O13  1  0.00000000  0.74023800  0.63329800  1
  O  O14  1  0.50000000  0.74945300  0.20539100  1
  O  O15  1  0.50000000  0.24963000  0.28711800  1
  O  O16  1  0.50000000  0.74961800  0.37892800  1
  O  O17  1  0.50000000  0.24919400  0.46088200  1
  O  O18  1  0.00000000  0.24940500  0.03849700  1
  O  O19  1  0.00000000  0.74932500  0.11789000  1
  O  O20  1  0.00000000  0.24949300  0.21035100  1
  O  O21  1  0.00000000  0.74970700  0.29879000  1
  O  O22  1  0.50000000  0.74943700  0.04784800  1
  O  O23  1  0.50000000  0.24939400  0.12988700  1
loop_
_geom_bond_atom_site_label_1
_geom_bond_atom_site_label_2
_geom_bond_distance
_geom_bond_site_symmetry_2
Li0 O5 2.003623 1_655
Li0 O5 2.003623 1_555
Li0 O1 2.016174 1_555
Li0 O1 2.016553 1_565
Li0 O0 2.249282 1_555
Li0 O22 2.375205 1_556
Li1 O0 1.999468 1_555
Li1 O0 1.999468 1_455
Li1 O4 2.024405 1_565
Li1 O4 2.025468 1_555
Li1 O3 2.165901 1_555
Li1 O5 2.352234 1_555
Li2 O2 2.002376 1_555
Li2 O2 2.002376 1_655
Li2 O8 2.019869 1_545
Li2 O8 2.024952 1_555
Li2 O7 2.294740 1_555
Li2 O9 2.313424 1_555
Li3 O6 2.001841 1_455
Li3 O6 2.001841 1_555
Li3 O12 2.002214 1_565
Li3 O12 2.036572 1_555
Li3 O11 2.198365 1_555
Li3 O13 2.434712 1_555
Li4 O15 2.009609 1_565
Li4 O15 2.010060 1_555
Li4 O21 2.017533 1_555
Li4 O21 2.017533 1_655
Li4 O14 2.172651 1_555
Li4 O16 2.367645 1_555
Li5 O16 2.009466 1_545
Li5 O16 2.010516 1_555
Li5 O10 2.015674 1_655
Li5 O10 2.015674 1_555
Li5 O17 2.186752 1_555
Li5 O15 2.359482 1_555
Li6 O19 2.010209 1_545
Li6 O19 2.010353 1_555
Li6 O23 2.015999 1_455
Li6 O23 2.015999 1_555
Li6 O18 2.131757 1_555
Li6 O20 2.364506 1_555
O0 Ti0 2.009557 1_555
O0 Ti0 2.010917 1_565
O0 Ti4 2.079979 1_555
O1 Ti2 2.028287 1_655
O1 Ti2 2.028287 1_555
O1 Ti0 2.136466 1_555
O2 Ti6 2.004020 1_555
O2 Ti1 2.024453 1_545
O2 Ti1 2.042981 1_555
O3 Ti4 2.000058 1_555
O3 Ti4 2.000058 1_455
O3 Ti1 2.005283 1_555
O4 Ti0 2.026544 1_455
O4 Ti0 2.026544 1_555
O4 Ti2 2.146957 1_555
O5 Ti2 2.009989 1_555
O5 Ti2 2.010053 1_565
O5 Ti9 2.033775 1_556
O6 Ti3 2.007552 1_555
O6 Ti3 2.012719 1_565
O6 Ti8 2.039531 1_555
O7 Ti6 2.011107 1_655
O7 Ti6 2.011107 1_555
O7 Ti3 2.070670 1_555
O8 Ti1 1.999441 1_555
O8 Ti1 1.999441 1_655
O8 Ti4 2.034994 1_555
O9 Ti0 1.976425 1_555
O9 Ti4 2.008327 1_545
O9 Ti4 2.012029 1_555
O10 Ti5 2.036103 1_555
O10 Ti5 2.036452 1_545
O10 Ti10 2.128512 1_555
O11 Ti5 1.992882 1_555
O11 Ti8 2.000083 1_555
O11 Ti8 2.000083 1_455
O12 Ti6 2.005188 1_555
O12 Ti3 2.015038 1_555
O12 Ti3 2.015038 1_455
O13 Ti6 1.875346 1_555
O13 Ti1 2.080086 1_555
O13 Ti6 2.170996 1_565
O14 Ti11 2.004106 1_555
O14 Ti7 2.010147 1_555
O14 Ti7 2.010214 1_565
O15 Ti10 1.999420 1_655
O15 Ti10 1.999420 1_555
O15 Ti7 2.087489 1_555
O16 Ti5 1.999472 1_655
O16 Ti5 1.999472 1_555
O16 Ti8 2.080032 1_555
O17 Ti8 2.009242 1_555
O17 Ti8 2.011886 1_545
O17 Ti3 2.024304 1_555
O18 Ti2 1.954343 1_554
O18 Ti9 2.009716 1_545
O18 Ti9 2.009991 1_555
O19 Ti11 2.019494 1_455
O19 Ti11 2.019494 1_555
O19 Ti9 2.041703 1_555
O20 Ti10 1.982680 1_555
O20 Ti7 2.000814 1_455
O20 Ti7 2.000814 1_555
O21 Ti10 2.036521 1_565
O21 Ti10 2.036771 1_555
O21 Ti5 2.126236 1_555
O22 Ti9 2.010166 1_555
O22 Ti9 2.010166 1_655
O22 Ti11 2.117734 1_555
O23 Ti11 2.009511 1_545
O23 Ti11 2.009978 1_555
O23 Ti7 2.026188 1_555
