# generated using pymatgen
data_Ca21MgGa9Hg5
_symmetry_space_group_name_H-M   'P 1'
_cell_length_a   11.38100974
_cell_length_b   11.35079078
_cell_length_c   11.38101073
_cell_angle_alpha   60.08779597
_cell_angle_beta   59.82440176
_cell_angle_gamma   60.08779839
_symmetry_Int_Tables_number   1
_chemical_formula_structural   Ca21MgGa9Hg5
_chemical_formula_sum   'Ca21 Mg1 Ga9 Hg5'
_cell_volume   1039.60085433
_cell_formula_units_Z   1
loop_
 _symmetry_equiv_pos_site_id
 _symmetry_equiv_pos_as_xyz
  1  'x, y, z'
loop_
 _atom_site_type_symbol
 _atom_site_label
 _atom_site_symmetry_multiplicity
 _atom_site_fract_x
 _atom_site_fract_y
 _atom_site_fract_z
 _atom_site_occupancy
  Ca  Ca0  1  0.99842367  0.00157633  0.99842367  1
  Ca  Ca1  1  0.13136063  0.13193187  0.13136063  1
  Ca  Ca2  1  0.39465314  0.86863937  0.86806813  1
  Ca  Ca3  1  0.86633883  0.39278460  0.86633883  1
  Ca  Ca4  1  0.86806813  0.86863937  0.39465314  1
  Ca  Ca5  1  0.13136063  0.60534686  0.13136063  1
  Ca  Ca6  1  0.12546227  0.13366117  0.60721540  1
  Ca  Ca7  1  0.60721540  0.13366117  0.12546227  1
  Ca  Ca8  1  0.86633883  0.87453773  0.86633883  1
  Ca  Ca9  1  0.49986825  0.82945939  0.49986825  1
  Ca  Ca10  1  0.82759343  0.49524055  0.50475945  1
  Ca  Ca11  1  0.50000876  0.82741863  0.17258137  1
  Ca  Ca12  1  0.17054061  0.50013175  0.82919589  1
  Ca  Ca13  1  0.82919589  0.50013175  0.17054061  1
  Ca  Ca14  1  0.50475945  0.49524055  0.82759343  1
  Ca  Ca15  1  0.17258137  0.82741863  0.50000876  1
  Ca  Ca16  1  0.50475945  0.17240657  0.82759343  1
  Ca  Ca17  1  0.50000876  0.49999124  0.17258137  1
  Ca  Ca18  1  0.82759343  0.17240657  0.50475945  1
  Ca  Ca19  1  0.17258137  0.49999124  0.50000876  1
  Ca  Ca20  1  0.49986825  0.17080411  0.49986825  1
  Mg  Mg0  1  0.49881118  0.50118882  0.49881118  1
  Ga  Ga0  1  0.78531358  0.21468642  0.78531358  1
  Ga  Ga1  1  0.30894313  0.30846843  0.30894213  1
  Ga  Ga2  1  0.92635270  0.69105787  0.69153157  1
  Ga  Ga3  1  0.69125021  0.92533723  0.69125021  1
  Ga  Ga4  1  0.69153157  0.69105787  0.92635270  1
  Ga  Ga5  1  0.30894213  0.07364730  0.30894213  1
  Ga  Ga6  1  0.30783864  0.30874979  0.07466277  1
  Ga  Ga7  1  0.07466277  0.30874979  0.30783864  1
  Ga  Ga8  1  0.69125021  0.69216136  0.69124921  1
  Hg  Hg0  1  0.21245975  0.78754025  0.21245975  1
  Hg  Hg1  1  0.21433714  0.78566286  0.78769416  1
  Hg  Hg2  1  0.78769416  0.21230584  0.21433714  1
  Hg  Hg3  1  0.78769416  0.78566286  0.21433714  1
  Hg  Hg4  1  0.21433714  0.21230584  0.78769416  1
loop_
_geom_bond_atom_site_label_1
_geom_bond_atom_site_label_2
_geom_bond_distance
_geom_bond_site_symmetry_2
Ca0 Hg4 3.424586 1_655
Ca0 Hg3 3.424586 1_546
Ca0 Hg1 3.424586 1_645
Ca0 Hg2 3.424586 1_556
Ca0 Ga0 3.439129 1_555
Ca0 Hg0 3.454072 1_646
Ca1 Ga6 3.147129 1_555
Ca1 Ga7 3.147130 1_555
Ca1 Ga5 3.169589 1_555
Ca1 Hg2 3.257205 1_455
Ca1 Hg4 3.257205 1_554
Ca1 Hg0 3.262584 1_545
Ca2 Ga3 3.147119 1_555
Ca2 Ga8 3.147129 1_555
Ca2 Ga4 3.169589 1_555
Ca2 Hg1 3.257205 1_555
Ca2 Hg4 3.257205 1_565
Ca2 Hg0 3.262584 1_556
Ca3 Ga8 3.158165 1_555
Ca3 Ga2 3.179554 1_555
Ca3 Ga4 3.179555 1_555
Ca3 Ga0 3.218808 1_555
Ca3 Hg4 3.294984 1_655
Ca3 Hg2 3.294984 1_556
Ca4 Ga8 3.147119 1_555
Ca4 Ga3 3.147120 1_555
Ca4 Ga2 3.169589 1_555
Ca4 Hg2 3.257205 1_565
Ca4 Hg3 3.257205 1_555
Ca4 Hg0 3.262584 1_655
Ca5 Ga7 3.147120 1_555
Ca5 Ga6 3.147120 1_555
Ca5 Ga1 3.169594 1_555
Ca5 Hg3 3.257205 1_455
Ca5 Hg1 3.257205 1_554
Ca5 Hg0 3.262584 1_555
Ca6 Ga7 3.158156 1_555
Ca6 Ga5 3.179554 1_555
Ca6 Ga1 3.179559 1_555
Ca6 Ga0 3.218808 1_455
Ca6 Hg4 3.294984 1_555
Ca6 Hg1 3.294984 1_545
Ca7 Ga6 3.158156 1_555
Ca7 Ga1 3.179549 1_555
Ca7 Ga5 3.179554 1_555
Ca7 Ga0 3.218808 1_554
Ca7 Hg2 3.294984 1_555
Ca7 Hg3 3.294984 1_545
Ca8 Ga3 3.158165 1_555
Ca8 Ga4 3.179554 1_555
Ca8 Ga2 3.179555 1_555
Ca8 Ga0 3.218808 1_565
Ca8 Hg1 3.294984 1_655
Ca8 Hg3 3.294984 1_556
Ca9 Ga5 3.139880 1_565
Ca9 Ga8 3.148896 1_555
Ca9 Hg1 3.289892 1_555
Ca9 Hg3 3.289892 1_555
Ca9 Mg0 3.738168 1_555
Ca10 Ga8 3.141677 1_555
Ca10 Ga7 3.141688 1_655
Ca10 Ga0 3.226519 1_555
Ca10 Hg3 3.338731 1_555
Ca10 Mg0 3.742845 1_555
Ca11 Ga4 3.133745 1_554
Ca11 Ga5 3.133745 1_565
Ca11 Hg0 3.301534 1_555
Ca11 Hg3 3.310952 1_555
Ca11 Mg0 3.712778 1_555
Ca12 Ga2 3.139880 1_455
Ca12 Ga6 3.148914 1_556
Ca12 Hg1 3.289893 1_555
Ca12 Hg4 3.289893 1_555
Ca12 Mg0 3.738168 1_555
Ca13 Ga4 3.139880 1_554
Ca13 Ga7 3.148914 1_655
Ca13 Hg2 3.289893 1_555
Ca13 Hg3 3.289893 1_555
Ca13 Mg0 3.738168 1_555
Ca14 Ga8 3.141683 1_555
Ca14 Ga6 3.141688 1_556
Ca14 Ga0 3.226519 1_555
Ca14 Hg1 3.338731 1_555
Ca14 Mg0 3.742846 1_555
Ca15 Ga2 3.133745 1_455
Ca15 Ga5 3.133745 1_565
Ca15 Hg0 3.301535 1_555
Ca15 Hg1 3.310952 1_555
Ca15 Mg0 3.712778 1_555
Ca16 Ga6 3.141694 1_556
Ca16 Ga3 3.141695 1_545
Ca16 Ga0 3.226519 1_555
Ca16 Hg4 3.338731 1_555
Ca16 Mg0 3.742845 1_555
Ca17 Ga1 3.133736 1_555
Ca17 Ga4 3.133745 1_554
Ca17 Hg0 3.301535 1_555
Ca17 Hg2 3.310952 1_555
Ca17 Mg0 3.712778 1_555
Ca18 Ga7 3.141694 1_655
Ca18 Ga3 3.141694 1_545
Ca18 Ga0 3.226519 1_555
Ca18 Hg2 3.338731 1_555
Ca18 Mg0 3.742845 1_555
Ca19 Ga1 3.133743 1_555
Ca19 Ga2 3.133745 1_455
Ca19 Hg0 3.301535 1_555
Ca19 Hg4 3.310952 1_555
Ca19 Mg0 3.712777 1_555
Ca20 Ga1 3.139871 1_555
Ca20 Ga3 3.148907 1_545
Ca20 Hg2 3.289892 1_555
Ca20 Hg4 3.289892 1_555
Ca20 Mg0 3.738168 1_555
Ga1 Ga5 2.665411 1_555
Ga1 Ga6 2.671082 1_555
Ga1 Ga7 2.671087 1_555
Ga2 Ga4 2.665405 1_555
Ga2 Ga3 2.671082 1_555
Ga2 Ga8 2.671093 1_555
Ga3 Ga8 2.646736 1_555
Ga3 Ga4 2.671082 1_555
Ga4 Ga8 2.671099 1_555
Ga5 Ga7 2.671081 1_555
Ga5 Ga6 2.671081 1_555
Ga6 Ga7 2.646730 1_555
