# generated using pymatgen
data_Mg3ZrGe6Ir7
_symmetry_space_group_name_H-M   'P 1'
_cell_length_a   6.92439352
_cell_length_b   7.06461031
_cell_length_c   7.06461003
_cell_angle_alpha   109.86978113
_cell_angle_beta   109.06965681
_cell_angle_gamma   109.06965229
_symmetry_Int_Tables_number   1
_chemical_formula_structural   Mg3ZrGe6Ir7
_chemical_formula_sum   'Mg3 Zr1 Ge6 Ir7'
_cell_volume   267.34041328
_cell_formula_units_Z   1
loop_
 _symmetry_equiv_pos_site_id
 _symmetry_equiv_pos_as_xyz
  1  'x, y, z'
loop_
 _atom_site_type_symbol
 _atom_site_label
 _atom_site_symmetry_multiplicity
 _atom_site_fract_x
 _atom_site_fract_y
 _atom_site_fract_z
 _atom_site_occupancy
  Mg  Mg0  1  0.50000000  0.50000000  0.50000000  1
  Mg  Mg1  1  0.00000000  0.00000000  0.50000000  1
  Mg  Mg2  1  0.00000000  0.50000000  0.00000000  1
  Zr  Zr0  1  0.50000000  0.00000000  0.00000000  1
  Ge  Ge0  1  0.00781484  0.31393709  0.31393709  1
  Ge  Ge1  1  0.99218516  0.68606291  0.68606291  1
  Ge  Ge2  1  0.30612225  1.00000000  0.31393709  1
  Ge  Ge3  1  0.69387775  0.00000000  0.68606291  1
  Ge  Ge4  1  0.30612225  0.31393709  1.00000000  1
  Ge  Ge5  1  0.69387775  0.68606291  0.00000000  1
  Ir  Ir0  1  0.50000000  0.75060364  0.24939636  1
  Ir  Ir1  1  0.50000000  0.24939636  0.75060364  1
  Ir  Ir2  1  0.25060364  0.50120727  0.75060364  1
  Ir  Ir3  1  0.74939636  0.49879273  0.24939636  1
  Ir  Ir4  1  0.74939636  0.24939636  0.49879273  1
  Ir  Ir5  1  0.25060364  0.75060364  0.50120727  1
  Ir  Ir6  1  0.00000000  0.00000000  0.00000000  1
loop_
_geom_bond_atom_site_label_1
_geom_bond_atom_site_label_2
_geom_bond_distance
_geom_bond_site_symmetry_2
Ge0 Ir6 2.517952 1_555
Ge0 Ir2 2.544917 1_555
Ge0 Ir5 2.544917 1_555
Ge0 Ir3 2.552230 1_455
Ge0 Ir4 2.552230 1_455
Ge0 Mg0 2.835778 1_555
Ge0 Mg2 2.932461 1_555
Ge0 Mg1 2.932461 1_555
Ge0 Zr0 2.943917 1_455
Ge1 Ir6 2.517952 1_666
Ge1 Ir3 2.544917 1_555
Ge1 Ir4 2.544917 1_555
Ge1 Ir2 2.552230 1_655
Ge1 Ir5 2.552230 1_655
Ge1 Mg0 2.835778 1_555
Ge1 Mg2 2.932461 1_656
Ge1 Mg1 2.932461 1_665
Ge1 Zr0 2.943917 1_666
Ge2 Ir6 2.517952 1_565
Ge2 Ir5 2.544917 1_555
Ge2 Ir1 2.544917 1_565
Ge2 Ir0 2.552230 1_555
Ge2 Ir4 2.552230 1_565
Ge2 Mg1 2.835778 1_565
Ge2 Mg0 2.932461 1_565
Ge2 Mg2 2.932461 1_555
Ge2 Zr0 2.943917 1_565
Ge3 Ir6 2.517952 1_656
Ge3 Ir4 2.544917 1_555
Ge3 Ir0 2.544917 1_545
Ge3 Ir1 2.552230 1_555
Ge3 Ir5 2.552230 1_545
Ge3 Mg1 2.835778 1_655
Ge3 Mg0 2.932461 1_545
Ge3 Mg2 2.932461 1_656
Ge3 Zr0 2.943917 1_556
Ge4 Ir6 2.517952 1_556
Ge4 Ir2 2.544917 1_555
Ge4 Ir0 2.544917 1_556
Ge4 Ir1 2.552230 1_555
Ge4 Ir3 2.552230 1_556
Ge4 Mg2 2.835778 1_556
Ge4 Mg0 2.932461 1_556
Ge4 Mg1 2.932461 1_555
Ge4 Zr0 2.943917 1_556
Ge5 Ir6 2.517952 1_665
Ge5 Ir3 2.544917 1_555
Ge5 Ir1 2.544917 1_554
Ge5 Ir0 2.552230 1_555
Ge5 Ir2 2.552230 1_554
Ge5 Mg2 2.835778 1_655
Ge5 Mg0 2.932461 1_554
Ge5 Mg1 2.932461 1_665
Ge5 Zr0 2.943917 1_565
Ir0 Mg1 2.848482 1_665
Ir0 Mg2 2.848482 1_555
Ir0 Zr0 2.884210 1_565
Ir0 Mg0 2.898172 1_555
Ir1 Mg1 2.848482 1_555
Ir1 Mg2 2.848482 1_656
Ir1 Zr0 2.884210 1_556
Ir1 Mg0 2.898172 1_555
Ir2 Mg0 2.848481 1_555
Ir2 Mg2 2.848481 1_556
Ir2 Zr0 2.884210 1_566
Ir2 Mg1 2.898172 1_555
Ir3 Mg0 2.848481 1_555
Ir3 Mg2 2.848481 1_655
Ir3 Zr0 2.884210 1_555
Ir3 Mg1 2.898172 1_665
Ir4 Mg1 2.848481 1_655
Ir4 Mg0 2.848481 1_555
Ir4 Zr0 2.884210 1_555
Ir4 Mg2 2.898172 1_656
Ir5 Mg1 2.848481 1_565
Ir5 Mg0 2.848481 1_555
Ir5 Zr0 2.884210 1_566
Ir5 Mg2 2.898172 1_555
