# generated using pymatgen
data_Ba4ZrFe2WO12
_symmetry_space_group_name_H-M   'P 1'
_cell_length_a   10.04471915
_cell_length_b   10.04471967
_cell_length_c   10.04472064
_cell_angle_alpha   33.51078682
_cell_angle_beta   33.51078216
_cell_angle_gamma   33.51078876
_symmetry_Int_Tables_number   1
_chemical_formula_structural   Ba4ZrFe2WO12
_chemical_formula_sum   'Ba4 Zr1 Fe2 W1 O12'
_cell_volume   275.13712215
_cell_formula_units_Z   1
loop_
 _symmetry_equiv_pos_site_id
 _symmetry_equiv_pos_as_xyz
  1  'x, y, z'
loop_
 _atom_site_type_symbol
 _atom_site_label
 _atom_site_symmetry_multiplicity
 _atom_site_fract_x
 _atom_site_fract_y
 _atom_site_fract_z
 _atom_site_occupancy
  Ba  Ba0  1  0.62521015  0.62521015  0.62521015  1
  Ba  Ba1  1  0.12440418  0.12440418  0.12440418  1
  Ba  Ba2  1  0.87559582  0.87559582  0.87559582  1
  Ba  Ba3  1  0.37478985  0.37478985  0.37478985  1
  Zr  Zr0  1  0.50000000  0.50000000  0.50000000  1
  Fe  Fe0  1  0.24629160  0.24629160  0.24629160  1
  Fe  Fe1  1  0.75370840  0.75370840  0.75370840  1
  W  W0  1  0.00000000  0.00000000  0.00000000  1
  O  O0  1  0.11974845  0.11974845  0.64320785  1
  O  O1  1  0.62552227  0.62552227  0.11856527  1
  O  O2  1  0.37447773  0.88143473  0.37447773  1
  O  O3  1  0.88025155  0.35679215  0.88025155  1
  O  O4  1  0.64320785  0.11974845  0.11974845  1
  O  O5  1  0.11856527  0.62552227  0.62552227  1
  O  O6  1  0.37447773  0.37447773  0.88143473  1
  O  O7  1  0.88025155  0.88025155  0.35679215  1
  O  O8  1  0.11974845  0.64320785  0.11974845  1
  O  O9  1  0.62552227  0.11856527  0.62552227  1
  O  O10  1  0.88143473  0.37447773  0.37447773  1
  O  O11  1  0.35679215  0.88025155  0.88025155  1
loop_
_geom_bond_atom_site_label_1
_geom_bond_atom_site_label_2
_geom_bond_distance
_geom_bond_site_symmetry_2
Ba0 O6 2.875625 1_555
Ba0 O10 2.875625 1_555
Ba0 O2 2.875626 1_555
Ba0 O7 2.881518 1_555
Ba0 O11 2.881519 1_555
Ba0 O3 2.881519 1_555
Ba0 O8 2.897593 1_655
Ba0 O8 2.897593 1_556
Ba0 O0 2.897593 1_565
Ba0 O0 2.897593 1_655
Ba0 O4 2.897593 1_565
Ba0 O4 2.897593 1_556
Ba1 O9 2.896050 1_455
Ba1 O9 2.896050 1_554
Ba1 O1 2.896051 1_545
Ba1 O1 2.896051 1_455
Ba1 O5 2.896051 1_545
Ba1 O5 2.896051 1_554
Ba1 O7 2.900830 1_445
Ba1 O3 2.900831 1_454
Ba1 O11 2.900831 1_544
Ba1 O6 2.941382 1_554
Ba1 O10 2.941382 1_455
Ba1 O2 2.941382 1_545
Ba2 O2 2.896050 1_655
Ba2 O2 2.896050 1_556
Ba2 O6 2.896051 1_565
Ba2 O6 2.896051 1_655
Ba2 O10 2.896051 1_565
Ba2 O10 2.896051 1_556
Ba2 O0 2.900830 1_665
Ba2 O8 2.900831 1_656
Ba2 O4 2.900831 1_566
Ba2 O1 2.941382 1_556
Ba2 O5 2.941382 1_655
Ba2 O9 2.941382 1_565
Ba3 O1 2.875625 1_555
Ba3 O5 2.875625 1_555
Ba3 O9 2.875626 1_555
Ba3 O0 2.881518 1_555
Ba3 O4 2.881519 1_555
Ba3 O8 2.881519 1_555
Ba3 O3 2.897593 1_455
Ba3 O3 2.897593 1_554
Ba3 O7 2.897593 1_545
Ba3 O7 2.897593 1_455
Ba3 O11 2.897593 1_545
Ba3 O11 2.897593 1_554
Fe0 O10 1.942614 1_455
Fe0 O2 1.942614 1_545
Fe0 O6 1.942615 1_554
Fe0 O4 2.218002 1_555
Fe0 O8 2.218002 1_555
Fe0 O0 2.218002 1_555
Fe1 O5 1.942614 1_655
Fe1 O9 1.942614 1_565
Fe1 O1 1.942615 1_556
Fe1 O11 2.218002 1_555
Fe1 O3 2.218002 1_555
Fe1 O7 2.218002 1_555
O0 W0 1.942505 1_556
O1 Zr0 2.097325 1_555
O2 Zr0 2.097325 1_555
O3 W0 1.942505 1_656
O4 W0 1.942505 1_655
O5 Zr0 2.097325 1_555
O6 Zr0 2.097325 1_555
O7 W0 1.942505 1_665
O8 W0 1.942505 1_565
O9 Zr0 2.097325 1_555
O10 Zr0 2.097325 1_555
O11 W0 1.942505 1_566
