# generated using pymatgen
data_YTa4(NbCl9)2
_symmetry_space_group_name_H-M   'P 1'
_cell_length_a   10.08588085
_cell_length_b   10.09088097
_cell_length_c   10.08718694
_cell_angle_alpha   55.65107023
_cell_angle_beta   55.67617461
_cell_angle_gamma   55.64977421
_symmetry_Int_Tables_number   1
_chemical_formula_structural   YTa4(NbCl9)2
_chemical_formula_sum   'Y1 Ta4 Nb2 Cl18'
_cell_volume   652.81867966
_cell_formula_units_Z   1
loop_
 _symmetry_equiv_pos_site_id
 _symmetry_equiv_pos_as_xyz
  1  'x, y, z'
loop_
 _atom_site_type_symbol
 _atom_site_label
 _atom_site_symmetry_multiplicity
 _atom_site_fract_x
 _atom_site_fract_y
 _atom_site_fract_z
 _atom_site_occupancy
  Y  Y0  1  0.99963400  0.99959611  0.00080365  1
  Ta  Ta0  1  0.40970128  0.30028525  0.64965416  1
  Ta  Ta1  1  0.35049042  0.59071454  0.69942592  1
  Ta  Ta2  1  0.70108433  0.34941697  0.59045527  1
  Ta  Ta3  1  0.29960950  0.65063029  0.40862659  1
  Nb  Nb0  1  0.65112188  0.40934290  0.29839022  1
  Nb  Nb1  1  0.59138829  0.70106224  0.34865830  1
  Cl  Cl0  1  0.56846985  0.15807088  0.44470610  1
  Cl  Cl1  1  0.22178236  0.36999460  0.91022553  1
  Cl  Cl2  1  0.91283210  0.21971630  0.37179801  1
  Cl  Cl3  1  0.36584609  0.91197062  0.22117194  1
  Cl  Cl4  1  0.78070703  0.63208776  0.08516873  1
  Cl  Cl5  1  0.08963930  0.77813684  0.63021290  1
  Cl  Cl6  1  0.70054429  0.96317000  0.15916560  1
  Cl  Cl7  1  0.95874094  0.15842485  0.70126391  1
  Cl  Cl8  1  0.16066553  0.69969499  0.95845020  1
  Cl  Cl9  1  0.29886339  0.04252310  0.84047906  1
  Cl  Cl10  1  0.03936513  0.83884523  0.30169411  1
  Cl  Cl11  1  0.84247314  0.29830969  0.03728124  1
  Cl  Cl12  1  0.55896960  0.42925708  0.83950791  1
  Cl  Cl13  1  0.16026873  0.44161651  0.57057789  1
  Cl  Cl14  1  0.43759402  0.57282210  0.16005159  1
  Cl  Cl15  1  0.42750003  0.83971515  0.56194924  1
  Cl  Cl16  1  0.84249153  0.55497501  0.43153646  1
  Cl  Cl17  1  0.63021723  0.08961798  0.77874546  1
loop_
_geom_bond_atom_site_label_1
_geom_bond_atom_site_label_2
_geom_bond_distance
_geom_bond_site_symmetry_2
Cl0 Ta0 2.432864 1_555
Cl0 Nb0 2.465170 1_555
Cl1 Ta0 2.441212 1_555
Cl1 Ta1 2.443933 1_555
Cl2 Ta2 2.435131 1_555
Cl2 Nb0 2.466292 1_555
Cl3 Ta3 2.431616 1_555
Cl3 Nb1 2.470824 1_555
Cl4 Nb1 2.461529 1_555
Cl4 Nb0 2.464942 1_555
Cl5 Ta1 2.439731 1_555
Cl5 Ta3 2.443065 1_555
Cl6 Y0 2.634584 1_555
Cl6 Nb1 2.658755 1_555
Cl7 Ta2 2.628643 1_555
Cl7 Y0 2.657638 1_546
Cl8 Ta1 2.631882 1_555
Cl8 Y0 2.666168 1_456
Cl9 Ta0 2.631554 1_555
Cl9 Y0 2.663055 1_446
Cl10 Ta3 2.629741 1_555
Cl10 Y0 2.661984 1_455
Cl11 Y0 2.633587 1_545
Cl11 Nb0 2.659816 1_555
Cl12 Ta2 2.436157 1_555
Cl12 Ta1 2.441148 1_555
Cl13 Ta0 2.435075 1_555
Cl13 Ta3 2.441306 1_555
Cl14 Ta3 2.427682 1_555
Cl14 Nb0 2.467564 1_555
Cl15 Ta1 2.428035 1_555
Cl15 Nb1 2.468852 1_555
Cl16 Ta2 2.431928 1_555
Cl16 Nb1 2.463720 1_555
Cl17 Ta2 2.440452 1_555
Cl17 Ta0 2.442969 1_555
