# generated using pymatgen
data_K3SeClF6
_symmetry_space_group_name_H-M   'P 1'
_cell_length_a   8.17910460
_cell_length_b   8.17910460
_cell_length_c   5.96497293
_cell_angle_alpha   90.00000000
_cell_angle_beta   90.00000000
_cell_angle_gamma   90.00000000
_symmetry_Int_Tables_number   1
_chemical_formula_structural   K3SeClF6
_chemical_formula_sum   'K6 Se2 Cl2 F12'
_cell_volume   399.04328033
_cell_formula_units_Z   2
loop_
 _symmetry_equiv_pos_site_id
 _symmetry_equiv_pos_as_xyz
  1  'x, y, z'
loop_
 _atom_site_type_symbol
 _atom_site_label
 _atom_site_symmetry_multiplicity
 _atom_site_fract_x
 _atom_site_fract_y
 _atom_site_fract_z
 _atom_site_occupancy
  K  K0  1  0.67761484  0.17761484  0.50000000  1
  K  K1  1  0.82238516  0.67761484  0.50000000  1
  K  K2  1  0.50000000  0.50000000  0.00000000  1
  K  K3  1  0.17761484  0.32238516  0.50000000  1
  K  K4  1  0.32238516  0.82238516  0.50000000  1
  K  K5  1  0.00000000  0.00000000  0.00000000  1
  Se  Se0  1  0.50000000  0.00000000  0.00000000  1
  Se  Se1  1  0.00000000  0.50000000  0.00000000  1
  Cl  Cl0  1  0.50000000  0.50000000  0.50000000  1
  Cl  Cl1  1  0.00000000  0.00000000  0.50000000  1
  F  F0  1  0.88541343  0.38541343  0.24003705  1
  F  F1  1  0.61458657  0.88541343  0.75996295  1
  F  F2  1  0.16804804  0.33195196  0.00000000  1
  F  F3  1  0.88541343  0.38541343  0.75996295  1
  F  F4  1  0.38541343  0.11458657  0.75996295  1
  F  F5  1  0.83195196  0.66804804  0.00000000  1
  F  F6  1  0.11458657  0.61458657  0.24003705  1
  F  F7  1  0.66804804  0.16804804  0.00000000  1
  F  F8  1  0.61458657  0.88541343  0.24003705  1
  F  F9  1  0.38541343  0.11458657  0.24003705  1
  F  F10  1  0.11458657  0.61458657  0.75996295  1
  F  F11  1  0.33195196  0.83195196  0.00000000  1
loop_
_geom_bond_atom_site_label_1
_geom_bond_atom_site_label_2
_geom_bond_distance
_geom_bond_site_symmetry_2
Cl0 K2 2.982486 1_556
Cl0 K2 2.982486 1_555
Cl0 K3 3.010524 1_555
Cl0 K0 3.010524 1_555
Cl0 K4 3.010524 1_555
Cl0 K1 3.010524 1_555
Cl1 K5 2.982486 1_556
Cl1 K5 2.982486 1_555
Cl1 K4 3.010524 1_545
Cl1 K3 3.010524 1_555
Cl1 K1 3.010524 1_445
Cl1 K0 3.010524 1_455
F0 Se1 1.951112 1_655
F0 K0 2.860403 1_555
F0 K3 2.895200 1_655
F0 K1 2.895200 1_555
F1 Se0 1.951112 1_566
F1 K1 2.860403 1_555
F1 K4 2.895200 1_555
F1 K0 2.895200 1_565
F2 Se1 1.943812 1_555
F2 K3 2.984539 1_555
F2 K3 2.984539 1_554
F2 K5 3.043157 1_555
F2 K2 3.043157 1_555
F3 Se1 1.951112 1_656
F3 K0 2.860403 1_555
F3 K3 2.895200 1_655
F3 K1 2.895200 1_555
F4 Se0 1.951112 1_556
F4 K3 2.860403 1_555
F4 K4 2.895200 1_545
F4 K0 2.895200 1_555
F5 Se1 1.943812 1_655
F5 K1 2.984539 1_555
F5 K1 2.984539 1_554
F5 K2 3.043157 1_555
F5 K5 3.043157 1_665
F6 Se1 1.951112 1_555
F6 K4 2.860403 1_555
F6 K1 2.895200 1_455
F6 K3 2.895200 1_555
F7 Se0 1.943812 1_555
F7 K0 2.984539 1_554
F7 K0 2.984539 1_555
F7 K2 3.043157 1_555
F7 K5 3.043157 1_655
F8 Se0 1.951112 1_565
F8 K1 2.860403 1_555
F8 K4 2.895200 1_555
F8 K0 2.895200 1_565
F9 Se0 1.951112 1_555
F9 K3 2.860403 1_555
F9 K4 2.895200 1_545
F9 K0 2.895200 1_555
F10 Se1 1.951112 1_556
F10 K4 2.860403 1_555
F10 K1 2.895200 1_455
F10 K3 2.895200 1_555
F11 Se0 1.943812 1_565
F11 K4 2.984539 1_555
F11 K4 2.984539 1_554
F11 K5 3.043157 1_565
F11 K2 3.043157 1_555
