# generated using pymatgen
data_Ca2AsBrO4
_symmetry_space_group_name_H-M   'P 1'
_cell_length_a   6.28522925
_cell_length_b   7.16474752
_cell_length_c   11.22321951
_cell_angle_alpha   90.00000000
_cell_angle_beta   90.00000000
_cell_angle_gamma   90.00000000
_symmetry_Int_Tables_number   1
_chemical_formula_structural   Ca2AsBrO4
_chemical_formula_sum   'Ca8 As4 Br4 O16'
_cell_volume   505.40492636
_cell_formula_units_Z   4
loop_
 _symmetry_equiv_pos_site_id
 _symmetry_equiv_pos_as_xyz
  1  'x, y, z'
loop_
 _atom_site_type_symbol
 _atom_site_label
 _atom_site_symmetry_multiplicity
 _atom_site_fract_x
 _atom_site_fract_y
 _atom_site_fract_z
 _atom_site_occupancy
  Ca  Ca0  1  0.87956293  0.97761690  0.25000000  1
  Ca  Ca1  1  0.12043707  0.02238310  0.75000000  1
  Ca  Ca2  1  0.12043707  0.47761690  0.25000000  1
  Ca  Ca3  1  0.87956293  0.52238310  0.75000000  1
  Ca  Ca4  1  0.62014538  0.25000000  0.50000000  1
  Ca  Ca5  1  0.62014538  0.25000000  0.00000000  1
  Ca  Ca6  1  0.37985462  0.75000000  0.50000000  1
  Ca  Ca7  1  0.37985462  0.75000000  0.00000000  1
  As  As0  1  0.12180844  0.25000000  0.00000000  1
  As  As1  1  0.87819156  0.75000000  0.50000000  1
  As  As2  1  0.12180844  0.25000000  0.50000000  1
  As  As3  1  0.87819156  0.75000000  0.00000000  1
  Br  Br0  1  0.54874854  0.65333837  0.25000000  1
  Br  Br1  1  0.45125146  0.15333837  0.25000000  1
  Br  Br2  1  0.54874854  0.84666163  0.75000000  1
  Br  Br3  1  0.45125146  0.34666163  0.75000000  1
  O  O0  1  0.95805366  0.26068606  0.62149083  1
  O  O1  1  0.28470897  0.06714674  0.52829634  1
  O  O2  1  0.28470897  0.43285326  0.02829634  1
  O  O3  1  0.28470897  0.43285326  0.47170366  1
  O  O4  1  0.71529103  0.56714674  0.52829634  1
  O  O5  1  0.04194634  0.73931394  0.37850917  1
  O  O6  1  0.95805366  0.23931394  0.12149083  1
  O  O7  1  0.04194634  0.76068606  0.62149083  1
  O  O8  1  0.04194634  0.73931394  0.12149083  1
  O  O9  1  0.04194634  0.76068606  0.87850917  1
  O  O10  1  0.95805366  0.23931394  0.37850917  1
  O  O11  1  0.28470897  0.06714674  0.97170366  1
  O  O12  1  0.71529103  0.93285326  0.47170366  1
  O  O13  1  0.71529103  0.56714674  0.97170366  1
  O  O14  1  0.71529103  0.93285326  0.02829634  1
  O  O15  1  0.95805366  0.26068606  0.87850917  1
loop_
_geom_bond_atom_site_label_1
_geom_bond_atom_site_label_2
_geom_bond_distance
_geom_bond_site_symmetry_2
Ca0 O10 2.416437 1_565
Ca0 O6 2.416437 1_565
Ca0 O5 2.457030 1_655
Ca0 O8 2.457030 1_655
Ca0 O12 2.712964 1_555
Ca0 O14 2.712964 1_555
Ca1 O9 2.416437 1_545
Ca1 O7 2.416437 1_545
Ca1 O15 2.457030 1_455
Ca1 O0 2.457030 1_455
Ca1 O11 2.712964 1_555
Ca1 O1 2.712964 1_555
Ca2 O5 2.416437 1_555
Ca2 O8 2.416437 1_555
Ca2 O10 2.457030 1_455
Ca2 O6 2.457030 1_455
Ca2 O3 2.712964 1_555
Ca2 O2 2.712964 1_555
Ca3 O15 2.416437 1_555
Ca3 O0 2.416437 1_555
Ca3 O9 2.457030 1_655
Ca3 O7 2.457030 1_655
Ca3 O13 2.712964 1_555
Ca3 O4 2.712964 1_555
Ca4 O4 2.371015 1_555
Ca4 O12 2.371015 1_545
Ca4 O3 2.502422 1_555
Ca4 O1 2.502422 1_555
Ca4 O0 2.525015 1_555
Ca4 O10 2.525015 1_555
Ca5 O13 2.371015 1_554
Ca5 O14 2.371015 1_545
Ca5 O2 2.502422 1_555
Ca5 O11 2.502422 1_554
Ca5 O6 2.525015 1_555
Ca5 O15 2.525015 1_554
Ca6 O1 2.371015 1_565
Ca6 O3 2.371015 1_555
Ca6 O12 2.502422 1_555
Ca6 O4 2.502422 1_555
Ca6 O7 2.525015 1_555
Ca6 O5 2.525015 1_555
Ca7 O11 2.371015 1_564
Ca7 O2 2.371015 1_555
Ca7 O14 2.502422 1_555
Ca7 O13 2.502422 1_554
Ca7 O8 2.525015 1_555
Ca7 O9 2.525015 1_554
As0 O2 1.692783 1_555
As0 O11 1.692783 1_554
As0 O6 1.710079 1_455
As0 O15 1.710079 1_454
As1 O12 1.692783 1_555
As1 O4 1.692783 1_555
As1 O7 1.710079 1_655
As1 O5 1.710079 1_655
As2 O3 1.692783 1_555
As2 O1 1.692783 1_555
As2 O0 1.710079 1_455
As2 O10 1.710079 1_455
As3 O14 1.692783 1_555
As3 O13 1.692783 1_554
As3 O8 1.710079 1_655
As3 O9 1.710079 1_654
Br0 Ca2 2.971891 1_555
Br0 Ca7 3.078804 1_555
Br0 Ca6 3.078804 1_555
Br0 Ca0 3.117904 1_555
Br1 Ca0 2.971891 1_545
Br1 Ca5 3.078804 1_555
Br1 Ca4 3.078804 1_555
Br1 Ca2 3.117904 1_555
Br2 Ca1 2.971891 1_565
Br2 Ca7 3.078804 1_556
Br2 Ca6 3.078804 1_555
Br2 Ca3 3.117904 1_555
Br3 Ca3 2.971891 1_555
Br3 Ca5 3.078804 1_556
Br3 Ca4 3.078804 1_555
Br3 Ca1 3.117904 1_555
