# generated using pymatgen
data_YInRh
_symmetry_space_group_name_H-M   'P 1'
_cell_length_a   7.47181110
_cell_length_b   7.47180953
_cell_length_c   3.94354063
_cell_angle_alpha   90.00000000
_cell_angle_beta   90.00000000
_cell_angle_gamma   119.99999341
_symmetry_Int_Tables_number   1
_chemical_formula_structural   YInRh
_chemical_formula_sum   'Y3 In3 Rh3'
_cell_volume   190.66398082
_cell_formula_units_Z   3
loop_
 _symmetry_equiv_pos_site_id
 _symmetry_equiv_pos_as_xyz
  1  'x, y, z'
loop_
 _atom_site_type_symbol
 _atom_site_label
 _atom_site_symmetry_multiplicity
 _atom_site_fract_x
 _atom_site_fract_y
 _atom_site_fract_z
 _atom_site_occupancy
  Y  Y0  1  -0.00000000  0.59300188  0.50000000  1
  Y  Y1  1  0.40699812  0.40699812  0.50000000  1
  Y  Y2  1  0.59300188  0.00000000  0.50000000  1
  In  In0  1  0.00000000  0.25519126  0.00000000  1
  In  In1  1  0.25519126  -0.00000000  -0.00000000  1
  In  In2  1  0.74480874  0.74480874  -0.00000000  1
  Rh  Rh0  1  0.33333300  0.66666700  0.00000000  1
  Rh  Rh1  1  -0.00000000  0.00000000  0.50000000  1
  Rh  Rh2  1  0.66666700  0.33333300  -0.00000000  1
loop_
_geom_bond_atom_site_label_1
_geom_bond_atom_site_label_2
_geom_bond_distance
_geom_bond_site_symmetry_2
In0 Rh1 2.742907 1_555
In0 Rh1 2.742907 1_554
In0 Rh2 2.828100 1_455
In0 Rh0 2.828105 1_555
In0 Y0 3.202927 1_554
In0 Y0 3.202927 1_555
In0 Y2 3.312533 1_455
In0 Y2 3.312533 1_454
In0 Y1 3.312533 1_555
In0 Y1 3.312533 1_554
In1 Rh1 2.742907 1_555
In1 Rh1 2.742907 1_554
In1 Rh0 2.828100 1_545
In1 Rh2 2.828105 1_555
In1 Y2 3.202927 1_554
In1 Y2 3.202927 1_555
In1 Y1 3.312533 1_555
In1 Y1 3.312533 1_554
In1 Y0 3.312533 1_545
In1 Y0 3.312533 1_544
In2 Rh1 2.742907 1_664
In2 Rh1 2.742907 1_665
In2 Rh2 2.828107 1_555
In2 Rh0 2.828108 1_555
In2 Y1 3.202927 1_555
In2 Y1 3.202927 1_554
In2 Y2 3.312533 1_565
In2 Y2 3.312533 1_564
In2 Y0 3.312533 1_655
In2 Y0 3.312533 1_654
Rh0 Y0 3.003842 1_555
Rh0 Y0 3.003842 1_554
Rh0 Y2 3.003844 1_565
Rh0 Y2 3.003844 1_564
Rh0 Y1 3.003848 1_555
Rh0 Y1 3.003848 1_554
Rh1 Y0 3.041012 1_545
Rh1 Y1 3.041013 1_555
Rh1 Y2 3.041013 1_455
Rh2 Y2 3.003842 1_555
Rh2 Y2 3.003842 1_554
Rh2 Y0 3.003844 1_655
Rh2 Y0 3.003844 1_654
Rh2 Y1 3.003848 1_555
Rh2 Y1 3.003848 1_554
