# generated using pymatgen
data_YHf2Al7Pd2
_symmetry_space_group_name_H-M   'P 1'
_cell_length_a   8.93260331
_cell_length_b   8.93260233
_cell_length_c   8.93260294
_cell_angle_alpha   34.67945444
_cell_angle_beta   34.67946202
_cell_angle_gamma   34.67945778
_symmetry_Int_Tables_number   1
_chemical_formula_structural   YHf2Al7Pd2
_chemical_formula_sum   'Y1 Hf2 Al7 Pd2'
_cell_volume   205.91683545
_cell_formula_units_Z   1
loop_
 _symmetry_equiv_pos_site_id
 _symmetry_equiv_pos_as_xyz
  1  'x, y, z'
loop_
 _atom_site_type_symbol
 _atom_site_label
 _atom_site_symmetry_multiplicity
 _atom_site_fract_x
 _atom_site_fract_y
 _atom_site_fract_z
 _atom_site_occupancy
  Y  Y0  1  0.00000000  0.00000000  0.00000000  1
  Hf  Hf0  1  0.85462978  0.85462978  0.85462978  1
  Hf  Hf1  1  0.14537022  0.14537022  0.14537022  1
  Al  Al0  1  0.41333546  0.41333546  0.92381420  1
  Al  Al1  1  0.92381420  0.41333546  0.41333546  1
  Al  Al2  1  0.41333546  0.92381420  0.41333546  1
  Al  Al3  1  0.50000000  0.50000000  0.50000000  1
  Al  Al4  1  0.58666454  0.07618580  0.58666454  1
  Al  Al5  1  0.07618580  0.58666454  0.58666454  1
  Al  Al6  1  0.58666454  0.58666454  0.07618580  1
  Pd  Pd0  1  0.66530603  0.66530603  0.66530603  1
  Pd  Pd1  1  0.33469397  0.33469397  0.33469397  1
loop_
_geom_bond_atom_site_label_1
_geom_bond_atom_site_label_2
_geom_bond_distance
_geom_bond_site_symmetry_2
Hf0 Hf1 3.255541 1_656
Hf0 Hf1 3.255542 1_665
Hf0 Hf1 3.255542 1_566
Hf0 Y0 3.657649 1_666
Hf1 Y0 3.657649 1_555
Al0 Pd0 2.588388 1_555
Al0 Pd1 2.605432 1_556
Al0 Al2 2.606450 1_546
Al0 Al1 2.606451 1_456
Al0 Al3 2.622211 1_555
Al0 Al2 2.718038 1_555
Al0 Al1 2.718039 1_555
Al0 Hf1 3.035861 1_556
Al0 Hf0 3.088321 1_545
Al0 Hf0 3.088321 1_455
Al0 Y0 3.386424 1_566
Al0 Y0 3.386425 1_656
Al1 Pd0 2.588388 1_555
Al1 Pd1 2.605432 1_655
Al1 Al2 2.606451 1_645
Al1 Al3 2.622211 1_555
Al1 Al2 2.718039 1_555
Al1 Hf1 3.035861 1_655
Al1 Hf0 3.088321 1_545
Al1 Hf0 3.088321 1_554
Al1 Y0 3.386424 1_665
Al1 Y0 3.386425 1_656
Al2 Pd0 2.588388 1_555
Al2 Pd1 2.605431 1_565
Al2 Al3 2.622211 1_555
Al2 Hf1 3.035861 1_565
Al2 Hf0 3.088321 1_554
Al2 Hf0 3.088322 1_455
Al2 Y0 3.386425 1_566
Al2 Y0 3.386425 1_665
Al3 Al4 2.622211 1_555
Al3 Al6 2.622211 1_555
Al3 Al5 2.622211 1_555
Al3 Hf0 3.120446 1_545
Al3 Hf1 3.120446 1_565
Al3 Hf0 3.120446 1_554
Al3 Hf1 3.120446 1_556
Al3 Hf0 3.120447 1_455
Al3 Hf1 3.120447 1_655
Al4 Pd1 2.588388 1_555
Al4 Pd0 2.605431 1_545
Al4 Al6 2.606450 1_546
Al4 Al5 2.606451 1_645
Al4 Al6 2.718038 1_555
Al4 Al5 2.718039 1_555
Al4 Hf0 3.035861 1_545
Al4 Hf1 3.088321 1_556
Al4 Hf1 3.088322 1_655
Al4 Y0 3.386425 1_655
Al4 Y0 3.386425 1_556
Al5 Pd1 2.588388 1_555
Al5 Pd0 2.605432 1_455
Al5 Al6 2.606451 1_456
Al5 Al6 2.718039 1_555
Al5 Hf0 3.035861 1_455
Al5 Hf1 3.088321 1_565
Al5 Hf1 3.088321 1_556
Al5 Y0 3.386424 1_556
Al5 Y0 3.386425 1_565
Al6 Pd1 2.588388 1_555
Al6 Pd0 2.605432 1_554
Al6 Hf0 3.035861 1_554
Al6 Hf1 3.088321 1_565
Al6 Hf1 3.088321 1_655
Al6 Y0 3.386424 1_655
Al6 Y0 3.386425 1_565
Pd0 Y0 3.074286 1_656
Pd0 Y0 3.074286 1_665
Pd0 Y0 3.074286 1_566
Pd0 Pd1 3.074857 1_565
Pd0 Pd1 3.074858 1_556
Pd0 Pd1 3.074858 1_655
Pd1 Y0 3.074286 1_565
Pd1 Y0 3.074286 1_556
Pd1 Y0 3.074286 1_655
