# generated using pymatgen
data_Na2Al2Sb3
_symmetry_space_group_name_H-M   'P 1'
_cell_length_a   7.26372344
_cell_length_b   14.14555230
_cell_length_c   15.40943097
_cell_angle_alpha   89.69004237
_cell_angle_beta   90.00000000
_cell_angle_gamma   90.00000000
_symmetry_Int_Tables_number   1
_chemical_formula_structural   Na2Al2Sb3
_chemical_formula_sum   'Na16 Al16 Sb24'
_cell_volume   1583.28630663
_cell_formula_units_Z   8
loop_
 _symmetry_equiv_pos_site_id
 _symmetry_equiv_pos_as_xyz
  1  'x, y, z'
loop_
 _atom_site_type_symbol
 _atom_site_label
 _atom_site_symmetry_multiplicity
 _atom_site_fract_x
 _atom_site_fract_y
 _atom_site_fract_z
 _atom_site_occupancy
  Na  Na0  1  0.93380414  0.56059438  0.90105146  1
  Na  Na1  1  0.56619586  0.56059438  0.40105146  1
  Na  Na2  1  0.06619586  0.43940562  0.09894854  1
  Na  Na3  1  0.43380414  0.43940562  0.59894854  1
  Na  Na4  1  0.95903517  0.08044463  0.61271260  1
  Na  Na5  1  0.45903517  0.91955537  0.88728740  1
  Na  Na6  1  0.04096483  0.91955537  0.38728740  1
  Na  Na7  1  0.54096483  0.08044463  0.11271260  1
  Na  Na8  1  0.93284820  0.35194494  0.52024914  1
  Na  Na9  1  0.43284820  0.64805506  0.97975086  1
  Na  Na10  1  0.06715180  0.64805506  0.47975086  1
  Na  Na11  1  0.56715180  0.35194494  0.02024914  1
  Na  Na12  1  0.54696265  0.86433644  0.48853806  1
  Na  Na13  1  0.04696265  0.13566356  0.01146194  1
  Na  Na14  1  0.45303735  0.13566356  0.51146194  1
  Na  Na15  1  0.95303735  0.86433644  0.98853806  1
  Al  Al0  1  0.28895794  0.31261435  0.83848229  1
  Al  Al1  1  0.22933123  0.59197639  0.23838710  1
  Al  Al2  1  0.27066877  0.59197639  0.73838710  1
  Al  Al3  1  0.77066877  0.40802361  0.76161290  1
  Al  Al4  1  0.73489224  0.18876536  0.33133853  1
  Al  Al5  1  0.23489224  0.81123464  0.16866147  1
  Al  Al6  1  0.26510776  0.81123464  0.66866147  1
  Al  Al7  1  0.76510776  0.18876536  0.83133853  1
  Al  Al8  1  0.70854768  0.90576351  0.22887433  1
  Al  Al9  1  0.20854768  0.09423649  0.27112567  1
  Al  Al10  1  0.29145232  0.09423649  0.77112567  1
  Al  Al11  1  0.79145232  0.90576351  0.72887433  1
  Al  Al12  1  0.78895794  0.68738565  0.66151771  1
  Al  Al13  1  0.21104206  0.31261435  0.33848229  1
  Al  Al14  1  0.71104206  0.68738565  0.16151771  1
  Al  Al15  1  0.72933123  0.40802361  0.26161290  1
  Sb  Sb0  1  0.45326501  0.15758440  0.91800178  1
  Sb  Sb1  1  0.46834758  0.97063634  0.66856820  1
  Sb  Sb2  1  0.03165242  0.97063634  0.16856820  1
  Sb  Sb3  1  0.53165242  0.02936366  0.33143180  1
  Sb  Sb4  1  0.96834758  0.02936366  0.83143180  1
  Sb  Sb5  1  0.95326501  0.84241560  0.58199822  1
  Sb  Sb6  1  0.54673499  0.84241560  0.08199822  1
  Sb  Sb7  1  0.04673499  0.15758440  0.41800178  1
  Sb  Sb8  1  0.95194252  0.33775773  0.90346907  1
  Sb  Sb9  1  0.45194252  0.66224227  0.59653093  1
  Sb  Sb10  1  0.04805748  0.66224227  0.09653093  1
  Sb  Sb11  1  0.54805748  0.33775773  0.40346907  1
  Sb  Sb12  1  0.82521361  0.25042035  0.16895440  1
  Sb  Sb13  1  0.32521361  0.74957965  0.33104560  1
  Sb  Sb14  1  0.17478639  0.74957965  0.83104560  1
  Sb  Sb15  1  0.67478639  0.25042035  0.66895440  1
  Sb  Sb16  1  0.47377279  0.47848856  0.84288606  1
  Sb  Sb17  1  0.97377279  0.52151144  0.65711394  1
  Sb  Sb18  1  0.52622721  0.52151144  0.15711394  1
  Sb  Sb19  1  0.02622721  0.47848856  0.34288606  1
  Sb  Sb20  1  0.22480008  0.25316415  0.17315887  1
  Sb  Sb21  1  0.72480008  0.74683585  0.32684113  1
  Sb  Sb22  1  0.77519992  0.74683585  0.82684113  1
  Sb  Sb23  1  0.27519992  0.25316415  0.67315887  1
loop_
_geom_bond_atom_site_label_1
_geom_bond_atom_site_label_2
_geom_bond_distance
_geom_bond_site_symmetry_2
Na0 Sb22 3.089151 1_555
Na0 Sb8 3.154918 1_555
Na0 Sb14 3.367943 1_655
Na0 Sb10 3.446241 1_656
Na0 Sb16 3.650949 1_555
Na1 Sb21 3.089151 1_555
Na1 Sb11 3.154918 1_555
Na1 Sb13 3.367943 1_555
Na1 Sb9 3.446241 1_555
Na1 Sb19 3.650949 1_655
Na2 Sb20 3.089151 1_555
Na2 Sb10 3.154918 1_555
Na2 Sb12 3.367943 1_455
Na2 Sb8 3.446241 1_454
Na2 Sb18 3.650949 1_555
Na3 Sb23 3.089151 1_555
Na3 Sb9 3.154918 1_555
Na3 Sb15 3.367943 1_555
Na3 Sb11 3.446241 1_555
Na3 Sb17 3.650949 1_455
Na4 Sb7 3.250133 1_655
Na4 Sb15 3.289040 1_555
Na4 Sb5 3.402946 1_545
Na4 Sb4 3.443764 1_555
Na4 Sb23 3.483613 1_655
Na5 Sb6 3.250133 1_556
Na5 Sb14 3.289040 1_555
Na5 Sb0 3.402946 1_565
Na5 Sb1 3.443764 1_555
Na5 Sb22 3.483613 1_555
Na6 Sb5 3.250133 1_455
Na6 Sb13 3.289040 1_555
Na6 Sb7 3.402946 1_565
Na6 Sb2 3.443764 1_555
Na6 Sb21 3.483613 1_455
Na7 Sb0 3.250133 1_554
Na7 Sb12 3.289040 1_555
Na7 Sb6 3.402946 1_545
Na7 Sb3 3.443764 1_555
Na7 Sb20 3.483613 1_555
Na8 Sb17 3.216264 1_555
Na8 Sb7 3.282146 1_655
Na8 Sb15 3.285020 1_555
Na8 Sb19 3.328810 1_655
Na8 Sb11 3.330846 1_555
Na8 Sb23 3.694955 1_655
Na9 Sb16 3.216264 1_555
Na9 Sb6 3.282146 1_556
Na9 Sb14 3.285020 1_555
Na9 Sb18 3.328810 1_556
Na9 Sb10 3.330846 1_556
Na9 Sb22 3.694955 1_555
Na10 Sb19 3.216264 1_555
Na10 Sb5 3.282146 1_455
Na10 Sb13 3.285020 1_555
Na10 Sb17 3.328810 1_455
Na10 Sb9 3.330846 1_555
Na10 Sb21 3.694955 1_455
Na11 Sb18 3.216264 1_555
Na11 Sb0 3.282146 1_554
Na11 Sb12 3.285020 1_555
Na11 Sb16 3.328810 1_554
Na11 Sb8 3.330846 1_554
Na11 Sb20 3.694955 1_555
Na12 Sb1 3.213755 1_555
Na12 Sb21 3.268704 1_555
Na12 Sb5 3.297785 1_555
Na12 Sb13 3.340935 1_555
Na12 Sb3 3.355815 1_565
Na12 Sb9 3.371427 1_555
Na13 Sb4 3.213755 1_454
Na13 Sb20 3.268704 1_555
Na13 Sb0 3.297785 1_554
Na13 Sb12 3.340935 1_455
Na13 Sb2 3.355815 1_545
Na13 Sb8 3.371427 1_454
Na14 Sb3 3.213755 1_555
Na14 Sb23 3.268704 1_555
Na14 Sb7 3.297785 1_555
Na14 Sb15 3.340935 1_555
Na14 Sb1 3.355815 1_545
Na14 Sb11 3.371427 1_555
Na15 Sb2 3.213755 1_656
Na15 Sb22 3.268704 1_555
Na15 Sb6 3.297785 1_556
Na15 Sb14 3.340935 1_655
Na15 Sb4 3.355815 1_565
Na15 Sb10 3.371427 1_656
Al0 Sb8 2.669422 1_455
Al0 Sb23 2.688928 1_555
Al0 Sb16 2.704440 1_555
Al0 Sb0 2.775966 1_555
Al0 Na11 3.500698 1_556
Al1 Sb18 2.688174 1_555
Al1 Sb19 2.705296 1_555
Al1 Sb10 2.734309 1_555
Al1 Sb13 2.743777 1_555
Al1 Na2 3.275503 1_555
Al1 Na1 3.529188 1_555
Al2 Sb17 2.688174 1_455
Al2 Sb16 2.705296 1_555
Al2 Sb9 2.734309 1_555
Al2 Sb14 2.743777 1_555
Al2 Na3 3.275503 1_555
Al2 Na0 3.529188 1_455
Al3 Sb16 2.688174 1_555
Al3 Sb17 2.705296 1_555
Al3 Sb8 2.734309 1_555
Al3 Sb15 2.743777 1_555
Al3 Na0 3.275503 1_555
Al3 Na3 3.529188 1_555
Al4 Sb7 2.665034 1_655
Al4 Sb3 2.695107 1_555
Al4 Sb12 2.725562 1_555
Al4 Sb11 2.746709 1_555
Al5 Sb6 2.665034 1_555
Al5 Sb2 2.695107 1_555
Al5 Sb13 2.725562 1_555
Al5 Sb10 2.746709 1_555
Al6 Sb5 2.665034 1_455
Al6 Sb1 2.695107 1_555
Al6 Sb14 2.725562 1_555
Al6 Sb9 2.746709 1_555
Al7 Sb0 2.665034 1_555
Al7 Sb4 2.695107 1_555
Al7 Sb15 2.725562 1_555
Al7 Sb8 2.746709 1_555
Al8 Sb2 2.684136 1_655
Al8 Sb3 2.689851 1_565
Al8 Sb21 2.703736 1_555
Al8 Sb6 2.707180 1_555
Al8 Na7 3.277744 1_565
Al8 Na6 3.439795 1_655
Al9 Sb3 2.684136 1_555
Al9 Sb2 2.689851 1_545
Al9 Sb20 2.703736 1_555
Al9 Sb7 2.707180 1_555
Al9 Na6 3.277744 1_545
Al9 Na7 3.439795 1_555
Al10 Sb4 2.684136 1_455
Al10 Sb1 2.689851 1_545
Al10 Sb23 2.703736 1_555
Al10 Sb0 2.707180 1_555
Al10 Na5 3.277744 1_545
Al10 Na4 3.439795 1_455
Al11 Sb1 2.684136 1_555
Al11 Sb4 2.689851 1_565
Al11 Sb22 2.703736 1_555
Al11 Sb5 2.707180 1_555
Al11 Na4 3.277744 1_565
Al11 Na5 3.439795 1_555
Al12 Sb9 2.669422 1_555
Al12 Sb22 2.688928 1_555
Al12 Sb17 2.704440 1_555
Al12 Sb5 2.775966 1_555
Al12 Na10 3.500698 1_655
Al13 Sb11 2.669422 1_555
Al13 Sb20 2.688928 1_555
Al13 Sb19 2.704440 1_555
Al13 Sb7 2.775966 1_555
Al13 Na8 3.500698 1_455
Al14 Sb10 2.669422 1_655
Al14 Sb21 2.688928 1_555
Al14 Sb18 2.704440 1_555
Al14 Sb6 2.775966 1_555
Al14 Na9 3.500698 1_554
Al15 Sb19 2.688174 1_655
Al15 Sb18 2.705296 1_555
Al15 Sb11 2.734309 1_555
Al15 Sb12 2.743777 1_555
Al15 Na1 3.275503 1_555
Al15 Na2 3.529188 1_655
Sb12 Sb20 2.903473 1_655
Sb13 Sb21 2.903473 1_555
Sb14 Sb22 2.903473 1_455
Sb15 Sb23 2.903473 1_555
