# generated using pymatgen
data_K4Ba2TiBi4
_symmetry_space_group_name_H-M   'P 1'
_cell_length_a   11.20720074
_cell_length_b   11.20720117
_cell_length_c   8.67659088
_cell_angle_alpha   89.10150058
_cell_angle_beta   89.10149801
_cell_angle_gamma   119.77021578
_symmetry_Int_Tables_number   1
_chemical_formula_structural   K4Ba2TiBi4
_chemical_formula_sum   'K8 Ba4 Ti2 Bi8'
_cell_volume   945.50275376
_cell_formula_units_Z   2
loop_
 _symmetry_equiv_pos_site_id
 _symmetry_equiv_pos_as_xyz
  1  'x, y, z'
loop_
 _atom_site_type_symbol
 _atom_site_label
 _atom_site_symmetry_multiplicity
 _atom_site_fract_x
 _atom_site_fract_y
 _atom_site_fract_z
 _atom_site_occupancy
  K  K0  1  0.05097370  0.52412270  0.62168838  1
  K  K1  1  0.52412270  0.05097370  0.12168838  1
  K  K2  1  0.27728572  0.13565000  0.82352963  1
  K  K3  1  0.86931371  0.72576217  0.78306536  1
  K  K4  1  0.86098082  0.14615238  0.80449154  1
  K  K5  1  0.72576217  0.86931371  0.28306536  1
  K  K6  1  0.13565000  0.27728572  0.32352963  1
  K  K7  1  0.14615238  0.86098082  0.30449154  1
  Ba  Ba0  1  0.47115911  0.94553978  0.61824115  1
  Ba  Ba1  1  0.47050102  0.52183963  0.62464543  1
  Ba  Ba2  1  0.94553978  0.47115911  0.11824115  1
  Ba  Ba3  1  0.52183963  0.47050102  0.12464543  1
  Ti  Ti0  1  0.66778127  0.33568701  0.51227043  1
  Ti  Ti1  1  0.33568701  0.66778127  0.01227043  1
  Bi  Bi0  1  0.60343381  0.79677762  0.89362404  1
  Bi  Bi1  1  0.19895792  0.39393853  0.92205923  1
  Bi  Bi2  1  0.19695620  0.79690669  0.90951839  1
  Bi  Bi3  1  0.39393853  0.19895792  0.42205923  1
  Bi  Bi4  1  0.79677762  0.60343381  0.39362404  1
  Bi  Bi5  1  0.79690669  0.19695620  0.40951839  1
  Bi  Bi6  1  0.66632494  0.34351626  0.83250142  1
  Bi  Bi7  1  0.34351626  0.66632494  0.33250142  1
loop_
_geom_bond_atom_site_label_1
_geom_bond_atom_site_label_2
_geom_bond_distance
_geom_bond_site_symmetry_2
K0 K4 3.964803 1_455
K0 K7 4.306721 1_555
K1 K7 3.964803 1_545
K1 K4 4.306721 1_554
Ba0 Bi0 3.623095 1_555
Ba0 Bi2 3.625827 1_555
Ba0 Bi7 3.727508 1_555
Ba0 Bi5 3.736894 1_565
Ba0 Bi3 3.748069 1_565
Ba0 K4 4.163431 1_565
Ba0 K7 4.305827 1_555
Ba1 Bi0 3.596739 1_555
Ba1 Bi1 3.644306 1_555
Ba1 Bi7 3.653152 1_555
Ba1 Bi3 3.752821 1_555
Ba1 Bi4 3.823259 1_555
Ba2 Bi4 3.623095 1_555
Ba2 Bi5 3.625827 1_555
Ba2 Bi6 3.727508 1_554
Ba2 Bi2 3.736894 1_654
Ba2 Bi1 3.748069 1_654
Ba2 K7 4.163431 1_655
Ba2 K4 4.305827 1_554
Ba3 Bi4 3.596739 1_555
Ba3 Bi3 3.644306 1_555
Ba3 Bi6 3.653152 1_554
Ba3 Bi1 3.752821 1_554
Ba3 Bi0 3.823259 1_554
Bi0 Ti1 2.775333 1_556
Bi0 K3 3.566794 1_555
Bi0 K4 3.587825 1_565
Bi0 K5 3.617025 1_556
Bi0 K1 3.931645 1_566
Bi1 Ti1 2.796863 1_556
Bi1 K2 3.529611 1_555
Bi1 K4 3.586650 1_455
Bi1 K6 3.633888 1_556
Bi1 K0 3.753763 1_555
Bi2 Ti1 2.746586 1_556
Bi2 K2 3.503661 1_565
Bi2 K3 3.545305 1_455
Bi2 K7 3.606426 1_556
Bi2 K0 3.696005 1_555
Bi2 K1 3.866403 1_566
Bi3 Ti0 2.796863 1_555
Bi3 K6 3.529611 1_555
Bi3 K7 3.586650 1_545
Bi3 K2 3.633888 1_555
Bi3 K1 3.753762 1_555
Bi4 Ti0 2.775334 1_555
Bi4 K5 3.566794 1_555
Bi4 K7 3.587825 1_655
Bi4 K3 3.617025 1_555
Bi4 K0 3.931645 1_655
Bi5 Ti0 2.746586 1_555
Bi5 K6 3.503661 1_655
Bi5 K5 3.545305 1_545
Bi5 K4 3.606426 1_555
Bi5 K1 3.696005 1_555
Bi5 K0 3.866403 1_655
Bi6 Ti0 2.781321 1_555
Bi6 K3 3.734315 1_555
Bi6 K1 3.743355 1_556
Bi6 K2 3.791157 1_555
Bi6 K4 3.808245 1_555
Bi7 Ti1 2.781321 1_555
Bi7 K5 3.734315 1_555
Bi7 K0 3.743354 1_555
Bi7 K6 3.791157 1_555
Bi7 K7 3.808245 1_555
