# generated using pymatgen
data_Ru3Rh3W2
_symmetry_space_group_name_H-M   'P 1'
_cell_length_a   5.46095431
_cell_length_b   5.46095415
_cell_length_c   4.35945440
_cell_angle_alpha   90.00000000
_cell_angle_beta   90.00000000
_cell_angle_gamma   120.00000683
_symmetry_Int_Tables_number   1
_chemical_formula_structural   Ru3Rh3W2
_chemical_formula_sum   'Ru3 Rh3 W2'
_cell_volume   112.58999862
_cell_formula_units_Z   1
loop_
 _symmetry_equiv_pos_site_id
 _symmetry_equiv_pos_as_xyz
  1  'x, y, z'
loop_
 _atom_site_type_symbol
 _atom_site_label
 _atom_site_symmetry_multiplicity
 _atom_site_fract_x
 _atom_site_fract_y
 _atom_site_fract_z
 _atom_site_occupancy
  Ru  Ru0  1  0.83486604  0.66973309  0.75000000  1
  Ru  Ru1  1  0.33026691  0.16513396  0.75000000  1
  Ru  Ru2  1  0.83486604  0.16513396  0.75000000  1
  Rh  Rh0  1  0.16688355  0.33376610  0.25000000  1
  Rh  Rh1  1  0.66623390  0.83311645  0.25000000  1
  Rh  Rh2  1  0.16688355  0.83311645  0.25000000  1
  W  W0  1  0.33333300  0.66666700  0.75000000  1
  W  W1  1  0.66666700  0.33333300  0.25000000  1
loop_
_geom_bond_atom_site_label_1
_geom_bond_atom_site_label_2
_geom_bond_distance
_geom_bond_site_symmetry_2
Ru0 W1 2.698577 1_555
Ru0 W1 2.698577 1_556
Ru0 Ru1 2.705361 1_665
Ru0 Ru2 2.705361 1_565
Ru0 W0 2.730516 1_555
Ru0 W0 2.730516 1_655
Ru0 Ru1 2.755592 1_555
Ru0 Ru2 2.755593 1_555
Ru1 W1 2.698577 1_556
Ru1 W1 2.698577 1_555
Ru1 Ru2 2.705362 1_455
Ru1 W0 2.730516 1_555
Ru1 W0 2.730516 1_545
Ru1 Ru2 2.755593 1_555
Ru2 W1 2.698571 1_556
Ru2 W1 2.698571 1_555
Ru2 W0 2.730515 1_655
Ru2 W0 2.730515 1_545
Rh0 Ru1 2.686443 1_555
Rh0 Ru1 2.686443 1_554
Rh0 Ru2 2.686448 1_455
Rh0 Ru2 2.686448 1_454
Rh0 W0 2.688854 1_555
Rh0 W0 2.688854 1_554
Rh0 Rh1 2.726929 1_555
Rh0 Rh2 2.726929 1_555
Rh0 W1 2.730478 1_455
Rh0 W1 2.730478 1_555
Rh0 Rh1 2.734025 1_445
Rh0 Rh2 2.734025 1_545
Rh1 Ru0 2.686443 1_555
Rh1 Ru0 2.686443 1_554
Rh1 Ru2 2.686448 1_565
Rh1 Ru2 2.686448 1_564
Rh1 W0 2.688854 1_555
Rh1 W0 2.688854 1_554
Rh1 Rh2 2.726929 1_555
Rh1 W1 2.730478 1_565
Rh1 W1 2.730478 1_555
Rh1 Rh2 2.734025 1_655
Rh2 Ru1 2.686448 1_565
Rh2 Ru1 2.686448 1_564
Rh2 Ru0 2.686448 1_455
Rh2 Ru0 2.686448 1_454
Rh2 W0 2.688848 1_555
Rh2 W0 2.688848 1_554
Rh2 W1 2.730478 1_565
Rh2 W1 2.730478 1_455
