# generated using pymatgen
data_ZrV(SeO3)4
_symmetry_space_group_name_H-M   'P 1'
_cell_length_a   8.20466965
_cell_length_b   8.40205933
_cell_length_c   8.24926670
_cell_angle_alpha   89.99492541
_cell_angle_beta   90.00182428
_cell_angle_gamma   89.99206440
_symmetry_Int_Tables_number   1
_chemical_formula_structural   ZrV(SeO3)4
_chemical_formula_sum   'Zr2 V2 Se8 O24'
_cell_volume   568.67244054
_cell_formula_units_Z   2
loop_
 _symmetry_equiv_pos_site_id
 _symmetry_equiv_pos_as_xyz
  1  'x, y, z'
loop_
 _atom_site_type_symbol
 _atom_site_label
 _atom_site_symmetry_multiplicity
 _atom_site_fract_x
 _atom_site_fract_y
 _atom_site_fract_z
 _atom_site_occupancy
  Zr  Zr0  1  0.00000000  0.00000000  0.50000000  1
  Zr  Zr1  1  0.50000000  0.00000000  0.00000000  1
  V  V0  1  0.00000000  0.50000000  0.00000000  1
  V  V1  1  0.50000000  0.50000000  0.50000000  1
  Se  Se0  1  0.30249361  0.66464205  0.20814414  1
  Se  Se1  1  0.80237530  0.33542198  0.29174264  1
  Se  Se2  1  0.68184116  0.79111593  0.66984712  1
  Se  Se3  1  0.18177160  0.20884271  0.83011776  1
  Se  Se4  1  0.69750639  0.33535795  0.79185586  1
  Se  Se5  1  0.19762470  0.66457802  0.70825736  1
  Se  Se6  1  0.31815884  0.20888407  0.33015288  1
  Se  Se7  1  0.81822840  0.79115729  0.16988224  1
  O  O0  1  0.22516119  0.55585404  0.05094389  1
  O  O1  1  0.72517146  0.44414729  0.44904602  1
  O  O2  1  0.76150806  0.95010140  0.56975259  1
  O  O3  1  0.26147140  0.04977933  0.93008737  1
  O  O4  1  0.53427451  0.88107089  0.77981297  1
  O  O5  1  0.44578991  0.52786931  0.27391579  1
  O  O6  1  0.94577215  0.47209335  0.22609335  1
  O  O7  1  0.03403770  0.11908034  0.72018437  1
  O  O8  1  0.92821092  0.21311338  0.39723431  1
  O  O9  1  0.56450083  0.71724021  0.51289322  1
  O  O10  1  0.42834364  0.78679150  0.10256165  1
  O  O11  1  0.06457370  0.28277616  0.98715638  1
  O  O12  1  0.77483881  0.44414596  0.94905611  1
  O  O13  1  0.27482854  0.55585271  0.55095398  1
  O  O14  1  0.23849194  0.04989860  0.43024741  1
  O  O15  1  0.73852860  0.95022067  0.06991263  1
  O  O16  1  0.46572549  0.11892911  0.22018703  1
  O  O17  1  0.55421009  0.47213069  0.72608421  1
  O  O18  1  0.05422785  0.52790665  0.77390665  1
  O  O19  1  0.96596230  0.88091966  0.27981563  1
  O  O20  1  0.07178908  0.78688662  0.60276569  1
  O  O21  1  0.43549917  0.28275979  0.48710678  1
  O  O22  1  0.57165636  0.21320850  0.89743835  1
  O  O23  1  0.93542630  0.71722384  0.01284362  1
loop_
_geom_bond_atom_site_label_1
_geom_bond_atom_site_label_2
_geom_bond_distance
_geom_bond_site_symmetry_2
O0 Se0 1.708807 1_555
O0 V0 1.951885 1_555
O1 Se1 1.708717 1_555
O1 V1 1.951882 1_555
O2 Se2 1.701027 1_555
O2 Zr0 2.082302 1_665
O3 Se3 1.700983 1_555
O3 Zr1 2.082605 1_556
O4 Se2 1.691142 1_555
O4 Zr1 2.092151 1_566
O5 Se0 1.731104 1_555
O5 V1 1.931536 1_555
O6 Se1 1.731023 1_555
O6 V0 1.931722 1_655
O7 Se3 1.691367 1_555
O7 Zr0 2.092501 1_555
O8 Se1 1.696695 1_555
O8 Zr0 2.066692 1_655
O9 Se2 1.728804 1_555
O9 V1 1.903487 1_555
O10 Se0 1.696549 1_555
O10 Zr1 2.066542 1_565
O11 Se3 1.728801 1_555
O11 V0 1.903360 1_556
O12 Se4 1.708807 1_555
O12 V0 1.951885 1_656
O13 Se5 1.708717 1_555
O13 V1 1.951882 1_555
O14 Se6 1.701027 1_555
O14 Zr0 2.082302 1_555
O15 Se7 1.700983 1_555
O15 Zr1 2.082605 1_565
O16 Se6 1.691142 1_555
O16 Zr1 2.092151 1_555
O17 Se4 1.731104 1_555
O17 V1 1.931536 1_555
O18 Se5 1.731023 1_555
O18 V0 1.931722 1_556
O19 Se7 1.691367 1_555
O19 Zr0 2.092501 1_665
O20 Se5 1.696695 1_555
O20 Zr0 2.066692 1_565
O21 Se6 1.728804 1_555
O21 V1 1.903487 1_555
O22 Se4 1.696549 1_555
O22 Zr1 2.066542 1_556
O23 Se7 1.728801 1_555
O23 V0 1.903360 1_655
