# generated using pymatgen
data_Zr6Al4Zn2O
_symmetry_space_group_name_H-M   'P 1'
_cell_length_a   8.58422914
_cell_length_b   8.58422997
_cell_length_c   8.58422901
_cell_angle_alpha   59.99999990
_cell_angle_beta   59.99999670
_cell_angle_gamma   59.99999880
_symmetry_Int_Tables_number   1
_chemical_formula_structural   Zr6Al4Zn2O
_chemical_formula_sum   'Zr12 Al8 Zn4 O2'
_cell_volume   447.28973077
_cell_formula_units_Z   2
loop_
 _symmetry_equiv_pos_site_id
 _symmetry_equiv_pos_as_xyz
  1  'x, y, z'
loop_
 _atom_site_type_symbol
 _atom_site_label
 _atom_site_symmetry_multiplicity
 _atom_site_fract_x
 _atom_site_fract_y
 _atom_site_fract_z
 _atom_site_occupancy
  Zr  Zr0  1  0.19182780  0.80817220  0.19182780  1
  Zr  Zr1  1  0.44182780  0.05817220  0.44182780  1
  Zr  Zr2  1  0.44182780  0.05817220  0.05817220  1
  Zr  Zr3  1  0.44182780  0.44182780  0.05817220  1
  Zr  Zr4  1  0.19182780  0.80817220  0.80817220  1
  Zr  Zr5  1  0.05817220  0.44182780  0.05817220  1
  Zr  Zr6  1  0.80817220  0.80817220  0.19182780  1
  Zr  Zr7  1  0.05817220  0.44182780  0.44182780  1
  Zr  Zr8  1  0.19182780  0.19182780  0.80817220  1
  Zr  Zr9  1  0.80817220  0.19182780  0.19182780  1
  Zr  Zr10  1  0.80817220  0.19182780  0.80817220  1
  Zr  Zr11  1  0.05817220  0.05817220  0.44182780  1
  Al  Al0  1  0.83347071  0.49958987  0.83347071  1
  Al  Al1  1  0.41652929  0.41652929  0.75041013  1
  Al  Al2  1  0.75041013  0.41652929  0.41652929  1
  Al  Al3  1  0.41652929  0.41652929  0.41652929  1
  Al  Al4  1  0.83347071  0.83347071  0.49958987  1
  Al  Al5  1  0.41652929  0.75041013  0.41652929  1
  Al  Al6  1  0.83347071  0.83347071  0.83347071  1
  Al  Al7  1  0.49958987  0.83347071  0.83347071  1
  Zn  Zn0  1  0.62500000  0.12500000  0.62500000  1
  Zn  Zn1  1  0.62500000  0.62500000  0.12500000  1
  Zn  Zn2  1  0.12500000  0.62500000  0.62500000  1
  Zn  Zn3  1  0.62500000  0.62500000  0.62500000  1
  O  O0  1  0.00000000  0.00000000  0.00000000  1
  O  O1  1  0.25000000  0.25000000  0.25000000  1
loop_
_geom_bond_atom_site_label_1
_geom_bond_atom_site_label_2
_geom_bond_distance
_geom_bond_site_symmetry_2
Al0 Zn1 2.629328 1_556
Al0 Zn2 2.629328 1_655
Al0 Zn3 2.629342 1_555
Al0 Al7 2.866110 1_555
Al0 Al4 2.866110 1_555
Al0 Al6 2.866110 1_555
Al0 Zr8 2.875507 1_655
Al0 Zr9 2.875507 1_556
Al0 Zr10 2.875517 1_555
Al0 Zr5 3.081371 1_656
Al0 Zr7 3.081386 1_655
Al0 Zr3 3.081386 1_556
Al1 Zn2 2.629328 1_555
Al1 Zn0 2.629328 1_555
Al1 Zn3 2.629342 1_555
Al1 Al2 2.866110 1_555
Al1 Al3 2.866110 1_555
Al1 Al5 2.866110 1_555
Al1 Zr5 2.875507 1_556
Al1 Zr2 2.875507 1_556
Al1 Zr3 2.875517 1_556
Al1 Zr8 3.081371 1_555
Al1 Zr10 3.081386 1_555
Al1 Zr4 3.081386 1_555
Al2 Zn1 2.629328 1_555
Al2 Zn0 2.629328 1_555
Al2 Zn3 2.629342 1_555
Al2 Al3 2.866110 1_555
Al2 Al5 2.866110 1_555
Al2 Zr5 2.875507 1_655
Al2 Zr11 2.875507 1_655
Al2 Zr7 2.875517 1_655
Al2 Zr9 3.081371 1_555
Al2 Zr10 3.081386 1_555
Al2 Zr6 3.081386 1_555
Al3 Zn2 2.629337 1_555
Al3 Zn1 2.629337 1_555
Al3 Zn0 2.629337 1_555
Al3 Al5 2.866110 1_555
Al3 Zr3 2.875499 1_555
Al3 Zr7 2.875500 1_555
Al3 Zr1 2.875500 1_555
Al3 Zr9 3.081379 1_555
Al3 Zr8 3.081379 1_555
Al3 Zr0 3.081379 1_555
Al4 Zn2 2.629328 1_655
Al4 Zn0 2.629328 1_565
Al4 Zn3 2.629342 1_555
Al4 Al7 2.866110 1_555
Al4 Al6 2.866110 1_555
Al4 Zr0 2.875507 1_655
Al4 Zr9 2.875507 1_565
Al4 Zr6 2.875517 1_555
Al4 Zr11 3.081371 1_665
Al4 Zr1 3.081386 1_565
Al4 Zr7 3.081386 1_655
Al5 Zn1 2.629328 1_555
Al5 Zn2 2.629328 1_555
Al5 Zn3 2.629342 1_555
Al5 Zr11 2.875507 1_565
Al5 Zr2 2.875507 1_565
Al5 Zr1 2.875517 1_565
Al5 Zr0 3.081371 1_555
Al5 Zr4 3.081386 1_555
Al5 Zr6 3.081386 1_555
Al6 Zn2 2.629337 1_655
Al6 Zn1 2.629337 1_556
Al6 Zn0 2.629337 1_565
Al6 Al7 2.866110 1_555
Al6 Zr6 2.875499 1_556
Al6 Zr4 2.875500 1_655
Al6 Zr10 2.875500 1_565
Al6 Zr2 3.081379 1_566
Al6 Zr11 3.081379 1_665
Al6 Zr5 3.081379 1_656
Al7 Zn1 2.629328 1_556
Al7 Zn0 2.629328 1_565
Al7 Zn3 2.629342 1_555
Al7 Zr0 2.875507 1_556
Al7 Zr8 2.875507 1_565
Al7 Zr4 2.875517 1_555
Al7 Zr2 3.081371 1_566
Al7 Zr1 3.081386 1_565
Al7 Zr3 3.081386 1_556
Zn0 Zr2 3.090371 1_556
Zn0 Zr9 3.090371 1_555
Zn0 Zr11 3.090371 1_655
Zn0 Zr8 3.090371 1_555
Zn0 Zr10 3.090372 1_555
Zn0 Zr1 3.090372 1_555
Zn1 Zr5 3.090371 1_655
Zn1 Zr0 3.090371 1_555
Zn1 Zr6 3.090372 1_555
Zn1 Zr3 3.090372 1_555
Zn1 Zr2 3.090372 1_565
Zn1 Zr9 3.090372 1_555
Zn2 Zr5 3.090371 1_556
Zn2 Zr0 3.090371 1_555
Zn2 Zr4 3.090372 1_555
Zn2 Zr7 3.090372 1_555
Zn2 Zr11 3.090372 1_565
Zn2 Zr8 3.090372 1_555
Zn3 Zr7 3.090371 1_655
Zn3 Zr4 3.090371 1_555
Zn3 Zr3 3.090371 1_556
Zn3 Zr6 3.090371 1_555
Zn3 Zr1 3.090372 1_565
Zn3 Zr10 3.090372 1_555
O0 Zr0 2.328777 1_545
O0 Zr10 2.328777 1_454
O0 Zr9 2.328777 1_455
O0 Zr4 2.328777 1_544
O0 Zr8 2.328777 1_554
O0 Zr6 2.328777 1_445
O1 Zr1 2.328777 1_555
O1 Zr5 2.328777 1_555
O1 Zr7 2.328777 1_555
O1 Zr2 2.328777 1_555
O1 Zr3 2.328777 1_555
O1 Zr11 2.328777 1_555
