# generated using pymatgen
data_CsV(CO3)2
_symmetry_space_group_name_H-M   'P 1'
_cell_length_a   6.30511789
_cell_length_b   6.30507482
_cell_length_c   7.38206070
_cell_angle_alpha   73.60582186
_cell_angle_beta   73.61500614
_cell_angle_gamma   94.22889878
_symmetry_Int_Tables_number   1
_chemical_formula_structural   CsV(CO3)2
_chemical_formula_sum   'Cs2 V2 C4 O12'
_cell_volume   266.32679315
_cell_formula_units_Z   2
loop_
 _symmetry_equiv_pos_site_id
 _symmetry_equiv_pos_as_xyz
  1  'x, y, z'
loop_
 _atom_site_type_symbol
 _atom_site_label
 _atom_site_symmetry_multiplicity
 _atom_site_fract_x
 _atom_site_fract_y
 _atom_site_fract_z
 _atom_site_occupancy
  Cs  Cs0  1  0.61041355  0.38963981  0.74994998  1
  Cs  Cs1  1  0.38958645  0.61036019  0.25005002  1
  V  V0  1  0.15169430  0.84830994  0.75000956  1
  V  V1  1  0.84830570  0.15169006  0.24999044  1
  C  C0  1  0.69095150  0.90880920  0.69595600  1
  C  C1  1  0.30904850  0.09119080  0.30404400  1
  C  C2  1  0.09114874  0.30900198  0.80409865  1
  C  C3  1  0.90885126  0.69099802  0.19590135  1
  O  O0  1  0.47817173  0.84406995  0.76238479  1
  O  O1  1  0.52182827  0.15593005  0.23761521  1
  O  O2  1  0.15595606  0.52181124  0.73766872  1
  O  O3  1  0.84404394  0.47818876  0.26233128  1
  O  O4  1  0.81244388  0.80847751  0.79649692  1
  O  O5  1  0.18755612  0.19152249  0.20350308  1
  O  O6  1  0.19150332  0.18756752  0.70353140  1
  O  O7  1  0.80849668  0.81243248  0.29646860  1
  O  O8  1  0.78465326  0.07620122  0.53594306  1
  O  O9  1  0.21534674  0.92379878  0.46405694  1
  O  O10  1  0.92373635  0.21531187  0.96408944  1
  O  O11  1  0.07626365  0.78468813  0.03591056  1
loop_
_geom_bond_atom_site_label_1
_geom_bond_atom_site_label_2
_geom_bond_distance
_geom_bond_site_symmetry_2
Cs0 O10 2.951456 1_555
Cs0 O8 2.951563 1_555
Cs0 O4 2.996262 1_555
Cs0 O6 2.996300 1_555
Cs0 O2 3.060938 1_555
Cs0 O0 3.061166 1_555
Cs0 O3 3.345395 1_555
Cs0 O1 3.345576 1_556
Cs0 O7 3.461985 1_555
Cs0 O5 3.462746 1_556
Cs1 O11 2.951456 1_555
Cs1 O9 2.951563 1_555
Cs1 O5 2.996262 1_555
Cs1 O7 2.996300 1_555
Cs1 O3 3.060938 1_555
Cs1 O1 3.061166 1_555
Cs1 O2 3.345395 1_555
Cs1 O0 3.345576 1_554
Cs1 O6 3.461985 1_555
Cs1 O4 3.462746 1_554
C0 O0 1.281427 1_555
C0 O4 1.290359 1_555
C0 O8 1.291829 1_565
C1 O1 1.281427 1_555
C1 O5 1.290359 1_555
C1 O9 1.291829 1_545
C2 O2 1.281592 1_555
C2 O6 1.290362 1_555
C2 O10 1.291864 1_455
C3 O3 1.281592 1_555
C3 O7 1.290362 1_555
C3 O11 1.291864 1_655
O0 V0 2.087876 1_555
O1 V1 2.087876 1_555
O2 V0 2.087939 1_555
O3 V1 2.087939 1_555
O4 V0 2.052853 1_655
O5 V1 2.052853 1_455
O6 V0 2.052846 1_545
O7 V1 2.052846 1_565
O8 V1 1.941726 1_555
O9 V0 1.941726 1_555
O10 V1 1.941424 1_556
O11 V0 1.941424 1_554
