# generated using pymatgen
data_Y5V3(P3Rh4)4
_symmetry_space_group_name_H-M   'P 1'
_cell_length_a   12.61874451
_cell_length_b   12.61874434
_cell_length_c   3.88071884
_cell_angle_alpha   90.00000000
_cell_angle_beta   90.00000000
_cell_angle_gamma   120.00000045
_symmetry_Int_Tables_number   1
_chemical_formula_structural   Y5V3(P3Rh4)4
_chemical_formula_sum   'Y5 V3 P12 Rh16'
_cell_volume   535.14946816
_cell_formula_units_Z   1
loop_
 _symmetry_equiv_pos_site_id
 _symmetry_equiv_pos_as_xyz
  1  'x, y, z'
loop_
 _atom_site_type_symbol
 _atom_site_label
 _atom_site_symmetry_multiplicity
 _atom_site_fract_x
 _atom_site_fract_y
 _atom_site_fract_z
 _atom_site_occupancy
  Y  Y0  1  0.18808337  0.18808337  0.50000000  1
  Y  Y1  1  0.81191663  0.00000000  0.50000000  1
  Y  Y2  1  0.00000000  0.81191663  0.50000000  1
  Y  Y3  1  0.33333300  0.66666700  0.00000000  1
  Y  Y4  1  0.66666700  0.33333300  0.00000000  1
  V  V0  1  0.55240736  0.55240736  0.00000000  1
  V  V1  1  0.44759264  0.00000000  0.00000000  1
  V  V2  1  1.00000000  0.44759264  0.00000000  1
  P  P0  1  0.82356978  0.82356978  0.00000000  1
  P  P1  1  0.17643022  0.00000000  0.00000000  1
  P  P2  1  1.00000000  0.17643022  0.00000000  1
  P  P3  1  0.16606899  0.48277745  0.50000000  1
  P  P4  1  0.51722255  0.68329054  0.50000000  1
  P  P5  1  0.31670946  0.83393101  0.50000000  1
  P  P6  1  0.68329054  0.51722255  0.50000000  1
  P  P7  1  0.83393101  0.31670946  0.50000000  1
  P  P8  1  0.48277745  0.16606899  0.50000000  1
  P  P9  1  0.36326739  0.36326739  0.00000000  1
  P  P10  1  0.63673261  0.00000000  0.00000000  1
  P  P11  1  0.00000000  0.63673261  0.00000000  1
  Rh  Rh0  1  0.71543562  0.71543562  0.50000000  1
  Rh  Rh1  1  0.28456438  0.00000000  0.50000000  1
  Rh  Rh2  1  0.00000000  0.28456438  0.50000000  1
  Rh  Rh3  1  0.17780376  0.37597821  0.00000000  1
  Rh  Rh4  1  0.62402179  0.80182555  0.00000000  1
  Rh  Rh5  1  0.19817445  0.82219624  0.00000000  1
  Rh  Rh6  1  0.80182555  0.62402179  0.00000000  1
  Rh  Rh7  1  0.82219624  0.19817445  0.00000000  1
  Rh  Rh8  1  0.37597821  0.17780376  0.00000000  1
  Rh  Rh9  1  0.35746405  0.48708556  0.50000000  1
  Rh  Rh10  1  0.51291444  0.87037949  0.50000000  1
  Rh  Rh11  1  0.12962051  0.64253595  0.50000000  1
  Rh  Rh12  1  0.87037949  0.51291444  0.50000000  1
  Rh  Rh13  1  0.64253595  0.12962051  0.50000000  1
  Rh  Rh14  1  0.48708556  0.35746405  0.50000000  1
  Rh  Rh15  1  0.00000000  0.00000000  0.00000000  1
loop_
_geom_bond_atom_site_label_1
_geom_bond_atom_site_label_2
_geom_bond_distance
_geom_bond_site_symmetry_2
P0 Rh15 2.226328 1_665
P0 Rh0 2.372109 1_555
P0 Rh0 2.372109 1_554
P0 Rh6 2.392682 1_555
P0 Rh4 2.392682 1_555
P0 Y1 3.011732 1_564
P0 Y1 3.011732 1_565
P0 Y2 3.011732 1_655
P0 Y2 3.011732 1_654
P1 Rh15 2.226328 1_555
P1 Rh1 2.372109 1_554
P1 Rh1 2.372109 1_555
P1 Rh8 2.392682 1_555
P1 Rh5 2.392682 1_545
P1 Y2 3.011732 1_544
P1 Y2 3.011732 1_545
P1 Y0 3.011732 1_554
P1 Y0 3.011732 1_555
P2 Rh15 2.226328 1_655
P2 Rh2 2.372109 1_655
P2 Rh2 2.372109 1_654
P2 Rh3 2.392682 1_655
P2 Rh7 2.392682 1_555
P2 Y1 3.011732 1_554
P2 Y1 3.011732 1_555
P2 Y0 3.011732 1_654
P2 Y0 3.011732 1_655
P3 Rh11 2.280966 1_555
P3 Rh2 2.325080 1_555
P3 Rh9 2.388448 1_555
P3 Rh3 2.408880 1_556
P3 Rh3 2.408880 1_555
P3 V2 2.724550 1_455
P3 V2 2.724550 1_456
P3 Y3 2.950713 1_555
P3 Y3 2.950713 1_556
P4 Rh9 2.280950 1_555
P4 Rh0 2.325075 1_555
P4 Rh10 2.388473 1_555
P4 Rh4 2.408884 1_555
P4 Rh4 2.408884 1_556
P4 V0 2.724541 1_555
P4 V0 2.724541 1_556
P4 Y3 2.950721 1_555
P4 Y3 2.950721 1_556
P5 Rh10 2.280941 1_555
P5 Rh1 2.325088 1_565
P5 Rh11 2.388460 1_555
P5 Rh5 2.408887 1_555
P5 Rh5 2.408887 1_556
P5 V1 2.724547 1_566
P5 V1 2.724547 1_565
P5 Y3 2.950702 1_556
P5 Y3 2.950702 1_555
P6 Rh14 2.280950 1_555
P6 Rh0 2.325075 1_555
P6 Rh12 2.388473 1_555
P6 Rh6 2.408884 1_556
P6 Rh6 2.408884 1_555
P6 V0 2.724541 1_556
P6 V0 2.724541 1_555
P6 Y4 2.950721 1_555
P6 Y4 2.950721 1_556
P7 Rh12 2.280941 1_555
P7 Rh2 2.325088 1_655
P7 Rh13 2.388460 1_555
P7 Rh7 2.408887 1_556
P7 Rh7 2.408887 1_555
P7 V2 2.724547 1_555
P7 V2 2.724547 1_556
P7 Y4 2.950702 1_555
P7 Y4 2.950702 1_556
P8 Rh13 2.280966 1_555
P8 Rh1 2.325080 1_555
P8 Rh14 2.388448 1_555
P8 Rh8 2.408880 1_555
P8 Rh8 2.408880 1_556
P8 V1 2.724550 1_555
P8 V1 2.724550 1_556
P8 Y4 2.950713 1_556
P8 Y4 2.950713 1_555
P9 V0 2.386709 1_555
P9 Rh8 2.424498 1_555
P9 Rh3 2.424498 1_555
P9 Rh9 2.515147 1_554
P9 Rh9 2.515147 1_555
P9 Rh14 2.515147 1_554
P9 Rh14 2.515147 1_555
P9 Y0 2.941387 1_555
P9 Y0 2.941387 1_554
P10 V1 2.386709 1_555
P10 Rh7 2.424498 1_555
P10 Rh4 2.424498 1_545
P10 Rh13 2.515139 1_555
P10 Rh13 2.515139 1_554
P10 Rh10 2.515142 1_544
P10 Rh10 2.515142 1_545
P10 Y1 2.941387 1_555
P10 Y1 2.941387 1_554
P11 V2 2.386709 1_455
P11 Rh5 2.424498 1_555
P11 Rh6 2.424498 1_455
P11 Rh11 2.515139 1_555
P11 Rh11 2.515139 1_554
P11 Rh12 2.515142 1_454
P11 Rh12 2.515142 1_455
P11 Y2 2.941387 1_555
P11 Y2 2.941387 1_554
Rh0 Rh6 2.746181 1_556
Rh0 Rh6 2.746181 1_555
Rh0 Rh4 2.746181 1_555
Rh0 Rh4 2.746181 1_556
Rh0 V0 2.827917 1_556
Rh0 V0 2.827917 1_555
Rh0 Y1 3.163014 1_565
Rh0 Y2 3.163014 1_655
Rh1 Rh8 2.746181 1_555
Rh1 Rh8 2.746181 1_556
Rh1 Rh5 2.746181 1_546
Rh1 Rh5 2.746181 1_545
Rh1 V1 2.827917 1_555
Rh1 V1 2.827917 1_556
Rh1 Y2 3.163014 1_545
Rh1 Y0 3.163014 1_555
Rh2 Rh3 2.746181 1_556
Rh2 Rh3 2.746181 1_555
Rh2 Rh7 2.746181 1_455
Rh2 Rh7 2.746181 1_456
Rh2 V2 2.827917 1_455
Rh2 V2 2.827917 1_456
Rh2 Y1 3.163014 1_455
Rh2 Y0 3.163014 1_555
Rh3 Rh9 2.773418 1_554
Rh3 Rh9 2.773418 1_555
Rh3 V2 2.806816 1_455
Rh3 Y0 3.116248 1_554
Rh3 Y0 3.116248 1_555
Rh3 Y3 3.179290 1_555
Rh4 V0 2.806816 1_555
Rh4 Y1 3.116248 1_564
Rh4 Y1 3.116248 1_565
Rh4 Y3 3.179291 1_555
Rh5 V1 2.806816 1_565
Rh5 Y2 3.116248 1_555
Rh5 Y2 3.116248 1_554
Rh5 Y3 3.179280 1_555
Rh6 V0 2.806816 1_555
Rh6 Y2 3.116248 1_655
Rh6 Y2 3.116248 1_654
Rh6 Y4 3.179291 1_555
Rh7 V2 2.806816 1_555
Rh7 Y1 3.116248 1_555
Rh7 Y1 3.116248 1_554
Rh7 Y4 3.179280 1_555
Rh8 V1 2.806816 1_555
Rh8 Y0 3.116248 1_554
Rh8 Y0 3.116248 1_555
Rh8 Y4 3.179290 1_555
Rh9 V0 2.909993 1_556
Rh9 V0 2.909993 1_555
Rh9 Y3 3.111740 1_556
Rh9 Y3 3.111740 1_555
Rh9 Y0 3.277157 1_555
Rh10 Rh4 2.773425 1_555
Rh10 Rh4 2.773425 1_556
Rh10 Rh13 2.833025 1_565
Rh10 V1 2.909984 1_565
Rh10 V1 2.909984 1_566
Rh10 Y3 3.111740 1_556
Rh10 Y3 3.111740 1_555
Rh10 Y1 3.277158 1_565
Rh11 Rh5 2.773416 1_555
Rh11 Rh5 2.773416 1_556
Rh11 Rh12 2.833026 1_455
Rh11 V2 2.909991 1_455
Rh11 V2 2.909991 1_456
Rh11 Y3 3.111740 1_556
Rh11 Y3 3.111740 1_555
Rh11 Y2 3.277146 1_555
Rh12 Rh6 2.773425 1_555
Rh12 Rh6 2.773425 1_556
Rh12 V2 2.909984 1_556
Rh12 V2 2.909984 1_555
Rh12 Y4 3.111740 1_556
Rh12 Y4 3.111740 1_555
Rh12 Y2 3.277158 1_655
Rh13 Rh7 2.773417 1_556
Rh13 Rh7 2.773417 1_555
Rh13 V1 2.909991 1_556
Rh13 V1 2.909991 1_555
Rh13 Y4 3.111740 1_556
Rh13 Y4 3.111740 1_555
Rh13 Y1 3.277146 1_555
Rh14 Rh8 2.773418 1_556
Rh14 Rh8 2.773418 1_555
Rh14 Rh9 2.833047 1_555
Rh14 V0 2.909993 1_556
Rh14 V0 2.909993 1_555
Rh14 Y4 3.111740 1_556
Rh14 Y4 3.111740 1_555
Rh14 Y0 3.277157 1_555
Rh15 Y0 3.065601 1_554
Rh15 Y0 3.065601 1_555
Rh15 Y2 3.065601 1_544
Rh15 Y2 3.065601 1_545
Rh15 Y1 3.065601 1_455
Rh15 Y1 3.065601 1_454
