# generated using pymatgen
data_Ti(PSe3)2
_symmetry_space_group_name_H-M   'P 1'
_cell_length_a   6.40928540
_cell_length_b   6.40928645
_cell_length_c   7.17915509
_cell_angle_alpha   82.05275759
_cell_angle_beta   82.05276140
_cell_angle_gamma   120.07047781
_symmetry_Int_Tables_number   1
_chemical_formula_structural   Ti(PSe3)2
_chemical_formula_sum   'Ti1 P2 Se6'
_cell_volume   245.24648291
_cell_formula_units_Z   1
loop_
 _symmetry_equiv_pos_site_id
 _symmetry_equiv_pos_as_xyz
  1  'x, y, z'
loop_
 _atom_site_type_symbol
 _atom_site_label
 _atom_site_symmetry_multiplicity
 _atom_site_fract_x
 _atom_site_fract_y
 _atom_site_fract_z
 _atom_site_occupancy
  Ti  Ti0  1  0.66693072  0.33306928  0.00000000  1
  P  P0  1  0.95061364  0.95114016  0.15821192  1
  P  P1  1  0.04885984  0.04938636  0.84178808  1
  Se  Se0  1  0.87642128  0.57242498  0.24501638  1
  Se  Se1  1  0.77201804  0.72353172  0.75487669  1
  Se  Se2  1  0.42757502  0.12357872  0.75498362  1
  Se  Se3  1  0.62022780  0.97231163  0.24679509  1
  Se  Se4  1  0.02768837  0.37977220  0.75320491  1
  Se  Se5  1  0.27646828  0.22798196  0.24512331  1
loop_
_geom_bond_atom_site_label_1
_geom_bond_atom_site_label_2
_geom_bond_distance
_geom_bond_site_symmetry_2
P0 P1 2.182885 1_664
P0 Se3 2.201419 1_555
P0 Se0 2.202118 1_555
P0 Se5 2.202799 1_665
P1 Se4 2.201419 1_555
P1 Se2 2.202117 1_555
P1 Se1 2.202799 1_445
Se0 Ti0 2.566216 1_555
Se1 Ti0 2.564893 1_556
Se2 Ti0 2.566216 1_556
Se3 Ti0 2.569435 1_565
Se4 Ti0 2.569434 1_456
Se5 Ti0 2.564893 1_555
