# generated using pymatgen
data_Hf2TaW3
_symmetry_space_group_name_H-M   'P 1'
_cell_length_a   5.43295881
_cell_length_b   5.36564652
_cell_length_c   5.36564656
_cell_angle_alpha   59.99999975
_cell_angle_beta   60.40900570
_cell_angle_gamma   60.40900825
_symmetry_Int_Tables_number   1
_chemical_formula_structural   Hf2TaW3
_chemical_formula_sum   'Hf2 Ta1 W3'
_cell_volume   111.28148669
_cell_formula_units_Z   1
loop_
 _symmetry_equiv_pos_site_id
 _symmetry_equiv_pos_as_xyz
  1  'x, y, z'
loop_
 _atom_site_type_symbol
 _atom_site_label
 _atom_site_symmetry_multiplicity
 _atom_site_fract_x
 _atom_site_fract_y
 _atom_site_fract_z
 _atom_site_occupancy
  Hf  Hf0  1  0.99770059  0.00076614  0.00076614  1
  Hf  Hf1  1  0.25229941  0.24923386  0.24923386  1
  Ta  Ta0  1  0.12500000  0.62500000  0.62500000  1
  W  W0  1  0.62500000  0.62500000  0.62500000  1
  W  W1  1  0.62500000  0.12500000  0.62500000  1
  W  W2  1  0.62500000  0.62500000  0.12500000  1
loop_
_geom_bond_atom_site_label_1
_geom_bond_atom_site_label_2
_geom_bond_distance
_geom_bond_site_symmetry_2
Hf0 Ta0 3.149526 1_644
Hf0 Ta0 3.149530 1_654
Hf0 Ta0 3.149530 1_645
Hf0 W2 3.156671 1_545
Hf0 W1 3.156671 1_554
Hf0 W0 3.156673 1_545
Hf0 W0 3.156674 1_554
Hf0 W1 3.156676 1_555
Hf0 W2 3.156676 1_555
Hf0 W0 3.199673 1_644
Hf0 W1 3.199675 1_654
Hf0 W2 3.199675 1_645
Hf0 Hf1 3.299689 1_654
Hf0 Hf1 3.299689 1_645
Hf0 Hf1 3.299698 1_655
Hf0 Hf1 3.326888 1_555
Hf1 Ta0 3.149526 1_555
Hf1 Ta0 3.149530 1_545
Hf1 Ta0 3.149530 1_554
Hf1 W2 3.156671 1_555
Hf1 W1 3.156671 1_555
Hf1 W0 3.156673 1_554
Hf1 W0 3.156674 1_545
Hf1 W1 3.156676 1_554
Hf1 W2 3.156676 1_545
Hf1 W0 3.199673 1_455
Hf1 W1 3.199675 1_455
Hf1 W2 3.199675 1_455
Ta0 W2 2.716479 1_555
Ta0 W2 2.716479 1_456
Ta0 W0 2.716479 1_455
Ta0 W0 2.716479 1_555
Ta0 W1 2.716479 1_555
Ta0 W1 2.716479 1_465
W0 W1 2.682823 1_555
W0 W1 2.682823 1_565
W0 W2 2.682823 1_556
W0 W2 2.682823 1_555
W1 W2 2.682823 1_555
W1 W2 2.682823 1_546
