# generated using pymatgen
data_Rb3AgSn4
_symmetry_space_group_name_H-M   'P 1'
_cell_length_a   6.71394344
_cell_length_b   7.27867388
_cell_length_c   13.19438374
_cell_angle_alpha   90.00000000
_cell_angle_beta   90.00000000
_cell_angle_gamma   90.00000000
_symmetry_Int_Tables_number   1
_chemical_formula_structural   Rb3AgSn4
_chemical_formula_sum   'Rb6 Ag2 Sn8'
_cell_volume   644.79112367
_cell_formula_units_Z   2
loop_
 _symmetry_equiv_pos_site_id
 _symmetry_equiv_pos_as_xyz
  1  'x, y, z'
loop_
 _atom_site_type_symbol
 _atom_site_label
 _atom_site_symmetry_multiplicity
 _atom_site_fract_x
 _atom_site_fract_y
 _atom_site_fract_z
 _atom_site_occupancy
  Rb  Rb0  1  0.55419199  0.00000000  0.00000000  1
  Rb  Rb1  1  0.44580801  0.50000000  0.50000000  1
  Rb  Rb2  1  0.82865378  0.50000000  0.74240010  1
  Rb  Rb3  1  0.82865378  0.50000000  0.25759990  1
  Rb  Rb4  1  0.17134622  0.00000000  0.75759990  1
  Rb  Rb5  1  0.17134622  0.00000000  0.24240010  1
  Ag  Ag0  1  0.68302238  0.50000000  0.00000000  1
  Ag  Ag1  1  0.31697762  0.00000000  0.50000000  1
  Sn  Sn0  1  0.32829120  0.50000000  0.88265022  1
  Sn  Sn1  1  0.32829120  0.50000000  0.11734978  1
  Sn  Sn2  1  0.03909971  0.28638892  0.00000000  1
  Sn  Sn3  1  0.03909971  0.71361108  0.00000000  1
  Sn  Sn4  1  0.96090029  0.78638892  0.50000000  1
  Sn  Sn5  1  0.96090029  0.21361108  0.50000000  1
  Sn  Sn6  1  0.67170880  0.00000000  0.38265022  1
  Sn  Sn7  1  0.67170880  0.00000000  0.61734978  1
loop_
_geom_bond_atom_site_label_1
_geom_bond_atom_site_label_2
_geom_bond_distance
_geom_bond_site_symmetry_2
Rb0 Sn2 3.865809 1_655
Rb0 Sn3 3.865809 1_645
Rb0 Sn2 4.037959 1_555
Rb0 Sn3 4.037959 1_545
Rb0 Rb4 4.103198 1_554
Rb0 Rb5 4.103198 1_555
Rb1 Sn4 3.865809 1_455
Rb1 Sn5 3.865809 1_455
Rb1 Sn4 4.037959 1_555
Rb1 Sn5 4.037959 1_555
Rb1 Rb3 4.103198 1_555
Rb1 Rb2 4.103198 1_555
Rb2 Sn0 3.831099 1_655
Rb2 Sn0 3.835363 1_555
Rb2 Sn4 3.919551 1_555
Rb2 Sn5 3.919551 1_555
Rb2 Sn3 3.995760 1_656
Rb2 Sn2 3.995760 1_656
Rb2 Sn7 4.132490 1_555
Rb2 Sn7 4.132490 1_565
Rb2 Rb4 4.310308 1_655
Rb2 Rb4 4.310308 1_665
Rb3 Sn1 3.831099 1_655
Rb3 Sn1 3.835363 1_555
Rb3 Sn4 3.919551 1_555
Rb3 Sn5 3.919551 1_555
Rb3 Sn3 3.995760 1_655
Rb3 Sn2 3.995760 1_655
Rb3 Sn6 4.132490 1_555
Rb3 Sn6 4.132490 1_565
Rb3 Rb5 4.310308 1_655
Rb3 Rb5 4.310308 1_665
Rb4 Sn7 3.831099 1_455
Rb4 Sn7 3.835363 1_555
Rb4 Sn2 3.919551 1_556
Rb4 Sn3 3.919551 1_546
Rb4 Sn5 3.995760 1_455
Rb4 Sn4 3.995760 1_445
Rb4 Sn0 4.132490 1_545
Rb4 Sn0 4.132490 1_555
Rb5 Sn6 3.831099 1_455
Rb5 Sn6 3.835363 1_555
Rb5 Sn2 3.919551 1_555
Rb5 Sn3 3.919551 1_545
Rb5 Sn5 3.995760 1_455
Rb5 Sn4 3.995760 1_445
Rb5 Sn1 4.132490 1_555
Rb5 Sn1 4.132490 1_545
Ag0 Sn0 2.840712 1_554
Ag0 Sn1 2.840712 1_555
Ag0 Sn3 2.851804 1_655
Ag0 Sn2 2.851804 1_655
Ag0 Rb2 3.536714 1_554
Ag0 Rb3 3.536714 1_555
Ag0 Rb0 3.740712 1_555
Ag0 Rb0 3.740712 1_565
Ag1 Sn6 2.840712 1_555
Ag1 Sn7 2.840712 1_555
Ag1 Sn5 2.851804 1_455
Ag1 Sn4 2.851804 1_445
Ag1 Rb5 3.536714 1_555
Ag1 Rb4 3.536714 1_555
Ag1 Rb1 3.740712 1_555
Ag1 Rb1 3.740712 1_545
Sn0 Sn3 2.929966 1_556
Sn0 Sn2 2.929966 1_556
Sn1 Sn3 2.929966 1_555
Sn1 Sn2 2.929966 1_555
Sn2 Sn3 3.109611 1_555
Sn4 Sn6 2.929966 1_565
Sn4 Sn7 2.929966 1_565
Sn4 Sn5 3.109611 1_565
Sn5 Sn6 2.929966 1_555
Sn5 Sn7 2.929966 1_555
