# generated using pymatgen
data_Rb5CuAs2
_symmetry_space_group_name_H-M   'P 1'
_cell_length_a   6.00947472
_cell_length_b   6.00947513
_cell_length_c   19.24794317
_cell_angle_alpha   90.00000000
_cell_angle_beta   90.00000000
_cell_angle_gamma   119.99999233
_symmetry_Int_Tables_number   1
_chemical_formula_structural   Rb5CuAs2
_chemical_formula_sum   'Rb10 Cu2 As4'
_cell_volume   601.98829612
_cell_formula_units_Z   2
loop_
 _symmetry_equiv_pos_site_id
 _symmetry_equiv_pos_as_xyz
  1  'x, y, z'
loop_
 _atom_site_type_symbol
 _atom_site_label
 _atom_site_symmetry_multiplicity
 _atom_site_fract_x
 _atom_site_fract_y
 _atom_site_fract_z
 _atom_site_occupancy
  Rb  Rb0  1  0.33333300  0.66666700  0.54936082  1
  Rb  Rb1  1  0.66666700  0.33333300  0.04936082  1
  Rb  Rb2  1  0.66666700  0.33333300  0.45063918  1
  Rb  Rb3  1  0.33333300  0.66666700  0.95063918  1
  Rb  Rb4  1  0.00000000  0.00000000  0.14691170  1
  Rb  Rb5  1  0.00000000  0.00000000  0.64691170  1
  Rb  Rb6  1  0.00000000  0.00000000  0.85308830  1
  Rb  Rb7  1  0.00000000  0.00000000  0.35308830  1
  Rb  Rb8  1  0.33333300  0.66666700  0.75000000  1
  Rb  Rb9  1  0.66666700  0.33333300  0.25000000  1
  Cu  Cu0  1  0.33333300  0.66666700  0.25000000  1
  Cu  Cu1  1  0.66666700  0.33333300  0.75000000  1
  As  As0  1  0.33333300  0.66666700  0.37042435  1
  As  As1  1  0.66666700  0.33333300  0.87042435  1
  As  As2  1  0.66666700  0.33333300  0.62957565  1
  As  As3  1  0.33333300  0.66666700  0.12957565  1
loop_
_geom_bond_atom_site_label_1
_geom_bond_atom_site_label_2
_geom_bond_distance
_geom_bond_site_symmetry_2
Cu0 Rb9 3.469569 1_455
Cu0 Rb9 3.469569 1_565
Cu0 Rb9 3.469579 1_555
Cu1 Rb8 3.469569 1_655
Cu1 Rb8 3.469569 1_545
Cu1 Rb8 3.469579 1_555
As0 Cu0 2.317921 1_555
As0 Rb0 3.444159 1_555
As0 Rb7 3.485577 1_565
As0 Rb7 3.485583 1_665
As0 Rb7 3.485583 1_555
As0 Rb2 3.797598 1_455
As0 Rb2 3.797598 1_565
As0 Rb2 3.797607 1_555
As1 Cu1 2.317921 1_555
As1 Rb1 3.444159 1_556
As1 Rb6 3.485577 1_655
As1 Rb6 3.485583 1_555
As1 Rb6 3.485583 1_665
As1 Rb3 3.797598 1_655
As1 Rb3 3.797598 1_545
As1 Rb3 3.797607 1_555
As2 Cu1 2.317921 1_555
As2 Rb2 3.444159 1_555
As2 Rb5 3.485577 1_655
As2 Rb5 3.485583 1_555
As2 Rb5 3.485583 1_665
As2 Rb0 3.797598 1_655
As2 Rb0 3.797598 1_545
As2 Rb0 3.797607 1_555
As3 Cu0 2.317921 1_555
As3 Rb3 3.444159 1_554
As3 Rb4 3.485577 1_565
As3 Rb4 3.485583 1_665
As3 Rb4 3.485583 1_555
As3 Rb1 3.797598 1_455
As3 Rb1 3.797598 1_565
As3 Rb1 3.797607 1_555
