# generated using pymatgen
data_Cs3BS3
_symmetry_space_group_name_H-M   'P 1'
_cell_length_a   6.68219775
_cell_length_b   10.65143667
_cell_length_c   13.76263299
_cell_angle_alpha   77.97086948
_cell_angle_beta   90.00000000
_cell_angle_gamma   90.00000000
_symmetry_Int_Tables_number   1
_chemical_formula_structural   Cs3BS3
_chemical_formula_sum   'Cs12 B4 S12'
_cell_volume   958.04618001
_cell_formula_units_Z   4
loop_
 _symmetry_equiv_pos_site_id
 _symmetry_equiv_pos_as_xyz
  1  'x, y, z'
loop_
 _atom_site_type_symbol
 _atom_site_label
 _atom_site_symmetry_multiplicity
 _atom_site_fract_x
 _atom_site_fract_y
 _atom_site_fract_z
 _atom_site_occupancy
  Cs  Cs0  1  0.65147839  0.25286843  0.50923674  1
  Cs  Cs1  1  0.15147839  0.74713157  0.99076326  1
  Cs  Cs2  1  0.34852161  0.74713157  0.49076326  1
  Cs  Cs3  1  0.84852161  0.25286843  0.00923674  1
  Cs  Cs4  1  0.28270863  0.03706125  0.14225619  1
  Cs  Cs5  1  0.78270863  0.96293875  0.35774381  1
  Cs  Cs6  1  0.71729137  0.96293875  0.85774381  1
  Cs  Cs7  1  0.21729137  0.03706125  0.64225619  1
  Cs  Cs8  1  0.44991379  0.40104797  0.19960699  1
  Cs  Cs9  1  0.94991379  0.59895203  0.30039301  1
  Cs  Cs10  1  0.55008621  0.59895203  0.80039301  1
  Cs  Cs11  1  0.05008621  0.40104797  0.69960699  1
  B  B0  1  0.12801902  0.23374594  0.37279395  1
  B  B1  1  0.62801902  0.76625406  0.12720605  1
  B  B2  1  0.87198098  0.76625406  0.62720605  1
  B  B3  1  0.37198098  0.23374594  0.87279395  1
  S  S0  1  0.94653892  0.27596223  0.27032001  1
  S  S1  1  0.44653892  0.72403777  0.22967999  1
  S  S2  1  0.05346108  0.72403777  0.72967999  1
  S  S3  1  0.55346108  0.27596223  0.77032001  1
  S  S4  1  0.28670835  0.09103236  0.38283558  1
  S  S5  1  0.78670835  0.90896764  0.11716442  1
  S  S6  1  0.71329165  0.90896764  0.61716442  1
  S  S7  1  0.21329165  0.09103236  0.88283558  1
  S  S8  1  0.34445610  0.33791565  0.96243789  1
  S  S9  1  0.84445610  0.66208435  0.53756211  1
  S  S10  1  0.65554390  0.66208435  0.03756211  1
  S  S11  1  0.15554390  0.33791565  0.46243789  1
loop_
_geom_bond_atom_site_label_1
_geom_bond_atom_site_label_2
_geom_bond_distance
_geom_bond_site_symmetry_2
Cs0 S11 3.460404 1_555
Cs0 S11 3.512472 1_655
Cs0 S4 3.631646 1_555
Cs0 S6 3.677891 1_545
Cs0 S3 3.710652 1_555
Cs0 S0 3.797703 1_555
Cs1 S10 3.460404 1_456
Cs1 S10 3.512472 1_556
Cs1 S5 3.631646 1_456
Cs1 S7 3.677891 1_565
Cs1 S2 3.710652 1_555
Cs1 S1 3.797703 1_556
Cs2 S9 3.460404 1_555
Cs2 S9 3.512472 1_455
Cs2 S6 3.631646 1_555
Cs2 S4 3.677891 1_565
Cs2 S1 3.710652 1_555
Cs2 S2 3.797703 1_555
Cs3 S8 3.460404 1_654
Cs3 S8 3.512472 1_554
Cs3 S7 3.631646 1_654
Cs3 S5 3.677891 1_545
Cs3 S0 3.710652 1_555
Cs3 S3 3.797703 1_554
Cs4 S4 3.476682 1_555
Cs4 S1 3.477150 1_545
Cs4 S7 3.526649 1_554
Cs4 S5 3.627980 1_445
Cs4 S8 3.641181 1_554
Cs4 S5 3.676877 1_545
Cs5 S5 3.476682 1_555
Cs5 S0 3.477150 1_565
Cs5 S6 3.526649 1_555
Cs5 S4 3.627980 1_565
Cs5 S9 3.641181 1_555
Cs5 S4 3.676877 1_665
Cs6 S6 3.476682 1_555
Cs6 S3 3.477150 1_565
Cs6 S5 3.526649 1_556
Cs6 S7 3.627980 1_665
Cs6 S10 3.641181 1_556
Cs6 S7 3.676877 1_565
Cs7 S7 3.476682 1_555
Cs7 S2 3.477150 1_545
Cs7 S4 3.526649 1_555
Cs7 S6 3.627980 1_545
Cs7 S11 3.641181 1_555
Cs7 S6 3.676877 1_445
Cs8 S10 3.465224 1_555
Cs8 S8 3.538053 1_554
Cs8 S1 3.549790 1_555
Cs8 S0 3.632430 1_555
Cs8 S0 3.673681 1_455
Cs9 S11 3.465224 1_655
Cs9 S9 3.538053 1_555
Cs9 S0 3.549790 1_555
Cs9 S1 3.632430 1_655
Cs9 S1 3.673681 1_555
Cs10 S8 3.465224 1_555
Cs10 S10 3.538053 1_556
Cs10 S3 3.549790 1_555
Cs10 S2 3.632430 1_555
Cs10 S2 3.673681 1_655
Cs11 S9 3.465224 1_455
Cs11 S11 3.538053 1_555
Cs11 S2 3.549790 1_555
Cs11 S3 3.632430 1_455
Cs11 S3 3.673681 1_555
B0 S11 1.832385 1_555
B0 S4 1.834854 1_555
B0 S0 1.843218 1_455
B0 Cs8 3.422412 1_555
B1 S10 1.832385 1_555
B1 S5 1.834854 1_555
B1 S1 1.843218 1_555
B1 Cs9 3.422412 1_555
B2 S9 1.832385 1_555
B2 S6 1.834854 1_555
B2 S2 1.843218 1_655
B2 Cs10 3.422412 1_555
B3 S8 1.832385 1_555
B3 S7 1.834854 1_555
B3 S3 1.843218 1_555
B3 Cs11 3.422412 1_555
