# generated using pymatgen
data_Ta3Nb7(B2As)2
_symmetry_space_group_name_H-M   'P 1'
_cell_length_a   7.33863568
_cell_length_b   7.33863585
_cell_length_c   7.33658539
_cell_angle_alpha   129.43099698
_cell_angle_beta   129.43099418
_cell_angle_gamma   74.32341592
_symmetry_Int_Tables_number   1
_chemical_formula_structural   Ta3Nb7(B2As)2
_chemical_formula_sum   'Ta3 Nb7 B4 As2'
_cell_volume   229.76987079
_cell_formula_units_Z   1
loop_
 _symmetry_equiv_pos_site_id
 _symmetry_equiv_pos_as_xyz
  1  'x, y, z'
loop_
 _atom_site_type_symbol
 _atom_site_label
 _atom_site_symmetry_multiplicity
 _atom_site_fract_x
 _atom_site_fract_y
 _atom_site_fract_z
 _atom_site_occupancy
  Ta  Ta0  1  0.00033381  0.99971926  0.00035027  1
  Ta  Ta1  1  0.49971926  0.50033381  0.00035027  1
  Ta  Ta2  1  0.80333205  0.30333205  0.83191677  1
  Nb  Nb0  1  0.19576214  0.69576214  0.16713495  1
  Nb  Nb1  1  0.47178894  0.97178894  0.16735750  1
  Nb  Nb2  1  0.30457787  0.47087879  0.49959512  1
  Nb  Nb3  1  0.02834113  0.19549502  0.50031770  1
  Nb  Nb4  1  0.52909040  0.02909040  0.83369859  1
  Nb  Nb5  1  0.69549502  0.52834113  0.50031770  1
  Nb  Nb6  1  0.97087879  0.80457787  0.49959512  1
  B  B0  1  0.11603976  0.61603976  0.73226062  1
  B  B1  1  0.88281880  0.38281880  0.26424905  1
  B  B2  1  0.61742680  0.88520435  0.50161579  1
  B  B3  1  0.38520435  0.11742680  0.50161579  1
  As  As0  1  0.24912597  0.25006490  0.99981289  1
  As  As1  1  0.75006490  0.74912597  0.99981289  1
loop_
_geom_bond_atom_site_label_1
_geom_bond_atom_site_label_2
_geom_bond_distance
_geom_bond_site_symmetry_2
B0 B1 2.073890 1_455
B0 Nb3 2.417770 1_555
B0 Nb5 2.417770 1_455
B0 Nb2 2.420057 1_555
B0 Nb6 2.420057 1_455
B0 Nb0 2.511275 1_556
B0 Ta0 2.512395 1_556
B0 Ta1 2.512395 1_556
B0 Nb1 2.516361 1_556
B1 Nb6 2.419419 1_555
B1 Nb2 2.419419 1_655
B1 Nb5 2.431343 1_555
B1 Nb3 2.431343 1_655
B1 Ta2 2.494868 1_554
B1 Nb4 2.502865 1_554
B1 Ta0 2.508507 1_645
B1 Ta1 2.508508 1_555
B2 B3 2.058896 1_565
B2 Ta2 2.401286 1_565
B2 Nb4 2.416499 1_565
B2 Nb1 2.417202 1_555
B2 Nb0 2.423890 1_555
B2 Nb6 2.507330 1_555
B2 Ta0 2.509941 1_656
B2 Ta1 2.517257 1_555
B2 Nb5 2.520181 1_555
B3 Ta2 2.401286 1_555
B3 Nb4 2.416499 1_555
B3 Nb1 2.417202 1_545
B3 Nb0 2.423890 1_545
B3 Nb2 2.507330 1_555
B3 Ta1 2.509941 1_556
B3 Ta0 2.517257 1_545
B3 Nb3 2.520181 1_555
As0 Nb2 2.673814 1_556
As0 Nb3 2.675586 1_555
As0 Nb6 2.678302 1_445
As0 Ta2 2.678515 1_455
As0 Nb0 2.678902 1_556
As0 Nb1 2.680559 1_546
As0 Nb5 2.682186 1_556
As0 Nb4 2.684375 1_555
As0 Ta0 2.922312 1_546
As0 Ta1 2.926105 1_556
As1 Nb6 2.673814 1_556
As1 Nb5 2.675586 1_555
As1 Nb2 2.678302 1_555
As1 Ta2 2.678515 1_555
As1 Nb0 2.678902 1_656
As1 Nb1 2.680559 1_556
As1 Nb3 2.682186 1_666
As1 Nb4 2.684375 1_565
As1 Ta1 2.922312 1_556
As1 Ta0 2.926105 1_656
