# generated using pymatgen
data_KBa(MnP)4
_symmetry_space_group_name_H-M   'P 1'
_cell_length_a   7.15122198
_cell_length_b   7.15122108
_cell_length_c   5.32341095
_cell_angle_alpha   90.00000000
_cell_angle_beta   90.00000000
_cell_angle_gamma   136.31586625
_symmetry_Int_Tables_number   1
_chemical_formula_structural   KBa(MnP)4
_chemical_formula_sum   'K1 Ba1 Mn4 P4'
_cell_volume   188.03067692
_cell_formula_units_Z   1
loop_
 _symmetry_equiv_pos_site_id
 _symmetry_equiv_pos_as_xyz
  1  'x, y, z'
loop_
 _atom_site_type_symbol
 _atom_site_label
 _atom_site_symmetry_multiplicity
 _atom_site_fract_x
 _atom_site_fract_y
 _atom_site_fract_z
 _atom_site_occupancy
  K  K0  1  0.00000000  0.00000000  0.00000000  1
  Ba  Ba0  1  0.50000000  0.50000000  0.50000000  1
  Mn  Mn0  1  0.50000000  0.00000000  0.75243618  1
  Mn  Mn1  1  0.00000000  0.50000000  0.24756382  1
  Mn  Mn2  1  0.00000000  0.50000000  0.75243618  1
  Mn  Mn3  1  0.50000000  0.00000000  0.24756382  1
  P  P0  1  0.65009291  0.34990709  0.00000000  1
  P  P1  1  0.15280925  0.84719075  0.50000000  1
  P  P2  1  0.84719075  0.15280925  0.50000000  1
  P  P3  1  0.34990709  0.65009291  0.00000000  1
loop_
_geom_bond_atom_site_label_1
_geom_bond_atom_site_label_2
_geom_bond_distance
_geom_bond_site_symmetry_2
K0 P3 3.324041 1_555
K0 P0 3.324041 1_445
K0 P0 3.324042 1_555
K0 P3 3.324042 1_445
K0 P2 3.346656 1_455
K0 P2 3.346656 1_454
K0 P1 3.346656 1_544
K0 P1 3.346656 1_545
Ba0 P0 3.324920 1_555
Ba0 P0 3.324920 1_556
Ba0 P3 3.324920 1_555
Ba0 P3 3.324920 1_556
Ba0 P2 3.345782 1_565
Ba0 P1 3.345782 1_545
Ba0 P1 3.345783 1_655
Ba0 P2 3.345783 1_455
Mn0 P2 2.289187 1_555
Mn0 P1 2.289187 1_545
Mn0 P0 2.294711 1_556
Mn0 P3 2.294711 1_546
Mn1 P1 2.289187 1_555
Mn1 P2 2.289187 1_455
Mn1 P3 2.294711 1_555
Mn1 P0 2.294711 1_455
Mn2 P1 2.289187 1_555
Mn2 P2 2.289187 1_455
Mn2 P3 2.294711 1_556
Mn2 P0 2.294711 1_456
Mn3 P2 2.289187 1_555
Mn3 P1 2.289187 1_545
Mn3 P0 2.294711 1_555
Mn3 P3 2.294711 1_545
