# generated using pymatgen
data_Ta3Mn2SiN
_symmetry_space_group_name_H-M   'P 1'
_cell_length_a   7.95712993
_cell_length_b   7.95711848
_cell_length_c   7.95704400
_cell_angle_alpha   60.00020628
_cell_angle_beta   60.00012180
_cell_angle_gamma   60.00042646
_symmetry_Int_Tables_number   1
_chemical_formula_structural   Ta3Mn2SiN
_chemical_formula_sum   'Ta12 Mn8 Si4 N4'
_cell_volume   356.24724394
_cell_formula_units_Z   4
loop_
 _symmetry_equiv_pos_site_id
 _symmetry_equiv_pos_as_xyz
  1  'x, y, z'
loop_
 _atom_site_type_symbol
 _atom_site_label
 _atom_site_symmetry_multiplicity
 _atom_site_fract_x
 _atom_site_fract_y
 _atom_site_fract_z
 _atom_site_occupancy
  Ta  Ta0  1  0.80009584  0.80007898  0.19989968  1
  Ta  Ta1  1  0.19986822  0.19992281  0.80009414  1
  Ta  Ta2  1  0.80009961  0.19990816  0.80007571  1
  Ta  Ta3  1  0.19987511  0.80009902  0.19991980  1
  Ta  Ta4  1  0.19986707  0.80010265  0.80009770  1
  Ta  Ta5  1  0.80009569  0.19991489  0.19990313  1
  Ta  Ta6  1  0.44983750  0.44982755  0.05016657  1
  Ta  Ta7  1  0.05012548  0.05018763  0.44985635  1
  Ta  Ta8  1  0.44982432  0.05017162  0.44983487  1
  Ta  Ta9  1  0.05012532  0.44985779  0.05017669  1
  Ta  Ta10  1  0.05012838  0.44983119  0.44985667  1
  Ta  Ta11  1  0.44984039  0.05017304  0.05016282  1
  Mn  Mn0  1  0.73951882  0.42016002  0.42016719  1
  Mn  Mn1  1  0.42019661  0.73947746  0.42016982  1
  Mn  Mn2  1  0.42019461  0.42015913  0.73949131  1
  Mn  Mn3  1  0.42019491  0.42016069  0.42016850  1
  Mn  Mn4  1  0.51065205  0.82978155  0.82978543  1
  Mn  Mn5  1  0.82983766  0.51056793  0.82979928  1
  Mn  Mn6  1  0.82983902  0.82979780  0.51056696  1
  Mn  Mn7  1  0.82983947  0.82979565  0.82979265  1
  Si  Si0  1  0.12499323  0.62500262  0.62500135  1
  Si  Si1  1  0.62499576  0.12501335  0.62499522  1
  Si  Si2  1  0.62499158  0.62499657  0.12501630  1
  Si  Si3  1  0.62499780  0.62499980  0.62499917  1
  N  N0  1  0.62502084  0.12499313  0.12498953  1
  N  N1  1  0.12498145  0.62502276  0.12499347  1
  N  N2  1  0.12498205  0.12500005  0.62502058  1
  N  N3  1  0.12498121  0.12499619  0.12499810  1
loop_
_geom_bond_atom_site_label_1
_geom_bond_atom_site_label_2
_geom_bond_distance
_geom_bond_site_symmetry_2
Mn0 Si1 2.414444 1_555
Mn0 Si3 2.414450 1_555
Mn0 Si2 2.414478 1_555
Mn0 Mn1 2.540884 1_555
Mn0 Mn3 2.540894 1_555
Mn0 Mn2 2.540895 1_555
Mn0 Ta10 2.728249 1_655
Mn0 Ta7 2.728268 1_655
Mn0 Ta9 2.728322 1_655
Mn0 Ta2 2.785065 1_555
Mn0 Ta0 2.785145 1_555
Mn0 Ta5 2.785217 1_555
Mn1 Si3 2.414287 1_555
Mn1 Si2 2.414297 1_555
Mn1 Si0 2.414615 1_555
Mn1 Mn3 2.540853 1_555
Mn1 Mn2 2.540862 1_555
Mn1 Ta8 2.728598 1_565
Mn1 Ta11 2.728690 1_565
Mn1 Ta7 2.729064 1_565
Mn1 Ta0 2.785090 1_555
Mn1 Ta4 2.785335 1_555
Mn1 Ta3 2.785484 1_555
Mn2 Si1 2.414328 1_555
Mn2 Si3 2.414347 1_555
Mn2 Si0 2.414672 1_555
Mn2 Mn3 2.540858 1_555
Mn2 Ta6 2.728514 1_556
Mn2 Ta11 2.728524 1_556
Mn2 Ta9 2.728954 1_556
Mn2 Ta2 2.785084 1_555
Mn2 Ta4 2.785412 1_555
Mn2 Ta1 2.785501 1_555
Mn3 Si1 2.414274 1_555
Mn3 Si2 2.414296 1_555
Mn3 Si0 2.414597 1_555
Mn3 Ta8 2.728612 1_555
Mn3 Ta6 2.728639 1_555
Mn3 Ta10 2.729022 1_555
Mn3 Ta5 2.785131 1_555
Mn3 Ta1 2.785375 1_555
Mn3 Ta3 2.785454 1_555
Mn4 Si3 2.414185 1_555
Mn4 Si2 2.414216 1_556
Mn4 Si1 2.414251 1_565
Mn4 Mn7 2.539901 1_555
Mn4 Mn5 2.539927 1_555
Mn4 Mn6 2.539929 1_555
Mn4 Ta3 2.729545 1_556
Mn4 Ta1 2.729628 1_565
Mn4 Ta4 2.729662 1_555
Mn4 Ta11 2.786136 1_566
Mn4 Ta8 2.786140 1_565
Mn4 Ta6 2.786142 1_556
Mn5 Si0 2.414133 1_655
Mn5 Si3 2.414457 1_555
Mn5 Si2 2.414495 1_556
Mn5 Mn7 2.540114 1_555
Mn5 Mn6 2.540156 1_555
Mn5 Ta1 2.728663 1_655
Mn5 Ta5 2.729001 1_556
Mn5 Ta2 2.729110 1_555
Mn5 Ta10 2.785792 1_655
Mn5 Ta9 2.785801 1_656
Mn5 Ta6 2.786222 1_556
Mn6 Si0 2.414130 1_655
Mn6 Si3 2.414459 1_555
Mn6 Si1 2.414502 1_565
Mn6 Mn7 2.540086 1_555
Mn6 Ta3 2.728675 1_655
Mn6 Ta5 2.729106 1_565
Mn6 Ta0 2.729150 1_555
Mn6 Ta7 2.785885 1_665
Mn6 Ta10 2.785901 1_655
Mn6 Ta8 2.786304 1_565
Mn7 Si0 2.414105 1_655
Mn7 Si1 2.414498 1_565
Mn7 Si2 2.414525 1_556
Mn7 Ta4 2.728619 1_655
Mn7 Ta0 2.728977 1_556
Mn7 Ta2 2.729062 1_565
Mn7 Ta9 2.785776 1_656
Mn7 Ta7 2.785776 1_665
Mn7 Ta11 2.786243 1_566
Si0 Ta4 2.799769 1_555
Si0 Ta3 2.799829 1_555
Si0 Ta1 2.799857 1_555
Si0 Ta9 2.800482 1_556
Si0 Ta10 2.800530 1_555
Si0 Ta7 2.800579 1_565
Si1 Ta2 2.799807 1_555
Si1 Ta5 2.799877 1_555
Si1 Ta1 2.800144 1_555
Si1 Ta7 2.800253 1_655
Si1 Ta11 2.800459 1_556
Si1 Ta8 2.800508 1_555
Si2 Ta0 2.799764 1_555
Si2 Ta5 2.799860 1_555
Si2 Ta3 2.800080 1_555
Si2 Ta9 2.800270 1_655
Si2 Ta6 2.800499 1_555
Si2 Ta11 2.800541 1_565
Si3 Ta2 2.799898 1_555
Si3 Ta0 2.799909 1_555
Si3 Ta4 2.800145 1_555
Si3 Ta10 2.800269 1_655
Si3 Ta6 2.800469 1_556
Si3 Ta8 2.800532 1_565
N0 Ta11 2.160158 1_555
N0 Ta6 2.160222 1_555
N0 Ta8 2.160279 1_555
N0 Ta5 2.160488 1_555
N0 Ta2 2.160507 1_554
N0 Ta0 2.160530 1_545
N1 Ta9 2.160196 1_555
N1 Ta0 2.160337 1_455
N1 Ta6 2.160368 1_555
N1 Ta10 2.160377 1_555
N1 Ta4 2.160403 1_554
N1 Ta3 2.160407 1_555
N2 Ta7 2.160160 1_555
N2 Ta10 2.160169 1_555
N2 Ta8 2.160266 1_555
N2 Ta2 2.160310 1_455
N2 Ta1 2.160316 1_555
N2 Ta4 2.160429 1_545
N3 Ta5 2.160340 1_455
N3 Ta7 2.160345 1_555
N3 Ta9 2.160378 1_555
N3 Ta11 2.160390 1_555
N3 Ta3 2.160435 1_545
N3 Ta1 2.160461 1_554
