# generated using pymatgen
data_SbRh(SeO3)4
_symmetry_space_group_name_H-M   'P 1'
_cell_length_a   8.10038723
_cell_length_b   7.93776520
_cell_length_c   8.03222617
_cell_angle_alpha   89.39424945
_cell_angle_beta   90.00000000
_cell_angle_gamma   90.00000000
_symmetry_Int_Tables_number   1
_chemical_formula_structural   SbRh(SeO3)4
_chemical_formula_sum   'Sb2 Rh2 Se8 O24'
_cell_volume   516.43502102
_cell_formula_units_Z   2
loop_
 _symmetry_equiv_pos_site_id
 _symmetry_equiv_pos_as_xyz
  1  'x, y, z'
loop_
 _atom_site_type_symbol
 _atom_site_label
 _atom_site_symmetry_multiplicity
 _atom_site_fract_x
 _atom_site_fract_y
 _atom_site_fract_z
 _atom_site_occupancy
  Sb  Sb0  1  0.00000000  0.00000000  0.50000000  1
  Sb  Sb1  1  0.50000000  0.00000000  0.00000000  1
  Rh  Rh0  1  0.00000000  0.50000000  0.00000000  1
  Rh  Rh1  1  0.50000000  0.50000000  0.50000000  1
  Se  Se0  1  0.33061217  0.65176362  0.17248862  1
  Se  Se1  1  0.83061217  0.34823638  0.32751138  1
  Se  Se2  1  0.66791061  0.82038651  0.65926621  1
  Se  Se3  1  0.16791061  0.17961349  0.84073379  1
  Se  Se4  1  0.66938783  0.34823638  0.82751138  1
  Se  Se5  1  0.16938783  0.65176362  0.67248862  1
  Se  Se6  1  0.33208939  0.17961349  0.34073379  1
  Se  Se7  1  0.83208939  0.82038651  0.15926621  1
  O  O0  1  0.24659550  0.53481653  0.01860851  1
  O  O1  1  0.74659550  0.46518347  0.48139149  1
  O  O2  1  0.75876536  0.98209180  0.53920500  1
  O  O3  1  0.25876536  0.01790820  0.96079500  1
  O  O4  1  0.52907600  0.95410978  0.75789720  1
  O  O5  1  0.46445498  0.50548801  0.25125538  1
  O  O6  1  0.96445498  0.49451199  0.24874462  1
  O  O7  1  0.02907600  0.04589022  0.74210280  1
  O  O8  1  0.98047571  0.24288834  0.45302383  1
  O  O9  1  0.54098947  0.75083129  0.50878336  1
  O  O10  1  0.48047571  0.75711166  0.04697617  1
  O  O11  1  0.04098947  0.24916871  0.99121664  1
  O  O12  1  0.75340450  0.46518347  0.98139149  1
  O  O13  1  0.25340450  0.53481653  0.51860851  1
  O  O14  1  0.24123464  0.01790820  0.46079500  1
  O  O15  1  0.74123464  0.98209180  0.03920500  1
  O  O16  1  0.47092400  0.04589022  0.24210280  1
  O  O17  1  0.53554502  0.49451199  0.74874462  1
  O  O18  1  0.03554502  0.50548801  0.75125538  1
  O  O19  1  0.97092400  0.95410978  0.25789720  1
  O  O20  1  0.01952429  0.75711166  0.54697617  1
  O  O21  1  0.45901053  0.24916871  0.49121664  1
  O  O22  1  0.51952429  0.24288834  0.95302383  1
  O  O23  1  0.95901053  0.75083129  0.00878336  1
loop_
_geom_bond_atom_site_label_1
_geom_bond_atom_site_label_2
_geom_bond_distance
_geom_bond_site_symmetry_2
O0 Se0 1.696133 1_555
O0 Rh0 2.022294 1_555
O1 Se1 1.696133 1_555
O1 Rh1 2.022294 1_555
O2 Se2 1.758700 1_555
O2 Sb0 1.984164 1_665
O3 Se3 1.758700 1_555
O3 Sb1 1.984164 1_556
O4 Se2 1.742661 1_555
O4 Sb1 1.996172 1_566
O5 Se0 1.705386 1_555
O5 Rh1 2.018627 1_555
O6 Se1 1.705386 1_555
O6 Rh0 2.018627 1_655
O7 Se3 1.742661 1_555
O7 Sb0 1.996172 1_555
O8 Se1 1.780867 1_555
O8 Sb0 1.967016 1_655
O9 Se2 1.684321 1_555
O9 Rh1 2.020503 1_555
O10 Se0 1.780867 1_555
O10 Sb1 1.967016 1_565
O11 Se3 1.684321 1_555
O11 Rh0 2.020503 1_556
O12 Se4 1.696133 1_555
O12 Rh0 2.022294 1_656
O13 Se5 1.696133 1_555
O13 Rh1 2.022294 1_555
O14 Se6 1.758700 1_555
O14 Sb0 1.984164 1_555
O15 Se7 1.758700 1_555
O15 Sb1 1.984164 1_565
O16 Se6 1.742661 1_555
O16 Sb1 1.996172 1_555
O17 Se4 1.705386 1_555
O17 Rh1 2.018627 1_555
O18 Se5 1.705386 1_555
O18 Rh0 2.018627 1_556
O19 Se7 1.742661 1_555
O19 Sb0 1.996172 1_665
O20 Se5 1.780867 1_555
O20 Sb0 1.967016 1_565
O21 Se6 1.684321 1_555
O21 Rh1 2.020503 1_555
O22 Se4 1.780867 1_555
O22 Sb1 1.967016 1_556
O23 Se7 1.684321 1_555
O23 Rh0 2.020503 1_655
