# generated using pymatgen
data_Ba10TaReN10
_symmetry_space_group_name_H-M   'P 1'
_cell_length_a   8.17679451
_cell_length_b   8.17679522
_cell_length_c   9.56142516
_cell_angle_alpha   76.32950175
_cell_angle_beta   76.32950687
_cell_angle_gamma   97.07187825
_symmetry_Int_Tables_number   1
_chemical_formula_structural   Ba10TaReN10
_chemical_formula_sum   'Ba10 Ta1 Re1 N10'
_cell_volume   592.62650055
_cell_formula_units_Z   1
loop_
 _symmetry_equiv_pos_site_id
 _symmetry_equiv_pos_as_xyz
  1  'x, y, z'
loop_
 _atom_site_type_symbol
 _atom_site_label
 _atom_site_symmetry_multiplicity
 _atom_site_fract_x
 _atom_site_fract_y
 _atom_site_fract_z
 _atom_site_occupancy
  Ba  Ba0  1  0.39166432  0.39191721  0.38156692  1
  Ba  Ba1  1  0.60808279  0.60833568  0.61843308  1
  Ba  Ba2  1  0.66795222  0.66763924  0.00709688  1
  Ba  Ba3  1  0.33236076  0.33204778  0.99290312  1
  Ba  Ba4  1  0.92309147  0.91746111  0.20487178  1
  Ba  Ba5  1  0.08253889  0.07690853  0.79512822  1
  Ba  Ba6  1  0.55754151  0.09518834  0.75114947  1
  Ba  Ba7  1  0.90481166  0.44245849  0.24885053  1
  Ba  Ba8  1  0.43337013  0.89634155  0.25048292  1
  Ba  Ba9  1  0.10365845  0.56662987  0.74951708  1
  Ta  Ta0  1  0.24324015  0.75675985  1.00000000  1
  Re  Re0  1  0.75746008  0.24253992  0.00000000  1
  N  N0  1  0.65386714  0.65488903  0.30924282  1
  N  N1  1  0.34511097  0.34613286  0.69075718  1
  N  N2  1  0.71449732  0.02102768  0.99000778  1
  N  N3  1  0.97897232  0.28550268  0.00999222  1
  N  N4  1  0.28475481  0.99213432  0.01209528  1
  N  N5  1  0.00786568  0.71524519  0.98790472  1
  N  N6  1  0.40174671  0.73397009  0.82048855  1
  N  N7  1  0.26602991  0.59825329  0.17951045  1
  N  N8  1  0.60994782  0.26856510  0.16632084  1
  N  N9  1  0.73143490  0.39005218  0.83367816  1
loop_
_geom_bond_atom_site_label_1
_geom_bond_atom_site_label_2
_geom_bond_distance
_geom_bond_site_symmetry_2
Ba0 N0 2.675763 1_555
Ba0 N7 2.731016 1_555
Ba0 N1 2.816845 1_555
Ba0 N8 2.850757 1_555
Ba1 N1 2.675763 1_555
Ba1 N6 2.731010 1_555
Ba1 N0 2.816845 1_555
Ba1 N9 2.850750 1_555
Ba2 N5 2.714597 1_654
Ba2 N2 2.828054 1_564
Ba2 N0 2.840343 1_555
Ba2 N9 3.135751 1_554
Ba2 N6 3.144007 1_554
Ba2 N8 3.181233 1_555
Ba2 N7 3.221510 1_555
Ba3 N4 2.714597 1_546
Ba3 N3 2.828054 1_456
Ba3 N1 2.840343 1_555
Ba3 N8 3.135745 1_556
Ba3 N7 3.144001 1_556
Ba3 N9 3.181235 1_555
Ba3 N6 3.221512 1_555
Ba4 N0 2.690111 1_555
Ba4 N5 2.956680 1_654
Ba4 N4 2.993747 1_655
Ba4 N2 3.006077 1_564
Ba4 N3 3.057076 1_565
Ba5 N1 2.690111 1_555
Ba5 N4 2.956680 1_546
Ba5 N5 2.993747 1_545
Ba5 N3 3.006077 1_456
Ba5 N2 3.057076 1_455
Ba6 N4 2.797014 1_546
Ba6 N2 2.855369 1_555
Ba6 N1 2.890093 1_555
Ba6 N6 2.921457 1_545
Ba6 N9 3.007167 1_555
Ba7 N5 2.797014 1_654
Ba7 N3 2.855369 1_555
Ba7 N0 2.890093 1_555
Ba7 N7 2.921456 1_655
Ba7 N8 3.007172 1_555
Ba8 N4 2.825821 1_555
Ba8 N2 2.835998 1_564
Ba8 N0 2.880134 1_555
Ba8 N7 2.945032 1_555
Ba8 N8 3.034269 1_565
Ba9 N5 2.825821 1_555
Ba9 N3 2.835998 1_456
Ba9 N1 2.880134 1_555
Ba9 N6 2.945027 1_555
Ba9 N9 3.034270 1_455
N2 Re0 1.831444 1_556
N3 Re0 1.831444 1_555
N4 Ta0 1.948235 1_554
N5 Ta0 1.948235 1_555
N6 Ta0 1.954397 1_555
N7 Ta0 1.954390 1_554
N8 Re0 1.829096 1_555
N9 Re0 1.829103 1_556
