# generated using pymatgen
data_K2LiLuBi2
_symmetry_space_group_name_H-M   'P 1'
_cell_length_a   10.95837500
_cell_length_b   10.95837488
_cell_length_c   7.14817597
_cell_angle_alpha   90.00000000
_cell_angle_beta   90.00000000
_cell_angle_gamma   98.62586085
_symmetry_Int_Tables_number   1
_chemical_formula_structural   K2LiLuBi2
_chemical_formula_sum   'K8 Li4 Lu4 Bi8'
_cell_volume   848.68622815
_cell_formula_units_Z   4
loop_
 _symmetry_equiv_pos_site_id
 _symmetry_equiv_pos_as_xyz
  1  'x, y, z'
loop_
 _atom_site_type_symbol
 _atom_site_label
 _atom_site_symmetry_multiplicity
 _atom_site_fract_x
 _atom_site_fract_y
 _atom_site_fract_z
 _atom_site_occupancy
  K  K0  1  0.57162192  0.92837808  0.75000000  1
  K  K1  1  0.92837808  0.57162192  0.25000000  1
  K  K2  1  0.42837808  0.07162192  0.25000000  1
  K  K3  1  0.07162192  0.42837808  0.75000000  1
  K  K4  1  0.67532809  0.32467191  0.77911820  1
  K  K5  1  0.82467191  0.17532809  0.27911820  1
  K  K6  1  0.32467191  0.67532809  0.22088180  1
  K  K7  1  0.17532809  0.82467191  0.72088180  1
  Li  Li0  1  0.62244641  0.62244641  0.00000000  1
  Li  Li1  1  0.87755359  0.87755359  0.50000000  1
  Li  Li2  1  0.37755359  0.37755359  0.00000000  1
  Li  Li3  1  0.12244641  0.12244641  0.50000000  1
  Lu  Lu0  1  0.87100877  0.87100877  0.00000000  1
  Lu  Lu1  1  0.62899123  0.62899123  0.50000000  1
  Lu  Lu2  1  0.12899123  0.12899123  0.00000000  1
  Lu  Lu3  1  0.37100877  0.37100877  0.50000000  1
  Bi  Bi0  1  0.35113027  0.14886973  0.75000000  1
  Bi  Bi1  1  0.14886973  0.35113027  0.25000000  1
  Bi  Bi2  1  0.64886973  0.85113027  0.25000000  1
  Bi  Bi3  1  0.85113027  0.64886973  0.75000000  1
  Bi  Bi4  1  0.89866383  0.10133617  0.76160672  1
  Bi  Bi5  1  0.60133617  0.39866383  0.26160672  1
  Bi  Bi6  1  0.10133617  0.89866383  0.23839328  1
  Bi  Bi7  1  0.39866383  0.60133617  0.73839328  1
loop_
_geom_bond_atom_site_label_1
_geom_bond_atom_site_label_2
_geom_bond_distance
_geom_bond_site_symmetry_2
Bi0 Lu3 3.001275 1_555
Bi0 Lu2 3.001275 1_556
Bi0 Li2 3.056102 1_556
Bi0 Li3 3.056102 1_555
Bi0 K0 3.664365 1_545
Bi0 K7 3.784609 1_545
Bi0 K4 3.784609 1_555
Bi0 K2 3.797659 1_556
Bi0 K2 3.797659 1_555
Bi1 Lu2 3.001275 1_555
Bi1 Lu3 3.001275 1_555
Bi1 Li3 3.056102 1_555
Bi1 Li2 3.056102 1_555
Bi1 K1 3.664365 1_455
Bi1 K6 3.784609 1_555
Bi1 K5 3.784609 1_455
Bi1 K3 3.797659 1_555
Bi1 K3 3.797659 1_554
Bi2 Lu1 3.001275 1_555
Bi2 Lu0 3.001275 1_555
Bi2 Li0 3.056102 1_555
Bi2 Li1 3.056102 1_555
Bi2 K2 3.664365 1_565
Bi2 K5 3.784609 1_565
Bi2 K6 3.784609 1_555
Bi2 K0 3.797659 1_555
Bi2 K0 3.797659 1_554
Bi3 Lu0 3.001275 1_556
Bi3 Lu1 3.001275 1_555
Bi3 Li1 3.056102 1_555
Bi3 Li0 3.056102 1_556
Bi3 K3 3.664365 1_655
Bi3 K4 3.784609 1_555
Bi3 K7 3.784609 1_655
Bi3 K1 3.797659 1_555
Bi3 K1 3.797659 1_556
Bi4 Lu0 3.022734 1_546
Bi4 Lu2 3.022734 1_656
Bi4 Li1 3.064968 1_545
Bi4 Li3 3.064968 1_655
Bi4 K5 3.661571 1_555
Bi4 K4 3.713742 1_555
Bi4 K3 3.795475 1_655
Bi4 K0 3.795475 1_545
Bi4 K5 3.898288 1_556
Bi5 Lu1 3.022734 1_555
Bi5 Lu3 3.022734 1_555
Bi5 Li0 3.064968 1_555
Bi5 Li2 3.064968 1_555
Bi5 K4 3.661571 1_554
Bi5 K5 3.713742 1_555
Bi5 K2 3.795475 1_555
Bi5 K1 3.795475 1_555
Bi5 K4 3.898288 1_555
Bi6 Lu2 3.022734 1_565
Bi6 Lu0 3.022734 1_455
Bi6 Li3 3.064968 1_565
Bi6 Li1 3.064968 1_455
Bi6 K7 3.661571 1_555
Bi6 K6 3.713742 1_555
Bi6 K1 3.795475 1_455
Bi6 K2 3.795475 1_565
Bi6 K7 3.898288 1_554
Bi7 Lu3 3.022734 1_555
Bi7 Lu1 3.022734 1_555
Bi7 Li2 3.064968 1_556
Bi7 Li0 3.064968 1_556
Bi7 K6 3.661571 1_556
Bi7 K7 3.713742 1_555
Bi7 K0 3.795475 1_555
Bi7 K3 3.795475 1_555
Bi7 K6 3.898288 1_555
