# generated using pymatgen
data_Rb4NbMoBr12
_symmetry_space_group_name_H-M   'P 1'
_cell_length_a   7.50928475
_cell_length_b   7.50928475
_cell_length_c   10.65712879
_cell_angle_alpha   90.00000000
_cell_angle_beta   90.00000000
_cell_angle_gamma   90.00000000
_symmetry_Int_Tables_number   1
_chemical_formula_structural   Rb4NbMoBr12
_chemical_formula_sum   'Rb4 Nb1 Mo1 Br12'
_cell_volume   600.94864527
_cell_formula_units_Z   1
loop_
 _symmetry_equiv_pos_site_id
 _symmetry_equiv_pos_as_xyz
  1  'x, y, z'
loop_
 _atom_site_type_symbol
 _atom_site_label
 _atom_site_symmetry_multiplicity
 _atom_site_fract_x
 _atom_site_fract_y
 _atom_site_fract_z
 _atom_site_occupancy
  Rb  Rb0  1  0.50000000  0.00000000  0.72660072  1
  Rb  Rb1  1  0.00000000  0.50000000  0.27339928  1
  Rb  Rb2  1  0.50000000  0.00000000  0.27339928  1
  Rb  Rb3  1  0.00000000  0.50000000  0.72660072  1
  Nb  Nb0  1  0.00000000  0.00000000  0.00000000  1
  Mo  Mo0  1  0.50000000  0.50000000  0.50000000  1
  Br  Br0  1  0.00000000  0.00000000  0.76009719  1
  Br  Br1  1  0.50000000  0.50000000  0.25671689  1
  Br  Br2  1  0.74388158  0.74388158  0.50000000  1
  Br  Br3  1  0.24017009  0.24017009  0.00000000  1
  Br  Br4  1  0.74388158  0.25611842  0.50000000  1
  Br  Br5  1  0.24017009  0.75982991  0.00000000  1
  Br  Br6  1  0.00000000  0.00000000  0.23990281  1
  Br  Br7  1  0.50000000  0.50000000  0.74328311  1
  Br  Br8  1  0.25611842  0.25611842  0.50000000  1
  Br  Br9  1  0.75982991  0.75982991  0.00000000  1
  Br  Br10  1  0.25611842  0.74388158  0.50000000  1
  Br  Br11  1  0.75982991  0.24017009  0.00000000  1
loop_
_geom_bond_atom_site_label_1
_geom_bond_atom_site_label_2
_geom_bond_distance
_geom_bond_site_symmetry_2
Br0 Nb0 2.556675 1_556
Br0 Rb0 3.771574 1_455
Br0 Rb0 3.771574 1_555
Br0 Rb3 3.771574 1_545
Br0 Rb3 3.771574 1_555
Br1 Mo0 2.592699 1_555
Br1 Rb1 3.758849 1_655
Br1 Rb2 3.758849 1_555
Br1 Rb2 3.758849 1_565
Br1 Rb1 3.758849 1_555
Br2 Mo0 2.589957 1_555
Br2 Rb1 3.589526 1_655
Br2 Rb0 3.589526 1_565
Br2 Rb3 3.589526 1_655
Br2 Rb2 3.589526 1_565
Br3 Nb0 2.550542 1_555
Br3 Rb0 3.943213 1_554
Br3 Rb3 3.943213 1_554
Br3 Rb2 3.943213 1_555
Br3 Rb1 3.943213 1_555
Br4 Mo0 2.589957 1_555
Br4 Rb0 3.589526 1_555
Br4 Rb2 3.589526 1_555
Br4 Rb1 3.589526 1_655
Br4 Rb3 3.589526 1_655
Br5 Nb0 2.550542 1_565
Br5 Rb3 3.943213 1_554
Br5 Rb1 3.943213 1_555
Br5 Rb0 3.943213 1_564
Br5 Rb2 3.943213 1_565
Br6 Nb0 2.556675 1_555
Br6 Rb1 3.771574 1_555
Br6 Rb2 3.771574 1_555
Br6 Rb2 3.771574 1_455
Br6 Rb1 3.771574 1_545
Br7 Mo0 2.592699 1_555
Br7 Rb3 3.758849 1_555
Br7 Rb0 3.758849 1_565
Br7 Rb3 3.758849 1_655
Br7 Rb0 3.758849 1_555
Br8 Mo0 2.589957 1_555
Br8 Rb2 3.589526 1_555
Br8 Rb1 3.589526 1_555
Br8 Rb0 3.589526 1_555
Br8 Rb3 3.589526 1_555
Br9 Nb0 2.550542 1_665
Br9 Rb3 3.943213 1_654
Br9 Rb0 3.943213 1_564
Br9 Rb1 3.943213 1_655
Br9 Rb2 3.943213 1_565
Br10 Mo0 2.589957 1_555
Br10 Rb1 3.589526 1_555
Br10 Rb3 3.589526 1_555
Br10 Rb2 3.589526 1_565
Br10 Rb0 3.589526 1_565
Br11 Nb0 2.550542 1_655
Br11 Rb0 3.943213 1_554
Br11 Rb2 3.943213 1_555
Br11 Rb3 3.943213 1_654
Br11 Rb1 3.943213 1_655
