# generated using pymatgen
data_CdIn2(Ni10P3)2
_symmetry_space_group_name_H-M   'P 1'
_cell_length_a   7.83130885
_cell_length_b   7.83130899
_cell_length_c   7.83130772
_cell_angle_alpha   59.99999305
_cell_angle_beta   59.99999246
_cell_angle_gamma   59.99999793
_symmetry_Int_Tables_number   1
_chemical_formula_structural   CdIn2(Ni10P3)2
_chemical_formula_sum   'Cd1 In2 Ni20 P6'
_cell_volume   339.61584874
_cell_formula_units_Z   1
loop_
 _symmetry_equiv_pos_site_id
 _symmetry_equiv_pos_as_xyz
  1  'x, y, z'
loop_
 _atom_site_type_symbol
 _atom_site_label
 _atom_site_symmetry_multiplicity
 _atom_site_fract_x
 _atom_site_fract_y
 _atom_site_fract_z
 _atom_site_occupancy
  Cd  Cd0  1  0.00000000  0.00000000  0.00000000  1
  In  In0  1  0.75000000  0.75000000  0.75000000  1
  In  In1  1  0.25000000  0.25000000  0.25000000  1
  Ni  Ni0  1  0.38445841  0.84662176  0.38445841  1
  Ni  Ni1  1  0.38445841  0.38445841  0.84662176  1
  Ni  Ni2  1  0.34968845  0.00000000  0.65031155  1
  Ni  Ni3  1  0.00000000  0.34968845  0.65031155  1
  Ni  Ni4  1  0.15337824  0.61554159  0.61554159  1
  Ni  Ni5  1  0.65031155  0.00000000  0.00000000  1
  Ni  Ni6  1  0.84662176  0.38445841  0.38445841  1
  Ni  Ni7  1  0.65031155  0.34968845  0.00000000  1
  Ni  Ni8  1  1.00000000  0.34968845  1.00000000  1
  Ni  Ni9  1  0.34968845  0.65031155  1.00000000  1
  Ni  Ni10  1  1.00000000  1.00000000  0.34968845  1
  Ni  Ni11  1  0.61554159  0.15337824  0.61554159  1
  Ni  Ni12  1  0.65031155  1.00000000  0.34968845  1
  Ni  Ni13  1  0.00000000  0.65031155  0.00000000  1
  Ni  Ni14  1  0.61554159  0.61554159  0.15337824  1
  Ni  Ni15  1  1.00000000  0.65031155  0.34968845  1
  Ni  Ni16  1  0.34968845  1.00000000  1.00000000  1
  Ni  Ni17  1  0.00000000  0.00000000  0.65031155  1
  Ni  Ni18  1  0.38445841  0.38445841  0.38445841  1
  Ni  Ni19  1  0.61554159  0.61554159  0.61554159  1
  P  P0  1  0.26605322  0.26605322  0.73394678  1
  P  P1  1  0.26605322  0.73394678  0.26605322  1
  P  P2  1  0.73394678  0.26605322  0.26605322  1
  P  P3  1  0.26605322  0.73394678  0.73394678  1
  P  P4  1  0.73394678  0.26605322  0.73394678  1
  P  P5  1  0.73394678  0.73394678  0.26605322  1
loop_
_geom_bond_atom_site_label_1
_geom_bond_atom_site_label_2
_geom_bond_distance
_geom_bond_site_symmetry_2
Cd0 Ni12 2.738518 1_445
Cd0 Ni2 2.738518 1_554
Cd0 Ni15 2.738518 1_445
Cd0 Ni3 2.738518 1_554
Cd0 Ni10 2.738518 1_445
Cd0 Ni17 2.738518 1_554
Cd0 Ni7 2.738518 1_455
Cd0 Ni9 2.738518 1_544
Cd0 Ni16 2.738518 1_544
Cd0 Ni5 2.738518 1_455
Cd0 Ni8 2.738518 1_454
Cd0 Ni13 2.738518 1_545
Cd0 P0 2.946577 1_554
Cd0 P5 2.946577 1_445
Cd0 P2 2.946577 1_455
Cd0 P1 2.946577 1_545
Cd0 P3 2.946577 1_544
Cd0 P4 2.946577 1_454
In0 Ni19 2.579277 1_555
In0 Ni14 2.579295 1_556
In0 Ni4 2.579296 1_655
In0 Ni11 2.579296 1_565
In1 Ni18 2.579277 1_555
In1 Ni1 2.579295 1_554
In1 Ni6 2.579296 1_455
In1 Ni0 2.579296 1_545
Ni0 P1 2.234842 1_555
Ni0 P3 2.234861 1_555
Ni0 P5 2.234862 1_555
Ni1 P0 2.234842 1_555
Ni1 P4 2.234862 1_555
Ni1 P3 2.234862 1_555
Ni2 P3 2.184067 1_545
Ni2 P0 2.184067 1_555
Ni3 P4 2.184067 1_455
Ni3 P0 2.184067 1_555
Ni4 P3 2.234842 1_555
Ni4 P1 2.234861 1_555
Ni4 P0 2.234862 1_555
Ni5 P4 2.184067 1_554
Ni5 P5 2.184067 1_545
Ni6 P2 2.234842 1_555
Ni6 P4 2.234861 1_555
Ni6 P5 2.234862 1_555
Ni7 P2 2.184067 1_555
Ni7 P4 2.184067 1_554
Ni8 P2 2.184067 1_556
Ni8 P0 2.184067 1_655
Ni9 P1 2.184067 1_556
Ni9 P3 2.184067 1_555
Ni10 P1 2.184067 1_655
Ni10 P2 2.184067 1_565
Ni11 P4 2.234842 1_555
Ni11 P2 2.234861 1_555
Ni11 P0 2.234862 1_555
Ni12 P2 2.184067 1_565
Ni12 P5 2.184067 1_555
Ni13 P3 2.184067 1_554
Ni13 P5 2.184067 1_455
Ni14 P5 2.234842 1_555
Ni14 P1 2.234862 1_555
Ni14 P2 2.234862 1_555
Ni15 P1 2.184067 1_655
Ni15 P5 2.184067 1_555
Ni16 P1 2.184067 1_556
Ni16 P0 2.184067 1_565
Ni17 P4 2.184067 1_455
Ni17 P3 2.184067 1_545
Ni18 P0 2.234861 1_555
Ni18 P2 2.234861 1_555
Ni18 P1 2.234861 1_555
Ni19 P5 2.234861 1_555
Ni19 P3 2.234861 1_555
Ni19 P4 2.234861 1_555
