# generated using pymatgen
data_KCdInAu4
_symmetry_space_group_name_H-M   'P 1'
_cell_length_a   7.48025266
_cell_length_b   7.48025279
_cell_length_c   7.48025342
_cell_angle_alpha   108.29766828
_cell_angle_beta   108.25919222
_cell_angle_gamma   111.88407738
_symmetry_Int_Tables_number   1
_chemical_formula_structural   KCdInAu4
_chemical_formula_sum   'K2 Cd2 In2 Au8'
_cell_volume   321.77049936
_cell_formula_units_Z   2
loop_
 _symmetry_equiv_pos_site_id
 _symmetry_equiv_pos_as_xyz
  1  'x, y, z'
loop_
 _atom_site_type_symbol
 _atom_site_label
 _atom_site_symmetry_multiplicity
 _atom_site_fract_x
 _atom_site_fract_y
 _atom_site_fract_z
 _atom_site_occupancy
  K  K0  1  0.75044512  0.75000000  0.00044512  1
  K  K1  1  0.25044512  0.25000000  0.00044512  1
  Cd  Cd0  1  0.85172470  0.35297787  0.20470157  1
  Cd  Cd1  1  0.35172470  0.14702213  0.49874682  1
  In  In0  1  0.64448378  0.85508506  0.49956885  1
  In  In1  1  0.14448378  0.64491494  0.78939872  1
  Au  Au0  1  0.68592224  0.48567253  0.50153166  1
  Au  Au1  1  0.48627062  0.98508610  0.80038352  1
  Au  Au2  1  0.98627062  0.18588711  0.50118452  1
  Au  Au3  1  0.18592224  0.68439057  0.20024770  1
  Au  Au4  1  0.51585813  0.01432747  0.20024770  1
  Au  Au5  1  0.01585813  0.81560943  0.50153166  1
  Au  Au6  1  0.31529641  0.51491390  0.50118452  1
  Au  Au7  1  0.81529641  0.31411289  0.80038352  1
loop_
_geom_bond_atom_site_label_1
_geom_bond_atom_site_label_2
_geom_bond_distance
_geom_bond_site_symmetry_2
K0 K1 4.189176 1_665
K0 K1 4.189176 1_555
Cd0 K0 3.940727 1_555
Cd0 K1 3.940732 1_555
Cd0 K1 3.956323 1_655
Cd0 K0 3.956327 1_545
Cd1 K1 3.940732 1_555
Cd1 K0 3.940732 1_445
Cd1 K1 3.956327 1_556
Cd1 K0 3.956327 1_556
In0 K0 3.957492 1_555
In0 K1 3.957493 1_555
In0 K0 3.966936 1_556
In0 K1 3.966936 1_666
In1 K0 3.957492 1_456
In1 K1 3.957492 1_566
In1 K0 3.966936 1_556
In1 K1 3.966936 1_556
Au0 Au5 2.764323 1_655
Au0 Cd1 2.807201 1_555
Au0 Au6 2.860387 1_555
Au0 In0 2.897112 1_555
Au0 In1 2.921772 1_655
Au0 Cd0 2.951766 1_555
Au0 Au7 2.992046 1_555
Au0 Au4 2.999845 1_555
Au0 K0 3.405401 1_556
Au0 K1 3.418676 1_555
Au1 Au7 2.756698 1_565
Au1 In1 2.811667 1_555
Au1 Cd0 2.859762 1_566
Au1 Au4 2.860367 1_566
Au1 In0 2.926125 1_555
Au1 Cd1 2.961953 1_565
Au1 Au6 2.987442 1_555
Au1 Au5 2.992053 1_555
Au1 K0 3.409777 1_556
Au1 K1 3.417050 1_566
Au2 Au6 2.756698 1_655
Au2 In0 2.811667 1_545
Au2 Cd1 2.859765 1_655
Au2 Au5 2.860376 1_645
Au2 In1 2.926125 1_655
Au2 Cd0 2.961959 1_555
Au2 Au7 2.987450 1_555
Au2 Au4 2.992057 1_555
Au2 K1 3.409777 1_656
Au2 K0 3.417051 1_545
Au3 Au4 2.764323 1_565
Au3 Cd0 2.807205 1_455
Au3 Au7 2.860375 1_454
Au3 In1 2.897098 1_554
Au3 In0 2.921776 1_555
Au3 Cd1 2.951764 1_565
Au3 Au6 2.992057 1_555
Au3 Au5 2.999861 1_555
Au3 K1 3.405398 1_555
Au3 K0 3.418673 1_455
Au4 Cd0 2.807201 1_555
Au4 In1 2.897104 1_544
Au4 In0 2.921786 1_545
Au4 Cd1 2.951766 1_555
Au4 K0 3.405401 1_545
Au4 K1 3.418664 1_555
Au5 Cd1 2.807205 1_565
Au5 In0 2.897105 1_455
Au5 In1 2.921774 1_555
Au5 Cd0 2.951764 1_455
Au5 K1 3.405400 1_566
Au5 K0 3.418674 1_455
Au6 In0 2.811671 1_555
Au6 Cd1 2.859769 1_555
Au6 In1 2.926119 1_555
Au6 Cd0 2.961949 1_455
Au6 K0 3.409780 1_556
Au6 K1 3.417054 1_555
Au7 In1 2.811671 1_655
Au7 Cd0 2.859756 1_556
Au7 In0 2.926127 1_545
Au7 Cd1 2.961948 1_555
Au7 K1 3.409783 1_656
Au7 K0 3.417046 1_556
