# generated using pymatgen
data_Ti2AlSiRu4
_symmetry_space_group_name_H-M   'P 1'
_cell_length_a   7.36017521
_cell_length_b   7.36017553
_cell_length_c   7.36017486
_cell_angle_alpha   33.59122473
_cell_angle_beta   33.59122019
_cell_angle_gamma   33.59123148
_symmetry_Int_Tables_number   1
_chemical_formula_structural   Ti2AlSiRu4
_chemical_formula_sum   'Ti2 Al1 Si1 Ru4'
_cell_volume   108.71674065
_cell_formula_units_Z   1
loop_
 _symmetry_equiv_pos_site_id
 _symmetry_equiv_pos_as_xyz
  1  'x, y, z'
loop_
 _atom_site_type_symbol
 _atom_site_label
 _atom_site_symmetry_multiplicity
 _atom_site_fract_x
 _atom_site_fract_y
 _atom_site_fract_z
 _atom_site_occupancy
  Ti  Ti0  1  0.25020334  0.25020334  0.25020334  1
  Ti  Ti1  1  0.74979666  0.74979666  0.74979666  1
  Al  Al0  1  0.00000000  0.00000000  0.00000000  1
  Si  Si0  1  0.50000000  0.50000000  0.50000000  1
  Ru  Ru0  1  0.87338692  0.87338692  0.87338692  1
  Ru  Ru1  1  0.37666024  0.37666024  0.37666024  1
  Ru  Ru2  1  0.12661308  0.12661308  0.12661308  1
  Ru  Ru3  1  0.62333976  0.62333976  0.62333976  1
loop_
_geom_bond_atom_site_label_1
_geom_bond_atom_site_label_2
_geom_bond_distance
_geom_bond_site_symmetry_2
Al0 Ru1 2.616161 1_554
Al0 Ru3 2.616161 1_445
Al0 Ru1 2.616161 1_455
Al0 Ru3 2.616161 1_544
Al0 Ru1 2.616161 1_545
Al0 Ru3 2.616161 1_454
Al0 Ru2 2.635472 1_555
Al0 Ru0 2.635472 1_444
Ru0 Ti1 2.572551 1_555
Ru0 Si0 2.593462 1_556
Ru0 Si0 2.593462 1_655
Ru0 Si0 2.593462 1_565
Ru0 Ti0 2.617283 1_665
Ru0 Ti0 2.617284 1_566
Ru0 Ti0 2.617284 1_656
Ru1 Si0 2.567337 1_555
Ru1 Ti1 2.591790 1_554
Ru1 Ti1 2.591791 1_455
Ru1 Ti1 2.591791 1_545
Ru1 Ti0 2.632221 1_555
Ru2 Ti0 2.572551 1_555
Ru2 Si0 2.593462 1_554
Ru2 Si0 2.593462 1_455
Ru2 Si0 2.593462 1_545
Ru2 Ti1 2.617283 1_445
Ru2 Ti1 2.617284 1_544
Ru2 Ti1 2.617284 1_454
Ru3 Si0 2.567337 1_555
Ru3 Ti0 2.591790 1_556
Ru3 Ti0 2.591791 1_655
Ru3 Ti0 2.591791 1_565
Ru3 Ti1 2.632221 1_555
