# generated using pymatgen
data_Rb3Cu2As2Au
_symmetry_space_group_name_H-M   'P 1'
_cell_length_a   7.74622201
_cell_length_b   7.74622106
_cell_length_c   7.85550277
_cell_angle_alpha   46.71546875
_cell_angle_beta   46.71546418
_cell_angle_gamma   45.23459514
_symmetry_Int_Tables_number   1
_chemical_formula_structural   Rb3Cu2As2Au
_chemical_formula_sum   'Rb3 Cu2 As2 Au1'
_cell_volume   224.08351686
_cell_formula_units_Z   1
loop_
 _symmetry_equiv_pos_site_id
 _symmetry_equiv_pos_as_xyz
  1  'x, y, z'
loop_
 _atom_site_type_symbol
 _atom_site_label
 _atom_site_symmetry_multiplicity
 _atom_site_fract_x
 _atom_site_fract_y
 _atom_site_fract_z
 _atom_site_occupancy
  Rb  Rb0  1  0.90752253  0.90752253  0.91961949  1
  Rb  Rb1  1  0.50000000  0.50000000  0.50000000  1
  Rb  Rb2  1  0.09247747  0.09247747  0.08038051  1
  Cu  Cu0  1  0.00000000  0.50000000  0.50000000  1
  Cu  Cu1  1  0.50000000  0.00000000  0.50000000  1
  As  As0  1  0.24258691  0.24258691  0.28198845  1
  As  As1  1  0.75741309  0.75741309  0.71801155  1
  Au  Au0  1  0.50000000  0.50000000  0.00000000  1
loop_
_geom_bond_atom_site_label_1
_geom_bond_atom_site_label_2
_geom_bond_distance
_geom_bond_site_symmetry_2
Cu0 Rb2 3.580879 1_556
Cu0 Rb0 3.580879 1_454
Cu0 Rb2 3.617989 1_565
Cu0 Rb0 3.617989 1_445
Cu0 Rb1 3.873111 1_555
Cu0 Rb1 3.873111 1_455
Cu1 Rb2 3.580878 1_556
Cu1 Rb0 3.580878 1_544
Cu1 Rb2 3.617989 1_655
Cu1 Rb0 3.617989 1_445
Cu1 Rb1 3.873111 1_555
Cu1 Rb1 3.873111 1_545
As0 Cu0 2.330775 1_555
As0 Cu1 2.330775 1_555
As0 Au0 2.518947 1_555
As0 Rb2 3.488117 1_555
As0 Rb0 3.520829 1_445
As0 Rb0 3.545003 1_544
As0 Rb0 3.545003 1_454
As0 Rb1 3.875193 1_545
As0 Rb1 3.875193 1_455
As1 Cu0 2.330775 1_655
As1 Cu1 2.330775 1_565
As1 Au0 2.518947 1_556
As1 Rb0 3.488117 1_555
As1 Rb2 3.520829 1_665
As1 Rb2 3.545003 1_566
As1 Rb2 3.545003 1_656
As1 Rb1 3.875193 1_565
As1 Rb1 3.875193 1_655
Au0 Cu0 3.093220 1_555
Au0 Cu0 3.093220 1_654
Au0 Cu1 3.093221 1_555
Au0 Cu1 3.093221 1_564
Au0 Rb2 3.501809 1_565
Au0 Rb0 3.501809 1_544
Au0 Rb2 3.501810 1_655
Au0 Rb0 3.501810 1_454
Au0 Rb1 3.927751 1_555
Au0 Rb1 3.927751 1_554
