# generated using pymatgen
data_KRb2B2Pt7
_symmetry_space_group_name_H-M   'P 1'
_cell_length_a   8.34569272
_cell_length_b   8.34569203
_cell_length_c   8.34569196
_cell_angle_alpha   39.87745654
_cell_angle_beta   39.87745030
_cell_angle_gamma   39.87745280
_symmetry_Int_Tables_number   1
_chemical_formula_structural   KRb2B2Pt7
_chemical_formula_sum   'K1 Rb2 B2 Pt7'
_cell_volume   215.24791593
_cell_formula_units_Z   1
loop_
 _symmetry_equiv_pos_site_id
 _symmetry_equiv_pos_as_xyz
  1  'x, y, z'
loop_
 _atom_site_type_symbol
 _atom_site_label
 _atom_site_symmetry_multiplicity
 _atom_site_fract_x
 _atom_site_fract_y
 _atom_site_fract_z
 _atom_site_occupancy
  K  K0  1  0.00000000  0.00000000  0.00000000  1
  Rb  Rb0  1  0.85715794  0.85715794  0.85715794  1
  Rb  Rb1  1  0.14284206  0.14284206  0.14284206  1
  B  B0  1  0.67023192  0.67023192  0.67023192  1
  B  B1  1  0.32976808  0.32976808  0.32976808  1
  Pt  Pt0  1  0.44324536  0.92684973  0.44324536  1
  Pt  Pt1  1  0.44324536  0.44324536  0.92684973  1
  Pt  Pt2  1  0.92684973  0.44324536  0.44324536  1
  Pt  Pt3  1  0.55675464  0.07315027  0.55675464  1
  Pt  Pt4  1  0.55675464  0.55675464  0.07315027  1
  Pt  Pt5  1  0.07315027  0.55675464  0.55675464  1
  Pt  Pt6  1  0.50000000  0.50000000  0.50000000  1
loop_
_geom_bond_atom_site_label_1
_geom_bond_atom_site_label_2
_geom_bond_distance
_geom_bond_site_symmetry_2
K0 Pt3 3.186397 1_455
K0 Pt0 3.186397 1_544
K0 Pt4 3.186397 1_455
K0 Pt1 3.186397 1_544
K0 Pt3 3.186397 1_554
K0 Pt0 3.186397 1_445
K0 Pt5 3.186397 1_554
K0 Pt2 3.186397 1_445
K0 Pt5 3.186397 1_545
K0 Pt2 3.186397 1_454
K0 Pt4 3.186397 1_545
K0 Pt1 3.186397 1_454
K0 Rb1 3.287411 1_555
K0 Rb0 3.287411 1_444
B0 Pt4 2.168433 1_556
B0 Pt3 2.168433 1_565
B0 Pt5 2.168434 1_655
B0 Pt2 2.194981 1_555
B0 Pt1 2.194982 1_555
B0 Pt0 2.194982 1_555
B0 K0 3.287309 1_566
B0 K0 3.287309 1_665
B0 K0 3.287309 1_656
B1 Pt1 2.168433 1_554
B1 Pt0 2.168433 1_545
B1 Pt2 2.168434 1_455
B1 Pt5 2.194981 1_555
B1 Pt4 2.194982 1_555
B1 Pt3 2.194982 1_555
B1 K0 3.287309 1_655
B1 K0 3.287309 1_556
B1 K0 3.287309 1_565
Pt0 Pt6 2.881643 1_555
Pt0 Rb0 3.397852 1_554
Pt0 Rb0 3.397853 1_455
Pt0 Rb1 3.405092 1_565
Pt1 Pt6 2.881643 1_555
Pt1 Rb0 3.397852 1_545
Pt1 Rb0 3.397853 1_455
Pt1 Rb1 3.405092 1_556
Pt2 Pt6 2.881643 1_555
Pt2 Rb0 3.397853 1_545
Pt2 Rb0 3.397853 1_554
Pt2 Rb1 3.405091 1_655
Pt3 Pt6 2.881643 1_555
Pt3 Rb1 3.397852 1_556
Pt3 Rb1 3.397853 1_655
Pt3 Rb0 3.405092 1_545
Pt4 Pt6 2.881643 1_555
Pt4 Rb1 3.397852 1_565
Pt4 Rb1 3.397853 1_655
Pt4 Rb0 3.405092 1_554
Pt5 Pt6 2.881643 1_555
Pt5 Rb1 3.397853 1_565
Pt5 Rb1 3.397853 1_556
Pt5 Rb0 3.405091 1_455
Pt6 Rb0 3.331713 1_455
Pt6 Rb1 3.331713 1_655
Pt6 Rb0 3.331713 1_554
Pt6 Rb1 3.331713 1_556
Pt6 Rb0 3.331713 1_545
Pt6 Rb1 3.331713 1_565
