# generated using pymatgen
data_Cu2GeMo3N
_symmetry_space_group_name_H-M   'P 1'
_cell_length_a   7.88275332
_cell_length_b   7.88275253
_cell_length_c   7.88275318
_cell_angle_alpha   59.99999727
_cell_angle_beta   60.00000059
_cell_angle_gamma   60.00000180
_symmetry_Int_Tables_number   1
_chemical_formula_structural   Cu2GeMo3N
_chemical_formula_sum   'Cu8 Ge4 Mo12 N4'
_cell_volume   346.35284448
_cell_formula_units_Z   4
loop_
 _symmetry_equiv_pos_site_id
 _symmetry_equiv_pos_as_xyz
  1  'x, y, z'
loop_
 _atom_site_type_symbol
 _atom_site_label
 _atom_site_symmetry_multiplicity
 _atom_site_fract_x
 _atom_site_fract_y
 _atom_site_fract_z
 _atom_site_occupancy
  Cu  Cu0  1  0.24795484  0.91734905  0.91734905  1
  Cu  Cu1  1  0.91734905  0.24795484  0.91734905  1
  Cu  Cu2  1  0.91734905  0.91734905  0.91734905  1
  Cu  Cu3  1  0.91734905  0.91734905  0.24795484  1
  Cu  Cu4  1  0.00204516  0.33265095  0.33265095  1
  Cu  Cu5  1  0.33265095  0.33265095  0.00204516  1
  Cu  Cu6  1  0.33265095  0.00204516  0.33265095  1
  Cu  Cu7  1  0.33265095  0.33265095  0.33265095  1
  Ge  Ge0  1  0.62500000  0.12500000  0.12500000  1
  Ge  Ge1  1  0.12500000  0.12500000  0.62500000  1
  Ge  Ge2  1  0.12500000  0.62500000  0.12500000  1
  Ge  Ge3  1  0.12500000  0.12500000  0.12500000  1
  Mo  Mo0  1  0.69202187  0.30797813  0.69202187  1
  Mo  Mo1  1  0.55797813  0.55797813  0.94202187  1
  Mo  Mo2  1  0.55797813  0.94202187  0.55797813  1
  Mo  Mo3  1  0.94202187  0.94202187  0.55797813  1
  Mo  Mo4  1  0.94202187  0.55797813  0.55797813  1
  Mo  Mo5  1  0.94202187  0.55797813  0.94202187  1
  Mo  Mo6  1  0.69202187  0.30797813  0.30797813  1
  Mo  Mo7  1  0.30797813  0.69202187  0.30797813  1
  Mo  Mo8  1  0.30797813  0.30797813  0.69202187  1
  Mo  Mo9  1  0.30797813  0.69202187  0.69202187  1
  Mo  Mo10  1  0.69202187  0.69202187  0.30797813  1
  Mo  Mo11  1  0.55797813  0.94202187  0.94202187  1
  N  N0  1  0.62500000  0.62500000  0.62500000  1
  N  N1  1  0.12500000  0.62500000  0.62500000  1
  N  N2  1  0.62500000  0.12500000  0.62500000  1
  N  N3  1  0.62500000  0.62500000  0.12500000  1
loop_
_geom_bond_atom_site_label_1
_geom_bond_atom_site_label_2
_geom_bond_distance
_geom_bond_site_symmetry_2
Cu0 Ge3 2.409226 1_566
Cu0 Ge2 2.409239 1_556
Cu0 Ge1 2.409239 1_565
Cu0 Cu1 2.606084 1_465
Cu0 Cu2 2.606084 1_455
Cu0 Cu3 2.606084 1_456
Cu0 Mo11 2.652625 1_555
Cu0 Mo1 2.652634 1_555
Cu0 Mo2 2.652634 1_555
Cu0 Mo8 2.829774 1_565
Cu0 Mo7 2.829775 1_556
Cu0 Mo9 2.829788 1_555
Cu1 Ge3 2.409226 1_656
Cu1 Ge0 2.409239 1_556
Cu1 Ge1 2.409239 1_655
Cu1 Cu2 2.606084 1_545
Cu1 Cu3 2.606084 1_546
Cu1 Mo5 2.652625 1_555
Cu1 Mo4 2.652634 1_555
Cu1 Mo1 2.652634 1_555
Cu1 Mo8 2.829775 1_655
Cu1 Mo6 2.829775 1_556
Cu1 Mo0 2.829788 1_555
Cu2 Ge1 2.409230 1_665
Cu2 Ge2 2.409230 1_656
Cu2 Ge0 2.409230 1_566
Cu2 Cu3 2.606084 1_556
Cu2 Mo5 2.652641 1_555
Cu2 Mo3 2.652641 1_555
Cu2 Mo11 2.652641 1_555
Cu2 Mo0 2.829781 1_565
Cu2 Mo10 2.829781 1_556
Cu2 Mo9 2.829781 1_655
Cu3 Ge3 2.409226 1_665
Cu3 Ge2 2.409239 1_655
Cu3 Ge0 2.409239 1_565
Cu3 Mo3 2.652625 1_555
Cu3 Mo4 2.652634 1_555
Cu3 Mo2 2.652634 1_555
Cu3 Mo6 2.829775 1_565
Cu3 Mo7 2.829775 1_655
Cu3 Mo10 2.829788 1_555
Cu4 Ge3 2.409226 1_555
Cu4 Ge2 2.409239 1_555
Cu4 Ge1 2.409239 1_555
Cu4 Cu6 2.606084 1_555
Cu4 Cu7 2.606084 1_555
Cu4 Cu5 2.606084 1_555
Cu4 Mo6 2.652625 1_455
Cu4 Mo10 2.652634 1_455
Cu4 Mo0 2.652634 1_455
Cu4 Mo3 2.829774 1_445
Cu4 Mo5 2.829775 1_454
Cu4 Mo4 2.829788 1_455
Cu5 Ge3 2.409226 1_555
Cu5 Ge2 2.409239 1_555
Cu5 Ge0 2.409239 1_555
Cu5 Cu6 2.606084 1_555
Cu5 Cu7 2.606084 1_555
Cu5 Mo8 2.652625 1_554
Cu5 Mo9 2.652634 1_554
Cu5 Mo0 2.652634 1_554
Cu5 Mo11 2.829775 1_544
Cu5 Mo5 2.829775 1_454
Cu5 Mo1 2.829788 1_554
Cu6 Ge3 2.409226 1_555
Cu6 Ge0 2.409239 1_555
Cu6 Ge1 2.409239 1_555
Cu6 Cu7 2.606084 1_555
Cu6 Mo7 2.652625 1_545
Cu6 Mo9 2.652634 1_545
Cu6 Mo10 2.652634 1_545
Cu6 Mo3 2.829775 1_445
Cu6 Mo11 2.829775 1_544
Cu6 Mo2 2.829788 1_545
Cu7 Ge1 2.409230 1_555
Cu7 Ge2 2.409230 1_555
Cu7 Ge0 2.409230 1_555
Cu7 Mo7 2.652641 1_555
Cu7 Mo8 2.652641 1_555
Cu7 Mo6 2.652641 1_555
Cu7 Mo2 2.829781 1_545
Cu7 Mo1 2.829781 1_554
Cu7 Mo4 2.829781 1_455
Ge0 Mo1 2.836279 1_554
Ge0 Mo10 2.836279 1_545
Ge0 Mo2 2.836280 1_545
Ge0 Mo0 2.836280 1_554
Ge0 Mo6 2.836280 1_555
Ge0 Mo11 2.836280 1_544
Ge1 Mo4 2.836280 1_455
Ge1 Mo9 2.836280 1_545
Ge1 Mo8 2.836280 1_555
Ge1 Mo3 2.836280 1_445
Ge1 Mo2 2.836280 1_545
Ge1 Mo0 2.836280 1_455
Ge2 Mo7 2.836280 1_555
Ge2 Mo5 2.836280 1_454
Ge2 Mo4 2.836280 1_455
Ge2 Mo9 2.836280 1_554
Ge2 Mo1 2.836280 1_554
Ge2 Mo10 2.836280 1_455
Ge3 Mo5 2.836280 1_454
Ge3 Mo7 2.836280 1_545
Ge3 Mo3 2.836280 1_445
Ge3 Mo8 2.836280 1_554
Ge3 Mo11 2.836280 1_544
Ge3 Mo6 2.836280 1_455
Mo0 N0 2.107569 1_555
Mo0 N2 2.107570 1_555
Mo1 N0 2.107570 1_555
Mo1 N3 2.107570 1_556
Mo2 N0 2.107569 1_555
Mo2 N2 2.107570 1_565
Mo3 N1 2.107570 1_655
Mo3 N2 2.107570 1_565
Mo4 N1 2.107570 1_655
Mo4 N0 2.107570 1_555
Mo5 N1 2.107570 1_655
Mo5 N3 2.107570 1_556
Mo6 N3 2.107569 1_555
Mo6 N2 2.107570 1_555
Mo7 N1 2.107570 1_555
Mo7 N3 2.107570 1_555
Mo8 N1 2.107570 1_555
Mo8 N2 2.107570 1_555
Mo9 N1 2.107570 1_555
Mo9 N0 2.107570 1_555
Mo10 N3 2.107570 1_555
Mo10 N0 2.107570 1_555
Mo11 N3 2.107569 1_556
Mo11 N2 2.107570 1_565
