# generated using pymatgen
data_Pr2SO2
_symmetry_space_group_name_H-M   'P 1'
_cell_length_a   4.00789086
_cell_length_b   4.00789003
_cell_length_c   6.87975311
_cell_angle_alpha   90.00000000
_cell_angle_beta   90.00000000
_cell_angle_gamma   119.99998988
_symmetry_Int_Tables_number   1
_chemical_formula_structural   Pr2SO2
_chemical_formula_sum   'Pr2 S1 O2'
_cell_volume   95.70512888
_cell_formula_units_Z   1
loop_
 _symmetry_equiv_pos_site_id
 _symmetry_equiv_pos_as_xyz
  1  'x, y, z'
loop_
 _atom_site_type_symbol
 _atom_site_label
 _atom_site_symmetry_multiplicity
 _atom_site_fract_x
 _atom_site_fract_y
 _atom_site_fract_z
 _atom_site_occupancy
  Pr  Pr0  1  0.66666700  0.33333300  0.71979791  1
  Pr  Pr1  1  0.33333300  0.66666700  0.28020209  1
  S  S0  1  0.00000000  0.00000000  0.00000000  1
  O  O0  1  0.33333300  0.66666700  0.62933196  1
  O  O1  1  0.66666700  0.33333300  0.37066804  1
loop_
_geom_bond_atom_site_label_1
_geom_bond_atom_site_label_2
_geom_bond_distance
_geom_bond_site_symmetry_2
Pr0 S0 3.011726 1_656
Pr0 S0 3.011729 1_666
Pr0 S0 3.011729 1_556
Pr1 S0 3.011726 1_565
Pr1 S0 3.011729 1_555
Pr1 S0 3.011729 1_665
O0 Pr0 2.396194 1_565
O0 Pr0 2.396194 1_455
O0 Pr0 2.396201 1_555
O0 Pr1 2.401927 1_555
O1 Pr1 2.396194 1_545
O1 Pr1 2.396194 1_655
O1 Pr1 2.396201 1_555
O1 Pr0 2.401927 1_555
