# generated using pymatgen
data_Y6Cd23Sb
_symmetry_space_group_name_H-M   'P 1'
_cell_length_a   9.90128567
_cell_length_b   9.90128657
_cell_length_c   9.90128638
_cell_angle_alpha   60.00000386
_cell_angle_beta   60.00000089
_cell_angle_gamma   59.99999796
_symmetry_Int_Tables_number   1
_chemical_formula_structural   Y6Cd23Sb
_chemical_formula_sum   'Y6 Cd23 Sb1'
_cell_volume   686.37246733
_cell_formula_units_Z   1
loop_
 _symmetry_equiv_pos_site_id
 _symmetry_equiv_pos_as_xyz
  1  'x, y, z'
loop_
 _atom_site_type_symbol
 _atom_site_label
 _atom_site_symmetry_multiplicity
 _atom_site_fract_x
 _atom_site_fract_y
 _atom_site_fract_z
 _atom_site_occupancy
  Y  Y0  1  0.78624561  0.78624561  0.21375439  1
  Y  Y1  1  0.21375439  0.78624561  0.21375439  1
  Y  Y2  1  0.78624561  0.21375439  0.21375439  1
  Y  Y3  1  0.21375439  0.21375439  0.78624561  1
  Y  Y4  1  0.78624561  0.21375439  0.78624561  1
  Y  Y5  1  0.21375439  0.78624561  0.78624561  1
  Cd  Cd0  1  0.83472759  0.83472759  0.49581822  1
  Cd  Cd1  1  0.83472759  0.49581822  0.83472759  1
  Cd  Cd2  1  0.49581822  0.83472759  0.83472759  1
  Cd  Cd3  1  0.83472759  0.83472759  0.83472759  1
  Cd  Cd4  1  0.16527241  0.16527241  0.50418178  1
  Cd  Cd5  1  0.16527241  0.50418178  0.16527241  1
  Cd  Cd6  1  0.50418178  0.16527241  0.16527241  1
  Cd  Cd7  1  0.16527241  0.16527241  0.16527241  1
  Cd  Cd8  1  0.62277544  0.62277544  0.13167268  1
  Cd  Cd9  1  0.62277544  0.13167268  0.62277544  1
  Cd  Cd10  1  0.13167268  0.62277544  0.62277544  1
  Cd  Cd11  1  0.62277544  0.62277544  0.62277544  1
  Cd  Cd12  1  0.37722456  0.37722456  0.86832732  1
  Cd  Cd13  1  0.37722456  0.86832732  0.37722456  1
  Cd  Cd14  1  0.86832732  0.37722456  0.37722456  1
  Cd  Cd15  1  0.37722456  0.37722456  0.37722456  1
  Cd  Cd16  1  0.00000000  0.00000000  0.50000000  1
  Cd  Cd17  1  0.50000000  0.00000000  0.50000000  1
  Cd  Cd18  1  0.00000000  0.50000000  0.50000000  1
  Cd  Cd19  1  0.50000000  0.50000000  0.00000000  1
  Cd  Cd20  1  0.00000000  0.50000000  0.00000000  1
  Cd  Cd21  1  0.50000000  0.00000000  0.00000000  1
  Cd  Cd22  1  0.50000000  0.50000000  0.50000000  1
  Sb  Sb0  1  0.00000000  0.00000000  0.00000000  1
loop_
_geom_bond_atom_site_label_1
_geom_bond_atom_site_label_2
_geom_bond_distance
_geom_bond_site_symmetry_2
Cd0 Cd16 2.858449 1_665
Cd0 Cd17 2.858458 1_565
Cd0 Cd18 2.858458 1_655
Cd0 Cd10 3.084859 1_655
Cd0 Cd9 3.084859 1_565
Cd0 Cd11 3.084876 1_555
Cd0 Y1 3.342489 1_655
Cd0 Y2 3.342489 1_565
Cd0 Y0 3.342495 1_555
Cd0 Cd2 3.355639 1_555
Cd0 Cd3 3.355639 1_555
Cd0 Cd1 3.355639 1_555
Cd1 Cd20 2.858449 1_656
Cd1 Cd19 2.858458 1_556
Cd1 Cd18 2.858458 1_655
Cd1 Cd8 3.084859 1_556
Cd1 Cd10 3.084859 1_655
Cd1 Cd11 3.084875 1_555
Cd1 Y3 3.342489 1_655
Cd1 Y2 3.342489 1_556
Cd1 Y4 3.342495 1_555
Cd1 Cd2 3.355639 1_555
Cd1 Cd3 3.355639 1_555
Cd2 Cd21 2.858449 1_566
Cd2 Cd8 3.084859 1_556
Cd2 Cd9 3.084860 1_565
Cd2 Y3 3.342489 1_565
Cd2 Y1 3.342489 1_556
Cd2 Y5 3.342495 1_555
Cd2 Cd3 3.355639 1_555
Cd3 Cd9 3.084870 1_565
Cd3 Cd8 3.084870 1_556
Cd3 Y5 3.342485 1_655
Cd3 Y0 3.342485 1_556
Cd3 Y4 3.342485 1_565
Cd4 Y4 3.342489 1_455
Cd4 Y5 3.342489 1_545
Cd4 Y3 3.342495 1_555
Cd4 Cd6 3.355639 1_555
Cd4 Cd7 3.355639 1_555
Cd4 Cd5 3.355639 1_555
Cd5 Y0 3.342489 1_455
Cd5 Y5 3.342489 1_554
Cd5 Y1 3.342495 1_555
Cd5 Cd6 3.355639 1_555
Cd5 Cd7 3.355639 1_555
Cd6 Y0 3.342489 1_545
Cd6 Y4 3.342489 1_554
Cd6 Y2 3.342495 1_555
Cd6 Cd7 3.355639 1_555
Cd7 Y2 3.342485 1_455
Cd7 Y3 3.342485 1_554
Cd7 Y1 3.342485 1_545
Cd8 Y1 3.339246 1_555
Cd8 Y2 3.339247 1_555
Cd8 Y0 3.339255 1_555
Cd9 Y3 3.339247 1_555
Cd9 Y2 3.339247 1_555
Cd9 Y4 3.339255 1_555
Cd10 Cd22 2.977693 1_555
Cd10 Cd18 3.050038 1_555
Cd10 Cd16 3.050046 1_565
Cd10 Cd20 3.050046 1_556
Cd10 Cd3 3.084870 1_455
Cd10 Y1 3.339247 1_555
Cd10 Y3 3.339247 1_555
Cd10 Y5 3.339255 1_555
Cd10 Cd15 3.438334 1_555
Cd10 Cd12 3.438348 1_555
Cd10 Cd13 3.438349 1_555
Cd11 Cd22 2.977685 1_555
Cd11 Cd18 3.050046 1_655
Cd11 Cd17 3.050046 1_565
Cd11 Cd19 3.050046 1_556
Cd11 Cd2 3.084876 1_555
Cd11 Y5 3.339248 1_555
Cd11 Y4 3.339248 1_555
Cd11 Y0 3.339248 1_555
Cd11 Cd14 3.438334 1_555
Cd11 Cd13 3.438334 1_555
Cd11 Cd12 3.438335 1_555
Cd12 Cd22 2.977693 1_555
Cd12 Cd19 3.050038 1_556
Cd12 Cd20 3.050045 1_556
Cd12 Cd21 3.050046 1_556
Cd12 Cd5 3.084859 1_556
Cd12 Cd6 3.084859 1_556
Cd12 Cd7 3.084870 1_556
Cd12 Y4 3.339246 1_555
Cd12 Y5 3.339247 1_555
Cd12 Y3 3.339255 1_555
Cd12 Cd9 3.438348 1_555
Cd13 Cd22 2.977693 1_555
Cd13 Cd17 3.050038 1_565
Cd13 Cd16 3.050045 1_565
Cd13 Cd21 3.050046 1_565
Cd13 Cd4 3.084859 1_565
Cd13 Cd6 3.084860 1_565
Cd13 Cd7 3.084870 1_565
Cd13 Y0 3.339247 1_555
Cd13 Y5 3.339247 1_555
Cd13 Y1 3.339255 1_555
Cd13 Cd8 3.438348 1_555
Cd14 Cd22 2.977693 1_555
Cd14 Cd18 3.050038 1_655
Cd14 Cd16 3.050046 1_655
Cd14 Cd20 3.050046 1_655
Cd14 Cd4 3.084859 1_655
Cd14 Cd5 3.084859 1_655
Cd14 Cd7 3.084870 1_655
Cd14 Y4 3.339247 1_555
Cd14 Y0 3.339247 1_555
Cd14 Y2 3.339255 1_555
Cd14 Cd8 3.438348 1_555
Cd14 Cd9 3.438349 1_555
Cd15 Cd22 2.977685 1_555
Cd15 Cd18 3.050046 1_555
Cd15 Cd17 3.050046 1_555
Cd15 Cd19 3.050046 1_555
Cd15 Cd5 3.084875 1_555
Cd15 Cd6 3.084876 1_555
Cd15 Cd4 3.084876 1_555
Cd15 Y2 3.339248 1_555
Cd15 Y1 3.339248 1_555
Cd15 Y3 3.339248 1_555
Cd15 Cd9 3.438334 1_555
Cd15 Cd8 3.438335 1_555
Cd16 Cd4 2.858449 1_555
Cd16 Cd3 2.858455 1_445
Cd16 Cd7 2.858455 1_555
Cd16 Cd9 3.050045 1_455
Cd16 Y5 3.537233 1_545
Cd16 Y4 3.537233 1_455
Cd16 Y2 3.537233 1_455
Cd16 Y1 3.537233 1_545
Cd17 Cd4 2.858458 1_555
Cd17 Cd2 2.858458 1_545
Cd17 Cd6 2.858458 1_555
Cd17 Cd9 3.050038 1_555
Cd17 Y3 3.537233 1_555
Cd17 Y0 3.537233 1_545
Cd17 Y2 3.537234 1_555
Cd17 Y5 3.537234 1_545
Cd18 Cd4 2.858458 1_555
Cd18 Cd5 2.858458 1_555
Cd18 Y3 3.537234 1_555
Cd18 Y0 3.537234 1_455
Cd18 Y1 3.537234 1_555
Cd18 Y4 3.537234 1_455
Cd19 Cd5 2.858458 1_555
Cd19 Cd2 2.858458 1_554
Cd19 Cd6 2.858458 1_555
Cd19 Cd8 3.050038 1_555
Cd19 Y2 3.537233 1_555
Cd19 Y1 3.537233 1_555
Cd19 Y4 3.537233 1_554
Cd19 Y5 3.537233 1_554
Cd20 Cd5 2.858449 1_555
Cd20 Cd3 2.858455 1_454
Cd20 Cd7 2.858455 1_555
Cd20 Cd8 3.050045 1_455
Cd20 Y0 3.537233 1_455
Cd20 Y3 3.537233 1_554
Cd20 Y5 3.537234 1_554
Cd20 Y2 3.537234 1_455
Cd21 Cd6 2.858449 1_555
Cd21 Cd7 2.858455 1_555
Cd21 Cd3 2.858455 1_544
Cd21 Cd8 3.050046 1_545
Cd21 Cd9 3.050046 1_554
Cd21 Y0 3.537233 1_545
Cd21 Y3 3.537233 1_554
Cd21 Y4 3.537234 1_554
Cd21 Y1 3.537234 1_545
Cd22 Cd9 2.977693 1_555
Cd22 Cd8 2.977693 1_555
Sb0 Y1 2.993103 1_545
Sb0 Y2 2.993103 1_455
Sb0 Y4 2.993103 1_454
Sb0 Y5 2.993103 1_544
Sb0 Y3 2.993103 1_554
Sb0 Y0 2.993103 1_445
