# generated using pymatgen
data_Nb12V21GeIr2
_symmetry_space_group_name_H-M   'P 1'
_cell_length_a   8.73997351
_cell_length_b   8.73997329
_cell_length_c   8.29594767
_cell_angle_alpha   90.00000000
_cell_angle_beta   90.00000000
_cell_angle_gamma   119.99999333
_symmetry_Int_Tables_number   1
_chemical_formula_structural   Nb12V21GeIr2
_chemical_formula_sum   'Nb12 V21 Ge1 Ir2'
_cell_volume   548.80351726
_cell_formula_units_Z   1
loop_
 _symmetry_equiv_pos_site_id
 _symmetry_equiv_pos_as_xyz
  1  'x, y, z'
loop_
 _atom_site_type_symbol
 _atom_site_label
 _atom_site_symmetry_multiplicity
 _atom_site_fract_x
 _atom_site_fract_y
 _atom_site_fract_z
 _atom_site_occupancy
  Nb  Nb0  1  0.33496266  0.99989149  0.06169514  1
  Nb  Nb1  1  0.66492883  0.99989149  0.93830486  1
  Nb  Nb2  1  0.00010851  0.33507117  0.06169514  1
  Nb  Nb3  1  0.66613416  0.00153330  0.55871180  1
  Nb  Nb4  1  0.99846670  0.33386584  0.44128820  1
  Nb  Nb5  1  0.00010851  0.66503734  0.93830486  1
  Nb  Nb6  1  0.33539914  0.00153330  0.44128820  1
  Nb  Nb7  1  0.99846670  0.66460086  0.55871180  1
  Nb  Nb8  1  0.66492883  0.66503734  0.06169514  1
  Nb  Nb9  1  0.33496266  0.33507117  0.93830486  1
  Nb  Nb10  1  0.33539914  0.33386584  0.55871180  1
  Nb  Nb11  1  0.66613416  0.66460086  0.44128820  1
  V  V0  1  0.16262636  0.49469925  0.75353223  1
  V  V1  1  0.83583687  0.50311342  0.24961593  1
  V  V2  1  0.50530075  0.66792712  0.75353223  1
  V  V3  1  0.49688658  0.16416313  0.75038407  1
  V  V4  1  0.49688658  0.33272345  0.24961593  1
  V  V5  1  0.50530075  0.83737364  0.24646777  1
  V  V6  1  0.33207288  0.83737364  0.75353223  1
  V  V7  1  0.66727655  0.50311342  0.75038407  1
  V  V8  1  0.66727655  0.16416313  0.24961593  1
  V  V9  1  0.33207288  0.49469925  0.24646777  1
  V  V10  1  0.83583687  0.33272345  0.75038407  1
  V  V11  1  0.16262636  0.66792712  0.24646777  1
  V  V12  1  0.66666700  0.33333300  0.50000000  1
  V  V13  1  0.66666700  0.33333300  0.00000000  1
  V  V14  1  0.33333300  0.66666700  0.00000000  1
  V  V15  1  0.16991887  0.99970937  0.74975371  1
  V  V16  1  0.82979050  0.99970937  0.25024629  1
  V  V17  1  0.00029063  0.17020950  0.74975371  1
  V  V18  1  0.00029063  0.83008113  0.25024629  1
  V  V19  1  0.82979050  0.83008113  0.74975371  1
  V  V20  1  0.16991887  0.17020950  0.25024629  1
  Ge  Ge0  1  0.33333300  0.66666700  0.50000000  1
  Ir  Ir0  1  0.00000000  0.00000000  0.50000000  1
  Ir  Ir1  1  0.00000000  0.00000000  0.00000000  1
loop_
_geom_bond_atom_site_label_1
_geom_bond_atom_site_label_2
_geom_bond_distance
_geom_bond_site_symmetry_2
Nb0 V6 2.918564 1_554
Nb0 V11 2.943837 1_555
Nb0 V5 2.949274 1_555
Nb0 V3 2.949951 1_564
Nb0 V14 2.950017 1_555
Nb0 V13 2.951426 1_565
Nb0 V8 2.959293 1_565
Nb0 V15 2.962333 1_554
Nb0 V4 2.962840 1_565
Nb0 V18 2.977255 1_555
Nb0 V20 2.981709 1_565
Nb0 Nb1 3.060178 1_554
Nb0 Nb5 3.100471 1_554
Nb0 Nb9 3.103157 1_564
Nb0 Nb6 3.149110 1_565
Nb1 V5 2.918564 1_556
Nb1 V2 2.943837 1_555
Nb1 V6 2.949274 1_555
Nb1 V8 2.949951 1_566
Nb1 V14 2.950021 1_556
Nb1 V13 2.951421 1_566
Nb1 V3 2.959292 1_565
Nb1 V16 2.962333 1_556
Nb1 V10 2.962840 1_565
Nb1 V19 2.977255 1_555
Nb1 V17 2.981709 1_665
Nb1 Nb8 3.100471 1_556
Nb1 Nb2 3.103157 1_666
Nb1 Nb3 3.149110 1_565
Nb2 V0 2.918564 1_554
Nb2 V9 2.943837 1_555
Nb2 V11 2.949274 1_555
Nb2 V10 2.949951 1_454
Nb2 V14 2.950021 1_555
Nb2 V13 2.951421 1_455
Nb2 V1 2.959292 1_455
Nb2 V17 2.962333 1_554
Nb2 V8 2.962840 1_455
Nb2 V20 2.977255 1_555
Nb2 V16 2.981709 1_445
Nb2 Nb5 3.060178 1_554
Nb2 Nb9 3.100471 1_554
Nb2 Nb4 3.149110 1_455
Nb3 V8 2.929432 1_555
Nb3 V16 2.935560 1_545
Nb3 V12 2.938247 1_555
Nb3 V5 2.954253 1_545
Nb3 V10 2.968791 1_555
Nb3 V3 2.973108 1_555
Nb3 V17 2.984810 1_655
Nb3 V19 2.991080 1_545
Nb3 V2 2.998485 1_545
Nb3 V6 3.001037 1_545
Nb3 Nb6 3.050345 1_555
Nb3 Nb4 3.063580 1_555
Nb4 V10 2.929432 1_555
Nb4 V17 2.935560 1_655
Nb4 V12 2.938247 1_555
Nb4 V0 2.954253 1_655
Nb4 V8 2.968791 1_555
Nb4 V1 2.973108 1_555
Nb4 V16 2.984810 1_545
Nb4 V20 2.991080 1_655
Nb4 V9 2.998485 1_655
Nb4 V11 3.001037 1_655
Nb4 Nb7 3.050345 1_555
Nb5 V11 2.918564 1_556
Nb5 V6 2.943837 1_555
Nb5 V0 2.949274 1_555
Nb5 V1 2.949951 1_456
Nb5 V14 2.950017 1_556
Nb5 V13 2.951426 1_456
Nb5 V10 2.959292 1_455
Nb5 V18 2.962333 1_556
Nb5 V7 2.962840 1_455
Nb5 V15 2.977255 1_555
Nb5 V19 2.981709 1_455
Nb5 Nb8 3.103157 1_456
Nb5 Nb7 3.149110 1_455
Nb6 V3 2.929432 1_555
Nb6 V15 2.935560 1_545
Nb6 V12 2.938251 1_555
Nb6 V6 2.954253 1_545
Nb6 V4 2.968791 1_555
Nb6 V8 2.973109 1_555
Nb6 V20 2.984810 1_555
Nb6 V18 2.991080 1_545
Nb6 V11 2.998485 1_545
Nb6 V5 3.001037 1_545
Nb6 Nb7 3.101723 1_445
Nb7 V1 2.929432 1_555
Nb7 V18 2.935560 1_655
Nb7 V12 2.938251 1_555
Nb7 V11 2.954253 1_655
Nb7 V7 2.968791 1_555
Nb7 V10 2.973108 1_555
Nb7 V19 2.984810 1_555
Nb7 V15 2.991080 1_655
Nb7 V6 2.998485 1_655
Nb7 V0 3.001037 1_655
Nb8 V2 2.918564 1_554
Nb8 V5 2.943836 1_555
Nb8 V9 2.949274 1_555
Nb8 V7 2.949951 1_554
Nb8 V14 2.950025 1_555
Nb8 V13 2.951430 1_555
Nb8 V4 2.959292 1_555
Nb8 V19 2.962333 1_554
Nb8 V1 2.962840 1_555
Nb8 V16 2.977255 1_555
Nb8 V18 2.981709 1_655
Nb8 Nb9 3.060179 1_554
Nb9 V9 2.918564 1_556
Nb9 V0 2.943836 1_555
Nb9 V2 2.949274 1_555
Nb9 V4 2.949951 1_556
Nb9 V14 2.950025 1_556
Nb9 V13 2.951430 1_556
Nb9 V7 2.959293 1_555
Nb9 V20 2.962333 1_556
Nb9 V3 2.962840 1_555
Nb9 V17 2.977255 1_555
Nb9 V15 2.981709 1_545
Nb10 V4 2.929432 1_555
Nb10 V20 2.935560 1_555
Nb10 V12 2.938255 1_555
Nb10 V9 2.954253 1_555
Nb10 V3 2.968791 1_555
Nb10 V7 2.973109 1_555
Nb10 V15 2.984810 1_545
Nb10 V17 2.991080 1_555
Nb10 V0 2.998484 1_555
Nb10 V2 3.001037 1_555
Nb10 Nb11 3.050345 1_555
Nb10 Nb6 3.063580 1_555
Nb10 Nb4 3.101722 1_455
Nb10 Nb9 3.149110 1_555
Nb11 V7 2.929432 1_555
Nb11 V19 2.935560 1_555
Nb11 V12 2.938255 1_555
Nb11 V2 2.954253 1_555
Nb11 V1 2.968791 1_555
Nb11 V4 2.973108 1_555
Nb11 V18 2.984810 1_655
Nb11 V16 2.991080 1_555
Nb11 V5 2.998484 1_555
Nb11 V9 3.001037 1_555
Nb11 Nb7 3.063580 1_555
Nb11 Nb3 3.101722 1_565
Nb11 Nb8 3.149110 1_555
V0 V17 2.456276 1_555
V0 V10 2.473652 1_455
V0 V14 2.534418 1_556
V0 V6 2.593769 1_555
V0 V2 2.593769 1_555
V1 V11 2.473652 1_655
V1 V18 2.474851 1_655
V1 V13 2.546019 1_555
V1 V12 2.551205 1_555
V1 V8 2.565541 1_555
V1 V4 2.565541 1_555
V2 V7 2.473651 1_555
V2 V6 2.593768 1_555
V3 V6 2.473652 1_545
V3 V7 2.565541 1_555
V4 V9 2.473651 1_555
V4 V8 2.565540 1_555
V5 V8 2.473652 1_565
V5 V9 2.593769 1_555
V10 V17 2.474851 1_655
V10 V13 2.546017 1_556
V10 V12 2.551203 1_555
V10 V7 2.565540 1_555
V10 V3 2.565541 1_555
V11 V18 2.456276 1_555
V11 V14 2.534416 1_555
V11 V9 2.593768 1_555
V11 V5 2.593769 1_555
V12 V8 2.551203 1_555
V12 V3 2.551205 1_555
V12 V7 2.551208 1_555
V12 V4 2.551208 1_555
V13 V8 2.546017 1_555
V13 V3 2.546019 1_554
V13 V7 2.546022 1_554
V13 V4 2.546022 1_555
V14 V6 2.534416 1_554
V14 V5 2.534418 1_555
V14 V9 2.534421 1_555
V14 V2 2.534421 1_554
V15 V6 2.456276 1_555
V15 V3 2.474852 1_565
V15 V17 2.574448 1_565
V15 V19 2.574448 1_455
V16 V5 2.456276 1_555
V16 V8 2.474851 1_565
V16 V18 2.574448 1_655
V16 V20 2.574448 1_665
V17 V19 2.574448 1_445
V18 V20 2.574448 1_565
V19 V2 2.456276 1_555
V19 V7 2.474851 1_555
V20 V9 2.456276 1_555
V20 V4 2.474852 1_555
Ge0 V6 2.581930 1_555
Ge0 V11 2.581930 1_555
Ge0 V0 2.581932 1_555
Ge0 V5 2.581932 1_555
Ge0 V9 2.581935 1_555
Ge0 V2 2.581935 1_555
Ge0 Nb6 2.958110 1_565
Ge0 Nb7 2.958110 1_455
Ge0 Nb3 2.958115 1_565
Ge0 Nb4 2.958115 1_455
Ge0 Nb10 2.958119 1_555
Ge0 Nb11 2.958119 1_555
Ir0 V18 2.549943 1_545
Ir0 V17 2.549943 1_555
Ir0 V15 2.549943 1_545
Ir0 V16 2.549943 1_445
Ir0 V20 2.549943 1_555
Ir0 V19 2.549943 1_445
Ir0 Nb4 2.964982 1_455
Ir0 Nb7 2.964982 1_445
Ir0 Nb3 2.964982 1_455
Ir0 Nb6 2.964982 1_555
Ir0 Nb11 2.964983 1_445
Ir0 Nb10 2.964983 1_555
Ir1 V18 2.553265 1_545
Ir1 V17 2.553265 1_554
Ir1 V15 2.553265 1_544
Ir1 V16 2.553265 1_445
Ir1 V20 2.553265 1_555
Ir1 V19 2.553265 1_444
Ir1 Nb5 2.972435 1_544
Ir1 Nb2 2.972435 1_555
Ir1 Nb0 2.972435 1_545
Ir1 Nb1 2.972435 1_444
Ir1 Nb9 2.972436 1_554
Ir1 Nb8 2.972436 1_445
