# generated using pymatgen
data_Y6Tc16O
_symmetry_space_group_name_H-M   'P 1'
_cell_length_a   8.02467634
_cell_length_b   8.02467538
_cell_length_c   8.02467579
_cell_angle_alpha   109.47122417
_cell_angle_beta   109.47122174
_cell_angle_gamma   109.47121846
_symmetry_Int_Tables_number   1
_chemical_formula_structural   Y6Tc16O
_chemical_formula_sum   'Y6 Tc16 O1'
_cell_volume   397.79616255
_cell_formula_units_Z   1
loop_
 _symmetry_equiv_pos_site_id
 _symmetry_equiv_pos_as_xyz
  1  'x, y, z'
loop_
 _atom_site_type_symbol
 _atom_site_label
 _atom_site_symmetry_multiplicity
 _atom_site_fract_x
 _atom_site_fract_y
 _atom_site_fract_z
 _atom_site_occupancy
  Y  Y0  1  0.73603963  0.73603963  1.00000000  1
  Y  Y1  1  0.26395937  1.00000000  0.26396037  1
  Y  Y2  1  0.73603963  0.00000000  0.73603963  1
  Y  Y3  1  1.00000000  0.73603963  0.73604063  1
  Y  Y4  1  0.00000000  0.26395937  0.26396037  1
  Y  Y5  1  0.26395937  0.26395937  0.00000000  1
  Tc  Tc0  1  0.00000000  0.50000000  0.00000000  1
  Tc  Tc1  1  0.50000000  0.00000000  0.00000000  1
  Tc  Tc2  1  0.00000000  0.00000000  0.50000000  1
  Tc  Tc3  1  0.50000000  0.50000000  0.50000000  1
  Tc  Tc4  1  0.33930222  0.33930222  0.67860444  1
  Tc  Tc5  1  0.66069778  0.66069778  0.32139556  1
  Tc  Tc6  1  0.00000000  0.33930222  0.66069778  1
  Tc  Tc7  1  0.32139556  0.66069778  0.66069778  1
  Tc  Tc8  1  0.66069778  0.32139556  0.66069778  1
  Tc  Tc9  1  0.33930222  0.00000000  0.66069778  1
  Tc  Tc10  1  0.66069778  0.33930222  1.00000000  1
  Tc  Tc11  1  0.33930222  0.66069778  0.00000000  1
  Tc  Tc12  1  0.33930222  0.67860444  0.33930222  1
  Tc  Tc13  1  1.00000000  0.66069778  0.33930222  1
  Tc  Tc14  1  0.66069778  1.00000000  0.33930222  1
  Tc  Tc15  1  0.67860444  0.33930222  0.33930222  1
  O  O0  1  0.00000000  0.00000000  0.00000000  1
loop_
_geom_bond_atom_site_label_1
_geom_bond_atom_site_label_2
_geom_bond_distance
_geom_bond_site_symmetry_2
Tc0 Tc13 2.595331 1_455
Tc0 Tc6 2.595331 1_554
Tc0 Tc12 2.595331 1_555
Tc0 Tc8 2.595331 1_454
Tc0 Tc10 2.595331 1_454
Tc0 Tc11 2.595331 1_555
Tc0 Y3 3.278606 1_454
Tc0 Y1 3.278613 1_555
Tc0 Y5 3.278613 1_555
Tc0 Y2 3.278613 1_454
Tc0 Y0 3.278613 1_454
Tc0 Y4 3.278619 1_555
Tc1 Tc15 2.595331 1_555
Tc1 Tc7 2.595331 1_544
Tc1 Tc10 2.595331 1_554
Tc1 Tc11 2.595331 1_545
Tc1 Tc14 2.595331 1_545
Tc1 Tc9 2.595331 1_554
Tc1 Y5 3.278613 1_555
Tc1 Y0 3.278613 1_544
Tc1 Y4 3.278613 1_655
Tc1 Y3 3.278613 1_444
Tc1 Y2 3.278613 1_554
Tc1 Y1 3.278620 1_545
Tc2 Tc6 2.595331 1_555
Tc2 Tc4 2.595331 1_555
Tc2 Tc5 2.595331 1_445
Tc2 Tc9 2.595331 1_555
Tc2 Y4 3.278606 1_555
Tc2 Y1 3.278607 1_545
Tc2 Y5 3.278613 1_556
Tc2 Y0 3.278613 1_444
Tc2 Y2 3.278613 1_455
Tc2 Y3 3.278619 1_445
Tc3 Tc8 2.595331 1_555
Tc3 Tc7 2.595331 1_555
Tc3 Tc5 2.595331 1_555
Tc3 Tc4 2.595331 1_555
Tc3 Y5 3.278613 1_555
Tc3 Y1 3.278613 1_545
Tc3 Y2 3.278613 1_565
Tc3 Y0 3.278613 1_555
Tc3 Y3 3.278613 1_555
Tc3 Y4 3.278613 1_555
Tc4 Tc9 2.678320 1_555
Tc4 Tc7 2.678320 1_555
Tc4 Tc8 2.678321 1_555
Tc4 Tc6 2.678321 1_555
Tc4 Y0 3.036146 1_555
Tc4 Y5 3.036153 1_556
Tc4 Y1 3.220580 1_545
Tc4 Y4 3.220581 1_555
Tc5 Y0 3.036146 1_554
Tc5 Y5 3.036153 1_555
Tc5 Y2 3.220584 1_565
Tc5 Y3 3.220590 1_555
Tc6 Tc8 2.678321 1_455
Tc6 Tc7 2.978083 1_555
Tc6 Y3 3.036145 1_455
Tc6 Y4 3.036145 1_555
Tc6 Y2 3.220584 1_455
Tc6 Y5 3.220586 1_556
Tc7 Tc9 2.678320 1_565
Tc7 Y4 3.036149 1_555
Tc7 Y3 3.036150 1_455
Tc7 Y0 3.220584 1_555
Tc7 Y2 3.220584 1_565
Tc8 Tc9 2.978083 1_555
Tc8 Y2 3.036146 1_555
Tc8 Y1 3.036150 1_545
Tc8 Y3 3.220580 1_555
Tc8 Y0 3.220584 1_555
Tc9 Y1 3.036145 1_545
Tc9 Y2 3.036146 1_555
Tc9 Y5 3.220586 1_556
Tc9 Y3 3.220590 1_445
Tc10 Tc9 2.678320 1_555
Tc10 Tc13 2.678320 1_556
Tc10 Tc8 2.678321 1_555
Tc10 Tc15 2.678321 1_556
Tc10 Tc5 2.978082 1_556
Tc10 Tc4 2.978083 1_555
Tc10 Y0 3.036146 1_555
Tc10 Y5 3.036153 1_556
Tc10 Y2 3.220584 1_555
Tc10 Y4 3.220590 1_656
Tc11 Tc14 2.678320 1_555
Tc11 Tc6 2.678320 1_554
Tc11 Tc12 2.678321 1_555
Tc11 Tc7 2.678321 1_554
Tc11 Tc4 2.978082 1_554
Tc11 Tc5 2.978083 1_555
Tc11 Y0 3.036146 1_554
Tc11 Y5 3.036153 1_555
Tc11 Y3 3.220581 1_454
Tc11 Y1 3.220589 1_555
Tc12 Tc3 2.595331 1_555
Tc12 Tc7 2.678321 1_555
Tc12 Tc5 2.678321 1_555
Tc12 Tc13 2.678321 1_455
Tc12 Tc9 2.978082 1_565
Tc12 Tc14 2.978083 1_555
Tc12 Y2 3.036146 1_565
Tc12 Y1 3.036149 1_555
Tc12 Y5 3.220586 1_555
Tc12 Y4 3.220590 1_555
Tc13 Tc2 2.595331 1_665
Tc13 Tc9 2.678320 1_665
Tc13 Tc5 2.678321 1_555
Tc13 Tc7 2.978083 1_655
Tc13 Tc15 2.978083 1_555
Tc13 Y4 3.036154 1_655
Tc13 Y3 3.036154 1_555
Tc13 Y1 3.220581 1_655
Tc13 Y0 3.220584 1_554
Tc14 Tc2 2.595331 1_665
Tc14 Tc5 2.678320 1_555
Tc14 Tc15 2.678320 1_565
Tc14 Tc6 2.678320 1_665
Tc14 Tc8 2.978082 1_565
Tc14 Y2 3.036146 1_565
Tc14 Y1 3.036154 1_555
Tc14 Y4 3.220581 1_665
Tc14 Y0 3.220584 1_554
Tc15 Tc3 2.595331 1_555
Tc15 Tc5 2.678320 1_555
Tc15 Tc8 2.678321 1_555
Tc15 Tc6 2.978083 1_655
Tc15 Y3 3.036149 1_555
Tc15 Y4 3.036150 1_655
Tc15 Y5 3.220586 1_555
Tc15 Y1 3.220590 1_545
O0 Y5 2.445873 1_555
O0 Y3 2.445878 1_444
O0 Y4 2.445878 1_555
O0 Y1 2.445878 1_545
O0 Y2 2.445883 1_454
O0 Y0 2.445883 1_444
