# generated using pymatgen
data_Cs2Mg(CdSe2)2
_symmetry_space_group_name_H-M   'P 1'
_cell_length_a   10.18172393
_cell_length_b   10.18172440
_cell_length_c   10.18172489
_cell_angle_alpha   143.36937063
_cell_angle_beta   105.27581862
_cell_angle_gamma   86.21776071
_symmetry_Int_Tables_number   1
_chemical_formula_structural   Cs2Mg(CdSe2)2
_chemical_formula_sum   'Cs4 Mg2 Cd4 Se8'
_cell_volume   587.80310544
_cell_formula_units_Z   2
loop_
 _symmetry_equiv_pos_site_id
 _symmetry_equiv_pos_as_xyz
  1  'x, y, z'
loop_
 _atom_site_type_symbol
 _atom_site_label
 _atom_site_symmetry_multiplicity
 _atom_site_fract_x
 _atom_site_fract_y
 _atom_site_fract_z
 _atom_site_occupancy
  Cs  Cs0  1  0.11750689  0.23472497  0.35359132  1
  Cs  Cs1  1  0.38249311  0.73608443  0.11721808  1
  Cs  Cs2  1  0.61886535  0.26527503  0.88278192  1
  Cs  Cs3  1  0.88113465  0.76391557  0.64640868  1
  Mg  Mg0  1  0.97847858  0.75000000  0.22847858  1
  Mg  Mg1  1  0.52152142  0.75000000  0.77152142  1
  Cd  Cd0  1  0.25000000  0.75000000  0.50000000  1
  Cd  Cd1  1  0.75000000  0.25000000  0.50000000  1
  Cd  Cd2  1  0.47386631  0.25000000  0.22386631  1
  Cd  Cd3  1  0.02613369  0.25000000  0.77613369  1
  Se  Se0  1  0.49162972  0.64073698  0.42303383  1
  Se  Se1  1  0.00837028  0.43140411  0.14910826  1
  Se  Se2  1  0.28229785  0.85926302  0.85089174  1
  Se  Se3  1  0.21770215  0.06859589  0.57696617  1
  Se  Se4  1  0.71760223  0.12106808  0.13432612  1
  Se  Se5  1  0.78239777  0.91672389  0.40346685  1
  Se  Se6  1  0.98674196  0.58327611  0.86567388  1
  Se  Se7  1  0.51325804  0.37893192  0.59653315  1
loop_
_geom_bond_atom_site_label_1
_geom_bond_atom_site_label_2
_geom_bond_distance
_geom_bond_site_symmetry_2
Cs0 Se3 3.714654 1_555
Cs0 Se2 3.760657 1_555
Cs0 Se7 3.769626 1_555
Cs0 Se4 3.819341 1_455
Cs0 Se1 3.841692 1_555
Cs0 Se6 3.858543 1_455
Cs0 Se6 3.903917 1_444
Cs0 Se2 3.987657 1_544
Cs1 Se2 3.714664 1_554
Cs1 Se3 3.760661 1_565
Cs1 Se6 3.769627 1_454
Cs1 Se5 3.819342 1_555
Cs1 Se0 3.841701 1_555
Cs1 Se7 3.858545 1_565
Cs1 Se7 3.903924 1_554
Cs1 Se3 3.987645 1_554
Cs2 Se1 3.714665 1_656
Cs2 Se0 3.760653 1_545
Cs2 Se4 3.769628 1_556
Cs2 Se7 3.819351 1_555
Cs2 Se3 3.841700 1_555
Cs2 Se5 3.858543 1_545
Cs2 Se5 3.903918 1_556
Cs2 Se0 3.987637 1_556
Cs3 Se0 3.714664 1_555
Cs3 Se1 3.760640 1_655
Cs3 Se5 3.769618 1_555
Cs3 Se6 3.819341 1_555
Cs3 Se2 3.841700 1_655
Cs3 Se4 3.858545 1_555
Cs3 Se4 3.903924 1_566
Cs3 Se1 3.987640 1_666
Mg0 Se6 2.571908 1_554
Mg0 Se5 2.571911 1_555
Mg0 Se3 2.657097 1_665
Mg0 Se1 2.657110 1_655
Mg1 Se7 2.571902 1_555
Mg1 Se4 2.571908 1_566
Mg1 Se2 2.657091 1_555
Mg1 Se0 2.657103 1_555
Cd0 Se2 2.675792 1_555
Cd0 Se1 2.675802 1_555
Cd0 Se0 2.675803 1_555
Cd0 Se3 2.675805 1_565
Cd1 Se7 2.694369 1_555
Cd1 Se6 2.694372 1_555
Cd1 Se4 2.694372 1_555
Cd1 Se5 2.694378 1_545
Cd2 Se2 2.631648 1_544
Cd2 Se0 2.631652 1_555
Cd2 Se7 2.748546 1_555
Cd2 Se4 2.748556 1_555
Cd3 Se3 2.631643 1_555
Cd3 Se1 2.631661 1_556
Cd3 Se5 2.748555 1_445
Cd3 Se6 2.748556 1_455
