# generated using pymatgen
data_BaInGeRh3
_symmetry_space_group_name_H-M   'P 1'
_cell_length_a   7.10978326
_cell_length_b   7.11252002
_cell_length_c   7.10978272
_cell_angle_alpha   130.49467170
_cell_angle_beta   114.65394915
_cell_angle_gamma   86.17332888
_symmetry_Int_Tables_number   1
_chemical_formula_structural   BaInGeRh3
_chemical_formula_sum   'Ba2 In2 Ge2 Rh6'
_cell_volume   237.40150154
_cell_formula_units_Z   2
loop_
 _symmetry_equiv_pos_site_id
 _symmetry_equiv_pos_as_xyz
  1  'x, y, z'
loop_
 _atom_site_type_symbol
 _atom_site_label
 _atom_site_symmetry_multiplicity
 _atom_site_fract_x
 _atom_site_fract_y
 _atom_site_fract_z
 _atom_site_occupancy
  Ba  Ba0  1  0.75613960  0.00619196  0.25005236  1
  Ba  Ba1  1  0.24386040  0.99380804  0.74994764  1
  In  In0  1  0.56844851  0.31758182  0.74913331  1
  In  In1  1  0.43155149  0.68241818  0.25086669  1
  Ge  Ge0  1  0.09949967  0.34862665  0.24912698  1
  Ge  Ge1  1  0.90050033  0.65137335  0.75087302  1
  Rh  Rh0  1  0.21387155  0.50000000  0.71387155  1
  Rh  Rh1  1  0.78559832  0.00000000  0.78559832  1
  Rh  Rh2  1  0.78612845  0.50000000  0.28612845  1
  Rh  Rh3  1  0.21440168  1.00000000  0.21440168  1
  Rh  Rh4  1  0.50000000  0.50000000  0.50000000  1
  Rh  Rh5  1  0.00000000  0.50000000  0.00000000  1
loop_
_geom_bond_atom_site_label_1
_geom_bond_atom_site_label_2
_geom_bond_distance
_geom_bond_site_symmetry_2
Ba0 Ge1 3.328498 1_544
Ba0 Ge1 3.338913 1_555
Ba0 Rh2 3.366195 1_555
Ba0 Rh0 3.366195 1_655
Ba0 Rh1 3.367048 1_554
Ba0 Rh3 3.367048 1_645
Ba0 In1 3.371449 1_545
Ba0 Rh5 3.542611 1_656
Ba0 Rh4 3.542611 1_555
Ba0 Rh4 3.543203 1_544
Ba0 Rh5 3.543203 1_645
Ba0 In0 3.553308 1_555
Ba0 In0 3.564519 1_544
Ba0 Ge0 3.566431 1_655
Ba0 Rh1 3.754328 1_555
Ba0 Rh3 3.754328 1_545
Ba0 Rh2 3.758279 1_545
Ba0 Rh0 3.758280 1_544
Ba0 Ba1 3.840293 1_645
Ba0 Ba1 3.840293 1_544
Ba1 Ge0 3.328498 1_566
Ba1 Ge0 3.338913 1_555
Ba1 Rh0 3.366195 1_555
Ba1 Rh2 3.366195 1_455
Ba1 Rh3 3.367048 1_556
Ba1 Rh1 3.367048 1_465
Ba1 In0 3.371449 1_565
Ba1 Rh5 3.542611 1_555
Ba1 Rh4 3.542611 1_555
Ba1 Rh4 3.543203 1_566
Ba1 Rh5 3.543203 1_566
Ba1 In1 3.553308 1_555
Ba1 In1 3.564519 1_566
Ba1 Ge1 3.566431 1_455
Ba1 Rh3 3.754328 1_555
Ba1 Rh1 3.754328 1_565
Ba1 Rh0 3.758279 1_565
Ba1 Rh2 3.758280 1_566
In0 Rh4 2.690535 1_555
In0 Rh5 2.690536 1_656
In0 Rh3 2.741199 1_545
In0 Rh1 2.741199 1_555
In0 Rh2 2.749564 1_556
In0 Rh0 2.749564 1_555
In1 Rh4 2.690535 1_555
In1 Rh5 2.690536 1_555
In1 Rh1 2.741199 1_565
In1 Rh3 2.741199 1_555
In1 Rh0 2.749564 1_554
In1 Rh2 2.749564 1_555
Ge0 Rh3 2.445325 1_545
Ge0 Rh1 2.445325 1_454
Ge0 Rh0 2.448126 1_555
Ge0 Rh2 2.448126 1_455
Ge0 Rh5 2.475198 1_555
Ge0 Rh4 2.475198 1_555
Ge1 Rh1 2.445325 1_565
Ge1 Rh3 2.445325 1_656
Ge1 Rh2 2.448126 1_555
Ge1 Rh0 2.448126 1_655
Ge1 Rh5 2.475198 1_656
Ge1 Rh4 2.475198 1_555
