# generated using pymatgen
data_Cs2Ca(NbBr3)6
_symmetry_space_group_name_H-M   'P 1'
_cell_length_a   10.83367927
_cell_length_b   10.83367953
_cell_length_c   10.83367860
_cell_angle_alpha   55.10956522
_cell_angle_beta   55.10955516
_cell_angle_gamma   55.10955887
_symmetry_Int_Tables_number   1
_chemical_formula_structural   Cs2Ca(NbBr3)6
_chemical_formula_sum   'Cs2 Ca1 Nb6 Br18'
_cell_volume   796.85029365
_cell_formula_units_Z   1
loop_
 _symmetry_equiv_pos_site_id
 _symmetry_equiv_pos_as_xyz
  1  'x, y, z'
loop_
 _atom_site_type_symbol
 _atom_site_label
 _atom_site_symmetry_multiplicity
 _atom_site_fract_x
 _atom_site_fract_y
 _atom_site_fract_z
 _atom_site_occupancy
  Cs  Cs0  1  0.72413909  0.72413909  0.72413909  1
  Cs  Cs1  1  0.27586091  0.27586091  0.27586091  1
  Ca  Ca0  1  0.00000000  0.00000000  0.00000000  1
  Nb  Nb0  1  0.58204553  0.35692291  0.69317487  1
  Nb  Nb1  1  0.35692291  0.69317487  0.58204553  1
  Nb  Nb2  1  0.69317487  0.58204553  0.35692291  1
  Nb  Nb3  1  0.64307709  0.30682513  0.41795447  1
  Nb  Nb4  1  0.41795447  0.64307709  0.30682513  1
  Nb  Nb5  1  0.30682513  0.41795447  0.64307709  1
  Br  Br0  1  0.90982177  0.36625045  0.22113287  1
  Br  Br1  1  0.83760390  0.42499030  0.56215037  1
  Br  Br2  1  0.77886713  0.09017823  0.63374955  1
  Br  Br3  1  0.09017823  0.63374955  0.77886713  1
  Br  Br4  1  0.68759626  0.16607353  0.96190383  1
  Br  Br5  1  0.22113287  0.90982177  0.36625045  1
  Br  Br6  1  0.43784963  0.16239610  0.57500970  1
  Br  Br7  1  0.63374955  0.77886713  0.09017823  1
  Br  Br8  1  0.57500970  0.43784963  0.16239610  1
  Br  Br9  1  0.03809617  0.31240374  0.83392647  1
  Br  Br10  1  0.56215037  0.83760390  0.42499030  1
  Br  Br11  1  0.36625045  0.22113287  0.90982177  1
  Br  Br12  1  0.96190383  0.68759626  0.16607353  1
  Br  Br13  1  0.16239610  0.57500970  0.43784963  1
  Br  Br14  1  0.83392647  0.03809617  0.31240374  1
  Br  Br15  1  0.42499030  0.56215037  0.83760390  1
  Br  Br16  1  0.16607353  0.96190383  0.68759626  1
  Br  Br17  1  0.31240374  0.83392647  0.03809617  1
loop_
_geom_bond_atom_site_label_1
_geom_bond_atom_site_label_2
_geom_bond_distance
_geom_bond_site_symmetry_2
Br0 Nb3 2.611664 1_555
Br0 Nb2 2.616409 1_555
Br0 Cs1 3.823496 1_655
Br1 Nb0 2.620349 1_555
Br1 Nb2 2.625460 1_555
Br1 Cs0 3.817761 1_555
Br1 Cs1 3.857849 1_655
Br2 Nb0 2.611664 1_555
Br2 Nb3 2.616410 1_555
Br2 Cs0 3.823496 1_545
Br3 Nb1 2.611664 1_555
Br3 Nb5 2.616409 1_555
Br3 Cs0 3.823496 1_455
Br4 Nb0 2.876762 1_555
Br4 Ca0 2.940129 1_656
Br4 Cs1 3.752637 1_556
Br5 Nb4 2.611664 1_555
Br5 Nb1 2.616410 1_555
Br5 Cs1 3.823496 1_565
Br6 Nb5 2.620349 1_555
Br6 Nb3 2.625460 1_555
Br6 Cs1 3.817761 1_555
Br6 Cs0 3.857850 1_545
Br7 Nb2 2.611664 1_555
Br7 Nb4 2.616409 1_555
Br7 Cs0 3.823496 1_554
Br8 Nb3 2.620349 1_555
Br8 Nb4 2.625459 1_555
Br8 Cs1 3.817761 1_555
Br8 Cs0 3.857850 1_554
Br9 Nb5 2.876762 1_555
Br9 Ca0 2.940129 1_556
Br9 Cs0 3.752638 1_455
Br10 Nb2 2.620349 1_555
Br10 Nb1 2.625460 1_555
Br10 Cs0 3.817761 1_555
Br10 Cs1 3.857850 1_565
Br11 Nb5 2.611664 1_555
Br11 Nb0 2.616409 1_555
Br11 Cs1 3.823496 1_556
Br12 Nb2 2.876762 1_555
Br12 Ca0 2.940129 1_665
Br12 Cs1 3.752638 1_655
Br13 Nb4 2.620349 1_555
Br13 Nb5 2.625460 1_555
Br13 Cs1 3.817761 1_555
Br13 Cs0 3.857849 1_455
Br14 Nb3 2.876762 1_555
Br14 Ca0 2.940129 1_655
Br14 Cs0 3.752638 1_545
Br15 Nb1 2.620349 1_555
Br15 Nb0 2.625459 1_555
Br15 Cs0 3.817761 1_555
Br15 Cs1 3.857850 1_556
Br16 Nb1 2.876762 1_555
Br16 Ca0 2.940129 1_566
Br16 Cs1 3.752638 1_565
Br17 Nb4 2.876762 1_555
Br17 Ca0 2.940129 1_565
Br17 Cs0 3.752637 1_554
