# generated using pymatgen
data_Sr6TaRh4O15
_symmetry_space_group_name_H-M   'P 1'
_cell_length_a   7.10792366
_cell_length_b   7.10792355
_cell_length_c   7.10792398
_cell_angle_alpha   85.42427156
_cell_angle_beta   85.42426597
_cell_angle_gamma   85.42427733
_symmetry_Int_Tables_number   1
_chemical_formula_structural   Sr6TaRh4O15
_chemical_formula_sum   'Sr6 Ta1 Rh4 O15'
_cell_volume   355.84992839
_cell_formula_units_Z   1
loop_
 _symmetry_equiv_pos_site_id
 _symmetry_equiv_pos_as_xyz
  1  'x, y, z'
loop_
 _atom_site_type_symbol
 _atom_site_label
 _atom_site_symmetry_multiplicity
 _atom_site_fract_x
 _atom_site_fract_y
 _atom_site_fract_z
 _atom_site_occupancy
  Sr  Sr0  1  0.32229271  0.67770729  0.00000000  1
  Sr  Sr1  1  0.67770729  0.00000000  0.32229271  1
  Sr  Sr2  1  1.00000000  0.32229271  0.67770729  1
  Sr  Sr3  1  0.13295941  0.86704059  0.50000000  1
  Sr  Sr4  1  0.86704059  0.50000000  0.13295941  1
  Sr  Sr5  1  0.50000000  0.13295941  0.86704059  1
  Ta  Ta0  1  0.50000000  0.50000000  0.50000000  1
  Rh  Rh0  1  0.90357028  0.90357028  0.90357028  1
  Rh  Rh1  1  0.09642972  0.09642972  0.09642972  1
  Rh  Rh2  1  0.70340234  0.70340234  0.70340234  1
  Rh  Rh3  1  0.29659766  0.29659766  0.29659766  1
  O  O0  1  0.25450905  0.56627408  0.37994041  1
  O  O1  1  0.37994041  0.25450905  0.56627408  1
  O  O2  1  0.56627408  0.37994041  0.25450905  1
  O  O3  1  0.74549095  0.62005959  0.43372592  1
  O  O4  1  0.43372592  0.74549095  0.62005959  1
  O  O5  1  0.62005959  0.43372592  0.74549095  1
  O  O6  1  0.00000000  0.83555540  0.16444460  1
  O  O7  1  0.16444460  1.00000000  0.83555540  1
  O  O8  1  0.83555540  0.16444460  1.00000000  1
  O  O9  1  0.35099015  0.02585439  0.20748028  1
  O  O10  1  0.20748028  0.35099015  0.02585439  1
  O  O11  1  0.79251972  0.97414561  0.64900985  1
  O  O12  1  0.97414561  0.64900985  0.79251972  1
  O  O13  1  0.64900985  0.79251972  0.97414561  1
  O  O14  1  0.02585439  0.20748028  0.35099015  1
loop_
_geom_bond_atom_site_label_1
_geom_bond_atom_site_label_2
_geom_bond_distance
_geom_bond_site_symmetry_2
O0 Ta0 2.009288 1_555
O0 Rh3 2.043553 1_555
O0 Sr3 2.433872 1_555
O0 Sr0 2.768512 1_555
O0 Sr2 3.172327 1_455
O1 Ta0 2.009287 1_555
O1 Rh3 2.043553 1_555
O1 Sr5 2.433872 1_555
O1 Sr2 2.768512 1_455
O1 Sr1 3.172327 1_555
O2 Ta0 2.009288 1_555
O2 Rh3 2.043552 1_555
O2 Sr4 2.433872 1_555
O2 Sr1 2.768512 1_555
O2 Sr0 3.172327 1_555
O3 Ta0 2.009287 1_555
O3 Rh2 2.043553 1_555
O3 Sr4 2.433872 1_555
O3 Sr1 2.768512 1_565
O3 Sr2 3.172327 1_555
O4 Ta0 2.009287 1_555
O4 Rh2 2.043553 1_555
O4 Sr3 2.433872 1_555
O4 Sr0 2.768512 1_556
O4 Sr1 3.172327 1_565
O5 Ta0 2.009288 1_555
O5 Rh2 2.043552 1_555
O5 Sr5 2.433872 1_555
O5 Sr2 2.768512 1_555
O5 Sr0 3.172327 1_556
O6 Rh1 2.036843 1_565
O6 Rh0 2.036844 1_454
O6 Sr4 2.666552 1_455
O6 Sr3 2.666552 1_555
O6 Sr0 2.691633 1_555
O6 Sr1 2.691633 1_465
O7 Rh0 2.036843 1_455
O7 Rh1 2.036844 1_566
O7 Sr5 2.666552 1_565
O7 Sr3 2.666552 1_555
O7 Sr0 2.691633 1_556
O7 Sr2 2.691633 1_465
O8 Rh0 2.036844 1_545
O8 Rh1 2.036844 1_656
O8 Sr4 2.666552 1_556
O8 Sr5 2.666552 1_555
O8 Sr2 2.691633 1_555
O8 Sr1 2.691633 1_556
O9 Rh1 2.041689 1_555
O9 Rh3 2.071432 1_555
O9 Sr1 2.510598 1_555
O9 Sr5 2.642478 1_554
O9 Sr3 2.718383 1_545
O9 Sr0 3.008485 1_545
O10 Rh1 2.041689 1_555
O10 Rh3 2.071433 1_555
O10 Sr0 2.510597 1_555
O10 Sr4 2.642478 1_455
O10 Sr5 2.718383 1_554
O10 Sr2 3.008485 1_454
O11 Rh0 2.041689 1_555
O11 Rh2 2.071432 1_555
O11 Sr1 2.510598 1_565
O11 Sr3 2.642478 1_655
O11 Sr5 2.718383 1_565
O11 Sr2 3.008485 1_565
O12 Rh0 2.041689 1_555
O12 Rh2 2.071433 1_555
O12 Sr2 2.510598 1_555
O12 Sr4 2.642478 1_556
O12 Sr3 2.718383 1_655
O12 Sr0 3.008485 1_656
O13 Rh0 2.041689 1_555
O13 Rh2 2.071433 1_555
O13 Sr0 2.510597 1_556
O13 Sr5 2.642478 1_565
O13 Sr4 2.718384 1_556
O13 Sr1 3.008485 1_566
O14 Rh1 2.041689 1_555
O14 Rh3 2.071432 1_555
O14 Sr2 2.510598 1_455
O14 Sr3 2.642478 1_545
O14 Sr4 2.718384 1_455
O14 Sr1 3.008485 1_455
