# generated using pymatgen
data_Rb10CaSn12
_symmetry_space_group_name_H-M   'P 1'
_cell_length_a   10.74977905
_cell_length_b   10.74978030
_cell_length_c   10.74977967
_cell_angle_alpha   109.47121575
_cell_angle_beta   109.47121811
_cell_angle_gamma   109.47122079
_symmetry_Int_Tables_number   1
_chemical_formula_structural   Rb10CaSn12
_chemical_formula_sum   'Rb10 Ca1 Sn12'
_cell_volume   956.26186606
_cell_formula_units_Z   1
loop_
 _symmetry_equiv_pos_site_id
 _symmetry_equiv_pos_as_xyz
  1  'x, y, z'
loop_
 _atom_site_type_symbol
 _atom_site_label
 _atom_site_symmetry_multiplicity
 _atom_site_fract_x
 _atom_site_fract_y
 _atom_site_fract_z
 _atom_site_occupancy
  Rb  Rb0  1  0.50000000  0.25000000  0.75000000  1
  Rb  Rb1  1  0.75000000  0.25000000  0.50000000  1
  Rb  Rb2  1  0.25000000  0.75000000  0.50000000  1
  Rb  Rb3  1  0.50000000  0.75000000  0.25000000  1
  Rb  Rb4  1  0.59274489  1.00000000  0.00000000  1
  Rb  Rb5  1  0.40725511  0.40725511  0.40725511  1
  Rb  Rb6  1  0.00000000  0.59274489  0.00000000  1
  Rb  Rb7  1  0.00000000  0.00000000  0.59274489  1
  Rb  Rb8  1  0.75000000  0.50000000  0.25000000  1
  Rb  Rb9  1  0.25000000  0.50000000  0.75000000  1
  Ca  Ca0  1  0.00000000  0.00000000  0.00000000  1
  Sn  Sn0  1  1.00000000  0.17186311  0.33755736  1
  Sn  Sn1  1  0.82813689  0.16569425  0.82813689  1
  Sn  Sn2  1  0.66244264  0.66244264  0.83430575  1
  Sn  Sn3  1  0.33755736  0.17186311  1.00000000  1
  Sn  Sn4  1  0.17186311  0.33755736  1.00000000  1
  Sn  Sn5  1  0.33755736  1.00000000  0.17186311  1
  Sn  Sn6  1  0.66244264  0.83430575  0.66244264  1
  Sn  Sn7  1  0.83430575  0.66244264  0.66244264  1
  Sn  Sn8  1  1.00000000  0.33755736  0.17186311  1
  Sn  Sn9  1  0.82813689  0.82813689  0.16569425  1
  Sn  Sn10  1  0.16569425  0.82813689  0.82813689  1
  Sn  Sn11  1  0.17186311  1.00000000  0.33755736  1
loop_
_geom_bond_atom_site_label_1
_geom_bond_atom_site_label_2
_geom_bond_distance
_geom_bond_site_symmetry_2
Rb0 Sn3 3.825286 1_555
Rb0 Sn1 3.825286 1_555
Rb0 Sn2 3.825287 1_555
Rb0 Sn11 3.825287 1_545
Rb1 Sn0 3.825286 1_555
Rb1 Sn1 3.825287 1_555
Rb1 Sn5 3.825287 1_545
Rb1 Sn7 3.825287 1_555
Rb2 Sn6 3.825286 1_555
Rb2 Sn10 3.825287 1_555
Rb2 Sn11 3.825287 1_555
Rb2 Sn8 3.825287 1_455
Rb3 Sn9 3.825286 1_555
Rb3 Sn5 3.825287 1_555
Rb3 Sn6 3.825287 1_555
Rb3 Sn4 3.825287 1_554
Rb4 Sn5 3.783797 1_555
Rb4 Sn10 3.783797 1_554
Rb4 Sn3 3.783797 1_564
Rb4 Sn1 3.910814 1_564
Rb4 Sn9 3.910814 1_555
Rb4 Sn6 3.910815 1_554
Rb4 Sn0 3.910815 1_565
Rb4 Sn8 3.910815 1_565
Rb4 Sn2 3.910815 1_554
Rb5 Sn7 3.783798 1_555
Rb5 Sn2 3.783798 1_555
Rb5 Sn6 3.783798 1_555
Rb5 Sn0 3.910814 1_455
Rb5 Sn8 3.910814 1_455
Rb5 Sn4 3.910815 1_554
Rb5 Sn11 3.910815 1_545
Rb5 Sn3 3.910815 1_554
Rb5 Sn5 3.910815 1_545
Rb6 Sn8 3.783798 1_455
Rb6 Sn4 3.783798 1_554
Rb6 Sn1 3.783798 1_454
Rb6 Sn2 3.910814 1_454
Rb6 Sn10 3.910814 1_554
Rb6 Sn7 3.910814 1_454
Rb6 Sn9 3.910815 1_455
Rb6 Sn5 3.910815 1_555
Rb6 Sn11 3.910815 1_555
Rb7 Sn11 3.783797 1_545
Rb7 Sn0 3.783798 1_455
Rb7 Sn9 3.783798 1_445
Rb7 Sn6 3.910814 1_445
Rb7 Sn1 3.910814 1_455
Rb7 Sn10 3.910814 1_545
Rb7 Sn7 3.910815 1_445
Rb7 Sn3 3.910815 1_555
Rb7 Sn4 3.910815 1_555
Rb8 Sn8 3.825287 1_555
Rb8 Sn9 3.825287 1_555
Rb8 Sn7 3.825287 1_555
Rb8 Sn3 3.825287 1_554
Rb9 Sn2 3.825286 1_555
Rb9 Sn4 3.825287 1_555
Rb9 Sn10 3.825287 1_555
Rb9 Sn0 3.825287 1_455
Ca0 Sn3 3.480109 1_554
Ca0 Sn9 3.480109 1_445
Ca0 Sn5 3.480109 1_545
Ca0 Sn1 3.480109 1_454
Ca0 Sn10 3.480109 1_544
Ca0 Sn11 3.480109 1_545
Ca0 Sn4 3.480110 1_554
Ca0 Sn6 3.480110 1_444
Ca0 Sn0 3.480110 1_455
Ca0 Sn2 3.480110 1_444
Ca0 Sn8 3.480110 1_455
Ca0 Sn7 3.480110 1_444
Sn0 Sn8 2.908649 1_555
Sn0 Sn11 3.016940 1_645
Sn0 Sn9 3.016940 1_545
Sn1 Sn6 2.908650 1_545
Sn1 Sn4 3.016940 1_655
Sn1 Sn8 3.016940 1_556
Sn2 Sn9 2.908650 1_556
Sn2 Sn7 3.016939 1_555
Sn2 Sn6 3.016940 1_555
Sn3 Sn4 2.908649 1_555
Sn3 Sn5 3.016940 1_546
Sn4 Sn8 3.016939 1_456
Sn6 Sn7 3.016940 1_555
Sn10 Sn7 2.908649 1_455
Sn10 Sn5 3.016940 1_556
Sn10 Sn3 3.016940 1_565
Sn11 Sn5 2.908649 1_555
Sn11 Sn9 3.016940 1_455
