# generated using pymatgen
data_RbGa3
_symmetry_space_group_name_H-M   'P 1'
_cell_length_a   6.31483254
_cell_length_b   6.31483312
_cell_length_c   8.69416379
_cell_angle_alpha   111.29470437
_cell_angle_beta   111.29469497
_cell_angle_gamma   90.00000156
_symmetry_Int_Tables_number   1
_chemical_formula_structural   RbGa3
_chemical_formula_sum   'Rb3 Ga9'
_cell_volume   297.47879793
_cell_formula_units_Z   3
loop_
 _symmetry_equiv_pos_site_id
 _symmetry_equiv_pos_as_xyz
  1  'x, y, z'
loop_
 _atom_site_type_symbol
 _atom_site_label
 _atom_site_symmetry_multiplicity
 _atom_site_fract_x
 _atom_site_fract_y
 _atom_site_fract_z
 _atom_site_occupancy
  Rb  Rb0  1  0.00000000  0.00000000  -0.00000000  1
  Rb  Rb1  1  0.37185235  0.87185235  0.74370471  1
  Rb  Rb2  1  0.12814765  0.62814765  0.25629529  1
  Ga  Ga0  1  0.50000000  0.50000000  -0.00000000  1
  Ga  Ga1  1  0.43063896  0.22269158  0.44538315  1
  Ga  Ga2  1  0.77730842  0.56936104  0.55461685  1
  Ga  Ga3  1  0.77730842  0.98525781  0.55461685  1
  Ga  Ga4  1  0.01474219  0.22269158  0.44538315  1
  Ga  Ga5  1  0.69705898  0.39078659  0.78157517  1
  Ga  Ga6  1  0.60921341  0.30294102  0.21842483  1
  Ga  Ga7  1  0.60921341  0.91548380  0.21842483  1
  Ga  Ga8  1  0.08451620  0.39078659  0.78157517  1
loop_
_geom_bond_atom_site_label_1
_geom_bond_atom_site_label_2
_geom_bond_distance
_geom_bond_site_symmetry_2
Rb0 Rb1 3.691174 1_544
Rb0 Rb1 3.691175 1_444
Rb0 Rb2 3.691175 1_555
Rb0 Rb2 3.691175 1_545
Rb1 Rb2 3.636020 1_555
Ga0 Ga5 2.528949 1_554
Ga0 Ga7 2.528949 1_555
Ga0 Ga8 2.528949 1_554
Ga0 Ga6 2.528949 1_555
Ga0 Rb2 3.691174 1_555
Ga0 Rb2 3.691175 1_655
Ga0 Rb1 3.691175 1_544
Ga0 Rb1 3.691175 1_554
Ga1 Ga5 2.583671 1_555
Ga1 Ga4 2.626318 1_555
Ga1 Ga3 2.732505 1_545
Ga1 Ga2 2.732513 1_555
Ga1 Ga7 2.786482 1_545
Ga1 Ga6 2.786482 1_555
Ga1 Rb0 3.572595 1_555
Ga1 Rb2 3.699104 1_545
Ga1 Rb2 3.699104 1_555
Ga2 Ga6 2.583671 1_555
Ga2 Ga3 2.626319 1_555
Ga2 Ga4 2.732505 1_655
Ga2 Ga5 2.786482 1_555
Ga2 Ga8 2.786482 1_655
Ga2 Rb0 3.572595 1_666
Ga2 Rb1 3.699104 1_555
Ga2 Rb1 3.699104 1_655
Ga3 Ga7 2.583668 1_555
Ga3 Ga4 2.732497 1_665
Ga3 Ga5 2.786465 1_565
Ga3 Ga8 2.786465 1_665
Ga3 Rb0 3.572599 1_666
Ga3 Rb1 3.699108 1_555
Ga3 Rb1 3.699108 1_655
Ga4 Ga8 2.583667 1_555
Ga4 Ga7 2.786465 1_445
Ga4 Ga6 2.786465 1_455
Ga4 Rb0 3.572599 1_555
Ga4 Rb2 3.699108 1_545
Ga4 Rb2 3.699108 1_555
Ga5 Ga8 2.446727 1_655
Ga5 Rb1 3.713436 1_545
Ga5 Rb1 3.713447 1_555
Ga5 Rb2 3.746711 1_656
Ga5 Rb0 3.757777 1_656
Ga5 Rb0 3.757787 1_666
Ga6 Ga7 2.446728 1_545
Ga6 Rb2 3.713436 1_655
Ga6 Rb2 3.713447 1_555
Ga6 Rb1 3.746711 1_544
Ga6 Rb0 3.757776 1_655
Ga6 Rb0 3.757787 1_555
Ga7 Rb2 3.713436 1_655
Ga7 Rb2 3.713447 1_555
Ga7 Rb1 3.746711 1_554
Ga7 Rb0 3.757776 1_665
Ga7 Rb0 3.757787 1_565
Ga8 Rb1 3.713436 1_545
Ga8 Rb1 3.713447 1_555
Ga8 Rb2 3.746711 1_556
Ga8 Rb0 3.757776 1_556
Ga8 Rb0 3.757787 1_566
