# generated using pymatgen
data_FeNi2Sb12Os
_symmetry_space_group_name_H-M   'P 1'
_cell_length_a   7.94395745
_cell_length_b   7.90163729
_cell_length_c   9.16737152
_cell_angle_alpha   55.02265037
_cell_angle_beta   54.93467227
_cell_angle_gamma   70.80209595
_symmetry_Int_Tables_number   1
_chemical_formula_structural   FeNi2Sb12Os
_chemical_formula_sum   'Fe1 Ni2 Sb12 Os1'
_cell_volume   385.92309165
_cell_formula_units_Z   1
loop_
 _symmetry_equiv_pos_site_id
 _symmetry_equiv_pos_as_xyz
  1  'x, y, z'
loop_
 _atom_site_type_symbol
 _atom_site_label
 _atom_site_symmetry_multiplicity
 _atom_site_fract_x
 _atom_site_fract_y
 _atom_site_fract_z
 _atom_site_occupancy
  Fe  Fe0  1  0.50000000  0.00000000  0.00000000  1
  Ni  Ni0  1  0.50000000  0.00000000  0.50000000  1
  Ni  Ni1  1  0.00000000  0.50000000  0.50000000  1
  Sb  Sb0  1  0.66301911  0.67580008  0.17316819  1
  Sb  Sb1  1  0.33698089  0.32419992  0.82683181  1
  Sb  Sb2  1  0.65971667  0.65917596  0.49762658  1
  Sb  Sb3  1  0.34028333  0.34082404  0.50237342  1
  Sb  Sb4  1  0.84156280  0.15265010  0.34096346  1
  Sb  Sb5  1  0.15843720  0.84734990  0.65903654  1
  Sb  Sb6  1  0.16345538  0.84565570  0.32973587  1
  Sb  Sb7  1  0.83654462  0.15434430  0.67026413  1
  Sb  Sb8  1  0.49304494  0.82407048  0.84493848  1
  Sb  Sb9  1  0.50695506  0.17592952  0.15506152  1
  Sb  Sb10  1  0.18279003  0.50608610  0.15900030  1
  Sb  Sb11  1  0.81720997  0.49391390  0.84099970  1
  Os  Os0  1  0.00000000  0.50000000  0.00000000  1
loop_
_geom_bond_atom_site_label_1
_geom_bond_atom_site_label_2
_geom_bond_distance
_geom_bond_site_symmetry_2
Fe0 Sb0 2.505493 1_545
Fe0 Sb1 2.505493 1_554
Fe0 Sb9 2.522408 1_555
Fe0 Sb8 2.522408 1_544
Fe0 Sb7 2.530661 1_554
Fe0 Sb6 2.530661 1_545
Ni0 Sb4 2.556089 1_555
Ni0 Sb5 2.556089 1_545
Ni0 Sb3 2.578987 1_555
Ni0 Sb2 2.578987 1_545
Ni0 Sb8 2.597075 1_545
Ni0 Sb9 2.597075 1_555
Ni1 Sb11 2.557535 1_455
Ni1 Sb10 2.557535 1_555
Ni1 Sb3 2.586477 1_555
Ni1 Sb2 2.586477 1_455
Ni1 Sb6 2.588046 1_555
Ni1 Sb7 2.588046 1_455
Os0 Sb10 2.606482 1_555
Os0 Sb11 2.606482 1_454
Os0 Sb5 2.608254 1_554
Os0 Sb4 2.608254 1_455
Os0 Sb0 2.610677 1_455
Os0 Sb1 2.610677 1_554
