# generated using pymatgen
data_LuHf(SnIr)2
_symmetry_space_group_name_H-M   'P 1'
_cell_length_a   7.41026031
_cell_length_b   7.41025848
_cell_length_c   7.41989347
_cell_angle_alpha   90.00000000
_cell_angle_beta   90.00000000
_cell_angle_gamma   120.00000817
_symmetry_Int_Tables_number   1
_chemical_formula_structural   LuHf(SnIr)2
_chemical_formula_sum   'Lu3 Hf3 Sn6 Ir6'
_cell_volume   352.85403388
_cell_formula_units_Z   3
loop_
 _symmetry_equiv_pos_site_id
 _symmetry_equiv_pos_as_xyz
  1  'x, y, z'
loop_
 _atom_site_type_symbol
 _atom_site_label
 _atom_site_symmetry_multiplicity
 _atom_site_fract_x
 _atom_site_fract_y
 _atom_site_fract_z
 _atom_site_occupancy
  Lu  Lu0  1  0.00006034  0.40423700  0.75000000  1
  Lu  Lu1  1  0.59576300  0.59582333  0.75000000  1
  Lu  Lu2  1  0.40417667  0.99993966  0.75000000  1
  Hf  Hf0  1  0.99960303  0.39042842  0.25000000  1
  Hf  Hf1  1  0.60957158  0.60917360  0.25000000  1
  Hf  Hf2  1  0.39082640  0.00039697  0.25000000  1
  Sn  Sn0  1  0.26826794  0.26851356  0.49638083  1
  Sn  Sn1  1  0.00024362  0.73173206  0.49638083  1
  Sn  Sn2  1  0.00024362  0.73173206  0.00361917  1
  Sn  Sn3  1  0.73148644  0.99975638  0.49638083  1
  Sn  Sn4  1  0.73148644  0.99975638  0.00361917  1
  Sn  Sn5  1  0.26826794  0.26851356  0.00361917  1
  Ir  Ir0  1  0.33333300  0.66666700  0.46613633  1
  Ir  Ir1  1  0.66666700  0.33333300  0.46727506  1
  Ir  Ir2  1  0.33333300  0.66666700  0.03386367  1
  Ir  Ir3  1  0.00000000  0.00000000  0.75000000  1
  Ir  Ir4  1  0.00000000  0.00000000  0.25000000  1
  Ir  Ir5  1  0.66666700  0.33333300  0.03272494  1
loop_
_geom_bond_atom_site_label_1
_geom_bond_atom_site_label_2
_geom_bond_distance
_geom_bond_site_symmetry_2
Lu0 Sn2 3.070415 1_556
Lu0 Sn1 3.070415 1_555
Lu0 Sn5 3.240650 1_556
Lu0 Sn0 3.240650 1_555
Lu0 Sn4 3.243574 1_446
Lu0 Sn3 3.243574 1_445
Lu1 Sn5 3.070409 1_556
Lu1 Sn0 3.070409 1_555
Lu1 Sn4 3.240661 1_556
Lu1 Sn3 3.240661 1_555
Lu1 Sn2 3.243573 1_656
Lu1 Sn1 3.243573 1_655
Lu2 Sn4 3.070404 1_556
Lu2 Sn3 3.070404 1_555
Lu2 Sn2 3.240659 1_556
Lu2 Sn1 3.240659 1_555
Lu2 Sn5 3.243584 1_566
Lu2 Sn0 3.243584 1_565
Hf0 Ir0 2.795650 1_655
Hf0 Ir2 2.795650 1_655
Hf0 Ir1 2.796609 1_555
Hf0 Ir5 2.796609 1_555
Hf0 Ir4 2.894647 1_655
Hf0 Sn1 3.118754 1_655
Hf0 Sn2 3.118754 1_655
Hf0 Sn3 3.149377 1_545
Hf0 Sn4 3.149377 1_545
Hf0 Sn0 3.149664 1_655
Hf0 Sn5 3.149664 1_655
Hf1 Ir0 2.795658 1_555
Hf1 Ir2 2.795658 1_555
Hf1 Ir1 2.796609 1_555
Hf1 Ir5 2.796609 1_555
Hf1 Ir4 2.894651 1_665
Hf1 Sn0 3.118745 1_555
Hf1 Sn5 3.118745 1_555
Hf1 Sn1 3.149374 1_655
Hf1 Sn2 3.149374 1_655
Hf1 Sn3 3.149680 1_555
Hf1 Sn4 3.149680 1_555
Hf2 Ir0 2.795646 1_545
Hf2 Ir2 2.795646 1_545
Hf2 Ir1 2.796609 1_555
Hf2 Ir5 2.796609 1_555
Hf2 Ir4 2.894656 1_555
Hf2 Sn3 3.118737 1_545
Hf2 Sn4 3.118737 1_545
Hf2 Sn0 3.149391 1_555
Hf2 Sn5 3.149391 1_555
Hf2 Sn1 3.149677 1_545
Hf2 Sn2 3.149677 1_545
Ir0 Sn0 2.750502 1_555
Ir0 Sn3 2.750505 1_555
Ir0 Sn1 2.750510 1_555
Ir0 Lu2 3.084551 1_555
Ir0 Lu0 3.084552 1_555
Ir0 Lu1 3.084556 1_555
Ir1 Sn3 2.752256 1_545
Ir1 Sn1 2.752269 1_655
Ir1 Sn0 2.752278 1_555
Ir1 Lu0 3.079326 1_655
Ir1 Lu2 3.079327 1_545
Ir1 Lu1 3.079331 1_555
Ir2 Sn5 2.750502 1_555
Ir2 Sn4 2.750505 1_555
Ir2 Sn2 2.750510 1_555
Ir2 Lu2 3.084551 1_554
Ir2 Lu0 3.084552 1_554
Ir2 Lu1 3.084556 1_554
Ir3 Sn2 2.738019 1_546
Ir3 Sn1 2.738019 1_545
Ir3 Sn5 2.738025 1_556
Ir3 Sn0 2.738025 1_555
Ir3 Sn4 2.738031 1_446
Ir3 Sn3 2.738031 1_445
Ir3 Lu0 2.995277 1_555
Ir3 Lu1 2.995277 1_445
Ir3 Lu2 2.995278 1_545
Ir4 Sn1 2.701388 1_545
Ir4 Sn2 2.701388 1_545
Ir4 Sn0 2.701394 1_555
Ir4 Sn5 2.701394 1_555
Ir4 Sn3 2.701399 1_445
Ir4 Sn4 2.701399 1_445
Ir5 Sn4 2.752256 1_545
Ir5 Sn2 2.752269 1_655
Ir5 Sn5 2.752278 1_555
Ir5 Lu0 3.079326 1_654
Ir5 Lu2 3.079327 1_544
Ir5 Lu1 3.079331 1_554
