# generated using pymatgen
data_Li3NbO4
_symmetry_space_group_name_H-M   'P 1'
_cell_length_a   7.28900888
_cell_length_b   7.28900552
_cell_length_c   7.28900480
_cell_angle_alpha   109.47140037
_cell_angle_beta   109.47145239
_cell_angle_gamma   109.47141122
_symmetry_Int_Tables_number   1
_chemical_formula_structural   Li3NbO4
_chemical_formula_sum   'Li12 Nb4 O16'
_cell_volume   298.11228728
_cell_formula_units_Z   4
loop_
 _symmetry_equiv_pos_site_id
 _symmetry_equiv_pos_as_xyz
  1  'x, y, z'
loop_
 _atom_site_type_symbol
 _atom_site_label
 _atom_site_symmetry_multiplicity
 _atom_site_fract_x
 _atom_site_fract_y
 _atom_site_fract_z
 _atom_site_occupancy
  Li  Li0  1  0.72788959  0.24044968  0.72788931  1
  Li  Li1  1  0.27208605  0.00005510  0.51257822  1
  Li  Li2  1  0.51257856  0.00005663  0.27208701  1
  Li  Li3  1  0.75950714  0.48743847  0.48743937  1
  Li  Li4  1  0.48744114  0.75950623  0.48743997  1
  Li  Li5  1  0.24044874  0.72788828  0.72789100  1
  Li  Li6  1  0.27208541  0.51257744  0.00005490  1
  Li  Li7  1  0.00005608  0.51257916  0.27208755  1
  Li  Li8  1  0.72788691  0.72788936  0.24044888  1
  Li  Li9  1  0.00005410  0.27208594  0.51257694  1
  Li  Li10  1  0.51257806  0.27208661  0.00005529  1
  Li  Li11  1  0.48743953  0.48743992  0.75950575  1
  Nb  Nb0  1  -0.00000604  -0.00000614  0.71715622  1
  Nb  Nb1  1  -0.00000583  0.71715684  -0.00000506  1
  Nb  Nb2  1  0.71715596  0.99999333  0.99999250  1
  Nb  Nb3  1  0.28282155  0.28282114  0.28282185  1
  O  O0  1  0.48880100  0.24692808  0.48880089  1
  O  O1  1  0.24187613  0.24187571  0.75307294  1
  O  O2  1  0.75812188  0.51119057  -0.00000388  1
  O  O3  1  0.51119042  0.75812215  -0.00000438  1
  O  O4  1  0.77095417  0.77095427  0.77095418  1
  O  O5  1  0.22904491  0.00000247  0.00000236  1
  O  O6  1  0.00000329  0.22904477  0.00000261  1
  O  O7  1  0.00000246  0.00000269  0.22904463  1
  O  O8  1  0.48880262  0.48880233  0.24693089  1
  O  O9  1  0.51119253  -0.00000360  0.75811931  1
  O  O10  1  -0.00000382  0.51119087  0.75812239  1
  O  O11  1  0.24187589  0.75307304  0.24187599  1
  O  O12  1  -0.00000385  0.75812188  0.51119092  1
  O  O13  1  0.75812228  -0.00000364  0.51119065  1
  O  O14  1  0.75307344  0.24187594  0.24187555  1
  O  O15  1  0.24693070  0.48880249  0.48880322  1
loop_
_geom_bond_atom_site_label_1
_geom_bond_atom_site_label_2
_geom_bond_distance
_geom_bond_site_symmetry_2
Li0 O0 2.039939 1_555
Li0 O9 2.063769 1_555
Li0 O13 2.063788 1_555
Li0 O10 2.164741 1_655
Li0 O2 2.164743 1_556
Li0 O6 2.339250 1_656
Li1 O9 2.040148 1_555
Li1 O0 2.063677 1_555
Li1 O11 2.064132 1_545
Li1 O1 2.164357 1_555
Li1 O12 2.164794 1_545
Li1 O7 2.338975 1_555
Li2 O13 2.040154 1_555
Li2 O0 2.063666 1_555
Li2 O11 2.064137 1_545
Li2 O14 2.164359 1_555
Li2 O3 2.164802 1_545
Li2 O5 2.338972 1_555
Li3 O14 2.040091 1_555
Li3 O10 2.063909 1_655
Li3 O12 2.063915 1_655
Li3 O8 2.164565 1_555
Li3 O0 2.164571 1_555
Li3 O4 2.339054 1_555
Li4 O11 2.040104 1_555
Li4 O9 2.063900 1_565
Li4 O13 2.063912 1_565
Li4 O8 2.164555 1_555
Li4 O15 2.164567 1_555
Li4 O4 2.339035 1_555
Li5 O15 2.039941 1_555
Li5 O10 2.063773 1_555
Li5 O12 2.063793 1_555
Li5 O3 2.164730 1_556
Li5 O9 2.164776 1_565
Li5 O5 2.339240 1_566
Li6 O3 2.040161 1_555
Li6 O8 2.063688 1_555
Li6 O1 2.064133 1_554
Li6 O11 2.164361 1_555
Li6 O10 2.164790 1_554
Li6 O6 2.338967 1_555
Li7 O12 2.040148 1_555
Li7 O15 2.063683 1_555
Li7 O14 2.064132 1_455
Li7 O11 2.164358 1_555
Li7 O2 2.164798 1_455
Li7 O6 2.338983 1_555
Li8 O8 2.039932 1_555
Li8 O3 2.063779 1_555
Li8 O2 2.063796 1_555
Li8 O13 2.164736 1_565
Li8 O12 2.164756 1_655
Li8 O7 2.339257 1_665
Li9 O10 2.040158 1_555
Li9 O15 2.063683 1_555
Li9 O14 2.064123 1_455
Li9 O1 2.164369 1_555
Li9 O13 2.164791 1_455
Li9 O7 2.338972 1_555
Li10 O2 2.040153 1_555
Li10 O8 2.063683 1_555
Li10 O1 2.064128 1_554
Li10 O14 2.164361 1_555
Li10 O9 2.164813 1_554
Li10 O5 2.338974 1_555
Li11 O1 2.040100 1_555
Li11 O3 2.063915 1_556
Li11 O2 2.063917 1_556
Li11 O15 2.164551 1_555
Li11 O0 2.164569 1_555
Li11 O4 2.339042 1_555
Nb0 O12 1.896719 1_545
Nb0 O13 1.896720 1_455
Nb0 O1 1.896757 1_555
Nb0 O4 2.177801 1_445
Nb0 O6 2.177840 1_556
Nb0 O5 2.177841 1_556
Nb1 O2 1.896721 1_455
Nb1 O10 1.896724 1_554
Nb1 O11 1.896752 1_555
Nb1 O4 2.177803 1_454
Nb1 O7 2.177837 1_565
Nb1 O5 2.177844 1_565
Nb2 O3 1.896720 1_556
Nb2 O9 1.896722 1_565
Nb2 O14 1.896761 1_566
Nb2 O4 2.177794 1_555
Nb2 O6 2.177844 1_666
Nb2 O7 2.177844 1_666
Nb3 O0 1.896762 1_555
Nb3 O8 1.896769 1_555
Nb3 O15 1.896770 1_555
Nb3 O7 2.177705 1_555
Nb3 O6 2.177707 1_555
Nb3 O5 2.177709 1_555
