# generated using pymatgen
data_K5CaTaP4
_symmetry_space_group_name_H-M   'P 1'
_cell_length_a   10.09308581
_cell_length_b   10.09308578
_cell_length_c   7.57206328
_cell_angle_alpha   87.99380708
_cell_angle_beta   87.99380480
_cell_angle_gamma   120.25192282
_symmetry_Int_Tables_number   1
_chemical_formula_structural   K5CaTaP4
_chemical_formula_sum   'K10 Ca2 Ta2 P8'
_cell_volume   664.67511401
_cell_formula_units_Z   2
loop_
 _symmetry_equiv_pos_site_id
 _symmetry_equiv_pos_as_xyz
  1  'x, y, z'
loop_
 _atom_site_type_symbol
 _atom_site_label
 _atom_site_symmetry_multiplicity
 _atom_site_fract_x
 _atom_site_fract_y
 _atom_site_fract_z
 _atom_site_occupancy
  K  K0  1  0.46616473  0.52462348  0.49664511  1
  K  K1  1  0.05859642  0.52963689  0.49919464  1
  K  K2  1  0.52462348  0.46616473  0.99664511  1
  K  K3  1  0.52963689  0.05859642  0.99919464  1
  K  K4  1  0.86337644  0.14162343  0.68320814  1
  K  K5  1  0.29713014  0.15559324  0.73013359  1
  K  K6  1  0.85512004  0.71859235  0.65312901  1
  K  K7  1  0.14162343  0.86337644  0.18320814  1
  K  K8  1  0.71859235  0.85512004  0.15312901  1
  K  K9  1  0.15559324  0.29713014  0.23013359  1
  Ca  Ca0  1  0.45971935  0.93057996  0.49157307  1
  Ca  Ca1  1  0.93057996  0.45971935  0.99157307  1
  Ta  Ta0  1  0.67146112  0.32781018  0.39239077  1
  Ta  Ta1  1  0.32781018  0.67146112  0.89239077  1
  P  P0  1  0.69364802  0.34550288  0.70642057  1
  P  P1  1  0.34550288  0.69364802  0.20642057  1
  P  P2  1  0.79456748  0.19461786  0.28135172  1
  P  P3  1  0.40497765  0.18325565  0.32713016  1
  P  P4  1  0.80121399  0.58218768  0.25311221  1
  P  P5  1  0.19461786  0.79456748  0.78135172  1
  P  P6  1  0.58218768  0.80121399  0.75311221  1
  P  P7  1  0.18325565  0.40497765  0.82713016  1
loop_
_geom_bond_atom_site_label_1
_geom_bond_atom_site_label_2
_geom_bond_distance
_geom_bond_site_symmetry_2
K0 P6 3.190731 1_555
K0 P1 3.352803 1_555
K0 P7 3.418729 1_555
K0 P3 3.481563 1_555
K0 P4 3.561251 1_555
K1 P1 3.240981 1_555
K1 P5 3.241293 1_555
K1 P7 3.305638 1_555
K1 P0 3.460839 1_455
K1 P4 3.487111 1_455
K1 P2 3.588171 1_455
K2 P4 3.190731 1_556
K2 P0 3.352803 1_555
K2 P3 3.418729 1_556
K2 P7 3.481563 1_555
K2 P6 3.561251 1_555
K3 P0 3.240981 1_555
K3 P2 3.241293 1_556
K3 P3 3.305638 1_556
K3 P1 3.460839 1_546
K3 P6 3.487110 1_545
K3 P5 3.588171 1_545
K4 P6 3.175175 1_545
K4 P2 3.230457 1_555
K4 P7 3.237086 1_655
K4 P0 3.279660 1_555
K5 P3 3.158550 1_555
K5 P5 3.251583 1_545
K5 P7 3.343848 1_555
K5 P0 3.452408 1_555
K6 P0 3.265380 1_555
K6 P5 3.302973 1_655
K6 P4 3.319427 1_555
K6 P6 3.327154 1_555
K7 P4 3.175175 1_455
K7 P5 3.230457 1_554
K7 P3 3.237086 1_565
K7 P1 3.279660 1_555
K8 P1 3.265380 1_555
K8 P2 3.302973 1_565
K8 P6 3.319427 1_554
K8 P4 3.327154 1_555
K9 P7 3.158550 1_554
K9 P2 3.251583 1_455
K9 P3 3.343848 1_555
K9 P1 3.452408 1_555
Ca0 P6 2.961636 1_555
Ca0 P1 3.076976 1_555
Ca0 P5 3.087949 1_555
Ca0 P3 3.099234 1_565
Ca0 P2 3.362899 1_565
Ca1 P4 2.961636 1_556
Ca1 P0 3.076976 1_555
Ca1 P2 3.087949 1_556
Ca1 P7 3.099234 1_655
Ca1 P5 3.362899 1_655
P0 Ta0 2.400613 1_555
P1 Ta1 2.400613 1_554
P2 Ta0 2.397300 1_555
P3 Ta0 2.407601 1_555
P4 Ta0 2.396855 1_555
P5 Ta1 2.397300 1_555
P6 Ta1 2.396855 1_555
P7 Ta1 2.407601 1_555
