# generated using pymatgen
data_CsBa2Cd2Sb3
_symmetry_space_group_name_H-M   'P 1'
_cell_length_a   5.06155700
_cell_length_b   13.46862993
_cell_length_c   17.11278166
_cell_angle_alpha   90.00000000
_cell_angle_beta   90.00000000
_cell_angle_gamma   90.00000000
_symmetry_Int_Tables_number   1
_chemical_formula_structural   CsBa2Cd2Sb3
_chemical_formula_sum   'Cs4 Ba8 Cd8 Sb12'
_cell_volume   1166.61662670
_cell_formula_units_Z   4
loop_
 _symmetry_equiv_pos_site_id
 _symmetry_equiv_pos_as_xyz
  1  'x, y, z'
loop_
 _atom_site_type_symbol
 _atom_site_label
 _atom_site_symmetry_multiplicity
 _atom_site_fract_x
 _atom_site_fract_y
 _atom_site_fract_z
 _atom_site_occupancy
  Cs  Cs0  1  0.25000000  0.41000833  0.54807283  1
  Cs  Cs1  1  0.75000000  0.08999167  0.04807283  1
  Cs  Cs2  1  0.25000000  0.91000833  0.95192717  1
  Cs  Cs3  1  0.75000000  0.58999167  0.45192717  1
  Ba  Ba0  1  0.25000000  0.36579707  0.28577947  1
  Ba  Ba1  1  0.75000000  0.13420293  0.78577947  1
  Ba  Ba2  1  0.25000000  0.86579707  0.21422053  1
  Ba  Ba3  1  0.75000000  0.63420293  0.71422053  1
  Ba  Ba4  1  0.25000000  0.09378703  0.42672821  1
  Ba  Ba5  1  0.75000000  0.40621297  0.92672821  1
  Ba  Ba6  1  0.25000000  0.59378703  0.07327179  1
  Ba  Ba7  1  0.75000000  0.90621297  0.57327179  1
  Cd  Cd0  1  0.25000000  0.30023553  0.08255972  1
  Cd  Cd1  1  0.75000000  0.19976447  0.58255972  1
  Cd  Cd2  1  0.25000000  0.80023553  0.41744028  1
  Cd  Cd3  1  0.75000000  0.69976447  0.91744028  1
  Cd  Cd4  1  0.25000000  0.37394147  0.78339877  1
  Cd  Cd5  1  0.75000000  0.12605853  0.28339877  1
  Cd  Cd6  1  0.25000000  0.87394147  0.71660123  1
  Cd  Cd7  1  0.75000000  0.62605853  0.21660123  1
  Sb  Sb0  1  0.25000000  0.12919721  0.19916694  1
  Sb  Sb1  1  0.75000000  0.37080279  0.69916694  1
  Sb  Sb2  1  0.25000000  0.62919721  0.30083306  1
  Sb  Sb3  1  0.75000000  0.87080279  0.80083306  1
  Sb  Sb4  1  0.25000000  0.72546635  0.58131146  1
  Sb  Sb5  1  0.75000000  0.77453365  0.08131146  1
  Sb  Sb6  1  0.25000000  0.22546635  0.91868854  1
  Sb  Sb7  1  0.75000000  0.27453365  0.41868854  1
  Sb  Sb8  1  0.25000000  0.08549731  0.63278227  1
  Sb  Sb9  1  0.75000000  0.41450269  0.13278227  1
  Sb  Sb10  1  0.25000000  0.58549731  0.86721773  1
  Sb  Sb11  1  0.75000000  0.91450269  0.36721773  1
loop_
_geom_bond_atom_site_label_1
_geom_bond_atom_site_label_2
_geom_bond_distance
_geom_bond_site_symmetry_2
Cs0 Sb1 3.656393 1_455
Cs0 Sb1 3.656393 1_555
Cs0 Sb7 3.825777 1_455
Cs0 Sb7 3.825777 1_555
Cs0 Cs3 3.871475 1_455
Cs0 Cs3 3.871475 1_555
Cs0 Sb4 4.286693 1_555
Cs1 Sb0 3.656393 1_555
Cs1 Sb0 3.656393 1_655
Cs1 Sb6 3.825777 1_654
Cs1 Sb6 3.825777 1_554
Cs1 Cs2 3.871475 1_544
Cs1 Cs2 3.871475 1_644
Cs1 Sb5 4.286693 1_545
Cs2 Sb3 3.656393 1_455
Cs2 Sb3 3.656393 1_555
Cs2 Sb5 3.825777 1_556
Cs2 Sb5 3.825777 1_456
Cs2 Sb6 4.286693 1_565
Cs3 Sb2 3.656393 1_555
Cs3 Sb2 3.656393 1_655
Cs3 Sb4 3.825777 1_555
Cs3 Sb4 3.825777 1_655
Cs3 Sb7 4.286693 1_555
Ba0 Sb0 3.514508 1_555
Ba0 Sb2 3.556980 1_555
Ba0 Cd0 3.588010 1_555
Ba0 Sb7 3.617852 1_555
Ba0 Sb7 3.617852 1_455
Ba0 Sb9 3.700025 1_455
Ba0 Sb9 3.700025 1_555
Ba1 Sb1 3.514508 1_555
Ba1 Sb3 3.556980 1_545
Ba1 Cd1 3.588010 1_555
Ba1 Sb6 3.617852 1_655
Ba1 Sb6 3.617852 1_555
Ba1 Sb8 3.700025 1_555
Ba1 Sb8 3.700025 1_655
Ba2 Sb2 3.514508 1_555
Ba2 Sb0 3.556980 1_565
Ba2 Cd2 3.588010 1_555
Ba2 Sb5 3.617852 1_455
Ba2 Sb5 3.617852 1_555
Ba2 Sb11 3.700025 1_555
Ba2 Sb11 3.700025 1_455
Ba3 Sb3 3.514508 1_555
Ba3 Sb1 3.556980 1_555
Ba3 Cd3 3.588010 1_555
Ba3 Sb4 3.617852 1_655
Ba3 Sb4 3.617852 1_555
Ba3 Sb10 3.700025 1_555
Ba3 Sb10 3.700025 1_655
Ba4 Sb7 3.514273 1_455
Ba4 Sb7 3.514273 1_555
Ba4 Sb8 3.527925 1_555
Ba4 Cd5 3.551031 1_455
Ba4 Cd5 3.551031 1_555
Ba4 Sb11 3.643186 1_545
Ba4 Sb11 3.643186 1_445
Ba4 Sb0 3.923302 1_555
Ba4 Cd1 3.943802 1_455
Ba4 Cd1 3.943802 1_555
Ba4 Cd2 3.956930 1_545
Ba5 Sb6 3.514273 1_555
Ba5 Sb6 3.514273 1_655
Ba5 Sb9 3.527925 1_556
Ba5 Cd4 3.551031 1_555
Ba5 Cd4 3.551031 1_655
Ba5 Sb10 3.643186 1_555
Ba5 Sb10 3.643186 1_655
Ba5 Sb1 3.923302 1_555
Ba5 Cd0 3.943802 1_656
Ba5 Cd0 3.943802 1_556
Ba5 Cd3 3.956930 1_555
Ba6 Sb5 3.514273 1_455
Ba6 Sb5 3.514273 1_555
Ba6 Sb10 3.527925 1_554
Ba6 Cd7 3.551031 1_455
Ba6 Cd7 3.551031 1_555
Ba6 Sb9 3.643186 1_455
Ba6 Sb9 3.643186 1_555
Ba6 Sb2 3.923302 1_555
Ba6 Cd3 3.943802 1_554
Ba6 Cd3 3.943802 1_454
Ba6 Cd0 3.956930 1_555
Ba7 Sb4 3.514273 1_555
Ba7 Sb4 3.514273 1_655
Ba7 Sb11 3.527925 1_555
Ba7 Cd6 3.551031 1_655
Ba7 Cd6 3.551031 1_555
Ba7 Sb8 3.643186 1_665
Ba7 Sb8 3.643186 1_565
Ba7 Sb3 3.923302 1_555
Ba7 Cd2 3.943802 1_555
Ba7 Cd2 3.943802 1_655
Ba7 Cd1 3.956930 1_565
Cd0 Sb6 2.979627 1_554
Cd0 Sb0 3.047742 1_555
Cd0 Sb9 3.084166 1_455
Cd0 Sb9 3.084166 1_555
Cd0 Cs1 3.843390 1_455
Cd0 Cs1 3.843390 1_555
Cd1 Sb7 2.979627 1_555
Cd1 Sb1 3.047742 1_555
Cd1 Sb8 3.084166 1_555
Cd1 Sb8 3.084166 1_655
Cd1 Cs0 3.843390 1_555
Cd1 Cs0 3.843390 1_655
Cd2 Sb4 2.979627 1_555
Cd2 Sb2 3.047742 1_555
Cd2 Sb11 3.084166 1_555
Cd2 Sb11 3.084166 1_455
Cd2 Cs3 3.843390 1_455
Cd2 Cs3 3.843390 1_555
Cd3 Sb5 2.979627 1_556
Cd3 Sb3 3.047742 1_555
Cd3 Sb10 3.084166 1_555
Cd3 Sb10 3.084166 1_655
Cd3 Cs2 3.843390 1_655
Cd3 Cs2 3.843390 1_555
Cd4 Sb1 2.912796 1_455
Cd4 Sb1 2.912796 1_555
Cd4 Sb6 3.059265 1_555
Cd4 Sb10 3.190036 1_555
Cd4 Cs0 4.056274 1_555
Cd5 Sb0 2.912796 1_555
Cd5 Sb0 2.912796 1_655
Cd5 Sb7 3.059265 1_555
Cd5 Sb11 3.190036 1_545
Cd5 Cs1 4.056274 1_555
Cd6 Sb3 2.912796 1_455
Cd6 Sb3 2.912796 1_555
Cd6 Sb4 3.059265 1_555
Cd6 Sb8 3.190036 1_565
Cd6 Cs2 4.056274 1_555
Cd7 Sb2 2.912796 1_555
Cd7 Sb2 2.912796 1_655
Cd7 Sb5 3.059265 1_555
Cd7 Sb9 3.190036 1_555
Cd7 Cs3 4.056274 1_555
