# generated using pymatgen
data_KSrGaO3
_symmetry_space_group_name_H-M   'P 1'
_cell_length_a   6.26743756
_cell_length_b   6.26743682
_cell_length_c   12.20091086
_cell_angle_alpha   90.00000000
_cell_angle_beta   90.00000000
_cell_angle_gamma   126.68896803
_symmetry_Int_Tables_number   1
_chemical_formula_structural   KSrGaO3
_chemical_formula_sum   'K4 Sr4 Ga4 O12'
_cell_volume   384.31506677
_cell_formula_units_Z   4
loop_
 _symmetry_equiv_pos_site_id
 _symmetry_equiv_pos_as_xyz
  1  'x, y, z'
loop_
 _atom_site_type_symbol
 _atom_site_label
 _atom_site_symmetry_multiplicity
 _atom_site_fract_x
 _atom_site_fract_y
 _atom_site_fract_z
 _atom_site_occupancy
  K  K0  1  0.46027393  0.53972607  0.64399902  1
  K  K1  1  0.53972607  0.46027393  0.35600098  1
  K  K2  1  0.03972607  0.96027393  0.14399902  1
  K  K3  1  0.96027393  0.03972607  0.85600098  1
  Sr  Sr0  1  0.64255823  0.35744177  0.92093646  1
  Sr  Sr1  1  0.85744177  0.14255823  0.42093646  1
  Sr  Sr2  1  0.14255823  0.85744177  0.57906354  1
  Sr  Sr3  1  0.35744177  0.64255823  0.07906354  1
  Ga  Ga0  1  0.22959186  0.77040814  0.33893290  1
  Ga  Ga1  1  0.72959186  0.27040814  0.16106710  1
  Ga  Ga2  1  0.77040814  0.22959186  0.66106710  1
  Ga  Ga3  1  0.27040814  0.72959186  0.83893290  1
  O  O0  1  0.96911300  0.53088700  0.75000000  1
  O  O1  1  0.53088700  0.96911300  0.25000000  1
  O  O2  1  0.03088700  0.46911300  0.25000000  1
  O  O3  1  0.46911300  0.03088700  0.75000000  1
  O  O4  1  0.42900508  0.57099492  0.87633897  1
  O  O5  1  0.57099492  0.42900508  0.12366103  1
  O  O6  1  0.07099492  0.92900508  0.37633897  1
  O  O7  1  0.67282352  0.32717648  0.54004261  1
  O  O8  1  0.17282352  0.82717648  0.95995739  1
  O  O9  1  0.82717648  0.17282352  0.04004261  1
  O  O10  1  0.32717648  0.67282352  0.45995739  1
  O  O11  1  0.92900508  0.07099492  0.62366103  1
loop_
_geom_bond_atom_site_label_1
_geom_bond_atom_site_label_2
_geom_bond_distance
_geom_bond_site_symmetry_2
K0 O10 2.695437 1_555
K0 O7 2.697867 1_555
K0 O11 2.844312 1_565
K0 O11 2.844312 1_455
K0 O4 2.856320 1_555
K1 O7 2.695437 1_555
K1 O10 2.697867 1_555
K1 O6 2.844312 1_545
K1 O6 2.844312 1_655
K1 O5 2.856320 1_555
K2 O8 2.695437 1_554
K2 O9 2.697867 1_465
K2 O5 2.844312 1_455
K2 O5 2.844312 1_565
K2 O6 2.856320 1_555
K3 O9 2.695437 1_556
K3 O8 2.697867 1_645
K3 O4 2.844312 1_655
K3 O4 2.844312 1_545
K3 O11 2.856320 1_555
Ga0 O6 1.834389 1_555
Ga0 O10 1.837247 1_555
Ga0 O2 1.866556 1_555
Ga0 O1 1.866556 1_555
Ga1 O5 1.834389 1_555
Ga1 O9 1.837247 1_555
Ga1 O1 1.866556 1_545
Ga1 O2 1.866556 1_655
Ga2 O11 1.834389 1_555
Ga2 O7 1.837247 1_555
Ga2 O0 1.866556 1_555
Ga2 O3 1.866556 1_555
Ga3 O4 1.834389 1_555
Ga3 O8 1.837247 1_555
Ga3 O3 1.866556 1_565
Ga3 O0 1.866556 1_455
O0 Sr2 2.657369 1_655
O0 Sr0 2.657369 1_555
O1 Sr3 2.657369 1_555
O1 Sr1 2.657369 1_565
O2 Sr1 2.657369 1_455
O2 Sr3 2.657369 1_555
O3 Sr0 2.657369 1_555
O3 Sr2 2.657369 1_545
O4 Sr0 2.453464 1_555
O4 Sr3 2.600106 1_556
O5 Sr3 2.453464 1_555
O5 Sr0 2.600106 1_554
O6 Sr1 2.453464 1_465
O6 Sr2 2.600106 1_555
O7 Sr1 2.527711 1_555
O7 Sr2 2.871837 1_655
O7 Sr2 2.871837 1_545
O8 Sr3 2.527711 1_556
O8 Sr0 2.871837 1_565
O8 Sr0 2.871837 1_455
O9 Sr0 2.527711 1_554
O9 Sr3 2.871837 1_545
O9 Sr3 2.871837 1_655
O10 Sr2 2.527711 1_555
O10 Sr1 2.871837 1_455
O10 Sr1 2.871837 1_565
O11 Sr2 2.453464 1_645
O11 Sr1 2.600106 1_555
