# generated using pymatgen
data_Hf5Zr3(Rh2N)2
_symmetry_space_group_name_H-M   'P 1'
_cell_length_a   8.69395900
_cell_length_b   8.69395942
_cell_length_c   8.69395915
_cell_angle_alpha   59.99999731
_cell_angle_beta   59.99999571
_cell_angle_gamma   59.99999444
_symmetry_Int_Tables_number   1
_chemical_formula_structural   Hf5Zr3(Rh2N)2
_chemical_formula_sum   'Hf10 Zr6 Rh8 N4'
_cell_volume   464.66263738
_cell_formula_units_Z   2
loop_
 _symmetry_equiv_pos_site_id
 _symmetry_equiv_pos_as_xyz
  1  'x, y, z'
loop_
 _atom_site_type_symbol
 _atom_site_label
 _atom_site_symmetry_multiplicity
 _atom_site_fract_x
 _atom_site_fract_y
 _atom_site_fract_z
 _atom_site_occupancy
  Hf  Hf0  1  0.11933869  0.62688677  0.62688677  1
  Hf  Hf1  1  0.62688677  0.11933869  0.62688677  1
  Hf  Hf2  1  0.62688677  0.62688677  0.11933869  1
  Hf  Hf3  1  0.62688677  0.62688677  0.62688677  1
  Hf  Hf4  1  0.81728582  0.81728582  0.18271418  1
  Hf  Hf5  1  0.18271418  0.18271418  0.81728582  1
  Hf  Hf6  1  0.81728582  0.18271418  0.81728582  1
  Hf  Hf7  1  0.18271418  0.81728582  0.18271418  1
  Hf  Hf8  1  0.18271418  0.81728582  0.81728582  1
  Hf  Hf9  1  0.81728582  0.18271418  0.18271418  1
  Zr  Zr0  1  0.43429555  0.43429555  0.06570445  1
  Zr  Zr1  1  0.06570445  0.06570445  0.43429555  1
  Zr  Zr2  1  0.43429555  0.06570445  0.43429555  1
  Zr  Zr3  1  0.06570445  0.43429555  0.06570445  1
  Zr  Zr4  1  0.06570445  0.43429555  0.43429555  1
  Zr  Zr5  1  0.43429555  0.06570445  0.06570445  1
  Rh  Rh0  1  0.76121171  0.41292976  0.41292976  1
  Rh  Rh1  1  0.41292976  0.76121171  0.41292976  1
  Rh  Rh2  1  0.41292976  0.41292976  0.76121171  1
  Rh  Rh3  1  0.41292976  0.41292976  0.41292976  1
  Rh  Rh4  1  0.47343430  0.84218823  0.84218823  1
  Rh  Rh5  1  0.84218823  0.47343430  0.84218823  1
  Rh  Rh6  1  0.84218823  0.84218823  0.47343430  1
  Rh  Rh7  1  0.84218823  0.84218823  0.84218823  1
  N  N0  1  0.63019927  0.12326658  0.12326658  1
  N  N1  1  0.12326658  0.63019927  0.12326658  1
  N  N2  1  0.12326658  0.12326658  0.63019927  1
  N  N3  1  0.12326658  0.12326658  0.12326658  1
loop_
_geom_bond_atom_site_label_1
_geom_bond_atom_site_label_2
_geom_bond_distance
_geom_bond_site_symmetry_2
Hf0 Rh7 2.701216 1_455
Hf0 Rh6 2.701216 1_455
Hf0 Rh5 2.701217 1_455
Hf0 Rh3 2.720206 1_555
Hf0 Rh2 2.720216 1_555
Hf0 Rh1 2.720216 1_555
Hf1 Rh7 2.701216 1_545
Hf1 Rh6 2.701216 1_545
Hf1 Rh4 2.701217 1_545
Hf1 Rh3 2.720206 1_555
Hf1 Rh2 2.720216 1_555
Hf1 Rh0 2.720216 1_555
Hf2 Rh5 2.701216 1_554
Hf2 Rh4 2.701217 1_554
Hf2 Rh7 2.701217 1_554
Hf2 Rh3 2.720206 1_555
Hf2 Rh1 2.720216 1_555
Hf2 Rh0 2.720216 1_555
Hf3 Rh5 2.701217 1_555
Hf3 Rh4 2.701217 1_555
Hf3 Rh6 2.701217 1_555
Hf3 Rh1 2.720202 1_555
Hf3 Rh0 2.720202 1_555
Hf3 Rh2 2.720202 1_555
Hf4 N1 2.264551 1_655
Hf4 N0 2.264551 1_565
Hf4 Rh6 2.761038 1_555
Hf4 Rh7 2.761047 1_554
Hf5 N3 2.264549 1_556
Hf5 N2 2.264557 1_555
Hf5 Rh5 2.761043 1_455
Hf5 Rh4 2.761043 1_545
Hf6 N2 2.264551 1_655
Hf6 N0 2.264551 1_556
Hf6 Rh5 2.761038 1_555
Hf6 Rh7 2.761047 1_545
Hf7 N3 2.264549 1_565
Hf7 N1 2.264557 1_555
Hf7 Rh6 2.761043 1_455
Hf7 Rh4 2.761043 1_554
Hf8 N1 2.264551 1_556
Hf8 N2 2.264551 1_565
Hf8 Rh4 2.761038 1_555
Hf8 Rh7 2.761047 1_455
Hf9 N3 2.264549 1_655
Hf9 N0 2.264557 1_555
Hf9 Rh5 2.761043 1_554
Hf9 Rh6 2.761043 1_545
Rh0 Zr4 2.845154 1_655
Rh0 Zr1 2.845159 1_655
Rh0 Zr3 2.845159 1_655
Rh1 Zr2 2.845154 1_565
Rh1 Zr1 2.845159 1_565
Rh1 Zr5 2.845159 1_565
Rh2 Zr0 2.845154 1_556
Rh2 Zr3 2.845159 1_556
Rh2 Zr5 2.845159 1_556
Rh3 Zr4 2.845163 1_555
Rh3 Zr0 2.845163 1_555
Rh3 Zr2 2.845163 1_555
N0 Zr5 2.314484 1_555
N0 Zr2 2.314490 1_555
N0 Zr0 2.314490 1_555
N1 Zr3 2.314484 1_555
N1 Zr0 2.314489 1_555
N1 Zr4 2.314490 1_555
N2 Zr1 2.314484 1_555
N2 Zr2 2.314489 1_555
N2 Zr4 2.314490 1_555
N3 Zr5 2.314492 1_555
N3 Zr1 2.314492 1_555
N3 Zr3 2.314492 1_555
