# generated using pymatgen
data_Ti8Al14Fe7As
_symmetry_space_group_name_H-M   'P 1'
_cell_length_a   8.44013229
_cell_length_b   8.44013077
_cell_length_c   8.44013127
_cell_angle_alpha   120.04250237
_cell_angle_beta   119.78786845
_cell_angle_gamma   90.14710892
_symmetry_Int_Tables_number   1
_chemical_formula_structural   Ti8Al14Fe7As
_chemical_formula_sum   'Ti8 Al14 Fe7 As1'
_cell_volume   425.68152344
_cell_formula_units_Z   1
loop_
 _symmetry_equiv_pos_site_id
 _symmetry_equiv_pos_as_xyz
  1  'x, y, z'
loop_
 _atom_site_type_symbol
 _atom_site_label
 _atom_site_symmetry_multiplicity
 _atom_site_fract_x
 _atom_site_fract_y
 _atom_site_fract_z
 _atom_site_occupancy
  Ti  Ti0  1  0.79405650  0.28630182  0.07639032  1
  Ti  Ti1  1  0.20991249  0.28630182  0.49224431  1
  Ti  Ti2  1  0.20881651  0.70881651  0.50000000  1
  Ti  Ti3  1  0.20991249  0.71766818  0.92360968  1
  Ti  Ti4  1  0.79405650  0.71766818  0.50775569  1
  Ti  Ti5  1  0.78693169  0.28693169  0.50000000  1
  Ti  Ti6  1  0.38137136  0.12032480  0.73895345  1
  Ti  Ti7  1  0.38137136  0.64241891  0.26104655  1
  Al  Al0  1  0.16434367  0.33955603  0.17521135  1
  Al  Al1  1  0.16434367  0.98913232  0.82478865  1
  Al  Al2  1  0.16123708  0.33894047  0.82229761  1
  Al  Al3  1  0.51664086  0.33894047  0.17770239  1
  Al  Al4  1  0.83653250  0.66110108  0.82457157  1
  Al  Al5  1  0.83653250  0.01196093  0.17542843  1
  Al  Al6  1  0.83832459  0.66153133  0.17679425  1
  Al  Al7  1  0.48473808  0.66153133  0.82320575  1
  Al  Al8  1  0.38257019  0.11885547  0.26371472  1
  Al  Al9  1  0.85514075  0.11885547  0.73628528  1
  Al  Al10  1  0.61858758  0.87829973  0.25971215  1
  Al  Al11  1  0.61858758  0.35887543  0.74028785  1
  Al  Al12  1  0.61575577  0.87908015  0.73667662  1
  Al  Al13  1  0.14240254  0.87908015  0.26332338  1
  Fe  Fe0  1  0.00120293  0.00103088  0.50145522  1
  Fe  Fe1  1  0.49957466  0.00103088  0.99982694  1
  Fe  Fe2  1  0.49887198  0.49887198  0.00000000  1
  Fe  Fe3  1  0.49957466  0.49974772  0.49854478  1
  Fe  Fe4  1  0.00120293  0.49974772  0.00017306  1
  Fe  Fe5  1  0.00112491  0.00112491  0.00000000  1
  Fe  Fe6  1  0.49882348  0.99882348  0.50000000  1
  As  As0  1  0.99745517  0.49745517  0.50000000  1
loop_
_geom_bond_atom_site_label_1
_geom_bond_atom_site_label_2
_geom_bond_distance
_geom_bond_site_symmetry_2
Ti0 Ti6 2.886098 1_554
Ti1 Ti6 2.886102 1_555
Ti2 Ti6 2.879840 1_565
Ti2 Ti7 2.879841 1_555
Ti3 Ti7 2.886104 1_556
Ti4 Ti7 2.886097 1_555
Al0 Fe4 2.427943 1_555
Al0 Fe3 2.427951 1_555
Al0 Fe5 2.443327 1_555
Al0 Ti7 2.686540 1_555
Al0 Al9 2.732038 1_454
Al0 Al8 2.732045 1_555
Al1 Fe1 2.427948 1_565
Al1 Fe0 2.427955 1_565
Al1 Fe5 2.443320 1_566
Al1 Ti6 2.686540 1_565
Al1 Al8 2.732038 1_566
Al1 Al9 2.732039 1_465
Al2 Fe2 2.428738 1_556
Al2 Fe4 2.429889 1_556
Al2 Fe0 2.429891 1_555
Al2 Ti7 2.714395 1_556
Al2 Ti6 2.714400 1_555
Al2 Al9 2.722792 1_455
Al3 Fe2 2.428734 1_555
Al3 Fe3 2.429886 1_555
Al3 Fe1 2.429893 1_554
Al3 Ti7 2.714391 1_555
Al3 Ti6 2.714397 1_554
Al3 Al8 2.722789 1_555
Al4 Fe4 2.442731 1_656
Al4 Fe3 2.442753 1_555
Al4 Fe5 2.457504 1_666
Al5 Fe0 2.442748 1_655
Al5 Fe1 2.442755 1_554
Al5 Fe5 2.457482 1_655
Al6 Fe0 2.446262 1_665
Al6 Fe4 2.446264 1_655
Al6 Fe2 2.449626 1_555
Al7 Fe3 2.446252 1_555
Al7 Fe1 2.446266 1_565
Al7 Fe2 2.449635 1_556
Al8 Fe6 2.459694 1_545
Al8 Fe3 2.626300 1_555
Al8 Fe1 2.626301 1_554
Al8 Fe5 2.637345 1_555
Al8 Ti1 2.813385 1_555
Al8 Ti3 2.813386 1_544
Al8 Ti5 2.831451 1_555
Al9 Fe6 2.459694 1_545
Al9 Fe4 2.626300 1_656
Al9 Fe0 2.626300 1_655
Al9 Fe5 2.637345 1_656
Al9 Ti4 2.813383 1_545
Al9 Ti0 2.813398 1_556
Al9 Ti5 2.831451 1_555
Al10 Fe6 2.479120 1_555
Al10 Fe2 2.614450 1_555
Al10 Fe0 2.642822 1_665
Al10 Fe1 2.642828 1_564
Al10 Al5 2.693588 1_565
Al10 Al6 2.702147 1_555
Al10 Al7 2.702156 1_554
Al10 Ti7 2.827827 1_555
Al10 Al9 2.847883 1_565
Al10 Al8 2.847883 1_565
Al10 Ti5 2.852190 1_565
Al10 Ti4 2.861098 1_555
Al10 Ti3 2.861101 1_554
Al11 Fe6 2.479120 1_545
Al11 Fe2 2.614450 1_556
Al11 Fe3 2.642821 1_555
Al11 Fe4 2.642822 1_656
Al11 Al4 2.693567 1_555
Al11 Al7 2.702149 1_555
Al11 Al6 2.702153 1_556
Al11 Ti6 2.827833 1_555
Al11 Al8 2.847883 1_555
Al11 Al9 2.847883 1_555
Al11 Ti5 2.852191 1_555
Al11 Ti1 2.861100 1_555
Al11 Ti0 2.861106 1_556
Al12 Fe6 2.460392 1_555
Al12 Fe1 2.614195 1_565
Al12 Fe3 2.614202 1_555
Al12 Fe5 2.662299 1_666
Al12 Al7 2.694856 1_555
Al12 Al5 2.723577 1_566
Al12 Al4 2.723603 1_555
Al12 Ti6 2.842343 1_565
Al12 Ti7 2.842349 1_555
Al12 Ti4 2.849145 1_555
Al12 Ti0 2.849145 1_566
Al12 Ti2 2.852283 1_555
Al12 Al9 2.858325 1_565
Al13 Fe6 2.460399 1_555
Al13 Fe0 2.614195 1_565
Al13 Fe4 2.614202 1_555
Al13 Fe5 2.662292 1_565
Al13 Al6 2.694866 1_455
Al13 Al5 2.723571 1_465
Al13 Al4 2.723575 1_454
Al13 Ti6 2.842349 1_565
Al13 Ti7 2.842349 1_555
Al13 Ti1 2.849143 1_565
Al13 Ti3 2.849158 1_554
Al13 Ti2 2.852288 1_555
Al13 Al8 2.858325 1_565
Fe0 Ti6 2.626677 1_555
Fe0 Ti4 2.996267 1_445
Fe0 Ti5 3.020517 1_455
Fe0 Ti2 3.027651 1_545
Fe0 Ti1 3.034451 1_555
Fe1 Ti6 2.626670 1_555
Fe1 Ti3 2.996256 1_545
Fe1 Ti5 3.020522 1_556
Fe1 Ti2 3.027646 1_545
Fe1 Ti0 3.034441 1_556
Fe2 Ti6 2.609620 1_554
Fe2 Ti7 2.609621 1_555
Fe3 Ti7 2.626684 1_555
Fe3 Ti1 2.996255 1_555
Fe3 Ti5 3.020524 1_555
Fe3 Ti2 3.027645 1_555
Fe3 Ti4 3.034451 1_555
Fe4 Ti7 2.626677 1_555
Fe4 Ti0 2.996268 1_455
Fe4 Ti5 3.020523 1_454
Fe4 Ti2 3.027645 1_555
Fe4 Ti3 3.034465 1_554
Fe5 Ti4 2.975011 1_444
Fe5 Ti1 2.975012 1_555
Fe5 Ti3 2.975014 1_544
Fe5 Ti0 2.975019 1_455
Fe6 Ti7 2.454092 1_555
Fe6 Ti6 2.454099 1_565
As0 Ti5 2.509612 1_555
As0 Ti2 2.519600 1_655
As0 Ti0 2.532199 1_555
As0 Ti3 2.532199 1_655
As0 Ti1 2.532205 1_655
As0 Ti4 2.532211 1_555
