# generated using pymatgen
data_KP2PdPt7
_symmetry_space_group_name_H-M   'P 1'
_cell_length_a   6.20629662
_cell_length_b   6.20629675
_cell_length_c   9.47323650
_cell_angle_alpha   55.68963939
_cell_angle_beta   55.68963843
_cell_angle_gamma   37.86105521
_symmetry_Int_Tables_number   1
_chemical_formula_structural   KP2PdPt7
_chemical_formula_sum   'K1 P2 Pd1 Pt7'
_cell_volume   179.84514373
_cell_formula_units_Z   1
loop_
 _symmetry_equiv_pos_site_id
 _symmetry_equiv_pos_as_xyz
  1  'x, y, z'
loop_
 _atom_site_type_symbol
 _atom_site_label
 _atom_site_symmetry_multiplicity
 _atom_site_fract_x
 _atom_site_fract_y
 _atom_site_fract_z
 _atom_site_occupancy
  K  K0  1  0.50180954  0.50180954  0.49919562  1
  P  P0  1  0.06488944  0.06488944  0.70532071  1
  P  P1  1  0.93412454  0.93412454  0.29733793  1
  Pd  Pd0  1  0.24239957  0.24239957  0.40689433  1
  Pt  Pt0  1  0.82222193  0.82222193  0.84918970  1
  Pt  Pt1  1  0.17808722  0.17808722  0.14913454  1
  Pt  Pt2  1  0.16475929  0.16475929  0.85082170  1
  Pt  Pt3  1  0.47149576  0.47149576  0.87678956  1
  Pt  Pt4  1  0.52748737  0.52748737  0.12599849  1
  Pt  Pt5  1  0.75607576  0.75607576  0.59203541  1
  Pt  Pt6  1  0.83664958  0.83664958  0.14728200  1
loop_
_geom_bond_atom_site_label_1
_geom_bond_atom_site_label_2
_geom_bond_distance
_geom_bond_site_symmetry_2
K0 Pd0 3.139173 1_655
K0 Pd0 3.139173 1_565
K0 Pt5 3.182409 1_455
K0 Pt5 3.182409 1_545
K0 P0 3.184194 1_655
K0 P0 3.184194 1_565
K0 P1 3.186441 1_455
K0 P1 3.186441 1_545
K0 Pt6 3.309031 1_555
K0 Pt2 3.323551 1_555
K0 Pt1 3.339886 1_655
K0 Pt1 3.339886 1_565
K0 Pt0 3.340810 1_455
K0 Pt0 3.340810 1_545
K0 Pt4 3.364448 1_555
K0 Pt3 3.377058 1_555
K0 Pt5 3.579857 1_555
K0 Pd0 3.635308 1_555
P0 Pt2 2.280604 1_555
P0 Pd0 2.305170 1_555
P0 Pt0 2.312461 1_445
P0 Pt3 2.402527 1_455
P0 Pt3 2.402527 1_545
P0 Pt5 2.715430 1_545
P0 Pt5 2.715430 1_455
P1 Pt5 2.282199 1_555
P1 Pt6 2.295535 1_555
P1 Pt1 2.320150 1_665
P1 Pt4 2.402012 1_655
P1 Pt4 2.402012 1_565
P1 Pd0 2.722885 1_565
P1 Pd0 2.722886 1_655
Pd0 Pt5 2.737070 1_455
Pd0 Pt5 2.737070 1_545
Pd0 Pt4 2.769402 1_555
Pd0 Pt6 2.843148 1_545
Pd0 Pt6 2.843148 1_455
Pd0 Pt1 2.954686 1_555
Pt0 Pt5 2.965219 1_555
Pt2 Pt5 2.842706 1_545
Pt2 Pt5 2.842706 1_455
Pt3 Pt5 2.774693 1_555
