# generated using pymatgen
data_Sn3As6WO24
_symmetry_space_group_name_H-M   'P 1'
_cell_length_a   9.21314638
_cell_length_b   9.21314664
_cell_length_c   9.21314673
_cell_angle_alpha   56.57297387
_cell_angle_beta   56.57298023
_cell_angle_gamma   56.57297516
_symmetry_Int_Tables_number   1
_chemical_formula_structural   Sn3As6WO24
_chemical_formula_sum   'Sn3 As6 W1 O24'
_cell_volume   509.19265545
_cell_formula_units_Z   1
loop_
 _symmetry_equiv_pos_site_id
 _symmetry_equiv_pos_as_xyz
  1  'x, y, z'
loop_
 _atom_site_type_symbol
 _atom_site_label
 _atom_site_symmetry_multiplicity
 _atom_site_fract_x
 _atom_site_fract_y
 _atom_site_fract_z
 _atom_site_occupancy
  Sn  Sn0  1  0.14045841  0.14045841  0.14045841  1
  Sn  Sn1  1  0.35654997  0.35654997  0.35654997  1
  Sn  Sn2  1  0.64698478  0.64698478  0.64698478  1
  As  As0  1  0.75066729  0.03202653  0.46144176  1
  As  As1  1  0.03202653  0.46144176  0.75066729  1
  As  As2  1  0.46144176  0.75066729  0.03202653  1
  As  As3  1  0.53190919  0.24863567  0.97521410  1
  As  As4  1  0.97521410  0.53190919  0.24863567  1
  As  As5  1  0.24863567  0.97521410  0.53190919  1
  W  W0  1  0.85913519  0.85913519  0.85913519  1
  O  O0  1  0.20621270  0.18149603  0.52442291  1
  O  O1  1  0.52442291  0.20621270  0.18149603  1
  O  O2  1  0.88529623  0.12907266  0.25054266  1
  O  O3  1  0.18149603  0.52442291  0.20621270  1
  O  O4  1  0.52830000  0.17906254  0.50715932  1
  O  O5  1  0.81152122  0.99062718  0.63246178  1
  O  O6  1  0.12907266  0.25054266  0.88529623  1
  O  O7  1  0.17906254  0.50715932  0.52830000  1
  O  O8  1  0.50715932  0.52830000  0.17906254  1
  O  O9  1  0.38244361  0.18671938  0.99266238  1
  O  O10  1  0.74380199  0.09164351  0.88948848  1
  O  O11  1  0.99266238  0.38244361  0.18671938  1
  O  O12  1  0.99062718  0.63246178  0.81152122  1
  O  O13  1  0.25054266  0.88529623  0.12907266  1
  O  O14  1  0.63246178  0.81152122  0.99062718  1
  O  O15  1  0.51056086  0.46391187  0.81682585  1
  O  O16  1  0.81682585  0.51056086  0.46391187  1
  O  O17  1  0.88948848  0.74380199  0.09164351  1
  O  O18  1  0.18671938  0.99266238  0.38244361  1
  O  O19  1  0.46391187  0.81682585  0.51056086  1
  O  O20  1  0.82244201  0.47739614  0.79290082  1
  O  O21  1  0.09164351  0.88948848  0.74380199  1
  O  O22  1  0.47739614  0.79290082  0.82244201  1
  O  O23  1  0.79290082  0.82244201  0.47739614  1
loop_
_geom_bond_atom_site_label_1
_geom_bond_atom_site_label_2
_geom_bond_distance
_geom_bond_site_symmetry_2
As0 O2 1.663079 1_555
As0 O23 1.680487 1_545
As0 O4 1.682244 1_555
As0 O5 1.737233 1_545
As1 O6 1.663079 1_555
As1 O20 1.680487 1_455
As1 O7 1.682244 1_555
As1 O12 1.737233 1_455
As2 O13 1.663079 1_555
As2 O22 1.680487 1_554
As2 O8 1.682244 1_555
As2 O14 1.737233 1_554
As3 O9 1.663744 1_555
As3 O15 1.673190 1_555
As3 O1 1.684141 1_556
As3 O10 1.725061 1_555
As4 O11 1.663744 1_555
As4 O16 1.673190 1_555
As4 O3 1.684141 1_655
As4 O17 1.725061 1_555
As5 O18 1.663744 1_555
As5 O19 1.673190 1_555
As5 O0 1.684141 1_565
As5 O21 1.725061 1_555
O0 Sn1 2.065041 1_555
O1 Sn1 2.065041 1_555
O2 Sn0 2.023296 1_655
O3 Sn1 2.065040 1_555
O4 Sn1 2.042450 1_555
O5 W0 1.912537 1_555
O6 Sn0 2.023296 1_556
O7 Sn1 2.042451 1_555
O8 Sn1 2.042450 1_555
O9 Sn0 2.017190 1_556
O10 W0 1.902851 1_545
O11 Sn0 2.017190 1_655
O12 W0 1.912537 1_555
O13 Sn0 2.023296 1_565
O14 W0 1.912537 1_555
O15 Sn2 2.033268 1_555
O16 Sn2 2.033268 1_555
O17 W0 1.902850 1_554
O18 Sn0 2.017190 1_565
O19 Sn2 2.033268 1_555
O20 Sn2 2.039362 1_555
O21 W0 1.902851 1_455
O22 Sn2 2.039362 1_555
O23 Sn2 2.039362 1_555
