# generated using pymatgen
data_Ba2HfCu2S5
_symmetry_space_group_name_H-M   'P 1'
_cell_length_a   3.94351724
_cell_length_b   7.12834949
_cell_length_c   8.96564351
_cell_angle_alpha   104.03241775
_cell_angle_beta   102.70456686
_cell_angle_gamma   106.05785616
_symmetry_Int_Tables_number   1
_chemical_formula_structural   Ba2HfCu2S5
_chemical_formula_sum   'Ba2 Hf1 Cu2 S5'
_cell_volume   223.56015560
_cell_formula_units_Z   1
loop_
 _symmetry_equiv_pos_site_id
 _symmetry_equiv_pos_as_xyz
  1  'x, y, z'
loop_
 _atom_site_type_symbol
 _atom_site_label
 _atom_site_symmetry_multiplicity
 _atom_site_fract_x
 _atom_site_fract_y
 _atom_site_fract_z
 _atom_site_occupancy
  Ba  Ba0  1  0.47535625  0.65365112  0.29706039  1
  Ba  Ba1  1  0.52464375  0.34634888  0.70293961  1
  Hf  Hf0  1  0.00000000  0.00000000  0.00000000  1
  Cu  Cu0  1  0.74161813  0.19100954  0.29222671  1
  Cu  Cu1  1  0.25838187  0.80899046  0.70777329  1
  S  S0  1  0.66111401  0.26849501  0.05373402  1
  S  S1  1  0.15393745  0.01352523  0.29434967  1
  S  S2  1  0.00000100  0.50000100  0.50000000  1
  S  S3  1  0.84606255  0.98647477  0.70565133  1
  S  S4  1  0.33888699  0.73150699  0.94626598  1
loop_
_geom_bond_atom_site_label_1
_geom_bond_atom_site_label_2
_geom_bond_distance
_geom_bond_site_symmetry_2
Ba0 S2 3.058584 1_655
Ba0 S2 3.058584 1_555
Ba0 S1 3.162832 1_665
Ba0 S1 3.162834 1_565
Ba0 S4 3.279707 1_554
Ba0 S0 3.427063 1_555
Ba0 S0 3.427068 1_455
Ba0 S3 3.563217 1_555
Ba1 S2 3.058588 1_555
Ba1 S2 3.058594 1_655
Ba1 S3 3.162835 1_545
Ba1 S3 3.162835 1_445
Ba1 S0 3.279700 1_556
Ba1 S4 3.427071 1_555
Ba1 S4 3.427076 1_655
Ba1 S1 3.563210 1_555
Hf0 S3 2.545948 1_444
Hf0 S1 2.545956 1_555
Hf0 S4 2.632900 1_444
Hf0 S4 2.632903 1_544
Hf0 S0 2.632909 1_555
Hf0 S0 2.632912 1_455
Cu0 S2 2.300778 1_655
Cu0 S0 2.312814 1_555
Cu0 S1 2.319692 1_655
Cu0 S1 2.319692 1_555
Cu1 S2 2.300768 1_555
Cu1 S4 2.312806 1_555
Cu1 S3 2.319689 1_555
Cu1 S3 2.319692 1_455
