# generated using pymatgen
data_Lu3MgAs6Ru7
_symmetry_space_group_name_H-M   'P 1'
_cell_length_a   7.05540555
_cell_length_b   7.05540500
_cell_length_c   7.16627764
_cell_angle_alpha   109.78987020
_cell_angle_beta   109.78986860
_cell_angle_gamma   109.15069923
_symmetry_Int_Tables_number   1
_chemical_formula_structural   Lu3MgAs6Ru7
_chemical_formula_sum   'Lu3 Mg1 As6 Ru7'
_cell_volume   273.52224974
_cell_formula_units_Z   1
loop_
 _symmetry_equiv_pos_site_id
 _symmetry_equiv_pos_as_xyz
  1  'x, y, z'
loop_
 _atom_site_type_symbol
 _atom_site_label
 _atom_site_symmetry_multiplicity
 _atom_site_fract_x
 _atom_site_fract_y
 _atom_site_fract_z
 _atom_site_occupancy
  Lu  Lu0  1  0.00000000  0.50000000  0.00000000  1
  Lu  Lu1  1  0.50000000  0.00000000  0.00000000  1
  Lu  Lu2  1  0.50000000  0.50000000  0.50000000  1
  Mg  Mg0  1  0.00000000  0.00000000  0.50000000  1
  As  As0  1  0.68914201  0.68914201  0.00348575  1
  As  As1  1  0.31085799  1.00000000  0.31434375  1
  As  As2  1  1.00000000  0.31085799  0.31434375  1
  As  As3  1  0.31085799  0.31085799  0.99651425  1
  As  As4  1  0.68914201  0.00000000  0.68565625  1
  As  As5  1  0.00000000  0.68914201  0.68565625  1
  Ru  Ru0  1  0.75294223  0.24705777  0.50000000  1
  Ru  Ru1  1  0.75294223  0.50588346  0.25294223  1
  Ru  Ru2  1  0.49411654  0.24705777  0.74705777  1
  Ru  Ru3  1  0.24705777  0.49411654  0.74705777  1
  Ru  Ru4  1  0.24705777  0.75294223  0.50000000  1
  Ru  Ru5  1  0.50588346  0.75294223  0.25294223  1
  Ru  Ru6  1  0.00000000  0.00000000  0.00000000  1
loop_
_geom_bond_atom_site_label_1
_geom_bond_atom_site_label_2
_geom_bond_distance
_geom_bond_site_symmetry_2
Lu0 Ru5 2.908475 1_555
Lu0 Ru2 2.908475 1_454
Lu0 Ru4 2.908926 1_555
Lu0 Ru0 2.908926 1_454
Lu0 Ru1 2.908926 1_455
Lu0 Ru3 2.908926 1_554
Lu1 Ru3 2.908475 1_544
Lu1 Ru1 2.908475 1_555
Lu1 Ru0 2.908926 1_555
Lu1 Ru4 2.908926 1_544
Lu1 Ru5 2.908926 1_545
Lu1 Ru2 2.908926 1_554
Lu2 Ru0 2.908481 1_555
Lu2 Ru4 2.908481 1_555
Lu2 Ru2 2.908926 1_555
Lu2 Ru5 2.908926 1_555
Lu2 Ru3 2.908926 1_555
Lu2 Ru1 2.908926 1_555
Mg0 Ru4 2.840817 1_545
Mg0 Ru0 2.840817 1_455
Mg0 Ru1 2.840823 1_445
Mg0 Ru3 2.840823 1_555
Mg0 Ru2 2.840823 1_555
Mg0 Ru5 2.840823 1_445
As0 Ru1 2.544065 1_555
As0 Ru5 2.544066 1_555
As0 Ru6 2.557202 1_665
As0 Ru2 2.567026 1_554
As0 Ru3 2.567027 1_554
As0 Lu1 2.920021 1_565
As0 Lu0 2.920021 1_655
As0 Mg0 2.925115 1_665
As0 Lu2 2.981769 1_554
As1 Ru2 2.544059 1_565
As1 Ru4 2.544060 1_555
As1 Ru6 2.557202 1_565
As1 Ru5 2.567020 1_555
As1 Ru0 2.567026 1_565
As1 Lu2 2.920021 1_565
As1 Lu0 2.920021 1_555
As1 Mg0 2.925116 1_565
As1 Lu1 2.981769 1_565
As2 Ru3 2.544059 1_655
As2 Ru0 2.544060 1_555
As2 Ru6 2.557202 1_655
As2 Ru1 2.567020 1_555
As2 Ru4 2.567026 1_655
As2 Lu1 2.920021 1_555
As2 Lu2 2.920021 1_655
As2 Mg0 2.925116 1_655
As2 Lu0 2.981769 1_655
As3 Ru3 2.544065 1_555
As3 Ru2 2.544066 1_555
As3 Ru6 2.557202 1_556
As3 Ru5 2.567026 1_556
As3 Ru1 2.567027 1_556
As3 Lu1 2.920021 1_556
As3 Lu0 2.920021 1_556
As3 Mg0 2.925115 1_555
As3 Lu2 2.981769 1_556
As4 Ru5 2.544059 1_545
As4 Ru0 2.544060 1_555
As4 Ru6 2.557202 1_656
As4 Ru2 2.567020 1_555
As4 Ru4 2.567026 1_545
As4 Lu2 2.920021 1_545
As4 Lu0 2.920021 1_656
As4 Mg0 2.925116 1_655
As4 Lu1 2.981769 1_556
As5 Ru1 2.544059 1_455
As5 Ru4 2.544060 1_555
As5 Ru6 2.557202 1_566
As5 Ru3 2.567020 1_555
As5 Ru0 2.567026 1_455
As5 Lu1 2.920021 1_566
As5 Lu2 2.920021 1_455
As5 Mg0 2.925116 1_565
As5 Lu0 2.981769 1_556
