# generated using pymatgen
data_Li7Sn2
_symmetry_space_group_name_H-M   'P 1'
_cell_length_a   4.70062133
_cell_length_b   8.44304150
_cell_length_c   8.44304139
_cell_angle_alpha   109.49797299
_cell_angle_beta   90.00000000
_cell_angle_gamma   90.00000000
_symmetry_Int_Tables_number   1
_chemical_formula_structural   Li7Sn2
_chemical_formula_sum   'Li14 Sn4'
_cell_volume   315.86761534
_cell_formula_units_Z   2
loop_
 _symmetry_equiv_pos_site_id
 _symmetry_equiv_pos_as_xyz
  1  'x, y, z'
loop_
 _atom_site_type_symbol
 _atom_site_label
 _atom_site_symmetry_multiplicity
 _atom_site_fract_x
 _atom_site_fract_y
 _atom_site_fract_z
 _atom_site_occupancy
  Li  Li0  1  0.00000000  0.00000000  0.00000000  1
  Li  Li1  1  0.50000000  0.50000000  0.50000000  1
  Li  Li2  1  0.00000000  0.34438792  0.34438792  1
  Li  Li3  1  0.00000000  0.65561208  0.65561208  1
  Li  Li4  1  0.50000000  0.17335282  0.82664718  1
  Li  Li5  1  0.50000000  0.82664718  0.17335282  1
  Li  Li6  1  -0.00000000  0.34488513  0.03010080  1
  Li  Li7  1  0.00000000  0.65511487  0.96989920  1
  Li  Li8  1  -0.00000000  0.03010080  0.34488513  1
  Li  Li9  1  0.00000000  0.96989920  0.65511487  1
  Li  Li10  1  0.50000000  0.50359752  0.18414308  1
  Li  Li11  1  0.50000000  0.49640248  0.81585692  1
  Li  Li12  1  0.50000000  0.18414308  0.50359752  1
  Li  Li13  1  0.50000000  0.81585692  0.49640248  1
  Sn  Sn0  1  0.50000000  0.16233225  0.16233225  1
  Sn  Sn1  1  0.50000000  0.83766775  0.83766775  1
  Sn  Sn2  1  -0.00000000  0.31792139  0.68207761  1
  Sn  Sn3  1  0.00000000  0.68207761  0.31792139  1
loop_
_geom_bond_atom_site_label_1
_geom_bond_atom_site_label_2
_geom_bond_distance
_geom_bond_site_symmetry_2
Li0 Sn1 2.833188 1_544
Li0 Sn0 2.833188 1_455
Li0 Sn1 2.833188 1_444
Li0 Sn0 2.833188 1_555
Li0 Li9 2.837186 1_544
Li0 Li8 2.837186 1_555
Li0 Li7 2.837186 1_544
Li0 Li6 2.837186 1_555
Li1 Li11 2.677084 1_555
Li1 Li10 2.677084 1_555
Li1 Li12 2.677084 1_555
Li1 Li13 2.677084 1_555
Li1 Li2 2.797142 1_555
Li1 Li2 2.797142 1_655
Li1 Li3 2.797142 1_555
Li1 Li3 2.797142 1_655
Li2 Li6 2.654943 1_555
Li2 Li8 2.654943 1_555
Li2 Sn2 2.933285 1_555
Li2 Sn3 2.933286 1_555
Li2 Sn0 2.944848 1_555
Li2 Sn0 2.944848 1_455
Li2 Li3 3.033180 1_555
Li3 Li7 2.654943 1_555
Li3 Li9 2.654943 1_555
Li3 Sn3 2.933291 1_555
Li3 Sn2 2.933291 1_555
Li3 Sn1 2.944848 1_455
Li3 Sn1 2.944848 1_555
Li4 Sn0 2.866602 1_556
Li4 Sn1 2.866602 1_545
Li4 Li6 2.985201 1_556
Li4 Li6 2.985201 1_656
Li4 Li9 2.985201 1_645
Li4 Li9 2.985201 1_545
Li4 Sn2 3.081925 1_555
Li4 Sn2 3.081925 1_655
Li5 Sn1 2.866602 1_554
Li5 Sn0 2.866602 1_565
Li5 Li7 2.985201 1_654
Li5 Li7 2.985201 1_554
Li5 Li8 2.985201 1_565
Li5 Li8 2.985201 1_665
Li5 Sn3 3.081925 1_555
Li5 Sn3 3.081925 1_655
Li6 Li7 2.829793 1_554
Li6 Sn2 2.870422 1_554
Li6 Sn3 3.064643 1_555
Li6 Sn0 3.208534 1_555
Li6 Sn0 3.208534 1_455
Li7 Sn3 2.870416 1_556
Li7 Sn2 3.064652 1_555
Li7 Sn1 3.208534 1_555
Li7 Sn1 3.208534 1_455
Li8 Li9 2.829793 1_545
Li8 Sn3 2.870422 1_545
Li8 Sn2 3.064643 1_555
Li8 Sn0 3.208534 1_455
Li8 Sn0 3.208534 1_555
Li9 Sn2 2.870416 1_565
Li9 Sn3 3.064652 1_555
Li9 Sn1 3.208534 1_555
Li9 Sn1 3.208534 1_455
Li10 Li5 2.759266 1_555
Li10 Li6 2.801378 1_555
Li10 Li6 2.801378 1_655
Li10 Sn3 2.816791 1_555
Li10 Sn3 2.816791 1_655
Li10 Sn0 2.825191 1_555
Li10 Li13 3.043269 1_555
Li10 Li11 3.089710 1_554
Li11 Li4 2.759266 1_555
Li11 Li7 2.801378 1_555
Li11 Li7 2.801378 1_655
Li11 Sn2 2.816796 1_655
Li11 Sn2 2.816796 1_555
Li11 Sn1 2.825191 1_555
Li11 Li12 3.043269 1_555
Li12 Li4 2.759266 1_555
Li12 Li8 2.801378 1_655
Li12 Li8 2.801378 1_555
Li12 Sn2 2.816791 1_555
Li12 Sn2 2.816791 1_655
Li12 Sn0 2.825190 1_555
Li12 Li13 3.089710 1_545
Li13 Li5 2.759266 1_555
Li13 Li9 2.801378 1_555
Li13 Li9 2.801378 1_655
Li13 Sn3 2.816796 1_655
Li13 Sn3 2.816796 1_555
Li13 Sn1 2.825190 1_555
