# generated using pymatgen
data_Te2PtCl12
_symmetry_space_group_name_H-M   'P 1'
_cell_length_a   6.59553018
_cell_length_b   7.06599486
_cell_length_c   10.72814356
_cell_angle_alpha   71.53564069
_cell_angle_beta   76.33690932
_cell_angle_gamma   64.47576756
_symmetry_Int_Tables_number   1
_chemical_formula_structural   Te2PtCl12
_chemical_formula_sum   'Te2 Pt1 Cl12'
_cell_volume   425.03654109
_cell_formula_units_Z   1
loop_
 _symmetry_equiv_pos_site_id
 _symmetry_equiv_pos_as_xyz
  1  'x, y, z'
loop_
 _atom_site_type_symbol
 _atom_site_label
 _atom_site_symmetry_multiplicity
 _atom_site_fract_x
 _atom_site_fract_y
 _atom_site_fract_z
 _atom_site_occupancy
  Te  Te0  1  0.73941184  0.74672293  0.75968507  1
  Te  Te1  1  0.26058816  0.25327707  0.24031493  1
  Pt  Pt0  1  0.00000000  0.00000000  0.00000000  1
  Cl  Cl0  1  0.02416229  0.69448832  0.58179844  1
  Cl  Cl1  1  0.97583771  0.30551168  0.41820156  1
  Cl  Cl2  1  0.56799608  0.56968859  0.69600389  1
  Cl  Cl3  1  0.38879063  0.79815954  0.99188704  1
  Cl  Cl4  1  0.61120937  0.20184046  0.00811296  1
  Cl  Cl5  1  0.99696210  0.02845177  0.21129980  1
  Cl  Cl6  1  0.00303790  0.97154823  0.78870020  1
  Cl  Cl7  1  0.07107688  0.31456949  0.90648684  1
  Cl  Cl8  1  0.92892312  0.68543051  0.09351316  1
  Cl  Cl9  1  0.48411704  0.91168868  0.35272499  1
  Cl  Cl10  1  0.51588296  0.08831132  0.64727501  1
  Cl  Cl11  1  0.43200392  0.43031141  0.30399611  1
loop_
_geom_bond_atom_site_label_1
_geom_bond_atom_site_label_2
_geom_bond_distance
_geom_bond_site_symmetry_2
Cl0 Te0 2.336867 1_455
Cl1 Te1 2.336867 1_655
Cl2 Te0 2.331261 1_555
Cl3 Pt0 2.332090 1_566
Cl3 Te0 2.968691 1_555
Cl4 Pt0 2.332090 1_655
Cl4 Te1 2.968691 1_555
Cl5 Pt0 2.333065 1_655
Cl5 Te1 2.931418 1_655
Cl6 Pt0 2.333065 1_566
Cl6 Te0 2.931418 1_455
Cl7 Pt0 2.330264 1_556
Cl7 Te0 3.068348 1_455
Cl8 Pt0 2.330264 1_665
Cl8 Te1 3.068348 1_655
Cl9 Te1 2.320168 1_565
Cl10 Te0 2.320168 1_545
Cl11 Te1 2.331261 1_555
