# generated using pymatgen
data_Tc(Ir3Rh)2
_symmetry_space_group_name_H-M   'P 1'
_cell_length_a   6.07264757
_cell_length_b   6.07264805
_cell_length_c   6.07089718
_cell_angle_alpha   95.74409400
_cell_angle_beta   95.71021981
_cell_angle_gamma   143.17544717
_symmetry_Int_Tables_number   1
_chemical_formula_structural   Tc(Ir3Rh)2
_chemical_formula_sum   'Tc1 Ir6 Rh2'
_cell_volume   127.31111086
_cell_formula_units_Z   1
loop_
 _symmetry_equiv_pos_site_id
 _symmetry_equiv_pos_as_xyz
  1  'x, y, z'
loop_
 _atom_site_type_symbol
 _atom_site_label
 _atom_site_symmetry_multiplicity
 _atom_site_fract_x
 _atom_site_fract_y
 _atom_site_fract_z
 _atom_site_occupancy
  Tc  Tc0  1  0.00165726  0.00263693  0.00429420  1
  Ir  Ir0  1  0.66359485  0.33707607  0.00067292  1
  Ir  Ir1  1  0.33654868  0.66325403  0.99980370  1
  Ir  Ir2  1  0.66225377  0.66275055  0.32500531  1
  Ir  Ir3  1  0.33019635  0.99890639  0.32910274  1
  Ir  Ir4  1  0.00004995  0.33074037  0.33079032  1
  Ir  Ir5  1  0.66866323  0.00018707  0.66885030  1
  Rh  Rh0  1  0.00106174  0.66767143  0.66873217  1
  Rh  Rh1  1  0.33597418  0.33677616  0.67274835  1
loop_
_geom_bond_atom_site_label_1
_geom_bond_atom_site_label_2
_geom_bond_distance
_geom_bond_site_symmetry_2
Ir0 Ir2 2.652885 1_555
Ir0 Rh1 2.669605 1_554
Ir0 Tc0 2.690728 1_555
Ir0 Tc0 2.690734 1_665
Ir0 Ir3 2.694139 1_545
Ir0 Ir3 2.694145 1_655
Ir0 Rh0 2.708511 1_544
Ir0 Rh0 2.708518 1_654
Ir0 Ir4 2.742069 1_655
Ir0 Ir5 2.744546 1_554
Ir0 Ir1 2.769685 1_544
Ir0 Ir1 2.769687 1_654
Ir1 Ir2 2.653984 1_556
Ir1 Rh1 2.659422 1_555
Ir1 Tc0 2.683631 1_556
Ir1 Tc0 2.683633 1_666
Ir1 Ir5 2.704370 1_455
Ir1 Ir5 2.704372 1_565
Ir1 Ir4 2.704448 1_556
Ir1 Ir4 2.704451 1_666
Ir1 Rh0 2.733942 1_555
Ir1 Ir3 2.734643 1_556
Ir2 Tc0 2.662966 1_555
Ir2 Tc0 2.662967 1_665
Ir2 Ir4 2.701765 1_555
Ir2 Ir4 2.701768 1_665
Ir2 Ir3 2.708147 1_545
Ir2 Ir3 2.708150 1_655
Ir2 Ir5 2.749149 1_565
Ir2 Rh0 2.761017 1_655
Ir2 Rh1 2.773238 1_555
Ir2 Rh1 2.773247 1_665
Ir3 Tc0 2.677254 1_565
Ir3 Ir4 2.733530 1_665
Ir3 Ir4 2.733530 1_555
Ir3 Rh0 2.739707 1_555
Ir3 Rh0 2.739711 1_665
Ir3 Rh1 2.752582 1_565
Ir3 Ir5 2.757984 1_565
Ir4 Tc0 2.672685 1_555
Ir4 Ir5 2.733234 1_455
Ir4 Ir5 2.733235 1_565
Ir4 Rh1 2.737667 1_555
Ir4 Rh0 2.744562 1_555
Ir5 Rh1 2.703808 1_545
Ir5 Rh1 2.703813 1_655
Ir5 Tc0 2.713440 1_656
Ir5 Rh0 2.721491 1_545
Ir5 Rh0 2.721494 1_655
Rh0 Rh1 2.717934 1_455
Rh0 Rh1 2.717937 1_565
Rh0 Tc0 2.728552 1_566
Rh1 Tc0 2.706627 1_666
Rh1 Tc0 2.706631 1_556
