# generated using pymatgen
data_Cs2TiH10Os
_symmetry_space_group_name_H-M   'P 1'
_cell_length_a   11.54528404
_cell_length_b   7.77093253
_cell_length_c   4.72031290
_cell_angle_alpha   90.00000000
_cell_angle_beta   90.60809089
_cell_angle_gamma   90.00000000
_symmetry_Int_Tables_number   1
_chemical_formula_structural   Cs2TiH10Os
_chemical_formula_sum   'Cs4 Ti2 H20 Os2'
_cell_volume   423.47140384
_cell_formula_units_Z   2
loop_
 _symmetry_equiv_pos_site_id
 _symmetry_equiv_pos_as_xyz
  1  'x, y, z'
loop_
 _atom_site_type_symbol
 _atom_site_label
 _atom_site_symmetry_multiplicity
 _atom_site_fract_x
 _atom_site_fract_y
 _atom_site_fract_z
 _atom_site_occupancy
  Cs  Cs0  1  0.67811707  0.07763363  0.34012123  1
  Cs  Cs1  1  0.17811707  0.42236537  0.34012123  1
  Cs  Cs2  1  0.83239300  0.58130854  0.81788662  1
  Cs  Cs3  1  0.33239300  0.91869146  0.81788662  1
  Ti  Ti0  1  0.96610378  0.06459252  0.84106509  1
  Ti  Ti1  1  0.46610378  0.43540748  0.84106509  1
  H  H0  1  0.34927498  0.29122525  0.83275635  1
  H  H1  1  0.84927498  0.20877475  0.83275635  1
  H  H2  1  0.04763867  0.75391090  0.47211477  1
  H  H3  1  0.54763867  0.74608810  0.47211477  1
  H  H4  1  0.61011876  0.42064174  0.11261364  1
  H  H5  1  0.11011776  0.07935826  0.11261364  1
  H  H6  1  0.32813847  0.53163149  0.84787772  1
  H  H7  1  0.82813847  0.96836951  0.84787772  1
  H  H8  1  0.94996091  0.12390587  0.30188716  1
  H  H9  1  0.44996091  0.37609513  0.30188716  1
  H  H10  1  0.16768780  0.86079668  0.29913586  1
  H  H11  1  0.66768780  0.63920232  0.29913586  1
  H  H12  1  0.51568487  0.21788072  0.83730779  1
  H  H13  1  0.01568487  0.28211828  0.83730779  1
  H  H14  1  0.92005854  0.89877340  0.52350317  1
  H  H15  1  0.42005854  0.60122660  0.52350317  1
  H  H16  1  0.10798431  0.04826339  0.61515015  1
  H  H17  1  0.60798431  0.45173661  0.61515015  1
  H  H18  1  0.48780920  0.65815754  0.05237509  1
  H  H19  1  0.98780920  0.84184346  0.05237509  1
  Os  Os0  1  0.53903163  0.55026692  0.34020436  1
  Os  Os1  1  0.03903163  0.94973308  0.34020436  1
loop_
_geom_bond_atom_site_label_1
_geom_bond_atom_site_label_2
_geom_bond_distance
_geom_bond_site_symmetry_2
Cs0 H4 2.975996 1_555
Cs0 H7 3.034004 1_544
Cs0 H3 3.052100 1_545
Cs0 H7 3.062237 1_545
Cs0 H8 3.166096 1_555
Cs0 H12 3.200523 1_554
Cs0 H1 3.202076 1_555
Cs0 H12 3.210275 1_555
Cs0 H14 3.229901 1_545
Cs0 H1 3.283212 1_554
Cs0 H17 3.288573 1_555
Cs0 H11 3.414560 1_545
Cs1 H5 2.975992 1_555
Cs1 H6 3.034009 1_554
Cs1 H2 3.052100 1_555
Cs1 H6 3.062241 1_555
Cs1 H9 3.166094 1_555
Cs1 H13 3.200523 1_554
Cs1 H0 3.202074 1_555
Cs1 H13 3.210275 1_555
Cs1 H15 3.229904 1_555
Cs1 H0 3.283210 1_554
Cs1 H16 3.288566 1_555
Cs1 H10 3.414560 1_555
Cs2 H1 2.902288 1_555
Cs2 H19 2.915747 1_556
Cs2 H17 2.930799 1_555
Cs2 H7 3.011580 1_555
Cs2 H11 3.011716 1_556
Cs2 H14 3.011854 1_555
Cs2 H11 3.116968 1_555
Cs2 H13 3.144515 1_655
Cs2 H4 3.186775 1_556
Cs2 H2 3.274848 1_655
Cs3 H0 2.902288 1_565
Cs3 H18 2.915742 1_556
Cs3 H16 2.930799 1_565
Cs3 H6 3.011572 1_555
Cs3 H10 3.011717 1_556
Cs3 H15 3.011854 1_555
Cs3 H10 3.116969 1_555
Cs3 H12 3.144509 1_565
Cs3 H5 3.186785 1_566
Cs3 H3 3.274852 1_555
H0 Ti1 1.753596 1_555
H1 Ti0 1.753596 1_555
H2 Os1 1.646785 1_555
H3 Os0 1.646777 1_555
H4 Os0 1.691475 1_555
H4 Ti1 2.091764 1_554
H5 Os1 1.691469 1_545
H5 Ti0 2.091755 1_454
H6 Ti1 1.760233 1_555
H7 Ti0 1.760229 1_565
H8 Os1 1.708269 1_645
H8 Ti0 2.233246 1_554
H9 Os0 1.708263 1_555
H9 Ti1 2.233245 1_554
H10 Os1 1.651565 1_555
H11 Os0 1.651562 1_555
H12 Ti1 1.784827 1_555
H13 Ti0 1.784820 1_455
H14 Os1 1.678506 1_655
H14 Ti0 2.042811 1_565
H15 Os0 1.678506 1_555
H15 Ti1 2.042811 1_555
H16 Os1 1.697771 1_545
H16 Ti0 1.968140 1_455
H17 Os0 1.697771 1_555
H17 Ti1 1.968140 1_555
H18 Os0 1.697504 1_555
H18 Ti1 2.012132 1_554
H19 Os1 1.697500 1_655
H19 Ti0 2.012125 1_564
