# generated using pymatgen
data_LiAlVF6
_symmetry_space_group_name_H-M   'P 1'
_cell_length_a   8.43290169
_cell_length_b   8.43290177
_cell_length_c   4.57195768
_cell_angle_alpha   90.00000000
_cell_angle_beta   90.00000000
_cell_angle_gamma   119.99999969
_symmetry_Int_Tables_number   1
_chemical_formula_structural   LiAlVF6
_chemical_formula_sum   'Li3 Al3 V3 F18'
_cell_volume   281.57034573
_cell_formula_units_Z   3
loop_
 _symmetry_equiv_pos_site_id
 _symmetry_equiv_pos_as_xyz
  1  'x, y, z'
loop_
 _atom_site_type_symbol
 _atom_site_label
 _atom_site_symmetry_multiplicity
 _atom_site_fract_x
 _atom_site_fract_y
 _atom_site_fract_z
 _atom_site_occupancy
  Li  Li0  1  0.30100582  0.00000000  0.50000000  1
  Li  Li1  1  0.00000000  0.30100582  0.50000000  1
  Li  Li2  1  0.69899418  0.69899418  0.50000000  1
  Al  Al0  1  0.00000000  0.00000000  0.00000000  1
  Al  Al1  1  0.33333300  0.66666700  0.50794241  1
  Al  Al2  1  0.66666700  0.33333300  0.49205759  1
  V  V0  1  0.64267488  0.00000000  0.00000000  1
  V  V1  1  1.00000000  0.64267488  0.00000000  1
  V  V2  1  0.35732512  0.35732512  0.00000000  1
  F  F0  1  0.09817866  0.89323551  0.77796436  1
  F  F1  1  0.10676449  0.20494215  0.77796436  1
  F  F2  1  0.79505785  0.90182134  0.77796436  1
  F  F3  1  0.20494215  0.10676449  0.22203564  1
  F  F4  1  0.90182134  0.79505785  0.22203564  1
  F  F5  1  0.89323551  0.09817866  0.22203564  1
  F  F6  1  0.45610706  0.58605620  0.72989632  1
  F  F7  1  0.41394380  0.87005086  0.72989632  1
  F  F8  1  0.12994914  0.54389294  0.72989632  1
  F  F9  1  0.87005086  0.41394380  0.27010368  1
  F  F10  1  0.54389294  0.12994914  0.27010368  1
  F  F11  1  0.58605620  0.45610706  0.27010368  1
  F  F12  1  0.22304733  0.76141587  0.28671097  1
  F  F13  1  0.23858413  0.46163146  0.28671097  1
  F  F14  1  0.53836854  0.77695267  0.28671097  1
  F  F15  1  0.46163146  0.23858413  0.71328903  1
  F  F16  1  0.77695267  0.53836854  0.71328903  1
  F  F17  1  0.76141587  0.22304733  0.71328903  1
loop_
_geom_bond_atom_site_label_1
_geom_bond_atom_site_label_2
_geom_bond_distance
_geom_bond_site_symmetry_2
Al0 F2 1.808858 1_444
Al0 F4 1.808858 1_445
Al0 F3 1.808859 1_555
Al0 F1 1.808859 1_554
Al0 F5 1.808865 1_455
Al0 F0 1.808865 1_544
Al1 F7 1.807641 1_555
Al1 F8 1.807642 1_555
Al1 F6 1.807648 1_555
Al1 F12 1.808181 1_555
Al1 F14 1.808187 1_555
Al1 F13 1.808187 1_555
Al2 F9 1.807641 1_555
Al2 F10 1.807642 1_555
Al2 F11 1.807648 1_555
Al2 F17 1.808181 1_555
Al2 F16 1.808187 1_555
Al2 F15 1.808187 1_555
F0 Li0 1.952237 1_565
F0 V1 2.105033 1_456
F1 Li1 1.952243 1_555
F1 V2 2.105034 1_556
F2 Li2 1.952237 1_555
F2 V0 2.105040 1_566
F3 Li0 1.952243 1_555
F3 V2 2.105034 1_555
F4 Li2 1.952237 1_555
F4 V1 2.105040 1_555
F5 Li1 1.952237 1_655
F5 V0 2.105033 1_555
F6 Li2 2.063100 1_555
F6 V2 2.081502 1_556
F7 Li0 2.063100 1_565
F7 V0 2.081502 1_566
F8 Li1 2.063100 1_555
F8 V1 2.081502 1_456
F9 Li1 2.063100 1_655
F9 V1 2.081502 1_555
F10 Li0 2.063100 1_555
F10 V0 2.081502 1_555
F11 Li2 2.063100 1_555
F11 V2 2.081502 1_555
F12 Li0 2.026916 1_565
F12 V1 2.091751 1_455
F13 Li1 2.026916 1_555
F13 V2 2.091751 1_555
F14 Li2 2.026916 1_555
F14 V0 2.091751 1_565
F15 Li0 2.026916 1_555
F15 V2 2.091751 1_556
F16 Li2 2.026916 1_555
F16 V1 2.091751 1_556
F17 Li1 2.026916 1_655
F17 V0 2.091751 1_556
