# generated using pymatgen
data_Y4B16Ru11Rh5
_symmetry_space_group_name_H-M   'P 1'
_cell_length_a   7.44271765
_cell_length_b   7.49026465
_cell_length_c   9.16443426
_cell_angle_alpha   114.17462781
_cell_angle_beta   114.05115392
_cell_angle_gamma   90.02414806
_symmetry_Int_Tables_number   1
_chemical_formula_structural   Y4B16Ru11Rh5
_chemical_formula_sum   'Y4 B16 Ru11 Rh5'
_cell_volume   416.95507580
_cell_formula_units_Z   1
loop_
 _symmetry_equiv_pos_site_id
 _symmetry_equiv_pos_as_xyz
  1  'x, y, z'
loop_
 _atom_site_type_symbol
 _atom_site_label
 _atom_site_symmetry_multiplicity
 _atom_site_fract_x
 _atom_site_fract_y
 _atom_site_fract_z
 _atom_site_occupancy
  Y  Y0  1  0.49979853  0.99894194  0.99904562  1
  Y  Y1  1  0.00086909  0.50027700  0.00179089  1
  Y  Y2  1  0.25006461  0.24774481  0.49675746  1
  Y  Y3  1  0.74852482  0.74987219  0.49739850  1
  B  B0  1  0.25151521  0.22724695  0.16208718  1
  B  B1  1  0.75255642  0.43686726  0.16206583  1
  B  B2  1  0.40862024  0.72242291  0.16160457  1
  B  B3  1  0.91020351  0.93451233  0.16042291  1
  B  B4  1  0.84378251  0.03300737  0.34062346  1
  B  B5  1  0.50284322  0.31835526  0.34049080  1
  B  B6  1  0.00174589  0.52873504  0.34092726  1
  B  B7  1  0.33729126  0.81102018  0.34157302  1
  B  B8  1  0.69083602  0.17019420  0.66778802  1
  B  B9  1  0.97446207  0.49636886  0.66306278  1
  B  B10  1  0.47574792  0.66653568  0.66325382  1
  B  B11  1  0.18615311  0.99554799  0.66333626  1
  B  B12  1  0.77585114  0.08059085  0.83250950  1
  B  B13  1  0.27610486  0.24922684  0.83070772  1
  B  B14  1  0.55261183  0.58135536  0.83099101  1
  B  B15  1  0.05683992  0.75063701  0.83261412  1
  Ru  Ru0  1  0.80243970  0.33572314  0.37634757  1
  Ru  Ru1  1  0.30343208  0.54161213  0.37657653  1
  Ru  Ru2  1  0.07213706  0.83557082  0.37685379  1
  Ru  Ru3  1  0.95771449  0.19728213  0.62344568  1
  Ru  Ru4  1  0.66537945  0.42580053  0.62388781  1
  Ru  Ru5  1  0.16596412  0.69733558  0.62526691  1
  Ru  Ru6  1  0.45935594  0.92759359  0.62733697  1
  Ru  Ru7  1  0.08624868  0.05058172  0.87790620  1
  Ru  Ru8  1  0.58656810  0.32772401  0.87716741  1
  Ru  Ru9  1  0.28967818  0.54967855  0.87761434  1
  Ru  Ru10  1  0.79205790  0.82525056  0.87749237  1
  Rh  Rh0  1  0.94835332  0.21294332  0.12473111  1
  Rh  Rh1  1  0.44918484  0.41015789  0.12353329  1
  Rh  Rh2  1  0.67497417  0.71388667  0.12317372  1
  Rh  Rh3  1  0.17797049  0.91097506  0.12536000  1
  Rh  Rh4  1  0.57211630  0.03842528  0.37426158  1
loop_
_geom_bond_atom_site_label_1
_geom_bond_atom_site_label_2
_geom_bond_distance
_geom_bond_site_symmetry_2
B0 B5 1.797242 1_555
B0 Rh0 2.135395 1_455
B0 Ru7 2.147455 1_554
B0 Rh1 2.232662 1_555
B0 Ru1 2.268673 1_555
B0 Rh3 2.284852 1_545
B0 Y0 2.955019 1_544
B0 Y2 3.011956 1_555
B0 Y1 3.170244 1_555
B1 B6 1.788073 1_655
B1 Rh1 2.134180 1_555
B1 Ru8 2.152508 1_554
B1 Rh0 2.234344 1_555
B1 Ru0 2.278742 1_555
B1 Rh2 2.281414 1_555
B1 Y1 2.929488 1_655
B1 Y3 3.019237 1_555
B1 Y0 3.196984 1_544
B2 B7 1.805544 1_555
B2 Ru9 2.143447 1_554
B2 Rh2 2.146810 1_555
B2 Rh3 2.230101 1_555
B2 Rh1 2.258678 1_555
B2 Rh4 2.273258 1_565
B2 Y1 2.915548 1_555
B2 Y3 3.007993 1_555
B2 Y0 3.212454 1_554
B3 B4 1.784315 1_565
B3 Ru10 2.137533 1_554
B3 Rh3 2.140542 1_655
B3 Rh2 2.227313 1_555
B3 Rh0 2.273969 1_565
B3 Ru2 2.278618 1_655
B3 Y0 2.941752 1_554
B3 Y2 3.020009 1_665
B3 Y1 3.174350 1_655
B4 Ru3 2.132274 1_555
B4 Rh4 2.163975 1_555
B4 Ru0 2.194941 1_555
B4 Ru2 2.264978 1_645
B4 Rh2 2.306202 1_545
B4 Y2 2.891758 1_655
B4 Y0 3.038351 1_544
B4 Y3 3.223221 1_545
B5 Ru0 2.112926 1_555
B5 Ru4 2.140729 1_555
B5 Ru1 2.248943 1_555
B5 Rh1 2.249092 1_555
B5 Rh4 2.271631 1_555
B5 Y2 2.947165 1_555
B5 Y0 3.053943 1_544
B5 Y3 3.146962 1_555
B6 Ru1 2.129266 1_555
B6 Ru5 2.141570 1_555
B6 Ru2 2.214405 1_555
B6 Ru0 2.273962 1_455
B6 Rh0 2.279794 1_455
B6 Y3 2.934600 1_455
B6 Y1 3.024229 1_555
B6 Y2 3.193526 1_555
B7 Ru2 2.122414 1_555
B7 Ru6 2.152523 1_555
B7 Ru1 2.198666 1_555
B7 Rh3 2.278918 1_555
B7 Rh4 2.280008 1_565
B7 Y3 2.931070 1_555
B7 Y1 3.014466 1_555
B7 Y2 3.176275 1_565
B8 Ru4 2.105314 1_555
B8 Ru3 2.208353 1_555
B8 Rh4 2.208693 1_555
B8 Ru8 2.244235 1_555
B8 Ru6 2.309254 1_545
B8 Y1 2.974277 1_656
B8 Y3 3.009275 1_545
B8 Y2 3.179968 1_555
B9 Ru3 2.112517 1_555
B9 Ru0 2.158308 1_555
B9 Ru4 2.206934 1_555
B9 Ru9 2.264004 1_655
B9 Ru5 2.290197 1_655
B9 Y3 3.003504 1_555
B9 Y1 3.017305 1_656
B9 Y2 3.197693 1_655
B10 B14 1.784426 1_555
B10 Ru6 2.107467 1_555
B10 Ru1 2.159122 1_555
B10 Ru5 2.214123 1_555
B10 Ru10 2.264680 1_555
B10 Ru4 2.293017 1_555
B10 Y2 2.995950 1_555
B10 Y0 2.996062 1_555
B10 Y3 3.180091 1_555
B11 B13 1.784993 1_565
B11 Ru5 2.110066 1_555
B11 Ru2 2.157637 1_555
B11 Ru6 2.216451 1_555
B11 Ru7 2.262242 1_565
B11 Ru3 2.292501 1_465
B11 Y0 2.999537 1_555
B11 Y2 3.013013 1_565
B11 Y3 3.158069 1_455
B12 B8 1.783604 1_555
B12 Ru10 2.108988 1_545
B12 Rh0 2.196581 1_556
B12 Ru7 2.203237 1_655
B12 Ru6 2.240577 1_545
B12 Ru8 2.330315 1_555
B12 Y3 2.978072 1_545
B12 Y1 2.996162 1_656
B12 Y0 3.200625 1_545
B13 Ru9 2.105147 1_555
B13 Rh1 2.201255 1_556
B13 Ru8 2.204124 1_555
B13 Ru3 2.258264 1_455
B13 Ru7 2.328349 1_555
B13 Y2 2.982084 1_555
B13 Y0 2.990683 1_545
B13 Y1 3.224450 1_556
B14 Ru8 2.103272 1_555
B14 Rh2 2.195284 1_556
B14 Ru9 2.198334 1_555
B14 Ru4 2.269878 1_555
B14 Ru10 2.331418 1_555
B14 Y2 2.966687 1_555
B14 Y0 2.976375 1_555
B14 Y1 3.236227 1_656
B15 B9 1.793391 1_455
B15 Ru7 2.104626 1_565
B15 Ru10 2.199652 1_455
B15 Rh3 2.200324 1_556
B15 Ru5 2.250944 1_555
B15 Ru9 2.316680 1_555
B15 Y3 2.990448 1_455
B15 Y1 3.000165 1_556
B15 Y0 3.197997 1_555
Ru0 Y3 2.925740 1_555
Ru0 Y0 3.145770 1_544
Ru0 Y2 3.217451 1_655
Ru1 Y2 2.925290 1_555
Ru1 Y1 3.128574 1_555
Ru1 Y3 3.197578 1_555
Ru2 Y2 2.919657 1_565
Ru2 Y1 3.137800 1_555
Ru2 Y3 3.190911 1_455
Ru3 Y2 2.939931 1_655
Ru3 Y1 3.150028 1_656
Ru3 Y3 3.216848 1_545
Ru4 Y2 2.911914 1_555
Ru4 Y1 3.147690 1_656
Ru4 Y3 3.241445 1_555
Ru5 Y3 2.931193 1_455
Ru5 Y0 3.119388 1_555
Ru5 Y2 3.236288 1_555
Ru6 Y3 2.935156 1_555
Ru6 Y0 3.107004 1_555
Ru6 Y2 3.231574 1_565
Ru7 Y0 2.902282 1_545
Ru7 Y3 3.157391 1_445
Ru7 Y1 3.239782 1_556
Ru8 Y1 2.898289 1_656
Ru8 Y2 3.155401 1_555
Ru8 Y0 3.250977 1_545
Ru9 Y1 2.896645 1_556
Ru9 Y2 3.174826 1_555
Ru9 Y0 3.243123 1_555
Ru10 Y0 2.907832 1_555
Ru10 Y3 3.166472 1_555
Ru10 Y1 3.235603 1_656
Rh0 Y1 2.898006 1_655
Rh0 Y2 3.125010 1_655
Rh0 Y0 3.223411 1_544
Rh1 Y0 2.898927 1_544
Rh1 Y3 3.132119 1_555
Rh1 Y1 3.227727 1_555
Rh2 Y0 2.887124 1_554
Rh2 Y3 3.137940 1_555
Rh2 Y1 3.228855 1_655
Rh3 Y1 2.899952 1_555
Rh3 Y2 3.116718 1_565
Rh3 Y0 3.224128 1_554
Rh4 Y3 2.908791 1_545
Rh4 Y0 3.140026 1_544
Rh4 Y2 3.196659 1_555
