# generated using pymatgen
data_LiCa3SbO6
_symmetry_space_group_name_H-M   'P 1'
_cell_length_a   6.51683575
_cell_length_b   6.51683790
_cell_length_c   6.51683938
_cell_angle_alpha   92.28045060
_cell_angle_beta   92.28042570
_cell_angle_gamma   92.28039455
_symmetry_Int_Tables_number   1
_chemical_formula_structural   LiCa3SbO6
_chemical_formula_sum   'Li2 Ca6 Sb2 O12'
_cell_volume   276.08915616
_cell_formula_units_Z   2
loop_
 _symmetry_equiv_pos_site_id
 _symmetry_equiv_pos_as_xyz
  1  'x, y, z'
loop_
 _atom_site_type_symbol
 _atom_site_label
 _atom_site_symmetry_multiplicity
 _atom_site_fract_x
 _atom_site_fract_y
 _atom_site_fract_z
 _atom_site_occupancy
  Li  Li0  1  0.25000000  0.25000000  0.25000000  1
  Li  Li1  1  0.75000000  0.75000000  0.75000000  1
  Ca  Ca0  1  0.59739677  0.24999900  0.90260323  1
  Ca  Ca1  1  0.40260323  0.75000100  0.09739677  1
  Ca  Ca2  1  0.90260323  0.59739677  0.24999900  1
  Ca  Ca3  1  0.09739677  0.40260323  0.75000100  1
  Ca  Ca4  1  0.24999900  0.90260323  0.59739677  1
  Ca  Ca5  1  0.75000100  0.09739677  0.40260323  1
  Sb  Sb0  1  0.00000000  0.00000000  0.00000000  1
  Sb  Sb1  1  0.50000000  0.50000100  0.50000000  1
  O  O0  1  0.20812125  0.54744268  0.42736894  1
  O  O1  1  0.79187875  0.45255732  0.57263106  1
  O  O2  1  0.07263106  0.95256032  0.29187775  1
  O  O3  1  0.92736794  0.04744068  0.70812225  1
  O  O4  1  0.42736894  0.20812125  0.54744368  1
  O  O5  1  0.57263106  0.79187775  0.45255732  1
  O  O6  1  0.95255932  0.29187775  0.07263106  1
  O  O7  1  0.04744068  0.70812225  0.92736894  1
  O  O8  1  0.54744368  0.42736894  0.20812125  1
  O  O9  1  0.45255732  0.57263106  0.79187875  1
  O  O10  1  0.29187875  0.07263106  0.95255932  1
  O  O11  1  0.70812125  0.92736894  0.04744068  1
loop_
_geom_bond_atom_site_label_1
_geom_bond_atom_site_label_2
_geom_bond_distance
_geom_bond_site_symmetry_2
Li0 O2 2.248714 1_545
Li0 O6 2.248718 1_455
Li0 O10 2.248720 1_554
Li0 O0 2.248731 1_555
Li0 O8 2.248737 1_555
Li0 O4 2.248737 1_555
Li1 O3 2.248716 1_565
Li1 O7 2.248718 1_655
Li1 O11 2.248720 1_556
Li1 O5 2.248730 1_555
Li1 O1 2.248731 1_555
Li1 O9 2.248731 1_555
Ca0 O10 2.303161 1_555
Ca0 O8 2.303164 1_556
Ca0 O11 2.461030 1_546
Ca0 O9 2.461047 1_555
Ca0 O4 2.526026 1_555
Ca0 O6 2.526043 1_556
Ca0 O3 2.877939 1_555
Ca0 O1 2.877949 1_555
Ca1 O11 2.303161 1_555
Ca1 O9 2.303165 1_554
Ca1 O10 2.461030 1_564
Ca1 O8 2.461049 1_555
Ca1 O5 2.526032 1_555
Ca1 O7 2.526043 1_554
Ca1 O2 2.877947 1_555
Ca1 O0 2.877949 1_555
Ca2 O0 2.303164 1_655
Ca2 O6 2.303166 1_555
Ca2 O7 2.461033 1_654
Ca2 O1 2.461048 1_555
Ca2 O8 2.526026 1_555
Ca2 O2 2.526050 1_655
Ca2 O5 2.877944 1_555
Ca2 O11 2.877948 1_555
Ca3 O1 2.303164 1_455
Ca3 O7 2.303166 1_555
Ca3 O6 2.461033 1_456
Ca3 O0 2.461048 1_555
Ca3 O9 2.526031 1_555
Ca3 O3 2.526047 1_455
Ca3 O4 2.877944 1_555
Ca3 O10 2.877948 1_555
Ca4 O4 2.303164 1_565
Ca4 O2 2.303168 1_555
Ca4 O3 2.461037 1_465
Ca4 O5 2.461048 1_555
Ca4 O0 2.526031 1_555
Ca4 O10 2.526044 1_565
Ca4 O7 2.877946 1_555
Ca4 O9 2.877948 1_555
Ca5 O3 2.303164 1_555
Ca5 O5 2.303171 1_545
Ca5 O2 2.461029 1_645
Ca5 O4 2.461049 1_555
Ca5 O1 2.526031 1_555
Ca5 O11 2.526044 1_545
Ca5 O8 2.877945 1_555
Ca5 O6 2.877946 1_555
O0 Sb1 1.981036 1_555
O1 Sb1 1.981038 1_555
O2 Sb0 1.981028 1_565
O3 Sb0 1.981030 1_656
O4 Sb1 1.981045 1_555
O5 Sb1 1.981025 1_555
O6 Sb0 1.981028 1_655
O7 Sb0 1.981028 1_566
O8 Sb1 1.981040 1_555
O9 Sb1 1.981036 1_555
O10 Sb0 1.981035 1_556
O11 Sb0 1.981035 1_665
