# generated using pymatgen
data_Sr2Si4Os3Ru
_symmetry_space_group_name_H-M   'P 1'
_cell_length_a   8.02752758
_cell_length_b   6.91629965
_cell_length_c   5.98575626
_cell_angle_alpha   76.57881859
_cell_angle_beta   56.93366912
_cell_angle_gamma   46.13543022
_symmetry_Int_Tables_number   1
_chemical_formula_structural   Sr2Si4Os3Ru
_chemical_formula_sum   'Sr2 Si4 Os3 Ru1'
_cell_volume   194.85088693
_cell_formula_units_Z   1
loop_
 _symmetry_equiv_pos_site_id
 _symmetry_equiv_pos_as_xyz
  1  'x, y, z'
loop_
 _atom_site_type_symbol
 _atom_site_label
 _atom_site_symmetry_multiplicity
 _atom_site_fract_x
 _atom_site_fract_y
 _atom_site_fract_z
 _atom_site_occupancy
  Sr  Sr0  1  0.00162635  0.00160845  0.99839350  1
  Sr  Sr1  1  0.24806439  0.24807768  0.25194127  1
  Si  Si0  1  0.32452206  0.67504289  0.31666237  1
  Si  Si1  1  0.57537510  0.92569679  0.56619155  1
  Si  Si2  1  0.67511757  0.32451375  0.68371575  1
  Si  Si3  1  0.92567225  0.57534887  0.93272669  1
  Os  Os0  1  0.62165395  0.62168840  0.37832057  1
  Os  Os1  1  0.37701617  0.37703813  0.62298925  1
  Os  Os2  1  0.87297245  0.87297819  0.62704849  1
  Ru  Ru0  1  0.62798570  0.62800186  0.87200955  1
loop_
_geom_bond_atom_site_label_1
_geom_bond_atom_site_label_2
_geom_bond_distance
_geom_bond_site_symmetry_2
Si0 Sr0 3.275169 1_564
Si0 Sr1 3.522758 1_565
Si0 Sr1 3.542536 1_555
Si0 Sr0 3.549713 1_654
Si0 Sr0 3.618647 1_565
Si1 Sr1 3.277255 1_565
Si1 Sr0 3.529673 1_565
Si1 Sr0 3.536423 1_664
Si1 Sr1 3.549178 1_655
Si1 Sr1 3.617226 1_566
Si2 Sr0 3.275277 1_655
Si2 Sr1 3.522248 1_655
Si2 Sr1 3.543124 1_556
Si2 Sr0 3.549836 1_565
Si2 Sr0 3.618405 1_654
Si3 Sr1 3.277488 1_656
Si3 Sr0 3.529425 1_655
Si3 Sr0 3.536735 1_665
Si3 Sr1 3.549252 1_566
Si3 Sr1 3.616905 1_655
Os0 Si3 2.320023 1_554
Os0 Si1 2.320082 1_555
Os0 Si0 2.374714 1_555
Os0 Si2 2.374814 1_555
Os0 Sr1 3.358982 1_565
Os0 Sr1 3.359123 1_655
Os0 Sr0 3.420036 1_654
Os0 Sr0 3.420046 1_565
Os1 Si1 2.325643 1_545
Os1 Si3 2.325734 1_455
Os1 Si0 2.381769 1_555
Os1 Si2 2.381957 1_555
Os1 Sr1 3.392342 1_555
Os1 Sr1 3.392441 1_556
Os1 Sr0 3.444748 1_565
Os1 Sr0 3.444933 1_654
Os2 Si0 2.328034 1_655
Os2 Si2 2.328108 1_565
Os2 Si3 2.377716 1_555
Os2 Si1 2.377725 1_555
Os2 Sr0 3.390462 1_665
Os2 Sr0 3.390662 1_664
Os2 Sr1 3.446583 1_655
Os2 Sr1 3.446586 1_566
Ru0 Si2 2.313345 1_555
Ru0 Si0 2.313569 1_556
Ru0 Si3 2.378134 1_555
Ru0 Si1 2.378530 1_555
Ru0 Sr0 3.358773 1_565
Ru0 Sr0 3.359061 1_655
Ru0 Sr1 3.420166 1_566
Ru0 Sr1 3.420169 1_655
