# generated using pymatgen
data_Ba5Bi3Cl
_symmetry_space_group_name_H-M   'P 1'
_cell_length_a   10.31328462
_cell_length_b   10.31328516
_cell_length_c   7.96398622
_cell_angle_alpha   90.00000000
_cell_angle_beta   90.00000000
_cell_angle_gamma   120.00000140
_symmetry_Int_Tables_number   1
_chemical_formula_structural   Ba5Bi3Cl
_chemical_formula_sum   'Ba10 Bi6 Cl2'
_cell_volume   733.59296022
_cell_formula_units_Z   2
loop_
 _symmetry_equiv_pos_site_id
 _symmetry_equiv_pos_as_xyz
  1  'x, y, z'
loop_
 _atom_site_type_symbol
 _atom_site_label
 _atom_site_symmetry_multiplicity
 _atom_site_fract_x
 _atom_site_fract_y
 _atom_site_fract_z
 _atom_site_occupancy
  Ba  Ba0  1  0.74538766  0.00000000  0.75000000  1
  Ba  Ba1  1  0.00000000  0.25461234  0.25000000  1
  Ba  Ba2  1  0.74538766  0.74538766  0.25000000  1
  Ba  Ba3  1  0.33333300  0.66666700  0.50000000  1
  Ba  Ba4  1  0.33333300  0.66666700  0.00000000  1
  Ba  Ba5  1  0.66666700  0.33333300  0.50000000  1
  Ba  Ba6  1  0.66666700  0.33333300  0.00000000  1
  Ba  Ba7  1  0.25461234  0.00000000  0.25000000  1
  Ba  Ba8  1  0.25461234  0.25461234  0.75000000  1
  Ba  Ba9  1  0.00000000  0.74538766  0.75000000  1
  Bi  Bi0  1  0.39236044  0.00000000  0.75000000  1
  Bi  Bi1  1  0.60763956  0.00000000  0.25000000  1
  Bi  Bi2  1  0.00000000  0.60763956  0.25000000  1
  Bi  Bi3  1  0.60763956  0.60763956  0.75000000  1
  Bi  Bi4  1  0.00000000  0.39236044  0.75000000  1
  Bi  Bi5  1  0.39236044  0.39236044  0.25000000  1
  Cl  Cl0  1  0.00000000  0.00000000  0.50000000  1
  Cl  Cl1  1  0.00000000  0.00000000  0.00000000  1
loop_
_geom_bond_atom_site_label_1
_geom_bond_atom_site_label_2
_geom_bond_distance
_geom_bond_site_symmetry_2
Ba0 Cl0 3.295355 1_655
Ba0 Cl1 3.295355 1_656
Ba0 Bi4 3.555831 1_655
Ba0 Bi3 3.555831 1_545
Ba0 Bi0 3.640870 1_555
Ba0 Bi1 4.227821 1_556
Ba0 Bi1 4.227821 1_555
Ba1 Cl0 3.295355 1_555
Ba1 Cl1 3.295355 1_555
Ba1 Bi5 3.555831 1_555
Ba1 Bi1 3.555831 1_455
Ba1 Bi2 3.640870 1_555
Ba1 Bi4 4.227821 1_554
Ba1 Bi4 4.227821 1_555
Ba2 Cl0 3.295355 1_665
Ba2 Cl1 3.295355 1_665
Ba2 Bi2 3.555831 1_655
Ba2 Bi1 3.555831 1_565
Ba2 Bi5 3.640870 1_555
Ba2 Bi3 4.227821 1_554
Ba2 Bi3 4.227821 1_555
Ba3 Bi2 3.749674 1_555
Ba3 Bi0 3.749674 1_565
Ba3 Bi4 3.749677 1_555
Ba3 Bi1 3.749677 1_565
Ba3 Bi3 3.749682 1_555
Ba3 Bi5 3.749682 1_555
Ba4 Bi2 3.749674 1_555
Ba4 Bi0 3.749674 1_564
Ba4 Bi4 3.749677 1_554
Ba4 Bi1 3.749677 1_565
Ba4 Bi3 3.749682 1_554
Ba4 Bi5 3.749682 1_555
Ba5 Bi4 3.749674 1_655
Ba5 Bi1 3.749674 1_555
Ba5 Bi2 3.749677 1_655
Ba5 Bi0 3.749677 1_555
Ba5 Bi5 3.749682 1_555
Ba5 Bi3 3.749682 1_555
Ba6 Bi4 3.749674 1_654
Ba6 Bi1 3.749674 1_555
Ba6 Bi2 3.749677 1_655
Ba6 Bi0 3.749677 1_554
Ba6 Bi5 3.749682 1_555
Ba6 Bi3 3.749682 1_554
Ba7 Cl1 3.295355 1_555
Ba7 Cl0 3.295355 1_555
Ba7 Bi2 3.555831 1_545
Ba7 Bi5 3.555831 1_555
Ba7 Bi1 3.640870 1_555
Ba7 Bi0 4.227821 1_554
Ba7 Bi0 4.227821 1_555
Ba8 Cl1 3.295355 1_556
Ba8 Cl0 3.295355 1_555
Ba8 Bi4 3.555831 1_555
Ba8 Bi0 3.555831 1_555
Ba8 Bi3 3.640870 1_555
Ba8 Bi5 4.227821 1_556
Ba8 Bi5 4.227821 1_555
Ba9 Cl0 3.295355 1_565
Ba9 Cl1 3.295355 1_566
Ba9 Bi3 3.555831 1_455
Ba9 Bi0 3.555831 1_565
Ba9 Bi4 3.640870 1_555
Ba9 Bi2 4.227821 1_556
Ba9 Bi2 4.227821 1_555
