# generated using pymatgen
data_TiNb7(SiSb2)2
_symmetry_space_group_name_H-M   'P 1'
_cell_length_a   7.80008682
_cell_length_b   7.79988551
_cell_length_c   7.78204585
_cell_angle_alpha   95.82374395
_cell_angle_beta   95.67482661
_cell_angle_gamma   143.14790560
_symmetry_Int_Tables_number   1
_chemical_formula_structural   TiNb7(SiSb2)2
_chemical_formula_sum   'Ti1 Nb7 Si2 Sb4'
_cell_volume   269.31845456
_cell_formula_units_Z   1
loop_
 _symmetry_equiv_pos_site_id
 _symmetry_equiv_pos_as_xyz
  1  'x, y, z'
loop_
 _atom_site_type_symbol
 _atom_site_label
 _atom_site_symmetry_multiplicity
 _atom_site_fract_x
 _atom_site_fract_y
 _atom_site_fract_z
 _atom_site_occupancy
  Ti  Ti0  1  0.91553326  0.79537052  0.71104465  1
  Nb  Nb0  1  0.79499173  0.08382350  0.87879906  1
  Nb  Nb1  1  0.41569149  0.70481960  0.12065505  1
  Nb  Nb2  1  0.58461048  0.29518561  0.87966566  1
  Nb  Nb3  1  0.70403743  0.58412502  0.28821339  1
  Nb  Nb4  1  0.29490035  0.41614096  0.71089526  1
  Nb  Nb5  1  0.20418865  0.91539139  0.11976182  1
  Nb  Nb6  1  0.08549400  0.20495249  0.29040203  1
  Si  Si0  1  0.24839658  0.24759956  0.99772743  1
  Si  Si1  1  0.75009599  0.74937217  0.99775626  1
  Sb  Sb0  1  0.64312346  0.85750811  0.50044644  1
  Sb  Sb1  1  0.14143638  0.64415388  0.78561151  1
  Sb  Sb2  1  0.85880165  0.35800943  0.21684543  1
  Sb  Sb3  1  0.35869957  0.14354776  0.50217601  1
loop_
_geom_bond_atom_site_label_1
_geom_bond_atom_site_label_2
_geom_bond_distance
_geom_bond_site_symmetry_2
Nb0 Si1 2.622408 1_545
Nb0 Si0 2.622701 1_655
Nb0 Sb0 2.845612 1_545
Nb0 Sb2 2.939010 1_556
Nb0 Sb1 3.009878 1_655
Nb0 Sb1 3.009996 1_545
Nb1 Si1 2.636157 1_554
Nb1 Si0 2.636164 1_554
Nb1 Sb0 2.858025 1_555
Nb1 Sb1 2.936814 1_554
Nb1 Sb2 2.999237 1_455
Nb1 Sb2 2.999422 1_565
Nb2 Si1 2.616732 1_555
Nb2 Si0 2.616738 1_555
Nb2 Sb3 2.840679 1_555
Nb2 Sb2 2.941318 1_556
Nb2 Sb1 2.986973 1_655
Nb2 Sb1 2.987334 1_545
Nb3 Si0 2.628420 1_554
Nb3 Si1 2.628747 1_554
Nb3 Sb2 2.866598 1_555
Nb3 Sb0 2.926161 1_555
Nb3 Sb3 3.011907 1_555
Nb3 Sb3 3.012119 1_665
Nb4 Si1 2.613726 1_555
Nb4 Si0 2.614325 1_555
Nb4 Sb1 2.875543 1_555
Nb4 Sb3 2.925562 1_555
Nb4 Sb0 2.994650 1_445
Nb4 Sb0 2.995088 1_555
Nb5 Si1 2.620871 1_454
Nb5 Si0 2.620923 1_564
Nb5 Sb3 2.873906 1_565
Nb5 Sb1 2.907227 1_554
Nb5 Sb2 3.009060 1_455
Nb5 Sb2 3.009615 1_565
Nb6 Si1 2.638104 1_444
Nb6 Si0 2.638630 1_554
Nb6 Sb2 2.862919 1_455
Nb6 Sb3 2.930145 1_555
Nb6 Sb0 2.995244 1_445
Nb6 Sb0 2.995438 1_555
Si0 Si1 2.456934 1_445
Si0 Si1 2.473911 1_555
Si0 Ti0 2.600254 1_445
Si1 Ti0 2.600597 1_555
Sb0 Ti0 2.925120 1_555
Sb1 Ti0 2.845259 1_455
Sb3 Ti0 2.990352 1_555
Sb3 Ti0 2.991590 1_445
