# generated using pymatgen
data_Mn3Nb2FeP24
_symmetry_space_group_name_H-M   'P 1'
_cell_length_a   8.55305859
_cell_length_b   8.55003637
_cell_length_c   10.65422971
_cell_angle_alpha   65.74056046
_cell_angle_beta   65.72051504
_cell_angle_gamma   39.38513394
_symmetry_Int_Tables_number   1
_chemical_formula_structural   Mn3Nb2FeP24
_chemical_formula_sum   'Mn3 Nb2 Fe1 P24'
_cell_volume   444.78386235
_cell_formula_units_Z   1
loop_
 _symmetry_equiv_pos_site_id
 _symmetry_equiv_pos_as_xyz
  1  'x, y, z'
loop_
 _atom_site_type_symbol
 _atom_site_label
 _atom_site_symmetry_multiplicity
 _atom_site_fract_x
 _atom_site_fract_y
 _atom_site_fract_z
 _atom_site_occupancy
  Mn  Mn0  1  0.00790517  0.62912658  0.04623085  1
  Mn  Mn1  1  0.62747845  0.00697853  0.54626344  1
  Mn  Mn2  1  0.99327401  0.36953423  0.95360207  1
  Nb  Nb0  1  0.30278825  0.69737938  0.25025584  1
  Nb  Nb1  1  0.69683089  0.30391272  0.74951017  1
  Fe  Fe0  1  0.36993579  0.99224773  0.45346029  1
  P  P0  1  0.59606625  0.95256223  0.07331207  1
  P  P1  1  0.04554217  0.40745620  0.42582107  1
  P  P2  1  0.40529223  0.04636788  0.92707865  1
  P  P3  1  0.95304661  0.59392871  0.57406399  1
  P  P4  1  0.58163368  0.29148822  0.16588400  1
  P  P5  1  0.70829483  0.41872408  0.33317586  1
  P  P6  1  0.98307195  0.33055726  0.75683658  1
  P  P7  1  0.67024390  0.01543851  0.74387331  1
  P  P8  1  0.01683532  0.66894927  0.24198056  1
  P  P9  1  0.33199518  0.98333159  0.25646792  1
  P  P10  1  0.01763428  0.91663451  0.92914879  1
  P  P11  1  0.08426179  0.98073314  0.57229155  1
  P  P12  1  0.98162977  0.08309243  0.07164514  1
  P  P13  1  0.91753991  0.01925607  0.42826438  1
  P  P14  1  0.33112296  0.43351743  0.50589934  1
  P  P15  1  0.56880305  0.66733972  0.99360175  1
  P  P16  1  0.66933862  0.56549238  0.49284114  1
  P  P17  1  0.43128860  0.33215294  0.00682965  1
  P  P18  1  0.99641212  0.64617714  0.83765811  1
  P  P19  1  0.35368114  0.00407139  0.66368127  1
  P  P20  1  0.00392225  0.35403062  0.16265085  1
  P  P21  1  0.64919238  0.99530721  0.33791677  1
  P  P22  1  0.28990854  0.58295051  0.66609132  1
  P  P23  1  0.41503291  0.71126242  0.83366429  1
loop_
_geom_bond_atom_site_label_1
_geom_bond_atom_site_label_2
_geom_bond_distance
_geom_bond_site_symmetry_2
Mn0 P20 2.182588 1_555
Mn0 P18 2.204607 1_454
Mn0 P0 2.213752 1_455
Mn0 P17 2.269184 1_555
Mn0 P8 2.286057 1_555
Mn0 P10 2.305817 1_554
Mn1 P19 2.169069 1_555
Mn1 P21 2.187736 1_545
Mn1 P3 2.220610 1_545
Mn1 P14 2.286529 1_555
Mn1 P7 2.317542 1_555
Mn1 P13 2.340005 1_555
Mn2 P18 2.188886 1_555
Mn2 P20 2.211803 1_656
Mn2 P2 2.214540 1_655
Mn2 P15 2.274936 1_555
Mn2 P6 2.298473 1_555
Mn2 P12 2.309251 1_556
Nb0 P5 2.550079 1_555
Nb0 P4 2.558495 1_555
Nb0 P9 2.671143 1_555
Nb0 P13 2.675873 1_465
Nb0 P8 2.676304 1_555
Nb0 P12 2.679766 1_465
Nb0 P14 2.686111 1_555
Nb0 P15 2.697641 1_554
Nb1 P23 2.560489 1_555
Nb1 P22 2.561462 1_555
Nb1 P6 2.661911 1_555
Nb1 P7 2.671838 1_555
Nb1 P11 2.677470 1_645
Nb1 P10 2.687503 1_645
Nb1 P16 2.688031 1_555
Nb1 P17 2.703396 1_556
Fe0 P21 2.207514 1_555
Fe0 P19 2.225815 1_565
Fe0 P1 2.230423 1_565
Fe0 P16 2.286762 1_555
Fe0 P9 2.290394 1_555
Fe0 P11 2.303944 1_555
P0 P2 2.184934 1_564
P0 P9 2.203916 1_555
P0 P17 2.209674 1_565
P1 P3 2.180436 1_455
P1 P8 2.200863 1_555
P1 P16 2.207202 1_455
P2 P7 2.208050 1_555
P3 P6 2.200616 1_555
P10 P23 2.251584 1_555
P10 P12 2.266906 1_466
P11 P22 2.250567 1_555
P11 P13 2.270405 1_465
P12 P4 2.260463 1_555
P13 P5 2.256898 1_555
P14 P3 2.212870 1_455
P14 P22 2.295754 1_555
P15 P2 2.209580 1_565
P15 P23 2.308279 1_555
P16 P5 2.284996 1_555
P17 P4 2.294101 1_555
P18 P7 2.198638 1_565
P18 P22 2.208124 1_655
P19 P6 2.199237 1_455
P19 P23 2.201798 1_545
P20 P9 2.207712 1_545
P20 P5 2.210462 1_455
P21 P8 2.203624 1_655
P21 P4 2.213845 1_565
