# generated using pymatgen
data_Ag6PSe5I
_symmetry_space_group_name_H-M   'P 1'
_cell_length_a   7.72027468
_cell_length_b   7.72027437
_cell_length_c   13.44811678
_cell_angle_alpha   72.85930175
_cell_angle_beta   72.85930005
_cell_angle_gamma   59.61434411
_symmetry_Int_Tables_number   1
_chemical_formula_structural   Ag6PSe5I
_chemical_formula_sum   'Ag12 P2 Se10 I2'
_cell_volume   650.33743894
_cell_formula_units_Z   2
loop_
 _symmetry_equiv_pos_site_id
 _symmetry_equiv_pos_as_xyz
  1  'x, y, z'
loop_
 _atom_site_type_symbol
 _atom_site_label
 _atom_site_symmetry_multiplicity
 _atom_site_fract_x
 _atom_site_fract_y
 _atom_site_fract_z
 _atom_site_occupancy
  Ag  Ag0  1  0.04031344  0.98195618  0.60544657  1
  Ag  Ag1  1  0.98195618  0.04031344  0.10544657  1
  Ag  Ag2  1  0.59439377  0.39811354  0.18847213  1
  Ag  Ag3  1  0.39811354  0.59439377  0.68847213  1
  Ag  Ag4  1  0.62594365  0.72052455  0.87605127  1
  Ag  Ag5  1  0.72052455  0.62594365  0.37605127  1
  Ag  Ag6  1  0.53952426  0.08966432  0.53908643  1
  Ag  Ag7  1  0.08966432  0.53952426  0.03908643  1
  Ag  Ag8  1  0.80713643  0.24318828  0.88347155  1
  Ag  Ag9  1  0.24318828  0.80713643  0.38347155  1
  Ag  Ag10  1  0.24705855  0.20898074  0.39366200  1
  Ag  Ag11  1  0.20898074  0.24705855  0.89366200  1
  P  P0  1  0.50808488  0.98967147  0.12224228  1
  P  P1  1  0.98967147  0.50808488  0.62224228  1
  Se  Se0  1  0.80237406  0.80508325  0.67813465  1
  Se  Se1  1  0.80508325  0.80237406  0.17813465  1
  Se  Se2  1  0.32650695  0.28431492  0.18341519  1
  Se  Se3  1  0.28431492  0.32650695  0.68341519  1
  Se  Se4  1  0.57117492  0.05261055  0.94604480  1
  Se  Se5  1  0.05261055  0.57117492  0.44604480  1
  Se  Se6  1  0.85074984  0.41434712  0.00723491  1
  Se  Se7  1  0.41434712  0.85074984  0.50723491  1
  Se  Se8  1  0.81276644  0.33015748  0.67849299  1
  Se  Se9  1  0.33015748  0.81276644  0.17849299  1
  I  I0  1  0.23189741  0.78346301  0.87064722  1
  I  I1  1  0.78346301  0.23189741  0.37064722  1
loop_
_geom_bond_atom_site_label_1
_geom_bond_atom_site_label_2
_geom_bond_distance
_geom_bond_site_symmetry_2
Ag0 Se7 2.586586 1_555
Ag0 Se0 2.624293 1_455
Ag0 Se8 2.653206 1_465
Ag1 Se6 2.586586 1_555
Ag1 Se1 2.624293 1_545
Ag1 Se9 2.653206 1_645
Ag2 Se2 2.647646 1_555
Ag2 Se6 2.664713 1_555
Ag2 Se9 2.780131 1_555
Ag2 I1 2.852942 1_555
Ag3 Se3 2.647646 1_555
Ag3 Se7 2.664713 1_555
Ag3 Se8 2.780131 1_555
Ag3 I0 2.852942 1_555
Ag4 Se6 2.628392 1_556
Ag4 Se0 2.665343 1_555
Ag4 Se4 2.780116 1_565
Ag4 I0 2.847832 1_555
Ag5 Se7 2.628392 1_555
Ag5 Se1 2.665343 1_555
Ag5 Se5 2.780116 1_655
Ag5 I1 2.847832 1_555
Ag6 Se7 2.651884 1_545
Ag6 Se3 2.680652 1_555
Ag6 Se0 2.783238 1_545
Ag6 I1 2.827536 1_555
Ag7 Se6 2.651884 1_455
Ag7 Se2 2.680653 1_555
Ag7 Se1 2.783238 1_455
Ag7 I0 2.827536 1_554
Ag8 Se6 2.589673 1_556
Ag8 Se8 2.630467 1_555
Ag8 Se4 2.696205 1_555
Ag8 I0 3.410782 1_645
Ag9 Se7 2.589674 1_555
Ag9 Se9 2.630467 1_555
Ag9 Se5 2.696205 1_555
Ag9 I1 3.410782 1_465
Ag10 Se7 2.590175 1_545
Ag10 Se5 2.619157 1_555
Ag10 Se2 2.660482 1_555
Ag11 Se6 2.590175 1_456
Ag11 Se4 2.619157 1_555
Ag11 Se3 2.660482 1_555
P0 Se1 2.221355 1_555
P0 Se4 2.229006 1_564
P0 Se9 2.236261 1_555
P0 Se2 2.239124 1_565
P1 Se0 2.221355 1_555
P1 Se5 2.229006 1_655
P1 Se8 2.236261 1_555
P1 Se3 2.239124 1_655
