# generated using pymatgen
data_YGaCu3Ag
_symmetry_space_group_name_H-M   'P 1'
_cell_length_a   5.04232192
_cell_length_b   5.04232038
_cell_length_c   5.04232165
_cell_angle_alpha   60.67539958
_cell_angle_beta   60.67539940
_cell_angle_gamma   60.67540203
_symmetry_Int_Tables_number   1
_chemical_formula_structural   YGaCu3Ag
_chemical_formula_sum   'Y1 Ga1 Cu3 Ag1'
_cell_volume   92.03393819
_cell_formula_units_Z   1
loop_
 _symmetry_equiv_pos_site_id
 _symmetry_equiv_pos_as_xyz
  1  'x, y, z'
loop_
 _atom_site_type_symbol
 _atom_site_label
 _atom_site_symmetry_multiplicity
 _atom_site_fract_x
 _atom_site_fract_y
 _atom_site_fract_z
 _atom_site_occupancy
  Y  Y0  1  0.24799174  0.24799174  0.24799174  1
  Ga  Ga0  1  0.62841202  0.62841202  0.62841202  1
  Cu  Cu0  1  0.62650727  0.62650727  0.12374463  1
  Cu  Cu1  1  0.62650727  0.12374463  0.62650727  1
  Cu  Cu2  1  0.12374463  0.62650727  0.62650727  1
  Ag  Ag0  1  0.99683908  0.99683908  0.99683908  1
loop_
_geom_bond_atom_site_label_1
_geom_bond_atom_site_label_2
_geom_bond_distance
_geom_bond_site_symmetry_2
Ga0 Y0 2.997230 1_556
Ga0 Y0 2.997230 1_565
Ga0 Y0 2.997230 1_655
Cu0 Ga0 2.488256 1_554
Cu0 Cu1 2.532782 1_564
Cu0 Cu2 2.532783 1_654
Cu0 Ga0 2.554139 1_555
Cu0 Cu1 2.560926 1_555
Cu0 Cu2 2.560927 1_555
Cu0 Y0 2.957835 1_565
Cu0 Y0 2.957836 1_655
Cu0 Y0 2.983896 1_555
Cu1 Ga0 2.488256 1_545
Cu1 Cu2 2.532782 1_645
Cu1 Ga0 2.554139 1_555
Cu1 Cu2 2.560926 1_555
Cu1 Y0 2.957835 1_556
Cu1 Y0 2.957835 1_655
Cu1 Y0 2.983897 1_555
Cu2 Ga0 2.488256 1_455
Cu2 Ga0 2.554140 1_555
Cu2 Y0 2.957835 1_565
Cu2 Y0 2.957835 1_556
Cu2 Y0 2.983896 1_555
Ag0 Cu2 2.908259 1_655
Ag0 Cu0 2.908260 1_556
Ag0 Cu1 2.908260 1_565
Ag0 Ga0 2.972301 1_565
Ag0 Ga0 2.972301 1_556
Ag0 Ga0 2.972301 1_655
Ag0 Cu2 2.998213 1_665
Ag0 Cu0 2.998213 1_566
Ag0 Cu1 2.998213 1_566
Ag0 Cu2 2.998213 1_656
Ag0 Cu1 2.998213 1_665
Ag0 Cu0 2.998213 1_656
Ag0 Y0 3.086087 1_666
Ag0 Y0 3.109395 1_656
Ag0 Y0 3.109396 1_665
Ag0 Y0 3.109396 1_566
