# generated using pymatgen
data_ScCrTcO8
_symmetry_space_group_name_H-M   'P 1'
_cell_length_a   5.74118518
_cell_length_b   7.76581651
_cell_length_c   8.74215769
_cell_angle_alpha   93.59432695
_cell_angle_beta   90.00000000
_cell_angle_gamma   90.00000000
_symmetry_Int_Tables_number   1
_chemical_formula_structural   ScCrTcO8
_chemical_formula_sum   'Sc2 Cr2 Tc2 O16'
_cell_volume   389.00231971
_cell_formula_units_Z   2
loop_
 _symmetry_equiv_pos_site_id
 _symmetry_equiv_pos_as_xyz
  1  'x, y, z'
loop_
 _atom_site_type_symbol
 _atom_site_label
 _atom_site_symmetry_multiplicity
 _atom_site_fract_x
 _atom_site_fract_y
 _atom_site_fract_z
 _atom_site_occupancy
  Sc  Sc0  1  0.00000000  0.50000000  0.00000000  1
  Sc  Sc1  1  0.50000000  0.00000000  0.50000000  1
  Cr  Cr0  1  0.50000000  0.32275892  0.81060333  1
  Cr  Cr1  1  0.50000000  0.67724108  0.18939667  1
  Tc  Tc0  1  0.00000000  0.18269660  0.30012861  1
  Tc  Tc1  1  0.00000000  0.81730340  0.69987139  1
  O  O0  1  0.00000000  0.97987820  0.83226232  1
  O  O1  1  0.00000000  0.37571607  0.21452560  1
  O  O2  1  0.00000000  0.62428393  0.78547440  1
  O  O3  1  0.00000000  0.02012180  0.16773768  1
  O  O4  1  0.73791703  0.33485303  0.91941413  1
  O  O5  1  0.73791703  0.66514697  0.08058587  1
  O  O6  1  0.75787543  0.83370935  0.58478764  1
  O  O7  1  0.75787543  0.16629065  0.41521236  1
  O  O8  1  0.50000000  0.13409569  0.70520938  1
  O  O9  1  0.50000000  0.47772740  0.70087589  1
  O  O10  1  0.50000000  0.86590431  0.29479062  1
  O  O11  1  0.50000000  0.52227260  0.29912411  1
  O  O12  1  0.24212457  0.83370935  0.58478764  1
  O  O13  1  0.24212457  0.16629065  0.41521236  1
  O  O14  1  0.26208297  0.33485303  0.91941413  1
  O  O15  1  0.26208297  0.66514697  0.08058587  1
loop_
_geom_bond_atom_site_label_1
_geom_bond_atom_site_label_2
_geom_bond_distance
_geom_bond_site_symmetry_2
Cr0 O9 1.585315 1_555
Cr0 O4 1.663800 1_555
Cr0 O14 1.663800 1_555
Cr0 O8 1.681147 1_555
Cr1 O11 1.585315 1_555
Cr1 O5 1.663800 1_555
Cr1 O15 1.663800 1_555
Cr1 O10 1.681147 1_555
O0 Tc1 1.658401 1_555
O1 Tc0 1.716842 1_555
O1 Sc0 2.162334 1_555
O2 Tc1 1.716842 1_555
O2 Sc0 2.162334 1_556
O3 Tc0 1.658401 1_555
O4 Sc0 2.071680 1_656
O5 Sc0 2.071680 1_655
O6 Tc1 1.725349 1_655
O6 Sc1 2.128149 1_565
O7 Tc0 1.725349 1_655
O7 Sc1 2.128149 1_555
O8 Sc1 2.017061 1_555
O10 Sc1 2.017061 1_565
O12 Tc1 1.725349 1_555
O12 Sc1 2.128149 1_565
O13 Tc0 1.725349 1_555
O13 Sc1 2.128149 1_555
O14 Sc0 2.071680 1_556
O15 Sc0 2.071680 1_555
