# generated using pymatgen
data_Ba2SrLu2F12
_symmetry_space_group_name_H-M   'P 1'
_cell_length_a   9.35117121
_cell_length_b   9.35117121
_cell_length_c   5.68155551
_cell_angle_alpha   90.00000000
_cell_angle_beta   90.00000000
_cell_angle_gamma   90.00000000
_symmetry_Int_Tables_number   1
_chemical_formula_structural   Ba2SrLu2F12
_chemical_formula_sum   'Ba4 Sr2 Lu4 F24'
_cell_volume   496.82022994
_cell_formula_units_Z   2
loop_
 _symmetry_equiv_pos_site_id
 _symmetry_equiv_pos_as_xyz
  1  'x, y, z'
loop_
 _atom_site_type_symbol
 _atom_site_label
 _atom_site_symmetry_multiplicity
 _atom_site_fract_x
 _atom_site_fract_y
 _atom_site_fract_z
 _atom_site_occupancy
  Ba  Ba0  1  0.32068435  0.82068435  0.50000000  1
  Ba  Ba1  1  0.82068435  0.67931565  0.50000000  1
  Ba  Ba2  1  0.17931565  0.32068435  0.50000000  1
  Ba  Ba3  1  0.67931565  0.17931565  0.50000000  1
  Sr  Sr0  1  0.50000000  0.50000000  0.00000000  1
  Sr  Sr1  1  0.00000000  0.00000000  0.00000000  1
  Lu  Lu0  1  0.13517450  0.63517450  0.00000000  1
  Lu  Lu1  1  0.63517450  0.86482550  0.00000000  1
  Lu  Lu2  1  0.36482550  0.13517450  0.00000000  1
  Lu  Lu3  1  0.86482550  0.36482550  0.00000000  1
  F  F0  1  0.30097379  0.80097379  0.00000000  1
  F  F1  1  0.80097379  0.69902621  0.00000000  1
  F  F2  1  0.19902621  0.30097379  0.00000000  1
  F  F3  1  0.69902621  0.19902621  0.00000000  1
  F  F4  1  0.55900418  0.71525152  0.25205073  1
  F  F5  1  0.44099582  0.28474848  0.25205073  1
  F  F6  1  0.28474848  0.55900418  0.25205073  1
  F  F7  1  0.71525152  0.44099582  0.25205073  1
  F  F8  1  0.21525152  0.05900418  0.74794927  1
  F  F9  1  0.05900418  0.78474848  0.74794927  1
  F  F10  1  0.50000000  0.00000000  0.77297161  1
  F  F11  1  0.00000000  0.50000000  0.77297161  1
  F  F12  1  0.00000000  0.50000000  0.22702839  1
  F  F13  1  0.50000000  0.00000000  0.22702839  1
  F  F14  1  0.21525152  0.05900418  0.25205073  1
  F  F15  1  0.05900418  0.78474848  0.25205073  1
  F  F16  1  0.94099582  0.21525152  0.25205073  1
  F  F17  1  0.78474848  0.94099582  0.25205073  1
  F  F18  1  0.28474848  0.55900418  0.74794927  1
  F  F19  1  0.71525152  0.44099582  0.74794927  1
  F  F20  1  0.55900418  0.71525152  0.74794927  1
  F  F21  1  0.44099582  0.28474848  0.74794927  1
  F  F22  1  0.78474848  0.94099582  0.74794927  1
  F  F23  1  0.94099582  0.21525152  0.74794927  1
loop_
_geom_bond_atom_site_label_1
_geom_bond_atom_site_label_2
_geom_bond_distance
_geom_bond_site_symmetry_2
Ba0 F8 2.814801 1_565
Ba0 F20 2.814801 1_555
Ba0 F14 2.814801 1_565
Ba0 F4 2.814801 1_555
Ba0 F10 2.833495 1_565
Ba0 F13 2.833495 1_565
Ba0 F18 2.843476 1_555
Ba0 F9 2.843476 1_555
Ba0 F15 2.843476 1_555
Ba0 F6 2.843476 1_555
Ba0 F0 2.852712 1_555
Ba0 F0 2.852712 1_556
Ba1 F9 2.814801 1_655
Ba1 F15 2.814801 1_655
Ba1 F19 2.814801 1_555
Ba1 F7 2.814801 1_555
Ba1 F11 2.833495 1_655
Ba1 F12 2.833495 1_655
Ba1 F22 2.843476 1_555
Ba1 F17 2.843476 1_555
Ba1 F20 2.843476 1_555
Ba1 F4 2.843476 1_555
Ba1 F1 2.852712 1_555
Ba1 F1 2.852712 1_556
Ba2 F18 2.814801 1_555
Ba2 F6 2.814801 1_555
Ba2 F23 2.814801 1_455
Ba2 F16 2.814801 1_455
Ba2 F11 2.833495 1_555
Ba2 F12 2.833495 1_555
Ba2 F21 2.843476 1_555
Ba2 F5 2.843476 1_555
Ba2 F8 2.843476 1_555
Ba2 F14 2.843476 1_555
Ba2 F2 2.852712 1_555
Ba2 F2 2.852712 1_556
Ba3 F21 2.814801 1_555
Ba3 F22 2.814801 1_545
Ba3 F17 2.814801 1_545
Ba3 F5 2.814801 1_555
Ba3 F10 2.833495 1_555
Ba3 F13 2.833495 1_555
Ba3 F23 2.843476 1_555
Ba3 F19 2.843476 1_555
Ba3 F16 2.843476 1_555
Ba3 F7 2.843476 1_555
Ba3 F3 2.852712 1_556
Ba3 F3 2.852712 1_555
F0 Lu0 2.192621 1_555
F1 Lu1 2.192621 1_555
F2 Lu2 2.192621 1_555
F3 Lu3 2.192621 1_555
F4 Lu1 2.124717 1_555
F4 Sr0 2.531157 1_555
F5 Lu2 2.124717 1_555
F5 Sr0 2.531157 1_555
F6 Lu0 2.124717 1_555
F6 Sr0 2.531157 1_555
F7 Lu3 2.124717 1_555
F7 Sr0 2.531157 1_555
F8 Lu2 2.124717 1_556
F8 Sr1 2.531157 1_556
F9 Lu0 2.124717 1_556
F9 Sr1 2.531157 1_566
F10 Lu2 2.204398 1_556
F10 Lu1 2.204398 1_546
F11 Lu0 2.204398 1_556
F11 Lu3 2.204398 1_456
F12 Lu0 2.204398 1_555
F12 Lu3 2.204398 1_455
F13 Lu2 2.204398 1_555
F13 Lu1 2.204398 1_545
F14 Lu2 2.124717 1_555
F14 Sr1 2.531157 1_555
F15 Lu0 2.124717 1_555
F15 Sr1 2.531157 1_565
F16 Lu3 2.124717 1_555
F16 Sr1 2.531157 1_655
F17 Lu1 2.124717 1_555
F17 Sr1 2.531157 1_665
F18 Lu0 2.124717 1_556
F18 Sr0 2.531157 1_556
F19 Lu3 2.124717 1_556
F19 Sr0 2.531157 1_556
F20 Lu1 2.124717 1_556
F20 Sr0 2.531157 1_556
F21 Lu2 2.124717 1_556
F21 Sr0 2.531157 1_556
F22 Lu1 2.124717 1_556
F22 Sr1 2.531157 1_666
F23 Lu3 2.124717 1_556
F23 Sr1 2.531157 1_656
