# generated using pymatgen
data_Zr3Cd3S
_symmetry_space_group_name_H-M   'P 1'
_cell_length_a   9.32462506
_cell_length_b   9.32462457
_cell_length_c   9.32462509
_cell_angle_alpha   60.00000163
_cell_angle_beta   60.00000337
_cell_angle_gamma   60.00000051
_symmetry_Int_Tables_number   1
_chemical_formula_structural   Zr3Cd3S
_chemical_formula_sum   'Zr12 Cd12 S4'
_cell_volume   573.29629157
_cell_formula_units_Z   4
loop_
 _symmetry_equiv_pos_site_id
 _symmetry_equiv_pos_as_xyz
  1  'x, y, z'
loop_
 _atom_site_type_symbol
 _atom_site_label
 _atom_site_symmetry_multiplicity
 _atom_site_fract_x
 _atom_site_fract_y
 _atom_site_fract_z
 _atom_site_occupancy
  Zr  Zr0  1  0.80908736  0.19091264  0.19091264  1
  Zr  Zr1  1  0.19091264  0.80908736  0.19091264  1
  Zr  Zr2  1  0.80908736  0.80908736  0.19091264  1
  Zr  Zr3  1  0.19091264  0.80908736  0.80908736  1
  Zr  Zr4  1  0.80908736  0.19091264  0.80908736  1
  Zr  Zr5  1  0.19091264  0.19091264  0.80908736  1
  Zr  Zr6  1  0.44091264  0.05908736  0.05908736  1
  Zr  Zr7  1  0.05908736  0.44091264  0.05908736  1
  Zr  Zr8  1  0.44091264  0.44091264  0.05908736  1
  Zr  Zr9  1  0.05908736  0.44091264  0.44091264  1
  Zr  Zr10  1  0.44091264  0.05908736  0.44091264  1
  Zr  Zr11  1  0.05908736  0.05908736  0.44091264  1
  Cd  Cd0  1  0.41299649  0.41299649  0.76100852  1
  Cd  Cd1  1  0.41299649  0.41299649  0.41299649  1
  Cd  Cd2  1  0.76100852  0.41299649  0.41299649  1
  Cd  Cd3  1  0.41299649  0.76100852  0.41299649  1
  Cd  Cd4  1  0.83700351  0.83700351  0.48899148  1
  Cd  Cd5  1  0.83700351  0.83700351  0.83700351  1
  Cd  Cd6  1  0.48899148  0.83700351  0.83700351  1
  Cd  Cd7  1  0.83700351  0.48899148  0.83700351  1
  Cd  Cd8  1  0.62500000  0.62500000  0.12500000  1
  Cd  Cd9  1  0.62500000  0.62500000  0.62500000  1
  Cd  Cd10  1  0.12500000  0.62500000  0.62500000  1
  Cd  Cd11  1  0.62500000  0.12500000  0.62500000  1
  S  S0  1  0.12500000  0.12500000  0.62500000  1
  S  S1  1  0.12500000  0.12500000  0.12500000  1
  S  S2  1  0.62500000  0.12500000  0.12500000  1
  S  S3  1  0.12500000  0.62500000  0.12500000  1
loop_
_geom_bond_atom_site_label_1
_geom_bond_atom_site_label_2
_geom_bond_distance
_geom_bond_site_symmetry_2
Cd0 Cd11 2.884087 1_555
Cd0 Cd10 2.884087 1_555
Cd0 Cd9 2.884102 1_555
Cd0 Zr6 3.061980 1_556
Cd0 Zr7 3.061980 1_556
Cd0 Zr8 3.061991 1_556
Cd0 Cd3 3.245082 1_555
Cd0 Cd1 3.245082 1_555
Cd0 Cd2 3.245082 1_555
Cd0 Zr5 3.348050 1_555
Cd0 Zr3 3.348066 1_555
Cd0 Zr4 3.348066 1_555
Cd1 Cd11 2.884098 1_555
Cd1 Cd10 2.884098 1_555
Cd1 Cd8 2.884098 1_555
Cd1 Zr10 3.061972 1_555
Cd1 Zr9 3.061972 1_555
Cd1 Zr8 3.061973 1_555
Cd1 Cd3 3.245081 1_555
Cd1 Cd2 3.245082 1_555
Cd1 Zr1 3.348059 1_555
Cd1 Zr0 3.348059 1_555
Cd1 Zr5 3.348059 1_555
Cd2 Cd8 2.884087 1_555
Cd2 Cd9 2.884102 1_555
Cd2 Zr11 3.061980 1_655
Cd2 Zr7 3.061980 1_655
Cd2 Zr9 3.061991 1_655
Cd2 Cd3 3.245082 1_555
Cd2 Zr0 3.348050 1_555
Cd2 Zr2 3.348066 1_555
Cd2 Zr4 3.348066 1_555
Cd3 Cd8 2.884087 1_555
Cd3 Cd9 2.884102 1_555
Cd3 Zr11 3.061980 1_565
Cd3 Zr6 3.061980 1_565
Cd3 Zr10 3.061991 1_565
Cd3 Zr1 3.348050 1_555
Cd3 Zr3 3.348066 1_555
Cd3 Zr2 3.348066 1_555
Cd4 Cd9 2.884102 1_555
Cd4 Zr0 3.061980 1_565
Cd4 Zr1 3.061980 1_655
Cd4 Zr2 3.061991 1_555
Cd4 Cd7 3.245082 1_555
Cd4 Cd5 3.245082 1_555
Cd4 Cd6 3.245082 1_555
Cd4 Zr11 3.348050 1_665
Cd4 Zr9 3.348066 1_655
Cd4 Zr10 3.348066 1_565
Cd5 Cd8 2.884098 1_556
Cd5 Zr4 3.061972 1_565
Cd5 Zr3 3.061972 1_655
Cd5 Zr2 3.061973 1_556
Cd5 Cd7 3.245081 1_555
Cd5 Cd6 3.245082 1_555
Cd5 Zr7 3.348059 1_656
Cd5 Zr6 3.348059 1_566
Cd5 Zr11 3.348059 1_665
Cd6 Cd8 2.884087 1_556
Cd6 Cd9 2.884102 1_555
Cd6 Zr5 3.061980 1_565
Cd6 Zr1 3.061980 1_556
Cd6 Zr3 3.061991 1_555
Cd6 Cd7 3.245082 1_555
Cd6 Zr6 3.348050 1_566
Cd6 Zr8 3.348066 1_556
Cd6 Zr10 3.348066 1_565
Cd7 Cd8 2.884087 1_556
Cd7 Cd9 2.884102 1_555
Cd7 Zr5 3.061980 1_655
Cd7 Zr0 3.061980 1_556
Cd7 Zr4 3.061991 1_555
Cd7 Zr7 3.348050 1_656
Cd7 Zr9 3.348066 1_655
Cd7 Zr8 3.348066 1_556
Cd8 Zr6 3.365612 1_565
Cd8 Zr0 3.365612 1_555
Cd8 Zr2 3.365612 1_555
Cd8 Zr8 3.365612 1_555
Cd8 Zr7 3.365612 1_655
Cd8 Zr1 3.365612 1_555
Cd9 Zr10 3.365612 1_565
Cd9 Zr4 3.365612 1_555
Cd9 Zr9 3.365613 1_655
Cd9 Zr3 3.365613 1_555
Cd9 Zr8 3.365613 1_556
Cd9 Zr2 3.365613 1_555
Cd10 Cd4 2.884087 1_455
Cd10 Cd3 2.884087 1_555
Cd10 Cd7 2.884087 1_455
Cd10 Cd5 2.884098 1_455
Cd10 Zr11 3.365612 1_565
Cd10 Zr5 3.365612 1_555
Cd10 Zr9 3.365612 1_555
Cd10 Zr3 3.365612 1_555
Cd10 Zr7 3.365613 1_556
Cd10 Zr1 3.365613 1_555
Cd11 Cd4 2.884087 1_545
Cd11 Cd2 2.884087 1_555
Cd11 Cd6 2.884087 1_545
Cd11 Cd5 2.884098 1_545
Cd11 Zr4 3.365612 1_555
Cd11 Zr10 3.365612 1_555
Cd11 Zr11 3.365613 1_655
Cd11 Zr5 3.365613 1_555
Cd11 Zr6 3.365613 1_556
Cd11 Zr0 3.365613 1_555
S0 Zr9 2.487927 1_555
S0 Zr3 2.487927 1_545
S0 Zr5 2.487927 1_555
S0 Zr11 2.487927 1_555
S0 Zr10 2.487927 1_555
S0 Zr4 2.487927 1_455
S1 Zr7 2.487927 1_555
S1 Zr1 2.487927 1_545
S1 Zr6 2.487927 1_555
S1 Zr0 2.487927 1_455
S1 Zr11 2.487927 1_555
S1 Zr5 2.487927 1_554
S2 Zr8 2.487927 1_555
S2 Zr2 2.487927 1_545
S2 Zr0 2.487927 1_555
S2 Zr6 2.487927 1_555
S2 Zr10 2.487927 1_555
S2 Zr4 2.487927 1_554
S3 Zr1 2.487927 1_555
S3 Zr7 2.487927 1_555
S3 Zr8 2.487927 1_555
S3 Zr2 2.487927 1_455
S3 Zr3 2.487927 1_554
S3 Zr9 2.487927 1_555
