# generated using pymatgen
data_Lu6Al16IrOs6
_symmetry_space_group_name_H-M   'P 1'
_cell_length_a   8.81615651
_cell_length_b   8.81615685
_cell_length_c   8.81615649
_cell_angle_alpha   60.00000136
_cell_angle_beta   60.00000007
_cell_angle_gamma   60.00000133
_symmetry_Int_Tables_number   1
_chemical_formula_structural   Lu6Al16IrOs6
_chemical_formula_sum   'Lu6 Al16 Ir1 Os6'
_cell_volume   484.53248783
_cell_formula_units_Z   1
loop_
 _symmetry_equiv_pos_site_id
 _symmetry_equiv_pos_as_xyz
  1  'x, y, z'
loop_
 _atom_site_type_symbol
 _atom_site_label
 _atom_site_symmetry_multiplicity
 _atom_site_fract_x
 _atom_site_fract_y
 _atom_site_fract_z
 _atom_site_occupancy
  Lu  Lu0  1  0.20996749  0.79003251  0.79003251  1
  Lu  Lu1  1  0.79003251  0.20996749  0.20996749  1
  Lu  Lu2  1  0.79003251  0.20996749  0.79003251  1
  Lu  Lu3  1  0.79003251  0.79003251  0.20996749  1
  Lu  Lu4  1  0.20996749  0.79003251  0.20996749  1
  Lu  Lu5  1  0.20996749  0.20996749  0.79003251  1
  Al  Al0  1  0.83203919  0.83203919  0.83203919  1
  Al  Al1  1  0.83203919  0.83203919  0.50388543  1
  Al  Al2  1  0.50388543  0.83203919  0.83203919  1
  Al  Al3  1  0.83203919  0.50388543  0.83203919  1
  Al  Al4  1  0.16796081  0.16796081  0.16796081  1
  Al  Al5  1  0.16796081  0.16796081  0.49611457  1
  Al  Al6  1  0.16796081  0.49611457  0.16796081  1
  Al  Al7  1  0.49611457  0.16796081  0.16796081  1
  Al  Al8  1  0.62105429  0.62105429  0.62105429  1
  Al  Al9  1  0.62105429  0.62105429  0.13683513  1
  Al  Al10  1  0.13683513  0.62105429  0.62105429  1
  Al  Al11  1  0.62105429  0.13683513  0.62105429  1
  Al  Al12  1  0.37894571  0.37894571  0.37894571  1
  Al  Al13  1  0.37894571  0.37894571  0.86316487  1
  Al  Al14  1  0.37894571  0.86316487  0.37894571  1
  Al  Al15  1  0.86316487  0.37894571  0.37894571  1
  Ir  Ir0  1  0.50000000  0.50000000  0.50000000  1
  Os  Os0  1  0.00000000  0.50000000  0.50000000  1
  Os  Os1  1  0.50000000  0.00000000  0.00000000  1
  Os  Os2  1  0.50000000  0.00000000  0.50000000  1
  Os  Os3  1  0.50000000  0.50000000  0.00000000  1
  Os  Os4  1  0.00000000  0.50000000  0.00000000  1
  Os  Os5  1  0.00000000  0.00000000  0.50000000  1
loop_
_geom_bond_atom_site_label_1
_geom_bond_atom_site_label_2
_geom_bond_distance
_geom_bond_site_symmetry_2
Lu0 Os5 3.156691 1_565
Lu0 Os2 3.156691 1_565
Lu0 Os3 3.156691 1_556
Lu0 Os4 3.156691 1_556
Lu0 Lu4 3.702212 1_556
Lu0 Lu3 3.702212 1_456
Lu0 Lu5 3.702213 1_565
Lu0 Lu2 3.702213 1_465
Lu1 Os5 3.156691 1_655
Lu1 Os2 3.156691 1_555
Lu1 Os3 3.156691 1_555
Lu1 Os4 3.156691 1_655
Lu1 Lu2 3.702212 1_554
Lu1 Lu5 3.702212 1_654
Lu1 Lu3 3.702213 1_545
Lu1 Lu4 3.702213 1_645
Lu2 Os5 3.156691 1_655
Lu2 Os1 3.156691 1_556
Lu2 Os3 3.156691 1_556
Lu2 Os0 3.156691 1_655
Lu2 Lu5 3.702212 1_655
Lu2 Lu3 3.702213 1_546
Lu3 Os1 3.156691 1_565
Lu3 Os2 3.156691 1_565
Lu3 Os4 3.156691 1_655
Lu3 Os0 3.156691 1_655
Lu3 Lu4 3.702212 1_655
Lu4 Os5 3.156691 1_565
Lu4 Os1 3.156691 1_565
Lu4 Os3 3.156691 1_555
Lu4 Os0 3.156691 1_555
Lu4 Lu5 3.702213 1_564
Lu5 Os2 3.156691 1_555
Lu5 Os1 3.156691 1_556
Lu5 Os0 3.156691 1_555
Lu5 Os4 3.156691 1_556
Al0 Os5 2.545159 1_665
Al0 Os1 2.545159 1_566
Al0 Os4 2.545159 1_656
Al0 Al10 2.757496 1_655
Al0 Al9 2.757496 1_556
Al0 Al11 2.757496 1_565
Al0 Al1 2.893055 1_555
Al0 Al2 2.893055 1_555
Al0 Al3 2.893055 1_555
Al0 Lu3 3.007491 1_556
Al0 Lu0 3.007491 1_655
Al0 Lu2 3.007492 1_565
Al1 Os5 2.545144 1_665
Al1 Os2 2.545167 1_565
Al1 Os0 2.545167 1_655
Al1 Al10 2.757472 1_655
Al1 Al11 2.757472 1_565
Al1 Al8 2.757509 1_555
Al1 Al2 2.893055 1_555
Al1 Al3 2.893055 1_555
Al1 Lu4 3.007501 1_655
Al1 Lu1 3.007501 1_565
Al1 Lu3 3.007517 1_555
Al2 Os1 2.545144 1_566
Al2 Os2 2.545167 1_565
Al2 Os3 2.545167 1_556
Al2 Al9 2.757472 1_556
Al2 Al8 2.757509 1_555
Al2 Al3 2.893055 1_555
Al2 Lu4 3.007501 1_556
Al2 Lu5 3.007501 1_565
Al2 Lu0 3.007517 1_555
Al3 Os4 2.545144 1_656
Al3 Os0 2.545166 1_655
Al3 Os3 2.545166 1_556
Al3 Al9 2.757472 1_556
Al3 Al8 2.757509 1_555
Al3 Lu1 3.007501 1_556
Al3 Lu5 3.007501 1_655
Al3 Lu2 3.007518 1_555
Al4 Os5 2.545159 1_555
Al4 Os1 2.545159 1_555
Al4 Os4 2.545159 1_555
Al4 Al5 2.893055 1_555
Al4 Al7 2.893055 1_555
Al4 Al6 2.893055 1_555
Al4 Lu5 3.007491 1_554
Al4 Lu1 3.007491 1_455
Al4 Lu4 3.007492 1_545
Al5 Os5 2.545144 1_555
Al5 Os2 2.545167 1_555
Al5 Os0 2.545167 1_555
Al5 Al7 2.893055 1_555
Al5 Al6 2.893055 1_555
Al5 Lu2 3.007501 1_455
Al5 Lu0 3.007501 1_545
Al5 Lu5 3.007517 1_555
Al6 Os4 2.545144 1_555
Al6 Os0 2.545166 1_555
Al6 Os3 2.545166 1_555
Al6 Al7 2.893055 1_555
Al6 Lu0 3.007501 1_554
Al6 Lu3 3.007501 1_455
Al6 Lu4 3.007518 1_555
Al7 Os1 2.545144 1_555
Al7 Os2 2.545167 1_555
Al7 Os3 2.545167 1_555
Al7 Lu2 3.007501 1_554
Al7 Lu3 3.007501 1_545
Al7 Lu1 3.007517 1_555
Al8 Ir0 2.614178 1_555
Al8 Os3 2.728971 1_556
Al8 Os0 2.728971 1_655
Al8 Os2 2.728971 1_565
Al8 Lu3 2.999098 1_555
Al8 Lu0 2.999098 1_555
Al8 Lu2 2.999099 1_555
Al9 Ir0 2.614192 1_555
Al9 Os3 2.728956 1_555
Al9 Os4 2.728971 1_655
Al9 Os1 2.728971 1_565
Al9 Lu4 2.999096 1_555
Al9 Lu1 2.999096 1_555
Al9 Lu3 2.999111 1_555
Al10 Ir0 2.614192 1_555
Al10 Os0 2.728956 1_555
Al10 Os4 2.728971 1_556
Al10 Os5 2.728971 1_565
Al10 Al3 2.757472 1_455
Al10 Lu4 2.999096 1_555
Al10 Lu5 2.999096 1_555
Al10 Lu0 2.999111 1_555
Al10 Al12 3.018592 1_555
Al10 Al13 3.018617 1_555
Al10 Al14 3.018617 1_555
Al11 Ir0 2.614192 1_555
Al11 Os2 2.728956 1_555
Al11 Os1 2.728971 1_556
Al11 Os5 2.728971 1_655
Al11 Al2 2.757472 1_545
Al11 Lu1 2.999096 1_555
Al11 Lu5 2.999096 1_555
Al11 Lu2 2.999111 1_555
Al11 Al12 3.018592 1_555
Al11 Al13 3.018617 1_555
Al11 Al15 3.018617 1_555
Al12 Ir0 2.614178 1_555
Al12 Os3 2.728971 1_555
Al12 Os0 2.728971 1_555
Al12 Os2 2.728971 1_555
Al12 Al6 2.757509 1_555
Al12 Al7 2.757509 1_555
Al12 Al5 2.757509 1_555
Al12 Lu5 2.999098 1_555
Al12 Lu1 2.999098 1_555
Al12 Lu4 2.999099 1_555
Al12 Al9 3.018592 1_555
Al13 Ir0 2.614192 1_555
Al13 Os3 2.728956 1_556
Al13 Os4 2.728971 1_556
Al13 Os1 2.728971 1_556
Al13 Al6 2.757472 1_556
Al13 Al7 2.757472 1_556
Al13 Al4 2.757496 1_556
Al13 Lu2 2.999096 1_555
Al13 Lu0 2.999096 1_555
Al13 Lu5 2.999111 1_555
Al13 Al8 3.018592 1_555
Al14 Ir0 2.614192 1_555
Al14 Os2 2.728956 1_565
Al14 Os1 2.728971 1_565
Al14 Os5 2.728971 1_565
Al14 Al5 2.757472 1_565
Al14 Al7 2.757472 1_565
Al14 Al4 2.757496 1_565
Al14 Lu0 2.999096 1_555
Al14 Lu3 2.999096 1_555
Al14 Lu4 2.999111 1_555
Al14 Al8 3.018592 1_555
Al14 Al9 3.018617 1_555
Al15 Ir0 2.614192 1_555
Al15 Os0 2.728956 1_655
Al15 Os4 2.728971 1_655
Al15 Os5 2.728971 1_655
Al15 Al6 2.757472 1_655
Al15 Al5 2.757472 1_655
Al15 Al4 2.757496 1_655
Al15 Lu2 2.999096 1_555
Al15 Lu3 2.999096 1_555
Al15 Lu1 2.999111 1_555
Al15 Al8 3.018592 1_555
Al15 Al9 3.018617 1_555
