# generated using pymatgen
data_Ba4Ti(RuO4)3
_symmetry_space_group_name_H-M   'P 1'
_cell_length_a   10.04752529
_cell_length_b   10.04752541
_cell_length_c   10.04752469
_cell_angle_alpha   33.28538180
_cell_angle_beta   33.28538227
_cell_angle_gamma   33.28537705
_symmetry_Int_Tables_number   1
_chemical_formula_structural   Ba4Ti(RuO4)3
_chemical_formula_sum   'Ba4 Ti1 Ru3 O12'
_cell_volume   272.00071218
_cell_formula_units_Z   1
loop_
 _symmetry_equiv_pos_site_id
 _symmetry_equiv_pos_as_xyz
  1  'x, y, z'
loop_
 _atom_site_type_symbol
 _atom_site_label
 _atom_site_symmetry_multiplicity
 _atom_site_fract_x
 _atom_site_fract_y
 _atom_site_fract_z
 _atom_site_occupancy
  Ba  Ba0  1  0.71120437  0.71120437  0.71120437  1
  Ba  Ba1  1  0.28879563  0.28879563  0.28879563  1
  Ba  Ba2  1  0.87358280  0.87358280  0.87358280  1
  Ba  Ba3  1  0.12641720  0.12641720  0.12641720  1
  Ti  Ti0  1  0.00000000  0.00000000  0.00000000  1
  Ru  Ru0  1  0.41109557  0.41109557  0.41109557  1
  Ru  Ru1  1  0.50000000  0.50000000  0.50000000  1
  Ru  Ru2  1  0.58890443  0.58890443  0.58890443  1
  O  O0  1  0.20386219  0.20386219  0.71051648  1
  O  O1  1  0.71051648  0.20386219  0.20386219  1
  O  O2  1  0.20386219  0.71051648  0.20386219  1
  O  O3  1  0.79613781  0.28948352  0.79613781  1
  O  O4  1  0.79613781  0.79613781  0.28948352  1
  O  O5  1  0.28948352  0.79613781  0.79613781  1
  O  O6  1  0.38871895  0.38871895  0.85670920  1
  O  O7  1  0.85670920  0.38871895  0.38871895  1
  O  O8  1  0.14329080  0.61128105  0.61128105  1
  O  O9  1  0.61128105  0.61128105  0.14329080  1
  O  O10  1  0.61128105  0.14329080  0.61128105  1
  O  O11  1  0.38871895  0.85670920  0.38871895  1
loop_
_geom_bond_atom_site_label_1
_geom_bond_atom_site_label_2
_geom_bond_distance
_geom_bond_site_symmetry_2
Ba0 O9 2.823900 1_556
Ba0 O8 2.823900 1_655
Ba0 O10 2.823900 1_565
Ba0 O0 2.881408 1_565
Ba0 O0 2.881408 1_655
Ba0 O1 2.881409 1_565
Ba0 O2 2.881409 1_655
Ba0 O1 2.881409 1_556
Ba0 O2 2.881409 1_556
Ba0 O4 2.921875 1_555
Ba0 O5 2.921876 1_555
Ba0 O3 2.921876 1_555
Ba1 O6 2.823900 1_554
Ba1 O7 2.823900 1_455
Ba1 O11 2.823900 1_545
Ba1 O4 2.881408 1_545
Ba1 O4 2.881408 1_455
Ba1 O5 2.881409 1_545
Ba1 O3 2.881409 1_455
Ba1 O5 2.881409 1_554
Ba1 O3 2.881409 1_554
Ba1 O0 2.921875 1_555
Ba1 O1 2.921876 1_555
Ba1 O2 2.921876 1_555
Ba2 O6 2.882401 1_655
Ba2 O6 2.882401 1_565
Ba2 O7 2.882401 1_556
Ba2 O7 2.882401 1_565
Ba2 O11 2.882401 1_556
Ba2 O11 2.882401 1_655
Ba2 O4 2.968612 1_556
Ba2 O5 2.968613 1_655
Ba2 O3 2.968613 1_565
Ba2 O10 2.994447 1_565
Ba2 O8 2.994447 1_655
Ba2 O9 2.994447 1_556
Ba3 O9 2.882401 1_455
Ba3 O9 2.882401 1_545
Ba3 O8 2.882401 1_554
Ba3 O8 2.882401 1_545
Ba3 O10 2.882401 1_554
Ba3 O10 2.882401 1_455
Ba3 O0 2.968612 1_554
Ba3 O1 2.968613 1_455
Ba3 O2 2.968613 1_545
Ba3 O11 2.994447 1_545
Ba3 O7 2.994447 1_455
Ba3 O6 2.994447 1_554
O0 Ti0 1.986033 1_556
O0 Ru0 2.006054 1_555
O1 Ti0 1.986032 1_655
O1 Ru0 2.006053 1_555
O2 Ti0 1.986032 1_565
O2 Ru0 2.006053 1_555
O3 Ti0 1.986032 1_656
O3 Ru2 2.006053 1_555
O4 Ti0 1.986033 1_665
O4 Ru2 2.006054 1_555
O5 Ti0 1.986032 1_566
O5 Ru2 2.006053 1_555
O6 Ru2 1.999561 1_555
O6 Ru1 2.009018 1_555
O7 Ru2 1.999560 1_555
O7 Ru1 2.009018 1_555
O8 Ru0 1.999560 1_555
O8 Ru1 2.009018 1_555
O9 Ru0 1.999561 1_555
O9 Ru1 2.009018 1_555
O10 Ru0 1.999560 1_555
O10 Ru1 2.009018 1_555
O11 Ru2 1.999560 1_555
O11 Ru1 2.009018 1_555
