# generated using pymatgen
data_Hf16Ta3Ni4Rh
_symmetry_space_group_name_H-M   'P 1'
_cell_length_a   8.66050263
_cell_length_b   8.66050220
_cell_length_c   8.66050313
_cell_angle_alpha   60.50461979
_cell_angle_beta   60.50462000
_cell_angle_gamma   60.50462453
_symmetry_Int_Tables_number   1
_chemical_formula_structural   Hf16Ta3Ni4Rh
_chemical_formula_sum   'Hf16 Ta3 Ni4 Rh1'
_cell_volume   464.55697596
_cell_formula_units_Z   1
loop_
 _symmetry_equiv_pos_site_id
 _symmetry_equiv_pos_as_xyz
  1  'x, y, z'
loop_
 _atom_site_type_symbol
 _atom_site_label
 _atom_site_symmetry_multiplicity
 _atom_site_fract_x
 _atom_site_fract_y
 _atom_site_fract_z
 _atom_site_occupancy
  Hf  Hf0  1  0.69726344  0.10085479  0.10085479  1
  Hf  Hf1  1  0.10085479  0.69726344  0.10085479  1
  Hf  Hf2  1  0.10085479  0.10085479  0.69726344  1
  Hf  Hf3  1  0.10240338  0.10240338  0.10240338  1
  Hf  Hf4  1  0.31443061  0.31443061  0.68379293  1
  Hf  Hf5  1  0.68538166  0.68538166  0.31474913  1
  Hf  Hf6  1  0.31443061  0.68379293  0.31443061  1
  Hf  Hf7  1  0.68538166  0.31474913  0.68538166  1
  Hf  Hf8  1  0.68379293  0.31443061  0.31443061  1
  Hf  Hf9  1  0.31474913  0.68538166  0.68538166  1
  Hf  Hf10  1  0.95196100  0.95196100  0.54747280  1
  Hf  Hf11  1  0.55194420  0.55194420  0.94723690  1
  Hf  Hf12  1  0.95196100  0.54747280  0.95196100  1
  Hf  Hf13  1  0.55194420  0.94723690  0.55194420  1
  Hf  Hf14  1  0.54747280  0.95196100  0.95196100  1
  Hf  Hf15  1  0.94723690  0.55194420  0.55194420  1
  Ta  Ta0  1  0.00040096  0.33296620  0.33296620  1
  Ta  Ta1  1  0.33296620  0.00040096  0.33296620  1
  Ta  Ta2  1  0.33296620  0.33296620  0.00040096  1
  Ni  Ni0  1  0.32537888  0.88972212  0.88972212  1
  Ni  Ni1  1  0.88972212  0.32537888  0.88972212  1
  Ni  Ni2  1  0.88972212  0.88972212  0.32537888  1
  Ni  Ni3  1  0.89181886  0.89181886  0.89181886  1
  Rh  Rh0  1  0.33496155  0.33496155  0.33496155  1
loop_
_geom_bond_atom_site_label_1
_geom_bond_atom_site_label_2
_geom_bond_distance
_geom_bond_site_symmetry_2
Hf0 Ni1 2.567469 1_554
Hf0 Ni2 2.567469 1_545
Hf0 Ni3 2.571708 1_544
Hf0 Ta1 3.080148 1_555
Hf0 Ta2 3.080149 1_555
Hf0 Rh0 3.096079 1_555
Hf0 Hf8 3.130527 1_555
Hf0 Hf5 3.162686 1_545
Hf0 Hf7 3.162686 1_554
Hf1 Ni0 2.567469 1_554
Hf1 Ni2 2.567469 1_455
Hf1 Ni3 2.571709 1_454
Hf1 Ta0 3.080148 1_555
Hf1 Ta2 3.080149 1_555
Hf1 Rh0 3.096079 1_555
Hf1 Hf6 3.130527 1_555
Hf1 Hf5 3.162686 1_455
Hf1 Hf9 3.162686 1_554
Hf2 Ni1 2.567469 1_455
Hf2 Ni0 2.567469 1_545
Hf2 Ni3 2.571708 1_445
Hf2 Ta1 3.080149 1_555
Hf2 Ta0 3.080149 1_555
Hf2 Rh0 3.096079 1_555
Hf2 Hf4 3.130527 1_555
Hf2 Hf9 3.162686 1_545
Hf2 Hf7 3.162686 1_455
Hf3 Ni2 2.617297 1_445
Hf3 Ni0 2.617297 1_544
Hf3 Ni1 2.617297 1_454
Hf3 Ta2 3.034299 1_555
Hf3 Ta0 3.034299 1_555
Hf3 Ta1 3.034299 1_555
Hf3 Hf4 3.177531 1_554
Hf3 Hf6 3.177531 1_545
Hf3 Hf8 3.177531 1_455
Hf4 Rh0 2.857137 1_555
Hf4 Ta2 2.908996 1_556
Hf4 Ni0 3.175265 1_545
Hf4 Ni1 3.175265 1_455
Hf4 Hf9 3.220781 1_555
Hf4 Hf7 3.220781 1_555
Hf4 Hf6 3.223231 1_555
Hf4 Hf8 3.223231 1_555
Hf5 Ta0 2.921235 1_655
Hf5 Ta1 2.921235 1_565
Hf5 Ni2 3.110763 1_555
Hf5 Ni3 3.171691 1_554
Hf5 Hf8 3.220781 1_555
Hf5 Hf6 3.220781 1_555
Hf5 Hf7 3.234316 1_555
Hf5 Hf9 3.234316 1_555
Hf6 Rh0 2.857137 1_555
Hf6 Ta1 2.908996 1_565
Hf6 Ni2 3.175265 1_455
Hf6 Ni0 3.175265 1_554
Hf6 Hf9 3.220781 1_555
Hf6 Hf8 3.223231 1_555
Hf7 Ta2 2.921235 1_556
Hf7 Ta0 2.921235 1_655
Hf7 Ni1 3.110763 1_555
Hf7 Ni3 3.171691 1_545
Hf7 Hf8 3.220781 1_555
Hf7 Hf9 3.234316 1_555
Hf8 Rh0 2.857137 1_555
Hf8 Ta0 2.908996 1_655
Hf8 Ni2 3.175265 1_545
Hf8 Ni1 3.175265 1_554
Hf9 Ta2 2.921235 1_556
Hf9 Ta1 2.921235 1_565
Hf9 Ni0 3.110763 1_555
Hf9 Ni3 3.171691 1_455
Hf10 Ni2 2.570732 1_555
Hf10 Ni3 2.577633 1_555
Hf10 Ta0 3.012412 1_665
Hf10 Ta1 3.012412 1_665
Hf10 Hf3 3.167576 1_665
Hf10 Hf7 3.235031 1_565
Hf10 Hf9 3.235031 1_655
Hf10 Hf6 3.243363 1_655
Hf10 Hf8 3.243363 1_565
Hf11 Ni0 2.555608 1_555
Hf11 Ni1 2.555608 1_555
Hf11 Ta2 3.037599 1_556
Hf11 Rh0 3.064019 1_556
Hf11 Hf7 3.219827 1_555
Hf11 Hf9 3.219827 1_555
Hf11 Hf6 3.235657 1_556
Hf11 Hf8 3.235657 1_556
Hf12 Ni1 2.570732 1_555
Hf12 Ni3 2.577633 1_555
Hf12 Ta2 3.012412 1_656
Hf12 Ta0 3.012412 1_656
Hf12 Hf3 3.167575 1_656
Hf12 Hf9 3.235031 1_655
Hf12 Hf5 3.235031 1_556
Hf12 Hf8 3.243362 1_556
Hf12 Hf4 3.243363 1_655
Hf13 Ni2 2.555608 1_555
Hf13 Ni0 2.555608 1_555
Hf13 Ta1 3.037600 1_565
Hf13 Rh0 3.064019 1_565
Hf13 Hf9 3.219827 1_555
Hf13 Hf5 3.219827 1_555
Hf13 Hf8 3.235656 1_565
Hf13 Hf4 3.235657 1_565
Hf14 Ni0 2.570732 1_555
Hf14 Ni3 2.577633 1_555
Hf14 Ta2 3.012412 1_566
Hf14 Ta1 3.012412 1_566
Hf14 Hf3 3.167576 1_566
Hf14 Hf7 3.235031 1_565
Hf14 Hf5 3.235031 1_556
Hf14 Hf6 3.243362 1_556
Hf14 Hf4 3.243363 1_565
Hf15 Ni2 2.555608 1_555
Hf15 Ni1 2.555608 1_555
Hf15 Ta0 3.037600 1_655
Hf15 Rh0 3.064019 1_655
Hf15 Hf7 3.219827 1_555
Hf15 Hf5 3.219827 1_555
Hf15 Hf6 3.235656 1_655
Hf15 Hf4 3.235657 1_655
Ta0 Ta2 2.902122 1_555
Ta0 Ta1 2.902122 1_555
Ta1 Ta2 2.902122 1_555
Rh0 Ta1 2.914582 1_555
Rh0 Ta0 2.914583 1_555
Rh0 Ta2 2.914583 1_555
