# generated using pymatgen
data_SbI3Br8
_symmetry_space_group_name_H-M   'P 1'
_cell_length_a   7.40263293
_cell_length_b   7.71988546
_cell_length_c   8.36630365
_cell_angle_alpha   93.27941187
_cell_angle_beta   94.22414327
_cell_angle_gamma   101.02754002
_symmetry_Int_Tables_number   1
_chemical_formula_structural   SbI3Br8
_chemical_formula_sum   'Sb1 I3 Br8'
_cell_volume   466.76717554
_cell_formula_units_Z   1
loop_
 _symmetry_equiv_pos_site_id
 _symmetry_equiv_pos_as_xyz
  1  'x, y, z'
loop_
 _atom_site_type_symbol
 _atom_site_label
 _atom_site_symmetry_multiplicity
 _atom_site_fract_x
 _atom_site_fract_y
 _atom_site_fract_z
 _atom_site_occupancy
  Sb  Sb0  1  0.00000000  0.50000000  0.50000000  1
  I  I0  1  0.00000000  0.00000000  0.00000000  1
  I  I1  1  0.66796205  0.76441388  0.84545868  1
  I  I2  1  0.33203795  0.23558612  0.15454132  1
  Br  Br0  1  0.69920687  0.29291076  0.55731581  1
  Br  Br1  1  0.30079313  0.70708924  0.44268419  1
  Br  Br2  1  0.49655878  0.75178731  0.09876842  1
  Br  Br3  1  0.50344122  0.24821269  0.90123158  1
  Br  Br4  1  0.84313000  0.77911805  0.53607553  1
  Br  Br5  1  0.15687000  0.22088195  0.46392447  1
  Br  Br6  1  0.88831932  0.46944523  0.20337448  1
  Br  Br7  1  0.11168068  0.53055477  0.79662552  1
loop_
_geom_bond_atom_site_label_1
_geom_bond_atom_site_label_2
_geom_bond_distance
_geom_bond_site_symmetry_2
I0 I2 2.928060 1_555
I0 I1 2.928060 1_444
Br0 Sb0 2.574294 1_655
Br1 Sb0 2.574294 1_555
Br2 I1 2.546211 1_554
Br3 I2 2.546211 1_556
Br4 Sb0 2.648974 1_655
Br4 I1 2.977560 1_555
Br5 Sb0 2.648974 1_555
Br5 I2 2.977560 1_555
Br6 Sb0 2.540460 1_655
Br7 Sb0 2.540460 1_555
