# generated using pymatgen
data_Cu3P
_symmetry_space_group_name_H-M   'P 1'
_cell_length_a   6.95793075
_cell_length_b   6.95793075
_cell_length_c   7.14840700
_cell_angle_alpha   90.00000000
_cell_angle_beta   90.00000000
_cell_angle_gamma   120.00000710
_symmetry_Int_Tables_number   1
_chemical_formula_structural   Cu3P
_chemical_formula_sum   'Cu18 P6'
_cell_volume   299.70920089
_cell_formula_units_Z   6
loop_
 _symmetry_equiv_pos_site_id
 _symmetry_equiv_pos_as_xyz
  1  'x, y, z'
loop_
 _atom_site_type_symbol
 _atom_site_label
 _atom_site_symmetry_multiplicity
 _atom_site_fract_x
 _atom_site_fract_y
 _atom_site_fract_z
 _atom_site_occupancy
  Cu  Cu0  1  0.68277600  0.06778400  0.07922800  1
  Cu  Cu1  1  0.93221600  0.61499200  0.07922800  1
  Cu  Cu2  1  0.38500800  0.31722400  0.07922800  1
  Cu  Cu3  1  0.61499200  0.93221600  0.42077200  1
  Cu  Cu4  1  0.31722400  0.38500800  0.42077200  1
  Cu  Cu5  1  0.06778400  0.68277600  0.42077200  1
  Cu  Cu6  1  0.31722400  0.93221600  0.92077200  1
  Cu  Cu7  1  0.06778400  0.38500800  0.92077200  1
  Cu  Cu8  1  0.61499200  0.68277600  0.92077200  1
  Cu  Cu9  1  0.38500800  0.06778400  0.57922800  1
  Cu  Cu10  1  0.68277600  0.61499200  0.57922800  1
  Cu  Cu11  1  0.93221600  0.31722400  0.57922800  1
  Cu  Cu12  1  0.33333300  0.66666700  0.67332600  1
  Cu  Cu13  1  0.66666700  0.33333300  0.82667400  1
  Cu  Cu14  1  0.66666700  0.33333300  0.32667400  1
  Cu  Cu15  1  0.33333300  0.66666700  0.17332600  1
  Cu  Cu16  1  0.00000000  0.00000000  0.50000000  1
  Cu  Cu17  1  0.00000000  0.00000000  0.00000000  1
  P  P0  1  0.31965500  0.31965500  0.75000000  1
  P  P1  1  0.00000000  0.68034500  0.75000000  1
  P  P2  1  0.68034500  0.00000000  0.75000000  1
  P  P3  1  0.68034500  0.68034500  0.25000000  1
  P  P4  1  0.00000000  0.31965500  0.25000000  1
  P  P5  1  0.31965500  0.00000000  0.25000000  1
loop_
_geom_bond_atom_site_label_1
_geom_bond_atom_site_label_2
_geom_bond_distance
_geom_bond_site_symmetry_2
Cu0 P4 2.359058 1_655
Cu0 P2 2.398646 1_554
Cu0 Cu6 2.498581 1_544
Cu0 Cu17 2.540873 1_655
Cu0 Cu3 2.574534 1_545
Cu0 Cu14 2.600454 1_555
Cu0 Cu13 2.625428 1_554
Cu0 P5 2.627661 1_555
Cu0 Cu15 2.714338 1_545
Cu0 Cu7 2.723657 1_654
Cu0 Cu8 2.723657 1_544
Cu0 P3 2.951628 1_545
Cu1 P3 2.359058 1_555
Cu1 P1 2.398646 1_654
Cu1 Cu7 2.498581 1_654
Cu1 Cu17 2.540873 1_665
Cu1 Cu5 2.574534 1_655
Cu1 Cu14 2.600457 1_555
Cu1 Cu13 2.625430 1_554
Cu1 P4 2.627661 1_655
Cu1 Cu15 2.714336 1_655
Cu1 Cu6 2.723657 1_654
Cu1 Cu8 2.723657 1_554
Cu1 P5 2.951628 1_665
Cu2 P5 2.359058 1_555
Cu2 P0 2.398646 1_554
Cu2 Cu8 2.498581 1_554
Cu2 Cu4 2.574534 1_555
Cu2 P3 2.627661 1_555
Cu2 Cu6 2.723657 1_544
Cu2 Cu7 2.723657 1_554
Cu2 P4 2.951628 1_555
Cu3 P3 2.359058 1_555
Cu3 P2 2.398646 1_565
Cu3 Cu9 2.498581 1_565
Cu3 P5 2.627661 1_565
Cu3 P4 2.951628 1_665
Cu4 P4 2.359058 1_555
Cu4 P0 2.398646 1_555
Cu4 P3 2.627661 1_555
Cu4 Cu9 2.723657 1_555
Cu4 P5 2.951628 1_555
Cu5 P5 2.359058 1_565
Cu5 P1 2.398646 1_555
Cu5 P4 2.627661 1_555
Cu5 Cu9 2.723657 1_565
Cu5 P3 2.951628 1_455
Cu6 P1 2.359058 1_555
Cu6 P5 2.398646 1_566
Cu6 Cu9 2.574534 1_565
Cu6 P2 2.627661 1_565
Cu6 P0 2.951628 1_565
Cu7 P0 2.359058 1_555
Cu7 P4 2.398646 1_556
Cu7 P1 2.627661 1_555
Cu7 P2 2.951628 1_455
Cu8 P2 2.359058 1_565
Cu8 P3 2.398646 1_556
Cu8 P0 2.627661 1_555
Cu8 P1 2.951628 1_655
Cu9 P0 2.359058 1_555
Cu9 P5 2.398646 1_555
Cu9 P2 2.627661 1_555
Cu9 P1 2.951628 1_545
Cu10 P1 2.359058 1_655
Cu10 P3 2.398646 1_555
Cu10 Cu4 2.498581 1_555
Cu10 Cu16 2.540873 1_665
Cu10 Cu8 2.574534 1_555
Cu10 Cu13 2.600459 1_555
Cu10 Cu14 2.625433 1_555
Cu10 P0 2.627661 1_555
Cu10 Cu12 2.714343 1_555
Cu10 Cu5 2.723657 1_655
Cu10 Cu3 2.723657 1_555
Cu10 P2 2.951628 1_565
Cu11 P2 2.359058 1_555
Cu11 P4 2.398646 1_655
Cu11 Cu5 2.498581 1_655
Cu11 Cu16 2.540873 1_655
Cu11 Cu7 2.574534 1_655
Cu11 Cu13 2.600454 1_555
Cu11 Cu14 2.625428 1_555
Cu11 P1 2.627661 1_655
Cu11 Cu12 2.714338 1_655
Cu11 Cu3 2.723657 1_545
Cu11 Cu4 2.723657 1_655
Cu11 P0 2.951628 1_655
Cu12 P1 2.430923 1_555
Cu12 P2 2.430926 1_565
Cu12 P0 2.430930 1_555
Cu12 Cu6 2.600454 1_555
Cu12 Cu7 2.600457 1_555
Cu12 Cu8 2.600459 1_555
Cu12 Cu5 2.625428 1_555
Cu12 Cu3 2.625430 1_555
Cu12 Cu4 2.625433 1_555
Cu12 Cu9 2.714336 1_565
Cu13 P2 2.430923 1_555
Cu13 P1 2.430926 1_655
Cu13 P0 2.430930 1_555
Cu13 Cu9 2.600457 1_555
Cu13 Cu2 2.625433 1_556
Cu13 Cu7 2.714336 1_655
Cu13 Cu6 2.714338 1_545
Cu13 Cu8 2.714343 1_555
Cu14 P4 2.430923 1_655
Cu14 P5 2.430926 1_555
Cu14 P3 2.430930 1_555
Cu14 Cu2 2.600459 1_555
Cu14 Cu9 2.625430 1_555
Cu14 Cu3 2.714336 1_545
Cu14 Cu5 2.714338 1_655
Cu14 Cu4 2.714343 1_555
Cu15 P5 2.430923 1_565
Cu15 P4 2.430926 1_555
Cu15 P3 2.430930 1_555
Cu15 Cu5 2.600454 1_555
Cu15 Cu3 2.600457 1_555
Cu15 Cu4 2.600459 1_555
Cu15 Cu6 2.625428 1_554
Cu15 Cu7 2.625430 1_554
Cu15 Cu8 2.625433 1_554
Cu15 Cu2 2.714343 1_555
Cu16 Cu4 2.540873 1_555
Cu16 Cu9 2.540873 1_555
Cu16 Cu3 2.540873 1_445
Cu16 Cu5 2.540873 1_545
Cu16 P0 2.853159 1_555
Cu16 P3 2.853159 1_445
Cu16 P4 2.853160 1_555
Cu16 P5 2.853160 1_555
Cu16 P1 2.853160 1_545
Cu16 P2 2.853160 1_455
Cu17 Cu2 2.540873 1_555
Cu17 Cu8 2.540873 1_444
Cu17 Cu7 2.540873 1_554
Cu17 Cu6 2.540873 1_544
Cu17 P0 2.853159 1_554
Cu17 P3 2.853159 1_445
Cu17 P4 2.853160 1_555
Cu17 P5 2.853160 1_555
Cu17 P1 2.853160 1_544
Cu17 P2 2.853160 1_454
