# generated using pymatgen
data_Na2Tc(OF2)2
_symmetry_space_group_name_H-M   'P 1'
_cell_length_a   5.06815410
_cell_length_b   5.45706031
_cell_length_c   17.71146698
_cell_angle_alpha   90.00000000
_cell_angle_beta   90.00000000
_cell_angle_gamma   90.00000000
_symmetry_Int_Tables_number   1
_chemical_formula_structural   Na2Tc(OF2)2
_chemical_formula_sum   'Na8 Tc4 O8 F16'
_cell_volume   489.84998523
_cell_formula_units_Z   4
loop_
 _symmetry_equiv_pos_site_id
 _symmetry_equiv_pos_as_xyz
  1  'x, y, z'
loop_
 _atom_site_type_symbol
 _atom_site_label
 _atom_site_symmetry_multiplicity
 _atom_site_fract_x
 _atom_site_fract_y
 _atom_site_fract_z
 _atom_site_occupancy
  Na  Na0  1  0.00000000  0.75000000  0.77583676  1
  Na  Na1  1  0.50000000  0.25000000  0.72416324  1
  Na  Na2  1  0.00000000  0.25000000  0.22416324  1
  Na  Na3  1  0.50000000  0.75000000  0.27583676  1
  Na  Na4  1  0.00000000  0.75000000  0.44569670  1
  Na  Na5  1  0.50000000  0.25000000  0.05430330  1
  Na  Na6  1  0.00000000  0.25000000  0.55430330  1
  Na  Na7  1  0.50000000  0.75000000  0.94569670  1
  Tc  Tc0  1  0.00000000  0.75000000  0.10783589  1
  Tc  Tc1  1  0.50000000  0.25000000  0.39216411  1
  Tc  Tc2  1  0.00000000  0.25000000  0.89216411  1
  Tc  Tc3  1  0.50000000  0.75000000  0.60783589  1
  O  O0  1  0.76651580  0.88452049  0.05255314  1
  O  O1  1  0.26651580  0.11547951  0.44744686  1
  O  O2  1  0.73348420  0.38452049  0.44744686  1
  O  O3  1  0.23348420  0.61547951  0.05255314  1
  O  O4  1  0.23348420  0.11547951  0.94744686  1
  O  O5  1  0.73348420  0.88452049  0.55255314  1
  O  O6  1  0.26651580  0.61547951  0.55255314  1
  O  O7  1  0.76651580  0.38452049  0.94744686  1
  F  F0  1  0.70376015  0.94972489  0.38073765  1
  F  F1  1  0.20376015  0.05027511  0.11926235  1
  F  F2  1  0.79623985  0.44972489  0.11926235  1
  F  F3  1  0.29623985  0.55027511  0.38073765  1
  F  F4  1  0.29623985  0.05027511  0.61926235  1
  F  F5  1  0.79623985  0.94972489  0.88073765  1
  F  F6  1  0.20376015  0.55027511  0.88073765  1
  F  F7  1  0.70376015  0.44972489  0.61926235  1
  F  F8  1  0.80307918  0.88798053  0.19731148  1
  F  F9  1  0.30307918  0.11201947  0.30268852  1
  F  F10  1  0.69692082  0.38798053  0.30268852  1
  F  F11  1  0.19692082  0.61201947  0.19731148  1
  F  F12  1  0.19692082  0.11201947  0.80268852  1
  F  F13  1  0.69692082  0.88798053  0.69731148  1
  F  F14  1  0.30307918  0.61201947  0.69731148  1
  F  F15  1  0.80307918  0.38798053  0.80268852  1
loop_
_geom_bond_atom_site_label_1
_geom_bond_atom_site_label_2
_geom_bond_distance
_geom_bond_site_symmetry_2
Na4 O1 2.408998 1_565
Na4 O2 2.408998 1_455
Na4 O6 2.438291 1_555
Na4 O5 2.438291 1_455
Na5 O3 2.408998 1_555
Na5 O0 2.408998 1_545
Na5 O7 2.438291 1_554
Na5 O4 2.438291 1_554
Na6 O6 2.408998 1_555
Na6 O5 2.408998 1_445
Na6 O1 2.438291 1_555
Na6 O2 2.438291 1_455
Na7 O4 2.408998 1_565
Na7 O7 2.408998 1_555
Na7 O0 2.438291 1_556
Na7 O3 2.438291 1_556
O0 Tc0 1.702314 1_655
O1 Tc1 1.702314 1_555
O2 Tc1 1.702314 1_555
O3 Tc0 1.702314 1_555
O4 Tc2 1.702314 1_555
O5 Tc3 1.702314 1_555
O6 Tc3 1.702314 1_555
O7 Tc2 1.702314 1_655
F0 Tc1 1.947428 1_565
F0 Na4 2.183065 1_655
F0 Na3 2.388791 1_555
F1 Tc0 1.947428 1_545
F1 Na5 2.183065 1_555
F1 Na2 2.388791 1_555
F2 Tc0 1.947428 1_655
F2 Na5 2.183065 1_555
F2 Na2 2.388791 1_655
F3 Tc1 1.947428 1_555
F3 Na4 2.183065 1_555
F3 Na3 2.388791 1_555
F4 Tc3 1.947428 1_545
F4 Na6 2.183065 1_555
F4 Na1 2.388791 1_555
F5 Tc2 1.947428 1_665
F5 Na7 2.183065 1_555
F5 Na0 2.388791 1_655
F6 Tc2 1.947428 1_555
F6 Na7 2.183065 1_555
F6 Na0 2.388791 1_555
F7 Tc3 1.947428 1_555
F7 Na6 2.183065 1_655
F7 Na1 2.388791 1_555
F8 Tc0 2.018521 1_655
F8 Na3 2.204708 1_555
F8 Na2 2.263864 1_665
F9 Tc1 2.018521 1_555
F9 Na2 2.204708 1_555
F9 Na3 2.263864 1_545
F10 Tc1 2.018521 1_555
F10 Na2 2.204708 1_655
F10 Na3 2.263864 1_555
F11 Tc0 2.018521 1_555
F11 Na3 2.204708 1_555
F11 Na2 2.263864 1_555
F12 Tc2 2.018521 1_555
F12 Na1 2.204708 1_555
F12 Na0 2.263864 1_545
F13 Tc3 2.018521 1_555
F13 Na0 2.204708 1_655
F13 Na1 2.263864 1_565
F14 Tc3 2.018521 1_555
F14 Na0 2.204708 1_555
F14 Na1 2.263864 1_555
F15 Tc2 2.018521 1_655
F15 Na1 2.204708 1_555
F15 Na0 2.263864 1_655
