# generated using pymatgen
data_YHf2Fe9
_symmetry_space_group_name_H-M   'P 1'
_cell_length_a   5.00283987
_cell_length_b   5.00284018
_cell_length_c   15.95511601
_cell_angle_alpha   90.00000000
_cell_angle_beta   90.00000000
_cell_angle_gamma   120.00001134
_symmetry_Int_Tables_number   1
_chemical_formula_structural   YHf2Fe9
_chemical_formula_sum   'Y2 Hf4 Fe18'
_cell_volume   345.83088849
_cell_formula_units_Z   2
loop_
 _symmetry_equiv_pos_site_id
 _symmetry_equiv_pos_as_xyz
  1  'x, y, z'
loop_
 _atom_site_type_symbol
 _atom_site_label
 _atom_site_symmetry_multiplicity
 _atom_site_fract_x
 _atom_site_fract_y
 _atom_site_fract_z
 _atom_site_occupancy
  Y  Y0  1  0.33333300  0.66666700  0.75000000  1
  Y  Y1  1  0.66666700  0.33333300  0.25000000  1
  Hf  Hf0  1  0.33333300  0.66666700  0.96460621  1
  Hf  Hf1  1  0.66666700  0.33333300  0.03539379  1
  Hf  Hf2  1  0.66666700  0.33333300  0.46460621  1
  Hf  Hf3  1  0.33333300  0.66666700  0.53539379  1
  Fe  Fe0  1  0.16775201  0.83224799  0.37700301  1
  Fe  Fe1  1  0.16775201  0.33550402  0.37700301  1
  Fe  Fe2  1  0.66449598  0.83224799  0.37700301  1
  Fe  Fe3  1  0.83224799  0.16775201  0.62299699  1
  Fe  Fe4  1  0.83224799  0.66449598  0.62299699  1
  Fe  Fe5  1  0.33550402  0.16775201  0.62299699  1
  Fe  Fe6  1  0.83224799  0.16775201  0.87700301  1
  Fe  Fe7  1  0.83224799  0.66449598  0.87700301  1
  Fe  Fe8  1  0.33550402  0.16775201  0.87700301  1
  Fe  Fe9  1  0.16775201  0.83224799  0.12299699  1
  Fe  Fe10  1  0.16775201  0.33550402  0.12299699  1
  Fe  Fe11  1  0.66449598  0.83224799  0.12299699  1
  Fe  Fe12  1  0.33333300  0.66666700  0.25000000  1
  Fe  Fe13  1  0.66666700  0.33333300  0.75000000  1
  Fe  Fe14  1  0.00000000  0.00000000  0.25000000  1
  Fe  Fe15  1  0.00000000  0.00000000  0.75000000  1
  Fe  Fe16  1  0.00000000  0.00000000  0.50000000  1
  Fe  Fe17  1  0.00000000  0.00000000  0.00000000  1
loop_
_geom_bond_atom_site_label_1
_geom_bond_atom_site_label_2
_geom_bond_distance
_geom_bond_site_symmetry_2
Fe0 Fe16 2.442149 1_565
Fe0 Fe12 2.482882 1_555
Fe0 Fe2 2.485131 1_555
Fe0 Fe1 2.485131 1_555
Fe0 Fe14 2.493800 1_565
Fe0 Fe2 2.517709 1_455
Fe0 Fe1 2.517709 1_565
Fe0 Hf2 2.865451 1_455
Fe0 Hf2 2.865451 1_565
Fe0 Hf3 2.906040 1_555
Fe0 Y1 3.219204 1_455
Fe0 Y1 3.219204 1_565
Fe1 Fe16 2.442149 1_555
Fe1 Fe12 2.482884 1_555
Fe1 Fe2 2.485130 1_555
Fe1 Fe14 2.493800 1_555
Fe1 Fe2 2.517709 1_445
Fe1 Hf2 2.865449 1_455
Fe1 Hf2 2.865453 1_555
Fe1 Hf3 2.906042 1_555
Fe1 Y1 3.219202 1_455
Fe1 Y1 3.219206 1_555
Fe2 Hf2 2.865449 1_565
Fe2 Hf2 2.865453 1_555
Fe2 Hf3 2.906042 1_555
Fe2 Y1 3.219202 1_565
Fe2 Y1 3.219206 1_555
Fe3 Fe5 2.485131 1_555
Fe3 Fe4 2.485131 1_555
Fe3 Fe5 2.517709 1_655
Fe3 Fe4 2.517709 1_545
Fe3 Hf3 2.865451 1_655
Fe3 Hf3 2.865451 1_545
Fe3 Hf2 2.906040 1_555
Fe3 Y0 3.219204 1_655
Fe3 Y0 3.219204 1_545
Fe4 Fe5 2.485130 1_555
Fe4 Fe5 2.517709 1_665
Fe4 Hf3 2.865449 1_655
Fe4 Hf3 2.865453 1_555
Fe4 Hf2 2.906042 1_555
Fe4 Y0 3.219202 1_655
Fe4 Y0 3.219206 1_555
Fe5 Hf3 2.865449 1_545
Fe5 Hf3 2.865453 1_555
Fe5 Hf2 2.906042 1_555
Fe5 Y0 3.219202 1_545
Fe5 Y0 3.219206 1_555
Fe6 Fe8 2.485131 1_555
Fe6 Fe7 2.485131 1_555
Fe6 Fe8 2.517709 1_655
Fe6 Fe7 2.517709 1_545
Fe6 Hf0 2.865451 1_655
Fe6 Hf0 2.865451 1_545
Fe6 Hf1 2.906040 1_556
Fe6 Y0 3.219204 1_655
Fe6 Y0 3.219204 1_545
Fe7 Fe8 2.485130 1_555
Fe7 Fe8 2.517709 1_665
Fe7 Hf0 2.865449 1_655
Fe7 Hf0 2.865453 1_555
Fe7 Hf1 2.906042 1_556
Fe7 Y0 3.219202 1_655
Fe7 Y0 3.219206 1_555
Fe8 Hf0 2.865449 1_545
Fe8 Hf0 2.865453 1_555
Fe8 Hf1 2.906042 1_556
Fe8 Y0 3.219202 1_545
Fe8 Y0 3.219206 1_555
Fe9 Hf1 2.865451 1_455
Fe9 Hf1 2.865451 1_565
Fe9 Hf0 2.906040 1_554
Fe9 Y1 3.219204 1_455
Fe9 Y1 3.219204 1_565
Fe10 Fe17 2.442149 1_555
Fe10 Fe12 2.482884 1_555
Fe10 Fe11 2.485130 1_555
Fe10 Fe9 2.485131 1_555
Fe10 Fe14 2.493800 1_555
Fe10 Fe11 2.517709 1_445
Fe10 Fe9 2.517709 1_545
Fe10 Hf1 2.865449 1_455
Fe10 Hf1 2.865453 1_555
Fe10 Hf0 2.906042 1_554
Fe10 Y1 3.219202 1_455
Fe10 Y1 3.219206 1_555
Fe11 Fe17 2.442149 1_665
Fe11 Fe12 2.482884 1_555
Fe11 Fe9 2.485131 1_555
Fe11 Fe14 2.493800 1_665
Fe11 Fe9 2.517709 1_655
Fe11 Hf1 2.865449 1_565
Fe11 Hf1 2.865453 1_555
Fe11 Hf0 2.906042 1_554
Fe11 Y1 3.219202 1_565
Fe11 Y1 3.219206 1_555
Fe12 Fe9 2.482882 1_555
Fe12 Fe2 2.482884 1_555
Fe12 Y1 2.888388 1_455
Fe12 Y1 2.888388 1_565
Fe12 Y1 2.888397 1_555
Fe13 Fe6 2.482882 1_555
Fe13 Fe3 2.482882 1_555
Fe13 Fe8 2.482884 1_555
Fe13 Fe5 2.482884 1_555
Fe13 Fe7 2.482884 1_555
Fe13 Fe4 2.482884 1_555
Fe13 Y0 2.888388 1_655
Fe13 Y0 2.888388 1_545
Fe13 Y0 2.888397 1_555
Fe14 Fe2 2.493800 1_445
Fe14 Fe9 2.493800 1_545
Fe14 Y1 2.888388 1_455
Fe14 Y1 2.888392 1_555
Fe14 Y1 2.888392 1_445
Fe15 Fe8 2.493800 1_555
Fe15 Fe5 2.493800 1_555
Fe15 Fe7 2.493800 1_445
Fe15 Fe4 2.493800 1_445
Fe15 Fe6 2.493800 1_455
Fe15 Fe3 2.493800 1_455
Fe15 Y0 2.888388 1_545
Fe15 Y0 2.888392 1_445
Fe15 Y0 2.888392 1_555
Fe16 Fe5 2.442149 1_555
Fe16 Fe2 2.442149 1_445
Fe16 Fe4 2.442149 1_445
Fe16 Fe3 2.442149 1_455
Fe16 Hf3 2.943074 1_545
Fe16 Hf2 2.943074 1_455
Fe16 Hf2 2.943078 1_555
Fe16 Hf3 2.943078 1_445
Fe16 Hf3 2.943078 1_555
Fe16 Hf2 2.943078 1_445
Fe17 Fe8 2.442149 1_554
Fe17 Fe7 2.442149 1_444
Fe17 Fe9 2.442149 1_545
Fe17 Fe6 2.442149 1_454
Fe17 Hf1 2.943074 1_455
Fe17 Hf0 2.943074 1_544
Fe17 Hf1 2.943078 1_555
Fe17 Hf0 2.943078 1_444
Fe17 Hf0 2.943078 1_554
Fe17 Hf1 2.943078 1_445
