# generated using pymatgen
data_Sr3CdPdO6
_symmetry_space_group_name_H-M   'P 1'
_cell_length_a   6.78314508
_cell_length_b   6.78314488
_cell_length_c   6.78314050
_cell_angle_alpha   90.67492774
_cell_angle_beta   90.67489027
_cell_angle_gamma   90.67491038
_symmetry_Int_Tables_number   1
_chemical_formula_structural   Sr3CdPdO6
_chemical_formula_sum   'Sr6 Cd2 Pd2 O12'
_cell_volume   312.03398457
_cell_formula_units_Z   2
loop_
 _symmetry_equiv_pos_site_id
 _symmetry_equiv_pos_as_xyz
  1  'x, y, z'
loop_
 _atom_site_type_symbol
 _atom_site_label
 _atom_site_symmetry_multiplicity
 _atom_site_fract_x
 _atom_site_fract_y
 _atom_site_fract_z
 _atom_site_occupancy
  Sr  Sr0  1  0.74999900  0.38570138  0.11429862  1
  Sr  Sr1  1  0.11429962  0.74999900  0.38570138  1
  Sr  Sr2  1  0.25000100  0.61429862  0.88570138  1
  Sr  Sr3  1  0.38570138  0.11429962  0.74999900  1
  Sr  Sr4  1  0.61429862  0.88570038  0.25000100  1
  Sr  Sr5  1  0.88570038  0.25000100  0.61429862  1
  Cd  Cd0  1  0.25000000  0.25000000  0.25000000  1
  Cd  Cd1  1  0.75000000  0.75000000  0.75000000  1
  Pd  Pd0  1  0.50000000  0.50000000  0.50000000  1
  Pd  Pd1  1  0.00000000  0.00000000  0.00000000  1
  O  O0  1  0.08244749  0.28357043  0.94831572  1
  O  O1  1  0.94831572  0.08244749  0.28357043  1
  O  O2  1  0.28357043  0.94831572  0.08244749  1
  O  O3  1  0.41755251  0.55168328  0.21643157  1
  O  O4  1  0.21643157  0.41755251  0.55168328  1
  O  O5  1  0.55168328  0.21643157  0.41755251  1
  O  O6  1  0.91755251  0.71642957  0.05168428  1
  O  O7  1  0.05168428  0.91755251  0.71642957  1
  O  O8  1  0.71642957  0.05168428  0.91755251  1
  O  O9  1  0.58244749  0.44831672  0.78356843  1
  O  O10  1  0.44831672  0.78356843  0.58244749  1
  O  O11  1  0.78356843  0.58244749  0.44831672  1
loop_
_geom_bond_atom_site_label_1
_geom_bond_atom_site_label_2
_geom_bond_distance
_geom_bond_site_symmetry_2
Cd0 O4 2.343806 1_555
Cd0 O3 2.343807 1_555
Cd0 O5 2.343807 1_555
Cd0 O0 2.343814 1_554
Cd0 O2 2.343814 1_545
Cd0 O1 2.343815 1_455
Cd1 O11 2.343806 1_555
Cd1 O9 2.343807 1_555
Cd1 O10 2.343807 1_555
Cd1 O6 2.343814 1_556
Cd1 O8 2.343814 1_565
Cd1 O7 2.343815 1_655
O0 Pd1 2.032409 1_556
O0 Sr2 2.545310 1_555
O0 Sr5 2.622155 1_455
O0 Sr0 2.628882 1_456
O0 Sr3 2.728310 1_555
O1 Pd1 2.032407 1_655
O1 Sr5 2.545310 1_555
O1 Sr4 2.622156 1_545
O1 Sr1 2.628886 1_645
O1 Sr0 2.728314 1_555
O2 Pd1 2.032409 1_565
O2 Sr4 2.545312 1_555
O2 Sr2 2.622151 1_554
O2 Sr3 2.628884 1_564
O2 Sr1 2.728310 1_555
O3 Pd0 2.032394 1_555
O3 Sr2 2.545317 1_554
O3 Sr4 2.622152 1_555
O3 Sr0 2.628871 1_555
O3 Sr1 2.728299 1_555
O4 Pd0 2.032394 1_555
O4 Sr5 2.545323 1_455
O4 Sr2 2.622157 1_555
O4 Sr1 2.628870 1_555
O4 Sr3 2.728300 1_555
O5 Pd0 2.032394 1_555
O5 Sr4 2.545323 1_545
O5 Sr5 2.622152 1_555
O5 Sr3 2.628868 1_555
O5 Sr0 2.728304 1_555
O6 Pd1 2.032409 1_665
O6 Sr0 2.545310 1_555
O6 Sr1 2.622155 1_655
O6 Sr2 2.628882 1_654
O6 Sr4 2.728310 1_555
O7 Pd1 2.032407 1_566
O7 Sr1 2.545310 1_555
O7 Sr3 2.622156 1_565
O7 Sr5 2.628886 1_465
O7 Sr2 2.728314 1_555
O8 Pd1 2.032409 1_656
O8 Sr3 2.545312 1_555
O8 Sr0 2.622151 1_556
O8 Sr4 2.628884 1_546
O8 Sr5 2.728310 1_555
O9 Pd0 2.032394 1_555
O9 Sr0 2.545317 1_556
O9 Sr3 2.622152 1_555
O9 Sr2 2.628871 1_555
O9 Sr5 2.728299 1_555
O10 Pd0 2.032394 1_555
O10 Sr3 2.545323 1_565
O10 Sr1 2.622152 1_555
O10 Sr4 2.628868 1_555
O10 Sr2 2.728304 1_555
O11 Pd0 2.032394 1_555
O11 Sr1 2.545323 1_655
O11 Sr0 2.622157 1_555
O11 Sr5 2.628870 1_555
O11 Sr4 2.728300 1_555
