# generated using pymatgen
data_Zr10BeSiSb6
_symmetry_space_group_name_H-M   'P 1'
_cell_length_a   8.59885438
_cell_length_b   8.59885430
_cell_length_c   5.82117202
_cell_angle_alpha   90.00000000
_cell_angle_beta   90.00000000
_cell_angle_gamma   119.99999650
_symmetry_Int_Tables_number   1
_chemical_formula_structural   Zr10BeSiSb6
_chemical_formula_sum   'Zr10 Be1 Si1 Sb6'
_cell_volume   372.75395861
_cell_formula_units_Z   1
loop_
 _symmetry_equiv_pos_site_id
 _symmetry_equiv_pos_as_xyz
  1  'x, y, z'
loop_
 _atom_site_type_symbol
 _atom_site_label
 _atom_site_symmetry_multiplicity
 _atom_site_fract_x
 _atom_site_fract_y
 _atom_site_fract_z
 _atom_site_occupancy
  Zr  Zr0  1  0.25684436  0.00000000  0.24452172  1
  Zr  Zr1  1  0.25684436  0.25684436  0.75547828  1
  Zr  Zr2  1  0.00000000  0.74315564  0.75547828  1
  Zr  Zr3  1  0.00000000  0.25684436  0.24452172  1
  Zr  Zr4  1  0.74315564  0.74315564  0.24452172  1
  Zr  Zr5  1  0.74315564  0.00000000  0.75547828  1
  Zr  Zr6  1  0.33333300  0.66666700  0.00000000  1
  Zr  Zr7  1  0.66666700  0.33333300  0.50000000  1
  Zr  Zr8  1  0.66666700  0.33333300  0.00000000  1
  Zr  Zr9  1  0.33333300  0.66666700  0.50000000  1
  Be  Be0  1  0.00000000  0.00000000  0.00000000  1
  Si  Si0  1  0.00000000  0.00000000  0.50000000  1
  Sb  Sb0  1  0.60742023  1.00000000  0.25000430  1
  Sb  Sb1  1  0.60742023  0.60742023  0.74999570  1
  Sb  Sb2  1  0.00000000  0.39257977  0.74999570  1
  Sb  Sb3  1  1.00000000  0.60742023  0.25000430  1
  Sb  Sb4  1  0.39257977  0.39257977  0.25000430  1
  Sb  Sb5  1  0.39257977  0.00000000  0.74999570  1
loop_
_geom_bond_atom_site_label_1
_geom_bond_atom_site_label_2
_geom_bond_distance
_geom_bond_site_symmetry_2
Be0 Zr3 2.627517 1_555
Be0 Zr2 2.627517 1_544
Be0 Zr0 2.627517 1_555
Be0 Zr5 2.627517 1_454
Be0 Zr1 2.627517 1_554
Be0 Zr4 2.627517 1_445
Si0 Zr3 2.662608 1_555
Si0 Zr2 2.662608 1_545
Si0 Zr5 2.662608 1_455
Si0 Zr0 2.662608 1_555
Si0 Zr1 2.662608 1_555
Si0 Zr4 2.662608 1_445
Sb0 Zr4 2.969654 1_555
Sb0 Zr3 2.969654 1_665
Sb0 Zr0 3.014720 1_565
Sb0 Zr7 3.022033 1_565
Sb0 Zr9 3.022035 1_555
Sb0 Zr8 3.022057 1_565
Sb0 Zr6 3.022059 1_555
Sb0 Zr5 3.106335 1_564
Sb0 Zr5 3.165486 1_565
Sb1 Zr5 2.969654 1_565
Sb1 Zr2 2.969654 1_655
Sb1 Zr1 3.014720 1_555
Sb1 Zr7 3.022040 1_555
Sb1 Zr9 3.022040 1_555
Sb1 Zr8 3.022064 1_556
Sb1 Zr6 3.022064 1_556
Sb1 Zr4 3.106335 1_556
Sb1 Zr4 3.165486 1_555
Sb2 Zr1 2.969654 1_555
Sb2 Zr5 2.969654 1_455
Sb2 Zr2 3.014720 1_555
Sb2 Zr7 3.022033 1_455
Sb2 Zr9 3.022035 1_555
Sb2 Zr8 3.022057 1_456
Sb2 Zr6 3.022059 1_556
Sb2 Zr3 3.106335 1_556
Sb2 Zr3 3.165486 1_555
Sb3 Zr4 2.969654 1_555
Sb3 Zr0 2.969654 1_665
Sb3 Zr3 3.014720 1_655
Sb3 Zr9 3.022033 1_655
Sb3 Zr7 3.022035 1_555
Sb3 Zr6 3.022057 1_655
Sb3 Zr8 3.022059 1_555
Sb3 Zr2 3.106335 1_654
Sb3 Zr2 3.165486 1_655
Sb4 Zr0 2.969654 1_555
Sb4 Zr3 2.969654 1_555
Sb4 Zr4 3.014720 1_555
Sb4 Zr9 3.022040 1_555
Sb4 Zr7 3.022040 1_555
Sb4 Zr6 3.022064 1_555
Sb4 Zr8 3.022064 1_555
Sb4 Zr1 3.106335 1_554
Sb4 Zr1 3.165486 1_555
Sb5 Zr1 2.969654 1_555
Sb5 Zr2 2.969654 1_545
Sb5 Zr5 3.014720 1_555
Sb5 Zr9 3.022033 1_545
Sb5 Zr7 3.022035 1_555
Sb5 Zr6 3.022057 1_546
Sb5 Zr8 3.022059 1_556
Sb5 Zr0 3.106335 1_556
Sb5 Zr0 3.165486 1_555
