# generated using pymatgen
data_Zr10Zn2Sn5Bi
_symmetry_space_group_name_H-M   'P 1'
_cell_length_a   8.70573902
_cell_length_b   8.70573839
_cell_length_c   5.87849275
_cell_angle_alpha   90.00000000
_cell_angle_beta   90.00000000
_cell_angle_gamma   119.93167782
_symmetry_Int_Tables_number   1
_chemical_formula_structural   Zr10Zn2Sn5Bi
_chemical_formula_sum   'Zr10 Zn2 Sn5 Bi1'
_cell_volume   386.10591699
_cell_formula_units_Z   1
loop_
 _symmetry_equiv_pos_site_id
 _symmetry_equiv_pos_as_xyz
  1  'x, y, z'
loop_
 _atom_site_type_symbol
 _atom_site_label
 _atom_site_symmetry_multiplicity
 _atom_site_fract_x
 _atom_site_fract_y
 _atom_site_fract_z
 _atom_site_occupancy
  Zr  Zr0  1  0.66888563  0.33290680  0.00164979  1
  Zr  Zr1  1  0.33290680  0.66888563  0.00164979  1
  Zr  Zr2  1  0.33290680  0.66888563  0.49835021  1
  Zr  Zr3  1  0.66888563  0.33290680  0.49835021  1
  Zr  Zr4  1  0.73676080  0.73676080  0.75000000  1
  Zr  Zr5  1  0.26345690  0.99491166  0.75000000  1
  Zr  Zr6  1  0.99491166  0.26345690  0.75000000  1
  Zr  Zr7  1  0.26627500  0.26627500  0.25000000  1
  Zr  Zr8  1  0.73323086  0.00095548  0.25000000  1
  Zr  Zr9  1  0.00095548  0.73323086  0.25000000  1
  Zn  Zn0  1  0.99974216  0.99974216  0.00224799  1
  Zn  Zn1  1  0.99974216  0.99974216  0.49775201  1
  Sn  Sn0  1  0.61327791  0.99918453  0.75000000  1
  Sn  Sn1  1  0.99918453  0.61327791  0.75000000  1
  Sn  Sn2  1  0.61696621  0.61696621  0.25000000  1
  Sn  Sn3  1  0.38546188  0.00106200  0.25000000  1
  Sn  Sn4  1  0.00106200  0.38546188  0.25000000  1
  Bi  Bi0  1  0.38538558  0.38538558  0.75000000  1
loop_
_geom_bond_atom_site_label_1
_geom_bond_atom_site_label_2
_geom_bond_distance
_geom_bond_site_symmetry_2
Zr0 Zr3 2.919850 1_555
Zr0 Zr3 2.958643 1_554
Zr1 Zr2 2.919850 1_555
Zr1 Zr2 2.958643 1_554
Zn0 Zr4 2.729690 1_554
Zn0 Zr7 2.741595 1_665
Zn0 Zr9 2.743887 1_655
Zn0 Zr8 2.743888 1_565
Zn0 Zr6 2.750957 1_564
Zn0 Zr5 2.750958 1_654
Zn0 Zn1 2.912817 1_555
Zn0 Zn1 2.965676 1_554
Zn1 Zr4 2.729690 1_555
Zn1 Zr7 2.741595 1_665
Zn1 Zr9 2.743887 1_655
Zn1 Zr8 2.743888 1_565
Zn1 Zr6 2.750957 1_565
Zn1 Zr5 2.750958 1_655
Sn0 Zr6 2.950171 1_565
Sn0 Zr4 2.970841 1_555
Sn0 Zr5 3.027061 1_555
Sn0 Zr1 3.067644 1_556
Sn0 Zr2 3.067644 1_555
Sn0 Zr0 3.075702 1_566
Sn0 Zr3 3.075702 1_565
Sn0 Zr8 3.116706 1_565
Sn0 Zr8 3.116706 1_566
Sn1 Zr5 2.950171 1_655
Sn1 Zr4 2.970841 1_555
Sn1 Zr6 3.027061 1_555
Sn1 Zr0 3.067644 1_556
Sn1 Zr3 3.067644 1_555
Sn1 Zr1 3.075702 1_656
Sn1 Zr2 3.075702 1_655
Sn1 Zr9 3.116706 1_656
Sn1 Zr9 3.116706 1_655
Sn2 Zr8 2.970342 1_565
Sn2 Zr9 2.970343 1_655
Sn2 Zr7 3.056178 1_555
Sn2 Zr3 3.092993 1_555
Sn2 Zr0 3.092993 1_555
Sn2 Zr2 3.092993 1_555
Sn2 Zr1 3.092993 1_555
Sn2 Zr4 3.119144 1_555
Sn2 Zr4 3.119144 1_554
Sn3 Zr7 2.966193 1_555
Sn3 Zr9 2.975385 1_545
Sn3 Zr8 3.028049 1_555
Sn3 Zr2 3.063182 1_545
Sn3 Zr1 3.063182 1_545
Sn3 Zr3 3.074418 1_555
Sn3 Zr0 3.074418 1_555
Sn3 Zr5 3.116638 1_544
Sn3 Zr5 3.116638 1_545
Sn4 Zr7 2.966193 1_555
Sn4 Zr8 2.975385 1_455
Sn4 Zr9 3.028049 1_555
Sn4 Zr3 3.063182 1_455
Sn4 Zr0 3.063182 1_455
Sn4 Zr2 3.074418 1_555
Sn4 Zr1 3.074418 1_555
Sn4 Zr6 3.116638 1_454
Sn4 Zr6 3.116638 1_455
Bi0 Zr5 3.013555 1_545
Bi0 Zr6 3.013555 1_455
Bi0 Zr4 3.062139 1_555
Bi0 Zr1 3.100609 1_556
Bi0 Zr2 3.100609 1_555
Bi0 Zr0 3.100609 1_556
Bi0 Zr3 3.100609 1_555
Bi0 Zr7 3.117154 1_555
Bi0 Zr7 3.117154 1_556
