# generated using pymatgen
data_Ti3Al2PdC
_symmetry_space_group_name_H-M   'P 1'
_cell_length_a   8.21810010
_cell_length_b   8.21810116
_cell_length_c   8.21810017
_cell_angle_alpha   60.00000001
_cell_angle_beta   59.99999576
_cell_angle_gamma   60.00000142
_symmetry_Int_Tables_number   1
_chemical_formula_structural   Ti3Al2PdC
_chemical_formula_sum   'Ti12 Al8 Pd4 C4'
_cell_volume   392.46355450
_cell_formula_units_Z   4
loop_
 _symmetry_equiv_pos_site_id
 _symmetry_equiv_pos_as_xyz
  1  'x, y, z'
loop_
 _atom_site_type_symbol
 _atom_site_label
 _atom_site_symmetry_multiplicity
 _atom_site_fract_x
 _atom_site_fract_y
 _atom_site_fract_z
 _atom_site_occupancy
  Ti  Ti0  1  0.56668727  0.93331273  0.56668727  1
  Ti  Ti1  1  0.31668727  0.68331273  0.68331273  1
  Ti  Ti2  1  0.68331273  0.31668727  0.31668727  1
  Ti  Ti3  1  0.31668727  0.68331273  0.31668727  1
  Ti  Ti4  1  0.68331273  0.68331273  0.31668727  1
  Ti  Ti5  1  0.31668727  0.31668727  0.68331273  1
  Ti  Ti6  1  0.56668727  0.56668727  0.93331273  1
  Ti  Ti7  1  0.93331273  0.56668727  0.56668727  1
  Ti  Ti8  1  0.56668727  0.93331273  0.93331273  1
  Ti  Ti9  1  0.93331273  0.93331273  0.56668727  1
  Ti  Ti10  1  0.68331273  0.31668727  0.68331273  1
  Ti  Ti11  1  0.93331273  0.56668727  0.93331273  1
  Al  Al0  1  0.91545008  0.91545008  0.91545008  1
  Al  Al1  1  0.99634725  0.33454992  0.33454992  1
  Al  Al2  1  0.33454992  0.99634725  0.33454992  1
  Al  Al3  1  0.33454992  0.33454992  0.99634725  1
  Al  Al4  1  0.91545008  0.25365275  0.91545008  1
  Al  Al5  1  0.91545008  0.91545008  0.25365275  1
  Al  Al6  1  0.25365275  0.91545008  0.91545008  1
  Al  Al7  1  0.33454992  0.33454992  0.33454992  1
  Pd  Pd0  1  0.12500000  0.12500000  0.12500000  1
  Pd  Pd1  1  0.62500000  0.12500000  0.12500000  1
  Pd  Pd2  1  0.12500000  0.62500000  0.12500000  1
  Pd  Pd3  1  0.12500000  0.12500000  0.62500000  1
  C  C0  1  0.62500000  0.62500000  0.62500000  1
  C  C1  1  0.12500000  0.62500000  0.62500000  1
  C  C2  1  0.62500000  0.12500000  0.62500000  1
  C  C3  1  0.62500000  0.62500000  0.12500000  1
loop_
_geom_bond_atom_site_label_1
_geom_bond_atom_site_label_2
_geom_bond_distance
_geom_bond_site_symmetry_2
Al0 Pd3 2.524538 1_665
Al0 Pd1 2.524538 1_566
Al0 Pd2 2.524538 1_656
Al1 Pd0 2.524532 1_655
Al1 Pd3 2.524552 1_655
Al1 Pd2 2.524552 1_655
Al2 Pd0 2.524531 1_565
Al2 Pd1 2.524551 1_565
Al2 Pd3 2.524551 1_565
Al3 Pd0 2.524532 1_556
Al3 Pd1 2.524552 1_556
Al3 Pd2 2.524552 1_556
Al4 Pd0 2.524531 1_656
Al4 Pd1 2.524551 1_556
Al4 Pd3 2.524551 1_655
Al5 Pd0 2.524532 1_665
Al5 Pd1 2.524552 1_565
Al5 Pd2 2.524552 1_655
Al6 Pd0 2.524532 1_566
Al6 Pd3 2.524552 1_565
Al6 Pd2 2.524552 1_556
Al7 Pd3 2.524538 1_555
Al7 Pd1 2.524538 1_555
Al7 Pd2 2.524538 1_555
Pd0 Ti9 3.030552 1_445
Pd0 Ti5 3.030552 1_554
Pd0 Ti8 3.030552 1_544
Pd0 Ti2 3.030552 1_455
Pd0 Ti11 3.030552 1_454
Pd0 Ti3 3.030552 1_545
Pd1 Ti0 3.030552 1_545
Pd1 Ti10 3.030552 1_554
Pd1 Ti2 3.030552 1_555
Pd1 Ti8 3.030552 1_544
Pd1 Ti6 3.030552 1_554
Pd1 Ti4 3.030552 1_545
Pd2 Ti6 3.030552 1_554
Pd2 Ti4 3.030552 1_455
Pd2 Ti7 3.030552 1_455
Pd2 Ti1 3.030552 1_554
Pd2 Ti3 3.030552 1_555
Pd2 Ti11 3.030552 1_454
Pd3 Ti0 3.030552 1_545
Pd3 Ti10 3.030552 1_455
Pd3 Ti5 3.030552 1_555
Pd3 Ti9 3.030552 1_445
Pd3 Ti7 3.030552 1_455
Pd3 Ti1 3.030552 1_545
C0 Ti7 2.163418 1_555
C0 Ti1 2.163418 1_555
C0 Ti6 2.163418 1_555
C0 Ti4 2.163418 1_555
C0 Ti0 2.163418 1_555
C0 Ti10 2.163418 1_555
C1 Ti11 2.163418 1_455
C1 Ti3 2.163418 1_555
C1 Ti1 2.163418 1_555
C1 Ti7 2.163418 1_455
C1 Ti9 2.163418 1_455
C1 Ti5 2.163418 1_555
C2 Ti8 2.163418 1_545
C2 Ti2 2.163418 1_555
C2 Ti9 2.163418 1_545
C2 Ti5 2.163418 1_555
C2 Ti10 2.163418 1_555
C2 Ti0 2.163418 1_545
C3 Ti11 2.163418 1_554
C3 Ti3 2.163418 1_555
C3 Ti4 2.163418 1_555
C3 Ti6 2.163418 1_554
C3 Ti8 2.163418 1_554
C3 Ti2 2.163418 1_555
