# generated using pymatgen
data_ZrAsO4F
_symmetry_space_group_name_H-M   'P 1'
_cell_length_a   5.48669664
_cell_length_b   5.49243161
_cell_length_c   7.88044495
_cell_angle_alpha   110.60855124
_cell_angle_beta   110.80562304
_cell_angle_gamma   86.44137776
_symmetry_Int_Tables_number   1
_chemical_formula_structural   ZrAsO4F
_chemical_formula_sum   'Zr2 As2 O8 F2'
_cell_volume   207.24919951
_cell_formula_units_Z   2
loop_
 _symmetry_equiv_pos_site_id
 _symmetry_equiv_pos_as_xyz
  1  'x, y, z'
loop_
 _atom_site_type_symbol
 _atom_site_label
 _atom_site_symmetry_multiplicity
 _atom_site_fract_x
 _atom_site_fract_y
 _atom_site_fract_z
 _atom_site_occupancy
  Zr  Zr0  1  0.00000000  0.00000000  0.00000000  1
  Zr  Zr1  1  0.50000000  0.50000000  0.50000000  1
  As  As0  1  0.36025987  0.13809848  0.74923924  1
  As  As1  1  0.63974013  0.86190152  0.25076076  1
  O  O0  1  0.34645348  0.83062600  0.07168483  1
  O  O1  1  0.87980777  0.84582139  0.16232874  1
  O  O2  1  0.66936488  0.15473272  0.42863167  1
  O  O3  1  0.65755325  0.62275234  0.34046468  1
  O  O4  1  0.12019223  0.15417861  0.83767126  1
  O  O5  1  0.33063512  0.84526728  0.57136833  1
  O  O6  1  0.34244675  0.37724766  0.65953532  1
  O  O7  1  0.65354652  0.16937400  0.92831517  1
  F  F0  1  0.17404824  0.32709197  0.24873428  1
  F  F1  1  0.82595176  0.67290803  0.75126572  1
loop_
_geom_bond_atom_site_label_1
_geom_bond_atom_site_label_2
_geom_bond_distance
_geom_bond_site_symmetry_2
As0 O4 1.680097 1_555
As0 O6 1.680242 1_555
As0 O7 1.691414 1_555
As0 O5 1.691614 1_545
As1 O1 1.680097 1_555
As1 O3 1.680242 1_555
As1 O0 1.691414 1_555
As1 O2 1.691614 1_565
O0 Zr0 2.045844 1_565
O1 Zr0 2.054162 1_665
O2 Zr1 2.043943 1_555
O3 Zr1 2.055115 1_555
O4 Zr0 2.054162 1_556
O5 Zr1 2.043943 1_555
O6 Zr1 2.055115 1_555
O7 Zr0 2.045844 1_656
F0 Zr0 2.094242 1_555
F0 Zr1 2.095813 1_555
F1 Zr0 2.094242 1_666
F1 Zr1 2.095813 1_555
