# generated using pymatgen
data_Yb(InS2)2
_symmetry_space_group_name_H-M   'P 1'
_cell_length_a   5.83383162
_cell_length_b   5.83383162
_cell_length_c   9.72767051
_cell_angle_alpha   90.00000000
_cell_angle_beta   90.00000000
_cell_angle_gamma   109.39676668
_symmetry_Int_Tables_number   1
_chemical_formula_structural   Yb(InS2)2
_chemical_formula_sum   'Yb2 In4 S8'
_cell_volume   312.27663183
_cell_formula_units_Z   2
loop_
 _symmetry_equiv_pos_site_id
 _symmetry_equiv_pos_as_xyz
  1  'x, y, z'
loop_
 _atom_site_type_symbol
 _atom_site_label
 _atom_site_symmetry_multiplicity
 _atom_site_fract_x
 _atom_site_fract_y
 _atom_site_fract_z
 _atom_site_occupancy
  Yb  Yb0  1  0.50000000  0.50000000  0.75000000  1
  Yb  Yb1  1  0.50000000  0.50000000  0.25000000  1
  In  In0  1  0.81662761  0.20865209  0.50000000  1
  In  In1  1  0.18337239  0.79134791  0.50000000  1
  In  In2  1  0.79134791  0.18337239  0.00000000  1
  In  In3  1  0.20865209  0.81662761  0.00000000  1
  S  S0  1  0.36135557  0.24747666  0.50000000  1
  S  S1  1  0.63864443  0.75252334  0.50000000  1
  S  S2  1  0.75252334  0.63864443  0.00000000  1
  S  S3  1  0.24747666  0.36135557  0.00000000  1
  S  S4  1  0.50000000  0.00000000  0.79968628  1
  S  S5  1  0.00000000  0.50000000  0.70031372  1
  S  S6  1  0.50000000  0.00000000  0.20031372  1
  S  S7  1  0.00000000  0.50000000  0.29968628  1
loop_
_geom_bond_atom_site_label_1
_geom_bond_atom_site_label_2
_geom_bond_distance
_geom_bond_site_symmetry_2
In0 S1 2.514701 1_545
In0 S5 2.573434 1_655
In0 S7 2.573434 1_655
In0 S0 2.739544 1_555
In0 S0 3.109977 1_655
In1 S0 2.514701 1_565
In1 S5 2.573434 1_555
In1 S7 2.573434 1_555
In1 S1 2.739544 1_555
In1 S1 3.109977 1_455
In2 S3 2.514701 1_655
In2 S6 2.573434 1_555
In2 S4 2.573434 1_554
In2 S2 2.739544 1_555
In2 S2 3.109977 1_545
In3 S2 2.514701 1_455
In3 S6 2.573434 1_565
In3 S4 2.573434 1_564
In3 S3 2.739544 1_555
In3 S3 3.109977 1_565
S0 Yb0 2.819084 1_555
S0 Yb1 2.819084 1_555
S1 Yb0 2.819084 1_555
S1 Yb1 2.819084 1_555
S2 Yb0 2.819084 1_554
S2 Yb1 2.819084 1_555
S3 Yb0 2.819084 1_554
S3 Yb1 2.819084 1_555
S4 Yb0 2.956689 1_545
S4 Yb0 2.956689 1_555
S5 Yb0 2.956689 1_455
S5 Yb0 2.956689 1_555
S6 Yb1 2.956689 1_555
S6 Yb1 2.956689 1_545
S7 Yb1 2.956689 1_455
S7 Yb1 2.956689 1_555
