# generated using pymatgen
data_Zr4Si2Ge4Ir7
_symmetry_space_group_name_H-M   'P 1'
_cell_length_a   7.05959212
_cell_length_b   7.05959177
_cell_length_c   7.06848174
_cell_angle_alpha   109.59012012
_cell_angle_beta   109.59012309
_cell_angle_gamma   109.18243708
_symmetry_Int_Tables_number   1
_chemical_formula_structural   Zr4Si2Ge4Ir7
_chemical_formula_sum   'Zr4 Si2 Ge4 Ir7'
_cell_volume   271.35067399
_cell_formula_units_Z   1
loop_
 _symmetry_equiv_pos_site_id
 _symmetry_equiv_pos_as_xyz
  1  'x, y, z'
loop_
 _atom_site_type_symbol
 _atom_site_label
 _atom_site_symmetry_multiplicity
 _atom_site_fract_x
 _atom_site_fract_y
 _atom_site_fract_z
 _atom_site_occupancy
  Zr  Zr0  1  0.99869852  0.99869852  0.52608885  1
  Zr  Zr1  1  0.99913740  0.49913740  0.99827380  1
  Zr  Zr2  1  0.49913740  0.99913740  0.99827380  1
  Zr  Zr3  1  0.52739033  0.52739033  0.52608885  1
  Si  Si0  1  0.67079043  0.00299492  0.67378535  1
  Si  Si1  1  0.00299492  0.67079043  0.67378535  1
  Ge  Ge0  1  0.68939087  0.68939087  0.00753827  1
  Ge  Ge1  1  0.30720707  0.00312702  0.31033410  1
  Ge  Ge2  1  0.00312702  0.30720707  0.31033410  1
  Ge  Ge3  1  0.31814741  0.31814741  0.00753827  1
  Ir  Ir0  1  0.75106091  0.25106091  0.50212283  1
  Ir  Ir1  1  0.75269514  0.50106163  0.25375677  1
  Ir  Ir2  1  0.50072240  0.24896544  0.74968684  1
  Ir  Ir3  1  0.24896544  0.50072240  0.74968684  1
  Ir  Ir4  1  0.25106091  0.75106091  0.50212283  1
  Ir  Ir5  1  0.50106163  0.75269514  0.25375677  1
  Ir  Ir6  1  0.97841319  0.97841319  0.95682739  1
loop_
_geom_bond_atom_site_label_1
_geom_bond_atom_site_label_2
_geom_bond_distance
_geom_bond_site_symmetry_2
Si0 Zr0 2.845189 1_545
Si0 Zr3 2.845189 1_545
Si0 Zr2 2.934965 1_545
Si0 Zr1 2.934971 1_555
Si1 Zr0 2.845188 1_455
Si1 Zr3 2.845189 1_455
Si1 Zr1 2.934964 1_455
Si1 Zr2 2.934971 1_555
Ge0 Ir1 2.533154 1_555
Ge0 Ir5 2.533154 1_555
Ge0 Ir2 2.571728 1_554
Ge0 Ir3 2.571728 1_554
Ge0 Ir6 2.588404 1_554
Ge0 Zr3 2.849175 1_554
Ge0 Zr2 2.925219 1_554
Ge0 Zr1 2.925219 1_554
Ge0 Zr0 3.017204 1_555
Ge1 Ir2 2.550587 1_555
Ge1 Ir5 2.577077 1_545
Ge1 Ir0 2.583783 1_555
Ge1 Ir4 2.583790 1_545
Ge1 Ir6 2.685916 1_444
Ge1 Zr1 2.947842 1_444
Ge1 Zr2 2.947847 1_544
Ge1 Zr0 3.047092 1_445
Ge1 Zr3 3.047092 1_555
Ge2 Ir3 2.550587 1_555
Ge2 Ir1 2.577077 1_455
Ge2 Ir4 2.583783 1_555
Ge2 Ir0 2.583790 1_455
Ge2 Ir6 2.685916 1_444
Ge2 Zr2 2.947842 1_444
Ge2 Zr1 2.947847 1_454
Ge2 Zr0 3.047092 1_445
Ge2 Zr3 3.047092 1_555
Ge3 Ir5 2.533155 1_555
Ge3 Ir1 2.533155 1_555
Ge3 Ir3 2.571733 1_554
Ge3 Ir2 2.571733 1_554
Ge3 Ir6 2.588413 1_444
Ge3 Zr0 2.849175 1_444
Ge3 Zr2 2.925217 1_544
Ge3 Zr1 2.925218 1_454
Ge3 Zr3 3.017204 1_555
Ir0 Si0 2.468641 1_555
Ir0 Si1 2.468648 1_655
Ir0 Zr1 2.860185 1_555
Ir0 Zr0 2.882627 1_545
Ir0 Zr3 2.882627 1_555
Ir0 Zr2 2.904562 1_544
Ir1 Si1 2.465339 1_655
Ir1 Zr3 2.877060 1_555
Ir1 Zr0 2.877060 1_555
Ir1 Zr2 2.897259 1_544
Ir1 Zr1 2.897264 1_554
Ir2 Si0 2.433481 1_555
Ir2 Zr2 2.876904 1_545
Ir2 Zr1 2.876904 1_555
Ir2 Zr3 2.904552 1_555
Ir2 Zr0 2.904559 1_445
Ir3 Si1 2.433481 1_555
Ir3 Zr1 2.876904 1_455
Ir3 Zr2 2.876904 1_555
Ir3 Zr3 2.904552 1_555
Ir3 Zr0 2.904559 1_445
Ir4 Si1 2.468641 1_555
Ir4 Si0 2.468648 1_565
Ir4 Zr2 2.860185 1_555
Ir4 Zr0 2.882627 1_455
Ir4 Zr3 2.882627 1_555
Ir4 Zr1 2.904562 1_454
Ir5 Si0 2.465339 1_565
Ir5 Zr3 2.877060 1_555
Ir5 Zr0 2.877060 1_555
Ir5 Zr1 2.897259 1_454
Ir5 Zr2 2.897264 1_554
Ir6 Si0 2.513162 1_565
Ir6 Si1 2.513162 1_655
Ir6 Zr3 3.143609 1_555
Ir6 Zr0 3.143613 1_555
