# generated using pymatgen
data_Ca2GaAg2Sn
_symmetry_space_group_name_H-M   'P 1'
_cell_length_a   5.92730980
_cell_length_b   5.98615494
_cell_length_c   5.98615505
_cell_angle_alpha   133.87996603
_cell_angle_beta   104.43430270
_cell_angle_gamma   93.47578143
_symmetry_Int_Tables_number   1
_chemical_formula_structural   Ca2GaAg2Sn
_chemical_formula_sum   'Ca2 Ga1 Ag2 Sn1'
_cell_volume   139.72951389
_cell_formula_units_Z   1
loop_
 _symmetry_equiv_pos_site_id
 _symmetry_equiv_pos_as_xyz
  1  'x, y, z'
loop_
 _atom_site_type_symbol
 _atom_site_label
 _atom_site_symmetry_multiplicity
 _atom_site_fract_x
 _atom_site_fract_y
 _atom_site_fract_z
 _atom_site_occupancy
  Ca  Ca0  1  0.68888242  0.69144399  0.99743843  1
  Ca  Ca1  1  0.11645492  0.61599508  0.50045984  1
  Ga  Ga0  1  0.28691265  0.98624898  0.30066367  1
  Ag  Ag0  1  0.52143191  0.30438577  0.21704614  1
  Ag  Ag1  1  0.11715301  0.32825188  0.78890113  1
  Sn  Sn0  1  0.68458410  0.98909230  0.69549080  1
loop_
_geom_bond_atom_site_label_1
_geom_bond_atom_site_label_2
_geom_bond_distance
_geom_bond_site_symmetry_2
Ca0 Ga0 3.211088 1_556
Ca0 Ga0 3.211089 1_545
Ca0 Sn0 3.220792 1_556
Ca0 Sn0 3.220796 1_545
Ca0 Ga0 3.250718 1_656
Ca0 Sn0 3.299944 1_555
Ca0 Ca1 3.672319 1_555
Ca0 Ca1 3.730102 1_656
Ca1 Sn0 3.347296 1_555
Ca1 Ga0 3.371859 1_555
Ca1 Sn0 3.387080 1_455
Ca1 Sn0 3.387084 1_444
Ca1 Ga0 3.387658 1_545
Ca1 Ga0 3.387658 1_556
Ga0 Sn0 2.881737 1_555
Ag0 Ga0 2.675261 1_545
Ag0 Sn0 2.793304 1_555
Ag0 Sn0 2.793308 1_544
Ag0 Ag1 3.133462 1_554
Ag0 Ca1 3.210278 1_555
Ag0 Ca1 3.210279 1_544
Ag0 Ca0 3.252893 1_544
Ag0 Ca0 3.252893 1_555
Ag0 Ca1 3.260186 1_655
Ag0 Ca0 3.560332 1_554
Ag1 Ga0 2.677082 1_545
Ag1 Ga0 2.677082 1_556
Ag1 Sn0 2.844086 1_445
Ag1 Ca1 3.173105 1_555
Ag1 Ca1 3.308899 1_545
Ag1 Ca1 3.308899 1_556
Ag1 Ca0 3.317288 1_555
Ag1 Ca0 3.348977 1_455
Ag1 Ca0 3.348978 1_444
