# generated using pymatgen
data_Y3As4Pd6Pt
_symmetry_space_group_name_H-M   'P 1'
_cell_length_a   8.07058941
_cell_length_b   8.07058975
_cell_length_c   9.56705881
_cell_angle_alpha   55.42487248
_cell_angle_beta   55.42486355
_cell_angle_gamma   29.61685063
_symmetry_Int_Tables_number   1
_chemical_formula_structural   Y3As4Pd6Pt
_chemical_formula_sum   'Y3 As4 Pd6 Pt1'
_cell_volume   249.32155914
_cell_formula_units_Z   1
loop_
 _symmetry_equiv_pos_site_id
 _symmetry_equiv_pos_as_xyz
  1  'x, y, z'
loop_
 _atom_site_type_symbol
 _atom_site_label
 _atom_site_symmetry_multiplicity
 _atom_site_fract_x
 _atom_site_fract_y
 _atom_site_fract_z
 _atom_site_occupancy
  Y  Y0  1  0.50000000  0.50000000  0.50000000  1
  Y  Y1  1  0.82235326  0.82235326  0.17086427  1
  Y  Y2  1  0.17764674  0.17764674  0.82913573  1
  As  As0  1  0.39377757  0.39377757  0.32226192  1
  As  As1  1  0.60622243  0.60622243  0.67773808  1
  As  As2  1  0.84095172  0.84095172  0.75090218  1
  As  As3  1  0.15904828  0.15904828  0.24909782  1
  Pd  Pd0  1  0.66607481  0.66607481  0.07254202  1
  Pd  Pd1  1  0.01264247  0.01264247  0.20649105  1
  Pd  Pd2  1  0.98735753  0.98735753  0.79350895  1
  Pd  Pd3  1  0.19394725  0.19394725  0.47513118  1
  Pd  Pd4  1  0.80605275  0.80605275  0.52486882  1
  Pd  Pd5  1  0.33392519  0.33392519  0.92745798  1
  Pt  Pt0  1  0.50000000  0.50000000  0.00000000  1
loop_
_geom_bond_atom_site_label_1
_geom_bond_atom_site_label_2
_geom_bond_distance
_geom_bond_site_symmetry_2
As0 Pt0 2.500706 1_555
As0 Pd3 2.551294 1_555
As0 Pd1 2.551556 1_655
As0 Pd1 2.551556 1_565
As0 Pd4 2.602119 1_455
As0 Pd4 2.602120 1_545
As0 Y0 2.991341 1_555
As0 Y1 3.080649 1_545
As0 Y1 3.080649 1_455
As1 Pt0 2.500706 1_556
As1 Pd4 2.551294 1_555
As1 Pd2 2.551556 1_455
As1 Pd2 2.551556 1_545
As1 Pd3 2.602119 1_655
As1 Pd3 2.602120 1_565
As1 Y0 2.991341 1_555
As1 Y2 3.080649 1_565
As1 Y2 3.080649 1_655
As2 Pd4 2.521001 1_555
As2 Pd2 2.545422 1_555
As2 Pd5 2.627286 1_565
As2 Pd5 2.627287 1_655
As2 Pd0 2.656652 1_556
As2 Y2 3.011675 1_565
As2 Y2 3.011675 1_655
As2 Y0 3.030317 1_655
As2 Y0 3.030318 1_565
As3 Pd3 2.521001 1_555
As3 Pd1 2.545422 1_555
As3 Pd0 2.627286 1_545
As3 Pd0 2.627287 1_455
As3 Pd5 2.656652 1_554
As3 Y1 3.011675 1_545
As3 Y1 3.011675 1_455
As3 Y0 3.030317 1_455
As3 Y0 3.030318 1_545
Pd0 Pd1 2.833343 1_565
Pd0 Pd1 2.833343 1_655
Pd0 Pd5 2.962125 1_654
Pd0 Pd5 2.962126 1_564
Pd0 Y2 3.035888 1_654
Pd0 Y2 3.035889 1_564
Pd0 Pt0 3.051163 1_555
Pd0 Y1 3.086316 1_555
Pd0 Y0 3.316383 1_555
Pd1 Pd4 2.853596 1_445
Pd1 Pt0 2.941773 1_545
Pd1 Pt0 2.941774 1_455
Pd1 Y2 2.958126 1_554
Pd1 Y1 3.181534 1_445
Pd1 Y0 3.395356 1_455
Pd1 Y0 3.395357 1_545
Pd2 Pd5 2.833343 1_565
Pd2 Pd5 2.833343 1_655
Pd2 Pd3 2.853596 1_665
Pd2 Pt0 2.941773 1_566
Pd2 Pt0 2.941774 1_656
Pd2 Y1 2.958126 1_556
Pd2 Y2 3.181534 1_665
Pd2 Y0 3.395356 1_655
Pd2 Y0 3.395357 1_565
Pd3 Pd4 2.918742 1_545
Pd3 Pd4 2.918742 1_455
Pd3 Y1 3.145794 1_545
Pd3 Y1 3.145795 1_455
Pd3 Y2 3.244015 1_555
Pd3 Y0 3.553341 1_455
Pd3 Y0 3.553341 1_545
Pd4 Y2 3.145794 1_565
Pd4 Y2 3.145795 1_655
Pd4 Y1 3.244015 1_555
Pd4 Y0 3.553341 1_655
Pd4 Y0 3.553341 1_565
Pd5 Y1 3.035888 1_456
Pd5 Y1 3.035889 1_546
Pd5 Pt0 3.051163 1_556
Pd5 Y2 3.086316 1_555
Pd5 Y0 3.316383 1_555
Pt0 Y2 3.048300 1_654
Pt0 Y1 3.048300 1_455
Pt0 Y2 3.048301 1_564
Pt0 Y1 3.048301 1_545
