# generated using pymatgen
data_KCaH9W
_symmetry_space_group_name_H-M   'P 1'
_cell_length_a   8.88154583
_cell_length_b   8.88154475
_cell_length_c   5.31064872
_cell_angle_alpha   90.00000000
_cell_angle_beta   90.00000000
_cell_angle_gamma   120.00000032
_symmetry_Int_Tables_number   1
_chemical_formula_structural   KCaH9W
_chemical_formula_sum   'K3 Ca3 H27 W3'
_cell_volume   362.78997274
_cell_formula_units_Z   3
loop_
 _symmetry_equiv_pos_site_id
 _symmetry_equiv_pos_as_xyz
  1  'x, y, z'
loop_
 _atom_site_type_symbol
 _atom_site_label
 _atom_site_symmetry_multiplicity
 _atom_site_fract_x
 _atom_site_fract_y
 _atom_site_fract_z
 _atom_site_occupancy
  K  K0  1  0.00000000  0.59692721  0.00000000  1
  K  K1  1  0.40307279  0.40307279  0.00000000  1
  K  K2  1  0.59692721  1.00000000  0.00000000  1
  Ca  Ca0  1  0.00000000  0.27367671  0.50000000  1
  Ca  Ca1  1  0.72632329  0.72632329  0.50000000  1
  Ca  Ca2  1  0.27367671  1.00000000  0.50000000  1
  H  H0  1  0.80168395  0.32197254  0.73552947  1
  H  H1  1  0.67802746  0.47971040  0.73552947  1
  H  H2  1  0.52028960  0.19831605  0.73552947  1
  H  H3  1  0.19831605  0.52028960  0.26447053  1
  H  H4  1  0.52028960  0.19831605  0.26447053  1
  H  H5  1  0.80168395  0.32197254  0.26447053  1
  H  H6  1  0.67802746  0.47971040  0.26447053  1
  H  H7  1  0.32197254  0.80168395  0.73552947  1
  H  H8  1  0.47971040  0.67802746  0.73552947  1
  H  H9  1  0.19583857  1.00000000  0.00000000  1
  H  H10  1  0.80416143  0.80416143  0.00000000  1
  H  H11  1  0.00000000  0.19583857  0.00000000  1
  H  H12  1  0.86142753  1.00000000  0.24176871  1
  H  H13  1  0.13857247  0.13857247  0.75823129  1
  H  H14  1  0.00000000  0.86142753  0.75823129  1
  H  H15  1  0.00000000  0.86142753  0.24176871  1
  H  H16  1  0.13857247  0.13857247  0.24176871  1
  H  H17  1  0.86142753  1.00000000  0.75823129  1
  H  H18  1  0.13431451  0.65834330  0.50000000  1
  H  H19  1  0.52402879  0.86568549  0.50000000  1
  H  H20  1  0.34165670  0.47597121  0.50000000  1
  H  H21  1  0.47597121  0.34165670  0.50000000  1
  H  H22  1  0.86568549  0.52402879  0.50000000  1
  H  H23  1  0.65834330  0.13431451  0.50000000  1
  H  H24  1  0.19831605  0.52028960  0.73552947  1
  H  H25  1  0.32197254  0.80168395  0.26447053  1
  H  H26  1  0.47971040  0.67802746  0.26447053  1
  W  W0  1  0.66666700  0.33333300  0.50000000  1
  W  W1  1  0.33333300  0.66666700  0.50000000  1
  W  W2  1  0.00000000  0.00000000  0.00000000  1
loop_
_geom_bond_atom_site_label_1
_geom_bond_atom_site_label_2
_geom_bond_distance
_geom_bond_site_symmetry_2
Ca0 H0 2.367786 1_455
Ca0 H5 2.367786 1_455
Ca0 H24 2.367791 1_555
Ca0 H3 2.367791 1_555
Ca0 H12 2.512376 1_445
Ca0 H17 2.512376 1_445
Ca0 H16 2.512376 1_555
Ca0 H13 2.512376 1_555
Ca0 H20 2.642720 1_555
Ca0 H23 2.642720 1_455
Ca0 H11 2.743843 1_556
Ca0 H11 2.743843 1_555
Ca1 H1 2.367793 1_555
Ca1 H6 2.367793 1_555
Ca1 H8 2.367793 1_555
Ca1 H26 2.367793 1_555
Ca1 H12 2.512376 1_555
Ca1 H17 2.512376 1_555
Ca1 H15 2.512376 1_655
Ca1 H14 2.512376 1_655
Ca1 H22 2.642720 1_555
Ca1 H19 2.642720 1_555
Ca1 H10 2.743843 1_556
Ca1 H10 2.743843 1_555
Ca2 H7 2.367786 1_555
Ca2 H25 2.367786 1_555
Ca2 H2 2.367791 1_565
Ca2 H4 2.367791 1_565
Ca2 H13 2.512376 1_565
Ca2 H16 2.512376 1_565
Ca2 H15 2.512376 1_555
Ca2 H14 2.512376 1_555
Ca2 H18 2.642720 1_555
Ca2 H21 2.642720 1_565
Ca2 H9 2.743843 1_555
Ca2 H9 2.743843 1_556
H0 W0 1.770224 1_555
H0 K0 2.595616 1_656
H0 K2 2.873468 1_546
H1 W0 1.770224 1_555
H1 K1 2.595618 1_556
H1 K0 2.873467 1_656
H2 W0 1.770224 1_555
H2 K2 2.595611 1_546
H2 K1 2.873474 1_556
H3 W1 1.770224 1_555
H3 K0 2.595611 1_555
H3 K1 2.873474 1_555
H4 W0 1.770224 1_555
H4 K2 2.595611 1_545
H4 K1 2.873474 1_555
H5 W0 1.770224 1_555
H5 K0 2.595616 1_655
H5 K2 2.873468 1_545
H6 W0 1.770224 1_555
H6 K1 2.595618 1_555
H6 K0 2.873467 1_655
H7 W1 1.770224 1_555
H7 K2 2.595616 1_556
H7 K0 2.873468 1_556
H8 W1 1.770224 1_555
H8 K1 2.595618 1_556
H8 K2 2.873467 1_556
H9 W2 1.739349 1_565
H10 W2 1.739349 1_665
H11 W2 1.739349 1_555
H12 W2 1.778550 1_665
H12 K2 2.677150 1_555
H13 W2 1.778550 1_556
H13 K1 2.677150 1_556
H14 W2 1.778550 1_566
H14 K0 2.677150 1_556
H15 W2 1.778550 1_565
H15 K0 2.677150 1_555
H16 W2 1.778550 1_555
H16 K1 2.677150 1_555
H17 W2 1.778550 1_666
H17 K2 2.677150 1_556
H18 W1 1.731812 1_555
H18 K0 2.849674 1_556
H18 K0 2.849674 1_555
H19 W1 1.731816 1_555
H19 K2 2.849674 1_555
H19 K2 2.849674 1_556
H20 W1 1.731821 1_555
H20 K1 2.849674 1_556
H20 K1 2.849674 1_555
H21 W0 1.731821 1_555
H21 K1 2.849674 1_556
H21 K1 2.849674 1_555
H22 W0 1.731816 1_555
H22 K0 2.849674 1_656
H22 K0 2.849674 1_655
H23 W0 1.731812 1_555
H23 K2 2.849674 1_546
H23 K2 2.849674 1_545
H24 W1 1.770224 1_555
H24 K0 2.595611 1_556
H24 K1 2.873474 1_556
H25 W1 1.770224 1_555
H25 K2 2.595616 1_555
H25 K0 2.873468 1_555
H26 W1 1.770224 1_555
H26 K1 2.595618 1_555
H26 K2 2.873467 1_555
