# generated using pymatgen
data_Y3Lu(CrB4)4
_symmetry_space_group_name_H-M   'P 1'
_cell_length_a   3.44233789
_cell_length_b   5.92556570
_cell_length_c   11.45514814
_cell_angle_alpha   89.93248998
_cell_angle_beta   90.00000000
_cell_angle_gamma   90.00000000
_symmetry_Int_Tables_number   1
_chemical_formula_structural   Y3Lu(CrB4)4
_chemical_formula_sum   'Y3 Lu1 Cr4 B16'
_cell_volume   233.65965073
_cell_formula_units_Z   1
loop_
 _symmetry_equiv_pos_site_id
 _symmetry_equiv_pos_as_xyz
  1  'x, y, z'
loop_
 _atom_site_type_symbol
 _atom_site_label
 _atom_site_symmetry_multiplicity
 _atom_site_fract_x
 _atom_site_fract_y
 _atom_site_fract_z
 _atom_site_occupancy
  Y  Y0  1  0.00000000  0.62429699  0.34882791  1
  Y  Y1  1  0.00000000  0.37559622  0.65178869  1
  Y  Y2  1  0.00000000  0.12432611  0.15071441  1
  Lu  Lu0  1  0.00000000  0.87574814  0.84894284  1
  Cr  Cr0  1  0.00000000  0.62732598  0.08155726  1
  Cr  Cr1  1  0.00000000  0.37339788  0.91647418  1
  Cr  Cr2  1  0.00000000  0.12653374  0.41780951  1
  Cr  Cr3  1  0.00000000  0.87320910  0.58408585  1
  B  B0  1  0.50000000  0.78231010  0.18386507  1
  B  B1  1  0.50000000  0.21514153  0.81565248  1
  B  B2  1  0.50000000  0.28228574  0.31550158  1
  B  B3  1  0.50000000  0.71800784  0.68615444  1
  B  B4  1  0.50000000  0.86336064  0.03053656  1
  B  B5  1  0.50000000  0.13646186  0.96671529  1
  B  B6  1  0.50000000  0.36241751  0.46839581  1
  B  B7  1  0.50000000  0.63757942  0.53297480  1
  B  B8  1  0.50000000  0.88684948  0.45397581  1
  B  B9  1  0.50000000  0.11235817  0.54739503  1
  B  B10  1  0.50000000  0.38760134  0.04551889  1
  B  B11  1  0.50000000  0.61511427  0.95204122  1
  B  B12  1  0.50000000  0.97504739  0.30902897  1
  B  B13  1  0.50000000  0.02347830  0.69287875  1
  B  B14  1  0.50000000  0.47523367  0.19044932  1
  B  B15  1  0.50000000  0.52632056  0.80871634  1
loop_
_geom_bond_atom_site_label_1
_geom_bond_atom_site_label_2
_geom_bond_distance
_geom_bond_site_symmetry_2
B0 B4 1.820334 1_555
B0 B14 1.821075 1_555
B0 B12 1.834093 1_555
B0 Cr0 2.276363 1_555
B0 Cr0 2.276363 1_655
B0 Y2 2.685531 1_565
B0 Y2 2.685531 1_665
B0 Y0 2.721362 1_655
B0 Y0 2.721362 1_555
B1 B5 1.791622 1_555
B1 B13 1.808741 1_555
B1 B15 1.845529 1_555
B1 Cr1 2.275571 1_655
B1 Cr1 2.275571 1_555
B1 Lu0 2.674052 1_545
B1 Lu0 2.674052 1_645
B1 Y1 2.717656 1_555
B1 Y1 2.717656 1_655
B2 B6 1.815189 1_555
B2 Cr2 2.277087 1_655
B2 Cr2 2.277087 1_555
B2 Y0 2.686472 1_555
B2 Y0 2.686472 1_655
B2 Y2 2.721387 1_655
B2 Y2 2.721387 1_555
B3 B7 1.818807 1_555
B3 Cr3 2.274359 1_655
B3 Cr3 2.274359 1_555
B3 Y1 2.689990 1_555
B3 Y1 2.689990 1_655
B3 Lu0 2.705096 1_555
B3 Lu0 2.705096 1_655
B4 B5 1.774971 1_564
B4 Cr0 2.293091 1_555
B4 Cr0 2.293091 1_655
B4 Y2 2.693301 1_565
B4 Y2 2.693301 1_665
B4 Lu0 2.700854 1_654
B4 Lu0 2.700854 1_554
B5 Cr1 2.294101 1_655
B5 Cr1 2.294101 1_555
B5 Lu0 2.678442 1_645
B5 Lu0 2.678442 1_545
B5 Y2 2.722093 1_656
B5 Y2 2.722093 1_556
B6 B9 1.735319 1_555
B6 B7 1.791253 1_555
B6 Cr2 2.292119 1_655
B6 Cr2 2.292119 1_555
B6 Y0 2.690992 1_655
B6 Y0 2.690992 1_555
B6 Y1 2.717027 1_555
B6 Y1 2.717027 1_655
B7 B8 1.731329 1_555
B7 Cr3 2.292733 1_655
B7 Cr3 2.292733 1_555
B7 Y1 2.686967 1_555
B7 Y1 2.686967 1_655
B7 Y0 2.723730 1_655
B7 Y0 2.723730 1_555
B8 B9 1.712939 1_565
B8 Cr2 2.269323 1_565
B8 Cr2 2.269323 1_665
B8 Cr3 2.278169 1_555
B8 Cr3 2.278169 1_655
B8 Y0 2.614966 1_555
B8 Y0 2.614966 1_655
B9 Cr3 2.268441 1_545
B9 Cr3 2.268441 1_645
B9 Cr2 2.274355 1_555
B9 Cr2 2.274355 1_655
B9 Y1 2.613417 1_555
B9 Y1 2.613417 1_655
B10 B11 1.720669 1_554
B10 B14 1.740097 1_555
B10 B5 1.741441 1_554
B10 Cr0 2.269815 1_555
B10 Cr0 2.269815 1_655
B10 Cr1 2.270452 1_554
B10 Cr1 2.270452 1_654
B10 Y2 2.616077 1_655
B10 Y2 2.616077 1_555
B11 B15 1.724646 1_555
B11 B4 1.724957 1_556
B11 Cr0 2.273556 1_656
B11 Cr0 2.273556 1_556
B11 Cr1 2.276246 1_555
B11 Cr1 2.276246 1_655
B11 Lu0 2.595782 1_555
B11 Lu0 2.595782 1_655
B12 B8 1.740108 1_555
B12 B2 1.822157 1_565
B12 Cr2 2.307288 1_665
B12 Cr2 2.307288 1_565
B12 Y2 2.651402 1_565
B12 Y2 2.651402 1_665
B12 Y0 2.736377 1_655
B12 Y0 2.736377 1_555
B13 B9 1.747184 1_555
B13 B3 1.811814 1_545
B13 Cr3 2.304564 1_545
B13 Cr3 2.304564 1_645
B13 Lu0 2.630787 1_545
B13 Lu0 2.630787 1_645
B13 Y1 2.745020 1_555
B13 Y1 2.745020 1_655
B14 B2 1.831766 1_555
B14 Cr0 2.308233 1_555
B14 Cr0 2.308233 1_655
B14 Y0 2.652903 1_655
B14 Y0 2.652903 1_555
B14 Y2 2.737778 1_655
B14 Y2 2.737778 1_555
B15 B3 1.804862 1_555
B15 Cr1 2.303172 1_555
B15 Cr1 2.303172 1_655
B15 Y1 2.644873 1_555
B15 Y1 2.644873 1_655
B15 Lu0 2.732071 1_655
B15 Lu0 2.732071 1_555
