# generated using pymatgen
data_Cs4BiPCl12
_symmetry_space_group_name_H-M   'P 1'
_cell_length_a   12.89690661
_cell_length_b   12.89690626
_cell_length_c   12.89690586
_cell_angle_alpha   132.31122101
_cell_angle_beta   132.31121639
_cell_angle_gamma   69.73793009
_symmetry_Int_Tables_number   1
_chemical_formula_structural   Cs4BiPCl12
_chemical_formula_sum   'Cs8 Bi2 P2 Cl24'
_cell_volume   1150.49219552
_cell_formula_units_Z   2
loop_
 _symmetry_equiv_pos_site_id
 _symmetry_equiv_pos_as_xyz
  1  'x, y, z'
loop_
 _atom_site_type_symbol
 _atom_site_label
 _atom_site_symmetry_multiplicity
 _atom_site_fract_x
 _atom_site_fract_y
 _atom_site_fract_z
 _atom_site_occupancy
  Cs  Cs0  1  0.37500000  0.85559879  0.98059879  1
  Cs  Cs1  1  0.60559879  0.62500000  0.48059879  1
  Cs  Cs2  1  0.87500000  0.85559879  0.48059879  1
  Cs  Cs3  1  0.60559879  0.12500000  0.98059879  1
  Cs  Cs4  1  0.87500000  0.39440121  0.01940121  1
  Cs  Cs5  1  0.14440121  0.12500000  0.51940121  1
  Cs  Cs6  1  0.37500000  0.39440121  0.51940121  1
  Cs  Cs7  1  0.14440121  0.62500000  0.01940121  1
  Bi  Bi0  1  0.50000000  0.50000000  0.00000000  1
  Bi  Bi1  1  0.25000000  0.75000000  0.50000000  1
  P  P0  1  0.00000000  0.00000000  0.00000000  1
  P  P1  1  0.75000000  0.25000000  0.50000000  1
  Cl  Cl0  1  0.75449477  0.49414736  0.26034741  1
  Cl  Cl1  1  0.50585264  0.24550523  0.73965259  1
  Cl  Cl2  1  0.37203768  0.37203768  1.00000000  1
  Cl  Cl3  1  0.12203768  0.62203768  0.50000000  1
  Cl  Cl4  1  0.37796232  0.87796232  0.50000000  1
  Cl  Cl5  1  0.62796232  0.62796232  0.00000000  1
  Cl  Cl6  1  0.10233096  0.10233096  1.00000000  1
  Cl  Cl7  1  0.85233096  0.35233096  0.50000000  1
  Cl  Cl8  1  0.64766904  0.14766904  0.50000000  1
  Cl  Cl9  1  0.89766904  0.89766904  0.00000000  1
  Cl  Cl10  1  0.20766888  0.00030758  0.20736129  1
  Cl  Cl11  1  0.75030758  0.04294629  0.29263871  1
  Cl  Cl12  1  0.50585264  0.76619904  0.26034741  1
  Cl  Cl13  1  0.54233112  0.24969242  0.29263871  1
  Cl  Cl14  1  0.95705371  0.24969242  0.70736129  1
  Cl  Cl15  1  0.99969242  0.20705371  0.20736129  1
  Cl  Cl16  1  0.99969242  0.79233112  0.79263871  1
  Cl  Cl17  1  0.79294629  0.00030758  0.79263871  1
  Cl  Cl18  1  0.75030758  0.45766888  0.70736129  1
  Cl  Cl19  1  0.24414736  0.48380096  0.23965259  1
  Cl  Cl20  1  0.24414736  0.00449477  0.76034741  1
  Cl  Cl21  1  0.99550523  0.75585264  0.23965259  1
  Cl  Cl22  1  0.51619904  0.75585264  0.76034741  1
  Cl  Cl23  1  0.23380096  0.49414736  0.73965259  1
loop_
_geom_bond_atom_site_label_1
_geom_bond_atom_site_label_2
_geom_bond_distance
_geom_bond_site_symmetry_2
Bi0 Cl5 2.708045 1_555
Bi0 Cl2 2.708045 1_554
Bi0 Cl12 2.717527 1_555
Bi0 Cl23 2.717527 1_554
Bi0 Cl1 2.717532 1_554
Bi0 Cl0 2.717532 1_555
Bi1 Cl4 2.708045 1_555
Bi1 Cl3 2.708045 1_555
Bi1 Cl19 2.717527 1_555
Bi1 Cl22 2.717527 1_555
Bi1 Cl20 2.717532 1_565
Bi1 Cl21 2.717532 1_455
Cl0 Cs1 3.640005 1_555
Cl0 Cs3 3.640005 1_554
Cl0 Cs4 3.669040 1_555
Cl0 Cs2 3.669041 1_555
Cl1 Cs6 3.640005 1_555
Cl1 Cs4 3.640006 1_556
Cl1 Cs3 3.669040 1_555
Cl1 Cs5 3.669041 1_555
Cl2 Cs7 3.546982 1_556
Cl2 Cs3 3.546982 1_555
Cl2 Cs5 3.546982 1_555
Cl2 Cs1 3.546982 1_556
Cl3 Cs2 3.546982 1_455
Cl3 Cs6 3.546982 1_555
Cl3 Cs4 3.546982 1_455
Cl3 Cs0 3.546982 1_555
Cl4 Cs1 3.546982 1_555
Cl4 Cs5 3.546982 1_565
Cl4 Cs3 3.546982 1_565
Cl4 Cs7 3.546982 1_555
Cl5 Cs4 3.546982 1_555
Cl5 Cs0 3.546982 1_554
Cl5 Cs2 3.546982 1_555
Cl5 Cs6 3.546982 1_554
Cl6 P0 2.165613 1_556
Cl6 Cs4 3.862221 1_456
Cl6 Cs0 3.862221 1_545
Cl6 Cs2 3.862221 1_445
Cl6 Cs6 3.862221 1_556
Cl7 P1 2.165613 1_555
Cl7 Cs1 3.862221 1_555
Cl7 Cs5 3.862221 1_655
Cl7 Cs3 3.862221 1_554
Cl7 Cs7 3.862221 1_656
Cl8 P1 2.165613 1_555
Cl8 Cs2 3.862221 1_545
Cl8 Cs6 3.862221 1_555
Cl8 Cs4 3.862221 1_556
Cl8 Cs0 3.862221 1_544
Cl9 P0 2.165613 1_665
Cl9 Cs7 3.862221 1_655
Cl9 Cs3 3.862221 1_564
Cl9 Cs5 3.862221 1_665
Cl9 Cs1 3.862221 1_554
Cl10 P0 2.162219 1_555
Cl10 Cs5 3.774433 1_555
Cl10 Cs7 3.774433 1_545
Cl10 Cs0 3.879729 1_544
Cl10 Cs6 3.879730 1_555
Cl11 P1 2.162218 1_555
Cl11 Cs2 3.774433 1_545
Cl11 Cs0 3.774433 1_544
Cl11 Cs3 3.879729 1_554
Cl11 Cs5 3.879730 1_655
Cl12 Cs2 3.640009 1_555
Cl12 Cs0 3.640016 1_554
Cl12 Cs1 3.669029 1_555
Cl12 Cs7 3.669036 1_555
Cl13 P1 2.162219 1_555
Cl13 Cs3 3.774433 1_554
Cl13 Cs1 3.774433 1_555
Cl13 Cs6 3.879729 1_555
Cl13 Cs0 3.879730 1_544
Cl14 P1 2.162219 1_555
Cl14 Cs5 3.774433 1_655
Cl14 Cs7 3.774433 1_656
Cl14 Cs4 3.879729 1_556
Cl14 Cs2 3.879729 1_545
Cl15 P0 2.162218 1_655
Cl15 Cs4 3.774433 1_555
Cl15 Cs6 3.774433 1_655
Cl15 Cs5 3.879729 1_655
Cl15 Cs3 3.879730 1_554
Cl16 P0 2.162218 1_666
Cl16 Cs2 3.774433 1_555
Cl16 Cs0 3.774433 1_655
Cl16 Cs7 3.879729 1_656
Cl16 Cs1 3.879730 1_555
Cl17 P0 2.162219 1_656
Cl17 Cs3 3.774433 1_555
Cl17 Cs1 3.774433 1_545
Cl17 Cs2 3.879729 1_545
Cl17 Cs4 3.879729 1_556
Cl18 P1 2.162218 1_555
Cl18 Cs4 3.774433 1_556
Cl18 Cs6 3.774433 1_555
Cl18 Cs1 3.879729 1_555
Cl18 Cs7 3.879730 1_656
Cl19 Cs4 3.640009 1_455
Cl19 Cs6 3.640016 1_555
Cl19 Cs7 3.669029 1_555
Cl19 Cs1 3.669036 1_555
Cl20 Cs0 3.640005 1_545
Cl20 Cs2 3.640006 1_445
Cl20 Cs5 3.669040 1_555
Cl20 Cs3 3.669041 1_555
Cl21 Cs7 3.640005 1_655
Cl21 Cs5 3.640005 1_665
Cl21 Cs2 3.669040 1_555
Cl21 Cs4 3.669041 1_555
Cl22 Cs3 3.640008 1_565
Cl22 Cs1 3.640016 1_555
Cl22 Cs0 3.669029 1_555
Cl22 Cs6 3.669036 1_555
Cl23 Cs5 3.640008 1_555
Cl23 Cs7 3.640016 1_556
Cl23 Cs6 3.669029 1_555
Cl23 Cs0 3.669036 1_555
