# generated using pymatgen
data_CaAs4PdF24
_symmetry_space_group_name_H-M   'P 1'
_cell_length_a   9.40621702
_cell_length_b   9.40621640
_cell_length_c   9.40621622
_cell_angle_alpha   132.46281060
_cell_angle_beta   132.46280744
_cell_angle_gamma   69.49905046
_symmetry_Int_Tables_number   1
_chemical_formula_structural   CaAs4PdF24
_chemical_formula_sum   'Ca1 As4 Pd1 F24'
_cell_volume   444.32116119
_cell_formula_units_Z   1
loop_
 _symmetry_equiv_pos_site_id
 _symmetry_equiv_pos_as_xyz
  1  'x, y, z'
loop_
 _atom_site_type_symbol
 _atom_site_label
 _atom_site_symmetry_multiplicity
 _atom_site_fract_x
 _atom_site_fract_y
 _atom_site_fract_z
 _atom_site_occupancy
  Ca  Ca0  1  0.75000000  0.25000000  0.50000000  1
  As  As0  1  0.77766082  0.77766082  1.00000000  1
  As  As1  1  0.22233918  0.22233918  0.00000000  1
  As  As2  1  0.97534401  0.47534401  0.50000000  1
  As  As3  1  0.52465599  0.02465599  0.50000000  1
  Pd  Pd0  1  0.00000000  0.00000000  0.00000000  1
  F  F0  1  0.85633278  0.76140177  0.21248045  1
  F  F1  1  0.54892032  0.64385333  0.78751955  1
  F  F2  1  0.39737389  0.79389802  0.29048132  1
  F  F3  1  0.35614667  0.14366722  0.90506899  1
  F  F4  1  0.23859823  0.45107968  0.09493101  1
  F  F5  1  0.20610198  0.49658329  0.60347487  1
  F  F6  1  0.65754380  0.25727279  0.69536578  1
  F  F7  1  0.74272721  0.43809299  0.40027201  1
  F  F8  1  0.03782198  0.34245620  0.59972799  1
  F  F9  1  0.08376795  0.28530546  0.09250758  1
  F  F10  1  0.19279788  0.99126136  0.90749242  1
  F  F11  1  0.56190701  0.96217802  0.30463422  1
  F  F12  1  0.71469454  0.80720212  0.79846348  1
  F  F13  1  0.00873864  0.91623205  0.20153652  1
  F  F14  1  0.30370346  0.10330497  0.35186261  1
  F  F15  1  0.89669503  0.24855864  0.20039949  1
  F  F16  1  0.04816015  0.69629654  0.79960051  1
  F  F17  1  0.43716791  0.30069295  0.30067177  1
  F  F18  1  0.00002119  0.13649514  0.69932823  1
  F  F19  1  0.75144136  0.95183985  0.64813739  1
  F  F20  1  0.69930705  0.99997881  0.13647396  1
  F  F21  1  0.86350486  0.56283209  0.86352604  1
  F  F22  1  0.50341671  0.10689058  0.70951868  1
  F  F23  1  0.89310942  0.60262611  0.39652513  1
loop_
_geom_bond_atom_site_label_1
_geom_bond_atom_site_label_2
_geom_bond_distance
_geom_bond_site_symmetry_2
Ca0 F17 2.275177 1_555
Ca0 F21 2.275179 1_555
Ca0 F20 2.275183 1_545
Ca0 F18 2.275183 1_655
Ca0 F7 2.466648 1_555
Ca0 F11 2.466656 1_545
Ca0 F6 2.466656 1_555
Ca0 F8 2.466662 1_655
As0 F0 1.703528 1_556
As0 F1 1.703531 1_555
As0 F12 1.761147 1_555
As0 F13 1.761152 1_656
As0 F20 1.771269 1_556
As0 F21 1.771274 1_555
As1 F3 1.703519 1_554
As1 F4 1.703537 1_555
As1 F10 1.761147 1_544
As1 F9 1.761156 1_555
As1 F18 1.771269 1_554
As1 F17 1.771271 1_555
As2 F23 1.699184 1_555
As2 F5 1.699191 1_655
As2 F8 1.764108 1_655
As2 F7 1.764119 1_555
As2 F16 1.792485 1_655
As2 F15 1.792485 1_555
As3 F2 1.699187 1_545
As3 F22 1.699194 1_555
As3 F6 1.764115 1_555
As3 F11 1.764115 1_545
As3 F19 1.792492 1_545
As3 F14 1.792493 1_555
F9 Pd0 2.445883 1_555
F10 Pd0 2.445888 1_566
F12 Pd0 2.445888 1_666
F13 Pd0 2.445880 1_565
F14 Pd0 2.212441 1_555
F15 Pd0 2.212448 1_655
F16 Pd0 2.212445 1_566
F19 Pd0 2.212438 1_666
