# generated using pymatgen
data_Cr2Te2(PbO4)3
_symmetry_space_group_name_H-M   'P 1'
_cell_length_a   9.06890206
_cell_length_b   9.06876002
_cell_length_c   7.19137164
_cell_angle_alpha   78.60134508
_cell_angle_beta   78.60086643
_cell_angle_gamma   114.51019086
_symmetry_Int_Tables_number   1
_chemical_formula_structural   Cr2Te2(PbO4)3
_chemical_formula_sum   'Cr4 Te4 Pb6 O24'
_cell_volume   500.93822722
_cell_formula_units_Z   2
loop_
 _symmetry_equiv_pos_site_id
 _symmetry_equiv_pos_as_xyz
  1  'x, y, z'
loop_
 _atom_site_type_symbol
 _atom_site_label
 _atom_site_symmetry_multiplicity
 _atom_site_fract_x
 _atom_site_fract_y
 _atom_site_fract_z
 _atom_site_occupancy
  Cr  Cr0  1  0.47892869  0.47536716  0.86945720  1
  Cr  Cr1  1  0.47536462  0.47893321  0.36945899  1
  Cr  Cr2  1  0.82449346  0.14619842  0.33319506  1
  Cr  Cr3  1  0.14619716  0.82448490  0.83319936  1
  Te  Te0  1  0.09169723  0.09969100  0.60514258  1
  Te  Te1  1  0.09966066  0.09168799  0.10515559  1
  Te  Te2  1  0.75533246  0.42951316  0.13403036  1
  Te  Te3  1  0.42952053  0.75532831  0.63403020  1
  Pb  Pb0  1  0.69271911  0.83207688  0.99451719  1
  Pb  Pb1  1  0.83207653  0.69271332  0.49451608  1
  Pb  Pb2  1  0.02636821  0.41225692  0.75134318  1
  Pb  Pb3  1  0.41223903  0.02637505  0.25135555  1
  Pb  Pb4  1  0.55549949  0.19735363  0.69090069  1
  Pb  Pb5  1  0.19735071  0.55549631  0.19089804  1
  O  O0  1  0.29295160  0.51957328  0.80618382  1
  O  O1  1  0.51956715  0.29295133  0.30618195  1
  O  O2  1  0.57240413  0.99460472  0.48309981  1
  O  O3  1  0.99459913  0.57240365  0.98309747  1
  O  O4  1  0.06297387  0.27465624  0.16327319  1
  O  O5  1  0.27467020  0.06297342  0.66327778  1
  O  O6  1  0.14513536  0.03824682  0.36362806  1
  O  O7  1  0.03825023  0.14513480  0.86362710  1
  O  O8  1  0.33882560  0.22615679  0.98888227  1
  O  O9  1  0.22616261  0.33882670  0.48888925  1
  O  O10  1  0.75905400  0.22553329  0.09296109  1
  O  O11  1  0.22553294  0.75905557  0.59296223  1
  O  O12  1  0.54728143  0.44652345  0.60623025  1
  O  O13  1  0.44652374  0.54728363  0.10623042  1
  O  O14  1  0.89228709  0.10757256  0.57853608  1
  O  O15  1  0.10756779  0.89226037  0.07853310  1
  O  O16  1  0.61301152  0.72905496  0.71103169  1
  O  O17  1  0.72905565  0.61301353  0.21102983  1
  O  O18  1  0.69220493  0.46827886  0.89774084  1
  O  O19  1  0.46828450  0.69220872  0.39774048  1
  O  O20  1  0.85910599  0.96022907  0.25781297  1
  O  O21  1  0.96023532  0.85910201  0.75781822  1
  O  O22  1  0.81886115  0.35952902  0.36879472  1
  O  O23  1  0.35952820  0.81886798  0.86879430  1
loop_
_geom_bond_atom_site_label_1
_geom_bond_atom_site_label_2
_geom_bond_distance
_geom_bond_site_symmetry_2
Cr0 O13 1.952221 1_556
Cr0 O8 1.969414 1_555
Cr0 O12 1.975451 1_555
Cr0 O0 2.001168 1_555
Cr0 O18 2.009990 1_555
Cr0 O16 2.040768 1_555
Cr1 O12 1.952227 1_555
Cr1 O9 1.969383 1_555
Cr1 O13 1.975454 1_555
Cr1 O1 2.001177 1_555
Cr1 O19 2.009918 1_555
Cr1 O17 2.040818 1_555
Cr2 O4 1.957046 1_655
Cr2 O20 1.992506 1_545
Cr2 O14 1.994184 1_555
Cr2 O22 2.020790 1_555
Cr2 O2 2.027551 1_545
Cr2 O10 2.030448 1_555
Cr3 O5 1.957082 1_565
Cr3 O21 1.992485 1_455
Cr3 O15 1.994038 1_556
Cr3 O23 2.020760 1_555
Cr3 O3 2.027472 1_455
Cr3 O11 2.030402 1_555
O0 Te3 1.946362 1_555
O0 Pb2 2.350312 1_555
O1 Te2 1.946438 1_555
O1 Pb3 2.350175 1_555
O2 Te3 1.935441 1_555
O2 Pb3 2.466690 1_565
O2 Pb4 2.620457 1_565
O3 Te2 1.935405 1_556
O3 Pb2 2.466588 1_655
O3 Pb5 2.620514 1_656
O4 Te1 1.927650 1_555
O4 Pb5 2.394078 1_555
O5 Te0 1.927899 1_555
O5 Pb4 2.394024 1_555
O6 Te0 1.958517 1_555
O6 Te1 1.993179 1_555
O6 Pb3 2.451294 1_555
O7 Te1 1.958460 1_556
O7 Te0 1.993120 1_555
O7 Pb2 2.451484 1_555
O8 Te1 1.891076 1_556
O8 Pb3 2.726617 1_556
O8 Pb4 2.739361 1_555
O9 Te0 1.890829 1_555
O9 Pb2 2.726701 1_555
O9 Pb5 2.739424 1_555
O10 Te2 1.942705 1_555
O10 Pb2 2.715737 1_654
O10 Pb3 2.740324 1_555
O11 Te3 1.942822 1_555
O11 Pb3 2.715688 1_565
O11 Pb2 2.740175 1_555
O12 Pb4 2.257476 1_555
O12 Pb1 2.446878 1_555
O13 Pb5 2.257506 1_555
O13 Pb0 2.446879 1_554
O14 Te0 1.884346 1_655
O15 Te1 1.884604 1_565
O16 Te3 1.942568 1_555
O16 Pb1 2.450151 1_555
O16 Pb0 2.515258 1_555
O17 Te2 1.942629 1_555
O17 Pb0 2.450094 1_554
O17 Pb1 2.515243 1_555
O18 Te2 1.911593 1_556
O19 Te3 1.911541 1_555
O20 Te1 1.940047 1_665
O20 Pb1 2.559808 1_555
O21 Te0 1.940292 1_665
O21 Pb0 2.559833 1_555
O22 Te2 1.961979 1_555
O22 Pb4 2.604829 1_555
O23 Te3 1.962046 1_555
O23 Pb5 2.604854 1_556
