# generated using pymatgen
data_Ti16Ir7PdO4
_symmetry_space_group_name_H-M   'P 1'
_cell_length_a   8.23264392
_cell_length_b   8.21761298
_cell_length_c   8.21761203
_cell_angle_alpha   59.99999588
_cell_angle_beta   60.06037365
_cell_angle_gamma   60.06037310
_symmetry_Int_Tables_number   1
_chemical_formula_structural   Ti16Ir7PdO4
_chemical_formula_sum   'Ti16 Ir7 Pd1 O4'
_cell_volume   393.46974838
_cell_formula_units_Z   1
loop_
 _symmetry_equiv_pos_site_id
 _symmetry_equiv_pos_as_xyz
  1  'x, y, z'
loop_
 _atom_site_type_symbol
 _atom_site_label
 _atom_site_symmetry_multiplicity
 _atom_site_fract_x
 _atom_site_fract_y
 _atom_site_fract_z
 _atom_site_occupancy
  Ti  Ti0  1  0.81873755  0.18109972  0.81906301  1
  Ti  Ti1  1  0.18261058  0.81757711  0.18223619  1
  Ti  Ti2  1  0.43426822  0.06601880  0.43369417  1
  Ti  Ti3  1  0.43426822  0.06601880  0.06601880  1
  Ti  Ti4  1  0.06888016  0.43442829  0.43442829  1
  Ti  Ti5  1  0.06888016  0.43442829  0.06226125  1
  Ti  Ti6  1  0.18261058  0.18223619  0.81757711  1
  Ti  Ti7  1  0.43426822  0.43369417  0.06601880  1
  Ti  Ti8  1  0.13389030  0.62203657  0.62203657  1
  Ti  Ti9  1  0.62113838  0.62481564  0.12923134  1
  Ti  Ti10  1  0.62113838  0.62481564  0.62481564  1
  Ti  Ti11  1  0.62113838  0.12923134  0.62481564  1
  Ti  Ti12  1  0.18261058  0.81757711  0.81757711  1
  Ti  Ti13  1  0.81873755  0.18109972  0.18109972  1
  Ti  Ti14  1  0.06888016  0.06226125  0.43442829  1
  Ti  Ti15  1  0.81873755  0.81906301  0.18109972  1
  Ir  Ir0  1  0.40487508  0.78473335  0.40519529  1
  Ir  Ir1  1  0.84097587  0.83856592  0.48189328  1
  Ir  Ir2  1  0.84097587  0.83856592  0.83856592  1
  Ir  Ir3  1  0.48302427  0.83899191  0.83899191  1
  Ir  Ir4  1  0.40487508  0.40519529  0.40519529  1
  Ir  Ir5  1  0.40487508  0.40519529  0.78473335  1
  Ir  Ir6  1  0.84097587  0.48189328  0.83856592  1
  Pd  Pd0  1  0.77217791  0.40927436  0.40927436  1
  O  O0  1  0.12373067  0.12545414  0.62536005  1
  O  O1  1  0.62525998  0.12491267  0.12491267  1
  O  O2  1  0.12373067  0.12545414  0.12545414  1
  O  O3  1  0.12373067  0.62536005  0.12545414  1
loop_
_geom_bond_atom_site_label_1
_geom_bond_atom_site_label_2
_geom_bond_distance
_geom_bond_site_symmetry_2
Ir0 Ti14 2.549118 1_565
Ir0 Ti8 2.562529 1_555
Ir0 Ti3 2.571499 1_565
Ir0 Ti2 2.571505 1_565
Ir0 Ti9 2.579560 1_555
Ir0 Ti10 2.579573 1_555
Ir1 Ti11 2.593987 1_565
Ir1 Ti10 2.593987 1_555
Ir1 Ti8 2.597577 1_655
Ir1 Ti1 2.651657 1_655
Ir1 Ti13 2.654458 1_565
Ir1 Ti15 2.654463 1_555
Ir2 Ti11 2.593987 1_565
Ir2 Ti9 2.593987 1_556
Ir2 Ti8 2.597581 1_655
Ir2 Ti12 2.651657 1_655
Ir2 Ti15 2.654455 1_556
Ir2 Ti0 2.654455 1_565
Ir3 Ti10 2.567241 1_555
Ir3 Ti9 2.567248 1_556
Ir3 Ti11 2.567248 1_565
Ir3 Ti12 2.660543 1_555
Ir3 Ti1 2.660547 1_556
Ir3 Ti6 2.660547 1_565
Ir4 Ti4 2.549121 1_555
Ir4 Ti8 2.562534 1_555
Ir4 Ti7 2.571496 1_555
Ir4 Ti2 2.571496 1_555
Ir4 Ti11 2.579570 1_555
Ir4 Ti9 2.579570 1_555
Ir5 Ti5 2.549118 1_556
Ir5 Ti8 2.562529 1_555
Ir5 Ti3 2.571500 1_556
Ir5 Ti7 2.571504 1_556
Ir5 Ti11 2.579560 1_555
Ir5 Ti10 2.579573 1_555
Ir6 Ti9 2.593987 1_556
Ir6 Ti10 2.593987 1_555
Ir6 Ti8 2.597577 1_655
Ir6 Ti6 2.651657 1_655
Ir6 Ti13 2.654458 1_556
Ir6 Ti0 2.654463 1_555
Pd0 Ti9 2.561472 1_555
Pd0 Ti10 2.561472 1_555
Pd0 Ti11 2.561472 1_555
Pd0 Ti4 2.665082 1_655
Pd0 Ti5 2.665096 1_655
Pd0 Ti14 2.665096 1_655
O0 Ti0 2.154015 1_455
O0 Ti12 2.162121 1_545
O0 Ti6 2.162133 1_555
O0 Ti4 2.165959 1_555
O0 Ti14 2.165965 1_555
O0 Ti2 2.181469 1_555
O1 Ti0 2.155189 1_554
O1 Ti15 2.155189 1_545
O1 Ti13 2.155200 1_555
O1 Ti3 2.166606 1_555
O1 Ti2 2.166617 1_555
O1 Ti7 2.166617 1_555
O2 Ti13 2.154013 1_455
O2 Ti6 2.162117 1_554
O2 Ti1 2.162117 1_545
O2 Ti14 2.165957 1_555
O2 Ti5 2.165957 1_555
O2 Ti3 2.181471 1_555
O3 Ti15 2.154015 1_455
O3 Ti12 2.162121 1_554
O3 Ti1 2.162133 1_555
O3 Ti4 2.165959 1_555
O3 Ti5 2.165965 1_555
O3 Ti7 2.181469 1_555
