# generated using pymatgen
data_Ba4Al3CrH20
_symmetry_space_group_name_H-M   'P 1'
_cell_length_a   5.07848750
_cell_length_b   7.06756818
_cell_length_c   9.27758170
_cell_angle_alpha   90.10700956
_cell_angle_beta   90.07645156
_cell_angle_gamma   90.06856407
_symmetry_Int_Tables_number   1
_chemical_formula_structural   Ba4Al3CrH20
_chemical_formula_sum   'Ba4 Al3 Cr1 H20'
_cell_volume   332.99501016
_cell_formula_units_Z   1
loop_
 _symmetry_equiv_pos_site_id
 _symmetry_equiv_pos_as_xyz
  1  'x, y, z'
loop_
 _atom_site_type_symbol
 _atom_site_label
 _atom_site_symmetry_multiplicity
 _atom_site_fract_x
 _atom_site_fract_y
 _atom_site_fract_z
 _atom_site_occupancy
  Ba  Ba0  1  0.25272801  0.34975272  0.18746243  1
  Ba  Ba1  1  0.74782112  0.65177276  0.81422650  1
  Ba  Ba2  1  0.74734287  0.85054407  0.31039710  1
  Ba  Ba3  1  0.25194385  0.15070253  0.68728583  1
  Al  Al0  1  0.73460827  0.34756707  0.45930170  1
  Al  Al1  1  0.72854302  0.15244335  0.95931041  1
  Al  Al2  1  0.22585982  0.84565516  0.04268390  1
  Cr  Cr0  1  0.22727275  0.64760404  0.53839734  1
  H  H0  1  0.92014478  0.55231564  0.51039248  1
  H  H1  1  0.41371464  0.45620336  0.49131542  1
  H  H2  1  0.41376113  0.04685649  0.99232411  1
  H  H3  1  0.90750762  0.95002956  0.01042622  1
  H  H4  1  0.01800637  0.66048440  0.08766393  1
  H  H5  1  0.52275638  0.33788926  0.91395878  1
  H  H6  1  0.51987696  0.16796217  0.41557036  1
  H  H7  1  0.02874315  0.83648960  0.57853731  1
  H  H8  1  0.49628431  0.71021815  0.08036431  1
  H  H9  1  0.00109955  0.28580272  0.92144901  1
  H  H10  1  0.00067529  0.20958719  0.42252022  1
  H  H11  1  0.49195025  0.79057714  0.57473814  1
  H  H12  1  0.22819269  0.79976421  0.86482971  1
  H  H13  1  0.73365592  0.20093128  0.13837541  1
  H  H14  1  0.73359091  0.30439801  0.63791829  1
  H  H15  1  0.23564454  0.69469682  0.35798099  1
  H  H16  1  0.21662121  0.95862866  0.20477382  1
  H  H17  1  0.71897157  0.04118960  0.79495767  1
  H  H18  1  0.72462554  0.45760455  0.29768833  1
  H  H19  1  0.22605748  0.54232949  0.70514728  1
loop_
_geom_bond_atom_site_label_1
_geom_bond_atom_site_label_2
_geom_bond_distance
_geom_bond_site_symmetry_2
Ba0 H4 2.666844 1_555
Ba0 H13 2.699309 1_555
Ba0 H18 2.712252 1_555
Ba0 H10 2.718106 1_555
Ba0 H16 2.775117 1_545
Ba0 H9 2.813210 1_554
Ba0 H6 2.824318 1_555
Ba0 H13 2.872472 1_455
Ba0 H5 2.887044 1_554
Ba0 H15 2.905194 1_555
Ba0 H2 2.919388 1_554
Ba0 H18 2.971366 1_455
Ba0 H8 3.002118 1_555
Ba0 H1 3.027504 1_555
Ba1 H5 2.662376 1_555
Ba1 H12 2.693484 1_655
Ba1 H19 2.743943 1_655
Ba1 H11 2.755199 1_555
Ba1 H17 2.762413 1_565
Ba1 H8 2.811555 1_556
Ba1 H12 2.878612 1_555
Ba1 H4 2.883056 1_656
Ba1 H3 2.896912 1_556
Ba1 H7 2.921566 1_655
Ba1 H19 2.937469 1_555
Ba1 H14 2.948310 1_555
Ba1 H0 3.034224 1_555
Ba1 H9 3.057497 1_655
Ba2 H8 2.673127 1_555
Ba2 H16 2.688536 1_655
Ba2 H6 2.705606 1_565
Ba2 H15 2.750112 1_655
Ba2 H18 2.781658 1_555
Ba2 H11 2.808451 1_555
Ba2 H4 2.822323 1_655
Ba2 H15 2.856420 1_555
Ba2 H7 2.869242 1_655
Ba2 H0 2.944523 1_555
Ba2 H13 2.949447 1_565
Ba2 H16 2.967982 1_555
Ba2 H3 2.985479 1_555
Ba2 H10 3.025765 1_665
Ba3 H7 2.686439 1_545
Ba3 H17 2.687619 1_555
Ba3 H9 2.693828 1_555
Ba3 H14 2.715016 1_555
Ba3 H19 2.775780 1_555
Ba3 H10 2.798587 1_555
Ba3 H5 2.835799 1_555
Ba3 H6 2.868976 1_555
Ba3 H14 2.885306 1_455
Ba3 H1 2.942256 1_555
Ba3 H12 2.982383 1_545
Ba3 H17 2.988011 1_455
Ba3 H11 3.009141 1_545
Ba3 H2 3.037432 1_555
Al0 H14 1.685556 1_555
Al0 H18 1.691087 1_555
Al0 H10 1.701869 1_655
Al0 H6 1.720089 1_555
Al0 H0 1.788717 1_555
Al0 H1 1.826727 1_555
Al1 H13 1.695799 1_556
Al1 H9 1.710875 1_655
Al1 H17 1.714892 1_555
Al1 H5 1.729511 1_555
Al1 H3 1.761242 1_546
Al1 H2 1.790410 1_555
Al2 H12 1.681096 1_554
Al2 H16 1.702039 1_555
Al2 H8 1.711040 1_555
Al2 H4 1.732345 1_555
Al2 H2 1.775222 1_564
Al2 H3 1.802772 1_455
Cr0 H15 1.707782 1_555
Cr0 H1 1.708558 1_555
Cr0 H11 1.713407 1_555
Cr0 H7 1.714555 1_555
Cr0 H0 1.717442 1_455
Cr0 H19 1.717924 1_555
