# generated using pymatgen
data_HgClO3
_symmetry_space_group_name_H-M   'P 1'
_cell_length_a   6.49992300
_cell_length_b   8.74189300
_cell_length_c   15.49749485
_cell_angle_alpha   62.49410105
_cell_angle_beta   90.00000000
_cell_angle_gamma   90.00000000
_symmetry_Int_Tables_number   1
_chemical_formula_structural   HgClO3
_chemical_formula_sum   'Hg8 Cl8 O24'
_cell_volume   781.05360978
_cell_formula_units_Z   8
loop_
 _symmetry_equiv_pos_site_id
 _symmetry_equiv_pos_as_xyz
  1  'x, y, z'
loop_
 _atom_site_type_symbol
 _atom_site_label
 _atom_site_symmetry_multiplicity
 _atom_site_fract_x
 _atom_site_fract_y
 _atom_site_fract_z
 _atom_site_occupancy
  Hg  Hg0  1  0.69597000  0.82397200  0.18937100  1
  Hg  Hg1  1  0.19597000  0.17602800  0.31062900  1
  Hg  Hg2  1  0.30403000  0.17602800  0.81062900  1
  Hg  Hg3  1  0.80403000  0.82397200  0.68937100  1
  Hg  Hg4  1  0.32446400  0.79566800  0.13877700  1
  Hg  Hg5  1  0.82446400  0.20433200  0.36122300  1
  Hg  Hg6  1  0.67553600  0.20433200  0.86122300  1
  Hg  Hg7  1  0.17553600  0.79566800  0.63877700  1
  Cl  Cl0  1  0.48233800  0.64957800  0.86273300  1
  Cl  Cl1  1  0.98233800  0.35042200  0.63726700  1
  Cl  Cl2  1  0.51766200  0.35042200  0.13726700  1
  Cl  Cl3  1  0.01766200  0.64957800  0.36273300  1
  Cl  Cl4  1  0.98344600  0.74394800  0.99694300  1
  Cl  Cl5  1  0.48344600  0.25605200  0.50305700  1
  Cl  Cl6  1  0.01655400  0.25605200  0.00305700  1
  Cl  Cl7  1  0.51655400  0.74394800  0.49694300  1
  O  O0  1  0.82445500  0.55029400  0.37291800  1
  O  O1  1  0.32445500  0.44970600  0.12708200  1
  O  O2  1  0.17554500  0.44970600  0.62708200  1
  O  O3  1  0.67554500  0.55029400  0.87291800  1
  O  O4  1  0.19174200  0.56777700  0.33793400  1
  O  O5  1  0.69174200  0.43222300  0.16206600  1
  O  O6  1  0.80825800  0.43222300  0.66206600  1
  O  O7  1  0.30825800  0.56777700  0.83793400  1
  O  O8  1  0.98171700  0.82954800  0.26967600  1
  O  O9  1  0.48171700  0.17045200  0.23032400  1
  O  O10  1  0.01828300  0.17045200  0.73032400  1
  O  O11  1  0.51828300  0.82954800  0.76967600  1
  O  O12  1  0.66396800  0.16697300  0.56436800  1
  O  O13  1  0.16396800  0.83302700  0.93563200  1
  O  O14  1  0.33603200  0.83302700  0.43563200  1
  O  O15  1  0.83603200  0.16697300  0.06436800  1
  O  O16  1  0.29059600  0.16272200  0.54558900  1
  O  O17  1  0.79059600  0.83727800  0.95441100  1
  O  O18  1  0.70940400  0.83727800  0.45441100  1
  O  O19  1  0.20940400  0.16272200  0.04558900  1
  O  O20  1  0.48950600  0.76329700  0.59489100  1
  O  O21  1  0.98950600  0.23670300  0.90510900  1
  O  O22  1  0.51049400  0.23670300  0.40510900  1
  O  O23  1  0.01049400  0.76329700  0.09489100  1
loop_
_geom_bond_atom_site_label_1
_geom_bond_atom_site_label_2
_geom_bond_distance
_geom_bond_site_symmetry_2
Hg0 O8 2.248765 1_555
Hg1 O9 2.248765 1_555
Hg2 O10 2.248765 1_555
Hg3 O11 2.248765 1_555
Hg4 O23 2.210251 1_555
Hg5 O22 2.210251 1_555
Hg6 O21 2.210251 1_555
Hg7 O20 2.210251 1_555
Cl0 O7 1.480954 1_555
Cl0 O3 1.492912 1_555
Cl0 O11 1.585512 1_555
Cl1 O6 1.480954 1_555
Cl1 O2 1.492912 1_655
Cl1 O10 1.585512 1_655
Cl2 O5 1.480954 1_555
Cl2 O1 1.492912 1_555
Cl2 O9 1.585512 1_555
Cl3 O4 1.480954 1_555
Cl3 O0 1.492912 1_455
Cl3 O8 1.585512 1_455
Cl4 O17 1.474679 1_555
Cl4 O13 1.484115 1_655
Cl4 O23 1.612715 1_656
Cl5 O16 1.474679 1_555
Cl5 O12 1.484115 1_555
Cl5 O22 1.612715 1_555
Cl6 O19 1.474679 1_555
Cl6 O15 1.484115 1_455
Cl6 O21 1.612715 1_454
Cl7 O18 1.474679 1_555
Cl7 O14 1.484115 1_555
Cl7 O20 1.612715 1_555
