# generated using pymatgen
data_K3LuBi2
_symmetry_space_group_name_H-M   'P 1'
_cell_length_a   10.00140679
_cell_length_b   10.00140818
_cell_length_c   10.00140776
_cell_angle_alpha   129.17778364
_cell_angle_beta   69.36256506
_cell_angle_gamma   136.11432225
_symmetry_Int_Tables_number   1
_chemical_formula_structural   K3LuBi2
_chemical_formula_sum   'K6 Lu2 Bi4'
_cell_volume   527.66692091
_cell_formula_units_Z   2
loop_
 _symmetry_equiv_pos_site_id
 _symmetry_equiv_pos_as_xyz
  1  'x, y, z'
loop_
 _atom_site_type_symbol
 _atom_site_label
 _atom_site_symmetry_multiplicity
 _atom_site_fract_x
 _atom_site_fract_y
 _atom_site_fract_z
 _atom_site_occupancy
  K  K0  1  0.25000000  0.25000000  0.00000000  1
  K  K1  1  0.75000000  0.75000000  0.00000000  1
  K  K2  1  0.31290827  0.80604886  0.11895713  1
  K  K3  1  0.18709173  0.30604786  0.49314059  1
  K  K4  1  0.81290827  0.69395214  0.50686041  1
  K  K5  1  0.68709173  0.19395114  0.88104187  1
  Lu  Lu0  1  0.75000000  0.25000000  0.50000000  1
  Lu  Lu1  1  0.25000000  0.74999900  0.49999900  1
  Bi  Bi0  1  0.89762072  0.29958555  0.19720326  1
  Bi  Bi1  1  0.60237928  0.79958555  0.40196483  1
  Bi  Bi2  1  0.39762072  0.20041445  0.59803517  1
  Bi  Bi3  1  0.10237928  0.70041445  0.80279574  1
loop_
_geom_bond_atom_site_label_1
_geom_bond_atom_site_label_2
_geom_bond_distance
_geom_bond_site_symmetry_2
K0 K1 3.737340 1_555
K0 K1 3.737340 1_445
K0 K4 4.456843 1_444
K0 K5 4.456846 1_554
K0 K2 4.456849 1_555
K0 K3 4.456853 1_555
K1 K4 4.456843 1_554
K1 K5 4.456844 1_554
K1 K2 4.456848 1_555
K1 K3 4.456849 1_665
K2 Lu1 3.966619 1_555
K2 Lu0 3.966623 1_565
K2 K5 4.379102 1_454
K2 K5 4.379109 1_564
K3 Lu0 3.966629 1_455
K3 Lu1 3.966630 1_555
K3 K4 4.379091 1_445
K3 K4 4.379097 1_555
K4 Lu0 3.966627 1_555
K4 Lu1 3.966630 1_655
K5 Lu0 3.966613 1_555
K5 Lu1 3.966620 1_545
Bi0 Lu1 3.047484 1_655
Bi0 Lu0 3.047503 1_555
Bi0 K5 3.579688 1_554
Bi0 K0 3.597262 1_655
Bi0 K1 3.597274 1_545
Bi0 K4 3.660596 1_555
Bi0 K2 3.989020 1_655
Bi0 K2 3.989040 1_545
Bi1 Lu1 3.047470 1_555
Bi1 Lu0 3.047475 1_565
Bi1 K4 3.579704 1_555
Bi1 K0 3.597265 1_555
Bi1 K1 3.597265 1_555
Bi1 K5 3.660578 1_565
Bi1 K3 3.989038 1_665
Bi1 K3 3.989045 1_555
Bi2 Lu0 3.047475 1_555
Bi2 Lu1 3.047480 1_545
Bi2 K3 3.579697 1_555
Bi2 K1 3.597265 1_556
Bi2 K0 3.597265 1_556
Bi2 K2 3.660585 1_545
Bi2 K4 3.989038 1_445
Bi2 K4 3.989039 1_555
Bi3 Lu0 3.047484 1_455
Bi3 Lu1 3.047498 1_555
Bi3 K2 3.579688 1_556
Bi3 K1 3.597263 1_456
Bi3 K0 3.597271 1_566
Bi3 K3 3.660594 1_555
Bi3 K5 3.989020 1_455
Bi3 K5 3.989040 1_565
