# generated using pymatgen
data_Ba2BeAs2
_symmetry_space_group_name_H-M   'P 1'
_cell_length_a   8.17176000
_cell_length_b   8.17175962
_cell_length_c   8.17175960
_cell_angle_alpha   134.21736075
_cell_angle_beta   130.38926787
_cell_angle_gamma   69.79625727
_symmetry_Int_Tables_number   1
_chemical_formula_structural   Ba2BeAs2
_chemical_formula_sum   'Ba4 Be2 As4'
_cell_volume   292.15510234
_cell_formula_units_Z   2
loop_
 _symmetry_equiv_pos_site_id
 _symmetry_equiv_pos_as_xyz
  1  'x, y, z'
loop_
 _atom_site_type_symbol
 _atom_site_label
 _atom_site_symmetry_multiplicity
 _atom_site_fract_x
 _atom_site_fract_y
 _atom_site_fract_z
 _atom_site_occupancy
  Ba  Ba0  1  0.66344486  0.86144452  0.80200034  1
  Ba  Ba1  1  0.33655514  0.13855548  0.19799966  1
  Ba  Ba2  1  0.94055481  0.63855548  0.30200034  1
  Ba  Ba3  1  0.05944519  0.36144452  0.69799966  1
  Be  Be0  1  0.50000000  0.25000000  0.75000000  1
  Be  Be1  1  0.50000000  0.75000000  0.25000000  1
  As  As0  1  0.41487105  0.59967849  0.81519156  1
  As  As1  1  0.58512895  0.40032151  0.18480844  1
  As  As2  1  0.21551306  0.90032151  0.31519156  1
  As  As3  1  0.78448694  0.09967849  0.68480844  1
loop_
_geom_bond_atom_site_label_1
_geom_bond_atom_site_label_2
_geom_bond_distance
_geom_bond_site_symmetry_2
Ba0 Be1 3.203648 1_555
Ba0 Be0 3.203648 1_565
Ba1 Be0 3.203648 1_555
Ba1 Be1 3.203648 1_545
Ba2 Be1 3.203640 1_555
Ba2 Be0 3.203643 1_554
Ba3 Be0 3.203640 1_555
Ba3 Be1 3.203643 1_556
As0 Be0 2.432492 1_555
As0 Be1 2.432496 1_556
As0 Ba3 3.292948 1_555
As0 Ba1 3.319834 1_555
As0 Ba1 3.319840 1_566
As0 Ba2 3.378334 1_556
As0 Ba0 3.509995 1_555
As0 Ba2 3.557189 1_455
As1 Be1 2.432492 1_555
As1 Be0 2.432496 1_554
As1 Ba2 3.292948 1_555
As1 Ba0 3.319834 1_555
As1 Ba0 3.319840 1_544
As1 Ba3 3.378334 1_554
As1 Ba1 3.509995 1_555
As1 Ba3 3.557189 1_655
As2 Be0 2.432492 1_565
As2 Be1 2.432492 1_555
As2 Ba1 3.292948 1_565
As2 Ba3 3.319832 1_565
As2 Ba3 3.319838 1_554
As2 Ba0 3.378343 1_555
As2 Ba2 3.510008 1_455
As2 Ba0 3.557184 1_454
As3 Be1 2.432492 1_545
As3 Be0 2.432492 1_555
As3 Ba0 3.292948 1_545
As3 Ba2 3.319832 1_545
As3 Ba2 3.319838 1_556
As3 Ba1 3.378343 1_555
As3 Ba3 3.510008 1_655
As3 Ba1 3.557184 1_656
