# generated using pymatgen
data_Hf6Al16Ir5Au2
_symmetry_space_group_name_H-M   'P 1'
_cell_length_a   8.69503862
_cell_length_b   8.69503879
_cell_length_c   8.68908634
_cell_angle_alpha   60.02264312
_cell_angle_beta   60.02264249
_cell_angle_gamma   59.95471250
_symmetry_Int_Tables_number   1
_chemical_formula_structural   Hf6Al16Ir5Au2
_chemical_formula_sum   'Hf6 Al16 Ir5 Au2'
_cell_volume   464.51713753
_cell_formula_units_Z   1
loop_
 _symmetry_equiv_pos_site_id
 _symmetry_equiv_pos_as_xyz
  1  'x, y, z'
loop_
 _atom_site_type_symbol
 _atom_site_label
 _atom_site_symmetry_multiplicity
 _atom_site_fract_x
 _atom_site_fract_y
 _atom_site_fract_z
 _atom_site_occupancy
  Hf  Hf0  1  0.68849537  0.31150463  0.31150463  1
  Hf  Hf1  1  0.31150463  0.68849537  0.68849537  1
  Hf  Hf2  1  0.31150463  0.68849537  0.31150463  1
  Hf  Hf3  1  0.68849537  0.31150463  0.68849537  1
  Hf  Hf4  1  0.32690549  0.32690549  0.67309451  1
  Hf  Hf5  1  0.67309451  0.67309451  0.32690549  1
  Al  Al0  1  0.33453267  0.33453267  0.34053332  1
  Al  Al1  1  0.66546733  0.66546733  0.65946668  1
  Al  Al2  1  0.33453267  0.33453267  0.99040133  1
  Al  Al3  1  0.34053332  0.99040133  0.33453267  1
  Al  Al4  1  0.66546733  0.66546733  0.00959867  1
  Al  Al5  1  0.65946668  0.00959867  0.66546733  1
  Al  Al6  1  0.99040133  0.34053332  0.33453267  1
  Al  Al7  1  0.00959867  0.65946668  0.66546733  1
  Al  Al8  1  0.12510182  0.12510182  0.10675570  1
  Al  Al9  1  0.87489818  0.87489818  0.89324430  1
  Al  Al10  1  0.12510182  0.12510182  0.64303966  1
  Al  Al11  1  0.10675570  0.64303966  0.12510182  1
  Al  Al12  1  0.87489818  0.87489818  0.35696034  1
  Al  Al13  1  0.89324430  0.35696034  0.87489818  1
  Al  Al14  1  0.64303966  0.10675570  0.12510182  1
  Al  Al15  1  0.35696034  0.89324430  0.87489818  1
  Ir  Ir0  1  0.50000000  0.00000000  0.00000000  1
  Ir  Ir1  1  0.00000000  0.50000000  0.50000000  1
  Ir  Ir2  1  0.00000000  0.50000000  0.00000000  1
  Ir  Ir3  1  0.50000000  0.00000000  0.50000000  1
  Ir  Ir4  1  0.00000000  0.00000000  0.00000000  1
  Au  Au0  1  0.00000000  0.00000000  0.50000000  1
  Au  Au1  1  0.50000000  0.50000000  0.00000000  1
loop_
_geom_bond_atom_site_label_1
_geom_bond_atom_site_label_2
_geom_bond_distance
_geom_bond_site_symmetry_2
Hf0 Hf4 3.146705 1_555
Hf0 Hf5 3.146705 1_555
Hf0 Ir2 3.167744 1_655
Hf0 Ir3 3.167744 1_555
Hf0 Hf2 3.275705 1_555
Hf0 Hf3 3.275705 1_555
Hf1 Hf5 3.146705 1_555
Hf1 Hf4 3.146705 1_555
Hf1 Ir2 3.167744 1_556
Hf1 Ir3 3.167744 1_565
Hf1 Hf3 3.275705 1_555
Hf1 Hf2 3.275705 1_555
Hf2 Hf5 3.146705 1_555
Hf2 Hf4 3.146705 1_555
Hf2 Ir1 3.167744 1_555
Hf2 Ir0 3.167744 1_565
Hf3 Hf4 3.146705 1_555
Hf3 Hf5 3.146705 1_555
Hf3 Ir1 3.167744 1_655
Hf3 Ir0 3.167744 1_556
Hf4 Ir1 3.214508 1_555
Hf4 Ir2 3.214508 1_556
Hf4 Ir3 3.214508 1_555
Hf4 Ir0 3.214508 1_556
Hf5 Ir2 3.214508 1_655
Hf5 Ir1 3.214508 1_655
Hf5 Ir0 3.214508 1_565
Hf5 Ir3 3.214508 1_565
Al0 Ir1 2.494930 1_555
Al0 Ir3 2.494930 1_555
Al0 Au1 2.541570 1_555
Al0 Hf4 2.824939 1_555
Al0 Hf0 2.869438 1_555
Al0 Hf2 2.869438 1_555
Al1 Ir1 2.494930 1_655
Al1 Ir3 2.494930 1_565
Al1 Au1 2.541570 1_556
Al1 Hf5 2.824939 1_555
Al1 Hf1 2.869438 1_555
Al1 Hf3 2.869438 1_555
Al2 Ir2 2.494930 1_556
Al2 Ir0 2.494930 1_556
Al2 Au1 2.541570 1_556
Al2 Hf4 2.824939 1_555
Al2 Hf3 2.869438 1_555
Al2 Hf1 2.869438 1_555
Al3 Ir3 2.494930 1_565
Al3 Ir0 2.494930 1_565
Al3 Au0 2.541570 1_565
Al3 Hf5 2.824939 1_555
Al3 Hf1 2.869438 1_555
Al3 Hf2 2.869438 1_555
Al4 Ir2 2.494930 1_655
Al4 Ir0 2.494930 1_565
Al4 Au1 2.541570 1_555
Al4 Hf5 2.824939 1_555
Al4 Hf2 2.869438 1_555
Al4 Hf0 2.869438 1_555
Al5 Ir3 2.494930 1_555
Al5 Ir0 2.494930 1_556
Al5 Au0 2.541570 1_655
Al5 Hf4 2.824939 1_555
Al5 Hf0 2.869438 1_555
Al5 Hf3 2.869438 1_555
Al6 Ir1 2.494930 1_655
Al6 Ir2 2.494930 1_655
Al6 Au0 2.541570 1_655
Al6 Hf5 2.824939 1_555
Al6 Hf3 2.869438 1_555
Al6 Hf0 2.869438 1_555
Al7 Ir1 2.494930 1_555
Al7 Ir2 2.494930 1_556
Al7 Au0 2.541570 1_565
Al7 Hf4 2.824939 1_555
Al7 Hf2 2.869438 1_555
Al7 Hf1 2.869438 1_555
Al8 Ir4 2.535437 1_555
Al8 Ir0 2.665635 1_555
Al8 Ir2 2.665635 1_555
Al8 Au0 2.792526 1_555
Al8 Hf0 3.189800 1_455
Al8 Hf2 3.189801 1_545
Al8 Hf4 3.197662 1_554
Al9 Ir4 2.535437 1_666
Al9 Ir0 2.665635 1_566
Al9 Ir2 2.665635 1_656
Al9 Au0 2.792526 1_665
Al9 Hf1 3.189800 1_655
Al9 Hf3 3.189801 1_565
Al9 Hf5 3.197662 1_556
Al10 Ir4 2.535444 1_556
Al10 Ir3 2.665635 1_555
Al10 Ir1 2.665635 1_555
Al10 Au0 2.792519 1_555
Al10 Hf3 3.189799 1_455
Al10 Hf1 3.189799 1_545
Al10 Hf4 3.197667 1_555
Al11 Ir4 2.535444 1_565
Al11 Ir2 2.665628 1_555
Al11 Ir1 2.665635 1_555
Al11 Au1 2.792526 1_555
Al11 Hf1 3.189799 1_554
Al11 Hf2 3.189806 1_555
Al11 Hf5 3.197660 1_455
Al12 Ir4 2.535444 1_665
Al12 Ir3 2.665635 1_565
Al12 Ir1 2.665635 1_655
Al12 Au0 2.792519 1_665
Al12 Hf2 3.189799 1_655
Al12 Hf0 3.189799 1_565
Al12 Hf5 3.197667 1_555
Al13 Ir4 2.535444 1_656
Al13 Ir2 2.665628 1_656
Al13 Ir1 2.665635 1_655
Al13 Au1 2.792526 1_556
Al13 Hf0 3.189799 1_556
Al13 Hf3 3.189806 1_555
Al13 Hf4 3.197660 1_655
Al14 Ir4 2.535444 1_655
Al14 Ir0 2.665628 1_555
Al14 Ir3 2.665635 1_555
Al14 Au1 2.792526 1_555
Al14 Hf3 3.189799 1_554
Al14 Hf0 3.189806 1_555
Al14 Hf5 3.197660 1_545
Al15 Ir4 2.535444 1_566
Al15 Ir0 2.665628 1_566
Al15 Ir3 2.665635 1_565
Al15 Au1 2.792526 1_556
Al15 Hf2 3.189799 1_556
Al15 Hf1 3.189806 1_555
Al15 Hf4 3.197660 1_565
Au0 Hf1 3.163658 1_545
Au0 Hf0 3.163658 1_455
Au0 Hf3 3.163658 1_455
Au0 Hf2 3.163658 1_545
Au1 Hf2 3.163658 1_555
Au1 Hf3 3.163658 1_554
Au1 Hf0 3.163658 1_555
Au1 Hf1 3.163658 1_554
