# generated using pymatgen
data_Hf6Zn23H
_symmetry_space_group_name_H-M   'P 1'
_cell_length_a   8.56119493
_cell_length_b   8.56119430
_cell_length_c   8.56119466
_cell_angle_alpha   60.00000233
_cell_angle_beta   60.00000479
_cell_angle_gamma   60.00000503
_symmetry_Int_Tables_number   1
_chemical_formula_structural   Hf6Zn23H
_chemical_formula_sum   'Hf6 Zn23 H1'
_cell_volume   443.69869672
_cell_formula_units_Z   1
loop_
 _symmetry_equiv_pos_site_id
 _symmetry_equiv_pos_as_xyz
  1  'x, y, z'
loop_
 _atom_site_type_symbol
 _atom_site_label
 _atom_site_symmetry_multiplicity
 _atom_site_fract_x
 _atom_site_fract_y
 _atom_site_fract_z
 _atom_site_occupancy
  Hf  Hf0  1  0.68713731  0.31286269  0.31286269  1
  Hf  Hf1  1  0.31286269  0.68713731  0.68713731  1
  Hf  Hf2  1  0.31286269  0.68713731  0.31286269  1
  Hf  Hf3  1  0.68713731  0.31286269  0.68713731  1
  Hf  Hf4  1  0.31286269  0.31286269  0.68713731  1
  Hf  Hf5  1  0.68713731  0.68713731  0.31286269  1
  Zn  Zn0  1  0.12081769  0.12081769  0.12081769  1
  Zn  Zn1  1  0.87918231  0.87918231  0.87918231  1
  Zn  Zn2  1  0.12081769  0.12081769  0.63754694  1
  Zn  Zn3  1  0.12081769  0.63754694  0.12081769  1
  Zn  Zn4  1  0.87918231  0.87918231  0.36245306  1
  Zn  Zn5  1  0.87918231  0.36245306  0.87918231  1
  Zn  Zn6  1  0.63754694  0.12081769  0.12081769  1
  Zn  Zn7  1  0.36245306  0.87918231  0.87918231  1
  Zn  Zn8  1  0.50000000  0.00000000  0.00000000  1
  Zn  Zn9  1  0.00000000  0.50000000  0.50000000  1
  Zn  Zn10  1  0.00000000  0.50000000  0.00000000  1
  Zn  Zn11  1  0.50000000  0.00000000  0.50000000  1
  Zn  Zn12  1  0.00000000  0.00000000  0.50000000  1
  Zn  Zn13  1  0.50000000  0.50000000  0.00000000  1
  Zn  Zn14  1  0.33249119  0.33249119  0.33249119  1
  Zn  Zn15  1  0.66750881  0.66750881  0.66750881  1
  Zn  Zn16  1  0.33249119  0.33249119  0.00252844  1
  Zn  Zn17  1  0.33249119  0.00252844  0.33249119  1
  Zn  Zn18  1  0.66750881  0.66750881  0.99747156  1
  Zn  Zn19  1  0.66750881  0.99747156  0.66750881  1
  Zn  Zn20  1  0.00252844  0.33249119  0.33249119  1
  Zn  Zn21  1  0.99747156  0.66750881  0.66750881  1
  Zn  Zn22  1  0.00000000  0.00000000  0.00000000  1
  H  H0  1  0.50000000  0.50000000  0.50000000  1
loop_
_geom_bond_atom_site_label_1
_geom_bond_atom_site_label_2
_geom_bond_distance
_geom_bond_site_symmetry_2
Hf0 Zn14 2.877980 1_555
Hf0 Zn18 2.877987 1_554
Hf0 Zn19 2.877987 1_545
Hf0 Zn20 2.877997 1_655
Hf0 Zn6 3.112206 1_555
Hf0 Zn4 3.112206 1_545
Hf0 Zn5 3.112206 1_554
Hf0 Zn0 3.112206 1_655
Hf0 Zn11 3.121063 1_555
Hf0 Zn13 3.121063 1_555
Hf0 Zn10 3.121063 1_655
Hf0 Zn12 3.121063 1_655
Hf1 Zn15 2.877980 1_555
Hf1 Zn16 2.877987 1_556
Hf1 Zn17 2.877987 1_565
Hf1 Zn21 2.877997 1_455
Hf1 Zn7 3.112206 1_555
Hf1 Zn2 3.112206 1_565
Hf1 Zn3 3.112206 1_556
Hf1 Zn1 3.112206 1_455
Hf1 Zn11 3.121063 1_565
Hf1 Zn13 3.121063 1_556
Hf1 Zn10 3.121063 1_556
Hf1 Zn12 3.121063 1_565
Hf2 Zn14 2.877980 1_555
Hf2 Zn21 2.877988 1_455
Hf2 Zn18 2.877988 1_554
Hf2 Zn17 2.877997 1_565
Hf2 Zn3 3.112206 1_555
Hf2 Zn0 3.112206 1_565
Hf2 Zn7 3.112206 1_554
Hf2 Zn4 3.112206 1_455
Hf2 Zn8 3.121063 1_565
Hf2 Zn9 3.121063 1_555
Hf2 Zn13 3.121063 1_555
Hf2 Zn12 3.121063 1_565
Hf3 Zn15 2.877980 1_555
Hf3 Zn20 2.877988 1_655
Hf3 Zn16 2.877988 1_556
Hf3 Zn19 2.877997 1_545
Hf3 Zn5 3.112206 1_555
Hf3 Zn1 3.112206 1_545
Hf3 Zn6 3.112206 1_556
Hf3 Zn2 3.112206 1_655
Hf3 Zn8 3.121063 1_556
Hf3 Zn9 3.121063 1_655
Hf3 Zn13 3.121063 1_556
Hf3 Zn12 3.121063 1_655
Hf4 Zn14 2.877980 1_555
Hf4 Zn21 2.877988 1_455
Hf4 Zn19 2.877988 1_545
Hf4 Zn16 2.877997 1_556
Hf4 Zn2 3.112206 1_555
Hf4 Zn7 3.112206 1_545
Hf4 Zn0 3.112206 1_556
Hf4 Zn5 3.112206 1_455
Hf4 Zn11 3.121063 1_555
Hf4 Zn8 3.121063 1_556
Hf4 Zn9 3.121063 1_555
Hf4 Zn10 3.121063 1_556
Hf5 Zn15 2.877980 1_555
Hf5 Zn20 2.877988 1_655
Hf5 Zn17 2.877988 1_565
Hf5 Zn18 2.877997 1_554
Hf5 Zn4 3.112206 1_555
Hf5 Zn6 3.112206 1_565
Hf5 Zn1 3.112206 1_554
Hf5 Zn3 3.112206 1_655
Hf5 Zn11 3.121063 1_565
Hf5 Zn8 3.121063 1_565
Hf5 Zn9 3.121063 1_655
Hf5 Zn10 3.121063 1_655
Zn0 Zn22 2.533614 1_555
Zn0 Zn10 2.651844 1_555
Zn0 Zn12 2.651845 1_555
Zn0 Zn8 2.651845 1_555
Zn0 Zn16 2.684613 1_555
Zn0 Zn20 2.684613 1_555
Zn0 Zn17 2.684613 1_555
Zn0 Zn4 2.925566 1_445
Zn0 Zn7 2.925566 1_544
Zn0 Zn5 2.925566 1_454
Zn1 Zn22 2.533614 1_666
Zn1 Zn10 2.651844 1_656
Zn1 Zn12 2.651845 1_665
Zn1 Zn8 2.651845 1_566
Zn1 Zn18 2.684613 1_555
Zn1 Zn21 2.684613 1_555
Zn1 Zn19 2.684613 1_555
Zn1 Zn2 2.925566 1_665
Zn1 Zn3 2.925566 1_656
Zn1 Zn6 2.925566 1_566
Zn2 Zn22 2.533614 1_556
Zn2 Zn9 2.651844 1_555
Zn2 Zn20 2.684599 1_555
Zn2 Zn5 2.925566 1_455
Zn2 Zn7 2.925566 1_545
Zn3 Zn9 2.651845 1_555
Zn3 Zn7 2.925566 1_554
Zn3 Zn4 2.925566 1_455
Zn4 Zn9 2.651844 1_655
Zn4 Zn6 2.925566 1_565
Zn5 Zn9 2.651845 1_655
Zn5 Zn6 2.925566 1_556
Zn6 Zn8 2.651844 1_555
Zn7 Zn8 2.651844 1_566
Zn10 Zn20 2.471472 1_555
Zn10 Zn21 2.471472 1_454
Zn10 Zn16 2.471472 1_555
Zn10 Zn18 2.471472 1_454
Zn10 Zn3 2.651844 1_555
Zn10 Zn5 2.651844 1_454
Zn11 Zn19 2.471457 1_545
Zn11 Zn17 2.471457 1_555
Zn11 Zn14 2.471467 1_555
Zn11 Zn15 2.471467 1_545
Zn11 Zn7 2.651845 1_545
Zn11 Zn6 2.651845 1_555
Zn11 Zn4 2.651845 1_545
Zn11 Zn2 2.651845 1_555
Zn12 Zn20 2.471472 1_555
Zn12 Zn21 2.471472 1_445
Zn12 Zn17 2.471472 1_555
Zn12 Zn19 2.471472 1_445
Zn12 Zn2 2.651844 1_555
Zn12 Zn4 2.651844 1_445
Zn13 Zn18 2.471457 1_554
Zn13 Zn16 2.471457 1_555
Zn13 Zn15 2.471467 1_554
Zn13 Zn14 2.471467 1_555
Zn13 Zn7 2.651845 1_554
Zn13 Zn6 2.651845 1_555
Zn13 Zn5 2.651845 1_554
Zn13 Zn3 2.651845 1_555
Zn14 Zn9 2.471467 1_555
Zn14 Zn2 2.684608 1_555
Zn14 Zn3 2.684608 1_555
Zn14 Zn6 2.684608 1_555
Zn14 Zn17 2.824875 1_555
Zn14 Zn16 2.824875 1_555
Zn14 Zn20 2.824875 1_555
Zn15 Zn9 2.471467 1_655
Zn15 Zn4 2.684608 1_555
Zn15 Zn5 2.684608 1_555
Zn15 Zn7 2.684608 1_555
Zn15 Zn19 2.824875 1_555
Zn15 Zn18 2.824875 1_555
Zn15 Zn21 2.824875 1_555
Zn16 Zn8 2.471472 1_555
Zn16 Zn3 2.684599 1_555
Zn16 Zn6 2.684599 1_555
Zn16 Zn17 2.824875 1_555
Zn16 Zn20 2.824876 1_555
Zn17 Zn8 2.471472 1_555
Zn17 Zn2 2.684599 1_555
Zn17 Zn6 2.684599 1_555
Zn17 Zn20 2.824875 1_555
Zn18 Zn8 2.471472 1_566
Zn18 Zn5 2.684599 1_555
Zn18 Zn7 2.684599 1_555
Zn18 Zn19 2.824875 1_555
Zn18 Zn21 2.824876 1_555
Zn19 Zn8 2.471472 1_566
Zn19 Zn4 2.684599 1_555
Zn19 Zn7 2.684599 1_555
Zn19 Zn21 2.824875 1_555
Zn20 Zn9 2.471457 1_555
Zn20 Zn3 2.684599 1_555
Zn21 Zn9 2.471457 1_655
Zn21 Zn5 2.684599 1_555
Zn21 Zn4 2.684599 1_555
Zn22 Zn5 2.533614 1_454
Zn22 Zn3 2.533614 1_545
Zn22 Zn4 2.533614 1_445
Zn22 Zn7 2.533615 1_544
Zn22 Zn6 2.533615 1_455
H0 Hf5 2.265738 1_555
H0 Hf4 2.265738 1_555
H0 Hf1 2.265738 1_555
H0 Hf0 2.265738 1_555
H0 Hf3 2.265738 1_555
H0 Hf2 2.265738 1_555
