# generated using pymatgen
data_GaAu2
_symmetry_space_group_name_H-M   'P 1'
_cell_length_a   3.35997519
_cell_length_b   6.86989368
_cell_length_c   9.09923822
_cell_angle_alpha   90.00000000
_cell_angle_beta   100.63952651
_cell_angle_gamma   90.00000000
_symmetry_Int_Tables_number   1
_chemical_formula_structural   GaAu2
_chemical_formula_sum   'Ga4 Au8'
_cell_volume   206.42386201
_cell_formula_units_Z   4
loop_
 _symmetry_equiv_pos_site_id
 _symmetry_equiv_pos_as_xyz
  1  'x, y, z'
loop_
 _atom_site_type_symbol
 _atom_site_label
 _atom_site_symmetry_multiplicity
 _atom_site_fract_x
 _atom_site_fract_y
 _atom_site_fract_z
 _atom_site_occupancy
  Ga  Ga0  1  0.29033693  0.27453464  0.58067587  1
  Ga  Ga1  1  0.70966307  0.77453464  0.41932413  1
  Ga  Ga2  1  0.05909634  0.30499901  0.11819268  1
  Ga  Ga3  1  0.94090366  0.80499901  0.88180632  1
  Au  Au0  1  0.91334477  0.17735076  0.82668954  1
  Au  Au1  1  0.08665523  0.67735076  0.17331046  1
  Au  Au2  1  0.82962073  0.54979652  0.65924246  1
  Au  Au3  1  0.17037927  0.04979652  0.34075754  1
  Au  Au4  1  0.32283935  0.90455493  0.64567971  1
  Au  Au5  1  0.67716065  0.40455493  0.35432029  1
  Au  Au6  1  0.46445053  0.50076215  0.92890007  1
  Au  Au7  1  0.53554947  0.00076215  0.07109993  1
loop_
_geom_bond_atom_site_label_1
_geom_bond_atom_site_label_2
_geom_bond_distance
_geom_bond_site_symmetry_2
Au0 Ga3 2.605072 1_545
Au0 Ga2 2.750401 1_656
Au0 Ga0 2.847512 1_655
Au0 Ga0 2.847516 1_555
Au1 Ga2 2.605074 1_555
Au1 Ga3 2.750409 1_454
Au1 Ga1 2.847512 1_455
Au1 Ga1 2.847516 1_555
Au2 Ga0 2.625255 1_655
Au2 Ga0 2.625257 1_555
Au2 Ga1 2.643306 1_555
Au2 Ga3 2.652402 1_555
Au3 Ga1 2.625255 1_445
Au3 Ga1 2.625257 1_545
Au3 Ga0 2.643306 1_555
Au3 Ga2 2.652408 1_555
Au4 Ga0 2.607350 1_565
Au4 Ga1 2.778093 1_455
Au4 Ga1 2.778098 1_555
Au4 Ga3 2.783724 1_455
Au4 Ga3 2.783728 1_555
Au5 Ga1 2.607350 1_555
Au5 Ga0 2.778093 1_655
Au5 Ga0 2.778098 1_555
Au5 Ga2 2.783732 1_655
Au5 Ga2 2.783734 1_555
Au6 Ga3 2.714432 1_555
Au6 Ga3 2.714432 1_455
Au6 Ga2 2.737997 1_656
Au6 Ga2 2.737999 1_556
Au7 Ga2 2.714429 1_555
Au7 Ga2 2.714431 1_655
Au7 Ga3 2.738002 1_444
Au7 Ga3 2.738006 1_544
