# generated using pymatgen
data_Ba6VMo2H27
_symmetry_space_group_name_H-M   'P 1'
_cell_length_a   9.55121145
_cell_length_b   9.55121078
_cell_length_c   5.37090772
_cell_angle_alpha   90.00000000
_cell_angle_beta   90.00000000
_cell_angle_gamma   120.00000932
_symmetry_Int_Tables_number   1
_chemical_formula_structural   Ba6VMo2H27
_chemical_formula_sum   'Ba6 V1 Mo2 H27'
_cell_volume   424.32163051
_cell_formula_units_Z   1
loop_
 _symmetry_equiv_pos_site_id
 _symmetry_equiv_pos_as_xyz
  1  'x, y, z'
loop_
 _atom_site_type_symbol
 _atom_site_label
 _atom_site_symmetry_multiplicity
 _atom_site_fract_x
 _atom_site_fract_y
 _atom_site_fract_z
 _atom_site_occupancy
  Ba  Ba0  1  0.00000000  0.26046688  0.50000000  1
  Ba  Ba1  1  0.73953312  0.73953312  0.50000000  1
  Ba  Ba2  1  0.26046688  0.00000000  0.50000000  1
  Ba  Ba3  1  0.00000000  0.61333066  0.00000000  1
  Ba  Ba4  1  0.38666934  0.38666934  0.00000000  1
  Ba  Ba5  1  0.61333066  0.00000000  0.00000000  1
  V  V0  1  0.00000000  0.00000000  0.00000000  1
  Mo  Mo0  1  0.66666700  0.33333300  0.50000000  1
  Mo  Mo1  1  0.33333300  0.66666700  0.50000000  1
  H  H0  1  0.78854581  0.32159166  0.74198857  1
  H  H1  1  0.67840834  0.46695216  0.74198857  1
  H  H2  1  0.53304784  0.21145419  0.74198857  1
  H  H3  1  0.21145419  0.53304784  0.25801143  1
  H  H4  1  0.53304784  0.21145419  0.25801143  1
  H  H5  1  0.78854581  0.32159166  0.25801143  1
  H  H6  1  0.67840834  0.46695216  0.25801143  1
  H  H7  1  0.32159166  0.78854581  0.74198857  1
  H  H8  1  0.46695216  0.67840834  0.74198857  1
  H  H9  1  0.18682394  1.00000000  0.00000000  1
  H  H10  1  0.81317606  0.81317606  0.00000000  1
  H  H11  1  1.00000000  0.18682394  0.00000000  1
  H  H12  1  0.86615306  0.00000000  0.22760075  1
  H  H13  1  0.13384694  0.13384694  0.77239925  1
  H  H14  1  0.00000000  0.86615306  0.77239925  1
  H  H15  1  0.00000000  0.86615306  0.22760075  1
  H  H16  1  0.13384694  0.13384694  0.22760075  1
  H  H17  1  0.86615306  0.00000000  0.77239925  1
  H  H18  1  0.14333131  0.65275116  0.50000000  1
  H  H19  1  0.50942084  0.85666869  0.50000000  1
  H  H20  1  0.34724884  0.49057916  0.50000000  1
  H  H21  1  0.49057916  0.34724884  0.50000000  1
  H  H22  1  0.85666869  0.50942084  0.50000000  1
  H  H23  1  0.65275116  0.14333131  0.50000000  1
  H  H24  1  0.21145419  0.53304784  0.74198857  1
  H  H25  1  0.32159166  0.78854581  0.25801143  1
  H  H26  1  0.46695216  0.67840834  0.25801143  1
loop_
_geom_bond_atom_site_label_1
_geom_bond_atom_site_label_2
_geom_bond_distance
_geom_bond_site_symmetry_2
Ba0 H17 2.604499 1_455
Ba0 H12 2.604499 1_455
Ba0 H13 2.604499 1_555
Ba0 H16 2.604499 1_555
Ba0 H5 2.699651 1_455
Ba0 H0 2.699651 1_455
Ba0 H3 2.699662 1_555
Ba0 H24 2.699662 1_555
Ba0 H11 2.776041 1_455
Ba0 H11 2.776041 1_456
Ba0 H20 2.922533 1_555
Ba0 H23 2.922535 1_455
Ba1 H17 2.604499 1_565
Ba1 H12 2.604499 1_565
Ba1 H14 2.604499 1_655
Ba1 H15 2.604499 1_655
Ba1 H1 2.699667 1_555
Ba1 H6 2.699667 1_555
Ba1 H26 2.699667 1_555
Ba1 H8 2.699667 1_555
Ba1 H10 2.776041 1_556
Ba1 H10 2.776041 1_555
Ba1 H22 2.922526 1_555
Ba1 H19 2.922526 1_555
Ba2 H14 2.604499 1_545
Ba2 H15 2.604499 1_545
Ba2 H13 2.604499 1_555
Ba2 H16 2.604499 1_555
Ba2 H25 2.699651 1_545
Ba2 H7 2.699651 1_545
Ba2 H4 2.699662 1_555
Ba2 H2 2.699662 1_555
Ba2 H9 2.776041 1_546
Ba2 H9 2.776041 1_545
Ba2 H21 2.922533 1_555
Ba2 H18 2.922535 1_545
Ba3 H15 2.706545 1_555
Ba3 H14 2.706545 1_554
Ba3 H24 2.852353 1_554
Ba3 H3 2.852353 1_555
Ba3 H0 2.852364 1_454
Ba3 H5 2.852364 1_455
Ba3 H22 2.951627 1_454
Ba3 H22 2.951627 1_455
Ba3 H18 2.951628 1_554
Ba3 H18 2.951628 1_555
Ba3 H1 3.002545 1_454
Ba3 H6 3.002545 1_455
Ba3 H7 3.002546 1_554
Ba3 H25 3.002546 1_555
Ba4 H16 2.706544 1_555
Ba4 H13 2.706544 1_554
Ba4 H8 2.852369 1_554
Ba4 H26 2.852369 1_555
Ba4 H6 2.852369 1_555
Ba4 H1 2.852369 1_554
Ba4 H20 2.951624 1_555
Ba4 H20 2.951624 1_554
Ba4 H21 2.951625 1_554
Ba4 H21 2.951625 1_555
Ba4 H2 3.002561 1_554
Ba4 H4 3.002561 1_555
Ba4 H24 3.002561 1_554
Ba4 H3 3.002561 1_555
Ba5 H12 2.706545 1_555
Ba5 H17 2.706545 1_554
Ba5 H2 2.852353 1_554
Ba5 H4 2.852353 1_555
Ba5 H7 2.852365 1_544
Ba5 H25 2.852365 1_545
Ba5 H19 2.951627 1_544
Ba5 H19 2.951627 1_545
Ba5 H23 2.951628 1_555
Ba5 H23 2.951628 1_554
Ba5 H8 3.002545 1_544
Ba5 H26 3.002545 1_545
Ba5 H0 3.002546 1_554
Ba5 H5 3.002546 1_555
H0 Mo0 1.785341 1_555
H1 Mo0 1.785335 1_555
H2 Mo0 1.785338 1_555
H3 Mo1 1.785338 1_555
H4 Mo0 1.785338 1_555
H5 Mo0 1.785341 1_555
H6 Mo0 1.785335 1_555
H7 Mo1 1.785341 1_555
H8 Mo1 1.785335 1_555
H9 V0 1.784395 1_565
H10 V0 1.784395 1_665
H11 V0 1.784395 1_655
H12 V0 1.768792 1_655
H13 V0 1.768792 1_556
H14 V0 1.768792 1_566
H15 V0 1.768792 1_565
H16 V0 1.768792 1_555
H17 V0 1.768792 1_656
H18 Mo1 1.752075 1_555
H19 Mo1 1.752083 1_555
H20 Mo1 1.752094 1_555
H21 Mo0 1.752094 1_555
H22 Mo0 1.752083 1_555
H23 Mo0 1.752075 1_555
H24 Mo1 1.785338 1_555
H25 Mo1 1.785341 1_555
H26 Mo1 1.785335 1_555
