# generated using pymatgen
data_Sr5Sn2Pb
_symmetry_space_group_name_H-M   'P 1'
_cell_length_a   10.28837195
_cell_length_b   10.28837203
_cell_length_c   10.28837131
_cell_angle_alpha   130.40136870
_cell_angle_beta   130.40136673
_cell_angle_gamma   72.76592234
_symmetry_Int_Tables_number   1
_chemical_formula_structural   Sr5Sn2Pb
_chemical_formula_sum   'Sr10 Sn4 Pb2'
_cell_volume   616.98695376
_cell_formula_units_Z   2
loop_
 _symmetry_equiv_pos_site_id
 _symmetry_equiv_pos_as_xyz
  1  'x, y, z'
loop_
 _atom_site_type_symbol
 _atom_site_label
 _atom_site_symmetry_multiplicity
 _atom_site_fract_x
 _atom_site_fract_y
 _atom_site_fract_z
 _atom_site_occupancy
  Sr  Sr0  1  0.00000000  0.00000000  0.00000000  1
  Sr  Sr1  1  0.50000000  0.50000000  0.00000000  1
  Sr  Sr2  1  0.81712229  0.31712329  0.85571467  1
  Sr  Sr3  1  0.46140762  0.96140862  0.14428633  1
  Sr  Sr4  1  0.68287771  0.53859238  0.50000100  1
  Sr  Sr5  1  0.03859238  0.18287771  0.50000100  1
  Sr  Sr6  1  0.18287671  0.68287771  0.14428633  1
  Sr  Sr7  1  0.53859238  0.03859238  0.85571467  1
  Sr  Sr8  1  0.96140862  0.81712329  0.50000100  1
  Sr  Sr9  1  0.31712329  0.46140862  0.50000100  1
  Sn  Sn0  1  0.88011667  0.38011667  0.26023335  1
  Sn  Sn1  1  0.11988333  0.61988333  0.73976665  1
  Sn  Sn2  1  0.61988333  0.88011667  0.50000000  1
  Sn  Sn3  1  0.38011667  0.11988333  0.50000000  1
  Pb  Pb0  1  0.25000000  0.25000000  0.00000000  1
  Pb  Pb1  1  0.75000000  0.75000000  0.00000000  1
loop_
_geom_bond_atom_site_label_1
_geom_bond_atom_site_label_2
_geom_bond_distance
_geom_bond_site_symmetry_2
Sn0 Sn1 2.926520 1_655
Sn0 Sr7 3.378895 1_554
Sn0 Sr2 3.378900 1_554
Sn0 Sr0 3.439981 1_655
Sn0 Sr1 3.439981 1_555
Sn0 Sr4 3.489447 1_555
Sn0 Sr5 3.489447 1_655
Sn0 Sr8 3.489447 1_555
Sn0 Sr9 3.489447 1_655
Sn1 Sr3 3.378899 1_556
Sn1 Sr6 3.378910 1_556
Sn1 Sr0 3.439981 1_566
Sn1 Sr1 3.439981 1_556
Sn1 Sr9 3.489442 1_555
Sn1 Sr8 3.489442 1_455
Sn1 Sr5 3.489442 1_555
Sn1 Sr4 3.489442 1_455
Sn2 Sn3 2.926520 1_565
Sn2 Sr8 3.378900 1_555
Sn2 Sr4 3.378900 1_555
Sn2 Sr1 3.439981 1_555
Sn2 Sr0 3.439981 1_666
Sn2 Sr3 3.489438 1_555
Sn2 Sr7 3.489439 1_565
Sn2 Sr2 3.489447 1_565
Sn2 Sr6 3.489449 1_555
Sn3 Sr5 3.378900 1_555
Sn3 Sr9 3.378900 1_555
Sn3 Sr1 3.439981 1_556
Sn3 Sr0 3.439981 1_555
Sn3 Sr3 3.489433 1_545
Sn3 Sr7 3.489439 1_555
Sn3 Sr2 3.489442 1_555
Sn3 Sr6 3.489444 1_545
Pb0 Sr5 3.667635 1_554
Pb0 Sr8 3.667635 1_444
Pb0 Sr3 3.667641 1_545
Pb0 Sr6 3.667643 1_555
Pb0 Sr7 3.667644 1_554
Pb0 Sr9 3.667645 1_555
Pb0 Sr4 3.667646 1_555
Pb0 Sr2 3.667646 1_454
Pb1 Sr6 3.667633 1_655
Pb1 Sr4 3.667635 1_554
Pb1 Sr2 3.667635 1_554
Pb1 Sr9 3.667635 1_554
Pb1 Sr7 3.667645 1_564
Pb1 Sr8 3.667645 1_555
Pb1 Sr5 3.667645 1_665
Pb1 Sr3 3.667651 1_555
