# generated using pymatgen
data_Ca4AlInPt4
_symmetry_space_group_name_H-M   'P 1'
_cell_length_a   5.73350292
_cell_length_b   5.73350337
_cell_length_c   7.96990148
_cell_angle_alpha   78.43830518
_cell_angle_beta   78.43830103
_cell_angle_gamma   59.85283131
_symmetry_Int_Tables_number   1
_chemical_formula_structural   Ca4AlInPt4
_chemical_formula_sum   'Ca4 Al1 In1 Pt4'
_cell_volume   220.41576347
_cell_formula_units_Z   1
loop_
 _symmetry_equiv_pos_site_id
 _symmetry_equiv_pos_as_xyz
  1  'x, y, z'
loop_
 _atom_site_type_symbol
 _atom_site_label
 _atom_site_symmetry_multiplicity
 _atom_site_fract_x
 _atom_site_fract_y
 _atom_site_fract_z
 _atom_site_occupancy
  Ca  Ca0  1  0.78884780  0.50924358  0.85253899  1
  Ca  Ca1  1  0.49075642  0.21115220  0.64746101  1
  Ca  Ca2  1  0.21031769  0.49231649  0.14944956  1
  Ca  Ca3  1  0.50768351  0.78968231  0.35055044  1
  Al  Al0  1  0.88500126  0.11499874  0.25000000  1
  In  In0  1  0.14808734  0.85191266  0.75000000  1
  Pt  Pt0  1  0.99045856  0.73422749  0.49120692  1
  Pt  Pt1  1  0.26577251  0.00954144  0.00879308  1
  Pt  Pt2  1  0.98393478  0.27085987  0.48437975  1
  Pt  Pt3  1  0.72914013  0.01606522  0.01562025  1
loop_
_geom_bond_atom_site_label_1
_geom_bond_atom_site_label_2
_geom_bond_distance
_geom_bond_site_symmetry_2
Ca0 Pt3 3.020401 1_556
Ca0 Pt1 3.049951 1_656
Ca0 Pt0 3.157152 1_555
Ca0 Pt1 3.172874 1_566
Ca0 Pt2 3.238065 1_555
Ca0 Pt3 3.253760 1_566
Ca0 In0 3.366688 1_555
Ca0 In0 3.393612 1_655
Ca0 In0 3.446286 1_645
Ca0 Ca1 3.655495 1_655
Ca0 Ca1 3.655495 1_565
Ca0 Ca2 3.662378 1_656
Ca0 Ca1 3.699602 1_555
Ca0 Ca2 3.700880 1_556
Ca1 Pt2 3.020401 1_555
Ca1 Pt0 3.049951 1_545
Ca1 Pt1 3.157152 1_556
Ca1 Pt0 3.172874 1_455
Ca1 Pt3 3.238065 1_556
Ca1 Pt2 3.253760 1_455
Ca1 In0 3.366688 1_555
Ca1 In0 3.393612 1_545
Ca1 In0 3.446286 1_645
Ca1 Ca3 3.662378 1_545
Ca1 Ca3 3.700881 1_555
Ca2 Pt3 3.029746 1_555
Ca2 Pt1 3.039161 1_555
Ca2 Pt0 3.051817 1_455
Ca2 Pt2 3.054562 1_455
Ca2 Pt3 3.056236 1_465
Ca2 Pt1 3.102203 1_565
Ca2 In0 3.405675 1_554
Ca2 Ca3 3.648711 1_455
Ca2 Ca3 3.648712 1_545
Ca2 Ca3 3.673282 1_555
Ca3 Pt2 3.029746 1_555
Ca3 Pt0 3.039161 1_555
Ca3 Pt1 3.051818 1_565
Ca3 Pt3 3.054562 1_565
Ca3 Pt2 3.056236 1_465
Ca3 Pt0 3.102203 1_455
Ca3 In0 3.405675 1_555
Al0 Pt3 2.492530 1_555
Al0 Pt2 2.492530 1_555
Al0 Pt1 2.507007 1_655
Al0 Pt0 2.507007 1_545
Al0 Ca3 3.275085 1_645
Al0 Ca2 3.275085 1_645
Al0 Ca3 3.400033 1_545
Al0 Ca2 3.400033 1_655
Al0 Ca1 3.467848 1_555
Al0 Ca0 3.467848 1_554
Al0 Ca2 3.525340 1_555
Al0 Ca3 3.525340 1_555
In0 Pt0 2.728333 1_455
In0 Pt1 2.728333 1_566
In0 Pt3 2.761646 1_466
In0 Pt2 2.761647 1_465
Pt0 Pt2 2.687209 1_555
Pt0 Pt2 3.047798 1_565
Pt1 Pt3 2.687209 1_555
Pt1 Pt3 3.047797 1_455
