# generated using pymatgen
data_Tl(FeTe)3
_symmetry_space_group_name_H-M   'P 1'
_cell_length_a   9.45290983
_cell_length_b   9.45290983
_cell_length_c   4.25184900
_cell_angle_alpha   90.00000000
_cell_angle_beta   90.00000000
_cell_angle_gamma   119.99999879
_symmetry_Int_Tables_number   1
_chemical_formula_structural   Tl(FeTe)3
_chemical_formula_sum   'Tl2 Fe6 Te6'
_cell_volume   329.03303227
_cell_formula_units_Z   2
loop_
 _symmetry_equiv_pos_site_id
 _symmetry_equiv_pos_as_xyz
  1  'x, y, z'
loop_
 _atom_site_type_symbol
 _atom_site_label
 _atom_site_symmetry_multiplicity
 _atom_site_fract_x
 _atom_site_fract_y
 _atom_site_fract_z
 _atom_site_occupancy
  Tl  Tl0  1  0.66666700  0.33333300  0.25000000  1
  Tl  Tl1  1  0.33333300  0.66666700  0.75000000  1
  Fe  Fe0  1  0.16194500  0.14142500  0.25000000  1
  Fe  Fe1  1  0.02052000  0.16194500  0.75000000  1
  Fe  Fe2  1  0.14142500  0.97948000  0.75000000  1
  Fe  Fe3  1  0.85857500  0.02052000  0.25000000  1
  Fe  Fe4  1  0.97948000  0.83805500  0.25000000  1
  Fe  Fe5  1  0.83805500  0.85857500  0.75000000  1
  Te  Te0  1  0.04435900  0.34644500  0.25000000  1
  Te  Te1  1  0.69791400  0.04435900  0.75000000  1
  Te  Te2  1  0.34644500  0.30208600  0.75000000  1
  Te  Te3  1  0.65355500  0.69791400  0.25000000  1
  Te  Te4  1  0.30208600  0.95564100  0.25000000  1
  Te  Te5  1  0.95564100  0.65355500  0.75000000  1
loop_
_geom_bond_atom_site_label_1
_geom_bond_atom_site_label_2
_geom_bond_distance
_geom_bond_site_symmetry_2
Fe0 Fe3 2.500512 1_455
Fe0 Fe4 2.500512 1_445
Fe0 Fe1 2.569775 1_555
Fe0 Fe1 2.569775 1_554
Fe0 Fe2 2.569775 1_544
Fe0 Fe2 2.569775 1_545
Fe0 Te0 2.673138 1_555
Fe0 Te4 2.676879 1_545
Fe0 Te2 2.686832 1_554
Fe0 Te2 2.686832 1_555
Fe1 Fe2 2.500512 1_545
Fe1 Fe5 2.500512 1_445
Fe1 Fe3 2.569775 1_456
Fe1 Fe3 2.569775 1_455
Fe1 Te1 2.673138 1_455
Fe1 Te2 2.676879 1_555
Fe1 Te0 2.686832 1_556
Fe1 Te0 2.686832 1_555
Fe2 Fe5 2.500512 1_455
Fe2 Fe4 2.569775 1_456
Fe2 Fe4 2.569775 1_455
Fe2 Te2 2.673138 1_565
Fe2 Te5 2.676879 1_455
Fe2 Te4 2.686832 1_556
Fe2 Te4 2.686832 1_555
Fe3 Fe4 2.500512 1_545
Fe3 Fe5 2.569775 1_544
Fe3 Fe5 2.569775 1_545
Fe3 Te3 2.673138 1_545
Fe3 Te0 2.676879 1_655
Fe3 Te1 2.686832 1_554
Fe3 Te1 2.686832 1_555
Fe4 Fe5 2.569775 1_555
Fe4 Fe5 2.569775 1_554
Fe4 Te4 2.673138 1_655
Fe4 Te3 2.676879 1_555
Fe4 Te5 2.686832 1_555
Fe4 Te5 2.686832 1_554
Fe5 Te5 2.673138 1_555
Fe5 Te1 2.676879 1_565
Fe5 Te3 2.686832 1_555
Fe5 Te3 2.686832 1_556
Te0 Tl0 3.509957 1_455
Te0 Tl1 3.588256 1_555
Te0 Tl1 3.588256 1_554
Te1 Tl1 3.509961 1_545
Te1 Tl0 3.588251 1_556
Te1 Tl0 3.588251 1_555
Te2 Tl1 3.509966 1_555
Te2 Tl0 3.588259 1_555
Te2 Tl0 3.588259 1_556
Te3 Tl0 3.509966 1_555
Te3 Tl1 3.588259 1_554
Te3 Tl1 3.588259 1_555
Te4 Tl0 3.509961 1_565
Te4 Tl1 3.588251 1_554
Te4 Tl1 3.588251 1_555
Te5 Tl1 3.509957 1_655
Te5 Tl0 3.588256 1_555
Te5 Tl0 3.588256 1_556
