# generated using pymatgen
data_KBi(SeO4)2
_symmetry_space_group_name_H-M   'P 1'
_cell_length_a   4.93138454
_cell_length_b   4.93138446
_cell_length_c   8.92094279
_cell_angle_alpha   90.45916114
_cell_angle_beta   90.45916249
_cell_angle_gamma   63.72299457
_symmetry_Int_Tables_number   1
_chemical_formula_structural   KBi(SeO4)2
_chemical_formula_sum   'K1 Bi1 Se2 O8'
_cell_volume   194.51763131
_cell_formula_units_Z   1
loop_
 _symmetry_equiv_pos_site_id
 _symmetry_equiv_pos_as_xyz
  1  'x, y, z'
loop_
 _atom_site_type_symbol
 _atom_site_label
 _atom_site_symmetry_multiplicity
 _atom_site_fract_x
 _atom_site_fract_y
 _atom_site_fract_z
 _atom_site_occupancy
  K  K0  1  0.95638373  0.04361527  0.00000000  1
  Bi  Bi0  1  0.00725117  0.99274783  0.50000000  1
  Se  Se0  1  0.30740306  0.30765142  0.26556713  1
  Se  Se1  1  0.69234758  0.69259594  0.73443187  1
  O  O0  1  0.17230441  0.46232608  0.10513185  1
  O  O1  1  0.28489105  0.98134100  0.28247406  1
  O  O2  1  0.66461219  0.23981809  0.28804821  1
  O  O3  1  0.10762450  0.50928051  0.41498199  1
  O  O4  1  0.49072049  0.89237550  0.58501701  1
  O  O5  1  0.76018191  0.33538881  0.71195279  1
  O  O6  1  0.01865800  0.71510795  0.71752494  1
  O  O7  1  0.53767392  0.82769659  0.89486815  1
loop_
_geom_bond_atom_site_label_1
_geom_bond_atom_site_label_2
_geom_bond_distance
_geom_bond_site_symmetry_2
K0 O0 2.748650 1_645
K0 O7 2.748656 1_644
K0 O7 2.859452 1_544
K0 O0 2.859463 1_655
K0 O5 2.897639 1_554
K0 O2 2.897644 1_555
K0 O1 2.928352 1_645
K0 O6 2.928360 1_644
Bi0 O3 2.331654 1_555
Bi0 O4 2.331661 1_555
Bi0 O6 2.369815 1_555
Bi0 O1 2.369822 1_555
Bi0 O2 2.465275 1_465
Bi0 O5 2.465285 1_465
O0 Se0 1.620604 1_555
O1 Se0 1.669373 1_565
O2 Se0 1.651908 1_555
O3 Se0 1.693631 1_555
O4 Se1 1.693629 1_555
O5 Se1 1.651895 1_555
O6 Se1 1.669373 1_455
O7 Se1 1.620613 1_555
