# generated using pymatgen
data_Hf3TaMn2N
_symmetry_space_group_name_H-M   'P 1'
_cell_length_a   8.40190018
_cell_length_b   8.40189942
_cell_length_c   8.40190055
_cell_angle_alpha   59.99999941
_cell_angle_beta   60.00000242
_cell_angle_gamma   59.99999860
_symmetry_Int_Tables_number   1
_chemical_formula_structural   Hf3TaMn2N
_chemical_formula_sum   'Hf12 Ta4 Mn8 N4'
_cell_volume   419.38948379
_cell_formula_units_Z   4
loop_
 _symmetry_equiv_pos_site_id
 _symmetry_equiv_pos_as_xyz
  1  'x, y, z'
loop_
 _atom_site_type_symbol
 _atom_site_label
 _atom_site_symmetry_multiplicity
 _atom_site_fract_x
 _atom_site_fract_y
 _atom_site_fract_z
 _atom_site_occupancy
  Hf  Hf0  1  0.81210926  0.81210926  0.18789074  1
  Hf  Hf1  1  0.18789074  0.18789074  0.81210926  1
  Hf  Hf2  1  0.81210926  0.18789074  0.81210926  1
  Hf  Hf3  1  0.18789074  0.81210926  0.18789074  1
  Hf  Hf4  1  0.18789074  0.81210926  0.81210926  1
  Hf  Hf5  1  0.81210926  0.18789074  0.18789074  1
  Hf  Hf6  1  0.43789074  0.43789074  0.06210926  1
  Hf  Hf7  1  0.06210926  0.06210926  0.43789074  1
  Hf  Hf8  1  0.43789074  0.06210926  0.43789074  1
  Hf  Hf9  1  0.06210926  0.43789074  0.06210926  1
  Hf  Hf10  1  0.06210926  0.43789074  0.43789074  1
  Hf  Hf11  1  0.43789074  0.06210926  0.06210926  1
  Ta  Ta0  1  0.12500000  0.62500000  0.62500000  1
  Ta  Ta1  1  0.62500000  0.12500000  0.62500000  1
  Ta  Ta2  1  0.62500000  0.62500000  0.12500000  1
  Ta  Ta3  1  0.62500000  0.62500000  0.62500000  1
  Mn  Mn0  1  0.74038224  0.41987259  0.41987259  1
  Mn  Mn1  1  0.41987259  0.74038224  0.41987259  1
  Mn  Mn2  1  0.41987259  0.41987259  0.74038224  1
  Mn  Mn3  1  0.41987259  0.41987259  0.41987259  1
  Mn  Mn4  1  0.50961776  0.83012741  0.83012741  1
  Mn  Mn5  1  0.83012741  0.50961776  0.83012741  1
  Mn  Mn6  1  0.83012741  0.83012741  0.50961776  1
  Mn  Mn7  1  0.83012741  0.83012741  0.83012741  1
  N  N0  1  0.62500000  0.12500000  0.12500000  1
  N  N1  1  0.12500000  0.62500000  0.12500000  1
  N  N2  1  0.12500000  0.12500000  0.62500000  1
  N  N3  1  0.12500000  0.12500000  0.12500000  1
loop_
_geom_bond_atom_site_label_1
_geom_bond_atom_site_label_2
_geom_bond_distance
_geom_bond_site_symmetry_2
Hf0 N0 2.229442 1_565
Hf0 N1 2.229442 1_655
Hf0 Mn6 2.862523 1_555
Hf0 Mn7 2.862523 1_554
Hf0 Ta2 3.058566 1_555
Hf0 Ta3 3.058566 1_555
Hf0 Mn0 3.067703 1_555
Hf0 Mn1 3.067704 1_555
Hf1 N2 2.229442 1_555
Hf1 N3 2.229442 1_556
Hf1 Mn4 2.862522 1_545
Hf1 Mn5 2.862522 1_455
Hf1 Ta0 3.058565 1_555
Hf1 Ta1 3.058566 1_555
Hf1 Mn2 3.067703 1_555
Hf1 Mn3 3.067704 1_555
Hf2 N2 2.229442 1_655
Hf2 N0 2.229442 1_556
Hf2 Mn7 2.862522 1_545
Hf2 Mn5 2.862522 1_555
Hf2 Ta3 3.058565 1_555
Hf2 Ta1 3.058566 1_555
Hf2 Mn2 3.067703 1_555
Hf2 Mn0 3.067704 1_555
Hf3 N3 2.229442 1_565
Hf3 N1 2.229442 1_555
Hf3 Mn6 2.862523 1_455
Hf3 Mn4 2.862523 1_554
Hf3 Ta2 3.058566 1_555
Hf3 Ta0 3.058566 1_555
Hf3 Mn3 3.067703 1_555
Hf3 Mn1 3.067704 1_555
Hf4 N2 2.229442 1_565
Hf4 N1 2.229442 1_556
Hf4 Mn4 2.862522 1_555
Hf4 Mn7 2.862522 1_455
Hf4 Ta0 3.058566 1_555
Hf4 Ta3 3.058566 1_555
Hf4 Mn2 3.067703 1_555
Hf4 Mn1 3.067704 1_555
Hf5 N0 2.229442 1_555
Hf5 N3 2.229442 1_655
Hf5 Mn6 2.862522 1_545
Hf5 Mn5 2.862522 1_554
Hf5 Ta2 3.058565 1_555
Hf5 Ta1 3.058566 1_555
Hf5 Mn0 3.067703 1_555
Hf5 Mn3 3.067704 1_555
Hf6 N0 2.229442 1_555
Hf6 N1 2.229442 1_555
Hf6 Mn2 2.862523 1_554
Hf6 Mn3 2.862523 1_555
Hf6 Ta2 3.058566 1_555
Hf6 Ta3 3.058566 1_554
Hf6 Mn4 3.067703 1_554
Hf6 Mn5 3.067704 1_554
Hf7 N2 2.229442 1_555
Hf7 N3 2.229442 1_555
Hf7 Mn0 2.862522 1_455
Hf7 Mn1 2.862522 1_545
Hf7 Ta0 3.058565 1_545
Hf7 Ta1 3.058566 1_455
Hf7 Mn6 3.067703 1_445
Hf7 Mn7 3.067704 1_445
Hf8 N2 2.229442 1_555
Hf8 N0 2.229442 1_555
Hf8 Mn3 2.862522 1_555
Hf8 Mn1 2.862522 1_545
Hf8 Ta3 3.058565 1_545
Hf8 Ta1 3.058566 1_555
Hf8 Mn6 3.067703 1_545
Hf8 Mn4 3.067704 1_545
Hf9 N3 2.229442 1_555
Hf9 N1 2.229442 1_555
Hf9 Mn2 2.862523 1_554
Hf9 Mn0 2.862523 1_455
Hf9 Ta2 3.058566 1_455
Hf9 Ta0 3.058566 1_554
Hf9 Mn7 3.067703 1_454
Hf9 Mn5 3.067704 1_454
Hf10 N2 2.229442 1_555
Hf10 N1 2.229442 1_555
Hf10 Mn0 2.862522 1_455
Hf10 Mn3 2.862522 1_555
Hf10 Ta0 3.058566 1_555
Hf10 Ta3 3.058566 1_455
Hf10 Mn6 3.067703 1_455
Hf10 Mn5 3.067704 1_455
Hf11 N0 2.229442 1_555
Hf11 N3 2.229442 1_555
Hf11 Mn2 2.862522 1_554
Hf11 Mn1 2.862522 1_545
Hf11 Ta2 3.058565 1_545
Hf11 Ta1 3.058566 1_554
Hf11 Mn4 3.067703 1_544
Hf11 Mn7 3.067704 1_544
Mn0 Ta1 2.551311 1_555
Mn0 Ta3 2.551311 1_555
Mn0 Ta2 2.551312 1_555
Mn0 Mn1 2.692890 1_555
Mn0 Mn3 2.692890 1_555
Mn0 Mn2 2.692890 1_555
Mn1 Ta3 2.551312 1_555
Mn1 Ta0 2.551312 1_555
Mn1 Ta2 2.551312 1_555
Mn1 Mn3 2.692890 1_555
Mn1 Mn2 2.692890 1_555
Mn2 Ta1 2.551311 1_555
Mn2 Ta3 2.551311 1_555
Mn2 Ta0 2.551311 1_555
Mn2 Mn3 2.692890 1_555
Mn3 Ta1 2.551311 1_555
Mn3 Ta0 2.551311 1_555
Mn3 Ta2 2.551312 1_555
Mn4 Ta1 2.551311 1_565
Mn4 Ta3 2.551311 1_555
Mn4 Ta2 2.551312 1_556
Mn4 Mn5 2.692890 1_555
Mn4 Mn7 2.692890 1_555
Mn4 Mn6 2.692890 1_555
Mn5 Ta3 2.551312 1_555
Mn5 Ta0 2.551312 1_655
Mn5 Ta2 2.551312 1_556
Mn5 Mn7 2.692890 1_555
Mn5 Mn6 2.692890 1_555
Mn6 Ta1 2.551311 1_565
Mn6 Ta3 2.551311 1_555
Mn6 Ta0 2.551311 1_655
Mn6 Mn7 2.692890 1_555
Mn7 Ta1 2.551311 1_565
Mn7 Ta0 2.551311 1_655
Mn7 Ta2 2.551312 1_556
