# generated using pymatgen
data_YCo2GeC
_symmetry_space_group_name_H-M   'P 1'
_cell_length_a   5.59594570
_cell_length_b   5.59594509
_cell_length_c   6.78472321
_cell_angle_alpha   90.00000000
_cell_angle_beta   90.00000000
_cell_angle_gamma   140.76828116
_symmetry_Int_Tables_number   1
_chemical_formula_structural   YCo2GeC
_chemical_formula_sum   'Y2 Co4 Ge2 C2'
_cell_volume   134.37265781
_cell_formula_units_Z   2
loop_
 _symmetry_equiv_pos_site_id
 _symmetry_equiv_pos_as_xyz
  1  'x, y, z'
loop_
 _atom_site_type_symbol
 _atom_site_label
 _atom_site_symmetry_multiplicity
 _atom_site_fract_x
 _atom_site_fract_y
 _atom_site_fract_z
 _atom_site_occupancy
  Y  Y0  1  0.55029895  0.44970105  0.25000000  1
  Y  Y1  1  0.44970105  0.55029895  0.75000000  1
  Co  Co0  1  0.83921181  0.16078819  0.05656186  1
  Co  Co1  1  0.16078819  0.83921181  0.94343814  1
  Co  Co2  1  0.16078819  0.83921181  0.55656186  1
  Co  Co3  1  0.83921181  0.16078819  0.44343814  1
  Ge  Ge0  1  0.27084981  0.72915019  0.25000000  1
  Ge  Ge1  1  0.72915019  0.27084981  0.75000000  1
  C  C0  1  0.00000000  0.00000000  0.00000000  1
  C  C1  1  0.00000000  0.00000000  0.50000000  1
loop_
_geom_bond_atom_site_label_1
_geom_bond_atom_site_label_2
_geom_bond_distance
_geom_bond_site_symmetry_2
Co0 Ge1 2.381692 1_554
Co0 Ge0 2.402312 1_655
Co0 Ge0 2.402312 1_545
Co1 Ge0 2.381692 1_556
Co1 Ge1 2.402312 1_455
Co1 Ge1 2.402312 1_565
Co2 Ge0 2.381692 1_555
Co2 Ge1 2.402312 1_455
Co2 Ge1 2.402312 1_565
Co3 Ge1 2.381692 1_555
Co3 Ge0 2.402312 1_655
Co3 Ge0 2.402312 1_545
Ge0 Y0 2.946055 1_555
Ge0 Y0 2.989224 1_565
Ge0 Y0 2.989224 1_455
Ge1 Y1 2.946055 1_555
Ge1 Y1 2.989224 1_545
Ge1 Y1 2.989224 1_655
C0 Co0 1.737985 1_455
C0 Co1 1.737985 1_544
C0 Y1 2.586012 1_554
C0 Y0 2.586012 1_445
C0 Y0 2.586012 1_555
C0 Y1 2.586012 1_444
C1 Co3 1.737985 1_455
C1 Co2 1.737985 1_545
C1 Y1 2.586012 1_555
C1 Y0 2.586012 1_445
C1 Y0 2.586012 1_555
C1 Y1 2.586012 1_445
