# generated using pymatgen
data_Na8ZrAs4
_symmetry_space_group_name_H-M   'P 1'
_cell_length_a   9.82534247
_cell_length_b   9.82534262
_cell_length_c   9.82534266
_cell_angle_alpha   60.00000308
_cell_angle_beta   60.00000259
_cell_angle_gamma   60.00000222
_symmetry_Int_Tables_number   1
_chemical_formula_structural   Na8ZrAs4
_chemical_formula_sum   'Na16 Zr2 As8'
_cell_volume   670.69973391
_cell_formula_units_Z   2
loop_
 _symmetry_equiv_pos_site_id
 _symmetry_equiv_pos_as_xyz
  1  'x, y, z'
loop_
 _atom_site_type_symbol
 _atom_site_label
 _atom_site_symmetry_multiplicity
 _atom_site_fract_x
 _atom_site_fract_y
 _atom_site_fract_z
 _atom_site_occupancy
  Na  Na0  1  0.62500000  0.62500000  0.12500000  1
  Na  Na1  1  0.62500000  0.12500000  0.62500000  1
  Na  Na2  1  0.12500000  0.62500000  0.62500000  1
  Na  Na3  1  0.62500000  0.62500000  0.62500000  1
  Na  Na4  1  0.02936092  0.47063908  0.47063908  1
  Na  Na5  1  0.77936092  0.22063908  0.22063908  1
  Na  Na6  1  0.47063908  0.02936092  0.47063908  1
  Na  Na7  1  0.47063908  0.47063908  0.02936092  1
  Na  Na8  1  0.02936092  0.02936092  0.47063908  1
  Na  Na9  1  0.02936092  0.47063908  0.02936092  1
  Na  Na10  1  0.47063908  0.02936092  0.02936092  1
  Na  Na11  1  0.77936092  0.22063908  0.77936092  1
  Na  Na12  1  0.22063908  0.77936092  0.22063908  1
  Na  Na13  1  0.22063908  0.22063908  0.77936092  1
  Na  Na14  1  0.77936092  0.77936092  0.22063908  1
  Na  Na15  1  0.22063908  0.77936092  0.77936092  1
  Zr  Zr0  1  0.75000000  0.75000000  0.75000000  1
  Zr  Zr1  1  0.50000000  0.50000000  0.50000000  1
  As  As0  1  0.85848133  0.85848133  0.42455602  1
  As  As1  1  0.85848133  0.42455602  0.85848133  1
  As  As2  1  0.39151867  0.39151867  0.82544398  1
  As  As3  1  0.39151867  0.82544398  0.39151867  1
  As  As4  1  0.82544398  0.39151867  0.39151867  1
  As  As5  1  0.85848133  0.85848133  0.85848133  1
  As  As6  1  0.42455602  0.85848133  0.85848133  1
  As  As7  1  0.39151867  0.39151867  0.39151867  1
loop_
_geom_bond_atom_site_label_1
_geom_bond_atom_site_label_2
_geom_bond_distance
_geom_bond_site_symmetry_2
Na0 Zr1 3.008385 1_555
Na0 Zr0 3.008385 1_554
Na1 Zr1 3.008385 1_555
Na1 Zr0 3.008385 1_545
Na2 Zr0 3.008385 1_455
Na2 Zr1 3.008385 1_555
Na3 Zr1 3.008384 1_555
Na3 Zr0 3.008384 1_555
As0 Zr0 2.610828 1_555
As0 Na14 2.990364 1_555
As0 Na12 2.990364 1_655
As0 Na5 2.990364 1_565
As0 Na8 3.190930 1_665
As0 Na6 3.190930 1_565
As0 Na4 3.190930 1_655
As0 Na3 3.260453 1_555
As0 Na2 3.260453 1_655
As0 Na1 3.260453 1_565
As1 Zr0 2.610828 1_555
As1 Na11 2.990364 1_555
As1 Na13 2.990364 1_655
As1 Na5 2.990364 1_556
As1 Na9 3.190930 1_656
As1 Na7 3.190930 1_556
As1 Na4 3.190930 1_655
As1 Na3 3.260453 1_555
As1 Na0 3.260453 1_556
As1 Na2 3.260453 1_655
As2 Zr1 2.610828 1_555
As2 Na7 2.990364 1_556
As2 Na9 2.990364 1_556
As2 Na10 2.990364 1_556
As2 Na13 3.190930 1_555
As2 Na11 3.190930 1_555
As2 Na15 3.190930 1_555
As2 Na3 3.260453 1_555
As2 Na2 3.260453 1_555
As2 Na1 3.260453 1_555
As3 Zr1 2.610828 1_555
As3 Na6 2.990364 1_565
As3 Na8 2.990364 1_565
As3 Na10 2.990364 1_565
As3 Na12 3.190930 1_555
As3 Na14 3.190930 1_555
As3 Na15 3.190930 1_555
As3 Na3 3.260453 1_555
As3 Na0 3.260453 1_555
As3 Na2 3.260453 1_555
As4 Zr1 2.610828 1_555
As4 Na4 2.990364 1_655
As4 Na8 2.990364 1_655
As4 Na9 2.990364 1_655
As4 Na5 3.190930 1_555
As4 Na14 3.190930 1_555
As4 Na11 3.190930 1_555
As4 Na3 3.260453 1_555
As4 Na0 3.260453 1_555
As4 Na1 3.260453 1_555
As5 Zr0 2.610828 1_555
As5 Na15 2.990364 1_655
As5 Na11 2.990364 1_565
As5 Na14 2.990364 1_556
As5 Na10 3.190930 1_566
As5 Na9 3.190930 1_656
As5 Na8 3.190930 1_665
As5 Na2 3.260453 1_655
As5 Na1 3.260453 1_565
As5 Na0 3.260453 1_556
As6 Zr0 2.610828 1_555
As6 Na15 2.990364 1_555
As6 Na13 2.990364 1_565
As6 Na12 2.990364 1_556
As6 Na10 3.190930 1_566
As6 Na7 3.190930 1_556
As6 Na6 3.190930 1_565
As6 Na3 3.260453 1_555
As6 Na0 3.260453 1_556
As6 Na1 3.260453 1_565
As7 Zr1 2.610828 1_555
As7 Na4 2.990364 1_555
As7 Na6 2.990364 1_555
As7 Na7 2.990364 1_555
As7 Na5 3.190930 1_555
As7 Na12 3.190930 1_555
As7 Na13 3.190930 1_555
As7 Na2 3.260453 1_555
As7 Na1 3.260453 1_555
As7 Na0 3.260453 1_555
