# generated using pymatgen
data_Zr6Ti16Ir7
_symmetry_space_group_name_H-M   'P 1'
_cell_length_a   8.94684226
_cell_length_b   8.94684204
_cell_length_c   8.94684166
_cell_angle_alpha   60.00000143
_cell_angle_beta   60.00000221
_cell_angle_gamma   60.00000281
_symmetry_Int_Tables_number   1
_chemical_formula_structural   Zr6Ti16Ir7
_chemical_formula_sum   'Zr6 Ti16 Ir7'
_cell_volume   506.40073207
_cell_formula_units_Z   1
loop_
 _symmetry_equiv_pos_site_id
 _symmetry_equiv_pos_as_xyz
  1  'x, y, z'
loop_
 _atom_site_type_symbol
 _atom_site_label
 _atom_site_symmetry_multiplicity
 _atom_site_fract_x
 _atom_site_fract_y
 _atom_site_fract_z
 _atom_site_occupancy
  Zr  Zr0  1  0.68582487  0.68582487  0.31417513  1
  Zr  Zr1  1  0.31417513  0.68582487  0.31417513  1
  Zr  Zr2  1  0.68582487  0.31417513  0.31417513  1
  Zr  Zr3  1  0.31417513  0.31417513  0.68582487  1
  Zr  Zr4  1  0.68582487  0.31417513  0.68582487  1
  Zr  Zr5  1  0.31417513  0.68582487  0.68582487  1
  Ti  Ti0  1  0.88219763  0.88219763  0.35340811  1
  Ti  Ti1  1  0.88219763  0.35340811  0.88219763  1
  Ti  Ti2  1  0.35340811  0.88219763  0.88219763  1
  Ti  Ti3  1  0.88219763  0.88219763  0.88219763  1
  Ti  Ti4  1  0.11780237  0.11780237  0.64659189  1
  Ti  Ti5  1  0.11780237  0.64659189  0.11780237  1
  Ti  Ti6  1  0.64659189  0.11780237  0.11780237  1
  Ti  Ti7  1  0.11780237  0.11780237  0.11780237  1
  Ti  Ti8  1  0.66939666  0.66939666  0.99180803  1
  Ti  Ti9  1  0.66939666  0.99180803  0.66939666  1
  Ti  Ti10  1  0.99180803  0.66939666  0.66939666  1
  Ti  Ti11  1  0.66939666  0.66939666  0.66939666  1
  Ti  Ti12  1  0.33060334  0.33060334  0.00819197  1
  Ti  Ti13  1  0.33060334  0.00819197  0.33060334  1
  Ti  Ti14  1  0.00819197  0.33060334  0.33060334  1
  Ti  Ti15  1  0.33060334  0.33060334  0.33060334  1
  Ir  Ir0  1  0.00000000  0.00000000  0.00000000  1
  Ir  Ir1  1  0.00000000  0.00000000  0.50000000  1
  Ir  Ir2  1  0.50000000  0.00000000  0.50000000  1
  Ir  Ir3  1  0.00000000  0.50000000  0.50000000  1
  Ir  Ir4  1  0.50000000  0.50000000  0.00000000  1
  Ir  Ir5  1  0.00000000  0.50000000  0.00000000  1
  Ir  Ir6  1  0.50000000  0.00000000  0.00000000  1
loop_
_geom_bond_atom_site_label_1
_geom_bond_atom_site_label_2
_geom_bond_distance
_geom_bond_site_symmetry_2
Zr0 Zr4 3.325092 1_555
Zr0 Zr2 3.325092 1_555
Zr0 Zr5 3.325092 1_555
Zr0 Zr1 3.325092 1_555
Zr1 Zr5 3.325091 1_555
Zr1 Zr3 3.325092 1_555
Zr1 Zr2 3.325092 1_555
Zr2 Zr4 3.325091 1_555
Zr2 Zr3 3.325092 1_555
Zr3 Zr5 3.325092 1_555
Zr3 Zr4 3.325092 1_555
Zr4 Zr5 3.325092 1_555
Ti0 Ti10 2.846379 1_555
Ti0 Ti9 2.846379 1_555
Ti0 Ti11 2.846392 1_555
Ti0 Ti7 2.981047 1_665
Ti0 Ti5 2.981059 1_655
Ti0 Ti6 2.981059 1_565
Ti0 Zr2 3.258346 1_565
Ti0 Zr1 3.258346 1_655
Ti0 Zr0 3.258353 1_555
Ti1 Ti10 2.846379 1_555
Ti1 Ti8 2.846379 1_555
Ti1 Ti11 2.846392 1_555
Ti1 Ti7 2.981047 1_656
Ti1 Ti4 2.981059 1_655
Ti1 Ti6 2.981059 1_556
Ti1 Zr2 3.258345 1_556
Ti1 Zr3 3.258346 1_655
Ti1 Zr4 3.258353 1_555
Ti2 Ti9 2.846379 1_555
Ti2 Ti8 2.846379 1_555
Ti2 Ti7 2.981047 1_566
Ti2 Ti4 2.981059 1_565
Ti2 Ti5 2.981059 1_556
Ti2 Zr1 3.258345 1_556
Ti2 Zr3 3.258346 1_565
Ti2 Zr5 3.258353 1_555
Ti3 Ti9 2.846401 1_555
Ti3 Ti8 2.846401 1_555
Ti3 Ti5 2.981047 1_656
Ti3 Ti6 2.981047 1_566
Ti3 Ti4 2.981047 1_665
Ti3 Zr0 3.258347 1_556
Ti3 Zr4 3.258348 1_565
Ti3 Zr5 3.258348 1_655
Ti4 Zr5 3.258346 1_545
Ti4 Zr4 3.258346 1_455
Ti4 Zr3 3.258353 1_555
Ti5 Zr5 3.258345 1_554
Ti5 Zr0 3.258346 1_455
Ti5 Zr1 3.258353 1_555
Ti6 Zr4 3.258345 1_554
Ti6 Zr0 3.258346 1_545
Ti6 Zr2 3.258353 1_555
Ti7 Zr3 3.258347 1_554
Ti7 Zr1 3.258348 1_545
Ti7 Zr2 3.258348 1_455
Ti8 Ti9 2.884564 1_555
Ti8 Zr2 3.038257 1_556
Ti8 Zr1 3.038257 1_556
Ti8 Zr0 3.038267 1_556
Ti9 Zr2 3.038257 1_565
Ti9 Zr3 3.038257 1_565
Ti9 Zr4 3.038267 1_565
Ti10 Ti3 2.846401 1_555
Ti10 Ti8 2.884564 1_555
Ti10 Ti11 2.884564 1_555
Ti10 Ti9 2.884564 1_555
Ti10 Zr1 3.038257 1_655
Ti10 Zr3 3.038257 1_655
Ti10 Zr5 3.038267 1_655
Ti11 Ti2 2.846392 1_555
Ti11 Ti8 2.884564 1_555
Ti11 Ti9 2.884564 1_555
Ti11 Zr0 3.038249 1_555
Ti11 Zr4 3.038249 1_555
Ti11 Zr5 3.038249 1_555
Ti12 Ti5 2.846379 1_555
Ti12 Ti6 2.846379 1_555
Ti12 Ti7 2.846401 1_555
Ti12 Ti15 2.884564 1_555
Ti12 Ti13 2.884564 1_555
Ti12 Ti14 2.884564 1_555
Ti12 Zr5 3.038257 1_554
Ti12 Zr4 3.038257 1_554
Ti12 Zr3 3.038267 1_554
Ti13 Ti4 2.846379 1_555
Ti13 Ti6 2.846379 1_555
Ti13 Ti7 2.846401 1_555
Ti13 Ti15 2.884564 1_555
Ti13 Ti14 2.884564 1_555
Ti13 Zr5 3.038257 1_545
Ti13 Zr0 3.038257 1_545
Ti13 Zr1 3.038267 1_545
Ti14 Ti4 2.846379 1_555
Ti14 Ti5 2.846379 1_555
Ti14 Ti7 2.846401 1_555
Ti14 Ti15 2.884564 1_555
Ti14 Zr4 3.038257 1_455
Ti14 Zr0 3.038257 1_455
Ti14 Zr2 3.038267 1_455
Ti15 Ti4 2.846392 1_555
Ti15 Ti5 2.846392 1_555
Ti15 Ti6 2.846392 1_555
Ti15 Zr3 3.038249 1_555
Ti15 Zr1 3.038249 1_555
Ti15 Zr2 3.038249 1_555
Ir0 Ti7 2.581662 1_555
Ir0 Ti3 2.581662 1_444
Ir0 Ti0 2.581669 1_445
Ir0 Ti4 2.581669 1_554
Ir0 Ti1 2.581670 1_454
Ir0 Ti5 2.581670 1_545
Ir0 Ti2 2.581670 1_544
Ir0 Ti6 2.581670 1_455
Ir1 Ti14 2.583429 1_555
Ir1 Ti10 2.583429 1_445
Ir1 Ti13 2.583429 1_555
Ir1 Ti9 2.583429 1_445
Ir1 Ti4 2.795929 1_555
Ir1 Ti0 2.795929 1_445
Ir1 Ti3 2.795937 1_445
Ir1 Ti7 2.795937 1_555
Ir1 Zr4 3.265743 1_455
Ir1 Zr5 3.265743 1_545
Ir1 Zr2 3.265743 1_455
Ir1 Zr1 3.265743 1_545
Ir2 Ti9 2.583414 1_545
Ir2 Ti13 2.583414 1_555
Ir2 Ti11 2.583424 1_545
Ir2 Ti15 2.583424 1_555
Ir2 Ti2 2.795936 1_545
Ir2 Ti6 2.795936 1_555
Ir2 Ti0 2.795937 1_545
Ir2 Ti4 2.795937 1_555
Ir2 Zr3 3.265743 1_555
Ir2 Zr0 3.265743 1_545
Ir2 Zr2 3.265743 1_555
Ir2 Zr5 3.265743 1_545
Ir3 Ti10 2.583414 1_455
Ir3 Ti14 2.583414 1_555
Ir3 Ti11 2.583424 1_455
Ir3 Ti15 2.583424 1_555
Ir3 Ti1 2.795936 1_455
Ir3 Ti5 2.795936 1_555
Ir3 Ti0 2.795936 1_455
Ir3 Ti4 2.795936 1_555
Ir3 Zr3 3.265743 1_555
Ir3 Zr0 3.265743 1_455
Ir3 Zr1 3.265743 1_555
Ir3 Zr4 3.265743 1_455
Ir4 Ti8 2.583414 1_554
Ir4 Ti12 2.583414 1_555
Ir4 Ti11 2.583424 1_554
Ir4 Ti15 2.583424 1_555
Ir4 Ti2 2.795936 1_554
Ir4 Ti6 2.795936 1_555
Ir4 Ti1 2.795937 1_554
Ir4 Ti5 2.795937 1_555
Ir4 Zr2 3.265743 1_555
Ir4 Zr1 3.265743 1_555
Ir4 Zr5 3.265743 1_554
Ir4 Zr4 3.265743 1_554
Ir5 Ti14 2.583429 1_555
Ir5 Ti10 2.583429 1_454
Ir5 Ti12 2.583429 1_555
Ir5 Ti8 2.583429 1_454
Ir5 Ti5 2.795929 1_555
Ir5 Ti1 2.795929 1_454
Ir5 Ti3 2.795937 1_454
Ir5 Ti7 2.795937 1_555
Ir5 Zr0 3.265743 1_455
Ir5 Zr3 3.265743 1_554
Ir5 Zr5 3.265743 1_554
Ir5 Zr2 3.265743 1_455
Ir6 Ti13 2.583429 1_555
Ir6 Ti9 2.583429 1_544
Ir6 Ti12 2.583429 1_555
Ir6 Ti8 2.583429 1_544
Ir6 Ti6 2.795929 1_555
Ir6 Ti2 2.795929 1_544
Ir6 Ti3 2.795937 1_544
Ir6 Ti7 2.795937 1_555
Ir6 Zr0 3.265743 1_545
Ir6 Zr3 3.265743 1_554
Ir6 Zr4 3.265743 1_554
Ir6 Zr1 3.265743 1_545
