# generated using pymatgen
data_LiNbPd6
_symmetry_space_group_name_H-M   'P 1'
_cell_length_a   5.52570905
_cell_length_b   5.52570968
_cell_length_c   5.52570981
_cell_angle_alpha   59.99999922
_cell_angle_beta   59.99999545
_cell_angle_gamma   60.00000409
_symmetry_Int_Tables_number   1
_chemical_formula_structural   LiNbPd6
_chemical_formula_sum   'Li1 Nb1 Pd6'
_cell_volume   119.30239118
_cell_formula_units_Z   1
loop_
 _symmetry_equiv_pos_site_id
 _symmetry_equiv_pos_as_xyz
  1  'x, y, z'
loop_
 _atom_site_type_symbol
 _atom_site_label
 _atom_site_symmetry_multiplicity
 _atom_site_fract_x
 _atom_site_fract_y
 _atom_site_fract_z
 _atom_site_occupancy
  Li  Li0  1  0.00000000  0.00000000  0.00000000  1
  Nb  Nb0  1  0.50000000  0.50000000  0.50000000  1
  Pd  Pd0  1  0.00000000  0.00000000  0.50000000  1
  Pd  Pd1  1  0.50000000  0.00000000  0.50000000  1
  Pd  Pd2  1  0.00000000  0.50000000  0.50000000  1
  Pd  Pd3  1  0.50000000  0.50000000  0.00000000  1
  Pd  Pd4  1  0.00000000  0.50000000  0.00000000  1
  Pd  Pd5  1  0.50000000  0.00000000  0.00000000  1
loop_
_geom_bond_atom_site_label_1
_geom_bond_atom_site_label_2
_geom_bond_distance
_geom_bond_site_symmetry_2
Li0 Pd5 2.762855 1_555
Li0 Pd1 2.762855 1_554
Li0 Pd5 2.762855 1_455
Li0 Pd1 2.762855 1_455
Li0 Pd2 2.762855 1_554
Li0 Pd4 2.762855 1_545
Li0 Pd4 2.762855 1_555
Li0 Pd2 2.762855 1_545
Li0 Pd3 2.762855 1_545
Li0 Pd3 2.762855 1_455
Li0 Pd0 2.762855 1_554
Li0 Pd0 2.762855 1_555
Nb0 Pd2 2.762855 1_655
Nb0 Pd2 2.762855 1_555
Nb0 Pd4 2.762855 1_556
Nb0 Pd4 2.762855 1_655
Nb0 Pd1 2.762855 1_565
Nb0 Pd5 2.762855 1_556
Nb0 Pd5 2.762855 1_565
Nb0 Pd1 2.762855 1_555
Nb0 Pd0 2.762855 1_565
Nb0 Pd0 2.762855 1_655
Nb0 Pd3 2.762855 1_556
Nb0 Pd3 2.762855 1_555
