# generated using pymatgen
data_BaIn2AgGe
_symmetry_space_group_name_H-M   'P 1'
_cell_length_a   6.88463230
_cell_length_b   6.88463228
_cell_length_c   6.88463203
_cell_angle_alpha   140.27841805
_cell_angle_beta   140.27841981
_cell_angle_gamma   57.43080145
_symmetry_Int_Tables_number   1
_chemical_formula_structural   BaIn2AgGe
_chemical_formula_sum   'Ba1 In2 Ag1 Ge1'
_cell_volume   132.12755422
_cell_formula_units_Z   1
loop_
 _symmetry_equiv_pos_site_id
 _symmetry_equiv_pos_as_xyz
  1  'x, y, z'
loop_
 _atom_site_type_symbol
 _atom_site_label
 _atom_site_symmetry_multiplicity
 _atom_site_fract_x
 _atom_site_fract_y
 _atom_site_fract_z
 _atom_site_occupancy
  Ba  Ba0  1  0.00304879  0.00304879  0.00000000  1
  In  In0  1  0.25198793  0.75198793  0.50000000  1
  In  In1  1  0.75198793  0.25198793  0.50000000  1
  Ag  Ag0  1  0.38707393  0.38707393  0.00000000  1
  Ge  Ge0  1  0.60590042  0.60590042  1.00000000  1
loop_
_geom_bond_atom_site_label_1
_geom_bond_atom_site_label_2
_geom_bond_distance
_geom_bond_site_symmetry_2
Ba0 Ge0 3.533280 1_443
Ba0 Ge0 3.533280 1_454
Ba0 Ge0 3.533280 1_544
Ba0 Ge0 3.533280 1_555
Ba0 In1 3.808899 1_454
Ba0 In0 3.808899 1_544
Ba0 In1 3.808899 1_555
Ba0 In0 3.808899 1_555
Ba0 In0 3.829153 1_545
Ba0 In1 3.829153 1_455
Ba0 In0 3.829154 1_444
Ba0 In1 3.829154 1_444
Ag0 Ge0 2.642522 1_554
Ag0 In1 2.851632 1_555
Ag0 In0 2.851632 1_555
Ag0 In1 2.851632 1_454
Ag0 In0 2.851632 1_544
Ag0 Ba0 3.592052 1_554
Ag0 Ba0 3.592052 1_565
Ag0 Ba0 3.592052 1_655
Ag0 Ba0 3.592052 1_666
Ge0 In0 2.929658 1_555
Ge0 In1 2.929658 1_555
Ge0 In0 2.929658 1_656
Ge0 In1 2.929658 1_566
