# generated using pymatgen
data_Cd2FeRh3O8
_symmetry_space_group_name_H-M   'P 1'
_cell_length_a   6.28527204
_cell_length_b   6.13555623
_cell_length_c   6.28530453
_cell_angle_alpha   120.81446512
_cell_angle_beta   120.00176927
_cell_angle_gamma   89.99543812
_symmetry_Int_Tables_number   1
_chemical_formula_structural   Cd2FeRh3O8
_chemical_formula_sum   'Cd2 Fe1 Rh3 O8'
_cell_volume   169.25362920
_cell_formula_units_Z   1
loop_
 _symmetry_equiv_pos_site_id
 _symmetry_equiv_pos_as_xyz
  1  'x, y, z'
loop_
 _atom_site_type_symbol
 _atom_site_label
 _atom_site_symmetry_multiplicity
 _atom_site_fract_x
 _atom_site_fract_y
 _atom_site_fract_z
 _atom_site_occupancy
  Cd  Cd0  1  0.38009947  0.14030386  0.26020139  1
  Cd  Cd1  1  0.61990053  0.85970014  0.73979961  1
  Fe  Fe0  1  0.99999900  0.99999800  0.49999800  1
  Rh  Rh0  1  0.99999900  0.49999900  0.49999700  1
  Rh  Rh1  1  0.50000200  0.49999900  0.00000100  1
  Rh  Rh2  1  0.00000000  0.49999800  0.00000000  1
  O  O0  1  0.19711518  0.73536690  0.46626212  1
  O  O1  1  0.23089222  0.26463310  0.96175128  1
  O  O2  1  0.23203613  0.69614865  0.96410952  1
  O  O3  1  0.23084723  0.26458652  0.53373629  1
  O  O4  1  0.76796687  0.30385535  0.03589548  1
  O  O5  1  0.76915177  0.73541348  0.46626371  1
  O  O6  1  0.80288482  0.26463110  0.53373988  1
  O  O7  1  0.76910578  0.73536490  0.03824572  1
loop_
_geom_bond_atom_site_label_1
_geom_bond_atom_site_label_2
_geom_bond_distance
_geom_bond_site_symmetry_2
Cd0 O1 2.164913 1_554
Cd0 O6 2.164928 1_555
Cd0 O3 2.164935 1_555
Cd0 O2 2.197351 1_544
Cd1 O7 2.164921 1_556
Cd1 O0 2.164926 1_555
Cd1 O5 2.164934 1_555
Cd1 O4 2.197351 1_566
Fe0 O5 2.031155 1_555
Fe0 O3 2.031161 1_665
Fe0 O0 2.031218 1_655
Fe0 O6 2.031219 1_565
Fe0 O7 2.031235 1_555
Fe0 O1 2.031240 1_665
O0 Rh0 2.059628 1_455
O0 Rh2 2.059666 1_555
O1 Rh2 2.059643 1_556
O1 Rh1 2.059658 1_556
O2 Rh2 2.057590 1_556
O2 Rh0 2.057603 1_455
O2 Rh1 2.057618 1_556
O3 Rh0 2.059668 1_455
O3 Rh1 2.059681 1_556
O4 Rh0 2.057555 1_555
O4 Rh2 2.057568 1_655
O4 Rh1 2.057590 1_555
O5 Rh0 2.059669 1_555
O5 Rh1 2.059669 1_555
O6 Rh2 2.059657 1_656
O6 Rh0 2.059658 1_555
O7 Rh1 2.059650 1_555
O7 Rh2 2.059659 1_655
