# generated using pymatgen
data_TaCoB2Ru
_symmetry_space_group_name_H-M   'P 1'
_cell_length_a   4.60108315
_cell_length_b   4.60108254
_cell_length_c   4.60108253
_cell_angle_alpha   141.49382924
_cell_angle_beta   120.31284910
_cell_angle_gamma   73.30588239
_symmetry_Int_Tables_number   1
_chemical_formula_structural   TaCoB2Ru
_chemical_formula_sum   'Ta1 Co1 B2 Ru1'
_cell_volume   51.29110707
_cell_formula_units_Z   1
loop_
 _symmetry_equiv_pos_site_id
 _symmetry_equiv_pos_as_xyz
  1  'x, y, z'
loop_
 _atom_site_type_symbol
 _atom_site_label
 _atom_site_symmetry_multiplicity
 _atom_site_fract_x
 _atom_site_fract_y
 _atom_site_fract_z
 _atom_site_occupancy
  Ta  Ta0  1  0.70484177  0.20484177  0.50000000  1
  Co  Co0  1  0.00126185  0.00126185  1.00000000  1
  B  B0  1  0.69149581  0.49263814  0.19885767  1
  B  B1  1  0.29378147  0.49263814  0.80114233  1
  Ru  Ru0  1  0.30862010  0.80862010  0.50000000  1
loop_
_geom_bond_atom_site_label_1
_geom_bond_atom_site_label_2
_geom_bond_distance
_geom_bond_site_symmetry_2
Co0 Ta0 2.662829 1_445
Co0 Ta0 2.662830 1_456
Co0 Ta0 2.738862 1_455
Co0 Ta0 2.738862 1_556
B0 B1 1.821259 1_554
B0 Co0 2.051233 1_665
B0 Co0 2.051233 1_654
B0 Ru0 2.230840 1_544
B0 Ru0 2.230840 1_555
B0 Ta0 2.363328 1_565
B0 Ta0 2.363328 1_554
B0 Ta0 2.532978 1_555
B0 Ru0 2.709888 1_655
B1 Co0 2.051233 1_554
B1 Co0 2.051236 1_565
B1 Ru0 2.230840 1_545
B1 Ru0 2.230842 1_556
B1 Ta0 2.363324 1_555
B1 Ta0 2.363325 1_566
B1 Ta0 2.532983 1_455
B1 Ru0 2.709886 1_555
Ru0 Ta0 2.851544 1_454
Ru0 Ta0 2.851544 1_566
Ru0 Ta0 2.851544 1_555
Ru0 Ta0 2.851545 1_465
