# generated using pymatgen
data_TcSbF10
_symmetry_space_group_name_H-M   'P 1'
_cell_length_a   5.59218011
_cell_length_b   7.15588850
_cell_length_c   9.67046525
_cell_angle_alpha   90.48587005
_cell_angle_beta   104.96849613
_cell_angle_gamma   98.55952669
_symmetry_Int_Tables_number   1
_chemical_formula_structural   TcSbF10
_chemical_formula_sum   'Tc2 Sb2 F20'
_cell_volume   369.24178898
_cell_formula_units_Z   2
loop_
 _symmetry_equiv_pos_site_id
 _symmetry_equiv_pos_as_xyz
  1  'x, y, z'
loop_
 _atom_site_type_symbol
 _atom_site_label
 _atom_site_symmetry_multiplicity
 _atom_site_fract_x
 _atom_site_fract_y
 _atom_site_fract_z
 _atom_site_occupancy
  Tc  Tc0  1  0.35045866  0.38567265  0.22397828  1
  Tc  Tc1  1  0.64954134  0.61432735  0.77602172  1
  Sb  Sb0  1  0.95803881  0.76204373  0.31107022  1
  Sb  Sb1  1  0.04196119  0.23795627  0.68892978  1
  F  F0  1  0.02818820  0.27046480  0.16326780  1
  F  F1  1  0.97181180  0.72953520  0.83673220  1
  F  F2  1  0.45940850  0.20136590  0.13964969  1
  F  F3  1  0.54059150  0.79863410  0.86035031  1
  F  F4  1  0.09402640  0.26375536  0.88745138  1
  F  F5  1  0.90597360  0.73624464  0.11254862  1
  F  F6  1  0.97993875  0.26085189  0.49118912  1
  F  F7  1  0.02006125  0.73914811  0.50881088  1
  F  F8  1  0.79493839  0.02678692  0.67050196  1
  F  F9  1  0.20506161  0.97321308  0.32949804  1
  F  F10  1  0.31376294  0.11100633  0.70106128  1
  F  F11  1  0.68623706  0.88899367  0.29893872  1
  F  F12  1  0.27129653  0.48248809  0.70845850  1
  F  F13  1  0.72870347  0.51751191  0.29154150  1
  F  F14  1  0.78474444  0.40407730  0.67690151  1
  F  F15  1  0.21525556  0.59592270  0.32309849  1
  F  F16  1  0.64813638  0.43164726  0.90509756  1
  F  F17  1  0.35186362  0.56835274  0.09490244  1
  F  F18  1  0.56210429  0.67192073  0.59008751  1
  F  F19  1  0.43789571  0.32807927  0.40991249  1
loop_
_geom_bond_atom_site_label_1
_geom_bond_atom_site_label_2
_geom_bond_distance
_geom_bond_site_symmetry_2
F0 Tc0 1.809751 1_555
F1 Tc1 1.809751 1_555
F2 Tc0 1.803691 1_555
F3 Tc1 1.803691 1_555
F4 Sb1 1.869148 1_555
F5 Sb0 1.869148 1_555
F6 Sb1 1.866396 1_655
F7 Sb0 1.866396 1_455
F8 Sb1 1.862885 1_655
F9 Sb0 1.862885 1_455
F10 Sb1 1.862803 1_555
F11 Sb0 1.862803 1_555
F12 Sb1 1.985859 1_555
F12 Tc1 2.114871 1_555
F13 Sb0 1.985859 1_555
F13 Tc0 2.114871 1_555
F14 Sb1 1.980037 1_655
F14 Tc1 2.107745 1_555
F15 Sb0 1.980037 1_455
F15 Tc0 2.107745 1_555
F16 Tc1 1.815676 1_555
F17 Tc0 1.815676 1_555
F18 Tc1 1.805652 1_555
F19 Tc0 1.805652 1_555
