# generated using pymatgen
data_Hf6Al16FeNi6
_symmetry_space_group_name_H-M   'P 1'
_cell_length_a   8.42884901
_cell_length_b   8.42884839
_cell_length_c   8.42884924
_cell_angle_alpha   60.00000434
_cell_angle_beta   60.00000680
_cell_angle_gamma   59.99999986
_symmetry_Int_Tables_number   1
_chemical_formula_structural   Hf6Al16FeNi6
_chemical_formula_sum   'Hf6 Al16 Fe1 Ni6'
_cell_volume   423.43801041
_cell_formula_units_Z   1
loop_
 _symmetry_equiv_pos_site_id
 _symmetry_equiv_pos_as_xyz
  1  'x, y, z'
loop_
 _atom_site_type_symbol
 _atom_site_label
 _atom_site_symmetry_multiplicity
 _atom_site_fract_x
 _atom_site_fract_y
 _atom_site_fract_z
 _atom_site_occupancy
  Hf  Hf0  1  0.68971027  0.68971027  0.31028973  1
  Hf  Hf1  1  0.31028973  0.68971027  0.31028973  1
  Hf  Hf2  1  0.68971027  0.31028973  0.31028973  1
  Hf  Hf3  1  0.31028973  0.31028973  0.68971027  1
  Hf  Hf4  1  0.68971027  0.31028973  0.68971027  1
  Hf  Hf5  1  0.31028973  0.68971027  0.68971027  1
  Al  Al0  1  0.88257341  0.88257341  0.35227877  1
  Al  Al1  1  0.88257341  0.35227877  0.88257341  1
  Al  Al2  1  0.35227877  0.88257341  0.88257341  1
  Al  Al3  1  0.88257341  0.88257341  0.88257341  1
  Al  Al4  1  0.11742659  0.11742659  0.64772123  1
  Al  Al5  1  0.11742659  0.64772123  0.11742659  1
  Al  Al6  1  0.64772123  0.11742659  0.11742659  1
  Al  Al7  1  0.11742659  0.11742659  0.11742659  1
  Al  Al8  1  0.66646197  0.66646197  0.00061408  1
  Al  Al9  1  0.66646197  0.00061408  0.66646197  1
  Al  Al10  1  0.00061408  0.66646197  0.66646197  1
  Al  Al11  1  0.66646197  0.66646197  0.66646197  1
  Al  Al12  1  0.33353803  0.33353803  0.99938592  1
  Al  Al13  1  0.33353803  0.99938592  0.33353803  1
  Al  Al14  1  0.99938592  0.33353803  0.33353803  1
  Al  Al15  1  0.33353803  0.33353803  0.33353803  1
  Fe  Fe0  1  0.00000000  0.00000000  0.00000000  1
  Ni  Ni0  1  0.00000000  0.00000000  0.50000000  1
  Ni  Ni1  1  0.50000000  0.00000000  0.50000000  1
  Ni  Ni2  1  0.00000000  0.50000000  0.50000000  1
  Ni  Ni3  1  0.50000000  0.50000000  0.00000000  1
  Ni  Ni4  1  0.00000000  0.50000000  0.00000000  1
  Ni  Ni5  1  0.50000000  0.00000000  0.00000000  1
loop_
_geom_bond_atom_site_label_1
_geom_bond_atom_site_label_2
_geom_bond_distance
_geom_bond_site_symmetry_2
Hf0 Ni1 3.065480 1_565
Hf0 Ni2 3.065480 1_655
Hf0 Ni5 3.065480 1_565
Hf0 Ni4 3.065480 1_655
Hf0 Hf2 3.198078 1_555
Hf0 Hf1 3.198078 1_555
Hf0 Hf4 3.198079 1_555
Hf0 Hf5 3.198079 1_555
Hf1 Ni0 3.065480 1_565
Hf1 Ni3 3.065480 1_555
Hf1 Ni2 3.065480 1_555
Hf1 Ni5 3.065480 1_565
Hf1 Hf2 3.198078 1_555
Hf1 Hf5 3.198078 1_555
Hf1 Hf3 3.198079 1_555
Hf2 Ni0 3.065480 1_655
Hf2 Ni1 3.065480 1_555
Hf2 Ni3 3.065480 1_555
Hf2 Ni4 3.065480 1_655
Hf2 Hf4 3.198078 1_555
Hf2 Hf3 3.198079 1_555
Hf3 Ni1 3.065480 1_555
Hf3 Ni2 3.065480 1_555
Hf3 Ni5 3.065480 1_556
Hf3 Ni4 3.065480 1_556
Hf3 Hf5 3.198078 1_555
Hf3 Hf4 3.198078 1_555
Hf4 Ni0 3.065480 1_655
Hf4 Ni3 3.065480 1_556
Hf4 Ni2 3.065480 1_655
Hf4 Ni5 3.065480 1_556
Hf4 Hf5 3.198078 1_555
Hf5 Ni0 3.065480 1_565
Hf5 Ni1 3.065480 1_565
Hf5 Ni3 3.065480 1_556
Hf5 Ni4 3.065480 1_556
Al0 Fe0 2.424427 1_665
Al0 Ni2 2.637043 1_655
Al0 Ni1 2.637043 1_565
Al0 Ni0 2.637050 1_665
Al0 Al11 2.705469 1_555
Al0 Al10 2.705473 1_655
Al0 Al9 2.705473 1_565
Al0 Al6 2.799483 1_565
Al0 Al5 2.799483 1_655
Al0 Al7 2.799495 1_665
Al0 Hf0 3.033776 1_555
Al0 Hf2 3.033783 1_565
Al0 Hf1 3.033783 1_655
Al1 Fe0 2.424427 1_656
Al1 Ni3 2.637043 1_556
Al1 Ni2 2.637043 1_655
Al1 Ni4 2.637049 1_656
Al1 Al11 2.705468 1_555
Al1 Al8 2.705473 1_556
Al1 Al10 2.705473 1_655
Al1 Al4 2.799483 1_655
Al1 Al6 2.799483 1_556
Al1 Al7 2.799495 1_656
Al1 Hf4 3.033776 1_555
Al1 Hf3 3.033783 1_655
Al1 Hf2 3.033784 1_556
Al2 Fe0 2.424427 1_566
Al2 Ni3 2.637043 1_556
Al2 Ni1 2.637043 1_565
Al2 Ni5 2.637050 1_566
Al2 Al8 2.705473 1_556
Al2 Al9 2.705473 1_565
Al2 Al4 2.799483 1_565
Al2 Al5 2.799483 1_556
Al2 Al7 2.799495 1_566
Al2 Hf5 3.033776 1_555
Al2 Hf3 3.033783 1_565
Al2 Hf1 3.033784 1_556
Al3 Fe0 2.424434 1_666
Al3 Ni4 2.637042 1_656
Al3 Ni5 2.637043 1_566
Al3 Ni0 2.637043 1_665
Al3 Al9 2.705466 1_565
Al3 Al8 2.705466 1_556
Al3 Al6 2.799495 1_566
Al3 Al5 2.799495 1_656
Al3 Al4 2.799495 1_665
Al3 Hf4 3.033781 1_565
Al3 Hf5 3.033782 1_655
Al3 Hf0 3.033782 1_556
Al4 Fe0 2.424427 1_556
Al4 Ni2 2.637043 1_555
Al4 Ni1 2.637043 1_555
Al4 Ni0 2.637050 1_555
Al4 Hf3 3.033776 1_555
Al4 Hf5 3.033783 1_545
Al4 Hf4 3.033783 1_455
Al5 Fe0 2.424427 1_565
Al5 Ni3 2.637043 1_555
Al5 Ni2 2.637043 1_555
Al5 Ni4 2.637049 1_555
Al5 Hf1 3.033776 1_555
Al5 Hf0 3.033783 1_455
Al5 Hf5 3.033784 1_554
Al6 Fe0 2.424427 1_655
Al6 Ni3 2.637043 1_555
Al6 Ni1 2.637043 1_555
Al6 Ni5 2.637050 1_555
Al6 Hf2 3.033776 1_555
Al6 Hf0 3.033783 1_545
Al6 Hf4 3.033784 1_554
Al7 Fe0 2.424434 1_555
Al7 Ni4 2.637042 1_555
Al7 Ni5 2.637043 1_555
Al7 Ni0 2.637043 1_555
Al7 Hf1 3.033781 1_545
Al7 Hf2 3.033782 1_455
Al7 Hf3 3.033782 1_554
Al8 Ni5 2.433203 1_565
Al8 Ni3 2.433203 1_555
Al8 Ni4 2.433203 1_655
Al8 Al9 2.816518 1_564
Al8 Hf0 2.819816 1_555
Al8 Hf2 2.819816 1_555
Al8 Hf1 2.819817 1_555
Al9 Ni1 2.433203 1_555
Al9 Ni0 2.433203 1_655
Al9 Ni5 2.433203 1_556
Al9 Hf4 2.819816 1_555
Al9 Hf3 2.819816 1_555
Al9 Hf2 2.819816 1_555
Al10 Ni2 2.433203 1_555
Al10 Ni0 2.433203 1_565
Al10 Ni4 2.433203 1_556
Al10 Al3 2.705466 1_455
Al10 Al9 2.816518 1_465
Al10 Al11 2.816518 1_455
Al10 Al8 2.816518 1_456
Al10 Hf3 2.819816 1_555
Al10 Hf5 2.819816 1_555
Al10 Hf1 2.819817 1_555
Al11 Ni1 2.433203 1_565
Al11 Ni2 2.433203 1_655
Al11 Ni3 2.433203 1_556
Al11 Al2 2.705469 1_555
Al11 Al9 2.816517 1_565
Al11 Al8 2.816518 1_556
Al11 Hf4 2.819816 1_555
Al11 Hf5 2.819816 1_555
Al11 Hf0 2.819816 1_555
Al12 Ni5 2.433203 1_556
Al12 Ni3 2.433203 1_556
Al12 Ni4 2.433203 1_556
Al12 Al7 2.705466 1_556
Al12 Al5 2.705473 1_556
Al12 Al6 2.705473 1_556
Al12 Al15 2.816518 1_556
Al12 Al13 2.816518 1_546
Al12 Al14 2.816518 1_456
Al12 Hf3 2.819816 1_555
Al12 Hf5 2.819816 1_555
Al12 Hf4 2.819817 1_555
Al13 Ni1 2.433203 1_565
Al13 Ni0 2.433203 1_565
Al13 Ni5 2.433203 1_565
Al13 Al7 2.705466 1_565
Al13 Al4 2.705473 1_565
Al13 Al6 2.705473 1_565
Al13 Al15 2.816517 1_565
Al13 Al14 2.816518 1_465
Al13 Hf1 2.819816 1_555
Al13 Hf0 2.819816 1_555
Al13 Hf5 2.819816 1_555
Al14 Ni2 2.433203 1_655
Al14 Ni0 2.433203 1_655
Al14 Ni4 2.433203 1_655
Al14 Al7 2.705466 1_655
Al14 Al5 2.705473 1_655
Al14 Al4 2.705473 1_655
Al14 Al15 2.816518 1_655
Al14 Hf0 2.819816 1_555
Al14 Hf2 2.819816 1_555
Al14 Hf4 2.819817 1_555
Al15 Ni1 2.433203 1_555
Al15 Ni2 2.433203 1_555
Al15 Ni3 2.433203 1_555
Al15 Al5 2.705468 1_555
Al15 Al6 2.705469 1_555
Al15 Al4 2.705469 1_555
Al15 Hf1 2.819816 1_555
Al15 Hf2 2.819816 1_555
Al15 Hf3 2.819816 1_555
