# generated using pymatgen
data_HfTa9S16
_symmetry_space_group_name_H-M   'P 1'
_cell_length_a   6.64996697
_cell_length_b   6.64996582
_cell_length_c   12.66088451
_cell_angle_alpha   90.00000000
_cell_angle_beta   90.00000000
_cell_angle_gamma   120.00001067
_symmetry_Int_Tables_number   1
_chemical_formula_structural   HfTa9S16
_chemical_formula_sum   'Hf1 Ta9 S16'
_cell_volume   484.87917720
_cell_formula_units_Z   1
loop_
 _symmetry_equiv_pos_site_id
 _symmetry_equiv_pos_as_xyz
  1  'x, y, z'
loop_
 _atom_site_type_symbol
 _atom_site_label
 _atom_site_symmetry_multiplicity
 _atom_site_fract_x
 _atom_site_fract_y
 _atom_site_fract_z
 _atom_site_occupancy
  Hf  Hf0  1  0.00000000  0.00000000  0.50000000  1
  Ta  Ta0  1  0.50561938  0.49438062  0.75298751  1
  Ta  Ta1  1  0.01123677  0.50561938  0.24701249  1
  Ta  Ta2  1  0.49438062  0.98876323  0.24701249  1
  Ta  Ta3  1  0.50561938  0.01123677  0.75298751  1
  Ta  Ta4  1  0.98876323  0.49438062  0.75298751  1
  Ta  Ta5  1  0.49438062  0.50561938  0.24701249  1
  Ta  Ta6  1  0.00000000  0.00000000  0.75193469  1
  Ta  Ta7  1  0.00000000  0.00000000  0.24806531  1
  Ta  Ta8  1  0.00000000  0.00000000  0.00000000  1
  S  S0  1  0.83148512  0.16851488  0.37214930  1
  S  S1  1  0.83148512  0.66297124  0.37214930  1
  S  S2  1  0.33702876  0.16851488  0.37214930  1
  S  S3  1  0.66559406  0.83279653  0.87658192  1
  S  S4  1  0.16851488  0.33702876  0.62785070  1
  S  S5  1  0.16720347  0.83279653  0.87658192  1
  S  S6  1  0.16720347  0.33440594  0.87658192  1
  S  S7  1  0.83279653  0.16720347  0.12341808  1
  S  S8  1  0.33440594  0.16720347  0.12341808  1
  S  S9  1  0.66297124  0.83148512  0.62785070  1
  S  S10  1  0.33333300  0.66666700  0.12101286  1
  S  S11  1  0.66666700  0.33333300  0.62676411  1
  S  S12  1  0.66666700  0.33333300  0.87898714  1
  S  S13  1  0.33333300  0.66666700  0.37323589  1
  S  S14  1  0.83279653  0.66559406  0.12341808  1
  S  S15  1  0.16851488  0.83148512  0.62785070  1
loop_
_geom_bond_atom_site_label_1
_geom_bond_atom_site_label_2
_geom_bond_distance
_geom_bond_site_symmetry_2
Hf0 S4 2.527357 1_555
Hf0 S1 2.527357 1_445
Hf0 S9 2.527357 1_445
Hf0 S2 2.527357 1_555
Hf0 S15 2.527361 1_545
Hf0 S0 2.527361 1_455
S0 Ta7 2.497086 1_655
S0 Ta1 2.506933 1_655
S0 Ta2 2.506934 1_545
S1 Ta7 2.497081 1_665
S1 Ta1 2.506929 1_655
S1 Ta5 2.506934 1_555
S2 Ta7 2.497081 1_555
S2 Ta2 2.506929 1_545
S2 Ta5 2.506933 1_555
S3 Ta8 2.480038 1_666
S3 Ta6 2.489872 1_665
S3 Ta3 2.500160 1_565
S3 Ta0 2.500164 1_555
S4 Ta6 2.497081 1_555
S4 Ta4 2.506929 1_455
S4 Ta0 2.506934 1_555
S5 Ta8 2.480043 1_566
S5 Ta6 2.489877 1_565
S5 Ta4 2.500164 1_455
S5 Ta3 2.500164 1_565
S6 Ta8 2.480038 1_556
S6 Ta6 2.489872 1_555
S6 Ta4 2.500160 1_455
S6 Ta0 2.500165 1_555
S7 Ta8 2.480043 1_655
S7 Ta7 2.489877 1_655
S7 Ta1 2.500164 1_655
S7 Ta2 2.500164 1_545
S8 Ta8 2.480038 1_555
S8 Ta7 2.489872 1_555
S8 Ta2 2.500160 1_545
S8 Ta5 2.500164 1_555
S9 Ta6 2.497081 1_665
S9 Ta3 2.506929 1_565
S9 Ta0 2.506933 1_555
S10 Ta5 2.446579 1_555
S10 Ta2 2.446583 1_555
S10 Ta1 2.446584 1_555
S11 Ta0 2.448428 1_555
S11 Ta3 2.448432 1_555
S11 Ta4 2.448432 1_555
S12 Ta0 2.446579 1_555
S12 Ta3 2.446583 1_555
S12 Ta4 2.446584 1_555
S13 Ta5 2.448428 1_555
S13 Ta2 2.448432 1_555
S13 Ta1 2.448432 1_555
S14 Ta8 2.480038 1_665
S14 Ta7 2.489872 1_665
S14 Ta1 2.500160 1_655
S14 Ta5 2.500165 1_555
S15 Ta6 2.497086 1_565
S15 Ta4 2.506933 1_455
S15 Ta3 2.506934 1_565
