# generated using pymatgen
data_Ca4As2Se
_symmetry_space_group_name_H-M   'P 1'
_cell_length_a   7.73726174
_cell_length_b   7.73727215
_cell_length_c   7.73726208
_cell_angle_alpha   109.48583939
_cell_angle_beta   109.48577022
_cell_angle_gamma   109.44199080
_symmetry_Int_Tables_number   1
_chemical_formula_structural   Ca4As2Se
_chemical_formula_sum   'Ca8 As4 Se2'
_cell_volume   356.56675205
_cell_formula_units_Z   2
loop_
 _symmetry_equiv_pos_site_id
 _symmetry_equiv_pos_as_xyz
  1  'x, y, z'
loop_
 _atom_site_type_symbol
 _atom_site_label
 _atom_site_symmetry_multiplicity
 _atom_site_fract_x
 _atom_site_fract_y
 _atom_site_fract_z
 _atom_site_occupancy
  Ca  Ca0  1  0.63180808  0.88277437  0.88995857  1
  Ca  Ca1  1  0.25815048  0.36819192  0.25096629  1
  Ca  Ca2  1  0.11722663  0.00718519  0.74903471  1
  Ca  Ca3  1  0.49184952  0.24281481  0.61004143  1
  Ca  Ca4  1  0.11819092  0.50815048  0.75096629  1
  Ca  Ca5  1  0.75718419  0.36722563  0.24903371  1
  Ca  Ca6  1  0.99281581  0.74184952  0.11004043  1
  Ca  Ca7  1  0.63277437  0.88180808  0.38995857  1
  As  As0  1  0.37500000  0.99308638  0.11808638  1
  As  As1  1  0.00691362  0.12500000  0.38191362  1
  As  As2  1  0.87500000  0.25691362  0.88191362  1
  As  As3  1  0.74308638  0.62500000  0.61808638  1
  Se  Se0  1  0.50000000  0.50000000  0.00000000  1
  Se  Se1  1  0.25000000  0.75000000  0.50000000  1
loop_
_geom_bond_atom_site_label_1
_geom_bond_atom_site_label_2
_geom_bond_distance
_geom_bond_site_symmetry_2
Ca0 Se1 2.975108 1_555
Ca0 Se0 3.284374 1_556
Ca1 Se1 2.975108 1_555
Ca1 Se0 3.284370 1_555
Ca2 Se1 2.975108 1_545
Ca2 Se0 3.284369 1_556
Ca3 Se0 2.975108 1_556
Ca3 Se1 3.284369 1_545
Ca4 Se0 2.975113 1_556
Ca4 Se1 3.284374 1_555
Ca5 Se0 2.975107 1_555
Ca5 Se1 3.284374 1_655
Ca6 Se1 2.975113 1_655
Ca6 Se0 3.284374 1_555
Ca7 Se0 2.975108 1_555
Ca7 Se1 3.284370 1_555
As0 Ca6 2.914898 1_455
As0 Ca5 2.914904 1_565
As0 Ca2 2.948993 1_564
As0 Ca7 2.948998 1_555
As0 Ca0 3.202479 1_554
As0 Ca4 3.202485 1_554
As0 Ca3 3.267095 1_565
As0 Ca1 3.267097 1_565
As1 Ca1 2.914902 1_555
As1 Ca7 2.914902 1_445
As1 Ca6 2.949001 1_445
As1 Ca4 2.949001 1_555
As1 Ca2 3.202484 1_555
As1 Ca3 3.202484 1_555
As1 Ca5 3.267097 1_455
As1 Ca0 3.267098 1_444
As2 Ca4 2.914898 1_655
As2 Ca0 2.914904 1_545
As2 Ca3 2.948993 1_555
As2 Ca1 2.948998 1_656
As2 Ca5 3.202479 1_556
As2 Ca6 3.202485 1_556
As2 Ca2 3.267095 1_655
As2 Ca7 3.267098 1_545
As3 Ca3 2.914910 1_555
As3 Ca2 2.914911 1_665
As3 Ca0 2.948996 1_555
As3 Ca5 2.948996 1_555
As3 Ca7 3.202483 1_555
As3 Ca1 3.202484 1_555
As3 Ca4 3.267089 1_655
As3 Ca6 3.267090 1_556
