# generated using pymatgen
data_Lu12In2Os2Ru
_symmetry_space_group_name_H-M   'P 1'
_cell_length_a   8.21941124
_cell_length_b   8.21941125
_cell_length_c   8.21941062
_cell_angle_alpha   109.73215248
_cell_angle_beta   109.73215031
_cell_angle_gamma   108.95060758
_symmetry_Int_Tables_number   1
_chemical_formula_structural   Lu12In2Os2Ru
_chemical_formula_sum   'Lu12 In2 Os2 Ru1'
_cell_volume   427.43822383
_cell_formula_units_Z   1
loop_
 _symmetry_equiv_pos_site_id
 _symmetry_equiv_pos_as_xyz
  1  'x, y, z'
loop_
 _atom_site_type_symbol
 _atom_site_label
 _atom_site_symmetry_multiplicity
 _atom_site_fract_x
 _atom_site_fract_y
 _atom_site_fract_z
 _atom_site_occupancy
  Lu  Lu0  1  0.31658777  0.31658777  0.63475158  1
  Lu  Lu1  1  0.68183520  0.68183520  0.36524842  1
  Lu  Lu2  1  0.68183520  0.31658777  0.00000000  1
  Lu  Lu3  1  0.31658777  0.68183520  1.00000000  1
  Lu  Lu4  1  0.18415735  0.42601527  0.24185892  1
  Lu  Lu5  1  0.81586806  0.57422683  0.75835877  1
  Lu  Lu6  1  0.18415735  0.94229743  0.75814108  1
  Lu  Lu7  1  0.94229743  0.18415735  0.75814108  1
  Lu  Lu8  1  0.81586806  0.05751028  0.24164123  1
  Lu  Lu9  1  0.05751028  0.81586806  0.24164123  1
  Lu  Lu10  1  0.42601527  0.18415735  0.24185892  1
  Lu  Lu11  1  0.57422683  0.81586806  0.75835877  1
  In  In0  1  0.99978042  0.49978042  0.50000000  1
  In  In1  1  0.49978042  0.99978042  0.50000000  1
  Os  Os0  1  0.34748522  0.34748522  1.00000000  1
  Os  Os1  1  0.99970361  0.99970361  0.00000000  1
  Ru  Ru0  1  0.65630277  0.65630277  0.00000000  1
loop_
_geom_bond_atom_site_label_1
_geom_bond_atom_site_label_2
_geom_bond_distance
_geom_bond_site_symmetry_2
Lu0 Os0 2.840814 1_555
Lu0 Ru0 2.867292 1_556
Lu1 Os0 2.840810 1_554
Lu1 Ru0 2.867297 1_555
Lu2 Os0 2.840806 1_554
Lu2 Ru0 2.867289 1_555
Lu3 Os0 2.840806 1_555
Lu3 Ru0 2.867289 1_556
Lu4 Os0 2.769320 1_554
Lu4 Os1 2.887810 1_445
Lu5 Ru0 2.747522 1_556
Lu5 Os1 2.882584 1_556
Lu6 Os0 2.769328 1_565
Lu6 Os1 2.887817 1_456
Lu7 Os0 2.769328 1_655
Lu7 Os1 2.887817 1_546
Lu8 Ru0 2.747528 1_545
Lu8 Os1 2.882585 1_545
Lu9 Ru0 2.747529 1_455
Lu9 Os1 2.882585 1_455
Lu10 Os0 2.769320 1_554
Lu10 Os1 2.887810 1_445
Lu11 Ru0 2.747522 1_556
Lu11 Os1 2.882584 1_556
In0 Lu8 3.009971 1_555
In0 Lu5 3.009978 1_555
In0 Lu6 3.010893 1_655
In0 Lu4 3.010900 1_655
In1 Lu9 3.009971 1_555
In1 Lu11 3.009978 1_555
In1 Lu7 3.010893 1_565
In1 Lu10 3.010900 1_565
