# generated using pymatgen
data_Al2B2MoW
_symmetry_space_group_name_H-M   'P 1'
_cell_length_a   7.16208667
_cell_length_b   7.16208672
_cell_length_c   3.09719991
_cell_angle_alpha   90.00000000
_cell_angle_beta   90.00000000
_cell_angle_gamma   154.14780997
_symmetry_Int_Tables_number   1
_chemical_formula_structural   Al2B2MoW
_chemical_formula_sum   'Al2 B2 Mo1 W1'
_cell_volume   69.27645894
_cell_formula_units_Z   1
loop_
 _symmetry_equiv_pos_site_id
 _symmetry_equiv_pos_as_xyz
  1  'x, y, z'
loop_
 _atom_site_type_symbol
 _atom_site_label
 _atom_site_symmetry_multiplicity
 _atom_site_fract_x
 _atom_site_fract_y
 _atom_site_fract_z
 _atom_site_occupancy
  Al  Al0  1  0.69974966  0.30025034  0.75000000  1
  Al  Al1  1  0.30101876  0.69898124  0.25000000  1
  B  B0  1  0.46616985  0.53383015  0.25000000  1
  B  B1  1  0.53408218  0.46591782  0.75000000  1
  Mo  Mo0  1  0.90948139  0.09051861  0.75000000  1
  W  W0  1  0.08949816  0.91050184  0.25000000  1
loop_
_geom_bond_atom_site_label_1
_geom_bond_atom_site_label_2
_geom_bond_distance
_geom_bond_site_symmetry_2
Al0 B1 2.312915 1_555
Al0 Al1 2.638915 1_655
Al0 Al1 2.638915 1_656
Al0 Al1 2.638915 1_546
Al0 Al1 2.638915 1_545
Al0 W0 2.708174 1_546
Al0 W0 2.708174 1_545
Al0 W0 2.708174 1_656
Al0 W0 2.708174 1_655
Al0 Mo0 2.928105 1_555
Al1 B0 2.305706 1_555
Al1 Mo0 2.694057 1_565
Al1 Mo0 2.694057 1_564
Al1 Mo0 2.694057 1_455
Al1 Mo0 2.694057 1_454
Al1 W0 2.953079 1_555
B0 B1 1.815799 1_554
B0 B1 1.815799 1_555
B0 W0 2.351894 1_655
B0 W0 2.351894 1_545
B0 Mo0 2.364596 1_454
B0 Mo0 2.364596 1_455
B0 Mo0 2.364596 1_565
B0 Mo0 2.364596 1_564
B1 W0 2.358709 1_656
B1 W0 2.358709 1_655
B1 W0 2.358709 1_545
B1 W0 2.358709 1_546
B1 Mo0 2.364931 1_455
B1 Mo0 2.364931 1_565
