# generated using pymatgen
data_Nb4V(CuSi)4
_symmetry_space_group_name_H-M   'P 1'
_cell_length_a   7.32917627
_cell_length_b   7.32917565
_cell_length_c   7.32917553
_cell_angle_alpha   93.48431185
_cell_angle_beta   93.48430815
_cell_angle_gamma   151.45589402
_symmetry_Int_Tables_number   1
_chemical_formula_structural   Nb4V(CuSi)4
_chemical_formula_sum   'Nb4 V1 Cu4 Si4'
_cell_volume   182.31746487
_cell_formula_units_Z   1
loop_
 _symmetry_equiv_pos_site_id
 _symmetry_equiv_pos_as_xyz
  1  'x, y, z'
loop_
 _atom_site_type_symbol
 _atom_site_label
 _atom_site_symmetry_multiplicity
 _atom_site_fract_x
 _atom_site_fract_y
 _atom_site_fract_z
 _atom_site_occupancy
  Nb  Nb0  1  0.12714074  0.80672750  0.93386824  1
  Nb  Nb1  1  0.19327250  0.12714074  0.32041324  1
  Nb  Nb2  1  0.80672750  0.87285926  0.67958676  1
  Nb  Nb3  1  0.87285926  0.19327250  0.06613176  1
  V  V0  1  0.50000000  0.50000000  0.00000000  1
  Cu  Cu0  1  0.39583565  0.91886780  0.31470344  1
  Cu  Cu1  1  0.60416435  0.08113220  0.68529656  1
  Cu  Cu2  1  0.91886780  0.60416435  0.52303215  1
  Cu  Cu3  1  0.08113220  0.39583565  0.47696785  1
  Si  Si0  1  0.25012581  0.55808496  0.80821077  1
  Si  Si1  1  0.44191504  0.25012581  0.69204086  1
  Si  Si2  1  0.55808496  0.74987419  0.30795914  1
  Si  Si3  1  0.74987419  0.44191504  0.19178923  1
loop_
_geom_bond_atom_site_label_1
_geom_bond_atom_site_label_2
_geom_bond_distance
_geom_bond_site_symmetry_2
Nb0 Si3 2.574630 1_456
Nb0 Si3 2.574630 1_566
Nb0 Si1 2.655147 1_565
Nb0 Si1 2.655148 1_455
Nb0 Si0 2.786473 1_555
Nb0 V0 2.943629 1_566
Nb0 V0 2.943630 1_456
Nb1 Si2 2.574630 1_555
Nb1 Si2 2.574630 1_445
Nb1 Si3 2.655147 1_445
Nb1 Si3 2.655147 1_555
Nb1 Si1 2.786473 1_555
Nb1 V0 2.943629 1_555
Nb1 V0 2.943630 1_445
Nb2 Si1 2.574630 1_555
Nb2 Si1 2.574630 1_665
Nb2 Si0 2.655147 1_665
Nb2 Si0 2.655147 1_555
Nb2 Si2 2.786473 1_555
Nb2 V0 2.943629 1_556
Nb2 V0 2.943630 1_666
Nb3 Si0 2.574630 1_654
Nb3 Si0 2.574630 1_544
Nb3 Si2 2.655147 1_545
Nb3 Si2 2.655148 1_655
Nb3 Si3 2.786473 1_555
Nb3 V0 2.943629 1_545
Nb3 V0 2.943630 1_655
Cu0 Si3 2.338373 1_565
Cu0 Si3 2.338374 1_455
Cu0 Si2 2.353296 1_555
Cu0 Cu3 2.604364 1_555
Cu0 Cu2 2.604364 1_565
Cu0 Cu2 2.604364 1_455
Cu0 Cu3 2.604364 1_665
Cu0 Cu1 2.652568 1_565
Cu0 Nb3 2.907451 1_455
Cu0 Nb3 2.907451 1_565
Cu0 Nb1 2.918438 1_565
Cu0 Nb0 2.924706 1_554
Cu1 Si0 2.338373 1_545
Cu1 Si0 2.338374 1_655
Cu1 Si1 2.353296 1_555
Cu1 Cu2 2.604364 1_555
Cu1 Cu3 2.604364 1_545
Cu1 Cu3 2.604364 1_655
Cu1 Cu2 2.604364 1_445
Cu1 Nb0 2.907451 1_655
Cu1 Nb0 2.907451 1_545
Cu1 Nb2 2.918438 1_545
Cu1 Nb3 2.924706 1_556
Cu2 Si1 2.338374 1_665
Cu2 Si1 2.338374 1_555
Cu2 Si3 2.353296 1_555
Cu2 Cu3 2.652568 1_655
Cu2 Nb1 2.907450 1_665
Cu2 Nb1 2.907451 1_555
Cu2 Nb0 2.918438 1_655
Cu2 Nb2 2.924705 1_555
Cu3 Si2 2.338374 1_445
Cu3 Si2 2.338374 1_555
Cu3 Si0 2.353296 1_555
Cu3 Nb2 2.907450 1_445
Cu3 Nb2 2.907451 1_555
Cu3 Nb3 2.918438 1_455
Cu3 Nb1 2.924705 1_555
Si0 V0 2.576939 1_556
Si1 V0 2.576938 1_556
Si2 V0 2.576938 1_555
Si3 V0 2.576939 1_555
