# generated using pymatgen
data_Cs2Ir4Se7S
_symmetry_space_group_name_H-M   'P 1'
_cell_length_a   6.32664925
_cell_length_b   7.46486929
_cell_length_c   16.59840834
_cell_angle_alpha   89.96014179
_cell_angle_beta   91.22452276
_cell_angle_gamma   86.90930496
_symmetry_Int_Tables_number   1
_chemical_formula_structural   Cs2Ir4Se7S
_chemical_formula_sum   'Cs4 Ir8 Se14 S2'
_cell_volume   782.58281422
_cell_formula_units_Z   2
loop_
 _symmetry_equiv_pos_site_id
 _symmetry_equiv_pos_as_xyz
  1  'x, y, z'
loop_
 _atom_site_type_symbol
 _atom_site_label
 _atom_site_symmetry_multiplicity
 _atom_site_fract_x
 _atom_site_fract_y
 _atom_site_fract_z
 _atom_site_occupancy
  Cs  Cs0  1  0.37524335  0.96907391  0.00023894  1
  Cs  Cs1  1  0.65015279  0.48276041  0.50423051  1
  Cs  Cs2  1  0.00534237  0.98045163  0.50174003  1
  Cs  Cs3  1  0.93216157  0.46222682  0.99534301  1
  Ir  Ir0  1  0.02926326  0.98752710  0.25393900  1
  Ir  Ir1  1  0.03409072  0.99151767  0.74623745  1
  Ir  Ir2  1  0.98787314  0.50008013  0.24559401  1
  Ir  Ir3  1  0.99128118  0.49520063  0.75167391  1
  Ir  Ir4  1  0.50409529  0.26132078  0.25596069  1
  Ir  Ir5  1  0.47889342  0.76480493  0.75179083  1
  Ir  Ir6  1  0.46516156  0.77373559  0.24949322  1
  Ir  Ir7  1  0.52045023  0.26081645  0.74514174  1
  Se  Se0  1  0.85161635  0.25298850  0.32764552  1
  Se  Se1  1  0.82589869  0.75257574  0.67394293  1
  Se  Se2  1  0.14124825  0.73642050  0.16615420  1
  Se  Se3  1  0.19009735  0.24280563  0.82573049  1
  Se  Se4  1  0.17099688  0.24082082  0.17357007  1
  Se  Se5  1  0.15654296  0.73203107  0.83137373  1
  Se  Se6  1  0.82453938  0.74888373  0.32514144  1
  Se  Se7  1  0.67301736  0.01145296  0.17786271  1
  Se  Se8  1  0.68939882  0.00608943  0.82494571  1
  Se  Se9  1  0.31893391  0.51936825  0.32876181  1
  Se  Se10  1  0.31973818  0.51470391  0.67084988  1
  Se  Se11  1  0.35619975  0.02547519  0.33718993  1
  Se  Se12  1  0.35939589  0.02220089  0.66596559  1
  Se  Se13  1  0.63772989  0.50948531  0.17368700  1
  S  S0  1  0.85046550  0.24825985  0.68005207  1
  S  S1  1  0.66017098  0.50692016  0.81574359  1
loop_
_geom_bond_atom_site_label_1
_geom_bond_atom_site_label_2
_geom_bond_distance
_geom_bond_site_symmetry_2
Cs0 Se7 3.488507 1_565
Cs0 Se8 3.577385 1_564
Cs0 Se5 3.606514 1_554
Cs0 Se2 3.638240 1_555
Cs0 Se3 3.677793 1_564
Cs0 Se4 3.734489 1_565
Cs1 Se10 3.502799 1_555
Cs1 Se9 3.553136 1_555
Cs1 S0 3.575302 1_555
Cs1 Se0 3.617790 1_555
Cs1 Se1 3.652915 1_555
Cs1 Se6 3.790558 1_555
Cs2 Se12 3.515755 1_565
Cs2 Se1 3.562652 1_455
Cs2 Se11 3.583070 1_565
Cs2 Se6 3.600808 1_455
Cs2 Se0 3.618500 1_465
Cs2 S0 3.692895 1_465
Cs3 S1 3.417108 1_555
Cs3 Se13 3.538865 1_556
Cs3 Se3 3.631298 1_655
Cs3 Se4 3.646799 1_656
Cs3 Se5 3.734261 1_655
Cs3 Se2 3.757311 1_656
Ir0 Se2 2.458342 1_555
Ir0 Se11 2.491908 1_565
Ir0 Se4 2.527687 1_565
Ir0 Se0 2.551227 1_465
Ir0 Se7 2.557513 1_465
Ir0 Se6 2.561091 1_455
Ir1 S0 2.435583 1_465
Ir1 Se5 2.477254 1_555
Ir1 Se12 2.496210 1_565
Ir1 Se3 2.526126 1_565
Ir1 Se1 2.558337 1_455
Ir1 Se8 2.563324 1_465
Ir2 Se2 2.455372 1_655
Ir2 Se6 2.472945 1_555
Ir2 Se13 2.491353 1_555
Ir2 Se0 2.493655 1_555
Ir2 Se9 2.494504 1_655
Ir2 Se4 2.517459 1_655
Ir3 S1 2.366946 1_555
Ir3 S0 2.395804 1_555
Ir3 Se5 2.472282 1_655
Ir3 Se1 2.484509 1_555
Ir3 Se10 2.508122 1_655
Ir3 Se3 2.513584 1_655
Ir4 Se11 2.453806 1_555
Ir4 Se0 2.475277 1_555
Ir4 Se7 2.479768 1_555
Ir4 Se13 2.495242 1_555
Ir4 Se4 2.499326 1_555
Ir4 Se9 2.522596 1_555
Ir5 S1 2.419733 1_555
Ir5 Se12 2.467051 1_565
Ir5 Se5 2.476369 1_555
Ir5 Se10 2.540241 1_555
Ir5 Se1 2.568556 1_555
Ir5 Se8 2.585508 1_565
Ir6 Se11 2.456110 1_565
Ir6 Se2 2.476207 1_555
Ir6 Se9 2.535845 1_555
Ir6 Se13 2.548778 1_555
Ir6 Se7 2.570485 1_565
Ir6 Se6 2.571524 1_555
Ir7 S0 2.368703 1_555
Ir7 S1 2.379828 1_555
Ir7 Se12 2.465740 1_555
Ir7 Se8 2.495926 1_555
Ir7 Se3 2.514980 1_555
Ir7 Se10 2.528895 1_555
