# generated using pymatgen
data_KTcNiP2
_symmetry_space_group_name_H-M   'P 1'
_cell_length_a   7.19278926
_cell_length_b   7.19278944
_cell_length_c   7.19279026
_cell_angle_alpha   149.14143328
_cell_angle_beta   149.14143676
_cell_angle_gamma   44.20316022
_symmetry_Int_Tables_number   1
_chemical_formula_structural   KTcNiP2
_chemical_formula_sum   'K1 Tc1 Ni1 P2'
_cell_volume   97.61772642
_cell_formula_units_Z   1
loop_
 _symmetry_equiv_pos_site_id
 _symmetry_equiv_pos_as_xyz
  1  'x, y, z'
loop_
 _atom_site_type_symbol
 _atom_site_label
 _atom_site_symmetry_multiplicity
 _atom_site_fract_x
 _atom_site_fract_y
 _atom_site_fract_z
 _atom_site_occupancy
  K  K0  1  0.00000000  0.00000000  0.00000000  1
  Tc  Tc0  1  0.25000000  0.75000000  0.50000000  1
  Ni  Ni0  1  0.75000000  0.25000000  0.50000000  1
  P  P0  1  0.34372211  0.34372211  1.00000000  1
  P  P1  1  0.65627789  0.65627789  0.00000000  1
loop_
_geom_bond_atom_site_label_1
_geom_bond_atom_site_label_2
_geom_bond_distance
_geom_bond_site_symmetry_2
K0 P1 3.415064 1_545
K0 P0 3.415064 1_454
K0 P1 3.415064 1_556
K0 P0 3.415064 1_443
K0 P1 3.415064 1_455
K0 P0 3.415064 1_544
K0 P1 3.415065 1_444
K0 P0 3.415065 1_555
Ni0 P0 2.285264 1_655
Ni0 P1 2.285264 1_545
Ni0 P0 2.285264 1_554
Ni0 P1 2.285264 1_556
P0 Tc0 2.285264 1_545
P0 Tc0 2.285264 1_556
P1 Tc0 2.285264 1_655
P1 Tc0 2.285264 1_554
