# generated using pymatgen
data_BaNa2(SnIr)4
_symmetry_space_group_name_H-M   'P 1'
_cell_length_a   6.98580929
_cell_length_b   6.98580784
_cell_length_c   6.98580860
_cell_angle_alpha   111.75578235
_cell_angle_beta   111.75578604
_cell_angle_gamma   104.99278897
_symmetry_Int_Tables_number   1
_chemical_formula_structural   BaNa2(SnIr)4
_chemical_formula_sum   'Ba1 Na2 Sn4 Ir4'
_cell_volume   261.24872958
_cell_formula_units_Z   1
loop_
 _symmetry_equiv_pos_site_id
 _symmetry_equiv_pos_as_xyz
  1  'x, y, z'
loop_
 _atom_site_type_symbol
 _atom_site_label
 _atom_site_symmetry_multiplicity
 _atom_site_fract_x
 _atom_site_fract_y
 _atom_site_fract_z
 _atom_site_occupancy
  Ba  Ba0  1  0.50000000  0.50000000  0.00000000  1
  Na  Na0  1  0.00000000  0.50000000  0.50000000  1
  Na  Na1  1  0.50000000  0.00000000  0.50000000  1
  Sn  Sn0  1  0.38083675  0.98299096  0.00000000  1
  Sn  Sn1  1  0.01700904  0.01700904  0.39784579  1
  Sn  Sn2  1  0.98299096  0.38083675  0.00000000  1
  Sn  Sn3  1  0.61916225  0.61916225  0.60215421  1
  Ir  Ir0  1  0.01043486  0.75435560  1.00000000  1
  Ir  Ir1  1  0.98956514  0.98956514  0.74392074  1
  Ir  Ir2  1  0.24564440  0.24564440  0.25607926  1
  Ir  Ir3  1  0.75435560  0.01043486  1.00000000  1
loop_
_geom_bond_atom_site_label_1
_geom_bond_atom_site_label_2
_geom_bond_distance
_geom_bond_site_symmetry_2
Ba0 Sn3 3.490258 1_554
Ba0 Sn0 3.490264 1_545
Ba0 Sn1 3.490265 1_665
Ba0 Sn2 3.490265 1_455
Ba0 Ir3 3.548805 1_564
Ba0 Ir2 3.548805 1_555
Ba0 Ir1 3.548806 1_444
Ba0 Ir0 3.548806 1_654
Ba0 Sn0 3.678402 1_555
Ba0 Sn2 3.678403 1_555
Ba0 Sn1 3.678403 1_554
Ba0 Sn3 3.678406 1_555
Ba0 Na1 3.918748 1_565
Ba0 Na1 3.918748 1_554
Ba0 Na0 3.918749 1_554
Ba0 Na0 3.918749 1_655
Na0 Sn1 3.223843 1_555
Na0 Sn2 3.223843 1_455
Na0 Sn0 3.223844 1_556
Na0 Sn3 3.223848 1_455
Na1 Sn0 3.223843 1_545
Na1 Sn1 3.223844 1_555
Na1 Sn2 3.223844 1_556
Na1 Sn3 3.223847 1_545
Ir0 Sn2 2.566424 1_456
Ir0 Sn0 2.666119 1_556
Ir0 Sn1 2.678547 1_566
Ir0 Sn3 2.678549 1_455
Ir0 Ir1 2.833897 1_455
Ir0 Ir2 2.833897 1_566
Ir0 Ir3 2.838355 1_465
Ir0 Na0 3.241351 1_555
Ir0 Na1 3.241352 1_566
Ir1 Sn1 2.566425 1_665
Ir1 Sn3 2.666127 1_555
Ir1 Sn2 2.678547 1_566
Ir1 Sn0 2.678547 1_656
Ir1 Ir3 2.833898 1_565
Ir1 Ir2 2.838356 1_666
Ir1 Na0 3.241351 1_655
Ir1 Na1 3.241351 1_565
Ir2 Sn3 2.566419 1_555
Ir2 Sn1 2.666119 1_555
Ir2 Sn2 2.678547 1_455
Ir2 Sn0 2.678547 1_545
Ir2 Ir3 2.833898 1_454
Ir2 Na1 3.241351 1_555
Ir2 Na0 3.241351 1_555
Ir3 Sn0 2.566425 1_546
Ir3 Sn2 2.666119 1_556
Ir3 Sn1 2.678547 1_656
Ir3 Sn3 2.678549 1_545
Ir3 Na1 3.241351 1_555
Ir3 Na0 3.241351 1_656
