# generated using pymatgen
data_Ba6Li2Ta2V2O17
_symmetry_space_group_name_H-M   'P 1'
_cell_length_a   5.80438165
_cell_length_b   5.80438101
_cell_length_c   14.75102917
_cell_angle_alpha   89.88138424
_cell_angle_beta   89.88138269
_cell_angle_gamma   60.12045802
_symmetry_Int_Tables_number   1
_chemical_formula_structural   Ba6Li2Ta2V2O17
_chemical_formula_sum   'Ba6 Li2 Ta2 V2 O17'
_cell_volume   430.91286316
_cell_formula_units_Z   1
loop_
 _symmetry_equiv_pos_site_id
 _symmetry_equiv_pos_as_xyz
  1  'x, y, z'
loop_
 _atom_site_type_symbol
 _atom_site_label
 _atom_site_symmetry_multiplicity
 _atom_site_fract_x
 _atom_site_fract_y
 _atom_site_fract_z
 _atom_site_occupancy
  Ba  Ba0  1  0.66514049  0.66822077  0.66044672  1
  Ba  Ba1  1  0.33177923  0.33485951  0.33955328  1
  Ba  Ba2  1  0.33265883  0.33279233  0.81614595  1
  Ba  Ba3  1  0.66720767  0.66734117  0.18385405  1
  Ba  Ba4  1  0.99959196  0.00040804  0.50000000  1
  Ba  Ba5  1  0.02747515  0.97252485  1.00000000  1
  Li  Li0  1  0.00346243  0.99380973  0.72221797  1
  Li  Li1  1  0.00619027  0.99653757  0.27778203  1
  Ta  Ta0  1  0.33302187  0.33333989  0.58580008  1
  Ta  Ta1  1  0.66666011  0.66697813  0.41419992  1
  V  V0  1  0.66207199  0.67140797  0.89212389  1
  V  V1  1  0.32859203  0.33792801  0.10787611  1
  O  O0  1  0.83051697  0.81942966  0.84706381  1
  O  O1  1  0.35758527  0.81562116  0.83868724  1
  O  O2  1  0.82898930  0.34243022  0.86047937  1
  O  O3  1  0.18057034  0.16948303  0.15293619  1
  O  O4  1  0.65756978  0.17101070  0.13952063  1
  O  O5  1  0.18437884  0.64241473  0.16131276  1
  O  O6  1  0.50150643  0.49849357  0.50000000  1
  O  O7  1  0.00247422  0.49784506  0.49851768  1
  O  O8  1  0.50215494  0.99752678  0.50148232  1
  O  O9  1  0.16951297  0.17695422  0.65785270  1
  O  O10  1  0.65019768  0.17666986  0.65877630  1
  O  O11  1  0.17056087  0.65431054  0.65623272  1
  O  O12  1  0.82304578  0.83048703  0.34214730  1
  O  O13  1  0.34568946  0.82943913  0.34376728  1
  O  O14  1  0.82333014  0.34980232  0.34122370  1
  O  O15  1  0.61034820  0.72530820  0.00626650  1
  O  O16  1  0.27469180  0.38965180  0.99373350  1
loop_
_geom_bond_atom_site_label_1
_geom_bond_atom_site_label_2
_geom_bond_distance
_geom_bond_site_symmetry_2
Ba0 O8 2.869834 1_555
Ba0 O11 2.894817 1_655
Ba0 O9 2.895793 1_655
Ba0 O10 2.897490 1_555
Ba0 O6 2.902659 1_555
Ba0 O10 2.909050 1_565
Ba0 O11 2.912587 1_555
Ba0 O9 2.921143 1_565
Ba0 O7 2.928897 1_655
Ba0 O1 3.049556 1_555
Ba0 O0 3.182762 1_555
Ba0 O2 3.373960 1_555
Ba1 O7 2.869831 1_555
Ba1 O13 2.894817 1_545
Ba1 O12 2.895793 1_545
Ba1 O14 2.897491 1_555
Ba1 O6 2.902659 1_555
Ba1 O14 2.909050 1_455
Ba1 O13 2.912587 1_555
Ba1 O12 2.921143 1_455
Ba1 O8 2.928894 1_545
Ba1 O5 3.049556 1_555
Ba1 O3 3.182762 1_555
Ba1 O4 3.373960 1_555
Ba2 O16 2.640780 1_555
Ba2 O10 2.816711 1_555
Ba2 O9 2.835216 1_555
Ba2 O11 2.858990 1_555
Ba2 O1 2.897185 1_555
Ba2 O0 2.911813 1_455
Ba2 O1 2.950590 1_545
Ba2 O2 2.967638 1_455
Ba2 O0 2.976251 1_545
Ba2 O2 2.983096 1_555
Ba3 O15 2.640780 1_555
Ba3 O14 2.816710 1_555
Ba3 O12 2.835216 1_555
Ba3 O13 2.858990 1_555
Ba3 O5 2.897186 1_555
Ba3 O3 2.911813 1_565
Ba3 O5 2.950590 1_655
Ba3 O4 2.967638 1_565
Ba3 O3 2.976251 1_655
Ba3 O4 2.983096 1_555
Ba4 O11 2.887138 1_645
Ba4 O13 2.887138 1_645
Ba4 O8 2.895719 1_545
Ba4 O7 2.895722 1_655
Ba4 O6 2.896341 1_555
Ba4 O7 2.908896 1_645
Ba4 O8 2.908899 1_645
Ba4 O9 2.910518 1_655
Ba4 O12 2.910518 1_545
Ba4 O6 2.918606 1_645
Ba4 O14 2.927121 1_555
Ba4 O10 2.927121 1_555
Ba5 O2 2.774853 1_465
Ba5 O4 2.774853 1_466
Ba5 O3 2.866558 1_566
Ba5 O0 2.866558 1_455
Ba5 O5 2.900756 1_556
Ba5 O1 2.900756 1_555
Ba5 O16 2.945756 1_555
Ba5 O15 2.945756 1_556
Ba5 O16 3.374866 1_565
Ba5 O15 3.374866 1_456
Li0 O11 1.967496 1_555
Li0 O9 1.993326 1_565
Li0 O10 2.010524 1_465
Li0 O1 2.476978 1_555
Li0 O0 2.533905 1_455
Li1 O13 1.967496 1_555
Li1 O12 1.993326 1_455
Li1 O14 2.010524 1_465
Li1 O5 2.476978 1_555
Li1 O3 2.533905 1_565
O0 V0 1.722740 1_555
O1 V0 1.724701 1_555
O2 V0 1.720851 1_555
O3 V1 1.722740 1_555
O4 V1 1.720851 1_555
O5 V1 1.724701 1_555
O6 Ta1 2.097875 1_555
O6 Ta0 2.097875 1_555
O7 Ta1 2.099641 1_455
O7 Ta0 2.104838 1_555
O8 Ta0 2.099637 1_565
O8 Ta1 2.104842 1_555
O9 Ta0 1.924713 1_555
O10 Ta0 1.926437 1_555
O11 Ta0 1.921742 1_555
O12 Ta1 1.924713 1_555
O13 Ta1 1.921742 1_555
O14 Ta1 1.926437 1_555
O15 V0 1.711559 1_554
O16 V1 1.711559 1_556
