# generated using pymatgen
data_Cs4MnCdTe4
_symmetry_space_group_name_H-M   'P 1'
_cell_length_a   9.46867488
_cell_length_b   9.46867518
_cell_length_c   9.46867553
_cell_angle_alpha   134.28689090
_cell_angle_beta   129.86486504
_cell_angle_gamma   70.16999611
_symmetry_Int_Tables_number   1
_chemical_formula_structural   Cs4MnCdTe4
_chemical_formula_sum   'Cs4 Mn1 Cd1 Te4'
_cell_volume   457.29111660
_cell_formula_units_Z   1
loop_
 _symmetry_equiv_pos_site_id
 _symmetry_equiv_pos_as_xyz
  1  'x, y, z'
loop_
 _atom_site_type_symbol
 _atom_site_label
 _atom_site_symmetry_multiplicity
 _atom_site_fract_x
 _atom_site_fract_y
 _atom_site_fract_z
 _atom_site_occupancy
  Cs  Cs0  1  0.96918529  0.64053486  0.32156534  1
  Cs  Cs1  1  0.68103148  0.85946514  0.82865043  1
  Cs  Cs2  1  0.31896852  0.14761996  0.17843466  1
  Cs  Cs3  1  0.03081471  0.35238004  0.67134957  1
  Mn  Mn0  1  0.50000000  0.75000000  0.25000000  1
  Cd  Cd0  1  0.50000000  0.25000000  0.75000000  1
  Te  Te0  1  0.58303660  0.40803945  0.19380859  1
  Te  Te1  1  0.21423086  0.88922901  0.30619141  1
  Te  Te2  1  0.78576914  0.09196055  0.67499815  1
  Te  Te3  1  0.41696340  0.61077099  0.82500185  1
loop_
_geom_bond_atom_site_label_1
_geom_bond_atom_site_label_2
_geom_bond_distance
_geom_bond_site_symmetry_2
Cs0 Te2 3.863159 1_565
Cs0 Mn0 3.907351 1_555
Cs0 Te2 3.944416 1_554
Cs0 Te1 3.945698 1_655
Cs0 Te0 3.968656 1_555
Cs0 Te3 3.991848 1_655
Cs0 Te3 4.142390 1_554
Cs1 Te0 3.863152 1_555
Cs1 Mn0 3.907348 1_555
Cs1 Te0 3.944423 1_566
Cs1 Te3 3.945698 1_555
Cs1 Te2 3.968641 1_565
Cs1 Te1 3.991840 1_656
Cs1 Te1 4.142398 1_555
Cs2 Te3 3.863165 1_544
Cs2 Mn0 3.907351 1_545
Cs2 Te3 3.944409 1_555
Cs2 Te0 3.945698 1_555
Cs2 Te1 3.968641 1_545
Cs2 Te2 3.991840 1_454
Cs2 Te2 4.142398 1_555
Cs3 Te1 3.863159 1_556
Cs3 Mn0 3.907351 1_556
Cs3 Te1 3.944416 1_545
Cs3 Te2 3.945698 1_455
Cs3 Te3 3.968655 1_555
Cs3 Te0 3.991848 1_455
Cs3 Te0 4.142390 1_556
Mn0 Te0 2.790801 1_555
Mn0 Te1 2.790801 1_555
Mn0 Te2 2.790801 1_565
Mn0 Te3 2.790806 1_554
Cd0 Te3 2.880531 1_555
Cd0 Te2 2.880531 1_555
Cd0 Te1 2.880531 1_545
Cd0 Te0 2.880536 1_556
Cd0 Cs2 3.882743 1_555
Cd0 Cs3 3.882746 1_555
Cd0 Cs0 3.882746 1_556
Cd0 Cs1 3.882746 1_545
