# generated using pymatgen
data_LiZnCuF6
_symmetry_space_group_name_H-M   'P 1'
_cell_length_a   4.59704457
_cell_length_b   4.59704457
_cell_length_c   9.00477632
_cell_angle_alpha   90.00000000
_cell_angle_beta   90.00000000
_cell_angle_gamma   90.00000000
_symmetry_Int_Tables_number   1
_chemical_formula_structural   LiZnCuF6
_chemical_formula_sum   'Li2 Zn2 Cu2 F12'
_cell_volume   190.29630640
_cell_formula_units_Z   2
loop_
 _symmetry_equiv_pos_site_id
 _symmetry_equiv_pos_as_xyz
  1  'x, y, z'
loop_
 _atom_site_type_symbol
 _atom_site_label
 _atom_site_symmetry_multiplicity
 _atom_site_fract_x
 _atom_site_fract_y
 _atom_site_fract_z
 _atom_site_occupancy
  Li  Li0  1  0.50000000  0.50000000  0.16658713  1
  Li  Li1  1  0.00000000  0.00000000  0.66658713  1
  Zn  Zn0  1  0.50000000  0.50000000  0.49778723  1
  Zn  Zn1  1  0.00000000  0.00000000  0.99778723  1
  Cu  Cu0  1  0.50000000  0.50000000  0.83383437  1
  Cu  Cu1  1  0.00000000  0.00000000  0.33383437  1
  F  F0  1  0.19359658  0.80640342  0.17546161  1
  F  F1  1  0.19206294  0.80793706  0.49254034  1
  F  F2  1  0.20846918  0.79153082  0.83289468  1
  F  F3  1  0.80640342  0.19359658  0.17546161  1
  F  F4  1  0.80793706  0.19206294  0.49254034  1
  F  F5  1  0.79153082  0.20846918  0.83289468  1
  F  F6  1  0.30793706  0.30793706  0.99254034  1
  F  F7  1  0.29153082  0.29153082  0.33289468  1
  F  F8  1  0.30640342  0.30640342  0.67546161  1
  F  F9  1  0.70846918  0.70846918  0.33289468  1
  F  F10  1  0.69359658  0.69359658  0.67546161  1
  F  F11  1  0.69206294  0.69206294  0.99254034  1
loop_
_geom_bond_atom_site_label_1
_geom_bond_atom_site_label_2
_geom_bond_distance
_geom_bond_site_symmetry_2
Cu0 F5 1.895320 1_555
Cu0 F2 1.895320 1_555
Cu0 F11 1.897752 1_555
Cu0 F6 1.897752 1_555
Cu0 F10 1.902076 1_555
Cu0 F8 1.902076 1_555
Cu1 F7 1.895320 1_555
Cu1 F9 1.895320 1_445
Cu1 F1 1.897752 1_545
Cu1 F4 1.897752 1_455
Cu1 F3 1.902076 1_455
Cu1 F0 1.902076 1_545
F0 Li0 1.993593 1_555
F0 Zn1 2.035642 1_564
F1 Zn0 2.002519 1_555
F1 Li1 2.003842 1_565
F2 Zn1 2.010356 1_565
F2 Li1 2.019785 1_565
F3 Li0 1.993593 1_555
F3 Zn1 2.035642 1_654
F4 Zn0 2.002519 1_555
F4 Li1 2.003842 1_655
F5 Zn1 2.010356 1_655
F5 Li1 2.019785 1_655
F6 Zn1 2.002519 1_555
F6 Li0 2.003842 1_556
F7 Zn0 2.010356 1_555
F7 Li0 2.019785 1_555
F8 Li1 1.993593 1_555
F8 Zn0 2.035642 1_555
F9 Zn0 2.010356 1_555
F9 Li0 2.019785 1_555
F10 Li1 1.993593 1_665
F10 Zn0 2.035642 1_555
F11 Zn1 2.002519 1_665
F11 Li0 2.003842 1_556
