# generated using pymatgen
data_Pt4Rh4W
_symmetry_space_group_name_H-M   'P 1'
_cell_length_a   6.15315142
_cell_length_b   6.15315189
_cell_length_c   6.15315153
_cell_angle_alpha   95.62775312
_cell_angle_beta   95.62775732
_cell_angle_gamma   143.50127233
_symmetry_Int_Tables_number   1
_chemical_formula_structural   Pt4Rh4W
_chemical_formula_sum   'Pt4 Rh4 W1'
_cell_volume   131.59973824
_cell_formula_units_Z   1
loop_
 _symmetry_equiv_pos_site_id
 _symmetry_equiv_pos_as_xyz
  1  'x, y, z'
loop_
 _atom_site_type_symbol
 _atom_site_label
 _atom_site_symmetry_multiplicity
 _atom_site_fract_x
 _atom_site_fract_y
 _atom_site_fract_z
 _atom_site_occupancy
  Pt  Pt0  1  1.00000000  0.32667949  0.32667949  1
  Pt  Pt1  1  0.00000000  0.67332051  0.67332051  1
  Pt  Pt2  1  0.67332051  0.00000000  0.67332051  1
  Pt  Pt3  1  0.32667949  1.00000000  0.32667949  1
  Rh  Rh0  1  0.34047261  0.34047261  0.68094421  1
  Rh  Rh1  1  0.65952739  0.65952739  0.31905579  1
  Rh  Rh2  1  0.65952739  0.34047260  1.00000000  1
  Rh  Rh3  1  0.34047261  0.65952740  0.00000000  1
  W  W0  1  0.00000000  0.00000000  0.00000000  1
loop_
_geom_bond_atom_site_label_1
_geom_bond_atom_site_label_2
_geom_bond_distance
_geom_bond_site_symmetry_2
Pt0 W0 2.699741 1_655
Pt0 Rh1 2.712774 1_655
Pt0 Rh3 2.712775 1_545
Pt0 Rh3 2.712776 1_655
Pt0 Rh1 2.712777 1_545
Pt0 Pt2 2.795735 1_665
Pt0 Pt3 2.795735 1_545
Pt0 Pt2 2.795736 1_555
Pt0 Pt3 2.795736 1_655
Pt0 Rh0 2.816033 1_655
Pt0 Rh2 2.816038 1_554
Pt0 Pt1 2.864707 1_655
Pt1 W0 2.699741 1_566
Pt1 Rh0 2.712774 1_455
Pt1 Rh2 2.712775 1_565
Pt1 Rh2 2.712776 1_455
Pt1 Rh0 2.712777 1_565
Pt1 Pt3 2.795735 1_445
Pt1 Pt2 2.795735 1_565
Pt1 Pt3 2.795736 1_555
Pt1 Pt2 2.795736 1_455
Pt1 Rh1 2.816033 1_455
Pt1 Rh3 2.816038 1_556
Pt2 W0 2.699741 1_656
Pt2 Rh0 2.712774 1_545
Pt2 Rh3 2.712775 1_656
Pt2 Rh3 2.712776 1_546
Pt2 Rh0 2.712777 1_655
Pt2 Rh1 2.816034 1_545
Pt2 Rh2 2.816038 1_555
Pt2 Pt3 2.864707 1_545
Pt3 W0 2.699741 1_565
Pt3 Rh1 2.712774 1_565
Pt3 Rh2 2.712775 1_454
Pt3 Rh2 2.712776 1_564
Pt3 Rh1 2.712777 1_455
Pt3 Rh0 2.816034 1_565
Pt3 Rh3 2.816038 1_555
Rh0 Rh2 2.636733 1_555
Rh0 Rh3 2.636733 1_556
Rh0 W0 2.681240 1_666
Rh0 W0 2.681243 1_556
Rh0 Rh1 2.860950 1_555
Rh0 Rh1 2.860955 1_445
Rh1 Rh3 2.636733 1_555
Rh1 Rh2 2.636733 1_554
Rh1 W0 2.681240 1_555
Rh1 W0 2.681243 1_665
Rh2 W0 2.681237 1_556
Rh2 W0 2.681238 1_666
Rh2 Rh3 2.860961 1_656
Rh2 Rh3 2.860962 1_546
Rh3 W0 2.681237 1_665
Rh3 W0 2.681238 1_555
