# generated using pymatgen
data_Nb4AlS8
_symmetry_space_group_name_H-M   'P 1'
_cell_length_a   6.71466299
_cell_length_b   6.71466248
_cell_length_c   12.09689318
_cell_angle_alpha   90.00000000
_cell_angle_beta   90.00000000
_cell_angle_gamma   120.00000250
_symmetry_Int_Tables_number   1
_chemical_formula_structural   Nb4AlS8
_chemical_formula_sum   'Nb8 Al2 S16'
_cell_volume   472.33798633
_cell_formula_units_Z   2
loop_
 _symmetry_equiv_pos_site_id
 _symmetry_equiv_pos_as_xyz
  1  'x, y, z'
loop_
 _atom_site_type_symbol
 _atom_site_label
 _atom_site_symmetry_multiplicity
 _atom_site_fract_x
 _atom_site_fract_y
 _atom_site_fract_z
 _atom_site_occupancy
  Nb  Nb0  1  0.01132280  0.50566140  0.25000000  1
  Nb  Nb1  1  0.98867720  0.49433860  0.75000000  1
  Nb  Nb2  1  0.49433860  0.50566140  0.25000000  1
  Nb  Nb3  1  0.50566140  0.49433860  0.75000000  1
  Nb  Nb4  1  0.49433860  0.98867720  0.25000000  1
  Nb  Nb5  1  0.50566140  0.01132280  0.75000000  1
  Nb  Nb6  1  0.00000000  0.00000000  0.25000000  1
  Nb  Nb7  1  0.00000000  0.00000000  0.75000000  1
  Al  Al0  1  0.00000000  0.00000000  0.00000000  1
  Al  Al1  1  0.00000000  0.00000000  0.50000000  1
  S  S0  1  0.33351514  0.16675807  0.11961736  1
  S  S1  1  0.66648386  0.83324193  0.88038264  1
  S  S2  1  0.83324193  0.16675807  0.11961736  1
  S  S3  1  0.66648486  0.83324193  0.61961736  1
  S  S4  1  0.16675807  0.83324193  0.88038264  1
  S  S5  1  0.33351614  0.16675807  0.38038264  1
  S  S6  1  0.83324193  0.66648486  0.11961736  1
  S  S7  1  0.16675807  0.83324193  0.61961736  1
  S  S8  1  0.16675807  0.33351614  0.88038264  1
  S  S9  1  0.83324193  0.16675807  0.38038264  1
  S  S10  1  0.16675807  0.33351514  0.61961736  1
  S  S11  1  0.83324193  0.66648386  0.38038264  1
  S  S12  1  0.33333300  0.66666700  0.11917509  1
  S  S13  1  0.66666700  0.33333300  0.88082491  1
  S  S14  1  0.66666700  0.33333300  0.61917509  1
  S  S15  1  0.33333300  0.66666700  0.38082491  1
loop_
_geom_bond_atom_site_label_1
_geom_bond_atom_site_label_2
_geom_bond_distance
_geom_bond_site_symmetry_2
Nb0 S15 2.451702 1_555
Nb0 S12 2.451702 1_555
Nb0 S2 2.524844 1_455
Nb0 S9 2.524844 1_455
Nb0 S11 2.524844 1_455
Nb0 S6 2.524848 1_455
Nb1 S13 2.451702 1_555
Nb1 S14 2.451702 1_555
Nb1 S7 2.524844 1_655
Nb1 S4 2.524844 1_655
Nb1 S8 2.524844 1_655
Nb1 S10 2.524848 1_655
Nb2 S15 2.451706 1_555
Nb2 S12 2.451706 1_555
Nb2 S0 2.524843 1_555
Nb2 S6 2.524844 1_555
Nb2 S5 2.524844 1_555
Nb2 S11 2.524844 1_555
Nb3 S13 2.451706 1_555
Nb3 S14 2.451706 1_555
Nb3 S3 2.524843 1_555
Nb3 S10 2.524844 1_555
Nb3 S1 2.524844 1_555
Nb3 S8 2.524844 1_555
Nb4 S15 2.451702 1_555
Nb4 S12 2.451702 1_555
Nb4 S5 2.524844 1_565
Nb4 S2 2.524844 1_565
Nb4 S9 2.524844 1_565
Nb4 S0 2.524848 1_565
Nb5 S13 2.451702 1_555
Nb5 S14 2.451702 1_555
Nb5 S1 2.524844 1_545
Nb5 S7 2.524844 1_545
Nb5 S4 2.524844 1_545
Nb5 S3 2.524848 1_545
Nb6 S6 2.499792 1_445
Nb6 S0 2.499792 1_555
Nb6 S11 2.499797 1_445
Nb6 S2 2.499797 1_455
Nb6 S9 2.499797 1_455
Nb6 S5 2.499797 1_555
Nb7 S10 2.499792 1_555
Nb7 S3 2.499792 1_445
Nb7 S8 2.499797 1_555
Nb7 S7 2.499797 1_545
Nb7 S4 2.499797 1_545
Nb7 S1 2.499797 1_445
Al0 S6 2.419737 1_445
Al0 S0 2.419737 1_555
Al0 S8 2.419742 1_554
Al0 S2 2.419742 1_455
Al0 S4 2.419742 1_544
Al0 S1 2.419742 1_444
Al1 S10 2.419737 1_555
Al1 S3 2.419737 1_445
Al1 S11 2.419742 1_445
Al1 S9 2.419742 1_455
Al1 S5 2.419742 1_555
Al1 S7 2.419742 1_545
