# generated using pymatgen
data_Hf7Nb3(Ge3C)2
_symmetry_space_group_name_H-M   'P 1'
_cell_length_a   7.85074698
_cell_length_b   7.85074793
_cell_length_c   5.51482321
_cell_angle_alpha   90.00000000
_cell_angle_beta   90.00000000
_cell_angle_gamma   120.00000018
_symmetry_Int_Tables_number   1
_chemical_formula_structural   Hf7Nb3(Ge3C)2
_chemical_formula_sum   'Hf7 Nb3 Ge6 C2'
_cell_volume   294.36369104
_cell_formula_units_Z   1
loop_
 _symmetry_equiv_pos_site_id
 _symmetry_equiv_pos_as_xyz
  1  'x, y, z'
loop_
 _atom_site_type_symbol
 _atom_site_label
 _atom_site_symmetry_multiplicity
 _atom_site_fract_x
 _atom_site_fract_y
 _atom_site_fract_z
 _atom_site_occupancy
  Hf  Hf0  1  0.66666700  0.33333300  0.00000000  1
  Hf  Hf1  1  0.76657245  0.99936131  0.74994291  1
  Hf  Hf2  1  0.76657245  0.76721114  0.25005709  1
  Hf  Hf3  1  0.00063869  0.23342755  0.25005709  1
  Hf  Hf4  1  0.00063869  0.76721114  0.74994291  1
  Hf  Hf5  1  0.23278886  0.23342755  0.74994291  1
  Hf  Hf6  1  0.23278886  0.99936131  0.25005709  1
  Nb  Nb0  1  0.33333300  0.66666700  0.50000000  1
  Nb  Nb1  1  0.66666700  0.33333300  0.50000000  1
  Nb  Nb2  1  0.33333300  0.66666700  0.00000000  1
  Ge  Ge0  1  0.40430718  0.99872496  0.74649923  1
  Ge  Ge1  1  0.40430718  0.40558322  0.25350077  1
  Ge  Ge2  1  0.00127504  0.59569282  0.25350077  1
  Ge  Ge3  1  0.00127504  0.40558322  0.74649923  1
  Ge  Ge4  1  0.59441678  0.59569282  0.74649923  1
  Ge  Ge5  1  0.59441678  0.99872496  0.25350077  1
  C  C0  1  0.00000000  0.00000000  0.50000000  1
  C  C1  1  0.00000000  0.00000000  0.00000000  1
loop_
_geom_bond_atom_site_label_1
_geom_bond_atom_site_label_2
_geom_bond_distance
_geom_bond_site_symmetry_2
Hf0 Nb1 2.757412 1_555
Hf0 Nb1 2.757412 1_554
Ge0 Nb0 2.738945 1_555
Ge0 Nb1 2.753255 1_565
Ge0 Hf4 2.754459 1_555
Ge0 Nb2 2.758312 1_556
Ge0 Hf0 2.772523 1_566
Ge0 Hf5 2.773054 1_565
Ge0 Hf1 2.841622 1_555
Ge0 Hf6 3.052120 1_555
Ge0 Hf6 3.087370 1_556
Ge1 Nb0 2.738944 1_555
Ge1 Nb1 2.753264 1_555
Ge1 Hf3 2.754458 1_555
Ge1 Nb2 2.758312 1_555
Ge1 Hf0 2.772532 1_555
Ge1 Hf6 2.773061 1_545
Ge1 Hf2 2.841618 1_555
Ge1 Hf5 3.052122 1_555
Ge1 Hf5 3.087371 1_554
Ge2 Nb0 2.738944 1_555
Ge2 Nb1 2.753255 1_455
Ge2 Hf6 2.754459 1_555
Ge2 Nb2 2.758312 1_555
Ge2 Hf0 2.772523 1_455
Ge2 Hf2 2.773053 1_455
Ge2 Hf3 2.841622 1_555
Ge2 Hf4 3.052120 1_555
Ge2 Hf4 3.087370 1_554
Ge3 Nb0 2.738944 1_555
Ge3 Nb1 2.753251 1_455
Ge3 Hf5 2.754466 1_555
Ge3 Nb2 2.758312 1_556
Ge3 Hf0 2.772519 1_456
Ge3 Hf1 2.773060 1_445
Ge3 Hf4 2.841614 1_555
Ge3 Hf3 3.052124 1_555
Ge3 Hf3 3.087373 1_556
Ge4 Nb0 2.738944 1_555
Ge4 Nb1 2.753264 1_555
Ge4 Hf1 2.754459 1_555
Ge4 Nb2 2.758312 1_556
Ge4 Hf0 2.772532 1_556
Ge4 Hf4 2.773060 1_655
Ge4 Hf5 2.841618 1_555
Ge4 Hf2 3.052122 1_555
Ge4 Hf2 3.087371 1_556
Ge5 Nb0 2.738944 1_555
Ge5 Nb1 2.753251 1_565
Ge5 Hf2 2.754466 1_555
Ge5 Nb2 2.758312 1_555
Ge5 Hf0 2.772519 1_565
Ge5 Hf3 2.773060 1_665
Ge5 Hf6 2.841614 1_555
Ge5 Hf1 3.052124 1_555
Ge5 Hf1 3.087373 1_554
C0 Hf1 2.291102 1_445
C0 Hf6 2.291102 1_545
C0 Hf2 2.291102 1_445
C0 Hf5 2.291102 1_555
C0 Hf4 2.291102 1_545
C0 Hf3 2.291102 1_555
C1 Hf1 2.291481 1_444
C1 Hf6 2.291481 1_545
C1 Hf2 2.291481 1_445
C1 Hf5 2.291481 1_554
C1 Hf4 2.291481 1_544
C1 Hf3 2.291481 1_555
