# generated using pymatgen
data_NdTiCdSbO7
_symmetry_space_group_name_H-M   'P 1'
_cell_length_a   7.36414200
_cell_length_b   7.36414200
_cell_length_c   10.46723700
_cell_angle_alpha   90.00000000
_cell_angle_beta   90.00000000
_cell_angle_gamma   90.00000000
_symmetry_Int_Tables_number   1
_chemical_formula_structural   NdTiCdSbO7
_chemical_formula_sum   'Nd4 Ti4 Cd4 Sb4 O28'
_cell_volume   567.64441092
_cell_formula_units_Z   4
loop_
 _symmetry_equiv_pos_site_id
 _symmetry_equiv_pos_as_xyz
  1  'x, y, z'
loop_
 _atom_site_type_symbol
 _atom_site_label
 _atom_site_symmetry_multiplicity
 _atom_site_fract_x
 _atom_site_fract_y
 _atom_site_fract_z
 _atom_site_occupancy
  Nd  Nd0  1  0.00000000  0.73614200  0.00000000  1
  Nd  Nd1  1  0.26385800  0.00000000  0.25000000  1
  Nd  Nd2  1  0.00000000  0.26385800  0.50000000  1
  Nd  Nd3  1  0.73614200  0.00000000  0.75000000  1
  Ti  Ti0  1  0.76161200  0.00000000  0.25000000  1
  Ti  Ti1  1  0.00000000  0.76161200  0.50000000  1
  Ti  Ti2  1  0.23838800  0.00000000  0.75000000  1
  Ti  Ti3  1  0.00000000  0.23838800  0.00000000  1
  Cd  Cd0  1  0.50000000  0.73575400  0.00000000  1
  Cd  Cd1  1  0.50000000  0.26424600  0.50000000  1
  Cd  Cd2  1  0.73575400  0.50000000  0.75000000  1
  Cd  Cd3  1  0.26424600  0.50000000  0.25000000  1
  Sb  Sb0  1  0.24405500  0.50000000  0.75000000  1
  Sb  Sb1  1  0.50000000  0.75594500  0.50000000  1
  Sb  Sb2  1  0.50000000  0.24405500  0.00000000  1
  Sb  Sb3  1  0.75594500  0.50000000  0.25000000  1
  O  O0  1  0.26069500  0.73930500  0.12500000  1
  O  O1  1  0.55519000  0.94561900  0.36940000  1
  O  O2  1  0.73930500  0.26069500  0.62500000  1
  O  O3  1  0.95257600  0.95257600  0.37500000  1
  O  O4  1  0.05438100  0.44481000  0.88060000  1
  O  O5  1  0.04742400  0.04742400  0.87500000  1
  O  O6  1  0.04742400  0.95257600  0.62500000  1
  O  O7  1  0.24956300  0.23594400  0.07171700  1
  O  O8  1  0.23594400  0.24956300  0.67828300  1
  O  O9  1  0.24956300  0.76405600  0.42828300  1
  O  O10  1  0.44848500  0.44848500  0.87500000  1
  O  O11  1  0.44481000  0.05438100  0.86940000  1
  O  O12  1  0.44481000  0.94561900  0.63060000  1
  O  O13  1  0.55151500  0.55151500  0.37500000  1
  O  O14  1  0.55519000  0.05438100  0.13060000  1
  O  O15  1  0.55151500  0.44848500  0.12500000  1
  O  O16  1  0.75043700  0.76405600  0.57171700  1
  O  O17  1  0.73930500  0.73930500  0.87500000  1
  O  O18  1  0.76405600  0.24956300  0.32171700  1
  O  O19  1  0.76405600  0.75043700  0.17828300  1
  O  O20  1  0.75043700  0.23594400  0.92828300  1
  O  O21  1  0.94561900  0.55519000  0.38060000  1
  O  O22  1  0.94561900  0.44481000  0.11940000  1
  O  O23  1  0.95257600  0.04742400  0.12500000  1
  O  O24  1  0.05438100  0.55519000  0.61940000  1
  O  O25  1  0.26069500  0.26069500  0.37500000  1
  O  O26  1  0.23594400  0.75043700  0.82171700  1
  O  O27  1  0.44848500  0.55151500  0.62500000  1
loop_
_geom_bond_atom_site_label_1
_geom_bond_atom_site_label_2
_geom_bond_distance
_geom_bond_site_symmetry_2
Nd0 O0 2.323376 1_555
Nd0 O17 2.323376 1_454
Nd0 O4 2.514981 1_554
Nd0 O22 2.514981 1_455
Nd0 O26 2.551964 1_554
Nd0 O19 2.551964 1_455
Nd0 O23 2.662450 1_465
Nd0 O5 2.662450 1_564
Nd1 O0 2.323376 1_545
Nd1 O25 2.323376 1_555
Nd1 O1 2.514981 1_545
Nd1 O14 2.514981 1_555
Nd1 O7 2.551964 1_555
Nd1 O9 2.551964 1_545
Nd1 O23 2.662450 1_455
Nd1 O3 2.662450 1_445
Nd2 O25 2.323376 1_555
Nd2 O2 2.323376 1_455
Nd2 O24 2.514981 1_555
Nd2 O21 2.514981 1_455
Nd2 O8 2.551964 1_555
Nd2 O18 2.551964 1_455
Nd2 O6 2.662450 1_545
Nd2 O3 2.662450 1_445
Nd3 O17 2.323376 1_545
Nd3 O2 2.323376 1_555
Nd3 O11 2.514981 1_555
Nd3 O12 2.514981 1_545
Nd3 O20 2.551964 1_555
Nd3 O16 2.551964 1_545
Nd3 O6 2.662450 1_645
Nd3 O5 2.662450 1_655
Cd0 O0 2.195045 1_555
Cd0 O17 2.195045 1_554
Cd0 O15 2.516175 1_555
Cd0 O10 2.516175 1_554
Cd0 O19 2.697294 1_555
Cd0 O26 2.697294 1_554
Cd0 O14 2.745831 1_565
Cd0 O11 2.745831 1_564
Cd1 O2 2.195045 1_555
Cd1 O25 2.195045 1_555
Cd1 O27 2.516175 1_555
Cd1 O13 2.516175 1_555
Cd1 O8 2.697294 1_555
Cd1 O18 2.697294 1_555
Cd1 O1 2.745831 1_545
Cd1 O12 2.745831 1_545
Cd2 O2 2.195045 1_555
Cd2 O17 2.195045 1_555
Cd2 O27 2.516175 1_555
Cd2 O10 2.516175 1_555
Cd2 O16 2.697294 1_555
Cd2 O20 2.697294 1_555
Cd2 O4 2.745831 1_655
Cd2 O24 2.745831 1_655
Cd3 O0 2.195045 1_555
Cd3 O25 2.195045 1_555
Cd3 O15 2.516175 1_555
Cd3 O13 2.516175 1_555
Cd3 O9 2.697294 1_555
Cd3 O7 2.697294 1_555
Cd3 O21 2.745831 1_455
Cd3 O22 2.745831 1_455
O1 Sb1 1.996232 1_555
O1 Ti0 2.008261 1_565
O3 Ti1 1.952314 1_655
O3 Ti0 1.952314 1_565
O4 Sb0 1.996232 1_555
O4 Ti3 2.008261 1_556
O5 Ti3 1.952314 1_556
O5 Ti2 1.952314 1_555
O6 Ti2 1.952314 1_565
O6 Ti1 1.952314 1_555
O7 Ti3 1.985300 1_555
O7 Sb2 1.992074 1_555
O8 Ti2 1.985300 1_555
O8 Sb0 1.992074 1_555
O9 Ti1 1.985300 1_555
O9 Sb1 1.992074 1_555
O10 Sb2 2.030326 1_556
O10 Sb0 2.030326 1_555
O11 Sb2 1.996232 1_556
O11 Ti2 2.008261 1_555
O12 Sb1 1.996232 1_555
O12 Ti2 2.008261 1_565
O13 Sb3 2.030326 1_555
O13 Sb1 2.030326 1_555
O14 Sb2 1.996232 1_555
O14 Ti0 2.008261 1_555
O15 Sb2 2.030326 1_555
O15 Sb3 2.030326 1_555
O16 Ti1 1.985300 1_655
O16 Sb1 1.992074 1_555
O18 Ti0 1.985300 1_555
O18 Sb3 1.992074 1_555
O19 Ti0 1.985300 1_565
O19 Sb3 1.992074 1_555
O20 Ti3 1.985300 1_656
O20 Sb2 1.992074 1_556
O21 Sb3 1.996232 1_555
O21 Ti1 2.008261 1_655
O22 Sb3 1.996232 1_555
O22 Ti3 2.008261 1_655
O23 Ti3 1.952314 1_655
O23 Ti0 1.952314 1_555
O24 Sb0 1.996232 1_555
O24 Ti1 2.008261 1_555
O26 Ti2 1.985300 1_565
O26 Sb0 1.992074 1_555
O27 Sb0 2.030326 1_555
O27 Sb1 2.030326 1_555
