# generated using pymatgen
data_Sr4H9Pt2F3
_symmetry_space_group_name_H-M   'P 1'
_cell_length_a   7.48929848
_cell_length_b   7.48929870
_cell_length_c   5.66577242
_cell_angle_alpha   90.12929459
_cell_angle_beta   89.87070359
_cell_angle_gamma   135.54326588
_symmetry_Int_Tables_number   1
_chemical_formula_structural   Sr4H9Pt2F3
_chemical_formula_sum   'Sr4 H9 Pt2 F3'
_cell_volume   222.57067912
_cell_formula_units_Z   1
loop_
 _symmetry_equiv_pos_site_id
 _symmetry_equiv_pos_as_xyz
  1  'x, y, z'
loop_
 _atom_site_type_symbol
 _atom_site_label
 _atom_site_symmetry_multiplicity
 _atom_site_fract_x
 _atom_site_fract_y
 _atom_site_fract_z
 _atom_site_occupancy
  Sr  Sr0  1  0.35476501  0.64653091  0.99926816  1
  Sr  Sr1  1  0.85448886  0.14601969  0.49957158  1
  Sr  Sr2  1  0.64601969  0.35448886  0.00042842  1
  Sr  Sr3  1  0.14653091  0.85476501  0.50073184  1
  H  H0  1  0.49947993  0.99947993  0.25000000  1
  H  H1  1  0.12947843  0.89226984  0.00739509  1
  H  H2  1  0.60725964  0.37095694  0.49600288  1
  H  H3  1  0.87095694  0.10725964  0.00399712  1
  H  H4  1  0.39226984  0.62947843  0.49260491  1
  H  H5  1  0.79122466  0.78712986  0.21392088  1
  H  H6  1  0.20731530  0.21035659  0.79328273  1
  H  H7  1  0.71035659  0.70731530  0.70671727  1
  H  H8  1  0.28712986  0.29122466  0.28607912  1
  Pt  Pt0  1  0.00086790  0.00040882  0.00479045  1
  Pt  Pt1  1  0.50040882  0.50086790  0.49520955  1
  F  F0  1  0.99942108  0.49942108  0.25000000  1
  F  F1  1  0.50107758  0.00107758  0.75000000  1
  F  F2  1  0.00094696  0.50094696  0.75000000  1
loop_
_geom_bond_atom_site_label_1
_geom_bond_atom_site_label_2
_geom_bond_distance
_geom_bond_site_symmetry_2
H0 Sr3 2.465802 1_555
H0 Sr0 2.465802 1_554
H0 Sr1 2.473333 1_565
H0 Sr2 2.473333 1_565
H1 Pt0 1.642445 1_565
H2 Pt1 1.642720 1_555
H3 Pt0 1.642720 1_655
H4 Pt1 1.642445 1_555
H5 Pt0 1.685369 1_665
H6 Pt0 1.681828 1_556
H7 Pt1 1.681828 1_555
H8 Pt1 1.685369 1_555
F0 Sr2 2.468111 1_555
F0 Sr1 2.468111 1_555
F0 Sr0 2.473587 1_654
F0 Sr3 2.473587 1_655
F1 Sr1 2.466885 1_555
F1 Sr2 2.466885 1_556
F1 Sr3 2.470271 1_545
F1 Sr0 2.470271 1_545
F2 Sr0 2.467901 1_555
F2 Sr3 2.467901 1_555
F2 Sr2 2.471811 1_456
F2 Sr1 2.471811 1_455
