# generated using pymatgen
data_Rb2BaMgBi2
_symmetry_space_group_name_H-M   'P 1'
_cell_length_a   5.28044606
_cell_length_b   8.80225336
_cell_length_c   10.43908454
_cell_angle_alpha   90.00000000
_cell_angle_beta   90.00000000
_cell_angle_gamma   90.00000000
_symmetry_Int_Tables_number   1
_chemical_formula_structural   Rb2BaMgBi2
_chemical_formula_sum   'Rb4 Ba2 Mg2 Bi4'
_cell_volume   485.20681290
_cell_formula_units_Z   2
loop_
 _symmetry_equiv_pos_site_id
 _symmetry_equiv_pos_as_xyz
  1  'x, y, z'
loop_
 _atom_site_type_symbol
 _atom_site_label
 _atom_site_symmetry_multiplicity
 _atom_site_fract_x
 _atom_site_fract_y
 _atom_site_fract_z
 _atom_site_occupancy
  Rb  Rb0  1  0.50000000  0.01844974  0.41778350  1
  Rb  Rb1  1  0.00000000  0.33740938  0.34048870  1
  Rb  Rb2  1  0.50000000  0.51844974  0.58221650  1
  Rb  Rb3  1  0.00000000  0.83740938  0.65951130  1
  Ba  Ba0  1  0.00000000  0.00161947  0.04735143  1
  Ba  Ba1  1  0.00000000  0.50161947  0.95264857  1
  Mg  Mg0  1  0.50000000  0.15627069  0.82781868  1
  Mg  Mg1  1  0.50000000  0.65627069  0.17218132  1
  Bi  Bi0  1  0.00000000  0.23964058  0.69254717  1
  Bi  Bi1  1  0.50000000  0.29221115  0.10521582  1
  Bi  Bi2  1  0.00000000  0.73964058  0.30745283  1
  Bi  Bi3  1  0.50000000  0.79221115  0.89478418  1
loop_
_geom_bond_atom_site_label_1
_geom_bond_atom_site_label_2
_geom_bond_distance
_geom_bond_site_symmetry_2
Rb0 Rb1 3.937545 1_655
Rb0 Rb1 3.937545 1_555
Rb0 Rb3 3.984702 1_545
Rb0 Rb3 3.984702 1_645
Rb1 Rb2 3.984702 1_555
Rb1 Rb2 3.984702 1_455
Rb2 Rb3 3.937545 1_655
Rb2 Rb3 3.937545 1_555
Ba0 Bi2 3.562314 1_545
Ba0 Bi3 3.592350 1_444
Ba0 Bi3 3.592350 1_544
Ba0 Bi1 3.725361 1_455
Ba0 Bi1 3.725361 1_555
Ba0 Mg0 3.751779 1_554
Ba0 Mg0 3.751779 1_454
Ba0 Rb1 4.254448 1_555
Ba0 Rb3 4.298974 1_544
Ba1 Bi0 3.562314 1_555
Ba1 Bi1 3.592350 1_456
Ba1 Bi1 3.592350 1_556
Ba1 Bi3 3.725361 1_455
Ba1 Bi3 3.725361 1_555
Ba1 Mg1 3.751779 1_456
Ba1 Mg1 3.751779 1_556
Ba1 Rb3 4.254448 1_555
Ba1 Rb1 4.298974 1_556
Mg0 Rb2 4.091049 1_555
Mg0 Rb3 4.235008 1_545
Mg0 Rb3 4.235008 1_645
Mg1 Rb0 4.091049 1_565
Mg1 Rb1 4.235008 1_655
Mg1 Rb1 4.235008 1_555
Bi0 Mg0 3.082752 1_555
Bi0 Mg0 3.082752 1_455
Bi0 Rb3 3.557297 1_545
Bi0 Rb1 3.774582 1_555
Bi0 Rb2 3.784198 1_555
Bi0 Rb2 3.784198 1_455
Bi1 Mg0 3.133258 1_554
Bi1 Mg1 3.279907 1_555
Bi1 Rb1 3.627831 1_555
Bi1 Rb1 3.627831 1_655
Bi1 Rb0 4.056278 1_555
Bi2 Mg1 3.082752 1_555
Bi2 Mg1 3.082752 1_455
Bi2 Rb1 3.557297 1_555
Bi2 Rb3 3.774582 1_555
Bi2 Rb0 3.784198 1_465
Bi2 Rb0 3.784198 1_565
Bi3 Mg1 3.133258 1_556
Bi3 Mg0 3.279907 1_565
Bi3 Rb3 3.627831 1_555
Bi3 Rb3 3.627831 1_655
Bi3 Rb2 4.056278 1_555
