# generated using pymatgen
data_TaTcNiB2
_symmetry_space_group_name_H-M   'P 1'
_cell_length_a   4.56024897
_cell_length_b   4.56024712
_cell_length_c   4.56024869
_cell_angle_alpha   139.91088497
_cell_angle_beta   119.63534380
_cell_angle_gamma   74.95830941
_symmetry_Int_Tables_number   1
_chemical_formula_structural   TaTcNiB2
_chemical_formula_sum   'Ta1 Tc1 Ni1 B2'
_cell_volume   51.87364578
_cell_formula_units_Z   1
loop_
 _symmetry_equiv_pos_site_id
 _symmetry_equiv_pos_as_xyz
  1  'x, y, z'
loop_
 _atom_site_type_symbol
 _atom_site_label
 _atom_site_symmetry_multiplicity
 _atom_site_fract_x
 _atom_site_fract_y
 _atom_site_fract_z
 _atom_site_occupancy
  Ta  Ta0  1  0.70282782  0.20282782  0.50000000  1
  Tc  Tc0  1  0.30421619  0.80421619  0.50000000  1
  Ni  Ni0  1  0.00218007  0.00218007  1.00000000  1
  B  B0  1  0.69341559  0.49538796  0.19802863  1
  B  B1  1  0.29735833  0.49538796  0.80197137  1
loop_
_geom_bond_atom_site_label_1
_geom_bond_atom_site_label_2
_geom_bond_distance
_geom_bond_site_symmetry_2
Ta0 Tc0 2.870182 1_555
Ta0 Tc0 2.870182 1_656
Ta0 Tc0 2.870182 1_645
Ta0 Tc0 2.870183 1_544
Ni0 Ta0 2.671597 1_445
Ni0 Ta0 2.671598 1_456
Ni0 Ta0 2.713928 1_455
Ni0 Ta0 2.713928 1_556
B0 B1 1.816065 1_554
B0 Ni0 2.088714 1_665
B0 Ni0 2.088716 1_654
B0 Tc0 2.276420 1_555
B0 Tc0 2.276421 1_544
B0 Ta0 2.349852 1_565
B0 Ta0 2.349855 1_554
B0 Ta0 2.530021 1_555
B0 Tc0 2.629363 1_655
B1 Ni0 2.088711 1_565
B1 Ni0 2.088713 1_554
B1 Tc0 2.276421 1_556
B1 Tc0 2.276422 1_545
B1 Ta0 2.349854 1_566
B1 Ta0 2.349857 1_555
B1 Ta0 2.530019 1_455
B1 Tc0 2.629360 1_555
