# generated using pymatgen
data_K2Ga(GePt2)3
_symmetry_space_group_name_H-M   'P 1'
_cell_length_a   6.90279958
_cell_length_b   6.90279890
_cell_length_c   6.07702531
_cell_angle_alpha   114.99579528
_cell_angle_beta   114.99579595
_cell_angle_gamma   62.73139256
_symmetry_Int_Tables_number   1
_chemical_formula_structural   K2Ga(GePt2)3
_chemical_formula_sum   'K2 Ga1 Ge3 Pt6'
_cell_volume   223.65675984
_cell_formula_units_Z   1
loop_
 _symmetry_equiv_pos_site_id
 _symmetry_equiv_pos_as_xyz
  1  'x, y, z'
loop_
 _atom_site_type_symbol
 _atom_site_label
 _atom_site_symmetry_multiplicity
 _atom_site_fract_x
 _atom_site_fract_y
 _atom_site_fract_z
 _atom_site_occupancy
  K  K0  1  0.50078162  0.50078162  0.00636625  1
  K  K1  1  0.99970925  0.99970925  0.97717083  1
  Ga  Ga0  1  0.84097643  0.84097643  0.29220998  1
  Ge  Ge0  1  0.31592835  0.31592835  0.37027981  1
  Ge  Ge1  1  0.15303056  0.15303056  0.61323754  1
  Ge  Ge2  1  0.68710509  0.68710509  0.74735894  1
  Pt  Pt0  1  0.45598932  0.04757116  0.99778814  1
  Pt  Pt1  1  0.04757116  0.45598932  0.99778814  1
  Pt  Pt2  1  0.72197250  0.27929512  0.49462138  1
  Pt  Pt3  1  0.27929512  0.72197250  0.49462138  1
  Pt  Pt4  1  0.95816049  0.53906811  0.49645631  1
  Pt  Pt5  1  0.53906811  0.95816049  0.49645631  1
loop_
_geom_bond_atom_site_label_1
_geom_bond_atom_site_label_2
_geom_bond_distance
_geom_bond_site_symmetry_2
K0 Pt0 3.258870 1_554
K0 Pt1 3.258871 1_554
K0 Pt5 3.325774 1_555
K0 Pt4 3.325775 1_555
K0 Pt2 3.367299 1_555
K0 Pt3 3.367299 1_555
K0 Pt3 3.492235 1_554
K0 Pt2 3.492235 1_554
K0 K1 3.596988 1_454
K0 K1 3.596988 1_544
K0 Pt0 3.664362 1_564
K0 Pt1 3.664362 1_654
K0 Pt5 3.698347 1_544
K0 Pt4 3.698347 1_454
K1 Pt1 3.260355 1_665
K1 Pt0 3.260355 1_665
K1 Pt4 3.317284 1_555
K1 Pt5 3.317284 1_555
K1 Pt2 3.555379 1_565
K1 Pt3 3.555379 1_655
K1 Pt1 3.665716 1_655
K1 Pt0 3.665717 1_565
K1 Pt4 3.709375 1_566
K1 Pt5 3.709375 1_656
K1 Pt3 3.723449 1_656
K1 Pt2 3.723449 1_566
Ga0 Pt4 2.516120 1_555
Ga0 Pt5 2.516120 1_555
Ga0 Pt2 2.602595 1_565
Ga0 Pt3 2.602595 1_655
Ga0 Pt1 2.638668 1_654
Ga0 Pt0 2.638668 1_564
Ga0 Ge2 2.882547 1_554
Ga0 K1 3.272937 1_554
Ga0 K0 3.493545 1_555
Ga0 K1 3.622016 1_555
Ge0 Pt1 2.480926 1_554
Ge0 Pt0 2.480926 1_554
Ge0 Pt5 2.485147 1_545
Ge0 Pt4 2.485147 1_455
Ge0 Pt3 2.492592 1_555
Ge0 Pt2 2.492592 1_555
Ge0 K1 3.284578 1_444
Ge0 K0 3.369528 1_556
Ge1 Pt1 2.505416 1_555
Ge1 Pt0 2.505416 1_555
Ge1 Pt3 2.544570 1_545
Ge1 Pt2 2.544570 1_455
Ge1 Pt4 2.630742 1_455
Ge1 Pt5 2.630742 1_545
Ge1 K1 3.360554 1_444
Ge1 K1 3.480532 1_445
Ge1 K0 3.580358 1_556
Ge2 Pt5 2.492405 1_555
Ge2 Pt4 2.492405 1_555
Ge2 Pt0 2.503333 1_565
Ge2 Pt1 2.503333 1_655
Ge2 Pt2 2.525664 1_555
Ge2 Pt3 2.525664 1_555
Ge2 K1 3.230493 1_555
Ge2 K0 3.274640 1_556
