# generated using pymatgen
data_Hf4ScSn3
_symmetry_space_group_name_H-M   'P 1'
_cell_length_a   8.40511887
_cell_length_b   8.41950153
_cell_length_c   5.76237031
_cell_angle_alpha   90.00000000
_cell_angle_beta   90.00000000
_cell_angle_gamma   120.05661106
_symmetry_Int_Tables_number   1
_chemical_formula_structural   Hf4ScSn3
_chemical_formula_sum   'Hf8 Sc2 Sn6'
_cell_volume   352.95066890
_cell_formula_units_Z   2
loop_
 _symmetry_equiv_pos_site_id
 _symmetry_equiv_pos_as_xyz
  1  'x, y, z'
loop_
 _atom_site_type_symbol
 _atom_site_label
 _atom_site_symmetry_multiplicity
 _atom_site_fract_x
 _atom_site_fract_y
 _atom_site_fract_z
 _atom_site_occupancy
  Hf  Hf0  1  1.00000000  0.25042887  0.75000000  1
  Hf  Hf1  1  0.24116537  0.24226991  0.25000000  1
  Hf  Hf2  1  0.75883463  0.00110354  0.25000000  1
  Hf  Hf3  1  0.00000000  0.75408153  0.25000000  1
  Hf  Hf4  1  0.66775537  0.33221988  0.00045812  1
  Hf  Hf5  1  0.33224463  0.66446551  0.00045812  1
  Hf  Hf6  1  0.33224463  0.66446551  0.49954188  1
  Hf  Hf7  1  0.66775537  0.33221988  0.49954188  1
  Sc  Sc0  1  0.75518630  0.75683538  0.75000000  1
  Sc  Sc1  1  0.24481370  0.00164907  0.75000000  1
  Sn  Sn0  1  0.39231809  0.39072939  0.75000000  1
  Sn  Sn1  1  0.60768191  0.99841130  0.75000000  1
  Sn  Sn2  1  0.00000000  0.61124143  0.75000000  1
  Sn  Sn3  1  0.60859656  0.60823511  0.25000000  1
  Sn  Sn4  1  0.39140344  0.99963854  0.25000000  1
  Sn  Sn5  1  0.00000000  0.39200415  0.25000000  1
loop_
_geom_bond_atom_site_label_1
_geom_bond_atom_site_label_2
_geom_bond_distance
_geom_bond_site_symmetry_2
Hf0 Sn0 2.892560 1_655
Hf0 Sn1 2.892560 1_545
Hf0 Sn2 3.037862 1_655
Hf0 Sn5 3.118024 1_656
Hf0 Sn5 3.118024 1_655
Hf1 Sn5 2.873669 1_555
Hf1 Sn4 2.889948 1_545
Hf1 Sn3 3.082140 1_555
Hf1 Sn0 3.144351 1_554
Hf1 Sn0 3.144351 1_555
Hf2 Sn5 2.873676 1_655
Hf2 Sn3 2.889941 1_545
Hf2 Sn4 3.082144 1_545
Hf2 Sn1 3.144353 1_545
Hf2 Sn1 3.144353 1_544
Hf3 Sn3 2.878190 1_455
Hf3 Sn4 2.878191 1_555
Hf3 Sn5 3.048511 1_555
Hf3 Sn2 3.122111 1_555
Hf3 Sn2 3.122111 1_554
Hf4 Sn5 2.951507 1_655
Hf4 Sn4 2.964564 1_545
Hf4 Sn1 2.969052 1_544
Hf4 Sn0 2.971130 1_554
Hf4 Sn2 2.971292 1_654
Hf4 Sn3 2.978762 1_555
Hf5 Sn5 2.951510 1_555
Hf5 Sn3 2.964568 1_555
Hf5 Sn0 2.969059 1_554
Hf5 Sn1 2.971126 1_554
Hf5 Sn2 2.971289 1_554
Hf5 Sn4 2.978755 1_555
Hf6 Sn5 2.951510 1_555
Hf6 Sn3 2.964568 1_555
Hf6 Sn0 2.969059 1_555
Hf6 Sn1 2.971126 1_555
Hf6 Sn2 2.971289 1_555
Hf6 Sn4 2.978755 1_555
Hf7 Sn5 2.951507 1_655
Hf7 Sn4 2.964564 1_545
Hf7 Sn1 2.969052 1_545
Hf7 Sn0 2.971130 1_555
Hf7 Sn2 2.971292 1_655
Hf7 Sn3 2.978762 1_555
Sc0 Sn1 2.863568 1_555
Sc0 Sn2 2.874617 1_655
Sc0 Sn0 3.063695 1_555
Sc0 Sn3 3.136955 1_555
Sc0 Sn3 3.136955 1_556
Sc1 Sn0 2.863568 1_555
Sc1 Sn2 2.874618 1_545
Sc1 Sn1 3.063695 1_545
Sc1 Sn4 3.136955 1_546
Sc1 Sn4 3.136955 1_545
