# generated using pymatgen
data_Rb12AlGaSb6
_symmetry_space_group_name_H-M   'P 1'
_cell_length_a   6.25425103
_cell_length_b   10.73569618
_cell_length_c   12.46447153
_cell_angle_alpha   79.23655618
_cell_angle_beta   90.00000000
_cell_angle_gamma   90.00000000
_symmetry_Int_Tables_number   1
_chemical_formula_structural   Rb12AlGaSb6
_chemical_formula_sum   'Rb12 Al1 Ga1 Sb6'
_cell_volume   822.18711278
_cell_formula_units_Z   1
loop_
 _symmetry_equiv_pos_site_id
 _symmetry_equiv_pos_as_xyz
  1  'x, y, z'
loop_
 _atom_site_type_symbol
 _atom_site_label
 _atom_site_symmetry_multiplicity
 _atom_site_fract_x
 _atom_site_fract_y
 _atom_site_fract_z
 _atom_site_occupancy
  Rb  Rb0  1  0.75000000  0.12049796  0.32536218  1
  Rb  Rb1  1  0.25000000  0.87514437  0.67510902  1
  Rb  Rb2  1  0.75000000  0.13714843  0.97682496  1
  Rb  Rb3  1  0.25000000  0.86561563  0.02352007  1
  Rb  Rb4  1  0.75000000  0.44320333  0.45578183  1
  Rb  Rb5  1  0.25000000  0.55518081  0.54477705  1
  Rb  Rb6  1  0.75000000  0.45807360  0.07739011  1
  Rb  Rb7  1  0.25000000  0.54416699  0.92229104  1
  Rb  Rb8  1  0.75000000  0.74473872  0.22103048  1
  Rb  Rb9  1  0.25000000  0.25398647  0.77879930  1
  Rb  Rb10  1  0.75000000  0.08786256  0.63059472  1
  Rb  Rb11  1  0.25000000  0.90970436  0.36824035  1
  Al  Al0  1  0.25000000  0.32123587  0.28040353  1
  Ga  Ga0  1  0.75000000  0.68035154  0.71997540  1
  Sb  Sb0  1  0.75000000  0.43366266  0.77230882  1
  Sb  Sb1  1  0.25000000  0.56864538  0.22769515  1
  Sb  Sb2  1  0.75000000  0.78693230  0.51244909  1
  Sb  Sb3  1  0.25000000  0.21162530  0.48741823  1
  Sb  Sb4  1  0.75000000  0.82310078  0.87516157  1
  Sb  Sb5  1  0.25000000  0.17912294  0.12486710  1
loop_
_geom_bond_atom_site_label_1
_geom_bond_atom_site_label_2
_geom_bond_distance
_geom_bond_site_symmetry_2
Rb0 Sb2 3.891378 1_545
Rb0 Sb3 3.943893 1_555
Rb0 Sb3 3.943893 1_655
Rb0 Sb5 3.979055 1_555
Rb0 Sb5 3.979055 1_655
Rb1 Sb3 3.919911 1_565
Rb1 Sb2 3.937455 1_555
Rb1 Sb2 3.937455 1_455
Rb1 Sb4 3.973475 1_455
Rb1 Sb4 3.973475 1_555
Rb2 Sb0 3.687915 1_555
Rb2 Sb5 3.701023 1_656
Rb2 Sb5 3.701023 1_556
Rb2 Sb4 3.816890 1_545
Rb3 Sb1 3.689262 1_555
Rb3 Sb4 3.704331 1_454
Rb3 Sb4 3.704331 1_554
Rb3 Sb5 3.809447 1_565
Rb4 Sb2 3.884558 1_555
Rb4 Sb0 3.927502 1_555
Rb4 Sb3 3.968524 1_655
Rb4 Sb3 3.968524 1_555
Rb5 Sb3 3.885831 1_555
Rb5 Sb1 3.927831 1_555
Rb5 Sb2 3.969513 1_455
Rb5 Sb2 3.969513 1_555
Rb6 Sb0 3.860215 1_554
Rb6 Sb1 3.940634 1_655
Rb6 Sb1 3.940634 1_555
Rb7 Sb1 3.864412 1_556
Rb7 Sb0 3.938214 1_455
Rb7 Sb0 3.938214 1_555
Rb8 Sb1 3.647066 1_655
Rb8 Sb1 3.647066 1_555
Rb8 Sb2 3.743519 1_555
Rb9 Sb0 3.667154 1_455
Rb9 Sb0 3.667154 1_555
Rb9 Sb3 3.743598 1_555
Rb10 Sb3 3.720687 1_655
Rb10 Sb3 3.720687 1_555
Rb10 Sb4 3.759734 1_545
Rb10 Sb2 3.792495 1_545
Rb11 Sb2 3.723198 1_455
Rb11 Sb2 3.723198 1_555
Rb11 Sb5 3.780340 1_565
Rb11 Sb3 3.809375 1_565
Al0 Sb1 2.614342 1_555
Al0 Sb3 2.628442 1_555
Al0 Sb5 2.681595 1_555
Al0 Rb0 3.779704 1_455
Al0 Rb0 3.779704 1_555
Ga0 Sb0 2.606559 1_555
Ga0 Sb2 2.625793 1_555
Ga0 Sb4 2.682793 1_555
Ga0 Rb1 3.745412 1_555
Ga0 Rb1 3.745412 1_655
