# generated using pymatgen
data_Ag6AsS5Cl
_symmetry_space_group_name_H-M   'P 1'
_cell_length_a   7.40398300
_cell_length_b   7.40398341
_cell_length_c   12.90366344
_cell_angle_alpha   73.28616316
_cell_angle_beta   73.28616324
_cell_angle_gamma   60.04116082
_symmetry_Int_Tables_number   1
_chemical_formula_structural   Ag6AsS5Cl
_chemical_formula_sum   'Ag12 As2 S10 Cl2'
_cell_volume   578.05651748
_cell_formula_units_Z   2
loop_
 _symmetry_equiv_pos_site_id
 _symmetry_equiv_pos_as_xyz
  1  'x, y, z'
loop_
 _atom_site_type_symbol
 _atom_site_label
 _atom_site_symmetry_multiplicity
 _atom_site_fract_x
 _atom_site_fract_y
 _atom_site_fract_z
 _atom_site_occupancy
  Ag  Ag0  1  0.46455545  0.54470609  0.50104753  1
  Ag  Ag1  1  0.54470609  0.46455545  0.00104753  1
  Ag  Ag2  1  0.04634830  0.52850790  0.49843913  1
  Ag  Ag3  1  0.52850790  0.04634830  0.99843913  1
  Ag  Ag4  1  0.40999050  0.62016813  0.72434308  1
  Ag  Ag5  1  0.62016813  0.40999050  0.22434308  1
  Ag  Ag6  1  0.11107378  0.28293701  0.72339215  1
  Ag  Ag7  1  0.28293701  0.11107378  0.22339215  1
  Ag  Ag8  1  0.96529994  0.02976142  0.00064624  1
  Ag  Ag9  1  0.02976142  0.96529994  0.50064624  1
  Ag  Ag10  1  0.78094374  0.91354910  0.72354122  1
  Ag  Ag11  1  0.91354910  0.78094374  0.22354122  1
  As  As0  1  0.01765091  0.51719536  0.98615244  1
  As  As1  1  0.51719536  0.01765091  0.48615244  1
  S  S0  1  0.20496810  0.69170535  0.92426867  1
  S  S1  1  0.69170535  0.20496810  0.42426867  1
  S  S2  1  0.19131373  0.21958294  0.92228409  1
  S  S3  1  0.21958294  0.19131373  0.42228409  1
  S  S4  1  0.45445386  0.95903089  0.66626729  1
  S  S5  1  0.95903089  0.45445386  0.16626729  1
  S  S6  1  0.13205980  0.63301688  0.63689275  1
  S  S7  1  0.63301688  0.13205980  0.13689275  1
  S  S8  1  0.71854087  0.70454072  0.92371012  1
  S  S9  1  0.70454072  0.71854087  0.42371012  1
  Cl  Cl0  1  0.75631348  0.26178374  0.75501530  1
  Cl  Cl1  1  0.26178374  0.75631348  0.25501530  1
loop_
_geom_bond_atom_site_label_1
_geom_bond_atom_site_label_2
_geom_bond_distance
_geom_bond_site_symmetry_2
Ag0 S6 2.475908 1_555
Ag0 S9 2.516945 1_555
Ag0 S1 2.527288 1_555
Ag1 S7 2.475909 1_555
Ag1 S8 2.516945 1_554
Ag1 S0 2.527288 1_554
Ag2 S6 2.476076 1_555
Ag2 S3 2.516279 1_555
Ag2 S9 2.526077 1_455
Ag3 S7 2.476076 1_556
Ag3 S2 2.516279 1_555
Ag3 S8 2.526077 1_545
Ag4 S4 2.562479 1_555
Ag4 S6 2.568127 1_555
Ag4 Cl0 2.637558 1_555
Ag4 S0 2.640172 1_555
Ag5 S5 2.562479 1_555
Ag5 S7 2.568127 1_555
Ag5 Cl1 2.637558 1_555
Ag5 S1 2.640172 1_555
Ag6 S4 2.570548 1_545
Ag6 S6 2.574254 1_555
Ag6 Cl0 2.616848 1_455
Ag6 S2 2.658156 1_555
Ag7 S5 2.570548 1_455
Ag7 S7 2.574254 1_555
Ag7 Cl1 2.616848 1_545
Ag7 S3 2.658156 1_555
Ag8 S7 2.476732 1_555
Ag8 S2 2.521158 1_654
Ag8 S0 2.522289 1_644
Ag9 S6 2.476732 1_555
Ag9 S3 2.521158 1_565
Ag9 S1 2.522289 1_465
Ag10 S4 2.564071 1_555
Ag10 S6 2.567779 1_655
Ag10 Cl0 2.633637 1_565
Ag10 S8 2.647319 1_555
Ag11 S5 2.564071 1_555
Ag11 S7 2.567779 1_565
Ag11 Cl1 2.633637 1_655
Ag11 S9 2.647319 1_555
As0 S0 2.188572 1_555
As0 S8 2.189333 1_455
As0 S2 2.189347 1_555
As0 S5 2.192252 1_456
As1 S1 2.188572 1_555
As1 S9 2.189333 1_545
As1 S3 2.189347 1_555
As1 S4 2.192252 1_545
