# generated using pymatgen
data_SrCa3(CdSb2)2
_symmetry_space_group_name_H-M   'P 1'
_cell_length_a   4.66454574
_cell_length_b   7.38453701
_cell_length_c   17.93254867
_cell_angle_alpha   90.00000000
_cell_angle_beta   90.00000000
_cell_angle_gamma   90.00000000
_symmetry_Int_Tables_number   1
_chemical_formula_structural   SrCa3(CdSb2)2
_chemical_formula_sum   'Sr2 Ca6 Cd4 Sb8'
_cell_volume   617.69579517
_cell_formula_units_Z   2
loop_
 _symmetry_equiv_pos_site_id
 _symmetry_equiv_pos_as_xyz
  1  'x, y, z'
loop_
 _atom_site_type_symbol
 _atom_site_label
 _atom_site_symmetry_multiplicity
 _atom_site_fract_x
 _atom_site_fract_y
 _atom_site_fract_z
 _atom_site_occupancy
  Sr  Sr0  1  0.75000000  0.76227855  0.44730701  1
  Sr  Sr1  1  0.25000000  0.73772145  0.94730701  1
  Ca  Ca0  1  0.25000000  0.53666322  0.72575866  1
  Ca  Ca1  1  0.75000000  0.96333678  0.22575866  1
  Ca  Ca2  1  0.75000000  0.28474246  0.05369454  1
  Ca  Ca3  1  0.25000000  0.21525754  0.55369454  1
  Ca  Ca4  1  0.75000000  0.46195376  0.27169265  1
  Ca  Ca5  1  0.25000000  0.03804624  0.77169265  1
  Cd  Cd0  1  0.25000000  0.63103853  0.15348303  1
  Cd  Cd1  1  0.75000000  0.86896147  0.65348303  1
  Cd  Cd2  1  0.75000000  0.36565065  0.84815272  1
  Cd  Cd3  1  0.25000000  0.13434935  0.34815272  1
  Sb  Sb0  1  0.75000000  0.25685318  0.68417018  1
  Sb  Sb1  1  0.25000000  0.74593151  0.31200804  1
  Sb  Sb2  1  0.25000000  0.24314682  0.18417018  1
  Sb  Sb3  1  0.75000000  0.74306014  0.07648899  1
  Sb  Sb4  1  0.75000000  0.75406849  0.81200804  1
  Sb  Sb5  1  0.25000000  0.24570148  0.92724417  1
  Sb  Sb6  1  0.75000000  0.25429852  0.42724417  1
  Sb  Sb7  1  0.25000000  0.75693986  0.57648899  1
loop_
_geom_bond_atom_site_label_1
_geom_bond_atom_site_label_2
_geom_bond_distance
_geom_bond_site_symmetry_2
Ca0 Sb7 3.132274 1_555
Ca0 Sb0 3.203928 1_555
Ca0 Sb0 3.203928 1_455
Ca0 Sb4 3.226316 1_455
Ca0 Sb4 3.226316 1_555
Ca0 Cd2 3.442615 1_455
Ca0 Cd2 3.442615 1_555
Ca1 Sb3 3.132274 1_555
Ca1 Sb2 3.203928 1_665
Ca1 Sb2 3.203928 1_565
Ca1 Sb1 3.226316 1_655
Ca1 Sb1 3.226316 1_555
Ca1 Cd3 3.442615 1_665
Ca1 Cd3 3.442615 1_565
Ca2 Sb5 3.265658 1_654
Ca2 Sb5 3.265658 1_554
Ca2 Sb2 3.317880 1_655
Ca2 Sb2 3.317880 1_555
Ca2 Sb3 3.409059 1_555
Ca2 Cd2 3.733999 1_554
Ca3 Sb6 3.265658 1_455
Ca3 Sb6 3.265658 1_555
Ca3 Sb0 3.317880 1_455
Ca3 Sb0 3.317880 1_555
Ca3 Sb7 3.409059 1_545
Ca3 Cd3 3.733999 1_555
Ca4 Sb6 3.183140 1_555
Ca4 Sb1 3.218658 1_655
Ca4 Sb1 3.218658 1_555
Ca4 Sb2 3.242468 1_555
Ca4 Sb2 3.242468 1_655
Ca4 Cd0 3.389997 1_555
Ca4 Cd0 3.389997 1_655
Ca4 Cd3 3.629330 1_655
Ca4 Cd3 3.629330 1_555
Ca5 Sb5 3.183140 1_555
Ca5 Sb4 3.218658 1_445
Ca5 Sb4 3.218658 1_545
Ca5 Sb0 3.242468 1_555
Ca5 Sb0 3.242468 1_455
Ca5 Cd1 3.389997 1_545
Ca5 Cd1 3.389997 1_445
Ca5 Cd2 3.629330 1_555
Ca5 Cd2 3.629330 1_455
Cd0 Sb3 2.833749 1_455
Cd0 Sb3 2.833749 1_555
Cd0 Sb2 2.916783 1_555
Cd0 Sb1 2.966666 1_555
Cd1 Sb7 2.833749 1_555
Cd1 Sb7 2.833749 1_655
Cd1 Sb0 2.916783 1_565
Cd1 Sb4 2.966666 1_555
Cd2 Sb5 2.869789 1_655
Cd2 Sb5 2.869789 1_555
Cd2 Sb4 2.940609 1_555
Cd2 Sb0 3.048402 1_555
Cd2 Sr1 4.018736 1_655
Cd2 Sr1 4.018736 1_555
Cd3 Sb6 2.869789 1_455
Cd3 Sb6 2.869789 1_555
Cd3 Sb1 2.940609 1_545
Cd3 Sb2 3.048402 1_555
Cd3 Sr0 4.018736 1_445
Cd3 Sr0 4.018736 1_545
Sb1 Sr0 3.367608 1_555
Sb1 Sr0 3.367608 1_455
Sb3 Sr1 3.287478 1_654
Sb3 Sr1 3.287478 1_554
Sb4 Sr1 3.367608 1_655
Sb4 Sr1 3.367608 1_555
Sb5 Sr1 3.651109 1_555
Sb5 Sr1 3.768411 1_545
Sb6 Sr0 3.651109 1_545
Sb6 Sr0 3.768411 1_555
Sb7 Sr0 3.287478 1_455
Sb7 Sr0 3.287478 1_555
