# generated using pymatgen
data_Na5LiSi2S7
_symmetry_space_group_name_H-M   'P 1'
_cell_length_a   6.75209774
_cell_length_b   6.75209854
_cell_length_c   14.52451308
_cell_angle_alpha   80.66858096
_cell_angle_beta   80.66858089
_cell_angle_gamma   95.20389039
_symmetry_Int_Tables_number   1
_chemical_formula_structural   Na5LiSi2S7
_chemical_formula_sum   'Na10 Li2 Si4 S14'
_cell_volume   640.10419338
_cell_formula_units_Z   2
loop_
 _symmetry_equiv_pos_site_id
 _symmetry_equiv_pos_as_xyz
  1  'x, y, z'
loop_
 _atom_site_type_symbol
 _atom_site_label
 _atom_site_symmetry_multiplicity
 _atom_site_fract_x
 _atom_site_fract_y
 _atom_site_fract_z
 _atom_site_occupancy
  Na  Na0  1  0.03610006  0.73111050  0.57893548  1
  Na  Na1  1  0.26888950  0.96389994  0.92106452  1
  Na  Na2  1  0.96389994  0.26888950  0.42106452  1
  Na  Na3  1  0.73111050  0.03610006  0.07893548  1
  Na  Na4  1  0.50000000  0.50000000  0.50000000  1
  Na  Na5  1  0.50000000  0.50000000  0.00000000  1
  Na  Na6  1  0.97110825  0.52859108  0.13955599  1
  Na  Na7  1  0.47140892  0.02889175  0.36044401  1
  Na  Na8  1  0.02889175  0.47140892  0.86044401  1
  Na  Na9  1  0.52859108  0.97110825  0.63955599  1
  Li  Li0  1  0.41300644  0.58699356  0.25000000  1
  Li  Li1  1  0.58699356  0.41300644  0.75000000  1
  Si  Si0  1  0.91506366  0.76849056  0.35774612  1
  Si  Si1  1  0.23150944  0.08493634  0.14225388  1
  Si  Si2  1  0.08493634  0.23150944  0.64225388  1
  Si  Si3  1  0.76849056  0.91506366  0.85774612  1
  S  S0  1  0.74288760  0.87064134  0.47220027  1
  S  S1  1  0.12935866  0.25711240  0.02779973  1
  S  S2  1  0.25711240  0.12935866  0.52779973  1
  S  S3  1  0.87064134  0.74288760  0.97220027  1
  S  S4  1  0.19144657  0.67359591  0.38632452  1
  S  S5  1  0.32640409  0.80855343  0.11367548  1
  S  S6  1  0.80855343  0.32640409  0.61367548  1
  S  S7  1  0.67359591  0.19144657  0.88632452  1
  S  S8  1  0.73907866  0.53781139  0.31402588  1
  S  S9  1  0.46218861  0.26092134  0.18597412  1
  S  S10  1  0.26092134  0.46218861  0.68597412  1
  S  S11  1  0.53781139  0.73907866  0.81402588  1
  S  S12  1  0.95693928  0.04306072  0.25000000  1
  S  S13  1  0.04306072  0.95693928  0.75000000  1
loop_
_geom_bond_atom_site_label_1
_geom_bond_atom_site_label_2
_geom_bond_distance
_geom_bond_site_symmetry_2
Na0 S0 2.840879 1_455
Na0 S2 2.876516 1_565
Na0 S10 2.892815 1_555
Na0 S4 2.924396 1_555
Na0 S6 2.936364 1_455
Na0 S13 3.123161 1_555
Na1 S1 2.840879 1_566
Na1 S3 2.876516 1_455
Na1 S11 2.892815 1_555
Na1 S5 2.924396 1_556
Na1 S7 2.936364 1_565
Na1 S13 3.123161 1_555
Na2 S2 2.840879 1_655
Na2 S0 2.876516 1_545
Na2 S8 2.892815 1_555
Na2 S6 2.924396 1_555
Na2 S4 2.936364 1_655
Na2 S12 3.123161 1_555
Na3 S3 2.840879 1_544
Na3 S1 2.876516 1_655
Na3 S9 2.892815 1_555
Na3 S7 2.924396 1_554
Na3 S5 2.936364 1_545
Na3 S12 3.123161 1_555
Na4 S0 2.797986 1_555
Na4 S2 2.797986 1_555
Na4 S10 2.873156 1_555
Na4 S8 2.873156 1_555
Na4 S4 3.061266 1_555
Na4 S6 3.061266 1_555
Na5 S1 2.797986 1_555
Na5 S3 2.797986 1_554
Na5 S9 2.873156 1_555
Na5 S11 2.873156 1_554
Na5 S5 3.061266 1_555
Na5 S7 3.061266 1_554
Na6 S8 2.767919 1_555
Na6 S1 2.809689 1_655
Na6 S3 2.834544 1_554
Na6 S5 2.850319 1_655
Na7 S9 2.767920 1_555
Na7 S0 2.809689 1_545
Na7 S2 2.834544 1_555
Na7 S4 2.850320 1_545
Na8 S10 2.767919 1_555
Na8 S3 2.809689 1_455
Na8 S1 2.834544 1_556
Na8 S7 2.850319 1_455
Na9 S11 2.767920 1_555
Na9 S2 2.809689 1_565
Na9 S0 2.834544 1_555
Na9 S6 2.850320 1_565
Li0 S4 2.464565 1_555
Li0 S5 2.464565 1_555
Li0 S8 2.553209 1_555
Li0 S9 2.553209 1_555
Li1 S6 2.464565 1_555
Li1 S7 2.464565 1_555
Li1 S10 2.553209 1_555
Li1 S11 2.553209 1_555
S0 Si0 2.116922 1_555
S1 Si1 2.116922 1_555
S2 Si2 2.116922 1_555
S3 Si3 2.116922 1_555
S4 Si0 2.108855 1_455
S5 Si1 2.108855 1_565
S6 Si2 2.108855 1_655
S7 Si3 2.108855 1_545
S8 Si0 2.114463 1_555
S9 Si1 2.114463 1_555
S10 Si2 2.114463 1_555
S11 Si3 2.114463 1_555
S12 Si1 2.187837 1_655
S12 Si0 2.187837 1_545
S13 Si3 2.187837 1_455
S13 Si2 2.187837 1_565
