# generated using pymatgen
data_Y5TiRhO12
_symmetry_space_group_name_H-M   'P 1'
_cell_length_a   6.77511141
_cell_length_b   6.77510969
_cell_length_c   7.29312691
_cell_angle_alpha   74.27105013
_cell_angle_beta   74.27105674
_cell_angle_gamma   50.72822099
_symmetry_Int_Tables_number   1
_chemical_formula_structural   Y5TiRhO12
_chemical_formula_sum   'Y5 Ti1 Rh1 O12'
_cell_volume   247.22514203
_cell_formula_units_Z   1
loop_
 _symmetry_equiv_pos_site_id
 _symmetry_equiv_pos_as_xyz
  1  'x, y, z'
loop_
 _atom_site_type_symbol
 _atom_site_label
 _atom_site_symmetry_multiplicity
 _atom_site_fract_x
 _atom_site_fract_y
 _atom_site_fract_z
 _atom_site_occupancy
  Y  Y0  1  0.68519482  0.69359358  0.67184056  1
  Y  Y1  1  0.70048076  0.69123271  0.14002777  1
  Y  Y2  1  0.00427898  0.99572102  0.00000000  1
  Y  Y3  1  0.30876729  0.29951924  0.85997223  1
  Y  Y4  1  0.30640642  0.31480518  0.32815944  1
  Ti  Ti0  1  0.76992242  0.23007758  0.50000000  1
  Rh  Rh0  1  0.24533878  0.75466122  0.50000000  1
  O  O0  1  0.40426645  0.90148753  0.92764622  1
  O  O1  1  0.56965558  0.10123909  0.58121501  1
  O  O2  1  0.89876091  0.43034442  0.41878499  1
  O  O3  1  0.09851247  0.59573355  0.07235378  1
  O  O4  1  0.99796136  0.00228308  0.31140392  1
  O  O5  1  0.49994815  0.49949382  0.68502053  1
  O  O6  1  0.90464158  0.40381406  0.92235812  1
  O  O7  1  0.09457580  0.58312282  0.58248838  1
  O  O8  1  0.41687718  0.90542420  0.41751162  1
  O  O9  1  0.59618594  0.09535842  0.07764188  1
  O  O10  1  0.50050618  0.50005185  0.31497947  1
  O  O11  1  0.99771692  0.00203864  0.68859608  1
loop_
_geom_bond_atom_site_label_1
_geom_bond_atom_site_label_2
_geom_bond_distance
_geom_bond_site_symmetry_2
O0 Y3 2.275312 1_565
O0 Y0 2.278734 1_555
O0 Y2 2.290615 1_556
O0 Y1 2.307767 1_556
O1 Ti0 1.933167 1_555
O1 Y0 2.287177 1_545
O1 Y3 2.363975 1_555
O1 Y4 2.398009 1_555
O2 Ti0 1.933167 1_555
O2 Y4 2.287177 1_655
O2 Y1 2.363975 1_555
O2 Y0 2.398009 1_555
O3 Y1 2.275313 1_455
O3 Y4 2.278733 1_555
O3 Y2 2.290614 1_555
O3 Y3 2.307767 1_554
O4 Ti0 1.908093 1_555
O4 Rh0 1.988591 1_645
O4 Y2 2.271865 1_645
O5 Rh0 2.001745 1_555
O5 Ti0 2.066080 1_555
O5 Y0 2.295503 1_555
O5 Y3 2.351547 1_555
O6 Y0 2.288165 1_555
O6 Y3 2.291835 1_655
O6 Y1 2.302361 1_556
O6 Y2 2.327310 1_646
O7 Rh0 1.883236 1_555
O7 Y0 2.309567 1_455
O7 Y3 2.418115 1_555
O7 Y4 2.426274 1_555
O8 Rh0 1.883236 1_555
O8 Y4 2.309566 1_565
O8 Y1 2.418115 1_555
O8 Y0 2.426274 1_555
O9 Y4 2.288166 1_555
O9 Y1 2.291834 1_545
O9 Y3 2.302361 1_554
O9 Y2 2.327311 1_645
O10 Rh0 2.001745 1_555
O10 Ti0 2.066080 1_555
O10 Y4 2.295503 1_555
O10 Y1 2.351547 1_555
O11 Ti0 1.908093 1_555
O11 Rh0 1.988591 1_645
O11 Y2 2.271865 1_646
