# generated using pymatgen
data_Nb3Ga2TcN
_symmetry_space_group_name_H-M   'P 1'
_cell_length_a   8.28959063
_cell_length_b   8.28959075
_cell_length_c   8.28959136
_cell_angle_alpha   60.00000152
_cell_angle_beta   60.00000103
_cell_angle_gamma   60.00000572
_symmetry_Int_Tables_number   1
_chemical_formula_structural   Nb3Ga2TcN
_chemical_formula_sum   'Nb12 Ga8 Tc4 N4'
_cell_volume   402.79523616
_cell_formula_units_Z   4
loop_
 _symmetry_equiv_pos_site_id
 _symmetry_equiv_pos_as_xyz
  1  'x, y, z'
loop_
 _atom_site_type_symbol
 _atom_site_label
 _atom_site_symmetry_multiplicity
 _atom_site_fract_x
 _atom_site_fract_y
 _atom_site_fract_z
 _atom_site_occupancy
  Nb  Nb0  1  0.44608256  0.44608256  0.05391744  1
  Nb  Nb1  1  0.05391744  0.44608256  0.05391744  1
  Nb  Nb2  1  0.44608256  0.05391744  0.05391744  1
  Nb  Nb3  1  0.05391744  0.05391744  0.44608256  1
  Nb  Nb4  1  0.44608256  0.05391744  0.44608256  1
  Nb  Nb5  1  0.05391744  0.44608256  0.44608256  1
  Nb  Nb6  1  0.80391744  0.80391744  0.19608256  1
  Nb  Nb7  1  0.19608256  0.80391744  0.19608256  1
  Nb  Nb8  1  0.80391744  0.19608256  0.19608256  1
  Nb  Nb9  1  0.19608256  0.19608256  0.80391744  1
  Nb  Nb10  1  0.80391744  0.19608256  0.80391744  1
  Nb  Nb11  1  0.19608256  0.80391744  0.80391744  1
  Ga  Ga0  1  0.83657282  0.83657282  0.49028255  1
  Ga  Ga1  1  0.83657282  0.49028255  0.83657282  1
  Ga  Ga2  1  0.49028255  0.83657282  0.83657282  1
  Ga  Ga3  1  0.83657282  0.83657282  0.83657282  1
  Ga  Ga4  1  0.41342718  0.41342718  0.75971745  1
  Ga  Ga5  1  0.41342718  0.75971745  0.41342718  1
  Ga  Ga6  1  0.75971745  0.41342718  0.41342718  1
  Ga  Ga7  1  0.41342718  0.41342718  0.41342718  1
  Tc  Tc0  1  0.62500000  0.62500000  0.12500000  1
  Tc  Tc1  1  0.62500000  0.12500000  0.62500000  1
  Tc  Tc2  1  0.12500000  0.62500000  0.62500000  1
  Tc  Tc3  1  0.62500000  0.62500000  0.62500000  1
  N  N0  1  0.12500000  0.12500000  0.62500000  1
  N  N1  1  0.12500000  0.62500000  0.12500000  1
  N  N2  1  0.62500000  0.12500000  0.12500000  1
  N  N3  1  0.12500000  0.12500000  0.12500000  1
loop_
_geom_bond_atom_site_label_1
_geom_bond_atom_site_label_2
_geom_bond_distance
_geom_bond_site_symmetry_2
Nb0 Tc0 2.948612 1_555
Nb0 Tc3 2.948612 1_554
Nb1 Tc0 2.948612 1_455
Nb1 Tc2 2.948612 1_554
Nb2 Tc0 2.948612 1_545
Nb2 Tc1 2.948612 1_554
Nb3 Tc1 2.948612 1_455
Nb3 Tc2 2.948612 1_545
Nb4 Tc1 2.948612 1_555
Nb4 Tc3 2.948612 1_545
Nb5 Tc2 2.948612 1_555
Nb5 Tc3 2.948612 1_455
Nb6 Tc0 2.948612 1_555
Nb6 Tc3 2.948612 1_555
Nb7 Tc0 2.948612 1_555
Nb7 Tc2 2.948612 1_555
Nb8 Tc0 2.948612 1_555
Nb8 Tc1 2.948612 1_555
Nb9 Tc1 2.948612 1_555
Nb9 Tc2 2.948612 1_555
Nb10 Tc1 2.948612 1_555
Nb10 Tc3 2.948612 1_555
Nb11 Tc2 2.948612 1_555
Nb11 Tc3 2.948612 1_555
Ga0 Tc2 2.560831 1_655
Ga0 Tc1 2.560831 1_565
Ga0 Tc3 2.560838 1_555
Ga0 Nb7 2.736404 1_655
Ga0 Nb8 2.736404 1_565
Ga0 Nb6 2.736409 1_555
Ga0 Ga2 2.870605 1_555
Ga0 Ga1 2.870605 1_555
Ga0 Ga3 2.870605 1_555
Ga0 Nb3 2.924433 1_665
Ga0 Nb4 2.924441 1_565
Ga0 Nb5 2.924441 1_655
Ga1 Tc2 2.560831 1_655
Ga1 Tc0 2.560831 1_556
Ga1 Tc3 2.560838 1_555
Ga1 Nb8 2.736404 1_556
Ga1 Nb9 2.736404 1_655
Ga1 Nb10 2.736409 1_555
Ga1 Ga3 2.870605 1_555
Ga1 Ga2 2.870605 1_555
Ga1 Nb1 2.924434 1_656
Ga1 Nb0 2.924441 1_556
Ga1 Nb5 2.924441 1_655
Ga2 Tc1 2.560831 1_565
Ga2 Tc0 2.560831 1_556
Ga2 Tc3 2.560838 1_555
Ga2 Nb7 2.736404 1_556
Ga2 Nb9 2.736404 1_565
Ga2 Nb11 2.736409 1_555
Ga2 Ga3 2.870605 1_555
Ga2 Nb2 2.924434 1_566
Ga2 Nb0 2.924441 1_556
Ga2 Nb4 2.924441 1_565
Ga3 Tc0 2.560836 1_556
Ga3 Tc2 2.560836 1_655
Ga3 Tc1 2.560836 1_565
Ga3 Nb11 2.736400 1_655
Ga3 Nb10 2.736400 1_565
Ga3 Nb6 2.736401 1_556
Ga3 Nb3 2.924438 1_665
Ga3 Nb2 2.924438 1_566
Ga3 Nb1 2.924438 1_656
Ga4 Tc2 2.560831 1_555
Ga4 Tc1 2.560831 1_555
Ga4 Tc3 2.560838 1_555
Ga4 Nb1 2.736404 1_556
Ga4 Nb2 2.736404 1_556
Ga4 Nb0 2.736409 1_556
Ga4 Ga6 2.870605 1_555
Ga4 Ga5 2.870605 1_555
Ga4 Ga7 2.870605 1_555
Ga4 Nb9 2.924433 1_555
Ga4 Nb10 2.924441 1_555
Ga4 Nb11 2.924441 1_555
Ga5 Tc2 2.560831 1_555
Ga5 Tc0 2.560831 1_555
Ga5 Tc3 2.560838 1_555
Ga5 Nb2 2.736404 1_565
Ga5 Nb3 2.736404 1_565
Ga5 Nb4 2.736409 1_565
Ga5 Ga7 2.870605 1_555
Ga5 Ga6 2.870605 1_555
Ga5 Nb7 2.924434 1_555
Ga5 Nb6 2.924441 1_555
Ga5 Nb11 2.924441 1_555
Ga6 Tc1 2.560831 1_555
Ga6 Tc0 2.560831 1_555
Ga6 Tc3 2.560838 1_555
Ga6 Nb1 2.736404 1_655
Ga6 Nb3 2.736404 1_655
Ga6 Nb5 2.736409 1_655
Ga6 Ga7 2.870605 1_555
Ga6 Nb8 2.924434 1_555
Ga6 Nb6 2.924441 1_555
Ga6 Nb10 2.924441 1_555
Ga7 Tc0 2.560836 1_555
Ga7 Tc2 2.560836 1_555
Ga7 Tc1 2.560836 1_555
Ga7 Nb5 2.736400 1_555
Ga7 Nb4 2.736400 1_555
Ga7 Nb0 2.736401 1_555
Ga7 Nb9 2.924438 1_555
Ga7 Nb8 2.924438 1_555
Ga7 Nb7 2.924438 1_555
N0 Nb9 2.233663 1_555
N0 Nb3 2.233663 1_555
N0 Nb4 2.233663 1_555
N0 Nb10 2.233663 1_455
N0 Nb5 2.233664 1_555
N0 Nb11 2.233664 1_545
N1 Nb7 2.233663 1_555
N1 Nb1 2.233663 1_555
N1 Nb0 2.233664 1_555
N1 Nb6 2.233664 1_455
N1 Nb5 2.233664 1_555
N1 Nb11 2.233664 1_554
N2 Nb8 2.233663 1_555
N2 Nb2 2.233663 1_555
N2 Nb10 2.233664 1_554
N2 Nb4 2.233664 1_555
N2 Nb6 2.233664 1_545
N2 Nb0 2.233664 1_555
N3 Nb2 2.233663 1_555
N3 Nb8 2.233663 1_455
N3 Nb1 2.233663 1_555
N3 Nb7 2.233663 1_545
N3 Nb3 2.233664 1_555
N3 Nb9 2.233664 1_554
