# generated using pymatgen
data_Sr2Ir2I
_symmetry_space_group_name_H-M   'P 1'
_cell_length_a   4.35031046
_cell_length_b   4.35031002
_cell_length_c   18.11820143
_cell_angle_alpha   90.00000000
_cell_angle_beta   90.00000000
_cell_angle_gamma   119.99998837
_symmetry_Int_Tables_number   1
_chemical_formula_structural   Sr2Ir2I
_chemical_formula_sum   'Sr4 Ir4 I2'
_cell_volume   296.95197949
_cell_formula_units_Z   2
loop_
 _symmetry_equiv_pos_site_id
 _symmetry_equiv_pos_as_xyz
  1  'x, y, z'
loop_
 _atom_site_type_symbol
 _atom_site_label
 _atom_site_symmetry_multiplicity
 _atom_site_fract_x
 _atom_site_fract_y
 _atom_site_fract_z
 _atom_site_occupancy
  Sr  Sr0  1  0.00000000  0.00000000  0.11109465  1
  Sr  Sr1  1  0.00000000  0.00000000  0.88890535  1
  Sr  Sr2  1  0.00000000  0.00000000  0.61109465  1
  Sr  Sr3  1  0.00000000  0.00000000  0.38890535  1
  Ir  Ir0  1  0.33333300  0.66666700  0.50101719  1
  Ir  Ir1  1  0.66666700  0.33333300  0.49898281  1
  Ir  Ir2  1  0.66666700  0.33333300  0.00101719  1
  Ir  Ir3  1  0.33333300  0.66666700  0.99898281  1
  I  I0  1  0.33333300  0.66666700  0.25000000  1
  I  I1  1  0.66666700  0.33333300  0.75000000  1
loop_
_geom_bond_atom_site_label_1
_geom_bond_atom_site_label_2
_geom_bond_distance
_geom_bond_site_symmetry_2
Ir0 Ir1 2.511921 1_565
Ir0 Ir1 2.511921 1_455
Ir0 Ir1 2.511928 1_555
Ir0 Sr2 3.207186 1_565
Ir0 Sr2 3.207189 1_555
Ir0 Sr2 3.207189 1_665
Ir0 Sr3 3.230236 1_565
Ir0 Sr3 3.230239 1_555
Ir0 Sr3 3.230239 1_665
Ir1 Sr3 3.207186 1_655
Ir1 Sr3 3.207189 1_665
Ir1 Sr3 3.207189 1_555
Ir1 Sr2 3.230236 1_655
Ir1 Sr2 3.230239 1_665
Ir1 Sr2 3.230239 1_555
Ir2 Ir3 2.511921 1_544
Ir2 Ir3 2.511921 1_654
Ir2 Ir3 2.511928 1_554
Ir2 Sr0 3.207186 1_655
Ir2 Sr0 3.207189 1_665
Ir2 Sr0 3.207189 1_555
Ir2 Sr1 3.230236 1_654
Ir2 Sr1 3.230239 1_664
Ir2 Sr1 3.230239 1_554
Ir3 Sr1 3.207186 1_565
Ir3 Sr1 3.207189 1_555
Ir3 Sr1 3.207189 1_665
Ir3 Sr0 3.230236 1_566
Ir3 Sr0 3.230239 1_556
Ir3 Sr0 3.230239 1_666
I0 Sr3 3.555593 1_565
I0 Sr0 3.555593 1_565
I0 Sr3 3.555596 1_555
I0 Sr0 3.555596 1_555
I0 Sr3 3.555596 1_665
I0 Sr0 3.555596 1_665
I1 Sr1 3.555593 1_655
I1 Sr2 3.555593 1_655
I1 Sr1 3.555596 1_665
I1 Sr2 3.555596 1_665
I1 Sr1 3.555596 1_555
I1 Sr2 3.555596 1_555
