# generated using pymatgen
data_Cs6Rb2ZrSb4
_symmetry_space_group_name_H-M   'P 1'
_cell_length_a   12.37898613
_cell_length_b   12.37897422
_cell_length_c   12.37899061
_cell_angle_alpha   59.99995357
_cell_angle_beta   59.99998539
_cell_angle_gamma   59.99994327
_symmetry_Int_Tables_number   1
_chemical_formula_structural   Cs6Rb2ZrSb4
_chemical_formula_sum   'Cs12 Rb4 Zr2 Sb8'
_cell_volume   1341.34218647
_cell_formula_units_Z   2
loop_
 _symmetry_equiv_pos_site_id
 _symmetry_equiv_pos_as_xyz
  1  'x, y, z'
loop_
 _atom_site_type_symbol
 _atom_site_label
 _atom_site_symmetry_multiplicity
 _atom_site_fract_x
 _atom_site_fract_y
 _atom_site_fract_z
 _atom_site_occupancy
  Cs  Cs0  1  0.02520108  0.02520108  0.47479892  1
  Cs  Cs1  1  0.77520208  0.22479892  0.22479792  1
  Cs  Cs2  1  0.22479892  0.77520108  0.77520108  1
  Cs  Cs3  1  0.77520208  0.77520108  0.22479892  1
  Cs  Cs4  1  0.77520208  0.22479892  0.77520108  1
  Cs  Cs5  1  0.22479892  0.77520108  0.22479892  1
  Cs  Cs6  1  0.47479792  0.02520108  0.47479892  1
  Cs  Cs7  1  0.47479792  0.02520108  0.02520208  1
  Cs  Cs8  1  0.02520108  0.47479892  0.47479892  1
  Cs  Cs9  1  0.02520108  0.47479892  0.02520108  1
  Cs  Cs10  1  0.22479892  0.22479892  0.77520108  1
  Cs  Cs11  1  0.47479792  0.47479892  0.02520108  1
  Rb  Rb0  1  0.62500000  0.12500000  0.62500000  1
  Rb  Rb1  1  0.62500000  0.62500000  0.12500000  1
  Rb  Rb2  1  0.12500000  0.62500000  0.62500000  1
  Rb  Rb3  1  0.62500000  0.62500000  0.62500000  1
  Zr  Zr0  1  0.75000000  0.75000000  0.75000000  1
  Zr  Zr1  1  0.50000000  0.50000000  0.50000000  1
  Sb  Sb0  1  0.40477854  0.78566637  0.40477854  1
  Sb  Sb1  1  0.84522146  0.84522146  0.46433463  1
  Sb  Sb2  1  0.46433463  0.84522146  0.84522146  1
  Sb  Sb3  1  0.84522146  0.84522146  0.84522146  1
  Sb  Sb4  1  0.78566537  0.40477854  0.40477854  1
  Sb  Sb5  1  0.40477854  0.40477854  0.40477854  1
  Sb  Sb6  1  0.40477854  0.40477854  0.78566537  1
  Sb  Sb7  1  0.84522146  0.46433363  0.84522146  1
loop_
_geom_bond_atom_site_label_1
_geom_bond_atom_site_label_2
_geom_bond_distance
_geom_bond_site_symmetry_2
Cs0 Sb3 3.935151 1_445
Cs0 Sb1 3.935158 1_445
Cs0 Sb0 4.023280 1_545
Cs0 Sb4 4.023280 1_455
Cs0 Rb2 4.060994 1_545
Cs0 Rb0 4.060999 1_455
Cs1 Sb5 3.935160 1_555
Cs1 Sb4 3.935162 1_555
Cs1 Sb7 4.023274 1_554
Cs1 Sb1 4.023284 1_545
Cs1 Rb1 4.060995 1_555
Cs1 Rb0 4.061011 1_555
Cs2 Sb6 3.935142 1_555
Cs2 Sb0 3.935146 1_555
Cs2 Sb2 4.023279 1_555
Cs2 Sb3 4.023290 1_455
Cs2 Rb3 4.060999 1_555
Cs2 Rb2 4.061001 1_555
Cs3 Sb4 3.935146 1_555
Cs3 Sb0 3.935155 1_555
Cs3 Sb1 4.023271 1_555
Cs3 Sb3 4.023295 1_554
Cs3 Rb3 4.061001 1_555
Cs3 Rb1 4.061011 1_555
Cs4 Sb4 3.935151 1_555
Cs4 Sb6 3.935157 1_555
Cs4 Sb7 4.023257 1_555
Cs4 Sb3 4.023288 1_545
Cs4 Rb3 4.060994 1_555
Cs4 Rb0 4.061012 1_555
Cs5 Sb5 3.935145 1_555
Cs5 Sb0 3.935167 1_555
Cs5 Sb1 4.023286 1_455
Cs5 Sb2 4.023287 1_554
Cs5 Rb1 4.060999 1_555
Cs5 Rb2 4.061001 1_555
Cs6 Sb2 3.935151 1_545
Cs6 Sb1 3.935157 1_545
Cs6 Sb0 4.023257 1_545
Cs6 Sb5 4.023288 1_555
Cs6 Rb3 4.060994 1_545
Cs6 Rb0 4.061012 1_555
Cs7 Sb3 3.935160 1_544
Cs7 Sb2 3.935162 1_544
Cs7 Sb0 4.023274 1_545
Cs7 Sb6 4.023284 1_554
Cs7 Rb1 4.060995 1_545
Cs7 Rb0 4.061011 1_554
Cs8 Sb1 3.935142 1_455
Cs8 Sb7 3.935146 1_455
Cs8 Sb4 4.023279 1_455
Cs8 Sb5 4.023290 1_555
Cs8 Rb3 4.060999 1_455
Cs8 Rb2 4.061001 1_555
Cs9 Sb3 3.935145 1_454
Cs9 Sb7 3.935167 1_454
Cs9 Sb6 4.023286 1_554
Cs9 Sb4 4.023287 1_455
Cs9 Rb1 4.060999 1_455
Cs9 Rb2 4.061001 1_554
Cs10 Sb5 3.935151 1_555
Cs10 Sb6 3.935158 1_555
Cs10 Sb7 4.023280 1_455
Cs10 Sb2 4.023280 1_545
Cs10 Rb2 4.060994 1_555
Cs10 Rb0 4.060999 1_555
Cs11 Sb2 3.935146 1_554
Cs11 Sb7 3.935155 1_554
Cs11 Sb6 4.023271 1_554
Cs11 Sb5 4.023295 1_555
Cs11 Rb3 4.061001 1_554
Cs11 Rb1 4.061011 1_555
Rb0 Zr0 3.790268 1_545
Rb0 Zr1 3.790268 1_555
Rb0 Sb3 3.925170 1_545
Rb0 Sb5 3.925170 1_555
Rb0 Sb6 3.925178 1_555
Rb0 Sb1 3.925178 1_545
Rb0 Sb4 3.925178 1_555
Rb0 Sb2 3.925178 1_545
Rb1 Zr0 3.790275 1_554
Rb1 Zr1 3.790275 1_555
Rb1 Sb3 3.925172 1_554
Rb1 Sb5 3.925172 1_555
Rb1 Sb4 3.925180 1_555
Rb1 Sb2 3.925180 1_554
Rb1 Sb0 3.925188 1_555
Rb1 Sb7 3.925188 1_554
Rb2 Zr0 3.790273 1_455
Rb2 Zr1 3.790273 1_555
Rb2 Sb3 3.925172 1_455
Rb2 Sb5 3.925172 1_555
Rb2 Sb6 3.925179 1_555
Rb2 Sb1 3.925179 1_455
Rb2 Sb0 3.925188 1_555
Rb2 Sb7 3.925188 1_455
Rb3 Zr1 3.790275 1_555
Rb3 Zr0 3.790275 1_555
Rb3 Sb7 3.925169 1_555
Rb3 Sb0 3.925169 1_555
Rb3 Sb1 3.925170 1_555
Rb3 Sb6 3.925170 1_555
Rb3 Sb2 3.925170 1_555
Rb3 Sb4 3.925170 1_555
Sb0 Zr1 2.887339 1_555
Sb1 Zr0 2.887334 1_555
Sb2 Zr0 2.887333 1_555
Sb3 Zr0 2.887324 1_555
Sb4 Zr1 2.887333 1_555
Sb5 Zr1 2.887324 1_555
Sb6 Zr1 2.887334 1_555
Sb7 Zr0 2.887339 1_555
