# generated using pymatgen
data_Rb4Ba2SnSb4
_symmetry_space_group_name_H-M   'P 1'
_cell_length_a   11.48707746
_cell_length_b   11.48707821
_cell_length_c   8.51801440
_cell_angle_alpha   88.42453907
_cell_angle_beta   88.42454162
_cell_angle_gamma   119.47309769
_symmetry_Int_Tables_number   1
_chemical_formula_structural   Rb4Ba2SnSb4
_chemical_formula_sum   'Rb8 Ba4 Sn2 Sb8'
_cell_volume   977.06257231
_cell_formula_units_Z   2
loop_
 _symmetry_equiv_pos_site_id
 _symmetry_equiv_pos_as_xyz
  1  'x, y, z'
loop_
 _atom_site_type_symbol
 _atom_site_label
 _atom_site_symmetry_multiplicity
 _atom_site_fract_x
 _atom_site_fract_y
 _atom_site_fract_z
 _atom_site_occupancy
  Rb  Rb0  1  0.48168747  0.95669409  0.38461137  1
  Rb  Rb1  1  0.95669409  0.48168747  0.88461137  1
  Rb  Rb2  1  0.86090028  0.71447225  0.16458205  1
  Rb  Rb3  1  0.27904224  0.13225662  0.22368500  1
  Rb  Rb4  1  0.84841182  0.14456672  0.18865025  1
  Rb  Rb5  1  0.13225662  0.27904224  0.72368500  1
  Rb  Rb6  1  0.71447225  0.86090028  0.66458205  1
  Rb  Rb7  1  0.14456672  0.84841182  0.68865025  1
  Ba  Ba0  1  0.05221313  0.52578257  0.38942276  1
  Ba  Ba1  1  0.48229442  0.52359776  0.38024525  1
  Ba  Ba2  1  0.52578257  0.05221313  0.88942276  1
  Ba  Ba3  1  0.52359776  0.48229442  0.88024525  1
  Sn  Sn0  1  0.66369674  0.33302885  0.49989115  1
  Sn  Sn1  1  0.33302885  0.66369674  0.99989115  1
  Sb  Sb0  1  0.65193485  0.33434158  0.16141619  1
  Sb  Sb1  1  0.33434158  0.65193485  0.66141619  1
  Sb  Sb2  1  0.20482191  0.39518611  0.13309993  1
  Sb  Sb3  1  0.60667436  0.79864285  0.08611671  1
  Sb  Sb4  1  0.20418911  0.80537227  0.10594734  1
  Sb  Sb5  1  0.79864285  0.60667436  0.58611671  1
  Sb  Sb6  1  0.39518611  0.20482191  0.63309993  1
  Sb  Sb7  1  0.80537227  0.20418911  0.60594734  1
loop_
_geom_bond_atom_site_label_1
_geom_bond_atom_site_label_2
_geom_bond_distance
_geom_bond_site_symmetry_2
Rb0 Sb4 3.742642 1_555
Rb0 Sb1 3.765059 1_555
Rb0 Sb3 3.800050 1_555
Rb0 Sn0 3.933962 1_565
Rb0 Sb7 3.967405 1_565
Rb0 Sb6 4.073631 1_565
Rb0 Sb0 4.153514 1_565
Rb1 Sb7 3.742642 1_555
Rb1 Sb0 3.765059 1_556
Rb1 Sb5 3.800050 1_555
Rb1 Sn1 3.933961 1_655
Rb1 Sb4 3.967405 1_656
Rb1 Sb2 4.073631 1_656
Rb1 Sb1 4.153513 1_655
Rb2 Sb4 3.563880 1_655
Rb2 Sb3 3.572123 1_555
Rb2 Sb5 3.698698 1_555
Rb2 Sb0 3.811250 1_555
Rb3 Sb2 3.589756 1_555
Rb3 Sb4 3.594736 1_545
Rb3 Sb6 3.736056 1_555
Rb3 Sb0 3.747093 1_555
Rb4 Sb2 3.673411 1_655
Rb4 Sb7 3.703877 1_555
Rb4 Sb3 3.705375 1_545
Rb4 Sb0 3.839570 1_555
Rb5 Sb6 3.589756 1_555
Rb5 Sb7 3.594736 1_455
Rb5 Sb2 3.736056 1_556
Rb5 Sb1 3.747093 1_555
Rb6 Sb7 3.563880 1_565
Rb6 Sb5 3.572123 1_555
Rb6 Sb3 3.698698 1_556
Rb6 Sb1 3.811250 1_555
Rb7 Sb6 3.673411 1_565
Rb7 Sb4 3.703877 1_556
Rb7 Sb5 3.705375 1_455
Rb7 Sb1 3.839570 1_555
Ba0 Sb2 3.556428 1_555
Ba0 Sb4 3.607983 1_555
Ba0 Sb1 3.734546 1_555
Ba0 Sb7 3.757503 1_455
Ba0 Sb5 3.825631 1_455
Ba0 Sn0 3.954274 1_455
Ba1 Sb2 3.560909 1_555
Ba1 Sb3 3.636817 1_555
Ba1 Sb1 3.637815 1_555
Ba1 Sb5 3.771097 1_555
Ba1 Sn0 3.828276 1_555
Ba1 Sb6 3.858918 1_555
Ba1 Sb0 4.023669 1_555
Ba2 Sb6 3.556428 1_555
Ba2 Sb7 3.607982 1_555
Ba2 Sb0 3.734546 1_556
Ba2 Sb4 3.757503 1_546
Ba2 Sb3 3.825631 1_546
Ba2 Sn1 3.954275 1_545
Ba3 Sb6 3.560909 1_555
Ba3 Sb5 3.636817 1_555
Ba3 Sb0 3.637815 1_556
Ba3 Sb3 3.771097 1_556
Ba3 Sn1 3.828276 1_555
Ba3 Sb2 3.858917 1_556
Ba3 Sb1 4.023669 1_555
Sb0 Sn0 2.889979 1_555
Sb1 Sn1 2.889979 1_555
Sb2 Sn1 2.866301 1_554
Sb3 Sn1 2.866696 1_554
Sb4 Sn1 2.834165 1_554
Sb5 Sn0 2.866696 1_555
Sb6 Sn0 2.866301 1_555
Sb7 Sn0 2.834165 1_555
