# generated using pymatgen
data_Zr5NiBi2Pb
_symmetry_space_group_name_H-M   'P 1'
_cell_length_a   8.76992837
_cell_length_b   8.76992931
_cell_length_c   5.89084676
_cell_angle_alpha   90.00000000
_cell_angle_beta   90.00000000
_cell_angle_gamma   119.90490097
_symmetry_Int_Tables_number   1
_chemical_formula_structural   Zr5NiBi2Pb
_chemical_formula_sum   'Zr10 Ni2 Bi4 Pb2'
_cell_volume   392.74971171
_cell_formula_units_Z   2
loop_
 _symmetry_equiv_pos_site_id
 _symmetry_equiv_pos_as_xyz
  1  'x, y, z'
loop_
 _atom_site_type_symbol
 _atom_site_label
 _atom_site_symmetry_multiplicity
 _atom_site_fract_x
 _atom_site_fract_y
 _atom_site_fract_z
 _atom_site_occupancy
  Zr  Zr0  1  0.66633151  0.33318487  0.50128321  1
  Zr  Zr1  1  0.33318487  0.66633151  0.50128321  1
  Zr  Zr2  1  0.33318487  0.66633151  0.99871679  1
  Zr  Zr3  1  0.66633151  0.33318487  0.99871679  1
  Zr  Zr4  1  0.75180346  0.75180346  0.25000000  1
  Zr  Zr5  1  0.24522172  0.99866112  0.25000000  1
  Zr  Zr6  1  0.99866112  0.24522172  0.25000000  1
  Zr  Zr7  1  0.24938419  0.24938419  0.75000000  1
  Zr  Zr8  1  0.75227207  0.00316239  0.75000000  1
  Zr  Zr9  1  0.00316239  0.75227207  0.75000000  1
  Ni  Ni0  1  0.00017305  0.00017305  0.50456548  1
  Ni  Ni1  1  0.00017305  0.00017305  0.99543452  1
  Bi  Bi0  1  0.38988659  0.38988659  0.25000000  1
  Bi  Bi1  1  0.60689311  0.99989801  0.25000000  1
  Bi  Bi2  1  0.99989801  0.60689311  0.25000000  1
  Bi  Bi3  1  0.61146856  0.61146856  0.75000000  1
  Pb  Pb0  1  0.39146079  0.00050712  0.75000000  1
  Pb  Pb1  1  0.00050712  0.39146079  0.75000000  1
loop_
_geom_bond_atom_site_label_1
_geom_bond_atom_site_label_2
_geom_bond_distance
_geom_bond_site_symmetry_2
Ni0 Zr8 2.621927 1_455
Ni0 Zr9 2.621928 1_545
Ni0 Zr7 2.623131 1_555
Ni0 Zr5 2.625998 1_545
Ni0 Zr6 2.625998 1_455
Ni0 Zr4 2.647064 1_445
Ni1 Zr8 2.621927 1_455
Ni1 Zr9 2.621928 1_545
Ni1 Zr7 2.623131 1_555
Ni1 Zr5 2.625998 1_546
Ni1 Zr6 2.625998 1_456
Ni1 Zr4 2.647064 1_446
Bi0 Zr6 3.006839 1_455
Bi0 Zr5 3.006839 1_545
Bi0 Zr0 3.085178 1_555
Bi0 Zr3 3.085178 1_554
Bi0 Zr1 3.085178 1_555
Bi0 Zr2 3.085178 1_554
Bi0 Zr4 3.178546 1_555
Bi0 Zr7 3.193461 1_555
Bi0 Zr7 3.193461 1_554
Bi1 Zr6 3.010428 1_565
Bi1 Zr4 3.017646 1_555
Bi1 Zr0 3.080104 1_565
Bi1 Zr3 3.080104 1_564
Bi1 Zr1 3.083667 1_555
Bi1 Zr2 3.083667 1_554
Bi1 Zr5 3.166438 1_555
Bi1 Zr8 3.203978 1_565
Bi1 Zr8 3.203978 1_564
Bi2 Zr5 3.010429 1_655
Bi2 Zr4 3.017645 1_555
Bi2 Zr1 3.080104 1_655
Bi2 Zr2 3.080104 1_654
Bi2 Zr0 3.083667 1_555
Bi2 Zr3 3.083667 1_554
Bi2 Zr6 3.166438 1_555
Bi2 Zr9 3.203978 1_655
Bi2 Zr9 3.203978 1_654
Bi3 Zr9 3.015841 1_655
Bi3 Zr8 3.015841 1_565
Bi3 Zr2 3.083053 1_555
Bi3 Zr1 3.083053 1_555
Bi3 Zr3 3.083053 1_555
Bi3 Zr0 3.083053 1_555
Bi3 Zr7 3.180017 1_555
Bi3 Zr4 3.192893 1_555
Bi3 Zr4 3.192893 1_556
Pb0 Zr9 2.990587 1_545
Pb0 Zr7 3.004689 1_555
Pb0 Zr3 3.075219 1_555
Pb0 Zr0 3.075219 1_555
Pb0 Zr2 3.082751 1_545
Pb0 Zr1 3.082751 1_545
Pb0 Zr8 3.152744 1_555
Pb0 Zr5 3.209346 1_546
Pb0 Zr5 3.209346 1_545
Pb1 Zr8 2.990588 1_455
Pb1 Zr7 3.004689 1_555
Pb1 Zr2 3.075219 1_555
Pb1 Zr1 3.075219 1_555
Pb1 Zr3 3.082750 1_455
Pb1 Zr0 3.082750 1_455
Pb1 Zr9 3.152744 1_555
Pb1 Zr6 3.209346 1_455
Pb1 Zr6 3.209346 1_456
