# generated using pymatgen
data_Lu12Fe3CuHg
_symmetry_space_group_name_H-M   'P 1'
_cell_length_a   8.01582631
_cell_length_b   8.01582447
_cell_length_c   8.01582629
_cell_angle_alpha   107.22401144
_cell_angle_beta   110.00861950
_cell_angle_gamma   111.20648526
_symmetry_Int_Tables_number   1
_chemical_formula_structural   Lu12Fe3CuHg
_chemical_formula_sum   'Lu12 Fe3 Cu1 Hg1'
_cell_volume   395.98115664
_cell_formula_units_Z   1
loop_
 _symmetry_equiv_pos_site_id
 _symmetry_equiv_pos_as_xyz
  1  'x, y, z'
loop_
 _atom_site_type_symbol
 _atom_site_label
 _atom_site_symmetry_multiplicity
 _atom_site_fract_x
 _atom_site_fract_y
 _atom_site_fract_z
 _atom_site_occupancy
  Lu  Lu0  1  0.31008042  0.31071257  0.62079299  1
  Lu  Lu1  1  0.68991958  0.68928743  0.37920701  1
  Lu  Lu2  1  0.68991958  0.31071257  0.00063114  1
  Lu  Lu3  1  0.31008042  0.68928743  0.99936886  1
  Lu  Lu4  1  0.18552660  0.41918440  0.23365680  1
  Lu  Lu5  1  0.81447340  0.58081560  0.76634320  1
  Lu  Lu6  1  0.18552660  0.95186880  0.76634320  1
  Lu  Lu7  1  0.92809115  0.18578766  0.74230449  1
  Lu  Lu8  1  0.81447340  0.04813120  0.23365680  1
  Lu  Lu9  1  0.07190885  0.81421234  0.25769551  1
  Lu  Lu10  1  0.44348316  0.18578766  0.25769551  1
  Lu  Lu11  1  0.55651684  0.81421234  0.74230449  1
  Fe  Fe0  1  0.37455980  0.37455980  0.00000000  1
  Fe  Fe1  1  0.62544020  0.62544020  1.00000000  1
  Fe  Fe2  1  0.00000000  0.00000000  0.00000000  1
  Cu  Cu0  1  0.50000000  0.00000000  0.50000000  1
  Hg  Hg0  1  0.00000000  0.50000000  0.50000000  1
loop_
_geom_bond_atom_site_label_1
_geom_bond_atom_site_label_2
_geom_bond_distance
_geom_bond_site_symmetry_2
Fe0 Fe1 2.272125 1_554
Fe0 Lu3 2.753325 1_554
Fe0 Lu1 2.753327 1_555
Fe0 Lu0 2.753327 1_554
Fe0 Lu2 2.753329 1_555
Fe0 Lu4 2.805242 1_555
Fe0 Lu6 2.805247 1_544
Fe0 Lu10 2.921760 1_555
Fe0 Lu7 2.921767 1_454
Fe1 Lu2 2.753325 1_556
Fe1 Lu0 2.753327 1_555
Fe1 Lu1 2.753327 1_556
Fe1 Lu3 2.753329 1_555
Fe1 Lu5 2.805242 1_555
Fe1 Lu8 2.805247 1_566
Fe1 Lu11 2.921760 1_555
Fe1 Lu9 2.921767 1_656
Fe2 Lu6 2.785974 1_544
Fe2 Lu8 2.785974 1_455
Fe2 Lu4 2.785979 1_555
Fe2 Lu5 2.785979 1_444
Fe2 Lu10 2.906028 1_555
Fe2 Lu11 2.906028 1_444
Fe2 Lu9 2.906028 1_545
Fe2 Lu7 2.906028 1_454
Cu0 Lu7 2.791846 1_555
Cu0 Lu9 2.791846 1_545
Cu0 Lu11 2.791852 1_545
Cu0 Lu10 2.791852 1_555
Cu0 Lu2 3.432475 1_556
Cu0 Lu3 3.432475 1_544
Cu0 Lu0 3.432481 1_555
Cu0 Lu1 3.432481 1_545
Hg0 Lu6 3.039725 1_555
Hg0 Lu8 3.039725 1_455
Hg0 Lu5 3.039730 1_455
Hg0 Lu4 3.039730 1_555
Hg0 Lu0 3.371821 1_555
Hg0 Lu1 3.371821 1_455
Hg0 Lu3 3.371828 1_555
Hg0 Lu2 3.371828 1_455
Hg0 Lu11 3.614038 1_555
Hg0 Lu10 3.614038 1_455
Hg0 Lu9 3.614039 1_555
Hg0 Lu7 3.614039 1_455
