# generated using pymatgen
data_RbInSe2
_symmetry_space_group_name_H-M   'P 1'
_cell_length_a   8.22775471
_cell_length_b   8.22775471
_cell_length_c   16.37401025
_cell_angle_alpha   82.76158886
_cell_angle_beta   82.76158886
_cell_angle_gamma   89.97288758
_symmetry_Int_Tables_number   1
_chemical_formula_structural   RbInSe2
_chemical_formula_sum   'Rb8 In8 Se16'
_cell_volume   1090.72318098
_cell_formula_units_Z   8
loop_
 _symmetry_equiv_pos_site_id
 _symmetry_equiv_pos_as_xyz
  1  'x, y, z'
loop_
 _atom_site_type_symbol
 _atom_site_label
 _atom_site_symmetry_multiplicity
 _atom_site_fract_x
 _atom_site_fract_y
 _atom_site_fract_z
 _atom_site_occupancy
  Rb  Rb0  1  0.84763251  0.22216836  0.61004545  1
  Rb  Rb1  1  0.22130125  0.34624468  0.11455865  1
  Rb  Rb2  1  0.34624468  0.22130125  0.61455865  1
  Rb  Rb3  1  0.77869875  0.65375532  0.88544135  1
  Rb  Rb4  1  0.22216836  0.84763251  0.11004545  1
  Rb  Rb5  1  0.15236749  0.77783164  0.38995455  1
  Rb  Rb6  1  0.77783164  0.15236749  0.88995455  1
  Rb  Rb7  1  0.65375532  0.77869875  0.38544135  1
  In  In0  1  0.70984659  0.08696795  0.16063750  1
  In  In1  1  0.91303205  0.29015341  0.33936250  1
  In  In2  1  0.29015341  0.91303205  0.83936250  1
  In  In3  1  0.08696795  0.70984659  0.66063750  1
  In  In4  1  0.41652678  0.29027778  0.33904143  1
  In  In5  1  0.70972222  0.58347322  0.16095857  1
  In  In6  1  0.58347322  0.70972222  0.66095857  1
  In  In7  1  0.29027778  0.41652678  0.83904143  1
  Se  Se0  1  0.57483796  0.42516204  0.75000000  1
  Se  Se1  1  0.42516204  0.57483796  0.25000000  1
  Se  Se2  1  0.05081023  0.94918977  0.75000000  1
  Se  Se3  1  0.94918977  0.05081023  0.25000000  1
  Se  Se4  1  0.05064379  0.42563033  0.74999358  1
  Se  Se5  1  0.57436967  0.94935621  0.75000642  1
  Se  Se6  1  0.94935621  0.57436967  0.25000642  1
  Se  Se7  1  0.42563033  0.05064379  0.24999358  1
  Se  Se8  1  0.85936527  0.73463774  0.56296680  1
  Se  Se9  1  0.26536226  0.14063473  0.93703320  1
  Se  Se10  1  0.14063473  0.26536226  0.43703320  1
  Se  Se11  1  0.63944663  0.26556435  0.43825614  1
  Se  Se12  1  0.26556435  0.63944663  0.93825614  1
  Se  Se13  1  0.36055337  0.73443565  0.56174386  1
  Se  Se14  1  0.73443565  0.36055337  0.06174386  1
  Se  Se15  1  0.73463774  0.85936527  0.06296680  1
loop_
_geom_bond_atom_site_label_1
_geom_bond_atom_site_label_2
_geom_bond_distance
_geom_bond_site_symmetry_2
Rb0 Se11 3.454607 1_555
Rb0 Se10 3.462583 1_655
Rb0 Se0 3.569810 1_555
Rb0 Se2 3.571470 1_645
Rb0 Se5 3.571477 1_545
Rb0 Se4 3.574531 1_655
Rb1 Se12 3.502392 1_554
Rb1 Se9 3.523615 1_554
Rb1 Se3 3.637980 1_455
Rb1 Se7 3.638114 1_555
Rb1 Se6 3.639042 1_455
Rb1 Se1 3.641508 1_555
Rb2 Se11 3.502392 1_555
Rb2 Se10 3.523615 1_555
Rb2 Se2 3.637980 1_545
Rb2 Se4 3.638114 1_555
Rb2 Se5 3.639042 1_545
Rb2 Se0 3.641508 1_555
Rb3 Se14 3.502392 1_556
Rb3 Se15 3.523615 1_556
Rb3 Se2 3.637980 1_655
Rb3 Se5 3.638114 1_555
Rb3 Se4 3.639042 1_655
Rb3 Se0 3.641508 1_555
Rb4 Se12 3.454607 1_554
Rb4 Se9 3.462583 1_564
Rb4 Se1 3.569810 1_555
Rb4 Se3 3.571470 1_465
Rb4 Se6 3.571477 1_455
Rb4 Se7 3.574531 1_565
Rb5 Se13 3.454607 1_555
Rb5 Se8 3.462583 1_455
Rb5 Se1 3.569810 1_555
Rb5 Se3 3.571470 1_465
Rb5 Se7 3.571477 1_565
Rb5 Se6 3.574531 1_455
Rb6 Se14 3.454607 1_556
Rb6 Se15 3.462583 1_546
Rb6 Se0 3.569810 1_555
Rb6 Se2 3.571470 1_645
Rb6 Se4 3.571477 1_655
Rb6 Se5 3.574531 1_545
Rb7 Se13 3.502392 1_555
Rb7 Se8 3.523615 1_555
Rb7 Se3 3.637980 1_565
Rb7 Se6 3.638114 1_555
Rb7 Se7 3.639042 1_565
Rb7 Se1 3.641508 1_555
In0 Se3 2.592946 1_555
In0 Se7 2.593591 1_555
In0 Se14 2.594097 1_555
In0 Se15 2.603503 1_545
In1 Se3 2.592946 1_555
In1 Se6 2.593591 1_555
In1 Se11 2.594097 1_555
In1 Se10 2.603503 1_655
In2 Se2 2.592946 1_555
In2 Se5 2.593591 1_555
In2 Se12 2.594097 1_555
In2 Se9 2.603503 1_565
In3 Se2 2.592946 1_555
In3 Se4 2.593591 1_555
In3 Se13 2.594097 1_555
In3 Se8 2.603503 1_455
In4 Se11 2.590710 1_555
In4 Se7 2.591479 1_555
In4 Se1 2.593495 1_555
In4 Se10 2.601731 1_555
In5 Se14 2.590710 1_555
In5 Se6 2.591479 1_555
In5 Se1 2.593495 1_555
In5 Se15 2.601731 1_555
In6 Se13 2.590710 1_555
In6 Se5 2.591479 1_555
In6 Se0 2.593495 1_555
In6 Se8 2.601731 1_555
In7 Se12 2.590710 1_555
In7 Se4 2.591479 1_555
In7 Se0 2.593495 1_555
In7 Se9 2.601731 1_555
