# generated using pymatgen
data_NbPd5Au2
_symmetry_space_group_name_H-M   'P 1'
_cell_length_a   8.38883001
_cell_length_b   8.38882978
_cell_length_c   8.38883186
_cell_angle_alpha   152.33686609
_cell_angle_beta   152.33686415
_cell_angle_gamma   39.52156938
_symmetry_Int_Tables_number   1
_chemical_formula_structural   NbPd5Au2
_chemical_formula_sum   'Nb1 Pd5 Au2'
_cell_volume   127.01364111
_cell_formula_units_Z   1
loop_
 _symmetry_equiv_pos_site_id
 _symmetry_equiv_pos_as_xyz
  1  'x, y, z'
loop_
 _atom_site_type_symbol
 _atom_site_label
 _atom_site_symmetry_multiplicity
 _atom_site_fract_x
 _atom_site_fract_y
 _atom_site_fract_z
 _atom_site_occupancy
  Nb  Nb0  1  0.00000000  0.00000000  0.00000000  1
  Pd  Pd0  1  0.50000000  0.50000000  0.00000000  1
  Pd  Pd1  1  0.88162227  0.38162227  0.50000000  1
  Pd  Pd2  1  0.38162227  0.88162227  0.50000000  1
  Pd  Pd3  1  0.11837773  0.61837773  0.50000000  1
  Pd  Pd4  1  0.61837773  0.11837773  0.50000000  1
  Au  Au0  1  0.74624554  0.74624554  1.00000000  1
  Au  Au1  1  0.25375446  0.25375446  0.00000000  1
loop_
_geom_bond_atom_site_label_1
_geom_bond_atom_site_label_2
_geom_bond_distance
_geom_bond_site_symmetry_2
Nb0 Pd3 2.741486 1_555
Nb0 Pd1 2.741486 1_444
Nb0 Pd4 2.741487 1_555
Nb0 Pd2 2.741487 1_444
Nb0 Pd3 2.741488 1_544
Nb0 Pd1 2.741488 1_455
Nb0 Pd4 2.741488 1_454
Nb0 Pd2 2.741488 1_545
Nb0 Pd0 2.836212 1_455
Nb0 Pd0 2.836212 1_545
Nb0 Pd0 2.836213 1_556
Nb0 Pd0 2.836213 1_444
Pd0 Pd4 2.741486 1_565
Pd0 Pd2 2.741486 1_544
Pd0 Pd3 2.741487 1_655
Pd0 Pd1 2.741487 1_454
Pd0 Pd4 2.741488 1_554
Pd0 Pd2 2.741488 1_555
Pd0 Pd3 2.741488 1_554
Pd0 Pd1 2.741488 1_555
Pd1 Pd2 2.836212 1_645
Pd1 Pd2 2.836212 1_555
Pd1 Pd2 2.836213 1_656
Pd1 Pd2 2.836213 1_544
Pd3 Pd4 2.836212 1_555
Pd3 Pd4 2.836212 1_465
Pd3 Pd4 2.836213 1_454
Pd3 Pd4 2.836213 1_566
Au0 Au1 2.838689 1_566
Au0 Au1 2.838689 1_656
Au0 Au1 2.838690 1_667
Au0 Au1 2.838690 1_555
Au0 Pd4 2.845763 1_555
Au0 Pd3 2.845763 1_555
Au0 Pd4 2.845764 1_566
Au0 Pd3 2.845764 1_656
Au0 Pd1 2.931071 1_566
Au0 Pd2 2.931071 1_656
Au0 Pd1 2.931073 1_555
Au0 Pd2 2.931073 1_555
Au1 Pd2 2.845763 1_555
Au1 Pd1 2.845763 1_555
Au1 Pd2 2.845764 1_544
Au1 Pd1 2.845764 1_454
Au1 Pd3 2.931071 1_544
Au1 Pd4 2.931071 1_454
Au1 Pd3 2.931073 1_555
Au1 Pd4 2.931073 1_555
