# generated using pymatgen
data_K2ReI6
_symmetry_space_group_name_H-M   'P 1'
_cell_length_a   8.23472900
_cell_length_b   8.05091300
_cell_length_c   14.02213794
_cell_angle_alpha   55.09304646
_cell_angle_beta   90.00000000
_cell_angle_gamma   90.00000000
_symmetry_Int_Tables_number   1
_chemical_formula_structural   K2ReI6
_chemical_formula_sum   'K4 Re2 I12'
_cell_volume   762.37068643
_cell_formula_units_Z   2
loop_
 _symmetry_equiv_pos_site_id
 _symmetry_equiv_pos_as_xyz
  1  'x, y, z'
loop_
 _atom_site_type_symbol
 _atom_site_label
 _atom_site_symmetry_multiplicity
 _atom_site_fract_x
 _atom_site_fract_y
 _atom_site_fract_z
 _atom_site_occupancy
  K  K0  1  0.56189100  0.76925300  0.25087000  1
  K  K1  1  0.93810900  0.76925300  0.75087000  1
  K  K2  1  0.43810900  0.23074700  0.74913000  1
  K  K3  1  0.06189100  0.23074700  0.24913000  1
  Re  Re0  1  0.00000000  0.50000000  0.50000000  1
  Re  Re1  1  0.50000000  0.50000000  0.00000000  1
  I  I0  1  0.80960800  0.81227800  0.46496100  1
  I  I1  1  0.19039200  0.18772200  0.53503900  1
  I  I2  1  0.49572900  0.33088200  0.23475100  1
  I  I3  1  0.30960800  0.18772200  0.03503900  1
  I  I4  1  0.50427100  0.66911800  0.76524900  1
  I  I5  1  0.99572900  0.66911800  0.26524900  1
  I  I6  1  0.22283000  0.71775800  0.97131200  1
  I  I7  1  0.27717000  0.71775800  0.47131200  1
  I  I8  1  0.77717000  0.28224200  0.02868800  1
  I  I9  1  0.72283000  0.28224200  0.52868800  1
  I  I10  1  0.00427100  0.33088200  0.73475100  1
  I  I11  1  0.69039200  0.81227800  0.96496100  1
loop_
_geom_bond_atom_site_label_1
_geom_bond_atom_site_label_2
_geom_bond_distance
_geom_bond_site_symmetry_2
I0 Re0 2.758001 1_655
I0 K3 3.627154 1_665
I0 K0 3.805695 1_555
I0 K1 3.965209 1_555
I1 Re0 2.758001 1_555
I1 K1 3.627154 1_445
I1 K2 3.805695 1_555
I1 K3 3.965209 1_555
I2 Re1 2.749727 1_555
I2 K3 3.642468 1_555
I2 K0 3.703613 1_555
I3 Re1 2.758001 1_555
I3 K0 3.627154 1_545
I3 K3 3.805695 1_555
I3 K2 3.965209 1_554
I4 Re1 2.749727 1_556
I4 K1 3.642468 1_555
I4 K2 3.703613 1_555
I5 Re0 2.749727 1_655
I5 K0 3.642468 1_555
I5 K3 3.703613 1_655
I6 Re1 2.763632 1_556
I6 K1 3.709052 1_455
I6 K3 3.850227 1_556
I6 K2 3.896132 1_565
I7 Re0 2.763632 1_555
I7 K0 3.709052 1_555
I7 K2 3.850227 1_555
I7 K3 3.896132 1_565
I8 Re1 2.763632 1_555
I8 K3 3.709052 1_655
I8 K1 3.850227 1_554
I8 K0 3.896132 1_545
I9 Re0 2.763632 1_655
I9 K2 3.709052 1_555
I9 K0 3.850227 1_555
I9 K1 3.896132 1_545
I10 Re0 2.749727 1_555
I10 K2 3.642468 1_555
I10 K1 3.703613 1_455
I11 Re1 2.758001 1_556
I11 K2 3.627154 1_565
I11 K1 3.805695 1_555
I11 K0 3.965209 1_556
