# generated using pymatgen
data_Ba2Na(BeAs)6
_symmetry_space_group_name_H-M   'P 1'
_cell_length_a   8.46104455
_cell_length_b   8.46104544
_cell_length_c   7.31974642
_cell_angle_alpha   69.44493488
_cell_angle_beta   69.44493310
_cell_angle_gamma   36.74399642
_symmetry_Int_Tables_number   1
_chemical_formula_structural   Ba2Na(BeAs)6
_chemical_formula_sum   'Ba2 Na1 Be6 As6'
_cell_volume   291.24409641
_cell_formula_units_Z   1
loop_
 _symmetry_equiv_pos_site_id
 _symmetry_equiv_pos_as_xyz
  1  'x, y, z'
loop_
 _atom_site_type_symbol
 _atom_site_label
 _atom_site_symmetry_multiplicity
 _atom_site_fract_x
 _atom_site_fract_y
 _atom_site_fract_z
 _atom_site_occupancy
  Ba  Ba0  1  0.65887676  0.65887676  0.99957104  1
  Ba  Ba1  1  0.34112324  0.34112324  0.00042896  1
  Na  Na0  1  0.00000000  0.00000000  0.00000000  1
  Be  Be0  1  0.74711825  0.25288175  0.50000000  1
  Be  Be1  1  0.08265507  0.58358667  0.50165237  1
  Be  Be2  1  0.41641333  0.91734493  0.49834763  1
  Be  Be3  1  0.58358667  0.08265507  0.50165237  1
  Be  Be4  1  0.91734493  0.41641333  0.49834763  1
  Be  Be5  1  0.25288175  0.74711825  0.50000000  1
  As  As0  1  0.88465039  0.88465039  0.69788123  1
  As  As1  1  0.21527900  0.21527900  0.69902559  1
  As  As2  1  0.55087585  0.55087585  0.69689089  1
  As  As3  1  0.44912415  0.44912415  0.30310911  1
  As  As4  1  0.78472100  0.78472100  0.30097441  1
  As  As5  1  0.11534961  0.11534961  0.30211877  1
loop_
_geom_bond_atom_site_label_1
_geom_bond_atom_site_label_2
_geom_bond_distance
_geom_bond_site_symmetry_2
As0 Be5 2.315905 1_655
As0 Be0 2.315906 1_565
As0 Be3 2.323522 1_565
As0 Be1 2.323522 1_655
As0 Na0 3.369460 1_666
As0 Ba1 3.370361 1_566
As0 Ba1 3.370361 1_656
As0 Ba0 3.478313 1_555
As1 Be4 2.319056 1_455
As1 Be2 2.319056 1_545
As1 Be3 2.330293 1_555
As1 Be1 2.330294 1_555
As1 Na0 3.342239 1_556
As1 Ba0 3.361170 1_455
As1 Ba0 3.361170 1_545
As1 Ba1 3.500130 1_556
As2 Be5 2.313671 1_555
As2 Be0 2.313671 1_555
As2 Be4 2.316022 1_555
As2 Be2 2.316022 1_555
As2 Ba1 3.278063 1_556
As2 Ba0 3.280289 1_555
As2 Na0 3.370549 1_566
As2 Na0 3.370549 1_656
As3 Be0 2.313671 1_555
As3 Be5 2.313671 1_555
As3 Be1 2.316022 1_555
As3 Be3 2.316022 1_555
As3 Ba0 3.278063 1_554
As3 Ba1 3.280289 1_555
As3 Na0 3.370549 1_655
As3 Na0 3.370549 1_565
As4 Be1 2.319056 1_655
As4 Be3 2.319056 1_565
As4 Be2 2.330293 1_555
As4 Be4 2.330294 1_555
As4 Na0 3.342239 1_665
As4 Ba1 3.361170 1_655
As4 Ba1 3.361170 1_565
As4 Ba0 3.500130 1_554
As5 Be0 2.315905 1_455
As5 Be5 2.315906 1_545
As5 Be2 2.323522 1_545
As5 Be4 2.323522 1_455
As5 Na0 3.369460 1_555
As5 Ba0 3.370361 1_544
As5 Ba0 3.370361 1_454
As5 Ba1 3.478313 1_555
