# generated using pymatgen
data_Nb2HgPbO7
_symmetry_space_group_name_H-M   'P 1'
_cell_length_a   7.63765475
_cell_length_b   7.54946652
_cell_length_c   7.54946649
_cell_angle_alpha   59.01818605
_cell_angle_beta   59.61282359
_cell_angle_gamma   59.61282461
_symmetry_Int_Tables_number   1
_chemical_formula_structural   Nb2HgPbO7
_chemical_formula_sum   'Nb4 Hg2 Pb2 O14'
_cell_volume   303.68418476
_cell_formula_units_Z   2
loop_
 _symmetry_equiv_pos_site_id
 _symmetry_equiv_pos_as_xyz
  1  'x, y, z'
loop_
 _atom_site_type_symbol
 _atom_site_label
 _atom_site_symmetry_multiplicity
 _atom_site_fract_x
 _atom_site_fract_y
 _atom_site_fract_z
 _atom_site_occupancy
  Nb  Nb0  1  0.12500000  0.62500000  0.12500000  1
  Nb  Nb1  1  0.12500000  0.12500000  0.62500000  1
  Nb  Nb2  1  0.62500000  0.12500000  0.12500000  1
  Nb  Nb3  1  0.12500000  0.12500000  0.12500000  1
  Hg  Hg0  1  0.62500000  0.12500000  0.62500000  1
  Hg  Hg1  1  0.62500000  0.62500000  0.12500000  1
  Pb  Pb0  1  0.62500000  0.62500000  0.62500000  1
  Pb  Pb1  1  0.12500000  0.62500000  0.62500000  1
  O  O0  1  0.72236776  0.77763224  0.77763224  1
  O  O1  1  0.19321467  0.80678533  0.80678533  1
  O  O2  1  0.18352595  0.80956291  0.19357894  1
  O  O3  1  0.81333319  0.80956291  0.19357894  1
  O  O4  1  0.81333319  0.19357894  0.80956291  1
  O  O5  1  0.18352595  0.19357894  0.80956291  1
  O  O6  1  0.43293484  0.06706516  0.06706516  1
  O  O7  1  0.81706516  0.18293484  0.18293484  1
  O  O8  1  0.06647405  0.44043709  0.05642106  1
  O  O9  1  0.06647405  0.05642106  0.44043709  1
  O  O10  1  0.43666681  0.44043709  0.05642106  1
  O  O11  1  0.43666681  0.05642106  0.44043709  1
  O  O12  1  0.05678533  0.44321467  0.44321467  1
  O  O13  1  0.52763224  0.47236776  0.47236776  1
loop_
_geom_bond_atom_site_label_1
_geom_bond_atom_site_label_2
_geom_bond_distance
_geom_bond_site_symmetry_2
Nb0 O12 1.997241 1_555
Nb0 O1 1.997241 1_554
Nb0 O10 2.004044 1_555
Nb0 O3 2.004044 1_455
Nb0 O2 2.004049 1_555
Nb0 O8 2.004049 1_555
Nb1 O12 1.997241 1_555
Nb1 O1 1.997241 1_545
Nb1 O11 2.004044 1_555
Nb1 O4 2.004044 1_455
Nb1 O5 2.004049 1_555
Nb1 O9 2.004049 1_555
Nb2 O11 2.006671 1_555
Nb2 O4 2.006671 1_554
Nb2 O10 2.006671 1_555
Nb2 O3 2.006671 1_545
Nb2 O7 2.007389 1_555
Nb2 O6 2.007389 1_555
Nb3 O9 2.006669 1_555
Nb3 O5 2.006669 1_554
Nb3 O8 2.006669 1_555
Nb3 O2 2.006669 1_545
Nb3 O6 2.007389 1_555
Nb3 O7 2.007389 1_455
Hg0 O13 2.130935 1_555
Hg0 O0 2.130935 1_545
Hg1 O13 2.130935 1_555
Hg1 O0 2.130935 1_554
O0 Pb1 2.511857 1_655
O0 Pb0 2.511857 1_555
O1 Pb0 2.724718 1_555
O1 Pb1 2.724718 1_555
O2 Pb1 2.689671 1_555
O3 Pb0 2.689673 1_555
O4 Pb0 2.689673 1_555
O5 Pb1 2.689671 1_555
O8 Pb1 2.689671 1_554
O9 Pb1 2.689671 1_545
O10 Pb0 2.689673 1_554
O11 Pb0 2.689673 1_545
O12 Pb0 2.724718 1_455
O12 Pb1 2.724718 1_555
O13 Pb1 2.511857 1_555
O13 Pb0 2.511857 1_555
