# generated using pymatgen
data_NaSb12Ru3Au
_symmetry_space_group_name_H-M   'P 1'
_cell_length_a   8.14606903
_cell_length_b   8.15423462
_cell_length_c   8.14606876
_cell_angle_alpha   109.49152352
_cell_angle_beta   109.45090806
_cell_angle_gamma   109.49152449
_symmetry_Int_Tables_number   1
_chemical_formula_structural   NaSb12Ru3Au
_chemical_formula_sum   'Na1 Sb12 Ru3 Au1'
_cell_volume   416.43631608
_cell_formula_units_Z   1
loop_
 _symmetry_equiv_pos_site_id
 _symmetry_equiv_pos_as_xyz
  1  'x, y, z'
loop_
 _atom_site_type_symbol
 _atom_site_label
 _atom_site_symmetry_multiplicity
 _atom_site_fract_x
 _atom_site_fract_y
 _atom_site_fract_z
 _atom_site_occupancy
  Na  Na0  1  0.00000000  0.00000000  0.00000000  1
  Sb  Sb0  1  0.16085212  0.49881721  0.35647188  1
  Sb  Sb1  1  0.50656895  0.66477140  0.84277878  1
  Sb  Sb2  1  0.35647188  0.85765467  0.19562076  1
  Sb  Sb3  1  0.80437924  0.66203491  0.16085212  1
  Sb  Sb4  1  0.66379018  0.84179755  0.50656895  1
  Sb  Sb5  1  0.19562076  0.33796509  0.83914788  1
  Sb  Sb6  1  0.64352812  0.14234533  0.80437924  1
  Sb  Sb7  1  0.33620982  0.15820245  0.49343105  1
  Sb  Sb8  1  0.49343105  0.33522860  0.15722122  1
  Sb  Sb9  1  0.83914788  0.50118279  0.64352812  1
  Sb  Sb10  1  0.84277878  0.17800837  0.33620982  1
  Sb  Sb11  1  0.15722122  0.82199163  0.66379018  1
  Ru  Ru0  1  0.50000000  0.50000000  0.50000000  1
  Ru  Ru1  1  0.50000000  0.00000000  0.00000000  1
  Ru  Ru2  1  0.00000000  0.00000000  0.50000000  1
  Au  Au0  1  0.00000000  0.50000000  0.00000000  1
loop_
_geom_bond_atom_site_label_1
_geom_bond_atom_site_label_2
_geom_bond_distance
_geom_bond_site_symmetry_2
Na0 Sb7 3.488824 1_555
Na0 Sb4 3.488824 1_444
Na0 Sb8 3.488825 1_555
Na0 Sb1 3.488825 1_444
Na0 Sb10 3.488827 1_455
Na0 Sb11 3.488827 1_544
Na0 Sb0 3.566611 1_555
Na0 Sb9 3.566611 1_444
Na0 Sb2 3.566613 1_545
Na0 Sb6 3.566613 1_454
Na0 Sb5 3.566613 1_554
Na0 Sb3 3.566613 1_445
Sb0 Sb10 2.913378 1_455
Sb0 Sb11 2.985193 1_555
Sb1 Sb3 2.913378 1_556
Sb1 Sb5 2.985193 1_555
Sb2 Sb7 2.913378 1_565
Sb2 Sb4 2.985192 1_555
Sb3 Sb8 2.985193 1_555
Sb4 Sb6 2.913378 1_565
Sb5 Sb8 2.913378 1_556
Sb6 Sb7 2.985192 1_555
Sb10 Sb9 2.985193 1_555
Sb11 Sb9 2.913378 1_455
Ru0 Sb9 2.612117 1_555
Ru0 Sb0 2.612117 1_555
Ru0 Sb4 2.631028 1_555
Ru0 Sb7 2.631028 1_555
Ru0 Sb1 2.637024 1_555
Ru0 Sb8 2.637024 1_555
Ru1 Sb6 2.612124 1_554
Ru1 Sb2 2.612124 1_545
Ru1 Sb8 2.631028 1_555
Ru1 Sb1 2.631028 1_544
Ru1 Sb10 2.637022 1_555
Ru1 Sb11 2.637022 1_544
Ru2 Sb5 2.612116 1_555
Ru2 Sb3 2.612116 1_445
Ru2 Sb10 2.631035 1_455
Ru2 Sb11 2.631035 1_545
Ru2 Sb7 2.637024 1_555
Ru2 Sb4 2.637024 1_445
Au0 Sb2 2.764482 1_555
Au0 Sb6 2.764482 1_454
Au0 Sb0 2.764482 1_555
Au0 Sb9 2.764482 1_454
Au0 Sb3 2.764490 1_455
Au0 Sb5 2.764490 1_554
