# generated using pymatgen
data_Ca2P2O7
_symmetry_space_group_name_H-M   'P 1'
_cell_length_a   6.66605660
_cell_length_b   6.66605660
_cell_length_c   24.10239256
_cell_angle_alpha   90.00000000
_cell_angle_beta   90.00000000
_cell_angle_gamma   90.00000000
_symmetry_Int_Tables_number   1
_chemical_formula_structural   Ca2P2O7
_chemical_formula_sum   'Ca16 P16 O56'
_cell_volume   1071.02140313
_cell_formula_units_Z   8
loop_
 _symmetry_equiv_pos_site_id
 _symmetry_equiv_pos_as_xyz
  1  'x, y, z'
loop_
 _atom_site_type_symbol
 _atom_site_label
 _atom_site_symmetry_multiplicity
 _atom_site_fract_x
 _atom_site_fract_y
 _atom_site_fract_z
 _atom_site_occupancy
  Ca  Ca0  1  0.63374437  0.89415442  0.63525340  1
  Ca  Ca1  1  0.10584558  0.63374437  0.88525340  1
  Ca  Ca2  1  0.89415442  0.36625563  0.38525340  1
  Ca  Ca3  1  0.36625563  0.10584558  0.13525340  1
  Ca  Ca4  1  0.20555922  0.26065891  0.63771822  1
  Ca  Ca5  1  0.73934109  0.20555922  0.88771822  1
  Ca  Ca6  1  0.26065891  0.79444078  0.38771822  1
  Ca  Ca7  1  0.79444078  0.73934109  0.13771822  1
  Ca  Ca8  1  0.84466364  0.45006764  0.74211560  1
  Ca  Ca9  1  0.54993236  0.84466364  0.99211560  1
  Ca  Ca10  1  0.45006764  0.15533636  0.49211560  1
  Ca  Ca11  1  0.15533636  0.54993236  0.24211560  1
  Ca  Ca12  1  0.85670022  0.76769953  0.49979629  1
  Ca  Ca13  1  0.23230047  0.85670022  0.74979629  1
  Ca  Ca14  1  0.76769953  0.14329978  0.24979629  1
  Ca  Ca15  1  0.14329978  0.23230047  -0.00020371  1
  P  P0  1  0.70842449  0.35225295  0.62093344  1
  P  P1  1  0.64774705  0.70842449  0.87093344  1
  P  P2  1  0.35225295  0.29157551  0.37093344  1
  P  P3  1  0.29157551  0.64774705  0.12093344  1
  P  P4  1  0.94956970  0.28351525  0.51853398  1
  P  P5  1  0.71648475  0.94956970  0.76853398  1
  P  P6  1  0.28351525  0.05043030  0.26853398  1
  P  P7  1  0.05043030  0.71648475  0.01853398  1
  P  P8  1  0.12800566  0.74164693  0.62456297  1
  P  P9  1  0.25835307  0.12800566  0.87456297  1
  P  P10  1  0.74164693  0.87199434  0.37456297  1
  P  P11  1  0.87199434  0.25835307  0.12456297  1
  P  P12  1  0.37310061  0.68909105  0.52325017  1
  P  P13  1  0.31090895  0.37310061  0.77325017  1
  P  P14  1  0.68909105  0.62689939  0.27325017  1
  P  P15  1  0.62689939  0.31090895  0.02325017  1
  O  O0  1  0.84683307  0.22521562  0.65736246  1
  O  O1  1  0.77478438  0.84683307  0.90736246  1
  O  O2  1  0.22521562  0.15316693  0.40736246  1
  O  O3  1  0.15316693  0.77478438  0.15736246  1
  O  O4  1  0.53325745  0.22366581  0.60136334  1
  O  O5  1  0.77633419  0.53325745  0.85136334  1
  O  O6  1  0.22366581  0.46674255  0.35136334  1
  O  O7  1  0.46674255  0.77633419  0.10136334  1
  O  O8  1  0.65127939  0.54707728  0.64724367  1
  O  O9  1  0.45292272  0.65127939  0.89724367  1
  O  O10  1  0.54707728  0.34872061  0.39724367  1
  O  O11  1  0.34872061  0.45292272  0.14724367  1
  O  O12  1  0.83802854  0.41054276  0.56698543  1
  O  O13  1  0.58945724  0.83802854  0.81698543  1
  O  O14  1  0.41054276  0.16197146  0.31698543  1
  O  O15  1  0.16197146  0.58945724  0.06698543  1
  O  O16  1  0.97384147  0.44568091  0.47536416  1
  O  O17  1  0.55431909  0.97384147  0.72536416  1
  O  O18  1  0.44568091  0.02615853  0.22536416  1
  O  O19  1  0.02615853  0.55431909  0.97536416  1
  O  O20  1  0.80976375  0.11952612  0.49905182  1
  O  O21  1  0.94425846  0.82044429  0.59551937  1
  O  O22  1  0.88047388  0.80976375  0.74905182  1
  O  O23  1  0.19023625  0.88047388  -0.00094818  1
  O  O24  1  0.14267011  0.20670525  0.54307335  1
  O  O25  1  0.79329475  0.14267011  0.79307335  1
  O  O26  1  0.20670525  0.85732989  0.29307335  1
  O  O27  1  0.85732989  0.79329475  0.04307335  1
  O  O28  1  0.09623010  0.58462882  0.66911581  1
  O  O29  1  0.41537118  0.09623010  0.91911581  1
  O  O30  1  0.58462882  0.90376990  0.41911581  1
  O  O31  1  0.90376990  0.41537118  0.16911581  1
  O  O32  1  0.46721595  0.16119343  0.04253426  1
  O  O33  1  0.83880657  0.46721595  0.29253426  1
  O  O34  1  0.16119343  0.53278405  0.79253426  1
  O  O35  1  0.53278405  0.83880657  0.54253426  1
  O  O36  1  0.77775695  0.20104253  0.98687069  1
  O  O37  1  0.79895747  0.77775695  0.23687069  1
  O  O38  1  0.20104253  0.22224305  0.73687069  1
  O  O39  1  0.22224305  0.79895747  0.48687069  1
  O  O40  1  0.53577188  0.49606333  -0.00001003  1
  O  O41  1  0.50393667  0.53577188  0.24998997  1
  O  O42  1  0.49606333  0.46422812  0.74998997  1
  O  O43  1  0.46422812  0.50393667  0.49998997  1
  O  O44  1  0.74473810  0.38120249  0.07898722  1
  O  O45  1  0.61879751  0.74473810  0.32898722  1
  O  O46  1  0.38120249  0.25526190  0.82898722  1
  O  O47  1  0.25526190  0.61879751  0.57898722  1
  O  O48  1  0.73981029  0.09095932  0.14742438  1
  O  O49  1  0.90904068  0.73981029  0.39742438  1
  O  O50  1  0.09095932  0.26018971  0.89742438  1
  O  O51  1  0.26018971  0.90904068  0.64742438  1
  O  O52  1  0.05574154  0.17955571  0.09551937  1
  O  O53  1  0.82044429  0.05574154  0.34551937  1
  O  O54  1  0.17955571  0.94425846  0.84551937  1
  O  O55  1  0.11952612  0.19023625  0.24905182  1
loop_
_geom_bond_atom_site_label_1
_geom_bond_atom_site_label_2
_geom_bond_distance
_geom_bond_site_symmetry_2
Ca0 O17 2.297733 1_555
Ca0 O21 2.333044 1_555
Ca0 O8 2.334543 1_555
Ca0 O35 2.362877 1_555
Ca0 O4 2.437357 1_565
Ca0 O51 2.509319 1_555
Ca0 O0 2.678052 1_565
Ca1 O19 2.297733 1_555
Ca1 O54 2.333044 1_555
Ca1 O9 2.334543 1_555
Ca1 O34 2.362877 1_555
Ca1 O5 2.437357 1_455
Ca1 O50 2.509319 1_555
Ca1 O1 2.678052 1_455
Ca2 O16 2.297733 1_555
Ca2 O53 2.333044 1_555
Ca2 O10 2.334543 1_555
Ca2 O33 2.362877 1_555
Ca2 O6 2.437357 1_655
Ca2 O49 2.509319 1_555
Ca2 O2 2.678052 1_655
Ca3 O18 2.297733 1_555
Ca3 O52 2.333044 1_555
Ca3 O11 2.334543 1_555
Ca3 O32 2.362877 1_555
Ca3 O7 2.437357 1_545
Ca3 O48 2.509319 1_555
Ca3 O3 2.678052 1_545
Ca4 O24 2.347089 1_555
Ca4 O4 2.366527 1_555
Ca4 O51 2.383537 1_545
Ca4 O28 2.401604 1_555
Ca4 O38 2.403682 1_555
Ca4 O0 2.449135 1_455
Ca4 O47 2.795196 1_555
Ca5 O25 2.347089 1_555
Ca5 O5 2.366527 1_555
Ca5 O50 2.383537 1_655
Ca5 O29 2.401604 1_555
Ca5 O36 2.403682 1_555
Ca5 O1 2.449135 1_545
Ca5 O46 2.795196 1_555
Ca6 O26 2.347089 1_555
Ca6 O6 2.366527 1_555
Ca6 O49 2.383537 1_455
Ca6 O30 2.401604 1_555
Ca6 O39 2.403682 1_555
Ca6 O2 2.449135 1_565
Ca6 O45 2.795196 1_555
Ca7 O27 2.347089 1_555
Ca7 O7 2.366527 1_555
Ca7 O48 2.383537 1_565
Ca7 O31 2.401604 1_555
Ca7 O37 2.403682 1_555
Ca7 O3 2.449135 1_655
Ca7 O44 2.795196 1_555
Ca8 O42 2.333437 1_555
Ca8 O25 2.413436 1_555
Ca8 O22 2.415401 1_555
Ca8 O34 2.496576 1_655
Ca8 O0 2.533709 1_555
Ca8 O28 2.590851 1_655
Ca8 O8 2.703463 1_555
Ca8 O5 2.729171 1_555
Ca8 O38 2.822424 1_655
Ca9 O40 2.333437 1_556
Ca9 O27 2.413436 1_556
Ca9 O23 2.415401 1_556
Ca9 O32 2.496576 1_566
Ca9 O1 2.533709 1_555
Ca9 O29 2.590851 1_565
Ca9 O9 2.703463 1_555
Ca9 O7 2.729171 1_556
Ca9 O36 2.822424 1_565
Ca10 O43 2.333437 1_555
Ca10 O24 2.413436 1_555
Ca10 O20 2.415401 1_555
Ca10 O35 2.496576 1_545
Ca10 O2 2.533709 1_555
Ca10 O30 2.590851 1_545
Ca10 O10 2.703463 1_555
Ca10 O4 2.729171 1_555
Ca10 O39 2.822424 1_545
Ca11 O41 2.333437 1_555
Ca11 O26 2.413436 1_555
Ca11 O55 2.415401 1_555
Ca11 O33 2.496576 1_455
Ca11 O3 2.533709 1_555
Ca11 O31 2.590851 1_455
Ca11 O11 2.703463 1_555
Ca11 O6 2.729171 1_555
Ca11 O37 2.822424 1_455
Ca12 O16 2.358897 1_555
Ca12 O20 2.366142 1_565
Ca12 O21 2.405672 1_555
Ca12 O35 2.438871 1_555
Ca12 O39 2.465385 1_655
Ca12 O49 2.498880 1_555
Ca13 O17 2.358897 1_555
Ca13 O22 2.366142 1_455
Ca13 O54 2.405672 1_555
Ca13 O34 2.438871 1_555
Ca13 O38 2.465385 1_565
Ca13 O51 2.498880 1_555
Ca14 O18 2.358897 1_555
Ca14 O55 2.366142 1_655
Ca14 O53 2.405672 1_555
Ca14 O33 2.438871 1_555
Ca14 O37 2.465385 1_545
Ca14 O48 2.498880 1_555
Ca15 O19 2.358897 1_554
Ca15 O23 2.366142 1_545
Ca15 O52 2.405672 1_555
Ca15 O32 2.438871 1_555
Ca15 O36 2.465385 1_454
Ca15 O50 2.498880 1_554
O0 P0 1.529486 1_555
O1 P1 1.529486 1_555
O2 P2 1.529486 1_555
O3 P3 1.529486 1_555
O4 P0 1.523380 1_555
O5 P1 1.523380 1_555
O6 P2 1.523380 1_555
O7 P3 1.523380 1_555
O8 P0 1.494620 1_555
O9 P1 1.494620 1_555
O10 P2 1.494620 1_555
O11 P3 1.494620 1_555
O12 P0 1.608759 1_555
O12 P4 1.622844 1_555
O13 P1 1.608759 1_555
O13 P5 1.622844 1_555
O14 P2 1.608759 1_555
O14 P6 1.622844 1_555
O15 P3 1.608759 1_555
O15 P7 1.622844 1_555
O16 P4 1.509100 1_555
O17 P5 1.509100 1_555
O18 P6 1.509100 1_555
O19 P7 1.509100 1_556
O20 P4 1.511302 1_555
O21 P8 1.505403 1_655
O22 P5 1.511302 1_555
O23 P7 1.511302 1_555
O24 P4 1.506293 1_455
O25 P5 1.506293 1_545
O26 P6 1.506293 1_565
O27 P7 1.506293 1_655
O28 P8 1.514444 1_555
O29 P9 1.514444 1_555
O30 P10 1.514444 1_555
O31 P11 1.514444 1_555
O32 P15 1.531383 1_555
O33 P14 1.531383 1_555
O34 P13 1.531383 1_555
O35 P12 1.531383 1_555
O36 P15 1.522002 1_556
O37 P14 1.522002 1_555
O38 P13 1.522002 1_555
O39 P12 1.522002 1_555
O40 P15 1.485491 1_555
O41 P14 1.485491 1_555
O42 P13 1.485491 1_555
O43 P12 1.485491 1_555
O44 P11 1.611493 1_555
O44 P15 1.625215 1_555
O45 P10 1.611493 1_555
O45 P14 1.625215 1_555
O46 P9 1.611493 1_555
O46 P13 1.625215 1_555
O47 P8 1.611493 1_555
O47 P12 1.625215 1_555
O48 P11 1.524851 1_555
O49 P10 1.524851 1_555
O50 P9 1.524851 1_555
O51 P8 1.524851 1_555
O52 P11 1.505403 1_455
O53 P10 1.505403 1_545
O54 P9 1.505403 1_565
O55 P6 1.511302 1_555
