# generated using pymatgen
data_AlCr8Ag3Se16
_symmetry_space_group_name_H-M   'P 1'
_cell_length_a   7.52232190
_cell_length_b   7.52232190
_cell_length_c   10.68766778
_cell_angle_alpha   90.00000000
_cell_angle_beta   90.00000000
_cell_angle_gamma   90.00000000
_symmetry_Int_Tables_number   1
_chemical_formula_structural   AlCr8Ag3Se16
_chemical_formula_sum   'Al1 Cr8 Ag3 Se16'
_cell_volume   604.76517418
_cell_formula_units_Z   1
loop_
 _symmetry_equiv_pos_site_id
 _symmetry_equiv_pos_as_xyz
  1  'x, y, z'
loop_
 _atom_site_type_symbol
 _atom_site_label
 _atom_site_symmetry_multiplicity
 _atom_site_fract_x
 _atom_site_fract_y
 _atom_site_fract_z
 _atom_site_occupancy
  Al  Al0  1  0.50000000  0.50000000  0.50000000  1
  Cr  Cr0  1  0.25228459  0.50000000  0.12519315  1
  Cr  Cr1  1  0.75459245  0.00000000  0.62190679  1
  Cr  Cr2  1  0.74771541  0.50000000  0.12519315  1
  Cr  Cr3  1  0.24540755  0.00000000  0.62190679  1
  Cr  Cr4  1  0.00000000  0.24540755  0.37809321  1
  Cr  Cr5  1  0.50000000  0.74771541  0.87480685  1
  Cr  Cr6  1  0.50000000  0.25228459  0.87480685  1
  Cr  Cr7  1  0.00000000  0.75459245  0.37809321  1
  Ag  Ag0  1  0.00000000  0.00000000  0.00000000  1
  Ag  Ag1  1  0.50000000  0.00000000  0.24824310  1
  Ag  Ag2  1  0.00000000  0.50000000  0.75175690  1
  Se  Se0  1  0.76328761  0.50000000  0.36962915  1
  Se  Se1  1  0.27695555  0.00000000  0.85784400  1
  Se  Se2  1  0.23671239  0.50000000  0.36962915  1
  Se  Se3  1  0.72304445  0.00000000  0.85784400  1
  Se  Se4  1  0.50000000  0.23671239  0.63037085  1
  Se  Se5  1  0.00000000  0.72304445  0.14215600  1
  Se  Se6  1  0.50000000  0.76328761  0.63037085  1
  Se  Se7  1  0.00000000  0.27695555  0.14215600  1
  Se  Se8  1  0.22199877  0.00000000  0.38611154  1
  Se  Se9  1  0.72614011  0.50000000  0.89186726  1
  Se  Se10  1  0.77800123  0.00000000  0.38611154  1
  Se  Se11  1  0.27385989  0.50000000  0.89186726  1
  Se  Se12  1  0.50000000  0.27385989  0.10813274  1
  Se  Se13  1  0.00000000  0.77800123  0.61388846  1
  Se  Se14  1  0.50000000  0.72614011  0.10813274  1
  Se  Se15  1  0.00000000  0.22199877  0.61388846  1
loop_
_geom_bond_atom_site_label_1
_geom_bond_atom_site_label_2
_geom_bond_distance
_geom_bond_site_symmetry_2
Al0 Se6 2.421563 1_555
Al0 Se0 2.421563 1_555
Al0 Se4 2.421563 1_555
Al0 Se2 2.421563 1_555
Cr0 Se11 2.498985 1_554
Cr0 Se14 2.529669 1_555
Cr0 Se12 2.529669 1_555
Cr0 Se5 2.539574 1_555
Cr0 Se7 2.539574 1_555
Cr0 Se2 2.615076 1_555
Cr1 Se15 2.490765 1_655
Cr1 Se13 2.490765 1_645
Cr1 Se10 2.526246 1_555
Cr1 Se3 2.532761 1_555
Cr1 Se4 2.616586 1_555
Cr1 Se6 2.616586 1_545
Cr2 Se9 2.498985 1_554
Cr2 Se14 2.529669 1_555
Cr2 Se12 2.529669 1_555
Cr2 Se5 2.539574 1_655
Cr2 Se7 2.539574 1_655
Cr2 Se0 2.615076 1_555
Cr3 Se15 2.490765 1_555
Cr3 Se13 2.490765 1_545
Cr3 Se8 2.526246 1_555
Cr3 Se1 2.532761 1_555
Cr3 Se4 2.616586 1_555
Cr3 Se6 2.616586 1_545
Cr4 Se8 2.490765 1_555
Cr4 Se10 2.490765 1_455
Cr4 Se15 2.526246 1_555
Cr4 Se7 2.532761 1_555
Cr4 Se2 2.616586 1_555
Cr4 Se0 2.616586 1_455
Cr5 Se14 2.498985 1_556
Cr5 Se9 2.529669 1_555
Cr5 Se11 2.529669 1_555
Cr5 Se3 2.539574 1_565
Cr5 Se1 2.539574 1_565
Cr5 Se6 2.615076 1_555
Cr6 Se12 2.498985 1_556
Cr6 Se9 2.529669 1_555
Cr6 Se11 2.529669 1_555
Cr6 Se3 2.539574 1_555
Cr6 Se1 2.539574 1_555
Cr6 Se4 2.615076 1_555
Cr7 Se8 2.490765 1_565
Cr7 Se10 2.490765 1_465
Cr7 Se13 2.526246 1_555
Cr7 Se5 2.532761 1_555
Cr7 Se2 2.616586 1_555
Cr7 Se0 2.616586 1_455
Ag0 Se7 2.578500 1_555
Ag0 Se5 2.578500 1_545
Ag0 Se1 2.578500 1_554
Ag0 Se3 2.578500 1_454
Ag1 Se12 2.546806 1_555
Ag1 Se14 2.546806 1_545
Ag1 Se10 2.558194 1_555
Ag1 Se8 2.558194 1_555
Ag2 Se11 2.546806 1_555
Ag2 Se9 2.546806 1_455
Ag2 Se13 2.558194 1_555
Ag2 Se15 2.558194 1_555
