# generated using pymatgen
data_LiZrH6Os
_symmetry_space_group_name_H-M   'P 1'
_cell_length_a   4.70108067
_cell_length_b   4.70107755
_cell_length_c   4.70107649
_cell_angle_alpha   60.00006216
_cell_angle_beta   60.00005543
_cell_angle_gamma   60.00004476
_symmetry_Int_Tables_number   1
_chemical_formula_structural   LiZrH6Os
_chemical_formula_sum   'Li1 Zr1 H6 Os1'
_cell_volume   73.46457539
_cell_formula_units_Z   1
loop_
 _symmetry_equiv_pos_site_id
 _symmetry_equiv_pos_as_xyz
  1  'x, y, z'
loop_
 _atom_site_type_symbol
 _atom_site_label
 _atom_site_symmetry_multiplicity
 _atom_site_fract_x
 _atom_site_fract_y
 _atom_site_fract_z
 _atom_site_occupancy
  Li  Li0  1  0.75000000  0.75000100  0.74999900  1
  Zr  Zr0  1  0.24999900  0.25000100  0.25000000  1
  H  H0  1  0.74282026  0.74282026  0.25718074  1
  H  H1  1  0.74282026  0.25718074  0.25717874  1
  H  H2  1  0.25717874  0.74282126  0.25718074  1
  H  H3  1  0.25717874  0.74281926  0.74282126  1
  H  H4  1  0.25717874  0.25717974  0.74282026  1
  H  H5  1  0.74282026  0.25717874  0.74282026  1
  Os  Os0  1  0.00000000  0.00000000  0.99999900  1
loop_
_geom_bond_atom_site_label_1
_geom_bond_atom_site_label_2
_geom_bond_distance
_geom_bond_site_symmetry_2
H0 Os0 1.709817 1_664
H0 Li0 2.351016 1_555
H0 Zr0 2.351021 1_655
H0 Li0 2.351030 1_554
H0 Zr0 2.351030 1_565
H1 Os0 1.709819 1_654
H1 Zr0 2.351023 1_655
H1 Li0 2.351025 1_554
H1 Li0 2.351025 1_545
H1 Zr0 2.351027 1_555
H2 Os0 1.709820 1_564
H2 Li0 2.351019 1_455
H2 Zr0 2.351021 1_565
H2 Zr0 2.351026 1_555
H2 Li0 2.351033 1_554
H3 Os0 1.709812 1_565
H3 Zr0 2.351018 1_556
H3 Li0 2.351020 1_455
H3 Li0 2.351030 1_555
H3 Zr0 2.351032 1_565
H4 Os0 1.709813 1_555
H4 Zr0 2.351020 1_555
H4 Zr0 2.351025 1_556
H4 Li0 2.351026 1_545
H4 Li0 2.351026 1_455
H5 Os0 1.709813 1_655
H5 Li0 2.351016 1_545
H5 Zr0 2.351023 1_655
H5 Zr0 2.351028 1_556
H5 Li0 2.351030 1_555
