# generated using pymatgen
data_Mg(TaSe2)4
_symmetry_space_group_name_H-M   'P 1'
_cell_length_a   6.96597599
_cell_length_b   6.96603429
_cell_length_c   13.48031531
_cell_angle_alpha   90.00000000
_cell_angle_beta   90.00000000
_cell_angle_gamma   120.00067922
_symmetry_Int_Tables_number   1
_chemical_formula_structural   Mg(TaSe2)4
_chemical_formula_sum   'Mg2 Ta8 Se16'
_cell_volume   566.49396953
_cell_formula_units_Z   2
loop_
 _symmetry_equiv_pos_site_id
 _symmetry_equiv_pos_as_xyz
  1  'x, y, z'
loop_
 _atom_site_type_symbol
 _atom_site_label
 _atom_site_symmetry_multiplicity
 _atom_site_fract_x
 _atom_site_fract_y
 _atom_site_fract_z
 _atom_site_occupancy
  Mg  Mg0  1  0.00000000  0.00000000  0.50000000  1
  Mg  Mg1  1  0.00000000  0.00000000  0.00000000  1
  Ta  Ta0  1  0.51276831  0.48723117  0.75000000  1
  Ta  Ta1  1  0.02553151  0.51276385  0.25000000  1
  Ta  Ta2  1  0.48723612  0.97446892  0.25000000  1
  Ta  Ta3  1  0.51276388  0.02553108  0.75000000  1
  Ta  Ta4  1  0.97446849  0.48723615  0.75000000  1
  Ta  Ta5  1  0.48723169  0.51276883  0.25000000  1
  Ta  Ta6  1  0.00000723  0.99999392  0.75000000  1
  Ta  Ta7  1  0.99999277  0.00000608  0.25000000  1
  Se  Se0  1  0.83024531  0.16975456  0.37053837  1
  Se  Se1  1  0.83024064  0.66049907  0.37053348  1
  Se  Se2  1  0.33949266  0.16974586  0.37053827  1
  Se  Se3  1  0.66050734  0.83025414  0.87053827  1
  Se  Se4  1  0.16975936  0.33950093  0.62946652  1
  Se  Se5  1  0.16975469  0.83024544  0.87053837  1
  Se  Se6  1  0.16975936  0.33950093  0.87053348  1
  Se  Se7  1  0.83024531  0.16975456  0.12946163  1
  Se  Se8  1  0.33949266  0.16974586  0.12946173  1
  Se  Se9  1  0.66050734  0.83025414  0.62946173  1
  Se  Se10  1  0.33333678  0.66666401  0.11935133  1
  Se  Se11  1  0.66666322  0.33333599  0.61935133  1
  Se  Se12  1  0.66666322  0.33333599  0.88064867  1
  Se  Se13  1  0.33333678  0.66666401  0.38064867  1
  Se  Se14  1  0.83024064  0.66049907  0.12946652  1
  Se  Se15  1  0.16975469  0.83024544  0.62946163  1
loop_
_geom_bond_atom_site_label_1
_geom_bond_atom_site_label_2
_geom_bond_distance
_geom_bond_site_symmetry_2
Mg0 Se9 2.690756 1_445
Mg0 Se2 2.690756 1_555
Mg0 Se4 2.690849 1_555
Mg0 Se1 2.690849 1_445
Mg0 Se15 2.690854 1_545
Mg0 Se0 2.690854 1_455
Mg1 Se8 2.690756 1_555
Mg1 Se3 2.690756 1_444
Mg1 Se14 2.690849 1_445
Mg1 Se6 2.690849 1_554
Mg1 Se7 2.690854 1_455
Mg1 Se5 2.690854 1_544
Se0 Ta7 2.614381 1_555
Se0 Ta2 2.636203 1_545
Se0 Ta1 2.636216 1_655
Se1 Ta7 2.614382 1_565
Se1 Ta5 2.636160 1_555
Se1 Ta1 2.636264 1_655
Se2 Ta7 2.614375 1_455
Se2 Ta2 2.636274 1_545
Se2 Ta5 2.636280 1_555
Se3 Ta6 2.614375 1_655
Se3 Ta3 2.636274 1_565
Se3 Ta0 2.636280 1_555
Se4 Ta6 2.614382 1_545
Se4 Ta0 2.636160 1_555
Se4 Ta4 2.636264 1_455
Se5 Ta6 2.614381 1_555
Se5 Ta3 2.636203 1_565
Se5 Ta4 2.636216 1_455
Se6 Ta6 2.614382 1_545
Se6 Ta0 2.636160 1_555
Se6 Ta4 2.636264 1_455
Se7 Ta7 2.614381 1_555
Se7 Ta2 2.636203 1_545
Se7 Ta1 2.636216 1_655
Se8 Ta7 2.614375 1_455
Se8 Ta2 2.636274 1_545
Se8 Ta5 2.636280 1_555
Se9 Ta6 2.614375 1_655
Se9 Ta3 2.636274 1_565
Se9 Ta0 2.636280 1_555
Se10 Ta5 2.559212 1_555
Se10 Ta1 2.559259 1_555
Se10 Ta2 2.559269 1_555
Se11 Ta0 2.559212 1_555
Se11 Ta4 2.559259 1_555
Se11 Ta3 2.559269 1_555
Se12 Ta0 2.559212 1_555
Se12 Ta4 2.559259 1_555
Se12 Ta3 2.559269 1_555
Se13 Ta5 2.559212 1_555
Se13 Ta1 2.559259 1_555
Se13 Ta2 2.559269 1_555
Se14 Ta7 2.614382 1_565
Se14 Ta5 2.636160 1_555
Se14 Ta1 2.636264 1_655
Se15 Ta6 2.614381 1_555
Se15 Ta3 2.636203 1_565
Se15 Ta4 2.636216 1_455
