# generated using pymatgen
data_YSn6PdRu3
_symmetry_space_group_name_H-M   'P 1'
_cell_length_a   6.96761953
_cell_length_b   6.94483075
_cell_length_c   6.88732050
_cell_angle_alpha   119.92108729
_cell_angle_beta   120.03167476
_cell_angle_gamma   90.60808769
_symmetry_Int_Tables_number   1
_chemical_formula_structural   YSn6PdRu3
_chemical_formula_sum   'Y1 Sn6 Pd1 Ru3'
_cell_volume   234.54769093
_cell_formula_units_Z   1
loop_
 _symmetry_equiv_pos_site_id
 _symmetry_equiv_pos_as_xyz
  1  'x, y, z'
loop_
 _atom_site_type_symbol
 _atom_site_label
 _atom_site_symmetry_multiplicity
 _atom_site_fract_x
 _atom_site_fract_y
 _atom_site_fract_z
 _atom_site_occupancy
  Y  Y0  1  0.98983920  0.01879442  0.00000000  1
  Sn  Sn0  1  0.86797992  0.53743134  0.00000000  1
  Sn  Sn1  1  0.54046523  0.87325453  1.00000000  1
  Sn  Sn2  1  0.12966312  0.11154816  0.65283318  1
  Sn  Sn3  1  0.00530265  0.50522407  0.49672150  1
  Sn  Sn4  1  0.47682995  0.45871498  0.34716682  1
  Sn  Sn5  1  0.50858115  0.00850257  0.50327850  1
  Pd  Pd0  1  0.23470408  0.59933282  0.00000000  1
  Ru  Ru0  1  0.39508792  0.39873014  0.64823700  1
  Ru  Ru1  1  0.60469786  0.23797381  1.00000000  1
  Ru  Ru2  1  0.74685092  0.75049315  0.35176300  1
loop_
_geom_bond_atom_site_label_1
_geom_bond_atom_site_label_2
_geom_bond_distance
_geom_bond_site_symmetry_2
Sn0 Y0 3.440381 1_565
Sn0 Y0 3.709329 1_555
Sn1 Y0 3.279942 1_566
Sn2 Y0 3.306978 1_456
Sn2 Y0 3.780632 1_455
Sn3 Y0 3.349828 1_455
Sn3 Y0 3.577160 1_466
Sn4 Y0 3.306978 1_455
Sn4 Y0 3.780632 1_566
Sn5 Y0 3.349828 1_556
Sn5 Y0 3.577160 1_455
Pd0 Sn0 2.586602 1_455
Pd0 Sn5 2.677485 1_565
Pd0 Sn3 2.677485 1_554
Pd0 Sn2 2.800654 1_554
Pd0 Sn4 2.800654 1_555
Pd0 Sn1 2.841055 1_554
Pd0 Ru0 2.904310 1_554
Pd0 Ru2 2.904310 1_555
Pd0 Y0 3.391526 1_465
Ru0 Sn4 2.614660 1_555
Ru0 Sn3 2.643421 1_555
Ru0 Sn5 2.665158 1_555
Ru0 Sn1 2.695108 1_555
Ru0 Sn0 2.695953 1_556
Ru0 Sn2 2.728049 1_555
Ru0 Y0 3.215434 1_455
Ru1 Sn1 2.567468 1_545
Ru1 Sn5 2.633830 1_555
Ru1 Sn3 2.633831 1_656
Ru1 Sn4 2.713954 1_556
Ru1 Sn2 2.713954 1_555
Ru1 Sn0 2.758496 1_556
Ru1 Y0 3.099186 1_556
Ru2 Sn2 2.614661 1_665
Ru2 Sn5 2.643421 1_565
Ru2 Sn3 2.665158 1_655
Ru2 Sn1 2.695108 1_554
Ru2 Sn0 2.695953 1_555
Ru2 Sn4 2.728049 1_555
Ru2 Y0 3.215434 1_566
