# generated using pymatgen
data_Cs2ReH9
_symmetry_space_group_name_H-M   'P 1'
_cell_length_a   10.44143600
_cell_length_b   10.44143532
_cell_length_c   6.05372698
_cell_angle_alpha   90.00000000
_cell_angle_beta   90.00000000
_cell_angle_gamma   120.00000839
_symmetry_Int_Tables_number   1
_chemical_formula_structural   Cs2ReH9
_chemical_formula_sum   'Cs6 Re3 H27'
_cell_volume   571.57583440
_cell_formula_units_Z   3
loop_
 _symmetry_equiv_pos_site_id
 _symmetry_equiv_pos_as_xyz
  1  'x, y, z'
loop_
 _atom_site_type_symbol
 _atom_site_label
 _atom_site_symmetry_multiplicity
 _atom_site_fract_x
 _atom_site_fract_y
 _atom_site_fract_z
 _atom_site_occupancy
  Cs  Cs0  1  1.00000000  0.26117738  0.50000000  1
  Cs  Cs1  1  0.73882262  0.73882262  0.50000000  1
  Cs  Cs2  1  0.26117738  1.00000000  0.50000000  1
  Cs  Cs3  1  0.00000000  0.59037446  0.00000000  1
  Cs  Cs4  1  0.40962554  0.40962554  0.00000000  1
  Cs  Cs5  1  0.59037446  0.00000000  0.00000000  1
  Re  Re0  1  0.66666700  0.33333300  0.50000000  1
  Re  Re1  1  0.33333300  0.66666700  0.50000000  1
  Re  Re2  1  0.00000000  0.00000000  0.00000000  1
  H  H0  1  0.76659943  0.30932463  0.70172149  1
  H  H1  1  0.69067537  0.45727380  0.70172149  1
  H  H2  1  0.54272620  0.23340057  0.70172149  1
  H  H3  1  0.23340057  0.54272620  0.29827851  1
  H  H4  1  0.54272620  0.23340057  0.29827851  1
  H  H5  1  0.76659943  0.30932463  0.29827851  1
  H  H6  1  0.69067537  0.45727380  0.29827851  1
  H  H7  1  0.30932463  0.76659943  0.70172149  1
  H  H8  1  0.45727380  0.69067537  0.70172149  1
  H  H9  1  0.16057254  1.00000000  0.00000000  1
  H  H10  1  0.83942746  0.83942746  0.00000000  1
  H  H11  1  1.00000000  0.16057254  0.00000000  1
  H  H12  1  0.88422080  0.00000000  0.19707326  1
  H  H13  1  0.11577920  0.11577920  0.80292674  1
  H  H14  1  0.00000000  0.88422080  0.80292674  1
  H  H15  1  0.00000000  0.88422080  0.19707326  1
  H  H16  1  0.11577920  0.11577920  0.19707326  1
  H  H17  1  0.88422080  0.00000000  0.80292674  1
  H  H18  1  0.15867593  0.63313486  0.50000000  1
  H  H19  1  0.47445894  0.84132407  0.50000000  1
  H  H20  1  0.36686514  0.52554106  0.50000000  1
  H  H21  1  0.52554106  0.36686514  0.50000000  1
  H  H22  1  0.84132407  0.47445894  0.50000000  1
  H  H23  1  0.63313486  0.15867593  0.50000000  1
  H  H24  1  0.23340057  0.54272620  0.70172149  1
  H  H25  1  0.30932463  0.76659943  0.29827851  1
  H  H26  1  0.45727380  0.69067537  0.29827851  1
loop_
_geom_bond_atom_site_label_1
_geom_bond_atom_site_label_2
_geom_bond_distance
_geom_bond_site_symmetry_2
Cs0 H0 2.984677 1_555
Cs0 H5 2.984677 1_555
Cs0 H24 2.984682 1_655
Cs0 H3 2.984682 1_655
Cs0 H17 2.994083 1_555
Cs0 H12 2.994083 1_555
Cs0 H13 2.994083 1_655
Cs0 H16 2.994083 1_655
Cs0 H11 3.203961 1_556
Cs0 H11 3.203961 1_555
Cs1 H1 2.984686 1_555
Cs1 H6 2.984686 1_555
Cs1 H8 2.984686 1_555
Cs1 H26 2.984686 1_555
Cs1 H17 2.994083 1_565
Cs1 H12 2.994083 1_565
Cs1 H14 2.994083 1_655
Cs1 H15 2.994083 1_655
Cs1 H10 3.203961 1_555
Cs1 H10 3.203961 1_556
Cs2 H7 2.984677 1_555
Cs2 H25 2.984677 1_555
Cs2 H2 2.984682 1_565
Cs2 H4 2.984682 1_565
Cs2 H14 2.994083 1_555
Cs2 H15 2.994083 1_555
Cs2 H13 2.994083 1_565
Cs2 H16 2.994083 1_565
Cs2 H9 3.203961 1_555
Cs2 H9 3.203961 1_556
Cs3 H3 3.264916 1_555
Cs3 H24 3.264916 1_554
Cs3 H5 3.264921 1_455
Cs3 H0 3.264921 1_454
Cs3 H15 3.291964 1_555
Cs3 H14 3.291964 1_554
Cs3 H6 3.336900 1_455
Cs3 H1 3.336900 1_454
Cs3 H25 3.336900 1_555
Cs3 H7 3.336900 1_554
Cs3 H22 3.371427 1_455
Cs3 H22 3.371427 1_454
Cs3 H18 3.371427 1_554
Cs3 H18 3.371427 1_555
Cs4 H26 3.264925 1_555
Cs4 H8 3.264925 1_554
Cs4 H6 3.264925 1_555
Cs4 H1 3.264925 1_554
Cs4 H16 3.291964 1_555
Cs4 H13 3.291964 1_554
Cs4 H4 3.336908 1_555
Cs4 H2 3.336908 1_554
Cs4 H3 3.336908 1_555
Cs4 H24 3.336908 1_554
Cs4 H20 3.371427 1_554
Cs4 H20 3.371427 1_555
Cs4 H21 3.371427 1_555
Cs4 H21 3.371427 1_554
Cs5 H4 3.264916 1_555
Cs5 H2 3.264916 1_554
Cs5 H25 3.264921 1_545
Cs5 H7 3.264921 1_544
Cs5 H12 3.291964 1_555
Cs5 H17 3.291964 1_554
Cs5 H26 3.336899 1_545
Cs5 H8 3.336899 1_544
Cs5 H5 3.336900 1_555
Cs5 H0 3.336900 1_554
Cs5 H19 3.371427 1_544
Cs5 H19 3.371427 1_545
Cs5 H23 3.371427 1_554
Cs5 H23 3.371427 1_555
H0 Re0 1.704237 1_555
H1 Re0 1.704237 1_555
H2 Re0 1.704237 1_555
H3 Re1 1.704237 1_555
H4 Re0 1.704237 1_555
H5 Re0 1.704237 1_555
H6 Re0 1.704237 1_555
H7 Re1 1.704237 1_555
H8 Re1 1.704237 1_555
H9 Re2 1.676608 1_565
H10 Re2 1.676608 1_665
H11 Re2 1.676608 1_655
H12 Re2 1.698457 1_655
H13 Re2 1.698457 1_556
H14 Re2 1.698457 1_566
H15 Re2 1.698457 1_565
H16 Re2 1.698457 1_555
H17 Re2 1.698457 1_656
H18 Re1 1.676261 1_555
H19 Re1 1.676264 1_555
H20 Re1 1.676271 1_555
H21 Re0 1.676271 1_555
H22 Re0 1.676264 1_555
H23 Re0 1.676261 1_555
H24 Re1 1.704237 1_555
H25 Re1 1.704237 1_555
H26 Re1 1.704237 1_555
