# generated using pymatgen
data_Ta2Nb2VSi3
_symmetry_space_group_name_H-M   'P 1'
_cell_length_a   7.50000117
_cell_length_b   7.50000107
_cell_length_c   7.50000107
_cell_angle_alpha   129.30412631
_cell_angle_beta   129.30412555
_cell_angle_gamma   74.52170976
_symmetry_Int_Tables_number   1
_chemical_formula_structural   Ta2Nb2VSi3
_chemical_formula_sum   'Ta4 Nb4 V2 Si6'
_cell_volume   246.15840189
_cell_formula_units_Z   2
loop_
 _symmetry_equiv_pos_site_id
 _symmetry_equiv_pos_as_xyz
  1  'x, y, z'
loop_
 _atom_site_type_symbol
 _atom_site_label
 _atom_site_symmetry_multiplicity
 _atom_site_fract_x
 _atom_site_fract_y
 _atom_site_fract_z
 _atom_site_occupancy
  Ta  Ta0  1  0.98251895  0.48251895  0.16801917  1
  Ta  Ta1  1  0.31449978  0.81449978  0.83198083  1
  Ta  Ta2  1  0.48251895  0.31449978  0.50000000  1
  Ta  Ta3  1  0.81449978  0.98251895  0.50000000  1
  Nb  Nb0  1  0.01763496  0.51763496  0.83355820  1
  Nb  Nb1  1  0.68407676  0.18407676  0.16644180  1
  Nb  Nb2  1  0.51763496  0.68407676  0.50000000  1
  Nb  Nb3  1  0.18407676  0.01763496  0.50000000  1
  V  V0  1  0.00324759  0.00324759  1.00000000  1
  V  V1  1  0.50324759  0.50324759  1.00000000  1
  Si  Si0  1  0.74848114  0.74848114  0.00000000  1
  Si  Si1  1  0.24848114  0.24848114  0.00000000  1
  Si  Si2  1  0.63200791  0.13200791  0.76447500  1
  Si  Si3  1  0.36753192  0.86753192  0.23552500  1
  Si  Si4  1  0.13200791  0.36753192  0.50000000  1
  Si  Si5  1  0.86753192  0.63200791  0.50000000  1
loop_
_geom_bond_atom_site_label_1
_geom_bond_atom_site_label_2
_geom_bond_distance
_geom_bond_site_symmetry_2
Nb0 Si3 2.547957 1_556
Nb0 Si4 2.626192 1_555
Nb0 Si5 2.626192 1_455
Nb0 Si1 2.686957 1_556
Nb0 Si0 2.686957 1_456
Nb1 Si2 2.547965 1_554
Nb1 Si5 2.626192 1_555
Nb1 Si4 2.626193 1_655
Nb1 Si0 2.686957 1_545
Nb1 Si1 2.686957 1_555
Nb2 Si5 2.547958 1_555
Nb2 Si3 2.626186 1_555
Nb2 Si2 2.626194 1_565
Nb2 Si0 2.686957 1_556
Nb2 Si1 2.686957 1_555
Nb3 Si4 2.547958 1_555
Nb3 Si3 2.626186 1_545
Nb3 Si2 2.626194 1_555
Nb3 Si1 2.686957 1_556
Nb3 Si0 2.686957 1_445
Si0 Ta0 2.676064 1_555
Si0 Ta3 2.676064 1_555
Si0 Ta1 2.676064 1_554
Si0 Ta2 2.676064 1_554
Si0 V1 2.927674 1_554
Si0 V0 3.041481 1_664
Si1 Ta0 2.676064 1_455
Si1 Ta1 2.676064 1_544
Si1 Ta2 2.676064 1_555
Si1 Ta3 2.676064 1_444
Si1 V0 2.927674 1_554
Si1 V1 3.041481 1_554
Si2 Si3 2.401876 1_545
Si2 V1 2.510042 1_555
Si2 V0 2.510042 1_655
Si2 Ta0 2.551642 1_556
Si2 Ta3 2.620649 1_545
Si2 Ta2 2.620649 1_555
Si3 V1 2.510042 1_554
Si3 V0 2.510042 1_564
Si3 Ta1 2.551650 1_554
Si3 Ta2 2.620657 1_565
Si3 Ta3 2.620657 1_555
Si4 Si5 2.401885 1_455
Si4 V0 2.510040 1_554
Si4 V1 2.510040 1_555
Si4 Ta2 2.551642 1_555
Si4 Ta0 2.620655 1_455
Si4 Ta1 2.620655 1_555
Si5 V0 2.510040 1_665
Si5 V1 2.510040 1_554
Si5 Ta3 2.551642 1_555
Si5 Ta0 2.620655 1_555
Si5 Ta1 2.620655 1_655
