# generated using pymatgen
data_Hf4NbSn3As
_symmetry_space_group_name_H-M   'P 1'
_cell_length_a   8.50608651
_cell_length_b   8.50608612
_cell_length_c   5.81563951
_cell_angle_alpha   90.00000000
_cell_angle_beta   90.00000000
_cell_angle_gamma   119.99999387
_symmetry_Int_Tables_number   1
_chemical_formula_structural   Hf4NbSn3As
_chemical_formula_sum   'Hf8 Nb2 Sn6 As2'
_cell_volume   364.40783619
_cell_formula_units_Z   2
loop_
 _symmetry_equiv_pos_site_id
 _symmetry_equiv_pos_as_xyz
  1  'x, y, z'
loop_
 _atom_site_type_symbol
 _atom_site_label
 _atom_site_symmetry_multiplicity
 _atom_site_fract_x
 _atom_site_fract_y
 _atom_site_fract_z
 _atom_site_occupancy
  Hf  Hf0  1  0.66666700  0.33333300  0.00000000  1
  Hf  Hf1  1  0.33333300  0.66666700  0.50000000  1
  Hf  Hf2  1  0.26378991  0.00000000  0.25000000  1
  Hf  Hf3  1  0.26378991  0.26378991  0.75000000  1
  Hf  Hf4  1  1.00000000  0.73621009  0.75000000  1
  Hf  Hf5  1  0.00000000  0.26378991  0.25000000  1
  Hf  Hf6  1  0.73621009  0.73621009  0.25000000  1
  Hf  Hf7  1  0.73621009  1.00000000  0.75000000  1
  Nb  Nb0  1  0.33333300  0.66666700  0.00000000  1
  Nb  Nb1  1  0.66666700  0.33333300  0.50000000  1
  Sn  Sn0  1  0.60405357  0.00000000  0.25000000  1
  Sn  Sn1  1  0.60405357  0.60405357  0.75000000  1
  Sn  Sn2  1  1.00000000  0.39594643  0.75000000  1
  Sn  Sn3  1  0.00000000  0.60405357  0.25000000  1
  Sn  Sn4  1  0.39594643  0.39594643  0.25000000  1
  Sn  Sn5  1  0.39594643  1.00000000  0.75000000  1
  As  As0  1  0.00000000  0.00000000  0.00000000  1
  As  As1  1  0.00000000  0.00000000  0.50000000  1
loop_
_geom_bond_atom_site_label_1
_geom_bond_atom_site_label_2
_geom_bond_distance
_geom_bond_site_symmetry_2
Hf0 Nb1 2.907820 1_555
Hf0 Nb1 2.907820 1_554
Hf0 Sn0 2.987754 1_555
Hf0 Sn2 2.987754 1_554
Hf0 Sn5 2.987757 1_544
Hf0 Sn3 2.987757 1_655
Hf0 Sn1 2.987761 1_554
Hf0 Sn4 2.987761 1_555
Hf1 Nb0 2.907820 1_556
Hf1 Nb0 2.907820 1_555
Hf1 Sn5 2.987754 1_555
Hf1 Sn3 2.987754 1_555
Hf1 Sn0 2.987757 1_565
Hf1 Sn2 2.987757 1_455
Hf1 Sn4 2.987761 1_555
Hf1 Sn1 2.987761 1_555
Hf2 Sn0 2.894312 1_555
Hf2 Sn4 2.969977 1_555
Hf2 Sn3 2.969977 1_545
Hf2 Sn5 3.117546 1_544
Hf2 Sn5 3.117546 1_545
Hf3 Sn1 2.894312 1_555
Hf3 Sn5 2.969977 1_545
Hf3 Sn2 2.969977 1_455
Hf3 Sn4 3.117546 1_556
Hf3 Sn4 3.117546 1_555
Hf4 Sn2 2.894312 1_555
Hf4 Sn1 2.969977 1_555
Hf4 Sn5 2.969977 1_655
Hf4 Sn3 3.117546 1_656
Hf4 Sn3 3.117546 1_655
Hf5 Sn3 2.894312 1_555
Hf5 Sn4 2.969977 1_555
Hf5 Sn0 2.969977 1_455
Hf5 Sn2 3.117546 1_454
Hf5 Sn2 3.117546 1_455
Hf6 Sn4 2.894312 1_555
Hf6 Sn0 2.969977 1_565
Hf6 Sn3 2.969977 1_655
Hf6 Sn1 3.117546 1_555
Hf6 Sn1 3.117546 1_554
Hf7 Sn5 2.894312 1_555
Hf7 Sn1 2.969977 1_555
Hf7 Sn2 2.969977 1_565
Hf7 Sn0 3.117546 1_566
Hf7 Sn0 3.117546 1_565
Nb0 Sn5 2.987754 1_554
Nb0 Sn3 2.987754 1_555
Nb0 Sn0 2.987757 1_565
Nb0 Sn2 2.987757 1_454
Nb0 Sn4 2.987761 1_555
Nb0 Sn1 2.987761 1_554
Nb1 Sn0 2.987754 1_555
Nb1 Sn2 2.987754 1_555
Nb1 Sn5 2.987757 1_545
Nb1 Sn3 2.987757 1_655
Nb1 Sn1 2.987761 1_555
Nb1 Sn4 2.987761 1_555
As0 Hf5 2.673683 1_555
As0 Hf4 2.673683 1_444
As0 Hf2 2.673683 1_555
As0 Hf7 2.673683 1_444
As0 Hf3 2.673683 1_554
As0 Hf6 2.673683 1_445
As1 Hf5 2.673683 1_555
As1 Hf4 2.673683 1_445
As1 Hf2 2.673683 1_555
As1 Hf7 2.673683 1_445
As1 Hf3 2.673683 1_555
As1 Hf6 2.673683 1_445
