# generated using pymatgen
data_Mn(NbS2)4
_symmetry_space_group_name_H-M   'P 1'
_cell_length_a   6.73513155
_cell_length_b   6.73513233
_cell_length_c   12.48918814
_cell_angle_alpha   90.00006016
_cell_angle_beta   89.99990714
_cell_angle_gamma   119.99981395
_symmetry_Int_Tables_number   1
_chemical_formula_structural   Mn(NbS2)4
_chemical_formula_sum   'Mn2 Nb8 S16'
_cell_volume   490.63425861
_cell_formula_units_Z   2
loop_
 _symmetry_equiv_pos_site_id
 _symmetry_equiv_pos_as_xyz
  1  'x, y, z'
loop_
 _atom_site_type_symbol
 _atom_site_label
 _atom_site_symmetry_multiplicity
 _atom_site_fract_x
 _atom_site_fract_y
 _atom_site_fract_z
 _atom_site_occupancy
  Mn  Mn0  1  0.00000005  -0.00000014  -0.00000222  1
  Mn  Mn1  1  -0.00000023  0.00000004  0.50000106  1
  Nb  Nb0  1  0.98620718  0.49310504  0.24994358  1
  Nb  Nb1  1  0.01379332  0.50689482  0.75006164  1
  Nb  Nb2  1  0.49310456  0.50689597  0.75006165  1
  Nb  Nb3  1  0.50689447  0.01379358  0.24994365  1
  Nb  Nb4  1  0.00000062  -0.00000103  0.75002612  1
  Nb  Nb5  1  -0.00000077  0.00000126  0.24997304  1
  Nb  Nb6  1  0.50689580  0.49310578  0.24994404  1
  Nb  Nb7  1  0.49310356  0.98620604  0.75006168  1
  S  S0  1  0.33333332  0.66666610  0.62140443  1
  S  S1  1  0.66666641  0.33333381  0.12130230  1
  S  S2  1  0.66666663  0.33333440  0.37861687  1
  S  S3  1  0.33333341  0.66666628  0.87868513  1
  S  S4  1  0.16802513  0.33605269  0.37438143  1
  S  S5  1  0.83196146  0.16803884  0.87441436  1
  S  S6  1  0.33607825  0.16803816  0.87441419  1
  S  S7  1  0.66394778  0.83197491  0.37438149  1
  S  S8  1  0.16802586  0.83197500  0.37438160  1
  S  S9  1  0.83196119  0.66392160  0.87441420  1
  S  S10  1  0.16803598  0.33607325  0.12556599  1
  S  S11  1  0.83196530  0.16803468  0.62563023  1
  S  S12  1  0.33607010  0.16803404  0.62563032  1
  S  S13  1  0.66392700  0.83196402  0.12556609  1
  S  S14  1  0.16803661  0.83196438  0.12556581  1
  S  S15  1  0.83196501  0.66392947  0.62563033  1
loop_
_geom_bond_atom_site_label_1
_geom_bond_atom_site_label_2
_geom_bond_distance
_geom_bond_site_symmetry_2
Mn0 S14 2.510364 1_545
Mn0 S13 2.510371 1_445
Mn0 S10 2.510373 1_555
Mn0 S5 2.510509 1_454
Mn0 S6 2.510514 1_554
Mn0 S9 2.510516 1_444
Mn1 S8 2.510666 1_545
Mn1 S7 2.510679 1_445
Mn1 S4 2.510681 1_555
Mn1 S11 2.510824 1_455
Mn1 S12 2.510838 1_555
Mn1 S15 2.510838 1_445
Nb0 S1 2.460706 1_555
Nb0 S2 2.460963 1_555
Nb0 S10 2.515254 1_655
Nb0 S14 2.515256 1_655
Nb0 S4 2.515763 1_655
Nb0 S8 2.515766 1_655
Nb1 S3 2.460558 1_555
Nb1 S0 2.460829 1_555
Nb1 S5 2.515049 1_455
Nb1 S9 2.515054 1_455
Nb1 S11 2.515673 1_455
Nb1 S15 2.515682 1_455
Nb2 S3 2.460557 1_555
Nb2 S0 2.460835 1_555
Nb2 S9 2.515051 1_555
Nb2 S6 2.515055 1_555
Nb2 S15 2.515671 1_555
Nb2 S12 2.515680 1_555
Nb3 S1 2.460703 1_555
Nb3 S2 2.460965 1_555
Nb3 S14 2.515251 1_545
Nb3 S13 2.515260 1_545
Nb3 S8 2.515758 1_545
Nb3 S7 2.515771 1_545
Nb4 S9 2.501211 1_445
Nb4 S6 2.501214 1_555
Nb4 S5 2.501214 1_455
Nb4 S12 2.501233 1_555
Nb4 S15 2.501235 1_445
Nb4 S11 2.501240 1_455
Nb5 S7 2.501249 1_445
Nb5 S4 2.501250 1_555
Nb5 S8 2.501255 1_545
Nb5 S10 2.501334 1_555
Nb5 S13 2.501335 1_445
Nb5 S14 2.501339 1_545
Nb6 S1 2.460711 1_555
Nb6 S2 2.460966 1_555
Nb6 S13 2.515252 1_555
Nb6 S10 2.515261 1_555
Nb6 S7 2.515757 1_555
Nb6 S4 2.515762 1_555
Nb7 S3 2.460555 1_555
Nb7 S0 2.460831 1_555
Nb7 S6 2.515047 1_565
Nb7 S5 2.515058 1_565
Nb7 S12 2.515676 1_565
Nb7 S11 2.515679 1_565
