# generated using pymatgen
data_Cs3Na(SiP)12
_symmetry_space_group_name_H-M   'P 1'
_cell_length_a   3.54860131
_cell_length_b   9.87410763
_cell_length_c   19.99281236
_cell_angle_alpha   87.52755563
_cell_angle_beta   90.00000000
_cell_angle_gamma   90.00000000
_symmetry_Int_Tables_number   1
_chemical_formula_structural   Cs3Na(SiP)12
_chemical_formula_sum   'Cs3 Na1 Si12 P12'
_cell_volume   699.88143798
_cell_formula_units_Z   1
loop_
 _symmetry_equiv_pos_site_id
 _symmetry_equiv_pos_as_xyz
  1  'x, y, z'
loop_
 _atom_site_type_symbol
 _atom_site_label
 _atom_site_symmetry_multiplicity
 _atom_site_fract_x
 _atom_site_fract_y
 _atom_site_fract_z
 _atom_site_occupancy
  Cs  Cs0  1  0.00000000  0.31867818  0.29827763  1
  Cs  Cs1  1  0.00000000  0.71487114  0.68887505  1
  Cs  Cs2  1  0.00000000  0.20436022  0.81147651  1
  Na  Na0  1  0.00000000  0.82505344  0.20360111  1
  Si  Si0  1  0.50000000  0.38029790  0.04407818  1
  Si  Si1  1  0.50000000  0.57811024  0.97599649  1
  Si  Si2  1  0.50000000  0.10594725  0.52829782  1
  Si  Si3  1  0.50000000  0.92373024  0.45735925  1
  Si  Si4  1  0.00000000  0.09101877  0.02134019  1
  Si  Si5  1  0.00000000  0.86462092  0.99338580  1
  Si  Si6  1  0.00000000  0.39979374  0.50679883  1
  Si  Si7  1  0.00000000  0.62986760  0.47341316  1
  Si  Si8  1  0.00000000  0.14346928  0.13398085  1
  Si  Si9  1  0.00000000  0.80778985  0.88073405  1
  Si  Si10  1  0.00000000  0.32736155  0.62026025  1
  Si  Si11  1  0.00000000  0.71227666  0.36081165  1
  P  P0  1  0.50000000  0.07526023  0.19379717  1
  P  P1  1  0.50000000  0.87771955  0.82214578  1
  P  P2  1  0.50000000  0.38923172  0.67802041  1
  P  P3  1  0.50000000  0.65483339  0.30078518  1
  P  P4  1  0.50000000  0.29758123  0.45902555  1
  P  P5  1  0.50000000  0.72805685  0.52352568  1
  P  P6  1  0.50000000  0.20199132  0.97385333  1
  P  P7  1  0.50000000  0.75957604  0.04486934  1
  P  P8  1  0.00000000  0.37584479  0.11437333  1
  P  P9  1  0.00000000  0.57634959  0.90513925  1
  P  P10  1  0.00000000  0.09773157  0.59899443  1
  P  P11  1  0.00000000  0.93857177  0.38678572  1
loop_
_geom_bond_atom_site_label_1
_geom_bond_atom_site_label_2
_geom_bond_distance
_geom_bond_site_symmetry_2
Cs0 P4 3.669101 1_455
Cs0 P4 3.669101 1_555
Cs0 P8 3.695695 1_555
Cs0 P0 3.704271 1_455
Cs0 P0 3.704271 1_555
Cs0 P3 3.765942 1_555
Cs0 P3 3.765942 1_455
Cs0 P11 4.079805 1_545
Cs1 P1 3.633556 1_555
Cs1 P1 3.633556 1_455
Cs1 P2 3.687035 1_455
Cs1 P2 3.687035 1_555
Cs1 P5 3.749169 1_555
Cs1 P5 3.749169 1_455
Cs1 P10 4.115148 1_565
Cs2 P2 3.630323 1_455
Cs2 P2 3.630323 1_555
Cs2 P1 3.679232 1_445
Cs2 P1 3.679232 1_545
Cs2 P6 3.698791 1_455
Cs2 P6 3.698791 1_555
Na0 P0 3.041133 1_565
Na0 P0 3.041133 1_465
Na0 P3 3.076777 1_455
Na0 P3 3.076777 1_555
Si0 Si1 2.332039 1_554
Si2 Si3 2.338559 1_545
Si4 Si5 2.327553 1_544
Si4 Si8 2.332460 1_555
Si5 Si9 2.344452 1_555
Si6 Si7 2.340011 1_555
Si10 Si6 2.348880 1_555
Si11 Si7 2.360525 1_555
P0 Si8 2.227651 1_655
P0 Si8 2.227651 1_555
P1 Si9 2.219727 1_655
P1 Si9 2.219727 1_555
P2 Si10 2.217151 1_555
P2 Si10 2.217151 1_655
P3 Si11 2.229086 1_655
P3 Si11 2.229086 1_555
P4 Si6 2.272041 1_655
P4 Si6 2.272041 1_555
P4 Si2 2.296183 1_555
P5 Si7 2.275022 1_655
P5 Si7 2.275022 1_555
P5 Si3 2.294000 1_555
P6 Si4 2.271656 1_656
P6 Si4 2.271656 1_556
P6 Si0 2.298748 1_556
P7 Si5 2.278448 1_554
P7 Si5 2.278448 1_654
P7 Si1 2.306401 1_554
P8 Si0 2.262717 1_555
P8 Si0 2.262717 1_455
P8 Si8 2.311017 1_555
P9 Si1 2.270997 1_555
P9 Si1 2.270997 1_455
P9 Si9 2.316098 1_555
P10 Si2 2.267730 1_555
P10 Si2 2.267730 1_455
P10 Si10 2.324865 1_555
P11 Si3 2.267729 1_555
P11 Si3 2.267729 1_455
P11 Si11 2.315729 1_555
