# generated using pymatgen
data_Zn3InP7N12
_symmetry_space_group_name_H-M   'P 1'
_cell_length_a   7.13510269
_cell_length_b   7.14791408
_cell_length_c   7.13510347
_cell_angle_alpha   109.50760073
_cell_angle_beta   109.43482783
_cell_angle_gamma   109.50759333
_symmetry_Int_Tables_number   1
_chemical_formula_structural   Zn3InP7N12
_chemical_formula_sum   'Zn3 In1 P7 N12'
_cell_volume   280.00302726
_cell_formula_units_Z   1
loop_
 _symmetry_equiv_pos_site_id
 _symmetry_equiv_pos_as_xyz
  1  'x, y, z'
loop_
 _atom_site_type_symbol
 _atom_site_label
 _atom_site_symmetry_multiplicity
 _atom_site_fract_x
 _atom_site_fract_y
 _atom_site_fract_z
 _atom_site_occupancy
  Zn  Zn0  1  0.66669012  0.66875511  0.66669012  1
  Zn  Zn1  1  0.33330988  0.00206499  0.00000000  1
  Zn  Zn2  1  0.00000000  0.00206499  0.33330988  1
  In  In0  1  1.00000000  0.30810614  0.00000000  1
  P  P0  1  0.74889768  0.25223880  0.49692495  1
  P  P1  1  0.25197272  0.75531285  0.50307505  1
  P  P2  1  0.50307505  0.75531285  0.25197272  1
  P  P3  1  0.49692495  0.25223880  0.74889768  1
  P  P4  1  0.74802728  0.50334013  0.25110232  1
  P  P5  1  0.25110232  0.50334013  0.74802728  1
  P  P6  1  1.00000000  0.96919287  0.00000000  1
  N  N0  1  0.55788284  0.27516419  0.00000000  1
  N  N1  1  0.44290151  0.44527372  0.71462874  1
  N  N2  1  0.00000000  0.27516419  0.55788284  1
  N  N3  1  0.27172723  0.00237222  0.55709849  1
  N  N4  1  0.71462874  0.44527372  0.44290151  1
  N  N5  1  0.00000000  0.56003625  0.27626500  1
  N  N6  1  0.55709849  0.00237222  0.27172723  1
  N  N7  1  0.44211716  0.71728135  0.44211716  1
  N  N8  1  0.27626500  0.56003625  0.00000000  1
  N  N9  1  0.72373500  0.28377125  0.72373500  1
  N  N10  1  0.72827277  0.73064498  0.28537126  1
  N  N11  1  0.28537126  0.73064498  0.72827277  1
loop_
_geom_bond_atom_site_label_1
_geom_bond_atom_site_label_2
_geom_bond_distance
_geom_bond_site_symmetry_2
In0 N9 2.181205 1_554
In0 N5 2.181205 1_655
In0 N8 2.181205 1_655
In0 P6 2.422523 1_545
P6 Zn0 2.310377 1_554
P6 Zn1 2.310378 1_665
P6 Zn2 2.310378 1_665
N0 P4 1.632097 1_555
N0 P3 1.632100 1_554
N0 Zn1 2.071026 1_555
N1 P3 1.621733 1_555
N1 P5 1.622400 1_555
N1 Zn0 2.059914 1_555
N2 P5 1.632097 1_555
N2 P0 1.632100 1_455
N2 Zn2 2.071026 1_555
N3 P1 1.621740 1_545
N3 P3 1.622403 1_555
N3 Zn2 2.059914 1_555
N4 P0 1.621734 1_555
N4 P4 1.622400 1_555
N4 Zn0 2.059914 1_555
N5 P1 1.636686 1_555
N5 P4 1.636686 1_455
N6 P2 1.621741 1_545
N6 P0 1.622403 1_555
N6 Zn1 2.059914 1_555
N7 P1 1.632098 1_555
N7 P2 1.632098 1_555
N7 Zn0 2.071026 1_555
N8 P2 1.636686 1_555
N8 P5 1.636686 1_554
N9 P3 1.636687 1_555
N9 P0 1.636687 1_555
N10 P4 1.621740 1_555
N10 P2 1.622400 1_555
N10 Zn2 2.059914 1_665
N11 P5 1.621741 1_555
N11 P1 1.622400 1_555
N11 Zn1 2.059914 1_566
