# generated using pymatgen
data_BaCrAs2Ir
_symmetry_space_group_name_H-M   'P 1'
_cell_length_a   7.19468193
_cell_length_b   7.19468206
_cell_length_c   7.19468222
_cell_angle_alpha   147.17316595
_cell_angle_beta   147.17316875
_cell_angle_gamma   47.10745232
_symmetry_Int_Tables_number   1
_chemical_formula_structural   BaCrAs2Ir
_chemical_formula_sum   'Ba1 Cr1 As2 Ir1'
_cell_volume   109.03234613
_cell_formula_units_Z   1
loop_
 _symmetry_equiv_pos_site_id
 _symmetry_equiv_pos_as_xyz
  1  'x, y, z'
loop_
 _atom_site_type_symbol
 _atom_site_label
 _atom_site_symmetry_multiplicity
 _atom_site_fract_x
 _atom_site_fract_y
 _atom_site_fract_z
 _atom_site_occupancy
  Ba  Ba0  1  0.00000000  0.00000000  0.00000000  1
  Cr  Cr0  1  0.25000000  0.75000000  0.50000000  1
  As  As0  1  0.35702021  0.35702021  1.00000000  1
  As  As1  1  0.64297979  0.64297979  0.00000000  1
  Ir  Ir0  1  0.75000000  0.25000000  0.50000000  1
loop_
_geom_bond_atom_site_label_1
_geom_bond_atom_site_label_2
_geom_bond_distance
_geom_bond_site_symmetry_2
Cr0 Ir0 2.875058 1_454
Cr0 Ir0 2.875058 1_566
Cr0 Ir0 2.875058 1_555
Cr0 Ir0 2.875058 1_465
As0 Ir0 2.475024 1_455
As0 Cr0 2.475024 1_545
As0 Ir0 2.475024 1_556
As0 Cr0 2.475024 1_556
As0 Ba0 3.438440 1_667
As0 Ba0 3.438441 1_555
As0 Ba0 3.438441 1_656
As0 Ba0 3.438441 1_566
As1 Cr0 2.475024 1_655
As1 Ir0 2.475024 1_565
As1 Cr0 2.475024 1_554
As1 Ir0 2.475024 1_554
As1 Ba0 3.438440 1_554
As1 Ba0 3.438441 1_666
As1 Ba0 3.438441 1_565
As1 Ba0 3.438441 1_655
