# generated using pymatgen
data_Cr2In(BiO4)3
_symmetry_space_group_name_H-M   'P 1'
_cell_length_a   10.09079313
_cell_length_b   10.09079281
_cell_length_c   5.33245560
_cell_angle_alpha   79.33855473
_cell_angle_beta   79.33855273
_cell_angle_gamma   70.62830512
_symmetry_Int_Tables_number   1
_chemical_formula_structural   Cr2In(BiO4)3
_chemical_formula_sum   'Cr4 In2 Bi6 O24'
_cell_volume   498.89400513
_cell_formula_units_Z   2
loop_
 _symmetry_equiv_pos_site_id
 _symmetry_equiv_pos_as_xyz
  1  'x, y, z'
loop_
 _atom_site_type_symbol
 _atom_site_label
 _atom_site_symmetry_multiplicity
 _atom_site_fract_x
 _atom_site_fract_y
 _atom_site_fract_z
 _atom_site_occupancy
  Cr  Cr0  1  0.53934957  0.79771970  0.55973250  1
  Cr  Cr1  1  0.46065043  0.20228030  0.44026750  1
  Cr  Cr2  1  0.20228030  0.46065043  0.94026750  1
  Cr  Cr3  1  0.79771970  0.53934957  0.05973250  1
  In  In0  1  0.08945338  0.91054662  0.75000000  1
  In  In1  1  0.91054662  0.08945338  0.25000000  1
  Bi  Bi0  1  0.71994584  0.95572932  0.93548736  1
  Bi  Bi1  1  0.28005416  0.04427068  0.06451264  1
  Bi  Bi2  1  0.04427068  0.28005416  0.56451264  1
  Bi  Bi3  1  0.95572932  0.71994584  0.43548736  1
  Bi  Bi4  1  0.66424561  0.33575439  0.75000000  1
  Bi  Bi5  1  0.33575439  0.66424561  0.25000000  1
  O  O0  1  0.55093211  0.64106813  0.71175786  1
  O  O1  1  0.44906789  0.35893187  0.28824214  1
  O  O2  1  0.35893187  0.44906789  0.78824214  1
  O  O3  1  0.64106813  0.55093211  0.21175786  1
  O  O4  1  0.88722749  0.93501103  0.59165276  1
  O  O5  1  0.11277251  0.06498897  0.40834724  1
  O  O6  1  0.06498897  0.11277251  0.90834724  1
  O  O7  1  0.93501103  0.88722749  0.09165276  1
  O  O8  1  0.59264022  0.16058455  0.62806008  1
  O  O9  1  0.40735978  0.83941545  0.37193992  1
  O  O10  1  0.83941545  0.40735978  0.87193992  1
  O  O11  1  0.16058455  0.59264022  0.12806008  1
  O  O12  1  0.30953438  0.19709424  0.62278175  1
  O  O13  1  0.69046562  0.80290576  0.37721825  1
  O  O14  1  0.80290576  0.69046562  0.87721825  1
  O  O15  1  0.19709424  0.30953438  0.12278175  1
  O  O16  1  0.74597628  0.15347881  0.01783989  1
  O  O17  1  0.25402372  0.84652119  0.98216011  1
  O  O18  1  0.84652119  0.25402372  0.48216011  1
  O  O19  1  0.15347881  0.74597628  0.51783989  1
  O  O20  1  0.50495479  0.90961977  0.76845275  1
  O  O21  1  0.49504521  0.09038023  0.23154725  1
  O  O22  1  0.09038023  0.49504521  0.73154725  1
  O  O23  1  0.90961977  0.50495479  0.26845275  1
loop_
_geom_bond_atom_site_label_1
_geom_bond_atom_site_label_2
_geom_bond_distance
_geom_bond_site_symmetry_2
Cr0 O0 1.614906 1_555
Cr0 O20 1.642044 1_555
Cr0 O13 1.661378 1_555
Cr0 O9 1.708677 1_555
Cr1 O1 1.614906 1_555
Cr1 O21 1.642044 1_555
Cr1 O12 1.661378 1_555
Cr1 O8 1.708677 1_555
Cr2 O2 1.614906 1_555
Cr2 O22 1.642044 1_555
Cr2 O15 1.661378 1_556
Cr2 O11 1.708677 1_556
Cr3 O3 1.614906 1_555
Cr3 O23 1.642044 1_555
Cr3 O14 1.661378 1_554
Cr3 O10 1.708677 1_554
In0 O19 2.112049 1_555
In0 O17 2.112049 1_555
In0 O7 2.199399 1_456
In0 O5 2.199399 1_565
In0 O6 2.272506 1_565
In0 O4 2.272506 1_455
In1 O18 2.112049 1_555
In1 O16 2.112049 1_555
In1 O6 2.199399 1_654
In1 O4 2.199399 1_545
In1 O7 2.272506 1_545
In1 O5 2.272506 1_655
Bi0 O16 2.226720 1_566
Bi0 O4 2.239931 1_555
Bi0 O7 2.311166 1_556
Bi0 O8 2.524777 1_565
Bi0 O14 2.585955 1_555
Bi0 O13 2.591531 1_556
Bi0 O21 2.628927 1_566
Bi0 O20 2.693365 1_555
Bi1 O17 2.226720 1_544
Bi1 O5 2.239931 1_555
Bi1 O6 2.311166 1_554
Bi1 O9 2.524777 1_545
Bi1 O15 2.585955 1_555
Bi1 O12 2.591531 1_554
Bi1 O20 2.628927 1_544
Bi1 O21 2.693365 1_555
Bi2 O18 2.226720 1_455
Bi2 O6 2.239931 1_555
Bi2 O5 2.311166 1_555
Bi2 O10 2.524777 1_455
Bi2 O12 2.585955 1_555
Bi2 O15 2.591531 1_555
Bi2 O23 2.628927 1_455
Bi2 O22 2.693365 1_555
Bi3 O19 2.226720 1_655
Bi3 O7 2.239931 1_555
Bi3 O4 2.311166 1_555
Bi3 O11 2.524777 1_655
Bi3 O13 2.585955 1_555
Bi3 O14 2.591531 1_555
Bi3 O22 2.628927 1_655
Bi3 O23 2.693365 1_555
Bi4 O18 2.135560 1_555
Bi4 O16 2.135560 1_556
Bi4 O8 2.348555 1_555
Bi4 O10 2.348555 1_555
Bi5 O19 2.135560 1_555
Bi5 O17 2.135560 1_554
Bi5 O9 2.348555 1_555
Bi5 O11 2.348555 1_555
