# generated using pymatgen
data_RbBaTaSe4
_symmetry_space_group_name_H-M   'P 1'
_cell_length_a   7.36226411
_cell_length_b   9.78899141
_cell_length_c   13.10620230
_cell_angle_alpha   90.00000000
_cell_angle_beta   90.00000000
_cell_angle_gamma   90.00000000
_symmetry_Int_Tables_number   1
_chemical_formula_structural   RbBaTaSe4
_chemical_formula_sum   'Rb4 Ba4 Ta4 Se16'
_cell_volume   944.55273007
_cell_formula_units_Z   4
loop_
 _symmetry_equiv_pos_site_id
 _symmetry_equiv_pos_as_xyz
  1  'x, y, z'
loop_
 _atom_site_type_symbol
 _atom_site_label
 _atom_site_symmetry_multiplicity
 _atom_site_fract_x
 _atom_site_fract_y
 _atom_site_fract_z
 _atom_site_occupancy
  Rb  Rb0  1  0.75000000  0.36714305  0.08779150  1
  Rb  Rb1  1  0.25000000  0.13285695  0.58779150  1
  Rb  Rb2  1  0.75000000  0.86714305  0.41220850  1
  Rb  Rb3  1  0.25000000  0.63285695  0.91220850  1
  Ba  Ba0  1  0.75000000  0.02029098  0.82813621  1
  Ba  Ba1  1  0.25000000  0.47970902  0.32813621  1
  Ba  Ba2  1  0.75000000  0.52029098  0.67186379  1
  Ba  Ba3  1  0.25000000  0.97970902  0.17186379  1
  Ta  Ta0  1  0.75000000  0.27132896  0.42122507  1
  Ta  Ta1  1  0.25000000  0.22867104  0.92122507  1
  Ta  Ta2  1  0.75000000  0.77132896  0.07877493  1
  Ta  Ta3  1  0.25000000  0.72867104  0.57877493  1
  Se  Se0  1  0.75000000  0.19298395  0.59437508  1
  Se  Se1  1  0.25000000  0.30701605  0.09437508  1
  Se  Se2  1  0.75000000  0.69298395  0.90562492  1
  Se  Se3  1  0.25000000  0.80701605  0.40562492  1
  Se  Se4  1  0.75000000  0.01599455  0.08643470  1
  Se  Se5  1  0.25000000  0.48400545  0.58643470  1
  Se  Se6  1  0.75000000  0.51599455  0.41356530  1
  Se  Se7  1  0.25000000  0.98400545  0.91356530  1
  Se  Se8  1  0.01069742  0.18339457  0.33692602  1
  Se  Se9  1  0.98930258  0.31660543  0.83692602  1
  Se  Se10  1  0.48930258  0.68339457  0.16307398  1
  Se  Se11  1  0.51069742  0.81660543  0.66307398  1
  Se  Se12  1  0.98930258  0.81660543  0.66307398  1
  Se  Se13  1  0.01069742  0.68339457  0.16307398  1
  Se  Se14  1  0.51069742  0.31660543  0.83692602  1
  Se  Se15  1  0.48930258  0.18339457  0.33692602  1
loop_
_geom_bond_atom_site_label_1
_geom_bond_atom_site_label_2
_geom_bond_distance
_geom_bond_site_symmetry_2
Rb0 Se4 3.437436 1_555
Rb0 Se1 3.728888 1_655
Rb0 Se1 3.728888 1_555
Rb0 Se9 3.762839 1_554
Rb0 Se14 3.762839 1_554
Rb0 Se13 3.773750 1_655
Rb0 Se10 3.773750 1_555
Rb0 Se2 3.984232 1_554
Rb1 Se5 3.437436 1_555
Rb1 Se0 3.728888 1_555
Rb1 Se0 3.728888 1_455
Rb1 Se15 3.762839 1_555
Rb1 Se8 3.762839 1_555
Rb1 Se11 3.773750 1_545
Rb1 Se12 3.773750 1_445
Rb1 Se3 3.984232 1_545
Rb2 Se6 3.437436 1_555
Rb2 Se3 3.728888 1_555
Rb2 Se3 3.728888 1_655
Rb2 Se12 3.762839 1_555
Rb2 Se11 3.762839 1_555
Rb2 Se8 3.773750 1_665
Rb2 Se15 3.773750 1_565
Rb2 Se0 3.984232 1_565
Rb3 Se7 3.437436 1_555
Rb3 Se2 3.728888 1_455
Rb3 Se2 3.728888 1_555
Rb3 Se10 3.762839 1_556
Rb3 Se13 3.762839 1_556
Rb3 Se14 3.773750 1_555
Rb3 Se9 3.773750 1_455
Rb3 Se1 3.984232 1_556
Ba0 Se2 3.361110 1_545
Ba0 Se4 3.385574 1_556
Ba0 Se9 3.395708 1_555
Ba0 Se14 3.395708 1_555
Ba0 Se12 3.429220 1_545
Ba0 Se11 3.429220 1_545
Ba0 Se0 3.499163 1_555
Ba0 Se7 3.864003 1_645
Ba0 Se7 3.864003 1_545
Ba1 Se3 3.361110 1_555
Ba1 Se5 3.385574 1_555
Ba1 Se15 3.395708 1_555
Ba1 Se8 3.395708 1_555
Ba1 Se10 3.429220 1_555
Ba1 Se13 3.429220 1_555
Ba1 Se1 3.499163 1_555
Ba1 Se6 3.864003 1_555
Ba1 Se6 3.864003 1_455
Ba2 Se0 3.361110 1_555
Ba2 Se6 3.385574 1_555
Ba2 Se12 3.395708 1_555
Ba2 Se11 3.395708 1_555
Ba2 Se9 3.429220 1_555
Ba2 Se14 3.429220 1_555
Ba2 Se2 3.499163 1_555
Ba2 Se5 3.864003 1_655
Ba2 Se5 3.864003 1_555
Ba3 Se1 3.361110 1_565
Ba3 Se7 3.385574 1_554
Ba3 Se10 3.395708 1_555
Ba3 Se13 3.395708 1_555
Ba3 Se15 3.429220 1_565
Ba3 Se8 3.429220 1_565
Ba3 Se3 3.499163 1_555
Ba3 Se4 3.864003 1_465
Ba3 Se4 3.864003 1_565
Se0 Ta0 2.395426 1_555
Se1 Ta1 2.395426 1_554
Se2 Ta2 2.395426 1_556
Se3 Ta3 2.395426 1_555
Se4 Ta2 2.397132 1_545
Se5 Ta3 2.397132 1_555
Se6 Ta0 2.397132 1_555
Se7 Ta1 2.397132 1_565
Se8 Ta0 2.376012 1_455
Se9 Ta1 2.376012 1_655
Se10 Ta2 2.376012 1_555
Se11 Ta3 2.376012 1_555
Se12 Ta3 2.376012 1_655
Se13 Ta2 2.376012 1_455
Se14 Ta1 2.376012 1_555
Se15 Ta0 2.376012 1_555
