# generated using pymatgen
data_K4Zn(SiAu3)2
_symmetry_space_group_name_H-M   'P 1'
_cell_length_a   9.60492225
_cell_length_b   9.60492164
_cell_length_c   9.60492289
_cell_angle_alpha   39.56691358
_cell_angle_beta   39.56691850
_cell_angle_gamma   39.56691453
_symmetry_Int_Tables_number   1
_chemical_formula_structural   K4Zn(SiAu3)2
_chemical_formula_sum   'K4 Zn1 Si2 Au6'
_cell_volume   323.67547335
_cell_formula_units_Z   1
loop_
 _symmetry_equiv_pos_site_id
 _symmetry_equiv_pos_as_xyz
  1  'x, y, z'
loop_
 _atom_site_type_symbol
 _atom_site_label
 _atom_site_symmetry_multiplicity
 _atom_site_fract_x
 _atom_site_fract_y
 _atom_site_fract_z
 _atom_site_occupancy
  K  K0  1  0.68328851  0.68328851  0.68328851  1
  K  K1  1  0.31671149  0.31671149  0.31671149  1
  K  K2  1  0.80825398  0.80825398  0.80825398  1
  K  K3  1  0.19174602  0.19174602  0.19174602  1
  Zn  Zn0  1  0.00000000  0.00000000  0.00000000  1
  Si  Si0  1  0.54591427  0.54591427  0.54591427  1
  Si  Si1  1  0.45408573  0.45408573  0.45408573  1
  Au  Au0  1  0.22406513  0.22406513  0.79440688  1
  Au  Au1  1  0.79440688  0.22406513  0.22406513  1
  Au  Au2  1  0.22406513  0.79440688  0.22406513  1
  Au  Au3  1  0.77593487  0.20559312  0.77593487  1
  Au  Au4  1  0.77593487  0.77593487  0.20559312  1
  Au  Au5  1  0.20559312  0.77593487  0.77593487  1
loop_
_geom_bond_atom_site_label_1
_geom_bond_atom_site_label_2
_geom_bond_distance
_geom_bond_site_symmetry_2
Au0 Si1 2.388330 1_555
Au0 Zn0 2.683144 1_556
Au0 Au2 2.793588 1_546
Au0 Au1 2.793588 1_456
Au0 K3 3.354585 1_556
Au0 K1 3.356592 1_555
Au0 K2 3.637832 1_455
Au0 K2 3.637832 1_545
Au0 K0 3.679666 1_545
Au0 K0 3.679666 1_455
Au1 Si1 2.388331 1_555
Au1 Zn0 2.683144 1_655
Au1 Au2 2.793588 1_645
Au1 K3 3.354584 1_655
Au1 K1 3.356591 1_555
Au1 K2 3.637832 1_554
Au1 K2 3.637832 1_545
Au1 K0 3.679666 1_545
Au1 K0 3.679666 1_554
Au2 Si1 2.388330 1_555
Au2 Zn0 2.683144 1_565
Au2 K3 3.354584 1_565
Au2 K1 3.356591 1_555
Au2 K2 3.637832 1_554
Au2 K2 3.637832 1_455
Au2 K0 3.679666 1_455
Au2 K0 3.679667 1_554
Au3 Si0 2.388330 1_555
Au3 Zn0 2.683144 1_656
Au3 Au5 2.793588 1_645
Au3 Au4 2.793588 1_546
Au3 K2 3.354584 1_545
Au3 K0 3.356591 1_555
Au3 K3 3.637832 1_556
Au3 K3 3.637832 1_655
Au3 K1 3.679666 1_655
Au3 K1 3.679667 1_556
Au4 Si0 2.388330 1_555
Au4 Zn0 2.683144 1_665
Au4 Au5 2.793588 1_654
Au4 K2 3.354585 1_554
Au4 K0 3.356592 1_555
Au4 K3 3.637832 1_655
Au4 K3 3.637832 1_565
Au4 K1 3.679666 1_565
Au4 K1 3.679666 1_655
Au5 Si0 2.388331 1_555
Au5 Zn0 2.683144 1_566
Au5 K2 3.354584 1_455
Au5 K0 3.356591 1_555
Au5 K3 3.637832 1_556
Au5 K3 3.637832 1_565
Au5 K1 3.679666 1_565
Au5 K1 3.679666 1_556
