# generated using pymatgen
data_Li3Ta8TiN12
_symmetry_space_group_name_H-M   'P 1'
_cell_length_a   5.19674123
_cell_length_b   5.19674073
_cell_length_c   10.29417184
_cell_angle_alpha   90.00000000
_cell_angle_beta   90.00000000
_cell_angle_gamma   120.00000321
_symmetry_Int_Tables_number   1
_chemical_formula_structural   Li3Ta8TiN12
_chemical_formula_sum   'Li3 Ta8 Ti1 N12'
_cell_volume   240.75991012
_cell_formula_units_Z   1
loop_
 _symmetry_equiv_pos_site_id
 _symmetry_equiv_pos_as_xyz
  1  'x, y, z'
loop_
 _atom_site_type_symbol
 _atom_site_label
 _atom_site_symmetry_multiplicity
 _atom_site_fract_x
 _atom_site_fract_y
 _atom_site_fract_z
 _atom_site_occupancy
  Li  Li0  1  0.33333300  0.66666700  0.50000000  1
  Li  Li1  1  0.66666700  0.33333300  0.50000000  1
  Li  Li2  1  0.66666700  0.33333300  0.00000000  1
  Ta  Ta0  1  0.99715596  0.34206247  0.25033628  1
  Ta  Ta1  1  0.65793753  0.00284404  0.74966372  1
  Ta  Ta2  1  0.34490551  0.34206247  0.74966372  1
  Ta  Ta3  1  0.00000000  0.00000000  0.50000000  1
  Ta  Ta4  1  0.00000000  0.00000000  0.00000000  1
  Ta  Ta5  1  0.65793753  0.65509449  0.25033628  1
  Ta  Ta6  1  0.34490551  0.00284404  0.25033628  1
  Ta  Ta7  1  0.99715596  0.65509449  0.74966372  1
  Ti  Ti0  1  0.33333300  0.66666700  0.00000000  1
  N  N0  1  0.67615063  0.67756049  0.62399643  1
  N  N1  1  0.66690947  0.67043279  0.88192461  1
  N  N2  1  0.32956721  0.33309053  0.11807539  1
  N  N3  1  0.32243951  0.32384937  0.37600357  1
  N  N4  1  0.32956721  0.99647668  0.88192461  1
  N  N5  1  0.32243951  0.99859014  0.62399643  1
  N  N6  1  0.00140986  0.67756049  0.37600357  1
  N  N7  1  0.00352332  0.67043279  0.11807539  1
  N  N8  1  0.66690947  0.99647668  0.11807539  1
  N  N9  1  0.67615063  0.99859014  0.37600357  1
  N  N10  1  0.00352332  0.33309053  0.88192461  1
  N  N11  1  0.00140986  0.32384937  0.62399643  1
loop_
_geom_bond_atom_site_label_1
_geom_bond_atom_site_label_2
_geom_bond_distance
_geom_bond_site_symmetry_2
Li0 N5 2.169216 1_555
Li0 N6 2.169216 1_555
Li0 N11 2.169218 1_555
Li0 N9 2.169218 1_555
Li0 N3 2.169220 1_555
Li0 N0 2.169220 1_555
Li1 N9 2.177974 1_545
Li1 N11 2.177975 1_655
Li1 N6 2.177977 1_655
Li1 N5 2.177977 1_545
Li1 N0 2.177979 1_555
Li1 N3 2.177979 1_555
Li2 N8 2.131681 1_545
Li2 N10 2.131681 1_654
Li2 N7 2.131683 1_655
Li2 N4 2.131683 1_544
Li2 N1 2.131685 1_554
Li2 N2 2.131685 1_555
N0 Ta3 2.109356 1_665
N0 Ta7 2.159798 1_555
N0 Ta2 2.162230 1_555
N0 Ta1 2.167939 1_565
N1 Ta4 2.107691 1_666
N1 Ti0 2.109249 1_556
N1 Ta2 2.170335 1_555
N1 Ta1 2.218230 1_565
N1 Ta7 2.223115 1_555
N2 Ta4 2.107691 1_555
N2 Ti0 2.109248 1_555
N2 Ta5 2.170335 1_555
N2 Ta0 2.218230 1_455
N2 Ta6 2.223115 1_555
N3 Ta3 2.109356 1_555
N3 Ta6 2.159798 1_555
N3 Ta5 2.162230 1_555
N3 Ta0 2.167939 1_455
N4 Ta4 2.107691 1_566
N4 Ti0 2.109244 1_556
N4 Ta1 2.170333 1_565
N4 Ta7 2.218228 1_455
N4 Ta2 2.223119 1_565
N5 Ta3 2.109356 1_565
N5 Ta2 2.159802 1_565
N5 Ta1 2.162229 1_565
N5 Ta7 2.167937 1_455
N6 Ta3 2.109356 1_565
N6 Ta5 2.159802 1_455
N6 Ta0 2.162228 1_455
N6 Ta6 2.167937 1_565
N7 Ta4 2.107691 1_565
N7 Ti0 2.109244 1_555
N7 Ta0 2.170333 1_455
N7 Ta6 2.218228 1_565
N7 Ta5 2.223119 1_455
N8 Ta4 2.107691 1_665
N8 Ti0 2.109246 1_555
N8 Ta6 2.170337 1_565
N8 Ta5 2.218226 1_555
N8 Ta0 2.223117 1_565
N9 Ta3 2.109356 1_665
N9 Ta0 2.159800 1_565
N9 Ta6 2.162233 1_565
N9 Ta5 2.167935 1_555
N10 Ta4 2.107691 1_556
N10 Ti0 2.109246 1_556
N10 Ta7 2.170337 1_455
N10 Ta2 2.218226 1_555
N10 Ta1 2.223117 1_455
N11 Ta3 2.109356 1_555
N11 Ta1 2.159800 1_455
N11 Ta7 2.162233 1_455
N11 Ta2 2.167935 1_555
