# generated using pymatgen
data_Cs2FeNiSe4
_symmetry_space_group_name_H-M   'P 1'
_cell_length_a   7.39295917
_cell_length_b   7.39295919
_cell_length_c   5.79157122
_cell_angle_alpha   78.84664050
_cell_angle_beta   78.84663706
_cell_angle_gamma   117.25899750
_symmetry_Int_Tables_number   1
_chemical_formula_structural   Cs2FeNiSe4
_chemical_formula_sum   'Cs2 Fe1 Ni1 Se4'
_cell_volume   261.24184813
_cell_formula_units_Z   1
loop_
 _symmetry_equiv_pos_site_id
 _symmetry_equiv_pos_as_xyz
  1  'x, y, z'
loop_
 _atom_site_type_symbol
 _atom_site_label
 _atom_site_symmetry_multiplicity
 _atom_site_fract_x
 _atom_site_fract_y
 _atom_site_fract_z
 _atom_site_occupancy
  Cs  Cs0  1  0.14272969  0.85727031  0.00000000  1
  Cs  Cs1  1  0.85699104  0.14300896  0.50000000  1
  Fe  Fe0  1  0.49850616  0.50149384  0.50000000  1
  Ni  Ni0  1  0.50147177  0.49852823  0.00000000  1
  Se  Se0  1  0.21599393  0.42198921  0.84399999  1
  Se  Se1  1  0.57801079  0.78400607  0.15600001  1
  Se  Se2  1  0.78357688  0.57728025  0.66238039  1
  Se  Se3  1  0.42271975  0.21642312  0.33761961  1
loop_
_geom_bond_atom_site_label_1
_geom_bond_atom_site_label_2
_geom_bond_distance
_geom_bond_site_symmetry_2
Cs0 Se3 3.701082 1_565
Cs0 Se2 3.701082 1_454
Cs0 Se0 3.741310 1_554
Cs0 Se1 3.741310 1_555
Cs0 Se2 3.742201 1_455
Cs0 Se3 3.742202 1_564
Cs0 Se1 3.849648 1_455
Cs0 Se0 3.849648 1_564
Cs1 Se0 3.712895 1_654
Cs1 Se1 3.712895 1_546
Cs1 Se1 3.726707 1_545
Cs1 Se0 3.726707 1_655
Cs1 Se2 3.748793 1_555
Cs1 Se3 3.748793 1_555
Cs1 Se3 3.856556 1_655
Cs1 Se2 3.856556 1_545
Fe0 Se0 2.342990 1_555
Fe0 Se1 2.342990 1_555
Fe0 Se3 2.351369 1_555
Fe0 Se2 2.351369 1_555
Ni0 Se2 2.319838 1_554
Ni0 Se3 2.319838 1_555
Ni0 Se1 2.330733 1_555
Ni0 Se0 2.330733 1_554
