# generated using pymatgen
data_NaAg(AuSe2)2
_symmetry_space_group_name_H-M   'P 1'
_cell_length_a   8.75333900
_cell_length_b   6.67621446
_cell_length_c   6.78366714
_cell_angle_alpha   73.11147343
_cell_angle_beta   90.00000000
_cell_angle_gamma   90.00000000
_symmetry_Int_Tables_number   1
_chemical_formula_structural   NaAg(AuSe2)2
_chemical_formula_sum   'Na2 Ag2 Au4 Se8'
_cell_volume   379.33446495
_cell_formula_units_Z   2
loop_
 _symmetry_equiv_pos_site_id
 _symmetry_equiv_pos_as_xyz
  1  'x, y, z'
loop_
 _atom_site_type_symbol
 _atom_site_label
 _atom_site_symmetry_multiplicity
 _atom_site_fract_x
 _atom_site_fract_y
 _atom_site_fract_z
 _atom_site_occupancy
  Na  Na0  1  0.12802269  0.99344969  0.73536312  1
  Na  Na1  1  0.62802269  0.50655031  0.26463688  1
  Ag  Ag0  1  0.88190727  0.99619464  0.29484936  1
  Ag  Ag1  1  0.38190727  0.50380536  0.70515064  1
  Au  Au0  1  0.12765538  0.48588276  0.23289261  1
  Au  Au1  1  0.62765538  0.01411724  0.76710739  1
  Au  Au2  1  0.86730398  0.50687455  0.79400362  1
  Au  Au3  1  0.36730398  0.99312545  0.20599638  1
  Se  Se0  1  0.42056155  0.78260108  0.96013864  1
  Se  Se1  1  0.92056255  0.71739892  0.03986136  1
  Se  Se2  1  0.54671142  0.24281473  0.97665782  1
  Se  Se3  1  0.04671142  0.25718527  0.02334218  1
  Se  Se4  1  0.19391213  0.73085986  0.43894029  1
  Se  Se5  1  0.69391213  0.76914014  0.56105971  1
  Se  Se6  1  0.83392558  0.25184175  0.58119949  1
  Se  Se7  1  0.33392558  0.24815825  0.41880051  1
loop_
_geom_bond_atom_site_label_1
_geom_bond_atom_site_label_2
_geom_bond_distance
_geom_bond_site_symmetry_2
Na0 Se7 2.937673 1_565
Na0 Se1 2.957902 1_456
Na0 Se3 3.069490 1_566
Na0 Se4 3.081833 1_555
Na0 Se0 3.101062 1_555
Na0 Se6 3.106214 1_465
Na1 Se6 2.937673 1_555
Na1 Se0 2.957908 1_554
Na1 Se2 3.069490 1_554
Na1 Se5 3.081833 1_555
Na1 Se1 3.101069 1_555
Na1 Se7 3.106214 1_555
Ag0 Se3 2.577744 1_665
Ag0 Se5 2.583888 1_555
Ag0 Se1 2.905448 1_555
Ag0 Se6 2.964631 1_565
Ag0 Se4 3.247489 1_655
Ag0 Na0 3.679618 1_655
Ag1 Se2 2.577744 1_555
Ag1 Se4 2.583888 1_555
Ag1 Se0 2.905447 1_555
Ag1 Se7 2.964631 1_555
Ag1 Se5 3.247489 1_555
Ag1 Na1 3.679618 1_555
Au0 Se3 2.472856 1_555
Au0 Se7 2.491271 1_555
Au0 Se1 2.492756 1_455
Au0 Se4 2.508639 1_555
Au1 Se2 2.472856 1_555
Au1 Se6 2.491271 1_555
Au1 Se0 2.492762 1_545
Au1 Se5 2.508639 1_545
Au2 Se3 2.481647 1_656
Au2 Se5 2.501770 1_555
Au2 Se1 2.517217 1_556
Au2 Se6 2.548817 1_555
Au3 Se2 2.481647 1_564
Au3 Se4 2.501770 1_555
Au3 Se0 2.517215 1_554
Au3 Se7 2.548817 1_565
