# generated using pymatgen
data_TiGaRh3Se8
_symmetry_space_group_name_H-M   'P 1'
_cell_length_a   7.19761593
_cell_length_b   7.19761690
_cell_length_c   7.19761478
_cell_angle_alpha   62.09366602
_cell_angle_beta   62.09366121
_cell_angle_gamma   62.09365768
_symmetry_Int_Tables_number   1
_chemical_formula_structural   TiGaRh3Se8
_chemical_formula_sum   'Ti1 Ga1 Rh3 Se8'
_cell_volume   276.00311065
_cell_formula_units_Z   1
loop_
 _symmetry_equiv_pos_site_id
 _symmetry_equiv_pos_as_xyz
  1  'x, y, z'
loop_
 _atom_site_type_symbol
 _atom_site_label
 _atom_site_symmetry_multiplicity
 _atom_site_fract_x
 _atom_site_fract_y
 _atom_site_fract_z
 _atom_site_occupancy
  Ti  Ti0  1  0.40515749  0.40515749  0.40515749  1
  Ga  Ga0  1  0.98928365  0.98928365  0.98928365  1
  Rh  Rh0  1  0.85970049  0.37514540  0.37514540  1
  Rh  Rh1  1  0.37514540  0.85970049  0.37514540  1
  Rh  Rh2  1  0.37514540  0.37514540  0.85970049  1
  Se  Se0  1  0.13024270  0.13024270  0.13024270  1
  Se  Se1  1  0.58442562  0.13871485  0.13871485  1
  Se  Se2  1  0.13871485  0.58442562  0.13871485  1
  Se  Se3  1  0.13871485  0.13871485  0.58442562  1
  Se  Se4  1  0.61259557  0.61259557  0.61259557  1
  Se  Se5  1  0.12392785  0.63347456  0.63347456  1
  Se  Se6  1  0.63347456  0.12392785  0.63347456  1
  Se  Se7  1  0.63347456  0.63347456  0.12392785  1
loop_
_geom_bond_atom_site_label_1
_geom_bond_atom_site_label_2
_geom_bond_distance
_geom_bond_site_symmetry_2
Ga0 Se0 2.445125 1_666
Ga0 Se3 2.453653 1_665
Ga0 Se1 2.453653 1_566
Ga0 Se2 2.453654 1_656
Rh0 Se4 2.459405 1_555
Rh0 Se7 2.480510 1_555
Rh0 Se6 2.480510 1_555
Rh0 Se3 2.535967 1_655
Rh0 Se2 2.535967 1_655
Rh0 Se0 2.547288 1_655
Rh1 Se4 2.459405 1_555
Rh1 Se7 2.480510 1_555
Rh1 Se5 2.480510 1_555
Rh1 Se3 2.535967 1_565
Rh1 Se1 2.535967 1_565
Rh1 Se0 2.547288 1_565
Rh2 Se4 2.459405 1_555
Rh2 Se6 2.480510 1_555
Rh2 Se5 2.480510 1_555
Rh2 Se2 2.535967 1_556
Rh2 Se1 2.535967 1_556
Rh2 Se0 2.547289 1_556
Se1 Ti0 2.798307 1_555
Se2 Ti0 2.798307 1_555
Se3 Ti0 2.798307 1_555
Se5 Ti0 2.408089 1_555
Se6 Ti0 2.408089 1_555
Se7 Ti0 2.408089 1_555
