# generated using pymatgen
data_Ta8MnCuTe8
_symmetry_space_group_name_H-M   'P 1'
_cell_length_a   4.80784858
_cell_length_b   10.93193569
_cell_length_c   19.12499543
_cell_angle_alpha   90.00000000
_cell_angle_beta   90.00000000
_cell_angle_gamma   90.00000000
_symmetry_Int_Tables_number   1
_chemical_formula_structural   Ta8MnCuTe8
_chemical_formula_sum   'Ta16 Mn2 Cu2 Te16'
_cell_volume   1005.19238478
_cell_formula_units_Z   2
loop_
 _symmetry_equiv_pos_site_id
 _symmetry_equiv_pos_as_xyz
  1  'x, y, z'
loop_
 _atom_site_type_symbol
 _atom_site_label
 _atom_site_symmetry_multiplicity
 _atom_site_fract_x
 _atom_site_fract_y
 _atom_site_fract_z
 _atom_site_occupancy
  Ta  Ta0  1  0.49678163  0.56423623  0.38481936  1
  Ta  Ta1  1  0.49678163  0.43576377  0.61518064  1
  Ta  Ta2  1  0.50321837  0.06423623  0.11518064  1
  Ta  Ta3  1  0.50321837  0.93576377  0.88481936  1
  Ta  Ta4  1  0.49670707  0.70224137  0.53609136  1
  Ta  Ta5  1  0.49670707  0.29775863  0.46390864  1
  Ta  Ta6  1  0.50329293  0.20224137  0.96390864  1
  Ta  Ta7  1  0.50329293  0.79775863  0.03609136  1
  Ta  Ta8  1  0.00442827  0.68816910  0.44385799  1
  Ta  Ta9  1  0.00442827  0.31183090  0.55614201  1
  Ta  Ta10  1  0.99557173  0.18816910  0.05614201  1
  Ta  Ta11  1  0.99557173  0.81183090  0.94385799  1
  Ta  Ta12  1  0.00339942  0.40241161  0.39292878  1
  Ta  Ta13  1  0.00339942  0.59758839  0.60707122  1
  Ta  Ta14  1  0.99660058  0.90241161  0.10707122  1
  Ta  Ta15  1  0.99660058  0.09758839  0.89292878  1
  Mn  Mn0  1  0.75037245  0.50000000  0.50000000  1
  Mn  Mn1  1  0.24962755  0.00000000  0.00000000  1
  Cu  Cu0  1  0.25032902  0.50000000  0.50000000  1
  Cu  Cu1  1  0.74967098  0.00000000  0.00000000  1
  Te  Te0  1  0.99780214  0.84687655  0.56270645  1
  Te  Te1  1  0.99780214  0.15312345  0.43729355  1
  Te  Te2  1  0.00219786  0.34687655  0.93729355  1
  Te  Te3  1  0.00219786  0.65312345  0.06270645  1
  Te  Te4  1  0.50227960  0.33278259  0.31618460  1
  Te  Te5  1  0.50227960  0.66721741  0.68381540  1
  Te  Te6  1  0.49772040  0.83278259  0.18381540  1
  Te  Te7  1  0.49772040  0.16721741  0.81618460  1
  Te  Te8  1  0.50297757  0.82371559  0.40367581  1
  Te  Te9  1  0.50297757  0.17628441  0.59632419  1
  Te  Te10  1  0.49702243  0.32371559  0.09632419  1
  Te  Te11  1  0.49702243  0.67628441  0.90367581  1
  Te  Te12  1  0.99768450  0.60871151  0.30155789  1
  Te  Te13  1  0.99768450  0.39128849  0.69844211  1
  Te  Te14  1  0.00231550  0.10871151  0.19844211  1
  Te  Te15  1  0.00231550  0.89128849  0.80155789  1
loop_
_geom_bond_atom_site_label_1
_geom_bond_atom_site_label_2
_geom_bond_distance
_geom_bond_site_symmetry_2
Ta0 Te4 2.850582 1_555
Ta0 Te8 2.859599 1_555
Ta0 Te12 2.920625 1_455
Ta0 Te12 2.927762 1_555
Ta1 Te5 2.850582 1_555
Ta1 Te9 2.859599 1_555
Ta1 Te13 2.920625 1_455
Ta1 Te13 2.927762 1_555
Ta2 Te6 2.850582 1_545
Ta2 Te10 2.859599 1_555
Ta2 Te14 2.920625 1_655
Ta2 Te14 2.927762 1_555
Ta3 Te7 2.850582 1_565
Ta3 Te11 2.859599 1_555
Ta3 Te15 2.920625 1_655
Ta3 Te15 2.927762 1_555
Ta4 Te5 2.851174 1_555
Ta4 Te8 2.859658 1_555
Ta4 Te0 2.917649 1_455
Ta4 Te0 2.926311 1_555
Ta5 Te4 2.851174 1_555
Ta5 Te9 2.859658 1_555
Ta5 Te1 2.917649 1_455
Ta5 Te1 2.926311 1_555
Ta6 Te7 2.851174 1_555
Ta6 Te10 2.859658 1_556
Ta6 Te2 2.917649 1_655
Ta6 Te2 2.926311 1_555
Ta7 Te6 2.851174 1_555
Ta7 Te11 2.859658 1_554
Ta7 Te3 2.917649 1_655
Ta7 Te3 2.926311 1_555
Ta8 Te12 2.856932 1_455
Ta8 Te0 2.859649 1_455
Ta8 Te8 2.920894 1_555
Ta8 Te8 2.932352 1_455
Ta9 Te13 2.856932 1_455
Ta9 Te1 2.859649 1_455
Ta9 Te9 2.920894 1_555
Ta9 Te9 2.932352 1_455
Ta10 Te14 2.856932 1_655
Ta10 Te2 2.859649 1_654
Ta10 Te10 2.920894 1_555
Ta10 Te10 2.932352 1_655
Ta11 Te15 2.856932 1_655
Ta11 Te3 2.859649 1_656
Ta11 Te11 2.920894 1_555
Ta11 Te11 2.932352 1_655
Ta12 Te12 2.853171 1_455
Ta12 Te1 2.854359 1_455
Ta12 Te4 2.913182 1_555
Ta12 Te4 2.922054 1_455
Ta13 Te13 2.853171 1_455
Ta13 Te0 2.854359 1_455
Ta13 Te5 2.913182 1_555
Ta13 Te5 2.922054 1_455
Ta14 Te14 2.853171 1_665
Ta14 Te3 2.854359 1_655
Ta14 Te6 2.913182 1_555
Ta14 Te6 2.922054 1_655
Ta15 Te15 2.853171 1_645
Ta15 Te2 2.854359 1_655
Ta15 Te7 2.913182 1_555
Ta15 Te7 2.922054 1_655
Mn0 Ta13 2.609839 1_655
Mn0 Ta12 2.609839 1_655
Mn0 Ta1 2.613827 1_555
Mn0 Ta0 2.613827 1_555
Mn0 Ta4 2.617606 1_555
Mn0 Ta5 2.617606 1_555
Mn0 Ta8 2.622270 1_655
Mn0 Ta9 2.622270 1_655
Mn1 Ta14 2.609839 1_445
Mn1 Ta15 2.609839 1_454
Mn1 Ta2 2.613827 1_555
Mn1 Ta3 2.613827 1_544
Mn1 Ta7 2.617606 1_545
Mn1 Ta6 2.617606 1_554
Mn1 Ta10 2.622270 1_455
Mn1 Ta11 2.622270 1_444
Cu0 Mn0 2.403716 1_455
Cu0 Mn0 2.404133 1_555
Cu0 Ta13 2.596304 1_555
Cu0 Ta12 2.596304 1_555
Cu0 Ta1 2.597996 1_555
Cu0 Ta0 2.597996 1_555
Cu0 Ta4 2.601467 1_555
Cu0 Ta5 2.601467 1_555
Cu0 Ta8 2.604238 1_555
Cu0 Ta9 2.604238 1_555
Cu1 Mn1 2.403716 1_655
Cu1 Mn1 2.404133 1_555
Cu1 Ta14 2.596304 1_545
Cu1 Ta15 2.596304 1_554
Cu1 Ta2 2.597996 1_555
Cu1 Ta3 2.597996 1_544
Cu1 Ta7 2.601467 1_545
Cu1 Ta6 2.601467 1_554
Cu1 Ta10 2.604238 1_555
Cu1 Ta11 2.604238 1_544
