# generated using pymatgen
data_Cs4Sn3PbSe9
_symmetry_space_group_name_H-M   'P 1'
_cell_length_a   9.10976128
_cell_length_b   9.10976120
_cell_length_c   9.10976071
_cell_angle_alpha   107.94670459
_cell_angle_beta   107.94670904
_cell_angle_gamma   107.94671571
_symmetry_Int_Tables_number   1
_chemical_formula_structural   Cs4Sn3PbSe9
_chemical_formula_sum   'Cs4 Sn3 Pb1 Se9'
_cell_volume   612.61632577
_cell_formula_units_Z   1
loop_
 _symmetry_equiv_pos_site_id
 _symmetry_equiv_pos_as_xyz
  1  'x, y, z'
loop_
 _atom_site_type_symbol
 _atom_site_label
 _atom_site_symmetry_multiplicity
 _atom_site_fract_x
 _atom_site_fract_y
 _atom_site_fract_z
 _atom_site_occupancy
  Cs  Cs0  1  0.61440431  0.72924550  0.18367522  1
  Cs  Cs1  1  0.18367522  0.61440431  0.72924550  1
  Cs  Cs2  1  0.72924550  0.18367522  0.61440431  1
  Cs  Cs3  1  0.86579710  0.86579710  0.86579710  1
  Sn  Sn0  1  0.20136979  0.78564159  0.33023484  1
  Sn  Sn1  1  0.33023484  0.20136979  0.78564159  1
  Sn  Sn2  1  0.78564159  0.33023484  0.20136979  1
  Pb  Pb0  1  0.32147975  0.32147975  0.32147975  1
  Se  Se0  1  0.91546774  0.53589768  0.08161731  1
  Se  Se1  1  0.08161731  0.91546774  0.53589768  1
  Se  Se2  1  0.53589768  0.08161731  0.91546774  1
  Se  Se3  1  0.42351643  0.71001676  0.48463178  1
  Se  Se4  1  0.48463178  0.42351643  0.71001576  1
  Se  Se5  1  0.71001676  0.48463178  0.42351643  1
  Se  Se6  1  0.30947830  0.95401581  0.18377309  1
  Se  Se7  1  0.18377309  0.30947830  0.95401581  1
  Se  Se8  1  0.95401581  0.18377309  0.30947830  1
loop_
_geom_bond_atom_site_label_1
_geom_bond_atom_site_label_2
_geom_bond_distance
_geom_bond_site_symmetry_2
Cs0 Se5 3.677207 1_555
Cs0 Se3 3.690194 1_555
Cs0 Se8 3.876322 1_565
Cs0 Se0 3.876585 1_555
Cs0 Se1 3.881794 1_655
Cs0 Se7 3.893125 1_554
Cs0 Se4 3.897991 1_554
Cs0 Se6 3.926129 1_555
Cs1 Se3 3.677207 1_555
Cs1 Se4 3.690195 1_555
Cs1 Se6 3.876323 1_556
Cs1 Se1 3.876585 1_555
Cs1 Se2 3.881794 1_565
Cs1 Se8 3.893126 1_455
Cs1 Se5 3.897984 1_455
Cs1 Se7 3.926129 1_555
Cs2 Se4 3.677205 1_555
Cs2 Se5 3.690194 1_555
Cs2 Se7 3.876323 1_655
Cs2 Se2 3.876584 1_555
Cs2 Se0 3.881794 1_556
Cs2 Se6 3.893125 1_545
Cs2 Se3 3.897984 1_545
Cs2 Se8 3.926129 1_555
Cs3 Se7 3.836858 1_665
Cs3 Se6 3.836858 1_656
Cs3 Se8 3.836858 1_566
Cs3 Se4 3.888737 1_555
Cs3 Se3 3.888739 1_555
Cs3 Se5 3.888739 1_555
Cs3 Se1 4.127119 1_655
Cs3 Se0 4.127119 1_556
Cs3 Se2 4.127120 1_565
Pb0 Se4 3.078964 1_555
Pb0 Se5 3.078973 1_555
Pb0 Se3 3.078973 1_555
Pb0 Se7 3.145392 1_554
Pb0 Se8 3.145392 1_455
Pb0 Se6 3.145392 1_545
Se0 Sn0 2.574236 1_655
Se0 Sn2 2.605407 1_555
Se1 Sn1 2.574236 1_565
Se1 Sn0 2.605408 1_555
Se2 Sn2 2.574236 1_556
Se2 Sn1 2.605408 1_555
Se3 Sn0 2.500100 1_555
Se4 Sn1 2.500106 1_555
Se5 Sn2 2.500100 1_555
Se6 Sn0 2.498563 1_555
Se7 Sn1 2.498564 1_555
Se8 Sn2 2.498564 1_555
