# generated using pymatgen
data_Y(Al2Cr)4
_symmetry_space_group_name_H-M   'P 1'
_cell_length_a   6.79386623
_cell_length_b   6.79386623
_cell_length_c   6.79386623
_cell_angle_alpha   97.95112017
_cell_angle_beta   97.95112017
_cell_angle_gamma   136.33122228
_symmetry_Int_Tables_number   1
_chemical_formula_structural   Y(Al2Cr)4
_chemical_formula_sum   'Y1 Al8 Cr4'
_cell_volume   200.99176014
_cell_formula_units_Z   1
loop_
 _symmetry_equiv_pos_site_id
 _symmetry_equiv_pos_as_xyz
  1  'x, y, z'
loop_
 _atom_site_type_symbol
 _atom_site_label
 _atom_site_symmetry_multiplicity
 _atom_site_fract_x
 _atom_site_fract_y
 _atom_site_fract_z
 _atom_site_occupancy
  Y  Y0  1  0.00000000  0.00000000  0.00000000  1
  Al  Al0  1  0.00000000  0.66299800  0.66299800  1
  Al  Al1  1  0.66299800  0.00000000  0.66299800  1
  Al  Al2  1  0.33700200  0.00000000  0.33700200  1
  Al  Al3  1  0.00000000  0.33700200  0.33700200  1
  Al  Al4  1  0.50000000  0.72269300  0.22269300  1
  Al  Al5  1  0.72269300  0.50000000  0.22269300  1
  Al  Al6  1  0.27730700  0.50000000  0.77730700  1
  Al  Al7  1  0.50000000  0.27730700  0.77730700  1
  Cr  Cr0  1  0.50000000  0.50000000  0.50000000  1
  Cr  Cr1  1  0.50000000  0.00000000  0.00000000  1
  Cr  Cr2  1  0.00000000  0.50000000  0.00000000  1
  Cr  Cr3  1  0.00000000  0.00000000  0.50000000  1
loop_
_geom_bond_atom_site_label_1
_geom_bond_atom_site_label_2
_geom_bond_distance
_geom_bond_site_symmetry_2
Al0 Cr1 2.677642 1_566
Al0 Cr2 2.677642 1_556
Al0 Cr0 2.677642 1_455
Al0 Cr3 2.677642 1_565
Al0 Al7 2.724725 1_565
Al0 Al7 2.724725 1_455
Al0 Al5 2.868831 1_455
Al0 Al6 2.868831 1_555
Al0 Al3 2.907470 1_555
Al0 Y0 3.005629 1_566
Al1 Cr3 2.677642 1_655
Al1 Cr1 2.677642 1_556
Al1 Cr0 2.677642 1_545
Al1 Cr2 2.677642 1_656
Al1 Al6 2.724725 1_655
Al1 Al6 2.724725 1_545
Al1 Al4 2.868831 1_545
Al1 Al7 2.868831 1_555
Al1 Al2 2.907470 1_555
Al1 Y0 3.005629 1_656
Al2 Cr1 2.677642 1_555
Al2 Cr3 2.677642 1_555
Al2 Cr2 2.677642 1_545
Al2 Cr0 2.677642 1_555
Al2 Al5 2.724725 1_445
Al2 Al5 2.724725 1_555
Al2 Al4 2.868831 1_545
Al2 Al7 2.868831 1_555
Al2 Y0 3.005629 1_555
Al3 Cr2 2.677642 1_555
Al3 Cr3 2.677642 1_555
Al3 Cr1 2.677642 1_455
Al3 Cr0 2.677642 1_555
Al3 Al4 2.724725 1_445
Al3 Al4 2.724725 1_555
Al3 Al5 2.868831 1_455
Al3 Al6 2.868831 1_555
Al3 Y0 3.005629 1_555
Al4 Cr1 2.574293 1_565
Al4 Cr2 2.574293 1_555
Al4 Cr0 2.574293 1_555
Al4 Cr3 2.574293 1_665
Al4 Al6 2.808824 1_554
Al4 Al5 2.808824 1_555
Al4 Y0 3.213955 1_555
Al4 Y0 3.213955 1_665
Al5 Cr1 2.574293 1_555
Al5 Cr0 2.574293 1_555
Al5 Cr2 2.574293 1_655
Al5 Cr3 2.574293 1_665
Al5 Al7 2.808824 1_554
Al5 Y0 3.213955 1_555
Al5 Y0 3.213955 1_665
Al6 Cr0 2.574293 1_555
Al6 Cr1 2.574293 1_566
Al6 Cr2 2.574293 1_556
Al6 Cr3 2.574293 1_555
Al6 Al7 2.808824 1_555
Al6 Y0 3.213955 1_666
Al6 Y0 3.213955 1_556
Al7 Cr0 2.574293 1_555
Al7 Cr1 2.574293 1_556
Al7 Cr2 2.574293 1_656
Al7 Cr3 2.574293 1_555
Al7 Y0 3.213955 1_666
Al7 Y0 3.213955 1_556
Cr0 Cr3 2.526809 1_665
Cr0 Cr3 2.526809 1_555
Cr0 Y0 3.396933 1_666
Cr0 Y0 3.396933 1_555
Cr1 Cr2 2.526809 1_655
Cr1 Cr2 2.526809 1_545
Cr1 Y0 3.396933 1_655
Cr1 Y0 3.396933 1_555
Cr2 Y0 3.396933 1_555
Cr2 Y0 3.396933 1_565
Cr3 Y0 3.396933 1_556
Cr3 Y0 3.396933 1_555
