# generated using pymatgen
data_Sc2SiB2Ru2Rh3
_symmetry_space_group_name_H-M   'P 1'
_cell_length_a   2.98355641
_cell_length_b   9.22882994
_cell_length_c   9.31593912
_cell_angle_alpha   90.00000000
_cell_angle_beta   90.00000000
_cell_angle_gamma   90.00000000
_symmetry_Int_Tables_number   1
_chemical_formula_structural   Sc2SiB2Ru2Rh3
_chemical_formula_sum   'Sc4 Si2 B4 Ru4 Rh6'
_cell_volume   256.51191286
_cell_formula_units_Z   2
loop_
 _symmetry_equiv_pos_site_id
 _symmetry_equiv_pos_as_xyz
  1  'x, y, z'
loop_
 _atom_site_type_symbol
 _atom_site_label
 _atom_site_symmetry_multiplicity
 _atom_site_fract_x
 _atom_site_fract_y
 _atom_site_fract_z
 _atom_site_occupancy
  Sc  Sc0  1  0.00000000  0.32479326  0.82239828  1
  Sc  Sc1  1  0.00000000  0.67520674  0.17760172  1
  Sc  Sc2  1  0.00000000  0.82479326  0.67760172  1
  Sc  Sc3  1  0.00000000  0.17520674  0.32239828  1
  Si  Si0  1  0.00000000  0.50000000  0.50000000  1
  Si  Si1  1  0.00000000  0.00000000  0.00000000  1
  B  B0  1  0.00000000  0.87946635  0.36994642  1
  B  B1  1  0.00000000  0.12053365  0.63005358  1
  B  B2  1  0.00000000  0.37946635  0.13005358  1
  B  B3  1  0.00000000  0.62053365  0.86994642  1
  Ru  Ru0  1  0.50000000  0.43100953  0.28920025  1
  Ru  Ru1  1  0.50000000  0.56899047  0.71079975  1
  Ru  Ru2  1  0.50000000  0.93100953  0.21079975  1
  Ru  Ru3  1  0.50000000  0.06899047  0.78920025  1
  Rh  Rh0  1  0.50000000  0.71335527  0.43168142  1
  Rh  Rh1  1  0.50000000  0.28664473  0.56831858  1
  Rh  Rh2  1  0.50000000  0.78664473  0.93168142  1
  Rh  Rh3  1  0.50000000  0.21335527  0.06831858  1
  Rh  Rh4  1  0.50000000  0.50000000  0.00000000  1
  Rh  Rh5  1  0.50000000  0.00000000  0.50000000  1
loop_
_geom_bond_atom_site_label_1
_geom_bond_atom_site_label_2
_geom_bond_distance
_geom_bond_site_symmetry_2
B0 Ru2 2.156335 1_455
B0 Ru2 2.156335 1_555
B0 Rh0 2.215014 1_555
B0 Rh0 2.215014 1_455
B0 Rh5 2.220519 1_465
B0 Rh5 2.220519 1_565
B0 Sc1 2.600831 1_555
B0 Sc3 2.765049 1_565
B0 Sc2 2.910173 1_555
B1 Ru3 2.156335 1_555
B1 Ru3 2.156335 1_455
B1 Rh1 2.215014 1_555
B1 Rh1 2.215014 1_455
B1 Rh5 2.220519 1_555
B1 Rh5 2.220519 1_455
B1 Sc0 2.600831 1_555
B1 Sc2 2.765049 1_545
B1 Sc3 2.910173 1_555
B2 Ru0 2.156335 1_455
B2 Ru0 2.156335 1_555
B2 Rh3 2.215014 1_555
B2 Rh3 2.215014 1_455
B2 Rh4 2.220519 1_555
B2 Rh4 2.220519 1_455
B2 Sc3 2.600831 1_555
B2 Sc1 2.765049 1_555
B2 Sc0 2.910173 1_554
B3 Ru1 2.156335 1_455
B3 Ru1 2.156335 1_555
B3 Rh2 2.215014 1_455
B3 Rh2 2.215014 1_555
B3 Rh4 2.220519 1_556
B3 Rh4 2.220519 1_456
B3 Sc2 2.600831 1_555
B3 Sc0 2.765049 1_555
B3 Sc1 2.910173 1_556
Ru0 Si0 2.547016 1_655
Ru0 Si0 2.547016 1_555
Ru0 Sc3 2.809669 1_555
Ru0 Sc3 2.809669 1_655
Ru0 Sc1 2.895725 1_655
Ru0 Sc1 2.895725 1_555
Ru1 Si0 2.547016 1_555
Ru1 Si0 2.547016 1_655
Ru1 Sc2 2.809669 1_655
Ru1 Sc2 2.809669 1_555
Ru1 Sc0 2.895725 1_655
Ru1 Sc0 2.895725 1_555
Ru2 Si1 2.547016 1_665
Ru2 Si1 2.547016 1_565
Ru2 Sc1 2.809669 1_555
Ru2 Sc1 2.809669 1_655
Ru2 Sc3 2.895725 1_565
Ru2 Sc3 2.895725 1_665
Ru3 Si1 2.547016 1_556
Ru3 Si1 2.547016 1_656
Ru3 Sc0 2.809669 1_655
Ru3 Sc0 2.809669 1_555
Ru3 Sc2 2.895725 1_545
Ru3 Sc2 2.895725 1_645
Rh0 Si0 2.550982 1_655
Rh0 Si0 2.550982 1_555
Rh0 Sc1 2.819929 1_555
Rh0 Sc1 2.819929 1_655
Rh0 Sc2 2.920904 1_555
Rh0 Sc2 2.920904 1_655
Rh1 Si0 2.550982 1_655
Rh1 Si0 2.550982 1_555
Rh1 Sc0 2.819929 1_655
Rh1 Sc0 2.819929 1_555
Rh1 Sc3 2.920904 1_555
Rh1 Sc3 2.920904 1_655
Rh2 Si1 2.550982 1_666
Rh2 Si1 2.550982 1_566
Rh2 Sc2 2.819929 1_555
Rh2 Sc2 2.819929 1_655
Rh2 Sc1 2.920904 1_556
Rh2 Sc1 2.920904 1_656
Rh3 Si1 2.550982 1_555
Rh3 Si1 2.550982 1_655
Rh3 Sc3 2.819929 1_555
Rh3 Sc3 2.819929 1_655
Rh3 Sc0 2.920904 1_554
Rh3 Sc0 2.920904 1_654
Rh4 Sc1 2.752708 1_655
Rh4 Sc1 2.752708 1_555
Rh4 Sc0 2.752708 1_654
Rh4 Sc0 2.752708 1_554
Rh5 Sc2 2.752708 1_645
Rh5 Sc2 2.752708 1_545
Rh5 Sc3 2.752708 1_555
Rh5 Sc3 2.752708 1_655
