# generated using pymatgen
data_CuAg(Se3I)2
_symmetry_space_group_name_H-M   'P 1'
_cell_length_a   4.94875876
_cell_length_b   8.07405759
_cell_length_c   14.60329607
_cell_angle_alpha   88.63098426
_cell_angle_beta   90.00000000
_cell_angle_gamma   90.00000000
_symmetry_Int_Tables_number   1
_chemical_formula_structural   CuAg(Se3I)2
_chemical_formula_sum   'Cu2 Ag2 Se12 I4'
_cell_volume   583.33096622
_cell_formula_units_Z   2
loop_
 _symmetry_equiv_pos_site_id
 _symmetry_equiv_pos_as_xyz
  1  'x, y, z'
loop_
 _atom_site_type_symbol
 _atom_site_label
 _atom_site_symmetry_multiplicity
 _atom_site_fract_x
 _atom_site_fract_y
 _atom_site_fract_z
 _atom_site_occupancy
  Cu  Cu0  1  0.68065001  0.25000000  0.75000000  1
  Cu  Cu1  1  0.31934999  0.75000000  0.25000000  1
  Ag  Ag0  1  0.29824990  0.75000000  0.75000000  1
  Ag  Ag1  1  0.70175010  0.25000000  0.25000000  1
  Se  Se0  1  0.40993194  0.36241961  0.62806051  1
  Se  Se1  1  0.61984339  0.86538448  0.88057607  1
  Se  Se2  1  0.62524977  0.26165502  0.99854047  1
  Se  Se3  1  0.59006806  0.86241961  0.12806051  1
  Se  Se4  1  0.37475023  0.73834498  0.00145953  1
  Se  Se5  1  0.61984339  0.63461552  0.61942393  1
  Se  Se6  1  0.38015661  0.36538448  0.38057607  1
  Se  Se7  1  0.62524977  0.23834498  0.50145953  1
  Se  Se8  1  0.37475023  0.76165502  0.49854047  1
  Se  Se9  1  0.59006806  0.63758039  0.37193949  1
  Se  Se10  1  0.38015661  0.13461552  0.11942393  1
  Se  Se11  1  0.40993194  0.13758039  0.87193949  1
  I  I0  1  0.01729024  0.51646361  0.17512796  1
  I  I1  1  0.01729024  0.98353639  0.32487204  1
  I  I2  1  0.98270976  0.01646361  0.67512796  1
  I  I3  1  0.98270976  0.48353639  0.82487204  1
loop_
_geom_bond_atom_site_label_1
_geom_bond_atom_site_label_2
_geom_bond_distance
_geom_bond_site_symmetry_2
Cu0 Se11 2.390075 1_555
Cu0 Se0 2.390075 1_555
Cu0 I3 2.661562 1_555
Cu0 I2 2.661562 1_555
Cu1 Se9 2.390075 1_555
Cu1 Se3 2.390075 1_555
Cu1 I1 2.661562 1_555
Cu1 I0 2.661562 1_555
Ag0 Se1 2.668648 1_555
Ag0 Se5 2.668648 1_555
Ag0 I2 2.854849 1_465
Ag0 I3 2.854849 1_455
Ag1 Se6 2.668648 1_555
Ag1 Se10 2.668648 1_555
Ag1 I1 2.854849 1_645
Ag1 I0 2.854849 1_655
Se0 Se7 2.376029 1_555
Se0 Se5 2.431413 1_555
Se1 Se4 2.356482 1_556
Se1 Se11 2.431413 1_565
Se3 Se4 2.376029 1_555
Se5 Se8 2.356482 1_555
Se6 Se7 2.356482 1_555
Se6 Se9 2.431413 1_555
Se8 Se9 2.376029 1_555
Se10 Se2 2.356482 1_554
Se10 Se3 2.431413 1_545
Se11 Se2 2.376029 1_555
