# generated using pymatgen
data_RbSnPRh2
_symmetry_space_group_name_H-M   'P 1'
_cell_length_a   8.09692170
_cell_length_b   8.09692200
_cell_length_c   8.09692185
_cell_angle_alpha   151.23317568
_cell_angle_beta   151.23317676
_cell_angle_gamma   41.13419387
_symmetry_Int_Tables_number   1
_chemical_formula_structural   RbSnPRh2
_chemical_formula_sum   'Rb1 Sn1 P1 Rh2'
_cell_volume   122.67419375
_cell_formula_units_Z   1
loop_
 _symmetry_equiv_pos_site_id
 _symmetry_equiv_pos_as_xyz
  1  'x, y, z'
loop_
 _atom_site_type_symbol
 _atom_site_label
 _atom_site_symmetry_multiplicity
 _atom_site_fract_x
 _atom_site_fract_y
 _atom_site_fract_z
 _atom_site_occupancy
  Rb  Rb0  1  0.02048553  0.02048553  0.00000000  1
  Sn  Sn0  1  0.34764435  0.34764435  1.00000000  1
  P  P0  1  0.66368693  0.66368693  0.00000000  1
  Rh  Rh0  1  0.73409110  0.23409110  0.50000000  1
  Rh  Rh1  1  0.23409110  0.73409110  0.50000000  1
loop_
_geom_bond_atom_site_label_1
_geom_bond_atom_site_label_2
_geom_bond_distance
_geom_bond_site_symmetry_2
Rb0 Sn0 3.867611 1_443
Rb0 Sn0 3.867611 1_555
Rb0 Sn0 3.867611 1_454
Rb0 Sn0 3.867611 1_544
P0 Rh1 2.277054 1_655
P0 Rh1 2.277054 1_554
P0 Rh0 2.277054 1_554
P0 Rh0 2.277054 1_565
P0 Rb0 3.578416 1_554
P0 Rb0 3.578416 1_666
P0 Rb0 3.578416 1_565
P0 Rb0 3.578417 1_655
Rh0 Sn0 2.647572 1_655
Rh0 Sn0 2.647572 1_554
Rh1 Sn0 2.647572 1_554
Rh1 Sn0 2.647572 1_565
