# generated using pymatgen
data_Sr3Ir4PbO14
_symmetry_space_group_name_H-M   'P 1'
_cell_length_a   7.35581812
_cell_length_b   7.35581753
_cell_length_c   7.33116119
_cell_angle_alpha   59.88867369
_cell_angle_beta   59.88867989
_cell_angle_gamma   59.99999616
_symmetry_Int_Tables_number   1
_chemical_formula_structural   Sr3Ir4PbO14
_chemical_formula_sum   'Sr3 Ir4 Pb1 O14'
_cell_volume   280.01859341
_cell_formula_units_Z   1
loop_
 _symmetry_equiv_pos_site_id
 _symmetry_equiv_pos_as_xyz
  1  'x, y, z'
loop_
 _atom_site_type_symbol
 _atom_site_label
 _atom_site_symmetry_multiplicity
 _atom_site_fract_x
 _atom_site_fract_y
 _atom_site_fract_z
 _atom_site_occupancy
  Sr  Sr0  1  0.62500000  0.12500000  0.12500000  1
  Sr  Sr1  1  0.12500000  0.62500000  0.12500000  1
  Sr  Sr2  1  0.12500000  0.12500000  0.12500000  1
  Ir  Ir0  1  0.12500000  0.62500000  0.62500000  1
  Ir  Ir1  1  0.62500000  0.12500000  0.62500000  1
  Ir  Ir2  1  0.62500000  0.62500000  0.12500000  1
  Ir  Ir3  1  0.62500000  0.62500000  0.62500000  1
  Pb  Pb0  1  0.12500000  0.12500000  0.62500000  1
  O  O0  1  0.69822033  0.69822033  0.30356488  1
  O  O1  1  0.30197645  0.30197645  0.68174432  1
  O  O2  1  0.71430278  0.30197645  0.68174432  1
  O  O3  1  0.29999545  0.69822033  0.30356488  1
  O  O4  1  0.30197645  0.71430278  0.68174432  1
  O  O5  1  0.69822033  0.29999545  0.30356488  1
  O  O6  1  0.55177967  0.55177967  0.94643512  1
  O  O7  1  0.94802355  0.94802355  0.56825568  1
  O  O8  1  0.53569722  0.94802355  0.56825568  1
  O  O9  1  0.95000455  0.55177967  0.94643512  1
  O  O10  1  0.94802355  0.53569722  0.56825568  1
  O  O11  1  0.55177967  0.95000455  0.94643512  1
  O  O12  1  0.23758486  0.23758486  0.28724543  1
  O  O13  1  0.01241514  0.01241514  0.96275457  1
loop_
_geom_bond_atom_site_label_1
_geom_bond_atom_site_label_2
_geom_bond_distance
_geom_bond_site_symmetry_2
Ir0 O9 1.968855 1_455
Ir0 O3 1.968855 1_555
Ir0 O7 1.992983 1_455
Ir0 O1 1.992983 1_555
Ir0 O4 1.992983 1_555
Ir0 O10 1.992983 1_455
Ir1 O11 1.968854 1_545
Ir1 O5 1.968854 1_555
Ir1 O7 1.992983 1_545
Ir1 O1 1.992983 1_555
Ir1 O2 1.992983 1_555
Ir1 O8 1.992983 1_545
Ir2 O11 1.999706 1_554
Ir2 O5 1.999706 1_555
Ir2 O9 1.999706 1_554
Ir2 O3 1.999706 1_555
Ir2 O0 1.999712 1_555
Ir2 O6 1.999712 1_554
Ir3 O6 1.968853 1_555
Ir3 O0 1.968853 1_555
Ir3 O8 1.992983 1_555
Ir3 O2 1.992983 1_555
Ir3 O10 1.992983 1_555
Ir3 O4 1.992983 1_555
O0 Sr0 2.598508 1_565
O0 Sr1 2.598509 1_655
O1 Pb0 2.518712 1_555
O1 Sr2 2.674839 1_556
O2 Pb0 2.518712 1_655
O2 Sr0 2.674839 1_556
O3 Sr2 2.598509 1_565
O3 Sr1 2.598515 1_555
O4 Pb0 2.518711 1_565
O4 Sr1 2.674839 1_556
O5 Sr2 2.598510 1_655
O5 Sr0 2.598515 1_555
O6 Sr0 2.598508 1_556
O6 Sr1 2.598509 1_556
O7 Pb0 2.518712 1_665
O7 Sr2 2.674839 1_665
O8 Pb0 2.518712 1_565
O8 Sr0 2.674839 1_565
O9 Sr2 2.598509 1_656
O9 Sr1 2.598515 1_656
O10 Pb0 2.518711 1_655
O10 Sr1 2.674839 1_655
O11 Sr2 2.598510 1_566
O11 Sr0 2.598515 1_566
O12 Pb0 2.018346 1_555
O12 Sr1 2.334313 1_555
O12 Sr0 2.334313 1_555
O12 Sr2 2.334313 1_555
O13 Pb0 2.018346 1_555
O13 Sr1 2.334313 1_546
O13 Sr0 2.334313 1_456
O13 Sr2 2.334313 1_556
