# generated using pymatgen
data_RbLiMnSe2
_symmetry_space_group_name_H-M   'P 1'
_cell_length_a   7.68241229
_cell_length_b   7.68241270
_cell_length_c   7.68241279
_cell_angle_alpha   147.80843661
_cell_angle_beta   147.80844419
_cell_angle_gamma   46.16823088
_symmetry_Int_Tables_number   1
_chemical_formula_structural   RbLiMnSe2
_chemical_formula_sum   'Rb1 Li1 Mn1 Se2'
_cell_volume   128.24242404
_cell_formula_units_Z   1
loop_
 _symmetry_equiv_pos_site_id
 _symmetry_equiv_pos_as_xyz
  1  'x, y, z'
loop_
 _atom_site_type_symbol
 _atom_site_label
 _atom_site_symmetry_multiplicity
 _atom_site_fract_x
 _atom_site_fract_y
 _atom_site_fract_z
 _atom_site_occupancy
  Rb  Rb0  1  0.00000000  0.00000000  0.00000000  1
  Li  Li0  1  0.75000000  0.25000000  0.50000000  1
  Mn  Mn0  1  0.25000000  0.75000000  0.50000000  1
  Se  Se0  1  0.64886936  0.64886936  0.00000000  1
  Se  Se1  1  0.35113064  0.35113064  1.00000000  1
loop_
_geom_bond_atom_site_label_1
_geom_bond_atom_site_label_2
_geom_bond_distance
_geom_bond_site_symmetry_2
Rb0 Se0 3.674321 1_556
Rb0 Se1 3.674321 1_443
Rb0 Se0 3.674322 1_545
Rb0 Se1 3.674322 1_454
Rb0 Se0 3.674322 1_444
Rb0 Se1 3.674322 1_555
Rb0 Se0 3.674322 1_455
Rb0 Se1 3.674322 1_544
Li0 Se1 2.565107 1_655
Li0 Se1 2.565107 1_554
Li0 Se0 2.565107 1_545
Li0 Se0 2.565107 1_556
Mn0 Se0 2.565107 1_455
Mn0 Se0 2.565107 1_556
Mn0 Se1 2.565107 1_565
Mn0 Se1 2.565107 1_554
