# generated using pymatgen
data_Zr10Ga3SnSb4
_symmetry_space_group_name_H-M   'P 1'
_cell_length_a   8.62685345
_cell_length_b   8.64116290
_cell_length_c   5.83561904
_cell_angle_alpha   90.00000000
_cell_angle_beta   90.00000000
_cell_angle_gamma   120.12434767
_symmetry_Int_Tables_number   1
_chemical_formula_structural   Zr10Ga3SnSb4
_chemical_formula_sum   'Zr10 Ga3 Sn1 Sb4'
_cell_volume   376.26743880
_cell_formula_units_Z   1
loop_
 _symmetry_equiv_pos_site_id
 _symmetry_equiv_pos_as_xyz
  1  'x, y, z'
loop_
 _atom_site_type_symbol
 _atom_site_label
 _atom_site_symmetry_multiplicity
 _atom_site_fract_x
 _atom_site_fract_y
 _atom_site_fract_z
 _atom_site_occupancy
  Zr  Zr0  1  0.27652913  0.27654671  0.75000000  1
  Zr  Zr1  1  0.73699570  0.73762216  0.25000000  1
  Zr  Zr2  1  0.72670735  0.98938922  0.75000000  1
  Zr  Zr3  1  0.00059790  0.26405664  0.25000000  1
  Zr  Zr4  1  0.33584963  0.66534738  0.50329518  1
  Zr  Zr5  1  0.66623951  0.33649796  0.50310520  1
  Zr  Zr6  1  0.98970616  0.72521629  0.75000000  1
  Zr  Zr7  1  0.33584963  0.66534738  0.99670482  1
  Zr  Zr8  1  0.26358910  0.00118865  0.25000000  1
  Zr  Zr9  1  0.66623951  0.33649796  0.99689480  1
  Ga  Ga0  1  0.00185889  0.00072596  0.50929896  1
  Ga  Ga1  1  0.61271403  0.61248429  0.75000000  1
  Ga  Ga2  1  0.00185889  0.00072596  0.99070104  1
  Sn  Sn0  1  0.38326166  0.99829385  0.75000000  1
  Sb  Sb0  1  0.60784145  0.00004798  0.25000000  1
  Sb  Sb1  1  0.39519228  0.39478453  0.25000000  1
  Sb  Sb2  1  0.99840298  0.38442867  0.75000000  1
  Sb  Sb3  1  0.00056420  0.61079639  0.25000000  1
loop_
_geom_bond_atom_site_label_1
_geom_bond_atom_site_label_2
_geom_bond_distance
_geom_bond_site_symmetry_2
Ga0 Zr8 2.716392 1_555
Ga0 Zr2 2.717281 1_445
Ga0 Zr6 2.720536 1_445
Ga0 Zr1 2.732243 1_445
Ga0 Zr3 2.737238 1_555
Ga0 Zr0 2.756733 1_555
Ga1 Zr6 2.888956 1_555
Ga1 Zr2 2.891294 1_555
Ga1 Zr0 2.896100 1_555
Ga1 Zr7 3.013513 1_555
Ga1 Zr4 3.013513 1_555
Ga1 Zr5 3.013620 1_555
Ga1 Zr9 3.013620 1_555
Ga1 Zr1 3.109454 1_555
Ga1 Zr1 3.109454 1_556
Ga2 Zr8 2.716392 1_556
Ga2 Zr2 2.717281 1_445
Ga2 Zr6 2.720536 1_445
Ga2 Zr1 2.732243 1_446
Ga2 Zr3 2.737238 1_556
Ga2 Zr0 2.756733 1_555
Sn0 Zr0 2.975116 1_565
Sn0 Zr2 3.002211 1_555
Sn0 Zr6 3.008918 1_455
Sn0 Zr7 3.055514 1_555
Sn0 Zr4 3.055514 1_555
Sn0 Zr5 3.068396 1_565
Sn0 Zr9 3.068396 1_565
Sn0 Zr8 3.099356 1_565
Sn0 Zr8 3.099356 1_566
Sb0 Zr8 2.974774 1_555
Sb0 Zr1 2.986611 1_545
Sb0 Zr3 2.987637 1_655
Sb0 Zr4 3.040331 1_545
Sb0 Zr7 3.040331 1_544
Sb0 Zr9 3.068832 1_554
Sb0 Zr5 3.068832 1_555
Sb0 Zr2 3.109409 1_544
Sb0 Zr2 3.109409 1_545
Sb1 Zr1 2.950069 1_555
Sb1 Zr8 2.996788 1_555
Sb1 Zr3 3.000696 1_555
Sb1 Zr5 3.014132 1_555
Sb1 Zr9 3.014132 1_554
Sb1 Zr4 3.019024 1_555
Sb1 Zr7 3.019024 1_554
Sb1 Zr0 3.091214 1_555
Sb1 Zr0 3.091214 1_554
Sb2 Zr0 2.978436 1_655
Sb2 Zr6 2.983161 1_555
Sb2 Zr2 3.019157 1_545
Sb2 Zr5 3.044231 1_555
Sb2 Zr9 3.044231 1_555
Sb2 Zr7 3.057225 1_655
Sb2 Zr4 3.057225 1_655
Sb2 Zr3 3.100913 1_656
Sb2 Zr3 3.100913 1_655
Sb3 Zr8 2.974134 1_565
Sb3 Zr1 2.978640 1_455
Sb3 Zr3 2.996381 1_555
Sb3 Zr9 3.042409 1_454
Sb3 Zr5 3.042409 1_455
Sb3 Zr4 3.066727 1_555
Sb3 Zr7 3.066727 1_554
Sb3 Zr6 3.097244 1_455
Sb3 Zr6 3.097244 1_454
