# generated using pymatgen
data_Cs3Sb(AsSe2)6
_symmetry_space_group_name_H-M   'P 1'
_cell_length_a   9.99227348
_cell_length_b   9.99227344
_cell_length_c   8.58178831
_cell_angle_alpha   90.00000000
_cell_angle_beta   90.00000000
_cell_angle_gamma   119.99999801
_symmetry_Int_Tables_number   1
_chemical_formula_structural   Cs3Sb(AsSe2)6
_chemical_formula_sum   'Cs3 Sb1 As6 Se12'
_cell_volume   742.05664712
_cell_formula_units_Z   1
loop_
 _symmetry_equiv_pos_site_id
 _symmetry_equiv_pos_as_xyz
  1  'x, y, z'
loop_
 _atom_site_type_symbol
 _atom_site_label
 _atom_site_symmetry_multiplicity
 _atom_site_fract_x
 _atom_site_fract_y
 _atom_site_fract_z
 _atom_site_occupancy
  Cs  Cs0  1  0.00000000  0.00000000  0.00000000  1
  Cs  Cs1  1  0.33333300  0.66666700  0.85472737  1
  Cs  Cs2  1  0.66666700  0.33333300  0.14527263  1
  Sb  Sb0  1  0.00000000  0.00000000  0.50000000  1
  As  As0  1  0.29007274  0.83740765  0.39527582  1
  As  As1  1  0.16259235  0.45266509  0.39527582  1
  As  As2  1  0.54733491  0.70992726  0.39527582  1
  As  As3  1  0.70992726  0.16259235  0.60472418  1
  As  As4  1  0.83740765  0.54733491  0.60472418  1
  As  As5  1  0.45266509  0.29007274  0.60472418  1
  Se  Se0  1  0.25920041  0.04294754  0.30761216  1
  Se  Se1  1  0.95705246  0.21625288  0.30761216  1
  Se  Se2  1  0.78374712  0.74079959  0.30761216  1
  Se  Se3  1  0.74079959  0.95705246  0.69238784  1
  Se  Se4  1  0.04294754  0.78374712  0.69238784  1
  Se  Se5  1  0.21625288  0.25920041  0.69238784  1
  Se  Se6  1  0.52449274  0.90449202  0.24341212  1
  Se  Se7  1  0.09550798  0.61999973  0.24341212  1
  Se  Se8  1  0.38000027  0.47550726  0.24341212  1
  Se  Se9  1  0.47550726  0.09550798  0.75658788  1
  Se  Se10  1  0.90449202  0.38000027  0.75658788  1
  Se  Se11  1  0.61999973  0.52449274  0.75658788  1
loop_
_geom_bond_atom_site_label_1
_geom_bond_atom_site_label_2
_geom_bond_distance
_geom_bond_site_symmetry_2
Cs0 Se1 3.570667 1_455
Cs0 Se4 3.570667 1_544
Cs0 Se0 3.570667 1_555
Cs0 Se3 3.570667 1_444
Cs0 Se5 3.570667 1_554
Cs0 Se2 3.570667 1_445
Cs1 Se11 3.873242 1_555
Cs1 Se9 3.873242 1_565
Cs1 Se10 3.873242 1_455
Cs1 Se4 3.888894 1_555
Cs1 Se3 3.888900 1_555
Cs1 Se5 3.888903 1_555
Cs1 Se7 3.985339 1_556
Cs1 Se6 3.985343 1_556
Cs1 Se8 3.985350 1_556
Cs2 Se8 3.873242 1_555
Cs2 Se6 3.873242 1_545
Cs2 Se7 3.873242 1_655
Cs2 Se1 3.888894 1_555
Cs2 Se0 3.888900 1_555
Cs2 Se2 3.888903 1_555
Cs2 Se10 3.985339 1_554
Cs2 Se9 3.985343 1_554
Cs2 Se11 3.985350 1_554
Sb0 Se1 2.916624 1_455
Sb0 Se4 2.916624 1_545
Sb0 Se0 2.916624 1_555
Sb0 Se3 2.916624 1_445
Sb0 Se5 2.916624 1_555
Sb0 Se2 2.916624 1_445
As0 Se0 2.347944 1_565
As0 Se7 2.444187 1_555
As0 Se6 2.462611 1_555
As1 Se1 2.347944 1_455
As1 Se8 2.444191 1_555
As1 Se7 2.462602 1_555
As2 Se2 2.347944 1_555
As2 Se6 2.444182 1_555
As2 Se8 2.462609 1_555
As3 Se3 2.347944 1_545
As3 Se10 2.444187 1_555
As3 Se9 2.462611 1_555
As4 Se4 2.347944 1_655
As4 Se11 2.444191 1_555
As4 Se10 2.462602 1_555
As5 Se5 2.347944 1_555
As5 Se9 2.444182 1_555
As5 Se11 2.462609 1_555
