# generated using pymatgen
data_KSrFeO3
_symmetry_space_group_name_H-M   'P 1'
_cell_length_a   6.27492164
_cell_length_b   6.27492228
_cell_length_c   12.23173728
_cell_angle_alpha   90.00000000
_cell_angle_beta   90.00000000
_cell_angle_gamma   126.00832248
_symmetry_Int_Tables_number   1
_chemical_formula_structural   KSrFeO3
_chemical_formula_sum   'K4 Sr4 Fe4 O12'
_cell_volume   389.59790028
_cell_formula_units_Z   4
loop_
 _symmetry_equiv_pos_site_id
 _symmetry_equiv_pos_as_xyz
  1  'x, y, z'
loop_
 _atom_site_type_symbol
 _atom_site_label
 _atom_site_symmetry_multiplicity
 _atom_site_fract_x
 _atom_site_fract_y
 _atom_site_fract_z
 _atom_site_occupancy
  K  K0  1  0.46263423  0.53736577  0.64615516  1
  K  K1  1  0.53736577  0.46263423  0.35384484  1
  K  K2  1  0.03736577  0.96263423  0.14615516  1
  K  K3  1  0.96263423  0.03736577  0.85384484  1
  Sr  Sr0  1  0.64288630  0.35711370  0.91962084  1
  Sr  Sr1  1  0.85711370  0.14288630  0.41962084  1
  Sr  Sr2  1  0.14288630  0.85711370  0.58037916  1
  Sr  Sr3  1  0.35711370  0.64288630  0.08037916  1
  Fe  Fe0  1  0.23241661  0.76758339  0.33931343  1
  Fe  Fe1  1  0.73241661  0.26758339  0.16068657  1
  Fe  Fe2  1  0.76758339  0.23241661  0.66068657  1
  Fe  Fe3  1  0.26758339  0.73241661  0.83931343  1
  O  O0  1  0.96025921  0.53974079  0.75000000  1
  O  O1  1  0.53974079  0.96025921  0.25000000  1
  O  O2  1  0.03974079  0.46025921  0.25000000  1
  O  O3  1  0.46025921  0.03974079  0.75000000  1
  O  O4  1  0.42725194  0.57274806  0.87815567  1
  O  O5  1  0.57274806  0.42725194  0.12184433  1
  O  O6  1  0.07274806  0.92725194  0.37815567  1
  O  O7  1  0.67267705  0.32732295  0.53701710  1
  O  O8  1  0.17267705  0.82732295  0.96298290  1
  O  O9  1  0.82732295  0.17267705  0.03701710  1
  O  O10  1  0.32732295  0.67267705  0.46298290  1
  O  O11  1  0.92725194  0.07274806  0.62184433  1
loop_
_geom_bond_atom_site_label_1
_geom_bond_atom_site_label_2
_geom_bond_distance
_geom_bond_site_symmetry_2
K0 O7 2.701643 1_555
K0 O10 2.703589 1_555
K0 O4 2.865219 1_555
K0 O11 2.891031 1_455
K0 O11 2.891031 1_565
K1 O10 2.701643 1_555
K1 O7 2.703589 1_555
K1 O5 2.865219 1_555
K1 O6 2.891031 1_655
K1 O6 2.891031 1_545
K2 O9 2.701643 1_465
K2 O8 2.703589 1_554
K2 O6 2.865219 1_555
K2 O5 2.891031 1_565
K2 O5 2.891031 1_455
K3 O8 2.701643 1_645
K3 O9 2.703589 1_556
K3 O11 2.865219 1_555
K3 O4 2.891031 1_545
K3 O4 2.891031 1_655
Fe0 O6 1.847610 1_555
Fe0 O10 1.847852 1_555
Fe0 O1 1.905951 1_555
Fe0 O2 1.905951 1_555
Fe1 O5 1.847610 1_555
Fe1 O9 1.847852 1_555
Fe1 O2 1.905951 1_655
Fe1 O1 1.905951 1_545
Fe2 O11 1.847610 1_555
Fe2 O7 1.847852 1_555
Fe2 O3 1.905951 1_555
Fe2 O0 1.905951 1_555
Fe3 O4 1.847610 1_555
Fe3 O8 1.847852 1_555
Fe3 O0 1.905951 1_455
Fe3 O3 1.905951 1_565
O0 Sr0 2.626878 1_555
O0 Sr2 2.626878 1_655
O1 Sr1 2.626878 1_565
O1 Sr3 2.626878 1_555
O2 Sr3 2.626878 1_555
O2 Sr1 2.626878 1_455
O3 Sr2 2.626878 1_545
O3 Sr0 2.626878 1_555
O4 Sr0 2.464075 1_555
O4 Sr3 2.594913 1_556
O5 Sr3 2.464075 1_555
O5 Sr0 2.594913 1_554
O6 Sr1 2.464075 1_465
O6 Sr2 2.594913 1_555
O7 Sr1 2.513098 1_555
O7 Sr2 2.916399 1_545
O7 Sr2 2.916399 1_655
O8 Sr3 2.513098 1_556
O8 Sr0 2.916399 1_455
O8 Sr0 2.916399 1_565
O9 Sr0 2.513098 1_554
O9 Sr3 2.916399 1_655
O9 Sr3 2.916399 1_545
O10 Sr2 2.513098 1_555
O10 Sr1 2.916399 1_565
O10 Sr1 2.916399 1_455
O11 Sr2 2.464075 1_645
O11 Sr1 2.594913 1_555
