# generated using pymatgen
data_MgH8C3(NO3)2
_symmetry_space_group_name_H-M   'P 1'
_cell_length_a   8.82298971
_cell_length_b   7.60582533
_cell_length_c   11.39565645
_cell_angle_alpha   90.00000000
_cell_angle_beta   90.00000000
_cell_angle_gamma   90.00000000
_symmetry_Int_Tables_number   1
_chemical_formula_structural   MgH8C3(NO3)2
_chemical_formula_sum   'Mg4 H32 C12 N8 O24'
_cell_volume   764.71827339
_cell_formula_units_Z   4
loop_
 _symmetry_equiv_pos_site_id
 _symmetry_equiv_pos_as_xyz
  1  'x, y, z'
loop_
 _atom_site_type_symbol
 _atom_site_label
 _atom_site_symmetry_multiplicity
 _atom_site_fract_x
 _atom_site_fract_y
 _atom_site_fract_z
 _atom_site_occupancy
  Mg  Mg0  1  0.54547023  0.49930438  0.51163638  1
  Mg  Mg1  1  0.45452980  0.50069565  0.01163638  1
  Mg  Mg2  1  0.04547021  0.00069563  0.51163638  1
  Mg  Mg3  1  0.95452977  0.99930435  0.01163638  1
  H  H0  1  0.55170605  0.41701959  0.76191163  1
  H  H1  1  0.44829392  0.58298044  0.26191166  1
  H  H2  1  0.05170606  0.08298043  0.76191163  1
  H  H3  1  0.94829395  0.91701956  0.26191166  1
  H  H4  1  0.28075674  0.73253155  0.57010234  1
  H  H5  1  0.71924326  0.26746845  0.07010233  1
  H  H6  1  0.78075674  0.76746845  0.57010234  1
  H  H7  1  0.21924328  0.23253157  0.07010233  1
  H  H8  1  0.35509519  0.17207667  0.51305037  1
  H  H9  1  0.64490481  0.82792334  0.01305036  1
  H  H10  1  0.85509519  0.32792331  0.51305037  1
  H  H11  1  0.14490481  0.67207666  0.01305036  1
  H  H12  1  0.08878336  0.40957339  0.67342961  1
  H  H13  1  0.91121664  0.59042664  0.17342960  1
  H  H14  1  0.58878336  0.09042661  0.67342961  1
  H  H15  1  0.41121664  0.90957336  0.17342960  1
  H  H16  1  0.08435104  0.62923598  0.70279334  1
  H  H17  1  0.91564895  0.37076399  0.20279334  1
  H  H18  1  0.58435105  0.87076402  0.70279334  1
  H  H19  1  0.41564895  0.12923599  0.20279334  1
  H  H20  1  0.15608672  0.48312588  0.80276537  1
  H  H21  1  0.84391326  0.51687409  0.30276537  1
  H  H22  1  0.65608674  0.01687412  0.80276537  1
  H  H23  1  0.34391329  0.98312591  0.30276537  1
  H  H24  1  0.92907842  0.39089378  0.84635888  1
  H  H25  1  0.07092158  0.60910622  0.34635891  1
  H  H26  1  0.42907842  0.10910623  0.84635888  1
  H  H27  1  0.57092158  0.89089378  0.34635891  1
  H  H28  1  0.90901866  0.60530936  0.83222874  1
  H  H29  1  0.09098136  0.39469067  0.33222874  1
  H  H30  1  0.40901863  0.89469064  0.83222874  1
  H  H31  1  0.59098134  0.10530934  0.33222874  1
  C  C0  1  0.54113599  0.56085608  0.76272114  1
  C  C1  1  0.45886401  0.43914395  0.26272114  1
  C  C2  1  0.04113598  0.93914392  0.76272114  1
  C  C3  1  0.95886401  0.06085606  0.26272114  1
  C  C4  1  0.32364975  0.78803914  0.48762869  1
  C  C5  1  0.67635028  0.21196086  0.98762866  1
  C  C6  1  0.82364972  0.71196086  0.48762869  1
  C  C7  1  0.17635025  0.28803914  0.98762866  1
  C  C8  1  0.28249073  0.27042645  0.55591070  1
  C  C9  1  0.71750930  0.72957355  0.05591072  1
  C  C10  1  0.78249070  0.22957353  0.55591070  1
  C  C11  1  0.21750928  0.77042645  0.05591072  1
  N  N0  1  0.92213547  0.49066583  0.78637884  1
  N  N1  1  0.07786452  0.50933417  0.28637884  1
  N  N2  1  0.42213547  0.00933416  0.78637884  1
  N  N3  1  0.57786453  0.99066583  0.28637884  1
  N  N4  1  0.07404771  0.50351106  0.73849832  1
  N  N5  1  0.92595230  0.49648894  0.23849835  1
  N  N6  1  0.57404770  0.99648894  0.73849832  1
  N  N7  1  0.42595230  0.00351106  0.23849835  1
  O  O0  1  0.56966091  0.64219778  0.66817490  1
  O  O1  1  0.43033912  0.35780225  0.16817489  1
  O  O2  1  0.06966088  0.85780222  0.66817490  1
  O  O3  1  0.93033909  0.14219777  0.16817489  1
  O  O4  1  0.50191438  0.63420639  0.85707946  1
  O  O5  1  0.49808562  0.36579361  0.35707946  1
  O  O6  1  0.00191437  0.86579361  0.85707946  1
  O  O7  1  0.99808562  0.13420639  0.35707946  1
  O  O8  1  0.44382127  0.72508722  0.44546881  1
  O  O9  1  0.55617875  0.27491275  0.94546878  1
  O  O10  1  0.94382125  0.77491278  0.44546881  1
  O  O11  1  0.05617874  0.22508725  0.94546878  1
  O  O12  1  0.24854914  0.91185799  0.44109647  1
  O  O13  1  0.75145087  0.08814201  0.94109644  1
  O  O14  1  0.74854913  0.58814201  0.44109647  1
  O  O15  1  0.25145084  0.41185799  0.94109644  1
  O  O16  1  0.33902034  0.41725887  0.58105826  1
  O  O17  1  0.66098067  0.58274113  0.08105827  1
  O  O18  1  0.83901933  0.08274114  0.58105826  1
  O  O19  1  0.16098064  0.91725887  0.08105827  1
  O  O20  1  0.14567119  0.22822033  0.57587774  1
  O  O21  1  0.85432881  0.77177966  0.07587772  1
  O  O22  1  0.64567119  0.27177969  0.57587774  1
  O  O23  1  0.35432881  0.72822034  0.07587772  1
loop_
_geom_bond_atom_site_label_1
_geom_bond_atom_site_label_2
_geom_bond_distance
_geom_bond_site_symmetry_2
Mg0 O5 2.075582 1_555
Mg0 O22 2.076581 1_555
Mg0 O14 2.076809 1_555
Mg0 O8 2.078914 1_555
Mg0 O16 2.081619 1_555
Mg0 O0 2.099736 1_555
Mg1 O4 2.075582 1_554
Mg1 O23 2.076581 1_555
Mg1 O15 2.076810 1_554
Mg1 O9 2.078915 1_554
Mg1 O17 2.081627 1_555
Mg1 O1 2.099736 1_555
Mg2 O7 2.075582 1_455
Mg2 O20 2.076581 1_555
Mg2 O12 2.076809 1_545
Mg2 O10 2.078914 1_445
Mg2 O18 2.081627 1_455
Mg2 O2 2.099736 1_545
Mg3 O6 2.075582 1_654
Mg3 O21 2.076581 1_555
Mg3 O13 2.076809 1_564
Mg3 O11 2.078915 1_664
Mg3 O19 2.081627 1_655
Mg3 O3 2.099736 1_565
H12 N4 1.037882 1_555
H13 N5 1.037882 1_555
H14 N6 1.037882 1_545
H15 N7 1.037882 1_565
H16 N4 1.043175 1_555
H17 N5 1.043176 1_555
H18 N6 1.043175 1_555
H19 N7 1.043176 1_555
H20 N4 1.041310 1_555
H21 N5 1.041310 1_555
H22 N6 1.041310 1_545
H23 N7 1.041310 1_565
H24 N0 1.023129 1_555
H25 N1 1.023129 1_555
H26 N2 1.023129 1_555
H27 N3 1.023129 1_555
H28 N0 1.023084 1_555
H29 N1 1.023084 1_555
H30 N2 1.023084 1_565
H31 N3 1.023084 1_545
C0 H0 1.098002 1_555
C0 O4 1.259845 1_555
C0 O0 1.267643 1_555
C1 H1 1.098002 1_555
C1 O5 1.259845 1_555
C1 O1 1.267644 1_555
C2 H2 1.098002 1_565
C2 O6 1.259845 1_555
C2 O2 1.267643 1_555
C3 H3 1.098002 1_545
C3 O7 1.259845 1_555
C3 O3 1.267644 1_555
C4 H4 1.097615 1_555
C4 O8 1.258670 1_555
C4 O12 1.267722 1_555
C5 H5 1.097615 1_556
C5 O9 1.258670 1_555
C5 O13 1.267722 1_555
C6 H6 1.097615 1_555
C6 O10 1.258670 1_555
C6 O14 1.267722 1_555
C7 H7 1.097615 1_556
C7 O11 1.258670 1_555
C7 O15 1.267722 1_555
C8 H8 1.099300 1_555
C8 O16 1.256219 1_555
C8 O20 1.269666 1_555
C9 H9 1.099300 1_555
C9 O17 1.256216 1_555
C9 O21 1.269665 1_555
C10 H10 1.099300 1_555
C10 O18 1.256216 1_555
C10 O22 1.269666 1_555
C11 H11 1.099300 1_555
C11 O19 1.256216 1_555
C11 O23 1.269666 1_555
