# generated using pymatgen
data_BeV10B3As2
_symmetry_space_group_name_H-M   'P 1'
_cell_length_a   5.82619194
_cell_length_b   5.82619160
_cell_length_c   6.79119680
_cell_angle_alpha   115.49766448
_cell_angle_beta   115.49764804
_cell_angle_gamma   89.79664638
_symmetry_Int_Tables_number   1
_chemical_formula_structural   BeV10B3As2
_chemical_formula_sum   'Be1 V10 B3 As2'
_cell_volume   183.07233536
_cell_formula_units_Z   1
loop_
 _symmetry_equiv_pos_site_id
 _symmetry_equiv_pos_as_xyz
  1  'x, y, z'
loop_
 _atom_site_type_symbol
 _atom_site_label
 _atom_site_symmetry_multiplicity
 _atom_site_fract_x
 _atom_site_fract_y
 _atom_site_fract_z
 _atom_site_occupancy
  Be  Be0  1  0.62015660  0.12015660  1.00000000  1
  V  V0  1  0.49896318  0.50457629  0.00000000  1
  V  V1  1  0.00457629  0.99896318  1.00000000  1
  V  V2  1  0.03180099  0.53180099  0.72859045  1
  V  V3  1  0.69901450  0.19901450  0.72154964  1
  V  V4  1  0.18986775  0.02951342  0.72495876  1
  V  V5  1  0.52951342  0.68986775  0.72495876  1
  V  V6  1  0.97746586  0.47746586  0.27845036  1
  V  V7  1  0.30321154  0.80321154  0.27140955  1
  V  V8  1  0.80455565  0.96491099  0.27504124  1
  V  V9  1  0.46491099  0.30455565  0.27504124  1
  B  B0  1  0.38133259  0.88133259  1.00000000  1
  B  B1  1  0.88327359  0.61671251  1.00000000  1
  B  B2  1  0.11671251  0.38327359  0.00000000  1
  As  As0  1  0.24732227  0.24732227  0.50000000  1
  As  As1  1  0.74732227  0.74732227  0.50000000  1
loop_
_geom_bond_atom_site_label_1
_geom_bond_atom_site_label_2
_geom_bond_distance
_geom_bond_site_symmetry_2
Be0 V9 2.276219 1_556
Be0 V8 2.276219 1_546
Be0 V5 2.276227 1_545
Be0 V4 2.276227 1_555
Be0 V3 2.344268 1_555
Be0 V6 2.344274 1_556
Be0 V0 2.345978 1_556
Be0 V1 2.345978 1_645
B0 Be0 1.971274 1_565
B0 V5 2.250827 1_555
B0 V4 2.250828 1_565
B0 V9 2.250830 1_566
B0 V8 2.250831 1_556
B0 V7 2.292969 1_556
B0 V2 2.292975 1_555
B0 V0 2.297232 1_556
B0 V1 2.297232 1_555
B1 B2 1.919999 1_656
B1 V6 2.226984 1_556
B1 V3 2.226988 1_555
B1 V2 2.230709 1_655
B1 V7 2.230715 1_656
B1 V5 2.298540 1_555
B1 V8 2.298543 1_556
B1 V0 2.334660 1_556
B1 V1 2.338903 1_655
B2 V6 2.226983 1_455
B2 V3 2.226989 1_454
B2 V2 2.230709 1_554
B2 V7 2.230714 1_555
B2 V4 2.298540 1_554
B2 V9 2.298543 1_555
B2 V1 2.334660 1_544
B2 V0 2.338903 1_555
As0 V5 2.482185 1_555
As0 V9 2.482196 1_555
As0 V8 2.483700 1_445
As0 V4 2.483709 1_555
As0 V7 2.486357 1_545
As0 V2 2.486359 1_555
As0 V3 2.493777 1_555
As0 V6 2.493779 1_455
As0 V1 2.697007 1_544
As0 V0 2.697007 1_556
As1 V4 2.482185 1_665
As1 V8 2.482196 1_555
As1 V9 2.483699 1_555
As1 V5 2.483708 1_555
As1 V7 2.486358 1_555
As1 V2 2.486360 1_655
As1 V3 2.493776 1_565
As1 V6 2.493779 1_555
As1 V0 2.697007 1_555
As1 V1 2.697007 1_655
