# generated using pymatgen
data_CsCoAs2Ru
_symmetry_space_group_name_H-M   'P 1'
_cell_length_a   7.99685411
_cell_length_b   7.99685376
_cell_length_c   7.99685349
_cell_angle_alpha   151.59318815
_cell_angle_beta   151.59318520
_cell_angle_gamma   40.60768223
_symmetry_Int_Tables_number   1
_chemical_formula_structural   CsCoAs2Ru
_chemical_formula_sum   'Cs1 Co1 As2 Ru1'
_cell_volume   115.50038117
_cell_formula_units_Z   1
loop_
 _symmetry_equiv_pos_site_id
 _symmetry_equiv_pos_as_xyz
  1  'x, y, z'
loop_
 _atom_site_type_symbol
 _atom_site_label
 _atom_site_symmetry_multiplicity
 _atom_site_fract_x
 _atom_site_fract_y
 _atom_site_fract_z
 _atom_site_occupancy
  Cs  Cs0  1  0.00000000  0.00000000  0.00000000  1
  Co  Co0  1  0.25000000  0.75000000  0.50000000  1
  As  As0  1  0.33793826  0.33793826  0.00000000  1
  As  As1  1  0.66206174  0.66206174  1.00000000  1
  Ru  Ru0  1  0.75000000  0.25000000  0.50000000  1
loop_
_geom_bond_atom_site_label_1
_geom_bond_atom_site_label_2
_geom_bond_distance
_geom_bond_site_symmetry_2
Co0 Ru0 2.774897 1_465
Co0 Ru0 2.774897 1_555
Co0 Ru0 2.774897 1_454
Co0 Ru0 2.774897 1_566
As0 Co0 2.364312 1_555
As0 Ru0 2.364312 1_555
As0 Co0 2.364312 1_544
As0 Ru0 2.364312 1_454
As0 Cs0 3.689094 1_554
As0 Cs0 3.689094 1_565
As0 Cs0 3.689094 1_655
As0 Cs0 3.689094 1_666
As1 Ru0 2.364312 1_555
As1 Co0 2.364312 1_555
As1 Ru0 2.364312 1_566
As1 Co0 2.364312 1_656
As1 Cs0 3.689094 1_667
As1 Cs0 3.689094 1_656
As1 Cs0 3.689094 1_566
As1 Cs0 3.689094 1_555
