# generated using pymatgen
data_Rb4NiSb4Pt
_symmetry_space_group_name_H-M   'P 1'
_cell_length_a   8.21786824
_cell_length_b   8.21786862
_cell_length_c   6.50718855
_cell_angle_alpha   88.86497425
_cell_angle_beta   91.13503491
_cell_angle_gamma   126.54786194
_symmetry_Int_Tables_number   1
_chemical_formula_structural   Rb4NiSb4Pt
_chemical_formula_sum   'Rb4 Ni1 Sb4 Pt1'
_cell_volume   352.95144482
_cell_formula_units_Z   1
loop_
 _symmetry_equiv_pos_site_id
 _symmetry_equiv_pos_as_xyz
  1  'x, y, z'
loop_
 _atom_site_type_symbol
 _atom_site_label
 _atom_site_symmetry_multiplicity
 _atom_site_fract_x
 _atom_site_fract_y
 _atom_site_fract_z
 _atom_site_occupancy
  Rb  Rb0  1  0.60157764  0.39842236  0.74217825  1
  Rb  Rb1  1  0.39842236  0.60157764  0.25782175  1
  Rb  Rb2  1  0.19959539  0.80040461  0.74788233  1
  Rb  Rb3  1  0.80040461  0.19959539  0.25211767  1
  Ni  Ni0  1  0.00000000  0.00000000  0.00000000  1
  Sb  Sb0  1  0.71076919  0.90928678  0.76311066  1
  Sb  Sb1  1  0.90928678  0.71076919  0.23688934  1
  Sb  Sb2  1  0.28923081  0.09071322  0.23688934  1
  Sb  Sb3  1  0.09071322  0.28923081  0.76311066  1
  Pt  Pt0  1  0.00000000  0.00000000  0.50000000  1
loop_
_geom_bond_atom_site_label_1
_geom_bond_atom_site_label_2
_geom_bond_distance
_geom_bond_site_symmetry_2
Rb0 Sb3 3.738976 1_555
Rb0 Sb0 3.738976 1_555
Rb0 Sb1 3.952281 1_556
Rb0 Sb2 3.952282 1_556
Rb0 Sb2 4.007319 1_555
Rb0 Sb1 4.007319 1_555
Rb1 Sb1 3.738976 1_555
Rb1 Sb2 3.738976 1_555
Rb1 Sb3 3.952281 1_554
Rb1 Sb0 3.952282 1_554
Rb1 Sb0 4.007319 1_555
Rb1 Sb3 4.007319 1_555
Rb2 Sb0 3.737274 1_555
Rb2 Sb3 3.737274 1_555
Rb2 Sb2 3.804559 1_566
Rb2 Sb1 3.804560 1_456
Rb2 Sb1 3.870465 1_455
Rb2 Sb2 3.870465 1_565
Rb3 Sb2 3.737274 1_555
Rb3 Sb1 3.737274 1_555
Rb3 Sb0 3.804559 1_544
Rb3 Sb3 3.804560 1_654
Rb3 Sb3 3.870465 1_655
Rb3 Sb0 3.870465 1_545
Ni0 Sb2 2.524173 1_555
Ni0 Sb0 2.524173 1_444
Ni0 Sb3 2.524173 1_554
Ni0 Sb1 2.524173 1_445
Ni0 Rb3 3.389660 1_455
Ni0 Rb2 3.389660 1_544
Sb0 Sb3 2.808382 1_665
Sb1 Sb2 2.808382 1_665
Pt0 Sb3 2.671495 1_555
Pt0 Sb1 2.671495 1_445
Pt0 Sb0 2.671495 1_445
Pt0 Sb2 2.671495 1_555
Pt0 Rb3 3.313197 1_455
Pt0 Rb2 3.313197 1_545
