# generated using pymatgen
data_Zr2HgN
_symmetry_space_group_name_H-M   'P 1'
_cell_length_a   3.32460619
_cell_length_b   3.32460527
_cell_length_c   14.47408686
_cell_angle_alpha   90.00000000
_cell_angle_beta   90.00000000
_cell_angle_gamma   119.99998949
_symmetry_Int_Tables_number   1
_chemical_formula_structural   Zr2HgN
_chemical_formula_sum   'Zr4 Hg2 N2'
_cell_volume   138.54860256
_cell_formula_units_Z   2
loop_
 _symmetry_equiv_pos_site_id
 _symmetry_equiv_pos_as_xyz
  1  'x, y, z'
loop_
 _atom_site_type_symbol
 _atom_site_label
 _atom_site_symmetry_multiplicity
 _atom_site_fract_x
 _atom_site_fract_y
 _atom_site_fract_z
 _atom_site_occupancy
  Zr  Zr0  1  0.33333300  0.66666700  0.08341745  1
  Zr  Zr1  1  0.66666700  0.33333300  0.58341745  1
  Zr  Zr2  1  0.66666700  0.33333300  0.91658255  1
  Zr  Zr3  1  0.33333300  0.66666700  0.41658255  1
  Hg  Hg0  1  0.33333300  0.66666700  0.75000000  1
  Hg  Hg1  1  0.66666700  0.33333300  0.25000000  1
  N  N0  1  0.00000000  0.00000000  0.00000000  1
  N  N1  1  0.00000000  0.00000000  0.50000000  1
loop_
_geom_bond_atom_site_label_1
_geom_bond_atom_site_label_2
_geom_bond_distance
_geom_bond_site_symmetry_2
Hg0 Zr2 3.081862 1_565
Hg0 Zr1 3.081862 1_565
Hg0 Zr2 3.081863 1_455
Hg0 Zr1 3.081863 1_455
Hg0 Zr2 3.081866 1_555
Hg0 Zr1 3.081866 1_555
Hg1 Zr3 3.081862 1_545
Hg1 Zr0 3.081862 1_545
Hg1 Zr3 3.081863 1_655
Hg1 Zr0 3.081863 1_655
Hg1 Zr3 3.081866 1_555
Hg1 Zr0 3.081866 1_555
N0 Zr0 2.267624 1_545
N0 Zr2 2.267624 1_454
N0 Zr0 2.267627 1_555
N0 Zr2 2.267627 1_444
N0 Zr0 2.267627 1_445
N0 Zr2 2.267627 1_554
N1 Zr1 2.267624 1_455
N1 Zr3 2.267624 1_545
N1 Zr1 2.267627 1_445
N1 Zr3 2.267627 1_555
N1 Zr1 2.267627 1_555
N1 Zr3 2.267627 1_445
