# generated using pymatgen
data_Ca(NbIr)2
_symmetry_space_group_name_H-M   'P 1'
_cell_length_a   6.08298545
_cell_length_b   6.08298515
_cell_length_c   6.08298544
_cell_angle_alpha   136.86933204
_cell_angle_beta   136.86931231
_cell_angle_gamma   62.63916470
_symmetry_Int_Tables_number   1
_chemical_formula_structural   Ca(NbIr)2
_chemical_formula_sum   'Ca1 Nb2 Ir2'
_cell_volume   103.91360563
_cell_formula_units_Z   1
loop_
 _symmetry_equiv_pos_site_id
 _symmetry_equiv_pos_as_xyz
  1  'x, y, z'
loop_
 _atom_site_type_symbol
 _atom_site_label
 _atom_site_symmetry_multiplicity
 _atom_site_fract_x
 _atom_site_fract_y
 _atom_site_fract_z
 _atom_site_occupancy
  Ca  Ca0  1  0.00000000  0.00000000  0.00000000  1
  Nb  Nb0  1  0.25000000  0.75000000  0.50000000  1
  Nb  Nb1  1  0.75000000  0.25000000  0.50000000  1
  Ir  Ir0  1  0.62432309  0.62432309  0.00000000  1
  Ir  Ir1  1  0.37567691  0.37567691  1.00000000  1
loop_
_geom_bond_atom_site_label_1
_geom_bond_atom_site_label_2
_geom_bond_distance
_geom_bond_site_symmetry_2
Ca0 Ir0 3.415818 1_455
Ca0 Ir1 3.415818 1_544
Ca0 Ir0 3.415818 1_545
Ca0 Ir1 3.415818 1_454
Ca0 Ir0 3.415819 1_444
Ca0 Ir1 3.415819 1_555
Ca0 Ir0 3.415819 1_556
Ca0 Ir1 3.415819 1_443
Ca0 Nb0 3.427863 1_544
Ca0 Nb1 3.427863 1_455
Ca0 Nb0 3.427863 1_555
Ca0 Nb1 3.427863 1_444
Ca0 Nb1 3.427863 1_454
Ca0 Nb0 3.427863 1_545
Ca0 Nb0 3.427864 1_444
Ca0 Nb1 3.427864 1_555
Ir0 Ir1 2.584220 1_554
Ir0 Nb1 2.589447 1_554
Ir0 Nb1 2.589448 1_565
Ir0 Nb0 2.589448 1_554
Ir0 Nb0 2.589449 1_655
Ir1 Nb0 2.589447 1_556
Ir1 Nb0 2.589448 1_545
Ir1 Nb1 2.589448 1_556
Ir1 Nb1 2.589449 1_455
