# generated using pymatgen
data_Sr6YFe(BO3)6
_symmetry_space_group_name_H-M   'P 1'
_cell_length_a   7.68011727
_cell_length_b   7.68011792
_cell_length_c   7.68011790
_cell_angle_alpha   105.13490710
_cell_angle_beta   105.13490658
_cell_angle_gamma   105.13490855
_symmetry_Int_Tables_number   1
_chemical_formula_structural   Sr6YFe(BO3)6
_chemical_formula_sum   'Sr6 Y1 Fe1 B6 O18'
_cell_volume   394.89384214
_cell_formula_units_Z   1
loop_
 _symmetry_equiv_pos_site_id
 _symmetry_equiv_pos_as_xyz
  1  'x, y, z'
loop_
 _atom_site_type_symbol
 _atom_site_label
 _atom_site_symmetry_multiplicity
 _atom_site_fract_x
 _atom_site_fract_y
 _atom_site_fract_z
 _atom_site_occupancy
  Sr  Sr0  1  0.65110351  0.26546285  0.16579685  1
  Sr  Sr1  1  0.16579685  0.65110351  0.26546185  1
  Sr  Sr2  1  0.73453715  0.83420315  0.34889649  1
  Sr  Sr3  1  0.26546285  0.16579685  0.65110351  1
  Sr  Sr4  1  0.83420315  0.34889649  0.73453715  1
  Sr  Sr5  1  0.34889649  0.73453715  0.83420315  1
  Y  Y0  1  0.00000000  0.00000000  0.00000000  1
  Fe  Fe0  1  0.50000000  0.50000000  0.50000000  1
  B  B0  1  0.29794147  0.37635538  0.04656824  1
  B  B1  1  0.37635538  0.04656924  0.29794147  1
  B  B2  1  0.04656924  0.29794147  0.37635538  1
  B  B3  1  0.95343076  0.70205853  0.62364462  1
  B  B4  1  0.62364462  0.95343076  0.70205853  1
  B  B5  1  0.70205853  0.62364462  0.95343076  1
  O  O0  1  0.72238473  0.81711057  0.01226896  1
  O  O1  1  0.80394232  0.55237787  0.07253616  1
  O  O2  1  0.98773104  0.27761527  0.18288943  1
  O  O3  1  0.44762113  0.92746284  0.19605768  1
  O  O4  1  0.43284841  0.49862914  0.22640397  1
  O  O5  1  0.18288943  0.98773104  0.27761527  1
  O  O6  1  0.49862914  0.22640397  0.43284741  1
  O  O7  1  0.92746284  0.19605868  0.44762113  1
  O  O8  1  0.22640397  0.43284841  0.49862914  1
  O  O9  1  0.77359603  0.56715159  0.50137086  1
  O  O10  1  0.07253716  0.80394132  0.55237887  1
  O  O11  1  0.50137086  0.77359603  0.56715259  1
  O  O12  1  0.81711057  0.01226896  0.72238473  1
  O  O13  1  0.56715159  0.50137086  0.77359603  1
  O  O14  1  0.55237887  0.07253716  0.80394232  1
  O  O15  1  0.01226896  0.72238473  0.81711057  1
  O  O16  1  0.19605768  0.44762213  0.92746384  1
  O  O17  1  0.27761527  0.18288943  0.98773104  1
loop_
_geom_bond_atom_site_label_1
_geom_bond_atom_site_label_2
_geom_bond_distance
_geom_bond_site_symmetry_2
Fe0 O9 2.025110 1_555
Fe0 O8 2.025110 1_555
Fe0 O11 2.025110 1_555
Fe0 O6 2.025110 1_555
Fe0 O13 2.025110 1_555
Fe0 O4 2.025110 1_555
B0 O16 1.363788 1_554
B0 O17 1.388425 1_554
B0 O4 1.389373 1_555
B1 O3 1.363792 1_545
B1 O5 1.388425 1_545
B1 O6 1.389366 1_555
B2 O7 1.363788 1_455
B2 O2 1.388426 1_455
B2 O8 1.389368 1_555
B3 O10 1.363788 1_655
B3 O15 1.388426 1_655
B3 O9 1.389368 1_555
B4 O14 1.363792 1_565
B4 O12 1.388425 1_565
B4 O11 1.389366 1_555
B5 O1 1.363792 1_556
B5 O0 1.388426 1_556
B5 O13 1.389368 1_555
O0 Y0 2.266698 1_665
O0 Sr2 2.529882 1_555
O0 Sr5 2.655020 1_554
O1 Sr1 2.580003 1_655
O1 Sr0 2.580502 1_555
O1 Sr4 2.760636 1_554
O1 Sr2 2.875453 1_555
O2 Y0 2.266699 1_655
O2 Sr0 2.529881 1_555
O2 Sr1 2.655022 1_655
O3 Sr5 2.580005 1_554
O3 Sr2 2.580504 1_555
O3 Sr0 2.760645 1_565
O3 Sr1 2.875439 1_555
O4 Sr1 2.657032 1_555
O4 Sr2 2.715367 1_555
O4 Sr0 2.787967 1_555
O5 Y0 2.266699 1_565
O5 Sr1 2.529880 1_555
O5 Sr3 2.655021 1_565
O6 Sr0 2.657026 1_555
O6 Sr4 2.715370 1_555
O6 Sr3 2.787974 1_555
O7 Sr2 2.580011 1_545
O7 Sr4 2.580501 1_555
O7 Sr3 2.760649 1_655
O7 Sr0 2.875439 1_555
O8 Sr3 2.657033 1_555
O8 Sr5 2.715367 1_555
O8 Sr1 2.787973 1_555
O9 Sr2 2.657033 1_555
O9 Sr0 2.715367 1_555
O9 Sr4 2.787967 1_555
O10 Sr3 2.580011 1_565
O10 Sr1 2.580508 1_555
O10 Sr2 2.760649 1_455
O10 Sr5 2.875439 1_555
O11 Sr5 2.657026 1_555
O11 Sr1 2.715374 1_555
O11 Sr2 2.787974 1_555
O12 Y0 2.266699 1_656
O12 Sr4 2.529882 1_555
O12 Sr2 2.655021 1_545
O13 Sr4 2.657033 1_555
O13 Sr3 2.715367 1_555
O13 Sr5 2.787967 1_555
O14 Sr0 2.580005 1_556
O14 Sr3 2.580504 1_555
O14 Sr5 2.760645 1_545
O14 Sr4 2.875443 1_555
O15 Y0 2.266699 1_566
O15 Sr5 2.529881 1_555
O15 Sr4 2.655020 1_455
O16 Sr4 2.580005 1_455
O16 Sr5 2.580502 1_555
O16 Sr1 2.760630 1_556
O16 Sr3 2.875453 1_555
O17 Y0 2.266698 1_556
O17 Sr3 2.529882 1_555
O17 Sr0 2.655020 1_556
