# generated using pymatgen
data_Ta2CoB3W
_symmetry_space_group_name_H-M   'P 1'
_cell_length_a   4.56290753
_cell_length_b   4.56290740
_cell_length_c   10.93487639
_cell_angle_alpha   90.00000000
_cell_angle_beta   90.00000000
_cell_angle_gamma   138.66015343
_symmetry_Int_Tables_number   1
_chemical_formula_structural   Ta2CoB3W
_chemical_formula_sum   'Ta4 Co2 B6 W2'
_cell_volume   150.37851401
_cell_formula_units_Z   2
loop_
 _symmetry_equiv_pos_site_id
 _symmetry_equiv_pos_as_xyz
  1  'x, y, z'
loop_
 _atom_site_type_symbol
 _atom_site_label
 _atom_site_symmetry_multiplicity
 _atom_site_fract_x
 _atom_site_fract_y
 _atom_site_fract_z
 _atom_site_occupancy
  Ta  Ta0  1  0.79242865  0.20757135  0.60579133  1
  Ta  Ta1  1  0.20757135  0.79242865  0.39420867  1
  Ta  Ta2  1  0.20757135  0.79242865  0.10579133  1
  Ta  Ta3  1  0.79242865  0.20757135  0.89420867  1
  Co  Co0  1  0.50000000  0.50000000  0.00000000  1
  Co  Co1  1  0.50000000  0.50000000  0.50000000  1
  B  B0  1  0.79308711  0.20691289  0.25000000  1
  B  B1  1  0.20691289  0.79308711  0.75000000  1
  B  B2  1  0.08666910  0.91333090  0.60554096  1
  B  B3  1  0.91333090  0.08666910  0.39445904  1
  B  B4  1  0.91333090  0.08666910  0.10554096  1
  B  B5  1  0.08666910  0.91333090  0.89445904  1
  W  W0  1  0.49838316  0.50161684  0.25000000  1
  W  W1  1  0.50161684  0.49838316  0.75000000  1
loop_
_geom_bond_atom_site_label_1
_geom_bond_atom_site_label_2
_geom_bond_distance
_geom_bond_site_symmetry_2
B0 B3 1.883973 1_555
B0 B4 1.883973 1_555
B0 Ta1 2.369368 1_655
B0 Ta2 2.369368 1_655
B0 Ta1 2.369368 1_545
B0 Ta2 2.369368 1_545
B0 W0 2.380500 1_545
B0 W0 2.380500 1_655
B0 W0 2.516295 1_555
B1 B5 1.883973 1_555
B1 B2 1.883973 1_555
B1 Ta3 2.369368 1_455
B1 Ta0 2.369368 1_455
B1 Ta3 2.369368 1_565
B1 Ta0 2.369368 1_565
B1 W1 2.380500 1_565
B1 W1 2.380500 1_455
B1 W1 2.516295 1_555
B2 Co1 2.115101 1_565
B2 Co1 2.115101 1_455
B2 W1 2.369975 1_565
B2 W1 2.369975 1_455
B2 Ta0 2.383417 1_455
B2 Ta0 2.383417 1_565
B2 Ta0 2.512339 1_465
B2 Ta1 2.530985 1_555
B3 Co1 2.115101 1_545
B3 Co1 2.115101 1_655
B3 W0 2.369975 1_545
B3 W0 2.369975 1_655
B3 Ta1 2.383417 1_655
B3 Ta1 2.383417 1_545
B3 Ta1 2.512339 1_645
B3 Ta0 2.530985 1_555
B4 Co0 2.115101 1_545
B4 Co0 2.115101 1_655
B4 W0 2.369975 1_545
B4 W0 2.369975 1_655
B4 Ta2 2.383417 1_655
B4 Ta2 2.383417 1_545
B4 Ta2 2.512339 1_645
B4 Ta3 2.530985 1_554
B5 Co0 2.115101 1_566
B5 Co0 2.115101 1_456
B5 W1 2.369975 1_565
B5 W1 2.369975 1_455
B5 Ta3 2.383417 1_455
B5 Ta3 2.383417 1_565
B5 Ta3 2.512339 1_465
B5 Ta2 2.530985 1_556
