# generated using pymatgen
data_NbTeI2Br
_symmetry_space_group_name_H-M   'P 1'
_cell_length_a   7.56281058
_cell_length_b   7.30563266
_cell_length_c   13.38136763
_cell_angle_alpha   82.18352701
_cell_angle_beta   90.00000000
_cell_angle_gamma   90.00000000
_symmetry_Int_Tables_number   1
_chemical_formula_structural   NbTeI2Br
_chemical_formula_sum   'Nb4 Te4 I8 Br4'
_cell_volume   732.46616609
_cell_formula_units_Z   4
loop_
 _symmetry_equiv_pos_site_id
 _symmetry_equiv_pos_as_xyz
  1  'x, y, z'
loop_
 _atom_site_type_symbol
 _atom_site_label
 _atom_site_symmetry_multiplicity
 _atom_site_fract_x
 _atom_site_fract_y
 _atom_site_fract_z
 _atom_site_occupancy
  Nb  Nb0  1  0.35633732  0.06593772  0.34653220  1
  Nb  Nb1  1  0.35633732  0.93406228  0.15346780  1
  Nb  Nb2  1  0.64366268  0.93406228  0.65346780  1
  Nb  Nb3  1  0.64366268  0.06593772  0.84653220  1
  Te  Te0  1  0.08643042  0.82770670  0.30160396  1
  Te  Te1  1  0.08643042  0.17229330  0.19839604  1
  Te  Te2  1  0.91356958  0.17229330  0.69839604  1
  Te  Te3  1  0.91356958  0.82770670  0.80160396  1
  I  I0  1  0.68898101  0.85594208  0.04463828  1
  I  I1  1  0.68898101  0.14405792  0.45536172  1
  I  I2  1  0.31101899  0.14405792  0.95536172  1
  I  I3  1  0.31101899  0.85594208  0.54463828  1
  I  I4  1  0.77637830  0.37103987  0.92710496  1
  I  I5  1  0.77637830  0.62896013  0.57289504  1
  I  I6  1  0.22362170  0.62896013  0.07289504  1
  I  I7  1  0.22362170  0.37103987  0.42710496  1
  Br  Br0  1  0.45185199  0.22968084  0.69801699  1
  Br  Br1  1  0.45185199  0.77031916  0.80198301  1
  Br  Br2  1  0.54814801  0.77031916  0.30198301  1
  Br  Br3  1  0.54814801  0.22968084  0.19801699  1
loop_
_geom_bond_atom_site_label_1
_geom_bond_atom_site_label_2
_geom_bond_distance
_geom_bond_site_symmetry_2
Nb0 Te0 2.800332 1_545
Nb0 Te1 2.877651 1_555
Nb1 Te1 2.800332 1_565
Nb1 Te0 2.877651 1_555
Nb2 Te2 2.800332 1_565
Nb2 Te3 2.877651 1_555
Nb3 Te3 2.800332 1_545
Nb3 Te2 2.877651 1_555
Te0 Te1 2.701682 1_565
Te2 Te3 2.701682 1_545
I0 Nb3 2.896948 1_564
I0 Nb1 3.000236 1_555
I1 Nb2 2.896948 1_545
I1 Nb0 3.000236 1_555
I2 Nb1 2.896948 1_546
I2 Nb3 3.000236 1_555
I3 Nb0 2.896948 1_565
I3 Nb2 3.000236 1_555
I4 Nb3 2.791386 1_555
I5 Nb2 2.791386 1_555
I6 Nb1 2.791386 1_555
I7 Nb0 2.791386 1_555
Br0 Nb3 2.614994 1_555
Br0 Nb2 2.733880 1_545
Br1 Nb2 2.614994 1_555
Br1 Nb3 2.733880 1_565
Br2 Nb1 2.614994 1_555
Br2 Nb0 2.733880 1_565
Br3 Nb0 2.614994 1_555
Br3 Nb1 2.733880 1_545
