# generated using pymatgen
data_K3Ba7Ti10(O9F)3
_symmetry_space_group_name_H-M   'P 1'
_cell_length_a   3.99204300
_cell_length_b   3.99204300
_cell_length_c   40.86762300
_cell_angle_alpha   90.00000000
_cell_angle_beta   90.00000000
_cell_angle_gamma   90.00000000
_symmetry_Int_Tables_number   1
_chemical_formula_structural   K3Ba7Ti10(O9F)3
_chemical_formula_sum   'K3 Ba7 Ti10 O27 F3'
_cell_volume   651.28308608
_cell_formula_units_Z   1
loop_
 _symmetry_equiv_pos_site_id
 _symmetry_equiv_pos_as_xyz
  1  'x, y, z'
loop_
 _atom_site_type_symbol
 _atom_site_label
 _atom_site_symmetry_multiplicity
 _atom_site_fract_x
 _atom_site_fract_y
 _atom_site_fract_z
 _atom_site_occupancy
  K  K0  1  0.00000000  0.00000000  0.60006800  1
  K  K1  1  0.00000000  0.00000000  0.80075400  1
  K  K2  1  0.00000000  0.00000000  0.89915100  1
  Ba  Ba0  1  0.00000000  0.00000000  0.99928700  1
  Ba  Ba1  1  0.00000000  0.00000000  0.09998500  1
  Ba  Ba2  1  0.00000000  0.00000000  0.20000900  1
  Ba  Ba3  1  0.00000000  0.00000000  0.29998400  1
  Ba  Ba4  1  0.00000000  0.00000000  0.40003400  1
  Ba  Ba5  1  0.00000000  0.00000000  0.50074000  1
  Ba  Ba6  1  0.00000000  0.00000000  0.69997000  1
  Ti  Ti0  1  0.50000000  0.50000000  0.05077800  1
  Ti  Ti1  1  0.50000000  0.50000000  0.24998400  1
  Ti  Ti2  1  0.50000000  0.50000000  0.15020800  1
  Ti  Ti3  1  0.50000000  0.50000000  0.44929700  1
  Ti  Ti4  1  0.50000000  0.50000000  0.34978400  1
  Ti  Ti5  1  0.50000000  0.50000000  0.54736900  1
  Ti  Ti6  1  0.50000000  0.50000000  0.74772300  1
  Ti  Ti7  1  0.50000000  0.50000000  0.65178100  1
  Ti  Ti8  1  0.50000000  0.50000000  0.85009400  1
  Ti  Ti9  1  0.50000000  0.50000000  0.95290300  1
  O  O0  1  0.00000000  0.50000000  0.05048000  1
  O  O1  1  0.00000000  0.50000000  0.15011200  1
  O  O2  1  0.00000000  0.50000000  0.25000000  1
  O  O3  1  0.00000000  0.50000000  0.34990400  1
  O  O4  1  0.00000000  0.50000000  0.44959400  1
  O  O5  1  0.00000000  0.50000000  0.54883400  1
  O  O6  1  0.00000000  0.50000000  0.65064400  1
  O  O7  1  0.00000000  0.50000000  0.74904200  1
  O  O8  1  0.00000000  0.50000000  0.85006400  1
  O  O9  1  0.00000000  0.50000000  0.95133800  1
  O  O10  1  0.50000000  0.00000000  0.05048000  1
  O  O11  1  0.50000000  0.50000000  0.00051200  1
  O  O12  1  0.50000000  0.00000000  0.15011200  1
  O  O13  1  0.50000000  0.00000000  0.25000000  1
  O  O14  1  0.50000000  0.50000000  0.20002300  1
  O  O15  1  0.50000000  0.50000000  0.10017400  1
  O  O16  1  0.50000000  0.00000000  0.34990400  1
  O  O17  1  0.50000000  0.00000000  0.44959400  1
  O  O18  1  0.50000000  0.50000000  0.39988400  1
  O  O19  1  0.50000000  0.50000000  0.30000300  1
  O  O20  1  0.50000000  0.00000000  0.54883400  1
  O  O21  1  0.50000000  0.50000000  0.49962400  1
  O  O22  1  0.50000000  0.00000000  0.74904200  1
  O  O23  1  0.50000000  0.50000000  0.69984000  1
  O  O24  1  0.50000000  0.00000000  0.65064400  1
  O  O25  1  0.50000000  0.00000000  0.85006400  1
  O  O26  1  0.50000000  0.00000000  0.95133800  1
  F  F0  1  0.50000000  0.50000000  0.59982800  1
  F  F1  1  0.50000000  0.50000000  0.79984700  1
  F  F2  1  0.50000000  0.50000000  0.90033600  1
loop_
_geom_bond_atom_site_label_1
_geom_bond_atom_site_label_2
_geom_bond_distance
_geom_bond_site_symmetry_2
K0 O24 2.873372 1_455
K0 O6 2.873372 1_545
K0 O6 2.873372 1_555
K0 O24 2.873372 1_555
K0 O20 2.892775 1_555
K0 O20 2.892775 1_455
K0 O5 2.892775 1_555
K0 O5 2.892775 1_545
K1 O25 2.836382 1_555
K1 O8 2.836382 1_555
K1 O25 2.836382 1_455
K1 O8 2.836382 1_545
K1 O7 2.906946 1_555
K1 O22 2.906946 1_555
K1 O22 2.906946 1_455
K1 O7 2.906946 1_545
K2 O8 2.829914 1_555
K2 O25 2.829914 1_455
K2 O8 2.829914 1_545
K2 O25 2.829914 1_555
K2 O9 2.921089 1_545
K2 O9 2.921089 1_555
K2 O26 2.921089 1_455
K2 O26 2.921089 1_555
Ba0 O26 2.797138 1_555
Ba0 O9 2.797138 1_545
Ba0 O9 2.797138 1_555
Ba0 O26 2.797138 1_455
Ba0 O11 2.823245 1_556
Ba0 O11 2.823245 1_456
Ba0 O11 2.823245 1_446
Ba0 O11 2.823245 1_546
Ba0 O10 2.891563 1_456
Ba0 O0 2.891563 1_556
Ba0 O10 2.891563 1_556
Ba0 O0 2.891563 1_546
Ba1 O15 2.822811 1_545
Ba1 O15 2.822811 1_555
Ba1 O15 2.822811 1_445
Ba1 O15 2.822811 1_455
Ba1 O0 2.842049 1_545
Ba1 O10 2.842049 1_455
Ba1 O0 2.842049 1_555
Ba1 O10 2.842049 1_555
Ba1 O1 2.860200 1_555
Ba1 O12 2.860200 1_455
Ba1 O12 2.860200 1_555
Ba1 O1 2.860200 1_545
Ba2 O14 2.822801 1_545
Ba2 O14 2.822801 1_445
Ba2 O14 2.822801 1_455
Ba2 O14 2.822801 1_555
Ba2 O12 2.853476 1_455
Ba2 O1 2.853476 1_555
Ba2 O1 2.853476 1_545
Ba2 O12 2.853476 1_555
Ba2 O13 2.856222 1_555
Ba2 O2 2.856222 1_545
Ba2 O2 2.856222 1_555
Ba2 O13 2.856222 1_455
Ba3 O19 2.822801 1_455
Ba3 O19 2.822801 1_555
Ba3 O19 2.822801 1_445
Ba3 O19 2.822801 1_545
Ba3 O3 2.854147 1_555
Ba3 O3 2.854147 1_545
Ba3 O16 2.854147 1_455
Ba3 O16 2.854147 1_555
Ba3 O2 2.856018 1_555
Ba3 O13 2.856018 1_455
Ba3 O13 2.856018 1_555
Ba3 O2 2.856018 1_545
Ba4 O18 2.822807 1_445
Ba4 O18 2.822807 1_545
Ba4 O18 2.822807 1_455
Ba4 O18 2.822807 1_555
Ba4 O4 2.843650 1_545
Ba4 O17 2.843650 1_455
Ba4 O17 2.843650 1_555
Ba4 O4 2.843650 1_555
Ba4 O16 2.860288 1_555
Ba4 O3 2.860288 1_545
Ba4 O3 2.860288 1_555
Ba4 O16 2.860288 1_455
Ba5 O5 2.801293 1_545
Ba5 O20 2.801293 1_455
Ba5 O20 2.801293 1_555
Ba5 O5 2.801293 1_555
Ba5 O21 2.823169 1_545
Ba5 O21 2.823169 1_445
Ba5 O21 2.823169 1_455
Ba5 O21 2.823169 1_555
Ba5 O17 2.890173 1_555
Ba5 O17 2.890173 1_455
Ba5 O4 2.890173 1_555
Ba5 O4 2.890173 1_545
Ba6 O23 2.822806 1_545
Ba6 O23 2.822806 1_455
Ba6 O23 2.822806 1_445
Ba6 O23 2.822806 1_555
Ba6 O7 2.829480 1_555
Ba6 O22 2.829480 1_455
Ba6 O7 2.829480 1_545
Ba6 O22 2.829480 1_555
Ba6 O6 2.836847 1_555
Ba6 O24 2.836847 1_555
Ba6 O24 2.836847 1_455
Ba6 O6 2.836847 1_545
O0 Ti0 1.996059 1_555
O0 Ti0 1.996059 1_455
O1 Ti2 1.996025 1_555
O1 Ti2 1.996025 1_455
O2 Ti1 1.996022 1_555
O2 Ti1 1.996022 1_455
O3 Ti4 1.996028 1_455
O3 Ti4 1.996028 1_555
O4 Ti3 1.996058 1_555
O4 Ti3 1.996058 1_455
O5 Ti5 1.996919 1_455
O5 Ti5 1.996919 1_555
O6 Ti7 1.996562 1_455
O6 Ti7 1.996562 1_555
O7 Ti6 1.996749 1_555
O7 Ti6 1.996749 1_455
O8 Ti8 1.996022 1_555
O8 Ti8 1.996022 1_455
O9 Ti9 1.997046 1_455
O9 Ti9 1.997046 1_555
O10 Ti0 1.996059 1_545
O10 Ti0 1.996059 1_555
O11 Ti9 1.945667 1_554
O11 Ti0 2.054252 1_555
O12 Ti2 1.996025 1_545
O12 Ti2 1.996025 1_555
O13 Ti1 1.996022 1_555
O13 Ti1 1.996022 1_545
O14 Ti2 2.035821 1_555
O14 Ti1 2.041787 1_555
O15 Ti0 2.018697 1_555
O15 Ti2 2.044771 1_555
O16 Ti4 1.996028 1_545
O16 Ti4 1.996028 1_555
O17 Ti3 1.996058 1_545
O17 Ti3 1.996058 1_555
O18 Ti3 2.019392 1_555
O18 Ti4 2.047468 1_555
O19 Ti4 2.034431 1_555
O19 Ti1 2.044158 1_555
O20 Ti5 1.996919 1_555
O20 Ti5 1.996919 1_545
O21 Ti5 1.951225 1_555
O21 Ti3 2.056745 1_555
O22 Ti6 1.996749 1_545
O22 Ti6 1.996749 1_555
O23 Ti6 1.956864 1_555
O23 Ti7 1.964057 1_555
O24 Ti7 1.996562 1_555
O24 Ti7 1.996562 1_545
O25 Ti8 1.996022 1_555
O25 Ti8 1.996022 1_545
O26 Ti9 1.997046 1_555
O26 Ti9 1.997046 1_545
F0 Ti7 2.123196 1_555
F0 Ti5 2.143875 1_555
F0 K0 2.822818 1_555
F0 K0 2.822818 1_655
F0 K0 2.822818 1_565
F0 K0 2.822818 1_665
F1 Ti8 2.053475 1_555
F1 Ti6 2.130184 1_555
F1 K1 2.823044 1_555
F1 K1 2.823044 1_655
F1 K1 2.823044 1_565
F1 K1 2.823044 1_665
F2 Ti8 2.053271 1_555
F2 Ti9 2.148288 1_555
F2 K2 2.823216 1_555
F2 K2 2.823216 1_655
F2 K2 2.823216 1_565
F2 K2 2.823216 1_665
