# generated using pymatgen
data_Zr3Sc3(SnC2)2
_symmetry_space_group_name_H-M   'P 1'
_cell_length_a   3.35943953
_cell_length_b   3.35943962
_cell_length_c   20.26922310
_cell_angle_alpha   90.00000000
_cell_angle_beta   90.00000000
_cell_angle_gamma   119.99998935
_symmetry_Int_Tables_number   1
_chemical_formula_structural   Zr3Sc3(SnC2)2
_chemical_formula_sum   'Zr3 Sc3 Sn2 C4'
_cell_volume   198.10774242
_cell_formula_units_Z   1
loop_
 _symmetry_equiv_pos_site_id
 _symmetry_equiv_pos_as_xyz
  1  'x, y, z'
loop_
 _atom_site_type_symbol
 _atom_site_label
 _atom_site_symmetry_multiplicity
 _atom_site_fract_x
 _atom_site_fract_y
 _atom_site_fract_z
 _atom_site_occupancy
  Zr  Zr0  1  0.00000000  0.00000000  0.00086986  1
  Zr  Zr1  1  0.00000000  0.00000000  0.50057475  1
  Zr  Zr2  1  0.66666600  0.33333400  0.87145110  1
  Sc  Sc0  1  0.33333400  0.66666700  0.12601567  1
  Sc  Sc1  1  0.33333400  0.66666700  0.37387821  1
  Sc  Sc2  1  0.66666600  0.33333400  0.62711571  1
  Sn  Sn0  1  0.00000000  0.00000000  0.24995703  1
  Sn  Sn1  1  0.00000000  0.00000000  0.75088610  1
  C  C0  1  0.66666600  0.33333400  0.06749230  1
  C  C1  1  0.66666600  0.33333400  0.43262357  1
  C  C2  1  0.33333400  0.66666700  0.56967127  1
  C  C3  1  0.33333400  0.66666700  0.92946344  1
loop_
_geom_bond_atom_site_label_1
_geom_bond_atom_site_label_2
_geom_bond_distance
_geom_bond_site_symmetry_2
Sc0 Sn0 3.173809 1_665
Sc0 Sn0 3.173810 1_565
Sc0 Sn0 3.173810 1_555
Sc1 Sn0 3.173485 1_665
Sc1 Sn0 3.173487 1_565
Sc1 Sn0 3.173487 1_555
Sc2 Sn1 3.171066 1_555
Sc2 Sn1 3.171066 1_665
Sc2 Sn1 3.171070 1_655
Sn1 Zr2 3.119919 1_555
Sn1 Zr2 3.119919 1_445
Sn1 Zr2 3.119923 1_455
C0 Sc0 2.273555 1_555
C0 Sc0 2.273560 1_545
C0 Sc0 2.273562 1_655
C0 Zr0 2.363362 1_555
C0 Zr0 2.363362 1_665
C0 Zr0 2.363366 1_655
C1 Sc1 2.275906 1_555
C1 Sc1 2.275911 1_545
C1 Sc1 2.275913 1_655
C1 Zr1 2.378853 1_555
C1 Zr1 2.378853 1_665
C1 Zr1 2.378857 1_655
C2 Sc2 2.262221 1_555
C2 Sc2 2.262227 1_565
C2 Sc2 2.262229 1_455
C2 Zr1 2.392369 1_665
C2 Zr1 2.392371 1_565
C2 Zr1 2.392372 1_555
C3 Zr2 2.268168 1_555
C3 Zr2 2.268173 1_565
C3 Zr2 2.268175 1_455
C3 Zr0 2.420076 1_666
C3 Zr0 2.420078 1_566
C3 Zr0 2.420078 1_556
