# generated using pymatgen
data_Na2Si4PdPt5
_symmetry_space_group_name_H-M   'P 1'
_cell_length_a   6.65745465
_cell_length_b   6.68631275
_cell_length_c   6.63557091
_cell_angle_alpha   128.57132503
_cell_angle_beta   116.44337008
_cell_angle_gamma   85.67720822
_symmetry_Int_Tables_number   1
_chemical_formula_structural   Na2Si4PdPt5
_chemical_formula_sum   'Na2 Si4 Pd1 Pt5'
_cell_volume   197.95227925
_cell_formula_units_Z   1
loop_
 _symmetry_equiv_pos_site_id
 _symmetry_equiv_pos_as_xyz
  1  'x, y, z'
loop_
 _atom_site_type_symbol
 _atom_site_label
 _atom_site_symmetry_multiplicity
 _atom_site_fract_x
 _atom_site_fract_y
 _atom_site_fract_z
 _atom_site_occupancy
  Na  Na0  1  0.99961627  0.95531410  0.95598691  1
  Na  Na1  1  0.50001050  0.01583868  0.51586550  1
  Si  Si0  1  0.30801164  0.37815918  0.06597211  1
  Si  Si1  1  0.84683460  0.29014782  0.44518922  1
  Si  Si2  1  0.69036342  0.76023003  0.07209783  1
  Si  Si3  1  0.15425299  0.60192763  0.44525395  1
  Pd  Pd0  1  0.45668693  0.99819084  0.95267270  1
  Pt  Pt0  1  0.94980111  0.49498683  0.94711249  1
  Pt  Pt1  1  0.54159829  0.49564702  0.53982572  1
  Pt  Pt2  1  0.05142619  0.99641689  0.54589031  1
  Pt  Pt3  1  0.71838615  0.49597092  0.21758171  1
  Pt  Pt4  1  0.28301192  0.50217405  0.78155355  1
loop_
_geom_bond_atom_site_label_1
_geom_bond_atom_site_label_2
_geom_bond_distance
_geom_bond_site_symmetry_2
Na0 Pt2 3.063067 1_655
Na0 Pt0 3.081777 1_555
Na0 Pd0 3.088859 1_655
Na0 Si2 3.099139 1_556
Na0 Pt1 3.114438 1_555
Na0 Si0 3.115928 1_666
Na0 Si1 3.181070 1_566
Na0 Si3 3.237827 1_666
Na0 Pt4 3.284718 1_655
Na0 Pt3 3.298044 1_555
Na0 Na1 3.517031 1_666
Na0 Na1 3.517860 1_565
Na1 Pt2 3.097735 1_545
Na1 Pd0 3.110367 1_545
Na1 Pt0 3.130805 1_555
Na1 Pt1 3.138919 1_555
Na1 Si2 3.149493 1_545
Na1 Pt3 3.183600 1_556
Na1 Pt4 3.190724 1_555
Na1 Si0 3.205643 1_545
Na1 Pt4 3.351947 1_544
Na1 Pt3 3.366830 1_545
Na1 Si3 3.400028 1_545
Na1 Si1 3.404509 1_555
Na1 Pd0 3.543774 1_544
Na1 Pt1 3.564373 1_545
Na1 Pt2 3.583572 1_645
Na1 Pt0 3.607016 1_444
Si1 Si2 2.662645 1_545
Pd0 Si2 2.383450 1_556
Pd0 Si0 2.429279 1_566
Pd0 Si3 2.460256 1_555
Pd0 Si1 2.546887 1_566
Pt0 Si0 2.394084 1_656
Pt0 Si2 2.407530 1_556
Pt0 Si1 2.420391 1_555
Pt0 Si3 2.546049 1_656
Pt1 Si0 2.381429 1_555
Pt1 Si2 2.437687 1_556
Pt1 Si1 2.459954 1_555
Pt1 Si3 2.527297 1_555
Pt2 Si0 2.401143 1_566
Pt2 Si2 2.409684 1_455
Pt2 Si3 2.410484 1_555
Pt2 Si1 2.565447 1_465
Pt3 Si0 2.446436 1_555
Pt3 Si2 2.450644 1_555
Pt3 Si1 2.484019 1_555
Pt3 Si3 2.505079 1_655
Pt4 Si0 2.434745 1_556
Pt4 Si2 2.439128 1_556
Pt4 Si3 2.495111 1_555
Pt4 Si1 2.515202 1_455
