# generated using pymatgen
data_Mg2Ga5Cu6
_symmetry_space_group_name_H-M   'P 1'
_cell_length_a   8.19888214
_cell_length_b   8.19888302
_cell_length_c   8.19888309
_cell_angle_alpha   90.00000000
_cell_angle_beta   90.00000056
_cell_angle_gamma   89.99999881
_symmetry_Int_Tables_number   1
_chemical_formula_structural   Mg2Ga5Cu6
_chemical_formula_sum   'Mg6 Ga15 Cu18'
_cell_volume   551.14265904
_cell_formula_units_Z   3
loop_
 _symmetry_equiv_pos_site_id
 _symmetry_equiv_pos_as_xyz
  1  'x, y, z'
loop_
 _atom_site_type_symbol
 _atom_site_label
 _atom_site_symmetry_multiplicity
 _atom_site_fract_x
 _atom_site_fract_y
 _atom_site_fract_z
 _atom_site_occupancy
  Mg  Mg0  1  0.81868181  0.00000002  0.49999998  1
  Mg  Mg1  1  -0.00000000  0.49999997  0.81868185  1
  Mg  Mg2  1  0.49999998  0.81868188  0.00000004  1
  Mg  Mg3  1  0.00000003  0.50000005  0.18131814  1
  Mg  Mg4  1  0.49999998  0.18131817  0.00000002  1
  Mg  Mg5  1  0.18131829  0.00000005  0.49999993  1
  Ga  Ga0  1  0.28195292  0.71804708  0.28195297  1
  Ga  Ga1  1  0.71804706  0.28195293  0.28195294  1
  Ga  Ga2  1  0.28195296  0.28195294  0.71804705  1
  Ga  Ga3  1  0.71804710  0.71804705  0.71804705  1
  Ga  Ga4  1  0.71804699  0.28195292  0.71804702  1
  Ga  Ga5  1  0.28195293  0.71804710  0.71804704  1
  Ga  Ga6  1  0.71804707  0.71804707  0.28195294  1
  Ga  Ga7  1  0.28195289  0.28195294  0.28195302  1
  Ga  Ga8  1  0.66387903  0.49999985  0.00000004  1
  Ga  Ga9  1  0.49999986  0.00000010  0.66387892  1
  Ga  Ga10  1  0.00000006  0.66387906  0.50000002  1
  Ga  Ga11  1  0.50000010  0.00000004  0.33612104  1
  Ga  Ga12  1  0.00000002  0.33612101  0.49999978  1
  Ga  Ga13  1  0.33612100  0.50000012  0.00000011  1
  Ga  Ga14  1  0.00000002  0.00000006  0.00000004  1
  Cu  Cu0  1  0.00000004  0.83638102  0.25739523  1
  Cu  Cu1  1  -0.00000014  0.16361867  0.74260459  1
  Cu  Cu2  1  0.00000004  0.83638094  0.74260555  1
  Cu  Cu3  1  0.16361904  0.74260571  0.00000000  1
  Cu  Cu4  1  0.74260501  -0.00000001  0.83638084  1
  Cu  Cu5  1  0.74260576  0.00000016  0.16361908  1
  Cu  Cu6  1  0.83638085  0.25739453  0.00000009  1
  Cu  Cu7  1  0.25739450  0.00000027  0.83638098  1
  Cu  Cu8  1  0.83638122  0.74260490  0.00000032  1
  Cu  Cu9  1  0.27529682  0.49999986  0.49999980  1
  Cu  Cu10  1  0.49999974  0.27529664  0.49999972  1
  Cu  Cu11  1  0.50000008  0.49999972  0.27529667  1
  Cu  Cu12  1  0.49999982  0.72470340  0.50000003  1
  Cu  Cu13  1  0.49999990  0.49999973  0.72470333  1
  Cu  Cu14  1  0.72470320  0.49999979  0.49999996  1
  Cu  Cu15  1  0.00000004  0.16361905  0.25739436  1
  Cu  Cu16  1  0.25739498  0.00000013  0.16361931  1
  Cu  Cu17  1  0.16361902  0.25739509  0.00000021  1
loop_
_geom_bond_atom_site_label_1
_geom_bond_atom_site_label_2
_geom_bond_distance
_geom_bond_site_symmetry_2
Mg0 Mg5 2.973214 1_655
Mg1 Mg3 2.973213 1_556
Mg2 Mg4 2.973213 1_565
Ga0 Ga13 2.955877 1_555
Ga0 Ga10 2.955877 1_555
Ga0 Ga11 2.955879 1_565
Ga0 Mg5 3.036569 1_565
Ga0 Mg3 3.036569 1_555
Ga0 Mg2 3.036569 1_555
Ga1 Ga12 2.955877 1_655
Ga1 Ga8 2.955877 1_555
Ga1 Ga11 2.955877 1_555
Ga1 Mg0 3.036569 1_555
Ga1 Mg4 3.036569 1_555
Ga1 Mg3 3.036570 1_655
Ga2 Ga9 2.955877 1_555
Ga2 Mg5 3.036569 1_555
Ga2 Mg1 3.036569 1_555
Ga2 Mg4 3.036569 1_556
Ga3 Ga8 2.955879 1_556
Ga3 Ga9 2.955880 1_565
Ga3 Mg1 3.036569 1_655
Ga3 Mg0 3.036570 1_565
Ga3 Mg2 3.036570 1_556
Ga4 Ga9 2.955878 1_555
Ga4 Ga8 2.955878 1_556
Ga4 Mg0 3.036569 1_555
Ga4 Mg4 3.036569 1_556
Ga4 Mg1 3.036570 1_655
Ga5 Ga9 2.955878 1_565
Ga5 Mg5 3.036569 1_565
Ga5 Mg1 3.036570 1_555
Ga5 Mg2 3.036570 1_556
Ga6 Ga8 2.955879 1_555
Ga6 Mg3 3.036569 1_655
Ga6 Mg2 3.036569 1_555
Ga6 Mg0 3.036569 1_565
Ga7 Mg5 3.036568 1_555
Ga7 Mg3 3.036569 1_555
Ga7 Mg4 3.036570 1_555
Ga8 Mg4 2.938065 1_555
Ga8 Mg2 2.938068 1_555
Ga8 Mg3 3.131217 1_655
Ga8 Mg1 3.131217 1_654
Ga9 Mg5 2.938064 1_555
Ga9 Mg0 2.938067 1_555
Ga9 Mg4 3.131218 1_556
Ga9 Mg2 3.131219 1_546
Ga10 Ga12 2.687250 1_555
Ga10 Mg1 2.938067 1_555
Ga10 Mg3 2.938067 1_555
Ga10 Ga5 2.955877 1_555
Ga10 Ga3 2.955878 1_455
Ga10 Ga6 2.955878 1_455
Ga10 Mg0 3.131218 1_465
Ga10 Mg5 3.131218 1_565
Ga11 Ga9 2.687249 1_555
Ga11 Mg0 2.938065 1_555
Ga11 Mg5 2.938066 1_555
Ga11 Ga6 2.955878 1_545
Ga11 Ga7 2.955879 1_555
Ga11 Mg2 3.131218 1_545
Ga11 Mg4 3.131218 1_555
Ga12 Mg3 2.938065 1_555
Ga12 Mg1 2.938068 1_555
Ga12 Ga7 2.955876 1_555
Ga12 Ga2 2.955879 1_555
Ga12 Ga4 2.955880 1_455
Ga12 Mg5 3.131218 1_555
Ga12 Mg0 3.131218 1_455
Ga13 Ga8 2.687249 1_555
Ga13 Mg2 2.938066 1_555
Ga13 Mg4 2.938067 1_555
Ga13 Ga5 2.955879 1_554
Ga13 Ga7 2.955879 1_555
Ga13 Ga2 2.955880 1_554
Ga13 Mg3 3.131217 1_555
Ga13 Mg1 3.131218 1_554
Cu0 Ga10 2.440652 1_555
Cu0 Ga14 2.500639 1_565
Cu0 Ga0 2.515112 1_555
Cu0 Ga6 2.515113 1_455
Cu0 Cu5 2.616163 1_465
Cu0 Cu8 2.616166 1_455
Cu0 Cu16 2.616167 1_565
Cu0 Cu3 2.616167 1_555
Cu0 Cu15 2.682986 1_565
Cu0 Mg5 2.822423 1_565
Cu0 Mg0 2.822423 1_465
Cu0 Mg3 2.827603 1_555
Cu1 Ga12 2.440654 1_555
Cu1 Ga14 2.500639 1_556
Cu1 Ga4 2.515113 1_455
Cu1 Ga2 2.515115 1_555
Cu1 Cu7 2.616163 1_555
Cu1 Cu4 2.616165 1_455
Cu1 Cu6 2.616170 1_456
Cu1 Cu17 2.616173 1_556
Cu1 Cu2 2.682984 1_545
Cu1 Mg0 2.822421 1_455
Cu1 Mg5 2.822422 1_555
Cu1 Mg1 2.827606 1_555
Cu2 Ga10 2.440657 1_555
Cu2 Ga14 2.500634 1_566
Cu2 Ga5 2.515113 1_555
Cu2 Ga3 2.515113 1_455
Cu2 Cu3 2.616162 1_556
Cu2 Cu7 2.616163 1_565
Cu2 Cu8 2.616165 1_456
Cu2 Cu4 2.616166 1_465
Cu2 Mg0 2.822429 1_465
Cu2 Mg5 2.822429 1_565
Cu2 Mg1 2.827602 1_555
Cu3 Ga13 2.440657 1_555
Cu3 Ga14 2.500633 1_565
Cu3 Ga5 2.515114 1_554
Cu3 Ga0 2.515114 1_555
Cu3 Cu7 2.616163 1_564
Cu3 Cu8 2.682984 1_455
Cu3 Mg3 2.822428 1_555
Cu3 Mg1 2.822429 1_554
Cu3 Mg2 2.827601 1_555
Cu4 Ga9 2.440654 1_555
Cu4 Ga14 2.500638 1_656
Cu4 Ga3 2.515113 1_545
Cu4 Ga4 2.515113 1_555
Cu4 Cu6 2.616165 1_556
Cu4 Cu8 2.616170 1_546
Cu4 Cu5 2.682988 1_556
Cu4 Mg2 2.822425 1_546
Cu4 Mg4 2.822426 1_556
Cu4 Mg0 2.827602 1_555
Cu5 Ga11 2.440658 1_555
Cu5 Ga14 2.500632 1_655
Cu5 Ga1 2.515112 1_555
Cu5 Ga6 2.515114 1_545
Cu5 Cu6 2.616161 1_555
Cu5 Cu8 2.616166 1_545
Cu5 Mg4 2.822429 1_555
Cu5 Mg2 2.822430 1_545
Cu5 Mg0 2.827601 1_555
Cu6 Ga8 2.440655 1_555
Cu6 Ga14 2.500634 1_655
Cu6 Ga1 2.515112 1_555
Cu6 Ga4 2.515114 1_554
Cu6 Mg3 2.822428 1_655
Cu6 Mg1 2.822428 1_654
Cu6 Mg4 2.827601 1_555
Cu7 Ga9 2.440656 1_555
Cu7 Ga14 2.500634 1_556
Cu7 Ga2 2.515111 1_555
Cu7 Ga5 2.515115 1_545
Cu7 Mg4 2.822426 1_556
Cu7 Mg2 2.822429 1_546
Cu7 Mg5 2.827602 1_555
Cu8 Ga8 2.440655 1_555
Cu8 Ga14 2.500637 1_665
Cu8 Ga6 2.515111 1_555
Cu8 Ga3 2.515116 1_554
Cu8 Mg3 2.822422 1_655
Cu8 Mg1 2.822425 1_654
Cu8 Mg2 2.827605 1_555
Cu9 Ga7 2.528836 1_555
Cu9 Ga0 2.528838 1_555
Cu9 Ga2 2.528839 1_555
Cu9 Ga5 2.528840 1_555
Cu9 Ga12 2.626774 1_555
Cu9 Ga10 2.626775 1_555
Cu10 Ga7 2.528835 1_555
Cu10 Ga1 2.528838 1_555
Cu10 Ga2 2.528838 1_555
Cu10 Ga4 2.528841 1_555
Cu10 Cu9 2.605426 1_555
Cu10 Cu11 2.605426 1_555
Cu10 Cu14 2.605428 1_555
Cu10 Cu13 2.605429 1_555
Cu10 Ga11 2.626772 1_555
Cu10 Ga9 2.626774 1_555
Cu11 Ga1 2.528836 1_555
Cu11 Ga7 2.528837 1_555
Cu11 Ga6 2.528840 1_555
Cu11 Ga0 2.528841 1_555
Cu11 Cu9 2.605427 1_555
Cu11 Cu14 2.605427 1_555
Cu11 Cu12 2.605431 1_555
Cu11 Ga8 2.626773 1_555
Cu11 Ga13 2.626773 1_555
Cu12 Ga5 2.528837 1_555
Cu12 Ga0 2.528837 1_555
Cu12 Ga3 2.528839 1_555
Cu12 Ga6 2.528840 1_555
Cu12 Cu9 2.605428 1_555
Cu12 Cu14 2.605430 1_555
Cu12 Cu13 2.605431 1_555
Cu12 Ga11 2.626774 1_565
Cu12 Ga9 2.626774 1_565
Cu13 Ga2 2.528836 1_555
Cu13 Ga4 2.528837 1_555
Cu13 Ga5 2.528840 1_555
Cu13 Ga3 2.528841 1_555
Cu13 Cu9 2.605428 1_555
Cu13 Cu14 2.605429 1_555
Cu13 Ga13 2.626774 1_556
Cu13 Ga8 2.626775 1_556
Cu14 Ga1 2.528837 1_555
Cu14 Ga4 2.528837 1_555
Cu14 Ga6 2.528839 1_555
Cu14 Ga3 2.528840 1_555
Cu14 Ga12 2.626774 1_655
Cu14 Ga10 2.626776 1_655
Cu15 Ga12 2.440656 1_555
Cu15 Ga14 2.500633 1_555
Cu15 Ga7 2.515113 1_555
Cu15 Ga1 2.515113 1_455
Cu15 Cu5 2.616160 1_455
Cu15 Cu17 2.616161 1_555
Cu15 Cu6 2.616162 1_455
Cu15 Cu16 2.616164 1_555
Cu15 Mg5 2.822428 1_555
Cu15 Mg0 2.822429 1_455
Cu15 Mg3 2.827602 1_555
Cu16 Ga11 2.440653 1_555
Cu16 Ga14 2.500638 1_555
Cu16 Ga7 2.515111 1_555
Cu16 Ga0 2.515113 1_545
Cu16 Cu3 2.616164 1_545
Cu16 Cu17 2.616167 1_555
Cu16 Cu7 2.682989 1_554
Cu16 Mg4 2.822425 1_555
Cu16 Mg2 2.822426 1_545
Cu16 Mg5 2.827600 1_555
Cu17 Ga13 2.440654 1_555
Cu17 Ga14 2.500637 1_555
Cu17 Ga7 2.515112 1_555
Cu17 Ga2 2.515115 1_554
Cu17 Cu7 2.616166 1_554
Cu17 Cu6 2.682987 1_455
Cu17 Mg3 2.822423 1_555
Cu17 Mg1 2.822425 1_554
Cu17 Mg4 2.827602 1_555
