# generated using pymatgen
data_Nb3Ge3MoRu2
_symmetry_space_group_name_H-M   'P 1'
_cell_length_a   7.61562323
_cell_length_b   7.61562214
_cell_length_c   7.61562357
_cell_angle_alpha   126.81499823
_cell_angle_beta   124.24864689
_cell_angle_gamma   80.67591077
_symmetry_Int_Tables_number   1
_chemical_formula_structural   Nb3Ge3MoRu2
_chemical_formula_sum   'Nb6 Ge6 Mo2 Ru4'
_cell_volume   281.85845553
_cell_formula_units_Z   2
loop_
 _symmetry_equiv_pos_site_id
 _symmetry_equiv_pos_as_xyz
  1  'x, y, z'
loop_
 _atom_site_type_symbol
 _atom_site_label
 _atom_site_symmetry_multiplicity
 _atom_site_fract_x
 _atom_site_fract_y
 _atom_site_fract_z
 _atom_site_occupancy
  Nb  Nb0  1  0.56117457  0.09817736  0.03700379  1
  Nb  Nb1  1  0.43882543  0.47582921  0.53700379  1
  Nb  Nb2  1  0.96181766  0.48764796  0.02583030  1
  Nb  Nb3  1  0.03818234  0.06401164  0.52583030  1
  Nb  Nb4  1  0.75117610  0.91896340  0.66778731  1
  Nb  Nb5  1  0.24882390  0.91661021  0.16778731  1
  Ge  Ge0  1  0.78311776  0.55542356  0.27230580  1
  Ge  Ge1  1  0.21688224  0.48918705  0.77230580  1
  Ge  Ge2  1  0.33432334  0.81767024  0.49186371  1
  Ge  Ge3  1  0.66567666  0.15753938  0.48334590  1
  Ge  Ge4  1  0.82580652  0.81767024  0.98334590  1
  Ge  Ge5  1  0.17419348  0.15753938  0.99186371  1
  Mo  Mo0  1  0.50000000  0.25094863  0.75094863  1
  Mo  Mo1  1  1.00000000  0.25094863  0.25094863  1
  Ru  Ru0  1  0.16805534  0.74864730  0.66142360  1
  Ru  Ru1  1  0.83194466  0.49336826  0.58059195  1
  Ru  Ru2  1  0.58722369  0.74864730  0.08059195  1
  Ru  Ru3  1  0.41277631  0.49336826  0.16142360  1
loop_
_geom_bond_atom_site_label_1
_geom_bond_atom_site_label_2
_geom_bond_distance
_geom_bond_site_symmetry_2
Nb0 Ru1 2.813955 1_555
Nb0 Ru3 2.813958 1_555
Nb0 Ru2 2.837067 1_545
Nb0 Ru0 2.837071 1_544
Nb1 Ru0 2.813953 1_555
Nb1 Ru2 2.813953 1_556
Nb1 Ru1 2.837075 1_555
Nb1 Ru3 2.837075 1_555
Nb2 Ru3 2.977534 1_655
Nb2 Ru1 2.977534 1_554
Nb3 Ru0 2.977526 1_545
Nb3 Ru2 2.977532 1_445
Nb4 Ru1 2.925540 1_555
Nb4 Ru3 2.925541 1_555
Nb5 Ru2 2.925539 1_555
Nb5 Ru0 2.925543 1_554
Ge0 Ru2 2.436082 1_555
Ge0 Ru0 2.436082 1_655
Ge0 Ru3 2.482719 1_555
Ge0 Ru1 2.482719 1_555
Ge0 Mo1 2.596263 1_555
Ge0 Mo0 2.596263 1_554
Ge0 Nb2 2.669907 1_555
Ge0 Nb4 2.721832 1_555
Ge1 Ru3 2.436078 1_556
Ge1 Ru1 2.436084 1_455
Ge1 Ru2 2.482723 1_556
Ge1 Ru0 2.482726 1_555
Ge1 Mo0 2.596259 1_555
Ge1 Mo1 2.596264 1_455
Ge1 Nb3 2.669906 1_555
Ge1 Nb5 2.721832 1_556
Ge2 Ru0 2.533123 1_555
Ge2 Ru3 2.560275 1_555
Ge2 Mo0 2.667810 1_565
Ge2 Nb4 2.689927 1_555
Ge2 Nb2 2.692238 1_455
Ge2 Nb0 2.697740 1_566
Ge2 Nb5 2.709961 1_555
Ge2 Nb3 2.716037 1_565
Ge2 Nb1 2.760824 1_555
Ge3 Ru1 2.533125 1_555
Ge3 Ru2 2.560268 1_545
Ge3 Mo0 2.667815 1_555
Ge3 Nb5 2.689929 1_545
Ge3 Nb3 2.692235 1_655
Ge3 Nb1 2.697744 1_555
Ge3 Nb4 2.709965 1_545
Ge3 Nb2 2.716046 1_556
Ge3 Nb0 2.760818 1_555
Ge4 Ru2 2.533129 1_556
Ge4 Ru1 2.560270 1_555
Ge4 Mo1 2.667808 1_566
Ge4 Nb4 2.689920 1_555
Ge4 Nb2 2.692240 1_556
Ge4 Nb0 2.697735 1_566
Ge4 Nb5 2.709963 1_656
Ge4 Nb3 2.716048 1_666
Ge4 Nb1 2.760825 1_555
Ge5 Ru3 2.533129 1_556
Ge5 Ru0 2.560270 1_545
Ge5 Mo1 2.667808 1_456
Ge5 Nb5 2.689927 1_546
Ge5 Nb3 2.692238 1_555
Ge5 Nb1 2.697740 1_556
Ge5 Nb4 2.709964 1_445
Ge5 Nb2 2.716046 1_456
Ge5 Nb0 2.760825 1_556
Mo0 Nb1 2.834786 1_555
Mo0 Nb0 2.834793 1_556
Mo0 Nb4 2.886134 1_545
Mo0 Nb5 2.886136 1_545
Mo0 Ru2 2.940224 1_556
Mo0 Ru3 2.940225 1_556
Mo0 Nb2 3.040723 1_556
Mo0 Nb3 3.040725 1_555
Mo1 Nb1 2.834787 1_655
Mo1 Nb0 2.834789 1_555
Mo1 Nb4 2.886135 1_544
Mo1 Nb5 2.886139 1_645
Mo1 Ru0 2.940224 1_655
Mo1 Ru1 2.940225 1_555
Mo1 Nb2 3.040723 1_555
Mo1 Nb3 3.040729 1_655
