# generated using pymatgen
data_NbRe(PO4)3
_symmetry_space_group_name_H-M   'P 1'
_cell_length_a   8.65704798
_cell_length_b   8.65571019
_cell_length_c   8.99088602
_cell_angle_alpha   90.08976663
_cell_angle_beta   118.66363211
_cell_angle_gamma   120.00248311
_symmetry_Int_Tables_number   1
_chemical_formula_structural   NbRe(PO4)3
_chemical_formula_sum   'Nb2 Re2 P6 O24'
_cell_volume   485.41411755
_cell_formula_units_Z   2
loop_
 _symmetry_equiv_pos_site_id
 _symmetry_equiv_pos_as_xyz
  1  'x, y, z'
loop_
 _atom_site_type_symbol
 _atom_site_label
 _atom_site_symmetry_multiplicity
 _atom_site_fract_x
 _atom_site_fract_y
 _atom_site_fract_z
 _atom_site_occupancy
  Nb  Nb0  1  0.21218897  0.35688770  0.56852385  1
  Nb  Nb1  1  0.78653000  0.14248003  0.92925488  1
  Re  Re0  1  0.21371112  0.85816072  0.07137825  1
  Re  Re1  1  0.78795251  0.64271145  0.43138989  1
  P  P0  1  0.99760035  0.96010594  0.24840056  1
  P  P1  1  0.28842218  0.53821496  0.25081794  1
  P  P2  1  0.27881158  0.75129528  0.74821335  1
  P  P3  1  0.71179959  0.24981946  0.25176697  1
  P  P4  1  0.72245327  0.47145330  0.74917330  1
  P  P5  1  0.00067621  0.02902955  0.75123665  1
  O  O0  1  0.29652028  0.71416877  0.22771748  1
  O  O1  1  0.86512351  0.99327086  0.07959398  1
  O  O2  1  0.84524617  0.85304002  0.59119013  1
  O  O3  1  0.84071071  0.79466350  0.27292578  1
  O  O4  1  0.14832513  0.93106751  0.23321588  1
  O  O5  1  0.47922083  0.54827143  0.27607525  1
  O  O6  1  0.09973654  0.74254605  0.58276314  1
  O  O7  1  0.90422949  0.64137739  0.91450847  1
  O  O8  1  0.27610572  0.77026319  0.91375413  1
  O  O9  1  0.48908919  0.91915549  0.78017698  1
  O  O10  1  0.73518979  0.48471354  0.58701319  1
  O  O11  1  0.72143736  0.42884351  0.26954981  1
  O  O12  1  0.27535109  0.57460342  0.71669964  1
  O  O13  1  0.27340104  0.50655911  0.41303441  1
  O  O14  1  0.51563989  0.08190840  0.23305414  1
  O  O15  1  0.71742985  0.21375825  0.08749601  1
  O  O16  1  0.08685648  0.36670936  0.08621732  1
  O  O17  1  0.90872937  0.27412825  0.41669855  1
  O  O18  1  0.51390904  0.44056563  0.71000532  1
  O  O19  1  0.86386672  0.07299631  0.78005058  1
  O  O20  1  0.14188743  0.19807627  0.71335847  1
  O  O21  1  0.13689027  0.13848638  0.40795423  1
  O  O22  1  0.15144166  0.01577262  0.92104563  1
  O  O23  1  0.71351666  0.29489733  0.78574684  1
loop_
_geom_bond_atom_site_label_1
_geom_bond_atom_site_label_2
_geom_bond_distance
_geom_bond_site_symmetry_2
Nb0 O18 1.970512 1_555
Nb0 O20 1.971023 1_555
Nb0 O12 1.971775 1_555
Nb0 O21 1.984699 1_555
Nb0 O13 1.985783 1_555
Nb0 O17 1.988128 1_455
Nb1 O23 1.965123 1_555
Nb1 O9 1.966368 1_545
Nb1 O19 1.967561 1_555
Nb1 O16 1.985754 1_656
Nb1 O15 1.986319 1_556
Nb1 O1 1.989967 1_546
O0 P1 1.508568 1_555
O0 Re0 1.993855 1_555
O1 P0 1.536865 1_555
O2 P5 1.512423 1_665
O2 Re1 2.007423 1_555
O3 P0 1.512348 1_555
O3 Re1 1.999431 1_555
O4 P0 1.511020 1_455
O4 Re0 1.995085 1_555
O5 P1 1.511207 1_555
O5 Re1 1.998145 1_555
O6 P2 1.513858 1_555
O6 Re1 2.005977 1_455
O7 P4 1.511188 1_555
O7 Re0 2.006796 1_656
O8 P2 1.509716 1_555
O8 Re0 2.005238 1_556
O9 P2 1.535951 1_555
O10 P4 1.514290 1_555
O10 Re1 2.007749 1_555
O11 P3 1.513556 1_555
O11 Re1 1.999359 1_555
O12 P2 1.537823 1_555
O13 P1 1.538404 1_555
O14 P3 1.510389 1_555
O14 Re0 1.994862 1_545
O15 P3 1.537528 1_555
O16 P1 1.537505 1_555
O17 P3 1.537753 1_555
O18 P4 1.536865 1_555
O19 P5 1.536055 1_655
O20 P5 1.537369 1_555
O21 P0 1.538673 1_445
O22 P5 1.512045 1_555
O22 Re0 2.005220 1_546
O23 P4 1.535351 1_555
