# generated using pymatgen
data_Lu4Cu(GeIr)6
_symmetry_space_group_name_H-M   'P 1'
_cell_length_a   7.13998938
_cell_length_b   7.13999085
_cell_length_c   7.13998917
_cell_angle_alpha   109.41150562
_cell_angle_beta   109.41150704
_cell_angle_gamma   109.59071886
_symmetry_Int_Tables_number   1
_chemical_formula_structural   Lu4Cu(GeIr)6
_chemical_formula_sum   'Lu4 Cu1 Ge6 Ir6'
_cell_volume   280.20084963
_cell_formula_units_Z   1
loop_
 _symmetry_equiv_pos_site_id
 _symmetry_equiv_pos_as_xyz
  1  'x, y, z'
loop_
 _atom_site_type_symbol
 _atom_site_label
 _atom_site_symmetry_multiplicity
 _atom_site_fract_x
 _atom_site_fract_y
 _atom_site_fract_z
 _atom_site_occupancy
  Lu  Lu0  1  0.00239432  0.99760568  0.50000000  1
  Lu  Lu1  1  0.00239432  0.50239432  0.00478964  1
  Lu  Lu2  1  0.49760568  0.99760568  0.99521036  1
  Lu  Lu3  1  0.49760568  0.50239432  0.50000000  1
  Cu  Cu0  1  0.75000000  0.25000000  0.50000000  1
  Ge  Ge0  1  0.68347946  0.68347946  0.00000000  1
  Ge  Ge1  1  0.31471252  0.99876641  0.31594611  1
  Ge  Ge2  1  0.00123359  0.31717869  0.31594611  1
  Ge  Ge3  1  0.31652054  0.31652054  1.00000000  1
  Ge  Ge4  1  0.68282131  0.99876641  0.68405389  1
  Ge  Ge5  1  0.00123359  0.68528748  0.68405389  1
  Ir  Ir0  1  0.74718473  0.49452877  0.25265597  1
  Ir  Ir1  1  0.50547123  0.25281527  0.74734403  1
  Ir  Ir2  1  0.24187280  0.49452877  0.74734403  1
  Ir  Ir3  1  0.25000000  0.75000000  0.50000000  1
  Ir  Ir4  1  0.50547123  0.75812720  0.25265597  1
  Ir  Ir5  1  0.00000000  0.00000000  0.00000000  1
loop_
_geom_bond_atom_site_label_1
_geom_bond_atom_site_label_2
_geom_bond_distance
_geom_bond_site_symmetry_2
Cu0 Ge2 2.565869 1_655
Cu0 Ge4 2.565869 1_545
Cu0 Ge1 2.565870 1_545
Cu0 Ge5 2.565871 1_655
Cu0 Ir2 2.866535 1_655
Cu0 Ir1 2.866535 1_555
Cu0 Ir0 2.866535 1_555
Cu0 Ir4 2.866535 1_545
Cu0 Lu0 2.944974 1_645
Cu0 Lu3 2.944974 1_555
Cu0 Lu2 2.944979 1_544
Cu0 Lu1 2.944979 1_656
Ge0 Ir4 2.548121 1_555
Ge0 Ir1 2.548122 1_554
Ge0 Ir2 2.600972 1_554
Ge0 Ir0 2.600973 1_555
Ge0 Ir5 2.605720 1_665
Ge0 Lu1 2.968125 1_655
Ge0 Lu3 2.968126 1_554
Ge0 Lu0 2.968126 1_655
Ge0 Lu2 2.968127 1_554
Ge1 Ir1 2.544347 1_565
Ge1 Ir4 2.544347 1_555
Ge1 Ir3 2.549527 1_555
Ge1 Ir5 2.606772 1_565
Ge1 Lu1 2.939803 1_555
Ge1 Lu0 2.939803 1_555
Ge1 Lu3 2.988651 1_565
Ge1 Lu2 2.988656 1_554
Ge2 Ir2 2.544346 1_555
Ge2 Ir0 2.544353 1_455
Ge2 Ir3 2.549533 1_555
Ge2 Ir5 2.606769 1_555
Ge2 Lu1 2.939802 1_555
Ge2 Lu3 2.939803 1_555
Ge2 Lu0 2.988644 1_545
Ge2 Lu2 2.988650 1_444
Ge3 Ir0 2.548121 1_556
Ge3 Ir2 2.548122 1_555
Ge3 Ir1 2.600972 1_555
Ge3 Ir4 2.600973 1_556
Ge3 Ir5 2.605720 1_556
Ge3 Lu2 2.968126 1_545
Ge3 Lu3 2.968126 1_556
Ge3 Lu0 2.968126 1_545
Ge3 Lu1 2.968127 1_556
Ge4 Ir4 2.544346 1_555
Ge4 Ir1 2.544353 1_565
Ge4 Ir3 2.549532 1_555
Ge4 Ir5 2.606768 1_666
Ge4 Lu2 2.939802 1_555
Ge4 Lu3 2.939803 1_555
Ge4 Lu0 2.988644 1_655
Ge4 Lu1 2.988650 1_666
Ge5 Ir0 2.544347 1_455
Ge5 Ir2 2.544347 1_555
Ge5 Ir3 2.549527 1_555
Ge5 Ir5 2.606773 1_566
Ge5 Lu2 2.939803 1_555
Ge5 Lu0 2.939804 1_555
Ge5 Lu3 2.988650 1_455
Ge5 Lu1 2.988657 1_556
Ir0 Lu3 2.896647 1_555
Ir0 Lu2 2.896647 1_544
Ir0 Lu1 2.931997 1_655
Ir0 Lu0 2.932003 1_655
Ir1 Lu1 2.896647 1_656
Ir1 Lu3 2.896647 1_555
Ir1 Lu2 2.931997 1_545
Ir1 Lu0 2.932003 1_545
Ir2 Lu0 2.896647 1_545
Ir2 Lu1 2.896653 1_556
Ir2 Lu3 2.932003 1_555
Ir2 Lu2 2.932003 1_555
Ir3 Lu1 2.889093 1_555
Ir3 Lu2 2.889093 1_555
Ir3 Lu3 2.889099 1_555
Ir3 Lu0 2.889099 1_555
Ir4 Lu0 2.896647 1_655
Ir4 Lu2 2.896653 1_554
Ir4 Lu1 2.932003 1_555
Ir4 Lu3 2.932003 1_555
