# generated using pymatgen
data_Bi2Te2Mo2O13
_symmetry_space_group_name_H-M   'P 1'
_cell_length_a   6.61107838
_cell_length_b   6.97138432
_cell_length_c   11.73808757
_cell_angle_alpha   89.97631974
_cell_angle_beta   82.24275728
_cell_angle_gamma   85.35221616
_symmetry_Int_Tables_number   1
_chemical_formula_structural   Bi2Te2Mo2O13
_chemical_formula_sum   'Bi4 Te4 Mo4 O26'
_cell_volume   534.24560415
_cell_formula_units_Z   2
loop_
 _symmetry_equiv_pos_site_id
 _symmetry_equiv_pos_as_xyz
  1  'x, y, z'
loop_
 _atom_site_type_symbol
 _atom_site_label
 _atom_site_symmetry_multiplicity
 _atom_site_fract_x
 _atom_site_fract_y
 _atom_site_fract_z
 _atom_site_occupancy
  Bi  Bi0  1  0.77803717  0.13598925  0.11734682  1
  Bi  Bi1  1  0.38065449  0.40324159  0.35668063  1
  Bi  Bi2  1  0.61934579  0.59675555  0.64331845  1
  Bi  Bi3  1  0.22197196  0.86400876  0.88265160  1
  Te  Te0  1  0.25285385  0.39213618  0.04767282  1
  Te  Te1  1  0.84756607  0.19124796  0.43579721  1
  Te  Te2  1  0.15242413  0.80875652  0.56420146  1
  Te  Te3  1  0.74716226  0.60786014  0.95233000  1
  Mo  Mo0  1  0.25561909  0.88680519  0.18469595  1
  Mo  Mo1  1  0.88794957  0.64058162  0.29485474  1
  Mo  Mo2  1  0.11205100  0.35941876  0.70514583  1
  Mo  Mo3  1  0.74438200  0.11319499  0.81530354  1
  O  O0  1  0.28325704  0.66487959  0.04728259  1
  O  O1  1  0.16274463  0.04160727  0.06739099  1
  O  O2  1  0.99250655  0.41476573  0.13930119  1
  O  O3  1  0.51706877  0.90481513  0.15122400  1
  O  O4  1  0.42737742  0.32392925  0.15850369  1
  O  O5  1  0.92139819  0.82705119  0.18823428  1
  O  O6  1  0.64969704  0.55803340  0.27787926  1
  O  O7  1  0.20762629  0.65674036  0.27555262  1
  O  O8  1  0.18514919  0.04371055  0.30138786  1
  O  O9  1  0.69653975  0.16131334  0.31401154  1
  O  O10  1  0.99439006  0.40239383  0.37604819  1
  O  O11  1  0.83156334  0.76978173  0.42227835  1
  O  O12  1  0.37328403  0.65212683  0.48872801  1
  O  O13  1  0.62670580  0.34787451  0.51127854  1
  O  O14  1  0.16843520  0.23021583  0.57772344  1
  O  O15  1  0.00560491  0.59759919  0.62394600  1
  O  O16  1  0.30345052  0.83868697  0.68598725  1
  O  O17  1  0.81484880  0.95629483  0.69861061  1
  O  O18  1  0.79237230  0.34325685  0.72444722  1
  O  O19  1  0.35030026  0.44197106  0.72211882  1
  O  O20  1  0.07860383  0.17294743  0.81176706  1
  O  O21  1  0.57263399  0.67607742  0.84149792  1
  O  O22  1  0.48293025  0.09518606  0.84877432  1
  O  O23  1  0.00749551  0.58523574  0.86069555  1
  O  O24  1  0.83726043  0.95839023  0.93260831  1
  O  O25  1  0.71674555  0.33511918  0.95272135  1
loop_
_geom_bond_atom_site_label_1
_geom_bond_atom_site_label_2
_geom_bond_distance
_geom_bond_site_symmetry_2
Bi0 O9 2.302096 1_555
Bi0 O25 2.437918 1_554
Bi0 O3 2.448850 1_545
Bi0 O24 2.466368 1_544
Bi0 O5 2.471796 1_545
Bi0 O2 2.529709 1_555
Bi0 O4 2.555427 1_555
Bi0 O1 2.563558 1_655
Bi1 O6 2.247177 1_555
Bi1 O7 2.302945 1_555
Bi1 O12 2.320224 1_555
Bi1 O4 2.364706 1_555
Bi1 O10 2.533465 1_455
Bi1 O9 2.569845 1_555
Bi1 O13 2.604349 1_555
Bi2 O19 2.247161 1_555
Bi2 O18 2.302943 1_555
Bi2 O13 2.320153 1_555
Bi2 O21 2.364751 1_555
Bi2 O15 2.533425 1_655
Bi2 O16 2.569906 1_555
Bi2 O12 2.604333 1_555
Bi3 O16 2.302079 1_555
Bi3 O0 2.437958 1_556
Bi3 O22 2.448816 1_565
Bi3 O1 2.466375 1_566
Bi3 O20 2.471803 1_565
Bi3 O23 2.529723 1_555
Bi3 O21 2.555410 1_555
Bi3 O24 2.563584 1_455
Mo0 O3 1.734798 1_555
Mo0 O8 1.742447 1_565
Mo0 O1 1.886055 1_565
Mo0 O7 1.949401 1_555
Mo0 O0 2.214804 1_555
Mo0 O5 2.276354 1_455
Mo1 O11 1.727298 1_555
Mo1 O6 1.756005 1_555
Mo1 O5 1.809864 1_555
Mo1 O10 2.037430 1_555
Mo1 O7 2.107087 1_655
Mo1 O2 2.403184 1_555
Mo2 O14 1.727296 1_555
Mo2 O19 1.755989 1_555
Mo2 O20 1.809878 1_555
Mo2 O15 2.037440 1_555
Mo2 O18 2.107103 1_455
Mo2 O23 2.403155 1_555
Mo3 O22 1.734809 1_555
Mo3 O17 1.742432 1_545
Mo3 O24 1.886074 1_545
Mo3 O18 1.949379 1_555
Mo3 O25 2.214835 1_555
Mo3 O20 2.276360 1_655
O0 Te0 1.928061 1_555
O1 Te0 2.564803 1_555
O2 Te0 1.897506 1_655
O4 Te0 1.888269 1_555
O9 Te1 1.871717 1_555
O10 Te1 1.909899 1_555
O12 Te2 1.871450 1_555
O13 Te1 1.871475 1_555
O15 Te2 1.909931 1_555
O16 Te2 1.871714 1_555
O21 Te3 1.888315 1_555
O23 Te3 1.897460 1_455
O24 Te3 2.564791 1_555
O25 Te3 1.928060 1_555
