# generated using pymatgen
data_KAuS5
_symmetry_space_group_name_H-M   'P 1'
_cell_length_a   10.38493075
_cell_length_b   10.38480160
_cell_length_c   10.38476960
_cell_angle_alpha   131.59304872
_cell_angle_beta   117.13833776
_cell_angle_gamma   83.10974359
_symmetry_Int_Tables_number   1
_chemical_formula_structural   KAuS5
_chemical_formula_sum   'K4 Au4 S20'
_cell_volume   716.69733610
_cell_formula_units_Z   4
loop_
 _symmetry_equiv_pos_site_id
 _symmetry_equiv_pos_as_xyz
  1  'x, y, z'
loop_
 _atom_site_type_symbol
 _atom_site_label
 _atom_site_symmetry_multiplicity
 _atom_site_fract_x
 _atom_site_fract_y
 _atom_site_fract_z
 _atom_site_occupancy
  K  K0  1  0.25001286  0.24999397  0.00000989  1
  K  K1  1  0.75001087  0.75000476  0.00001366  1
  K  K2  1  -0.00000941  0.49998072  0.49997695  1
  K  K3  1  0.49999398  0.00001959  0.50000576  1
  Au  Au0  1  0.88762972  0.24999270  0.63763218  1
  Au  Au1  1  0.61236603  0.24999102  0.36236586  1
  Au  Au2  1  0.11237052  0.74999704  0.36236953  1
  Au  Au3  1  0.38763753  0.75000679  0.63764430  1
  S  S0  1  0.42784613  0.39617965  0.60925708  1
  S  S1  1  0.07215023  0.68141409  0.96833294  1
  S  S2  1  0.71308395  0.10382857  0.03167288  1
  S  S3  1  0.78692125  0.81858651  0.39073863  1
  S  S4  1  0.57214472  0.60380984  0.39072259  1
  S  S5  1  0.92784914  0.31858167  0.03166725  1
  S  S6  1  0.28691067  0.89618658  0.96833256  1
  S  S7  1  0.21308582  0.18142368  0.60927088  1
  S  S8  1  0.98986933  0.15030887  0.43918946  1
  S  S9  1  0.51013090  0.94929574  0.16042528  1
  S  S10  1  0.78887663  0.34970213  0.83956766  1
  S  S11  1  0.71112197  0.55068774  0.56081798  1
  S  S12  1  0.01013614  0.84968111  0.56081530  1
  S  S13  1  0.48986939  0.05068590  0.83956032  1
  S  S14  1  0.21113099  0.65030600  0.16043803  1
  S  S15  1  0.28887684  0.44932332  0.43918456  1
  S  S16  1  0.34073548  0.42868156  0.76941630  1
  S  S17  1  0.15926098  0.92867909  0.08793298  1
  S  S18  1  0.84073783  0.07132671  0.91206278  1
  S  S19  1  0.65925152  0.57132464  0.23057540  1
loop_
_geom_bond_atom_site_label_1
_geom_bond_atom_site_label_2
_geom_bond_distance
_geom_bond_site_symmetry_2
K0 S15 3.351880 1_555
K0 S13 3.351925 1_554
K0 S12 3.352017 1_544
K0 S14 3.352057 1_555
K0 S6 3.453606 1_544
K0 S4 3.453645 1_555
K0 S7 3.453841 1_554
K0 S5 3.453914 1_455
K1 S10 3.351886 1_554
K1 S8 3.351888 1_565
K1 S9 3.351940 1_555
K1 S11 3.352000 1_554
K1 S3 3.453700 1_555
K1 S1 3.453762 1_654
K1 S0 3.453887 1_554
K1 S2 3.453888 1_565
K2 S8 3.253202 1_455
K2 S12 3.253219 1_555
K2 S15 3.253294 1_555
K2 S11 3.253329 1_455
K2 S2 3.551380 1_455
K2 S5 3.551464 1_455
K2 S1 3.551714 1_555
K2 S6 3.551741 1_555
K2 S16 3.740108 1_555
K2 S19 3.740167 1_455
K3 S10 3.253234 1_555
K3 S9 3.253246 1_545
K3 S13 3.253249 1_555
K3 S14 3.253278 1_545
K3 S0 3.551453 1_555
K3 S7 3.551544 1_555
K3 S3 3.551800 1_545
K3 S4 3.551818 1_545
K3 S17 3.740043 1_545
K3 S18 3.740154 1_555
Au0 S10 2.312099 1_555
Au0 S8 2.312102 1_555
Au0 K0 3.924846 1_656
Au1 S9 2.312148 1_545
Au1 S11 2.312181 1_555
Au1 K0 3.924588 1_555
Au2 S12 2.312083 1_555
Au2 S14 2.312167 1_555
Au2 K1 3.924649 1_455
Au3 S13 2.312057 1_565
Au3 S15 2.312062 1_555
Au3 K1 3.924765 1_556
S0 S16 2.062189 1_555
S0 S15 2.069877 1_555
S1 S17 2.062189 1_556
S1 S14 2.069878 1_556
S6 S9 2.069944 1_556
S7 S8 2.069882 1_455
S10 S5 2.069906 1_556
S11 S4 2.069901 1_555
S12 S3 2.069915 1_455
S13 S2 2.069876 1_556
S16 S7 2.062092 1_555
S17 S6 2.062057 1_554
S18 S5 2.062078 1_556
S18 S2 2.062145 1_556
S19 S4 2.062119 1_555
S19 S3 2.062155 1_555
