# generated using pymatgen
data_UMn2
_symmetry_space_group_name_H-M   'P 1'
_cell_length_a   5.16786303
_cell_length_b   5.16861282
_cell_length_c   5.16932232
_cell_angle_alpha   119.99098576
_cell_angle_beta   120.01225164
_cell_angle_gamma   89.98393738
_symmetry_Int_Tables_number   1
_chemical_formula_structural   UMn2
_chemical_formula_sum   'U2 Mn4'
_cell_volume   97.64346617
_cell_formula_units_Z   2
loop_
 _symmetry_equiv_pos_site_id
 _symmetry_equiv_pos_as_xyz
  1  'x, y, z'
loop_
 _atom_site_type_symbol
 _atom_site_label
 _atom_site_symmetry_multiplicity
 _atom_site_fract_x
 _atom_site_fract_y
 _atom_site_fract_z
 _atom_site_occupancy
  U  U0  1  0.62471660  0.87486269  0.74994077  1
  U  U1  1  0.37528340  0.12513731  0.25005923  1
  Mn  Mn0  1  0.50000000  0.50000000  0.00000000  1
  Mn  Mn1  1  -0.00000000  0.50000000  0.50000000  1
  Mn  Mn2  1  -0.00000000  -0.00000000  0.50000000  1
  Mn  Mn3  1  -0.00000000  0.50000000  0.00000000  1
loop_
_geom_bond_atom_site_label_1
_geom_bond_atom_site_label_2
_geom_bond_distance
_geom_bond_site_symmetry_2
U0 U1 3.163553 1_566
U0 U1 3.164637 1_555
U0 U1 3.165580 1_565
U0 U1 3.167050 1_666
Mn0 Mn1 2.583818 1_655
Mn0 Mn1 2.583818 1_554
Mn0 Mn3 2.583932 1_555
Mn0 Mn3 2.583932 1_655
Mn0 Mn2 2.584717 1_665
Mn0 Mn2 2.584717 1_554
Mn0 U1 3.029565 1_555
Mn0 U0 3.029565 1_554
Mn0 U1 3.030355 1_565
Mn0 U0 3.030355 1_544
Mn0 U0 3.031526 1_555
Mn0 U1 3.031526 1_554
Mn1 Mn2 2.584306 1_555
Mn1 Mn2 2.584306 1_565
Mn1 Mn3 2.584661 1_555
Mn1 Mn3 2.584661 1_556
Mn1 U1 3.028908 1_455
Mn1 U0 3.028908 1_555
Mn1 U1 3.030938 1_555
Mn1 U0 3.030938 1_455
Mn1 U0 3.031711 1_444
Mn1 U1 3.031711 1_566
Mn2 Mn3 2.584836 1_545
Mn2 Mn3 2.584836 1_556
Mn2 U0 3.028536 1_545
Mn2 U1 3.028536 1_455
Mn2 U0 3.030550 1_444
Mn2 U1 3.030550 1_556
Mn2 U1 3.031801 1_555
Mn2 U0 3.031801 1_445
Mn3 U1 3.029792 1_454
Mn3 U0 3.029792 1_555
Mn3 U1 3.029860 1_555
Mn3 U0 3.029860 1_454
Mn3 U1 3.031886 1_565
Mn3 U0 3.031886 1_444
