# generated using pymatgen
data_MgNbOsF12
_symmetry_space_group_name_H-M   'P 1'
_cell_length_a   5.38871262
_cell_length_b   10.84763414
_cell_length_c   5.43299814
_cell_angle_alpha   55.18561935
_cell_angle_beta   55.60838205
_cell_angle_gamma   56.19585362
_symmetry_Int_Tables_number   1
_chemical_formula_structural   MgNbOsF12
_chemical_formula_sum   'Mg1 Nb1 Os1 F12'
_cell_volume   201.93418540
_cell_formula_units_Z   1
loop_
 _symmetry_equiv_pos_site_id
 _symmetry_equiv_pos_as_xyz
  1  'x, y, z'
loop_
 _atom_site_type_symbol
 _atom_site_label
 _atom_site_symmetry_multiplicity
 _atom_site_fract_x
 _atom_site_fract_y
 _atom_site_fract_z
 _atom_site_occupancy
  Mg  Mg0  1  0.49621674  0.74840747  0.50648666  1
  Nb  Nb0  1  0.00942386  0.01866141  0.96624947  1
  Os  Os0  1  0.98471798  0.49254716  0.02469785  1
  F  F0  1  0.40436024  0.04594543  0.76031343  1
  F  F1  1  0.36018532  0.55743666  0.76889619  1
  F  F2  1  0.08375031  0.38079972  0.39215460  1
  F  F3  1  0.13234432  0.87589908  0.35733881  1
  F  F4  1  0.21864662  0.31393276  0.91561051  1
  F  F5  1  0.24707737  0.81740111  0.87013984  1
  F  F6  1  0.92660437  0.11809110  0.59138520  1
  F  F7  1  0.87485786  0.61975542  0.64074210  1
  F  F8  1  0.60577961  0.45023959  0.25315484  1
  F  F9  1  0.65326425  0.93135209  0.24089905  1
  F  F10  1  0.75118041  0.19528760  0.08575261  1
  F  F11  1  0.75159173  0.68424341  0.12617984  1
loop_
_geom_bond_atom_site_label_1
_geom_bond_atom_site_label_2
_geom_bond_distance
_geom_bond_site_symmetry_2
F0 Nb0 1.871219 1_555
F1 Os0 1.952365 1_456
F1 Mg0 1.999530 1_555
F2 Os0 1.860180 1_455
F3 Mg0 1.977862 1_555
F3 Nb0 2.010733 1_564
F4 Os0 1.855769 1_456
F5 Mg0 1.959569 1_555
F5 Nb0 2.028368 1_565
F6 Nb0 1.869050 1_655
F7 Os0 1.950753 1_556
F7 Mg0 1.998339 1_555
F8 Os0 1.857428 1_555
F9 Mg0 1.989002 1_555
F9 Nb0 1.995172 1_664
F10 Nb0 1.860641 1_654
F11 Os0 1.956063 1_555
F11 Mg0 2.002898 1_555
