# generated using pymatgen
data_TaTi3Ga4Mo
_symmetry_space_group_name_H-M   'P 1'
_cell_length_a   7.81876261
_cell_length_b   7.81876280
_cell_length_c   5.32927009
_cell_angle_alpha   90.00000000
_cell_angle_beta   90.00000000
_cell_angle_gamma   119.99999918
_symmetry_Int_Tables_number   1
_chemical_formula_structural   TaTi3Ga4Mo
_chemical_formula_sum   'Ta2 Ti6 Ga8 Mo2'
_cell_volume   282.14634701
_cell_formula_units_Z   2
loop_
 _symmetry_equiv_pos_site_id
 _symmetry_equiv_pos_as_xyz
  1  'x, y, z'
loop_
 _atom_site_type_symbol
 _atom_site_label
 _atom_site_symmetry_multiplicity
 _atom_site_fract_x
 _atom_site_fract_y
 _atom_site_fract_z
 _atom_site_occupancy
  Ta  Ta0  1  0.33333300  0.66666700  0.00000000  1
  Ta  Ta1  1  0.66666700  0.33333300  0.50000000  1
  Ti  Ti0  1  0.28676552  0.00000000  0.25000000  1
  Ti  Ti1  1  0.28676552  0.28676552  0.75000000  1
  Ti  Ti2  1  1.00000000  0.71323448  0.75000000  1
  Ti  Ti3  1  0.00000000  0.28676552  0.25000000  1
  Ti  Ti4  1  0.71323448  0.71323448  0.25000000  1
  Ti  Ti5  1  0.71323448  0.00000000  0.75000000  1
  Ga  Ga0  1  0.00000000  0.00000000  0.00000000  1
  Ga  Ga1  1  0.00000000  0.00000000  0.50000000  1
  Ga  Ga2  1  0.62267148  0.00000000  0.25000000  1
  Ga  Ga3  1  0.62267148  0.62267148  0.75000000  1
  Ga  Ga4  1  1.00000000  0.37732852  0.75000000  1
  Ga  Ga5  1  0.00000000  0.62267148  0.25000000  1
  Ga  Ga6  1  0.37732852  0.37732852  0.25000000  1
  Ga  Ga7  1  0.37732852  0.00000000  0.75000000  1
  Mo  Mo0  1  0.66666700  0.33333300  0.00000000  1
  Mo  Mo1  1  0.33333300  0.66666700  0.50000000  1
loop_
_geom_bond_atom_site_label_1
_geom_bond_atom_site_label_2
_geom_bond_distance
_geom_bond_site_symmetry_2
Ta0 Ti2 3.106304 1_454
Ta0 Ti0 3.106304 1_565
Ta0 Ti5 3.106308 1_564
Ta0 Ti3 3.106308 1_555
Ta0 Ti4 3.106311 1_555
Ta0 Ti1 3.106311 1_554
Ta1 Ti3 3.106304 1_655
Ta1 Ti5 3.106304 1_555
Ta1 Ti0 3.106308 1_555
Ta1 Ti2 3.106308 1_555
Ta1 Ti1 3.106311 1_555
Ta1 Ti4 3.106311 1_555
Ga0 Ti0 2.608125 1_555
Ga0 Ti5 2.608125 1_454
Ga0 Ti3 2.608125 1_555
Ga0 Ti2 2.608125 1_444
Ga0 Ti1 2.608125 1_554
Ga0 Ti4 2.608125 1_445
Ga0 Ga1 2.664635 1_555
Ga0 Ga1 2.664635 1_554
Ga1 Ti0 2.608125 1_555
Ga1 Ti5 2.608125 1_455
Ga1 Ti3 2.608125 1_555
Ga1 Ti2 2.608125 1_445
Ga1 Ti1 2.608125 1_555
Ga1 Ti4 2.608125 1_445
Ga2 Ti0 2.626369 1_555
Ga2 Ti4 2.667636 1_545
Ga2 Ti3 2.667636 1_655
Ga2 Ti5 2.757113 1_554
Ga2 Ti5 2.757113 1_555
Ga2 Ta1 2.790953 1_555
Ga2 Mo0 2.790953 1_555
Ga2 Mo1 2.790956 1_545
Ga2 Ta0 2.790956 1_545
Ga3 Ti1 2.626369 1_555
Ga3 Ti2 2.667636 1_555
Ga3 Ti5 2.667636 1_565
Ga3 Ti4 2.757113 1_555
Ga3 Ti4 2.757113 1_556
Ga3 Ta0 2.790960 1_556
Ga3 Mo1 2.790960 1_555
Ga3 Mo0 2.790960 1_556
Ga3 Ta1 2.790960 1_555
Ga4 Ti2 2.626369 1_555
Ga4 Ti1 2.667636 1_655
Ga4 Ti5 2.667636 1_555
Ga4 Ti3 2.757113 1_656
Ga4 Ti3 2.757113 1_655
Ga4 Mo0 2.790953 1_556
Ga4 Ta1 2.790953 1_555
Ga4 Ta0 2.790956 1_656
Ga4 Mo1 2.790956 1_655
Ga5 Ti3 2.626369 1_555
Ga5 Ti4 2.667636 1_455
Ga5 Ti0 2.667636 1_565
Ga5 Ti2 2.757113 1_455
Ga5 Ti2 2.757113 1_454
Ga5 Ta0 2.790953 1_555
Ga5 Mo1 2.790953 1_555
Ga5 Mo0 2.790956 1_455
Ga5 Ta1 2.790956 1_455
Ga6 Ti4 2.626369 1_555
Ga6 Ti3 2.667636 1_555
Ga6 Ti0 2.667636 1_555
Ga6 Ti1 2.757113 1_555
Ga6 Ti1 2.757113 1_554
Ga6 Mo0 2.790960 1_555
Ga6 Ta1 2.790960 1_555
Ga6 Mo1 2.790960 1_555
Ga6 Ta0 2.790960 1_555
Ga7 Ti5 2.626369 1_555
Ga7 Ti1 2.667636 1_555
Ga7 Ti2 2.667636 1_445
Ga7 Ti0 2.757113 1_555
Ga7 Ti0 2.757113 1_556
Ga7 Mo1 2.790953 1_545
Ga7 Ta0 2.790953 1_546
Ga7 Mo0 2.790956 1_556
Ga7 Ta1 2.790956 1_555
Mo0 Ta1 2.664635 1_554
Mo0 Ta1 2.664635 1_555
Mo0 Ti3 3.106304 1_655
Mo0 Ti5 3.106304 1_554
Mo0 Ti0 3.106308 1_555
Mo0 Ti2 3.106308 1_554
Mo0 Ti1 3.106311 1_554
Mo0 Ti4 3.106311 1_555
Mo1 Ta0 2.664635 1_556
Mo1 Ta0 2.664635 1_555
Mo1 Ti2 3.106304 1_455
Mo1 Ti0 3.106304 1_565
Mo1 Ti5 3.106308 1_565
Mo1 Ti3 3.106308 1_555
Mo1 Ti4 3.106311 1_555
Mo1 Ti1 3.106311 1_555
