# generated using pymatgen
data_K4MnHgSe4
_symmetry_space_group_name_H-M   'P 1'
_cell_length_a   8.23574849
_cell_length_b   8.23574807
_cell_length_c   8.23574848
_cell_angle_alpha   132.33385304
_cell_angle_beta   128.68783178
_cell_angle_gamma   72.63089192
_symmetry_Int_Tables_number   1
_chemical_formula_structural   K4MnHgSe4
_chemical_formula_sum   'K4 Mn1 Hg1 Se4'
_cell_volume   314.98937791
_cell_formula_units_Z   1
loop_
 _symmetry_equiv_pos_site_id
 _symmetry_equiv_pos_as_xyz
  1  'x, y, z'
loop_
 _atom_site_type_symbol
 _atom_site_label
 _atom_site_symmetry_multiplicity
 _atom_site_fract_x
 _atom_site_fract_y
 _atom_site_fract_z
 _atom_site_occupancy
  K  K0  1  0.47533965  0.14828123  0.33640763  1
  K  K1  1  0.52466035  0.86106897  0.67294258  1
  K  K2  1  0.18812639  0.35171877  0.82705742  1
  K  K3  1  0.81187361  0.63893103  0.16359237  1
  Mn  Mn0  1  0.00000000  0.75000000  0.75000000  1
  Hg  Hg0  1  0.00000000  0.25000000  0.25000000  1
  Se  Se0  1  0.09554637  0.87601214  0.18872943  1
  Se  Se1  1  0.90445363  0.09318306  0.78046577  1
  Se  Se2  1  0.31271629  0.62398786  0.71953423  1
  Se  Se3  1  0.68728371  0.40681694  0.31127057  1
loop_
_geom_bond_atom_site_label_1
_geom_bond_atom_site_label_2
_geom_bond_distance
_geom_bond_site_symmetry_2
K0 Se3 3.299669 1_555
K0 Se1 3.345189 1_555
K0 Se2 3.413002 1_544
K0 Se0 3.471219 1_545
K0 Mn0 3.478923 1_544
K0 Se2 3.549518 1_555
K0 Se1 3.852074 1_454
K1 Se2 3.299669 1_555
K1 Se0 3.345189 1_555
K1 Se3 3.413015 1_555
K1 Se1 3.471220 1_565
K1 Mn0 3.478926 1_655
K1 Se3 3.549505 1_566
K1 Se0 3.852075 1_656
K2 Se1 3.299669 1_455
K2 Se3 3.345196 1_556
K2 Se0 3.413005 1_556
K2 Se2 3.471207 1_555
K2 Mn0 3.478919 1_555
K2 Se0 3.549508 1_545
K2 Se3 3.852067 1_455
K3 Se0 3.299669 1_655
K3 Se2 3.345196 1_554
K3 Se1 3.413005 1_565
K3 Se3 3.471207 1_555
K3 Mn0 3.478919 1_655
K3 Se1 3.549508 1_554
K3 Se2 3.852068 1_655
Mn0 Se2 2.575707 1_555
Mn0 Se3 2.575711 1_455
Mn0 Se1 2.575715 1_465
Mn0 Se0 2.575715 1_556
Hg0 Se3 2.704915 1_455
Hg0 Se2 2.704919 1_555
Hg0 Se0 2.704922 1_545
Hg0 Se1 2.704923 1_454
Hg0 K3 3.449025 1_455
Hg0 K2 3.449025 1_555
Hg0 K1 3.449030 1_444
Hg0 K0 3.449033 1_555
