# generated using pymatgen
data_BiP4PbAu4
_symmetry_space_group_name_H-M   'P 1'
_cell_length_a   11.86775534
_cell_length_b   11.86774114
_cell_length_c   22.53685751
_cell_angle_alpha   90.00000000
_cell_angle_beta   90.00000000
_cell_angle_gamma   147.83408271
_symmetry_Int_Tables_number   1
_chemical_formula_structural   BiP4PbAu4
_chemical_formula_sum   'Bi8 P32 Pb8 Au32'
_cell_volume   1689.84115341
_cell_formula_units_Z   8
loop_
 _symmetry_equiv_pos_site_id
 _symmetry_equiv_pos_as_xyz
  1  'x, y, z'
loop_
 _atom_site_type_symbol
 _atom_site_label
 _atom_site_symmetry_multiplicity
 _atom_site_fract_x
 _atom_site_fract_y
 _atom_site_fract_z
 _atom_site_occupancy
  Bi  Bi0_0  1  0.25931543  0.24068531  0.37500000  1
  Bi  Bi0_1  1  0.25931543  0.24068531  0.87500000  1
  Bi  Bi0_2  1  0.25931543  0.74068531  0.37500000  1
  Bi  Bi0_3  1  0.25931543  0.74068531  0.87500000  1
  Bi  Bi0_4  1  0.75931543  0.24068531  0.37500000  1
  Bi  Bi0_5  1  0.75931543  0.24068531  0.87500000  1
  Bi  Bi0_6  1  0.75931543  0.74068531  0.37500000  1
  Bi  Bi0_7  1  0.75931543  0.74068531  0.87500000  1
  P  P0_0  1  0.39913429  0.10086572  0.27170941  1
  P  P0_1  1  0.39913429  0.10086572  0.77170941  1
  P  P0_2  1  0.39913429  0.60086572  0.27170941  1
  P  P0_3  1  0.39913429  0.60086572  0.77170941  1
  P  P0_4  1  0.89913429  0.10086572  0.27170941  1
  P  P0_5  1  0.89913429  0.10086572  0.77170941  1
  P  P0_6  1  0.89913429  0.60086572  0.27170941  1
  P  P0_7  1  0.89913429  0.60086572  0.77170941  1
  P  P1_0  1  0.10112320  0.39887783  0.02188771  1
  P  P1_1  1  0.10112320  0.39887783  0.52188771  1
  P  P1_2  1  0.10112320  0.89887783  0.02188771  1
  P  P1_3  1  0.10112320  0.89887783  0.52188771  1
  P  P1_4  1  0.60112320  0.39887783  0.02188771  1
  P  P1_5  1  0.60112320  0.39887783  0.52188771  1
  P  P1_6  1  0.60112320  0.89887783  0.02188771  1
  P  P1_7  1  0.60112320  0.89887783  0.52188771  1
  P  P2_0  1  0.10112320  0.39887783  0.22811229  1
  P  P2_1  1  0.10112320  0.39887783  0.72811229  1
  P  P2_2  1  0.10112320  0.89887783  0.22811229  1
  P  P2_3  1  0.10112320  0.89887783  0.72811229  1
  P  P2_4  1  0.60112320  0.39887783  0.22811229  1
  P  P2_5  1  0.60112320  0.39887783  0.72811229  1
  P  P2_6  1  0.60112320  0.89887783  0.22811229  1
  P  P2_7  1  0.60112320  0.89887783  0.72811229  1
  P  P3_0  1  0.39913429  0.10086572  0.47829059  1
  P  P3_1  1  0.39913429  0.10086572  0.97829059  1
  P  P3_2  1  0.39913429  0.60086572  0.47829059  1
  P  P3_3  1  0.39913429  0.60086572  0.97829059  1
  P  P3_4  1  0.89913429  0.10086572  0.47829059  1
  P  P3_5  1  0.89913429  0.10086572  0.97829059  1
  P  P3_6  1  0.89913429  0.60086572  0.47829059  1
  P  P3_7  1  0.89913429  0.60086572  0.97829059  1
  Pb  Pb0_0  1  0.23934549  0.26065135  0.12500000  1
  Pb  Pb0_1  1  0.23934549  0.26065135  0.62500000  1
  Pb  Pb0_2  1  0.23934549  0.76065135  0.12500000  1
  Pb  Pb0_3  1  0.23934549  0.76065135  0.62500000  1
  Pb  Pb0_4  1  0.73934549  0.26065135  0.12500000  1
  Pb  Pb0_5  1  0.73934549  0.26065135  0.62500000  1
  Pb  Pb0_6  1  0.73934549  0.76065135  0.12500000  1
  Pb  Pb0_7  1  0.73934549  0.76065135  0.62500000  1
  Au  Au0_0  1  0.00070206  0.49929818  0.49831880  1
  Au  Au0_1  1  0.00070206  0.49929818  0.99831880  1
  Au  Au0_2  1  0.00070206  0.99929818  0.49831880  1
  Au  Au0_3  1  0.00070206  0.99929818  0.99831880  1
  Au  Au0_4  1  0.50070206  0.49929818  0.49831880  1
  Au  Au0_5  1  0.50070206  0.49929818  0.99831880  1
  Au  Au0_6  1  0.50070206  0.99929818  0.49831880  1
  Au  Au0_7  1  0.50070206  0.99929818  0.99831880  1
  Au  Au1_0  1  0.38676688  0.11323251  0.37500000  1
  Au  Au1_1  1  0.38676688  0.11323251  0.87500000  1
  Au  Au1_2  1  0.38676688  0.61323251  0.37500000  1
  Au  Au1_3  1  0.38676688  0.61323251  0.87500000  1
  Au  Au1_4  1  0.88676688  0.11323251  0.37500000  1
  Au  Au1_5  1  0.88676688  0.11323251  0.87500000  1
  Au  Au1_6  1  0.88676688  0.61323251  0.37500000  1
  Au  Au1_7  1  0.88676688  0.61323251  0.87500000  1
  Au  Au2_0  1  0.00070206  0.49929818  0.25168120  1
  Au  Au2_1  1  0.00070206  0.49929818  0.75168120  1
  Au  Au2_2  1  0.00070206  0.99929818  0.25168120  1
  Au  Au2_3  1  0.00070206  0.99929818  0.75168120  1
  Au  Au2_4  1  0.50070206  0.49929818  0.25168120  1
  Au  Au2_5  1  0.50070206  0.49929818  0.75168120  1
  Au  Au2_6  1  0.50070206  0.99929818  0.25168120  1
  Au  Au2_7  1  0.50070206  0.99929818  0.75168120  1
  Au  Au3_0  1  0.11265261  0.38734787  0.12500000  1
  Au  Au3_1  1  0.11265261  0.38734787  0.62500000  1
  Au  Au3_2  1  0.11265261  0.88734787  0.12500000  1
  Au  Au3_3  1  0.11265261  0.88734787  0.62500000  1
  Au  Au3_4  1  0.61265261  0.38734787  0.12500000  1
  Au  Au3_5  1  0.61265261  0.38734787  0.62500000  1
  Au  Au3_6  1  0.61265261  0.88734787  0.12500000  1
  Au  Au3_7  1  0.61265261  0.88734787  0.62500000  1
loop_
_geom_bond_atom_site_label_1
_geom_bond_atom_site_label_2
_geom_bond_distance
_geom_bond_site_symmetry_2
P0_0 P2_2 2.206042 1_545
P0_0 P2_4 2.206043 1_555
P0_1 P2_3 2.206042 1_545
P0_1 P2_5 2.206043 1_555
P0_2 P2_0 2.206042 1_555
P0_2 P2_6 2.206043 1_555
P0_3 P2_1 2.206042 1_555
P0_3 P2_7 2.206043 1_555
P0_4 P2_6 2.206042 1_545
P0_4 P2_0 2.206043 1_655
P0_5 P2_7 2.206042 1_545
P0_5 P2_1 2.206043 1_655
P0_6 P2_4 2.206042 1_555
P0_6 P2_2 2.206043 1_655
P0_7 P2_5 2.206042 1_555
P0_7 P2_3 2.206043 1_655
P1_0 P3_3 2.206042 1_554
P1_0 P3_5 2.206043 1_454
P1_1 P3_2 2.206042 1_555
P1_1 P3_4 2.206043 1_455
P1_2 P3_1 2.206042 1_564
P1_2 P3_7 2.206043 1_454
P1_3 P3_0 2.206042 1_565
P1_3 P3_6 2.206043 1_455
P1_4 P3_7 2.206042 1_554
P1_4 P3_1 2.206043 1_554
P1_5 P3_6 2.206042 1_555
P1_5 P3_0 2.206043 1_555
P1_6 P3_5 2.206042 1_564
P1_6 P3_3 2.206043 1_554
P1_7 P3_4 2.206042 1_565
P1_7 P3_2 2.206043 1_555
Pb0_0 Pb0_6 3.287709 1_555
Pb0_0 Pb0_6 3.287709 1_445
Pb0_1 Pb0_7 3.287709 1_555
Pb0_1 Pb0_7 3.287709 1_445
Pb0_2 Pb0_4 3.287709 1_455
Pb0_2 Pb0_4 3.287709 1_565
Pb0_3 Pb0_5 3.287709 1_455
Pb0_3 Pb0_5 3.287709 1_565
Au0_0 P1_1 2.351038 1_555
Au0_0 P3_6 2.359973 1_455
Au0_0 Bi0_4 3.234949 1_455
Au0_0 Bi0_2 3.234951 1_555
Au0_0 Pb0_3 3.304585 1_555
Au0_0 Pb0_5 3.304597 1_455
Au0_1 P1_0 2.351038 1_556
Au0_1 P3_7 2.359973 1_455
Au0_1 Bi0_5 3.234949 1_455
Au0_1 Bi0_3 3.234951 1_555
Au0_1 Pb0_2 3.304585 1_556
Au0_1 Pb0_4 3.304597 1_456
Au0_2 P1_3 2.351038 1_555
Au0_2 P3_4 2.359973 1_465
Au0_2 Bi0_6 3.234949 1_455
Au0_2 Bi0_0 3.234951 1_565
Au0_2 Pb0_1 3.304585 1_565
Au0_2 Pb0_7 3.304597 1_455
Au0_3 P1_2 2.351038 1_556
Au0_3 P3_5 2.359973 1_465
Au0_3 Bi0_7 3.234949 1_455
Au0_3 Bi0_1 3.234951 1_565
Au0_3 Pb0_0 3.304585 1_566
Au0_3 Pb0_6 3.304597 1_456
Au0_4 P1_5 2.351038 1_555
Au0_4 P3_2 2.359973 1_555
Au0_4 Bi0_0 3.234949 1_555
Au0_4 Bi0_6 3.234951 1_555
Au0_4 Pb0_7 3.304585 1_555
Au0_4 Pb0_1 3.304597 1_555
Au0_5 P1_4 2.351038 1_556
Au0_5 P3_3 2.359973 1_555
Au0_5 Bi0_1 3.234949 1_555
Au0_5 Bi0_7 3.234951 1_555
Au0_5 Pb0_6 3.304585 1_556
Au0_5 Pb0_0 3.304597 1_556
Au0_6 P1_7 2.351038 1_555
Au0_6 P3_0 2.359973 1_565
Au0_6 Bi0_2 3.234949 1_555
Au0_6 Bi0_4 3.234951 1_565
Au0_6 Pb0_5 3.304585 1_565
Au0_6 Pb0_3 3.304597 1_555
Au0_7 P1_6 2.351038 1_556
Au0_7 P3_1 2.359973 1_565
Au0_7 Bi0_3 3.234949 1_555
Au0_7 Bi0_5 3.234951 1_565
Au0_7 Pb0_4 3.304585 1_566
Au0_7 Pb0_2 3.304597 1_556
Au1_0 P3_0 2.344870 1_555
Au1_0 P0_0 2.344870 1_555
Au1_0 Bi0_0 2.906740 1_555
Au1_0 Bi0_2 3.242474 1_545
Au1_0 Bi0_4 3.242485 1_555
Au1_1 P3_1 2.344870 1_555
Au1_1 P0_1 2.344870 1_555
Au1_1 Bi0_1 2.906740 1_555
Au1_1 Bi0_3 3.242474 1_545
Au1_1 Bi0_5 3.242485 1_555
Au1_2 P3_2 2.344870 1_555
Au1_2 P0_2 2.344870 1_555
Au1_2 Bi0_2 2.906740 1_555
Au1_2 Bi0_0 3.242474 1_555
Au1_2 Bi0_6 3.242485 1_555
Au1_3 P3_3 2.344870 1_555
Au1_3 P0_3 2.344870 1_555
Au1_3 Bi0_3 2.906740 1_555
Au1_3 Bi0_1 3.242474 1_555
Au1_3 Bi0_7 3.242485 1_555
Au1_4 P3_4 2.344870 1_555
Au1_4 P0_4 2.344870 1_555
Au1_4 Bi0_4 2.906740 1_555
Au1_4 Bi0_6 3.242474 1_545
Au1_4 Bi0_0 3.242485 1_655
Au1_5 P3_5 2.344870 1_555
Au1_5 P0_5 2.344870 1_555
Au1_5 Bi0_5 2.906740 1_555
Au1_5 Bi0_7 3.242474 1_545
Au1_5 Bi0_1 3.242485 1_655
Au1_6 P3_6 2.344870 1_555
Au1_6 P0_6 2.344870 1_555
Au1_6 Bi0_6 2.906740 1_555
Au1_6 Bi0_4 3.242474 1_555
Au1_6 Bi0_2 3.242485 1_655
Au1_7 P3_7 2.344870 1_555
Au1_7 P0_7 2.344870 1_555
Au1_7 Bi0_7 2.906740 1_555
Au1_7 Bi0_5 3.242474 1_555
Au1_7 Bi0_3 3.242485 1_655
Au2_0 P2_0 2.351038 1_555
Au2_0 P0_6 2.359973 1_455
Au2_0 Bi0_4 3.234949 1_455
Au2_0 Bi0_2 3.234951 1_555
Au2_0 Pb0_2 3.304585 1_555
Au2_0 Pb0_4 3.304597 1_455
Au2_1 P2_1 2.351038 1_555
Au2_1 P0_7 2.359973 1_455
Au2_1 Bi0_5 3.234949 1_455
Au2_1 Bi0_3 3.234951 1_555
Au2_1 Pb0_3 3.304585 1_555
Au2_1 Pb0_5 3.304597 1_455
Au2_2 P2_2 2.351038 1_555
Au2_2 P0_4 2.359973 1_465
Au2_2 Bi0_6 3.234949 1_455
Au2_2 Bi0_0 3.234951 1_565
Au2_2 Pb0_0 3.304585 1_565
Au2_2 Pb0_6 3.304597 1_455
Au2_3 P2_3 2.351038 1_555
Au2_3 P0_5 2.359973 1_465
Au2_3 Bi0_7 3.234949 1_455
Au2_3 Bi0_1 3.234951 1_565
Au2_3 Pb0_1 3.304585 1_565
Au2_3 Pb0_7 3.304597 1_455
Au2_4 P2_4 2.351038 1_555
Au2_4 P0_2 2.359973 1_555
Au2_4 Bi0_0 3.234949 1_555
Au2_4 Bi0_6 3.234951 1_555
Au2_4 Pb0_6 3.304585 1_555
Au2_4 Pb0_0 3.304597 1_555
Au2_5 P2_5 2.351038 1_555
Au2_5 P0_3 2.359973 1_555
Au2_5 Bi0_1 3.234949 1_555
Au2_5 Bi0_7 3.234951 1_555
Au2_5 Pb0_7 3.304585 1_555
Au2_5 Pb0_1 3.304597 1_555
Au2_6 P2_6 2.351038 1_555
Au2_6 P0_0 2.359973 1_565
Au2_6 Bi0_2 3.234949 1_555
Au2_6 Bi0_4 3.234951 1_565
Au2_6 Pb0_4 3.304585 1_565
Au2_6 Pb0_2 3.304597 1_555
Au2_7 P2_7 2.351038 1_555
Au2_7 P0_1 2.359973 1_565
Au2_7 Bi0_3 3.234949 1_555
Au2_7 Bi0_5 3.234951 1_565
Au2_7 Pb0_5 3.304585 1_565
Au2_7 Pb0_3 3.304597 1_555
Au3_0 P2_0 2.338657 1_555
Au3_0 P1_0 2.338657 1_555
Au3_0 Pb0_0 2.889466 1_555
Au3_0 Pb0_2 3.257372 1_555
Au3_0 Pb0_4 3.257391 1_455
Au3_1 P2_1 2.338657 1_555
Au3_1 P1_1 2.338657 1_555
Au3_1 Pb0_1 2.889466 1_555
Au3_1 Pb0_3 3.257372 1_555
Au3_1 Pb0_5 3.257391 1_455
Au3_2 P2_2 2.338657 1_555
Au3_2 P1_2 2.338657 1_555
Au3_2 Pb0_2 2.889466 1_555
Au3_2 Pb0_0 3.257372 1_565
Au3_2 Pb0_6 3.257391 1_455
Au3_3 P2_3 2.338657 1_555
Au3_3 P1_3 2.338657 1_555
Au3_3 Pb0_3 2.889466 1_555
Au3_3 Pb0_1 3.257372 1_565
Au3_3 Pb0_7 3.257391 1_455
Au3_4 P2_4 2.338657 1_555
Au3_4 P1_4 2.338657 1_555
Au3_4 Pb0_4 2.889466 1_555
Au3_4 Pb0_6 3.257372 1_555
Au3_4 Pb0_0 3.257391 1_555
Au3_5 P2_5 2.338657 1_555
Au3_5 P1_5 2.338657 1_555
Au3_5 Pb0_5 2.889466 1_555
Au3_5 Pb0_7 3.257372 1_555
Au3_5 Pb0_1 3.257391 1_555
Au3_6 P2_6 2.338657 1_555
Au3_6 P1_6 2.338657 1_555
Au3_6 Pb0_6 2.889466 1_555
Au3_6 Pb0_4 3.257372 1_565
Au3_6 Pb0_2 3.257391 1_555
Au3_7 P2_7 2.338657 1_555
Au3_7 P1_7 2.338657 1_555
Au3_7 Pb0_7 2.889466 1_555
Au3_7 Pb0_5 3.257372 1_565
Au3_7 Pb0_3 3.257391 1_555
