# generated using pymatgen
data_KCd13
_symmetry_space_group_name_H-M   'P 1'
_cell_length_a   9.80447497
_cell_length_b   9.80447526
_cell_length_c   9.80447630
_cell_angle_alpha   59.99999995
_cell_angle_beta   59.99999900
_cell_angle_gamma   60.00000028
_symmetry_Int_Tables_number   1
_chemical_formula_structural   KCd13
_chemical_formula_sum   'K2 Cd26'
_cell_volume   666.43546056
_cell_formula_units_Z   2
loop_
 _symmetry_equiv_pos_site_id
 _symmetry_equiv_pos_as_xyz
  1  'x, y, z'
loop_
 _atom_site_type_symbol
 _atom_site_label
 _atom_site_symmetry_multiplicity
 _atom_site_fract_x
 _atom_site_fract_y
 _atom_site_fract_z
 _atom_site_occupancy
  K  K0  1  0.25000000  0.25000000  0.25000000  1
  K  K1  1  0.75000000  0.75000000  0.75000000  1
  Cd  Cd0  1  0.19863608  0.80136392  0.44062622  1
  Cd  Cd1  1  0.69863608  0.05937378  0.94062622  1
  Cd  Cd2  1  0.94062622  0.30136392  0.69863608  1
  Cd  Cd3  1  0.69863608  0.94062622  0.30136392  1
  Cd  Cd4  1  0.05937378  0.30136392  0.94062622  1
  Cd  Cd5  1  0.05937378  0.94062622  0.69863608  1
  Cd  Cd6  1  0.94062622  0.05937378  0.30136392  1
  Cd  Cd7  1  0.44062622  0.19863608  0.80136392  1
  Cd  Cd8  1  0.80136392  0.44062622  0.19863608  1
  Cd  Cd9  1  0.55937378  0.19863608  0.44062622  1
  Cd  Cd10  1  0.80136392  0.55937378  0.44062622  1
  Cd  Cd11  1  0.55937378  0.80136392  0.19863608  1
  Cd  Cd12  1  0.44062622  0.80136392  0.55937378  1
  Cd  Cd13  1  0.19863608  0.44062622  0.55937378  1
  Cd  Cd14  1  0.19863608  0.55937378  0.80136392  1
  Cd  Cd15  1  0.94062622  0.69863608  0.05937378  1
  Cd  Cd16  1  0.30136392  0.94062622  0.05937378  1
  Cd  Cd17  1  0.30136392  0.69863608  0.94062622  1
  Cd  Cd18  1  0.69863608  0.30136392  0.05937378  1
  Cd  Cd19  1  0.05937378  0.69863608  0.30136392  1
  Cd  Cd20  1  0.30136392  0.05937378  0.69863608  1
  Cd  Cd21  1  0.44062622  0.55937378  0.19863608  1
  Cd  Cd22  1  0.55937378  0.44062622  0.80136392  1
  Cd  Cd23  1  0.80136392  0.19863608  0.55937378  1
  Cd  Cd24  1  0.00000000  0.00000000  -0.00000000  1
  Cd  Cd25  1  0.50000000  0.50000000  0.50000000  1
loop_
_geom_bond_atom_site_label_1
_geom_bond_atom_site_label_2
_geom_bond_distance
_geom_bond_site_symmetry_2
Cd0 Cd6 2.874619 1_465
Cd0 Cd5 2.874619 1_555
Cd0 Cd25 3.011514 1_555
Cd0 Cd19 3.059047 1_555
Cd0 Cd16 3.059047 1_555
Cd0 Cd11 3.122013 1_555
Cd0 Cd13 3.122013 1_555
Cd0 Cd12 3.122013 1_555
Cd0 Cd14 3.122013 1_555
Cd0 Cd21 3.355344 1_555
Cd0 K1 4.018418 1_455
Cd0 K0 4.018418 1_565
Cd1 Cd11 2.874619 1_546
Cd1 Cd7 2.874619 1_555
Cd1 Cd24 3.011514 1_656
Cd1 Cd22 3.059047 1_555
Cd1 Cd23 3.059047 1_555
Cd1 Cd5 3.122013 1_645
Cd1 Cd15 3.122013 1_546
Cd1 Cd18 3.122013 1_556
Cd1 Cd3 3.122013 1_546
Cd1 Cd2 3.355344 1_555
Cd1 K0 4.018418 1_556
Cd1 K1 4.018418 1_545
Cd2 Cd24 3.011514 1_656
Cd2 Cd22 3.059047 1_555
Cd2 Cd23 3.059047 1_555
Cd2 Cd20 3.122013 1_655
Cd2 Cd5 3.122013 1_645
Cd2 Cd4 3.122013 1_655
Cd2 K1 4.018418 1_555
Cd2 K0 4.018418 1_655
Cd3 Cd9 2.874619 1_565
Cd3 Cd6 3.122013 1_565
Cd3 K0 4.018418 1_565
Cd3 K1 4.018419 1_555
Cd4 Cd8 2.874619 1_456
Cd4 Cd7 3.059047 1_555
Cd4 Cd6 3.122013 1_456
Cd4 K1 4.018418 1_455
Cd4 K0 4.018418 1_556
Cd5 K1 4.018418 1_455
Cd5 K0 4.018418 1_565
Cd6 Cd9 3.059047 1_555
Cd6 Cd8 3.059047 1_555
Cd6 K0 4.018418 1_655
Cd6 K1 4.018418 1_545
Cd7 Cd9 3.122013 1_555
Cd7 K1 4.018418 1_545
Cd7 K0 4.018419 1_556
Cd8 Cd9 3.355344 1_555
Cd8 K0 4.018418 1_655
Cd8 K1 4.018419 1_554
Cd9 K0 4.018418 1_555
Cd9 K1 4.018418 1_545
Cd10 Cd19 2.874619 1_655
Cd10 Cd2 2.874619 1_555
Cd10 Cd25 3.011514 1_555
Cd10 Cd3 3.059047 1_555
Cd10 Cd15 3.059047 1_555
Cd10 Cd12 3.122013 1_555
Cd10 Cd23 3.122013 1_555
Cd10 Cd22 3.122013 1_555
Cd10 Cd8 3.122013 1_555
Cd10 Cd11 3.355344 1_555
Cd10 K0 4.018418 1_655
Cd10 K1 4.018418 1_555
Cd11 Cd16 2.874619 1_555
Cd11 Cd25 3.011514 1_555
Cd11 Cd15 3.059047 1_555
Cd11 Cd3 3.059047 1_555
Cd11 Cd21 3.122013 1_555
Cd11 Cd8 3.122013 1_555
Cd11 Cd12 3.122013 1_555
Cd11 K0 4.018418 1_565
Cd11 K1 4.018419 1_554
Cd12 Cd3 2.874619 1_555
Cd12 Cd20 2.874619 1_565
Cd12 Cd25 3.011514 1_555
Cd12 Cd5 3.059047 1_555
Cd12 Cd17 3.059047 1_555
Cd12 Cd22 3.122013 1_555
Cd12 Cd14 3.355344 1_555
Cd12 K1 4.018418 1_555
Cd12 K0 4.018418 1_565
Cd13 Cd2 2.874619 1_455
Cd13 Cd19 2.874619 1_555
Cd13 Cd25 3.011514 1_555
Cd13 Cd20 3.059047 1_555
Cd13 Cd4 3.059047 1_555
Cd13 Cd9 3.122013 1_555
Cd13 Cd21 3.122013 1_555
Cd13 Cd14 3.122013 1_555
Cd13 Cd7 3.355344 1_555
Cd13 K1 4.018418 1_455
Cd13 K0 4.018418 1_555
Cd14 Cd4 2.874619 1_555
Cd14 Cd15 2.874619 1_456
Cd14 Cd25 3.011514 1_555
Cd14 Cd5 3.059047 1_555
Cd14 Cd17 3.059047 1_555
Cd14 Cd22 3.122013 1_555
Cd14 Cd7 3.122013 1_555
Cd14 K1 4.018418 1_455
Cd14 K0 4.018419 1_556
Cd15 Cd8 2.874619 1_555
Cd15 Cd24 3.011514 1_665
Cd15 Cd17 3.122013 1_654
Cd15 Cd5 3.122013 1_654
Cd15 Cd19 3.122013 1_655
Cd15 Cd3 3.355344 1_555
Cd15 K0 4.018418 1_655
Cd15 K1 4.018418 1_554
Cd16 Cd7 2.874619 1_564
Cd16 Cd24 3.011514 1_565
Cd16 Cd21 3.059047 1_555
Cd16 Cd6 3.122013 1_465
Cd16 Cd4 3.122013 1_564
Cd16 Cd17 3.122013 1_554
Cd16 Cd20 3.122013 1_564
Cd16 Cd19 3.355344 1_555
Cd16 K1 4.018418 1_554
Cd16 K0 4.018418 1_565
Cd17 Cd22 2.874619 1_555
Cd17 Cd21 2.874619 1_556
Cd17 Cd24 3.011514 1_566
Cd17 Cd20 3.122013 1_565
Cd17 Cd19 3.122013 1_556
Cd17 Cd5 3.355344 1_555
Cd17 K1 4.018418 1_555
Cd17 K0 4.018418 1_556
Cd18 Cd21 2.874619 1_555
Cd18 Cd22 2.874619 1_554
Cd18 Cd24 3.011514 1_655
Cd18 Cd8 3.059047 1_555
Cd18 Cd9 3.059047 1_555
Cd18 Cd4 3.122013 1_654
Cd18 Cd3 3.122013 1_545
Cd18 Cd2 3.122013 1_554
Cd18 Cd6 3.355344 1_555
Cd18 K0 4.018418 1_555
Cd18 K1 4.018418 1_554
Cd19 Cd24 3.011514 1_565
Cd19 Cd21 3.059047 1_555
Cd19 Cd3 3.122013 1_455
Cd19 Cd6 3.122013 1_465
Cd19 K0 4.018418 1_555
Cd19 K1 4.018418 1_455
Cd20 Cd9 2.874619 1_555
Cd20 Cd24 3.011514 1_556
Cd20 Cd7 3.059047 1_555
Cd20 Cd5 3.122013 1_545
Cd20 Cd4 3.355344 1_555
Cd20 K1 4.018418 1_545
Cd20 K0 4.018419 1_555
Cd21 Cd25 3.011514 1_555
Cd21 Cd8 3.122013 1_555
Cd21 Cd9 3.122013 1_555
Cd21 K0 4.018418 1_555
Cd21 K1 4.018418 1_554
Cd22 Cd25 3.011514 1_555
Cd22 Cd7 3.122013 1_555
Cd22 Cd23 3.355344 1_555
Cd22 K1 4.018418 1_555
Cd22 K0 4.018418 1_556
Cd23 Cd5 2.874619 1_645
Cd23 Cd6 2.874619 1_555
Cd23 Cd25 3.011514 1_555
Cd23 Cd7 3.122013 1_555
Cd23 Cd9 3.122013 1_555
Cd23 Cd8 3.122013 1_555
Cd23 K0 4.018418 1_655
Cd23 K1 4.018418 1_545
Cd24 Cd4 3.011514 1_554
Cd24 Cd3 3.011514 1_445
Cd24 Cd5 3.011514 1_544
Cd24 Cd6 3.011514 1_455
Cd25 Cd9 3.011514 1_555
Cd25 Cd7 3.011514 1_555
Cd25 Cd8 3.011514 1_555
