# generated using pymatgen
data_SrCa2TcH7
_symmetry_space_group_name_H-M   'P 1'
_cell_length_a   5.18591193
_cell_length_b   5.18591215
_cell_length_c   12.72055632
_cell_angle_alpha   90.00000000
_cell_angle_beta   90.00000000
_cell_angle_gamma   119.99999856
_symmetry_Int_Tables_number   1
_chemical_formula_structural   SrCa2TcH7
_chemical_formula_sum   'Sr2 Ca4 Tc2 H14'
_cell_volume   296.26956235
_cell_formula_units_Z   2
loop_
 _symmetry_equiv_pos_site_id
 _symmetry_equiv_pos_as_xyz
  1  'x, y, z'
loop_
 _atom_site_type_symbol
 _atom_site_label
 _atom_site_symmetry_multiplicity
 _atom_site_fract_x
 _atom_site_fract_y
 _atom_site_fract_z
 _atom_site_occupancy
  Sr  Sr0  1  0.00000000  0.00000000  0.25000000  1
  Sr  Sr1  1  0.00000000  0.00000000  0.75000000  1
  Ca  Ca0  1  0.33333300  0.66666700  0.43859216  1
  Ca  Ca1  1  0.66666700  0.33333300  0.56140784  1
  Ca  Ca2  1  0.66666700  0.33333300  0.93859216  1
  Ca  Ca3  1  0.33333300  0.66666700  0.06140784  1
  Tc  Tc0  1  0.00000000  0.00000000  0.50000000  1
  Tc  Tc1  1  0.00000000  0.00000000  0.00000000  1
  H  H0  1  0.33333300  0.66666700  0.25000000  1
  H  H1  1  0.66666700  0.33333300  0.75000000  1
  H  H2  1  0.16001754  0.83998246  0.91671820  1
  H  H3  1  0.16001754  0.32003509  0.91671820  1
  H  H4  1  0.67996491  0.83998246  0.91671820  1
  H  H5  1  0.83998246  0.16001754  0.08328180  1
  H  H6  1  0.83998246  0.67996491  0.08328180  1
  H  H7  1  0.32003509  0.16001754  0.08328180  1
  H  H8  1  0.83998246  0.16001754  0.41671820  1
  H  H9  1  0.83998246  0.67996491  0.41671820  1
  H  H10  1  0.32003509  0.16001754  0.41671820  1
  H  H11  1  0.16001754  0.83998246  0.58328180  1
  H  H12  1  0.16001754  0.32003509  0.58328180  1
  H  H13  1  0.67996491  0.83998246  0.58328180  1
loop_
_geom_bond_atom_site_label_1
_geom_bond_atom_site_label_2
_geom_bond_distance
_geom_bond_site_symmetry_2
Ca0 H0 2.398997 1_555
Ca0 H11 2.410618 1_555
Ca0 H13 2.410621 1_555
Ca0 H12 2.410621 1_555
Ca0 H9 2.608524 1_455
Ca0 H10 2.608524 1_565
Ca0 H8 2.608527 1_565
Ca0 H8 2.608527 1_455
Ca0 H9 2.608529 1_555
Ca0 H10 2.608529 1_555
Ca1 H1 2.398997 1_555
Ca1 H8 2.410618 1_555
Ca1 H10 2.410621 1_555
Ca1 H9 2.410621 1_555
Ca1 H12 2.608524 1_655
Ca1 H13 2.608524 1_545
Ca1 H11 2.608527 1_545
Ca1 H11 2.608527 1_655
Ca1 H12 2.608529 1_555
Ca1 H13 2.608529 1_555
Ca2 H1 2.398997 1_555
Ca2 H5 2.410618 1_556
Ca2 H7 2.410621 1_556
Ca2 H6 2.410621 1_556
Ca2 H3 2.608524 1_655
Ca2 H4 2.608524 1_545
Ca2 H2 2.608527 1_545
Ca2 H2 2.608527 1_655
Ca2 H3 2.608529 1_555
Ca2 H4 2.608529 1_555
Ca3 H0 2.398997 1_555
Ca3 H2 2.410618 1_554
Ca3 H4 2.410621 1_554
Ca3 H3 2.410621 1_554
Ca3 H6 2.608524 1_455
Ca3 H7 2.608524 1_565
Ca3 H5 2.608527 1_565
Ca3 H5 2.608527 1_455
Ca3 H6 2.608529 1_555
Ca3 H7 2.608529 1_555
H2 Tc1 1.785552 1_566
H2 Sr1 2.561925 1_565
H3 Tc1 1.785552 1_556
H3 Sr1 2.561925 1_555
H4 Tc1 1.785552 1_666
H4 Sr1 2.561925 1_665
H5 Tc1 1.785552 1_655
H5 Sr0 2.561925 1_655
H6 Tc1 1.785552 1_665
H6 Sr0 2.561925 1_665
H7 Tc1 1.785552 1_555
H7 Sr0 2.561925 1_555
H8 Tc0 1.785552 1_655
H8 Sr0 2.561925 1_655
H9 Tc0 1.785552 1_665
H9 Sr0 2.561925 1_665
H10 Tc0 1.785552 1_555
H10 Sr0 2.561925 1_555
H11 Tc0 1.785552 1_565
H11 Sr1 2.561925 1_565
H12 Tc0 1.785552 1_555
H12 Sr1 2.561925 1_555
H13 Tc0 1.785552 1_665
H13 Sr1 2.561925 1_665
