# generated using pymatgen
data_HoCuP2
_symmetry_space_group_name_H-M   'P 1'
_cell_length_a   3.69504066
_cell_length_b   3.69504169
_cell_length_c   9.70349507
_cell_angle_alpha   90.00000000
_cell_angle_beta   90.00000000
_cell_angle_gamma   90.00007903
_symmetry_Int_Tables_number   1
_chemical_formula_structural   HoCuP2
_chemical_formula_sum   'Ho2 Cu2 P4'
_cell_volume   132.48501325
_cell_formula_units_Z   2
loop_
 _symmetry_equiv_pos_site_id
 _symmetry_equiv_pos_as_xyz
  1  'x, y, z'
loop_
 _atom_site_type_symbol
 _atom_site_label
 _atom_site_symmetry_multiplicity
 _atom_site_fract_x
 _atom_site_fract_y
 _atom_site_fract_z
 _atom_site_occupancy
  Ho  Ho0  1  0.75000000  0.25000000  0.23097993  1
  Ho  Ho1  1  0.25000000  0.75000000  0.76901907  1
  Cu  Cu0  1  0.25000000  0.25000000  0.50000000  1
  Cu  Cu1  1  0.75000000  0.75000000  0.50000000  1
  P  P0  1  0.75000000  0.75000000  0.00000000  1
  P  P1  1  0.25000000  0.25000000  0.00000000  1
  P  P2  1  0.25000000  0.75000000  0.34555845  1
  P  P3  1  0.75000000  0.25000000  0.65444155  1
loop_
_geom_bond_atom_site_label_1
_geom_bond_atom_site_label_2
_geom_bond_distance
_geom_bond_site_symmetry_2
Ho0 P2 2.839504 1_655
Ho0 P2 2.839504 1_545
Ho0 P2 2.839507 1_645
Ho0 P2 2.839507 1_555
Ho0 P1 2.904619 1_655
Ho0 P1 2.904619 1_555
Ho0 P0 2.904620 1_545
Ho0 P0 2.904620 1_555
Ho1 P3 2.839500 1_455
Ho1 P3 2.839500 1_565
Ho1 P3 2.839503 1_555
Ho1 P3 2.839503 1_465
Ho1 P0 2.904627 1_556
Ho1 P0 2.904627 1_456
Ho1 P1 2.904627 1_556
Ho1 P1 2.904627 1_566
Cu0 P3 2.378908 1_555
Cu0 P3 2.378908 1_455
Cu0 P2 2.378908 1_545
Cu0 P2 2.378908 1_555
Cu1 P2 2.378908 1_655
Cu1 P2 2.378908 1_555
Cu1 P3 2.378908 1_565
Cu1 P3 2.378908 1_555
P0 P1 2.612787 1_665
P0 P1 2.612787 1_555
P0 P1 2.612790 1_655
P0 P1 2.612790 1_565
