# generated using pymatgen
data_CuSnRhS4
_symmetry_space_group_name_H-M   'P 1'
_cell_length_a   7.16930672
_cell_length_b   7.16930759
_cell_length_c   7.16930681
_cell_angle_alpha   119.93866577
_cell_angle_beta   119.63925975
_cell_angle_gamma   90.36610919
_symmetry_Int_Tables_number   1
_chemical_formula_structural   CuSnRhS4
_chemical_formula_sum   'Cu2 Sn2 Rh2 S8'
_cell_volume   261.38844998
_cell_formula_units_Z   2
loop_
 _symmetry_equiv_pos_site_id
 _symmetry_equiv_pos_as_xyz
  1  'x, y, z'
loop_
 _atom_site_type_symbol
 _atom_site_label
 _atom_site_symmetry_multiplicity
 _atom_site_fract_x
 _atom_site_fract_y
 _atom_site_fract_z
 _atom_site_occupancy
  Cu  Cu0  1  0.38168944  0.63168944  0.75000000  1
  Cu  Cu1  1  0.61831056  0.36831056  0.25000000  1
  Sn  Sn0  1  0.00000000  0.00000000  0.00000000  1
  Sn  Sn1  1  0.50000000  0.00000000  0.50000000  1
  Rh  Rh0  1  0.00000000  0.00000000  0.50000000  1
  Rh  Rh1  1  0.00000000  0.50000000  0.00000000  1
  S  S0  1  0.23652721  0.73513966  0.99861245  1
  S  S1  1  0.23652721  0.23791476  0.50138755  1
  S  S2  1  0.22369181  0.75027156  0.47342025  1
  S  S3  1  0.77685131  0.75027156  0.02657975  1
  S  S4  1  0.76347279  0.26486034  0.00138755  1
  S  S5  1  0.76347279  0.76208524  0.49861245  1
  S  S6  1  0.77630819  0.24972844  0.52657975  1
  S  S7  1  0.22314869  0.24972844  0.97342025  1
loop_
_geom_bond_atom_site_label_1
_geom_bond_atom_site_label_2
_geom_bond_distance
_geom_bond_site_symmetry_2
Cu0 S0 2.309781 1_555
Cu0 S1 2.309782 1_555
Cu0 S3 2.326170 1_556
Cu0 S2 2.326170 1_555
Cu1 S4 2.309781 1_555
Cu1 S5 2.309782 1_555
Cu1 S7 2.326170 1_554
Cu1 S6 2.326170 1_555
Rh0 S1 2.390480 1_555
Rh0 S5 2.390480 1_445
Rh0 S7 2.410828 1_555
Rh0 S3 2.410828 1_445
Rh0 S6 2.410828 1_455
Rh0 S2 2.410828 1_545
Rh1 S0 2.390480 1_554
Rh1 S4 2.390480 1_455
Rh1 S2 2.410828 1_555
Rh1 S6 2.410828 1_454
Rh1 S3 2.410828 1_455
Rh1 S7 2.410828 1_554
S0 Sn1 2.553486 1_566
S0 Sn0 2.553486 1_566
S1 Sn0 2.553486 1_555
S1 Sn1 2.553486 1_555
S2 Sn1 2.531139 1_565
S3 Sn0 2.531139 1_665
S4 Sn1 2.553486 1_554
S4 Sn0 2.553486 1_655
S5 Sn0 2.553486 1_666
S5 Sn1 2.553486 1_565
S6 Sn1 2.531139 1_555
S7 Sn0 2.531139 1_556
