# generated using pymatgen
data_Y8SiPd23Pt
_symmetry_space_group_name_H-M   'P 1'
_cell_length_a   8.27509252
_cell_length_b   8.27827259
_cell_length_c   8.27827259
_cell_angle_alpha   90.00000000
_cell_angle_beta   90.00000000
_cell_angle_gamma   90.00000000
_symmetry_Int_Tables_number   1
_chemical_formula_structural   Y8SiPd23Pt
_chemical_formula_sum   'Y8 Si1 Pd23 Pt1'
_cell_volume   567.09041062
_cell_formula_units_Z   1
loop_
 _symmetry_equiv_pos_site_id
 _symmetry_equiv_pos_as_xyz
  1  'x, y, z'
loop_
 _atom_site_type_symbol
 _atom_site_label
 _atom_site_symmetry_multiplicity
 _atom_site_fract_x
 _atom_site_fract_y
 _atom_site_fract_z
 _atom_site_occupancy
  Y  Y0  1  0.25266292  0.25270364  0.25270364  1
  Y  Y1  1  0.74632026  0.74615286  0.74615286  1
  Y  Y2  1  0.74632026  0.74615286  0.25384714  1
  Y  Y3  1  0.74632026  0.25384714  0.74615286  1
  Y  Y4  1  0.25266292  0.25270364  0.74729636  1
  Y  Y5  1  0.25266292  0.74729636  0.25270364  1
  Y  Y6  1  0.25266292  0.74729636  0.74729636  1
  Y  Y7  1  0.74632026  0.25384714  0.25384714  1
  Si  Si0  1  0.00638274  0.00000000  0.00000000  1
  Pd  Pd0  1  0.25660321  0.50000000  0.00000000  1
  Pd  Pd1  1  0.74130283  0.50000000  0.00000000  1
  Pd  Pd2  1  0.99992275  0.25767090  0.50000000  1
  Pd  Pd3  1  0.50054558  0.25762961  0.00000000  1
  Pd  Pd4  1  0.99992275  0.74232910  0.50000000  1
  Pd  Pd5  1  0.50054558  0.74237039  0.00000000  1
  Pd  Pd6  1  0.50054558  0.00000000  0.25762961  1
  Pd  Pd7  1  0.25660321  0.00000000  0.50000000  1
  Pd  Pd8  1  0.50054558  0.00000000  0.74237039  1
  Pd  Pd9  1  0.74130283  0.00000000  0.50000000  1
  Pd  Pd10  1  0.99992275  0.50000000  0.25767090  1
  Pd  Pd11  1  0.99992275  0.50000000  0.74232910  1
  Pd  Pd12  1  0.25213049  0.50000000  0.50000000  1
  Pd  Pd13  1  0.74769909  0.50000000  0.50000000  1
  Pd  Pd14  1  0.49939685  0.25234264  0.50000000  1
  Pd  Pd15  1  0.49939685  0.74765736  0.50000000  1
  Pd  Pd16  1  0.49939685  0.50000000  0.25234264  1
  Pd  Pd17  1  0.49939685  0.50000000  0.74765736  1
  Pd  Pd18  1  0.72469220  0.00000000  0.00000000  1
  Pd  Pd19  1  0.99819640  0.28121069  0.00000000  1
  Pd  Pd20  1  0.99819640  0.71878931  0.00000000  1
  Pd  Pd21  1  0.99819640  0.00000000  0.28121069  1
  Pd  Pd22  1  0.99819640  0.00000000  0.71878931  1
  Pt  Pt0  1  0.28510936  0.00000000  0.00000000  1
loop_
_geom_bond_atom_site_label_1
_geom_bond_atom_site_label_2
_geom_bond_distance
_geom_bond_site_symmetry_2
Pd0 Pd5 2.846156 1_555
Pd0 Pd3 2.846156 1_555
Pd0 Y5 2.927164 1_555
Pd0 Y0 2.927164 1_555
Pd0 Y6 2.927164 1_554
Pd0 Y4 2.927164 1_554
Pd1 Pd5 2.827523 1_555
Pd1 Pd3 2.827523 1_555
Pd1 Y2 2.927452 1_555
Pd1 Y1 2.927452 1_554
Pd1 Y7 2.927452 1_555
Pd1 Y3 2.927452 1_554
Pd2 Y3 2.925297 1_555
Pd2 Y7 2.925297 1_555
Pd2 Y4 2.926913 1_655
Pd2 Y0 2.926913 1_655
Pd3 Pt0 2.779702 1_555
Pd3 Y7 2.924603 1_555
Pd3 Y3 2.924603 1_554
Pd3 Y0 2.930111 1_555
Pd3 Y4 2.930111 1_554
Pd3 Pd6 3.016133 1_555
Pd3 Pd8 3.016133 1_554
Pd4 Y1 2.925297 1_555
Pd4 Y2 2.925297 1_555
Pd4 Y6 2.926913 1_655
Pd4 Y5 2.926913 1_655
Pd5 Pt0 2.779702 1_565
Pd5 Y2 2.924603 1_555
Pd5 Y1 2.924603 1_554
Pd5 Y5 2.930111 1_555
Pd5 Y6 2.930111 1_554
Pd5 Pd6 3.016133 1_565
Pd5 Pd8 3.016133 1_564
Pd6 Pt0 2.779702 1_555
Pd6 Pd9 2.827523 1_555
Pd6 Pd7 2.846156 1_555
Pd6 Y7 2.924603 1_555
Pd6 Y2 2.924603 1_545
Pd6 Y0 2.930111 1_555
Pd6 Y5 2.930111 1_545
Pd7 Pd8 2.846156 1_555
Pd7 Y4 2.927164 1_555
Pd7 Y0 2.927164 1_555
Pd7 Y6 2.927164 1_545
Pd7 Y5 2.927164 1_545
Pd8 Pt0 2.779702 1_556
Pd8 Pd9 2.827523 1_555
Pd8 Y3 2.924603 1_555
Pd8 Y1 2.924603 1_545
Pd8 Y4 2.930111 1_555
Pd8 Y6 2.930111 1_545
Pd9 Y3 2.927452 1_555
Pd9 Y7 2.927452 1_555
Pd9 Y1 2.927452 1_545
Pd9 Y2 2.927452 1_545
Pd10 Y2 2.925297 1_555
Pd10 Y7 2.925297 1_555
Pd10 Y5 2.926913 1_655
Pd10 Y0 2.926913 1_655
Pd11 Y1 2.925297 1_555
Pd11 Y3 2.925297 1_555
Pd11 Y6 2.926913 1_655
Pd11 Y4 2.926913 1_655
Pd12 Y6 2.895162 1_555
Pd12 Y4 2.895162 1_555
Pd12 Y5 2.895162 1_555
Pd12 Y0 2.895162 1_555
Pd13 Y1 2.881794 1_555
Pd13 Y3 2.881794 1_555
Pd13 Y2 2.881794 1_555
Pd13 Y7 2.881794 1_555
Pd14 Y3 2.885757 1_555
Pd14 Y7 2.885757 1_555
Pd14 Y4 2.891316 1_555
Pd14 Y0 2.891316 1_555
Pd14 Pd8 2.896467 1_555
Pd14 Pd6 2.896467 1_555
Pd15 Y1 2.885757 1_555
Pd15 Y2 2.885757 1_555
Pd15 Y6 2.891316 1_555
Pd15 Y5 2.891316 1_555
Pd15 Pd8 2.896467 1_565
Pd15 Pd6 2.896467 1_565
Pd16 Y2 2.885757 1_555
Pd16 Y7 2.885757 1_555
Pd16 Y5 2.891316 1_555
Pd16 Y0 2.891316 1_555
Pd16 Pd5 2.896467 1_555
Pd16 Pd3 2.896467 1_555
Pd17 Y1 2.885757 1_555
Pd17 Y3 2.885757 1_555
Pd17 Y6 2.891316 1_555
Pd17 Y4 2.891316 1_555
Pd17 Pd5 2.896467 1_556
Pd17 Pd3 2.896467 1_556
Pd18 Si0 2.331015 1_655
Pd18 Pd3 2.826471 1_555
Pd18 Pd6 2.826471 1_555
Pd18 Pd5 2.826471 1_545
Pd18 Pd8 2.826471 1_554
Pd18 Y7 2.977235 1_555
Pd18 Y2 2.977235 1_545
Pd18 Y3 2.977235 1_554
Pd18 Y1 2.977235 1_544
Pd19 Si0 2.328924 1_655
Pd19 Y7 2.968427 1_555
Pd19 Y3 2.968427 1_554
Pd19 Y0 2.977593 1_655
Pd19 Y4 2.977593 1_654
Pd20 Si0 2.328924 1_665
Pd20 Y2 2.968427 1_555
Pd20 Y1 2.968427 1_554
Pd20 Y5 2.977593 1_655
Pd20 Y6 2.977593 1_654
Pd21 Si0 2.328924 1_655
Pd21 Y7 2.968427 1_555
Pd21 Y2 2.968427 1_545
Pd21 Y0 2.977593 1_655
Pd21 Y5 2.977593 1_645
Pd22 Si0 2.328924 1_656
Pd22 Y3 2.968427 1_555
Pd22 Y1 2.968427 1_545
Pd22 Y4 2.977593 1_655
Pd22 Y6 2.977593 1_645
Pt0 Si0 2.306489 1_555
Pt0 Y0 2.970622 1_555
Pt0 Y5 2.970622 1_545
Pt0 Y4 2.970622 1_554
Pt0 Y6 2.970622 1_544
