# generated using pymatgen
data_Sc4Al5Re2Mo
_symmetry_space_group_name_H-M   'P 1'
_cell_length_a   5.33224570
_cell_length_b   5.35375798
_cell_length_c   8.57979651
_cell_angle_alpha   90.00000000
_cell_angle_beta   90.00000000
_cell_angle_gamma   119.86716900
_symmetry_Int_Tables_number   1
_chemical_formula_structural   Sc4Al5Re2Mo
_chemical_formula_sum   'Sc4 Al5 Re2 Mo1'
_cell_volume   212.40085094
_cell_formula_units_Z   1
loop_
 _symmetry_equiv_pos_site_id
 _symmetry_equiv_pos_as_xyz
  1  'x, y, z'
loop_
 _atom_site_type_symbol
 _atom_site_label
 _atom_site_symmetry_multiplicity
 _atom_site_fract_x
 _atom_site_fract_y
 _atom_site_fract_z
 _atom_site_occupancy
  Sc  Sc0  1  0.66722726  0.33445253  0.05261893  1
  Sc  Sc1  1  0.66722726  0.33445253  0.44738107  1
  Sc  Sc2  1  0.33508933  0.67018066  0.55511236  1
  Sc  Sc3  1  0.33508933  0.67018066  0.94488664  1
  Al  Al0  1  0.14900942  0.80482363  0.25000000  1
  Al  Al1  1  0.65581422  0.80482363  0.25000000  1
  Al  Al2  1  0.33411968  0.17399058  0.75000000  1
  Al  Al3  1  0.83986990  0.17399058  0.75000000  1
  Al  Al4  1  0.83921054  0.67842107  0.75000000  1
  Re  Re0  1  0.00979615  0.01959130  0.00729805  1
  Re  Re1  1  0.00979615  0.01959130  0.49270195  1
  Mo  Mo0  1  0.15775077  0.31550054  0.25000000  1
loop_
_geom_bond_atom_site_label_1
_geom_bond_atom_site_label_2
_geom_bond_distance
_geom_bond_site_symmetry_2
Sc0 Sc3 3.219542 1_544
Sc0 Sc3 3.223663 1_654
Sc0 Sc3 3.223681 1_554
Sc0 Sc1 3.386979 1_555
Sc1 Sc2 3.219540 1_545
Sc1 Sc2 3.223661 1_655
Sc1 Sc2 3.223679 1_555
Sc2 Sc3 3.344184 1_555
Al0 Al1 2.629838 1_455
Al0 Mo0 2.643238 1_555
Al0 Re1 2.656939 1_565
Al0 Re0 2.656939 1_565
Al0 Al1 2.702408 1_555
Al0 Mo0 2.711130 1_565
Al0 Sc2 3.011541 1_555
Al0 Sc3 3.011549 1_554
Al0 Sc1 3.060362 1_455
Al0 Sc0 3.060362 1_455
Al0 Sc1 3.277173 1_565
Al0 Sc0 3.277173 1_565
Al1 Mo0 2.643236 1_555
Al1 Re1 2.656941 1_665
Al1 Re0 2.656941 1_665
Al1 Mo0 2.711133 1_665
Al1 Sc2 3.011546 1_555
Al1 Sc3 3.011553 1_554
Al1 Sc1 3.060367 1_555
Al1 Sc0 3.060367 1_555
Al1 Sc1 3.277168 1_565
Al1 Sc0 3.277168 1_565
Al2 Al3 2.635461 1_455
Al2 Al4 2.651407 1_445
Al2 Re0 2.669004 1_556
Al2 Re1 2.669004 1_555
Al2 Al3 2.696784 1_555
Al2 Al4 2.702354 1_555
Al2 Sc0 3.019024 1_556
Al2 Sc1 3.019024 1_555
Al2 Sc3 3.136737 1_555
Al2 Sc2 3.136742 1_555
Al2 Sc3 3.175704 1_545
Al2 Sc2 3.175708 1_545
Al3 Al4 2.651410 1_545
Al3 Re0 2.669010 1_656
Al3 Re1 2.669010 1_655
Al3 Al4 2.702351 1_555
Al3 Sc0 3.019017 1_556
Al3 Sc1 3.019017 1_555
Al3 Sc3 3.136735 1_655
Al3 Sc2 3.136739 1_655
Al3 Sc3 3.175706 1_545
Al3 Sc2 3.175710 1_545
Al4 Re0 2.717025 1_666
Al4 Re1 2.717025 1_665
Al4 Sc0 3.048204 1_556
Al4 Sc1 3.048204 1_555
Al4 Sc3 3.147304 1_655
Al4 Sc2 3.147309 1_655
Al4 Sc3 3.147313 1_555
Al4 Sc2 3.147318 1_555
Re0 Sc0 3.065332 1_455
Re0 Sc0 3.065336 1_555
Re0 Sc3 3.067579 1_554
Re0 Sc3 3.166457 1_544
Re0 Sc3 3.166470 1_444
Re0 Sc0 3.204562 1_445
Re1 Sc1 3.065332 1_455
Re1 Sc1 3.065336 1_555
Re1 Sc2 3.067577 1_555
Re1 Sc2 3.166455 1_545
Re1 Sc2 3.166469 1_445
Re1 Sc1 3.204562 1_445
Mo0 Re1 2.494689 1_555
Mo0 Re0 2.494689 1_555
Mo0 Sc2 3.092637 1_555
Mo0 Sc3 3.092644 1_554
Mo0 Sc1 3.159722 1_455
Mo0 Sc0 3.159722 1_455
Mo0 Sc1 3.159727 1_555
Mo0 Sc0 3.159727 1_555
