# generated using pymatgen
data_Be3CoTcW
_symmetry_space_group_name_H-M   'P 1'
_cell_length_a   4.48599647
_cell_length_b   4.48599690
_cell_length_c   7.15006058
_cell_angle_alpha   90.00000000
_cell_angle_beta   90.00000000
_cell_angle_gamma   119.99999683
_symmetry_Int_Tables_number   1
_chemical_formula_structural   Be3CoTcW
_chemical_formula_sum   'Be6 Co2 Tc2 W2'
_cell_volume   124.61154013
_cell_formula_units_Z   2
loop_
 _symmetry_equiv_pos_site_id
 _symmetry_equiv_pos_as_xyz
  1  'x, y, z'
loop_
 _atom_site_type_symbol
 _atom_site_label
 _atom_site_symmetry_multiplicity
 _atom_site_fract_x
 _atom_site_fract_y
 _atom_site_fract_z
 _atom_site_occupancy
  Be  Be0  1  0.83210758  0.16789242  0.25427219  1
  Be  Be1  1  0.83210758  0.66421416  0.25427219  1
  Be  Be2  1  0.33578584  0.16789242  0.25427219  1
  Be  Be3  1  0.16789242  0.83210758  0.74572781  1
  Be  Be4  1  0.16789242  0.33578584  0.74572781  1
  Be  Be5  1  0.66421416  0.83210758  0.74572781  1
  Co  Co0  1  0.00000000  0.00000000  0.50000000  1
  Co  Co1  1  0.00000000  0.00000000  0.00000000  1
  Tc  Tc0  1  0.33333300  0.66666700  0.42882632  1
  Tc  Tc1  1  0.66666700  0.33333300  0.57117368  1
  W  W0  1  0.66666700  0.33333300  0.92829282  1
  W  W1  1  0.33333300  0.66666700  0.07170718  1
loop_
_geom_bond_atom_site_label_1
_geom_bond_atom_site_label_2
_geom_bond_distance
_geom_bond_site_symmetry_2
Be0 Co0 2.188312 1_655
Be0 Be2 2.226498 1_555
Be0 Be1 2.226498 1_555
Be0 Co1 2.237659 1_655
Be0 Be2 2.259499 1_655
Be0 Be1 2.259499 1_545
Be0 Tc0 2.566869 1_655
Be0 Tc0 2.566869 1_545
Be0 W1 2.595202 1_655
Be0 W1 2.595202 1_545
Be0 Tc1 2.605105 1_555
Be0 W0 2.661753 1_554
Be1 Co0 2.188315 1_665
Be1 Be2 2.226498 1_555
Be1 Co1 2.237662 1_665
Be1 Be2 2.259499 1_665
Be1 Tc0 2.566865 1_655
Be1 Tc0 2.566873 1_555
Be1 W1 2.595198 1_655
Be1 W1 2.595206 1_555
Be1 Tc1 2.605105 1_555
Be1 W0 2.661753 1_554
Be2 Co0 2.188315 1_555
Be2 Co1 2.237662 1_555
Be2 Tc0 2.566865 1_545
Be2 Tc0 2.566873 1_555
Be2 W1 2.595198 1_545
Be2 W1 2.595206 1_555
Be2 Tc1 2.605105 1_555
Be2 W0 2.661753 1_554
Be3 Co0 2.188312 1_565
Be3 Be5 2.226498 1_555
Be3 Be4 2.226498 1_555
Be3 Co1 2.237659 1_566
Be3 Be5 2.259499 1_455
Be3 Be4 2.259499 1_565
Be3 Tc1 2.566869 1_455
Be3 Tc1 2.566869 1_565
Be3 W0 2.595202 1_455
Be3 W0 2.595202 1_565
Be3 Tc0 2.605105 1_555
Be3 W1 2.661753 1_556
Be4 Co0 2.188315 1_555
Be4 Be5 2.226498 1_555
Be4 Co1 2.237662 1_556
Be4 Be5 2.259499 1_445
Be4 Tc1 2.566865 1_455
Be4 Tc1 2.566873 1_555
Be4 W0 2.595198 1_455
Be4 W0 2.595206 1_555
Be4 Tc0 2.605105 1_555
Be4 W1 2.661753 1_556
Be5 Co0 2.188315 1_665
Be5 Co1 2.237662 1_666
Be5 Tc1 2.566865 1_565
Be5 Tc1 2.566873 1_555
Be5 W0 2.595198 1_565
Be5 W0 2.595206 1_555
Be5 Tc0 2.605105 1_555
Be5 W1 2.661753 1_556
Co0 Tc0 2.639511 1_545
Co0 Tc1 2.639511 1_455
Co0 Tc1 2.639515 1_555
Co0 Tc0 2.639515 1_445
Co0 Tc0 2.639515 1_555
Co0 Tc1 2.639515 1_445
Co1 W1 2.640249 1_545
Co1 W0 2.640249 1_454
Co1 W0 2.640253 1_554
Co1 W1 2.640253 1_445
Co1 W1 2.640253 1_555
Co1 W0 2.640253 1_444
Tc0 W1 2.553424 1_555
Tc0 Tc1 2.782794 1_455
Tc0 Tc1 2.782794 1_565
Tc0 Tc1 2.782801 1_555
Tc1 W0 2.553424 1_555
W0 W1 2.785593 1_656
W0 W1 2.785594 1_546
W0 W1 2.785601 1_556
