# generated using pymatgen
data_NaCd2IO6
_symmetry_space_group_name_H-M   'P 1'
_cell_length_a   5.49500635
_cell_length_b   5.65760311
_cell_length_c   8.02212370
_cell_angle_alpha   90.00000000
_cell_angle_beta   90.32199769
_cell_angle_gamma   90.00000000
_symmetry_Int_Tables_number   1
_chemical_formula_structural   NaCd2IO6
_chemical_formula_sum   'Na2 Cd4 I2 O12'
_cell_volume   249.39237586
_cell_formula_units_Z   2
loop_
 _symmetry_equiv_pos_site_id
 _symmetry_equiv_pos_as_xyz
  1  'x, y, z'
loop_
 _atom_site_type_symbol
 _atom_site_label
 _atom_site_symmetry_multiplicity
 _atom_site_fract_x
 _atom_site_fract_y
 _atom_site_fract_z
 _atom_site_occupancy
  Na  Na0  1  0.50000000  0.50000000  0.00000000  1
  Na  Na1  1  0.00000000  0.00000000  0.50000000  1
  Cd  Cd0  1  0.48531040  0.95462840  0.76222771  1
  Cd  Cd1  1  0.01468960  0.45462840  0.73777229  1
  Cd  Cd2  1  0.51468960  0.04537160  0.23777229  1
  Cd  Cd3  1  0.98531040  0.54537160  0.26222771  1
  I  I0  1  0.50000000  0.50000000  0.50000000  1
  I  I1  1  0.00000000  0.00000000  0.00000000  1
  O  O0  1  0.33727642  0.23382990  0.58722126  1
  O  O1  1  0.16272358  0.73382990  0.91277874  1
  O  O2  1  0.66272358  0.76617010  0.41277874  1
  O  O3  1  0.83727642  0.26617010  0.08722126  1
  O  O4  1  0.62035844  0.57914495  0.71465149  1
  O  O5  1  0.87964156  0.07914495  0.78534851  1
  O  O6  1  0.37964156  0.42085505  0.28534851  1
  O  O7  1  0.12035844  0.92085505  0.21465149  1
  O  O8  1  0.22136870  0.67814920  0.54298606  1
  O  O9  1  0.27863130  0.17814920  0.95701394  1
  O  O10  1  0.77863130  0.32185080  0.45701394  1
  O  O11  1  0.72136870  0.82185080  0.04298606  1
loop_
_geom_bond_atom_site_label_1
_geom_bond_atom_site_label_2
_geom_bond_distance
_geom_bond_site_symmetry_2
Na0 O11 2.215756 1_555
Na0 O9 2.215756 1_554
Na0 O3 2.379069 1_555
Na0 O1 2.379069 1_554
Na0 O6 2.427943 1_555
Na0 O4 2.427943 1_554
Na1 O10 2.215756 1_455
Na1 O8 2.215756 1_545
Na1 O0 2.379069 1_555
Na1 O2 2.379069 1_445
Na1 O5 2.427943 1_455
Na1 O7 2.427943 1_545
Cd0 O0 2.261644 1_565
Cd0 O4 2.283058 1_555
Cd0 O5 2.285039 1_565
Cd0 O9 2.313153 1_565
Cd0 O1 2.487035 1_555
Cd0 O11 2.699408 1_556
Cd0 O8 2.759520 1_555
Cd1 O1 2.261644 1_555
Cd1 O5 2.283058 1_455
Cd1 O4 2.285039 1_455
Cd1 O8 2.313153 1_555
Cd1 O0 2.487035 1_555
Cd1 O10 2.699408 1_455
Cd1 O9 2.759520 1_555
Cd2 O2 2.261644 1_545
Cd2 O6 2.283058 1_555
Cd2 O7 2.285039 1_545
Cd2 O11 2.313153 1_545
Cd2 O3 2.487035 1_555
Cd2 O9 2.699408 1_554
Cd2 O10 2.759520 1_555
Cd3 O3 2.261644 1_555
Cd3 O7 2.283058 1_655
Cd3 O6 2.285039 1_655
Cd3 O10 2.313153 1_555
Cd3 O2 2.487035 1_555
Cd3 O8 2.699408 1_655
Cd3 O11 2.759520 1_555
I0 O10 1.866792 1_555
I0 O8 1.866792 1_555
I0 O2 1.887812 1_555
I0 O0 1.887812 1_555
I0 O4 1.894798 1_555
I0 O6 1.894798 1_555
I1 O9 1.866792 1_554
I1 O11 1.866792 1_445
I1 O3 1.887812 1_455
I1 O1 1.887812 1_544
I1 O7 1.894798 1_545
I1 O5 1.894798 1_454
