# generated using pymatgen
data_Cu11Sb3
_symmetry_space_group_name_H-M   'P 1'
_cell_length_a   9.92445118
_cell_length_b   9.92445118
_cell_length_c   4.32139900
_cell_angle_alpha   90.00000000
_cell_angle_beta   90.00000000
_cell_angle_gamma   151.88018893
_symmetry_Int_Tables_number   1
_chemical_formula_structural   Cu11Sb3
_chemical_formula_sum   'Cu11 Sb3'
_cell_volume   200.60896924
_cell_formula_units_Z   1
loop_
 _symmetry_equiv_pos_site_id
 _symmetry_equiv_pos_as_xyz
  1  'x, y, z'
loop_
 _atom_site_type_symbol
 _atom_site_label
 _atom_site_symmetry_multiplicity
 _atom_site_fract_x
 _atom_site_fract_y
 _atom_site_fract_z
 _atom_site_occupancy
  Cu  Cu0  1  0.80349800  0.80349800  0.00000000  1
  Cu  Cu1  1  0.42295900  0.27706600  0.00000000  1
  Cu  Cu2  1  0.27706600  0.42295900  0.00000000  1
  Cu  Cu3  1  0.55352300  0.12563200  0.00000000  1
  Cu  Cu4  1  0.12563200  0.55352300  0.00000000  1
  Cu  Cu5  1  0.72770300  0.58108700  0.50000000  1
  Cu  Cu6  1  0.58108700  0.72770300  0.50000000  1
  Cu  Cu7  1  0.87268700  0.43285900  0.50000000  1
  Cu  Cu8  1  0.43285900  0.87268700  0.50000000  1
  Cu  Cu9  1  0.34519500  0.04969400  0.50000000  1
  Cu  Cu10  1  0.04969400  0.34519500  0.50000000  1
  Sb  Sb0  1  0.16548500  0.16548500  0.50000000  1
  Sb  Sb1  1  0.98712100  0.69549300  0.00000000  1
  Sb  Sb2  1  0.69549300  0.98712100  0.00000000  1
loop_
_geom_bond_atom_site_label_1
_geom_bond_atom_site_label_2
_geom_bond_distance
_geom_bond_site_symmetry_2
Cu0 Cu2 2.598929 1_555
Cu0 Cu1 2.598929 1_555
Cu0 Cu6 2.679153 1_555
Cu0 Cu5 2.679153 1_554
Cu0 Cu6 2.679153 1_554
Cu0 Cu5 2.679153 1_555
Cu0 Sb0 2.777664 1_665
Cu0 Sb0 2.777664 1_664
Cu0 Sb1 2.813456 1_555
Cu0 Sb2 2.813456 1_555
Cu0 Cu1 2.986223 1_665
Cu0 Cu2 2.986223 1_665
Cu1 Cu5 2.612073 1_555
Cu1 Cu5 2.612073 1_554
Cu1 Cu9 2.698946 1_555
Cu1 Cu9 2.698946 1_554
Cu1 Cu3 2.715300 1_555
Cu1 Sb0 2.726365 1_554
Cu1 Sb0 2.726365 1_555
Cu1 Sb1 2.753316 1_555
Cu1 Cu2 2.809064 1_555
Cu1 Sb1 2.825878 1_445
Cu2 Cu6 2.612073 1_555
Cu2 Cu6 2.612073 1_554
Cu2 Cu4 2.715300 1_555
Cu2 Sb0 2.726365 1_554
Cu2 Sb0 2.726365 1_555
Cu2 Sb2 2.753316 1_555
Cu2 Sb2 2.825878 1_445
Cu3 Cu9 2.600537 1_554
Cu3 Cu9 2.600537 1_555
Cu3 Cu7 2.638681 1_555
Cu3 Cu7 2.638681 1_554
Cu3 Cu8 2.664918 1_544
Cu3 Cu8 2.664918 1_545
Cu3 Sb2 2.700242 1_545
Cu3 Sb1 2.737462 1_445
Cu3 Sb1 2.752113 1_555
Cu3 Cu4 2.782200 1_655
Cu3 Cu4 2.782200 1_545
Cu4 Cu8 2.638681 1_555
Cu4 Cu8 2.638681 1_554
Cu4 Cu7 2.664918 1_454
Cu4 Cu7 2.664918 1_455
Cu4 Sb1 2.700242 1_455
Cu4 Sb2 2.737462 1_445
Cu4 Sb2 2.752113 1_555
Cu5 Cu9 2.628598 1_555
Cu5 Sb1 2.725786 1_555
Cu5 Sb1 2.725786 1_556
Cu5 Sb0 2.747776 1_555
Cu5 Cu7 2.822803 1_555
Cu5 Cu6 2.822985 1_555
Cu5 Sb0 2.840070 1_665
Cu5 Cu9 2.985212 1_665
Cu6 Sb2 2.725786 1_556
Cu6 Sb2 2.725786 1_555
Cu6 Sb0 2.747776 1_555
Cu6 Cu8 2.822803 1_555
Cu6 Sb0 2.840070 1_665
Cu7 Cu9 2.598318 1_555
Cu7 Cu8 2.674929 1_545
Cu7 Cu8 2.674929 1_655
Cu7 Sb1 2.744213 1_556
Cu7 Sb1 2.744213 1_555
Cu7 Cu9 2.971304 1_665
Cu8 Cu9 2.557113 1_565
Cu8 Sb2 2.744213 1_555
Cu8 Sb2 2.744213 1_556
Cu9 Sb1 2.760278 1_446
Cu9 Sb1 2.760278 1_445
Cu9 Sb0 2.849000 1_555
Cu10 Cu7 2.557113 1_455
Cu10 Cu8 2.598318 1_555
Cu10 Cu4 2.600537 1_556
Cu10 Cu4 2.600537 1_555
Cu10 Cu6 2.628598 1_555
Cu10 Cu2 2.698946 1_556
Cu10 Cu2 2.698946 1_555
Cu10 Sb2 2.760278 1_445
Cu10 Sb2 2.760278 1_446
Cu10 Sb0 2.849000 1_555
Cu10 Cu8 2.971304 1_445
Cu10 Cu6 2.985212 1_445
