# generated using pymatgen
data_K3Al4GaI16
_symmetry_space_group_name_H-M   'P 1'
_cell_length_a   8.31435542
_cell_length_b   8.60372017
_cell_length_c   15.79727020
_cell_angle_alpha   89.94399083
_cell_angle_beta   90.00000000
_cell_angle_gamma   90.00000000
_symmetry_Int_Tables_number   1
_chemical_formula_structural   K3Al4GaI16
_chemical_formula_sum   'K3 Al4 Ga1 I16'
_cell_volume   1130.04750719
_cell_formula_units_Z   1
loop_
 _symmetry_equiv_pos_site_id
 _symmetry_equiv_pos_as_xyz
  1  'x, y, z'
loop_
 _atom_site_type_symbol
 _atom_site_label
 _atom_site_symmetry_multiplicity
 _atom_site_fract_x
 _atom_site_fract_y
 _atom_site_fract_z
 _atom_site_occupancy
  K  K0  1  0.25000000  0.43881204  0.14478268  1
  K  K1  1  0.75000000  0.94931742  0.35300601  1
  K  K2  1  0.75000000  0.54687509  0.84868022  1
  Al  Al0  1  0.25000000  0.28169696  0.88624830  1
  Al  Al1  1  0.75000000  0.79895977  0.60721137  1
  Al  Al2  1  0.75000000  0.71100831  0.10433626  1
  Al  Al3  1  0.25000000  0.21016300  0.40335140  1
  Ga  Ga0  1  0.25000000  0.05889844  0.64718047  1
  I  I0  1  0.25000000  0.10765267  0.01567618  1
  I  I1  1  0.75000000  0.61941081  0.48005712  1
  I  I2  1  0.75000000  0.88171738  0.97398875  1
  I  I3  1  0.25000000  0.37130676  0.53811010  1
  I  I4  1  0.25000000  0.92229809  0.44271105  1
  I  I5  1  0.75000000  0.42167210  0.06551024  1
  I  I6  1  0.75000000  0.08533121  0.56427851  1
  I  I7  1  0.25000000  0.56925635  0.92825206  1
  I  I8  1  0.99800888  0.76975281  0.19519584  1
  I  I9  1  0.00414970  0.27724587  0.31295395  1
  I  I10  1  0.49455107  0.22302531  0.79287190  1
  I  I11  1  0.50067044  0.74278680  0.69728996  1
  I  I12  1  0.00544893  0.22302531  0.79287190  1
  I  I13  1  0.99932956  0.74278680  0.69728996  1
  I  I14  1  0.50199112  0.76975281  0.19519584  1
  I  I15  1  0.49585030  0.27724587  0.31295395  1
loop_
_geom_bond_atom_site_label_1
_geom_bond_atom_site_label_2
_geom_bond_distance
_geom_bond_site_symmetry_2
Al0 I0 2.533125 1_556
Al0 I7 2.562143 1_555
Al0 I10 2.562502 1_555
Al0 I12 2.562502 1_555
Al1 I1 2.535207 1_555
Al1 I6 2.554863 1_565
Al1 I13 2.560183 1_555
Al1 I11 2.560183 1_555
Al2 I2 2.528102 1_554
Al2 I8 2.563013 1_555
Al2 I14 2.563013 1_555
Al2 I5 2.564397 1_555
Al3 I3 2.541623 1_555
Al3 I4 2.552975 1_545
Al3 I15 2.559116 1_555
Al3 I9 2.559116 1_555
Ga0 I3 3.191299 1_555
I0 K0 3.505567 1_555
I1 K1 3.474738 1_555
I2 K2 3.497031 1_555
I5 K2 3.589708 1_554
I6 K1 3.537818 1_545
I7 K0 3.598961 1_556
I8 K1 3.586252 1_555
I8 K0 3.624298 1_655
I9 K1 3.580826 1_445
I9 K0 3.627828 1_555
I10 K2 3.613380 1_555
I11 K2 3.584714 1_555
I12 K2 3.613380 1_455
I13 K2 3.584714 1_555
I14 K1 3.586252 1_555
I14 K0 3.624298 1_555
I15 K1 3.580826 1_545
I15 K0 3.627828 1_555
