# generated using pymatgen
data_CsBeVO4
_symmetry_space_group_name_H-M   'P 1'
_cell_length_a   5.47048389
_cell_length_b   5.47048385
_cell_length_c   5.47242395
_cell_angle_alpha   59.99039672
_cell_angle_beta   59.99039394
_cell_angle_gamma   59.98084642
_symmetry_Int_Tables_number   1
_chemical_formula_structural   CsBeVO4
_chemical_formula_sum   'Cs1 Be1 V1 O4'
_cell_volume   115.76846363
_cell_formula_units_Z   1
loop_
 _symmetry_equiv_pos_site_id
 _symmetry_equiv_pos_as_xyz
  1  'x, y, z'
loop_
 _atom_site_type_symbol
 _atom_site_label
 _atom_site_symmetry_multiplicity
 _atom_site_fract_x
 _atom_site_fract_y
 _atom_site_fract_z
 _atom_site_occupancy
  Cs  Cs0  1  0.99943232  0.99943232  0.98505521  1
  Be  Be0  1  0.75017206  0.75017206  0.73413287  1
  V  V0  1  0.50028393  0.50028393  0.48405805  1
  O  O0  1  0.62835253  0.11610827  0.61152623  1
  O  O1  1  0.62882287  0.62882287  0.09993114  1
  O  O2  1  0.11610827  0.62835253  0.61152623  1
  O  O3  1  0.62782801  0.62782801  0.61306927  1
loop_
_geom_bond_atom_site_label_1
_geom_bond_atom_site_label_2
_geom_bond_distance
_geom_bond_site_symmetry_2
Cs0 O1 3.190452 1_556
Cs0 O0 3.195705 1_566
Cs0 O2 3.195705 1_656
Cs0 O3 3.199107 1_556
Cs0 O3 3.200156 1_655
Cs0 O3 3.200156 1_565
Cs0 O2 3.202471 1_655
Cs0 O0 3.202471 1_565
Cs0 O1 3.204057 1_566
Cs0 O1 3.204057 1_656
Cs0 O0 3.206272 1_665
Cs0 O2 3.206272 1_665
Be0 O3 1.634033 1_555
Be0 O2 1.634190 1_655
Be0 O0 1.634190 1_565
Be0 O1 1.634318 1_556
O0 V0 1.715643 1_555
O1 V0 1.716200 1_555
O2 V0 1.715642 1_555
O3 V0 1.716007 1_555
