# generated using pymatgen
data_Hf6Si6Tc5W
_symmetry_space_group_name_H-M   'P 1'
_cell_length_a   7.72224735
_cell_length_b   7.72223453
_cell_length_c   7.72223504
_cell_angle_alpha   126.49890040
_cell_angle_beta   127.92945724
_cell_angle_gamma   77.90701534
_symmetry_Int_Tables_number   1
_chemical_formula_structural   Hf6Si6Tc5W
_chemical_formula_sum   'Hf6 Si6 Tc5 W1'
_cell_volume   282.99769453
_cell_formula_units_Z   1
loop_
 _symmetry_equiv_pos_site_id
 _symmetry_equiv_pos_as_xyz
  1  'x, y, z'
loop_
 _atom_site_type_symbol
 _atom_site_label
 _atom_site_symmetry_multiplicity
 _atom_site_fract_x
 _atom_site_fract_y
 _atom_site_fract_z
 _atom_site_occupancy
  Hf  Hf0  1  0.54829582  0.09455241  0.04435826  1
  Hf  Hf1  1  0.45170418  0.49606244  0.54625459  1
  Hf  Hf2  1  0.94969408  0.49600395  0.04427748  1
  Hf  Hf3  1  0.05030592  0.09458340  0.54631087  1
  Hf  Hf4  1  0.75024561  0.89830687  0.64858993  1
  Hf  Hf5  1  0.24975439  0.89834433  0.14806026  1
  Si  Si0  1  0.33329164  0.82955763  0.49625181  1
  Si  Si1  1  0.66670836  0.16296116  0.49626599  1
  Si  Si2  1  0.83335005  0.83054850  0.99726896  1
  Si  Si3  1  0.16664995  0.16391891  0.99719645  1
  Si  Si4  1  0.74797660  0.49941774  0.24733833  1
  Si  Si5  1  0.25202340  0.49936173  0.75144214  1
  Tc  Tc0  1  0.12791285  0.75355208  0.62572284  1
  Tc  Tc1  1  0.87208715  0.49780999  0.62563924  1
  Tc  Tc2  1  0.62794032  0.75150470  0.12354070  1
  Tc  Tc3  1  0.37205968  0.49559938  0.12356439  1
  Tc  Tc4  1  0.50000000  0.24142639  0.74142639  1
  W  W0  1  1.00000000  0.24049138  0.24049138  1
loop_
_geom_bond_atom_site_label_1
_geom_bond_atom_site_label_2
_geom_bond_distance
_geom_bond_site_symmetry_2
Hf0 Si0 2.709166 1_544
Hf0 Si2 2.712173 1_544
Hf0 Si3 2.712271 1_554
Hf0 Si1 2.716576 1_555
Hf0 Si4 2.797883 1_555
Hf0 Tc0 2.911436 1_544
Hf0 Tc2 2.924351 1_545
Hf0 Tc4 2.967218 1_554
Hf0 Tc3 2.970096 1_555
Hf0 W0 2.975391 1_555
Hf0 Tc1 2.988963 1_555
Hf1 Si1 2.709161 1_555
Hf1 Si3 2.712173 1_554
Hf1 Si2 2.712278 1_555
Hf1 Si0 2.716572 1_555
Hf1 Si5 2.797904 1_555
Hf1 Tc1 2.911428 1_555
Hf1 Tc3 2.924332 1_555
Hf1 Tc4 2.967231 1_555
Hf1 Tc2 2.970115 1_556
Hf1 W0 2.975396 1_455
Hf1 Tc0 2.988968 1_555
Hf2 Si1 2.708668 1_554
Hf2 Si3 2.712002 1_654
Hf2 Si2 2.712057 1_554
Hf2 Si0 2.717172 1_655
Hf2 Si4 2.796888 1_555
Hf2 Tc1 2.911836 1_554
Hf2 Tc3 2.925053 1_655
Hf2 Tc4 2.966518 1_554
Hf2 Tc2 2.969853 1_555
Hf2 W0 2.975197 1_555
Hf2 Tc0 2.989458 1_655
Hf3 Si0 2.708671 1_545
Hf3 Si2 2.712009 1_444
Hf3 Si3 2.712035 1_555
Hf3 Si1 2.717170 1_455
Hf3 Si5 2.796888 1_555
Hf3 Tc0 2.911832 1_545
Hf3 Tc2 2.925053 1_445
Hf3 Tc4 2.966521 1_555
Hf3 Tc3 2.969848 1_556
Hf3 W0 2.975204 1_455
Hf3 Tc1 2.989459 1_455
Hf4 Si2 2.710465 1_555
Hf4 Si3 2.710508 1_665
Hf4 Si0 2.711024 1_555
Hf4 Si1 2.711298 1_565
Hf4 Si4 2.773313 1_555
Hf4 W0 2.919574 1_566
Hf4 Tc4 2.926948 1_565
Hf4 Tc1 2.969068 1_555
Hf4 Tc0 2.969628 1_655
Hf4 Tc3 2.981199 1_555
Hf4 Tc2 2.981515 1_555
Hf5 Si3 2.710471 1_564
Hf5 Si2 2.710508 1_454
Hf5 Si1 2.711026 1_565
Hf5 Si0 2.711298 1_555
Hf5 Si5 2.773306 1_554
Hf5 W0 2.919575 1_465
Hf5 Tc4 2.926953 1_565
Hf5 Tc0 2.969061 1_554
Hf5 Tc1 2.969627 1_454
Hf5 Tc2 2.981192 1_555
Hf5 Tc3 2.981524 1_555
Si0 Tc0 2.626209 1_555
Si0 Tc4 2.629331 1_565
Si0 Tc3 2.632398 1_555
Si1 Tc1 2.626202 1_555
Si1 Tc4 2.629333 1_555
Si1 Tc2 2.632400 1_545
Si2 Tc2 2.618161 1_556
Si2 W0 2.620597 1_566
Si2 Tc1 2.624641 1_555
Si3 Tc3 2.618145 1_556
Si3 W0 2.620611 1_456
Si3 Tc0 2.624637 1_545
Si4 Tc2 2.435383 1_555
Si4 Tc3 2.435702 1_555
Si4 Tc4 2.457852 1_554
Si4 Tc0 2.459442 1_655
Si4 Tc1 2.459464 1_555
Si4 W0 2.481665 1_555
Si5 Tc3 2.435381 1_556
Si5 Tc2 2.435702 1_556
Si5 Tc4 2.457852 1_555
Si5 Tc1 2.459440 1_455
Si5 Tc0 2.459468 1_555
Si5 W0 2.481670 1_455
