# generated using pymatgen
data_K8Hf6BeBr20
_symmetry_space_group_name_H-M   'P 1'
_cell_length_a   11.51257605
_cell_length_b   11.51257679
_cell_length_c   11.51257670
_cell_angle_alpha   60.00000026
_cell_angle_beta   59.99999815
_cell_angle_gamma   59.99999774
_symmetry_Int_Tables_number   1
_chemical_formula_structural   K8Hf6BeBr20
_chemical_formula_sum   'K8 Hf6 Be1 Br20'
_cell_volume   1078.95312746
_cell_formula_units_Z   1
loop_
 _symmetry_equiv_pos_site_id
 _symmetry_equiv_pos_as_xyz
  1  'x, y, z'
loop_
 _atom_site_type_symbol
 _atom_site_label
 _atom_site_symmetry_multiplicity
 _atom_site_fract_x
 _atom_site_fract_y
 _atom_site_fract_z
 _atom_site_occupancy
  K  K0  1  0.36037528  0.36037528  0.36037528  1
  K  K1  1  0.63962472  0.63962472  0.63962472  1
  K  K2  1  0.36037528  0.36037528  0.91887416  1
  K  K3  1  0.36037528  0.91887416  0.36037528  1
  K  K4  1  0.63962472  0.63962472  0.08112584  1
  K  K5  1  0.63962472  0.08112584  0.63962472  1
  K  K6  1  0.91887416  0.36037528  0.36037528  1
  K  K7  1  0.08112584  0.63962472  0.63962472  1
  Hf  Hf0  1  0.85737969  0.14262031  0.14262031  1
  Hf  Hf1  1  0.14262031  0.85737969  0.85737969  1
  Hf  Hf2  1  0.14262031  0.85737969  0.14262031  1
  Hf  Hf3  1  0.85737969  0.14262031  0.85737969  1
  Hf  Hf4  1  0.14262031  0.14262031  0.85737969  1
  Hf  Hf5  1  0.85737969  0.85737969  0.14262031  1
  Be  Be0  1  0.00000000  0.00000000  0.00000000  1
  Br  Br0  1  0.33004985  0.00000000  0.00000000  1
  Br  Br1  1  0.66995015  1.00000000  1.00000000  1
  Br  Br2  1  0.00000000  0.33004985  0.66995015  1
  Br  Br3  1  1.00000000  0.66995015  0.33004985  1
  Br  Br4  1  0.00000000  0.33004985  1.00000000  1
  Br  Br5  1  0.66995015  1.00000000  0.33004985  1
  Br  Br6  1  1.00000000  0.66995015  0.00000000  1
  Br  Br7  1  0.33004985  0.00000000  0.66995015  1
  Br  Br8  1  0.00000000  0.00000000  0.33004985  1
  Br  Br9  1  0.00000000  0.00000000  0.66995015  1
  Br  Br10  1  0.66995015  0.33004985  1.00000000  1
  Br  Br11  1  0.33004985  0.66995015  0.00000000  1
  Br  Br12  1  0.68196947  0.31803053  0.31803053  1
  Br  Br13  1  0.31803053  0.68196947  0.68196947  1
  Br  Br14  1  0.31803053  0.68196947  0.31803053  1
  Br  Br15  1  0.68196947  0.31803053  0.68196947  1
  Br  Br16  1  0.31803053  0.31803053  0.68196947  1
  Br  Br17  1  0.68196947  0.68196947  0.31803053  1
  Br  Br18  1  0.25000000  0.25000000  0.25000000  1
  Br  Br19  1  0.75000000  0.75000000  0.75000000  1
loop_
_geom_bond_atom_site_label_1
_geom_bond_atom_site_label_2
_geom_bond_distance
_geom_bond_site_symmetry_2
Be0 Hf2 2.322036 1_545
Be0 Hf3 2.322036 1_454
Be0 Hf0 2.322036 1_455
Be0 Hf1 2.322036 1_544
Be0 Hf4 2.322036 1_554
Be0 Hf5 2.322036 1_445
Br0 Hf4 2.711459 1_554
Br0 Hf2 2.711459 1_545
Br1 Hf5 2.711459 1_556
Br1 Hf3 2.711459 1_565
Br2 Hf4 2.711459 1_555
Br2 Hf3 2.711459 1_455
Br3 Hf5 2.711459 1_555
Br3 Hf2 2.711459 1_655
Br4 Hf4 2.711459 1_555
Br4 Hf0 2.711459 1_456
Br5 Hf5 2.711459 1_555
Br5 Hf0 2.711459 1_565
Br6 Hf5 2.711459 1_555
Br6 Hf1 2.711459 1_654
Br7 Hf4 2.711459 1_555
Br7 Hf1 2.711459 1_545
Br8 Hf0 2.711459 1_455
Br8 Hf2 2.711459 1_545
Br9 Hf1 2.711459 1_545
Br9 Hf3 2.711459 1_455
Br10 Hf3 2.711459 1_555
Br10 Hf0 2.711459 1_556
Br11 Hf2 2.711459 1_555
Br11 Hf1 2.711459 1_554
Br12 Hf0 2.855896 1_555
Br12 K0 3.287972 1_555
Br12 K6 3.287973 1_555
Br12 K5 3.287973 1_555
Br12 K4 3.287973 1_555
Br13 Hf1 2.855896 1_555
Br13 K1 3.287972 1_555
Br13 K7 3.287973 1_555
Br13 K3 3.287973 1_555
Br13 K2 3.287973 1_555
Br14 Hf2 2.855896 1_555
Br14 K4 3.287972 1_555
Br14 K7 3.287973 1_555
Br14 K3 3.287973 1_555
Br14 K0 3.287973 1_555
Br15 Hf3 2.855896 1_555
Br15 K2 3.287972 1_555
Br15 K6 3.287973 1_555
Br15 K5 3.287973 1_555
Br15 K1 3.287973 1_555
Br16 Hf4 2.855896 1_555
Br16 K5 3.287972 1_555
Br16 K7 3.287973 1_555
Br16 K0 3.287973 1_555
Br16 K2 3.287973 1_555
Br17 Hf5 2.855896 1_555
Br17 K3 3.287972 1_555
Br17 K6 3.287973 1_555
Br17 K4 3.287973 1_555
Br17 K1 3.287973 1_555
Br18 K6 3.112576 1_455
Br18 K0 3.112576 1_555
Br18 K2 3.112576 1_554
Br18 K3 3.112576 1_545
Br19 K7 3.112576 1_655
Br19 K4 3.112576 1_556
Br19 K1 3.112576 1_555
Br19 K5 3.112576 1_565
