# generated using pymatgen
data_Y8SnHg3Pd8
_symmetry_space_group_name_H-M   'P 1'
_cell_length_a   7.70845154
_cell_length_b   7.70845154
_cell_length_c   7.36680378
_cell_angle_alpha   90.00000000
_cell_angle_beta   90.00000000
_cell_angle_gamma   90.00000000
_symmetry_Int_Tables_number   1
_chemical_formula_structural   Y8SnHg3Pd8
_chemical_formula_sum   'Y8 Sn1 Hg3 Pd8'
_cell_volume   437.73713890
_cell_formula_units_Z   1
loop_
 _symmetry_equiv_pos_site_id
 _symmetry_equiv_pos_as_xyz
  1  'x, y, z'
loop_
 _atom_site_type_symbol
 _atom_site_label
 _atom_site_symmetry_multiplicity
 _atom_site_fract_x
 _atom_site_fract_y
 _atom_site_fract_z
 _atom_site_occupancy
  Y  Y0  1  0.83345522  0.18005298  0.49999606  1
  Y  Y1  1  0.16654478  0.81994702  0.49999606  1
  Y  Y2  1  0.31994702  0.33345522  0.00000394  1
  Y  Y3  1  0.68005298  0.66654478  0.00000394  1
  Y  Y4  1  0.68170621  0.66822868  0.50002745  1
  Y  Y5  1  0.31829379  0.33177132  0.50002745  1
  Y  Y6  1  0.16822868  0.81829379  0.99997255  1
  Y  Y7  1  0.83177132  0.18170621  0.99997255  1
  Sn  Sn0  1  0.00000000  0.50000000  0.25000000  1
  Hg  Hg0  1  0.50000000  0.00000000  0.25000000  1
  Hg  Hg1  1  0.00000000  0.50000000  0.75000000  1
  Hg  Hg2  1  0.50000000  0.00000000  0.75000000  1
  Pd  Pd0  1  0.62211185  0.36808552  0.25187593  1
  Pd  Pd1  1  0.37788815  0.63191448  0.25187593  1
  Pd  Pd2  1  0.13473667  0.12008538  0.75172584  1
  Pd  Pd3  1  0.86526333  0.87991462  0.75172584  1
  Pd  Pd4  1  0.37991462  0.63473667  0.74827416  1
  Pd  Pd5  1  0.62008538  0.36526333  0.74827416  1
  Pd  Pd6  1  0.86808552  0.87788815  0.24812407  1
  Pd  Pd7  1  0.13191448  0.12211185  0.24812407  1
loop_
_geom_bond_atom_site_label_1
_geom_bond_atom_site_label_2
_geom_bond_distance
_geom_bond_site_symmetry_2
Sn0 Y5 3.330791 1_555
Sn0 Y6 3.330791 1_554
Sn0 Y4 3.330791 1_455
Sn0 Y7 3.330791 1_454
Sn0 Y1 3.335044 1_555
Sn0 Y2 3.335044 1_555
Sn0 Y3 3.335044 1_455
Sn0 Y0 3.335044 1_455
Hg0 Pd0 2.989463 1_555
Hg0 Pd6 2.989463 1_545
Hg0 Pd7 2.989463 1_555
Hg0 Pd1 2.989463 1_545
Hg0 Y5 3.448914 1_555
Hg0 Y7 3.448914 1_554
Hg0 Y4 3.448914 1_545
Hg0 Y6 3.448914 1_544
Hg0 Y0 3.453285 1_555
Hg0 Y2 3.453285 1_555
Hg0 Y3 3.453285 1_545
Hg0 Y1 3.453285 1_545
Hg1 Pd4 3.107298 1_555
Hg1 Pd3 3.107298 1_455
Hg1 Pd2 3.107298 1_555
Hg1 Pd5 3.107298 1_455
Hg1 Y6 3.330568 1_555
Hg1 Y5 3.330568 1_555
Hg1 Y7 3.330568 1_455
Hg1 Y4 3.330568 1_455
Hg1 Y1 3.335076 1_555
Hg1 Y2 3.335076 1_556
Hg1 Y3 3.335076 1_456
Hg1 Y0 3.335076 1_455
Hg2 Pd5 2.963902 1_555
Hg2 Pd3 2.963902 1_545
Hg2 Pd2 2.963902 1_555
Hg2 Pd4 2.963902 1_545
Hg2 Y7 3.448698 1_555
Hg2 Y5 3.448698 1_555
Hg2 Y6 3.448698 1_545
Hg2 Y4 3.448698 1_545
Hg2 Y0 3.453316 1_555
Hg2 Y2 3.453316 1_556
Hg2 Y3 3.453316 1_546
Hg2 Y1 3.453316 1_545
Pd0 Pd1 2.771303 1_555
Pd0 Y0 2.845344 1_555
Pd0 Y7 2.849516 1_554
Pd0 Y5 2.984134 1_555
Pd0 Y4 2.984266 1_555
Pd0 Y3 2.989208 1_555
Pd0 Y2 2.989881 1_555
Pd0 Sn0 3.085347 1_655
Pd1 Y1 2.845344 1_555
Pd1 Y6 2.849516 1_554
Pd1 Y4 2.984134 1_555
Pd1 Y5 2.984266 1_555
Pd1 Y2 2.989208 1_555
Pd1 Y3 2.989881 1_555
Pd1 Sn0 3.085347 1_555
Pd2 Pd3 2.782504 1_445
Pd2 Y2 2.844080 1_556
Pd2 Y5 2.846549 1_555
Pd2 Y6 2.970352 1_545
Pd2 Y1 2.975203 1_545
Pd2 Y7 3.004021 1_455
Pd2 Y0 3.007698 1_455
Pd3 Y3 2.844080 1_556
Pd3 Y4 2.846549 1_555
Pd3 Y7 2.970352 1_565
Pd3 Y0 2.975203 1_565
Pd3 Y6 3.004021 1_655
Pd3 Y1 3.007698 1_655
Pd4 Pd5 2.782504 1_555
Pd4 Y1 2.844080 1_555
Pd4 Y6 2.846549 1_555
Pd4 Y4 2.970352 1_555
Pd4 Y3 2.975203 1_556
Pd4 Y5 3.004021 1_555
Pd4 Y2 3.007698 1_556
Pd5 Y0 2.844080 1_555
Pd5 Y7 2.846549 1_555
Pd5 Y5 2.970352 1_555
Pd5 Y2 2.975203 1_556
Pd5 Y4 3.004021 1_555
Pd5 Y3 3.007698 1_556
Pd6 Pd7 2.771303 1_665
Pd6 Y3 2.845344 1_555
Pd6 Y4 2.849516 1_555
Pd6 Y7 2.984134 1_564
Pd6 Y6 2.984266 1_654
Pd6 Y1 2.989208 1_655
Pd6 Y0 2.989881 1_565
Pd6 Sn0 3.085347 1_655
Pd7 Y2 2.845344 1_555
Pd7 Y5 2.849516 1_555
Pd7 Y6 2.984134 1_544
Pd7 Y7 2.984266 1_454
Pd7 Y0 2.989208 1_455
Pd7 Y1 2.989881 1_545
Pd7 Sn0 3.085347 1_555
