# generated using pymatgen
data_NaFe3NiAs12
_symmetry_space_group_name_H-M   'P 1'
_cell_length_a   7.16563297
_cell_length_b   7.16563263
_cell_length_c   7.16563362
_cell_angle_alpha   109.37985773
_cell_angle_beta   109.37985299
_cell_angle_gamma   109.37984645
_symmetry_Int_Tables_number   1
_chemical_formula_structural   NaFe3NiAs12
_chemical_formula_sum   'Na1 Fe3 Ni1 As12'
_cell_volume   284.18574917
_cell_formula_units_Z   1
loop_
 _symmetry_equiv_pos_site_id
 _symmetry_equiv_pos_as_xyz
  1  'x, y, z'
loop_
 _atom_site_type_symbol
 _atom_site_label
 _atom_site_symmetry_multiplicity
 _atom_site_fract_x
 _atom_site_fract_y
 _atom_site_fract_z
 _atom_site_occupancy
  Na  Na0  1  0.00000000  0.00000000  0.00000000  1
  Fe  Fe0  1  0.50000000  0.00000000  0.00000000  1
  Fe  Fe1  1  0.00000000  0.50000000  0.00000000  1
  Fe  Fe2  1  0.00000000  0.00000000  0.50000000  1
  Ni  Ni0  1  0.50000000  0.50000000  0.50000000  1
  As  As0  1  0.85297902  0.65828875  0.50379875  1
  As  As1  1  0.14702098  0.34171125  0.49620125  1
  As  As2  1  0.15403453  0.65932422  0.81195950  1
  As  As3  1  0.84596547  0.34067578  0.18804050  1
  As  As4  1  0.65828875  0.50379875  0.85297902  1
  As  As5  1  0.34171125  0.49620125  0.14702098  1
  As  As6  1  0.65932422  0.81195950  0.15403453  1
  As  As7  1  0.34067578  0.18804050  0.84596547  1
  As  As8  1  0.50379875  0.85297902  0.65828875  1
  As  As9  1  0.49620125  0.14702098  0.34171125  1
  As  As10  1  0.18804050  0.84596547  0.34067578  1
  As  As11  1  0.81195950  0.15403453  0.65932422  1
loop_
_geom_bond_atom_site_label_1
_geom_bond_atom_site_label_2
_geom_bond_distance
_geom_bond_site_symmetry_2
As0 Fe2 2.336117 1_665
As0 Ni0 2.390516 1_555
As0 As2 2.519308 1_655
As0 As3 2.594758 1_555
As0 Na0 3.125994 1_666
As1 Fe2 2.336117 1_555
As1 Ni0 2.390516 1_555
As1 As3 2.519308 1_455
As1 As2 2.594758 1_555
As1 Na0 3.125994 1_555
As2 Fe0 2.346150 1_566
As2 Fe1 2.347097 1_556
As2 Na0 3.096018 1_566
As3 Fe0 2.346150 1_555
As3 Fe1 2.347097 1_655
As3 Na0 3.096018 1_655
As4 Fe1 2.336117 1_656
As4 Ni0 2.390516 1_555
As4 As6 2.519308 1_556
As4 As7 2.594758 1_555
As4 Na0 3.125994 1_666
As5 Fe1 2.336117 1_555
As5 Ni0 2.390516 1_555
As5 As7 2.519308 1_554
As5 As6 2.594758 1_555
As5 Na0 3.125994 1_555
As6 Fe2 2.346150 1_665
As6 Fe0 2.347097 1_565
As6 Na0 3.096019 1_665
As7 Fe2 2.346150 1_555
As7 Fe0 2.347097 1_556
As7 Na0 3.096019 1_556
As8 Fe0 2.336117 1_566
As8 Ni0 2.390516 1_555
As8 Na0 3.125994 1_666
As9 Fe0 2.336117 1_555
As9 Ni0 2.390516 1_555
As9 Na0 3.125994 1_555
As10 Fe1 2.346150 1_555
As10 Fe2 2.347097 1_565
As10 As9 2.519308 1_565
As10 As8 2.594758 1_555
As10 Na0 3.096018 1_565
As11 Fe1 2.346150 1_656
As11 Fe2 2.347097 1_655
As11 As8 2.519308 1_545
As11 As9 2.594758 1_555
As11 Na0 3.096018 1_656
