# generated using pymatgen
data_MgPd(AuO2)2
_symmetry_space_group_name_H-M   'P 1'
_cell_length_a   6.35240690
_cell_length_b   6.35240591
_cell_length_c   5.32745399
_cell_angle_alpha   82.06236693
_cell_angle_beta   82.06236773
_cell_angle_gamma   28.23022410
_symmetry_Int_Tables_number   1
_chemical_formula_structural   MgPd(AuO2)2
_chemical_formula_sum   'Mg1 Pd1 Au2 O4'
_cell_volume   100.65226684
_cell_formula_units_Z   1
loop_
 _symmetry_equiv_pos_site_id
 _symmetry_equiv_pos_as_xyz
  1  'x, y, z'
loop_
 _atom_site_type_symbol
 _atom_site_label
 _atom_site_symmetry_multiplicity
 _atom_site_fract_x
 _atom_site_fract_y
 _atom_site_fract_z
 _atom_site_occupancy
  Mg  Mg0  1  0.00000000  0.00000000  0.50000000  1
  Pd  Pd0  1  0.50000000  0.50000000  0.00000000  1
  Au  Au0  1  0.25188914  0.25188914  0.75706410  1
  Au  Au1  1  0.74811086  0.74811086  0.24293590  1
  O  O0  1  0.58237896  0.58237896  0.30299656  1
  O  O1  1  0.91542093  0.91542093  0.18641404  1
  O  O2  1  0.08457907  0.08457907  0.81358596  1
  O  O3  1  0.41762104  0.41762104  0.69700344  1
loop_
_geom_bond_atom_site_label_1
_geom_bond_atom_site_label_2
_geom_bond_distance
_geom_bond_site_symmetry_2
Mg0 O0 2.056280 1_455
Mg0 O3 2.056280 1_545
Mg0 O0 2.056281 1_545
Mg0 O3 2.056281 1_455
Mg0 O1 2.091118 1_445
Mg0 O2 2.091118 1_555
Au0 O3 2.021423 1_555
Au0 O2 2.040473 1_555
Au1 O0 2.021423 1_555
Au1 O1 2.040473 1_555
O0 Pd0 2.025461 1_555
O1 Pd0 2.043883 1_565
O1 Pd0 2.043884 1_655
O2 Pd0 2.043883 1_546
O2 Pd0 2.043884 1_456
O3 Pd0 2.025461 1_556
