# generated using pymatgen
data_Rb3Ba3GaSb4
_symmetry_space_group_name_H-M   'P 1'
_cell_length_a   11.25068714
_cell_length_b   11.25068821
_cell_length_c   8.42390369
_cell_angle_alpha   90.00000000
_cell_angle_beta   90.00000000
_cell_angle_gamma   120.00000268
_symmetry_Int_Tables_number   1
_chemical_formula_structural   Rb3Ba3GaSb4
_chemical_formula_sum   'Rb6 Ba6 Ga2 Sb8'
_cell_volume   923.42610978
_cell_formula_units_Z   2
loop_
 _symmetry_equiv_pos_site_id
 _symmetry_equiv_pos_as_xyz
  1  'x, y, z'
loop_
 _atom_site_type_symbol
 _atom_site_label
 _atom_site_symmetry_multiplicity
 _atom_site_fract_x
 _atom_site_fract_y
 _atom_site_fract_z
 _atom_site_occupancy
  Rb  Rb0  1  0.86321066  0.13678934  0.54545060  1
  Rb  Rb1  1  0.27357668  0.13678934  0.54545060  1
  Rb  Rb2  1  0.86321066  0.72642332  0.54545060  1
  Rb  Rb3  1  0.13678934  0.86321066  0.04545060  1
  Rb  Rb4  1  0.72642332  0.86321066  0.04545060  1
  Rb  Rb5  1  0.13678934  0.27357668  0.04545060  1
  Ba  Ba0  1  0.48002861  0.51997139  0.73568395  1
  Ba  Ba1  1  0.03994277  0.51997139  0.73568395  1
  Ba  Ba2  1  0.48002861  0.96005723  0.73568395  1
  Ba  Ba3  1  0.51997139  0.48002861  0.23568395  1
  Ba  Ba4  1  0.96005723  0.48002861  0.23568395  1
  Ba  Ba5  1  0.51997139  0.03994277  0.23568395  1
  Ga  Ga0  1  0.66666700  0.33333300  0.85172103  1
  Ga  Ga1  1  0.33333300  0.66666700  0.35172103  1
  Sb  Sb0  1  0.79878094  0.20121906  0.95769519  1
  Sb  Sb1  1  0.40243913  0.20121906  0.95769519  1
  Sb  Sb2  1  0.79878094  0.59756087  0.95769519  1
  Sb  Sb3  1  0.20121906  0.79878094  0.45769519  1
  Sb  Sb4  1  0.59756087  0.79878094  0.45769519  1
  Sb  Sb5  1  0.20121906  0.40243913  0.45769519  1
  Sb  Sb6  1  0.66666700  0.33333300  0.51715273  1
  Sb  Sb7  1  0.33333300  0.66666700  0.01715273  1
loop_
_geom_bond_atom_site_label_1
_geom_bond_atom_site_label_2
_geom_bond_distance
_geom_bond_site_symmetry_2
Rb0 Sb5 3.546108 1_655
Rb0 Sb4 3.546108 1_545
Rb0 Sb0 3.692703 1_555
Rb0 Sb6 3.837411 1_555
Rb1 Sb5 3.546101 1_555
Rb1 Sb3 3.546112 1_545
Rb1 Sb1 3.692713 1_555
Rb1 Sb6 3.837440 1_555
Rb2 Sb4 3.546101 1_555
Rb2 Sb3 3.546112 1_655
Rb2 Sb2 3.692713 1_555
Rb2 Sb6 3.837440 1_555
Rb3 Sb2 3.546108 1_454
Rb3 Sb1 3.546108 1_564
Rb3 Sb3 3.692703 1_555
Rb3 Sb7 3.837411 1_555
Rb4 Sb2 3.546101 1_554
Rb4 Sb0 3.546112 1_564
Rb4 Sb4 3.692713 1_555
Rb4 Sb7 3.837440 1_555
Rb5 Sb1 3.546101 1_554
Rb5 Sb0 3.546112 1_454
Rb5 Sb5 3.692713 1_555
Rb5 Sb7 3.837440 1_555
Ba0 Sb5 3.594994 1_555
Ba0 Sb4 3.594994 1_555
Ba0 Sb7 3.713984 1_556
Ba0 Sb2 3.740303 1_555
Ba0 Sb1 3.740304 1_555
Ba0 Ga0 3.766044 1_555
Ba0 Sb6 4.076330 1_555
Ba1 Sb5 3.594986 1_555
Ba1 Sb3 3.594993 1_555
Ba1 Sb7 3.713976 1_556
Ba1 Sb2 3.740294 1_455
Ba1 Sb0 3.740301 1_455
Ba1 Ga0 3.766034 1_455
Ba1 Sb6 4.076321 1_455
Ba2 Sb4 3.594987 1_555
Ba2 Sb3 3.594993 1_555
Ba2 Sb7 3.713977 1_556
Ba2 Sb1 3.740294 1_565
Ba2 Sb0 3.740301 1_565
Ba2 Ga0 3.766034 1_565
Ba2 Sb6 4.076322 1_565
Ba3 Sb2 3.594994 1_554
Ba3 Sb1 3.594994 1_554
Ba3 Sb6 3.713984 1_555
Ba3 Sb5 3.740303 1_555
Ba3 Sb4 3.740304 1_555
Ba3 Ga1 3.766044 1_555
Ba3 Sb7 4.076330 1_555
Ba4 Sb2 3.594986 1_554
Ba4 Sb0 3.594993 1_554
Ba4 Sb6 3.713976 1_555
Ba4 Sb5 3.740294 1_655
Ba4 Sb3 3.740301 1_655
Ba4 Ga1 3.766034 1_655
Ba4 Sb7 4.076321 1_655
Ba5 Sb1 3.594987 1_554
Ba5 Sb0 3.594993 1_554
Ba5 Sb6 3.713977 1_555
Ba5 Sb4 3.740294 1_545
Ba5 Sb3 3.740301 1_545
Ba5 Ga1 3.766034 1_545
Ba5 Sb7 4.076322 1_545
Ga0 Sb1 2.724858 1_555
Ga0 Sb0 2.724858 1_555
Ga0 Sb2 2.724858 1_555
Ga0 Sb6 2.818371 1_555
Ga1 Sb4 2.724858 1_555
Ga1 Sb3 2.724858 1_555
Ga1 Sb5 2.724858 1_555
Ga1 Sb7 2.818371 1_555
