# generated using pymatgen
data_ZrAu2SeBr16
_symmetry_space_group_name_H-M   'P 1'
_cell_length_a   7.90188575
_cell_length_b   9.00144222
_cell_length_c   10.20695469
_cell_angle_alpha   87.62384505
_cell_angle_beta   72.65703393
_cell_angle_gamma   80.65362302
_symmetry_Int_Tables_number   1
_chemical_formula_structural   ZrAu2SeBr16
_chemical_formula_sum   'Zr1 Au2 Se1 Br16'
_cell_volume   683.77963552
_cell_formula_units_Z   1
loop_
 _symmetry_equiv_pos_site_id
 _symmetry_equiv_pos_as_xyz
  1  'x, y, z'
loop_
 _atom_site_type_symbol
 _atom_site_label
 _atom_site_symmetry_multiplicity
 _atom_site_fract_x
 _atom_site_fract_y
 _atom_site_fract_z
 _atom_site_occupancy
  Zr  Zr0  1  0.37518596  0.73867179  0.26866830  1
  Au  Au0  1  0.99599675  0.10131206  0.32290960  1
  Au  Au1  1  0.00510582  0.89826020  0.68296014  1
  Se  Se0  1  0.61804296  0.26633949  0.72849488  1
  Br  Br0  1  0.28790893  0.03446135  0.37249475  1
  Br  Br1  1  0.71952207  0.94777643  0.62605403  1
  Br  Br2  1  0.92114121  0.32565673  0.46943531  1
  Br  Br3  1  0.10113890  0.68195252  0.51932406  1
  Br  Br4  1  0.07102511  0.86865936  0.18350485  1
  Br  Br5  1  0.92137759  0.11868214  0.83428076  1
  Br  Br6  1  0.72404693  0.17073424  0.25561265  1
  Br  Br7  1  0.27742214  0.83458482  0.75242417  1
  Br  Br8  1  0.40845810  0.33441326  0.60522955  1
  Br  Br9  1  0.60735615  0.69575586  0.39040403  1
  Br  Br10  1  0.64263744  0.50660068  0.79990618  1
  Br  Br11  1  0.33327454  0.47900996  0.22138600  1
  Br  Br12  1  0.41407467  0.19639361  0.93056830  1
  Br  Br13  1  0.57100534  0.80303724  0.03870407  1
  Br  Br14  1  0.92402417  0.40873576  0.06705789  1
  Br  Br15  1  0.08125723  0.58896151  0.93057949  1
loop_
_geom_bond_atom_site_label_1
_geom_bond_atom_site_label_2
_geom_bond_distance
_geom_bond_site_symmetry_2
Au0 Br6 2.426607 1_555
Au0 Br2 2.449443 1_555
Au0 Br4 2.470370 1_645
Au0 Br0 2.481698 1_655
Au1 Br7 2.436556 1_555
Au1 Br5 2.445098 1_465
Au1 Br1 2.462069 1_455
Au1 Br3 2.488122 1_555
Br0 Zr0 2.808844 1_545
Br1 Se0 2.993478 1_565
Br2 Se0 3.088019 1_555
Br3 Zr0 2.905749 1_555
Br4 Zr0 2.854650 1_555
Br5 Se0 3.011120 1_555
Br8 Se0 2.355817 1_555
Br9 Zr0 2.479495 1_555
Br10 Se0 2.366008 1_555
Br11 Zr0 2.499190 1_555
Br12 Se0 2.342706 1_555
Br13 Zr0 2.500513 1_555
Br14 Br15 2.356152 1_654
