# generated using pymatgen
data_Ta4GaSe8
_symmetry_space_group_name_H-M   'P 1'
_cell_length_a   7.38882413
_cell_length_b   7.38881121
_cell_length_c   7.38883107
_cell_angle_alpha   60.00029397
_cell_angle_beta   60.00046134
_cell_angle_gamma   60.00032407
_symmetry_Int_Tables_number   1
_chemical_formula_structural   Ta4GaSe8
_chemical_formula_sum   'Ta4 Ga1 Se8'
_cell_volume   285.24246610
_cell_formula_units_Z   1
loop_
 _symmetry_equiv_pos_site_id
 _symmetry_equiv_pos_as_xyz
  1  'x, y, z'
loop_
 _atom_site_type_symbol
 _atom_site_label
 _atom_site_symmetry_multiplicity
 _atom_site_fract_x
 _atom_site_fract_y
 _atom_site_fract_z
 _atom_site_occupancy
  Ta  Ta0  1  0.39798280  0.39798694  0.80604335  1
  Ta  Ta1  1  0.39798282  0.80604108  0.39798768  1
  Ta  Ta2  1  0.80602716  0.39799201  0.39799438  1
  Ta  Ta3  1  0.39799020  0.39799669  0.39799803  1
  Ga  Ga0  1  0.00000247  0.00000038  -0.00000051  1
  Se  Se0  1  0.63514923  0.63515601  0.09453751  1
  Se  Se1  1  0.63514687  0.09453989  0.63515924  1
  Se  Se2  1  0.09455862  0.63514530  0.63515143  1
  Se  Se3  1  0.63514251  0.63514891  0.63515319  1
  Se  Se4  1  0.13479492  0.13478326  0.59562971  1
  Se  Se5  1  0.13479738  0.59562895  0.13477893  1
  Se  Se6  1  0.59562406  0.13479186  0.13478516  1
  Se  Se7  1  0.13480097  0.13478874  0.13478189  1
loop_
_geom_bond_atom_site_label_1
_geom_bond_atom_site_label_2
_geom_bond_distance
_geom_bond_site_symmetry_2
Ga0 Se7 2.439532 1_555
Ga0 Se4 2.439557 1_554
Ga0 Se5 2.439557 1_545
Ga0 Se6 2.439607 1_455
Se0 Ta3 2.526133 1_555
Se0 Ta1 2.526192 1_555
Se0 Ta2 2.526195 1_555
Se1 Ta3 2.526121 1_555
Se1 Ta0 2.526166 1_555
Se1 Ta2 2.526177 1_555
Se2 Ta3 2.526021 1_555
Se2 Ta0 2.526065 1_555
Se2 Ta1 2.526085 1_555
Se3 Ta2 2.526072 1_555
Se3 Ta0 2.526097 1_555
Se3 Ta1 2.526115 1_555
Se4 Ta1 2.792523 1_545
Se4 Ta2 2.792639 1_455
Se4 Ta3 2.792673 1_555
Se5 Ta0 2.792489 1_554
Se5 Ta2 2.792664 1_455
Se5 Ta3 2.792691 1_555
Se6 Ta0 2.792516 1_554
Se6 Ta1 2.792567 1_545
Se6 Ta3 2.792725 1_555
Se7 Ta0 2.792503 1_554
Se7 Ta1 2.792545 1_545
Se7 Ta2 2.792712 1_455
