# generated using pymatgen
data_Sr4OsW3O16
_symmetry_space_group_name_H-M   'P 1'
_cell_length_a   5.04712403
_cell_length_b   5.60365035
_cell_length_c   12.84431649
_cell_angle_alpha   90.00000000
_cell_angle_beta   90.00000000
_cell_angle_gamma   89.96993809
_symmetry_Int_Tables_number   1
_chemical_formula_structural   Sr4OsW3O16
_chemical_formula_sum   'Sr4 Os1 W3 O16'
_cell_volume   363.26699738
_cell_formula_units_Z   1
loop_
 _symmetry_equiv_pos_site_id
 _symmetry_equiv_pos_as_xyz
  1  'x, y, z'
loop_
 _atom_site_type_symbol
 _atom_site_label
 _atom_site_symmetry_multiplicity
 _atom_site_fract_x
 _atom_site_fract_y
 _atom_site_fract_z
 _atom_site_occupancy
  Sr  Sr0  1  0.75000000  0.00000000  0.65144365  1
  Sr  Sr1  1  0.25000000  0.50000000  0.84887995  1
  Sr  Sr2  1  0.25000000  0.00000000  0.34990125  1
  Sr  Sr3  1  0.75000000  0.50000000  0.15061092  1
  Os  Os0  1  0.75000000  0.00000000  0.92201473  1
  W  W0  1  0.75000000  0.50000000  0.41948392  1
  W  W1  1  0.25000000  0.00000000  0.08112689  1
  W  W2  1  0.25000000  0.50000000  0.58021316  1
  O  O0  1  0.11436852  0.29815670  0.67506877  1
  O  O1  1  0.61066223  0.19663654  0.82255670  1
  O  O2  1  0.88933777  0.80336346  0.82255670  1
  O  O3  1  0.38563148  0.70184330  0.67506877  1
  O  O4  1  0.88467564  0.70312461  0.32470409  1
  O  O5  1  0.38424883  0.79616650  0.17553037  1
  O  O6  1  0.11575117  0.20383350  0.17553037  1
  O  O7  1  0.61532436  0.29687539  0.32470409  1
  O  O8  1  0.54345421  0.30688164  0.54006840  1
  O  O9  1  0.03618403  0.19602736  0.96259428  1
  O  O10  1  0.46381597  0.80397264  0.96259428  1
  O  O11  1  0.95654579  0.69311836  0.54006840  1
  O  O12  1  0.45637750  0.69318413  0.45932641  1
  O  O13  1  0.96236738  0.80348861  0.03831676  1
  O  O14  1  0.53763262  0.19651139  0.03831676  1
  O  O15  1  0.04362250  0.30681587  0.45932641  1
loop_
_geom_bond_atom_site_label_1
_geom_bond_atom_site_label_2
_geom_bond_distance
_geom_bond_site_symmetry_2
O0 W2 1.798084 1_555
O0 Sr0 2.503744 1_455
O0 Sr1 2.594746 1_555
O1 Os0 1.827520 1_555
O1 Sr1 2.512845 1_555
O1 Sr0 2.557021 1_555
O2 Os0 1.827520 1_565
O2 Sr1 2.512845 1_655
O2 Sr0 2.557021 1_565
O3 W2 1.798084 1_555
O3 Sr0 2.503744 1_565
O3 Sr1 2.594746 1_555
O4 W0 1.800124 1_555
O4 Sr2 2.505038 1_665
O4 Sr3 2.599731 1_555
O5 W1 1.798113 1_565
O5 Sr3 2.502246 1_555
O5 Sr2 2.603667 1_565
O6 W1 1.798113 1_555
O6 Sr3 2.502246 1_455
O6 Sr2 2.603667 1_555
O7 W0 1.800124 1_555
O7 Sr2 2.505038 1_555
O7 Sr3 2.599731 1_555
O8 W2 1.904977 1_555
O8 W0 2.158207 1_555
O8 Sr0 2.467491 1_555
O9 Os0 1.888458 1_455
O9 W1 2.165152 1_556
O9 Sr1 2.490227 1_555
O10 Os0 1.888458 1_565
O10 W1 2.165152 1_566
O10 Sr1 2.490227 1_555
O11 W2 1.904977 1_655
O11 W0 2.158207 1_555
O11 Sr0 2.467491 1_565
O12 W0 1.904800 1_555
O12 W2 2.160770 1_555
O12 Sr2 2.452435 1_565
O13 W1 1.903711 1_665
O13 Os0 2.142828 1_564
O13 Sr3 2.474531 1_555
O14 W1 1.903711 1_555
O14 Os0 2.142828 1_554
O14 Sr3 2.474531 1_555
O15 W0 1.904800 1_455
O15 W2 2.160770 1_555
O15 Sr2 2.452435 1_555
