# generated using pymatgen
data_Cs2TiZn3P4
_symmetry_space_group_name_H-M   'P 1'
_cell_length_a   7.98013860
_cell_length_b   7.98013884
_cell_length_c   5.75207180
_cell_angle_alpha   90.00000000
_cell_angle_beta   90.00000000
_cell_angle_gamma   137.74558888
_symmetry_Int_Tables_number   1
_chemical_formula_structural   Cs2TiZn3P4
_chemical_formula_sum   'Cs2 Ti1 Zn3 P4'
_cell_volume   246.31352125
_cell_formula_units_Z   1
loop_
 _symmetry_equiv_pos_site_id
 _symmetry_equiv_pos_as_xyz
  1  'x, y, z'
loop_
 _atom_site_type_symbol
 _atom_site_label
 _atom_site_symmetry_multiplicity
 _atom_site_fract_x
 _atom_site_fract_y
 _atom_site_fract_z
 _atom_site_occupancy
  Cs  Cs0  1  0.50000000  0.00000000  0.25647888  1
  Cs  Cs1  1  0.00000000  0.50000000  0.74352112  1
  Ti  Ti0  1  0.00000000  0.00000000  0.00000000  1
  Zn  Zn0  1  0.50000000  0.50000000  0.50000000  1
  Zn  Zn1  1  0.50000000  0.50000000  0.00000000  1
  Zn  Zn2  1  0.00000000  0.00000000  0.50000000  1
  P  P0  1  0.66622739  0.84783479  0.75746098  1
  P  P1  1  0.15216521  0.33377261  0.24253902  1
  P  P2  1  0.84783479  0.66622739  0.24253902  1
  P  P3  1  0.33377261  0.15216521  0.75746098  1
loop_
_geom_bond_atom_site_label_1
_geom_bond_atom_site_label_2
_geom_bond_distance
_geom_bond_site_symmetry_2
Cs0 P1 3.696737 1_655
Cs0 P2 3.696737 1_445
Cs0 P3 3.722606 1_554
Cs0 P0 3.722606 1_544
Cs0 P3 3.731325 1_555
Cs0 P0 3.731325 1_545
Cs0 P2 3.759153 1_555
Cs0 P1 3.759153 1_545
Cs1 P3 3.696737 1_565
Cs1 P0 3.696737 1_445
Cs1 P2 3.722606 1_456
Cs1 P1 3.722606 1_556
Cs1 P2 3.731325 1_455
Cs1 P1 3.731325 1_555
Cs1 P3 3.759153 1_455
Cs1 P0 3.759153 1_555
P0 Ti0 2.393204 1_666
P0 Zn1 2.441334 1_556
P0 Zn2 2.444235 1_665
P0 Zn0 2.491379 1_555
P1 Ti0 2.393204 1_555
P1 Zn1 2.441334 1_555
P1 Zn2 2.444235 1_555
P1 Zn0 2.491379 1_555
P2 Ti0 2.393204 1_665
P2 Zn1 2.441334 1_555
P2 Zn2 2.444235 1_665
P2 Zn0 2.491379 1_555
P3 Ti0 2.393204 1_556
P3 Zn1 2.441334 1_556
P3 Zn2 2.444235 1_555
P3 Zn0 2.491379 1_555
