# generated using pymatgen
data_Hf4Zr(ReTc)12
_symmetry_space_group_name_H-M   'P 1'
_cell_length_a   8.40030675
_cell_length_b   8.40030663
_cell_length_c   8.40030682
_cell_angle_alpha   109.47121636
_cell_angle_beta   109.47121608
_cell_angle_gamma   109.47122547
_symmetry_Int_Tables_number   1
_chemical_formula_structural   Hf4Zr(ReTc)12
_chemical_formula_sum   'Hf4 Zr1 Re12 Tc12'
_cell_volume   456.31375897
_cell_formula_units_Z   1
loop_
 _symmetry_equiv_pos_site_id
 _symmetry_equiv_pos_as_xyz
  1  'x, y, z'
loop_
 _atom_site_type_symbol
 _atom_site_label
 _atom_site_symmetry_multiplicity
 _atom_site_fract_x
 _atom_site_fract_y
 _atom_site_fract_z
 _atom_site_occupancy
  Hf  Hf0  1  0.62479899  1.00000000  0.00000000  1
  Hf  Hf1  1  1.00000000  0.62479899  0.00000000  1
  Hf  Hf2  1  0.00000000  0.00000000  0.62479899  1
  Hf  Hf3  1  0.37520101  0.37520101  0.37520101  1
  Zr  Zr0  1  0.00000000  0.00000000  0.00000000  1
  Re  Re0  1  0.37661425  0.19448312  1.00000000  1
  Re  Re1  1  0.18213213  0.80551688  0.80551688  1
  Re  Re2  1  0.37661425  1.00000000  0.19448312  1
  Re  Re3  1  0.19448312  0.37661425  1.00000000  1
  Re  Re4  1  1.00000000  0.37661425  0.19448312  1
  Re  Re5  1  0.80551688  0.18213213  0.80551688  1
  Re  Re6  1  0.80551688  0.80551688  0.18213213  1
  Re  Re7  1  0.00000000  0.19448312  0.37661425  1
  Re  Re8  1  0.19448312  0.00000000  0.37661425  1
  Re  Re9  1  0.62338575  0.62338575  0.81786787  1
  Re  Re10  1  0.81786787  0.62338575  0.62338575  1
  Re  Re11  1  0.62338575  0.81786787  0.62338575  1
  Tc  Tc0  1  0.39695421  0.67654804  0.00000000  1
  Tc  Tc1  1  0.72040817  0.32345196  0.32345196  1
  Tc  Tc2  1  0.39695421  0.00000000  0.67654804  1
  Tc  Tc3  1  0.67654804  0.39695421  0.00000000  1
  Tc  Tc4  1  0.00000000  0.39695421  0.67654804  1
  Tc  Tc5  1  0.32345196  0.72040817  0.32345196  1
  Tc  Tc6  1  0.32345196  0.32345196  0.72040817  1
  Tc  Tc7  1  0.00000000  0.67654804  0.39695421  1
  Tc  Tc8  1  0.67654804  0.00000000  0.39695421  1
  Tc  Tc9  1  0.60304579  0.60304579  0.27959183  1
  Tc  Tc10  1  0.27959183  0.60304579  0.60304579  1
  Tc  Tc11  1  0.60304579  0.27959183  0.60304579  1
loop_
_geom_bond_atom_site_label_1
_geom_bond_atom_site_label_2
_geom_bond_distance
_geom_bond_site_symmetry_2
Hf0 Tc1 2.752978 1_565
Hf0 Tc0 2.752984 1_555
Hf0 Tc2 2.752984 1_564
Hf0 Re4 3.014257 1_565
Hf0 Re7 3.014257 1_665
Hf0 Re9 3.014258 1_554
Hf0 Re11 3.014258 1_554
Hf0 Re5 3.014261 1_564
Hf0 Re6 3.014261 1_555
Hf0 Re1 3.047323 1_554
Hf0 Re2 3.047330 1_555
Hf0 Re0 3.047330 1_564
Hf0 Zr0 3.151804 1_665
Hf0 Tc3 3.215858 1_565
Hf0 Tc8 3.215858 1_565
Hf0 Tc10 3.215862 1_554
Hf1 Tc5 2.752978 1_655
Hf1 Tc3 2.752984 1_555
Hf1 Tc4 2.752984 1_654
Hf1 Re2 3.014257 1_655
Hf1 Re8 3.014257 1_665
Hf1 Re9 3.014258 1_554
Hf1 Re10 3.014258 1_554
Hf1 Re1 3.014261 1_654
Hf1 Re6 3.014261 1_555
Hf1 Re5 3.047323 1_554
Hf1 Re4 3.047330 1_555
Hf1 Re3 3.047330 1_654
Hf1 Zr0 3.151804 1_665
Hf1 Tc0 3.215858 1_655
Hf1 Tc7 3.215858 1_655
Hf1 Tc11 3.215862 1_554
Hf2 Tc6 2.752978 1_555
Hf2 Tc7 2.752984 1_545
Hf2 Tc8 2.752984 1_455
Hf2 Re3 3.014257 1_555
Hf2 Re0 3.014257 1_555
Hf2 Re10 3.014258 1_445
Hf2 Re11 3.014258 1_445
Hf2 Re1 3.014261 1_545
Hf2 Re5 3.014261 1_455
Hf2 Re6 3.047323 1_445
Hf2 Re7 3.047330 1_555
Hf2 Re8 3.047330 1_555
Hf2 Zr0 3.151804 1_556
Hf2 Tc4 3.215858 1_555
Hf2 Tc2 3.215858 1_555
Hf2 Tc9 3.215862 1_445
Hf3 Tc9 2.752997 1_555
Hf3 Tc10 2.752997 1_555
Hf3 Tc11 2.752997 1_555
Hf3 Re8 3.014257 1_555
Hf3 Re7 3.014257 1_555
Hf3 Re2 3.014257 1_545
Hf3 Re4 3.014257 1_455
Hf3 Re0 3.014257 1_554
Hf3 Re3 3.014257 1_554
Hf3 Re11 3.047324 1_555
Hf3 Re10 3.047324 1_555
Hf3 Re9 3.047324 1_555
Hf3 Zr0 3.151804 1_555
Hf3 Tc6 3.215875 1_555
Hf3 Tc5 3.215875 1_555
Hf3 Tc1 3.215875 1_555
Re0 Re3 2.498410 1_555
Re0 Tc3 2.526657 1_556
Re0 Re2 2.667850 1_546
Re0 Re1 2.667850 1_545
Re0 Tc2 2.759913 1_555
Re0 Tc1 2.759923 1_556
Re0 Tc6 2.865127 1_555
Re0 Tc9 2.865139 1_556
Re0 Zr0 3.038449 1_556
Re1 Re10 2.498424 1_455
Re1 Tc10 2.526638 1_555
Re1 Re2 2.667850 1_556
Re1 Tc2 2.759907 1_565
Re1 Tc0 2.759908 1_556
Re1 Tc4 2.865142 1_555
Re1 Tc7 2.865143 1_555
Re1 Zr0 3.038456 1_566
Re2 Re8 2.498410 1_565
Re2 Tc8 2.526657 1_565
Re2 Tc0 2.759913 1_555
Re2 Tc1 2.759922 1_565
Re2 Tc5 2.865127 1_555
Re2 Tc11 2.865139 1_565
Re2 Zr0 3.038449 1_565
Re3 Tc0 2.526657 1_556
Re3 Re4 2.667850 1_456
Re3 Re5 2.667850 1_455
Re3 Tc4 2.759913 1_555
Re3 Tc5 2.759923 1_556
Re3 Tc6 2.865127 1_555
Re3 Tc9 2.865139 1_556
Re3 Zr0 3.038449 1_556
Re4 Re7 2.498410 1_655
Re4 Tc7 2.526657 1_655
Re4 Re5 2.667850 1_554
Re4 Tc3 2.759913 1_555
Re4 Tc5 2.759922 1_655
Re4 Tc1 2.865127 1_555
Re4 Tc10 2.865139 1_655
Re4 Zr0 3.038449 1_655
Re5 Tc11 2.526638 1_555
Re5 Tc4 2.759907 1_655
Re5 Tc3 2.759908 1_556
Re5 Tc2 2.865142 1_555
Re5 Tc8 2.865143 1_555
Re5 Zr0 3.038456 1_656
Re6 Re9 2.498424 1_554
Re6 Tc9 2.526638 1_555
Re6 Re7 2.667850 1_665
Re6 Re8 2.667850 1_665
Re6 Tc8 2.759908 1_565
Re6 Tc7 2.759908 1_655
Re6 Tc3 2.865142 1_555
Re6 Tc0 2.865143 1_555
Re6 Zr0 3.038456 1_665
Re7 Tc4 2.526657 1_555
Re7 Re8 2.667850 1_555
Re7 Tc8 2.759912 1_455
Re7 Tc6 2.759923 1_555
Re7 Tc1 2.865127 1_455
Re7 Tc10 2.865139 1_555
Re7 Zr0 3.038449 1_555
Re8 Tc2 2.526657 1_555
Re8 Tc7 2.759912 1_545
Re8 Tc6 2.759923 1_555
Re8 Tc5 2.865127 1_545
Re8 Tc11 2.865139 1_555
Re8 Zr0 3.038449 1_555
Re9 Tc6 2.526666 1_555
Re9 Tc11 2.759924 1_555
Re9 Tc10 2.759924 1_555
Re9 Tc3 2.865148 1_556
Re9 Tc0 2.865148 1_556
Re9 Zr0 3.038447 1_666
Re10 Tc1 2.526666 1_555
Re10 Re9 2.667836 1_555
Re10 Re11 2.667836 1_555
Re10 Tc11 2.759924 1_555
Re10 Tc9 2.759924 1_555
Re10 Tc7 2.865148 1_655
Re10 Tc4 2.865148 1_655
Re10 Zr0 3.038448 1_666
Re11 Re5 2.498424 1_565
Re11 Tc5 2.526666 1_555
Re11 Re9 2.667836 1_555
Re11 Tc10 2.759924 1_555
Re11 Tc9 2.759924 1_555
Re11 Tc8 2.865148 1_565
Re11 Tc2 2.865148 1_565
Re11 Zr0 3.038448 1_666
Tc0 Tc9 2.804153 1_555
Tc0 Tc6 2.804158 1_554
Tc0 Tc5 2.915869 1_555
Tc0 Tc10 2.915869 1_554
Tc0 Tc4 2.915871 1_554
Tc0 Tc8 2.915871 1_565
Tc1 Tc7 2.804157 1_655
Tc1 Tc4 2.804158 1_655
Tc1 Tc8 2.915869 1_555
Tc1 Tc3 2.915869 1_555
Tc1 Tc11 2.915885 1_555
Tc1 Tc9 2.915885 1_555
Tc2 Tc5 2.804158 1_545
Tc2 Tc6 2.915869 1_555
Tc2 Tc7 2.915871 1_545
Tc2 Tc3 2.915871 1_556
Tc3 Tc9 2.804153 1_555
Tc3 Tc6 2.804158 1_554
Tc3 Tc7 2.915871 1_655
Tc4 Tc6 2.915869 1_555
Tc4 Tc8 2.915871 1_455
Tc5 Tc8 2.804157 1_565
Tc5 Tc7 2.915869 1_555
Tc5 Tc9 2.915885 1_555
Tc7 Tc9 2.915869 1_455
Tc8 Tc9 2.915869 1_545
Tc10 Tc4 2.804152 1_555
Tc10 Tc7 2.804153 1_555
Tc10 Tc2 2.915869 1_565
Tc10 Tc5 2.915885 1_555
Tc10 Tc6 2.915885 1_555
Tc11 Tc2 2.804152 1_555
Tc11 Tc8 2.804153 1_555
Tc11 Tc4 2.915869 1_655
Tc11 Tc3 2.915869 1_556
Tc11 Tc6 2.915885 1_555
