# generated using pymatgen
data_HfZrBr2
_symmetry_space_group_name_H-M   'P 1'
_cell_length_a   3.49425701
_cell_length_b   3.49425681
_cell_length_c   10.06252886
_cell_angle_alpha   76.78807009
_cell_angle_beta   76.78807061
_cell_angle_gamma   60.46336436
_symmetry_Int_Tables_number   1
_chemical_formula_structural   HfZrBr2
_chemical_formula_sum   'Hf1 Zr1 Br2'
_cell_volume   103.08686177
_cell_formula_units_Z   1
loop_
 _symmetry_equiv_pos_site_id
 _symmetry_equiv_pos_as_xyz
  1  'x, y, z'
loop_
 _atom_site_type_symbol
 _atom_site_label
 _atom_site_symmetry_multiplicity
 _atom_site_fract_x
 _atom_site_fract_y
 _atom_site_fract_z
 _atom_site_occupancy
  Hf  Hf0  1  0.28032086  0.28032086  0.61811637  1
  Zr  Zr0  1  0.71868964  0.71868964  0.38270215  1
  Br  Br0  1  0.86059957  0.86059957  0.81169072  1
  Br  Br1  1  0.14038993  0.14038993  0.18749176  1
loop_
_geom_bond_atom_site_label_1
_geom_bond_atom_site_label_2
_geom_bond_distance
_geom_bond_site_symmetry_2
Br0 Hf0 2.757736 1_665
Br0 Hf0 2.761143 1_655
Br0 Hf0 2.761143 1_565
Br1 Zr0 2.769238 1_455
Br1 Zr0 2.769238 1_545
Br1 Zr0 2.774118 1_445
