# generated using pymatgen
data_Ca6ReSbO12
_symmetry_space_group_name_H-M   'P 1'
_cell_length_a   5.85041577
_cell_length_b   5.56938190
_cell_length_c   9.75439483
_cell_angle_alpha   55.33254380
_cell_angle_beta   89.71236277
_cell_angle_gamma   89.92623934
_symmetry_Int_Tables_number   1
_chemical_formula_structural   Ca6ReSbO12
_chemical_formula_sum   'Ca6 Re1 Sb1 O12'
_cell_volume   261.40050133
_cell_formula_units_Z   1
loop_
 _symmetry_equiv_pos_site_id
 _symmetry_equiv_pos_as_xyz
  1  'x, y, z'
loop_
 _atom_site_type_symbol
 _atom_site_label
 _atom_site_symmetry_multiplicity
 _atom_site_fract_x
 _atom_site_fract_y
 _atom_site_fract_z
 _atom_site_occupancy
  Ca  Ca0  1  0.56076494  0.23904058  0.24203181  1
  Ca  Ca1  1  0.05560847  0.78140938  0.23137211  1
  Ca  Ca2  1  0.50000000  0.00000000  0.00000000  1
  Ca  Ca3  1  0.00000000  0.00000000  0.50000000  1
  Ca  Ca4  1  0.94439153  0.21859062  0.76862789  1
  Ca  Ca5  1  0.43923506  0.76095942  0.75796819  1
  Re  Re0  1  0.50000000  0.50000000  0.50000000  1
  Sb  Sb0  1  0.00000000  0.50000000  0.00000000  1
  O  O0  1  0.55043269  0.39246572  0.71950811  1
  O  O1  1  0.05811844  0.61454444  0.76765705  1
  O  O2  1  0.44956731  0.60753428  0.28049189  1
  O  O3  1  0.94188156  0.38545556  0.23234295  1
  O  O4  1  0.77164874  0.72796555  0.43109183  1
  O  O5  1  0.28021739  0.25145042  0.07250669  1
  O  O6  1  0.22835126  0.27203445  0.56890817  1
  O  O7  1  0.71978261  0.74854958  0.92749331  1
  O  O8  1  0.18413495  0.83953412  0.94840558  1
  O  O9  1  0.66837912  0.17097217  0.54935209  1
  O  O10  1  0.81586505  0.16046588  0.05159442  1
  O  O11  1  0.33162088  0.82902783  0.45064791  1
loop_
_geom_bond_atom_site_label_1
_geom_bond_atom_site_label_2
_geom_bond_distance
_geom_bond_site_symmetry_2
Ca0 O5 2.308699 1_555
Ca0 O3 2.358027 1_555
Ca0 O2 2.376093 1_555
Ca0 O11 2.418003 1_545
Ca0 O10 2.600930 1_555
Ca0 O4 2.658410 1_545
Ca0 O9 2.872619 1_555
Ca0 O7 2.899110 1_554
Ca1 O3 2.299070 1_455
Ca1 O10 2.303203 1_465
Ca1 O4 2.439843 1_455
Ca1 O2 2.440704 1_555
Ca1 O5 2.520834 1_565
Ca1 O8 2.692958 1_554
Ca1 O11 2.816713 1_555
Ca1 O6 3.051201 1_555
Ca2 O10 2.234307 1_555
Ca2 O8 2.234307 1_544
Ca2 O5 2.286425 1_555
Ca2 O7 2.286425 1_544
Ca2 O2 2.353871 1_545
Ca2 O0 2.353871 1_554
Ca3 O1 2.274085 1_545
Ca3 O3 2.274085 1_455
Ca3 O9 2.325911 1_455
Ca3 O11 2.325911 1_545
Ca3 O6 2.388455 1_555
Ca3 O4 2.388455 1_445
Ca4 O1 2.299070 1_655
Ca4 O8 2.303203 1_645
Ca4 O6 2.439843 1_655
Ca4 O0 2.440704 1_555
Ca4 O7 2.520834 1_545
Ca4 O10 2.692958 1_556
Ca4 O9 2.816713 1_555
Ca4 O4 3.051201 1_555
Ca5 O7 2.308699 1_555
Ca5 O1 2.358027 1_555
Ca5 O0 2.376093 1_555
Ca5 O9 2.418003 1_565
Ca5 O8 2.600930 1_555
Ca5 O6 2.658410 1_565
Ca5 O11 2.872619 1_555
Ca5 O5 2.899110 1_556
O0 Re0 1.891402 1_555
O1 Sb0 2.001755 1_556
O2 Re0 1.891402 1_555
O3 Sb0 2.001755 1_655
O4 Re0 1.900822 1_555
O5 Sb0 1.999007 1_555
O6 Re0 1.900822 1_555
O7 Sb0 1.999007 1_656
O8 Sb0 1.976560 1_556
O9 Re0 1.885917 1_555
O10 Sb0 1.976560 1_655
O11 Re0 1.885917 1_555
