# generated using pymatgen
data_Y16Cd4Ni3Ru
_symmetry_space_group_name_H-M   'P 1'
_cell_length_a   9.61286267
_cell_length_b   9.55487285
_cell_length_c   9.55487320
_cell_angle_alpha   59.99999878
_cell_angle_beta   60.19935323
_cell_angle_gamma   60.19935297
_symmetry_Int_Tables_number   1
_chemical_formula_structural   Y16Cd4Ni3Ru
_chemical_formula_sum   'Y16 Cd4 Ni3 Ru1'
_cell_volume   622.42875916
_cell_formula_units_Z   1
loop_
 _symmetry_equiv_pos_site_id
 _symmetry_equiv_pos_as_xyz
  1  'x, y, z'
loop_
 _atom_site_type_symbol
 _atom_site_label
 _atom_site_symmetry_multiplicity
 _atom_site_fract_x
 _atom_site_fract_y
 _atom_site_fract_z
 _atom_site_occupancy
  Y  Y0  1  0.43626788  0.43681343  0.06345984  1
  Y  Y1  1  0.06430422  0.05903075  0.43833301  1
  Y  Y2  1  0.43626788  0.06345984  0.06345984  1
  Y  Y3  1  0.84577859  0.84921940  0.84921940  1
  Y  Y4  1  0.69146874  0.31011262  0.31011262  1
  Y  Y5  1  0.06430422  0.43833301  0.43833301  1
  Y  Y6  1  0.31243339  0.68845276  0.68845276  1
  Y  Y7  1  0.31243339  0.31066209  0.68845276  1
  Y  Y8  1  0.84577859  0.84921940  0.45578361  1
  Y  Y9  1  0.69146874  0.68830502  0.31011262  1
  Y  Y10  1  0.45105237  0.84964954  0.84964954  1
  Y  Y11  1  0.06430422  0.43833301  0.05903075  1
  Y  Y12  1  0.84577859  0.45578361  0.84921940  1
  Y  Y13  1  0.43626788  0.06345984  0.43681343  1
  Y  Y14  1  0.31243339  0.68845276  0.31066209  1
  Y  Y15  1  0.69146874  0.31011262  0.68830502  1
  Cd  Cd0  1  0.08094048  0.75926253  0.07989899  1
  Cd  Cd1  1  0.08094048  0.07989899  0.75926253  1
  Cd  Cd2  1  0.76036347  0.07987918  0.07987918  1
  Cd  Cd3  1  0.08094048  0.07989899  0.07989899  1
  Ni  Ni0  1  0.64027911  0.07402405  0.64284792  1
  Ni  Ni1  1  0.64027911  0.64284792  0.64284792  1
  Ni  Ni2  1  0.64027911  0.64284792  0.07402405  1
  Ru  Ru0  1  0.07416789  0.64194370  0.64194370  1
loop_
_geom_bond_atom_site_label_1
_geom_bond_atom_site_label_2
_geom_bond_distance
_geom_bond_site_symmetry_2
Y0 Y10 3.458859 1_554
Y0 Y12 3.471065 1_554
Y0 Y13 3.567346 1_555
Y0 Y2 3.567346 1_555
Y0 Y14 3.580019 1_555
Y0 Y6 3.580019 1_554
Y0 Y5 3.589618 1_555
Y0 Y11 3.589618 1_555
Y0 Y4 3.602730 1_555
Y0 Y15 3.602746 1_554
Y1 Y8 3.458740 1_445
Y1 Y3 3.458740 1_445
Y1 Y6 3.570347 1_545
Y1 Y14 3.570347 1_545
Y1 Y13 3.589618 1_555
Y1 Y2 3.589618 1_555
Y1 Y15 3.602828 1_455
Y1 Y4 3.602838 1_455
Y1 Y5 3.624185 1_555
Y1 Y11 3.624185 1_555
Y2 Y3 3.471065 1_544
Y2 Y7 3.580019 1_554
Y2 Y9 3.602736 1_545
Y5 Y8 3.458740 1_455
Y5 Y7 3.570347 1_555
Y5 Y9 3.602838 1_455
Y10 Y2 3.458859 1_566
Y10 Y13 3.458859 1_565
Y11 Y3 3.458740 1_454
Y11 Y12 3.458740 1_454
Y11 Y6 3.570347 1_554
Y11 Y7 3.570347 1_554
Y11 Y2 3.589618 1_555
Y11 Y9 3.602828 1_455
Y11 Y4 3.602838 1_455
Y11 Y5 3.624185 1_555
Y12 Y5 3.458740 1_655
Y13 Y8 3.471065 1_545
Y13 Y2 3.567346 1_555
Y13 Y6 3.580018 1_545
Y13 Y7 3.580019 1_555
Y13 Y5 3.589618 1_555
Y13 Y4 3.602730 1_555
Y13 Y9 3.602746 1_545
Y14 Y5 3.570347 1_555
Y14 Y2 3.580018 1_565
Y15 Y2 3.602736 1_556
Y15 Y5 3.602838 1_655
Cd0 Cd3 3.063641 1_565
Cd0 Cd1 3.063641 1_564
Cd0 Cd2 3.081851 1_465
Cd0 Y11 3.255603 1_555
Cd0 Y5 3.255603 1_555
Cd0 Y0 3.267193 1_555
Cd0 Y10 3.408545 1_554
Cd0 Y3 3.440035 1_454
Cd0 Y8 3.440035 1_455
Cd0 Y6 3.487134 1_554
Cd0 Y14 3.487134 1_555
Cd0 Y9 3.487296 1_455
Cd1 Cd3 3.063641 1_556
Cd1 Cd2 3.081851 1_456
Cd1 Y5 3.255603 1_555
Cd1 Y1 3.255603 1_555
Cd1 Y13 3.267193 1_555
Cd1 Y10 3.408545 1_545
Cd1 Y12 3.440035 1_455
Cd1 Y3 3.440035 1_445
Cd1 Y6 3.487134 1_545
Cd1 Y7 3.487134 1_555
Cd1 Y15 3.487296 1_455
Cd2 Cd3 3.081851 1_655
Cd2 Y0 3.278985 1_555
Cd2 Y13 3.278985 1_555
Cd2 Y2 3.278985 1_555
Cd2 Y12 3.413012 1_554
Cd2 Y8 3.413012 1_545
Cd2 Y3 3.413012 1_544
Cd2 Y4 3.472810 1_555
Cd2 Y9 3.472826 1_545
Cd2 Y15 3.472826 1_554
Cd3 Y11 3.255603 1_555
Cd3 Y1 3.255603 1_555
Cd3 Y2 3.267193 1_555
Cd3 Y10 3.408545 1_544
Cd3 Y12 3.440035 1_454
Cd3 Y8 3.440035 1_445
Cd3 Y14 3.487134 1_545
Cd3 Y7 3.487134 1_554
Cd3 Y4 3.487288 1_455
Ni0 Y7 2.787805 1_555
Ni0 Y4 2.795524 1_555
Ni0 Y15 2.795524 1_555
Ni0 Y8 2.796959 1_545
Ni0 Y3 2.796972 1_545
Ni0 Y10 2.806561 1_545
Ni0 Y13 3.459000 1_555
Ni0 Y2 3.459016 1_556
Ni0 Y1 3.498008 1_655
Ni1 Y6 2.787799 1_555
Ni1 Y15 2.795524 1_555
Ni1 Y9 2.795524 1_555
Ni1 Y8 2.796973 1_555
Ni1 Y12 2.796973 1_555
Ni1 Y10 2.806575 1_555
Ni1 Y13 3.459011 1_565
Ni1 Y0 3.459011 1_556
Ni1 Y5 3.498003 1_655
Ni2 Y14 2.787805 1_555
Ni2 Y4 2.795524 1_555
Ni2 Y9 2.795524 1_555
Ni2 Y12 2.796959 1_554
Ni2 Y3 2.796972 1_554
Ni2 Y10 2.806561 1_554
Ni2 Y0 3.459000 1_555
Ni2 Y2 3.459016 1_565
Ni2 Y11 3.498008 1_655
Ru0 Y7 2.803882 1_555
Ru0 Y14 2.803882 1_555
Ru0 Y6 2.803894 1_555
Ru0 Y12 2.818388 1_455
Ru0 Y8 2.818388 1_455
Ru0 Y3 2.818401 1_455
Ru0 Y5 3.424954 1_555
Ru0 Y1 3.424970 1_565
Ru0 Y11 3.424970 1_556
