# generated using pymatgen
data_Nb3Co2MoN
_symmetry_space_group_name_H-M   'P 1'
_cell_length_a   8.15210749
_cell_length_b   8.15210713
_cell_length_c   8.15210749
_cell_angle_alpha   119.99999741
_cell_angle_beta   90.00000000
_cell_angle_gamma   119.99999741
_symmetry_Int_Tables_number   1
_chemical_formula_structural   Nb3Co2MoN
_chemical_formula_sum   'Nb12 Co8 Mo4 N4'
_cell_volume   383.08461371
_cell_formula_units_Z   4
loop_
 _symmetry_equiv_pos_site_id
 _symmetry_equiv_pos_as_xyz
  1  'x, y, z'
loop_
 _atom_site_type_symbol
 _atom_site_label
 _atom_site_symmetry_multiplicity
 _atom_site_fract_x
 _atom_site_fract_y
 _atom_site_fract_z
 _atom_site_occupancy
  Nb  Nb0  1  0.81506984  0.13013868  0.06506984  1
  Nb  Nb1  1  0.43493116  0.75000000  0.06506984  1
  Nb  Nb2  1  0.81506984  0.75000000  0.06506984  1
  Nb  Nb3  1  0.18493016  0.25000000  0.31506984  1
  Nb  Nb4  1  0.56506984  0.25000000  0.31506984  1
  Nb  Nb5  1  0.56506984  0.63013968  0.31506984  1
  Nb  Nb6  1  0.43493116  0.36986132  0.68493116  1
  Nb  Nb7  1  0.43493116  0.75000000  0.68493116  1
  Nb  Nb8  1  0.81506984  0.75000000  0.68493116  1
  Nb  Nb9  1  0.18493016  0.25000000  0.93493116  1
  Nb  Nb10  1  0.56506984  0.25000000  0.93493116  1
  Nb  Nb11  1  0.18493016  0.86986132  0.93493116  1
  Co  Co0  1  0.20353191  0.90706481  0.29646609  1
  Co  Co1  1  0.20353291  0.59293419  0.29646709  1
  Co  Co2  1  0.88940128  0.59293419  0.29646709  1
  Co  Co3  1  0.79646709  0.09293419  0.38940128  1
  Co  Co4  1  0.20353191  0.90706481  0.61059872  1
  Co  Co5  1  0.79646609  0.09293419  0.70353291  1
  Co  Co6  1  0.11059872  0.40706581  0.70353391  1
  Co  Co7  1  0.79646709  0.40706581  0.70353391  1
  Mo  Mo0  1  0.00000000  0.50000000  0.00000000  1
  Mo  Mo1  1  0.00000000  0.00000000  0.50000000  1
  Mo  Mo2  1  0.50000000  0.00000000  0.50000000  1
  Mo  Mo3  1  0.00000000  0.50000000  0.50000000  1
  N  N0  1  0.00000000  0.00000000  0.00000000  1
  N  N1  1  0.50000000  0.00000000  0.00000000  1
  N  N2  1  0.50000000  0.50000000  0.00000000  1
  N  N3  1  0.50000000  0.50000000  0.50000000  1
loop_
_geom_bond_atom_site_label_1
_geom_bond_atom_site_label_2
_geom_bond_distance
_geom_bond_site_symmetry_2
Co0 Mo0 2.465761 1_555
Co0 Mo1 2.465767 1_565
Co0 Mo2 2.465774 1_565
Co0 Co2 2.560831 1_455
Co0 Co1 2.560835 1_555
Co0 Co4 2.560843 1_555
Co0 Nb11 2.803842 1_554
Co0 Nb3 2.803851 1_565
Co0 Nb4 2.803855 1_565
Co0 Nb2 2.959096 1_455
Co0 Nb1 2.959110 1_555
Co0 Nb6 2.959117 1_565
Co1 Mo3 2.465767 1_555
Co1 Mo0 2.465767 1_555
Co1 Mo2 2.465767 1_565
Co1 Co2 2.560835 1_455
Co1 Co4 2.560835 1_555
Co1 Nb9 2.803846 1_554
Co1 Nb3 2.803851 1_555
Co1 Nb5 2.803851 1_555
Co1 Nb1 2.959107 1_555
Co1 Nb0 2.959107 1_455
Co1 Nb7 2.959114 1_555
Co2 Mo3 2.465767 1_655
Co2 Mo1 2.465767 1_665
Co2 Mo0 2.465767 1_655
Co2 Co4 2.560831 1_655
Co2 Nb10 2.803846 1_554
Co2 Nb5 2.803851 1_555
Co2 Nb4 2.803851 1_555
Co2 Nb2 2.959103 1_555
Co2 Nb0 2.959110 1_555
Co2 Nb8 2.959110 1_555
Co3 Mo1 2.465767 1_655
Co3 Mo3 2.465767 1_655
Co3 Mo2 2.465767 1_555
Co3 Co5 2.560835 1_555
Co3 Co7 2.560839 1_555
Co3 Co6 2.560839 1_655
Co3 Nb0 2.803846 1_555
Co3 Nb1 2.803846 1_545
Co3 Nb2 2.803851 1_545
Co3 Nb4 2.959103 1_555
Co3 Nb5 2.959103 1_545
Co3 Nb3 2.959103 1_655
Co4 Mo3 2.465761 1_555
Co4 Mo1 2.465767 1_565
Co4 Mo2 2.465774 1_565
Co4 Nb11 2.803850 1_555
Co4 Nb9 2.803854 1_565
Co4 Nb10 2.803859 1_565
Co4 Nb8 2.959100 1_455
Co4 Nb7 2.959114 1_555
Co4 Nb6 2.959114 1_565
Co5 Mo2 2.465761 1_555
Co5 Mo0 2.465767 1_656
Co5 Mo1 2.465774 1_655
Co5 Co7 2.560827 1_555
Co5 Co6 2.560835 1_655
Co5 Nb7 2.803845 1_545
Co5 Nb0 2.803854 1_556
Co5 Nb8 2.803859 1_545
Co5 Nb10 2.959100 1_555
Co5 Nb5 2.959103 1_545
Co5 Nb9 2.959114 1_655
Co6 Mo0 2.465761 1_556
Co6 Mo1 2.465767 1_555
Co6 Mo3 2.465774 1_555
Co6 Co7 2.560835 1_455
Co6 Nb1 2.803850 1_556
Co6 Nb6 2.803854 1_555
Co6 Nb7 2.803854 1_555
Co6 Nb9 2.959103 1_555
Co6 Nb11 2.959110 1_555
Co6 Nb3 2.959110 1_555
Co7 Mo0 2.465761 1_656
Co7 Mo2 2.465767 1_555
Co7 Mo3 2.465774 1_655
Co7 Nb6 2.803846 1_555
Co7 Nb2 2.803846 1_556
Co7 Nb8 2.803851 1_555
Co7 Nb10 2.959103 1_555
Co7 Nb11 2.959107 1_655
Co7 Nb4 2.959110 1_555
Mo0 Nb2 2.949422 1_455
Mo0 Nb9 2.949423 1_554
Mo0 Nb11 2.949423 1_554
Mo0 Nb10 2.949424 1_454
Mo0 Nb0 2.949429 1_455
Mo0 Nb1 2.949429 1_555
Mo1 Nb3 2.949422 1_555
Mo1 Nb2 2.949422 1_445
Mo1 Nb5 2.949422 1_445
Mo1 Nb8 2.949429 1_445
Mo1 Nb9 2.949429 1_555
Mo1 Nb6 2.949429 1_555
Mo2 Nb4 2.949422 1_555
Mo2 Nb5 2.949422 1_545
Mo2 Nb6 2.949423 1_555
Mo2 Nb1 2.949424 1_545
Mo2 Nb10 2.949429 1_555
Mo2 Nb7 2.949430 1_545
Mo3 Nb3 2.949422 1_555
Mo3 Nb4 2.949422 1_455
Mo3 Nb8 2.949423 1_455
Mo3 Nb0 2.949424 1_455
Mo3 Nb11 2.949429 1_555
Mo3 Nb7 2.949431 1_555
N0 Nb11 2.171703 1_544
N0 Nb0 2.171703 1_455
N0 Nb9 2.171703 1_554
N0 Nb8 2.171704 1_444
N0 Nb2 2.171709 1_445
N0 Nb3 2.171709 1_555
N1 Nb10 2.171703 1_554
N1 Nb7 2.171705 1_544
N1 Nb4 2.171709 1_555
N1 Nb1 2.171711 1_545
N1 Nb11 2.171711 1_544
N1 Nb0 2.171711 1_555
N2 Nb1 2.171703 1_555
N2 Nb6 2.171704 1_554
N2 Nb5 2.171709 1_555
N2 Nb2 2.171709 1_555
N2 Nb10 2.171711 1_554
N2 Nb9 2.171711 1_554
N3 Nb7 2.171705 1_555
N3 Nb5 2.171709 1_555
N3 Nb4 2.171709 1_555
N3 Nb3 2.171709 1_555
N3 Nb6 2.171711 1_555
N3 Nb8 2.171711 1_555
