# generated using pymatgen
data_Mn4InPd9Au2
_symmetry_space_group_name_H-M   'P 1'
_cell_length_a   6.86574661
_cell_length_b   6.86574656
_cell_length_c   6.86574739
_cell_angle_alpha   107.53921271
_cell_angle_beta   107.53921257
_cell_angle_gamma   113.40844352
_symmetry_Int_Tables_number   1
_chemical_formula_structural   Mn4InPd9Au2
_chemical_formula_sum   'Mn4 In1 Pd9 Au2'
_cell_volume   248.25010726
_cell_formula_units_Z   1
loop_
 _symmetry_equiv_pos_site_id
 _symmetry_equiv_pos_as_xyz
  1  'x, y, z'
loop_
 _atom_site_type_symbol
 _atom_site_label
 _atom_site_symmetry_multiplicity
 _atom_site_fract_x
 _atom_site_fract_y
 _atom_site_fract_z
 _atom_site_occupancy
  Mn  Mn0  1  0.23818246  0.23818246  0.47636492  1
  Mn  Mn1  1  0.76181754  0.76181754  0.52363508  1
  Mn  Mn2  1  0.23818246  0.76181754  0.00000000  1
  Mn  Mn3  1  0.76181754  0.23818246  1.00000000  1
  In  In0  1  0.50000000  0.50000000  0.00000000  1
  Pd  Pd0  1  0.50446386  0.25552256  0.24894030  1
  Pd  Pd1  1  0.49553614  0.74447744  0.75105970  1
  Pd  Pd2  1  0.00658226  0.25552256  0.75105970  1
  Pd  Pd3  1  0.25552256  0.00658226  0.75105970  1
  Pd  Pd4  1  0.99341774  0.74447744  0.24894030  1
  Pd  Pd5  1  0.74447744  0.99341774  0.24894030  1
  Pd  Pd6  1  0.25552256  0.50446386  0.24894030  1
  Pd  Pd7  1  0.74447744  0.49553614  0.75105970  1
  Pd  Pd8  1  0.00000000  0.00000000  0.00000000  1
  Au  Au0  1  0.50000000  0.00000000  0.50000000  1
  Au  Au1  1  0.00000000  0.50000000  0.50000000  1
loop_
_geom_bond_atom_site_label_1
_geom_bond_atom_site_label_2
_geom_bond_distance
_geom_bond_site_symmetry_2
Mn0 Pd4 2.730252 1_445
Mn0 Pd5 2.730252 1_445
Mn0 Pd6 2.730258 1_555
Mn0 Pd0 2.730258 1_555
Mn0 Pd8 2.733725 1_555
Mn0 Pd3 2.814630 1_555
Mn0 Pd2 2.814630 1_555
Mn0 Pd1 2.814631 1_555
Mn0 Pd7 2.814631 1_555
Mn1 Pd2 2.730252 1_665
Mn1 Pd3 2.730252 1_665
Mn1 Pd7 2.730258 1_555
Mn1 Pd1 2.730258 1_555
Mn1 Pd8 2.733725 1_666
Mn1 Pd5 2.814630 1_555
Mn1 Pd4 2.814630 1_555
Mn1 Pd0 2.814631 1_555
Mn1 Pd6 2.814631 1_555
Mn2 Pd0 2.730252 1_565
Mn2 Pd7 2.730252 1_454
Mn2 Pd3 2.730252 1_564
Mn2 Pd4 2.730252 1_455
Mn2 Pd8 2.733725 1_565
Mn2 Pd6 2.814625 1_555
Mn2 Pd1 2.814625 1_554
Mn2 Pd2 2.814630 1_554
Mn2 Pd5 2.814630 1_555
Mn3 Pd1 2.730252 1_545
Mn3 Pd6 2.730252 1_656
Mn3 Pd5 2.730252 1_546
Mn3 Pd2 2.730252 1_655
Mn3 Pd8 2.733725 1_656
Mn3 Pd7 2.814625 1_555
Mn3 Pd0 2.814625 1_556
Mn3 Pd4 2.814630 1_556
Mn3 Pd3 2.814630 1_555
In0 Pd3 2.734595 1_554
In0 Pd5 2.734595 1_555
In0 Pd2 2.734595 1_554
In0 Pd4 2.734595 1_555
In0 Pd0 2.734596 1_555
In0 Pd1 2.734596 1_554
In0 Pd6 2.734596 1_555
In0 Pd7 2.734596 1_554
In0 Mn2 3.004995 1_555
In0 Mn3 3.004995 1_554
In0 Mn1 3.004995 1_555
In0 Mn0 3.004995 1_554
Pd0 Pd8 2.791388 1_555
Pd0 Pd3 2.857197 1_554
Pd0 Pd6 2.857208 1_555
Pd0 Pd5 2.882719 1_545
Pd0 Pd7 2.882725 1_555
Pd1 Pd8 2.791388 1_666
Pd1 Pd5 2.857197 1_556
Pd1 Pd7 2.857208 1_555
Pd1 Pd3 2.882719 1_565
Pd1 Pd6 2.882725 1_555
Pd2 Pd8 2.791383 1_556
Pd2 Pd3 2.857197 1_555
Pd2 Pd6 2.857197 1_556
Pd2 Pd7 2.882719 1_455
Pd2 Pd5 2.882725 1_445
Pd3 Pd8 2.791383 1_556
Pd3 Pd4 2.882725 1_445
Pd4 Pd8 2.791383 1_665
Pd4 Pd5 2.857197 1_555
Pd4 Pd7 2.857197 1_554
Pd4 Pd6 2.882719 1_655
Pd5 Pd8 2.791383 1_665
Pd6 Pd8 2.791388 1_555
Pd7 Pd8 2.791388 1_666
Au0 Pd7 2.747322 1_555
Au0 Pd6 2.747322 1_545
Au0 Pd5 2.747328 1_545
Au0 Pd3 2.747328 1_555
Au0 Pd1 2.803857 1_545
Au0 Pd0 2.803857 1_555
Au0 Pd4 2.803857 1_445
Au0 Pd2 2.803857 1_655
Au0 Mn0 2.872564 1_555
Au0 Mn1 2.872564 1_545
Au0 Mn3 2.872564 1_555
Au0 Mn2 2.872564 1_545
Au1 Pd1 2.747322 1_555
Au1 Pd0 2.747322 1_455
Au1 Pd4 2.747328 1_455
Au1 Pd2 2.747328 1_555
Au1 Pd7 2.803857 1_455
Au1 Pd6 2.803857 1_555
Au1 Pd5 2.803857 1_445
Au1 Pd3 2.803857 1_565
Au1 Mn1 2.872564 1_455
Au1 Mn0 2.872564 1_555
Au1 Mn2 2.872564 1_556
Au1 Mn3 2.872564 1_454
