# generated using pymatgen
data_Rb4As4PdPt
_symmetry_space_group_name_H-M   'P 1'
_cell_length_a   8.10156518
_cell_length_b   8.10156487
_cell_length_c   6.23486508
_cell_angle_alpha   89.77866049
_cell_angle_beta   90.22133903
_cell_angle_gamma   130.96669000
_symmetry_Int_Tables_number   1
_chemical_formula_structural   Rb4As4PdPt
_chemical_formula_sum   'Rb4 As4 Pd1 Pt1'
_cell_volume   309.00122833
_cell_formula_units_Z   1
loop_
 _symmetry_equiv_pos_site_id
 _symmetry_equiv_pos_as_xyz
  1  'x, y, z'
loop_
 _atom_site_type_symbol
 _atom_site_label
 _atom_site_symmetry_multiplicity
 _atom_site_fract_x
 _atom_site_fract_y
 _atom_site_fract_z
 _atom_site_occupancy
  Rb  Rb0  1  0.79390786  0.20609214  0.24971722  1
  Rb  Rb1  1  0.20609214  0.79390786  0.75028278  1
  Rb  Rb2  1  0.41726814  0.58273186  0.24716478  1
  Rb  Rb3  1  0.58273186  0.41726814  0.75283522  1
  As  As0  1  0.92666396  0.71462540  0.24999722  1
  As  As1  1  0.07333604  0.28537460  0.75000278  1
  As  As2  1  0.28537460  0.07333604  0.24999722  1
  As  As3  1  0.71462540  0.92666396  0.75000278  1
  Pd  Pd0  1  0.00000000  0.00000000  0.50000000  1
  Pt  Pt0  1  0.00000000  0.00000000  0.00000000  1
loop_
_geom_bond_atom_site_label_1
_geom_bond_atom_site_label_2
_geom_bond_distance
_geom_bond_site_symmetry_2
As0 As2 2.411832 1_665
As0 Pt0 2.511164 1_665
As0 Pd0 2.519411 1_665
As0 Rb0 3.510025 1_555
As0 Rb2 3.520047 1_555
As0 Rb1 3.649816 1_655
As0 Rb1 3.657467 1_654
As0 Rb3 3.790128 1_554
As0 Rb3 3.821504 1_555
As1 As3 2.411832 1_445
As1 Pt0 2.511164 1_556
As1 Pd0 2.519411 1_555
As1 Rb1 3.510025 1_555
As1 Rb3 3.520047 1_555
As1 Rb0 3.649816 1_455
As1 Rb0 3.657467 1_456
As1 Rb2 3.790128 1_556
As1 Rb2 3.821504 1_555
As2 Pt0 2.511164 1_555
As2 Pd0 2.519411 1_555
As2 Rb0 3.510025 1_555
As2 Rb2 3.520047 1_555
As2 Rb1 3.649816 1_545
As2 Rb1 3.657467 1_544
As2 Rb3 3.790128 1_554
As2 Rb3 3.821504 1_555
As3 Pt0 2.511164 1_666
As3 Pd0 2.519411 1_665
As3 Rb1 3.510025 1_555
As3 Rb3 3.520047 1_555
As3 Rb0 3.649816 1_565
As3 Rb0 3.657467 1_566
As3 Rb2 3.790128 1_556
As3 Rb2 3.821504 1_555
Pd0 Pt0 3.117433 1_555
Pd0 Pt0 3.117433 1_556
Pd0 Rb1 3.409676 1_545
Pd0 Rb0 3.409676 1_455
Pd0 Rb2 3.906148 1_555
Pd0 Rb3 3.906148 1_445
Pd0 Rb3 3.906148 1_555
Pd0 Rb2 3.906148 1_445
Pt0 Rb0 3.419844 1_455
Pt0 Rb1 3.419844 1_544
