# generated using pymatgen
data_CsRb2AgSn4
_symmetry_space_group_name_H-M   'P 1'
_cell_length_a   6.76602998
_cell_length_b   7.45178295
_cell_length_c   12.99753852
_cell_angle_alpha   90.00000000
_cell_angle_beta   90.00000000
_cell_angle_gamma   90.00000000
_symmetry_Int_Tables_number   1
_chemical_formula_structural   CsRb2AgSn4
_chemical_formula_sum   'Cs2 Rb4 Ag2 Sn8'
_cell_volume   655.32272389
_cell_formula_units_Z   2
loop_
 _symmetry_equiv_pos_site_id
 _symmetry_equiv_pos_as_xyz
  1  'x, y, z'
loop_
 _atom_site_type_symbol
 _atom_site_label
 _atom_site_symmetry_multiplicity
 _atom_site_fract_x
 _atom_site_fract_y
 _atom_site_fract_z
 _atom_site_occupancy
  Cs  Cs0  1  0.56075920  0.00000000  0.00000000  1
  Cs  Cs1  1  0.43924080  0.50000000  0.50000000  1
  Rb  Rb0  1  0.83471762  0.50000000  0.74039721  1
  Rb  Rb1  1  0.83471762  0.50000000  0.25960279  1
  Rb  Rb2  1  0.16528238  0.00000000  0.75960279  1
  Rb  Rb3  1  0.16528238  0.00000000  0.24039721  1
  Ag  Ag0  1  0.68940372  0.50000000  0.00000000  1
  Ag  Ag1  1  0.31059628  0.00000000  0.50000000  1
  Sn  Sn0  1  0.33439314  0.50000000  0.88120871  1
  Sn  Sn1  1  0.33439314  0.50000000  0.11879129  1
  Sn  Sn2  1  0.04568764  0.29192511  0.00000000  1
  Sn  Sn3  1  0.04568764  0.70807489  0.00000000  1
  Sn  Sn4  1  0.95431236  0.79192511  0.50000000  1
  Sn  Sn5  1  0.95431236  0.20807489  0.50000000  1
  Sn  Sn6  1  0.66560686  0.00000000  0.38120871  1
  Sn  Sn7  1  0.66560686  0.00000000  0.61879129  1
loop_
_geom_bond_atom_site_label_1
_geom_bond_atom_site_label_2
_geom_bond_distance
_geom_bond_site_symmetry_2
Cs0 Sn2 3.936677 1_655
Cs0 Sn3 3.936677 1_645
Cs0 Sn2 4.108206 1_555
Cs0 Sn3 4.108206 1_545
Cs0 Rb3 4.113745 1_555
Cs0 Rb2 4.113745 1_554
Cs0 Sn1 4.314161 1_545
Cs0 Sn1 4.314161 1_555
Cs0 Sn0 4.314161 1_544
Cs0 Sn0 4.314161 1_554
Cs1 Sn4 3.936677 1_455
Cs1 Sn5 3.936677 1_455
Cs1 Sn4 4.108206 1_555
Cs1 Sn5 4.108206 1_555
Cs1 Rb0 4.113745 1_555
Cs1 Rb1 4.113745 1_555
Cs1 Sn7 4.314161 1_565
Cs1 Sn7 4.314161 1_555
Cs1 Sn6 4.314161 1_555
Cs1 Sn6 4.314161 1_565
Rb0 Sn0 3.844422 1_655
Rb0 Sn0 3.848284 1_555
Rb0 Sn4 3.892291 1_555
Rb0 Sn5 3.892291 1_555
Rb0 Sn3 3.978304 1_656
Rb0 Sn2 3.978304 1_656
Rb0 Sn7 4.205913 1_555
Rb0 Sn7 4.205913 1_565
Rb0 Rb2 4.352816 1_655
Rb0 Rb2 4.352816 1_665
Rb1 Sn1 3.844422 1_655
Rb1 Sn1 3.848284 1_555
Rb1 Sn4 3.892291 1_555
Rb1 Sn5 3.892291 1_555
Rb1 Sn3 3.978304 1_655
Rb1 Sn2 3.978304 1_655
Rb1 Sn6 4.205913 1_555
Rb1 Sn6 4.205913 1_565
Rb1 Rb3 4.352816 1_655
Rb1 Rb3 4.352816 1_665
Rb2 Sn7 3.844422 1_455
Rb2 Sn7 3.848284 1_555
Rb2 Sn2 3.892291 1_556
Rb2 Sn3 3.892291 1_546
Rb2 Sn5 3.978304 1_455
Rb2 Sn4 3.978304 1_445
Rb2 Sn0 4.205913 1_555
Rb2 Sn0 4.205913 1_545
Rb3 Sn6 3.844422 1_455
Rb3 Sn6 3.848284 1_555
Rb3 Sn2 3.892291 1_555
Rb3 Sn3 3.892291 1_545
Rb3 Sn5 3.978304 1_455
Rb3 Sn4 3.978304 1_445
Rb3 Sn1 4.205913 1_545
Rb3 Sn1 4.205913 1_555
Ag0 Sn1 2.855448 1_555
Ag0 Sn0 2.855448 1_554
Ag0 Sn3 2.866228 1_655
Ag0 Sn2 2.866228 1_655
Ag0 Rb1 3.514525 1_555
Ag0 Rb0 3.514525 1_554
Ag0 Cs0 3.826210 1_565
Ag0 Cs0 3.826210 1_555
Ag1 Sn7 2.855448 1_555
Ag1 Sn6 2.855448 1_555
Ag1 Sn5 2.866228 1_455
Ag1 Sn4 2.866228 1_445
Ag1 Rb2 3.514525 1_555
Ag1 Rb3 3.514525 1_555
Ag1 Cs1 3.826210 1_555
Ag1 Cs1 3.826210 1_545
Sn0 Sn3 2.933222 1_556
Sn0 Sn2 2.933222 1_556
Sn1 Sn3 2.933222 1_555
Sn1 Sn2 2.933222 1_555
Sn2 Sn3 3.101058 1_555
Sn4 Sn7 2.933222 1_565
Sn4 Sn6 2.933222 1_565
Sn4 Sn5 3.101058 1_565
Sn5 Sn7 2.933222 1_555
Sn5 Sn6 2.933222 1_555
