# generated using pymatgen
data_YBi3(PS4)4
_symmetry_space_group_name_H-M   'P 1'
_cell_length_a   8.57302363
_cell_length_b   6.63813815
_cell_length_c   12.86778613
_cell_angle_alpha   89.90616403
_cell_angle_beta   122.03417105
_cell_angle_gamma   90.01887963
_symmetry_Int_Tables_number   1
_chemical_formula_structural   YBi3(PS4)4
_chemical_formula_sum   'Y1 Bi3 P4 S16'
_cell_volume   620.78612071
_cell_formula_units_Z   1
loop_
 _symmetry_equiv_pos_site_id
 _symmetry_equiv_pos_as_xyz
  1  'x, y, z'
loop_
 _atom_site_type_symbol
 _atom_site_label
 _atom_site_symmetry_multiplicity
 _atom_site_fract_x
 _atom_site_fract_y
 _atom_site_fract_z
 _atom_site_occupancy
  Y  Y0  1  0.44048916  0.68233887  0.83553544  1
  Bi  Bi0  1  0.57064634  0.32716066  0.16808186  1
  Bi  Bi1  1  0.42583705  0.82747968  0.33005800  1
  Bi  Bi2  1  0.56559875  0.17139819  0.66393209  1
  P  P0  1  0.29942161  0.76585588  0.03493633  1
  P  P1  1  0.70382048  0.26506079  0.46250789  1
  P  P2  1  0.29923594  0.72978913  0.54003953  1
  P  P3  1  0.69469391  0.23537450  0.96121180  1
  S  S0  1  0.57313308  0.73828147  0.08744341  1
  S  S1  1  0.26107590  0.02784325  0.10375084  1
  S  S2  1  0.24637572  0.54738118  0.12472002  1
  S  S3  1  0.86429891  0.24448160  0.14464872  1
  S  S4  1  0.13331143  0.74945580  0.35600674  1
  S  S5  1  0.75468902  0.04490823  0.37356977  1
  S  S6  1  0.74110219  0.52809818  0.39517849  1
  S  S7  1  0.42896197  0.23878737  0.40937496  1
  S  S8  1  0.57203527  0.76169352  0.59086463  1
  S  S9  1  0.26672333  0.46978319  0.61061016  1
  S  S10  1  0.24987475  0.94662148  0.63229758  1
  S  S11  1  0.86620945  0.25040233  0.64616766  1
  S  S12  1  0.14016814  0.75257977  0.85240206  1
  S  S13  1  0.74922821  0.45561198  0.87392353  1
  S  S14  1  0.72946580  0.96839894  0.89379137  1
  S  S15  1  0.42360259  0.27121099  0.90894612  1
loop_
_geom_bond_atom_site_label_1
_geom_bond_atom_site_label_2
_geom_bond_distance
_geom_bond_site_symmetry_2
Bi0 S3 2.745296 1_555
Bi0 S6 2.816978 1_555
Bi0 S15 2.896627 1_554
Bi0 S2 2.920806 1_555
Bi0 S0 2.922184 1_555
Bi0 S5 2.924292 1_555
Bi0 S1 3.057422 1_555
Bi1 S4 2.748792 1_555
Bi1 S1 2.805225 1_565
Bi1 S7 2.911549 1_565
Bi1 S2 2.916731 1_555
Bi1 S8 2.925355 1_555
Bi1 S5 2.944534 1_565
Bi1 S6 3.090653 1_555
Bi2 S11 2.755472 1_555
Bi2 S14 2.849217 1_545
Bi2 S7 2.868242 1_555
Bi2 S8 2.889153 1_545
Bi2 S10 2.923835 1_545
Bi2 S13 2.973428 1_555
Bi2 S9 3.015476 1_555
P0 S12 1.996836 1_554
P0 S2 2.048483 1_555
P0 S1 2.056912 1_565
P0 S0 2.077066 1_555
P1 S11 2.010421 1_555
P1 S5 2.042295 1_555
P1 S6 2.046948 1_555
P1 S7 2.083596 1_555
P2 S4 2.018398 1_555
P2 S9 2.035755 1_555
P2 S10 2.049177 1_555
P2 S8 2.078386 1_555
P3 S3 2.012189 1_556
P3 S13 2.041757 1_555
P3 S15 2.062015 1_555
P3 S14 2.064465 1_545
S0 Y0 2.834010 1_554
S9 Y0 2.832839 1_555
S10 Y0 2.835612 1_555
S12 Y0 2.736293 1_555
S13 Y0 2.850971 1_555
S14 Y0 2.887342 1_555
S15 Y0 2.915094 1_555
