# generated using pymatgen
data_Al13IrPd12
_symmetry_space_group_name_H-M   'P 1'
_cell_length_a   9.18952366
_cell_length_b   9.18952497
_cell_length_c   9.18952516
_cell_angle_alpha   116.45147007
_cell_angle_beta   116.45147879
_cell_angle_gamma   116.45148306
_symmetry_Int_Tables_number   1
_chemical_formula_structural   Al13IrPd12
_chemical_formula_sum   'Al13 Ir1 Pd12'
_cell_volume   370.53761244
_cell_formula_units_Z   1
loop_
 _symmetry_equiv_pos_site_id
 _symmetry_equiv_pos_as_xyz
  1  'x, y, z'
loop_
 _atom_site_type_symbol
 _atom_site_label
 _atom_site_symmetry_multiplicity
 _atom_site_fract_x
 _atom_site_fract_y
 _atom_site_fract_z
 _atom_site_occupancy
  Al  Al0  1  0.34498387  0.09897515  0.05672549  1
  Al  Al1  1  0.05672649  0.34498387  0.09897415  1
  Al  Al2  1  0.09897415  0.05672749  0.34498287  1
  Al  Al3  1  0.65501513  0.90102385  0.94327251  1
  Al  Al4  1  0.94327251  0.65501513  0.90102385  1
  Al  Al5  1  0.90102385  0.94327151  0.65501513  1
  Al  Al6  1  0.15471322  0.59687256  0.75234304  1
  Al  Al7  1  0.75234304  0.15471322  0.59687256  1
  Al  Al8  1  0.59687256  0.75234204  0.15471322  1
  Al  Al9  1  0.84528678  0.40312744  0.24765796  1
  Al  Al10  1  0.24765796  0.84528678  0.40312744  1
  Al  Al11  1  0.40312744  0.24765796  0.84528678  1
  Al  Al12  1  0.50000100  0.50000100  0.50000100  1
  Ir  Ir0  1  0.00000000  0.00000000  0.00000000  1
  Pd  Pd0  1  0.65302272  0.09770339  0.25003299  1
  Pd  Pd1  1  0.25003299  0.65302272  0.09770339  1
  Pd  Pd2  1  0.09770339  0.25003299  0.65302272  1
  Pd  Pd3  1  0.34697928  0.90229861  0.74996901  1
  Pd  Pd4  1  0.74997001  0.34697928  0.90229861  1
  Pd  Pd5  1  0.90229861  0.74997001  0.34697928  1
  Pd  Pd6  1  0.84476481  0.59740845  0.55547042  1
  Pd  Pd7  1  0.55546942  0.84476381  0.59740945  1
  Pd  Pd8  1  0.59740945  0.55547042  0.84476381  1
  Pd  Pd9  1  0.15523719  0.40259355  0.44453158  1
  Pd  Pd10  1  0.44453258  0.15523819  0.40259255  1
  Pd  Pd11  1  0.40259355  0.44453158  0.15523819  1
loop_
_geom_bond_atom_site_label_1
_geom_bond_atom_site_label_2
_geom_bond_distance
_geom_bond_site_symmetry_2
Al0 Ir0 2.585721 1_555
Al0 Pd11 2.588034 1_555
Al0 Pd10 2.594314 1_555
Al0 Pd0 2.595562 1_555
Al0 Pd3 2.598081 1_544
Al0 Pd6 2.623611 1_555
Al0 Pd6 2.634269 1_444
Al1 Ir0 2.585720 1_555
Al1 Pd9 2.588049 1_555
Al1 Pd11 2.594312 1_555
Al1 Pd1 2.595553 1_555
Al1 Pd4 2.598079 1_454
Al1 Pd7 2.623609 1_555
Al1 Pd7 2.634271 1_444
Al2 Ir0 2.585707 1_555
Al2 Pd10 2.588057 1_555
Al2 Pd9 2.594305 1_555
Al2 Pd2 2.595559 1_555
Al2 Pd5 2.598093 1_445
Al2 Pd8 2.623611 1_555
Al2 Pd8 2.634269 1_444
Al3 Ir0 2.585719 1_666
Al3 Pd8 2.588036 1_555
Al3 Pd7 2.594300 1_555
Al3 Pd3 2.595555 1_555
Al3 Pd0 2.598094 1_566
Al3 Pd9 2.623593 1_555
Al3 Pd9 2.634287 1_666
Al4 Ir0 2.585719 1_666
Al4 Pd6 2.588034 1_555
Al4 Pd8 2.594302 1_555
Al4 Pd4 2.595553 1_555
Al4 Pd1 2.598093 1_656
Al4 Pd10 2.623591 1_555
Al4 Pd10 2.634289 1_666
Al5 Ir0 2.585715 1_666
Al5 Pd7 2.588047 1_555
Al5 Pd6 2.594307 1_555
Al5 Pd5 2.595552 1_555
Al5 Pd2 2.598101 1_665
Al5 Pd11 2.623590 1_555
Al5 Pd11 2.634290 1_666
Al6 Pd3 2.582802 1_555
Al6 Pd9 2.590259 1_555
Al6 Pd2 2.600216 1_555
Al6 Pd1 2.601478 1_556
Al6 Pd6 2.610655 1_455
Al6 Pd0 2.623490 1_566
Al6 Pd0 2.634600 1_455
Al7 Pd4 2.582795 1_555
Al7 Pd10 2.590260 1_555
Al7 Pd0 2.600216 1_555
Al7 Pd2 2.601477 1_655
Al7 Pd7 2.610671 1_545
Al7 Pd1 2.623490 1_656
Al7 Pd1 2.634600 1_545
Al8 Pd5 2.582787 1_555
Al8 Pd11 2.590258 1_555
Al8 Pd1 2.600218 1_555
Al8 Pd0 2.601487 1_565
Al8 Pd8 2.610668 1_554
Al8 Pd2 2.623492 1_665
Al8 Pd2 2.634599 1_554
Al9 Pd0 2.582791 1_555
Al9 Pd6 2.590255 1_555
Al9 Pd5 2.600231 1_555
Al9 Pd4 2.601486 1_554
Al9 Pd9 2.610656 1_655
Al9 Pd3 2.623481 1_544
Al9 Pd3 2.634609 1_655
Al10 Pd1 2.582792 1_555
Al10 Pd7 2.590256 1_555
Al10 Pd3 2.600222 1_555
Al10 Pd5 2.601485 1_455
Al10 Pd10 2.610673 1_565
Al10 Pd4 2.623480 1_454
Al10 Pd4 2.634611 1_565
Al11 Pd2 2.582791 1_555
Al11 Pd8 2.590264 1_555
Al11 Pd4 2.600231 1_555
Al11 Pd3 2.601483 1_545
Al11 Pd11 2.610664 1_556
Al11 Pd5 2.623480 1_445
Al11 Pd5 2.634611 1_556
Al12 Pd8 2.593626 1_555
Al12 Pd11 2.593629 1_555
Al12 Pd10 2.593630 1_555
Al12 Pd7 2.593630 1_555
Al12 Pd9 2.593637 1_555
Al12 Pd6 2.593637 1_555
Al12 Ir0 2.628912 1_666
Al12 Ir0 2.628922 1_555
