# generated using pymatgen
data_Y20In6TcNi
_symmetry_space_group_name_H-M   'P 1'
_cell_length_a   9.83835422
_cell_length_b   9.83833712
_cell_length_c   9.64644851
_cell_angle_alpha   90.00000000
_cell_angle_beta   90.00000000
_cell_angle_gamma   120.00010953
_symmetry_Int_Tables_number   1
_chemical_formula_structural   Y20In6TcNi
_chemical_formula_sum   'Y20 In6 Tc1 Ni1'
_cell_volume   808.61493280
_cell_formula_units_Z   1
loop_
 _symmetry_equiv_pos_site_id
 _symmetry_equiv_pos_as_xyz
  1  'x, y, z'
loop_
 _atom_site_type_symbol
 _atom_site_label
 _atom_site_symmetry_multiplicity
 _atom_site_fract_x
 _atom_site_fract_y
 _atom_site_fract_z
 _atom_site_occupancy
  Y  Y0  1  0.00000000  0.00000000  0.50142681  1
  Y  Y1  1  0.00000000  0.00000000  0.99857319  1
  Y  Y2  1  0.53888774  0.46111326  0.25000000  1
  Y  Y3  1  0.53888774  0.07777348  0.25000000  1
  Y  Y4  1  0.92222652  0.46111226  0.25000000  1
  Y  Y5  1  0.45637220  0.54362680  0.75000000  1
  Y  Y6  1  0.45637220  0.91274640  0.75000000  1
  Y  Y7  1  0.08725360  0.54362780  0.75000000  1
  Y  Y8  1  0.21042527  0.78957473  0.43929266  1
  Y  Y9  1  0.21042627  0.42085154  0.43929266  1
  Y  Y10  1  0.57914946  0.78957473  0.43929266  1
  Y  Y11  1  0.78905879  0.21094121  0.56453030  1
  Y  Y12  1  0.78905779  0.57811658  0.56453030  1
  Y  Y13  1  0.42188242  0.21094121  0.56453030  1
  Y  Y14  1  0.78905879  0.21094121  0.93546970  1
  Y  Y15  1  0.78905779  0.57811658  0.93546970  1
  Y  Y16  1  0.42188242  0.21094121  0.93546970  1
  Y  Y17  1  0.21042527  0.78957473  0.06070734  1
  Y  Y18  1  0.21042627  0.42085154  0.06070734  1
  Y  Y19  1  0.57914946  0.78957473  0.06070734  1
  In  In0  1  0.88110840  0.11889160  0.25000000  1
  In  In1  1  0.88110840  0.76221780  0.25000000  1
  In  In2  1  0.23778320  0.11889160  0.25000000  1
  In  In3  1  0.11999371  0.88000629  0.75000000  1
  In  In4  1  0.11999371  0.23998843  0.75000000  1
  In  In5  1  0.76001057  0.88000629  0.75000000  1
  Tc  Tc0  1  0.33333300  0.66666700  0.25000000  1
  Ni  Ni0  1  0.66666700  0.33333300  0.75000000  1
loop_
_geom_bond_atom_site_label_1
_geom_bond_atom_site_label_2
_geom_bond_distance
_geom_bond_site_symmetry_2
Y0 Y10 3.635503 1_445
Y0 Y9 3.635505 1_555
Y0 Y8 3.635506 1_545
Y0 Y13 3.645724 1_555
Y0 Y12 3.645727 1_445
Y0 Y11 3.645727 1_455
Y1 Y19 3.635503 1_446
Y1 Y18 3.635505 1_556
Y1 Y17 3.635506 1_546
Y1 Y16 3.645724 1_555
Y1 Y15 3.645727 1_445
Y1 Y14 3.645727 1_455
Y2 Y9 3.557228 1_555
Y2 Y3 3.771426 1_555
Y2 Y4 3.771428 1_555
Y3 Y8 3.557224 1_545
Y3 Y4 3.771413 1_555
Y4 Y8 3.557223 1_655
Y4 Y9 3.557224 1_655
Y5 Y6 3.631523 1_555
Y5 Y7 3.631524 1_555
Y5 Y9 3.657124 1_555
Y6 Y7 3.631510 1_555
Y6 Y8 3.657129 1_555
Y7 Y8 3.657127 1_555
Y7 Y9 3.657140 1_555
Y10 Y3 3.557216 1_565
Y10 Y2 3.557223 1_555
Y10 Y5 3.657132 1_555
Y10 Y6 3.657140 1_555
Y11 Y7 3.594228 1_655
Y11 Y6 3.594229 1_545
Y11 Y4 3.708835 1_555
Y11 Y3 3.708837 1_555
Y12 Y7 3.594229 1_655
Y12 Y5 3.594234 1_555
Y12 Y2 3.708832 1_555
Y12 Y4 3.708848 1_555
Y13 Y6 3.594222 1_545
Y13 Y5 3.594229 1_555
Y13 Y2 3.708839 1_555
Y13 Y3 3.708847 1_555
Y14 Y7 3.594228 1_655
Y14 Y6 3.594229 1_545
Y14 Y4 3.708835 1_556
Y14 Y3 3.708837 1_556
Y15 Y7 3.594229 1_655
Y15 Y5 3.594234 1_555
Y15 Y2 3.708832 1_556
Y15 Y4 3.708848 1_556
Y16 Y6 3.594222 1_545
Y16 Y5 3.594229 1_555
Y16 Y2 3.708839 1_556
Y16 Y3 3.708847 1_556
Y17 Y4 3.557223 1_455
Y17 Y3 3.557224 1_565
Y17 Y7 3.657127 1_554
Y17 Y6 3.657129 1_554
Y18 Y4 3.557224 1_455
Y18 Y2 3.557228 1_555
Y18 Y5 3.657124 1_554
Y18 Y7 3.657140 1_554
Y19 Y3 3.557216 1_565
Y19 Y2 3.557223 1_555
Y19 Y5 3.657132 1_554
Y19 Y6 3.657140 1_554
In0 Y0 3.160225 1_655
In0 Y1 3.160225 1_654
In0 Y4 3.183947 1_555
In0 Y3 3.183953 1_555
In0 Y11 3.415580 1_555
In0 Y14 3.415580 1_554
In0 In1 3.509077 1_545
In0 In2 3.509093 1_655
In0 Y10 3.609960 1_545
In0 Y19 3.609960 1_545
In0 Y9 3.609969 1_655
In0 Y18 3.609969 1_655
In1 Y0 3.160216 1_665
In1 Y1 3.160216 1_664
In1 Y2 3.183954 1_555
In1 Y4 3.183978 1_555
In1 Y12 3.415586 1_555
In1 Y15 3.415586 1_554
In1 In2 3.509079 1_665
In1 Y10 3.609962 1_555
In1 Y19 3.609962 1_555
In1 Y8 3.609971 1_655
In1 Y17 3.609971 1_655
In2 Y0 3.160224 1_555
In2 Y1 3.160224 1_554
In2 Y2 3.183959 1_555
In2 Y3 3.183973 1_555
In2 Y13 3.415580 1_555
In2 Y16 3.415580 1_554
In2 Y8 3.609962 1_545
In2 Y17 3.609962 1_545
In2 Y9 3.609967 1_555
In2 Y18 3.609967 1_555
In3 Y1 3.151302 1_565
In3 Y0 3.151302 1_565
In3 Y7 3.160684 1_555
In3 Y6 3.160690 1_555
In3 Y17 3.370167 1_556
In3 Y8 3.370167 1_555
In3 In4 3.541626 1_565
In3 In5 3.541642 1_455
In3 Y16 3.598993 1_565
In3 Y13 3.598993 1_565
In3 Y15 3.599002 1_455
In3 Y12 3.599002 1_455
In4 Y1 3.151304 1_555
In4 Y0 3.151304 1_555
In4 Y5 3.160683 1_555
In4 Y7 3.160695 1_555
In4 Y18 3.370165 1_556
In4 Y9 3.370165 1_555
In4 In5 3.541628 1_445
In4 Y14 3.598996 1_455
In4 Y11 3.598996 1_455
In4 Y16 3.599005 1_555
In4 Y13 3.599005 1_555
In5 Y1 3.151312 1_665
In5 Y0 3.151312 1_665
In5 Y5 3.160687 1_555
In5 Y6 3.160690 1_555
In5 Y19 3.370159 1_556
In5 Y10 3.370159 1_555
In5 Y14 3.598988 1_565
In5 Y11 3.598988 1_565
In5 Y15 3.599010 1_555
In5 Y12 3.599010 1_555
Tc0 Y9 2.778637 1_555
Tc0 Y18 2.778637 1_555
Tc0 Y8 2.778641 1_555
Tc0 Y17 2.778641 1_555
Tc0 Y10 2.778646 1_555
Tc0 Y19 2.778646 1_555
Tc0 Y3 3.502726 1_565
Tc0 Y4 3.502732 1_455
Tc0 Y2 3.502752 1_555
Ni0 Y15 2.747864 1_555
Ni0 Y12 2.747864 1_555
Ni0 Y14 2.747868 1_555
Ni0 Y11 2.747868 1_555
Ni0 Y16 2.747873 1_555
Ni0 Y13 2.747873 1_555
Ni0 Y6 3.583499 1_545
Ni0 Y7 3.583505 1_655
Ni0 Y5 3.583525 1_555
