# generated using pymatgen
data_Rb2TiP2
_symmetry_space_group_name_H-M   'P 1'
_cell_length_a   8.35761558
_cell_length_b   8.35761534
_cell_length_c   8.35761685
_cell_angle_alpha   134.81538249
_cell_angle_beta   127.86223667
_cell_angle_gamma   71.42234514
_symmetry_Int_Tables_number   1
_chemical_formula_structural   Rb2TiP2
_chemical_formula_sum   'Rb4 Ti2 P4'
_cell_volume   320.09795207
_cell_formula_units_Z   2
loop_
 _symmetry_equiv_pos_site_id
 _symmetry_equiv_pos_as_xyz
  1  'x, y, z'
loop_
 _atom_site_type_symbol
 _atom_site_label
 _atom_site_symmetry_multiplicity
 _atom_site_fract_x
 _atom_site_fract_y
 _atom_site_fract_z
 _atom_site_occupancy
  Rb  Rb0  1  0.00529643  0.15269622  0.85259920  1
  Rb  Rb1  1  0.99470357  0.84730378  0.14740080  1
  Rb  Rb2  1  0.69990298  0.34730378  0.35259920  1
  Rb  Rb3  1  0.30009702  0.65269622  0.64740080  1
  Ti  Ti0  1  0.50000000  0.75000000  0.25000000  1
  Ti  Ti1  1  0.50000000  0.25000000  0.75000000  1
  P  P0  1  0.76323957  0.59275825  0.17048133  1
  P  P1  1  0.57772308  0.90724175  0.67048133  1
  P  P2  1  0.42227692  0.09275825  0.32951867  1
  P  P3  1  0.23676043  0.40724175  0.82951867  1
loop_
_geom_bond_atom_site_label_1
_geom_bond_atom_site_label_2
_geom_bond_distance
_geom_bond_site_symmetry_2
P0 Ti1 2.393818 1_554
P0 Ti0 2.393818 1_555
P0 Rb1 3.458909 1_555
P0 Rb0 3.572158 1_665
P0 Rb0 3.572164 1_654
P0 Rb2 3.589934 1_555
P0 Rb3 3.596439 1_655
P1 Ti1 2.393817 1_565
P1 Ti0 2.393818 1_555
P1 Rb3 3.458916 1_555
P1 Rb2 3.572158 1_555
P1 Rb2 3.572159 1_566
P1 Rb0 3.589941 1_665
P1 Rb1 3.596437 1_556
P2 Ti0 2.393817 1_545
P2 Ti1 2.393818 1_555
P2 Rb2 3.458916 1_555
P2 Rb3 3.572158 1_555
P2 Rb3 3.572159 1_544
P2 Rb1 3.589941 1_445
P2 Rb0 3.596437 1_554
P3 Ti0 2.393818 1_556
P3 Ti1 2.393818 1_555
P3 Rb0 3.458909 1_555
P3 Rb1 3.572158 1_445
P3 Rb1 3.572164 1_456
P3 Rb3 3.589934 1_555
P3 Rb2 3.596439 1_455
