# generated using pymatgen
data_BaTi(GaCu)2
_symmetry_space_group_name_H-M   'P 1'
_cell_length_a   4.23644333
_cell_length_b   4.23644354
_cell_length_c   7.77244107
_cell_angle_alpha   90.00000000
_cell_angle_beta   90.00000000
_cell_angle_gamma   120.00000594
_symmetry_Int_Tables_number   1
_chemical_formula_structural   BaTi(GaCu)2
_chemical_formula_sum   'Ba1 Ti1 Ga2 Cu2'
_cell_volume   120.80665725
_cell_formula_units_Z   1
loop_
 _symmetry_equiv_pos_site_id
 _symmetry_equiv_pos_as_xyz
  1  'x, y, z'
loop_
 _atom_site_type_symbol
 _atom_site_label
 _atom_site_symmetry_multiplicity
 _atom_site_fract_x
 _atom_site_fract_y
 _atom_site_fract_z
 _atom_site_occupancy
  Ba  Ba0  1  0.00000000  0.00000000  0.00000000  1
  Ti  Ti0  1  0.00000000  0.00000000  0.50000000  1
  Ga  Ga0  1  0.33333300  0.66666700  0.32655031  1
  Ga  Ga1  1  0.66666700  0.33333300  0.67344969  1
  Cu  Cu0  1  0.33333300  0.66666700  0.65798910  1
  Cu  Cu1  1  0.66666700  0.33333300  0.34201090  1
loop_
_geom_bond_atom_site_label_1
_geom_bond_atom_site_label_2
_geom_bond_distance
_geom_bond_site_symmetry_2
Ba0 Ga1 3.524825 1_454
Ba0 Ga0 3.524825 1_545
Ba0 Ga1 3.524827 1_554
Ba0 Ga0 3.524827 1_445
Ba0 Ga0 3.524827 1_555
Ba0 Ga1 3.524827 1_444
Ba0 Cu1 3.612315 1_455
Ba0 Cu0 3.612315 1_544
Ba0 Cu1 3.612317 1_555
Ba0 Cu0 3.612317 1_444
Ba0 Cu1 3.612317 1_445
Ba0 Cu0 3.612317 1_554
Ga0 Ti0 2.792834 1_565
Ga0 Ti0 2.792837 1_665
Ga0 Ti0 2.792837 1_555
Ga1 Ti0 2.792834 1_655
Ga1 Ti0 2.792837 1_555
Ga1 Ti0 2.792837 1_665
Cu0 Ga1 2.448859 1_455
Cu0 Ga1 2.448859 1_565
Cu0 Ga1 2.448867 1_555
Cu0 Ga0 2.576088 1_555
Cu0 Ti0 2.736852 1_565
Cu0 Ti0 2.736855 1_665
Cu0 Ti0 2.736856 1_555
Cu1 Ga0 2.448859 1_655
Cu1 Ga0 2.448859 1_545
Cu1 Ga0 2.448867 1_555
Cu1 Ga1 2.576088 1_555
Cu1 Ti0 2.736852 1_655
Cu1 Ti0 2.736855 1_555
Cu1 Ti0 2.736856 1_665
