# generated using pymatgen
data_CrAg6RhF12
_symmetry_space_group_name_H-M   'P 1'
_cell_length_a   5.74064241
_cell_length_b   6.07277906
_cell_length_c   8.02238907
_cell_angle_alpha   90.16646842
_cell_angle_beta   94.78895899
_cell_angle_gamma   90.18993375
_symmetry_Int_Tables_number   1
_chemical_formula_structural   CrAg6RhF12
_chemical_formula_sum   'Cr1 Ag6 Rh1 F12'
_cell_volume   278.69444142
_cell_formula_units_Z   1
loop_
 _symmetry_equiv_pos_site_id
 _symmetry_equiv_pos_as_xyz
  1  'x, y, z'
loop_
 _atom_site_type_symbol
 _atom_site_label
 _atom_site_symmetry_multiplicity
 _atom_site_fract_x
 _atom_site_fract_y
 _atom_site_fract_z
 _atom_site_occupancy
  Cr  Cr0  1  0.00000000  0.00000000  0.00000000  1
  Ag  Ag0  1  0.00000000  0.00000000  0.50000000  1
  Ag  Ag1  1  0.50000000  0.50000000  0.00000000  1
  Ag  Ag2  1  0.96065350  0.57195597  0.25075919  1
  Ag  Ag3  1  0.03934650  0.42804403  0.74924081  1
  Ag  Ag4  1  0.53380279  0.07202721  0.24160680  1
  Ag  Ag5  1  0.46619721  0.92797279  0.75839320  1
  Rh  Rh0  1  0.50000000  0.50000000  0.50000000  1
  F  F0  1  0.85065564  0.26377250  0.06813128  1
  F  F1  1  0.14934436  0.73622750  0.93186872  1
  F  F2  1  0.65523394  0.76931199  0.41927670  1
  F  F3  1  0.34476606  0.23068801  0.58072330  1
  F  F4  1  0.12887893  0.94763557  0.22480768  1
  F  F5  1  0.87112107  0.05236443  0.77519232  1
  F  F6  1  0.35811068  0.44032083  0.26918648  1
  F  F7  1  0.64188932  0.55967917  0.73081352  1
  F  F8  1  0.72499520  0.83754173  0.04598797  1
  F  F9  1  0.27500480  0.16245827  0.95401203  1
  F  F10  1  0.78113735  0.33140011  0.44510163  1
  F  F11  1  0.21886265  0.66859989  0.55489837  1
loop_
_geom_bond_atom_site_label_1
_geom_bond_atom_site_label_2
_geom_bond_distance
_geom_bond_site_symmetry_2
Cr0 F0 1.918825 1_455
Cr0 F1 1.918825 1_544
Cr0 F4 1.919164 1_545
Cr0 F5 1.919164 1_454
Cr0 F9 1.921142 1_554
Cr0 F8 1.921142 1_445
Ag0 F11 2.398394 1_545
Ag0 F10 2.398394 1_455
Ag0 F5 2.406791 1_455
Ag0 F4 2.406791 1_545
Ag0 F3 2.461998 1_555
Ag0 F2 2.461998 1_445
Ag1 F6 2.398881 1_555
Ag1 F7 2.398881 1_554
Ag1 F8 2.429942 1_555
Ag1 F9 2.429942 1_554
Ag1 F1 2.499763 1_554
Ag1 F0 2.499763 1_555
Ag2 F6 2.413154 1_655
Ag2 F0 2.422741 1_555
Ag2 F10 2.428654 1_555
Ag2 F4 2.490494 1_655
Ag2 F2 2.595850 1_555
Ag2 F8 2.605541 1_555
Ag3 F7 2.413154 1_455
Ag3 F1 2.422741 1_555
Ag3 F11 2.428654 1_555
Ag3 F5 2.490494 1_455
Ag3 F3 2.595850 1_555
Ag3 F9 2.605541 1_555
Ag4 F2 2.398911 1_545
Ag4 F4 2.434679 1_545
Ag4 F8 2.445433 1_545
Ag4 F6 2.473412 1_555
Ag4 F10 2.597170 1_555
Ag4 F0 2.649390 1_555
Ag4 F9 2.696737 1_554
Ag5 F3 2.398911 1_565
Ag5 F5 2.434679 1_565
Ag5 F9 2.445433 1_565
Ag5 F7 2.473412 1_555
Ag5 F11 2.597170 1_555
Ag5 F1 2.649390 1_555
Ag5 F8 2.696737 1_556
F2 Rh0 1.995278 1_555
F3 Rh0 1.995278 1_555
F6 Rh0 1.991438 1_555
F7 Rh0 1.991438 1_555
F10 Rh0 1.993488 1_555
F11 Rh0 1.993488 1_555
