# generated using pymatgen
data_Tb3(CuGe)4
_symmetry_space_group_name_H-M   'P 1'
_cell_length_a   4.19258323
_cell_length_b   6.61357722
_cell_length_c   7.97153986
_cell_angle_alpha   114.50825871
_cell_angle_beta   105.24648482
_cell_angle_gamma   90.00000303
_symmetry_Int_Tables_number   1
_chemical_formula_structural   Tb3(CuGe)4
_chemical_formula_sum   'Tb3 Cu4 Ge4'
_cell_volume   192.53708590
_cell_formula_units_Z   1
loop_
 _symmetry_equiv_pos_site_id
 _symmetry_equiv_pos_as_xyz
  1  'x, y, z'
loop_
 _atom_site_type_symbol
 _atom_site_label
 _atom_site_symmetry_multiplicity
 _atom_site_fract_x
 _atom_site_fract_y
 _atom_site_fract_z
 _atom_site_occupancy
  Tb  Tb0  1  0.86874438  0.86874438  0.73748976  1
  Tb  Tb1  1  0.13125562  0.13125562  0.26251024  1
  Tb  Tb2  1  -0.00000000  0.50000000  0.00000000  1
  Cu  Cu0  1  0.66844712  0.85712942  0.33689424  1
  Cu  Cu1  1  0.33155288  0.14287058  0.66310576  1
  Cu  Cu2  1  0.66844712  0.47976382  0.33689424  1
  Cu  Cu3  1  0.33155288  0.52023618  0.66310576  1
  Ge  Ge0  1  0.78332224  0.28332224  0.56664447  1
  Ge  Ge1  1  0.50000000  0.80935954  -0.00000000  1
  Ge  Ge2  1  0.50000000  0.19064046  0.00000000  1
  Ge  Ge3  1  0.21667776  0.71667776  0.43335553  1
loop_
_geom_bond_atom_site_label_1
_geom_bond_atom_site_label_2
_geom_bond_distance
_geom_bond_site_symmetry_2
Cu0 Ge1 2.471720 1_555
Cu0 Cu2 2.495737 1_555
Cu0 Ge3 2.529871 1_655
Cu0 Ge3 2.529871 1_555
Cu0 Ge0 2.604662 1_565
Cu0 Tb1 2.983352 1_565
Cu0 Tb1 2.983355 1_665
Cu0 Tb0 3.048729 1_555
Cu1 Ge2 2.471720 1_556
Cu1 Cu3 2.495737 1_555
Cu1 Ge0 2.529871 1_455
Cu1 Ge0 2.529871 1_555
Cu1 Ge3 2.604662 1_545
Cu1 Tb0 2.983352 1_545
Cu1 Tb0 2.983355 1_445
Cu1 Tb1 3.048729 1_555
Cu2 Ge2 2.471718 1_555
Cu2 Ge3 2.529874 1_655
Cu2 Ge3 2.529874 1_555
Cu2 Ge0 2.604657 1_555
Cu2 Tb1 2.983343 1_555
Cu2 Tb1 2.983346 1_655
Cu2 Tb0 3.048729 1_555
Cu3 Ge1 2.471718 1_556
Cu3 Ge0 2.529874 1_455
Cu3 Ge0 2.529874 1_555
Cu3 Ge3 2.604657 1_555
Cu3 Tb0 2.983343 1_555
Cu3 Tb0 2.983346 1_455
Cu3 Tb1 3.048729 1_555
Ge0 Tb1 2.975619 1_555
Ge0 Tb1 2.975622 1_655
Ge0 Tb2 3.009128 1_656
Ge1 Ge2 2.521631 1_565
Ge1 Tb2 2.929240 1_555
Ge1 Tb2 2.929240 1_655
Ge1 Tb0 3.050694 1_554
Ge1 Tb1 3.050696 1_565
Ge1 Tb0 3.050696 1_454
Ge1 Tb1 3.050699 1_665
Ge2 Tb2 2.929240 1_655
Ge2 Tb2 2.929240 1_555
Ge2 Tb1 3.050694 1_555
Ge2 Tb0 3.050696 1_544
Ge2 Tb1 3.050696 1_655
Ge2 Tb0 3.050699 1_444
Ge3 Tb0 2.975619 1_555
Ge3 Tb0 2.975622 1_455
Ge3 Tb2 3.009128 1_555
