# generated using pymatgen
data_Nd3Sb5O12
_symmetry_space_group_name_H-M   'P 1'
_cell_length_a   9.53755189
_cell_length_b   9.53746249
_cell_length_c   9.53754291
_cell_angle_alpha   109.47100163
_cell_angle_beta   109.47154228
_cell_angle_gamma   109.47106470
_symmetry_Int_Tables_number   1
_chemical_formula_structural   Nd3Sb5O12
_chemical_formula_sum   'Nd6 Sb10 O24'
_cell_volume   667.85880564
_cell_formula_units_Z   2
loop_
 _symmetry_equiv_pos_site_id
 _symmetry_equiv_pos_as_xyz
  1  'x, y, z'
loop_
 _atom_site_type_symbol
 _atom_site_label
 _atom_site_symmetry_multiplicity
 _atom_site_fract_x
 _atom_site_fract_y
 _atom_site_fract_z
 _atom_site_occupancy
  Nd  Nd0  1  0.74999639  0.25000015  0.49999697  1
  Nd  Nd1  1  0.74999630  0.49999990  0.24999896  1
  Nd  Nd2  1  0.24999972  0.49999996  0.74999672  1
  Nd  Nd3  1  0.50000369  0.75000638  0.25000070  1
  Nd  Nd4  1  0.49999701  0.25000043  0.74999742  1
  Nd  Nd5  1  0.25000070  0.75000608  0.50000308  1
  Sb  Sb0  1  -0.00000165  0.50799072  -0.00000047  1
  Sb  Sb1  1  0.50801581  0.00000261  -0.00000067  1
  Sb  Sb2  1  0.00000019  0.00000280  0.50801620  1
  Sb  Sb3  1  0.49198652  0.49200267  0.49198685  1
  Sb  Sb4  1  0.00000299  0.72128967  0.72130195  1
  Sb  Sb5  1  -0.00000169  0.27870508  0.27870651  1
  Sb  Sb6  1  0.27870997  0.27870806  0.99999750  1
  Sb  Sb7  1  0.72130144  0.72128777  0.00000206  1
  Sb  Sb8  1  0.72129149  -0.00000075  0.72128439  1
  Sb  Sb9  1  0.27870090  -0.00000322  0.27870046  1
  O  O0  1  0.80411007  0.80411064  0.27555678  1
  O  O1  1  0.52855329  0.72445104  0.52855398  1
  O  O2  1  0.72444208  0.52855938  0.52855506  1
  O  O3  1  0.00000066  0.47143528  0.19588922  1
  O  O4  1  0.47144640  0.99999803  0.19588774  1
  O  O5  1  0.19588984  0.47143438  0.99999939  1
  O  O6  1  0.47144609  0.19589076  0.00000022  1
  O  O7  1  0.19588794  0.99999895  0.47144677  1
  O  O8  1  0.80411242  0.27554629  0.80411219  1
  O  O9  1  0.27555612  0.80410881  0.80410965  1
  O  O10  1  0.00000077  0.19589306  0.47144771  1
  O  O11  1  0.52855395  0.52855852  0.72444161  1
  O  O12  1  0.29191561  0.29191654  0.80364110  1
  O  O13  1  0.48827825  0.19636011  0.48827836  1
  O  O14  1  0.19636149  0.48827968  0.48827848  1
  O  O15  1  -0.00000109  0.51172879  0.70808305  1
  O  O16  1  0.48827479  0.48827700  0.19635827  1
  O  O17  1  -0.00000082  0.70808337  0.51172291  1
  O  O18  1  0.80363996  0.29191749  0.29191765  1
  O  O19  1  0.29191541  0.80363946  0.29191555  1
  O  O20  1  0.70808491  0.00000234  0.51173008  1
  O  O21  1  0.51171915  0.70808085  -0.00000260  1
  O  O22  1  0.70808279  0.51172889  -0.00000081  1
  O  O23  1  0.51172914  0.00000203  0.70808701  1
loop_
_geom_bond_atom_site_label_1
_geom_bond_atom_site_label_2
_geom_bond_distance
_geom_bond_site_symmetry_2
Nd0 O13 2.330137 1_555
Nd0 O18 2.330145 1_555
Nd0 O20 2.330175 1_555
Nd0 O15 2.330196 1_655
Nd0 O4 2.680535 1_545
Nd0 O2 2.680563 1_555
Nd0 O10 2.680565 1_655
Nd0 O8 2.680618 1_555
Nd1 O16 2.330149 1_555
Nd1 O18 2.330160 1_555
Nd1 O17 2.330176 1_655
Nd1 O22 2.330188 1_555
Nd1 O0 2.680522 1_555
Nd1 O6 2.680526 1_555
Nd1 O2 2.680555 1_555
Nd1 O3 2.680628 1_655
Nd2 O14 2.330129 1_555
Nd2 O21 2.330145 1_556
Nd2 O12 2.330162 1_555
Nd2 O15 2.330200 1_555
Nd2 O9 2.680511 1_555
Nd2 O10 2.680513 1_555
Nd2 O11 2.680545 1_555
Nd2 O5 2.680613 1_555
Nd3 O21 2.330152 1_555
Nd3 O20 2.330169 1_565
Nd3 O19 2.330176 1_555
Nd3 O16 2.330179 1_555
Nd3 O4 2.680473 1_555
Nd3 O0 2.680531 1_555
Nd3 O1 2.680546 1_555
Nd3 O5 2.680623 1_554
Nd4 O13 2.330143 1_555
Nd4 O12 2.330163 1_555
Nd4 O23 2.330178 1_555
Nd4 O22 2.330192 1_556
Nd4 O7 2.680536 1_545
Nd4 O11 2.680560 1_555
Nd4 O6 2.680563 1_556
Nd4 O8 2.680626 1_555
Nd5 O17 2.330160 1_555
Nd5 O19 2.330168 1_555
Nd5 O23 2.330169 1_565
Nd5 O14 2.330171 1_555
Nd5 O7 2.680481 1_555
Nd5 O9 2.680535 1_555
Nd5 O1 2.680538 1_555
Nd5 O3 2.680617 1_555
O0 Sb2 2.011632 1_665
O0 Sb7 2.229583 1_555
O1 Sb3 2.011520 1_555
O1 Sb8 2.229521 1_565
O2 Sb3 2.011628 1_555
O2 Sb4 2.229617 1_655
O3 Sb0 2.011554 1_555
O3 Sb5 2.229492 1_555
O4 Sb1 2.011627 1_565
O4 Sb9 2.229626 1_565
O5 Sb0 2.011583 1_556
O5 Sb6 2.229476 1_555
O6 Sb1 2.011595 1_555
O6 Sb6 2.229558 1_554
O7 Sb2 2.011621 1_565
O7 Sb9 2.229632 1_565
O8 Sb0 2.011539 1_656
O8 Sb8 2.229471 1_555
O9 Sb1 2.011636 1_566
O9 Sb4 2.229577 1_555
O10 Sb2 2.011609 1_555
O10 Sb5 2.229570 1_555
O11 Sb3 2.011623 1_555
O11 Sb7 2.229613 1_556
O12 Sb6 1.960333 1_555
O13 Sb9 1.960447 1_555
O14 Sb5 1.960415 1_555
O15 Sb4 1.960247 1_555
O16 Sb6 1.960365 1_554
O17 Sb4 1.960471 1_555
O18 Sb5 1.960386 1_655
O19 Sb9 1.960379 1_565
O20 Sb8 1.960258 1_555
O21 Sb7 1.960500 1_555
O22 Sb7 1.960233 1_555
O23 Sb8 1.960359 1_555
