# generated using pymatgen
data_Y9MgCd3Co
_symmetry_space_group_name_H-M   'P 1'
_cell_length_a   9.53348037
_cell_length_b   9.53348040
_cell_length_c   9.66029720
_cell_angle_alpha   90.00000000
_cell_angle_beta   90.00000000
_cell_angle_gamma   119.99999300
_symmetry_Int_Tables_number   1
_chemical_formula_structural   Y9MgCd3Co
_chemical_formula_sum   'Y18 Mg2 Cd6 Co2'
_cell_volume   760.36847867
_cell_formula_units_Z   2
loop_
 _symmetry_equiv_pos_site_id
 _symmetry_equiv_pos_as_xyz
  1  'x, y, z'
loop_
 _atom_site_type_symbol
 _atom_site_label
 _atom_site_symmetry_multiplicity
 _atom_site_fract_x
 _atom_site_fract_y
 _atom_site_fract_z
 _atom_site_occupancy
  Y  Y0  1  0.54288764  0.45711236  0.25000000  1
  Y  Y1  1  0.54288764  0.08577427  0.25000000  1
  Y  Y2  1  0.91422573  0.45711236  0.25000000  1
  Y  Y3  1  0.45711236  0.54288764  0.75000000  1
  Y  Y4  1  0.45711236  0.91422573  0.75000000  1
  Y  Y5  1  0.08577427  0.54288764  0.75000000  1
  Y  Y6  1  0.20905248  0.79094752  0.43616431  1
  Y  Y7  1  0.20905248  0.41810497  0.43616431  1
  Y  Y8  1  0.58189503  0.79094752  0.43616431  1
  Y  Y9  1  0.79094752  0.20905248  0.56383569  1
  Y  Y10  1  0.79094752  0.58189503  0.56383569  1
  Y  Y11  1  0.41810497  0.20905248  0.56383569  1
  Y  Y12  1  0.79094752  0.20905248  0.93616431  1
  Y  Y13  1  0.79094752  0.58189503  0.93616431  1
  Y  Y14  1  0.41810497  0.20905248  0.93616431  1
  Y  Y15  1  0.20905248  0.79094752  0.06383569  1
  Y  Y16  1  0.20905248  0.41810497  0.06383569  1
  Y  Y17  1  0.58189503  0.79094752  0.06383569  1
  Mg  Mg0  1  0.00000000  0.00000000  0.50000000  1
  Mg  Mg1  1  0.00000000  0.00000000  0.00000000  1
  Cd  Cd0  1  0.89032407  0.10967593  0.25000000  1
  Cd  Cd1  1  0.89032407  0.78064814  0.25000000  1
  Cd  Cd2  1  0.21935186  0.10967593  0.25000000  1
  Cd  Cd3  1  0.10967593  0.89032407  0.75000000  1
  Cd  Cd4  1  0.10967593  0.21935186  0.75000000  1
  Cd  Cd5  1  0.78064814  0.89032407  0.75000000  1
  Co  Co0  1  0.33333300  0.66666700  0.25000000  1
  Co  Co1  1  0.66666700  0.33333300  0.75000000  1
loop_
_geom_bond_atom_site_label_1
_geom_bond_atom_site_label_2
_geom_bond_distance
_geom_bond_site_symmetry_2
Y0 Y7 3.509703 1_555
Y0 Y16 3.509703 1_555
Y0 Y8 3.509703 1_555
Y0 Y17 3.509703 1_555
Y0 Y2 3.540144 1_555
Y0 Y1 3.540144 1_555
Y0 Y10 3.658689 1_555
Y0 Y13 3.658689 1_554
Y0 Y11 3.658689 1_555
Y0 Y14 3.658689 1_554
Y1 Y8 3.509695 1_545
Y1 Y17 3.509695 1_545
Y1 Y6 3.509700 1_545
Y1 Y15 3.509700 1_545
Y1 Y2 3.540145 1_555
Y1 Y9 3.658689 1_555
Y1 Y12 3.658689 1_554
Y1 Y11 3.658694 1_555
Y1 Y14 3.658694 1_554
Y2 Y7 3.509695 1_655
Y2 Y6 3.509700 1_655
Y2 Y9 3.658689 1_555
Y3 Y5 3.540144 1_555
Y3 Y4 3.540144 1_555
Y3 Y7 3.658689 1_555
Y3 Y8 3.658689 1_555
Y4 Y9 3.509700 1_565
Y4 Y5 3.540145 1_555
Y4 Y6 3.658689 1_555
Y4 Y8 3.658694 1_555
Y5 Y9 3.509700 1_455
Y5 Y6 3.658689 1_555
Y5 Y7 3.658694 1_555
Y10 Y5 3.509695 1_655
Y10 Y3 3.509703 1_555
Y10 Y2 3.658694 1_555
Y11 Y4 3.509695 1_545
Y11 Y3 3.509703 1_555
Y12 Y4 3.509700 1_545
Y12 Y5 3.509700 1_655
Y12 Y2 3.658689 1_556
Y13 Y5 3.509695 1_655
Y13 Y3 3.509703 1_555
Y13 Y2 3.658694 1_556
Y14 Y4 3.509695 1_545
Y14 Y3 3.509703 1_555
Y15 Y2 3.509700 1_455
Y15 Y4 3.658689 1_554
Y15 Y5 3.658689 1_554
Y16 Y2 3.509695 1_455
Y16 Y3 3.658689 1_554
Y16 Y5 3.658694 1_554
Y17 Y3 3.658689 1_554
Y17 Y4 3.658694 1_554
Cd0 Mg1 3.018672 1_655
Cd0 Mg0 3.018672 1_655
Cd0 Cd2 3.136780 1_655
Cd0 Cd1 3.136780 1_545
Cd0 Y1 3.204427 1_555
Cd0 Y2 3.204428 1_555
Cd0 Y9 3.447348 1_555
Cd0 Y12 3.447348 1_554
Cd0 Y7 3.489781 1_655
Cd0 Y16 3.489781 1_655
Cd0 Y8 3.489781 1_545
Cd0 Y17 3.489781 1_545
Cd1 Mg1 3.018672 1_665
Cd1 Mg0 3.018672 1_665
Cd1 Cd2 3.136780 1_665
Cd1 Y0 3.204432 1_555
Cd1 Y2 3.204437 1_555
Cd1 Y10 3.447348 1_555
Cd1 Y13 3.447348 1_554
Cd1 Y8 3.489781 1_555
Cd1 Y17 3.489781 1_555
Cd1 Y6 3.489781 1_655
Cd1 Y15 3.489781 1_655
Cd2 Mg0 3.018672 1_555
Cd2 Mg1 3.018672 1_555
Cd2 Y0 3.204432 1_555
Cd2 Y1 3.204437 1_555
Cd2 Y11 3.447348 1_555
Cd2 Y14 3.447348 1_554
Cd2 Y7 3.489781 1_555
Cd2 Y16 3.489781 1_555
Cd2 Y6 3.489781 1_545
Cd2 Y15 3.489781 1_545
Cd3 Mg0 3.018672 1_565
Cd3 Mg1 3.018672 1_566
Cd3 Cd5 3.136780 1_455
Cd3 Cd4 3.136780 1_565
Cd3 Y4 3.204427 1_555
Cd3 Y5 3.204428 1_555
Cd3 Y15 3.447348 1_556
Cd3 Y6 3.447348 1_555
Cd3 Y13 3.489781 1_455
Cd3 Y10 3.489781 1_455
Cd3 Y14 3.489781 1_565
Cd3 Y11 3.489781 1_565
Cd4 Mg0 3.018672 1_555
Cd4 Mg1 3.018672 1_556
Cd4 Cd5 3.136780 1_445
Cd4 Y3 3.204432 1_555
Cd4 Y5 3.204437 1_555
Cd4 Y16 3.447348 1_556
Cd4 Y7 3.447348 1_555
Cd4 Y14 3.489781 1_555
Cd4 Y11 3.489781 1_555
Cd4 Y12 3.489781 1_455
Cd4 Y9 3.489781 1_455
Cd5 Mg1 3.018672 1_666
Cd5 Mg0 3.018672 1_665
Cd5 Y3 3.204432 1_555
Cd5 Y4 3.204437 1_555
Cd5 Y17 3.447348 1_556
Cd5 Y8 3.447348 1_555
Cd5 Y13 3.489781 1_555
Cd5 Y10 3.489781 1_555
Cd5 Y12 3.489781 1_565
Cd5 Y9 3.489781 1_565
Co0 Y6 2.728679 1_555
Co0 Y15 2.728679 1_555
Co0 Y8 2.728685 1_555
Co0 Y17 2.728685 1_555
Co0 Y7 2.728685 1_555
Co0 Y16 2.728685 1_555
Co0 Y2 3.460249 1_455
Co0 Y1 3.460249 1_565
Co0 Y0 3.460265 1_555
Co1 Y12 2.728679 1_555
Co1 Y9 2.728679 1_555
Co1 Y14 2.728685 1_555
Co1 Y11 2.728685 1_555
Co1 Y13 2.728685 1_555
Co1 Y10 2.728685 1_555
Co1 Y5 3.460249 1_655
Co1 Y4 3.460249 1_545
Co1 Y3 3.460265 1_555
