# generated using pymatgen
data_NaSiB6
_symmetry_space_group_name_H-M   'P 1'
_cell_length_a   6.41684468
_cell_length_b   6.41684375
_cell_length_c   8.65235584
_cell_angle_alpha   90.00000000
_cell_angle_beta   90.00000000
_cell_angle_gamma   123.03337148
_symmetry_Int_Tables_number   1
_chemical_formula_structural   NaSiB6
_chemical_formula_sum   'Na4 Si4 B24'
_cell_volume   298.67879619
_cell_formula_units_Z   4
loop_
 _symmetry_equiv_pos_site_id
 _symmetry_equiv_pos_as_xyz
  1  'x, y, z'
loop_
 _atom_site_type_symbol
 _atom_site_label
 _atom_site_symmetry_multiplicity
 _atom_site_fract_x
 _atom_site_fract_y
 _atom_site_fract_z
 _atom_site_occupancy
  Na  Na0  1  0.31780835  0.68219165  0.65609107  1
  Na  Na1  1  0.81780835  0.18219165  0.84390893  1
  Na  Na2  1  0.18219165  0.81780835  0.15609107  1
  Na  Na3  1  0.68219165  0.31780835  0.34390893  1
  Si  Si0  1  0.66090037  0.33909963  0.62390185  1
  Si  Si1  1  0.16090037  0.83909963  0.87609915  1
  Si  Si2  1  0.83909963  0.16090037  0.12390185  1
  Si  Si3  1  0.33909963  0.66090037  0.37609915  1
  B  B0  1  0.31142528  0.15681608  0.53280925  1
  B  B1  1  0.84318392  0.68857472  0.53280925  1
  B  B2  1  0.84960071  0.15039929  0.55543001  1
  B  B3  1  0.09585373  0.90414627  0.64980329  1
  B  B4  1  0.12118579  0.19724168  0.66339681  1
  B  B5  1  0.80275832  0.87881521  0.66339681  1
  B  B6  1  0.30275832  0.37881521  0.83660319  1
  B  B7  1  0.62118479  0.69724168  0.83660319  1
  B  B8  1  0.59585373  0.40414627  0.85019771  1
  B  B9  1  0.34960071  0.65039929  0.94456999  1
  B  B10  1  0.34318292  0.18857472  0.96719075  1
  B  B11  1  0.81142528  0.65681608  0.96719075  1
  B  B12  1  0.18857472  0.34318392  0.03281025  1
  B  B13  1  0.65681608  0.81142528  0.03281025  1
  B  B14  1  0.65039929  0.34960071  0.05543001  1
  B  B15  1  0.40414627  0.59585373  0.14980229  1
  B  B16  1  0.37881421  0.30275932  0.16339681  1
  B  B17  1  0.69724168  0.62118479  0.16339681  1
  B  B18  1  0.19724068  0.12118579  0.33660319  1
  B  B19  1  0.87881421  0.80275932  0.33660319  1
  B  B20  1  0.90414627  0.09585373  0.35019771  1
  B  B21  1  0.15039929  0.84960071  0.44456999  1
  B  B22  1  0.15681608  0.31142528  0.46719075  1
  B  B23  1  0.68857472  0.84318392  0.46719075  1
loop_
_geom_bond_atom_site_label_1
_geom_bond_atom_site_label_2
_geom_bond_distance
_geom_bond_site_symmetry_2
Na0 Si3 2.434466 1_555
Na0 Si1 2.599309 1_555
Na1 Si2 2.434474 1_556
Na1 Si0 2.599303 1_555
Na2 Si1 2.434466 1_554
Na2 Si3 2.599309 1_555
Na3 Si0 2.434474 1_555
Na3 Si2 2.599303 1_555
B0 B3 1.766842 1_545
B0 B4 1.783084 1_555
B0 B18 1.813418 1_555
B0 B21 1.820987 1_545
B0 B22 1.834117 1_555
B0 Si0 2.039241 1_555
B0 Na3 2.592162 1_555
B1 B3 1.766842 1_655
B1 B5 1.783088 1_555
B1 B19 1.813418 1_555
B1 B21 1.820987 1_655
B1 B23 1.834117 1_555
B1 Si0 2.039241 1_555
B1 Na3 2.592162 1_555
B2 B23 1.820987 1_545
B2 B22 1.820987 1_655
B2 B5 1.851745 1_545
B2 B4 1.851751 1_655
B2 B20 1.879319 1_555
B2 Si0 2.209495 1_555
B2 Na1 2.521654 1_555
B2 Na3 2.629750 1_555
B3 B4 1.801154 1_565
B3 B5 1.801157 1_455
B3 Si1 2.090959 1_555
B3 Na0 2.504294 1_555
B4 B6 1.865724 1_555
B4 B5 1.948907 1_445
B4 Na1 2.456316 1_455
B4 Na0 2.645545 1_555
B5 B7 1.865726 1_555
B5 Na1 2.456311 1_565
B5 Na0 2.645544 1_555
B6 B8 1.801158 1_555
B6 B9 1.851745 1_555
B6 B7 1.948904 1_555
B6 Na0 2.456311 1_555
B6 Na1 2.645544 1_455
B7 B8 1.801158 1_555
B7 B9 1.851746 1_555
B7 Na0 2.456311 1_555
B7 Na1 2.645543 1_565
B8 Si0 2.090959 1_555
B8 Na1 2.504294 1_555
B9 Si1 2.209493 1_555
B9 Na0 2.521654 1_555
B9 Na2 2.629750 1_556
B10 B8 1.766841 1_555
B10 B6 1.783085 1_555
B10 B16 1.813418 1_556
B10 B14 1.820992 1_556
B10 B12 1.834115 1_556
B10 Si1 2.039237 1_545
B10 Na2 2.592162 1_546
B11 B8 1.766837 1_555
B11 B7 1.783089 1_555
B11 B17 1.813416 1_556
B11 B14 1.820987 1_556
B11 B13 1.834120 1_556
B11 Si1 2.039238 1_655
B11 Na2 2.592162 1_656
B12 B15 1.766832 1_555
B12 B16 1.783075 1_555
B12 B6 1.813424 1_554
B12 B9 1.820990 1_554
B12 Si2 2.039238 1_455
B12 Na1 2.592168 1_454
B13 B15 1.766832 1_555
B13 B17 1.783083 1_555
B13 B7 1.813424 1_554
B13 B9 1.820991 1_554
B13 Si2 2.039237 1_565
B13 Na1 2.592167 1_564
B14 B17 1.851745 1_555
B14 B16 1.851753 1_555
B14 B8 1.879319 1_554
B14 Si2 2.209495 1_555
B14 Na3 2.521654 1_555
B14 Na1 2.629750 1_554
B15 B16 1.801148 1_555
B15 B17 1.801158 1_555
B15 B9 1.879319 1_554
B15 Si3 2.090968 1_555
B15 Na2 2.504294 1_555
B16 B18 1.865726 1_555
B16 B17 1.948904 1_555
B16 Na3 2.456319 1_555
B16 Na2 2.645550 1_545
B17 B19 1.865726 1_555
B17 Na3 2.456311 1_555
B17 Na2 2.645544 1_655
B18 B22 1.783080 1_555
B18 B20 1.801149 1_455
B18 B21 1.851753 1_545
B18 B19 1.948904 1_445
B18 Na2 2.456318 1_545
B18 Na3 2.645551 1_555
B19 B23 1.783080 1_555
B19 B20 1.801148 1_565
B19 B21 1.851753 1_655
B19 Na2 2.456319 1_655
B19 Na3 2.645550 1_555
B20 B23 1.766837 1_545
B20 B22 1.766837 1_655
B20 Si2 2.090959 1_555
B20 Na3 2.504294 1_555
B21 B3 1.879328 1_555
B21 Si3 2.209493 1_555
B21 Na2 2.521654 1_555
B21 Na0 2.629750 1_555
B22 B4 1.813416 1_555
B22 Si3 2.039237 1_555
B22 Na0 2.592162 1_555
B23 B5 1.813416 1_555
B23 Si3 2.039238 1_555
B23 Na0 2.592162 1_555
