# generated using pymatgen
data_Sr8Ca(BN2)6
_symmetry_space_group_name_H-M   'P 1'
_cell_length_a   7.56229398
_cell_length_b   7.56229398
_cell_length_c   7.56229398
_cell_angle_alpha   90.00000000
_cell_angle_beta   90.00000000
_cell_angle_gamma   90.00000000
_symmetry_Int_Tables_number   1
_chemical_formula_structural   Sr8Ca(BN2)6
_chemical_formula_sum   'Sr8 Ca1 B6 N12'
_cell_volume   432.47466334
_cell_formula_units_Z   1
loop_
 _symmetry_equiv_pos_site_id
 _symmetry_equiv_pos_as_xyz
  1  'x, y, z'
loop_
 _atom_site_type_symbol
 _atom_site_label
 _atom_site_symmetry_multiplicity
 _atom_site_fract_x
 _atom_site_fract_y
 _atom_site_fract_z
 _atom_site_occupancy
  Sr  Sr0  1  0.73786696  0.73786696  0.26213304  1
  Sr  Sr1  1  0.26213304  0.26213304  0.73786696  1
  Sr  Sr2  1  0.73786696  0.26213304  0.73786696  1
  Sr  Sr3  1  0.26213304  0.73786696  0.26213304  1
  Sr  Sr4  1  0.73786696  0.26213304  0.26213304  1
  Sr  Sr5  1  0.26213304  0.73786696  0.73786696  1
  Sr  Sr6  1  0.73786696  0.73786696  0.73786696  1
  Sr  Sr7  1  0.26213304  0.26213304  0.26213304  1
  Ca  Ca0  1  0.00000000  0.00000000  0.00000000  1
  B  B0  1  0.00000000  0.00000000  0.50000000  1
  B  B1  1  0.50000000  0.50000000  0.00000000  1
  B  B2  1  0.50000000  0.00000000  0.50000000  1
  B  B3  1  0.00000000  0.50000000  0.00000000  1
  B  B4  1  0.50000000  0.00000000  0.00000000  1
  B  B5  1  0.00000000  0.50000000  0.50000000  1
  N  N0  1  0.50000000  0.50000000  0.17650588  1
  N  N1  1  0.00000000  0.00000000  0.67759331  1
  N  N2  1  0.50000000  0.82349412  0.50000000  1
  N  N3  1  0.00000000  0.32240669  0.00000000  1
  N  N4  1  0.32240669  0.00000000  0.00000000  1
  N  N5  1  0.82349412  0.50000000  0.50000000  1
  N  N6  1  0.50000000  0.50000000  0.82349412  1
  N  N7  1  0.00000000  0.00000000  0.32240669  1
  N  N8  1  0.50000000  0.17650588  0.50000000  1
  N  N9  1  0.00000000  0.67759331  0.00000000  1
  N  N10  1  0.67759331  0.00000000  0.00000000  1
  N  N11  1  0.17650588  0.50000000  0.50000000  1
loop_
_geom_bond_atom_site_label_1
_geom_bond_atom_site_label_2
_geom_bond_distance
_geom_bond_site_symmetry_2
Ca0 N4 2.438134 1_555
Ca0 N3 2.438134 1_555
Ca0 N7 2.438134 1_555
Ca0 N9 2.438134 1_545
Ca0 N1 2.438134 1_554
Ca0 N10 2.438134 1_455
B0 N1 1.343013 1_555
B0 N7 1.343013 1_555
B1 N0 1.334789 1_555
B1 N6 1.334789 1_554
B2 N8 1.334789 1_555
B2 N2 1.334789 1_545
B3 N9 1.343013 1_555
B3 N3 1.343013 1_555
B4 N10 1.343013 1_555
B4 N4 1.343013 1_555
B5 N11 1.334789 1_555
B5 N5 1.334789 1_455
N0 Sr0 2.625035 1_555
N0 Sr3 2.625035 1_555
N0 Sr4 2.625035 1_555
N0 Sr7 2.625035 1_555
N1 Sr1 2.840247 1_555
N1 Sr2 2.840247 1_455
N1 Sr5 2.840247 1_545
N1 Sr6 2.840247 1_445
N2 Sr6 2.625035 1_555
N2 Sr5 2.625035 1_555
N2 Sr0 2.625035 1_555
N2 Sr3 2.625035 1_555
N3 Sr7 2.840247 1_555
N3 Sr4 2.840247 1_455
N3 Sr1 2.840247 1_554
N3 Sr2 2.840247 1_454
N4 Sr7 2.840247 1_555
N4 Sr3 2.840247 1_545
N4 Sr1 2.840247 1_554
N4 Sr5 2.840247 1_544
N5 Sr6 2.625035 1_555
N5 Sr2 2.625035 1_555
N5 Sr0 2.625035 1_555
N5 Sr4 2.625035 1_555
N6 Sr6 2.625035 1_555
N6 Sr5 2.625035 1_555
N6 Sr2 2.625035 1_555
N6 Sr1 2.625035 1_555
N7 Sr7 2.840247 1_555
N7 Sr3 2.840247 1_545
N7 Sr4 2.840247 1_455
N7 Sr0 2.840247 1_445
N8 Sr2 2.625035 1_555
N8 Sr4 2.625035 1_555
N8 Sr1 2.625035 1_555
N8 Sr7 2.625035 1_555
N9 Sr3 2.840247 1_555
N9 Sr5 2.840247 1_554
N9 Sr0 2.840247 1_455
N9 Sr6 2.840247 1_454
N10 Sr4 2.840247 1_555
N10 Sr0 2.840247 1_545
N10 Sr2 2.840247 1_554
N10 Sr6 2.840247 1_544
N11 Sr5 2.625035 1_555
N11 Sr3 2.625035 1_555
N11 Sr1 2.625035 1_555
N11 Sr7 2.625035 1_555
