# generated using pymatgen
data_CsScZnAs2
_symmetry_space_group_name_H-M   'P 1'
_cell_length_a   8.27042881
_cell_length_b   8.27042906
_cell_length_c   8.27042808
_cell_angle_alpha   149.58920877
_cell_angle_beta   149.58920855
_cell_angle_gamma   43.54473536
_symmetry_Int_Tables_number   1
_chemical_formula_structural   CsScZnAs2
_chemical_formula_sum   'Cs1 Sc1 Zn1 As2'
_cell_volume   144.55515259
_cell_formula_units_Z   1
loop_
 _symmetry_equiv_pos_site_id
 _symmetry_equiv_pos_as_xyz
  1  'x, y, z'
loop_
 _atom_site_type_symbol
 _atom_site_label
 _atom_site_symmetry_multiplicity
 _atom_site_fract_x
 _atom_site_fract_y
 _atom_site_fract_z
 _atom_site_occupancy
  Cs  Cs0  1  0.00000000  0.00000000  0.00000000  1
  Sc  Sc0  1  0.75000000  0.25000000  0.50000000  1
  Zn  Zn0  1  0.25000000  0.75000000  0.50000000  1
  As  As0  1  0.65485111  0.65485111  1.00000000  1
  As  As1  1  0.34514889  0.34514889  0.00000000  1
loop_
_geom_bond_atom_site_label_1
_geom_bond_atom_site_label_2
_geom_bond_distance
_geom_bond_site_symmetry_2
As0 Sc0 2.615624 1_555
As0 Zn0 2.615624 1_555
As0 Zn0 2.615624 1_656
As0 Sc0 2.615624 1_566
As0 Cs0 3.881826 1_667
As0 Cs0 3.881827 1_566
As0 Cs0 3.881827 1_656
As0 Cs0 3.881827 1_555
As1 Zn0 2.615624 1_555
As1 Sc0 2.615624 1_555
As1 Sc0 2.615624 1_454
As1 Zn0 2.615624 1_544
As1 Cs0 3.881826 1_554
As1 Cs0 3.881827 1_655
As1 Cs0 3.881827 1_565
As1 Cs0 3.881827 1_666
