# generated using pymatgen
data_Nb3In(AsO4)6
_symmetry_space_group_name_H-M   'P 1'
_cell_length_a   9.31551332
_cell_length_b   9.31551254
_cell_length_c   9.31551196
_cell_angle_alpha   57.10529527
_cell_angle_beta   57.10529853
_cell_angle_gamma   57.10529722
_symmetry_Int_Tables_number   1
_chemical_formula_structural   Nb3In(AsO4)6
_chemical_formula_sum   'Nb3 In1 As6 O24'
_cell_volume   533.48444283
_cell_formula_units_Z   1
loop_
 _symmetry_equiv_pos_site_id
 _symmetry_equiv_pos_as_xyz
  1  'x, y, z'
loop_
 _atom_site_type_symbol
 _atom_site_label
 _atom_site_symmetry_multiplicity
 _atom_site_fract_x
 _atom_site_fract_y
 _atom_site_fract_z
 _atom_site_occupancy
  Nb  Nb0  1  0.85729439  0.85729439  0.85729439  1
  Nb  Nb1  1  0.64047246  0.64047246  0.64047246  1
  Nb  Nb2  1  0.36109066  0.36109066  0.36109066  1
  In  In0  1  0.14154519  0.14154519  0.14154519  1
  As  As0  1  0.25477071  0.52279154  0.96729480  1
  As  As1  1  0.96729480  0.25477071  0.52279154  1
  As  As2  1  0.52279154  0.96729480  0.25477071  1
  As  As3  1  0.47453325  0.03125112  0.74845611  1
  As  As4  1  0.03125112  0.74845611  0.47453325  1
  As  As5  1  0.74845611  0.47453325  0.03125112  1
  O  O0  1  0.66724732  0.52124453  0.88076155  1
  O  O1  1  0.52124453  0.88076155  0.66724732  1
  O  O2  1  0.04331450  0.68733876  0.97473506  1
  O  O3  1  0.88076155  0.66724732  0.52124453  1
  O  O4  1  0.39876733  0.61681303  0.76385582  1
  O  O5  1  0.29059471  0.32521774  0.97328690  1
  O  O6  1  0.97473506  0.04331450  0.68733876  1
  O  O7  1  0.76385582  0.39876733  0.61681303  1
  O  O8  1  0.61681303  0.76385582  0.39876733  1
  O  O9  1  0.67617516  0.01231985  0.72840440  1
  O  O10  1  0.32067422  0.99606425  0.95736576  1
  O  O11  1  0.01231985  0.72840440  0.67617516  1
  O  O12  1  0.97328690  0.29059471  0.32521774  1
  O  O13  1  0.68733876  0.97473506  0.04331450  1
  O  O14  1  0.32521774  0.97328690  0.29059471  1
  O  O15  1  0.40282445  0.23809782  0.59329881  1
  O  O16  1  0.23809782  0.59329881  0.40282445  1
  O  O17  1  0.99606425  0.95736576  0.32067422  1
  O  O18  1  0.72840440  0.67617516  0.01231985  1
  O  O19  1  0.59329881  0.40282445  0.23809782  1
  O  O20  1  0.13753119  0.29286443  0.50170322  1
  O  O21  1  0.95736576  0.32067422  0.99606425  1
  O  O22  1  0.50170322  0.13753119  0.29286443  1
  O  O23  1  0.29286443  0.50170322  0.13753119  1
loop_
_geom_bond_atom_site_label_1
_geom_bond_atom_site_label_2
_geom_bond_distance
_geom_bond_site_symmetry_2
Nb0 O13 1.975894 1_556
Nb0 O2 1.975894 1_655
Nb0 O6 1.975894 1_565
Nb0 O11 2.011041 1_655
Nb0 O9 2.011041 1_565
Nb0 O18 2.011041 1_556
Nb1 O8 1.972875 1_555
Nb1 O7 1.972875 1_555
Nb1 O4 1.972876 1_555
Nb1 O0 1.977727 1_555
Nb1 O1 1.977727 1_555
Nb1 O3 1.977727 1_555
Nb2 O15 1.969934 1_555
Nb2 O16 1.969934 1_555
Nb2 O19 1.969935 1_555
Nb2 O23 2.006789 1_555
Nb2 O22 2.006789 1_555
Nb2 O20 2.006789 1_555
In0 O10 2.127049 1_544
In0 O21 2.127049 1_454
In0 O17 2.127049 1_445
In0 O12 2.148423 1_455
In0 O14 2.148423 1_545
In0 O5 2.148423 1_554
As0 O5 1.656327 1_555
As0 O4 1.694102 1_555
As0 O23 1.696042 1_556
As0 O2 1.709395 1_555
As1 O12 1.656327 1_555
As1 O7 1.694102 1_555
As1 O20 1.696042 1_655
As1 O6 1.709395 1_555
As2 O14 1.656328 1_555
As2 O8 1.694102 1_555
As2 O22 1.696042 1_565
As2 O13 1.709395 1_555
As3 O10 1.654305 1_545
As3 O1 1.690774 1_545
As3 O15 1.695202 1_555
As3 O9 1.699771 1_555
As4 O17 1.654305 1_455
As4 O3 1.690774 1_455
As4 O16 1.695203 1_555
As4 O11 1.699771 1_555
As5 O21 1.654305 1_554
As5 O0 1.690774 1_554
As5 O19 1.695203 1_555
As5 O18 1.699771 1_555
