# generated using pymatgen
data_Hf10BeSn7
_symmetry_space_group_name_H-M   'P 1'
_cell_length_a   5.82561179
_cell_length_b   8.59501623
_cell_length_c   8.59501082
_cell_angle_alpha   120.00003055
_cell_angle_beta   90.00001104
_cell_angle_gamma   90.00000988
_symmetry_Int_Tables_number   1
_chemical_formula_structural   Hf10BeSn7
_chemical_formula_sum   'Hf10 Be1 Sn7'
_cell_volume   372.70495568
_cell_formula_units_Z   1
loop_
 _symmetry_equiv_pos_site_id
 _symmetry_equiv_pos_as_xyz
  1  'x, y, z'
loop_
 _atom_site_type_symbol
 _atom_site_label
 _atom_site_symmetry_multiplicity
 _atom_site_fract_x
 _atom_site_fract_y
 _atom_site_fract_z
 _atom_site_occupancy
  Hf  Hf0  1  0.50000100  0.33333500  0.66667100  1
  Hf  Hf1  1  0.50000000  0.66666400  0.33333000  1
  Hf  Hf2  1  0.00000100  0.66666700  0.33333300  1
  Hf  Hf3  1  0.00000100  0.33333400  0.66666600  1
  Hf  Hf4  1  0.72457674  0.26584180  0.99999968  1
  Hf  Hf5  1  0.72458074  0.73415989  0.73416320  1
  Hf  Hf6  1  0.72457974  0.99999632  0.26583711  1
  Hf  Hf7  1  0.27542026  0.73415889  0.00000068  1
  Hf  Hf8  1  0.27541926  0.26584080  0.26583711  1
  Hf  Hf9  1  0.27541926  0.00000332  0.73416220  1
  Be  Be0  1  0.50000000  0.00000000  0.00000000  1
  Sn  Sn0  1  0.75893738  0.60990825  0.00000001  1
  Sn  Sn1  1  0.75893738  0.39008676  0.39009175  1
  Sn  Sn2  1  0.75893438  0.99999899  0.60990824  1
  Sn  Sn3  1  0.24106162  0.39009176  0.00000001  1
  Sn  Sn4  1  0.24106562  0.60990925  0.60990824  1
  Sn  Sn5  1  0.24106662  0.00000299  0.39009175  1
  Sn  Sn6  1  0.99999900  0.00000000  0.00000000  1
loop_
_geom_bond_atom_site_label_1
_geom_bond_atom_site_label_2
_geom_bond_distance
_geom_bond_site_symmetry_2
Hf0 Sn0 3.053502 1_556
Hf0 Sn3 3.053509 1_556
Hf0 Sn5 3.053527 1_555
Hf0 Sn1 3.053529 1_555
Hf0 Sn2 3.053529 1_545
Hf0 Sn4 3.053542 1_555
Hf1 Sn3 3.053510 1_555
Hf1 Sn0 3.053513 1_555
Hf1 Sn4 3.053530 1_555
Hf1 Sn2 3.053538 1_555
Hf1 Sn5 3.053554 1_565
Hf1 Sn1 3.053565 1_555
Hf2 Sn3 3.003447 1_555
Hf2 Sn0 3.003452 1_455
Hf2 Sn4 3.003459 1_555
Hf2 Sn2 3.003460 1_455
Hf2 Sn5 3.003482 1_565
Hf2 Sn1 3.003499 1_455
Hf3 Sn1 3.003425 1_455
Hf3 Sn5 3.003449 1_555
Hf3 Sn3 3.003455 1_556
Hf3 Sn0 3.003458 1_456
Hf3 Sn4 3.003460 1_555
Hf3 Sn2 3.003480 1_445
Hf4 Sn6 2.792001 1_556
Hf4 Sn0 2.964022 1_556
Hf4 Sn2 2.973463 1_545
Hf4 Sn1 2.973476 1_556
Hf4 Sn3 3.012420 1_556
Hf4 Sn3 3.192741 1_656
Hf5 Sn6 2.791961 1_566
Hf5 Sn1 2.964070 1_555
Hf5 Sn0 2.973435 1_556
Hf5 Sn2 2.973475 1_555
Hf5 Sn4 3.012428 1_555
Hf5 Sn4 3.192749 1_655
Hf6 Sn6 2.791969 1_565
Hf6 Sn2 2.964048 1_555
Hf6 Sn0 2.973433 1_555
Hf6 Sn1 2.973447 1_565
Hf6 Sn5 3.012414 1_565
Hf6 Sn5 3.192756 1_665
Hf7 Sn6 2.791995 1_465
Hf7 Sn3 2.964026 1_555
Hf7 Sn5 2.973462 1_565
Hf7 Sn4 2.973469 1_554
Hf7 Sn0 3.012432 1_555
Hf7 Sn0 3.192731 1_455
Hf8 Sn6 2.791972 1_455
Hf8 Sn4 2.964047 1_555
Hf8 Sn3 2.973433 1_555
Hf8 Sn5 2.973462 1_555
Hf8 Sn1 3.012437 1_555
Hf8 Sn1 3.192726 1_455
Hf9 Sn6 2.791976 1_456
Hf9 Sn5 2.964052 1_555
Hf9 Sn3 2.973437 1_556
Hf9 Sn4 2.973476 1_545
Hf9 Sn2 3.012426 1_545
Hf9 Sn2 3.192746 1_445
Be0 Hf5 2.632945 1_544
Be0 Hf6 2.632945 1_545
Be0 Hf8 2.632949 1_555
Be0 Hf9 2.632952 1_554
Be0 Hf4 2.632960 1_554
Be0 Hf7 2.632965 1_545
Be0 Sn6 2.912800 1_555
Be0 Sn6 2.912812 1_455
