# generated using pymatgen
data_Zr2Ga4CuRh
_symmetry_space_group_name_H-M   'P 1'
_cell_length_a   5.30894640
_cell_length_b   5.30894697
_cell_length_c   6.36755628
_cell_angle_alpha   90.00000000
_cell_angle_beta   90.00000000
_cell_angle_gamma   134.06841813
_symmetry_Int_Tables_number   1
_chemical_formula_structural   Zr2Ga4CuRh
_chemical_formula_sum   'Zr2 Ga4 Cu1 Rh1'
_cell_volume   128.95025463
_cell_formula_units_Z   1
loop_
 _symmetry_equiv_pos_site_id
 _symmetry_equiv_pos_as_xyz
  1  'x, y, z'
loop_
 _atom_site_type_symbol
 _atom_site_label
 _atom_site_symmetry_multiplicity
 _atom_site_fract_x
 _atom_site_fract_y
 _atom_site_fract_z
 _atom_site_occupancy
  Zr  Zr0  1  0.41998435  0.58001565  0.25000000  1
  Zr  Zr1  1  0.57892436  0.42107564  0.75000000  1
  Ga  Ga0  1  0.12815242  0.87184758  0.05305384  1
  Ga  Ga1  1  0.12815242  0.87184758  0.44694616  1
  Ga  Ga2  1  0.87265356  0.12734644  0.54716638  1
  Ga  Ga3  1  0.87265356  0.12734644  0.95283362  1
  Cu  Cu0  1  0.70501350  0.29498750  0.25000000  1
  Rh  Rh0  1  0.29446783  0.70553317  0.75000000  1
loop_
_geom_bond_atom_site_label_1
_geom_bond_atom_site_label_2
_geom_bond_distance
_geom_bond_site_symmetry_2
Zr0 Zr1 3.542722 1_554
Zr0 Zr1 3.542722 1_555
Ga0 Ga1 2.508131 1_555
Ga0 Rh0 2.523387 1_554
Ga0 Ga3 2.578064 1_464
Ga0 Zr1 2.871641 1_454
Ga0 Zr1 2.871642 1_564
Ga0 Zr0 3.116487 1_555
Ga0 Zr0 3.163112 1_455
Ga0 Zr0 3.163113 1_565
Ga1 Rh0 2.523387 1_555
Ga1 Ga2 2.578064 1_465
Ga1 Zr1 2.871641 1_455
Ga1 Zr1 2.871642 1_565
Ga1 Zr0 3.116487 1_555
Ga1 Zr0 3.163112 1_455
Ga1 Zr0 3.163113 1_565
Ga2 Rh0 2.557984 1_545
Ga2 Rh0 2.557988 1_655
Ga2 Ga3 2.583109 1_555
Ga2 Zr0 2.843508 1_655
Ga2 Zr0 2.843508 1_545
Ga2 Zr1 3.148668 1_555
Ga2 Zr1 3.166317 1_655
Ga2 Zr1 3.166317 1_545
Ga3 Rh0 2.557984 1_545
Ga3 Rh0 2.557988 1_655
Ga3 Zr0 2.843508 1_656
Ga3 Zr0 2.843508 1_546
Ga3 Zr1 3.148668 1_555
Ga3 Zr1 3.166317 1_655
Ga3 Zr1 3.166317 1_545
Cu0 Ga2 2.503301 1_555
Cu0 Ga3 2.503301 1_554
Cu0 Ga1 2.535391 1_655
Cu0 Ga0 2.535391 1_655
Cu0 Ga1 2.535394 1_545
Cu0 Ga0 2.535394 1_545
Cu0 Zr0 2.786525 1_555
Cu0 Zr0 2.950886 1_655
Cu0 Zr0 2.950890 1_545
Cu0 Zr1 3.414080 1_554
Cu0 Zr1 3.414080 1_555
Rh0 Zr1 2.780937 1_555
Rh0 Zr1 2.954869 1_565
Rh0 Zr1 2.954872 1_455
Rh0 Zr0 3.412066 1_555
Rh0 Zr0 3.412066 1_556
