# generated using pymatgen
data_Li3Y3CdP2
_symmetry_space_group_name_H-M   'P 1'
_cell_length_a   7.03587031
_cell_length_b   7.03586903
_cell_length_c   4.13628603
_cell_angle_alpha   90.00000000
_cell_angle_beta   90.00000000
_cell_angle_gamma   119.99999210
_symmetry_Int_Tables_number   1
_chemical_formula_structural   Li3Y3CdP2
_chemical_formula_sum   'Li3 Y3 Cd1 P2'
_cell_volume   177.32779001
_cell_formula_units_Z   1
loop_
 _symmetry_equiv_pos_site_id
 _symmetry_equiv_pos_as_xyz
  1  'x, y, z'
loop_
 _atom_site_type_symbol
 _atom_site_label
 _atom_site_symmetry_multiplicity
 _atom_site_fract_x
 _atom_site_fract_y
 _atom_site_fract_z
 _atom_site_occupancy
  Li  Li0  1  0.25788559  0.00000000  0.50000000  1
  Li  Li1  1  0.74211441  0.74211441  0.50000000  1
  Li  Li2  1  0.00000000  0.25788559  0.50000000  1
  Y  Y0  1  0.00000000  0.56931165  0.00000000  1
  Y  Y1  1  0.56931165  0.00000000  0.00000000  1
  Y  Y2  1  0.43068835  0.43068835  0.00000000  1
  Cd  Cd0  1  0.00000000  0.00000000  0.00000000  1
  P  P0  1  0.33333300  0.66666700  0.50000000  1
  P  P1  1  0.66666700  0.33333300  0.50000000  1
loop_
_geom_bond_atom_site_label_1
_geom_bond_atom_site_label_2
_geom_bond_distance
_geom_bond_site_symmetry_2
Li0 P0 2.650873 1_545
Li0 P1 2.650879 1_555
Li0 Y1 3.013033 1_556
Li0 Y1 3.013033 1_555
Li1 P1 2.650880 1_555
Li1 P0 2.650881 1_555
Li1 Y2 3.013033 1_556
Li1 Y2 3.013033 1_555
Li2 P1 2.650874 1_455
Li2 P0 2.650878 1_555
Li2 Y0 3.013033 1_556
Li2 Y0 3.013033 1_555
Cd0 Li2 2.751262 1_555
Cd0 Li2 2.751262 1_554
Cd0 Li0 2.751262 1_554
Cd0 Li0 2.751262 1_555
Cd0 Li1 2.751262 1_444
Cd0 Li1 2.751262 1_445
Cd0 Y0 3.030267 1_545
Cd0 Y1 3.030267 1_455
Cd0 Y2 3.030267 1_555
P0 Y0 2.939441 1_556
P0 Y0 2.939441 1_555
P0 Y1 2.939442 1_566
P0 Y1 2.939442 1_565
P0 Y2 2.939445 1_556
P0 Y2 2.939445 1_555
P1 Y1 2.939441 1_556
P1 Y1 2.939441 1_555
P1 Y0 2.939442 1_655
P1 Y0 2.939442 1_656
P1 Y2 2.939446 1_555
P1 Y2 2.939446 1_556
