# generated using pymatgen
data_Nb3Al(AsO4)6
_symmetry_space_group_name_H-M   'P 1'
_cell_length_a   9.20874599
_cell_length_b   9.20874712
_cell_length_c   9.20874605
_cell_angle_alpha   56.85509909
_cell_angle_beta   56.85510021
_cell_angle_gamma   56.85510187
_symmetry_Int_Tables_number   1
_chemical_formula_structural   Nb3Al(AsO4)6
_chemical_formula_sum   'Nb3 Al1 As6 O24'
_cell_volume   512.11751036
_cell_formula_units_Z   1
loop_
 _symmetry_equiv_pos_site_id
 _symmetry_equiv_pos_as_xyz
  1  'x, y, z'
loop_
 _atom_site_type_symbol
 _atom_site_label
 _atom_site_symmetry_multiplicity
 _atom_site_fract_x
 _atom_site_fract_y
 _atom_site_fract_z
 _atom_site_occupancy
  Nb  Nb0  1  0.85615311  0.85615311  0.85615311  1
  Nb  Nb1  1  0.64116726  0.64116726  0.64116726  1
  Nb  Nb2  1  0.36260697  0.36260697  0.36260697  1
  Al  Al0  1  0.14610301  0.14610301  0.14610301  1
  As  As0  1  0.25571787  0.50921756  0.97232688  1
  As  As1  1  0.97232688  0.25571787  0.50921756  1
  As  As2  1  0.50921756  0.97232688  0.25571787  1
  As  As3  1  0.45633874  0.03167321  0.77043058  1
  As  As4  1  0.03167321  0.77043058  0.45633874  1
  As  As5  1  0.77043058  0.45633874  0.03167321  1
  O  O0  1  0.71116416  0.49369329  0.86572668  1
  O  O1  1  0.49369329  0.86572668  0.71116416  1
  O  O2  1  0.04509576  0.68149219  0.97399596  1
  O  O3  1  0.86572668  0.71116416  0.49369329  1
  O  O4  1  0.40906741  0.59300725  0.76684920  1
  O  O5  1  0.28587528  0.30602378  0.99040183  1
  O  O6  1  0.97399596  0.04509576  0.68149219  1
  O  O7  1  0.76684920  0.40906741  0.59300725  1
  O  O8  1  0.59300725  0.76684920  0.40906741  1
  O  O9  1  0.66816989  0.01163122  0.73209558  1
  O  O10  1  0.30370596  0.01229985  0.98307507  1
  O  O11  1  0.01163122  0.73209558  0.66816989  1
  O  O12  1  0.99040183  0.28587528  0.30602378  1
  O  O13  1  0.68149219  0.97399596  0.04509576  1
  O  O14  1  0.30602378  0.99040183  0.28587528  1
  O  O15  1  0.39076626  0.23718952  0.60442364  1
  O  O16  1  0.23718952  0.60442364  0.39076626  1
  O  O17  1  0.01229985  0.98307507  0.30370596  1
  O  O18  1  0.73209558  0.66816989  0.01163122  1
  O  O19  1  0.60442364  0.39076626  0.23718952  1
  O  O20  1  0.13513713  0.29714136  0.50023955  1
  O  O21  1  0.98307507  0.30370596  0.01229985  1
  O  O22  1  0.50023955  0.13513713  0.29714136  1
  O  O23  1  0.29714136  0.50023955  0.13513713  1
loop_
_geom_bond_atom_site_label_1
_geom_bond_atom_site_label_2
_geom_bond_distance
_geom_bond_site_symmetry_2
Nb0 O2 1.971749 1_655
Nb0 O6 1.971749 1_565
Nb0 O13 1.971749 1_556
Nb0 O9 2.003839 1_565
Nb0 O18 2.003839 1_556
Nb0 O11 2.003839 1_655
Nb1 O8 1.968418 1_555
Nb1 O4 1.968418 1_555
Nb1 O7 1.968419 1_555
Nb1 O0 1.991343 1_555
Nb1 O3 1.991343 1_555
Nb1 O1 1.991343 1_555
Nb2 O15 1.962518 1_555
Nb2 O19 1.962518 1_555
Nb2 O16 1.962518 1_555
Nb2 O23 1.999957 1_555
Nb2 O20 1.999957 1_555
Nb2 O22 1.999958 1_555
Al0 O21 1.887622 1_455
Al0 O17 1.887622 1_545
Al0 O10 1.887622 1_554
Al0 O14 1.904460 1_545
Al0 O5 1.904460 1_554
Al0 O12 1.904460 1_455
As0 O5 1.657649 1_555
As0 O4 1.686106 1_555
As0 O23 1.689835 1_556
As0 O2 1.705358 1_555
As1 O12 1.657649 1_555
As1 O7 1.686106 1_555
As1 O20 1.689835 1_655
As1 O6 1.705358 1_555
As2 O14 1.657649 1_555
As2 O8 1.686106 1_555
As2 O22 1.689835 1_565
As2 O13 1.705358 1_555
As3 O10 1.650568 1_555
As3 O15 1.696869 1_555
As3 O1 1.698046 1_545
As3 O9 1.699540 1_555
As4 O17 1.650568 1_555
As4 O16 1.696869 1_555
As4 O3 1.698045 1_455
As4 O11 1.699540 1_555
As5 O21 1.650568 1_555
As5 O19 1.696869 1_555
As5 O0 1.698045 1_554
As5 O18 1.699540 1_555
