# generated using pymatgen
data_TlAsSe2
_symmetry_space_group_name_H-M   'P 1'
_cell_length_a   24.58965900
_cell_length_b   6.45901600
_cell_length_c   12.75389244
_cell_angle_alpha   71.19391135
_cell_angle_beta   90.00000000
_cell_angle_gamma   90.00000000
_symmetry_Int_Tables_number   1
_chemical_formula_structural   TlAsSe2
_chemical_formula_sum   'Tl16 As16 Se32'
_cell_volume   1917.49836550
_cell_formula_units_Z   16
loop_
 _symmetry_equiv_pos_site_id
 _symmetry_equiv_pos_as_xyz
  1  'x, y, z'
loop_
 _atom_site_type_symbol
 _atom_site_label
 _atom_site_symmetry_multiplicity
 _atom_site_fract_x
 _atom_site_fract_y
 _atom_site_fract_z
 _atom_site_occupancy
  Tl  Tl0  1  0.57610700  0.65117800  0.87701300  1
  Tl  Tl1  1  0.07610700  0.34882200  0.62298700  1
  Tl  Tl2  1  0.42389300  0.34882200  0.12298700  1
  Tl  Tl3  1  0.92389300  0.65117800  0.37701300  1
  Tl  Tl4  1  0.56534000  0.36450800  0.61023000  1
  Tl  Tl5  1  0.06534000  0.63549200  0.88977000  1
  Tl  Tl6  1  0.43466000  0.63549200  0.38977000  1
  Tl  Tl7  1  0.93466000  0.36450800  0.11023000  1
  Tl  Tl8  1  0.67316800  0.81917300  0.50384400  1
  Tl  Tl9  1  0.17316800  0.18082700  0.99615600  1
  Tl  Tl10  1  0.32683200  0.18082700  0.49615600  1
  Tl  Tl11  1  0.82683200  0.81917300  0.00384400  1
  Tl  Tl12  1  0.68050700  0.55478200  0.22857500  1
  Tl  Tl13  1  0.18050700  0.44521800  0.27142500  1
  Tl  Tl14  1  0.31949300  0.44521800  0.77142500  1
  Tl  Tl15  1  0.81949300  0.55478200  0.72857500  1
  As  As0  1  0.55312100  0.92455200  0.10835200  1
  As  As1  1  0.80992900  0.13960100  0.24602900  1
  As  As2  1  0.30992900  0.86039900  0.25397100  1
  As  As3  1  0.19007100  0.86039900  0.75397100  1
  As  As4  1  0.69007100  0.13960100  0.74602900  1
  As  As5  1  0.71049900  0.27820400  0.00281400  1
  As  As6  1  0.21049900  0.72179600  0.49718600  1
  As  As7  1  0.28950100  0.72179600  0.99718600  1
  As  As8  1  0.78950100  0.27820400  0.50281400  1
  As  As9  1  0.05312100  0.07544800  0.39164800  1
  As  As10  1  0.44687900  0.07544800  0.89164800  1
  As  As11  1  0.94687900  0.92455200  0.60835200  1
  As  As12  1  0.55039500  0.08669300  0.35820100  1
  As  As13  1  0.05039500  0.91330700  0.14179900  1
  As  As14  1  0.44960500  0.91330700  0.64179900  1
  As  As15  1  0.94960500  0.08669300  0.85820100  1
  Se  Se0  1  0.81046900  0.50253900  0.26053300  1
  Se  Se1  1  0.30631500  0.65921400  0.51623600  1
  Se  Se2  1  0.19368500  0.65921400  0.01623600  1
  Se  Se3  1  0.69368500  0.34078600  0.48376400  1
  Se  Se4  1  0.80460900  0.94094600  0.45290200  1
  Se  Se5  1  0.30460900  0.05905400  0.04709800  1
  Se  Se6  1  0.19539100  0.05905400  0.54709800  1
  Se  Se7  1  0.54365300  0.14678000  0.88996800  1
  Se  Se8  1  0.69539100  0.94094600  0.95290200  1
  Se  Se9  1  0.78570300  0.06830200  0.71449000  1
  Se  Se10  1  0.28570300  0.93169800  0.78551000  1
  Se  Se11  1  0.21429700  0.93169800  0.28551000  1
  Se  Se12  1  0.71429700  0.06830200  0.21449000  1
  Se  Se13  1  0.68953100  0.50253900  0.76053300  1
  Se  Se14  1  0.18953100  0.49746100  0.73946700  1
  Se  Se15  1  0.31046900  0.49746100  0.23946700  1
  Se  Se16  1  0.94028300  0.72172200  0.83872700  1
  Se  Se17  1  0.44028300  0.27827800  0.66127300  1
  Se  Se18  1  0.05971700  0.27827800  0.16127300  1
  Se  Se19  1  0.55971700  0.72172200  0.33872700  1
  Se  Se20  1  0.93947600  0.26939900  0.65013300  1
  Se  Se21  1  0.43947600  0.73060100  0.84986700  1
  Se  Se22  1  0.06052400  0.73060100  0.34986700  1
  Se  Se23  1  0.56052400  0.26939900  0.15013300  1
  Se  Se24  1  0.95474800  0.85279700  0.12540700  1
  Se  Se25  1  0.45474800  0.14720300  0.37459300  1
  Se  Se26  1  0.04525200  0.14720300  0.87459300  1
  Se  Se27  1  0.54525200  0.85279700  0.62540700  1
  Se  Se28  1  0.95634700  0.14678000  0.38996800  1
  Se  Se29  1  0.45634700  0.85322000  0.11003200  1
  Se  Se30  1  0.04365300  0.85322000  0.61003200  1
  Se  Se31  1  0.80631500  0.34078600  0.98376400  1
loop_
_geom_bond_atom_site_label_1
_geom_bond_atom_site_label_2
_geom_bond_distance
_geom_bond_site_symmetry_2
As0 Se29 2.422613 1_555
As0 Se23 2.458355 1_565
As0 Se7 2.700841 1_564
As0 Se19 2.809586 1_555
As1 Se0 2.410260 1_555
As1 Se12 2.454208 1_555
As1 Se4 2.538140 1_545
As2 Se15 2.410260 1_555
As2 Se11 2.454208 1_555
As2 Se5 2.538140 1_565
As3 Se14 2.410260 1_555
As3 Se10 2.454208 1_555
As3 Se6 2.538140 1_565
As4 Se13 2.410260 1_555
As4 Se9 2.454208 1_555
As4 Se8 2.538140 1_545
As5 Se31 2.389609 1_554
As5 Se8 2.486464 1_544
As5 Se12 2.602948 1_555
As5 Se13 3.004485 1_554
As6 Se1 2.389609 1_555
As6 Se6 2.486464 1_565
As6 Se11 2.602948 1_555
As6 Se14 3.004485 1_555
As7 Se2 2.389609 1_556
As7 Se5 2.486464 1_566
As7 Se10 2.602948 1_555
As7 Se15 3.004485 1_556
As8 Se3 2.389609 1_555
As8 Se4 2.486464 1_545
As8 Se9 2.602948 1_555
As8 Se0 3.004485 1_555
As9 Se28 2.422613 1_455
As9 Se22 2.458355 1_545
As9 Se30 2.700841 1_545
As9 Se18 2.809586 1_555
As10 Se7 2.422613 1_555
As10 Se21 2.458355 1_545
As10 Se29 2.700841 1_546
As10 Se17 2.809586 1_555
As11 Se30 2.422613 1_655
As11 Se20 2.458355 1_565
As11 Se28 2.700841 1_565
As11 Se16 2.809586 1_555
As12 Se25 2.404309 1_555
As12 Se19 2.459438 1_545
As12 Se23 2.545118 1_555
As13 Se24 2.404309 1_455
As13 Se18 2.459438 1_565
As13 Se22 2.545118 1_555
As14 Se27 2.404309 1_555
As14 Se17 2.459438 1_565
As14 Se21 2.545118 1_555
As15 Se26 2.404309 1_655
As15 Se16 2.459438 1_545
As15 Se20 2.545118 1_555
Se0 Tl12 3.225516 1_555
Se0 Tl11 3.278026 1_555
Se0 Tl3 3.439045 1_555
Se1 Tl14 3.115745 1_555
Se1 Tl10 3.221466 1_555
Se1 Tl10 3.333872 1_565
Se2 Tl13 3.115745 1_555
Se2 Tl9 3.221466 1_554
Se2 Tl9 3.333872 1_564
Se3 Tl12 3.115745 1_555
Se3 Tl8 3.221466 1_555
Se3 Tl8 3.333872 1_545
Se4 Tl8 3.340313 1_555
Se5 Tl9 3.340313 1_554
Se6 Tl10 3.340313 1_555
Se7 Tl0 3.306223 1_555
Se7 Tl0 3.354431 1_545
Se7 Tl4 3.428712 1_555
Se8 Tl11 3.340313 1_556
Se9 Tl15 3.310570 1_555
Se9 Tl15 3.367473 1_545
Se10 Tl14 3.310570 1_555
Se10 Tl14 3.367473 1_565
Se11 Tl13 3.310570 1_555
Se11 Tl13 3.367473 1_565
Se12 Tl12 3.310570 1_555
Se12 Tl12 3.367473 1_545
Se13 Tl15 3.225516 1_555
Se13 Tl8 3.278026 1_555
Se13 Tl0 3.439045 1_555
Se14 Tl14 3.225516 1_555
Se14 Tl9 3.278026 1_555
Se14 Tl1 3.439045 1_555
Se15 Tl13 3.225516 1_555
Se15 Tl10 3.278026 1_555
Se15 Tl2 3.439045 1_555
Se16 Tl5 3.155397 1_655
Se17 Tl4 3.155397 1_555
Se18 Tl7 3.155397 1_455
Se19 Tl6 3.155397 1_555
Se20 Tl1 3.399437 1_655
Se21 Tl0 3.399437 1_555
Se22 Tl3 3.399437 1_455
Se23 Tl2 3.399437 1_555
Se24 Tl3 3.142397 1_555
Se24 Tl7 3.259131 1_555
Se24 Tl7 3.285270 1_565
Se25 Tl2 3.142397 1_555
Se25 Tl6 3.259131 1_555
Se25 Tl6 3.285270 1_545
Se26 Tl1 3.142397 1_555
Se26 Tl5 3.259131 1_555
Se26 Tl5 3.285270 1_545
Se27 Tl0 3.142397 1_555
Se27 Tl4 3.259131 1_555
Se27 Tl4 3.285270 1_565
Se28 Tl3 3.306223 1_555
Se28 Tl3 3.354431 1_545
Se28 Tl7 3.428712 1_555
Se29 Tl2 3.306223 1_555
Se29 Tl2 3.354431 1_565
Se29 Tl6 3.428712 1_555
Se30 Tl1 3.306223 1_555
Se30 Tl1 3.354431 1_565
Se30 Tl5 3.428712 1_555
Se31 Tl15 3.115745 1_555
Se31 Tl11 3.221466 1_556
Se31 Tl11 3.333872 1_546
