# generated using pymatgen
data_Ta8Al6Mo2C
_symmetry_space_group_name_H-M   'P 1'
_cell_length_a   7.75188044
_cell_length_b   7.75187999
_cell_length_c   5.16356843
_cell_angle_alpha   90.00000000
_cell_angle_beta   90.00000000
_cell_angle_gamma   120.00000191
_symmetry_Int_Tables_number   1
_chemical_formula_structural   Ta8Al6Mo2C
_chemical_formula_sum   'Ta8 Al6 Mo2 C1'
_cell_volume   268.71670568
_cell_formula_units_Z   1
loop_
 _symmetry_equiv_pos_site_id
 _symmetry_equiv_pos_as_xyz
  1  'x, y, z'
loop_
 _atom_site_type_symbol
 _atom_site_label
 _atom_site_symmetry_multiplicity
 _atom_site_fract_x
 _atom_site_fract_y
 _atom_site_fract_z
 _atom_site_occupancy
  Ta  Ta0  1  0.66666700  0.33333300  0.00000000  1
  Ta  Ta1  1  0.33333300  0.66666700  0.00000000  1
  Ta  Ta2  1  1.00000000  0.76869022  0.24278463  1
  Ta  Ta3  1  0.23130978  0.23130978  0.24278463  1
  Ta  Ta4  1  0.76869022  0.00000000  0.24278463  1
  Ta  Ta5  1  0.00000000  0.23130978  0.75721537  1
  Ta  Ta6  1  0.76869022  0.76869022  0.75721537  1
  Ta  Ta7  1  0.23130978  0.00000000  0.75721537  1
  Al  Al0  1  0.00000000  0.40756760  0.26029987  1
  Al  Al1  1  0.59243240  0.59243240  0.26029987  1
  Al  Al2  1  0.40756760  0.00000000  0.26029987  1
  Al  Al3  1  1.00000000  0.59243240  0.73970013  1
  Al  Al4  1  0.40756760  0.40756760  0.73970013  1
  Al  Al5  1  0.59243240  0.00000000  0.73970013  1
  Mo  Mo0  1  0.33333300  0.66666700  0.50000000  1
  Mo  Mo1  1  0.66666700  0.33333300  0.50000000  1
  C  C0  1  0.00000000  0.00000000  0.50000000  1
loop_
_geom_bond_atom_site_label_1
_geom_bond_atom_site_label_2
_geom_bond_distance
_geom_bond_site_symmetry_2
Al0 Mo1 2.655739 1_455
Al0 Mo0 2.655741 1_555
Al0 Ta0 2.706949 1_455
Al0 Ta1 2.706951 1_555
Al0 Ta4 2.745931 1_455
Al0 Ta3 2.745931 1_555
Al0 Ta2 2.800840 1_455
Al0 Ta5 2.906971 1_555
Al0 Ta5 2.935125 1_554
Al1 Mo1 2.655746 1_555
Al1 Mo0 2.655746 1_555
Al1 Ta0 2.706955 1_555
Al1 Ta1 2.706955 1_555
Al1 Ta4 2.745931 1_565
Al1 Ta2 2.745931 1_555
Al1 Ta3 2.800840 1_555
Al1 Ta6 2.906971 1_555
Al1 Ta6 2.935125 1_554
Al2 Mo0 2.655739 1_545
Al2 Mo1 2.655741 1_555
Al2 Ta1 2.706948 1_545
Al2 Ta0 2.706951 1_555
Al2 Ta2 2.745931 1_445
Al2 Ta3 2.745931 1_555
Al2 Ta4 2.800840 1_555
Al2 Ta7 2.906971 1_555
Al2 Ta7 2.935125 1_554
Al3 Mo0 2.655739 1_655
Al3 Mo1 2.655741 1_555
Al3 Ta1 2.706949 1_656
Al3 Ta0 2.706951 1_556
Al3 Ta7 2.745931 1_665
Al3 Ta6 2.745931 1_555
Al3 Ta5 2.800840 1_655
Al3 Ta2 2.906971 1_555
Al3 Ta2 2.935125 1_556
Al4 Mo0 2.655746 1_555
Al4 Mo1 2.655746 1_555
Al4 Ta1 2.706955 1_556
Al4 Ta0 2.706955 1_556
Al4 Ta7 2.745931 1_555
Al4 Ta5 2.745931 1_555
Al4 Ta6 2.800840 1_555
Al4 Ta3 2.906971 1_555
Al4 Ta3 2.935125 1_556
Al5 Mo1 2.655739 1_555
Al5 Mo0 2.655741 1_545
Al5 Ta0 2.706948 1_556
Al5 Ta1 2.706951 1_546
Al5 Ta5 2.745931 1_655
Al5 Ta6 2.745931 1_545
Al5 Ta7 2.800840 1_555
Al5 Ta4 2.906971 1_555
Al5 Ta4 2.935125 1_556
Mo0 Ta1 2.581784 1_555
Mo0 Ta1 2.581784 1_556
Mo1 Ta0 2.581784 1_556
Mo1 Ta0 2.581784 1_555
C0 Ta3 2.231398 1_555
C0 Ta5 2.231398 1_555
C0 Ta2 2.231398 1_445
C0 Ta6 2.231398 1_445
C0 Ta7 2.231398 1_555
C0 Ta4 2.231398 1_455
