# generated using pymatgen
data_Rb4Sr2TiP4
_symmetry_space_group_name_H-M   'P 1'
_cell_length_a   10.30351389
_cell_length_b   10.30351366
_cell_length_c   7.65725289
_cell_angle_alpha   87.48839409
_cell_angle_beta   87.48839187
_cell_angle_gamma   119.11836917
_symmetry_Int_Tables_number   1
_chemical_formula_structural   Rb4Sr2TiP4
_chemical_formula_sum   'Rb8 Sr4 Ti2 P8'
_cell_volume   707.51197800
_cell_formula_units_Z   2
loop_
 _symmetry_equiv_pos_site_id
 _symmetry_equiv_pos_as_xyz
  1  'x, y, z'
loop_
 _atom_site_type_symbol
 _atom_site_label
 _atom_site_symmetry_multiplicity
 _atom_site_fract_x
 _atom_site_fract_y
 _atom_site_fract_z
 _atom_site_occupancy
  Rb  Rb0  1  0.05388905  0.52241077  0.60935498  1
  Rb  Rb1  1  0.52241077  0.05388905  0.10935498  1
  Rb  Rb2  1  0.27900365  0.13270432  0.84590986  1
  Rb  Rb3  1  0.87837157  0.74111745  0.75605697  1
  Rb  Rb4  1  0.85734045  0.14502877  0.81107114  1
  Rb  Rb5  1  0.74111745  0.87837157  0.25605697  1
  Rb  Rb6  1  0.13270432  0.27900365  0.34590986  1
  Rb  Rb7  1  0.14502877  0.85734045  0.31107114  1
  Sr  Sr0  1  0.46850640  0.92796772  0.60171187  1
  Sr  Sr1  1  0.47312735  0.52458771  0.62104291  1
  Sr  Sr2  1  0.92796772  0.46850640  0.10171187  1
  Sr  Sr3  1  0.52458771  0.47312735  0.12104291  1
  Ti  Ti0  1  0.66202119  0.33548730  0.50650871  1
  Ti  Ti1  1  0.33548730  0.66202119  0.00650871  1
  P  P0  1  0.66959324  0.36373106  0.82241211  1
  P  P1  1  0.36373106  0.66959324  0.32241211  1
  P  P2  1  0.58395207  0.78070998  0.86247502  1
  P  P3  1  0.21065525  0.40779043  0.92899438  1
  P  P4  1  0.20124958  0.78075570  0.90321005  1
  P  P5  1  0.40779043  0.21065525  0.42899438  1
  P  P6  1  0.78070998  0.58395207  0.36247502  1
  P  P7  1  0.78075570  0.20124958  0.40321005  1
loop_
_geom_bond_atom_site_label_1
_geom_bond_atom_site_label_2
_geom_bond_distance
_geom_bond_site_symmetry_2
P0 Ti0 2.449131 1_555
P0 Sr3 3.208917 1_556
P0 Sr2 3.275789 1_556
P0 Rb3 3.405250 1_555
P0 Rb1 3.420624 1_556
P0 Rb2 3.531356 1_555
P0 Sr1 3.540770 1_555
P0 Rb4 3.615567 1_555
P0 Rb0 3.729967 1_655
P1 Ti1 2.449131 1_555
P1 Sr1 3.208917 1_555
P1 Sr0 3.275789 1_555
P1 Rb5 3.405250 1_555
P1 Rb0 3.420625 1_555
P1 Rb6 3.531356 1_555
P1 Sr3 3.540770 1_555
P1 Rb7 3.615567 1_555
P1 Rb1 3.729967 1_565
P2 Ti1 2.419344 1_556
P2 Sr1 3.060327 1_555
P2 Sr0 3.066441 1_555
P2 Rb3 3.324118 1_555
P2 Rb4 3.415103 1_565
P2 Sr3 3.434424 1_556
P2 Rb5 3.438786 1_556
P2 Rb1 3.741206 1_566
P3 Ti1 2.406748 1_556
P3 Sr1 3.216731 1_555
P3 Rb6 3.311230 1_556
P3 Rb2 3.315965 1_555
P3 Sr3 3.385684 1_556
P3 Rb0 3.456006 1_555
P3 Sr2 3.483161 1_456
P3 Rb4 3.508264 1_455
P4 Ti1 2.386044 1_556
P4 Sr0 3.206907 1_555
P4 Sr2 3.312008 1_456
P4 Rb2 3.314630 1_565
P4 Rb7 3.348767 1_556
P4 Rb0 3.368213 1_555
P4 Rb3 3.398595 1_455
P4 Rb1 3.625676 1_566
P5 Ti0 2.406748 1_555
P5 Sr3 3.216731 1_555
P5 Rb2 3.311230 1_555
P5 Rb6 3.315965 1_555
P5 Sr1 3.385684 1_555
P5 Rb1 3.456006 1_555
P5 Sr0 3.483161 1_545
P5 Rb7 3.508264 1_545
P6 Ti0 2.419344 1_555
P6 Sr3 3.060327 1_555
P6 Sr2 3.066441 1_555
P6 Rb5 3.324118 1_555
P6 Rb7 3.415103 1_655
P6 Sr1 3.434424 1_555
P6 Rb3 3.438785 1_555
P6 Rb0 3.741206 1_655
P7 Ti0 2.386044 1_555
P7 Sr2 3.206907 1_555
P7 Sr0 3.312008 1_545
P7 Rb6 3.314631 1_655
P7 Rb4 3.348767 1_555
P7 Rb1 3.368213 1_555
P7 Rb5 3.398595 1_545
P7 Rb0 3.625676 1_655
