# generated using pymatgen
data_Y5MnRhO12
_symmetry_space_group_name_H-M   'P 1'
_cell_length_a   6.76804098
_cell_length_b   6.76803923
_cell_length_c   7.20203549
_cell_angle_alpha   74.42438242
_cell_angle_beta   74.42438727
_cell_angle_gamma   50.65984845
_symmetry_Int_Tables_number   1
_chemical_formula_structural   Y5MnRhO12
_chemical_formula_sum   'Y5 Mn1 Rh1 O12'
_cell_volume   243.62440851
_cell_formula_units_Z   1
loop_
 _symmetry_equiv_pos_site_id
 _symmetry_equiv_pos_as_xyz
  1  'x, y, z'
loop_
 _atom_site_type_symbol
 _atom_site_label
 _atom_site_symmetry_multiplicity
 _atom_site_fract_x
 _atom_site_fract_y
 _atom_site_fract_z
 _atom_site_occupancy
  Y  Y0  1  0.49881405  0.50118595  0.50000000  1
  Y  Y1  1  0.19024074  0.19161788  0.16889114  1
  Y  Y2  1  0.80838212  0.80975926  0.83110886  1
  Y  Y3  1  0.79577045  0.81211613  0.35871895  1
  Y  Y4  1  0.18788387  0.20422955  0.64128105  1
  Mn  Mn0  1  0.75060275  0.24939725  1.00000000  1
  Rh  Rh0  1  0.26196522  0.73803478  0.00000000  1
  O  O0  1  0.99448838  0.00464459  0.18225134  1
  O  O1  1  0.99535541  0.00551162  0.81774866  1
  O  O2  1  0.51386300  0.48698538  0.82008474  1
  O  O3  1  0.51301462  0.48613700  0.17991526  1
  O  O4  1  0.59251385  0.09931679  0.57670671  1
  O  O5  1  0.90068321  0.40748615  0.42329329  1
  O  O6  1  0.39847667  0.90392837  0.42673449  1
  O  O7  1  0.40292225  0.92082663  0.91856087  1
  O  O8  1  0.07917337  0.59707775  0.08143913  1
  O  O9  1  0.59863171  0.07885330  0.08007583  1
  O  O10  1  0.92114670  0.40136829  0.91992417  1
  O  O11  1  0.09607163  0.60152333  0.57326551  1
loop_
_geom_bond_atom_site_label_1
_geom_bond_atom_site_label_2
_geom_bond_distance
_geom_bond_site_symmetry_2
Mn0 O9 1.884662 1_556
Mn0 O10 1.884662 1_555
Mn0 O2 1.887162 1_555
Mn0 O3 1.887162 1_556
Mn0 O0 1.928902 1_556
Mn0 O1 1.928902 1_555
O0 Rh0 2.027407 1_645
O0 Y1 2.314648 1_655
O0 Y3 2.353005 1_545
O1 Rh0 2.027407 1_646
O1 Y2 2.314648 1_545
O1 Y4 2.353005 1_655
O2 Rh0 1.948302 1_556
O2 Y0 2.308363 1_555
O3 Rh0 1.948302 1_555
O3 Y0 2.308363 1_555
O4 Y2 2.282830 1_545
O4 Y3 2.285670 1_545
O4 Y4 2.290887 1_555
O4 Y0 2.302048 1_555
O5 Y1 2.282830 1_655
O5 Y4 2.285671 1_655
O5 Y3 2.290886 1_555
O5 Y0 2.302049 1_555
O6 Y3 2.279035 1_555
O6 Y1 2.282646 1_565
O6 Y0 2.289683 1_555
O6 Y4 2.319684 1_565
O7 Rh0 1.894956 1_556
O7 Y2 2.281002 1_555
O7 Y1 2.391097 1_566
O7 Y4 2.397844 1_565
O8 Rh0 1.894956 1_555
O8 Y1 2.281002 1_555
O8 Y2 2.391098 1_454
O8 Y3 2.397845 1_455
O9 Y1 2.295555 1_555
O9 Y3 2.346276 1_545
O9 Y2 2.378253 1_544
O10 Y2 2.295554 1_555
O10 Y4 2.346277 1_655
O10 Y1 2.378253 1_656
O11 Y4 2.279034 1_555
O11 Y2 2.282646 1_455
O11 Y0 2.289684 1_555
O11 Y3 2.319684 1_455
