# generated using pymatgen
data_AgHg(AuO2)4
_symmetry_space_group_name_H-M   'P 1'
_cell_length_a   6.70806390
_cell_length_b   6.70806332
_cell_length_c   6.70806325
_cell_angle_alpha   127.43327098
_cell_angle_beta   127.43326444
_cell_angle_gamma   77.54492499
_symmetry_Int_Tables_number   1
_chemical_formula_structural   AgHg(AuO2)4
_chemical_formula_sum   'Ag1 Hg1 Au4 O8'
_cell_volume   184.57874130
_cell_formula_units_Z   1
loop_
 _symmetry_equiv_pos_site_id
 _symmetry_equiv_pos_as_xyz
  1  'x, y, z'
loop_
 _atom_site_type_symbol
 _atom_site_label
 _atom_site_symmetry_multiplicity
 _atom_site_fract_x
 _atom_site_fract_y
 _atom_site_fract_z
 _atom_site_occupancy
  Ag  Ag0  1  0.75000000  0.25000000  0.50000000  1
  Hg  Hg0  1  0.00000000  0.00000000  0.00000000  1
  Au  Au0  1  0.37856628  0.62586740  0.75274639  1
  Au  Au1  1  0.37413260  0.12687899  0.75269988  1
  Au  Au2  1  0.87312101  0.62581989  0.24725361  1
  Au  Au3  1  0.37418011  0.62143372  0.24730012  1
  O  O0  1  0.03124836  0.42079090  0.02488204  1
  O  O1  1  0.75165958  0.29080062  0.11679955  1
  O  O2  1  0.17400107  0.63485904  0.88320045  1
  O  O3  1  0.39590786  0.00636732  0.97511796  1
  O  O4  1  0.70919938  0.82599893  0.46085797  1
  O  O5  1  0.99363268  0.96875164  0.38954254  1
  O  O6  1  0.36514096  0.24834042  0.53914203  1
  O  O7  1  0.57920910  0.60409214  0.61045746  1
loop_
_geom_bond_atom_site_label_1
_geom_bond_atom_site_label_2
_geom_bond_distance
_geom_bond_site_symmetry_2
Ag0 O5 2.285184 1_545
Ag0 O0 2.285189 1_656
Ag0 O3 2.285191 1_554
Ag0 O7 2.285194 1_555
Ag0 O4 2.752095 1_545
Ag0 O2 2.752095 1_655
Ag0 O6 2.752096 1_555
Ag0 O1 2.752098 1_555
Hg0 O1 2.349741 1_455
Hg0 O2 2.349745 1_544
Hg0 O4 2.349746 1_444
Hg0 O6 2.349746 1_555
Au0 O6 2.001208 1_555
Au0 O2 2.003102 1_555
Au0 O3 2.010487 1_565
Au0 O7 2.012790 1_555
Au1 O1 2.001207 1_556
Au1 O6 2.003103 1_555
Au1 O5 2.010486 1_445
Au1 O3 2.012779 1_555
Au2 O4 2.001203 1_555
Au2 O1 2.003099 1_555
Au2 O0 2.010480 1_655
Au2 O5 2.012786 1_555
Au3 O2 2.001197 1_554
Au3 O4 2.003100 1_555
Au3 O7 2.010482 1_555
Au3 O0 2.012791 1_555
