# generated using pymatgen
data_CuBiAuO4
_symmetry_space_group_name_H-M   'P 1'
_cell_length_a   6.56622515
_cell_length_b   6.56622526
_cell_length_c   6.49539750
_cell_angle_alpha   125.78259646
_cell_angle_beta   126.20192996
_cell_angle_gamma   80.63832025
_symmetry_Int_Tables_number   1
_chemical_formula_structural   CuBiAuO4
_chemical_formula_sum   'Cu2 Bi2 Au2 O8'
_cell_volume   176.04473187
_cell_formula_units_Z   2
loop_
 _symmetry_equiv_pos_site_id
 _symmetry_equiv_pos_as_xyz
  1  'x, y, z'
loop_
 _atom_site_type_symbol
 _atom_site_label
 _atom_site_symmetry_multiplicity
 _atom_site_fract_x
 _atom_site_fract_y
 _atom_site_fract_z
 _atom_site_occupancy
  Cu  Cu0  1  0.37500000  0.12500000  0.75000000  1
  Cu  Cu1  1  0.37500000  0.62500000  0.25000000  1
  Bi  Bi0  1  0.00077383  0.00077383  1.00000000  1
  Bi  Bi1  1  0.74922617  0.24922617  0.50000000  1
  Au  Au0  1  0.87500000  0.62500000  0.25000000  1
  Au  Au1  1  0.37500000  0.62500000  0.75000000  1
  O  O0  1  0.40034216  0.84964366  0.15154578  1
  O  O1  1  0.69809588  0.24879538  0.84845422  1
  O  O2  1  0.34965784  0.40035634  0.34845422  1
  O  O3  1  0.05190412  0.00120462  0.65154578  1
  O  O4  1  0.02116205  0.65358875  0.06678012  1
  O  O5  1  0.58680963  0.95438293  0.93321988  1
  O  O6  1  0.16319037  0.29561707  0.56678012  1
  O  O7  1  0.72883795  0.59641125  0.43321988  1
loop_
_geom_bond_atom_site_label_1
_geom_bond_atom_site_label_2
_geom_bond_distance
_geom_bond_site_symmetry_2
Cu0 O6 1.924255 1_555
Cu0 O5 1.924255 1_545
Cu0 O1 1.980169 1_555
Cu0 O3 1.980169 1_555
Cu1 O7 1.924259 1_555
Cu1 O4 1.924259 1_555
Cu1 O2 1.980184 1_555
Cu1 O0 1.980184 1_555
Bi0 O0 2.466138 1_546
Bi0 O1 2.466139 1_455
Bi0 O7 2.477426 1_445
Bi0 O6 2.477428 1_556
Bi0 O2 2.478069 1_556
Bi0 O3 2.478082 1_555
Bi0 O5 2.528150 1_445
Bi0 O4 2.528158 1_546
Bi1 O2 2.466138 1_555
Bi1 O3 2.466139 1_655
Bi1 O4 2.477426 1_656
Bi1 O5 2.477428 1_544
Bi1 O0 2.478069 1_545
Bi1 O1 2.478082 1_555
Bi1 O6 2.528150 1_655
Bi1 O7 2.528158 1_555
Au0 O4 2.010397 1_655
Au0 O7 2.010397 1_555
Au0 O3 2.018495 1_665
Au0 O1 2.018495 1_554
Au1 O5 2.010406 1_555
Au1 O6 2.010406 1_555
Au1 O0 2.018491 1_556
Au1 O2 2.018491 1_555
