# generated using pymatgen
data_Tc5RuRh8
_symmetry_space_group_name_H-M   'P 1'
_cell_length_a   7.22307724
_cell_length_b   7.21872427
_cell_length_c   4.28917674
_cell_angle_alpha   90.00000000
_cell_angle_beta   90.00000000
_cell_angle_gamma   60.15917245
_symmetry_Int_Tables_number   1
_chemical_formula_structural   Tc5RuRh8
_chemical_formula_sum   'Tc5 Ru1 Rh8'
_cell_volume   193.99102213
_cell_formula_units_Z   1
loop_
 _symmetry_equiv_pos_site_id
 _symmetry_equiv_pos_as_xyz
  1  'x, y, z'
loop_
 _atom_site_type_symbol
 _atom_site_label
 _atom_site_symmetry_multiplicity
 _atom_site_fract_x
 _atom_site_fract_y
 _atom_site_fract_z
 _atom_site_occupancy
  Tc  Tc0  1  0.29326901  0.56889572  0.00000000  1
  Tc  Tc1  1  0.42717364  0.85237845  0.00000000  1
  Tc  Tc2  1  0.52677078  0.38654232  0.50000000  1
  Tc  Tc3  1  0.66048109  0.66827129  0.50000000  1
  Tc  Tc4  1  0.24346690  0.80207708  0.50000000  1
  Ru  Ru0  1  0.70837984  0.43713800  0.00000000  1
  Rh  Rh0  1  0.57230272  0.14206116  0.00000000  1
  Rh  Rh1  1  0.14445676  0.28365993  0.00000000  1
  Rh  Rh2  1  0.85701105  0.71629098  0.00000000  1
  Rh  Rh3  1  0.99799877  0.99916647  0.00000000  1
  Rh  Rh4  1  0.37921346  0.09786466  0.50000000  1
  Rh  Rh5  1  0.95229001  0.23861074  0.50000000  1
  Rh  Rh6  1  0.09399368  0.52144011  0.50000000  1
  Rh  Rh7  1  0.80975228  0.95217309  0.50000000  1
loop_
_geom_bond_atom_site_label_1
_geom_bond_atom_site_label_2
_geom_bond_distance
_geom_bond_site_symmetry_2
Tc0 Tc4 2.638080 1_555
Tc0 Tc4 2.638080 1_554
Tc0 Tc2 2.639546 1_555
Tc0 Tc2 2.639546 1_554
Tc0 Tc1 2.663251 1_555
Tc1 Tc4 2.640331 1_555
Tc1 Tc4 2.640331 1_554
Tc1 Tc3 2.641319 1_555
Tc1 Tc3 2.641319 1_554
Tc2 Tc3 2.650191 1_555
Tc2 Tc4 2.660183 1_555
Tc3 Tc4 2.666544 1_555
Ru0 Tc3 2.632173 1_555
Ru0 Tc3 2.632173 1_554
Ru0 Tc2 2.632530 1_554
Ru0 Tc2 2.632530 1_555
Ru0 Tc1 2.655480 1_555
Ru0 Tc0 2.656466 1_555
Rh0 Rh7 2.660858 1_544
Rh0 Rh7 2.660858 1_545
Rh0 Rh4 2.662528 1_555
Rh0 Rh4 2.662528 1_554
Rh0 Tc2 2.691554 1_555
Rh0 Tc2 2.691554 1_554
Rh0 Rh3 2.713332 1_545
Rh0 Tc0 2.715836 1_555
Rh0 Rh2 2.717613 1_545
Rh0 Rh1 2.729748 1_555
Rh0 Ru0 2.754429 1_555
Rh0 Tc1 2.766459 1_545
Rh1 Rh4 2.647657 1_555
Rh1 Rh4 2.647657 1_554
Rh1 Rh6 2.656266 1_554
Rh1 Rh6 2.656266 1_555
Rh1 Rh5 2.660990 1_455
Rh1 Rh5 2.660990 1_454
Rh1 Rh3 2.738391 1_445
Rh1 Tc1 2.745132 1_545
Rh1 Tc0 2.756370 1_555
Rh1 Rh2 2.758843 1_455
Rh1 Ru0 2.770541 1_455
Rh2 Rh7 2.652688 1_554
Rh2 Rh7 2.652688 1_555
Rh2 Rh6 2.666773 1_655
Rh2 Rh6 2.666773 1_654
Rh2 Tc3 2.687796 1_555
Rh2 Tc3 2.687796 1_554
Rh2 Rh3 2.697465 1_555
Rh2 Ru0 2.714089 1_555
Rh2 Tc1 2.751215 1_555
Rh2 Tc0 2.779393 1_655
Rh3 Rh7 2.649946 1_554
Rh3 Rh7 2.649946 1_555
Rh3 Rh5 2.669830 1_565
Rh3 Rh5 2.669830 1_564
Rh3 Tc4 2.693822 1_655
Rh3 Tc4 2.693822 1_654
Rh3 Tc1 2.731959 1_655
Rh3 Tc0 2.757440 1_655
Rh3 Ru0 2.791036 1_565
Rh4 Tc1 2.692334 1_546
Rh4 Tc1 2.692334 1_545
Rh4 Rh6 2.706413 1_555
Rh4 Rh5 2.724612 1_455
Rh4 Tc3 2.733944 1_545
Rh4 Rh7 2.742658 1_545
Rh4 Tc4 2.757539 1_545
Rh4 Tc2 2.772884 1_555
Rh5 Ru0 2.691519 1_555
Rh5 Ru0 2.691519 1_556
Rh5 Rh6 2.701053 1_655
Rh5 Tc2 2.705688 1_555
Rh5 Rh7 2.730206 1_545
Rh5 Tc3 2.748933 1_555
Rh5 Tc4 2.785298 1_645
Rh6 Tc0 2.697989 1_555
Rh6 Tc0 2.697989 1_556
Rh6 Tc4 2.728804 1_555
Rh6 Rh7 2.744117 1_455
Rh6 Tc3 2.761428 1_455
Rh6 Tc2 2.773201 1_555
Rh7 Tc3 2.749839 1_555
Rh7 Tc4 2.758646 1_655
Rh7 Tc2 2.762532 1_565
