# generated using pymatgen
data_UTeN
_symmetry_space_group_name_H-M   'P 1'
_cell_length_a   3.86543982
_cell_length_b   3.86543982
_cell_length_c   8.58552886
_cell_angle_alpha   90.00000000
_cell_angle_beta   90.00000000
_cell_angle_gamma   90.00000000
_symmetry_Int_Tables_number   1
_chemical_formula_structural   UTeN
_chemical_formula_sum   'U2 Te2 N2'
_cell_volume   128.28175267
_cell_formula_units_Z   2
loop_
 _symmetry_equiv_pos_site_id
 _symmetry_equiv_pos_as_xyz
  1  'x, y, z'
loop_
 _atom_site_type_symbol
 _atom_site_label
 _atom_site_symmetry_multiplicity
 _atom_site_fract_x
 _atom_site_fract_y
 _atom_site_fract_z
 _atom_site_occupancy
  U  U0  1  0.00000000  0.50000000  0.13647849  1
  U  U1  1  0.50000000  -0.00000000  0.86352151  1
  Te  Te0  1  -0.00000000  0.50000000  0.66156191  1
  Te  Te1  1  0.50000000  -0.00000000  0.33843809  1
  N  N0  1  0.50000000  0.50000000  -0.00000000  1
  N  N1  1  0.00000000  -0.00000000  -0.00000000  1
loop_
_geom_bond_atom_site_label_1
_geom_bond_atom_site_label_2
_geom_bond_distance
_geom_bond_site_symmetry_2
Te0 U1 3.236870 1_455
Te0 U1 3.236870 1_465
Te0 U1 3.236870 1_555
Te0 U1 3.236870 1_565
Te1 U0 3.236870 1_555
Te1 U0 3.236870 1_645
Te1 U0 3.236870 1_655
Te1 U0 3.236870 1_545
N0 U1 2.260173 1_554
N0 U1 2.260173 1_564
N0 U0 2.260173 1_655
N0 U0 2.260173 1_555
N1 U1 2.260173 1_454
N1 U1 2.260173 1_554
N1 U0 2.260173 1_545
N1 U0 2.260173 1_555
