# generated using pymatgen
data_Na16TiSiAs8
_symmetry_space_group_name_H-M   'P 1'
_cell_length_a   9.66674114
_cell_length_b   9.66674097
_cell_length_c   9.66674163
_cell_angle_alpha   60.00000104
_cell_angle_beta   60.00000164
_cell_angle_gamma   60.00000241
_symmetry_Int_Tables_number   1
_chemical_formula_structural   Na16TiSiAs8
_chemical_formula_sum   'Na16 Ti1 Si1 As8'
_cell_volume   638.74174484
_cell_formula_units_Z   1
loop_
 _symmetry_equiv_pos_site_id
 _symmetry_equiv_pos_as_xyz
  1  'x, y, z'
loop_
 _atom_site_type_symbol
 _atom_site_label
 _atom_site_symmetry_multiplicity
 _atom_site_fract_x
 _atom_site_fract_y
 _atom_site_fract_z
 _atom_site_occupancy
  Na  Na0  1  0.62753659  0.62753659  0.11739123  1
  Na  Na1  1  0.62753659  0.11739123  0.62753659  1
  Na  Na2  1  0.11739123  0.62753659  0.62753659  1
  Na  Na3  1  0.62753659  0.62753659  0.62753659  1
  Na  Na4  1  0.03065663  0.46934337  0.46934337  1
  Na  Na5  1  0.77224070  0.22775930  0.22775930  1
  Na  Na6  1  0.46934337  0.03065663  0.46934337  1
  Na  Na7  1  0.46934337  0.46934337  0.03065663  1
  Na  Na8  1  0.03065663  0.03065663  0.46934337  1
  Na  Na9  1  0.03065663  0.46934337  0.03065663  1
  Na  Na10  1  0.46934337  0.03065663  0.03065663  1
  Na  Na11  1  0.77224070  0.22775930  0.77224070  1
  Na  Na12  1  0.22775930  0.77224070  0.22775930  1
  Na  Na13  1  0.22775930  0.22775930  0.77224070  1
  Na  Na14  1  0.77224070  0.77224070  0.22775930  1
  Na  Na15  1  0.22775930  0.77224070  0.77224070  1
  Ti  Ti0  1  0.50000000  0.50000000  0.50000000  1
  Si  Si0  1  0.75000000  0.75000000  0.75000000  1
  As  As0  1  0.85296778  0.85296778  0.44109866  1
  As  As1  1  0.85296778  0.44109866  0.85296778  1
  As  As2  1  0.39477558  0.39477558  0.81567127  1
  As  As3  1  0.39477558  0.81567127  0.39477558  1
  As  As4  1  0.81567127  0.39477558  0.39477558  1
  As  As5  1  0.85296778  0.85296778  0.85296778  1
  As  As6  1  0.44109866  0.85296778  0.85296778  1
  As  As7  1  0.39477558  0.39477558  0.39477558  1
loop_
_geom_bond_atom_site_label_1
_geom_bond_atom_site_label_2
_geom_bond_distance
_geom_bond_site_symmetry_2
Na0 Si0 2.899768 1_554
Na0 Ti0 3.019878 1_555
Na1 Si0 2.899768 1_545
Na1 Ti0 3.019878 1_555
Na2 Si0 2.899768 1_455
Na2 Ti0 3.019878 1_555
Na3 Si0 2.899760 1_555
Na3 Ti0 3.019886 1_555
As0 Si0 2.438116 1_555
As0 Na5 3.049361 1_565
As0 Na12 3.049361 1_655
As0 Na14 3.049375 1_555
As0 Na1 3.104792 1_565
As0 Na2 3.104792 1_655
As0 Na3 3.104799 1_555
As0 Na8 3.140654 1_665
As0 Na4 3.140671 1_655
As0 Na6 3.140671 1_565
As1 Si0 2.438115 1_555
As1 Na13 3.049361 1_655
As1 Na5 3.049361 1_556
As1 Na11 3.049375 1_555
As1 Na2 3.104792 1_655
As1 Na0 3.104792 1_556
As1 Na3 3.104799 1_555
As1 Na9 3.140654 1_656
As1 Na7 3.140671 1_556
As1 Na4 3.140671 1_655
As2 Ti0 2.491550 1_555
As2 Na10 2.978876 1_556
As2 Na9 2.978876 1_556
As2 Na7 2.978890 1_556
As2 Na13 3.058065 1_555
As2 Na15 3.058081 1_555
As2 Na11 3.058082 1_555
As2 Na1 3.211124 1_555
As2 Na2 3.211124 1_555
As2 Na3 3.211147 1_555
As3 Ti0 2.491549 1_555
As3 Na8 2.978876 1_565
As3 Na10 2.978876 1_565
As3 Na6 2.978890 1_565
As3 Na12 3.058065 1_555
As3 Na14 3.058082 1_555
As3 Na15 3.058082 1_555
As3 Na2 3.211124 1_555
As3 Na0 3.211125 1_555
As3 Na3 3.211147 1_555
As4 Ti0 2.491550 1_555
As4 Na8 2.978876 1_655
As4 Na9 2.978876 1_655
As4 Na4 2.978890 1_655
As4 Na5 3.058065 1_555
As4 Na14 3.058081 1_555
As4 Na11 3.058082 1_555
As4 Na1 3.211124 1_555
As4 Na0 3.211124 1_555
As4 Na3 3.211147 1_555
As5 Si0 2.438131 1_555
As5 Na11 3.049357 1_565
As5 Na15 3.049357 1_655
As5 Na14 3.049357 1_556
As5 Na0 3.104798 1_556
As5 Na1 3.104798 1_565
As5 Na2 3.104798 1_655
As5 Na9 3.140666 1_656
As5 Na10 3.140666 1_566
As5 Na8 3.140666 1_665
As6 Si0 2.438115 1_555
As6 Na13 3.049361 1_565
As6 Na12 3.049361 1_556
As6 Na15 3.049375 1_555
As6 Na1 3.104791 1_565
As6 Na0 3.104792 1_556
As6 Na3 3.104799 1_555
As6 Na10 3.140654 1_566
As6 Na7 3.140671 1_556
As6 Na6 3.140671 1_565
As7 Ti0 2.491565 1_555
As7 Na6 2.978872 1_555
As7 Na4 2.978872 1_555
As7 Na7 2.978872 1_555
As7 Na12 3.058078 1_555
As7 Na5 3.058078 1_555
As7 Na13 3.058078 1_555
As7 Na0 3.211143 1_555
As7 Na1 3.211143 1_555
As7 Na2 3.211143 1_555
