# generated using pymatgen
data_Bi2RuPtF14
_symmetry_space_group_name_H-M   'P 1'
_cell_length_a   5.46932542
_cell_length_b   9.09102924
_cell_length_c   12.13640208
_cell_angle_alpha   61.76795634
_cell_angle_beta   90.00000000
_cell_angle_gamma   90.00000000
_symmetry_Int_Tables_number   1
_chemical_formula_structural   Bi2RuPtF14
_chemical_formula_sum   'Bi4 Ru2 Pt2 F28'
_cell_volume   531.65747451
_cell_formula_units_Z   2
loop_
 _symmetry_equiv_pos_site_id
 _symmetry_equiv_pos_as_xyz
  1  'x, y, z'
loop_
 _atom_site_type_symbol
 _atom_site_label
 _atom_site_symmetry_multiplicity
 _atom_site_fract_x
 _atom_site_fract_y
 _atom_site_fract_z
 _atom_site_occupancy
  Bi  Bi0  1  0.76114608  0.81452582  0.76194989  1
  Bi  Bi1  1  0.26114608  0.18547418  0.73805011  1
  Bi  Bi2  1  0.23848175  0.19123059  0.23140180  1
  Bi  Bi3  1  0.73848175  0.80876941  0.26859820  1
  Ru  Ru0  1  0.75469533  0.27018921  0.95821228  1
  Ru  Ru1  1  0.25469533  0.72981079  0.54178772  1
  Pt  Pt0  1  0.24395735  0.73035919  0.04052737  1
  Pt  Pt1  1  0.74395735  0.26964081  0.45947263  1
  F  F0  1  0.42698955  0.70640014  0.91177641  1
  F  F1  1  0.92698955  0.29359986  0.58822359  1
  F  F2  1  0.56999455  0.28865593  0.08856813  1
  F  F3  1  0.06999455  0.71134407  0.41143187  1
  F  F4  1  0.43696011  0.27844696  0.53911174  1
  F  F5  1  0.93696011  0.72155304  0.96088826  1
  F  F6  1  0.56278393  0.72604911  0.45973598  1
  F  F7  1  0.06278393  0.27395089  0.04026402  1
  F  F8  1  0.76739698  0.50418622  0.86526344  1
  F  F9  1  0.26739698  0.49581378  0.63473656  1
  F  F10  1  0.23436869  0.48866444  0.13943303  1
  F  F11  1  0.73436869  0.51133556  0.36056697  1
  F  F12  1  0.75619643  0.03465587  0.04961061  1
  F  F13  1  0.25619643  0.96534413  0.45038939  1
  F  F14  1  0.24121416  0.97520005  0.94629820  1
  F  F15  1  0.74121416  0.02479995  0.55370180  1
  F  F16  1  0.95650281  0.72850542  0.62873458  1
  F  F17  1  0.45650281  0.27149458  0.87126542  1
  F  F18  1  0.04491398  0.26709868  0.37510715  1
  F  F19  1  0.54491398  0.73290132  0.12489285  1
  F  F20  1  0.06797945  0.74871943  0.17318710  1
  F  F21  1  0.56797945  0.25128057  0.32681290  1
  F  F22  1  0.93307508  0.25359502  0.82553561  1
  F  F23  1  0.43307508  0.74640498  0.67446439  1
  F  F24  1  0.39829830  0.96876530  0.22913940  1
  F  F25  1  0.89829830  0.03123470  0.27086060  1
  F  F26  1  0.60504847  0.03291546  0.77148723  1
  F  F27  1  0.10504847  0.96708454  0.72851277  1
loop_
_geom_bond_atom_site_label_1
_geom_bond_atom_site_label_2
_geom_bond_distance
_geom_bond_site_symmetry_2
Bi0 F26 2.213924 1_565
Bi0 F27 2.256895 1_655
Bi0 F23 2.313557 1_555
Bi0 F15 2.341559 1_565
Bi0 F5 2.353226 1_555
Bi0 F16 2.358650 1_555
Bi0 F0 2.433471 1_555
Bi0 F8 2.487227 1_555
Bi1 F27 2.213924 1_545
Bi1 F26 2.256895 1_555
Bi1 F22 2.313557 1_455
Bi1 F14 2.341559 1_545
Bi1 F4 2.353226 1_555
Bi1 F17 2.358650 1_555
Bi1 F1 2.433471 1_455
Bi1 F9 2.487227 1_555
Bi2 F24 2.215306 1_545
Bi2 F25 2.268858 1_455
Bi2 F7 2.284657 1_555
Bi2 F21 2.341923 1_555
Bi2 F2 2.371578 1_555
Bi2 F10 2.387983 1_555
Bi2 F18 2.403405 1_555
Bi2 F13 2.475157 1_545
Bi3 F25 2.215306 1_565
Bi3 F24 2.268858 1_555
Bi3 F6 2.284657 1_555
Bi3 F20 2.341923 1_655
Bi3 F3 2.371578 1_655
Bi3 F11 2.387983 1_555
Bi3 F19 2.403405 1_555
Bi3 F12 2.475157 1_565
F0 Pt0 1.952742 1_556
F1 Pt1 1.952742 1_555
F2 Ru0 1.950084 1_554
F3 Ru1 1.950084 1_555
F4 Pt1 1.957822 1_555
F5 Pt0 1.957822 1_656
F6 Ru1 1.965803 1_555
F7 Ru0 1.965803 1_454
F8 Ru0 1.879447 1_555
F9 Ru1 1.879447 1_555
F10 Pt0 1.943255 1_555
F11 Pt1 1.943255 1_555
F12 Ru0 1.888993 1_554
F13 Ru1 1.888993 1_555
F14 Pt0 1.963218 1_556
F15 Pt1 1.963218 1_555
F16 Ru1 1.939500 1_655
F17 Ru0 1.939500 1_555
F18 Pt1 1.944400 1_455
F19 Pt0 1.944400 1_555
F20 Pt0 1.949516 1_555
F21 Pt1 1.949516 1_555
F22 Ru0 1.948642 1_555
F23 Ru1 1.948642 1_555
