# generated using pymatgen
data_MgP3PbN5O2
_symmetry_space_group_name_H-M   'P 1'
_cell_length_a   6.73142087
_cell_length_b   7.02437515
_cell_length_c   13.90403344
_cell_angle_alpha   60.35141100
_cell_angle_beta   90.00000000
_cell_angle_gamma   90.00000000
_symmetry_Int_Tables_number   1
_chemical_formula_structural   MgP3PbN5O2
_chemical_formula_sum   'Mg4 P12 Pb4 N20 O8'
_cell_volume   571.36399721
_cell_formula_units_Z   4
loop_
 _symmetry_equiv_pos_site_id
 _symmetry_equiv_pos_as_xyz
  1  'x, y, z'
loop_
 _atom_site_type_symbol
 _atom_site_label
 _atom_site_symmetry_multiplicity
 _atom_site_fract_x
 _atom_site_fract_y
 _atom_site_fract_z
 _atom_site_occupancy
  Mg  Mg0  1  0.51085588  0.97535567  0.88796980  1
  Mg  Mg1  1  0.01085588  0.02464433  0.61203020  1
  Mg  Mg2  1  0.48914412  0.02464433  0.11203020  1
  Mg  Mg3  1  0.98914412  0.97535567  0.38796980  1
  P  P0  1  0.01494238  0.93459635  0.88150818  1
  P  P1  1  0.51494238  0.06540365  0.61849182  1
  P  P2  1  0.98505762  0.06540365  0.11849182  1
  P  P3  1  0.48505762  0.93459635  0.38150818  1
  P  P4  1  0.28135232  0.73983164  0.59517631  1
  P  P5  1  0.78135232  0.26016836  0.90482369  1
  P  P6  1  0.71864768  0.26016836  0.40482369  1
  P  P7  1  0.21864768  0.73983164  0.09517631  1
  P  P8  1  0.75881678  0.73125826  0.78953174  1
  P  P9  1  0.25881678  0.26874174  0.71046826  1
  P  P10  1  0.24118322  0.26874174  0.21046826  1
  P  P11  1  0.74118322  0.73125826  0.28953174  1
  Pb  Pb0  1  0.74148110  0.49735592  0.61633079  1
  Pb  Pb1  1  0.24148110  0.50264408  0.88366921  1
  Pb  Pb2  1  0.25851890  0.50264408  0.38366921  1
  Pb  Pb3  1  0.75851890  0.49735592  0.11633079  1
  N  N0  1  0.31584399  0.92655157  0.62978864  1
  N  N1  1  0.81584399  0.07344843  0.87021136  1
  N  N2  1  0.68415601  0.07344843  0.37021136  1
  N  N3  1  0.18415601  0.92655157  0.12978864  1
  N  N4  1  0.71293018  0.91488261  0.66133371  1
  N  N5  1  0.21293018  0.08511739  0.83866629  1
  N  N6  1  0.28706982  0.08511739  0.33866629  1
  N  N7  1  0.78706982  0.91488261  0.16133371  1
  N  N8  1  0.97689161  0.80668767  0.81146901  1
  N  N9  1  0.47689161  0.19331233  0.68853099  1
  N  N10  1  0.02310839  0.19331233  0.18853099  1
  N  N11  1  0.52310839  0.80668767  0.31146901  1
  N  N12  1  0.78897678  0.49821641  0.79330038  1
  N  N13  1  0.28897678  0.50178359  0.70669962  1
  N  N14  1  0.21102322  0.50178359  0.20669962  1
  N  N15  1  0.71102322  0.49821641  0.29330038  1
  N  N16  1  0.56039461  0.25933236  0.49204682  1
  N  N17  1  0.06039461  0.74066764  0.00795318  1
  N  N18  1  0.43960539  0.74066764  0.50795318  1
  N  N19  1  0.93960539  0.25933236  0.99204682  1
  O  O0  1  0.06519914  0.78821384  0.55007253  1
  O  O1  1  0.56519914  0.21178616  0.94992747  1
  O  O2  1  0.93480086  0.21178616  0.44992747  1
  O  O3  1  0.43480086  0.78821384  0.05007253  1
  O  O4  1  0.59635061  0.71978932  0.86984410  1
  O  O5  1  0.09635061  0.28021068  0.63015590  1
  O  O6  1  0.40364939  0.28021068  0.13015590  1
  O  O7  1  0.90364939  0.71978932  0.36984410  1
loop_
_geom_bond_atom_site_label_1
_geom_bond_atom_site_label_2
_geom_bond_distance
_geom_bond_site_symmetry_2
Mg0 O4 2.016196 1_555
Mg0 O3 2.034409 1_556
Mg0 N5 2.136201 1_565
Mg0 N1 2.140617 1_565
Mg0 O1 2.247127 1_565
Mg0 N9 2.426004 1_565
Mg1 O5 2.016196 1_555
Mg1 O2 2.034409 1_455
Mg1 N4 2.136201 1_445
Mg1 N0 2.140617 1_545
Mg1 O0 2.247127 1_545
Mg1 N8 2.426004 1_445
Mg2 O6 2.016196 1_555
Mg2 O1 2.034409 1_554
Mg2 N7 2.136201 1_545
Mg2 N3 2.140617 1_545
Mg2 O3 2.247127 1_545
Mg2 N11 2.426004 1_545
Mg3 O7 2.016196 1_555
Mg3 O0 2.034409 1_655
Mg3 N6 2.136201 1_665
Mg3 N2 2.140617 1_565
Mg3 O2 2.247127 1_565
Mg3 N10 2.426004 1_665
N0 P1 1.618822 1_565
N0 P4 1.621810 1_555
N1 P0 1.618822 1_645
N1 P5 1.621810 1_555
N2 P3 1.618822 1_545
N2 P6 1.621810 1_555
N3 P2 1.618822 1_465
N3 P7 1.621810 1_555
N4 P1 1.620440 1_565
N4 P8 1.631461 1_555
N5 P0 1.620440 1_545
N5 P9 1.631461 1_555
N6 P3 1.620440 1_545
N6 P10 1.631461 1_555
N7 P2 1.620440 1_565
N7 P11 1.631461 1_555
N8 P0 1.639164 1_655
N8 P8 1.639680 1_555
N8 Pb1 2.572948 1_655
N9 P1 1.639164 1_555
N9 P9 1.639680 1_555
N9 Pb0 2.572948 1_555
N10 P2 1.639164 1_455
N10 P10 1.639680 1_555
N10 Pb3 2.572948 1_455
N11 P3 1.639164 1_555
N11 P11 1.639680 1_555
N11 Pb2 2.572948 1_555
N12 P5 1.624146 1_555
N12 P8 1.624432 1_555
N12 Pb0 2.484246 1_555
N13 P4 1.624146 1_555
N13 P9 1.624432 1_555
N13 Pb1 2.484246 1_555
N14 P7 1.624146 1_555
N14 P10 1.624432 1_555
N14 Pb2 2.484246 1_555
N15 P6 1.624146 1_555
N15 P11 1.624432 1_555
N15 Pb3 2.484246 1_555
N16 P6 1.612003 1_555
N16 P1 1.634238 1_555
N16 Pb2 2.602495 1_555
N17 P7 1.612003 1_555
N17 P0 1.634238 1_554
N17 Pb3 2.602495 1_455
N18 P4 1.612003 1_555
N18 P3 1.634238 1_555
N18 Pb0 2.602495 1_555
N19 P5 1.612003 1_555
N19 P2 1.634238 1_556
N19 Pb1 2.602495 1_655
O0 P4 1.554027 1_555
O0 Pb0 2.812324 1_455
O1 P5 1.554027 1_555
O1 Pb1 2.812324 1_555
O2 P6 1.554027 1_555
O2 Pb2 2.812324 1_655
O3 P7 1.554027 1_555
O3 Pb3 2.812324 1_555
O4 P8 1.536376 1_555
O4 Pb1 2.789209 1_555
O5 P9 1.536376 1_555
O5 Pb0 2.789209 1_455
O6 P10 1.536376 1_555
O6 Pb3 2.789209 1_555
O7 P11 1.536376 1_555
O7 Pb2 2.789209 1_655
