# generated using pymatgen
data_CsTiCuP2
_symmetry_space_group_name_H-M   'P 1'
_cell_length_a   7.98023681
_cell_length_b   7.98023649
_cell_length_c   7.98023736
_cell_angle_alpha   150.88455139
_cell_angle_beta   150.88456133
_cell_angle_gamma   41.64449666
_symmetry_Int_Tables_number   1
_chemical_formula_structural   CsTiCuP2
_chemical_formula_sum   'Cs1 Ti1 Cu1 P2'
_cell_volume   120.04655606
_cell_formula_units_Z   1
loop_
 _symmetry_equiv_pos_site_id
 _symmetry_equiv_pos_as_xyz
  1  'x, y, z'
loop_
 _atom_site_type_symbol
 _atom_site_label
 _atom_site_symmetry_multiplicity
 _atom_site_fract_x
 _atom_site_fract_y
 _atom_site_fract_z
 _atom_site_occupancy
  Cs  Cs0  1  0.00000000  0.00000000  0.00000000  1
  Ti  Ti0  1  0.25000000  0.75000000  0.50000000  1
  Cu  Cu0  1  0.75000000  0.25000000  0.50000000  1
  P  P0  1  0.33691149  0.33691149  1.00000000  1
  P  P1  1  0.66308851  0.66308851  0.00000000  1
loop_
_geom_bond_atom_site_label_1
_geom_bond_atom_site_label_2
_geom_bond_distance
_geom_bond_site_symmetry_2
Cs0 P1 3.737161 1_455
Cs0 P0 3.737161 1_544
Cs0 P1 3.737161 1_545
Cs0 P0 3.737161 1_454
Cs0 P1 3.737161 1_556
Cs0 P0 3.737161 1_443
Cs0 P1 3.737162 1_444
Cs0 P0 3.737162 1_555
Cu0 P0 2.388425 1_655
Cu0 P0 2.388425 1_554
Cu0 P1 2.388425 1_545
Cu0 P1 2.388426 1_556
P0 Ti0 2.388425 1_545
P0 Ti0 2.388426 1_556
P1 Ti0 2.388425 1_655
P1 Ti0 2.388425 1_554
