# generated using pymatgen
data_Ca3(GaPd)2
_symmetry_space_group_name_H-M   'P 1'
_cell_length_a   5.79683036
_cell_length_b   7.89339315
_cell_length_c   13.83845878
_cell_angle_alpha   90.00000000
_cell_angle_beta   90.00000000
_cell_angle_gamma   90.00000000
_symmetry_Int_Tables_number   1
_chemical_formula_structural   Ca3(GaPd)2
_chemical_formula_sum   'Ca12 Ga8 Pd8'
_cell_volume   633.20166792
_cell_formula_units_Z   4
loop_
 _symmetry_equiv_pos_site_id
 _symmetry_equiv_pos_as_xyz
  1  'x, y, z'
loop_
 _atom_site_type_symbol
 _atom_site_label
 _atom_site_symmetry_multiplicity
 _atom_site_fract_x
 _atom_site_fract_y
 _atom_site_fract_z
 _atom_site_occupancy
  Ca  Ca0  1  0.14080317  0.60614244  0.09909663  1
  Ca  Ca1  1  0.14080317  0.89385756  0.90090337  1
  Ca  Ca2  1  0.85919683  0.10614244  0.40090337  1
  Ca  Ca3  1  0.85919683  0.39385756  0.59909663  1
  Ca  Ca4  1  0.85919683  0.39385756  0.90090337  1
  Ca  Ca5  1  0.85919683  0.10614244  0.09909663  1
  Ca  Ca6  1  0.14080317  0.89385756  0.59909663  1
  Ca  Ca7  1  0.14080317  0.60614244  0.40090337  1
  Ca  Ca8  1  0.36412591  0.25603118  0.25000000  1
  Ca  Ca9  1  0.36412591  0.24396882  0.75000000  1
  Ca  Ca10  1  0.63587409  0.75603118  0.25000000  1
  Ca  Ca11  1  0.63587409  0.74396882  0.75000000  1
  Ga  Ga0  1  0.37229022  0.25000000  -0.00000000  1
  Ga  Ga1  1  0.62770978  0.75000000  0.50000000  1
  Ga  Ga2  1  0.62770978  0.75000000  -0.00000000  1
  Ga  Ga3  1  0.37229022  0.25000000  0.50000000  1
  Ga  Ga4  1  0.85022964  0.40620453  0.25000000  1
  Ga  Ga5  1  0.85022964  0.09379547  0.75000000  1
  Ga  Ga6  1  0.14977036  0.90620453  0.25000000  1
  Ga  Ga7  1  0.14977036  0.59379547  0.75000000  1
  Pd  Pd0  1  0.63273945  0.46775484  0.09174470  1
  Pd  Pd1  1  0.63273945  0.03224516  0.90825530  1
  Pd  Pd2  1  0.36726055  0.96775484  0.40825530  1
  Pd  Pd3  1  0.36726055  0.53224516  0.59174470  1
  Pd  Pd4  1  0.36726055  0.53224516  0.90825530  1
  Pd  Pd5  1  0.36726055  0.96775484  0.09174470  1
  Pd  Pd6  1  0.63273945  0.03224516  0.59174470  1
  Pd  Pd7  1  0.63273945  0.46775484  0.40825530  1
loop_
_geom_bond_atom_site_label_1
_geom_bond_atom_site_label_2
_geom_bond_distance
_geom_bond_site_symmetry_2
Ca0 Pd4 3.006348 1_554
Ca0 Pd0 3.055422 1_555
Ca0 Ga4 3.112679 1_455
Ca0 Pd0 3.142855 1_455
Ca0 Pd5 3.143395 1_555
Ca0 Ga6 3.158070 1_555
Ca0 Ga2 3.337153 1_555
Ca0 Ga0 3.403520 1_555
Ca0 Ga2 3.466490 1_455
Ca0 Ca1 3.560900 1_554
Ca0 Ca4 3.604851 1_454
Ca0 Ca8 3.697846 1_555
Ca0 Ca10 3.741212 1_555
Ca0 Ca10 3.785225 1_455
Ca1 Pd5 3.006348 1_556
Ca1 Pd1 3.055422 1_565
Ca1 Ga5 3.112679 1_465
Ca1 Pd1 3.142855 1_465
Ca1 Pd4 3.143395 1_555
Ca1 Ga7 3.158070 1_555
Ca1 Ga2 3.337153 1_556
Ca1 Ga0 3.403520 1_566
Ca1 Ga2 3.466490 1_456
Ca1 Ca5 3.604851 1_466
Ca1 Ca9 3.697846 1_565
Ca1 Ca11 3.741212 1_555
Ca1 Ca11 3.785225 1_455
Ca2 Pd6 3.006348 1_555
Ca2 Pd2 3.055422 1_545
Ca2 Ga6 3.112679 1_645
Ca2 Pd2 3.142855 1_645
Ca2 Pd7 3.143395 1_555
Ca2 Ga4 3.158070 1_555
Ca2 Ga3 3.337153 1_555
Ca2 Ga1 3.403520 1_545
Ca2 Ga3 3.466490 1_655
Ca2 Ca3 3.560900 1_555
Ca2 Ca6 3.604851 1_645
Ca2 Ca8 3.741212 1_555
Ca2 Ca8 3.785225 1_655
Ca3 Pd7 3.006348 1_555
Ca3 Pd3 3.055422 1_555
Ca3 Ga7 3.112679 1_655
Ca3 Pd3 3.142855 1_655
Ca3 Pd6 3.143395 1_555
Ca3 Ga5 3.158070 1_555
Ca3 Ga3 3.337153 1_555
Ca3 Ga1 3.403520 1_555
Ca3 Ga3 3.466490 1_655
Ca3 Ca7 3.604851 1_655
Ca3 Ca9 3.741212 1_555
Ca3 Ca9 3.785225 1_655
Ca4 Pd0 3.006348 1_556
Ca4 Pd4 3.055422 1_555
Ca4 Ga7 3.112679 1_655
Ca4 Pd4 3.142855 1_655
Ca4 Pd1 3.143395 1_555
Ca4 Ga5 3.158070 1_555
Ca4 Ga0 3.337153 1_556
Ca4 Ga2 3.403520 1_556
Ca4 Ga0 3.466490 1_656
Ca4 Ca5 3.560900 1_556
Ca4 Ca9 3.741212 1_555
Ca4 Ca9 3.785225 1_655
Ca5 Pd1 3.006348 1_554
Ca5 Pd5 3.055422 1_545
Ca5 Ga6 3.112679 1_645
Ca5 Pd5 3.142855 1_645
Ca5 Pd0 3.143395 1_555
Ca5 Ga4 3.158070 1_555
Ca5 Ga0 3.337153 1_555
Ca5 Ga2 3.403520 1_545
Ca5 Ga0 3.466490 1_655
Ca5 Ca8 3.741212 1_555
Ca5 Ca8 3.785225 1_655
Ca6 Pd2 3.006348 1_555
Ca6 Pd6 3.055422 1_565
Ca6 Ga5 3.112679 1_465
Ca6 Pd6 3.142855 1_465
Ca6 Pd3 3.143395 1_555
Ca6 Ga7 3.158070 1_555
Ca6 Ga1 3.337153 1_555
Ca6 Ga3 3.403520 1_565
Ca6 Ga1 3.466490 1_455
Ca6 Ca7 3.560900 1_555
Ca6 Ca9 3.697846 1_565
Ca7 Pd3 3.006348 1_555
Ca7 Pd7 3.055422 1_555
Ca7 Ga4 3.112679 1_455
Ca7 Pd7 3.142855 1_455
Ca7 Pd2 3.143395 1_555
Ca7 Ga6 3.158070 1_555
Ca7 Ga1 3.337153 1_555
Ca7 Ga3 3.403520 1_555
Ca7 Ga1 3.466490 1_455
Ca7 Ca8 3.697846 1_555
Ca8 Ga6 3.028019 1_545
Ca8 Ga4 3.057034 1_555
Ca8 Pd2 3.158207 1_545
Ca8 Pd5 3.158207 1_545
Ca8 Pd7 3.164442 1_555
Ca8 Pd0 3.164442 1_555
Ca8 Ga4 3.206147 1_455
Ca9 Ga7 3.028019 1_555
Ca9 Ga5 3.057034 1_555
Ca9 Pd3 3.158207 1_555
Ca9 Pd4 3.158207 1_555
Ca9 Pd1 3.164442 1_555
Ca9 Pd6 3.164442 1_555
Ca9 Ga5 3.206147 1_455
Ca10 Ga4 3.028019 1_555
Ca10 Ga6 3.057034 1_555
Ca10 Pd7 3.158207 1_555
Ca10 Pd0 3.158207 1_555
Ca10 Pd5 3.164442 1_555
Ca10 Pd2 3.164442 1_555
Ca10 Ga6 3.206147 1_655
Ca10 Ca2 3.697846 1_565
Ca10 Ca5 3.697846 1_565
Ca10 Ca7 3.741212 1_555
Ca10 Ca7 3.785225 1_655
Ca11 Ga5 3.028019 1_565
Ca11 Ga7 3.057034 1_555
Ca11 Pd1 3.158207 1_565
Ca11 Pd6 3.158207 1_565
Ca11 Pd4 3.164442 1_555
Ca11 Pd3 3.164442 1_555
Ca11 Ga7 3.206147 1_655
Ca11 Ca3 3.697846 1_555
Ca11 Ca4 3.697846 1_555
Ca11 Ca6 3.741212 1_555
Ca11 Ca6 3.785225 1_655
Ga0 Pd5 2.564403 1_545
Ga0 Pd4 2.564403 1_554
Ga0 Pd0 2.616427 1_555
Ga0 Pd1 2.616427 1_554
Ga1 Pd7 2.564403 1_555
Ga1 Pd6 2.564403 1_565
Ga1 Pd3 2.616427 1_555
Ga1 Pd2 2.616427 1_555
Ga2 Pd0 2.564403 1_555
Ga2 Pd1 2.564403 1_564
Ga2 Pd4 2.616427 1_554
Ga2 Pd5 2.616427 1_555
Ga3 Pd2 2.564403 1_545
Ga3 Pd3 2.564403 1_555
Ga3 Pd7 2.616427 1_555
Ga3 Pd6 2.616427 1_555
Ga4 Pd7 2.573263 1_555
Ga4 Pd0 2.573263 1_555
Ga5 Pd6 2.573263 1_555
Ga5 Pd1 2.573263 1_555
Ga6 Pd5 2.573263 1_555
Ga6 Pd2 2.573263 1_555
Ga7 Pd4 2.573263 1_555
Ga7 Pd3 2.573263 1_555
Pd0 Pd4 3.012481 1_554
Pd1 Pd5 3.012481 1_546
Pd2 Pd6 3.012481 1_565
Pd3 Pd7 3.012481 1_555
