# generated using pymatgen
data_Nd2CdSe4
_symmetry_space_group_name_H-M   'P 1'
_cell_length_a   7.77410674
_cell_length_b   7.77410674
_cell_length_c   7.77410674
_cell_angle_alpha   110.82266711
_cell_angle_beta   110.82266711
_cell_angle_gamma   106.80087803
_symmetry_Int_Tables_number   1
_chemical_formula_structural   Nd2CdSe4
_chemical_formula_sum   'Nd4 Cd2 Se8'
_cell_volume   361.09849810
_cell_formula_units_Z   2
loop_
 _symmetry_equiv_pos_site_id
 _symmetry_equiv_pos_as_xyz
  1  'x, y, z'
loop_
 _atom_site_type_symbol
 _atom_site_label
 _atom_site_symmetry_multiplicity
 _atom_site_fract_x
 _atom_site_fract_y
 _atom_site_fract_z
 _atom_site_occupancy
  Nd  Nd0  1  0.37500000  0.75930000  0.88430000  1
  Nd  Nd1  1  0.50930000  0.62500000  0.38430000  1
  Nd  Nd2  1  0.87500000  0.49070000  0.11570000  1
  Nd  Nd3  1  0.24070000  0.12500000  0.61570000  1
  Cd  Cd0  1  0.75000000  0.25000000  0.50000000  1
  Cd  Cd1  1  0.00000000  0.00000000  0.00000000  1
  Se  Se0  1  0.24570000  0.86931700  0.23738900  1
  Se  Se1  1  0.75831100  0.88192800  0.26261100  1
  Se  Se2  1  0.11807200  0.38068300  0.87638300  1
  Se  Se3  1  0.99168900  0.75430000  0.62361700  1
  Se  Se4  1  0.61931700  0.49570000  0.73738900  1
  Se  Se5  1  0.50430000  0.24168900  0.12361700  1
  Se  Se6  1  0.13068300  0.36807200  0.37638300  1
  Se  Se7  1  0.63192800  0.00831100  0.76261100  1
loop_
_geom_bond_atom_site_label_1
_geom_bond_atom_site_label_2
_geom_bond_distance
_geom_bond_site_symmetry_2
Nd0 Se1 2.927784 1_556
Nd0 Se3 2.927784 1_455
Nd0 Se2 3.007011 1_555
Nd0 Se7 3.007011 1_565
Nd0 Se5 3.172733 1_566
Nd0 Se0 3.172733 1_556
Nd0 Se4 3.352568 1_555
Nd0 Se6 3.352568 1_555
Nd1 Se7 2.927784 1_565
Nd1 Se5 2.927784 1_555
Nd1 Se6 3.007011 1_555
Nd1 Se1 3.007011 1_555
Nd1 Se3 3.172733 1_555
Nd1 Se4 3.172733 1_555
Nd1 Se0 3.352568 1_555
Nd1 Se2 3.352568 1_554
Nd2 Se6 2.927784 1_655
Nd2 Se4 2.927784 1_554
Nd2 Se5 3.007011 1_555
Nd2 Se0 3.007011 1_655
Nd2 Se2 3.172733 1_654
Nd2 Se7 3.172733 1_554
Nd2 Se1 3.352568 1_555
Nd2 Se3 3.352568 1_555
Nd3 Se2 2.927784 1_555
Nd3 Se0 2.927784 1_545
Nd3 Se4 3.007011 1_555
Nd3 Se3 3.007011 1_445
Nd3 Se1 3.172733 1_445
Nd3 Se6 3.172733 1_555
Nd3 Se5 3.352568 1_556
Nd3 Se7 3.352568 1_555
Cd0 Se2 2.834621 1_655
Cd0 Se4 2.834621 1_555
Cd0 Se1 2.834621 1_545
Cd0 Se5 2.834621 1_555
Cd1 Se3 2.834621 1_444
Cd1 Se6 2.834621 1_555
Cd1 Se0 2.834621 1_545
Cd1 Se7 2.834621 1_454
