# generated using pymatgen
data_Ag3(AsO4)2
_symmetry_space_group_name_H-M   'P 1'
_cell_length_a   5.97246819
_cell_length_b   5.97246819
_cell_length_c   5.97246840
_cell_angle_alpha   88.18321403
_cell_angle_beta   88.18321403
_cell_angle_gamma   88.18322136
_symmetry_Int_Tables_number   1
_chemical_formula_structural   Ag3(AsO4)2
_chemical_formula_sum   'Ag3 As2 O8'
_cell_volume   212.72555706
_cell_formula_units_Z   1
loop_
 _symmetry_equiv_pos_site_id
 _symmetry_equiv_pos_as_xyz
  1  'x, y, z'
loop_
 _atom_site_type_symbol
 _atom_site_label
 _atom_site_symmetry_multiplicity
 _atom_site_fract_x
 _atom_site_fract_y
 _atom_site_fract_z
 _atom_site_occupancy
  Ag  Ag0  1  0.51030800  0.25855600  0.99818900  1
  Ag  Ag1  1  0.25855600  0.99818900  0.51030800  1
  Ag  Ag2  1  0.99818900  0.51030800  0.25855600  1
  As  As0  1  0.00262600  0.00262600  0.00262600  1
  As  As1  1  0.49793700  0.49793700  0.49793700  1
  O  O0  1  0.84335700  0.21145200  0.14489200  1
  O  O1  1  0.84665000  0.84665000  0.84665000  1
  O  O2  1  0.65944900  0.64570700  0.30670400  1
  O  O3  1  0.64570700  0.30670400  0.65944900  1
  O  O4  1  0.30670400  0.65944900  0.64570700  1
  O  O5  1  0.32417200  0.32417200  0.32417200  1
  O  O6  1  0.14489200  0.84335700  0.21145200  1
  O  O7  1  0.21145200  0.14489200  0.84335700  1
loop_
_geom_bond_atom_site_label_1
_geom_bond_atom_site_label_2
_geom_bond_distance
_geom_bond_site_symmetry_2
Ag0 O3 2.168812 1_555
Ag0 O7 2.173282 1_555
Ag0 O0 2.205186 1_556
Ag0 O5 2.250214 1_556
Ag1 O4 2.168812 1_555
Ag1 O6 2.173282 1_555
Ag1 O7 2.205187 1_565
Ag1 O5 2.250214 1_565
Ag2 O2 2.168812 1_555
Ag2 O0 2.173282 1_555
Ag2 O6 2.205186 1_655
Ag2 O5 2.250214 1_655
As0 O1 1.663880 1_444
As0 O7 1.767212 1_554
As0 O6 1.767212 1_545
As0 O0 1.767212 1_455
As1 O2 1.712914 1_555
As1 O3 1.712915 1_555
As1 O4 1.712915 1_555
As1 O5 1.853645 1_555
