# generated using pymatgen
data_Hf2Zr(SiTc)3
_symmetry_space_group_name_H-M   'P 1'
_cell_length_a   7.72913159
_cell_length_b   7.72913054
_cell_length_c   7.72913062
_cell_angle_alpha   126.63988239
_cell_angle_beta   128.00422638
_cell_angle_gamma   77.73091639
_symmetry_Int_Tables_number   1
_chemical_formula_structural   Hf2Zr(SiTc)3
_chemical_formula_sum   'Hf4 Zr2 Si6 Tc6'
_cell_volume   283.03598872
_cell_formula_units_Z   2
loop_
 _symmetry_equiv_pos_site_id
 _symmetry_equiv_pos_as_xyz
  1  'x, y, z'
loop_
 _atom_site_type_symbol
 _atom_site_label
 _atom_site_symmetry_multiplicity
 _atom_site_fract_x
 _atom_site_fract_y
 _atom_site_fract_z
 _atom_site_occupancy
  Hf  Hf0  1  0.74909331  0.85020655  0.60111324  1
  Hf  Hf1  1  0.25090669  0.85201993  0.10111324  1
  Hf  Hf2  1  0.04926628  0.25284773  0.70358045  1
  Hf  Hf3  1  0.95073372  0.65431317  0.20358045  1
  Zr  Zr0  1  0.45227577  0.65769074  0.70541497  1
  Zr  Zr1  1  0.54772423  0.25313819  0.20541497  1
  Si  Si0  1  0.25054308  0.25380707  0.50326399  1
  Si  Si1  1  0.74945692  0.25272091  0.00326399  1
  Si  Si2  1  0.33131062  0.58739382  0.25093255  1
  Si  Si3  1  0.66868938  0.91962292  0.25608519  1
  Si  Si4  1  0.16353873  0.91962292  0.75093255  1
  Si  Si5  1  0.83646127  0.58739382  0.75608519  1
  Tc  Tc0  1  0.50000000  0.50839027  0.00839027  1
  Tc  Tc1  1  1.00000000  0.50839027  0.50839027  1
  Tc  Tc2  1  0.12490906  0.25248111  0.12344729  1
  Tc  Tc3  1  0.87509094  0.99854023  0.12757405  1
  Tc  Tc4  1  0.37096518  0.99854023  0.62344729  1
  Tc  Tc5  1  0.62903482  0.25248111  0.62757405  1
loop_
_geom_bond_atom_site_label_1
_geom_bond_atom_site_label_2
_geom_bond_distance
_geom_bond_site_symmetry_2
Hf0 Si3 2.703873 1_555
Hf0 Si4 2.703884 1_655
Hf0 Si2 2.709602 1_555
Hf0 Si5 2.709613 1_555
Hf0 Si1 2.791285 1_566
Hf0 Tc0 2.920342 1_555
Hf0 Tc1 2.920342 1_555
Hf0 Tc5 2.969635 1_565
Hf0 Tc2 2.969642 1_666
Hf0 Tc3 2.974358 1_556
Hf0 Tc4 2.974359 1_555
Hf1 Si2 2.703882 1_555
Hf1 Si5 2.703885 1_454
Hf1 Si3 2.709597 1_555
Hf1 Si4 2.709607 1_554
Hf1 Si0 2.791285 1_565
Hf1 Tc1 2.920342 1_454
Hf1 Tc0 2.920342 1_555
Hf1 Tc4 2.969639 1_555
Hf1 Tc3 2.969651 1_455
Hf1 Tc2 2.974349 1_565
Hf1 Tc5 2.974354 1_565
Hf2 Si3 2.703267 1_445
Hf2 Si4 2.703267 1_545
Hf2 Si5 2.705198 1_455
Hf2 Si2 2.705203 1_556
Hf2 Si0 2.793221 1_555
Hf2 Tc5 2.923526 1_455
Hf2 Tc2 2.923530 1_556
Hf2 Tc3 2.965766 1_445
Hf2 Tc4 2.965769 1_545
Hf2 Tc1 2.975165 1_455
Hf2 Tc0 2.975169 1_556
Hf3 Si5 2.703256 1_554
Hf3 Si2 2.703267 1_655
Hf3 Si4 2.705203 1_655
Hf3 Si3 2.705215 1_555
Hf3 Si1 2.793218 1_555
Hf3 Tc4 2.923531 1_655
Hf3 Tc3 2.923538 1_555
Hf3 Tc5 2.965769 1_554
Hf3 Tc2 2.965772 1_655
Hf3 Tc1 2.975166 1_555
Hf3 Tc0 2.975170 1_555
Si0 Tc4 2.442173 1_545
Si0 Tc3 2.442183 1_445
Si0 Tc0 2.450586 1_556
Si0 Tc1 2.450586 1_455
Si0 Tc2 2.453368 1_555
Si0 Tc5 2.453370 1_555
Si0 Zr0 2.804334 1_555
Si1 Tc5 2.442175 1_554
Si1 Tc2 2.442188 1_655
Si1 Tc1 2.450586 1_555
Si1 Tc0 2.450586 1_555
Si1 Tc3 2.453363 1_545
Si1 Tc4 2.453368 1_544
Si1 Zr1 2.804338 1_555
Si2 Tc4 2.624665 1_555
Si2 Tc0 2.625324 1_555
Si2 Tc2 2.644173 1_555
Si2 Zr1 2.720177 1_555
Si2 Zr0 2.720712 1_555
Si3 Tc5 2.624647 1_565
Si3 Tc0 2.625326 1_555
Si3 Tc3 2.644178 1_555
Si3 Zr0 2.720182 1_554
Si3 Zr1 2.720705 1_565
Si4 Tc2 2.624651 1_566
Si4 Tc1 2.625330 1_455
Si4 Tc4 2.644171 1_555
Si4 Zr0 2.720175 1_555
Si4 Zr1 2.720706 1_566
Si5 Tc3 2.624662 1_556
Si5 Tc1 2.625337 1_555
Si5 Tc5 2.644168 1_555
Si5 Zr1 2.720180 1_555
Si5 Zr0 2.720707 1_555
Tc0 Zr0 2.988671 1_554
Tc0 Zr1 2.988679 1_555
Tc1 Zr0 2.988672 1_655
Tc1 Zr1 2.988675 1_555
Tc2 Zr1 2.921442 1_555
Tc2 Zr0 2.996996 1_555
Tc3 Zr0 2.921448 1_554
Tc3 Zr1 2.996982 1_565
Tc4 Zr0 2.921457 1_555
Tc4 Zr1 2.996996 1_566
Tc5 Zr1 2.921449 1_555
Tc5 Zr0 2.997000 1_555
