# generated using pymatgen
data_RbMnCuAs2
_symmetry_space_group_name_H-M   'P 1'
_cell_length_a   7.48185861
_cell_length_b   7.48185909
_cell_length_c   7.48185823
_cell_angle_alpha   148.02780490
_cell_angle_beta   148.02780750
_cell_angle_gamma   45.84431263
_symmetry_Int_Tables_number   1
_chemical_formula_structural   RbMnCuAs2
_chemical_formula_sum   'Rb1 Mn1 Cu1 As2'
_cell_volume   117.03219128
_cell_formula_units_Z   1
loop_
 _symmetry_equiv_pos_site_id
 _symmetry_equiv_pos_as_xyz
  1  'x, y, z'
loop_
 _atom_site_type_symbol
 _atom_site_label
 _atom_site_symmetry_multiplicity
 _atom_site_fract_x
 _atom_site_fract_y
 _atom_site_fract_z
 _atom_site_occupancy
  Rb  Rb0  1  0.00000000  0.00000000  0.00000000  1
  Mn  Mn0  1  0.25000000  0.75000000  0.50000000  1
  Cu  Cu0  1  0.75000000  0.25000000  0.50000000  1
  As  As0  1  0.65510226  0.65510226  1.00000000  1
  As  As1  1  0.34489774  0.34489774  0.00000000  1
loop_
_geom_bond_atom_site_label_1
_geom_bond_atom_site_label_2
_geom_bond_distance
_geom_bond_site_symmetry_2
As0 Mn0 2.440569 1_555
As0 Cu0 2.440569 1_555
As0 Mn0 2.440570 1_656
As0 Cu0 2.440570 1_566
As0 Rb0 3.614013 1_566
As0 Rb0 3.614013 1_667
As0 Rb0 3.614013 1_656
As0 Rb0 3.614014 1_555
As1 Cu0 2.440569 1_555
As1 Mn0 2.440569 1_555
As1 Cu0 2.440570 1_454
As1 Mn0 2.440570 1_544
As1 Rb0 3.614013 1_655
As1 Rb0 3.614013 1_554
As1 Rb0 3.614013 1_565
As1 Rb0 3.614014 1_666
