# generated using pymatgen
data_Ca2B4Ir3Ru
_symmetry_space_group_name_H-M   'P 1'
_cell_length_a   6.93835508
_cell_length_b   6.04262032
_cell_length_c   5.53364094
_cell_angle_alpha   73.49997014
_cell_angle_beta   56.61968425
_cell_angle_gamma   49.67672656
_symmetry_Int_Tables_number   1
_chemical_formula_structural   Ca2B4Ir3Ru
_chemical_formula_sum   'Ca2 B4 Ir3 Ru1'
_cell_volume   146.75338015
_cell_formula_units_Z   1
loop_
 _symmetry_equiv_pos_site_id
 _symmetry_equiv_pos_as_xyz
  1  'x, y, z'
loop_
 _atom_site_type_symbol
 _atom_site_label
 _atom_site_symmetry_multiplicity
 _atom_site_fract_x
 _atom_site_fract_y
 _atom_site_fract_z
 _atom_site_occupancy
  Ca  Ca0  1  0.99953915  0.99953915  0.00046085  1
  Ca  Ca1  1  0.24905837  0.24905837  0.25094163  1
  B  B0  1  0.32204529  0.68264217  0.32114129  1
  B  B1  1  0.56544771  0.93108338  0.57086914  1
  B  B2  1  0.68264217  0.32204529  0.67417025  1
  B  B3  1  0.93108338  0.56544771  0.93259977  1
  Ir  Ir0  1  0.88219565  0.88219565  0.61780435  1
  Ir  Ir1  1  0.61781287  0.61781287  0.88218713  1
  Ir  Ir2  1  0.36767729  0.36767729  0.63232271  1
  Ru  Ru0  1  0.63249812  0.63249812  0.36750188  1
loop_
_geom_bond_atom_site_label_1
_geom_bond_atom_site_label_2
_geom_bond_distance
_geom_bond_site_symmetry_2
Ca0 Ir1 3.018823 1_654
Ca0 Ir1 3.018823 1_564
Ca0 Ir0 3.024308 1_554
Ca0 Ir0 3.024308 1_555
Ca0 Ir2 3.364952 1_654
Ca0 Ir2 3.364952 1_565
Ca0 Ru0 3.369624 1_565
Ca0 Ru0 3.369624 1_654
Ca1 Ru0 3.011597 1_455
Ca1 Ru0 3.011597 1_545
Ca1 Ir2 3.029691 1_555
Ca1 Ir2 3.029691 1_554
Ca1 Ir1 3.362342 1_544
Ca1 Ir1 3.362342 1_455
Ca1 Ir0 3.370387 1_455
Ca1 Ir0 3.370387 1_544
B0 Ir1 2.068784 1_554
B0 Ir0 2.076423 1_455
B0 Ru0 2.125255 1_555
B0 Ir2 2.155483 1_555
B0 Ca0 2.952396 1_455
B0 Ca1 3.056119 1_565
B0 Ca1 3.127837 1_555
B1 Ru0 2.056472 1_555
B1 Ir2 2.066282 1_565
B1 Ir1 2.151598 1_555
B1 Ir0 2.174612 1_555
B1 Ca1 2.920692 1_565
B1 Ca0 3.069999 1_456
B1 Ca0 3.100836 1_555
B2 Ir1 2.068787 1_555
B2 Ir0 2.076422 1_545
B2 Ru0 2.125251 1_555
B2 Ir2 2.155479 1_555
B2 Ca0 2.952400 1_546
B2 Ca1 3.056118 1_655
B2 Ca1 3.127840 1_556
B3 Ru0 2.056472 1_556
B3 Ir2 2.066282 1_655
B3 Ir1 2.151598 1_555
B3 Ir0 2.174612 1_555
B3 Ca1 2.920692 1_656
B3 Ca0 3.069999 1_546
B3 Ca0 3.100836 1_556
