# generated using pymatgen
data_Cs2MnVS4
_symmetry_space_group_name_H-M   'P 1'
_cell_length_a   14.34652278
_cell_length_b   12.77298599
_cell_length_c   7.66100725
_cell_angle_alpha   85.30543624
_cell_angle_beta   62.53993202
_cell_angle_gamma   32.15463105
_symmetry_Int_Tables_number   1
_chemical_formula_structural   Cs2MnVS4
_chemical_formula_sum   'Cs4 Mn2 V2 S8'
_cell_volume   501.88358723
_cell_formula_units_Z   2
loop_
 _symmetry_equiv_pos_site_id
 _symmetry_equiv_pos_as_xyz
  1  'x, y, z'
loop_
 _atom_site_type_symbol
 _atom_site_label
 _atom_site_symmetry_multiplicity
 _atom_site_fract_x
 _atom_site_fract_y
 _atom_site_fract_z
 _atom_site_occupancy
  Cs  Cs0  1  0.57381604  0.57381604  0.92618396  1
  Cs  Cs1  1  0.92618396  0.92618396  0.57381604  1
  Cs  Cs2  1  0.32381604  0.32381604  0.67618396  1
  Cs  Cs3  1  0.67618396  0.67618396  0.32381604  1
  Mn  Mn0  1  0.00000000  0.00000000  0.00000000  1
  Mn  Mn1  1  0.25000000  0.25000000  0.25000000  1
  V  V0  1  0.75000000  0.75000000  0.75000000  1
  V  V1  1  0.50000000  0.50000000  0.50000000  1
  S  S0  1  0.23281705  0.86821026  0.58630954  1
  S  S1  1  0.31266315  0.58630954  0.86821026  1
  S  S2  1  0.58630954  0.31266315  0.23281705  1
  S  S3  1  0.86821026  0.23281705  0.31266315  1
  S  S4  1  0.38178974  0.01718295  0.93733685  1
  S  S5  1  0.93733685  0.66369046  0.38178974  1
  S  S6  1  0.66369046  0.93733685  0.01718295  1
  S  S7  1  0.01718295  0.38178974  0.66369046  1
loop_
_geom_bond_atom_site_label_1
_geom_bond_atom_site_label_2
_geom_bond_distance
_geom_bond_site_symmetry_2
Cs0 S3 3.577063 1_555
Cs0 S0 3.577063 1_556
Cs0 S4 3.621207 1_565
Cs0 S7 3.621207 1_655
Cs0 S0 3.775227 1_645
Cs0 S3 3.775227 1_466
Cs0 S2 3.843267 1_556
Cs0 S1 3.843267 1_555
Cs1 S1 3.577063 1_565
Cs1 S2 3.577063 1_655
Cs1 S6 3.621207 1_556
Cs1 S5 3.621207 1_555
Cs1 S2 3.775227 1_566
Cs1 S1 3.775227 1_654
Cs1 S3 3.843267 1_565
Cs1 S0 3.843267 1_655
Cs2 S5 3.577063 1_545
Cs2 S6 3.577063 1_456
Cs2 S2 3.621207 1_555
Cs2 S1 3.621207 1_555
Cs2 S6 3.775227 1_545
Cs2 S5 3.775227 1_456
Cs2 S4 3.843267 1_555
Cs2 S7 3.843267 1_555
Cs3 S4 3.577063 1_565
Cs3 S7 3.577063 1_654
Cs3 S3 3.621207 1_555
Cs3 S0 3.621207 1_555
Cs3 S7 3.775227 1_565
Cs3 S4 3.775227 1_654
Cs3 S6 3.843267 1_555
Cs3 S5 3.843267 1_555
Mn0 S3 2.371606 1_455
Mn0 S0 2.371606 1_544
Mn0 S1 2.371606 1_544
Mn0 S2 2.371607 1_455
Mn1 S4 2.371606 1_554
Mn1 S7 2.371606 1_555
Mn1 S5 2.371606 1_455
Mn1 S6 2.371607 1_545
S0 V1 2.212699 1_555
S1 V1 2.212699 1_555
S2 V1 2.212699 1_555
S3 V1 2.212699 1_555
S4 V0 2.212699 1_545
S5 V0 2.212699 1_555
S6 V0 2.212699 1_554
S7 V0 2.212699 1_455
