# generated using pymatgen
data_Ta6Be8Al8Ir7
_symmetry_space_group_name_H-M   'P 1'
_cell_length_a   8.19288198
_cell_length_b   8.19288119
_cell_length_c   8.19288079
_cell_angle_alpha   59.99999764
_cell_angle_beta   60.00000087
_cell_angle_gamma   59.99999963
_symmetry_Int_Tables_number   1
_chemical_formula_structural   Ta6Be8Al8Ir7
_chemical_formula_sum   'Ta6 Be8 Al8 Ir7'
_cell_volume   388.86153623
_cell_formula_units_Z   1
loop_
 _symmetry_equiv_pos_site_id
 _symmetry_equiv_pos_as_xyz
  1  'x, y, z'
loop_
 _atom_site_type_symbol
 _atom_site_label
 _atom_site_symmetry_multiplicity
 _atom_site_fract_x
 _atom_site_fract_y
 _atom_site_fract_z
 _atom_site_occupancy
  Ta  Ta0  1  0.67993111  0.32006889  0.32006889  1
  Ta  Ta1  1  0.32006889  0.67993111  0.67993111  1
  Ta  Ta2  1  0.32006889  0.67993111  0.32006889  1
  Ta  Ta3  1  0.67993111  0.32006889  0.67993111  1
  Ta  Ta4  1  0.32006889  0.32006889  0.67993111  1
  Ta  Ta5  1  0.67993111  0.67993111  0.32006889  1
  Be  Be0  1  0.34307190  0.34307190  0.34307190  1
  Be  Be1  1  0.65692810  0.65692810  0.65692810  1
  Be  Be2  1  0.34307190  0.34307190  0.97078531  1
  Be  Be3  1  0.34307190  0.97078531  0.34307190  1
  Be  Be4  1  0.65692810  0.65692810  0.02921469  1
  Be  Be5  1  0.65692810  0.02921469  0.65692810  1
  Be  Be6  1  0.97078531  0.34307190  0.34307190  1
  Be  Be7  1  0.02921469  0.65692810  0.65692810  1
  Al  Al0  1  0.12528733  0.12528733  0.12528733  1
  Al  Al1  1  0.87471267  0.87471267  0.87471267  1
  Al  Al2  1  0.12528733  0.12528733  0.62413802  1
  Al  Al3  1  0.12528733  0.62413802  0.12528733  1
  Al  Al4  1  0.87471267  0.87471267  0.37586198  1
  Al  Al5  1  0.87471267  0.37586198  0.87471267  1
  Al  Al6  1  0.62413802  0.12528733  0.12528733  1
  Al  Al7  1  0.37586198  0.87471267  0.87471267  1
  Ir  Ir0  1  0.50000000  0.00000000  0.00000000  1
  Ir  Ir1  1  0.00000000  0.50000000  0.50000000  1
  Ir  Ir2  1  0.00000000  0.50000000  0.00000000  1
  Ir  Ir3  1  0.50000000  0.00000000  0.50000000  1
  Ir  Ir4  1  0.00000000  0.00000000  0.50000000  1
  Ir  Ir5  1  0.50000000  0.50000000  0.00000000  1
  Ir  Ir6  1  0.00000000  0.00000000  0.00000000  1
loop_
_geom_bond_atom_site_label_1
_geom_bond_atom_site_label_2
_geom_bond_distance
_geom_bond_site_symmetry_2
Ta0 Ta3 2.948308 1_555
Ta0 Ta5 2.948308 1_555
Ta0 Ta4 2.948309 1_555
Ta0 Ta2 2.948309 1_555
Ta1 Ta2 2.948308 1_555
Ta1 Ta4 2.948308 1_555
Ta1 Ta5 2.948309 1_555
Ta1 Ta3 2.948309 1_555
Ta2 Ta4 2.948308 1_555
Ta2 Ta5 2.948309 1_555
Ta3 Ta5 2.948308 1_555
Ta3 Ta4 2.948309 1_555
Be0 Ir5 2.373142 1_555
Be0 Ir3 2.373142 1_555
Be0 Ir1 2.373142 1_555
Be0 Ta4 2.585162 1_555
Be0 Ta2 2.585162 1_555
Be0 Ta0 2.585163 1_555
Be1 Ir5 2.373142 1_556
Be1 Ir3 2.373142 1_565
Be1 Ir1 2.373142 1_655
Be1 Ta5 2.585162 1_555
Be1 Ta3 2.585162 1_555
Be1 Ta1 2.585163 1_555
Be2 Ir5 2.373137 1_556
Be2 Ir0 2.373144 1_556
Be2 Ir2 2.373144 1_556
Be2 Ta1 2.585166 1_555
Be2 Ta3 2.585166 1_555
Be2 Ta4 2.585170 1_555
Be3 Ir3 2.373137 1_565
Be3 Ir0 2.373144 1_565
Be3 Ir4 2.373144 1_565
Be3 Ta1 2.585166 1_555
Be3 Ta5 2.585166 1_555
Be3 Ta2 2.585170 1_555
Be4 Ir5 2.373137 1_555
Be4 Ir0 2.373144 1_565
Be4 Ir2 2.373144 1_655
Be4 Ta0 2.585166 1_555
Be4 Ta2 2.585166 1_555
Be4 Ta5 2.585170 1_555
Be5 Ir3 2.373137 1_555
Be5 Ir0 2.373144 1_556
Be5 Ir4 2.373144 1_655
Be5 Ta0 2.585166 1_555
Be5 Ta4 2.585166 1_555
Be5 Ta3 2.585170 1_555
Be6 Ir1 2.373137 1_655
Be6 Ir2 2.373144 1_655
Be6 Ir4 2.373144 1_655
Be6 Ta3 2.585166 1_555
Be6 Ta5 2.585166 1_555
Be6 Ta0 2.585171 1_555
Be7 Ir1 2.373137 1_555
Be7 Ir2 2.373144 1_556
Be7 Ir4 2.373144 1_565
Be7 Ta2 2.585166 1_555
Be7 Ta4 2.585166 1_555
Be7 Ta1 2.585171 1_555
Al0 Ir4 2.506631 1_555
Al0 Ir2 2.506631 1_555
Al0 Ir0 2.506631 1_555
Al0 Ir6 2.514314 1_555
Al0 Be6 2.576071 1_455
Al0 Be3 2.576071 1_545
Al0 Be2 2.576071 1_554
Al0 Al7 2.903279 1_544
Al0 Al5 2.903279 1_454
Al0 Al4 2.903279 1_445
Al0 Ta4 3.050871 1_554
Al0 Ta2 3.050871 1_545
Al0 Ta0 3.050871 1_455
Al1 Ir4 2.506631 1_665
Al1 Ir2 2.506631 1_656
Al1 Ir0 2.506631 1_566
Al1 Ir6 2.514314 1_666
Al1 Be7 2.576071 1_655
Al1 Be5 2.576071 1_565
Al1 Be4 2.576071 1_556
Al1 Al3 2.903279 1_656
Al1 Al6 2.903279 1_566
Al1 Al2 2.903279 1_665
Al1 Ta5 3.050871 1_556
Al1 Ta3 3.050871 1_565
Al1 Ta1 3.050871 1_655
Al2 Ir1 2.506631 1_555
Al2 Ir4 2.506631 1_555
Al2 Ir3 2.506631 1_555
Al2 Ir6 2.514313 1_556
Al2 Be6 2.576064 1_455
Al2 Be3 2.576064 1_545
Al2 Be0 2.576069 1_555
Al2 Al7 2.903279 1_545
Al2 Al5 2.903279 1_455
Al2 Ta1 3.050871 1_545
Al2 Ta4 3.050871 1_555
Al2 Ta3 3.050871 1_455
Al3 Ir1 2.506631 1_555
Al3 Ir2 2.506631 1_555
Al3 Ir5 2.506631 1_555
Al3 Ir6 2.514313 1_565
Al3 Be2 2.576064 1_554
Al3 Be6 2.576064 1_455
Al3 Be0 2.576069 1_555
Al3 Al4 2.903279 1_455
Al3 Al7 2.903279 1_554
Al3 Ta1 3.050871 1_554
Al3 Ta2 3.050871 1_555
Al3 Ta5 3.050871 1_455
Al4 Ir1 2.506631 1_655
Al4 Ir4 2.506631 1_665
Al4 Ir3 2.506631 1_565
Al4 Ir6 2.514313 1_665
Al4 Be7 2.576064 1_655
Al4 Be5 2.576064 1_565
Al4 Be1 2.576069 1_555
Al4 Al6 2.903279 1_565
Al4 Ta0 3.050871 1_565
Al4 Ta5 3.050871 1_555
Al4 Ta2 3.050871 1_655
Al5 Ir1 2.506631 1_655
Al5 Ir2 2.506631 1_656
Al5 Ir5 2.506631 1_556
Al5 Ir6 2.514313 1_656
Al5 Be4 2.576064 1_556
Al5 Be7 2.576064 1_655
Al5 Be1 2.576069 1_555
Al5 Al6 2.903279 1_556
Al5 Ta0 3.050871 1_556
Al5 Ta3 3.050871 1_555
Al5 Ta4 3.050871 1_655
Al6 Ir3 2.506631 1_555
Al6 Ir5 2.506631 1_555
Al6 Ir0 2.506631 1_555
Al6 Ir6 2.514314 1_655
Al6 Be2 2.576064 1_554
Al6 Be3 2.576064 1_545
Al6 Be0 2.576069 1_555
Al6 Ta3 3.050870 1_554
Al6 Ta5 3.050871 1_545
Al6 Ta0 3.050871 1_555
Al7 Ir3 2.506631 1_565
Al7 Ir5 2.506631 1_556
Al7 Ir0 2.506631 1_566
Al7 Ir6 2.514314 1_566
Al7 Be4 2.576064 1_556
Al7 Be5 2.576064 1_565
Al7 Be1 2.576069 1_555
Al7 Ta2 3.050870 1_556
Al7 Ta4 3.050871 1_565
Al7 Ta1 3.050871 1_555
Ir0 Ta5 3.008241 1_545
Ir0 Ta4 3.008241 1_554
Ir0 Ta3 3.008241 1_554
Ir0 Ta2 3.008241 1_545
Ir1 Ta4 3.008242 1_555
Ir1 Ta5 3.008242 1_455
Ir1 Ta2 3.008242 1_555
Ir1 Ta3 3.008242 1_455
Ir2 Ta4 3.008241 1_554
Ir2 Ta5 3.008241 1_455
Ir2 Ta1 3.008242 1_554
Ir2 Ta0 3.008242 1_455
Ir3 Ta5 3.008241 1_545
Ir3 Ta4 3.008241 1_555
Ir3 Ta0 3.008242 1_555
Ir3 Ta1 3.008242 1_545
Ir4 Ta1 3.008241 1_545
Ir4 Ta3 3.008241 1_455
Ir4 Ta2 3.008241 1_545
Ir4 Ta0 3.008241 1_455
Ir5 Ta2 3.008241 1_555
Ir5 Ta0 3.008241 1_555
Ir5 Ta3 3.008241 1_554
Ir5 Ta1 3.008241 1_554
