# generated using pymatgen
data_Al18ReIr5
_symmetry_space_group_name_H-M   'P 1'
_cell_length_a   7.38685026
_cell_length_b   7.38654689
_cell_length_c   7.80948402
_cell_angle_alpha   90.00000389
_cell_angle_beta   89.98703320
_cell_angle_gamma   119.99864301
_symmetry_Int_Tables_number   1
_chemical_formula_structural   Al18ReIr5
_chemical_formula_sum   'Al18 Re1 Ir5'
_cell_volume   369.02828144
_cell_formula_units_Z   1
loop_
 _symmetry_equiv_pos_site_id
 _symmetry_equiv_pos_as_xyz
  1  'x, y, z'
loop_
 _atom_site_type_symbol
 _atom_site_label
 _atom_site_symmetry_multiplicity
 _atom_site_fract_x
 _atom_site_fract_y
 _atom_site_fract_z
 _atom_site_occupancy
  Al  Al0  1  0.66652861  0.00041372  0.07828657  1
  Al  Al1  1  0.33357434  0.33310971  0.07863325  1
  Al  Al2  1  0.99965633  0.66629605  0.08037663  1
  Al  Al3  1  0.33204887  0.66661101  0.24945178  1
  Al  Al4  1  0.00000000  0.99857664  0.24999900  1
  Al  Al5  1  0.66795013  0.33456114  0.25054722  1
  Al  Al6  1  0.33347139  0.33388411  0.42171243  1
  Al  Al7  1  0.00034367  0.66663872  0.41962237  1
  Al  Al8  1  0.66642566  0.99953437  0.42136575  1
  Al  Al9  1  0.32676474  0.99369231  0.58118563  1
  Al  Al10  1  0.99952968  0.33962543  0.58137562  1
  Al  Al11  1  0.67373144  0.66680654  0.58154017  1
  Al  Al12  1  0.33570344  0.66662953  0.74966243  1
  Al  Al13  1  1.00000000  0.00259803  0.74999900  1
  Al  Al14  1  0.66429556  0.33092609  0.75033657  1
  Al  Al15  1  0.00047132  0.34009575  0.91862338  1
  Al  Al16  1  0.67323426  0.66692656  0.91881337  1
  Al  Al17  1  0.32626856  0.99307409  0.91845883  1
  Re  Re0  1  0.00000000  0.66675834  0.74999900  1
  Ir  Ir0  1  0.33603607  0.00250653  0.24998054  1
  Ir  Ir1  1  0.00000000  0.33070448  0.24999900  1
  Ir  Ir2  1  0.66396393  0.66647046  0.25001746  1
  Ir  Ir3  1  0.66644339  0.99999988  0.74988053  1
  Ir  Ir4  1  0.33355661  0.33355649  0.75011747  1
loop_
_geom_bond_atom_site_label_1
_geom_bond_atom_site_label_2
_geom_bond_distance
_geom_bond_site_symmetry_2
Al0 Ir3 2.564683 1_544
Al0 Al8 2.679278 1_545
Al0 Al16 2.782697 1_544
Al0 Al17 2.782708 1_544
Al0 Al15 2.782936 1_654
Al0 Ir0 2.791826 1_555
Al0 Ir1 2.794688 1_655
Al0 Ir2 2.799428 1_545
Al0 Al5 2.806409 1_555
Al0 Al3 2.806704 1_545
Al0 Al4 2.810909 1_645
Al1 Ir4 2.565541 1_554
Al1 Al6 2.679278 1_555
Al1 Al17 2.782208 1_544
Al1 Al16 2.783003 1_554
Al1 Al15 2.783338 1_554
Al1 Ir0 2.792632 1_555
Al1 Ir2 2.793407 1_555
Al1 Ir1 2.796005 1_555
Al1 Al3 2.806403 1_555
Al1 Al5 2.806853 1_555
Al1 Al4 2.806885 1_545
Al2 Re0 2.580080 1_654
Al2 Al7 2.649339 1_655
Al2 Al3 2.787087 1_655
Al2 Al5 2.787281 1_555
Al2 Al4 2.787942 1_655
Al2 Ir2 2.811722 1_555
Al2 Ir1 2.811725 1_655
Al2 Ir0 2.815475 1_665
Al3 Ir2 2.452331 1_555
Al3 Ir0 2.466518 1_565
Al3 Ir1 2.467168 1_555
Al3 Al7 2.787271 1_555
Al3 Al6 2.806419 1_555
Al3 Al8 2.806853 1_555
Al4 Ir1 2.453278 1_565
Al4 Ir2 2.467863 1_455
Al4 Ir0 2.467863 1_565
Al4 Al7 2.787952 1_555
Al4 Al8 2.806886 1_455
Al4 Al6 2.810909 1_565
Al5 Ir0 2.452324 1_555
Al5 Ir2 2.466521 1_555
Al5 Ir1 2.467172 1_655
Al5 Al7 2.787090 1_655
Al5 Al8 2.806407 1_545
Al5 Al6 2.806698 1_555
Al6 Ir4 2.564676 1_555
Al6 Al9 2.782688 1_545
Al6 Ir2 2.791833 1_555
Al6 Ir1 2.794695 1_555
Al6 Ir0 2.799425 1_555
Al7 Re0 2.580072 1_555
Al7 Al9 2.723713 1_555
Al7 Ir1 2.811722 1_555
Al7 Ir0 2.811729 1_565
Al7 Ir2 2.815482 1_455
Al8 Ir3 2.565533 1_555
Al8 Al9 2.783013 1_555
Al8 Ir2 2.792629 1_555
Al8 Ir0 2.793414 1_565
Al8 Ir1 2.796012 1_665
Al9 Ir0 2.587389 1_565
Al9 Re0 2.750611 1_555
Al9 Ir3 2.813934 1_555
Al9 Ir4 2.814125 1_565
Al10 Ir1 2.588765 1_655
Al10 Al15 2.633739 1_655
Al10 Al7 2.723205 1_655
Al10 Re0 2.750391 1_655
Al10 Al14 2.777911 1_555
Al10 Al12 2.780592 1_655
Al10 Al6 2.782936 1_655
Al10 Al8 2.783348 1_545
Al10 Ir3 2.811628 1_545
Al10 Ir4 2.817578 1_655
Al10 Al13 2.817843 1_555
Al11 Ir2 2.590009 1_555
Al11 Al16 2.633932 1_555
Al11 Al7 2.724219 1_655
Al11 Re0 2.746198 1_655
Al11 Al13 2.777627 1_565
Al11 Al14 2.779375 1_555
Al11 Al8 2.782195 1_555
Al11 Al6 2.782714 1_555
Al11 Ir4 2.814256 1_555
Al11 Ir3 2.814412 1_555
Al11 Al12 2.820267 1_555
Al12 Ir4 2.452372 1_555
Al12 Ir3 2.452900 1_555
Al12 Re0 2.480268 1_555
Al12 Al15 2.777901 1_555
Al12 Al17 2.779371 1_555
Al12 Al9 2.780543 1_555
Al12 Al16 2.820906 1_555
Al13 Ir4 2.454394 1_655
Al13 Ir3 2.454394 1_545
Al13 Re0 2.480696 1_645
Al13 Al17 2.777635 1_645
Al13 Al9 2.779559 1_645
Al13 Al16 2.779569 1_545
Al13 Al15 2.817844 1_655
Al14 Ir3 2.452376 1_545
Al14 Ir4 2.452892 1_555
Al14 Re0 2.480271 1_655
Al14 Al16 2.780537 1_555
Al14 Al15 2.780605 1_655
Al14 Al17 2.820267 1_545
Al14 Al9 2.820906 1_545
Al15 Ir1 2.588757 1_556
Al15 Al2 2.723214 1_456
Al15 Re0 2.750398 1_555
Al15 Ir4 2.811625 1_555
Al15 Ir3 2.817585 1_445
Al16 Ir2 2.587381 1_556
Al16 Al2 2.723713 1_556
Al16 Re0 2.750618 1_655
Al16 Ir4 2.813931 1_555
Al16 Ir3 2.814132 1_555
Al17 Ir0 2.590002 1_566
Al17 Al9 2.633932 1_555
Al17 Al2 2.724212 1_456
Al17 Re0 2.746198 1_555
Al17 Ir3 2.814257 1_555
Al17 Ir4 2.814423 1_565
