# generated using pymatgen
data_Zr10Al3Zn2Te3
_symmetry_space_group_name_H-M   'P 1'
_cell_length_a   8.52303575
_cell_length_b   8.52303746
_cell_length_c   5.80149724
_cell_angle_alpha   90.00000000
_cell_angle_beta   90.00000000
_cell_angle_gamma   119.99999718
_symmetry_Int_Tables_number   1
_chemical_formula_structural   Zr10Al3Zn2Te3
_chemical_formula_sum   'Zr10 Al3 Zn2 Te3'
_cell_volume   364.97191067
_cell_formula_units_Z   1
loop_
 _symmetry_equiv_pos_site_id
 _symmetry_equiv_pos_as_xyz
  1  'x, y, z'
loop_
 _atom_site_type_symbol
 _atom_site_label
 _atom_site_symmetry_multiplicity
 _atom_site_fract_x
 _atom_site_fract_y
 _atom_site_fract_z
 _atom_site_occupancy
  Zr  Zr0  1  0.73967913  0.73967913  0.25000000  1
  Zr  Zr1  1  0.26032087  1.00000000  0.25000000  1
  Zr  Zr2  1  0.00000000  0.26032087  0.25000000  1
  Zr  Zr3  1  0.28020160  0.28020160  0.75000000  1
  Zr  Zr4  1  0.71979840  0.00000000  0.75000000  1
  Zr  Zr5  1  1.00000000  0.71979840  0.75000000  1
  Zr  Zr6  1  0.66666700  0.33333300  0.50971970  1
  Zr  Zr7  1  0.33333300  0.66666700  0.50971970  1
  Zr  Zr8  1  0.33333300  0.66666700  0.99028030  1
  Zr  Zr9  1  0.66666700  0.33333300  0.99028030  1
  Al  Al0  1  0.62627288  0.62627288  0.75000000  1
  Al  Al1  1  0.37372712  1.00000000  0.75000000  1
  Al  Al2  1  0.00000000  0.37372712  0.75000000  1
  Zn  Zn0  1  0.00000000  0.00000000  0.52643672  1
  Zn  Zn1  1  0.00000000  0.00000000  0.97356328  1
  Te  Te0  1  0.39331351  0.39331351  0.25000000  1
  Te  Te1  1  0.60668649  1.00000000  0.25000000  1
  Te  Te2  1  0.00000000  0.60668649  0.25000000  1
loop_
_geom_bond_atom_site_label_1
_geom_bond_atom_site_label_2
_geom_bond_distance
_geom_bond_site_symmetry_2
Zr6 Zr9 2.787971 1_555
Zr6 Zr9 3.013526 1_554
Zr7 Zr8 2.787971 1_555
Zr7 Zr8 3.013526 1_554
Al0 Zr5 2.870960 1_555
Al0 Zr4 2.870960 1_565
Al0 Zr3 2.949578 1_555
Al0 Zr8 3.025723 1_555
Al0 Zr7 3.025723 1_555
Al0 Zr9 3.025723 1_555
Al0 Zr6 3.025723 1_555
Al0 Zr0 3.057547 1_555
Al0 Zr0 3.057547 1_556
Al1 Zr5 2.870960 1_455
Al1 Zr3 2.870960 1_565
Al1 Zr4 2.949578 1_565
Al1 Zr8 3.025716 1_555
Al1 Zr7 3.025716 1_555
Al1 Zr9 3.025719 1_565
Al1 Zr6 3.025719 1_565
Al1 Zr1 3.057547 1_555
Al1 Zr1 3.057547 1_556
Al2 Zr3 2.870960 1_555
Al2 Zr4 2.870960 1_455
Al2 Zr5 2.949578 1_455
Al2 Zr9 3.025715 1_455
Al2 Zr6 3.025715 1_455
Al2 Zr8 3.025719 1_555
Al2 Zr7 3.025719 1_555
Al2 Zr2 3.057547 1_555
Al2 Zr2 3.057547 1_556
Zn0 Zn1 2.594004 1_555
Zn0 Zr4 2.717639 1_455
Zn0 Zr3 2.717639 1_555
Zn0 Zr5 2.717639 1_445
Zn0 Zr1 2.737652 1_545
Zn0 Zr0 2.737653 1_445
Zn0 Zr2 2.737653 1_555
Zn1 Zr4 2.717639 1_455
Zn1 Zr3 2.717639 1_555
Zn1 Zr5 2.717639 1_445
Zn1 Zr1 2.737652 1_546
Zn1 Zr0 2.737653 1_446
Zn1 Zr2 2.737653 1_556
Te0 Zr0 2.952087 1_555
Te0 Zr2 2.953386 1_555
Te0 Zr1 2.953386 1_545
Te0 Zr6 3.025010 1_555
Te0 Zr9 3.025010 1_554
Te0 Zr7 3.025010 1_555
Te0 Zr8 3.025010 1_554
Te0 Zr3 3.056755 1_554
Te0 Zr3 3.056755 1_555
Te1 Zr1 2.952087 1_555
Te1 Zr2 2.953386 1_665
Te1 Zr0 2.953386 1_555
Te1 Zr6 3.025003 1_565
Te1 Zr9 3.025003 1_564
Te1 Zr7 3.025005 1_555
Te1 Zr8 3.025005 1_554
Te1 Zr4 3.056755 1_564
Te1 Zr4 3.056755 1_565
Te2 Zr2 2.952087 1_555
Te2 Zr0 2.953386 1_455
Te2 Zr1 2.953386 1_555
Te2 Zr7 3.025003 1_555
Te2 Zr8 3.025003 1_554
Te2 Zr6 3.025005 1_455
Te2 Zr9 3.025005 1_454
Te2 Zr5 3.056755 1_455
Te2 Zr5 3.056755 1_454
