# generated using pymatgen
data_LiAg3(PdO3)2
_symmetry_space_group_name_H-M   'P 1'
_cell_length_a   5.22480887
_cell_length_b   5.22271020
_cell_length_c   6.45547691
_cell_angle_alpha   74.28792712
_cell_angle_beta   97.77869472
_cell_angle_gamma   119.98671148
_symmetry_Int_Tables_number   1
_chemical_formula_structural   LiAg3(PdO3)2
_chemical_formula_sum   'Li1 Ag3 Pd2 O6'
_cell_volume   146.87401037
_cell_formula_units_Z   1
loop_
 _symmetry_equiv_pos_site_id
 _symmetry_equiv_pos_as_xyz
  1  'x, y, z'
loop_
 _atom_site_type_symbol
 _atom_site_label
 _atom_site_symmetry_multiplicity
 _atom_site_fract_x
 _atom_site_fract_y
 _atom_site_fract_z
 _atom_site_occupancy
  Li  Li0  1  0.33333300  0.16666700  0.50000000  1
  Ag  Ag0  1  0.67703757  0.33851728  1.00000000  1
  Ag  Ag1  1  0.33333300  0.66666700  0.00000000  1
  Ag  Ag2  1  0.98962943  0.99481572  0.00000000  1
  Pd  Pd0  1  0.00007103  0.50003502  0.50000000  1
  Pd  Pd1  1  0.66659597  0.83329798  0.50000000  1
  O  O0  1  0.33333300  0.76863979  0.66679422  1
  O  O1  1  0.99178621  0.11110816  0.66688020  1
  O  O2  1  0.67488079  0.45265396  0.66688020  1
  O  O3  1  0.67488079  0.22222484  0.33311980  1
  O  O4  1  0.33333300  0.56469421  0.33320578  1
  O  O5  1  0.99178621  0.88067904  0.33311980  1
loop_
_geom_bond_atom_site_label_1
_geom_bond_atom_site_label_2
_geom_bond_distance
_geom_bond_site_symmetry_2
Li0 O1 2.064641 1_455
Li0 O2 2.064642 1_555
Li0 O5 2.064642 1_445
Li0 O3 2.064648 1_555
Li0 O0 2.066014 1_545
Li0 O4 2.066014 1_555
Ag0 O3 2.070209 1_556
Ag0 O2 2.070209 1_555
Ag1 O4 2.071231 1_555
Ag1 O0 2.071231 1_554
Ag2 O1 2.070209 1_564
Ag2 O5 2.070209 1_555
O0 Pd0 2.007014 1_555
O0 Pd1 2.007016 1_555
O1 Pd0 2.006982 1_655
O1 Pd1 2.009828 1_545
O2 Pd1 2.006991 1_555
O2 Pd0 2.009826 1_655
O3 Pd1 2.006982 1_545
O3 Pd0 2.009828 1_655
O4 Pd0 2.007010 1_555
O4 Pd1 2.007014 1_555
O5 Pd0 2.006991 1_655
O5 Pd1 2.009826 1_555
