# generated using pymatgen
data_KRbCo3Se4
_symmetry_space_group_name_H-M   'P 1'
_cell_length_a   8.75444973
_cell_length_b   7.70814366
_cell_length_c   5.91683941
_cell_angle_alpha   78.75720182
_cell_angle_beta   59.72165449
_cell_angle_gamma   41.52114241
_symmetry_Int_Tables_number   1
_chemical_formula_structural   KRbCo3Se4
_chemical_formula_sum   'K1 Rb1 Co3 Se4'
_cell_volume   216.63974439
_cell_formula_units_Z   1
loop_
 _symmetry_equiv_pos_site_id
 _symmetry_equiv_pos_as_xyz
  1  'x, y, z'
loop_
 _atom_site_type_symbol
 _atom_site_label
 _atom_site_symmetry_multiplicity
 _atom_site_fract_x
 _atom_site_fract_y
 _atom_site_fract_z
 _atom_site_occupancy
  K  K0  1  0.64337915  0.64337915  0.35662085  1
  Rb  Rb0  1  0.34059119  0.34059119  0.65940881  1
  Co  Co0  1  0.00250434  0.00250434  0.99749566  1
  Co  Co1  1  0.00200881  0.00200881  0.49799119  1
  Co  Co2  1  0.50200881  0.50200881  0.99799119  1
  Se  Se0  1  0.05791987  0.72551197  0.27448803  1
  Se  Se1  1  0.28036368  0.94571416  0.05428584  1
  Se  Se2  1  0.72551197  0.05791987  0.94208013  1
  Se  Se3  1  0.94571416  0.28036368  0.71963632  1
loop_
_geom_bond_atom_site_label_1
_geom_bond_atom_site_label_2
_geom_bond_distance
_geom_bond_site_symmetry_2
K0 Se1 3.427504 1_555
K0 Se3 3.427504 1_555
K0 Se3 3.464521 1_465
K0 Se1 3.464521 1_645
K0 Se1 3.464521 1_556
K0 Se3 3.464521 1_554
K0 Se0 3.917799 1_655
K0 Se2 3.917799 1_564
Rb0 Se2 3.488267 1_555
Rb0 Se0 3.488267 1_555
Rb0 Se0 3.507996 1_645
Rb0 Se2 3.507997 1_465
Rb0 Se2 3.507997 1_554
Rb0 Se0 3.507997 1_556
Rb0 Se3 3.659135 1_455
Rb0 Se1 3.659135 1_546
Co0 Se2 2.316529 1_455
Co0 Se0 2.316529 1_546
Co0 Se1 2.322500 1_546
Co0 Se3 2.322500 1_455
Co0 K0 3.592036 1_545
Co0 K0 3.592036 1_456
Co1 Se2 2.327000 1_455
Co1 Se0 2.327001 1_545
Co1 Se1 2.329896 1_545
Co1 Se3 2.329896 1_455
Co1 K0 3.576479 1_545
Co1 K0 3.576480 1_455
Co2 Se0 2.327000 1_556
Co2 Se2 2.327001 1_555
Co2 Se3 2.329895 1_555
Co2 Se1 2.329896 1_556
Co2 K0 3.576480 1_556
Co2 K0 3.576480 1_555
