# generated using pymatgen
data_Lu3Nb2Sn3O
_symmetry_space_group_name_H-M   'P 1'
_cell_length_a   8.44981768
_cell_length_b   8.44981645
_cell_length_c   5.73514852
_cell_angle_alpha   90.00000000
_cell_angle_beta   90.00000000
_cell_angle_gamma   119.99999713
_symmetry_Int_Tables_number   1
_chemical_formula_structural   Lu3Nb2Sn3O
_chemical_formula_sum   'Lu6 Nb4 Sn6 O2'
_cell_volume   354.62547203
_cell_formula_units_Z   2
loop_
 _symmetry_equiv_pos_site_id
 _symmetry_equiv_pos_as_xyz
  1  'x, y, z'
loop_
 _atom_site_type_symbol
 _atom_site_label
 _atom_site_symmetry_multiplicity
 _atom_site_fract_x
 _atom_site_fract_y
 _atom_site_fract_z
 _atom_site_occupancy
  Lu  Lu0  1  0.00000000  0.77083491  0.75000000  1
  Lu  Lu1  1  1.00000000  0.22916509  0.25000000  1
  Lu  Lu2  1  0.22916509  0.22916509  0.75000000  1
  Lu  Lu3  1  0.22916509  0.00000000  0.25000000  1
  Lu  Lu4  1  0.77083491  0.77083491  0.25000000  1
  Lu  Lu5  1  0.77083491  1.00000000  0.75000000  1
  Nb  Nb0  1  0.33333300  0.66666700  0.00000000  1
  Nb  Nb1  1  0.33333300  0.66666700  0.50000000  1
  Nb  Nb2  1  0.66666700  0.33333300  0.00000000  1
  Nb  Nb3  1  0.66666700  0.33333300  0.50000000  1
  Sn  Sn0  1  0.00000000  0.59318059  0.25000000  1
  Sn  Sn1  1  1.00000000  0.40681941  0.75000000  1
  Sn  Sn2  1  0.40681941  0.40681941  0.25000000  1
  Sn  Sn3  1  0.59318059  0.59318059  0.75000000  1
  Sn  Sn4  1  0.40681941  0.00000000  0.75000000  1
  Sn  Sn5  1  0.59318059  1.00000000  0.25000000  1
  O  O0  1  0.00000000  0.00000000  0.00000000  1
  O  O1  1  0.00000000  0.00000000  0.50000000  1
loop_
_geom_bond_atom_site_label_1
_geom_bond_atom_site_label_2
_geom_bond_distance
_geom_bond_site_symmetry_2
Lu0 O0 2.409440 1_566
Lu0 O1 2.409440 1_565
Lu0 Sn4 2.984950 1_565
Lu0 Sn3 2.984950 1_455
Lu0 Sn1 3.075864 1_455
Lu0 Sn0 3.236730 1_555
Lu0 Sn0 3.236730 1_556
Lu1 O0 2.409440 1_655
Lu1 O1 2.409440 1_655
Lu1 Sn5 2.984950 1_545
Lu1 Sn2 2.984950 1_655
Lu1 Sn0 3.075864 1_655
Lu1 Sn1 3.236730 1_555
Lu1 Sn1 3.236730 1_554
Lu2 O0 2.409440 1_556
Lu2 O1 2.409440 1_555
Lu2 Sn4 2.984949 1_555
Lu2 Sn1 2.984949 1_455
Lu2 Sn3 3.075865 1_555
Lu2 Sn2 3.236730 1_556
Lu2 Sn2 3.236730 1_555
Lu3 O0 2.409440 1_555
Lu3 O1 2.409440 1_555
Lu3 Sn2 2.984949 1_555
Lu3 Sn0 2.984949 1_545
Lu3 Sn5 3.075865 1_545
Lu3 Sn4 3.236730 1_555
Lu3 Sn4 3.236730 1_554
Lu4 O0 2.409440 1_665
Lu4 O1 2.409440 1_665
Lu4 Sn5 2.984949 1_555
Lu4 Sn0 2.984949 1_655
Lu4 Sn2 3.075865 1_555
Lu4 Sn3 3.236730 1_555
Lu4 Sn3 3.236730 1_554
Lu5 O1 2.409440 1_665
Lu5 O0 2.409440 1_666
Lu5 Sn3 2.984949 1_555
Lu5 Sn1 2.984949 1_565
Lu5 Sn4 3.075865 1_565
Lu5 Sn5 3.236730 1_556
Lu5 Sn5 3.236730 1_555
Nb0 Sn4 2.936939 1_564
Nb0 Sn0 2.936939 1_555
Nb0 Sn5 2.936941 1_555
Nb0 Sn1 2.936942 1_454
Nb0 Sn2 2.936946 1_555
Nb0 Sn3 2.936946 1_554
Nb1 Sn4 2.936939 1_565
Nb1 Sn0 2.936939 1_555
Nb1 Sn5 2.936941 1_555
Nb1 Sn1 2.936942 1_455
Nb1 Sn2 2.936946 1_555
Nb1 Sn3 2.936946 1_555
Nb2 Sn5 2.936939 1_545
Nb2 Sn1 2.936939 1_554
Nb2 Sn4 2.936941 1_554
Nb2 Sn0 2.936942 1_655
Nb2 Sn3 2.936946 1_554
Nb2 Sn2 2.936946 1_555
Nb3 Sn5 2.936939 1_545
Nb3 Sn1 2.936939 1_555
Nb3 Sn4 2.936941 1_555
Nb3 Sn0 2.936942 1_655
Nb3 Sn3 2.936946 1_555
Nb3 Sn2 2.936946 1_555
