# generated using pymatgen
data_K2FeCoS4
_symmetry_space_group_name_H-M   'P 1'
_cell_length_a   12.98489451
_cell_length_b   11.55518939
_cell_length_c   7.02427737
_cell_angle_alpha   84.96206403
_cell_angle_beta   62.43133831
_cell_angle_gamma   32.60659511
_symmetry_Int_Tables_number   1
_chemical_formula_structural   K2FeCoS4
_chemical_formula_sum   'K4 Fe2 Co2 S8'
_cell_volume   390.02356724
_cell_formula_units_Z   2
loop_
 _symmetry_equiv_pos_site_id
 _symmetry_equiv_pos_as_xyz
  1  'x, y, z'
loop_
 _atom_site_type_symbol
 _atom_site_label
 _atom_site_symmetry_multiplicity
 _atom_site_fract_x
 _atom_site_fract_y
 _atom_site_fract_z
 _atom_site_occupancy
  K  K0  1  0.67918503  0.67918503  0.32081497  1
  K  K1  1  0.92918503  0.92918503  0.57081497  1
  K  K2  1  0.32081497  0.32081497  0.67918503  1
  K  K3  1  0.57081497  0.57081497  0.92918503  1
  Fe  Fe0  1  0.75000000  0.75000000  0.75000000  1
  Fe  Fe1  1  0.50000000  0.50000000  0.50000000  1
  Co  Co0  1  0.00000000  0.00000000  0.00000000  1
  Co  Co1  1  0.25000000  0.25000000  0.25000000  1
  S  S0  1  0.04056062  0.35042618  0.65257651  1
  S  S1  1  0.20943938  0.89957382  0.59742349  1
  S  S2  1  0.89957382  0.20943938  0.29356431  1
  S  S3  1  0.59742349  0.29356431  0.20943938  1
  S  S4  1  0.95643569  0.65257651  0.35042618  1
  S  S5  1  0.65257651  0.95643569  0.04056062  1
  S  S6  1  0.35042618  0.04056062  0.95643569  1
  S  S7  1  0.29356431  0.59742349  0.89957382  1
loop_
_geom_bond_atom_site_label_1
_geom_bond_atom_site_label_2
_geom_bond_distance
_geom_bond_site_symmetry_2
K0 S1 3.345785 1_555
K0 S2 3.345787 1_555
K0 S6 3.345794 1_565
K0 S0 3.345800 1_654
K0 S6 3.358567 1_654
K0 S0 3.358569 1_565
K0 S4 3.451855 1_555
K0 S5 3.451858 1_555
K1 S5 3.345794 1_556
K1 S7 3.345797 1_565
K1 S4 3.345797 1_555
K1 S3 3.345799 1_655
K1 S7 3.358566 1_654
K1 S3 3.358572 1_566
K1 S2 3.451864 1_565
K1 S1 3.451867 1_655
K2 S3 3.345794 1_555
K2 S4 3.345797 1_545
K2 S7 3.345797 1_555
K2 S5 3.345799 1_456
K2 S4 3.358566 1_456
K2 S5 3.358572 1_545
K2 S6 3.451864 1_555
K2 S0 3.451867 1_555
K3 S0 3.345785 1_655
K3 S6 3.345787 1_565
K3 S2 3.345794 1_555
K3 S1 3.345800 1_556
K3 S2 3.358567 1_466
K3 S1 3.358569 1_645
K3 S7 3.451855 1_555
K3 S3 3.451858 1_556
Fe0 S5 2.199370 1_556
Fe0 S4 2.199375 1_555
Fe0 S0 2.199378 1_655
Fe0 S6 2.199380 1_565
Fe1 S3 2.199370 1_555
Fe1 S7 2.199375 1_555
Fe1 S1 2.199378 1_555
Fe1 S2 2.199380 1_555
Co0 S3 2.209083 1_455
Co0 S7 2.209085 1_544
Co0 S1 2.209087 1_544
Co0 S2 2.209093 1_455
Co1 S5 2.209083 1_545
Co1 S4 2.209085 1_455
Co1 S0 2.209087 1_555
Co1 S6 2.209093 1_554
