# generated using pymatgen
data_Sr4Fe(N2Cl)2
_symmetry_space_group_name_H-M   'P 1'
_cell_length_a   5.72207506
_cell_length_b   7.90812411
_cell_length_c   10.04057329
_cell_angle_alpha   81.61084145
_cell_angle_beta   90.00000000
_cell_angle_gamma   90.00000000
_symmetry_Int_Tables_number   1
_chemical_formula_structural   Sr4Fe(N2Cl)2
_chemical_formula_sum   'Sr8 Fe2 N8 Cl4'
_cell_volume   449.48326559
_cell_formula_units_Z   2
loop_
 _symmetry_equiv_pos_site_id
 _symmetry_equiv_pos_as_xyz
  1  'x, y, z'
loop_
 _atom_site_type_symbol
 _atom_site_label
 _atom_site_symmetry_multiplicity
 _atom_site_fract_x
 _atom_site_fract_y
 _atom_site_fract_z
 _atom_site_occupancy
  Sr  Sr0  1  0.75000000  0.28713485  0.28823153  1
  Sr  Sr1  1  0.75000000  0.00262049  0.61910003  1
  Sr  Sr2  1  0.75000000  0.45304156  0.61434742  1
  Sr  Sr3  1  0.75000000  0.81490311  0.09968193  1
  Sr  Sr4  1  0.25000000  0.99737951  0.38089997  1
  Sr  Sr5  1  0.25000000  0.54695844  0.38565258  1
  Sr  Sr6  1  0.25000000  0.18509689  0.90031807  1
  Sr  Sr7  1  0.25000000  0.71286515  0.71176847  1
  Fe  Fe0  1  0.75000000  0.76914061  0.40267210  1
  Fe  Fe1  1  0.25000000  0.23085939  0.59732790  1
  N  N0  1  0.25000000  0.03456521  0.69856695  1
  N  N1  1  0.01011946  0.24863691  0.49245690  1
  N  N2  1  0.51011946  0.75136309  0.50754310  1
  N  N3  1  0.98988054  0.75136309  0.50754310  1
  N  N4  1  0.75000000  0.60319232  0.30695309  1
  N  N5  1  0.75000000  0.96543479  0.30143305  1
  N  N6  1  0.48988054  0.24863691  0.49245690  1
  N  N7  1  0.25000000  0.39680768  0.69304691  1
  Cl  Cl0  1  0.25000000  0.32550069  0.15814327  1
  Cl  Cl1  1  0.75000000  0.67449931  0.84185673  1
  Cl  Cl2  1  0.25000000  0.84278416  0.08795663  1
  Cl  Cl3  1  0.75000000  0.15721584  0.91204337  1
loop_
_geom_bond_atom_site_label_1
_geom_bond_atom_site_label_2
_geom_bond_distance
_geom_bond_site_symmetry_2
Fe0 N3 1.723188 1_555
Fe0 N2 1.723188 1_555
Fe0 N5 1.727002 1_555
Fe0 N4 1.736065 1_555
Fe1 N6 1.723188 1_555
Fe1 N1 1.723188 1_555
Fe1 N0 1.727002 1_555
Fe1 N7 1.736065 1_555
N0 Sr6 2.494833 1_555
N0 Sr7 2.528109 1_545
N0 Sr1 2.990786 1_455
N0 Sr1 2.990786 1_555
N1 Sr0 2.516077 1_455
N1 Sr1 2.625932 1_455
N1 Sr2 2.627432 1_455
N1 Sr4 2.781396 1_545
N1 Sr5 2.803838 1_555
N2 Sr7 2.516077 1_555
N2 Sr4 2.625932 1_555
N2 Sr5 2.627432 1_555
N2 Sr1 2.781396 1_565
N2 Sr2 2.803838 1_555
N3 Sr7 2.516077 1_655
N3 Sr4 2.625932 1_655
N3 Sr5 2.627432 1_655
N3 Sr1 2.781396 1_565
N3 Sr2 2.803838 1_555
N4 Sr3 2.473347 1_555
N4 Sr0 2.533680 1_555
N4 Sr5 2.984151 1_555
N4 Sr5 2.984151 1_655
N4 Sr2 3.141104 1_555
N5 Sr3 2.494833 1_555
N5 Sr0 2.528109 1_565
N5 Sr4 2.990786 1_555
N5 Sr4 2.990786 1_655
N6 Sr0 2.516077 1_555
N6 Sr1 2.625932 1_555
N6 Sr2 2.627432 1_555
N6 Sr4 2.781396 1_545
N6 Sr5 2.803838 1_555
N7 Sr6 2.473347 1_555
N7 Sr7 2.533680 1_555
N7 Sr2 2.984151 1_455
N7 Sr2 2.984151 1_555
N7 Sr5 3.141104 1_555
Cl0 Sr6 2.961920 1_554
Cl0 Sr5 3.074504 1_555
Cl0 Sr0 3.141339 1_455
Cl0 Sr0 3.141339 1_555
Cl0 Sr4 3.168922 1_545
Cl1 Sr3 2.961920 1_556
Cl1 Sr2 3.074504 1_555
Cl1 Sr7 3.141339 1_555
Cl1 Sr7 3.141339 1_655
Cl1 Sr1 3.168922 1_565
Cl2 Sr3 2.870616 1_555
Cl2 Sr3 2.870616 1_455
Cl2 Sr6 3.064216 1_564
Cl2 Sr4 3.345934 1_555
Cl2 Sr5 3.516656 1_555
Cl3 Sr6 2.870616 1_655
Cl3 Sr6 2.870616 1_555
Cl3 Sr3 3.064216 1_546
Cl3 Sr1 3.345934 1_555
Cl3 Sr2 3.516656 1_555
