# generated using pymatgen
data_CsK3As2O7
_symmetry_space_group_name_H-M   'P 1'
_cell_length_a   6.20284103
_cell_length_b   6.20284086
_cell_length_c   15.04465162
_cell_angle_alpha   90.00000000
_cell_angle_beta   90.00000000
_cell_angle_gamma   118.54881988
_symmetry_Int_Tables_number   1
_chemical_formula_structural   CsK3As2O7
_chemical_formula_sum   'Cs2 K6 As4 O14'
_cell_volume   508.46469883
_cell_formula_units_Z   2
loop_
 _symmetry_equiv_pos_site_id
 _symmetry_equiv_pos_as_xyz
  1  'x, y, z'
loop_
 _atom_site_type_symbol
 _atom_site_label
 _atom_site_symmetry_multiplicity
 _atom_site_fract_x
 _atom_site_fract_y
 _atom_site_fract_z
 _atom_site_occupancy
  Cs  Cs0  1  0.94598248  0.05401752  0.25000000  1
  Cs  Cs1  1  0.05401752  0.94598248  0.75000000  1
  K  K0  1  0.01941482  0.01941482  0.00000000  1
  K  K1  1  0.98058518  0.98058518  0.50000000  1
  K  K2  1  0.64868196  0.36252616  0.08016028  1
  K  K3  1  0.36252616  0.64868196  0.91983972  1
  K  K4  1  0.35131804  0.63747384  0.58016028  1
  K  K5  1  0.63747384  0.35131804  0.41983972  1
  As  As0  1  0.33324527  0.70553821  0.13934085  1
  As  As1  1  0.70553821  0.33324527  0.86065915  1
  As  As2  1  0.66675473  0.29446179  0.63934085  1
  As  As3  1  0.29446179  0.66675473  0.36065915  1
  O  O0  1  0.27056118  0.93969940  0.14328774  1
  O  O1  1  0.93969940  0.27056118  0.85671226  1
  O  O2  1  0.72943882  0.06030060  0.64328774  1
  O  O3  1  0.06030060  0.72943882  0.35671226  1
  O  O4  1  0.60494175  0.78360868  0.09055892  1
  O  O5  1  0.78360868  0.60494175  0.90944108  1
  O  O6  1  0.39505825  0.21639132  0.59055892  1
  O  O7  1  0.21639132  0.39505825  0.40944108  1
  O  O8  1  0.11168567  0.44523276  0.09406386  1
  O  O9  1  0.44523276  0.11168567  0.90593614  1
  O  O10  1  0.88831433  0.55476724  0.59406386  1
  O  O11  1  0.55476724  0.88831433  0.40593614  1
  O  O12  1  0.37747761  0.62252239  0.25000000  1
  O  O13  1  0.62252239  0.37747761  0.75000000  1
loop_
_geom_bond_atom_site_label_1
_geom_bond_atom_site_label_2
_geom_bond_distance
_geom_bond_site_symmetry_2
Cs0 O3 2.915176 1_645
Cs0 O0 2.915177 1_645
Cs0 O7 3.106583 1_655
Cs0 O4 3.106583 1_545
Cs0 O8 3.172508 1_655
Cs0 O11 3.172509 1_545
Cs0 O12 3.252310 1_655
Cs0 O12 3.252310 1_545
Cs1 O1 2.915176 1_465
Cs1 O2 2.915177 1_465
Cs1 O5 3.106583 1_455
Cs1 O6 3.106583 1_565
Cs1 O10 3.172508 1_455
Cs1 O9 3.172509 1_565
Cs1 O13 3.252310 1_455
Cs1 O13 3.252310 1_565
K0 O5 2.647820 1_444
K0 O4 2.647820 1_445
K0 O8 2.803871 1_555
K0 O9 2.803871 1_554
K0 O1 2.838072 1_454
K0 O0 2.838072 1_545
K1 O7 2.647820 1_665
K1 O6 2.647820 1_665
K1 O10 2.803871 1_555
K1 O11 2.803871 1_555
K1 O3 2.838072 1_655
K1 O2 2.838072 1_565
K2 O8 2.673335 1_655
K2 O0 2.720678 1_545
K2 O4 2.756353 1_555
K2 O5 2.890560 1_554
K2 O9 3.001178 1_554
K3 O9 2.673335 1_565
K3 O1 2.720679 1_455
K3 O5 2.756353 1_555
K3 O4 2.890560 1_556
K3 O8 3.001178 1_556
K4 O10 2.673335 1_455
K4 O2 2.720678 1_565
K4 O6 2.756353 1_555
K4 O7 2.890560 1_555
K4 O11 3.001178 1_555
K5 O11 2.673335 1_545
K5 O3 2.720679 1_655
K5 O7 2.756353 1_555
K5 O6 2.890560 1_555
K5 O10 3.001178 1_555
As0 O0 1.674561 1_555
As0 O4 1.683233 1_555
As0 O8 1.684873 1_555
As0 O12 1.801978 1_555
As1 O1 1.674561 1_555
As1 O5 1.683233 1_555
As1 O9 1.684873 1_555
As1 O13 1.801978 1_555
As2 O2 1.674561 1_555
As2 O6 1.683233 1_555
As2 O10 1.684873 1_555
As2 O13 1.801978 1_555
As3 O3 1.674561 1_555
As3 O7 1.683233 1_555
As3 O11 1.684873 1_555
As3 O12 1.801978 1_555
