# generated using pymatgen
data_Hg4OF6
_symmetry_space_group_name_H-M   'P 1'
_cell_length_a   7.78810125
_cell_length_b   7.78810139
_cell_length_c   6.06036332
_cell_angle_alpha   90.00000019
_cell_angle_beta   89.99999972
_cell_angle_gamma   120.00018925
_symmetry_Int_Tables_number   1
_chemical_formula_structural   Hg4OF6
_chemical_formula_sum   'Hg8 O2 F12'
_cell_volume   318.34032112
_cell_formula_units_Z   2
loop_
 _symmetry_equiv_pos_site_id
 _symmetry_equiv_pos_as_xyz
  1  'x, y, z'
loop_
 _atom_site_type_symbol
 _atom_site_label
 _atom_site_symmetry_multiplicity
 _atom_site_fract_x
 _atom_site_fract_y
 _atom_site_fract_z
 _atom_site_occupancy
  Hg  Hg0  1  0.63562097  0.81780991  0.50108915  1
  Hg  Hg1  1  0.81780986  0.63562089  0.00108923  1
  Hg  Hg2  1  0.81780884  0.18219123  0.00109087  1
  Hg  Hg3  1  0.18219115  0.81780881  0.50109080  1
  Hg  Hg4  1  0.18218998  0.36437906  0.50108918  1
  Hg  Hg5  1  0.36437913  0.18219007  0.00108917  1
  Hg  Hg6  1  0.33333335  0.66666663  0.97590445  1
  Hg  Hg7  1  0.66666669  0.33333338  0.47590443  1
  O  O0  1  0.66666484  0.33333515  0.12666861  1
  O  O1  1  0.33333516  0.66666484  0.62666862  1
  F  F0  1  0.92374837  0.46187407  0.72584402  1
  F  F1  1  0.07625157  0.53812591  0.22584391  1
  F  F2  1  0.46187367  0.53812636  0.22584431  1
  F  F3  1  0.53812597  0.07625164  0.72584401  1
  F  F4  1  0.74606792  0.87303363  0.89584223  1
  F  F5  1  0.87303356  0.74606775  0.39584178  1
  F  F6  1  0.46187409  0.92374839  0.22584394  1
  F  F7  1  0.53812635  0.46187364  0.72584440  1
  F  F8  1  0.25393226  0.12696645  0.39584185  1
  F  F9  1  0.12696634  0.25393208  0.89584225  1
  F  F10  1  0.12696563  0.87303435  0.89584211  1
  F  F11  1  0.87303430  0.12696574  0.39584168  1
loop_
_geom_bond_atom_site_label_1
_geom_bond_atom_site_label_2
_geom_bond_distance
_geom_bond_site_symmetry_2
Hg0 O1 2.176235 1_555
Hg1 O0 2.176235 1_555
Hg2 O0 2.176250 1_555
Hg3 O1 2.176251 1_555
Hg4 O1 2.176235 1_555
Hg5 O0 2.176235 1_555
Hg6 O1 2.116496 1_555
Hg7 O0 2.116496 1_555
F0 Hg7 2.302372 1_555
F0 Hg2 2.531928 1_556
F0 Hg1 2.531939 1_556
F1 Hg6 2.302372 1_554
F1 Hg3 2.531928 1_555
F1 Hg4 2.531939 1_555
F2 Hg6 2.302371 1_554
F2 Hg0 2.531925 1_555
F2 Hg4 2.531925 1_555
F3 Hg7 2.302372 1_555
F3 Hg2 2.531928 1_556
F3 Hg5 2.531938 1_556
F4 Hg1 2.273961 1_556
F4 Hg2 2.273984 1_566
F4 Hg0 2.505643 1_555
F5 Hg0 2.273962 1_555
F5 Hg3 2.273985 1_655
F5 Hg1 2.505639 1_555
F6 Hg6 2.302372 1_554
F6 Hg3 2.531928 1_555
F6 Hg0 2.531939 1_555
F7 Hg7 2.302372 1_555
F7 Hg1 2.531924 1_556
F7 Hg5 2.531925 1_556
F8 Hg4 2.273962 1_555
F8 Hg3 2.273985 1_545
F8 Hg5 2.505640 1_555
F9 Hg5 2.273962 1_556
F9 Hg2 2.273984 1_456
F9 Hg4 2.505643 1_555
F10 Hg5 2.273961 1_566
F10 Hg1 2.273961 1_456
F10 Hg3 2.505641 1_555
F11 Hg4 2.273961 1_655
F11 Hg0 2.273962 1_545
F11 Hg2 2.505638 1_555
