# generated using pymatgen
data_Li7Si2AgP16
_symmetry_space_group_name_H-M   'P 1'
_cell_length_a   9.36551943
_cell_length_b   9.36439579
_cell_length_c   9.39462172
_cell_angle_alpha   95.79643495
_cell_angle_beta   96.32139293
_cell_angle_gamma   142.21297684
_symmetry_Int_Tables_number   1
_chemical_formula_structural   Li7Si2AgP16
_chemical_formula_sum   'Li7 Si2 Ag1 P16'
_cell_volume   477.26630605
_cell_formula_units_Z   1
loop_
 _symmetry_equiv_pos_site_id
 _symmetry_equiv_pos_as_xyz
  1  'x, y, z'
loop_
 _atom_site_type_symbol
 _atom_site_label
 _atom_site_symmetry_multiplicity
 _atom_site_fract_x
 _atom_site_fract_y
 _atom_site_fract_z
 _atom_site_occupancy
  Li  Li0  1  0.81827199  0.13274462  0.28991163  1
  Li  Li1  1  0.84123504  0.52596864  0.70808795  1
  Li  Li2  1  0.77821126  0.56860646  0.18495101  1
  Li  Li3  1  0.87043374  0.15949796  0.68580118  1
  Li  Li4  1  0.43256625  0.61765366  0.20899118  1
  Li  Li5  1  0.40617826  0.22255484  0.79080946  1
  Li  Li6  1  0.47206831  0.18114336  0.31470406  1
  Si  Si0  1  0.25153703  0.74980341  0.49932577  1
  Si  Si1  1  0.99774616  0.99858861  0.00071610  1
  Ag  Ag0  1  0.37894898  0.59285424  0.82154956  1
  P  P0  1  0.34497424  0.14870192  0.04016459  1
  P  P1  1  0.40007940  0.85932975  0.30243006  1
  P  P2  1  0.69092942  0.65434494  0.80104061  1
  P  P3  1  0.14549248  0.44405730  0.53831194  1
  P  P4  1  0.90433213  0.59999543  0.45903269  1
  P  P5  1  0.85089637  0.89067956  0.19796341  1
  P  P6  1  0.55608320  0.09532884  0.69756687  1
  P  P7  1  0.10610996  0.30500303  0.96384565  1
  P  P8  1  0.04042766  0.92246044  0.55916058  1
  P  P9  1  0.73231537  0.79108080  0.61241914  1
  P  P10  1  0.17471948  0.11303515  0.38450409  1
  P  P11  1  0.36578826  0.47885841  0.43712213  1
  P  P12  1  0.20946759  0.82666995  0.93985099  1
  P  P13  1  0.51940545  0.96187042  0.88541962  1
  P  P14  1  0.07737718  0.63789105  0.11528941  1
  P  P15  1  0.88440480  0.27127921  0.06103033  1
loop_
_geom_bond_atom_site_label_1
_geom_bond_atom_site_label_2
_geom_bond_distance
_geom_bond_site_symmetry_2
Li0 P1 2.494245 1_545
Li0 P3 2.503229 1_655
Li0 P15 2.505373 1_555
Li0 P5 2.595231 1_545
Li1 P6 2.498667 1_555
Li1 P4 2.507776 1_555
Li1 P12 2.514397 1_655
Li1 P2 2.631125 1_555
Li2 P5 2.497360 1_555
Li2 P0 2.502353 1_555
Li2 P14 2.513135 1_655
Li2 P4 2.596203 1_555
Li3 P9 2.514061 1_545
Li3 P6 2.515876 1_555
Li3 P3 2.517667 1_655
Li3 P7 2.609496 1_655
Li4 P7 2.482467 1_554
Li4 P5 2.491504 1_555
Li4 P11 2.499357 1_555
Li4 P1 2.594395 1_555
Li5 P8 2.505005 1_545
Li5 P0 2.508183 1_556
Li5 P2 2.508381 1_555
Li5 P6 2.619461 1_555
Li6 P4 2.496235 1_555
Li6 P1 2.500166 1_545
Li6 P10 2.504257 1_555
Li6 P0 2.599131 1_555
Ag0 P7 2.485098 1_555
Ag0 P13 2.500846 1_555
Ag0 P2 2.528446 1_555
Ag0 P3 2.637623 1_555
Ag0 Li3 2.801006 1_455
P0 P12 2.169395 1_544
P0 Si1 2.256690 1_445
P1 P14 2.170921 1_555
P1 Si0 2.259106 1_555
P2 P9 2.180590 1_555
P2 Si1 2.262323 1_556
P3 Si0 2.261737 1_555
P4 P8 2.169486 1_655
P4 Si0 2.257572 1_655
P5 Si1 2.255943 1_555
P6 Si0 2.258151 1_545
P7 Si1 2.249156 1_446
P8 P9 2.218504 1_455
P10 P5 2.171592 1_445
P11 P3 2.167577 1_555
P11 P9 2.227800 1_555
P12 P13 2.222419 1_555
P13 P6 2.166768 1_565
P13 P15 2.222588 1_566
P14 P15 2.224643 1_455
P15 P7 2.164247 1_654
