# generated using pymatgen
data_BaHgP2O7
_symmetry_space_group_name_H-M   'P 1'
_cell_length_a   5.72947646
_cell_length_b   7.18648796
_cell_length_c   7.66289657
_cell_angle_alpha   102.20759056
_cell_angle_beta   91.12604774
_cell_angle_gamma   91.97660157
_symmetry_Int_Tables_number   1
_chemical_formula_structural   BaHgP2O7
_chemical_formula_sum   'Ba2 Hg2 P4 O14'
_cell_volume   308.08302964
_cell_formula_units_Z   2
loop_
 _symmetry_equiv_pos_site_id
 _symmetry_equiv_pos_as_xyz
  1  'x, y, z'
loop_
 _atom_site_type_symbol
 _atom_site_label
 _atom_site_symmetry_multiplicity
 _atom_site_fract_x
 _atom_site_fract_y
 _atom_site_fract_z
 _atom_site_occupancy
  Ba  Ba0  1  0.23675564  0.76198080  0.43592675  1
  Ba  Ba1  1  0.76324436  0.23801920  0.56407325  1
  Hg  Hg0  1  0.22355939  0.65170271  0.90440973  1
  Hg  Hg1  1  0.77644061  0.34829729  0.09559027  1
  P  P0  1  0.72774577  0.83520214  0.10274861  1
  P  P1  1  0.27225423  0.16479786  0.89725139  1
  P  P2  1  0.72738647  0.73540543  0.70503381  1
  P  P3  1  0.27261353  0.26459457  0.29496619  1
  O  O0  1  0.48746155  0.74323700  0.12419258  1
  O  O1  1  0.51253845  0.25676300  0.87580742  1
  O  O2  1  0.76886864  0.02846414  0.22016870  1
  O  O3  1  0.23113136  0.97153586  0.77983130  1
  O  O4  1  0.91850276  0.69481985  0.12159863  1
  O  O5  1  0.08149724  0.30518015  0.87840137  1
  O  O6  1  0.51013055  0.60370730  0.68776806  1
  O  O7  1  0.48986945  0.39629270  0.31223194  1
  O  O8  1  0.05551093  0.38631285  0.31332366  1
  O  O9  1  0.94448907  0.61368715  0.68667634  1
  O  O10  1  0.26259628  0.13041933  0.09866372  1
  O  O11  1  0.73740372  0.86958067  0.90133628  1
  O  O12  1  0.27405488  0.13667431  0.42716913  1
  O  O13  1  0.72594512  0.86332569  0.57283087  1
loop_
_geom_bond_atom_site_label_1
_geom_bond_atom_site_label_2
_geom_bond_distance
_geom_bond_site_symmetry_2
Ba0 O12 2.708922 1_565
Ba0 O3 2.746288 1_555
Ba0 O0 2.792823 1_555
Ba0 O8 2.818717 1_555
Ba0 O6 2.898911 1_555
Ba0 O9 2.915683 1_455
Ba0 O4 2.938452 1_455
Ba0 O13 2.984491 1_555
Ba0 O7 3.028444 1_555
Ba0 O13 3.184500 1_455
Ba1 O13 2.708922 1_545
Ba1 O2 2.746288 1_555
Ba1 O1 2.792823 1_555
Ba1 O9 2.818717 1_555
Ba1 O7 2.898911 1_555
Ba1 O8 2.915683 1_655
Ba1 O5 2.938452 1_655
Ba1 O12 2.984491 1_555
Ba1 O6 3.028444 1_555
Ba1 O12 3.184500 1_655
Hg0 O0 2.217687 1_556
Hg0 O9 2.255490 1_455
Hg0 O6 2.339828 1_555
Hg0 O4 2.419576 1_456
Hg0 O5 2.558832 1_555
Hg0 O3 2.668126 1_555
Hg1 O1 2.217687 1_554
Hg1 O8 2.255490 1_655
Hg1 O7 2.339828 1_555
Hg1 O5 2.419576 1_654
Hg1 O4 2.558832 1_555
Hg1 O2 2.668126 1_555
O0 P0 1.533351 1_555
O1 P1 1.533351 1_555
O2 P0 1.494885 1_545
O3 P1 1.494885 1_565
O4 P0 1.537742 1_555
O5 P1 1.537742 1_555
O6 P2 1.523812 1_555
O7 P3 1.523812 1_555
O8 P3 1.536906 1_555
O9 P2 1.536906 1_555
O10 P3 1.604743 1_555
O10 P1 1.615508 1_554
O11 P2 1.604743 1_555
O11 P0 1.615508 1_556
O12 P3 1.505162 1_555
O13 P2 1.505162 1_555
