# generated using pymatgen
data_ZrSc5(AsRu)6
_symmetry_space_group_name_H-M   'P 1'
_cell_length_a   7.66519241
_cell_length_b   7.66561369
_cell_length_c   7.66519173
_cell_angle_alpha   128.09225602
_cell_angle_beta   121.10507403
_cell_angle_gamma   82.32433904
_symmetry_Int_Tables_number   1
_chemical_formula_structural   ZrSc5(AsRu)6
_chemical_formula_sum   'Zr1 Sc5 As6 Ru6'
_cell_volume   291.82320471
_cell_formula_units_Z   1
loop_
 _symmetry_equiv_pos_site_id
 _symmetry_equiv_pos_as_xyz
  1  'x, y, z'
loop_
 _atom_site_type_symbol
 _atom_site_label
 _atom_site_symmetry_multiplicity
 _atom_site_fract_x
 _atom_site_fract_y
 _atom_site_fract_z
 _atom_site_occupancy
  Zr  Zr0  1  0.94678349  0.64845555  0.20167206  1
  Sc  Sc0  1  0.46865545  0.69517066  0.72651622  1
  Sc  Sc1  1  0.53212997  0.25830611  0.22617714  1
  Sc  Sc2  1  0.74951266  0.83706254  0.58755088  1
  Sc  Sc3  1  0.25056394  0.83860327  0.08803833  1
  Sc  Sc4  1  0.05184597  0.25481039  0.70296442  1
  As  As0  1  0.27238611  0.27341523  0.50102913  1
  As  As1  1  0.72432358  0.21652346  0.99219988  1
  As  As2  1  0.33239444  0.58654571  0.25056415  1
  As  As3  1  0.66870957  0.92255276  0.25784975  1
  As  As4  1  0.16470301  0.92255276  0.75384119  1
  As  As5  1  0.83598156  0.58654571  0.75415127  1
  Ru  Ru0  1  0.50521873  0.49612030  0.99918823  1
  Ru  Ru1  1  0.99693206  0.49612030  0.49090157  1
  Ru  Ru2  1  0.09790473  0.25476163  0.10855005  1
  Ru  Ru3  1  0.90592883  0.00864649  0.15883117  1
  Ru  Ru4  1  0.34981532  0.00864649  0.60271766  1
  Ru  Ru5  1  0.64621258  0.25476163  0.65685690  1
loop_
_geom_bond_atom_site_label_1
_geom_bond_atom_site_label_2
_geom_bond_distance
_geom_bond_site_symmetry_2
As0 Ru2 2.494572 1_555
As0 Ru5 2.494579 1_555
As0 Ru3 2.496268 1_455
As0 Ru4 2.496268 1_555
As0 Ru0 2.531756 1_555
As0 Ru1 2.531756 1_455
As0 Sc0 2.724150 1_555
As0 Sc3 2.782397 1_545
As0 Sc4 2.883459 1_555
As1 Ru4 2.487993 1_555
As1 Ru3 2.487993 1_556
As1 Ru2 2.518793 1_656
As1 Ru5 2.518795 1_555
As1 Ru1 2.531188 1_556
As1 Ru0 2.531188 1_555
As1 Sc1 2.717460 1_556
As1 Sc2 2.730487 1_545
As1 Zr0 2.927182 1_556
As2 Ru2 2.582190 1_555
As2 Ru0 2.586929 1_554
As2 Ru4 2.596158 1_565
As2 Sc1 2.719612 1_555
As2 Sc3 2.741828 1_555
As2 Sc2 2.751226 1_555
As2 Sc0 2.764254 1_555
As2 Sc4 2.770217 1_554
As2 Zr0 2.793300 1_455
As3 Ru3 2.585057 1_565
As3 Ru5 2.585843 1_565
As3 Ru0 2.591773 1_554
As3 Sc0 2.734800 1_554
As3 Sc2 2.741845 1_555
As3 Sc1 2.750957 1_565
As3 Sc3 2.754703 1_555
As3 Sc4 2.770539 1_665
As3 Zr0 2.789090 1_555
As4 Ru4 2.585043 1_565
As4 Ru2 2.585856 1_566
As4 Ru1 2.591777 1_455
As4 Sc0 2.734804 1_555
As4 Sc2 2.741845 1_455
As4 Sc1 2.750965 1_566
As4 Sc3 2.754712 1_556
As4 Sc4 2.770531 1_565
As4 Zr0 2.789078 1_455
As5 Ru5 2.582186 1_555
As5 Ru1 2.586929 1_555
As5 Ru3 2.596158 1_566
As5 Sc1 2.719606 1_555
As5 Sc3 2.741823 1_656
As5 Sc2 2.751221 1_555
As5 Sc0 2.764249 1_555
As5 Sc4 2.770217 1_655
As5 Zr0 2.793300 1_556
Ru0 Ru5 2.807560 1_555
Ru0 Ru4 2.838132 1_555
Ru0 Zr0 2.936046 1_556
Ru0 Sc2 2.952086 1_556
Ru0 Sc3 2.994154 1_556
Ru0 Sc4 3.006032 1_555
Ru0 Sc1 3.136156 1_556
Ru0 Sc0 3.160802 1_555
Ru1 Ru2 2.807554 1_655
Ru1 Ru3 2.838132 1_555
Ru1 Zr0 2.936046 1_555
Ru1 Sc2 2.952082 1_555
Ru1 Sc3 2.994149 1_656
Ru1 Sc4 3.006032 1_655
Ru1 Sc1 3.136152 1_555
Ru1 Sc0 3.160807 1_655
Ru2 Ru3 2.845713 1_455
Ru2 Zr0 2.867334 1_455
Ru2 Sc4 2.942312 1_554
Ru2 Sc1 2.963999 1_555
Ru2 Sc2 2.969853 1_444
Ru2 Sc3 3.185097 1_545
Ru2 Sc0 3.291526 1_555
Ru3 Sc4 2.870678 1_655
Ru3 Zr0 2.934450 1_545
Ru3 Sc3 2.942892 1_645
Ru3 Sc0 2.973259 1_544
Ru3 Sc2 3.198901 1_544
Ru4 Ru5 2.845719 1_555
Ru4 Sc4 2.870678 1_555
Ru4 Zr0 2.934450 1_445
Ru4 Sc3 2.942896 1_545
Ru4 Sc0 2.973264 1_545
Ru4 Sc2 3.198906 1_545
Ru5 Zr0 2.867332 1_556
Ru5 Sc4 2.942304 1_655
Ru5 Sc1 2.963991 1_555
Ru5 Sc2 2.969856 1_545
Ru5 Sc3 3.185104 1_545
Ru5 Sc0 3.291524 1_555
