# generated using pymatgen
data_Rb2CaP2O7
_symmetry_space_group_name_H-M   'P 1'
_cell_length_a   5.80334789
_cell_length_b   5.80334739
_cell_length_c   13.09337000
_cell_angle_alpha   75.55915765
_cell_angle_beta   75.55915940
_cell_angle_gamma   59.52891076
_symmetry_Int_Tables_number   1
_chemical_formula_structural   Rb2CaP2O7
_chemical_formula_sum   'Rb4 Ca2 P4 O14'
_cell_volume   364.04409018
_cell_formula_units_Z   2
loop_
 _symmetry_equiv_pos_site_id
 _symmetry_equiv_pos_as_xyz
  1  'x, y, z'
loop_
 _atom_site_type_symbol
 _atom_site_label
 _atom_site_symmetry_multiplicity
 _atom_site_fract_x
 _atom_site_fract_y
 _atom_site_fract_z
 _atom_site_occupancy
  Rb  Rb0  1  0.92741679  0.36834029  0.83320655  1
  Rb  Rb1  1  0.07258321  0.63165971  0.16679345  1
  Rb  Rb2  1  0.63165971  0.07258321  0.66679345  1
  Rb  Rb3  1  0.36834029  0.92741679  0.33320655  1
  Ca  Ca0  1  0.50000000  0.00000000  0.00000000  1
  Ca  Ca1  1  0.00000000  0.50000000  0.50000000  1
  P  P0  1  0.69664122  0.23994811  0.36958030  1
  P  P1  1  0.23994811  0.69664122  0.86958030  1
  P  P2  1  0.76005189  0.30335878  0.13041970  1
  P  P3  1  0.30335878  0.76005189  0.63041970  1
  O  O0  1  0.16226937  0.83773063  0.75000000  1
  O  O1  1  0.59016061  0.18866095  0.11359542  1
  O  O2  1  0.83773063  0.16226937  0.25000000  1
  O  O3  1  0.40983939  0.81133905  0.88640458  1
  O  O4  1  0.60473276  0.60700574  0.12996115  1
  O  O5  1  0.03566352  0.20282832  0.06326131  1
  O  O6  1  0.81133905  0.40983939  0.38640458  1
  O  O7  1  0.20282832  0.03566352  0.56326131  1
  O  O8  1  0.18866095  0.59016061  0.61359542  1
  O  O9  1  0.39299426  0.39526724  0.37003885  1
  O  O10  1  0.79717168  0.96433648  0.43673869  1
  O  O11  1  0.39526724  0.39299426  0.87003885  1
  O  O12  1  0.96433648  0.79717168  0.93673869  1
  O  O13  1  0.60700574  0.60473276  0.62996115  1
loop_
_geom_bond_atom_site_label_1
_geom_bond_atom_site_label_2
_geom_bond_distance
_geom_bond_site_symmetry_2
Ca0 O3 2.337962 1_544
Ca0 O1 2.337962 1_555
Ca0 O12 2.342889 1_544
Ca0 O5 2.342889 1_555
Ca0 O4 2.375036 1_545
Ca0 O11 2.375036 1_554
Ca1 O8 2.337962 1_555
Ca1 O6 2.337962 1_455
Ca1 O10 2.342889 1_455
Ca1 O7 2.342889 1_555
Ca1 O13 2.375037 1_455
Ca1 O9 2.375037 1_555
O0 P1 1.631980 1_555
O0 P3 1.631980 1_555
O0 Rb0 3.033609 1_465
O0 Rb2 3.033609 1_465
O1 P2 1.520105 1_555
O1 Rb1 2.852107 1_555
O1 Rb1 3.073012 1_645
O1 Rb3 3.191044 1_545
O2 P2 1.631980 1_555
O2 P0 1.631980 1_555
O2 Rb1 3.033609 1_645
O2 Rb3 3.033609 1_645
O3 P1 1.520105 1_555
O3 Rb0 2.852107 1_555
O3 Rb0 3.073012 1_465
O3 Rb2 3.191044 1_565
O4 P2 1.517970 1_555
O4 Rb1 2.938331 1_555
O4 Rb1 2.950639 1_655
O4 Rb3 3.237501 1_555
O5 P2 1.509924 1_455
O5 Rb0 3.046192 1_454
O5 Rb1 3.170829 1_545
O5 Rb1 3.231903 1_555
O6 P0 1.520105 1_555
O6 Rb3 2.852107 1_555
O6 Rb3 3.073012 1_645
O6 Rb1 3.191044 1_655
O7 P3 1.509924 1_545
O7 Rb3 3.046192 1_545
O7 Rb2 3.170829 1_455
O7 Rb2 3.231903 1_555
O8 P3 1.520105 1_555
O8 Rb2 2.852107 1_555
O8 Rb2 3.073012 1_465
O8 Rb0 3.191044 1_455
O9 P0 1.517970 1_555
O9 Rb3 2.938331 1_555
O9 Rb3 2.950639 1_545
O9 Rb1 3.237501 1_555
O10 P0 1.509924 1_565
O10 Rb2 3.046192 1_565
O10 Rb3 3.170829 1_655
O10 Rb3 3.231903 1_555
O11 P1 1.517970 1_555
O11 Rb0 2.938331 1_555
O11 Rb0 2.950639 1_455
O11 Rb2 3.237501 1_555
O12 P1 1.509924 1_655
O12 Rb1 3.046192 1_656
O12 Rb0 3.170829 1_565
O12 Rb0 3.231903 1_555
O13 P3 1.517970 1_555
O13 Rb2 2.938331 1_555
O13 Rb2 2.950639 1_565
O13 Rb0 3.237501 1_555
