# generated using pymatgen
data_TaNiB2W
_symmetry_space_group_name_H-M   'P 1'
_cell_length_a   4.54838762
_cell_length_b   4.54838658
_cell_length_c   4.54838704
_cell_angle_alpha   138.51290550
_cell_angle_beta   119.09824985
_cell_angle_gamma   76.38399738
_symmetry_Int_Tables_number   1
_chemical_formula_structural   TaNiB2W
_chemical_formula_sum   'Ta1 Ni1 B2 W1'
_cell_volume   53.09951897
_cell_formula_units_Z   1
loop_
 _symmetry_equiv_pos_site_id
 _symmetry_equiv_pos_as_xyz
  1  'x, y, z'
loop_
 _atom_site_type_symbol
 _atom_site_label
 _atom_site_symmetry_multiplicity
 _atom_site_fract_x
 _atom_site_fract_y
 _atom_site_fract_z
 _atom_site_occupancy
  Ta  Ta0  1  0.70452913  0.20452913  0.50000000  1
  Ni  Ni0  1  0.00013818  0.00013818  1.00000000  1
  B  B0  1  0.69886948  0.49818281  0.20068666  1
  B  B1  1  0.29749515  0.49818281  0.79931334  1
  W  W0  1  0.29896706  0.79896706  0.50000000  1
loop_
_geom_bond_atom_site_label_1
_geom_bond_atom_site_label_2
_geom_bond_distance
_geom_bond_site_symmetry_2
Ta0 W0 2.892178 1_656
Ta0 W0 2.892178 1_544
Ta0 W0 2.892178 1_555
Ta0 W0 2.892178 1_645
Ta0 W0 2.899586 1_545
Ni0 Ta0 2.657441 1_445
Ni0 Ta0 2.657442 1_456
Ni0 W0 2.675786 1_556
Ni0 W0 2.675787 1_545
Ni0 W0 2.717027 1_546
Ni0 W0 2.717027 1_445
Ni0 Ta0 2.729283 1_455
Ni0 Ta0 2.729283 1_556
B0 B1 1.850430 1_554
B0 Ni0 2.121220 1_665
B0 Ni0 2.121220 1_654
B0 W0 2.340917 1_544
B0 W0 2.340918 1_555
B0 Ta0 2.372281 1_565
B0 Ta0 2.372281 1_554
B0 Ta0 2.512370 1_555
B0 W0 2.555126 1_655
B1 Ni0 2.121217 1_565
B1 Ni0 2.121219 1_554
B1 W0 2.340915 1_556
B1 W0 2.340917 1_545
B1 Ta0 2.372283 1_566
B1 Ta0 2.372285 1_555
B1 Ta0 2.512366 1_455
B1 W0 2.555128 1_555
