# generated using pymatgen
data_HfCo2Si2Mo
_symmetry_space_group_name_H-M   'P 1'
_cell_length_a   3.66224476
_cell_length_b   6.18684529
_cell_length_c   6.98897098
_cell_angle_alpha   90.00000000
_cell_angle_beta   90.00000000
_cell_angle_gamma   90.00000000
_symmetry_Int_Tables_number   1
_chemical_formula_structural   HfCo2Si2Mo
_chemical_formula_sum   'Hf2 Co4 Si4 Mo2'
_cell_volume   158.35429928
_cell_formula_units_Z   2
loop_
 _symmetry_equiv_pos_site_id
 _symmetry_equiv_pos_as_xyz
  1  'x, y, z'
loop_
 _atom_site_type_symbol
 _atom_site_label
 _atom_site_symmetry_multiplicity
 _atom_site_fract_x
 _atom_site_fract_y
 _atom_site_fract_z
 _atom_site_occupancy
  Hf  Hf0  1  0.75000000  0.97868478  0.67940780  1
  Hf  Hf1  1  0.75000000  0.47868478  0.82059220  1
  Co  Co0  1  0.25000000  0.14391223  0.93598456  1
  Co  Co1  1  0.25000000  0.64391223  0.56401544  1
  Co  Co2  1  0.75000000  0.86041206  0.06341281  1
  Co  Co3  1  0.75000000  0.36041206  0.43658719  1
  Si  Si0  1  0.25000000  0.27566961  0.60193056  1
  Si  Si1  1  0.25000000  0.77566961  0.89806944  1
  Si  Si2  1  0.75000000  0.72303700  0.37222522  1
  Si  Si3  1  0.75000000  0.22303700  0.12777478  1
  Mo  Mo0  1  0.25000000  0.01828531  0.31468544  1
  Mo  Mo1  1  0.25000000  0.51828531  0.18531456  1
loop_
_geom_bond_atom_site_label_1
_geom_bond_atom_site_label_2
_geom_bond_distance
_geom_bond_site_symmetry_2
Hf0 Si0 2.649953 1_665
Hf0 Si0 2.649953 1_565
Hf0 Si2 2.666602 1_555
Hf0 Si1 2.695563 1_555
Hf0 Si1 2.695563 1_655
Hf0 Mo0 3.148112 1_565
Hf0 Mo0 3.148112 1_665
Hf1 Si1 2.649953 1_555
Hf1 Si1 2.649953 1_655
Hf1 Si3 2.666602 1_556
Hf1 Si0 2.695563 1_555
Hf1 Si0 2.695563 1_655
Hf1 Mo1 3.148112 1_556
Hf1 Mo1 3.148112 1_656
Co0 Si1 2.293619 1_545
Co0 Si3 2.321501 1_456
Co0 Si3 2.321501 1_556
Co0 Si0 2.472910 1_555
Co0 Co2 2.687486 1_546
Co0 Co2 2.687486 1_446
Co0 Mo0 2.758491 1_556
Co0 Hf0 2.759270 1_545
Co0 Hf0 2.759270 1_445
Co0 Hf1 2.879795 1_555
Co0 Hf1 2.879795 1_455
Co0 Mo1 2.898490 1_556
Co1 Si0 2.293619 1_555
Co1 Si2 2.321501 1_555
Co1 Si2 2.321501 1_455
Co1 Si1 2.472910 1_555
Co1 Co3 2.687486 1_455
Co1 Co3 2.687486 1_555
Co1 Mo1 2.758491 1_555
Co1 Hf1 2.759270 1_455
Co1 Hf1 2.759270 1_555
Co1 Hf0 2.879795 1_555
Co1 Hf0 2.879795 1_455
Co1 Mo0 2.898490 1_565
Co2 Si1 2.227836 1_654
Co2 Si1 2.227836 1_554
Co2 Si3 2.288155 1_565
Co2 Si2 2.319599 1_555
Co2 Mo0 2.718647 1_665
Co2 Mo0 2.718647 1_565
Co2 Hf0 2.781765 1_554
Co2 Hf1 2.908196 1_554
Co2 Mo1 2.925614 1_655
Co2 Mo1 2.925614 1_555
Co3 Si0 2.227836 1_555
Co3 Si0 2.227836 1_655
Co3 Si2 2.288155 1_555
Co3 Si3 2.319599 1_555
Co3 Mo1 2.718647 1_655
Co3 Mo1 2.718647 1_555
Co3 Hf1 2.781765 1_555
Co3 Hf0 2.908196 1_545
Co3 Mo0 2.925614 1_655
Co3 Mo0 2.925614 1_555
Mo0 Si0 2.562416 1_555
Mo0 Si3 2.581504 1_555
Mo0 Si3 2.581504 1_455
Mo0 Si2 2.617518 1_445
Mo0 Si2 2.617518 1_545
Mo1 Si1 2.562416 1_554
Mo1 Si2 2.581504 1_555
Mo1 Si2 2.581504 1_455
Mo1 Si3 2.617518 1_555
Mo1 Si3 2.617518 1_455
