# generated using pymatgen
data_Zr6ReSi6Tc5
_symmetry_space_group_name_H-M   'P 1'
_cell_length_a   7.76841640
_cell_length_b   7.76860468
_cell_length_c   7.76844563
_cell_angle_alpha   126.67123864
_cell_angle_beta   127.74399435
_cell_angle_gamma   77.91551694
_symmetry_Int_Tables_number   1
_chemical_formula_structural   Zr6ReSi6Tc5
_chemical_formula_sum   'Zr6 Re1 Si6 Tc5'
_cell_volume   288.18708013
_cell_formula_units_Z   1
loop_
 _symmetry_equiv_pos_site_id
 _symmetry_equiv_pos_as_xyz
  1  'x, y, z'
loop_
 _atom_site_type_symbol
 _atom_site_label
 _atom_site_symmetry_multiplicity
 _atom_site_fract_x
 _atom_site_fract_y
 _atom_site_fract_z
 _atom_site_occupancy
  Zr  Zr0  1  0.45180619  0.65693433  0.70501786  1
  Zr  Zr1  1  0.54818057  0.25323761  0.20496366  1
  Zr  Zr2  1  0.74998610  0.84953336  0.59953790  1
  Zr  Zr3  1  0.25006189  0.84959088  0.09963475  1
  Zr  Zr4  1  0.04850363  0.25322627  0.70521348  1
  Zr  Zr5  1  0.95171678  0.65687357  0.20489736  1
  Re  Re0  1  0.62692219  0.25328822  0.62631111  1
  Si  Si0  1  0.24905530  0.25338248  0.50308872  1
  Si  Si1  1  0.75036660  0.25334685  0.00443069  1
  Si  Si2  1  0.33336597  0.58669939  0.25328976  1
  Si  Si3  1  0.66642739  0.92043916  0.25382904  1
  Si  Si4  1  0.16660766  0.92000846  0.75319576  1
  Si  Si5  1  0.83301317  0.58613556  0.75319133  1
  Tc  Tc0  1  0.50024705  0.50707871  0.00677118  1
  Tc  Tc1  1  0.99995261  0.50659284  0.50659934  1
  Tc  Tc2  1  0.12682783  0.25335071  0.12642434  1
  Tc  Tc3  1  0.87339955  0.99976694  0.12656482  1
  Tc  Tc4  1  0.37356054  0.00011864  0.62664692  1
loop_
_geom_bond_atom_site_label_1
_geom_bond_atom_site_label_2
_geom_bond_distance
_geom_bond_site_symmetry_2
Re0 Si0 2.468377 1_555
Re0 Si1 2.469397 1_556
Re0 Si3 2.640301 1_545
Re0 Si5 2.641597 1_555
Re0 Zr1 2.938609 1_555
Re0 Zr4 2.939989 1_655
Re0 Zr5 2.999078 1_556
Re0 Zr0 2.999929 1_555
Re0 Zr3 2.999961 1_545
Re0 Zr2 3.000701 1_545
Si0 Tc1 2.453899 1_455
Si0 Tc3 2.455062 1_445
Si0 Tc4 2.459725 1_555
Si0 Tc0 2.460444 1_556
Si0 Tc2 2.461988 1_555
Si0 Zr4 2.809056 1_555
Si0 Zr0 2.817539 1_555
Si0 Zr3 2.817760 1_545
Si1 Tc1 2.453183 1_555
Si1 Tc3 2.455284 1_545
Si1 Tc4 2.459511 1_554
Si1 Tc2 2.461250 1_655
Si1 Tc0 2.461281 1_555
Si1 Zr1 2.809188 1_555
Si1 Zr5 2.817584 1_555
Si1 Zr2 2.818018 1_544
Si2 Tc2 2.647127 1_555
Si2 Tc4 2.647536 1_565
Si2 Tc0 2.649450 1_555
Si2 Zr4 2.725233 1_554
Si2 Zr3 2.725316 1_555
Si2 Zr2 2.725438 1_555
Si2 Zr0 2.725650 1_555
Si2 Zr1 2.726145 1_555
Si2 Zr5 2.726192 1_455
Si3 Tc0 2.646317 1_555
Si3 Tc3 2.651617 1_555
Si3 Zr3 2.722926 1_555
Si3 Zr2 2.724035 1_555
Si3 Zr1 2.724530 1_565
Si3 Zr4 2.726189 1_665
Si3 Zr0 2.729299 1_554
Si3 Zr5 2.729532 1_555
Si4 Tc2 2.646072 1_566
Si4 Tc1 2.648870 1_455
Si4 Tc4 2.650122 1_565
Si4 Zr4 2.724181 1_565
Si4 Zr1 2.725801 1_566
Si4 Zr2 2.725994 1_455
Si4 Zr0 2.726012 1_555
Si4 Zr5 2.726117 1_455
Si4 Zr3 2.727008 1_556
Si5 Tc3 2.648092 1_556
Si5 Tc1 2.650536 1_555
Si5 Zr5 2.722706 1_556
Si5 Zr0 2.723854 1_555
Si5 Zr1 2.724973 1_555
Si5 Zr4 2.725736 1_655
Si5 Zr2 2.729492 1_555
Si5 Zr3 2.729592 1_656
Tc0 Zr3 2.938753 1_555
Tc0 Zr2 2.938929 1_555
Tc0 Zr5 2.997410 1_555
Tc0 Zr0 2.998033 1_554
Tc0 Zr4 3.001199 1_554
Tc0 Zr1 3.002517 1_555
Tc1 Zr2 2.939826 1_555
Tc1 Zr3 2.940370 1_656
Tc1 Zr1 2.999504 1_555
Tc1 Zr4 3.000211 1_655
Tc1 Zr0 3.000605 1_655
Tc1 Zr5 3.001089 1_555
Tc2 Zr4 2.938743 1_554
Tc2 Zr1 2.939529 1_555
Tc2 Zr0 2.999298 1_555
Tc2 Zr5 2.999381 1_455
Tc2 Zr2 3.000547 1_444
Tc2 Zr3 3.000880 1_545
Tc3 Zr5 2.939496 1_555
Tc3 Zr0 2.940713 1_554
Tc3 Zr3 2.999216 1_655
Tc3 Zr4 2.999570 1_665
Tc3 Zr2 2.999857 1_554
Tc3 Zr1 2.999922 1_565
Tc4 Zr0 2.941972 1_545
Tc4 Zr5 2.943270 1_445
Tc4 Zr4 2.998293 1_555
Tc4 Zr2 2.998553 1_545
Tc4 Zr3 2.998642 1_545
Tc4 Zr1 2.999042 1_556
