# generated using pymatgen
data_CsGa2SbO6
_symmetry_space_group_name_H-M   'P 1'
_cell_length_a   7.79276018
_cell_length_b   7.79276036
_cell_length_c   7.79275916
_cell_angle_alpha   38.95943364
_cell_angle_beta   38.95943220
_cell_angle_gamma   38.95943480
_symmetry_Int_Tables_number   1
_chemical_formula_structural   CsGa2SbO6
_chemical_formula_sum   'Cs1 Ga2 Sb1 O6'
_cell_volume   168.24282957
_cell_formula_units_Z   1
loop_
 _symmetry_equiv_pos_site_id
 _symmetry_equiv_pos_as_xyz
  1  'x, y, z'
loop_
 _atom_site_type_symbol
 _atom_site_label
 _atom_site_symmetry_multiplicity
 _atom_site_fract_x
 _atom_site_fract_y
 _atom_site_fract_z
 _atom_site_occupancy
  Cs  Cs0  1  0.00000000  0.00000000  0.00000000  1
  Ga  Ga0  1  0.16992806  0.16992806  0.16992806  1
  Ga  Ga1  1  0.83007194  0.83007194  0.83007194  1
  Sb  Sb0  1  0.50000000  0.50000000  0.50000000  1
  O  O0  1  0.78568616  0.44999035  0.12311643  1
  O  O1  1  0.55001065  0.87688257  0.21431384  1
  O  O2  1  0.12311743  0.78568516  0.44999035  1
  O  O3  1  0.87688257  0.21431484  0.55000965  1
  O  O4  1  0.44998935  0.12311743  0.78568616  1
  O  O5  1  0.21431384  0.55000965  0.87688357  1
loop_
_geom_bond_atom_site_label_1
_geom_bond_atom_site_label_2
_geom_bond_distance
_geom_bond_site_symmetry_2
Cs0 O4 3.104644 1_554
Cs0 O1 3.104644 1_445
Cs0 O0 3.104645 1_455
Cs0 O5 3.104645 1_544
Cs0 O2 3.104646 1_545
Cs0 O3 3.104646 1_454
Ga0 O5 1.988264 1_554
Ga0 O3 1.988266 1_455
Ga0 O1 1.988268 1_545
Ga0 O4 2.039507 1_554
Ga0 O0 2.039510 1_455
Ga0 O2 2.039512 1_545
Ga1 O0 1.988264 1_556
Ga1 O2 1.988266 1_655
Ga1 O4 1.988268 1_565
Ga1 O1 2.039507 1_556
Ga1 O5 2.039510 1_655
Ga1 O3 2.039512 1_565
O0 Sb0 1.999027 1_555
O1 Sb0 1.999025 1_555
O2 Sb0 1.999023 1_555
O3 Sb0 1.999023 1_555
O4 Sb0 1.999025 1_555
O5 Sb0 1.999027 1_555
