# generated using pymatgen
data_BeNb4Al4V3
_symmetry_space_group_name_H-M   'P 1'
_cell_length_a   4.94602182
_cell_length_b   4.94603225
_cell_length_c   8.41566656
_cell_angle_alpha   90.00000000
_cell_angle_beta   90.00000000
_cell_angle_gamma   61.25930452
_symmetry_Int_Tables_number   1
_chemical_formula_structural   BeNb4Al4V3
_chemical_formula_sum   'Be1 Nb4 Al4 V3'
_cell_volume   180.51131781
_cell_formula_units_Z   1
loop_
 _symmetry_equiv_pos_site_id
 _symmetry_equiv_pos_as_xyz
  1  'x, y, z'
loop_
 _atom_site_type_symbol
 _atom_site_label
 _atom_site_symmetry_multiplicity
 _atom_site_fract_x
 _atom_site_fract_y
 _atom_site_fract_z
 _atom_site_occupancy
  Be  Be0  1  0.83440045  0.83446194  0.75000000  1
  Nb  Nb0  1  0.33451604  0.33450332  0.56222805  1
  Nb  Nb1  1  0.66468593  0.66468435  0.44078179  1
  Nb  Nb2  1  0.66468593  0.66468435  0.05921821  1
  Nb  Nb3  1  0.33451604  0.33450332  0.93777195  1
  Al  Al0  1  0.99320133  0.99320139  0.50200520  1
  Al  Al1  1  0.99320133  0.99320139  0.99799480  1
  Al  Al2  1  0.83597258  0.34944436  0.75000000  1
  Al  Al3  1  0.34944446  0.83595726  0.75000000  1
  V  V0  1  0.17191162  0.65234285  0.25000000  1
  V  V1  1  0.65234805  0.17190568  0.25000000  1
  V  V2  1  0.17111424  0.17110977  0.25000000  1
loop_
_geom_bond_atom_site_label_1
_geom_bond_atom_site_label_2
_geom_bond_distance
_geom_bond_site_symmetry_2
Be0 Nb3 2.974264 1_565
Be0 Nb0 2.974264 1_565
Be0 Nb3 2.974581 1_655
Be0 Nb0 2.974581 1_655
Be0 Nb2 2.976486 1_556
Be0 Nb1 2.976486 1_555
Nb0 V1 2.967571 1_555
Nb0 V0 2.967588 1_555
Nb0 V2 2.972997 1_555
Nb0 Nb1 2.990493 1_555
Nb0 Nb1 3.079626 1_545
Nb0 Nb1 3.079666 1_455
Nb0 Nb3 3.160452 1_555
Nb1 V0 2.943622 1_555
Nb1 V1 2.943636 1_555
Nb1 V1 2.954327 1_565
Nb1 V0 2.954334 1_655
Nb1 V2 2.988451 1_565
Nb1 V2 2.988463 1_655
Nb1 Nb2 3.211112 1_555
Nb2 V0 2.943622 1_555
Nb2 V1 2.943636 1_555
Nb2 V1 2.954327 1_565
Nb2 V0 2.954334 1_655
Nb2 V2 2.988451 1_565
Nb2 V2 2.988463 1_655
Nb2 Nb3 2.990493 1_554
Nb2 Nb3 3.079626 1_564
Nb2 Nb3 3.079666 1_654
Nb3 V1 2.967571 1_556
Nb3 V0 2.967588 1_556
Nb3 V2 2.972997 1_556
Al0 Be0 2.486387 1_555
Al0 V1 2.586142 1_565
Al0 V0 2.586157 1_655
Al0 Al3 2.597565 1_655
Al0 Al2 2.597569 1_565
Al0 V2 2.605962 1_665
Al0 Nb1 2.843369 1_555
Al0 Nb0 2.903676 1_565
Al0 Nb0 2.903737 1_655
Al0 Nb0 2.949058 1_665
Al0 Nb1 2.957385 1_565
Al0 Nb1 2.957386 1_655
Al1 Be0 2.486387 1_555
Al1 V1 2.586142 1_566
Al1 V0 2.586157 1_656
Al1 Al3 2.597565 1_655
Al1 Al2 2.597569 1_565
Al1 V2 2.605962 1_666
Al1 Nb2 2.843369 1_556
Al1 Nb3 2.903676 1_565
Al1 Nb3 2.903737 1_655
Al1 Nb3 2.949058 1_665
Al1 Nb2 2.957385 1_566
Al1 Nb2 2.957386 1_656
Al2 Be0 2.395183 1_555
Al2 Al3 2.452001 1_555
Al2 Be0 2.550868 1_545
Al2 Al3 2.587870 1_645
Al2 Nb3 2.899576 1_655
Al2 Nb0 2.899576 1_655
Al2 Nb2 2.941142 1_556
Al2 Nb1 2.941142 1_555
Al2 Nb3 2.971583 1_555
Al2 Nb0 2.971583 1_555
Al3 Be0 2.395055 1_555
Al3 Be0 2.550983 1_455
Al3 Nb3 2.899615 1_565
Al3 Nb0 2.899615 1_565
Al3 Nb2 2.941141 1_556
Al3 Nb1 2.941141 1_555
Al3 Nb3 2.971550 1_555
Al3 Nb0 2.971550 1_555
V0 V2 2.382093 1_555
V0 V1 2.421339 1_555
V0 V2 2.563944 1_565
V0 V1 2.618532 1_465
V1 V2 2.382088 1_555
V1 V2 2.563938 1_655
