# generated using pymatgen
data_RbTcAs2Pt
_symmetry_space_group_name_H-M   'P 1'
_cell_length_a   7.63500454
_cell_length_b   7.63500360
_cell_length_c   7.63500424
_cell_angle_alpha   148.95617671
_cell_angle_beta   148.95616836
_cell_angle_gamma   44.47581986
_symmetry_Int_Tables_number   1
_chemical_formula_structural   RbTcAs2Pt
_chemical_formula_sum   'Rb1 Tc1 As2 Pt1'
_cell_volume   118.00906958
_cell_formula_units_Z   1
loop_
 _symmetry_equiv_pos_site_id
 _symmetry_equiv_pos_as_xyz
  1  'x, y, z'
loop_
 _atom_site_type_symbol
 _atom_site_label
 _atom_site_symmetry_multiplicity
 _atom_site_fract_x
 _atom_site_fract_y
 _atom_site_fract_z
 _atom_site_occupancy
  Rb  Rb0  1  0.00000000  0.00000000  0.00000000  1
  Tc  Tc0  1  0.75000000  0.25000000  0.50000000  1
  As  As0  1  0.34749651  0.34749651  1.00000000  1
  As  As1  1  0.65250349  0.65250349  0.00000000  1
  Pt  Pt0  1  0.25000000  0.75000000  0.50000000  1
loop_
_geom_bond_atom_site_label_1
_geom_bond_atom_site_label_2
_geom_bond_distance
_geom_bond_site_symmetry_2
As0 Pt0 2.464462 1_545
As0 Pt0 2.464462 1_556
As0 Tc0 2.464462 1_556
As0 Tc0 2.464462 1_455
As0 Rb0 3.604917 1_566
As0 Rb0 3.604918 1_667
As0 Rb0 3.604918 1_555
As0 Rb0 3.604918 1_656
As1 Tc0 2.464462 1_565
As1 Tc0 2.464462 1_554
As1 Pt0 2.464462 1_554
As1 Pt0 2.464462 1_655
As1 Rb0 3.604917 1_655
As1 Rb0 3.604918 1_554
As1 Rb0 3.604918 1_666
As1 Rb0 3.604918 1_565
Pt0 Tc0 2.889493 1_555
Pt0 Tc0 2.889493 1_465
Pt0 Tc0 2.889493 1_566
Pt0 Tc0 2.889493 1_454
