# generated using pymatgen
data_Rb4NbRhBr12
_symmetry_space_group_name_H-M   'P 1'
_cell_length_a   7.45396729
_cell_length_b   7.45396729
_cell_length_c   10.65478684
_cell_angle_alpha   90.00000000
_cell_angle_beta   90.00000000
_cell_angle_gamma   90.00000000
_symmetry_Int_Tables_number   1
_chemical_formula_structural   Rb4NbRhBr12
_chemical_formula_sum   'Rb4 Nb1 Rh1 Br12'
_cell_volume   591.99730708
_cell_formula_units_Z   1
loop_
 _symmetry_equiv_pos_site_id
 _symmetry_equiv_pos_as_xyz
  1  'x, y, z'
loop_
 _atom_site_type_symbol
 _atom_site_label
 _atom_site_symmetry_multiplicity
 _atom_site_fract_x
 _atom_site_fract_y
 _atom_site_fract_z
 _atom_site_occupancy
  Rb  Rb0  1  0.50000000  0.00000000  0.78040022  1
  Rb  Rb1  1  0.00000000  0.50000000  0.21959978  1
  Rb  Rb2  1  0.50000000  0.00000000  0.21959978  1
  Rb  Rb3  1  0.00000000  0.50000000  0.78040022  1
  Nb  Nb0  1  0.50000000  0.50000000  0.50000000  1
  Rh  Rh0  1  0.00000000  0.00000000  0.00000000  1
  Br  Br0  1  0.00000000  0.00000000  0.76404348  1
  Br  Br1  1  0.50000000  0.50000000  0.26075784  1
  Br  Br2  1  0.74110026  0.74110026  0.50000000  1
  Br  Br3  1  0.23765365  0.23765365  0.00000000  1
  Br  Br4  1  0.74110026  0.25889974  0.50000000  1
  Br  Br5  1  0.23765365  0.76234635  0.00000000  1
  Br  Br6  1  0.00000000  0.00000000  0.23595652  1
  Br  Br7  1  0.50000000  0.50000000  0.73924216  1
  Br  Br8  1  0.25889974  0.25889974  0.50000000  1
  Br  Br9  1  0.76234635  0.76234635  0.00000000  1
  Br  Br10  1  0.25889974  0.74110026  0.50000000  1
  Br  Br11  1  0.76234635  0.23765365  0.00000000  1
loop_
_geom_bond_atom_site_label_1
_geom_bond_atom_site_label_2
_geom_bond_distance
_geom_bond_site_symmetry_2
Br0 Rh0 2.514066 1_556
Br0 Rb0 3.731056 1_455
Br0 Rb0 3.731056 1_555
Br0 Rb3 3.731056 1_545
Br0 Rb3 3.731056 1_555
Br1 Nb0 2.549074 1_555
Br1 Rb1 3.752694 1_655
Br1 Rb2 3.752694 1_565
Br1 Rb1 3.752694 1_555
Br1 Rb2 3.752694 1_555
Br2 Nb0 2.541559 1_555
Br2 Rb0 3.984945 1_565
Br2 Rb3 3.984945 1_655
Br2 Rb1 3.984945 1_655
Br2 Rb2 3.984945 1_565
Br3 Rh0 2.505226 1_555
Br3 Rb1 3.526578 1_555
Br3 Rb2 3.526578 1_555
Br3 Rb3 3.526578 1_554
Br3 Rb0 3.526578 1_554
Br4 Nb0 2.541559 1_555
Br4 Rb0 3.984945 1_555
Br4 Rb3 3.984945 1_655
Br4 Rb2 3.984945 1_555
Br4 Rb1 3.984945 1_655
Br5 Rh0 2.505226 1_565
Br5 Rb1 3.526578 1_555
Br5 Rb3 3.526578 1_554
Br5 Rb2 3.526578 1_565
Br5 Rb0 3.526578 1_564
Br6 Rh0 2.514066 1_555
Br6 Rb1 3.731056 1_545
Br6 Rb1 3.731056 1_555
Br6 Rb2 3.731056 1_555
Br6 Rb2 3.731056 1_455
Br7 Nb0 2.549074 1_555
Br7 Rb3 3.752694 1_555
Br7 Rb0 3.752694 1_555
Br7 Rb0 3.752694 1_565
Br7 Rb3 3.752694 1_655
Br8 Nb0 2.541559 1_555
Br8 Rb3 3.984945 1_555
Br8 Rb0 3.984945 1_555
Br8 Rb1 3.984945 1_555
Br8 Rb2 3.984945 1_555
Br9 Rh0 2.505226 1_665
Br9 Rb1 3.526578 1_655
Br9 Rb2 3.526578 1_565
Br9 Rb3 3.526578 1_654
Br9 Rb0 3.526578 1_564
Br10 Nb0 2.541559 1_555
Br10 Rb3 3.984945 1_555
Br10 Rb0 3.984945 1_565
Br10 Rb1 3.984945 1_555
Br10 Rb2 3.984945 1_565
Br11 Rh0 2.505226 1_655
Br11 Rb2 3.526578 1_555
Br11 Rb0 3.526578 1_554
Br11 Rb1 3.526578 1_655
Br11 Rb3 3.526578 1_654
