# generated using pymatgen
data_Na8SnSb4
_symmetry_space_group_name_H-M   'P 1'
_cell_length_a   10.45185698
_cell_length_b   10.45186483
_cell_length_c   10.45184407
_cell_angle_alpha   59.99033384
_cell_angle_beta   59.99045239
_cell_angle_gamma   59.99024768
_symmetry_Int_Tables_number   1
_chemical_formula_structural   Na8SnSb4
_chemical_formula_sum   'Na16 Sn2 Sb8'
_cell_volume   807.17941599
_cell_formula_units_Z   2
loop_
 _symmetry_equiv_pos_site_id
 _symmetry_equiv_pos_as_xyz
  1  'x, y, z'
loop_
 _atom_site_type_symbol
 _atom_site_label
 _atom_site_symmetry_multiplicity
 _atom_site_fract_x
 _atom_site_fract_y
 _atom_site_fract_z
 _atom_site_occupancy
  Na  Na0  1  0.62499999  0.12499942  0.62500023  1
  Na  Na1  1  0.62499949  0.62500024  0.12500001  1
  Na  Na2  1  0.12499977  0.62499977  0.62499994  1
  Na  Na3  1  0.62500010  0.62500006  0.62500018  1
  Na  Na4  1  0.02030679  0.02030515  0.47971569  1
  Na  Na5  1  0.77028239  0.22969498  0.22969610  1
  Na  Na6  1  0.22972162  0.77029793  0.77029690  1
  Na  Na7  1  0.77029682  0.77029750  0.22972172  1
  Na  Na8  1  0.77029680  0.22972128  0.77029670  1
  Na  Na9  1  0.22969439  0.77028333  0.22969547  1
  Na  Na10  1  0.47970210  0.02027893  0.47970244  1
  Na  Na11  1  0.47971551  0.02030610  0.02030578  1
  Na  Na12  1  0.02027954  0.47970076  0.47970219  1
  Na  Na13  1  0.02030599  0.47971626  0.02030518  1
  Na  Na14  1  0.22969514  0.22969460  0.77028277  1
  Na  Na15  1  0.47970225  0.47970274  0.02027973  1
  Sn  Sn0  1  0.49999637  0.49999674  0.49999653  1
  Sn  Sn1  1  0.75000362  0.75000358  0.75000346  1
  Sb  Sb0  1  0.41537464  0.86154363  0.86154284  1
  Sb  Sb1  1  0.86153332  0.86153224  0.86153293  1
  Sb  Sb2  1  0.83443407  0.38852183  0.38852210  1
  Sb  Sb3  1  0.38852776  0.38852778  0.38852807  1
  Sb  Sb4  1  0.38852264  0.38852164  0.83443427  1
  Sb  Sb5  1  0.86154311  0.41537479  0.86154368  1
  Sb  Sb6  1  0.86154412  0.86154296  0.41537401  1
  Sb  Sb7  1  0.38852165  0.83443576  0.38852110  1
loop_
_geom_bond_atom_site_label_1
_geom_bond_atom_site_label_2
_geom_bond_distance
_geom_bond_site_symmetry_2
Na0 Sn1 3.199789 1_545
Na0 Sn0 3.199801 1_555
Na0 Na5 3.381982 1_555
Na0 Na14 3.381990 1_555
Na0 Na11 3.381995 1_556
Na0 Na4 3.382008 1_655
Na0 Na8 3.382697 1_555
Na0 Na10 3.382707 1_555
Na0 Sb3 3.506433 1_555
Na0 Sb4 3.506573 1_555
Na0 Sb2 3.506581 1_555
Na0 Sb1 3.507227 1_545
Na0 Sb0 3.507391 1_545
Na0 Sb6 3.507396 1_545
Na1 Sn0 3.199795 1_555
Na1 Sn1 3.199795 1_554
Na1 Na9 3.381991 1_555
Na1 Na5 3.381991 1_555
Na1 Na11 3.381997 1_565
Na1 Na13 3.382003 1_655
Na1 Na15 3.382698 1_555
Na1 Na7 3.382709 1_555
Na1 Sb3 3.506446 1_555
Na1 Sb2 3.506568 1_555
Na1 Sb7 3.506574 1_555
Na1 Sb1 3.507240 1_554
Na1 Sb0 3.507384 1_554
Na1 Sb5 3.507389 1_554
Na2 Sn1 3.199793 1_455
Na2 Sn0 3.199797 1_555
Na2 Na9 3.381984 1_555
Na2 Na4 3.381995 1_565
Na2 Na6 3.382714 1_555
Na2 Sb3 3.506437 1_555
Na2 Sb4 3.506573 1_555
Na2 Sb7 3.506591 1_555
Na2 Sb1 3.507230 1_455
Na2 Sb6 3.507380 1_455
Na2 Sb5 3.507396 1_455
Na3 Sn1 3.200536 1_555
Na3 Sn0 3.200539 1_555
Na3 Na7 3.381718 1_555
Na3 Na8 3.381718 1_555
Na3 Na6 3.381719 1_555
Na3 Sb2 3.506635 1_555
Na3 Sb7 3.506635 1_555
Na3 Sb4 3.506638 1_555
Na3 Sb5 3.507480 1_555
Na3 Sb0 3.507485 1_555
Na3 Sb6 3.507497 1_555
Na4 Sb7 3.193421 1_545
Na4 Sb2 3.193439 1_455
Na4 Sb1 3.307456 1_445
Na4 Sb6 3.308469 1_445
Na5 Sb6 3.192617 1_545
Na5 Sb5 3.192624 1_554
Na5 Sb3 3.307179 1_555
Na5 Sb2 3.308210 1_555
Na6 Sb1 3.193099 1_455
Na6 Sb0 3.193155 1_555
Na6 Sb7 3.307394 1_555
Na6 Sb4 3.307399 1_555
Na7 Sb1 3.193100 1_554
Na7 Sb6 3.193156 1_555
Na7 Sb7 3.307390 1_555
Na7 Sb2 3.307395 1_555
Na8 Sb1 3.193103 1_545
Na8 Sb5 3.193174 1_555
Na8 Sb4 3.307379 1_555
Na8 Sb2 3.307382 1_555
Na9 Sb6 3.192608 1_455
Na9 Sb0 3.192628 1_554
Na9 Sb3 3.307185 1_555
Na9 Sb7 3.308214 1_555
Na10 Sb3 3.193870 1_555
Na10 Sb7 3.193938 1_545
Na10 Sb0 3.307672 1_545
Na10 Sb6 3.307686 1_545
Na10 Na3 3.381720 1_545
Na11 Sb7 3.193426 1_545
Na11 Sb4 3.193430 1_554
Na11 Sb1 3.307460 1_544
Na11 Sb0 3.308466 1_544
Na12 Sb3 3.193867 1_555
Na12 Sb2 3.193937 1_455
Na12 Sb5 3.307686 1_455
Na12 Sb6 3.307689 1_455
Na12 Na3 3.381728 1_455
Na12 Na2 3.382715 1_555
Na13 Sb4 3.193440 1_554
Na13 Sb2 3.193443 1_455
Na13 Sb1 3.307441 1_454
Na13 Sb5 3.308459 1_454
Na13 Na2 3.381992 1_554
Na14 Sb0 3.192611 1_545
Na14 Sb5 3.192621 1_455
Na14 Sb3 3.307182 1_555
Na14 Sb4 3.308225 1_555
Na14 Na2 3.381991 1_555
Na15 Sb3 3.193861 1_555
Na15 Sb4 3.193948 1_554
Na15 Sb0 3.307680 1_554
Na15 Sb5 3.307680 1_554
Na15 Na3 3.381727 1_554
Sb0 Sn1 2.855345 1_555
Sb1 Sn1 2.855549 1_555
Sb2 Sn0 2.853713 1_555
Sb3 Sn0 2.853997 1_555
Sb4 Sn0 2.853712 1_555
Sb5 Sn1 2.855342 1_555
Sb6 Sn1 2.855348 1_555
Sb7 Sn0 2.853723 1_555
