# generated using pymatgen
data_BaSr3(ZnSb2)2
_symmetry_space_group_name_H-M   'P 1'
_cell_length_a   8.47815122
_cell_length_b   8.45405771
_cell_length_c   8.45405699
_cell_angle_alpha   132.18304966
_cell_angle_beta   130.90043989
_cell_angle_gamma   70.90220644
_symmetry_Int_Tables_number   1
_chemical_formula_structural   BaSr3(ZnSb2)2
_chemical_formula_sum   'Ba1 Sr3 Zn2 Sb4'
_cell_volume   332.46566503
_cell_formula_units_Z   1
loop_
 _symmetry_equiv_pos_site_id
 _symmetry_equiv_pos_as_xyz
  1  'x, y, z'
loop_
 _atom_site_type_symbol
 _atom_site_label
 _atom_site_symmetry_multiplicity
 _atom_site_fract_x
 _atom_site_fract_y
 _atom_site_fract_z
 _atom_site_occupancy
  Ba  Ba0  1  0.06054377  0.36106472  0.69947905  1
  Sr  Sr0  1  0.65642416  0.86398590  0.79243626  1
  Sr  Sr1  1  0.34021436  0.13565932  0.20455604  1
  Sr  Sr2  1  0.93196031  0.63533628  0.29662303  1
  Zn  Zn0  1  0.50115716  0.25155277  0.75069200  1
  Zn  Zn1  1  0.50115716  0.75046515  0.24960439  1
  Sb  Sb0  1  0.40919712  0.61927019  0.78992693  1
  Sb  Sb1  1  0.59522448  0.38592728  0.20929520  1
  Sb  Sb2  1  0.17729350  0.88750238  0.28979112  1
  Sb  Sb3  1  0.82682899  0.10923500  0.71759399  1
loop_
_geom_bond_atom_site_label_1
_geom_bond_atom_site_label_2
_geom_bond_distance
_geom_bond_site_symmetry_2
Ba0 Zn1 3.340138 1_556
Ba0 Zn0 3.340138 1_555
Ba0 Sb1 3.464057 1_455
Ba0 Sb3 3.475331 1_455
Ba0 Sb2 3.503951 1_556
Ba0 Sb2 3.503951 1_545
Ba0 Sb1 3.604403 1_556
Ba0 Sb0 3.620500 1_555
Sr0 Zn1 3.273395 1_555
Sr0 Zn0 3.273403 1_565
Sr1 Zn0 3.269379 1_555
Sr1 Zn1 3.269383 1_545
Sr2 Zn0 3.276837 1_554
Sr2 Zn1 3.276841 1_555
Sb0 Zn1 2.783838 1_556
Sb0 Zn0 2.783838 1_555
Sb0 Sr0 3.375539 1_555
Sb0 Sr2 3.476572 1_455
Sb0 Sr1 3.485645 1_555
Sb0 Sr1 3.485652 1_566
Sb0 Sr2 3.572468 1_556
Sb1 Zn0 2.754434 1_554
Sb1 Zn1 2.754442 1_555
Sb1 Sr1 3.452310 1_555
Sb1 Sr0 3.488738 1_555
Sb1 Sr0 3.488738 1_544
Sb1 Sr2 3.497102 1_555
Sb2 Zn0 2.758302 1_565
Sb2 Zn1 2.758302 1_555
Sb2 Sr1 3.472507 1_565
Sb2 Sr2 3.478292 1_455
Sb2 Sr0 3.515289 1_454
Sb2 Sr0 3.549647 1_555
Sb3 Zn1 2.745047 1_545
Sb3 Zn0 2.745047 1_555
Sb3 Sr0 3.421292 1_545
Sb3 Sr1 3.446675 1_656
Sb3 Sr2 3.489909 1_556
Sb3 Sr2 3.489916 1_545
Sb3 Sr1 3.626103 1_555
