# generated using pymatgen
data_Be15Nb6(Co3Cu)2
_symmetry_space_group_name_H-M   'P 1'
_cell_length_a   7.56229712
_cell_length_b   7.56195701
_cell_length_c   7.56195711
_cell_angle_alpha   60.00000388
_cell_angle_beta   60.00149161
_cell_angle_gamma   60.00149425
_symmetry_Int_Tables_number   1
_chemical_formula_structural   Be15Nb6(Co3Cu)2
_chemical_formula_sum   'Be15 Nb6 Co6 Cu2'
_cell_volume   305.78555418
_cell_formula_units_Z   1
loop_
 _symmetry_equiv_pos_site_id
 _symmetry_equiv_pos_as_xyz
  1  'x, y, z'
loop_
 _atom_site_type_symbol
 _atom_site_label
 _atom_site_symmetry_multiplicity
 _atom_site_fract_x
 _atom_site_fract_y
 _atom_site_fract_z
 _atom_site_occupancy
  Be  Be0  1  0.32320858  0.32797004  0.32797004  1
  Be  Be1  1  0.67679142  0.67202996  0.67202996  1
  Be  Be2  1  0.32320858  0.32797004  0.02085234  1
  Be  Be3  1  0.32320858  0.02085234  0.32797004  1
  Be  Be4  1  0.67679142  0.67202996  0.97914766  1
  Be  Be5  1  0.67679142  0.97914766  0.67202996  1
  Be  Be6  1  0.02997453  0.32334216  0.32334216  1
  Be  Be7  1  0.97002547  0.67665784  0.67665784  1
  Be  Be8  1  0.50000000  0.00000000  0.00000000  1
  Be  Be9  1  0.00000000  0.50000000  0.50000000  1
  Be  Be10  1  0.00000000  0.50000000  0.00000000  1
  Be  Be11  1  0.50000000  0.00000000  0.50000000  1
  Be  Be12  1  0.00000000  0.00000000  0.50000000  1
  Be  Be13  1  0.50000000  0.50000000  0.00000000  1
  Be  Be14  1  0.00000000  0.00000000  0.00000000  1
  Nb  Nb0  1  0.71679238  0.29278114  0.29278114  1
  Nb  Nb1  1  0.28320762  0.70721886  0.70721886  1
  Nb  Nb2  1  0.28320762  0.70721886  0.30235467  1
  Nb  Nb3  1  0.71679238  0.29278114  0.69764533  1
  Nb  Nb4  1  0.28320762  0.30235467  0.70721886  1
  Nb  Nb5  1  0.71679238  0.69764533  0.29278114  1
  Co  Co0  1  0.12485601  0.12107274  0.12107274  1
  Co  Co1  1  0.87514399  0.87892726  0.87892726  1
  Co  Co2  1  0.12485601  0.12107274  0.63299851  1
  Co  Co3  1  0.12485601  0.63299851  0.12107274  1
  Co  Co4  1  0.87514399  0.87892726  0.36700149  1
  Co  Co5  1  0.87514399  0.36700149  0.87892726  1
  Cu  Cu0  1  0.63208591  0.12263803  0.12263803  1
  Cu  Cu1  1  0.36791409  0.87736197  0.87736197  1
loop_
_geom_bond_atom_site_label_1
_geom_bond_atom_site_label_2
_geom_bond_distance
_geom_bond_site_symmetry_2
Be0 Be9 2.166115 1_555
Be0 Be13 2.197229 1_555
Be0 Be11 2.197229 1_555
Be0 Be6 2.253061 1_555
Be0 Co2 2.301396 1_555
Be0 Co3 2.301396 1_555
Be0 Be3 2.322411 1_555
Be0 Be2 2.322411 1_555
Be0 Cu0 2.331398 1_555
Be0 Nb2 2.643721 1_555
Be0 Nb4 2.643721 1_555
Be0 Nb0 2.736314 1_555
Be1 Be9 2.166115 1_655
Be1 Be13 2.197229 1_556
Be1 Be11 2.197229 1_565
Be1 Be7 2.253061 1_555
Be1 Co4 2.301396 1_555
Be1 Co5 2.301396 1_555
Be1 Be5 2.322411 1_555
Be1 Be4 2.322411 1_555
Be1 Cu1 2.331398 1_555
Be1 Nb3 2.643721 1_555
Be1 Nb5 2.643721 1_555
Be1 Nb1 2.736314 1_555
Be2 Be8 2.197231 1_555
Be2 Be6 2.253061 1_555
Be2 Co3 2.301392 1_555
Be2 Co0 2.301398 1_555
Be2 Be3 2.322411 1_555
Be2 Cu0 2.331394 1_555
Be2 Nb1 2.643724 1_554
Be2 Nb4 2.643728 1_554
Be2 Nb3 2.736318 1_554
Be3 Be8 2.197231 1_555
Be3 Be6 2.253061 1_555
Be3 Co2 2.301392 1_555
Be3 Co0 2.301398 1_555
Be3 Cu0 2.331394 1_555
Be3 Nb1 2.643724 1_545
Be3 Nb2 2.643728 1_545
Be3 Nb5 2.736318 1_545
Be4 Be8 2.197231 1_566
Be4 Be7 2.253061 1_555
Be4 Co5 2.301392 1_555
Be4 Co1 2.301398 1_555
Be4 Be5 2.322411 1_555
Be4 Cu1 2.331394 1_555
Be4 Nb0 2.643724 1_556
Be4 Nb5 2.643728 1_556
Be4 Nb2 2.736318 1_556
Be5 Be8 2.197231 1_566
Be5 Be7 2.253061 1_555
Be5 Co4 2.301392 1_555
Be5 Co1 2.301398 1_555
Be5 Cu1 2.331394 1_555
Be5 Nb0 2.643724 1_565
Be5 Nb3 2.643728 1_565
Be5 Nb4 2.736318 1_565
Be6 Be9 2.190777 1_555
Be6 Co3 2.310525 1_555
Be6 Co2 2.310525 1_555
Be6 Co0 2.310531 1_555
Be6 Nb3 2.619929 1_455
Be6 Nb5 2.619929 1_455
Be6 Nb0 2.619933 1_455
Be7 Be9 2.190777 1_655
Be7 Co5 2.310525 1_555
Be7 Co4 2.310525 1_555
Be7 Co1 2.310531 1_555
Be7 Nb2 2.619929 1_655
Be7 Nb4 2.619929 1_655
Be7 Nb1 2.619933 1_655
Be8 Co1 2.316998 1_544
Be8 Co0 2.316998 1_555
Be8 Cu0 2.330335 1_555
Be8 Cu1 2.330335 1_544
Be9 Co5 2.340086 1_455
Be9 Co3 2.340086 1_555
Be9 Co4 2.340086 1_455
Be9 Co2 2.340086 1_555
Be9 Nb2 2.662545 1_555
Be9 Nb3 2.662545 1_455
Be9 Nb4 2.662545 1_555
Be9 Nb5 2.662545 1_455
Be10 Be2 2.166117 1_555
Be10 Be4 2.166117 1_454
Be10 Be6 2.190784 1_555
Be10 Be7 2.190784 1_454
Be10 Co3 2.340086 1_555
Be10 Co5 2.340086 1_454
Be10 Co1 2.340086 1_454
Be10 Co0 2.340086 1_555
Be10 Nb1 2.662545 1_554
Be10 Nb0 2.662545 1_455
Be10 Nb5 2.662545 1_455
Be10 Nb4 2.662545 1_554
Be11 Be5 2.197224 1_545
Be11 Be3 2.197224 1_555
Be11 Co4 2.316998 1_545
Be11 Co2 2.316998 1_555
Be11 Cu1 2.330335 1_545
Be11 Cu0 2.330335 1_555
Be12 Be3 2.166117 1_555
Be12 Be5 2.166117 1_445
Be12 Be6 2.190783 1_555
Be12 Be7 2.190783 1_445
Be12 Co2 2.340086 1_555
Be12 Co4 2.340086 1_445
Be12 Co1 2.340086 1_445
Be12 Co0 2.340086 1_555
Be12 Nb3 2.662545 1_455
Be12 Nb2 2.662545 1_545
Be12 Nb1 2.662545 1_545
Be12 Nb0 2.662545 1_455
Be13 Be4 2.197224 1_554
Be13 Be2 2.197224 1_555
Be13 Co5 2.316998 1_554
Be13 Co3 2.316998 1_555
Be13 Cu1 2.330335 1_554
Be13 Cu0 2.330335 1_555
Be14 Co0 2.266060 1_555
Be14 Co1 2.266060 1_444
Be14 Co2 2.266060 1_554
Be14 Co4 2.266060 1_445
Be14 Co5 2.266060 1_454
Be14 Co3 2.266060 1_545
Be14 Cu1 2.271770 1_544
Be14 Cu0 2.271770 1_455
Co0 Nb0 2.562671 1_455
Co0 Nb4 2.590600 1_554
Co0 Nb2 2.590600 1_545
Co0 Cu1 2.606360 1_544
Co1 Nb1 2.562671 1_655
Co1 Nb5 2.590600 1_556
Co1 Nb3 2.590600 1_565
Co1 Cu0 2.606360 1_566
Co2 Nb3 2.562671 1_455
Co2 Nb4 2.590600 1_555
Co2 Nb1 2.590600 1_545
Co2 Cu1 2.606360 1_545
Co3 Nb5 2.562671 1_455
Co3 Nb2 2.590600 1_555
Co3 Nb1 2.590600 1_554
Co3 Cu1 2.606360 1_554
Co4 Nb2 2.562671 1_655
Co4 Nb5 2.590600 1_555
Co4 Nb0 2.590600 1_565
Co4 Cu0 2.606360 1_565
Co5 Nb4 2.562671 1_655
Co5 Nb3 2.590600 1_555
Co5 Nb0 2.590600 1_556
Co5 Cu0 2.606360 1_556
Cu0 Nb0 2.650423 1_555
Cu0 Nb3 2.650424 1_554
Cu0 Nb5 2.650424 1_545
Cu1 Nb1 2.650423 1_555
Cu1 Nb2 2.650424 1_556
Cu1 Nb4 2.650424 1_565
