# generated using pymatgen
data_Rb2Zn(SiO3)2
_symmetry_space_group_name_H-M   'P 1'
_cell_length_a   5.82626950
_cell_length_b   5.82626884
_cell_length_c   10.51217376
_cell_angle_alpha   90.00000000
_cell_angle_beta   90.00000000
_cell_angle_gamma   111.43053335
_symmetry_Int_Tables_number   1
_chemical_formula_structural   Rb2Zn(SiO3)2
_chemical_formula_sum   'Rb4 Zn2 Si4 O12'
_cell_volume   332.16859298
_cell_formula_units_Z   2
loop_
 _symmetry_equiv_pos_site_id
 _symmetry_equiv_pos_as_xyz
  1  'x, y, z'
loop_
 _atom_site_type_symbol
 _atom_site_label
 _atom_site_symmetry_multiplicity
 _atom_site_fract_x
 _atom_site_fract_y
 _atom_site_fract_z
 _atom_site_occupancy
  Rb  Rb0  1  0.28307855  0.93969075  0.57843021  1
  Rb  Rb1  1  0.06030925  0.71692145  0.92156979  1
  Rb  Rb2  1  0.71692145  0.06030925  0.07843021  1
  Rb  Rb3  1  0.93969075  0.28307855  0.42156979  1
  Zn  Zn0  1  0.18823251  0.81176749  0.25000000  1
  Zn  Zn1  1  0.81176749  0.18823251  0.75000000  1
  Si  Si0  1  0.37146018  0.33014984  0.86190407  1
  Si  Si1  1  0.33014984  0.37146018  0.13809593  1
  Si  Si2  1  0.66985016  0.62853982  0.63809593  1
  Si  Si3  1  0.62853982  0.66985016  0.36190407  1
  O  O0  1  0.54331052  0.45668948  0.25000000  1
  O  O1  1  0.50360899  0.87095636  0.33764475  1
  O  O2  1  0.52477290  0.52477290  0.50000000  1
  O  O3  1  0.87095636  0.50360899  0.66235525  1
  O  O4  1  0.49639101  0.12904364  0.83764475  1
  O  O5  1  0.07516794  0.21818011  0.86843411  1
  O  O6  1  0.92483206  0.78182089  0.36843411  1
  O  O7  1  0.45668948  0.54331052  0.75000000  1
  O  O8  1  0.12904364  0.49639101  0.16235525  1
  O  O9  1  0.21817911  0.07516794  0.13156589  1
  O  O10  1  0.78181989  0.92483206  0.63156589  1
  O  O11  1  0.47522710  0.47522710  0.00000000  1
loop_
_geom_bond_atom_site_label_1
_geom_bond_atom_site_label_2
_geom_bond_distance
_geom_bond_site_symmetry_2
O0 Si3 1.649888 1_555
O0 Si1 1.649888 1_555
O0 Rb2 3.363991 1_555
O0 Rb3 3.363991 1_555
O1 Si3 1.609641 1_555
O1 Zn0 1.970034 1_555
O1 Rb3 2.922513 1_565
O1 Rb0 2.931575 1_555
O1 Rb2 3.030658 1_565
O2 Si3 1.677482 1_555
O2 Si2 1.677482 1_555
O2 Rb0 3.282557 1_545
O2 Rb3 3.282557 1_455
O2 Rb0 3.315754 1_555
O2 Rb3 3.315754 1_555
O3 Si2 1.609641 1_555
O3 Zn1 1.970034 1_555
O3 Rb0 2.922513 1_655
O3 Rb3 2.931575 1_555
O3 Rb1 3.030658 1_655
O4 Si0 1.609641 1_555
O4 Zn1 1.970034 1_555
O4 Rb1 2.922513 1_545
O4 Rb2 2.931575 1_556
O4 Rb0 3.030658 1_545
O5 Si0 1.608537 1_555
O5 Zn1 1.933888 1_455
O5 Rb1 2.943446 1_545
O5 Rb2 2.944964 1_456
O5 Rb1 2.991154 1_555
O6 Si3 1.608537 1_555
O6 Zn0 1.933890 1_655
O6 Rb3 2.943441 1_565
O6 Rb0 2.944963 1_655
O6 Rb3 2.991160 1_555
O7 Si0 1.649888 1_555
O7 Si2 1.649888 1_555
O7 Rb0 3.363991 1_555
O7 Rb1 3.363991 1_555
O8 Si1 1.609641 1_555
O8 Zn0 1.970034 1_555
O8 Rb2 2.922513 1_455
O8 Rb1 2.931575 1_554
O8 Rb3 3.030658 1_455
O9 Si1 1.608537 1_555
O9 Zn0 1.933889 1_545
O9 Rb2 2.943441 1_455
O9 Rb1 2.944963 1_544
O9 Rb2 2.991160 1_555
O10 Si2 1.608536 1_555
O10 Zn1 1.933888 1_565
O10 Rb0 2.943447 1_655
O10 Rb3 2.944964 1_565
O10 Rb0 2.991154 1_555
O11 Si0 1.677482 1_554
O11 Si1 1.677482 1_555
O11 Rb2 3.282557 1_565
O11 Rb1 3.282557 1_654
O11 Rb2 3.315754 1_555
O11 Rb1 3.315754 1_554
