# generated using pymatgen
data_Ta4AlZn6Ga
_symmetry_space_group_name_H-M   'P 1'
_cell_length_a   5.04719940
_cell_length_b   5.04719961
_cell_length_c   8.08308442
_cell_angle_alpha   90.00000000
_cell_angle_beta   90.00000000
_cell_angle_gamma   120.77262449
_symmetry_Int_Tables_number   1
_chemical_formula_structural   Ta4AlZn6Ga
_chemical_formula_sum   'Ta4 Al1 Zn6 Ga1'
_cell_volume   176.91904054
_cell_formula_units_Z   1
loop_
 _symmetry_equiv_pos_site_id
 _symmetry_equiv_pos_as_xyz
  1  'x, y, z'
loop_
 _atom_site_type_symbol
 _atom_site_label
 _atom_site_symmetry_multiplicity
 _atom_site_fract_x
 _atom_site_fract_y
 _atom_site_fract_z
 _atom_site_occupancy
  Ta  Ta0  1  0.33075781  0.66924219  0.43224396  1
  Ta  Ta1  1  0.66989953  0.33010047  0.56701897  1
  Ta  Ta2  1  0.66989953  0.33010047  0.93298103  1
  Ta  Ta3  1  0.33075781  0.66924219  0.06775604  1
  Al  Al0  1  0.82370564  0.17629436  0.25000000  1
  Zn  Zn0  1  0.99889733  0.00110267  0.50004578  1
  Zn  Zn1  1  0.99889733  0.00110267  0.99995422  1
  Zn  Zn2  1  0.82558332  0.66062803  0.25000000  1
  Zn  Zn3  1  0.33937197  0.17441668  0.25000000  1
  Zn  Zn4  1  0.17567455  0.33974104  0.75000000  1
  Zn  Zn5  1  0.66025896  0.82432545  0.75000000  1
  Ga  Ga0  1  0.17629423  0.82370577  0.75000000  1
loop_
_geom_bond_atom_site_label_1
_geom_bond_atom_site_label_2
_geom_bond_distance
_geom_bond_site_symmetry_2
Ta0 Zn2 2.918977 1_555
Ta0 Zn3 2.918977 1_555
Ta0 Zn2 2.925665 1_455
Ta0 Zn3 2.925665 1_565
Ta0 Zn5 2.939957 1_555
Ta0 Zn4 2.939957 1_555
Ta0 Ta3 2.946187 1_555
Ta0 Zn0 2.949244 1_565
Ta0 Zn0 2.949244 1_455
Ta0 Zn0 2.963471 1_465
Ta0 Ta1 3.065939 1_455
Ta0 Ta1 3.065939 1_565
Ta0 Ta1 3.169364 1_555
Ta1 Zn4 2.921720 1_555
Ta1 Zn5 2.921720 1_555
Ta1 Zn4 2.929057 1_655
Ta1 Zn5 2.929058 1_545
Ta1 Zn3 2.936915 1_555
Ta1 Zn2 2.936915 1_555
Ta1 Zn0 2.937544 1_555
Ta1 Ta2 2.958102 1_555
Ta1 Zn0 2.960661 1_455
Ta1 Zn0 2.960661 1_565
Ta2 Zn4 2.921720 1_555
Ta2 Zn5 2.921720 1_555
Ta2 Zn4 2.929057 1_655
Ta2 Zn5 2.929058 1_545
Ta2 Zn3 2.936915 1_556
Ta2 Zn2 2.936915 1_556
Ta2 Zn1 2.937544 1_555
Ta2 Zn1 2.960661 1_455
Ta2 Zn1 2.960661 1_565
Ta2 Ta3 3.065939 1_656
Ta2 Ta3 3.065939 1_546
Ta2 Ta3 3.169364 1_556
Ta3 Zn2 2.918977 1_555
Ta3 Zn3 2.918977 1_555
Ta3 Zn2 2.925665 1_455
Ta3 Zn3 2.925665 1_565
Ta3 Zn5 2.939957 1_554
Ta3 Zn4 2.939957 1_554
Ta3 Zn1 2.949244 1_564
Ta3 Zn1 2.949244 1_454
Ta3 Zn1 2.963471 1_464
Al0 Zn3 2.439693 1_555
Al0 Zn2 2.439694 1_555
Al0 Zn0 2.539444 1_555
Al0 Zn1 2.539444 1_554
Al0 Zn3 2.607532 1_655
Al0 Zn2 2.607532 1_545
Al0 Ta1 2.896249 1_555
Al0 Ta2 2.896249 1_554
Al0 Ta0 2.897279 1_655
Al0 Ta3 2.897279 1_655
Al0 Ta0 2.897279 1_545
Al0 Ta3 2.897279 1_545
Zn0 Zn5 2.497783 1_545
Zn0 Zn4 2.497783 1_655
Zn0 Zn3 2.503012 1_655
Zn0 Zn2 2.503012 1_545
Zn1 Zn5 2.497783 1_545
Zn1 Zn4 2.497783 1_655
Zn1 Zn3 2.503012 1_656
Zn1 Zn2 2.503012 1_546
Zn2 Zn3 2.425292 1_555
Zn2 Zn3 2.562851 1_665
Zn4 Zn5 2.417176 1_555
Zn4 Zn5 2.570967 1_445
Ga0 Zn5 2.441068 1_555
Ga0 Zn4 2.441068 1_555
Ga0 Zn1 2.550621 1_465
Ga0 Zn0 2.550621 1_465
Ga0 Zn5 2.606135 1_455
Ga0 Zn4 2.606135 1_565
Ga0 Ta2 2.900196 1_455
Ga0 Ta1 2.900196 1_455
Ga0 Ta2 2.900196 1_565
Ga0 Ta1 2.900196 1_565
Ga0 Ta3 2.904210 1_556
Ga0 Ta0 2.904210 1_555
