# generated using pymatgen
data_Ca4NiH12Pd
_symmetry_space_group_name_H-M   'P 1'
_cell_length_a   7.09090801
_cell_length_b   7.09090654
_cell_length_c   5.10201918
_cell_angle_alpha   89.86857970
_cell_angle_beta   89.86859387
_cell_angle_gamma   137.86205256
_symmetry_Int_Tables_number   1
_chemical_formula_structural   Ca4NiH12Pd
_chemical_formula_sum   'Ca4 Ni1 H12 Pd1'
_cell_volume   172.11005031
_cell_formula_units_Z   1
loop_
 _symmetry_equiv_pos_site_id
 _symmetry_equiv_pos_as_xyz
  1  'x, y, z'
loop_
 _atom_site_type_symbol
 _atom_site_label
 _atom_site_symmetry_multiplicity
 _atom_site_fract_x
 _atom_site_fract_y
 _atom_site_fract_z
 _atom_site_occupancy
  Ca  Ca0  1  0.14973592  0.85026408  0.50000000  1
  Ca  Ca1  1  0.64826769  0.35173231  0.00000000  1
  Ca  Ca2  1  0.85026408  0.14973592  0.50000000  1
  Ca  Ca3  1  0.35173231  0.64826769  1.00000000  1
  Ni  Ni0  1  0.00000000  0.00000000  0.00000000  1
  H  H0  1  0.99981059  0.49949078  0.75245638  1
  H  H1  1  0.50050922  0.00018941  0.24754362  1
  H  H2  1  0.00018941  0.50050922  0.24754362  1
  H  H3  1  0.49949078  0.99981059  0.75245638  1
  H  H4  1  0.37390714  0.62609286  0.50000000  1
  H  H5  1  0.88440904  0.11559096  1.00000000  1
  H  H6  1  0.62609286  0.37390714  0.50000000  1
  H  H7  1  0.11559096  0.88440904  0.00000000  1
  H  H8  1  0.23664982  0.23664982  0.76344101  1
  H  H9  1  0.76335018  0.76335018  0.23655899  1
  H  H10  1  0.22560024  0.22560024  0.22574090  1
  H  H11  1  0.77439976  0.77439976  0.77425910  1
  Pd  Pd0  1  0.50000000  0.50000000  0.50000000  1
loop_
_geom_bond_atom_site_label_1
_geom_bond_atom_site_label_2
_geom_bond_distance
_geom_bond_site_symmetry_2
Ca0 H0 2.243504 1_455
Ca0 H1 2.243504 1_565
Ca0 H2 2.248309 1_555
Ca0 H3 2.248310 1_555
Ca0 H6 2.568252 1_565
Ca0 H6 2.568252 1_455
Ca0 H7 2.590720 1_555
Ca0 H7 2.590720 1_556
Ca0 H10 2.680842 1_565
Ca0 H11 2.680843 1_455
Ca0 H8 2.685049 1_565
Ca0 H9 2.685049 1_455
Ca1 H1 2.238923 1_555
Ca1 H0 2.238924 1_554
Ca1 H3 2.247564 1_544
Ca1 H2 2.247564 1_655
Ca1 H6 2.567833 1_554
Ca1 H6 2.567833 1_555
Ca1 H7 2.585540 1_655
Ca1 H7 2.585541 1_545
Ca1 H11 2.667018 1_554
Ca1 H10 2.667019 1_555
Ca1 H9 2.670199 1_555
Ca1 H8 2.670200 1_554
Ca2 H2 2.243504 1_655
Ca2 H3 2.243504 1_545
Ca2 H0 2.248309 1_555
Ca2 H1 2.248310 1_555
Ca2 H4 2.568252 1_545
Ca2 H4 2.568252 1_655
Ca2 H5 2.590720 1_555
Ca2 H5 2.590720 1_554
Ca2 H11 2.680842 1_545
Ca2 H10 2.680843 1_655
Ca2 H9 2.685049 1_545
Ca2 H8 2.685049 1_655
Ca3 H3 2.238923 1_555
Ca3 H2 2.238924 1_556
Ca3 H1 2.247564 1_566
Ca3 H0 2.247564 1_455
Ca3 H4 2.567833 1_556
Ca3 H4 2.567833 1_555
Ca3 H5 2.585540 1_455
Ca3 H5 2.585541 1_565
Ca3 H10 2.667018 1_556
Ca3 H11 2.667019 1_555
Ca3 H8 2.670199 1_555
Ca3 H9 2.670200 1_556
H4 Pd0 1.668680 1_555
H5 Ni0 1.529700 1_656
H6 Pd0 1.668680 1_555
H7 Ni0 1.529700 1_565
H8 Ni0 1.701098 1_556
H8 Pd0 1.893717 1_555
H9 Ni0 1.701098 1_665
H9 Pd0 1.893717 1_555
H10 Ni0 1.632873 1_555
H10 Pd0 1.984951 1_555
H11 Ni0 1.632873 1_666
H11 Pd0 1.984951 1_555
