# generated using pymatgen
data_Cs2RbYAs2
_symmetry_space_group_name_H-M   'P 1'
_cell_length_a   9.89710852
_cell_length_b   9.89710859
_cell_length_c   9.89710824
_cell_angle_alpha   130.85380192
_cell_angle_beta   135.95779245
_cell_angle_gamma   68.10177876
_symmetry_Int_Tables_number   1
_chemical_formula_structural   Cs2RbYAs2
_chemical_formula_sum   'Cs4 Rb2 Y2 As4'
_cell_volume   500.96873262
_cell_formula_units_Z   2
loop_
 _symmetry_equiv_pos_site_id
 _symmetry_equiv_pos_as_xyz
  1  'x, y, z'
loop_
 _atom_site_type_symbol
 _atom_site_label
 _atom_site_symmetry_multiplicity
 _atom_site_fract_x
 _atom_site_fract_y
 _atom_site_fract_z
 _atom_site_occupancy
  Cs  Cs0  1  0.68633483  0.44892820  0.76259437  1
  Cs  Cs1  1  0.81366517  0.07625855  0.26259437  1
  Cs  Cs2  1  0.18633483  0.92374145  0.73740563  1
  Cs  Cs3  1  0.31366517  0.55107180  0.23740563  1
  Rb  Rb0  1  0.75000000  0.00000000  0.75000000  1
  Rb  Rb1  1  0.25000000  0.00000000  0.25000000  1
  Y  Y0  1  0.25000000  0.50000000  0.75000000  1
  Y  Y1  1  0.75000000  0.50000000  0.25000000  1
  As  As0  1  0.40787118  0.22034344  0.81247226  1
  As  As1  1  0.59212882  0.77965656  0.18752774  1
  As  As2  1  0.09212882  0.40460208  0.31247226  1
  As  As3  1  0.90787118  0.59539792  0.68752774  1
loop_
_geom_bond_atom_site_label_1
_geom_bond_atom_site_label_2
_geom_bond_distance
_geom_bond_site_symmetry_2
As0 Y1 2.847534 1_556
As0 Y0 2.847534 1_555
As0 Rb1 3.513036 1_555
As0 Rb0 3.513036 1_555
As0 Cs2 3.685426 1_545
As0 Cs3 3.823864 1_556
As0 Cs1 4.040595 1_455
As0 Cs1 4.040602 1_556
As1 Y0 2.847534 1_554
As1 Y1 2.847534 1_555
As1 Rb0 3.513036 1_565
As1 Rb1 3.513036 1_565
As1 Cs1 3.685426 1_565
As1 Cs0 3.823864 1_554
As1 Cs2 4.040595 1_655
As1 Cs2 4.040602 1_554
As2 Y1 2.847534 1_455
As2 Y0 2.847539 1_555
As2 Rb0 3.513040 1_454
As2 Rb1 3.513045 1_555
As2 Cs3 3.685435 1_555
As2 Cs2 3.823863 1_555
As2 Cs0 4.040583 1_454
As2 Cs0 4.040597 1_555
As3 Y0 2.847534 1_655
As3 Y1 2.847539 1_555
As3 Rb1 3.513040 1_666
As3 Rb0 3.513045 1_565
As3 Cs0 3.685435 1_555
As3 Cs1 3.823863 1_555
As3 Cs3 4.040583 1_656
As3 Cs3 4.040597 1_555
