# generated using pymatgen
data_Sc12InNi4Pt
_symmetry_space_group_name_H-M   'P 1'
_cell_length_a   7.76342865
_cell_length_b   7.76359767
_cell_length_c   7.76360431
_cell_angle_alpha   111.49793593
_cell_angle_beta   110.38006260
_cell_angle_gamma   106.57557014
_symmetry_Int_Tables_number   1
_chemical_formula_structural   Sc12InNi4Pt
_chemical_formula_sum   'Sc12 In1 Ni4 Pt1'
_cell_volume   359.49205591
_cell_formula_units_Z   1
loop_
 _symmetry_equiv_pos_site_id
 _symmetry_equiv_pos_as_xyz
  1  'x, y, z'
loop_
 _atom_site_type_symbol
 _atom_site_label
 _atom_site_symmetry_multiplicity
 _atom_site_fract_x
 _atom_site_fract_y
 _atom_site_fract_z
 _atom_site_occupancy
  Sc  Sc0  1  0.42407049  0.22476968  0.19929842  1
  Sc  Sc1  1  0.57592951  0.77523032  0.80070158  1
  Sc  Sc2  1  0.02543640  0.22475201  0.80068693  1
  Sc  Sc3  1  0.97456360  0.77524799  0.19931307  1
  Sc  Sc4  1  0.18410904  0.28413024  0.46822453  1
  Sc  Sc5  1  0.81589096  0.71586976  0.53177547  1
  Sc  Sc6  1  0.18411680  0.71588776  0.89998317  1
  Sc  Sc7  1  0.81588320  0.28411224  0.10001683  1
  Sc  Sc8  1  0.32379437  0.62518308  0.30139137  1
  Sc  Sc9  1  0.67620563  0.37481692  0.69860863  1
  Sc  Sc10  1  0.32379011  0.02239135  0.69860820  1
  Sc  Sc11  1  0.67620989  0.97760865  0.30139180  1
  In  In0  1  0.50000000  0.50000000  0.00000000  1
  Ni  Ni0  1  0.35674763  0.00001685  0.35672257  1
  Ni  Ni1  1  0.64325237  0.99998315  0.64327743  1
  Ni  Ni2  1  0.12547919  0.62545727  0.50001459  1
  Ni  Ni3  1  0.87452081  0.37454273  0.49998541  1
  Pt  Pt0  1  0.00000000  0.00000000  0.00000000  1
loop_
_geom_bond_atom_site_label_1
_geom_bond_atom_site_label_2
_geom_bond_distance
_geom_bond_site_symmetry_2
In0 Sc8 3.100336 1_555
In0 Sc9 3.100336 1_554
In0 Sc11 3.100447 1_555
In0 Sc10 3.100447 1_554
In0 Sc1 3.105988 1_554
In0 Sc0 3.105988 1_555
In0 Sc3 3.106166 1_555
In0 Sc2 3.106166 1_554
In0 Sc6 3.376219 1_554
In0 Sc7 3.376219 1_555
In0 Sc5 3.376304 1_555
In0 Sc4 3.376304 1_554
Ni0 Sc0 2.509808 1_555
Ni0 Sc3 2.509863 1_445
Ni0 Ni1 2.539865 1_545
Ni0 Sc11 2.701708 1_545
Ni0 Sc9 2.701815 1_555
Ni0 Sc8 2.702015 1_545
Ni0 Sc10 2.702073 1_555
Ni0 Sc6 2.916521 1_544
Ni0 Sc4 2.916558 1_555
Ni0 Pt0 3.161921 1_555
Ni1 Sc1 2.509808 1_555
Ni1 Sc2 2.509863 1_665
Ni1 Sc10 2.701708 1_565
Ni1 Sc8 2.701815 1_555
Ni1 Sc9 2.702015 1_565
Ni1 Sc11 2.702073 1_555
Ni1 Sc7 2.916521 1_566
Ni1 Sc5 2.916558 1_555
Ni1 Pt0 3.161921 1_666
Ni2 Ni3 2.329056 1_455
Ni2 Sc8 2.530074 1_555
Ni2 Sc10 2.530080 1_565
Ni2 Sc4 2.752685 1_555
Ni2 Sc6 2.752753 1_555
Ni2 Sc5 2.752931 1_455
Ni2 Sc7 2.752985 1_455
Ni2 Sc1 3.005903 1_555
Ni2 Sc3 3.006203 1_455
Ni3 Sc9 2.530074 1_555
Ni3 Sc11 2.530080 1_545
Ni3 Sc5 2.752685 1_555
Ni3 Sc7 2.752753 1_555
Ni3 Sc4 2.752931 1_655
Ni3 Sc6 2.752985 1_655
Ni3 Sc0 3.005903 1_555
Ni3 Sc2 3.006203 1_655
Pt0 Sc2 2.733713 1_554
Pt0 Sc3 2.733713 1_445
Pt0 Sc0 2.733725 1_555
Pt0 Sc1 2.733725 1_444
Pt0 Sc7 2.971179 1_455
Pt0 Sc6 2.971179 1_544
Pt0 Sc4 2.971203 1_555
Pt0 Sc5 2.971203 1_444
