# generated using pymatgen
data_Zn4H8OsRu
_symmetry_space_group_name_H-M   'P 1'
_cell_length_a   5.13891422
_cell_length_b   5.13891546
_cell_length_c   4.88860970
_cell_angle_alpha   90.00000000
_cell_angle_beta   90.00000000
_cell_angle_gamma   93.63071798
_symmetry_Int_Tables_number   1
_chemical_formula_structural   Zn4H8OsRu
_chemical_formula_sum   'Zn4 H8 Os1 Ru1'
_cell_volume   128.84146902
_cell_formula_units_Z   1
loop_
 _symmetry_equiv_pos_site_id
 _symmetry_equiv_pos_as_xyz
  1  'x, y, z'
loop_
 _atom_site_type_symbol
 _atom_site_label
 _atom_site_symmetry_multiplicity
 _atom_site_fract_x
 _atom_site_fract_y
 _atom_site_fract_z
 _atom_site_occupancy
  Zn  Zn0  1  0.33782231  0.03228092  0.25000000  1
  Zn  Zn1  1  0.03529119  0.33783870  0.75000000  1
  Zn  Zn2  1  0.66216130  0.96470881  0.75000000  1
  Zn  Zn3  1  0.96771908  0.66217769  0.25000000  1
  H  H0  1  0.12543805  0.35038206  0.25000000  1
  H  H1  1  0.35144165  0.12212529  0.75000000  1
  H  H2  1  0.87787471  0.64855835  0.75000000  1
  H  H3  1  0.64961794  0.87456195  0.25000000  1
  H  H4  1  0.67920177  0.32079823  0.04373403  1
  H  H5  1  0.31748273  0.68251727  0.95778964  1
  H  H6  1  0.67920177  0.32079823  0.45626597  1
  H  H7  1  0.31748273  0.68251727  0.54221036  1
  Os  Os0  1  0.85236042  0.14763958  0.25000000  1
  Ru  Ru0  1  0.14690335  0.85309665  0.75000000  1
loop_
_geom_bond_atom_site_label_1
_geom_bond_atom_site_label_2
_geom_bond_distance
_geom_bond_site_symmetry_2
H0 Os0 1.694003 1_455
H0 Zn3 1.840851 1_455
H0 Zn0 2.022226 1_555
H1 Ru0 1.682892 1_545
H1 Zn2 1.835114 1_545
H1 Zn1 2.023981 1_555
H2 Ru0 1.682892 1_655
H2 Zn1 1.835114 1_655
H2 Zn2 2.023981 1_555
H3 Os0 1.694003 1_565
H3 Zn0 1.840851 1_565
H3 Zn3 2.022226 1_555
H4 Os0 1.643387 1_555
H5 Ru0 1.632791 1_555
H6 Os0 1.643387 1_555
H7 Ru0 1.632791 1_555
