# generated using pymatgen
data_K7Rb(HgSe2)4
_symmetry_space_group_name_H-M   'P 1'
_cell_length_a   8.60224419
_cell_length_b   8.20335338
_cell_length_c   10.65810138
_cell_angle_alpha   90.00000000
_cell_angle_beta   90.00000000
_cell_angle_gamma   89.97597919
_symmetry_Int_Tables_number   1
_chemical_formula_structural   K7Rb(HgSe2)4
_chemical_formula_sum   'K7 Rb1 Hg4 Se8'
_cell_volume   752.11282764
_cell_formula_units_Z   1
loop_
 _symmetry_equiv_pos_site_id
 _symmetry_equiv_pos_as_xyz
  1  'x, y, z'
loop_
 _atom_site_type_symbol
 _atom_site_label
 _atom_site_symmetry_multiplicity
 _atom_site_fract_x
 _atom_site_fract_y
 _atom_site_fract_z
 _atom_site_occupancy
  K  K0  1  0.64921379  0.97110104  0.89495195  1
  K  K1  1  0.35078621  0.52889896  0.89495195  1
  K  K2  1  0.50000000  0.25000000  0.36946042  1
  K  K3  1  0.00000000  0.25000000  0.41320457  1
  K  K4  1  0.50000000  0.75000000  0.58857211  1
  K  K5  1  0.14692695  0.03170438  0.10620861  1
  K  K6  1  0.85307305  0.46829562  0.10620861  1
  Rb  Rb0  1  0.00000000  0.75000000  0.62762346  1
  Hg  Hg0  1  0.76506918  0.84058236  0.28881978  1
  Hg  Hg1  1  0.72308656  0.34497113  0.70979884  1
  Hg  Hg2  1  0.23493082  0.65941764  0.28881978  1
  Hg  Hg3  1  0.27691344  0.15502887  0.70979884  1
  Se  Se0  1  0.77503135  0.09299969  0.16595928  1
  Se  Se1  1  0.26831893  0.41654495  0.59993386  1
  Se  Se2  1  0.75445997  0.57682801  0.39575611  1
  Se  Se3  1  0.22496865  0.40700031  0.16595928  1
  Se  Se4  1  0.24554003  0.92317199  0.39575611  1
  Se  Se5  1  0.72018902  0.59217290  0.83914179  1
  Se  Se6  1  0.27981098  0.90782710  0.83914179  1
  Se  Se7  1  0.73168107  0.08345505  0.59993386  1
loop_
_geom_bond_atom_site_label_1
_geom_bond_atom_site_label_2
_geom_bond_distance
_geom_bond_site_symmetry_2
K0 Se5 3.222989 1_555
K0 Se0 3.242724 1_566
K0 Se6 3.274502 1_555
K0 Se7 3.352629 1_565
K1 Se6 3.222989 1_555
K1 Se3 3.242724 1_556
K1 Se5 3.274502 1_555
K1 Se1 3.352629 1_555
K2 Se7 3.445315 1_555
K2 Se1 3.445315 1_555
K2 Se0 3.458021 1_555
K2 Se3 3.458021 1_555
K2 Se2 3.473196 1_555
K2 Se4 3.473196 1_545
K3 Se1 3.340295 1_555
K3 Se7 3.340295 1_455
K3 Se2 3.417517 1_455
K3 Se4 3.417517 1_545
K3 Se3 3.514269 1_555
K3 Se0 3.514269 1_455
K4 Se2 3.321161 1_555
K4 Se4 3.321161 1_555
K4 Se7 3.387311 1_565
K4 Se1 3.387311 1_555
K4 Se5 3.520511 1_555
K4 Se6 3.520511 1_555
K5 Se3 3.215008 1_555
K5 Se6 3.231180 1_544
K5 Se0 3.300229 1_455
K5 Se4 3.321929 1_545
K6 Se0 3.215008 1_555
K6 Se5 3.231180 1_554
K6 Se3 3.300229 1_655
K6 Se2 3.321929 1_555
Rb0 Se6 3.543275 1_555
Rb0 Se5 3.543275 1_455
Rb0 Se4 3.548115 1_555
Rb0 Se2 3.548115 1_455
Rb0 Se7 3.590546 1_465
Rb0 Se1 3.590546 1_555
Hg0 Se2 2.447236 1_555
Hg0 Se0 2.451499 1_565
Hg0 K6 3.699474 1_555
Hg1 Se7 2.445161 1_555
Hg1 Se5 2.452201 1_555
Hg1 K0 3.702176 1_545
Hg2 Se4 2.447236 1_555
Hg2 Se3 2.451499 1_555
Hg2 K5 3.699474 1_565
Hg3 Se1 2.445161 1_555
Hg3 Se6 2.452201 1_545
Hg3 K1 3.702176 1_555
