# generated using pymatgen
data_Sr6TcRuO12
_symmetry_space_group_name_H-M   'P 1'
_cell_length_a   6.06883631
_cell_length_b   5.81385713
_cell_length_c   10.18857239
_cell_angle_alpha   54.81648271
_cell_angle_beta   89.52006895
_cell_angle_gamma   89.97858546
_symmetry_Int_Tables_number   1
_chemical_formula_structural   Sr6TcRuO12
_chemical_formula_sum   'Sr6 Tc1 Ru1 O12'
_cell_volume   293.79784980
_cell_formula_units_Z   1
loop_
 _symmetry_equiv_pos_site_id
 _symmetry_equiv_pos_as_xyz
  1  'x, y, z'
loop_
 _atom_site_type_symbol
 _atom_site_label
 _atom_site_symmetry_multiplicity
 _atom_site_fract_x
 _atom_site_fract_y
 _atom_site_fract_z
 _atom_site_occupancy
  Sr  Sr0  1  0.50000000  0.50000000  0.50000000  1
  Sr  Sr1  1  0.95011076  0.72006313  0.26760209  1
  Sr  Sr2  1  0.44193966  0.25367755  0.26223506  1
  Sr  Sr3  1  0.00000000  0.50000000  0.00000000  1
  Sr  Sr4  1  0.55806034  0.74632245  0.73776494  1
  Sr  Sr5  1  0.04988924  0.27993687  0.73239791  1
  Tc  Tc0  1  0.50000000  0.00000000  0.00000000  1
  Ru  Ru0  1  0.00000000  0.00000000  0.50000000  1
  O  O0  1  0.45891555  0.11282420  0.78811060  1
  O  O1  1  0.24130619  0.77689467  0.06331129  1
  O  O2  1  0.18132745  0.31650125  0.45593380  1
  O  O3  1  0.66689885  0.69134887  0.04502257  1
  O  O4  1  0.73242376  0.23244785  0.44128122  1
  O  O5  1  0.95660998  0.87566764  0.72315458  1
  O  O6  1  0.04339002  0.12433236  0.27684542  1
  O  O7  1  0.26757624  0.76755215  0.55871878  1
  O  O8  1  0.33310115  0.30865113  0.95497743  1
  O  O9  1  0.81867255  0.68349875  0.54406620  1
  O  O10  1  0.75869381  0.22310533  0.93668871  1
  O  O11  1  0.54108445  0.88717580  0.21188940  1
loop_
_geom_bond_atom_site_label_1
_geom_bond_atom_site_label_2
_geom_bond_distance
_geom_bond_site_symmetry_2
O0 Tc0 1.878849 1_556
O0 Sr0 2.473753 1_555
O0 Sr4 2.533543 1_545
O0 Sr5 2.610421 1_555
O1 Tc0 1.893073 1_565
O1 Sr3 2.523192 1_555
O1 Sr1 2.590534 1_455
O1 Sr2 2.788790 1_555
O1 Sr5 3.157542 1_564
O2 Ru0 1.959512 1_555
O2 Sr0 2.376556 1_555
O2 Sr1 2.451596 1_455
O2 Sr2 2.703259 1_555
O2 Sr5 2.808583 1_555
O3 Tc0 1.874634 1_565
O3 Sr3 2.470929 1_655
O3 Sr2 2.588219 1_555
O3 Sr1 2.937105 1_555
O3 Sr4 3.036452 1_554
O4 Ru0 1.975891 1_655
O4 Sr0 2.413254 1_555
O4 Sr2 2.499018 1_555
O4 Sr1 2.663838 1_555
O4 Sr4 2.888361 1_545
O5 Ru0 1.964025 1_665
O5 Sr3 2.389205 1_656
O5 Sr5 2.471945 1_665
O5 Sr4 2.510826 1_555
O6 Ru0 1.964025 1_555
O6 Sr3 2.389205 1_555
O6 Sr1 2.471945 1_445
O6 Sr2 2.510826 1_555
O7 Ru0 1.975891 1_565
O7 Sr0 2.413254 1_555
O7 Sr4 2.499018 1_555
O7 Sr5 2.663838 1_555
O7 Sr2 2.888361 1_565
O8 Tc0 1.874634 1_556
O8 Sr3 2.470929 1_556
O8 Sr4 2.588219 1_555
O8 Sr5 2.937105 1_555
O8 Sr2 3.036452 1_556
O9 Ru0 1.959512 1_665
O9 Sr0 2.376556 1_555
O9 Sr5 2.451596 1_655
O9 Sr4 2.703259 1_555
O9 Sr1 2.808583 1_555
O10 Tc0 1.893073 1_556
O10 Sr3 2.523192 1_656
O10 Sr5 2.590534 1_655
O10 Sr4 2.788790 1_555
O10 Sr1 3.157542 1_546
O11 Tc0 1.878849 1_565
O11 Sr0 2.473753 1_555
O11 Sr2 2.533543 1_565
O11 Sr1 2.610421 1_555
