# generated using pymatgen
data_HfPdPt7
_symmetry_space_group_name_H-M   'P 1'
_cell_length_a   6.24367641
_cell_length_b   6.24367643
_cell_length_c   6.31416992
_cell_angle_alpha   95.68333835
_cell_angle_beta   95.68333040
_cell_angle_gamma   143.10177788
_symmetry_Int_Tables_number   1
_chemical_formula_structural   HfPdPt7
_chemical_formula_sum   'Hf1 Pd1 Pt7'
_cell_volume   140.36401652
_cell_formula_units_Z   1
loop_
 _symmetry_equiv_pos_site_id
 _symmetry_equiv_pos_as_xyz
  1  'x, y, z'
loop_
 _atom_site_type_symbol
 _atom_site_label
 _atom_site_symmetry_multiplicity
 _atom_site_fract_x
 _atom_site_fract_y
 _atom_site_fract_z
 _atom_site_occupancy
  Hf  Hf0  1  0.99964235  0.00035765  0.00000000  1
  Pd  Pd0  1  0.66547160  0.33452640  0.00000000  1
  Pt  Pt0  1  0.33471593  0.66528207  1.00000000  1
  Pt  Pt1  1  0.66443732  0.66343517  0.32787449  1
  Pt  Pt2  1  0.33106032  0.00030203  0.33136235  1
  Pt  Pt3  1  0.00006886  0.33166116  0.33172902  1
  Pt  Pt4  1  0.66833884  0.99993114  0.66827098  1
  Pt  Pt5  1  0.99969797  0.66893968  0.66863765  1
  Pt  Pt6  1  0.33656383  0.33556168  0.67212651  1
loop_
_geom_bond_atom_site_label_1
_geom_bond_atom_site_label_2
_geom_bond_distance
_geom_bond_site_symmetry_2
Hf0 Pt0 2.778634 1_654
Hf0 Pt0 2.778640 1_544
Hf0 Pd0 2.786180 1_655
Hf0 Pd0 2.786186 1_545
Hf0 Pt6 2.787555 1_654
Hf0 Pt6 2.787557 1_544
Hf0 Pt1 2.787557 1_655
Hf0 Pt1 2.787563 1_545
Hf0 Pt3 2.792520 1_655
Hf0 Pt4 2.792520 1_544
Hf0 Pt5 2.793436 1_544
Hf0 Pt2 2.793436 1_655
Pd0 Pt6 2.772193 1_554
Pd0 Pt1 2.772198 1_555
Pd0 Pt5 2.802332 1_444
Pd0 Pt2 2.802333 1_555
Pd0 Pt2 2.802338 1_665
Pd0 Pt5 2.802338 1_554
Pd0 Pt0 2.814842 1_654
Pd0 Pt0 2.814842 1_544
Pd0 Pt4 2.820029 1_544
Pd0 Pt3 2.820029 1_655
Pt0 Pt6 2.778987 1_555
Pt0 Pt1 2.778992 1_556
Pt0 Pt3 2.803898 1_556
Pt0 Pt4 2.803900 1_445
Pt0 Pt4 2.803903 1_555
Pt0 Pt3 2.803906 1_666
Pt0 Pt2 2.823578 1_566
Pt0 Pt5 2.823578 1_455
Pt1 Pt2 2.778318 1_555
Pt1 Pt2 2.778324 1_665
Pt1 Pt3 2.790177 1_555
Pt1 Pt3 2.790186 1_665
Pt1 Pt5 2.826781 1_555
Pt1 Pt4 2.836839 1_555
Pt1 Pt6 2.857669 1_555
Pt1 Pt6 2.857671 1_665
Pt2 Pt3 2.811303 1_545
Pt2 Pt3 2.811306 1_655
Pt2 Pt6 2.826785 1_555
Pt2 Pt5 2.827591 1_555
Pt2 Pt5 2.827592 1_445
Pt2 Pt4 2.842806 1_545
Pt3 Pt4 2.824444 1_555
Pt3 Pt4 2.824450 1_445
Pt3 Pt6 2.836844 1_555
Pt3 Pt5 2.842806 1_455
Pt4 Pt6 2.790182 1_665
Pt4 Pt6 2.790182 1_555
Pt4 Pt5 2.811303 1_455
Pt4 Pt5 2.811306 1_565
Pt5 Pt6 2.778320 1_665
Pt5 Pt6 2.778323 1_555
