# generated using pymatgen
data_BaSn3Pt
_symmetry_space_group_name_H-M   'P 1'
_cell_length_a   4.93364896
_cell_length_b   4.93364903
_cell_length_c   6.60881991
_cell_angle_alpha   111.97083013
_cell_angle_beta   111.97083750
_cell_angle_gamma   89.97635850
_symmetry_Int_Tables_number   1
_chemical_formula_structural   BaSn3Pt
_chemical_formula_sum   'Ba1 Sn3 Pt1'
_cell_volume   136.51347261
_cell_formula_units_Z   1
loop_
 _symmetry_equiv_pos_site_id
 _symmetry_equiv_pos_as_xyz
  1  'x, y, z'
loop_
 _atom_site_type_symbol
 _atom_site_label
 _atom_site_symmetry_multiplicity
 _atom_site_fract_x
 _atom_site_fract_y
 _atom_site_fract_z
 _atom_site_occupancy
  Ba  Ba0  1  0.00160499  0.00160499  0.00319497  1
  Sn  Sn0  1  0.75282643  0.25286142  0.50569775  1
  Sn  Sn1  1  0.25286142  0.75282643  0.50569775  1
  Sn  Sn2  1  0.41779245  0.41779245  0.83505322  1
  Pt  Pt0  1  0.65401571  0.65401571  0.30855530  1
loop_
_geom_bond_atom_site_label_1
_geom_bond_atom_site_label_2
_geom_bond_distance
_geom_bond_site_symmetry_2
Ba0 Sn2 3.611687 1_444
Ba0 Sn2 3.613128 1_454
Ba0 Sn2 3.613128 1_544
Ba0 Sn2 3.617346 1_554
Ba0 Sn1 3.722698 1_444
Ba0 Sn0 3.722698 1_444
Ba0 Sn0 3.725858 1_454
Ba0 Sn1 3.725858 1_544
Ba0 Sn0 3.743688 1_555
Ba0 Sn1 3.743688 1_555
Ba0 Sn1 3.747024 1_545
Ba0 Sn0 3.747024 1_455
Ba0 Pt0 3.883427 1_555
Ba0 Pt0 3.885663 1_545
Ba0 Pt0 3.885664 1_455
Ba0 Pt0 3.890481 1_445
Ba0 Pt0 3.895819 1_444
Sn0 Sn2 3.081643 1_655
Sn0 Sn2 3.081867 1_555
Sn1 Sn2 3.081643 1_565
Sn1 Sn2 3.081867 1_555
Pt0 Sn2 2.655598 1_554
Pt0 Sn0 2.702892 1_555
Pt0 Sn1 2.702892 1_555
Pt0 Sn1 2.703657 1_655
Pt0 Sn0 2.703657 1_565
