# generated using pymatgen
data_Nb10ZnGaAs4
_symmetry_space_group_name_H-M   'P 1'
_cell_length_a   7.63843682
_cell_length_b   7.63842505
_cell_length_c   7.63853799
_cell_angle_alpha   96.58416494
_cell_angle_beta   96.58397659
_cell_angle_gamma   140.42153856
_symmetry_Int_Tables_number   1
_chemical_formula_structural   Nb10ZnGaAs4
_chemical_formula_sum   'Nb10 Zn1 Ga1 As4'
_cell_volume   267.17460241
_cell_formula_units_Z   1
loop_
 _symmetry_equiv_pos_site_id
 _symmetry_equiv_pos_as_xyz
  1  'x, y, z'
loop_
 _atom_site_type_symbol
 _atom_site_label
 _atom_site_symmetry_multiplicity
 _atom_site_fract_x
 _atom_site_fract_y
 _atom_site_fract_z
 _atom_site_occupancy
  Nb  Nb0  1  0.25000903  0.75004713  0.50000608  1
  Nb  Nb1  1  0.74996542  0.25000215  0.49999266  1
  Nb  Nb2  1  0.77591242  0.92366768  0.70087376  1
  Nb  Nb3  1  0.92360591  0.22264583  0.14775472  1
  Nb  Nb4  1  0.07466310  0.77561478  0.85224489  1
  Nb  Nb5  1  0.22233352  0.07456540  0.29911397  1
  Nb  Nb6  1  0.57631999  0.72408302  0.29912341  1
  Nb  Nb7  1  0.42543625  0.27765552  0.70088791  1
  Nb  Nb8  1  0.27735544  0.57639882  0.85225736  1
  Nb  Nb9  1  0.72437820  0.42532651  0.14774708  1
  Zn  Zn0  1  0.74995235  0.75004176  0.99999987  1
  Ga  Ga0  1  0.25004750  0.24994536  0.99999789  1
  As  As0  1  0.33357421  0.83357879  0.16727212  1
  As  As1  1  0.83361765  0.66636149  0.49999046  1
  As  As2  1  0.16638551  0.33363290  0.50000826  1
  As  As3  1  0.66644348  0.16643285  0.83272955  1
loop_
_geom_bond_atom_site_label_1
_geom_bond_atom_site_label_2
_geom_bond_distance
_geom_bond_site_symmetry_2
Nb0 Nb1 2.585881 1_565
Nb0 Nb1 2.586270 1_455
Nb2 Zn0 2.722561 1_555
Nb3 Zn0 2.721402 1_544
Nb4 Zn0 2.722024 1_455
Nb5 Zn0 2.721655 1_444
Nb6 Zn0 2.722569 1_554
Nb7 Zn0 2.721671 1_555
Nb8 Zn0 2.721389 1_555
Nb9 Zn0 2.722019 1_554
Ga0 Zn0 2.586074 1_555
Ga0 Zn0 2.586078 1_445
Ga0 Nb4 2.725620 1_545
Ga0 Nb9 2.725639 1_556
Ga0 Nb2 2.726001 1_445
Ga0 Nb6 2.726019 1_556
Ga0 Nb8 2.726277 1_555
Ga0 Nb3 2.726299 1_456
Ga0 Nb7 2.726799 1_555
Ga0 Nb5 2.726802 1_556
As0 Nb8 2.685548 1_554
As0 Nb4 2.685575 1_554
As0 Nb5 2.703106 1_565
As0 Nb6 2.703227 1_555
As0 Nb1 2.718487 1_565
As0 Nb0 2.718527 1_555
As0 Nb9 2.960662 1_455
As0 Nb3 2.962324 1_565
As0 Nb3 2.968530 1_455
As0 Nb9 2.970053 1_565
As1 Nb6 2.685247 1_555
As1 Nb2 2.685257 1_555
As1 Nb9 2.703039 1_555
As1 Nb4 2.703110 1_655
As1 Nb1 2.718499 1_555
As1 Nb0 2.718555 1_655
As1 Nb5 2.960273 1_665
As1 Nb7 2.960317 1_555
As1 Nb5 2.969907 1_555
As1 Nb7 2.970001 1_665
As2 Nb5 2.685328 1_555
As2 Nb7 2.685354 1_555
As2 Nb8 2.703076 1_555
As2 Nb3 2.703102 1_455
As2 Nb1 2.719051 1_455
As2 Nb0 2.719060 1_555
As2 Nb2 2.961958 1_555
As2 Nb6 2.962099 1_445
As2 Nb6 2.968135 1_555
As2 Nb2 2.968147 1_445
As3 Nb9 2.685556 1_556
As3 Nb3 2.685572 1_556
As3 Nb7 2.703127 1_555
As3 Nb2 2.703183 1_545
As3 Nb0 2.718509 1_545
As3 Nb1 2.718542 1_555
As3 Nb4 2.960634 1_655
As3 Nb8 2.962333 1_545
As3 Nb8 2.968399 1_655
As3 Nb4 2.970204 1_545
