# generated using pymatgen
data_Rb2Cu(HgCl4)2
_symmetry_space_group_name_H-M   'P 1'
_cell_length_a   6.73456311
_cell_length_b   6.73456301
_cell_length_c   9.67766621
_cell_angle_alpha   73.77835290
_cell_angle_beta   73.77835083
_cell_angle_gamma   61.59717160
_symmetry_Int_Tables_number   1
_chemical_formula_structural   Rb2Cu(HgCl4)2
_chemical_formula_sum   'Rb2 Cu1 Hg2 Cl8'
_cell_volume   365.10047355
_cell_formula_units_Z   1
loop_
 _symmetry_equiv_pos_site_id
 _symmetry_equiv_pos_as_xyz
  1  'x, y, z'
loop_
 _atom_site_type_symbol
 _atom_site_label
 _atom_site_symmetry_multiplicity
 _atom_site_fract_x
 _atom_site_fract_y
 _atom_site_fract_z
 _atom_site_occupancy
  Rb  Rb0  1  0.60096366  0.60096366  0.17195934  1
  Rb  Rb1  1  0.39903634  0.39903634  0.82804066  1
  Cu  Cu0  1  0.00000000  0.00000000  0.00000000  1
  Hg  Hg0  1  0.13472825  0.13472825  0.60613772  1
  Hg  Hg1  1  0.86527175  0.86527175  0.39386228  1
  Cl  Cl0  1  0.91999133  0.91999133  0.69883006  1
  Cl  Cl1  1  0.89865226  0.36388430  0.87116652  1
  Cl  Cl2  1  0.34754884  0.34754884  0.49622031  1
  Cl  Cl3  1  0.63611570  0.10134774  0.12883348  1
  Cl  Cl4  1  0.65245116  0.65245116  0.50377969  1
  Cl  Cl5  1  0.36388430  0.89865226  0.87116652  1
  Cl  Cl6  1  0.10134774  0.63611570  0.12883348  1
  Cl  Cl7  1  0.08000867  0.08000867  0.30116994  1
loop_
_geom_bond_atom_site_label_1
_geom_bond_atom_site_label_2
_geom_bond_distance
_geom_bond_site_symmetry_2
Cl0 Hg0 2.351054 1_665
Cl0 Rb1 3.649056 1_565
Cl0 Rb1 3.649056 1_655
Cl1 Cu0 2.281002 1_656
Cl1 Hg0 3.014447 1_655
Cl1 Rb0 3.366483 1_556
Cl1 Rb1 3.391783 1_655
Cl1 Rb1 3.394556 1_555
Cl2 Hg0 2.343204 1_555
Cl2 Rb1 3.451258 1_555
Cl2 Rb0 3.529772 1_555
Cl3 Cu0 2.281002 1_655
Cl3 Hg1 3.014447 1_545
Cl3 Rb1 3.366483 1_554
Cl3 Rb0 3.391782 1_545
Cl3 Rb0 3.394556 1_555
Cl4 Hg1 2.343204 1_555
Cl4 Rb0 3.451258 1_555
Cl4 Rb1 3.529772 1_555
Cl5 Cu0 2.281002 1_566
Cl5 Hg0 3.014447 1_565
Cl5 Rb0 3.366483 1_556
Cl5 Rb1 3.391782 1_565
Cl5 Rb1 3.394556 1_555
Cl6 Cu0 2.281002 1_565
Cl6 Hg1 3.014447 1_455
Cl6 Rb1 3.366483 1_554
Cl6 Rb0 3.391783 1_455
Cl6 Rb0 3.394556 1_555
Cl7 Hg1 2.351054 1_445
Cl7 Rb0 3.649056 1_545
Cl7 Rb0 3.649056 1_455
