# generated using pymatgen
data_Sc6Co15Si7Ni
_symmetry_space_group_name_H-M   'P 1'
_cell_length_a   8.00704298
_cell_length_b   8.00704248
_cell_length_c   8.00704275
_cell_angle_alpha   60.03758698
_cell_angle_beta   60.03758790
_cell_angle_gamma   60.03758622
_symmetry_Int_Tables_number   1
_chemical_formula_structural   Sc6Co15Si7Ni
_chemical_formula_sum   'Sc6 Co15 Si7 Ni1'
_cell_volume   363.30493588
_cell_formula_units_Z   1
loop_
 _symmetry_equiv_pos_site_id
 _symmetry_equiv_pos_as_xyz
  1  'x, y, z'
loop_
 _atom_site_type_symbol
 _atom_site_label
 _atom_site_symmetry_multiplicity
 _atom_site_fract_x
 _atom_site_fract_y
 _atom_site_fract_z
 _atom_site_occupancy
  Sc  Sc0  1  0.71415349  0.71415349  0.28579826  1
  Sc  Sc1  1  0.28429097  0.71766979  0.28429097  1
  Sc  Sc2  1  0.71766979  0.28429097  0.28429097  1
  Sc  Sc3  1  0.28429097  0.28429097  0.71766979  1
  Sc  Sc4  1  0.71415349  0.28579826  0.71415349  1
  Sc  Sc5  1  0.28579826  0.71415349  0.71415349  1
  Co  Co0  1  0.87946347  0.87946347  0.36167071  1
  Co  Co1  1  0.87946347  0.36167071  0.87946347  1
  Co  Co2  1  0.36167071  0.87946347  0.87946347  1
  Co  Co3  1  0.87966561  0.87966561  0.87966561  1
  Co  Co4  1  0.12010642  0.12010642  0.63730038  1
  Co  Co5  1  0.12010642  0.63730038  0.12010642  1
  Co  Co6  1  0.63730038  0.12010642  0.12010642  1
  Co  Co7  1  0.12077303  0.12077303  0.12077303  1
  Co  Co8  1  0.67299859  0.67299859  0.97976841  1
  Co  Co9  1  0.67299859  0.97976841  0.67299859  1
  Co  Co10  1  0.97976841  0.67299859  0.67299859  1
  Co  Co11  1  0.67316591  0.67316591  0.67316591  1
  Co  Co12  1  0.32630862  0.32630862  0.02165583  1
  Co  Co13  1  0.32630862  0.02165583  0.32630862  1
  Co  Co14  1  0.02165583  0.32630862  0.32630862  1
  Si  Si0  1  0.00011317  0.00011317  0.00011317  1
  Si  Si1  1  0.99944900  0.99944900  0.50080779  1
  Si  Si2  1  0.50063984  0.99830747  0.50063984  1
  Si  Si3  1  0.99830747  0.50063984  0.50063984  1
  Si  Si4  1  0.50063984  0.50063984  0.99830747  1
  Si  Si5  1  0.99944900  0.50080779  0.99944900  1
  Si  Si6  1  0.50080779  0.99944900  0.99944900  1
  Ni  Ni0  1  0.32847887  0.32847887  0.32847887  1
loop_
_geom_bond_atom_site_label_1
_geom_bond_atom_site_label_2
_geom_bond_distance
_geom_bond_site_symmetry_2
Sc0 Si2 2.853990 1_555
Sc0 Si3 2.853990 1_555
Sc0 Si5 2.859412 1_554
Sc0 Si6 2.859412 1_554
Sc1 Si1 2.848755 1_455
Sc1 Si6 2.848756 1_554
Sc1 Si4 2.875734 1_554
Sc1 Si3 2.875734 1_455
Sc2 Si1 2.848756 1_545
Sc2 Si5 2.848756 1_554
Sc2 Si2 2.875734 1_545
Sc2 Si4 2.875734 1_554
Sc3 Si5 2.848756 1_455
Sc3 Si6 2.848756 1_545
Sc3 Si2 2.875734 1_545
Sc3 Si3 2.875734 1_455
Sc4 Si4 2.853990 1_555
Sc4 Si3 2.853990 1_555
Sc4 Si1 2.859412 1_545
Sc4 Si6 2.859412 1_545
Sc5 Si2 2.853990 1_555
Sc5 Si4 2.853990 1_555
Sc5 Si1 2.859412 1_455
Sc5 Si5 2.859412 1_455
Co0 Si0 2.364884 1_665
Co0 Si1 2.479383 1_555
Co0 Si3 2.479416 1_555
Co0 Si2 2.479416 1_555
Co0 Co10 2.479793 1_555
Co0 Co9 2.479793 1_555
Co0 Co11 2.484527 1_555
Co0 Sc2 2.677772 1_565
Co0 Sc1 2.677773 1_655
Co0 Sc0 2.688795 1_555
Co0 Co7 2.733285 1_665
Co0 Co5 2.739573 1_655
Co0 Co6 2.739573 1_565
Co1 Si0 2.364884 1_656
Co1 Si5 2.479383 1_555
Co1 Si3 2.479416 1_555
Co1 Si4 2.479416 1_555
Co1 Co8 2.479792 1_555
Co1 Co10 2.479793 1_555
Co1 Co11 2.484527 1_555
Co1 Sc2 2.677772 1_556
Co1 Sc3 2.677773 1_655
Co1 Sc4 2.688795 1_555
Co1 Co7 2.733285 1_656
Co1 Co4 2.739573 1_655
Co1 Co6 2.739573 1_556
Co2 Si0 2.364884 1_566
Co2 Si6 2.479383 1_555
Co2 Si4 2.479416 1_555
Co2 Si2 2.479416 1_555
Co2 Co8 2.479793 1_555
Co2 Co9 2.479793 1_555
Co2 Sc3 2.677772 1_565
Co2 Sc1 2.677772 1_556
Co2 Sc5 2.688795 1_555
Co2 Co7 2.733285 1_566
Co2 Co4 2.739573 1_565
Co2 Co5 2.739573 1_556
Co3 Si0 2.361687 1_666
Co3 Si5 2.479632 1_555
Co3 Si1 2.479632 1_555
Co3 Si6 2.479632 1_555
Co3 Co8 2.490910 1_555
Co3 Co9 2.490910 1_555
Co3 Sc4 2.689322 1_565
Co3 Sc0 2.689323 1_556
Co3 Sc5 2.689323 1_655
Co3 Co6 2.723501 1_566
Co3 Co5 2.723501 1_656
Co3 Co4 2.723501 1_665
Co4 Si0 2.373122 1_556
Co4 Si1 2.470385 1_445
Co4 Si3 2.489949 1_455
Co4 Si2 2.489949 1_545
Co4 Ni0 2.494102 1_555
Co4 Sc5 2.685972 1_545
Co4 Sc4 2.685972 1_455
Co4 Sc3 2.699444 1_555
Co5 Si0 2.373121 1_565
Co5 Si5 2.470385 1_454
Co5 Si3 2.489949 1_455
Co5 Si4 2.489949 1_554
Co5 Ni0 2.494102 1_555
Co5 Sc5 2.685972 1_554
Co5 Sc0 2.685972 1_455
Co5 Sc1 2.699444 1_555
Co6 Si0 2.373122 1_655
Co6 Si6 2.470385 1_544
Co6 Si4 2.489949 1_554
Co6 Si2 2.489949 1_545
Co6 Ni0 2.494102 1_555
Co6 Sc0 2.685972 1_545
Co6 Sc4 2.685972 1_554
Co6 Sc2 2.699444 1_555
Co7 Si0 2.365850 1_555
Co7 Si5 2.486807 1_454
Co7 Si1 2.486807 1_445
Co7 Si6 2.486807 1_544
Co7 Sc1 2.667641 1_545
Co7 Sc3 2.667641 1_554
Co7 Sc2 2.667641 1_455
Co8 Si4 2.307488 1_555
Co8 Si6 2.313626 1_555
Co8 Si5 2.313626 1_555
Co8 Co9 2.457714 1_555
Co8 Sc2 2.817649 1_556
Co8 Sc1 2.817649 1_556
Co8 Sc0 2.818367 1_556
Co9 Si2 2.307489 1_555
Co9 Si6 2.313626 1_555
Co9 Si1 2.313626 1_555
Co9 Sc2 2.817649 1_565
Co9 Sc3 2.817649 1_565
Co9 Sc4 2.818367 1_565
Co10 Si3 2.307488 1_555
Co10 Si1 2.313626 1_555
Co10 Si5 2.313626 1_555
Co10 Co11 2.453642 1_555
Co10 Co9 2.457714 1_555
Co10 Co8 2.457714 1_555
Co10 Co3 2.490910 1_555
Co10 Sc3 2.817649 1_655
Co10 Sc1 2.817649 1_655
Co10 Sc5 2.818367 1_655
Co11 Si2 2.305634 1_555
Co11 Si3 2.305634 1_555
Co11 Si4 2.305634 1_555
Co11 Co9 2.453642 1_555
Co11 Co8 2.453642 1_555
Co11 Co2 2.484527 1_555
Co11 Sc4 2.812436 1_555
Co11 Sc0 2.812436 1_555
Co11 Sc5 2.812437 1_555
Co12 Si4 2.314483 1_554
Co12 Si6 2.323257 1_544
Co12 Si5 2.323257 1_454
Co12 Co13 2.440754 1_555
Co12 Co14 2.440754 1_555
Co12 Co5 2.470251 1_555
Co12 Co6 2.470251 1_555
Co12 Ni0 2.474225 1_555
Co12 Co7 2.478473 1_555
Co12 Sc3 2.810671 1_554
Co12 Sc5 2.822341 1_554
Co12 Sc4 2.822341 1_554
Co13 Si2 2.314483 1_545
Co13 Si6 2.323257 1_544
Co13 Si1 2.323257 1_445
Co13 Co14 2.440754 1_555
Co13 Co4 2.470251 1_555
Co13 Co6 2.470251 1_555
Co13 Ni0 2.474225 1_555
Co13 Co7 2.478473 1_555
Co13 Sc1 2.810671 1_545
Co13 Sc5 2.822341 1_545
Co13 Sc0 2.822341 1_545
Co14 Si3 2.314482 1_455
Co14 Si1 2.323257 1_445
Co14 Si5 2.323257 1_454
Co14 Co5 2.470251 1_555
Co14 Co4 2.470251 1_555
Co14 Ni0 2.474225 1_555
Co14 Co7 2.478473 1_555
Co14 Sc2 2.810671 1_455
Co14 Sc0 2.822341 1_455
Co14 Sc4 2.822341 1_455
Ni0 Si2 2.325375 1_545
Ni0 Si4 2.325376 1_554
Ni0 Si3 2.325376 1_455
Ni0 Sc1 2.807825 1_555
Ni0 Sc3 2.807826 1_555
Ni0 Sc2 2.807826 1_555
