# generated using pymatgen
data_Ti8CrSiBi4
_symmetry_space_group_name_H-M   'P 1'
_cell_length_a   7.87149699
_cell_length_b   7.87149700
_cell_length_c   7.87149725
_cell_angle_alpha   95.80281735
_cell_angle_beta   95.80281123
_cell_angle_gamma   142.91953239
_symmetry_Int_Tables_number   1
_chemical_formula_structural   Ti8CrSiBi4
_chemical_formula_sum   'Ti8 Cr1 Si1 Bi4'
_cell_volume   278.80318487
_cell_formula_units_Z   1
loop_
 _symmetry_equiv_pos_site_id
 _symmetry_equiv_pos_as_xyz
  1  'x, y, z'
loop_
 _atom_site_type_symbol
 _atom_site_label
 _atom_site_symmetry_multiplicity
 _atom_site_fract_x
 _atom_site_fract_y
 _atom_site_fract_z
 _atom_site_occupancy
  Ti  Ti0  1  0.07807204  0.19342266  0.27763166  1
  Ti  Ti1  1  0.91579100  0.80044038  0.72236834  1
  Ti  Ti2  1  0.80044038  0.07807204  0.88464838  1
  Ti  Ti3  1  0.42192796  0.69955962  0.11535162  1
  Ti  Ti4  1  0.19342266  0.91579100  0.11535162  1
  Ti  Ti5  1  0.58420900  0.30657734  0.88464838  1
  Ti  Ti6  1  0.69955962  0.58420900  0.27763166  1
  Ti  Ti7  1  0.30657734  0.42192796  0.72236834  1
  Cr  Cr0  1  0.75000000  0.75000000  0.00000000  1
  Si  Si0  1  0.25000000  0.25000000  0.00000000  1
  Bi  Bi0  1  0.14085336  0.64085336  0.78170673  1
  Bi  Bi1  1  0.85914664  0.35914664  0.21829327  1
  Bi  Bi2  1  0.35914664  0.14085336  0.50000000  1
  Bi  Bi3  1  0.64085336  0.85914664  0.50000000  1
loop_
_geom_bond_atom_site_label_1
_geom_bond_atom_site_label_2
_geom_bond_distance
_geom_bond_site_symmetry_2
Cr0 Si0 2.502904 1_555
Cr0 Si0 2.502904 1_665
Cr0 Ti1 2.561641 1_554
Cr0 Ti6 2.561641 1_555
Cr0 Ti0 2.561642 1_665
Cr0 Ti7 2.561642 1_554
Cr0 Ti5 2.561643 1_554
Cr0 Ti4 2.561643 1_655
Cr0 Ti3 2.561645 1_555
Cr0 Ti2 2.561645 1_564
Si0 Ti0 2.576605 1_555
Si0 Ti7 2.576606 1_554
Si0 Ti1 2.576606 1_444
Si0 Ti6 2.576606 1_555
Si0 Ti3 2.576607 1_555
Si0 Ti2 2.576607 1_454
Si0 Ti5 2.576609 1_554
Si0 Ti4 2.576609 1_545
Bi0 Ti7 2.904625 1_555
Bi0 Ti1 2.904625 1_455
Bi0 Ti4 2.992371 1_556
Bi0 Ti3 2.992371 1_556
Bi0 Ti5 3.087411 1_455
Bi0 Ti2 3.087415 1_565
Bi0 Ti2 3.112215 1_455
Bi0 Ti5 3.112220 1_565
Bi1 Ti6 2.904625 1_555
Bi1 Ti0 2.904625 1_655
Bi1 Ti2 2.992371 1_554
Bi1 Ti5 2.992371 1_554
Bi1 Ti4 3.087411 1_655
Bi1 Ti3 3.087415 1_545
Bi1 Ti3 3.112215 1_655
Bi1 Ti4 3.112220 1_545
Bi2 Ti4 2.904618 1_545
Bi2 Ti5 2.904618 1_555
Bi2 Ti7 2.992364 1_555
Bi2 Ti0 2.992365 1_555
Bi2 Ti1 3.087415 1_555
Bi2 Ti6 3.087415 1_445
Bi2 Ti1 3.112219 1_445
Bi2 Ti6 3.112219 1_555
Bi3 Ti2 2.904618 1_565
Bi3 Ti3 2.904618 1_555
Bi3 Ti6 2.992364 1_555
Bi3 Ti1 2.992365 1_555
Bi3 Ti0 3.087414 1_665
Bi3 Ti7 3.087414 1_555
Bi3 Ti0 3.112220 1_555
Bi3 Ti7 3.112220 1_665
