# generated using pymatgen
data_Rb3NbS4
_symmetry_space_group_name_H-M   'P 1'
_cell_length_a   9.65318335
_cell_length_b   9.77799585
_cell_length_c   11.13389160
_cell_angle_alpha   90.00000000
_cell_angle_beta   90.00000000
_cell_angle_gamma   90.00000000
_symmetry_Int_Tables_number   1
_chemical_formula_structural   Rb3NbS4
_chemical_formula_sum   'Rb12 Nb4 S16'
_cell_volume   1050.91451977
_cell_formula_units_Z   4
loop_
 _symmetry_equiv_pos_site_id
 _symmetry_equiv_pos_as_xyz
  1  'x, y, z'
loop_
 _atom_site_type_symbol
 _atom_site_label
 _atom_site_symmetry_multiplicity
 _atom_site_fract_x
 _atom_site_fract_y
 _atom_site_fract_z
 _atom_site_occupancy
  Rb  Rb0  1  0.05428668  0.28935341  0.54300592  1
  Rb  Rb1  1  0.86000240  0.92092636  0.75000000  1
  Rb  Rb2  1  0.13999760  0.07907364  0.25000000  1
  Rb  Rb3  1  0.63999760  0.42092636  0.25000000  1
  Rb  Rb4  1  0.94571332  0.71064659  0.45699408  1
  Rb  Rb5  1  0.44571332  0.78935341  0.04300592  1
  Rb  Rb6  1  0.55428668  0.21064659  0.54300592  1
  Rb  Rb7  1  0.05428668  0.28935341  0.95699408  1
  Rb  Rb8  1  0.94571332  0.71064659  0.04300592  1
  Rb  Rb9  1  0.55428668  0.21064659  0.95699408  1
  Rb  Rb10  1  0.44571332  0.78935341  0.45699408  1
  Rb  Rb11  1  0.36000240  0.57907364  0.75000000  1
  Nb  Nb0  1  0.28230704  0.01358011  0.75000000  1
  Nb  Nb1  1  0.78230704  0.48641989  0.75000000  1
  Nb  Nb2  1  0.21769296  0.51358011  0.25000000  1
  Nb  Nb3  1  0.71769296  0.98641989  0.25000000  1
  S  S0  1  0.30314759  0.24679740  0.75000000  1
  S  S1  1  0.80314759  0.25320260  0.75000000  1
  S  S2  1  0.19685241  0.74679740  0.25000000  1
  S  S3  1  0.69685241  0.75320260  0.25000000  1
  S  S4  1  -0.00026149  0.58140031  0.75000000  1
  S  S5  1  0.49973851  0.91859969  0.75000000  1
  S  S6  1  0.50026149  0.08140031  0.25000000  1
  S  S7  1  0.00026149  0.41859969  0.25000000  1
  S  S8  1  0.83356395  0.05060581  0.08016768  1
  S  S9  1  0.33356395  0.44939419  0.41983232  1
  S  S10  1  0.66643605  0.55060581  0.91983232  1
  S  S11  1  0.16643605  0.94939419  0.58016768  1
  S  S12  1  0.16643605  0.94939419  0.91983232  1
  S  S13  1  0.83356395  0.05060581  0.41983232  1
  S  S14  1  0.33356395  0.44939419  0.08016768  1
  S  S15  1  0.66643605  0.55060581  0.58016768  1
loop_
_geom_bond_atom_site_label_1
_geom_bond_atom_site_label_2
_geom_bond_distance
_geom_bond_site_symmetry_2
Rb0 S0 3.354937 1_555
Rb0 S1 3.363562 1_455
Rb0 S9 3.405516 1_555
Rb0 S13 3.445329 1_455
Rb0 S11 3.520367 1_545
Rb0 S7 3.537184 1_555
Rb0 S4 3.707199 1_555
Rb1 S1 3.295025 1_565
Rb1 S5 3.477768 1_555
Rb1 S11 3.521802 1_655
Rb1 S12 3.521802 1_655
Rb1 S4 3.583456 1_655
Rb1 S8 3.896963 1_566
Rb1 S13 3.896963 1_565
Rb2 S2 3.295025 1_545
Rb2 S6 3.477768 1_555
Rb2 S8 3.521802 1_455
Rb2 S13 3.521802 1_455
Rb2 S7 3.583456 1_555
Rb2 S11 3.896963 1_545
Rb2 S12 3.896963 1_544
Rb3 S3 3.295025 1_555
Rb3 S7 3.477768 1_655
Rb3 S14 3.521802 1_555
Rb3 S9 3.521802 1_555
Rb3 S6 3.583456 1_555
Rb3 S10 3.896963 1_554
Rb3 S15 3.896963 1_555
Rb4 S3 3.354937 1_555
Rb4 S2 3.363562 1_655
Rb4 S15 3.405516 1_555
Rb4 S11 3.445329 1_655
Rb4 S13 3.520367 1_565
Rb4 S4 3.537184 1_655
Rb4 S7 3.707199 1_655
Rb5 S2 3.354937 1_555
Rb5 S3 3.363562 1_555
Rb5 S12 3.405516 1_554
Rb5 S10 3.445329 1_554
Rb5 S14 3.520367 1_555
Rb5 S5 3.537184 1_554
Rb5 S6 3.707199 1_565
Rb6 S1 3.354937 1_555
Rb6 S0 3.363562 1_555
Rb6 S13 3.405516 1_555
Rb6 S9 3.445329 1_555
Rb6 S15 3.520367 1_555
Rb6 S6 3.537184 1_555
Rb6 S5 3.707199 1_545
Rb7 S0 3.354937 1_555
Rb7 S1 3.363562 1_455
Rb7 S14 3.405516 1_556
Rb7 S8 3.445329 1_456
Rb7 S12 3.520367 1_545
Rb7 S7 3.537184 1_556
Rb7 S4 3.707199 1_555
Rb8 S3 3.354937 1_555
Rb8 S2 3.363562 1_655
Rb8 S10 3.405516 1_554
Rb8 S12 3.445329 1_654
Rb8 S8 3.520367 1_565
Rb8 S4 3.537184 1_654
Rb8 S7 3.707199 1_655
Rb9 S1 3.354937 1_555
Rb9 S0 3.363562 1_555
Rb9 S8 3.405516 1_556
Rb9 S14 3.445329 1_556
Rb9 S10 3.520367 1_555
Rb9 S6 3.537184 1_556
Rb9 S5 3.707199 1_545
Rb10 S2 3.354937 1_555
Rb10 S3 3.363562 1_555
Rb10 S11 3.405516 1_555
Rb10 S15 3.445329 1_555
Rb10 S9 3.520367 1_555
Rb10 S5 3.537184 1_555
Rb10 S6 3.707199 1_565
Rb11 S0 3.295025 1_555
Rb11 S4 3.477768 1_555
Rb11 S15 3.521802 1_555
Rb11 S10 3.521802 1_555
Rb11 S5 3.583456 1_555
Rb11 S14 3.896963 1_556
Rb11 S9 3.896963 1_555
Nb0 S11 2.284835 1_545
Nb0 S12 2.284835 1_545
Nb0 S0 2.289254 1_555
Nb0 S5 2.295196 1_545
Nb1 S15 2.284835 1_555
Nb1 S10 2.284835 1_555
Nb1 S1 2.289254 1_555
Nb1 S4 2.295196 1_655
Nb2 S14 2.284835 1_555
Nb2 S9 2.284835 1_555
Nb2 S2 2.289254 1_555
Nb2 S7 2.295196 1_555
Nb3 S8 2.284835 1_565
Nb3 S13 2.284835 1_565
Nb3 S3 2.289254 1_555
Nb3 S6 2.295196 1_565
