# generated using pymatgen
data_Co2CuS4
_symmetry_space_group_name_H-M   'P 1'
_cell_length_a   6.66185095
_cell_length_b   6.66185103
_cell_length_c   6.66185066
_cell_angle_alpha   60.00000184
_cell_angle_beta   60.00000143
_cell_angle_gamma   60.00000133
_symmetry_Int_Tables_number   1
_chemical_formula_structural   Co2CuS4
_chemical_formula_sum   'Co4 Cu2 S8'
_cell_volume   209.05941875
_cell_formula_units_Z   2
loop_
 _symmetry_equiv_pos_site_id
 _symmetry_equiv_pos_as_xyz
  1  'x, y, z'
loop_
 _atom_site_type_symbol
 _atom_site_label
 _atom_site_symmetry_multiplicity
 _atom_site_fract_x
 _atom_site_fract_y
 _atom_site_fract_z
 _atom_site_occupancy
  Co  Co0  1  0.50000000  0.50000000  0.50000000  1
  Co  Co1  1  0.50000000  0.50000000  -0.00000000  1
  Co  Co2  1  0.50000000  -0.00000000  0.50000000  1
  Co  Co3  1  -0.00000000  0.50000000  0.50000000  1
  Cu  Cu0  1  0.87500000  0.87500000  0.87500000  1
  Cu  Cu1  1  0.12500000  0.12500000  0.12500000  1
  S  S0  1  0.73795247  0.73795247  0.73795247  1
  S  S1  1  0.26204753  0.26204753  0.71385642  1
  S  S2  1  0.26204753  0.71385642  0.26204753  1
  S  S3  1  0.71385642  0.26204753  0.26204753  1
  S  S4  1  0.73795247  0.28614358  0.73795247  1
  S  S5  1  0.28614358  0.73795247  0.73795247  1
  S  S6  1  0.26204753  0.26204753  0.26204753  1
  S  S7  1  0.73795247  0.73795247  0.28614358  1
loop_
_geom_bond_atom_site_label_1
_geom_bond_atom_site_label_2
_geom_bond_distance
_geom_bond_site_symmetry_2
Co0 S2 2.247557 1_555
Co0 S4 2.247557 1_555
Co0 S3 2.247557 1_555
Co0 S5 2.247557 1_555
Co0 S7 2.247557 1_555
Co0 S1 2.247557 1_555
Co1 S4 2.247552 1_554
Co1 S2 2.247552 1_555
Co1 S3 2.247552 1_555
Co1 S5 2.247552 1_554
Co1 S0 2.247556 1_554
Co1 S6 2.247556 1_555
Co2 S7 2.247552 1_545
Co2 S1 2.247552 1_555
Co2 S5 2.247552 1_545
Co2 S3 2.247552 1_555
Co2 S6 2.247556 1_555
Co2 S0 2.247556 1_545
Co3 S7 2.247552 1_455
Co3 S1 2.247552 1_555
Co3 S4 2.247552 1_455
Co3 S2 2.247552 1_555
Co3 S0 2.247556 1_455
Co3 S6 2.247556 1_555
Cu0 S0 2.236360 1_555
Cu0 S7 2.236366 1_556
Cu0 S5 2.236366 1_655
Cu0 S4 2.236366 1_565
Cu1 S6 2.236360 1_555
Cu1 S1 2.236366 1_554
Cu1 S3 2.236366 1_455
Cu1 S2 2.236366 1_545
