# generated using pymatgen
data_Rb6Cr3IrBr18
_symmetry_space_group_name_H-M   'P 1'
_cell_length_a   7.41738260
_cell_length_b   7.41738347
_cell_length_c   18.76669450
_cell_angle_alpha   90.00000000
_cell_angle_beta   90.00000000
_cell_angle_gamma   120.00000034
_symmetry_Int_Tables_number   1
_chemical_formula_structural   Rb6Cr3IrBr18
_chemical_formula_sum   'Rb6 Cr3 Ir1 Br18'
_cell_volume   894.16945016
_cell_formula_units_Z   1
loop_
 _symmetry_equiv_pos_site_id
 _symmetry_equiv_pos_as_xyz
  1  'x, y, z'
loop_
 _atom_site_type_symbol
 _atom_site_label
 _atom_site_symmetry_multiplicity
 _atom_site_fract_x
 _atom_site_fract_y
 _atom_site_fract_z
 _atom_site_occupancy
  Rb  Rb0  1  0.66666700  0.33333300  0.56759348  1
  Rb  Rb1  1  0.33333300  0.66666700  0.06654449  1
  Rb  Rb2  1  0.33333300  0.66666700  0.43393183  1
  Rb  Rb3  1  0.66666700  0.33333300  0.93484685  1
  Rb  Rb4  1  0.00000000  0.00000000  0.25069035  1
  Rb  Rb5  1  0.00000000  0.00000000  0.74697242  1
  Cr  Cr0  1  0.66666700  0.33333300  0.33900008  1
  Cr  Cr1  1  0.33333300  0.66666700  0.83801452  1
  Cr  Cr2  1  0.66666700  0.33333300  0.16155497  1
  Ir  Ir0  1  0.33333300  0.66666700  0.66570414  1
  Br  Br0  1  0.82691566  0.65383233  0.40972093  1
  Br  Br1  1  0.17474743  0.82525257  0.59064583  1
  Br  Br2  1  0.65050614  0.82525257  0.59064583  1
  Br  Br3  1  0.82691566  0.17308434  0.40972093  1
  Br  Br4  1  0.34616767  0.17308434  0.40972093  1
  Br  Br5  1  0.17296710  0.34593321  0.90872242  1
  Br  Br6  1  0.02211078  0.51105639  0.74874925  1
  Br  Br7  1  0.65406679  0.82703290  0.90872242  1
  Br  Br8  1  0.82694469  0.65389038  0.09045495  1
  Br  Br9  1  0.17474743  0.34949386  0.59064583  1
  Br  Br10  1  0.48894361  0.97788922  0.74874925  1
  Br  Br11  1  0.51187232  0.48812768  0.25008959  1
  Br  Br12  1  0.48894361  0.51105639  0.74874925  1
  Br  Br13  1  0.17296710  0.82703290  0.90872242  1
  Br  Br14  1  0.34610962  0.17305531  0.09045495  1
  Br  Br15  1  0.97625636  0.48812768  0.25008959  1
  Br  Br16  1  0.51187232  0.02374364  0.25008959  1
  Br  Br17  1  0.82694469  0.17305531  0.09045495  1
loop_
_geom_bond_atom_site_label_1
_geom_bond_atom_site_label_2
_geom_bond_distance
_geom_bond_site_symmetry_2
Br0 Cr0 2.449489 1_555
Br0 Rb0 3.607826 1_555
Br0 Rb4 3.721796 1_665
Br0 Rb2 3.737329 1_655
Br0 Rb2 3.737329 1_555
Br1 Ir0 2.476917 1_555
Br1 Rb2 3.577775 1_555
Br1 Rb5 3.694178 1_565
Br1 Rb0 3.735281 1_455
Br1 Rb0 3.735281 1_565
Br2 Ir0 2.476927 1_555
Br2 Rb2 3.577783 1_555
Br2 Rb5 3.694174 1_665
Br2 Rb0 3.735282 1_555
Br2 Rb0 3.735282 1_565
Br3 Cr0 2.449478 1_555
Br3 Rb0 3.607819 1_555
Br3 Rb4 3.721799 1_655
Br3 Rb2 3.737329 1_655
Br3 Rb2 3.737329 1_545
Br4 Cr0 2.449489 1_555
Br4 Rb0 3.607826 1_555
Br4 Rb4 3.721796 1_555
Br4 Rb2 3.737330 1_555
Br4 Rb2 3.737330 1_545
Br5 Cr1 2.450624 1_555
Br5 Rb1 3.607908 1_556
Br5 Rb3 3.741832 1_455
Br5 Rb3 3.741832 1_555
Br5 Rb5 3.761954 1_555
Br6 Ir0 2.534874 1_555
Br6 Cr1 2.608268 1_555
Br6 Rb5 3.711553 1_565
Br6 Rb5 3.711568 1_555
Br7 Cr1 2.450623 1_555
Br7 Rb1 3.607908 1_556
Br7 Rb3 3.741832 1_555
Br7 Rb3 3.741832 1_565
Br7 Rb5 3.761953 1_665
Br8 Cr2 2.453665 1_555
Br8 Rb3 3.573225 1_554
Br8 Rb1 3.736640 1_655
Br8 Rb1 3.736640 1_555
Br8 Rb4 3.739730 1_665
Br9 Ir0 2.476928 1_555
Br9 Rb2 3.577783 1_555
Br9 Rb5 3.694174 1_555
Br9 Rb0 3.735281 1_455
Br9 Rb0 3.735281 1_555
Br10 Ir0 2.534874 1_555
Br10 Cr1 2.608268 1_555
Br10 Rb5 3.711552 1_565
Br10 Rb5 3.711567 1_665
Br11 Cr2 2.591425 1_555
Br11 Cr0 2.595953 1_555
Br11 Rb4 3.711844 1_555
Br11 Rb4 3.711844 1_665
Br12 Ir0 2.534869 1_555
Br12 Cr1 2.608263 1_555
Br12 Rb5 3.711560 1_665
Br12 Rb5 3.711560 1_555
Br13 Cr1 2.450613 1_555
Br13 Rb1 3.607901 1_556
Br13 Rb3 3.741832 1_455
Br13 Rb3 3.741832 1_565
Br13 Rb5 3.761957 1_565
Br14 Cr2 2.453665 1_555
Br14 Rb3 3.573225 1_554
Br14 Rb1 3.736640 1_555
Br14 Rb1 3.736640 1_545
Br14 Rb4 3.739729 1_555
Br15 Cr2 2.591425 1_555
Br15 Cr0 2.595953 1_555
Br15 Rb4 3.711840 1_655
Br15 Rb4 3.711847 1_665
Br16 Cr2 2.591425 1_555
Br16 Cr0 2.595953 1_555
Br16 Rb4 3.711840 1_655
Br16 Rb4 3.711847 1_555
Br17 Cr2 2.453654 1_555
Br17 Rb3 3.573218 1_554
Br17 Rb1 3.736640 1_655
Br17 Rb1 3.736640 1_545
Br17 Rb4 3.739733 1_655
