# generated using pymatgen
data_Ca10Ag3Hg2Ir
_symmetry_space_group_name_H-M   'P 1'
_cell_length_a   9.19487936
_cell_length_b   9.19487954
_cell_length_c   9.22880967
_cell_angle_alpha   128.74398254
_cell_angle_beta   128.74398463
_cell_angle_gamma   75.14925974
_symmetry_Int_Tables_number   1
_chemical_formula_structural   Ca10Ag3Hg2Ir
_chemical_formula_sum   'Ca10 Ag3 Hg2 Ir1'
_cell_volume   462.74541705
_cell_formula_units_Z   1
loop_
 _symmetry_equiv_pos_site_id
 _symmetry_equiv_pos_as_xyz
  1  'x, y, z'
loop_
 _atom_site_type_symbol
 _atom_site_label
 _atom_site_symmetry_multiplicity
 _atom_site_fract_x
 _atom_site_fract_y
 _atom_site_fract_z
 _atom_site_occupancy
  Ca  Ca0  1  0.52793003  0.01453712  0.82416184  1
  Ca  Ca1  1  0.20376819  0.69037528  0.17583816  1
  Ca  Ca2  1  0.02520565  0.18782012  0.50000000  1
  Ca  Ca3  1  0.68044573  0.54424452  0.50000000  1
  Ca  Ca4  1  0.48546288  0.97206997  0.17583816  1
  Ca  Ca5  1  0.80962472  0.29623181  0.82416184  1
  Ca  Ca6  1  0.95575548  0.81955427  0.50000000  1
  Ca  Ca7  1  0.31217988  0.47479435  0.50000000  1
  Ca  Ca8  1  0.50479367  0.51111938  0.01591406  1
  Ca  Ca9  1  0.98888062  0.99520633  0.98408594  1
  Ag  Ag0  1  0.37514460  0.12485540  0.50000000  1
  Ag  Ag1  1  0.12436916  0.62379096  0.74816011  1
  Ag  Ag2  1  0.87620904  0.37563084  0.25183989  1
  Hg  Hg0  1  0.25313720  0.24686280  1.00000000  1
  Hg  Hg1  1  0.75313720  0.74686280  1.00000000  1
  Ir  Ir0  1  0.62395296  0.87604704  0.50000000  1
loop_
_geom_bond_atom_site_label_1
_geom_bond_atom_site_label_2
_geom_bond_distance
_geom_bond_site_symmetry_2
Ca0 Ir0 3.051627 1_545
Ca0 Hg1 3.340613 1_545
Ca0 Hg0 3.406946 1_555
Ca1 Ir0 3.051626 1_555
Ca1 Hg0 3.340613 1_554
Ca1 Hg1 3.406946 1_454
Ca2 Hg1 3.364906 1_444
Ca2 Hg0 3.364906 1_555
Ca3 Ir0 2.960635 1_555
Ca3 Hg0 3.350780 1_554
Ca3 Hg1 3.350780 1_555
Ca4 Ir0 3.051627 1_555
Ca4 Hg1 3.340613 1_554
Ca4 Hg0 3.406946 1_564
Ca5 Ir0 3.051626 1_545
Ca5 Hg0 3.340613 1_655
Ca5 Hg1 3.406946 1_555
Ca6 Ir0 2.960635 1_555
Ca6 Hg0 3.350780 1_665
Ca6 Hg1 3.350780 1_554
Ca7 Hg1 3.364906 1_555
Ca7 Hg0 3.364906 1_554
Ca8 Ir0 3.068004 1_555
Ca8 Hg0 3.645537 1_554
Ca8 Hg1 3.645552 1_554
Ca9 Ir0 3.068004 1_555
Ca9 Hg0 3.645537 1_665
Ca9 Hg1 3.645552 1_555
Ag0 Ir0 2.790130 1_545
Ag0 Ca2 3.119859 1_555
Ag0 Ca7 3.119860 1_555
Ag0 Ca5 3.124052 1_555
Ag0 Ca1 3.124052 1_545
Ag0 Ca0 3.124052 1_555
Ag0 Ca4 3.124052 1_545
Ag0 Ca9 3.256451 1_444
Ag0 Ca8 3.256451 1_556
Ag1 Ag2 2.810391 1_455
Ag1 Ca9 3.140509 1_455
Ag1 Ca2 3.148735 1_555
Ag1 Ca7 3.148736 1_555
Ag1 Ca8 3.153207 1_556
Ag1 Ca4 3.175533 1_556
Ag1 Ca1 3.175534 1_556
Ag1 Ca3 3.189665 1_455
Ag1 Ca6 3.189665 1_455
Ag2 Ca8 3.140509 1_555
Ag2 Ca7 3.148735 1_655
Ag2 Ca2 3.148736 1_655
Ag2 Ca9 3.153207 1_544
Ag2 Ca0 3.175533 1_554
Ag2 Ca5 3.175534 1_554
Ag2 Ca6 3.189665 1_555
Ag2 Ca3 3.189665 1_555
