# generated using pymatgen
data_Ca3Si6Pd17Rh3
_symmetry_space_group_name_H-M   'P 1'
_cell_length_a   8.65241808
_cell_length_b   8.65241760
_cell_length_c   8.69585086
_cell_angle_alpha   59.48634997
_cell_angle_beta   59.48635086
_cell_angle_gamma   59.37070339
_symmetry_Int_Tables_number   1
_chemical_formula_structural   Ca3Si6Pd17Rh3
_chemical_formula_sum   'Ca3 Si6 Pd17 Rh3'
_cell_volume   454.54877742
_cell_formula_units_Z   1
loop_
 _symmetry_equiv_pos_site_id
 _symmetry_equiv_pos_as_xyz
  1  'x, y, z'
loop_
 _atom_site_type_symbol
 _atom_site_label
 _atom_site_symmetry_multiplicity
 _atom_site_fract_x
 _atom_site_fract_y
 _atom_site_fract_z
 _atom_site_occupancy
  Ca  Ca0  1  0.25464480  0.25464480  0.24635059  1
  Ca  Ca1  1  0.74674805  0.74674805  0.74899239  1
  Ca  Ca2  1  0.99977348  0.99977348  0.00047549  1
  Si  Si0  1  0.72491988  0.27169261  0.27114801  1
  Si  Si1  1  0.27780575  0.72235226  0.72912341  1
  Si  Si2  1  0.27169361  0.72491988  0.27114701  1
  Si  Si3  1  0.72235126  0.27780675  0.72912341  1
  Si  Si4  1  0.27451500  0.27451500  0.72547326  1
  Si  Si5  1  0.72899765  0.72899865  0.27426356  1
  Pd  Pd0  1  0.38150963  0.84911887  0.38233255  1
  Pd  Pd1  1  0.61821528  0.61821528  0.15122478  1
  Pd  Pd2  1  0.62042780  0.14963800  0.61550629  1
  Pd  Pd3  1  0.84911887  0.38150963  0.38233255  1
  Pd  Pd4  1  0.14963800  0.62042780  0.61550629  1
  Pd  Pd5  1  0.34166822  0.00084813  0.00236462  1
  Pd  Pd6  1  0.65683936  0.99863891  0.00005353  1
  Pd  Pd7  1  0.00078634  0.34136899  0.65739077  1
  Pd  Pd8  1  0.99928632  0.65603014  0.34572836  1
  Pd  Pd9  1  0.00084813  0.34166822  0.00236462  1
  Pd  Pd10  1  0.65603014  0.99928632  0.34572836  1
  Pd  Pd11  1  0.99863891  0.65683936  0.00005353  1
  Pd  Pd12  1  0.34136899  0.00078634  0.65739077  1
  Pd  Pd13  1  0.00027795  0.00027795  0.34447591  1
  Pd  Pd14  1  0.99950648  0.99950648  0.65820499  1
  Pd  Pd15  1  0.65620300  0.34236117  0.00103827  1
  Pd  Pd16  1  0.34236117  0.65620300  0.00103827  1
  Rh  Rh0  1  0.38577933  0.38577933  0.38595573  1
  Rh  Rh1  1  0.61647118  0.61647118  0.61094024  1
  Rh  Rh2  1  0.38357442  0.38357442  0.84426944  1
loop_
_geom_bond_atom_site_label_1
_geom_bond_atom_site_label_2
_geom_bond_distance
_geom_bond_site_symmetry_2
Ca0 Rh2 2.839069 1_554
Ca0 Pd0 2.845155 1_545
Ca0 Pd3 2.845155 1_455
Ca0 Rh0 2.856195 1_555
Ca1 Pd2 2.826820 1_565
Ca1 Pd4 2.826821 1_655
Ca1 Rh1 2.832906 1_555
Ca1 Pd1 2.840393 1_556
Ca2 Pd16 2.940190 1_655
Ca2 Pd15 2.940190 1_565
Ca2 Pd7 2.946521 1_664
Ca2 Pd12 2.946521 1_664
Ca2 Pd8 2.965099 1_555
Ca2 Pd10 2.965099 1_555
Ca2 Pd9 2.971352 1_665
Ca2 Pd5 2.971352 1_665
Ca2 Pd11 2.974091 1_555
Ca2 Pd6 2.974091 1_555
Ca2 Pd14 2.978681 1_554
Ca2 Pd13 2.995815 1_665
Pd0 Si5 2.437529 1_555
Pd0 Si1 2.449166 1_555
Pd0 Si2 2.453749 1_555
Pd1 Si2 2.431333 1_555
Pd1 Si0 2.431340 1_555
Pd1 Si5 2.449788 1_555
Pd2 Si4 2.426409 1_555
Pd2 Si0 2.431445 1_555
Pd2 Si3 2.444918 1_555
Pd3 Si5 2.437536 1_555
Pd3 Si3 2.449166 1_555
Pd3 Si0 2.453749 1_555
Pd4 Si4 2.426409 1_555
Pd4 Si2 2.431452 1_555
Pd4 Si1 2.444917 1_555
Pd5 Si2 2.428720 1_545
Pd5 Si4 2.443578 1_554
Pd6 Si5 2.428366 1_555
Pd6 Si3 2.442644 1_564
Pd7 Si3 2.443597 1_455
Pd7 Si4 2.444309 1_555
Pd8 Si2 2.412046 1_655
Pd8 Si5 2.413918 1_555
Pd9 Si0 2.428726 1_455
Pd9 Si4 2.443578 1_554
Pd10 Si0 2.412041 1_565
Pd10 Si5 2.413913 1_555
Pd11 Si5 2.428371 1_555
Pd11 Si1 2.442641 1_654
Pd12 Si1 2.443593 1_545
Pd12 Si4 2.444309 1_555
Pd13 Si0 2.432865 1_455
Pd13 Si2 2.432870 1_545
Pd14 Si1 2.459988 1_655
Pd14 Si3 2.459996 1_565
Pd15 Si0 2.415302 1_555
Pd15 Si3 2.423160 1_554
Pd16 Si2 2.415297 1_555
Pd16 Si1 2.423162 1_554
Rh0 Si2 2.378245 1_555
Rh0 Si0 2.378245 1_555
Rh0 Si4 2.396247 1_555
Rh1 Si5 2.375699 1_555
Rh1 Si3 2.375821 1_555
Rh1 Si1 2.375828 1_555
Rh2 Si3 2.376741 1_555
Rh2 Si1 2.376748 1_555
Rh2 Si4 2.394815 1_555
