# generated using pymatgen
data_Cs5BaP4W
_symmetry_space_group_name_H-M   'P 1'
_cell_length_a   11.10611992
_cell_length_b   11.10611915
_cell_length_c   8.23508860
_cell_angle_alpha   87.90083672
_cell_angle_beta   87.90083302
_cell_angle_gamma   121.65318227
_symmetry_Int_Tables_number   1
_chemical_formula_structural   Cs5BaP4W
_chemical_formula_sum   'Cs10 Ba2 P8 W2'
_cell_volume   862.21480204
_cell_formula_units_Z   2
loop_
 _symmetry_equiv_pos_site_id
 _symmetry_equiv_pos_as_xyz
  1  'x, y, z'
loop_
 _atom_site_type_symbol
 _atom_site_label
 _atom_site_symmetry_multiplicity
 _atom_site_fract_x
 _atom_site_fract_y
 _atom_site_fract_z
 _atom_site_occupancy
  Cs  Cs0  1  0.46531850  0.52677822  0.49324356  1
  Cs  Cs1  1  0.06566773  0.52912988  0.49703156  1
  Cs  Cs2  1  0.52677822  0.46531850  0.99324356  1
  Cs  Cs3  1  0.52912988  0.06566773  0.99703156  1
  Cs  Cs4  1  0.86726926  0.13795111  0.68696024  1
  Cs  Cs5  1  0.28396165  0.14477111  0.72247298  1
  Cs  Cs6  1  0.86089359  0.72347089  0.65312288  1
  Cs  Cs7  1  0.13795111  0.86726926  0.18696024  1
  Cs  Cs8  1  0.72347089  0.86089359  0.15312288  1
  Cs  Cs9  1  0.14477111  0.28396165  0.22247298  1
  Ba  Ba0  1  0.46662887  0.93359773  0.49198415  1
  Ba  Ba1  1  0.93359773  0.46662887  0.99198415  1
  P  P0  1  0.68664533  0.33702221  0.67524815  1
  P  P1  1  0.33702221  0.68664533  0.17524815  1
  P  P2  1  0.78133679  0.21228655  0.29390950  1
  P  P3  1  0.43599267  0.20206676  0.33270368  1
  P  P4  1  0.78696049  0.55380729  0.27354888  1
  P  P5  1  0.21228655  0.78133679  0.79390950  1
  P  P6  1  0.55380729  0.78696049  0.77354888  1
  P  P7  1  0.20206676  0.43599267  0.83270368  1
  W  W0  1  0.67166775  0.32677562  0.39406241  1
  W  W1  1  0.32677562  0.67166775  0.89406241  1
loop_
_geom_bond_atom_site_label_1
_geom_bond_atom_site_label_2
_geom_bond_distance
_geom_bond_site_symmetry_2
Cs0 P6 3.509763 1_555
Cs0 P7 3.671538 1_555
Cs0 P3 3.742629 1_555
Cs0 P4 3.805943 1_555
Cs0 P1 3.824701 1_555
Cs1 P5 3.532805 1_555
Cs1 P1 3.564653 1_555
Cs1 P7 3.570433 1_555
Cs1 P2 3.782589 1_455
Cs1 P4 3.783408 1_455
Cs1 P0 3.783843 1_455
Cs2 P4 3.509763 1_556
Cs2 P3 3.671538 1_556
Cs2 P7 3.742629 1_555
Cs2 P6 3.805943 1_555
Cs2 P0 3.824701 1_555
Cs3 P2 3.532805 1_556
Cs3 P0 3.564653 1_555
Cs3 P3 3.570433 1_556
Cs3 P5 3.782589 1_545
Cs3 P6 3.783408 1_545
Cs3 P1 3.783842 1_546
Cs4 P2 3.595391 1_555
Cs4 P6 3.632494 1_545
Cs4 P0 3.684433 1_555
Cs4 P7 3.731370 1_655
Cs5 P3 3.447354 1_555
Cs5 P5 3.700175 1_545
Cs5 P0 3.807992 1_555
Cs5 P7 3.918464 1_555
Cs6 P4 3.604336 1_555
Cs6 P0 3.660398 1_555
Cs6 P5 3.839438 1_655
Cs6 P6 3.929368 1_555
Cs7 P5 3.595391 1_554
Cs7 P4 3.632494 1_455
Cs7 P1 3.684433 1_555
Cs7 P3 3.731370 1_565
Cs8 P6 3.604336 1_554
Cs8 P1 3.660398 1_555
Cs8 P2 3.839438 1_565
Cs8 P4 3.929368 1_555
Cs9 P7 3.447354 1_554
Cs9 P2 3.700175 1_455
Cs9 P1 3.807991 1_555
Cs9 P3 3.918464 1_555
Ba0 P6 3.241738 1_555
Ba0 P5 3.344389 1_555
Ba0 P3 3.396688 1_565
Ba0 P2 3.509310 1_565
Ba0 P1 3.612943 1_555
Ba1 P4 3.241738 1_556
Ba1 P2 3.344389 1_556
Ba1 P7 3.396688 1_655
Ba1 P5 3.509310 1_655
Ba1 P0 3.612943 1_555
P0 W0 2.330285 1_555
P1 W1 2.330285 1_554
P2 W0 2.325778 1_555
P3 W0 2.316872 1_555
P4 W0 2.305900 1_555
P5 W1 2.325778 1_555
P6 W1 2.305900 1_555
P7 W1 2.316871 1_555
