# generated using pymatgen
data_Y4Cd3GaRh4
_symmetry_space_group_name_H-M   'P 1'
_cell_length_a   4.10922058
_cell_length_b   7.02732769
_cell_length_c   8.48308808
_cell_angle_alpha   89.06776225
_cell_angle_beta   90.00000000
_cell_angle_gamma   90.00000000
_symmetry_Int_Tables_number   1
_chemical_formula_structural   Y4Cd3GaRh4
_chemical_formula_sum   'Y4 Cd3 Ga1 Rh4'
_cell_volume   244.93234920
_cell_formula_units_Z   1
loop_
 _symmetry_equiv_pos_site_id
 _symmetry_equiv_pos_as_xyz
  1  'x, y, z'
loop_
 _atom_site_type_symbol
 _atom_site_label
 _atom_site_symmetry_multiplicity
 _atom_site_fract_x
 _atom_site_fract_y
 _atom_site_fract_z
 _atom_site_occupancy
  Y  Y0  1  0.25000000  0.96228310  0.31669305  1
  Y  Y1  1  0.25000000  0.45769479  0.17633833  1
  Y  Y2  1  0.75000000  0.03630765  0.68057637  1
  Y  Y3  1  0.75000000  0.53983391  0.82436391  1
  Cd  Cd0  1  0.25000000  0.35637370  0.56232666  1
  Cd  Cd1  1  0.25000000  0.86243093  0.93956758  1
  Cd  Cd2  1  0.75000000  0.63302074  0.43911590  1
  Ga  Ga0  1  0.75000000  0.14358451  0.05876331  1
  Rh  Rh0  1  0.25000000  0.25147140  0.88871935  1
  Rh  Rh1  1  0.25000000  0.75634680  0.63226974  1
  Rh  Rh2  1  0.75000000  0.75989328  0.13070903  1
  Rh  Rh3  1  0.75000000  0.24075919  0.35055478  1
loop_
_geom_bond_atom_site_label_1
_geom_bond_atom_site_label_2
_geom_bond_distance
_geom_bond_site_symmetry_2
Y0 Y2 3.751393 1_465
Y0 Y2 3.751393 1_565
Y1 Y3 3.662472 1_454
Y1 Y3 3.662472 1_554
Y2 Y3 3.677180 1_545
Y2 Y3 3.761496 1_555
Cd0 Rh0 2.853660 1_555
Cd0 Rh3 2.855932 1_555
Cd0 Rh3 2.855932 1_455
Cd0 Rh1 2.882114 1_555
Cd0 Cd2 3.004538 1_455
Cd0 Cd2 3.004538 1_555
Cd0 Y2 3.195810 1_455
Cd0 Y2 3.195810 1_555
Cd0 Y3 3.304243 1_555
Cd0 Y3 3.304243 1_455
Cd0 Y1 3.339554 1_555
Cd0 Y0 3.492751 1_545
Cd1 Rh2 2.707727 1_456
Cd1 Rh2 2.707727 1_556
Cd1 Rh1 2.722972 1_555
Cd1 Rh0 2.760793 1_565
Cd1 Ga0 3.035205 1_466
Cd1 Ga0 3.035205 1_566
Cd1 Y3 3.223021 1_455
Cd1 Y3 3.223021 1_555
Cd1 Y2 3.233278 1_465
Cd1 Y2 3.233278 1_565
Cd1 Y0 3.286370 1_556
Cd1 Y1 3.455130 1_556
Cd2 Rh2 2.750224 1_555
Cd2 Rh1 2.775524 1_655
Cd2 Rh1 2.775524 1_555
Cd2 Rh3 2.868862 1_555
Cd2 Y0 3.252014 1_655
Cd2 Y0 3.252014 1_555
Cd2 Y1 3.286027 1_555
Cd2 Y1 3.286027 1_655
Cd2 Y3 3.322593 1_555
Cd2 Y2 3.523673 1_565
Ga0 Rh3 2.578449 1_555
Ga0 Rh0 2.615614 1_654
Ga0 Rh0 2.615614 1_554
Ga0 Rh2 2.754833 1_545
Ga0 Y1 3.187521 1_555
Ga0 Y1 3.187521 1_655
Ga0 Y0 3.246764 1_645
Ga0 Y0 3.246764 1_545
Ga0 Y2 3.307495 1_554
Ga0 Y3 3.395223 1_554
Rh0 Y1 2.858030 1_556
Rh0 Y3 2.930842 1_455
Rh0 Y3 2.930842 1_555
Rh0 Y2 3.116440 1_455
Rh0 Y2 3.116440 1_555
Rh1 Y2 2.878568 1_465
Rh1 Y2 2.878568 1_565
Rh1 Y3 3.018471 1_455
Rh1 Y3 3.018471 1_555
Rh1 Y0 3.022407 1_555
Rh2 Y0 2.967568 1_655
Rh2 Y0 2.967568 1_555
Rh2 Y1 2.975632 1_555
Rh2 Y1 2.975632 1_655
Rh2 Y3 3.045608 1_554
Rh3 Y0 2.855145 1_645
Rh3 Y0 2.855145 1_545
Rh3 Y1 2.942161 1_555
Rh3 Y1 2.942161 1_655
Rh3 Y2 3.125881 1_555
