# generated using pymatgen
data_Co2Hg2OF6
_symmetry_space_group_name_H-M   'P 1'
_cell_length_a   7.40375714
_cell_length_b   7.37847953
_cell_length_c   7.40995419
_cell_angle_alpha   120.15563504
_cell_angle_beta   90.00358612
_cell_angle_gamma   119.86250260
_symmetry_Int_Tables_number   1
_chemical_formula_structural   Co2Hg2OF6
_chemical_formula_sum   'Co4 Hg4 O2 F12'
_cell_volume   286.14358295
_cell_formula_units_Z   2
loop_
 _symmetry_equiv_pos_site_id
 _symmetry_equiv_pos_as_xyz
  1  'x, y, z'
loop_
 _atom_site_type_symbol
 _atom_site_label
 _atom_site_symmetry_multiplicity
 _atom_site_fract_x
 _atom_site_fract_y
 _atom_site_fract_z
 _atom_site_occupancy
  Co  Co0  1  0.00000000  0.00000000  0.00000000  1
  Co  Co1  1  0.00000000  0.00000000  0.50000100  1
  Co  Co2  1  0.00000000  0.50000100  0.50000100  1
  Co  Co3  1  0.50000100  0.50000100  0.50000100  1
  Hg  Hg0  1  0.50000100  0.00000000  0.00000000  1
  Hg  Hg1  1  0.00000000  0.50000100  0.00000000  1
  Hg  Hg2  1  0.50000100  0.50000100  0.00000000  1
  Hg  Hg3  1  0.50000000  0.00000000  0.50000000  1
  O  O0  1  0.37757846  0.74969194  0.12489637  1
  O  O1  1  0.62242154  0.25030906  0.87510363  1
  F  F0  1  0.93127651  0.25474817  0.17696798  1
  F  F1  1  0.93015552  0.85677938  0.17806819  1
  F  F2  1  0.32154890  0.24763545  0.17832179  1
  F  F3  1  0.67788807  0.35610489  0.42546373  1
  F  F4  1  0.07345242  0.75026172  0.42713873  1
  F  F5  1  0.67896797  0.75283034  0.43090240  1
  F  F6  1  0.32103203  0.24717066  0.56909760  1
  F  F7  1  0.92654858  0.24973928  0.57286127  1
  F  F8  1  0.32211193  0.64389411  0.57453627  1
  F  F9  1  0.06984548  0.14322062  0.82193281  1
  F  F10  1  0.06872449  0.74525283  0.82303302  1
  F  F11  1  0.67845210  0.75236555  0.82167921  1
loop_
_geom_bond_atom_site_label_1
_geom_bond_atom_site_label_2
_geom_bond_distance
_geom_bond_site_symmetry_2
Co0 F9 1.995478 1_554
Co0 F1 1.995485 1_445
Co0 F10 1.996904 1_544
Co0 F0 1.996906 1_455
Co0 F11 1.998553 1_444
Co0 F2 1.998559 1_555
Co1 F4 1.995283 1_545
Co1 F7 1.995288 1_455
Co1 F5 1.995627 1_445
Co1 F6 1.995631 1_555
Co1 F9 1.999417 1_555
Co1 F1 1.999424 1_445
Co2 F10 1.998528 1_555
Co2 F0 1.998536 1_455
Co2 F7 1.999655 1_455
Co2 F4 1.999658 1_555
Co2 F3 2.002229 1_455
Co2 F8 2.002233 1_555
Co3 F8 1.992572 1_555
Co3 F3 1.992574 1_555
Co3 F11 1.996213 1_555
Co3 F2 1.996220 1_555
Co3 F6 1.999029 1_555
Co3 F5 1.999031 1_555
Hg0 O0 2.267028 1_545
Hg0 O1 2.267034 1_554
Hg1 O1 2.285458 1_454
Hg1 O0 2.285458 1_555
Hg2 O1 2.241028 1_554
Hg2 O0 2.241034 1_555
Hg3 O1 2.265668 1_555
Hg3 O0 2.265668 1_545
F0 Hg1 2.592369 1_655
F1 Hg1 2.608499 1_655
F4 Hg1 2.617446 1_555
F7 Hg1 2.617447 1_656
F9 Hg1 2.608517 1_556
F10 Hg1 2.592356 1_556
