# generated using pymatgen
data_Lu6NiI10
_symmetry_space_group_name_H-M   'P 1'
_cell_length_a   7.52097753
_cell_length_b   9.43631422
_cell_length_c   9.45012476
_cell_angle_alpha   106.92566753
_cell_angle_beta   96.74440256
_cell_angle_gamma   104.40619761
_symmetry_Int_Tables_number   1
_chemical_formula_structural   Lu6NiI10
_chemical_formula_sum   'Lu6 Ni1 I10'
_cell_volume   608.26450858
_cell_formula_units_Z   1
loop_
 _symmetry_equiv_pos_site_id
 _symmetry_equiv_pos_as_xyz
  1  'x, y, z'
loop_
 _atom_site_type_symbol
 _atom_site_label
 _atom_site_symmetry_multiplicity
 _atom_site_fract_x
 _atom_site_fract_y
 _atom_site_fract_z
 _atom_site_occupancy
  Lu  Lu0  1  0.88942339  0.95989229  0.23264273  1
  Lu  Lu1  1  0.11057661  0.04010771  0.76735727  1
  Lu  Lu2  1  0.03185063  0.72517272  0.91841600  1
  Lu  Lu3  1  0.96814937  0.27482728  0.08158400  1
  Lu  Lu4  1  0.66678383  0.88212874  0.84187749  1
  Lu  Lu5  1  0.33321617  0.11787126  0.15812251  1
  Ni  Ni0  1  0.00000000  0.00000000  0.00000000  1
  I  I0  1  0.65320073  0.55057213  0.72438765  1
  I  I1  1  0.34679927  0.44942787  0.27561235  1
  I  I2  1  0.74285478  0.91354503  0.53680137  1
  I  I3  1  0.25714522  0.08645497  0.46319863  1
  I  I4  1  0.08797082  0.37498862  0.81899113  1
  I  I5  1  0.91202918  0.62501138  0.18100887  1
  I  I6  1  0.45430487  0.81199099  0.09397822  1
  I  I7  1  0.54569513  0.18800901  0.90602178  1
  I  I8  1  0.22935714  0.74457572  0.65520717  1
  I  I9  1  0.77064286  0.25542428  0.34479283  1
loop_
_geom_bond_atom_site_label_1
_geom_bond_atom_site_label_2
_geom_bond_distance
_geom_bond_site_symmetry_2
Lu0 Ni0 2.534876 1_665
Lu1 Ni0 2.534876 1_556
Lu2 Ni0 2.562343 1_566
Lu3 Ni0 2.562343 1_655
Lu4 Ni0 2.552696 1_666
Lu5 Ni0 2.552696 1_555
I0 Lu4 2.970433 1_555
I0 Lu2 2.977661 1_655
I1 Lu5 2.970433 1_555
I1 Lu3 2.977661 1_455
I2 Lu1 3.041081 1_665
I2 Lu4 3.086685 1_555
I2 Lu0 3.302199 1_555
I3 Lu0 3.041081 1_445
I3 Lu5 3.086685 1_555
I3 Lu1 3.302199 1_555
I4 Lu3 3.054594 1_456
I4 Lu1 3.105137 1_555
I4 Lu2 3.310541 1_555
I5 Lu2 3.054594 1_654
I5 Lu0 3.105137 1_555
I5 Lu3 3.310541 1_555
I6 Lu5 3.153876 1_565
I6 Lu4 3.154930 1_554
I6 Lu0 3.166954 1_555
I6 Lu2 3.192806 1_554
I7 Lu4 3.153876 1_545
I7 Lu5 3.154930 1_556
I7 Lu1 3.166954 1_555
I7 Lu3 3.192806 1_556
I8 Lu2 3.069965 1_555
I8 Lu1 3.072368 1_565
I8 Lu4 3.286150 1_555
I9 Lu3 3.069965 1_555
I9 Lu0 3.072368 1_545
I9 Lu5 3.286150 1_555
