# generated using pymatgen
data_Rb2Te3PdO12
_symmetry_space_group_name_H-M   'P 1'
_cell_length_a   7.06715318
_cell_length_b   7.06715343
_cell_length_c   7.06702157
_cell_angle_alpha   61.32005216
_cell_angle_beta   61.32005018
_cell_angle_gamma   61.31629681
_symmetry_Int_Tables_number   1
_chemical_formula_structural   Rb2Te3PdO12
_chemical_formula_sum   'Rb2 Te3 Pd1 O12'
_cell_volume   256.97820570
_cell_formula_units_Z   1
loop_
 _symmetry_equiv_pos_site_id
 _symmetry_equiv_pos_as_xyz
  1  'x, y, z'
loop_
 _atom_site_type_symbol
 _atom_site_label
 _atom_site_symmetry_multiplicity
 _atom_site_fract_x
 _atom_site_fract_y
 _atom_site_fract_z
 _atom_site_occupancy
  Rb  Rb0  1  0.12203559  0.13073556  0.62588100  1
  Rb  Rb1  1  0.86926444  0.87796441  0.37411900  1
  Te  Te0  1  0.49744806  0.00243245  0.00000924  1
  Te  Te1  1  0.99756755  0.50255194  0.99999076  1
  Te  Te2  1  0.49745785  0.50254215  0.50000000  1
  Pd  Pd0  1  0.49746698  0.50253302  1.00000000  1
  O  O0  1  0.81814389  0.82316967  0.92796849  1
  O  O1  1  0.41905065  0.42354295  0.33361164  1
  O  O2  1  0.41900153  0.83611070  0.92094902  1
  O  O3  1  0.81811005  0.43034172  0.32059767  1
  O  O4  1  0.83110915  0.42382558  0.92136941  1
  O  O5  1  0.42544660  0.82310970  0.32062425  1
  O  O6  1  0.17683033  0.18185611  0.07203151  1
  O  O7  1  0.57645705  0.58094935  0.66638836  1
  O  O8  1  0.57617442  0.16889085  0.07863059  1
  O  O9  1  0.17689030  0.57455340  0.67937575  1
  O  O10  1  0.16388930  0.58099847  0.07905098  1
  O  O11  1  0.56965828  0.18188995  0.67940233  1
loop_
_geom_bond_atom_site_label_1
_geom_bond_atom_site_label_2
_geom_bond_distance
_geom_bond_site_symmetry_2
O0 Te1 1.937905 1_555
O0 Te0 1.938061 1_566
O0 Rb0 3.085625 1_665
O1 Te2 1.885179 1_555
O1 Pd0 1.989184 1_554
O1 Rb0 2.976586 1_555
O2 Te0 1.885297 1_566
O2 Pd0 1.988839 1_555
O2 Rb0 2.987728 1_565
O3 Te1 1.937997 1_554
O3 Te2 1.938115 1_555
O3 Rb0 3.073877 1_655
O4 Te1 1.885344 1_555
O4 Pd0 1.989451 1_555
O4 Rb0 2.969981 1_655
O5 Te2 1.937617 1_555
O5 Te0 1.937806 1_565
O5 Rb0 3.092687 1_565
O6 Te0 1.937905 1_555
O6 Te1 1.938061 1_454
O6 Rb1 3.085625 1_445
O7 Te2 1.885179 1_555
O7 Pd0 1.989184 1_555
O7 Rb1 2.976586 1_555
O8 Te0 1.885344 1_555
O8 Pd0 1.989451 1_554
O8 Rb1 2.969981 1_545
O9 Te2 1.937617 1_555
O9 Te1 1.937806 1_455
O9 Rb1 3.092687 1_455
O10 Te1 1.885297 1_454
O10 Pd0 1.988839 1_554
O10 Rb1 2.987728 1_455
O11 Te0 1.937997 1_556
O11 Te2 1.938116 1_555
O11 Rb1 3.073877 1_545
