# generated using pymatgen
data_PrGaCo2
_symmetry_space_group_name_H-M   'P 1'
_cell_length_a   7.46810600
_cell_length_b   10.56440000
_cell_length_c   13.88808200
_cell_angle_alpha   90.00000000
_cell_angle_beta   90.00000000
_cell_angle_gamma   90.00000000
_symmetry_Int_Tables_number   1
_chemical_formula_structural   PrGaCo2
_chemical_formula_sum   'Pr16 Ga16 Co32'
_cell_volume   1095.71493724
_cell_formula_units_Z   16
loop_
 _symmetry_equiv_pos_site_id
 _symmetry_equiv_pos_as_xyz
  1  'x, y, z'
loop_
 _atom_site_type_symbol
 _atom_site_label
 _atom_site_symmetry_multiplicity
 _atom_site_fract_x
 _atom_site_fract_y
 _atom_site_fract_z
 _atom_site_occupancy
  Pr  Pr0_0  1  0.00000000  0.12500000  0.33610700  1
  Pr  Pr0_1  1  0.00000000  0.12500000  0.83610700  1
  Pr  Pr0_2  1  0.00000000  0.62500000  0.33610700  1
  Pr  Pr0_3  1  0.00000000  0.62500000  0.83610700  1
  Pr  Pr0_4  1  0.50000000  0.12500000  0.33610700  1
  Pr  Pr0_5  1  0.50000000  0.12500000  0.83610700  1
  Pr  Pr0_6  1  0.50000000  0.62500000  0.33610700  1
  Pr  Pr0_7  1  0.50000000  0.62500000  0.83610700  1
  Pr  Pr1_0  1  0.00000000  0.37500000  0.16389300  1
  Pr  Pr1_1  1  0.00000000  0.37500000  0.66389300  1
  Pr  Pr1_2  1  0.00000000  0.87500000  0.16389300  1
  Pr  Pr1_3  1  0.00000000  0.87500000  0.66389300  1
  Pr  Pr1_4  1  0.50000000  0.37500000  0.16389300  1
  Pr  Pr1_5  1  0.50000000  0.37500000  0.66389300  1
  Pr  Pr1_6  1  0.50000000  0.87500000  0.16389300  1
  Pr  Pr1_7  1  0.50000000  0.87500000  0.66389300  1
  Ga  Ga0_0  1  0.00000000  0.12500000  0.05757650  1
  Ga  Ga0_1  1  0.00000000  0.12500000  0.55757650  1
  Ga  Ga0_2  1  0.00000000  0.62500000  0.05757650  1
  Ga  Ga0_3  1  0.00000000  0.62500000  0.55757650  1
  Ga  Ga0_4  1  0.50000000  0.12500000  0.05757650  1
  Ga  Ga0_5  1  0.50000000  0.12500000  0.55757650  1
  Ga  Ga0_6  1  0.50000000  0.62500000  0.05757650  1
  Ga  Ga0_7  1  0.50000000  0.62500000  0.55757650  1
  Ga  Ga1_0  1  0.00000000  0.37500000  0.44242350  1
  Ga  Ga1_1  1  0.00000000  0.37500000  0.94242350  1
  Ga  Ga1_2  1  0.00000000  0.87500000  0.44242350  1
  Ga  Ga1_3  1  0.00000000  0.87500000  0.94242350  1
  Ga  Ga1_4  1  0.50000000  0.37500000  0.44242350  1
  Ga  Ga1_5  1  0.50000000  0.37500000  0.94242350  1
  Ga  Ga1_6  1  0.50000000  0.87500000  0.44242350  1
  Ga  Ga1_7  1  0.50000000  0.87500000  0.94242350  1
  Co  Co0_0  1  0.25000000  0.25000000  0.00000000  1
  Co  Co0_1  1  0.25000000  0.25000000  0.50000000  1
  Co  Co0_2  1  0.25000000  0.75000000  0.00000000  1
  Co  Co0_3  1  0.25000000  0.75000000  0.50000000  1
  Co  Co0_4  1  0.75000000  0.25000000  0.00000000  1
  Co  Co0_5  1  0.75000000  0.25000000  0.50000000  1
  Co  Co0_6  1  0.75000000  0.75000000  0.00000000  1
  Co  Co0_7  1  0.75000000  0.75000000  0.50000000  1
  Co  Co1_0  1  0.25000000  0.00000000  0.00000000  1
  Co  Co1_1  1  0.25000000  0.00000000  0.50000000  1
  Co  Co1_2  1  0.25000000  0.50000000  0.00000000  1
  Co  Co1_3  1  0.25000000  0.50000000  0.50000000  1
  Co  Co1_4  1  0.75000000  0.00000000  0.00000000  1
  Co  Co1_5  1  0.75000000  0.00000000  0.50000000  1
  Co  Co1_6  1  0.75000000  0.50000000  0.00000000  1
  Co  Co1_7  1  0.75000000  0.50000000  0.50000000  1
  Co  Co2_0  1  0.25000000  0.12500000  0.16616250  1
  Co  Co2_1  1  0.25000000  0.12500000  0.66616250  1
  Co  Co2_2  1  0.25000000  0.62500000  0.16616250  1
  Co  Co2_3  1  0.25000000  0.62500000  0.66616250  1
  Co  Co2_4  1  0.75000000  0.12500000  0.16616250  1
  Co  Co2_5  1  0.75000000  0.12500000  0.66616250  1
  Co  Co2_6  1  0.75000000  0.62500000  0.16616250  1
  Co  Co2_7  1  0.75000000  0.62500000  0.66616250  1
  Co  Co3_0  1  0.25000000  0.37500000  0.33383750  1
  Co  Co3_1  1  0.25000000  0.37500000  0.83383750  1
  Co  Co3_2  1  0.25000000  0.87500000  0.33383750  1
  Co  Co3_3  1  0.25000000  0.87500000  0.83383750  1
  Co  Co3_4  1  0.75000000  0.37500000  0.33383750  1
  Co  Co3_5  1  0.75000000  0.37500000  0.83383750  1
  Co  Co3_6  1  0.75000000  0.87500000  0.33383750  1
  Co  Co3_7  1  0.75000000  0.87500000  0.83383750  1
loop_
_geom_bond_atom_site_label_1
_geom_bond_atom_site_label_2
_geom_bond_distance
_geom_bond_site_symmetry_2
Pr0_0 Pr1_0 3.563109 1_555
Pr0_0 Pr1_2 3.563109 1_545
Pr0_0 Pr0_4 3.734053 1_555
Pr0_0 Pr0_4 3.734053 1_455
Pr0_1 Pr1_1 3.563109 1_555
Pr0_1 Pr1_3 3.563109 1_545
Pr0_1 Pr0_5 3.734053 1_555
Pr0_1 Pr0_5 3.734053 1_455
Pr0_2 Pr1_2 3.563109 1_555
Pr0_2 Pr1_0 3.563109 1_555
Pr0_2 Pr0_6 3.734053 1_555
Pr0_2 Pr0_6 3.734053 1_455
Pr0_3 Pr1_3 3.563109 1_555
Pr0_3 Pr1_1 3.563109 1_555
Pr0_3 Pr0_7 3.734053 1_555
Pr0_3 Pr0_7 3.734053 1_455
Pr0_4 Pr1_4 3.563109 1_555
Pr0_4 Pr1_6 3.563109 1_545
Pr0_5 Pr1_5 3.563109 1_555
Pr0_5 Pr1_7 3.563109 1_545
Pr0_6 Pr1_6 3.563109 1_555
Pr0_6 Pr1_4 3.563109 1_555
Pr0_7 Pr1_7 3.563109 1_555
Pr0_7 Pr1_5 3.563109 1_555
Pr1_0 Pr1_4 3.734053 1_555
Pr1_0 Pr1_4 3.734053 1_455
Pr1_1 Pr1_5 3.734053 1_555
Pr1_1 Pr1_5 3.734053 1_455
Pr1_2 Pr1_6 3.734053 1_555
Pr1_2 Pr1_6 3.734053 1_455
Pr1_3 Pr1_7 3.734053 1_555
Pr1_3 Pr1_7 3.734053 1_455
Ga0_0 Pr1_0 3.025815 1_555
Ga0_0 Pr1_2 3.025815 1_545
Ga0_0 Pr0_1 3.075787 1_554
Ga0_1 Pr1_1 3.025815 1_555
Ga0_1 Pr1_3 3.025815 1_545
Ga0_1 Pr0_0 3.075787 1_555
Ga0_2 Pr1_2 3.025815 1_555
Ga0_2 Pr1_0 3.025815 1_555
Ga0_2 Pr0_3 3.075787 1_554
Ga0_3 Pr1_3 3.025815 1_555
Ga0_3 Pr1_1 3.025815 1_555
Ga0_3 Pr0_2 3.075787 1_555
Ga0_4 Pr1_4 3.025815 1_555
Ga0_4 Pr1_6 3.025815 1_545
Ga0_4 Pr0_5 3.075787 1_554
Ga0_5 Pr1_5 3.025815 1_555
Ga0_5 Pr1_7 3.025815 1_545
Ga0_5 Pr0_4 3.075787 1_555
Ga0_6 Pr1_6 3.025815 1_555
Ga0_6 Pr1_4 3.025815 1_555
Ga0_6 Pr0_7 3.075787 1_554
Ga0_7 Pr1_7 3.025815 1_555
Ga0_7 Pr1_5 3.025815 1_555
Ga0_7 Pr0_6 3.075787 1_555
Ga1_0 Pr0_0 3.025815 1_555
Ga1_0 Pr0_2 3.025815 1_555
Ga1_0 Pr1_1 3.075787 1_555
Ga1_1 Pr0_1 3.025815 1_555
Ga1_1 Pr0_3 3.025815 1_555
Ga1_1 Pr1_0 3.075787 1_556
Ga1_2 Pr0_2 3.025815 1_555
Ga1_2 Pr0_0 3.025815 1_565
Ga1_2 Pr1_3 3.075787 1_555
Ga1_3 Pr0_3 3.025815 1_555
Ga1_3 Pr0_1 3.025815 1_565
Ga1_3 Pr1_2 3.075787 1_556
Ga1_4 Pr0_6 3.025815 1_555
Ga1_4 Pr0_4 3.025815 1_555
Ga1_4 Pr1_5 3.075787 1_555
Ga1_5 Pr0_7 3.025815 1_555
Ga1_5 Pr0_5 3.025815 1_555
Ga1_5 Pr1_4 3.075787 1_556
Ga1_6 Pr0_6 3.025815 1_555
Ga1_6 Pr0_4 3.025815 1_565
Ga1_6 Pr1_7 3.075787 1_555
Ga1_7 Pr0_7 3.025815 1_555
Ga1_7 Pr0_5 3.025815 1_565
Ga1_7 Pr1_6 3.075787 1_556
Co0_0 Ga0_4 2.422611 1_555
Co0_0 Ga0_0 2.422611 1_555
Co0_0 Ga1_1 2.422611 1_554
Co0_0 Ga1_5 2.422611 1_554
Co0_0 Co1_2 2.641100 1_555
Co0_0 Co1_0 2.641100 1_555
Co0_0 Co2_0 2.658803 1_555
Co0_0 Co3_1 2.658803 1_554
Co0_0 Pr1_4 3.226537 1_555
Co0_0 Pr1_0 3.226537 1_555
Co0_0 Pr0_1 3.226537 1_554
Co0_0 Pr0_5 3.226537 1_554
Co0_1 Ga0_1 2.422611 1_555
Co0_1 Ga0_5 2.422611 1_555
Co0_1 Ga1_0 2.422611 1_555
Co0_1 Ga1_4 2.422611 1_555
Co0_1 Co1_1 2.641100 1_555
Co0_1 Co1_3 2.641100 1_555
Co0_1 Co3_0 2.658803 1_555
Co0_1 Co2_1 2.658803 1_555
Co0_1 Pr1_1 3.226537 1_555
Co0_1 Pr1_5 3.226537 1_555
Co0_1 Pr0_0 3.226537 1_555
Co0_1 Pr0_4 3.226537 1_555
Co0_2 Ga0_6 2.422611 1_555
Co0_2 Ga0_2 2.422611 1_555
Co0_2 Ga1_3 2.422611 1_554
Co0_2 Ga1_7 2.422611 1_554
Co0_2 Co1_0 2.641100 1_565
Co0_2 Co1_2 2.641100 1_555
Co0_2 Co3_3 2.658803 1_554
Co0_2 Co2_2 2.658803 1_555
Co0_2 Pr1_6 3.226537 1_555
Co0_2 Pr1_2 3.226537 1_555
Co0_2 Pr0_3 3.226537 1_554
Co0_2 Pr0_7 3.226537 1_554
Co0_3 Ga0_7 2.422611 1_555
Co0_3 Ga0_3 2.422611 1_555
Co0_3 Ga1_2 2.422611 1_555
Co0_3 Ga1_6 2.422611 1_555
Co0_3 Co1_1 2.641100 1_565
Co0_3 Co1_3 2.641100 1_555
Co0_3 Co3_2 2.658803 1_555
Co0_3 Co2_3 2.658803 1_555
Co0_3 Pr1_3 3.226537 1_555
Co0_3 Pr1_7 3.226537 1_555
Co0_3 Pr0_6 3.226537 1_555
Co0_3 Pr0_2 3.226537 1_555
Co0_4 Ga0_0 2.422611 1_655
Co0_4 Ga0_4 2.422611 1_555
Co0_4 Ga1_1 2.422611 1_654
Co0_4 Ga1_5 2.422611 1_554
Co0_4 Co1_4 2.641100 1_555
Co0_4 Co1_6 2.641100 1_555
Co0_4 Co3_5 2.658803 1_554
Co0_4 Co2_4 2.658803 1_555
Co0_4 Pr1_4 3.226537 1_555
Co0_4 Pr1_0 3.226537 1_655
Co0_4 Pr0_1 3.226537 1_654
Co0_4 Pr0_5 3.226537 1_554
Co0_5 Ga0_1 2.422611 1_655
Co0_5 Ga0_5 2.422611 1_555
Co0_5 Ga1_0 2.422611 1_655
Co0_5 Ga1_4 2.422611 1_555
Co0_5 Co1_7 2.641100 1_555
Co0_5 Co1_5 2.641100 1_555
Co0_5 Co2_5 2.658803 1_555
Co0_5 Co3_4 2.658803 1_555
Co0_5 Pr1_1 3.226537 1_655
Co0_5 Pr1_5 3.226537 1_555
Co0_5 Pr0_0 3.226537 1_655
Co0_5 Pr0_4 3.226537 1_555
Co0_6 Ga0_2 2.422611 1_655
Co0_6 Ga0_6 2.422611 1_555
Co0_6 Ga1_3 2.422611 1_654
Co0_6 Ga1_7 2.422611 1_554
Co0_6 Co1_4 2.641100 1_565
Co0_6 Co1_6 2.641100 1_555
Co0_6 Co3_7 2.658803 1_554
Co0_6 Co2_6 2.658803 1_555
Co0_6 Pr1_2 3.226537 1_655
Co0_6 Pr1_6 3.226537 1_555
Co0_6 Pr0_3 3.226537 1_654
Co0_6 Pr0_7 3.226537 1_554
Co0_7 Ga0_3 2.422611 1_655
Co0_7 Ga0_7 2.422611 1_555
Co0_7 Ga1_2 2.422611 1_655
Co0_7 Ga1_6 2.422611 1_555
Co0_7 Co1_7 2.641100 1_555
Co0_7 Co1_5 2.641100 1_565
Co0_7 Co3_6 2.658803 1_555
Co0_7 Co2_7 2.658803 1_555
Co0_7 Pr1_3 3.226537 1_655
Co0_7 Pr1_7 3.226537 1_555
Co0_7 Pr0_2 3.226537 1_655
Co0_7 Pr0_6 3.226537 1_555
Co1_0 Ga0_4 2.422611 1_555
Co1_0 Ga0_0 2.422611 1_555
Co1_0 Ga1_3 2.422611 1_544
Co1_0 Ga1_7 2.422611 1_544
Co1_0 Co2_0 2.658803 1_555
Co1_0 Co3_3 2.658803 1_544
Co1_0 Pr1_2 3.226537 1_545
Co1_0 Pr1_6 3.226537 1_545
Co1_0 Pr0_1 3.226537 1_554
Co1_0 Pr0_5 3.226537 1_554
Co1_1 Ga0_1 2.422611 1_555
Co1_1 Ga0_5 2.422611 1_555
Co1_1 Ga1_2 2.422611 1_545
Co1_1 Ga1_6 2.422611 1_545
Co1_1 Co2_1 2.658803 1_555
Co1_1 Co3_2 2.658803 1_545
Co1_1 Pr1_7 3.226537 1_545
Co1_1 Pr1_3 3.226537 1_545
Co1_1 Pr0_4 3.226537 1_555
Co1_1 Pr0_0 3.226537 1_555
Co1_2 Ga0_6 2.422611 1_555
Co1_2 Ga0_2 2.422611 1_555
Co1_2 Ga1_1 2.422611 1_554
Co1_2 Ga1_5 2.422611 1_554
Co1_2 Co2_2 2.658803 1_555
Co1_2 Co3_1 2.658803 1_554
Co1_2 Pr1_4 3.226537 1_555
Co1_2 Pr1_0 3.226537 1_555
Co1_2 Pr0_3 3.226537 1_554
Co1_2 Pr0_7 3.226537 1_554
Co1_3 Ga0_7 2.422611 1_555
Co1_3 Ga0_3 2.422611 1_555
Co1_3 Ga1_0 2.422611 1_555
Co1_3 Ga1_4 2.422611 1_555
Co1_3 Co3_0 2.658803 1_555
Co1_3 Co2_3 2.658803 1_555
Co1_3 Pr1_1 3.226537 1_555
Co1_3 Pr1_5 3.226537 1_555
Co1_3 Pr0_6 3.226537 1_555
Co1_3 Pr0_2 3.226537 1_555
Co1_4 Ga0_0 2.422611 1_655
Co1_4 Ga0_4 2.422611 1_555
Co1_4 Ga1_3 2.422611 1_644
Co1_4 Ga1_7 2.422611 1_544
Co1_4 Co2_4 2.658803 1_555
Co1_4 Co3_7 2.658803 1_544
Co1_4 Pr1_2 3.226537 1_645
Co1_4 Pr1_6 3.226537 1_545
Co1_4 Pr0_1 3.226537 1_654
Co1_4 Pr0_5 3.226537 1_554
Co1_5 Ga0_1 2.422611 1_655
Co1_5 Ga0_5 2.422611 1_555
Co1_5 Ga1_2 2.422611 1_645
Co1_5 Ga1_6 2.422611 1_545
Co1_5 Co2_5 2.658803 1_555
Co1_5 Co3_6 2.658803 1_545
Co1_5 Pr1_7 3.226537 1_545
Co1_5 Pr1_3 3.226537 1_645
Co1_5 Pr0_0 3.226537 1_655
Co1_5 Pr0_4 3.226537 1_555
Co1_6 Ga0_2 2.422611 1_655
Co1_6 Ga0_6 2.422611 1_555
Co1_6 Ga1_1 2.422611 1_654
Co1_6 Ga1_5 2.422611 1_554
Co1_6 Co3_5 2.658803 1_554
Co1_6 Co2_6 2.658803 1_555
Co1_6 Pr1_4 3.226537 1_555
Co1_6 Pr1_0 3.226537 1_655
Co1_6 Pr0_3 3.226537 1_654
Co1_6 Pr0_7 3.226537 1_554
Co1_7 Ga0_3 2.422611 1_655
Co1_7 Ga0_7 2.422611 1_555
Co1_7 Ga1_0 2.422611 1_655
Co1_7 Ga1_4 2.422611 1_555
Co1_7 Co3_4 2.658803 1_555
Co1_7 Co2_7 2.658803 1_555
Co1_7 Pr1_1 3.226537 1_655
Co1_7 Pr1_5 3.226537 1_555
Co1_7 Pr0_2 3.226537 1_655
Co1_7 Pr0_6 3.226537 1_555
Co2_0 Ga0_0 2.400001 1_555
Co2_0 Ga0_4 2.400001 1_555
Co2_0 Pr0_4 3.009376 1_555
Co2_0 Pr0_0 3.009376 1_555
Co2_0 Pr1_4 3.234531 1_555
Co2_0 Pr1_0 3.234531 1_555
Co2_0 Pr1_2 3.234531 1_545
Co2_0 Pr1_6 3.234531 1_545
Co2_1 Ga0_1 2.400001 1_555
Co2_1 Ga0_5 2.400001 1_555
Co2_1 Pr0_5 3.009376 1_555
Co2_1 Pr0_1 3.009376 1_555
Co2_1 Pr1_1 3.234531 1_555
Co2_1 Pr1_5 3.234531 1_555
Co2_1 Pr1_3 3.234531 1_545
Co2_1 Pr1_7 3.234531 1_545
Co2_2 Ga0_6 2.400001 1_555
Co2_2 Ga0_2 2.400001 1_555
Co2_2 Pr0_2 3.009376 1_555
Co2_2 Pr0_6 3.009376 1_555
Co2_2 Pr1_6 3.234531 1_555
Co2_2 Pr1_2 3.234531 1_555
Co2_2 Pr1_4 3.234531 1_555
Co2_2 Pr1_0 3.234531 1_555
Co2_3 Ga0_7 2.400001 1_555
Co2_3 Ga0_3 2.400001 1_555
Co2_3 Pr0_7 3.009376 1_555
Co2_3 Pr0_3 3.009376 1_555
Co2_3 Pr1_7 3.234531 1_555
Co2_3 Pr1_3 3.234531 1_555
Co2_3 Pr1_1 3.234531 1_555
Co2_3 Pr1_5 3.234531 1_555
Co2_4 Ga0_0 2.400001 1_655
Co2_4 Ga0_4 2.400001 1_555
Co2_4 Pr0_0 3.009376 1_655
Co2_4 Pr0_4 3.009376 1_555
Co2_4 Pr1_4 3.234531 1_555
Co2_4 Pr1_0 3.234531 1_655
Co2_4 Pr1_2 3.234531 1_645
Co2_4 Pr1_6 3.234531 1_545
Co2_5 Ga0_1 2.400001 1_655
Co2_5 Ga0_5 2.400001 1_555
Co2_5 Pr0_5 3.009376 1_555
Co2_5 Pr0_1 3.009376 1_655
Co2_5 Pr1_1 3.234531 1_655
Co2_5 Pr1_5 3.234531 1_555
Co2_5 Pr1_3 3.234531 1_645
Co2_5 Pr1_7 3.234531 1_545
Co2_6 Ga0_2 2.400001 1_655
Co2_6 Ga0_6 2.400001 1_555
Co2_6 Pr0_6 3.009376 1_555
Co2_6 Pr0_2 3.009376 1_655
Co2_6 Pr1_2 3.234531 1_655
Co2_6 Pr1_6 3.234531 1_555
Co2_6 Pr1_4 3.234531 1_555
Co2_6 Pr1_0 3.234531 1_655
Co2_7 Ga0_3 2.400001 1_655
Co2_7 Ga0_7 2.400001 1_555
Co2_7 Pr0_3 3.009376 1_655
Co2_7 Pr0_7 3.009376 1_555
Co2_7 Pr1_3 3.234531 1_655
Co2_7 Pr1_7 3.234531 1_555
Co2_7 Pr1_1 3.234531 1_655
Co2_7 Pr1_5 3.234531 1_555
Co3_0 Ga1_4 2.400001 1_555
Co3_0 Ga1_0 2.400001 1_555
Co3_0 Pr1_0 3.009376 1_555
Co3_0 Pr1_4 3.009376 1_555
Co3_0 Pr0_2 3.234531 1_555
Co3_0 Pr0_0 3.234531 1_555
Co3_0 Pr0_4 3.234531 1_555
Co3_0 Pr0_6 3.234531 1_555
Co3_1 Ga1_1 2.400001 1_555
Co3_1 Ga1_5 2.400001 1_555
Co3_1 Pr1_5 3.009376 1_555
Co3_1 Pr1_1 3.009376 1_555
Co3_1 Pr0_1 3.234531 1_555
Co3_1 Pr0_3 3.234531 1_555
Co3_1 Pr0_7 3.234531 1_555
Co3_1 Pr0_5 3.234531 1_555
Co3_2 Ga1_2 2.400001 1_555
Co3_2 Ga1_6 2.400001 1_555
Co3_2 Pr1_6 3.009376 1_555
Co3_2 Pr1_2 3.009376 1_555
Co3_2 Pr0_2 3.234531 1_555
Co3_2 Pr0_6 3.234531 1_555
Co3_2 Pr0_0 3.234531 1_565
Co3_2 Pr0_4 3.234531 1_565
Co3_3 Ga1_7 2.400001 1_555
Co3_3 Ga1_3 2.400001 1_555
Co3_3 Pr1_7 3.009376 1_555
Co3_3 Pr1_3 3.009376 1_555
Co3_3 Pr0_3 3.234531 1_555
Co3_3 Pr0_7 3.234531 1_555
Co3_3 Pr0_5 3.234531 1_565
Co3_3 Pr0_1 3.234531 1_565
Co3_4 Ga1_0 2.400001 1_655
Co3_4 Ga1_4 2.400001 1_555
Co3_4 Pr1_0 3.009376 1_655
Co3_4 Pr1_4 3.009376 1_555
Co3_4 Pr0_2 3.234531 1_655
Co3_4 Pr0_0 3.234531 1_655
Co3_4 Pr0_4 3.234531 1_555
Co3_4 Pr0_6 3.234531 1_555
Co3_5 Ga1_1 2.400001 1_655
Co3_5 Ga1_5 2.400001 1_555
Co3_5 Pr1_1 3.009376 1_655
Co3_5 Pr1_5 3.009376 1_555
Co3_5 Pr0_3 3.234531 1_655
Co3_5 Pr0_7 3.234531 1_555
Co3_5 Pr0_5 3.234531 1_555
Co3_5 Pr0_1 3.234531 1_655
Co3_6 Ga1_2 2.400001 1_655
Co3_6 Ga1_6 2.400001 1_555
Co3_6 Pr1_2 3.009376 1_655
Co3_6 Pr1_6 3.009376 1_555
Co3_6 Pr0_2 3.234531 1_655
Co3_6 Pr0_6 3.234531 1_555
Co3_6 Pr0_0 3.234531 1_665
Co3_6 Pr0_4 3.234531 1_565
Co3_7 Ga1_3 2.400001 1_655
Co3_7 Ga1_7 2.400001 1_555
Co3_7 Pr1_3 3.009376 1_655
Co3_7 Pr1_7 3.009376 1_555
Co3_7 Pr0_3 3.234531 1_655
Co3_7 Pr0_7 3.234531 1_555
Co3_7 Pr0_1 3.234531 1_665
Co3_7 Pr0_5 3.234531 1_565
