# generated using pymatgen
data_Cs6Ti2Se2S5
_symmetry_space_group_name_H-M   'P 1'
_cell_length_a   11.72493122
_cell_length_b   8.68486007
_cell_length_c   14.25913783
_cell_angle_alpha   54.37851246
_cell_angle_beta   90.02440853
_cell_angle_gamma   90.14705363
_symmetry_Int_Tables_number   1
_chemical_formula_structural   Cs6Ti2Se2S5
_chemical_formula_sum   'Cs12 Ti4 Se4 S10'
_cell_volume   1180.29972613
_cell_formula_units_Z   2
loop_
 _symmetry_equiv_pos_site_id
 _symmetry_equiv_pos_as_xyz
  1  'x, y, z'
loop_
 _atom_site_type_symbol
 _atom_site_label
 _atom_site_symmetry_multiplicity
 _atom_site_fract_x
 _atom_site_fract_y
 _atom_site_fract_z
 _atom_site_occupancy
  Cs  Cs0  1  0.78881821  0.56670413  0.29893350  1
  Cs  Cs1  1  0.65325657  0.93539732  0.92674510  1
  Cs  Cs2  1  0.52971340  0.17718550  0.57457033  1
  Cs  Cs3  1  0.02188067  0.81535111  0.92096547  1
  Cs  Cs4  1  0.29469648  0.42907240  0.20065348  1
  Cs  Cs5  1  0.15213232  0.05752361  0.57633360  1
  Cs  Cs6  1  0.84873028  0.94521865  0.41331381  1
  Cs  Cs7  1  0.70242185  0.56059172  0.79745687  1
  Cs  Cs8  1  0.97278996  0.19551057  0.06739153  1
  Cs  Cs9  1  0.47902412  0.82104643  0.43095774  1
  Cs  Cs10  1  0.35122550  0.05600912  0.08469188  1
  Cs  Cs11  1  0.20342726  0.43150319  0.70711437  1
  Ti  Ti0  1  0.85954525  0.32294798  0.63709969  1
  Ti  Ti1  1  0.36070720  0.67574697  0.86380639  1
  Ti  Ti2  1  0.64097832  0.31769395  0.13850263  1
  Ti  Ti3  1  0.13856650  0.68812142  0.36302085  1
  Se  Se0  1  0.08040429  0.74006874  0.18833123  1
  Se  Se1  1  0.30645473  0.50323766  0.42371062  1
  Se  Se2  1  0.33617475  0.96290788  0.84929087  1
  Se  Se3  1  0.83535703  0.03620209  0.65004268  1
  S  S0  1  0.00042401  0.50548641  0.50173206  1
  S  S1  1  0.79806024  0.49857609  0.07670269  1
  S  S2  1  0.58584576  0.26462535  0.30490320  1
  S  S3  1  0.50102292  0.49518319  0.99958793  1
  S  S4  1  0.41112536  0.73662852  0.69455977  1
  S  S5  1  0.20228313  0.49938519  0.92633413  1
  S  S6  1  0.16511178  0.96098065  0.34452017  1
  S  S7  1  0.66822602  0.04368811  0.15687710  1
  S  S8  1  0.70161052  0.49874820  0.57476899  1
  S  S9  1  0.90998758  0.25866086  0.80708332  1
loop_
_geom_bond_atom_site_label_1
_geom_bond_atom_site_label_2
_geom_bond_distance
_geom_bond_site_symmetry_2
Cs0 S2 3.501668 1_555
Cs0 S1 3.547943 1_555
Cs0 S0 3.606969 1_655
Cs0 S7 3.676421 1_565
Cs0 Se0 3.695232 1_655
Cs0 S8 3.762984 1_555
Cs1 S1 3.525308 1_556
Cs1 S3 3.771273 1_555
Cs1 S9 3.772977 1_565
Cs1 Se2 3.846075 1_555
Cs1 S7 3.908594 1_566
Cs1 Se3 4.106867 1_565
Cs2 S8 3.441194 1_555
Cs2 S4 3.442296 1_545
Cs2 S2 3.520469 1_555
Cs2 Se1 3.526465 1_555
Cs2 Se3 3.739549 1_555
Cs2 Se2 3.930883 1_545
Cs3 S5 3.434401 1_555
Cs3 S9 3.452924 1_465
Cs3 S1 3.498340 1_456
Cs3 Se0 3.539675 1_556
Cs3 Se2 3.836653 1_555
Cs3 Se3 3.843001 1_465
Cs4 S3 3.533142 1_554
Cs4 Se1 3.596624 1_555
Cs4 Se0 3.622247 1_555
Cs4 S6 3.646919 1_545
Cs4 S2 3.667496 1_555
Cs4 S5 3.750284 1_554
Cs5 Se1 3.626136 1_555
Cs5 S4 3.794291 1_545
Cs5 S0 3.826835 1_555
Cs5 Se3 3.834982 1_455
Cs5 S6 3.857684 1_545
Cs5 Se2 4.093513 1_545
Cs6 S8 3.589075 1_555
Cs6 S0 3.709732 1_655
Cs6 S6 3.819139 1_655
Cs6 S2 3.824924 1_565
Cs6 S7 3.865371 1_565
Cs6 Se3 3.892479 1_565
Cs7 S3 3.506812 1_555
Cs7 S8 3.515384 1_555
Cs7 S9 3.525759 1_555
Cs7 S4 3.683053 1_555
Cs7 Se3 3.710200 1_565
Cs7 S1 3.860498 1_556
Cs8 S1 3.402589 1_555
Cs8 S5 3.469250 1_654
Cs8 S9 3.499811 1_554
Cs8 Se0 3.505657 1_645
Cs8 S7 3.760133 1_555
Cs8 S6 3.935619 1_645
Cs9 S2 3.398787 1_565
Cs9 Se1 3.467906 1_555
Cs9 S4 3.476913 1_555
Cs9 S8 3.492558 1_555
Cs9 S6 3.849308 1_555
Cs9 S7 3.887988 1_565
Cs10 S5 3.588708 1_554
Cs10 S3 3.698803 1_554
Cs10 S7 3.841362 1_555
Cs10 Se0 3.877066 1_545
Cs10 Se2 3.887422 1_544
Cs10 S6 3.950360 1_545
Cs11 S5 3.502233 1_555
Cs11 S4 3.521287 1_555
Cs11 S0 3.530544 1_555
Cs11 Se2 3.676145 1_545
Cs11 S9 3.688886 1_455
Cs11 Se1 3.904541 1_555
Se0 Ti3 2.358891 1_555
Se1 Ti3 2.366051 1_555
Se2 Ti1 2.397439 1_555
Se3 Ti0 2.403615 1_555
S0 Ti3 2.320892 1_555
S0 Ti0 2.322115 1_455
S1 Ti2 2.238414 1_555
S2 Ti2 2.232947 1_555
S3 Ti1 2.321255 1_555
S3 Ti2 2.333665 1_556
S4 Ti1 2.228524 1_555
S5 Ti1 2.233241 1_555
S6 Ti3 2.247271 1_555
S7 Ti2 2.260807 1_555
S8 Ti0 2.232158 1_555
S9 Ti0 2.227223 1_555
