# generated using pymatgen
data_Lu3Cu2Ni6Ir
_symmetry_space_group_name_H-M   'P 1'
_cell_length_a   4.90379039
_cell_length_b   4.90378975
_cell_length_c   16.26959876
_cell_angle_alpha   90.00000000
_cell_angle_beta   90.00000000
_cell_angle_gamma   119.99999786
_symmetry_Int_Tables_number   1
_chemical_formula_structural   Lu3Cu2Ni6Ir
_chemical_formula_sum   'Lu6 Cu4 Ni12 Ir2'
_cell_volume   338.82170475
_cell_formula_units_Z   2
loop_
 _symmetry_equiv_pos_site_id
 _symmetry_equiv_pos_as_xyz
  1  'x, y, z'
loop_
 _atom_site_type_symbol
 _atom_site_label
 _atom_site_symmetry_multiplicity
 _atom_site_fract_x
 _atom_site_fract_y
 _atom_site_fract_z
 _atom_site_occupancy
  Lu  Lu0  1  0.33333300  0.66666700  0.54261564  1
  Lu  Lu1  1  0.66666700  0.33333300  0.04261564  1
  Lu  Lu2  1  0.66666700  0.33333300  0.45738436  1
  Lu  Lu3  1  0.33333300  0.66666700  0.95738436  1
  Lu  Lu4  1  0.33333300  0.66666700  0.75000000  1
  Lu  Lu5  1  0.66666700  0.33333300  0.25000000  1
  Cu  Cu0  1  0.33333300  0.66666700  0.25000000  1
  Cu  Cu1  1  0.66666700  0.33333300  0.75000000  1
  Cu  Cu2  1  0.00000000  0.00000000  0.25000000  1
  Cu  Cu3  1  0.00000000  0.00000000  0.75000000  1
  Ni  Ni0  1  0.16818792  0.33637783  0.12852653  1
  Ni  Ni1  1  0.83181208  0.66362217  0.62852653  1
  Ni  Ni2  1  0.66362217  0.83181208  0.12852653  1
  Ni  Ni3  1  0.16818792  0.83181208  0.12852653  1
  Ni  Ni4  1  0.83181208  0.16818792  0.62852653  1
  Ni  Ni5  1  0.33637783  0.16818792  0.62852653  1
  Ni  Ni6  1  0.83181208  0.66362217  0.87147347  1
  Ni  Ni7  1  0.83181208  0.16818792  0.87147347  1
  Ni  Ni8  1  0.33637783  0.16818792  0.87147347  1
  Ni  Ni9  1  0.66362217  0.83181208  0.37147347  1
  Ni  Ni10  1  0.16818792  0.83181208  0.37147347  1
  Ni  Ni11  1  0.16818792  0.33637783  0.37147347  1
  Ir  Ir0  1  0.00000000  0.00000000  0.00000000  1
  Ir  Ir1  1  0.00000000  0.00000000  0.50000000  1
loop_
_geom_bond_atom_site_label_1
_geom_bond_atom_site_label_2
_geom_bond_distance
_geom_bond_site_symmetry_2
Lu0 Ni5 2.822337 1_565
Lu0 Ni1 2.822337 1_455
Lu0 Ni4 2.822343 1_565
Lu0 Ni4 2.822343 1_455
Lu0 Ni5 2.822350 1_555
Lu0 Ni1 2.822350 1_555
Lu0 Ni11 3.117765 1_555
Lu0 Ni9 3.117765 1_555
Lu0 Ni10 3.117767 1_555
Lu1 Ni2 2.822337 1_545
Lu1 Ni0 2.822337 1_655
Lu1 Ni3 2.822343 1_545
Lu1 Ni3 2.822343 1_655
Lu1 Ni2 2.822350 1_555
Lu1 Ni0 2.822350 1_555
Lu1 Ni6 3.117765 1_554
Lu1 Ni8 3.117765 1_554
Lu1 Ni7 3.117767 1_554
Lu2 Ni9 2.822337 1_545
Lu2 Ni11 2.822337 1_655
Lu2 Ni10 2.822343 1_545
Lu2 Ni10 2.822343 1_655
Lu2 Ni9 2.822350 1_555
Lu2 Ni11 2.822350 1_555
Lu2 Ni1 3.117765 1_555
Lu2 Ni5 3.117765 1_555
Lu2 Ni4 3.117767 1_555
Lu3 Ni8 2.822337 1_565
Lu3 Ni6 2.822337 1_455
Lu3 Ni7 2.822343 1_565
Lu3 Ni7 2.822343 1_455
Lu3 Ni8 2.822350 1_555
Lu3 Ni6 2.822350 1_555
Lu3 Ni0 3.117765 1_556
Lu3 Ni2 3.117765 1_556
Lu3 Ni3 3.117767 1_556
Lu4 Ni8 3.149250 1_565
Lu4 Ni5 3.149250 1_565
Lu4 Ni6 3.149251 1_455
Lu4 Ni1 3.149251 1_455
Lu4 Ni7 3.149256 1_565
Lu4 Ni4 3.149256 1_565
Lu4 Ni7 3.149256 1_455
Lu4 Ni4 3.149256 1_455
Lu4 Ni8 3.149262 1_555
Lu4 Ni5 3.149262 1_555
Lu4 Ni6 3.149262 1_555
Lu4 Ni1 3.149262 1_555
Lu5 Ni9 3.149250 1_545
Lu5 Ni2 3.149250 1_545
Lu5 Ni11 3.149251 1_655
Lu5 Ni0 3.149251 1_655
Lu5 Ni10 3.149256 1_545
Lu5 Ni3 3.149256 1_545
Lu5 Ni10 3.149256 1_655
Lu5 Ni3 3.149256 1_655
Lu5 Ni9 3.149262 1_555
Lu5 Ni2 3.149262 1_555
Lu5 Ni11 3.149262 1_555
Lu5 Ni0 3.149262 1_555
Cu0 Ni11 2.423500 1_555
Cu0 Ni0 2.423500 1_555
Cu0 Ni9 2.423500 1_555
Cu0 Ni2 2.423500 1_555
Cu0 Ni10 2.423503 1_555
Cu0 Ni3 2.423503 1_555
Cu0 Lu5 2.831202 1_565
Cu0 Lu5 2.831202 1_455
Cu0 Lu5 2.831210 1_555
Cu1 Ni6 2.423500 1_555
Cu1 Ni1 2.423500 1_555
Cu1 Ni8 2.423500 1_555
Cu1 Ni5 2.423500 1_555
Cu1 Ni7 2.423503 1_555
Cu1 Ni4 2.423503 1_555
Cu1 Lu4 2.831202 1_545
Cu1 Lu4 2.831202 1_655
Cu1 Lu4 2.831210 1_555
Cu2 Ni10 2.438552 1_545
Cu2 Ni3 2.438552 1_545
Cu2 Ni11 2.438557 1_555
Cu2 Ni0 2.438557 1_555
Cu2 Ni9 2.438557 1_445
Cu2 Ni2 2.438557 1_445
Cu2 Lu5 2.831202 1_455
Cu2 Lu5 2.831206 1_445
Cu2 Lu5 2.831206 1_555
Cu3 Ni7 2.438552 1_455
Cu3 Ni4 2.438552 1_455
Cu3 Ni6 2.438557 1_445
Cu3 Ni1 2.438557 1_445
Cu3 Ni8 2.438557 1_555
Cu3 Ni5 2.438557 1_555
Cu3 Lu4 2.831202 1_545
Cu3 Lu4 2.831206 1_555
Cu3 Lu4 2.831206 1_445
Ni0 Ni3 2.429505 1_555
Ni0 Ni2 2.429506 1_555
Ni0 Ni3 2.474284 1_545
Ni0 Ni2 2.474285 1_445
Ni1 Ni4 2.429505 1_555
Ni1 Ni5 2.429506 1_555
Ni1 Ni4 2.474284 1_565
Ni1 Ni5 2.474285 1_665
Ni2 Ni3 2.429506 1_555
Ni2 Ni3 2.474285 1_655
Ni4 Ni5 2.429506 1_555
Ni4 Ni5 2.474285 1_655
Ni6 Ni7 2.429505 1_555
Ni6 Ni8 2.429506 1_555
Ni6 Ni7 2.474284 1_565
Ni6 Ni8 2.474285 1_665
Ni7 Ni8 2.429506 1_555
Ni7 Ni8 2.474285 1_655
Ni10 Ni11 2.429505 1_555
Ni10 Ni9 2.429506 1_555
Ni10 Ni11 2.474284 1_565
Ni10 Ni9 2.474285 1_455
Ni11 Ni9 2.429506 1_555
Ni11 Ni9 2.474285 1_445
Ir0 Ni3 2.532444 1_545
Ir0 Ni7 2.532444 1_454
Ir0 Ni0 2.532449 1_555
Ir0 Ni6 2.532449 1_444
Ir0 Ni2 2.532449 1_445
Ir0 Ni8 2.532449 1_554
Ir0 Lu1 2.914862 1_455
Ir0 Lu3 2.914862 1_544
Ir0 Lu1 2.914866 1_445
Ir0 Lu3 2.914866 1_554
Ir0 Lu1 2.914867 1_555
Ir0 Lu3 2.914867 1_444
Ir1 Ni4 2.532444 1_455
Ir1 Ni10 2.532444 1_545
Ir1 Ni1 2.532449 1_445
Ir1 Ni11 2.532449 1_555
Ir1 Ni5 2.532449 1_555
Ir1 Ni9 2.532449 1_445
Ir1 Lu0 2.914862 1_545
Ir1 Lu2 2.914862 1_455
Ir1 Lu0 2.914866 1_555
Ir1 Lu2 2.914866 1_445
Ir1 Lu2 2.914867 1_555
Ir1 Lu0 2.914867 1_445
