# generated using pymatgen
data_ZrSn3(SeO3)8
_symmetry_space_group_name_H-M   'P 1'
_cell_length_a   8.33921353
_cell_length_b   8.33921353
_cell_length_c   8.33921353
_cell_angle_alpha   89.69326831
_cell_angle_beta   90.30673169
_cell_angle_gamma   90.30673169
_symmetry_Int_Tables_number   1
_chemical_formula_structural   ZrSn3(SeO3)8
_chemical_formula_sum   'Zr1 Sn3 Se8 O24'
_cell_volume   579.90476786
_cell_formula_units_Z   1
loop_
 _symmetry_equiv_pos_site_id
 _symmetry_equiv_pos_as_xyz
  1  'x, y, z'
loop_
 _atom_site_type_symbol
 _atom_site_label
 _atom_site_symmetry_multiplicity
 _atom_site_fract_x
 _atom_site_fract_y
 _atom_site_fract_z
 _atom_site_occupancy
  Zr  Zr0  1  0.50000000  0.50000000  0.00000000  1
  Sn  Sn0  1  0.50000000  0.00000000  0.50000000  1
  Sn  Sn1  1  0.00000000  0.00000000  0.00000000  1
  Sn  Sn2  1  0.00000000  0.50000000  0.50000000  1
  Se  Se0  1  0.82865719  0.17134281  0.67134281  1
  Se  Se1  1  0.17134281  0.82865719  0.32865719  1
  Se  Se2  1  0.68319068  0.67962571  0.65722349  1
  Se  Se3  1  0.15722349  0.68319068  0.82037429  1
  Se  Se4  1  0.32037429  0.15722349  0.81680932  1
  Se  Se5  1  0.84277651  0.31680932  0.17962571  1
  Se  Se6  1  0.67962571  0.84277651  0.18319068  1
  Se  Se7  1  0.31680932  0.32037429  0.34277651  1
  O  O0  1  0.24042421  0.45681041  0.47517084  1
  O  O1  1  0.97517084  0.24042421  0.04318959  1
  O  O2  1  0.03931858  0.74069451  0.45901228  1
  O  O3  1  0.44565331  0.26588585  0.93397516  1
  O  O4  1  0.25930549  0.95901228  0.46068142  1
  O  O5  1  0.56602484  0.55434669  0.76588585  1
  O  O6  1  0.95901228  0.03931858  0.75930549  1
  O  O7  1  0.55434669  0.73411415  0.06602484  1
  O  O8  1  0.54318959  0.97517084  0.25957579  1
  O  O9  1  0.45681041  0.02482916  0.74042421  1
  O  O10  1  0.75899768  0.96872126  0.04007517  1
  O  O11  1  0.26588585  0.56602484  0.94565331  1
  O  O12  1  0.03127874  0.54007517  0.74100232  1
  O  O13  1  0.04098772  0.96068142  0.24069451  1
  O  O14  1  0.24100232  0.03127874  0.95992483  1
  O  O15  1  0.43397516  0.44565331  0.23411415  1
  O  O16  1  0.75957579  0.54318959  0.52482916  1
  O  O17  1  0.96872126  0.45992483  0.25899768  1
  O  O18  1  0.02482916  0.75957579  0.95681041  1
  O  O19  1  0.45992483  0.24100232  0.46872126  1
  O  O20  1  0.54007517  0.75899768  0.53127874  1
  O  O21  1  0.96068142  0.25930549  0.54098772  1
  O  O22  1  0.74069451  0.04098772  0.53931858  1
  O  O23  1  0.73411415  0.43397516  0.05434669  1
loop_
_geom_bond_atom_site_label_1
_geom_bond_atom_site_label_2
_geom_bond_distance
_geom_bond_site_symmetry_2
O0 Se7 1.716967 1_555
O0 Sn2 2.050704 1_555
O1 Se5 1.716967 1_555
O1 Sn1 2.050704 1_655
O2 Se1 1.711011 1_555
O2 Sn2 2.059129 1_555
O3 Se4 1.689871 1_555
O3 Zr0 2.078341 1_556
O4 Se1 1.711011 1_555
O4 Sn0 2.059129 1_565
O5 Se2 1.689871 1_555
O5 Zr0 2.078341 1_556
O6 Se0 1.711011 1_555
O6 Sn1 2.059129 1_656
O7 Se6 1.689871 1_555
O7 Zr0 2.078341 1_555
O8 Se6 1.716967 1_555
O8 Sn0 2.050704 1_565
O9 Se4 1.716967 1_555
O9 Sn0 2.050704 1_555
O10 Se6 1.718478 1_555
O10 Sn1 2.054153 1_665
O11 Se3 1.689871 1_555
O11 Zr0 2.078341 1_556
O12 Se3 1.718478 1_555
O12 Sn2 2.054153 1_555
O13 Se1 1.711011 1_555
O13 Sn1 2.059129 1_565
O14 Se4 1.718478 1_555
O14 Sn1 2.054153 1_556
O15 Se7 1.689871 1_555
O15 Zr0 2.078341 1_555
O16 Se2 1.716967 1_555
O16 Sn2 2.050704 1_655
O17 Se5 1.718478 1_555
O17 Sn2 2.054153 1_655
O18 Se3 1.716967 1_555
O18 Sn1 2.050704 1_566
O19 Se7 1.718478 1_555
O19 Sn0 2.054153 1_555
O20 Se2 1.718478 1_555
O20 Sn0 2.054153 1_565
O21 Se0 1.711011 1_555
O21 Sn2 2.059129 1_655
O22 Se0 1.711011 1_555
O22 Sn0 2.059129 1_555
O23 Se5 1.689871 1_555
O23 Zr0 2.078341 1_555
