# generated using pymatgen
data_Er2CdS4
_symmetry_space_group_name_H-M   'P 1'
_cell_length_a   7.88665537
_cell_length_b   7.88665452
_cell_length_c   7.88665488
_cell_angle_alpha   60.00000278
_cell_angle_beta   60.00000634
_cell_angle_gamma   59.99999824
_symmetry_Int_Tables_number   1
_chemical_formula_structural   Er2CdS4
_chemical_formula_sum   'Er4 Cd2 S8'
_cell_volume   346.86744661
_cell_formula_units_Z   2
loop_
 _symmetry_equiv_pos_site_id
 _symmetry_equiv_pos_as_xyz
  1  'x, y, z'
loop_
 _atom_site_type_symbol
 _atom_site_label
 _atom_site_symmetry_multiplicity
 _atom_site_fract_x
 _atom_site_fract_y
 _atom_site_fract_z
 _atom_site_occupancy
  Er  Er0  1  0.50000000  0.50000000  -0.00000000  1
  Er  Er1  1  0.50000000  0.50000000  0.50000000  1
  Er  Er2  1  0.00000000  0.50000000  0.50000000  1
  Er  Er3  1  0.50000000  0.00000000  0.50000000  1
  Cd  Cd0  1  0.12500000  0.12500000  0.12500000  1
  Cd  Cd1  1  0.87500000  0.87500000  0.87500000  1
  S  S0  1  0.74233628  0.74233628  0.74233628  1
  S  S1  1  0.25766372  0.25766372  0.72700883  1
  S  S2  1  0.25766372  0.72700883  0.25766372  1
  S  S3  1  0.72700883  0.25766372  0.25766372  1
  S  S4  1  0.74233628  0.27299117  0.74233628  1
  S  S5  1  0.27299117  0.74233628  0.74233628  1
  S  S6  1  0.25766372  0.25766372  0.25766372  1
  S  S7  1  0.74233628  0.74233628  0.27299117  1
loop_
_geom_bond_atom_site_label_1
_geom_bond_atom_site_label_2
_geom_bond_distance
_geom_bond_site_symmetry_2
Er0 S3 2.705579 1_555
Er0 S5 2.705579 1_554
Er0 S2 2.705579 1_555
Er0 S4 2.705579 1_554
Er0 S0 2.705579 1_554
Er0 S6 2.705579 1_555
Er1 S5 2.705579 1_555
Er1 S3 2.705579 1_555
Er1 S4 2.705579 1_555
Er1 S2 2.705579 1_555
Er1 S1 2.705579 1_555
Er1 S7 2.705579 1_555
Er2 S7 2.705579 1_455
Er2 S1 2.705579 1_555
Er2 S0 2.705579 1_455
Er2 S6 2.705579 1_555
Er2 S4 2.705579 1_455
Er2 S2 2.705579 1_555
Er3 S1 2.705579 1_555
Er3 S7 2.705579 1_545
Er3 S0 2.705579 1_545
Er3 S6 2.705579 1_555
Er3 S3 2.705579 1_555
Er3 S5 2.705579 1_545
Cd0 S2 2.562835 1_545
Cd0 S6 2.562835 1_555
Cd0 S1 2.562835 1_554
Cd0 S3 2.562835 1_455
Cd1 S4 2.562835 1_565
Cd1 S0 2.562835 1_555
Cd1 S7 2.562835 1_556
Cd1 S5 2.562835 1_655
