# generated using pymatgen
data_CaCd3(Ru2O7)2
_symmetry_space_group_name_H-M   'P 1'
_cell_length_a   7.17345068
_cell_length_b   7.21004565
_cell_length_c   7.17345133
_cell_angle_alpha   60.16775783
_cell_angle_beta   60.00000148
_cell_angle_gamma   60.16775481
_symmetry_Int_Tables_number   1
_chemical_formula_structural   CaCd3(Ru2O7)2
_chemical_formula_sum   'Ca1 Cd3 Ru4 O14'
_cell_volume   263.01218300
_cell_formula_units_Z   1
loop_
 _symmetry_equiv_pos_site_id
 _symmetry_equiv_pos_as_xyz
  1  'x, y, z'
loop_
 _atom_site_type_symbol
 _atom_site_label
 _atom_site_symmetry_multiplicity
 _atom_site_fract_x
 _atom_site_fract_y
 _atom_site_fract_z
 _atom_site_occupancy
  Ca  Ca0  1  0.62500000  0.12500000  0.62500000  1
  Cd  Cd0  1  0.62500000  0.62500000  0.12500000  1
  Cd  Cd1  1  0.12500000  0.62500000  0.62500000  1
  Cd  Cd2  1  0.62500000  0.62500000  0.62500000  1
  Ru  Ru0  1  0.62500000  0.12500000  0.12500000  1
  Ru  Ru1  1  0.12500000  0.62500000  0.12500000  1
  Ru  Ru2  1  0.12500000  0.12500000  0.62500000  1
  Ru  Ru3  1  0.12500000  0.12500000  0.12500000  1
  O  O0  1  0.19699261  0.20261622  0.80019609  1
  O  O1  1  0.19033766  0.81080959  0.19033766  1
  O  O2  1  0.44980391  0.04738378  0.05300739  1
  O  O3  1  0.19033766  0.81080959  0.80851409  1
  O  O4  1  0.05966234  0.43919041  0.44148591  1
  O  O5  1  0.80851409  0.81080959  0.19033766  1
  O  O6  1  0.44148591  0.43919041  0.05966234  1
  O  O7  1  0.49420167  0.51739599  0.49420167  1
  O  O8  1  0.05300739  0.04738378  0.44980391  1
  O  O9  1  0.44980391  0.04738378  0.44980391  1
  O  O10  1  0.05966234  0.43919041  0.05966234  1
  O  O11  1  0.75579833  0.73260401  0.75579833  1
  O  O12  1  0.80019609  0.20261622  0.80019609  1
  O  O13  1  0.80019609  0.20261622  0.19699261  1
loop_
_geom_bond_atom_site_label_1
_geom_bond_atom_site_label_2
_geom_bond_distance
_geom_bond_site_symmetry_2
Ca0 O7 2.315866 1_555
Ca0 O11 2.315866 1_545
Ca0 O8 2.539872 1_655
Ca0 O0 2.539872 1_555
Ca0 O2 2.539872 1_556
Ca0 O13 2.539872 1_555
Ca0 O12 2.539878 1_555
Ca0 O9 2.539878 1_555
Cd0 O7 2.165991 1_555
Cd0 O11 2.165991 1_554
Cd0 O2 2.529228 1_565
Cd0 O13 2.529228 1_555
Cd0 O5 2.596890 1_555
Cd0 O6 2.596890 1_555
Cd0 O10 2.596896 1_655
Cd0 O1 2.596896 1_555
Cd1 O7 2.165990 1_555
Cd1 O11 2.165990 1_455
Cd1 O8 2.529228 1_565
Cd1 O0 2.529228 1_555
Cd1 O3 2.596890 1_555
Cd1 O4 2.596890 1_555
Cd1 O10 2.596897 1_556
Cd1 O1 2.596897 1_555
Cd2 O11 2.165984 1_555
Cd2 O7 2.165984 1_555
Cd2 O9 2.529229 1_565
Cd2 O12 2.529229 1_555
Cd2 O4 2.596895 1_655
Cd2 O3 2.596895 1_555
Cd2 O6 2.596896 1_556
Cd2 O5 2.596896 1_555
O0 Ru3 1.948232 1_556
O0 Ru2 1.948238 1_555
O1 Ru3 1.917815 1_565
O1 Ru1 1.924386 1_555
O2 Ru3 1.948232 1_555
O2 Ru0 1.948238 1_555
O3 Ru2 1.917813 1_565
O3 Ru1 1.924391 1_556
O4 Ru2 1.917813 1_555
O4 Ru1 1.924391 1_555
O5 Ru0 1.917813 1_565
O5 Ru1 1.924391 1_655
O6 Ru0 1.917813 1_555
O6 Ru1 1.924391 1_555
O8 Ru3 1.948232 1_555
O8 Ru2 1.948238 1_555
O9 Ru2 1.948233 1_555
O9 Ru0 1.948233 1_555
O10 Ru3 1.917815 1_555
O10 Ru1 1.924386 1_555
O12 Ru2 1.948233 1_655
O12 Ru0 1.948233 1_556
O13 Ru3 1.948232 1_655
O13 Ru0 1.948238 1_555
