# generated using pymatgen
data_KHf2N3
_symmetry_space_group_name_H-M   'P 1'
_cell_length_a   6.40778678
_cell_length_b   6.40778688
_cell_length_c   5.79104498
_cell_angle_alpha   90.00000000
_cell_angle_beta   90.00000000
_cell_angle_gamma   118.97508956
_symmetry_Int_Tables_number   1
_chemical_formula_structural   KHf2N3
_chemical_formula_sum   'K2 Hf4 N6'
_cell_volume   208.01608435
_cell_formula_units_Z   2
loop_
 _symmetry_equiv_pos_site_id
 _symmetry_equiv_pos_as_xyz
  1  'x, y, z'
loop_
 _atom_site_type_symbol
 _atom_site_label
 _atom_site_symmetry_multiplicity
 _atom_site_fract_x
 _atom_site_fract_y
 _atom_site_fract_z
 _atom_site_occupancy
  K  K0  1  0.66029147  0.66029147  0.47451950  1
  K  K1  1  0.33970853  0.33970853  0.97451950  1
  Hf  Hf0  1  0.32802355  0.97848080  0.49102038  1
  Hf  Hf1  1  0.97848080  0.32802355  0.49102038  1
  Hf  Hf2  1  0.67197645  0.02151920  0.99102038  1
  Hf  Hf3  1  0.02151920  0.67197645  0.99102038  1
  N  N0  1  0.34258196  0.90235688  0.83599535  1
  N  N1  1  0.90235688  0.34258196  0.83599535  1
  N  N2  1  0.65741804  0.09764312  0.33599535  1
  N  N3  1  0.09764312  0.65741804  0.33599535  1
  N  N4  1  0.77963327  0.77963327  0.95944903  1
  N  N5  1  0.22036673  0.22036673  0.45944903  1
loop_
_geom_bond_atom_site_label_1
_geom_bond_atom_site_label_2
_geom_bond_distance
_geom_bond_site_symmetry_2
K0 N5 2.863830 1_555
K0 N4 2.913634 1_555
K0 N3 2.923631 1_655
K0 N2 2.923631 1_565
K0 N4 3.082219 1_554
K1 N4 2.863830 1_555
K1 N5 2.913634 1_556
K1 N1 2.923631 1_455
K1 N0 2.923631 1_545
K1 N5 3.082219 1_555
Hf0 N5 1.986854 1_565
Hf0 N3 2.067665 1_555
Hf0 N0 2.069249 1_555
Hf0 N2 2.069432 1_565
Hf1 N5 1.986854 1_655
Hf1 N2 2.067665 1_555
Hf1 N1 2.069249 1_555
Hf1 N3 2.069432 1_655
Hf2 N4 1.986854 1_545
Hf2 N1 2.067665 1_555
Hf2 N2 2.069249 1_556
Hf2 N0 2.069432 1_545
Hf3 N4 1.986854 1_455
Hf3 N0 2.067665 1_555
Hf3 N3 2.069249 1_556
Hf3 N1 2.069432 1_455
