# generated using pymatgen
data_Zr16Nb3Ni4Pt
_symmetry_space_group_name_H-M   'P 1'
_cell_length_a   8.83359762
_cell_length_b   8.81723261
_cell_length_c   8.81723121
_cell_angle_alpha   59.99999411
_cell_angle_beta   60.06125838
_cell_angle_gamma   60.06126075
_symmetry_Int_Tables_number   1
_chemical_formula_structural   Zr16Nb3Ni4Pt
_chemical_formula_sum   'Zr16 Nb3 Ni4 Pt1'
_cell_volume   486.05860102
_cell_formula_units_Z   1
loop_
 _symmetry_equiv_pos_site_id
 _symmetry_equiv_pos_as_xyz
  1  'x, y, z'
loop_
 _atom_site_type_symbol
 _atom_site_label
 _atom_site_symmetry_multiplicity
 _atom_site_fract_x
 _atom_site_fract_y
 _atom_site_fract_z
 _atom_site_occupancy
  Zr  Zr0  1  0.19712411  0.60095896  0.60095896  1
  Zr  Zr1  1  0.59859070  0.20124470  0.60008330  1
  Zr  Zr2  1  0.59859070  0.60008330  0.60008330  1
  Zr  Zr3  1  0.59859070  0.60008330  0.20124470  1
  Zr  Zr4  1  0.45003489  0.45131429  0.04932541  1
  Zr  Zr5  1  0.05120599  0.04867806  0.45005848  1
  Zr  Zr6  1  0.45003489  0.04932541  0.04932541  1
  Zr  Zr7  1  0.05120599  0.45005848  0.45005848  1
  Zr  Zr8  1  0.05120599  0.45005848  0.04867806  1
  Zr  Zr9  1  0.45003489  0.04932541  0.45131429  1
  Zr  Zr10  1  0.81186469  0.81566783  0.18623374  1
  Zr  Zr11  1  0.18133428  0.18660785  0.81602793  1
  Zr  Zr12  1  0.81186469  0.18623374  0.18623374  1
  Zr  Zr13  1  0.18133428  0.81602793  0.81602793  1
  Zr  Zr14  1  0.18133428  0.81602793  0.18660785  1
  Zr  Zr15  1  0.81186469  0.18623374  0.81566783  1
  Nb  Nb0  1  0.83683357  0.49780325  0.83268159  1
  Nb  Nb1  1  0.83683357  0.83268159  0.83268159  1
  Nb  Nb2  1  0.83683357  0.83268159  0.49780325  1
  Ni  Ni0  1  0.82605069  0.39131644  0.39131644  1
  Ni  Ni1  1  0.39428149  0.82816296  0.38877777  1
  Ni  Ni2  1  0.39428149  0.38877777  0.38877777  1
  Ni  Ni3  1  0.39428149  0.38877777  0.82816296  1
  Pt  Pt0  1  0.50438935  0.83187022  0.83187022  1
loop_
_geom_bond_atom_site_label_1
_geom_bond_atom_site_label_2
_geom_bond_distance
_geom_bond_site_symmetry_2
Zr0 Zr13 3.206157 1_555
Zr0 Zr14 3.206180 1_555
Zr0 Zr11 3.206180 1_555
Zr1 Zr15 3.202219 1_555
Zr1 Zr12 3.202234 1_555
Zr1 Zr11 3.232912 1_555
Zr10 Zr3 3.202220 1_555
Zr10 Zr2 3.202229 1_555
Zr10 Zr14 3.266980 1_655
Zr10 Zr13 3.266988 1_654
Zr10 Zr15 3.267365 1_564
Zr10 Zr12 3.267366 1_565
Zr10 Zr9 3.272495 1_565
Zr10 Zr6 3.272495 1_565
Zr10 Zr8 3.298544 1_655
Zr10 Zr7 3.298549 1_655
Zr11 Zr7 3.266685 1_555
Zr11 Zr8 3.266706 1_556
Zr11 Zr15 3.266980 1_455
Zr11 Zr12 3.266988 1_456
Zr11 Zr14 3.267489 1_546
Zr11 Zr13 3.267489 1_545
Zr11 Zr9 3.293362 1_555
Zr11 Zr6 3.293376 1_556
Zr12 Zr3 3.202235 1_555
Zr12 Zr14 3.266988 1_645
Zr12 Zr15 3.267365 1_554
Zr12 Zr9 3.272495 1_555
Zr12 Zr4 3.272495 1_555
Zr12 Zr5 3.298552 1_655
Zr12 Zr8 3.298552 1_655
Zr13 Zr2 3.232901 1_555
Zr13 Zr5 3.266683 1_565
Zr13 Zr8 3.266684 1_556
Zr13 Zr15 3.266988 1_465
Zr13 Zr14 3.267489 1_556
Zr13 Zr9 3.293371 1_565
Zr13 Zr4 3.293371 1_556
Zr14 Zr3 3.232913 1_555
Zr14 Zr7 3.266685 1_555
Zr14 Zr5 3.266706 1_565
Zr14 Zr4 3.293362 1_555
Zr14 Zr6 3.293376 1_565
Zr15 Zr2 3.202229 1_555
Zr15 Zr4 3.272495 1_556
Zr15 Zr6 3.272495 1_556
Zr15 Zr5 3.298544 1_655
Zr15 Zr7 3.298549 1_655
Nb0 Zr11 2.904069 1_655
Nb0 Pt0 2.943837 1_555
Nb0 Zr12 2.944165 1_556
Nb0 Zr15 2.944165 1_555
Nb0 Nb2 2.952700 1_555
Nb0 Nb1 2.952700 1_555
Nb0 Zr7 3.064740 1_655
Nb0 Zr8 3.064748 1_656
Nb0 Zr4 3.097066 1_556
Nb0 Zr0 3.109910 1_655
Nb0 Zr2 3.164280 1_555
Nb0 Zr3 3.164295 1_556
Nb1 Zr13 2.904062 1_655
Nb1 Pt0 2.943837 1_555
Nb1 Zr10 2.944165 1_556
Nb1 Zr15 2.944165 1_565
Nb1 Nb2 2.952700 1_555
Nb1 Zr5 3.064743 1_665
Nb1 Zr8 3.064743 1_656
Nb1 Zr6 3.097066 1_566
Nb1 Zr0 3.109906 1_655
Nb1 Zr3 3.164287 1_556
Nb1 Zr1 3.164287 1_565
Nb2 Zr14 2.904069 1_655
Nb2 Pt0 2.943836 1_555
Nb2 Zr12 2.944165 1_565
Nb2 Zr10 2.944165 1_555
Nb2 Zr7 3.064740 1_655
Nb2 Zr5 3.064748 1_665
Nb2 Zr9 3.097067 1_565
Nb2 Zr0 3.109910 1_655
Nb2 Zr2 3.164281 1_555
Nb2 Zr1 3.164295 1_565
Ni0 Zr8 2.610956 1_655
Ni0 Zr5 2.610957 1_655
Ni0 Zr7 2.610963 1_655
Ni0 Zr3 2.611272 1_555
Ni0 Zr1 2.611272 1_555
Ni0 Zr2 2.611283 1_555
Ni0 Zr15 3.205853 1_555
Ni0 Zr10 3.205853 1_555
Ni0 Zr12 3.205853 1_555
Ni1 Zr6 2.579572 1_565
Ni1 Zr9 2.579572 1_565
Ni1 Zr3 2.599892 1_555
Ni1 Zr2 2.599904 1_555
Ni1 Zr5 2.606032 1_565
Ni1 Zr0 2.651209 1_555
Ni1 Zr10 3.166085 1_555
Ni1 Zr13 3.235127 1_555
Ni1 Zr14 3.235142 1_555
Ni2 Zr4 2.579572 1_555
Ni2 Zr9 2.579572 1_555
Ni2 Zr1 2.599905 1_555
Ni2 Zr3 2.599905 1_555
Ni2 Zr7 2.606030 1_555
Ni2 Zr0 2.651215 1_555
Ni2 Zr12 3.166085 1_555
Ni2 Zr11 3.235131 1_555
Ni2 Zr14 3.235132 1_555
Ni3 Zr6 2.579572 1_556
Ni3 Zr4 2.579572 1_556
Ni3 Zr1 2.599892 1_555
Ni3 Zr2 2.599904 1_555
Ni3 Zr8 2.606032 1_556
Ni3 Zr0 2.651209 1_555
Ni3 Zr15 3.166085 1_555
Ni3 Zr13 3.235127 1_555
Ni3 Zr11 3.235142 1_555
Pt0 Zr14 2.999678 1_556
Pt0 Zr11 2.999679 1_565
Pt0 Zr13 2.999689 1_555
Pt0 Zr9 3.069439 1_565
Pt0 Zr6 3.069440 1_566
Pt0 Zr4 3.069440 1_556
Pt0 Zr2 3.134933 1_555
Pt0 Zr3 3.134948 1_556
Pt0 Zr1 3.134948 1_565
