# generated using pymatgen
data_Hf12Al3Cu9N4
_symmetry_space_group_name_H-M   'P 1'
_cell_length_a   8.31543851
_cell_length_b   8.31545355
_cell_length_c   8.34962135
_cell_angle_alpha   60.13887961
_cell_angle_beta   60.13851574
_cell_angle_gamma   60.00318978
_symmetry_Int_Tables_number   1
_chemical_formula_structural   Hf12Al3Cu9N4
_chemical_formula_sum   'Hf12 Al3 Cu9 N4'
_cell_volume   409.11055196
_cell_formula_units_Z   1
loop_
 _symmetry_equiv_pos_site_id
 _symmetry_equiv_pos_as_xyz
  1  'x, y, z'
loop_
 _atom_site_type_symbol
 _atom_site_label
 _atom_site_symmetry_multiplicity
 _atom_site_fract_x
 _atom_site_fract_y
 _atom_site_fract_z
 _atom_site_occupancy
  Hf  Hf0  1  0.80923671  0.19407203  0.18745148  1
  Hf  Hf1  1  0.19408353  0.80922408  0.18746126  1
  Hf  Hf2  1  0.80923288  0.80922909  0.18746438  1
  Hf  Hf3  1  0.19012977  0.80916597  0.81057469  1
  Hf  Hf4  1  0.80915643  0.19013702  0.81056409  1
  Hf  Hf5  1  0.19013914  0.19013502  0.81056726  1
  Hf  Hf6  1  0.44076329  0.05592797  0.06254852  1
  Hf  Hf7  1  0.05591647  0.44077592  0.06253874  1
  Hf  Hf8  1  0.44076712  0.44077091  0.06253562  1
  Hf  Hf9  1  0.05987023  0.44083403  0.43942531  1
  Hf  Hf10  1  0.44084357  0.05986298  0.43943591  1
  Hf  Hf11  1  0.05986086  0.05986498  0.43943274  1
  Al  Al0  1  0.62500000  0.62500000  0.62500000  1
  Al  Al1  1  0.12500000  0.62500000  0.62500000  1
  Al  Al2  1  0.62500000  0.12500000  0.62500000  1
  Cu  Cu0  1  0.41679320  0.41680361  0.74960078  1
  Cu  Cu1  1  0.41866556  0.41865301  0.41618002  1
  Cu  Cu2  1  0.74650173  0.41864534  0.41618952  1
  Cu  Cu3  1  0.41863439  0.74650559  0.41622232  1
  Cu  Cu4  1  0.83320680  0.83319639  0.50039922  1
  Cu  Cu5  1  0.83133444  0.83134699  0.83381998  1
  Cu  Cu6  1  0.50349827  0.83135466  0.83381048  1
  Cu  Cu7  1  0.83136561  0.50349441  0.83377768  1
  Cu  Cu8  1  0.62500000  0.62500000  0.12500000  1
  N  N0  1  0.12500000  0.12500000  0.62500000  1
  N  N1  1  0.12500000  0.12500000  0.12500000  1
  N  N2  1  0.62500000  0.12500000  0.12500000  1
  N  N3  1  0.12500000  0.62500000  0.12500000  1
loop_
_geom_bond_atom_site_label_1
_geom_bond_atom_site_label_2
_geom_bond_distance
_geom_bond_site_symmetry_2
Hf0 N2 2.218661 1_555
Hf0 N1 2.218783 1_655
Hf1 N3 2.218690 1_555
Hf1 N1 2.218851 1_565
Hf2 N3 2.218829 1_655
Hf2 N2 2.218867 1_565
Hf3 N3 2.222784 1_556
Hf3 N0 2.225487 1_565
Hf4 N2 2.222823 1_556
Hf4 N0 2.225507 1_655
Hf5 N1 2.222763 1_556
Hf5 N0 2.225358 1_555
Hf6 N2 2.218661 1_555
Hf6 N1 2.218783 1_555
Hf7 N3 2.218690 1_555
Hf7 N1 2.218851 1_555
Hf8 N3 2.218829 1_555
Hf8 N2 2.218867 1_555
Hf9 N3 2.222784 1_555
Hf9 N0 2.225487 1_555
Hf10 N2 2.222823 1_555
Hf10 N0 2.225507 1_555
Hf11 N1 2.222763 1_555
Hf11 N0 2.225358 1_555
Al0 Cu4 2.546943 1_555
Al0 Cu0 2.546943 1_555
Al0 Cu7 2.548663 1_555
Al0 Cu3 2.548663 1_555
Al0 Cu6 2.548815 1_555
Al0 Cu2 2.548815 1_555
Al0 Hf10 3.011356 1_565
Al0 Hf4 3.011356 1_555
Al0 Hf9 3.011407 1_655
Al0 Hf3 3.011407 1_555
Al0 Hf8 3.039810 1_556
Al0 Hf2 3.039810 1_555
Al1 Cu0 2.546933 1_555
Al1 Cu4 2.546933 1_455
Al1 Cu3 2.548699 1_555
Al1 Cu7 2.548699 1_455
Al1 Cu5 2.548922 1_455
Al1 Cu1 2.548922 1_555
Al1 Hf3 3.011206 1_555
Al1 Hf9 3.011206 1_555
Al1 Hf11 3.011344 1_565
Al1 Hf5 3.011344 1_555
Al1 Hf7 3.039787 1_556
Al1 Hf1 3.039787 1_555
Al2 Cu0 2.546998 1_555
Al2 Cu4 2.546998 1_545
Al2 Cu2 2.548767 1_555
Al2 Cu6 2.548767 1_545
Al2 Cu5 2.548852 1_545
Al2 Cu1 2.548852 1_555
Al2 Hf4 3.011105 1_555
Al2 Hf10 3.011105 1_555
Al2 Hf11 3.011302 1_655
Al2 Hf5 3.011302 1_555
Al2 Hf6 3.039866 1_556
Al2 Hf0 3.039866 1_555
Cu0 Cu3 2.768596 1_555
Cu0 Cu1 2.768615 1_555
Cu0 Cu2 2.768745 1_555
Cu0 Hf8 2.825533 1_556
Cu0 Hf7 2.825700 1_556
Cu0 Hf6 2.825749 1_556
Cu0 Hf5 3.000874 1_555
Cu0 Hf4 3.001025 1_555
Cu0 Hf3 3.001054 1_555
Cu1 Cu8 2.536652 1_555
Cu1 Cu2 2.726109 1_555
Cu1 Cu3 2.726289 1_555
Cu1 Hf8 2.781943 1_555
Cu1 Hf10 2.807419 1_555
Cu1 Hf9 2.807483 1_555
Cu1 Hf1 2.998859 1_555
Cu1 Hf0 2.998870 1_555
Cu1 Hf5 3.035430 1_555
Cu2 Cu8 2.536680 1_555
Cu2 Cu3 2.726465 1_555
Cu2 Hf7 2.782052 1_655
Cu2 Hf9 2.807434 1_655
Cu2 Hf11 2.807497 1_655
Cu2 Hf0 2.998732 1_555
Cu2 Hf2 2.998905 1_555
Cu2 Hf4 3.035277 1_555
Cu3 Cu8 2.536908 1_555
Cu3 Hf6 2.782204 1_565
Cu3 Hf10 2.807337 1_565
Cu3 Hf11 2.807463 1_565
Cu3 Hf1 2.998806 1_555
Cu3 Hf2 2.998973 1_555
Cu3 Hf3 3.035122 1_555
Cu4 Cu7 2.768596 1_555
Cu4 Cu5 2.768615 1_555
Cu4 Cu6 2.768745 1_555
Cu4 Hf2 2.825533 1_555
Cu4 Hf1 2.825700 1_655
Cu4 Hf0 2.825749 1_565
Cu4 Hf11 3.000874 1_665
Cu4 Hf10 3.001025 1_565
Cu4 Hf9 3.001054 1_655
Cu5 Cu8 2.536652 1_556
Cu5 Cu6 2.726109 1_555
Cu5 Cu7 2.726289 1_555
Cu5 Hf2 2.781943 1_556
Cu5 Hf4 2.807419 1_565
Cu5 Hf3 2.807483 1_655
Cu5 Hf7 2.998859 1_656
Cu5 Hf6 2.998870 1_566
Cu5 Hf11 3.035430 1_665
Cu6 Cu8 2.536680 1_556
Cu6 Cu7 2.726465 1_555
Cu6 Hf1 2.782052 1_556
Cu6 Hf3 2.807434 1_555
Cu6 Hf5 2.807497 1_565
Cu6 Hf6 2.998732 1_566
Cu6 Hf8 2.998905 1_556
Cu6 Hf10 3.035277 1_565
Cu7 Cu8 2.536908 1_556
Cu7 Hf0 2.782204 1_556
Cu7 Hf4 2.807337 1_555
Cu7 Hf5 2.807463 1_655
Cu7 Hf7 2.998806 1_656
Cu7 Hf8 2.998973 1_556
Cu7 Hf9 3.035122 1_655
Cu8 Hf2 2.983927 1_555
Cu8 Hf8 2.983927 1_555
Cu8 Hf7 2.984028 1_655
Cu8 Hf1 2.984028 1_555
Cu8 Hf6 2.984134 1_565
Cu8 Hf0 2.984134 1_555
