# generated using pymatgen
data_CdAg2(PS3)2
_symmetry_space_group_name_H-M   'P 1'
_cell_length_a   6.42617638
_cell_length_b   6.42617608
_cell_length_c   13.76866882
_cell_angle_alpha   85.84376345
_cell_angle_beta   85.84376171
_cell_angle_gamma   119.90186281
_symmetry_Int_Tables_number   1
_chemical_formula_structural   CdAg2(PS3)2
_chemical_formula_sum   'Cd2 Ag4 P4 S12'
_cell_volume   487.70712030
_cell_formula_units_Z   2
loop_
 _symmetry_equiv_pos_site_id
 _symmetry_equiv_pos_as_xyz
  1  'x, y, z'
loop_
 _atom_site_type_symbol
 _atom_site_label
 _atom_site_symmetry_multiplicity
 _atom_site_fract_x
 _atom_site_fract_y
 _atom_site_fract_z
 _atom_site_occupancy
  Cd  Cd0  1  0.42499799  0.57500201  0.25000000  1
  Cd  Cd1  1  0.57500201  0.42499799  0.75000000  1
  Ag  Ag0  1  0.05114583  0.87161873  0.36160278  1
  Ag  Ag1  1  0.94885417  0.12838127  0.63839722  1
  Ag  Ag2  1  0.12838127  0.94885417  0.13839722  1
  Ag  Ag3  1  0.87161873  0.05114583  0.86160278  1
  P  P0  1  0.21448285  0.72810949  0.83351313  1
  P  P1  1  0.78551715  0.27189051  0.16648687  1
  P  P2  1  0.27189051  0.78551715  0.66648687  1
  P  P3  1  0.72810949  0.21448285  0.33351313  1
  S  S0  1  0.47635908  0.66912451  0.87927378  1
  S  S1  1  0.52364092  0.33087549  0.12072622  1
  S  S2  1  0.33087549  0.52364092  0.62072622  1
  S  S3  1  0.66912451  0.47635908  0.37927378  1
  S  S4  1  0.03234263  0.24283728  0.38106180  1
  S  S5  1  0.96765737  0.75716272  0.61893820  1
  S  S6  1  0.75716272  0.96765737  0.11893820  1
  S  S7  1  0.24283728  0.03234263  0.88106180  1
  S  S8  1  0.11996770  0.56326776  0.12345860  1
  S  S9  1  0.88003230  0.43673224  0.87654140  1
  S  S10  1  0.43673224  0.88003230  0.37654140  1
  S  S11  1  0.56326776  0.11996770  0.62345860  1
loop_
_geom_bond_atom_site_label_1
_geom_bond_atom_site_label_2
_geom_bond_distance
_geom_bond_site_symmetry_2
Cd0 S10 2.692645 1_555
Cd0 S8 2.692645 1_555
Cd0 S1 2.695147 1_555
Cd0 S3 2.695147 1_555
Cd0 S6 2.755207 1_555
Cd0 S4 2.755207 1_555
Cd1 S11 2.692645 1_555
Cd1 S9 2.692645 1_555
Cd1 S0 2.695147 1_555
Cd1 S2 2.695147 1_555
Cd1 S7 2.755207 1_555
Cd1 S5 2.755207 1_555
Ag0 S10 2.475251 1_555
Ag0 S3 2.478778 1_455
Ag0 S4 2.480406 1_565
Ag1 S11 2.475251 1_555
Ag1 S2 2.478778 1_655
Ag1 S5 2.480406 1_545
Ag2 S8 2.475251 1_555
Ag2 S1 2.478778 1_565
Ag2 S6 2.480406 1_455
Ag3 S9 2.475251 1_555
Ag3 S0 2.478778 1_545
Ag3 S7 2.480406 1_655
P0 S9 2.029410 1_455
P0 S0 2.031687 1_555
P0 S7 2.032658 1_565
P0 P2 2.275808 1_555
P1 S8 2.029410 1_655
P1 S1 2.031687 1_555
P1 S6 2.032658 1_545
P1 P3 2.275808 1_555
P2 S11 2.029410 1_565
P2 S2 2.031687 1_555
P2 S5 2.032658 1_455
P3 S10 2.029410 1_545
P3 S3 2.031687 1_555
P3 S4 2.032658 1_655
