# generated using pymatgen
data_Sn14(IrRu)3
_symmetry_space_group_name_H-M   'P 1'
_cell_length_a   8.15422029
_cell_length_b   8.15422030
_cell_length_c   8.15421993
_cell_angle_alpha   109.22803992
_cell_angle_beta   109.49248235
_cell_angle_gamma   109.69347985
_symmetry_Int_Tables_number   1
_chemical_formula_structural   Sn14(IrRu)3
_chemical_formula_sum   'Sn14 Ir3 Ru3'
_cell_volume   417.36707049
_cell_formula_units_Z   1
loop_
 _symmetry_equiv_pos_site_id
 _symmetry_equiv_pos_as_xyz
  1  'x, y, z'
loop_
 _atom_site_type_symbol
 _atom_site_label
 _atom_site_symmetry_multiplicity
 _atom_site_fract_x
 _atom_site_fract_y
 _atom_site_fract_z
 _atom_site_occupancy
  Sn  Sn0  1  0.25357455  0.75103155  0.50254300  1
  Sn  Sn1  1  0.75151045  0.24896845  0.50254300  1
  Sn  Sn2  1  0.74850678  0.50000000  0.24850678  1
  Sn  Sn3  1  0.25260988  0.50000000  0.75260988  1
  Sn  Sn4  1  0.50254301  0.74904509  0.25158811  1
  Sn  Sn5  1  0.50254301  0.25095491  0.75349792  1
  Sn  Sn6  1  0.99681148  0.99706631  0.32396179  1
  Sn  Sn7  1  0.67317069  0.99720235  0.99694871  1
  Sn  Sn8  1  0.99681148  0.67284968  0.99974516  1
  Sn  Sn9  1  0.32689548  0.32715032  0.32396179  1
  Sn  Sn10  1  0.99974537  0.32377802  0.99694871  1
  Sn  Sn11  1  0.67317069  0.67622198  0.67596735  1
  Sn  Sn12  1  0.32689548  0.00293369  0.99974516  1
  Sn  Sn13  1  0.99974537  0.00279765  0.67596735  1
  Ir  Ir0  1  0.34104709  1.00000000  0.34104709  1
  Ir  Ir1  1  0.00013381  0.34362710  0.34376190  1
  Ir  Ir2  1  0.00013381  0.65637290  0.65650671  1
  Ru  Ru0  1  0.34347669  0.34345215  0.00002355  1
  Ru  Ru1  1  0.65657140  0.65654785  0.00002355  1
  Ru  Ru2  1  0.65410348  0.00000000  0.65410348  1
loop_
_geom_bond_atom_site_label_1
_geom_bond_atom_site_label_2
_geom_bond_distance
_geom_bond_site_symmetry_2
Sn6 Sn8 3.061876 1_554
Sn6 Sn7 3.063094 1_554
Sn6 Sn9 3.099435 1_665
Sn10 Sn8 2.847215 1_555
Sn10 Sn13 3.031317 1_555
Sn10 Sn9 3.063099 1_656
Sn10 Sn7 3.066488 1_545
Sn11 Sn9 2.847215 1_555
Sn11 Sn7 3.031317 1_555
Sn11 Sn8 3.063099 1_555
Sn11 Sn13 3.066488 1_565
Sn12 Sn7 2.847218 1_545
Sn12 Sn9 3.061876 1_556
Sn12 Sn13 3.063103 1_455
Sn12 Sn8 3.099435 1_445
Sn13 Sn6 2.847213 1_545
Ir0 Sn8 2.755113 1_454
Ir0 Sn12 2.755113 1_564
Ir0 Sn6 2.755113 1_455
Ir0 Sn9 2.755113 1_565
Ir0 Sn1 2.788573 1_565
Ir0 Sn0 2.788580 1_555
Ir0 Sn5 2.815650 1_565
Ir0 Sn4 2.815650 1_555
Ir1 Sn6 2.767248 1_445
Ir1 Sn9 2.767254 1_555
Ir1 Sn7 2.777755 1_444
Ir1 Sn10 2.777757 1_454
Ir1 Sn1 2.781638 1_455
Ir1 Sn0 2.781639 1_555
Ir1 Sn2 2.791276 1_455
Ir1 Sn3 2.798053 1_555
Ir2 Sn12 2.767250 1_565
Ir2 Sn8 2.767250 1_455
Ir2 Sn11 2.777749 1_455
Ir2 Sn13 2.777757 1_465
Ir2 Sn0 2.781638 1_555
Ir2 Sn1 2.781639 1_455
Ir2 Sn2 2.791274 1_455
Ir2 Sn3 2.798060 1_555
Ru0 Sn12 2.733269 1_554
Ru0 Sn9 2.733274 1_555
Ru0 Sn13 2.744038 1_454
Ru0 Sn10 2.744046 1_454
Ru0 Sn3 2.754057 1_554
Ru0 Sn2 2.762568 1_555
Ru0 Sn5 2.773631 1_554
Ru0 Sn4 2.773639 1_555
Ru1 Sn6 2.733271 1_555
Ru1 Sn8 2.733271 1_554
Ru1 Sn7 2.744030 1_554
Ru1 Sn11 2.744038 1_554
Ru1 Sn3 2.754055 1_554
Ru1 Sn2 2.762575 1_555
Ru1 Sn5 2.773638 1_554
Ru1 Sn4 2.773638 1_555
Ru2 Sn1 2.738716 1_555
Ru2 Sn0 2.738718 1_545
Ru2 Sn13 2.755823 1_555
Ru2 Sn10 2.755825 1_555
Ru2 Sn11 2.755826 1_545
Ru2 Sn7 2.755828 1_545
Ru2 Sn4 2.766275 1_545
Ru2 Sn5 2.766275 1_555
