# generated using pymatgen
data_Rb2Ta3Br7O5
_symmetry_space_group_name_H-M   'P 1'
_cell_length_a   10.05511150
_cell_length_b   10.05511136
_cell_length_c   11.35299722
_cell_angle_alpha   72.25379076
_cell_angle_beta   72.25379208
_cell_angle_gamma   51.99943531
_symmetry_Int_Tables_number   1
_chemical_formula_structural   Rb2Ta3Br7O5
_chemical_formula_sum   'Rb4 Ta6 Br14 O10'
_cell_volume   850.91049655
_cell_formula_units_Z   2
loop_
 _symmetry_equiv_pos_site_id
 _symmetry_equiv_pos_as_xyz
  1  'x, y, z'
loop_
 _atom_site_type_symbol
 _atom_site_label
 _atom_site_symmetry_multiplicity
 _atom_site_fract_x
 _atom_site_fract_y
 _atom_site_fract_z
 _atom_site_occupancy
  Rb  Rb0  1  0.84382505  0.75741915  0.85644252  1
  Rb  Rb1  1  0.15617495  0.24258085  0.14355748  1
  Rb  Rb2  1  0.24258085  0.15617495  0.64355748  1
  Rb  Rb3  1  0.75741915  0.84382505  0.35644252  1
  Ta  Ta0  1  0.46065446  0.53934554  0.75000000  1
  Ta  Ta1  1  0.21745948  0.78642023  0.02519443  1
  Ta  Ta2  1  0.21357977  0.78254052  0.47480557  1
  Ta  Ta3  1  0.78642023  0.21745948  0.52519443  1
  Ta  Ta4  1  0.53934554  0.46065446  0.25000000  1
  Ta  Ta5  1  0.78254052  0.21357977  0.97480557  1
  Br  Br0  1  0.93820101  0.36104743  0.88447631  1
  Br  Br1  1  0.06179899  0.63895257  0.11552369  1
  Br  Br2  1  0.59328201  0.70628621  0.67000535  1
  Br  Br3  1  0.07415299  0.92584701  0.25000000  1
  Br  Br4  1  0.36866361  0.93651354  0.95189859  1
  Br  Br5  1  0.06348646  0.63133639  0.54810141  1
  Br  Br6  1  0.93651354  0.36866361  0.45189859  1
  Br  Br7  1  0.70628621  0.59328201  0.17000535  1
  Br  Br8  1  0.40671799  0.29371379  0.32999465  1
  Br  Br9  1  0.36104743  0.93820101  0.38447631  1
  Br  Br10  1  0.92584701  0.07415299  0.75000000  1
  Br  Br11  1  0.63895257  0.06179899  0.61552369  1
  Br  Br12  1  0.29371379  0.40671799  0.82999465  1
  Br  Br13  1  0.63133639  0.06348646  0.04810141  1
  O  O0  1  0.70502364  0.29617683  0.37718823  1
  O  O1  1  0.60732540  0.39181057  0.87246891  1
  O  O2  1  0.39267460  0.60818943  0.12753109  1
  O  O3  1  0.70382317  0.29497636  0.12281177  1
  O  O4  1  0.29617683  0.70502364  0.87718923  1
  O  O5  1  0.00000000  0.00000000  0.00000000  1
  O  O6  1  0.29497636  0.70382317  0.62281177  1
  O  O7  1  0.39181057  0.60732540  0.37246891  1
  O  O8  1  0.60818943  0.39267460  0.62753109  1
  O  O9  1  0.00000000  0.00000000  0.50000000  1
loop_
_geom_bond_atom_site_label_1
_geom_bond_atom_site_label_2
_geom_bond_distance
_geom_bond_site_symmetry_2
Br0 Ta5 2.579241 1_555
Br0 Rb0 3.411785 1_555
Br0 Rb2 3.414698 1_655
Br0 Rb1 3.667904 1_656
Br1 Ta1 2.579241 1_555
Br1 Rb1 3.411785 1_555
Br1 Rb3 3.414698 1_455
Br1 Rb0 3.667904 1_454
Br2 Ta0 2.551422 1_555
Br2 Rb2 3.628224 1_565
Br2 Rb3 3.679256 1_555
Br3 Ta2 2.829745 1_555
Br3 Ta1 2.829745 1_555
Br3 Rb1 3.544574 1_565
Br3 Rb3 3.544574 1_455
Br4 Ta1 2.563249 1_556
Br4 Rb1 3.452874 1_566
Br4 Rb2 3.644719 1_565
Br4 Rb0 3.831931 1_555
Br5 Ta2 2.563249 1_555
Br5 Rb3 3.452874 1_455
Br5 Rb0 3.644719 1_455
Br5 Rb2 3.831931 1_555
Br6 Ta3 2.563249 1_555
Br6 Rb2 3.452874 1_655
Br6 Rb1 3.644719 1_655
Br6 Rb3 3.831931 1_555
Br7 Ta4 2.551422 1_555
Br7 Rb1 3.628224 1_655
Br7 Rb0 3.679256 1_554
Br8 Ta4 2.551422 1_555
Br8 Rb3 3.628224 1_545
Br8 Rb2 3.679256 1_555
Br9 Ta2 2.579241 1_555
Br9 Rb3 3.411785 1_555
Br9 Rb1 3.414698 1_565
Br9 Rb2 3.667904 1_565
Br10 Ta3 2.829745 1_555
Br10 Ta5 2.829745 1_555
Br10 Rb0 3.544574 1_545
Br10 Rb2 3.544574 1_655
Br11 Ta3 2.579241 1_555
Br11 Rb2 3.411785 1_555
Br11 Rb0 3.414698 1_545
Br11 Rb3 3.667904 1_545
Br12 Ta0 2.551422 1_555
Br12 Rb0 3.628224 1_455
Br12 Rb1 3.679256 1_556
Br13 Ta5 2.563249 1_554
Br13 Rb0 3.452874 1_544
Br13 Rb3 3.644719 1_545
Br13 Rb1 3.831931 1_555
O0 Ta3 1.830226 1_555
O0 Ta4 2.052704 1_555
O1 Ta0 1.899366 1_555
O1 Ta5 1.938105 1_555
O2 Ta4 1.899366 1_555
O2 Ta1 1.938105 1_555
O3 Ta5 1.830226 1_554
O3 Ta4 2.052704 1_555
O4 Ta1 1.830215 1_556
O4 Ta0 2.052712 1_555
O5 Ta1 1.923445 1_545
O5 Ta5 1.923445 1_454
O6 Ta2 1.830226 1_555
O6 Ta0 2.052704 1_555
O7 Ta4 1.899366 1_555
O7 Ta2 1.938105 1_555
O8 Ta0 1.899366 1_555
O8 Ta3 1.938105 1_555
O9 Ta3 1.923445 1_455
O9 Ta2 1.923445 1_545
