# generated using pymatgen
data_Rb2NaYAs2
_symmetry_space_group_name_H-M   'P 1'
_cell_length_a   9.37029409
_cell_length_b   9.37029345
_cell_length_c   9.37029330
_cell_angle_alpha   135.10915120
_cell_angle_beta   134.84644195
_cell_angle_gamma   65.56493448
_symmetry_Int_Tables_number   1
_chemical_formula_structural   Rb2NaYAs2
_chemical_formula_sum   'Rb4 Na2 Y2 As4'
_cell_volume   405.56359548
_cell_formula_units_Z   2
loop_
 _symmetry_equiv_pos_site_id
 _symmetry_equiv_pos_as_xyz
  1  'x, y, z'
loop_
 _atom_site_type_symbol
 _atom_site_label
 _atom_site_symmetry_multiplicity
 _atom_site_fract_x
 _atom_site_fract_y
 _atom_site_fract_z
 _atom_site_occupancy
  Rb  Rb0  1  0.68209579  0.39049342  0.70839763  1
  Rb  Rb1  1  0.81790421  0.02630185  0.20839763  1
  Rb  Rb2  1  0.18209579  0.97369815  0.79160237  1
  Rb  Rb3  1  0.31790421  0.60950658  0.29160237  1
  Na  Na0  1  0.75000000  0.00000000  0.75000000  1
  Na  Na1  1  0.25000000  0.00000000  0.25000000  1
  Y  Y0  1  0.25000000  0.50000000  0.75000000  1
  Y  Y1  1  0.75000000  0.50000000  0.25000000  1
  As  As0  1  0.40582538  0.18225337  0.77642799  1
  As  As1  1  0.59417462  0.81774663  0.22357201  1
  As  As2  1  0.09417462  0.37060261  0.27642799  1
  As  As3  1  0.90582538  0.62939739  0.72357201  1
loop_
_geom_bond_atom_site_label_1
_geom_bond_atom_site_label_2
_geom_bond_distance
_geom_bond_site_symmetry_2
As0 Y0 2.827744 1_555
As0 Y1 2.827744 1_556
As0 Na1 3.057641 1_555
As0 Na0 3.057642 1_555
As0 Rb2 3.526714 1_545
As0 Rb3 3.735393 1_545
As0 Rb1 3.885562 1_556
As0 Rb1 3.885562 1_455
As0 Rb3 3.937884 1_556
As1 Y1 2.827744 1_555
As1 Y0 2.827744 1_554
As1 Na0 3.057641 1_565
As1 Na1 3.057642 1_565
As1 Rb1 3.526714 1_565
As1 Rb0 3.735393 1_565
As1 Rb2 3.885562 1_554
As1 Rb2 3.885562 1_655
As1 Rb0 3.937884 1_554
As2 Y0 2.827744 1_555
As2 Y1 2.827744 1_455
As2 Na1 3.057642 1_555
As2 Na0 3.057642 1_454
As2 Rb3 3.526714 1_555
As2 Rb2 3.735393 1_544
As2 Rb0 3.885562 1_454
As2 Rb0 3.885562 1_555
As2 Rb2 3.937884 1_555
As3 Y1 2.827744 1_555
As3 Y0 2.827744 1_655
As3 Na0 3.057642 1_565
As3 Na1 3.057642 1_666
As3 Rb0 3.526714 1_555
As3 Rb1 3.735393 1_566
As3 Rb3 3.885562 1_656
As3 Rb3 3.885562 1_555
As3 Rb1 3.937884 1_555
