# generated using pymatgen
data_Zr6Ti7Al9Ir8
_symmetry_space_group_name_H-M   'P 1'
_cell_length_a   8.88899272
_cell_length_b   8.88899213
_cell_length_c   8.88899210
_cell_angle_alpha   59.74676533
_cell_angle_beta   59.74676882
_cell_angle_gamma   59.74677497
_symmetry_Int_Tables_number   1
_chemical_formula_structural   Zr6Ti7Al9Ir8
_chemical_formula_sum   'Zr6 Ti7 Al9 Ir8'
_cell_volume   493.78512419
_cell_formula_units_Z   1
loop_
 _symmetry_equiv_pos_site_id
 _symmetry_equiv_pos_as_xyz
  1  'x, y, z'
loop_
 _atom_site_type_symbol
 _atom_site_label
 _atom_site_symmetry_multiplicity
 _atom_site_fract_x
 _atom_site_fract_y
 _atom_site_fract_z
 _atom_site_occupancy
  Zr  Zr0  1  0.20903108  0.20903108  0.78987816  1
  Zr  Zr1  1  0.78987816  0.20903108  0.20903108  1
  Zr  Zr2  1  0.20903108  0.78987816  0.20903108  1
  Zr  Zr3  1  0.79466568  0.79466568  0.19696622  1
  Zr  Zr4  1  0.19696622  0.79466568  0.79466568  1
  Zr  Zr5  1  0.79466568  0.19696622  0.79466568  1
  Ti  Ti0  1  0.37825611  0.37825611  0.37825611  1
  Ti  Ti1  1  0.37890273  0.86479002  0.37890273  1
  Ti  Ti2  1  0.86479002  0.37890273  0.37890273  1
  Ti  Ti3  1  0.37890273  0.37890273  0.86479002  1
  Ti  Ti4  1  0.83503294  0.49913563  0.83503294  1
  Ti  Ti5  1  0.49913563  0.83503294  0.83503294  1
  Ti  Ti6  1  0.83503294  0.83503294  0.49913563  1
  Al  Al0  1  0.16322880  0.16322880  0.16322880  1
  Al  Al1  1  0.16622354  0.50351753  0.16622354  1
  Al  Al2  1  0.50351753  0.16622354  0.16622354  1
  Al  Al3  1  0.16622354  0.16622354  0.50351753  1
  Al  Al4  1  0.61982658  0.61982658  0.61982658  1
  Al  Al5  1  0.61919694  0.14362657  0.61919694  1
  Al  Al6  1  0.14362657  0.61919694  0.61919694  1
  Al  Al7  1  0.61919694  0.61919694  0.14362657  1
  Al  Al8  1  0.82777581  0.82777581  0.82777581  1
  Ir  Ir0  1  0.00345670  0.00345670  0.49796827  1
  Ir  Ir1  1  0.49796827  0.00345670  0.00345670  1
  Ir  Ir2  1  0.00345670  0.49796827  0.00345670  1
  Ir  Ir3  1  0.49856777  0.49856777  0.00229672  1
  Ir  Ir4  1  0.00229672  0.49856777  0.49856777  1
  Ir  Ir5  1  0.49856777  0.00229672  0.49856777  1
  Ir  Ir6  1  0.50085281  0.50085281  0.50085281  1
  Ir  Ir7  1  0.00172503  0.00172503  0.00172503  1
loop_
_geom_bond_atom_site_label_1
_geom_bond_atom_site_label_2
_geom_bond_distance
_geom_bond_site_symmetry_2
Ti0 Zr0 3.016819 1_555
Ti0 Zr2 3.016819 1_555
Ti0 Zr1 3.016820 1_555
Ti1 Zr2 3.054076 1_555
Ti1 Zr4 3.055203 1_555
Ti1 Zr3 3.055204 1_555
Ti2 Zr1 3.054076 1_555
Ti2 Zr5 3.055203 1_555
Ti2 Zr3 3.055203 1_555
Ti3 Zr0 3.054076 1_555
Ti3 Zr4 3.055204 1_555
Ti3 Zr5 3.055204 1_555
Al0 Ir0 2.530557 1_555
Al0 Ir2 2.530558 1_555
Al0 Ir1 2.530558 1_555
Al0 Ti3 2.800412 1_554
Al0 Ti1 2.800413 1_545
Al0 Ti2 2.800413 1_455
Al1 Ir2 2.538158 1_555
Al1 Ir4 2.539399 1_555
Al1 Ir3 2.539399 1_555
Al1 Ti0 2.773913 1_555
Al1 Ti2 2.785098 1_455
Al1 Ti3 2.785098 1_554
Al2 Ir1 2.538158 1_555
Al2 Ir5 2.539399 1_555
Al2 Ir3 2.539399 1_555
Al2 Ti0 2.773913 1_555
Al2 Ti1 2.785098 1_545
Al2 Ti3 2.785098 1_554
Al3 Ir0 2.538158 1_555
Al3 Ir4 2.539399 1_555
Al3 Ir5 2.539399 1_555
Al3 Ti0 2.773913 1_555
Al3 Ti1 2.785098 1_545
Al3 Ti2 2.785098 1_455
Al4 Ir6 2.595421 1_555
Al4 Ir3 2.769060 1_556
Al4 Ir5 2.769061 1_565
Al4 Ir4 2.769061 1_655
Al4 Ti6 2.832196 1_555
Al4 Ti5 2.832196 1_555
Al4 Ti4 2.832196 1_555
Al4 Ti3 3.022862 1_555
Al4 Ti1 3.022862 1_555
Al4 Ti2 3.022862 1_555
Al4 Zr3 3.101675 1_555
Al4 Zr5 3.101675 1_555
Al4 Zr4 3.101675 1_555
Al5 Ir6 2.584481 1_555
Al5 Al8 2.780462 1_545
Al5 Ir1 2.781405 1_556
Al5 Ir0 2.781405 1_655
Al5 Ir5 2.784075 1_555
Al5 Ti5 2.815676 1_545
Al5 Ti6 2.815677 1_545
Al5 Zr5 3.005352 1_555
Al5 Ti2 3.017058 1_555
Al5 Ti3 3.017058 1_555
Al5 Zr1 3.018593 1_555
Al5 Zr0 3.018594 1_555
Al5 Ti0 3.023881 1_555
Al6 Ir6 2.584481 1_555
Al6 Al8 2.780462 1_455
Al6 Ir2 2.781405 1_556
Al6 Ir0 2.781405 1_565
Al6 Ir4 2.784075 1_555
Al6 Ti4 2.815676 1_455
Al6 Ti6 2.815677 1_455
Al6 Zr4 3.005352 1_555
Al6 Ti1 3.017058 1_555
Al6 Ti3 3.017058 1_555
Al6 Zr2 3.018593 1_555
Al6 Zr0 3.018593 1_555
Al6 Ti0 3.023881 1_555
Al7 Ir6 2.584481 1_555
Al7 Al8 2.780462 1_554
Al7 Ir1 2.781405 1_565
Al7 Ir2 2.781405 1_655
Al7 Ir3 2.784075 1_555
Al7 Ti5 2.815676 1_554
Al7 Ti4 2.815676 1_554
Al7 Zr3 3.005352 1_555
Al7 Ti2 3.017058 1_555
Al7 Ti1 3.017058 1_555
Al7 Zr1 3.018594 1_555
Al7 Zr2 3.018594 1_555
Al7 Ti0 3.023881 1_555
Al8 Ir0 2.589011 1_665
Al8 Ir2 2.589011 1_656
Al8 Ir1 2.589011 1_566
Ir0 Ti6 2.590370 1_445
Ir0 Ti2 2.718013 1_455
Ir0 Ti1 2.718013 1_545
Ir0 Zr4 3.127465 1_545
Ir0 Zr5 3.127465 1_455
Ir0 Zr1 3.198182 1_455
Ir0 Zr2 3.198182 1_545
Ir1 Ti5 2.590370 1_544
Ir1 Ti1 2.718013 1_545
Ir1 Ti3 2.718013 1_554
Ir1 Zr5 3.127465 1_554
Ir1 Zr3 3.127465 1_545
Ir1 Zr2 3.198182 1_545
Ir1 Zr0 3.198182 1_554
Ir2 Ti4 2.590370 1_454
Ir2 Ti2 2.718013 1_455
Ir2 Ti3 2.718013 1_554
Ir2 Zr4 3.127465 1_554
Ir2 Zr3 3.127465 1_455
Ir2 Zr1 3.198181 1_455
Ir2 Zr0 3.198182 1_554
Ir3 Ti5 2.585068 1_554
Ir3 Ti4 2.585068 1_554
Ir3 Ti0 2.721318 1_555
Ir3 Ti3 2.741758 1_554
Ir3 Zr1 3.165429 1_555
Ir3 Zr2 3.165429 1_555
Ir3 Zr4 3.240684 1_554
Ir3 Zr5 3.240684 1_554
Ir4 Ti4 2.585068 1_455
Ir4 Ti6 2.585068 1_455
Ir4 Ti0 2.721318 1_555
Ir4 Ti2 2.741758 1_455
Ir4 Zr2 3.165429 1_555
Ir4 Zr0 3.165429 1_555
Ir4 Zr5 3.240683 1_455
Ir4 Zr3 3.240684 1_455
Ir5 Ti5 2.585068 1_545
Ir5 Ti6 2.585069 1_545
Ir5 Ti0 2.721318 1_555
Ir5 Ti1 2.741758 1_545
Ir5 Zr1 3.165429 1_555
Ir5 Zr0 3.165429 1_555
Ir5 Zr4 3.240684 1_545
Ir5 Zr3 3.240684 1_545
Ir6 Ti3 2.632950 1_555
Ir6 Ti1 2.632950 1_555
Ir6 Ti2 2.632950 1_555
Ir6 Ti0 2.674456 1_555
Ir7 Zr3 2.600641 1_445
Ir7 Zr5 2.600641 1_454
Ir7 Zr4 2.600641 1_544
Ir7 Zr0 2.601139 1_554
Ir7 Zr2 2.601139 1_545
Ir7 Zr1 2.601139 1_455
