# generated using pymatgen
data_Rb2Mn(GeO3)2
_symmetry_space_group_name_H-M   'P 1'
_cell_length_a   6.03921998
_cell_length_b   6.03921951
_cell_length_c   11.05315768
_cell_angle_alpha   90.00000000
_cell_angle_beta   90.00000000
_cell_angle_gamma   113.29646301
_symmetry_Int_Tables_number   1
_chemical_formula_structural   Rb2Mn(GeO3)2
_chemical_formula_sum   'Rb4 Mn2 Ge4 O12'
_cell_volume   370.26561487
_cell_formula_units_Z   2
loop_
 _symmetry_equiv_pos_site_id
 _symmetry_equiv_pos_as_xyz
  1  'x, y, z'
loop_
 _atom_site_type_symbol
 _atom_site_label
 _atom_site_symmetry_multiplicity
 _atom_site_fract_x
 _atom_site_fract_y
 _atom_site_fract_z
 _atom_site_occupancy
  Rb  Rb0  1  0.78212802  0.43321441  0.92351041  1
  Rb  Rb1  1  0.56678559  0.21787198  0.57648959  1
  Rb  Rb2  1  0.21787198  0.56678559  0.42351041  1
  Rb  Rb3  1  0.43321441  0.78212802  0.07648959  1
  Mn  Mn0  1  0.69057315  0.30942685  0.25000000  1
  Mn  Mn1  1  0.30942685  0.69057315  0.75000000  1
  Ge  Ge0  1  0.83283085  0.86516800  0.36298957  1
  Ge  Ge1  1  0.13483200  0.16716915  0.13701043  1
  Ge  Ge2  1  0.16716915  0.13483200  0.86298957  1
  Ge  Ge3  1  0.86516800  0.83283085  0.63701043  1
  O  O0  1  0.62291632  0.98666245  0.33189538  1
  O  O1  1  0.55370559  0.71416922  0.62139113  1
  O  O2  1  0.71416922  0.55370559  0.37860887  1
  O  O3  1  0.37708368  0.01333755  0.83189538  1
  O  O4  1  0.99622315  0.99622315  0.50000000  1
  O  O5  1  0.44629441  0.28583078  0.12139113  1
  O  O6  1  0.06137578  0.93862422  0.25000000  1
  O  O7  1  0.28583078  0.44629441  0.87860887  1
  O  O8  1  0.00377685  0.00377685  0.00000000  1
  O  O9  1  0.93862422  0.06137578  0.75000000  1
  O  O10  1  0.01333755  0.37708368  0.16810462  1
  O  O11  1  0.98666245  0.62291632  0.66810462  1
loop_
_geom_bond_atom_site_label_1
_geom_bond_atom_site_label_2
_geom_bond_distance
_geom_bond_site_symmetry_2
Mn0 O2 2.012748 1_555
Mn0 O5 2.012748 1_555
Mn0 O0 2.038608 1_545
Mn0 O10 2.038608 1_655
Mn1 O7 2.012748 1_555
Mn1 O1 2.012748 1_555
Mn1 O3 2.038608 1_565
Mn1 O11 2.038608 1_455
Ge0 O0 1.731860 1_555
Ge0 O2 1.736453 1_555
Ge0 O6 1.782486 1_655
Ge0 O4 1.809911 1_555
Ge1 O10 1.731860 1_555
Ge1 O5 1.736453 1_555
Ge1 O6 1.782486 1_545
Ge1 O8 1.809911 1_555
Ge2 O3 1.731860 1_555
Ge2 O7 1.736453 1_555
Ge2 O9 1.782486 1_455
Ge2 O8 1.809911 1_556
Ge3 O11 1.731860 1_555
Ge3 O1 1.736453 1_555
Ge3 O9 1.782486 1_565
Ge3 O4 1.809911 1_555
O0 Rb2 2.921087 1_555
O0 Rb3 3.112639 1_555
O0 Rb1 3.122203 1_565
O1 Rb2 2.874317 1_555
O1 Rb1 3.052226 1_565
O1 Rb1 3.069744 1_555
O2 Rb1 2.874317 1_555
O2 Rb2 3.052226 1_655
O2 Rb2 3.069744 1_555
O3 Rb0 2.921087 1_555
O3 Rb1 3.112639 1_555
O3 Rb3 3.122203 1_546
O4 Rb2 3.275893 1_665
O4 Rb1 3.275893 1_665
O5 Rb0 2.874317 1_554
O5 Rb3 3.052226 1_545
O5 Rb3 3.069744 1_555
O7 Rb3 2.874317 1_556
O7 Rb0 3.052226 1_455
O7 Rb0 3.069744 1_555
O8 Rb0 3.275893 1_444
O8 Rb3 3.275893 1_445
O10 Rb3 2.921087 1_555
O10 Rb2 3.112639 1_555
O10 Rb0 3.122203 1_454
O11 Rb1 2.921087 1_555
O11 Rb0 3.112639 1_555
O11 Rb2 3.122203 1_655
