# generated using pymatgen
data_K3Na2SiAs3
_symmetry_space_group_name_H-M   'P 1'
_cell_length_a   10.56043659
_cell_length_b   10.56043457
_cell_length_c   14.82323527
_cell_angle_alpha   90.00000000
_cell_angle_beta   90.00000000
_cell_angle_gamma   142.80137733
_symmetry_Int_Tables_number   1
_chemical_formula_structural   K3Na2SiAs3
_chemical_formula_sum   'K12 Na8 Si4 As12'
_cell_volume   999.44849364
_cell_formula_units_Z   4
loop_
 _symmetry_equiv_pos_site_id
 _symmetry_equiv_pos_as_xyz
  1  'x, y, z'
loop_
 _atom_site_type_symbol
 _atom_site_label
 _atom_site_symmetry_multiplicity
 _atom_site_fract_x
 _atom_site_fract_y
 _atom_site_fract_z
 _atom_site_occupancy
  K  K0  1  0.60480595  0.93367760  0.82690660  1
  K  K1  1  0.26138786  0.26138804  0.32087784  1
  K  K2  1  0.23861214  0.23861196  0.82087784  1
  K  K3  1  0.73861214  0.73861196  0.67912216  1
  K  K4  1  0.43367747  0.10480594  0.67309357  1
  K  K5  1  0.89519405  0.56632240  0.32690660  1
  K  K6  1  0.06632253  0.39519406  0.17309357  1
  K  K7  1  0.39519405  0.06632240  0.17309340  1
  K  K8  1  0.56632253  0.89519406  0.32690643  1
  K  K9  1  0.10480595  0.43367760  0.67309340  1
  K  K10  1  0.93367747  0.60480594  0.82690643  1
  K  K11  1  0.76138786  0.76138804  0.17912216  1
  Na  Na0  1  0.07911996  0.92087998  0.00000005  1
  Na  Na1  1  0.57911996  0.42087998  0.49999995  1
  Na  Na2  1  0.92088004  0.07912002  0.99999995  1
  Na  Na3  1  0.75606587  0.24393446  0.99999998  1
  Na  Na4  1  0.74393413  0.25606554  0.49999998  1
  Na  Na5  1  0.24393413  0.75606554  0.00000002  1
  Na  Na6  1  0.25606587  0.74393446  0.50000002  1
  Na  Na7  1  0.42088004  0.57912002  0.50000005  1
  Si  Si0  1  0.08582354  0.91417641  0.50000000  1
  Si  Si1  1  0.41417646  0.58582359  1.00000000  1
  Si  Si2  1  0.91417646  0.08582359  0.50000000  1
  Si  Si3  1  0.58582354  0.41417641  0.00000000  1
  As  As0  1  0.05156324  0.35716966  0.40185115  1
  As  As1  1  0.85716948  0.55156329  0.09814895  1
  As  As2  1  0.44843676  0.14283034  0.90185115  1
  As  As3  1  0.64283052  0.94843671  0.59814895  1
  As  As4  1  0.94843676  0.64283034  0.59814885  1
  As  As5  1  0.14283052  0.44843671  0.90185105  1
  As  As6  1  0.55156324  0.85716966  0.09814885  1
  As  As7  1  0.35716948  0.05156329  0.40185105  1
  As  As8  1  0.18490677  0.18490668  0.58493784  1
  As  As9  1  0.68490677  0.68490668  0.91506216  1
  As  As10  1  0.31509323  0.31509332  0.08493784  1
  As  As11  1  0.81509323  0.81509332  0.41506216  1
loop_
_geom_bond_atom_site_label_1
_geom_bond_atom_site_label_2
_geom_bond_distance
_geom_bond_site_symmetry_2
As0 Si2 2.410333 1_455
As0 Na7 2.873744 1_555
As0 Na4 2.878342 1_455
As0 Na6 3.067688 1_555
As0 K1 3.308227 1_555
As0 K8 3.386339 1_445
As0 K6 3.403560 1_555
As0 K8 3.723252 1_555
As0 K5 3.827550 1_455
As1 Si3 2.410333 1_555
As1 Na0 2.873742 1_655
As1 Na3 2.878343 1_554
As1 Na5 3.067689 1_655
As1 K11 3.308227 1_555
As1 K7 3.386338 1_555
As1 K5 3.403561 1_555
As1 K7 3.723251 1_665
As1 K6 3.827554 1_655
As2 Si3 2.410333 1_556
As2 Na0 2.873744 1_546
As2 Na3 2.878342 1_555
As2 Na5 3.067688 1_546
As2 K2 3.308227 1_555
As2 K10 3.386339 1_555
As2 K4 3.403560 1_555
As2 K10 3.723252 1_445
As2 K0 3.827550 1_545
As3 Si2 2.410333 1_565
As3 Na7 2.873742 1_555
As3 Na4 2.878343 1_565
As3 Na6 3.067689 1_555
As3 K3 3.308227 1_555
As3 K9 3.386338 1_665
As3 K0 3.403561 1_555
As3 K9 3.723251 1_555
As3 K4 3.827554 1_565
As4 Si0 2.410333 1_655
As4 Na1 2.873744 1_555
As4 Na6 2.878342 1_655
As4 Na4 3.067688 1_555
As4 K3 3.308227 1_555
As4 K4 3.386339 1_665
As4 K10 3.403560 1_555
As4 K4 3.723252 1_555
As4 K9 3.827550 1_655
As5 Si1 2.410333 1_555
As5 Na2 2.873742 1_455
As5 Na5 2.878343 1_556
As5 Na3 3.067689 1_455
As5 K2 3.308227 1_555
As5 K0 3.386338 1_555
As5 K9 3.403561 1_555
As5 K0 3.723251 1_445
As5 K10 3.827554 1_455
As6 Si1 2.410333 1_554
As6 Na2 2.873744 1_564
As6 Na5 2.878342 1_555
As6 Na3 3.067688 1_564
As6 K11 3.308227 1_555
As6 K6 3.386339 1_555
As6 K8 3.403560 1_555
As6 K6 3.723252 1_665
As6 K7 3.827550 1_565
As7 Si0 2.410333 1_545
As7 Na1 2.873742 1_555
As7 Na6 2.878343 1_545
As7 Na4 3.067689 1_555
As7 K1 3.308227 1_555
As7 K5 3.386338 1_445
As7 K7 3.403561 1_555
As7 K5 3.723251 1_555
As7 K8 3.827554 1_545
As8 Si0 2.467445 1_545
As8 Si2 2.467447 1_455
As8 Na7 2.932429 1_555
As8 Na1 2.932429 1_555
As8 K3 3.314793 1_445
As8 K2 3.516056 1_555
As8 K4 3.586815 1_555
As8 K9 3.586816 1_555
As9 Si3 2.467445 1_556
As9 Si1 2.467447 1_555
As9 Na2 2.932429 1_565
As9 Na0 2.932429 1_656
As9 K2 3.314793 1_555
As9 K3 3.516056 1_555
As9 K10 3.586815 1_555
As9 K0 3.586816 1_555
As10 Si1 2.467445 1_554
As10 Si3 2.467447 1_555
As10 Na0 2.932429 1_545
As10 Na2 2.932429 1_454
As10 K11 3.314793 1_555
As10 K1 3.516056 1_555
As10 K6 3.586815 1_555
As10 K7 3.586816 1_555
As11 Si2 2.467445 1_565
As11 Si0 2.467447 1_655
As11 Na1 2.932429 1_555
As11 Na7 2.932429 1_555
As11 K1 3.314793 1_665
As11 K11 3.516056 1_555
As11 K8 3.586815 1_555
As11 K5 3.586816 1_555
