# generated using pymatgen
data_Li12Ca6Ge4N
_symmetry_space_group_name_H-M   'P 1'
_cell_length_a   8.43064375
_cell_length_b   8.43064412
_cell_length_c   8.43064293
_cell_angle_alpha   109.47121059
_cell_angle_beta   109.47121148
_cell_angle_gamma   109.47122889
_symmetry_Int_Tables_number   1
_chemical_formula_structural   Li12Ca6Ge4N
_chemical_formula_sum   'Li12 Ca6 Ge4 N1'
_cell_volume   461.27546848
_cell_formula_units_Z   1
loop_
 _symmetry_equiv_pos_site_id
 _symmetry_equiv_pos_as_xyz
  1  'x, y, z'
loop_
 _atom_site_type_symbol
 _atom_site_label
 _atom_site_symmetry_multiplicity
 _atom_site_fract_x
 _atom_site_fract_y
 _atom_site_fract_z
 _atom_site_occupancy
  Li  Li0  1  0.65527478  0.32763789  0.32763789  1
  Li  Li1  1  0.32763789  1.00000000  0.67236211  1
  Li  Li2  1  0.32763789  0.65527478  0.32763789  1
  Li  Li3  1  0.32763789  0.32763789  0.65527478  1
  Li  Li4  1  0.32763789  0.67236211  1.00000000  1
  Li  Li5  1  1.00000000  0.32763789  0.67236211  1
  Li  Li6  1  0.00000000  0.67236211  0.32763789  1
  Li  Li7  1  0.67236211  0.67236211  0.34472522  1
  Li  Li8  1  0.67236211  0.00000000  0.32763789  1
  Li  Li9  1  0.67236211  0.32763789  0.00000000  1
  Li  Li10  1  0.67236211  0.34472522  0.67236211  1
  Li  Li11  1  0.34472522  0.67236211  0.67236211  1
  Ca  Ca0  1  1.00000000  0.24668123  0.24668123  1
  Ca  Ca1  1  0.24668123  1.00000000  0.24668123  1
  Ca  Ca2  1  0.75331877  0.00000000  0.75331877  1
  Ca  Ca3  1  0.75331877  0.75331877  0.00000000  1
  Ca  Ca4  1  0.24668123  0.24668123  1.00000000  1
  Ca  Ca5  1  0.00000000  0.75331877  0.75331877  1
  Ge  Ge0  1  0.50000000  0.50000000  0.50000000  1
  Ge  Ge1  1  0.50000000  0.00000000  0.00000000  1
  Ge  Ge2  1  0.00000000  0.50000000  0.00000000  1
  Ge  Ge3  1  0.00000000  0.00000000  0.50000000  1
  N  N0  1  0.00000000  0.00000000  0.00000000  1
loop_
_geom_bond_atom_site_label_1
_geom_bond_atom_site_label_2
_geom_bond_distance
_geom_bond_site_symmetry_2
Ca0 N0 2.401410 1_655
Ca1 N0 2.401410 1_565
Ca2 N0 2.401410 1_656
Ca3 N0 2.401409 1_665
Ca4 N0 2.401409 1_556
Ca5 N0 2.401410 1_566
Ge0 Li7 2.658080 1_555
Ge0 Li3 2.658080 1_555
Ge0 Li10 2.658081 1_555
Ge0 Li2 2.658081 1_555
Ge0 Li11 2.658081 1_555
Ge0 Li0 2.658081 1_555
Ge1 Li9 2.658088 1_555
Ge1 Li4 2.658088 1_544
Ge1 Li8 2.658088 1_555
Ge1 Li1 2.658088 1_544
Ge1 Li0 2.658090 1_555
Ge1 Li11 2.658090 1_544
Ge2 Li4 2.658088 1_554
Ge2 Li9 2.658088 1_455
Ge2 Li6 2.658088 1_555
Ge2 Li5 2.658088 1_454
Ge2 Li2 2.658090 1_555
Ge2 Li10 2.658090 1_454
Ge3 Li1 2.658088 1_545
Ge3 Li8 2.658088 1_455
Ge3 Li5 2.658088 1_455
Ge3 Li6 2.658088 1_545
Ge3 Li3 2.658090 1_555
Ge3 Li7 2.658090 1_445
