# generated using pymatgen
data_CsRb2BiSe3
_symmetry_space_group_name_H-M   'P 1'
_cell_length_a   10.39232308
_cell_length_b   10.39232308
_cell_length_c   10.39232308
_cell_angle_alpha   90.00000000
_cell_angle_beta   90.00000000
_cell_angle_gamma   90.00000000
_symmetry_Int_Tables_number   1
_chemical_formula_structural   CsRb2BiSe3
_chemical_formula_sum   'Cs4 Rb8 Bi4 Se12'
_cell_volume   1122.37483206
_cell_formula_units_Z   4
loop_
 _symmetry_equiv_pos_site_id
 _symmetry_equiv_pos_as_xyz
  1  'x, y, z'
loop_
 _atom_site_type_symbol
 _atom_site_label
 _atom_site_symmetry_multiplicity
 _atom_site_fract_x
 _atom_site_fract_y
 _atom_site_fract_z
 _atom_site_occupancy
  Cs  Cs0  1  0.92982308  0.42982308  0.07017692  1
  Cs  Cs1  1  0.42982308  0.07017692  0.92982308  1
  Cs  Cs2  1  0.07017692  0.92982308  0.42982308  1
  Cs  Cs3  1  0.57017692  0.57017692  0.57017692  1
  Rb  Rb0  1  0.18241788  0.68241788  0.81758212  1
  Rb  Rb1  1  0.68241788  0.81758212  0.18241788  1
  Rb  Rb2  1  0.81758212  0.18241788  0.68241788  1
  Rb  Rb3  1  0.31758212  0.31758212  0.31758212  1
  Rb  Rb4  1  0.68946463  0.18946463  0.31053537  1
  Rb  Rb5  1  0.18946463  0.31053537  0.68946463  1
  Rb  Rb6  1  0.31053537  0.68946463  0.18946463  1
  Rb  Rb7  1  0.81053537  0.81053537  0.81053537  1
  Bi  Bi0  1  0.47244992  0.97244992  0.52755008  1
  Bi  Bi1  1  0.97244992  0.52755008  0.47244992  1
  Bi  Bi2  1  0.52755008  0.47244992  0.97244992  1
  Bi  Bi3  1  0.02755008  0.02755008  0.02755008  1
  Se  Se0  1  0.00286589  0.78166766  0.09785799  1
  Se  Se1  1  0.90214201  0.50286589  0.71833234  1
  Se  Se2  1  0.28166766  0.40214201  0.99713411  1
  Se  Se3  1  0.50286589  0.71833234  0.90214201  1
  Se  Se4  1  0.40214201  0.99713411  0.28166766  1
  Se  Se5  1  0.78166766  0.09785799  0.00286589  1
  Se  Se6  1  0.99713411  0.28166766  0.40214201  1
  Se  Se7  1  0.09785799  0.00286589  0.78166766  1
  Se  Se8  1  0.71833234  0.90214201  0.50286589  1
  Se  Se9  1  0.49713411  0.21833234  0.59785799  1
  Se  Se10  1  0.59785799  0.49713411  0.21833234  1
  Se  Se11  1  0.21833234  0.59785799  0.49713411  1
loop_
_geom_bond_atom_site_label_1
_geom_bond_atom_site_label_2
_geom_bond_distance
_geom_bond_site_symmetry_2
Cs0 Se2 3.745508 1_654
Cs0 Se1 3.745508 1_554
Cs0 Se0 3.745508 1_655
Cs0 Se5 3.842092 1_555
Cs0 Se10 3.842092 1_555
Cs0 Se6 3.842092 1_555
Cs1 Se4 3.745508 1_546
Cs1 Se3 3.745508 1_545
Cs1 Se5 3.745508 1_556
Cs1 Se2 3.842092 1_555
Cs1 Se9 3.842092 1_555
Cs1 Se7 3.842092 1_555
Cs2 Se6 3.745508 1_465
Cs2 Se8 3.745508 1_455
Cs2 Se7 3.745508 1_565
Cs2 Se0 3.842092 1_555
Cs2 Se4 3.842092 1_555
Cs2 Se11 3.842092 1_555
Cs3 Se10 3.745508 1_555
Cs3 Se11 3.745508 1_555
Cs3 Se9 3.745508 1_555
Cs3 Se8 3.842092 1_555
Cs3 Se1 3.842092 1_555
Cs3 Se3 3.842092 1_555
Rb0 Se3 3.464358 1_555
Rb0 Se7 3.464358 1_565
Rb0 Se11 3.464358 1_555
Rb0 Se0 3.609653 1_556
Rb0 Se2 3.609653 1_555
Rb0 Se1 3.609653 1_455
Rb1 Se10 3.464358 1_555
Rb1 Se0 3.464358 1_655
Rb1 Se8 3.464358 1_555
Rb1 Se5 3.609653 1_565
Rb1 Se3 3.609653 1_554
Rb1 Se4 3.609653 1_555
Rb2 Se1 3.464358 1_555
Rb2 Se9 3.464358 1_555
Rb2 Se5 3.464358 1_556
Rb2 Se7 3.609653 1_655
Rb2 Se8 3.609653 1_545
Rb2 Se6 3.609653 1_555
Rb3 Se4 3.464358 1_545
Rb3 Se6 3.464358 1_455
Rb3 Se2 3.464358 1_554
Rb3 Se10 3.609653 1_555
Rb3 Se11 3.609653 1_555
Rb3 Se9 3.609653 1_555
Rb4 Se6 3.471000 1_555
Rb4 Se10 3.471000 1_555
Rb4 Se5 3.471000 1_555
Rb4 Se9 3.605682 1_555
Rb4 Se4 3.605682 1_545
Rb4 Se8 3.605682 1_545
Rb5 Se2 3.471000 1_555
Rb5 Se9 3.471000 1_555
Rb5 Se7 3.471000 1_555
Rb5 Se1 3.605682 1_455
Rb5 Se6 3.605682 1_455
Rb5 Se11 3.605682 1_555
Rb6 Se4 3.471000 1_555
Rb6 Se0 3.471000 1_555
Rb6 Se11 3.471000 1_555
Rb6 Se3 3.605682 1_554
Rb6 Se2 3.605682 1_554
Rb6 Se10 3.605682 1_555
Rb7 Se3 3.471000 1_555
Rb7 Se8 3.471000 1_555
Rb7 Se1 3.471000 1_555
Rb7 Se0 3.605682 1_656
Rb7 Se7 3.605682 1_665
Rb7 Se5 3.605682 1_566
Bi0 Se9 2.670052 1_565
Bi0 Se4 2.670052 1_555
Bi0 Se8 2.670052 1_555
Bi1 Se11 2.670052 1_655
Bi1 Se6 2.670052 1_555
Bi1 Se1 2.670052 1_555
Bi2 Se10 2.670052 1_556
Bi2 Se2 2.670052 1_555
Bi2 Se3 2.670052 1_555
Bi3 Se0 2.670052 1_545
Bi3 Se5 2.670052 1_455
Bi3 Se7 2.670052 1_554
