# generated using pymatgen
data_CdPd(S2O7)2
_symmetry_space_group_name_H-M   'P 1'
_cell_length_a   5.51783357
_cell_length_b   6.66819666
_cell_length_c   8.63025512
_cell_angle_alpha   108.30734008
_cell_angle_beta   90.23596346
_cell_angle_gamma   103.66063612
_symmetry_Int_Tables_number   1
_chemical_formula_structural   CdPd(S2O7)2
_chemical_formula_sum   'Cd1 Pd1 S4 O14'
_cell_volume   291.88409382
_cell_formula_units_Z   1
loop_
 _symmetry_equiv_pos_site_id
 _symmetry_equiv_pos_as_xyz
  1  'x, y, z'
loop_
 _atom_site_type_symbol
 _atom_site_label
 _atom_site_symmetry_multiplicity
 _atom_site_fract_x
 _atom_site_fract_y
 _atom_site_fract_z
 _atom_site_occupancy
  Cd  Cd0  1  0.50000000  0.00000000  0.00000000  1
  Pd  Pd0  1  0.50000000  0.50000000  0.50000000  1
  S  S0  1  0.94733188  0.73374460  0.75425371  1
  S  S1  1  0.05266812  0.26625540  0.24574629  1
  S  S2  1  0.65481670  0.31354917  0.75377370  1
  S  S3  1  0.34518330  0.68645083  0.24622630  1
  O  O0  1  0.85919593  0.66450518  0.58001359  1
  O  O1  1  0.14080407  0.33549482  0.41998641  1
  O  O2  1  0.46495668  0.41030715  0.70291781  1
  O  O3  1  0.53504332  0.58969285  0.29708219  1
  O  O4  1  0.21375390  0.82253415  0.77591062  1
  O  O5  1  0.78624610  0.17746585  0.22408938  1
  O  O6  1  0.80573891  0.86502646  0.86168661  1
  O  O7  1  0.19426109  0.13497354  0.13831339  1
  O  O8  1  0.60179200  0.28942465  0.91139775  1
  O  O9  1  0.39820800  0.71057535  0.08860225  1
  O  O10  1  0.91533477  0.51601682  0.80266629  1
  O  O11  1  0.08466523  0.48398318  0.19733371  1
  O  O12  1  0.71879126  0.14018977  0.63257404  1
  O  O13  1  0.28120874  0.85981023  0.36742596  1
loop_
_geom_bond_atom_site_label_1
_geom_bond_atom_site_label_2
_geom_bond_distance
_geom_bond_site_symmetry_2
Cd0 O8 2.245769 1_554
Cd0 O9 2.245769 1_545
Cd0 O7 2.267110 1_555
Cd0 O6 2.267110 1_544
Cd0 O5 2.299883 1_555
Cd0 O4 2.299883 1_544
O0 S0 1.470596 1_555
O0 Pd0 2.023443 1_555
O1 S1 1.470596 1_555
O1 Pd0 2.023443 1_555
O2 S2 1.483171 1_555
O2 Pd0 2.016949 1_555
O3 S3 1.483171 1_555
O3 Pd0 2.016949 1_555
O4 S0 1.436555 1_455
O5 S1 1.436555 1_655
O6 S0 1.433710 1_555
O7 S1 1.433710 1_555
O8 S2 1.442401 1_555
O9 S3 1.442401 1_555
O10 S0 1.604440 1_555
O10 S2 1.669614 1_555
O11 S1 1.604440 1_555
O11 S3 1.669614 1_555
O12 S2 1.411092 1_555
O13 S3 1.411092 1_555
