# generated using pymatgen
data_Y6Ga8SCl
_symmetry_space_group_name_H-M   'P 1'
_cell_length_a   7.73687359
_cell_length_b   7.73687290
_cell_length_c   7.73687219
_cell_angle_alpha   119.05155730
_cell_angle_beta   119.05155970
_cell_angle_gamma   91.65074959
_symmetry_Int_Tables_number   1
_chemical_formula_structural   Y6Ga8SCl
_chemical_formula_sum   'Y6 Ga8 S1 Cl1'
_cell_volume   332.02294259
_cell_formula_units_Z   1
loop_
 _symmetry_equiv_pos_site_id
 _symmetry_equiv_pos_as_xyz
  1  'x, y, z'
loop_
 _atom_site_type_symbol
 _atom_site_label
 _atom_site_symmetry_multiplicity
 _atom_site_fract_x
 _atom_site_fract_y
 _atom_site_fract_z
 _atom_site_occupancy
  Y  Y0  1  0.84646695  0.67141276  0.51787770  1
  Y  Y1  1  0.67141276  0.15353305  0.82494581  1
  Y  Y2  1  0.32858724  0.84646695  0.17505419  1
  Y  Y3  1  0.15353305  0.32858724  0.48212230  1
  Y  Y4  1  0.24702786  0.24702786  1.00000000  1
  Y  Y5  1  0.75297214  0.75297214  0.00000000  1
  Ga  Ga0  1  0.16139160  0.94921327  0.50275102  1
  Ga  Ga1  1  0.44646124  0.65864157  0.49724898  1
  Ga  Ga2  1  0.55353876  0.34135843  0.50275102  1
  Ga  Ga3  1  0.65864157  0.16139160  0.21217933  1
  Ga  Ga4  1  0.83860840  0.05078673  0.49724898  1
  Ga  Ga5  1  0.05078673  0.55353876  0.21217933  1
  Ga  Ga6  1  0.34135843  0.83860840  0.78782067  1
  Ga  Ga7  1  0.94921327  0.44646124  0.78782067  1
  S  S0  1  0.00000000  0.00000000  0.00000000  1
  Cl  Cl0  1  0.50000000  0.50000000  0.00000000  1
loop_
_geom_bond_atom_site_label_1
_geom_bond_atom_site_label_2
_geom_bond_distance
_geom_bond_site_symmetry_2
Ga0 Ga6 2.540589 1_555
Ga0 Ga5 2.540590 1_555
Ga0 Ga4 2.626476 1_465
Ga0 Y3 3.016654 1_565
Ga0 Y4 3.062046 1_565
Ga0 Y5 3.077500 1_455
Ga0 Y2 3.165483 1_555
Ga0 Y1 3.247156 1_565
Ga0 Y0 3.284726 1_455
Ga1 Ga6 2.540590 1_555
Ga1 Ga5 2.540590 1_555
Ga1 Ga2 2.626495 1_555
Ga1 Y0 3.016678 1_555
Ga1 Y4 3.062051 1_554
Ga1 Y5 3.077504 1_556
Ga1 Y1 3.165478 1_565
Ga1 Y2 3.247150 1_555
Ga1 Y3 3.284748 1_555
Ga2 Ga3 2.540590 1_555
Ga2 Ga7 2.540590 1_555
Ga2 Y3 3.016678 1_555
Ga2 Y5 3.062051 1_556
Ga2 Y4 3.077504 1_554
Ga2 Y2 3.165478 1_545
Ga2 Y1 3.247150 1_555
Ga2 Y0 3.284748 1_555
Ga3 Ga4 2.540589 1_555
Ga3 Ga6 2.626485 1_544
Ga3 Y1 3.016666 1_554
Ga3 Y4 3.062054 1_554
Ga3 Y5 3.077497 1_545
Ga3 Y3 3.165476 1_655
Ga3 Y0 3.247157 1_555
Ga3 Y2 3.284738 1_545
Ga4 Ga7 2.540590 1_555
Ga4 Y0 3.016654 1_545
Ga4 Y5 3.062046 1_545
Ga4 Y4 3.077500 1_655
Ga4 Y1 3.165483 1_555
Ga4 Y2 3.247156 1_545
Ga4 Y3 3.284726 1_655
Ga5 Ga7 2.626485 1_454
Ga5 Y1 3.016667 1_454
Ga5 Y5 3.062044 1_455
Ga5 Y4 3.077507 1_554
Ga5 Y3 3.165496 1_555
Ga5 Y0 3.247137 1_455
Ga5 Y2 3.284737 1_555
Ga6 Y2 3.016666 1_556
Ga6 Y5 3.062054 1_556
Ga6 Y4 3.077497 1_565
Ga6 Y0 3.165476 1_455
Ga6 Y3 3.247157 1_555
Ga6 Y1 3.284738 1_565
Ga7 Y2 3.016667 1_656
Ga7 Y4 3.062044 1_655
Ga7 Y5 3.077507 1_556
Ga7 Y0 3.165496 1_555
Ga7 Y3 3.247137 1_655
Ga7 Y1 3.284737 1_555
S0 Y4 2.663662 1_554
S0 Y5 2.663662 1_445
S0 Y2 2.846195 1_545
S0 Y1 2.846195 1_454
S0 Y3 2.846205 1_555
S0 Y0 2.846205 1_444
Cl0 Y5 2.727759 1_555
Cl0 Y4 2.727759 1_554
Cl0 Y0 3.033456 1_555
Cl0 Y3 3.033456 1_554
Cl0 Y2 3.033467 1_555
Cl0 Y1 3.033467 1_554
