# generated using pymatgen
data_Ba3CaZrSe6
_symmetry_space_group_name_H-M   'P 1'
_cell_length_a   8.78506888
_cell_length_b   8.78506865
_cell_length_c   8.78506915
_cell_angle_alpha   92.02008198
_cell_angle_beta   92.02009061
_cell_angle_gamma   92.02008560
_symmetry_Int_Tables_number   1
_chemical_formula_structural   Ba3CaZrSe6
_chemical_formula_sum   'Ba6 Ca2 Zr2 Se12'
_cell_volume   676.71446311
_cell_formula_units_Z   2
loop_
 _symmetry_equiv_pos_site_id
 _symmetry_equiv_pos_as_xyz
  1  'x, y, z'
loop_
 _atom_site_type_symbol
 _atom_site_label
 _atom_site_symmetry_multiplicity
 _atom_site_fract_x
 _atom_site_fract_y
 _atom_site_fract_z
 _atom_site_occupancy
  Ba  Ba0  1  0.87341160  0.62658840  0.25000000  1
  Ba  Ba1  1  0.25000000  0.87341160  0.62658840  1
  Ba  Ba2  1  0.62658840  0.25000000  0.87341160  1
  Ba  Ba3  1  0.75000000  0.12658840  0.37341160  1
  Ba  Ba4  1  0.37341160  0.75000000  0.12658840  1
  Ba  Ba5  1  0.12658840  0.37341160  0.75000000  1
  Ca  Ca0  1  0.25000000  0.25000000  0.25000000  1
  Ca  Ca1  1  0.75000000  0.75000000  0.75000000  1
  Zr  Zr0  1  0.50000000  0.50000000  0.50000000  1
  Zr  Zr1  1  0.00000000  0.00000000  0.00000000  1
  Se  Se0  1  0.20603412  0.54696648  0.41605219  1
  Se  Se1  1  0.41605219  0.20603412  0.54696648  1
  Se  Se2  1  0.54696648  0.41605219  0.20603412  1
  Se  Se3  1  0.91605219  0.04696648  0.70603412  1
  Se  Se4  1  0.70603412  0.91605219  0.04696648  1
  Se  Se5  1  0.04696648  0.70603412  0.91605219  1
  Se  Se6  1  0.79396588  0.45303352  0.58394781  1
  Se  Se7  1  0.58394781  0.79396588  0.45303352  1
  Se  Se8  1  0.45303352  0.58394781  0.79396588  1
  Se  Se9  1  0.08394781  0.95303352  0.29396588  1
  Se  Se10  1  0.29396588  0.08394781  0.95303352  1
  Se  Se11  1  0.95303352  0.29396588  0.08394781  1
loop_
_geom_bond_atom_site_label_1
_geom_bond_atom_site_label_2
_geom_bond_distance
_geom_bond_site_symmetry_2
Ba0 Se0 3.327397 1_655
Ba0 Se11 3.327397 1_555
Ba0 Se9 3.360391 1_655
Ba0 Se2 3.360391 1_555
Ba0 Se6 3.435607 1_555
Ba0 Se5 3.435607 1_654
Ba0 Se4 3.494098 1_555
Ba0 Se7 3.494099 1_555
Ba1 Se9 3.327397 1_555
Ba1 Se1 3.327397 1_565
Ba1 Se0 3.360391 1_555
Ba1 Se10 3.360391 1_565
Ba1 Se3 3.435607 1_465
Ba1 Se7 3.435607 1_555
Ba1 Se8 3.494098 1_555
Ba1 Se5 3.494098 1_555
Ba2 Se10 3.327397 1_555
Ba2 Se2 3.327397 1_556
Ba2 Se11 3.360391 1_556
Ba2 Se1 3.360391 1_555
Ba2 Se4 3.435607 1_546
Ba2 Se8 3.435607 1_555
Ba2 Se6 3.494098 1_555
Ba2 Se3 3.494099 1_555
Ba3 Se3 3.327397 1_555
Ba3 Se7 3.327397 1_545
Ba3 Se6 3.360391 1_555
Ba3 Se4 3.360391 1_545
Ba3 Se9 3.435607 1_645
Ba3 Se1 3.435607 1_555
Ba3 Se2 3.494098 1_555
Ba3 Se11 3.494098 1_555
Ba4 Se4 3.327397 1_555
Ba4 Se8 3.327397 1_554
Ba4 Se5 3.360391 1_554
Ba4 Se7 3.360391 1_555
Ba4 Se10 3.435607 1_564
Ba4 Se2 3.435607 1_555
Ba4 Se0 3.494098 1_555
Ba4 Se9 3.494099 1_555
Ba5 Se6 3.327397 1_455
Ba5 Se5 3.327397 1_555
Ba5 Se3 3.360391 1_455
Ba5 Se8 3.360391 1_555
Ba5 Se0 3.435607 1_555
Ba5 Se11 3.435607 1_456
Ba5 Se10 3.494098 1_555
Ba5 Se1 3.494099 1_555
Ca0 Se11 2.987622 1_455
Ca0 Se1 2.987622 1_555
Ca0 Se9 2.987622 1_545
Ca0 Se2 2.987622 1_555
Ca0 Se0 2.987622 1_555
Ca0 Se10 2.987623 1_554
Ca1 Se5 2.987622 1_655
Ca1 Se7 2.987622 1_555
Ca1 Se3 2.987622 1_565
Ca1 Se8 2.987622 1_555
Ca1 Se6 2.987622 1_555
Ca1 Se4 2.987623 1_556
Se0 Zr0 2.710312 1_555
Se1 Zr0 2.710312 1_555
Se2 Zr0 2.710312 1_555
Se3 Zr1 2.710312 1_656
Se4 Zr1 2.710312 1_665
Se5 Zr1 2.710312 1_566
Se6 Zr0 2.710312 1_555
Se7 Zr0 2.710312 1_555
Se8 Zr0 2.710312 1_555
Se9 Zr1 2.710312 1_565
Se10 Zr1 2.710312 1_556
Se11 Zr1 2.710312 1_655
