# generated using pymatgen
data_Lu2Hf5ReF30
_symmetry_space_group_name_H-M   'P 1'
_cell_length_a   7.93013855
_cell_length_b   7.93013819
_cell_length_c   7.93227286
_cell_angle_alpha   79.93057796
_cell_angle_beta   79.93058335
_cell_angle_gamma   100.12324921
_symmetry_Int_Tables_number   1
_chemical_formula_structural   Lu2Hf5ReF30
_chemical_formula_sum   'Lu2 Hf5 Re1 F30'
_cell_volume   472.50774474
_cell_formula_units_Z   1
loop_
 _symmetry_equiv_pos_site_id
 _symmetry_equiv_pos_as_xyz
  1  'x, y, z'
loop_
 _atom_site_type_symbol
 _atom_site_label
 _atom_site_symmetry_multiplicity
 _atom_site_fract_x
 _atom_site_fract_y
 _atom_site_fract_z
 _atom_site_occupancy
  Lu  Lu0  1  0.67726390  0.32273610  0.75000000  1
  Lu  Lu1  1  0.32243724  0.67756276  0.25000000  1
  Hf  Hf0  1  0.74805773  0.25194227  0.25000000  1
  Hf  Hf1  1  0.82179487  0.75107494  0.32561809  1
  Hf  Hf2  1  0.24892506  0.17820513  0.17438191  1
  Hf  Hf3  1  0.17795486  0.24910587  0.67425886  1
  Hf  Hf4  1  0.75089413  0.82204514  0.82574114  1
  Re  Re0  1  0.25095034  0.74904966  0.75000000  1
  F  F0  1  0.14877870  0.18141818  0.94667765  1
  F  F1  1  0.68481678  0.56080326  0.85103756  1
  F  F2  1  0.04206738  0.65546343  0.31843211  1
  F  F3  1  0.65638168  0.04184540  0.81755258  1
  F  F4  1  0.56037421  0.68444536  0.34948475  1
  F  F5  1  0.18059215  0.14938497  0.44782351  1
  F  F6  1  0.85061503  0.81940785  0.05217649  1
  F  F7  1  0.31555464  0.43962579  0.15051525  1
  F  F8  1  0.95815460  0.34361832  0.68244742  1
  F  F9  1  0.34453657  0.95793262  0.18156789  1
  F  F10  1  0.43919674  0.31518322  0.64896244  1
  F  F11  1  0.81858182  0.85122130  0.55332235  1
  F  F12  1  0.97037283  0.02962717  0.75000000  1
  F  F13  1  0.54161684  0.75282740  0.02886923  1
  F  F14  1  0.24717260  0.45838316  0.47113077  1
  F  F15  1  0.45645878  0.24774118  0.96910309  1
  F  F16  1  0.75225882  0.54354122  0.53089691  1
  F  F17  1  0.03207639  0.96792361  0.25000000  1
  F  F18  1  0.21393601  0.72359193  0.00428191  1
  F  F19  1  0.22460795  0.49188187  0.78635117  1
  F  F20  1  0.99345316  0.71509326  0.77755256  1
  F  F21  1  0.72064430  0.99200915  0.27748142  1
  F  F22  1  0.48891092  0.22404111  0.28195781  1
  F  F23  1  0.72565437  0.21847610  0.50531652  1
  F  F24  1  0.78152390  0.27434563  0.99468348  1
  F  F25  1  0.77595889  0.51108908  0.21804219  1
  F  F26  1  0.00799085  0.27935570  0.22251858  1
  F  F27  1  0.28490674  0.00654684  0.72244744  1
  F  F28  1  0.50811813  0.77539205  0.71364883  1
  F  F29  1  0.27640807  0.78606399  0.49571809  1
loop_
_geom_bond_atom_site_label_1
_geom_bond_atom_site_label_2
_geom_bond_distance
_geom_bond_site_symmetry_2
F0 Hf2 2.094370 1_556
F0 Hf3 2.094530 1_555
F1 Hf4 2.010715 1_555
F1 Lu0 2.171691 1_555
F2 Hf1 2.018736 1_455
F2 Lu1 2.162517 1_555
F3 Hf4 2.010187 1_545
F3 Lu0 2.167542 1_555
F4 Hf1 2.013826 1_555
F4 Lu1 2.164613 1_555
F5 Hf3 2.083582 1_555
F5 Hf2 2.103000 1_555
F6 Hf4 2.083582 1_554
F6 Hf1 2.103000 1_555
F7 Hf2 2.013826 1_555
F7 Lu1 2.164613 1_555
F8 Hf3 2.010187 1_655
F8 Lu0 2.167542 1_555
F9 Hf2 2.018736 1_565
F9 Lu1 2.162517 1_555
F10 Hf3 2.010715 1_555
F10 Lu0 2.171691 1_555
F11 Hf1 2.094370 1_555
F11 Hf4 2.094530 1_555
F12 Hf3 2.093186 1_655
F12 Hf4 2.093186 1_545
F13 Hf4 2.021675 1_554
F13 Lu1 2.158052 1_555
F14 Hf3 2.021675 1_555
F14 Lu1 2.158052 1_555
F15 Hf2 2.023359 1_556
F15 Lu0 2.156076 1_555
F16 Hf1 2.023359 1_555
F16 Lu0 2.156076 1_555
F17 Hf1 2.092653 1_455
F17 Hf2 2.092653 1_565
F18 Re0 1.955782 1_554
F18 Lu1 2.262884 1_555
F19 Re0 1.977216 1_555
F19 Hf3 2.257714 1_555
F20 Re0 1.979914 1_655
F20 Hf4 2.234988 1_555
F21 Hf0 2.003131 1_565
F21 Hf1 2.197845 1_555
F22 Hf0 1.993716 1_555
F22 Hf2 2.217050 1_555
F23 Hf0 1.968058 1_555
F23 Lu0 2.238339 1_555
F24 Hf0 1.968058 1_556
F24 Lu0 2.238339 1_555
F25 Hf0 1.993716 1_555
F25 Hf1 2.217050 1_555
F26 Hf0 2.003131 1_455
F26 Hf2 2.197845 1_555
F27 Re0 1.979914 1_545
F27 Hf3 2.234988 1_555
F28 Re0 1.977216 1_555
F28 Hf4 2.257714 1_555
F29 Re0 1.955782 1_555
F29 Lu1 2.262884 1_555
