# generated using pymatgen
data_Zr10InGe2Sb5
_symmetry_space_group_name_H-M   'P 1'
_cell_length_a   8.67109216
_cell_length_b   8.67109227
_cell_length_c   5.88678824
_cell_angle_alpha   90.00000000
_cell_angle_beta   90.00000000
_cell_angle_gamma   120.13282830
_symmetry_Int_Tables_number   1
_chemical_formula_structural   Zr10InGe2Sb5
_chemical_formula_sum   'Zr10 In1 Ge2 Sb5'
_cell_volume   382.80165742
_cell_formula_units_Z   1
loop_
 _symmetry_equiv_pos_site_id
 _symmetry_equiv_pos_as_xyz
  1  'x, y, z'
loop_
 _atom_site_type_symbol
 _atom_site_label
 _atom_site_symmetry_multiplicity
 _atom_site_fract_x
 _atom_site_fract_y
 _atom_site_fract_z
 _atom_site_occupancy
  Zr  Zr0  1  0.66836306  0.33338861  0.99897204  1
  Zr  Zr1  1  0.33338861  0.66836306  0.99897204  1
  Zr  Zr2  1  0.33338861  0.66836306  0.50102796  1
  Zr  Zr3  1  0.66836306  0.33338861  0.50102796  1
  Zr  Zr4  1  0.73460409  0.73460409  0.75000000  1
  Zr  Zr5  1  0.26723193  0.99859853  0.75000000  1
  Zr  Zr6  1  0.99859853  0.26723193  0.75000000  1
  Zr  Zr7  1  0.26008276  0.26008276  0.25000000  1
  Zr  Zr8  1  0.73792498  0.99958009  0.25000000  1
  Zr  Zr9  1  0.99958009  0.73792498  0.25000000  1
  In  In0  1  0.38932663  0.38932663  0.75000000  1
  Ge  Ge0  1  0.00134894  0.00134894  0.99465348  1
  Ge  Ge1  1  0.00134894  0.00134894  0.50534652  1
  Sb  Sb0  1  0.60833442  0.00019392  0.75000000  1
  Sb  Sb1  1  0.00019392  0.60833442  0.75000000  1
  Sb  Sb2  1  0.60077831  0.60077831  0.25000000  1
  Sb  Sb3  1  0.39539132  0.00175181  0.25000000  1
  Sb  Sb4  1  0.00175181  0.39539132  0.25000000  1
loop_
_geom_bond_atom_site_label_1
_geom_bond_atom_site_label_2
_geom_bond_distance
_geom_bond_site_symmetry_2
In0 Zr4 2.987920 1_555
In0 Zr6 2.999726 1_455
In0 Zr5 2.999726 1_545
In0 Zr0 3.068535 1_555
In0 Zr3 3.068535 1_555
In0 Zr1 3.068535 1_555
In0 Zr2 3.068535 1_555
In0 Zr7 3.148724 1_555
In0 Zr7 3.148724 1_556
Ge0 Zr7 2.696783 1_556
Ge0 Zr4 2.720772 1_445
Ge0 Zr8 2.728009 1_446
Ge0 Zr9 2.728009 1_446
Ge0 Zr5 2.728613 1_545
Ge0 Zr6 2.728613 1_455
Ge1 Zr7 2.696783 1_555
Ge1 Zr4 2.720772 1_445
Ge1 Zr8 2.728009 1_445
Ge1 Zr9 2.728009 1_445
Ge1 Zr5 2.728613 1_545
Ge1 Zr6 2.728613 1_455
Sb0 Zr5 2.950811 1_545
Sb0 Zr6 2.990984 1_555
Sb0 Zr4 3.005662 1_545
Sb0 Zr1 3.037053 1_545
Sb0 Zr2 3.037053 1_545
Sb0 Zr0 3.042437 1_555
Sb0 Zr3 3.042437 1_555
Sb0 Zr8 3.151553 1_546
Sb0 Zr8 3.151553 1_545
Sb1 Zr6 2.950811 1_455
Sb1 Zr5 2.990984 1_555
Sb1 Zr4 3.005662 1_455
Sb1 Zr0 3.037053 1_455
Sb1 Zr3 3.037053 1_455
Sb1 Zr1 3.042437 1_555
Sb1 Zr2 3.042437 1_555
Sb1 Zr9 3.151553 1_455
Sb1 Zr9 3.151553 1_456
Sb2 Zr7 2.948269 1_555
Sb2 Zr9 3.040306 1_555
Sb2 Zr8 3.040306 1_555
Sb2 Zr2 3.044192 1_555
Sb2 Zr1 3.044192 1_554
Sb2 Zr3 3.044192 1_555
Sb2 Zr0 3.044192 1_554
Sb2 Zr4 3.163025 1_555
Sb2 Zr4 3.163025 1_554
Sb3 Zr8 2.979639 1_545
Sb3 Zr7 3.005480 1_555
Sb3 Zr9 3.021555 1_445
Sb3 Zr3 3.036735 1_555
Sb3 Zr0 3.036735 1_554
Sb3 Zr2 3.044557 1_545
Sb3 Zr1 3.044557 1_544
Sb3 Zr5 3.141458 1_545
Sb3 Zr5 3.141458 1_544
Sb4 Zr9 2.979639 1_455
Sb4 Zr7 3.005480 1_555
Sb4 Zr8 3.021555 1_445
Sb4 Zr2 3.036735 1_555
Sb4 Zr1 3.036735 1_554
Sb4 Zr3 3.044557 1_455
Sb4 Zr0 3.044557 1_454
Sb4 Zr6 3.141458 1_455
Sb4 Zr6 3.141458 1_454
