# generated using pymatgen
data_Nb16ZnNi7N4
_symmetry_space_group_name_H-M   'P 1'
_cell_length_a   8.24914832
_cell_length_b   8.24914884
_cell_length_c   8.24914794
_cell_angle_alpha   59.98187584
_cell_angle_beta   59.98187297
_cell_angle_gamma   59.98187498
_symmetry_Int_Tables_number   1
_chemical_formula_structural   Nb16ZnNi7N4
_chemical_formula_sum   'Nb16 Zn1 Ni7 N4'
_cell_volume   396.76542219
_cell_formula_units_Z   1
loop_
 _symmetry_equiv_pos_site_id
 _symmetry_equiv_pos_as_xyz
  1  'x, y, z'
loop_
 _atom_site_type_symbol
 _atom_site_label
 _atom_site_symmetry_multiplicity
 _atom_site_fract_x
 _atom_site_fract_y
 _atom_site_fract_z
 _atom_site_occupancy
  Nb  Nb0  1  0.81482557  0.18942305  0.81482557  1
  Nb  Nb1  1  0.06723499  0.43186437  0.43186437  1
  Nb  Nb2  1  0.43523554  0.06529858  0.06529858  1
  Nb  Nb3  1  0.06529858  0.43523554  0.06529858  1
  Nb  Nb4  1  0.43186437  0.43186437  0.06723499  1
  Nb  Nb5  1  0.06529858  0.06529858  0.43523554  1
  Nb  Nb6  1  0.81482557  0.81482557  0.18942305  1
  Nb  Nb7  1  0.18942305  0.81482557  0.81482557  1
  Nb  Nb8  1  0.81710362  0.18246825  0.18246825  1
  Nb  Nb9  1  0.18246825  0.18246825  0.81710362  1
  Nb  Nb10  1  0.43186437  0.06723499  0.43186437  1
  Nb  Nb11  1  0.18246825  0.81710362  0.18246825  1
  Nb  Nb12  1  0.62557693  0.62557693  0.62557693  1
  Nb  Nb13  1  0.12930209  0.61960522  0.61960522  1
  Nb  Nb14  1  0.61960522  0.12930209  0.61960522  1
  Nb  Nb15  1  0.61960522  0.61960522  0.12930209  1
  Zn  Zn0  1  0.83511752  0.83511752  0.83511752  1
  Ni  Ni0  1  0.42059709  0.42059709  0.42059709  1
  Ni  Ni1  1  0.51320776  0.83029824  0.83029824  1
  Ni  Ni2  1  0.83029824  0.51320776  0.83029824  1
  Ni  Ni3  1  0.83029824  0.83029824  0.51320776  1
  Ni  Ni4  1  0.42113152  0.73622698  0.42113152  1
  Ni  Ni5  1  0.42113152  0.42113152  0.73622698  1
  Ni  Ni6  1  0.73622698  0.42113152  0.42113152  1
  N  N0  1  0.12498056  0.12498056  0.12498056  1
  N  N1  1  0.62624024  0.12438455  0.12438455  1
  N  N2  1  0.12438455  0.62624024  0.12438455  1
  N  N3  1  0.12438455  0.12438455  0.62624024  1
loop_
_geom_bond_atom_site_label_1
_geom_bond_atom_site_label_2
_geom_bond_distance
_geom_bond_site_symmetry_2
Nb0 Zn0 2.765384 1_545
Nb0 Ni2 2.804468 1_555
Nb0 Ni6 3.045803 1_555
Nb0 Ni5 3.045804 1_555
Nb1 Ni6 2.821898 1_455
Nb1 Ni0 2.824999 1_555
Nb1 Ni2 3.088685 1_455
Nb1 Ni3 3.088685 1_455
Nb2 Ni4 2.828481 1_545
Nb2 Ni5 2.828481 1_554
Nb2 Zn0 3.027485 1_544
Nb2 Ni1 3.032259 1_544
Nb3 Ni6 2.828481 1_455
Nb3 Ni5 2.828481 1_554
Nb3 Zn0 3.027485 1_454
Nb3 Ni2 3.032259 1_454
Nb4 Ni5 2.821898 1_554
Nb4 Ni0 2.824999 1_555
Nb4 Ni2 3.088685 1_554
Nb4 Ni1 3.088685 1_554
Nb5 Ni4 2.828481 1_545
Nb5 Ni6 2.828481 1_455
Nb5 Zn0 3.027485 1_445
Nb5 Ni3 3.032259 1_445
Nb6 Zn0 2.765384 1_554
Nb6 Ni3 2.804468 1_555
Nb6 Ni4 3.045803 1_555
Nb6 Ni6 3.045804 1_555
Nb7 Zn0 2.765384 1_455
Nb7 Ni1 2.804468 1_555
Nb7 Ni4 3.045803 1_555
Nb7 Ni5 3.045804 1_555
Nb8 Ni2 2.818786 1_554
Nb8 Ni3 2.818786 1_545
Nb8 Ni0 3.069102 1_555
Nb8 Ni6 3.073591 1_555
Nb9 Ni2 2.818786 1_455
Nb9 Ni1 2.818786 1_545
Nb9 Ni0 3.069102 1_555
Nb9 Ni5 3.073591 1_555
Nb10 Ni4 2.821898 1_545
Nb10 Ni0 2.824999 1_555
Nb10 Ni1 3.088685 1_545
Nb10 Ni3 3.088685 1_545
Nb11 Ni1 2.818785 1_554
Nb11 Ni3 2.818785 1_455
Nb11 Ni0 3.069102 1_555
Nb11 Ni4 3.073591 1_555
Nb12 Ni2 2.506822 1_555
Nb12 Ni1 2.506822 1_555
Nb12 Ni3 2.506823 1_555
Nb12 Ni4 2.507409 1_555
Nb12 Ni6 2.507409 1_555
Nb12 Ni5 2.507409 1_555
Nb13 Ni0 2.442688 1_555
Nb13 Ni4 2.489794 1_555
Nb13 Ni5 2.489794 1_555
Nb13 Ni2 2.495063 1_455
Nb13 Ni3 2.495063 1_455
Nb13 Zn0 2.596011 1_455
Nb14 Ni0 2.442689 1_555
Nb14 Ni5 2.489794 1_555
Nb14 Ni6 2.489794 1_555
Nb14 Ni3 2.495063 1_545
Nb14 Ni1 2.495063 1_545
Nb14 Zn0 2.596011 1_545
Nb15 Ni0 2.442688 1_555
Nb15 Ni4 2.489794 1_555
Nb15 Ni6 2.489794 1_555
Nb15 Ni2 2.495063 1_554
Nb15 Ni1 2.495063 1_554
Nb15 Zn0 2.596011 1_554
Ni0 Ni5 2.608096 1_555
Ni0 Ni6 2.608096 1_555
Ni0 Ni4 2.608096 1_555
Ni1 Ni3 2.615010 1_555
Ni1 Ni2 2.615010 1_555
Ni1 Zn0 2.695844 1_555
Ni2 Ni3 2.615010 1_555
Ni2 Zn0 2.695844 1_555
Ni3 Zn0 2.695844 1_555
Ni4 Ni5 2.598557 1_555
Ni4 Ni6 2.598557 1_555
Ni5 Ni6 2.598557 1_555
N0 Nb9 2.171373 1_554
N0 Nb8 2.171374 1_455
N0 Nb11 2.171374 1_545
N0 Nb5 2.180841 1_555
N0 Nb2 2.180841 1_555
N0 Nb3 2.180841 1_555
N1 Nb8 2.162726 1_555
N1 Nb10 2.171973 1_555
N1 Nb4 2.171973 1_555
N1 Nb0 2.172185 1_554
N1 Nb6 2.172185 1_545
N1 Nb2 2.175367 1_555
N2 Nb11 2.162726 1_555
N2 Nb1 2.171973 1_555
N2 Nb4 2.171973 1_555
N2 Nb7 2.172185 1_554
N2 Nb6 2.172185 1_455
N2 Nb3 2.175367 1_555
N3 Nb9 2.162726 1_555
N3 Nb10 2.171973 1_555
N3 Nb1 2.171973 1_555
N3 Nb0 2.172185 1_455
N3 Nb7 2.172185 1_545
N3 Nb5 2.175367 1_555
