# generated using pymatgen
data_K3Li2ZrP3
_symmetry_space_group_name_H-M   'P 1'
_cell_length_a   10.16410665
_cell_length_b   10.16410720
_cell_length_c   14.65395624
_cell_angle_alpha   90.00000000
_cell_angle_beta   90.00000000
_cell_angle_gamma   143.24501339
_symmetry_Int_Tables_number   1
_chemical_formula_structural   K3Li2ZrP3
_chemical_formula_sum   'K12 Li8 Zr4 P12'
_cell_volume   905.90115396
_cell_formula_units_Z   4
loop_
 _symmetry_equiv_pos_site_id
 _symmetry_equiv_pos_as_xyz
  1  'x, y, z'
loop_
 _atom_site_type_symbol
 _atom_site_label
 _atom_site_symmetry_multiplicity
 _atom_site_fract_x
 _atom_site_fract_y
 _atom_site_fract_z
 _atom_site_occupancy
  K  K0  1  0.60563041  0.95109577  0.82509458  1
  K  K1  1  0.29277986  0.29277986  0.31807495  1
  K  K2  1  0.20722014  0.20722014  0.81807495  1
  K  K3  1  0.70722014  0.70722014  0.68192505  1
  K  K4  1  0.45109577  0.10563041  0.67490542  1
  K  K5  1  0.89436959  0.54890423  0.32509458  1
  K  K6  1  0.04890423  0.39436959  0.17490542  1
  K  K7  1  0.39436959  0.04890423  0.17490542  1
  K  K8  1  0.54890423  0.89436959  0.32509458  1
  K  K9  1  0.10563041  0.45109577  0.67490542  1
  K  K10  1  0.95109577  0.60563041  0.82509458  1
  K  K11  1  0.79277986  0.79277986  0.18192505  1
  Li  Li0  1  0.08337795  0.91662205  0.00000000  1
  Li  Li1  1  0.58337795  0.41662205  0.50000000  1
  Li  Li2  1  0.91662205  0.08337795  0.00000000  1
  Li  Li3  1  0.75218507  0.24781493  0.00000000  1
  Li  Li4  1  0.74781493  0.25218507  0.50000000  1
  Li  Li5  1  0.24781493  0.75218507  0.00000000  1
  Li  Li6  1  0.25218507  0.74781493  0.50000000  1
  Li  Li7  1  0.41662205  0.58337795  0.50000000  1
  Zr  Zr0  1  0.08843674  0.91156326  0.50000000  1
  Zr  Zr1  1  0.41156326  0.58843674  0.00000000  1
  Zr  Zr2  1  0.91156326  0.08843674  0.50000000  1
  Zr  Zr3  1  0.58843674  0.41156326  0.00000000  1
  P  P0  1  0.07247774  0.39821860  0.40738103  1
  P  P1  1  0.89821860  0.57247774  0.09261897  1
  P  P2  1  0.42752226  0.10178140  0.90738103  1
  P  P3  1  0.60178140  0.92752226  0.59261897  1
  P  P4  1  0.92752226  0.60178140  0.59261897  1
  P  P5  1  0.10178140  0.42752226  0.90738103  1
  P  P6  1  0.57247774  0.89821860  0.09261897  1
  P  P7  1  0.39821860  0.07247774  0.40738103  1
  P  P8  1  0.22716461  0.22716461  0.58780362  1
  P  P9  1  0.72716461  0.72716461  0.91219638  1
  P  P10  1  0.27283539  0.27283539  0.08780362  1
  P  P11  1  0.77283539  0.77283539  0.41219638  1
loop_
_geom_bond_atom_site_label_1
_geom_bond_atom_site_label_2
_geom_bond_distance
_geom_bond_site_symmetry_2
K0 Li3 3.268791 1_566
K0 P5 3.347172 1_665
K0 P2 3.394094 1_565
K0 Li2 3.399769 1_566
K0 P3 3.413127 1_555
K0 Li5 3.478700 1_556
K0 P5 3.511403 1_555
K0 Zr1 3.520870 1_556
K0 P9 3.583412 1_555
K1 P11 3.371688 1_555
K1 P10 3.376806 1_555
K1 P0 3.423503 1_555
K1 P7 3.423503 1_555
K1 P11 3.606485 1_445
K2 P9 3.371688 1_445
K2 P8 3.376806 1_555
K2 P2 3.423503 1_555
K2 P5 3.423503 1_555
K2 P9 3.606485 1_555
K3 P8 3.371688 1_555
K3 P9 3.376806 1_555
K3 P4 3.423503 1_555
K3 P3 3.423503 1_555
K3 P8 3.606485 1_665
K4 Li4 3.268791 1_555
K4 P4 3.347172 1_555
K4 P3 3.394094 1_545
K4 Li1 3.399769 1_555
K4 P2 3.413127 1_555
K4 Li6 3.478700 1_545
K4 P4 3.511403 1_445
K4 Zr0 3.520870 1_545
K4 P8 3.583412 1_555
K5 Li4 3.268791 1_555
K5 P7 3.347172 1_555
K5 P0 3.394094 1_655
K5 Li1 3.399769 1_555
K5 P1 3.413127 1_555
K5 Li6 3.478700 1_655
K5 P7 3.511403 1_665
K5 Zr0 3.520870 1_655
K5 P11 3.583412 1_555
K6 Li3 3.268791 1_455
K6 P6 3.347172 1_445
K6 P1 3.394094 1_455
K6 Li2 3.399769 1_455
K6 P0 3.413127 1_555
K6 Li5 3.478700 1_555
K6 P6 3.511403 1_555
K6 Zr1 3.520870 1_555
K6 P10 3.583412 1_555
K7 Li5 3.268791 1_545
K7 P1 3.347172 1_445
K7 P6 3.394094 1_545
K7 Li0 3.399769 1_545
K7 P7 3.413127 1_555
K7 Li3 3.478700 1_555
K7 P1 3.511403 1_555
K7 Zr3 3.520870 1_555
K7 P10 3.583412 1_555
K8 Li6 3.268791 1_555
K8 P0 3.347172 1_555
K8 P7 3.394094 1_565
K8 Li7 3.399769 1_555
K8 P6 3.413127 1_555
K8 Li4 3.478700 1_565
K8 P0 3.511403 1_665
K8 Zr2 3.520870 1_565
K8 P11 3.583412 1_555
K9 Li6 3.268791 1_555
K9 P3 3.347172 1_555
K9 P4 3.394094 1_455
K9 Li7 3.399769 1_555
K9 P5 3.413127 1_555
K9 Li4 3.478700 1_455
K9 P3 3.511403 1_445
K9 Zr2 3.520870 1_455
K9 P8 3.583412 1_555
K10 Li5 3.268791 1_656
K10 P2 3.347172 1_665
K10 P5 3.394094 1_655
K10 Li0 3.399769 1_656
K10 P4 3.413127 1_555
K10 Li3 3.478700 1_556
K10 P2 3.511403 1_555
K10 Zr3 3.520870 1_556
K10 P9 3.583412 1_555
K11 P10 3.371688 1_665
K11 P11 3.376806 1_555
K11 P6 3.423503 1_555
K11 P1 3.423503 1_555
K11 P10 3.606485 1_555
Li0 P2 2.659084 1_564
Li0 P1 2.659085 1_455
Li0 P9 2.701916 1_454
Li0 P10 2.701917 1_565
Li1 P4 2.659084 1_555
Li1 P7 2.659085 1_555
Li1 P8 2.701916 1_555
Li1 P11 2.701917 1_555
Li2 P6 2.659084 1_545
Li2 P5 2.659085 1_654
Li2 P10 2.701916 1_655
Li2 P9 2.701917 1_544
Li3 P2 2.661947 1_554
Li3 P1 2.661947 1_555
Li3 P5 2.721099 1_654
Li3 P6 2.721099 1_545
Li4 P0 2.661947 1_655
Li4 P3 2.661947 1_545
Li4 P7 2.721099 1_555
Li4 P4 2.721099 1_555
Li5 P6 2.661947 1_555
Li5 P5 2.661947 1_554
Li5 P1 2.721099 1_455
Li5 P2 2.721099 1_564
Li6 P4 2.661947 1_455
Li6 P7 2.661947 1_565
Li6 P3 2.721099 1_555
Li6 P0 2.721099 1_555
Li7 P0 2.659084 1_555
Li7 P3 2.659085 1_555
Li7 P11 2.701916 1_555
Li7 P8 2.701917 1_555
P0 Zr2 2.485781 1_455
P1 Zr3 2.485781 1_555
P2 Zr3 2.485781 1_556
P3 Zr2 2.485781 1_565
P4 Zr0 2.485781 1_655
P5 Zr1 2.485781 1_556
P6 Zr1 2.485781 1_555
P7 Zr0 2.485781 1_545
P8 Zr2 2.585702 1_455
P8 Zr0 2.585702 1_545
P9 Zr1 2.585702 1_556
P9 Zr3 2.585702 1_556
P10 Zr3 2.585702 1_555
P10 Zr1 2.585702 1_555
P11 Zr0 2.585702 1_655
P11 Zr2 2.585702 1_565
