# generated using pymatgen
data_BaAs12(OsRh)2
_symmetry_space_group_name_H-M   'P 1'
_cell_length_a   7.45239315
_cell_length_b   7.45348408
_cell_length_c   7.45348495
_cell_angle_alpha   109.46923309
_cell_angle_beta   109.46110766
_cell_angle_gamma   109.48925931
_symmetry_Int_Tables_number   1
_chemical_formula_structural   BaAs12(OsRh)2
_chemical_formula_sum   'Ba1 As12 Os2 Rh2'
_cell_volume   318.68433955
_cell_formula_units_Z   1
loop_
 _symmetry_equiv_pos_site_id
 _symmetry_equiv_pos_as_xyz
  1  'x, y, z'
loop_
 _atom_site_type_symbol
 _atom_site_label
 _atom_site_symmetry_multiplicity
 _atom_site_fract_x
 _atom_site_fract_y
 _atom_site_fract_z
 _atom_site_occupancy
  Ba  Ba0  1  0.00000000  0.00000000  0.00000000  1
  As  As0  1  0.84962700  0.64714334  0.49936142  1
  As  As1  1  0.15037300  0.35285666  0.50063858  1
  As  As2  1  0.15037300  0.64973542  0.79751833  1
  As  As3  1  0.84962700  0.35026458  0.20248167  1
  As  As4  1  0.64692016  0.49914109  0.84919923  1
  As  As5  1  0.35307984  0.50085891  0.15080077  1
  As  As6  1  0.64692016  0.79772093  0.14777908  1
  As  As7  1  0.35307984  0.20227907  0.85222092  1
  As  As8  1  0.50000042  0.84983851  0.65016291  1
  As  As9  1  0.49999958  0.15016149  0.34983709  1
  As  As10  1  0.20473115  0.85171549  0.35301665  1
  As  As11  1  0.79526885  0.14828451  0.64698335  1
  Os  Os0  1  0.50000000  0.50000000  0.50000000  1
  Os  Os1  1  0.50000000  0.00000000  0.00000000  1
  Rh  Rh0  1  0.00000000  0.50000000  0.00000000  1
  Rh  Rh1  1  0.00000000  0.00000000  0.50000000  1
loop_
_geom_bond_atom_site_label_1
_geom_bond_atom_site_label_2
_geom_bond_distance
_geom_bond_site_symmetry_2
As0 Os0 2.469161 1_555
As0 Rh1 2.488836 1_665
As0 As3 2.555167 1_555
As0 As2 2.566312 1_655
As0 Ba0 3.286632 1_666
As1 Os0 2.469161 1_555
As1 Rh1 2.488836 1_555
As1 As2 2.555167 1_555
As1 As3 2.566312 1_455
As1 Ba0 3.286632 1_555
As2 Os1 2.469158 1_566
As2 Rh0 2.488826 1_556
As2 Ba0 3.286622 1_566
As3 Os1 2.469158 1_555
As3 Rh0 2.488826 1_655
As3 Ba0 3.286622 1_655
As4 Os0 2.467805 1_555
As4 Rh0 2.490047 1_656
As4 As7 2.554338 1_555
As4 As6 2.569803 1_556
As4 Ba0 3.286508 1_666
As5 Os0 2.467805 1_555
As5 Rh0 2.490047 1_555
As5 As6 2.554338 1_555
As5 As7 2.569803 1_554
As5 Ba0 3.286508 1_555
As6 Os1 2.467805 1_565
As6 Rh1 2.490047 1_665
As6 Ba0 3.286508 1_665
As7 Os1 2.467805 1_556
As7 Rh1 2.490047 1_555
As7 Ba0 3.286508 1_556
As8 Os1 2.471105 1_566
As8 Os0 2.471112 1_555
As8 Ba0 3.276270 1_666
As9 Os1 2.471105 1_555
As9 Os0 2.471112 1_555
As9 Ba0 3.276270 1_555
As10 Rh1 2.486255 1_565
As10 Rh0 2.486262 1_555
As10 As8 2.557588 1_555
As10 As9 2.567989 1_565
As10 Ba0 3.295662 1_565
As11 Rh1 2.486255 1_655
As11 Rh0 2.486262 1_656
As11 As9 2.557588 1_555
As11 As8 2.567989 1_545
As11 Ba0 3.295662 1_656
