# generated using pymatgen
data_Si5P6O25
_symmetry_space_group_name_H-M   'P 1'
_cell_length_a   9.23551687
_cell_length_b   9.23551687
_cell_length_c   9.23551633
_cell_angle_alpha   50.40595302
_cell_angle_beta   50.40595298
_cell_angle_gamma   50.40594903
_symmetry_Int_Tables_number   1
_chemical_formula_structural   Si5P6O25
_chemical_formula_sum   'Si5 P6 O25'
_cell_volume   430.86322681
_cell_formula_units_Z   1
loop_
 _symmetry_equiv_pos_site_id
 _symmetry_equiv_pos_as_xyz
  1  'x, y, z'
loop_
 _atom_site_type_symbol
 _atom_site_label
 _atom_site_symmetry_multiplicity
 _atom_site_fract_x
 _atom_site_fract_y
 _atom_site_fract_z
 _atom_site_occupancy
  Si  Si0  1  -0.00000000  0.00000000  0.00000000  1
  Si  Si1  1  0.18008683  0.18008683  0.18008683  1
  Si  Si2  1  0.81991317  0.81991317  0.81991317  1
  Si  Si3  1  0.43391569  0.43391569  0.43391569  1
  Si  Si4  1  0.56608431  0.56608431  0.56608431  1
  P  P0  1  0.07319960  0.37795282  0.82584631  1
  P  P1  1  0.37795282  0.82584631  0.07319960  1
  P  P2  1  0.82584631  0.07319960  0.37795282  1
  P  P3  1  0.92680040  0.62204718  0.17415369  1
  P  P4  1  0.62204718  0.17415369  0.92680040  1
  P  P5  1  0.17415369  0.92680040  0.62204718  1
  O  O0  1  0.14348011  0.09469755  0.42759426  1
  O  O1  1  0.42759426  0.14348011  0.09469755  1
  O  O2  1  0.09469755  0.42759426  0.14348011  1
  O  O3  1  0.85651989  0.90530245  0.57240574  1
  O  O4  1  0.57240574  0.85651989  0.90530245  1
  O  O5  1  0.90530245  0.57240574  0.85651989  1
  O  O6  1  0.40767209  0.79102822  0.57191424  1
  O  O7  1  0.57191424  0.40767209  0.79102822  1
  O  O8  1  0.79102822  0.57191424  0.40767209  1
  O  O9  1  0.59232791  0.20897178  0.42808576  1
  O  O10  1  0.42808576  0.59232791  0.20897178  1
  O  O11  1  0.50000000  0.50000000  0.50000000  1
  O  O12  1  0.21922312  0.26821540  0.92498001  1
  O  O13  1  0.26821540  0.92498001  0.21922312  1
  O  O14  1  0.92498001  0.21922312  0.26821540  1
  O  O15  1  0.78077688  0.73178460  0.07501999  1
  O  O16  1  0.73178460  0.07501999  0.78077688  1
  O  O17  1  0.07501999  0.78077688  0.73178460  1
  O  O18  1  0.97517336  0.24998430  0.89713126  1
  O  O19  1  0.24998430  0.89713126  0.97517336  1
  O  O20  1  0.89713126  0.97517336  0.24998430  1
  O  O21  1  0.02482664  0.75001570  0.10286874  1
  O  O22  1  0.75001570  0.10286874  0.02482664  1
  O  O23  1  0.10286874  0.02482664  0.75001570  1
  O  O24  1  0.20897178  0.42808576  0.59232791  1
loop_
_geom_bond_atom_site_label_1
_geom_bond_atom_site_label_2
_geom_bond_distance
_geom_bond_site_symmetry_2
O0 P5 1.499583 1_545
O0 Si1 1.737325 1_555
O1 P4 1.499583 1_554
O1 Si1 1.737325 1_555
O2 P3 1.499583 1_455
O2 Si1 1.737325 1_555
O3 P2 1.499583 1_565
O3 Si2 1.737325 1_555
O4 P1 1.499583 1_556
O4 Si2 1.737325 1_555
O5 P0 1.499583 1_655
O5 Si2 1.737325 1_555
O6 P5 1.567796 1_555
O6 Si4 1.620841 1_555
O7 P4 1.567796 1_555
O7 Si4 1.620841 1_555
O8 P3 1.567796 1_555
O8 Si4 1.620841 1_555
O9 P2 1.567796 1_555
O9 Si3 1.620841 1_555
O10 P1 1.567796 1_555
O10 Si3 1.620841 1_555
O11 Si3 1.594341 1_555
O11 Si4 1.594341 1_555
O12 P0 1.527411 1_555
O12 Si1 1.785826 1_556
O13 P1 1.527411 1_555
O13 Si1 1.785826 1_565
O14 P2 1.527411 1_555
O14 Si1 1.785826 1_655
O15 P3 1.527411 1_555
O15 Si2 1.785826 1_554
O16 P4 1.527411 1_555
O16 Si2 1.785826 1_545
O17 P5 1.527411 1_555
O17 Si2 1.785826 1_455
O18 P0 1.504040 1_655
O18 Si0 1.758524 1_656
O19 P1 1.504040 1_556
O19 Si0 1.758524 1_566
O20 P2 1.504040 1_565
O20 Si0 1.758524 1_665
O21 P3 1.504040 1_455
O21 Si0 1.758524 1_565
O22 P4 1.504040 1_554
O22 Si0 1.758524 1_655
O23 P5 1.504040 1_545
O23 Si0 1.758524 1_556
O24 P0 1.567796 1_555
O24 Si3 1.620841 1_555
