# generated using pymatgen
data_Na20Si4As5P7
_symmetry_space_group_name_H-M   'P 1'
_cell_length_a   7.35398171
_cell_length_b   8.01037308
_cell_length_c   15.33776185
_cell_angle_alpha   59.32034149
_cell_angle_beta   89.99324903
_cell_angle_gamma   90.11671346
_symmetry_Int_Tables_number   1
_chemical_formula_structural   Na20Si4As5P7
_chemical_formula_sum   'Na20 Si4 As5 P7'
_cell_volume   777.05424893
_cell_formula_units_Z   1
loop_
 _symmetry_equiv_pos_site_id
 _symmetry_equiv_pos_as_xyz
  1  'x, y, z'
loop_
 _atom_site_type_symbol
 _atom_site_label
 _atom_site_symmetry_multiplicity
 _atom_site_fract_x
 _atom_site_fract_y
 _atom_site_fract_z
 _atom_site_occupancy
  Na  Na0  1  0.50733949  0.55645949  0.25499459  1
  Na  Na1  1  0.00891878  0.44455792  0.24241900  1
  Na  Na2  1  0.49082425  0.43934665  0.74512929  1
  Na  Na3  1  0.98983254  0.56028190  0.75537484  1
  Na  Na4  1  0.97822695  0.91021027  0.41474980  1
  Na  Na5  1  0.48223408  0.09071995  0.08618909  1
  Na  Na6  1  0.02078170  0.08882456  0.58790862  1
  Na  Na7  1  0.51992559  0.91041401  0.91287355  1
  Na  Na8  1  0.52936985  0.25467247  0.58259323  1
  Na  Na9  1  0.02688335  0.73865124  0.91898610  1
  Na  Na10  1  0.47053484  0.73990046  0.42073575  1
  Na  Na11  1  0.96906207  0.25264115  0.08405728  1
  Na  Na12  1  0.15849982  0.83879681  0.24355411  1
  Na  Na13  1  0.64663159  0.16785475  0.25644684  1
  Na  Na14  1  0.84941771  0.16048825  0.75705109  1
  Na  Na15  1  0.34860649  0.83862067  0.74361129  1
  Na  Na16  1  0.33249797  0.16298638  0.41577242  1
  Na  Na17  1  0.83638788  0.83827301  0.08037212  1
  Na  Na18  1  0.66430866  0.83428758  0.58537902  1
  Na  Na19  1  0.16513797  0.16568586  0.91504000  1
  Si  Si0  1  0.63622634  0.51836181  0.91577547  1
  Si  Si1  1  0.13711787  0.48102197  0.58453940  1
  Si  Si2  1  0.36356603  0.48383327  0.08256948  1
  Si  Si3  1  0.86642161  0.51184264  0.41941809  1
  As  As0  1  0.74034404  0.23531212  0.42123997  1
  As  As1  1  0.24022051  0.76459075  0.07838188  1
  As  As2  1  0.26018086  0.76224122  0.58020995  1
  As  As3  1  0.76050491  0.23910213  0.91908036  1
  As  As4  1  0.76805655  0.80603974  0.27662098  1
  P  P0  1  0.26896858  0.20613755  0.21847987  1
  P  P1  1  0.23046790  0.20196434  0.71936154  1
  P  P2  1  0.72983614  0.79836782  0.78033533  1
  P  P3  1  0.32157768  0.48341364  0.93378455  1
  P  P4  1  0.82198436  0.51512154  0.56693232  1
  P  P5  1  0.67911577  0.51780119  0.06461489  1
  P  P6  1  0.17998928  0.48117389  0.43541787  1
loop_
_geom_bond_atom_site_label_1
_geom_bond_atom_site_label_2
_geom_bond_distance
_geom_bond_site_symmetry_2
Na0 P5 3.337892 1_555
Na0 P6 3.479410 1_555
Na1 P0 2.858301 1_555
Na1 P6 3.364033 1_555
Na2 P1 2.861842 1_555
Na3 P2 2.863452 1_555
Na3 P4 3.327798 1_555
Na4 P4 3.038195 1_555
Na5 P3 3.044194 1_554
Na5 P0 3.057942 1_555
Na6 P1 3.020590 1_555
Na6 P6 3.033448 1_555
Na7 P2 3.031129 1_555
Na7 P5 3.037149 1_556
Na8 P1 2.915774 1_555
Na8 P4 2.917380 1_555
Na8 P6 3.290875 1_555
Na9 P3 2.910834 1_555
Na9 P2 2.913834 1_455
Na9 P5 3.256879 1_456
Na10 P6 2.901186 1_555
Na10 P4 3.293962 1_555
Na11 P0 2.911095 1_655
Na11 P5 2.918768 1_555
Na12 P6 2.879326 1_555
Na12 P0 2.881278 1_565
Na13 P0 2.822819 1_555
Na13 P5 2.855245 1_555
Na14 P1 2.845508 1_655
Na14 P4 2.857067 1_555
Na14 P2 2.871838 1_545
Na15 P2 2.846028 1_555
Na15 P3 2.858606 1_555
Na15 P1 2.875749 1_565
Na16 P0 2.903135 1_555
Na16 P6 2.939444 1_555
Na17 P5 2.933797 1_555
Na18 P2 2.894681 1_555
Na18 P4 2.951467 1_555
Na19 P1 2.903780 1_555
Na19 P3 2.935759 1_555
As0 Si3 2.386549 1_555
As0 Na13 2.923717 1_555
As0 Na18 2.951170 1_545
As0 Na8 2.991248 1_555
As0 Na6 3.019100 1_655
As0 Na0 3.062807 1_555
As0 Na16 3.062842 1_555
As0 Na1 3.086560 1_655
As0 Na4 3.183569 1_545
As1 Si2 2.397022 1_555
As1 Na12 2.944535 1_555
As1 Na19 2.949182 1_564
As1 Na9 2.999906 1_554
As1 Na7 3.000436 1_554
As1 Na17 3.032224 1_455
As1 Na1 3.032272 1_555
As1 Na0 3.063031 1_555
As1 Na5 3.210445 1_565
As2 Si1 2.395203 1_555
As2 Na15 2.939697 1_555
As2 Na16 2.946082 1_565
As2 Na10 2.975698 1_555
As2 Na4 3.014343 1_455
As2 Na18 3.035060 1_555
As2 Na2 3.050843 1_555
As2 Na3 3.055842 1_455
As2 Na6 3.207977 1_565
As3 Si0 2.394690 1_555
As3 Na14 2.932313 1_555
As3 Na17 2.939814 1_546
As3 Na11 3.007850 1_556
As3 Na5 3.008301 1_556
As3 Na3 3.026050 1_555
As3 Na19 3.041142 1_655
As3 Na2 3.044902 1_555
As3 Na7 3.210649 1_545
As4 Si3 2.369403 1_555
As4 Na13 2.896299 1_565
As4 Na12 2.903669 1_655
As4 Na0 2.905904 1_555
As4 Na17 2.930086 1_555
As4 Na10 2.958521 1_555
As4 Na4 3.061554 1_555
As4 Na5 3.372449 1_565
P0 Si2 2.244755 1_555
P1 Si1 2.243589 1_555
P2 Si0 2.249153 1_555
P3 Si2 2.304560 1_556
P3 Si0 2.329634 1_555
P4 Si3 2.299362 1_555
P4 Si1 2.333609 1_655
P5 Si0 2.302321 1_554
P5 Si2 2.335727 1_555
P6 Si1 2.308166 1_555
P6 Si3 2.319266 1_455
