# generated using pymatgen
data_Sr5NbTcN7
_symmetry_space_group_name_H-M   'P 1'
_cell_length_a   6.53998097
_cell_length_b   9.37157776
_cell_length_c   9.37349524
_cell_angle_alpha   116.08225229
_cell_angle_beta   96.31662695
_cell_angle_gamma   88.90849369
_symmetry_Int_Tables_number   1
_chemical_formula_structural   Sr5NbTcN7
_chemical_formula_sum   'Sr10 Nb2 Tc2 N14'
_cell_volume   512.58663914
_cell_formula_units_Z   2
loop_
 _symmetry_equiv_pos_site_id
 _symmetry_equiv_pos_as_xyz
  1  'x, y, z'
loop_
 _atom_site_type_symbol
 _atom_site_label
 _atom_site_symmetry_multiplicity
 _atom_site_fract_x
 _atom_site_fract_y
 _atom_site_fract_z
 _atom_site_occupancy
  Sr  Sr0  1  0.84316056  0.59217559  0.31622374  1
  Sr  Sr1  1  0.26291851  0.98848392  0.56038359  1
  Sr  Sr2  1  0.70634538  0.41601401  0.85767758  1
  Sr  Sr3  1  0.29365462  0.58398599  0.14232242  1
  Sr  Sr4  1  0.40708535  0.79610765  0.93669779  1
  Sr  Sr5  1  0.59291465  0.20389235  0.06330221  1
  Sr  Sr6  1  0.15683944  0.40782441  0.68377626  1
  Sr  Sr7  1  0.91097993  0.84867866  0.76949011  1
  Sr  Sr8  1  0.08902007  0.15132134  0.23050989  1
  Sr  Sr9  1  0.73708149  0.01151608  0.43961641  1
  Nb  Nb0  1  0.11692720  0.21357721  0.91233615  1
  Nb  Nb1  1  0.88307280  0.78642279  0.08766385  1
  Tc  Tc0  1  0.57242940  0.36026610  0.47524223  1
  Tc  Tc1  1  0.42757060  0.63973390  0.52475777  1
  N  N0  1  0.52305973  0.54892024  0.67215534  1
  N  N1  1  0.47694027  0.45107976  0.32784466  1
  N  N2  1  0.16918441  0.69219277  0.53913666  1
  N  N3  1  0.83081559  0.30780723  0.46086334  1
  N  N4  1  0.41174583  0.20259282  0.45997556  1
  N  N5  1  0.58825417  0.79740718  0.54002444  1
  N  N6  1  0.94490426  0.12597160  0.70482394  1
  N  N7  1  0.05509574  0.87402840  0.29517606  1
  N  N8  1  0.23300497  0.04409835  0.95985547  1
  N  N9  1  0.76699503  0.95590165  0.04014453  1
  N  N10  1  0.35615314  0.32580409  0.89102404  1
  N  N11  1  0.95636030  0.35042829  0.08724765  1
  N  N12  1  0.04363970  0.64957171  0.91275235  1
  N  N13  1  0.64384686  0.67419591  0.10897596  1
loop_
_geom_bond_atom_site_label_1
_geom_bond_atom_site_label_2
_geom_bond_distance
_geom_bond_site_symmetry_2
N0 Tc1 1.961394 1_555
N0 Tc0 1.968954 1_555
N0 Sr4 2.717776 1_555
N0 Sr2 2.720541 1_555
N0 Sr6 2.793101 1_555
N1 Tc0 1.961394 1_555
N1 Tc1 1.968954 1_555
N1 Sr5 2.717776 1_555
N1 Sr3 2.720541 1_555
N1 Sr0 2.793101 1_555
N2 Tc1 1.753745 1_555
N2 Sr0 2.676630 1_455
N2 Sr7 2.754635 1_455
N2 Sr1 2.770798 1_555
N3 Tc0 1.753745 1_555
N3 Sr6 2.676630 1_655
N3 Sr8 2.754635 1_655
N3 Sr9 2.770798 1_555
N4 Tc0 1.774366 1_555
N4 Sr9 2.722821 1_555
N4 Sr8 2.728161 1_555
N4 Sr1 2.792124 1_545
N4 Sr6 2.824655 1_555
N5 Tc1 1.774366 1_555
N5 Sr1 2.722821 1_555
N5 Sr7 2.728161 1_555
N5 Sr9 2.792124 1_565
N5 Sr0 2.824655 1_555
N6 Nb0 1.967901 1_655
N6 Sr9 2.478915 1_555
N6 Sr1 2.608142 1_645
N6 Sr7 2.933664 1_545
N6 Sr2 2.963298 1_555
N6 Sr6 3.097576 1_655
N7 Nb1 1.967901 1_455
N7 Sr1 2.478915 1_555
N7 Sr9 2.608142 1_465
N7 Sr8 2.933664 1_565
N7 Sr3 2.963298 1_555
N7 Sr0 3.097576 1_455
N8 Nb0 1.949125 1_555
N8 Sr4 2.500902 1_545
N8 Sr8 2.565286 1_556
N8 Sr5 2.660528 1_556
N8 Sr7 2.723949 1_445
N9 Nb1 1.949125 1_555
N9 Sr5 2.500902 1_565
N9 Sr7 2.565286 1_554
N9 Sr4 2.660528 1_554
N9 Sr8 2.723949 1_665
N10 Nb0 1.977385 1_555
N10 Sr2 2.553687 1_555
N10 Sr3 2.594716 1_556
N10 Sr6 2.604122 1_555
N10 Sr5 2.704692 1_556
N11 Nb0 1.978431 1_654
N11 Sr0 2.509466 1_555
N11 Sr5 2.705914 1_555
N11 Sr8 2.814792 1_655
N11 Sr2 2.834144 1_554
N11 Sr3 2.977101 1_655
N12 Nb1 1.978431 1_456
N12 Sr6 2.509466 1_555
N12 Sr4 2.705914 1_555
N12 Sr7 2.814792 1_455
N12 Sr3 2.834144 1_556
N12 Sr2 2.977101 1_455
N13 Nb1 1.977385 1_555
N13 Sr3 2.553687 1_555
N13 Sr2 2.594716 1_554
N13 Sr0 2.604122 1_555
N13 Sr4 2.704692 1_554
