# generated using pymatgen
data_Hf5Al16GeIr7
_symmetry_space_group_name_H-M   'P 1'
_cell_length_a   8.61217178
_cell_length_b   8.68364377
_cell_length_c   8.68364368
_cell_angle_alpha   59.45620976
_cell_angle_beta   60.27189437
_cell_angle_gamma   60.27189681
_symmetry_Int_Tables_number   1
_chemical_formula_structural   Hf5Al16GeIr7
_chemical_formula_sum   'Hf5 Al16 Ge1 Ir7'
_cell_volume   459.13808353
_cell_formula_units_Z   1
loop_
 _symmetry_equiv_pos_site_id
 _symmetry_equiv_pos_as_xyz
  1  'x, y, z'
loop_
 _atom_site_type_symbol
 _atom_site_label
 _atom_site_symmetry_multiplicity
 _atom_site_fract_x
 _atom_site_fract_y
 _atom_site_fract_z
 _atom_site_occupancy
  Hf  Hf0  1  0.31623872  0.68376128  0.68376128  1
  Hf  Hf1  1  0.28875685  0.71124315  0.29130698  1
  Hf  Hf2  1  0.70869302  0.29130698  0.71124315  1
  Hf  Hf3  1  0.28875685  0.29130698  0.71124315  1
  Hf  Hf4  1  0.70869302  0.71124315  0.29130698  1
  Al  Al0  1  0.37329539  0.33433740  0.33433740  1
  Al  Al1  1  0.67629979  0.65444796  0.65444796  1
  Al  Al2  1  0.34555204  0.32370021  0.98519470  1
  Al  Al3  1  0.34555204  0.98519470  0.32370021  1
  Al  Al4  1  0.66566260  0.62670461  0.04196919  1
  Al  Al5  1  0.66566260  0.04196919  0.62670461  1
  Al  Al6  1  0.95803081  0.33433740  0.33433740  1
  Al  Al7  1  0.01480530  0.65444796  0.65444796  1
  Al  Al8  1  0.11289926  0.11961036  0.11961036  1
  Al  Al9  1  0.88341751  0.87127040  0.87127040  1
  Al  Al10  1  0.12872960  0.11658249  0.62595932  1
  Al  Al11  1  0.12872960  0.62595932  0.11658249  1
  Al  Al12  1  0.88038964  0.88710074  0.35211898  1
  Al  Al13  1  0.88038964  0.35211898  0.88710074  1
  Al  Al14  1  0.64788102  0.11961036  0.11961036  1
  Al  Al15  1  0.37404068  0.87127040  0.87127040  1
  Ge  Ge0  1  0.54210594  0.45789406  0.45789406  1
  Ir  Ir0  1  0.51167075  0.98832925  0.98832925  1
  Ir  Ir1  1  0.01167075  0.48832925  0.48832925  1
  Ir  Ir2  1  0.01260308  0.49638276  0.98739692  1
  Ir  Ir3  1  0.50361724  0.98739692  0.49638276  1
  Ir  Ir4  1  0.01260308  0.98739692  0.49638276  1
  Ir  Ir5  1  0.50361724  0.49638276  0.98739692  1
  Ir  Ir6  1  0.00963395  0.99036605  0.99036605  1
loop_
_geom_bond_atom_site_label_1
_geom_bond_atom_site_label_2
_geom_bond_distance
_geom_bond_site_symmetry_2
Hf0 Ir2 3.075529 1_555
Hf0 Ir3 3.075529 1_555
Hf0 Ir5 3.075529 1_555
Hf0 Ir4 3.075529 1_555
Hf1 Ir1 3.087815 1_555
Hf1 Ir0 3.087815 1_554
Hf2 Ir1 3.087815 1_655
Hf2 Ir0 3.087815 1_545
Hf3 Ir1 3.087815 1_555
Hf3 Ir0 3.087815 1_545
Hf4 Ir1 3.087815 1_655
Hf4 Ir0 3.087815 1_554
Al0 Ir5 2.494023 1_554
Al0 Ir3 2.494023 1_545
Al0 Ir1 2.613894 1_555
Al0 Ge0 2.946179 1_555
Al1 Ir5 2.486243 1_555
Al1 Ir3 2.486243 1_555
Al1 Ir1 2.520835 1_655
Al1 Hf0 2.871483 1_555
Al2 Ir2 2.486241 1_555
Al2 Ir5 2.486248 1_555
Al2 Ir0 2.520833 1_545
Al2 Hf0 2.871480 1_555
Al3 Ir4 2.486241 1_555
Al3 Ir3 2.486248 1_555
Al3 Ir0 2.520833 1_554
Al3 Hf0 2.871480 1_555
Al4 Ir5 2.494017 1_554
Al4 Ir2 2.494024 1_654
Al4 Ir0 2.613895 1_554
Al4 Ge0 2.946186 1_555
Al5 Ir3 2.494017 1_545
Al5 Ir4 2.494024 1_645
Al5 Ir0 2.613895 1_545
Al5 Ge0 2.946186 1_555
Al6 Ir2 2.494024 1_654
Al6 Ir4 2.494024 1_645
Al6 Ir1 2.613888 1_655
Al6 Ge0 2.946186 1_555
Al7 Ir2 2.486241 1_555
Al7 Ir4 2.486241 1_555
Al7 Ir1 2.520840 1_555
Al7 Hf0 2.871475 1_555
Al8 Ir6 2.563225 1_544
Al8 Ir4 2.670485 1_545
Al8 Ir2 2.670486 1_554
Al8 Ir0 2.819346 1_544
Al8 Hf3 2.937841 1_554
Al8 Hf1 2.937841 1_545
Al9 Ir6 2.576337 1_655
Al9 Ir0 2.628970 1_555
Al9 Ir4 2.652610 1_655
Al9 Ir2 2.652610 1_655
Al9 Hf0 3.138913 1_655
Al10 Ir6 2.576330 1_545
Al10 Ir1 2.628971 1_555
Al10 Ir3 2.652610 1_545
Al10 Ir4 2.652617 1_545
Al10 Hf0 3.138915 1_545
Al11 Ir6 2.576330 1_554
Al11 Ir1 2.628971 1_555
Al11 Ir5 2.652610 1_554
Al11 Ir2 2.652617 1_554
Al11 Hf0 3.138915 1_554
Al12 Ir6 2.563218 1_654
Al12 Ir3 2.670486 1_555
Al12 Ir4 2.670493 1_655
Al12 Ir1 2.819346 1_655
Al12 Hf4 2.937835 1_555
Al12 Hf1 2.937842 1_655
Al13 Ir6 2.563218 1_645
Al13 Ir5 2.670486 1_555
Al13 Ir2 2.670493 1_655
Al13 Ir1 2.819346 1_655
Al13 Hf2 2.937835 1_555
Al13 Hf3 2.937842 1_655
Al14 Ir6 2.563218 1_644
Al14 Ir3 2.670486 1_545
Al14 Ir5 2.670486 1_554
Al14 Ir0 2.819353 1_544
Al14 Hf2 2.937842 1_554
Al14 Hf4 2.937843 1_545
Al15 Ir6 2.576330 1_555
Al15 Ir0 2.628978 1_555
Al15 Ir3 2.652610 1_555
Al15 Ir5 2.652610 1_555
Al15 Hf0 3.138908 1_555
Ge0 Hf3 2.613088 1_555
Ge0 Hf4 2.613088 1_555
Ge0 Hf2 2.613088 1_555
Ge0 Hf1 2.613088 1_555
Ge0 Hf0 2.796412 1_555
