# generated using pymatgen
data_Ta2FeO6
_symmetry_space_group_name_H-M   'P 1'
_cell_length_a   4.75172540
_cell_length_b   10.14506526
_cell_length_c   9.50255923
_cell_angle_alpha   62.08412913
_cell_angle_beta   90.00000000
_cell_angle_gamma   90.00000000
_symmetry_Int_Tables_number   1
_chemical_formula_structural   Ta2FeO6
_chemical_formula_sum   'Ta8 Fe4 O24'
_cell_volume   404.78103508
_cell_formula_units_Z   4
loop_
 _symmetry_equiv_pos_site_id
 _symmetry_equiv_pos_as_xyz
  1  'x, y, z'
loop_
 _atom_site_type_symbol
 _atom_site_label
 _atom_site_symmetry_multiplicity
 _atom_site_fract_x
 _atom_site_fract_y
 _atom_site_fract_z
 _atom_site_occupancy
  Ta  Ta0  1  -0.00001914  0.67066234  0.16463572  1
  Ta  Ta1  1  -0.00001914  0.67066234  0.66463572  1
  Ta  Ta2  1  0.50001914  0.17066234  0.16463572  1
  Ta  Ta3  1  0.50001914  0.17066234  0.66463572  1
  Ta  Ta4  1  0.49998086  0.82933766  0.83536428  1
  Ta  Ta5  1  0.49998086  0.82933766  0.33536428  1
  Ta  Ta6  1  0.00001914  0.32933766  0.33536428  1
  Ta  Ta7  1  0.00001914  0.32933766  0.83536428  1
  Fe  Fe0  1  0.50000000  0.50000000  0.00000000  1
  Fe  Fe1  1  0.00000000  -0.00000000  0.50000000  1
  Fe  Fe2  1  0.50000000  0.50000000  0.50000000  1
  Fe  Fe3  1  0.00000000  -0.00000000  0.00000000  1
  O  O0  1  0.69147658  0.99998308  0.15422641  1
  O  O1  1  0.69147658  0.99998308  0.65422641  1
  O  O2  1  0.80852342  0.49998308  0.15422641  1
  O  O3  1  0.80852342  0.49998308  0.65422641  1
  O  O4  1  0.19147658  0.50001692  0.84577359  1
  O  O5  1  0.19147658  0.50001692  0.34577359  1
  O  O6  1  0.30852342  0.00001692  0.34577359  1
  O  O7  1  0.30852342  0.00001692  0.84577359  1
  O  O8  1  0.70307717  0.67055833  0.81317191  1
  O  O9  1  0.70307717  0.67055833  0.31317191  1
  O  O10  1  0.29697019  0.67054748  0.01628132  1
  O  O11  1  0.29697019  0.67054748  0.51628132  1
  O  O12  1  0.29692283  0.32944167  0.18682809  1
  O  O13  1  0.29692283  0.32944167  0.68682809  1
  O  O14  1  0.20307717  0.82944167  0.68682809  1
  O  O15  1  0.20307717  0.82944167  0.18682809  1
  O  O16  1  0.79697019  0.82945252  0.98371868  1
  O  O17  1  0.79697019  0.82945252  0.48371868  1
  O  O18  1  0.79692283  0.17055833  0.31317191  1
  O  O19  1  0.79692283  0.17055833  0.81317191  1
  O  O20  1  0.20302981  0.17054748  0.01628132  1
  O  O21  1  0.20302981  0.17054748  0.51628132  1
  O  O22  1  0.70302981  0.32945252  0.98371868  1
  O  O23  1  0.70302981  0.32945252  0.48371868  1
loop_
_geom_bond_atom_site_label_1
_geom_bond_atom_site_label_2
_geom_bond_distance
_geom_bond_site_symmetry_2
Fe0 O10 2.049136 1_555
Fe0 O22 2.049136 1_554
Fe0 O8 2.049547 1_554
Fe0 O12 2.049547 1_555
Fe0 O2 2.072872 1_555
Fe0 O4 2.072872 1_554
Fe1 O17 2.049136 1_445
Fe1 O21 2.049136 1_555
Fe1 O14 2.049547 1_545
Fe1 O18 2.049547 1_455
Fe1 O6 2.072872 1_555
Fe1 O1 2.072872 1_445
Fe2 O23 2.049136 1_555
Fe2 O11 2.049136 1_555
Fe2 O9 2.049547 1_555
Fe2 O13 2.049547 1_555
Fe2 O5 2.072872 1_555
Fe2 O3 2.072872 1_555
Fe3 O20 2.049136 1_555
Fe3 O16 2.049136 1_444
Fe3 O19 2.049547 1_454
Fe3 O15 2.049547 1_545
Fe3 O0 2.072872 1_445
Fe3 O7 2.072872 1_554
O0 Ta2 1.999020 1_565
O0 Ta5 1.999409 1_555
O1 Ta3 1.999020 1_565
O1 Ta4 1.999409 1_555
O2 Ta0 1.999020 1_655
O2 Ta6 1.999409 1_655
O3 Ta1 1.999020 1_655
O3 Ta7 1.999409 1_655
O4 Ta7 1.999020 1_555
O4 Ta1 1.999409 1_555
O5 Ta6 1.999020 1_555
O5 Ta0 1.999409 1_555
O6 Ta5 1.999020 1_545
O6 Ta2 1.999409 1_555
O7 Ta4 1.999020 1_545
O7 Ta3 1.999409 1_555
O8 Ta4 1.971965 1_555
O8 Ta1 1.995303 1_655
O9 Ta5 1.971965 1_555
O9 Ta0 1.995303 1_655
O10 Ta4 1.971808 1_554
O10 Ta0 1.995105 1_555
O11 Ta5 1.971808 1_555
O11 Ta1 1.995105 1_555
O12 Ta2 1.971965 1_555
O12 Ta6 1.995303 1_555
O13 Ta3 1.971965 1_555
O13 Ta7 1.995303 1_555
O14 Ta1 1.971965 1_555
O14 Ta4 1.995303 1_555
O15 Ta0 1.971965 1_555
O15 Ta5 1.995303 1_555
O16 Ta0 1.971808 1_656
O16 Ta4 1.995105 1_555
O17 Ta1 1.971808 1_655
O17 Ta5 1.995105 1_555
O18 Ta6 1.971965 1_655
O18 Ta2 1.995303 1_555
O19 Ta7 1.971965 1_655
O19 Ta3 1.995303 1_555
O20 Ta7 1.971808 1_554
O20 Ta2 1.995105 1_555
O21 Ta6 1.971808 1_555
O21 Ta3 1.995105 1_555
O22 Ta2 1.971808 1_556
O22 Ta7 1.995105 1_655
O23 Ta3 1.971808 1_555
O23 Ta6 1.995105 1_655
