# generated using pymatgen
data_CsCrTe3O8
_symmetry_space_group_name_H-M   'P 1'
_cell_length_a   5.56841689
_cell_length_b   7.76763903
_cell_length_c   10.94663504
_cell_angle_alpha   100.02863568
_cell_angle_beta   89.64829719
_cell_angle_gamma   108.63222020
_symmetry_Int_Tables_number   1
_chemical_formula_structural   CsCrTe3O8
_chemical_formula_sum   'Cs2 Cr2 Te6 O16'
_cell_volume   441.18690352
_cell_formula_units_Z   2
loop_
 _symmetry_equiv_pos_site_id
 _symmetry_equiv_pos_as_xyz
  1  'x, y, z'
loop_
 _atom_site_type_symbol
 _atom_site_label
 _atom_site_symmetry_multiplicity
 _atom_site_fract_x
 _atom_site_fract_y
 _atom_site_fract_z
 _atom_site_occupancy
  Cs  Cs0  1  0.82372149  0.11065515  0.15822334  1
  Cs  Cs1  1  0.17627851  0.88934485  0.84177666  1
  Cr  Cr0  1  0.50000000  0.50000000  0.00000000  1
  Cr  Cr1  1  0.00000000  0.50000000  0.50000000  1
  Te  Te0  1  0.21883527  0.96934502  0.41647247  1
  Te  Te1  1  0.78116473  0.03065498  0.58352753  1
  Te  Te2  1  0.04820831  0.64700166  0.14832791  1
  Te  Te3  1  0.95179169  0.35299834  0.85167209  1
  Te  Te4  1  0.51745183  0.53082043  0.33713094  1
  Te  Te5  1  0.48254817  0.46917957  0.66286906  1
  O  O0  1  0.14943350  0.71885044  0.41934610  1
  O  O1  1  0.85056650  0.28114956  0.58065390  1
  O  O2  1  0.22555786  0.89838946  0.22617759  1
  O  O3  1  0.77444214  0.10161054  0.77382241  1
  O  O4  1  0.88294807  0.97379757  0.39601873  1
  O  O5  1  0.11705193  0.02620243  0.60398127  1
  O  O6  1  0.26557154  0.65058527  0.01607469  1
  O  O7  1  0.73442846  0.34941473  0.98392531  1
  O  O8  1  0.80085981  0.71328617  0.07102630  1
  O  O9  1  0.19914019  0.28671383  0.92897370  1
  O  O10  1  0.41355788  0.43083346  0.16849210  1
  O  O11  1  0.58644212  0.56916654  0.83150790  1
  O  O12  1  0.23252319  0.38057919  0.40565927  1
  O  O13  1  0.76747681  0.61942081  0.59434073  1
  O  O14  1  0.73214996  0.39453341  0.36051153  1
  O  O15  1  0.26785004  0.60546659  0.63948847  1
loop_
_geom_bond_atom_site_label_1
_geom_bond_atom_site_label_2
_geom_bond_distance
_geom_bond_site_symmetry_2
Cs0 O14 3.004958 1_555
Cs0 O7 3.026619 1_554
Cs0 O8 3.029656 1_545
Cs0 O4 3.035311 1_545
Cs0 O2 3.329227 1_645
Cs0 O2 3.354670 1_545
Cs0 O10 3.416606 1_655
Cs0 O9 3.441236 1_654
Cs0 O12 3.458676 1_655
Cs1 O15 3.004958 1_555
Cs1 O6 3.026619 1_556
Cs1 O9 3.029656 1_565
Cs1 O5 3.035311 1_565
Cs1 O3 3.329227 1_465
Cs1 O3 3.354670 1_565
Cs1 O11 3.416606 1_455
Cs1 O8 3.441236 1_456
Cs1 O13 3.458676 1_455
Cr0 O8 1.987404 1_555
Cr0 O9 1.987404 1_554
Cr0 O6 2.001092 1_555
Cr0 O7 2.001092 1_554
Cr0 O10 2.022674 1_555
Cr0 O11 2.022674 1_554
Cr1 O0 1.992878 1_555
Cr1 O1 1.992878 1_455
Cr1 O12 2.005206 1_555
Cr1 O13 2.005206 1_455
Cr1 O15 2.009665 1_555
Cr1 O14 2.009665 1_455
O0 Te0 1.864664 1_555
O1 Te1 1.864664 1_555
O2 Te2 1.926928 1_555
O2 Te0 2.063200 1_555
O3 Te3 1.926928 1_555
O3 Te1 2.063200 1_555
O4 Te0 1.897036 1_655
O4 Te1 2.135264 1_565
O5 Te1 1.897036 1_455
O5 Te0 2.135264 1_545
O6 Te2 1.879542 1_555
O7 Te3 1.879542 1_555
O8 Te2 1.870131 1_655
O9 Te3 1.870131 1_455
O10 Te4 1.890072 1_555
O11 Te5 1.890072 1_555
O12 Te4 1.883911 1_555
O13 Te5 1.883911 1_555
O14 Te4 1.876785 1_555
O15 Te5 1.876785 1_555
