# generated using pymatgen
data_ZrSc11(Zn3N)4
_symmetry_space_group_name_H-M   'P 1'
_cell_length_a   8.50053939
_cell_length_b   8.50053946
_cell_length_c   8.51287461
_cell_angle_alpha   59.95199011
_cell_angle_beta   59.95198987
_cell_angle_gamma   59.98349246
_symmetry_Int_Tables_number   1
_chemical_formula_structural   ZrSc11(Zn3N)4
_chemical_formula_sum   'Zr1 Sc11 Zn12 N4'
_cell_volume   434.59481758
_cell_formula_units_Z   1
loop_
 _symmetry_equiv_pos_site_id
 _symmetry_equiv_pos_as_xyz
  1  'x, y, z'
loop_
 _atom_site_type_symbol
 _atom_site_label
 _atom_site_symmetry_multiplicity
 _atom_site_fract_x
 _atom_site_fract_y
 _atom_site_fract_z
 _atom_site_occupancy
  Zr  Zr0  1  0.06267369  0.06267369  0.43732631  1
  Sc  Sc0  1  0.81225416  0.18670864  0.18582344  1
  Sc  Sc1  1  0.18670864  0.81225416  0.18582344  1
  Sc  Sc2  1  0.81324774  0.81324774  0.18675226  1
  Sc  Sc3  1  0.18670864  0.81225416  0.81521476  1
  Sc  Sc4  1  0.81225416  0.18670864  0.81521476  1
  Sc  Sc5  1  0.18694477  0.18694477  0.81305523  1
  Sc  Sc6  1  0.43659707  0.06290541  0.06364506  1
  Sc  Sc7  1  0.06290541  0.43659707  0.06364506  1
  Sc  Sc8  1  0.43669704  0.43669704  0.06330296  1
  Sc  Sc9  1  0.06290541  0.43659707  0.43685146  1
  Sc  Sc10  1  0.43659707  0.06290541  0.43685146  1
  Zn  Zn0  1  0.42008308  0.42008308  0.73928094  1
  Zn  Zn1  1  0.42008308  0.42008308  0.42055190  1
  Zn  Zn2  1  0.73970524  0.41994838  0.42017269  1
  Zn  Zn3  1  0.41994838  0.73970524  0.42017269  1
  Zn  Zn4  1  0.83048660  0.83048660  0.50996875  1
  Zn  Zn5  1  0.83048660  0.83048660  0.82905905  1
  Zn  Zn6  1  0.51059843  0.83023764  0.82958196  1
  Zn  Zn7  1  0.83023764  0.51059843  0.82958196  1
  Zn  Zn8  1  0.62555084  0.62555084  0.12410771  1
  Zn  Zn9  1  0.62555084  0.62555084  0.62479061  1
  Zn  Zn10  1  0.12500163  0.62724753  0.62387592  1
  Zn  Zn11  1  0.62724753  0.12500163  0.62387592  1
  N  N0  1  0.12482182  0.12482182  0.62468430  1
  N  N1  1  0.12482182  0.12482182  0.12567107  1
  N  N2  1  0.62414686  0.12473281  0.12556016  1
  N  N3  1  0.12473281  0.62414686  0.12556016  1
loop_
_geom_bond_atom_site_label_1
_geom_bond_atom_site_label_2
_geom_bond_distance
_geom_bond_site_symmetry_2
Sc0 Zn7 2.897537 1_554
Sc0 Zn4 2.898023 1_545
Sc0 Zn11 3.106095 1_555
Sc0 Zn8 3.107993 1_555
Sc0 Zn1 3.118303 1_555
Sc0 Zn2 3.130007 1_555
Sc1 Zn6 2.897537 1_554
Sc1 Zn4 2.898023 1_455
Sc1 Zn10 3.106095 1_555
Sc1 Zn8 3.107993 1_555
Sc1 Zn1 3.118303 1_555
Sc1 Zn3 3.130007 1_555
Sc2 Zn5 2.905636 1_554
Sc2 Zn4 2.905645 1_555
Sc2 Zn8 3.102736 1_555
Sc2 Zn9 3.102736 1_555
Sc2 Zn3 3.116210 1_555
Sc2 Zn2 3.116210 1_555
Sc3 Zn6 2.897532 1_555
Sc3 Zn5 2.898022 1_455
Sc3 Zn10 3.106095 1_555
Sc3 Zn9 3.107994 1_555
Sc3 Zn0 3.118310 1_555
Sc3 Zn3 3.130021 1_555
Sc4 Zn7 2.897532 1_555
Sc4 Zn5 2.898022 1_545
Sc4 Zn11 3.106095 1_555
Sc4 Zn9 3.107994 1_555
Sc4 Zn0 3.118310 1_555
Sc4 Zn2 3.130021 1_555
Sc5 Zn7 2.897806 1_455
Sc5 Zn6 2.897806 1_545
Sc5 Zn0 3.112252 1_555
Sc5 Zn1 3.112256 1_555
Sc5 Zn11 3.117777 1_555
Sc5 Zn10 3.117777 1_555
Sc6 Zn3 2.896212 1_545
Sc6 Zn0 2.903216 1_554
Sc6 Zn8 3.098972 1_545
Sc6 Zn11 3.117899 1_554
Sc6 Zn6 3.118373 1_544
Sc6 Zn5 3.120706 1_544
Sc7 Zn2 2.896212 1_455
Sc7 Zn0 2.903216 1_554
Sc7 Zn8 3.098972 1_455
Sc7 Zn10 3.117899 1_554
Sc7 Zn7 3.118373 1_454
Sc7 Zn5 3.120706 1_454
Sc8 Zn1 2.906645 1_555
Sc8 Zn0 2.906653 1_554
Sc8 Zn8 3.108876 1_555
Sc8 Zn9 3.108876 1_554
Sc8 Zn7 3.119237 1_554
Sc8 Zn6 3.119237 1_554
Sc9 Zn2 2.896212 1_455
Sc9 Zn1 2.903216 1_555
Sc9 Zn9 3.098973 1_455
Sc9 Zn10 3.117913 1_555
Sc9 Zn7 3.118381 1_455
Sc9 Zn4 3.120714 1_455
Sc10 Zn3 2.896212 1_545
Sc10 Zn1 2.903216 1_555
Sc10 Zn9 3.098973 1_545
Sc10 Zn11 3.117913 1_555
Sc10 Zn6 3.118381 1_545
Sc10 Zn4 3.120714 1_545
Zn0 Zn10 2.583406 1_555
Zn0 Zn11 2.583406 1_555
Zn0 Zn9 2.587202 1_555
Zn0 Zn1 2.713300 1_555
Zn0 Zn2 2.714774 1_555
Zn0 Zn3 2.714774 1_555
Zn1 Zn10 2.583415 1_555
Zn1 Zn11 2.583415 1_555
Zn1 Zn8 2.587199 1_555
Zn1 Zn2 2.714774 1_555
Zn1 Zn3 2.714774 1_555
Zn2 Zn8 2.586418 1_555
Zn2 Zn9 2.586425 1_555
Zn2 Zn3 2.717428 1_555
Zn2 Zr0 2.897833 1_655
Zn3 Zn8 2.586418 1_555
Zn3 Zn9 2.586425 1_555
Zn3 Zr0 2.897833 1_565
Zn4 Zn9 2.578908 1_555
Zn4 Zn5 2.716376 1_555
Zn4 Zn6 2.718050 1_555
Zn4 Zn7 2.718050 1_555
Zn4 Zr0 3.102644 1_665
Zn5 Zn8 2.578905 1_556
Zn5 Zn6 2.718054 1_555
Zn5 Zn7 2.718054 1_555
Zn5 Zr0 3.102648 1_665
Zn6 Zn9 2.579200 1_555
Zn6 Zn8 2.579200 1_556
Zn6 Zn7 2.716428 1_555
Zn7 Zn9 2.579200 1_555
Zn7 Zn8 2.579200 1_556
Zn10 Zn3 2.567259 1_555
Zn10 Zn4 2.572703 1_455
Zn10 Zn5 2.572703 1_455
Zn10 Zn7 2.584721 1_455
Zn10 Zr0 3.081681 1_565
Zn11 Zn2 2.567259 1_555
Zn11 Zn4 2.572703 1_545
Zn11 Zn5 2.572703 1_545
Zn11 Zn6 2.584721 1_545
Zn11 Zr0 3.081681 1_655
N0 Sc10 2.249665 1_555
N0 Sc9 2.249665 1_555
N0 Zr0 2.251433 1_555
N0 Sc5 2.259268 1_555
N0 Sc4 2.259949 1_455
N0 Sc3 2.259949 1_545
N1 Sc6 2.249665 1_555
N1 Sc7 2.249665 1_555
N1 Zr0 2.251441 1_555
N1 Sc5 2.259260 1_554
N1 Sc0 2.259945 1_455
N1 Sc1 2.259945 1_545
N2 Sc4 2.243333 1_554
N2 Sc0 2.243339 1_555
N2 Sc10 2.247880 1_555
N2 Sc6 2.247886 1_555
N2 Sc8 2.250077 1_555
N2 Sc2 2.250561 1_545
N3 Sc3 2.243333 1_554
N3 Sc1 2.243339 1_555
N3 Sc9 2.247880 1_555
N3 Sc7 2.247886 1_555
N3 Sc8 2.250077 1_555
N3 Sc2 2.250561 1_455
