# generated using pymatgen
data_Mg2PtO4
_symmetry_space_group_name_H-M   'P 1'
_cell_length_a   6.03380860
_cell_length_b   6.03380995
_cell_length_c   5.93206841
_cell_angle_alpha   60.55625051
_cell_angle_beta   60.55624945
_cell_angle_gamma   61.12526785
_symmetry_Int_Tables_number   1
_chemical_formula_structural   Mg2PtO4
_chemical_formula_sum   'Mg4 Pt2 O8'
_cell_volume   155.27260238
_cell_formula_units_Z   2
loop_
 _symmetry_equiv_pos_site_id
 _symmetry_equiv_pos_as_xyz
  1  'x, y, z'
loop_
 _atom_site_type_symbol
 _atom_site_label
 _atom_site_symmetry_multiplicity
 _atom_site_fract_x
 _atom_site_fract_y
 _atom_site_fract_z
 _atom_site_occupancy
  Mg  Mg0  1  0.01770599  0.01770599  0.98229401  1
  Mg  Mg1  1  0.23229401  0.23229401  0.26770599  1
  Mg  Mg2  1  0.62500000  0.62500000  0.12500000  1
  Mg  Mg3  1  0.62500000  0.62500000  0.62500000  1
  Pt  Pt0  1  0.12500000  0.62500000  0.62500000  1
  Pt  Pt1  1  0.62500000  0.12500000  0.62500000  1
  O  O0  1  0.37716002  0.37716002  0.39664716  1
  O  O1  1  0.37716002  0.37716002  0.84903579  1
  O  O2  1  0.38359634  0.84273311  0.38683527  1
  O  O3  1  0.84273311  0.38359634  0.38683527  1
  O  O4  1  0.40726689  0.86640366  0.86316473  1
  O  O5  1  0.87283998  0.87283998  0.40096421  1
  O  O6  1  0.86640366  0.40726689  0.86316473  1
  O  O7  1  0.87283998  0.87283998  0.85335284  1
loop_
_geom_bond_atom_site_label_1
_geom_bond_atom_site_label_2
_geom_bond_distance
_geom_bond_site_symmetry_2
Mg0 O4 1.945916 1_545
Mg0 O6 1.945917 1_455
Mg0 O5 2.040981 1_446
Mg0 O7 2.040994 1_445
Mg1 O3 1.945916 1_455
Mg1 O2 1.945917 1_545
Mg1 O1 2.040981 1_554
Mg1 O0 2.040994 1_555
Mg2 O4 2.047894 1_554
Mg2 O3 2.047894 1_555
Mg2 O2 2.047894 1_555
Mg2 O6 2.047894 1_554
Mg2 O7 2.119148 1_554
Mg2 O0 2.119148 1_555
Mg3 O2 2.047894 1_555
Mg3 O6 2.047894 1_555
Mg3 O3 2.047894 1_555
Mg3 O4 2.047894 1_555
Mg3 O5 2.119146 1_555
Mg3 O1 2.119146 1_555
O0 Pt1 2.038138 1_555
O0 Pt0 2.038139 1_555
O1 Pt0 2.038150 1_555
O1 Pt1 2.038150 1_555
O2 Pt0 2.035756 1_555
O3 Pt1 2.035757 1_555
O4 Pt1 2.035757 1_565
O5 Pt0 2.038150 1_655
O5 Pt1 2.038150 1_565
O6 Pt0 2.035756 1_655
O7 Pt1 2.038138 1_565
O7 Pt0 2.038139 1_655
