# generated using pymatgen
data_RbBaH6Ir
_symmetry_space_group_name_H-M   'P 1'
_cell_length_a   5.79087040
_cell_length_b   5.79086979
_cell_length_c   5.79087026
_cell_angle_alpha   59.99999166
_cell_angle_beta   59.99999517
_cell_angle_gamma   59.99999655
_symmetry_Int_Tables_number   1
_chemical_formula_structural   RbBaH6Ir
_chemical_formula_sum   'Rb1 Ba1 H6 Ir1'
_cell_volume   137.31450889
_cell_formula_units_Z   1
loop_
 _symmetry_equiv_pos_site_id
 _symmetry_equiv_pos_as_xyz
  1  'x, y, z'
loop_
 _atom_site_type_symbol
 _atom_site_label
 _atom_site_symmetry_multiplicity
 _atom_site_fract_x
 _atom_site_fract_y
 _atom_site_fract_z
 _atom_site_occupancy
  Rb  Rb0  1  0.25000000  0.25000000  0.25000000  1
  Ba  Ba0  1  0.75000000  0.75000000  0.75000000  1
  H  H0  1  0.79460417  0.20539583  0.20539583  1
  H  H1  1  0.20539583  0.79460417  0.20539583  1
  H  H2  1  0.79460417  0.79460417  0.20539583  1
  H  H3  1  0.20539583  0.79460417  0.79460417  1
  H  H4  1  0.79460417  0.20539583  0.79460417  1
  H  H5  1  0.20539583  0.20539583  0.79460417  1
  Ir  Ir0  1  0.00000000  0.00000000  0.00000000  1
loop_
_geom_bond_atom_site_label_1
_geom_bond_atom_site_label_2
_geom_bond_distance
_geom_bond_site_symmetry_2
Ba0 H0 2.918386 1_556
Ba0 H0 2.918386 1_565
Ba0 H4 2.918386 1_555
Ba0 H5 2.918386 1_655
Ba0 H1 2.918386 1_655
Ba0 H5 2.918386 1_565
Ba0 H4 2.918386 1_565
Ba0 H1 2.918386 1_556
Ba0 H2 2.918386 1_555
Ba0 H2 2.918386 1_556
Ba0 H3 2.918386 1_555
Ba0 H3 2.918386 1_655
H0 Ir0 1.682095 1_655
H0 Rb0 2.918386 1_555
H0 Rb0 2.918386 1_655
H1 Ir0 1.682095 1_565
H1 Rb0 2.918386 1_555
H1 Rb0 2.918386 1_565
H2 Ir0 1.682095 1_665
H2 Rb0 2.918386 1_655
H2 Rb0 2.918386 1_565
H3 Ir0 1.682095 1_566
H3 Rb0 2.918386 1_556
H3 Rb0 2.918386 1_565
H4 Ir0 1.682095 1_656
H4 Rb0 2.918386 1_655
H4 Rb0 2.918386 1_556
H5 Ir0 1.682095 1_556
H5 Rb0 2.918386 1_555
H5 Rb0 2.918386 1_556
