# generated using pymatgen
data_Sc4Al4Os3Ru
_symmetry_space_group_name_H-M   'P 1'
_cell_length_a   5.26426381
_cell_length_b   5.25245011
_cell_length_c   8.40921452
_cell_angle_alpha   90.00000000
_cell_angle_beta   90.00000000
_cell_angle_gamma   120.44698409
_symmetry_Int_Tables_number   1
_chemical_formula_structural   Sc4Al4Os3Ru
_chemical_formula_sum   'Sc4 Al4 Os3 Ru1'
_cell_volume   200.45267663
_cell_formula_units_Z   1
loop_
 _symmetry_equiv_pos_site_id
 _symmetry_equiv_pos_as_xyz
  1  'x, y, z'
loop_
 _atom_site_type_symbol
 _atom_site_label
 _atom_site_symmetry_multiplicity
 _atom_site_fract_x
 _atom_site_fract_y
 _atom_site_fract_z
 _atom_site_occupancy
  Sc  Sc0  1  0.32280390  0.65621034  0.43531396  1
  Sc  Sc1  1  0.65505411  0.32365480  0.56518265  1
  Sc  Sc2  1  0.65505411  0.32365480  0.93481735  1
  Sc  Sc3  1  0.32280390  0.65621034  0.06468604  1
  Al  Al0  1  0.83028649  0.66727446  0.25000000  1
  Al  Al1  1  0.66713735  0.83050026  0.75000000  1
  Al  Al2  1  0.01840642  0.01803322  0.00085627  1
  Al  Al3  1  0.01840642  0.01803322  0.49914373  1
  Os  Os0  1  0.16404097  0.35137240  0.75000000  1
  Os  Os1  1  0.16767514  0.82316258  0.75000000  1
  Os  Os2  1  0.35407085  0.16358753  0.25000000  1
  Ru  Ru0  1  0.82426034  0.16830304  0.25000000  1
loop_
_geom_bond_atom_site_label_1
_geom_bond_atom_site_label_2
_geom_bond_distance
_geom_bond_site_symmetry_2
Sc0 Sc3 3.116690 1_555
Sc0 Sc1 3.213653 1_565
Sc0 Sc1 3.221419 1_455
Sc0 Sc1 3.224785 1_555
Sc1 Sc2 3.108337 1_555
Sc2 Sc3 3.213653 1_546
Sc2 Sc3 3.221419 1_656
Sc2 Sc3 3.224785 1_556
Al0 Os2 2.561661 1_555
Al0 Ru0 2.604891 1_555
Al0 Al3 2.629698 1_665
Al0 Al2 2.629698 1_665
Al0 Ru0 2.647844 1_565
Al0 Os2 2.667158 1_665
Al0 Sc0 3.050710 1_655
Al0 Sc3 3.050710 1_655
Al0 Sc0 3.067817 1_555
Al0 Sc3 3.067817 1_555
Al0 Sc1 3.073415 1_555
Al0 Sc2 3.073415 1_554
Al1 Os0 2.567597 1_555
Al1 Os1 2.609982 1_555
Al1 Al2 2.644557 1_666
Al1 Al3 2.644557 1_665
Al1 Os1 2.654701 1_655
Al1 Os0 2.659785 1_665
Al1 Sc2 3.048929 1_565
Al1 Sc1 3.048929 1_565
Al1 Sc2 3.055335 1_555
Al1 Sc1 3.055335 1_555
Al1 Sc3 3.073227 1_556
Al1 Sc0 3.073227 1_555
Al2 Os2 2.593683 1_555
Al2 Os0 2.596698 1_554
Al2 Ru0 2.621934 1_455
Al2 Os1 2.632539 1_544
Al2 Sc3 2.940749 1_555
Al2 Sc2 2.943663 1_554
Al2 Sc3 3.090959 1_545
Al2 Sc2 3.107397 1_454
Al2 Sc2 3.193554 1_444
Al2 Sc3 3.202484 1_445
Al3 Os2 2.593683 1_555
Al3 Os0 2.596698 1_555
Al3 Ru0 2.621934 1_455
Al3 Os1 2.632539 1_545
Al3 Sc0 2.940749 1_555
Al3 Sc1 2.943663 1_555
Al3 Sc0 3.090959 1_545
Al3 Sc1 3.107397 1_455
Al3 Sc1 3.193554 1_445
Al3 Sc0 3.202484 1_445
Os0 Os1 2.468415 1_555
Os0 Os1 2.784139 1_545
Os0 Sc3 2.984737 1_556
Os0 Sc0 2.984737 1_555
Os0 Sc2 3.036560 1_455
Os0 Sc1 3.036560 1_455
Os0 Sc2 3.082098 1_555
Os0 Sc1 3.082098 1_555
Os1 Sc2 3.012177 1_565
Os1 Sc1 3.012177 1_565
Os1 Sc3 3.027267 1_556
Os1 Sc0 3.027267 1_555
Os1 Sc2 3.066869 1_455
Os1 Sc1 3.066869 1_455
Os2 Ru0 2.462743 1_555
Os2 Ru0 2.801695 1_455
Os2 Sc1 2.981961 1_555
Os2 Sc2 2.981961 1_554
Os2 Sc0 3.018783 1_545
Os2 Sc3 3.018783 1_545
Os2 Sc0 3.095513 1_555
Os2 Sc3 3.095513 1_555
Ru0 Sc0 3.011199 1_655
Ru0 Sc3 3.011199 1_655
Ru0 Sc1 3.036561 1_555
Ru0 Sc2 3.036561 1_554
Ru0 Sc0 3.071740 1_545
Ru0 Sc3 3.071740 1_545
