# generated using pymatgen
data_Li2(LuGe)3
_symmetry_space_group_name_H-M   'P 1'
_cell_length_a   5.95466817
_cell_length_b   5.95466817
_cell_length_c   13.88789100
_cell_angle_alpha   90.00000000
_cell_angle_beta   90.00000000
_cell_angle_gamma   139.39348909
_symmetry_Int_Tables_number   1
_chemical_formula_structural   Li2(LuGe)3
_chemical_formula_sum   'Li4 Lu6 Ge6'
_cell_volume   320.50834487
_cell_formula_units_Z   2
loop_
 _symmetry_equiv_pos_site_id
 _symmetry_equiv_pos_as_xyz
  1  'x, y, z'
loop_
 _atom_site_type_symbol
 _atom_site_label
 _atom_site_symmetry_multiplicity
 _atom_site_fract_x
 _atom_site_fract_y
 _atom_site_fract_z
 _atom_site_occupancy
  Li  Li0  1  0.72179600  0.27820400  0.42146800  1
  Li  Li1  1  0.27820400  0.72179600  0.57853200  1
  Li  Li2  1  0.72179600  0.27820400  0.07853200  1
  Li  Li3  1  0.27820400  0.72179600  0.92146900  1
  Lu  Lu0  1  0.86120100  0.13879900  0.75000000  1
  Lu  Lu1  1  0.13879900  0.86120100  0.25000000  1
  Lu  Lu2  1  0.56957700  0.43042300  0.88123100  1
  Lu  Lu3  1  0.43042300  0.56957700  0.11876900  1
  Lu  Lu4  1  0.43042300  0.56957700  0.38123100  1
  Lu  Lu5  1  0.56957700  0.43042300  0.61876900  1
  Ge  Ge0  1  0.16782500  0.83217500  0.75000000  1
  Ge  Ge1  1  0.90050800  0.09949200  0.54519200  1
  Ge  Ge2  1  0.09949200  0.90050800  0.04519200  1
  Ge  Ge3  1  0.90050800  0.09949200  0.95480800  1
  Ge  Ge4  1  0.83217500  0.16782500  0.25000000  1
  Ge  Ge5  1  0.09949200  0.90050800  0.45480800  1
loop_
_geom_bond_atom_site_label_1
_geom_bond_atom_site_label_2
_geom_bond_distance
_geom_bond_site_symmetry_2
Li0 Lu4 3.164092 1_545
Li0 Lu4 3.164092 1_655
Li0 Lu5 3.224714 1_555
Li0 Lu4 3.302088 1_555
Li1 Lu5 3.164092 1_455
Li1 Lu5 3.164092 1_565
Li1 Lu4 3.224714 1_555
Li1 Lu5 3.302088 1_555
Li2 Lu3 3.164092 1_545
Li2 Lu3 3.164092 1_655
Li2 Lu2 3.224714 1_554
Li2 Lu3 3.302088 1_555
Li3 Lu2 3.164094 1_565
Li3 Lu2 3.164094 1_455
Li3 Lu3 3.224702 1_556
Li3 Lu2 3.302090 1_555
Ge0 Li1 2.681546 1_555
Ge0 Li3 2.681558 1_555
Ge0 Lu2 2.965638 1_455
Ge0 Lu2 2.965638 1_565
Ge0 Lu5 2.965638 1_565
Ge0 Lu5 2.965638 1_455
Ge0 Lu0 2.989037 1_455
Ge0 Lu0 2.989037 1_565
Ge0 Lu0 3.424806 1_465
Ge1 Li1 2.519864 1_545
Ge1 Li1 2.519864 1_655
Ge1 Ge5 2.552505 1_645
Ge1 Li0 2.633795 1_555
Ge1 Lu0 2.878035 1_555
Ge1 Lu5 2.979830 1_545
Ge1 Lu5 2.979830 1_655
Ge1 Lu4 3.092879 1_545
Ge1 Lu4 3.092879 1_655
Ge2 Li2 2.519864 1_565
Ge2 Li2 2.519864 1_455
Ge2 Ge3 2.552505 1_464
Ge2 Li3 2.633786 1_554
Ge2 Lu1 2.878035 1_555
Ge2 Lu3 2.979830 1_565
Ge2 Lu3 2.979830 1_455
Ge2 Lu2 3.092879 1_564
Ge2 Lu2 3.092879 1_454
Ge3 Li3 2.519861 1_545
Ge3 Li3 2.519861 1_655
Ge3 Li2 2.633795 1_556
Ge3 Lu0 2.878035 1_555
Ge3 Lu2 2.979830 1_545
Ge3 Lu2 2.979830 1_655
Ge3 Lu3 3.092879 1_656
Ge3 Lu3 3.092879 1_546
Ge4 Li2 2.681546 1_555
Ge4 Li0 2.681546 1_555
Ge4 Lu3 2.965638 1_655
Ge4 Lu4 2.965638 1_545
Ge4 Lu4 2.965638 1_655
Ge4 Lu3 2.965638 1_545
Ge4 Lu1 2.989037 1_545
Ge4 Lu1 2.989037 1_655
Ge4 Lu1 3.424806 1_645
Ge5 Li0 2.519864 1_565
Ge5 Li0 2.519864 1_455
Ge5 Li1 2.633795 1_555
Ge5 Lu1 2.878035 1_555
Ge5 Lu4 2.979830 1_565
Ge5 Lu4 2.979830 1_455
Ge5 Lu5 3.092879 1_565
Ge5 Lu5 3.092879 1_455
