# generated using pymatgen
data_Rb4TcPtI12
_symmetry_space_group_name_H-M   'P 1'
_cell_length_a   7.98458452
_cell_length_b   7.96906013
_cell_length_c   14.08174650
_cell_angle_alpha   56.33679819
_cell_angle_beta   90.06449664
_cell_angle_gamma   90.18076457
_symmetry_Int_Tables_number   1
_chemical_formula_structural   Rb4TcPtI12
_chemical_formula_sum   'Rb4 Tc1 Pt1 I12'
_cell_volume   745.75973854
_cell_formula_units_Z   1
loop_
 _symmetry_equiv_pos_site_id
 _symmetry_equiv_pos_as_xyz
  1  'x, y, z'
loop_
 _atom_site_type_symbol
 _atom_site_label
 _atom_site_symmetry_multiplicity
 _atom_site_fract_x
 _atom_site_fract_y
 _atom_site_fract_z
 _atom_site_occupancy
  Rb  Rb0  1  0.46720803  0.73811796  0.24926033  1
  Rb  Rb1  1  0.96532918  0.27043127  0.24737936  1
  Rb  Rb2  1  0.03467082  0.72956873  0.75262064  1
  Rb  Rb3  1  0.53279197  0.26188204  0.75073967  1
  Tc  Tc0  1  0.50000000  0.00000000  0.50000000  1
  Pt  Pt0  1  0.00000000  0.00000000  0.00000000  1
  I  I0  1  0.79436123  0.28642369  0.97954543  1
  I  I1  1  0.48982643  0.20259718  0.26567492  1
  I  I2  1  0.51017357  0.79740282  0.73432508  1
  I  I3  1  0.26831641  0.21617824  0.99003215  1
  I  I4  1  0.29330184  0.70625781  0.51790273  1
  I  I5  1  0.22407787  0.21308466  0.49202963  1
  I  I6  1  0.20563877  0.71357631  0.02045457  1
  I  I7  1  0.77592213  0.78691534  0.50797037  1
  I  I8  1  0.73168359  0.78382176  0.00996785  1
  I  I9  1  0.98823437  0.80861306  0.22913102  1
  I  I10  1  0.01176563  0.19138694  0.77086898  1
  I  I11  1  0.70669816  0.29374219  0.48209727  1
loop_
_geom_bond_atom_site_label_1
_geom_bond_atom_site_label_2
_geom_bond_distance
_geom_bond_site_symmetry_2
I0 Pt0 2.698626 1_656
I0 Rb2 3.718143 1_655
I0 Rb3 3.932202 1_555
I0 Rb1 3.944760 1_556
I1 Tc0 2.755985 1_555
I1 Rb1 3.822083 1_555
I1 Rb0 3.838108 1_545
I1 Rb0 4.148447 1_555
I1 Rb1 4.213609 1_455
I2 Tc0 2.755985 1_565
I2 Rb2 3.822083 1_555
I2 Rb3 3.838108 1_565
I2 Rb3 4.148447 1_555
I2 Rb2 4.213609 1_655
I3 Pt0 2.699388 1_556
I3 Rb3 3.820629 1_555
I3 Rb0 3.868945 1_546
I3 Rb2 4.033124 1_555
I4 Tc0 2.754864 1_565
I4 Rb3 3.755512 1_555
I4 Rb0 3.904885 1_555
I4 Rb2 3.990246 1_555
I5 Tc0 2.749837 1_555
I5 Rb1 3.819746 1_455
I5 Rb2 3.860085 1_545
I5 Rb0 4.131352 1_555
I6 Pt0 2.698626 1_565
I6 Rb1 3.718143 1_455
I6 Rb0 3.932202 1_555
I6 Rb2 3.944760 1_554
I7 Tc0 2.749837 1_565
I7 Rb2 3.819746 1_655
I7 Rb1 3.860085 1_565
I7 Rb3 4.131352 1_555
I8 Pt0 2.699388 1_665
I8 Rb0 3.820629 1_555
I8 Rb3 3.868945 1_564
I8 Rb1 4.033124 1_555
I9 Pt0 2.699978 1_665
I9 Rb1 3.833609 1_565
I9 Rb0 3.854426 1_655
I9 Rb1 4.155319 1_555
I9 Rb0 4.185021 1_555
I10 Pt0 2.699978 1_556
I10 Rb2 3.833609 1_545
I10 Rb3 3.854426 1_455
I10 Rb2 4.155319 1_555
I10 Rb3 4.185021 1_555
I11 Tc0 2.754864 1_555
I11 Rb0 3.755512 1_555
I11 Rb3 3.904885 1_555
I11 Rb1 3.990246 1_555
