# generated using pymatgen
data_Sr2Ga3GePt2
_symmetry_space_group_name_H-M   'P 1'
_cell_length_a   9.25129015
_cell_length_b   9.25128985
_cell_length_c   4.29383355
_cell_angle_alpha   90.00000000
_cell_angle_beta   90.00000000
_cell_angle_gamma   151.78862303
_symmetry_Int_Tables_number   1
_chemical_formula_structural   Sr2Ga3GePt2
_chemical_formula_sum   'Sr2 Ga3 Ge1 Pt2'
_cell_volume   173.72369434
_cell_formula_units_Z   1
loop_
 _symmetry_equiv_pos_site_id
 _symmetry_equiv_pos_as_xyz
  1  'x, y, z'
loop_
 _atom_site_type_symbol
 _atom_site_label
 _atom_site_symmetry_multiplicity
 _atom_site_fract_x
 _atom_site_fract_y
 _atom_site_fract_z
 _atom_site_occupancy
  Sr  Sr0  1  0.89426909  0.10572991  0.24999900  1
  Sr  Sr1  1  0.10683477  0.89316423  0.75000000  1
  Ga  Ga0  1  0.53808376  0.46191524  0.24999900  1
  Ga  Ga1  1  0.24697502  0.75302398  0.24999900  1
  Ga  Ga2  1  0.75279846  0.24720054  0.75000000  1
  Ge  Ge0  1  0.46131309  0.53868591  0.75000000  1
  Pt  Pt0  1  0.67690013  0.32309887  0.24999900  1
  Pt  Pt1  1  0.32282269  0.67717631  0.75000000  1
loop_
_geom_bond_atom_site_label_1
_geom_bond_atom_site_label_2
_geom_bond_distance
_geom_bond_site_symmetry_2
Ga0 Pt0 2.491016 1_555
Ga0 Ge0 2.550899 1_554
Ga0 Ge0 2.550906 1_555
Ga0 Sr1 3.348836 1_544
Ga0 Sr1 3.348837 1_654
Ga0 Sr1 3.348842 1_545
Ga0 Sr1 3.348842 1_655
Ga0 Sr0 3.426876 1_565
Ga0 Sr0 3.426876 1_455
Ga1 Pt1 2.541992 1_554
Ga1 Pt1 2.542000 1_555
Ga1 Pt0 2.581599 1_565
Ga1 Pt0 2.581599 1_455
Ga1 Sr1 3.306557 1_554
Ga1 Sr1 3.306562 1_555
Ga1 Sr0 3.474139 1_455
Ga1 Sr0 3.474139 1_565
Ga2 Pt0 2.542479 1_556
Ga2 Pt0 2.542486 1_555
Ga2 Pt1 2.581157 1_545
Ga2 Pt1 2.581157 1_655
Ga2 Sr0 3.324749 1_556
Ga2 Sr0 3.324755 1_555
Ga2 Sr1 3.456010 1_655
Ga2 Sr1 3.456011 1_545
Ge0 Pt1 2.485167 1_555
Ge0 Sr0 3.337673 1_566
Ge0 Sr0 3.337673 1_456
Ge0 Sr0 3.337679 1_565
Ge0 Sr0 3.337679 1_455
Ge0 Sr1 3.450003 1_545
Ge0 Sr1 3.450003 1_655
Pt0 Sr1 3.357597 1_654
Pt0 Sr1 3.357597 1_544
Pt0 Sr1 3.357603 1_655
Pt0 Sr1 3.357603 1_545
Pt1 Sr0 3.366956 1_456
Pt1 Sr0 3.366956 1_566
Pt1 Sr0 3.366961 1_455
Pt1 Sr0 3.366961 1_565
