# generated using pymatgen
data_CdAg5BiO6
_symmetry_space_group_name_H-M   'P 1'
_cell_length_a   5.93915182
_cell_length_b   5.93915143
_cell_length_c   12.64430390
_cell_angle_alpha   90.00000000
_cell_angle_beta   90.00000000
_cell_angle_gamma   120.00000213
_symmetry_Int_Tables_number   1
_chemical_formula_structural   CdAg5BiO6
_chemical_formula_sum   'Cd2 Ag10 Bi2 O12'
_cell_volume   386.25523031
_cell_formula_units_Z   2
loop_
 _symmetry_equiv_pos_site_id
 _symmetry_equiv_pos_as_xyz
  1  'x, y, z'
loop_
 _atom_site_type_symbol
 _atom_site_label
 _atom_site_symmetry_multiplicity
 _atom_site_fract_x
 _atom_site_fract_y
 _atom_site_fract_z
 _atom_site_occupancy
  Cd  Cd0  1  0.66666700  0.33333300  0.75000000  1
  Cd  Cd1  1  0.33333300  0.66666700  0.25000000  1
  Ag  Ag0  1  0.00000000  0.00000000  0.88351356  1
  Ag  Ag1  1  0.00000000  0.00000000  0.38351356  1
  Ag  Ag2  1  0.00000000  0.00000000  0.11648644  1
  Ag  Ag3  1  0.00000000  0.00000000  0.61648644  1
  Ag  Ag4  1  0.50000000  0.50000000  0.00000000  1
  Ag  Ag5  1  0.00000000  0.50000000  0.00000000  1
  Ag  Ag6  1  0.50000000  0.00000000  0.00000000  1
  Ag  Ag7  1  0.00000000  0.50000000  0.50000000  1
  Ag  Ag8  1  0.50000000  0.00000000  0.50000000  1
  Ag  Ag9  1  0.50000000  0.50000000  0.50000000  1
  Bi  Bi0  1  0.33333300  0.66666700  0.75000000  1
  Bi  Bi1  1  0.66666700  0.33333300  0.25000000  1
  O  O0  1  0.61800203  0.63807713  0.84567076  1
  O  O1  1  0.02007611  0.38199797  0.84567076  1
  O  O2  1  0.36192287  0.97992389  0.84567076  1
  O  O3  1  0.97992389  0.36192287  0.34567076  1
  O  O4  1  0.38199797  0.02007611  0.34567076  1
  O  O5  1  0.63807713  0.61800203  0.34567076  1
  O  O6  1  0.38199797  0.36192287  0.15432924  1
  O  O7  1  0.97992389  0.61800203  0.15432924  1
  O  O8  1  0.63807713  0.02007611  0.15432924  1
  O  O9  1  0.02007611  0.63807713  0.65432924  1
  O  O10  1  0.61800203  0.97992389  0.65432924  1
  O  O11  1  0.36192287  0.38199797  0.65432924  1
loop_
_geom_bond_atom_site_label_1
_geom_bond_atom_site_label_2
_geom_bond_distance
_geom_bond_site_symmetry_2
Cd0 O2 2.312104 1_545
Cd0 O10 2.312104 1_545
Cd0 O0 2.312104 1_555
Cd0 O9 2.312104 1_655
Cd0 O11 2.312104 1_555
Cd0 O1 2.312104 1_655
Cd1 O8 2.312104 1_565
Cd1 O4 2.312104 1_565
Cd1 O6 2.312104 1_555
Cd1 O3 2.312104 1_455
Cd1 O5 2.312104 1_555
Cd1 O7 2.312104 1_455
Ag0 O1 2.262711 1_555
Ag0 O0 2.262713 1_445
Ag0 O2 2.262717 1_545
Ag1 O4 2.262711 1_555
Ag1 O5 2.262713 1_445
Ag1 O3 2.262717 1_455
Ag2 O7 2.262711 1_445
Ag2 O6 2.262713 1_555
Ag2 O8 2.262717 1_455
Ag3 O10 2.262711 1_445
Ag3 O11 2.262713 1_555
Ag3 O9 2.262717 1_545
Ag4 O6 2.096866 1_555
Ag4 O0 2.096866 1_554
Ag5 O7 2.096867 1_455
Ag5 O1 2.096867 1_554
Ag6 O8 2.096865 1_555
Ag6 O2 2.096865 1_544
Ag7 O9 2.096865 1_555
Ag7 O3 2.096865 1_455
Ag8 O10 2.096867 1_545
Ag8 O4 2.096867 1_555
Ag9 O11 2.096866 1_555
Ag9 O5 2.096866 1_555
Bi0 O2 2.153523 1_555
Bi0 O9 2.153523 1_555
Bi0 O10 2.153527 1_555
Bi0 O1 2.153527 1_555
Bi0 O11 2.153532 1_555
Bi0 O0 2.153533 1_555
Bi1 O8 2.153523 1_555
Bi1 O3 2.153523 1_555
Bi1 O4 2.153527 1_555
Bi1 O7 2.153527 1_555
Bi1 O5 2.153532 1_555
Bi1 O6 2.153533 1_555
