# generated using pymatgen
data_Y4Be5(Ir2Pd)3
_symmetry_space_group_name_H-M   'P 1'
_cell_length_a   5.44447305
_cell_length_b   5.44447212
_cell_length_c   21.60674643
_cell_angle_alpha   90.00000000
_cell_angle_beta   90.00000000
_cell_angle_gamma   119.99999968
_symmetry_Int_Tables_number   1
_chemical_formula_structural   Y4Be5(Ir2Pd)3
_chemical_formula_sum   'Y8 Be10 Ir12 Pd6'
_cell_volume   554.66611996
_cell_formula_units_Z   2
loop_
 _symmetry_equiv_pos_site_id
 _symmetry_equiv_pos_as_xyz
  1  'x, y, z'
loop_
 _atom_site_type_symbol
 _atom_site_label
 _atom_site_symmetry_multiplicity
 _atom_site_fract_x
 _atom_site_fract_y
 _atom_site_fract_z
 _atom_site_occupancy
  Y  Y0  1  0.33333300  0.66666700  0.52460367  1
  Y  Y1  1  0.66666700  0.33333300  0.47539633  1
  Y  Y2  1  0.66666700  0.33333300  0.02460367  1
  Y  Y3  1  0.33333300  0.66666700  0.97539633  1
  Y  Y4  1  0.33333300  0.66666700  0.66920263  1
  Y  Y5  1  0.66666700  0.33333300  0.33079737  1
  Y  Y6  1  0.66666700  0.33333300  0.16920263  1
  Y  Y7  1  0.33333300  0.66666700  0.83079737  1
  Be  Be0  1  0.00000000  0.00000000  0.00000000  1
  Be  Be1  1  0.00000000  0.00000000  0.50000000  1
  Be  Be2  1  0.33333300  0.66666700  0.16772749  1
  Be  Be3  1  0.66666700  0.33333300  0.83227251  1
  Be  Be4  1  0.66666700  0.33333300  0.66772749  1
  Be  Be5  1  0.33333300  0.66666700  0.33227251  1
  Be  Be6  1  0.00000000  0.00000000  0.16798357  1
  Be  Be7  1  0.00000000  0.00000000  0.83201643  1
  Be  Be8  1  0.00000000  0.00000000  0.66798357  1
  Be  Be9  1  0.00000000  0.00000000  0.33201643  1
  Ir  Ir0  1  0.16567342  0.33134584  0.09064693  1
  Ir  Ir1  1  0.83432658  0.66865416  0.90935307  1
  Ir  Ir2  1  0.66865416  0.83432658  0.09064693  1
  Ir  Ir3  1  0.83432658  0.66865416  0.59064693  1
  Ir  Ir4  1  0.33134584  0.16567342  0.90935307  1
  Ir  Ir5  1  0.16567342  0.33134584  0.40935307  1
  Ir  Ir6  1  0.16567342  0.83432658  0.09064693  1
  Ir  Ir7  1  0.33134584  0.16567342  0.59064693  1
  Ir  Ir8  1  0.83432658  0.16567342  0.90935307  1
  Ir  Ir9  1  0.66865416  0.83432658  0.40935307  1
  Ir  Ir10  1  0.83432658  0.16567342  0.59064693  1
  Ir  Ir11  1  0.16567342  0.83432658  0.40935307  1
  Pd  Pd0  1  0.16641195  0.33282189  0.25000000  1
  Pd  Pd1  1  0.83358805  0.66717811  0.75000000  1
  Pd  Pd2  1  0.66717811  0.83358805  0.25000000  1
  Pd  Pd3  1  0.33282189  0.16641195  0.75000000  1
  Pd  Pd4  1  0.16641195  0.83358805  0.25000000  1
  Pd  Pd5  1  0.83358805  0.16641195  0.75000000  1
loop_
_geom_bond_atom_site_label_1
_geom_bond_atom_site_label_2
_geom_bond_distance
_geom_bond_site_symmetry_2
Y0 Y4 3.124313 1_555
Y0 Y1 3.318306 1_565
Y0 Y1 3.318307 1_455
Y0 Y1 3.318315 1_555
Y1 Y5 3.124313 1_555
Y2 Y6 3.124313 1_555
Y2 Y3 3.318306 1_544
Y2 Y3 3.318307 1_654
Y2 Y3 3.318315 1_554
Y3 Y7 3.124313 1_555
Y4 Y7 3.491537 1_555
Y5 Y6 3.491537 1_555
Be0 Ir0 2.505370 1_555
Be0 Ir1 2.505370 1_444
Be0 Ir2 2.505370 1_445
Be0 Ir4 2.505370 1_554
Be0 Ir6 2.505373 1_545
Be0 Ir8 2.505373 1_454
Be0 Y2 3.188000 1_455
Be0 Y3 3.188000 1_544
Be0 Y3 3.188005 1_554
Be0 Y2 3.188005 1_445
Be0 Y2 3.188005 1_555
Be0 Y3 3.188005 1_444
Be1 Ir3 2.505370 1_445
Be1 Ir5 2.505370 1_555
Be1 Ir7 2.505370 1_555
Be1 Ir9 2.505370 1_445
Be1 Ir10 2.505373 1_455
Be1 Ir11 2.505373 1_545
Be1 Y0 3.188000 1_545
Be1 Y1 3.188000 1_455
Be1 Y0 3.188005 1_555
Be1 Y1 3.188005 1_445
Be1 Y1 3.188005 1_555
Be1 Y0 3.188005 1_445
Be2 Ir6 2.296403 1_555
Be2 Ir0 2.296409 1_555
Be2 Ir2 2.296410 1_555
Be2 Pd4 2.374394 1_555
Be2 Pd0 2.374403 1_555
Be2 Pd2 2.374403 1_555
Be2 Y6 3.143526 1_565
Be2 Y6 3.143526 1_455
Be2 Y6 3.143536 1_555
Be3 Ir8 2.296403 1_555
Be3 Ir1 2.296409 1_555
Be3 Ir4 2.296410 1_555
Be3 Pd5 2.374394 1_555
Be3 Pd1 2.374403 1_555
Be3 Pd3 2.374403 1_555
Be3 Y7 3.143526 1_545
Be3 Y7 3.143526 1_655
Be3 Y7 3.143536 1_555
Be4 Ir10 2.296403 1_555
Be4 Ir3 2.296409 1_555
Be4 Ir7 2.296410 1_555
Be4 Pd5 2.374394 1_555
Be4 Pd1 2.374403 1_555
Be4 Pd3 2.374403 1_555
Be4 Y4 3.143526 1_545
Be4 Y4 3.143526 1_655
Be4 Y4 3.143536 1_555
Be5 Ir11 2.296403 1_555
Be5 Ir5 2.296409 1_555
Be5 Ir9 2.296410 1_555
Be5 Pd4 2.374394 1_555
Be5 Pd0 2.374403 1_555
Be5 Pd2 2.374403 1_555
Be5 Y5 3.143526 1_565
Be5 Y5 3.143526 1_455
Be5 Y5 3.143536 1_555
Be6 Ir0 2.287584 1_555
Be6 Ir2 2.287584 1_445
Be6 Ir6 2.287587 1_545
Be6 Pd0 2.367062 1_555
Be6 Pd2 2.367062 1_445
Be6 Pd4 2.367068 1_545
Be6 Y6 3.143475 1_455
Be6 Y6 3.143479 1_445
Be6 Y6 3.143480 1_555
Be7 Ir1 2.287584 1_445
Be7 Ir4 2.287584 1_555
Be7 Ir8 2.287587 1_455
Be7 Pd1 2.367062 1_445
Be7 Pd3 2.367062 1_555
Be7 Pd5 2.367068 1_455
Be7 Y7 3.143475 1_545
Be7 Y7 3.143479 1_555
Be7 Y7 3.143480 1_445
Be8 Ir3 2.287584 1_445
Be8 Ir7 2.287584 1_555
Be8 Ir10 2.287587 1_455
Be8 Pd1 2.367062 1_445
Be8 Pd3 2.367062 1_555
Be8 Pd5 2.367068 1_455
Be8 Y4 3.143475 1_545
Be8 Y4 3.143479 1_555
Be8 Y4 3.143480 1_445
Be9 Ir5 2.287584 1_555
Be9 Ir9 2.287584 1_445
Be9 Ir11 2.287587 1_545
Be9 Pd0 2.367062 1_555
Be9 Pd2 2.367062 1_445
Be9 Pd4 2.367068 1_545
Be9 Y5 3.143475 1_455
Be9 Y5 3.143479 1_445
Be9 Y5 3.143480 1_555
Ir0 Ir6 2.706007 1_545
Ir0 Ir2 2.706008 1_445
Ir0 Ir6 2.738465 1_555
Ir0 Ir2 2.738465 1_555
Ir0 Y3 2.949710 1_554
Ir0 Y2 3.073586 1_455
Ir0 Y2 3.073586 1_555
Ir0 Y6 3.208052 1_455
Ir0 Y6 3.208052 1_555
Ir1 Ir8 2.706007 1_565
Ir1 Ir4 2.706008 1_665
Ir1 Ir8 2.738465 1_555
Ir1 Ir4 2.738465 1_555
Ir1 Y2 2.949710 1_556
Ir1 Y3 3.073586 1_655
Ir1 Y3 3.073586 1_555
Ir1 Y7 3.208052 1_655
Ir1 Y7 3.208052 1_555
Ir2 Ir6 2.706008 1_655
Ir2 Ir6 2.738465 1_555
Ir2 Y3 2.949710 1_554
Ir2 Y2 3.073586 1_555
Ir2 Y2 3.073586 1_565
Ir2 Y6 3.208052 1_555
Ir2 Y6 3.208052 1_565
Ir3 Ir7 2.706008 1_665
Ir3 Ir7 2.738465 1_555
Ir3 Y1 2.949710 1_555
Ir3 Y0 3.073586 1_655
Ir3 Y0 3.073586 1_555
Ir3 Y4 3.208052 1_655
Ir3 Y4 3.208052 1_555
Ir4 Ir8 2.706008 1_455
Ir4 Ir8 2.738465 1_555
Ir4 Y2 2.949710 1_556
Ir4 Y3 3.073586 1_555
Ir4 Y3 3.073586 1_545
Ir4 Y7 3.208052 1_555
Ir4 Y7 3.208052 1_545
Ir5 Ir9 2.706008 1_445
Ir5 Ir9 2.738465 1_555
Ir5 Y0 2.949710 1_555
Ir5 Y1 3.073586 1_455
Ir5 Y1 3.073586 1_555
Ir5 Y5 3.208052 1_455
Ir5 Y5 3.208052 1_555
Ir6 Y3 2.949705 1_554
Ir6 Y2 3.073586 1_455
Ir6 Y2 3.073586 1_565
Ir6 Y6 3.208052 1_455
Ir6 Y6 3.208052 1_565
Ir7 Y1 2.949710 1_555
Ir7 Y0 3.073586 1_555
Ir7 Y0 3.073586 1_545
Ir7 Y4 3.208052 1_555
Ir7 Y4 3.208052 1_545
Ir8 Y2 2.949705 1_556
Ir8 Y3 3.073586 1_655
Ir8 Y3 3.073586 1_545
Ir8 Y7 3.208052 1_655
Ir8 Y7 3.208052 1_545
Ir9 Y0 2.949710 1_555
Ir9 Y1 3.073586 1_555
Ir9 Y1 3.073586 1_565
Ir9 Y5 3.208052 1_555
Ir9 Y5 3.208052 1_565
Ir10 Ir3 2.706007 1_545
Ir10 Ir7 2.706008 1_655
Ir10 Ir3 2.738465 1_555
Ir10 Ir7 2.738465 1_555
Ir10 Y1 2.949705 1_555
Ir10 Y0 3.073586 1_655
Ir10 Y0 3.073586 1_545
Ir10 Y4 3.208052 1_655
Ir10 Y4 3.208052 1_545
Ir11 Ir5 2.706007 1_565
Ir11 Ir9 2.706008 1_455
Ir11 Ir5 2.738465 1_555
Ir11 Ir9 2.738465 1_555
Ir11 Y0 2.949705 1_555
Ir11 Y1 3.073586 1_455
Ir11 Y1 3.073586 1_565
Ir11 Y5 3.208052 1_455
Ir11 Y5 3.208052 1_565
Pd0 Y5 3.233925 1_555
Pd0 Y6 3.233925 1_555
Pd0 Y5 3.233929 1_455
Pd0 Y6 3.233929 1_455
Pd1 Y4 3.233925 1_555
Pd1 Y7 3.233925 1_555
Pd1 Y4 3.233929 1_655
Pd1 Y7 3.233929 1_655
Pd2 Y5 3.233924 1_555
Pd2 Y6 3.233924 1_555
Pd2 Y5 3.233929 1_565
Pd2 Y6 3.233929 1_565
Pd3 Y4 3.233924 1_555
Pd3 Y7 3.233924 1_555
Pd3 Y4 3.233929 1_545
Pd3 Y7 3.233929 1_545
Pd4 Y5 3.233927 1_455
Pd4 Y6 3.233927 1_455
Pd4 Y5 3.233927 1_565
Pd4 Y6 3.233927 1_565
Pd5 Y4 3.233927 1_655
Pd5 Y7 3.233927 1_655
Pd5 Y4 3.233927 1_545
Pd5 Y7 3.233927 1_545
