# generated using pymatgen
data_Ba6Mn5O16
_symmetry_space_group_name_H-M   'P 1'
_cell_length_a   7.21644903
_cell_length_b   7.21644903
_cell_length_c   20.07721471
_cell_angle_alpha   90.00000000
_cell_angle_beta   90.00000000
_cell_angle_gamma   133.18736301
_symmetry_Int_Tables_number   1
_chemical_formula_structural   Ba6Mn5O16
_chemical_formula_sum   'Ba12 Mn10 O32'
_cell_volume   762.34108940
_cell_formula_units_Z   2
loop_
 _symmetry_equiv_pos_site_id
 _symmetry_equiv_pos_as_xyz
  1  'x, y, z'
loop_
 _atom_site_type_symbol
 _atom_site_label
 _atom_site_symmetry_multiplicity
 _atom_site_fract_x
 _atom_site_fract_y
 _atom_site_fract_z
 _atom_site_occupancy
  Ba  Ba0  1  0.35473540  0.64526460  0.97996136  1
  Ba  Ba1  1  0.64526460  0.35473540  0.02003864  1
  Ba  Ba2  1  0.14526460  0.85473540  0.47996136  1
  Ba  Ba3  1  0.85473540  0.14526460  0.52003864  1
  Ba  Ba4  1  0.08509260  0.91490740  0.67835257  1
  Ba  Ba5  1  0.91490740  0.08509260  0.32164743  1
  Ba  Ba6  1  0.41490740  0.58509260  0.17835257  1
  Ba  Ba7  1  0.58509260  0.41490740  0.82164743  1
  Ba  Ba8  1  0.37754489  0.62245511  0.66162248  1
  Ba  Ba9  1  0.62245511  0.37754489  0.33837752  1
  Ba  Ba10  1  0.12245511  0.87754489  0.16162248  1
  Ba  Ba11  1  0.87754489  0.12245511  0.83837752  1
  Mn  Mn0  1  0.12257132  0.87742868  0.90653095  1
  Mn  Mn1  1  0.87742868  0.12257132  0.09346905  1
  Mn  Mn2  1  0.37742868  0.62257132  0.40653095  1
  Mn  Mn3  1  0.62257132  0.37742868  0.59346905  1
  Mn  Mn4  1  -0.00000000  0.00000000  -0.00000000  1
  Mn  Mn5  1  0.50000000  0.50000000  0.50000000  1
  Mn  Mn6  1  0.24853395  0.75146605  0.81117563  1
  Mn  Mn7  1  0.75146605  0.24853395  0.18882437  1
  Mn  Mn8  1  0.25146605  0.74853395  0.31117563  1
  Mn  Mn9  1  0.74853395  0.25146605  0.68882437  1
  O  O0  1  0.49093611  0.94044744  0.38492473  1
  O  O1  1  0.94044744  0.49093611  0.61507527  1
  O  O2  1  0.00906389  0.55955256  0.88492473  1
  O  O3  1  0.55955256  0.00906389  0.11507527  1
  O  O4  1  0.50906389  0.05955256  0.61507527  1
  O  O5  1  0.05955256  0.50906389  0.38492473  1
  O  O6  1  0.99093611  0.44044744  0.11507527  1
  O  O7  1  0.44044744  0.99093611  0.88492473  1
  O  O8  1  0.75849565  0.79685788  0.06907175  1
  O  O9  1  0.79685788  0.75849565  0.93092825  1
  O  O10  1  0.74150435  0.70314212  0.56907175  1
  O  O11  1  0.70314212  0.74150435  0.43092825  1
  O  O12  1  0.24150435  0.20314212  0.93092825  1
  O  O13  1  0.20314212  0.24150435  0.06907175  1
  O  O14  1  0.25849565  0.29685788  0.43092825  1
  O  O15  1  0.29685788  0.25849565  0.56907175  1
  O  O16  1  0.14433930  0.85566070  0.00198258  1
  O  O17  1  0.85566070  0.14433930  0.99801742  1
  O  O18  1  0.35566070  0.64433930  0.50198258  1
  O  O19  1  0.64433930  0.35566070  0.49801742  1
  O  O20  1  0.08959596  0.91040404  0.81619207  1
  O  O21  1  0.91040404  0.08959596  0.18380793  1
  O  O22  1  0.48871926  0.01128074  0.75000000  1
  O  O23  1  0.01128074  0.48871926  0.25000000  1
  O  O24  1  0.51128074  0.98871926  0.25000000  1
  O  O25  1  0.98871926  0.51128074  0.75000000  1
  O  O26  1  0.88342965  0.11657035  0.68476937  1
  O  O27  1  0.11657035  0.88342965  0.31523063  1
  O  O28  1  0.61657035  0.38342965  0.18476937  1
  O  O29  1  0.38342965  0.61657035  0.81523063  1
  O  O30  1  0.58959596  0.41040404  0.68380793  1
  O  O31  1  0.41040404  0.58959596  0.31619207  1
loop_
_geom_bond_atom_site_label_1
_geom_bond_atom_site_label_2
_geom_bond_distance
_geom_bond_site_symmetry_2
Ba0 O16 2.821598 1_556
Ba0 O2 2.852018 1_555
Ba0 O7 2.852018 1_555
Ba0 O12 2.871927 1_555
Ba0 O9 2.871927 1_555
Ba0 O17 2.889584 1_565
Ba0 O17 2.889584 1_455
Ba0 O13 2.919652 1_556
Ba0 O8 2.919652 1_556
Ba0 O29 3.329100 1_555
Ba0 O6 3.335337 1_456
Ba0 O3 3.335337 1_566
Ba1 O17 2.821598 1_554
Ba1 O3 2.852018 1_555
Ba1 O6 2.852018 1_555
Ba1 O13 2.871927 1_555
Ba1 O8 2.871927 1_555
Ba1 O16 2.889584 1_545
Ba1 O16 2.889584 1_655
Ba1 O12 2.919652 1_554
Ba1 O9 2.919652 1_554
Ba1 O28 3.329100 1_555
Ba1 O7 3.335337 1_544
Ba1 O2 3.335337 1_654
Ba2 O18 2.821598 1_555
Ba2 O0 2.852018 1_555
Ba2 O5 2.852018 1_555
Ba2 O11 2.871927 1_455
Ba2 O14 2.871927 1_565
Ba2 O19 2.889584 1_455
Ba2 O19 2.889584 1_565
Ba2 O15 2.919652 1_565
Ba2 O10 2.919652 1_455
Ba2 O27 3.329100 1_555
Ba2 O4 3.335337 1_565
Ba2 O1 3.335337 1_455
Ba3 O19 2.821598 1_555
Ba3 O1 2.852018 1_555
Ba3 O4 2.852018 1_555
Ba3 O10 2.871927 1_545
Ba3 O15 2.871927 1_655
Ba3 O18 2.889584 1_545
Ba3 O18 2.889584 1_655
Ba3 O14 2.919652 1_655
Ba3 O11 2.919652 1_545
Ba3 O26 3.329100 1_555
Ba3 O0 3.335337 1_545
Ba3 O5 3.335337 1_655
Ba4 O26 2.674177 1_465
Ba4 O20 2.768076 1_555
Ba4 O4 2.773650 1_565
Ba4 O1 2.773650 1_455
Ba4 O15 2.847919 1_565
Ba4 O10 2.847919 1_455
Ba4 O30 2.869439 1_455
Ba4 O30 2.869439 1_565
Ba4 O25 2.874761 1_455
Ba4 O22 2.874761 1_565
Ba5 O27 2.674177 1_645
Ba5 O21 2.768076 1_555
Ba5 O5 2.773650 1_655
Ba5 O0 2.773650 1_545
Ba5 O14 2.847919 1_655
Ba5 O11 2.847919 1_545
Ba5 O31 2.869439 1_545
Ba5 O31 2.869439 1_655
Ba5 O24 2.874761 1_545
Ba5 O23 2.874761 1_655
Ba6 O28 2.674177 1_555
Ba6 O31 2.768076 1_555
Ba6 O3 2.773650 1_565
Ba6 O6 2.773650 1_455
Ba6 O13 2.847919 1_555
Ba6 O8 2.847919 1_555
Ba6 O21 2.869439 1_455
Ba6 O21 2.869439 1_565
Ba6 O24 2.874761 1_555
Ba6 O23 2.874761 1_555
Ba7 O29 2.674177 1_555
Ba7 O30 2.768076 1_555
Ba7 O2 2.773650 1_655
Ba7 O7 2.773650 1_545
Ba7 O12 2.847919 1_555
Ba7 O9 2.847919 1_555
Ba7 O20 2.869439 1_545
Ba7 O20 2.869439 1_655
Ba7 O22 2.874761 1_555
Ba7 O25 2.874761 1_555
Ba8 O1 2.761514 1_455
Ba8 O4 2.761514 1_565
Ba8 O30 2.843765 1_555
Ba8 O26 2.905198 1_565
Ba8 O26 2.905198 1_455
Ba8 O22 2.929853 1_565
Ba8 O25 2.929853 1_455
Ba8 O15 2.932058 1_555
Ba8 O10 2.932058 1_555
Ba8 O29 3.085009 1_555
Ba8 O18 3.218205 1_555
Ba9 O0 2.761514 1_545
Ba9 O5 2.761514 1_655
Ba9 O31 2.843765 1_555
Ba9 O27 2.905198 1_655
Ba9 O27 2.905198 1_545
Ba9 O23 2.929853 1_655
Ba9 O24 2.929853 1_545
Ba9 O14 2.932058 1_555
Ba9 O11 2.932058 1_555
Ba9 O28 3.085009 1_555
Ba9 O19 3.218205 1_555
Ba10 O3 2.761514 1_565
Ba10 O6 2.761514 1_455
Ba10 O21 2.843765 1_465
Ba10 O28 2.905198 1_455
Ba10 O28 2.905198 1_565
Ba10 O23 2.929853 1_555
Ba10 O24 2.929853 1_555
Ba10 O8 2.932058 1_455
Ba10 O13 2.932058 1_565
Ba10 O27 3.085009 1_555
Ba10 O16 3.218205 1_555
Ba11 O7 2.761514 1_545
Ba11 O2 2.761514 1_655
Ba11 O20 2.843765 1_645
Ba11 O29 2.905198 1_545
Ba11 O29 2.905198 1_655
Ba11 O22 2.929853 1_555
Ba11 O25 2.929853 1_555
Ba11 O12 2.932058 1_655
Ba11 O9 2.932058 1_545
Ba11 O26 3.085009 1_555
Ba11 O17 3.218205 1_555
Mn0 O20 1.865600 1_555
Mn0 O7 1.883970 1_555
Mn0 O2 1.883970 1_555
Mn0 O9 1.933927 1_455
Mn0 O12 1.933927 1_565
Mn0 O16 1.937970 1_556
Mn1 O21 1.865600 1_555
Mn1 O6 1.883970 1_555
Mn1 O3 1.883970 1_555
Mn1 O8 1.933927 1_545
Mn1 O13 1.933927 1_655
Mn1 O17 1.937970 1_554
Mn2 O31 1.865600 1_555
Mn2 O0 1.883970 1_555
Mn2 O5 1.883970 1_555
Mn2 O11 1.933927 1_555
Mn2 O14 1.933927 1_555
Mn2 O18 1.937970 1_555
Mn3 O30 1.865600 1_555
Mn3 O1 1.883970 1_555
Mn3 O4 1.883970 1_555
Mn3 O10 1.933927 1_555
Mn3 O15 1.933927 1_555
Mn3 O19 1.937970 1_555
Mn4 O12 1.900653 1_554
Mn4 O9 1.900653 1_444
Mn4 O13 1.900653 1_555
Mn4 O8 1.900653 1_445
Mn4 O17 1.912221 1_454
Mn4 O16 1.912221 1_545
Mn5 O14 1.900653 1_555
Mn5 O11 1.900653 1_555
Mn5 O15 1.900653 1_555
Mn5 O10 1.900653 1_555
Mn5 O18 1.912221 1_555
Mn5 O19 1.912221 1_555
Mn6 O29 1.788578 1_555
Mn6 O22 1.892088 1_565
Mn6 O25 1.892088 1_455
Mn6 O7 1.954718 1_555
Mn6 O2 1.954718 1_555
Mn6 O20 2.107578 1_555
Mn7 O28 1.788578 1_555
Mn7 O23 1.892088 1_655
Mn7 O24 1.892088 1_545
Mn7 O3 1.954718 1_555
Mn7 O6 1.954718 1_555
Mn7 O21 2.107578 1_555
Mn8 O27 1.788578 1_555
Mn8 O23 1.892088 1_555
Mn8 O24 1.892088 1_555
Mn8 O5 1.954718 1_555
Mn8 O0 1.954718 1_555
Mn8 O31 2.107578 1_555
Mn9 O26 1.788578 1_555
Mn9 O22 1.892088 1_555
Mn9 O25 1.892088 1_555
Mn9 O1 1.954718 1_555
Mn9 O4 1.954718 1_555
Mn9 O30 2.107578 1_555
