# generated using pymatgen
data_V(PO3)4
_symmetry_space_group_name_H-M   'P 1'
_cell_length_a   7.40318542
_cell_length_b   7.40318542
_cell_length_c   9.94436410
_cell_angle_alpha   67.87654760
_cell_angle_beta   67.87654760
_cell_angle_gamma   66.98758536
_symmetry_Int_Tables_number   1
_chemical_formula_structural   V(PO3)4
_chemical_formula_sum   'V2 P8 O24'
_cell_volume   447.58392338
_cell_formula_units_Z   2
loop_
 _symmetry_equiv_pos_site_id
 _symmetry_equiv_pos_as_xyz
  1  'x, y, z'
loop_
 _atom_site_type_symbol
 _atom_site_label
 _atom_site_symmetry_multiplicity
 _atom_site_fract_x
 _atom_site_fract_y
 _atom_site_fract_z
 _atom_site_occupancy
  V  V0  1  0.50000000  0.00000000  0.00000000  1
  V  V1  1  0.00000000  0.50000000  0.50000000  1
  P  P0  1  0.75269500  0.25830400  0.46713700  1
  P  P1  1  0.74169600  0.24730400  0.03286300  1
  P  P2  1  0.69493700  0.66204300  0.81148700  1
  P  P3  1  0.25830400  0.75269600  0.96713700  1
  P  P4  1  0.24730400  0.74169600  0.53286300  1
  P  P5  1  0.33795700  0.30506300  0.68851300  1
  P  P6  1  0.66204300  0.69493700  0.31148700  1
  P  P7  1  0.30506300  0.33795700  0.18851300  1
  O  O0  1  0.66071900  0.46735000  0.34493800  1
  O  O1  1  0.19492700  0.34375100  0.34928100  1
  O  O2  1  0.80507300  0.65624900  0.65071900  1
  O  O3  1  0.82565600  0.33621200  0.55736500  1
  O  O4  1  0.33621200  0.82565600  0.05736500  1
  O  O5  1  0.46735000  0.66071900  0.84493800  1
  O  O6  1  0.31011600  0.15739200  0.14879600  1
  O  O7  1  0.20392800  0.54443500  0.07909100  1
  O  O8  1  0.54443500  0.20392800  0.57909100  1
  O  O9  1  0.09641800  0.88604700  0.89570600  1
  O  O10  1  0.33928100  0.53265000  0.65506200  1
  O  O11  1  0.34375100  0.19492700  0.84928100  1
  O  O12  1  0.84260800  0.68988400  0.35120400  1
  O  O13  1  0.11395200  0.90358200  0.60429400  1
  O  O14  1  0.88604800  0.09641800  0.39570600  1
  O  O15  1  0.66378800  0.17434400  0.94263500  1
  O  O16  1  0.65624900  0.80507300  0.15071900  1
  O  O17  1  0.17434400  0.66378800  0.44263500  1
  O  O18  1  0.90358200  0.11395200  0.10429400  1
  O  O19  1  0.45556500  0.79607200  0.42090900  1
  O  O20  1  0.79607200  0.45556500  0.92090900  1
  O  O21  1  0.68988400  0.84260800  0.85120400  1
  O  O22  1  0.53265000  0.33928100  0.15506200  1
  O  O23  1  0.15739200  0.31011600  0.64879600  1
loop_
_geom_bond_atom_site_label_1
_geom_bond_atom_site_label_2
_geom_bond_distance
_geom_bond_site_symmetry_2
O0 P6 1.593060 1_555
O0 P0 1.648706 1_555
O1 P7 1.505016 1_555
O1 V1 2.009616 1_555
O2 P2 1.505016 1_555
O2 V1 2.009616 1_655
O3 P0 1.558173 1_555
O3 V1 1.899916 1_655
O4 P3 1.558168 1_554
O4 V0 1.899916 1_565
O5 P2 1.593060 1_555
O5 P3 1.648708 1_555
O6 P7 1.513853 1_555
O6 V0 1.993619 1_555
O7 P7 1.595998 1_555
O7 P3 1.622797 1_554
O8 P5 1.595998 1_555
O8 P0 1.622791 1_555
O9 P3 1.450338 1_555
O10 P5 1.593060 1_555
O10 P4 1.648708 1_555
O11 P5 1.505016 1_555
O11 V0 2.009616 1_556
O12 P6 1.513853 1_555
O12 V1 1.993619 1_655
O13 P4 1.450339 1_555
O14 P0 1.450340 1_555
O15 P1 1.558168 1_556
O15 V0 1.899916 1_556
O16 P6 1.505016 1_555
O16 V0 2.009616 1_565
O17 P4 1.558168 1_555
O17 V1 1.899916 1_555
O18 P1 1.450339 1_555
O19 P6 1.595998 1_555
O19 P4 1.622797 1_555
O20 P2 1.595998 1_555
O20 P1 1.622797 1_556
O21 P2 1.513853 1_555
O21 V0 1.993619 1_566
O22 P7 1.593060 1_555
O22 P1 1.648708 1_555
O23 P5 1.513853 1_555
O23 V1 1.993619 1_555
