# generated using pymatgen
data_InBi3(MoO6)2
_symmetry_space_group_name_H-M   'P 1'
_cell_length_a   10.28321640
_cell_length_b   10.28321655
_cell_length_c   5.36865270
_cell_angle_alpha   77.55350516
_cell_angle_beta   77.55350111
_cell_angle_gamma   68.46460119
_symmetry_Int_Tables_number   1
_chemical_formula_structural   InBi3(MoO6)2
_chemical_formula_sum   'In2 Bi6 Mo4 O24'
_cell_volume   509.81544939
_cell_formula_units_Z   2
loop_
 _symmetry_equiv_pos_site_id
 _symmetry_equiv_pos_as_xyz
  1  'x, y, z'
loop_
 _atom_site_type_symbol
 _atom_site_label
 _atom_site_symmetry_multiplicity
 _atom_site_fract_x
 _atom_site_fract_y
 _atom_site_fract_z
 _atom_site_occupancy
  In  In0  1  0.09445468  0.90554532  0.75000000  1
  In  In1  1  0.90554532  0.09445468  0.25000000  1
  Bi  Bi0  1  0.72468313  0.96093018  0.93657379  1
  Bi  Bi1  1  0.27531687  0.03906982  0.06342621  1
  Bi  Bi2  1  0.03906982  0.27531687  0.56342621  1
  Bi  Bi3  1  0.96093018  0.72468313  0.43657379  1
  Bi  Bi4  1  0.65747723  0.34252277  0.75000000  1
  Bi  Bi5  1  0.34252277  0.65747723  0.25000000  1
  Mo  Mo0  1  0.54036424  0.79520468  0.57431404  1
  Mo  Mo1  1  0.45963576  0.20479532  0.42568596  1
  Mo  Mo2  1  0.20479532  0.45963576  0.92568596  1
  Mo  Mo3  1  0.79520468  0.54036424  0.07431404  1
  O  O0  1  0.55255485  0.63697692  0.78324838  1
  O  O1  1  0.44744515  0.36302308  0.21675162  1
  O  O2  1  0.36302308  0.44744515  0.71675162  1
  O  O3  1  0.63697692  0.55255485  0.28324838  1
  O  O4  1  0.89109524  0.93714743  0.58658221  1
  O  O5  1  0.10890476  0.06285257  0.41341779  1
  O  O6  1  0.06285257  0.10890476  0.91341779  1
  O  O7  1  0.93714743  0.89109524  0.08658221  1
  O  O8  1  0.59828153  0.16981726  0.61774231  1
  O  O9  1  0.40171847  0.83018274  0.38225769  1
  O  O10  1  0.83018274  0.40171847  0.88225769  1
  O  O11  1  0.16981726  0.59828153  0.11774231  1
  O  O12  1  0.29821916  0.20971662  0.63294483  1
  O  O13  1  0.70178084  0.79028338  0.36705517  1
  O  O14  1  0.79028338  0.70178084  0.86705517  1
  O  O15  1  0.20971662  0.29821916  0.13294483  1
  O  O16  1  0.73809442  0.15725294  0.02856080  1
  O  O17  1  0.26190558  0.84274706  0.97143920  1
  O  O18  1  0.84274706  0.26190558  0.47143920  1
  O  O19  1  0.15725294  0.73809442  0.52856080  1
  O  O20  1  0.50480411  0.92885231  0.76175555  1
  O  O21  1  0.49519589  0.07114769  0.23824445  1
  O  O22  1  0.07114769  0.49519589  0.73824445  1
  O  O23  1  0.92885231  0.50480411  0.26175555  1
loop_
_geom_bond_atom_site_label_1
_geom_bond_atom_site_label_2
_geom_bond_distance
_geom_bond_site_symmetry_2
In0 O19 2.128501 1_555
In0 O17 2.128501 1_555
In0 O7 2.169043 1_456
In0 O5 2.169043 1_565
In0 O6 2.327537 1_565
In0 O4 2.327537 1_455
In1 O18 2.128501 1_555
In1 O16 2.128501 1_555
In1 O6 2.169043 1_654
In1 O4 2.169043 1_545
In1 O7 2.327537 1_545
In1 O5 2.327537 1_655
Bi0 O16 2.236536 1_566
Bi0 O4 2.241335 1_555
Bi0 O7 2.301086 1_556
Bi0 O8 2.560826 1_565
Bi0 O21 2.580059 1_566
Bi0 O14 2.587743 1_555
Bi0 O13 2.607032 1_556
Bi0 O20 2.774496 1_555
Bi1 O17 2.236536 1_544
Bi1 O5 2.241335 1_555
Bi1 O6 2.301086 1_554
Bi1 O9 2.560826 1_545
Bi1 O20 2.580059 1_544
Bi1 O15 2.587743 1_555
Bi1 O12 2.607032 1_554
Bi1 O21 2.774496 1_555
Bi2 O18 2.236536 1_455
Bi2 O6 2.241335 1_555
Bi2 O5 2.301086 1_555
Bi2 O10 2.560826 1_455
Bi2 O23 2.580059 1_455
Bi2 O12 2.587743 1_555
Bi2 O15 2.607032 1_555
Bi2 O22 2.774496 1_555
Bi3 O19 2.236536 1_655
Bi3 O7 2.241335 1_555
Bi3 O4 2.301086 1_555
Bi3 O11 2.560826 1_655
Bi3 O22 2.580059 1_655
Bi3 O13 2.587743 1_555
Bi3 O14 2.607032 1_555
Bi3 O23 2.774496 1_555
Bi4 O18 2.167988 1_555
Bi4 O16 2.167988 1_556
Bi4 O8 2.356336 1_555
Bi4 O10 2.356336 1_555
Bi5 O19 2.167988 1_555
Bi5 O17 2.167988 1_554
Bi5 O9 2.356336 1_555
Bi5 O11 2.356336 1_555
Mo0 O0 1.745132 1_555
Mo0 O20 1.761740 1_555
Mo0 O13 1.778296 1_555
Mo0 O9 1.822778 1_555
Mo1 O1 1.745132 1_555
Mo1 O21 1.761740 1_555
Mo1 O12 1.778296 1_555
Mo1 O8 1.822778 1_555
Mo2 O2 1.745132 1_555
Mo2 O22 1.761740 1_555
Mo2 O15 1.778296 1_556
Mo2 O11 1.822778 1_556
Mo3 O3 1.745132 1_555
Mo3 O23 1.761740 1_555
Mo3 O14 1.778296 1_554
Mo3 O10 1.822778 1_554
