# generated using pymatgen
data_Rb4P2PtS8
_symmetry_space_group_name_H-M   'P 1'
_cell_length_a   6.74865020
_cell_length_b   7.18666686
_cell_length_c   9.27344802
_cell_angle_alpha   87.34418634
_cell_angle_beta   76.67523870
_cell_angle_gamma   82.32589037
_symmetry_Int_Tables_number   1
_chemical_formula_structural   Rb4P2PtS8
_chemical_formula_sum   'Rb4 P2 Pt1 S8'
_cell_volume   433.68078520
_cell_formula_units_Z   1
loop_
 _symmetry_equiv_pos_site_id
 _symmetry_equiv_pos_as_xyz
  1  'x, y, z'
loop_
 _atom_site_type_symbol
 _atom_site_label
 _atom_site_symmetry_multiplicity
 _atom_site_fract_x
 _atom_site_fract_y
 _atom_site_fract_z
 _atom_site_occupancy
  Rb  Rb0  1  0.27714629  0.30864036  0.12785815  1
  Rb  Rb1  1  0.71400049  0.23888797  0.50898305  1
  Rb  Rb2  1  0.28599951  0.76111203  0.49101695  1
  Rb  Rb3  1  0.72285371  0.69135964  0.87214185  1
  P  P0  1  0.83456118  0.74390345  0.27260857  1
  P  P1  1  0.16543882  0.25609655  0.72739143  1
  Pt  Pt0  1  0.00000000  0.00000000  0.00000000  1
  S  S0  1  0.69474999  0.98240667  0.17803920  1
  S  S1  1  0.75880181  0.50710049  0.20672820  1
  S  S2  1  0.13334597  0.79297756  0.16572058  1
  S  S3  1  0.78481421  0.75607141  0.49396074  1
  S  S4  1  0.21518579  0.24392859  0.50603926  1
  S  S5  1  0.86665403  0.20702244  0.83427942  1
  S  S6  1  0.24119819  0.49289951  0.79327180  1
  S  S7  1  0.30525001  0.01759333  0.82196080  1
loop_
_geom_bond_atom_site_label_1
_geom_bond_atom_site_label_2
_geom_bond_distance
_geom_bond_site_symmetry_2
Rb0 S6 3.364516 1_554
Rb0 S4 3.451857 1_555
Rb0 S2 3.497836 1_555
Rb0 S1 3.520070 1_455
Rb0 S0 3.520608 1_545
Rb0 S7 3.557235 1_554
Rb0 S2 3.934668 1_545
Rb0 S1 3.945353 1_555
Rb1 S1 3.305708 1_555
Rb1 S4 3.368072 1_555
Rb1 S4 3.381161 1_655
Rb1 S5 3.393996 1_555
Rb1 S3 3.443665 1_545
Rb1 S0 3.688510 1_545
Rb1 S3 3.802408 1_555
Rb2 S6 3.305708 1_555
Rb2 S3 3.368072 1_555
Rb2 S3 3.381161 1_455
Rb2 S2 3.393996 1_555
Rb2 S4 3.443665 1_565
Rb2 S7 3.688510 1_565
Rb2 S4 3.802408 1_555
Rb3 S1 3.364516 1_556
Rb3 S3 3.451857 1_555
Rb3 S5 3.497836 1_555
Rb3 S6 3.520070 1_655
Rb3 S7 3.520608 1_565
Rb3 S0 3.557235 1_556
Rb3 S5 3.934668 1_565
Rb3 S6 3.945353 1_555
P0 S1 2.000891 1_555
P0 S3 2.006257 1_555
P0 S0 2.099401 1_555
P0 S2 2.099762 1_655
P1 S6 2.000891 1_555
P1 S4 2.006257 1_555
P1 S7 2.099401 1_555
P1 S5 2.099762 1_455
Pt0 S2 2.335195 1_545
Pt0 S5 2.335195 1_454
Pt0 S7 2.338395 1_554
Pt0 S0 2.338395 1_445
Pt0 Rb0 3.492564 1_555
Pt0 Rb3 3.492564 1_444
