# generated using pymatgen
data_Hf2V3Co
_symmetry_space_group_name_H-M   'P 1'
_cell_length_a   5.08226941
_cell_length_b   5.08226981
_cell_length_c   5.06980951
_cell_angle_alpha   59.91866865
_cell_angle_beta   59.91866418
_cell_angle_gamma   60.00000444
_symmetry_Int_Tables_number   1
_chemical_formula_structural   Hf2V3Co
_chemical_formula_sum   'Hf2 V3 Co1'
_cell_volume   92.48196752
_cell_formula_units_Z   1
loop_
 _symmetry_equiv_pos_site_id
 _symmetry_equiv_pos_as_xyz
  1  'x, y, z'
loop_
 _atom_site_type_symbol
 _atom_site_label
 _atom_site_symmetry_multiplicity
 _atom_site_fract_x
 _atom_site_fract_y
 _atom_site_fract_z
 _atom_site_occupancy
  Hf  Hf0  1  0.25054757  0.25054757  0.24835630  1
  Hf  Hf1  1  0.99945243  0.99945243  0.00164370  1
  V  V0  1  0.62500000  0.12500000  0.62500000  1
  V  V1  1  0.12500000  0.62500000  0.62500000  1
  V  V2  1  0.62500000  0.62500000  0.62500000  1
  Co  Co0  1  0.62500000  0.62500000  0.12500000  1
loop_
_geom_bond_atom_site_label_1
_geom_bond_atom_site_label_2
_geom_bond_distance
_geom_bond_site_symmetry_2
Hf0 V0 2.965533 1_554
Hf0 V1 2.965533 1_554
Hf0 V2 2.965535 1_554
Hf0 V0 2.980301 1_455
Hf0 V1 2.980301 1_545
Hf0 V2 2.980303 1_455
Hf0 V2 2.980304 1_545
Hf0 V0 2.980306 1_555
Hf0 V1 2.980306 1_555
Hf0 Hf1 3.106477 1_445
Hf0 Hf1 3.106485 1_545
Hf0 Hf1 3.106485 1_455
Hf0 Hf1 3.114381 1_446
Hf1 V0 2.965533 1_565
Hf1 V1 2.965533 1_655
Hf1 V2 2.965535 1_555
Hf1 V0 2.980301 1_664
Hf1 V1 2.980301 1_664
Hf1 V2 2.980303 1_654
Hf1 V2 2.980304 1_564
Hf1 V0 2.980306 1_564
Hf1 V1 2.980306 1_654
V0 V2 2.541135 1_545
V0 V2 2.541135 1_555
V0 V1 2.541135 1_555
V0 V1 2.541135 1_645
V1 V2 2.541135 1_455
V1 V2 2.541135 1_555
Co0 V1 2.534905 1_654
Co0 V1 2.534905 1_555
Co0 V2 2.534905 1_555
Co0 V2 2.534905 1_554
Co0 V0 2.534905 1_555
Co0 V0 2.534905 1_564
Co0 Hf0 2.978240 1_655
Co0 Hf1 2.978240 1_455
Co0 Hf0 2.978241 1_565
Co0 Hf1 2.978241 1_545
Co0 Hf1 2.978245 1_555
Co0 Hf0 2.978245 1_555
