# generated using pymatgen
data_Lu3Zn3C
_symmetry_space_group_name_H-M   'P 1'
_cell_length_a   8.88377064
_cell_length_b   8.88377064
_cell_length_c   8.88377190
_cell_angle_alpha   59.99999894
_cell_angle_beta   59.99999892
_cell_angle_gamma   59.99999721
_symmetry_Int_Tables_number   1
_chemical_formula_structural   Lu3Zn3C
_chemical_formula_sum   'Lu12 Zn12 C4'
_cell_volume   495.76636640
_cell_formula_units_Z   4
loop_
 _symmetry_equiv_pos_site_id
 _symmetry_equiv_pos_as_xyz
  1  'x, y, z'
loop_
 _atom_site_type_symbol
 _atom_site_label
 _atom_site_symmetry_multiplicity
 _atom_site_fract_x
 _atom_site_fract_y
 _atom_site_fract_z
 _atom_site_occupancy
  Lu  Lu0  1  0.44708354  0.44708354  0.05291646  1
  Lu  Lu1  1  0.05291646  0.44708354  0.05291646  1
  Lu  Lu2  1  0.44708354  0.05291646  0.05291646  1
  Lu  Lu3  1  0.05291646  0.05291646  0.44708354  1
  Lu  Lu4  1  0.44708354  0.05291646  0.44708354  1
  Lu  Lu5  1  0.05291646  0.44708354  0.44708354  1
  Lu  Lu6  1  0.80291646  0.80291646  0.19708354  1
  Lu  Lu7  1  0.19708354  0.80291646  0.19708354  1
  Lu  Lu8  1  0.80291646  0.19708354  0.19708354  1
  Lu  Lu9  1  0.19708354  0.19708354  0.80291646  1
  Lu  Lu10  1  0.80291646  0.19708354  0.80291646  1
  Lu  Lu11  1  0.19708354  0.80291646  0.80291646  1
  Zn  Zn0  1  0.82677710  0.82677710  0.51966969  1
  Zn  Zn1  1  0.82677710  0.51966969  0.82677710  1
  Zn  Zn2  1  0.51966969  0.82677710  0.82677710  1
  Zn  Zn3  1  0.82677710  0.82677710  0.82677710  1
  Zn  Zn4  1  0.42322290  0.42322290  0.73033031  1
  Zn  Zn5  1  0.42322290  0.73033031  0.42322290  1
  Zn  Zn6  1  0.73033031  0.42322290  0.42322290  1
  Zn  Zn7  1  0.42322290  0.42322290  0.42322290  1
  Zn  Zn8  1  0.62500000  0.62500000  0.12500000  1
  Zn  Zn9  1  0.62500000  0.12500000  0.62500000  1
  Zn  Zn10  1  0.12500000  0.62500000  0.62500000  1
  Zn  Zn11  1  0.62500000  0.62500000  0.62500000  1
  C  C0  1  0.12500000  0.12500000  0.62500000  1
  C  C1  1  0.12500000  0.62500000  0.12500000  1
  C  C2  1  0.62500000  0.12500000  0.12500000  1
  C  C3  1  0.12500000  0.12500000  0.12500000  1
loop_
_geom_bond_atom_site_label_1
_geom_bond_atom_site_label_2
_geom_bond_distance
_geom_bond_site_symmetry_2
Lu0 Zn7 3.092310 1_555
Lu0 Zn4 3.092319 1_554
Lu0 Zn8 3.151029 1_555
Lu0 Zn11 3.151029 1_554
Lu0 Zn1 3.151638 1_554
Lu0 Zn2 3.151638 1_554
Lu1 Zn4 3.092314 1_554
Lu1 Zn6 3.092314 1_455
Lu1 Zn8 3.151029 1_455
Lu1 Zn10 3.151029 1_554
Lu1 Zn1 3.151631 1_454
Lu1 Zn3 3.151635 1_454
Lu2 Zn4 3.092314 1_554
Lu2 Zn5 3.092314 1_545
Lu2 Zn8 3.151029 1_545
Lu2 Zn9 3.151029 1_554
Lu2 Zn2 3.151631 1_544
Lu2 Zn3 3.151635 1_544
Lu3 Zn5 3.092313 1_545
Lu3 Zn6 3.092313 1_455
Lu3 Zn9 3.151029 1_455
Lu3 Zn10 3.151029 1_545
Lu3 Zn0 3.151631 1_445
Lu3 Zn3 3.151635 1_445
Lu4 Zn7 3.092310 1_555
Lu4 Zn5 3.092318 1_545
Lu4 Zn11 3.151029 1_545
Lu4 Zn9 3.151029 1_555
Lu4 Zn0 3.151638 1_545
Lu4 Zn2 3.151639 1_545
Lu5 Zn7 3.092310 1_555
Lu5 Zn6 3.092318 1_455
Lu5 Zn11 3.151029 1_455
Lu5 Zn10 3.151029 1_555
Lu5 Zn0 3.151638 1_455
Lu5 Zn1 3.151639 1_455
Lu6 Zn3 3.092310 1_554
Lu6 Zn0 3.092319 1_555
Lu6 Zn8 3.151029 1_555
Lu6 Zn11 3.151029 1_555
Lu6 Zn5 3.151638 1_555
Lu6 Zn6 3.151638 1_555
Lu7 Zn0 3.092314 1_455
Lu7 Zn2 3.092314 1_554
Lu7 Zn8 3.151029 1_555
Lu7 Zn10 3.151029 1_555
Lu7 Zn5 3.151631 1_555
Lu7 Zn7 3.151635 1_555
Lu8 Zn0 3.092314 1_545
Lu8 Zn1 3.092314 1_554
Lu8 Zn8 3.151029 1_555
Lu8 Zn9 3.151029 1_555
Lu8 Zn6 3.151631 1_555
Lu8 Zn7 3.151635 1_555
Lu9 Zn1 3.092313 1_455
Lu9 Zn2 3.092313 1_545
Lu9 Zn9 3.151029 1_555
Lu9 Zn10 3.151029 1_555
Lu9 Zn4 3.151631 1_555
Lu9 Zn7 3.151635 1_555
Lu10 Zn3 3.092310 1_545
Lu10 Zn1 3.092318 1_555
Lu10 Zn11 3.151029 1_555
Lu10 Zn9 3.151029 1_555
Lu10 Zn4 3.151638 1_555
Lu10 Zn6 3.151639 1_555
Lu11 Zn3 3.092310 1_455
Lu11 Zn2 3.092318 1_555
Lu11 Zn11 3.151029 1_555
Lu11 Zn10 3.151029 1_555
Lu11 Zn4 3.151638 1_555
Lu11 Zn5 3.151639 1_555
Zn0 Zn10 2.675910 1_655
Zn0 Zn9 2.675910 1_565
Zn0 Zn11 2.675918 1_555
Zn0 Zn2 2.728272 1_555
Zn0 Zn1 2.728272 1_555
Zn0 Zn3 2.728272 1_555
Zn1 Zn10 2.675910 1_655
Zn1 Zn8 2.675911 1_556
Zn1 Zn11 2.675918 1_555
Zn1 Zn2 2.728272 1_555
Zn1 Zn3 2.728272 1_555
Zn2 Zn9 2.675910 1_565
Zn2 Zn8 2.675911 1_556
Zn2 Zn3 2.728272 1_555
Zn3 Zn9 2.675915 1_565
Zn3 Zn8 2.675915 1_556
Zn4 Zn9 2.675910 1_555
Zn4 Zn6 2.728272 1_555
Zn4 Zn5 2.728272 1_555
Zn4 Zn7 2.728272 1_555
Zn5 Zn8 2.675911 1_555
Zn5 Zn6 2.728272 1_555
Zn5 Zn7 2.728272 1_555
Zn6 Zn9 2.675910 1_555
Zn6 Zn8 2.675911 1_555
Zn6 Zn7 2.728272 1_555
Zn7 Zn9 2.675915 1_555
Zn7 Zn8 2.675915 1_555
Zn10 Zn4 2.675910 1_555
Zn10 Zn5 2.675910 1_555
Zn10 Zn3 2.675915 1_455
Zn10 Zn7 2.675915 1_555
Zn11 Zn4 2.675918 1_555
Zn11 Zn5 2.675918 1_555
Zn11 Zn2 2.675918 1_555
Zn11 Zn6 2.675918 1_555
C0 Lu4 2.398488 1_555
C0 Lu10 2.398488 1_455
C0 Lu5 2.398488 1_555
C0 Lu11 2.398488 1_545
C0 Lu9 2.398488 1_555
C0 Lu3 2.398488 1_555
C1 Lu6 2.398488 1_455
C1 Lu0 2.398488 1_555
C1 Lu7 2.398488 1_555
C1 Lu1 2.398488 1_555
C1 Lu11 2.398488 1_554
C1 Lu5 2.398488 1_555
C2 Lu0 2.398488 1_555
C2 Lu6 2.398488 1_545
C2 Lu8 2.398488 1_555
C2 Lu2 2.398488 1_555
C2 Lu10 2.398488 1_554
C2 Lu4 2.398488 1_555
C3 Lu2 2.398488 1_555
C3 Lu8 2.398488 1_455
C3 Lu1 2.398488 1_555
C3 Lu7 2.398488 1_545
C3 Lu3 2.398488 1_555
C3 Lu9 2.398488 1_554
