# generated using pymatgen
data_CsMgVF6
_symmetry_space_group_name_H-M   'P 1'
_cell_length_a   7.30895791
_cell_length_b   7.30895715
_cell_length_c   7.30895797
_cell_angle_alpha   120.59499740
_cell_angle_beta   119.01206675
_cell_angle_gamma   90.34606983
_symmetry_Int_Tables_number   1
_chemical_formula_structural   CsMgVF6
_chemical_formula_sum   'Cs2 Mg2 V2 F12'
_cell_volume   276.83926032
_cell_formula_units_Z   2
loop_
 _symmetry_equiv_pos_site_id
 _symmetry_equiv_pos_as_xyz
  1  'x, y, z'
loop_
 _atom_site_type_symbol
 _atom_site_label
 _atom_site_symmetry_multiplicity
 _atom_site_fract_x
 _atom_site_fract_y
 _atom_site_fract_z
 _atom_site_occupancy
  Cs  Cs0  1  0.36751737  0.61751737  0.75000000  1
  Cs  Cs1  1  0.63248263  0.38248263  0.25000000  1
  Mg  Mg0  1  0.00000000  0.00000000  0.50000000  1
  Mg  Mg1  1  0.00000000  0.50000000  0.00000000  1
  V  V0  1  0.00000000  0.00000000  0.00000000  1
  V  V1  1  0.50000000  0.00000000  0.50000000  1
  F  F0  1  0.32075321  0.07075321  0.25000000  1
  F  F1  1  0.93260922  0.68260922  0.25000000  1
  F  F2  1  0.32087584  0.68762127  0.25499804  1
  F  F3  1  0.93262323  0.06587780  0.24500196  1
  F  F4  1  0.32087584  0.06587780  0.63325457  1
  F  F5  1  0.93262323  0.68762127  0.86674543  1
  F  F6  1  0.67924679  0.92924679  0.75000000  1
  F  F7  1  0.06739078  0.31739078  0.75000000  1
  F  F8  1  0.67912416  0.31237873  0.74500196  1
  F  F9  1  0.06737677  0.93412220  0.75499804  1
  F  F10  1  0.67912416  0.93412220  0.36674543  1
  F  F11  1  0.06737677  0.31237873  0.13325457  1
loop_
_geom_bond_atom_site_label_1
_geom_bond_atom_site_label_2
_geom_bond_distance
_geom_bond_site_symmetry_2
Cs0 F7 3.092854 1_555
Cs0 F10 3.197117 1_556
Cs0 F11 3.197117 1_555
Cs0 F9 3.197117 1_555
Cs0 F8 3.197117 1_555
Cs0 F6 3.212423 1_555
Cs1 F1 3.092854 1_555
Cs1 F4 3.197117 1_554
Cs1 F5 3.197117 1_555
Cs1 F3 3.197117 1_555
Cs1 F2 3.197117 1_555
Cs1 F0 3.212423 1_555
F0 V0 1.992644 1_555
F0 V1 1.992644 1_555
F1 Mg0 1.939387 1_665
F1 Mg1 1.939387 1_655
F2 V1 1.913516 1_565
F2 Mg1 1.993508 1_555
F3 V0 1.913517 1_655
F3 Mg0 1.993508 1_655
F4 V1 1.913517 1_555
F4 Mg0 1.993508 1_555
F5 V0 1.913516 1_666
F5 Mg1 1.993508 1_656
F6 V0 1.992644 1_666
F6 V1 1.992644 1_565
F7 Mg0 1.939387 1_555
F7 Mg1 1.939387 1_556
F8 V1 1.913516 1_555
F8 Mg1 1.993508 1_656
F9 V0 1.913517 1_566
F9 Mg0 1.993508 1_565
F10 V1 1.913517 1_565
F10 Mg0 1.993508 1_665
F11 V0 1.913516 1_555
F11 Mg1 1.993508 1_555
