# generated using pymatgen
data_LiHf6Al15Pd7
_symmetry_space_group_name_H-M   'P 1'
_cell_length_a   8.70676844
_cell_length_b   8.70676905
_cell_length_c   8.69159961
_cell_angle_alpha   59.94224375
_cell_angle_beta   59.94224301
_cell_angle_gamma   59.99999559
_symmetry_Int_Tables_number   1
_chemical_formula_structural   LiHf6Al15Pd7
_chemical_formula_sum   'Li1 Hf6 Al15 Pd7'
_cell_volume   465.49929931
_cell_formula_units_Z   1
loop_
 _symmetry_equiv_pos_site_id
 _symmetry_equiv_pos_as_xyz
  1  'x, y, z'
loop_
 _atom_site_type_symbol
 _atom_site_label
 _atom_site_symmetry_multiplicity
 _atom_site_fract_x
 _atom_site_fract_y
 _atom_site_fract_z
 _atom_site_occupancy
  Li  Li0  1  0.88105873  0.88105873  0.35682580  1
  Hf  Hf0  1  0.68096095  0.68096095  0.31749909  1
  Hf  Hf1  1  0.32057802  0.68096095  0.31749909  1
  Hf  Hf2  1  0.68096095  0.32057802  0.31749909  1
  Hf  Hf3  1  0.31792703  0.31792703  0.68234225  1
  Hf  Hf4  1  0.68180369  0.31792703  0.68234225  1
  Hf  Hf5  1  0.31792703  0.68180369  0.68234225  1
  Al  Al0  1  0.87937560  0.35990956  0.88134025  1
  Al  Al1  1  0.35990956  0.87937560  0.88134025  1
  Al  Al2  1  0.87937560  0.87937560  0.88134025  1
  Al  Al3  1  0.11980834  0.11980834  0.64057397  1
  Al  Al4  1  0.11616478  0.64194993  0.12571950  1
  Al  Al5  1  0.64194993  0.11616478  0.12571950  1
  Al  Al6  1  0.11616478  0.11616478  0.12571950  1
  Al  Al7  1  0.66545471  0.66545471  0.00363688  1
  Al  Al8  1  0.66947810  0.00142946  0.65961533  1
  Al  Al9  1  0.00142946  0.66947810  0.65961533  1
  Al  Al10  1  0.66947810  0.66947810  0.65961533  1
  Al  Al11  1  0.33357013  0.33357013  0.99928962  1
  Al  Al12  1  0.33522104  0.99648250  0.33307442  1
  Al  Al13  1  0.99648250  0.33522104  0.33307442  1
  Al  Al14  1  0.33522104  0.33522104  0.33307442  1
  Pd  Pd0  1  0.00162762  0.00162762  0.99511613  1
  Pd  Pd1  1  0.00152829  0.00152829  0.50504056  1
  Pd  Pd2  1  0.49190185  0.00152829  0.50504056  1
  Pd  Pd3  1  0.00152829  0.49190185  0.50504056  1
  Pd  Pd4  1  0.50130493  0.50130493  0.99688613  1
  Pd  Pd5  1  0.00050302  0.50130493  0.99688613  1
  Pd  Pd6  1  0.50130493  0.00050302  0.99688613  1
loop_
_geom_bond_atom_site_label_1
_geom_bond_atom_site_label_2
_geom_bond_distance
_geom_bond_site_symmetry_2
Li0 Pd0 2.564688 1_664
Li0 Pd1 2.768980 1_665
Li0 Pd2 2.769001 1_565
Li0 Pd3 2.769001 1_655
Hf0 Hf1 3.137771 1_555
Hf0 Hf2 3.137771 1_555
Hf0 Hf5 3.163236 1_555
Hf0 Hf4 3.163237 1_555
Hf0 Pd5 3.193869 1_654
Hf0 Pd6 3.193869 1_564
Hf0 Li0 3.227346 1_555
Hf0 Pd3 3.229885 1_655
Hf0 Pd2 3.229885 1_565
Hf1 Hf2 3.137771 1_555
Hf1 Hf3 3.163236 1_555
Hf1 Hf5 3.163241 1_555
Hf1 Pd6 3.193869 1_564
Hf1 Pd4 3.193869 1_554
Hf1 Li0 3.227323 1_455
Hf1 Pd3 3.229885 1_555
Hf1 Pd1 3.229885 1_565
Hf2 Hf3 3.163236 1_555
Hf2 Hf4 3.163241 1_555
Hf2 Pd5 3.193868 1_654
Hf2 Pd4 3.193869 1_554
Hf2 Li0 3.227324 1_545
Hf2 Pd1 3.229885 1_655
Hf2 Pd2 3.229885 1_555
Hf3 Pd3 3.162229 1_555
Hf3 Pd2 3.162229 1_555
Hf3 Hf4 3.168190 1_555
Hf3 Hf5 3.168190 1_555
Hf3 Pd5 3.170590 1_555
Hf3 Pd6 3.170590 1_555
Hf4 Pd3 3.162221 1_655
Hf4 Pd1 3.162227 1_655
Hf4 Hf5 3.168190 1_555
Hf4 Pd4 3.170589 1_555
Hf4 Pd6 3.170594 1_555
Hf5 Pd2 3.162221 1_565
Hf5 Pd1 3.162227 1_565
Hf5 Pd4 3.170589 1_555
Hf5 Pd5 3.170594 1_555
Al0 Pd0 2.546729 1_655
Al0 Pd3 2.668596 1_655
Al0 Pd5 2.689661 1_655
Al0 Pd4 2.689675 1_555
Al0 Hf2 3.194286 1_556
Al0 Hf3 3.213544 1_655
Al0 Hf4 3.213552 1_555
Al1 Pd0 2.546729 1_565
Al1 Pd2 2.668596 1_565
Al1 Pd6 2.689661 1_565
Al1 Pd4 2.689675 1_555
Al1 Hf1 3.194286 1_556
Al1 Hf3 3.213544 1_565
Al1 Hf5 3.213552 1_555
Al2 Pd0 2.546715 1_665
Al2 Pd1 2.668596 1_665
Al2 Pd6 2.689675 1_565
Al2 Pd5 2.689676 1_655
Al2 Hf0 3.194289 1_556
Al2 Hf5 3.213546 1_655
Al2 Hf4 3.213546 1_565
Al3 Pd0 2.513867 1_555
Al3 Pd2 2.645735 1_555
Al3 Pd3 2.645736 1_555
Al3 Pd1 2.645736 1_555
Al3 Hf4 3.211382 1_455
Al3 Hf5 3.211382 1_545
Al3 Hf3 3.211390 1_555
Al4 Pd0 2.557361 1_564
Al4 Pd3 2.695445 1_555
Al4 Pd4 2.739341 1_554
Al4 Pd5 2.739342 1_554
Al4 Li0 2.892708 1_455
Al4 Hf0 3.194520 1_455
Al4 Hf1 3.194520 1_555
Al4 Hf5 3.247394 1_554
Al5 Pd0 2.557360 1_654
Al5 Pd2 2.695445 1_555
Al5 Pd4 2.739341 1_554
Al5 Pd6 2.739342 1_554
Al5 Li0 2.892707 1_545
Al5 Hf0 3.194520 1_545
Al5 Hf2 3.194520 1_555
Al5 Hf4 3.247394 1_554
Al6 Pd0 2.557361 1_554
Al6 Pd1 2.695445 1_555
Al6 Pd6 2.739341 1_554
Al6 Pd5 2.739341 1_554
Al6 Li0 2.892689 1_445
Al6 Hf2 3.194520 1_455
Al6 Hf1 3.194520 1_545
Al6 Hf3 3.247396 1_554
Al7 Pd5 2.509848 1_654
Al7 Pd6 2.509848 1_564
Al7 Pd4 2.509863 1_554
Al7 Hf0 2.869557 1_555
Al7 Hf1 2.869567 1_555
Al7 Hf2 2.869567 1_555
Al8 Pd1 2.504743 1_655
Al8 Pd2 2.504759 1_555
Al8 Pd6 2.534882 1_555
Al8 Li0 2.719138 1_545
Al8 Hf2 2.876847 1_555
Al8 Hf4 2.916592 1_555
Al8 Hf3 2.916597 1_555
Al9 Pd1 2.504743 1_565
Al9 Pd3 2.504759 1_555
Al9 Pd5 2.534882 1_555
Al9 Li0 2.719138 1_455
Al9 Hf1 2.876847 1_555
Al9 Hf5 2.916592 1_555
Al9 Hf3 2.916597 1_555
Al10 Pd3 2.504749 1_655
Al10 Pd2 2.504749 1_565
Al10 Pd4 2.534887 1_555
Al10 Li0 2.719142 1_555
Al10 Hf0 2.876855 1_555
Al10 Hf5 2.916601 1_555
Al10 Hf4 2.916601 1_555
Al11 Pd4 2.517511 1_555
Al11 Pd5 2.517519 1_555
Al11 Pd6 2.517519 1_555
Al11 Hf4 2.897616 1_555
Al11 Hf5 2.897616 1_555
Al11 Hf3 2.897616 1_555
Al12 Pd1 2.503038 1_565
Al12 Pd2 2.503038 1_565
Al12 Pd6 2.519098 1_564
Al12 Hf0 2.884722 1_555
Al12 Hf1 2.884723 1_555
Al12 Hf5 2.892689 1_555
Al13 Pd1 2.503038 1_655
Al13 Pd3 2.503038 1_655
Al13 Pd5 2.519098 1_654
Al13 Hf0 2.884722 1_555
Al13 Hf2 2.884722 1_555
Al13 Hf4 2.892689 1_555
Al14 Pd3 2.503038 1_555
Al14 Pd2 2.503038 1_555
Al14 Pd4 2.519097 1_554
Al14 Hf2 2.884722 1_555
Al14 Hf1 2.884723 1_555
Al14 Hf3 2.892693 1_555
