# generated using pymatgen
data_Cs2Zr(PdSe2)3
_symmetry_space_group_name_H-M   'P 1'
_cell_length_a   11.83339331
_cell_length_b   10.13112573
_cell_length_c   9.40546613
_cell_angle_alpha   74.45502771
_cell_angle_beta   55.57122500
_cell_angle_gamma   49.97373316
_symmetry_Int_Tables_number   1
_chemical_formula_structural   Cs2Zr(PdSe2)3
_chemical_formula_sum   'Cs4 Zr2 Pd6 Se12'
_cell_volume   703.98480869
_cell_formula_units_Z   2
loop_
 _symmetry_equiv_pos_site_id
 _symmetry_equiv_pos_as_xyz
  1  'x, y, z'
loop_
 _atom_site_type_symbol
 _atom_site_label
 _atom_site_symmetry_multiplicity
 _atom_site_fract_x
 _atom_site_fract_y
 _atom_site_fract_z
 _atom_site_occupancy
  Cs  Cs0  1  0.25000000  0.24999900  0.25000000  1
  Cs  Cs1  1  0.75000000  0.75000000  0.75000000  1
  Cs  Cs2  1  0.31953849  0.68046151  0.31953949  1
  Cs  Cs3  1  0.68046151  0.31953949  0.68046151  1
  Zr  Zr0  1  0.16640496  0.16640596  0.83359504  1
  Zr  Zr1  1  0.83359404  0.83359504  0.16640596  1
  Pd  Pd0  1  0.83238198  0.16761802  0.16761802  1
  Pd  Pd1  1  0.16761902  0.83238198  0.83238098  1
  Pd  Pd2  1  0.82883507  0.49605315  0.17116493  1
  Pd  Pd3  1  0.49605315  0.82883507  0.50394685  1
  Pd  Pd4  1  0.50394685  0.17116493  0.49605315  1
  Pd  Pd5  1  0.17116593  0.50394685  0.82883407  1
  Se  Se0  1  0.02586415  0.18112685  0.18191368  1
  Se  Se1  1  0.18112785  0.02586315  0.61109432  1
  Se  Se2  1  0.61109432  0.18191368  0.18112785  1
  Se  Se3  1  0.18191368  0.61109332  0.02586315  1
  Se  Se4  1  0.97413585  0.81887215  0.81808632  1
  Se  Se5  1  0.81887215  0.97413685  0.38890568  1
  Se  Se6  1  0.38890568  0.81808632  0.81887215  1
  Se  Se7  1  0.81808632  0.38890568  0.97413685  1
  Se  Se8  1  0.39368604  0.18992381  0.81007619  1
  Se  Se9  1  0.18992381  0.39368604  0.60631396  1
  Se  Se10  1  0.60631396  0.81007719  0.18992381  1
  Se  Se11  1  0.81007619  0.60631496  0.39368604  1
loop_
_geom_bond_atom_site_label_1
_geom_bond_atom_site_label_2
_geom_bond_distance
_geom_bond_site_symmetry_2
Cs0 Se10 3.527787 1_545
Cs0 Se8 3.527796 1_554
Cs0 Se11 3.527801 1_455
Cs0 Se9 3.527804 1_555
Cs0 Se1 3.531584 1_555
Cs0 Se0 3.531585 1_555
Cs0 Se3 3.531589 1_555
Cs0 Se2 3.531590 1_555
Cs1 Se11 3.527793 1_555
Cs1 Se8 3.527797 1_565
Cs1 Se9 3.527798 1_655
Cs1 Se10 3.527800 1_556
Cs1 Se6 3.531585 1_555
Cs1 Se4 3.531585 1_555
Cs1 Se7 3.531589 1_555
Cs1 Se5 3.531590 1_555
Cs2 Se9 3.862954 1_555
Cs2 Se10 3.862962 1_555
Cs2 Se1 3.891000 1_565
Cs2 Se4 3.891009 1_455
Cs2 Se7 3.891015 1_554
Cs2 Se2 3.891017 1_555
Cs2 Se0 4.286569 1_565
Cs2 Se5 4.286574 1_455
Cs2 Se6 4.286580 1_554
Cs2 Se3 4.286595 1_555
Cs3 Se11 3.862956 1_555
Cs3 Se8 3.862965 1_555
Cs3 Se6 3.891007 1_555
Cs3 Se3 3.891013 1_556
Cs3 Se5 3.891015 1_545
Cs3 Se0 3.891016 1_655
Cs3 Se1 4.286568 1_655
Cs3 Se2 4.286573 1_556
Cs3 Se7 4.286574 1_555
Cs3 Se4 4.286577 1_545
Pd0 Se0 2.457614 1_655
Pd0 Se5 2.457615 1_545
Pd0 Se7 2.457616 1_554
Pd0 Se2 2.457621 1_555
Pd1 Se1 2.457608 1_565
Pd1 Se6 2.457614 1_555
Pd1 Se4 2.457627 1_455
Pd1 Se3 2.457629 1_556
Pd2 Se10 2.467031 1_555
Pd2 Se11 2.467031 1_555
Pd2 Se7 2.480124 1_554
Pd2 Se0 2.480139 1_655
Pd3 Se11 2.467024 1_555
Pd3 Se10 2.467025 1_555
Pd3 Se6 2.480132 1_555
Pd3 Se1 2.480133 1_565
Pd4 Se9 2.467025 1_555
Pd4 Se8 2.467025 1_555
Pd4 Se2 2.480132 1_555
Pd4 Se5 2.480133 1_545
Pd5 Se8 2.467024 1_555
Pd5 Se9 2.467025 1_555
Pd5 Se3 2.480117 1_556
Pd5 Se4 2.480131 1_455
Se0 Zr0 2.702386 1_554
Se1 Zr0 2.702399 1_555
Se2 Zr1 2.702385 1_545
Se3 Zr1 2.702391 1_455
Se4 Zr1 2.702392 1_556
Se5 Zr1 2.702393 1_555
Se6 Zr0 2.702392 1_565
Se7 Zr0 2.702384 1_655
Se8 Zr0 2.731744 1_555
Se9 Zr0 2.731743 1_555
Se10 Zr1 2.731737 1_555
Se11 Zr1 2.731736 1_555
