# generated using pymatgen
data_KCd2H8Ir
_symmetry_space_group_name_H-M   'P 1'
_cell_length_a   5.09346935
_cell_length_b   5.09346935
_cell_length_c   11.04389056
_cell_angle_alpha   90.00000000
_cell_angle_beta   90.00000000
_cell_angle_gamma   90.00000000
_symmetry_Int_Tables_number   1
_chemical_formula_structural   KCd2H8Ir
_chemical_formula_sum   'K2 Cd4 H16 Ir2'
_cell_volume   286.51640152
_cell_formula_units_Z   2
loop_
 _symmetry_equiv_pos_site_id
 _symmetry_equiv_pos_as_xyz
  1  'x, y, z'
loop_
 _atom_site_type_symbol
 _atom_site_label
 _atom_site_symmetry_multiplicity
 _atom_site_fract_x
 _atom_site_fract_y
 _atom_site_fract_z
 _atom_site_occupancy
  K  K0  1  0.50000000  0.00000000  0.00000000  1
  K  K1  1  0.00000000  0.50000000  0.50000000  1
  Cd  Cd0  1  0.50000000  0.00000000  0.63038817  1
  Cd  Cd1  1  0.00000000  0.50000000  0.13038817  1
  Cd  Cd2  1  0.50000000  0.00000000  0.36961183  1
  Cd  Cd3  1  0.00000000  0.50000000  0.86961183  1
  H  H0  1  0.23305495  0.23305495  0.75000000  1
  H  H1  1  0.76694505  0.76694505  0.75000000  1
  H  H2  1  0.76694505  0.23305495  0.25000000  1
  H  H3  1  0.23305495  0.76694505  0.25000000  1
  H  H4  1  0.76694505  0.76694505  0.25000000  1
  H  H5  1  0.23305495  0.23305495  0.25000000  1
  H  H6  1  0.23305495  0.76694505  0.75000000  1
  H  H7  1  0.76694505  0.23305495  0.75000000  1
  H  H8  1  0.50000000  0.26307983  0.50000000  1
  H  H9  1  0.50000000  0.73692017  0.50000000  1
  H  H10  1  0.73692017  0.50000000  0.00000000  1
  H  H11  1  0.26307983  0.50000000  0.00000000  1
  H  H12  1  0.00000000  0.00000000  0.59921519  1
  H  H13  1  0.00000000  0.00000000  0.09921519  1
  H  H14  1  0.00000000  0.00000000  0.40078481  1
  H  H15  1  0.00000000  0.00000000  0.90078481  1
  Ir  Ir0  1  0.00000000  0.00000000  0.75000000  1
  Ir  Ir1  1  0.00000000  0.00000000  0.25000000  1
loop_
_geom_bond_atom_site_label_1
_geom_bond_atom_site_label_2
_geom_bond_distance
_geom_bond_site_symmetry_2
Cd0 H8 1.967015 1_555
Cd0 H9 1.967015 1_545
Cd0 H7 2.236697 1_555
Cd0 H1 2.236697 1_545
Cd0 H0 2.236697 1_555
Cd0 H6 2.236697 1_545
Cd1 H11 1.967015 1_555
Cd1 H10 1.967015 1_455
Cd1 H3 2.236697 1_555
Cd1 H4 2.236697 1_455
Cd1 H5 2.236697 1_555
Cd1 H2 2.236697 1_455
Cd2 H8 1.967015 1_555
Cd2 H9 1.967015 1_545
Cd2 H2 2.236697 1_555
Cd2 H4 2.236697 1_545
Cd2 H5 2.236697 1_555
Cd2 H3 2.236697 1_545
Cd3 H11 1.967015 1_556
Cd3 H10 1.967015 1_456
Cd3 H6 2.236697 1_555
Cd3 H1 2.236697 1_455
Cd3 H0 2.236697 1_555
Cd3 H7 2.236697 1_455
H0 Ir0 1.678754 1_555
H1 Ir0 1.678754 1_665
H2 Ir1 1.678754 1_655
H3 Ir1 1.678754 1_565
H4 Ir1 1.678754 1_665
H5 Ir1 1.678754 1_555
H6 Ir0 1.678754 1_565
H7 Ir0 1.678754 1_655
H8 K1 2.818172 1_655
H8 K1 2.818172 1_555
H9 K1 2.818172 1_555
H9 K1 2.818172 1_655
H10 K0 2.818172 1_565
H10 K0 2.818172 1_555
H11 K0 2.818172 1_555
H11 K0 2.818172 1_565
H12 Ir0 1.665251 1_555
H12 K1 2.772447 1_555
H12 K1 2.772447 1_545
H13 Ir1 1.665251 1_555
H13 K0 2.772447 1_555
H13 K0 2.772447 1_455
H14 Ir1 1.665251 1_555
H14 K1 2.772447 1_555
H14 K1 2.772447 1_545
H15 Ir0 1.665251 1_555
H15 K0 2.772447 1_556
H15 K0 2.772447 1_456
