# generated using pymatgen
data_TaTiHRh6
_symmetry_space_group_name_H-M   'P 1'
_cell_length_a   5.47672083
_cell_length_b   5.47672099
_cell_length_c   5.47672031
_cell_angle_alpha   60.00000411
_cell_angle_beta   60.00000312
_cell_angle_gamma   60.00000646
_symmetry_Int_Tables_number   1
_chemical_formula_structural   TaTiHRh6
_chemical_formula_sum   'Ta1 Ti1 H1 Rh6'
_cell_volume   116.15738588
_cell_formula_units_Z   1
loop_
 _symmetry_equiv_pos_site_id
 _symmetry_equiv_pos_as_xyz
  1  'x, y, z'
loop_
 _atom_site_type_symbol
 _atom_site_label
 _atom_site_symmetry_multiplicity
 _atom_site_fract_x
 _atom_site_fract_y
 _atom_site_fract_z
 _atom_site_occupancy
  Ta  Ta0  1  0.75000000  0.75000000  0.75000000  1
  Ti  Ti0  1  0.25000000  0.25000000  0.25000000  1
  H  H0  1  0.50000000  0.50000000  0.50000000  1
  Rh  Rh0  1  0.75230137  0.75230137  0.24769863  1
  Rh  Rh1  1  0.75230137  0.24769863  0.24769863  1
  Rh  Rh2  1  0.24769863  0.75230137  0.24769863  1
  Rh  Rh3  1  0.24769863  0.24769863  0.75230137  1
  Rh  Rh4  1  0.75230137  0.24769863  0.75230137  1
  Rh  Rh5  1  0.24769863  0.75230137  0.75230137  1
loop_
_geom_bond_atom_site_label_1
_geom_bond_atom_site_label_2
_geom_bond_distance
_geom_bond_site_symmetry_2
H0 Rh5 1.954138 1_555
H0 Rh4 1.954138 1_555
H0 Rh1 1.954138 1_555
H0 Rh2 1.954138 1_555
H0 Rh0 1.954138 1_555
H0 Rh3 1.954138 1_555
Rh0 Ta0 2.738418 1_555
Rh0 Ta0 2.738418 1_554
Rh0 Ti0 2.738419 1_565
Rh0 Ti0 2.738419 1_655
Rh1 Ti0 2.738418 1_655
Rh1 Ti0 2.738418 1_555
Rh1 Ta0 2.738419 1_545
Rh1 Ta0 2.738419 1_554
Rh2 Ta0 2.738418 1_455
Rh2 Ta0 2.738418 1_554
Rh2 Ti0 2.738419 1_565
Rh2 Ti0 2.738419 1_555
Rh3 Ti0 2.738418 1_555
Rh3 Ti0 2.738418 1_556
Rh3 Ta0 2.738419 1_545
Rh3 Ta0 2.738419 1_455
Rh4 Ti0 2.738418 1_655
Rh4 Ti0 2.738418 1_556
Rh4 Ta0 2.738419 1_545
Rh4 Ta0 2.738419 1_555
Rh5 Ta0 2.738418 1_455
Rh5 Ta0 2.738418 1_555
Rh5 Ti0 2.738419 1_565
Rh5 Ti0 2.738419 1_556
