# generated using pymatgen
data_K3AsS4
_symmetry_space_group_name_H-M   'P 1'
_cell_length_a   9.13702589
_cell_length_b   9.37103009
_cell_length_c   10.62384796
_cell_angle_alpha   90.00000000
_cell_angle_beta   90.00000000
_cell_angle_gamma   90.00000000
_symmetry_Int_Tables_number   1
_chemical_formula_structural   K3AsS4
_chemical_formula_sum   'K12 As4 S16'
_cell_volume   909.64939431
_cell_formula_units_Z   4
loop_
 _symmetry_equiv_pos_site_id
 _symmetry_equiv_pos_as_xyz
  1  'x, y, z'
loop_
 _atom_site_type_symbol
 _atom_site_label
 _atom_site_symmetry_multiplicity
 _atom_site_fract_x
 _atom_site_fract_y
 _atom_site_fract_z
 _atom_site_occupancy
  K  K0  1  0.94144042  0.70018540  0.00748553  1
  K  K1  1  0.05855958  0.29981460  0.50748553  1
  K  K2  1  0.55855958  0.20018540  0.50748553  1
  K  K3  1  0.44144042  0.79981460  0.00748553  1
  K  K4  1  0.94063476  0.70194689  0.41889762  1
  K  K5  1  0.05936524  0.29805311  0.91889762  1
  K  K6  1  0.55936524  0.20194689  0.91889762  1
  K  K7  1  0.44063476  0.79805311  0.41889762  1
  K  K8  1  0.63964622  0.42080922  0.21460919  1
  K  K9  1  0.36035378  0.57919078  0.71460919  1
  K  K10  1  0.86035378  0.92080922  0.71460919  1
  K  K11  1  0.13964622  0.07919078  0.21460919  1
  As  As0  1  0.72117905  0.98006587  0.21289188  1
  As  As1  1  0.27882095  0.01993413  0.71289188  1
  As  As2  1  0.77882095  0.48006587  0.71289188  1
  As  As3  1  0.22117905  0.51993413  0.21289188  1
  S  S0  1  0.68711096  0.75069039  0.21308173  1
  S  S1  1  0.31288904  0.24930961  0.71308173  1
  S  S2  1  0.81288904  0.25069039  0.71308173  1
  S  S3  1  0.18711096  0.74930961  0.21308173  1
  S  S4  1  0.84087829  0.03627735  0.04414468  1
  S  S5  1  0.15912171  0.96372265  0.54414468  1
  S  S6  1  0.65912171  0.53627735  0.54414468  1
  S  S7  1  0.34087829  0.46372265  0.04414468  1
  S  S8  1  0.50939108  0.08784360  0.21243923  1
  S  S9  1  0.49060892  0.91215640  0.71243923  1
  S  S10  1  0.99060892  0.58784360  0.71243923  1
  S  S11  1  0.00939108  0.41215640  0.21243923  1
  S  S12  1  0.84015987  0.03712276  0.38185015  1
  S  S13  1  0.15984013  0.96287724  0.88185015  1
  S  S14  1  0.65984013  0.53712276  0.88185015  1
  S  S15  1  0.34015987  0.46287724  0.38185015  1
loop_
_geom_bond_atom_site_label_1
_geom_bond_atom_site_label_2
_geom_bond_distance
_geom_bond_site_symmetry_2
K0 S3 3.165662 1_655
K0 S0 3.224119 1_555
K0 S14 3.276700 1_554
K0 S4 3.303857 1_565
K0 S10 3.336973 1_554
K0 S13 3.438540 1_654
K0 S11 3.523042 1_655
K1 S2 3.165662 1_455
K1 S1 3.224119 1_555
K1 S15 3.276700 1_555
K1 S5 3.303857 1_545
K1 S11 3.336973 1_555
K1 S12 3.438540 1_455
K1 S10 3.523042 1_455
K2 S1 3.165662 1_555
K2 S2 3.224119 1_555
K2 S12 3.276700 1_555
K2 S6 3.303857 1_555
K2 S8 3.336973 1_555
K2 S15 3.438540 1_555
K2 S9 3.523042 1_545
K3 S0 3.165662 1_555
K3 S3 3.224119 1_555
K3 S13 3.276700 1_554
K3 S7 3.303857 1_555
K3 S9 3.336973 1_554
K3 S14 3.438540 1_554
K3 S8 3.523042 1_565
K4 S3 3.170141 1_655
K4 S0 3.218017 1_555
K4 S6 3.285867 1_555
K4 S12 3.295942 1_565
K4 S10 3.328232 1_555
K4 S5 3.431261 1_655
K4 S11 3.546868 1_655
K5 S2 3.170141 1_455
K5 S1 3.218017 1_555
K5 S7 3.285867 1_556
K5 S13 3.295942 1_545
K5 S11 3.328232 1_556
K5 S4 3.431261 1_456
K5 S10 3.546868 1_455
K6 S1 3.170141 1_555
K6 S2 3.218017 1_555
K6 S4 3.285867 1_556
K6 S14 3.295942 1_555
K6 S8 3.328232 1_556
K6 S7 3.431261 1_556
K6 S9 3.546868 1_545
K7 S0 3.170141 1_555
K7 S3 3.218017 1_555
K7 S5 3.285867 1_555
K7 S15 3.295942 1_555
K7 S9 3.328232 1_555
K7 S6 3.431261 1_555
K7 S8 3.546868 1_565
K8 S0 3.121642 1_555
K8 S15 3.286364 1_555
K8 S7 3.300528 1_555
K8 S8 3.339583 1_555
K8 S11 3.379420 1_655
K8 S6 3.668658 1_555
K8 S14 3.703998 1_554
K9 S1 3.121642 1_555
K9 S14 3.286364 1_555
K9 S6 3.300528 1_555
K9 S9 3.339583 1_555
K9 S10 3.379420 1_455
K9 S7 3.668658 1_556
K9 S15 3.703998 1_555
K10 S2 3.121642 1_565
K10 S13 3.286364 1_655
K10 S5 3.300528 1_655
K10 S10 3.339583 1_555
K10 S9 3.379420 1_555
K10 S4 3.668658 1_566
K10 S12 3.703998 1_565
K11 S3 3.121642 1_545
K11 S12 3.286364 1_455
K11 S4 3.300528 1_455
K11 S11 3.339583 1_555
K11 S8 3.379420 1_555
K11 S5 3.668658 1_545
K11 S13 3.703998 1_544
As0 S4 2.165081 1_565
As0 S12 2.165575 1_565
As0 S0 2.171908 1_555
As0 S8 2.182833 1_565
As1 S5 2.165081 1_545
As1 S13 2.165575 1_545
As1 S1 2.171908 1_555
As1 S9 2.182833 1_545
As2 S6 2.165081 1_555
As2 S14 2.165575 1_555
As2 S2 2.171908 1_555
As2 S10 2.182833 1_555
As3 S7 2.165081 1_555
As3 S15 2.165575 1_555
As3 S3 2.171908 1_555
As3 S11 2.182833 1_555
