# generated using pymatgen
data_Er(Al2Fe)4
_symmetry_space_group_name_H-M   'P 1'
_cell_length_a   6.62119672
_cell_length_b   6.62119066
_cell_length_c   6.62330954
_cell_angle_alpha   98.13372371
_cell_angle_beta   98.13377480
_cell_angle_gamma   135.79156485
_symmetry_Int_Tables_number   1
_chemical_formula_structural   Er(Al2Fe)4
_chemical_formula_sum   'Er1 Al8 Fe4'
_cell_volume   187.60799257
_cell_formula_units_Z   1
loop_
 _symmetry_equiv_pos_site_id
 _symmetry_equiv_pos_as_xyz
  1  'x, y, z'
loop_
 _atom_site_type_symbol
 _atom_site_label
 _atom_site_symmetry_multiplicity
 _atom_site_fract_x
 _atom_site_fract_y
 _atom_site_fract_z
 _atom_site_occupancy
  Er  Er0  1  0.00001711  0.00000626  0.00002206  1
  Al  Al0  1  0.65898719  0.99994217  0.65899535  1
  Al  Al1  1  0.99993932  0.65898454  0.65899346  1
  Al  Al2  1  0.00005635  0.34101625  0.34100252  1
  Al  Al3  1  0.34101465  0.00005633  0.34100493  1
  Al  Al4  1  0.72122213  0.49994917  0.22121711  1
  Al  Al5  1  0.49994890  0.72122478  0.22121730  1
  Al  Al6  1  0.50004764  0.27877513  0.77877850  1
  Al  Al7  1  0.27877557  0.50004997  0.77877894  1
  Fe  Fe0  1  0.49999507  0.49999546  0.49999470  1
  Fe  Fe1  1  0.99999854  -0.00000115  0.49999479  1
  Fe  Fe2  1  0.49999844  0.00000113  0.99999998  1
  Fe  Fe3  1  0.99999909  0.50000195  0.99999937  1
loop_
_geom_bond_atom_site_label_1
_geom_bond_atom_site_label_2
_geom_bond_distance
_geom_bond_site_symmetry_2
Er0 Fe3 3.310517 1_444
Er0 Fe2 3.310520 1_554
Er0 Fe3 3.310674 1_454
Er0 Fe2 3.310677 1_454
Er0 Fe1 3.311498 1_455
Er0 Fe1 3.311811 1_454
Er0 Fe0 3.311934 1_555
Er0 Fe0 3.312255 1_444
Al0 Fe1 2.622769 1_565
Al0 Fe0 2.622788 1_555
Al0 Fe2 2.623447 1_565
Al0 Fe3 2.623980 1_565
Al0 Al7 2.699068 1_555
Al0 Al7 2.699846 1_665
Al0 Al3 2.759780 1_565
Al0 Al6 2.784337 1_565
Al0 Al5 2.785279 1_555
Al0 Er0 2.958996 1_666
Al1 Fe1 2.622768 1_565
Al1 Fe0 2.622785 1_555
Al1 Fe3 2.623433 1_555
Al1 Fe2 2.623983 1_665
Al1 Al6 2.699072 1_555
Al1 Al6 2.699853 1_665
Al1 Al2 2.759777 1_655
Al1 Al7 2.784330 1_655
Al1 Al4 2.785273 1_555
Al1 Er0 2.958910 1_666
Al2 Fe1 2.622770 1_455
Al2 Fe0 2.622781 1_555
Al2 Fe3 2.623425 1_454
Al2 Fe2 2.623965 1_454
Al2 Al5 2.699076 1_555
Al2 Al5 2.699856 1_445
Al2 Al4 2.784309 1_455
Al2 Al7 2.785279 1_555
Al2 Er0 2.958817 1_555
Al3 Fe1 2.622758 1_455
Al3 Fe0 2.622774 1_555
Al3 Fe2 2.623428 1_554
Al3 Fe3 2.623963 1_444
Al3 Al4 2.699085 1_555
Al3 Al4 2.699860 1_445
Al3 Al5 2.784304 1_545
Al3 Al6 2.785263 1_555
Al3 Er0 2.958726 1_555
Al4 Fe3 2.513647 1_554
Al4 Fe2 2.513785 1_554
Al4 Fe0 2.514104 1_555
Al4 Fe1 2.514537 1_565
Al4 Al5 2.714835 1_555
Al4 Al6 2.715379 1_554
Al4 Er0 3.145183 1_665
Al4 Er0 3.145410 1_555
Al5 Fe2 2.513649 1_564
Al5 Fe3 2.513801 1_454
Al5 Fe0 2.514111 1_555
Al5 Fe1 2.514542 1_565
Al5 Al7 2.715377 1_554
Al5 Er0 3.145248 1_665
Al5 Er0 3.145477 1_555
Al6 Fe2 2.513656 1_555
Al6 Fe3 2.513804 1_555
Al6 Fe0 2.514118 1_555
Al6 Fe1 2.514554 1_455
Al6 Al7 2.714823 1_555
Al6 Er0 3.145305 1_556
Al6 Er0 3.145543 1_666
Al7 Fe3 2.513671 1_455
Al7 Fe2 2.513812 1_565
Al7 Fe0 2.514123 1_555
Al7 Fe1 2.514561 1_455
Al7 Er0 3.145368 1_556
Al7 Er0 3.145602 1_666
Fe0 Fe1 2.491488 1_455
Fe0 Fe1 2.491522 1_565
Fe2 Fe3 2.491500 1_445
Fe2 Fe3 2.491510 1_555
