# generated using pymatgen
data_YZr2TcF15
_symmetry_space_group_name_H-M   'P 1'
_cell_length_a   8.02911118
_cell_length_b   8.02911088
_cell_length_c   8.02945647
_cell_angle_alpha   79.89246521
_cell_angle_beta   79.89246376
_cell_angle_gamma   99.81797621
_symmetry_Int_Tables_number   1
_chemical_formula_structural   YZr2TcF15
_chemical_formula_sum   'Y2 Zr4 Tc2 F30'
_cell_volume   490.74729578
_cell_formula_units_Z   2
loop_
 _symmetry_equiv_pos_site_id
 _symmetry_equiv_pos_as_xyz
  1  'x, y, z'
loop_
 _atom_site_type_symbol
 _atom_site_label
 _atom_site_symmetry_multiplicity
 _atom_site_fract_x
 _atom_site_fract_y
 _atom_site_fract_z
 _atom_site_occupancy
  Y  Y0  1  0.17827110  0.82172890  0.25000000  1
  Y  Y1  1  0.82172890  0.17827110  0.75000000  1
  Zr  Zr0  1  0.74646063  0.67856440  0.67432161  1
  Zr  Zr1  1  0.32143560  0.25353937  0.82567839  1
  Zr  Zr2  1  0.25353937  0.32143560  0.32567839  1
  Zr  Zr3  1  0.67856440  0.74646063  0.17432161  1
  Tc  Tc0  1  0.75125586  0.24874414  0.25000000  1
  Tc  Tc1  1  0.24874414  0.75125586  0.75000000  1
  F  F0  1  0.31617998  0.35262159  0.05357730  1
  F  F1  1  0.93733334  0.81179202  0.14824816  1
  F  F2  1  0.84551823  0.46229311  0.68537496  1
  F  F3  1  0.46229311  0.84551823  0.18537496  1
  F  F4  1  0.81179202  0.93733334  0.64824816  1
  F  F5  1  0.35262159  0.31617998  0.55357630  1
  F  F6  1  0.68382002  0.64737841  0.94642270  1
  F  F7  1  0.06266666  0.18820798  0.85175184  1
  F  F8  1  0.15448177  0.53770689  0.31462504  1
  F  F9  1  0.53770689  0.15448177  0.81462504  1
  F  F10  1  0.18820798  0.06266666  0.35175184  1
  F  F11  1  0.64737841  0.68382002  0.44642270  1
  F  F12  1  0.77109860  0.28128299  0.00300881  1
  F  F13  1  0.00081855  0.27153211  0.21695679  1
  F  F14  1  0.78118069  0.50044220  0.22441955  1
  F  F15  1  0.50044220  0.78118069  0.72441955  1
  F  F16  1  0.27153211  0.00081855  0.71695679  1
  F  F17  1  0.28128299  0.77109860  0.50300881  1
  F  F18  1  0.22890140  0.71871701  0.99699119  1
  F  F19  1  0.99918145  0.72846789  0.78304321  1
  F  F20  1  0.21881931  0.49955780  0.77558045  1
  F  F21  1  0.49955780  0.21881931  0.27558045  1
  F  F22  1  0.72846789  0.99918145  0.28304321  1
  F  F23  1  0.71871701  0.22890140  0.49699119  1
  F  F24  1  0.46910756  0.53089244  0.25000000  1
  F  F25  1  0.74642097  0.95361198  0.97134854  1
  F  F26  1  0.04638802  0.25357903  0.52865146  1
  F  F27  1  0.25357903  0.04638802  0.02865146  1
  F  F28  1  0.95361198  0.74642097  0.47134854  1
  F  F29  1  0.53089244  0.46910756  0.75000000  1
loop_
_geom_bond_atom_site_label_1
_geom_bond_atom_site_label_2
_geom_bond_distance
_geom_bond_site_symmetry_2
F0 Zr2 2.113872 1_555
F0 Zr1 2.116253 1_554
F1 Zr3 2.018133 1_555
F1 Y0 2.222886 1_655
F2 Zr0 2.024216 1_555
F2 Y1 2.215286 1_555
F3 Zr3 2.024216 1_555
F3 Y0 2.215286 1_555
F4 Zr0 2.018133 1_555
F4 Y1 2.222885 1_565
F5 Zr1 2.113880 1_555
F5 Zr2 2.116246 1_555
F6 Zr0 2.113872 1_555
F6 Zr3 2.116253 1_556
F7 Zr1 2.018133 1_555
F7 Y1 2.222886 1_455
F8 Zr2 2.024216 1_555
F8 Y0 2.215286 1_555
F9 Zr1 2.024216 1_555
F9 Y1 2.215286 1_555
F10 Zr2 2.018133 1_555
F10 Y0 2.222885 1_545
F11 Zr3 2.113872 1_555
F11 Zr0 2.116253 1_555
F12 Tc0 1.928675 1_555
F12 Y1 2.321849 1_554
F13 Tc0 1.946864 1_455
F13 Zr2 2.346745 1_555
F14 Tc0 1.963515 1_555
F14 Zr3 2.266047 1_555
F15 Tc1 1.963515 1_555
F15 Zr0 2.266047 1_555
F16 Tc1 1.946864 1_545
F16 Zr1 2.346745 1_555
F17 Tc1 1.928675 1_555
F17 Y0 2.321850 1_555
F18 Tc1 1.928675 1_555
F18 Y0 2.321849 1_556
F19 Tc1 1.946864 1_655
F19 Zr0 2.346745 1_555
F20 Tc1 1.963515 1_555
F20 Zr1 2.266047 1_555
F21 Tc0 1.963515 1_555
F21 Zr2 2.266047 1_555
F22 Tc0 1.946864 1_565
F22 Zr3 2.346745 1_555
F23 Tc0 1.928675 1_555
F23 Y1 2.321850 1_555
F24 Zr3 2.114885 1_555
F24 Zr2 2.114885 1_555
F25 Zr3 2.036469 1_556
F25 Y1 2.214442 1_565
F26 Zr2 2.036469 1_555
F26 Y1 2.214443 1_455
F27 Zr1 2.036469 1_554
F27 Y0 2.214442 1_545
F28 Zr0 2.036469 1_555
F28 Y0 2.214443 1_655
F29 Zr1 2.114885 1_555
F29 Zr0 2.114885 1_555
