# generated using pymatgen
data_KTiCuP2
_symmetry_space_group_name_H-M   'P 1'
_cell_length_a   7.37737141
_cell_length_b   7.37737095
_cell_length_c   7.37737216
_cell_angle_alpha   148.85240424
_cell_angle_beta   148.85240230
_cell_angle_gamma   44.62861152
_symmetry_Int_Tables_number   1
_chemical_formula_structural   KTiCuP2
_chemical_formula_sum   'K1 Ti1 Cu1 P2'
_cell_volume   107.09824982
_cell_formula_units_Z   1
loop_
 _symmetry_equiv_pos_site_id
 _symmetry_equiv_pos_as_xyz
  1  'x, y, z'
loop_
 _atom_site_type_symbol
 _atom_site_label
 _atom_site_symmetry_multiplicity
 _atom_site_fract_x
 _atom_site_fract_y
 _atom_site_fract_z
 _atom_site_occupancy
  K  K0  1  0.00000000  0.00000000  0.00000000  1
  Ti  Ti0  1  0.75000000  0.25000000  0.50000000  1
  Cu  Cu0  1  0.25000000  0.75000000  0.50000000  1
  P  P0  1  0.34697337  0.34697337  1.00000000  1
  P  P1  1  0.65302663  0.65302663  0.00000000  1
loop_
_geom_bond_atom_site_label_1
_geom_bond_atom_site_label_2
_geom_bond_distance
_geom_bond_site_symmetry_2
K0 P1 3.494160 1_556
K0 P0 3.494160 1_443
K0 P1 3.494160 1_455
K0 P0 3.494160 1_544
K0 P1 3.494161 1_545
K0 P0 3.494161 1_454
K0 P1 3.494161 1_444
K0 P0 3.494161 1_555
Cu0 P0 2.382260 1_565
Cu0 P1 2.382260 1_455
Cu0 P0 2.382261 1_554
Cu0 P1 2.382261 1_556
P0 Ti0 2.382260 1_455
P0 Ti0 2.382261 1_556
P1 Ti0 2.382260 1_565
P1 Ti0 2.382261 1_554
