# generated using pymatgen
data_BaCo2(Sb6Ru)2
_symmetry_space_group_name_H-M   'P 1'
_cell_length_a   8.05831347
_cell_length_b   8.01020687
_cell_length_c   8.01020737
_cell_angle_alpha   109.16727066
_cell_angle_beta   109.48233294
_cell_angle_gamma   109.52067064
_symmetry_Int_Tables_number   1
_chemical_formula_structural   BaCo2(Sb6Ru)2
_chemical_formula_sum   'Ba1 Co2 Sb12 Ru2'
_cell_volume   399.21210898
_cell_formula_units_Z   1
loop_
 _symmetry_equiv_pos_site_id
 _symmetry_equiv_pos_as_xyz
  1  'x, y, z'
loop_
 _atom_site_type_symbol
 _atom_site_label
 _atom_site_symmetry_multiplicity
 _atom_site_fract_x
 _atom_site_fract_y
 _atom_site_fract_z
 _atom_site_occupancy
  Ba  Ba0  1  0.00000000  0.00000000  0.00000000  1
  Co  Co0  1  0.50000000  0.50000000  0.50000000  1
  Co  Co1  1  0.50000000  0.00000000  0.00000000  1
  Sb  Sb0  1  0.16456355  0.81921265  0.66322566  1
  Sb  Sb1  1  0.16456355  0.50133790  0.34535090  1
  Sb  Sb2  1  0.49952406  0.66076327  0.83876079  1
  Sb  Sb3  1  0.34445000  0.84337973  0.18068966  1
  Sb  Sb4  1  0.81570971  0.65696018  0.15874953  1
  Sb  Sb5  1  0.65555000  0.83624066  0.49893073  1
  Sb  Sb6  1  0.18429029  0.34303982  0.84125047  1
  Sb  Sb7  1  0.65555000  0.15662027  0.81931034  1
  Sb  Sb8  1  0.34445000  0.16375934  0.50106927  1
  Sb  Sb9  1  0.50047594  0.33923673  0.16123921  1
  Sb  Sb10  1  0.83543645  0.49866210  0.65464910  1
  Sb  Sb11  1  0.83543645  0.18078735  0.33677434  1
  Ru  Ru0  1  0.00000000  0.00000000  0.50000000  1
  Ru  Ru1  1  0.00000000  0.50000000  0.00000000  1
loop_
_geom_bond_atom_site_label_1
_geom_bond_atom_site_label_2
_geom_bond_distance
_geom_bond_site_symmetry_2
Ba0 Sb6 3.492844 1_554
Ba0 Sb4 3.492844 1_445
Ba0 Sb8 3.494706 1_555
Ba0 Sb5 3.494706 1_444
Ba0 Sb3 3.494709 1_545
Ba0 Sb7 3.494709 1_454
Ba0 Sb9 3.494883 1_555
Ba0 Sb2 3.494883 1_444
Ba0 Sb1 3.498174 1_555
Ba0 Sb10 3.498174 1_444
Ba0 Sb11 3.498174 1_455
Ba0 Sb0 3.498174 1_544
Co0 Sb5 2.567402 1_555
Co0 Sb8 2.567402 1_555
Co0 Sb10 2.575986 1_555
Co0 Sb1 2.575986 1_555
Co0 Sb2 2.595628 1_555
Co0 Sb9 2.595628 1_555
Co1 Sb7 2.567400 1_554
Co1 Sb3 2.567400 1_545
Co1 Sb11 2.575986 1_555
Co1 Sb0 2.575986 1_544
Co1 Sb9 2.595628 1_555
Co1 Sb2 2.595628 1_544
Sb0 Sb1 2.951166 1_555
Sb0 Sb10 2.973791 1_455
Sb1 Sb11 2.973791 1_455
Sb2 Sb6 2.945683 1_555
Sb2 Sb4 2.968100 1_556
Sb3 Sb5 2.952134 1_555
Sb3 Sb8 2.974422 1_565
Sb4 Sb9 2.945683 1_555
Sb5 Sb7 2.974422 1_565
Sb6 Sb9 2.968100 1_556
Sb7 Sb8 2.952134 1_555
Sb10 Sb11 2.951166 1_555
Ru0 Sb6 2.619315 1_555
Ru0 Sb4 2.619315 1_445
Ru0 Sb0 2.633501 1_545
Ru0 Sb11 2.633501 1_455
Ru0 Sb8 2.639828 1_555
Ru0 Sb5 2.639828 1_445
Ru1 Sb4 2.619315 1_455
Ru1 Sb6 2.619315 1_554
Ru1 Sb1 2.633501 1_555
Ru1 Sb10 2.633501 1_454
Ru1 Sb3 2.639825 1_555
Ru1 Sb7 2.639825 1_454
