# generated using pymatgen
data_Ni(IrCl4)3
_symmetry_space_group_name_H-M   'P 1'
_cell_length_a   11.56764267
_cell_length_b   11.03881305
_cell_length_c   6.10273721
_cell_angle_alpha   79.18189639
_cell_angle_beta   69.60694103
_cell_angle_gamma   30.99141524
_symmetry_Int_Tables_number   1
_chemical_formula_structural   Ni(IrCl4)3
_chemical_formula_sum   'Ni1 Ir3 Cl12'
_cell_volume   366.02202333
_cell_formula_units_Z   1
loop_
 _symmetry_equiv_pos_site_id
 _symmetry_equiv_pos_as_xyz
  1  'x, y, z'
loop_
 _atom_site_type_symbol
 _atom_site_label
 _atom_site_symmetry_multiplicity
 _atom_site_fract_x
 _atom_site_fract_y
 _atom_site_fract_z
 _atom_site_occupancy
  Ni  Ni0  1  0.41676093  0.41676093  0.58323907  1
  Ir  Ir0  1  0.83417509  0.83417509  0.66582491  1
  Ir  Ir1  1  0.66644255  0.66644255  0.83355745  1
  Ir  Ir2  1  0.58271562  0.58271562  0.41728438  1
  Cl  Cl0  1  0.72459129  0.27851101  0.27204541  1
  Cl  Cl1  1  0.88736141  0.43671774  0.08812435  1
  Cl  Cl2  1  0.36138273  0.81322700  0.16180363  1
  Cl  Cl3  1  0.43671774  0.88736141  0.58779550  1
  Cl  Cl4  1  0.15883069  0.66368451  0.36235254  1
  Cl  Cl5  1  0.27851101  0.72459129  0.72485130  1
  Cl  Cl6  1  0.52521062  0.97491232  0.97190016  1
  Cl  Cl7  1  0.97491232  0.52521062  0.52797690  1
  Cl  Cl8  1  0.08033562  0.59513885  0.89117444  1
  Cl  Cl9  1  0.81322700  0.36138273  0.66358664  1
  Cl  Cl10  1  0.66368451  0.15883069  0.81513325  1
  Cl  Cl11  1  0.59513885  0.08033562  0.43335009  1
loop_
_geom_bond_atom_site_label_1
_geom_bond_atom_site_label_2
_geom_bond_distance
_geom_bond_site_symmetry_2
Cl0 Ir2 2.326018 1_555
Cl0 Ni0 2.381914 1_555
Cl1 Ir1 2.356298 1_554
Cl1 Ir2 2.365541 1_555
Cl2 Ir1 2.362128 1_554
Cl2 Ir2 2.363033 1_555
Cl3 Ir1 2.356303 1_555
Cl3 Ir2 2.365538 1_555
Cl4 Ir0 2.327885 1_455
Cl4 Ni0 2.372619 1_555
Cl5 Ir2 2.326015 1_555
Cl5 Ni0 2.381912 1_555
Cl6 Ir1 2.357317 1_555
Cl6 Ir0 2.365002 1_555
Cl7 Ir1 2.357317 1_555
Cl7 Ir0 2.365002 1_555
Cl8 Ir0 2.333896 1_455
Cl8 Ni0 2.389132 1_555
Cl9 Ir1 2.362128 1_555
Cl9 Ir2 2.363033 1_555
Cl10 Ir0 2.327887 1_545
Cl10 Ni0 2.372624 1_555
Cl11 Ir0 2.333901 1_545
Cl11 Ni0 2.389135 1_555
