# generated using pymatgen
data_Rb3ScS3
_symmetry_space_group_name_H-M   'P 1'
_cell_length_a   8.19384938
_cell_length_b   8.19384977
_cell_length_c   7.97457521
_cell_angle_alpha   83.79059058
_cell_angle_beta   83.79059016
_cell_angle_gamma   113.50770250
_symmetry_Int_Tables_number   1
_chemical_formula_structural   Rb3ScS3
_chemical_formula_sum   'Rb6 Sc2 S6'
_cell_volume   481.32097590
_cell_formula_units_Z   2
loop_
 _symmetry_equiv_pos_site_id
 _symmetry_equiv_pos_as_xyz
  1  'x, y, z'
loop_
 _atom_site_type_symbol
 _atom_site_label
 _atom_site_symmetry_multiplicity
 _atom_site_fract_x
 _atom_site_fract_y
 _atom_site_fract_z
 _atom_site_occupancy
  Rb  Rb0  1  0.24858785  0.75141215  1.00000000  1
  Rb  Rb1  1  0.31876896  0.68123104  0.50000000  1
  Rb  Rb2  1  0.11605967  0.11605967  0.64138328  1
  Rb  Rb3  1  0.68123104  0.31876896  0.50000000  1
  Rb  Rb4  1  0.75141215  0.24858785  0.00000000  1
  Rb  Rb5  1  0.88394033  0.88394033  0.35861672  1
  Sc  Sc0  1  0.67139678  0.67139678  0.85666456  1
  Sc  Sc1  1  0.32860322  0.32860322  0.14333544  1
  S  S0  1  0.05712710  0.34371583  0.27130431  1
  S  S1  1  0.59791625  0.59791625  0.17657114  1
  S  S2  1  0.40208375  0.40208375  0.82342886  1
  S  S3  1  0.94287290  0.65628417  0.72869569  1
  S  S4  1  0.65628417  0.94287290  0.72869569  1
  S  S5  1  0.34371583  0.05712710  0.27130431  1
loop_
_geom_bond_atom_site_label_1
_geom_bond_atom_site_label_2
_geom_bond_distance
_geom_bond_site_symmetry_2
Rb0 S3 3.397495 1_455
Rb0 S5 3.397495 1_566
Rb0 S4 3.438480 1_555
Rb0 S0 3.438480 1_556
Rb1 S3 3.325120 1_455
Rb1 S5 3.325121 1_565
Rb1 S1 3.563762 1_555
Rb1 S2 3.563762 1_555
Rb1 S4 3.574568 1_555
Rb1 S0 3.574568 1_555
Rb2 S2 3.191100 1_555
Rb2 S4 3.412526 1_445
Rb2 S3 3.412526 1_445
Rb2 S5 3.501214 1_555
Rb2 S0 3.501214 1_555
Rb3 S0 3.325120 1_655
Rb3 S4 3.325121 1_545
Rb3 S2 3.563762 1_555
Rb3 S1 3.563762 1_555
Rb3 S5 3.574568 1_555
Rb3 S3 3.574568 1_555
Rb4 S0 3.397495 1_655
Rb4 S4 3.397495 1_544
Rb4 S5 3.438480 1_555
Rb4 S3 3.438480 1_554
Rb5 S1 3.191100 1_555
Rb5 S5 3.412526 1_665
Rb5 S0 3.412526 1_665
Rb5 S4 3.501214 1_555
Rb5 S3 3.501214 1_555
S0 Sc1 2.400181 1_555
S1 Sc1 2.485510 1_555
S1 Sc0 2.505891 1_554
S2 Sc0 2.485510 1_555
S2 Sc1 2.505891 1_556
S3 Sc0 2.400181 1_555
S4 Sc0 2.400181 1_555
S5 Sc1 2.400181 1_555
