# generated using pymatgen
data_Ti8Al15Ir3Os4
_symmetry_space_group_name_H-M   'P 1'
_cell_length_a   8.60670708
_cell_length_b   8.60385403
_cell_length_c   8.62586766
_cell_angle_alpha   119.96122869
_cell_angle_beta   119.77412483
_cell_angle_gamma   90.12965495
_symmetry_Int_Tables_number   1
_chemical_formula_structural   Ti8Al15Ir3Os4
_chemical_formula_sum   'Ti8 Al15 Ir3 Os4'
_cell_volume   452.95845238
_cell_formula_units_Z   1
loop_
 _symmetry_equiv_pos_site_id
 _symmetry_equiv_pos_as_xyz
  1  'x, y, z'
loop_
 _atom_site_type_symbol
 _atom_site_label
 _atom_site_symmetry_multiplicity
 _atom_site_fract_x
 _atom_site_fract_y
 _atom_site_fract_z
 _atom_site_occupancy
  Ti  Ti0  1  0.78260630  0.28438723  0.06820226  1
  Ti  Ti1  1  0.22477173  0.29322071  0.50472815  1
  Ti  Ti2  1  0.21492014  0.71516251  0.50767528  1
  Ti  Ti3  1  0.22474793  0.72305354  0.93085656  1
  Ti  Ti4  1  0.79059113  0.72261254  0.50056364  1
  Ti  Ti5  1  0.77192853  0.27220698  0.48917221  1
  Ti  Ti6  1  0.37721718  0.12264582  0.74406838  1
  Ti  Ti7  1  0.38089569  0.63434516  0.25738338  1
  Al  Al0  1  0.99520448  0.49502831  0.49951511  1
  Al  Al1  1  0.15180728  0.34430166  0.18996359  1
  Al  Al2  1  0.15572750  0.96941579  0.81377591  1
  Al  Al3  1  0.14932952  0.34622932  0.80366456  1
  Al  Al4  1  0.53717222  0.34684521  0.19325052  1
  Al  Al5  1  0.84716789  0.64936925  0.80243580  1
  Al  Al6  1  0.84881438  0.03868494  0.19455619  1
  Al  Al7  1  0.84284722  0.65395202  0.18570272  1
  Al  Al8  1  0.47433651  0.65807171  0.81651912  1
  Al  Al9  1  0.37644045  0.12083203  0.25684016  1
  Al  Al10  1  0.86305745  0.12272615  0.74297814  1
  Al  Al11  1  0.62090607  0.87473807  0.25444339  1
  Al  Al12  1  0.62252296  0.36566347  0.74552145  1
  Al  Al13  1  0.62115053  0.87701873  0.74293030  1
  Al  Al14  1  0.13455592  0.87850758  0.25702319  1
  Ir  Ir0  1  0.00108225  0.49965513  0.00143090  1
  Ir  Ir1  1  0.99800256  0.99826328  0.99793006  1
  Ir  Ir2  1  0.49938893  0.99931632  0.49951179  1
  Os  Os0  1  0.99957860  0.99762395  0.50130922  1
  Os  Os1  1  0.49945093  0.00087093  0.00121095  1
  Os  Os2  1  0.49714358  0.49726961  0.99886115  1
  Os  Os3  1  0.49662814  0.49797508  0.49797290  1
loop_
_geom_bond_atom_site_label_1
_geom_bond_atom_site_label_2
_geom_bond_distance
_geom_bond_site_symmetry_2
Ti0 Ti6 2.886283 1_554
Ti1 Ti6 2.912453 1_555
Ti2 Ti6 2.899841 1_565
Ti2 Ti7 2.958613 1_555
Ti3 Ti7 2.951983 1_556
Ti4 Ti7 2.908807 1_555
Al0 Ti2 2.624237 1_655
Al0 Ti1 2.631724 1_655
Al0 Ti4 2.636146 1_555
Al0 Ti0 2.638848 1_555
Al0 Ti3 2.643226 1_655
Al0 Ti5 2.649217 1_555
Al1 Ir0 2.489568 1_555
Al1 Ir1 2.497750 1_444
Al1 Os3 2.501436 1_555
Al1 Ti1 2.731137 1_555
Al1 Ti0 2.757393 1_455
Al1 Ti2 2.786820 1_555
Al1 Al9 2.790055 1_555
Al1 Al10 2.792268 1_454
Al1 Ti7 2.800470 1_555
Al2 Ir1 2.485364 1_455
Al2 Os0 2.487368 1_455
Al2 Os1 2.499597 1_566
Al2 Ti3 2.722840 1_555
Al2 Ti4 2.737066 1_455
Al2 Ti2 2.754698 1_555
Al2 Ti6 2.766302 1_565
Al2 Al9 2.778014 1_566
Al3 Ir0 2.490126 1_556
Al3 Os2 2.505197 1_555
Al3 Os0 2.507987 1_445
Al3 Ti1 2.787158 1_555
Al3 Ti5 2.798042 1_455
Al3 Ti6 2.800441 1_555
Al3 Ti3 2.804782 1_555
Al3 Ti7 2.823964 1_556
Al4 Os2 2.490218 1_554
Al4 Os3 2.494134 1_555
Al4 Os1 2.499315 1_555
Al4 Ti5 2.744335 1_555
Al4 Ti0 2.757448 1_555
Al4 Ti7 2.760635 1_555
Al4 Al9 2.793353 1_555
Al4 Ti6 2.802457 1_554
Al4 Ti4 2.811115 1_555
Al5 Ir1 2.508393 1_555
Al5 Ir0 2.513632 1_656
Al5 Os3 2.528293 1_555
Al5 Ti5 2.783098 1_555
Al5 Ti4 2.792074 1_555
Al5 Ti3 2.811348 1_655
Al6 Ir1 2.494406 1_544
Al6 Os0 2.517087 1_545
Al6 Os1 2.530156 1_555
Al6 Ti5 2.740297 1_555
Al6 Ti0 2.769756 1_555
Al6 Ti1 2.818131 1_655
Al7 Ir0 2.488788 1_655
Al7 Os0 2.503720 1_555
Al7 Os2 2.513328 1_554
Al7 Ti4 2.745804 1_555
Al7 Ti0 2.767332 1_555
Al7 Ti2 2.818514 1_655
Al8 Os3 2.495711 1_555
Al8 Os1 2.499112 1_566
Al8 Os2 2.508916 1_555
Al8 Ti3 2.731042 1_555
Al8 Ti1 2.738696 1_555
Al8 Ti2 2.779939 1_555
Al9 Ir2 2.566238 1_545
Al9 Os3 2.651825 1_555
Al9 Os1 2.664315 1_555
Al9 Ir1 2.667613 1_444
Al9 Ti5 2.810110 1_555
Al9 Ti3 2.836511 1_544
Al9 Ti1 2.844140 1_555
Al10 Ir2 2.562030 1_545
Al10 Ir0 2.651313 1_656
Al10 Os0 2.661198 1_545
Al10 Ir1 2.674549 1_545
Al10 Al3 2.781128 1_655
Al10 Al2 2.783830 1_645
Al10 Ti4 2.849105 1_545
Al10 Ti5 2.858991 1_555
Al10 Ti0 2.884469 1_556
Al10 Al12 2.945176 1_555
Al10 Al13 2.963494 1_545
Al10 Al11 2.988434 1_545
Al11 Ir2 2.578577 1_555
Al11 Os2 2.653859 1_554
Al11 Os0 2.667809 1_555
Al11 Os1 2.673375 1_565
Al11 Al8 2.749347 1_554
Al11 Al7 2.761372 1_555
Al11 Al6 2.797477 1_565
Al11 Ti5 2.816726 1_565
Al11 Ti3 2.830029 1_554
Al11 Ti4 2.838650 1_555
Al11 Ti7 2.937810 1_555
Al11 Al9 2.988355 1_565
Al12 Ir2 2.575230 1_545
Al12 Os2 2.664218 1_555
Al12 Ir0 2.667494 1_656
Al12 Os3 2.676800 1_555
Al12 Al8 2.753626 1_555
Al12 Al7 2.754270 1_556
Al12 Al5 2.788644 1_555
Al12 Ti1 2.838529 1_555
Al12 Ti5 2.870947 1_555
Al12 Ti0 2.876524 1_556
Al12 Ti6 2.959226 1_555
Al12 Al9 2.989270 1_555
Al13 Ir2 2.576925 1_555
Al13 Ir1 2.655886 1_555
Al13 Os3 2.664812 1_555
Al13 Os1 2.673489 1_566
Al13 Al8 2.743798 1_555
Al13 Al5 2.813121 1_555
Al13 Al6 2.818608 1_566
Al13 Ti0 2.893286 1_566
Al13 Ti2 2.896598 1_555
Al13 Ti4 2.919747 1_555
Al13 Ti7 2.970088 1_555
Al13 Ti6 2.982260 1_565
Al14 Ir2 2.570181 1_555
Al14 Ir0 2.663642 1_555
Al14 Os0 2.668270 1_455
Al14 Ir1 2.671062 1_454
Al14 Al7 2.769744 1_455
Al14 Al6 2.771049 1_465
Al14 Al5 2.829202 1_454
Al14 Ti1 2.936765 1_565
Al14 Al9 2.944118 1_565
Al14 Ti2 2.946590 1_555
Al14 Ti3 2.953342 1_554
Al14 Ti6 2.979195 1_565
Al14 Ti7 2.988040 1_555
Ir0 Ti7 2.676343 1_555
Ir0 Ti2 3.132003 1_555
Ir0 Ti3 3.175940 1_554
Ir1 Ti4 3.070670 1_555
Ir1 Ti3 3.086085 1_655
Ir1 Ti1 3.127765 1_666
Ir2 Ti7 2.565561 1_555
Ir2 Ti6 2.579510 1_565
Os0 Ti6 2.660974 1_665
Os0 Ti4 2.964472 1_555
Os0 Ti2 3.065418 1_655
Os0 Ti1 3.173581 1_665
Os1 Ti6 2.670780 1_554
Os1 Ti3 2.961791 1_544
Os1 Ti5 3.003866 1_555
Os1 Ti2 3.054387 1_544
Os1 Ti0 3.064299 1_555
Os2 Ti6 2.634589 1_555
Os2 Ti7 2.638004 1_556
Os2 Ti1 3.054275 1_555
Os2 Ti3 3.067110 1_555
Os2 Ti4 3.099687 1_556
Os3 Ti7 2.657073 1_555
Os3 Ti1 2.966613 1_555
Os3 Ti2 3.072989 1_555
Os3 Ti4 3.164768 1_555
