# generated using pymatgen
data_Sc6Ta4Al12Ru7
_symmetry_space_group_name_H-M   'P 1'
_cell_length_a   8.82365900
_cell_length_b   8.82365941
_cell_length_c   8.82365953
_cell_angle_alpha   60.00000322
_cell_angle_beta   60.00000168
_cell_angle_gamma   60.00000054
_symmetry_Int_Tables_number   1
_chemical_formula_structural   Sc6Ta4Al12Ru7
_chemical_formula_sum   'Sc6 Ta4 Al12 Ru7'
_cell_volume   485.77058581
_cell_formula_units_Z   1
loop_
 _symmetry_equiv_pos_site_id
 _symmetry_equiv_pos_as_xyz
  1  'x, y, z'
loop_
 _atom_site_type_symbol
 _atom_site_label
 _atom_site_symmetry_multiplicity
 _atom_site_fract_x
 _atom_site_fract_y
 _atom_site_fract_z
 _atom_site_occupancy
  Sc  Sc0  1  0.70917834  0.70917834  0.29082166  1
  Sc  Sc1  1  0.29082166  0.70917834  0.29082166  1
  Sc  Sc2  1  0.70917834  0.29082166  0.29082166  1
  Sc  Sc3  1  0.29082166  0.29082166  0.70917834  1
  Sc  Sc4  1  0.70917834  0.29082166  0.70917834  1
  Sc  Sc5  1  0.29082166  0.70917834  0.70917834  1
  Ta  Ta0  1  0.87960653  0.87960653  0.36117742  1
  Ta  Ta1  1  0.87960653  0.36117742  0.87960653  1
  Ta  Ta2  1  0.36117742  0.87960653  0.87960653  1
  Ta  Ta3  1  0.87960653  0.87960653  0.87960653  1
  Al  Al0  1  0.12131533  0.12131533  0.63605402  1
  Al  Al1  1  0.12131533  0.63605402  0.12131533  1
  Al  Al2  1  0.63605402  0.12131533  0.12131533  1
  Al  Al3  1  0.12131533  0.12131533  0.12131533  1
  Al  Al4  1  0.66398996  0.66398996  0.00803213  1
  Al  Al5  1  0.66398996  0.00803213  0.66398996  1
  Al  Al6  1  0.00803213  0.66398996  0.66398996  1
  Al  Al7  1  0.66398996  0.66398996  0.66398996  1
  Al  Al8  1  0.33350149  0.33350149  0.99949652  1
  Al  Al9  1  0.33350149  0.99949652  0.33350149  1
  Al  Al10  1  0.99949652  0.33350149  0.33350149  1
  Al  Al11  1  0.33350149  0.33350149  0.33350149  1
  Ru  Ru0  1  0.00000000  0.00000000  0.00000000  1
  Ru  Ru1  1  0.99579201  0.99579201  0.50420799  1
  Ru  Ru2  1  0.50420799  0.99579201  0.50420799  1
  Ru  Ru3  1  0.99579201  0.50420799  0.50420799  1
  Ru  Ru4  1  0.50420799  0.50420799  0.99579201  1
  Ru  Ru5  1  0.99579201  0.50420799  0.99579201  1
  Ru  Ru6  1  0.50420799  0.99579201  0.99579201  1
loop_
_geom_bond_atom_site_label_1
_geom_bond_atom_site_label_2
_geom_bond_distance
_geom_bond_site_symmetry_2
Sc0 Ta0 3.006116 1_555
Sc0 Ta3 3.006135 1_554
Sc1 Ta0 3.006139 1_455
Sc1 Ta2 3.006139 1_554
Sc2 Ta0 3.006139 1_545
Sc2 Ta1 3.006139 1_554
Sc3 Ta1 3.006139 1_455
Sc3 Ta2 3.006139 1_545
Sc4 Ta1 3.006116 1_555
Sc4 Ta3 3.006135 1_545
Sc5 Ta2 3.006116 1_555
Sc5 Ta3 3.006135 1_455
Al0 Ru0 2.622044 1_556
Al0 Ru2 2.758733 1_545
Al0 Ru1 2.758733 1_445
Al0 Ru3 2.758734 1_455
Al0 Al9 2.765224 1_545
Al0 Al10 2.765224 1_455
Al0 Al11 2.765229 1_555
Al0 Sc4 3.009559 1_455
Al0 Sc3 3.009559 1_555
Al0 Sc5 3.009559 1_545
Al0 Ta1 3.016198 1_455
Al0 Ta2 3.016198 1_545
Al0 Ta3 3.016217 1_445
Al1 Ru0 2.622044 1_565
Al1 Ru4 2.758733 1_554
Al1 Ru5 2.758733 1_454
Al1 Ru3 2.758734 1_455
Al1 Al8 2.765224 1_554
Al1 Al10 2.765224 1_455
Al1 Al11 2.765229 1_555
Al1 Sc0 3.009559 1_455
Al1 Sc1 3.009559 1_555
Al1 Sc5 3.009559 1_554
Al1 Ta0 3.016198 1_455
Al1 Ta2 3.016198 1_554
Al1 Ta3 3.016217 1_454
Al2 Ru0 2.622044 1_655
Al2 Ru6 2.758733 1_544
Al2 Ru4 2.758734 1_554
Al2 Ru2 2.758734 1_545
Al2 Al8 2.765224 1_554
Al2 Al9 2.765224 1_545
Al2 Sc2 3.009559 1_555
Al2 Sc0 3.009559 1_545
Al2 Sc4 3.009559 1_554
Al2 Ta0 3.016198 1_545
Al2 Ta1 3.016198 1_554
Al2 Ta3 3.016217 1_544
Al3 Ru0 2.622044 1_555
Al3 Ru6 2.758733 1_544
Al3 Ru5 2.758734 1_454
Al3 Ru1 2.758734 1_445
Al3 Al9 2.765231 1_545
Al3 Al8 2.765231 1_554
Al3 Sc2 3.009559 1_455
Al3 Sc1 3.009559 1_545
Al3 Sc3 3.009559 1_554
Al3 Ta1 3.016217 1_454
Al3 Ta2 3.016217 1_544
Al3 Ta0 3.016217 1_445
Al4 Ru5 2.505844 1_554
Al4 Ru6 2.505844 1_554
Al4 Ru4 2.505859 1_554
Al4 Sc0 2.948390 1_555
Al4 Sc1 2.948401 1_555
Al4 Sc2 2.948401 1_555
Al5 Ru1 2.505844 1_545
Al5 Ru6 2.505844 1_545
Al5 Ru2 2.505859 1_545
Al5 Sc4 2.948390 1_555
Al5 Sc3 2.948401 1_555
Al5 Sc2 2.948401 1_555
Al6 Ru1 2.505844 1_455
Al6 Ru5 2.505844 1_455
Al6 Ru3 2.505859 1_455
Al6 Sc5 2.948390 1_555
Al6 Sc3 2.948401 1_555
Al6 Sc1 2.948401 1_555
Al7 Ru3 2.505849 1_555
Al7 Ru2 2.505849 1_555
Al7 Ru4 2.505849 1_555
Al7 Sc5 2.948407 1_555
Al7 Sc4 2.948407 1_555
Al7 Sc0 2.948407 1_555
Al8 Ru4 2.590177 1_555
Al8 Ru5 2.590185 1_455
Al8 Ru6 2.590185 1_545
Al8 Sc4 2.986133 1_555
Al8 Sc5 2.986133 1_555
Al8 Sc3 2.986138 1_555
Al9 Ru2 2.590177 1_555
Al9 Ru1 2.590185 1_455
Al9 Ru6 2.590185 1_554
Al9 Sc0 2.986133 1_555
Al9 Sc5 2.986133 1_555
Al9 Sc1 2.986138 1_555
Al10 Ru3 2.590177 1_555
Al10 Ru1 2.590185 1_545
Al10 Ru5 2.590185 1_554
Al10 Al3 2.765231 1_655
Al10 Sc0 2.986133 1_555
Al10 Sc4 2.986133 1_555
Al10 Sc2 2.986138 1_555
Al11 Ru3 2.590182 1_455
Al11 Ru2 2.590182 1_545
Al11 Ru4 2.590183 1_554
Al11 Al2 2.765229 1_555
Al11 Sc2 2.986129 1_555
Al11 Sc1 2.986130 1_555
Al11 Sc3 2.986130 1_555
Ru0 Ta2 2.602098 1_544
Ru0 Ta1 2.602098 1_454
Ru0 Ta0 2.602098 1_445
Ru0 Ta3 2.602120 1_444
Ru1 Ta3 2.708009 1_555
Ru1 Ta0 2.708031 1_555
Ru1 Sc5 3.161386 1_655
Ru1 Sc1 3.161386 1_655
Ru1 Sc4 3.161386 1_565
Ru1 Sc2 3.161386 1_565
Ru2 Ta0 2.708010 1_555
Ru2 Ta2 2.708010 1_555
Ru2 Sc3 3.161386 1_565
Ru2 Sc0 3.161386 1_555
Ru2 Sc5 3.161386 1_555
Ru2 Sc2 3.161386 1_565
Ru3 Ta0 2.708010 1_555
Ru3 Ta1 2.708010 1_555
Ru3 Sc3 3.161386 1_655
Ru3 Sc0 3.161386 1_555
Ru3 Sc4 3.161386 1_555
Ru3 Sc1 3.161386 1_655
Ru4 Ta1 2.708010 1_555
Ru4 Ta2 2.708010 1_555
Ru4 Sc5 3.161386 1_555
Ru4 Sc4 3.161386 1_555
Ru4 Sc1 3.161386 1_556
Ru4 Sc2 3.161386 1_556
Ru5 Ta3 2.708009 1_555
Ru5 Ta1 2.708031 1_555
Ru5 Sc3 3.161386 1_655
Ru5 Sc0 3.161386 1_556
Ru5 Sc5 3.161386 1_655
Ru5 Sc2 3.161386 1_556
Ru6 Ta3 2.708009 1_555
Ru6 Ta2 2.708031 1_555
Ru6 Sc3 3.161386 1_565
Ru6 Sc0 3.161386 1_556
Ru6 Sc4 3.161386 1_565
Ru6 Sc1 3.161386 1_556
