# generated using pymatgen
data_In9Hg3Ir3Ru
_symmetry_space_group_name_H-M   'P 1'
_cell_length_a   7.14180967
_cell_length_b   7.12236363
_cell_length_c   7.11084887
_cell_angle_alpha   90.00000000
_cell_angle_beta   90.00000000
_cell_angle_gamma   90.82749321
_symmetry_Int_Tables_number   1
_chemical_formula_structural   In9Hg3Ir3Ru
_chemical_formula_sum   'In9 Hg3 Ir3 Ru1'
_cell_volume   361.66673669
_cell_formula_units_Z   1
loop_
 _symmetry_equiv_pos_site_id
 _symmetry_equiv_pos_as_xyz
  1  'x, y, z'
loop_
 _atom_site_type_symbol
 _atom_site_label
 _atom_site_symmetry_multiplicity
 _atom_site_fract_x
 _atom_site_fract_y
 _atom_site_fract_z
 _atom_site_occupancy
  In  In0  1  0.33882611  0.34566882  0.26546018  1
  In  In1  1  0.15559636  0.84243621  0.76587183  1
  In  In2  1  0.15559636  0.84243621  0.23412817  1
  In  In3  1  0.84154909  0.16055806  0.23513884  1
  In  In4  1  0.84154909  0.16055806  0.76486116  1
  In  In5  1  0.66439027  0.64902614  0.26419260  1
  In  In6  1  0.66439027  0.64902614  0.73580740  1
  In  In7  1  0.33882611  0.34566882  0.73453982  1
  In  In8  1  0.50406544  0.00141045  0.50000000  1
  Hg  Hg0  1  0.00375501  0.50138359  0.00000000  1
  Hg  Hg1  1  0.49871738  0.99703790  0.00000000  1
  Hg  Hg2  1  0.99855088  0.49896950  0.50000000  1
  Ir  Ir0  1  0.15216199  0.15445101  0.00000000  1
  Ir  Ir1  1  0.35043839  0.66421842  0.50000000  1
  Ir  Ir2  1  0.84622891  0.84617443  0.00000000  1
  Ru  Ru0  1  0.64535836  0.34097623  0.50000000  1
loop_
_geom_bond_atom_site_label_1
_geom_bond_atom_site_label_2
_geom_bond_distance
_geom_bond_site_symmetry_2
In0 Ir0 2.672604 1_555
In0 Ru0 2.752687 1_555
In0 Ir1 2.816114 1_555
In0 In5 3.151100 1_555
In0 In8 3.204636 1_555
In0 In7 3.335554 1_555
In1 Ir1 2.678215 1_555
In1 Ir2 2.766907 1_456
In1 Ir0 2.777129 1_566
In1 In4 3.211081 1_465
In1 In8 3.311880 1_565
In1 In2 3.329700 1_556
In2 Ir1 2.678215 1_555
In2 Ir2 2.766907 1_455
In2 Ir0 2.777129 1_565
In2 In3 3.211081 1_465
In2 In8 3.311880 1_565
In3 Ru0 2.685820 1_555
In3 Ir0 2.778743 1_655
In3 Ir2 2.795138 1_545
In3 In8 3.249977 1_555
In3 In4 3.344073 1_554
In4 Ru0 2.685820 1_555
In4 Ir0 2.778743 1_656
In4 Ir2 2.795138 1_546
In4 In8 3.249977 1_555
In5 Ir2 2.671100 1_555
In5 Ru0 2.763207 1_555
In5 Ir1 2.803165 1_555
In5 In8 3.241114 1_565
In5 In6 3.353582 1_555
In6 Ir2 2.671100 1_556
In6 Ru0 2.763207 1_555
In6 Ir1 2.803165 1_555
In6 In7 3.151100 1_555
In6 In8 3.241114 1_565
In7 Ir0 2.672604 1_556
In7 Ru0 2.752687 1_555
In7 Ir1 2.816114 1_555
In7 In8 3.204636 1_555
In8 Ru0 2.607098 1_555
In8 Ir1 2.625907 1_545
Hg0 Ir0 2.702733 1_555
Hg0 Ir2 2.715890 1_455
Hg0 In2 3.126043 1_555
Hg0 In1 3.126043 1_554
Hg0 In3 3.154227 1_455
Hg0 In4 3.154227 1_454
Hg0 In5 3.253134 1_455
Hg0 In6 3.253134 1_454
Hg0 In0 3.255210 1_555
Hg0 In7 3.255210 1_554
Hg1 Ir2 2.718680 1_555
Hg1 Ir0 2.731835 1_565
Hg1 In2 3.148214 1_555
Hg1 In1 3.148214 1_554
Hg1 In3 3.172476 1_565
Hg1 In4 3.172476 1_564
Hg1 In0 3.333878 1_565
Hg1 In7 3.333878 1_564
Hg1 In5 3.340319 1_555
Hg1 In6 3.340319 1_554
Hg2 Ru0 2.747172 1_555
Hg2 Ir1 2.759628 1_655
Hg2 In6 3.118169 1_555
Hg2 In5 3.118169 1_555
Hg2 In7 3.155324 1_655
Hg2 In0 3.155324 1_655
Hg2 In4 3.245896 1_555
Hg2 In3 3.245896 1_555
Hg2 In1 3.276788 1_655
Hg2 In2 3.276788 1_655
Ir0 Ir2 3.075094 1_445
