# generated using pymatgen
data_Ca2MnIrO6
_symmetry_space_group_name_H-M   'P 1'
_cell_length_a   5.45367075
_cell_length_b   5.66596400
_cell_length_c   7.74829070
_cell_angle_alpha   90.00000000
_cell_angle_beta   89.80086904
_cell_angle_gamma   90.00000000
_symmetry_Int_Tables_number   1
_chemical_formula_structural   Ca2MnIrO6
_chemical_formula_sum   'Ca4 Mn2 Ir2 O12'
_cell_volume   239.42307779
_cell_formula_units_Z   2
loop_
 _symmetry_equiv_pos_site_id
 _symmetry_equiv_pos_as_xyz
  1  'x, y, z'
loop_
 _atom_site_type_symbol
 _atom_site_label
 _atom_site_symmetry_multiplicity
 _atom_site_fract_x
 _atom_site_fract_y
 _atom_site_fract_z
 _atom_site_occupancy
  Ca  Ca0  1  0.01455800  0.94017500  0.25011900  1
  Ca  Ca1  1  0.48544200  0.44017500  0.24988100  1
  Ca  Ca2  1  0.51455800  0.55982500  0.75011900  1
  Ca  Ca3  1  0.98544200  0.05982500  0.74988100  1
  Mn  Mn0  1  0.00000000  0.50000000  0.00000000  1
  Mn  Mn1  1  0.50000000  0.00000000  0.50000000  1
  Ir  Ir0  1  0.00000000  0.50000000  0.50000000  1
  Ir  Ir1  1  0.50000000  0.00000000  0.00000000  1
  O  O0  1  0.10041000  0.46592900  0.74266900  1
  O  O1  1  0.20676300  0.19214300  0.05100000  1
  O  O2  1  0.18675300  0.20857500  0.44708900  1
  O  O3  1  0.31324700  0.70857500  0.05291100  1
  O  O4  1  0.29323700  0.69214300  0.44900000  1
  O  O5  1  0.39959000  0.96592900  0.75733100  1
  O  O6  1  0.60041000  0.03407100  0.24266900  1
  O  O7  1  0.70676300  0.30785700  0.55100000  1
  O  O8  1  0.68675300  0.29142500  0.94708900  1
  O  O9  1  0.79323700  0.80785700  0.94900000  1
  O  O10  1  0.81324700  0.79142500  0.55291100  1
  O  O11  1  0.89959000  0.53407100  0.25733100  1
loop_
_geom_bond_atom_site_label_1
_geom_bond_atom_site_label_2
_geom_bond_distance
_geom_bond_site_symmetry_2
Ca0 O6 2.321351 1_465
Ca0 O1 2.346491 1_565
Ca0 O2 2.352393 1_565
Ca0 O11 2.385471 1_455
Ca0 O4 2.583751 1_555
Ca0 O3 2.587085 1_555
Ca0 O10 2.720672 1_455
Ca0 O9 2.735350 1_454
Ca1 O11 2.321351 1_555
Ca1 O4 2.346491 1_555
Ca1 O3 2.352393 1_555
Ca1 O6 2.385471 1_555
Ca1 O1 2.583751 1_555
Ca1 O2 2.587085 1_555
Ca1 O8 2.720672 1_554
Ca1 O7 2.735350 1_555
Ca2 O0 2.321351 1_555
Ca2 O7 2.346491 1_555
Ca2 O8 2.352393 1_555
Ca2 O5 2.385471 1_555
Ca2 O9 2.583751 1_555
Ca2 O10 2.587085 1_555
Ca2 O3 2.720672 1_556
Ca2 O4 2.735350 1_555
Ca3 O5 2.321351 1_645
Ca3 O9 2.346491 1_545
Ca3 O10 2.352393 1_545
Ca3 O0 2.385471 1_655
Ca3 O7 2.583751 1_555
Ca3 O8 2.587085 1_555
Ca3 O2 2.720672 1_655
Ca3 O1 2.735350 1_656
Mn0 O11 2.074870 1_455
Mn0 O0 2.074870 1_554
Mn0 O9 2.115036 1_454
Mn0 O1 2.115036 1_555
Mn0 O3 2.118488 1_555
Mn0 O8 2.118488 1_454
Mn1 O6 2.074870 1_555
Mn1 O5 2.074870 1_545
Mn1 O7 2.115036 1_555
Mn1 O4 2.115036 1_545
Mn1 O10 2.118488 1_545
Mn1 O2 2.118488 1_555
Ir0 O0 1.969697 1_555
Ir0 O11 1.969697 1_455
Ir0 O4 1.973442 1_555
Ir0 O7 1.973442 1_455
Ir0 O10 1.982162 1_455
Ir0 O2 1.982162 1_555
Ir1 O6 1.969697 1_555
Ir1 O5 1.969697 1_544
Ir1 O1 1.973442 1_555
Ir1 O9 1.973442 1_544
Ir1 O8 1.982162 1_554
Ir1 O3 1.982162 1_545
