# generated using pymatgen
data_RbTi2RhSe6
_symmetry_space_group_name_H-M   'P 1'
_cell_length_a   9.35043347
_cell_length_b   9.35043302
_cell_length_c   9.35043273
_cell_angle_alpha   38.67795077
_cell_angle_beta   38.67795300
_cell_angle_gamma   38.67795597
_symmetry_Int_Tables_number   1
_chemical_formula_structural   RbTi2RhSe6
_chemical_formula_sum   'Rb1 Ti2 Rh1 Se6'
_cell_volume   286.96249409
_cell_formula_units_Z   1
loop_
 _symmetry_equiv_pos_site_id
 _symmetry_equiv_pos_as_xyz
  1  'x, y, z'
loop_
 _atom_site_type_symbol
 _atom_site_label
 _atom_site_symmetry_multiplicity
 _atom_site_fract_x
 _atom_site_fract_y
 _atom_site_fract_z
 _atom_site_occupancy
  Rb  Rb0  1  0.99972632  0.99972632  0.99972632  1
  Ti  Ti0  1  0.49996888  0.49996888  0.49996888  1
  Ti  Ti1  1  0.83366173  0.83366173  0.83366173  1
  Rh  Rh0  1  0.16657266  0.16657266  0.16657266  1
  Se  Se0  1  0.55134863  0.22637765  0.89485556  1
  Se  Se1  1  0.89485556  0.55134863  0.22637765  1
  Se  Se2  1  0.22637765  0.89485556  0.55134863  1
  Se  Se3  1  0.77850032  0.10886902  0.44012024  1
  Se  Se4  1  0.10886902  0.44012024  0.77850032  1
  Se  Se5  1  0.44012024  0.77850032  0.10886902  1
loop_
_geom_bond_atom_site_label_1
_geom_bond_atom_site_label_2
_geom_bond_distance
_geom_bond_site_symmetry_2
Rb0 Se3 3.499010 1_566
Rb0 Se4 3.499010 1_665
Rb0 Se5 3.499010 1_656
Rb0 Se2 3.511639 1_655
Rb0 Se1 3.511639 1_556
Rb0 Se0 3.511639 1_565
Rh0 Se2 2.522499 1_545
Rh0 Se1 2.522499 1_455
Rh0 Se0 2.522499 1_554
Rh0 Se4 2.532052 1_554
Rh0 Se5 2.532053 1_545
Rh0 Se3 2.532053 1_455
Se0 Ti0 2.551734 1_555
Se0 Ti1 2.562690 1_545
Se1 Ti0 2.551735 1_555
Se1 Ti1 2.562690 1_554
Se2 Ti0 2.551735 1_555
Se2 Ti1 2.562690 1_455
Se3 Ti0 2.553147 1_555
Se3 Ti1 2.556390 1_545
Se4 Ti0 2.553148 1_555
Se4 Ti1 2.556390 1_455
Se5 Ti0 2.553147 1_555
Se5 Ti1 2.556390 1_554
