# generated using pymatgen
data_Hf4GaSi5Ir7
_symmetry_space_group_name_H-M   'P 1'
_cell_length_a   6.97541020
_cell_length_b   6.97541051
_cell_length_c   6.97540914
_cell_angle_alpha   108.52710104
_cell_angle_beta   109.94532968
_cell_angle_gamma   109.94532850
_symmetry_Int_Tables_number   1
_chemical_formula_structural   Hf4GaSi5Ir7
_chemical_formula_sum   'Hf4 Ga1 Si5 Ir7'
_cell_volume   261.21558632
_cell_formula_units_Z   1
loop_
 _symmetry_equiv_pos_site_id
 _symmetry_equiv_pos_as_xyz
  1  'x, y, z'
loop_
 _atom_site_type_symbol
 _atom_site_label
 _atom_site_symmetry_multiplicity
 _atom_site_fract_x
 _atom_site_fract_y
 _atom_site_fract_z
 _atom_site_occupancy
  Hf  Hf0  1  0.52705010  0.52650147  0.52650147  1
  Hf  Hf1  1  0.00000000  0.99945137  0.52650147  1
  Hf  Hf2  1  1.00000000  0.52650147  0.99945137  1
  Hf  Hf3  1  0.47294990  0.99945137  0.99945137  1
  Ga  Ga0  1  1.00000000  0.29579860  0.29579860  1
  Si  Si0  1  0.31886171  0.00681555  0.32567726  1
  Si  Si1  1  0.31886171  0.32567726  0.00681555  1
  Si  Si2  1  0.00000000  0.66071004  0.66071004  1
  Si  Si3  1  0.68113829  0.00681555  0.68795383  1
  Si  Si4  1  0.68113829  0.68795383  0.00681555  1
  Ir  Ir0  1  0.50000000  0.75081568  0.25081568  1
  Ir  Ir1  1  0.25328884  0.49928352  0.75257236  1
  Ir  Ir2  1  0.74671116  0.24599468  0.49928352  1
  Ir  Ir3  1  0.74671116  0.49928352  0.24599468  1
  Ir  Ir4  1  0.50000000  0.25081568  0.75081568  1
  Ir  Ir5  1  0.25328884  0.75257236  0.49928352  1
  Ir  Ir6  1  1.00000000  0.96555906  0.96555906  1
loop_
_geom_bond_atom_site_label_1
_geom_bond_atom_site_label_2
_geom_bond_distance
_geom_bond_site_symmetry_2
Hf0 Si2 2.804506 1_655
Hf0 Si4 2.822784 1_556
Hf0 Si3 2.822785 1_565
Hf0 Ir0 2.836883 1_555
Hf0 Ir4 2.836883 1_555
Hf0 Ir1 2.857746 1_555
Hf0 Ir5 2.857746 1_555
Hf0 Ir3 2.867058 1_555
Hf0 Ir2 2.867059 1_555
Hf0 Si1 3.000910 1_555
Hf0 Si0 3.000911 1_555
Hf0 Ir6 3.145725 1_555
Hf1 Si2 2.804505 1_555
Hf1 Si3 2.822784 1_465
Hf1 Si1 2.822784 1_566
Hf1 Ir0 2.836884 1_455
Hf1 Ir4 2.836884 1_565
Hf1 Ir2 2.857746 1_465
Hf1 Ir1 2.857747 1_565
Hf1 Ir5 2.867059 1_555
Hf1 Ir3 2.867059 1_455
Hf1 Si0 3.000910 1_565
Hf1 Si4 3.000910 1_455
Hf1 Ir6 3.145724 1_455
Hf2 Si2 2.804505 1_655
Hf2 Si4 2.822784 1_556
Hf2 Si0 2.822785 1_666
Hf2 Ir0 2.836884 1_656
Hf2 Ir4 2.836884 1_555
Hf2 Ir3 2.857746 1_556
Hf2 Ir5 2.857746 1_656
Hf2 Ir1 2.867058 1_655
Hf2 Ir2 2.867058 1_555
Hf2 Si1 3.000910 1_656
Hf2 Si3 3.000911 1_555
Hf2 Ir6 3.145725 1_555
Hf3 Si2 2.804506 1_555
Hf3 Si0 2.822784 1_566
Hf3 Si1 2.822784 1_566
Hf3 Ir4 2.836883 1_565
Hf3 Ir0 2.836883 1_556
Hf3 Ir2 2.857746 1_566
Hf3 Ir3 2.857747 1_566
Hf3 Ir5 2.867058 1_555
Hf3 Ir1 2.867059 1_555
Hf3 Si3 3.000910 1_565
Hf3 Si4 3.000910 1_556
Hf3 Ir6 3.145725 1_455
Ga0 Ir2 2.619628 1_555
Ga0 Ir1 2.619628 1_655
Ga0 Ir3 2.619628 1_555
Ga0 Ir5 2.619628 1_655
Ga0 Ir6 2.690819 1_544
Ga0 Hf2 2.996130 1_554
Ga0 Hf1 2.996131 1_645
Ga0 Hf0 2.996131 1_655
Ga0 Hf3 2.996131 1_544
Ir0 Si4 2.460980 1_555
Ir0 Si1 2.460981 1_555
Ir0 Si3 2.540623 1_565
Ir0 Si0 2.540623 1_565
Ir1 Si2 2.417334 1_555
Ir1 Si1 2.451548 1_556
Ir1 Si4 2.451549 1_556
Ir2 Si2 2.417334 1_655
Ir2 Si3 2.451549 1_555
Ir2 Si0 2.451549 1_555
Ir3 Si2 2.417334 1_655
Ir3 Si4 2.451548 1_555
Ir3 Si1 2.451549 1_555
Ir4 Si0 2.460980 1_555
Ir4 Si3 2.460981 1_555
Ir4 Si1 2.540622 1_556
Ir4 Si4 2.540623 1_556
Ir5 Si2 2.417334 1_555
Ir5 Si0 2.451549 1_565
Ir5 Si3 2.451549 1_565
Ir6 Si2 2.483935 1_655
Ir6 Si0 2.575260 1_666
Ir6 Si3 2.575260 1_565
Ir6 Si4 2.575260 1_556
Ir6 Si1 2.575260 1_666
