# generated using pymatgen
data_HfPtSeBr12
_symmetry_space_group_name_H-M   'P 1'
_cell_length_a   9.13932652
_cell_length_b   9.13932695
_cell_length_c   6.75753082
_cell_angle_alpha   72.23863519
_cell_angle_beta   72.23863355
_cell_angle_gamma   78.94752713
_symmetry_Int_Tables_number   1
_chemical_formula_structural   HfPtSeBr12
_chemical_formula_sum   'Hf1 Pt1 Se1 Br12'
_cell_volume   508.87571264
_cell_formula_units_Z   1
loop_
 _symmetry_equiv_pos_site_id
 _symmetry_equiv_pos_as_xyz
  1  'x, y, z'
loop_
 _atom_site_type_symbol
 _atom_site_label
 _atom_site_symmetry_multiplicity
 _atom_site_fract_x
 _atom_site_fract_y
 _atom_site_fract_z
 _atom_site_occupancy
  Hf  Hf0  1  0.27069988  0.27069988  0.72324877  1
  Pt  Pt0  1  0.00098567  0.00098567  0.00245110  1
  Se  Se0  1  0.72123235  0.72123235  0.28224723  1
  Br  Br0  1  0.96250238  0.25757824  0.74208697  1
  Br  Br1  1  0.25757824  0.96250238  0.74208697  1
  Br  Br2  1  0.05019660  0.75040105  0.25776246  1
  Br  Br3  1  0.75040105  0.05019660  0.25776246  1
  Br  Br4  1  0.20379105  0.53140378  0.78202331  1
  Br  Br5  1  0.53140378  0.20379105  0.78202331  1
  Br  Br6  1  0.78077321  0.47272448  0.22236016  1
  Br  Br7  1  0.47272448  0.78077321  0.22236016  1
  Br  Br8  1  0.13466328  0.13466328  0.15903404  1
  Br  Br9  1  0.87353107  0.87353107  0.83482741  1
  Br  Br10  1  0.64797279  0.64797279  0.66595873  1
  Br  Br11  1  0.34154316  0.34154316  0.32376892  1
loop_
_geom_bond_atom_site_label_1
_geom_bond_atom_site_label_2
_geom_bond_distance
_geom_bond_site_symmetry_2
Br0 Pt0 2.502535 1_656
Br0 Hf0 2.804625 1_655
Br1 Pt0 2.502535 1_566
Br1 Hf0 2.804625 1_565
Br2 Pt0 2.468116 1_565
Br2 Se0 3.019015 1_455
Br3 Pt0 2.468116 1_655
Br3 Se0 3.019015 1_545
Br4 Hf0 2.465620 1_555
Br5 Hf0 2.465620 1_555
Br6 Se0 2.360245 1_555
Br7 Se0 2.360245 1_555
Br8 Pt0 2.500901 1_555
Br8 Hf0 2.808682 1_554
Br9 Pt0 2.475291 1_666
Br9 Se0 2.936633 1_556
Br10 Se0 2.381892 1_555
Br11 Hf0 2.480669 1_555
