# generated using pymatgen
data_Co5SbO8
_symmetry_space_group_name_H-M   'P 1'
_cell_length_a   6.06245910
_cell_length_b   6.06245910
_cell_length_c   6.06245887
_cell_angle_alpha   57.99670211
_cell_angle_beta   57.99670211
_cell_angle_gamma   57.99671153
_symmetry_Int_Tables_number   1
_chemical_formula_structural   Co5SbO8
_chemical_formula_sum   'Co5 Sb1 O8'
_cell_volume   150.31444490
_cell_formula_units_Z   1
loop_
 _symmetry_equiv_pos_site_id
 _symmetry_equiv_pos_as_xyz
  1  'x, y, z'
loop_
 _atom_site_type_symbol
 _atom_site_label
 _atom_site_symmetry_multiplicity
 _atom_site_fract_x
 _atom_site_fract_y
 _atom_site_fract_z
 _atom_site_occupancy
  Co  Co0  1  0.63658979  0.63658979  0.63658979  1
  Co  Co1  1  -0.00000000  -0.00000000  0.50000000  1
  Co  Co2  1  -0.00000000  0.50000000  0.00000000  1
  Co  Co3  1  0.50000000  -0.00000000  0.00000000  1
  Co  Co4  1  0.36341021  0.36341021  0.36341021  1
  Sb  Sb0  1  -0.00000000  -0.00000000  0.00000000  1
  O  O0  1  0.76382488  0.76382488  0.23097913  1
  O  O1  1  0.23097913  0.76382488  0.76382488  1
  O  O2  1  0.76382488  0.23097913  0.76382488  1
  O  O3  1  0.76272320  0.76272320  0.76272320  1
  O  O4  1  0.23727680  0.23727680  0.23727680  1
  O  O5  1  0.76902087  0.23617512  0.23617512  1
  O  O6  1  0.23617512  0.76902087  0.23617512  1
  O  O7  1  0.23617512  0.23617512  0.76902087  1
loop_
_geom_bond_atom_site_label_1
_geom_bond_atom_site_label_2
_geom_bond_distance
_geom_bond_site_symmetry_2
Co0 O3 1.900931 1_555
Co0 O0 1.961226 1_555
Co0 O1 1.961226 1_555
Co0 O2 1.961226 1_555
Co1 O3 2.002905 1_445
Co1 O4 2.002905 1_555
Co1 O2 2.095362 1_455
Co1 O1 2.095362 1_545
Co1 O6 2.095362 1_545
Co1 O5 2.095362 1_455
Co2 O3 2.002906 1_454
Co2 O4 2.002906 1_555
Co2 O1 2.095362 1_554
Co2 O5 2.095362 1_455
Co2 O0 2.095363 1_455
Co2 O7 2.095363 1_554
Co3 O3 2.002906 1_544
Co3 O4 2.002906 1_555
Co3 O6 2.095362 1_545
Co3 O2 2.095362 1_554
Co3 O0 2.095363 1_545
Co3 O7 2.095363 1_554
Co4 O4 1.900931 1_555
Co4 O7 1.961226 1_555
Co4 O6 1.961226 1_555
Co4 O5 1.961226 1_555
O0 Sb0 1.995906 1_665
O1 Sb0 1.995906 1_566
O2 Sb0 1.995906 1_656
O5 Sb0 1.995906 1_655
O6 Sb0 1.995906 1_565
O7 Sb0 1.995906 1_556
