# generated using pymatgen
data_Sc22OsRu4Rh3
_symmetry_space_group_name_H-M   'P 1'
_cell_length_a   9.47374352
_cell_length_b   9.46235250
_cell_length_c   9.45906494
_cell_angle_alpha   60.09115520
_cell_angle_beta   59.97161867
_cell_angle_gamma   60.05464326
_symmetry_Int_Tables_number   1
_chemical_formula_structural   Sc22OsRu4Rh3
_chemical_formula_sum   'Sc22 Os1 Ru4 Rh3'
_cell_volume   600.11997382
_cell_formula_units_Z   1
loop_
 _symmetry_equiv_pos_site_id
 _symmetry_equiv_pos_as_xyz
  1  'x, y, z'
loop_
 _atom_site_type_symbol
 _atom_site_label
 _atom_site_symmetry_multiplicity
 _atom_site_fract_x
 _atom_site_fract_y
 _atom_site_fract_z
 _atom_site_occupancy
  Sc  Sc0  1  0.80389486  0.80389486  0.19610514  1
  Sc  Sc1  1  0.19598857  0.80401143  0.19609061  1
  Sc  Sc2  1  0.80387043  0.19612957  0.19631605  1
  Sc  Sc3  1  0.19610514  0.19610514  0.80389486  1
  Sc  Sc4  1  0.80401143  0.19598857  0.80390939  1
  Sc  Sc5  1  0.19612957  0.80387043  0.80368395  1
  Sc  Sc6  1  0.61556898  0.61830407  0.15145745  1
  Sc  Sc7  1  0.61767273  0.15149547  0.61661099  1
  Sc  Sc8  1  0.15149547  0.61767273  0.61422181  1
  Sc  Sc9  1  0.61830407  0.61556898  0.61467151  1
  Sc  Sc10  1  0.38443102  0.38169593  0.84854255  1
  Sc  Sc11  1  0.38232727  0.84850453  0.38338901  1
  Sc  Sc12  1  0.84850453  0.38232727  0.38577819  1
  Sc  Sc13  1  0.38169593  0.38443102  0.38532849  1
  Sc  Sc14  1  0.84560866  0.84296943  0.46935758  1
  Sc  Sc15  1  0.84475020  0.47043407  0.84106847  1
  Sc  Sc16  1  0.47043407  0.84475020  0.84374626  1
  Sc  Sc17  1  0.84296943  0.84560866  0.84206133  1
  Sc  Sc18  1  0.15439134  0.15703057  0.53064242  1
  Sc  Sc19  1  0.15524980  0.52956593  0.15893153  1
  Sc  Sc20  1  0.52956593  0.15524980  0.15625374  1
  Sc  Sc21  1  0.15703057  0.15439134  0.15793867  1
  Os  Os0  1  0.50000000  0.50000000  0.50000000  1
  Ru  Ru0  1  0.00000000  0.00000000  0.00000000  1
  Ru  Ru1  1  0.00000000  0.00000000  0.50000000  1
  Ru  Ru2  1  0.00000000  0.50000000  0.50000000  1
  Ru  Ru3  1  0.50000000  0.00000000  0.00000000  1
  Rh  Rh0  1  0.50000000  0.00000000  0.50000000  1
  Rh  Rh1  1  0.50000000  0.50000000  0.00000000  1
  Rh  Rh2  1  0.00000000  0.50000000  0.00000000  1
loop_
_geom_bond_atom_site_label_1
_geom_bond_atom_site_label_2
_geom_bond_distance
_geom_bond_site_symmetry_2
Sc0 Sc20 3.009031 1_565
Sc0 Sc19 3.009031 1_655
Sc0 Sc14 3.015765 1_555
Sc0 Sc17 3.015793 1_554
Sc0 Sc6 3.326755 1_555
Sc0 Sc9 3.326766 1_555
Sc0 Sc12 3.353884 1_555
Sc0 Sc11 3.353884 1_555
Sc1 Sc14 2.996147 1_455
Sc1 Sc21 2.996157 1_565
Sc1 Sc19 3.010490 1_555
Sc1 Sc16 3.010495 1_554
Sc1 Sc11 3.323929 1_555
Sc1 Sc8 3.323936 1_555
Sc1 Sc13 3.339675 1_555
Sc1 Sc6 3.339680 1_555
Sc2 Sc21 3.014959 1_655
Sc2 Sc20 3.030147 1_555
Sc2 Sc7 3.338535 1_555
Sc2 Sc6 3.357560 1_555
Sc3 Sc8 3.353884 1_555
Sc3 Sc7 3.353884 1_555
Sc4 Sc7 3.323929 1_555
Sc4 Sc9 3.339675 1_555
Sc5 Sc8 3.338528 1_555
Sc5 Sc9 3.357556 1_555
Sc10 Sc7 3.090120 1_555
Sc10 Sc20 3.130239 1_556
Sc10 Sc9 3.131714 1_555
Sc10 Sc8 3.131920 1_555
Sc10 Sc21 3.141756 1_556
Sc10 Sc19 3.158417 1_556
Sc10 Sc3 3.326755 1_555
Sc10 Sc4 3.339680 1_555
Sc10 Sc5 3.357560 1_555
Sc11 Sc6 3.090120 1_555
Sc11 Sc8 3.090990 1_555
Sc11 Sc21 3.116663 1_565
Sc11 Sc9 3.131940 1_555
Sc11 Sc20 3.132114 1_565
Sc11 Sc18 3.142768 1_565
Sc11 Sc5 3.338535 1_555
Sc12 Sc9 3.090140 1_555
Sc12 Sc7 3.090990 1_555
Sc12 Sc18 3.116685 1_655
Sc12 Sc6 3.131920 1_555
Sc12 Sc19 3.132114 1_655
Sc12 Sc21 3.142747 1_655
Sc12 Sc4 3.323936 1_555
Sc12 Sc2 3.338528 1_555
Sc13 Sc8 3.090140 1_555
Sc13 Sc19 3.130216 1_555
Sc13 Sc6 3.131714 1_555
Sc13 Sc7 3.131940 1_555
Sc13 Sc18 3.141745 1_555
Sc13 Sc20 3.158394 1_555
Sc13 Sc3 3.326766 1_555
Sc13 Sc2 3.357556 1_555
Sc14 Sc2 3.014948 1_565
Sc14 Sc8 3.116685 1_655
Sc14 Sc9 3.141745 1_555
Sc14 Sc7 3.142768 1_565
Sc15 Sc3 3.009031 1_655
Sc15 Sc4 3.010490 1_555
Sc15 Sc2 3.030152 1_556
Sc15 Sc9 3.130216 1_555
Sc15 Sc8 3.132114 1_655
Sc15 Sc6 3.158417 1_556
Sc16 Sc3 3.009031 1_565
Sc16 Sc5 3.030147 1_555
Sc16 Sc6 3.130239 1_556
Sc16 Sc7 3.132114 1_565
Sc16 Sc9 3.158394 1_555
Sc17 Sc4 2.996157 1_565
Sc17 Sc5 3.014959 1_655
Sc17 Sc7 3.116663 1_565
Sc17 Sc6 3.141756 1_556
Sc17 Sc8 3.142747 1_655
Sc18 Sc4 2.996147 1_455
Sc18 Sc5 3.014948 1_545
Sc18 Sc3 3.015765 1_555
Sc19 Sc5 3.030152 1_554
Sc20 Sc4 3.010495 1_554
Sc21 Sc3 3.015793 1_554
Os0 Sc6 2.692900 1_555
Os0 Sc10 2.692900 1_555
Os0 Sc9 2.692916 1_555
Os0 Sc13 2.692916 1_555
Os0 Sc11 2.695781 1_555
Os0 Sc7 2.695781 1_555
Os0 Sc12 2.695782 1_555
Os0 Sc8 2.695782 1_555
Ru0 Sc2 2.624068 1_455
Ru0 Sc5 2.624068 1_544
Ru0 Sc0 2.625977 1_445
Ru0 Sc3 2.625977 1_554
Ru0 Sc1 2.627934 1_545
Ru0 Sc4 2.627934 1_454
Ru1 Sc21 2.730327 1_555
Ru1 Sc17 2.730327 1_445
Ru1 Sc18 2.730346 1_555
Ru1 Sc14 2.730346 1_445
Ru1 Sc12 2.964032 1_455
Ru1 Sc8 2.964032 1_545
Ru1 Sc11 2.964033 1_545
Ru1 Sc7 2.964033 1_455
Ru2 Sc15 2.722385 1_455
Ru2 Sc19 2.722385 1_555
Ru2 Sc14 2.739102 1_455
Ru2 Sc18 2.739102 1_555
Ru2 Sc13 2.959368 1_555
Ru2 Sc9 2.959368 1_455
Ru2 Sc8 2.968862 1_555
Ru2 Sc12 2.968862 1_455
Ru3 Sc20 2.722394 1_555
Ru3 Sc16 2.722394 1_544
Ru3 Sc17 2.739109 1_544
Ru3 Sc21 2.739109 1_555
Ru3 Sc10 2.959369 1_554
Ru3 Sc6 2.959369 1_545
Ru3 Sc11 2.968854 1_545
Ru3 Sc7 2.968854 1_554
Rh0 Sc16 2.746767 1_545
Rh0 Sc20 2.746767 1_555
Rh0 Sc14 2.763133 1_545
Rh0 Sc18 2.763133 1_555
Rh0 Sc13 2.979376 1_555
Rh0 Sc9 2.979376 1_545
Rh0 Sc7 2.986198 1_555
Rh0 Sc11 2.986198 1_545
Rh1 Sc16 2.756540 1_554
Rh1 Sc20 2.756540 1_555
Rh1 Sc15 2.756540 1_554
Rh1 Sc19 2.756540 1_555
Rh1 Sc13 2.982801 1_555
Rh1 Sc9 2.982801 1_554
Rh1 Sc6 2.982818 1_555
Rh1 Sc10 2.982818 1_554
Rh2 Sc19 2.746776 1_555
Rh2 Sc15 2.746776 1_454
Rh2 Sc17 2.763138 1_454
Rh2 Sc21 2.763138 1_555
Rh2 Sc10 2.979378 1_554
Rh2 Sc6 2.979378 1_455
Rh2 Sc12 2.986190 1_455
Rh2 Sc8 2.986190 1_554
