# generated using pymatgen
data_ErAl4Ni
_symmetry_space_group_name_H-M   'P 1'
_cell_length_a   4.02831563
_cell_length_b   6.54649345
_cell_length_c   7.87193081
_cell_angle_alpha   90.00000000
_cell_angle_beta   104.82489154
_cell_angle_gamma   90.00000000
_symmetry_Int_Tables_number   1
_chemical_formula_structural   ErAl4Ni
_chemical_formula_sum   'Er2 Al8 Ni2'
_cell_volume   200.68307716
_cell_formula_units_Z   2
loop_
 _symmetry_equiv_pos_site_id
 _symmetry_equiv_pos_as_xyz
  1  'x, y, z'
loop_
 _atom_site_type_symbol
 _atom_site_label
 _atom_site_symmetry_multiplicity
 _atom_site_fract_x
 _atom_site_fract_y
 _atom_site_fract_z
 _atom_site_occupancy
  Er  Er0  1  0.88114543  0.25000000  0.76229186  1
  Er  Er1  1  0.11885457  0.75000000  0.23770814  1
  Al  Al0  1  0.50000000  -0.00000000  -0.00000000  1
  Al  Al1  1  0.50000000  0.50000000  -0.00000000  1
  Al  Al2  1  0.07590485  0.25000000  0.15180871  1
  Al  Al3  1  0.92409515  0.75000000  0.84819129  1
  Al  Al4  1  0.68855435  0.05288304  0.37710569  1
  Al  Al5  1  0.31144565  0.94711696  0.62289431  1
  Al  Al6  1  0.31144565  0.55288304  0.62289431  1
  Al  Al7  1  0.68855435  0.44711696  0.37710569  1
  Ni  Ni0  1  0.22638908  0.25000000  0.45278116  1
  Ni  Ni1  1  0.77361092  0.75000000  0.54721884  1
loop_
_geom_bond_atom_site_label_1
_geom_bond_atom_site_label_2
_geom_bond_distance
_geom_bond_site_symmetry_2
Er0 Ni0 3.099106 1_655
Er0 Ni0 3.099111 1_555
Er1 Ni1 3.099106 1_455
Er1 Ni1 3.099111 1_555
Al0 Al3 2.840767 1_544
Al0 Al2 2.840767 1_555
Al0 Al2 2.840770 1_655
Al0 Al3 2.840770 1_444
Al0 Al4 2.890541 1_555
Al0 Al5 2.890541 1_544
Al0 Er0 3.163479 1_554
Al0 Er1 3.163479 1_545
Al0 Er0 3.163482 1_454
Al0 Er1 3.163482 1_645
Al1 Al3 2.840767 1_554
Al1 Al2 2.840767 1_555
Al1 Al2 2.840770 1_655
Al1 Al3 2.840770 1_454
Al1 Al7 2.890541 1_555
Al1 Al6 2.890541 1_554
Al1 Er0 3.163479 1_554
Al1 Er1 3.163479 1_555
Al1 Er0 3.163482 1_454
Al1 Er1 3.163482 1_655
Al2 Ni0 2.290368 1_555
Al2 Er0 2.964181 1_454
Al2 Er1 3.337881 1_555
Al2 Er1 3.337881 1_545
Al3 Ni1 2.290368 1_555
Al3 Er1 2.964181 1_656
Al3 Er0 3.337881 1_565
Al3 Er0 3.337881 1_555
Al4 Ni1 2.368000 1_545
Al4 Ni0 2.460410 1_655
Al4 Ni0 2.460430 1_555
Al4 Er1 3.018890 1_645
Al4 Er1 3.018895 1_545
Al4 Er0 3.202699 1_555
Al5 Ni0 2.368000 1_565
Al5 Ni1 2.460410 1_455
Al5 Ni1 2.460430 1_555
Al5 Er0 3.018890 1_465
Al5 Er0 3.018895 1_565
Al5 Er1 3.202699 1_555
Al6 Ni0 2.368000 1_555
Al6 Ni1 2.460410 1_455
Al6 Ni1 2.460430 1_555
Al6 Er0 3.018890 1_455
Al6 Er0 3.018895 1_555
Al6 Er1 3.202699 1_555
Al7 Ni1 2.368000 1_555
Al7 Ni0 2.460410 1_655
Al7 Ni0 2.460430 1_555
Al7 Er1 3.018890 1_655
Al7 Er1 3.018895 1_555
Al7 Er0 3.202699 1_555
