# generated using pymatgen
data_Sc10Cd3Ir
_symmetry_space_group_name_H-M   'P 1'
_cell_length_a   9.02760723
_cell_length_b   9.02749274
_cell_length_c   9.10888455
_cell_angle_alpha   90.00000000
_cell_angle_beta   90.00000000
_cell_angle_gamma   120.00038244
_symmetry_Int_Tables_number   1
_chemical_formula_structural   Sc10Cd3Ir
_chemical_formula_sum   'Sc20 Cd6 Ir2'
_cell_volume   642.88598708
_cell_formula_units_Z   2
loop_
 _symmetry_equiv_pos_site_id
 _symmetry_equiv_pos_as_xyz
  1  'x, y, z'
loop_
 _atom_site_type_symbol
 _atom_site_label
 _atom_site_symmetry_multiplicity
 _atom_site_fract_x
 _atom_site_fract_y
 _atom_site_fract_z
 _atom_site_occupancy
  Sc  Sc0  1  0.00000000  0.00000000  0.50000000  1
  Sc  Sc1  1  0.00000000  0.00000000  0.00000000  1
  Sc  Sc2  1  0.20911111  0.79090123  0.44100873  1
  Sc  Sc3  1  0.20910997  0.41821246  0.44100708  1
  Sc  Sc4  1  0.58179655  0.79090035  0.44101112  1
  Sc  Sc5  1  0.79088889  0.20909877  0.55899127  1
  Sc  Sc6  1  0.79089003  0.58178754  0.55899292  1
  Sc  Sc7  1  0.41820345  0.20909965  0.55898888  1
  Sc  Sc8  1  0.79088889  0.20909877  0.94100873  1
  Sc  Sc9  1  0.79089003  0.58178754  0.94100708  1
  Sc  Sc10  1  0.41820345  0.20909965  0.94101112  1
  Sc  Sc11  1  0.20911111  0.79090123  0.05899127  1
  Sc  Sc12  1  0.20910997  0.41821246  0.05899292  1
  Sc  Sc13  1  0.58179655  0.79090035  0.05898888  1
  Sc  Sc14  1  0.53994457  0.46006214  0.25000000  1
  Sc  Sc15  1  0.53994180  0.07988005  0.25000000  1
  Sc  Sc16  1  0.92011701  0.46005985  0.25000000  1
  Sc  Sc17  1  0.46005543  0.53993786  0.75000000  1
  Sc  Sc18  1  0.46005820  0.92011995  0.75000000  1
  Sc  Sc19  1  0.07988299  0.53994015  0.75000000  1
  Cd  Cd0  1  0.88477899  0.11520306  0.25000000  1
  Cd  Cd1  1  0.88478649  0.76957853  0.25000000  1
  Cd  Cd2  1  0.23042926  0.11521323  0.25000000  1
  Cd  Cd3  1  0.11522101  0.88479694  0.75000000  1
  Cd  Cd4  1  0.11521351  0.23042147  0.75000000  1
  Cd  Cd5  1  0.76957074  0.88478677  0.75000000  1
  Ir  Ir0  1  0.33334484  0.66667456  0.25000000  1
  Ir  Ir1  1  0.66665516  0.33332544  0.75000000  1
loop_
_geom_bond_atom_site_label_1
_geom_bond_atom_site_label_2
_geom_bond_distance
_geom_bond_site_symmetry_2
Cd0 Sc1 2.903629 1_655
Cd0 Sc0 2.903629 1_655
Cd0 Sc15 2.966496 1_555
Cd0 Sc16 2.966574 1_555
Cd0 Cd1 3.120157 1_545
Cd0 Cd2 3.120349 1_655
Cd0 Sc5 3.174458 1_555
Cd0 Sc8 3.174458 1_554
Cd0 Sc4 3.327444 1_545
Cd0 Sc13 3.327444 1_545
Cd0 Sc3 3.327642 1_655
Cd0 Sc12 3.327642 1_655
Cd1 Sc1 2.903603 1_665
Cd1 Sc0 2.903603 1_665
Cd1 Sc14 2.966497 1_555
Cd1 Sc16 2.966542 1_555
Cd1 Cd2 3.120253 1_665
Cd1 Sc6 3.174482 1_555
Cd1 Sc9 3.174482 1_554
Cd1 Sc4 3.327540 1_555
Cd1 Sc13 3.327540 1_555
Cd1 Sc2 3.327624 1_655
Cd1 Sc11 3.327624 1_655
Cd2 Sc1 2.903655 1_555
Cd2 Sc0 2.903655 1_555
Cd2 Sc14 2.966522 1_555
Cd2 Sc15 2.966534 1_555
Cd2 Sc7 3.174397 1_555
Cd2 Sc10 3.174397 1_554
Cd2 Sc2 3.327510 1_545
Cd2 Sc11 3.327510 1_545
Cd2 Sc3 3.327553 1_555
Cd2 Sc12 3.327553 1_555
Cd3 Sc1 2.903629 1_566
Cd3 Sc0 2.903629 1_565
Cd3 Sc18 2.966496 1_555
Cd3 Sc19 2.966574 1_555
Cd3 Cd4 3.120157 1_565
Cd3 Cd5 3.120349 1_455
Cd3 Sc11 3.174458 1_556
Cd3 Sc2 3.174458 1_555
Cd3 Sc10 3.327444 1_565
Cd3 Sc7 3.327444 1_565
Cd3 Sc9 3.327642 1_455
Cd3 Sc6 3.327642 1_455
Cd4 Sc0 2.903603 1_555
Cd4 Sc1 2.903603 1_556
Cd4 Sc17 2.966497 1_555
Cd4 Sc19 2.966542 1_555
Cd4 Cd5 3.120253 1_445
Cd4 Sc12 3.174482 1_556
Cd4 Sc3 3.174482 1_555
Cd4 Sc10 3.327540 1_555
Cd4 Sc7 3.327540 1_555
Cd4 Sc8 3.327624 1_455
Cd4 Sc5 3.327624 1_455
Cd5 Sc0 2.903655 1_665
Cd5 Sc1 2.903655 1_666
Cd5 Sc17 2.966522 1_555
Cd5 Sc18 2.966534 1_555
Cd5 Sc13 3.174397 1_556
Cd5 Sc4 3.174397 1_555
Cd5 Sc8 3.327510 1_565
Cd5 Sc5 3.327510 1_565
Cd5 Sc9 3.327553 1_555
Cd5 Sc6 3.327553 1_555
Ir0 Sc4 2.607729 1_555
Ir0 Sc13 2.607729 1_555
Ir0 Sc3 2.607746 1_555
Ir0 Sc12 2.607746 1_555
Ir0 Sc2 2.607764 1_555
Ir0 Sc11 2.607764 1_555
Ir0 Sc15 3.230444 1_565
Ir0 Sc14 3.230535 1_555
Ir0 Sc16 3.230659 1_455
Ir1 Sc10 2.607729 1_555
Ir1 Sc7 2.607729 1_555
Ir1 Sc9 2.607746 1_555
Ir1 Sc6 2.607746 1_555
Ir1 Sc8 2.607764 1_555
Ir1 Sc5 2.607764 1_555
Ir1 Sc18 3.230444 1_545
Ir1 Sc17 3.230535 1_555
Ir1 Sc19 3.230659 1_655
