# generated using pymatgen
data_Nb4CuNiN
_symmetry_space_group_name_H-M   'P 1'
_cell_length_a   8.25623168
_cell_length_b   8.25623228
_cell_length_c   8.25623213
_cell_angle_alpha   59.99999663
_cell_angle_beta   59.99999423
_cell_angle_gamma   60.00000315
_symmetry_Int_Tables_number   1
_chemical_formula_structural   Nb4CuNiN
_chemical_formula_sum   'Nb16 Cu4 Ni4 N4'
_cell_volume   397.95196334
_cell_formula_units_Z   4
loop_
 _symmetry_equiv_pos_site_id
 _symmetry_equiv_pos_as_xyz
  1  'x, y, z'
loop_
 _atom_site_type_symbol
 _atom_site_label
 _atom_site_symmetry_multiplicity
 _atom_site_fract_x
 _atom_site_fract_y
 _atom_site_fract_z
 _atom_site_occupancy
  Nb  Nb0  1  0.11882717  0.62705694  0.62705694  1
  Nb  Nb1  1  0.62705694  0.11882717  0.62705694  1
  Nb  Nb2  1  0.62705694  0.62705694  0.11882717  1
  Nb  Nb3  1  0.62705694  0.62705694  0.62705694  1
  Nb  Nb4  1  0.81629656  0.81629656  0.18370344  1
  Nb  Nb5  1  0.18370344  0.18370344  0.81629656  1
  Nb  Nb6  1  0.81629656  0.18370344  0.81629656  1
  Nb  Nb7  1  0.18370344  0.81629656  0.18370344  1
  Nb  Nb8  1  0.18370344  0.81629656  0.81629656  1
  Nb  Nb9  1  0.81629656  0.18370344  0.18370344  1
  Nb  Nb10  1  0.43466874  0.43466874  0.06533126  1
  Nb  Nb11  1  0.06533126  0.06533126  0.43466874  1
  Nb  Nb12  1  0.43466874  0.06533126  0.43466874  1
  Nb  Nb13  1  0.06533126  0.43466874  0.06533126  1
  Nb  Nb14  1  0.06533126  0.43466874  0.43466874  1
  Nb  Nb15  1  0.43466874  0.06533126  0.06533126  1
  Cu  Cu0  1  0.74680743  0.41773086  0.41773086  1
  Cu  Cu1  1  0.41773086  0.74680743  0.41773086  1
  Cu  Cu2  1  0.41773086  0.41773086  0.74680743  1
  Cu  Cu3  1  0.41773086  0.41773086  0.41773086  1
  Ni  Ni0  1  0.51450864  0.82849712  0.82849712  1
  Ni  Ni1  1  0.82849712  0.51450864  0.82849712  1
  Ni  Ni2  1  0.82849712  0.82849712  0.51450864  1
  Ni  Ni3  1  0.82849712  0.82849712  0.82849712  1
  N  N0  1  0.62305708  0.12564797  0.12564797  1
  N  N1  1  0.12564797  0.62305708  0.12564797  1
  N  N2  1  0.12564797  0.12564797  0.62305708  1
  N  N3  1  0.12564797  0.12564797  0.12564797  1
loop_
_geom_bond_atom_site_label_1
_geom_bond_atom_site_label_2
_geom_bond_distance
_geom_bond_site_symmetry_2
Nb0 Ni1 2.463860 1_455
Nb0 Ni2 2.463860 1_455
Nb0 Ni3 2.463869 1_455
Nb1 Ni0 2.463860 1_545
Nb1 Ni2 2.463860 1_545
Nb1 Ni3 2.463869 1_545
Nb2 Ni1 2.463860 1_554
Nb2 Ni0 2.463860 1_554
Nb2 Ni3 2.463869 1_554
Nb3 Ni2 2.463874 1_555
Nb3 Ni1 2.463874 1_555
Nb3 Ni0 2.463874 1_555
Nb4 Ni3 2.835516 1_554
Nb4 Ni2 2.835516 1_555
Nb5 Ni1 2.835516 1_455
Nb5 Ni0 2.835516 1_545
Nb6 Ni1 2.835516 1_555
Nb6 Ni3 2.835516 1_545
Nb7 Ni0 2.835516 1_554
Nb7 Ni2 2.835516 1_455
Nb8 Ni3 2.835516 1_455
Nb8 Ni0 2.835516 1_555
Nb9 Ni1 2.835516 1_554
Nb9 Ni2 2.835516 1_545
Nb10 Ni1 3.054002 1_554
Nb10 Ni0 3.054003 1_554
Nb11 Ni3 3.054002 1_445
Nb11 Ni2 3.054002 1_445
Nb12 Ni0 3.054003 1_545
Nb12 Ni2 3.054003 1_545
Nb13 Ni1 3.054003 1_454
Nb13 Ni3 3.054003 1_454
Nb14 Ni1 3.054003 1_455
Nb14 Ni2 3.054003 1_455
Nb15 Ni3 3.054003 1_544
Nb15 Ni0 3.054003 1_544
Cu0 Nb3 2.553548 1_555
Cu0 Nb1 2.553561 1_555
Cu0 Nb2 2.553561 1_555
Cu0 Cu2 2.716932 1_555
Cu0 Cu3 2.716932 1_555
Cu0 Cu1 2.716933 1_555
Cu0 Nb13 2.776701 1_655
Cu0 Nb14 2.776702 1_655
Cu0 Nb11 2.776702 1_655
Cu0 Nb4 3.051574 1_555
Cu0 Nb6 3.051574 1_555
Cu0 Nb9 3.051574 1_555
Cu1 Nb3 2.553547 1_555
Cu1 Nb0 2.553561 1_555
Cu1 Nb2 2.553561 1_555
Cu1 Cu2 2.716932 1_555
Cu1 Cu3 2.716933 1_555
Cu1 Nb15 2.776701 1_565
Cu1 Nb12 2.776702 1_565
Cu1 Nb11 2.776702 1_565
Cu1 Nb4 3.051574 1_555
Cu1 Nb8 3.051574 1_555
Cu1 Nb7 3.051574 1_555
Cu2 Nb3 2.553547 1_555
Cu2 Nb0 2.553561 1_555
Cu2 Nb1 2.553561 1_555
Cu2 Cu3 2.716933 1_555
Cu2 Nb13 2.776701 1_556
Cu2 Nb15 2.776702 1_556
Cu2 Nb10 2.776702 1_556
Cu2 Nb5 3.051574 1_555
Cu2 Nb6 3.051574 1_555
Cu2 Nb8 3.051574 1_555
Cu3 Nb2 2.553552 1_555
Cu3 Nb0 2.553552 1_555
Cu3 Nb1 2.553552 1_555
Cu3 Nb14 2.776701 1_555
Cu3 Nb10 2.776702 1_555
Cu3 Nb12 2.776702 1_555
Cu3 Nb5 3.051574 1_555
Cu3 Nb9 3.051574 1_555
Cu3 Nb7 3.051574 1_555
Ni0 Ni2 2.592362 1_555
Ni0 Ni3 2.592362 1_555
Ni0 Ni1 2.592362 1_555
Ni1 Ni2 2.592362 1_555
Ni1 Ni3 2.592362 1_555
Ni2 Ni3 2.592362 1_555
N0 Nb12 2.170777 1_555
N0 Nb10 2.170778 1_555
N0 Nb15 2.170783 1_555
N0 Nb9 2.182677 1_555
N0 Nb6 2.182683 1_554
N0 Nb4 2.182683 1_545
N1 Nb14 2.170777 1_555
N1 Nb10 2.170777 1_555
N1 Nb13 2.170783 1_555
N1 Nb7 2.182677 1_555
N1 Nb8 2.182683 1_554
N1 Nb4 2.182683 1_455
N2 Nb12 2.170777 1_555
N2 Nb14 2.170778 1_555
N2 Nb11 2.170783 1_555
N2 Nb5 2.182677 1_555
N2 Nb6 2.182683 1_455
N2 Nb8 2.182683 1_545
N3 Nb15 2.170775 1_555
N3 Nb11 2.170775 1_555
N3 Nb13 2.170776 1_555
N3 Nb9 2.182685 1_455
N3 Nb5 2.182685 1_554
N3 Nb7 2.182685 1_545
