# generated using pymatgen
data_CsGaSiSe4
_symmetry_space_group_name_H-M   'P 1'
_cell_length_a   17.05627616
_cell_length_b   7.20556109
_cell_length_c   8.09471777
_cell_angle_alpha   69.54865516
_cell_angle_beta   90.00000000
_cell_angle_gamma   90.00000000
_symmetry_Int_Tables_number   1
_chemical_formula_structural   CsGaSiSe4
_chemical_formula_sum   'Cs4 Ga4 Si4 Se16'
_cell_volume   932.13554844
_cell_formula_units_Z   4
loop_
 _symmetry_equiv_pos_site_id
 _symmetry_equiv_pos_as_xyz
  1  'x, y, z'
loop_
 _atom_site_type_symbol
 _atom_site_label
 _atom_site_symmetry_multiplicity
 _atom_site_fract_x
 _atom_site_fract_y
 _atom_site_fract_z
 _atom_site_occupancy
  Cs  Cs0  1  0.39740091  0.94131071  0.17900052  1
  Cs  Cs1  1  0.89740091  0.05868929  0.82099948  1
  Cs  Cs2  1  0.59899458  0.53402280  0.84420017  1
  Cs  Cs3  1  0.09899458  0.46597720  0.15579983  1
  Ga  Ga0  1  0.58579293  0.16625856  0.48371805  1
  Ga  Ga1  1  0.08579293  0.83374144  0.51628195  1
  Ga  Ga2  1  0.27076443  0.58290830  0.69374801  1
  Ga  Ga3  1  0.77076443  0.41709170  0.30625199  1
  Si  Si0  1  0.42095846  0.31088673  0.54062343  1
  Si  Si1  1  0.92095846  0.68911327  0.45937657  1
  Si  Si2  1  0.72702977  0.91872600  0.28470998  1
  Si  Si3  1  0.22702977  0.08127400  0.71529002  1
  Se  Se0  1  0.60155207  0.88983644  0.38465715  1
  Se  Se1  1  0.10155207  0.11016356  0.61534285  1
  Se  Se2  1  0.40879640  0.57731248  0.62736107  1
  Se  Se3  1  0.90879640  0.42268752  0.37263893  1
  Se  Se4  1  0.80341699  0.79485622  0.53530372  1
  Se  Se5  1  0.30341699  0.20514378  0.46469628  1
  Se  Se6  1  0.19987281  0.71040455  0.42682454  1
  Se  Se7  1  0.69987281  0.28959545  0.57317546  1
  Se  Se8  1  0.76242702  0.22891762  0.10988073  1
  Se  Se9  1  0.26242702  0.77108238  0.89011927  1
  Se  Se10  1  0.23562143  0.25665071  0.89851618  1
  Se  Se11  1  0.73562143  0.74334929  0.10148382  1
  Se  Se12  1  0.99591188  0.92737984  0.26356140  1
  Se  Se13  1  0.49591188  0.07262016  0.73643860  1
  Se  Se14  1  0.99145733  0.60410848  0.71466479  1
  Se  Se15  1  0.49145733  0.39589152  0.28533521  1
loop_
_geom_bond_atom_site_label_1
_geom_bond_atom_site_label_2
_geom_bond_distance
_geom_bond_site_symmetry_2
Cs0 Se2 3.665643 1_555
Cs0 Se13 3.766085 1_564
Cs0 Se9 3.778494 1_554
Cs0 Se10 3.785061 1_564
Cs0 Se0 3.821275 1_555
Cs0 Se5 3.821557 1_565
Cs0 Se6 3.976290 1_555
Cs0 Se15 4.001717 1_565
Cs0 Se15 4.049178 1_555
Cs1 Se3 3.665643 1_555
Cs1 Se12 3.766085 1_546
Cs1 Se8 3.778494 1_556
Cs1 Se11 3.785061 1_546
Cs1 Se1 3.821275 1_655
Cs1 Se4 3.821557 1_545
Cs1 Se7 3.976290 1_555
Cs1 Se14 4.001717 1_545
Cs1 Se14 4.049178 1_555
Cs2 Se2 3.649603 1_555
Cs2 Se7 3.684522 1_555
Cs2 Se0 3.707806 1_555
Cs2 Se8 3.731581 1_556
Cs2 Se11 3.773341 1_556
Cs2 Se15 3.823904 1_556
Cs2 Se13 4.067902 1_565
Cs2 Se13 4.114882 1_555
Cs2 Se4 4.319419 1_555
Cs3 Se3 3.649603 1_455
Cs3 Se6 3.684522 1_555
Cs3 Se1 3.707806 1_555
Cs3 Se9 3.731581 1_554
Cs3 Se10 3.773341 1_554
Cs3 Se14 3.823904 1_454
Cs3 Se12 4.067902 1_445
Cs3 Se12 4.114882 1_455
Cs3 Se5 4.319419 1_555
Ga0 Se7 2.355834 1_555
Ga0 Se0 2.408016 1_545
Ga0 Se13 2.454745 1_555
Ga0 Se15 2.459402 1_555
Ga1 Se6 2.355834 1_555
Ga1 Se1 2.408016 1_565
Ga1 Se12 2.454745 1_455
Ga1 Se14 2.459402 1_455
Ga2 Se6 2.363761 1_555
Ga2 Se2 2.418332 1_555
Ga2 Se9 2.427260 1_555
Ga2 Se10 2.431098 1_555
Ga3 Se7 2.363761 1_555
Ga3 Se3 2.418332 1_555
Ga3 Se8 2.427260 1_555
Ga3 Se11 2.431098 1_555
Se0 Si2 2.271690 1_555
Se1 Si3 2.271690 1_555
Se2 Si0 2.272303 1_555
Se3 Si1 2.272303 1_555
Se4 Si1 2.303226 1_555
Se4 Si2 2.311636 1_555
Se5 Si0 2.303226 1_555
Se5 Si3 2.311636 1_555
Se8 Si2 2.269916 1_545
Se9 Si3 2.269916 1_565
Se10 Si3 2.264493 1_555
Se11 Si2 2.264493 1_555
Se12 Si1 2.278739 1_555
Se13 Si0 2.278739 1_555
Se14 Si1 2.281860 1_555
Se15 Si0 2.281860 1_555
