# generated using pymatgen
data_ScInPdPt
_symmetry_space_group_name_H-M   'P 1'
_cell_length_a   4.62880529
_cell_length_b   4.62880524
_cell_length_c   4.62880554
_cell_angle_alpha   60.00000484
_cell_angle_beta   60.00000520
_cell_angle_gamma   59.99999907
_symmetry_Int_Tables_number   1
_chemical_formula_structural   ScInPdPt
_chemical_formula_sum   'Sc1 In1 Pd1 Pt1'
_cell_volume   70.12805406
_cell_formula_units_Z   1
loop_
 _symmetry_equiv_pos_site_id
 _symmetry_equiv_pos_as_xyz
  1  'x, y, z'
loop_
 _atom_site_type_symbol
 _atom_site_label
 _atom_site_symmetry_multiplicity
 _atom_site_fract_x
 _atom_site_fract_y
 _atom_site_fract_z
 _atom_site_occupancy
  Sc  Sc0  1  0.50000000  0.50000000  0.50000000  1
  In  In0  1  0.00000000  0.00000000  0.00000000  1
  Pd  Pd0  1  0.75000000  0.75000000  0.75000000  1
  Pt  Pt0  1  0.25000000  0.25000000  0.25000000  1
loop_
_geom_bond_atom_site_label_1
_geom_bond_atom_site_label_2
_geom_bond_distance
_geom_bond_site_symmetry_2
In0 Pt0 2.834553 1_555
In0 Pd0 2.834553 1_444
In0 Pt0 2.834553 1_545
In0 Pd0 2.834553 1_454
In0 Pd0 2.834553 1_544
In0 Pt0 2.834553 1_455
In0 Pd0 2.834553 1_445
In0 Pt0 2.834553 1_554
Pd0 Sc0 2.834553 1_555
Pd0 Sc0 2.834553 1_565
Pd0 Sc0 2.834553 1_655
Pd0 Sc0 2.834553 1_556
Pt0 Sc0 2.834553 1_555
Pt0 Sc0 2.834553 1_545
Pt0 Sc0 2.834553 1_455
Pt0 Sc0 2.834553 1_554
