# generated using pymatgen
data_Sr3CdTcO6
_symmetry_space_group_name_H-M   'P 1'
_cell_length_a   6.82010829
_cell_length_b   6.82010874
_cell_length_c   6.82010888
_cell_angle_alpha   91.04153358
_cell_angle_beta   91.04153437
_cell_angle_gamma   91.04151906
_symmetry_Int_Tables_number   1
_chemical_formula_structural   Sr3CdTcO6
_chemical_formula_sum   'Sr6 Cd2 Tc2 O12'
_cell_volume   317.07055907
_cell_formula_units_Z   2
loop_
 _symmetry_equiv_pos_site_id
 _symmetry_equiv_pos_as_xyz
  1  'x, y, z'
loop_
 _atom_site_type_symbol
 _atom_site_label
 _atom_site_symmetry_multiplicity
 _atom_site_fract_x
 _atom_site_fract_y
 _atom_site_fract_z
 _atom_site_occupancy
  Sr  Sr0  1  0.75000000  0.38987290  0.11012710  1
  Sr  Sr1  1  0.11012710  0.75000000  0.38987290  1
  Sr  Sr2  1  0.25000000  0.61012710  0.88987290  1
  Sr  Sr3  1  0.38987290  0.11012710  0.75000000  1
  Sr  Sr4  1  0.61012710  0.88987290  0.25000000  1
  Sr  Sr5  1  0.88987290  0.25000000  0.61012710  1
  Cd  Cd0  1  0.25000000  0.25000000  0.25000000  1
  Cd  Cd1  1  0.75000000  0.75000000  0.75000000  1
  Tc  Tc0  1  0.50000000  0.50000000  0.50000000  1
  Tc  Tc1  1  0.00000000  0.00000000  0.00000000  1
  O  O0  1  0.08223616  0.28265746  0.94819210  1
  O  O1  1  0.94819210  0.08223616  0.28265746  1
  O  O2  1  0.28265746  0.94819210  0.08223616  1
  O  O3  1  0.41776384  0.55180790  0.21734254  1
  O  O4  1  0.21734254  0.41776384  0.55180790  1
  O  O5  1  0.55180790  0.21734254  0.41776384  1
  O  O6  1  0.91776384  0.71734254  0.05180790  1
  O  O7  1  0.05180790  0.91776384  0.71734254  1
  O  O8  1  0.71734254  0.05180790  0.91776384  1
  O  O9  1  0.58223616  0.44819210  0.78265746  1
  O  O10  1  0.44819210  0.78265746  0.58223616  1
  O  O11  1  0.78265746  0.58223616  0.44819210  1
loop_
_geom_bond_atom_site_label_1
_geom_bond_atom_site_label_2
_geom_bond_distance
_geom_bond_site_symmetry_2
Cd0 O5 2.352848 1_555
Cd0 O0 2.352849 1_554
Cd0 O2 2.352849 1_545
Cd0 O4 2.352849 1_555
Cd0 O1 2.352849 1_455
Cd0 O3 2.352849 1_555
Cd1 O10 2.352848 1_555
Cd1 O6 2.352849 1_556
Cd1 O8 2.352849 1_565
Cd1 O11 2.352849 1_555
Cd1 O7 2.352849 1_655
Cd1 O9 2.352849 1_555
O0 Tc1 2.036740 1_556
O0 Sr2 2.532043 1_555
O0 Sr5 2.635812 1_455
O0 Sr0 2.647736 1_456
O0 Sr3 2.783659 1_555
O1 Tc1 2.036740 1_655
O1 Sr5 2.532042 1_555
O1 Sr4 2.635813 1_545
O1 Sr1 2.647736 1_645
O1 Sr0 2.783659 1_555
O2 Tc1 2.036739 1_565
O2 Sr4 2.532042 1_555
O2 Sr2 2.635812 1_554
O2 Sr3 2.647737 1_564
O2 Sr1 2.783659 1_555
O3 Tc0 2.036740 1_555
O3 Sr2 2.532042 1_554
O3 Sr4 2.635813 1_555
O3 Sr0 2.647736 1_555
O3 Sr1 2.783659 1_555
O4 Tc0 2.036740 1_555
O4 Sr5 2.532043 1_455
O4 Sr2 2.635812 1_555
O4 Sr1 2.647736 1_555
O4 Sr3 2.783659 1_555
O5 Tc0 2.036739 1_555
O5 Sr4 2.532042 1_545
O5 Sr5 2.635812 1_555
O5 Sr3 2.647737 1_555
O5 Sr0 2.783659 1_555
O6 Tc1 2.036740 1_665
O6 Sr0 2.532043 1_555
O6 Sr1 2.635812 1_655
O6 Sr2 2.647736 1_654
O6 Sr4 2.783659 1_555
O7 Tc1 2.036740 1_566
O7 Sr1 2.532042 1_555
O7 Sr3 2.635813 1_565
O7 Sr5 2.647736 1_465
O7 Sr2 2.783659 1_555
O8 Tc1 2.036739 1_656
O8 Sr3 2.532042 1_555
O8 Sr0 2.635812 1_556
O8 Sr4 2.647737 1_546
O8 Sr5 2.783659 1_555
O9 Tc0 2.036740 1_555
O9 Sr0 2.532042 1_556
O9 Sr3 2.635813 1_555
O9 Sr2 2.647736 1_555
O9 Sr5 2.783659 1_555
O10 Tc0 2.036739 1_555
O10 Sr3 2.532042 1_565
O10 Sr1 2.635812 1_555
O10 Sr4 2.647737 1_555
O10 Sr2 2.783659 1_555
O11 Tc0 2.036740 1_555
O11 Sr1 2.532043 1_655
O11 Sr0 2.635812 1_555
O11 Sr5 2.647736 1_555
O11 Sr4 2.783659 1_555
