# generated using pymatgen
data_SrAgAsS3
_symmetry_space_group_name_H-M   'P 1'
_cell_length_a   12.55229931
_cell_length_b   6.01531158
_cell_length_c   7.74719770
_cell_angle_alpha   86.96929375
_cell_angle_beta   90.00000000
_cell_angle_gamma   90.00000000
_symmetry_Int_Tables_number   1
_chemical_formula_structural   SrAgAsS3
_chemical_formula_sum   'Sr4 Ag4 As4 S12'
_cell_volume   584.14168504
_cell_formula_units_Z   4
loop_
 _symmetry_equiv_pos_site_id
 _symmetry_equiv_pos_as_xyz
  1  'x, y, z'
loop_
 _atom_site_type_symbol
 _atom_site_label
 _atom_site_symmetry_multiplicity
 _atom_site_fract_x
 _atom_site_fract_y
 _atom_site_fract_z
 _atom_site_occupancy
  Sr  Sr0  1  0.57618983  0.74227900  0.67210342  1
  Sr  Sr1  1  0.07618983  0.25772100  0.82789658  1
  Sr  Sr2  1  0.42381017  0.25772100  0.32789658  1
  Sr  Sr3  1  0.92381017  0.74227900  0.17210342  1
  Ag  Ag0  1  0.76634183  0.26115737  0.38054516  1
  Ag  Ag1  1  0.73365817  0.26115737  0.88054516  1
  Ag  Ag2  1  0.26634183  0.73884263  0.11945484  1
  Ag  Ag3  1  0.23365817  0.73884263  0.61945484  1
  As  As0  1  0.90008549  0.78110363  0.66820042  1
  As  As1  1  0.09991451  0.21889637  0.33179958  1
  As  As2  1  0.59991451  0.78110363  0.16820042  1
  As  As3  1  0.40008549  0.21889637  0.83179958  1
  S  S0  1  0.45038906  0.76040406  0.33735497  1
  S  S1  1  0.95038906  0.23959594  0.16264503  1
  S  S2  1  0.54961094  0.23959594  0.66264503  1
  S  S3  1  0.04961094  0.76040406  0.83735497  1
  S  S4  1  0.13125747  0.84586529  0.34795403  1
  S  S5  1  0.63125747  0.15413471  0.15204597  1
  S  S6  1  0.86874253  0.15413471  0.65204597  1
  S  S7  1  0.77710293  0.68250468  0.87093949  1
  S  S8  1  0.72289707  0.68250468  0.37093949  1
  S  S9  1  0.22289707  0.31749532  0.12906051  1
  S  S10  1  0.27710293  0.31749532  0.62906051  1
  S  S11  1  0.36874253  0.84586529  0.84795403  1
loop_
_geom_bond_atom_site_label_1
_geom_bond_atom_site_label_2
_geom_bond_distance
_geom_bond_site_symmetry_2
Ag0 S6 2.519442 1_555
Ag0 S5 2.558082 1_555
Ag0 S8 2.589759 1_555
Ag0 S1 2.868241 1_555
Ag1 S5 2.519442 1_556
Ag1 S6 2.558082 1_555
Ag1 S7 2.589759 1_555
Ag1 S2 2.868241 1_555
Ag2 S11 2.519442 1_554
Ag2 S4 2.558082 1_555
Ag2 S9 2.589759 1_555
Ag2 S0 2.868241 1_555
Ag3 S4 2.519442 1_555
Ag3 S11 2.558082 1_555
Ag3 S10 2.589759 1_555
Ag3 S3 2.868241 1_555
As0 S7 2.259046 1_555
As0 S6 2.275045 1_565
As0 S3 2.288733 1_655
As1 S9 2.259046 1_555
As1 S4 2.275045 1_545
As1 S1 2.288733 1_455
As2 S8 2.259046 1_555
As2 S5 2.275045 1_565
As2 S0 2.288733 1_555
As3 S10 2.259046 1_555
As3 S11 2.275045 1_545
As3 S2 2.288733 1_555
S0 Sr2 3.007103 1_565
S0 Sr0 3.033321 1_555
S0 Sr2 3.046874 1_555
S1 Sr3 3.007103 1_545
S1 Sr1 3.033321 1_654
S1 Sr3 3.046874 1_555
S2 Sr0 3.007103 1_545
S2 Sr2 3.033321 1_555
S2 Sr0 3.046874 1_555
S3 Sr1 3.007103 1_565
S3 Sr3 3.033321 1_456
S3 Sr1 3.046874 1_555
S4 Sr3 3.019027 1_455
S5 Sr2 3.019027 1_555
S6 Sr1 3.019027 1_655
S7 Sr0 2.967104 1_555
S7 Sr3 3.008800 1_556
S8 Sr3 2.967104 1_555
S8 Sr0 3.008800 1_555
S9 Sr2 2.967104 1_555
S9 Sr1 3.008800 1_554
S10 Sr1 2.967104 1_555
S10 Sr2 3.008800 1_555
S11 Sr0 3.019027 1_555
