# generated using pymatgen
data_Hf4Nb2Al7
_symmetry_space_group_name_H-M   'P 1'
_cell_length_a   5.23945247
_cell_length_b   5.23945505
_cell_length_c   10.00554956
_cell_angle_alpha   74.82149349
_cell_angle_beta   74.82148589
_cell_angle_gamma   60.00000384
_symmetry_Int_Tables_number   1
_chemical_formula_structural   Hf4Nb2Al7
_chemical_formula_sum   'Hf4 Nb2 Al7'
_cell_volume   226.74038180
_cell_formula_units_Z   1
loop_
 _symmetry_equiv_pos_site_id
 _symmetry_equiv_pos_as_xyz
  1  'x, y, z'
loop_
 _atom_site_type_symbol
 _atom_site_label
 _atom_site_symmetry_multiplicity
 _atom_site_fract_x
 _atom_site_fract_y
 _atom_site_fract_z
 _atom_site_occupancy
  Hf  Hf0  1  0.83463793  0.83463793  0.49608620  1
  Hf  Hf1  1  0.16536207  0.16536207  0.50391380  1
  Hf  Hf2  1  0.64868674  0.64868674  0.05393777  1
  Hf  Hf3  1  0.35131326  0.35131326  0.94606223  1
  Nb  Nb0  1  0.54402029  0.54402029  0.36793812  1
  Nb  Nb1  1  0.45597971  0.45597971  0.63206188  1
  Al  Al0  1  0.00000000  0.00000000  0.00000000  1
  Al  Al1  1  0.90797857  0.90797857  0.76974260  1
  Al  Al2  1  0.41429925  0.90797857  0.76974260  1
  Al  Al3  1  0.90797857  0.41429925  0.76974260  1
  Al  Al4  1  0.09202143  0.09202143  0.23025740  1
  Al  Al5  1  0.58570075  0.09202143  0.23025740  1
  Al  Al6  1  0.09202143  0.58570075  0.23025740  1
loop_
_geom_bond_atom_site_label_1
_geom_bond_atom_site_label_2
_geom_bond_distance
_geom_bond_site_symmetry_2
Hf0 Hf1 3.025920 1_565
Hf0 Hf1 3.025921 1_665
Hf0 Hf1 3.025922 1_655
Hf0 Nb0 3.262569 1_655
Hf0 Nb0 3.262571 1_565
Hf0 Nb0 3.262574 1_555
Hf0 Nb1 3.291263 1_555
Hf0 Nb1 3.291266 1_655
Hf0 Nb1 3.291267 1_565
Hf1 Nb1 3.262569 1_455
Hf1 Nb1 3.262571 1_545
Hf1 Nb1 3.262574 1_555
Hf1 Nb0 3.291263 1_555
Hf1 Nb0 3.291266 1_455
Hf1 Nb0 3.291267 1_545
Hf2 Nb0 2.994721 1_555
Hf2 Hf3 3.195163 1_554
Hf2 Hf3 3.195180 1_654
Hf2 Hf3 3.195182 1_564
Hf3 Nb1 2.994721 1_555
Nb0 Nb1 2.519032 1_555
Al0 Al5 2.677393 1_455
Al0 Al2 2.677393 1_544
Al0 Al3 2.677394 1_454
Al0 Al6 2.677394 1_545
Al0 Al4 2.677396 1_555
Al0 Al1 2.677396 1_444
Al0 Hf2 3.068425 1_545
Al0 Hf3 3.068425 1_454
Al0 Hf2 3.068426 1_455
Al0 Hf3 3.068426 1_544
Al0 Hf3 3.068435 1_554
Al0 Hf2 3.068435 1_445
Al1 Al2 2.586609 1_555
Al1 Al3 2.586611 1_555
Al1 Al2 2.652843 1_655
Al1 Al3 2.652844 1_565
Al1 Nb1 2.930457 1_655
Al1 Nb1 2.930457 1_565
Al1 Hf1 2.962024 1_665
Al1 Hf0 3.006992 1_555
Al1 Hf2 3.094638 1_556
Al1 Hf3 3.113064 1_565
Al1 Hf3 3.113064 1_655
Al2 Al3 2.586610 1_555
Al2 Al3 2.652844 1_465
Al2 Nb1 2.930453 1_555
Al2 Nb1 2.930463 1_565
Al2 Hf1 2.962021 1_565
Al2 Hf0 3.006994 1_555
Al2 Hf2 3.094635 1_556
Al2 Hf3 3.113058 1_555
Al2 Hf3 3.113071 1_565
Al3 Nb1 2.930452 1_555
Al3 Nb1 2.930461 1_655
Al3 Hf1 2.962021 1_655
Al3 Hf0 3.006995 1_555
Al3 Hf2 3.094635 1_556
Al3 Hf3 3.113057 1_555
Al3 Hf3 3.113070 1_655
Al4 Al5 2.586609 1_555
Al4 Al6 2.586611 1_555
Al4 Al5 2.652843 1_455
Al4 Al6 2.652844 1_545
Al4 Nb0 2.930457 1_455
Al4 Nb0 2.930457 1_545
Al4 Hf0 2.962024 1_445
Al4 Hf1 3.006992 1_555
Al4 Hf3 3.094638 1_554
Al4 Hf2 3.113064 1_545
Al4 Hf2 3.113064 1_455
Al5 Al6 2.586610 1_555
Al5 Al6 2.652844 1_645
Al5 Nb0 2.930453 1_555
Al5 Nb0 2.930463 1_545
Al5 Hf0 2.962021 1_545
Al5 Hf1 3.006994 1_555
Al5 Hf3 3.094635 1_554
Al5 Hf2 3.113058 1_555
Al5 Hf2 3.113071 1_545
Al6 Nb0 2.930452 1_555
Al6 Nb0 2.930461 1_455
Al6 Hf0 2.962021 1_455
Al6 Hf1 3.006995 1_555
Al6 Hf3 3.094635 1_554
Al6 Hf2 3.113057 1_555
Al6 Hf2 3.113070 1_455
