# generated using pymatgen
data_NaZnAs
_symmetry_space_group_name_H-M   'P 1'
_cell_length_a   4.49353490
_cell_length_b   4.49353490
_cell_length_c   4.49353490
_cell_angle_alpha   60.00000000
_cell_angle_beta   60.00000000
_cell_angle_gamma   60.00000000
_symmetry_Int_Tables_number   1
_chemical_formula_structural   NaZnAs
_chemical_formula_sum   'Na1 Zn1 As1'
_cell_volume   64.15778468
_cell_formula_units_Z   1
loop_
 _symmetry_equiv_pos_site_id
 _symmetry_equiv_pos_as_xyz
  1  'x, y, z'
loop_
 _atom_site_type_symbol
 _atom_site_label
 _atom_site_symmetry_multiplicity
 _atom_site_fract_x
 _atom_site_fract_y
 _atom_site_fract_z
 _atom_site_occupancy
  Na  Na0  1  0.75000000  0.75000000  0.75000000  1
  Zn  Zn0  1  0.25000000  0.25000000  0.25000000  1
  As  As0  1  0.00000000  0.00000000  0.00000000  1
loop_
_geom_bond_atom_site_label_1
_geom_bond_atom_site_label_2
_geom_bond_distance
_geom_bond_site_symmetry_2
Na0 Zn0 3.177409 1_556
Na0 Zn0 3.177409 1_566
Na0 Zn0 3.177409 1_655
Na0 Zn0 3.177409 1_565
Na0 Zn0 3.177409 1_656
Na0 Zn0 3.177409 1_665
As0 Na0 2.751717 1_544
As0 Zn0 2.751717 1_455
As0 Zn0 2.751717 1_545
As0 Zn0 2.751717 1_554
As0 Na0 2.751717 1_445
As0 Na0 2.751717 1_444
As0 Zn0 2.751717 1_555
As0 Na0 2.751717 1_454
