# generated using pymatgen
data_Zr2Cr4Si5
_symmetry_space_group_name_H-M   'P 1'
_cell_length_a   9.25200448
_cell_length_b   9.25200448
_cell_length_c   9.25200448
_cell_angle_alpha   148.90647898
_cell_angle_beta   131.45159019
_cell_angle_gamma   58.78087477
_symmetry_Int_Tables_number   1
_chemical_formula_structural   Zr2Cr4Si5
_chemical_formula_sum   'Zr4 Cr8 Si10'
_cell_volume   304.13026740
_cell_formula_units_Z   2
loop_
 _symmetry_equiv_pos_site_id
 _symmetry_equiv_pos_as_xyz
  1  'x, y, z'
loop_
 _atom_site_type_symbol
 _atom_site_label
 _atom_site_symmetry_multiplicity
 _atom_site_fract_x
 _atom_site_fract_y
 _atom_site_fract_z
 _atom_site_occupancy
  Zr  Zr0  1  0.01939600  0.14124200  0.87815400  1
  Zr  Zr1  1  0.98060400  0.85875800  0.12184600  1
  Zr  Zr2  1  0.73691200  0.35875800  0.37815400  1
  Zr  Zr3  1  0.26308800  0.64124200  0.62184600  1
  Cr  Cr0  1  0.30893400  0.05893400  0.75000000  1
  Cr  Cr1  1  0.69106600  0.44106600  0.75000000  1
  Cr  Cr2  1  0.19145600  0.43858600  0.75286900  1
  Cr  Cr3  1  0.80854400  0.56141400  0.24713100  1
  Cr  Cr4  1  0.31428300  0.06141400  0.25286900  1
  Cr  Cr5  1  0.68571700  0.93858600  0.74713100  1
  Cr  Cr6  1  0.69106600  0.94106600  0.25000000  1
  Cr  Cr7  1  0.30893400  0.55893400  0.25000000  1
  Si  Si0  1  0.00000000  0.75000000  0.75000000  1
  Si  Si1  1  0.00000000  0.25000000  0.25000000  1
  Si  Si2  1  0.99832700  0.28911800  0.70920900  1
  Si  Si3  1  0.00167300  0.71088200  0.29079100  1
  Si  Si4  1  0.63664600  0.06397400  0.57267100  1
  Si  Si5  1  0.36335400  0.93602600  0.42732900  1
  Si  Si6  1  0.50869700  0.43602600  0.07267100  1
  Si  Si7  1  0.49130300  0.56397400  0.92732900  1
  Si  Si8  1  0.57990800  0.78911800  0.79079100  1
  Si  Si9  1  0.42009200  0.21088200  0.20920900  1
loop_
_geom_bond_atom_site_label_1
_geom_bond_atom_site_label_2
_geom_bond_distance
_geom_bond_site_symmetry_2
Cr0 Si5 2.457931 1_545
Cr0 Si6 2.457939 1_556
Cr0 Si8 2.555896 1_545
Cr0 Si2 2.555900 1_455
Cr0 Si9 2.563028 1_556
Cr0 Si3 2.563032 1_545
Cr1 Si4 2.457934 1_555
Cr1 Si7 2.457939 1_555
Cr1 Si9 2.555899 1_555
Cr1 Si3 2.555900 1_656
Cr1 Si8 2.563031 1_555
Cr1 Si2 2.563032 1_555
Cr2 Si7 2.418253 1_555
Cr2 Si2 2.432580 1_455
Cr2 Si6 2.433103 1_556
Cr2 Si1 2.493571 1_555
Cr2 Si0 2.493574 1_555
Cr2 Si5 2.812858 1_545
Cr2 Si5 2.812867 1_556
Cr3 Si6 2.418253 1_555
Cr3 Si3 2.432580 1_655
Cr3 Si7 2.433103 1_554
Cr3 Si0 2.493571 1_655
Cr3 Si1 2.493574 1_655
Cr3 Si4 2.812858 1_565
Cr3 Si4 2.812867 1_554
Cr4 Si5 2.418267 1_545
Cr4 Si9 2.432579 1_555
Cr4 Si4 2.433111 1_555
Cr4 Si1 2.493573 1_555
Cr4 Si0 2.493573 1_544
Cr4 Si7 2.812866 1_555
Cr4 Si7 2.812866 1_544
Cr5 Si4 2.418267 1_565
Cr5 Si8 2.432579 1_555
Cr5 Si5 2.433111 1_555
Cr5 Si1 2.493573 1_666
Cr5 Si0 2.493573 1_655
Cr5 Si6 2.812866 1_555
Cr5 Si6 2.812866 1_566
Cr6 Si4 2.457931 1_565
Cr6 Si7 2.457939 1_554
Cr6 Si9 2.555896 1_565
Cr6 Si3 2.555900 1_655
Cr6 Si8 2.563028 1_554
Cr6 Si2 2.563032 1_565
Cr7 Si5 2.457934 1_555
Cr7 Si6 2.457939 1_555
Cr7 Si8 2.555899 1_555
Cr7 Si2 2.555900 1_454
Cr7 Si9 2.563031 1_555
Cr7 Si3 2.563032 1_555
Si0 Si1 2.479766 1_555
Si0 Si1 2.479766 1_566
Si0 Zr1 2.753532 1_456
Si0 Zr2 2.753532 1_455
Si0 Zr3 2.753532 1_555
Si0 Zr0 2.753532 1_565
Si1 Zr2 2.753532 1_455
Si1 Zr1 2.753532 1_445
Si1 Zr3 2.753532 1_555
Si1 Zr0 2.753532 1_554
Si2 Zr0 2.708456 1_655
Si2 Zr2 2.757307 1_555
Si2 Zr1 2.802055 1_545
Si2 Zr1 2.802055 1_556
Si3 Zr1 2.708456 1_455
Si3 Zr3 2.757307 1_555
Si3 Zr0 2.802055 1_565
Si3 Zr0 2.802055 1_554
Si4 Si5 2.340468 1_545
Si4 Zr0 2.636674 1_655
Si4 Si7 2.715078 1_544
Si4 Si7 2.715082 1_555
Si5 Zr1 2.636674 1_455
Si5 Si6 2.715078 1_566
Si5 Si6 2.715082 1_555
Si6 Si7 2.340450 1_554
Si6 Zr2 2.636681 1_555
Si7 Zr3 2.636681 1_555
Si8 Zr3 2.708447 1_555
Si8 Zr1 2.757314 1_556
Si8 Zr2 2.802057 1_566
Si8 Zr2 2.802061 1_555
Si9 Zr2 2.708447 1_555
Si9 Zr0 2.757314 1_554
Si9 Zr3 2.802057 1_544
Si9 Zr3 2.802061 1_555
