# generated using pymatgen
data_Zr6Ti5Al11Ir7
_symmetry_space_group_name_H-M   'P 1'
_cell_length_a   8.77474664
_cell_length_b   8.77474729
_cell_length_c   8.75821591
_cell_angle_alpha   59.93753776
_cell_angle_beta   59.93753711
_cell_angle_gamma   60.00000286
_symmetry_Int_Tables_number   1
_chemical_formula_structural   Zr6Ti5Al11Ir7
_chemical_formula_sum   'Zr6 Ti5 Al11 Ir7'
_cell_volume   476.38621911
_cell_formula_units_Z   1
loop_
 _symmetry_equiv_pos_site_id
 _symmetry_equiv_pos_as_xyz
  1  'x, y, z'
loop_
 _atom_site_type_symbol
 _atom_site_label
 _atom_site_symmetry_multiplicity
 _atom_site_fract_x
 _atom_site_fract_y
 _atom_site_fract_z
 _atom_site_occupancy
  Zr  Zr0  1  0.69321120  0.69321120  0.30903519  1
  Zr  Zr1  1  0.30454240  0.69321120  0.30903519  1
  Zr  Zr2  1  0.69321120  0.30454240  0.30903519  1
  Zr  Zr3  1  0.31076042  0.31076042  0.69203224  1
  Zr  Zr4  1  0.68644593  0.31076042  0.69203224  1
  Zr  Zr5  1  0.31076042  0.68644593  0.69203224  1
  Ti  Ti0  1  0.88039143  0.88039143  0.35882771  1
  Ti  Ti1  1  0.87674592  0.36175377  0.88475538  1
  Ti  Ti2  1  0.36175377  0.87674592  0.88475538  1
  Ti  Ti3  1  0.87674592  0.87674592  0.88475538  1
  Ti  Ti4  1  0.12241484  0.12241484  0.63275449  1
  Al  Al0  1  0.12026337  0.64023996  0.11923230  1
  Al  Al1  1  0.64023996  0.12026337  0.11923230  1
  Al  Al2  1  0.12026337  0.12026337  0.11923230  1
  Al  Al3  1  0.66117268  0.66117268  0.01647995  1
  Al  Al4  1  0.66360876  0.01073033  0.66205015  1
  Al  Al5  1  0.01073033  0.66360876  0.66205015  1
  Al  Al6  1  0.66360876  0.66360876  0.66205015  1
  Al  Al7  1  0.33538676  0.33538676  0.99383971  1
  Al  Al8  1  0.33616903  0.99524822  0.33241471  1
  Al  Al9  1  0.99524822  0.33616903  0.33241471  1
  Al  Al10  1  0.33616903  0.33616903  0.33241471  1
  Ir  Ir0  1  0.00295671  0.00295671  0.99112986  1
  Ir  Ir1  1  0.99888556  0.99888556  0.50431226  1
  Ir  Ir2  1  0.49791662  0.99888556  0.50431226  1
  Ir  Ir3  1  0.99888556  0.49791662  0.50431226  1
  Ir  Ir4  1  0.50167164  0.50167164  0.99849119  1
  Ir  Ir5  1  0.99816653  0.50167164  0.99849119  1
  Ir  Ir6  1  0.50167164  0.99816653  0.99849119  1
loop_
_geom_bond_atom_site_label_1
_geom_bond_atom_site_label_2
_geom_bond_distance
_geom_bond_site_symmetry_2
Ti0 Zr1 3.117424 1_655
Ti0 Zr2 3.117425 1_565
Ti0 Zr0 3.117440 1_555
Ti1 Zr2 3.098000 1_556
Ti1 Zr3 3.188294 1_655
Ti1 Zr4 3.188310 1_555
Ti2 Zr1 3.098000 1_556
Ti2 Zr3 3.188294 1_565
Ti2 Zr5 3.188310 1_555
Ti3 Zr0 3.098002 1_556
Ti3 Zr5 3.188298 1_655
Ti3 Zr4 3.188298 1_565
Ti4 Zr4 3.191068 1_455
Ti4 Zr3 3.191068 1_555
Ti4 Zr5 3.191068 1_545
Al0 Ir0 2.598363 1_564
Al0 Ir5 2.733219 1_454
Al0 Ir4 2.733233 1_554
Al0 Ir3 2.753170 1_455
Al0 Ti0 2.973882 1_455
Al0 Zr0 3.132546 1_455
Al0 Zr1 3.132554 1_555
Al0 Zr5 3.138362 1_554
Al1 Ir0 2.598363 1_654
Al1 Ir6 2.733219 1_544
Al1 Ir4 2.733233 1_554
Al1 Ir2 2.753170 1_545
Al1 Ti0 2.973882 1_545
Al1 Zr0 3.132547 1_545
Al1 Zr2 3.132554 1_555
Al1 Zr4 3.138362 1_554
Al2 Ir0 2.598356 1_554
Al2 Ir6 2.733234 1_544
Al2 Ir5 2.733234 1_454
Al2 Ir1 2.753170 1_445
Al2 Ti0 2.973863 1_445
Al2 Zr2 3.132548 1_455
Al2 Zr1 3.132548 1_545
Al2 Zr3 3.138362 1_554
Al3 Ir4 2.518560 1_554
Al3 Ir5 2.518583 1_554
Al3 Ir6 2.518583 1_554
Al3 Ti2 2.773533 1_554
Al3 Ti1 2.773534 1_554
Al3 Ti3 2.773555 1_554
Al3 Zr1 2.871516 1_555
Al3 Zr2 2.871516 1_555
Al3 Zr0 2.871527 1_555
Al4 Ir2 2.518041 1_545
Al4 Ir1 2.518056 1_545
Al4 Ir6 2.519945 1_545
Al4 Ti0 2.790229 1_545
Al4 Zr2 2.855229 1_555
Al4 Zr3 2.883233 1_555
Al4 Zr4 2.883238 1_555
Al5 Ir3 2.518041 1_455
Al5 Ir1 2.518057 1_455
Al5 Ir5 2.519945 1_455
Al5 Ti0 2.790229 1_455
Al5 Zr1 2.855229 1_555
Al5 Zr3 2.883233 1_555
Al5 Zr5 2.883238 1_555
Al6 Ir3 2.518052 1_555
Al6 Ir2 2.518052 1_555
Al6 Ir4 2.519938 1_555
Al6 Ti0 2.790247 1_555
Al6 Zr0 2.855222 1_555
Al6 Zr5 2.883229 1_555
Al6 Zr4 2.883230 1_555
Al7 Ir5 2.551022 1_455
Al7 Ir6 2.551023 1_545
Al7 Ir4 2.551030 1_555
Al7 Zr4 2.876039 1_555
Al7 Zr5 2.876039 1_555
Al7 Zr3 2.876044 1_555
Al8 Ir6 2.523836 1_554
Al8 Ir2 2.552692 1_555
Al8 Ir1 2.552699 1_455
Al8 Zr0 2.911895 1_555
Al8 Zr1 2.911900 1_555
Al8 Zr5 2.943146 1_555
Al9 Ir5 2.523836 1_554
Al9 Ir3 2.552692 1_555
Al9 Ir1 2.552700 1_545
Al9 Zr0 2.911895 1_555
Al9 Zr2 2.911900 1_555
Al9 Zr4 2.943146 1_555
Al10 Ir4 2.523836 1_554
Al10 Ir3 2.552697 1_455
Al10 Ir2 2.552697 1_545
Al10 Zr2 2.911891 1_555
Al10 Zr1 2.911892 1_555
Al10 Zr3 2.943139 1_555
Ir0 Ti4 2.560339 1_555
Ir0 Ti3 2.571939 1_445
Ir0 Ti2 2.571946 1_545
Ir0 Ti1 2.571946 1_455
Ir0 Ti0 2.626942 1_446
Ir1 Ti4 2.689521 1_665
Ir1 Ti3 2.718926 1_555
Ir1 Ti0 2.742537 1_555
Ir1 Zr2 3.181066 1_565
Ir1 Zr1 3.181066 1_655
Ir1 Zr5 3.193363 1_655
Ir1 Zr4 3.193363 1_565
Ir2 Ti4 2.689528 1_565
Ir2 Ti2 2.718926 1_555
Ir2 Ti0 2.742551 1_555
Ir2 Zr2 3.181066 1_565
Ir2 Zr0 3.181066 1_555
Ir2 Zr3 3.193362 1_565
Ir2 Zr5 3.193369 1_555
Ir3 Ti4 2.689528 1_655
Ir3 Ti1 2.718926 1_555
Ir3 Ti0 2.742551 1_555
Ir3 Zr1 3.181066 1_655
Ir3 Zr0 3.181066 1_555
Ir3 Zr3 3.193362 1_655
Ir3 Zr4 3.193369 1_555
Ir4 Ti1 2.689135 1_555
Ir4 Ti2 2.689135 1_555
Ir4 Zr5 3.172983 1_555
Ir4 Zr4 3.172983 1_555
Ir4 Zr2 3.189569 1_556
Ir4 Zr1 3.189569 1_556
Ir5 Ti1 2.689135 1_555
Ir5 Ti3 2.689135 1_555
Ir5 Zr5 3.172971 1_655
Ir5 Zr3 3.172980 1_655
Ir5 Zr0 3.189571 1_556
Ir5 Zr2 3.189575 1_556
Ir6 Ti3 2.689135 1_555
Ir6 Ti2 2.689135 1_555
Ir6 Zr4 3.172971 1_565
Ir6 Zr3 3.172980 1_565
Ir6 Zr0 3.189571 1_556
Ir6 Zr1 3.189575 1_556
