# generated using pymatgen
data_Ca2ScPtO6
_symmetry_space_group_name_H-M   'P 1'
_cell_length_a   5.63678626
_cell_length_b   5.46570003
_cell_length_c   9.54765658
_cell_angle_alpha   54.80877482
_cell_angle_beta   90.00000000
_cell_angle_gamma   90.00000000
_symmetry_Int_Tables_number   1
_chemical_formula_structural   Ca2ScPtO6
_chemical_formula_sum   'Ca4 Sc2 Pt2 O12'
_cell_volume   240.39206849
_cell_formula_units_Z   2
loop_
 _symmetry_equiv_pos_site_id
 _symmetry_equiv_pos_as_xyz
  1  'x, y, z'
loop_
 _atom_site_type_symbol
 _atom_site_label
 _atom_site_symmetry_multiplicity
 _atom_site_fract_x
 _atom_site_fract_y
 _atom_site_fract_z
 _atom_site_occupancy
  Ca  Ca0  1  0.44490000  0.23541528  0.75024452  1
  Ca  Ca1  1  0.55510000  0.76458472  0.24975548  1
  Ca  Ca2  1  0.94490000  0.76458472  0.74975548  1
  Ca  Ca3  1  0.05510000  0.23541528  0.25024452  1
  Sc  Sc0  1  0.00000000  0.00000000  0.00000000  1
  Sc  Sc1  1  0.50000000  0.00000000  0.50000000  1
  Pt  Pt0  1  0.00000000  0.50000000  0.50000000  1
  Pt  Pt1  1  0.50000000  0.50000000  0.00000000  1
  O  O0  1  0.03115392  0.35275055  0.74337779  1
  O  O1  1  0.96884608  0.64724945  0.25662221  1
  O  O2  1  0.53115392  0.64724945  0.75662221  1
  O  O3  1  0.46884608  0.35275055  0.24337779  1
  O  O4  1  0.69859519  0.84272563  0.94991548  1
  O  O5  1  0.30140481  0.15727437  0.05008452  1
  O  O6  1  0.19859519  0.15727437  0.55008452  1
  O  O7  1  0.80140481  0.84272563  0.44991548  1
  O  O8  1  0.20990979  0.74328870  0.94900037  1
  O  O9  1  0.79009021  0.25671130  0.05099963  1
  O  O10  1  0.70990979  0.25671130  0.55099963  1
  O  O11  1  0.29009021  0.74328870  0.44900037  1
loop_
_geom_bond_atom_site_label_1
_geom_bond_atom_site_label_2
_geom_bond_distance
_geom_bond_site_symmetry_2
Ca0 O2 2.337714 1_555
Ca0 O4 2.360045 1_545
Ca0 O10 2.368250 1_555
Ca0 O0 2.409621 1_555
Ca0 O6 2.588994 1_555
Ca0 O8 2.589865 1_545
Ca0 O11 2.745361 1_555
Ca0 O5 2.760947 1_556
Ca1 O3 2.337714 1_555
Ca1 O5 2.360045 1_565
Ca1 O11 2.368250 1_555
Ca1 O1 2.409621 1_555
Ca1 O7 2.588994 1_555
Ca1 O9 2.589865 1_565
Ca1 O10 2.745361 1_555
Ca1 O4 2.760947 1_554
Ca2 O0 2.337714 1_655
Ca2 O6 2.360045 1_665
Ca2 O8 2.368250 1_655
Ca2 O2 2.409621 1_555
Ca2 O4 2.588994 1_555
Ca2 O10 2.589865 1_565
Ca2 O9 2.745361 1_556
Ca2 O7 2.760947 1_555
Ca3 O1 2.337714 1_455
Ca3 O7 2.360045 1_445
Ca3 O9 2.368250 1_455
Ca3 O3 2.409621 1_555
Ca3 O5 2.588994 1_555
Ca3 O11 2.589865 1_545
Ca3 O8 2.745361 1_554
Ca3 O6 2.760947 1_555
O0 Pt0 1.980539 1_555
O0 Sc0 2.075196 1_556
O1 Pt0 1.980539 1_655
O1 Sc0 2.075196 1_665
O2 Pt1 1.980539 1_556
O2 Sc1 2.075196 1_565
O3 Pt1 1.980539 1_555
O3 Sc1 2.075196 1_555
O4 Pt1 1.989561 1_556
O4 Sc0 2.080346 1_666
O5 Pt1 1.989561 1_555
O5 Sc0 2.080346 1_555
O6 Pt0 1.989561 1_555
O6 Sc1 2.080346 1_555
O7 Pt0 1.989561 1_655
O7 Sc1 2.080346 1_565
O8 Pt1 1.983132 1_556
O8 Sc0 2.096017 1_566
O9 Pt1 1.983132 1_555
O9 Sc0 2.096017 1_655
O10 Pt0 1.983132 1_655
O10 Sc1 2.096017 1_555
O11 Pt0 1.983132 1_555
O11 Sc1 2.096017 1_565
