# generated using pymatgen
data_Ti9Nb3Sn9Sb
_symmetry_space_group_name_H-M   'P 1'
_cell_length_a   9.29112389
_cell_length_b   9.35724901
_cell_length_c   5.67221861
_cell_angle_alpha   90.70798473
_cell_angle_beta   89.99993947
_cell_angle_gamma   119.76657084
_symmetry_Int_Tables_number   1
_chemical_formula_structural   Ti9Nb3Sn9Sb
_chemical_formula_sum   'Ti9 Nb3 Sn9 Sb1'
_cell_volume   428.02858639
_cell_formula_units_Z   1
loop_
 _symmetry_equiv_pos_site_id
 _symmetry_equiv_pos_as_xyz
  1  'x, y, z'
loop_
 _atom_site_type_symbol
 _atom_site_label
 _atom_site_symmetry_multiplicity
 _atom_site_fract_x
 _atom_site_fract_y
 _atom_site_fract_z
 _atom_site_occupancy
  Ti  Ti0  1  0.84091619  0.68183238  0.76240595  1
  Ti  Ti1  1  0.15615138  0.84292620  0.24954355  1
  Ti  Ti2  1  0.68677482  0.84292620  0.24954455  1
  Ti  Ti3  1  0.30848985  0.15903295  0.74993007  1
  Ti  Ti4  1  0.85054310  0.15903195  0.74993007  1
  Ti  Ti5  1  0.15630675  0.31261251  0.24083822  1
  Ti  Ti6  1  0.00241040  0.50056235  0.49969020  1
  Ti  Ti7  1  0.50016786  0.00033472  0.00010288  1
  Ti  Ti8  1  0.49815294  0.50056335  0.49969020  1
  Nb  Nb0  1  0.49968494  0.99936888  0.49790581  1
  Nb  Nb1  1  0.49896466  0.50083849  0.99978256  1
  Nb  Nb2  1  0.00187383  0.50083849  0.99978156  1
  Sn  Sn0  1  0.79708185  0.20500452  0.25010304  1
  Sn  Sn1  1  0.40792367  0.20500552  0.25010304  1
  Sn  Sn2  1  0.59671813  0.79998734  0.75043851  1
  Sn  Sn3  1  0.20327022  0.79998734  0.75043851  1
  Sn  Sn4  1  0.79424541  0.58849282  0.26238694  1
  Sn  Sn5  1  0.66549525  0.33099049  0.75181767  1
  Sn  Sn6  1  0.33486526  0.66972753  0.24637671  1
  Sn  Sn7  1  0.99727467  0.99455135  0.49942214  1
  Sn  Sn8  1  0.99810238  0.99620576  0.00088367  1
  Sb  Sb0  1  0.20458943  0.40917886  0.73888716  1
loop_
_geom_bond_atom_site_label_1
_geom_bond_atom_site_label_2
_geom_bond_distance
_geom_bond_site_symmetry_2
Nb0 Ti7 2.823770 1_565
Nb0 Sn3 2.842787 1_555
Nb0 Sn2 2.842791 1_555
Nb0 Sn0 2.846183 1_565
Nb0 Sn1 2.846195 1_565
Nb0 Ti7 2.848471 1_566
Nb0 Sn6 3.015968 1_555
Nb0 Sn5 3.036366 1_565
Nb0 Ti2 3.102386 1_555
Nb0 Ti1 3.102396 1_555
Nb0 Ti4 3.164449 1_565
Nb0 Ti3 3.164456 1_565
Nb1 Ti8 2.835625 1_556
Nb1 Sb0 2.836481 1_555
Nb1 Ti8 2.836609 1_555
Nb1 Sn4 2.855472 1_556
Nb1 Sn1 2.857712 1_556
Nb1 Sn2 2.869540 1_555
Nb1 Sn6 3.019333 1_556
Nb1 Sn5 3.047069 1_555
Nb1 Ti0 3.080401 1_555
Nb1 Ti5 3.098265 1_556
Nb1 Ti3 3.104464 1_555
Nb1 Ti2 3.104854 1_556
Nb2 Ti6 2.835631 1_556
Nb2 Sb0 2.836477 1_555
Nb2 Ti6 2.836603 1_555
Nb2 Sn4 2.855489 1_456
Nb2 Sn0 2.857719 1_456
Nb2 Sn3 2.869538 1_555
Nb2 Sn6 3.019357 1_556
Nb2 Sn5 3.047067 1_455
Nb2 Ti0 3.080403 1_455
Nb2 Ti5 3.098279 1_556
Nb2 Ti4 3.104469 1_455
Nb2 Ti1 3.104855 1_556
Sn0 Ti6 2.820772 1_655
Sn0 Ti7 2.824158 1_555
Sn0 Ti4 2.943274 1_554
Sn0 Ti4 2.951616 1_555
Sn0 Ti5 2.969950 1_655
Sn0 Ti2 3.013509 1_545
Sn1 Ti8 2.820773 1_555
Sn1 Ti7 2.824166 1_555
Sn1 Ti3 2.943275 1_554
Sn1 Ti3 2.951615 1_555
Sn1 Ti5 2.969945 1_555
Sn1 Ti1 3.013517 1_545
Sn2 Ti7 2.815835 1_566
Sn2 Ti8 2.839968 1_555
Sn2 Ti2 2.917946 1_556
Sn2 Ti2 2.937387 1_555
Sn2 Ti0 2.977814 1_555
Sn2 Ti4 2.997015 1_565
Sn3 Ti7 2.815835 1_566
Sn3 Ti6 2.839975 1_555
Sn3 Ti1 2.917941 1_556
Sn3 Ti1 2.937396 1_555
Sn3 Ti0 2.977821 1_455
Sn3 Ti3 2.997026 1_565
Sn4 Ti8 2.799431 1_555
Sn4 Ti6 2.799457 1_655
Sn4 Ti0 2.925358 1_555
Sn4 Ti0 2.946001 1_554
Sn4 Ti2 3.005880 1_555
Sn4 Ti1 3.005890 1_655
Sn5 Ti0 2.849530 1_555
Sn5 Ti3 2.879516 1_555
Sn5 Ti4 2.879527 1_555
Sn5 Ti7 3.050331 1_556
Sn5 Ti6 3.079944 1_655
Sn5 Ti8 3.079949 1_555
Sn6 Ti2 2.838155 1_555
Sn6 Ti1 2.838182 1_555
Sn6 Ti5 2.900429 1_555
Sn6 Ti7 3.044587 1_565
Sn6 Ti8 3.051645 1_555
Sn6 Ti6 3.051662 1_555
Sn7 Sn8 2.828042 1_555
Sn7 Sn8 2.844240 1_556
Sn7 Ti2 2.868912 1_555
Sn7 Ti1 2.868928 1_655
Sn7 Ti4 2.876769 1_565
Sn7 Ti3 2.876790 1_665
Sn7 Ti0 2.963970 1_555
Sn7 Ti5 2.988915 1_665
Sn8 Ti0 2.872627 1_554
Sn8 Ti2 2.888617 1_555
Sn8 Ti1 2.888626 1_655
Sn8 Ti4 2.890490 1_564
Sn8 Ti3 2.890500 1_664
Sn8 Ti5 2.891036 1_665
Sb0 Ti6 2.779261 1_555
Sb0 Ti8 2.779264 1_555
Sb0 Ti5 2.921133 1_555
Sb0 Ti4 2.943099 1_455
Sb0 Ti3 2.943100 1_555
Sb0 Ti5 2.963988 1_556
