# generated using pymatgen
data_Zr3Ti2Bi3B
_symmetry_space_group_name_H-M   'P 1'
_cell_length_a   8.51786364
_cell_length_b   8.51786351
_cell_length_c   5.72243492
_cell_angle_alpha   90.00000000
_cell_angle_beta   90.00000000
_cell_angle_gamma   120.00000433
_symmetry_Int_Tables_number   1
_chemical_formula_structural   Zr3Ti2Bi3B
_chemical_formula_sum   'Zr6 Ti4 Bi6 B2'
_cell_volume   359.56121170
_cell_formula_units_Z   2
loop_
 _symmetry_equiv_pos_site_id
 _symmetry_equiv_pos_as_xyz
  1  'x, y, z'
loop_
 _atom_site_type_symbol
 _atom_site_label
 _atom_site_symmetry_multiplicity
 _atom_site_fract_x
 _atom_site_fract_y
 _atom_site_fract_z
 _atom_site_occupancy
  Zr  Zr0  1  0.77061541  0.77061541  0.25000000  1
  Zr  Zr1  1  0.22938459  0.00000000  0.25000000  1
  Zr  Zr2  1  0.00000000  0.22938459  0.25000000  1
  Zr  Zr3  1  0.22938459  0.22938459  0.75000000  1
  Zr  Zr4  1  0.77061541  0.00000000  0.75000000  1
  Zr  Zr5  1  1.00000000  0.77061541  0.75000000  1
  Ti  Ti0  1  0.66666700  0.33333300  0.50000000  1
  Ti  Ti1  1  0.33333300  0.66666700  0.50000000  1
  Ti  Ti2  1  0.33333300  0.66666700  0.00000000  1
  Ti  Ti3  1  0.66666700  0.33333300  0.00000000  1
  Bi  Bi0  1  0.40375416  0.40375416  0.25000000  1
  Bi  Bi1  1  0.59624584  1.00000000  0.25000000  1
  Bi  Bi2  1  1.00000000  0.59624584  0.25000000  1
  Bi  Bi3  1  0.59624584  0.59624584  0.75000000  1
  Bi  Bi4  1  0.40375416  0.00000000  0.75000000  1
  Bi  Bi5  1  0.00000000  0.40375416  0.75000000  1
  B  B0  1  0.00000000  0.00000000  0.50000000  1
  B  B1  1  0.00000000  0.00000000  0.00000000  1
loop_
_geom_bond_atom_site_label_1
_geom_bond_atom_site_label_2
_geom_bond_distance
_geom_bond_site_symmetry_2
Bi0 Ti1 2.960561 1_555
Bi0 Ti2 2.960561 1_555
Bi0 Ti0 2.960561 1_555
Bi0 Ti3 2.960561 1_555
Bi0 Zr1 2.987570 1_555
Bi0 Zr2 2.987570 1_555
Bi0 Zr0 3.124874 1_555
Bi0 Zr3 3.223748 1_554
Bi0 Zr3 3.223748 1_555
Bi1 Ti3 2.960553 1_565
Bi1 Ti0 2.960553 1_565
Bi1 Ti2 2.960555 1_555
Bi1 Ti1 2.960555 1_555
Bi1 Zr2 2.987570 1_665
Bi1 Zr0 2.987570 1_555
Bi1 Zr1 3.124874 1_565
Bi1 Zr4 3.223748 1_565
Bi1 Zr4 3.223748 1_564
Bi2 Ti2 2.960553 1_655
Bi2 Ti1 2.960553 1_655
Bi2 Ti3 2.960555 1_555
Bi2 Ti0 2.960555 1_555
Bi2 Zr1 2.987570 1_665
Bi2 Zr0 2.987570 1_555
Bi2 Zr2 3.124874 1_655
Bi2 Zr5 3.223748 1_555
Bi2 Zr5 3.223748 1_554
Bi3 Ti3 2.960561 1_556
Bi3 Ti0 2.960561 1_555
Bi3 Ti1 2.960561 1_555
Bi3 Ti2 2.960561 1_556
Bi3 Zr4 2.987570 1_565
Bi3 Zr5 2.987570 1_555
Bi3 Zr3 3.124874 1_555
Bi3 Zr0 3.223748 1_555
Bi3 Zr0 3.223748 1_556
Bi4 Ti2 2.960553 1_546
Bi4 Ti1 2.960553 1_545
Bi4 Ti0 2.960555 1_555
Bi4 Ti3 2.960555 1_556
Bi4 Zr5 2.987570 1_445
Bi4 Zr3 2.987570 1_555
Bi4 Zr4 3.124874 1_555
Bi4 Zr1 3.223748 1_555
Bi4 Zr1 3.223748 1_556
Bi5 Ti0 2.960553 1_455
Bi5 Ti3 2.960553 1_456
Bi5 Ti1 2.960555 1_555
Bi5 Ti2 2.960555 1_556
Bi5 Zr4 2.987570 1_455
Bi5 Zr3 2.987570 1_555
Bi5 Zr5 3.124874 1_455
Bi5 Zr2 3.223748 1_555
Bi5 Zr2 3.223748 1_556
B0 Zr3 2.421618 1_555
B0 Zr0 2.421618 1_445
B0 Zr2 2.421618 1_555
B0 Zr5 2.421618 1_445
B0 Zr1 2.421619 1_555
B0 Zr4 2.421619 1_455
B1 Zr3 2.421618 1_554
B1 Zr0 2.421618 1_445
B1 Zr2 2.421618 1_555
B1 Zr5 2.421618 1_444
B1 Zr1 2.421619 1_555
B1 Zr4 2.421619 1_454
