# generated using pymatgen
data_Y5GaBiPt
_symmetry_space_group_name_H-M   'P 1'
_cell_length_a   8.71258957
_cell_length_b   8.71259004
_cell_length_c   8.77880020
_cell_angle_alpha   125.22057854
_cell_angle_beta   125.22057795
_cell_angle_gamma   80.66440036
_symmetry_Int_Tables_number   1
_chemical_formula_structural   Y5GaBiPt
_chemical_formula_sum   'Y10 Ga2 Bi2 Pt2'
_cell_volume   430.00159880
_cell_formula_units_Z   2
loop_
 _symmetry_equiv_pos_site_id
 _symmetry_equiv_pos_as_xyz
  1  'x, y, z'
loop_
 _atom_site_type_symbol
 _atom_site_label
 _atom_site_symmetry_multiplicity
 _atom_site_fract_x
 _atom_site_fract_y
 _atom_site_fract_z
 _atom_site_occupancy
  Y  Y0  1  0.00000000  0.00000000  0.00000000  1
  Y  Y1  1  0.50000000  0.50000000  0.00000000  1
  Y  Y2  1  0.78607751  0.28607751  0.79734291  1
  Y  Y3  1  0.21392249  0.71392249  0.20265709  1
  Y  Y4  1  0.48873460  0.98873460  0.20265709  1
  Y  Y5  1  0.30060801  0.47083750  0.50000000  1
  Y  Y6  1  0.02916250  0.19939199  0.50000000  1
  Y  Y7  1  0.51126540  0.01126540  0.79734291  1
  Y  Y8  1  0.69939199  0.52916250  0.50000000  1
  Y  Y9  1  0.97083750  0.80060801  0.50000000  1
  Ga  Ga0  1  0.13983310  0.63983310  0.77966719  1
  Ga  Ga1  1  0.86016690  0.36016690  0.22033281  1
  Bi  Bi0  1  0.25000000  0.25000000  0.00000000  1
  Bi  Bi1  1  0.75000000  0.75000000  0.00000000  1
  Pt  Pt0  1  0.63659435  0.86340565  0.50000000  1
  Pt  Pt1  1  0.36340565  0.13659435  0.50000000  1
loop_
_geom_bond_atom_site_label_1
_geom_bond_atom_site_label_2
_geom_bond_distance
_geom_bond_site_symmetry_2
Ga0 Y3 3.037733 1_556
Ga0 Y4 3.037741 1_556
Ga0 Y8 3.047259 1_455
Ga0 Y6 3.047259 1_555
Ga0 Y5 3.047267 1_555
Ga0 Y9 3.047267 1_455
Ga0 Y1 3.090198 1_556
Ga0 Y0 3.090198 1_566
Ga1 Y2 3.037733 1_554
Ga1 Y7 3.037741 1_554
Ga1 Y5 3.047259 1_655
Ga1 Y9 3.047259 1_555
Ga1 Y8 3.047267 1_555
Ga1 Y6 3.047267 1_655
Ga1 Y1 3.090198 1_555
Ga1 Y0 3.090198 1_655
Bi0 Y1 3.320824 1_555
Bi0 Y0 3.320824 1_555
Bi0 Y8 3.385949 1_555
Bi0 Y9 3.385949 1_444
Bi0 Y5 3.385950 1_555
Bi0 Y6 3.385950 1_554
Bi0 Y2 3.397028 1_454
Bi0 Y7 3.397028 1_554
Bi0 Y3 3.397028 1_555
Bi0 Y4 3.397028 1_545
Bi1 Y0 3.320824 1_665
Bi1 Y1 3.320824 1_555
Bi1 Y5 3.385949 1_554
Bi1 Y6 3.385949 1_665
Bi1 Y8 3.385950 1_554
Bi1 Y9 3.385950 1_555
Bi1 Y3 3.397028 1_655
Bi1 Y4 3.397028 1_555
Bi1 Y2 3.397028 1_554
Bi1 Y7 3.397028 1_564
Pt0 Y9 2.874524 1_555
Pt0 Y8 2.874524 1_555
Pt0 Y3 2.935681 1_555
Pt0 Y2 2.935681 1_565
Pt0 Y7 2.935681 1_565
Pt0 Y4 2.935681 1_555
Pt0 Y0 3.142410 1_666
Pt0 Y1 3.142410 1_555
Pt1 Y6 2.874524 1_555
Pt1 Y5 2.874524 1_555
Pt1 Y2 2.935681 1_555
Pt1 Y3 2.935681 1_545
Pt1 Y4 2.935681 1_545
Pt1 Y7 2.935681 1_555
Pt1 Y0 3.142410 1_555
Pt1 Y1 3.142410 1_556
