# generated using pymatgen
data_VCdBr18
_symmetry_space_group_name_H-M   'P 1'
_cell_length_a   9.16149698
_cell_length_b   9.10900072
_cell_length_c   8.95105923
_cell_angle_alpha   87.52618061
_cell_angle_beta   87.13322447
_cell_angle_gamma   87.75379632
_symmetry_Int_Tables_number   1
_chemical_formula_structural   VCdBr18
_chemical_formula_sum   'V1 Cd1 Br18'
_cell_volume   744.84084871
_cell_formula_units_Z   1
loop_
 _symmetry_equiv_pos_site_id
 _symmetry_equiv_pos_as_xyz
  1  'x, y, z'
loop_
 _atom_site_type_symbol
 _atom_site_label
 _atom_site_symmetry_multiplicity
 _atom_site_fract_x
 _atom_site_fract_y
 _atom_site_fract_z
 _atom_site_occupancy
  V  V0  1  0.50000000  0.50000000  0.50000000  1
  Cd  Cd0  1  0.00000000  0.00000000  0.00000000  1
  Br  Br0  1  0.77100161  0.48323273  0.49085447  1
  Br  Br1  1  0.49612432  0.77098002  0.46957565  1
  Br  Br2  1  0.48974786  0.50978608  0.77751769  1
  Br  Br3  1  0.22899839  0.51676727  0.50914553  1
  Br  Br4  1  0.50387568  0.22901998  0.53042435  1
  Br  Br5  1  0.51025214  0.49021392  0.22248231  1
  Br  Br6  1  0.89209004  0.37961267  0.73972443  1
  Br  Br7  1  0.74651918  0.89893688  0.38523972  1
  Br  Br8  1  0.38230068  0.75534399  0.89809554  1
  Br  Br9  1  0.10790996  0.62038733  0.26027557  1
  Br  Br10  1  0.25348082  0.10106312  0.61476028  1
  Br  Br11  1  0.61769932  0.24465601  0.10190446  1
  Br  Br12  1  0.03859841  0.95968491  0.69350101  1
  Br  Br13  1  0.69943043  0.02639533  0.96399033  1
  Br  Br14  1  0.96886200  0.69798731  0.03932491  1
  Br  Br15  1  0.96140159  0.04031509  0.30649899  1
  Br  Br16  1  0.30056957  0.97360467  0.03600967  1
  Br  Br17  1  0.03113800  0.30201269  0.96067509  1
loop_
_geom_bond_atom_site_label_1
_geom_bond_atom_site_label_2
_geom_bond_distance
_geom_bond_site_symmetry_2
Br0 V0 2.478962 1_555
Br0 Br6 2.658494 1_555
Br1 V0 2.470684 1_555
Br1 Br7 2.674174 1_555
Br2 V0 2.486469 1_555
Br2 Br8 2.658315 1_555
Br3 V0 2.478962 1_555
Br3 Br9 2.658494 1_555
Br4 V0 2.470684 1_555
Br5 V0 2.486469 1_555
Br10 Br12 2.452014 1_545
Br10 Br4 2.674174 1_555
Br11 Br13 2.457643 1_554
Br11 Br5 2.658315 1_555
Br12 Cd0 2.786826 1_566
Br13 Cd0 2.788293 1_656
Br14 Br9 2.468734 1_655
Br14 Cd0 2.782328 1_665
Br15 Br7 2.452014 1_545
Br15 Cd0 2.786826 1_655
Br16 Br8 2.457643 1_554
Br16 Cd0 2.788293 1_565
Br17 Br6 2.468734 1_455
Br17 Cd0 2.782328 1_556
