# generated using pymatgen
data_LiTi(InRh2)2
_symmetry_space_group_name_H-M   'P 1'
_cell_length_a   4.40150934
_cell_length_b   4.40150934
_cell_length_c   6.25150912
_cell_angle_alpha   90.00000000
_cell_angle_beta   90.00000000
_cell_angle_gamma   90.00000000
_symmetry_Int_Tables_number   1
_chemical_formula_structural   LiTi(InRh2)2
_chemical_formula_sum   'Li1 Ti1 In2 Rh4'
_cell_volume   121.11226474
_cell_formula_units_Z   1
loop_
 _symmetry_equiv_pos_site_id
 _symmetry_equiv_pos_as_xyz
  1  'x, y, z'
loop_
 _atom_site_type_symbol
 _atom_site_label
 _atom_site_symmetry_multiplicity
 _atom_site_fract_x
 _atom_site_fract_y
 _atom_site_fract_z
 _atom_site_occupancy
  Li  Li0  1  0.50000000  0.50000000  0.00000000  1
  Ti  Ti0  1  0.00000000  0.00000000  0.50000100  1
  In  In0  1  0.00000000  0.00000000  0.00000000  1
  In  In1  1  0.50000000  0.50000000  0.50000100  1
  Rh  Rh0  1  0.50000000  0.00000000  0.25365781  1
  Rh  Rh1  1  0.00000000  0.50000000  0.25365781  1
  Rh  Rh2  1  0.50000000  0.00000000  0.74634219  1
  Rh  Rh3  1  0.00000000  0.50000000  0.74634219  1
loop_
_geom_bond_atom_site_label_1
_geom_bond_atom_site_label_2
_geom_bond_distance
_geom_bond_site_symmetry_2
Li0 Rh1 2.712546 1_655
Li0 Rh1 2.712546 1_555
Li0 Rh0 2.712546 1_565
Li0 Rh0 2.712546 1_555
Li0 Rh3 2.712546 1_654
Li0 Rh2 2.712546 1_554
Li0 Rh3 2.712546 1_554
Li0 Rh2 2.712546 1_564
In0 Rh0 2.712546 1_455
In0 Rh1 2.712546 1_555
In0 Rh0 2.712546 1_555
In0 Rh1 2.712546 1_545
In0 Rh3 2.712546 1_544
In0 Rh2 2.712546 1_554
In0 Rh2 2.712546 1_454
In0 Rh3 2.712546 1_554
In1 Rh2 2.686063 1_555
In1 Rh3 2.686063 1_555
In1 Rh3 2.686063 1_655
In1 Rh2 2.686063 1_565
In1 Rh0 2.686070 1_555
In1 Rh1 2.686070 1_555
In1 Rh1 2.686070 1_655
In1 Rh0 2.686070 1_565
Rh0 Ti0 2.686070 1_555
Rh0 Ti0 2.686070 1_655
Rh1 Ti0 2.686070 1_555
Rh1 Ti0 2.686070 1_565
Rh2 Ti0 2.686063 1_555
Rh2 Ti0 2.686063 1_655
Rh3 Ti0 2.686063 1_555
Rh3 Ti0 2.686063 1_565
