# generated using pymatgen
data_Al2GaSi13Ir12
_symmetry_space_group_name_H-M   'P 1'
_cell_length_a   3.62569959
_cell_length_b   5.89923874
_cell_length_c   19.19227681
_cell_angle_alpha   90.03698251
_cell_angle_beta   90.00000000
_cell_angle_gamma   90.00000000
_symmetry_Int_Tables_number   1
_chemical_formula_structural   Al2GaSi13Ir12
_chemical_formula_sum   'Al2 Ga1 Si13 Ir12'
_cell_volume   410.50098034
_cell_formula_units_Z   1
loop_
 _symmetry_equiv_pos_site_id
 _symmetry_equiv_pos_as_xyz
  1  'x, y, z'
loop_
 _atom_site_type_symbol
 _atom_site_label
 _atom_site_symmetry_multiplicity
 _atom_site_fract_x
 _atom_site_fract_y
 _atom_site_fract_z
 _atom_site_occupancy
  Al  Al0  1  0.75000000  0.01869807  0.54927906  1
  Al  Al1  1  0.75000000  0.47567377  0.04938638  1
  Ga  Ga0  1  0.25000000  0.98136613  0.45130189  1
  Si  Si0  1  0.25000000  0.52220991  0.95091207  1
  Si  Si1  1  0.25000000  0.08157697  0.91011146  1
  Si  Si2  1  0.75000000  0.91659509  0.08916807  1
  Si  Si3  1  0.75000000  0.57941076  0.58879933  1
  Si  Si4  1  0.25000000  0.42114214  0.41113531  1
  Si  Si5  1  0.25000000  0.72755665  0.26976823  1
  Si  Si6  1  0.75000000  0.27279022  0.72992836  1
  Si  Si7  1  0.75000000  0.22603962  0.22976557  1
  Si  Si8  1  0.25000000  0.77778118  0.76964773  1
  Si  Si9  1  0.25000000  0.38669508  0.14173528  1
  Si  Si10  1  0.75000000  0.61645935  0.85754208  1
  Si  Si11  1  0.75000000  0.88784021  0.35847852  1
  Si  Si12  1  0.25000000  0.11259138  0.64166333  1
  Ir  Ir0  1  0.25000000  0.39413318  0.82726516  1
  Ir  Ir1  1  0.75000000  0.61053423  0.17542709  1
  Ir  Ir2  1  0.75000000  0.88670262  0.67625947  1
  Ir  Ir3  1  0.25000000  0.11291008  0.32270933  1
  Ir  Ir4  1  0.25000000  0.49235842  0.67969834  1
  Ir  Ir5  1  0.75000000  0.50682621  0.32185528  1
  Ir  Ir6  1  0.75000000  0.99787201  0.82350549  1
  Ir  Ir7  1  0.25000000  0.00537805  0.17592373  1
  Ir  Ir8  1  0.25000000  0.32652784  0.53562996  1
  Ir  Ir9  1  0.75000000  0.67100271  0.46547199  1
  Ir  Ir10  1  0.75000000  0.80784551  0.96621368  1
  Ir  Ir11  1  0.25000000  0.18348460  0.03141480  1
loop_
_geom_bond_atom_site_label_1
_geom_bond_atom_site_label_2
_geom_bond_distance
_geom_bond_site_symmetry_2
Al0 Ir2 2.558898 1_545
Al0 Ir8 2.579414 1_555
Al0 Ir8 2.579414 1_655
Al0 Si12 2.595326 1_655
Al0 Si12 2.595326 1_555
Al0 Ir9 2.605766 1_545
Al0 Ga0 2.621128 1_545
Al0 Ga0 2.621128 1_645
Al0 Si3 2.700649 1_545
Al1 Ir11 2.525023 1_655
Al1 Ir11 2.525023 1_555
Al1 Ir10 2.528241 1_554
Al1 Ir1 2.545988 1_555
Al1 Si9 2.589305 1_655
Al1 Si9 2.589305 1_555
Al1 Si0 2.633317 1_654
Al1 Si0 2.633317 1_554
Al1 Si2 2.710368 1_555
Ga0 Ir3 2.587587 1_565
Ga0 Ir9 2.590994 1_455
Ga0 Ir9 2.590994 1_555
Ga0 Ir8 2.600230 1_565
Ga0 Si11 2.600630 1_555
Ga0 Si11 2.600630 1_455
Ga0 Si4 2.706930 1_565
Si0 Si10 2.609224 1_555
Si0 Si10 2.609224 1_455
Si0 Si1 2.714300 1_555
Si11 Si5 2.660281 1_655
Si11 Si5 2.660281 1_555
Ir0 Si10 2.311552 1_455
Ir0 Si10 2.311552 1_555
Ir0 Si1 2.435503 1_555
Ir0 Si0 2.489978 1_555
Ir0 Si8 2.519576 1_555
Ir0 Si6 2.699438 1_555
Ir0 Si6 2.699438 1_455
Ir1 Si9 2.333905 1_655
Ir1 Si9 2.333905 1_555
Ir1 Si2 2.450405 1_555
Ir1 Si7 2.497098 1_555
Ir1 Si5 2.653250 1_555
Ir1 Si5 2.653250 1_655
Ir2 Si12 2.346099 1_565
Ir2 Si12 2.346099 1_665
Ir2 Si3 2.469784 1_555
Ir2 Si6 2.499099 1_565
Ir2 Si8 2.629305 1_555
Ir2 Si8 2.629305 1_655
Ir3 Si11 2.349844 1_545
Ir3 Si11 2.349844 1_445
Ir3 Si4 2.486462 1_555
Ir3 Si5 2.489428 1_545
Ir3 Si7 2.629697 1_455
Ir3 Si7 2.629697 1_555
Ir4 Si12 2.355815 1_555
Ir4 Si8 2.410722 1_555
Ir4 Si6 2.427993 1_555
Ir4 Si6 2.427993 1_455
Ir4 Si3 2.568033 1_455
Ir4 Si3 2.568033 1_555
Ir5 Si11 2.354597 1_555
Ir5 Si7 2.421511 1_555
Ir5 Si5 2.446020 1_655
Ir5 Si5 2.446020 1_555
Ir5 Si4 2.545404 1_555
Ir5 Si4 2.545404 1_655
Ir6 Si10 2.343356 1_555
Ir6 Si6 2.420638 1_565
Ir6 Si8 2.457415 1_655
Ir6 Si8 2.457415 1_555
Ir6 Si1 2.508385 1_565
Ir6 Si1 2.508385 1_665
Ir7 Si9 2.343631 1_555
Ir7 Si5 2.435948 1_545
Ir7 Si7 2.459067 1_455
Ir7 Si7 2.459067 1_555
Ir7 Si2 2.516340 1_445
Ir7 Si2 2.516340 1_545
Ir8 Si12 2.395293 1_555
Ir8 Si4 2.454013 1_555
Ir8 Si3 2.559546 1_455
Ir8 Si3 2.559546 1_555
Ir9 Si11 2.419986 1_555
Ir9 Si3 2.428162 1_555
Ir9 Si4 2.558242 1_655
Ir9 Si4 2.558242 1_555
Ir10 Si10 2.370998 1_555
Ir10 Si2 2.445027 1_556
Ir10 Si0 2.492261 1_555
Ir10 Si0 2.492261 1_655
Ir10 Si1 2.656241 1_565
Ir10 Si1 2.656241 1_665
Ir11 Si1 2.404079 1_554
Ir11 Si9 2.432443 1_555
Ir11 Si0 2.526657 1_554
Ir11 Si2 2.645022 1_445
Ir11 Si2 2.645022 1_545
