# generated using pymatgen
data_Lu16MgAg3Pt4
_symmetry_space_group_name_H-M   'P 1'
_cell_length_a   9.37632021
_cell_length_b   9.34957472
_cell_length_c   9.34957446
_cell_angle_alpha   59.99999746
_cell_angle_beta   60.09431102
_cell_angle_gamma   60.09431876
_symmetry_Int_Tables_number   1
_chemical_formula_structural   Lu16MgAg3Pt4
_chemical_formula_sum   'Lu16 Mg1 Ag3 Pt4'
_cell_volume   580.38846672
_cell_formula_units_Z   1
loop_
 _symmetry_equiv_pos_site_id
 _symmetry_equiv_pos_as_xyz
  1  'x, y, z'
loop_
 _atom_site_type_symbol
 _atom_site_label
 _atom_site_symmetry_multiplicity
 _atom_site_fract_x
 _atom_site_fract_y
 _atom_site_fract_z
 _atom_site_occupancy
  Lu  Lu0  1  0.35459168  0.35130575  0.35130575  1
  Lu  Lu1  1  0.35459168  0.35130575  0.94279782  1
  Lu  Lu2  1  0.35459168  0.94279782  0.35130575  1
  Lu  Lu3  1  0.92297727  0.35900858  0.35900858  1
  Lu  Lu4  1  0.80835191  0.19140132  0.19140132  1
  Lu  Lu5  1  0.18971931  0.81164050  0.81164050  1
  Lu  Lu6  1  0.18971931  0.81164050  0.18700068  1
  Lu  Lu7  1  0.80835191  0.19140132  0.80884445  1
  Lu  Lu8  1  0.18971931  0.18700068  0.81164050  1
  Lu  Lu9  1  0.80835191  0.80884445  0.19140132  1
  Lu  Lu10  1  0.93107448  0.56488318  0.56488318  1
  Lu  Lu11  1  0.56465898  0.93469405  0.93469405  1
  Lu  Lu12  1  0.56465898  0.93469405  0.56595193  1
  Lu  Lu13  1  0.93107448  0.56488318  0.93915815  1
  Lu  Lu14  1  0.56465898  0.56595193  0.93469405  1
  Lu  Lu15  1  0.93107448  0.93915815  0.56488318  1
  Mg  Mg0  1  0.28935904  0.57021332  0.57021332  1
  Ag  Ag0  1  0.58352774  0.58497436  0.58497436  1
  Ag  Ag1  1  0.58352774  0.58497436  0.24652253  1
  Ag  Ag2  1  0.58352774  0.24652253  0.58497436  1
  Pt  Pt0  1  0.14004720  0.14589312  0.14589312  1
  Pt  Pt1  1  0.14004720  0.14589312  0.56816556  1
  Pt  Pt2  1  0.14004720  0.56816556  0.14589312  1
  Pt  Pt3  1  0.57174577  0.14275141  0.14275141  1
loop_
_geom_bond_atom_site_label_1
_geom_bond_atom_site_label_2
_geom_bond_distance
_geom_bond_site_symmetry_2
Lu0 Pt3 2.763016 1_555
Lu0 Pt1 2.781619 1_555
Lu0 Pt2 2.781619 1_555
Lu0 Mg0 3.231782 1_555
Lu0 Lu14 3.399042 1_554
Lu0 Lu12 3.399042 1_545
Lu0 Lu10 3.452172 1_455
Lu1 Pt3 2.763010 1_556
Lu1 Pt2 2.781606 1_556
Lu1 Pt0 2.781619 1_556
Lu1 Mg0 3.231798 1_555
Lu1 Lu14 3.399031 1_555
Lu1 Lu11 3.399048 1_545
Lu1 Lu13 3.452177 1_455
Lu2 Pt3 2.763009 1_565
Lu2 Pt1 2.781606 1_565
Lu2 Pt0 2.781619 1_565
Lu2 Mg0 3.231798 1_555
Lu3 Pt2 2.822276 1_655
Lu3 Pt1 2.822276 1_655
Lu3 Pt0 2.822302 1_655
Lu3 Lu7 3.446842 1_555
Lu3 Lu9 3.446843 1_555
Lu3 Lu4 3.446874 1_555
Lu4 Pt3 2.748606 1_555
Lu4 Pt0 2.752579 1_655
Lu5 Pt2 2.767143 1_556
Lu5 Pt1 2.767143 1_565
Lu5 Mg0 3.457254 1_555
Lu6 Pt0 2.767137 1_565
Lu6 Pt2 2.767155 1_555
Lu6 Mg0 3.457238 1_555
Lu7 Pt3 2.748612 1_556
Lu7 Pt1 2.752579 1_655
Lu8 Pt0 2.767137 1_556
Lu8 Pt1 2.767155 1_555
Lu8 Mg0 3.457238 1_555
Lu9 Pt3 2.748613 1_565
Lu9 Pt2 2.752579 1_655
Lu10 Lu3 3.378200 1_555
Lu10 Pt2 3.387029 1_655
Lu10 Pt1 3.387030 1_655
Lu10 Mg0 3.409814 1_655
Lu10 Lu14 3.451626 1_555
Lu10 Lu12 3.451627 1_555
Lu10 Lu7 3.484933 1_555
Lu10 Lu9 3.484933 1_555
Lu10 Lu13 3.499312 1_555
Lu10 Lu15 3.499312 1_555
Lu10 Lu6 3.545507 1_655
Lu10 Lu8 3.545507 1_655
Lu11 Lu2 3.399048 1_556
Lu11 Pt3 3.407956 1_566
Lu11 Pt0 3.445265 1_566
Lu11 Lu12 3.447582 1_555
Lu11 Lu14 3.447582 1_555
Lu11 Lu15 3.451626 1_555
Lu11 Lu13 3.451627 1_555
Lu11 Lu6 3.506734 1_556
Lu11 Lu8 3.506735 1_565
Lu11 Lu7 3.511332 1_565
Lu11 Lu9 3.511333 1_556
Lu12 Lu2 3.399032 1_555
Lu12 Pt3 3.407947 1_565
Lu12 Pt1 3.445265 1_565
Lu12 Lu14 3.447582 1_555
Lu12 Lu15 3.451627 1_555
Lu12 Lu5 3.506734 1_555
Lu12 Lu8 3.506744 1_565
Lu12 Lu4 3.511332 1_565
Lu12 Lu9 3.511333 1_555
Lu13 Lu3 3.378232 1_556
Lu13 Pt2 3.387030 1_656
Lu13 Pt0 3.387030 1_656
Lu13 Mg0 3.409813 1_655
Lu13 Lu14 3.451627 1_555
Lu13 Lu4 3.484933 1_556
Lu13 Lu9 3.484933 1_556
Lu13 Lu15 3.499312 1_555
Lu13 Lu8 3.545498 1_655
Lu13 Lu5 3.545513 1_655
Lu14 Pt3 3.407947 1_556
Lu14 Pt2 3.445265 1_556
Lu14 Lu5 3.506735 1_555
Lu14 Lu6 3.506744 1_556
Lu14 Lu4 3.511333 1_556
Lu14 Lu7 3.511333 1_555
Lu15 Lu3 3.378232 1_565
Lu15 Pt0 3.387029 1_665
Lu15 Pt1 3.387030 1_665
Lu15 Mg0 3.409814 1_655
Lu15 Lu2 3.452177 1_655
Lu15 Lu4 3.484933 1_565
Lu15 Lu7 3.484933 1_565
Lu15 Lu6 3.545498 1_655
Lu15 Lu5 3.545513 1_655
Ag0 Mg0 2.902424 1_555
Ag0 Lu10 3.082901 1_555
Ag0 Lu14 3.102755 1_555
Ag0 Lu12 3.102755 1_555
Ag0 Ag1 3.164381 1_555
Ag0 Ag2 3.164381 1_555
Ag0 Lu3 3.179678 1_555
Ag0 Lu1 3.283219 1_555
Ag0 Lu2 3.283219 1_555
Ag0 Lu9 3.365723 1_555
Ag0 Lu7 3.365724 1_555
Ag0 Lu5 3.391463 1_555
Ag1 Mg0 2.902424 1_555
Ag1 Lu13 3.082901 1_554
Ag1 Lu11 3.102755 1_554
Ag1 Lu14 3.102755 1_554
Ag1 Ag2 3.164381 1_555
Ag1 Lu3 3.179696 1_555
Ag1 Lu0 3.283212 1_555
Ag1 Lu2 3.283228 1_555
Ag1 Lu9 3.365723 1_555
Ag1 Lu4 3.365724 1_555
Ag1 Lu6 3.391456 1_555
Ag2 Mg0 2.902424 1_555
Ag2 Lu15 3.082901 1_545
Ag2 Lu11 3.102755 1_545
Ag2 Lu12 3.102755 1_545
Ag2 Lu3 3.179696 1_555
Ag2 Lu0 3.283212 1_555
Ag2 Lu1 3.283228 1_555
Ag2 Lu4 3.365723 1_555
Ag2 Lu7 3.365724 1_555
Ag2 Lu8 3.391455 1_555
