# generated using pymatgen
data_V9B4MoAs2
_symmetry_space_group_name_H-M   'P 1'
_cell_length_a   5.80774828
_cell_length_b   5.80774339
_cell_length_c   6.79782482
_cell_angle_alpha   115.29282841
_cell_angle_beta   115.29273496
_cell_angle_gamma   90.25461888
_symmetry_Int_Tables_number   1
_chemical_formula_structural   V9B4MoAs2
_chemical_formula_sum   'V9 B4 Mo1 As2'
_cell_volume   182.46690949
_cell_formula_units_Z   1
loop_
 _symmetry_equiv_pos_site_id
 _symmetry_equiv_pos_as_xyz
  1  'x, y, z'
loop_
 _atom_site_type_symbol
 _atom_site_label
 _atom_site_symmetry_multiplicity
 _atom_site_fract_x
 _atom_site_fract_y
 _atom_site_fract_z
 _atom_site_occupancy
  V  V0  1  0.50095365  0.49935389  0.00083538  1
  V  V1  1  0.99935329  0.00095428  0.00083558  1
  V  V2  1  0.69602275  0.19602209  0.73049521  1
  V  V3  1  0.19657048  0.03174845  0.72774340  1
  V  V4  1  0.53175061  0.69656863  0.72774195  1
  V  V5  1  0.96924735  0.46924580  0.27334636  1
  V  V6  1  0.30215471  0.80215514  0.27152741  1
  V  V7  1  0.80422705  0.97015678  0.27166631  1
  V  V8  1  0.47015682  0.30422817  0.27166975  1
  B  B0  1  0.61588652  0.11588674  0.99970297  1
  B  B1  1  0.38639618  0.88639755  0.00161133  1
  B  B2  1  0.88122873  0.61808170  0.00360649  1
  B  B3  1  0.11808123  0.38122756  0.00360590  1
  Mo  Mo0  1  0.02832032  0.52832341  0.72405776  1
  As  As0  1  0.25453745  0.24510952  0.49577993  1
  As  As1  1  0.74511188  0.75453928  0.49577527  1
loop_
_geom_bond_atom_site_label_1
_geom_bond_atom_site_label_2
_geom_bond_distance
_geom_bond_site_symmetry_2
V0 V8 2.601575 1_555
V0 V3 2.606094 1_554
V0 V2 2.606644 1_554
V0 V5 2.614403 1_555
V0 V7 2.617830 1_555
V0 V6 2.622980 1_555
V0 V4 2.624703 1_554
V1 V7 2.601556 1_545
V1 V4 2.606090 1_544
V1 V2 2.606640 1_554
V1 V5 2.614384 1_555
V1 V8 2.617835 1_655
V1 V6 2.622983 1_645
V1 V3 2.624699 1_654
B0 B1 1.888581 1_546
B0 V7 2.224411 1_546
B0 V8 2.224427 1_556
B0 V3 2.226572 1_555
B0 V4 2.226582 1_545
B0 V2 2.288195 1_555
B0 V5 2.306960 1_556
B0 V1 2.325606 1_556
B0 V0 2.325608 1_556
B1 V7 2.217037 1_555
B1 V8 2.217037 1_565
B1 V3 2.234133 1_564
B1 V4 2.234156 1_554
B1 V6 2.318927 1_555
B1 Mo0 2.337824 1_554
B1 V1 2.345560 1_465
B1 V0 2.345564 1_555
B2 B3 1.949687 1_655
B2 V5 2.219934 1_555
B2 V6 2.223673 1_655
B2 V2 2.234680 1_554
B2 Mo0 2.270991 1_654
B2 V7 2.285205 1_555
B2 V0 2.300716 1_555
B2 V4 2.308755 1_554
B2 V1 2.334264 1_565
B3 V5 2.219928 1_455
B3 V6 2.223678 1_555
B3 V2 2.234677 1_454
B3 Mo0 2.271004 1_554
B3 V8 2.285217 1_555
B3 V1 2.300708 1_455
B3 V3 2.308754 1_554
B3 V0 2.334266 1_555
Mo0 V1 2.639018 1_466
Mo0 V0 2.639038 1_556
Mo0 V2 2.749955 1_455
Mo0 V5 2.797345 1_455
As0 V6 2.456414 1_545
As0 V8 2.465825 1_555
As0 V2 2.469974 1_555
As0 V7 2.488013 1_445
As0 V4 2.492698 1_555
As0 V3 2.500959 1_555
As0 V5 2.507271 1_455
As0 Mo0 2.533754 1_555
As0 V1 2.677899 1_455
As0 V0 2.732528 1_556
As1 V6 2.456420 1_555
As1 V7 2.465801 1_555
As1 V2 2.469971 1_565
As1 V8 2.488025 1_555
As1 V3 2.492685 1_665
As1 V4 2.500988 1_555
As1 V5 2.507256 1_555
As1 Mo0 2.533756 1_655
As1 V0 2.677875 1_555
As1 V1 2.732554 1_566
