# generated using pymatgen
data_Cs2NaPO4
_symmetry_space_group_name_H-M   'P 1'
_cell_length_a   6.94903866
_cell_length_b   6.94903797
_cell_length_c   8.17801490
_cell_angle_alpha   90.00000000
_cell_angle_beta   90.00000000
_cell_angle_gamma   128.81588129
_symmetry_Int_Tables_number   1
_chemical_formula_structural   Cs2NaPO4
_chemical_formula_sum   'Cs4 Na2 P2 O8'
_cell_volume   307.69917326
_cell_formula_units_Z   2
loop_
 _symmetry_equiv_pos_site_id
 _symmetry_equiv_pos_as_xyz
  1  'x, y, z'
loop_
 _atom_site_type_symbol
 _atom_site_label
 _atom_site_symmetry_multiplicity
 _atom_site_fract_x
 _atom_site_fract_y
 _atom_site_fract_z
 _atom_site_occupancy
  Cs  Cs0  1  0.39678290  0.60321710  0.54911017  1
  Cs  Cs1  1  0.60321710  0.39678290  0.04911017  1
  Cs  Cs2  1  0.06747440  0.93252560  0.39108151  1
  Cs  Cs3  1  0.93252560  0.06747440  0.89108151  1
  Na  Na0  1  0.20231517  0.79768483  0.81812001  1
  Na  Na1  1  0.79768483  0.20231517  0.31812001  1
  P  P0  1  0.67353185  0.32646815  0.60573972  1
  P  P1  1  0.32646815  0.67353185  0.10573972  1
  O  O0  1  0.15785261  0.42232762  0.19498098  1
  O  O1  1  0.84214739  0.57767238  0.69498098  1
  O  O2  1  0.36939370  0.63060630  0.92737555  1
  O  O3  1  0.63060630  0.36939370  0.42737555  1
  O  O4  1  0.57767238  0.84214739  0.19498098  1
  O  O5  1  0.42232762  0.15785261  0.69498098  1
  O  O6  1  0.79732796  0.20267204  0.59761108  1
  O  O7  1  0.20267204  0.79732796  0.09761108  1
loop_
_geom_bond_atom_site_label_1
_geom_bond_atom_site_label_2
_geom_bond_distance
_geom_bond_site_symmetry_2
Cs0 O3 3.095343 1_555
Cs0 O2 3.112452 1_555
Cs0 O4 3.179247 1_555
Cs0 O0 3.179247 1_555
Cs0 O6 3.274396 1_565
Cs0 O6 3.274397 1_455
Cs0 Na0 3.283534 1_555
Cs0 O5 3.423659 1_555
Cs0 O1 3.423659 1_555
Cs1 O2 3.095343 1_554
Cs1 O3 3.112452 1_555
Cs1 O5 3.179247 1_554
Cs1 O1 3.179247 1_554
Cs1 O7 3.274396 1_545
Cs1 O7 3.274397 1_655
Cs1 Na1 3.283534 1_555
Cs1 O4 3.423659 1_555
Cs1 O0 3.423659 1_555
Cs2 O7 2.938000 1_555
Cs2 O3 3.118425 1_455
Cs2 O3 3.118426 1_565
Cs2 O1 3.141435 1_455
Cs2 O5 3.141435 1_565
Cs2 O0 3.445484 1_565
Cs2 O4 3.445484 1_455
Cs3 O6 2.938000 1_555
Cs3 O2 3.118425 1_655
Cs3 O2 3.118426 1_545
Cs3 O0 3.141435 1_656
Cs3 O4 3.141435 1_546
Cs3 O1 3.445484 1_545
Cs3 O5 3.445484 1_655
Na0 O5 2.195138 1_565
Na0 O1 2.195138 1_455
Na0 O2 2.276894 1_555
Na0 O7 2.285687 1_556
Na1 O4 2.195138 1_545
Na1 O0 2.195138 1_655
Na1 O3 2.276894 1_555
Na1 O6 2.285687 1_555
O0 P1 1.545509 1_555
O1 P0 1.545509 1_555
O2 P1 1.554736 1_556
O3 P0 1.554736 1_555
O4 P1 1.545509 1_555
O5 P0 1.545509 1_555
O6 P0 1.553154 1_555
O7 P1 1.553154 1_555
