# generated using pymatgen
data_BaSr2BiPb4
_symmetry_space_group_name_H-M   'P 1'
_cell_length_a   9.23807582
_cell_length_b   9.23807701
_cell_length_c   9.37766685
_cell_angle_alpha   119.85477683
_cell_angle_beta   119.85478105
_cell_angle_gamma   89.38976028
_symmetry_Int_Tables_number   1
_chemical_formula_structural   BaSr2BiPb4
_chemical_formula_sum   'Ba2 Sr4 Bi2 Pb8'
_cell_volume   571.28228232
_cell_formula_units_Z   2
loop_
 _symmetry_equiv_pos_site_id
 _symmetry_equiv_pos_as_xyz
  1  'x, y, z'
loop_
 _atom_site_type_symbol
 _atom_site_label
 _atom_site_symmetry_multiplicity
 _atom_site_fract_x
 _atom_site_fract_y
 _atom_site_fract_z
 _atom_site_occupancy
  Ba  Ba0  1  0.66547438  0.83452562  0.50000000  1
  Ba  Ba1  1  0.33452562  0.16547438  0.50000000  1
  Sr  Sr0  1  0.25000000  0.25000000  0.00000000  1
  Sr  Sr1  1  0.75000000  0.75000000  0.00000000  1
  Sr  Sr2  1  0.16414792  0.66414792  0.82829584  1
  Sr  Sr3  1  0.83585208  0.33585208  0.17170416  1
  Bi  Bi0  1  0.00000000  0.00000000  0.00000000  1
  Bi  Bi1  1  0.50000000  0.50000000  0.00000000  1
  Pb  Pb0  1  0.83554938  0.33554938  0.79798641  1
  Pb  Pb1  1  0.16445062  0.66445062  0.20201359  1
  Pb  Pb2  1  0.53756396  0.03756396  0.20201359  1
  Pb  Pb3  1  0.32324472  0.55380344  0.50000000  1
  Pb  Pb4  1  0.94619656  0.17675528  0.50000000  1
  Pb  Pb5  1  0.46243604  0.96243604  0.79798641  1
  Pb  Pb6  1  0.67675528  0.44619656  0.50000000  1
  Pb  Pb7  1  0.05380344  0.82324472  0.50000000  1
loop_
_geom_bond_atom_site_label_1
_geom_bond_atom_site_label_2
_geom_bond_distance
_geom_bond_site_symmetry_2
Ba0 Bi0 3.522820 1_666
Ba0 Bi1 3.522820 1_555
Ba0 Pb7 3.587817 1_655
Ba0 Pb6 3.587817 1_555
Ba0 Pb1 3.821894 1_555
Ba0 Pb0 3.821895 1_565
Ba0 Pb5 3.821903 1_555
Ba0 Pb2 3.821903 1_565
Ba0 Pb3 4.110399 1_555
Ba0 Pb4 4.110399 1_565
Ba1 Bi0 3.522820 1_555
Ba1 Bi1 3.522820 1_556
Ba1 Pb4 3.587817 1_455
Ba1 Pb3 3.587817 1_555
Ba1 Pb0 3.821894 1_555
Ba1 Pb1 3.821895 1_545
Ba1 Pb2 3.821903 1_555
Ba1 Pb5 3.821903 1_545
Ba1 Pb6 4.110399 1_555
Ba1 Pb7 4.110399 1_545
Bi0 Sr0 3.283500 1_555
Bi0 Sr1 3.283500 1_445
Bi0 Sr3 3.446069 1_455
Bi0 Sr2 3.446069 1_544
Bi1 Sr0 3.283500 1_555
Bi1 Sr1 3.283500 1_555
Bi1 Sr2 3.446069 1_554
Bi1 Sr3 3.446069 1_555
Pb0 Pb6 3.120280 1_555
Pb0 Pb4 3.120280 1_555
Pb0 Pb1 3.176931 1_656
Pb0 Sr3 3.501818 1_556
Pb0 Sr0 3.616263 1_656
Pb0 Sr1 3.616264 1_556
Pb1 Pb3 3.120280 1_555
Pb1 Pb7 3.120280 1_555
Pb1 Sr2 3.501818 1_554
Pb1 Sr1 3.616263 1_455
Pb1 Sr0 3.616264 1_555
Pb2 Pb4 3.120272 1_555
Pb2 Pb6 3.120273 1_555
Pb2 Pb5 3.176918 1_544
Pb2 Sr2 3.501826 1_544
Pb2 Sr0 3.616261 1_555
Pb2 Sr1 3.616261 1_545
Pb3 Pb5 3.120273 1_555
Pb3 Pb6 3.403559 1_555
Pb3 Pb7 3.501350 1_555
Pb3 Sr3 3.745117 1_455
Pb3 Sr2 3.745118 1_555
Pb3 Sr1 3.754974 1_556
Pb3 Sr0 3.754975 1_555
Pb4 Pb7 3.403560 1_645
Pb4 Pb6 3.501350 1_555
Pb4 Sr2 3.745117 1_655
Pb4 Sr3 3.745118 1_555
Pb4 Sr0 3.754975 1_656
Pb4 Sr1 3.754975 1_545
Pb5 Pb7 3.120272 1_555
Pb5 Sr3 3.501826 1_566
Pb5 Sr1 3.616261 1_556
Pb5 Sr0 3.616261 1_566
Pb6 Sr2 3.745117 1_655
Pb6 Sr3 3.745118 1_555
Pb6 Sr0 3.754974 1_555
Pb6 Sr1 3.754975 1_556
Pb7 Sr3 3.745117 1_455
Pb7 Sr2 3.745118 1_555
Pb7 Sr1 3.754975 1_455
Pb7 Sr0 3.754975 1_566
