# generated using pymatgen
data_Hf5ZnPb3
_symmetry_space_group_name_H-M   'P 1'
_cell_length_a   8.68477964
_cell_length_b   8.68478007
_cell_length_c   5.84584859
_cell_angle_alpha   90.00000000
_cell_angle_beta   90.00000000
_cell_angle_gamma   119.99999836
_symmetry_Int_Tables_number   1
_chemical_formula_structural   Hf5ZnPb3
_chemical_formula_sum   'Hf10 Zn2 Pb6'
_cell_volume   381.85266880
_cell_formula_units_Z   2
loop_
 _symmetry_equiv_pos_site_id
 _symmetry_equiv_pos_as_xyz
  1  'x, y, z'
loop_
 _atom_site_type_symbol
 _atom_site_label
 _atom_site_symmetry_multiplicity
 _atom_site_fract_x
 _atom_site_fract_y
 _atom_site_fract_z
 _atom_site_occupancy
  Hf  Hf0  1  0.33333300  0.66666700  0.00000000  1
  Hf  Hf1  1  0.66666700  0.33333300  0.50000000  1
  Hf  Hf2  1  0.66666700  0.33333300  0.00000000  1
  Hf  Hf3  1  0.33333300  0.66666700  0.50000000  1
  Hf  Hf4  1  0.26353079  0.00000000  0.25000000  1
  Hf  Hf5  1  0.26353079  0.26353079  0.75000000  1
  Hf  Hf6  1  1.00000000  0.73646921  0.75000000  1
  Hf  Hf7  1  0.00000000  0.26353079  0.25000000  1
  Hf  Hf8  1  0.73646921  0.73646921  0.25000000  1
  Hf  Hf9  1  0.73646921  0.00000000  0.75000000  1
  Zn  Zn0  1  0.00000000  0.00000000  0.00000000  1
  Zn  Zn1  1  0.00000000  0.00000000  0.50000000  1
  Pb  Pb0  1  0.61377714  0.00000000  0.25000000  1
  Pb  Pb1  1  0.61377714  0.61377714  0.75000000  1
  Pb  Pb2  1  0.00000000  0.38622286  0.75000000  1
  Pb  Pb3  1  1.00000000  0.61377714  0.25000000  1
  Pb  Pb4  1  0.38622286  0.38622286  0.25000000  1
  Pb  Pb5  1  0.38622286  0.00000000  0.75000000  1
loop_
_geom_bond_atom_site_label_1
_geom_bond_atom_site_label_2
_geom_bond_distance
_geom_bond_site_symmetry_2
Hf0 Pb3 3.065567 1_455
Hf0 Pb5 3.065567 1_564
Hf0 Pb2 3.065570 1_554
Hf0 Pb0 3.065570 1_565
Hf0 Pb1 3.065574 1_554
Hf0 Pb4 3.065574 1_555
Hf1 Pb2 3.065567 1_655
Hf1 Pb0 3.065567 1_555
Hf1 Pb3 3.065570 1_555
Hf1 Pb5 3.065570 1_555
Hf1 Pb4 3.065574 1_555
Hf1 Pb1 3.065574 1_555
Hf2 Pb2 3.065567 1_654
Hf2 Pb0 3.065567 1_555
Hf2 Pb3 3.065570 1_555
Hf2 Pb5 3.065570 1_554
Hf2 Pb4 3.065574 1_555
Hf2 Pb1 3.065574 1_554
Hf3 Pb3 3.065567 1_455
Hf3 Pb5 3.065567 1_565
Hf3 Pb2 3.065570 1_555
Hf3 Pb0 3.065570 1_565
Hf3 Pb1 3.065574 1_555
Hf3 Pb4 3.065574 1_555
Hf4 Zn0 2.715520 1_555
Hf4 Zn1 2.715520 1_555
Hf4 Pb4 2.968556 1_555
Hf4 Pb3 2.968556 1_445
Hf4 Pb0 3.041812 1_555
Hf4 Pb5 3.111092 1_554
Hf4 Pb5 3.111092 1_555
Hf5 Zn0 2.715520 1_556
Hf5 Zn1 2.715520 1_555
Hf5 Pb2 2.968556 1_555
Hf5 Pb5 2.968556 1_555
Hf5 Pb1 3.041813 1_555
Hf5 Pb4 3.111092 1_556
Hf5 Pb4 3.111092 1_555
Hf6 Zn1 2.715520 1_665
Hf6 Zn0 2.715520 1_666
Hf6 Pb1 2.968556 1_555
Hf6 Pb5 2.968556 1_665
Hf6 Pb2 3.041813 1_655
Hf6 Pb3 3.111092 1_555
Hf6 Pb3 3.111092 1_556
Hf7 Zn0 2.715520 1_555
Hf7 Zn1 2.715520 1_555
Hf7 Pb4 2.968556 1_555
Hf7 Pb0 2.968556 1_455
Hf7 Pb3 3.041813 1_455
Hf7 Pb2 3.111092 1_555
Hf7 Pb2 3.111092 1_554
Hf8 Zn1 2.715520 1_665
Hf8 Zn0 2.715520 1_665
Hf8 Pb3 2.968556 1_555
Hf8 Pb0 2.968556 1_565
Hf8 Pb4 3.041813 1_555
Hf8 Pb1 3.111092 1_555
Hf8 Pb1 3.111092 1_554
Hf9 Zn1 2.715520 1_655
Hf9 Zn0 2.715520 1_656
Hf9 Pb2 2.968556 1_655
Hf9 Pb1 2.968556 1_545
Hf9 Pb5 3.041812 1_555
Hf9 Pb0 3.111092 1_556
Hf9 Pb0 3.111092 1_555
