# generated using pymatgen
data_Li2Ca7SnN2
_symmetry_space_group_name_H-M   'P 1'
_cell_length_a   13.17354785
_cell_length_b   13.17354839
_cell_length_c   4.91828778
_cell_angle_alpha   90.00000000
_cell_angle_beta   90.00000000
_cell_angle_gamma   158.43372354
_symmetry_Int_Tables_number   1
_chemical_formula_structural   Li2Ca7SnN2
_chemical_formula_sum   'Li2 Ca7 Sn1 N2'
_cell_volume   313.73868165
_cell_formula_units_Z   1
loop_
 _symmetry_equiv_pos_site_id
 _symmetry_equiv_pos_as_xyz
  1  'x, y, z'
loop_
 _atom_site_type_symbol
 _atom_site_label
 _atom_site_symmetry_multiplicity
 _atom_site_fract_x
 _atom_site_fract_y
 _atom_site_fract_z
 _atom_site_occupancy
  Li  Li0  1  0.78715020  0.21284880  0.50000100  1
  Li  Li1  1  0.21284880  0.78715020  0.50000100  1
  Ca  Ca0  1  0.91127162  0.08872738  0.00000000  1
  Ca  Ca1  1  0.68610252  0.31389648  0.00000000  1
  Ca  Ca2  1  0.50000000  0.50000000  0.00000000  1
  Ca  Ca3  1  0.31389648  0.68610252  0.00000000  1
  Ca  Ca4  1  0.08872738  0.91127162  0.00000000  1
  Ca  Ca5  1  0.58896540  0.41103460  0.50000100  1
  Ca  Ca6  1  0.41103460  0.58896540  0.50000100  1
  Sn  Sn0  1  0.00000000  0.00000000  0.50000100  1
  N  N0  1  0.59770105  0.40229795  0.00000000  1
  N  N1  1  0.40229795  0.59770105  0.00000000  1
loop_
_geom_bond_atom_site_label_1
_geom_bond_atom_site_label_2
_geom_bond_distance
_geom_bond_site_symmetry_2
Li0 Li1 3.126139 1_545
Li0 Li1 3.126139 1_655
Ca0 N1 2.475587 1_545
Ca0 N1 2.475587 1_655
Ca0 Sn0 3.364672 1_654
Ca0 Sn0 3.364679 1_655
Ca1 N0 2.287995 1_555
Ca1 Li1 3.549811 1_654
Ca1 Li1 3.549811 1_544
Ca1 Li1 3.549818 1_655
Ca1 Li1 3.549818 1_545
Ca1 Li0 3.589871 1_554
Ca1 Li0 3.589877 1_555
Ca2 N1 2.528699 1_555
Ca2 N0 2.528699 1_555
Ca2 Sn0 3.481660 1_554
Ca2 Sn0 3.481660 1_664
Ca2 Sn0 3.481667 1_665
Ca2 Sn0 3.481667 1_555
Ca3 N1 2.287995 1_555
Ca3 Li0 3.549811 1_454
Ca3 Li0 3.549811 1_564
Ca3 Li0 3.549818 1_455
Ca3 Li0 3.549818 1_565
Ca3 Li1 3.589871 1_554
Ca3 Li1 3.589877 1_555
Ca4 N0 2.475587 1_565
Ca4 N0 2.475587 1_455
Ca4 Sn0 3.364672 1_564
Ca4 Sn0 3.364679 1_565
Ca5 N0 2.469512 1_556
Ca5 N0 2.469522 1_555
Ca5 Sn0 3.372909 1_555
Ca5 Sn0 3.372909 1_665
Ca6 N1 2.469512 1_556
Ca6 N1 2.469522 1_555
Ca6 Sn0 3.372909 1_665
Ca6 Sn0 3.372909 1_555
