# generated using pymatgen
data_CdBiOs2O7
_symmetry_space_group_name_H-M   'P 1'
_cell_length_a   7.27583660
_cell_length_b   7.27583638
_cell_length_c   7.20686352
_cell_angle_alpha   60.31309858
_cell_angle_beta   60.31309955
_cell_angle_gamma   60.67528963
_symmetry_Int_Tables_number   1
_chemical_formula_structural   CdBiOs2O7
_chemical_formula_sum   'Cd2 Bi2 Os4 O14'
_cell_volume   272.41111981
_cell_formula_units_Z   2
loop_
 _symmetry_equiv_pos_site_id
 _symmetry_equiv_pos_as_xyz
  1  'x, y, z'
loop_
 _atom_site_type_symbol
 _atom_site_label
 _atom_site_symmetry_multiplicity
 _atom_site_fract_x
 _atom_site_fract_y
 _atom_site_fract_z
 _atom_site_occupancy
  Cd  Cd0  1  0.12500000  0.12500000  0.62500000  1
  Cd  Cd1  1  0.12500000  0.12500000  0.12500000  1
  Bi  Bi0  1  0.12500000  0.62500000  0.12500000  1
  Bi  Bi1  1  0.62500000  0.12500000  0.12500000  1
  Os  Os0  1  0.62500000  0.62500000  0.12500000  1
  Os  Os1  1  0.62500000  0.12500000  0.62500000  1
  Os  Os2  1  0.62500000  0.62500000  0.62500000  1
  Os  Os3  1  0.12500000  0.62500000  0.62500000  1
  O  O0  1  0.30329118  0.68748801  0.70878023  1
  O  O1  1  0.30329118  0.68748801  0.30044059  1
  O  O2  1  0.56251199  0.94670882  0.54121977  1
  O  O3  1  0.29877390  0.29877390  0.70122610  1
  O  O4  1  0.24106145  0.24106145  0.25893855  1
  O  O5  1  0.70415575  0.70415575  0.29584425  1
  O  O6  1  0.95122610  0.95122610  0.54877390  1
  O  O7  1  0.68748801  0.30329118  0.30044059  1
  O  O8  1  0.94670882  0.56251199  0.54121977  1
  O  O9  1  0.00893855  0.00893855  0.99106145  1
  O  O10  1  0.56251199  0.94670882  0.94955941  1
  O  O11  1  0.94670882  0.56251199  0.94955941  1
  O  O12  1  0.68748801  0.30329118  0.70878023  1
  O  O13  1  0.54584425  0.54584425  0.95415575  1
loop_
_geom_bond_atom_site_label_1
_geom_bond_atom_site_label_2
_geom_bond_distance
_geom_bond_site_symmetry_2
Cd0 O9 2.161296 1_555
Cd0 O4 2.161296 1_555
Cd0 O3 2.537866 1_555
Cd0 O6 2.537866 1_445
Cd0 O8 2.647211 1_455
Cd0 O0 2.647211 1_545
Cd0 O2 2.647211 1_545
Cd0 O12 2.647211 1_455
Cd1 O4 2.161296 1_555
Cd1 O9 2.161296 1_554
Cd1 O6 2.537866 1_445
Cd1 O3 2.537866 1_554
Cd1 O11 2.647211 1_454
Cd1 O1 2.647211 1_545
Cd1 O10 2.647211 1_544
Cd1 O7 2.647211 1_455
Bi0 O9 2.296565 1_564
Bi0 O4 2.296565 1_555
Bi0 O1 2.501971 1_555
Bi0 O11 2.501971 1_454
Bi0 O8 2.501971 1_455
Bi0 O0 2.501971 1_554
Bi0 O13 2.542472 1_554
Bi0 O5 2.542472 1_455
Bi1 O9 2.296565 1_654
Bi1 O4 2.296565 1_555
Bi1 O7 2.501971 1_555
Bi1 O10 2.501971 1_544
Bi1 O2 2.501971 1_545
Bi1 O12 2.501971 1_554
Bi1 O13 2.542471 1_554
Bi1 O5 2.542471 1_545
O0 Os3 1.969642 1_555
O0 Os2 1.969711 1_555
O1 Os3 1.969642 1_555
O1 Os0 1.969711 1_555
O2 Os1 1.969642 1_565
O2 Os2 1.969711 1_555
O3 Os3 1.997766 1_555
O3 Os1 1.997766 1_555
O5 Os0 1.977125 1_555
O5 Os2 1.977125 1_555
O6 Os3 1.997766 1_655
O6 Os1 1.997766 1_565
O7 Os1 1.969642 1_555
O7 Os0 1.969711 1_555
O8 Os3 1.969642 1_655
O8 Os2 1.969711 1_555
O10 Os1 1.969642 1_565
O10 Os0 1.969711 1_556
O11 Os3 1.969642 1_655
O11 Os0 1.969711 1_556
O12 Os1 1.969642 1_555
O12 Os2 1.969711 1_555
O13 Os0 1.977125 1_556
O13 Os2 1.977125 1_555
