# generated using pymatgen
data_CrSiSe3
_symmetry_space_group_name_H-M   'P 1'
_cell_length_a   6.26642004
_cell_length_b   6.26642036
_cell_length_c   7.17726413
_cell_angle_alpha   81.30237839
_cell_angle_beta   81.30238171
_cell_angle_gamma   120.01660268
_symmetry_Int_Tables_number   1
_chemical_formula_structural   CrSiSe3
_chemical_formula_sum   'Cr2 Si2 Se6'
_cell_volume   232.60264336
_cell_formula_units_Z   2
loop_
 _symmetry_equiv_pos_site_id
 _symmetry_equiv_pos_as_xyz
  1  'x, y, z'
loop_
 _atom_site_type_symbol
 _atom_site_label
 _atom_site_symmetry_multiplicity
 _atom_site_fract_x
 _atom_site_fract_y
 _atom_site_fract_z
 _atom_site_occupancy
  Cr  Cr0  1  0.66705674  0.33294326  1.00000000  1
  Cr  Cr1  1  0.33294326  0.66705674  0.00000000  1
  Si  Si0  1  0.05680272  0.05680272  0.83700402  1
  Si  Si1  1  0.94319728  0.94319728  0.16299598  1
  Se  Se0  1  0.72579214  0.72579214  0.76218619  1
  Se  Se1  1  0.27420786  0.27420786  0.23781381  1
  Se  Se2  1  0.08231920  0.43923793  0.76302642  1
  Se  Se3  1  0.43923793  0.08231920  0.76302642  1
  Se  Se4  1  0.91768080  0.56076207  0.23697358  1
  Se  Se5  1  0.56076207  0.91768080  0.23697358  1
loop_
_geom_bond_atom_site_label_1
_geom_bond_atom_site_label_2
_geom_bond_distance
_geom_bond_site_symmetry_2
Cr0 Se2 2.587005 1_655
Cr0 Se5 2.587005 1_546
Cr0 Se4 2.587740 1_556
Cr0 Se3 2.587740 1_555
Cr0 Se1 2.596482 1_556
Cr0 Se0 2.596482 1_555
Cr1 Se4 2.587005 1_455
Cr1 Se3 2.587005 1_564
Cr1 Se2 2.587740 1_554
Cr1 Se5 2.587740 1_555
Cr1 Se0 2.596482 1_554
Cr1 Se1 2.596482 1_555
Si0 Si1 2.230105 1_446
Se0 Si0 2.294005 1_665
Se1 Si1 2.294005 1_445
Se2 Si0 2.292770 1_555
Se3 Si0 2.292770 1_555
Se4 Si1 2.292770 1_555
Se5 Si1 2.292770 1_555
