# generated using pymatgen
data_Sr4MgCdSb4
_symmetry_space_group_name_H-M   'P 1'
_cell_length_a   4.78280687
_cell_length_b   7.92900879
_cell_length_c   18.16705358
_cell_angle_alpha   90.00000000
_cell_angle_beta   90.00000000
_cell_angle_gamma   90.00000000
_symmetry_Int_Tables_number   1
_chemical_formula_structural   Sr4MgCdSb4
_chemical_formula_sum   'Sr8 Mg2 Cd2 Sb8'
_cell_volume   688.94767748
_cell_formula_units_Z   2
loop_
 _symmetry_equiv_pos_site_id
 _symmetry_equiv_pos_as_xyz
  1  'x, y, z'
loop_
 _atom_site_type_symbol
 _atom_site_label
 _atom_site_symmetry_multiplicity
 _atom_site_fract_x
 _atom_site_fract_y
 _atom_site_fract_z
 _atom_site_occupancy
  Sr  Sr0  1  0.75000000  0.78575991  0.44882573  1
  Sr  Sr1  1  0.25000000  0.71424009  0.94882573  1
  Sr  Sr2  1  0.25000000  0.53593434  0.72344433  1
  Sr  Sr3  1  0.75000000  0.96406566  0.22344433  1
  Sr  Sr4  1  0.75000000  0.28594013  0.05057874  1
  Sr  Sr5  1  0.25000000  0.21405987  0.55057874  1
  Sr  Sr6  1  0.75000000  0.45974143  0.27825951  1
  Sr  Sr7  1  0.25000000  0.04025857  0.77825951  1
  Mg  Mg0  1  0.25000000  0.62241872  0.15531162  1
  Mg  Mg1  1  0.75000000  0.87758128  0.65531162  1
  Cd  Cd0  1  0.75000000  0.38128549  0.84342096  1
  Cd  Cd1  1  0.25000000  0.11871451  0.34342096  1
  Sb  Sb0  1  0.75000000  0.24652211  0.68573969  1
  Sb  Sb1  1  0.25000000  0.74761361  0.31262806  1
  Sb  Sb2  1  0.25000000  0.25347789  0.18573969  1
  Sb  Sb3  1  0.75000000  0.71257473  0.07989428  1
  Sb  Sb4  1  0.75000000  0.75238639  0.81262806  1
  Sb  Sb5  1  0.25000000  0.28579992  0.92189708  1
  Sb  Sb6  1  0.75000000  0.21420008  0.42189708  1
  Sb  Sb7  1  0.25000000  0.78742527  0.57989428  1
loop_
_geom_bond_atom_site_label_1
_geom_bond_atom_site_label_2
_geom_bond_distance
_geom_bond_site_symmetry_2
Mg0 Sb3 2.847283 1_555
Mg0 Sb3 2.847283 1_455
Mg0 Sb2 2.977106 1_555
Mg0 Sb1 3.025463 1_555
Mg1 Sb7 2.847283 1_555
Mg1 Sb7 2.847283 1_655
Mg1 Sb0 2.977106 1_565
Mg1 Sb4 3.025463 1_555
Cd0 Sb5 2.885235 1_555
Cd0 Sb5 2.885235 1_655
Cd0 Sb4 2.995168 1_555
Cd0 Sb0 3.057407 1_555
Cd0 Sr2 3.460225 1_555
Cd0 Sr2 3.460225 1_655
Cd1 Sb6 2.885235 1_455
Cd1 Sb6 2.885235 1_555
Cd1 Sb1 2.995168 1_545
Cd1 Sb2 3.057407 1_555
Cd1 Sr3 3.460225 1_545
Cd1 Sr3 3.460225 1_445
Sb0 Sr7 3.349431 1_555
Sb0 Sr7 3.349431 1_655
Sb0 Sr2 3.384361 1_555
Sb0 Sr2 3.384361 1_655
Sb0 Sr5 3.437212 1_555
Sb0 Sr5 3.437212 1_655
Sb1 Sr3 3.359969 1_455
Sb1 Sr3 3.359969 1_555
Sb1 Sr6 3.364320 1_555
Sb1 Sr6 3.364320 1_455
Sb1 Sr0 3.454346 1_555
Sb1 Sr0 3.454346 1_455
Sb2 Sr6 3.349431 1_455
Sb2 Sr6 3.349431 1_555
Sb2 Sr3 3.384361 1_445
Sb2 Sr3 3.384361 1_545
Sb2 Sr4 3.437212 1_555
Sb2 Sr4 3.437212 1_455
Sb3 Sr3 3.282891 1_555
Sb3 Sr1 3.374724 1_654
Sb3 Sr1 3.374724 1_554
Sb3 Sr4 3.424457 1_555
Sb4 Sr2 3.359969 1_555
Sb4 Sr2 3.359969 1_655
Sb4 Sr7 3.364320 1_565
Sb4 Sr7 3.364320 1_665
Sb4 Sr1 3.454346 1_555
Sb4 Sr1 3.454346 1_655
Sb5 Sr7 3.255727 1_555
Sb5 Sr4 3.344243 1_456
Sb5 Sr4 3.344243 1_556
Sb5 Sr1 3.432151 1_555
Sb6 Sr6 3.255727 1_555
Sb6 Sr5 3.344243 1_555
Sb6 Sr5 3.344243 1_655
Sb6 Sr0 3.432151 1_545
Sb7 Sr2 3.282891 1_555
Sb7 Sr0 3.374724 1_455
Sb7 Sr0 3.374724 1_555
Sb7 Sr5 3.424457 1_565
