# generated using pymatgen
data_Na2BeCu17Si8
_symmetry_space_group_name_H-M   'P 1'
_cell_length_a   8.05471496
_cell_length_b   8.01740223
_cell_length_c   7.98483739
_cell_angle_alpha   60.44326227
_cell_angle_beta   59.97852247
_cell_angle_gamma   59.57822311
_symmetry_Int_Tables_number   1
_chemical_formula_structural   Na2BeCu17Si8
_chemical_formula_sum   'Na2 Be1 Cu17 Si8'
_cell_volume   364.57369251
_cell_formula_units_Z   1
loop_
 _symmetry_equiv_pos_site_id
 _symmetry_equiv_pos_as_xyz
  1  'x, y, z'
loop_
 _atom_site_type_symbol
 _atom_site_label
 _atom_site_symmetry_multiplicity
 _atom_site_fract_x
 _atom_site_fract_y
 _atom_site_fract_z
 _atom_site_occupancy
  Na  Na0  1  0.25000000  0.25000000  0.25000000  1
  Na  Na1  1  0.75000000  0.75000000  0.75000000  1
  Be  Be0  1  0.00000000  0.00000000  0.00000000  1
  Cu  Cu0  1  0.71485116  0.28514884  0.06161182  1
  Cu  Cu1  1  0.28514884  0.71485116  0.93838818  1
  Cu  Cu2  1  0.20022551  0.79977449  0.43983590  1
  Cu  Cu3  1  0.79977449  0.20022551  0.56016410  1
  Cu  Cu4  1  0.43983590  0.56016410  0.20022551  1
  Cu  Cu5  1  0.56016410  0.43983590  0.79977449  1
  Cu  Cu6  1  0.06161182  0.93838818  0.71485116  1
  Cu  Cu7  1  0.93838818  0.06161182  0.28514884  1
  Cu  Cu8  1  0.44254740  0.19120353  0.80879647  1
  Cu  Cu9  1  0.19120353  0.44254740  0.55745260  1
  Cu  Cu10  1  0.93758737  0.69971370  0.06241263  1
  Cu  Cu11  1  0.69971370  0.93758737  0.30028630  1
  Cu  Cu12  1  0.55745260  0.80879647  0.19120353  1
  Cu  Cu13  1  0.80879647  0.55745260  0.44254740  1
  Cu  Cu14  1  0.06241263  0.30028630  0.93758737  1
  Cu  Cu15  1  0.30028630  0.06241263  0.69971370  1
  Cu  Cu16  1  0.50000000  0.50000000  0.50000000  1
  Si  Si0  1  0.70898200  0.06268798  0.93731202  1
  Si  Si1  1  0.06268798  0.70898200  0.29101800  1
  Si  Si2  1  0.20509297  0.56106678  0.79490703  1
  Si  Si3  1  0.56106678  0.20509297  0.43893322  1
  Si  Si4  1  0.29101800  0.93731202  0.06268798  1
  Si  Si5  1  0.93731202  0.29101800  0.70898200  1
  Si  Si6  1  0.79490703  0.43893322  0.20509297  1
  Si  Si7  1  0.43893322  0.79490703  0.56106678  1
loop_
_geom_bond_atom_site_label_1
_geom_bond_atom_site_label_2
_geom_bond_distance
_geom_bond_site_symmetry_2
Na0 Si5 3.316145 1_455
Na0 Si0 3.316145 1_554
Na0 Si4 3.316145 1_545
Na0 Si1 3.316146 1_555
Na0 Si3 3.319068 1_555
Na0 Si6 3.319068 1_455
Na0 Si2 3.319068 1_554
Na0 Si7 3.319068 1_545
Na1 Si1 3.316145 1_655
Na1 Si4 3.316145 1_556
Na1 Si0 3.316145 1_565
Na1 Si5 3.316146 1_555
Na1 Si7 3.319068 1_555
Na1 Si2 3.319068 1_655
Na1 Si6 3.319068 1_556
Na1 Si3 3.319068 1_565
Be0 Cu7 2.324882 1_455
Be0 Cu6 2.324882 1_544
Be0 Cu0 2.324882 1_455
Be0 Cu1 2.324882 1_544
Be0 Si4 2.393866 1_545
Be0 Si0 2.393866 1_454
Be0 Si1 2.393866 1_545
Be0 Si5 2.393866 1_454
Be0 Cu15 2.467495 1_554
Be0 Cu11 2.467495 1_445
Be0 Cu14 2.467495 1_554
Be0 Cu10 2.467495 1_445
Cu0 Cu5 2.438304 1_554
Cu0 Cu4 2.449798 1_555
Cu0 Si5 2.459099 1_554
Cu0 Si0 2.459100 1_554
Cu0 Si3 2.487273 1_555
Cu0 Si6 2.487273 1_555
Cu0 Cu14 2.506793 1_654
Cu0 Cu11 2.506793 1_545
Cu0 Cu7 2.536083 1_555
Cu0 Na0 3.372827 1_555
Cu0 Na1 3.372827 1_554
Cu1 Cu4 2.438304 1_556
Cu1 Cu5 2.449798 1_555
Cu1 Si1 2.459099 1_556
Cu1 Si4 2.459100 1_556
Cu1 Si7 2.487273 1_555
Cu1 Si2 2.487273 1_555
Cu1 Cu10 2.506793 1_456
Cu1 Cu15 2.506793 1_565
Cu1 Cu6 2.536083 1_555
Cu1 Na1 3.372827 1_555
Cu1 Na0 3.372827 1_556
Cu2 Cu7 2.438304 1_465
Cu2 Cu6 2.449797 1_555
Cu2 Si4 2.481223 1_555
Cu2 Si1 2.481223 1_555
Cu2 Si7 2.526775 1_555
Cu2 Si2 2.526775 1_555
Cu2 Cu9 2.564921 1_555
Cu2 Cu4 2.692989 1_555
Cu2 Na1 3.308676 1_455
Cu2 Na0 3.308676 1_565
Cu3 Cu6 2.438304 1_645
Cu3 Cu7 2.449797 1_555
Cu3 Si0 2.481223 1_555
Cu3 Si5 2.481223 1_555
Cu3 Si3 2.526775 1_555
Cu3 Si6 2.526775 1_555
Cu3 Cu8 2.564920 1_555
Cu3 Cu5 2.692989 1_555
Cu3 Na0 3.308676 1_655
Cu3 Na1 3.308676 1_545
Cu4 Si1 2.481223 1_555
Cu4 Si4 2.481224 1_555
Cu4 Si6 2.526775 1_555
Cu4 Si3 2.526775 1_555
Cu4 Cu9 2.564920 1_555
Cu4 Na1 3.308676 1_554
Cu4 Na0 3.308676 1_555
Cu5 Si5 2.481223 1_555
Cu5 Si0 2.481224 1_555
Cu5 Si2 2.526775 1_555
Cu5 Si7 2.526775 1_555
Cu5 Cu8 2.564921 1_555
Cu5 Na0 3.308676 1_556
Cu5 Na1 3.308676 1_555
Cu6 Si0 2.459100 1_465
Cu6 Si5 2.459100 1_465
Cu6 Si7 2.487273 1_555
Cu6 Si2 2.487273 1_555
Cu6 Na1 3.372827 1_455
Cu6 Na0 3.372827 1_565
Cu7 Si4 2.459100 1_645
Cu7 Si1 2.459100 1_645
Cu7 Si3 2.487273 1_555
Cu7 Si6 2.487273 1_555
Cu7 Na0 3.372827 1_655
Cu7 Na1 3.372827 1_545
Cu8 Si0 2.375166 1_555
Cu8 Si4 2.389958 1_546
Cu8 Si3 2.570553 1_555
Cu8 Si2 2.570554 1_555
Cu8 Na0 3.235633 1_556
Cu8 Na1 3.235633 1_545
Cu9 Si1 2.375166 1_555
Cu9 Si5 2.389958 1_455
Cu9 Si2 2.570553 1_555
Cu9 Si3 2.570554 1_555
Cu9 Na0 3.235633 1_555
Cu9 Na1 3.235633 1_455
Cu10 Si2 2.398380 1_654
Cu10 Si6 2.400696 1_555
Cu10 Cu13 2.494420 1_555
Cu10 Cu12 2.494420 1_555
Cu10 Cu6 2.506793 1_654
Cu10 Si1 2.530427 1_655
Cu10 Si0 2.530428 1_564
Cu10 Cu11 2.673470 1_555
Cu10 Na1 3.291034 1_554
Cu10 Na0 3.291035 1_655
Cu11 Si3 2.398380 1_565
Cu11 Si7 2.400696 1_555
Cu11 Cu12 2.494420 1_555
Cu11 Cu13 2.494421 1_555
Cu11 Cu7 2.506793 1_565
Cu11 Si0 2.530427 1_564
Cu11 Si1 2.530427 1_655
Cu11 Na1 3.291034 1_555
Cu11 Na0 3.291035 1_565
Cu12 Si4 2.375166 1_555
Cu12 Si0 2.389958 1_564
Cu12 Cu16 2.533602 1_555
Cu12 Cu2 2.564920 1_555
Cu12 Cu4 2.564921 1_555
Cu12 Si7 2.570553 1_555
Cu12 Si6 2.570554 1_555
Cu12 Na1 3.235633 1_554
Cu12 Na0 3.235633 1_565
Cu13 Si5 2.375166 1_555
Cu13 Si1 2.389958 1_655
Cu13 Cu16 2.533602 1_555
Cu13 Cu5 2.564920 1_555
Cu13 Cu3 2.564921 1_555
Cu13 Si6 2.570553 1_555
Cu13 Si7 2.570554 1_555
Cu13 Na1 3.235633 1_555
Cu13 Na0 3.235633 1_655
Cu14 Si6 2.398380 1_456
Cu14 Si2 2.400696 1_555
Cu14 Cu9 2.494420 1_555
Cu14 Cu8 2.494420 1_555
Cu14 Cu7 2.506793 1_456
Cu14 Si5 2.530427 1_455
Cu14 Si4 2.530428 1_546
Cu14 Cu15 2.673470 1_555
Cu14 Na0 3.291034 1_556
Cu14 Na1 3.291035 1_455
Cu15 Si7 2.398380 1_545
Cu15 Si3 2.400696 1_555
Cu15 Cu8 2.494420 1_555
Cu15 Cu9 2.494421 1_555
Cu15 Cu6 2.506793 1_545
Cu15 Si4 2.530427 1_546
Cu15 Si5 2.530427 1_455
Cu15 Na0 3.291034 1_555
Cu15 Na1 3.291035 1_545
Cu16 Si2 2.406173 1_555
Cu16 Si6 2.406173 1_555
Cu16 Si7 2.406173 1_555
Cu16 Si3 2.406173 1_555
Cu16 Cu5 2.445809 1_555
Cu16 Cu4 2.445809 1_555
Cu16 Cu3 2.445809 1_555
Cu16 Cu2 2.445809 1_555
Cu16 Cu9 2.533602 1_555
Cu16 Cu8 2.533602 1_555
Si0 Si5 2.611351 1_555
Si1 Si4 2.611351 1_555
Si2 Si7 2.674371 1_555
Si3 Si6 2.674371 1_555
