# generated using pymatgen
data_ScZn3NiAu
_symmetry_space_group_name_H-M   'P 1'
_cell_length_a   4.93598036
_cell_length_b   4.93598028
_cell_length_c   4.93598006
_cell_angle_alpha   60.96845370
_cell_angle_beta   60.96845270
_cell_angle_gamma   60.96845520
_symmetry_Int_Tables_number   1
_chemical_formula_structural   ScZn3NiAu
_chemical_formula_sum   'Sc1 Zn3 Ni1 Au1'
_cell_volume   86.89187958
_cell_formula_units_Z   1
loop_
 _symmetry_equiv_pos_site_id
 _symmetry_equiv_pos_as_xyz
  1  'x, y, z'
loop_
 _atom_site_type_symbol
 _atom_site_label
 _atom_site_symmetry_multiplicity
 _atom_site_fract_x
 _atom_site_fract_y
 _atom_site_fract_z
 _atom_site_occupancy
  Sc  Sc0  1  0.99739541  0.99739541  0.99739541  1
  Zn  Zn0  1  0.62389722  0.62389722  0.12787452  1
  Zn  Zn1  1  0.62389722  0.12787452  0.62389722  1
  Zn  Zn2  1  0.12787452  0.62389722  0.62389722  1
  Ni  Ni0  1  0.62663839  0.62663839  0.62663839  1
  Au  Au0  1  0.25029625  0.25029625  0.25029625  1
loop_
_geom_bond_atom_site_label_1
_geom_bond_atom_site_label_2
_geom_bond_distance
_geom_bond_site_symmetry_2
Sc0 Zn2 2.864670 1_655
Sc0 Zn1 2.864670 1_565
Sc0 Zn0 2.864670 1_556
Sc0 Zn1 2.936627 1_566
Sc0 Zn2 2.936627 1_656
Sc0 Zn2 2.936627 1_665
Sc0 Zn1 2.936627 1_665
Sc0 Zn0 2.936627 1_566
Sc0 Zn0 2.936627 1_656
Zn0 Zn2 2.484110 1_555
Zn0 Zn1 2.484110 1_555
Zn0 Zn2 2.523947 1_654
Zn0 Zn1 2.523947 1_564
Zn1 Zn2 2.484110 1_555
Zn1 Zn2 2.523947 1_645
Ni0 Zn0 2.461035 1_556
Ni0 Zn1 2.461035 1_565
Ni0 Zn2 2.461035 1_655
Ni0 Zn0 2.475096 1_555
Ni0 Zn1 2.475096 1_555
Ni0 Zn2 2.475096 1_555
Ni0 Sc0 2.926078 1_554
Ni0 Sc0 2.926078 1_455
Ni0 Sc0 2.926078 1_545
Au0 Zn2 2.881662 1_555
Au0 Zn1 2.881663 1_555
Au0 Zn0 2.881663 1_555
Au0 Zn1 2.919494 1_554
Au0 Zn2 2.919494 1_554
Au0 Zn2 2.919495 1_545
Au0 Zn1 2.919495 1_455
Au0 Zn0 2.919495 1_545
Au0 Zn0 2.919495 1_455
Au0 Ni0 2.937114 1_554
Au0 Ni0 2.937114 1_455
Au0 Ni0 2.937114 1_545
Au0 Sc0 3.035160 1_444
Au0 Sc0 3.048281 1_445
Au0 Sc0 3.048281 1_454
Au0 Sc0 3.048281 1_544
