# generated using pymatgen
data_Sr6Sn8BiTe
_symmetry_space_group_name_H-M   'P 1'
_cell_length_a   9.04373680
_cell_length_b   9.04373647
_cell_length_c   9.04373753
_cell_angle_alpha   120.25232547
_cell_angle_beta   120.25232689
_cell_angle_gamma   89.56351226
_symmetry_Int_Tables_number   1
_chemical_formula_structural   Sr6Sn8BiTe
_chemical_formula_sum   'Sr6 Sn8 Bi1 Te1'
_cell_volume   521.02141753
_cell_formula_units_Z   1
loop_
 _symmetry_equiv_pos_site_id
 _symmetry_equiv_pos_as_xyz
  1  'x, y, z'
loop_
 _atom_site_type_symbol
 _atom_site_label
 _atom_site_symmetry_multiplicity
 _atom_site_fract_x
 _atom_site_fract_y
 _atom_site_fract_z
 _atom_site_occupancy
  Sr  Sr0  1  0.25151033  0.25151033  0.00000000  1
  Sr  Sr1  1  0.74848967  0.74848967  1.00000000  1
  Sr  Sr2  1  0.16542811  0.66466669  0.83009680  1
  Sr  Sr3  1  0.83457189  0.33533331  0.16990320  1
  Sr  Sr4  1  0.66466669  0.83457189  0.49923858  1
  Sr  Sr5  1  0.33533331  0.16542811  0.50076142  1
  Sn  Sn0  1  0.83707805  0.33353078  0.78528153  1
  Sn  Sn1  1  0.16292195  0.66646922  0.21471847  1
  Sn  Sn2  1  0.54824824  0.05179652  0.21471847  1
  Sn  Sn3  1  0.33353078  0.54824824  0.49645272  1
  Sn  Sn4  1  0.94820348  0.16292195  0.49645272  1
  Sn  Sn5  1  0.45175176  0.94820348  0.78528153  1
  Sn  Sn6  1  0.66646922  0.45175176  0.50354728  1
  Sn  Sn7  1  0.05179652  0.83707805  0.50354728  1
  Bi  Bi0  1  0.00000000  0.00000000  0.00000000  1
  Te  Te0  1  0.50000000  0.50000000  0.00000000  1
loop_
_geom_bond_atom_site_label_1
_geom_bond_atom_site_label_2
_geom_bond_distance
_geom_bond_site_symmetry_2
Sr0 Te0 3.190210 1_555
Sr1 Te0 3.190210 1_556
Sr2 Te0 3.359524 1_556
Sr3 Te0 3.359524 1_555
Sr4 Te0 3.359528 1_555
Sr5 Te0 3.359528 1_556
Sn0 Sn4 2.962125 1_555
Sn0 Sn6 2.962132 1_555
Sn0 Sn1 3.107028 1_656
Sn0 Sr3 3.481733 1_556
Sn0 Sr0 3.527624 1_656
Sn0 Sr1 3.560191 1_555
Sn0 Sr4 3.710283 1_545
Sn0 Sr5 3.731088 1_555
Sn0 Sr2 3.956049 1_655
Sn1 Sn7 2.962125 1_555
Sn1 Sn3 2.962132 1_555
Sn1 Sr2 3.481733 1_554
Sn1 Sr1 3.527624 1_454
Sn1 Sr0 3.560191 1_555
Sn1 Sr5 3.710283 1_565
Sn1 Sr4 3.731088 1_555
Sn1 Sr3 3.956049 1_455
Sn2 Sn6 2.962131 1_555
Sn2 Sn4 2.962132 1_555
Sn2 Sn5 3.107035 1_544
Sn2 Sr2 3.481746 1_544
Sn2 Sr0 3.527620 1_555
Sn2 Sr1 3.560198 1_544
Sn2 Sr5 3.710275 1_555
Sn2 Sr4 3.731088 1_545
Sn2 Sr3 3.956081 1_555
Sn3 Sn5 2.962131 1_555
Sn3 Sn6 3.107023 1_555
Sn3 Sr5 3.481742 1_555
Sn3 Sr0 3.527623 1_555
Sn3 Sr1 3.560190 1_555
Sn3 Sr3 3.710280 1_455
Sn3 Sr2 3.731103 1_555
Sn3 Sr4 3.956067 1_555
Sn4 Sn7 3.107028 1_645
Sn4 Sr5 3.481751 1_655
Sn4 Sr1 3.527624 1_544
Sn4 Sr0 3.560191 1_656
Sn4 Sr3 3.710299 1_555
Sn4 Sr2 3.731087 1_655
Sn4 Sr4 3.956061 1_545
Sn5 Sn7 2.962132 1_555
Sn5 Sr3 3.481746 1_566
Sn5 Sr1 3.527620 1_555
Sn5 Sr0 3.560198 1_566
Sn5 Sr4 3.710275 1_555
Sn5 Sr5 3.731088 1_565
Sn5 Sr2 3.956081 1_555
Sn6 Sr4 3.481742 1_555
Sn6 Sr1 3.527623 1_555
Sn6 Sr0 3.560190 1_555
Sn6 Sr2 3.710280 1_655
Sn6 Sr3 3.731103 1_555
Sn6 Sr5 3.956067 1_555
Sn7 Sr4 3.481751 1_455
Sn7 Sr0 3.527624 1_566
Sn7 Sr1 3.560191 1_454
Sn7 Sr2 3.710299 1_555
Sn7 Sr3 3.731087 1_455
Sn7 Sr5 3.956061 1_565
Bi0 Sr0 3.228990 1_555
Bi0 Sr1 3.228990 1_444
Bi0 Sr3 3.368709 1_455
Bi0 Sr2 3.368709 1_544
Bi0 Sr5 3.368713 1_555
Bi0 Sr4 3.368713 1_444
