# generated using pymatgen
data_ZrZn3NiRh
_symmetry_space_group_name_H-M   'P 1'
_cell_length_a   4.97245272
_cell_length_b   4.97245350
_cell_length_c   4.86092840
_cell_angle_alpha   59.23809524
_cell_angle_beta   59.23808536
_cell_angle_gamma   59.99999534
_symmetry_Int_Tables_number   1
_chemical_formula_structural   ZrZn3NiRh
_chemical_formula_sum   'Zr1 Zn3 Ni1 Rh1'
_cell_volume   83.99374703
_cell_formula_units_Z   1
loop_
 _symmetry_equiv_pos_site_id
 _symmetry_equiv_pos_as_xyz
  1  'x, y, z'
loop_
 _atom_site_type_symbol
 _atom_site_label
 _atom_site_symmetry_multiplicity
 _atom_site_fract_x
 _atom_site_fract_y
 _atom_site_fract_z
 _atom_site_occupancy
  Zr  Zr0  1  0.00213581  0.00213581  0.99359156  1
  Zn  Zn0  1  0.13002538  0.62404603  0.62188457  1
  Zn  Zn1  1  0.62404603  0.62404603  0.62188457  1
  Zn  Zn2  1  0.62404603  0.13002538  0.62188457  1
  Ni  Ni0  1  0.62719586  0.62719586  0.11841542  1
  Rh  Rh0  1  0.24255189  0.24255189  0.27234333  1
loop_
_geom_bond_atom_site_label_1
_geom_bond_atom_site_label_2
_geom_bond_distance
_geom_bond_site_symmetry_2
Zn0 Zn1 2.456494 1_555
Zn0 Zn2 2.456494 1_555
Zn0 Zn1 2.515958 1_455
Zn0 Zn2 2.515958 1_465
Zn0 Zr0 2.860773 1_564
Zn0 Zr0 2.882277 1_565
Zn0 Zr0 2.882290 1_555
Zn1 Zn2 2.456495 1_555
Zn1 Zn2 2.515959 1_565
Zn1 Zr0 2.860766 1_664
Zn1 Zr0 2.882283 1_565
Zn1 Zr0 2.882284 1_655
Zn2 Zr0 2.860773 1_654
Zn2 Zr0 2.882277 1_655
Zn2 Zr0 2.882290 1_555
Ni0 Zn0 2.429718 1_654
Ni0 Zn2 2.429719 1_564
Ni0 Zn1 2.429721 1_554
Ni0 Zn1 2.431404 1_555
Ni0 Zn0 2.431406 1_555
Ni0 Zn2 2.431407 1_555
Ni0 Zr0 2.912291 1_664
Ni0 Zr0 2.912308 1_564
Ni0 Zr0 2.912308 1_654
Ni0 Rh0 2.933650 1_655
Ni0 Rh0 2.933650 1_565
Ni0 Rh0 2.933667 1_555
Rh0 Zr0 2.829174 1_555
Rh0 Zn2 2.839283 1_455
Rh0 Zn0 2.839284 1_545
Rh0 Zn1 2.839290 1_455
Rh0 Zn1 2.839290 1_545
Rh0 Zn2 2.839297 1_555
Rh0 Zn0 2.839297 1_555
Rh0 Zn2 2.919173 1_554
Rh0 Zn0 2.919173 1_554
Rh0 Zn1 2.919179 1_554
Rh0 Zr0 3.072028 1_654
Rh0 Zr0 3.072029 1_564
Rh0 Zr0 3.072029 1_554
