# generated using pymatgen
data_K4Sr2HfSb4
_symmetry_space_group_name_H-M   'P 1'
_cell_length_a   10.99817754
_cell_length_b   10.99817890
_cell_length_c   8.29087003
_cell_angle_alpha   88.16781567
_cell_angle_beta   88.16780759
_cell_angle_gamma   119.67439431
_symmetry_Int_Tables_number   1
_chemical_formula_structural   K4Sr2HfSb4
_chemical_formula_sum   'K8 Sr4 Hf2 Sb8'
_cell_volume   869.57457320
_cell_formula_units_Z   2
loop_
 _symmetry_equiv_pos_site_id
 _symmetry_equiv_pos_as_xyz
  1  'x, y, z'
loop_
 _atom_site_type_symbol
 _atom_site_label
 _atom_site_symmetry_multiplicity
 _atom_site_fract_x
 _atom_site_fract_y
 _atom_site_fract_z
 _atom_site_occupancy
  K  K0  1  0.47738750  0.94727712  0.38241337  1
  K  K1  1  0.94727712  0.47738750  0.88241337  1
  K  K2  1  0.86338565  0.71703858  0.16761301  1
  K  K3  1  0.26974794  0.12731131  0.23626314  1
  K  K4  1  0.85318094  0.14124238  0.19688591  1
  K  K5  1  0.12731131  0.26974794  0.73626314  1
  K  K6  1  0.71703858  0.86338565  0.66761301  1
  K  K7  1  0.14124238  0.85318094  0.69688591  1
  Sr  Sr0  1  0.06438422  0.52997134  0.39141937  1
  Sr  Sr1  1  0.47745837  0.52677471  0.37625301  1
  Sr  Sr2  1  0.52997134  0.06438422  0.89141937  1
  Sr  Sr3  1  0.52677471  0.47745837  0.87625301  1
  Hf  Hf0  1  0.66488398  0.33544505  0.49303202  1
  Hf  Hf1  1  0.33544505  0.66488398  0.99303202  1
  Sb  Sb0  1  0.64590569  0.33143786  0.15661182  1
  Sb  Sb1  1  0.33143786  0.64590569  0.65661182  1
  Sb  Sb2  1  0.20561317  0.39257320  0.13167201  1
  Sb  Sb3  1  0.61312333  0.80256672  0.07944666  1
  Sb  Sb4  1  0.20474230  0.80866466  0.10242070  1
  Sb  Sb5  1  0.80256672  0.61312333  0.57944666  1
  Sb  Sb6  1  0.39257320  0.20561317  0.63167201  1
  Sb  Sb7  1  0.80866466  0.20474230  0.60242070  1
loop_
_geom_bond_atom_site_label_1
_geom_bond_atom_site_label_2
_geom_bond_distance
_geom_bond_site_symmetry_2
K0 Sb1 3.570393 1_555
K0 Sb4 3.584638 1_555
K0 Sb3 3.665982 1_555
K0 Sb7 3.893597 1_565
K0 Sb6 4.011205 1_565
K0 Sb0 4.038544 1_565
K1 Sb0 3.570393 1_556
K1 Sb7 3.584638 1_555
K1 Sb5 3.665982 1_555
K1 Sb4 3.893597 1_656
K1 Sb2 4.011205 1_656
K1 Sb1 4.038543 1_655
K2 Sb4 3.389963 1_655
K2 Sb3 3.412223 1_555
K2 Sb5 3.501374 1_555
K2 Sb0 3.702654 1_555
K3 Sb2 3.416956 1_555
K3 Sb4 3.441341 1_545
K3 Sb6 3.553227 1_555
K3 Sb0 3.622942 1_555
K4 Sb2 3.481244 1_655
K4 Sb7 3.523567 1_555
K4 Sb3 3.528730 1_545
K4 Sb0 3.795987 1_555
K5 Sb6 3.416956 1_555
K5 Sb7 3.441340 1_455
K5 Sb2 3.553227 1_556
K5 Sb1 3.622942 1_555
K6 Sb7 3.389963 1_565
K6 Sb5 3.412223 1_555
K6 Sb3 3.501374 1_556
K6 Sb1 3.702654 1_555
K7 Sb6 3.481244 1_565
K7 Sb4 3.523567 1_556
K7 Sb5 3.528729 1_455
K7 Sb1 3.795987 1_555
Hf0 Sb7 2.765604 1_555
Hf0 Sb5 2.786275 1_555
Hf0 Sb6 2.787528 1_555
Hf0 Sb0 2.803786 1_555
Hf1 Sb4 2.765604 1_556
Hf1 Sb3 2.786274 1_556
Hf1 Sb2 2.787528 1_556
Hf1 Sb1 2.803786 1_555
Sb0 Sr3 3.426103 1_554
Sb0 Sr2 3.459866 1_554
Sb0 Sr1 3.916496 1_555
Sb1 Sr1 3.426102 1_555
Sb1 Sr0 3.459866 1_555
Sb1 Sr3 3.916496 1_555
Sb2 Sr1 3.382165 1_555
Sb2 Sr0 3.413512 1_555
Sb2 Sr3 3.736653 1_554
Sb3 Sr1 3.505550 1_555
Sb3 Sr3 3.694611 1_554
Sb3 Sr2 3.737605 1_564
Sb4 Sr0 3.482515 1_555
Sb4 Sr2 3.617892 1_564
Sb5 Sr3 3.505549 1_555
Sb5 Sr1 3.694610 1_555
Sb5 Sr0 3.737605 1_655
Sb6 Sr3 3.382165 1_555
Sb6 Sr2 3.413512 1_555
Sb6 Sr1 3.736654 1_555
Sb7 Sr2 3.482515 1_555
Sb7 Sr0 3.617892 1_655
