# generated using pymatgen
data_Y10Zn3Bi2Os
_symmetry_space_group_name_H-M   'P 1'
_cell_length_a   8.67652114
_cell_length_b   8.67652088
_cell_length_c   8.77301867
_cell_angle_alpha   125.26842241
_cell_angle_beta   125.26843084
_cell_angle_gamma   80.34825999
_symmetry_Int_Tables_number   1
_chemical_formula_structural   Y10Zn3Bi2Os
_chemical_formula_sum   'Y10 Zn3 Bi2 Os1'
_cell_volume   426.43112929
_cell_formula_units_Z   1
loop_
 _symmetry_equiv_pos_site_id
 _symmetry_equiv_pos_as_xyz
  1  'x, y, z'
loop_
 _atom_site_type_symbol
 _atom_site_label
 _atom_site_symmetry_multiplicity
 _atom_site_fract_x
 _atom_site_fract_y
 _atom_site_fract_z
 _atom_site_occupancy
  Y  Y0  1  0.00864717  0.00472339  0.01337056  1
  Y  Y1  1  0.49527661  0.49135283  0.98662944  1
  Y  Y2  1  0.78529969  0.29615758  0.79934724  1
  Y  Y3  1  0.20384242  0.71470031  0.20065276  1
  Y  Y4  1  0.48595344  0.99681034  0.20065276  1
  Y  Y5  1  0.30878624  0.46717175  0.50000000  1
  Y  Y6  1  0.03282825  0.19121376  0.50000000  1
  Y  Y7  1  0.50318966  0.01404656  0.79934724  1
  Y  Y8  1  0.70613450  0.51902855  0.50000000  1
  Y  Y9  1  0.98097145  0.79386550  0.50000000  1
  Zn  Zn0  1  0.13591280  0.63954353  0.77545733  1
  Zn  Zn1  1  0.86045647  0.36408720  0.22454267  1
  Zn  Zn2  1  0.63244620  0.86755380  0.50000000  1
  Bi  Bi0  1  0.24646694  0.25353306  1.00000000  1
  Bi  Bi1  1  0.74646694  0.75353306  1.00000000  1
  Os  Os0  1  0.36731923  0.13268077  0.50000000  1
loop_
_geom_bond_atom_site_label_1
_geom_bond_atom_site_label_2
_geom_bond_distance
_geom_bond_site_symmetry_2
Y0 Zn0 3.076739 1_544
Y0 Zn1 3.089211 1_455
Y0 Zn2 3.238965 1_444
Y1 Zn1 3.076739 1_556
Y1 Zn0 3.089211 1_555
Y1 Zn2 3.238965 1_556
Y2 Zn2 2.972976 1_545
Y2 Zn1 3.077045 1_556
Y3 Zn2 2.972976 1_555
Y3 Zn0 3.077045 1_554
Y4 Zn2 2.972977 1_555
Y4 Zn0 3.077057 1_554
Y5 Zn1 3.096191 1_455
Y5 Zn0 3.096200 1_555
Y6 Zn0 3.096192 1_555
Y6 Zn1 3.096199 1_455
Y7 Zn2 2.972978 1_545
Y7 Zn1 3.077057 1_556
Y8 Zn0 2.970088 1_655
Y8 Zn1 2.970096 1_555
Y8 Zn2 2.984119 1_555
Y9 Zn1 2.970088 1_555
Y9 Zn0 2.970096 1_655
Y9 Zn2 2.984119 1_555
Bi0 Y0 3.316271 1_556
Bi0 Y1 3.316271 1_555
Bi0 Y4 3.336174 1_546
Bi0 Y7 3.336174 1_555
Bi0 Y6 3.343208 1_555
Bi0 Y5 3.343208 1_556
Bi0 Y2 3.371593 1_455
Bi0 Y3 3.371593 1_556
Bi0 Y8 3.415116 1_556
Bi0 Y9 3.415117 1_445
Bi1 Y1 3.316271 1_555
Bi1 Y0 3.316271 1_666
Bi1 Y3 3.336172 1_656
Bi1 Y2 3.336172 1_555
Bi1 Y5 3.343207 1_555
Bi1 Y6 3.343208 1_666
Bi1 Y7 3.371585 1_565
Bi1 Y4 3.371586 1_556
Bi1 Y9 3.415116 1_556
Bi1 Y8 3.415117 1_555
Os0 Y5 2.861216 1_555
Os0 Y6 2.861216 1_555
Os0 Y2 2.913008 1_555
Os0 Y3 2.913009 1_545
Os0 Y7 2.913015 1_555
Os0 Y4 2.913016 1_545
Os0 Zn2 2.968009 1_545
Os0 Y0 3.079880 1_555
Os0 Y1 3.079881 1_555
