# generated using pymatgen
data_Y2Al9OsRu4
_symmetry_space_group_name_H-M   'P 1'
_cell_length_a   7.94593208
_cell_length_b   7.94593244
_cell_length_c   7.94593182
_cell_angle_alpha   134.50156352
_cell_angle_beta   134.50156314
_cell_angle_gamma   66.30565172
_symmetry_Int_Tables_number   1
_chemical_formula_structural   Y2Al9OsRu4
_chemical_formula_sum   'Y2 Al9 Os1 Ru4'
_cell_volume   251.23270684
_cell_formula_units_Z   1
loop_
 _symmetry_equiv_pos_site_id
 _symmetry_equiv_pos_as_xyz
  1  'x, y, z'
loop_
 _atom_site_type_symbol
 _atom_site_label
 _atom_site_symmetry_multiplicity
 _atom_site_fract_x
 _atom_site_fract_y
 _atom_site_fract_z
 _atom_site_occupancy
  Y  Y0  1  0.00000000  0.50000000  0.50000000  1
  Y  Y1  1  0.50000000  0.00000000  0.50000000  1
  Al  Al0  1  0.44060932  0.86142570  1.00000000  1
  Al  Al1  1  0.13857430  0.13857430  0.57918262  1
  Al  Al2  1  0.86142570  0.44060932  1.00000000  1
  Al  Al3  1  0.86142570  0.86142570  0.42081738  1
  Al  Al4  1  0.55939068  0.13857430  0.00000000  1
  Al  Al5  1  0.13857430  0.55939068  0.00000000  1
  Al  Al6  1  0.55939068  0.55939068  0.42081738  1
  Al  Al7  1  0.00000000  0.00000000  0.00000000  1
  Al  Al8  1  0.44060932  0.44060932  0.57918262  1
  Os  Os0  1  0.50000000  0.50000000  0.00000000  1
  Ru  Ru0  1  0.18249159  0.18249159  0.00000000  1
  Ru  Ru1  1  0.81750841  0.81750841  1.00000000  1
  Ru  Ru2  1  0.25000000  0.75000000  0.50000000  1
  Ru  Ru3  1  0.75000000  0.25000000  0.50000000  1
loop_
_geom_bond_atom_site_label_1
_geom_bond_atom_site_label_2
_geom_bond_distance
_geom_bond_site_symmetry_2
Al0 Ru0 2.551399 1_566
Al0 Ru2 2.563872 1_555
Al0 Ru3 2.563872 1_566
Al0 Al3 2.586070 1_556
Al0 Al8 2.586070 1_555
Al0 Os0 2.716809 1_556
Al0 Al4 2.722322 1_566
Al0 Ru1 2.872411 1_555
Al0 Y1 2.979304 1_566
Al0 Y0 2.979304 1_555
Al1 Ru1 2.551395 1_444
Al1 Ru3 2.563875 1_455
Al1 Ru2 2.563875 1_545
Al1 Al4 2.586070 1_556
Al1 Al5 2.586070 1_556
Al1 Os0 2.716807 1_556
Al1 Al3 2.722333 1_445
Al1 Ru0 2.872418 1_556
Al1 Y1 2.979299 1_555
Al1 Y0 2.979299 1_555
Al2 Ru0 2.551399 1_656
Al2 Ru3 2.563872 1_555
Al2 Ru2 2.563872 1_656
Al2 Al8 2.586070 1_555
Al2 Al3 2.586070 1_556
Al2 Os0 2.716809 1_556
Al2 Al5 2.722322 1_656
Al2 Ru1 2.872411 1_555
Al2 Y0 2.979304 1_656
Al2 Y1 2.979304 1_555
Al3 Ru0 2.551395 1_666
Al3 Ru2 2.563875 1_655
Al3 Ru3 2.563875 1_565
Al3 Os0 2.716807 1_555
Al3 Ru1 2.872418 1_554
Al3 Y1 2.979299 1_565
Al3 Y0 2.979299 1_655
Al4 Ru1 2.551399 1_544
Al4 Ru3 2.563872 1_555
Al4 Ru2 2.563872 1_544
Al4 Al6 2.586070 1_555
Al4 Os0 2.716809 1_555
Al4 Ru0 2.872411 1_555
Al4 Y1 2.979304 1_554
Al4 Y0 2.979304 1_655
Al5 Ru1 2.551399 1_454
Al5 Ru2 2.563872 1_555
Al5 Ru3 2.563872 1_454
Al5 Al6 2.586070 1_555
Al5 Os0 2.716809 1_555
Al5 Ru0 2.872411 1_555
Al5 Y0 2.979304 1_554
Al5 Y1 2.979304 1_565
Al6 Ru1 2.551393 1_555
Al6 Ru2 2.563868 1_555
Al6 Ru3 2.563868 1_555
Al6 Os0 2.716817 1_555
Al6 Al8 2.722307 1_555
Al6 Ru0 2.872408 1_555
Al6 Y0 2.979308 1_655
Al6 Y1 2.979308 1_565
Al7 Ru0 2.428033 1_555
Al7 Ru1 2.428033 1_444
Al7 Y1 3.072679 1_555
Al7 Y1 3.072679 1_454
Al7 Y0 3.072679 1_544
Al7 Y0 3.072679 1_555
Al8 Ru0 2.551393 1_555
Al8 Ru3 2.563868 1_555
Al8 Ru2 2.563868 1_555
Al8 Os0 2.716817 1_556
Al8 Ru1 2.872408 1_555
Al8 Y0 2.979308 1_555
Al8 Y1 2.979308 1_555
Os0 Y0 3.072679 1_655
Os0 Y0 3.072679 1_554
Os0 Y1 3.072679 1_565
Os0 Y1 3.072679 1_554
Ru2 Y1 3.326226 1_565
Ru2 Y0 3.326226 1_555
Ru3 Y0 3.326226 1_655
Ru3 Y1 3.326226 1_555
