# generated using pymatgen
data_NaYPt4
_symmetry_space_group_name_H-M   'P 1'
_cell_length_a   5.35779640
_cell_length_b   5.35779626
_cell_length_c   5.35779548
_cell_angle_alpha   59.99999882
_cell_angle_beta   59.99999964
_cell_angle_gamma   60.00000587
_symmetry_Int_Tables_number   1
_chemical_formula_structural   NaYPt4
_chemical_formula_sum   'Na1 Y1 Pt4'
_cell_volume   108.75357670
_cell_formula_units_Z   1
loop_
 _symmetry_equiv_pos_site_id
 _symmetry_equiv_pos_as_xyz
  1  'x, y, z'
loop_
 _atom_site_type_symbol
 _atom_site_label
 _atom_site_symmetry_multiplicity
 _atom_site_fract_x
 _atom_site_fract_y
 _atom_site_fract_z
 _atom_site_occupancy
  Na  Na0  1  0.25000000  0.25000000  0.25000000  1
  Y  Y0  1  0.00000000  0.00000000  0.00000000  1
  Pt  Pt0  1  0.62468395  0.62468395  0.12594815  1
  Pt  Pt1  1  0.62468395  0.12594815  0.62468395  1
  Pt  Pt2  1  0.12594815  0.62468395  0.62468395  1
  Pt  Pt3  1  0.62468395  0.62468395  0.62468395  1
loop_
_geom_bond_atom_site_label_1
_geom_bond_atom_site_label_2
_geom_bond_distance
_geom_bond_site_symmetry_2
Na0 Pt2 3.140567 1_554
Na0 Pt1 3.140567 1_554
Na0 Pt3 3.140567 1_554
Na0 Pt2 3.140567 1_555
Na0 Pt1 3.140567 1_555
Na0 Pt2 3.140567 1_545
Na0 Pt0 3.140567 1_555
Na0 Pt1 3.140567 1_455
Na0 Pt3 3.140567 1_545
Na0 Pt3 3.140567 1_455
Na0 Pt0 3.140567 1_545
Na0 Pt0 3.140567 1_455
Na0 Y0 3.280966 1_556
Na0 Y0 3.280967 1_555
Na0 Y0 3.280967 1_565
Na0 Y0 3.280967 1_655
Pt0 Pt3 2.672124 1_555
Pt0 Pt1 2.672125 1_555
Pt0 Pt2 2.672125 1_555
Pt0 Pt3 2.685671 1_554
Pt0 Pt1 2.685671 1_564
Pt0 Pt2 2.685671 1_654
Pt0 Y0 3.142011 1_665
Pt0 Y0 3.142011 1_655
Pt0 Y0 3.142011 1_565
Pt1 Pt3 2.672125 1_555
Pt1 Pt2 2.672125 1_555
Pt1 Pt3 2.685671 1_545
Pt1 Pt2 2.685672 1_645
Pt1 Y0 3.142011 1_655
Pt1 Y0 3.142011 1_656
Pt1 Y0 3.142011 1_556
Pt2 Pt3 2.672125 1_555
Pt2 Pt3 2.685672 1_455
Pt2 Y0 3.142011 1_565
Pt2 Y0 3.142011 1_566
Pt2 Y0 3.142011 1_556
Pt3 Y0 3.142011 1_665
Pt3 Y0 3.142011 1_656
Pt3 Y0 3.142011 1_566
