# generated using pymatgen
data_Ba2Tc6Se11
_symmetry_space_group_name_H-M   'P 1'
_cell_length_a   12.50071051
_cell_length_b   12.50071036
_cell_length_c   12.50070971
_cell_angle_alpha   45.04483532
_cell_angle_beta   45.04483900
_cell_angle_gamma   45.04483303
_symmetry_Int_Tables_number   1
_chemical_formula_structural   Ba2Tc6Se11
_chemical_formula_sum   'Ba4 Tc12 Se22'
_cell_volume   890.47480135
_cell_formula_units_Z   2
loop_
 _symmetry_equiv_pos_site_id
 _symmetry_equiv_pos_as_xyz
  1  'x, y, z'
loop_
 _atom_site_type_symbol
 _atom_site_label
 _atom_site_symmetry_multiplicity
 _atom_site_fract_x
 _atom_site_fract_y
 _atom_site_fract_z
 _atom_site_occupancy
  Ba  Ba0  1  0.31084769  0.31084769  0.31084769  1
  Ba  Ba1  1  0.18915231  0.18915231  0.18915231  1
  Ba  Ba2  1  0.68915231  0.68915231  0.68915231  1
  Ba  Ba3  1  0.81084769  0.81084769  0.81084769  1
  Tc  Tc0  1  0.61307513  0.30039699  0.48971208  1
  Tc  Tc1  1  0.48971208  0.61307513  0.30039699  1
  Tc  Tc2  1  0.80039699  0.11307513  0.98971208  1
  Tc  Tc3  1  0.98971208  0.80039699  0.11307513  1
  Tc  Tc4  1  0.11307513  0.98971208  0.80039699  1
  Tc  Tc5  1  0.69960301  0.51028792  0.38692487  1
  Tc  Tc6  1  0.38692487  0.69960301  0.51028792  1
  Tc  Tc7  1  0.51028792  0.38692487  0.69960301  1
  Tc  Tc8  1  0.30039699  0.48971208  0.61307513  1
  Tc  Tc9  1  0.88692487  0.01028792  0.19960301  1
  Tc  Tc10  1  0.01028792  0.19960301  0.88692487  1
  Tc  Tc11  1  0.19960301  0.88692487  0.01028792  1
  Se  Se0  1  0.09035177  0.09035177  0.09035177  1
  Se  Se1  1  0.40964823  0.40964823  0.40964823  1
  Se  Se2  1  0.90964823  0.90964823  0.90964823  1
  Se  Se3  1  0.59035177  0.59035177  0.59035177  1
  Se  Se4  1  0.25000000  0.98231774  0.51768226  1
  Se  Se5  1  0.51768226  0.25000000  0.98231774  1
  Se  Se6  1  0.98231774  0.51768226  0.25000000  1
  Se  Se7  1  0.75000000  0.01768226  0.48231774  1
  Se  Se8  1  0.48231774  0.75000000  0.01768226  1
  Se  Se9  1  0.01768226  0.48231774  0.75000000  1
  Se  Se10  1  0.07327713  0.70681882  0.31032856  1
  Se  Se11  1  0.31032856  0.07327713  0.70681882  1
  Se  Se12  1  0.70681882  0.31032856  0.07327713  1
  Se  Se13  1  0.42672287  0.18967144  0.79318118  1
  Se  Se14  1  0.79318118  0.42672287  0.18967144  1
  Se  Se15  1  0.18967144  0.79318118  0.42672287  1
  Se  Se16  1  0.81032856  0.20681882  0.57327713  1
  Se  Se17  1  0.20681882  0.57327713  0.81032856  1
  Se  Se18  1  0.57327713  0.81032856  0.20681882  1
  Se  Se19  1  0.29318118  0.68967144  0.92672287  1
  Se  Se20  1  0.68967144  0.92672287  0.29318118  1
  Se  Se21  1  0.92672287  0.29318118  0.68967144  1
loop_
_geom_bond_atom_site_label_1
_geom_bond_atom_site_label_2
_geom_bond_distance
_geom_bond_site_symmetry_2
Ba0 Se6 3.280247 1_455
Ba0 Se5 3.280247 1_554
Ba0 Se4 3.280247 1_545
Ba0 Se1 3.323096 1_555
Ba0 Se11 3.539810 1_555
Ba0 Se10 3.539810 1_555
Ba0 Se12 3.539810 1_555
Ba0 Se20 3.663256 1_545
Ba0 Se19 3.663256 1_554
Ba0 Se21 3.663257 1_455
Ba1 Se4 3.280247 1_545
Ba1 Se6 3.280247 1_455
Ba1 Se5 3.280247 1_554
Ba1 Se0 3.323096 1_555
Ba1 Se14 3.539810 1_455
Ba1 Se13 3.539810 1_554
Ba1 Se15 3.539810 1_545
Ba1 Se18 3.663256 1_545
Ba1 Se17 3.663257 1_554
Ba1 Se16 3.663257 1_455
Ba2 Se9 3.280247 1_655
Ba2 Se8 3.280247 1_556
Ba2 Se7 3.280247 1_565
Ba2 Se3 3.323096 1_555
Ba2 Se20 3.539810 1_555
Ba2 Se21 3.539810 1_555
Ba2 Se19 3.539810 1_555
Ba2 Se11 3.663256 1_565
Ba2 Se12 3.663256 1_556
Ba2 Se10 3.663257 1_655
Ba3 Se7 3.280247 1_565
Ba3 Se9 3.280247 1_655
Ba3 Se8 3.280247 1_556
Ba3 Se2 3.323096 1_555
Ba3 Se17 3.539810 1_655
Ba3 Se18 3.539810 1_556
Ba3 Se16 3.539810 1_565
Ba3 Se13 3.663256 1_565
Ba3 Se14 3.663257 1_556
Ba3 Se15 3.663257 1_655
Se0 Tc10 2.467986 1_554
Se0 Tc11 2.467986 1_545
Se0 Tc9 2.467987 1_455
Se1 Tc0 2.467986 1_555
Se1 Tc8 2.467986 1_555
Se1 Tc1 2.467986 1_555
Se2 Tc3 2.467986 1_556
Se2 Tc2 2.467986 1_565
Se2 Tc4 2.467987 1_655
Se3 Tc6 2.467986 1_555
Se3 Tc5 2.467986 1_555
Se3 Tc7 2.467986 1_555
Se4 Tc6 2.668009 1_555
Se4 Tc4 2.668009 1_555
Se5 Tc7 2.668009 1_555
Se5 Tc2 2.668009 1_555
Se6 Tc3 2.668009 1_555
Se6 Tc5 2.668009 1_555
Se7 Tc0 2.668009 1_555
Se7 Tc9 2.668009 1_555
Se8 Tc1 2.668009 1_555
Se8 Tc11 2.668009 1_555
Se9 Tc10 2.668009 1_555
Se9 Tc8 2.668009 1_555
Se10 Tc11 2.520312 1_555
Se10 Tc3 2.525253 1_455
Se10 Tc9 2.526309 1_465
Se11 Tc10 2.520312 1_555
Se11 Tc4 2.525253 1_545
Se11 Tc11 2.526309 1_546
Se12 Tc9 2.520312 1_555
Se12 Tc2 2.525253 1_554
Se12 Tc10 2.526309 1_654
Se13 Tc8 2.520312 1_555
Se13 Tc7 2.525253 1_555
Se13 Tc0 2.526309 1_555
Se14 Tc0 2.520312 1_555
Se14 Tc5 2.525253 1_555
Se14 Tc1 2.526309 1_555
Se15 Tc1 2.520312 1_555
Se15 Tc6 2.525253 1_555
Se15 Tc8 2.526309 1_555
Se16 Tc7 2.520312 1_555
Se16 Tc0 2.525253 1_555
Se16 Tc5 2.526309 1_555
Se17 Tc6 2.520312 1_555
Se17 Tc8 2.525253 1_555
Se17 Tc7 2.526309 1_555
Se18 Tc5 2.520312 1_555
Se18 Tc1 2.525253 1_555
Se18 Tc6 2.526309 1_555
Se19 Tc4 2.520312 1_555
Se19 Tc11 2.525253 1_556
Se19 Tc3 2.526309 1_456
Se20 Tc3 2.520312 1_555
Se20 Tc9 2.525253 1_565
Se20 Tc2 2.526309 1_564
Se21 Tc2 2.520312 1_555
Se21 Tc10 2.525253 1_655
Se21 Tc4 2.526309 1_645
