# generated using pymatgen
data_Lu7Cd(Co3Sn11)2
_symmetry_space_group_name_H-M   'P 1'
_cell_length_a   9.58741759
_cell_length_b   9.58741583
_cell_length_c   9.75734292
_cell_angle_alpha   90.00000000
_cell_angle_beta   90.00000000
_cell_angle_gamma   120.00000266
_symmetry_Int_Tables_number   1
_chemical_formula_structural   Lu7Cd(Co3Sn11)2
_chemical_formula_sum   'Lu7 Cd1 Co6 Sn22'
_cell_volume   776.72162558
_cell_formula_units_Z   1
loop_
 _symmetry_equiv_pos_site_id
 _symmetry_equiv_pos_as_xyz
  1  'x, y, z'
loop_
 _atom_site_type_symbol
 _atom_site_label
 _atom_site_symmetry_multiplicity
 _atom_site_fract_x
 _atom_site_fract_y
 _atom_site_fract_z
 _atom_site_occupancy
  Lu  Lu0  1  0.00000000  0.00000000  0.00000000  1
  Lu  Lu1  1  0.48141102  0.51858898  0.30736367  1
  Lu  Lu2  1  0.51858898  0.48141102  0.69263633  1
  Lu  Lu3  1  0.48141102  0.96282104  0.30736367  1
  Lu  Lu4  1  0.51858898  0.03717896  0.69263633  1
  Lu  Lu5  1  0.03717896  0.51858898  0.30736367  1
  Lu  Lu6  1  0.96282104  0.48141102  0.69263633  1
  Cd  Cd0  1  0.00000000  0.00000000  0.50000000  1
  Co  Co0  1  0.83057325  0.16942675  0.19802344  1
  Co  Co1  1  0.16942675  0.83057325  0.80197656  1
  Co  Co2  1  0.83057325  0.66114650  0.19802344  1
  Co  Co3  1  0.16942675  0.33885350  0.80197656  1
  Co  Co4  1  0.33885350  0.16942675  0.19802344  1
  Co  Co5  1  0.66114650  0.83057325  0.80197656  1
  Sn  Sn0  1  0.34617440  0.00000000  0.00000000  1
  Sn  Sn1  1  0.65382560  1.00000000  0.00000000  1
  Sn  Sn2  1  1.00000000  0.34617440  0.00000000  1
  Sn  Sn3  1  0.00000000  0.65382560  0.00000000  1
  Sn  Sn4  1  0.65382560  0.65382560  0.00000000  1
  Sn  Sn5  1  0.34617440  0.34617440  0.00000000  1
  Sn  Sn6  1  0.33333300  0.66666700  0.82453426  1
  Sn  Sn7  1  0.66666700  0.33333300  0.17546574  1
  Sn  Sn8  1  0.78078431  0.21921569  0.45526637  1
  Sn  Sn9  1  0.21921569  0.78078431  0.54473363  1
  Sn  Sn10  1  0.78078431  0.56157063  0.45526637  1
  Sn  Sn11  1  0.21921569  0.43842937  0.54473363  1
  Sn  Sn12  1  0.43842937  0.21921569  0.45526637  1
  Sn  Sn13  1  0.56157063  0.78078431  0.54473363  1
  Sn  Sn14  1  0.33333300  0.66666700  0.12608120  1
  Sn  Sn15  1  0.66666700  0.33333300  0.87391880  1
  Sn  Sn16  1  0.11537828  0.88462172  0.27248660  1
  Sn  Sn17  1  0.88462172  0.11537828  0.72751340  1
  Sn  Sn18  1  0.11537828  0.23075655  0.27248660  1
  Sn  Sn19  1  0.88462172  0.76924345  0.72751340  1
  Sn  Sn20  1  0.76924345  0.88462172  0.27248660  1
  Sn  Sn21  1  0.23075655  0.11537828  0.72751340  1
loop_
_geom_bond_atom_site_label_1
_geom_bond_atom_site_label_2
_geom_bond_distance
_geom_bond_site_symmetry_2
Lu0 Sn18 3.277167 1_555
Lu0 Sn19 3.277167 1_444
Lu0 Sn16 3.277167 1_545
Lu0 Sn17 3.277167 1_454
Lu0 Sn20 3.277167 1_445
Lu0 Sn21 3.277167 1_554
Lu0 Sn2 3.318918 1_455
Lu0 Sn3 3.318918 1_545
Lu0 Sn5 3.318918 1_555
Lu0 Sn4 3.318918 1_445
Lu0 Sn0 3.318919 1_555
Lu0 Sn1 3.318919 1_445
Lu1 Sn14 3.029076 1_555
Lu1 Sn12 3.050874 1_555
Lu1 Sn10 3.050874 1_555
Lu1 Sn13 3.215917 1_555
Lu1 Sn11 3.215917 1_555
Lu1 Sn20 3.219021 1_555
Lu1 Sn18 3.219021 1_555
Lu1 Sn7 3.334693 1_555
Lu1 Sn5 3.356279 1_555
Lu1 Sn4 3.356279 1_555
Lu2 Sn15 3.029076 1_555
Lu2 Sn13 3.050874 1_555
Lu2 Sn11 3.050874 1_555
Lu2 Sn12 3.215917 1_555
Lu2 Sn10 3.215917 1_555
Lu2 Sn21 3.219021 1_555
Lu2 Sn19 3.219021 1_555
Lu2 Sn6 3.334693 1_555
Lu2 Sn4 3.356279 1_556
Lu2 Sn5 3.356279 1_556
Lu3 Sn14 3.029062 1_555
Lu3 Sn8 3.050884 1_565
Lu3 Sn12 3.050899 1_565
Lu3 Sn9 3.215918 1_555
Lu3 Sn13 3.215923 1_555
Lu3 Sn20 3.219015 1_555
Lu3 Sn16 3.219025 1_555
Lu3 Sn7 3.334692 1_565
Lu3 Sn1 3.356278 1_555
Lu3 Sn0 3.356282 1_565
Lu4 Sn15 3.029062 1_555
Lu4 Sn9 3.050884 1_545
Lu4 Sn13 3.050899 1_545
Lu4 Sn8 3.215918 1_555
Lu4 Sn12 3.215923 1_555
Lu4 Sn21 3.219015 1_555
Lu4 Sn17 3.219025 1_555
Lu4 Sn6 3.334692 1_545
Lu4 Sn0 3.356278 1_556
Lu4 Sn1 3.356282 1_546
Lu5 Sn14 3.029062 1_555
Lu5 Sn8 3.050884 1_455
Lu5 Sn10 3.050900 1_455
Lu5 Sn9 3.215918 1_555
Lu5 Sn11 3.215923 1_555
Lu5 Sn18 3.219015 1_555
Lu5 Sn16 3.219024 1_555
Lu5 Sn7 3.334693 1_455
Lu5 Sn2 3.356278 1_455
Lu5 Sn3 3.356282 1_555
Lu6 Sn15 3.029062 1_555
Lu6 Sn9 3.050884 1_655
Lu6 Sn11 3.050900 1_655
Lu6 Sn8 3.215918 1_555
Lu6 Sn10 3.215923 1_555
Lu6 Sn19 3.219015 1_555
Lu6 Sn17 3.219024 1_555
Lu6 Sn6 3.334693 1_655
Lu6 Sn3 3.356278 1_656
Lu6 Sn2 3.356282 1_556
Cd0 Sn19 2.932400 1_445
Cd0 Sn18 2.932400 1_555
Cd0 Sn17 2.932401 1_455
Cd0 Sn16 2.932401 1_545
Cd0 Sn21 2.932401 1_555
Cd0 Sn20 2.932401 1_445
Co0 Sn2 2.547710 1_555
Co0 Sn1 2.547711 1_545
Co0 Sn20 2.593059 1_545
Co0 Sn18 2.593060 1_655
Co0 Sn8 2.642673 1_555
Co0 Sn7 2.730695 1_555
Co0 Lu5 3.104371 1_655
Co0 Lu3 3.104371 1_545
Co0 Lu0 3.413065 1_655
Co1 Sn3 2.547710 1_556
Co1 Sn0 2.547711 1_566
Co1 Sn21 2.593059 1_565
Co1 Sn19 2.593060 1_455
Co1 Sn9 2.642673 1_555
Co1 Sn6 2.730695 1_555
Co1 Lu6 3.104371 1_455
Co1 Lu4 3.104371 1_565
Co1 Lu0 3.413065 1_566
Co2 Sn3 2.547711 1_655
Co2 Sn4 2.547711 1_555
Co2 Sn20 2.593060 1_555
Co2 Sn16 2.593060 1_655
Co2 Sn10 2.642667 1_555
Co2 Sn7 2.730703 1_555
Co2 Lu1 3.104370 1_555
Co2 Lu5 3.104378 1_655
Co2 Lu0 3.413065 1_665
Co3 Sn2 2.547711 1_456
Co3 Sn5 2.547711 1_556
Co3 Sn21 2.593060 1_555
Co3 Sn17 2.593060 1_455
Co3 Sn11 2.642667 1_555
Co3 Sn6 2.730703 1_555
Co3 Lu2 3.104370 1_555
Co3 Lu6 3.104378 1_455
Co3 Lu0 3.413065 1_556
Co4 Sn5 2.547710 1_555
Co4 Sn0 2.547710 1_555
Co4 Sn16 2.593060 1_545
Co4 Sn18 2.593060 1_555
Co4 Sn12 2.642668 1_555
Co4 Sn7 2.730703 1_555
Co4 Lu1 3.104370 1_555
Co4 Lu3 3.104378 1_545
Co4 Lu0 3.413065 1_555
Co5 Sn4 2.547710 1_556
Co5 Sn1 2.547710 1_556
Co5 Sn17 2.593060 1_565
Co5 Sn19 2.593060 1_555
Co5 Sn13 2.642668 1_555
Co5 Sn6 2.730703 1_555
Co5 Lu2 3.104370 1_555
Co5 Lu4 3.104378 1_565
Co5 Lu0 3.413065 1_666
Sn0 Sn1 2.949580 1_545
Sn0 Sn21 3.277360 1_554
Sn0 Sn16 3.277360 1_545
Sn0 Sn14 3.368722 1_545
Sn0 Sn15 3.368727 1_554
Sn1 Sn20 3.277360 1_555
Sn1 Sn17 3.277360 1_564
Sn1 Sn15 3.368722 1_564
Sn1 Sn14 3.368727 1_555
Sn2 Sn3 2.949580 1_655
Sn4 Sn5 2.949580 1_555
Sn6 Sn9 3.323342 1_555
Sn7 Sn8 3.323342 1_555
Sn10 Sn19 3.166970 1_555
Sn10 Sn8 3.282299 1_555
Sn10 Sn12 3.282299 1_555
Sn10 Sn7 3.323356 1_555
Sn11 Sn18 3.166970 1_555
Sn11 Sn9 3.282299 1_555
Sn11 Sn13 3.282299 1_555
Sn11 Sn6 3.323356 1_555
Sn12 Sn21 3.166970 1_555
Sn12 Sn8 3.282300 1_555
Sn12 Sn7 3.323357 1_555
Sn13 Sn20 3.166970 1_555
Sn13 Sn9 3.282300 1_555
Sn13 Sn6 3.323357 1_555
Sn14 Sn6 2.942297 1_554
Sn14 Sn3 3.368723 1_555
Sn14 Sn2 3.368727 1_455
Sn14 Sn5 3.368731 1_555
Sn14 Sn4 3.368732 1_555
Sn15 Sn7 2.942297 1_556
Sn15 Sn2 3.368723 1_556
Sn15 Sn3 3.368727 1_656
Sn15 Sn4 3.368731 1_556
Sn15 Sn5 3.368732 1_556
Sn16 Sn9 3.166979 1_555
Sn16 Sn3 3.277359 1_555
Sn16 Sn18 3.318539 1_565
Sn16 Sn20 3.318539 1_455
Sn17 Sn8 3.166979 1_555
Sn17 Sn2 3.277359 1_556
Sn17 Sn19 3.318539 1_545
Sn17 Sn21 3.318539 1_655
Sn18 Sn2 3.277360 1_455
Sn18 Sn5 3.277360 1_555
Sn18 Sn20 3.318539 1_445
Sn19 Sn3 3.277360 1_656
Sn19 Sn4 3.277360 1_556
Sn19 Sn21 3.318539 1_665
Sn20 Sn4 3.277359 1_555
Sn21 Sn5 3.277359 1_556
