# generated using pymatgen
data_In3Bi3(SbO7)2
_symmetry_space_group_name_H-M   'P 1'
_cell_length_a   6.37259645
_cell_length_b   6.48623711
_cell_length_c   7.48484125
_cell_angle_alpha   107.08530963
_cell_angle_beta   89.50789325
_cell_angle_gamma   99.04682592
_symmetry_Int_Tables_number   1
_chemical_formula_structural   In3Bi3(SbO7)2
_chemical_formula_sum   'In3 Bi3 Sb2 O14'
_cell_volume   291.81563081
_cell_formula_units_Z   1
loop_
 _symmetry_equiv_pos_site_id
 _symmetry_equiv_pos_as_xyz
  1  'x, y, z'
loop_
 _atom_site_type_symbol
 _atom_site_label
 _atom_site_symmetry_multiplicity
 _atom_site_fract_x
 _atom_site_fract_y
 _atom_site_fract_z
 _atom_site_occupancy
  In  In0  1  0.53322960  0.99204946  0.74884816  1
  In  In1  1  0.46529182  0.00049647  0.24896167  1
  In  In2  1  0.25936229  0.52794403  0.88424866  1
  Bi  Bi0  1  0.74293354  0.46820668  0.10991504  1
  Bi  Bi1  1  0.73062660  0.46542602  0.61460130  1
  Bi  Bi2  1  0.25017958  0.52439294  0.38440075  1
  Sb  Sb0  1  0.00371620  0.00643368  0.50321631  1
  Sb  Sb1  1  0.00807851  0.00137687  0.99970041  1
  O  O0  1  0.43457972  0.65767703  0.15692182  1
  O  O1  1  0.53929516  0.33272539  0.81876053  1
  O  O2  1  0.30269415  0.95384111  0.95847077  1
  O  O3  1  0.71232812  0.04522220  0.04924585  1
  O  O4  1  0.29194618  0.92645177  0.51138455  1
  O  O5  1  0.71100737  0.07373677  0.48756773  1
  O  O6  1  0.52452824  0.34443058  0.34561449  1
  O  O7  1  0.45486346  0.65003053  0.67357839  1
  O  O8  1  0.95065942  0.67608115  0.95121369  1
  O  O9  1  0.08133033  0.32422361  0.04324868  1
  O  O10  1  0.09702643  0.32278139  0.62622749  1
  O  O11  1  0.90346805  0.69314451  0.37881545  1
  O  O12  1  0.90178517  0.94383332  0.73646046  1
  O  O13  1  0.10106906  0.06949649  0.26859882  1
loop_
_geom_bond_atom_site_label_1
_geom_bond_atom_site_label_2
_geom_bond_distance
_geom_bond_site_symmetry_2
In0 O7 2.100050 1_555
In0 O1 2.110017 1_565
In0 O2 2.180785 1_555
In0 O4 2.258576 1_555
In0 O5 2.402243 1_565
In0 O12 2.415120 1_555
In0 O3 2.437547 1_566
In1 O0 2.103017 1_545
In1 O6 2.105721 1_555
In1 O3 2.206304 1_555
In1 O5 2.276549 1_555
In1 O2 2.333705 1_544
In1 O4 2.378903 1_545
In1 O13 2.427204 1_555
In2 O10 2.159179 1_555
In2 O0 2.203346 1_556
In2 O9 2.208819 1_556
In2 O7 2.248405 1_555
In2 O8 2.310630 1_455
In2 O1 2.314424 1_555
In2 O2 2.622423 1_555
Bi0 O11 2.250920 1_555
Bi0 O8 2.309561 1_554
Bi0 O1 2.402096 1_554
Bi0 O0 2.447221 1_555
Bi0 O9 2.472360 1_655
Bi0 O6 2.476418 1_555
Bi0 O3 2.621574 1_555
Bi1 O1 2.230107 1_555
Bi1 O7 2.248251 1_555
Bi1 O6 2.277542 1_555
Bi1 O5 2.420130 1_555
Bi1 O10 2.654364 1_655
Bi1 O11 2.737895 1_555
Bi1 O8 2.759756 1_555
Bi2 O6 2.222019 1_555
Bi2 O0 2.353362 1_555
Bi2 O7 2.393345 1_555
Bi2 O4 2.470772 1_555
Bi2 O11 2.621166 1_455
Bi2 O10 2.626394 1_555
Bi2 O9 2.650193 1_555
O2 Sb1 1.957387 1_565
O3 Sb1 1.965979 1_654
O4 Sb0 1.991693 1_565
O5 Sb0 1.993381 1_655
O8 Sb1 2.006742 1_665
O9 Sb1 2.000843 1_554
O10 Sb0 1.981724 1_555
O11 Sb0 1.973471 1_665
O12 Sb0 1.987134 1_665
O12 Sb1 1.997887 1_665
O13 Sb0 1.989861 1_555
O13 Sb1 2.003200 1_554
