# generated using pymatgen
data_InTcF7
_symmetry_space_group_name_H-M   'P 1'
_cell_length_a   5.33813044
_cell_length_b   8.49502530
_cell_length_c   11.61377476
_cell_angle_alpha   63.13118505
_cell_angle_beta   90.00000000
_cell_angle_gamma   90.00000000
_symmetry_Int_Tables_number   1
_chemical_formula_structural   InTcF7
_chemical_formula_sum   'In4 Tc4 F28'
_cell_volume   469.80037999
_cell_formula_units_Z   4
loop_
 _symmetry_equiv_pos_site_id
 _symmetry_equiv_pos_as_xyz
  1  'x, y, z'
loop_
 _atom_site_type_symbol
 _atom_site_label
 _atom_site_symmetry_multiplicity
 _atom_site_fract_x
 _atom_site_fract_y
 _atom_site_fract_z
 _atom_site_occupancy
  In  In0  1  0.26181121  0.81528962  0.26429904  1
  In  In1  1  0.73818879  0.18471038  0.73570096  1
  In  In2  1  0.76181121  0.18471038  0.23570096  1
  In  In3  1  0.23818879  0.81528962  0.76429904  1
  Tc  Tc0  1  0.76137957  0.72844568  0.04375761  1
  Tc  Tc1  1  0.23862043  0.27155432  0.95624239  1
  Tc  Tc2  1  0.26137957  0.27155432  0.45624239  1
  Tc  Tc3  1  0.73862043  0.72844568  0.54375761  1
  F  F0  1  0.93965818  0.70599841  0.41481072  1
  F  F1  1  0.06034182  0.29400159  0.58518928  1
  F  F2  1  0.43965818  0.29400159  0.08518928  1
  F  F3  1  0.56034182  0.70599841  0.91481072  1
  F  F4  1  0.46510087  0.72059014  0.14256273  1
  F  F5  1  0.53489913  0.27940986  0.85743727  1
  F  F6  1  0.96510087  0.27940986  0.35743727  1
  F  F7  1  0.03489913  0.72059014  0.64256273  1
  F  F8  1  0.95586483  0.74318957  0.18131160  1
  F  F9  1  0.04413517  0.25681043  0.81868840  1
  F  F10  1  0.45586483  0.25681043  0.31868840  1
  F  F11  1  0.54413517  0.74318957  0.68131160  1
  F  F12  1  0.78586264  0.47297437  0.13953698  1
  F  F13  1  0.21413736  0.52702563  0.86046302  1
  F  F14  1  0.28586264  0.52702563  0.36046302  1
  F  F15  1  0.71413736  0.47297437  0.63953698  1
  F  F16  1  0.92797122  0.26754587  0.04560733  1
  F  F17  1  0.07202878  0.73245413  0.95439267  1
  F  F18  1  0.42797122  0.73245413  0.45439267  1
  F  F19  1  0.57202878  0.26754587  0.54560733  1
  F  F20  1  0.74529011  0.98141131  0.44937557  1
  F  F21  1  0.25470989  0.01858869  0.55062443  1
  F  F22  1  0.24529011  0.01858869  0.05062443  1
  F  F23  1  0.75470989  0.98141131  0.94937557  1
  F  F24  1  0.59561000  0.96535255  0.23001934  1
  F  F25  1  0.40439000  0.03464745  0.76998066  1
  F  F26  1  0.09561000  0.03464745  0.26998066  1
  F  F27  1  0.90439000  0.96535255  0.73001934  1
loop_
_geom_bond_atom_site_label_1
_geom_bond_atom_site_label_2
_geom_bond_distance
_geom_bond_site_symmetry_2
F0 Tc3 1.920641 1_555
F0 In0 2.325495 1_655
F1 Tc2 1.920641 1_555
F1 In1 2.325495 1_455
F2 Tc1 1.920641 1_554
F2 In2 2.325495 1_555
F3 Tc0 1.920641 1_556
F3 In3 2.325495 1_555
F4 Tc0 1.937362 1_555
F4 In0 2.202673 1_555
F5 Tc1 1.937362 1_555
F5 In1 2.202673 1_555
F6 Tc2 1.937362 1_655
F6 In2 2.202673 1_555
F7 Tc3 1.937362 1_455
F7 In3 2.202673 1_555
F8 Tc0 1.956133 1_555
F8 In0 2.122480 1_655
F9 Tc1 1.956133 1_555
F9 In1 2.122480 1_455
F10 Tc2 1.956133 1_555
F10 In2 2.122480 1_555
F11 Tc3 1.956133 1_555
F11 In3 2.122480 1_555
F12 Tc0 1.944803 1_555
F12 In2 2.188238 1_555
F13 Tc1 1.944803 1_555
F13 In3 2.188238 1_555
F14 Tc2 1.944803 1_555
F14 In0 2.188238 1_555
F15 Tc3 1.944803 1_555
F15 In1 2.188238 1_555
F16 Tc1 1.948407 1_654
F16 In2 2.179825 1_555
F17 Tc0 1.948407 1_456
F17 In3 2.179825 1_555
F18 Tc3 1.948407 1_555
F18 In0 2.179825 1_555
F19 Tc2 1.948407 1_555
F19 In1 2.179825 1_555
F20 Tc3 1.921352 1_555
F20 In2 2.296675 1_565
F21 Tc2 1.921352 1_555
F21 In3 2.296675 1_545
F22 Tc1 1.921352 1_554
F22 In0 2.296675 1_545
F23 Tc0 1.921352 1_556
F23 In1 2.296675 1_565
F24 In2 2.091668 1_565
F24 In0 2.121290 1_555
F25 In3 2.091668 1_545
F25 In1 2.121290 1_555
F26 In0 2.091668 1_545
F26 In2 2.121290 1_455
F27 In1 2.091668 1_565
F27 In3 2.121290 1_655
