# generated using pymatgen
data_BaIn
_symmetry_space_group_name_H-M   'P 1'
_cell_length_a   5.59279772
_cell_length_b   7.61120374
_cell_length_c   7.61120502
_cell_angle_alpha   113.91518293
_cell_angle_beta   90.00000000
_cell_angle_gamma   90.00000000
_symmetry_Int_Tables_number   1
_chemical_formula_structural   BaIn
_chemical_formula_sum   'Ba4 In4'
_cell_volume   296.17726006
_cell_formula_units_Z   4
loop_
 _symmetry_equiv_pos_site_id
 _symmetry_equiv_pos_as_xyz
  1  'x, y, z'
loop_
 _atom_site_type_symbol
 _atom_site_label
 _atom_site_symmetry_multiplicity
 _atom_site_fract_x
 _atom_site_fract_y
 _atom_site_fract_z
 _atom_site_occupancy
  Ba  Ba0  1  0.25000000  0.32258199  0.67741801  1
  Ba  Ba1  1  0.75000000  0.67741801  0.32258199  1
  Ba  Ba2  1  0.25000000  0.87510586  0.12489414  1
  Ba  Ba3  1  0.75000000  0.12489414  0.87510586  1
  In  In0  1  0.75000000  0.22538332  0.37850271  1
  In  In1  1  0.25000000  0.77461668  0.62149729  1
  In  In2  1  0.25000000  0.37850271  0.22538332  1
  In  In3  1  0.75000000  0.62149729  0.77461668  1
loop_
_geom_bond_atom_site_label_1
_geom_bond_atom_site_label_2
_geom_bond_distance
_geom_bond_site_symmetry_2
Ba0 In3 3.489790 1_555
Ba0 In3 3.489790 1_455
Ba0 In0 3.489790 1_555
Ba0 In0 3.489790 1_455
Ba0 In1 3.633959 1_555
Ba0 In2 3.633959 1_555
Ba0 In1 4.017022 1_545
Ba0 In2 4.017023 1_556
Ba1 In2 3.489790 1_655
Ba1 In2 3.489790 1_555
Ba1 In1 3.489790 1_555
Ba1 In1 3.489790 1_655
Ba1 In0 3.633959 1_555
Ba1 In3 3.633959 1_555
Ba1 In0 4.017022 1_565
Ba1 In3 4.017023 1_554
Ba2 In2 3.590141 1_565
Ba2 In1 3.590142 1_554
Ba2 In0 3.805414 1_465
Ba2 In0 3.805414 1_565
Ba2 In3 3.805414 1_454
Ba2 In3 3.805414 1_554
Ba2 In2 4.149137 1_555
Ba2 In1 4.149138 1_555
Ba3 In3 3.590141 1_545
Ba3 In0 3.590142 1_556
Ba3 In1 3.805414 1_645
Ba3 In1 3.805414 1_545
Ba3 In2 3.805414 1_656
Ba3 In2 3.805414 1_556
Ba3 In3 4.149137 1_555
Ba3 In0 4.149138 1_555
In0 In3 3.287811 1_555
In0 In2 3.411372 1_655
In0 In2 3.411372 1_555
In1 In2 3.287811 1_555
In1 In3 3.411372 1_555
In1 In3 3.411372 1_455
