# generated using pymatgen
data_CsMgTiF6
_symmetry_space_group_name_H-M   'P 1'
_cell_length_a   7.34369717
_cell_length_b   7.34369667
_cell_length_c   7.34369636
_cell_angle_alpha   119.99972147
_cell_angle_beta   119.48575493
_cell_angle_gamma   90.44674603
_symmetry_Int_Tables_number   1
_chemical_formula_structural   CsMgTiF6
_chemical_formula_sum   'Cs2 Mg2 Ti2 F12'
_cell_volume   281.11858793
_cell_formula_units_Z   2
loop_
 _symmetry_equiv_pos_site_id
 _symmetry_equiv_pos_as_xyz
  1  'x, y, z'
loop_
 _atom_site_type_symbol
 _atom_site_label
 _atom_site_symmetry_multiplicity
 _atom_site_fract_x
 _atom_site_fract_y
 _atom_site_fract_z
 _atom_site_occupancy
  Cs  Cs0  1  0.36143904  0.61143904  0.75000000  1
  Cs  Cs1  1  0.63856096  0.38856096  0.25000000  1
  Mg  Mg0  1  0.00000000  0.00000000  0.50000000  1
  Mg  Mg1  1  0.00000000  0.50000000  0.00000000  1
  Ti  Ti0  1  0.00000000  0.00000000  0.00000000  1
  Ti  Ti1  1  0.50000000  0.00000000  0.50000000  1
  F  F0  1  0.32814758  0.07814758  0.25000000  1
  F  F1  1  0.93900635  0.68900635  0.25000000  1
  F  F2  1  0.32197232  0.68317579  0.24655839  1
  F  F3  1  0.93661740  0.07541394  0.25344161  1
  F  F4  1  0.32197232  0.07541394  0.63879654  1
  F  F5  1  0.93661740  0.68317579  0.86120346  1
  F  F6  1  0.67185242  0.92185242  0.75000000  1
  F  F7  1  0.06099365  0.31099365  0.75000000  1
  F  F8  1  0.67802768  0.31682421  0.75344161  1
  F  F9  1  0.06338260  0.92458606  0.74655839  1
  F  F10  1  0.67802768  0.92458606  0.36120346  1
  F  F11  1  0.06338260  0.31682421  0.13879654  1
loop_
_geom_bond_atom_site_label_1
_geom_bond_atom_site_label_2
_geom_bond_distance
_geom_bond_site_symmetry_2
Cs0 F7 3.108104 1_555
Cs0 F11 3.187823 1_555
Cs0 F10 3.187824 1_556
Cs0 F9 3.187824 1_555
Cs0 F8 3.187824 1_555
Cs0 F6 3.211223 1_555
Cs1 F1 3.108104 1_555
Cs1 F5 3.187823 1_555
Cs1 F4 3.187824 1_554
Cs1 F3 3.187824 1_555
Cs1 F2 3.187824 1_555
Cs1 F0 3.211223 1_555
F0 Ti1 2.019089 1_555
F0 Ti0 2.019089 1_555
F1 Mg0 1.941334 1_665
F1 Mg1 1.941335 1_655
F2 Ti1 1.952821 1_565
F2 Mg1 1.994730 1_555
F3 Ti0 1.952821 1_655
F3 Mg0 1.994730 1_655
F4 Ti1 1.952821 1_555
F4 Mg0 1.994730 1_555
F5 Ti0 1.952821 1_666
F5 Mg1 1.994730 1_656
F6 Ti1 2.019089 1_565
F6 Ti0 2.019089 1_666
F7 Mg0 1.941334 1_555
F7 Mg1 1.941335 1_556
F8 Ti1 1.952821 1_555
F8 Mg1 1.994730 1_656
F9 Ti0 1.952821 1_566
F9 Mg0 1.994730 1_565
F10 Ti1 1.952821 1_565
F10 Mg0 1.994730 1_665
F11 Ti0 1.952821 1_555
F11 Mg1 1.994730 1_555
