# generated using pymatgen
data_Zr4N2O5
_symmetry_space_group_name_H-M   'P 1'
_cell_length_a   8.89590800
_cell_length_b   8.89653060
_cell_length_c   8.90680810
_cell_angle_alpha   109.37363165
_cell_angle_beta   109.36763904
_cell_angle_gamma   109.58284745
_symmetry_Int_Tables_number   1
_chemical_formula_structural   Zr4N2O5
_chemical_formula_sum   'Zr16 N8 O20'
_cell_volume   543.23617229
_cell_formula_units_Z   4
loop_
 _symmetry_equiv_pos_site_id
 _symmetry_equiv_pos_as_xyz
  1  'x, y, z'
loop_
 _atom_site_type_symbol
 _atom_site_label
 _atom_site_symmetry_multiplicity
 _atom_site_fract_x
 _atom_site_fract_y
 _atom_site_fract_z
 _atom_site_occupancy
  Zr  Zr0  1  0.21733600  0.00054600  0.72996500  1
  Zr  Zr1  1  0.71500700  0.21257300  0.96043300  1
  Zr  Zr2  1  0.96436200  0.46519300  0.50033700  1
  Zr  Zr3  1  0.47415600  0.20881300  0.20593100  1
  Zr  Zr4  1  0.20075100  0.24341800  0.49941300  1
  Zr  Zr5  1  0.00419700  0.00556600  0.00003400  1
  Zr  Zr6  1  0.01411900  0.27486100  0.79730900  1
  Zr  Zr7  1  0.77234500  0.51214300  0.79517500  1
  Zr  Zr8  1  0.50147500  0.72065800  0.72434800  1
  Zr  Zr9  1  0.74283500  0.69886600  0.49930800  1
  Zr  Zr10  1  0.50867800  0.49395800  0.00065200  1
  Zr  Zr11  1  0.27071600  0.48707400  0.26630500  1
  Zr  Zr12  1  0.98804000  0.77222700  0.26980000  1
  Zr  Zr13  1  0.25411800  0.75983400  0.04575400  1
  Zr  Zr14  1  0.71581700  0.98101100  0.21230200  1
  Zr  Zr15  1  0.45415800  0.95527000  0.49386000  1
  N  N0  1  0.25008700  0.02273400  0.50061900  1
  N  N1  1  0.21398900  0.49811000  0.50194600  1
  N  N2  1  0.76465300  0.49575700  0.03044800  1
  N  N3  1  0.99668800  0.26282000  0.02892200  1
  N  N4  1  0.23007300  0.96550200  0.96681000  1
  N  N5  1  0.99541900  0.71315200  0.49902000  1
  N  N6  1  0.50133800  0.99902800  0.28194400  1
  N  N7  1  0.52132300  0.74821000  0.50027800  1
  O  O0  1  0.27297400  0.23863500  0.27660000  1
  O  O1  1  0.97641700  0.00618300  0.24028600  1
  O  O2  1  0.71689300  0.21714000  0.71624700  1
  O  O3  1  0.93896200  0.20051000  0.49876800  1
  O  O4  1  0.70277200  0.44106800  0.50241900  1
  O  O5  1  0.49911500  0.46590200  0.72834400  1
  O  O6  1  0.47744800  0.23127500  0.97132000  1
  O  O7  1  0.75137300  0.25200800  0.22944800  1
  O  O8  1  0.50563400  0.47361500  0.23934000  1
  O  O9  1  0.23705400  0.26652600  0.76224100  1
  O  O10  1  0.76721600  0.73781300  0.76192700  1
  O  O11  1  0.01745200  0.51670600  0.77001600  1
  O  O12  1  0.00606800  0.75996700  0.02906700  1
  O  O13  1  0.26463700  0.51085800  0.02964000  1
  O  O14  1  0.46308200  0.73229200  0.96578300  1
  O  O15  1  0.20454300  0.70546700  0.26158400  1
  O  O16  1  0.73207000  0.76926000  0.26871800  1
  O  O17  1  0.44793000  0.94710100  0.74109200  1
  O  O18  1  0.96012500  0.99747400  0.72140900  1
  O  O19  1  0.72735600  0.97367500  0.97484200  1
loop_
_geom_bond_atom_site_label_1
_geom_bond_atom_site_label_2
_geom_bond_distance
_geom_bond_site_symmetry_2
N0 Zr15 2.106760 1_545
N0 Zr4 2.153103 1_555
N0 Zr0 2.218186 1_555
N0 Zr12 2.219590 1_445
N1 Zr2 2.134823 1_455
N1 Zr4 2.221265 1_555
N1 Zr8 2.242344 1_555
N1 Zr11 2.295273 1_555
N2 Zr7 2.169857 1_554
N2 Zr10 2.197257 1_555
N2 Zr1 2.227153 1_554
N2 Zr12 2.231233 1_555
N3 Zr6 2.153801 1_654
N3 Zr1 2.214809 1_554
N3 Zr11 2.217189 1_655
N3 Zr5 2.243180 1_655
N4 Zr3 2.158651 1_566
N4 Zr0 2.204917 1_565
N4 Zr13 2.214554 1_556
N4 Zr5 2.248708 1_566
N5 Zr2 2.133907 1_555
N5 Zr9 2.208531 1_555
N5 Zr12 2.257178 1_555
N5 Zr0 2.258210 1_665
N6 Zr13 2.148202 1_555
N6 Zr15 2.189463 1_555
N6 Zr14 2.230441 1_555
N6 Zr3 2.243304 1_565
N7 Zr15 2.130417 1_555
N7 Zr8 2.145585 1_555
N7 Zr9 2.159748 1_555
N7 Zr11 2.223704 1_555
O0 Zr3 2.150407 1_555
O0 Zr11 2.248777 1_555
O0 Zr4 2.271792 1_555
O0 Zr5 2.337890 1_555
O1 Zr4 2.157265 1_655
O1 Zr14 2.172182 1_545
O1 Zr12 2.213877 1_545
O1 Zr5 2.232498 1_655
O2 Zr1 2.194214 1_555
O2 Zr15 2.243113 1_545
O2 Zr7 2.302957 1_555
O2 Zr6 2.313845 1_655
O3 Zr4 2.227788 1_655
O3 Zr14 2.236179 1_545
O3 Zr2 2.283758 1_555
O3 Zr6 2.304897 1_655
O4 Zr9 2.211050 1_555
O4 Zr7 2.270558 1_555
O4 Zr2 2.271160 1_555
O4 Zr3 2.319483 1_555
O5 Zr7 2.153867 1_555
O5 Zr8 2.271695 1_555
O5 Zr4 2.308983 1_555
O5 Zr10 2.323650 1_556
O6 Zr10 2.172194 1_556
O6 Zr3 2.172804 1_556
O6 Zr0 2.185921 1_555
O6 Zr1 2.205459 1_555
O7 Zr2 2.128737 1_555
O7 Zr1 2.195667 1_554
O7 Zr14 2.269023 1_545
O7 Zr3 2.289520 1_555
O8 Zr9 2.162446 1_555
O8 Zr3 2.180429 1_555
O8 Zr10 2.200752 1_555
O8 Zr11 2.218305 1_555
O9 Zr6 2.128436 1_555
O9 Zr4 2.182068 1_555
O9 Zr10 2.216011 1_556
O9 Zr0 2.224810 1_555
O10 Zr7 2.137160 1_555
O10 Zr9 2.171150 1_555
O10 Zr8 2.218852 1_555
O10 Zr5 2.221025 1_666
O11 Zr2 2.138868 1_455
O11 Zr6 2.235688 1_555
O11 Zr7 2.253219 1_455
O11 Zr13 2.266328 1_556
O12 Zr7 2.128575 1_454
O12 Zr13 2.162325 1_555
O12 Zr12 2.172485 1_455
O12 Zr5 2.288595 1_565
O13 Zr6 2.139880 1_554
O13 Zr11 2.172337 1_555
O13 Zr13 2.207400 1_555
O13 Zr10 2.316718 1_555
O14 Zr14 2.222537 1_556
O14 Zr13 2.256267 1_556
O14 Zr8 2.261595 1_555
O14 Zr10 2.384684 1_556
O15 Zr15 2.178183 1_555
O15 Zr12 2.213369 1_455
O15 Zr11 2.219865 1_555
O15 Zr13 2.271582 1_555
O16 Zr14 2.141195 1_555
O16 Zr12 2.265148 1_555
O16 Zr10 2.314983 1_555
O16 Zr9 2.320056 1_555
O17 Zr8 2.190574 1_555
O17 Zr0 2.234760 1_565
O17 Zr15 2.245387 1_555
O17 Zr1 2.266771 1_565
O18 Zr6 2.158910 1_665
O18 Zr0 2.254577 1_665
O18 Zr9 2.289553 1_555
O18 Zr5 2.352606 1_666
O19 Zr14 2.131894 1_556
O19 Zr8 2.178285 1_555
O19 Zr1 2.207677 1_565
O19 Zr5 2.306265 1_666
