# generated using pymatgen
data_Zn5Cu7(Mo3N)4
_symmetry_space_group_name_H-M   'P 1'
_cell_length_a   7.88797987
_cell_length_b   7.88797986
_cell_length_c   7.88798123
_cell_angle_alpha   60.01937704
_cell_angle_beta   60.01937654
_cell_angle_gamma   60.01938369
_symmetry_Int_Tables_number   1
_chemical_formula_structural   Zn5Cu7(Mo3N)4
_chemical_formula_sum   'Zn5 Cu7 Mo12 N4'
_cell_volume   347.19479788
_cell_formula_units_Z   1
loop_
 _symmetry_equiv_pos_site_id
 _symmetry_equiv_pos_as_xyz
  1  'x, y, z'
loop_
 _atom_site_type_symbol
 _atom_site_label
 _atom_site_symmetry_multiplicity
 _atom_site_fract_x
 _atom_site_fract_y
 _atom_site_fract_z
 _atom_site_occupancy
  Zn  Zn0  1  0.12840300  0.62223264  0.62223264  1
  Zn  Zn1  1  0.62223264  0.12840300  0.62223264  1
  Zn  Zn2  1  0.62223264  0.62223264  0.12840300  1
  Zn  Zn3  1  0.62514989  0.62514989  0.62514989  1
  Zn  Zn4  1  0.83146299  0.83146299  0.83146299  1
  Cu  Cu0  1  0.75012374  0.41687788  0.41687788  1
  Cu  Cu1  1  0.41687788  0.75012374  0.41687788  1
  Cu  Cu2  1  0.41687788  0.41687788  0.75012374  1
  Cu  Cu3  1  0.41629574  0.41629574  0.41629574  1
  Cu  Cu4  1  0.50048254  0.83347203  0.83347203  1
  Cu  Cu5  1  0.83347203  0.50048254  0.83347203  1
  Cu  Cu6  1  0.83347203  0.83347203  0.50048254  1
  Mo  Mo0  1  0.81000796  0.81000796  0.19105884  1
  Mo  Mo1  1  0.18939805  0.18939805  0.81095835  1
  Mo  Mo2  1  0.81000796  0.19105884  0.81000796  1
  Mo  Mo3  1  0.18939805  0.81095835  0.18939805  1
  Mo  Mo4  1  0.19105884  0.81000796  0.81000796  1
  Mo  Mo5  1  0.81095835  0.18939805  0.18939805  1
  Mo  Mo6  1  0.44099980  0.44099980  0.05918602  1
  Mo  Mo7  1  0.06010880  0.06010880  0.44030181  1
  Mo  Mo8  1  0.44099980  0.05918602  0.44099980  1
  Mo  Mo9  1  0.06010880  0.44030181  0.06010880  1
  Mo  Mo10  1  0.05918602  0.44099980  0.44099980  1
  Mo  Mo11  1  0.44030181  0.06010880  0.06010880  1
  N  N0  1  0.62465629  0.12532384  0.12532384  1
  N  N1  1  0.12532384  0.62465629  0.12532384  1
  N  N2  1  0.12532384  0.12532384  0.62465629  1
  N  N3  1  0.12508179  0.12508179  0.12508179  1
loop_
_geom_bond_atom_site_label_1
_geom_bond_atom_site_label_2
_geom_bond_distance
_geom_bond_site_symmetry_2
Zn0 Zn4 2.435008 1_455
Zn1 Zn4 2.435008 1_545
Zn2 Zn4 2.435008 1_554
Cu0 Zn1 2.407625 1_555
Cu0 Zn2 2.407626 1_555
Cu0 Zn3 2.414523 1_555
Cu0 Cu2 2.629407 1_555
Cu0 Cu1 2.629407 1_555
Cu0 Cu3 2.637826 1_555
Cu0 Mo10 2.641783 1_655
Cu0 Mo9 2.643357 1_655
Cu0 Mo7 2.643357 1_655
Cu0 Mo0 2.848651 1_555
Cu0 Mo2 2.848651 1_555
Cu0 Mo5 2.857700 1_555
Cu1 Zn0 2.407625 1_555
Cu1 Zn2 2.407626 1_555
Cu1 Zn3 2.414523 1_555
Cu1 Cu2 2.629407 1_555
Cu1 Cu3 2.637826 1_555
Cu1 Mo8 2.641783 1_565
Cu1 Mo11 2.643357 1_565
Cu1 Mo7 2.643357 1_565
Cu1 Mo0 2.848651 1_555
Cu1 Mo4 2.848651 1_555
Cu1 Mo3 2.857700 1_555
Cu2 Zn1 2.407625 1_555
Cu2 Zn0 2.407625 1_555
Cu2 Zn3 2.414522 1_555
Cu2 Cu3 2.637826 1_555
Cu2 Mo6 2.641783 1_556
Cu2 Mo9 2.643357 1_556
Cu2 Mo11 2.643357 1_556
Cu2 Mo4 2.848651 1_555
Cu2 Mo2 2.848651 1_555
Cu2 Mo1 2.857699 1_555
Cu3 Zn2 2.387093 1_555
Cu3 Zn0 2.387094 1_555
Cu3 Zn1 2.387094 1_555
Cu3 Mo8 2.636569 1_555
Cu3 Mo10 2.636569 1_555
Cu3 Mo6 2.636570 1_555
Cu3 Mo1 2.856984 1_555
Cu3 Mo5 2.856984 1_555
Cu3 Mo3 2.856984 1_555
Cu4 Zn3 2.415827 1_555
Cu4 Zn1 2.422886 1_565
Cu4 Zn2 2.422887 1_556
Cu4 Zn4 2.595026 1_555
Cu4 Cu6 2.627384 1_555
Cu4 Cu5 2.627384 1_555
Cu4 Mo4 2.638722 1_555
Cu4 Mo3 2.643316 1_556
Cu4 Mo1 2.643316 1_565
Cu4 Mo6 2.842939 1_556
Cu4 Mo8 2.842939 1_565
Cu4 Mo11 2.848664 1_566
Cu5 Zn3 2.415827 1_555
Cu5 Zn0 2.422886 1_655
Cu5 Zn2 2.422887 1_556
Cu5 Zn4 2.595026 1_555
Cu5 Cu6 2.627384 1_555
Cu5 Mo2 2.638722 1_555
Cu5 Mo5 2.643316 1_556
Cu5 Mo1 2.643316 1_655
Cu5 Mo6 2.842939 1_556
Cu5 Mo10 2.842939 1_655
Cu5 Mo9 2.848664 1_656
Cu6 Zn3 2.415826 1_555
Cu6 Zn1 2.422887 1_565
Cu6 Zn0 2.422887 1_655
Cu6 Zn4 2.595026 1_555
Cu6 Mo0 2.638722 1_555
Cu6 Mo3 2.643316 1_655
Cu6 Mo5 2.643316 1_565
Cu6 Mo10 2.842939 1_655
Cu6 Mo8 2.842939 1_565
Cu6 Mo7 2.848663 1_665
Mo0 N1 2.104068 1_655
Mo0 N0 2.104068 1_565
Mo0 Zn4 2.678067 1_554
Mo0 Zn3 2.849910 1_555
Mo0 Zn2 2.878848 1_555
Mo1 N3 2.097343 1_556
Mo1 N2 2.100083 1_555
Mo1 Zn1 2.845842 1_555
Mo1 Zn0 2.845842 1_555
Mo2 N2 2.104068 1_655
Mo2 N0 2.104069 1_556
Mo2 Zn4 2.678066 1_545
Mo2 Zn3 2.849910 1_555
Mo2 Zn1 2.878848 1_555
Mo3 N3 2.097343 1_565
Mo3 N1 2.100083 1_555
Mo3 Zn2 2.845842 1_555
Mo3 Zn0 2.845842 1_555
Mo4 N2 2.104068 1_565
Mo4 N1 2.104069 1_556
Mo4 Zn4 2.678066 1_455
Mo4 Zn3 2.849910 1_555
Mo4 Zn0 2.878848 1_555
Mo5 N3 2.097343 1_655
Mo5 N0 2.100083 1_555
Mo5 Zn2 2.845842 1_555
Mo5 Zn1 2.845842 1_555
Mo6 N1 2.103103 1_555
Mo6 N0 2.103103 1_555
Mo6 Zn2 2.826296 1_555
Mo6 Zn3 2.847761 1_554
Mo7 N2 2.098475 1_555
Mo7 N3 2.103121 1_555
Mo7 Zn4 2.855440 1_445
Mo7 Zn1 2.870321 1_455
Mo7 Zn0 2.870321 1_545
Mo8 N2 2.103103 1_555
Mo8 N0 2.103103 1_555
Mo8 Zn1 2.826296 1_555
Mo8 Zn3 2.847761 1_545
Mo9 N1 2.098475 1_555
Mo9 N3 2.103121 1_555
Mo9 Zn4 2.855441 1_454
Mo9 Zn2 2.870321 1_455
Mo9 Zn0 2.870321 1_554
Mo10 N2 2.103103 1_555
Mo10 N1 2.103103 1_555
Mo10 Zn0 2.826296 1_555
Mo10 Zn3 2.847761 1_455
Mo11 N0 2.098475 1_555
Mo11 N3 2.103121 1_555
Mo11 Zn4 2.855441 1_544
Mo11 Zn2 2.870321 1_545
Mo11 Zn1 2.870321 1_554
