# generated using pymatgen
data_Lu12Fe2RuPb2
_symmetry_space_group_name_H-M   'P 1'
_cell_length_a   8.20239965
_cell_length_b   8.20229374
_cell_length_c   8.20240045
_cell_angle_alpha   108.54229078
_cell_angle_beta   108.54292194
_cell_angle_gamma   111.34540116
_symmetry_Int_Tables_number   1
_chemical_formula_structural   Lu12Fe2RuPb2
_chemical_formula_sum   'Lu12 Fe2 Ru1 Pb2'
_cell_volume   424.46564863
_cell_formula_units_Z   1
loop_
 _symmetry_equiv_pos_site_id
 _symmetry_equiv_pos_as_xyz
  1  'x, y, z'
loop_
 _atom_site_type_symbol
 _atom_site_label
 _atom_site_symmetry_multiplicity
 _atom_site_fract_x
 _atom_site_fract_y
 _atom_site_fract_z
 _atom_site_occupancy
  Lu  Lu0  1  0.30961141  0.30961119  0.61920334  1
  Lu  Lu1  1  0.69038859  0.69038881  0.38079666  1
  Lu  Lu2  1  0.69040785  0.30961119  0.99999978  1
  Lu  Lu3  1  0.30959215  0.69038881  0.00000022  1
  Lu  Lu4  1  0.19216641  0.42819400  0.23602659  1
  Lu  Lu5  1  0.80783359  0.57180600  0.76397341  1
  Lu  Lu6  1  0.19217464  0.95612866  0.76395502  1
  Lu  Lu7  1  0.95612985  0.19216228  0.76394893  1
  Lu  Lu8  1  0.80782536  0.04387134  0.23604498  1
  Lu  Lu9  1  0.04387015  0.80783772  0.23605107  1
  Lu  Lu10  1  0.42821435  0.19216228  0.23603243  1
  Lu  Lu11  1  0.57178565  0.80783772  0.76396757  1
  Fe  Fe0  1  0.37938658  0.37945565  0.00006907  1
  Fe  Fe1  1  0.62061342  0.62054435  0.99993093  1
  Ru  Ru0  1  0.00000000  0.00000000  0.00000000  1
  Pb  Pb0  1  0.00000000  0.50000000  0.50000000  1
  Pb  Pb1  1  0.50000000  0.00000000  0.50000000  1
loop_
_geom_bond_atom_site_label_1
_geom_bond_atom_site_label_2
_geom_bond_distance
_geom_bond_site_symmetry_2
Lu0 Pb1 3.481791 1_555
Lu0 Pb0 3.481792 1_555
Lu1 Pb1 3.481791 1_565
Lu1 Pb0 3.481792 1_655
Lu2 Pb1 3.481791 1_555
Lu2 Pb0 3.481792 1_656
Lu3 Pb1 3.481791 1_565
Lu3 Pb0 3.481792 1_554
Lu4 Ru0 2.876175 1_555
Lu4 Pb0 3.091112 1_555
Lu4 Pb1 3.808392 1_565
Lu5 Ru0 2.876175 1_666
Lu5 Pb0 3.091112 1_655
Lu5 Pb1 3.808392 1_555
Lu6 Ru0 2.876410 1_566
Lu6 Pb0 3.090949 1_555
Lu6 Pb1 3.808299 1_565
Lu7 Ru0 2.876337 1_656
Lu7 Pb1 3.090991 1_555
Lu7 Pb0 3.808302 1_655
Lu8 Ru0 2.876410 1_655
Lu8 Pb0 3.090949 1_655
Lu8 Pb1 3.808299 1_555
Lu9 Ru0 2.876337 1_565
Lu9 Pb1 3.090991 1_565
Lu9 Pb0 3.808302 1_555
Lu10 Ru0 2.876344 1_555
Lu10 Pb1 3.090990 1_555
Lu10 Pb0 3.808294 1_655
Lu11 Ru0 2.876344 1_666
Lu11 Pb1 3.090990 1_565
Lu11 Pb0 3.808294 1_555
Fe0 Fe1 2.231572 1_554
Fe0 Lu1 2.809926 1_555
Fe0 Lu3 2.809926 1_555
Fe0 Lu2 2.810884 1_554
Fe0 Lu0 2.810884 1_554
Fe0 Lu4 2.847644 1_555
Fe0 Lu7 2.848225 1_454
Fe0 Lu10 2.848226 1_555
Fe0 Lu6 2.848739 1_544
Fe1 Lu0 2.809926 1_555
Fe1 Lu2 2.809926 1_555
Fe1 Lu3 2.810884 1_556
Fe1 Lu1 2.810884 1_556
Fe1 Lu5 2.847644 1_555
Fe1 Lu9 2.848225 1_656
Fe1 Lu11 2.848226 1_555
Fe1 Lu8 2.848739 1_566
