# generated using pymatgen
data_Na7Ta(SO4)6
_symmetry_space_group_name_H-M   'P 1'
_cell_length_a   8.54499386
_cell_length_b   8.54499314
_cell_length_c   8.54499418
_cell_angle_alpha   108.89440552
_cell_angle_beta   108.89441073
_cell_angle_gamma   108.89441632
_symmetry_Int_Tables_number   1
_chemical_formula_structural   Na7Ta(SO4)6
_chemical_formula_sum   'Na7 Ta1 S6 O24'
_cell_volume   490.28978632
_cell_formula_units_Z   1
loop_
 _symmetry_equiv_pos_site_id
 _symmetry_equiv_pos_as_xyz
  1  'x, y, z'
loop_
 _atom_site_type_symbol
 _atom_site_label
 _atom_site_symmetry_multiplicity
 _atom_site_fract_x
 _atom_site_fract_y
 _atom_site_fract_z
 _atom_site_occupancy
  Na  Na0  1  0.50000000  0.50000000  0.50000000  1
  Na  Na1  1  0.83956596  0.34303673  0.67975714  1
  Na  Na2  1  0.34303673  0.67975714  0.83956596  1
  Na  Na3  1  0.67975714  0.83956596  0.34303673  1
  Na  Na4  1  0.16043404  0.65696327  0.32024286  1
  Na  Na5  1  0.65696327  0.32024286  0.16043404  1
  Na  Na6  1  0.32024286  0.16043404  0.65696327  1
  Ta  Ta0  1  0.00000000  0.00000000  0.00000000  1
  S  S0  1  0.96429423  0.73791081  0.59192970  1
  S  S1  1  0.73791081  0.59192970  0.96429423  1
  S  S2  1  0.59192970  0.96429423  0.73791081  1
  S  S3  1  0.03570577  0.26208919  0.40807030  1
  S  S4  1  0.26208919  0.40807030  0.03570577  1
  S  S5  1  0.40807030  0.03570577  0.26208919  1
  O  O0  1  0.47362068  0.91560316  0.17191330  1
  O  O1  1  0.91560316  0.17191330  0.47362068  1
  O  O2  1  0.17191330  0.47362068  0.91560316  1
  O  O3  1  0.52637932  0.08439684  0.82808670  1
  O  O4  1  0.08439684  0.82808670  0.52637932  1
  O  O5  1  0.82808670  0.52637932  0.08439684  1
  O  O6  1  0.32006952  0.97047387  0.36409108  1
  O  O7  1  0.97047387  0.36409108  0.32006952  1
  O  O8  1  0.36409108  0.32006952  0.97047387  1
  O  O9  1  0.67993048  0.02952613  0.63590892  1
  O  O10  1  0.02952613  0.63590892  0.67993048  1
  O  O11  1  0.63590892  0.67993048  0.02952613  1
  O  O12  1  0.74557882  0.97186393  0.90326539  1
  O  O13  1  0.97186393  0.90326539  0.74557882  1
  O  O14  1  0.62687535  0.44828069  0.76567759  1
  O  O15  1  0.76567759  0.62687535  0.44828069  1
  O  O16  1  0.44828069  0.76567759  0.62687535  1
  O  O17  1  0.37312465  0.55171931  0.23432241  1
  O  O18  1  0.23432241  0.37312465  0.55171931  1
  O  O19  1  0.55171931  0.23432241  0.37312465  1
  O  O20  1  0.09673461  0.25442118  0.02813607  1
  O  O21  1  0.02813607  0.09673461  0.25442118  1
  O  O22  1  0.25442118  0.02813607  0.09673461  1
  O  O23  1  0.90326539  0.74557882  0.97186393  1
loop_
_geom_bond_atom_site_label_1
_geom_bond_atom_site_label_2
_geom_bond_distance
_geom_bond_site_symmetry_2
Na0 O15 2.427061 1_555
Na0 O18 2.427061 1_555
Na0 O16 2.427062 1_555
Na0 O19 2.427062 1_555
Na0 O14 2.427062 1_555
Na0 O17 2.427062 1_555
Na1 O1 2.313308 1_555
Na1 O9 2.414551 1_555
Na1 O14 2.479112 1_555
Na1 O2 2.481169 1_655
Na1 O10 2.502580 1_655
Na1 O19 2.558905 1_555
Na2 O2 2.313307 1_555
Na2 O10 2.414551 1_555
Na2 O16 2.479112 1_555
Na2 O0 2.481169 1_556
Na2 O11 2.502581 1_556
Na2 O18 2.558905 1_555
Na3 O0 2.313308 1_555
Na3 O11 2.414551 1_555
Na3 O15 2.479111 1_555
Na3 O1 2.481169 1_565
Na3 O9 2.502581 1_565
Na3 O17 2.558904 1_555
Na4 O4 2.313308 1_555
Na4 O6 2.414551 1_555
Na4 O17 2.479112 1_555
Na4 O5 2.481169 1_455
Na4 O7 2.502580 1_455
Na4 O16 2.558905 1_555
Na5 O5 2.313307 1_555
Na5 O7 2.414551 1_555
Na5 O19 2.479112 1_555
Na5 O3 2.481169 1_554
Na5 O8 2.502581 1_554
Na5 O15 2.558905 1_555
Na6 O3 2.313308 1_555
Na6 O8 2.414551 1_555
Na6 O18 2.479111 1_555
Na6 O4 2.481169 1_545
Na6 O6 2.502581 1_545
Na6 O14 2.558904 1_555
O0 S5 1.449277 1_565
O1 S3 1.449277 1_655
O2 S4 1.449277 1_556
O3 S2 1.449277 1_545
O4 S0 1.449277 1_455
O5 S1 1.449277 1_554
O6 S5 1.450353 1_565
O7 S3 1.450353 1_655
O8 S4 1.450353 1_556
O9 S2 1.450353 1_545
O10 S0 1.450353 1_455
O11 S1 1.450353 1_554
O12 S2 1.552016 1_555
O12 Ta0 1.958667 1_666
O13 S0 1.552016 1_555
O13 Ta0 1.958668 1_666
O14 S1 1.463198 1_555
O15 S0 1.463198 1_555
O16 S2 1.463198 1_555
O17 S4 1.463198 1_555
O18 S3 1.463198 1_555
O19 S5 1.463198 1_555
O20 S4 1.552016 1_555
O20 Ta0 1.958667 1_555
O21 S3 1.552016 1_555
O21 Ta0 1.958668 1_555
O22 S5 1.552016 1_555
O22 Ta0 1.958667 1_555
O23 S1 1.552016 1_555
O23 Ta0 1.958667 1_666
