# generated using pymatgen
data_GaSb(P2O7)2
_symmetry_space_group_name_H-M   'P 1'
_cell_length_a   7.94785703
_cell_length_b   4.79926358
_cell_length_c   6.94741469
_cell_angle_alpha   73.19737206
_cell_angle_beta   90.59470476
_cell_angle_gamma   90.35446430
_symmetry_Int_Tables_number   1
_chemical_formula_structural   GaSb(P2O7)2
_chemical_formula_sum   'Ga1 Sb1 P4 O14'
_cell_volume   253.67224969
_cell_formula_units_Z   1
loop_
 _symmetry_equiv_pos_site_id
 _symmetry_equiv_pos_as_xyz
  1  'x, y, z'
loop_
 _atom_site_type_symbol
 _atom_site_label
 _atom_site_symmetry_multiplicity
 _atom_site_fract_x
 _atom_site_fract_y
 _atom_site_fract_z
 _atom_site_occupancy
  Ga  Ga0  1  0.54833432  0.78349485  0.72935705  1
  Sb  Sb0  1  0.04956700  0.21754879  0.27185339  1
  P  P0  1  0.85959676  0.60692733  0.50918974  1
  P  P1  1  0.28761306  0.77569009  0.10180458  1
  P  P2  1  0.77777738  0.22703781  0.89267102  1
  P  P3  1  0.36984624  0.39055165  0.50010714  1
  O  O0  1  0.73705481  0.95730154  0.83536092  1
  O  O1  1  0.38455001  0.86118334  0.91423624  1
  O  O2  1  0.00302181  0.83017635  0.45547982  1
  O  O3  1  0.68917412  0.73118753  0.50612796  1
  O  O4  1  0.36696292  0.58633037  0.63234982  1
  O  O5  1  0.63262385  0.41404924  0.91078106  1
  O  O6  1  0.90806818  0.41762890  0.72874931  1
  O  O7  1  0.40345825  0.58300569  0.27225650  1
  O  O8  1  0.12549404  0.59787819  0.09277258  1
  O  O9  1  0.86479085  0.40737483  0.37040682  1
  O  O10  1  0.18826351  0.27097320  0.49212025  1
  O  O11  1  0.49861792  0.15771395  0.54001908  1
  O  O12  1  0.89066798  0.13516633  0.08275479  1
  O  O13  1  0.23772997  0.04878001  0.16159993  1
loop_
_geom_bond_atom_site_label_1
_geom_bond_atom_site_label_2
_geom_bond_distance
_geom_bond_site_symmetry_2
Ga0 O11 1.934970 1_565
Ga0 O4 1.938867 1_555
Ga0 O1 1.949585 1_555
Ga0 O0 1.950559 1_555
Ga0 O5 1.971381 1_555
Ga0 O3 1.996448 1_555
O0 P2 1.493064 1_565
O1 P1 1.472360 1_556
O2 P0 1.532709 1_455
O2 Sb0 1.962314 1_565
O3 P0 1.480815 1_555
O4 P3 1.492395 1_555
O5 P2 1.494459 1_555
O6 P0 1.578438 1_555
O6 P2 1.617543 1_555
O7 P1 1.568434 1_555
O7 P3 1.609562 1_555
O8 P1 1.551798 1_555
O8 Sb0 1.983128 1_555
O9 P0 1.543934 1_555
O9 Sb0 1.963044 1_655
O10 P3 1.556193 1_555
O10 Sb0 1.952177 1_555
O11 P3 1.483970 1_555
O12 P2 1.545012 1_554
O12 Sb0 1.933098 1_655
O13 P1 1.540177 1_545
O13 Sb0 1.968939 1_555
