# generated using pymatgen
data_CsP2PdRu
_symmetry_space_group_name_H-M   'P 1'
_cell_length_a   7.81625729
_cell_length_b   7.81625739
_cell_length_c   7.81625691
_cell_angle_alpha   150.70921287
_cell_angle_beta   150.70921801
_cell_angle_gamma   41.90133974
_symmetry_Int_Tables_number   1
_chemical_formula_structural   CsP2PdRu
_chemical_formula_sum   'Cs1 P2 Pd1 Ru1'
_cell_volume   114.03265154
_cell_formula_units_Z   1
loop_
 _symmetry_equiv_pos_site_id
 _symmetry_equiv_pos_as_xyz
  1  'x, y, z'
loop_
 _atom_site_type_symbol
 _atom_site_label
 _atom_site_symmetry_multiplicity
 _atom_site_fract_x
 _atom_site_fract_y
 _atom_site_fract_z
 _atom_site_occupancy
  Cs  Cs0  1  0.00000000  0.00000000  0.00000000  1
  P  P0  1  0.33712345  0.33712345  0.00000000  1
  P  P1  1  0.66287655  0.66287655  1.00000000  1
  Pd  Pd0  1  0.75000000  0.25000000  0.50000000  1
  Ru  Ru0  1  0.25000000  0.75000000  0.50000000  1
loop_
_geom_bond_atom_site_label_1
_geom_bond_atom_site_label_2
_geom_bond_distance
_geom_bond_site_symmetry_2
Cs0 P1 3.669481 1_443
Cs0 P0 3.669481 1_556
Cs0 P1 3.669482 1_555
Cs0 P0 3.669482 1_444
Cs0 P1 3.669482 1_544
Cs0 P0 3.669482 1_455
Cs0 P1 3.669482 1_454
Cs0 P0 3.669482 1_545
P0 Pd0 2.350162 1_555
P0 Pd0 2.350162 1_454
P0 Ru0 2.350162 1_555
P0 Ru0 2.350162 1_544
P1 Ru0 2.350162 1_555
P1 Ru0 2.350162 1_656
P1 Pd0 2.350162 1_555
P1 Pd0 2.350162 1_566
