# generated using pymatgen
data_KSrWN3
_symmetry_space_group_name_H-M   'P 1'
_cell_length_a   6.51436034
_cell_length_b   6.51436025
_cell_length_c   12.72281661
_cell_angle_alpha   90.02431229
_cell_angle_beta   90.02431459
_cell_angle_gamma   124.86623109
_symmetry_Int_Tables_number   1
_chemical_formula_structural   KSrWN3
_chemical_formula_sum   'K4 Sr4 W4 N12'
_cell_volume   442.99555392
_cell_formula_units_Z   4
loop_
 _symmetry_equiv_pos_site_id
 _symmetry_equiv_pos_as_xyz
  1  'x, y, z'
loop_
 _atom_site_type_symbol
 _atom_site_label
 _atom_site_symmetry_multiplicity
 _atom_site_fract_x
 _atom_site_fract_y
 _atom_site_fract_z
 _atom_site_occupancy
  K  K0  1  0.96496091  0.55039957  0.36227041  1
  K  K1  1  0.44960043  0.03503909  0.13772959  1
  K  K2  1  0.03503909  0.44960043  0.63772959  1
  K  K3  1  0.55039957  0.96496091  0.86227041  1
  Sr  Sr0  1  0.12933029  0.34840337  0.08112665  1
  Sr  Sr1  1  0.65159663  0.87066971  0.41887335  1
  Sr  Sr2  1  0.87066971  0.65159663  0.91887335  1
  Sr  Sr3  1  0.34840337  0.12933029  0.58112665  1
  W  W0  1  0.76686288  0.72693969  0.16392178  1
  W  W1  1  0.27306031  0.23313712  0.33607822  1
  W  W2  1  0.23313712  0.27306031  0.83607822  1
  W  W3  1  0.72693969  0.76686288  0.66392178  1
  N  N0  1  0.47261836  0.52738164  0.25000000  1
  N  N1  1  0.52738164  0.47261836  0.75000000  1
  N  N2  1  0.90833407  0.56694181  0.12086000  1
  N  N3  1  0.43305819  0.09166593  0.37914000  1
  N  N4  1  0.09166593  0.43305819  0.87914000  1
  N  N5  1  0.56694181  0.90833407  0.62086000  1
  N  N6  1  0.83045535  0.69140321  0.54719258  1
  N  N7  1  0.30859679  0.16954465  0.95280742  1
  N  N8  1  0.16954465  0.30859679  0.45280742  1
  N  N9  1  0.69140321  0.83045535  0.04719258  1
  N  N10  1  0.98638075  0.01361925  0.25000000  1
  N  N11  1  0.01361925  0.98638075  0.75000000  1
loop_
_geom_bond_atom_site_label_1
_geom_bond_atom_site_label_2
_geom_bond_distance
_geom_bond_site_symmetry_2
K0 N8 2.825715 1_655
K0 N6 2.840238 1_555
K0 N3 3.024075 1_555
K0 N3 3.079459 1_665
K0 N2 3.102593 1_555
K0 N10 3.269249 1_565
K1 N9 2.825715 1_545
K1 N7 2.840238 1_554
K1 N2 3.024075 1_555
K1 N2 3.079459 1_445
K1 N3 3.102593 1_555
K1 N10 3.269249 1_455
K2 N6 2.825715 1_455
K2 N8 2.840238 1_555
K2 N5 3.024075 1_555
K2 N5 3.079459 1_445
K2 N4 3.102593 1_555
K2 N11 3.269249 1_545
K3 N7 2.825715 1_565
K3 N9 2.840238 1_556
K3 N4 3.024075 1_555
K3 N4 3.079459 1_665
K3 N5 3.102593 1_555
K3 N11 3.269249 1_655
N0 W1 1.928090 1_555
N0 W0 1.928090 1_555
N0 Sr0 2.826554 1_555
N0 Sr1 2.826554 1_555
N1 W3 1.928090 1_555
N1 W2 1.928090 1_555
N1 Sr2 2.826554 1_555
N1 Sr3 2.826554 1_555
N2 W0 1.825932 1_555
N2 Sr0 2.588084 1_655
N2 Sr2 2.669038 1_554
N3 W1 1.825932 1_555
N3 Sr1 2.588084 1_545
N3 Sr3 2.669038 1_555
N4 W2 1.825932 1_555
N4 Sr2 2.588084 1_455
N4 Sr0 2.669038 1_556
N5 W3 1.825932 1_555
N5 Sr3 2.588084 1_565
N5 Sr1 2.669038 1_555
N6 W3 1.811407 1_555
N6 Sr1 2.634836 1_555
N6 Sr3 2.949905 1_665
N6 Sr3 3.211052 1_555
N7 W2 1.811407 1_555
N7 Sr0 2.634836 1_556
N7 Sr2 2.949905 1_445
N7 Sr2 3.211052 1_555
N8 W1 1.811407 1_555
N8 Sr3 2.634836 1_555
N8 Sr1 2.949905 1_445
N8 Sr1 3.211052 1_555
N9 W0 1.811407 1_555
N9 Sr2 2.634836 1_554
N9 Sr0 2.949905 1_665
N9 Sr0 3.211052 1_555
N10 W1 1.917177 1_655
N10 W0 1.917177 1_545
N10 Sr0 2.814862 1_655
N10 Sr1 2.814862 1_545
N11 W3 1.917177 1_455
N11 W2 1.917177 1_565
N11 Sr2 2.814862 1_455
N11 Sr3 2.814862 1_565
