# generated using pymatgen
data_BaTa4GeO13
_symmetry_space_group_name_H-M   'P 1'
_cell_length_a   7.32065370
_cell_length_b   7.32065417
_cell_length_c   10.09812901
_cell_angle_alpha   90.00000000
_cell_angle_beta   90.00000000
_cell_angle_gamma   91.20434614
_symmetry_Int_Tables_number   1
_chemical_formula_structural   BaTa4GeO13
_chemical_formula_sum   'Ba2 Ta8 Ge2 O26'
_cell_volume   541.05911652
_cell_formula_units_Z   2
loop_
 _symmetry_equiv_pos_site_id
 _symmetry_equiv_pos_as_xyz
  1  'x, y, z'
loop_
 _atom_site_type_symbol
 _atom_site_label
 _atom_site_symmetry_multiplicity
 _atom_site_fract_x
 _atom_site_fract_y
 _atom_site_fract_z
 _atom_site_occupancy
  Ba  Ba0  1  0.42860742  0.42860742  0.44999137  1
  Ba  Ba1  1  0.57139258  0.57139258  0.94999137  1
  Ta  Ta0  1  0.54963244  0.89989575  0.25313572  1
  Ta  Ta1  1  0.10010425  0.45036756  0.75313572  1
  Ta  Ta2  1  0.45036756  0.10010425  0.75313572  1
  Ta  Ta3  1  0.89989575  0.54963244  0.25313572  1
  Ta  Ta4  1  0.17076981  0.84061024  0.50065240  1
  Ta  Ta5  1  0.15938976  0.82923019  0.00065240  1
  Ta  Ta6  1  0.84061024  0.17076981  0.50065240  1
  Ta  Ta7  1  0.82923019  0.15938976  0.00065240  1
  Ge  Ge0  1  0.16423700  0.16423700  0.24547349  1
  Ge  Ge1  1  0.83576300  0.83576300  0.74547349  1
  O  O0  1  0.65297875  0.65297875  0.24730336  1
  O  O1  1  0.34702125  0.34702125  0.74730336  1
  O  O2  1  0.39844379  0.13174376  0.25871631  1
  O  O3  1  0.86825624  0.60155621  0.75871631  1
  O  O4  1  0.60155621  0.86825624  0.75871631  1
  O  O5  1  0.13174376  0.39844379  0.25871631  1
  O  O6  1  0.79011821  0.36591036  0.38641699  1
  O  O7  1  0.64315913  0.19788756  0.61397221  1
  O  O8  1  0.80211244  0.35684087  0.11397221  1
  O  O9  1  0.63408964  0.20988179  0.88641699  1
  O  O10  1  0.19788756  0.64315913  0.61397221  1
  O  O11  1  0.36591036  0.79011821  0.38641699  1
  O  O12  1  0.20988179  0.63408964  0.88641699  1
  O  O13  1  0.35684087  0.80211244  0.11397221  1
  O  O14  1  0.07005461  0.07005461  0.39238961  1
  O  O15  1  0.93348936  0.93348936  0.60351043  1
  O  O16  1  0.06651064  0.06651064  0.10351043  1
  O  O17  1  0.92994539  0.92994539  0.89238961  1
  O  O18  1  0.70158906  0.99603066  0.38487664  1
  O  O19  1  0.02064618  0.31105031  0.60309360  1
  O  O20  1  0.68894969  0.97935382  0.10309360  1
  O  O21  1  0.00396934  0.29841094  0.88487664  1
  O  O22  1  0.31105031  0.02064618  0.60309360  1
  O  O23  1  0.99603066  0.70158906  0.38487664  1
  O  O24  1  0.29841094  0.00396934  0.88487664  1
  O  O25  1  0.97935382  0.68894969  0.10309360  1
loop_
_geom_bond_atom_site_label_1
_geom_bond_atom_site_label_2
_geom_bond_distance
_geom_bond_site_symmetry_2
Ba0 O6 2.770885 1_555
Ba0 O11 2.770886 1_555
Ba0 O10 2.858895 1_555
Ba0 O7 2.858895 1_555
Ba0 O5 2.912441 1_555
Ba0 O2 2.912441 1_555
Ba0 O0 3.077623 1_555
Ba0 O1 3.116445 1_555
Ba1 O12 2.770885 1_555
Ba1 O9 2.770886 1_555
Ba1 O8 2.858895 1_556
Ba1 O13 2.858895 1_556
Ba1 O3 2.912441 1_555
Ba1 O4 2.912441 1_555
Ba1 O1 3.077623 1_555
Ba1 O0 3.116445 1_556
Ge0 O2 1.741057 1_555
Ge0 O5 1.741058 1_555
Ge0 O16 1.748496 1_555
Ge0 O14 1.769683 1_555
Ge1 O4 1.741057 1_555
Ge1 O3 1.741058 1_555
Ge1 O15 1.748496 1_555
Ge1 O17 1.769683 1_555
O0 Ta3 1.975029 1_555
O0 Ta0 1.975029 1_555
O1 Ta1 1.975029 1_555
O1 Ta2 1.975029 1_555
O2 Ta0 2.046437 1_545
O3 Ta1 2.046437 1_655
O4 Ta2 2.046437 1_565
O5 Ta3 2.046437 1_455
O6 Ta6 1.878912 1_555
O6 Ta3 2.054450 1_555
O7 Ta6 1.857505 1_555
O7 Ta2 2.106356 1_555
O8 Ta7 1.857505 1_555
O8 Ta3 2.106356 1_555
O9 Ta7 1.878912 1_556
O9 Ta2 2.054450 1_555
O10 Ta4 1.857505 1_555
O10 Ta1 2.106356 1_555
O11 Ta4 1.878912 1_555
O11 Ta0 2.054450 1_555
O12 Ta5 1.878912 1_556
O12 Ta1 2.054450 1_555
O13 Ta5 1.857505 1_555
O13 Ta0 2.106356 1_555
O14 Ta6 2.147605 1_455
O14 Ta4 2.147605 1_545
O15 Ta4 2.146658 1_655
O15 Ta6 2.146658 1_565
O16 Ta7 2.146658 1_455
O16 Ta5 2.146658 1_545
O17 Ta5 2.147605 1_656
O17 Ta7 2.147605 1_566
O18 Ta0 1.862703 1_555
O18 Ta6 1.996057 1_565
O19 Ta1 1.910305 1_555
O19 Ta6 1.950618 1_455
O20 Ta0 1.910305 1_555
O20 Ta7 1.950618 1_565
O21 Ta1 1.862703 1_555
O21 Ta7 1.996057 1_456
O22 Ta2 1.910305 1_555
O22 Ta4 1.950618 1_545
O23 Ta3 1.862703 1_555
O23 Ta4 1.996057 1_655
O24 Ta2 1.862703 1_555
O24 Ta5 1.996057 1_546
O25 Ta3 1.910305 1_555
O25 Ta5 1.950618 1_655
