# generated using pymatgen
data_Ti3Ga3Ir2Rh
_symmetry_space_group_name_H-M   'P 1'
_cell_length_a   14.45923255
_cell_length_b   14.45923172
_cell_length_c   5.93881956
_cell_angle_alpha   90.00000000
_cell_angle_beta   90.00000000
_cell_angle_gamma   119.99999301
_symmetry_Int_Tables_number   1
_chemical_formula_structural   Ti3Ga3Ir2Rh
_chemical_formula_sum   'Ti24 Ga24 Ir16 Rh8'
_cell_volume   1075.27921934
_cell_formula_units_Z   8
loop_
 _symmetry_equiv_pos_site_id
 _symmetry_equiv_pos_as_xyz
  1  'x, y, z'
loop_
 _atom_site_type_symbol
 _atom_site_label
 _atom_site_symmetry_multiplicity
 _atom_site_fract_x
 _atom_site_fract_y
 _atom_site_fract_z
 _atom_site_occupancy
  Ti  Ti0_0  1  0.50000000  0.19012379  0.25000000  1
  Ti  Ti0_1  1  0.50000000  0.19012379  0.75000000  1
  Ti  Ti0_2  1  0.50000000  0.69012379  0.25000000  1
  Ti  Ti0_3  1  0.50000000  0.69012379  0.75000000  1
  Ti  Ti0_4  1  1.00000000  0.19012379  0.25000000  1
  Ti  Ti0_5  1  1.00000000  0.19012379  0.75000000  1
  Ti  Ti0_6  1  1.00000000  0.69012379  0.25000000  1
  Ti  Ti0_7  1  1.00000000  0.69012379  0.75000000  1
  Ti  Ti1_0  1  0.30987621  0.30987621  0.25000000  1
  Ti  Ti1_1  1  0.30987621  0.30987621  0.75000000  1
  Ti  Ti1_2  1  0.30987621  0.80987621  0.25000000  1
  Ti  Ti1_3  1  0.30987621  0.80987621  0.75000000  1
  Ti  Ti1_4  1  0.80987621  0.30987621  0.25000000  1
  Ti  Ti1_5  1  0.80987621  0.30987621  0.75000000  1
  Ti  Ti1_6  1  0.80987621  0.80987621  0.25000000  1
  Ti  Ti1_7  1  0.80987621  0.80987621  0.75000000  1
  Ti  Ti2_0  1  0.19012379  0.50000000  0.25000000  1
  Ti  Ti2_1  1  0.19012379  0.50000000  0.75000000  1
  Ti  Ti2_2  1  0.19012379  1.00000000  0.25000000  1
  Ti  Ti2_3  1  0.19012379  1.00000000  0.75000000  1
  Ti  Ti2_4  1  0.69012379  0.50000000  0.25000000  1
  Ti  Ti2_5  1  0.69012379  0.50000000  0.75000000  1
  Ti  Ti2_6  1  0.69012379  1.00000000  0.25000000  1
  Ti  Ti2_7  1  0.69012379  1.00000000  0.75000000  1
  Ga  Ga0_0  1  0.50000000  0.35641414  0.00000000  1
  Ga  Ga0_1  1  0.50000000  0.35641414  0.50000000  1
  Ga  Ga0_2  1  0.50000000  0.85641414  0.00000000  1
  Ga  Ga0_3  1  0.50000000  0.85641414  0.50000000  1
  Ga  Ga0_4  1  1.00000000  0.35641414  0.00000000  1
  Ga  Ga0_5  1  1.00000000  0.35641414  0.50000000  1
  Ga  Ga0_6  1  1.00000000  0.85641414  0.00000000  1
  Ga  Ga0_7  1  1.00000000  0.85641414  0.50000000  1
  Ga  Ga1_0  1  0.14358586  0.14358586  0.00000000  1
  Ga  Ga1_1  1  0.14358586  0.14358586  0.50000000  1
  Ga  Ga1_2  1  0.14358586  0.64358586  0.00000000  1
  Ga  Ga1_3  1  0.14358586  0.64358586  0.50000000  1
  Ga  Ga1_4  1  0.64358586  0.14358586  0.00000000  1
  Ga  Ga1_5  1  0.64358586  0.14358586  0.50000000  1
  Ga  Ga1_6  1  0.64358586  0.64358586  0.00000000  1
  Ga  Ga1_7  1  0.64358586  0.64358586  0.50000000  1
  Ga  Ga2_0  1  0.35641414  0.50000000  0.00000000  1
  Ga  Ga2_1  1  0.35641414  0.50000000  0.50000000  1
  Ga  Ga2_2  1  0.35641414  1.00000000  0.00000000  1
  Ga  Ga2_3  1  0.35641414  1.00000000  0.50000000  1
  Ga  Ga2_4  1  0.85641414  0.50000000  0.00000000  1
  Ga  Ga2_5  1  0.85641414  0.50000000  0.50000000  1
  Ga  Ga2_6  1  0.85641414  1.00000000  0.00000000  1
  Ga  Ga2_7  1  0.85641414  1.00000000  0.50000000  1
  Ir  Ir0_0  1  0.16666650  0.33333350  0.00000000  1
  Ir  Ir0_1  1  0.16666650  0.33333350  0.50000000  1
  Ir  Ir0_2  1  0.16666650  0.83333350  0.00000000  1
  Ir  Ir0_3  1  0.16666650  0.83333350  0.50000000  1
  Ir  Ir0_4  1  0.66666650  0.33333350  0.00000000  1
  Ir  Ir0_5  1  0.66666650  0.33333350  0.50000000  1
  Ir  Ir0_6  1  0.66666650  0.83333350  0.00000000  1
  Ir  Ir0_7  1  0.66666650  0.83333350  0.50000000  1
  Ir  Ir1_0  1  0.33333350  0.16666650  0.00000000  1
  Ir  Ir1_1  1  0.33333350  0.16666650  0.50000000  1
  Ir  Ir1_2  1  0.33333350  0.66666650  0.00000000  1
  Ir  Ir1_3  1  0.33333350  0.66666650  0.50000000  1
  Ir  Ir1_4  1  0.83333350  0.16666650  0.00000000  1
  Ir  Ir1_5  1  0.83333350  0.16666650  0.50000000  1
  Ir  Ir1_6  1  0.83333350  0.66666650  0.00000000  1
  Ir  Ir1_7  1  0.83333350  0.66666650  0.50000000  1
  Rh  Rh0_0  1  0.00000000  0.00000000  0.25000000  1
  Rh  Rh0_1  1  0.00000000  0.00000000  0.75000000  1
  Rh  Rh0_2  1  0.00000000  0.50000000  0.25000000  1
  Rh  Rh0_3  1  0.00000000  0.50000000  0.75000000  1
  Rh  Rh0_4  1  0.50000000  0.00000000  0.25000000  1
  Rh  Rh0_5  1  0.50000000  0.00000000  0.75000000  1
  Rh  Rh0_6  1  0.50000000  0.50000000  0.25000000  1
  Rh  Rh0_7  1  0.50000000  0.50000000  0.75000000  1
loop_
_geom_bond_atom_site_label_1
_geom_bond_atom_site_label_2
_geom_bond_distance
_geom_bond_site_symmetry_2
Ti0_0 Ti0_1 2.969410 1_555
Ti0_0 Ti0_1 2.969410 1_554
Ti0_2 Ti0_3 2.969410 1_555
Ti0_2 Ti0_3 2.969410 1_554
Ti0_4 Ti0_5 2.969410 1_554
Ti0_4 Ti0_5 2.969410 1_555
Ti0_6 Ti0_7 2.969410 1_555
Ti0_6 Ti0_7 2.969410 1_554
Ti1_0 Ti1_1 2.969410 1_555
Ti1_0 Ti1_1 2.969410 1_554
Ti1_2 Ti1_3 2.969410 1_554
Ti1_2 Ti1_3 2.969410 1_555
Ti1_4 Ti1_5 2.969410 1_555
Ti1_4 Ti1_5 2.969410 1_554
Ti1_6 Ti1_7 2.969410 1_555
Ti1_6 Ti1_7 2.969410 1_554
Ti2_0 Ti2_1 2.969410 1_555
Ti2_0 Ti2_1 2.969410 1_554
Ti2_2 Ti2_3 2.969410 1_555
Ti2_2 Ti2_3 2.969410 1_554
Ti2_4 Ti2_5 2.969410 1_555
Ti2_4 Ti2_5 2.969410 1_554
Ti2_6 Ti2_7 2.969410 1_555
Ti2_6 Ti2_7 2.969410 1_554
Ga0_0 Rh0_7 2.552393 1_554
Ga0_0 Rh0_6 2.552393 1_555
Ga0_0 Ir0_4 2.592892 1_555
Ga0_0 Ir1_0 2.592896 1_555
Ga0_0 Ti0_1 2.825887 1_554
Ga0_0 Ti0_0 2.825887 1_555
Ga0_0 Ti1_1 2.892153 1_554
Ga0_0 Ti1_0 2.892153 1_555
Ga0_0 Ti2_4 2.892153 1_555
Ga0_0 Ti2_5 2.892153 1_554
Ga0_0 Ga0_1 2.969410 1_554
Ga0_0 Ga0_1 2.969410 1_555
Ga0_1 Rh0_6 2.552393 1_555
Ga0_1 Rh0_7 2.552393 1_555
Ga0_1 Ir0_5 2.592892 1_555
Ga0_1 Ir1_1 2.592896 1_555
Ga0_1 Ti0_1 2.825887 1_555
Ga0_1 Ti0_0 2.825887 1_555
Ga0_1 Ti1_1 2.892153 1_555
Ga0_1 Ti1_0 2.892153 1_555
Ga0_1 Ti2_5 2.892153 1_555
Ga0_1 Ti2_4 2.892153 1_555
Ga0_2 Rh0_4 2.552393 1_565
Ga0_2 Rh0_5 2.552393 1_564
Ga0_2 Ir0_6 2.592892 1_555
Ga0_2 Ir1_2 2.592896 1_555
Ga0_2 Ti0_2 2.825887 1_555
Ga0_2 Ti0_3 2.825887 1_554
Ga0_2 Ti1_3 2.892153 1_554
Ga0_2 Ti1_2 2.892153 1_555
Ga0_2 Ti2_6 2.892153 1_555
Ga0_2 Ti2_7 2.892153 1_554
Ga0_2 Ga0_3 2.969410 1_555
Ga0_2 Ga0_3 2.969410 1_554
Ga0_3 Rh0_4 2.552393 1_565
Ga0_3 Rh0_5 2.552393 1_565
Ga0_3 Ir0_7 2.592892 1_555
Ga0_3 Ir1_3 2.592896 1_555
Ga0_3 Ti0_2 2.825887 1_555
Ga0_3 Ti0_3 2.825887 1_555
Ga0_3 Ti1_3 2.892153 1_555
Ga0_3 Ti1_2 2.892153 1_555
Ga0_3 Ti2_6 2.892153 1_555
Ga0_3 Ti2_7 2.892153 1_555
Ga0_4 Rh0_2 2.552393 1_655
Ga0_4 Rh0_3 2.552393 1_654
Ga0_4 Ir0_0 2.592892 1_655
Ga0_4 Ir1_4 2.592896 1_555
Ga0_4 Ti0_4 2.825887 1_555
Ga0_4 Ti0_5 2.825887 1_554
Ga0_4 Ti1_5 2.892153 1_554
Ga0_4 Ti1_4 2.892153 1_555
Ga0_4 Ti2_1 2.892153 1_654
Ga0_4 Ti2_0 2.892153 1_655
Ga0_4 Ga0_5 2.969410 1_555
Ga0_4 Ga0_5 2.969410 1_554
Ga0_5 Rh0_2 2.552393 1_655
Ga0_5 Rh0_3 2.552393 1_655
Ga0_5 Ir0_1 2.592892 1_655
Ga0_5 Ir1_5 2.592896 1_555
Ga0_5 Ti0_4 2.825887 1_555
Ga0_5 Ti0_5 2.825887 1_555
Ga0_5 Ti1_5 2.892153 1_555
Ga0_5 Ti1_4 2.892153 1_555
Ga0_5 Ti2_1 2.892153 1_655
Ga0_5 Ti2_0 2.892153 1_655
Ga0_6 Rh0_1 2.552393 1_664
Ga0_6 Rh0_0 2.552393 1_665
Ga0_6 Ir0_2 2.592892 1_655
Ga0_6 Ir1_6 2.592896 1_555
Ga0_6 Ti0_7 2.825887 1_554
Ga0_6 Ti0_6 2.825887 1_555
Ga0_6 Ti1_6 2.892153 1_555
Ga0_6 Ti1_7 2.892153 1_554
Ga0_6 Ti2_2 2.892153 1_655
Ga0_6 Ti2_3 2.892153 1_654
Ga0_6 Ga0_7 2.969410 1_555
Ga0_6 Ga0_7 2.969410 1_554
Ga0_7 Rh0_1 2.552393 1_665
Ga0_7 Rh0_0 2.552393 1_665
Ga0_7 Ir0_3 2.592892 1_655
Ga0_7 Ir1_7 2.592896 1_555
Ga0_7 Ti0_7 2.825887 1_555
Ga0_7 Ti0_6 2.825887 1_555
Ga0_7 Ti1_7 2.892153 1_555
Ga0_7 Ti1_6 2.892153 1_555
Ga0_7 Ti2_2 2.892153 1_655
Ga0_7 Ti2_3 2.892153 1_655
Ga1_0 Rh0_1 2.552393 1_554
Ga1_0 Rh0_0 2.552393 1_555
Ga1_0 Ir0_0 2.592899 1_555
Ga1_0 Ir1_0 2.592899 1_555
Ga1_0 Ti1_1 2.825887 1_554
Ga1_0 Ti1_0 2.825887 1_555
Ga1_0 Ti2_2 2.892153 1_545
Ga1_0 Ti2_3 2.892153 1_544
Ga1_0 Ti0_5 2.892153 1_454
Ga1_0 Ti0_4 2.892153 1_455
Ga1_0 Ga1_1 2.969410 1_555
Ga1_0 Ga1_1 2.969410 1_554
Ga1_1 Rh0_1 2.552393 1_555
Ga1_1 Rh0_0 2.552393 1_555
Ga1_1 Ir0_1 2.592899 1_555
Ga1_1 Ir1_1 2.592899 1_555
Ga1_1 Ti1_1 2.825887 1_555
Ga1_1 Ti1_0 2.825887 1_555
Ga1_1 Ti2_3 2.892153 1_545
Ga1_1 Ti2_2 2.892153 1_545
Ga1_1 Ti0_5 2.892153 1_455
Ga1_1 Ti0_4 2.892153 1_455
Ga1_2 Rh0_3 2.552393 1_554
Ga1_2 Rh0_2 2.552393 1_555
Ga1_2 Ir0_2 2.592899 1_555
Ga1_2 Ir1_2 2.592899 1_555
Ga1_2 Ti1_2 2.825887 1_555
Ga1_2 Ti1_3 2.825887 1_554
Ga1_2 Ti2_1 2.892153 1_554
Ga1_2 Ti2_0 2.892153 1_555
Ga1_2 Ti0_7 2.892153 1_454
Ga1_2 Ti0_6 2.892153 1_455
Ga1_2 Ga1_3 2.969410 1_555
Ga1_2 Ga1_3 2.969410 1_554
Ga1_3 Rh0_3 2.552393 1_555
Ga1_3 Rh0_2 2.552393 1_555
Ga1_3 Ir0_3 2.592899 1_555
Ga1_3 Ir1_3 2.592899 1_555
Ga1_3 Ti1_2 2.825887 1_555
Ga1_3 Ti1_3 2.825887 1_555
Ga1_3 Ti2_0 2.892153 1_555
Ga1_3 Ti2_1 2.892153 1_555
Ga1_3 Ti0_6 2.892153 1_455
Ga1_3 Ti0_7 2.892153 1_455
Ga1_4 Rh0_4 2.552393 1_555
Ga1_4 Rh0_5 2.552393 1_554
Ga1_4 Ir0_4 2.592899 1_555
Ga1_4 Ir1_4 2.592899 1_555
Ga1_4 Ti1_4 2.825887 1_555
Ga1_4 Ti1_5 2.825887 1_554
Ga1_4 Ti2_6 2.892153 1_545
Ga1_4 Ti2_7 2.892153 1_544
Ga1_4 Ti0_1 2.892153 1_554
Ga1_4 Ti0_0 2.892153 1_555
Ga1_4 Ga1_5 2.969410 1_555
Ga1_4 Ga1_5 2.969410 1_554
Ga1_5 Rh0_5 2.552393 1_555
Ga1_5 Rh0_4 2.552393 1_555
Ga1_5 Ir0_5 2.592899 1_555
Ga1_5 Ir1_5 2.592899 1_555
Ga1_5 Ti1_4 2.825887 1_555
Ga1_5 Ti1_5 2.825887 1_555
Ga1_5 Ti2_6 2.892153 1_545
Ga1_5 Ti2_7 2.892153 1_545
Ga1_5 Ti0_0 2.892153 1_555
Ga1_5 Ti0_1 2.892153 1_555
Ga1_6 Rh0_7 2.552393 1_554
Ga1_6 Rh0_6 2.552393 1_555
Ga1_6 Ir0_6 2.592899 1_555
Ga1_6 Ir1_6 2.592899 1_555
Ga1_6 Ti1_6 2.825887 1_555
Ga1_6 Ti1_7 2.825887 1_554
Ga1_6 Ti2_4 2.892153 1_555
Ga1_6 Ti2_5 2.892153 1_554
Ga1_6 Ti0_3 2.892153 1_554
Ga1_6 Ti0_2 2.892153 1_555
Ga1_6 Ga1_7 2.969410 1_554
Ga1_6 Ga1_7 2.969410 1_555
Ga1_7 Rh0_7 2.552393 1_555
Ga1_7 Rh0_6 2.552393 1_555
Ga1_7 Ir0_7 2.592899 1_555
Ga1_7 Ir1_7 2.592899 1_555
Ga1_7 Ti1_6 2.825887 1_555
Ga1_7 Ti1_7 2.825887 1_555
Ga1_7 Ti2_4 2.892153 1_555
Ga1_7 Ti2_5 2.892153 1_555
Ga1_7 Ti0_3 2.892153 1_555
Ga1_7 Ti0_2 2.892153 1_555
Ga2_0 Rh0_6 2.552393 1_555
Ga2_0 Rh0_7 2.552393 1_554
Ga2_0 Ir1_2 2.592892 1_555
Ga2_0 Ir0_0 2.592896 1_555
Ga2_0 Ti2_1 2.825887 1_554
Ga2_0 Ti2_0 2.825887 1_555
Ga2_0 Ti1_0 2.892153 1_555
Ga2_0 Ti1_1 2.892153 1_554
Ga2_0 Ti0_2 2.892153 1_555
Ga2_0 Ti0_3 2.892153 1_554
Ga2_0 Ga2_1 2.969410 1_555
Ga2_0 Ga2_1 2.969410 1_554
Ga2_1 Rh0_6 2.552393 1_555
Ga2_1 Rh0_7 2.552393 1_555
Ga2_1 Ir1_3 2.592892 1_555
Ga2_1 Ir0_1 2.592896 1_555
Ga2_1 Ti2_0 2.825887 1_555
Ga2_1 Ti2_1 2.825887 1_555
Ga2_1 Ti1_0 2.892153 1_555
Ga2_1 Ti1_1 2.892153 1_555
Ga2_1 Ti0_3 2.892153 1_555
Ga2_1 Ti0_2 2.892153 1_555
Ga2_2 Rh0_5 2.552393 1_564
Ga2_2 Rh0_4 2.552393 1_565
Ga2_2 Ir1_0 2.592892 1_565
Ga2_2 Ir0_2 2.592896 1_555
Ga2_2 Ti2_3 2.825887 1_554
Ga2_2 Ti2_2 2.825887 1_555
Ga2_2 Ti1_3 2.892153 1_554
Ga2_2 Ti1_2 2.892153 1_555
Ga2_2 Ti0_1 2.892153 1_564
Ga2_2 Ti0_0 2.892153 1_565
Ga2_2 Ga2_3 2.969410 1_555
Ga2_2 Ga2_3 2.969410 1_554
Ga2_3 Rh0_4 2.552393 1_565
Ga2_3 Rh0_5 2.552393 1_565
Ga2_3 Ir1_1 2.592892 1_565
Ga2_3 Ir0_3 2.592896 1_555
Ga2_3 Ti2_2 2.825887 1_555
Ga2_3 Ti2_3 2.825887 1_555
Ga2_3 Ti1_2 2.892153 1_555
Ga2_3 Ti1_3 2.892153 1_555
Ga2_3 Ti0_1 2.892153 1_565
Ga2_3 Ti0_0 2.892153 1_565
Ga2_4 Rh0_3 2.552393 1_654
Ga2_4 Rh0_2 2.552393 1_655
Ga2_4 Ir1_6 2.592892 1_555
Ga2_4 Ir0_4 2.592896 1_555
Ga2_4 Ti2_5 2.825887 1_554
Ga2_4 Ti2_4 2.825887 1_555
Ga2_4 Ti1_5 2.892153 1_554
Ga2_4 Ti1_4 2.892153 1_555
Ga2_4 Ti0_6 2.892153 1_555
Ga2_4 Ti0_7 2.892153 1_554
Ga2_4 Ga2_5 2.969410 1_554
Ga2_4 Ga2_5 2.969410 1_555
Ga2_5 Rh0_2 2.552393 1_655
Ga2_5 Rh0_3 2.552393 1_655
Ga2_5 Ir1_7 2.592892 1_555
Ga2_5 Ir0_5 2.592896 1_555
Ga2_5 Ti2_5 2.825887 1_555
Ga2_5 Ti2_4 2.825887 1_555
Ga2_5 Ti1_5 2.892153 1_555
Ga2_5 Ti1_4 2.892153 1_555
Ga2_5 Ti0_6 2.892153 1_555
Ga2_5 Ti0_7 2.892153 1_555
Ga2_6 Rh0_0 2.552393 1_665
Ga2_6 Rh0_1 2.552393 1_664
Ga2_6 Ir1_4 2.592892 1_565
Ga2_6 Ir0_6 2.592896 1_555
Ga2_6 Ti2_7 2.825887 1_554
Ga2_6 Ti2_6 2.825887 1_555
Ga2_6 Ti1_7 2.892153 1_554
Ga2_6 Ti1_6 2.892153 1_555
Ga2_6 Ti0_5 2.892153 1_564
Ga2_6 Ti0_4 2.892153 1_565
Ga2_6 Ga2_7 2.969410 1_554
Ga2_6 Ga2_7 2.969410 1_555
Ga2_7 Rh0_0 2.552393 1_665
Ga2_7 Rh0_1 2.552393 1_665
Ga2_7 Ir1_5 2.592892 1_565
Ga2_7 Ir0_7 2.592896 1_555
Ga2_7 Ti2_6 2.825887 1_555
Ga2_7 Ti2_7 2.825887 1_555
Ga2_7 Ti1_6 2.892153 1_555
Ga2_7 Ti1_7 2.892153 1_555
Ga2_7 Ti0_5 2.892153 1_565
Ga2_7 Ti0_4 2.892153 1_565
Ir0_0 Ti2_1 2.703607 1_554
Ir0_0 Ti2_0 2.703607 1_555
Ir0_0 Ti0_5 2.703610 1_454
Ir0_0 Ti0_4 2.703610 1_455
Ir0_0 Ti1_0 2.703613 1_555
Ir0_0 Ti1_1 2.703613 1_554
Ir0_0 Ir0_1 2.969410 1_555
Ir0_0 Ir0_1 2.969410 1_554
Ir0_1 Ti2_0 2.703607 1_555
Ir0_1 Ti2_1 2.703607 1_555
Ir0_1 Ti0_4 2.703610 1_455
Ir0_1 Ti0_5 2.703610 1_455
Ir0_1 Ti1_0 2.703613 1_555
Ir0_1 Ti1_1 2.703613 1_555
Ir0_2 Ti2_2 2.703607 1_555
Ir0_2 Ti2_3 2.703607 1_554
Ir0_2 Ti0_6 2.703610 1_455
Ir0_2 Ti0_7 2.703610 1_454
Ir0_2 Ti1_2 2.703613 1_555
Ir0_2 Ti1_3 2.703613 1_554
Ir0_2 Ir0_3 2.969410 1_555
Ir0_2 Ir0_3 2.969410 1_554
Ir0_3 Ti2_3 2.703607 1_555
Ir0_3 Ti2_2 2.703607 1_555
Ir0_3 Ti0_6 2.703610 1_455
Ir0_3 Ti0_7 2.703610 1_455
Ir0_3 Ti1_3 2.703613 1_555
Ir0_3 Ti1_2 2.703613 1_555
Ir0_4 Ti2_5 2.703607 1_554
Ir0_4 Ti2_4 2.703607 1_555
Ir0_4 Ti0_0 2.703610 1_555
Ir0_4 Ti0_1 2.703610 1_554
Ir0_4 Ti1_5 2.703613 1_554
Ir0_4 Ti1_4 2.703613 1_555
Ir0_4 Ir0_5 2.969410 1_555
Ir0_4 Ir0_5 2.969410 1_554
Ir0_5 Ti2_5 2.703607 1_555
Ir0_5 Ti2_4 2.703607 1_555
Ir0_5 Ti0_0 2.703610 1_555
Ir0_5 Ti0_1 2.703610 1_555
Ir0_5 Ti1_5 2.703613 1_555
Ir0_5 Ti1_4 2.703613 1_555
Ir0_6 Ti2_7 2.703607 1_554
Ir0_6 Ti2_6 2.703607 1_555
Ir0_6 Ti0_2 2.703610 1_555
Ir0_6 Ti0_3 2.703610 1_554
Ir0_6 Ti1_6 2.703613 1_555
Ir0_6 Ti1_7 2.703613 1_554
Ir0_6 Ir0_7 2.969410 1_554
Ir0_6 Ir0_7 2.969410 1_555
Ir0_7 Ti2_7 2.703607 1_555
Ir0_7 Ti2_6 2.703607 1_555
Ir0_7 Ti0_3 2.703610 1_555
Ir0_7 Ti0_2 2.703610 1_555
Ir0_7 Ti1_6 2.703613 1_555
Ir0_7 Ti1_7 2.703613 1_555
Ir1_0 Ti0_1 2.703608 1_554
Ir1_0 Ti0_0 2.703608 1_555
Ir1_0 Ti2_2 2.703610 1_545
Ir1_0 Ti2_3 2.703610 1_544
Ir1_0 Ti1_0 2.703613 1_555
Ir1_0 Ti1_1 2.703613 1_554
Ir1_0 Ir1_1 2.969410 1_555
Ir1_0 Ir1_1 2.969410 1_554
Ir1_1 Ti0_0 2.703608 1_555
Ir1_1 Ti0_1 2.703608 1_555
Ir1_1 Ti2_2 2.703610 1_545
Ir1_1 Ti2_3 2.703610 1_545
Ir1_1 Ti1_0 2.703613 1_555
Ir1_1 Ti1_1 2.703613 1_555
Ir1_2 Ti0_2 2.703608 1_555
Ir1_2 Ti0_3 2.703608 1_554
Ir1_2 Ti2_1 2.703610 1_554
Ir1_2 Ti2_0 2.703610 1_555
Ir1_2 Ti1_2 2.703613 1_555
Ir1_2 Ti1_3 2.703613 1_554
Ir1_2 Ir1_3 2.969410 1_555
Ir1_2 Ir1_3 2.969410 1_554
Ir1_3 Ti0_2 2.703608 1_555
Ir1_3 Ti0_3 2.703608 1_555
Ir1_3 Ti2_1 2.703610 1_555
Ir1_3 Ti2_0 2.703610 1_555
Ir1_3 Ti1_2 2.703613 1_555
Ir1_3 Ti1_3 2.703613 1_555
Ir1_4 Ti0_4 2.703608 1_555
Ir1_4 Ti0_5 2.703608 1_554
Ir1_4 Ti2_6 2.703610 1_545
Ir1_4 Ti2_7 2.703610 1_544
Ir1_4 Ti1_5 2.703613 1_554
Ir1_4 Ti1_4 2.703613 1_555
Ir1_4 Ir1_5 2.969410 1_554
Ir1_4 Ir1_5 2.969410 1_555
Ir1_5 Ti0_4 2.703608 1_555
Ir1_5 Ti0_5 2.703608 1_555
Ir1_5 Ti2_6 2.703610 1_545
Ir1_5 Ti2_7 2.703610 1_545
Ir1_5 Ti1_5 2.703613 1_555
Ir1_5 Ti1_4 2.703613 1_555
Ir1_6 Ti0_6 2.703608 1_555
Ir1_6 Ti0_7 2.703608 1_554
Ir1_6 Ti2_5 2.703610 1_554
Ir1_6 Ti2_4 2.703610 1_555
Ir1_6 Ti1_7 2.703613 1_554
Ir1_6 Ti1_6 2.703613 1_555
Ir1_6 Ir1_7 2.969410 1_554
Ir1_6 Ir1_7 2.969410 1_555
Ir1_7 Ti0_6 2.703608 1_555
Ir1_7 Ti0_7 2.703608 1_555
Ir1_7 Ti2_5 2.703610 1_555
Ir1_7 Ti2_4 2.703610 1_555
Ir1_7 Ti1_7 2.703613 1_555
Ir1_7 Ti1_6 2.703613 1_555
Rh0_0 Ti0_4 2.749044 1_455
Rh0_0 Ti2_2 2.749044 1_545
Rh0_0 Ti1_6 2.749044 1_445
Rh0_0 Rh0_1 2.969410 1_555
Rh0_0 Rh0_1 2.969410 1_554
Rh0_1 Ti0_5 2.749044 1_455
Rh0_1 Ti2_3 2.749044 1_545
Rh0_1 Ti1_7 2.749044 1_445
Rh0_2 Ti0_6 2.749044 1_455
Rh0_2 Ti2_0 2.749044 1_555
Rh0_2 Ti1_4 2.749044 1_455
Rh0_2 Rh0_3 2.969410 1_554
Rh0_2 Rh0_3 2.969410 1_555
Rh0_3 Ti0_7 2.749044 1_455
Rh0_3 Ti2_1 2.749044 1_555
Rh0_3 Ti1_5 2.749044 1_455
Rh0_4 Ti0_0 2.749044 1_555
Rh0_4 Ti2_6 2.749044 1_545
Rh0_4 Ti1_2 2.749044 1_545
Rh0_4 Rh0_5 2.969410 1_554
Rh0_4 Rh0_5 2.969410 1_555
Rh0_5 Ti0_1 2.749044 1_555
Rh0_5 Ti2_7 2.749044 1_545
Rh0_5 Ti1_3 2.749044 1_545
Rh0_6 Ti0_2 2.749044 1_555
Rh0_6 Ti2_4 2.749044 1_555
Rh0_6 Ti1_0 2.749044 1_555
Rh0_6 Rh0_7 2.969410 1_554
Rh0_6 Rh0_7 2.969410 1_555
Rh0_7 Ti0_3 2.749044 1_555
Rh0_7 Ti2_5 2.749044 1_555
Rh0_7 Ti1_1 2.749044 1_555
