# generated using pymatgen
data_Lu4MgHg2Bi
_symmetry_space_group_name_H-M   'P 1'
_cell_length_a   8.59012956
_cell_length_b   8.59012978
_cell_length_c   8.59012919
_cell_angle_alpha   125.92665973
_cell_angle_beta   125.92666023
_cell_angle_gamma   80.00870455
_symmetry_Int_Tables_number   1
_chemical_formula_structural   Lu4MgHg2Bi
_chemical_formula_sum   'Lu8 Mg2 Hg4 Bi2'
_cell_volume   401.29995073
_cell_formula_units_Z   2
loop_
 _symmetry_equiv_pos_site_id
 _symmetry_equiv_pos_as_xyz
  1  'x, y, z'
loop_
 _atom_site_type_symbol
 _atom_site_label
 _atom_site_symmetry_multiplicity
 _atom_site_fract_x
 _atom_site_fract_y
 _atom_site_fract_z
 _atom_site_occupancy
  Lu  Lu0  1  0.80033348  0.30033348  0.80911056  1
  Lu  Lu1  1  0.19966652  0.69966652  0.19088944  1
  Lu  Lu2  1  0.49122292  0.99122292  0.19088944  1
  Lu  Lu3  1  0.30033348  0.49122292  0.50000000  1
  Lu  Lu4  1  0.00877708  0.19966652  0.50000000  1
  Lu  Lu5  1  0.50877708  0.00877708  0.80911056  1
  Lu  Lu6  1  0.69966652  0.50877708  0.50000000  1
  Lu  Lu7  1  0.99122292  0.80033348  0.50000000  1
  Mg  Mg0  1  0.00000000  0.00000000  0.00000000  1
  Mg  Mg1  1  0.50000000  0.50000000  0.00000000  1
  Hg  Hg0  1  0.14179373  0.64179373  0.78358746  1
  Hg  Hg1  1  0.85820627  0.35820627  0.21641254  1
  Hg  Hg2  1  0.64179373  0.85820627  0.50000000  1
  Hg  Hg3  1  0.35820627  0.14179373  0.50000000  1
  Bi  Bi0  1  0.25000000  0.25000000  0.00000000  1
  Bi  Bi1  1  0.75000000  0.75000000  0.00000000  1
loop_
_geom_bond_atom_site_label_1
_geom_bond_atom_site_label_2
_geom_bond_distance
_geom_bond_site_symmetry_2
Hg0 Lu1 2.956214 1_556
Hg0 Lu2 2.956215 1_556
Hg0 Lu3 3.007734 1_555
Hg0 Lu7 3.007734 1_455
Hg0 Lu6 3.007735 1_455
Hg0 Lu4 3.007735 1_555
Hg0 Mg1 3.008594 1_556
Hg0 Mg0 3.008594 1_566
Hg1 Lu0 2.956214 1_554
Hg1 Lu5 2.956215 1_554
Hg1 Lu6 3.007734 1_555
Hg1 Lu4 3.007734 1_655
Hg1 Lu3 3.007735 1_655
Hg1 Lu7 3.007735 1_555
Hg1 Mg1 3.008594 1_555
Hg1 Mg0 3.008594 1_655
Hg2 Lu7 2.956214 1_555
Hg2 Lu6 2.956214 1_555
Hg2 Lu5 3.007734 1_565
Hg2 Lu2 3.007734 1_555
Hg2 Lu1 3.007735 1_555
Hg2 Lu0 3.007735 1_565
Hg2 Mg0 3.008595 1_666
Hg2 Mg1 3.008595 1_555
Hg3 Lu4 2.956214 1_555
Hg3 Lu3 2.956214 1_555
Hg3 Lu2 3.007734 1_545
Hg3 Lu5 3.007734 1_555
Hg3 Lu0 3.007735 1_555
Hg3 Lu1 3.007735 1_545
Hg3 Mg0 3.008595 1_555
Hg3 Mg1 3.008595 1_556
Bi0 Lu5 3.258191 1_554
Bi0 Lu2 3.258191 1_545
Bi0 Lu4 3.258192 1_554
Bi0 Lu3 3.258192 1_555
Bi0 Lu0 3.258192 1_454
Bi0 Lu1 3.258192 1_555
Bi0 Lu6 3.258192 1_555
Bi0 Lu7 3.258192 1_444
Bi0 Mg1 3.290001 1_555
Bi0 Mg0 3.290001 1_555
Bi1 Lu2 3.258191 1_555
Bi1 Lu5 3.258191 1_564
Bi1 Lu7 3.258192 1_555
Bi1 Lu6 3.258192 1_554
Bi1 Lu1 3.258192 1_655
Bi1 Lu0 3.258192 1_554
Bi1 Lu3 3.258192 1_554
Bi1 Lu4 3.258192 1_665
Bi1 Mg1 3.290001 1_555
Bi1 Mg0 3.290001 1_665
