# generated using pymatgen
data_Li4FeH6
_symmetry_space_group_name_H-M   'P 1'
_cell_length_a   5.49857740
_cell_length_b   5.49857730
_cell_length_c   5.49857654
_cell_angle_alpha   90.38967562
_cell_angle_beta   90.38967110
_cell_angle_gamma   90.38967354
_symmetry_Int_Tables_number   1
_chemical_formula_structural   Li4FeH6
_chemical_formula_sum   'Li8 Fe2 H12'
_cell_volume   166.23431617
_cell_formula_units_Z   2
loop_
 _symmetry_equiv_pos_site_id
 _symmetry_equiv_pos_as_xyz
  1  'x, y, z'
loop_
 _atom_site_type_symbol
 _atom_site_label
 _atom_site_symmetry_multiplicity
 _atom_site_fract_x
 _atom_site_fract_y
 _atom_site_fract_z
 _atom_site_occupancy
  Li  Li0  1  0.25000000  0.25000000  0.25000000  1
  Li  Li1  1  0.75000000  0.75000000  0.75000000  1
  Li  Li2  1  0.86567082  0.63432918  0.25000000  1
  Li  Li3  1  0.25000000  0.86567082  0.63432918  1
  Li  Li4  1  0.63432918  0.25000000  0.86567082  1
  Li  Li5  1  0.75000000  0.13432918  0.36567082  1
  Li  Li6  1  0.36567082  0.75000000  0.13432918  1
  Li  Li7  1  0.13432918  0.36567082  0.75000000  1
  Fe  Fe0  1  0.50000000  0.50000000  0.50000000  1
  Fe  Fe1  1  0.00000000  0.00000000  0.00000000  1
  H  H0  1  0.21954646  0.54806380  0.43971598  1
  H  H1  1  0.43971598  0.21954646  0.54806380  1
  H  H2  1  0.54806380  0.43971598  0.21954646  1
  H  H3  1  0.93971598  0.04806380  0.71954646  1
  H  H4  1  0.71954646  0.93971598  0.04806380  1
  H  H5  1  0.04806380  0.71954646  0.93971598  1
  H  H6  1  0.78045354  0.45193620  0.56028402  1
  H  H7  1  0.56028402  0.78045354  0.45193620  1
  H  H8  1  0.45193620  0.56028402  0.78045354  1
  H  H9  1  0.06028402  0.95193620  0.28045354  1
  H  H10  1  0.28045354  0.06028402  0.95193620  1
  H  H11  1  0.95193620  0.28045354  0.06028402  1
loop_
_geom_bond_atom_site_label_1
_geom_bond_atom_site_label_2
_geom_bond_distance
_geom_bond_site_symmetry_2
Fe0 H8 1.599238 1_555
Fe0 H2 1.599238 1_555
Fe0 H7 1.599238 1_555
Fe0 H1 1.599238 1_555
Fe0 H6 1.599238 1_555
Fe0 H0 1.599238 1_555
Fe1 H9 1.599238 1_545
Fe1 H3 1.599238 1_454
Fe1 H11 1.599238 1_455
Fe1 H5 1.599238 1_544
Fe1 H10 1.599238 1_554
Fe1 H4 1.599238 1_445
H0 Li0 1.945552 1_555
H0 Li7 2.040582 1_555
H0 Li3 2.047236 1_555
H0 Li6 2.174797 1_555
H0 Li2 2.256337 1_455
H1 Li0 1.945552 1_555
H1 Li5 2.040583 1_555
H1 Li4 2.047236 1_555
H1 Li7 2.174797 1_555
H1 Li3 2.256337 1_545
H2 Li0 1.945552 1_555
H2 Li6 2.040583 1_555
H2 Li2 2.047236 1_555
H2 Li5 2.174797 1_555
H2 Li4 2.256337 1_554
H3 Li1 1.945552 1_545
H3 Li3 2.040583 1_645
H3 Li7 2.047236 1_655
H3 Li4 2.174797 1_555
H3 Li5 2.256337 1_555
H4 Li1 1.945552 1_554
H4 Li4 2.040583 1_564
H4 Li5 2.047236 1_565
H4 Li2 2.174797 1_555
H4 Li6 2.256337 1_555
H5 Li1 1.945552 1_455
H5 Li2 2.040582 1_456
H5 Li6 2.047236 1_556
H5 Li3 2.174797 1_555
H5 Li7 2.256337 1_555
H6 Li1 1.945552 1_555
H6 Li2 2.040582 1_555
H6 Li5 2.047236 1_555
H6 Li4 2.174797 1_555
H6 Li7 2.256337 1_655
H7 Li1 1.945552 1_555
H7 Li3 2.040583 1_555
H7 Li6 2.047236 1_555
H7 Li2 2.174797 1_555
H7 Li5 2.256337 1_565
H8 Li1 1.945552 1_555
H8 Li4 2.040583 1_555
H8 Li7 2.047236 1_555
H8 Li3 2.174797 1_555
H8 Li6 2.256337 1_556
H9 Li0 1.945552 1_565
H9 Li5 2.040583 1_465
H9 Li2 2.047236 1_455
H9 Li6 2.174797 1_555
H9 Li3 2.256337 1_555
H10 Li0 1.945552 1_556
H10 Li6 2.040583 1_546
H10 Li3 2.047236 1_545
H10 Li7 2.174797 1_555
H10 Li4 2.256337 1_555
H11 Li0 1.945552 1_655
H11 Li7 2.040582 1_654
H11 Li4 2.047236 1_554
H11 Li5 2.174797 1_555
H11 Li2 2.256337 1_555
