# generated using pymatgen
data_KRb3(SiP)12
_symmetry_space_group_name_H-M   'P 1'
_cell_length_a   3.54042561
_cell_length_b   9.85957396
_cell_length_c   19.60632104
_cell_angle_alpha   89.40499493
_cell_angle_beta   90.00000000
_cell_angle_gamma   90.00000000
_symmetry_Int_Tables_number   1
_chemical_formula_structural   KRb3(SiP)12
_chemical_formula_sum   'K1 Rb3 Si12 P12'
_cell_volume   684.36267198
_cell_formula_units_Z   1
loop_
 _symmetry_equiv_pos_site_id
 _symmetry_equiv_pos_as_xyz
  1  'x, y, z'
loop_
 _atom_site_type_symbol
 _atom_site_label
 _atom_site_symmetry_multiplicity
 _atom_site_fract_x
 _atom_site_fract_y
 _atom_site_fract_z
 _atom_site_occupancy
  K  K0  1  0.00000000  0.80695761  0.19175413  1
  Rb  Rb0  1  0.00000000  0.30915425  0.30530044  1
  Rb  Rb1  1  0.00000000  0.70028311  0.69072650  1
  Rb  Rb2  1  0.00000000  0.19743598  0.80905624  1
  Si  Si0  1  0.50000000  0.39921397  0.03860722  1
  Si  Si1  1  0.50000000  0.59081761  0.96806432  1
  Si  Si2  1  0.50000000  0.09764777  0.53362533  1
  Si  Si3  1  0.50000000  0.90968797  0.46239423  1
  Si  Si4  1  0.00000000  0.10894651  0.01718211  1
  Si  Si5  1  0.00000000  0.88112695  0.98718089  1
  Si  Si6  1  0.00000000  0.38937821  0.51302879  1
  Si  Si7  1  0.00000000  0.61794243  0.48147099  1
  Si  Si8  1  0.00000000  0.17068888  0.13201313  1
  Si  Si9  1  0.00000000  0.81659704  0.87249021  1
  Si  Si10  1  0.00000000  0.32223071  0.62809359  1
  Si  Si11  1  0.00000000  0.68805040  0.36667574  1
  P  P0  1  0.50000000  0.10321943  0.19179588  1
  P  P1  1  0.50000000  0.88384526  0.81282770  1
  P  P2  1  0.50000000  0.38753018  0.68765512  1
  P  P3  1  0.50000000  0.62386587  0.30661544  1
  P  P4  1  0.50000000  0.28530882  0.46313370  1
  P  P5  1  0.50000000  0.72092844  0.53204524  1
  P  P6  1  0.50000000  0.21527717  0.96744778  1
  P  P7  1  0.50000000  0.77649349  0.03816376  1
  P  P8  1  0.00000000  0.40193950  0.11051880  1
  P  P9  1  0.00000000  0.58606521  0.89603772  1
  P  P10  1  0.00000000  0.09191358  0.60565770  1
  P  P11  1  0.00000000  0.91745062  0.39043732  1
loop_
_geom_bond_atom_site_label_1
_geom_bond_atom_site_label_2
_geom_bond_distance
_geom_bond_site_symmetry_2
K0 P3 3.373356 1_455
K0 P3 3.373356 1_555
K0 P0 3.415558 1_565
K0 P0 3.415558 1_465
K0 P7 3.508680 1_555
K0 P7 3.508680 1_455
Si0 Si1 2.329694 1_554
Si2 Si3 2.332070 1_545
Si4 Si5 2.327846 1_544
Si4 Si8 2.338356 1_555
Si5 Si9 2.343287 1_555
Si6 Si7 2.330738 1_555
Si10 Si6 2.344527 1_555
Si11 Si7 2.347594 1_555
P0 Si8 2.221225 1_655
P0 Si8 2.221225 1_555
P0 Rb0 3.507503 1_655
P0 Rb0 3.507503 1_555
P1 Si9 2.219349 1_555
P1 Si9 2.219349 1_655
P1 Rb1 3.497170 1_655
P1 Rb1 3.497170 1_555
P1 Rb2 3.562869 1_565
P1 Rb2 3.562869 1_665
P2 Si10 2.219796 1_555
P2 Si10 2.219796 1_655
P2 Rb2 3.495611 1_555
P2 Rb2 3.495611 1_655
P2 Rb1 3.556654 1_655
P2 Rb1 3.556654 1_555
P3 Si11 2.221769 1_555
P3 Si11 2.221769 1_655
P3 Rb0 3.572689 1_555
P3 Rb0 3.572689 1_655
P4 Si6 2.272517 1_655
P4 Si6 2.272517 1_555
P4 Si2 2.297932 1_555
P4 Rb0 3.570704 1_655
P4 Rb0 3.570704 1_555
P5 Si7 2.273504 1_555
P5 Si7 2.273504 1_655
P5 Si3 2.296895 1_555
P5 Rb1 3.583466 1_655
P5 Rb1 3.583466 1_555
P6 Si4 2.272080 1_656
P6 Si4 2.272080 1_556
P6 Si0 2.299562 1_556
P6 Rb2 3.580492 1_655
P6 Rb2 3.580492 1_555
P7 Si5 2.275015 1_654
P7 Si5 2.275015 1_554
P7 Si1 2.300569 1_554
P8 Si0 2.263414 1_455
P8 Si0 2.263414 1_555
P8 Si8 2.314345 1_555
P9 Si1 2.265274 1_455
P9 Si1 2.265274 1_555
P9 Si9 2.314657 1_555
P10 Si2 2.264896 1_455
P10 Si2 2.264896 1_555
P10 Si10 2.317522 1_555
P11 Si3 2.264432 1_555
P11 Si3 2.264432 1_455
P11 Si11 2.314004 1_555
