# generated using pymatgen
data_Cs4Mg(PS4)2
_symmetry_space_group_name_H-M   'P 1'
_cell_length_a   9.36719740
_cell_length_b   9.43844391
_cell_length_c   11.31671783
_cell_angle_alpha   104.54134463
_cell_angle_beta   104.04690630
_cell_angle_gamma   91.31063520
_symmetry_Int_Tables_number   1
_chemical_formula_structural   Cs4Mg(PS4)2
_chemical_formula_sum   'Cs8 Mg2 P4 S16'
_cell_volume   935.77065763
_cell_formula_units_Z   2
loop_
 _symmetry_equiv_pos_site_id
 _symmetry_equiv_pos_as_xyz
  1  'x, y, z'
loop_
 _atom_site_type_symbol
 _atom_site_label
 _atom_site_symmetry_multiplicity
 _atom_site_fract_x
 _atom_site_fract_y
 _atom_site_fract_z
 _atom_site_occupancy
  Cs  Cs0  1  0.92567506  0.52497016  0.24432528  1
  Cs  Cs1  1  0.07432494  0.47502984  0.75567472  1
  Cs  Cs2  1  0.75816982  0.97882620  0.45229764  1
  Cs  Cs3  1  0.24183018  0.02117380  0.54770236  1
  Cs  Cs4  1  0.59619996  0.74230360  0.00938277  1
  Cs  Cs5  1  0.40380004  0.25769640  0.99061723  1
  Cs  Cs6  1  0.61955816  0.68375877  0.61960695  1
  Cs  Cs7  1  0.38044184  0.31624123  0.38039305  1
  Mg  Mg0  1  0.85207282  0.13053713  0.92401141  1
  Mg  Mg1  1  0.14792718  0.86946287  0.07598859  1
  P  P0  1  0.95198314  0.10934359  0.22012875  1
  P  P1  1  0.04801686  0.89065641  0.77987125  1
  P  P2  1  0.36075567  0.69396909  0.25250427  1
  P  P3  1  0.63924433  0.30603091  0.74749573  1
  S  S0  1  0.97492354  0.89571691  0.22558730  1
  S  S1  1  0.02507646  0.10428309  0.77441270  1
  S  S2  1  0.60775867  0.08802434  0.74867946  1
  S  S3  1  0.39224133  0.91197566  0.25132054  1
  S  S4  1  0.28268150  0.67474973  0.39957593  1
  S  S5  1  0.71731850  0.32525027  0.60042407  1
  S  S6  1  0.79314033  0.39939525  0.91538130  1
  S  S7  1  0.20685967  0.60060475  0.08461870  1
  S  S8  1  0.99922897  0.24389785  0.39591195  1
  S  S9  1  0.00077103  0.75610215  0.60408805  1
  S  S10  1  0.09148116  0.15967440  0.11675203  1
  S  S11  1  0.90851884  0.84032560  0.88324797  1
  S  S12  1  0.74486123  0.13039718  0.11686555  1
  S  S13  1  0.25513877  0.86960282  0.88313445  1
  S  S14  1  0.55426102  0.59693947  0.26143496  1
  S  S15  1  0.44573898  0.40306053  0.73856504  1
loop_
_geom_bond_atom_site_label_1
_geom_bond_atom_site_label_2
_geom_bond_distance
_geom_bond_site_symmetry_2
Cs0 S4 3.457314 1_655
Cs0 S8 3.500067 1_555
Cs0 S6 3.503890 1_554
Cs0 S0 3.584543 1_555
Cs0 S14 3.601691 1_555
Cs0 S7 3.685970 1_655
Cs0 S12 3.827090 1_555
Cs0 S10 3.901013 1_655
Cs0 S9 3.988631 1_655
Cs1 S5 3.457314 1_455
Cs1 S9 3.500067 1_555
Cs1 S7 3.503890 1_556
Cs1 S1 3.584543 1_555
Cs1 S15 3.601691 1_555
Cs1 S6 3.685970 1_455
Cs1 S13 3.827090 1_555
Cs1 S11 3.901013 1_455
Cs1 S8 3.988631 1_455
Cs2 S5 3.356141 1_565
Cs2 S9 3.559631 1_655
Cs2 S3 3.565993 1_555
Cs2 S0 3.593199 1_555
Cs2 S8 3.606654 1_565
Cs2 S1 3.770141 1_665
Cs2 S2 3.862853 1_565
Cs2 S14 3.883087 1_555
Cs3 S4 3.356141 1_545
Cs3 S8 3.559631 1_455
Cs3 S2 3.565993 1_555
Cs3 S1 3.593199 1_555
Cs3 S9 3.606654 1_545
Cs3 S0 3.770141 1_445
Cs3 S3 3.862853 1_545
Cs3 S15 3.883087 1_555
Cs4 S13 3.537428 1_554
Cs4 S14 3.557733 1_555
Cs4 S12 3.680123 1_565
Cs4 S11 3.744181 1_554
Cs4 S3 3.766756 1_555
Cs4 S15 3.794804 1_554
Cs4 S0 3.800114 1_555
Cs4 S6 3.808777 1_554
Cs5 S12 3.537428 1_556
Cs5 S15 3.557733 1_555
Cs5 S13 3.680123 1_545
Cs5 S10 3.744181 1_556
Cs5 S2 3.766756 1_555
Cs5 S14 3.794804 1_556
Cs5 S1 3.800114 1_555
Cs5 S7 3.808777 1_556
Cs6 S11 3.477735 1_555
Cs6 S5 3.493556 1_555
Cs6 S4 3.497476 1_555
Cs6 S9 3.674436 1_655
Cs6 S2 3.742168 1_565
Cs6 S15 3.760331 1_555
Cs6 S14 3.818478 1_555
Cs7 S10 3.477735 1_555
Cs7 S4 3.493556 1_555
Cs7 S5 3.497476 1_555
Cs7 S8 3.674436 1_455
Cs7 S3 3.742168 1_545
Cs7 S14 3.760331 1_555
Cs7 S15 3.818478 1_555
Mg0 S2 2.586368 1_555
Mg0 S1 2.587135 1_655
Mg0 S12 2.614789 1_556
Mg0 S6 2.629841 1_555
Mg0 S10 2.675535 1_656
Mg0 S11 2.746894 1_545
Mg1 S3 2.586368 1_555
Mg1 S0 2.587135 1_455
Mg1 S13 2.614789 1_554
Mg1 S7 2.629841 1_555
Mg1 S11 2.675535 1_454
Mg1 S10 2.746894 1_565
P0 S8 2.011039 1_555
P0 S0 2.047289 1_545
P0 S12 2.050109 1_555
P0 S10 2.072325 1_655
P1 S9 2.011039 1_555
P1 S1 2.047289 1_565
P1 S13 2.050109 1_555
P1 S11 2.072325 1_455
P2 S4 2.018489 1_555
P2 S14 2.041553 1_555
P2 S7 2.058148 1_555
P2 S3 2.075827 1_555
P3 S5 2.018489 1_555
P3 S15 2.041553 1_555
P3 S6 2.058148 1_555
P3 S2 2.075827 1_555
