# generated using pymatgen
data_Ta10GaSi4Ge
_symmetry_space_group_name_H-M   'P 1'
_cell_length_a   6.57100847
_cell_length_b   7.55098844
_cell_length_c   6.57100847
_cell_angle_alpha   115.79223595
_cell_angle_beta   90.00000000
_cell_angle_gamma   115.79223595
_symmetry_Int_Tables_number   1
_chemical_formula_structural   Ta10GaSi4Ge
_chemical_formula_sum   'Ta10 Ga1 Si4 Ge1'
_cell_volume   257.00380772
_cell_formula_units_Z   1
loop_
 _symmetry_equiv_pos_site_id
 _symmetry_equiv_pos_as_xyz
  1  'x, y, z'
loop_
 _atom_site_type_symbol
 _atom_site_label
 _atom_site_symmetry_multiplicity
 _atom_site_fract_x
 _atom_site_fract_y
 _atom_site_fract_z
 _atom_site_occupancy
  Ta  Ta0  1  0.00047751  0.00095503  0.00047751  1
  Ta  Ta1  1  0.49952249  0.99904497  0.49952249  1
  Ta  Ta2  1  0.51543321  0.70257758  0.68791525  1
  Ta  Ta3  1  0.18714438  0.70257758  0.01466233  1
  Ta  Ta4  1  0.68791525  0.70257758  0.18714438  1
  Ta  Ta5  1  0.01466233  0.70257758  0.51543321  1
  Ta  Ta6  1  0.48533767  0.29742242  0.31285562  1
  Ta  Ta7  1  0.81208475  0.29742242  0.98456679  1
  Ta  Ta8  1  0.31285562  0.29742242  0.81208475  1
  Ta  Ta9  1  0.98456679  0.29742242  0.48533767  1
  Ga  Ga0  1  0.25000000  0.50000000  0.25000000  1
  Si  Si0  1  0.87006562  0.00000000  0.62993438  1
  Si  Si1  1  0.12993438  0.00000000  0.37006562  1
  Si  Si2  1  0.62993438  0.00000000  0.12993438  1
  Si  Si3  1  0.37006562  1.00000000  0.87006562  1
  Ge  Ge0  1  0.75000000  0.50000000  0.75000000  1
loop_
_geom_bond_atom_site_label_1
_geom_bond_atom_site_label_2
_geom_bond_distance
_geom_bond_site_symmetry_2
Ga0 Ta6 2.740456 1_555
Ga0 Ta3 2.740456 1_555
Ga0 Ta5 2.740456 1_555
Ga0 Ta9 2.740456 1_455
Ga0 Ta4 2.740456 1_555
Ga0 Ta8 2.740456 1_554
Ga0 Ta2 2.740456 1_555
Ga0 Ta7 2.740456 1_454
Ga0 Ta1 2.970402 1_555
Ga0 Ta0 2.970402 1_555
Si0 Si1 2.414911 1_655
Si0 Ta1 2.577245 1_545
Si0 Ta0 2.577245 1_656
Si0 Ta7 2.609510 1_555
Si0 Ta2 2.609510 1_545
Si0 Ta9 2.626618 1_555
Si0 Ta5 2.626618 1_645
Si0 Ta8 2.629910 1_655
Si0 Ta4 2.629910 1_545
Si1 Ta0 2.577245 1_555
Si1 Ta1 2.577245 1_545
Si1 Ta6 2.609510 1_555
Si1 Ta3 2.609510 1_545
Si1 Ta8 2.626619 1_555
Si1 Ta4 2.626619 1_445
Si1 Ta9 2.629909 1_455
Si1 Ta5 2.629909 1_545
Si2 Si3 2.414911 1_544
Si2 Ta1 2.577245 1_545
Si2 Ta0 2.577245 1_655
Si2 Ta4 2.609510 1_545
Si2 Ta9 2.609510 1_555
Si2 Ta6 2.626618 1_555
Si2 Ta2 2.626619 1_544
Si2 Ta7 2.629909 1_554
Si2 Ta3 2.629910 1_545
Si3 Ta0 2.577245 1_566
Si3 Ta1 2.577245 1_555
Si3 Ta8 2.609510 1_565
Si3 Ta5 2.609510 1_555
Si3 Ta3 2.626618 1_556
Si3 Ta7 2.626619 1_565
Si3 Ta2 2.629909 1_555
Si3 Ta6 2.629910 1_566
Ge0 Ta7 2.734376 1_555
Ge0 Ta2 2.734376 1_555
Ge0 Ta5 2.734376 1_655
Ge0 Ta9 2.734376 1_555
Ge0 Ta4 2.734376 1_556
Ge0 Ta8 2.734376 1_555
Ge0 Ta3 2.734376 1_656
Ge0 Ta6 2.734376 1_555
Ge0 Ta0 2.981771 1_666
Ge0 Ta1 2.981771 1_545
