# generated using pymatgen
data_Hf6Al16Ni2Rh5
_symmetry_space_group_name_H-M   'P 1'
_cell_length_a   8.62010603
_cell_length_b   8.55577989
_cell_length_c   8.55578039
_cell_angle_alpha   60.49803764
_cell_angle_beta   59.75098213
_cell_angle_gamma   59.75097714
_symmetry_Int_Tables_number   1
_chemical_formula_structural   Hf6Al16Ni2Rh5
_chemical_formula_sum   'Hf6 Al16 Ni2 Rh5'
_cell_volume   446.13609140
_cell_formula_units_Z   1
loop_
 _symmetry_equiv_pos_site_id
 _symmetry_equiv_pos_as_xyz
  1  'x, y, z'
loop_
 _atom_site_type_symbol
 _atom_site_label
 _atom_site_symmetry_multiplicity
 _atom_site_fract_x
 _atom_site_fract_y
 _atom_site_fract_z
 _atom_site_occupancy
  Hf  Hf0  1  0.67357061  0.32642839  0.32642839  1
  Hf  Hf1  1  0.32642839  0.67357061  0.67357061  1
  Hf  Hf2  1  0.30738296  0.69261604  0.30738296  1
  Hf  Hf3  1  0.30738296  0.30738296  0.69261604  1
  Hf  Hf4  1  0.69261604  0.30738296  0.69261604  1
  Hf  Hf5  1  0.69261604  0.69261604  0.30738296  1
  Al  Al0  1  0.32902326  0.33916299  0.33916299  1
  Al  Al1  1  0.33916299  0.32902326  0.99264976  1
  Al  Al2  1  0.99264976  0.33916299  0.33916299  1
  Al  Al3  1  0.33916299  0.99264976  0.32902326  1
  Al  Al4  1  0.67097674  0.66083701  0.66083701  1
  Al  Al5  1  0.66083701  0.67097674  0.00735024  1
  Al  Al6  1  0.66083701  0.00735024  0.67097674  1
  Al  Al7  1  0.00735024  0.66083701  0.66083701  1
  Al  Al8  1  0.11836430  0.12076363  0.12076363  1
  Al  Al9  1  0.12076363  0.11836430  0.64010844  1
  Al  Al10  1  0.64010844  0.12076363  0.12076363  1
  Al  Al11  1  0.12076363  0.64010844  0.11836430  1
  Al  Al12  1  0.88163470  0.87923537  0.87923537  1
  Al  Al13  1  0.87923537  0.88163470  0.35989456  1
  Al  Al14  1  0.87923537  0.35989456  0.88163470  1
  Al  Al15  1  0.35989456  0.87923537  0.87923537  1
  Ni  Ni0  1  0.50000000  0.00000000  0.00000000  1
  Ni  Ni1  1  0.00000000  0.50000000  0.50000000  1
  Rh  Rh0  1  0.00000000  0.00000000  0.00000000  1
  Rh  Rh1  1  0.00000000  0.50000000  0.00000000  1
  Rh  Rh2  1  0.00000000  0.00000000  0.50000000  1
  Rh  Rh3  1  0.50000000  0.00000000  0.50000000  1
  Rh  Rh4  1  0.50000000  0.50000000  0.00000000  1
loop_
_geom_bond_atom_site_label_1
_geom_bond_atom_site_label_2
_geom_bond_distance
_geom_bond_site_symmetry_2
Hf0 Hf2 3.139711 1_555
Hf0 Hf5 3.139711 1_555
Hf0 Hf4 3.139711 1_555
Hf0 Hf3 3.139711 1_555
Hf0 Rh3 3.182847 1_555
Hf0 Rh4 3.182847 1_555
Hf0 Rh2 3.182859 1_655
Hf0 Rh1 3.182859 1_655
Hf1 Hf4 3.139711 1_555
Hf1 Hf3 3.139711 1_555
Hf1 Hf2 3.139711 1_555
Hf1 Hf5 3.139711 1_555
Hf1 Rh2 3.182850 1_565
Hf1 Rh1 3.182851 1_556
Hf1 Rh3 3.182862 1_565
Hf1 Rh4 3.182862 1_556
Hf2 Rh4 3.082431 1_555
Hf2 Rh2 3.082443 1_565
Hf2 Ni1 3.126914 1_555
Hf2 Ni0 3.126926 1_565
Hf2 Hf3 3.320750 1_555
Hf2 Hf5 3.320750 1_555
Hf3 Rh3 3.082431 1_555
Hf3 Rh1 3.082443 1_556
Hf3 Ni1 3.126914 1_555
Hf3 Ni0 3.126926 1_556
Hf3 Hf4 3.320750 1_555
Hf4 Rh2 3.082434 1_655
Hf4 Rh4 3.082446 1_556
Hf4 Ni0 3.126917 1_556
Hf4 Ni1 3.126929 1_655
Hf4 Hf5 3.320750 1_555
Hf5 Rh1 3.082434 1_655
Hf5 Rh3 3.082445 1_565
Hf5 Ni0 3.126917 1_565
Hf5 Ni1 3.126929 1_655
Al0 Ni1 2.414940 1_555
Al0 Rh3 2.507558 1_555
Al0 Rh4 2.507558 1_555
Al0 Hf2 2.815424 1_555
Al0 Hf3 2.815424 1_555
Al0 Hf0 2.864346 1_555
Al1 Ni0 2.414938 1_556
Al1 Rh1 2.507556 1_556
Al1 Rh4 2.507563 1_556
Al1 Hf4 2.815428 1_555
Al1 Hf3 2.815433 1_555
Al1 Hf1 2.864350 1_555
Al2 Ni1 2.414945 1_655
Al2 Rh2 2.507555 1_655
Al2 Rh1 2.507556 1_655
Al2 Hf5 2.815428 1_555
Al2 Hf4 2.815428 1_555
Al2 Hf0 2.864354 1_555
Al3 Ni0 2.414938 1_565
Al3 Rh2 2.507556 1_565
Al3 Rh3 2.507563 1_565
Al3 Hf5 2.815427 1_555
Al3 Hf2 2.815432 1_555
Al3 Hf1 2.864350 1_555
Al4 Ni1 2.414940 1_655
Al4 Rh3 2.507558 1_565
Al4 Rh4 2.507558 1_556
Al4 Hf4 2.815439 1_555
Al4 Hf5 2.815440 1_555
Al4 Hf1 2.864362 1_555
Al5 Ni0 2.414938 1_565
Al5 Rh1 2.507556 1_655
Al5 Rh4 2.507563 1_555
Al5 Hf5 2.815414 1_555
Al5 Hf2 2.815429 1_555
Al5 Hf0 2.864350 1_555
Al6 Ni0 2.414938 1_556
Al6 Rh2 2.507556 1_655
Al6 Rh3 2.507563 1_555
Al6 Hf4 2.815414 1_555
Al6 Hf3 2.815429 1_555
Al6 Hf0 2.864350 1_555
Al7 Ni1 2.414945 1_555
Al7 Rh2 2.507555 1_565
Al7 Rh1 2.507556 1_556
Al7 Hf3 2.815428 1_555
Al7 Hf2 2.815429 1_555
Al7 Hf1 2.864337 1_555
Al8 Rh0 2.520294 1_555
Al8 Rh1 2.657299 1_555
Al8 Rh2 2.657299 1_555
Al8 Ni0 2.675770 1_555
Al8 Hf2 3.077315 1_545
Al8 Hf3 3.077315 1_554
Al8 Hf0 3.216847 1_455
Al9 Rh0 2.520294 1_556
Al9 Rh2 2.657299 1_555
Al9 Rh3 2.657299 1_555
Al9 Ni1 2.675770 1_555
Al9 Hf3 3.077304 1_555
Al9 Hf4 3.077319 1_455
Al9 Hf1 3.216850 1_545
Al10 Rh0 2.520294 1_655
Al10 Rh4 2.657299 1_555
Al10 Rh3 2.657300 1_555
Al10 Ni0 2.675770 1_555
Al10 Hf5 3.077318 1_545
Al10 Hf4 3.077319 1_554
Al10 Hf0 3.216836 1_555
Al11 Rh0 2.520294 1_565
Al11 Rh4 2.657299 1_555
Al11 Rh1 2.657299 1_555
Al11 Ni1 2.675770 1_555
Al11 Hf2 3.077304 1_555
Al11 Hf5 3.077319 1_455
Al11 Hf1 3.216851 1_554
Al12 Rh0 2.520315 1_666
Al12 Rh1 2.657292 1_656
Al12 Rh2 2.657292 1_665
Al12 Ni0 2.675762 1_566
Al12 Hf4 3.077315 1_565
Al12 Hf5 3.077315 1_556
Al12 Hf1 3.216847 1_655
Al13 Rh0 2.520315 1_665
Al13 Rh2 2.657292 1_665
Al13 Rh3 2.657292 1_565
Al13 Ni1 2.675762 1_655
Al13 Hf2 3.077312 1_655
Al13 Hf5 3.077327 1_555
Al13 Hf0 3.216843 1_565
Al14 Rh0 2.520315 1_656
Al14 Rh4 2.657292 1_556
Al14 Rh1 2.657292 1_656
Al14 Ni1 2.675762 1_655
Al14 Hf3 3.077312 1_655
Al14 Hf4 3.077327 1_555
Al14 Hf0 3.216843 1_556
Al15 Rh0 2.520315 1_566
Al15 Rh4 2.657292 1_556
Al15 Rh3 2.657292 1_565
Al15 Ni0 2.675762 1_566
Al15 Hf3 3.077312 1_565
Al15 Hf2 3.077312 1_556
Al15 Hf1 3.216858 1_555
