# generated using pymatgen
data_RbNa2As2Au3
_symmetry_space_group_name_H-M   'P 1'
_cell_length_a   7.40954606
_cell_length_b   7.40954606
_cell_length_c   7.40954533
_cell_angle_alpha   46.84127134
_cell_angle_beta   46.84126967
_cell_angle_gamma   46.84127404
_symmetry_Int_Tables_number   1
_chemical_formula_structural   RbNa2As2Au3
_chemical_formula_sum   'Rb1 Na2 As2 Au3'
_cell_volume   197.80018463
_cell_formula_units_Z   1
loop_
 _symmetry_equiv_pos_site_id
 _symmetry_equiv_pos_as_xyz
  1  'x, y, z'
loop_
 _atom_site_type_symbol
 _atom_site_label
 _atom_site_symmetry_multiplicity
 _atom_site_fract_x
 _atom_site_fract_y
 _atom_site_fract_z
 _atom_site_occupancy
  Rb  Rb0  1  0.50000000  0.50000000  0.50000000  1
  Na  Na0  1  0.08339054  0.08339054  0.08339054  1
  Na  Na1  1  0.91660946  0.91660946  0.91660946  1
  As  As0  1  0.76105131  0.76105131  0.76105131  1
  As  As1  1  0.23894869  0.23894869  0.23894869  1
  Au  Au0  1  0.50000000  0.50000000  0.00000000  1
  Au  Au1  1  0.50000000  0.00000000  0.50000000  1
  Au  Au2  1  0.00000000  0.50000000  0.50000000  1
loop_
_geom_bond_atom_site_label_1
_geom_bond_atom_site_label_2
_geom_bond_distance
_geom_bond_site_symmetry_2
Na0 Rb0 3.777551 1_554
Na0 Rb0 3.777551 1_455
Na0 Rb0 3.777551 1_545
Na1 Rb0 3.777551 1_556
Na1 Rb0 3.777551 1_655
Na1 Rb0 3.777551 1_565
As0 Au2 2.523055 1_655
As0 Au1 2.523055 1_565
As0 Au0 2.523055 1_556
As0 Na1 3.072132 1_555
As0 Na0 3.407672 1_665
As0 Na0 3.407673 1_566
As0 Na0 3.407673 1_656
As0 Rb0 3.688205 1_556
As0 Rb0 3.688205 1_655
As0 Rb0 3.688205 1_565
As1 Au2 2.523055 1_555
As1 Au1 2.523055 1_555
As1 Au0 2.523055 1_555
As1 Na0 3.072132 1_555
As1 Na1 3.407672 1_445
As1 Na1 3.407673 1_544
As1 Na1 3.407673 1_454
As1 Rb0 3.688205 1_554
As1 Rb0 3.688205 1_455
As1 Rb0 3.688205 1_545
Au0 Au2 2.945134 1_555
Au0 Au2 2.945134 1_654
Au0 Au1 2.945134 1_564
Au0 Au1 2.945134 1_555
Au0 Na0 3.374323 1_565
Au0 Na1 3.374323 1_544
Au0 Na0 3.374323 1_655
Au0 Na1 3.374323 1_454
Au0 Rb0 3.704773 1_555
Au0 Rb0 3.704773 1_554
Au1 Au2 2.945135 1_555
Au1 Au2 2.945135 1_645
Au1 Na0 3.374323 1_556
Au1 Na1 3.374323 1_544
Au1 Na0 3.374323 1_655
Au1 Na1 3.374323 1_445
Au1 Rb0 3.704773 1_545
Au1 Rb0 3.704773 1_555
Au2 Na0 3.374323 1_556
Au2 Na1 3.374323 1_454
Au2 Na0 3.374323 1_565
Au2 Na1 3.374323 1_445
Au2 Rb0 3.704773 1_455
Au2 Rb0 3.704773 1_555
