# generated using pymatgen
data_TaPdPt7
_symmetry_space_group_name_H-M   'P 1'
_cell_length_a   6.27986495
_cell_length_b   6.27986396
_cell_length_c   6.22868829
_cell_angle_alpha   95.67519334
_cell_angle_beta   95.67519848
_cell_angle_gamma   143.49778065
_symmetry_Int_Tables_number   1
_chemical_formula_structural   TaPdPt7
_chemical_formula_sum   'Ta1 Pd1 Pt7'
_cell_volume   138.64389135
_cell_formula_units_Z   1
loop_
 _symmetry_equiv_pos_site_id
 _symmetry_equiv_pos_as_xyz
  1  'x, y, z'
loop_
 _atom_site_type_symbol
 _atom_site_label
 _atom_site_symmetry_multiplicity
 _atom_site_fract_x
 _atom_site_fract_y
 _atom_site_fract_z
 _atom_site_occupancy
  Ta  Ta0  1  0.00094159  0.00094159  0.00188419  1
  Pd  Pd0  1  0.33619689  0.33619689  0.67239279  1
  Pt  Pt0  1  0.66064080  0.33800494  0.99864674  1
  Pt  Pt1  1  0.33800494  0.66064080  0.99864674  1
  Pt  Pt2  1  0.66277881  0.66277881  0.32556061  1
  Pt  Pt3  1  0.33054444  0.99967542  0.33021987  1
  Pt  Pt4  1  0.99967542  0.33054444  0.33021987  1
  Pt  Pt5  1  0.67089330  0.00032180  0.67121510  1
  Pt  Pt6  1  0.00032180  0.67089330  0.67121510  1
loop_
_geom_bond_atom_site_label_1
_geom_bond_atom_site_label_2
_geom_bond_distance
_geom_bond_site_symmetry_2
Pd0 Pt1 2.724027 1_555
Pd0 Pt0 2.724027 1_555
Pd0 Ta0 2.767680 1_666
Pd0 Ta0 2.767686 1_556
Pd0 Pt5 2.779952 1_565
Pd0 Pt6 2.779952 1_655
Pd0 Pt6 2.779954 1_545
Pd0 Pt5 2.779955 1_455
Pd0 Pt3 2.825484 1_545
Pd0 Pt4 2.825484 1_455
Pd0 Pt2 2.840718 1_555
Pd0 Pt2 2.840729 1_445
Pt0 Pt2 2.726789 1_556
Pt0 Ta0 2.751529 1_666
Pt0 Ta0 2.751530 1_556
Pt0 Pt6 2.759428 1_545
Pt0 Pt6 2.759431 1_655
Pt0 Pt3 2.776786 1_546
Pt0 Pt3 2.776789 1_656
Pt0 Pt5 2.837366 1_555
Pt0 Pt4 2.847875 1_556
Pt0 Pt1 2.888555 1_545
Pt0 Pt1 2.888555 1_655
Pt1 Pt2 2.726789 1_556
Pt1 Ta0 2.751529 1_556
Pt1 Ta0 2.751530 1_666
Pt1 Pt5 2.759428 1_455
Pt1 Pt5 2.759430 1_565
Pt1 Pt4 2.776786 1_456
Pt1 Pt4 2.776789 1_566
Pt1 Pt6 2.837366 1_555
Pt1 Pt3 2.847875 1_556
Pt2 Ta0 2.743609 1_555
Pt2 Ta0 2.743615 1_665
Pt2 Pt3 2.786154 1_545
Pt2 Pt4 2.786155 1_455
Pt2 Pt4 2.786163 1_565
Pt2 Pt3 2.786164 1_655
Pt2 Pt5 2.834285 1_565
Pt2 Pt6 2.834285 1_655
Pt3 Ta0 2.767543 1_565
Pt3 Pt6 2.815946 1_665
Pt3 Pt6 2.815946 1_555
Pt3 Pt4 2.817423 1_455
Pt3 Pt4 2.817424 1_565
Pt3 Pt5 2.857612 1_565
Pt4 Ta0 2.767543 1_655
Pt4 Pt5 2.815946 1_665
Pt4 Pt5 2.815946 1_555
Pt4 Pt6 2.857612 1_655
Pt5 Ta0 2.771132 1_656
Pt5 Pt6 2.829752 1_655
Pt5 Pt6 2.829753 1_545
Pt6 Ta0 2.771132 1_566
