# generated using pymatgen
data_Hf6MgSi6Tc5
_symmetry_space_group_name_H-M   'P 1'
_cell_length_a   7.73918470
_cell_length_b   7.73860688
_cell_length_c   7.73860633
_cell_angle_alpha   126.51634197
_cell_angle_beta   127.73231605
_cell_angle_gamma   78.05014610
_symmetry_Int_Tables_number   1
_chemical_formula_structural   Hf6MgSi6Tc5
_chemical_formula_sum   'Hf6 Mg1 Si6 Tc5'
_cell_volume   285.44986063
_cell_formula_units_Z   1
loop_
 _symmetry_equiv_pos_site_id
 _symmetry_equiv_pos_as_xyz
  1  'x, y, z'
loop_
 _atom_site_type_symbol
 _atom_site_label
 _atom_site_symmetry_multiplicity
 _atom_site_fract_x
 _atom_site_fract_y
 _atom_site_fract_z
 _atom_site_occupancy
  Hf  Hf0  1  0.54747451  0.09376760  0.04534210  1
  Hf  Hf1  1  0.45252549  0.49786758  0.54629209  1
  Hf  Hf2  1  0.95159464  0.49784398  0.04521205  1
  Hf  Hf3  1  0.04840536  0.09361740  0.54625034  1
  Hf  Hf4  1  0.74709672  0.89598037  0.64295218  1
  Hf  Hf5  1  0.25290328  0.89585546  0.14888265  1
  Mg  Mg0  1  1.00000000  0.24264509  0.24264509  1
  Si  Si0  1  0.33432479  0.83408850  0.49971714  1
  Si  Si1  1  0.66567521  0.16539235  0.49976271  1
  Si  Si2  1  0.82985595  0.82129442  0.99100586  1
  Si  Si3  1  0.17014405  0.16114891  0.99143646  1
  Si  Si4  1  0.74331236  0.50144886  0.24460634  1
  Si  Si5  1  0.25668764  0.50129398  0.75813650  1
  Tc  Tc0  1  0.12778941  0.74668334  0.61889964  1
  Tc  Tc1  1  0.87221059  0.49111023  0.61889393  1
  Tc  Tc2  1  0.62712278  0.75611155  0.12875854  1
  Tc  Tc3  1  0.37287722  0.50163376  0.12898877  1
  Tc  Tc4  1  0.50000000  0.24621960  0.74621960  1
loop_
_geom_bond_atom_site_label_1
_geom_bond_atom_site_label_2
_geom_bond_distance
_geom_bond_site_symmetry_2
Hf0 Si3 2.666638 1_554
Hf0 Si0 2.708781 1_544
Hf0 Si1 2.731915 1_555
Hf0 Si2 2.749569 1_544
Hf0 Si4 2.821011 1_555
Hf0 Tc2 2.911660 1_545
Hf0 Tc0 2.932432 1_544
Hf0 Tc1 2.962463 1_555
Hf0 Tc4 2.985752 1_554
Hf0 Mg0 2.992732 1_555
Hf0 Tc3 3.013315 1_555
Hf1 Si2 2.666646 1_555
Hf1 Si1 2.708781 1_555
Hf1 Si0 2.731919 1_555
Hf1 Si3 2.749575 1_554
Hf1 Si5 2.821018 1_555
Hf1 Tc3 2.911643 1_555
Hf1 Tc1 2.932428 1_555
Hf1 Tc0 2.962465 1_555
Hf1 Tc4 2.985759 1_555
Hf1 Mg0 2.992734 1_455
Hf1 Tc2 3.013334 1_556
Hf2 Si2 2.667994 1_554
Hf2 Si1 2.708123 1_554
Hf2 Si0 2.731997 1_655
Hf2 Si3 2.751176 1_654
Hf2 Si4 2.820373 1_555
Hf2 Tc3 2.912236 1_655
Hf2 Tc1 2.931239 1_554
Hf2 Tc0 2.963232 1_655
Hf2 Tc4 2.986437 1_554
Hf2 Mg0 2.993140 1_555
Hf2 Tc2 3.014851 1_555
Hf3 Si3 2.667975 1_555
Hf3 Si0 2.708120 1_545
Hf3 Si1 2.731991 1_455
Hf3 Si2 2.751177 1_444
Hf3 Si5 2.820376 1_555
Hf3 Tc2 2.912237 1_445
Hf3 Tc0 2.931234 1_545
Hf3 Tc1 2.963233 1_455
Hf3 Tc4 2.986440 1_555
Hf3 Mg0 2.993147 1_455
Hf3 Tc3 3.014843 1_556
Hf4 Si1 2.705988 1_565
Hf4 Si0 2.707556 1_555
Hf4 Si4 2.747862 1_555
Hf4 Si2 2.754423 1_555
Hf4 Si3 2.755435 1_665
Hf4 Tc2 2.938646 1_555
Hf4 Tc3 2.938727 1_555
Hf4 Tc4 2.964465 1_565
Hf4 Mg0 2.967331 1_566
Hf4 Tc0 3.009242 1_655
Hf4 Tc1 3.009794 1_555
Hf5 Si0 2.705990 1_555
Hf5 Si1 2.707556 1_565
Hf5 Si5 2.747858 1_554
Hf5 Si3 2.754422 1_564
Hf5 Si2 2.755438 1_454
Hf5 Tc3 2.938664 1_555
Hf5 Tc2 2.938717 1_555
Hf5 Tc4 2.964470 1_565
Hf5 Mg0 2.967332 1_465
Hf5 Tc1 3.009241 1_454
Hf5 Tc0 3.009787 1_554
Mg0 Si5 2.512148 1_655
Mg0 Si4 2.512148 1_555
Mg0 Si2 2.690879 1_544
Mg0 Si3 2.690890 1_654
Mg0 Tc1 3.037609 1_555
Mg0 Tc0 3.037609 1_655
Si0 Tc0 2.618707 1_555
Si0 Tc3 2.623809 1_555
Si0 Tc4 2.629445 1_565
Si1 Tc1 2.618702 1_555
Si1 Tc2 2.623802 1_545
Si1 Tc4 2.629452 1_555
Si2 Tc2 2.620568 1_556
Si2 Tc1 2.642032 1_555
Si3 Tc3 2.620553 1_556
Si3 Tc0 2.642023 1_545
Si4 Tc2 2.424499 1_555
Si4 Tc3 2.424830 1_555
Si4 Tc4 2.430508 1_554
Si4 Tc0 2.468376 1_655
Si4 Tc1 2.469270 1_555
Si5 Tc3 2.424509 1_556
Si5 Tc2 2.424829 1_556
Si5 Tc4 2.430508 1_555
Si5 Tc1 2.468376 1_455
Si5 Tc0 2.469270 1_555
