# generated using pymatgen
data_Li2SnO3
_symmetry_space_group_name_H-M   'P 1'
_cell_length_a   5.29531168
_cell_length_b   5.29531168
_cell_length_c   9.96589067
_cell_angle_alpha   84.83685167
_cell_angle_beta   84.83685167
_cell_angle_gamma   120.15167003
_symmetry_Int_Tables_number   1
_chemical_formula_structural   Li2SnO3
_chemical_formula_sum   'Li8 Sn4 O12'
_cell_volume   237.67296622
_cell_formula_units_Z   4
loop_
 _symmetry_equiv_pos_site_id
 _symmetry_equiv_pos_as_xyz
  1  'x, y, z'
loop_
 _atom_site_type_symbol
 _atom_site_label
 _atom_site_symmetry_multiplicity
 _atom_site_fract_x
 _atom_site_fract_y
 _atom_site_fract_z
 _atom_site_occupancy
  Li  Li0  1  0.15886836  0.31557297  0.00105601  1
  Li  Li1  1  0.68442703  0.84113164  0.49894399  1
  Li  Li2  1  0.84113164  0.68442703  0.99894399  1
  Li  Li3  1  0.31557297  0.15886836  0.50105601  1
  Li  Li4  1  -0.00000000  0.50000000  0.50000000  1
  Li  Li5  1  0.50000000  0.00000000  0.00000000  1
  Li  Li6  1  0.91510449  0.08489551  0.75000000  1
  Li  Li7  1  0.08489551  0.91510449  0.25000000  1
  Sn  Sn0  1  0.41716552  0.58283448  0.25000000  1
  Sn  Sn1  1  0.74976929  0.25023071  0.25000000  1
  Sn  Sn2  1  0.25023071  0.74976929  0.75000000  1
  Sn  Sn3  1  0.58283448  0.41716552  0.75000000  1
  O  O0  1  0.04192277  0.22607226  0.37001766  1
  O  O1  1  0.87612399  0.39457750  0.86759603  1
  O  O2  1  0.77392774  0.95807723  0.12998234  1
  O  O3  1  0.95807723  0.77392774  0.62998234  1
  O  O4  1  0.52780017  0.69421758  0.86757395  1
  O  O5  1  0.60542250  0.12387601  0.63240397  1
  O  O6  1  0.12387601  0.60542250  0.13240397  1
  O  O7  1  0.39457750  0.87612399  0.36759603  1
  O  O8  1  0.69421758  0.52780017  0.36757395  1
  O  O9  1  0.30578242  0.47219983  0.63242605  1
  O  O10  1  0.47219983  0.30578242  0.13242605  1
  O  O11  1  0.22607226  0.04192277  0.87001766  1
loop_
_geom_bond_atom_site_label_1
_geom_bond_atom_site_label_2
_geom_bond_distance
_geom_bond_site_symmetry_2
Li0 O2 2.145674 1_445
Li0 O11 2.169520 1_554
Li0 O6 2.169611 1_555
Li0 O4 2.173378 1_554
Li0 O10 2.221444 1_555
Li0 O1 2.252380 1_454
Li1 O0 2.145674 1_665
Li1 O3 2.169520 1_555
Li1 O7 2.169611 1_555
Li1 O9 2.173378 1_555
Li1 O8 2.221444 1_555
Li1 O5 2.252380 1_565
Li2 O11 2.145674 1_665
Li2 O2 2.169520 1_556
Li2 O1 2.169611 1_555
Li2 O10 2.173378 1_556
Li2 O4 2.221444 1_555
Li2 O6 2.252380 1_656
Li3 O3 2.145674 1_445
Li3 O0 2.169520 1_555
Li3 O5 2.169611 1_555
Li3 O8 2.173378 1_555
Li3 O9 2.221444 1_555
Li3 O7 2.252380 1_545
Li4 O3 2.107434 1_455
Li4 O0 2.107434 1_555
Li4 O7 2.218977 1_555
Li4 O5 2.218977 1_455
Li4 O9 2.230325 1_555
Li4 O8 2.230325 1_455
Li5 O2 2.107434 1_545
Li5 O11 2.107434 1_554
Li5 O1 2.218977 1_554
Li5 O6 2.218977 1_545
Li5 O4 2.230325 1_544
Li5 O10 2.230325 1_555
Li6 O9 2.174360 1_655
Li6 O4 2.174360 1_545
Li6 O1 2.178904 1_555
Li6 O5 2.178904 1_555
Li6 O11 2.208132 1_655
Li6 O3 2.208132 1_545
Li7 O10 2.174360 1_565
Li7 O8 2.174360 1_455
Li7 O7 2.178904 1_555
Li7 O6 2.178904 1_555
Li7 O0 2.208132 1_565
Li7 O2 2.208132 1_455
O0 Sn0 2.083835 1_555
O0 Sn1 2.084380 1_455
O1 Sn2 2.068290 1_655
O1 Sn3 2.070927 1_555
O2 Sn0 2.083835 1_555
O2 Sn1 2.084380 1_565
O3 Sn3 2.083835 1_555
O3 Sn2 2.084380 1_655
O4 Sn3 2.070659 1_555
O4 Sn2 2.074157 1_555
O5 Sn2 2.068290 1_545
O5 Sn3 2.070927 1_555
O6 Sn1 2.068290 1_455
O6 Sn0 2.070927 1_555
O7 Sn1 2.068290 1_565
O7 Sn0 2.070927 1_555
O8 Sn0 2.070659 1_555
O8 Sn1 2.074157 1_555
O9 Sn3 2.070659 1_555
O9 Sn2 2.074157 1_555
O10 Sn0 2.070659 1_555
O10 Sn1 2.074157 1_555
O11 Sn3 2.083835 1_555
O11 Sn2 2.084380 1_545
