# generated using pymatgen
data_Ca2Lu2As6Rh7
_symmetry_space_group_name_H-M   'P 1'
_cell_length_a   7.20811057
_cell_length_b   7.20811081
_cell_length_c   7.17598371
_cell_angle_alpha   109.41290224
_cell_angle_beta   109.41291062
_cell_angle_gamma   109.76819275
_symmetry_Int_Tables_number   1
_chemical_formula_structural   Ca2Lu2As6Rh7
_chemical_formula_sum   'Ca2 Lu2 As6 Rh7'
_cell_volume   286.37024562
_cell_formula_units_Z   1
loop_
 _symmetry_equiv_pos_site_id
 _symmetry_equiv_pos_as_xyz
  1  'x, y, z'
loop_
 _atom_site_type_symbol
 _atom_site_label
 _atom_site_symmetry_multiplicity
 _atom_site_fract_x
 _atom_site_fract_y
 _atom_site_fract_z
 _atom_site_occupancy
  Ca  Ca0  1  0.50000000  0.50000000  0.50000000  1
  Ca  Ca1  1  0.00000000  0.00000000  0.50000000  1
  Lu  Lu0  1  0.00000000  0.50000000  0.00000000  1
  Lu  Lu1  1  0.50000000  0.00000000  0.00000000  1
  As  As0  1  0.68016200  0.99929030  0.67945230  1
  As  As1  1  0.67923464  0.67923464  0.00000000  1
  As  As2  1  0.32076536  0.32076536  1.00000000  1
  As  As3  1  0.99929030  0.68016200  0.67945230  1
  As  As4  1  0.00070970  0.31983800  0.32054770  1
  As  As5  1  0.31983800  0.00070970  0.32054770  1
  Rh  Rh0  1  0.49305861  0.75052760  0.24358521  1
  Rh  Rh1  1  0.75000000  0.25000000  0.50000000  1
  Rh  Rh2  1  0.25000000  0.75000000  0.50000000  1
  Rh  Rh3  1  0.24947240  0.50694139  0.75641479  1
  Rh  Rh4  1  0.00000000  0.00000000  0.00000000  1
  Rh  Rh5  1  0.50694139  0.24947240  0.75641479  1
  Rh  Rh6  1  0.75052760  0.49305861  0.24358521  1
loop_
_geom_bond_atom_site_label_1
_geom_bond_atom_site_label_2
_geom_bond_distance
_geom_bond_site_symmetry_2
Ca0 Rh1 2.948082 1_555
Ca0 Rh2 2.948082 1_555
Ca0 Rh0 2.976232 1_555
Ca0 Rh5 2.976232 1_555
Ca0 Rh3 2.976232 1_555
Ca0 Rh6 2.976232 1_555
Ca1 Rh2 2.948082 1_545
Ca1 Rh1 2.948082 1_455
Ca1 Rh5 2.976227 1_555
Ca1 Rh0 2.976227 1_445
Ca1 Rh3 2.976227 1_555
Ca1 Rh6 2.976227 1_445
Lu0 Rh3 2.894516 1_554
Lu0 Rh6 2.894516 1_455
Lu0 Rh0 2.894522 1_555
Lu0 Rh5 2.894522 1_454
Lu0 Rh1 2.928422 1_454
Lu0 Rh2 2.928422 1_555
Lu1 Rh5 2.894516 1_554
Lu1 Rh0 2.894516 1_545
Lu1 Rh6 2.894522 1_555
Lu1 Rh3 2.894522 1_544
Lu1 Rh1 2.928422 1_555
Lu1 Rh2 2.928422 1_544
As0 Rh5 2.536819 1_565
As0 Rh1 2.557341 1_565
As0 Rh2 2.557342 1_555
As0 Rh0 2.578563 1_555
As0 Rh4 2.658037 1_666
As0 Ca1 2.990522 1_665
As0 Ca0 2.990522 1_555
As0 Lu1 2.993320 1_566
As0 Lu0 2.993321 1_666
As1 Rh6 2.559110 1_555
As1 Rh0 2.559111 1_555
As1 Rh3 2.559115 1_554
As1 Rh5 2.559116 1_554
As1 Rh4 2.660003 1_665
As1 Ca0 2.986642 1_554
As1 Ca1 2.986642 1_665
As1 Lu0 3.005921 1_655
As1 Lu1 3.005921 1_565
As2 Rh3 2.559110 1_555
As2 Rh5 2.559111 1_555
As2 Rh6 2.559115 1_556
As2 Rh0 2.559116 1_556
As2 Rh4 2.660003 1_556
As2 Ca0 2.986642 1_556
As2 Ca1 2.986642 1_555
As2 Lu0 3.005921 1_556
As2 Lu1 3.005921 1_556
As3 Rh3 2.536819 1_655
As3 Rh2 2.557341 1_655
As3 Rh1 2.557342 1_555
As3 Rh6 2.578563 1_555
As3 Rh4 2.658038 1_666
As3 Ca1 2.990522 1_665
As3 Ca0 2.990522 1_555
As3 Lu0 2.993320 1_656
As3 Lu1 2.993320 1_666
As4 Rh6 2.536819 1_455
As4 Rh1 2.557341 1_455
As4 Rh2 2.557342 1_555
As4 Rh3 2.578563 1_555
As4 Rh4 2.658038 1_555
As4 Ca1 2.990522 1_555
As4 Ca0 2.990522 1_555
As4 Lu0 2.993320 1_555
As4 Lu1 2.993320 1_455
As5 Rh0 2.536819 1_545
As5 Rh2 2.557341 1_545
As5 Rh1 2.557342 1_555
As5 Rh5 2.578563 1_555
As5 Rh4 2.658037 1_555
As5 Ca1 2.990522 1_555
As5 Ca0 2.990522 1_555
As5 Lu1 2.993320 1_555
As5 Lu0 2.993321 1_545
