# generated using pymatgen
data_TaPt3Rh5
_symmetry_space_group_name_H-M   'P 1'
_cell_length_a   6.14917612
_cell_length_b   6.14917556
_cell_length_c   6.14917612
_cell_angle_alpha   95.76955847
_cell_angle_beta   95.54353629
_cell_angle_gamma   143.40507730
_symmetry_Int_Tables_number   1
_chemical_formula_structural   TaPt3Rh5
_chemical_formula_sum   'Ta1 Pt3 Rh5'
_cell_volume   131.60585700
_cell_formula_units_Z   1
loop_
 _symmetry_equiv_pos_site_id
 _symmetry_equiv_pos_as_xyz
  1  'x, y, z'
loop_
 _atom_site_type_symbol
 _atom_site_label
 _atom_site_symmetry_multiplicity
 _atom_site_fract_x
 _atom_site_fract_y
 _atom_site_fract_z
 _atom_site_occupancy
  Ta  Ta0  1  0.00000000  0.00213089  0.00213089  1
  Pt  Pt0  1  0.00000000  0.67096370  0.67096370  1
  Pt  Pt1  1  0.67053161  0.99821365  0.66874527  1
  Pt  Pt2  1  0.32946839  0.99821365  0.32768204  1
  Rh  Rh0  1  0.33601167  0.33834185  0.67435352  1
  Rh  Rh1  1  0.66055688  0.66364678  0.32420367  1
  Rh  Rh2  1  0.66398833  0.33834185  0.00233019  1
  Rh  Rh3  1  0.33944312  0.66364678  0.00308990  1
  Rh  Rh4  1  1.00000000  0.32650182  0.32650182  1
loop_
_geom_bond_atom_site_label_1
_geom_bond_atom_site_label_2
_geom_bond_distance
_geom_bond_site_symmetry_2
Pt0 Ta0 2.731323 1_566
Pt0 Rh2 2.733111 1_566
Pt0 Rh0 2.733111 1_565
Pt0 Rh0 2.733112 1_455
Pt0 Rh2 2.733112 1_456
Pt0 Pt2 2.782755 1_445
Pt0 Pt1 2.782755 1_445
Pt0 Pt1 2.782755 1_555
Pt0 Pt2 2.782755 1_555
Pt0 Rh1 2.806331 1_455
Pt0 Rh3 2.806331 1_556
Pt0 Rh4 2.840972 1_455
Pt1 Rh0 2.708575 1_555
Pt1 Rh0 2.708576 1_665
Pt1 Ta0 2.723427 1_666
Pt1 Rh3 2.745512 1_666
Pt1 Rh3 2.745512 1_556
Pt1 Rh1 2.760594 1_555
Pt1 Rh4 2.778380 1_455
Pt1 Rh4 2.778381 1_565
Pt1 Rh2 2.805751 1_566
Pt1 Pt2 2.819073 1_555
Pt2 Rh2 2.708575 1_455
Pt2 Rh2 2.708576 1_565
Pt2 Ta0 2.723427 1_565
Pt2 Rh1 2.745512 1_565
Pt2 Rh1 2.745512 1_455
Pt2 Rh3 2.760594 1_555
Pt2 Rh4 2.778380 1_455
Pt2 Rh4 2.778381 1_565
Pt2 Rh0 2.805751 1_565
Rh0 Rh3 2.683124 1_556
Rh0 Rh2 2.710906 1_556
Rh0 Ta0 2.718280 1_666
Rh0 Ta0 2.718280 1_556
Rh0 Rh4 2.779036 1_455
Rh0 Rh1 2.811773 1_445
Rh0 Rh1 2.811773 1_555
Rh1 Rh3 2.654180 1_555
Rh1 Rh2 2.683124 1_555
Rh1 Ta0 2.694933 1_555
Rh1 Ta0 2.694933 1_665
Rh1 Rh4 2.700409 1_565
Rh1 Rh4 2.700410 1_455
Rh2 Ta0 2.718280 1_665
Rh2 Ta0 2.718280 1_555
Rh2 Rh4 2.779036 1_555
Rh2 Rh3 2.811773 1_545
Rh2 Rh3 2.811773 1_655
Rh3 Ta0 2.694933 1_555
Rh3 Ta0 2.694933 1_665
Rh3 Rh4 2.700409 1_565
Rh3 Rh4 2.700410 1_455
Rh4 Ta0 2.675271 1_655
