# generated using pymatgen
data_Mg3(Al9Cr)2
_symmetry_space_group_name_H-M   'P 1'
_cell_length_a   10.17700587
_cell_length_b   10.17700929
_cell_length_c   10.17700889
_cell_angle_alpha   59.99992551
_cell_angle_beta   59.99995143
_cell_angle_gamma   60.00001292
_symmetry_Int_Tables_number   1
_chemical_formula_structural   Mg3(Al9Cr)2
_chemical_formula_sum   'Mg6 Al36 Cr4'
_cell_volume   745.32380096
_cell_formula_units_Z   2
loop_
 _symmetry_equiv_pos_site_id
 _symmetry_equiv_pos_as_xyz
  1  'x, y, z'
loop_
 _atom_site_type_symbol
 _atom_site_label
 _atom_site_symmetry_multiplicity
 _atom_site_fract_x
 _atom_site_fract_y
 _atom_site_fract_z
 _atom_site_occupancy
  Mg  Mg0  1  0.12499486  0.12499232  0.12499762  1
  Mg  Mg1  1  0.62501503  0.12499227  0.12499749  1
  Mg  Mg2  1  0.12499583  0.12499269  0.62501522  1
  Mg  Mg3  1  0.12499282  0.62501815  0.12499519  1
  Mg  Mg4  1  0.99999844  -0.00000083  0.00000170  1
  Mg  Mg5  1  0.25000074  0.24999927  0.25000037  1
  Al  Al0  1  0.45130390  0.18260564  0.45130341  1
  Al  Al1  1  0.61295436  0.88704568  0.88704562  1
  Al  Al2  1  0.88704882  0.61295653  0.61294847  1
  Al  Al3  1  0.88704726  0.61295413  0.88704185  1
  Al  Al4  1  0.36298924  0.36299395  0.63700874  1
  Al  Al5  1  0.61295534  0.61295423  0.88704320  1
  Al  Al6  1  0.45130126  0.18260660  0.91478999  1
  Al  Al7  1  0.79860046  0.79860158  0.06741285  1
  Al  Al8  1  0.06741592  0.33538090  0.79860247  1
  Al  Al9  1  0.79859996  0.33538576  0.79860183  1
  Al  Al10  1  0.33538396  0.79860419  0.06741027  1
  Al  Al11  1  0.33538463  0.79860114  0.79860205  1
  Al  Al12  1  0.06741494  0.79860116  0.79860265  1
  Al  Al13  1  0.91478885  0.18260515  0.45130213  1
  Al  Al14  1  0.18260558  0.91478792  0.45130250  1
  Al  Al15  1  0.18260577  0.45130334  0.91478813  1
  Al  Al16  1  0.45130016  0.45130173  0.91479171  1
  Al  Al17  1  0.45130121  0.91479143  0.45130127  1
  Al  Al18  1  0.91479054  0.45130161  0.18260706  1
  Al  Al19  1  0.45129765  0.45130426  0.18260849  1
  Al  Al20  1  0.63700819  0.36299198  0.63701012  1
  Al  Al21  1  0.06741648  0.79860374  0.33537871  1
  Al  Al22  1  0.79860079  0.79860328  0.33538352  1
  Al  Al23  1  0.79860087  0.33538399  0.06741400  1
  Al  Al24  1  0.79860146  0.06741080  0.33538609  1
  Al  Al25  1  0.33538624  0.06741169  0.79860226  1
  Al  Al26  1  0.79859936  0.06741179  0.79860148  1
  Al  Al27  1  0.91478977  0.45130191  0.45130108  1
  Al  Al28  1  0.18260817  0.45130282  0.45130155  1
  Al  Al29  1  0.45129984  0.91479330  0.18260696  1
  Al  Al30  1  0.88704750  0.88704285  0.61295507  1
  Al  Al31  1  0.63700968  0.36298908  0.36299208  1
  Al  Al32  1  0.36299042  0.63700909  0.63700953  1
  Al  Al33  1  0.63700959  0.63700973  0.36299320  1
  Al  Al34  1  0.36298334  0.63701071  0.36299249  1
  Al  Al35  1  0.61295412  0.88704338  0.61295540  1
  Cr  Cr0  1  0.62499941  0.62499551  0.62500078  1
  Cr  Cr1  1  0.12500777  0.62499500  0.62499697  1
  Cr  Cr2  1  0.62500447  0.62499727  0.12499792  1
  Cr  Cr3  1  0.62499501  0.12501429  0.62499649  1
loop_
_geom_bond_atom_site_label_1
_geom_bond_atom_site_label_2
_geom_bond_distance
_geom_bond_site_symmetry_2
Mg0 Mg4 3.115940 1_455
Mg0 Mg5 3.116190 1_555
Mg1 Mg4 3.115921 1_555
Mg1 Mg5 3.116177 1_555
Mg2 Mg4 3.115945 1_456
Mg2 Mg5 3.116180 1_555
Mg3 Mg4 3.115901 1_465
Mg3 Mg5 3.116216 1_555
Al0 Al35 2.696318 1_545
Al0 Al17 2.725572 1_545
Al0 Al19 2.734526 1_555
Al0 Al28 2.734526 1_555
Al0 Cr3 2.765026 1_555
Al0 Al31 2.805461 1_555
Al0 Al4 2.805489 1_555
Al0 Al24 2.885870 1_555
Al0 Al25 2.885879 1_555
Al0 Mg1 3.088163 1_555
Al0 Mg2 3.088178 1_555
Al0 Mg5 3.201759 1_555
Al1 Cr2 2.550155 1_556
Al1 Cr3 2.550234 1_565
Al1 Al6 2.696324 1_565
Al1 Al29 2.696338 1_556
Al1 Al35 2.789432 1_555
Al1 Al30 2.789433 1_555
Al1 Al5 2.789439 1_555
Al1 Al3 2.789439 1_555
Al1 Al26 2.804330 1_565
Al1 Al25 2.804337 1_565
Al1 Al10 2.804345 1_556
Al1 Al7 2.804351 1_556
Al2 Cr1 2.550174 1_655
Al2 Cr0 2.550189 1_555
Al2 Al28 2.696298 1_655
Al2 Al27 2.696313 1_555
Al2 Al30 2.789406 1_555
Al2 Al35 2.789424 1_555
Al2 Al3 2.789431 1_555
Al2 Al5 2.789456 1_555
Al2 Al22 2.804333 1_555
Al2 Al21 2.804357 1_655
Al2 Al9 2.804385 1_555
Al2 Al8 2.804412 1_655
Al3 Cr2 2.550142 1_556
Al3 Cr1 2.550174 1_655
Al3 Al30 2.789390 1_555
Al3 Al5 2.789428 1_555
Al3 Al8 2.804362 1_655
Al3 Al7 2.804386 1_556
Al4 Cr1 2.550028 1_555
Al4 Cr3 2.550046 1_555
Al4 Al8 2.695952 1_555
Al4 Al6 2.805493 1_555
Al5 Cr0 2.550146 1_555
Al5 Cr2 2.550161 1_556
Al5 Al9 2.804332 1_555
Al6 Cr3 2.765035 1_555
Al6 Mg0 3.088168 1_556
Al6 Mg1 3.088176 1_556
Al6 Mg5 3.201735 1_556
Al7 Cr2 2.763455 1_555
Al7 Mg1 3.088876 1_565
Al7 Mg3 3.088880 1_655
Al7 Mg4 3.203325 1_565
Al8 Al9 2.735720 1_455
Al8 Cr1 2.763474 1_555
Al8 Mg0 3.088887 1_556
Al8 Mg2 3.088897 1_555
Al8 Mg4 3.203328 1_456
Al9 Cr0 2.763437 1_555
Al9 Mg1 3.088907 1_556
Al9 Mg2 3.088917 1_655
Al9 Mg4 3.203347 1_556
Al10 Al34 2.695981 1_555
Al10 Al21 2.727110 1_555
Al10 Al25 2.735656 1_564
Al10 Al11 2.735676 1_554
Al10 Cr2 2.763513 1_555
Al10 Al5 2.804377 1_554
Al10 Al19 2.885890 1_555
Al10 Al29 2.885906 1_555
Al10 Mg0 3.088864 1_565
Al10 Mg3 3.088888 1_555
Al10 Mg4 3.203325 1_465
Al11 Al32 2.695977 1_555
Al11 Al12 2.727126 1_555
Al11 Al25 2.735697 1_565
Al11 Cr0 2.763483 1_555
Al11 Al35 2.804341 1_555
Al11 Al5 2.804349 1_555
Al11 Al16 2.885886 1_555
Al11 Al17 2.885895 1_555
Al11 Mg2 3.088878 1_565
Al11 Mg3 3.088880 1_556
Al11 Mg4 3.203343 1_466
Al12 Al32 2.695961 1_555
Al12 Al7 2.735703 1_456
Al12 Al26 2.735714 1_465
Al12 Cr1 2.763524 1_555
Al12 Al30 2.804374 1_455
Al12 Al3 2.804378 1_455
Al12 Al15 2.885873 1_555
Al12 Al14 2.885890 1_555
Al12 Mg3 3.088861 1_556
Al12 Mg2 3.088862 1_565
Al12 Mg4 3.203318 1_466
Al13 Al30 2.696322 1_545
Al13 Al14 2.725576 1_645
Al13 Al18 2.734516 1_555
Al13 Al27 2.734529 1_555
Al13 Cr3 2.765029 1_555
Al13 Al31 2.805467 1_555
Al13 Al20 2.805500 1_555
Al13 Al24 2.885874 1_555
Al13 Al26 2.885883 1_555
Al13 Mg0 3.088148 1_655
Al13 Mg2 3.088174 1_655
Al13 Mg5 3.201752 1_655
Al14 Al30 2.696298 1_455
Al14 Al29 2.734508 1_555
Al14 Al17 2.734529 1_555
Al14 Cr1 2.765052 1_555
Al14 Al34 2.805452 1_555
Al14 Al32 2.805478 1_555
Al14 Al21 2.885868 1_555
Al14 Mg0 3.088140 1_565
Al14 Mg2 3.088164 1_565
Al14 Mg5 3.201752 1_565
Al15 Al3 2.696309 1_455
Al15 Al18 2.725574 1_456
Al15 Al16 2.734514 1_555
Al15 Al6 2.734523 1_555
Al15 Cr1 2.765038 1_555
Al15 Al4 2.805465 1_555
Al15 Al32 2.805467 1_555
Al15 Al8 2.885875 1_555
Al15 Mg3 3.088188 1_556
Al15 Mg0 3.088195 1_556
Al15 Mg5 3.201760 1_556
Al16 Al5 2.696322 1_555
Al16 Al19 2.725574 1_556
Al16 Al6 2.734516 1_555
Al16 Cr0 2.765052 1_555
Al16 Al20 2.805486 1_555
Al16 Al32 2.805490 1_555
Al16 Al9 2.885889 1_555
Al16 Mg3 3.088169 1_556
Al16 Mg1 3.088182 1_556
Al16 Mg5 3.201719 1_556
Al17 Al35 2.696320 1_555
Al17 Al29 2.734502 1_555
Al17 Cr0 2.765096 1_555
Al17 Al33 2.805480 1_555
Al17 Al32 2.805495 1_555
Al17 Al22 2.885887 1_555
Al17 Mg1 3.088127 1_565
Al17 Mg2 3.088141 1_565
Al17 Mg5 3.201716 1_565
Al18 Al3 2.696355 1_554
Al18 Al27 2.734499 1_555
Al18 Cr2 2.765043 1_555
Al18 Al31 2.805491 1_555
Al18 Al33 2.805499 1_555
Al18 Al7 2.885891 1_555
Al18 Al23 2.885895 1_555
Al18 Mg3 3.088161 1_655
Al18 Mg0 3.088175 1_655
Al18 Mg5 3.201737 1_655
Al19 Al5 2.696351 1_554
Al19 Al28 2.734471 1_555
Al19 Cr2 2.765076 1_555
Al19 Al34 2.805464 1_555
Al19 Al31 2.805504 1_555
Al19 Al23 2.885917 1_555
Al19 Mg3 3.088151 1_555
Al19 Mg1 3.088205 1_555
Al19 Mg5 3.201728 1_555
Al20 Cr3 2.550030 1_555
Al20 Cr0 2.550060 1_555
Al20 Al9 2.695965 1_555
Al20 Al26 2.695975 1_555
Al20 Al33 2.788674 1_555
Al20 Al32 2.788678 1_555
Al20 Al4 2.788689 1_555
Al20 Al31 2.788691 1_555
Al20 Al6 2.805481 1_555
Al20 Al27 2.805484 1_555
Al21 Al34 2.695900 1_555
Al21 Al24 2.735693 1_465
Al21 Al22 2.735717 1_455
Al21 Cr1 2.763508 1_555
Al21 Al30 2.804386 1_455
Al21 Al28 2.885898 1_555
Al21 Mg0 3.088824 1_565
Al21 Mg3 3.088857 1_555
Al21 Mg4 3.203290 1_465
Al22 Al33 2.695957 1_555
Al22 Al7 2.727150 1_555
Al22 Al24 2.735673 1_565
Al22 Cr0 2.763500 1_555
Al22 Al35 2.804353 1_555
Al22 Al27 2.885902 1_555
Al22 Mg1 3.088849 1_565
Al22 Mg3 3.088872 1_655
Al22 Mg4 3.203302 1_565
Al23 Al31 2.695967 1_555
Al23 Al24 2.727157 1_555
Al23 Al9 2.735699 1_554
Al23 Al8 2.735713 1_654
Al23 Cr2 2.763436 1_555
Al23 Al3 2.804367 1_554
Al23 Al5 2.804368 1_554
Al23 Mg1 3.088898 1_555
Al23 Mg0 3.088899 1_655
Al23 Mg4 3.203336 1_555
Al24 Al31 2.695973 1_555
Al24 Cr3 2.763494 1_555
Al24 Al35 2.804354 1_545
Al24 Al30 2.804357 1_545
Al24 Mg0 3.088881 1_655
Al24 Mg1 3.088886 1_555
Al24 Mg4 3.203328 1_555
Al25 Al4 2.695994 1_555
Al25 Al8 2.727131 1_555
Al25 Cr3 2.763474 1_555
Al25 Al35 2.804356 1_545
Al25 Al6 2.885873 1_555
Al25 Mg0 3.088898 1_556
Al25 Mg2 3.088909 1_555
Al25 Mg4 3.203359 1_456
Al26 Al9 2.727178 1_555
Al26 Al7 2.735687 1_546
Al26 Cr3 2.763459 1_555
Al26 Al30 2.804355 1_545
Al26 Al6 2.885875 1_555
Al26 Mg1 3.088904 1_556
Al26 Mg2 3.088907 1_655
Al26 Mg4 3.203353 1_556
Al27 Al28 2.725596 1_655
Al27 Cr0 2.765054 1_555
Al27 Al33 2.805465 1_555
Al27 Al9 2.885895 1_555
Al27 Mg3 3.088156 1_655
Al27 Mg2 3.088180 1_655
Al27 Mg5 3.201740 1_655
Al28 Cr1 2.765017 1_555
Al28 Al34 2.805417 1_555
Al28 Al4 2.805463 1_555
Al28 Al8 2.885897 1_555
Al28 Mg3 3.088172 1_555
Al28 Mg2 3.088193 1_555
Al28 Mg5 3.201752 1_555
Al29 Al6 2.725554 1_564
Al29 Cr2 2.765131 1_555
Al29 Al33 2.805515 1_555
Al29 Al34 2.805526 1_555
Al29 Al7 2.885896 1_555
Al29 Mg1 3.088131 1_565
Al29 Mg0 3.088134 1_565
Al29 Mg5 3.201702 1_565
Al30 Cr1 2.550192 1_655
Al30 Cr3 2.550269 1_565
Al30 Al35 2.789446 1_555
Al31 Cr3 2.550013 1_555
Al31 Cr2 2.550124 1_555
Al31 Al4 2.788687 1_555
Al31 Al33 2.788716 1_555
Al31 Al34 2.788745 1_555
Al32 Cr1 2.550079 1_555
Al32 Cr0 2.550095 1_555
Al32 Al4 2.788665 1_555
Al32 Al33 2.788679 1_555
Al32 Al34 2.788702 1_555
Al33 Cr0 2.550072 1_555
Al33 Cr2 2.550158 1_555
Al33 Al7 2.695974 1_555
Al33 Al34 2.788765 1_555
Al34 Cr1 2.550018 1_555
Al34 Cr2 2.550198 1_555
Al34 Al4 2.788665 1_555
Al35 Cr0 2.550177 1_555
Al35 Cr3 2.550268 1_565
Al35 Al5 2.789398 1_555
