# generated using pymatgen
data_Lu16Al4RuRh3
_symmetry_space_group_name_H-M   'P 1'
_cell_length_a   9.27621064
_cell_length_b   9.27621120
_cell_length_c   9.27621228
_cell_angle_alpha   59.84406101
_cell_angle_beta   59.84405316
_cell_angle_gamma   59.84405490
_symmetry_Int_Tables_number   1
_chemical_formula_structural   Lu16Al4RuRh3
_chemical_formula_sum   'Lu16 Al4 Ru1 Rh3'
_cell_volume   562.41536768
_cell_formula_units_Z   1
loop_
 _symmetry_equiv_pos_site_id
 _symmetry_equiv_pos_as_xyz
  1  'x, y, z'
loop_
 _atom_site_type_symbol
 _atom_site_label
 _atom_site_symmetry_multiplicity
 _atom_site_fract_x
 _atom_site_fract_y
 _atom_site_fract_z
 _atom_site_occupancy
  Lu  Lu0  1  0.60295443  0.60295443  0.60295443  1
  Lu  Lu1  1  0.60100739  0.60100739  0.19529475  1
  Lu  Lu2  1  0.60100739  0.19529475  0.60100739  1
  Lu  Lu3  1  0.19529475  0.60100739  0.60100739  1
  Lu  Lu4  1  0.05785222  0.44360065  0.44360065  1
  Lu  Lu5  1  0.44344027  0.05588178  0.05588178  1
  Lu  Lu6  1  0.44360065  0.05785222  0.44360065  1
  Lu  Lu7  1  0.05588178  0.44344027  0.05588178  1
  Lu  Lu8  1  0.44360065  0.44360065  0.05785222  1
  Lu  Lu9  1  0.05588178  0.05588178  0.44344027  1
  Lu  Lu10  1  0.18696309  0.81235014  0.81235014  1
  Lu  Lu11  1  0.80941313  0.18823269  0.18823269  1
  Lu  Lu12  1  0.81235014  0.18696309  0.81235014  1
  Lu  Lu13  1  0.18823269  0.80941313  0.18823269  1
  Lu  Lu14  1  0.81235014  0.81235014  0.18696309  1
  Lu  Lu15  1  0.18823269  0.18823269  0.80941313  1
  Al  Al0  1  0.82808227  0.82808227  0.82808227  1
  Al  Al1  1  0.82850044  0.82850044  0.51522055  1
  Al  Al2  1  0.82850044  0.51522055  0.82850044  1
  Al  Al3  1  0.51522055  0.82850044  0.82850044  1
  Ru  Ru0  1  0.39166961  0.39166961  0.39166961  1
  Rh  Rh0  1  0.39278213  0.39278213  0.82439523  1
  Rh  Rh1  1  0.39278213  0.82439523  0.39278213  1
  Rh  Rh2  1  0.82439523  0.39278213  0.39278213  1
loop_
_geom_bond_atom_site_label_1
_geom_bond_atom_site_label_2
_geom_bond_distance
_geom_bond_site_symmetry_2
Lu0 Rh2 2.755540 1_555
Lu0 Rh0 2.755540 1_555
Lu0 Rh1 2.755541 1_555
Lu1 Ru0 2.746006 1_555
Lu1 Rh1 2.760130 1_555
Lu1 Rh2 2.760130 1_555
Lu2 Ru0 2.746006 1_555
Lu2 Rh2 2.760130 1_555
Lu2 Rh0 2.760130 1_555
Lu3 Ru0 2.746006 1_555
Lu3 Rh1 2.760130 1_555
Lu3 Rh0 2.760130 1_555
Lu4 Ru0 2.699727 1_555
Lu4 Rh2 2.721924 1_455
Lu5 Rh0 2.719270 1_554
Lu5 Rh1 2.719270 1_545
Lu6 Ru0 2.699728 1_555
Lu6 Rh1 2.721925 1_545
Lu7 Rh0 2.719269 1_554
Lu7 Rh2 2.719269 1_455
Lu8 Ru0 2.699728 1_555
Lu8 Rh0 2.721925 1_554
Lu9 Rh1 2.719269 1_545
Lu9 Rh2 2.719269 1_455
Lu10 Rh0 3.334217 1_555
Lu10 Rh1 3.334218 1_555
Lu11 Ru0 3.319987 1_555
Lu11 Rh2 3.371504 1_555
Lu12 Rh0 3.334217 1_555
Lu12 Rh2 3.334218 1_555
Lu13 Ru0 3.319987 1_555
Lu13 Rh1 3.371504 1_555
Lu14 Rh1 3.334217 1_555
Lu14 Rh2 3.334218 1_555
Lu15 Ru0 3.319987 1_555
Lu15 Rh0 3.371504 1_555
Al0 Al3 2.898279 1_555
Al0 Al2 2.898279 1_555
Al0 Al1 2.898280 1_555
Al0 Lu10 3.189101 1_655
Al0 Lu12 3.189102 1_565
Al0 Lu14 3.189102 1_556
Al0 Lu3 3.242986 1_655
Al0 Lu1 3.242986 1_556
Al0 Lu2 3.242986 1_565
Al0 Lu5 3.316213 1_566
Al0 Lu9 3.316213 1_665
Al0 Lu7 3.316213 1_656
Al1 Al3 2.899198 1_555
Al1 Al2 2.899198 1_555
Al1 Lu13 3.184897 1_655
Al1 Lu11 3.184898 1_565
Al1 Lu14 3.202504 1_555
Al1 Lu0 3.223899 1_555
Al1 Lu3 3.237661 1_655
Al1 Lu2 3.237661 1_565
Al1 Lu9 3.314945 1_665
Al1 Lu6 3.323668 1_565
Al1 Lu4 3.323668 1_655
Al2 Al3 2.899198 1_555
Al2 Lu15 3.184897 1_655
Al2 Lu11 3.184898 1_556
Al2 Lu12 3.202504 1_555
Al2 Lu0 3.223899 1_555
Al2 Lu3 3.237661 1_655
Al2 Lu1 3.237661 1_556
Al2 Lu7 3.314945 1_656
Al2 Lu8 3.323668 1_556
Al2 Lu4 3.323668 1_655
Al3 Lu15 3.184897 1_565
Al3 Lu13 3.184897 1_556
Al3 Lu10 3.202504 1_555
Al3 Lu0 3.223899 1_555
Al3 Lu2 3.237661 1_565
Al3 Lu1 3.237662 1_556
Al3 Lu5 3.314945 1_566
Al3 Lu8 3.323668 1_556
Al3 Lu6 3.323669 1_565
