# generated using pymatgen
data_Ti6PdPtN2
_symmetry_space_group_name_H-M   'P 1'
_cell_length_a   5.80629510
_cell_length_b   5.80629507
_cell_length_c   5.80629517
_cell_angle_alpha   120.72208556
_cell_angle_beta   120.72208127
_cell_angle_gamma   88.75379711
_symmetry_Int_Tables_number   1
_chemical_formula_structural   Ti6PdPtN2
_chemical_formula_sum   'Ti6 Pd1 Pt1 N2'
_cell_volume   136.86891894
_cell_formula_units_Z   1
loop_
 _symmetry_equiv_pos_site_id
 _symmetry_equiv_pos_as_xyz
  1  'x, y, z'
loop_
 _atom_site_type_symbol
 _atom_site_label
 _atom_site_symmetry_multiplicity
 _atom_site_fract_x
 _atom_site_fract_y
 _atom_site_fract_z
 _atom_site_occupancy
  Ti  Ti0  1  0.20669569  0.70669569  0.91623867  1
  Ti  Ti1  1  0.70954298  0.79330431  0.50000000  1
  Ti  Ti2  1  0.25000000  0.25000000  0.00000000  1
  Ti  Ti3  1  0.29330431  0.20954298  0.50000000  1
  Ti  Ti4  1  0.79045702  0.29045702  0.08376133  1
  Ti  Ti5  1  0.75000000  0.75000000  0.00000000  1
  Pd  Pd0  1  0.25000000  0.75000000  0.50000000  1
  Pt  Pt0  1  0.75000000  0.25000000  0.50000000  1
  N  N0  1  0.50000000  0.50000000  0.00000000  1
  N  N1  1  0.00000000  0.00000000  0.00000000  1
loop_
_geom_bond_atom_site_label_1
_geom_bond_atom_site_label_2
_geom_bond_distance
_geom_bond_site_symmetry_2
Pd0 Ti3 2.685502 1_565
Pd0 Ti1 2.685502 1_555
Pd0 Ti0 2.685502 1_555
Pd0 Ti4 2.685502 1_455
Pd0 Ti2 2.871404 1_555
Pd0 Ti2 2.871404 1_566
Pd0 Ti5 2.871404 1_455
Pd0 Ti5 2.871404 1_556
Pd0 Ti3 3.142654 1_555
Pd0 Ti1 3.142654 1_455
Pd0 Ti0 3.142654 1_554
Pd0 Ti4 3.142655 1_566
Pt0 Ti1 2.667178 1_545
Pt0 Ti3 2.667178 1_555
Pt0 Ti4 2.667178 1_555
Pt0 Ti0 2.667179 1_655
Pt0 Ti5 2.871404 1_545
Pt0 Ti5 2.871404 1_556
Pt0 Ti2 2.871404 1_656
Pt0 Ti2 2.871404 1_555
Pt0 Ti1 3.158220 1_555
Pt0 Ti3 3.158220 1_655
Pt0 Ti4 3.158220 1_556
Pt0 Ti0 3.158220 1_544
N0 Ti4 2.058716 1_555
N0 Ti0 2.058716 1_554
N0 Ti3 2.058717 1_554
N0 Ti1 2.058717 1_555
N0 Ti5 2.075038 1_555
N0 Ti2 2.075038 1_555
N1 Ti4 2.058716 1_455
N1 Ti0 2.058716 1_544
N1 Ti1 2.058717 1_444
N1 Ti3 2.058717 1_555
N1 Ti5 2.075038 1_445
N1 Ti2 2.075038 1_555
