# generated using pymatgen
data_MgAl(Ni7B2)3
_symmetry_space_group_name_H-M   'P 1'
_cell_length_a   7.34452664
_cell_length_b   7.34452712
_cell_length_c   7.34452703
_cell_angle_alpha   60.00000040
_cell_angle_beta   59.99999824
_cell_angle_gamma   59.99999591
_symmetry_Int_Tables_number   1
_chemical_formula_structural   MgAl(Ni7B2)3
_chemical_formula_sum   'Mg1 Al1 Ni21 B6'
_cell_volume   280.14086564
_cell_formula_units_Z   1
loop_
 _symmetry_equiv_pos_site_id
 _symmetry_equiv_pos_as_xyz
  1  'x, y, z'
loop_
 _atom_site_type_symbol
 _atom_site_label
 _atom_site_symmetry_multiplicity
 _atom_site_fract_x
 _atom_site_fract_y
 _atom_site_fract_z
 _atom_site_occupancy
  Mg  Mg0  1  0.25000000  0.25000000  0.25000000  1
  Al  Al0  1  0.75000000  0.75000000  0.75000000  1
  Ni  Ni0  1  0.38654286  0.38654286  0.38654286  1
  Ni  Ni1  1  0.61897999  0.61897999  0.61897999  1
  Ni  Ni2  1  0.38654286  0.38654286  0.84037043  1
  Ni  Ni3  1  0.38654286  0.84037043  0.38654286  1
  Ni  Ni4  1  0.61897999  0.61897999  0.14306203  1
  Ni  Ni5  1  0.61897999  0.14306203  0.61897999  1
  Ni  Ni6  1  0.84037043  0.38654286  0.38654286  1
  Ni  Ni7  1  0.14306203  0.61897999  0.61897999  1
  Ni  Ni8  1  0.33804222  0.99968071  0.99968071  1
  Ni  Ni9  1  0.66259535  0.99968071  0.99968071  1
  Ni  Ni10  1  0.99968071  0.33804222  0.66259535  1
  Ni  Ni11  1  0.99968071  0.66259535  0.33804222  1
  Ni  Ni12  1  0.99968071  0.33804222  0.99968071  1
  Ni  Ni13  1  0.66259535  0.99968071  0.33804222  1
  Ni  Ni14  1  0.99968071  0.66259535  0.99968071  1
  Ni  Ni15  1  0.33804222  0.99968071  0.66259535  1
  Ni  Ni16  1  0.99968071  0.99968071  0.33804222  1
  Ni  Ni17  1  0.99968071  0.99968071  0.66259535  1
  Ni  Ni18  1  0.66259535  0.33804222  0.99968071  1
  Ni  Ni19  1  0.33804222  0.66259535  0.99968071  1
  Ni  Ni20  1  0.00000000  0.00000000  0.00000000  1
  B  B0  1  0.72705652  0.27294348  0.27294348  1
  B  B1  1  0.27294348  0.72705652  0.72705652  1
  B  B2  1  0.27294348  0.72705652  0.27294348  1
  B  B3  1  0.72705652  0.27294348  0.72705652  1
  B  B4  1  0.27294348  0.27294348  0.72705652  1
  B  B5  1  0.72705652  0.72705652  0.27294348  1
loop_
_geom_bond_atom_site_label_1
_geom_bond_atom_site_label_2
_geom_bond_distance
_geom_bond_site_symmetry_2
Mg0 Ni0 2.456453 1_555
Mg0 Ni6 2.456459 1_455
Mg0 Ni3 2.456459 1_545
Mg0 Ni2 2.456459 1_554
Mg0 Ni13 2.860150 1_545
Mg0 Ni18 2.860150 1_554
Mg0 Ni11 2.860150 1_455
Mg0 Ni10 2.860150 1_455
Mg0 Ni15 2.860150 1_545
Mg0 Ni19 2.860150 1_554
Mg0 Ni9 2.860153 1_544
Mg0 Ni14 2.860153 1_454
Mg0 Ni17 2.860154 1_445
Mg0 Ni12 2.860157 1_454
Mg0 Ni8 2.860157 1_544
Mg0 Ni16 2.860157 1_445
Al0 Ni1 2.357095 1_555
Al0 Ni7 2.357107 1_655
Al0 Ni5 2.357107 1_565
Al0 Ni4 2.357107 1_556
Ni10 Ni20 2.480421 1_656
Ni11 Ni20 2.480421 1_665
Ni12 Ni20 2.480417 1_656
Ni13 Ni20 2.480421 1_665
Ni14 Ni20 2.480425 1_666
Ni15 Ni20 2.480421 1_566
Ni16 Ni20 2.480417 1_665
Ni17 Ni20 2.480425 1_666
Ni18 Ni20 2.480421 1_656
Ni19 Ni20 2.480421 1_566
Ni20 Ni8 2.480417 1_544
Ni20 Ni9 2.480425 1_444
B0 Ni6 2.041980 1_555
B0 Ni0 2.041986 1_555
B0 Ni16 2.060329 1_545
B0 Ni12 2.060329 1_554
B0 Ni18 2.060334 1_554
B0 Ni13 2.060334 1_545
B0 Ni4 2.077164 1_555
B0 Ni5 2.077164 1_555
B1 Ni2 2.041986 1_555
B1 Ni3 2.041986 1_555
B1 Ni19 2.060327 1_555
B1 Ni15 2.060327 1_555
B1 Ni17 2.060331 1_455
B1 Ni14 2.060331 1_455
B1 Ni7 2.077152 1_555
B1 Ni1 2.077164 1_555
B2 Ni3 2.041980 1_555
B2 Ni0 2.041986 1_555
B2 Ni16 2.060329 1_455
B2 Ni8 2.060329 1_554
B2 Ni11 2.060334 1_455
B2 Ni19 2.060334 1_554
B2 Ni4 2.077164 1_555
B2 Ni7 2.077164 1_555
B3 Ni2 2.041986 1_555
B3 Ni6 2.041986 1_555
B3 Ni10 2.060327 1_555
B3 Ni18 2.060327 1_555
B3 Ni17 2.060331 1_545
B3 Ni9 2.060331 1_545
B3 Ni5 2.077152 1_555
B3 Ni1 2.077164 1_555
B4 Ni2 2.041980 1_555
B4 Ni0 2.041986 1_555
B4 Ni12 2.060329 1_455
B4 Ni8 2.060329 1_545
B4 Ni10 2.060334 1_455
B4 Ni15 2.060334 1_545
B4 Ni5 2.077164 1_555
B4 Ni7 2.077164 1_555
B5 Ni3 2.041986 1_555
B5 Ni6 2.041986 1_555
B5 Ni11 2.060326 1_555
B5 Ni13 2.060327 1_555
B5 Ni14 2.060331 1_554
B5 Ni9 2.060331 1_554
B5 Ni4 2.077152 1_555
B5 Ni1 2.077164 1_555
