# generated using pymatgen
data_Sr4CuTc3H20
_symmetry_space_group_name_H-M   'P 1'
_cell_length_a   4.67295313
_cell_length_b   5.03347304
_cell_length_c   12.02588983
_cell_angle_alpha   90.08974626
_cell_angle_beta   89.67601571
_cell_angle_gamma   89.98990141
_symmetry_Int_Tables_number   1
_chemical_formula_structural   Sr4CuTc3H20
_chemical_formula_sum   'Sr4 Cu1 Tc3 H20'
_cell_volume   282.85828867
_cell_formula_units_Z   1
loop_
 _symmetry_equiv_pos_site_id
 _symmetry_equiv_pos_as_xyz
  1  'x, y, z'
loop_
 _atom_site_type_symbol
 _atom_site_label
 _atom_site_symmetry_multiplicity
 _atom_site_fract_x
 _atom_site_fract_y
 _atom_site_fract_z
 _atom_site_occupancy
  Sr  Sr0  1  0.24781516  0.24905927  0.65445016  1
  Sr  Sr1  1  0.75157933  0.25168133  0.36237611  1
  Sr  Sr2  1  0.24984778  0.75034661  0.15951391  1
  Sr  Sr3  1  0.72216934  0.74795452  0.86138370  1
  Cu  Cu0  1  0.74467562  0.74737830  0.59177431  1
  Tc  Tc0  1  0.24406241  0.24875249  0.94402267  1
  Tc  Tc1  1  0.82837679  0.24978776  0.07825175  1
  Tc  Tc2  1  0.24914025  0.75157426  0.43562516  1
  H  H0  1  0.48821307  0.55199412  0.50868463  1
  H  H1  1  0.25102726  0.04838364  0.37361390  1
  H  H2  1  0.01001066  0.50774689  0.00252183  1
  H  H3  1  0.50986621  0.05181244  0.00547304  1
  H  H4  1  0.21085173  0.01842924  0.84164889  1
  H  H5  1  0.70042350  0.48455370  0.17170490  1
  H  H6  1  0.52689397  0.75742771  0.34671775  1
  H  H7  1  0.74537349  0.49831200  0.67759393  1
  H  H8  1  0.21821153  0.48212511  0.84260679  1
  H  H9  1  0.70008652  0.01628659  0.17189700  1
  H  H10  1  0.25134116  0.46336376  0.36578168  1
  H  H11  1  0.74684681  0.99469141  0.67873952  1
  H  H12  1  0.53504720  0.24489553  0.85604015  1
  H  H13  1  0.06670130  0.25012175  0.18206564  1
  H  H14  1  0.97340907  0.75623268  0.34675378  1
  H  H15  1  0.00803180  0.94512969  0.51140588  1
  H  H16  1  0.01011253  0.99048526  0.00267026  1
  H  H17  1  0.51130913  0.44552542  0.00539123  1
  H  H18  1  0.48829003  0.94454213  0.51173673  1
  H  H19  1  0.01028434  0.55140440  0.50955669  1
loop_
_geom_bond_atom_site_label_1
_geom_bond_atom_site_label_2
_geom_bond_distance
_geom_bond_site_symmetry_2
Cu0 H11 1.624670 1_555
Cu0 H7 1.625093 1_555
Cu0 H18 1.833672 1_555
Cu0 H0 1.847372 1_555
Cu0 H15 1.851863 1_655
Cu0 H19 1.863815 1_655
H0 Tc2 1.744329 1_555
H0 Sr0 2.578098 1_555
H0 Sr1 2.619529 1_555
H1 Tc2 1.670811 1_545
H1 Sr1 2.552572 1_455
H1 Sr1 2.556224 1_555
H2 Tc1 1.797523 1_455
H2 Tc0 1.838078 1_554
H2 Sr3 2.486689 1_454
H2 Sr2 2.515716 1_555
H3 Tc0 1.756075 1_554
H3 Tc1 1.996712 1_555
H3 Sr3 2.509542 1_544
H3 Sr2 2.682275 1_545
H4 Tc0 1.697519 1_555
H4 Sr0 2.539558 1_555
H4 Sr3 2.668440 1_445
H4 Sr3 2.761366 1_545
H5 Tc1 1.733477 1_555
H5 Sr2 2.499538 1_555
H5 Sr1 2.589097 1_555
H6 Tc2 1.677223 1_555
H6 Sr2 2.603530 1_555
H6 Sr1 2.707165 1_565
H6 Sr1 2.760621 1_555
H7 Sr3 2.542519 1_555
H7 Sr0 2.657949 1_555
H7 Sr0 2.674799 1_655
H8 Tc0 1.699418 1_555
H8 Sr0 2.550196 1_555
H8 Sr3 2.684480 1_455
H8 Sr3 2.719085 1_555
H9 Tc1 1.733721 1_555
H9 Sr2 2.498905 1_545
H9 Sr1 2.589754 1_555
H10 Tc2 1.675171 1_555
H10 Sr1 2.567627 1_455
H10 Sr1 2.568889 1_555
H11 Sr3 2.527031 1_555
H11 Sr0 2.677769 1_565
H11 Sr0 2.683172 1_665
H12 Tc0 1.718279 1_555
H12 Sr3 2.650621 1_545
H12 Sr3 2.679801 1_555
H12 Sr0 2.777800 1_555
H13 Tc1 1.677689 1_455
H13 Sr1 2.614236 1_455
H13 Sr2 2.669972 1_545
H13 Sr2 2.673189 1_555
H14 Tc2 1.678872 1_655
H14 Sr2 2.589737 1_655
H14 Sr1 2.706368 1_565
H14 Sr1 2.749519 1_555
H15 Tc2 1.741937 1_555
H15 Sr0 2.563051 1_565
H15 Sr1 2.657327 1_465
H16 Tc1 1.799462 1_465
H16 Tc0 1.837717 1_564
H16 Sr3 2.491514 1_454
H16 Sr2 2.510835 1_555
H17 Tc0 1.758921 1_554
H17 Tc1 1.987607 1_555
H17 Sr3 2.505371 1_554
H17 Sr2 2.692032 1_555
H18 Tc2 1.743348 1_555
H18 Sr0 2.554809 1_565
H18 Sr1 2.667296 1_565
H19 Tc2 1.744546 1_555
H19 Sr0 2.571740 1_555
H19 Sr1 2.624270 1_455
