# generated using pymatgen
data_Zr3Ga3W2N
_symmetry_space_group_name_H-M   'P 1'
_cell_length_a   7.82249209
_cell_length_b   7.82249225
_cell_length_c   5.36382068
_cell_angle_alpha   90.00000000
_cell_angle_beta   90.00000000
_cell_angle_gamma   120.00000347
_symmetry_Int_Tables_number   1
_chemical_formula_structural   Zr3Ga3W2N
_chemical_formula_sum   'Zr6 Ga6 W4 N2'
_cell_volume   284.24650961
_cell_formula_units_Z   2
loop_
 _symmetry_equiv_pos_site_id
 _symmetry_equiv_pos_as_xyz
  1  'x, y, z'
loop_
 _atom_site_type_symbol
 _atom_site_label
 _atom_site_symmetry_multiplicity
 _atom_site_fract_x
 _atom_site_fract_y
 _atom_site_fract_z
 _atom_site_occupancy
  Zr  Zr0  1  0.23674327  0.00000000  0.25000000  1
  Zr  Zr1  1  0.00000000  0.23674327  0.25000000  1
  Zr  Zr2  1  0.76325673  0.76325673  0.25000000  1
  Zr  Zr3  1  0.76325673  1.00000000  0.75000000  1
  Zr  Zr4  1  1.00000000  0.76325673  0.75000000  1
  Zr  Zr5  1  0.23674327  0.23674327  0.75000000  1
  Ga  Ga0  1  0.58948913  1.00000000  0.25000000  1
  Ga  Ga1  1  1.00000000  0.58948913  0.25000000  1
  Ga  Ga2  1  0.41051087  0.41051087  0.25000000  1
  Ga  Ga3  1  0.41051087  0.00000000  0.75000000  1
  Ga  Ga4  1  0.00000000  0.41051087  0.75000000  1
  Ga  Ga5  1  0.58948913  0.58948913  0.75000000  1
  W  W0  1  0.66666700  0.33333300  0.00000000  1
  W  W1  1  0.33333300  0.66666700  0.00000000  1
  W  W2  1  0.66666700  0.33333300  0.50000000  1
  W  W3  1  0.33333300  0.66666700  0.50000000  1
  N  N0  1  0.00000000  0.00000000  0.00000000  1
  N  N1  1  0.00000000  0.00000000  0.50000000  1
loop_
_geom_bond_atom_site_label_1
_geom_bond_atom_site_label_2
_geom_bond_distance
_geom_bond_site_symmetry_2
Ga0 W2 2.717989 1_565
Ga0 W0 2.717989 1_565
Ga0 W3 2.717991 1_555
Ga0 W1 2.717991 1_555
Ga0 Zr0 2.759352 1_565
Ga0 Zr1 2.791883 1_665
Ga0 Zr2 2.791883 1_555
Ga0 Zr3 3.006714 1_555
Ga0 Zr3 3.006714 1_554
Ga1 W1 2.717989 1_655
Ga1 W3 2.717989 1_655
Ga1 W2 2.717991 1_555
Ga1 W0 2.717991 1_555
Ga1 Zr1 2.759352 1_655
Ga1 Zr0 2.791883 1_665
Ga1 Zr2 2.791883 1_555
Ga1 Zr4 3.006714 1_554
Ga1 Zr4 3.006714 1_555
Ga2 W2 2.717996 1_555
Ga2 W0 2.717996 1_555
Ga2 W1 2.717996 1_555
Ga2 W3 2.717996 1_555
Ga2 Zr2 2.759352 1_555
Ga2 Zr1 2.791883 1_555
Ga2 Zr0 2.791883 1_555
Ga2 Zr5 3.006714 1_555
Ga2 Zr5 3.006714 1_554
Ga3 W1 2.717989 1_546
Ga3 W3 2.717989 1_545
Ga3 W2 2.717991 1_555
Ga3 W0 2.717991 1_556
Ga3 Zr3 2.759352 1_545
Ga3 Zr4 2.791883 1_445
Ga3 Zr5 2.791883 1_555
Ga3 Zr0 3.006714 1_555
Ga3 Zr0 3.006714 1_556
Ga4 W0 2.717989 1_456
Ga4 W2 2.717989 1_455
Ga4 W3 2.717991 1_555
Ga4 W1 2.717991 1_556
Ga4 Zr4 2.759352 1_455
Ga4 Zr3 2.791883 1_445
Ga4 Zr5 2.791883 1_555
Ga4 Zr1 3.006714 1_555
Ga4 Zr1 3.006714 1_556
Ga5 W1 2.717996 1_556
Ga5 W3 2.717996 1_555
Ga5 W2 2.717996 1_555
Ga5 W0 2.717996 1_556
Ga5 Zr5 2.759352 1_555
Ga5 Zr4 2.791883 1_555
Ga5 Zr3 2.791883 1_555
Ga5 Zr2 3.006714 1_556
Ga5 Zr2 3.006714 1_555
N0 Zr5 2.286433 1_554
N0 Zr2 2.286433 1_445
N0 Zr3 2.286433 1_444
N0 Zr0 2.286433 1_555
N0 Zr1 2.286433 1_555
N0 Zr4 2.286433 1_444
N1 Zr5 2.286433 1_555
N1 Zr2 2.286433 1_445
N1 Zr3 2.286433 1_445
N1 Zr0 2.286433 1_555
N1 Zr1 2.286433 1_555
N1 Zr4 2.286433 1_445
