# generated using pymatgen
data_Hf16TiRh7O4
_symmetry_space_group_name_H-M   'P 1'
_cell_length_a   8.72436554
_cell_length_b   8.63410521
_cell_length_c   8.63410625
_cell_angle_alpha   60.00000350
_cell_angle_beta   60.34165293
_cell_angle_gamma   60.34164718
_symmetry_Int_Tables_number   1
_chemical_formula_structural   Hf16TiRh7O4
_chemical_formula_sum   'Hf16 Ti1 Rh7 O4'
_cell_volume   462.25020134
_cell_formula_units_Z   1
loop_
 _symmetry_equiv_pos_site_id
 _symmetry_equiv_pos_as_xyz
  1  'x, y, z'
loop_
 _atom_site_type_symbol
 _atom_site_label
 _atom_site_symmetry_multiplicity
 _atom_site_fract_x
 _atom_site_fract_y
 _atom_site_fract_z
 _atom_site_occupancy
  Hf  Hf0  1  0.12903893  0.62365402  0.62365402  1
  Hf  Hf1  1  0.62676777  0.10524095  0.63399614  1
  Hf  Hf2  1  0.62676777  0.63399614  0.10524095  1
  Hf  Hf3  1  0.62676777  0.63399614  0.63399614  1
  Hf  Hf4  1  0.81395643  0.81098075  0.18753091  1
  Hf  Hf5  1  0.18406244  0.18736017  0.81428869  1
  Hf  Hf6  1  0.81395643  0.18753091  0.81098075  1
  Hf  Hf7  1  0.18406244  0.81428869  0.18736017  1
  Hf  Hf8  1  0.18406244  0.81428869  0.81428869  1
  Hf  Hf9  1  0.81395643  0.18753091  0.18753091  1
  Hf  Hf10  1  0.43226500  0.43385100  0.06694200  1
  Hf  Hf11  1  0.05706922  0.07260560  0.43516259  1
  Hf  Hf12  1  0.43226500  0.06694200  0.43385100  1
  Hf  Hf13  1  0.05706922  0.43516259  0.07260560  1
  Hf  Hf14  1  0.05706922  0.43516259  0.43516259  1
  Hf  Hf15  1  0.43226500  0.06694200  0.06694200  1
  Ti  Ti0  1  0.74496476  0.41834441  0.41834441  1
  Rh  Rh0  1  0.41768504  0.76846012  0.40692642  1
  Rh  Rh1  1  0.41768504  0.40692642  0.76846012  1
  Rh  Rh2  1  0.41768504  0.40692642  0.40692642  1
  Rh  Rh3  1  0.45834319  0.84721960  0.84721960  1
  Rh  Rh4  1  0.85440132  0.46280076  0.84139946  1
  Rh  Rh5  1  0.85440132  0.84139946  0.46280076  1
  Rh  Rh6  1  0.85440132  0.84139946  0.84139946  1
  O  O0  1  0.61891920  0.12702727  0.12702727  1
  O  O1  1  0.13003608  0.62302928  0.12346732  1
  O  O2  1  0.13003608  0.12346732  0.62302928  1
  O  O3  1  0.13003608  0.12346732  0.12346732  1
loop_
_geom_bond_atom_site_label_1
_geom_bond_atom_site_label_2
_geom_bond_distance
_geom_bond_site_symmetry_2
Hf0 Rh5 2.725536 1_455
Hf0 Rh6 2.725536 1_455
Hf0 Rh4 2.725536 1_455
Hf0 Rh1 2.742113 1_555
Hf0 Rh0 2.742113 1_555
Hf0 Rh2 2.742128 1_555
Hf1 Rh3 2.640557 1_545
Hf1 Rh5 2.702430 1_545
Hf1 Rh6 2.702430 1_545
Hf1 Ti0 2.768316 1_555
Hf1 Rh1 2.772389 1_555
Hf1 Rh2 2.772404 1_555
Hf2 Rh3 2.640557 1_554
Hf2 Rh4 2.702430 1_554
Hf2 Rh6 2.702430 1_554
Hf2 Ti0 2.768316 1_555
Hf2 Rh0 2.772389 1_555
Hf2 Rh2 2.772404 1_555
Hf3 Rh3 2.640563 1_555
Hf3 Rh4 2.702430 1_555
Hf3 Rh5 2.702430 1_555
Hf3 Ti0 2.768337 1_555
Hf3 Rh1 2.772410 1_555
Hf3 Rh0 2.772410 1_555
Hf4 O0 2.339552 1_565
Hf4 O1 2.345872 1_655
Hf4 Rh6 2.718093 1_554
Hf4 Rh5 2.718110 1_555
Hf4 Rh0 3.123285 1_555
Hf4 Ti0 3.146853 1_555
Hf5 O2 2.278614 1_555
Hf5 O3 2.278614 1_556
Hf5 Rh4 2.665283 1_455
Hf5 Rh3 2.704671 1_545
Hf5 Rh1 3.190683 1_555
Hf5 Rh2 3.190692 1_555
Hf6 O0 2.339552 1_556
Hf6 O2 2.345872 1_655
Hf6 Rh6 2.718093 1_545
Hf6 Rh4 2.718110 1_555
Hf6 Rh1 3.123285 1_555
Hf6 Ti0 3.146853 1_555
Hf7 O3 2.278614 1_565
Hf7 O1 2.278614 1_555
Hf7 Rh5 2.665283 1_455
Hf7 Rh3 2.704671 1_554
Hf7 Rh0 3.190683 1_555
Hf7 Rh2 3.190691 1_555
Hf8 O2 2.278614 1_565
Hf8 O1 2.278614 1_556
Hf8 Rh6 2.665280 1_455
Hf8 Rh3 2.704681 1_555
Hf8 Rh1 3.190697 1_555
Hf8 Rh0 3.190698 1_555
Hf9 O0 2.339540 1_555
Hf9 O3 2.345874 1_655
Hf9 Rh5 2.718100 1_545
Hf9 Rh4 2.718100 1_554
Hf9 Rh2 3.123282 1_555
Hf9 Ti0 3.146845 1_555
Hf10 O1 2.262732 1_555
Hf10 O0 2.265243 1_555
Hf10 Rh2 2.768481 1_555
Hf10 Rh1 2.768498 1_554
Hf11 O2 2.289119 1_555
Hf11 O3 2.289119 1_555
Hf11 Ti0 2.874033 1_455
Hf11 Rh0 2.925478 1_545
Hf12 O2 2.262733 1_555
Hf12 O0 2.265243 1_555
Hf12 Rh2 2.768480 1_555
Hf12 Rh0 2.768498 1_545
Hf13 O3 2.289119 1_555
Hf13 O1 2.289119 1_555
Hf13 Ti0 2.874034 1_455
Hf13 Rh1 2.925478 1_554
Hf14 O2 2.289119 1_555
Hf14 O1 2.289119 1_555
Hf14 Ti0 2.874043 1_455
Hf14 Rh2 2.925471 1_555
Hf15 O3 2.262733 1_555
Hf15 O0 2.265249 1_555
Hf15 Rh1 2.768488 1_554
Hf15 Rh0 2.768488 1_545
Rh0 Ti0 2.956195 1_555
Rh1 Ti0 2.956196 1_555
Rh2 Ti0 2.956196 1_555
