# generated using pymatgen
data_VS2IO8
_symmetry_space_group_name_H-M   'P 1'
_cell_length_a   4.85279789
_cell_length_b   4.92282232
_cell_length_c   9.58160557
_cell_angle_alpha   99.77956710
_cell_angle_beta   111.40825634
_cell_angle_gamma   59.76637716
_symmetry_Int_Tables_number   1
_chemical_formula_structural   VS2IO8
_chemical_formula_sum   'V1 S2 I1 O8'
_cell_volume   184.09164624
_cell_formula_units_Z   1
loop_
 _symmetry_equiv_pos_site_id
 _symmetry_equiv_pos_as_xyz
  1  'x, y, z'
loop_
 _atom_site_type_symbol
 _atom_site_label
 _atom_site_symmetry_multiplicity
 _atom_site_fract_x
 _atom_site_fract_y
 _atom_site_fract_z
 _atom_site_occupancy
  V  V0  1  0.00000000  0.00000000  0.00000000  1
  S  S0  1  0.19751688  0.34134838  0.81659142  1
  S  S1  1  0.80248312  0.65865162  0.18340858  1
  I  I0  1  0.00000000  0.00000000  0.50000000  1
  O  O0  1  0.07141346  0.36889656  0.65128039  1
  O  O1  1  0.92858654  0.63110344  0.34871961  1
  O  O2  1  0.54134874  0.07200067  0.86761559  1
  O  O3  1  0.45865126  0.92799933  0.13238441  1
  O  O4  1  0.79809556  0.36381469  0.12725191  1
  O  O5  1  0.20190444  0.63618531  0.87274809  1
  O  O6  1  0.97242592  0.29521057  0.86805748  1
  O  O7  1  0.02757408  0.70478943  0.13194252  1
loop_
_geom_bond_atom_site_label_1
_geom_bond_atom_site_label_2
_geom_bond_distance
_geom_bond_site_symmetry_2
I0 O1 2.211765 1_445
I0 O0 2.211765 1_555
O0 S0 1.477683 1_555
O1 S1 1.477683 1_555
O2 S0 1.475772 1_555
O2 V0 1.996438 1_656
O3 S1 1.475772 1_555
O3 V0 1.996438 1_565
O4 S1 1.467676 1_555
O4 V0 2.004343 1_655
O5 S0 1.467676 1_555
O5 V0 2.004343 1_566
O6 S0 1.472770 1_655
O6 V0 2.008224 1_656
O7 S1 1.472770 1_455
O7 V0 2.008224 1_565
