# generated using pymatgen
data_Pr(SiPd)2
_symmetry_space_group_name_H-M   'P 1'
_cell_length_a   4.24174229
_cell_length_b   4.24174115
_cell_length_c   5.80883056
_cell_angle_alpha   111.41444722
_cell_angle_beta   111.41443923
_cell_angle_gamma   89.99999673
_symmetry_Int_Tables_number   1
_chemical_formula_structural   Pr(SiPd)2
_chemical_formula_sum   'Pr1 Si2 Pd2'
_cell_volume   89.50428433
_cell_formula_units_Z   1
loop_
 _symmetry_equiv_pos_site_id
 _symmetry_equiv_pos_as_xyz
  1  'x, y, z'
loop_
 _atom_site_type_symbol
 _atom_site_label
 _atom_site_symmetry_multiplicity
 _atom_site_fract_x
 _atom_site_fract_y
 _atom_site_fract_z
 _atom_site_occupancy
  Pr  Pr0  1  -0.00000000  -0.00000000  0.00000000  1
  Si  Si0  1  0.62003440  0.62003440  0.24006779  1
  Si  Si1  1  0.37996560  0.37996560  0.75993221  1
  Pd  Pd0  1  0.75000000  0.25000000  0.50000000  1
  Pd  Pd1  1  0.25000000  0.75000000  0.50000000  1
loop_
_geom_bond_atom_site_label_1
_geom_bond_atom_site_label_2
_geom_bond_distance
_geom_bond_site_symmetry_2
Pr0 Si0 3.228368 1_445
Pr0 Si1 3.228368 1_554
Pr0 Si0 3.228371 1_455
Pr0 Si1 3.228371 1_544
Pr0 Si1 3.228371 1_454
Pr0 Si0 3.228371 1_545
Pr0 Si1 3.228374 1_444
Pr0 Si0 3.228374 1_555
Si0 Si1 2.388467 1_554
Pd0 Si0 2.483961 1_545
Pd0 Si1 2.483962 1_655
Pd0 Si0 2.483965 1_555
Pd0 Si1 2.483965 1_555
Pd0 Pr0 3.268742 1_666
Pd0 Pr0 3.268742 1_655
Pd0 Pr0 3.268742 1_656
Pd0 Pr0 3.268743 1_555
Pd1 Si1 2.483961 1_565
Pd1 Si0 2.483962 1_455
Pd1 Si1 2.483965 1_555
Pd1 Si0 2.483965 1_555
Pd1 Pr0 3.268742 1_555
Pd1 Pr0 3.268742 1_566
Pd1 Pr0 3.268742 1_565
Pd1 Pr0 3.268743 1_666
