# generated using pymatgen
data_Zr6Al14V2Co7
_symmetry_space_group_name_H-M   'P 1'
_cell_length_a   8.45955725
_cell_length_b   8.45955679
_cell_length_c   8.48096711
_cell_angle_alpha   59.91623917
_cell_angle_beta   59.91624098
_cell_angle_gamma   59.91813152
_symmetry_Int_Tables_number   1
_chemical_formula_structural   Zr6Al14V2Co7
_chemical_formula_sum   'Zr6 Al14 V2 Co7'
_cell_volume   428.35701824
_cell_formula_units_Z   1
loop_
 _symmetry_equiv_pos_site_id
 _symmetry_equiv_pos_as_xyz
  1  'x, y, z'
loop_
 _atom_site_type_symbol
 _atom_site_label
 _atom_site_symmetry_multiplicity
 _atom_site_fract_x
 _atom_site_fract_y
 _atom_site_fract_z
 _atom_site_occupancy
  Zr  Zr0  1  0.69809550  0.30216504  0.30298388  1
  Zr  Zr1  1  0.69809550  0.30216504  0.69675458  1
  Zr  Zr2  1  0.69990604  0.69990604  0.30009396  1
  Zr  Zr3  1  0.30216504  0.69809550  0.69675458  1
  Zr  Zr4  1  0.30216504  0.69809550  0.30298388  1
  Zr  Zr5  1  0.30369455  0.30369455  0.69630545  1
  Al  Al0  1  0.11761426  0.11761426  0.64579151  1
  Al  Al1  1  0.11761426  0.11761426  0.11898097  1
  Al  Al2  1  0.35235655  0.88036399  0.88363923  1
  Al  Al3  1  0.88036399  0.35235655  0.88363923  1
  Al  Al4  1  0.88156871  0.88156871  0.35641439  1
  Al  Al5  1  0.88156871  0.88156871  0.88044719  1
  Al  Al6  1  0.99950514  0.33433866  0.33307910  1
  Al  Al7  1  0.33433866  0.99950514  0.33307910  1
  Al  Al8  1  0.33383372  0.33383372  0.99901043  1
  Al  Al9  1  0.33383372  0.33383372  0.33332313  1
  Al  Al10  1  0.99764956  0.66650584  0.66792130  1
  Al  Al11  1  0.66650584  0.99764956  0.66792130  1
  Al  Al12  1  0.66727328  0.66727328  0.99784749  1
  Al  Al13  1  0.66727328  0.66727328  0.66760495  1
  V  V0  1  0.64115495  0.11926488  0.11979008  1
  V  V1  1  0.11926488  0.64115495  0.11979008  1
  Co  Co0  1  0.99017924  0.99017924  0.00982076  1
  Co  Co1  1  0.50566448  0.00165473  0.00210396  1
  Co  Co2  1  0.50566448  0.00165473  0.49057583  1
  Co  Co3  1  0.49746407  0.49746407  0.00253593  1
  Co  Co4  1  0.00165473  0.50566448  0.49057583  1
  Co  Co5  1  0.00165473  0.50566448  0.00210396  1
  Co  Co6  1  0.00187308  0.00187308  0.49812692  1
loop_
_geom_bond_atom_site_label_1
_geom_bond_atom_site_label_2
_geom_bond_distance
_geom_bond_site_symmetry_2
Al0 Co0 2.519440 1_446
Al0 Co6 2.627800 1_555
Al0 Co4 2.684325 1_555
Al0 Co2 2.684325 1_555
Al0 Al6 2.709026 1_455
Al0 Al7 2.709026 1_545
Al0 Al9 2.710905 1_555
Al0 Al5 2.822152 1_445
Al0 Al2 2.828832 1_545
Al0 Al3 2.828832 1_455
Al0 Zr3 2.967074 1_545
Al0 Zr1 2.967074 1_455
Al0 Zr5 2.995955 1_555
Al1 Co0 2.519447 1_445
Al1 Co6 2.627792 1_555
Al1 Co5 2.684324 1_555
Al1 Co1 2.684324 1_555
Al1 Al6 2.709033 1_455
Al1 Al7 2.709033 1_545
Al1 Al8 2.710905 1_554
Al1 Al4 2.822152 1_445
Al1 Al2 2.828844 1_544
Al1 Al3 2.828844 1_454
Al1 Zr4 2.967070 1_545
Al1 Zr0 2.967071 1_455
Al1 Zr5 2.995960 1_554
Al2 Co0 2.500346 1_456
Al2 Co3 2.645035 1_556
Al2 Co2 2.723606 1_565
Al2 Co1 2.723606 1_566
Al2 V1 2.823498 1_556
Al2 Zr4 2.975050 1_556
Al2 Zr3 2.975050 1_555
Al2 Zr5 2.998715 1_565
Al3 Co0 2.500346 1_546
Al3 Co3 2.645036 1_556
Al3 Co4 2.723606 1_655
Al3 Co5 2.723606 1_656
Al3 V0 2.823498 1_556
Al3 Zr0 2.975050 1_556
Al3 Zr1 2.975050 1_555
Al3 Zr5 2.998715 1_655
Al4 Co0 2.399964 1_555
Al4 Co4 2.594586 1_655
Al4 Co2 2.594586 1_565
Al4 Co6 2.647038 1_665
Al4 V1 2.855431 1_655
Al4 V0 2.855431 1_565
Al4 Zr2 2.964951 1_555
Al4 Zr0 2.970980 1_565
Al4 Zr4 2.970980 1_655
Al5 Co0 2.399972 1_556
Al5 Co5 2.594586 1_656
Al5 Co1 2.594586 1_566
Al5 Co6 2.647030 1_665
Al5 V1 2.855437 1_656
Al5 V0 2.855437 1_566
Al5 Zr2 2.964957 1_556
Al5 Zr1 2.970980 1_565
Al5 Zr3 2.970980 1_655
Al6 Co4 2.424184 1_655
Al6 Co5 2.424206 1_655
Al6 Co6 2.427916 1_655
Al6 V1 2.669676 1_655
Al6 Al9 2.827170 1_655
Al6 Al8 2.827174 1_654
Al6 Al7 2.829037 1_645
Al6 Zr2 2.837561 1_555
Al6 Zr1 2.838728 1_555
Al6 Zr0 2.838743 1_555
Al7 Co2 2.424185 1_565
Al7 Co1 2.424206 1_565
Al7 Co6 2.427916 1_565
Al7 V0 2.669676 1_565
Al7 Al9 2.827170 1_565
Al7 Al8 2.827174 1_564
Al7 Zr2 2.837561 1_555
Al7 Zr3 2.838728 1_555
Al7 Zr4 2.838743 1_555
Al8 Co3 2.415985 1_556
Al8 Co1 2.424810 1_556
Al8 Co5 2.424811 1_556
Al8 V1 2.679190 1_556
Al8 V0 2.679190 1_556
Al8 Al9 2.835295 1_556
Al8 Zr3 2.842578 1_555
Al8 Zr1 2.842578 1_555
Al8 Zr5 2.845746 1_555
Al9 Co3 2.415990 1_555
Al9 Co2 2.424806 1_555
Al9 Co4 2.424806 1_555
Al9 V1 2.679194 1_555
Al9 V0 2.679194 1_555
Al9 Zr4 2.842571 1_555
Al9 Zr0 2.842571 1_555
Al9 Zr5 2.845738 1_555
Al10 Co4 2.463550 1_655
Al10 Co5 2.463557 1_656
Al10 Co6 2.465382 1_665
Al10 Al4 2.691666 1_555
Al10 Al5 2.691673 1_555
Al10 Al3 2.709861 1_555
Al10 Al13 2.792933 1_555
Al10 Al12 2.792937 1_555
Al10 Al11 2.797862 1_555
Al10 Zr5 2.845916 1_655
Al10 Zr4 2.855601 1_655
Al10 Zr3 2.855606 1_655
Al11 Co2 2.463550 1_565
Al11 Co1 2.463557 1_566
Al11 Co6 2.465382 1_665
Al11 Al4 2.691666 1_555
Al11 Al5 2.691674 1_555
Al11 Al2 2.709861 1_555
Al11 Al13 2.792933 1_555
Al11 Al12 2.792937 1_555
Al11 Zr5 2.845916 1_565
Al11 Zr0 2.855601 1_565
Al11 Zr1 2.855606 1_565
Al12 Co1 2.459288 1_566
Al12 Co5 2.459288 1_656
Al12 Co3 2.466343 1_556
Al12 Al5 2.690647 1_555
Al12 Al3 2.703173 1_555
Al12 Al2 2.703173 1_555
Al12 Al13 2.800776 1_555
Al12 Zr0 2.856689 1_556
Al12 Zr4 2.856689 1_556
Al12 Zr2 2.866773 1_556
Al13 Co2 2.459288 1_565
Al13 Co4 2.459288 1_655
Al13 Co3 2.466348 1_556
Al13 Al4 2.690647 1_555
Al13 Al3 2.703173 1_555
Al13 Al2 2.703173 1_555
Al13 Zr1 2.856689 1_555
Al13 Zr3 2.856689 1_555
Al13 Zr2 2.866764 1_555
V0 Zr2 2.954076 1_545
V0 Zr0 2.991204 1_555
V0 Zr1 2.991211 1_554
V1 Zr2 2.954076 1_455
V1 Zr4 2.991204 1_555
V1 Zr3 2.991211 1_554
Co0 V1 2.410024 1_655
Co0 V0 2.410024 1_565
Co1 V0 2.566216 1_555
Co1 Zr2 3.015622 1_545
Co1 Zr1 3.023452 1_554
Co1 Zr4 3.086727 1_545
Co1 Zr5 3.097820 1_554
Co2 V0 2.566209 1_555
Co2 Zr2 3.015617 1_545
Co2 Zr0 3.023452 1_555
Co2 Zr3 3.086727 1_545
Co2 Zr5 3.097826 1_555
Co3 V0 2.612692 1_555
Co3 V1 2.612692 1_555
Co3 Zr4 3.067115 1_555
Co3 Zr0 3.067115 1_555
Co3 Zr3 3.067122 1_554
Co3 Zr1 3.067122 1_554
Co4 V1 2.566209 1_555
Co4 Zr2 3.015617 1_455
Co4 Zr4 3.023452 1_555
Co4 Zr1 3.086727 1_455
Co4 Zr5 3.097826 1_555
Co5 V1 2.566216 1_555
Co5 Zr2 3.015623 1_455
Co5 Zr3 3.023452 1_554
Co5 Zr0 3.086727 1_455
Co5 Zr5 3.097820 1_554
Co6 Zr3 3.049732 1_545
Co6 Zr1 3.049732 1_455
Co6 Zr4 3.049736 1_545
Co6 Zr0 3.049736 1_455
