# generated using pymatgen
data_TaMo(PO4)3
_symmetry_space_group_name_H-M   'P 1'
_cell_length_a   8.67769442
_cell_length_b   8.67760830
_cell_length_c   8.88285583
_cell_angle_alpha   89.44295860
_cell_angle_beta   61.02844581
_cell_angle_gamma   119.61362890
_symmetry_Int_Tables_number   1
_chemical_formula_structural   TaMo(PO4)3
_chemical_formula_sum   'Ta2 Mo2 P6 O24'
_cell_volume   480.69628446
_cell_formula_units_Z   2
loop_
 _symmetry_equiv_pos_site_id
 _symmetry_equiv_pos_as_xyz
  1  'x, y, z'
loop_
 _atom_site_type_symbol
 _atom_site_label
 _atom_site_symmetry_multiplicity
 _atom_site_fract_x
 _atom_site_fract_y
 _atom_site_fract_z
 _atom_site_occupancy
  Ta  Ta0  1  0.78265374  0.13912372  0.07761794  1
  Ta  Ta1  1  0.78340750  0.63988545  0.57754808  1
  Mo  Mo0  1  0.21084485  0.35762598  0.42799292  1
  Mo  Mo1  1  0.21430693  0.86104696  0.92794190  1
  P  P0  1  0.28273021  0.03390265  0.24930451  1
  P  P1  1  0.71649233  0.74624596  0.24476203  1
  P  P2  1  0.28291197  0.25132030  0.75497642  1
  P  P3  1  0.71683547  0.96811442  0.74915426  1
  P  P4  1  0.00894460  0.53879026  0.74478416  1
  P  P5  1  0.99371505  0.46208255  0.25496299  1
  O  O0  1  0.48478931  0.05735008  0.21982142  1
  O  O1  1  0.87284196  0.36220243  0.90930765  1
  O  O2  1  0.89733561  0.13648842  0.58076734  1
  O  O3  1  0.84846920  0.55834941  0.73057189  1
  O  O4  1  0.11916731  0.63184128  0.09316348  1
  O  O5  1  0.08827741  0.85509431  0.41354677  1
  O  O6  1  0.14999813  0.43778562  0.26539672  1
  O  O7  1  0.15430608  0.71103457  0.76586424  1
  O  O8  1  0.14397226  0.51528518  0.56951706  1
  O  O9  1  0.28970745  0.20609413  0.28742562  1
  O  O10  1  0.28273667  0.02127654  0.08098352  1
  O  O11  1  0.71053119  0.92059217  0.23049625  1
  O  O12  1  0.52323998  0.57924615  0.26627646  1
  O  O13  1  0.27401873  0.28674145  0.59352690  1
  O  O14  1  0.85225682  0.48387321  0.43007646  1
  O  O15  1  0.08607388  0.21755311  0.93025286  1
  O  O16  1  0.91524735  0.78676088  0.06930170  1
  O  O17  1  0.50618991  0.92225917  0.78749617  1
  O  O18  1  0.72924793  0.71855740  0.40901200  1
  O  O19  1  0.48250147  0.42658383  0.72954524  1
  O  O20  1  0.29745414  0.08502499  0.76550235  1
  O  O21  1  0.73151588  0.99872706  0.91331778  1
  O  O22  1  0.72341791  0.79574473  0.71972949  1
  O  O23  1  0.84386076  0.28739762  0.23005742  1
loop_
_geom_bond_atom_site_label_1
_geom_bond_atom_site_label_2
_geom_bond_distance
_geom_bond_site_symmetry_2
Mo0 O9 1.962128 1_555
Mo0 O8 1.974892 1_555
Mo0 O6 1.982657 1_555
Mo0 O13 1.984332 1_555
Mo0 O12 2.032792 1_555
Mo0 O2 2.034360 1_455
Mo1 O17 1.962215 1_555
Mo1 O16 1.975136 1_456
Mo1 O20 1.982712 1_565
Mo1 O4 1.984465 1_556
Mo1 O7 2.032535 1_555
Mo1 O10 2.033900 1_566
O0 P0 1.544650 1_555
O0 Ta0 1.946046 1_555
O1 P4 1.540958 1_655
O1 Ta0 1.976859 1_556
O2 P3 1.500518 1_545
O3 P4 1.545134 1_655
O3 Ta1 1.945912 1_555
O4 P5 1.509638 1_455
O5 P0 1.538473 1_565
O5 Ta1 1.984829 1_455
O6 P5 1.515332 1_455
O7 P4 1.493713 1_555
O8 P4 1.521036 1_555
O9 P0 1.513700 1_555
O10 P0 1.500217 1_555
O11 P1 1.545184 1_555
O11 Ta0 1.945650 1_565
O12 P1 1.493729 1_555
O13 P2 1.509721 1_555
O14 P5 1.532170 1_555
O14 Ta1 1.995357 1_555
O15 P2 1.532230 1_555
O15 Ta0 1.995522 1_456
O16 P1 1.520998 1_555
O17 P3 1.513616 1_555
O18 P1 1.540976 1_555
O18 Ta1 1.976620 1_555
O19 P2 1.541046 1_555
O19 Ta1 1.956183 1_555
O20 P2 1.515198 1_555
O21 P3 1.538607 1_555
O21 Ta0 1.984660 1_566
O22 P3 1.544812 1_555
O22 Ta1 1.946134 1_555
O23 P5 1.541053 1_555
O23 Ta0 1.956120 1_555
