# generated using pymatgen
data_CsTaSiS5
_symmetry_space_group_name_H-M   'P 1'
_cell_length_a   7.02882884
_cell_length_b   7.47038452
_cell_length_c   9.42816067
_cell_angle_alpha   66.05080451
_cell_angle_beta   77.62082869
_cell_angle_gamma   73.63034843
_symmetry_Int_Tables_number   1
_chemical_formula_structural   CsTaSiS5
_chemical_formula_sum   'Cs2 Ta2 Si2 S10'
_cell_volume   431.26213911
_cell_formula_units_Z   2
loop_
 _symmetry_equiv_pos_site_id
 _symmetry_equiv_pos_as_xyz
  1  'x, y, z'
loop_
 _atom_site_type_symbol
 _atom_site_label
 _atom_site_symmetry_multiplicity
 _atom_site_fract_x
 _atom_site_fract_y
 _atom_site_fract_z
 _atom_site_occupancy
  Cs  Cs0  1  0.59699308  0.34995681  0.31723917  1
  Cs  Cs1  1  0.40300692  0.65004319  0.68276083  1
  Ta  Ta0  1  0.23803028  0.02921816  0.00501621  1
  Ta  Ta1  1  0.76196972  0.97078184  0.99498379  1
  Si  Si0  1  0.98177488  0.69168426  0.37488062  1
  Si  Si1  1  0.01822512  0.30831574  0.62511938  1
  S  S0  1  0.07457960  0.76132240  0.00335207  1
  S  S1  1  0.42999862  0.21691346  0.03228844  1
  S  S2  1  0.70626552  0.85547209  0.28961017  1
  S  S3  1  0.21576301  0.84555825  0.29388253  1
  S  S4  1  0.06714526  0.39112822  0.37376284  1
  S  S5  1  0.93285474  0.60887178  0.62623716  1
  S  S6  1  0.78423699  0.15444175  0.70611747  1
  S  S7  1  0.29373448  0.14452791  0.71038983  1
  S  S8  1  0.57000138  0.78308654  0.96771156  1
  S  S9  1  0.92542040  0.23867760  0.99664793  1
loop_
_geom_bond_atom_site_label_1
_geom_bond_atom_site_label_2
_geom_bond_distance
_geom_bond_site_symmetry_2
Cs0 S8 3.553946 1_554
Cs0 S4 3.572136 1_655
Cs0 S4 3.589540 1_555
Cs0 S9 3.622515 1_554
Cs0 S2 3.660536 1_545
Cs0 S1 3.709522 1_555
Cs0 S6 3.734414 1_555
Cs0 S7 3.804760 1_555
Cs0 S3 3.864598 1_555
Cs0 S2 3.958460 1_555
Cs1 S1 3.553946 1_556
Cs1 S5 3.572136 1_455
Cs1 S5 3.589540 1_555
Cs1 S0 3.622515 1_556
Cs1 S7 3.660536 1_565
Cs1 S8 3.709522 1_555
Cs1 S3 3.734414 1_555
Cs1 S2 3.804760 1_555
Cs1 S6 3.864598 1_555
Cs1 S7 3.958460 1_555
S0 Ta1 2.306254 1_454
S0 Ta0 2.579629 1_565
S1 Ta0 2.315315 1_555
S1 Ta1 2.589196 1_544
S2 Si0 2.104004 1_555
S2 Ta1 2.528358 1_554
S3 Si0 2.103306 1_455
S3 Ta0 2.495780 1_565
S4 Si0 2.158353 1_455
S4 Si1 2.167332 1_555
S5 Si1 2.158353 1_655
S5 Si0 2.167332 1_555
S6 Si1 2.103306 1_655
S6 Ta1 2.495780 1_545
S7 Si1 2.104004 1_555
S7 Ta0 2.528358 1_556
S8 Ta1 2.315315 1_555
S8 Ta0 2.589196 1_566
S9 Ta0 2.306254 1_656
S9 Ta1 2.579629 1_545
