# generated using pymatgen
data_Rb3AlBi2
_symmetry_space_group_name_H-M   'P 1'
_cell_length_a   9.78731374
_cell_length_b   9.78731521
_cell_length_c   9.78731466
_cell_angle_alpha   124.28705089
_cell_angle_beta   74.38340325
_cell_angle_gamma   134.89902115
_symmetry_Int_Tables_number   1
_chemical_formula_structural   Rb3AlBi2
_chemical_formula_sum   'Rb6 Al2 Bi4'
_cell_volume   535.32796997
_cell_formula_units_Z   2
loop_
 _symmetry_equiv_pos_site_id
 _symmetry_equiv_pos_as_xyz
  1  'x, y, z'
loop_
 _atom_site_type_symbol
 _atom_site_label
 _atom_site_symmetry_multiplicity
 _atom_site_fract_x
 _atom_site_fract_y
 _atom_site_fract_z
 _atom_site_occupancy
  Rb  Rb0  1  0.32373702  0.68766159  0.01139960  1
  Rb  Rb1  1  0.17626298  0.18766159  0.36392457  1
  Rb  Rb2  1  0.75000000  0.25000000  0.50000000  1
  Rb  Rb3  1  0.25000000  0.74999900  0.49999900  1
  Rb  Rb4  1  0.82373702  0.81233941  0.63607643  1
  Rb  Rb5  1  0.67626298  0.31233941  0.98860140  1
  Al  Al0  1  0.25000000  0.25000000  0.00000000  1
  Al  Al1  1  0.75000000  0.75000000  0.00000000  1
  Bi  Bi0  1  0.91129879  0.18083232  0.09213011  1
  Bi  Bi1  1  0.58870221  0.68083332  0.26953453  1
  Bi  Bi2  1  0.41129779  0.31916668  0.73046447  1
  Bi  Bi3  1  0.08870221  0.81916668  0.90786889  1
loop_
_geom_bond_atom_site_label_1
_geom_bond_atom_site_label_2
_geom_bond_distance
_geom_bond_site_symmetry_2
Al0 Bi0 2.858453 1_455
Al0 Bi1 2.858463 1_555
Al0 Bi2 2.858467 1_554
Al0 Bi3 2.858468 1_544
Al0 Rb5 3.744684 1_554
Al0 Rb0 3.744685 1_555
Al0 Rb4 3.744686 1_444
Al0 Rb1 3.744691 1_555
Al1 Bi0 2.858458 1_565
Al1 Bi1 2.858458 1_555
Al1 Bi3 2.858467 1_654
Al1 Bi2 2.858467 1_554
Al1 Rb5 3.744681 1_554
Al1 Rb4 3.744687 1_554
Al1 Rb0 3.744689 1_555
Al1 Rb1 3.744690 1_665
Bi0 Rb4 3.636448 1_544
Bi0 Rb3 3.735919 1_655
Bi0 Rb2 3.735930 1_555
Bi0 Rb5 3.857357 1_554
Bi0 Rb0 3.994520 1_655
Bi0 Rb0 3.994534 1_545
Bi0 Rb1 4.132197 1_655
Bi1 Rb5 3.636458 1_554
Bi1 Rb3 3.735915 1_555
Bi1 Rb2 3.735919 1_565
Bi1 Rb4 3.857348 1_555
Bi1 Rb1 3.994526 1_665
Bi1 Rb1 3.994533 1_555
Bi1 Rb0 4.132189 1_555
Bi2 Rb0 3.636468 1_556
Bi2 Rb2 3.735920 1_555
Bi2 Rb3 3.735927 1_545
Bi2 Rb1 3.857337 1_555
Bi2 Rb4 3.994526 1_445
Bi2 Rb4 3.994527 1_555
Bi2 Rb5 4.132197 1_555
Bi3 Rb1 3.636466 1_566
Bi3 Rb2 3.735920 1_455
Bi3 Rb3 3.735927 1_555
Bi3 Rb0 3.857343 1_556
Bi3 Rb5 3.994521 1_455
Bi3 Rb5 3.994527 1_565
Bi3 Rb4 4.132204 1_455
