# generated using pymatgen
data_Hf5ZnSn2Sb
_symmetry_space_group_name_H-M   'P 1'
_cell_length_a   8.56437354
_cell_length_b   8.55858128
_cell_length_c   5.77138326
_cell_angle_alpha   90.00000000
_cell_angle_beta   90.00000000
_cell_angle_gamma   119.97762632
_symmetry_Int_Tables_number   1
_chemical_formula_structural   Hf5ZnSn2Sb
_chemical_formula_sum   'Hf10 Zn2 Sn4 Sb2'
_cell_volume   366.44246475
_cell_formula_units_Z   2
loop_
 _symmetry_equiv_pos_site_id
 _symmetry_equiv_pos_as_xyz
  1  'x, y, z'
loop_
 _atom_site_type_symbol
 _atom_site_label
 _atom_site_symmetry_multiplicity
 _atom_site_fract_x
 _atom_site_fract_y
 _atom_site_fract_z
 _atom_site_occupancy
  Hf  Hf0  1  0.73326657  0.73350760  0.25000000  1
  Hf  Hf1  1  0.73326657  0.99975897  0.75000000  1
  Hf  Hf2  1  0.99986796  0.26619395  0.25000000  1
  Hf  Hf3  1  0.99986796  0.73367302  0.75000000  1
  Hf  Hf4  1  0.26693392  0.26693473  0.75000000  1
  Hf  Hf5  1  0.26693392  0.99999919  0.25000000  1
  Hf  Hf6  1  0.33426994  0.66713597  0.50000000  1
  Hf  Hf7  1  0.66624801  0.33312351  0.00000000  1
  Hf  Hf8  1  0.66624801  0.33312351  0.50000000  1
  Hf  Hf9  1  0.33426994  0.66713597  0.00000000  1
  Zn  Zn0  1  0.00114838  0.00057419  0.00000000  1
  Zn  Zn1  1  0.00114838  0.00057419  0.50000000  1
  Sn  Sn0  1  0.38563051  0.99980666  0.75000000  1
  Sn  Sn1  1  0.38563051  0.38582285  0.25000000  1
  Sn  Sn2  1  0.00012973  0.61303427  0.25000000  1
  Sn  Sn3  1  0.00012973  0.38709545  0.75000000  1
  Sb  Sb0  1  0.61250698  0.61167815  0.75000000  1
  Sb  Sb1  1  0.61250698  0.00082883  0.25000000  1
loop_
_geom_bond_atom_site_label_1
_geom_bond_atom_site_label_2
_geom_bond_distance
_geom_bond_site_symmetry_2
Hf0 Zn1 2.707285 1_665
Hf0 Zn0 2.707285 1_665
Hf0 Sn2 2.939671 1_655
Hf0 Sb1 2.944262 1_565
Hf0 Sn1 2.977493 1_555
Hf0 Sb0 3.066985 1_554
Hf0 Sb0 3.066985 1_555
Hf1 Zn0 2.707285 1_666
Hf1 Zn1 2.707285 1_665
Hf1 Sn3 2.939671 1_665
Hf1 Sb0 2.944262 1_555
Hf1 Sn0 2.977489 1_555
Hf1 Sb1 3.066985 1_566
Hf1 Sb1 3.066985 1_565
Hf2 Zn1 2.697194 1_655
Hf2 Zn0 2.697194 1_655
Hf2 Sn1 2.929698 1_655
Hf2 Sb1 2.938452 1_555
Hf2 Sn2 2.967342 1_655
Hf2 Sn3 3.065224 1_654
Hf2 Sn3 3.065224 1_655
Hf3 Zn0 2.697202 1_666
Hf3 Zn1 2.697202 1_665
Hf3 Sn0 2.929698 1_655
Hf3 Sb0 2.938454 1_555
Hf3 Sn3 2.967333 1_655
Hf3 Sn2 3.065222 1_656
Hf3 Sn2 3.065222 1_655
Hf4 Zn0 2.697129 1_556
Hf4 Zn1 2.697129 1_555
Hf4 Sn0 2.929643 1_545
Hf4 Sn3 2.937213 1_555
Hf4 Sb0 2.956075 1_555
Hf4 Sn1 3.059785 1_555
Hf4 Sn1 3.059785 1_556
Hf5 Zn0 2.697129 1_565
Hf5 Zn1 2.697129 1_565
Hf5 Sn1 2.929635 1_565
Hf5 Sn2 2.937213 1_555
Hf5 Sb1 2.956075 1_565
Hf5 Sn0 3.059786 1_555
Hf5 Sn0 3.059786 1_554
Hf6 Sb1 3.019211 1_565
Hf6 Sb0 3.019220 1_555
Hf6 Sn0 3.021627 1_555
Hf6 Sn1 3.021649 1_555
Hf6 Sn2 3.026776 1_555
Hf6 Sn3 3.026781 1_555
Hf7 Sb1 3.012264 1_555
Hf7 Sb0 3.012272 1_554
Hf7 Sn1 3.023968 1_555
Hf7 Sn0 3.023968 1_544
Hf7 Sn3 3.025207 1_654
Hf7 Sn2 3.025210 1_655
Hf8 Sb1 3.012264 1_555
Hf8 Sb0 3.012272 1_555
Hf8 Sn1 3.023968 1_555
Hf8 Sn0 3.023968 1_545
Hf8 Sn3 3.025207 1_655
Hf8 Sn2 3.025210 1_655
Hf9 Sb1 3.019211 1_565
Hf9 Sb0 3.019220 1_554
Hf9 Sn0 3.021627 1_554
Hf9 Sn1 3.021649 1_555
Hf9 Sn2 3.026776 1_555
Hf9 Sn3 3.026781 1_554
