# generated using pymatgen
data_AgHgSeBr
_symmetry_space_group_name_H-M   'P 1'
_cell_length_a   4.88476911
_cell_length_b   9.62971031
_cell_length_c   9.95636406
_cell_angle_alpha   90.00000000
_cell_angle_beta   90.00000000
_cell_angle_gamma   90.00000000
_symmetry_Int_Tables_number   1
_chemical_formula_structural   AgHgSeBr
_chemical_formula_sum   'Ag4 Hg4 Se4 Br4'
_cell_volume   468.33652733
_cell_formula_units_Z   4
loop_
 _symmetry_equiv_pos_site_id
 _symmetry_equiv_pos_as_xyz
  1  'x, y, z'
loop_
 _atom_site_type_symbol
 _atom_site_label
 _atom_site_symmetry_multiplicity
 _atom_site_fract_x
 _atom_site_fract_y
 _atom_site_fract_z
 _atom_site_occupancy
  Ag  Ag0  1  0.00000000  0.21751216  0.40243246  1
  Ag  Ag1  1  0.00000000  0.78248784  0.59756754  1
  Ag  Ag2  1  0.00000000  0.21751216  0.09756754  1
  Ag  Ag3  1  0.00000000  0.78248784  0.90243246  1
  Hg  Hg0  1  0.50000000  0.21888709  0.75000000  1
  Hg  Hg1  1  0.50000000  0.78111291  0.25000000  1
  Hg  Hg2  1  0.50000000  0.50000000  0.00000000  1
  Hg  Hg3  1  0.50000000  0.50000000  0.50000000  1
  Se  Se0  1  0.50000000  0.24063954  0.00150958  1
  Se  Se1  1  0.50000000  0.75936046  0.99849042  1
  Se  Se2  1  0.50000000  0.75936046  0.50150958  1
  Se  Se3  1  0.50000000  0.24063954  0.49849042  1
  Br  Br0  1  0.00000000  0.01841326  0.75000000  1
  Br  Br1  1  0.00000000  0.52569891  0.75000000  1
  Br  Br2  1  0.00000000  0.47430109  0.25000000  1
  Br  Br3  1  0.00000000  0.98158674  0.25000000  1
loop_
_geom_bond_atom_site_label_1
_geom_bond_atom_site_label_2
_geom_bond_distance
_geom_bond_site_symmetry_2
Ag0 Se3 2.632398 1_555
Ag0 Se3 2.632398 1_455
Ag0 Br3 2.732184 1_545
Ag0 Br2 2.901394 1_555
Ag1 Se2 2.632398 1_455
Ag1 Se2 2.632398 1_555
Ag1 Br0 2.732184 1_565
Ag1 Br1 2.901394 1_555
Ag2 Se0 2.632398 1_555
Ag2 Se0 2.632398 1_455
Ag2 Br3 2.732184 1_545
Ag2 Br2 2.901394 1_555
Ag3 Se1 2.632398 1_455
Ag3 Se1 2.632398 1_555
Ag3 Br0 2.732184 1_565
Ag3 Br1 2.901394 1_555
Hg0 Se0 2.512867 1_556
Hg0 Se3 2.512867 1_555
Hg1 Se2 2.512867 1_555
Hg1 Se1 2.512867 1_554
Hg2 Se0 2.497611 1_555
Hg2 Se1 2.497611 1_554
Hg3 Se3 2.497611 1_555
Hg3 Se2 2.497611 1_555
Br0 Hg0 3.113212 1_455
Br0 Hg0 3.113212 1_555
Br3 Hg1 3.113212 1_555
Br3 Hg1 3.113212 1_455
