# generated using pymatgen
data_Ba6SiBiI4
_symmetry_space_group_name_H-M   'P 1'
_cell_length_a   16.67157000
_cell_length_b   15.89696100
_cell_length_c   8.75942436
_cell_angle_alpha   79.37903643
_cell_angle_beta   69.55205857
_cell_angle_gamma   31.07972364
_symmetry_Int_Tables_number   1
_chemical_formula_structural   Ba6SiBiI4
_chemical_formula_sum   'Ba12 Si2 Bi2 I8'
_cell_volume   1090.77099269
_cell_formula_units_Z   2
loop_
 _symmetry_equiv_pos_site_id
 _symmetry_equiv_pos_as_xyz
  1  'x, y, z'
loop_
 _atom_site_type_symbol
 _atom_site_label
 _atom_site_symmetry_multiplicity
 _atom_site_fract_x
 _atom_site_fract_y
 _atom_site_fract_z
 _atom_site_occupancy
  Ba  Ba0  1  0.38666938  0.94190322  0.57088347  1
  Ba  Ba1  1  0.57106424  0.10032532  0.38626392  1
  Ba  Ba2  1  0.31600326  0.86921216  0.16898297  1
  Ba  Ba3  1  0.94205525  0.38655918  0.10054643  1
  Ba  Ba4  1  0.46256478  0.03731494  0.03734661  1
  Ba  Ba5  1  0.86917301  0.31611337  0.64578645  1
  Ba  Ba6  1  0.10027692  0.57106394  0.94225993  1
  Ba  Ba7  1  0.64570109  0.16899818  0.86943714  1
  Ba  Ba8  1  0.77140639  0.22869301  0.22868023  1
  Ba  Ba9  1  0.22886493  0.77126674  0.77119193  1
  Ba  Ba10  1  0.16916575  0.64563476  0.31580860  1
  Ba  Ba11  1  0.03726327  0.46262066  0.46274628  1
  Si  Si0  1  0.16674213  0.16665069  0.33333943  1
  Si  Si1  1  0.33310061  0.33329354  0.16680298  1
  Bi  Bi0  1  0.08420135  0.08416752  0.91576556  1
  Bi  Bi1  1  0.91604181  0.91586733  0.08405877  1
  I  I0  1  0.67160133  0.67128857  0.82876027  1
  I  I1  1  0.74835953  0.74841990  0.25163473  1
  I  I2  1  0.25156414  0.25164968  0.74840102  1
  I  I3  1  0.58029258  0.58029394  0.41958347  1
  I  I4  1  0.99693243  0.99722706  0.50339980  1
  I  I5  1  0.82833880  0.82917325  0.67084493  1
  I  I6  1  0.41956845  0.41950685  0.58061164  1
  I  I7  1  0.50304856  0.50275418  0.99686445  1
loop_
_geom_bond_atom_site_label_1
_geom_bond_atom_site_label_2
_geom_bond_distance
_geom_bond_site_symmetry_2
Ba0 Si0 3.269473 1_565
Ba0 Bi0 3.465431 1_565
Ba0 I2 3.621440 1_565
Ba0 I3 3.640871 1_555
Ba0 I1 3.641501 1_555
Ba0 I0 3.884021 1_555
Ba1 Si1 3.269179 1_555
Ba1 Bi1 3.466948 1_545
Ba1 I1 3.618797 1_545
Ba1 I6 3.640235 1_555
Ba1 I2 3.644210 1_555
Ba1 I5 3.877122 1_545
Ba2 Si0 3.236398 1_565
Ba2 Bi0 3.479414 1_564
Ba2 I0 3.617742 1_554
Ba2 I3 3.702017 1_555
Ba2 I4 3.712922 1_455
Ba2 I7 3.843214 1_554
Ba3 Si0 3.269473 1_655
Ba3 Bi0 3.466835 1_654
Ba3 I2 3.619629 1_654
Ba3 I3 3.639939 1_555
Ba3 I1 3.643059 1_555
Ba3 I0 3.880119 1_554
Ba4 Si0 3.306699 1_555
Ba4 Si1 3.308220 1_555
Ba4 I2 3.591825 1_554
Ba4 I1 3.592550 1_545
Ba4 I0 3.751856 1_544
Ba4 I5 3.757130 1_544
Ba5 Si0 3.235243 1_655
Ba5 Bi0 3.479536 1_655
Ba5 I0 3.617880 1_555
Ba5 I3 3.703107 1_555
Ba5 I4 3.710784 1_545
Ba5 I7 3.839841 1_555
Ba6 Si1 3.268780 1_556
Ba6 Bi1 3.468098 1_456
Ba6 I1 3.617754 1_456
Ba6 I6 3.638496 1_555
Ba6 I2 3.643759 1_555
Ba6 I5 3.887590 1_455
Ba7 Si1 3.236383 1_556
Ba7 Bi1 3.479371 1_546
Ba7 I5 3.615070 1_545
Ba7 I6 3.702211 1_555
Ba7 I7 3.710377 1_555
Ba7 I4 3.839966 1_545
Ba8 Bi0 3.434728 1_654
Ba8 Bi1 3.434766 1_545
Ba8 I7 3.580442 1_554
Ba8 I4 3.581464 1_545
Ba8 I3 3.661596 1_555
Ba8 I6 3.666909 1_555
Ba9 Bi1 3.434299 1_456
Ba9 Bi0 3.435381 1_565
Ba9 I4 3.577259 1_455
Ba9 I7 3.578278 1_555
Ba9 I3 3.660619 1_555
Ba9 I6 3.666644 1_555
Ba10 Si1 3.237117 1_555
Ba10 Bi1 3.478831 1_455
Ba10 I5 3.615418 1_455
Ba10 I6 3.703637 1_555
Ba10 I7 3.710167 1_554
Ba10 I4 3.844898 1_455
Ba11 Si1 3.306773 1_555
Ba11 Si0 3.307761 1_555
Ba11 I2 3.591894 1_555
Ba11 I1 3.592074 1_455
Ba11 I0 3.751208 1_455
Ba11 I5 3.758083 1_455
