# generated using pymatgen
data_Tb(CoSi)2
_symmetry_space_group_name_H-M   'P 1'
_cell_length_a   3.85815218
_cell_length_b   3.85815185
_cell_length_c   5.57483466
_cell_angle_alpha   110.24487709
_cell_angle_beta   110.24486602
_cell_angle_gamma   89.99999574
_symmetry_Int_Tables_number   1
_chemical_formula_structural   Tb(CoSi)2
_chemical_formula_sum   'Tb1 Co2 Si2'
_cell_volume   72.36800819
_cell_formula_units_Z   1
loop_
 _symmetry_equiv_pos_site_id
 _symmetry_equiv_pos_as_xyz
  1  'x, y, z'
loop_
 _atom_site_type_symbol
 _atom_site_label
 _atom_site_symmetry_multiplicity
 _atom_site_fract_x
 _atom_site_fract_y
 _atom_site_fract_z
 _atom_site_occupancy
  Tb  Tb0  1  0.00000000  -0.00000000  0.00000000  1
  Co  Co0  1  0.25000000  0.75000000  0.50000000  1
  Co  Co1  1  0.75000000  0.25000000  0.50000000  1
  Si  Si0  1  0.62984051  0.62984051  0.25968103  1
  Si  Si1  1  0.37015949  0.37015949  0.74031897  1
loop_
_geom_bond_atom_site_label_1
_geom_bond_atom_site_label_2
_geom_bond_distance
_geom_bond_site_symmetry_2
Co0 Si1 2.255303 1_565
Co0 Si0 2.255304 1_455
Co0 Si0 2.255304 1_555
Co0 Si1 2.255304 1_555
Co0 Tb0 3.103282 1_555
Co0 Tb0 3.103282 1_666
Co0 Tb0 3.103282 1_566
Co0 Tb0 3.103283 1_565
Co1 Si0 2.255303 1_545
Co1 Si1 2.255304 1_655
Co1 Si1 2.255304 1_555
Co1 Si0 2.255304 1_555
Co1 Tb0 3.103282 1_666
Co1 Tb0 3.103282 1_555
Co1 Tb0 3.103282 1_655
Co1 Tb0 3.103283 1_656
Si0 Si1 2.524981 1_554
Si0 Tb0 3.006085 1_655
Si0 Tb0 3.006085 1_555
Si0 Tb0 3.006086 1_565
Si0 Tb0 3.006086 1_665
Si1 Tb0 3.006085 1_566
Si1 Tb0 3.006085 1_666
Si1 Tb0 3.006086 1_656
Si1 Tb0 3.006086 1_556
