# generated using pymatgen
data_TcTeSeCl4
_symmetry_space_group_name_H-M   'P 1'
_cell_length_a   10.35665092
_cell_length_b   10.35665107
_cell_length_c   10.35665124
_cell_angle_alpha   114.57912946
_cell_angle_beta   114.57912636
_cell_angle_gamma   99.67741716
_symmetry_Int_Tables_number   1
_chemical_formula_structural   TcTeSeCl4
_chemical_formula_sum   'Tc4 Te4 Se4 Cl16'
_cell_volume   836.87142583
_cell_formula_units_Z   4
loop_
 _symmetry_equiv_pos_site_id
 _symmetry_equiv_pos_as_xyz
  1  'x, y, z'
loop_
 _atom_site_type_symbol
 _atom_site_label
 _atom_site_symmetry_multiplicity
 _atom_site_fract_x
 _atom_site_fract_y
 _atom_site_fract_z
 _atom_site_occupancy
  Tc  Tc0  1  0.69385504  0.54719216  0.09211732  1
  Tc  Tc1  1  0.45507384  0.60173772  0.90788268  1
  Tc  Tc2  1  0.39826228  0.30614496  0.85333613  1
  Tc  Tc3  1  0.45280784  0.54492616  0.14666387  1
  Te  Te0  1  0.92359689  0.44611193  0.10709006  1
  Te  Te1  1  0.33902187  0.81650683  0.89290994  1
  Te  Te2  1  0.18349317  0.07640311  0.52251504  1
  Te  Te3  1  0.55388807  0.66097813  0.47748496  1
  Se  Se0  1  0.56077794  0.42880120  0.78945629  1
  Se  Se1  1  0.63934391  0.77132064  0.21054371  1
  Se  Se2  1  0.22867936  0.43922206  0.86802326  1
  Se  Se3  1  0.57119880  0.36065609  0.13197674  1
  Cl  Cl0  1  0.86571673  0.30720678  0.82650262  1
  Cl  Cl1  1  0.48070416  0.03921411  0.17349738  1
  Cl  Cl2  1  0.96078589  0.13428327  0.44149004  1
  Cl  Cl3  1  0.69279322  0.51929584  0.55850996  1
  Cl  Cl4  1  0.90398795  0.70765292  0.09613704  1
  Cl  Cl5  1  0.61151488  0.80785091  0.90386296  1
  Cl  Cl6  1  0.19214909  0.09601205  0.80366497  1
  Cl  Cl7  1  0.29234708  0.38848512  0.19633503  1
  Cl  Cl8  1  0.91209465  0.65025325  0.38266370  1
  Cl  Cl9  1  0.26758955  0.52943095  0.61733630  1
  Cl  Cl10  1  0.47056905  0.08790535  0.73815860  1
  Cl  Cl11  1  0.34974675  0.73241045  0.26184140  1
  Cl  Cl12  1  0.86506792  0.22312173  0.12067351  1
  Cl  Cl13  1  0.10244723  0.74439341  0.87932649  1
  Cl  Cl14  1  0.25560659  0.13493208  0.35805281  1
  Cl  Cl15  1  0.77687827  0.89755277  0.64194719  1
loop_
_geom_bond_atom_site_label_1
_geom_bond_atom_site_label_2
_geom_bond_distance
_geom_bond_site_symmetry_2
Tc0 Te0 2.728885 1_555
Tc1 Te1 2.728879 1_555
Tc2 Te2 2.728879 1_555
Tc3 Te3 2.728877 1_555
Se0 Tc2 2.406430 1_555
Se0 Tc1 2.420608 1_555
Se0 Tc0 2.422599 1_556
Se1 Tc3 2.406423 1_555
Se1 Tc0 2.420598 1_555
Se1 Tc1 2.422598 1_554
Se2 Tc1 2.406422 1_555
Se2 Tc3 2.420600 1_556
Se2 Tc2 2.422591 1_555
Se3 Tc0 2.406430 1_555
Se3 Tc2 2.420604 1_554
Se3 Tc3 2.422598 1_555
Cl0 Te0 2.378365 1_556
Cl1 Te1 2.378365 1_544
Cl2 Te2 2.378365 1_655
Cl3 Te3 2.378365 1_555
Cl4 Tc0 2.480073 1_555
Cl4 Te0 2.795084 1_555
Cl5 Tc1 2.480073 1_555
Cl5 Te1 2.795074 1_555
Cl6 Tc2 2.480079 1_555
Cl6 Te2 2.795084 1_555
Cl7 Tc3 2.480065 1_555
Cl7 Te3 2.795080 1_555
Cl8 Tc0 2.482258 1_555
Cl8 Te0 2.824421 1_555
Cl9 Tc1 2.482256 1_555
Cl9 Te1 2.824421 1_555
Cl10 Tc2 2.482256 1_555
Cl10 Te2 2.824421 1_555
Cl11 Tc3 2.482248 1_555
Cl11 Te3 2.824421 1_555
Cl12 Te0 2.364586 1_555
Cl13 Te1 2.364597 1_555
Cl14 Te2 2.364602 1_555
Cl15 Te3 2.364591 1_555
