# generated using pymatgen
data_Cs6Na2Sn7Pb
_symmetry_space_group_name_H-M   'P 1'
_cell_length_a   9.41833355
_cell_length_b   9.39703992
_cell_length_c   10.99179043
_cell_angle_alpha   90.00000000
_cell_angle_beta   90.00000000
_cell_angle_gamma   133.62104706
_symmetry_Int_Tables_number   1
_chemical_formula_structural   Cs6Na2Sn7Pb
_chemical_formula_sum   'Cs6 Na2 Sn7 Pb1'
_cell_volume   704.24414700
_cell_formula_units_Z   1
loop_
 _symmetry_equiv_pos_site_id
 _symmetry_equiv_pos_as_xyz
  1  'x, y, z'
loop_
 _atom_site_type_symbol
 _atom_site_label
 _atom_site_symmetry_multiplicity
 _atom_site_fract_x
 _atom_site_fract_y
 _atom_site_fract_z
 _atom_site_occupancy
  Cs  Cs0  1  0.61019592  0.38666690  0.55433006  1
  Cs  Cs1  1  0.61019592  0.38666690  0.94566994  1
  Cs  Cs2  1  0.38600916  0.61041608  0.44995063  1
  Cs  Cs3  1  0.38600916  0.61041608  0.05004937  1
  Cs  Cs4  1  0.76553452  0.23597770  0.25000000  1
  Cs  Cs5  1  0.23591598  0.76289432  0.75000000  1
  Na  Na0  1  0.00270350  0.00218382  0.49994705  1
  Na  Na1  1  0.00270350  0.00218382  0.00005295  1
  Sn  Sn0  1  0.25799231  0.16106891  0.25000000  1
  Sn  Sn1  1  0.82996445  0.16871101  0.88239797  1
  Sn  Sn2  1  0.82996445  0.16871101  0.61760203  1
  Sn  Sn3  1  0.15618138  0.25436554  0.75000000  1
  Sn  Sn4  1  0.74588899  0.84273275  0.75000000  1
  Sn  Sn5  1  0.17439743  0.83521829  0.38211716  1
  Sn  Sn6  1  0.17439743  0.83521829  0.11788284  1
  Pb  Pb0  1  0.83194592  0.73656959  0.25000000  1
loop_
_geom_bond_atom_site_label_1
_geom_bond_atom_site_label_2
_geom_bond_distance
_geom_bond_site_symmetry_2
Cs0 Sn2 3.848660 1_555
Cs0 Cs2 4.039925 1_555
Cs0 Pb0 4.109500 1_555
Cs0 Sn0 4.121267 1_555
Cs0 Sn4 4.131452 1_555
Cs0 Sn3 4.137755 1_555
Cs0 Na0 4.198185 1_555
Cs0 Sn5 4.235101 1_545
Cs0 Na0 4.239800 1_665
Cs0 Cs4 4.265441 1_555
Cs0 Cs1 4.301526 1_555
Cs0 Sn5 4.322322 1_655
Cs0 Cs5 4.785473 1_545
Cs0 Cs5 4.807038 1_655
Cs1 Sn1 3.848660 1_555
Cs1 Cs3 4.039925 1_556
Cs1 Pb0 4.109500 1_556
Cs1 Sn0 4.121267 1_556
Cs1 Sn4 4.131452 1_555
Cs1 Sn3 4.137755 1_555
Cs1 Na1 4.198185 1_556
Cs1 Sn6 4.235101 1_546
Cs1 Na1 4.239800 1_666
Cs1 Cs4 4.265441 1_556
Cs1 Sn6 4.322322 1_656
Cs1 Cs5 4.785473 1_545
Cs1 Cs5 4.807038 1_655
Cs2 Sn5 3.847051 1_555
Cs2 Sn3 4.094452 1_555
Cs2 Sn4 4.113645 1_555
Cs2 Pb0 4.123804 1_555
Cs2 Sn0 4.133922 1_555
Cs2 Na0 4.187214 1_555
Cs2 Cs5 4.209923 1_555
Cs2 Sn2 4.249478 1_455
Cs2 Na0 4.252927 1_665
Cs2 Sn2 4.258612 1_565
Cs2 Cs3 4.395631 1_555
Cs2 Cs4 4.794824 1_455
Cs2 Cs4 4.813627 1_565
Cs3 Sn6 3.847051 1_555
Cs3 Sn3 4.094452 1_554
Cs3 Sn4 4.113645 1_554
Cs3 Pb0 4.123804 1_555
Cs3 Sn0 4.133922 1_555
Cs3 Na1 4.187214 1_555
Cs3 Cs5 4.209923 1_554
Cs3 Sn1 4.249478 1_454
Cs3 Na1 4.252927 1_665
Cs3 Sn1 4.258612 1_564
Cs3 Cs4 4.794824 1_455
Cs3 Cs4 4.813627 1_565
Cs4 Sn2 4.198039 1_555
Cs4 Sn1 4.198039 1_554
Cs4 Sn5 4.284732 1_545
Cs4 Sn6 4.284732 1_545
Cs4 Pb0 4.296496 1_555
Cs4 Sn0 4.324704 1_555
Cs4 Sn5 4.327527 1_655
Cs4 Sn6 4.327527 1_655
Cs5 Sn6 4.206230 1_556
Cs5 Sn5 4.206230 1_555
Cs5 Sn3 4.295127 1_555
Cs5 Sn1 4.296140 1_455
Cs5 Sn2 4.296140 1_455
Cs5 Sn1 4.304049 1_565
Cs5 Sn2 4.304049 1_565
Cs5 Sn4 4.319791 1_555
Na0 Sn5 3.202305 1_545
Na0 Sn2 3.206379 1_455
Na0 Sn3 3.245499 1_555
Na0 Sn0 3.256550 1_555
Na0 Sn4 3.263339 1_445
Na0 Pb0 3.290259 1_445
Na1 Sn6 3.202305 1_545
Na1 Sn1 3.206379 1_454
Na1 Sn3 3.245499 1_554
Na1 Sn0 3.256550 1_555
Na1 Sn4 3.263339 1_444
Na1 Pb0 3.290259 1_445
Sn0 Sn5 2.962844 1_545
Sn0 Sn6 2.962844 1_545
Sn1 Sn2 2.910581 1_555
Sn1 Sn4 2.963356 1_545
Sn1 Sn3 2.965357 1_655
Sn2 Sn4 2.963356 1_545
Sn2 Sn3 2.965357 1_655
Sn3 Sn4 3.044813 1_445
Sn5 Sn6 2.904408 1_555
Pb0 Sn5 3.040654 1_655
Pb0 Sn6 3.040654 1_655
Pb0 Sn0 3.150923 1_665
