# generated using pymatgen
data_Cs2RbInP2
_symmetry_space_group_name_H-M   'P 1'
_cell_length_a   9.52055115
_cell_length_b   9.52055274
_cell_length_c   9.52055120
_cell_angle_alpha   136.80914783
_cell_angle_beta   130.63546103
_cell_angle_gamma   67.64637358
_symmetry_Int_Tables_number   1
_chemical_formula_structural   Cs2RbInP2
_chemical_formula_sum   'Cs4 Rb2 In2 P4'
_cell_volume   440.73199874
_cell_formula_units_Z   2
loop_
 _symmetry_equiv_pos_site_id
 _symmetry_equiv_pos_as_xyz
  1  'x, y, z'
loop_
 _atom_site_type_symbol
 _atom_site_label
 _atom_site_symmetry_multiplicity
 _atom_site_fract_x
 _atom_site_fract_y
 _atom_site_fract_z
 _atom_site_occupancy
  Cs  Cs0  1  0.59742549  0.32092120  0.27650429  1
  Cs  Cs1  1  0.40257451  0.67907880  0.72349571  1
  Cs  Cs2  1  0.04441792  0.82092120  0.22349571  1
  Cs  Cs3  1  0.95558208  0.17907880  0.77650429  1
  Rb  Rb0  1  0.50000000  0.25000000  0.75000000  1
  Rb  Rb1  1  0.50000000  0.75000000  0.25000000  1
  In  In0  1  0.00000000  0.25000000  0.25000000  1
  In  In1  1  0.00000000  0.75000000  0.75000000  1
  P  P0  1  0.26813011  0.08809338  0.18003673  1
  P  P1  1  0.73186989  0.91190662  0.81996327  1
  P  P2  1  0.90805765  0.58809338  0.31996327  1
  P  P3  1  0.09194235  0.41190662  0.68003673  1
loop_
_geom_bond_atom_site_label_1
_geom_bond_atom_site_label_2
_geom_bond_distance
_geom_bond_site_symmetry_2
Cs0 P3 3.516614 1_655
Cs0 P0 3.762030 1_555
Cs0 P1 3.803838 1_544
Cs0 P1 3.803839 1_555
Cs1 P2 3.516614 1_455
Cs1 P1 3.762030 1_555
Cs1 P0 3.803838 1_566
Cs1 P0 3.803839 1_555
Cs2 P1 3.516621 1_454
Cs2 P2 3.762030 1_455
Cs2 P3 3.803827 1_554
Cs2 P3 3.803840 1_565
Cs3 P0 3.516621 1_656
Cs3 P3 3.762030 1_655
Cs3 P2 3.803827 1_556
Cs3 P2 3.803840 1_545
In0 P0 2.657201 1_555
In0 P2 2.657201 1_455
In0 P1 2.657201 1_444
In0 P3 2.657205 1_555
In1 P1 2.657201 1_455
In1 P3 2.657201 1_555
In1 P0 2.657201 1_566
In1 P2 2.657205 1_455
P0 Rb0 3.388807 1_555
P0 Rb1 3.388807 1_545
P1 Rb1 3.388807 1_555
P1 Rb0 3.388807 1_565
P2 Rb0 3.388812 1_554
P2 Rb1 3.388815 1_555
P3 Rb1 3.388812 1_556
P3 Rb0 3.388815 1_555
