# generated using pymatgen
data_Hf2Nb2WN6
_symmetry_space_group_name_H-M   'P 1'
_cell_length_a   5.24322717
_cell_length_b   5.21871117
_cell_length_c   10.59428016
_cell_angle_alpha   90.00000000
_cell_angle_beta   90.00000000
_cell_angle_gamma   119.84545945
_symmetry_Int_Tables_number   1
_chemical_formula_structural   Hf2Nb2WN6
_chemical_formula_sum   'Hf4 Nb4 W2 N12'
_cell_volume   251.44223205
_cell_formula_units_Z   2
loop_
 _symmetry_equiv_pos_site_id
 _symmetry_equiv_pos_as_xyz
  1  'x, y, z'
loop_
 _atom_site_type_symbol
 _atom_site_label
 _atom_site_symmetry_multiplicity
 _atom_site_fract_x
 _atom_site_fract_y
 _atom_site_fract_z
 _atom_site_occupancy
  Hf  Hf0  1  0.32863837  0.66431969  0.50000000  1
  Hf  Hf1  1  0.66606186  0.33302993  0.00000000  1
  Hf  Hf2  1  0.66606186  0.33302993  0.50000000  1
  Hf  Hf3  1  0.32863837  0.66431969  0.00000000  1
  Nb  Nb0  1  0.99957969  0.32510589  0.25000000  1
  Nb  Nb1  1  0.99957969  0.67447280  0.75000000  1
  Nb  Nb2  1  0.32533453  0.32503603  0.75000000  1
  Nb  Nb3  1  0.32533453  0.00029850  0.25000000  1
  W  W0  1  0.67626013  0.99954229  0.75000000  1
  W  W1  1  0.67626013  0.67671784  0.25000000  1
  N  N0  1  0.35160002  0.35159742  0.37418182  1
  N  N1  1  0.65537625  0.99491620  0.37536817  1
  N  N2  1  0.99508594  0.65786202  0.37504886  1
  N  N3  1  0.99508594  0.33722492  0.87504886  1
  N  N4  1  0.65537625  0.99491620  0.12463183  1
  N  N5  1  0.65537625  0.66046105  0.87536817  1
  N  N6  1  0.35160002  0.00000259  0.87418182  1
  N  N7  1  0.65537625  0.66046105  0.62463183  1
  N  N8  1  0.99508594  0.33722492  0.62495114  1
  N  N9  1  0.99508594  0.65786202  0.12495114  1
  N  N10  1  0.35160002  0.00000259  0.62581818  1
  N  N11  1  0.35160002  0.35159742  0.12581818  1
loop_
_geom_bond_atom_site_label_1
_geom_bond_atom_site_label_2
_geom_bond_distance
_geom_bond_site_symmetry_2
Hf0 N10 2.156444 1_565
Hf0 N0 2.156448 1_555
Hf0 N1 2.170962 1_555
Hf0 N7 2.170962 1_555
Hf0 N8 2.180241 1_455
Hf0 N2 2.180242 1_455
Hf1 N6 2.159555 1_554
Hf1 N11 2.159559 1_555
Hf1 N3 2.165960 1_554
Hf1 N9 2.165966 1_555
Hf1 N4 2.182127 1_545
Hf1 N5 2.182140 1_554
Hf2 N10 2.159555 1_555
Hf2 N0 2.159559 1_555
Hf2 N8 2.165960 1_555
Hf2 N2 2.165966 1_555
Hf2 N1 2.182127 1_545
Hf2 N7 2.182140 1_555
Hf3 N6 2.156444 1_564
Hf3 N11 2.156448 1_555
Hf3 N4 2.170962 1_555
Hf3 N5 2.170962 1_554
Hf3 N3 2.180241 1_454
Hf3 N9 2.180242 1_455
N0 W1 2.152356 1_555
N0 Nb3 2.204451 1_555
N0 Nb0 2.214198 1_455
N1 W1 2.171311 1_555
N1 Nb3 2.192674 1_565
N1 Nb0 2.212494 1_565
N2 W1 2.173250 1_555
N2 Nb0 2.193631 1_555
N2 Nb3 2.206150 1_665
N3 W0 2.173252 1_545
N3 Nb1 2.193623 1_555
N3 Nb2 2.206152 1_655
N4 W1 2.171311 1_555
N4 Nb3 2.192674 1_565
N4 Nb0 2.212494 1_565
N5 W0 2.171307 1_555
N5 Nb2 2.192676 1_555
N5 Nb1 2.212498 1_555
N6 W0 2.152356 1_545
N6 Nb2 2.204451 1_555
N6 Nb1 2.214199 1_445
N7 W0 2.171307 1_555
N7 Nb2 2.192676 1_555
N7 Nb1 2.212498 1_555
N8 W0 2.173252 1_545
N8 Nb1 2.193623 1_555
N8 Nb2 2.206152 1_655
N9 W1 2.173250 1_555
N9 Nb0 2.193631 1_555
N9 Nb3 2.206150 1_665
N10 W0 2.152356 1_545
N10 Nb2 2.204451 1_555
N10 Nb1 2.214199 1_445
N11 W1 2.152356 1_555
N11 Nb3 2.204451 1_555
N11 Nb0 2.214198 1_455
