# generated using pymatgen
data_Ca3Te(IO2)2
_symmetry_space_group_name_H-M   'P 1'
_cell_length_a   7.19815498
_cell_length_b   7.19815564
_cell_length_c   5.60577280
_cell_angle_alpha   90.00000000
_cell_angle_beta   90.00000000
_cell_angle_gamma   133.96677671
_symmetry_Int_Tables_number   1
_chemical_formula_structural   Ca3Te(IO2)2
_chemical_formula_sum   'Ca3 Te1 I2 O4'
_cell_volume   209.05235058
_cell_formula_units_Z   1
loop_
 _symmetry_equiv_pos_site_id
 _symmetry_equiv_pos_as_xyz
  1  'x, y, z'
loop_
 _atom_site_type_symbol
 _atom_site_label
 _atom_site_symmetry_multiplicity
 _atom_site_fract_x
 _atom_site_fract_y
 _atom_site_fract_z
 _atom_site_occupancy
  Ca  Ca0  1  0.57793601  0.42206399  0.00000000  1
  Ca  Ca1  1  0.41278520  0.58721480  0.50000000  1
  Ca  Ca2  1  0.91437697  0.08562303  0.00000000  1
  Te  Te0  1  0.05989271  0.94010729  0.50000000  1
  I  I0  1  0.26939287  0.73060713  0.00000000  1
  I  I1  1  0.75479277  0.24520723  0.50000000  1
  O  O0  1  0.77091183  0.76550160  0.26752539  1
  O  O1  1  0.77091183  0.76550160  0.73247461  1
  O  O2  1  0.23449840  0.22908817  0.26752539  1
  O  O3  1  0.23449840  0.22908817  0.73247461  1
loop_
_geom_bond_atom_site_label_1
_geom_bond_atom_site_label_2
_geom_bond_distance
_geom_bond_site_symmetry_2
Ca0 O2 2.349887 1_555
Ca0 O3 2.349887 1_554
Ca0 O0 2.349887 1_555
Ca0 O1 2.349887 1_554
Ca0 I1 3.653447 1_555
Ca0 I1 3.653447 1_554
Ca0 I0 3.789039 1_655
Ca0 I0 3.789039 1_545
Ca1 O1 2.323177 1_555
Ca1 O0 2.323177 1_555
Ca1 O3 2.323177 1_555
Ca1 O2 2.323177 1_555
Ca1 I0 3.386164 1_556
Ca1 I0 3.386164 1_555
Ca1 I1 3.507662 1_455
Ca1 I1 3.507662 1_565
Ca2 O2 2.306771 1_655
Ca2 O3 2.306771 1_654
Ca2 O0 2.306771 1_545
Ca2 O1 2.306771 1_544
Ca2 I0 3.407600 1_545
Ca2 I0 3.407600 1_655
Ca2 I1 3.511041 1_554
Ca2 I1 3.511041 1_555
O0 Te0 1.993710 1_655
O1 Te0 1.993710 1_655
O2 Te0 1.993710 1_545
O3 Te0 1.993710 1_545
