# generated using pymatgen
data_Sn3Pt(SeO3)8
_symmetry_space_group_name_H-M   'P 1'
_cell_length_a   8.15526904
_cell_length_b   8.15526904
_cell_length_c   8.15526904
_cell_angle_alpha   90.09242041
_cell_angle_beta   89.90757959
_cell_angle_gamma   89.90757959
_symmetry_Int_Tables_number   1
_chemical_formula_structural   Sn3Pt(SeO3)8
_chemical_formula_sum   'Sn3 Pt1 Se8 O24'
_cell_volume   542.39188378
_cell_formula_units_Z   1
loop_
 _symmetry_equiv_pos_site_id
 _symmetry_equiv_pos_as_xyz
  1  'x, y, z'
loop_
 _atom_site_type_symbol
 _atom_site_label
 _atom_site_symmetry_multiplicity
 _atom_site_fract_x
 _atom_site_fract_y
 _atom_site_fract_z
 _atom_site_occupancy
  Sn  Sn0  1  0.50000000  0.00000000  0.50000000  1
  Sn  Sn1  1  0.00000000  0.00000000  0.00000000  1
  Sn  Sn2  1  0.00000000  0.50000000  0.50000000  1
  Pt  Pt0  1  0.50000000  0.50000000  0.00000000  1
  Se  Se0  1  0.83507115  0.16492885  0.66492885  1
  Se  Se1  1  0.16492885  0.83507115  0.33507115  1
  Se  Se2  1  0.66046528  0.65983584  0.67808203  1
  Se  Se3  1  0.17808203  0.66046528  0.84016416  1
  Se  Se4  1  0.34016416  0.17808203  0.83953472  1
  Se  Se5  1  0.82191797  0.33953472  0.15983584  1
  Se  Se6  1  0.65983584  0.82191797  0.16046528  1
  Se  Se7  1  0.33953472  0.34016416  0.32191797  1
  O  O0  1  0.24673122  0.47208190  0.45675804  1
  O  O1  1  0.95675804  0.24673122  0.02791810  1
  O  O2  1  0.02648954  0.74680709  0.46583884  1
  O  O3  1  0.47908715  0.25581069  0.98059741  1
  O  O4  1  0.25319291  0.96583884  0.47351046  1
  O  O5  1  0.51940259  0.52091285  0.75581069  1
  O  O6  1  0.96583884  0.02648954  0.75319291  1
  O  O7  1  0.52091285  0.74418931  0.01940259  1
  O  O8  1  0.52791810  0.95675804  0.25326878  1
  O  O9  1  0.47208190  0.04324196  0.74673122  1
  O  O10  1  0.75331018  0.95699439  0.03073422  1
  O  O11  1  0.25581069  0.51940259  0.97908715  1
  O  O12  1  0.04300561  0.53073422  0.74668982  1
  O  O13  1  0.03416116  0.97351046  0.24680709  1
  O  O14  1  0.24668982  0.04300561  0.96926578  1
  O  O15  1  0.48059741  0.47908715  0.24418931  1
  O  O16  1  0.75326878  0.52791810  0.54324196  1
  O  O17  1  0.95699439  0.46926578  0.25331018  1
  O  O18  1  0.04324196  0.75326878  0.97208190  1
  O  O19  1  0.46926578  0.24668982  0.45699439  1
  O  O20  1  0.53073422  0.75331018  0.54300561  1
  O  O21  1  0.97351046  0.25319291  0.53416116  1
  O  O22  1  0.74680709  0.03416116  0.52648954  1
  O  O23  1  0.74418931  0.48059741  0.02091285  1
loop_
_geom_bond_atom_site_label_1
_geom_bond_atom_site_label_2
_geom_bond_distance
_geom_bond_site_symmetry_2
O0 Se7 1.711818 1_555
O0 Sn2 2.054497 1_555
O1 Se5 1.711818 1_555
O1 Sn1 2.054497 1_655
O2 Se1 1.712110 1_555
O2 Sn2 2.044157 1_555
O3 Se4 1.735803 1_555
O3 Pt0 2.005014 1_556
O4 Se1 1.712110 1_555
O4 Sn0 2.044157 1_565
O5 Se2 1.735803 1_555
O5 Pt0 2.005014 1_556
O6 Se0 1.712110 1_555
O6 Sn1 2.044157 1_656
O7 Se6 1.735803 1_555
O7 Pt0 2.005014 1_555
O8 Se6 1.711818 1_555
O8 Sn0 2.054497 1_565
O9 Se4 1.711818 1_555
O9 Sn0 2.054497 1_555
O10 Se6 1.708162 1_555
O10 Sn1 2.057715 1_665
O11 Se3 1.735803 1_555
O11 Pt0 2.005014 1_556
O12 Se3 1.708162 1_555
O12 Sn2 2.057715 1_555
O13 Se1 1.712110 1_555
O13 Sn1 2.044157 1_565
O14 Se4 1.708162 1_555
O14 Sn1 2.057715 1_556
O15 Se7 1.735803 1_555
O15 Pt0 2.005014 1_555
O16 Se2 1.711818 1_555
O16 Sn2 2.054497 1_655
O17 Se5 1.708162 1_555
O17 Sn2 2.057715 1_655
O18 Se3 1.711818 1_555
O18 Sn1 2.054497 1_566
O19 Se7 1.708162 1_555
O19 Sn0 2.057715 1_555
O20 Se2 1.708162 1_555
O20 Sn0 2.057715 1_565
O21 Se0 1.712110 1_555
O21 Sn2 2.044157 1_655
O22 Se0 1.712110 1_555
O22 Sn0 2.044157 1_555
O23 Se5 1.735803 1_555
O23 Pt0 2.005014 1_555
