# generated using pymatgen
data_Ni4Mo6As2C
_symmetry_space_group_name_H-M   'P 1'
_cell_length_a   7.75473668
_cell_length_b   7.75473595
_cell_length_c   7.75473666
_cell_angle_alpha   59.99999279
_cell_angle_beta   59.99999591
_cell_angle_gamma   59.99999658
_symmetry_Int_Tables_number   1
_chemical_formula_structural   Ni4Mo6As2C
_chemical_formula_sum   'Ni8 Mo12 As4 C2'
_cell_volume   329.75096761
_cell_formula_units_Z   2
loop_
 _symmetry_equiv_pos_site_id
 _symmetry_equiv_pos_as_xyz
  1  'x, y, z'
loop_
 _atom_site_type_symbol
 _atom_site_label
 _atom_site_symmetry_multiplicity
 _atom_site_fract_x
 _atom_site_fract_y
 _atom_site_fract_z
 _atom_site_occupancy
  Ni  Ni0  1  0.33228671  0.33228671  0.00314088  1
  Ni  Ni1  1  0.33228671  0.33228671  0.33228671  1
  Ni  Ni2  1  0.24685912  0.91771329  0.91771329  1
  Ni  Ni3  1  0.91771329  0.91771329  0.91771329  1
  Ni  Ni4  1  0.00314088  0.33228671  0.33228671  1
  Ni  Ni5  1  0.33228671  0.00314088  0.33228671  1
  Ni  Ni6  1  0.91771329  0.91771329  0.24685912  1
  Ni  Ni7  1  0.91771329  0.24685912  0.91771329  1
  Mo  Mo0  1  0.30859942  0.69140058  0.69140058  1
  Mo  Mo1  1  0.69140058  0.69140058  0.30859942  1
  Mo  Mo2  1  0.69140058  0.30859942  0.69140058  1
  Mo  Mo3  1  0.30859942  0.69140058  0.30859942  1
  Mo  Mo4  1  0.55859942  0.94140058  0.55859942  1
  Mo  Mo5  1  0.55859942  0.94140058  0.94140058  1
  Mo  Mo6  1  0.94140058  0.55859942  0.55859942  1
  Mo  Mo7  1  0.94140058  0.55859942  0.94140058  1
  Mo  Mo8  1  0.30859942  0.30859942  0.69140058  1
  Mo  Mo9  1  0.55859942  0.55859942  0.94140058  1
  Mo  Mo10  1  0.94140058  0.94140058  0.55859942  1
  Mo  Mo11  1  0.69140058  0.30859942  0.30859942  1
  As  As0  1  0.12500000  0.62500000  0.12500000  1
  As  As1  1  0.12500000  0.12500000  0.62500000  1
  As  As2  1  0.62500000  0.12500000  0.12500000  1
  As  As3  1  0.12500000  0.12500000  0.12500000  1
  C  C0  1  0.50000000  0.50000000  0.50000000  1
  C  C1  1  0.75000000  0.75000000  0.75000000  1
loop_
_geom_bond_atom_site_label_1
_geom_bond_atom_site_label_2
_geom_bond_distance
_geom_bond_site_symmetry_2
Ni0 Ni5 2.552439 1_555
Ni0 Ni4 2.552439 1_555
Ni0 Ni1 2.552439 1_555
Ni1 Ni5 2.552439 1_555
Ni1 Ni4 2.552439 1_555
Ni2 Ni7 2.552439 1_465
Ni2 Ni6 2.552439 1_456
Ni2 Ni3 2.552439 1_455
Ni3 Ni7 2.552439 1_565
Ni3 Ni6 2.552439 1_556
Ni4 Ni5 2.552439 1_555
Ni6 Ni7 2.552439 1_564
Mo0 Ni0 2.614087 1_556
Mo0 Ni5 2.614087 1_565
Mo0 Ni2 2.790832 1_555
Mo0 Ni3 2.790836 1_455
Mo1 Ni4 2.614087 1_655
Mo1 Ni5 2.614088 1_565
Mo1 Ni6 2.790832 1_555
Mo1 Ni3 2.790835 1_554
Mo2 Ni4 2.614088 1_655
Mo2 Ni0 2.614088 1_556
Mo2 Ni7 2.790832 1_555
Mo2 Ni3 2.790835 1_545
Mo3 Ni1 2.614084 1_555
Mo3 Ni5 2.614092 1_565
Mo3 Ni2 2.790839 1_554
Mo3 Ni6 2.790839 1_455
Mo4 Ni2 2.614088 1_555
Mo4 Ni6 2.614088 1_555
Mo4 Ni5 2.790832 1_565
Mo4 Ni1 2.790835 1_565
Mo5 Ni3 2.614084 1_555
Mo5 Ni2 2.614092 1_555
Mo5 Ni0 2.790839 1_566
Mo5 Ni5 2.790839 1_566
Mo6 Ni6 2.614087 1_555
Mo6 Ni7 2.614087 1_555
Mo6 Ni4 2.790832 1_655
Mo6 Ni1 2.790836 1_655
Mo7 Ni3 2.614084 1_555
Mo7 Ni7 2.614092 1_555
Mo7 Ni4 2.790839 1_656
Mo7 Ni0 2.790839 1_656
Mo8 Ni1 2.614084 1_555
Mo8 Ni0 2.614092 1_556
Mo8 Ni2 2.790838 1_545
Mo8 Ni7 2.790839 1_455
Mo9 Ni2 2.614087 1_555
Mo9 Ni7 2.614088 1_555
Mo9 Ni0 2.790832 1_556
Mo9 Ni1 2.790835 1_556
Mo10 Ni3 2.614084 1_555
Mo10 Ni6 2.614092 1_555
Mo10 Ni4 2.790838 1_665
Mo10 Ni5 2.790839 1_665
Mo11 Ni1 2.614084 1_555
Mo11 Ni4 2.614092 1_655
Mo11 Ni6 2.790839 1_545
Mo11 Ni7 2.790839 1_554
As0 Ni2 2.367836 1_554
As0 Ni4 2.367836 1_555
As0 Ni6 2.367836 1_455
As0 Ni0 2.367836 1_555
As0 Ni1 2.367840 1_555
As0 Ni3 2.367840 1_454
As1 Ni2 2.367836 1_545
As1 Ni4 2.367836 1_555
As1 Ni7 2.367836 1_455
As1 Ni5 2.367836 1_555
As1 Ni1 2.367840 1_555
As1 Ni3 2.367840 1_445
As2 Ni7 2.367836 1_554
As2 Ni5 2.367836 1_555
As2 Ni6 2.367836 1_545
As2 Ni0 2.367836 1_555
As2 Ni1 2.367841 1_555
As2 Ni3 2.367841 1_544
As3 Ni0 2.367843 1_555
As3 Ni6 2.367843 1_445
As3 Ni4 2.367843 1_555
As3 Ni2 2.367843 1_544
As3 Ni5 2.367843 1_555
As3 Ni7 2.367843 1_454
C0 Mo1 2.099062 1_555
C0 Mo8 2.099062 1_555
C0 Mo2 2.099062 1_555
C0 Mo3 2.099062 1_555
C0 Mo0 2.099062 1_555
C0 Mo11 2.099062 1_555
C1 Mo10 2.099062 1_555
C1 Mo9 2.099062 1_555
C1 Mo7 2.099062 1_555
C1 Mo4 2.099062 1_555
C1 Mo5 2.099062 1_555
C1 Mo6 2.099062 1_555
