# generated using pymatgen
data_LiMg2(Ni10P3)2
_symmetry_space_group_name_H-M   'P 1'
_cell_length_a   7.76271405
_cell_length_b   7.76271420
_cell_length_c   7.76271391
_cell_angle_alpha   60.00000125
_cell_angle_beta   60.00000061
_cell_angle_gamma   59.99999866
_symmetry_Int_Tables_number   1
_chemical_formula_structural   LiMg2(Ni10P3)2
_chemical_formula_sum   'Li1 Mg2 Ni20 P6'
_cell_volume   330.76973856
_cell_formula_units_Z   1
loop_
 _symmetry_equiv_pos_site_id
 _symmetry_equiv_pos_as_xyz
  1  'x, y, z'
loop_
 _atom_site_type_symbol
 _atom_site_label
 _atom_site_symmetry_multiplicity
 _atom_site_fract_x
 _atom_site_fract_y
 _atom_site_fract_z
 _atom_site_occupancy
  Li  Li0  1  0.00000000  0.00000000  0.00000000  1
  Mg  Mg0  1  0.25000000  0.25000000  0.25000000  1
  Mg  Mg1  1  0.75000000  0.75000000  0.75000000  1
  Ni  Ni0  1  0.38448022  0.38448022  0.84656035  1
  Ni  Ni1  1  0.61552078  0.61552078  0.61551978  1
  Ni  Ni2  1  1.00000000  0.34997347  0.00000000  1
  Ni  Ni3  1  0.34997347  1.00000000  0.00000000  1
  Ni  Ni4  1  1.00000000  0.34997347  0.65002653  1
  Ni  Ni5  1  0.84656035  0.38448022  0.38447922  1
  Ni  Ni6  1  0.34997347  1.00000000  0.65002653  1
  Ni  Ni7  1  0.00000000  0.00000000  0.34997347  1
  Ni  Ni8  1  0.65002653  0.34997347  0.00000000  1
  Ni  Ni9  1  0.00000000  0.65002653  0.34997347  1
  Ni  Ni10  1  0.00000000  0.00000000  0.65002653  1
  Ni  Ni11  1  0.34997347  0.65002653  1.00000000  1
  Ni  Ni12  1  0.65002653  0.00000000  1.00000000  1
  Ni  Ni13  1  0.00000000  0.65002653  1.00000000  1
  Ni  Ni14  1  0.38448022  0.84656135  0.38448022  1
  Ni  Ni15  1  0.61551978  0.61552078  0.15343865  1
  Ni  Ni16  1  0.61551978  0.15343965  0.61551978  1
  Ni  Ni17  1  0.15343965  0.61552078  0.61552078  1
  Ni  Ni18  1  0.38447922  0.38448022  0.38447922  1
  Ni  Ni19  1  0.65002653  0.00000000  0.34997347  1
  P  P0  1  0.26247391  0.26247391  0.73752609  1
  P  P1  1  0.73752609  0.73752609  0.26247391  1
  P  P2  1  0.73752609  0.26247391  0.26247391  1
  P  P3  1  0.26247391  0.73752609  0.73752609  1
  P  P4  1  0.26247391  0.73752609  0.26247391  1
  P  P5  1  0.73752609  0.26247391  0.73752609  1
loop_
_geom_bond_atom_site_label_1
_geom_bond_atom_site_label_2
_geom_bond_distance
_geom_bond_site_symmetry_2
Li0 Ni7 2.716744 1_555
Li0 Ni10 2.716744 1_554
Li0 Ni8 2.716744 1_455
Li0 Ni11 2.716744 1_544
Li0 Ni3 2.716744 1_545
Li0 Ni12 2.716744 1_454
Li0 Ni6 2.716744 1_544
Li0 Ni19 2.716744 1_455
Li0 Ni4 2.716744 1_454
Li0 Ni9 2.716744 1_545
Li0 Ni2 2.716744 1_455
Li0 Ni13 2.716744 1_544
Li0 P2 2.881474 1_455
Li0 P3 2.881474 1_544
Li0 P4 2.881474 1_545
Li0 P5 2.881474 1_454
Li0 P0 2.881474 1_554
Li0 P1 2.881474 1_445
Mg0 Ni18 2.557087 1_555
Mg0 Ni14 2.557087 1_545
Mg0 Ni5 2.557093 1_455
Mg0 Ni0 2.557093 1_554
Mg0 Ni2 2.981407 1_455
Mg0 Ni4 2.981407 1_455
Mg0 Ni12 2.981407 1_554
Mg0 Ni19 2.981407 1_555
Mg0 Ni6 2.981407 1_545
Mg0 Ni3 2.981407 1_545
Mg0 Ni9 2.981407 1_555
Mg0 Ni13 2.981407 1_554
Mg0 Ni8 2.981407 1_555
Mg0 Ni10 2.981407 1_555
Mg0 Ni7 2.981407 1_555
Mg0 Ni11 2.981407 1_554
Mg1 Ni1 2.557087 1_555
Mg1 Ni15 2.557087 1_556
Mg1 Ni17 2.557093 1_655
Mg1 Ni16 2.557093 1_565
Mg1 Ni13 2.981407 1_655
Mg1 Ni9 2.981407 1_655
Mg1 Ni3 2.981407 1_556
Mg1 Ni6 2.981407 1_555
Mg1 Ni19 2.981407 1_565
Mg1 Ni12 2.981407 1_565
Mg1 Ni4 2.981407 1_555
Mg1 Ni2 2.981407 1_556
Mg1 Ni11 2.981407 1_555
Mg1 Ni10 2.981407 1_665
Mg1 Ni7 2.981407 1_665
Mg1 Ni8 2.981407 1_556
Ni0 P5 2.238441 1_555
Ni0 P3 2.238441 1_555
Ni0 P0 2.238447 1_555
Ni1 P1 2.238441 1_555
Ni1 P3 2.238447 1_555
Ni1 P5 2.238447 1_555
Ni2 P0 2.147744 1_654
Ni2 P2 2.147744 1_555
Ni3 P0 2.147744 1_564
Ni3 P4 2.147744 1_555
Ni4 P0 2.147744 1_655
Ni4 P5 2.147744 1_555
Ni5 P2 2.238441 1_555
Ni5 P1 2.238441 1_555
Ni5 P5 2.238447 1_555
Ni6 P0 2.147744 1_565
Ni6 P3 2.147744 1_555
Ni7 P4 2.147744 1_545
Ni7 P2 2.147744 1_455
Ni8 P2 2.147744 1_555
Ni8 P5 2.147744 1_554
Ni9 P1 2.147744 1_455
Ni9 P4 2.147744 1_555
Ni10 P5 2.147744 1_455
Ni10 P3 2.147744 1_545
Ni11 P3 2.147744 1_555
Ni11 P4 2.147744 1_556
Ni12 P1 2.147744 1_546
Ni12 P5 2.147744 1_555
Ni13 P1 2.147744 1_456
Ni13 P3 2.147744 1_555
Ni14 P1 2.238441 1_555
Ni14 P3 2.238441 1_555
Ni14 P4 2.238453 1_555
Ni15 P4 2.238441 1_555
Ni15 P1 2.238447 1_555
Ni15 P2 2.238447 1_555
Ni16 P0 2.238441 1_555
Ni16 P2 2.238441 1_555
Ni16 P5 2.238447 1_555
Ni17 P3 2.238434 1_555
Ni17 P4 2.238447 1_555
Ni17 P0 2.238447 1_555
Ni18 P4 2.238441 1_555
Ni18 P2 2.238447 1_555
Ni18 P0 2.238447 1_555
Ni19 P1 2.147744 1_545
Ni19 P2 2.147744 1_555
