# generated using pymatgen
data_Y2SiO5
_symmetry_space_group_name_H-M   'P 1'
_cell_length_a   7.96620319
_cell_length_b   7.96620319
_cell_length_c   10.42107312
_cell_angle_alpha   61.14213265
_cell_angle_beta   61.14213265
_cell_angle_gamma   50.07524301
_symmetry_Int_Tables_number   1
_chemical_formula_structural   Y2SiO5
_chemical_formula_sum   'Y8 Si4 O20'
_cell_volume   429.21501303
_cell_formula_units_Z   4
loop_
 _symmetry_equiv_pos_site_id
 _symmetry_equiv_pos_as_xyz
  1  'x, y, z'
loop_
 _atom_site_type_symbol
 _atom_site_label
 _atom_site_symmetry_multiplicity
 _atom_site_fract_x
 _atom_site_fract_y
 _atom_site_fract_z
 _atom_site_occupancy
  Y  Y0  1  0.78133132  0.29200909  0.03445076  1
  Y  Y1  1  0.70799091  0.21866868  0.46554924  1
  Y  Y2  1  0.21866868  0.70799091  0.96554924  1
  Y  Y3  1  0.29200909  0.78133132  0.53445076  1
  Y  Y4  1  0.23589185  0.48070608  0.33570632  1
  Y  Y5  1  0.51929392  0.76410815  0.16429368  1
  Y  Y6  1  0.76410815  0.51929392  0.66429368  1
  Y  Y7  1  0.48070608  0.23589185  0.83570632  1
  Si  Si0  1  0.72788873  0.90902453  0.30687324  1
  Si  Si1  1  0.09097547  0.27211127  0.19312676  1
  Si  Si2  1  0.27211127  0.09097547  0.69312676  1
  Si  Si3  1  0.90902453  0.72788873  0.80687324  1
  O  O0  1  0.42242136  0.61302730  0.10269917  1
  O  O1  1  0.38697270  0.57757864  0.39730083  1
  O  O2  1  0.57757864  0.38697270  0.89730083  1
  O  O3  1  0.61302730  0.42242136  0.60269917  1
  O  O4  1  0.86824630  0.73030181  0.43616332  1
  O  O5  1  0.26969819  0.13175370  0.06383668  1
  O  O6  1  0.13175370  0.26969819  0.56383668  1
  O  O7  1  0.73030181  0.86824630  0.93616332  1
  O  O8  1  0.55630922  0.85043847  0.32456078  1
  O  O9  1  0.14956153  0.44369078  0.17543922  1
  O  O10  1  0.44369078  0.14956153  0.67543922  1
  O  O11  1  0.85043847  0.55630922  0.82456078  1
  O  O12  1  0.16689596  0.59450822  0.82091119  1
  O  O13  1  0.40549178  0.83310404  0.67908881  1
  O  O14  1  0.83310404  0.40549178  0.17908881  1
  O  O15  1  0.59450822  0.16689596  0.32091119  1
  O  O16  1  0.91332125  0.90653684  0.64028764  1
  O  O17  1  0.09346316  0.08667875  0.85971236  1
  O  O18  1  0.08667875  0.09346316  0.35971236  1
  O  O19  1  0.90653684  0.91332125  0.14028764  1
loop_
_geom_bond_atom_site_label_1
_geom_bond_atom_site_label_2
_geom_bond_distance
_geom_bond_site_symmetry_2
O0 Y2 2.206616 1_554
O0 Y5 2.207272 1_555
O0 Y4 2.296119 1_555
O0 Y0 2.372361 1_555
O1 Y3 2.206616 1_555
O1 Y4 2.207272 1_555
O1 Y5 2.296119 1_555
O1 Y1 2.372361 1_555
O2 Y0 2.206616 1_556
O2 Y7 2.207272 1_555
O2 Y6 2.296119 1_555
O2 Y2 2.372361 1_555
O3 Y1 2.206616 1_555
O3 Y6 2.207272 1_555
O3 Y7 2.296119 1_555
O3 Y3 2.372361 1_555
O4 Si0 1.628422 1_555
O4 Y6 2.279107 1_555
O4 Y4 2.280797 1_655
O5 Si1 1.628422 1_555
O5 Y7 2.279107 1_554
O5 Y5 2.280797 1_545
O6 Si2 1.628422 1_555
O6 Y4 2.279107 1_555
O6 Y6 2.280797 1_455
O7 Si3 1.628422 1_555
O7 Y5 2.279107 1_556
O7 Y7 2.280797 1_565
O8 Si0 1.616357 1_555
O8 Y5 2.278976 1_555
O8 Y3 2.323870 1_555
O9 Si1 1.616357 1_555
O9 Y4 2.278976 1_555
O9 Y2 2.323870 1_554
O10 Si2 1.616357 1_555
O10 Y7 2.278976 1_555
O10 Y1 2.323870 1_555
O11 Si3 1.616357 1_555
O11 Y6 2.278976 1_555
O11 Y0 2.323870 1_556
O12 Si3 1.645824 1_455
O12 Y7 2.283553 1_555
O12 Y2 2.377650 1_555
O12 Y3 2.619785 1_555
O13 Si2 1.645824 1_565
O13 Y6 2.283553 1_555
O13 Y3 2.377650 1_555
O13 Y2 2.619785 1_555
O14 Si1 1.645824 1_655
O14 Y5 2.283553 1_555
O14 Y0 2.377650 1_555
O14 Y1 2.619785 1_555
O15 Si0 1.645824 1_545
O15 Y4 2.283553 1_555
O15 Y1 2.377650 1_555
O15 Y0 2.619785 1_555
O16 Si3 1.631131 1_555
O16 Y3 2.302147 1_655
O16 Y1 2.336272 1_565
O17 Si2 1.631131 1_555
O17 Y2 2.302147 1_545
O17 Y0 2.336272 1_456
O18 Si1 1.631131 1_555
O18 Y1 2.302147 1_455
O18 Y3 2.336272 1_545
O19 Si0 1.631131 1_555
O19 Y0 2.302147 1_565
O19 Y2 2.336272 1_654
