# generated using pymatgen
data_RbBO2
_symmetry_space_group_name_H-M   'P 1'
_cell_length_a   8.02591370
_cell_length_b   8.02591370
_cell_length_c   8.02591373
_cell_angle_alpha   110.24646571
_cell_angle_beta   110.24646571
_cell_angle_gamma   110.24647681
_symmetry_Int_Tables_number   1
_chemical_formula_structural   RbBO2
_chemical_formula_sum   'Rb6 B6 O12'
_cell_volume   386.13523950
_cell_formula_units_Z   6
loop_
 _symmetry_equiv_pos_site_id
 _symmetry_equiv_pos_as_xyz
  1  'x, y, z'
loop_
 _atom_site_type_symbol
 _atom_site_label
 _atom_site_symmetry_multiplicity
 _atom_site_fract_x
 _atom_site_fract_y
 _atom_site_fract_z
 _atom_site_occupancy
  Rb  Rb0  1  0.75000000  0.18822263  0.31177737  1
  Rb  Rb1  1  0.31177737  0.75000000  0.18822263  1
  Rb  Rb2  1  0.18822263  0.31177737  0.75000000  1
  Rb  Rb3  1  0.25000000  0.81177737  0.68822263  1
  Rb  Rb4  1  0.68822263  0.25000000  0.81177737  1
  Rb  Rb5  1  0.81177737  0.68822263  0.25000000  1
  B  B0  1  0.75000000  0.86006083  0.63993917  1
  B  B1  1  0.63993917  0.75000000  0.86006083  1
  B  B2  1  0.86006083  0.63993917  0.75000000  1
  B  B3  1  0.25000000  0.13993917  0.36006083  1
  B  B4  1  0.36006083  0.25000000  0.13993917  1
  B  B5  1  0.13993917  0.36006083  0.25000000  1
  O  O0  1  0.03996545  0.46003455  0.25000000  1
  O  O1  1  0.46003455  0.25000000  0.03996545  1
  O  O2  1  0.25000000  0.03996545  0.46003455  1
  O  O3  1  0.96003455  0.53996545  0.75000000  1
  O  O4  1  0.53996545  0.75000000  0.96003455  1
  O  O5  1  0.75000000  0.96003455  0.53996545  1
  O  O6  1  0.25000000  0.35492929  0.14507071  1
  O  O7  1  0.35492929  0.14507071  0.25000000  1
  O  O8  1  0.14507071  0.25000000  0.35492929  1
  O  O9  1  0.75000000  0.64507071  0.85492929  1
  O  O10  1  0.64507071  0.85492929  0.75000000  1
  O  O11  1  0.85492929  0.75000000  0.64507071  1
loop_
_geom_bond_atom_site_label_1
_geom_bond_atom_site_label_2
_geom_bond_distance
_geom_bond_site_symmetry_2
B0 O5 1.316520 1_555
B0 O10 1.416775 1_555
B0 O11 1.416775 1_555
B1 O4 1.316520 1_555
B1 O10 1.416775 1_555
B1 O9 1.416775 1_555
B2 O3 1.316520 1_555
B2 O11 1.416775 1_555
B2 O9 1.416775 1_555
B3 O2 1.316520 1_555
B3 O7 1.416775 1_555
B3 O8 1.416775 1_555
B4 O1 1.316520 1_555
B4 O7 1.416775 1_555
B4 O6 1.416775 1_555
B5 O0 1.316520 1_555
B5 O8 1.416775 1_555
B5 O6 1.416775 1_555
O0 Rb0 2.907643 1_455
O0 Rb1 2.907643 1_555
O0 Rb3 2.985338 1_555
O0 Rb4 2.985338 1_454
O0 Rb5 3.004931 1_455
O1 Rb2 2.907643 1_554
O1 Rb0 2.907643 1_555
O1 Rb5 2.985337 1_555
O1 Rb3 2.985338 1_544
O1 Rb4 3.004931 1_554
O2 Rb2 2.907643 1_555
O2 Rb1 2.907643 1_545
O2 Rb5 2.985337 1_445
O2 Rb4 2.985338 1_555
O2 Rb3 3.004931 1_545
O3 Rb4 2.907643 1_555
O3 Rb3 2.907643 1_655
O3 Rb1 2.985338 1_656
O3 Rb0 2.985338 1_555
O3 Rb2 3.004931 1_655
O4 Rb5 2.907643 1_556
O4 Rb3 2.907643 1_555
O4 Rb2 2.985337 1_555
O4 Rb0 2.985338 1_566
O4 Rb1 3.004931 1_556
O5 Rb5 2.907643 1_555
O5 Rb4 2.907643 1_565
O5 Rb2 2.985337 1_665
O5 Rb1 2.985338 1_555
O5 Rb0 3.004931 1_565
O6 Rb1 2.907363 1_555
O6 Rb2 2.907364 1_554
O7 Rb1 2.907364 1_545
O7 Rb0 2.907364 1_555
O8 Rb0 2.907363 1_455
O8 Rb2 2.907364 1_555
O9 Rb4 2.907363 1_555
O9 Rb5 2.907364 1_556
O10 Rb4 2.907364 1_565
O10 Rb3 2.907364 1_555
O11 Rb3 2.907363 1_655
O11 Rb5 2.907364 1_555
