# generated using pymatgen
data_Ca4SnHg2Pb
_symmetry_space_group_name_H-M   'P 1'
_cell_length_a   7.67117926
_cell_length_b   5.42756268
_cell_length_c   10.85280621
_cell_angle_alpha   90.00000000
_cell_angle_beta   90.00089595
_cell_angle_gamma   90.00000000
_symmetry_Int_Tables_number   1
_chemical_formula_structural   Ca4SnHg2Pb
_chemical_formula_sum   'Ca8 Sn2 Hg4 Pb2'
_cell_volume   451.86533627
_cell_formula_units_Z   2
loop_
 _symmetry_equiv_pos_site_id
 _symmetry_equiv_pos_as_xyz
  1  'x, y, z'
loop_
 _atom_site_type_symbol
 _atom_site_label
 _atom_site_symmetry_multiplicity
 _atom_site_fract_x
 _atom_site_fract_y
 _atom_site_fract_z
 _atom_site_occupancy
  Ca  Ca0  1  0.49874809  0.75000000  0.12663089  1
  Ca  Ca1  1  0.00121116  0.75000000  0.12668806  1
  Ca  Ca2  1  0.50118419  0.25000100  0.37331036  1
  Ca  Ca3  1  0.99872558  0.25000100  0.37334888  1
  Ca  Ca4  1  0.99876062  0.75000000  0.62395624  1
  Ca  Ca5  1  0.50130487  0.75000000  0.62399645  1
  Ca  Ca6  1  0.00129103  0.25000100  0.87600189  1
  Ca  Ca7  1  0.49875573  0.25000100  0.87606774  1
  Sn  Sn0  1  0.24992095  0.25000100  0.12487416  1
  Sn  Sn1  1  0.74993194  0.75000000  0.37512676  1
  Hg  Hg0  1  0.74998513  0.25000100  0.12422583  1
  Hg  Hg1  1  0.24998029  0.75000000  0.37578204  1
  Hg  Hg2  1  0.75002576  0.25000100  0.62446844  1
  Hg  Hg3  1  0.25002800  0.75000000  0.87552010  1
  Pb  Pb0  1  0.25002263  0.25000100  0.62440254  1
  Pb  Pb1  1  0.75002803  0.75000000  0.87559762  1
loop_
_geom_bond_atom_site_label_1
_geom_bond_atom_site_label_2
_geom_bond_distance
_geom_bond_site_symmetry_2
Ca0 Hg1 3.309606 1_555
Ca0 Sn1 3.314489 1_555
Ca0 Sn0 3.317899 1_555
Ca0 Sn0 3.317907 1_565
Ca0 Hg3 3.326746 1_554
Ca0 Hg0 3.328616 1_555
Ca0 Hg0 3.328625 1_565
Ca0 Pb1 3.337409 1_554
Ca1 Hg1 3.309056 1_555
Ca1 Sn1 3.314459 1_455
Ca1 Sn0 3.317385 1_555
Ca1 Sn0 3.317393 1_565
Ca1 Hg3 3.327728 1_554
Ca1 Hg0 3.328572 1_455
Ca1 Hg0 3.328581 1_465
Ca1 Pb1 3.337437 1_454
Ca2 Hg0 3.309162 1_555
Ca2 Sn0 3.314316 1_555
Ca2 Sn1 3.317552 1_555
Ca2 Sn1 3.317561 1_545
Ca2 Hg2 3.327700 1_555
Ca2 Hg1 3.328475 1_555
Ca2 Hg1 3.328484 1_545
Ca2 Pb0 3.337406 1_555
Ca3 Hg0 3.309187 1_555
Ca3 Sn0 3.314403 1_655
Ca3 Sn1 3.317752 1_555
Ca3 Sn1 3.317761 1_545
Ca3 Hg2 3.326783 1_555
Ca3 Hg1 3.328697 1_655
Ca3 Hg1 3.328706 1_645
Ca3 Pb0 3.337616 1_655
Ca4 Sn1 3.306975 1_555
Ca4 Hg1 3.311858 1_655
Ca4 Hg2 3.317441 1_555
Ca4 Hg2 3.317450 1_565
Ca4 Pb0 3.328628 1_655
Ca4 Pb0 3.328637 1_665
Ca4 Pb1 3.331568 1_555
Ca4 Hg3 3.342006 1_655
Ca5 Sn1 3.306488 1_555
Ca5 Hg1 3.312632 1_555
Ca5 Hg2 3.317379 1_555
Ca5 Hg2 3.317388 1_565
Ca5 Pb0 3.328718 1_555
Ca5 Pb0 3.328726 1_565
Ca5 Pb1 3.331120 1_555
Ca5 Hg3 3.341741 1_555
Ca6 Sn0 3.306474 1_556
Ca6 Hg0 3.312682 1_456
Ca6 Hg3 3.317450 1_555
Ca6 Hg3 3.317459 1_545
Ca6 Pb1 3.328632 1_455
Ca6 Pb1 3.328641 1_445
Ca6 Pb0 3.331190 1_555
Ca6 Hg2 3.341728 1_455
Ca7 Sn0 3.306846 1_556
Ca7 Hg0 3.311710 1_556
Ca7 Hg3 3.317410 1_555
Ca7 Hg3 3.317419 1_545
Ca7 Pb1 3.328674 1_555
Ca7 Pb1 3.328683 1_545
Ca7 Pb0 3.331733 1_555
Ca7 Hg2 3.342382 1_555
