# generated using pymatgen
data_Cs7B12(IrPt)6
_symmetry_space_group_name_H-M   'P 1'
_cell_length_a   9.41089816
_cell_length_b   9.41089818
_cell_length_c   9.41089806
_cell_angle_alpha   111.52944902
_cell_angle_beta   111.52946024
_cell_angle_gamma   111.52945607
_symmetry_Int_Tables_number   1
_chemical_formula_structural   Cs7B12(IrPt)6
_chemical_formula_sum   'Cs7 B12 Ir6 Pt6'
_cell_volume   587.66457438
_cell_formula_units_Z   1
loop_
 _symmetry_equiv_pos_site_id
 _symmetry_equiv_pos_as_xyz
  1  'x, y, z'
loop_
 _atom_site_type_symbol
 _atom_site_label
 _atom_site_symmetry_multiplicity
 _atom_site_fract_x
 _atom_site_fract_y
 _atom_site_fract_z
 _atom_site_occupancy
  Cs  Cs0  1  0.99504972  0.73437338  0.73437338  1
  Cs  Cs1  1  0.73437338  0.73437338  0.99504972  1
  Cs  Cs2  1  0.73437338  0.99504972  0.73437338  1
  Cs  Cs3  1  0.26562662  0.00495028  0.26562662  1
  Cs  Cs4  1  0.00495028  0.26562662  0.26562662  1
  Cs  Cs5  1  0.26562662  0.26562662  0.00495028  1
  Cs  Cs6  1  0.50000000  0.50000000  0.50000000  1
  B  B0  1  0.26645582  0.73354418  0.50000000  1
  B  B1  1  0.73354418  0.50000000  0.26645582  1
  B  B2  1  0.50000000  0.26645582  0.73354418  1
  B  B3  1  0.73354418  0.26645582  0.50000000  1
  B  B4  1  0.26645582  0.50000000  0.73354418  1
  B  B5  1  0.50000000  0.73354418  0.26645582  1
  B  B6  1  0.06078745  0.93921255  0.50000000  1
  B  B7  1  0.93921255  0.50000000  0.06078745  1
  B  B8  1  0.50000000  0.06078745  0.93921255  1
  B  B9  1  0.93921255  0.06078745  0.50000000  1
  B  B10  1  0.06078745  0.50000000  0.93921255  1
  B  B11  1  0.50000000  0.93921255  0.06078745  1
  Ir  Ir0  1  0.67222249  0.32777751  0.00000000  1
  Ir  Ir1  1  0.32777751  1.00000000  0.67222249  1
  Ir  Ir2  1  1.00000000  0.67222249  0.32777751  1
  Ir  Ir3  1  0.32777751  0.67222249  1.00000000  1
  Ir  Ir4  1  0.67222249  0.00000000  0.32777751  1
  Ir  Ir5  1  0.00000000  0.32777751  0.67222249  1
  Pt  Pt0  1  0.63806938  0.24355362  0.24355362  1
  Pt  Pt1  1  0.24355362  0.24355362  0.63806938  1
  Pt  Pt2  1  0.24355362  0.63806938  0.24355362  1
  Pt  Pt3  1  0.75644638  0.36193062  0.75644638  1
  Pt  Pt4  1  0.36193062  0.75644638  0.75644638  1
  Pt  Pt5  1  0.75644638  0.75644638  0.36193062  1
loop_
_geom_bond_atom_site_label_1
_geom_bond_atom_site_label_2
_geom_bond_distance
_geom_bond_site_symmetry_2
Cs0 Pt4 3.304967 1_655
Cs0 Cs6 3.574923 1_555
Cs1 Pt5 3.304967 1_556
Cs1 Cs6 3.574923 1_555
Cs2 Pt3 3.304968 1_565
Cs2 Cs6 3.574923 1_555
Cs3 Pt2 3.304968 1_545
Cs3 Cs6 3.574923 1_555
Cs4 Pt0 3.304967 1_455
Cs4 Cs6 3.574923 1_555
Cs5 Pt1 3.304967 1_554
Cs5 Cs6 3.574923 1_555
Cs6 Pt3 3.696688 1_555
Cs6 Pt2 3.696688 1_555
Cs6 Pt1 3.696689 1_555
Cs6 Pt5 3.696689 1_555
Cs6 Pt4 3.696689 1_555
Cs6 Pt0 3.696689 1_555
B0 Ir2 2.125168 1_455
B0 Ir1 2.125168 1_555
B0 Pt4 2.136062 1_555
B0 Pt2 2.136062 1_555
B0 Cs2 3.353473 1_555
B0 Cs4 3.353473 1_555
B0 Cs6 3.634094 1_555
B1 Ir2 2.125168 1_555
B1 Ir0 2.125168 1_555
B1 Pt0 2.136062 1_555
B1 Pt5 2.136062 1_555
B1 Cs5 3.353473 1_555
B1 Cs0 3.353473 1_555
B1 Cs6 3.634094 1_555
B2 Ir0 2.125168 1_556
B2 Ir1 2.125168 1_545
B2 Pt1 2.136062 1_555
B2 Pt3 2.136062 1_555
B2 Cs3 3.353473 1_555
B2 Cs1 3.353473 1_555
B2 Cs6 3.634094 1_555
B3 Ir5 2.125168 1_655
B3 Ir4 2.125168 1_555
B3 Pt0 2.136062 1_555
B3 Pt3 2.136062 1_555
B3 Cs3 3.353473 1_555
B3 Cs0 3.353473 1_555
B3 Cs6 3.634094 1_555
B4 Ir5 2.125168 1_555
B4 Ir3 2.125168 1_555
B4 Pt4 2.136062 1_555
B4 Pt1 2.136062 1_555
B4 Cs1 3.353473 1_555
B4 Cs4 3.353473 1_555
B4 Cs6 3.634094 1_555
B5 Ir3 2.125168 1_554
B5 Ir4 2.125168 1_565
B5 Pt5 2.136062 1_555
B5 Pt2 2.136062 1_555
B5 Cs2 3.353473 1_555
B5 Cs5 3.353473 1_555
B5 Cs6 3.634094 1_555
B6 B9 1.891782 1_465
B6 Ir1 2.131418 1_555
B6 Ir2 2.131419 1_455
B6 Pt5 2.205100 1_455
B6 Pt1 2.205100 1_565
B7 Ir0 2.131418 1_555
B7 Ir2 2.131419 1_555
B7 Pt2 2.205100 1_655
B7 Pt3 2.205100 1_554
B8 Ir1 2.131418 1_545
B8 Ir0 2.131418 1_556
B8 Pt0 2.205100 1_556
B8 Pt4 2.205101 1_545
B9 Ir4 2.131418 1_555
B9 Ir5 2.131419 1_655
B9 Pt1 2.205100 1_655
B9 Pt5 2.205100 1_545
B10 B7 1.891782 1_456
B10 Ir3 2.131418 1_555
B10 Ir5 2.131419 1_555
B10 Pt3 2.205100 1_455
B10 Pt2 2.205100 1_556
B11 B8 1.891782 1_564
B11 Ir4 2.131418 1_565
B11 Ir3 2.131418 1_554
B11 Pt4 2.205100 1_554
B11 Pt0 2.205101 1_565
