# generated using pymatgen
data_Ta3Al2FeN
_symmetry_space_group_name_H-M   'P 1'
_cell_length_a   8.13806769
_cell_length_b   8.13806862
_cell_length_c   8.13806712
_cell_angle_alpha   60.00000207
_cell_angle_beta   59.99999826
_cell_angle_gamma   60.00000032
_symmetry_Int_Tables_number   1
_chemical_formula_structural   Ta3Al2FeN
_chemical_formula_sum   'Ta12 Al8 Fe4 N4'
_cell_volume   381.10874741
_cell_formula_units_Z   4
loop_
 _symmetry_equiv_pos_site_id
 _symmetry_equiv_pos_as_xyz
  1  'x, y, z'
loop_
 _atom_site_type_symbol
 _atom_site_label
 _atom_site_symmetry_multiplicity
 _atom_site_fract_x
 _atom_site_fract_y
 _atom_site_fract_z
 _atom_site_occupancy
  Ta  Ta0  1  0.55698675  0.94301325  0.55698675  1
  Ta  Ta1  1  0.30698675  0.69301325  0.69301325  1
  Ta  Ta2  1  0.69301325  0.30698675  0.30698675  1
  Ta  Ta3  1  0.30698675  0.69301325  0.30698675  1
  Ta  Ta4  1  0.69301325  0.69301325  0.30698675  1
  Ta  Ta5  1  0.30698675  0.30698675  0.69301325  1
  Ta  Ta6  1  0.55698675  0.55698675  0.94301325  1
  Ta  Ta7  1  0.94301325  0.55698675  0.55698675  1
  Ta  Ta8  1  0.55698675  0.94301325  0.94301325  1
  Ta  Ta9  1  0.94301325  0.94301325  0.55698675  1
  Ta  Ta10  1  0.69301325  0.30698675  0.69301325  1
  Ta  Ta11  1  0.94301325  0.55698675  0.94301325  1
  Al  Al0  1  0.91759484  0.91759484  0.91759484  1
  Al  Al1  1  0.00278351  0.33240516  0.33240516  1
  Al  Al2  1  0.33240516  0.00278351  0.33240516  1
  Al  Al3  1  0.33240516  0.33240516  0.00278351  1
  Al  Al4  1  0.91759484  0.24721649  0.91759484  1
  Al  Al5  1  0.91759484  0.91759484  0.24721649  1
  Al  Al6  1  0.24721649  0.91759484  0.91759484  1
  Al  Al7  1  0.33240516  0.33240516  0.33240516  1
  Fe  Fe0  1  0.12500000  0.12500000  0.12500000  1
  Fe  Fe1  1  0.62500000  0.12500000  0.12500000  1
  Fe  Fe2  1  0.12500000  0.62500000  0.12500000  1
  Fe  Fe3  1  0.12500000  0.12500000  0.62500000  1
  N  N0  1  0.62500000  0.62500000  0.62500000  1
  N  N1  1  0.12500000  0.62500000  0.62500000  1
  N  N2  1  0.62500000  0.12500000  0.62500000  1
  N  N3  1  0.62500000  0.62500000  0.12500000  1
loop_
_geom_bond_atom_site_label_1
_geom_bond_atom_site_label_2
_geom_bond_distance
_geom_bond_site_symmetry_2
Al0 Fe1 2.485658 1_566
Al0 Fe3 2.485658 1_665
Al0 Fe2 2.485658 1_656
Al0 Al5 2.682483 1_556
Al0 Al6 2.682483 1_655
Al0 Al4 2.682484 1_565
Al0 Ta9 2.743438 1_555
Al0 Ta8 2.743438 1_555
Al0 Ta11 2.743438 1_555
Al0 Ta1 2.911976 1_655
Al0 Ta4 2.911976 1_556
Al0 Ta10 2.911976 1_565
Al1 Fe0 2.485656 1_555
Al1 Fe3 2.485662 1_555
Al1 Fe2 2.485663 1_555
Al1 Al3 2.682483 1_555
Al1 Al7 2.682483 1_555
Al1 Al2 2.682483 1_555
Al1 Ta2 2.743430 1_455
Al1 Ta10 2.743434 1_455
Al1 Ta4 2.743435 1_455
Al1 Ta11 2.911972 1_454
Al1 Ta9 2.911973 1_445
Al1 Ta7 2.911979 1_455
Al2 Fe0 2.485656 1_555
Al2 Fe3 2.485662 1_555
Al2 Fe1 2.485662 1_555
Al2 Al3 2.682483 1_555
Al2 Al7 2.682484 1_555
Al2 Ta3 2.743430 1_545
Al2 Ta1 2.743435 1_545
Al2 Ta4 2.743435 1_545
Al2 Ta8 2.911972 1_544
Al2 Ta9 2.911972 1_445
Al2 Ta0 2.911979 1_545
Al3 Fe0 2.485656 1_555
Al3 Fe1 2.485662 1_555
Al3 Fe2 2.485662 1_555
Al3 Al7 2.682483 1_555
Al3 Ta5 2.743430 1_554
Al3 Ta10 2.743434 1_554
Al3 Ta1 2.743435 1_554
Al3 Ta11 2.911972 1_454
Al3 Ta8 2.911973 1_544
Al3 Ta6 2.911980 1_554
Al4 Fe0 2.485656 1_656
Al4 Fe3 2.485662 1_655
Al4 Fe1 2.485662 1_556
Al4 Al5 2.682483 1_546
Al4 Al6 2.682483 1_645
Al4 Ta11 2.743430 1_555
Al4 Ta7 2.743435 1_555
Al4 Ta6 2.743435 1_555
Al4 Ta2 2.911972 1_556
Al4 Ta5 2.911972 1_655
Al4 Ta10 2.911979 1_555
Al5 Fe0 2.485656 1_665
Al5 Fe1 2.485662 1_565
Al5 Fe2 2.485662 1_655
Al5 Al6 2.682483 1_654
Al5 Ta9 2.743430 1_555
Al5 Ta0 2.743434 1_555
Al5 Ta7 2.743435 1_555
Al5 Ta3 2.911972 1_655
Al5 Ta2 2.911973 1_565
Al5 Ta4 2.911980 1_555
Al6 Fe0 2.485656 1_566
Al6 Fe3 2.485662 1_565
Al6 Fe2 2.485663 1_556
Al6 Ta8 2.743430 1_555
Al6 Ta0 2.743434 1_555
Al6 Ta6 2.743435 1_555
Al6 Ta3 2.911972 1_556
Al6 Ta5 2.911973 1_565
Al6 Ta1 2.911979 1_555
Al7 Fe1 2.485658 1_555
Al7 Fe3 2.485658 1_555
Al7 Fe2 2.485658 1_555
Al7 Ta5 2.743438 1_555
Al7 Ta2 2.743438 1_555
Al7 Ta3 2.743438 1_555
Al7 Ta7 2.911976 1_455
Al7 Ta6 2.911976 1_554
Al7 Ta0 2.911976 1_545
Fe0 Ta9 2.919949 1_445
Fe0 Ta5 2.919949 1_554
Fe0 Ta8 2.919949 1_544
Fe0 Ta2 2.919949 1_455
Fe0 Ta11 2.919949 1_454
Fe0 Ta3 2.919949 1_545
Fe1 Ta0 2.919949 1_545
Fe1 Ta10 2.919949 1_554
Fe1 Ta2 2.919949 1_555
Fe1 Ta8 2.919949 1_544
Fe1 Ta6 2.919949 1_554
Fe1 Ta4 2.919949 1_545
Fe2 Ta7 2.919949 1_455
Fe2 Ta1 2.919949 1_554
Fe2 Ta6 2.919949 1_554
Fe2 Ta4 2.919949 1_455
Fe2 Ta3 2.919949 1_555
Fe2 Ta11 2.919949 1_454
Fe3 Ta0 2.919949 1_545
Fe3 Ta10 2.919949 1_455
Fe3 Ta5 2.919949 1_555
Fe3 Ta9 2.919949 1_445
Fe3 Ta7 2.919949 1_455
Fe3 Ta1 2.919949 1_545
N0 Ta6 2.179902 1_555
N0 Ta4 2.179902 1_555
N0 Ta7 2.179903 1_555
N0 Ta1 2.179903 1_555
N0 Ta0 2.179903 1_555
N0 Ta10 2.179903 1_555
N1 Ta11 2.179903 1_455
N1 Ta3 2.179903 1_555
N1 Ta1 2.179903 1_555
N1 Ta7 2.179903 1_455
N1 Ta9 2.179903 1_455
N1 Ta5 2.179903 1_555
N2 Ta2 2.179903 1_555
N2 Ta8 2.179903 1_545
N2 Ta9 2.179903 1_545
N2 Ta5 2.179903 1_555
N2 Ta10 2.179903 1_555
N2 Ta0 2.179903 1_545
N3 Ta11 2.179903 1_554
N3 Ta3 2.179903 1_555
N3 Ta4 2.179903 1_555
N3 Ta6 2.179903 1_554
N3 Ta8 2.179903 1_554
N3 Ta2 2.179903 1_555
