# generated using pymatgen
data_Lu4OsCl4
_symmetry_space_group_name_H-M   'P 1'
_cell_length_a   8.30142197
_cell_length_b   8.30148466
_cell_length_c   6.35985910
_cell_angle_alpha   89.71532944
_cell_angle_beta   89.71620731
_cell_angle_gamma   89.31959363
_symmetry_Int_Tables_number   1
_chemical_formula_structural   Lu4OsCl4
_chemical_formula_sum   'Lu8 Os2 Cl8'
_cell_volume   438.24257608
_cell_formula_units_Z   2
loop_
 _symmetry_equiv_pos_site_id
 _symmetry_equiv_pos_as_xyz
  1  'x, y, z'
loop_
 _atom_site_type_symbol
 _atom_site_label
 _atom_site_symmetry_multiplicity
 _atom_site_fract_x
 _atom_site_fract_y
 _atom_site_fract_z
 _atom_site_occupancy
  Lu  Lu0  1  0.10567134  0.74154583  0.98650343  1
  Lu  Lu1  1  0.25845421  0.89432329  0.51350506  1
  Lu  Lu2  1  0.89432866  0.25845417  0.01349657  1
  Lu  Lu3  1  0.74154579  0.10567671  0.48649494  1
  Lu  Lu4  1  0.74331656  0.89582679  0.00975387  1
  Lu  Lu5  1  0.10417429  0.25667629  0.49024422  1
  Lu  Lu6  1  0.25668344  0.10417321  0.99024613  1
  Lu  Lu7  1  0.89582571  0.74332371  0.50975578  1
  Os  Os0  1  0.00823294  0.99176726  0.25000169  1
  Os  Os1  1  0.99176706  0.00823274  0.74999831  1
  Cl  Cl0  1  0.42582668  0.81857887  0.89639281  1
  Cl  Cl1  1  0.18142200  0.57417502  0.60360609  1
  Cl  Cl2  1  0.57417332  0.18142113  0.10360719  1
  Cl  Cl3  1  0.81857800  0.42582498  0.39639391  1
  Cl  Cl4  1  0.80984679  0.57717740  0.89715801  1
  Cl  Cl5  1  0.42282426  0.19015332  0.60284268  1
  Cl  Cl6  1  0.19015321  0.42282260  0.10284199  1
  Cl  Cl7  1  0.57717574  0.80984668  0.39715732  1
loop_
_geom_bond_atom_site_label_1
_geom_bond_atom_site_label_2
_geom_bond_distance
_geom_bond_site_symmetry_2
Lu0 Os0 2.785441 1_556
Lu0 Os1 2.826509 1_465
Lu1 Os0 2.785436 1_555
Lu1 Os1 2.826500 1_465
Lu2 Os1 2.785441 1_554
Lu2 Os0 2.826509 1_645
Lu3 Os1 2.785436 1_555
Lu3 Os0 2.826500 1_645
Lu4 Os1 2.801855 1_564
Lu4 Os0 2.809327 1_655
Lu5 Os1 2.801809 1_455
Lu5 Os0 2.809286 1_545
Lu6 Os0 2.801855 1_546
Lu6 Os1 2.809327 1_455
Lu7 Os0 2.801809 1_655
Lu7 Os1 2.809286 1_565
Cl0 Lu0 2.796895 1_555
Cl0 Lu6 2.806336 1_565
Cl0 Lu4 2.817987 1_556
Cl0 Lu1 2.872841 1_555
Cl1 Lu1 2.796837 1_555
Cl1 Lu7 2.806345 1_455
Cl1 Lu5 2.818083 1_555
Cl1 Lu0 2.872927 1_555
Cl2 Lu2 2.796895 1_555
Cl2 Lu4 2.806336 1_545
Cl2 Lu6 2.817987 1_554
Cl2 Lu3 2.872841 1_555
Cl3 Lu3 2.796837 1_555
Cl3 Lu5 2.806345 1_655
Cl3 Lu7 2.818083 1_555
Cl3 Lu2 2.872927 1_555
Cl4 Lu4 2.792032 1_556
Cl4 Lu2 2.825168 1_556
Cl4 Lu0 2.883858 1_655
Cl4 Lu7 2.907648 1_555
Cl5 Lu5 2.791999 1_555
Cl5 Lu3 2.825155 1_555
Cl5 Lu1 2.883907 1_545
Cl5 Lu6 2.907640 1_555
Cl6 Lu6 2.792032 1_554
Cl6 Lu0 2.825168 1_554
Cl6 Lu2 2.883858 1_455
Cl6 Lu5 2.907648 1_555
Cl7 Lu7 2.791999 1_555
Cl7 Lu1 2.825155 1_555
Cl7 Lu3 2.883907 1_565
Cl7 Lu4 2.907640 1_555
