# generated using pymatgen
data_HfBi6(PO8)2
_symmetry_space_group_name_H-M   'P 1'
_cell_length_a   8.21812070
_cell_length_b   8.21812071
_cell_length_c   11.40620368
_cell_angle_alpha   49.98576106
_cell_angle_beta   49.98576219
_cell_angle_gamma   38.62915675
_symmetry_Int_Tables_number   1
_chemical_formula_structural   HfBi6(PO8)2
_chemical_formula_sum   'Hf1 Bi6 P2 O16'
_cell_volume   352.01682305
_cell_formula_units_Z   1
loop_
 _symmetry_equiv_pos_site_id
 _symmetry_equiv_pos_as_xyz
  1  'x, y, z'
loop_
 _atom_site_type_symbol
 _atom_site_label
 _atom_site_symmetry_multiplicity
 _atom_site_fract_x
 _atom_site_fract_y
 _atom_site_fract_z
 _atom_site_occupancy
  Hf  Hf0  1  0.77462688  0.22537312  0.50000000  1
  Bi  Bi0  1  0.36756756  0.95968771  0.51803577  1
  Bi  Bi1  1  0.04031229  0.63243244  0.48196423  1
  Bi  Bi2  1  0.76737357  0.25678819  0.82173996  1
  Bi  Bi3  1  0.74321181  0.23262643  0.17826004  1
  Bi  Bi4  1  0.09365750  0.58690669  0.14899535  1
  Bi  Bi5  1  0.41309331  0.90634250  0.85100465  1
  P  P0  1  0.13309061  0.57748022  0.77824535  1
  P  P1  1  0.42251978  0.86690939  0.22175465  1
  O  O0  1  0.18743056  0.67259150  0.82076074  1
  O  O1  1  0.32740850  0.81256944  0.17923926  1
  O  O2  1  0.68257592  0.66080050  0.67942738  1
  O  O3  1  0.33919950  0.31742408  0.32057262  1
  O  O4  1  0.49393353  0.50606647  1.00000000  1
  O  O5  1  0.61727959  0.58989284  0.32766328  1
  O  O6  1  0.41010716  0.38272041  0.67233672  1
  O  O7  1  0.01672327  0.43016562  0.91553389  1
  O  O8  1  0.56983438  0.98327673  0.08446611  1
  O  O9  1  0.72695224  0.08243563  0.44256494  1
  O  O10  1  0.91756437  0.27304776  0.55743506  1
  O  O11  1  0.94325592  0.82699675  0.66760662  1
  O  O12  1  0.17300325  0.05674408  0.33239338  1
  O  O13  1  0.18681610  0.15285159  0.68412524  1
  O  O14  1  0.84714841  0.81318390  0.31587476  1
  O  O15  1  0.00751200  0.99248800  1.00000000  1
loop_
_geom_bond_atom_site_label_1
_geom_bond_atom_site_label_2
_geom_bond_distance
_geom_bond_site_symmetry_2
Hf0 O10 2.000324 1_555
Hf0 O9 2.000324 1_555
Hf0 O5 2.038155 1_555
Hf0 O6 2.038155 1_555
Hf0 O11 2.136194 1_545
Hf0 O12 2.136194 1_655
Bi0 O3 2.204463 1_565
Bi0 O13 2.209009 1_565
Bi0 O10 2.231932 1_465
Bi0 O2 2.550007 1_555
Bi0 O14 2.601825 1_555
Bi0 O12 2.804627 1_565
Bi0 O0 2.844009 1_555
Bi1 O2 2.204463 1_455
Bi1 O14 2.209009 1_455
Bi1 O9 2.231932 1_465
Bi1 O3 2.550007 1_555
Bi1 O13 2.601825 1_555
Bi1 O11 2.804627 1_455
Bi1 O1 2.844009 1_555
Bi2 O2 2.247962 1_555
Bi2 O13 2.289426 1_655
Bi2 O15 2.351634 1_645
Bi2 O10 2.363137 1_555
Bi2 O4 2.380948 1_555
Bi2 O8 2.729705 1_546
Bi3 O3 2.247962 1_555
Bi3 O14 2.289426 1_545
Bi3 O15 2.351634 1_644
Bi3 O9 2.363137 1_555
Bi3 O4 2.380948 1_554
Bi3 O7 2.729705 1_654
Bi4 O14 2.211861 1_455
Bi4 O4 2.235811 1_554
Bi4 O15 2.252802 1_554
Bi4 O3 2.308497 1_555
Bi5 O13 2.211861 1_565
Bi5 O4 2.235811 1_555
Bi5 O15 2.252802 1_555
Bi5 O2 2.308497 1_555
O0 P0 1.535200 1_555
O1 P1 1.535200 1_555
O5 P1 1.568640 1_555
O6 P0 1.568640 1_555
O7 P0 1.509173 1_555
O8 P1 1.509173 1_555
O11 P0 1.561106 1_655
O12 P1 1.561106 1_545
