# generated using pymatgen
data_MnSn(As2O7)2
_symmetry_space_group_name_H-M   'P 1'
_cell_length_a   4.95354958
_cell_length_b   8.11371042
_cell_length_c   7.26756935
_cell_angle_alpha   90.86795375
_cell_angle_beta   106.64527854
_cell_angle_gamma   91.42705356
_symmetry_Int_Tables_number   1
_chemical_formula_structural   MnSn(As2O7)2
_chemical_formula_sum   'Mn1 Sn1 As4 O14'
_cell_volume   279.69338105
_cell_formula_units_Z   1
loop_
 _symmetry_equiv_pos_site_id
 _symmetry_equiv_pos_as_xyz
  1  'x, y, z'
loop_
 _atom_site_type_symbol
 _atom_site_label
 _atom_site_symmetry_multiplicity
 _atom_site_fract_x
 _atom_site_fract_y
 _atom_site_fract_z
 _atom_site_occupancy
  Mn  Mn0  1  0.78196514  0.00643683  0.27159339  1
  Sn  Sn0  1  0.22339443  0.50678580  0.73365190  1
  As  As0  1  0.40538075  0.17686672  0.50109733  1
  As  As1  1  0.20364840  0.78600045  0.10436386  1
  As  As2  1  0.76920917  0.26271963  0.90832864  1
  As  As3  1  0.61372885  0.69065574  0.48929825  1
  O  O0  1  0.04632757  0.30850803  0.82689883  1
  O  O1  1  0.10371244  0.68122527  0.89471242  1
  O  O2  1  0.15520412  0.02735766  0.43400444  1
  O  O3  1  0.30333993  0.37111533  0.51475458  1
  O  O4  1  0.43708677  0.69712969  0.65406865  1
  O  O5  1  0.58938965  0.43196683  0.92956660  1
  O  O6  1  0.56203434  0.12004531  0.74025498  1
  O  O7  1  0.38398067  0.63765605  0.26261449  1
  O  O8  1  0.41266654  0.95504401  0.10721228  1
  O  O9  1  0.64444958  0.18907404  0.37532168  1
  O  O10  1  0.71782896  0.88829845  0.47429513  1
  O  O11  1  0.86179027  0.55025366  0.51976418  1
  O  O12  1  0.89227498  0.15517681  0.10761615  1
  O  O13  1  0.89788947  0.82124467  0.15518523  1
loop_
_geom_bond_atom_site_label_1
_geom_bond_atom_site_label_2
_geom_bond_distance
_geom_bond_site_symmetry_2
Mn0 O10 1.866987 1_545
Mn0 O9 1.881186 1_555
Mn0 O12 1.886530 1_555
Mn0 O2 1.889013 1_655
Mn0 O13 1.893685 1_545
Mn0 O8 1.908522 1_545
As0 O2 1.675141 1_555
As0 O3 1.677214 1_555
As0 O9 1.692582 1_555
As0 O6 1.762129 1_555
As1 O1 1.672415 1_554
As1 O13 1.688501 1_455
As1 O8 1.694042 1_555
As1 O7 1.753943 1_555
As2 O12 1.670224 1_556
As2 O0 1.679067 1_655
As2 O5 1.684119 1_555
As2 O6 1.750754 1_555
As3 O11 1.666784 1_555
As3 O4 1.674220 1_555
As3 O10 1.686921 1_555
As3 O7 1.753347 1_555
O0 Sn0 2.029773 1_555
O1 Sn0 2.028290 1_555
O3 Sn0 2.056442 1_555
O4 Sn0 2.033851 1_555
O5 Sn0 2.069986 1_555
O11 Sn0 2.049904 1_655
