# generated using pymatgen
data_K2Hf(Si2O5)3
_symmetry_space_group_name_H-M   'P 1'
_cell_length_a   6.92279421
_cell_length_b   7.37737408
_cell_length_c   7.66205069
_cell_angle_alpha   99.20255996
_cell_angle_beta   106.04549701
_cell_angle_gamma   112.48819378
_symmetry_Int_Tables_number   1
_chemical_formula_structural   K2Hf(Si2O5)3
_chemical_formula_sum   'K2 Hf1 Si6 O15'
_cell_volume   331.56100765
_cell_formula_units_Z   1
loop_
 _symmetry_equiv_pos_site_id
 _symmetry_equiv_pos_as_xyz
  1  'x, y, z'
loop_
 _atom_site_type_symbol
 _atom_site_label
 _atom_site_symmetry_multiplicity
 _atom_site_fract_x
 _atom_site_fract_y
 _atom_site_fract_z
 _atom_site_occupancy
  K  K0  1  0.28997767  0.71028727  0.81277009  1
  K  K1  1  0.71002233  0.28971273  0.18722991  1
  Hf  Hf0  1  0.00000000  0.00000000  0.00000000  1
  Si  Si0  1  0.69200501  0.81193936  0.25864419  1
  Si  Si1  1  0.30799499  0.18806064  0.74135581  1
  Si  Si2  1  0.14975012  0.83335314  0.37531516  1
  Si  Si3  1  0.85024988  0.16664686  0.62468484  1
  Si  Si4  1  0.31370113  0.50049617  0.31835064  1
  Si  Si5  1  0.68629887  0.49950383  0.68164936  1
  O  O0  1  0.44809178  0.61168944  0.18952399  1
  O  O1  1  0.55190822  0.38831056  0.81047601  1
  O  O2  1  0.20791472  0.64281120  0.39994130  1
  O  O3  1  0.79208528  0.35718880  0.60005870  1
  O  O4  1  0.88289570  0.72072821  0.80465604  1
  O  O5  1  0.11710430  0.27927179  0.19534396  1
  O  O6  1  0.88384271  0.74141860  0.35224489  1
  O  O7  1  0.11615729  0.25858140  0.64775511  1
  O  O8  1  0.72441605  0.89295073  0.08249366  1
  O  O9  1  0.50000000  0.50000000  0.50000000  1
  O  O10  1  0.29990590  0.01055131  0.57938293  1
  O  O11  1  0.70009410  0.98944869  0.42061707  1
  O  O12  1  0.81874475  0.09016472  0.80160213  1
  O  O13  1  0.18125525  0.90983528  0.19839787  1
  O  O14  1  0.27558395  0.10704927  0.91750634  1
loop_
_geom_bond_atom_site_label_1
_geom_bond_atom_site_label_2
_geom_bond_distance
_geom_bond_site_symmetry_2
K0 O8 2.775805 1_556
K0 O4 2.832397 1_455
K0 O14 2.955948 1_565
K0 O2 2.976995 1_555
K0 O7 2.982489 1_555
K0 O10 3.054156 1_565
K0 O0 3.097464 1_556
K0 O3 3.160773 1_455
K1 O14 2.775805 1_554
K1 O5 2.832397 1_655
K1 O8 2.955948 1_545
K1 O3 2.976995 1_555
K1 O6 2.982489 1_555
K1 O11 3.054156 1_545
K1 O1 3.097464 1_554
K1 O2 3.160773 1_655
Hf0 O5 2.051201 1_555
Hf0 O4 2.051201 1_444
Hf0 O13 2.057975 1_545
Hf0 O12 2.057975 1_454
Hf0 O14 2.082457 1_554
Hf0 O8 2.082457 1_445
O0 Si0 1.631348 1_555
O0 Si4 1.641834 1_555
O1 Si1 1.631348 1_555
O1 Si5 1.641834 1_555
O2 Si2 1.627748 1_555
O2 Si4 1.631192 1_555
O3 Si3 1.627748 1_555
O3 Si5 1.631192 1_555
O4 Si5 1.582376 1_555
O5 Si4 1.582376 1_555
O6 Si0 1.634048 1_555
O6 Si2 1.645162 1_655
O7 Si1 1.634048 1_555
O7 Si3 1.645162 1_455
O8 Si0 1.597491 1_555
O9 Si5 1.616613 1_555
O9 Si4 1.616613 1_555
O10 Si2 1.625564 1_545
O10 Si1 1.626011 1_555
O11 Si3 1.625564 1_565
O11 Si0 1.626011 1_555
O12 Si3 1.586625 1_555
O13 Si2 1.586625 1_555
O14 Si1 1.597491 1_555
