# generated using pymatgen
data_NaNb6VTe12
_symmetry_space_group_name_H-M   'P 1'
_cell_length_a   6.50120618
_cell_length_b   6.50120849
_cell_length_c   15.15876673
_cell_angle_alpha   90.00000000
_cell_angle_beta   90.00000000
_cell_angle_gamma   119.99999338
_symmetry_Int_Tables_number   1
_chemical_formula_structural   NaNb6VTe12
_chemical_formula_sum   'Na1 Nb6 V1 Te12'
_cell_volume   554.85890985
_cell_formula_units_Z   1
loop_
 _symmetry_equiv_pos_site_id
 _symmetry_equiv_pos_as_xyz
  1  'x, y, z'
loop_
 _atom_site_type_symbol
 _atom_site_label
 _atom_site_symmetry_multiplicity
 _atom_site_fract_x
 _atom_site_fract_y
 _atom_site_fract_z
 _atom_site_occupancy
  Na  Na0  1  0.33333300  0.66666700  0.25000000  1
  Nb  Nb0  1  0.00000000  0.00000000  0.52460604  1
  Nb  Nb1  1  0.00000000  0.00000000  0.97539396  1
  Nb  Nb2  1  0.33333300  0.66666700  0.97549990  1
  Nb  Nb3  1  0.66666700  0.33333300  0.97346133  1
  Nb  Nb4  1  0.66666700  0.33333300  0.52653867  1
  Nb  Nb5  1  0.33333300  0.66666700  0.52450010  1
  V  V0  1  0.66666700  0.33333300  0.75000000  1
  Te  Te0  1  0.33420242  0.33092156  0.40555527  1
  Te  Te1  1  0.66907844  0.00328086  0.40555527  1
  Te  Te2  1  0.99671914  0.66579758  0.40555527  1
  Te  Te3  1  0.32806725  0.33344649  0.64226770  1
  Te  Te4  1  0.00538024  0.67193275  0.64226770  1
  Te  Te5  1  0.66655351  0.99461976  0.64226770  1
  Te  Te6  1  0.66655351  0.67193275  0.85773230  1
  Te  Te7  1  0.32806725  0.99461976  0.85773230  1
  Te  Te8  1  0.00538024  0.33344649  0.85773230  1
  Te  Te9  1  0.66907844  0.66579758  0.09444473  1
  Te  Te10  1  0.99671914  0.33092156  0.09444473  1
  Te  Te11  1  0.33420242  0.00328086  0.09444473  1
loop_
_geom_bond_atom_site_label_1
_geom_bond_atom_site_label_2
_geom_bond_distance
_geom_bond_site_symmetry_2
Na0 Te2 3.215125 1_455
Na0 Te11 3.215125 1_565
Na0 Te10 3.215127 1_455
Na0 Te1 3.215127 1_565
Na0 Te9 3.215129 1_555
Na0 Te0 3.215130 1_555
Nb0 Te5 2.793926 1_445
Nb0 Te3 2.793929 1_555
Nb0 Te4 2.793932 1_545
Nb0 Te1 2.816314 1_455
Nb0 Te0 2.816315 1_555
Nb0 Te2 2.816315 1_445
Nb1 Te8 2.793927 1_555
Nb1 Te6 2.793929 1_445
Nb1 Te7 2.793931 1_545
Nb1 Te11 2.816314 1_556
Nb1 Te9 2.816315 1_446
Nb1 Te10 2.816315 1_456
Nb2 Te7 2.794091 1_555
Nb2 Te8 2.794096 1_555
Nb2 Te6 2.794101 1_555
Nb2 Te11 2.833330 1_566
Nb2 Te10 2.833332 1_456
Nb2 Te9 2.833334 1_556
Nb3 Te8 2.815134 1_655
Nb3 Te7 2.815134 1_545
Nb3 Te6 2.815134 1_555
Nb3 Te10 2.828689 1_556
Nb3 Te11 2.828691 1_556
Nb3 Te9 2.828694 1_556
Nb4 Te3 2.815134 1_555
Nb4 Te4 2.815134 1_655
Nb4 Te5 2.815134 1_545
Nb4 Te1 2.828689 1_555
Nb4 Te2 2.828691 1_555
Nb4 Te0 2.828693 1_555
Nb5 Te4 2.794091 1_555
Nb5 Te5 2.794096 1_555
Nb5 Te3 2.794101 1_555
Nb5 Te2 2.833329 1_455
Nb5 Te1 2.833332 1_565
Nb5 Te0 2.833335 1_555
Te3 V0 2.741232 1_555
Te4 V0 2.741233 1_455
Te5 V0 2.741233 1_565
Te6 V0 2.741233 1_555
Te7 V0 2.741233 1_565
Te8 V0 2.741232 1_455
