# generated using pymatgen
data_NbCu2AgS4
_symmetry_space_group_name_H-M   'P 1'
_cell_length_a   5.52497257
_cell_length_b   5.52497257
_cell_length_c   5.96175009
_cell_angle_alpha   90.00000000
_cell_angle_beta   90.00000000
_cell_angle_gamma   90.00000000
_symmetry_Int_Tables_number   1
_chemical_formula_structural   NbCu2AgS4
_chemical_formula_sum   'Nb1 Cu2 Ag1 S4'
_cell_volume   181.98434095
_cell_formula_units_Z   1
loop_
 _symmetry_equiv_pos_site_id
 _symmetry_equiv_pos_as_xyz
  1  'x, y, z'
loop_
 _atom_site_type_symbol
 _atom_site_label
 _atom_site_symmetry_multiplicity
 _atom_site_fract_x
 _atom_site_fract_y
 _atom_site_fract_z
 _atom_site_occupancy
  Nb  Nb0  1  0.00000000  0.00000000  0.00000000  1
  Cu  Cu0  1  0.00000000  0.50000000  0.00000000  1
  Cu  Cu1  1  0.50000000  0.00000000  0.00000000  1
  Ag  Ag0  1  0.00000000  0.00000000  0.50000000  1
  S  S0  1  0.75098194  0.75098194  0.21445299  1
  S  S1  1  0.75098194  0.24901806  0.78554701  1
  S  S2  1  0.24901806  0.75098194  0.78554701  1
  S  S3  1  0.24901806  0.24901806  0.21445299  1
loop_
_geom_bond_atom_site_label_1
_geom_bond_atom_site_label_2
_geom_bond_distance
_geom_bond_site_symmetry_2
Nb0 S3 2.328165 1_555
Nb0 S0 2.328165 1_445
Nb0 S2 2.328165 1_544
Nb0 S1 2.328165 1_454
Cu0 S2 2.334593 1_554
Cu0 S3 2.334593 1_555
Cu0 S0 2.334593 1_455
Cu0 S1 2.334593 1_454
Cu1 S0 2.334593 1_545
Cu1 S3 2.334593 1_555
Cu1 S1 2.334593 1_554
Cu1 S2 2.334593 1_544
Ag0 S1 2.585301 1_455
Ag0 S2 2.585301 1_545
Ag0 S3 2.585301 1_555
Ag0 S0 2.585301 1_445
