# generated using pymatgen
data_Hf6Al16Pt3Rh4
_symmetry_space_group_name_H-M   'P 1'
_cell_length_a   8.64970610
_cell_length_b   8.64970576
_cell_length_c   8.66442127
_cell_angle_alpha   60.05616139
_cell_angle_beta   60.05615915
_cell_angle_gamma   59.99999886
_symmetry_Int_Tables_number   1
_chemical_formula_structural   Hf6Al16Pt3Rh4
_chemical_formula_sum   'Hf6 Al16 Pt3 Rh4'
_cell_volume   458.77038939
_cell_formula_units_Z   1
loop_
 _symmetry_equiv_pos_site_id
 _symmetry_equiv_pos_as_xyz
  1  'x, y, z'
loop_
 _atom_site_type_symbol
 _atom_site_label
 _atom_site_symmetry_multiplicity
 _atom_site_fract_x
 _atom_site_fract_y
 _atom_site_fract_z
 _atom_site_occupancy
  Hf  Hf0  1  0.68346991  0.31614924  0.31690893  1
  Hf  Hf1  1  0.31652909  0.68384976  0.68309007  1
  Hf  Hf2  1  0.31614924  0.68346991  0.31690893  1
  Hf  Hf3  1  0.31652909  0.31652909  0.68309007  1
  Hf  Hf4  1  0.68384976  0.31652909  0.68309007  1
  Hf  Hf5  1  0.68346991  0.68346991  0.31690893  1
  Al  Al0  1  0.33831015  0.33831015  0.33195519  1
  Al  Al1  1  0.33657134  0.33657134  0.99028499  1
  Al  Al2  1  0.99142252  0.33831015  0.33195519  1
  Al  Al3  1  0.33831015  0.99142252  0.33195519  1
  Al  Al4  1  0.66168985  0.66168985  0.66804481  1
  Al  Al5  1  0.66342866  0.66342866  0.00971501  1
  Al  Al6  1  0.66168985  0.00857748  0.66804481  1
  Al  Al7  1  0.00857748  0.66168985  0.66804481  1
  Al  Al8  1  0.12227938  0.12227938  0.11322036  1
  Al  Al9  1  0.11889328  0.11889328  0.64331915  1
  Al  Al10  1  0.64222088  0.12227938  0.11322036  1
  Al  Al11  1  0.12227938  0.64222088  0.11322036  1
  Al  Al12  1  0.87771962  0.87771962  0.88677864  1
  Al  Al13  1  0.88110572  0.88110572  0.35668385  1
  Al  Al14  1  0.87771962  0.35778212  0.88677864  1
  Al  Al15  1  0.35778212  0.87771962  0.88677864  1
  Pt  Pt0  1  0.00000000  0.50000000  0.50000000  1
  Pt  Pt1  1  0.00000000  0.00000000  0.50000000  1
  Pt  Pt2  1  0.50000000  0.00000000  0.50000000  1
  Rh  Rh0  1  0.00000000  0.00000000  0.00000000  1
  Rh  Rh1  1  0.50000000  0.00000000  0.00000000  1
  Rh  Rh2  1  0.00000000  0.50000000  0.00000000  1
  Rh  Rh3  1  0.50000000  0.50000000  0.00000000  1
loop_
_geom_bond_atom_site_label_1
_geom_bond_atom_site_label_2
_geom_bond_distance
_geom_bond_site_symmetry_2
Hf0 Pt2 3.163666 1_555
Hf0 Pt1 3.163678 1_655
Hf0 Rh3 3.170844 1_555
Hf0 Rh2 3.170855 1_655
Hf0 Hf3 3.176031 1_555
Hf0 Hf4 3.176031 1_555
Hf0 Hf5 3.177216 1_555
Hf0 Hf2 3.177216 1_555
Hf1 Pt1 3.163669 1_565
Hf1 Pt2 3.163681 1_565
Hf1 Rh2 3.170847 1_556
Hf1 Rh3 3.170859 1_556
Hf1 Hf5 3.176031 1_555
Hf1 Hf2 3.176031 1_555
Hf1 Hf3 3.177216 1_555
Hf1 Hf4 3.177216 1_555
Hf2 Pt0 3.163666 1_555
Hf2 Pt1 3.163678 1_565
Hf2 Rh3 3.170844 1_555
Hf2 Rh1 3.170855 1_565
Hf2 Hf3 3.176031 1_555
Hf2 Hf5 3.177216 1_555
Hf3 Pt2 3.163666 1_555
Hf3 Pt0 3.163666 1_555
Hf3 Rh2 3.170855 1_556
Hf3 Rh1 3.170855 1_556
Hf3 Hf4 3.177216 1_555
Hf4 Pt1 3.163669 1_655
Hf4 Pt0 3.163681 1_655
Hf4 Rh1 3.170847 1_556
Hf4 Rh3 3.170859 1_556
Hf4 Hf5 3.176031 1_555
Hf5 Pt2 3.163681 1_565
Hf5 Pt0 3.163681 1_655
Hf5 Rh2 3.170847 1_655
Hf5 Rh1 3.170847 1_565
Al0 Rh3 2.471649 1_555
Al0 Pt0 2.515134 1_555
Al0 Pt2 2.515134 1_555
Al0 Al10 2.764693 1_555
Al0 Al11 2.764693 1_555
Al0 Al9 2.803785 1_555
Al0 Hf2 2.833945 1_555
Al0 Hf0 2.833945 1_555
Al0 Hf3 2.866730 1_555
Al0 Al1 2.975465 1_554
Al0 Al3 3.000476 1_545
Al0 Al2 3.000476 1_455
Al1 Rh1 2.497900 1_556
Al1 Rh2 2.497900 1_556
Al1 Rh3 2.497907 1_556
Al1 Al8 2.738552 1_556
Al1 Al11 2.738559 1_556
Al1 Al10 2.738559 1_556
Al1 Hf4 2.845326 1_555
Al1 Hf1 2.845326 1_555
Al1 Hf3 2.845331 1_555
Al1 Al2 2.975469 1_456
Al1 Al3 2.975469 1_546
Al2 Rh2 2.471644 1_655
Al2 Pt1 2.515129 1_655
Al2 Pt0 2.515144 1_655
Al2 Al8 2.764688 1_655
Al2 Al9 2.803790 1_655
Al2 Hf5 2.833945 1_555
Al2 Hf0 2.833945 1_555
Al2 Hf4 2.866730 1_555
Al2 Al3 3.000476 1_645
Al3 Rh1 2.471644 1_565
Al3 Pt1 2.515129 1_565
Al3 Pt2 2.515144 1_565
Al3 Al8 2.764688 1_565
Al3 Al9 2.803789 1_565
Al3 Hf5 2.833945 1_555
Al3 Hf2 2.833945 1_555
Al3 Hf1 2.866730 1_555
Al4 Rh3 2.471649 1_556
Al4 Pt0 2.515134 1_655
Al4 Pt2 2.515134 1_565
Al4 Hf4 2.833961 1_555
Al4 Hf1 2.833961 1_555
Al4 Hf5 2.866746 1_555
Al4 Al5 2.975465 1_556
Al4 Al6 3.000476 1_565
Al4 Al7 3.000476 1_655
Al5 Rh1 2.497900 1_565
Al5 Rh2 2.497900 1_655
Al5 Rh3 2.497907 1_555
Al5 Hf5 2.845313 1_555
Al5 Hf2 2.845327 1_555
Al5 Hf0 2.845327 1_555
Al5 Al7 2.975469 1_654
Al5 Al6 2.975469 1_564
Al6 Rh1 2.471644 1_556
Al6 Pt1 2.515129 1_655
Al6 Pt2 2.515144 1_555
Al6 Hf4 2.833926 1_555
Al6 Hf3 2.833946 1_555
Al6 Hf0 2.866731 1_555
Al6 Al7 3.000476 1_645
Al7 Rh2 2.471644 1_556
Al7 Pt1 2.515129 1_565
Al7 Pt0 2.515144 1_555
Al7 Hf1 2.833926 1_555
Al7 Hf3 2.833946 1_555
Al7 Hf2 2.866731 1_555
Al8 Rh0 2.527850 1_555
Al8 Rh2 2.671331 1_555
Al8 Rh1 2.671331 1_555
Al8 Pt1 2.740392 1_555
Al8 Hf3 3.139445 1_554
Al8 Hf0 3.199295 1_455
Al8 Hf2 3.199295 1_545
Al9 Rh0 2.525468 1_556
Al9 Pt1 2.695276 1_555
Al9 Pt0 2.695283 1_555
Al9 Pt2 2.695283 1_555
Al9 Hf3 3.172063 1_555
Al9 Hf1 3.172070 1_545
Al9 Hf4 3.172070 1_455
Al10 Rh0 2.527850 1_655
Al10 Rh3 2.671331 1_555
Al10 Rh1 2.671332 1_555
Al10 Pt2 2.740392 1_555
Al10 Al3 2.764702 1_545
Al10 Al14 2.884101 1_554
Al10 Al12 2.884101 1_544
Al10 Al13 2.952795 1_545
Al10 Hf4 3.139449 1_554
Al10 Hf0 3.199284 1_555
Al10 Hf5 3.199299 1_545
Al11 Rh0 2.527850 1_565
Al11 Rh3 2.671331 1_555
Al11 Rh2 2.671332 1_555
Al11 Pt0 2.740392 1_555
Al11 Al2 2.764702 1_455
Al11 Al15 2.884101 1_554
Al11 Al12 2.884102 1_454
Al11 Al13 2.952795 1_455
Al11 Hf1 3.139449 1_554
Al11 Hf2 3.199284 1_555
Al11 Hf5 3.199299 1_455
Al12 Rh0 2.527871 1_666
Al12 Rh2 2.671323 1_656
Al12 Rh1 2.671323 1_566
Al12 Al5 2.738535 1_556
Al12 Pt1 2.740384 1_665
Al12 Al7 2.764672 1_655
Al12 Al6 2.764672 1_565
Al12 Al9 2.952789 1_665
Al12 Hf5 3.139445 1_556
Al12 Hf1 3.199295 1_655
Al12 Hf4 3.199295 1_565
Al13 Rh0 2.525489 1_665
Al13 Pt1 2.695268 1_665
Al13 Pt0 2.695275 1_655
Al13 Pt2 2.695275 1_565
Al13 Al4 2.803768 1_555
Al13 Al6 2.803773 1_565
Al13 Al7 2.803773 1_655
Al13 Al8 2.952789 1_665
Al13 Hf0 3.172063 1_565
Al13 Hf2 3.172063 1_655
Al13 Hf5 3.172085 1_555
Al14 Rh0 2.527871 1_656
Al14 Rh3 2.671323 1_556
Al14 Rh2 2.671324 1_656
Al14 Al5 2.738542 1_556
Al14 Pt0 2.740384 1_655
Al14 Al4 2.764676 1_555
Al14 Al7 2.764686 1_655
Al14 Al8 2.884102 1_656
Al14 Al9 2.952795 1_655
Al14 Hf0 3.139441 1_556
Al14 Hf3 3.199292 1_655
Al14 Hf4 3.199307 1_555
Al15 Rh0 2.527871 1_566
Al15 Rh3 2.671323 1_556
Al15 Rh1 2.671324 1_566
Al15 Al5 2.738542 1_556
Al15 Pt2 2.740384 1_565
Al15 Al4 2.764676 1_555
Al15 Al6 2.764686 1_565
Al15 Al8 2.884101 1_566
Al15 Al9 2.952795 1_565
Al15 Hf2 3.139441 1_556
Al15 Hf3 3.199292 1_565
Al15 Hf1 3.199307 1_555
