# generated using pymatgen
data_Rb(HfTe2)4
_symmetry_space_group_name_H-M   'P 1'
_cell_length_a   10.17156760
_cell_length_b   10.17156750
_cell_length_c   11.68082114
_cell_angle_alpha   42.38509711
_cell_angle_beta   42.38509826
_cell_angle_gamma   46.46073398
_symmetry_Int_Tables_number   1
_chemical_formula_structural   Rb(HfTe2)4
_chemical_formula_sum   'Rb1 Hf4 Te8'
_cell_volume   521.16464335
_cell_formula_units_Z   1
loop_
 _symmetry_equiv_pos_site_id
 _symmetry_equiv_pos_as_xyz
  1  'x, y, z'
loop_
 _atom_site_type_symbol
 _atom_site_label
 _atom_site_symmetry_multiplicity
 _atom_site_fract_x
 _atom_site_fract_y
 _atom_site_fract_z
 _atom_site_occupancy
  Rb  Rb0  1  0.00000000  0.00000000  0.00000000  1
  Hf  Hf0  1  0.24858577  0.24858577  0.00259276  1
  Hf  Hf1  1  0.75141423  0.75141423  0.99740724  1
  Hf  Hf2  1  0.24611111  0.75388889  0.50000000  1
  Hf  Hf3  1  0.75388889  0.24611111  0.50000000  1
  Te  Te0  1  0.32512962  0.32512962  0.66664571  1
  Te  Te1  1  0.82209683  0.82209683  0.66863646  1
  Te  Te2  1  0.32432964  0.82123269  0.16889875  1
  Te  Te3  1  0.82123269  0.32432964  0.16889875  1
  Te  Te4  1  0.17876731  0.67567036  0.83110125  1
  Te  Te5  1  0.67567036  0.17876731  0.83110125  1
  Te  Te6  1  0.17790317  0.17790317  0.33136354  1
  Te  Te7  1  0.67487038  0.67487038  0.33335429  1
loop_
_geom_bond_atom_site_label_1
_geom_bond_atom_site_label_2
_geom_bond_distance
_geom_bond_site_symmetry_2
Rb0 Te0 3.749271 1_554
Rb0 Te7 3.749271 1_445
Rb0 Te3 3.759316 1_455
Rb0 Te4 3.759316 1_544
Rb0 Te2 3.759316 1_545
Rb0 Te5 3.759316 1_454
Hf0 Te6 2.887294 1_555
Hf0 Te4 2.895604 1_554
Hf0 Te5 2.895604 1_554
Hf0 Te2 2.895716 1_545
Hf0 Te3 2.895716 1_455
Hf0 Te0 2.901656 1_554
Hf1 Te1 2.887294 1_555
Hf1 Te3 2.895604 1_556
Hf1 Te2 2.895604 1_556
Hf1 Te5 2.895716 1_565
Hf1 Te4 2.895716 1_655
Hf1 Te7 2.901656 1_556
Hf2 Te6 2.882499 1_565
Hf2 Te1 2.882499 1_455
Hf2 Te4 2.889925 1_555
Hf2 Te2 2.889925 1_555
Hf2 Te0 2.897579 1_555
Hf2 Te7 2.897579 1_555
Hf3 Te1 2.882499 1_545
Hf3 Te6 2.882499 1_655
Hf3 Te3 2.889925 1_555
Hf3 Te5 2.889925 1_555
Hf3 Te7 2.897579 1_555
Hf3 Te0 2.897579 1_555
