# generated using pymatgen
data_Zr6Ta4Al12Os7
_symmetry_space_group_name_H-M   'P 1'
_cell_length_a   8.81723582
_cell_length_b   8.81723627
_cell_length_c   8.81723588
_cell_angle_alpha   59.99999775
_cell_angle_beta   59.99999606
_cell_angle_gamma   60.00000120
_symmetry_Int_Tables_number   1
_chemical_formula_structural   Zr6Ta4Al12Os7
_chemical_formula_sum   'Zr6 Ta4 Al12 Os7'
_cell_volume   484.71044623
_cell_formula_units_Z   1
loop_
 _symmetry_equiv_pos_site_id
 _symmetry_equiv_pos_as_xyz
  1  'x, y, z'
loop_
 _atom_site_type_symbol
 _atom_site_label
 _atom_site_symmetry_multiplicity
 _atom_site_fract_x
 _atom_site_fract_y
 _atom_site_fract_z
 _atom_site_occupancy
  Zr  Zr0  1  0.70126082  0.70126082  0.29873918  1
  Zr  Zr1  1  0.29873918  0.70126082  0.29873918  1
  Zr  Zr2  1  0.70126082  0.29873918  0.29873918  1
  Zr  Zr3  1  0.29873918  0.29873918  0.70126082  1
  Zr  Zr4  1  0.70126082  0.29873918  0.70126082  1
  Zr  Zr5  1  0.29873918  0.70126082  0.70126082  1
  Ta  Ta0  1  0.87901824  0.87901824  0.36294528  1
  Ta  Ta1  1  0.87901824  0.36294528  0.87901824  1
  Ta  Ta2  1  0.36294528  0.87901824  0.87901824  1
  Ta  Ta3  1  0.87901824  0.87901824  0.87901824  1
  Al  Al0  1  0.12119005  0.12119005  0.63642885  1
  Al  Al1  1  0.12119005  0.63642885  0.12119005  1
  Al  Al2  1  0.63642885  0.12119005  0.12119005  1
  Al  Al3  1  0.12119005  0.12119005  0.12119005  1
  Al  Al4  1  0.66019206  0.66019206  0.01942282  1
  Al  Al5  1  0.66019206  0.01942282  0.66019206  1
  Al  Al6  1  0.01942282  0.66019206  0.66019206  1
  Al  Al7  1  0.66019206  0.66019206  0.66019206  1
  Al  Al8  1  0.33319733  0.33319733  0.00040902  1
  Al  Al9  1  0.33319733  0.00040902  0.33319733  1
  Al  Al10  1  0.00040902  0.33319733  0.33319733  1
  Al  Al11  1  0.33319733  0.33319733  0.33319733  1
  Os  Os0  1  0.00000000  0.00000000  0.00000000  1
  Os  Os1  1  0.99741069  0.99741069  0.50258931  1
  Os  Os2  1  0.50258931  0.99741069  0.50258931  1
  Os  Os3  1  0.99741069  0.50258931  0.50258931  1
  Os  Os4  1  0.50258931  0.50258931  0.99741069  1
  Os  Os5  1  0.99741069  0.50258931  0.99741069  1
  Os  Os6  1  0.50258931  0.99741069  0.99741069  1
loop_
_geom_bond_atom_site_label_1
_geom_bond_atom_site_label_2
_geom_bond_distance
_geom_bond_site_symmetry_2
Ta0 Zr1 3.076467 1_655
Ta0 Zr0 3.076467 1_555
Ta0 Zr2 3.076467 1_565
Ta1 Zr2 3.076467 1_556
Ta1 Zr3 3.076467 1_655
Ta1 Zr4 3.076467 1_555
Ta2 Zr1 3.076467 1_556
Ta2 Zr5 3.076467 1_555
Ta2 Zr3 3.076467 1_565
Ta3 Zr0 3.076467 1_556
Ta3 Zr5 3.076467 1_655
Ta3 Zr4 3.076467 1_565
Al0 Os0 2.617437 1_556
Al0 Os1 2.746256 1_445
Al0 Os2 2.746263 1_545
Al0 Os3 2.746264 1_455
Al0 Al9 2.763263 1_555
Al0 Al10 2.763263 1_555
Al0 Al11 2.763272 1_555
Al0 Ta3 3.019752 1_445
Al0 Ta1 3.019759 1_455
Al0 Ta2 3.019759 1_545
Al0 Zr4 3.077144 1_455
Al0 Zr5 3.077145 1_545
Al0 Zr3 3.077152 1_555
Al1 Os0 2.617437 1_565
Al1 Os5 2.746256 1_454
Al1 Os3 2.746263 1_455
Al1 Os4 2.746263 1_554
Al1 Al10 2.763263 1_555
Al1 Al8 2.763263 1_555
Al1 Al11 2.763272 1_555
Al1 Ta3 3.019753 1_454
Al1 Ta2 3.019759 1_554
Al1 Ta0 3.019759 1_455
Al1 Zr5 3.077144 1_554
Al1 Zr0 3.077144 1_455
Al1 Zr1 3.077152 1_555
Al2 Os0 2.617437 1_655
Al2 Os6 2.746256 1_544
Al2 Os2 2.746263 1_545
Al2 Os4 2.746264 1_554
Al2 Al9 2.763263 1_555
Al2 Al8 2.763263 1_555
Al2 Ta3 3.019753 1_544
Al2 Ta1 3.019759 1_554
Al2 Ta0 3.019759 1_545
Al2 Zr4 3.077144 1_554
Al2 Zr0 3.077145 1_545
Al2 Zr2 3.077152 1_555
Al3 Os0 2.617430 1_555
Al3 Os1 2.746263 1_445
Al3 Os6 2.746264 1_544
Al3 Os5 2.746264 1_454
Al3 Al8 2.763277 1_555
Al3 Al9 2.763277 1_555
Al3 Ta0 3.019752 1_445
Al3 Ta1 3.019753 1_454
Al3 Ta2 3.019753 1_544
Al3 Zr3 3.077146 1_554
Al3 Zr2 3.077146 1_455
Al3 Zr1 3.077146 1_545
Al4 Os4 2.523929 1_554
Al4 Os5 2.523937 1_554
Al4 Os6 2.523937 1_554
Al4 Ta2 2.814884 1_554
Al4 Ta1 2.814884 1_554
Al4 Ta3 2.814891 1_554
Al4 Zr1 2.870948 1_555
Al4 Zr2 2.870948 1_555
Al4 Zr0 2.870954 1_555
Al5 Os2 2.523929 1_545
Al5 Os1 2.523937 1_545
Al5 Os6 2.523937 1_545
Al5 Ta2 2.814884 1_545
Al5 Ta0 2.814884 1_545
Al5 Ta3 2.814891 1_545
Al5 Zr2 2.870948 1_555
Al5 Zr3 2.870948 1_555
Al5 Zr4 2.870954 1_555
Al6 Os3 2.523929 1_455
Al6 Os5 2.523937 1_455
Al6 Os1 2.523937 1_455
Al6 Ta1 2.814884 1_455
Al6 Ta0 2.814884 1_455
Al6 Ta3 2.814891 1_455
Al6 Zr1 2.870948 1_555
Al6 Zr3 2.870948 1_555
Al6 Zr5 2.870954 1_555
Al7 Os4 2.523934 1_555
Al7 Os3 2.523935 1_555
Al7 Os2 2.523935 1_555
Al7 Ta0 2.814889 1_555
Al7 Ta2 2.814889 1_555
Al7 Ta1 2.814889 1_555
Al7 Zr5 2.870945 1_555
Al7 Zr0 2.870945 1_555
Al7 Zr4 2.870945 1_555
Al8 Os4 2.571765 1_554
Al8 Os5 2.571772 1_454
Al8 Os6 2.571772 1_544
Al8 Zr4 2.972697 1_554
Al8 Zr5 2.972697 1_554
Al8 Zr3 2.972702 1_554
Al9 Os2 2.571765 1_545
Al9 Os1 2.571772 1_445
Al9 Os6 2.571772 1_544
Al9 Zr5 2.972697 1_545
Al9 Zr0 2.972697 1_545
Al9 Zr1 2.972702 1_545
Al10 Os3 2.571765 1_455
Al10 Os5 2.571772 1_454
Al10 Os1 2.571772 1_445
Al10 Al3 2.763277 1_555
Al10 Zr4 2.972697 1_455
Al10 Zr0 2.972697 1_455
Al10 Zr2 2.972702 1_455
Al11 Os4 2.571770 1_554
Al11 Os3 2.571770 1_455
Al11 Os2 2.571770 1_545
Al11 Al2 2.763272 1_555
Al11 Zr2 2.972694 1_555
Al11 Zr3 2.972694 1_555
Al11 Zr1 2.972694 1_555
Os0 Ta0 2.612931 1_445
Os0 Ta2 2.612931 1_544
Os0 Ta3 2.612931 1_444
Os0 Ta1 2.612931 1_454
Os1 Ta3 2.712162 1_555
Os1 Ta0 2.712162 1_555
Os1 Zr1 3.176218 1_655
Os1 Zr5 3.176218 1_655
Os1 Zr2 3.176218 1_565
Os1 Zr4 3.176218 1_565
Os2 Ta2 2.712162 1_555
Os2 Ta0 2.712162 1_555
Os2 Zr5 3.176218 1_555
Os2 Zr2 3.176218 1_565
Os2 Zr0 3.176218 1_555
Os2 Zr3 3.176218 1_565
Os3 Ta1 2.712162 1_555
Os3 Ta0 2.712162 1_555
Os3 Zr1 3.176218 1_655
Os3 Zr4 3.176218 1_555
Os3 Zr0 3.176218 1_555
Os3 Zr3 3.176218 1_655
Os4 Ta1 2.712162 1_555
Os4 Ta2 2.712162 1_555
Os4 Zr1 3.176218 1_556
Os4 Zr2 3.176218 1_556
Os4 Zr5 3.176218 1_555
Os4 Zr4 3.176218 1_555
Os5 Ta1 2.712162 1_555
Os5 Ta3 2.712162 1_555
Os5 Zr2 3.176218 1_556
Os5 Zr5 3.176218 1_655
Os5 Zr0 3.176218 1_556
Os5 Zr3 3.176218 1_655
Os6 Ta3 2.712162 1_555
Os6 Ta2 2.712162 1_555
Os6 Zr1 3.176218 1_556
Os6 Zr4 3.176218 1_565
Os6 Zr0 3.176218 1_556
Os6 Zr3 3.176218 1_565
