# generated using pymatgen
data_Sc2Al3Mo
_symmetry_space_group_name_H-M   'P 1'
_cell_length_a   5.37578172
_cell_length_b   5.37578212
_cell_length_c   5.33901475
_cell_angle_alpha   59.77192642
_cell_angle_beta   59.77192424
_cell_angle_gamma   59.99999643
_symmetry_Int_Tables_number   1
_chemical_formula_structural   Sc2Al3Mo
_chemical_formula_sum   'Sc2 Al3 Mo1'
_cell_volume   108.72354342
_cell_formula_units_Z   1
loop_
 _symmetry_equiv_pos_site_id
 _symmetry_equiv_pos_as_xyz
  1  'x, y, z'
loop_
 _atom_site_type_symbol
 _atom_site_label
 _atom_site_symmetry_multiplicity
 _atom_site_fract_x
 _atom_site_fract_y
 _atom_site_fract_z
 _atom_site_occupancy
  Sc  Sc0  1  0.25423202  0.25423202  0.23730495  1
  Sc  Sc1  1  0.99576798  0.99576798  0.01269505  1
  Al  Al0  1  0.62500000  0.12500000  0.62500000  1
  Al  Al1  1  0.12500000  0.62500000  0.62500000  1
  Al  Al2  1  0.62500000  0.62500000  0.62500000  1
  Mo  Mo0  1  0.62500000  0.62500000  0.12500000  1
loop_
_geom_bond_atom_site_label_1
_geom_bond_atom_site_label_2
_geom_bond_distance
_geom_bond_site_symmetry_2
Sc0 Sc1 3.253472 1_545
Sc0 Sc1 3.253472 1_455
Sc0 Sc1 3.253481 1_445
Sc0 Sc1 3.368449 1_446
Al0 Mo0 2.669507 1_555
Al0 Mo0 2.669507 1_546
Al0 Al1 2.687891 1_645
Al0 Al1 2.687891 1_555
Al0 Al2 2.687891 1_555
Al0 Al2 2.687891 1_545
Al0 Sc0 3.079565 1_556
Al0 Sc1 3.079565 1_545
Al0 Sc1 3.171964 1_546
Al0 Sc0 3.171964 1_555
Al0 Sc0 3.171968 1_655
Al0 Sc1 3.171968 1_446
Al1 Mo0 2.669507 1_555
Al1 Mo0 2.669507 1_456
Al1 Al2 2.687891 1_455
Al1 Al2 2.687891 1_555
Al1 Sc0 3.079565 1_556
Al1 Sc1 3.079565 1_455
Al1 Sc1 3.171964 1_456
Al1 Sc0 3.171964 1_555
Al1 Sc0 3.171968 1_565
Al1 Sc1 3.171968 1_446
Al2 Mo0 2.669507 1_556
Al2 Mo0 2.669507 1_555
Al2 Sc1 3.079563 1_555
Al2 Sc0 3.079563 1_556
Al2 Sc0 3.171966 1_655
Al2 Sc1 3.171966 1_456
Al2 Sc0 3.171966 1_565
Al2 Sc1 3.171966 1_546
Mo0 Sc1 3.141817 1_555
Mo0 Sc0 3.141817 1_555
Mo0 Sc0 3.141821 1_655
Mo0 Sc1 3.141821 1_455
Mo0 Sc0 3.141821 1_565
Mo0 Sc1 3.141821 1_545
