# generated using pymatgen
data_Ta3Ti3(B2Ru5)2
_symmetry_space_group_name_H-M   'P 1'
_cell_length_a   9.25598779
_cell_length_b   9.25598779
_cell_length_c   3.01214487
_cell_angle_alpha   90.00000000
_cell_angle_beta   90.00000000
_cell_angle_gamma   89.79570906
_symmetry_Int_Tables_number   1
_chemical_formula_structural   Ta3Ti3(B2Ru5)2
_chemical_formula_sum   'Ta3 Ti3 B4 Ru10'
_cell_volume   258.05878042
_cell_formula_units_Z   1
loop_
 _symmetry_equiv_pos_site_id
 _symmetry_equiv_pos_as_xyz
  1  'x, y, z'
loop_
 _atom_site_type_symbol
 _atom_site_label
 _atom_site_symmetry_multiplicity
 _atom_site_fract_x
 _atom_site_fract_y
 _atom_site_fract_z
 _atom_site_occupancy
  Ta  Ta0  1  0.17587877  0.32412123  0.00000000  1
  Ta  Ta1  1  0.32305688  0.82186283  0.00000000  1
  Ta  Ta2  1  0.67813717  0.17694312  0.00000000  1
  Ti  Ti0  1  0.82240527  0.67759473  0.00000000  1
  Ti  Ti1  1  0.50119350  0.50053004  0.00000000  1
  Ti  Ti2  1  0.99946996  0.99880650  0.00000000  1
  B  B0  1  0.62570638  0.87429362  0.00000000  1
  B  B1  1  0.37666896  0.12333104  0.00000000  1
  B  B2  1  0.12170075  0.62373042  0.00000000  1
  B  B3  1  0.87626958  0.37829925  0.00000000  1
  Ru  Ru0  1  0.57034288  0.71559647  0.50000000  1
  Ru  Ru1  1  0.42861713  0.28437068  0.50000000  1
  Ru  Ru2  1  0.07252539  0.78480402  0.50000000  1
  Ru  Ru3  1  0.93017598  0.21607224  0.50000000  1
  Ru  Ru4  1  0.28392776  0.56982402  0.50000000  1
  Ru  Ru5  1  0.71519598  0.42747461  0.50000000  1
  Ru  Ru6  1  0.21562932  0.07138287  0.50000000  1
  Ru  Ru7  1  0.78440353  0.92965712  0.50000000  1
  Ru  Ru8  1  0.50013074  0.99986926  0.50000000  1
  Ru  Ru9  1  0.99856308  0.50143692  0.50000000  1
loop_
_geom_bond_atom_site_label_1
_geom_bond_atom_site_label_2
_geom_bond_distance
_geom_bond_site_symmetry_2
B0 Ru7 2.166537 1_555
B0 Ru7 2.166537 1_554
B0 Ru0 2.166537 1_554
B0 Ru0 2.166537 1_555
B0 Ru8 2.227246 1_554
B0 Ru8 2.227246 1_555
B0 Ti0 2.570183 1_555
B0 Ta2 2.844750 1_565
B0 Ta1 2.844750 1_555
B1 Ru1 2.174028 1_554
B1 Ru1 2.174028 1_555
B1 Ru6 2.174028 1_555
B1 Ru6 2.174028 1_554
B1 Ru8 2.206977 1_544
B1 Ru8 2.206977 1_545
B1 Ta0 2.623642 1_555
B1 Ta2 2.835908 1_555
B1 Ta1 2.835908 1_545
B2 Ru2 2.166416 1_554
B2 Ru2 2.166416 1_555
B2 Ru4 2.183251 1_554
B2 Ru4 2.183251 1_555
B2 Ru9 2.204045 1_454
B2 Ru9 2.204045 1_455
B2 Ta1 2.619383 1_555
B2 Ti0 2.813031 1_455
B2 Ta0 2.816394 1_555
B3 Ru5 2.166416 1_554
B3 Ru5 2.166416 1_555
B3 Ru3 2.183251 1_555
B3 Ru3 2.183251 1_554
B3 Ru9 2.204045 1_554
B3 Ru9 2.204045 1_555
B3 Ta2 2.619383 1_555
B3 Ti0 2.813031 1_555
B3 Ta0 2.816394 1_655
Ru0 Ti1 2.578700 1_556
Ru0 Ti1 2.578700 1_555
Ru0 Ti0 2.798110 1_556
Ru0 Ti0 2.798110 1_555
Ru0 Ta1 2.908371 1_555
Ru0 Ta1 2.908371 1_556
Ru1 Ti1 2.594645 1_556
Ru1 Ti1 2.594645 1_555
Ru1 Ta0 2.805355 1_556
Ru1 Ta0 2.805355 1_555
Ru1 Ta2 2.928250 1_555
Ru1 Ta2 2.928250 1_556
Ru2 Ti2 2.576730 1_456
Ru2 Ti2 2.576730 1_455
Ru2 Ta1 2.787285 1_555
Ru2 Ta1 2.787285 1_556
Ru2 Ti0 2.937530 1_456
Ru2 Ti0 2.937530 1_455
Ru3 Ti2 2.591252 1_545
Ru3 Ti2 2.591252 1_546
Ru3 Ta2 2.801379 1_556
Ru3 Ta2 2.801379 1_555
Ru3 Ta0 2.908051 1_656
Ru3 Ta0 2.908051 1_655
Ru4 Ti1 2.591252 1_556
Ru4 Ti1 2.591252 1_555
Ru4 Ta1 2.801379 1_555
Ru4 Ta1 2.801379 1_556
Ru4 Ta0 2.908051 1_555
Ru4 Ta0 2.908051 1_556
Ru5 Ti1 2.576730 1_556
Ru5 Ti1 2.576730 1_555
Ru5 Ta2 2.787285 1_556
Ru5 Ta2 2.787285 1_555
Ru5 Ti0 2.937530 1_556
Ru5 Ti0 2.937530 1_555
Ru6 Ti2 2.594645 1_445
Ru6 Ti2 2.594645 1_446
Ru6 Ta0 2.805355 1_556
Ru6 Ta0 2.805355 1_555
Ru6 Ta1 2.928250 1_546
Ru6 Ta1 2.928250 1_545
Ru7 Ti2 2.578700 1_555
Ru7 Ti2 2.578700 1_556
Ru7 Ti0 2.798110 1_556
Ru7 Ti0 2.798110 1_555
Ru7 Ta2 2.908371 1_566
Ru7 Ta2 2.908371 1_565
Ru8 Ta2 2.772811 1_566
Ru8 Ta2 2.772811 1_565
Ru8 Ta1 2.772811 1_555
Ru8 Ta1 2.772811 1_556
Ru9 Ti0 2.750718 1_555
Ru9 Ti0 2.750718 1_556
Ru9 Ta0 2.763391 1_656
Ru9 Ta0 2.763391 1_655
