# generated using pymatgen
data_Lu5Ta(B2Ir5)2
_symmetry_space_group_name_H-M   'P 1'
_cell_length_a   9.55821487
_cell_length_b   9.55821487
_cell_length_c   3.23095524
_cell_angle_alpha   90.00000000
_cell_angle_beta   90.00000000
_cell_angle_gamma   90.00000000
_symmetry_Int_Tables_number   1
_chemical_formula_structural   Lu5Ta(B2Ir5)2
_chemical_formula_sum   'Lu5 Ta1 B4 Ir10'
_cell_volume   295.17836287
_cell_formula_units_Z   1
loop_
 _symmetry_equiv_pos_site_id
 _symmetry_equiv_pos_as_xyz
  1  'x, y, z'
loop_
 _atom_site_type_symbol
 _atom_site_label
 _atom_site_symmetry_multiplicity
 _atom_site_fract_x
 _atom_site_fract_y
 _atom_site_fract_z
 _atom_site_occupancy
  Lu  Lu0  1  0.17508323  0.67642027  0.00000000  1
  Lu  Lu1  1  0.32357973  0.17508323  0.00000000  1
  Lu  Lu2  1  0.82491677  0.32357973  0.00000000  1
  Lu  Lu3  1  0.50000000  0.50000000  0.00000000  1
  Lu  Lu4  1  0.67642027  0.82491677  0.00000000  1
  Ta  Ta0  1  0.00000000  0.00000000  0.00000000  1
  B  B0  1  0.38406090  0.87812282  0.00000000  1
  B  B1  1  0.12187718  0.38406090  0.00000000  1
  B  B2  1  0.87812282  0.61593910  0.00000000  1
  B  B3  1  0.61593910  0.12187718  0.00000000  1
  Ir  Ir0  1  0.21786131  0.93443251  0.50000000  1
  Ir  Ir1  1  0.93443251  0.78213869  0.50000000  1
  Ir  Ir2  1  0.42428661  0.72818582  0.50000000  1
  Ir  Ir3  1  0.57571339  0.27181418  0.50000000  1
  Ir  Ir4  1  0.72818582  0.57571339  0.50000000  1
  Ir  Ir5  1  0.27181418  0.42428661  0.50000000  1
  Ir  Ir6  1  0.06556749  0.21786131  0.50000000  1
  Ir  Ir7  1  0.00000000  0.50000000  0.50000000  1
  Ir  Ir8  1  0.50000000  0.00000000  0.50000000  1
  Ir  Ir9  1  0.78213869  0.06556749  0.50000000  1
loop_
_geom_bond_atom_site_label_1
_geom_bond_atom_site_label_2
_geom_bond_distance
_geom_bond_site_symmetry_2
B0 Ir2 2.193504 1_555
B0 Ir2 2.193504 1_554
B0 Ir8 2.279225 1_565
B0 Ir8 2.279225 1_564
B0 Ir0 2.328735 1_555
B0 Ir0 2.328735 1_554
B0 Lu0 2.776091 1_555
B0 Lu4 2.840332 1_555
B0 Lu1 2.896682 1_565
B1 Ir5 2.193504 1_554
B1 Ir5 2.193504 1_555
B1 Ir7 2.279225 1_554
B1 Ir7 2.279225 1_555
B1 Ir6 2.328735 1_555
B1 Ir6 2.328735 1_554
B1 Lu1 2.776091 1_555
B1 Lu0 2.840332 1_555
B1 Lu2 2.896682 1_455
B2 Ir4 2.193504 1_555
B2 Ir4 2.193504 1_554
B2 Ir7 2.279225 1_655
B2 Ir7 2.279225 1_654
B2 Ir1 2.328735 1_555
B2 Ir1 2.328735 1_554
B2 Lu4 2.776091 1_555
B2 Lu2 2.840332 1_555
B2 Lu0 2.896682 1_655
B3 Ir3 2.193504 1_555
B3 Ir3 2.193504 1_554
B3 Ir8 2.279225 1_555
B3 Ir8 2.279225 1_554
B3 Ir9 2.328735 1_554
B3 Ir9 2.328735 1_555
B3 Lu2 2.776091 1_555
B3 Lu1 2.840332 1_555
B3 Lu4 2.896682 1_545
Ir0 Ta0 2.709018 1_566
Ir0 Ta0 2.709018 1_565
Ir0 Lu0 2.976370 1_556
Ir0 Lu0 2.976370 1_555
Ir0 Lu1 2.986924 1_565
Ir0 Lu1 2.986924 1_566
Ir1 Ta0 2.709018 1_665
Ir1 Ta0 2.709018 1_666
Ir1 Lu4 2.976370 1_555
Ir1 Lu4 2.976370 1_556
Ir1 Lu0 2.986924 1_656
Ir1 Lu0 2.986924 1_655
Ir2 Lu3 2.808997 1_555
Ir2 Lu3 2.808997 1_556
Ir2 Lu0 2.920311 1_556
Ir2 Lu0 2.920311 1_555
Ir2 Lu4 3.045071 1_555
Ir2 Lu4 3.045071 1_556
Ir3 Lu3 2.808997 1_555
Ir3 Lu3 2.808997 1_556
Ir3 Lu2 2.920311 1_556
Ir3 Lu2 2.920311 1_555
Ir3 Lu1 3.045071 1_556
Ir3 Lu1 3.045071 1_555
Ir4 Lu3 2.808997 1_555
Ir4 Lu3 2.808997 1_556
Ir4 Lu4 2.920311 1_555
Ir4 Lu4 2.920311 1_556
Ir4 Lu2 3.045071 1_555
Ir4 Lu2 3.045071 1_556
Ir5 Lu3 2.808997 1_555
Ir5 Lu3 2.808997 1_556
Ir5 Lu1 2.920311 1_556
Ir5 Lu1 2.920311 1_555
Ir5 Lu0 3.045071 1_556
Ir5 Lu0 3.045071 1_555
Ir6 Ta0 2.709018 1_555
Ir6 Ta0 2.709018 1_556
Ir6 Lu1 2.976370 1_556
Ir6 Lu1 2.976370 1_555
Ir6 Lu2 2.986924 1_456
Ir6 Lu2 2.986924 1_455
Ir7 Lu0 2.872942 1_555
Ir7 Lu0 2.872942 1_556
Ir7 Lu2 2.872942 1_455
Ir7 Lu2 2.872942 1_456
Ir8 Lu1 2.872942 1_556
Ir8 Lu1 2.872942 1_555
Ir8 Lu4 2.872942 1_545
Ir8 Lu4 2.872942 1_546
Ir9 Ta0 2.709018 1_656
Ir9 Ta0 2.709018 1_655
Ir9 Lu2 2.976370 1_556
Ir9 Lu2 2.976370 1_555
Ir9 Lu4 2.986924 1_545
Ir9 Lu4 2.986924 1_546
