# generated using pymatgen
data_Hf4Ta2TiH16
_symmetry_space_group_name_H-M   'P 1'
_cell_length_a   6.37594797
_cell_length_b   6.37594851
_cell_length_c   6.61714707
_cell_angle_alpha   58.74051365
_cell_angle_beta   58.74051069
_cell_angle_gamma   62.51896780
_symmetry_Int_Tables_number   1
_chemical_formula_structural   Hf4Ta2TiH16
_chemical_formula_sum   'Hf4 Ta2 Ti1 H16'
_cell_volume   189.64919159
_cell_formula_units_Z   1
loop_
 _symmetry_equiv_pos_site_id
 _symmetry_equiv_pos_as_xyz
  1  'x, y, z'
loop_
 _atom_site_type_symbol
 _atom_site_label
 _atom_site_symmetry_multiplicity
 _atom_site_fract_x
 _atom_site_fract_y
 _atom_site_fract_z
 _atom_site_occupancy
  Hf  Hf0  1  0.50000000  0.00000000  0.50000000  1
  Hf  Hf1  1  0.00000000  0.50000000  0.50000000  1
  Hf  Hf2  1  0.00000000  0.50000000  0.00000000  1
  Hf  Hf3  1  0.50000000  0.00000000  0.00000000  1
  Ta  Ta0  1  0.00000000  0.00000000  0.50000000  1
  Ta  Ta1  1  0.50000000  0.50000000  0.00000000  1
  Ti  Ti0  1  0.00000000  0.00000000  0.00000000  1
  H  H0  1  0.88124431  0.88124431  0.36666023  1
  H  H1  1  0.87085216  0.36666023  0.88124431  1
  H  H2  1  0.36666023  0.87085216  0.88124431  1
  H  H3  1  0.88124431  0.88124431  0.87085216  1
  H  H4  1  0.11875569  0.11875569  0.63333977  1
  H  H5  1  0.12914784  0.63333977  0.11875569  1
  H  H6  1  0.63333977  0.12914784  0.11875569  1
  H  H7  1  0.11875569  0.11875569  0.12914784  1
  H  H8  1  0.61696140  0.61696140  0.13185616  1
  H  H9  1  0.63422203  0.13185616  0.61696140  1
  H  H10  1  0.13185616  0.63422203  0.61696140  1
  H  H11  1  0.61696140  0.61696140  0.63422203  1
  H  H12  1  0.38303860  0.38303860  0.86814384  1
  H  H13  1  0.36577797  0.86814384  0.38303860  1
  H  H14  1  0.86814384  0.36577797  0.38303860  1
  H  H15  1  0.38303860  0.38303860  0.36577797  1
loop_
_geom_bond_atom_site_label_1
_geom_bond_atom_site_label_2
_geom_bond_distance
_geom_bond_site_symmetry_2
H0 Ti0 1.936292 1_665
H0 Ta0 1.959842 1_665
H0 Hf0 2.007333 1_565
H0 Hf1 2.007333 1_655
H1 Ti0 1.936292 1_656
H1 Ta1 1.959847 1_556
H1 Hf2 2.007328 1_656
H1 Hf1 2.007333 1_655
H2 Ti0 1.936292 1_566
H2 Ta1 1.959848 1_556
H2 Hf3 2.007328 1_566
H2 Hf0 2.007333 1_565
H3 Ti0 1.936287 1_666
H3 Ta0 1.959848 1_665
H3 Hf3 2.007333 1_566
H3 Hf2 2.007333 1_656
H4 Ti0 1.936292 1_556
H4 Ta0 1.959842 1_555
H4 Hf0 2.007333 1_555
H4 Hf1 2.007333 1_555
H5 Ti0 1.936292 1_565
H5 Ta1 1.959847 1_555
H5 Hf2 2.007328 1_555
H5 Hf1 2.007333 1_555
H6 Ti0 1.936292 1_655
H6 Ta1 1.959848 1_555
H6 Hf3 2.007328 1_555
H6 Hf0 2.007333 1_555
H7 Ti0 1.936287 1_555
H7 Ta0 1.959848 1_555
H7 Hf3 2.007333 1_555
H7 Hf2 2.007333 1_555
H8 Ta1 1.933223 1_555
H8 Hf2 2.016144 1_655
H8 Hf3 2.016144 1_565
H9 Ta0 1.933218 1_655
H9 Hf3 2.016144 1_556
H9 Hf0 2.016149 1_555
H10 Ta0 1.933218 1_565
H10 Hf2 2.016144 1_556
H10 Hf1 2.016149 1_555
H11 Ta1 1.933217 1_556
H11 Hf1 2.016144 1_655
H11 Hf0 2.016144 1_565
H12 Ta1 1.933223 1_556
H12 Hf2 2.016144 1_556
H12 Hf3 2.016144 1_556
H13 Ta0 1.933218 1_565
H13 Hf3 2.016144 1_565
H13 Hf0 2.016149 1_565
H14 Ta0 1.933218 1_655
H14 Hf2 2.016144 1_655
H14 Hf1 2.016149 1_655
H15 Ta1 1.933217 1_555
H15 Hf1 2.016144 1_555
H15 Hf0 2.016144 1_555
