# generated using pymatgen
data_Ti4ZnPdN2
_symmetry_space_group_name_H-M   'P 1'
_cell_length_a   8.23477058
_cell_length_b   8.23477137
_cell_length_c   4.21542669
_cell_angle_alpha   90.00000000
_cell_angle_beta   90.00000000
_cell_angle_gamma   159.24212216
_symmetry_Int_Tables_number   1
_chemical_formula_structural   Ti4ZnPdN2
_chemical_formula_sum   'Ti4 Zn1 Pd1 N2'
_cell_volume   101.31233734
_cell_formula_units_Z   1
loop_
 _symmetry_equiv_pos_site_id
 _symmetry_equiv_pos_as_xyz
  1  'x, y, z'
loop_
 _atom_site_type_symbol
 _atom_site_label
 _atom_site_symmetry_multiplicity
 _atom_site_fract_x
 _atom_site_fract_y
 _atom_site_fract_z
 _atom_site_occupancy
  Ti  Ti0  1  0.78785699  0.21214301  0.25000000  1
  Ti  Ti1  1  0.21210664  0.78789336  0.75000000  1
  Ti  Ti2  1  0.61078301  0.38921699  0.25000000  1
  Ti  Ti3  1  0.38906137  0.61093863  0.75000000  1
  Zn  Zn0  1  0.04413530  0.95586470  0.75000000  1
  Pd  Pd0  1  0.95700812  0.04299188  0.25000000  1
  N  N0  1  0.19867743  0.80132257  0.25000000  1
  N  N1  1  0.80037114  0.19962886  0.75000000  1
loop_
_geom_bond_atom_site_label_1
_geom_bond_atom_site_label_2
_geom_bond_distance
_geom_bond_site_symmetry_2
Pd0 Zn0 2.536669 1_644
Pd0 Zn0 2.536669 1_645
Pd0 Ti0 2.740259 1_555
Pd0 Ti3 2.802682 1_545
Pd0 Ti3 2.802682 1_544
Pd0 Ti3 2.802682 1_655
Pd0 Ti3 2.802682 1_654
Pd0 Ti2 2.899453 1_655
Pd0 Ti2 2.899454 1_545
N0 Ti2 2.056311 1_455
N0 Ti2 2.056312 1_565
N0 Ti0 2.070782 1_565
N0 Ti0 2.070783 1_455
N0 Ti1 2.118911 1_555
N0 Ti1 2.118911 1_554
N1 Ti1 2.060467 1_545
N1 Ti1 2.060468 1_655
N1 Ti3 2.065259 1_655
N1 Ti3 2.065260 1_545
N1 Ti0 2.117441 1_556
N1 Ti0 2.117441 1_555
