# generated using pymatgen
data_Na16ZrSnSb8
_symmetry_space_group_name_H-M   'P 1'
_cell_length_a   10.45494084
_cell_length_b   10.45494088
_cell_length_c   10.45494092
_cell_angle_alpha   59.99999989
_cell_angle_beta   59.99999975
_cell_angle_gamma   59.99999997
_symmetry_Int_Tables_number   1
_chemical_formula_structural   Na16ZrSnSb8
_chemical_formula_sum   'Na16 Zr1 Sn1 Sb8'
_cell_volume   808.07141634
_cell_formula_units_Z   1
loop_
 _symmetry_equiv_pos_site_id
 _symmetry_equiv_pos_as_xyz
  1  'x, y, z'
loop_
 _atom_site_type_symbol
 _atom_site_label
 _atom_site_symmetry_multiplicity
 _atom_site_fract_x
 _atom_site_fract_y
 _atom_site_fract_z
 _atom_site_occupancy
  Na  Na0  1  0.62770895  0.11687216  0.62770895  1
  Na  Na1  1  0.62770895  0.62770895  0.11687216  1
  Na  Na2  1  0.11687216  0.62770895  0.62770895  1
  Na  Na3  1  0.62770895  0.62770895  0.62770895  1
  Na  Na4  1  0.02803148  0.02803148  0.47196852  1
  Na  Na5  1  0.76810545  0.23189455  0.23189455  1
  Na  Na6  1  0.23189455  0.76810545  0.76810545  1
  Na  Na7  1  0.76810545  0.76810545  0.23189455  1
  Na  Na8  1  0.76810545  0.23189455  0.76810545  1
  Na  Na9  1  0.23189455  0.76810545  0.23189455  1
  Na  Na10  1  0.47196852  0.02803148  0.47196852  1
  Na  Na11  1  0.47196852  0.02803148  0.02803148  1
  Na  Na12  1  0.02803148  0.47196852  0.47196852  1
  Na  Na13  1  0.02803148  0.47196852  0.02803148  1
  Na  Na14  1  0.23189455  0.23189455  0.76810545  1
  Na  Na15  1  0.47196852  0.47196852  0.02803148  1
  Zr  Zr0  1  0.50000000  0.50000000  0.50000000  1
  Sn  Sn0  1  0.75000000  0.75000000  0.75000000  1
  Sb  Sb0  1  0.41464462  0.86178446  0.86178446  1
  Sb  Sb1  1  0.86178446  0.86178446  0.86178446  1
  Sb  Sb2  1  0.82897471  0.39034210  0.39034210  1
  Sb  Sb3  1  0.39034210  0.39034210  0.39034210  1
  Sb  Sb4  1  0.39034210  0.39034210  0.82897471  1
  Sb  Sb5  1  0.86178446  0.41464462  0.86178446  1
  Sb  Sb6  1  0.86178446  0.86178446  0.41464462  1
  Sb  Sb7  1  0.39034210  0.82897471  0.39034210  1
loop_
_geom_bond_atom_site_label_1
_geom_bond_atom_site_label_2
_geom_bond_distance
_geom_bond_site_symmetry_2
Na0 Sn0 3.131776 1_545
Na0 Zr0 3.270541 1_555
Na0 Na14 3.382309 1_555
Na0 Na5 3.382309 1_555
Na0 Na8 3.382318 1_555
Na0 Na10 3.441091 1_555
Na0 Na4 3.441099 1_655
Na0 Na11 3.441099 1_556
Na0 Sb1 3.467893 1_545
Na0 Sb0 3.467900 1_545
Na0 Sb6 3.467900 1_545
Na0 Sb3 3.529831 1_555
Na0 Sb2 3.529845 1_555
Na0 Sb4 3.529845 1_555
Na1 Sn0 3.131776 1_554
Na1 Zr0 3.270541 1_555
Na1 Na9 3.382309 1_555
Na1 Na5 3.382309 1_555
Na1 Na7 3.382318 1_555
Na1 Na15 3.441091 1_555
Na1 Na13 3.441099 1_655
Na1 Na11 3.441099 1_565
Na1 Sb1 3.467893 1_554
Na1 Sb5 3.467900 1_554
Na1 Sb0 3.467900 1_554
Na1 Sb3 3.529831 1_555
Na1 Sb7 3.529845 1_555
Na1 Sb2 3.529845 1_555
Na2 Sn0 3.131776 1_455
Na2 Zr0 3.270541 1_555
Na2 Na9 3.382309 1_555
Na2 Na6 3.382318 1_555
Na2 Na4 3.441099 1_565
Na2 Sb1 3.467893 1_455
Na2 Sb5 3.467900 1_455
Na2 Sb6 3.467900 1_455
Na2 Sb3 3.529831 1_555
Na2 Sb7 3.529845 1_555
Na2 Sb4 3.529845 1_555
Na3 Sn0 3.131785 1_555
Na3 Zr0 3.270533 1_555
Na3 Na6 3.382309 1_555
Na3 Na8 3.382309 1_555
Na3 Na7 3.382309 1_555
Na3 Sb6 3.467892 1_555
Na3 Sb5 3.467892 1_555
Na3 Sb0 3.467892 1_555
Na3 Sb4 3.529829 1_555
Na3 Sb7 3.529829 1_555
Na3 Sb2 3.529829 1_555
Na4 Sb7 3.173023 1_545
Na4 Sb2 3.173023 1_455
Na4 Sb1 3.391967 1_445
Na4 Sb6 3.391981 1_445
Na5 Sb6 3.204835 1_545
Na5 Sb5 3.204836 1_554
Na5 Sb3 3.278098 1_555
Na5 Sb2 3.278105 1_555
Na6 Sb0 3.204820 1_555
Na6 Sb1 3.204839 1_455
Na6 Sb4 3.278096 1_555
Na6 Sb7 3.278096 1_555
Na7 Sb6 3.204820 1_555
Na7 Sb1 3.204839 1_554
Na7 Sb7 3.278096 1_555
Na7 Sb2 3.278096 1_555
Na8 Sb5 3.204820 1_555
Na8 Sb1 3.204839 1_545
Na8 Sb4 3.278096 1_555
Na8 Sb2 3.278096 1_555
Na9 Sb6 3.204835 1_455
Na9 Sb0 3.204835 1_554
Na9 Sb3 3.278098 1_555
Na9 Sb7 3.278105 1_555
Na10 Sb7 3.173015 1_545
Na10 Sb3 3.173025 1_555
Na10 Sb6 3.391963 1_545
Na10 Sb0 3.391964 1_545
Na10 Na3 3.441098 1_545
Na11 Sb4 3.173023 1_554
Na11 Sb7 3.173023 1_545
Na11 Sb1 3.391967 1_544
Na11 Sb0 3.391981 1_544
Na12 Sb2 3.173015 1_455
Na12 Sb3 3.173025 1_555
Na12 Sb6 3.391964 1_455
Na12 Sb5 3.391964 1_455
Na12 Na2 3.441091 1_555
Na12 Na3 3.441098 1_455
Na13 Sb4 3.173023 1_554
Na13 Sb2 3.173023 1_455
Na13 Sb1 3.391967 1_454
Na13 Sb5 3.391981 1_454
Na13 Na2 3.441099 1_554
Na14 Sb5 3.204835 1_455
Na14 Sb0 3.204835 1_545
Na14 Sb3 3.278098 1_555
Na14 Sb4 3.278105 1_555
Na14 Na2 3.382309 1_555
Na15 Sb4 3.173015 1_554
Na15 Sb3 3.173025 1_555
Na15 Sb5 3.391963 1_554
Na15 Sb0 3.391964 1_554
Na15 Na3 3.441098 1_554
Sb0 Sn0 2.862735 1_555
Sb1 Sn0 2.862718 1_555
Sb2 Zr0 2.808267 1_555
Sb3 Zr0 2.808259 1_555
Sb4 Zr0 2.808267 1_555
Sb5 Sn0 2.862736 1_555
Sb6 Sn0 2.862736 1_555
Sb7 Zr0 2.808267 1_555
