# generated using pymatgen
data_Rb2Hg3I8
_symmetry_space_group_name_H-M   'P 1'
_cell_length_a   11.50496027
_cell_length_b   11.50496057
_cell_length_c   7.93823298
_cell_angle_alpha   84.15769406
_cell_angle_beta   84.15769169
_cell_angle_gamma   142.50632089
_symmetry_Int_Tables_number   1
_chemical_formula_structural   Rb2Hg3I8
_chemical_formula_sum   'Rb2 Hg3 I8'
_cell_volume   606.63060343
_cell_formula_units_Z   1
loop_
 _symmetry_equiv_pos_site_id
 _symmetry_equiv_pos_as_xyz
  1  'x, y, z'
loop_
 _atom_site_type_symbol
 _atom_site_label
 _atom_site_symmetry_multiplicity
 _atom_site_fract_x
 _atom_site_fract_y
 _atom_site_fract_z
 _atom_site_occupancy
  Rb  Rb0  1  0.66130430  0.93855038  0.52341334  1
  Rb  Rb1  1  0.93855038  0.66130430  0.52341334  1
  Hg  Hg0  1  0.94633746  0.94633746  0.03721952  1
  Hg  Hg1  1  0.94340804  0.32619784  0.90663709  1
  Hg  Hg2  1  0.32619784  0.94340804  0.90663709  1
  I  I0  1  0.63140078  0.63140078  0.32906656  1
  I  I1  1  0.00633505  0.00633505  0.68174591  1
  I  I2  1  0.53157927  0.90951628  0.02679854  1
  I  I3  1  0.90951628  0.53157927  0.02679854  1
  I  I4  1  0.10850229  0.48569270  0.54307010  1
  I  I5  1  0.48569270  0.10850229  0.54307010  1
  I  I6  1  0.30842641  0.11713420  0.10823944  1
  I  I7  1  0.11713420  0.30842641  0.10823944  1
loop_
_geom_bond_atom_site_label_1
_geom_bond_atom_site_label_2
_geom_bond_distance
_geom_bond_site_symmetry_2
Hg0 I1 2.714132 1_664
Hg0 I0 2.715443 1_555
Hg0 I6 3.040909 1_665
Hg0 I7 3.040909 1_665
Hg1 I4 2.753083 1_655
Hg1 I7 2.798371 1_656
Hg1 I2 2.906270 1_546
Hg1 I3 2.913829 1_556
Hg2 I5 2.753083 1_565
Hg2 I6 2.798371 1_566
Hg2 I3 2.906270 1_456
Hg2 I2 2.913829 1_556
I0 Rb1 3.778173 1_555
I0 Rb0 3.778173 1_555
I1 Rb0 3.774687 1_445
I1 Rb1 3.774687 1_445
I2 Rb0 4.003749 1_554
I3 Rb1 4.003749 1_554
I4 Rb1 3.767791 1_455
I4 Rb0 3.830073 1_555
I4 Rb0 3.884700 1_445
I5 Rb0 3.767791 1_545
I5 Rb1 3.830073 1_555
I5 Rb1 3.884700 1_445
I6 Rb1 3.832274 1_445
I7 Rb0 3.832274 1_445
