# generated using pymatgen
data_Y6Sb7AsPd16
_symmetry_space_group_name_H-M   'P 1'
_cell_length_a   9.28267104
_cell_length_b   9.28267080
_cell_length_c   9.28267093
_cell_angle_alpha   59.99999953
_cell_angle_beta   60.00000039
_cell_angle_gamma   59.99999739
_symmetry_Int_Tables_number   1
_chemical_formula_structural   Y6Sb7AsPd16
_chemical_formula_sum   'Y6 Sb7 As1 Pd16'
_cell_volume   565.59278139
_cell_formula_units_Z   1
loop_
 _symmetry_equiv_pos_site_id
 _symmetry_equiv_pos_as_xyz
  1  'x, y, z'
loop_
 _atom_site_type_symbol
 _atom_site_label
 _atom_site_symmetry_multiplicity
 _atom_site_fract_x
 _atom_site_fract_y
 _atom_site_fract_z
 _atom_site_occupancy
  Y  Y0  1  0.71709911  0.28290089  0.28290089  1
  Y  Y1  1  0.28290089  0.71709911  0.71709911  1
  Y  Y2  1  0.28290089  0.71709911  0.28290089  1
  Y  Y3  1  0.71709911  0.28290089  0.71709911  1
  Y  Y4  1  0.28290089  0.28290089  0.71709911  1
  Y  Y5  1  0.71709911  0.71709911  0.28290089  1
  Sb  Sb0  1  0.00000000  0.00000000  0.00000000  1
  Sb  Sb1  1  0.50000000  0.00000000  0.00000000  1
  Sb  Sb2  1  0.00000000  0.50000000  0.50000000  1
  Sb  Sb3  1  0.00000000  0.50000000  0.00000000  1
  Sb  Sb4  1  0.50000000  0.00000000  0.50000000  1
  Sb  Sb5  1  0.00000000  0.00000000  0.50000000  1
  Sb  Sb6  1  0.50000000  0.50000000  0.00000000  1
  As  As0  1  0.50000000  0.50000000  0.50000000  1
  Pd  Pd0  1  0.11823360  0.11823360  0.11823360  1
  Pd  Pd1  1  0.88176640  0.88176640  0.88176640  1
  Pd  Pd2  1  0.11823360  0.11823360  0.64529819  1
  Pd  Pd3  1  0.11823360  0.64529819  0.11823360  1
  Pd  Pd4  1  0.88176640  0.88176640  0.35470181  1
  Pd  Pd5  1  0.88176640  0.35470181  0.88176640  1
  Pd  Pd6  1  0.64529819  0.11823360  0.11823360  1
  Pd  Pd7  1  0.35470181  0.88176640  0.88176640  1
  Pd  Pd8  1  0.33220112  0.33220112  0.33220112  1
  Pd  Pd9  1  0.66779888  0.66779888  0.66779888  1
  Pd  Pd10  1  0.33220112  0.33220112  0.00339765  1
  Pd  Pd11  1  0.33220112  0.00339765  0.33220112  1
  Pd  Pd12  1  0.66779888  0.66779888  0.99660235  1
  Pd  Pd13  1  0.66779888  0.99660235  0.66779888  1
  Pd  Pd14  1  0.00339765  0.33220112  0.33220112  1
  Pd  Pd15  1  0.99660235  0.66779888  0.66779888  1
loop_
_geom_bond_atom_site_label_1
_geom_bond_atom_site_label_2
_geom_bond_distance
_geom_bond_site_symmetry_2
Sb1 Y5 3.310218 1_545
Sb1 Y4 3.310218 1_554
Sb1 Y3 3.310218 1_554
Sb1 Y2 3.310218 1_545
Sb2 Y4 3.310218 1_555
Sb2 Y5 3.310218 1_455
Sb2 Y2 3.310218 1_555
Sb2 Y3 3.310218 1_455
Sb3 Y5 3.310218 1_455
Sb3 Y4 3.310218 1_554
Sb3 Y1 3.310218 1_554
Sb3 Y0 3.310218 1_455
Sb4 Y4 3.310218 1_555
Sb4 Y5 3.310218 1_545
Sb4 Y0 3.310218 1_555
Sb4 Y1 3.310218 1_545
Sb5 Y1 3.310218 1_545
Sb5 Y0 3.310218 1_455
Sb5 Y3 3.310218 1_455
Sb5 Y2 3.310218 1_545
Sb6 Y2 3.310218 1_555
Sb6 Y3 3.310218 1_554
Sb6 Y0 3.310218 1_555
Sb6 Y1 3.310218 1_554
As0 Y1 2.850007 1_555
As0 Y0 2.850007 1_555
As0 Y3 2.850007 1_555
As0 Y2 2.850007 1_555
As0 Y5 2.850008 1_555
As0 Y4 2.850008 1_555
Pd0 Sb0 2.688373 1_555
Pd0 Sb3 2.897144 1_555
Pd0 Sb1 2.897144 1_555
Pd0 Sb5 2.897144 1_555
Pd0 Pd14 2.955787 1_555
Pd0 Pd11 2.955788 1_555
Pd0 Pd10 2.955788 1_555
Pd0 Y2 3.080775 1_545
Pd0 Y0 3.080775 1_455
Pd0 Y4 3.080775 1_554
Pd0 Pd5 3.104266 1_454
Pd0 Pd7 3.104266 1_544
Pd0 Pd4 3.104266 1_445
Pd1 Sb0 2.688373 1_666
Pd1 Sb3 2.897144 1_656
Pd1 Sb1 2.897144 1_566
Pd1 Sb5 2.897144 1_665
Pd1 Pd15 2.955787 1_555
Pd1 Pd13 2.955788 1_555
Pd1 Pd12 2.955788 1_555
Pd1 Y3 3.080775 1_565
Pd1 Y1 3.080775 1_655
Pd1 Y5 3.080775 1_556
Pd1 Pd3 3.104266 1_656
Pd1 Pd6 3.104266 1_566
Pd1 Pd2 3.104266 1_665
Pd2 Sb0 2.688380 1_556
Pd2 Sb5 2.897136 1_555
Pd2 Sb2 2.897143 1_555
Pd2 Sb4 2.897143 1_555
Pd2 Pd8 2.955782 1_555
Pd2 Y1 3.080774 1_545
Pd2 Y3 3.080774 1_455
Pd2 Y4 3.080782 1_555
Pd2 Pd5 3.104279 1_455
Pd2 Pd7 3.104279 1_545
Pd3 Sb0 2.688380 1_565
Pd3 Sb3 2.897136 1_555
Pd3 Sb6 2.897143 1_555
Pd3 Sb2 2.897143 1_555
Pd3 Pd8 2.955782 1_555
Pd3 Y1 3.080774 1_554
Pd3 Y5 3.080774 1_455
Pd3 Y2 3.080782 1_555
Pd3 Pd4 3.104279 1_455
Pd3 Pd7 3.104279 1_554
Pd4 Sb0 2.688380 1_665
Pd4 Sb5 2.897136 1_665
Pd4 Sb2 2.897143 1_655
Pd4 Sb4 2.897143 1_565
Pd4 Pd9 2.955782 1_555
Pd4 Y0 3.080774 1_565
Pd4 Y2 3.080774 1_655
Pd4 Y5 3.080782 1_555
Pd4 Pd6 3.104279 1_565
Pd5 Sb0 2.688380 1_656
Pd5 Sb3 2.897136 1_656
Pd5 Sb6 2.897143 1_556
Pd5 Sb2 2.897143 1_655
Pd5 Pd9 2.955782 1_555
Pd5 Y0 3.080774 1_556
Pd5 Y4 3.080774 1_655
Pd5 Y3 3.080782 1_555
Pd5 Pd6 3.104279 1_556
Pd6 Sb0 2.688380 1_655
Pd6 Sb1 2.897136 1_555
Pd6 Sb6 2.897143 1_555
Pd6 Sb4 2.897143 1_555
Pd6 Pd8 2.955782 1_555
Pd6 Y5 3.080774 1_545
Pd6 Y3 3.080774 1_554
Pd6 Y0 3.080782 1_555
Pd7 Sb0 2.688380 1_566
Pd7 Sb1 2.897136 1_566
Pd7 Sb6 2.897143 1_556
Pd7 Sb4 2.897143 1_565
Pd7 Pd9 2.955782 1_555
Pd7 Y4 3.080774 1_565
Pd7 Y2 3.080774 1_556
Pd7 Y1 3.080782 1_555
Pd8 Sb4 2.679800 1_555
Pd8 Sb2 2.679800 1_555
Pd8 Sb6 2.679800 1_555
Pd8 Y2 3.181762 1_555
Pd8 Y4 3.181762 1_555
Pd8 Y0 3.181762 1_555
Pd9 Sb4 2.679800 1_565
Pd9 Sb2 2.679800 1_655
Pd9 Sb6 2.679800 1_556
Pd9 Y3 3.181762 1_555
Pd9 Y5 3.181762 1_555
Pd9 Y1 3.181762 1_555
Pd10 Sb6 2.679795 1_555
Pd10 Sb1 2.679803 1_555
Pd10 Sb3 2.679803 1_555
Pd10 Pd3 2.955772 1_555
Pd10 Pd6 2.955772 1_555
Pd10 Y1 3.181765 1_554
Pd10 Y3 3.181765 1_554
Pd10 Y4 3.181771 1_554
Pd11 Sb4 2.679795 1_555
Pd11 Sb1 2.679803 1_555
Pd11 Sb5 2.679803 1_555
Pd11 Pd2 2.955772 1_555
Pd11 Pd6 2.955772 1_555
Pd11 Y5 3.181765 1_545
Pd11 Y1 3.181765 1_545
Pd11 Y2 3.181771 1_545
Pd12 Sb6 2.679795 1_556
Pd12 Sb1 2.679803 1_566
Pd12 Sb3 2.679803 1_656
Pd12 Pd5 2.955772 1_555
Pd12 Pd7 2.955772 1_555
Pd12 Y0 3.181765 1_556
Pd12 Y2 3.181765 1_556
Pd12 Y5 3.181771 1_556
Pd13 Sb4 2.679795 1_565
Pd13 Sb1 2.679803 1_566
Pd13 Sb5 2.679803 1_665
Pd13 Pd4 2.955772 1_555
Pd13 Pd7 2.955772 1_555
Pd13 Y4 3.181765 1_565
Pd13 Y0 3.181765 1_565
Pd13 Y3 3.181771 1_565
Pd14 Sb2 2.679795 1_555
Pd14 Sb5 2.679803 1_555
Pd14 Sb3 2.679803 1_555
Pd14 Pd2 2.955772 1_555
Pd14 Pd3 2.955772 1_555
Pd14 Y5 3.181765 1_455
Pd14 Y3 3.181765 1_455
Pd14 Y0 3.181771 1_455
Pd15 Sb2 2.679795 1_655
Pd15 Sb5 2.679803 1_665
Pd15 Sb3 2.679803 1_656
Pd15 Pd4 2.955772 1_555
Pd15 Pd5 2.955772 1_555
Pd15 Y4 3.181765 1_655
Pd15 Y2 3.181765 1_655
Pd15 Y1 3.181771 1_655
