# generated using pymatgen
data_K2Te3PtO12
_symmetry_space_group_name_H-M   'P 1'
_cell_length_a   7.02362537
_cell_length_b   7.02362505
_cell_length_c   7.02459403
_cell_angle_alpha   61.76912152
_cell_angle_beta   61.76912291
_cell_angle_gamma   61.78212057
_symmetry_Int_Tables_number   1
_chemical_formula_structural   K2Te3PtO12
_chemical_formula_sum   'K2 Te3 Pt1 O12'
_cell_volume   254.77131699
_cell_formula_units_Z   1
loop_
 _symmetry_equiv_pos_site_id
 _symmetry_equiv_pos_as_xyz
  1  'x, y, z'
loop_
 _atom_site_type_symbol
 _atom_site_label
 _atom_site_symmetry_multiplicity
 _atom_site_fract_x
 _atom_site_fract_y
 _atom_site_fract_z
 _atom_site_occupancy
  K  K0  1  0.86531692  0.88008684  0.37151059  1
  K  K1  1  0.11991316  0.13468308  0.62848941  1
  Te  Te0  1  0.99627402  0.50392462  0.99999893  1
  Te  Te1  1  0.49607538  0.00372598  0.00000107  1
  Te  Te2  1  0.49627261  0.50372739  0.50000000  1
  Pt  Pt0  1  0.49637859  0.50362141  0.00000000  1
  O  O0  1  0.17682477  0.18426668  0.07373233  1
  O  O1  1  0.57987723  0.58610370  0.66238335  1
  O  O2  1  0.15881717  0.58647101  0.08318838  1
  O  O3  1  0.57032993  0.18415371  0.68053497  1
  O  O4  1  0.57956428  0.16609987  0.08256754  1
  O  O5  1  0.17684481  0.57739491  0.68055309  1
  O  O6  1  0.81573332  0.82317523  0.92626767  1
  O  O7  1  0.41389630  0.42012277  0.33761665  1
  O  O8  1  0.83390013  0.42043572  0.91743246  1
  O  O9  1  0.42260509  0.82315519  0.31944691  1
  O  O10  1  0.41352899  0.84118283  0.91681162  1
  O  O11  1  0.81584629  0.42967007  0.31946503  1
loop_
_geom_bond_atom_site_label_1
_geom_bond_atom_site_label_2
_geom_bond_distance
_geom_bond_site_symmetry_2
K0 O4 2.892598 1_565
K0 O1 2.916439 1_555
K0 O2 2.930157 1_655
K0 O3 3.084246 1_565
K0 O0 3.096710 1_665
K0 O5 3.122294 1_655
K1 O8 2.892598 1_455
K1 O7 2.916439 1_555
K1 O10 2.930157 1_545
K1 O11 3.084246 1_455
K1 O6 3.096710 1_445
K1 O9 3.122294 1_545
O0 Te1 1.933369 1_555
O0 Te0 1.935455 1_454
O1 Te2 1.886807 1_555
O1 Pt0 2.002443 1_556
O2 Te0 1.886419 1_454
O2 Pt0 2.001898 1_555
O3 Te1 1.934247 1_556
O3 Te2 1.934933 1_555
O4 Te1 1.887016 1_555
O4 Pt0 2.001908 1_555
O5 Te2 1.934141 1_555
O5 Te0 1.934217 1_455
O6 Te0 1.933369 1_555
O6 Te1 1.935455 1_566
O7 Te2 1.886807 1_555
O7 Pt0 2.002443 1_555
O8 Te0 1.887016 1_555
O8 Pt0 2.001908 1_556
O9 Te2 1.934141 1_555
O9 Te1 1.934217 1_565
O10 Te1 1.886419 1_566
O10 Pt0 2.001898 1_556
O11 Te0 1.934247 1_554
O11 Te2 1.934933 1_555
