# generated using pymatgen
data_Ga8BiSb3S16
_symmetry_space_group_name_H-M   'P 1'
_cell_length_a   7.50568452
_cell_length_b   7.50568452
_cell_length_c   12.10183296
_cell_angle_alpha   90.00000000
_cell_angle_beta   90.00000000
_cell_angle_gamma   90.00000000
_symmetry_Int_Tables_number   1
_chemical_formula_structural   Ga8BiSb3S16
_chemical_formula_sum   'Ga8 Bi1 Sb3 S16'
_cell_volume   681.76039248
_cell_formula_units_Z   1
loop_
 _symmetry_equiv_pos_site_id
 _symmetry_equiv_pos_as_xyz
  1  'x, y, z'
loop_
 _atom_site_type_symbol
 _atom_site_label
 _atom_site_symmetry_multiplicity
 _atom_site_fract_x
 _atom_site_fract_y
 _atom_site_fract_z
 _atom_site_occupancy
  Ga  Ga0  1  0.00000000  0.50000000  0.25000975  1
  Ga  Ga1  1  0.00000000  0.50000000  0.99985016  1
  Ga  Ga2  1  0.00000000  0.50000000  0.74973453  1
  Ga  Ga3  1  0.50000000  0.00000000  0.49980589  1
  Ga  Ga4  1  0.50000000  0.00000000  0.99985016  1
  Ga  Ga5  1  0.50000000  0.00000000  0.74973453  1
  Ga  Ga6  1  0.00000000  0.50000000  0.49980589  1
  Ga  Ga7  1  0.50000000  0.00000000  0.25000975  1
  Bi  Bi0  1  0.00000000  0.00000000  0.87405542  1
  Sb  Sb0  1  0.00000000  0.00000000  0.13042327  1
  Sb  Sb1  1  0.50000000  0.50000000  0.37373332  1
  Sb  Sb2  1  0.50000000  0.50000000  0.62598245  1
  S  S0  1  0.65963396  0.16535047  0.62395741  1
  S  S1  1  0.34109384  0.16594830  0.37575058  1
  S  S2  1  0.65890616  0.83405170  0.37575058  1
  S  S3  1  0.83580944  0.34010057  0.87506071  1
  S  S4  1  0.83464953  0.65963396  0.62395741  1
  S  S5  1  0.65989943  0.83580944  0.87506071  1
  S  S6  1  0.83405170  0.34109384  0.37575058  1
  S  S7  1  0.84175858  0.66606501  0.12448277  1
  S  S8  1  0.16594830  0.65890616  0.37575058  1
  S  S9  1  0.15824142  0.33393499  0.12448277  1
  S  S10  1  0.16535047  0.34036604  0.62395741  1
  S  S11  1  0.33393499  0.84175858  0.12448277  1
  S  S12  1  0.34036604  0.83464953  0.62395741  1
  S  S13  1  0.16419056  0.65989943  0.87506071  1
  S  S14  1  0.34010057  0.16419056  0.87506071  1
  S  S15  1  0.66606501  0.15824142  0.12448277  1
loop_
_geom_bond_atom_site_label_1
_geom_bond_atom_site_label_2
_geom_bond_distance
_geom_bond_site_symmetry_2
Ga0 S9 2.296069 1_555
Ga0 S7 2.296069 1_455
Ga0 S8 2.299890 1_555
Ga0 S6 2.299890 1_455
Ga1 S9 2.288922 1_556
Ga1 S7 2.288922 1_456
Ga1 S13 2.289047 1_555
Ga1 S3 2.289047 1_455
Ga2 S13 2.293337 1_555
Ga2 S3 2.293337 1_455
Ga2 S10 2.300594 1_555
Ga2 S4 2.300594 1_455
Ga3 S1 2.286445 1_555
Ga3 S2 2.286445 1_545
Ga3 S0 2.287626 1_555
Ga3 S12 2.287626 1_545
Ga4 S15 2.288922 1_556
Ga4 S11 2.288922 1_546
Ga4 S14 2.289047 1_555
Ga4 S5 2.289047 1_545
Ga5 S14 2.293337 1_555
Ga5 S5 2.293337 1_545
Ga5 S0 2.300594 1_555
Ga5 S12 2.300594 1_545
Ga6 S8 2.286445 1_555
Ga6 S6 2.286445 1_455
Ga6 S10 2.287626 1_555
Ga6 S4 2.287626 1_455
Ga7 S15 2.296069 1_555
Ga7 S11 2.296069 1_545
Ga7 S1 2.299890 1_555
Ga7 S2 2.299890 1_545
Bi0 S14 2.834622 1_555
Bi0 S3 2.834622 1_455
Bi0 S13 2.834622 1_545
Bi0 S5 2.834622 1_445
Bi0 Sb0 3.102521 1_556
S0 Sb2 2.783020 1_555
S1 Sb1 2.776619 1_555
S2 Sb1 2.776619 1_555
S4 Sb2 2.783020 1_555
S6 Sb1 2.776619 1_555
S7 Sb0 2.774512 1_665
S8 Sb1 2.776619 1_555
S9 Sb0 2.774512 1_555
S10 Sb2 2.783020 1_555
S11 Sb0 2.774512 1_565
S12 Sb2 2.783020 1_555
S15 Sb0 2.774512 1_655
