# generated using pymatgen
data_Hf4TiSn3P
_symmetry_space_group_name_H-M   'P 1'
_cell_length_a   8.43682574
_cell_length_b   8.43682553
_cell_length_c   5.77609370
_cell_angle_alpha   90.00000000
_cell_angle_beta   90.00000000
_cell_angle_gamma   119.99999313
_symmetry_Int_Tables_number   1
_chemical_formula_structural   Hf4TiSn3P
_chemical_formula_sum   'Hf8 Ti2 Sn6 P2'
_cell_volume   356.05987801
_cell_formula_units_Z   2
loop_
 _symmetry_equiv_pos_site_id
 _symmetry_equiv_pos_as_xyz
  1  'x, y, z'
loop_
 _atom_site_type_symbol
 _atom_site_label
 _atom_site_symmetry_multiplicity
 _atom_site_fract_x
 _atom_site_fract_y
 _atom_site_fract_z
 _atom_site_occupancy
  Hf  Hf0  1  0.33333300  0.66666700  0.50000000  1
  Hf  Hf1  1  0.66666700  0.33333300  0.50000000  1
  Hf  Hf2  1  0.74741370  0.74741370  0.74792177  1
  Hf  Hf3  1  0.25258630  0.00000000  0.74792177  1
  Hf  Hf4  1  0.00000000  0.25258630  0.74792177  1
  Hf  Hf5  1  0.25258630  0.25258630  0.25207823  1
  Hf  Hf6  1  0.74741370  1.00000000  0.25207823  1
  Hf  Hf7  1  1.00000000  0.74741370  0.25207823  1
  Ti  Ti0  1  0.66666700  0.33333300  0.00000000  1
  Ti  Ti1  1  0.33333300  0.66666700  0.00000000  1
  Sn  Sn0  1  0.40069868  0.40069868  0.75860719  1
  Sn  Sn1  1  0.59930132  0.00000000  0.75860719  1
  Sn  Sn2  1  0.00000000  0.59930132  0.75860719  1
  Sn  Sn3  1  0.59930132  0.59930132  0.24139281  1
  Sn  Sn4  1  0.40069868  1.00000000  0.24139281  1
  Sn  Sn5  1  1.00000000  0.40069868  0.24139281  1
  P  P0  1  0.00000000  0.00000000  0.00000000  1
  P  P1  1  0.00000000  0.00000000  0.50000000  1
loop_
_geom_bond_atom_site_label_1
_geom_bond_atom_site_label_2
_geom_bond_distance
_geom_bond_site_symmetry_2
Hf0 Ti1 2.888047 1_555
Hf0 Ti1 2.888047 1_556
Hf0 Sn4 2.977381 1_555
Hf0 Sn2 2.977381 1_555
Hf0 Sn1 2.977383 1_565
Hf0 Sn5 2.977383 1_455
Hf0 Sn0 2.977388 1_555
Hf0 Sn3 2.977388 1_555
Hf1 Ti0 2.888047 1_556
Hf1 Ti0 2.888047 1_555
Hf1 Sn1 2.977381 1_555
Hf1 Sn5 2.977381 1_555
Hf1 Sn4 2.977383 1_545
Hf1 Sn2 2.977383 1_655
Hf1 Sn3 2.977388 1_555
Hf1 Sn0 2.977388 1_555
Hf2 P1 2.567480 1_665
Hf2 P0 2.580948 1_666
Hf2 Sn0 2.925826 1_555
Hf2 Sn1 2.961335 1_565
Hf2 Sn2 2.961335 1_655
Hf2 Sn3 3.112219 1_556
Hf2 Sn3 3.181440 1_555
Hf3 P1 2.567480 1_555
Hf3 P0 2.580948 1_556
Hf3 Sn1 2.925825 1_555
Hf3 Sn0 2.961335 1_555
Hf3 Sn2 2.961336 1_545
Hf3 Sn4 3.112219 1_546
Hf3 Sn4 3.181440 1_545
Hf4 P1 2.567480 1_555
Hf4 P0 2.580948 1_556
Hf4 Sn2 2.925825 1_555
Hf4 Sn0 2.961335 1_555
Hf4 Sn1 2.961336 1_455
Hf4 Sn5 3.112219 1_456
Hf4 Sn5 3.181440 1_455
Hf5 P1 2.567480 1_555
Hf5 P0 2.580948 1_555
Hf5 Sn3 2.925826 1_555
Hf5 Sn4 2.961335 1_545
Hf5 Sn5 2.961335 1_455
Hf5 Sn0 3.112219 1_554
Hf5 Sn0 3.181440 1_555
Hf6 P1 2.567480 1_665
Hf6 P0 2.580948 1_665
Hf6 Sn4 2.925825 1_555
Hf6 Sn3 2.961335 1_555
Hf6 Sn5 2.961336 1_565
Hf6 Sn1 3.112219 1_564
Hf6 Sn1 3.181440 1_565
Hf7 P1 2.567480 1_665
Hf7 P0 2.580948 1_665
Hf7 Sn5 2.925825 1_555
Hf7 Sn3 2.961335 1_555
Hf7 Sn4 2.961336 1_655
Hf7 Sn2 3.112219 1_654
Hf7 Sn2 3.181440 1_655
Sn0 Ti1 2.928767 1_556
Sn0 Ti0 2.928767 1_556
Sn1 Ti0 2.928759 1_556
Sn1 Ti1 2.928762 1_546
Sn2 Ti1 2.928760 1_556
Sn2 Ti0 2.928762 1_456
Sn3 Ti0 2.928767 1_555
Sn3 Ti1 2.928767 1_555
Sn4 Ti1 2.928759 1_555
Sn4 Ti0 2.928762 1_565
Sn5 Ti0 2.928760 1_555
Sn5 Ti1 2.928762 1_655
