# generated using pymatgen
data_Hf4ZrRe24
_symmetry_space_group_name_H-M   'P 1'
_cell_length_a   8.43080422
_cell_length_b   8.43080416
_cell_length_c   8.43080376
_cell_angle_alpha   109.47121729
_cell_angle_beta   109.47121716
_cell_angle_gamma   109.47122758
_symmetry_Int_Tables_number   1
_chemical_formula_structural   Hf4ZrRe24
_chemical_formula_sum   'Hf4 Zr1 Re24'
_cell_volume   461.30174184
_cell_formula_units_Z   1
loop_
 _symmetry_equiv_pos_site_id
 _symmetry_equiv_pos_as_xyz
  1  'x, y, z'
loop_
 _atom_site_type_symbol
 _atom_site_label
 _atom_site_symmetry_multiplicity
 _atom_site_fract_x
 _atom_site_fract_y
 _atom_site_fract_z
 _atom_site_occupancy
  Hf  Hf0  1  0.62782329  1.00000000  0.00000000  1
  Hf  Hf1  1  1.00000000  0.62782329  0.00000000  1
  Hf  Hf2  1  0.00000000  0.00000000  0.62782329  1
  Hf  Hf3  1  0.37217671  0.37217671  0.37217671  1
  Zr  Zr0  1  0.00000000  0.00000000  0.00000000  1
  Re  Re0  1  0.39608673  0.67706643  0.00000000  1
  Re  Re1  1  0.71902130  0.32293357  0.32293357  1
  Re  Re2  1  0.39608673  0.00000000  0.67706643  1
  Re  Re3  1  0.67706643  0.39608673  0.00000000  1
  Re  Re4  1  0.00000000  0.39608673  0.67706643  1
  Re  Re5  1  0.32293357  0.71902130  0.32293357  1
  Re  Re6  1  0.32293357  0.32293357  0.71902130  1
  Re  Re7  1  1.00000000  0.67706643  0.39608673  1
  Re  Re8  1  0.67706643  1.00000000  0.39608673  1
  Re  Re9  1  0.60391327  0.60391327  0.28097870  1
  Re  Re10  1  0.28097870  0.60391327  0.60391327  1
  Re  Re11  1  0.60391327  0.28097870  0.60391327  1
  Re  Re12  1  0.37627709  0.19405880  1.00000000  1
  Re  Re13  1  0.18221830  0.80594120  0.80594120  1
  Re  Re14  1  0.37627709  0.00000000  0.19405880  1
  Re  Re15  1  0.19405880  0.37627709  1.00000000  1
  Re  Re16  1  0.00000000  0.37627709  0.19405880  1
  Re  Re17  1  0.80594120  0.18221830  0.80594120  1
  Re  Re18  1  0.80594120  0.80594120  0.18221830  1
  Re  Re19  1  0.00000000  0.19405880  0.37627709  1
  Re  Re20  1  0.19405880  0.00000000  0.37627709  1
  Re  Re21  1  0.62372291  0.62372291  0.81778170  1
  Re  Re22  1  0.81778170  0.62372291  0.62372291  1
  Re  Re23  1  0.62372291  0.81778170  0.62372291  1
loop_
_geom_bond_atom_site_label_1
_geom_bond_atom_site_label_2
_geom_bond_distance
_geom_bond_site_symmetry_2
Hf0 Re1 2.771893 1_565
Hf0 Re0 2.771896 1_555
Hf0 Re2 2.771896 1_564
Hf0 Re17 3.011206 1_564
Hf0 Re16 3.011206 1_665
Hf0 Re23 3.011206 1_554
Hf0 Re19 3.011206 1_665
Hf0 Re18 3.011206 1_555
Hf0 Re21 3.011206 1_554
Hf0 Re14 3.080158 1_565
Hf0 Re13 3.080158 1_554
Hf0 Re12 3.080158 1_564
Hf0 Zr0 3.137749 1_665
Hf0 Re8 3.224786 1_555
Hf0 Re3 3.224786 1_565
Hf0 Re10 3.224788 1_554
Hf1 Re5 2.771893 1_655
Hf1 Re3 2.771896 1_555
Hf1 Re4 2.771896 1_654
Hf1 Re13 3.011206 1_654
Hf1 Re14 3.011206 1_665
Hf1 Re22 3.011206 1_554
Hf1 Re20 3.011206 1_665
Hf1 Re18 3.011206 1_555
Hf1 Re21 3.011206 1_554
Hf1 Re16 3.080158 1_655
Hf1 Re17 3.080158 1_554
Hf1 Re15 3.080158 1_654
Hf1 Zr0 3.137749 1_665
Hf1 Re7 3.224786 1_555
Hf1 Re0 3.224786 1_655
Hf1 Re11 3.224788 1_554
Hf2 Re6 2.771893 1_555
Hf2 Re7 2.771896 1_445
Hf2 Re8 2.771896 1_445
Hf2 Re22 3.011206 1_445
Hf2 Re23 3.011206 1_445
Hf2 Re15 3.011206 1_555
Hf2 Re12 3.011206 1_555
Hf2 Re13 3.011206 1_545
Hf2 Re17 3.011206 1_455
Hf2 Re19 3.080158 1_555
Hf2 Re20 3.080158 1_555
Hf2 Re18 3.080158 1_445
Hf2 Zr0 3.137749 1_556
Hf2 Re4 3.224786 1_555
Hf2 Re2 3.224786 1_555
Hf2 Re9 3.224788 1_445
Hf3 Re9 2.771902 1_555
Hf3 Re10 2.771903 1_555
Hf3 Re11 2.771903 1_555
Hf3 Re20 3.011206 1_555
Hf3 Re19 3.011206 1_555
Hf3 Re12 3.011206 1_554
Hf3 Re15 3.011206 1_554
Hf3 Re14 3.011206 1_555
Hf3 Re16 3.011206 1_555
Hf3 Re23 3.080158 1_555
Hf3 Re22 3.080158 1_555
Hf3 Re21 3.080158 1_555
Hf3 Zr0 3.137749 1_555
Hf3 Re6 3.224794 1_555
Hf3 Re5 3.224794 1_555
Hf3 Re1 3.224794 1_555
Re0 Re15 2.540144 1_554
Re0 Re13 2.762761 1_554
Re0 Re14 2.762761 1_565
Re0 Re9 2.826531 1_555
Re0 Re6 2.826534 1_554
Re0 Re21 2.885447 1_554
Re0 Re18 2.885447 1_555
Re0 Re5 2.922468 1_555
Re0 Re10 2.922468 1_554
Re0 Re4 2.922469 1_554
Re0 Re8 2.922469 1_555
Re1 Re22 2.540147 1_555
Re1 Re14 2.762765 1_555
Re1 Re12 2.762766 1_554
Re1 Re7 2.826533 1_555
Re1 Re4 2.826534 1_655
Re1 Re16 2.885439 1_655
Re1 Re19 2.885440 1_655
Re1 Re3 2.922468 1_555
Re1 Re8 2.922468 1_545
Re1 Re11 2.922476 1_555
Re1 Re9 2.922476 1_555
Re2 Re20 2.540144 1_555
Re2 Re5 2.826534 1_545
Re2 Re23 2.885447 1_545
Re2 Re6 2.922468 1_555
Re2 Re7 2.922469 1_445
Re2 Re3 2.922469 1_556
Re3 Re9 2.826531 1_555
Re3 Re6 2.826534 1_554
Re3 Re7 2.922469 1_555
Re4 Re6 2.922468 1_555
Re4 Re8 2.922469 1_445
Re5 Re8 2.826533 1_555
Re5 Re7 2.922468 1_455
Re5 Re9 2.922476 1_555
Re7 Re9 2.922468 1_555
Re8 Re9 2.922468 1_555
Re10 Re13 2.540138 1_555
Re10 Re23 2.762767 1_555
Re10 Re21 2.762768 1_555
Re10 Re4 2.826531 1_555
Re10 Re7 2.826531 1_455
Re10 Re19 2.885445 1_555
Re10 Re16 2.885445 1_555
Re10 Re2 2.922468 1_565
Re10 Re5 2.922476 1_555
Re10 Re6 2.922476 1_555
Re11 Re17 2.540138 1_555
Re11 Re22 2.762767 1_555
Re11 Re21 2.762768 1_555
Re11 Re2 2.826531 1_555
Re11 Re8 2.826531 1_545
Re11 Re20 2.885445 1_555
Re11 Re14 2.885445 1_555
Re11 Re3 2.922468 1_556
Re11 Re4 2.922468 1_655
Re11 Re6 2.922476 1_555
Re12 Re15 2.508681 1_555
Re12 Re3 2.540144 1_556
Re12 Re14 2.671694 1_556
Re12 Re13 2.671694 1_545
Re12 Re2 2.762761 1_555
Re12 Re6 2.885439 1_555
Re12 Re9 2.885445 1_556
Re12 Zr0 3.046349 1_556
Re13 Re22 2.508680 1_455
Re13 Re14 2.671694 1_566
Re13 Re2 2.762760 1_565
Re13 Re4 2.885447 1_555
Re13 Re7 2.885447 1_455
Re13 Zr0 3.046349 1_566
Re14 Re20 2.508680 1_555
Re14 Re8 2.540144 1_545
Re14 Re5 2.885439 1_545
Re14 Zr0 3.046349 1_555
Re15 Re16 2.671694 1_556
Re15 Re17 2.671694 1_455
Re15 Re4 2.762761 1_555
Re15 Re5 2.762766 1_556
Re15 Re6 2.885439 1_555
Re15 Re9 2.885445 1_556
Re15 Zr0 3.046349 1_556
Re16 Re19 2.508680 1_555
Re16 Re7 2.540144 1_455
Re16 Re17 2.671694 1_454
Re16 Re3 2.762761 1_455
Re16 Re5 2.762765 1_555
Re16 Zr0 3.046349 1_555
Re17 Re23 2.508680 1_545
Re17 Re4 2.762760 1_655
Re17 Re3 2.762761 1_556
Re17 Re2 2.885447 1_555
Re17 Re8 2.885447 1_545
Re17 Zr0 3.046349 1_656
Re18 Re21 2.508680 1_554
Re18 Re9 2.540137 1_555
Re18 Re19 2.671694 1_665
Re18 Re20 2.671694 1_665
Re18 Re8 2.762761 1_555
Re18 Re7 2.762761 1_555
Re18 Re3 2.885447 1_555
Re18 Zr0 3.046349 1_665
Re19 Re4 2.540144 1_555
Re19 Re20 2.671694 1_555
Re19 Re8 2.762761 1_445
Re19 Re6 2.762766 1_555
Re19 Zr0 3.046349 1_555
Re20 Re7 2.762761 1_445
Re20 Re6 2.762766 1_555
Re20 Re5 2.885440 1_545
Re20 Zr0 3.046349 1_555
Re21 Re6 2.540147 1_555
Re21 Re23 2.671694 1_555
Re21 Re22 2.671694 1_555
Re21 Re3 2.885447 1_556
Re21 Zr0 3.046349 1_666
Re22 Re23 2.671694 1_555
Re22 Re9 2.762768 1_555
Re22 Re7 2.885447 1_555
Re22 Re4 2.885447 1_655
Re22 Zr0 3.046349 1_666
Re23 Re5 2.540147 1_555
Re23 Re9 2.762768 1_555
Re23 Re8 2.885447 1_555
Re23 Zr0 3.046349 1_666
