# generated using pymatgen
data_K2PdPt3
_symmetry_space_group_name_H-M   'P 1'
_cell_length_a   5.45538759
_cell_length_b   5.53755012
_cell_length_c   5.53754979
_cell_angle_alpha   120.95081968
_cell_angle_beta   119.47966522
_cell_angle_gamma   90.05146034
_symmetry_Int_Tables_number   1
_chemical_formula_structural   K2PdPt3
_chemical_formula_sum   'K2 Pd1 Pt3'
_cell_volume   117.44193047
_cell_formula_units_Z   1
loop_
 _symmetry_equiv_pos_site_id
 _symmetry_equiv_pos_as_xyz
  1  'x, y, z'
loop_
 _atom_site_type_symbol
 _atom_site_label
 _atom_site_symmetry_multiplicity
 _atom_site_fract_x
 _atom_site_fract_y
 _atom_site_fract_z
 _atom_site_occupancy
  K  K0  1  0.37430624  0.12561766  0.24868858  1
  K  K1  1  0.62569376  0.87438234  0.75131042  1
  Pd  Pd0  1  0.00000000  0.49999900  0.49999900  1
  Pt  Pt0  1  0.00000000  0.49999900  0.00000000  1
  Pt  Pt1  1  0.50000100  0.50000100  0.00000000  1
  Pt  Pt2  1  0.00000000  0.00000000  0.49999900  1
loop_
_geom_bond_atom_site_label_1
_geom_bond_atom_site_label_2
_geom_bond_distance
_geom_bond_site_symmetry_2
K0 Pd0 3.198484 1_655
K0 Pd0 3.200193 1_555
K0 Pd0 3.200203 1_544
K0 Pt2 3.221854 1_555
K0 Pt0 3.221864 1_545
K0 Pt1 3.224122 1_556
K0 Pt1 3.224122 1_545
K0 Pt2 3.224367 1_655
K0 Pt0 3.224367 1_656
K0 Pt1 3.244725 1_555
K0 Pt0 3.246644 1_555
K0 Pt2 3.246653 1_554
K0 K1 3.343313 1_444
K0 K1 3.343932 1_555
K0 K1 3.343936 1_544
K0 K1 3.434028 1_545
K1 Pd0 3.198487 1_555
K1 Pd0 3.200196 1_666
K1 Pd0 3.200200 1_655
K1 Pt0 3.221852 1_666
K1 Pt2 3.221859 1_665
K1 Pt1 3.224122 1_555
K1 Pt1 3.224127 1_566
K1 Pt0 3.224365 1_555
K1 Pt2 3.224367 1_565
K1 Pt1 3.244716 1_556
K1 Pt2 3.246648 1_666
K1 Pt0 3.246656 1_656
Pd0 Pt0 2.768769 1_555
Pd0 Pt2 2.768770 1_555
Pd0 Pt0 2.768780 1_556
Pd0 Pt2 2.768781 1_565
Pd0 Pt1 2.770048 1_556
Pd0 Pt1 2.770048 1_455
Pt0 Pt1 2.727688 1_455
Pt0 Pt1 2.727699 1_555
Pt0 Pt2 2.728888 1_554
Pt0 Pt2 2.728888 1_565
Pt1 Pt2 2.727689 1_665
Pt1 Pt2 2.727699 1_554
