# generated using pymatgen
data_Ba2Zr6BI17
_symmetry_space_group_name_H-M   'P 1'
_cell_length_a   10.88917731
_cell_length_b   10.88917508
_cell_length_c   10.88947628
_cell_angle_alpha   105.26647230
_cell_angle_beta   105.26381639
_cell_angle_gamma   118.25604800
_symmetry_Int_Tables_number   1
_chemical_formula_structural   Ba2Zr6BI17
_chemical_formula_sum   'Ba2 Zr6 B1 I17'
_cell_volume   976.21628262
_cell_formula_units_Z   1
loop_
 _symmetry_equiv_pos_site_id
 _symmetry_equiv_pos_as_xyz
  1  'x, y, z'
loop_
 _atom_site_type_symbol
 _atom_site_label
 _atom_site_symmetry_multiplicity
 _atom_site_fract_x
 _atom_site_fract_y
 _atom_site_fract_z
 _atom_site_occupancy
  Ba  Ba0  1  0.25001267  0.75001167  0.50000000  1
  Ba  Ba1  1  0.74998733  0.24998833  0.50000000  1
  Zr  Zr0  1  0.21416937  0.21416937  0.00000000  1
  Zr  Zr1  1  0.78583063  0.78583063  1.00000000  1
  Zr  Zr2  1  0.17040576  0.05770069  0.22810745  1
  Zr  Zr3  1  0.94231490  0.17044505  0.11275995  1
  Zr  Zr4  1  0.82959424  0.94229931  0.77189255  1
  Zr  Zr5  1  0.05768510  0.82955495  0.88724005  1
  B  B0  1  0.00000000  0.00000000  0.00000000  1
  I  I0  1  0.86487969  0.72484129  0.58972097  1
  I  I1  1  0.27519557  0.86486851  0.14006509  1
  I  I2  1  0.13294104  0.59724229  0.73018333  1
  I  I3  1  0.54079238  0.67086148  0.72241300  1
  I  I4  1  0.86705896  0.40275771  0.26981667  1
  I  I5  1  0.45920762  0.32913852  0.27758700  1
  I  I6  1  0.81845697  0.54078609  0.87000148  1
  I  I7  1  0.40276379  0.13285128  0.53561607  1
  I  I8  1  0.59723621  0.86714872  0.46438393  1
  I  I9  1  0.13512031  0.27515871  0.41027903  1
  I  I10  1  0.32921539  0.05154552  0.87000148  1
  I  I11  1  0.94844849  0.81837838  0.27758700  1
  I  I12  1  0.72480443  0.13513149  0.85993491  1
  I  I13  1  0.50000000  0.50000000  0.00000000  1
  I  I14  1  0.18154303  0.45921391  0.12999852  1
  I  I15  1  0.05155151  0.18162162  0.72241300  1
  I  I16  1  0.67078461  0.94845448  0.12999852  1
loop_
_geom_bond_atom_site_label_1
_geom_bond_atom_site_label_2
_geom_bond_distance
_geom_bond_site_symmetry_2
Ba0 I8 3.541119 1_555
Ba0 I7 3.541121 1_565
Ba0 I2 3.542010 1_555
Ba0 I4 3.542013 1_455
Ba0 I3 4.034833 1_555
Ba0 I11 4.034841 1_455
Ba0 I14 4.034956 1_555
Ba0 I10 4.034971 1_565
Ba1 I7 3.541119 1_555
Ba1 I8 3.541121 1_545
Ba1 I4 3.542010 1_555
Ba1 I2 3.542013 1_655
Ba1 I5 4.034833 1_555
Ba1 I15 4.034841 1_655
Ba1 I6 4.034956 1_555
Ba1 I16 4.034971 1_545
B0 Zr2 2.378109 1_555
B0 Zr4 2.378109 1_444
B0 Zr3 2.378414 1_455
B0 Zr5 2.378414 1_544
B0 Zr0 2.393330 1_555
B0 Zr1 2.393330 1_444
I0 Zr5 2.900173 1_655
I0 Zr4 2.911887 1_555
I1 Zr2 2.900824 1_565
I1 Zr5 2.912763 1_554
I2 Zr5 3.227730 1_555
I3 Zr4 2.895639 1_555
I3 Zr1 2.902014 1_555
I4 Zr3 3.227730 1_555
I5 Zr2 2.895639 1_555
I5 Zr0 2.902014 1_555
I6 Zr5 2.895651 1_655
I6 Zr1 2.902304 1_555
I7 Zr2 3.228023 1_555
I8 Zr4 3.228023 1_555
I9 Zr3 2.900173 1_455
I9 Zr2 2.911887 1_555
I10 Zr5 2.895655 1_545
I10 Zr0 2.902296 1_556
I11 Zr2 2.895633 1_665
I11 Zr1 2.902019 1_554
I12 Zr4 2.900824 1_545
I12 Zr3 2.912763 1_556
I13 Zr1 3.194140 1_554
I13 Zr0 3.194140 1_555
I14 Zr3 2.895651 1_455
I14 Zr0 2.902304 1_555
I15 Zr4 2.895633 1_445
I15 Zr0 2.902019 1_556
I16 Zr3 2.895655 1_565
I16 Zr1 2.902296 1_554
