# generated using pymatgen
data_Sr2ScV3O11
_symmetry_space_group_name_H-M   'P 1'
_cell_length_a   6.89879545
_cell_length_b   6.94022052
_cell_length_c   9.95012434
_cell_angle_alpha   100.82142401
_cell_angle_beta   94.80757268
_cell_angle_gamma   94.84378527
_symmetry_Int_Tables_number   1
_chemical_formula_structural   Sr2ScV3O11
_chemical_formula_sum   'Sr4 Sc2 V6 O22'
_cell_volume   463.83686631
_cell_formula_units_Z   2
loop_
 _symmetry_equiv_pos_site_id
 _symmetry_equiv_pos_as_xyz
  1  'x, y, z'
loop_
 _atom_site_type_symbol
 _atom_site_label
 _atom_site_symmetry_multiplicity
 _atom_site_fract_x
 _atom_site_fract_y
 _atom_site_fract_z
 _atom_site_occupancy
  Sr  Sr0  1  0.64833720  0.25222793  0.97122354  1
  Sr  Sr1  1  0.35166280  0.74777207  0.02877646  1
  Sr  Sr2  1  0.32228429  0.39988744  0.63266647  1
  Sr  Sr3  1  0.67771571  0.60011256  0.36733353  1
  Sc  Sc0  1  0.87694958  0.03513443  0.64170928  1
  Sc  Sc1  1  0.12305042  0.96486557  0.35829072  1
  V  V0  1  0.62443122  0.11732395  0.35474497  1
  V  V1  1  0.37556878  0.88267605  0.64525503  1
  V  V2  1  0.15949260  0.23019795  0.96380605  1
  V  V3  1  0.84050740  0.76980205  0.03619395  1
  V  V4  1  0.14149908  0.44357608  0.26537363  1
  V  V5  1  0.85850092  0.55642392  0.73462637  1
  O  O0  1  0.95762834  0.34987478  0.65861154  1
  O  O1  1  0.04237166  0.65012522  0.34138846  1
  O  O2  1  0.01742184  0.34917477  0.09542515  1
  O  O3  1  0.98257816  0.65082523  0.90457485  1
  O  O4  1  0.41728030  0.69669011  0.52044990  1
  O  O5  1  0.58271970  0.30330989  0.47955010  1
  O  O6  1  0.69658891  0.23209868  0.23125361  1
  O  O7  1  0.30341109  0.76790132  0.76874639  1
  O  O8  1  0.98113390  0.09554567  0.84573078  1
  O  O9  1  0.01886610  0.90445433  0.15426922  1
  O  O10  1  0.67831075  0.90623202  0.97675873  1
  O  O11  1  0.32168925  0.09376798  0.02324127  1
  O  O12  1  0.58738707  0.04631815  0.69765067  1
  O  O13  1  0.41261293  0.95368185  0.30234933  1
  O  O14  1  0.18193993  0.01379368  0.57847226  1
  O  O15  1  0.81806007  0.98620632  0.42152774  1
  O  O16  1  0.30070621  0.38994160  0.89457103  1
  O  O17  1  0.69929379  0.61005840  0.10542897  1
  O  O18  1  0.64019568  0.48433632  0.77711254  1
  O  O19  1  0.35980432  0.51566368  0.22288746  1
  O  O20  1  0.84744402  0.72743555  0.62944106  1
  O  O21  1  0.15255598  0.27256445  0.37055894  1
loop_
_geom_bond_atom_site_label_1
_geom_bond_atom_site_label_2
_geom_bond_distance
_geom_bond_site_symmetry_2
O0 V5 1.714578 1_555
O0 Sc0 2.179582 1_555
O0 Sr2 2.551636 1_655
O1 V4 1.714578 1_555
O1 Sc1 2.179582 1_555
O1 Sr3 2.551636 1_455
O2 V4 1.807793 1_555
O2 V2 1.817510 1_554
O2 Sr0 2.708191 1_454
O3 V5 1.807793 1_555
O3 V3 1.817510 1_556
O3 Sr1 2.708191 1_656
O4 V1 1.676839 1_555
O4 Sr3 2.505443 1_555
O4 Sr2 2.584110 1_555
O5 V0 1.676839 1_555
O5 Sr2 2.505443 1_555
O5 Sr3 2.584110 1_555
O6 V0 1.671899 1_555
O6 Sr0 2.612245 1_554
O6 Sr3 2.675977 1_555
O7 V1 1.671899 1_555
O7 Sr1 2.612245 1_556
O7 Sr2 2.675977 1_555
O8 V2 1.708474 1_655
O8 Sc0 2.048996 1_555
O8 Sr0 2.899150 1_555
O9 V3 1.708474 1_455
O9 Sc1 2.048996 1_555
O9 Sr1 2.899150 1_555
O10 V3 1.666318 1_556
O10 Sr0 2.437946 1_565
O10 Sr1 2.558557 1_556
O11 V2 1.666318 1_554
O11 Sr1 2.437946 1_545
O11 Sr0 2.558557 1_554
O12 V1 1.751203 1_545
O12 Sc0 2.121964 1_555
O12 Sr0 2.806195 1_555
O13 V0 1.751203 1_565
O13 Sc1 2.121964 1_555
O13 Sr1 2.806195 1_555
O14 V1 1.826899 1_545
O14 Sc1 2.151343 1_545
O14 Sc0 2.254882 1_455
O14 Sr2 2.709264 1_555
O15 V0 1.826899 1_565
O15 Sc0 2.151343 1_565
O15 Sc1 2.254882 1_655
O15 Sr3 2.709264 1_555
O16 V2 1.694005 1_555
O16 Sr1 2.569589 1_556
O16 Sr2 2.636078 1_555
O16 Sr0 2.756982 1_555
O17 V3 1.694005 1_555
O17 Sr0 2.569589 1_554
O17 Sr3 2.636078 1_555
O17 Sr1 2.756982 1_555
O18 V5 1.660142 1_555
O18 Sr2 2.481453 1_555
O18 Sr0 2.737499 1_555
O19 V4 1.660142 1_555
O19 Sr3 2.481453 1_555
O19 Sr1 2.737499 1_555
O20 V5 1.725740 1_555
O20 Sc0 2.107422 1_565
O20 Sr3 2.720590 1_555
O21 V4 1.725740 1_555
O21 Sc1 2.107422 1_545
O21 Sr2 2.720590 1_555
