# generated using pymatgen
data_Sr3Fe4(CoP3)2
_symmetry_space_group_name_H-M   'P 1'
_cell_length_a   8.30541873
_cell_length_b   8.30866527
_cell_length_c   8.30866587
_cell_angle_alpha   153.94240299
_cell_angle_beta   90.89322836
_cell_angle_gamma   94.93914794
_symmetry_Int_Tables_number   1
_chemical_formula_structural   Sr3Fe4(CoP3)2
_chemical_formula_sum   'Sr3 Fe4 Co2 P6'
_cell_volume   245.20235538
_cell_formula_units_Z   1
loop_
 _symmetry_equiv_pos_site_id
 _symmetry_equiv_pos_as_xyz
  1  'x, y, z'
loop_
 _atom_site_type_symbol
 _atom_site_label
 _atom_site_symmetry_multiplicity
 _atom_site_fract_x
 _atom_site_fract_y
 _atom_site_fract_z
 _atom_site_occupancy
  Sr  Sr0  1  0.33339785  0.33340525  0.99999260  1
  Sr  Sr1  1  0.66667471  0.66665956  0.00001615  1
  Sr  Sr2  1  0.99992502  0.99992127  0.00000376  1
  Fe  Fe0  1  0.58241871  0.83221172  0.75020598  1
  Fe  Fe1  1  0.25134615  0.50115641  0.75018974  1
  Fe  Fe2  1  0.75089048  0.50108186  0.24980862  1
  Fe  Fe3  1  0.08203389  0.83221361  0.24981828  1
  Co  Co0  1  0.41616677  0.16665759  0.24951018  1
  Co  Co1  1  0.91713785  0.16668189  0.75045396  1
  P  P0  1  0.32028643  0.66663502  0.65365241  1
  P  P1  1  0.68023790  0.33496398  0.34527492  1
  P  P2  1  0.98965952  0.33491224  0.65474728  1
  P  P3  1  0.34372961  0.99846390  0.34526571  1
  P  P4  1  0.01301630  0.66670154  0.34631476  1
  P  P5  1  0.65307781  0.99833416  0.65474465  1
loop_
_geom_bond_atom_site_label_1
_geom_bond_atom_site_label_2
_geom_bond_distance
_geom_bond_site_symmetry_2
Fe0 P5 2.172692 1_555
Fe0 P0 2.173224 1_555
Fe0 P1 2.176551 1_555
Fe0 P1 2.176557 1_566
Fe1 P0 2.172959 1_555
Fe1 P2 2.172970 1_455
Fe1 P3 2.176605 1_545
Fe1 P3 2.176605 1_556
Fe2 P1 2.172683 1_555
Fe2 P4 2.173335 1_655
Fe2 P5 2.176531 1_544
Fe2 P5 2.176534 1_555
Fe3 P4 2.173040 1_555
Fe3 P3 2.173043 1_555
Fe3 P2 2.176579 1_454
Fe3 P2 2.176586 1_465
Co0 P0 2.181043 1_555
Co0 P0 2.181043 1_544
Co0 P3 2.194450 1_545
Co0 P1 2.194804 1_555
Co1 P4 2.181052 1_645
Co1 P4 2.181059 1_656
Co1 P2 2.194513 1_555
Co1 P5 2.194899 1_545
P0 Sr2 3.196684 1_456
P0 Sr2 3.196686 1_445
P0 Sr0 3.197999 1_565
P0 Sr0 3.198002 1_554
P1 Sr2 3.192281 1_556
P1 Sr2 3.192283 1_545
P1 Sr1 3.215183 1_545
P1 Sr1 3.215184 1_556
P2 Sr2 3.193572 1_556
P2 Sr2 3.193572 1_545
P2 Sr1 3.213907 1_545
P2 Sr1 3.213909 1_556
P3 Sr0 3.193786 1_554
P3 Sr0 3.193786 1_565
P3 Sr1 3.213644 1_555
P3 Sr1 3.213646 1_566
P4 Sr0 3.196816 1_554
P4 Sr0 3.196816 1_565
P4 Sr2 3.198257 1_445
P4 Sr2 3.198257 1_456
P5 Sr0 3.192236 1_565
P5 Sr0 3.192238 1_554
P5 Sr1 3.215238 1_566
P5 Sr1 3.215239 1_555
