# generated using pymatgen
data_ZrZnCu3Pd
_symmetry_space_group_name_H-M   'P 1'
_cell_length_a   4.88313089
_cell_length_b   4.88313103
_cell_length_c   4.88313211
_cell_angle_alpha   60.17692760
_cell_angle_beta   60.17692633
_cell_angle_gamma   60.17692611
_symmetry_Int_Tables_number   1
_chemical_formula_structural   ZrZnCu3Pd
_chemical_formula_sum   'Zr1 Zn1 Cu3 Pd1'
_cell_volume   82.66409291
_cell_formula_units_Z   1
loop_
 _symmetry_equiv_pos_site_id
 _symmetry_equiv_pos_as_xyz
  1  'x, y, z'
loop_
 _atom_site_type_symbol
 _atom_site_label
 _atom_site_symmetry_multiplicity
 _atom_site_fract_x
 _atom_site_fract_y
 _atom_site_fract_z
 _atom_site_occupancy
  Zr  Zr0  1  0.24805139  0.24805139  0.24805139  1
  Zn  Zn0  1  0.62729290  0.62729290  0.62729290  1
  Cu  Cu0  1  0.62574525  0.62574525  0.12445037  1
  Cu  Cu1  1  0.62574525  0.12445037  0.62574525  1
  Cu  Cu2  1  0.12445037  0.62574525  0.62574525  1
  Pd  Pd0  1  0.99871584  0.99871584  0.99871584  1
loop_
_geom_bond_atom_site_label_1
_geom_bond_atom_site_label_2
_geom_bond_distance
_geom_bond_site_symmetry_2
Zn0 Zr0 2.879513 1_655
Zn0 Zr0 2.879513 1_565
Zn0 Zr0 2.879513 1_556
Cu0 Zn0 2.420192 1_554
Cu0 Cu2 2.441752 1_654
Cu0 Cu1 2.441752 1_564
Cu0 Cu2 2.454432 1_555
Cu0 Cu1 2.454432 1_555
Cu0 Zn0 2.462987 1_555
Cu0 Pd0 2.843547 1_554
Cu0 Zr0 2.853539 1_655
Cu0 Zr0 2.853539 1_565
Cu0 Pd0 2.877501 1_454
Cu0 Pd0 2.877501 1_544
Cu0 Zr0 2.887267 1_555
Cu1 Zn0 2.420192 1_545
Cu1 Cu2 2.441752 1_645
Cu1 Cu2 2.454432 1_555
Cu1 Zn0 2.462986 1_555
Cu1 Pd0 2.843548 1_545
Cu1 Zr0 2.853538 1_655
Cu1 Zr0 2.853539 1_556
Cu1 Pd0 2.877501 1_445
Cu1 Pd0 2.877501 1_544
Cu1 Zr0 2.887267 1_555
Cu2 Zn0 2.420192 1_455
Cu2 Zn0 2.462986 1_555
Cu2 Pd0 2.843548 1_455
Cu2 Zr0 2.853539 1_565
Cu2 Zr0 2.853539 1_556
Cu2 Pd0 2.877501 1_445
Cu2 Pd0 2.877501 1_454
Cu2 Zr0 2.887267 1_555
Pd0 Zn0 2.863195 1_655
Pd0 Zn0 2.863195 1_565
Pd0 Zn0 2.863195 1_556
Pd0 Zr0 2.978353 1_666
Pd0 Zr0 2.999603 1_566
Pd0 Zr0 2.999603 1_656
Pd0 Zr0 2.999604 1_665
