# generated using pymatgen
data_Mn4Al19
_symmetry_space_group_name_H-M   'P 1'
_cell_length_a   12.71267600
_cell_length_b   12.71267600
_cell_length_c   12.71267600
_cell_angle_alpha   90.00000000
_cell_angle_beta   90.00000000
_cell_angle_gamma   90.00000000
_symmetry_Int_Tables_number   1
_chemical_formula_structural   Mn4Al19
_chemical_formula_sum   'Mn24 Al114'
_cell_volume   2054.52266010
_cell_formula_units_Z   6
loop_
 _symmetry_equiv_pos_site_id
 _symmetry_equiv_pos_as_xyz
  1  'x, y, z'
loop_
 _atom_site_type_symbol
 _atom_site_label
 _atom_site_symmetry_multiplicity
 _atom_site_fract_x
 _atom_site_fract_y
 _atom_site_fract_z
 _atom_site_occupancy
  Mn  Mn0  1  0.32770900  0.20278700  0.00000000  1
  Mn  Mn1  1  0.00000000  0.32770900  0.20278700  1
  Mn  Mn2  1  0.20278700  0.00000000  0.32770900  1
  Mn  Mn3  1  0.79721300  0.00000000  0.32770900  1
  Mn  Mn4  1  0.00000000  0.67229100  0.79721300  1
  Mn  Mn5  1  0.79721300  0.00000000  0.67229100  1
  Mn  Mn6  1  0.00000000  0.67229100  0.20278700  1
  Mn  Mn7  1  0.00000000  0.32770900  0.79721300  1
  Mn  Mn8  1  0.20278700  0.00000000  0.67229100  1
  Mn  Mn9  1  0.32770900  0.79721300  0.00000000  1
  Mn  Mn10  1  0.67229100  0.20278700  0.00000000  1
  Mn  Mn11  1  0.67229100  0.79721300  0.00000000  1
  Mn  Mn12  1  0.17512400  0.29699100  0.50000000  1
  Mn  Mn13  1  0.50000000  0.17512400  0.29699100  1
  Mn  Mn14  1  0.29699100  0.50000000  0.17512400  1
  Mn  Mn15  1  0.70300900  0.50000000  0.17512400  1
  Mn  Mn16  1  0.50000000  0.82487600  0.70300900  1
  Mn  Mn17  1  0.70300900  0.50000000  0.82487600  1
  Mn  Mn18  1  0.50000000  0.82487600  0.29699100  1
  Mn  Mn19  1  0.50000000  0.17512400  0.70300900  1
  Mn  Mn20  1  0.29699100  0.50000000  0.82487600  1
  Mn  Mn21  1  0.17512400  0.70300900  0.50000000  1
  Mn  Mn22  1  0.82487600  0.29699100  0.50000000  1
  Mn  Mn23  1  0.82487600  0.70300900  0.50000000  1
  Al  Al0  1  0.36252200  0.00000000  0.00000000  1
  Al  Al1  1  0.00000000  0.36252200  0.00000000  1
  Al  Al2  1  0.00000000  0.00000000  0.36252200  1
  Al  Al3  1  0.00000000  0.63747800  0.00000000  1
  Al  Al4  1  0.00000000  0.00000000  0.63747800  1
  Al  Al5  1  0.63747800  0.00000000  0.00000000  1
  Al  Al6  1  0.11854600  0.50000000  0.50000000  1
  Al  Al7  1  0.50000000  0.11854600  0.50000000  1
  Al  Al8  1  0.50000000  0.50000000  0.11854600  1
  Al  Al9  1  0.50000000  0.88145400  0.50000000  1
  Al  Al10  1  0.50000000  0.50000000  0.88145400  1
  Al  Al11  1  0.88145400  0.50000000  0.50000000  1
  Al  Al12  1  0.30118000  0.00000000  0.50000000  1
  Al  Al13  1  0.50000000  0.30118000  0.00000000  1
  Al  Al14  1  0.00000000  0.50000000  0.30118000  1
  Al  Al15  1  0.50000000  0.69882000  0.00000000  1
  Al  Al16  1  0.00000000  0.50000000  0.69882000  1
  Al  Al17  1  0.69882000  0.00000000  0.50000000  1
  Al  Al18  1  0.16876300  0.10502700  0.00000000  1
  Al  Al19  1  0.00000000  0.16876300  0.10502700  1
  Al  Al20  1  0.10502700  0.00000000  0.16876300  1
  Al  Al21  1  0.89497300  0.00000000  0.16876300  1
  Al  Al22  1  0.00000000  0.83123700  0.89497300  1
  Al  Al23  1  0.89497300  0.00000000  0.83123700  1
  Al  Al24  1  0.00000000  0.83123700  0.10502700  1
  Al  Al25  1  0.00000000  0.16876300  0.89497300  1
  Al  Al26  1  0.10502700  0.00000000  0.83123700  1
  Al  Al27  1  0.16876300  0.89497300  0.00000000  1
  Al  Al28  1  0.83123700  0.10502700  0.00000000  1
  Al  Al29  1  0.83123700  0.89497300  0.00000000  1
  Al  Al30  1  0.32907600  0.39569000  0.50000000  1
  Al  Al31  1  0.50000000  0.32907600  0.39569000  1
  Al  Al32  1  0.39569000  0.50000000  0.32907600  1
  Al  Al33  1  0.60431000  0.50000000  0.32907600  1
  Al  Al34  1  0.50000000  0.67092400  0.60431000  1
  Al  Al35  1  0.60431000  0.50000000  0.67092400  1
  Al  Al36  1  0.50000000  0.67092400  0.39569000  1
  Al  Al37  1  0.50000000  0.32907600  0.60431000  1
  Al  Al38  1  0.39569000  0.50000000  0.67092400  1
  Al  Al39  1  0.32907600  0.60431000  0.50000000  1
  Al  Al40  1  0.67092400  0.39569000  0.50000000  1
  Al  Al41  1  0.67092400  0.60431000  0.50000000  1
  Al  Al42  1  0.32163000  0.40318500  0.00000000  1
  Al  Al43  1  0.00000000  0.32163000  0.40318500  1
  Al  Al44  1  0.40318500  0.00000000  0.32163000  1
  Al  Al45  1  0.59681500  0.00000000  0.32163000  1
  Al  Al46  1  0.00000000  0.67837000  0.59681500  1
  Al  Al47  1  0.59681500  0.00000000  0.67837000  1
  Al  Al48  1  0.00000000  0.67837000  0.40318500  1
  Al  Al49  1  0.00000000  0.32163000  0.59681500  1
  Al  Al50  1  0.40318500  0.00000000  0.67837000  1
  Al  Al51  1  0.32163000  0.59681500  0.00000000  1
  Al  Al52  1  0.67837000  0.40318500  0.00000000  1
  Al  Al53  1  0.67837000  0.59681500  0.00000000  1
  Al  Al54  1  0.12620600  0.11011900  0.50000000  1
  Al  Al55  1  0.50000000  0.12620600  0.11011900  1
  Al  Al56  1  0.11011900  0.50000000  0.12620600  1
  Al  Al57  1  0.88988100  0.50000000  0.12620600  1
  Al  Al58  1  0.50000000  0.87379400  0.88988100  1
  Al  Al59  1  0.88988100  0.50000000  0.87379400  1
  Al  Al60  1  0.50000000  0.87379400  0.11011900  1
  Al  Al61  1  0.50000000  0.12620600  0.88988100  1
  Al  Al62  1  0.11011900  0.50000000  0.87379400  1
  Al  Al63  1  0.12620600  0.88988100  0.50000000  1
  Al  Al64  1  0.87379400  0.11011900  0.50000000  1
  Al  Al65  1  0.87379400  0.88988100  0.50000000  1
  Al  Al66  1  0.11883800  0.18584100  0.30039000  1
  Al  Al67  1  0.30039000  0.11883800  0.18584100  1
  Al  Al68  1  0.18584100  0.30039000  0.11883800  1
  Al  Al69  1  0.81415900  0.69961000  0.11883800  1
  Al  Al70  1  0.30039000  0.88116200  0.81415900  1
  Al  Al71  1  0.81415900  0.30039000  0.88116200  1
  Al  Al72  1  0.69961000  0.88116200  0.18584100  1
  Al  Al73  1  0.69961000  0.11883800  0.81415900  1
  Al  Al74  1  0.18584100  0.69961000  0.88116200  1
  Al  Al75  1  0.11883800  0.81415900  0.69961000  1
  Al  Al76  1  0.88116200  0.18584100  0.69961000  1
  Al  Al77  1  0.88116200  0.81415900  0.30039000  1
  Al  Al78  1  0.88116200  0.81415900  0.69961000  1
  Al  Al79  1  0.69961000  0.88116200  0.81415900  1
  Al  Al80  1  0.81415900  0.69961000  0.88116200  1
  Al  Al81  1  0.18584100  0.30039000  0.88116200  1
  Al  Al82  1  0.69961000  0.11883800  0.18584100  1
  Al  Al83  1  0.18584100  0.69961000  0.11883800  1
  Al  Al84  1  0.30039000  0.11883800  0.81415900  1
  Al  Al85  1  0.30039000  0.88116200  0.18584100  1
  Al  Al86  1  0.81415900  0.30039000  0.11883800  1
  Al  Al87  1  0.88116200  0.18584100  0.30039000  1
  Al  Al88  1  0.11883800  0.81415900  0.30039000  1
  Al  Al89  1  0.11883800  0.18584100  0.69961000  1
  Al  Al90  1  0.38814800  0.31500400  0.19427600  1
  Al  Al91  1  0.19427600  0.38814800  0.31500400  1
  Al  Al92  1  0.31500400  0.19427600  0.38814800  1
  Al  Al93  1  0.68499600  0.80572400  0.38814800  1
  Al  Al94  1  0.19427600  0.61185200  0.68499600  1
  Al  Al95  1  0.68499600  0.19427600  0.61185200  1
  Al  Al96  1  0.80572400  0.61185200  0.31500400  1
  Al  Al97  1  0.80572400  0.38814800  0.68499600  1
  Al  Al98  1  0.31500400  0.80572400  0.61185200  1
  Al  Al99  1  0.38814800  0.68499600  0.80572400  1
  Al  Al100  1  0.61185200  0.31500400  0.80572400  1
  Al  Al101  1  0.61185200  0.68499600  0.19427600  1
  Al  Al102  1  0.61185200  0.68499600  0.80572400  1
  Al  Al103  1  0.80572400  0.61185200  0.68499600  1
  Al  Al104  1  0.68499600  0.80572400  0.61185200  1
  Al  Al105  1  0.31500400  0.19427600  0.61185200  1
  Al  Al106  1  0.80572400  0.38814800  0.31500400  1
  Al  Al107  1  0.31500400  0.80572400  0.38814800  1
  Al  Al108  1  0.19427600  0.38814800  0.68499600  1
  Al  Al109  1  0.19427600  0.61185200  0.31500400  1
  Al  Al110  1  0.68499600  0.19427600  0.38814800  1
  Al  Al111  1  0.61185200  0.31500400  0.19427600  1
  Al  Al112  1  0.38814800  0.68499600  0.19427600  1
  Al  Al113  1  0.38814800  0.31500400  0.80572400  1
loop_
_geom_bond_atom_site_label_1
_geom_bond_atom_site_label_2
_geom_bond_distance
_geom_bond_site_symmetry_2
Al0 Mn0 2.615678 1_555
Al0 Mn9 2.615678 1_545
Al0 Al55 2.754704 1_555
Al0 Al61 2.754704 1_554
Al0 Al60 2.754704 1_545
Al0 Al58 2.754704 1_544
Al0 Al18 2.801789 1_555
Al0 Al27 2.801789 1_545
Al0 Al67 2.913387 1_555
Al0 Al85 2.913387 1_545
Al0 Al84 2.913387 1_554
Al0 Al70 2.913387 1_544
Al1 Mn1 2.615678 1_555
Al1 Mn7 2.615678 1_554
Al1 Al56 2.754704 1_555
Al1 Al57 2.754704 1_455
Al1 Al62 2.754704 1_554
Al1 Al59 2.754704 1_454
Al1 Al19 2.801789 1_555
Al1 Al25 2.801789 1_554
Al1 Al68 2.913387 1_555
Al1 Al81 2.913387 1_554
Al1 Al86 2.913387 1_455
Al1 Al71 2.913387 1_454
Al2 Mn2 2.615678 1_555
Al2 Mn3 2.615678 1_455
Al2 Al54 2.754704 1_555
Al2 Al63 2.754704 1_545
Al2 Al64 2.754704 1_455
Al2 Al65 2.754704 1_445
Al2 Al20 2.801789 1_555
Al2 Al21 2.801789 1_455
Al2 Al66 2.913387 1_555
Al2 Al87 2.913387 1_455
Al2 Al77 2.913387 1_445
Al2 Al88 2.913387 1_545
Al3 Mn6 2.615678 1_555
Al3 Mn4 2.615678 1_554
Al3 Al56 2.754704 1_555
Al3 Al57 2.754704 1_455
Al3 Al62 2.754704 1_554
Al3 Al59 2.754704 1_454
Al3 Al83 2.913387 1_555
Al3 Al74 2.913387 1_554
Al3 Al69 2.913387 1_455
Al3 Al80 2.913387 1_454
Al4 Mn8 2.615678 1_555
Al4 Mn5 2.615678 1_455
Al4 Al54 2.754704 1_555
Al4 Al63 2.754704 1_545
Al4 Al64 2.754704 1_455
Al4 Al65 2.754704 1_445
Al4 Al89 2.913387 1_555
Al4 Al76 2.913387 1_455
Al4 Al75 2.913387 1_545
Al4 Al78 2.913387 1_445
Al5 Mn10 2.615678 1_555
Al5 Mn11 2.615678 1_545
Al5 Al55 2.754704 1_555
Al5 Al61 2.754704 1_554
Al5 Al60 2.754704 1_545
Al5 Al58 2.754704 1_544
Al5 Al82 2.913387 1_555
Al5 Al72 2.913387 1_545
Al5 Al73 2.913387 1_554
Al5 Al79 2.913387 1_544
Al6 Mn21 2.679141 1_555
Al6 Mn12 2.679141 1_555
Al6 Al94 2.911992 1_555
Al6 Al91 2.911992 1_555
Al7 Mn13 2.679141 1_555
Al7 Mn19 2.679141 1_555
Al7 Al95 2.911992 1_555
Al7 Al92 2.911992 1_555
Al7 Al9 3.014074 1_545
Al8 Mn14 2.679141 1_555
Al8 Mn15 2.679141 1_555
Al8 Al90 2.911992 1_555
Al9 Mn18 2.679141 1_555
Al9 Mn16 2.679141 1_555
Al9 Al93 2.911992 1_555
Al9 Al98 2.911992 1_555
Al10 Mn17 2.679141 1_555
Al10 Mn20 2.679141 1_555
Al10 Al102 2.911992 1_555
Al10 Al99 2.911992 1_555
Al10 Al100 2.911992 1_555
Al10 Al113 2.911992 1_555
Al10 Al13 2.942718 1_556
Al10 Al15 2.942718 1_556
Al10 Al38 2.986896 1_555
Al10 Al35 2.986896 1_555
Al10 Al51 2.987943 1_556
Al10 Al53 2.987943 1_556
Al10 Al42 2.987943 1_556
Al10 Al52 2.987943 1_556
Al10 Al8 3.014074 1_556
Al11 Mn22 2.679141 1_555
Al11 Mn23 2.679141 1_555
Al11 Al97 2.911992 1_555
Al11 Al96 2.911992 1_555
Al11 Al14 2.942718 1_655
Al11 Al16 2.942718 1_655
Al11 Al40 2.986896 1_555
Al11 Al41 2.986896 1_555
Al11 Al49 2.987943 1_655
Al11 Al46 2.987943 1_655
Al11 Al43 2.987943 1_655
Al11 Al48 2.987943 1_655
Al11 Al6 3.014074 1_655
Al12 Mn8 2.522285 1_555
Al12 Mn2 2.522285 1_555
Al12 Al44 2.612165 1_555
Al12 Al50 2.612165 1_555
Al12 Al54 2.628239 1_555
Al12 Al63 2.628239 1_545
Al12 Al98 2.855266 1_545
Al12 Al92 2.855266 1_555
Al12 Al9 2.942718 1_545
Al12 Al7 2.942718 1_555
Al13 Mn10 2.522285 1_555
Al13 Mn0 2.522285 1_555
Al13 Al42 2.612165 1_555
Al13 Al52 2.612165 1_555
Al13 Al55 2.628239 1_555
Al13 Al61 2.628239 1_554
Al13 Al90 2.855266 1_555
Al13 Al8 2.942718 1_555
Al14 Mn6 2.522285 1_555
Al14 Mn1 2.522285 1_555
Al14 Al43 2.612165 1_555
Al14 Al48 2.612165 1_555
Al14 Al56 2.628239 1_555
Al14 Al57 2.628239 1_455
Al14 Al96 2.855266 1_455
Al14 Al91 2.855266 1_555
Al14 Al6 2.942718 1_555
Al15 Mn11 2.522285 1_555
Al15 Mn9 2.522285 1_555
Al15 Al51 2.612165 1_555
Al15 Al53 2.612165 1_555
Al15 Al60 2.628239 1_555
Al15 Al58 2.628239 1_554
Al15 Al99 2.855266 1_554
Al15 Al8 2.942718 1_555
Al16 Mn4 2.522285 1_555
Al16 Mn7 2.522285 1_555
Al16 Al49 2.612165 1_555
Al16 Al46 2.612165 1_555
Al16 Al62 2.628239 1_555
Al16 Al59 2.628239 1_455
Al16 Al94 2.855266 1_555
Al16 Al97 2.855266 1_455
Al16 Al6 2.942718 1_555
Al17 Mn5 2.522285 1_555
Al17 Mn3 2.522285 1_555
Al17 Al45 2.612165 1_555
Al17 Al47 2.612165 1_555
Al17 Al64 2.628239 1_555
Al17 Al65 2.628239 1_545
Al17 Al95 2.855266 1_555
Al17 Al93 2.855266 1_545
Al17 Al9 2.942718 1_545
Al17 Al7 2.942718 1_555
Al18 Mn0 2.372229 1_555
Al18 Al19 2.653690 1_555
Al18 Al26 2.653690 1_554
Al18 Al20 2.653690 1_555
Al18 Al25 2.653690 1_554
Al18 Al27 2.670348 1_545
Al18 Al67 2.900421 1_555
Al18 Al84 2.900421 1_554
Al18 Al68 2.915081 1_555
Al18 Al81 2.915081 1_554
Al19 Mn1 2.372229 1_555
Al19 Al28 2.653690 1_455
Al19 Al20 2.653690 1_555
Al19 Al21 2.653690 1_455
Al19 Al25 2.670348 1_554
Al19 Al68 2.900421 1_555
Al19 Al86 2.900421 1_455
Al19 Al66 2.915081 1_555
Al19 Al87 2.915081 1_455
Al20 Mn2 2.372229 1_555
Al20 Al24 2.653690 1_545
Al20 Al27 2.653690 1_545
Al20 Al21 2.670348 1_455
Al20 Al66 2.900421 1_555
Al20 Al88 2.900421 1_545
Al20 Al85 2.915081 1_545
Al20 Al67 2.915081 1_555
Al21 Mn3 2.372229 1_555
Al21 Al28 2.653690 1_555
Al21 Al29 2.653690 1_545
Al21 Al24 2.653690 1_645
Al21 Al87 2.900421 1_555
Al21 Al77 2.900421 1_545
Al21 Al82 2.915081 1_555
Al21 Al72 2.915081 1_545
Al22 Mn4 2.372229 1_555
Al22 Al26 2.653690 1_565
Al22 Al23 2.653690 1_465
Al22 Al29 2.653690 1_456
Al22 Al27 2.653690 1_556
Al22 Al24 2.670348 1_556
Al22 Al3 2.801789 1_556
Al22 Al74 2.900421 1_555
Al22 Al80 2.900421 1_455
Al22 Al78 2.915081 1_455
Al22 Al75 2.915081 1_555
Al23 Mn5 2.372229 1_555
Al23 Al28 2.653690 1_556
Al23 Al29 2.653690 1_546
Al23 Al25 2.653690 1_655
Al23 Al26 2.670348 1_655
Al23 Al4 2.801789 1_655
Al23 Al76 2.900421 1_555
Al23 Al78 2.900421 1_545
Al23 Al73 2.915081 1_555
Al23 Al79 2.915081 1_545
Al24 Mn6 2.372229 1_555
Al24 Al29 2.653690 1_455
Al24 Al27 2.653690 1_555
Al24 Al3 2.801789 1_555
Al24 Al83 2.900421 1_555
Al24 Al69 2.900421 1_455
Al24 Al88 2.915081 1_555
Al24 Al77 2.915081 1_455
Al25 Mn7 2.372229 1_555
Al25 Al26 2.653690 1_555
Al25 Al28 2.653690 1_456
Al25 Al81 2.900421 1_555
Al25 Al71 2.900421 1_455
Al25 Al89 2.915081 1_555
Al25 Al76 2.915081 1_455
Al26 Mn8 2.372229 1_555
Al26 Al27 2.653690 1_546
Al26 Al4 2.801789 1_555
Al26 Al89 2.900421 1_555
Al26 Al75 2.900421 1_545
Al26 Al70 2.915081 1_545
Al26 Al84 2.915081 1_555
Al27 Mn9 2.372229 1_555
Al27 Al85 2.900421 1_555
Al27 Al70 2.900421 1_554
Al27 Al83 2.915081 1_555
Al27 Al74 2.915081 1_554
Al28 Mn10 2.372229 1_555
Al28 Al29 2.670348 1_545
Al28 Al5 2.801789 1_555
Al28 Al82 2.900421 1_555
Al28 Al73 2.900421 1_554
Al28 Al71 2.915081 1_554
Al28 Al86 2.915081 1_555
Al29 Mn11 2.372229 1_555
Al29 Al5 2.801789 1_565
Al29 Al72 2.900421 1_555
Al29 Al79 2.900421 1_554
Al29 Al69 2.915081 1_555
Al29 Al80 2.915081 1_554
Al30 Mn12 2.324811 1_555
Al30 Al39 2.652118 1_555
Al30 Al38 2.682737 1_555
Al30 Al31 2.682737 1_555
Al30 Al32 2.682737 1_555
Al30 Al37 2.682737 1_555
Al30 Al91 2.911493 1_555
Al30 Al92 2.934302 1_555
Al30 Al6 2.986896 1_555
Al31 Mn13 2.324811 1_555
Al31 Al37 2.652118 1_555
Al31 Al40 2.682737 1_555
Al31 Al32 2.682737 1_555
Al31 Al33 2.682737 1_555
Al31 Al92 2.911493 1_555
Al31 Al90 2.934302 1_555
Al31 Al7 2.986896 1_555
Al32 Mn14 2.324811 1_555
Al32 Al33 2.652118 1_555
Al32 Al36 2.682737 1_555
Al32 Al39 2.682737 1_555
Al32 Al90 2.911493 1_555
Al32 Al91 2.934302 1_555
Al32 Al8 2.986896 1_555
Al33 Mn15 2.324811 1_555
Al33 Al40 2.682737 1_555
Al33 Al41 2.682737 1_555
Al33 Al36 2.682737 1_555
Al33 Al96 2.934302 1_555
Al33 Al8 2.986896 1_555
Al34 Mn16 2.324811 1_555
Al34 Al36 2.652118 1_555
Al34 Al38 2.682737 1_555
Al34 Al35 2.682737 1_555
Al34 Al41 2.682737 1_555
Al34 Al39 2.682737 1_555
Al34 Al98 2.911493 1_555
Al34 Al99 2.934302 1_555
Al34 Al9 2.986896 1_555
Al35 Mn17 2.324811 1_555
Al35 Al38 2.652118 1_555
Al35 Al40 2.682737 1_555
Al35 Al41 2.682737 1_555
Al35 Al37 2.682737 1_555
Al35 Al97 2.934302 1_555
Al36 Mn18 2.324811 1_555
Al36 Al41 2.682737 1_555
Al36 Al39 2.682737 1_555
Al36 Al93 2.911493 1_555
Al36 Al9 2.986896 1_555
Al37 Mn19 2.324811 1_555
Al37 Al38 2.682737 1_555
Al37 Al40 2.682737 1_555
Al37 Al95 2.911493 1_555
Al37 Al7 2.986896 1_555
Al38 Mn20 2.324811 1_555
Al38 Al39 2.682737 1_555
Al38 Al99 2.911493 1_555
Al38 Al94 2.934302 1_555
Al39 Mn21 2.324811 1_555
Al39 Al94 2.911493 1_555
Al39 Al98 2.934302 1_555
Al39 Al6 2.986896 1_555
Al40 Mn22 2.324811 1_555
Al40 Al41 2.652118 1_555
Al40 Al97 2.911493 1_555
Al40 Al95 2.934302 1_555
Al41 Mn23 2.324811 1_555
Al41 Al96 2.911493 1_555
Al41 Al93 2.934302 1_555
Al42 Al51 2.461555 1_555
Al42 Mn0 2.548767 1_555
Al42 Mn14 2.563067 1_555
Al42 Mn20 2.563067 1_554
Al42 Al81 2.640075 1_554
Al42 Al68 2.640075 1_555
Al42 Al90 2.841040 1_555
Al42 Al8 2.987943 1_555
Al43 Al49 2.461555 1_555
Al43 Mn1 2.548767 1_555
Al43 Mn12 2.563067 1_555
Al43 Mn22 2.563067 1_455
Al43 Al66 2.640075 1_555
Al43 Al87 2.640075 1_455
Al43 Al91 2.841040 1_555
Al43 Al6 2.987943 1_555
Al44 Al45 2.461555 1_555
Al44 Mn2 2.548767 1_555
Al44 Mn13 2.563067 1_555
Al44 Mn18 2.563067 1_545
Al44 Al67 2.640075 1_555
Al44 Al85 2.640075 1_545
Al44 Al92 2.841040 1_555
Al44 Al9 2.987943 1_545
Al44 Al7 2.987943 1_555
Al45 Mn3 2.548767 1_555
Al45 Mn13 2.563067 1_555
Al45 Mn18 2.563067 1_545
Al45 Al82 2.640075 1_555
Al45 Al72 2.640075 1_545
Al45 Al93 2.841040 1_545
Al45 Al7 2.987943 1_555
Al45 Al9 2.987943 1_545
Al46 Al48 2.461555 1_555
Al46 Mn4 2.548767 1_555
Al46 Mn21 2.563067 1_555
Al46 Mn23 2.563067 1_455
Al46 Al75 2.640075 1_555
Al46 Al78 2.640075 1_455
Al46 Al94 2.841040 1_555
Al46 Al6 2.987943 1_555
Al47 Al50 2.461555 1_555
Al47 Mn5 2.548767 1_555
Al47 Mn19 2.563067 1_555
Al47 Mn16 2.563067 1_545
Al47 Al79 2.640075 1_545
Al47 Al73 2.640075 1_555
Al47 Al95 2.841040 1_555
Al47 Al7 2.987943 1_555
Al47 Al9 2.987943 1_545
Al48 Mn6 2.548767 1_555
Al48 Mn21 2.563067 1_555
Al48 Mn23 2.563067 1_455
Al48 Al88 2.640075 1_555
Al48 Al77 2.640075 1_455
Al48 Al96 2.841040 1_455
Al48 Al6 2.987943 1_555
Al49 Mn7 2.548767 1_555
Al49 Mn12 2.563067 1_555
Al49 Mn22 2.563067 1_455
Al49 Al76 2.640075 1_455
Al49 Al89 2.640075 1_555
Al49 Al97 2.841040 1_455
Al49 Al6 2.987943 1_555
Al50 Mn8 2.548767 1_555
Al50 Mn19 2.563067 1_555
Al50 Mn16 2.563067 1_545
Al50 Al70 2.640075 1_545
Al50 Al84 2.640075 1_555
Al50 Al98 2.841040 1_545
Al50 Al7 2.987943 1_555
Al50 Al9 2.987943 1_545
Al51 Mn9 2.548767 1_555
Al51 Mn14 2.563067 1_555
Al51 Mn20 2.563067 1_554
Al51 Al74 2.640075 1_554
Al51 Al83 2.640075 1_555
Al51 Al99 2.841040 1_554
Al51 Al8 2.987943 1_555
Al52 Al53 2.461555 1_555
Al52 Mn10 2.548767 1_555
Al52 Mn15 2.563067 1_555
Al52 Mn17 2.563067 1_554
Al52 Al71 2.640075 1_554
Al52 Al86 2.640075 1_555
Al52 Al8 2.987943 1_555
Al53 Mn11 2.548767 1_555
Al53 Mn15 2.563067 1_555
Al53 Mn17 2.563067 1_554
Al53 Al69 2.640075 1_555
Al53 Al80 2.640075 1_554
Al53 Al8 2.987943 1_555
Al54 Mn12 2.455690 1_555
Al54 Al66 2.715645 1_555
Al54 Al89 2.715645 1_555
Al54 Mn8 2.775764 1_555
Al54 Mn2 2.775764 1_555
Al54 Al63 2.799814 1_545
Al54 Al92 2.987829 1_555
Al55 Mn13 2.455690 1_555
Al55 Al67 2.715645 1_555
Al55 Al82 2.715645 1_555
Al55 Mn10 2.775764 1_555
Al55 Mn0 2.775764 1_555
Al55 Al61 2.799814 1_554
Al55 Al90 2.987829 1_555
Al56 Mn14 2.455690 1_555
Al56 Al68 2.715645 1_555
Al56 Al83 2.715645 1_555
Al56 Mn6 2.775764 1_555
Al56 Mn1 2.775764 1_555
Al56 Al57 2.799814 1_455
Al56 Al91 2.987829 1_555
Al57 Mn15 2.455690 1_555
Al57 Al86 2.715645 1_555
Al57 Al69 2.715645 1_555
Al57 Mn6 2.775764 1_655
Al57 Mn1 2.775764 1_655
Al57 Al96 2.987829 1_555
Al58 Mn16 2.455690 1_555
Al58 Al70 2.715645 1_555
Al58 Al79 2.715645 1_555
Al58 Mn11 2.775764 1_556
Al58 Mn9 2.775764 1_556
Al58 Al60 2.799814 1_556
Al58 Al99 2.987829 1_555
Al59 Mn17 2.455690 1_555
Al59 Al71 2.715645 1_555
Al59 Al80 2.715645 1_555
Al59 Mn4 2.775764 1_655
Al59 Mn7 2.775764 1_655
Al59 Al62 2.799814 1_655
Al59 Al97 2.987829 1_555
Al60 Mn18 2.455690 1_555
Al60 Al85 2.715645 1_555
Al60 Al72 2.715645 1_555
Al60 Mn11 2.775764 1_555
Al60 Mn9 2.775764 1_555
Al61 Mn19 2.455690 1_555
Al61 Al84 2.715645 1_555
Al61 Al73 2.715645 1_555
Al61 Mn10 2.775764 1_556
Al61 Mn0 2.775764 1_556
Al62 Mn20 2.455690 1_555
Al62 Al81 2.715645 1_555
Al62 Al74 2.715645 1_555
Al62 Mn4 2.775764 1_555
Al62 Mn7 2.775764 1_555
Al62 Al94 2.987829 1_555
Al63 Mn21 2.455690 1_555
Al63 Al88 2.715645 1_555
Al63 Al75 2.715645 1_555
Al63 Mn8 2.775764 1_565
Al63 Mn2 2.775764 1_565
Al63 Al98 2.987829 1_555
Al64 Mn22 2.455690 1_555
Al64 Al87 2.715645 1_555
Al64 Al76 2.715645 1_555
Al64 Mn5 2.775764 1_555
Al64 Mn3 2.775764 1_555
Al64 Al65 2.799814 1_545
Al64 Al95 2.987829 1_555
Al65 Mn23 2.455690 1_555
Al65 Al77 2.715645 1_555
Al65 Al78 2.715645 1_555
Al65 Mn5 2.775764 1_565
Al65 Mn3 2.775764 1_565
Al65 Al93 2.987829 1_555
Al66 Mn2 2.615558 1_555
Al66 Mn1 2.659817 1_555
Al66 Al92 2.734074 1_555
Al66 Al91 2.751130 1_555
Al66 Al67 2.858855 1_555
Al66 Al68 2.858855 1_555
Al66 Mn12 2.991306 1_555
Al66 Al87 3.021498 1_455
Al67 Mn0 2.615558 1_555
Al67 Mn2 2.659817 1_555
Al67 Al90 2.734074 1_555
Al67 Al92 2.751130 1_555
Al67 Al68 2.858855 1_555
Al67 Mn13 2.991306 1_555
Al67 Al85 3.021498 1_545
Al68 Mn1 2.615558 1_555
Al68 Mn0 2.659817 1_555
Al68 Al91 2.734074 1_555
Al68 Al90 2.751130 1_555
Al68 Mn14 2.991306 1_555
Al68 Al81 3.021498 1_554
Al69 Mn6 2.615558 1_655
Al69 Mn11 2.659817 1_555
Al69 Al96 2.734074 1_555
Al69 Al72 2.858855 1_555
Al69 Al77 2.858855 1_555
Al69 Mn15 2.991306 1_555
Al69 Al80 3.021498 1_554
Al70 Mn9 2.615558 1_556
Al70 Mn8 2.659817 1_565
Al70 Al99 2.734074 1_555
Al70 Al98 2.751130 1_555
Al70 Al75 2.858855 1_555
Al70 Al74 2.858855 1_555
Al70 Mn16 2.991306 1_555
Al70 Al84 3.021498 1_565
Al71 Mn7 2.615558 1_655
Al71 Mn10 2.659817 1_556
Al71 Al97 2.734074 1_555
Al71 Al73 2.858855 1_555
Al71 Al76 2.858855 1_555
Al71 Mn17 2.991306 1_555
Al71 Al86 3.021498 1_556
Al72 Mn11 2.615558 1_555
Al72 Mn3 2.659817 1_565
Al72 Al93 2.751130 1_555
Al72 Al77 2.858855 1_555
Al72 Mn18 2.991306 1_555
Al72 Al82 3.021498 1_565
Al73 Mn10 2.615558 1_556
Al73 Mn5 2.659817 1_555
Al73 Al95 2.751130 1_555
Al73 Al76 2.858855 1_555
Al73 Mn19 2.991306 1_555
Al73 Al79 3.021498 1_545
Al74 Mn4 2.615558 1_555
Al74 Mn9 2.659817 1_556
Al74 Al94 2.734074 1_555
Al74 Al99 2.751130 1_555
Al74 Al75 2.858855 1_555
Al74 Mn20 2.991306 1_555
Al74 Al83 3.021498 1_556
Al75 Mn8 2.615558 1_565
Al75 Mn4 2.659817 1_555
Al75 Al98 2.734074 1_555
Al75 Al94 2.751130 1_555
Al75 Mn21 2.991306 1_555
Al75 Al78 3.021498 1_455
Al76 Mn5 2.615558 1_555
Al76 Mn7 2.659817 1_655
Al76 Al95 2.734074 1_555
Al76 Al97 2.751130 1_555
Al76 Mn22 2.991306 1_555
Al76 Al89 3.021498 1_655
Al77 Mn3 2.615558 1_565
Al77 Mn6 2.659817 1_655
Al77 Al93 2.734074 1_555
Al77 Al96 2.751130 1_555
Al77 Mn23 2.991306 1_555
Al77 Al88 3.021498 1_655
Al78 Mn5 2.615558 1_565
Al78 Mn4 2.659817 1_655
Al78 Al79 2.858855 1_555
Al78 Al80 2.858855 1_555
Al78 Mn23 2.991306 1_555
Al79 Mn11 2.615558 1_556
Al79 Mn5 2.659817 1_565
Al79 Al80 2.858855 1_555
Al79 Mn16 2.991306 1_555
Al80 Mn4 2.615558 1_655
Al80 Mn11 2.659817 1_556
Al80 Mn17 2.991306 1_555
Al81 Mn7 2.615558 1_555
Al81 Mn0 2.659817 1_556
Al81 Al89 2.858855 1_555
Al81 Al84 2.858855 1_555
Al81 Mn20 2.991306 1_555
Al82 Mn10 2.615558 1_555
Al82 Mn3 2.659817 1_555
Al82 Al86 2.858855 1_555
Al82 Al87 2.858855 1_555
Al82 Mn13 2.991306 1_555
Al83 Mn6 2.615558 1_555
Al83 Mn9 2.659817 1_555
Al83 Al88 2.858855 1_555
Al83 Al85 2.858855 1_555
Al83 Mn14 2.991306 1_555
Al84 Mn0 2.615558 1_556
Al84 Mn8 2.659817 1_555
Al84 Al89 2.858855 1_555
Al84 Mn19 2.991306 1_555
Al85 Mn9 2.615558 1_555
Al85 Mn2 2.659817 1_565
Al85 Al88 2.858855 1_555
Al85 Mn18 2.991306 1_555
Al86 Mn1 2.615558 1_655
Al86 Mn10 2.659817 1_555
Al86 Al87 2.858855 1_555
Al86 Mn15 2.991306 1_555
Al87 Mn3 2.615558 1_555
Al87 Mn1 2.659817 1_655
Al87 Mn22 2.991306 1_555
Al88 Mn2 2.615558 1_565
Al88 Mn6 2.659817 1_555
Al88 Mn21 2.991306 1_555
Al89 Mn8 2.615558 1_555
Al89 Mn7 2.659817 1_555
Al89 Mn12 2.991306 1_555
Al90 Mn13 2.624718 1_555
Al90 Mn14 2.633087 1_555
Al90 Mn0 2.953850 1_555
Al90 Al91 3.048701 1_555
Al90 Al92 3.048701 1_555
Al91 Mn14 2.624718 1_555
Al91 Mn12 2.633087 1_555
Al91 Mn1 2.953850 1_555
Al91 Al92 3.048701 1_555
Al92 Mn12 2.624718 1_555
Al92 Mn13 2.633087 1_555
Al92 Mn2 2.953850 1_555
Al93 Mn23 2.624718 1_555
Al93 Mn18 2.633087 1_555
Al93 Mn3 2.953850 1_565
Al93 Al96 3.048701 1_555
Al94 Mn20 2.624718 1_555
Al94 Mn21 2.633087 1_555
Al94 Mn4 2.953850 1_555
Al94 Al98 3.048701 1_555
Al94 Al99 3.048701 1_555
Al95 Mn22 2.624718 1_555
Al95 Mn19 2.633087 1_555
Al95 Mn5 2.953850 1_555
Al95 Al97 3.048701 1_555
Al96 Mn15 2.624718 1_555
Al96 Mn23 2.633087 1_555
Al96 Mn6 2.953850 1_655
Al97 Mn17 2.624718 1_555
Al97 Mn22 2.633087 1_555
Al97 Mn7 2.953850 1_655
Al98 Mn21 2.624718 1_555
Al98 Mn16 2.633087 1_555
Al98 Mn8 2.953850 1_565
Al98 Al99 3.048701 1_555
Al99 Mn16 2.624718 1_555
Al99 Mn20 2.633087 1_555
Al99 Mn9 2.953850 1_556
Al100 Mn19 2.624718 1_555
Al100 Mn17 2.633087 1_555
Al100 Al73 2.734074 1_555
Al100 Al71 2.751130 1_555
Al100 Al52 2.841040 1_556
Al100 Al113 2.843876 1_555
Al100 Al13 2.855266 1_556
Al100 Al35 2.911493 1_555
Al100 Al37 2.934302 1_555
Al100 Mn10 2.953850 1_556
Al100 Al61 2.987829 1_555
Al100 Al95 3.048701 1_555
Al100 Al97 3.048701 1_555
Al101 Mn18 2.624718 1_555
Al101 Mn15 2.633087 1_555
Al101 Al72 2.734074 1_555
Al101 Al69 2.751130 1_555
Al101 Al53 2.841040 1_555
Al101 Al112 2.843876 1_555
Al101 Al15 2.855266 1_555
Al101 Al33 2.911493 1_555
Al101 Al8 2.911992 1_555
Al101 Al36 2.934302 1_555
Al101 Mn11 2.953850 1_555
Al101 Al60 2.987829 1_555
Al101 Al96 3.048701 1_555
Al101 Al93 3.048701 1_555
Al102 Mn16 2.624718 1_555
Al102 Mn17 2.633087 1_555
Al102 Al79 2.734074 1_555
Al102 Al80 2.751130 1_555
Al102 Al53 2.841040 1_556
Al102 Al99 2.843876 1_555
Al102 Al15 2.855266 1_556
Al102 Al35 2.911493 1_555
Al102 Al34 2.934302 1_555
Al102 Mn11 2.953850 1_556
Al102 Al58 2.987829 1_555
Al102 Al103 3.048701 1_555
Al102 Al104 3.048701 1_555
Al103 Mn17 2.624718 1_555
Al103 Mn23 2.633087 1_555
Al103 Al80 2.734074 1_555
Al103 Al78 2.751130 1_555
Al103 Al46 2.841040 1_655
Al103 Al97 2.843876 1_555
Al103 Al16 2.855266 1_655
Al103 Al41 2.911493 1_555
Al103 Al11 2.911992 1_555
Al103 Al35 2.934302 1_555
Al103 Mn4 2.953850 1_655
Al103 Al59 2.987829 1_555
Al103 Al104 3.048701 1_555
Al104 Mn23 2.624718 1_555
Al104 Mn16 2.633087 1_555
Al104 Al78 2.734074 1_555
Al104 Al79 2.751130 1_555
Al104 Al47 2.841040 1_565
Al104 Al93 2.843876 1_555
Al104 Al17 2.855266 1_565
Al104 Al34 2.911493 1_555
Al104 Al9 2.911992 1_555
Al104 Al41 2.934302 1_555
Al104 Mn5 2.953850 1_565
Al104 Al65 2.987829 1_555
Al105 Mn12 2.624718 1_555
Al105 Mn19 2.633087 1_555
Al105 Al89 2.734074 1_555
Al105 Al84 2.751130 1_555
Al105 Al50 2.841040 1_555
Al105 Al92 2.843876 1_555
Al105 Al12 2.855266 1_555
Al105 Al37 2.911493 1_555
Al105 Al7 2.911992 1_555
Al105 Al30 2.934302 1_555
Al105 Mn8 2.953850 1_555
Al105 Al54 2.987829 1_555
Al105 Al108 3.048701 1_555
Al105 Al113 3.048701 1_555
Al106 Mn15 2.624718 1_555
Al106 Mn22 2.633087 1_555
Al106 Al86 2.734074 1_555
Al106 Al87 2.751130 1_555
Al106 Al43 2.841040 1_655
Al106 Al96 2.843876 1_555
Al106 Al14 2.855266 1_655
Al106 Al40 2.911493 1_555
Al106 Al11 2.911992 1_555
Al106 Al33 2.934302 1_555
Al106 Mn1 2.953850 1_655
Al106 Al57 2.987829 1_555
Al106 Al111 3.048701 1_555
Al106 Al110 3.048701 1_555
Al107 Mn21 2.624718 1_555
Al107 Mn18 2.633087 1_555
Al107 Al88 2.734074 1_555
Al107 Al85 2.751130 1_555
Al107 Al44 2.841040 1_565
Al107 Al98 2.843876 1_555
Al107 Al12 2.855266 1_565
Al107 Al36 2.911493 1_555
Al107 Al9 2.911992 1_555
Al107 Al39 2.934302 1_555
Al107 Mn2 2.953850 1_565
Al107 Al63 2.987829 1_555
Al107 Al109 3.048701 1_555
Al107 Al112 3.048701 1_555
Al108 Mn20 2.624718 1_555
Al108 Mn12 2.633087 1_555
Al108 Al81 2.734074 1_555
Al108 Al89 2.751130 1_555
Al108 Al49 2.841040 1_555
Al108 Al94 2.843876 1_555
Al108 Al16 2.855266 1_555
Al108 Al30 2.911493 1_555
Al108 Al6 2.911992 1_555
Al108 Al38 2.934302 1_555
Al108 Mn7 2.953850 1_555
Al108 Al62 2.987829 1_555
Al108 Al113 3.048701 1_555
Al109 Mn14 2.624718 1_555
Al109 Mn21 2.633087 1_555
Al109 Al83 2.734074 1_555
Al109 Al88 2.751130 1_555
Al109 Al48 2.841040 1_555
Al109 Al91 2.843876 1_555
Al109 Al14 2.855266 1_555
Al109 Al39 2.911493 1_555
Al109 Al6 2.911992 1_555
Al109 Al32 2.934302 1_555
Al109 Mn6 2.953850 1_555
Al109 Al56 2.987829 1_555
Al109 Al112 3.048701 1_555
Al110 Mn22 2.624718 1_555
Al110 Mn13 2.633087 1_555
Al110 Al87 2.734074 1_555
Al110 Al82 2.751130 1_555
Al110 Al45 2.841040 1_555
Al110 Al95 2.843876 1_555
Al110 Al17 2.855266 1_555
Al110 Al31 2.911493 1_555
Al110 Al7 2.911992 1_555
Al110 Al40 2.934302 1_555
Al110 Mn3 2.953850 1_555
Al110 Al64 2.987829 1_555
Al110 Al111 3.048701 1_555
Al111 Mn13 2.624718 1_555
Al111 Mn15 2.633087 1_555
Al111 Al82 2.734074 1_555
Al111 Al86 2.751130 1_555
Al111 Al52 2.841040 1_555
Al111 Al90 2.843876 1_555
Al111 Al13 2.855266 1_555
Al111 Al33 2.911493 1_555
Al111 Al8 2.911992 1_555
Al111 Al31 2.934302 1_555
Al111 Mn10 2.953850 1_555
Al111 Al55 2.987829 1_555
Al112 Mn18 2.624718 1_555
Al112 Mn14 2.633087 1_555
Al112 Al85 2.734074 1_555
Al112 Al83 2.751130 1_555
Al112 Al51 2.841040 1_555
Al112 Al15 2.855266 1_555
Al112 Al32 2.911493 1_555
Al112 Al8 2.911992 1_555
Al112 Al36 2.934302 1_555
Al112 Mn9 2.953850 1_555
Al112 Al60 2.987829 1_555
Al113 Mn19 2.624718 1_555
Al113 Mn20 2.633087 1_555
Al113 Al84 2.734074 1_555
Al113 Al81 2.751130 1_555
Al113 Al42 2.841040 1_556
Al113 Al13 2.855266 1_556
Al113 Al38 2.911493 1_555
Al113 Al37 2.934302 1_555
Al113 Mn0 2.953850 1_556
Al113 Al61 2.987829 1_555
