# generated using pymatgen
data_PaRh3
_symmetry_space_group_name_H-M   'P 1'
_cell_length_a   4.03072325
_cell_length_b   4.03072325
_cell_length_c   4.03072325
_cell_angle_alpha   90.00000000
_cell_angle_beta   90.00000000
_cell_angle_gamma   90.00000000
_symmetry_Int_Tables_number   1
_chemical_formula_structural   PaRh3
_chemical_formula_sum   'Pa1 Rh3'
_cell_volume   65.48607202
_cell_formula_units_Z   1
loop_
 _symmetry_equiv_pos_site_id
 _symmetry_equiv_pos_as_xyz
  1  'x, y, z'
loop_
 _atom_site_type_symbol
 _atom_site_label
 _atom_site_symmetry_multiplicity
 _atom_site_fract_x
 _atom_site_fract_y
 _atom_site_fract_z
 _atom_site_occupancy
  Pa  Pa0  1  0.00000000  0.00000000  0.00000000  1
  Rh  Rh0  1  0.50000000  0.00000000  0.50000000  1
  Rh  Rh1  1  0.00000000  0.50000000  0.50000000  1
  Rh  Rh2  1  0.50000000  0.50000000  0.00000000  1
loop_
_geom_bond_atom_site_label_1
_geom_bond_atom_site_label_2
_geom_bond_distance
_geom_bond_site_symmetry_2
Pa0 Rh2 2.850152 1_545
Pa0 Rh1 2.850152 1_555
Pa0 Rh1 2.850152 1_554
Pa0 Rh0 2.850152 1_555
Pa0 Rh2 2.850152 1_455
Pa0 Rh1 2.850152 1_544
Pa0 Rh2 2.850152 1_555
Pa0 Rh0 2.850152 1_455
Pa0 Rh2 2.850152 1_445
Pa0 Rh0 2.850152 1_454
Pa0 Rh0 2.850152 1_554
Pa0 Rh1 2.850152 1_545
Rh0 Rh2 2.850152 1_545
Rh0 Rh1 2.850152 1_555
Rh0 Rh2 2.850152 1_556
Rh0 Rh2 2.850152 1_555
Rh0 Rh1 2.850152 1_645
Rh0 Rh1 2.850152 1_545
Rh0 Rh1 2.850152 1_655
Rh0 Rh2 2.850152 1_546
Rh1 Rh2 2.850152 1_456
Rh1 Rh2 2.850152 1_455
Rh1 Rh2 2.850152 1_555
Rh1 Rh2 2.850152 1_556
