# generated using pymatgen
data_Sc4SeI6
_symmetry_space_group_name_H-M   'P 1'
_cell_length_a   4.06438964
_cell_length_b   13.37452173
_cell_length_c   13.99874237
_cell_angle_alpha   90.00000000
_cell_angle_beta   90.00000000
_cell_angle_gamma   90.00000000
_symmetry_Int_Tables_number   1
_chemical_formula_structural   Sc4SeI6
_chemical_formula_sum   'Sc8 Se2 I12'
_cell_volume   760.96138311
_cell_formula_units_Z   2
loop_
 _symmetry_equiv_pos_site_id
 _symmetry_equiv_pos_as_xyz
  1  'x, y, z'
loop_
 _atom_site_type_symbol
 _atom_site_label
 _atom_site_symmetry_multiplicity
 _atom_site_fract_x
 _atom_site_fract_y
 _atom_site_fract_z
 _atom_site_occupancy
  Sc  Sc0  1  0.00000000  0.10144192  0.07813294  1
  Sc  Sc1  1  0.00000000  0.89855808  0.92186706  1
  Sc  Sc2  1  0.00000000  0.60144192  0.42186706  1
  Sc  Sc3  1  0.00000000  0.39855808  0.57813294  1
  Sc  Sc4  1  0.50000000  0.12249776  0.85481335  1
  Sc  Sc5  1  0.50000000  0.87750224  0.14518665  1
  Sc  Sc6  1  0.50000000  0.62249776  0.64518665  1
  Sc  Sc7  1  0.50000000  0.37750224  0.35481335  1
  Se  Se0  1  0.50000000  0.00000000  0.00000000  1
  Se  Se1  1  0.50000000  0.50000000  0.50000000  1
  I  I0  1  0.50000000  0.26590752  0.67513362  1
  I  I1  1  0.50000000  0.73409248  0.32486638  1
  I  I2  1  0.50000000  0.76590752  0.82486638  1
  I  I3  1  0.50000000  0.23409248  0.17513362  1
  I  I4  1  0.00000000  0.25969202  0.92950194  1
  I  I5  1  0.00000000  0.74030798  0.07049806  1
  I  I6  1  0.00000000  0.48449343  0.24262678  1
  I  I7  1  0.00000000  0.51550657  0.75737322  1
  I  I8  1  0.00000000  0.98449343  0.25737322  1
  I  I9  1  0.00000000  0.01550657  0.74262678  1
  I  I10  1  0.00000000  0.24030798  0.42950194  1
  I  I11  1  0.00000000  0.75969202  0.57049806  1
loop_
_geom_bond_atom_site_label_1
_geom_bond_atom_site_label_2
_geom_bond_distance
_geom_bond_site_symmetry_2
Sc0 Se0 2.677101 1_455
Sc0 Se0 2.677101 1_555
Sc1 Se0 2.677101 1_566
Sc1 Se0 2.677101 1_466
Sc2 Se1 2.677101 1_555
Sc2 Se1 2.677101 1_455
Sc3 Se1 2.677101 1_455
Sc3 Se1 2.677101 1_555
Sc4 Se0 2.610548 1_556
Sc5 Se0 2.610548 1_565
Sc6 Se1 2.610548 1_555
Sc7 Se1 2.610548 1_555
I0 Sc3 3.020139 1_555
I0 Sc3 3.020139 1_655
I0 Sc4 3.163155 1_555
I1 Sc2 3.020139 1_655
I1 Sc2 3.020139 1_555
I1 Sc5 3.163155 1_555
I2 Sc1 3.020139 1_555
I2 Sc1 3.020139 1_655
I2 Sc6 3.163155 1_555
I3 Sc0 3.020139 1_655
I3 Sc0 3.020139 1_555
I3 Sc7 3.163155 1_555
I4 Sc4 2.930848 1_555
I4 Sc4 2.930848 1_455
I4 Sc0 2.967953 1_556
I5 Sc5 2.930848 1_555
I5 Sc5 2.930848 1_455
I5 Sc1 2.967953 1_554
I6 Sc7 2.940039 1_455
I6 Sc7 2.940039 1_555
I6 Sc2 2.956734 1_555
I7 Sc6 2.940039 1_555
I7 Sc6 2.940039 1_455
I7 Sc3 2.956734 1_555
I8 Sc5 2.940039 1_555
I8 Sc5 2.940039 1_455
I8 Sc0 2.956734 1_565
I9 Sc4 2.940039 1_555
I9 Sc4 2.940039 1_455
I9 Sc1 2.956734 1_545
I10 Sc7 2.930848 1_455
I10 Sc7 2.930848 1_555
I10 Sc3 2.967953 1_555
I11 Sc6 2.930848 1_455
I11 Sc6 2.930848 1_555
I11 Sc2 2.967953 1_555
