# generated using pymatgen
data_CsZn2BiAs
_symmetry_space_group_name_H-M   'P 1'
_cell_length_a   9.10257443
_cell_length_b   9.10257451
_cell_length_c   9.10257388
_cell_angle_alpha   154.03266361
_cell_angle_beta   154.03266525
_cell_angle_gamma   37.05213251
_symmetry_Int_Tables_number   1
_chemical_formula_structural   CsZn2BiAs
_chemical_formula_sum   'Cs1 Zn2 Bi1 As1'
_cell_volume   144.39296664
_cell_formula_units_Z   1
loop_
 _symmetry_equiv_pos_site_id
 _symmetry_equiv_pos_as_xyz
  1  'x, y, z'
loop_
 _atom_site_type_symbol
 _atom_site_label
 _atom_site_symmetry_multiplicity
 _atom_site_fract_x
 _atom_site_fract_y
 _atom_site_fract_z
 _atom_site_occupancy
  Cs  Cs0  1  0.02279025  0.02279025  1.00000000  1
  Zn  Zn0  1  0.73623079  0.23623079  0.50000000  1
  Zn  Zn1  1  0.23623079  0.73623079  0.50000000  1
  Bi  Bi0  1  0.35225858  0.35225858  0.00000000  1
  As  As0  1  0.65249059  0.65249059  1.00000000  1
loop_
_geom_bond_atom_site_label_1
_geom_bond_atom_site_label_2
_geom_bond_distance
_geom_bond_site_symmetry_2
Bi0 Zn0 2.862487 1_555
Bi0 Zn1 2.862487 1_555
Bi0 Zn0 2.862487 1_454
Bi0 Zn1 2.862487 1_544
Bi0 Cs0 4.126757 1_553
Bi0 Cs0 4.126758 1_665
Bi0 Cs0 4.126758 1_654
Bi0 Cs0 4.126758 1_564
As0 Zn1 2.504382 1_555
As0 Zn0 2.504382 1_555
As0 Zn1 2.504383 1_656
As0 Zn0 2.504383 1_566
As0 Cs0 3.657509 1_666
As0 Cs0 3.657510 1_554
As0 Cs0 3.657510 1_565
As0 Cs0 3.657510 1_655
