# generated using pymatgen
data_Zr6Zn22RhC
_symmetry_space_group_name_H-M   'P 1'
_cell_length_a   8.59988884
_cell_length_b   8.59988872
_cell_length_c   8.59988901
_cell_angle_alpha   59.99999886
_cell_angle_beta   59.99999931
_cell_angle_gamma   59.99999265
_symmetry_Int_Tables_number   1
_chemical_formula_structural   Zr6Zn22RhC
_chemical_formula_sum   'Zr6 Zn22 Rh1 C1'
_cell_volume   449.74204205
_cell_formula_units_Z   1
loop_
 _symmetry_equiv_pos_site_id
 _symmetry_equiv_pos_as_xyz
  1  'x, y, z'
loop_
 _atom_site_type_symbol
 _atom_site_label
 _atom_site_symmetry_multiplicity
 _atom_site_fract_x
 _atom_site_fract_y
 _atom_site_fract_z
 _atom_site_occupancy
  Zr  Zr0  1  0.69111406  0.30888594  0.30888594  1
  Zr  Zr1  1  0.30888594  0.69111406  0.69111406  1
  Zr  Zr2  1  0.30888594  0.69111406  0.30888594  1
  Zr  Zr3  1  0.69111406  0.30888594  0.69111406  1
  Zr  Zr4  1  0.30888594  0.30888594  0.69111406  1
  Zr  Zr5  1  0.69111406  0.69111406  0.30888594  1
  Zn  Zn0  1  0.11933167  0.11933167  0.11933167  1
  Zn  Zn1  1  0.88066833  0.88066833  0.88066833  1
  Zn  Zn2  1  0.11933167  0.11933167  0.64200700  1
  Zn  Zn3  1  0.11933167  0.64200700  0.11933167  1
  Zn  Zn4  1  0.88066833  0.88066833  0.35799300  1
  Zn  Zn5  1  0.88066833  0.35799300  0.88066833  1
  Zn  Zn6  1  0.64200700  0.11933167  0.11933167  1
  Zn  Zn7  1  0.35799300  0.88066833  0.88066833  1
  Zn  Zn8  1  0.50000000  0.00000000  0.00000000  1
  Zn  Zn9  1  0.00000000  0.50000000  0.50000000  1
  Zn  Zn10  1  0.00000000  0.50000000  0.00000000  1
  Zn  Zn11  1  0.50000000  0.00000000  0.50000000  1
  Zn  Zn12  1  0.00000000  0.00000000  0.50000000  1
  Zn  Zn13  1  0.50000000  0.50000000  0.00000000  1
  Zn  Zn14  1  0.32987283  0.32987283  0.32987283  1
  Zn  Zn15  1  0.67012717  0.67012717  0.67012717  1
  Zn  Zn16  1  0.32987283  0.32987283  0.01038152  1
  Zn  Zn17  1  0.32987283  0.01038152  0.32987283  1
  Zn  Zn18  1  0.67012717  0.67012717  0.98961848  1
  Zn  Zn19  1  0.67012717  0.98961848  0.67012717  1
  Zn  Zn20  1  0.01038152  0.32987283  0.32987283  1
  Zn  Zn21  1  0.98961848  0.67012717  0.67012717  1
  Rh  Rh0  1  0.00000000  0.00000000  0.00000000  1
  C  C0  1  0.50000000  0.50000000  0.50000000  1
loop_
_geom_bond_atom_site_label_1
_geom_bond_atom_site_label_2
_geom_bond_distance
_geom_bond_site_symmetry_2
Zn0 Zn10 2.675339 1_555
Zn0 Zn8 2.675339 1_555
Zn0 Zn12 2.675339 1_555
Zn0 Zn20 2.705562 1_555
Zn0 Zn17 2.705562 1_555
Zn0 Zn16 2.705562 1_555
Zn1 Zn10 2.675339 1_656
Zn1 Zn8 2.675339 1_566
Zn1 Zn12 2.675339 1_665
Zn1 Zn21 2.705562 1_555
Zn1 Zn19 2.705562 1_555
Zn1 Zn18 2.705562 1_555
Zn2 Zn9 2.675339 1_555
Zn2 Zn20 2.705577 1_555
Zn3 Zn9 2.675340 1_555
Zn4 Zn9 2.675339 1_655
Zn5 Zn9 2.675340 1_655
Zn6 Zn8 2.675353 1_555
Zn7 Zn8 2.675353 1_566
Zn8 Zr5 3.123727 1_545
Zn8 Zr4 3.123727 1_554
Zn8 Zr3 3.123727 1_554
Zn8 Zr2 3.123727 1_545
Zn9 Zr4 3.123727 1_555
Zn9 Zr5 3.123727 1_455
Zn9 Zr2 3.123727 1_555
Zn9 Zr3 3.123727 1_455
Zn10 Zn16 2.483644 1_555
Zn10 Zn18 2.483644 1_454
Zn10 Zn20 2.483644 1_555
Zn10 Zn21 2.483644 1_454
Zn10 Zn3 2.675353 1_555
Zn10 Zn5 2.675353 1_454
Zn10 Zr5 3.123727 1_455
Zn10 Zr4 3.123727 1_554
Zn10 Zr1 3.123727 1_554
Zn10 Zr0 3.123727 1_455
Zn11 Zn15 2.483644 1_545
Zn11 Zn14 2.483644 1_555
Zn11 Zn19 2.483644 1_545
Zn11 Zn17 2.483644 1_555
Zn11 Zn4 2.675339 1_545
Zn11 Zn2 2.675339 1_555
Zn11 Zn7 2.675340 1_545
Zn11 Zn6 2.675340 1_555
Zn11 Zr4 3.123727 1_555
Zn11 Zr5 3.123727 1_545
Zn11 Zr0 3.123727 1_555
Zn11 Zr1 3.123727 1_545
Zn12 Zn20 2.483644 1_555
Zn12 Zn21 2.483644 1_445
Zn12 Zn17 2.483644 1_555
Zn12 Zn19 2.483644 1_445
Zn12 Zn2 2.675353 1_555
Zn12 Zn4 2.675353 1_445
Zn12 Zr3 3.123726 1_455
Zn12 Zr1 3.123726 1_545
Zn12 Zr2 3.123726 1_545
Zn12 Zr0 3.123726 1_455
Zn13 Zn18 2.483644 1_554
Zn13 Zn16 2.483644 1_555
Zn13 Zn15 2.483644 1_554
Zn13 Zn14 2.483644 1_555
Zn13 Zn7 2.675339 1_554
Zn13 Zn6 2.675339 1_555
Zn13 Zn5 2.675339 1_554
Zn13 Zn3 2.675339 1_555
Zn13 Zr0 3.123727 1_555
Zn13 Zr2 3.123727 1_555
Zn13 Zr1 3.123727 1_554
Zn13 Zr3 3.123727 1_554
Zn14 Zn9 2.483644 1_555
Zn14 Zn3 2.705568 1_555
Zn14 Zn6 2.705568 1_555
Zn14 Zn2 2.705568 1_555
Zn14 Zn17 2.747590 1_555
Zn14 Zn20 2.747590 1_555
Zn14 Zn16 2.747590 1_555
Zn14 Zr2 2.937261 1_555
Zn14 Zr0 2.937261 1_555
Zn14 Zr4 2.937261 1_555
Zn15 Zn9 2.483644 1_655
Zn15 Zn5 2.705568 1_555
Zn15 Zn7 2.705568 1_555
Zn15 Zn4 2.705568 1_555
Zn15 Zn19 2.747590 1_555
Zn15 Zn21 2.747590 1_555
Zn15 Zn18 2.747590 1_555
Zn15 Zr3 2.937261 1_555
Zn15 Zr1 2.937261 1_555
Zn15 Zr5 2.937261 1_555
Zn16 Zn8 2.483644 1_555
Zn16 Zn3 2.705576 1_555
Zn16 Zn6 2.705576 1_555
Zn16 Zn17 2.747590 1_555
Zn16 Zn20 2.747590 1_555
Zn16 Zr1 2.937261 1_554
Zn16 Zr3 2.937261 1_554
Zn16 Zr4 2.937261 1_554
Zn17 Zn8 2.483644 1_555
Zn17 Zn2 2.705577 1_555
Zn17 Zn6 2.705577 1_555
Zn17 Zn20 2.747589 1_555
Zn17 Zr5 2.937260 1_545
Zn17 Zr1 2.937261 1_545
Zn17 Zr2 2.937261 1_545
Zn18 Zn8 2.483644 1_566
Zn18 Zn5 2.705576 1_555
Zn18 Zn7 2.705576 1_555
Zn18 Zn19 2.747590 1_555
Zn18 Zn21 2.747590 1_555
Zn18 Zr0 2.937261 1_556
Zn18 Zr2 2.937261 1_556
Zn18 Zr5 2.937261 1_556
Zn19 Zn8 2.483644 1_566
Zn19 Zn4 2.705577 1_555
Zn19 Zn7 2.705577 1_555
Zn19 Zn21 2.747589 1_555
Zn19 Zr4 2.937260 1_565
Zn19 Zr0 2.937261 1_565
Zn19 Zr3 2.937261 1_565
Zn20 Zn9 2.483644 1_555
Zn20 Zn3 2.705577 1_555
Zn20 Zr5 2.937260 1_455
Zn20 Zr3 2.937261 1_455
Zn20 Zr0 2.937261 1_455
Zn21 Zn9 2.483644 1_655
Zn21 Zn4 2.705577 1_555
Zn21 Zn5 2.705577 1_555
Zn21 Zr4 2.937260 1_655
Zn21 Zr2 2.937261 1_655
Zn21 Zr1 2.937261 1_655
Rh0 Zn5 2.513748 1_454
Rh0 Zn3 2.513748 1_545
Rh0 Zn7 2.513748 1_544
Rh0 Zn6 2.513748 1_455
Rh0 Zn4 2.513748 1_445
Rh0 Zn2 2.513748 1_554
Rh0 Zn0 2.513762 1_555
Rh0 Zn1 2.513762 1_444
C0 Zr3 2.324344 1_555
C0 Zr1 2.324344 1_555
C0 Zr2 2.324344 1_555
C0 Zr0 2.324344 1_555
C0 Zr5 2.324344 1_555
C0 Zr4 2.324344 1_555
