# generated using pymatgen
data_RbCr(SnSe3)2
_symmetry_space_group_name_H-M   'P 1'
_cell_length_a   9.41979817
_cell_length_b   9.41979712
_cell_length_c   9.41979834
_cell_angle_alpha   40.99983552
_cell_angle_beta   40.99984512
_cell_angle_gamma   40.99984302
_symmetry_Int_Tables_number   1
_chemical_formula_structural   RbCr(SnSe3)2
_chemical_formula_sum   'Rb1 Cr1 Sn2 Se6'
_cell_volume   324.77982170
_cell_formula_units_Z   1
loop_
 _symmetry_equiv_pos_site_id
 _symmetry_equiv_pos_as_xyz
  1  'x, y, z'
loop_
 _atom_site_type_symbol
 _atom_site_label
 _atom_site_symmetry_multiplicity
 _atom_site_fract_x
 _atom_site_fract_y
 _atom_site_fract_z
 _atom_site_occupancy
  Rb  Rb0  1  0.99811293  0.99811293  0.99811293  1
  Cr  Cr0  1  0.16702895  0.16702895  0.16702895  1
  Sn  Sn0  1  0.50085512  0.50085512  0.50085512  1
  Sn  Sn1  1  0.83260519  0.83260519  0.83260519  1
  Se  Se0  1  0.54246171  0.22402017  0.90784684  1
  Se  Se1  1  0.90784684  0.54246171  0.22402017  1
  Se  Se2  1  0.22402017  0.90784684  0.54246171  1
  Se  Se3  1  0.79030177  0.11098289  0.42578544  1
  Se  Se4  1  0.11098289  0.42578544  0.79030177  1
  Se  Se5  1  0.42578544  0.79030177  0.11098289  1
loop_
_geom_bond_atom_site_label_1
_geom_bond_atom_site_label_2
_geom_bond_distance
_geom_bond_site_symmetry_2
Rb0 Se4 3.551353 1_665
Rb0 Se5 3.551354 1_656
Rb0 Se3 3.551354 1_566
Rb0 Se1 3.558768 1_556
Rb0 Se0 3.558769 1_565
Rb0 Se2 3.558769 1_655
Cr0 Se1 2.571076 1_455
Cr0 Se2 2.571076 1_545
Cr0 Se0 2.571077 1_554
Cr0 Se5 2.577309 1_545
Cr0 Se4 2.577309 1_554
Cr0 Se3 2.577309 1_455
Se0 Sn0 2.699378 1_555
Se0 Sn1 2.715973 1_545
Se1 Sn0 2.699378 1_555
Se1 Sn1 2.715973 1_554
Se2 Sn0 2.699378 1_555
Se2 Sn1 2.715973 1_455
Se3 Sn1 2.698178 1_545
Se3 Sn0 2.704982 1_555
Se4 Sn1 2.698178 1_455
Se4 Sn0 2.704982 1_555
Se5 Sn1 2.698178 1_554
Se5 Sn0 2.704982 1_555
