# generated using pymatgen
data_CaCO3
_symmetry_space_group_name_H-M   'P 1'
_cell_length_a   4.34325300
_cell_length_b   4.96119100
_cell_length_c   5.14067800
_cell_angle_alpha   90.00000000
_cell_angle_beta   90.00000000
_cell_angle_gamma   90.00000000
_symmetry_Int_Tables_number   1
_chemical_formula_structural   CaCO3
_chemical_formula_sum   'Ca2 C2 O6'
_cell_volume   110.76982689
_cell_formula_units_Z   2
loop_
 _symmetry_equiv_pos_site_id
 _symmetry_equiv_pos_as_xyz
  1  'x, y, z'
loop_
 _atom_site_type_symbol
 _atom_site_label
 _atom_site_symmetry_multiplicity
 _atom_site_fract_x
 _atom_site_fract_y
 _atom_site_fract_z
 _atom_site_occupancy
  Ca  Ca0  1  0.60752500  0.50000000  0.00000000  1
  Ca  Ca1  1  0.39247500  0.00000000  0.50000000  1
  C  C0  1  0.98984400  0.00000000  0.00000000  1
  C  C1  1  0.01015600  0.50000000  0.50000000  1
  O  O0  1  0.13030800  0.22897100  0.00000000  1
  O  O1  1  0.13030800  0.77102900  0.00000000  1
  O  O2  1  0.31230700  0.50000000  0.50000000  1
  O  O3  1  0.68769300  0.00000000  0.00000000  1
  O  O4  1  0.86969200  0.27102900  0.50000000  1
  O  O5  1  0.86969200  0.72897100  0.50000000  1
loop_
_geom_bond_atom_site_label_1
_geom_bond_atom_site_label_2
_geom_bond_distance
_geom_bond_site_symmetry_2
Ca0 O1 2.470627 1_555
Ca0 O0 2.470627 1_555
Ca0 O3 2.504913 1_555
Ca0 O3 2.504913 1_565
Ca0 O1 2.638854 1_655
Ca0 O0 2.638854 1_655
Ca0 O2 2.872402 1_555
Ca0 O2 2.872402 1_554
Ca1 O4 2.470627 1_555
Ca1 O5 2.470627 1_545
Ca1 O2 2.504913 1_545
Ca1 O2 2.504913 1_555
Ca1 O4 2.638854 1_455
Ca1 O5 2.638854 1_445
Ca1 O3 2.872402 1_555
Ca1 O3 2.872402 1_556
C0 O0 1.289423 1_655
C0 O1 1.289423 1_645
C0 O3 1.312318 1_555
C1 O5 1.289423 1_455
C1 O4 1.289423 1_455
C1 O2 1.312318 1_555
