# generated using pymatgen
data_Pd2Ru2Pb4O13
_symmetry_space_group_name_H-M   'P 1'
_cell_length_a   7.30606595
_cell_length_b   7.26463394
_cell_length_c   7.26463399
_cell_angle_alpha   59.83816176
_cell_angle_beta   59.81115803
_cell_angle_gamma   59.81115488
_symmetry_Int_Tables_number   1
_chemical_formula_structural   Pd2Ru2Pb4O13
_chemical_formula_sum   'Pd2 Ru2 Pb4 O13'
_cell_volume   271.53108700
_cell_formula_units_Z   1
loop_
 _symmetry_equiv_pos_site_id
 _symmetry_equiv_pos_as_xyz
  1  'x, y, z'
loop_
 _atom_site_type_symbol
 _atom_site_label
 _atom_site_symmetry_multiplicity
 _atom_site_fract_x
 _atom_site_fract_y
 _atom_site_fract_z
 _atom_site_occupancy
  Pd  Pd0  1  0.87381029  0.37757585  0.87480157  1
  Pd  Pd1  1  0.87381029  0.87480157  0.37757585  1
  Ru  Ru0  1  0.87368813  0.87568520  0.87568520  1
  Ru  Ru1  1  0.37493947  0.87568520  0.87568520  1
  Pb  Pb0  1  0.88596583  0.36996543  0.36996543  1
  Pb  Pb1  1  0.37410431  0.36996543  0.36996543  1
  Pb  Pb2  1  0.37339737  0.37324495  0.87995931  1
  Pb  Pb3  1  0.37339737  0.87995931  0.37324495  1
  O  O0  1  0.19713863  0.80286137  0.80286137  1
  O  O1  1  0.20731417  0.80327233  0.19692004  1
  O  O2  1  0.55597410  0.94402590  0.94402590  1
  O  O3  1  0.54458186  0.94373289  0.55749886  1
  O  O4  1  0.95418639  0.94373289  0.55749886  1
  O  O5  1  0.79249345  0.80327233  0.19692004  1
  O  O6  1  0.54458186  0.55749886  0.94373289  1
  O  O7  1  0.79249345  0.19692004  0.80327233  1
  O  O8  1  0.79114420  0.20885580  0.20885580  1
  O  O9  1  0.95418639  0.55749886  0.94373289  1
  O  O10  1  0.95411742  0.54588258  0.54588258  1
  O  O11  1  0.20731417  0.19692004  0.80327233  1
  O  O12  1  0.50135984  0.49864016  0.49864016  1
loop_
_geom_bond_atom_site_label_1
_geom_bond_atom_site_label_2
_geom_bond_distance
_geom_bond_site_symmetry_2
O0 Ru1 1.977571 1_555
O0 Ru0 1.977584 1_455
O0 Pb2 2.576716 1_555
O0 Pb3 2.576716 1_555
O1 Ru1 1.939724 1_554
O1 Pd1 2.031094 1_455
O1 Pb3 2.526591 1_555
O1 Pb1 2.584646 1_555
O2 Ru0 1.952129 1_555
O2 Ru1 1.952143 1_555
O2 Pb2 2.588750 1_565
O2 Pb3 2.588750 1_556
O3 Ru1 1.926205 1_555
O3 Pd1 2.007339 1_555
O3 Pb3 2.541667 1_555
O3 Pb1 2.565929 1_565
O4 Ru0 1.926202 1_555
O4 Pd1 2.007350 1_555
O4 Pb3 2.541661 1_655
O4 Pb0 2.565930 1_565
O5 Ru0 1.939726 1_554
O5 Pd1 2.031083 1_555
O5 Pb3 2.526597 1_555
O5 Pb0 2.584646 1_555
O6 Ru1 1.926204 1_555
O6 Pd0 2.007339 1_555
O6 Pb2 2.541667 1_555
O6 Pb1 2.565929 1_556
O7 Ru0 1.939726 1_545
O7 Pd0 2.031083 1_555
O7 Pb2 2.526597 1_555
O7 Pb0 2.584646 1_555
O8 Pd1 2.009423 1_545
O8 Pd0 2.009423 1_554
O8 Pb1 2.495401 1_555
O8 Pb0 2.495406 1_555
O9 Ru0 1.926202 1_555
O9 Pd0 2.007350 1_555
O9 Pb2 2.541661 1_655
O9 Pb0 2.565930 1_556
O10 Pd1 1.981023 1_555
O10 Pd0 1.981023 1_555
O10 Pb0 2.536824 1_555
O10 Pb1 2.536829 1_655
O11 Ru1 1.939724 1_545
O11 Pd0 2.031094 1_455
O11 Pb2 2.526591 1_555
O11 Pb1 2.584647 1_555
O12 Pb3 2.256921 1_555
O12 Pb2 2.256921 1_555
O12 Pb1 2.288711 1_555
O12 Pb0 2.288717 1_555
