# generated using pymatgen
data_Rb2CaCdSb2
_symmetry_space_group_name_H-M   'P 1'
_cell_length_a   5.06636991
_cell_length_b   5.06636991
_cell_length_c   8.70125851
_cell_angle_alpha   90.00000000
_cell_angle_beta   90.00000000
_cell_angle_gamma   90.00000000
_symmetry_Int_Tables_number   1
_chemical_formula_structural   Rb2CaCdSb2
_chemical_formula_sum   'Rb2 Ca1 Cd1 Sb2'
_cell_volume   223.34480899
_cell_formula_units_Z   1
loop_
 _symmetry_equiv_pos_site_id
 _symmetry_equiv_pos_as_xyz
  1  'x, y, z'
loop_
 _atom_site_type_symbol
 _atom_site_label
 _atom_site_symmetry_multiplicity
 _atom_site_fract_x
 _atom_site_fract_y
 _atom_site_fract_z
 _atom_site_occupancy
  Rb  Rb0  1  0.50000000  0.00000000  0.64609071  1
  Rb  Rb1  1  0.00000000  0.50000000  0.35390929  1
  Ca  Ca0  1  0.00000000  0.00000000  0.00000000  1
  Cd  Cd0  1  0.50000000  0.50000000  0.00000000  1
  Sb  Sb0  1  0.00000000  0.50000000  0.79886325  1
  Sb  Sb1  1  0.50000000  0.00000000  0.20113675  1
loop_
_geom_bond_atom_site_label_1
_geom_bond_atom_site_label_2
_geom_bond_distance
_geom_bond_site_symmetry_2
Rb0 Sb0 3.821142 1_655
Rb0 Sb0 3.821142 1_545
Rb0 Sb0 3.821142 1_645
Rb0 Sb0 3.821142 1_555
Rb0 Sb1 3.871659 1_555
Rb1 Sb1 3.821142 1_455
Rb1 Sb1 3.821142 1_565
Rb1 Sb1 3.821142 1_555
Rb1 Sb1 3.821142 1_465
Rb1 Sb0 3.871659 1_555
Ca0 Sb1 3.078965 1_555
Ca0 Sb1 3.078965 1_455
Ca0 Sb0 3.078965 1_554
Ca0 Sb0 3.078965 1_544
Ca0 Cd0 3.582465 1_445
Ca0 Cd0 3.582465 1_545
Ca0 Cd0 3.582465 1_455
Ca0 Cd0 3.582465 1_555
Cd0 Sb1 3.078965 1_555
Cd0 Sb1 3.078965 1_565
Cd0 Sb0 3.078965 1_554
Cd0 Sb0 3.078965 1_654
Cd0 Rb1 3.987490 1_655
Cd0 Rb1 3.987490 1_555
Cd0 Rb0 3.987490 1_554
Cd0 Rb0 3.987490 1_564
