# generated using pymatgen
data_Cs2LiScSb2
_symmetry_space_group_name_H-M   'P 1'
_cell_length_a   11.29372575
_cell_length_b   11.29372652
_cell_length_c   7.15959979
_cell_angle_alpha   90.00000000
_cell_angle_beta   90.00000000
_cell_angle_gamma   101.74968706
_symmetry_Int_Tables_number   1
_chemical_formula_structural   Cs2LiScSb2
_chemical_formula_sum   'Cs8 Li4 Sc4 Sb8'
_cell_volume   894.05988150
_cell_formula_units_Z   4
loop_
 _symmetry_equiv_pos_site_id
 _symmetry_equiv_pos_as_xyz
  1  'x, y, z'
loop_
 _atom_site_type_symbol
 _atom_site_label
 _atom_site_symmetry_multiplicity
 _atom_site_fract_x
 _atom_site_fract_y
 _atom_site_fract_z
 _atom_site_occupancy
  Cs  Cs0  1  0.07057952  0.42942048  0.75000000  1
  Cs  Cs1  1  0.67724946  0.32275054  0.78296340  1
  Cs  Cs2  1  0.32275054  0.67724946  0.21703660  1
  Cs  Cs3  1  0.57057952  0.92942048  0.75000000  1
  Cs  Cs4  1  0.42942048  0.07057952  0.25000000  1
  Cs  Cs5  1  0.92942048  0.57057952  0.25000000  1
  Cs  Cs6  1  0.82275054  0.17724946  0.28296340  1
  Cs  Cs7  1  0.17724946  0.82275054  0.71703660  1
  Li  Li0  1  0.12270746  0.12270746  0.50000000  1
  Li  Li1  1  0.87729254  0.87729254  0.50000000  1
  Li  Li2  1  0.37729254  0.37729254  0.00000000  1
  Li  Li3  1  0.62270746  0.62270746  0.00000000  1
  Sc  Sc0  1  0.87103745  0.87103745  0.00000000  1
  Sc  Sc1  1  0.37103745  0.37103745  0.50000000  1
  Sc  Sc2  1  0.62896255  0.62896255  0.50000000  1
  Sc  Sc3  1  0.12896255  0.12896255  0.00000000  1
  Sb  Sb0  1  0.83381715  0.66618285  0.75000000  1
  Sb  Sb1  1  0.08618827  0.91381173  0.22691590  1
  Sb  Sb2  1  0.41381173  0.58618827  0.72691590  1
  Sb  Sb3  1  0.58618827  0.41381173  0.27308410  1
  Sb  Sb4  1  0.66618285  0.83381715  0.25000000  1
  Sb  Sb5  1  0.16618285  0.33381715  0.25000000  1
  Sb  Sb6  1  0.33381715  0.16618285  0.75000000  1
  Sb  Sb7  1  0.91381173  0.08618827  0.77308410  1
loop_
_geom_bond_atom_site_label_1
_geom_bond_atom_site_label_2
_geom_bond_distance
_geom_bond_site_symmetry_2
Cs0 Sb2 3.923399 1_555
Cs0 Sb7 3.923399 1_455
Cs0 Sb5 3.952384 1_555
Cs0 Sb5 3.952384 1_556
Cs0 Sb0 4.148705 1_455
Cs1 Sb3 3.854816 1_556
Cs1 Sb6 3.928474 1_555
Cs1 Sb0 3.928475 1_555
Cs1 Sb3 3.984022 1_555
Cs1 Sb7 4.145802 1_555
Cs2 Sb2 3.854816 1_554
Cs2 Sb4 3.928474 1_555
Cs2 Sb5 3.928475 1_555
Cs2 Sb2 3.984022 1_555
Cs2 Sb1 4.145802 1_555
Cs3 Sb7 3.923399 1_565
Cs3 Sb2 3.923399 1_555
Cs3 Sb4 3.952384 1_555
Cs3 Sb4 3.952384 1_556
Cs3 Sb6 4.148705 1_565
Cs4 Sb1 3.923399 1_545
Cs4 Sb3 3.923399 1_555
Cs4 Sb6 3.952384 1_555
Cs4 Sb6 3.952384 1_554
Cs4 Sb4 4.148705 1_545
Cs5 Sb3 3.923399 1_555
Cs5 Sb1 3.923399 1_655
Cs5 Sb0 3.952384 1_554
Cs5 Sb0 3.952384 1_555
Cs5 Sb5 4.148705 1_655
Cs6 Sb7 3.854816 1_555
Cs6 Sb5 3.928474 1_655
Cs6 Sb4 3.928475 1_545
Cs6 Sb7 3.984022 1_554
Cs6 Sb3 4.145802 1_555
Cs7 Sb1 3.854816 1_555
Cs7 Sb0 3.928474 1_455
Cs7 Sb6 3.928475 1_565
Cs7 Sb1 3.984022 1_556
Cs7 Sb2 4.145802 1_555
Li0 Sb6 2.941518 1_555
Li0 Sb5 2.941518 1_555
Li0 Sb7 3.026945 1_455
Li0 Sb1 3.026945 1_545
Li1 Sb4 2.941518 1_555
Li1 Sb0 2.941518 1_555
Li1 Sb1 3.026945 1_655
Li1 Sb7 3.026945 1_565
Li2 Sb5 2.941518 1_555
Li2 Sb6 2.941518 1_554
Li2 Sb3 3.026945 1_555
Li2 Sb2 3.026945 1_554
Li3 Sb0 2.941518 1_554
Li3 Sb4 2.941518 1_555
Li3 Sb2 3.026945 1_554
Li3 Sb3 3.026945 1_555
Sb0 Sc2 2.887382 1_555
Sb0 Sc0 2.887382 1_556
Sb1 Sc0 2.880783 1_455
Sb1 Sc3 2.880783 1_565
Sb2 Sc2 2.880783 1_555
Sb2 Sc1 2.880783 1_555
Sb3 Sc1 2.880783 1_555
Sb3 Sc2 2.880783 1_555
Sb4 Sc0 2.887382 1_555
Sb4 Sc2 2.887382 1_555
Sb5 Sc1 2.887382 1_555
Sb5 Sc3 2.887382 1_555
Sb6 Sc3 2.887382 1_556
Sb6 Sc1 2.887382 1_555
Sb7 Sc3 2.880783 1_656
Sb7 Sc0 2.880783 1_546
