# generated using pymatgen
data_Cd2Ni3IrO8
_symmetry_space_group_name_H-M   'P 1'
_cell_length_a   6.20036203
_cell_length_b   6.03217449
_cell_length_c   6.02743832
_cell_angle_alpha   60.04148361
_cell_angle_beta   90.00754295
_cell_angle_gamma   119.07716947
_symmetry_Int_Tables_number   1
_chemical_formula_structural   Cd2Ni3IrO8
_chemical_formula_sum   'Cd2 Ni3 Ir1 O8'
_cell_volume   161.70349644
_cell_formula_units_Z   1
loop_
 _symmetry_equiv_pos_site_id
 _symmetry_equiv_pos_as_xyz
  1  'x, y, z'
loop_
 _atom_site_type_symbol
 _atom_site_label
 _atom_site_symmetry_multiplicity
 _atom_site_fract_x
 _atom_site_fract_y
 _atom_site_fract_z
 _atom_site_occupancy
  Cd  Cd0  1  0.96360721  0.97624959  0.01168924  1
  Cd  Cd1  1  0.78629839  0.52366683  0.73837077  1
  Ni  Ni0  1  0.37495501  0.24994599  0.37503738  1
  Ni  Ni1  1  0.37498082  0.75000630  0.37500093  1
  Ni  Ni2  1  0.37498942  0.75001707  0.87496955  1
  Ir  Ir0  1  0.87504370  0.25002535  0.37498754  1
  O  O0  1  0.13039923  0.27759655  0.14579923  1
  O  O1  1  0.61970570  0.22235861  0.17388528  1
  O  O2  1  0.54340903  0.69605139  0.15162966  1
  O  O3  1  0.12921097  0.70625576  0.14641179  1
  O  O4  1  0.61966560  0.22241045  0.60415524  1
  O  O5  1  0.13032765  0.27762471  0.57619571  1
  O  O6  1  0.20653320  0.80393157  0.59836007  1
  O  O7  1  0.62087806  0.79386182  0.60351063  1
loop_
_geom_bond_atom_site_label_1
_geom_bond_atom_site_label_2
_geom_bond_distance
_geom_bond_site_symmetry_2
Cd0 O2 2.157026 1_555
Cd0 O0 2.160405 1_665
Cd0 O3 2.161153 1_655
Cd0 O5 2.161443 1_664
Cd1 O6 2.157214 1_655
Cd1 O4 2.160407 1_555
Cd1 O7 2.161162 1_555
Cd1 O1 2.161488 1_556
Ni0 O6 1.947677 1_545
Ni0 O2 1.948076 1_555
Ni0 O5 2.060920 1_555
Ni0 O1 2.061086 1_555
Ni0 O0 2.061878 1_555
Ni0 O4 2.062093 1_555
Ni1 O6 1.943478 1_555
Ni1 O2 1.943599 1_555
Ni1 O1 2.058884 1_565
Ni1 O5 2.058936 1_555
Ni1 O3 2.064430 1_555
Ni1 O7 2.064679 1_555
Ni2 O6 1.940259 1_555
Ni2 O2 1.940355 1_556
Ni2 O4 2.058938 1_565
Ni2 O0 2.059017 1_556
Ni2 O3 2.060857 1_556
Ni2 O7 2.061078 1_555
Ir0 O1 1.987038 1_555
Ir0 O5 1.987200 1_655
Ir0 O7 1.988141 1_545
Ir0 O3 1.988406 1_655
Ir0 O4 1.989319 1_555
Ir0 O0 1.989466 1_655
