# generated using pymatgen
data_CaZrSi7Ir12
_symmetry_space_group_name_H-M   'P 1'
_cell_length_a   9.68095878
_cell_length_b   9.68095954
_cell_length_c   3.85078626
_cell_angle_alpha   90.00000000
_cell_angle_beta   90.00000000
_cell_angle_gamma   120.00000074
_symmetry_Int_Tables_number   1
_chemical_formula_structural   CaZrSi7Ir12
_chemical_formula_sum   'Ca1 Zr1 Si7 Ir12'
_cell_volume   312.54806719
_cell_formula_units_Z   1
loop_
 _symmetry_equiv_pos_site_id
 _symmetry_equiv_pos_as_xyz
  1  'x, y, z'
loop_
 _atom_site_type_symbol
 _atom_site_label
 _atom_site_symmetry_multiplicity
 _atom_site_fract_x
 _atom_site_fract_y
 _atom_site_fract_z
 _atom_site_occupancy
  Ca  Ca0  1  0.66666700  0.33333300  0.24941479  1
  Zr  Zr0  1  0.33333300  0.66666700  0.74602419  1
  Si  Si0  1  0.00000000  0.00000000  0.54134834  1
  Si  Si1  1  0.29339653  0.88751975  0.24631691  1
  Si  Si2  1  0.59412322  0.70660347  0.24631691  1
  Si  Si3  1  0.11248025  0.40587678  0.24631691  1
  Si  Si4  1  0.71207002  0.11924608  0.74905829  1
  Si  Si5  1  0.40717506  0.28792998  0.74905829  1
  Si  Si6  1  0.88075392  0.59282494  0.74905829  1
  Ir  Ir0  1  0.25964998  0.11733403  0.25166006  1
  Ir  Ir1  1  0.85768405  0.74035002  0.25166006  1
  Ir  Ir2  1  0.88266597  0.14231595  0.25166006  1
  Ir  Ir3  1  0.73597513  0.88366827  0.74451132  1
  Ir  Ir4  1  0.14769315  0.26402487  0.74451132  1
  Ir  Ir5  1  0.11633173  0.85230685  0.74451132  1
  Ir  Ir6  1  0.07124798  0.62455710  0.24704331  1
  Ir  Ir7  1  0.55330913  0.92875202  0.24704331  1
  Ir  Ir8  1  0.37544290  0.44669087  0.24704331  1
  Ir  Ir9  1  0.94343110  0.38550134  0.74914734  1
  Ir  Ir10  1  0.44207024  0.05656890  0.74914734  1
  Ir  Ir11  1  0.61449866  0.55792976  0.74914734  1
loop_
_geom_bond_atom_site_label_1
_geom_bond_atom_site_label_2
_geom_bond_distance
_geom_bond_site_symmetry_2
Ca0 Si4 3.016881 1_555
Ca0 Si6 3.016891 1_555
Ca0 Si5 3.016896 1_555
Ca0 Si4 3.018633 1_554
Ca0 Si6 3.018642 1_554
Ca0 Si5 3.018648 1_554
Ca0 Ir9 3.127929 1_555
Ca0 Ir10 3.127931 1_555
Ca0 Ir11 3.127936 1_555
Ca0 Ir9 3.129196 1_554
Ca0 Ir10 3.129199 1_554
Ca0 Ir11 3.129204 1_554
Si1 Zr0 3.041419 1_555
Si1 Zr0 3.042846 1_554
Si2 Zr0 3.041427 1_555
Si2 Zr0 3.042854 1_554
Si3 Zr0 3.041424 1_555
Si3 Zr0 3.042851 1_554
Ir0 Si1 2.404961 1_545
Ir0 Si0 2.449059 1_555
Ir0 Si5 2.465205 1_555
Ir0 Si5 2.480806 1_554
Ir1 Si2 2.404961 1_555
Ir1 Si0 2.449060 1_665
Ir1 Si6 2.465201 1_555
Ir1 Si6 2.480802 1_554
Ir2 Si3 2.404961 1_655
Ir2 Si0 2.449060 1_655
Ir2 Si4 2.465207 1_555
Ir2 Si4 2.480808 1_554
Ir3 Si0 2.352658 1_665
Ir3 Si4 2.404762 1_565
Ir3 Si2 2.480042 1_555
Ir3 Si2 2.490815 1_556
Ir3 Zr0 3.379150 1_555
Ir4 Si0 2.352659 1_555
Ir4 Si5 2.404752 1_555
Ir4 Si3 2.480042 1_555
Ir4 Si3 2.490815 1_556
Ir4 Zr0 3.379151 1_555
Ir5 Si0 2.352658 1_565
Ir5 Si6 2.404756 1_455
Ir5 Si1 2.480042 1_555
Ir5 Si1 2.490815 1_556
Ir5 Zr0 3.379142 1_555
Ir6 Si3 2.342271 1_555
Ir6 Si1 2.372974 1_555
Ir6 Si6 2.570236 1_454
Ir6 Si6 2.581835 1_455
Ir6 Zr0 3.043263 1_555
Ir6 Zr0 3.048225 1_554
Ir7 Si1 2.342271 1_555
Ir7 Si2 2.372974 1_555
Ir7 Si4 2.570233 1_564
Ir7 Si4 2.581832 1_565
Ir7 Zr0 3.043266 1_555
Ir7 Zr0 3.048228 1_554
Ir8 Si2 2.342271 1_555
Ir8 Si3 2.372974 1_555
Ir8 Si5 2.570229 1_554
Ir8 Si5 2.581828 1_555
Ir8 Zr0 3.043271 1_555
Ir8 Zr0 3.048232 1_554
Ir9 Si6 2.369482 1_555
Ir9 Si4 2.426403 1_555
Ir9 Si3 2.461646 1_656
Ir9 Si3 2.478637 1_655
Ir9 Zr0 3.373813 1_655
Ir10 Si4 2.369472 1_555
Ir10 Si5 2.426409 1_555
Ir10 Si1 2.461646 1_546
Ir10 Si1 2.478637 1_545
Ir10 Zr0 3.373810 1_545
Ir11 Si5 2.369475 1_555
Ir11 Si6 2.426399 1_555
Ir11 Si2 2.461646 1_556
Ir11 Si2 2.478637 1_555
Ir11 Zr0 3.373820 1_555
