# generated using pymatgen
data_Rb2Ca(PSe3)2
_symmetry_space_group_name_H-M   'P 1'
_cell_length_a   12.65799569
_cell_length_b   6.89828466
_cell_length_c   9.76725367
_cell_angle_alpha   54.32815150
_cell_angle_beta   90.00000000
_cell_angle_gamma   90.00000000
_symmetry_Int_Tables_number   1
_chemical_formula_structural   Rb2Ca(PSe3)2
_chemical_formula_sum   'Rb4 Ca2 P4 Se12'
_cell_volume   692.83923879
_cell_formula_units_Z   2
loop_
 _symmetry_equiv_pos_site_id
 _symmetry_equiv_pos_as_xyz
  1  'x, y, z'
loop_
 _atom_site_type_symbol
 _atom_site_label
 _atom_site_symmetry_multiplicity
 _atom_site_fract_x
 _atom_site_fract_y
 _atom_site_fract_z
 _atom_site_occupancy
  Rb  Rb0  1  0.17126507  0.28046627  0.98622305  1
  Rb  Rb1  1  0.67126507  0.71953373  0.51377695  1
  Rb  Rb2  1  0.82873493  0.71953373  0.01377695  1
  Rb  Rb3  1  0.32873493  0.28046627  0.48622305  1
  Ca  Ca0  1  0.00000000  0.00000000  0.50000000  1
  Ca  Ca1  1  0.50000000  0.00000000  0.00000000  1
  P  P0  1  0.03870913  0.64731857  0.37725065  1
  P  P1  1  0.53870913  0.35268143  0.12274935  1
  P  P2  1  0.96129087  0.35268143  0.62274935  1
  P  P3  1  0.46129087  0.64731857  0.87725065  1
  Se  Se0  1  0.17658741  0.75777206  0.45060829  1
  Se  Se1  1  0.67658741  0.24222794  0.04939171  1
  Se  Se2  1  0.82341259  0.24222794  0.54939171  1
  Se  Se3  1  0.32341259  0.75777206  0.95060829  1
  Se  Se4  1  0.92147755  0.93343544  0.24442751  1
  Se  Se5  1  0.42147755  0.06656456  0.25557249  1
  Se  Se6  1  0.07852245  0.06656456  0.75557249  1
  Se  Se7  1  0.57852245  0.93343544  0.74442751  1
  Se  Se8  1  0.41967490  0.48975987  0.74496052  1
  Se  Se9  1  0.91967490  0.51024013  0.75503948  1
  Se  Se10  1  0.58032510  0.51024013  0.25503948  1
  Se  Se11  1  0.08032510  0.48975987  0.24496052  1
loop_
_geom_bond_atom_site_label_1
_geom_bond_atom_site_label_2
_geom_bond_distance
_geom_bond_site_symmetry_2
Rb0 Se6 3.536597 1_555
Rb0 Se3 3.651763 1_555
Rb0 Se8 3.681924 1_555
Rb0 Se9 3.684927 1_455
Rb0 Se11 3.748516 1_556
Rb0 Se0 3.808498 1_546
Rb0 Se5 3.821267 1_556
Rb0 Se4 3.879027 1_446
Rb1 Se7 3.536597 1_555
Rb1 Se2 3.651763 1_555
Rb1 Se9 3.681924 1_555
Rb1 Se8 3.684927 1_555
Rb1 Se10 3.748516 1_555
Rb1 Se1 3.808498 1_565
Rb1 Se4 3.821267 1_555
Rb1 Se5 3.879027 1_565
Rb2 Se4 3.536597 1_555
Rb2 Se1 3.651763 1_555
Rb2 Se10 3.681924 1_555
Rb2 Se11 3.684927 1_655
Rb2 Se9 3.748516 1_554
Rb2 Se2 3.808498 1_564
Rb2 Se7 3.821267 1_554
Rb2 Se6 3.879027 1_664
Rb3 Se5 3.536597 1_555
Rb3 Se0 3.651763 1_555
Rb3 Se11 3.681924 1_555
Rb3 Se10 3.684927 1_555
Rb3 Se8 3.748516 1_555
Rb3 Se3 3.808498 1_545
Rb3 Se6 3.821267 1_555
Rb3 Se7 3.879027 1_545
Ca0 Se6 2.960879 1_555
Ca0 Se4 2.960879 1_445
Ca0 Se11 2.972863 1_555
Ca0 Se9 2.972863 1_445
Ca0 Se0 2.993541 1_545
Ca0 Se2 2.993541 1_455
Ca1 Se5 2.960879 1_555
Ca1 Se7 2.960879 1_544
Ca1 Se10 2.972863 1_545
Ca1 Se8 2.972863 1_554
Ca1 Se1 2.993541 1_555
Ca1 Se3 2.993541 1_544
P0 Se11 2.183177 1_555
P0 Se0 2.185539 1_555
P0 Se4 2.189585 1_455
P1 Se10 2.183177 1_555
P1 Se1 2.185539 1_555
P1 Se5 2.189585 1_555
P2 Se9 2.183177 1_555
P2 Se2 2.185539 1_555
P2 Se6 2.189585 1_655
P3 Se8 2.183177 1_555
P3 Se3 2.185539 1_555
P3 Se7 2.189585 1_555
