# generated using pymatgen
data_CsP2IrOs
_symmetry_space_group_name_H-M   'P 1'
_cell_length_a   7.73394910
_cell_length_b   7.73394893
_cell_length_c   7.73394819
_cell_angle_alpha   150.14748842
_cell_angle_beta   150.14748724
_cell_angle_gamma   42.72494843
_symmetry_Int_Tables_number   1
_chemical_formula_structural   CsP2IrOs
_chemical_formula_sum   'Cs1 P2 Ir1 Os1'
_cell_volume   114.33005792
_cell_formula_units_Z   1
loop_
 _symmetry_equiv_pos_site_id
 _symmetry_equiv_pos_as_xyz
  1  'x, y, z'
loop_
 _atom_site_type_symbol
 _atom_site_label
 _atom_site_symmetry_multiplicity
 _atom_site_fract_x
 _atom_site_fract_y
 _atom_site_fract_z
 _atom_site_occupancy
  Cs  Cs0  1  0.00000000  0.00000000  0.00000000  1
  P  P0  1  0.33479802  0.33479802  0.00000000  1
  P  P1  1  0.66520198  0.66520198  1.00000000  1
  Ir  Ir0  1  0.25000000  0.75000000  0.50000000  1
  Os  Os0  1  0.75000000  0.25000000  0.50000000  1
loop_
_geom_bond_atom_site_label_1
_geom_bond_atom_site_label_2
_geom_bond_distance
_geom_bond_site_symmetry_2
Cs0 P1 3.687818 1_443
Cs0 P0 3.687818 1_556
Cs0 P1 3.687819 1_454
Cs0 P0 3.687819 1_545
Cs0 P1 3.687819 1_544
Cs0 P0 3.687819 1_455
Cs0 P1 3.687819 1_555
Cs0 P0 3.687819 1_444
Ir0 P0 2.336772 1_555
Ir0 P1 2.336772 1_555
Ir0 P0 2.336772 1_566
Ir0 P1 2.336772 1_454
Os0 P1 2.336772 1_555
Os0 P0 2.336772 1_555
Os0 P1 2.336772 1_544
Os0 P0 2.336772 1_656
