# generated using pymatgen
data_Rb3Lu2Br9
_symmetry_space_group_name_H-M   'P 1'
_cell_length_a   9.99525482
_cell_length_b   9.99525475
_cell_length_c   9.99525435
_cell_angle_alpha   83.69239977
_cell_angle_beta   83.69240322
_cell_angle_gamma   83.69240744
_symmetry_Int_Tables_number   1
_chemical_formula_structural   Rb3Lu2Br9
_chemical_formula_sum   'Rb6 Lu4 Br18'
_cell_volume   981.67826303
_cell_formula_units_Z   2
loop_
 _symmetry_equiv_pos_site_id
 _symmetry_equiv_pos_as_xyz
  1  'x, y, z'
loop_
 _atom_site_type_symbol
 _atom_site_label
 _atom_site_symmetry_multiplicity
 _atom_site_fract_x
 _atom_site_fract_y
 _atom_site_fract_z
 _atom_site_occupancy
  Rb  Rb0  1  0.58849040  0.91150960  0.25000000  1
  Rb  Rb1  1  0.25000000  0.58849040  0.91150960  1
  Rb  Rb2  1  0.91150960  0.25000000  0.58849040  1
  Rb  Rb3  1  0.75000000  0.41150960  0.08849040  1
  Rb  Rb4  1  0.08849040  0.75000000  0.41150960  1
  Rb  Rb5  1  0.41150960  0.08849040  0.75000000  1
  Lu  Lu0  1  0.84841609  0.84841609  0.84841609  1
  Lu  Lu1  1  0.34841609  0.34841609  0.34841609  1
  Lu  Lu2  1  0.15158391  0.15158391  0.15158391  1
  Lu  Lu3  1  0.65158391  0.65158391  0.65158391  1
  Br  Br0  1  0.09159964  0.40840036  0.25000000  1
  Br  Br1  1  0.25000000  0.09159964  0.40840036  1
  Br  Br2  1  0.40840036  0.25000000  0.09159964  1
  Br  Br3  1  0.75000000  0.90840036  0.59159964  1
  Br  Br4  1  0.59159964  0.75000000  0.90840036  1
  Br  Br5  1  0.90840036  0.59159964  0.75000000  1
  Br  Br6  1  0.23515852  0.41945022  0.58470295  1
  Br  Br7  1  0.58470295  0.23515852  0.41945022  1
  Br  Br8  1  0.41945022  0.58470295  0.23515852  1
  Br  Br9  1  0.08470295  0.91945022  0.73515852  1
  Br  Br10  1  0.73515852  0.08470295  0.91945022  1
  Br  Br11  1  0.91945022  0.73515852  0.08470295  1
  Br  Br12  1  0.76484148  0.58054978  0.41529705  1
  Br  Br13  1  0.41529705  0.76484148  0.58054978  1
  Br  Br14  1  0.58054978  0.41529705  0.76484148  1
  Br  Br15  1  0.91529705  0.08054978  0.26484148  1
  Br  Br16  1  0.26484148  0.91529705  0.08054978  1
  Br  Br17  1  0.08054978  0.26484148  0.91529705  1
loop_
_geom_bond_atom_site_label_1
_geom_bond_atom_site_label_2
_geom_bond_distance
_geom_bond_site_symmetry_2
Br0 Lu1 2.829030 1_555
Br0 Lu2 2.829030 1_555
Br0 Rb1 3.912105 1_554
Br0 Rb2 3.912105 1_455
Br0 Rb3 3.929605 1_455
Br0 Rb4 3.929605 1_555
Br1 Lu2 2.829029 1_555
Br1 Lu1 2.829029 1_555
Br1 Rb2 3.912105 1_455
Br1 Rb0 3.912105 1_545
Br1 Rb5 3.929605 1_555
Br1 Rb4 3.929605 1_545
Br2 Lu2 2.829030 1_555
Br2 Lu1 2.829030 1_555
Br2 Rb1 3.912105 1_554
Br2 Rb0 3.912105 1_545
Br2 Rb3 3.929605 1_555
Br2 Rb5 3.929605 1_554
Br3 Lu0 2.829029 1_555
Br3 Lu3 2.829029 1_555
Br3 Rb4 3.912105 1_655
Br3 Rb5 3.912105 1_565
Br3 Rb0 3.929605 1_555
Br3 Rb2 3.929605 1_565
Br4 Lu0 2.829030 1_555
Br4 Lu3 2.829030 1_555
Br4 Rb3 3.912105 1_556
Br4 Rb5 3.912105 1_565
Br4 Rb1 3.929605 1_555
Br4 Rb0 3.929605 1_556
Br5 Lu3 2.829030 1_555
Br5 Lu0 2.829030 1_555
Br5 Rb3 3.912105 1_556
Br5 Rb4 3.912105 1_655
Br5 Rb1 3.929605 1_655
Br5 Rb2 3.929605 1_555
Br6 Lu1 2.639667 1_555
Br6 Rb4 3.781324 1_555
Br6 Rb2 3.807610 1_455
Br6 Rb1 3.862791 1_555
Br6 Rb5 3.864908 1_555
Br7 Lu1 2.639667 1_555
Br7 Rb5 3.781324 1_555
Br7 Rb0 3.807610 1_545
Br7 Rb2 3.862791 1_555
Br7 Rb3 3.864907 1_555
Br8 Lu1 2.639667 1_555
Br8 Rb3 3.781325 1_555
Br8 Rb1 3.807610 1_554
Br8 Rb0 3.862791 1_555
Br8 Rb4 3.864908 1_555
Br9 Lu0 2.639667 1_455
Br9 Rb2 3.781324 1_465
Br9 Rb4 3.807610 1_555
Br9 Rb5 3.862791 1_565
Br9 Rb1 3.864908 1_555
Br10 Lu0 2.639667 1_545
Br10 Rb0 3.781324 1_546
Br10 Rb5 3.807610 1_555
Br10 Rb3 3.862791 1_556
Br10 Rb2 3.864907 1_555
Br11 Lu0 2.639667 1_554
Br11 Rb1 3.781325 1_654
Br11 Rb3 3.807610 1_555
Br11 Rb4 3.862791 1_655
Br11 Rb0 3.864908 1_555
Br12 Lu3 2.639667 1_555
Br12 Rb2 3.781324 1_555
Br12 Rb4 3.807610 1_655
Br12 Rb3 3.862791 1_555
Br12 Rb0 3.864908 1_555
Br13 Lu3 2.639667 1_555
Br13 Rb0 3.781324 1_555
Br13 Rb5 3.807610 1_565
Br13 Rb4 3.862791 1_555
Br13 Rb1 3.864907 1_555
Br14 Lu3 2.639667 1_555
Br14 Rb1 3.781325 1_555
Br14 Rb3 3.807610 1_556
Br14 Rb5 3.862791 1_555
Br14 Rb2 3.864908 1_555
Br15 Lu2 2.639667 1_655
Br15 Rb4 3.781324 1_645
Br15 Rb2 3.807610 1_555
Br15 Rb0 3.862791 1_545
Br15 Rb3 3.864908 1_555
Br16 Lu2 2.639667 1_565
Br16 Rb5 3.781324 1_564
Br16 Rb0 3.807610 1_555
Br16 Rb1 3.862791 1_554
Br16 Rb4 3.864907 1_555
Br17 Lu2 2.639667 1_556
Br17 Rb3 3.781325 1_456
Br17 Rb1 3.807610 1_555
Br17 Rb2 3.862791 1_455
Br17 Rb5 3.864908 1_555
