# generated using pymatgen
data_Ba3TaRu2O9
_symmetry_space_group_name_H-M   'P 1'
_cell_length_a   5.77959301
_cell_length_b   5.77950206
_cell_length_c   14.37455962
_cell_angle_alpha   90.00000000
_cell_angle_beta   90.00000000
_cell_angle_gamma   120.00263109
_symmetry_Int_Tables_number   1
_chemical_formula_structural   Ba3TaRu2O9
_chemical_formula_sum   'Ba6 Ta2 Ru4 O18'
_cell_volume   415.81614268
_cell_formula_units_Z   2
loop_
 _symmetry_equiv_pos_site_id
 _symmetry_equiv_pos_as_xyz
  1  'x, y, z'
loop_
 _atom_site_type_symbol
 _atom_site_label
 _atom_site_symmetry_multiplicity
 _atom_site_fract_x
 _atom_site_fract_y
 _atom_site_fract_z
 _atom_site_occupancy
  Ba  Ba0  1  0.99997718  0.99998956  0.75000000  1
  Ba  Ba1  1  0.00002282  0.00001044  0.25000000  1
  Ba  Ba2  1  0.33332412  0.66666494  0.90644806  1
  Ba  Ba3  1  0.66667588  0.33333506  0.40644806  1
  Ba  Ba4  1  0.66667588  0.33333506  0.09355194  1
  Ba  Ba5  1  0.33332412  0.66666494  0.59355194  1
  Ta  Ta0  1  0.00000000  0.00000000  0.00000000  1
  Ta  Ta1  1  0.00000000  0.00000000  0.50000000  1
  Ru  Ru0  1  0.33334374  0.66666670  0.15913562  1
  Ru  Ru1  1  0.66665626  0.33333330  0.65913562  1
  Ru  Ru2  1  0.66665626  0.33333330  0.84086438  1
  Ru  Ru3  1  0.33334374  0.66666670  0.34086438  1
  O  O0  1  0.51466807  0.48524749  0.75000000  1
  O  O1  1  0.48533193  0.51475251  0.25000000  1
  O  O2  1  0.51471341  0.02947673  0.75000000  1
  O  O3  1  0.48528659  0.97052327  0.25000000  1
  O  O4  1  0.02947054  0.51474780  0.25000000  1
  O  O5  1  0.97052946  0.48525220  0.75000000  1
  O  O6  1  0.83656053  0.16344525  0.92109389  1
  O  O7  1  0.16343947  0.83655475  0.42109389  1
  O  O8  1  0.16343947  0.83655475  0.07890611  1
  O  O9  1  0.83656053  0.16344525  0.57890611  1
  O  O10  1  0.32689547  0.16344855  0.92109613  1
  O  O11  1  0.67310453  0.83655145  0.42109613  1
  O  O12  1  0.16344658  0.32689833  0.07890729  1
  O  O13  1  0.83655342  0.67310167  0.57890729  1
  O  O14  1  0.67310453  0.83655145  0.07890387  1
  O  O15  1  0.32689547  0.16344855  0.57890387  1
  O  O16  1  0.83655342  0.67310167  0.92109271  1
  O  O17  1  0.16344658  0.32689833  0.42109271  1
loop_
_geom_bond_atom_site_label_1
_geom_bond_atom_site_label_2
_geom_bond_distance
_geom_bond_site_symmetry_2
Ba0 O0 2.893267 1_665
Ba0 O5 2.893437 1_565
Ba0 O2 2.893515 1_665
Ba0 O0 2.893557 1_555
Ba0 O5 2.893577 1_555
Ba0 O2 2.893611 1_565
Ba0 O16 2.953873 1_555
Ba0 O13 2.953873 1_555
Ba0 O6 2.953887 1_565
Ba0 O9 2.953887 1_565
Ba0 O10 2.954013 1_665
Ba0 O15 2.954013 1_665
Ba1 O1 2.893267 1_445
Ba1 O4 2.893437 1_545
Ba1 O3 2.893515 1_445
Ba1 O1 2.893557 1_555
Ba1 O4 2.893577 1_555
Ba1 O3 2.893611 1_545
Ba1 O17 2.953873 1_555
Ba1 O12 2.953873 1_555
Ba1 O7 2.953887 1_545
Ba1 O8 2.953887 1_545
Ba1 O11 2.954013 1_445
Ba1 O14 2.954013 1_445
Ba2 O0 2.890381 1_555
Ba2 O5 2.890449 1_455
Ba2 O2 2.890485 1_565
Ba2 O6 2.897449 1_455
Ba2 O6 2.897547 1_565
Ba2 O16 2.897571 1_455
Ba2 O10 2.897581 1_565
Ba2 O10 2.897601 1_555
Ba2 O16 2.897695 1_555
Ba2 O12 3.006235 1_556
Ba2 O14 3.006249 1_556
Ba2 O8 3.006289 1_556
Ba3 O1 2.890381 1_555
Ba3 O4 2.890449 1_655
Ba3 O3 2.890485 1_545
Ba3 O7 2.897449 1_655
Ba3 O7 2.897547 1_545
Ba3 O17 2.897571 1_655
Ba3 O11 2.897581 1_545
Ba3 O11 2.897601 1_555
Ba3 O17 2.897695 1_555
Ba3 O13 3.006235 1_555
Ba3 O15 3.006249 1_555
Ba3 O9 3.006289 1_555
Ba4 O1 2.890381 1_555
Ba4 O4 2.890449 1_655
Ba4 O3 2.890485 1_545
Ba4 O8 2.897449 1_655
Ba4 O8 2.897547 1_545
Ba4 O12 2.897571 1_655
Ba4 O14 2.897581 1_545
Ba4 O14 2.897601 1_555
Ba4 O12 2.897695 1_555
Ba4 O16 3.006235 1_554
Ba4 O10 3.006249 1_554
Ba4 O6 3.006289 1_554
Ba5 O0 2.890381 1_555
Ba5 O5 2.890449 1_455
Ba5 O2 2.890485 1_565
Ba5 O9 2.897449 1_455
Ba5 O9 2.897547 1_565
Ba5 O13 2.897571 1_455
Ba5 O15 2.897581 1_565
Ba5 O15 2.897601 1_555
Ba5 O13 2.897695 1_555
Ba5 O17 3.006235 1_555
Ba5 O11 3.006249 1_555
Ba5 O7 3.006289 1_555
O0 Ru2 2.004945 1_555
O0 Ru1 2.004945 1_555
O1 Ru3 2.004945 1_555
O1 Ru0 2.004945 1_555
O2 Ru2 2.004716 1_555
O2 Ru1 2.004716 1_555
O3 Ru3 2.004716 1_555
O3 Ru0 2.004716 1_555
O4 Ru3 2.004798 1_555
O4 Ru0 2.004798 1_555
O5 Ru2 2.004798 1_555
O5 Ru1 2.004798 1_555
O6 Ta0 1.990857 1_656
O6 Ru2 2.054899 1_555
O7 Ta1 1.990857 1_565
O7 Ru3 2.054899 1_555
O8 Ta0 1.990857 1_565
O8 Ru0 2.054899 1_555
O9 Ta1 1.990857 1_655
O9 Ru1 2.054899 1_555
O10 Ta0 1.990840 1_556
O10 Ru2 2.054742 1_555
O11 Ta1 1.990840 1_665
O11 Ru3 2.054742 1_555
O12 Ta0 1.990858 1_555
O12 Ru0 2.054724 1_555
O13 Ta1 1.990858 1_665
O13 Ru1 2.054724 1_555
O14 Ta0 1.990840 1_665
O14 Ru0 2.054742 1_555
O15 Ta1 1.990840 1_555
O15 Ru1 2.054742 1_555
O16 Ta0 1.990858 1_666
O16 Ru2 2.054724 1_555
O17 Ta1 1.990858 1_555
O17 Ru3 2.054724 1_555
