# generated using pymatgen
data_Li4As6Ir5Pd2
_symmetry_space_group_name_H-M   'P 1'
_cell_length_a   6.96164855
_cell_length_b   6.94339293
_cell_length_c   6.94339240
_cell_angle_alpha   110.18631024
_cell_angle_beta   109.06280029
_cell_angle_gamma   109.06279716
_symmetry_Int_Tables_number   1
_chemical_formula_structural   Li4As6Ir5Pd2
_chemical_formula_sum   'Li4 As6 Ir5 Pd2'
_cell_volume   258.66397277
_cell_formula_units_Z   1
loop_
 _symmetry_equiv_pos_site_id
 _symmetry_equiv_pos_as_xyz
  1  'x, y, z'
loop_
 _atom_site_type_symbol
 _atom_site_label
 _atom_site_symmetry_multiplicity
 _atom_site_fract_x
 _atom_site_fract_y
 _atom_site_fract_z
 _atom_site_occupancy
  Li  Li0  1  0.00000000  0.99623996  0.49939141  1
  Li  Li1  1  0.50000000  0.00117900  0.99882100  1
  Li  Li2  1  0.00000000  0.50060859  0.00376004  1
  Li  Li3  1  0.50000000  0.50117900  0.49882100  1
  As  As0  1  0.69627106  0.68900091  0.00727014  1
  As  As1  1  0.31867045  0.31199969  0.00667176  1
  As  As2  1  0.00000000  0.69472450  0.68431042  1
  As  As3  1  1.00000000  0.31568958  0.30527550  1
  As  As4  1  0.68132955  0.99332824  0.68800031  1
  As  As5  1  0.30372894  0.99272986  0.31099909  1
  Ir  Ir0  1  0.00000000  0.99906723  0.00093277  1
  Ir  Ir1  1  0.50000000  0.25098937  0.74901063  1
  Ir  Ir2  1  0.50000000  0.75098937  0.24901063  1
  Ir  Ir3  1  0.75259727  0.50140515  0.25119212  1
  Ir  Ir4  1  0.24740273  0.74880788  0.49859485  1
  Pd  Pd0  1  0.24951329  0.50078697  0.74872632  1
  Pd  Pd1  1  0.75048671  0.25127368  0.49921303  1
loop_
_geom_bond_atom_site_label_1
_geom_bond_atom_site_label_2
_geom_bond_distance
_geom_bond_site_symmetry_2
Li0 Pd1 2.856976 1_465
Li0 Pd0 2.856976 1_565
Li1 Pd1 2.833441 1_556
Li1 Pd0 2.833441 1_545
Li2 Pd1 2.856975 1_454
Li2 Pd0 2.856975 1_554
Li3 Pd0 2.833441 1_555
Li3 Pd1 2.833441 1_555
As0 Ir3 2.478138 1_555
As0 Ir2 2.500648 1_555
As0 Ir1 2.500648 1_554
As0 Ir0 2.502096 1_655
As0 Pd0 2.585058 1_554
As0 Li0 2.828594 1_655
As0 Li2 2.828594 1_655
As0 Li3 2.922123 1_554
As0 Li1 2.922123 1_564
As1 Ir3 2.500277 1_555
As1 Ir2 2.505015 1_555
As1 Ir1 2.505021 1_554
As1 Ir0 2.525499 1_545
As1 Pd0 2.574305 1_554
As1 Li3 2.827969 1_555
As1 Li1 2.827975 1_554
As1 Li2 2.919549 1_555
As1 Li0 2.919555 1_544
As2 Ir0 2.468280 1_556
As2 Ir3 2.476427 1_455
As2 Ir4 2.476427 1_555
As2 Pd0 2.542961 1_555
As2 Pd1 2.542962 1_455
As2 Li0 2.808312 1_555
As2 Li3 2.898697 1_455
As2 Li1 2.898697 1_565
As2 Li2 2.966424 1_556
As3 Ir0 2.468280 1_645
As3 Ir3 2.476427 1_555
As3 Ir4 2.476428 1_655
As3 Pd0 2.542961 1_655
As3 Pd1 2.542961 1_555
As3 Li2 2.808312 1_655
As3 Li3 2.898697 1_655
As3 Li1 2.898697 1_554
As3 Li0 2.966424 1_645
As4 Ir4 2.500277 1_555
As4 Ir2 2.505015 1_555
As4 Ir1 2.505021 1_565
As4 Ir0 2.525499 1_656
As4 Pd1 2.574305 1_565
As4 Li3 2.827969 1_555
As4 Li1 2.827975 1_565
As4 Li0 2.919549 1_655
As4 Li2 2.919555 1_666
As5 Ir4 2.478139 1_555
As5 Ir1 2.500648 1_565
As5 Ir2 2.500648 1_555
As5 Ir0 2.502095 1_555
As5 Pd1 2.585058 1_565
As5 Li0 2.828594 1_555
As5 Li2 2.828594 1_555
As5 Li1 2.922123 1_564
As5 Li3 2.922124 1_565
Ir1 Li1 2.844921 1_555
Ir1 Li3 2.849241 1_555
Ir1 Li2 2.858406 1_656
Ir1 Li0 2.858406 1_545
Ir2 Li3 2.844921 1_555
Ir2 Li1 2.849241 1_564
Ir2 Li0 2.858406 1_655
Ir2 Li2 2.858406 1_555
Ir3 Li2 2.801883 1_655
Ir3 Li0 2.801883 1_655
Ir3 Li3 2.832603 1_555
Ir3 Li1 2.832603 1_554
Ir4 Li2 2.801883 1_555
Ir4 Li0 2.801883 1_555
Ir4 Li1 2.832603 1_565
Ir4 Li3 2.832603 1_555
