# generated using pymatgen
data_Nb3SnPdN
_symmetry_space_group_name_H-M   'P 1'
_cell_length_a   7.17801971
_cell_length_b   7.17801971
_cell_length_c   7.17801971
_cell_angle_alpha   90.00000000
_cell_angle_beta   90.00000000
_cell_angle_gamma   90.00000000
_symmetry_Int_Tables_number   1
_chemical_formula_structural   Nb3SnPdN
_chemical_formula_sum   'Nb12 Sn4 Pd4 N4'
_cell_volume   369.84004988
_cell_formula_units_Z   4
loop_
 _symmetry_equiv_pos_site_id
 _symmetry_equiv_pos_as_xyz
  1  'x, y, z'
loop_
 _atom_site_type_symbol
 _atom_site_label
 _atom_site_symmetry_multiplicity
 _atom_site_fract_x
 _atom_site_fract_y
 _atom_site_fract_z
 _atom_site_occupancy
  Nb  Nb0  1  0.78847534  0.96007228  0.37551811  1
  Nb  Nb1  1  0.71152466  0.03992772  0.87551811  1
  Nb  Nb2  1  0.21152466  0.46007228  0.12448189  1
  Nb  Nb3  1  0.28847534  0.53992772  0.62448189  1
  Nb  Nb4  1  0.96007228  0.37551811  0.78847534  1
  Nb  Nb5  1  0.03992772  0.87551811  0.71152466  1
  Nb  Nb6  1  0.46007228  0.12448189  0.21152466  1
  Nb  Nb7  1  0.53992772  0.62448189  0.28847534  1
  Nb  Nb8  1  0.37551811  0.78847534  0.96007228  1
  Nb  Nb9  1  0.87551811  0.71152466  0.03992772  1
  Nb  Nb10  1  0.12448189  0.21152466  0.46007228  1
  Nb  Nb11  1  0.62448189  0.28847534  0.53992772  1
  Sn  Sn0  1  0.57299581  0.42700419  0.92700419  1
  Sn  Sn1  1  0.42700419  0.92700419  0.57299581  1
  Sn  Sn2  1  0.92700419  0.57299581  0.42700419  1
  Sn  Sn3  1  0.07299581  0.07299581  0.07299581  1
  Pd  Pd0  1  0.18200493  0.81799507  0.31799507  1
  Pd  Pd1  1  0.31799507  0.18200493  0.81799507  1
  Pd  Pd2  1  0.81799507  0.31799507  0.18200493  1
  Pd  Pd3  1  0.68200493  0.68200493  0.68200493  1
  N  N0  1  0.87717267  0.12282733  0.62282733  1
  N  N1  1  0.62282733  0.87717267  0.12282733  1
  N  N2  1  0.12282733  0.62282733  0.87717267  1
  N  N3  1  0.37717267  0.37717267  0.37717267  1
loop_
_geom_bond_atom_site_label_1
_geom_bond_atom_site_label_2
_geom_bond_distance
_geom_bond_site_symmetry_2
Nb0 Pd2 2.928311 1_565
Nb0 Sn1 2.966115 1_555
Nb0 Sn2 2.974068 1_555
Nb0 Pd0 3.031474 1_655
Nb0 Pd3 3.067221 1_555
Nb0 Sn3 3.089246 1_665
Nb1 Pd3 2.928311 1_545
Nb1 Sn3 2.966115 1_656
Nb1 Sn0 2.974068 1_555
Nb1 Pd1 3.031474 1_555
Nb1 Pd2 3.067221 1_556
Nb1 Sn1 3.089246 1_545
Nb2 Pd0 2.928311 1_555
Nb2 Sn0 2.966115 1_554
Nb2 Sn3 2.974068 1_555
Nb2 Pd2 3.031474 1_455
Nb2 Pd1 3.067221 1_554
Nb2 Sn2 3.089246 1_455
Nb3 Pd1 2.928311 1_555
Nb3 Sn2 2.966115 1_455
Nb3 Sn1 2.974068 1_555
Nb3 Pd3 3.031474 1_555
Nb3 Pd0 3.067221 1_555
Nb3 Sn0 3.089246 1_555
Nb4 Pd1 2.928311 1_655
Nb4 Sn2 2.966115 1_555
Nb4 Sn0 2.974068 1_555
Nb4 Pd2 3.031474 1_556
Nb4 Pd3 3.067221 1_555
Nb4 Sn3 3.089246 1_656
Nb5 Pd3 2.928311 1_455
Nb5 Sn3 2.966115 1_566
Nb5 Sn1 2.974068 1_555
Nb5 Pd0 3.031474 1_555
Nb5 Pd1 3.067221 1_565
Nb5 Sn2 3.089246 1_455
Nb6 Pd2 2.928311 1_555
Nb6 Sn1 2.966115 1_545
Nb6 Sn3 2.974068 1_555
Nb6 Pd1 3.031474 1_554
Nb6 Pd0 3.067221 1_545
Nb6 Sn0 3.089246 1_554
Nb7 Pd0 2.928311 1_555
Nb7 Sn0 2.966115 1_554
Nb7 Sn2 2.974068 1_555
Nb7 Pd3 3.031474 1_555
Nb7 Pd2 3.067221 1_555
Nb7 Sn1 3.089246 1_555
Nb8 Pd0 2.928311 1_556
Nb8 Sn0 2.966115 1_555
Nb8 Sn1 2.974068 1_555
Nb8 Pd1 3.031474 1_565
Nb8 Pd3 3.067221 1_555
Nb8 Sn3 3.089246 1_566
Nb9 Pd3 2.928311 1_554
Nb9 Sn3 2.966115 1_665
Nb9 Sn2 2.974068 1_555
Nb9 Pd2 3.031474 1_555
Nb9 Pd0 3.067221 1_655
Nb9 Sn0 3.089246 1_554
Nb10 Pd1 2.928311 1_555
Nb10 Sn2 2.966115 1_455
Nb10 Sn3 2.974068 1_555
Nb10 Pd0 3.031474 1_545
Nb10 Pd2 3.067221 1_455
Nb10 Sn1 3.089246 1_545
Nb11 Pd2 2.928311 1_555
Nb11 Sn1 2.966115 1_545
Nb11 Sn0 2.974068 1_555
Nb11 Pd3 3.031474 1_555
Nb11 Pd1 3.067221 1_555
Nb11 Sn2 3.089246 1_555
Pd0 Sn1 2.656187 1_555
Pd0 Sn2 2.656187 1_455
Pd0 Sn3 2.656187 1_565
Pd1 Sn3 2.656187 1_556
Pd1 Sn1 2.656187 1_545
Pd1 Sn0 2.656187 1_555
Pd2 Sn3 2.656187 1_655
Pd2 Sn0 2.656187 1_554
Pd2 Sn2 2.656187 1_555
Pd3 Sn1 2.656187 1_555
Pd3 Sn2 2.656187 1_555
Pd3 Sn0 2.656187 1_555
N0 Nb10 2.218441 1_655
N0 Nb5 2.218441 1_645
N0 Nb0 2.218441 1_545
N0 Nb1 2.248958 1_555
N0 Nb11 2.248958 1_555
N0 Nb4 2.248958 1_555
N1 Nb6 2.218441 1_565
N1 Nb1 2.218441 1_564
N1 Nb8 2.218441 1_554
N1 Nb9 2.248958 1_555
N1 Nb7 2.248958 1_555
N1 Nb0 2.248958 1_555
N2 Nb2 2.218441 1_556
N2 Nb9 2.218441 1_456
N2 Nb4 2.218441 1_455
N2 Nb3 2.248958 1_555
N2 Nb5 2.248958 1_555
N2 Nb8 2.248958 1_555
N3 Nb11 2.218441 1_555
N3 Nb3 2.218441 1_555
N3 Nb7 2.218441 1_555
N3 Nb10 2.248958 1_555
N3 Nb2 2.248958 1_555
N3 Nb6 2.248958 1_555
