# generated using pymatgen
data_Ba5ZrOs3O16
_symmetry_space_group_name_H-M   'P 1'
_cell_length_a   5.94044410
_cell_length_b   5.94055784
_cell_length_c   10.49511713
_cell_angle_alpha   92.79175474
_cell_angle_beta   92.78891802
_cell_angle_gamma   89.53294043
_symmetry_Int_Tables_number   1
_chemical_formula_structural   Ba5ZrOs3O16
_chemical_formula_sum   'Ba5 Zr1 Os3 O16'
_cell_volume   369.48404991
_cell_formula_units_Z   1
loop_
 _symmetry_equiv_pos_site_id
 _symmetry_equiv_pos_as_xyz
  1  'x, y, z'
loop_
 _atom_site_type_symbol
 _atom_site_label
 _atom_site_symmetry_multiplicity
 _atom_site_fract_x
 _atom_site_fract_y
 _atom_site_fract_z
 _atom_site_occupancy
  Ba  Ba0  1  0.50995509  0.02758573  0.20076774  1
  Ba  Ba1  1  0.02756801  0.50994539  0.20073597  1
  Ba  Ba2  1  0.99996398  0.99998698  0.50003930  1
  Ba  Ba3  1  0.97244213  0.49003763  0.79924059  1
  Ba  Ba4  1  0.49009571  0.97239026  0.79924444  1
  Zr  Zr0  1  0.50003610  0.49996119  0.99999030  1
  Os  Os0  1  0.00003100  0.99997293  0.99997281  1
  Os  Os1  1  0.56642809  0.56644842  0.39569002  1
  Os  Os2  1  0.43354810  0.43355159  0.60433191  1
  O  O0  1  0.75642875  0.24332044  0.99995309  1
  O  O1  1  0.75779757  0.75755152  0.01355638  1
  O  O2  1  0.03228786  0.03254437  0.17242580  1
  O  O3  1  0.49252975  0.49251403  0.19542250  1
  O  O4  1  0.76744339  0.76738015  0.33305531  1
  O  O5  1  0.31626557  0.74860675  0.37118562  1
  O  O6  1  0.74868183  0.31635711  0.37120064  1
  O  O7  1  0.32629426  0.32616213  0.43672468  1
  O  O8  1  0.67370849  0.67382926  0.56330431  1
  O  O9  1  0.25127013  0.68362343  0.62880751  1
  O  O10  1  0.68375164  0.25143395  0.62885382  1
  O  O11  1  0.23271129  0.23248428  0.66697418  1
  O  O12  1  0.50742387  0.50753967  0.80456835  1
  O  O13  1  0.96756762  0.96760540  0.82753868  1
  O  O14  1  0.24223326  0.24243210  0.98640815  1
  O  O15  1  0.24353751  0.75672528  0.00001788  1
loop_
_geom_bond_atom_site_label_1
_geom_bond_atom_site_label_2
_geom_bond_distance
_geom_bond_site_symmetry_2
Ba0 O4 2.573030 1_545
Ba0 O6 2.765383 1_555
Ba0 O3 2.766226 1_555
Ba0 O5 2.790972 1_545
Ba0 O2 2.838736 1_555
Ba0 O1 2.921881 1_545
Ba0 O0 2.970201 1_554
Ba0 O15 2.986573 1_545
Ba0 O14 3.019603 1_554
Ba0 O2 3.132000 1_655
Ba0 O3 3.178827 1_545
Ba0 O7 3.205062 1_555
Ba1 O4 2.572648 1_455
Ba1 O5 2.765042 1_555
Ba1 O3 2.766347 1_555
Ba1 O6 2.790668 1_455
Ba1 O2 2.837174 1_555
Ba1 O1 2.920210 1_455
Ba1 O15 2.971069 1_555
Ba1 O0 2.988259 1_454
Ba1 O14 3.018162 1_554
Ba1 O2 3.133569 1_565
Ba1 O3 3.178583 1_455
Ba1 O7 3.206144 1_555
Ba2 O4 2.539350 1_555
Ba2 O11 2.539381 1_665
Ba2 O10 2.755386 1_565
Ba2 O9 2.755438 1_655
Ba2 O5 2.755759 1_655
Ba2 O6 2.755760 1_565
Ba2 O8 2.874544 1_555
Ba2 O7 2.875077 1_665
Ba3 O11 2.573279 1_655
Ba3 O10 2.764459 1_555
Ba3 O12 2.766705 1_555
Ba3 O9 2.790216 1_655
Ba3 O13 2.838158 1_555
Ba3 O14 2.920187 1_655
Ba3 O0 2.970949 1_555
Ba3 O15 2.988274 1_656
Ba3 O1 3.018014 1_556
Ba3 O13 3.132584 1_545
Ba3 O12 3.178260 1_655
Ba3 O8 3.205766 1_555
Ba4 O11 2.572172 1_565
Ba4 O9 2.765678 1_555
Ba4 O12 2.765733 1_555
Ba4 O10 2.790927 1_565
Ba4 O13 2.837546 1_555
Ba4 O14 2.921633 1_565
Ba4 O15 2.969947 1_556
Ba4 O0 2.986250 1_565
Ba4 O1 3.019154 1_556
Ba4 O13 3.133060 1_455
Ba4 O12 3.179273 1_565
Ba4 O8 3.204774 1_555
O0 Os0 2.037112 1_645
O0 Zr0 2.146231 1_555
O1 Os0 2.058800 1_654
O1 Zr0 2.168471 1_554
O2 Os0 1.811819 1_544
O3 Zr0 2.056371 1_554
O3 Os1 2.150986 1_555
O4 Os1 1.859811 1_555
O5 Os1 1.846416 1_555
O6 Os1 1.846385 1_555
O7 Os2 1.922357 1_555
O7 Os1 2.100193 1_555
O8 Os1 1.922453 1_555
O8 Os2 2.100247 1_555
O9 Os2 1.846359 1_555
O10 Os2 1.846491 1_555
O11 Os2 1.859675 1_555
O12 Zr0 2.056269 1_555
O12 Os2 2.150703 1_555
O13 Os0 1.811624 1_655
O14 Os0 2.058801 1_545
O14 Zr0 2.168387 1_555
O15 Os0 2.036294 1_554
O15 Zr0 2.147190 1_554
