# generated using pymatgen
data_RbFeCoP2
_symmetry_space_group_name_H-M   'P 1'
_cell_length_a   7.34515772
_cell_length_b   7.34515782
_cell_length_c   7.34515837
_cell_angle_alpha   150.86985129
_cell_angle_beta   150.86985947
_cell_angle_gamma   41.66603129
_symmetry_Int_Tables_number   1
_chemical_formula_structural   RbFeCoP2
_chemical_formula_sum   'Rb1 Fe1 Co1 P2'
_cell_volume   93.69225820
_cell_formula_units_Z   1
loop_
 _symmetry_equiv_pos_site_id
 _symmetry_equiv_pos_as_xyz
  1  'x, y, z'
loop_
 _atom_site_type_symbol
 _atom_site_label
 _atom_site_symmetry_multiplicity
 _atom_site_fract_x
 _atom_site_fract_y
 _atom_site_fract_z
 _atom_site_occupancy
  Rb  Rb0  1  0.00000000  0.00000000  0.00000000  1
  Fe  Fe0  1  0.75000000  0.25000000  0.50000000  1
  Co  Co0  1  0.25000000  0.75000000  0.50000000  1
  P  P0  1  0.33343033  0.33343033  1.00000000  1
  P  P1  1  0.66656967  0.66656967  0.00000000  1
loop_
_geom_bond_atom_site_label_1
_geom_bond_atom_site_label_2
_geom_bond_distance
_geom_bond_site_symmetry_2
Fe0 P0 2.173505 1_655
Fe0 P0 2.173506 1_554
Fe0 P1 2.173506 1_545
Fe0 P1 2.173506 1_556
Co0 P1 2.173505 1_455
Co0 P1 2.173506 1_556
Co0 P0 2.173506 1_565
Co0 P0 2.173506 1_554
P0 Rb0 3.471923 1_667
P0 Rb0 3.471923 1_656
P0 Rb0 3.471923 1_566
P0 Rb0 3.471924 1_555
P1 Rb0 3.471923 1_554
P1 Rb0 3.471923 1_565
P1 Rb0 3.471923 1_655
P1 Rb0 3.471924 1_666
