# generated using pymatgen
data_HfZrTa3Ir
_symmetry_space_group_name_H-M   'P 1'
_cell_length_a   5.38570741
_cell_length_b   5.38570722
_cell_length_c   5.38570634
_cell_angle_alpha   61.92395759
_cell_angle_beta   61.92396497
_cell_angle_gamma   61.92396592
_symmetry_Int_Tables_number   1
_chemical_formula_structural   HfZrTa3Ir
_chemical_formula_sum   'Hf1 Zr1 Ta3 Ir1'
_cell_volume   115.21834748
_cell_formula_units_Z   1
loop_
 _symmetry_equiv_pos_site_id
 _symmetry_equiv_pos_as_xyz
  1  'x, y, z'
loop_
 _atom_site_type_symbol
 _atom_site_label
 _atom_site_symmetry_multiplicity
 _atom_site_fract_x
 _atom_site_fract_y
 _atom_site_fract_z
 _atom_site_occupancy
  Hf  Hf0  1  0.24979572  0.24979572  0.24979572  1
  Zr  Zr0  1  0.99987404  0.99987404  0.99987404  1
  Ta  Ta0  1  0.62503302  0.62503302  0.12523365  1
  Ta  Ta1  1  0.62503302  0.12523365  0.62503302  1
  Ta  Ta2  1  0.12523365  0.62503302  0.62503302  1
  Ir  Ir0  1  0.62503154  0.62503154  0.62503154  1
loop_
_geom_bond_atom_site_label_1
_geom_bond_atom_site_label_2
_geom_bond_distance
_geom_bond_site_symmetry_2
Hf0 Ta1 3.148063 1_555
Hf0 Ta2 3.148063 1_555
Hf0 Ta0 3.148063 1_555
Hf0 Ta2 3.209962 1_554
Hf0 Ta1 3.209962 1_554
Hf0 Ta2 3.209963 1_545
Hf0 Ta1 3.209963 1_455
Hf0 Ta0 3.209963 1_455
Hf0 Ta0 3.209963 1_545
Hf0 Ir0 3.245443 1_554
Hf0 Ir0 3.245443 1_545
Hf0 Ir0 3.245443 1_455
Hf0 Zr0 3.248269 1_444
Hf0 Zr0 3.378106 1_445
Hf0 Zr0 3.378106 1_454
Hf0 Zr0 3.378106 1_544
Ta0 Zr0 3.142784 1_554
Ta0 Zr0 3.213447 1_454
Ta0 Zr0 3.213447 1_544
Ta1 Zr0 3.142784 1_545
Ta1 Zr0 3.213446 1_544
Ta1 Zr0 3.213447 1_445
Ta2 Zr0 3.142784 1_455
Ta2 Zr0 3.213446 1_454
Ta2 Zr0 3.213446 1_445
Ir0 Ta0 2.691757 1_555
Ir0 Ta1 2.691758 1_555
Ir0 Ta2 2.691758 1_555
Ir0 Ta0 2.693949 1_556
Ir0 Ta1 2.693950 1_565
Ir0 Ta2 2.693950 1_655
Ir0 Zr0 3.244589 1_554
Ir0 Zr0 3.244589 1_545
Ir0 Zr0 3.244590 1_455
