# generated using pymatgen
data_K2Ru(OF2)2
_symmetry_space_group_name_H-M   'P 1'
_cell_length_a   7.39674716
_cell_length_b   7.39674689
_cell_length_c   6.93231144
_cell_angle_alpha   90.00000000
_cell_angle_beta   90.00000000
_cell_angle_gamma   135.17653990
_symmetry_Int_Tables_number   1
_chemical_formula_structural   K2Ru(OF2)2
_chemical_formula_sum   'K4 Ru2 O4 F8'
_cell_volume   267.36362321
_cell_formula_units_Z   2
loop_
 _symmetry_equiv_pos_site_id
 _symmetry_equiv_pos_as_xyz
  1  'x, y, z'
loop_
 _atom_site_type_symbol
 _atom_site_label
 _atom_site_symmetry_multiplicity
 _atom_site_fract_x
 _atom_site_fract_y
 _atom_site_fract_z
 _atom_site_occupancy
  K  K0  1  0.77552745  0.22447255  0.50667447  1
  K  K1  1  0.22447255  0.77552745  0.00667447  1
  K  K2  1  0.54837121  0.45162879  0.99599325  1
  K  K3  1  0.45162879  0.54837121  0.49599325  1
  Ru  Ru0  1  0.88314270  0.11685730  0.98957401  1
  Ru  Ru1  1  0.11685730  0.88314270  0.48957401  1
  O  O0  1  0.87322095  0.64479462  0.33545008  1
  O  O1  1  0.12677905  0.35520538  0.83545008  1
  O  O2  1  0.64479462  0.87322095  0.83545008  1
  O  O3  1  0.35520538  0.12677905  0.33545008  1
  F  F0  1  0.74009526  0.25990474  0.99695250  1
  F  F1  1  0.25990474  0.74009526  0.49695250  1
  F  F2  1  0.10087559  0.35249703  0.21061781  1
  F  F3  1  0.89912441  0.64750297  0.71061781  1
  F  F4  1  0.35249703  0.10087559  0.71061781  1
  F  F5  1  0.64750297  0.89912441  0.21061781  1
  F  F6  1  0.97667777  0.02332223  0.52466899  1
  F  F7  1  0.02332223  0.97667777  0.02466899  1
loop_
_geom_bond_atom_site_label_1
_geom_bond_atom_site_label_2
_geom_bond_distance
_geom_bond_site_symmetry_2
K0 O0 2.900017 1_555
K0 O3 2.900018 1_555
K0 O2 3.052209 1_545
K0 O1 3.052209 1_655
K1 O1 2.900017 1_554
K1 O2 2.900018 1_554
K1 O3 3.052209 1_565
K1 O0 3.052209 1_455
K2 O2 2.883877 1_555
K2 O1 2.883877 1_555
K2 O3 2.912482 1_556
K2 O0 2.912482 1_556
K3 O3 2.883877 1_555
K3 O0 2.883877 1_555
K3 O2 2.912482 1_555
K3 O1 2.912482 1_555
O0 Ru1 1.729272 1_655
O1 Ru0 1.729272 1_455
O2 Ru0 1.729272 1_565
O3 Ru1 1.729272 1_545
F0 Ru0 1.957001 1_555
F0 K2 2.622048 1_555
F0 K1 2.828966 1_656
F0 K1 2.828966 1_546
F1 Ru1 1.957001 1_555
F1 K3 2.622048 1_555
F1 K0 2.828966 1_455
F1 K0 2.828966 1_565
F2 Ru0 1.999439 1_454
F2 K3 2.722439 1_555
F2 K0 2.769024 1_455
F2 K1 2.927043 1_555
F2 K2 3.203835 1_554
F3 Ru1 1.999439 1_655
F3 K2 2.722439 1_555
F3 K1 2.769024 1_656
F3 K0 2.927043 1_555
F3 K3 3.203835 1_555
F4 Ru1 1.999439 1_545
F4 K2 2.722439 1_555
F4 K1 2.769024 1_546
F4 K0 2.927044 1_555
F4 K3 3.203835 1_555
F5 Ru0 1.999439 1_564
F5 K3 2.722439 1_555
F5 K0 2.769024 1_565
F5 K1 2.927044 1_555
F5 K2 3.203835 1_554
F6 Ru1 1.932486 1_645
F6 K0 2.753781 1_555
F6 K3 2.847759 1_655
F6 K3 2.847759 1_545
F7 Ru0 1.932486 1_464
F7 K1 2.753781 1_555
F7 K2 2.847759 1_454
F7 K2 2.847759 1_564
