# generated using pymatgen
data_Tc6Se7Br4
_symmetry_space_group_name_H-M   'P 1'
_cell_length_a   12.06500908
_cell_length_b   12.06500980
_cell_length_c   12.06501054
_cell_angle_alpha   50.52816563
_cell_angle_beta   50.52816436
_cell_angle_gamma   50.52815909
_symmetry_Int_Tables_number   1
_chemical_formula_structural   Tc6Se7Br4
_chemical_formula_sum   'Tc12 Se14 Br8'
_cell_volume   964.25113733
_cell_formula_units_Z   2
loop_
 _symmetry_equiv_pos_site_id
 _symmetry_equiv_pos_as_xyz
  1  'x, y, z'
loop_
 _atom_site_type_symbol
 _atom_site_label
 _atom_site_symmetry_multiplicity
 _atom_site_fract_x
 _atom_site_fract_y
 _atom_site_fract_z
 _atom_site_occupancy
  Tc  Tc0  1  0.52912102  0.39152407  0.68205232  1
  Tc  Tc1  1  0.39152407  0.68205232  0.52912102  1
  Tc  Tc2  1  0.68205232  0.52912102  0.39152407  1
  Tc  Tc3  1  0.18205232  0.89152407  0.02912102  1
  Tc  Tc4  1  0.89152407  0.02912102  0.18205232  1
  Tc  Tc5  1  0.02912102  0.18205232  0.89152407  1
  Tc  Tc6  1  0.47202152  0.61015853  0.31773517  1
  Tc  Tc7  1  0.61015853  0.31773517  0.47202152  1
  Tc  Tc8  1  0.31773517  0.47202152  0.61015853  1
  Tc  Tc9  1  0.81773517  0.11015853  0.97202152  1
  Tc  Tc10  1  0.11015853  0.97202152  0.81773517  1
  Tc  Tc11  1  0.97202152  0.81773517  0.11015853  1
  Se  Se0  1  0.80606530  0.24641993  0.54126795  1
  Se  Se1  1  0.24641993  0.54126795  0.80606530  1
  Se  Se2  1  0.54126795  0.80606530  0.24641993  1
  Se  Se3  1  0.04126795  0.74641993  0.30606530  1
  Se  Se4  1  0.74641993  0.30606530  0.04126795  1
  Se  Se5  1  0.30606530  0.04126795  0.74641993  1
  Se  Se6  1  0.19365939  0.75500527  0.45784443  1
  Se  Se7  1  0.75500527  0.45784443  0.19365939  1
  Se  Se8  1  0.45784443  0.19365939  0.75500527  1
  Se  Se9  1  0.95784443  0.25500527  0.69365939  1
  Se  Se10  1  0.25500527  0.69365939  0.95784443  1
  Se  Se11  1  0.69365939  0.95784443  0.25500527  1
  Se  Se12  1  0.59780241  0.59780241  0.59780241  1
  Se  Se13  1  0.09780241  0.09780241  0.09780241  1
  Br  Br0  1  0.95210988  0.54983067  0.24873656  1
  Br  Br1  1  0.54983067  0.24873656  0.95210988  1
  Br  Br2  1  0.24873656  0.95210988  0.54983067  1
  Br  Br3  1  0.74873656  0.04983067  0.45210988  1
  Br  Br4  1  0.04983067  0.45210988  0.74873656  1
  Br  Br5  1  0.45210988  0.74873656  0.04983067  1
  Br  Br6  1  0.39860759  0.39860759  0.39860759  1
  Br  Br7  1  0.89860759  0.89860759  0.89860759  1
loop_
_geom_bond_atom_site_label_1
_geom_bond_atom_site_label_2
_geom_bond_distance
_geom_bond_site_symmetry_2
Se0 Tc7 2.456838 1_555
Se0 Tc0 2.498449 1_555
Se0 Tc2 2.500027 1_555
Se1 Tc8 2.456838 1_555
Se1 Tc1 2.498449 1_555
Se1 Tc0 2.500027 1_555
Se2 Tc6 2.456838 1_555
Se2 Tc2 2.498449 1_555
Se2 Tc1 2.500028 1_555
Se3 Tc11 2.456838 1_455
Se3 Tc3 2.498449 1_555
Se3 Tc4 2.500027 1_465
Se4 Tc9 2.456838 1_554
Se4 Tc4 2.498449 1_555
Se4 Tc5 2.500027 1_654
Se5 Tc10 2.456838 1_545
Se5 Tc5 2.498449 1_555
Se5 Tc3 2.500028 1_546
Se6 Tc1 2.487855 1_555
Se6 Tc6 2.503319 1_555
Se6 Tc8 2.509429 1_555
Se7 Tc2 2.487855 1_555
Se7 Tc7 2.503319 1_555
Se7 Tc6 2.509428 1_555
Se8 Tc0 2.487855 1_555
Se8 Tc8 2.503319 1_555
Se8 Tc7 2.509429 1_555
Se9 Tc5 2.487855 1_655
Se9 Tc9 2.503319 1_555
Se9 Tc10 2.509429 1_645
Se10 Tc3 2.487855 1_556
Se10 Tc10 2.503319 1_555
Se10 Tc11 2.509429 1_456
Se11 Tc4 2.487855 1_565
Se11 Tc11 2.503319 1_555
Se11 Tc9 2.509429 1_564
Se12 Tc1 2.499702 1_555
Se12 Tc0 2.499703 1_555
Se12 Tc2 2.499703 1_555
Se13 Tc4 2.499703 1_455
Se13 Tc3 2.499703 1_545
Se13 Tc5 2.499703 1_554
Br0 Tc11 2.628003 1_555
Br0 Tc2 2.645324 1_555
Br1 Tc9 2.628003 1_555
Br1 Tc0 2.645324 1_555
Br2 Tc10 2.628003 1_555
Br2 Tc1 2.645324 1_555
Br3 Tc7 2.628003 1_555
Br3 Tc4 2.645324 1_555
Br4 Tc8 2.628003 1_555
Br4 Tc5 2.645324 1_555
Br5 Tc6 2.628003 1_555
Br5 Tc3 2.645324 1_555
Br6 Tc7 2.619224 1_555
Br6 Tc6 2.619224 1_555
Br6 Tc8 2.619224 1_555
Br7 Tc10 2.619224 1_655
Br7 Tc9 2.619224 1_565
Br7 Tc11 2.619224 1_556
