# generated using pymatgen
data_Ag4IrRu3O14
_symmetry_space_group_name_H-M   'P 1'
_cell_length_a   7.11699807
_cell_length_b   7.11699786
_cell_length_c   7.11699901
_cell_angle_alpha   60.03543218
_cell_angle_beta   60.03542272
_cell_angle_gamma   60.03543385
_symmetry_Int_Tables_number   1
_chemical_formula_structural   Ag4IrRu3O14
_chemical_formula_sum   'Ag4 Ir1 Ru3 O14'
_cell_volume   255.10809046
_cell_formula_units_Z   1
loop_
 _symmetry_equiv_pos_site_id
 _symmetry_equiv_pos_as_xyz
  1  'x, y, z'
loop_
 _atom_site_type_symbol
 _atom_site_label
 _atom_site_symmetry_multiplicity
 _atom_site_fract_x
 _atom_site_fract_y
 _atom_site_fract_z
 _atom_site_occupancy
  Ag  Ag0  1  0.12500000  0.12500000  0.12500000  1
  Ag  Ag1  1  0.62500000  0.12500000  0.12500000  1
  Ag  Ag2  1  0.12500000  0.12500000  0.62500000  1
  Ag  Ag3  1  0.12500000  0.62500000  0.12500000  1
  Ir  Ir0  1  0.62500000  0.62500000  0.62500000  1
  Ru  Ru0  1  0.12500000  0.62500000  0.62500000  1
  Ru  Ru1  1  0.62500000  0.62500000  0.12500000  1
  Ru  Ru2  1  0.62500000  0.12500000  0.62500000  1
  O  O0  1  0.00140509  0.00140509  0.00140509  1
  O  O1  1  0.24859491  0.24859491  0.24859491  1
  O  O2  1  0.31136591  0.31136591  0.69544148  1
  O  O3  1  0.54936823  0.54936823  0.95179599  1
  O  O4  1  0.70063177  0.29820401  0.70063177  1
  O  O5  1  0.69544148  0.31136591  0.31136591  1
  O  O6  1  0.29820401  0.70063177  0.70063177  1
  O  O7  1  0.31136591  0.69544148  0.31136591  1
  O  O8  1  0.70063177  0.70063177  0.29820401  1
  O  O9  1  0.95179599  0.54936823  0.54936823  1
  O  O10  1  0.55455852  0.93863409  0.93863409  1
  O  O11  1  0.93863409  0.93863409  0.55455852  1
  O  O12  1  0.93863409  0.55455852  0.93863409  1
  O  O13  1  0.54936823  0.95179599  0.54936823  1
loop_
_geom_bond_atom_site_label_1
_geom_bond_atom_site_label_2
_geom_bond_distance
_geom_bond_site_symmetry_2
Ag0 O1 2.154055 1_555
Ag0 O0 2.154055 1_555
Ag0 O10 2.553619 1_544
Ag0 O5 2.553619 1_455
Ag0 O11 2.553619 1_445
Ag0 O2 2.553619 1_554
Ag0 O12 2.553619 1_454
Ag0 O7 2.553619 1_545
Ag1 O0 2.188378 1_655
Ag1 O1 2.188378 1_555
Ag1 O3 2.500174 1_554
Ag1 O8 2.500174 1_545
Ag1 O13 2.500174 1_545
Ag1 O4 2.500174 1_554
Ag1 O5 2.618332 1_555
Ag1 O10 2.618332 1_544
Ag2 O0 2.188378 1_556
Ag2 O1 2.188378 1_555
Ag2 O13 2.500174 1_545
Ag2 O4 2.500174 1_455
Ag2 O9 2.500174 1_455
Ag2 O6 2.500174 1_545
Ag2 O2 2.618332 1_555
Ag2 O11 2.618332 1_445
Ag3 O0 2.188378 1_565
Ag3 O1 2.188378 1_555
Ag3 O3 2.500174 1_554
Ag3 O8 2.500174 1_455
Ag3 O9 2.500174 1_455
Ag3 O6 2.500174 1_554
Ag3 O7 2.618332 1_555
Ag3 O12 2.618332 1_454
Ir0 O9 1.943483 1_555
Ir0 O6 1.943483 1_555
Ir0 O13 1.943483 1_555
Ir0 O4 1.943483 1_555
Ir0 O3 1.943483 1_555
Ir0 O8 1.943483 1_555
O2 Ru2 1.892602 1_555
O2 Ru0 1.892602 1_555
O3 Ru1 1.927188 1_556
O4 Ru2 1.927188 1_555
O5 Ru1 1.892602 1_555
O5 Ru2 1.892602 1_555
O6 Ru0 1.927188 1_555
O7 Ru1 1.892602 1_555
O7 Ru0 1.892602 1_555
O8 Ru1 1.927188 1_555
O9 Ru0 1.927188 1_655
O10 Ru1 1.892602 1_556
O10 Ru2 1.892602 1_565
O11 Ru2 1.892602 1_565
O11 Ru0 1.892602 1_655
O12 Ru1 1.892602 1_556
O12 Ru0 1.892602 1_655
O13 Ru2 1.927188 1_565
