# generated using pymatgen
data_Sc(NbSn)6
_symmetry_space_group_name_H-M   'P 1'
_cell_length_a   5.76933471
_cell_length_b   5.76933457
_cell_length_c   9.62262368
_cell_angle_alpha   90.00000000
_cell_angle_beta   90.00000000
_cell_angle_gamma   119.99999518
_symmetry_Int_Tables_number   1
_chemical_formula_structural   Sc(NbSn)6
_chemical_formula_sum   'Sc1 Nb6 Sn6'
_cell_volume   277.38030091
_cell_formula_units_Z   1
loop_
 _symmetry_equiv_pos_site_id
 _symmetry_equiv_pos_as_xyz
  1  'x, y, z'
loop_
 _atom_site_type_symbol
 _atom_site_label
 _atom_site_symmetry_multiplicity
 _atom_site_fract_x
 _atom_site_fract_y
 _atom_site_fract_z
 _atom_site_occupancy
  Sc  Sc0  1  0.00000000  0.00000000  0.00000000  1
  Nb  Nb0  1  0.50000000  0.00000000  0.75147781  1
  Nb  Nb1  1  0.50000000  0.50000000  0.75147781  1
  Nb  Nb2  1  0.00000000  0.50000000  0.75147781  1
  Nb  Nb3  1  0.50000000  0.00000000  0.24852219  1
  Nb  Nb4  1  0.50000000  0.50000000  0.24852219  1
  Nb  Nb5  1  0.00000000  0.50000000  0.24852219  1
  Sn  Sn0  1  0.00000000  0.00000000  0.68556157  1
  Sn  Sn1  1  0.00000000  0.00000000  0.31443843  1
  Sn  Sn2  1  0.33333300  0.66666700  0.50000000  1
  Sn  Sn3  1  0.66666700  0.33333300  0.50000000  1
  Sn  Sn4  1  0.33333300  0.66666700  0.00000000  1
  Sn  Sn5  1  0.66666700  0.33333300  0.00000000  1
loop_
_geom_bond_atom_site_label_1
_geom_bond_atom_site_label_2
_geom_bond_distance
_geom_bond_site_symmetry_2
Sc0 Sn1 3.025723 1_555
Sc0 Sn0 3.025723 1_554
Sc0 Sn4 3.330923 1_545
Sc0 Sn5 3.330923 1_455
Sc0 Sn4 3.330929 1_555
Sc0 Sn5 3.330929 1_445
Sc0 Sn5 3.330929 1_555
Sc0 Sn4 3.330929 1_445
Nb0 Nb1 2.884667 1_555
Nb0 Nb1 2.884667 1_545
Nb0 Nb2 2.884668 1_545
Nb0 Nb2 2.884668 1_655
Nb0 Sn5 2.914228 1_556
Nb0 Sn4 2.914228 1_546
Nb0 Sn3 2.937612 1_555
Nb0 Sn2 2.937612 1_545
Nb0 Sn0 2.953579 1_555
Nb0 Sn0 2.953579 1_655
Nb1 Nb2 2.884667 1_655
Nb1 Nb2 2.884667 1_555
Nb1 Sn5 2.914231 1_556
Nb1 Sn4 2.914231 1_556
Nb1 Sn2 2.937615 1_555
Nb1 Sn3 2.937615 1_555
Nb1 Sn0 2.953579 1_555
Nb1 Sn0 2.953579 1_665
Nb2 Sn4 2.914228 1_556
Nb2 Sn5 2.914228 1_456
Nb2 Sn2 2.937612 1_555
Nb2 Sn3 2.937612 1_455
Nb2 Sn0 2.953578 1_565
Nb2 Sn0 2.953578 1_555
Nb3 Nb4 2.884667 1_555
Nb3 Nb4 2.884667 1_545
Nb3 Nb5 2.884668 1_545
Nb3 Nb5 2.884668 1_655
Nb3 Sn5 2.914228 1_555
Nb3 Sn4 2.914228 1_545
Nb3 Sn3 2.937612 1_555
Nb3 Sn2 2.937612 1_545
Nb3 Sn1 2.953579 1_655
Nb3 Sn1 2.953579 1_555
Nb4 Nb5 2.884667 1_555
Nb4 Nb5 2.884667 1_655
Nb4 Sn4 2.914231 1_555
Nb4 Sn5 2.914231 1_555
Nb4 Sn2 2.937615 1_555
Nb4 Sn3 2.937615 1_555
Nb4 Sn1 2.953579 1_665
Nb4 Sn1 2.953579 1_555
Nb5 Sn4 2.914228 1_555
Nb5 Sn5 2.914228 1_455
Nb5 Sn2 2.937612 1_555
Nb5 Sn3 2.937612 1_455
Nb5 Sn1 2.953578 1_565
Nb5 Sn1 2.953578 1_555
Sn2 Sn3 3.330924 1_565
Sn2 Sn3 3.330924 1_455
Sn2 Sn3 3.330933 1_555
Sn4 Sn5 3.330924 1_565
Sn4 Sn5 3.330924 1_455
Sn4 Sn5 3.330933 1_555
