# generated using pymatgen
data_Ba3NbFe3(SiO7)2
_symmetry_space_group_name_H-M   'P 1'
_cell_length_a   8.70421721
_cell_length_b   8.70421721
_cell_length_c   5.31931300
_cell_angle_alpha   90.00000000
_cell_angle_beta   90.00000000
_cell_angle_gamma   119.99999402
_symmetry_Int_Tables_number   1
_chemical_formula_structural   Ba3NbFe3(SiO7)2
_chemical_formula_sum   'Ba3 Nb1 Fe3 Si2 O14'
_cell_volume   349.01624713
_cell_formula_units_Z   1
loop_
 _symmetry_equiv_pos_site_id
 _symmetry_equiv_pos_as_xyz
  1  'x, y, z'
loop_
 _atom_site_type_symbol
 _atom_site_label
 _atom_site_symmetry_multiplicity
 _atom_site_fract_x
 _atom_site_fract_y
 _atom_site_fract_z
 _atom_site_occupancy
  Ba  Ba0  1  0.57137100  0.57137100  0.00000000  1
  Ba  Ba1  1  0.42862900  0.00000000  0.00000000  1
  Ba  Ba2  1  0.00000000  0.42862900  0.00000000  1
  Nb  Nb0  1  0.00000000  0.00000000  0.00000000  1
  Fe  Fe0  1  0.00000000  0.74448600  0.50000000  1
  Fe  Fe1  1  0.25551400  0.25551400  0.50000000  1
  Fe  Fe2  1  0.74448600  0.00000000  0.50000000  1
  Si  Si0  1  0.66666700  0.33333300  0.47652400  1
  Si  Si1  1  0.33333300  0.66666700  0.52347600  1
  O  O0  1  0.17595900  0.69880400  0.64820000  1
  O  O1  1  0.52284400  0.82404100  0.64820000  1
  O  O2  1  0.47715600  0.30119600  0.35180000  1
  O  O3  1  0.88813700  0.78337300  0.77639300  1
  O  O4  1  0.33333300  0.66666700  0.22026300  1
  O  O5  1  0.11186300  0.89523600  0.22360700  1
  O  O6  1  0.30119600  0.47715600  0.64820000  1
  O  O7  1  0.21662700  0.10476400  0.77639300  1
  O  O8  1  0.10476400  0.21662700  0.22360700  1
  O  O9  1  0.66666700  0.33333300  0.77973700  1
  O  O10  1  0.82404100  0.52284400  0.35180000  1
  O  O11  1  0.69880400  0.17595900  0.35180000  1
  O  O12  1  0.78337300  0.88813700  0.22360700  1
  O  O13  1  0.89523600  0.11186300  0.77639300  1
loop_
_geom_bond_atom_site_label_1
_geom_bond_atom_site_label_2
_geom_bond_distance
_geom_bond_site_symmetry_2
Ba0 O12 2.708171 1_555
Ba0 O3 2.708171 1_554
Ba0 O2 2.788583 1_555
Ba0 O6 2.788583 1_554
Ba0 O4 2.841184 1_555
Ba0 O9 2.841184 1_554
Ba0 O1 3.073461 1_554
Ba0 O10 3.073461 1_555
Ba1 O7 2.708171 1_554
Ba1 O5 2.708171 1_545
Ba1 O1 2.788577 1_544
Ba1 O11 2.788582 1_555
Ba1 O4 2.841176 1_545
Ba1 O9 2.841178 1_554
Ba1 O2 3.073454 1_555
Ba1 O0 3.073457 1_544
Ba2 O8 2.708171 1_555
Ba2 O13 2.708171 1_454
Ba2 O10 2.788577 1_455
Ba2 O0 2.788582 1_554
Ba2 O9 2.841176 1_454
Ba2 O4 2.841178 1_555
Ba2 O6 3.073454 1_554
Ba2 O11 3.073457 1_455
Nb0 O5 2.020455 1_545
Nb0 O13 2.020455 1_454
Nb0 O7 2.020455 1_554
Nb0 O8 2.020455 1_555
Nb0 O3 2.020455 1_444
Nb0 O12 2.020455 1_445
Fe0 O3 1.885137 1_455
Fe0 O5 1.885138 1_555
Fe0 O0 1.932436 1_555
Fe0 O10 1.932442 1_455
Fe1 O8 1.885137 1_555
Fe1 O7 1.885137 1_555
Fe1 O6 1.932444 1_555
Fe1 O2 1.932444 1_555
Fe2 O12 1.885137 1_545
Fe2 O13 1.885138 1_555
Fe2 O11 1.932436 1_555
Fe2 O1 1.932442 1_545
O0 Si1 1.666728 1_555
O1 Si1 1.666728 1_555
O2 Si0 1.666728 1_555
O4 Si1 1.612885 1_555
O6 Si1 1.666728 1_555
O9 Si0 1.612885 1_555
O10 Si0 1.666728 1_555
O11 Si0 1.666728 1_555
