# generated using pymatgen
data_Rb(WO3)6
_symmetry_space_group_name_H-M   'P 1'
_cell_length_a   8.33072118
_cell_length_b   8.33123691
_cell_length_c   8.33119895
_cell_angle_alpha   127.20550745
_cell_angle_beta   125.55681103
_cell_angle_gamma   79.27257712
_symmetry_Int_Tables_number   1
_chemical_formula_structural   Rb(WO3)6
_chemical_formula_sum   'Rb1 W6 O18'
_cell_volume   362.24412952
_cell_formula_units_Z   1
loop_
 _symmetry_equiv_pos_site_id
 _symmetry_equiv_pos_as_xyz
  1  'x, y, z'
loop_
 _atom_site_type_symbol
 _atom_site_label
 _atom_site_symmetry_multiplicity
 _atom_site_fract_x
 _atom_site_fract_y
 _atom_site_fract_z
 _atom_site_occupancy
  Rb  Rb0  1  0.00000001  0.00000003  0.00000002  1
  W  W0  1  -0.00000003  -0.00000000  0.50000000  1
  W  W1  1  -0.00000003  0.49999995  -0.00000005  1
  W  W2  1  0.49999999  -0.00000000  0.00000008  1
  W  W3  1  0.49999998  0.49999997  0.49999993  1
  W  W4  1  0.25053044  0.50000631  0.75053492  1
  W  W5  1  0.74946957  0.49999372  0.24946504  1
  O  O0  1  0.74964303  0.00042108  0.25077658  1
  O  O1  1  0.64594415  0.21263955  0.07127449  1
  O  O2  1  0.14136465  0.21263449  0.56669433  1
  O  O3  1  0.96575453  0.21265002  0.75302331  1
  O  O4  1  0.45961230  0.21264778  0.24688140  1
  O  O5  1  0.64591338  0.57460533  0.43320573  1
  O  O6  1  0.14141048  0.57460499  0.92870229  1
  O  O7  1  0.25035695  0.99957888  0.74922337  1
  O  O8  1  0.25034692  0.50111398  0.25076831  1
  O  O9  1  0.74965302  0.49888602  0.74923163  1
  O  O10  1  0.35408664  0.42539466  0.56679429  1
  O  O11  1  0.85858955  0.42539504  0.07129774  1
  O  O12  1  0.03424551  0.78735006  0.24697676  1
  O  O13  1  0.50000003  0.50000002  0.00000004  1
  O  O14  1  0.00000001  0.50000001  0.50000003  1
  O  O15  1  0.54038771  0.78735227  0.75311864  1
  O  O16  1  0.35405585  0.78736039  0.92872548  1
  O  O17  1  0.85863535  0.78736547  0.43330565  1
loop_
_geom_bond_atom_site_label_1
_geom_bond_atom_site_label_2
_geom_bond_distance
_geom_bond_site_symmetry_2
O0 W2 1.905437 1_555
O0 W0 1.905448 1_655
O1 W2 1.912909 1_555
O1 W5 1.913246 1_555
O1 Rb0 3.318183 1_655
O2 W0 1.912879 1_555
O2 W4 1.913349 1_555
O2 Rb0 3.318252 1_555
O3 W0 1.912730 1_655
O3 W1 1.913301 1_656
O3 Rb0 3.315341 1_656
O4 W2 1.912728 1_555
O4 W3 1.913310 1_555
O4 Rb0 3.314957 1_555
O5 W5 1.912964 1_555
O5 W3 1.913074 1_555
O5 Rb0 3.318545 1_666
O6 W4 1.912918 1_555
O6 W1 1.913079 1_556
O6 Rb0 3.318843 1_566
O7 W2 1.905438 1_566
O7 W0 1.905448 1_565
O8 W3 1.905438 1_555
O8 W1 1.905446 1_555
O9 W3 1.905438 1_555
O9 W1 1.905447 1_656
O10 W4 1.912963 1_555
O10 W3 1.913075 1_555
O10 Rb0 3.318545 1_555
O11 W5 1.912917 1_555
O11 W1 1.913079 1_655
O11 Rb0 3.318843 1_655
O12 W0 1.912730 1_565
O12 W1 1.913302 1_555
O12 Rb0 3.315341 1_565
O13 W5 1.901392 1_555
O13 W4 1.901393 1_554
O14 W4 1.909464 1_555
O14 W5 1.909465 1_455
O15 W2 1.912729 1_566
O15 W3 1.913311 1_555
O15 Rb0 3.314958 1_666
O16 W2 1.912908 1_566
O16 W4 1.913245 1_555
O16 Rb0 3.318183 1_566
O17 W0 1.912879 1_665
O17 W5 1.913349 1_555
O17 Rb0 3.318252 1_666
