# generated using pymatgen
data_RbNaSe2O7
_symmetry_space_group_name_H-M   'P 1'
_cell_length_a   6.08117374
_cell_length_b   7.53395625
_cell_length_c   7.80529793
_cell_angle_alpha   100.13598254
_cell_angle_beta   90.93099570
_cell_angle_gamma   96.63988154
_symmetry_Int_Tables_number   1
_chemical_formula_structural   RbNaSe2O7
_chemical_formula_sum   'Rb2 Na2 Se4 O14'
_cell_volume   349.41471932
_cell_formula_units_Z   2
loop_
 _symmetry_equiv_pos_site_id
 _symmetry_equiv_pos_as_xyz
  1  'x, y, z'
loop_
 _atom_site_type_symbol
 _atom_site_label
 _atom_site_symmetry_multiplicity
 _atom_site_fract_x
 _atom_site_fract_y
 _atom_site_fract_z
 _atom_site_occupancy
  Rb  Rb0  1  0.20201014  0.78239634  0.42625529  1
  Rb  Rb1  1  0.79798986  0.21760366  0.57374471  1
  Na  Na0  1  0.81283310  0.35244898  0.10430863  1
  Na  Na1  1  0.18716790  0.64755102  0.89569137  1
  Se  Se0  1  0.71291783  0.82887912  0.09284489  1
  Se  Se1  1  0.30924999  0.28744746  0.31917971  1
  Se  Se2  1  0.69074901  0.71255254  0.68082029  1
  Se  Se3  1  0.28708317  0.17112088  0.90715511  1
  O  O0  1  0.27734626  0.11634897  0.12380440  1
  O  O1  1  0.89701466  0.68738613  0.09923841  1
  O  O2  1  0.46110535  0.73801212  0.11145261  1
  O  O3  1  0.78087967  0.03106749  0.20502549  1
  O  O4  1  0.54985069  0.40417227  0.31176252  1
  O  O5  1  0.09879200  0.40214253  0.31375283  1
  O  O6  1  0.29349636  0.16128421  0.46820542  1
  O  O7  1  0.70650464  0.83871579  0.53179458  1
  O  O8  1  0.90120800  0.59785747  0.68624717  1
  O  O9  1  0.45015031  0.59582773  0.68823848  1
  O  O10  1  0.21911933  0.96893251  0.79497451  1
  O  O11  1  0.53889465  0.26198788  0.88854739  1
  O  O12  1  0.10298634  0.31261387  0.90076159  1
  O  O13  1  0.72265474  0.88365203  0.87619560  1
loop_
_geom_bond_atom_site_label_1
_geom_bond_atom_site_label_2
_geom_bond_distance
_geom_bond_site_symmetry_2
Na0 O11 2.306085 1_554
Na0 O4 2.310312 1_555
Na0 O5 2.319115 1_655
Na0 O12 2.402765 1_654
Na0 O1 2.523541 1_555
Na0 O3 2.661659 1_555
Na1 O2 2.306081 1_556
Na1 O9 2.310307 1_555
Na1 O8 2.319119 1_455
Na1 O1 2.402765 1_456
Na1 O12 2.523541 1_555
Na1 O10 2.661659 1_555
O0 Se1 1.807059 1_555
O0 Se3 1.810114 1_554
O1 Se0 1.638621 1_555
O1 Rb0 3.059990 1_655
O2 Se0 1.623106 1_555
O2 Rb0 2.930918 1_555
O3 Se0 1.622055 1_545
O3 Rb1 2.966717 1_555
O4 Se1 1.624985 1_555
O4 Rb1 3.136241 1_555
O5 Se1 1.628900 1_555
O5 Rb0 2.837791 1_555
O5 Rb1 3.150030 1_455
O6 Se1 1.623996 1_555
O6 Rb0 2.804084 1_545
O6 Rb1 3.124824 1_555
O6 Rb1 3.192442 1_455
O7 Se2 1.623996 1_555
O7 Rb1 2.804084 1_565
O7 Rb0 3.124830 1_555
O7 Rb0 3.192436 1_655
O8 Se2 1.628906 1_555
O8 Rb1 2.837791 1_555
O8 Rb0 3.150030 1_655
O9 Se2 1.624976 1_555
O9 Rb0 3.136250 1_555
O10 Se3 1.622057 1_565
O10 Rb0 2.966718 1_555
O11 Se3 1.623101 1_555
O11 Rb1 2.930918 1_555
O12 Se3 1.638621 1_555
O12 Rb1 3.059993 1_455
O13 Se2 1.807063 1_555
O13 Se0 1.810117 1_556
