# generated using pymatgen
data_Ta6Si6TcMo5
_symmetry_space_group_name_H-M   'P 1'
_cell_length_a   7.65361910
_cell_length_b   7.65320896
_cell_length_c   7.65320907
_cell_angle_alpha   126.50170478
_cell_angle_beta   128.70345943
_cell_angle_gamma   77.28167223
_symmetry_Int_Tables_number   1
_chemical_formula_structural   Ta6Si6TcMo5
_chemical_formula_sum   'Ta6 Si6 Tc1 Mo5'
_cell_volume   272.85664232
_cell_formula_units_Z   1
loop_
 _symmetry_equiv_pos_site_id
 _symmetry_equiv_pos_as_xyz
  1  'x, y, z'
loop_
 _atom_site_type_symbol
 _atom_site_label
 _atom_site_symmetry_multiplicity
 _atom_site_fract_x
 _atom_site_fract_y
 _atom_site_fract_z
 _atom_site_occupancy
  Ta  Ta0  1  0.54634715  0.09595239  0.04781976  1
  Ta  Ta1  1  0.45365285  0.50147261  0.54960424  1
  Ta  Ta2  1  0.95178479  0.50147767  0.04766354  1
  Ta  Ta3  1  0.04821521  0.09587775  0.54969188  1
  Ta  Ta4  1  0.74893270  0.89445174  0.64332867  1
  Ta  Ta5  1  0.25106730  0.89439698  0.14552004  1
  Si  Si0  1  0.33381221  0.83191983  0.49809450  1
  Si  Si1  1  0.66618779  0.16428129  0.49810762  1
  Si  Si2  1  0.83542252  0.83603885  0.00045667  1
  Si  Si3  1  0.16457748  0.16503315  0.00061532  1
  Si  Si4  1  0.75074341  0.49225985  0.24297104  1
  Si  Si5  1  0.24925659  0.49222863  0.74151745  1
  Tc  Tc0  1  1.00000000  0.23785099  0.23785099  1
  Mo  Mo0  1  0.12883909  0.75411178  0.62529043  1
  Mo  Mo1  1  0.87116091  0.49644935  0.62527170  1
  Mo  Mo2  1  0.62923417  0.75531317  0.12604762  1
  Mo  Mo3  1  0.37076583  0.49681345  0.12608001  1
  Mo  Mo4  1  0.50000000  0.23606753  0.73606753  1
loop_
_geom_bond_atom_site_label_1
_geom_bond_atom_site_label_2
_geom_bond_distance
_geom_bond_site_symmetry_2
Ta0 Tc0 2.969205 1_555
Ta1 Tc0 2.969207 1_455
Ta2 Tc0 2.969793 1_555
Ta3 Tc0 2.969792 1_455
Ta4 Tc0 2.892285 1_566
Ta5 Tc0 2.892279 1_465
Si0 Ta1 2.665514 1_555
Si0 Ta2 2.665968 1_455
Si0 Ta5 2.678662 1_555
Si0 Ta4 2.679405 1_555
Si0 Ta3 2.683448 1_565
Si0 Ta0 2.684066 1_566
Si1 Ta0 2.665522 1_555
Si1 Ta3 2.665971 1_655
Si1 Ta4 2.678656 1_545
Si1 Ta5 2.679400 1_545
Si1 Ta2 2.683455 1_556
Si1 Ta1 2.684072 1_555
Si2 Tc0 2.557503 1_565
Si2 Ta4 2.677500 1_554
Si2 Ta5 2.677859 1_655
Si2 Ta2 2.678386 1_555
Si2 Ta1 2.678544 1_554
Si2 Ta0 2.681517 1_565
Si2 Ta3 2.682523 1_665
Si3 Tc0 2.557507 1_455
Si3 Ta5 2.677496 1_545
Si3 Ta4 2.677859 1_444
Si3 Ta3 2.678386 1_554
Si3 Ta0 2.678540 1_555
Si3 Ta1 2.681519 1_555
Si3 Ta2 2.682533 1_455
Si4 Tc0 2.408131 1_555
Si4 Ta0 2.766805 1_555
Si4 Ta2 2.766995 1_555
Si4 Ta4 2.770722 1_555
Si5 Tc0 2.408137 1_455
Si5 Ta1 2.766815 1_555
Si5 Ta3 2.767002 1_555
Si5 Ta5 2.770722 1_556
Mo0 Si5 2.437222 1_555
Mo0 Si4 2.437226 1_455
Mo0 Si0 2.602709 1_555
Mo0 Si3 2.620131 1_566
Mo0 Ta3 2.863589 1_565
Mo0 Ta0 2.864603 1_566
Mo0 Ta4 2.928756 1_455
Mo0 Ta5 2.928906 1_556
Mo0 Ta1 2.933615 1_555
Mo0 Ta2 2.934381 1_455
Mo1 Si5 2.437221 1_655
Mo1 Si4 2.437227 1_555
Mo1 Si1 2.602707 1_555
Mo1 Si2 2.620147 1_556
Mo1 Ta2 2.863591 1_556
Mo1 Ta1 2.864601 1_555
Mo1 Ta5 2.928769 1_656
Mo1 Ta4 2.928913 1_555
Mo1 Ta0 2.933605 1_555
Mo1 Ta3 2.934374 1_655
Mo2 Si4 2.448820 1_555
Mo2 Si5 2.449085 1_554
Mo2 Si1 2.600790 1_565
Mo2 Si2 2.613151 1_555
Mo2 Ta0 2.865469 1_565
Mo2 Ta3 2.865813 1_665
Mo2 Ta4 2.919659 1_555
Mo2 Ta5 2.920037 1_555
Mo2 Ta1 2.929461 1_554
Mo2 Ta2 2.929518 1_555
Mo3 Si5 2.448825 1_554
Mo3 Si4 2.449091 1_555
Mo3 Si0 2.600790 1_555
Mo3 Si3 2.613149 1_555
Mo3 Ta1 2.865454 1_555
Mo3 Ta2 2.865812 1_455
Mo3 Ta5 2.919667 1_555
Mo3 Ta4 2.920032 1_555
Mo3 Ta0 2.929453 1_555
Mo3 Ta3 2.929526 1_554
Mo4 Si4 2.423683 1_556
Mo4 Si5 2.423688 1_555
Mo4 Si1 2.575868 1_555
Mo4 Si0 2.575870 1_545
Mo4 Ta5 2.873885 1_545
Mo4 Ta4 2.873890 1_545
Mo4 Ta0 2.964147 1_556
Mo4 Ta1 2.964154 1_555
Mo4 Ta3 2.964261 1_555
Mo4 Ta2 2.964262 1_556
