# generated using pymatgen
data_CdTcRuCl10
_symmetry_space_group_name_H-M   'P 1'
_cell_length_a   9.67322652
_cell_length_b   9.67322491
_cell_length_c   12.11257101
_cell_angle_alpha   86.78446131
_cell_angle_beta   86.78446183
_cell_angle_gamma   141.04334405
_symmetry_Int_Tables_number   1
_chemical_formula_structural   CdTcRuCl10
_chemical_formula_sum   'Cd2 Tc2 Ru2 Cl20'
_cell_volume   702.44362243
_cell_formula_units_Z   2
loop_
 _symmetry_equiv_pos_site_id
 _symmetry_equiv_pos_as_xyz
  1  'x, y, z'
loop_
 _atom_site_type_symbol
 _atom_site_label
 _atom_site_symmetry_multiplicity
 _atom_site_fract_x
 _atom_site_fract_y
 _atom_site_fract_z
 _atom_site_occupancy
  Cd  Cd0  1  0.05372183  0.94627817  0.75000000  1
  Cd  Cd1  1  0.94627817  0.05372183  0.25000000  1
  Tc  Tc0  1  0.44815398  0.55184602  0.75000000  1
  Tc  Tc1  1  0.55184602  0.44815398  0.25000000  1
  Ru  Ru0  1  0.25335452  0.74664548  0.75000000  1
  Ru  Ru1  1  0.74664548  0.25335452  0.25000000  1
  Cl  Cl0  1  0.75448236  0.45819138  0.36359022  1
  Cl  Cl1  1  0.54180862  0.24551764  0.13640978  1
  Cl  Cl2  1  0.24551764  0.54180862  0.63640978  1
  Cl  Cl3  1  0.45819138  0.75448236  0.86359022  1
  Cl  Cl4  1  0.88389057  0.78511008  0.13513061  1
  Cl  Cl5  1  0.21488992  0.11610943  0.36486939  1
  Cl  Cl6  1  0.11610943  0.21488992  0.86486939  1
  Cl  Cl7  1  0.78511008  0.88389057  0.63513061  1
  Cl  Cl8  1  0.06668324  0.57705474  0.14430973  1
  Cl  Cl9  1  0.42294526  0.93331676  0.35569027  1
  Cl  Cl10  1  0.93331676  0.42294526  0.85569027  1
  Cl  Cl11  1  0.57705474  0.06668324  0.64430973  1
  Cl  Cl12  1  0.57977667  0.65132226  0.36692926  1
  Cl  Cl13  1  0.34867774  0.42022333  0.13307074  1
  Cl  Cl14  1  0.42022333  0.34867774  0.63307074  1
  Cl  Cl15  1  0.65132226  0.57977667  0.86693026  1
  Cl  Cl16  1  0.94376238  0.26953174  0.36574780  1
  Cl  Cl17  1  0.73046826  0.05623762  0.13425220  1
  Cl  Cl18  1  0.05623762  0.73046826  0.63425220  1
  Cl  Cl19  1  0.26953174  0.94376238  0.86574780  1
loop_
_geom_bond_atom_site_label_1
_geom_bond_atom_site_label_2
_geom_bond_distance
_geom_bond_site_symmetry_2
Cd0 Cl18 2.593783 1_555
Cd0 Cl19 2.593783 1_555
Cd0 Cl14 2.661268 1_565
Cd0 Cl15 2.661273 1_455
Cd0 Cl6 2.666929 1_565
Cd0 Cl7 2.666930 1_455
Cd1 Cl16 2.593783 1_555
Cd1 Cl17 2.593783 1_555
Cd1 Cl12 2.661268 1_545
Cd1 Cl13 2.661268 1_655
Cd1 Cl4 2.666929 1_545
Cd1 Cl5 2.666930 1_655
Cl0 Tc1 2.401285 1_555
Cl0 Ru1 2.430796 1_555
Cl1 Tc1 2.401284 1_555
Cl1 Ru1 2.430796 1_555
Cl2 Tc0 2.401285 1_555
Cl2 Ru0 2.430796 1_555
Cl3 Tc0 2.401284 1_555
Cl3 Ru0 2.430796 1_555
Cl4 Tc1 2.363105 1_555
Cl5 Tc1 2.363105 1_555
Cl6 Tc0 2.363105 1_555
Cl7 Tc0 2.363105 1_555
Cl8 Ru1 2.248805 1_455
Cl9 Ru1 2.248805 1_565
Cl10 Ru0 2.248805 1_655
Cl11 Ru0 2.248805 1_545
Cl12 Tc1 2.338953 1_555
Cl13 Tc1 2.338953 1_555
Cl14 Tc0 2.338953 1_555
Cl15 Tc0 2.338961 1_555
Cl16 Ru1 2.342281 1_555
Cl17 Ru1 2.342281 1_555
Cl18 Ru0 2.342281 1_555
Cl19 Ru0 2.342281 1_555
