# generated using pymatgen
data_MgSn13(RuRh)3
_symmetry_space_group_name_H-M   'P 1'
_cell_length_a   8.13885412
_cell_length_b   8.13468478
_cell_length_c   8.13468357
_cell_angle_alpha   109.73543203
_cell_angle_beta   110.02580951
_cell_angle_gamma   108.63510133
_symmetry_Int_Tables_number   1
_chemical_formula_structural   MgSn13(RuRh)3
_chemical_formula_sum   'Mg1 Sn13 Ru3 Rh3'
_cell_volume   414.63151191
_cell_formula_units_Z   1
loop_
 _symmetry_equiv_pos_site_id
 _symmetry_equiv_pos_as_xyz
  1  'x, y, z'
loop_
 _atom_site_type_symbol
 _atom_site_label
 _atom_site_symmetry_multiplicity
 _atom_site_fract_x
 _atom_site_fract_y
 _atom_site_fract_z
 _atom_site_occupancy
  Mg  Mg0  1  0.24953908  0.74902792  0.50051116  1
  Sn  Sn0  1  0.75311377  0.25016202  0.50295075  1
  Sn  Sn1  1  0.75585416  0.50517035  0.25068381  1
  Sn  Sn2  1  0.25518359  0.50510809  0.75007549  1
  Sn  Sn3  1  0.49757173  0.74590038  0.25418301  1
  Sn  Sn4  1  0.49757173  0.24338973  0.75167036  1
  Sn  Sn5  1  0.99985386  0.99705404  0.32278194  1
  Sn  Sn6  1  0.67315086  0.99712352  0.99436029  1
  Sn  Sn7  1  0.99985386  0.67707292  0.00279982  1
  Sn  Sn8  1  0.32303006  0.32573587  0.32297254  1
  Sn  Sn9  1  0.00142042  0.32480010  0.00097385  1
  Sn  Sn10  1  0.67315086  0.67878957  0.67602734  1
  Sn  Sn11  1  0.32303006  0.00005852  0.99729419  1
  Sn  Sn12  1  0.00142042  0.00044658  0.67662032  1
  Ru  Ru0  1  0.34521559  0.34522553  0.99998906  1
  Ru  Ru1  1  0.65507725  0.65548834  0.99958891  1
  Ru  Ru2  1  0.66146721  0.00640508  0.65506213  1
  Rh  Rh0  1  0.34764595  0.00574605  0.34189989  1
  Rh  Rh1  1  0.99342477  0.33689020  0.34301858  1
  Rh  Rh2  1  0.99342477  0.65040519  0.65653557  1
loop_
_geom_bond_atom_site_label_1
_geom_bond_atom_site_label_2
_geom_bond_distance
_geom_bond_site_symmetry_2
Mg0 Rh1 2.833800 1_455
Mg0 Rh2 2.833808 1_455
Mg0 Ru2 2.837923 1_565
Mg0 Rh0 2.850099 1_565
Mg0 Sn2 3.282600 1_555
Mg0 Sn1 3.286441 1_455
Mg0 Sn3 3.295427 1_555
Mg0 Sn4 3.295434 1_565
Sn5 Sn7 2.995819 1_555
Sn5 Sn6 3.056861 1_554
Sn5 Sn8 3.093085 1_665
Sn6 Sn9 3.082146 1_666
Sn7 Sn9 2.864776 1_655
Sn8 Sn9 2.998436 1_555
Sn10 Sn8 2.865467 1_555
Sn10 Sn6 2.980388 1_555
Sn10 Sn7 3.056852 1_556
Sn10 Sn12 3.082151 1_665
Sn11 Sn6 2.865472 1_545
Sn11 Sn12 2.998431 1_555
Sn11 Sn8 3.049149 1_556
Sn11 Sn7 3.093085 1_446
Sn12 Sn5 2.864768 1_445
Sn12 Sn9 3.036750 1_556
Ru0 Sn4 2.747017 1_555
Ru0 Sn3 2.747021 1_556
Ru0 Sn11 2.747485 1_555
Ru0 Sn8 2.747498 1_556
Ru0 Sn12 2.752477 1_555
Ru0 Sn9 2.752483 1_556
Ru0 Sn2 2.781352 1_555
Ru0 Sn1 2.789728 1_556
Ru0 Ru1 2.945082 1_555
Ru1 Sn2 2.731920 1_555
Ru1 Sn1 2.742338 1_556
Ru1 Sn7 2.745444 1_556
Ru1 Sn5 2.745446 1_556
Ru1 Sn10 2.751300 1_555
Ru1 Sn6 2.751304 1_555
Ru1 Sn4 2.804560 1_555
Ru1 Sn3 2.804565 1_556
Ru2 Sn0 2.713530 1_555
Ru2 Sn9 2.729025 1_656
Ru2 Sn12 2.729025 1_655
Ru2 Sn3 2.729748 1_545
Ru2 Sn4 2.729753 1_555
Ru2 Sn6 2.756515 1_545
Ru2 Sn10 2.756523 1_545
Rh0 Sn8 2.724401 1_555
Rh0 Sn11 2.724404 1_554
Rh0 Sn7 2.757680 1_445
Rh0 Sn5 2.757683 1_445
Rh0 Sn0 2.765210 1_555
Rh0 Sn4 2.773467 1_555
Rh0 Sn3 2.773473 1_545
Rh0 Ru2 2.922165 1_555
Rh1 Sn5 2.731864 1_545
Rh1 Sn0 2.737970 1_555
Rh1 Sn6 2.741560 1_544
Rh1 Sn1 2.750996 1_555
Rh1 Sn2 2.760629 1_655
Rh1 Sn8 2.770629 1_655
Rh1 Sn9 2.774724 1_655
Rh1 Rh2 2.935284 1_555
Rh2 Sn7 2.731851 1_556
Rh2 Sn0 2.737968 1_555
Rh2 Sn10 2.741557 1_555
Rh2 Sn1 2.751004 1_555
Rh2 Sn2 2.760622 1_655
Rh2 Sn11 2.770633 1_665
Rh2 Sn12 2.774734 1_665
