# generated using pymatgen
data_Mn2GaIr3S8
_symmetry_space_group_name_H-M   'P 1'
_cell_length_a   7.11076103
_cell_length_b   7.11076093
_cell_length_c   7.11076119
_cell_angle_alpha   60.75218572
_cell_angle_beta   60.75218957
_cell_angle_gamma   60.75218712
_symmetry_Int_Tables_number   1
_chemical_formula_structural   Mn2GaIr3S8
_chemical_formula_sum   'Mn2 Ga1 Ir3 S8'
_cell_volume   258.54841367
_cell_formula_units_Z   1
loop_
 _symmetry_equiv_pos_site_id
 _symmetry_equiv_pos_as_xyz
  1  'x, y, z'
loop_
 _atom_site_type_symbol
 _atom_site_label
 _atom_site_symmetry_multiplicity
 _atom_site_fract_x
 _atom_site_fract_y
 _atom_site_fract_z
 _atom_site_occupancy
  Mn  Mn0  1  0.37722657  0.37722657  0.37722657  1
  Mn  Mn1  1  0.62277343  0.62277343  0.62277343  1
  Ga  Ga0  1  0.00000000  0.00000000  0.00000000  1
  Ir  Ir0  1  0.50000000  0.00000000  0.00000000  1
  Ir  Ir1  1  0.00000000  0.00000000  0.50000000  1
  Ir  Ir2  1  0.00000000  0.50000000  0.00000000  1
  S  S0  1  0.23540576  0.23540576  0.23540576  1
  S  S1  1  0.78966790  0.24104716  0.24104716  1
  S  S2  1  0.24104716  0.24104716  0.78966790  1
  S  S3  1  0.24104716  0.78966790  0.24104716  1
  S  S4  1  0.76459424  0.76459424  0.76459424  1
  S  S5  1  0.21033210  0.75895284  0.75895284  1
  S  S6  1  0.75895284  0.75895284  0.21033210  1
  S  S7  1  0.75895284  0.21033210  0.75895284  1
loop_
_geom_bond_atom_site_label_1
_geom_bond_atom_site_label_2
_geom_bond_distance
_geom_bond_site_symmetry_2
Mn0 S3 2.417145 1_555
Mn0 S1 2.417146 1_555
Mn0 S2 2.417146 1_555
Mn0 S0 2.456062 1_555
Mn1 S7 2.417145 1_555
Mn1 S5 2.417146 1_555
Mn1 S6 2.417146 1_555
Mn1 S4 2.456062 1_555
Ga0 S3 2.444066 1_545
Ga0 S7 2.444066 1_454
Ga0 S2 2.444066 1_554
Ga0 S6 2.444066 1_445
Ga0 S1 2.444066 1_455
Ga0 S5 2.444066 1_544
Ir0 S6 2.380618 1_545
Ir0 S2 2.380618 1_554
Ir0 S7 2.380618 1_554
Ir0 S3 2.380618 1_545
Ir0 S0 2.393087 1_555
Ir0 S4 2.393087 1_544
Ir1 S5 2.380618 1_545
Ir1 S1 2.380618 1_455
Ir1 S7 2.380618 1_455
Ir1 S3 2.380618 1_545
Ir1 S0 2.393087 1_555
Ir1 S4 2.393087 1_445
Ir2 S5 2.380618 1_554
Ir2 S1 2.380618 1_455
Ir2 S6 2.380618 1_455
Ir2 S2 2.380618 1_554
Ir2 S0 2.393087 1_555
Ir2 S4 2.393087 1_454
