# generated using pymatgen
data_Na2Hg2(TeO4)3
_symmetry_space_group_name_H-M   'P 1'
_cell_length_a   6.26485840
_cell_length_b   6.47434510
_cell_length_c   14.09943342
_cell_angle_alpha   65.13241235
_cell_angle_beta   90.00000000
_cell_angle_gamma   90.00000000
_symmetry_Int_Tables_number   1
_chemical_formula_structural   Na2Hg2(TeO4)3
_chemical_formula_sum   'Na4 Hg4 Te6 O24'
_cell_volume   518.86106711
_cell_formula_units_Z   2
loop_
 _symmetry_equiv_pos_site_id
 _symmetry_equiv_pos_as_xyz
  1  'x, y, z'
loop_
 _atom_site_type_symbol
 _atom_site_label
 _atom_site_symmetry_multiplicity
 _atom_site_fract_x
 _atom_site_fract_y
 _atom_site_fract_z
 _atom_site_occupancy
  Na  Na0  1  0.85191812  0.88421985  0.80264984  1
  Na  Na1  1  0.64808188  0.88421985  0.30264984  1
  Na  Na2  1  0.35191812  0.11578015  0.69735016  1
  Na  Na3  1  0.14808188  0.11578015  0.19735016  1
  Hg  Hg0  1  0.54287708  0.30235713  0.39603215  1
  Hg  Hg1  1  0.95712292  0.30235713  0.89603215  1
  Hg  Hg2  1  0.04287708  0.69764287  0.10396785  1
  Hg  Hg3  1  0.45712292  0.69764287  0.60396785  1
  Te  Te0  1  0.59854761  0.40137243  0.10864989  1
  Te  Te1  1  0.09854761  0.59862757  0.39135011  1
  Te  Te2  1  0.40145239  0.59862757  0.89135011  1
  Te  Te3  1  0.50000000  0.00000000  0.00000000  1
  Te  Te4  1  0.90145239  0.40137243  0.60864989  1
  Te  Te5  1  0.00000000  0.00000000  0.50000000  1
  O  O0  1  0.22373822  0.99446435  0.05856796  1
  O  O1  1  0.87072970  0.11079574  0.59599470  1
  O  O2  1  0.77626178  0.00553565  0.94143204  1
  O  O3  1  0.88576519  0.38563279  0.14963403  1
  O  O4  1  0.27626178  0.99446435  0.55856796  1
  O  O5  1  0.06337933  0.30009341  0.38947845  1
  O  O6  1  0.37072970  0.88920426  0.90400530  1
  O  O7  1  0.31735476  0.44543330  0.03987219  1
  O  O8  1  0.02553738  0.24375065  0.73722835  1
  O  O9  1  0.43662067  0.30009341  0.88947845  1
  O  O10  1  0.72373822  0.00553565  0.44143204  1
  O  O11  1  0.62927030  0.11079574  0.09599470  1
  O  O12  1  0.56337933  0.69990659  0.11052155  1
  O  O13  1  0.47446262  0.24375065  0.23722835  1
  O  O14  1  0.93662067  0.69990659  0.61052155  1
  O  O15  1  0.52553738  0.75624935  0.76277165  1
  O  O16  1  0.18264524  0.44543330  0.53987219  1
  O  O17  1  0.38576519  0.61436721  0.35036597  1
  O  O18  1  0.11423481  0.61436721  0.85036597  1
  O  O19  1  0.12927030  0.88920426  0.40400530  1
  O  O20  1  0.81735476  0.55456670  0.46012781  1
  O  O21  1  0.68264524  0.55456670  0.96012781  1
  O  O22  1  0.97446262  0.75624935  0.26277165  1
  O  O23  1  0.61423481  0.38563279  0.64963403  1
loop_
_geom_bond_atom_site_label_1
_geom_bond_atom_site_label_2
_geom_bond_distance
_geom_bond_site_symmetry_2
Na0 O18 2.284110 1_655
Na0 O15 2.361208 1_555
Na0 O8 2.376219 1_665
Na0 O2 2.441936 1_565
Na0 O21 2.573740 1_555
Na0 O1 2.657202 1_565
Na1 O17 2.284110 1_555
Na1 O22 2.361208 1_555
Na1 O13 2.376219 1_565
Na1 O10 2.441936 1_565
Na1 O20 2.573740 1_555
Na1 O11 2.657202 1_565
Na2 O23 2.284110 1_555
Na2 O8 2.361208 1_555
Na2 O15 2.376219 1_545
Na2 O4 2.441936 1_545
Na2 O16 2.573740 1_555
Na2 O6 2.657202 1_545
Na3 O3 2.284110 1_455
Na3 O13 2.361208 1_555
Na3 O22 2.376219 1_445
Na3 O0 2.441936 1_545
Na3 O7 2.573740 1_555
Na3 O19 2.657202 1_545
Hg0 O10 2.086152 1_555
Hg0 O17 2.090483 1_555
Hg0 O13 2.460798 1_555
Hg1 O2 2.086152 1_555
Hg1 O18 2.090483 1_655
Hg1 O8 2.460798 1_655
Hg2 O0 2.086152 1_555
Hg2 O3 2.090483 1_455
Hg2 O22 2.460798 1_455
Hg3 O4 2.086152 1_555
Hg3 O23 2.090483 1_555
Hg3 O15 2.460798 1_555
O0 Te3 1.911482 1_565
O1 Te5 1.954195 1_655
O1 Te4 1.972428 1_555
O2 Te3 1.911482 1_556
O3 Te0 1.879503 1_555
O4 Te5 1.911482 1_565
O5 Te5 1.953064 1_555
O5 Te1 1.956503 1_555
O6 Te3 1.954195 1_566
O6 Te2 1.972428 1_555
O7 Te0 1.972927 1_555
O7 Te2 1.974751 1_554
O8 Te4 1.837472 1_455
O9 Te3 1.953064 1_556
O9 Te2 1.956503 1_555
O10 Te5 1.911482 1_655
O11 Te3 1.954195 1_555
O11 Te0 1.972428 1_555
O12 Te3 1.953064 1_565
O12 Te0 1.956503 1_555
O13 Te0 1.837472 1_555
O14 Te5 1.953064 1_665
O14 Te4 1.956503 1_555
O15 Te2 1.837472 1_555
O16 Te4 1.972927 1_455
O16 Te1 1.974751 1_555
O17 Te1 1.879503 1_555
O18 Te2 1.879503 1_555
O19 Te5 1.954195 1_565
O19 Te1 1.972428 1_555
O20 Te1 1.972927 1_655
O20 Te4 1.974751 1_555
O21 Te2 1.972927 1_555
O21 Te0 1.974751 1_556
O22 Te1 1.837472 1_655
O23 Te4 1.879503 1_555
