# generated using pymatgen
data_Rb3Rh2Cl9
_symmetry_space_group_name_H-M   'P 1'
_cell_length_a   6.99252368
_cell_length_b   6.99252318
_cell_length_c   17.91573177
_cell_angle_alpha   90.00000000
_cell_angle_beta   90.00000000
_cell_angle_gamma   120.00000236
_symmetry_Int_Tables_number   1
_chemical_formula_structural   Rb3Rh2Cl9
_chemical_formula_sum   'Rb6 Rh4 Cl18'
_cell_volume   758.63527716
_cell_formula_units_Z   2
loop_
 _symmetry_equiv_pos_site_id
 _symmetry_equiv_pos_as_xyz
  1  'x, y, z'
loop_
 _atom_site_type_symbol
 _atom_site_label
 _atom_site_symmetry_multiplicity
 _atom_site_fract_x
 _atom_site_fract_y
 _atom_site_fract_z
 _atom_site_occupancy
  Rb  Rb0  1  0.00000000  0.00000000  0.25000000  1
  Rb  Rb1  1  0.00000000  0.00000000  0.75000000  1
  Rb  Rb2  1  0.33333300  0.66666700  0.06712703  1
  Rb  Rb3  1  0.66666700  0.33333300  0.56712703  1
  Rb  Rb4  1  0.66666700  0.33333300  0.93287297  1
  Rb  Rb5  1  0.33333300  0.66666700  0.43287297  1
  Rh  Rh0  1  0.33333300  0.66666700  0.83586362  1
  Rh  Rh1  1  0.66666700  0.33333300  0.33586362  1
  Rh  Rh2  1  0.66666700  0.33333300  0.16413638  1
  Rh  Rh3  1  0.33333300  0.66666700  0.66413638  1
  Cl  Cl0  1  0.51319789  0.02639479  0.25000000  1
  Cl  Cl1  1  0.48680211  0.51319789  0.75000000  1
  Cl  Cl2  1  0.02639479  0.51319789  0.75000000  1
  Cl  Cl3  1  0.97360521  0.48680211  0.25000000  1
  Cl  Cl4  1  0.51319789  0.48680211  0.25000000  1
  Cl  Cl5  1  0.48680211  0.97360521  0.75000000  1
  Cl  Cl6  1  0.82405734  0.64811369  0.09141912  1
  Cl  Cl7  1  0.17594266  0.82405734  0.59141912  1
  Cl  Cl8  1  0.64811369  0.82405734  0.59141912  1
  Cl  Cl9  1  0.35188631  0.17594266  0.09141912  1
  Cl  Cl10  1  0.82405734  0.17594266  0.09141912  1
  Cl  Cl11  1  0.17594266  0.35188631  0.90858088  1
  Cl  Cl12  1  0.17594266  0.82405734  0.90858088  1
  Cl  Cl13  1  0.17594266  0.35188631  0.59141912  1
  Cl  Cl14  1  0.64811369  0.82405734  0.90858088  1
  Cl  Cl15  1  0.35188631  0.17594266  0.40858088  1
  Cl  Cl16  1  0.82405734  0.64811369  0.40858088  1
  Cl  Cl17  1  0.82405734  0.17594266  0.40858088  1
loop_
_geom_bond_atom_site_label_1
_geom_bond_atom_site_label_2
_geom_bond_distance
_geom_bond_site_symmetry_2
Cl0 Rh1 2.412729 1_555
Cl0 Rh2 2.412729 1_555
Cl0 Rb0 3.499910 1_655
Cl0 Rb0 3.499917 1_555
Cl1 Rh0 2.412729 1_555
Cl1 Rh3 2.412729 1_555
Cl1 Rb1 3.499914 1_555
Cl1 Rb1 3.499914 1_665
Cl2 Rh0 2.412729 1_555
Cl2 Rh3 2.412729 1_555
Cl2 Rb1 3.499910 1_565
Cl2 Rb1 3.499917 1_555
Cl3 Rh1 2.412729 1_555
Cl3 Rh2 2.412729 1_555
Cl3 Rb0 3.499910 1_655
Cl3 Rb0 3.499917 1_665
Cl4 Rh1 2.412729 1_555
Cl4 Rh2 2.412729 1_555
Cl4 Rb0 3.499914 1_665
Cl4 Rb0 3.499914 1_555
Cl5 Rh0 2.412729 1_555
Cl5 Rh3 2.412729 1_555
Cl5 Rb1 3.499910 1_565
Cl5 Rb1 3.499917 1_665
Cl6 Rh2 2.308877 1_555
Cl6 Rb4 3.420810 1_554
Cl6 Rb2 3.525029 1_655
Cl6 Rb2 3.525043 1_555
Cl6 Rb0 3.551425 1_665
Cl7 Rh3 2.308877 1_555
Cl7 Rb5 3.420810 1_555
Cl7 Rb3 3.525035 1_565
Cl7 Rb3 3.525035 1_455
Cl7 Rb1 3.551422 1_565
Cl8 Rh3 2.308877 1_555
Cl8 Rb5 3.420810 1_555
Cl8 Rb3 3.525029 1_565
Cl8 Rb3 3.525043 1_555
Cl8 Rb1 3.551425 1_665
Cl9 Rh2 2.308877 1_555
Cl9 Rb4 3.420810 1_554
Cl9 Rb2 3.525029 1_545
Cl9 Rb2 3.525043 1_555
Cl9 Rb0 3.551425 1_555
Cl10 Rh2 2.308877 1_555
Cl10 Rb4 3.420810 1_554
Cl10 Rb2 3.525035 1_545
Cl10 Rb2 3.525035 1_655
Cl10 Rb0 3.551422 1_655
Cl11 Rh0 2.308877 1_555
Cl11 Rb2 3.420810 1_556
Cl11 Rb4 3.525029 1_455
Cl11 Rb4 3.525043 1_555
Cl11 Rb1 3.551425 1_555
Cl12 Rh0 2.308877 1_555
Cl12 Rb2 3.420810 1_556
Cl12 Rb4 3.525035 1_565
Cl12 Rb4 3.525035 1_455
Cl12 Rb1 3.551422 1_565
Cl13 Rh3 2.308877 1_555
Cl13 Rb5 3.420810 1_555
Cl13 Rb3 3.525029 1_455
Cl13 Rb3 3.525043 1_555
Cl13 Rb1 3.551425 1_555
Cl14 Rh0 2.308877 1_555
Cl14 Rb2 3.420810 1_556
Cl14 Rb4 3.525029 1_565
Cl14 Rb4 3.525043 1_555
Cl14 Rb1 3.551425 1_665
Cl15 Rh1 2.308877 1_555
Cl15 Rb3 3.420810 1_555
Cl15 Rb5 3.525029 1_545
Cl15 Rb5 3.525043 1_555
Cl15 Rb0 3.551425 1_555
Cl16 Rh1 2.308877 1_555
Cl16 Rb3 3.420810 1_555
Cl16 Rb5 3.525029 1_655
Cl16 Rb5 3.525043 1_555
Cl16 Rb0 3.551425 1_665
Cl17 Rh1 2.308877 1_555
Cl17 Rb3 3.420810 1_555
Cl17 Rb5 3.525035 1_545
Cl17 Rb5 3.525035 1_655
Cl17 Rb0 3.551422 1_655
