# generated using pymatgen
data_SrGa4Ni9
_symmetry_space_group_name_H-M   'P 1'
_cell_length_a   8.09506865
_cell_length_b   8.09506950
_cell_length_c   8.09506940
_cell_angle_alpha   120.99704026
_cell_angle_beta   120.99703890
_cell_angle_gamma   88.28157973
_symmetry_Int_Tables_number   1
_chemical_formula_structural   SrGa4Ni9
_chemical_formula_sum   'Sr2 Ga8 Ni18'
_cell_volume   369.26657015
_cell_formula_units_Z   2
loop_
 _symmetry_equiv_pos_site_id
 _symmetry_equiv_pos_as_xyz
  1  'x, y, z'
loop_
 _atom_site_type_symbol
 _atom_site_label
 _atom_site_symmetry_multiplicity
 _atom_site_fract_x
 _atom_site_fract_y
 _atom_site_fract_z
 _atom_site_occupancy
  Sr  Sr0  1  0.75000000  0.75000000  0.00000000  1
  Sr  Sr1  1  0.25000000  0.25000000  0.00000000  1
  Ga  Ga0  1  0.05683488  0.55683488  0.85669285  1
  Ga  Ga1  1  0.70014203  0.20014203  0.14330715  1
  Ga  Ga2  1  0.55683488  0.70014203  0.50000000  1
  Ga  Ga3  1  0.20014203  0.05683488  0.50000000  1
  Ga  Ga4  1  0.94316512  0.44316512  0.14330715  1
  Ga  Ga5  1  0.29985797  0.79985797  0.85669285  1
  Ga  Ga6  1  0.44316512  0.29985797  0.50000000  1
  Ga  Ga7  1  0.79985797  0.94316512  0.50000000  1
  Ni  Ni0  1  0.06615576  0.20463005  0.27078681  1
  Ni  Ni1  1  0.93384424  0.79536995  0.72921319  1
  Ni  Ni2  1  0.56615576  0.29536995  0.86152571  1
  Ni  Ni3  1  0.43384424  0.70463005  0.13847429  1
  Ni  Ni4  1  0.79536995  0.06615576  0.86152571  1
  Ni  Ni5  1  0.20463005  0.93384424  0.13847429  1
  Ni  Ni6  1  0.70463005  0.56615576  0.27078681  1
  Ni  Ni7  1  0.29536995  0.43384424  0.72921319  1
  Ni  Ni8  1  0.43840167  0.93840167  0.73159783  1
  Ni  Ni9  1  0.20680385  0.70680385  0.26840217  1
  Ni  Ni10  1  0.93840167  0.20680385  0.50000000  1
  Ni  Ni11  1  0.70680385  0.43840167  0.50000000  1
  Ni  Ni12  1  0.56159833  0.06159833  0.26840217  1
  Ni  Ni13  1  0.79319615  0.29319615  0.73159783  1
  Ni  Ni14  1  0.06159833  0.79319615  0.50000000  1
  Ni  Ni15  1  0.29319615  0.56159833  0.50000000  1
  Ni  Ni16  1  0.00000000  0.50000000  0.50000000  1
  Ni  Ni17  1  0.50000000  0.00000000  0.50000000  1
loop_
_geom_bond_atom_site_label_1
_geom_bond_atom_site_label_2
_geom_bond_distance
_geom_bond_site_symmetry_2
Ga0 Ni9 2.410163 1_556
Ga0 Ni13 2.440504 1_455
Ga0 Ni16 2.456995 1_555
Ga0 Ni11 2.483953 1_455
Ga0 Ni10 2.483954 1_455
Ga0 Ni3 2.487273 1_556
Ga0 Ni5 2.487273 1_556
Ga0 Ni7 2.581407 1_555
Ga0 Ni1 2.581407 1_455
Ga0 Sr0 3.290432 1_456
Ga0 Sr1 3.290432 1_556
Ga1 Ni8 2.410163 1_544
Ga1 Ni12 2.440504 1_555
Ga1 Ni16 2.456995 1_655
Ga1 Ni11 2.483954 1_555
Ga1 Ni10 2.483954 1_555
Ga1 Ni4 2.487273 1_554
Ga1 Ni2 2.487273 1_554
Ga1 Ni0 2.581400 1_655
Ga1 Ni6 2.581401 1_555
Ga1 Sr1 3.290432 1_555
Ga1 Sr0 3.290432 1_545
Ga2 Ni11 2.410163 1_555
Ga2 Ni15 2.440504 1_555
Ga2 Ni17 2.456995 1_565
Ga2 Ni9 2.483953 1_555
Ga2 Ni8 2.483953 1_555
Ga2 Ni6 2.487267 1_555
Ga2 Ni1 2.487273 1_555
Ga2 Ni4 2.581402 1_565
Ga2 Ni3 2.581402 1_555
Ga2 Sr0 3.290432 1_556
Ga2 Sr1 3.290432 1_555
Ga3 Ni10 2.410163 1_455
Ga3 Ni14 2.440504 1_545
Ga3 Ni17 2.456995 1_555
Ga3 Ni8 2.483954 1_545
Ga3 Ni9 2.483954 1_545
Ga3 Ni0 2.487267 1_555
Ga3 Ni7 2.487273 1_555
Ga3 Ni2 2.581402 1_555
Ga3 Ni5 2.581402 1_545
Ga3 Sr0 3.290432 1_445
Ga3 Sr1 3.290432 1_556
Ga4 Ni13 2.410163 1_554
Ga4 Ni9 2.440504 1_655
Ga4 Ni16 2.456995 1_655
Ga4 Ni15 2.483953 1_655
Ga4 Ni14 2.483954 1_655
Ga4 Ni2 2.487273 1_554
Ga4 Ni4 2.487273 1_554
Ga4 Ni6 2.581407 1_555
Ga4 Ni0 2.581407 1_655
Ga4 Sr1 3.290432 1_655
Ga4 Sr0 3.290432 1_555
Ga5 Ni12 2.410163 1_566
Ga5 Ni8 2.440504 1_555
Ga5 Ni16 2.456995 1_555
Ga5 Ni15 2.483954 1_555
Ga5 Ni14 2.483954 1_555
Ga5 Ni5 2.487273 1_556
Ga5 Ni3 2.487273 1_556
Ga5 Ni1 2.581400 1_455
Ga5 Ni7 2.581401 1_555
Ga5 Sr0 3.290432 1_556
Ga5 Sr1 3.290432 1_566
Ga6 Ni15 2.410163 1_555
Ga6 Ni11 2.440504 1_555
Ga6 Ni17 2.456995 1_555
Ga6 Ni13 2.483953 1_555
Ga6 Ni12 2.483953 1_555
Ga6 Ni7 2.487267 1_555
Ga6 Ni0 2.487273 1_555
Ga6 Ni5 2.581402 1_545
Ga6 Ni2 2.581402 1_555
Ga6 Sr1 3.290432 1_555
Ga6 Sr0 3.290432 1_556
Ga7 Ni14 2.410163 1_655
Ga7 Ni10 2.440504 1_565
Ga7 Ni17 2.456995 1_565
Ga7 Ni12 2.483954 1_565
Ga7 Ni13 2.483954 1_565
Ga7 Ni1 2.487267 1_555
Ga7 Ni6 2.487273 1_555
Ga7 Ni3 2.581402 1_555
Ga7 Ni4 2.581402 1_565
Ga7 Sr1 3.290432 1_666
Ga7 Sr0 3.290432 1_555
Ni0 Ni16 2.413258 1_555
Ni0 Ni5 2.424826 1_545
Ni0 Ni4 2.424830 1_454
Ni0 Ni10 2.540559 1_455
Ni0 Ni15 2.540568 1_555
Ni0 Ni7 2.584424 1_555
Ni0 Sr0 3.372948 1_445
Ni0 Sr1 3.372957 1_555
Ni1 Ni16 2.413258 1_655
Ni1 Ni4 2.424826 1_565
Ni1 Ni5 2.424830 1_656
Ni1 Ni14 2.540559 1_655
Ni1 Ni11 2.540568 1_555
Ni1 Ni6 2.584424 1_555
Ni1 Sr1 3.372948 1_666
Ni1 Sr0 3.372957 1_556
Ni2 Ni7 2.424826 1_555
Ni2 Ni6 2.424830 1_556
Ni2 Ni8 2.540566 1_545
Ni2 Ni4 2.584435 1_555
Ni2 Sr1 3.372950 1_556
Ni2 Sr0 3.372950 1_556
Ni3 Ni6 2.424826 1_555
Ni3 Ni7 2.424830 1_554
Ni3 Ni9 2.540566 1_555
Ni3 Ni5 2.584435 1_555
Ni3 Sr0 3.372950 1_555
Ni3 Sr1 3.372950 1_555
Ni4 Ni8 2.540566 1_545
Ni4 Sr1 3.372950 1_656
Ni4 Sr0 3.372950 1_546
Ni5 Ni9 2.540566 1_555
Ni5 Sr0 3.372950 1_455
Ni5 Sr1 3.372950 1_565
Ni6 Sr1 3.372947 1_555
Ni6 Sr0 3.372958 1_555
Ni7 Sr0 3.372947 1_556
Ni7 Sr1 3.372958 1_556
Ni8 Ni9 2.611312 1_555
Ni8 Sr1 3.308594 1_566
Ni8 Sr0 3.308594 1_556
Ni9 Sr0 3.308594 1_455
Ni9 Sr1 3.308594 1_555
Ni10 Ni16 2.439848 1_655
Ni10 Ni12 2.501140 1_555
Ni10 Ni13 2.501140 1_555
Ni10 Ni7 2.540568 1_655
Ni10 Ni11 2.611311 1_555
Ni10 Sr1 3.308594 1_656
Ni10 Sr0 3.308594 1_545
Ni11 Ni16 2.439848 1_655
Ni11 Ni13 2.501140 1_555
Ni11 Ni12 2.501140 1_555
Ni11 Ni6 2.540559 1_555
Ni11 Sr1 3.308594 1_555
Ni11 Sr0 3.308594 1_556
Ni12 Ni17 2.439848 1_555
Ni12 Ni5 2.540566 1_545
Ni12 Ni3 2.540566 1_545
Ni12 Ni13 2.611312 1_555
Ni12 Sr0 3.308594 1_545
Ni12 Sr1 3.308594 1_555
Ni13 Ni17 2.439848 1_555
Ni13 Ni2 2.540566 1_555
Ni13 Ni4 2.540566 1_555
Ni13 Sr1 3.308594 1_656
Ni13 Sr0 3.308594 1_556
Ni14 Ni16 2.439848 1_555
Ni14 Ni8 2.501140 1_555
Ni14 Ni9 2.501140 1_555
Ni14 Ni6 2.540568 1_455
Ni14 Ni15 2.611311 1_555
Ni14 Sr0 3.308594 1_455
Ni14 Sr1 3.308594 1_566
Ni15 Ni16 2.439848 1_555
Ni15 Ni9 2.501140 1_555
Ni15 Ni8 2.501140 1_555
Ni15 Ni7 2.540559 1_555
Ni15 Sr0 3.308594 1_556
Ni15 Sr1 3.308594 1_555
Ni16 Ni6 2.413258 1_455
Ni16 Ni7 2.413258 1_555
Ni17 Ni4 2.413261 1_555
Ni17 Ni5 2.413261 1_545
Ni17 Ni2 2.413261 1_555
Ni17 Ni3 2.413261 1_545
Ni17 Ni9 2.439848 1_545
Ni17 Ni8 2.439848 1_545
