# generated using pymatgen
data_Zr16Ir5Rh3O4
_symmetry_space_group_name_H-M   'P 1'
_cell_length_a   8.77791357
_cell_length_b   8.79072194
_cell_length_c   8.79072070
_cell_angle_alpha   59.99999359
_cell_angle_beta   59.95171324
_cell_angle_gamma   59.95171782
_symmetry_Int_Tables_number   1
_chemical_formula_structural   Zr16Ir5Rh3O4
_chemical_formula_sum   'Zr16 Ir5 Rh3 O4'
_cell_volume   479.30059032
_cell_formula_units_Z   1
loop_
 _symmetry_equiv_pos_site_id
 _symmetry_equiv_pos_as_xyz
  1  'x, y, z'
loop_
 _atom_site_type_symbol
 _atom_site_label
 _atom_site_symmetry_multiplicity
 _atom_site_fract_x
 _atom_site_fract_y
 _atom_site_fract_z
 _atom_site_occupancy
  Zr  Zr0  1  0.09418416  0.63527228  0.63527228  1
  Zr  Zr1  1  0.63429592  0.10169070  0.63200669  1
  Zr  Zr2  1  0.63429592  0.63200669  0.10169070  1
  Zr  Zr3  1  0.63429592  0.63200669  0.63200669  1
  Zr  Zr4  1  0.81294817  0.81112952  0.18796116  1
  Zr  Zr5  1  0.18971908  0.18953171  0.81037461  1
  Zr  Zr6  1  0.81294817  0.18796116  0.81112952  1
  Zr  Zr7  1  0.18971908  0.81037461  0.18953171  1
  Zr  Zr8  1  0.18971908  0.81037461  0.81037461  1
  Zr  Zr9  1  0.81294817  0.18796116  0.18796116  1
  Zr  Zr10  1  0.43545004  0.43433665  0.06510616  1
  Zr  Zr11  1  0.06846590  0.06577268  0.43287971  1
  Zr  Zr12  1  0.43545004  0.06510616  0.43433665  1
  Zr  Zr13  1  0.06846590  0.43287971  0.06577268  1
  Zr  Zr14  1  0.06846590  0.43287971  0.43287971  1
  Zr  Zr15  1  0.43545004  0.06510616  0.06510616  1
  Ir  Ir0  1  0.76018291  0.41327203  0.41327203  1
  Ir  Ir1  1  0.41133753  0.75686393  0.41589827  1
  Ir  Ir2  1  0.41133753  0.41589827  0.75686393  1
  Ir  Ir3  1  0.41133753  0.41589827  0.41589827  1
  Ir  Ir4  1  0.44653771  0.85115443  0.85115443  1
  Rh  Rh0  1  0.84792555  0.44632245  0.85287600  1
  Rh  Rh1  1  0.84792555  0.85287600  0.44632245  1
  Rh  Rh2  1  0.84792555  0.85287600  0.85287600  1
  O  O0  1  0.62492303  0.12502566  0.12502566  1
  O  O1  1  0.12458022  0.62552276  0.12494801  1
  O  O2  1  0.12458022  0.12494801  0.62552276  1
  O  O3  1  0.12458022  0.12494801  0.12494801  1
loop_
_geom_bond_atom_site_label_1
_geom_bond_atom_site_label_2
_geom_bond_distance
_geom_bond_site_symmetry_2
Ir0 Zr2 2.838514 1_555
Ir0 Zr1 2.838514 1_555
Ir0 Zr3 2.838522 1_555
Ir0 Zr14 2.888986 1_655
Ir0 Zr13 2.888990 1_655
Ir0 Zr11 2.888991 1_655
Ir0 Ir2 3.039185 1_555
Ir0 Ir1 3.039185 1_555
Ir0 Ir3 3.039189 1_555
Ir0 Zr9 3.185274 1_555
Ir0 Zr6 3.185281 1_555
Ir0 Zr4 3.185281 1_555
Ir1 Zr2 2.851492 1_555
Ir1 Zr3 2.851507 1_555
Ir1 Zr0 2.855521 1_555
Ir1 Zr11 2.867970 1_565
Ir1 Zr15 2.908828 1_565
Ir1 Zr12 2.908833 1_565
Ir1 Ir2 2.997334 1_555
Ir1 Ir3 2.997334 1_555
Ir1 Zr7 3.160652 1_555
Ir1 Zr8 3.160667 1_555
Ir1 Zr4 3.213175 1_555
Ir2 Zr1 2.851493 1_555
Ir2 Zr3 2.851507 1_555
Ir2 Zr0 2.855521 1_555
Ir2 Zr13 2.867969 1_556
Ir2 Zr15 2.908828 1_556
Ir2 Zr10 2.908833 1_556
Ir2 Ir3 2.997334 1_555
Ir2 Zr5 3.160652 1_555
Ir2 Zr8 3.160667 1_555
Ir2 Zr6 3.213175 1_555
Ir3 Zr2 2.851502 1_555
Ir3 Zr1 2.851502 1_555
Ir3 Zr0 2.855534 1_555
Ir3 Zr14 2.867970 1_555
Ir3 Zr10 2.908824 1_555
Ir3 Zr12 2.908824 1_555
Ir3 Zr5 3.160660 1_555
Ir3 Zr7 3.160660 1_555
Ir3 Zr9 3.213168 1_555
Ir4 Zr7 2.661983 1_556
Ir4 Zr5 2.661984 1_565
Ir4 Zr8 2.661989 1_555
Ir4 Zr2 2.736918 1_556
Ir4 Zr1 2.736918 1_565
Ir4 Zr3 2.736925 1_555
Rh0 Zr9 2.651766 1_556
Rh0 Zr6 2.651767 1_555
Rh0 Zr5 2.678623 1_655
Rh0 Zr2 2.713347 1_556
Rh0 Zr3 2.713347 1_555
Rh0 Zr0 2.714436 1_655
Rh1 Zr9 2.651766 1_565
Rh1 Zr4 2.651766 1_555
Rh1 Zr7 2.678623 1_655
Rh1 Zr1 2.713347 1_565
Rh1 Zr3 2.713348 1_555
Rh1 Zr0 2.714436 1_655
Rh2 Zr4 2.651766 1_556
Rh2 Zr6 2.651767 1_565
Rh2 Zr8 2.678623 1_655
Rh2 Zr2 2.713347 1_556
Rh2 Zr1 2.713347 1_565
Rh2 Zr0 2.714430 1_655
O0 Zr12 2.313687 1_555
O0 Zr10 2.313687 1_555
O0 Zr15 2.313694 1_555
O0 Zr6 2.339059 1_554
O0 Zr4 2.339060 1_545
O0 Zr9 2.339060 1_555
O1 Zr14 2.313858 1_555
O1 Zr13 2.313865 1_555
O1 Zr4 2.316985 1_455
O1 Zr10 2.324073 1_555
O1 Zr8 2.338364 1_554
O1 Zr7 2.338371 1_555
O2 Zr14 2.313859 1_555
O2 Zr11 2.313865 1_555
O2 Zr6 2.316985 1_455
O2 Zr12 2.324073 1_555
O2 Zr8 2.338364 1_545
O2 Zr5 2.338371 1_555
O3 Zr11 2.313856 1_555
O3 Zr13 2.313857 1_555
O3 Zr9 2.316983 1_455
O3 Zr15 2.324073 1_555
O3 Zr5 2.338362 1_554
O3 Zr7 2.338362 1_545
