# generated using pymatgen
data_CaY6NiCl12
_symmetry_space_group_name_H-M   'P 1'
_cell_length_a   8.73222449
_cell_length_b   8.73222437
_cell_length_c   8.73222374
_cell_angle_alpha   106.45253174
_cell_angle_beta   106.45252374
_cell_angle_gamma   106.45252898
_symmetry_Int_Tables_number   1
_chemical_formula_structural   CaY6NiCl12
_chemical_formula_sum   'Ca1 Y6 Ni1 Cl12'
_cell_volume   562.60010490
_cell_formula_units_Z   1
loop_
 _symmetry_equiv_pos_site_id
 _symmetry_equiv_pos_as_xyz
  1  'x, y, z'
loop_
 _atom_site_type_symbol
 _atom_site_label
 _atom_site_symmetry_multiplicity
 _atom_site_fract_x
 _atom_site_fract_y
 _atom_site_fract_z
 _atom_site_occupancy
  Ca  Ca0  1  0.50000000  0.50000000  0.50000000  1
  Y  Y0  1  0.11024674  0.02039260  0.31634630  1
  Y  Y1  1  0.02039260  0.31634630  0.11024674  1
  Y  Y2  1  0.31634630  0.11024674  0.02039260  1
  Y  Y3  1  0.88975226  0.97960740  0.68365370  1
  Y  Y4  1  0.97960740  0.68365370  0.88975226  1
  Y  Y5  1  0.68365370  0.88975226  0.97960740  1
  Ni  Ni0  1  0.00000000  0.00000000  0.00000000  1
  Cl  Cl0  1  0.07205224  0.67549220  0.21569255  1
  Cl  Cl1  1  0.67549220  0.21569255  0.07205224  1
  Cl  Cl2  1  0.21569255  0.07205224  0.67549220  1
  Cl  Cl3  1  0.92794776  0.32450780  0.78430745  1
  Cl  Cl4  1  0.32450780  0.78430745  0.92794776  1
  Cl  Cl5  1  0.78430745  0.92794776  0.32450780  1
  Cl  Cl6  1  0.45650774  0.15853554  0.37083664  1
  Cl  Cl7  1  0.15853554  0.37083664  0.45650774  1
  Cl  Cl8  1  0.37083664  0.45650774  0.15853554  1
  Cl  Cl9  1  0.54349226  0.84146446  0.62916336  1
  Cl  Cl10  1  0.84146446  0.62916336  0.54349226  1
  Cl  Cl11  1  0.62916336  0.54349226  0.84146446  1
loop_
_geom_bond_atom_site_label_1
_geom_bond_atom_site_label_2
_geom_bond_distance
_geom_bond_site_symmetry_2
Ca0 Cl11 2.741914 1_555
Ca0 Cl8 2.741914 1_555
Ca0 Cl9 2.741914 1_555
Ca0 Cl6 2.741914 1_555
Ca0 Cl10 2.741914 1_555
Ca0 Cl7 2.741914 1_555
Ni0 Y0 2.589840 1_555
Ni0 Y1 2.589840 1_555
Ni0 Y2 2.589840 1_555
Ni0 Y3 2.589840 1_444
Ni0 Y4 2.589841 1_444
Ni0 Y5 2.589841 1_444
Cl0 Y4 2.757450 1_454
Cl0 Y0 2.778473 1_565
Cl0 Y1 2.866072 1_555
Cl1 Y5 2.757451 1_544
Cl1 Y1 2.778473 1_655
Cl1 Y2 2.866072 1_555
Cl2 Y3 2.757451 1_445
Cl2 Y2 2.778473 1_556
Cl2 Y0 2.866072 1_555
Cl3 Y1 2.757442 1_656
Cl3 Y3 2.778470 1_545
Cl3 Y4 2.866072 1_555
Cl4 Y2 2.757442 1_566
Cl4 Y4 2.778470 1_455
Cl4 Y5 2.866072 1_555
Cl5 Y0 2.757442 1_665
Cl5 Y5 2.778470 1_554
Cl5 Y3 2.866072 1_555
Cl6 Y0 2.760033 1_555
Cl6 Y2 2.809901 1_555
Cl7 Y1 2.760033 1_555
Cl7 Y0 2.809901 1_555
Cl8 Y2 2.760033 1_555
Cl8 Y1 2.809901 1_555
Cl9 Y3 2.760025 1_555
Cl9 Y5 2.809903 1_555
Cl10 Y4 2.760025 1_555
Cl10 Y3 2.809903 1_555
Cl11 Y5 2.760025 1_555
Cl11 Y4 2.809903 1_555
