# generated using pymatgen
data_NaSc3As6Ir7
_symmetry_space_group_name_H-M   'P 1'
_cell_length_a   7.08511300
_cell_length_b   7.08511262
_cell_length_c   7.08792814
_cell_angle_alpha   109.47927631
_cell_angle_beta   109.47927523
_cell_angle_gamma   109.46316197
_symmetry_Int_Tables_number   1
_chemical_formula_structural   NaSc3As6Ir7
_chemical_formula_sum   'Na1 Sc3 As6 Ir7'
_cell_volume   273.87209494
_cell_formula_units_Z   1
loop_
 _symmetry_equiv_pos_site_id
 _symmetry_equiv_pos_as_xyz
  1  'x, y, z'
loop_
 _atom_site_type_symbol
 _atom_site_label
 _atom_site_symmetry_multiplicity
 _atom_site_fract_x
 _atom_site_fract_y
 _atom_site_fract_z
 _atom_site_occupancy
  Na  Na0  1  0.00000000  0.00000000  0.50000000  1
  Sc  Sc0  1  0.50000000  0.00000000  0.00000000  1
  Sc  Sc1  1  0.00000000  0.50000000  0.00000000  1
  Sc  Sc2  1  0.50000000  0.50000000  0.50000000  1
  As  As0  1  0.31215504  0.00000000  0.31935855  1
  As  As1  1  0.00000000  0.31215504  0.31935855  1
  As  As2  1  1.00000000  0.68784496  0.68064145  1
  As  As3  1  0.31215504  0.31215504  0.99279549  1
  As  As4  1  0.68784496  0.68784496  0.00720451  1
  As  As5  1  0.68784496  1.00000000  0.68064145  1
  Ir  Ir0  1  0.74490772  0.48981443  0.24490772  1
  Ir  Ir1  1  0.48981443  0.74490772  0.24490772  1
  Ir  Ir2  1  0.51018557  0.25509228  0.75509228  1
  Ir  Ir3  1  0.74490772  0.25509228  0.50000000  1
  Ir  Ir4  1  0.25509228  0.74490772  0.50000000  1
  Ir  Ir5  1  0.25509228  0.51018557  0.75509228  1
  Ir  Ir6  1  0.00000000  0.00000000  0.00000000  1
loop_
_geom_bond_atom_site_label_1
_geom_bond_atom_site_label_2
_geom_bond_distance
_geom_bond_site_symmetry_2
As0 Ir1 2.540158 1_545
As0 Ir3 2.540164 1_555
As0 Ir2 2.543813 1_555
As0 Ir4 2.543814 1_545
As0 Ir6 2.583875 1_555
As0 Na0 2.901611 1_555
As0 Sc1 2.942255 1_545
As0 Sc2 2.942255 1_555
As0 Sc0 2.984017 1_555
As1 Ir0 2.540158 1_455
As1 Ir4 2.540164 1_555
As1 Ir5 2.543813 1_555
As1 Ir3 2.543814 1_455
As1 Ir6 2.583875 1_555
As1 Na0 2.901611 1_555
As1 Sc0 2.942255 1_455
As1 Sc2 2.942255 1_555
As1 Sc1 2.984017 1_555
As2 Ir5 2.540158 1_655
As2 Ir3 2.540164 1_555
As2 Ir0 2.543813 1_555
As2 Ir4 2.543814 1_655
As2 Ir6 2.583875 1_666
As2 Na0 2.901611 1_665
As2 Sc0 2.942255 1_666
As2 Sc2 2.942255 1_555
As2 Sc1 2.984017 1_656
As3 Ir1 2.540166 1_556
As3 Ir0 2.540166 1_556
As3 Ir5 2.543814 1_555
As3 Ir2 2.543814 1_555
As3 Ir6 2.583879 1_556
As3 Na0 2.901606 1_555
As3 Sc0 2.942255 1_556
As3 Sc1 2.942256 1_556
As3 Sc2 2.984023 1_556
As4 Ir2 2.540166 1_554
As4 Ir5 2.540166 1_554
As4 Ir0 2.543814 1_555
As4 Ir1 2.543814 1_555
As4 Ir6 2.583879 1_665
As4 Na0 2.901606 1_665
As4 Sc0 2.942255 1_565
As4 Sc1 2.942256 1_655
As4 Sc2 2.984023 1_554
As5 Ir2 2.540158 1_565
As5 Ir4 2.540164 1_555
As5 Ir1 2.543813 1_555
As5 Ir3 2.543814 1_565
As5 Ir6 2.583875 1_666
As5 Na0 2.901611 1_665
As5 Sc1 2.942255 1_666
As5 Sc2 2.942255 1_555
As5 Sc0 2.984017 1_566
Ir0 Sc0 2.833421 1_555
Ir0 Sc2 2.893804 1_555
Ir0 Sc1 2.893804 1_655
Ir0 Na0 2.951262 1_665
Ir1 Sc1 2.833421 1_555
Ir1 Sc2 2.893804 1_555
Ir1 Sc0 2.893804 1_565
Ir1 Na0 2.951262 1_665
Ir2 Sc1 2.833421 1_656
Ir2 Sc2 2.893804 1_555
Ir2 Sc0 2.893804 1_556
Ir2 Na0 2.951262 1_555
Ir3 Sc2 2.833427 1_555
Ir3 Sc0 2.893803 1_555
Ir3 Sc1 2.893803 1_656
Ir3 Na0 2.951256 1_655
Ir4 Sc2 2.833427 1_555
Ir4 Sc0 2.893803 1_566
Ir4 Sc1 2.893803 1_555
Ir4 Na0 2.951256 1_565
Ir5 Sc0 2.833421 1_566
Ir5 Sc2 2.893804 1_555
Ir5 Sc1 2.893804 1_556
Ir5 Na0 2.951262 1_555
