# generated using pymatgen
data_HfPd3(SeO3)8
_symmetry_space_group_name_H-M   'P 1'
_cell_length_a   8.01181593
_cell_length_b   8.01181622
_cell_length_c   8.01181598
_cell_angle_alpha   90.66586220
_cell_angle_beta   89.33413636
_cell_angle_gamma   90.66586939
_symmetry_Int_Tables_number   1
_chemical_formula_structural   HfPd3(SeO3)8
_chemical_formula_sum   'Hf1 Pd3 Se8 O24'
_cell_volume   514.16864761
_cell_formula_units_Z   1
loop_
 _symmetry_equiv_pos_site_id
 _symmetry_equiv_pos_as_xyz
  1  'x, y, z'
loop_
 _atom_site_type_symbol
 _atom_site_label
 _atom_site_symmetry_multiplicity
 _atom_site_fract_x
 _atom_site_fract_y
 _atom_site_fract_z
 _atom_site_occupancy
  Hf  Hf0  1  0.00000000  0.50000000  0.50000000  1
  Pd  Pd0  1  0.50000000  0.50000000  0.00000000  1
  Pd  Pd1  1  0.50000000  0.00000000  0.50000000  1
  Pd  Pd2  1  0.00000000  0.00000000  0.00000000  1
  Se  Se0  1  0.82557542  0.13834982  0.68397443  1
  Se  Se1  1  0.17442458  0.86165018  0.31602557  1
  Se  Se2  1  0.63834982  0.68397443  0.67442458  1
  Se  Se3  1  0.18397443  0.67442458  0.86165018  1
  Se  Se4  1  0.32983997  0.17016003  0.82983997  1
  Se  Se5  1  0.81602557  0.32557542  0.13834982  1
  Se  Se6  1  0.67016003  0.82983997  0.17016003  1
  Se  Se7  1  0.36165018  0.31602557  0.32557542  1
  O  O0  1  0.24419473  0.44332012  0.44725818  1
  O  O1  1  0.96182981  0.24546673  0.99759784  1
  O  O2  1  0.05274182  0.74419473  0.44332012  1
  O  O3  1  0.48494232  0.25541457  0.95432436  1
  O  O4  1  0.25453327  0.00240216  0.46182981  1
  O  O5  1  0.49759784  0.53817019  0.75453327  1
  O  O6  1  0.97933160  0.00508848  0.75304645  1
  O  O7  1  0.51505768  0.74458543  0.04567564  1
  O  O8  1  0.54567564  0.98494232  0.25541457  1
  O  O9  1  0.45432436  0.01505768  0.74458543  1
  O  O10  1  0.75541457  0.95432436  0.01505768  1
  O  O11  1  0.25304645  0.52066840  0.99491152  1
  O  O12  1  0.05667988  0.55274182  0.74419473  1
  O  O13  1  0.02066840  0.99491152  0.24695355  1
  O  O14  1  0.24458543  0.04567564  0.98494232  1
  O  O15  1  0.50240216  0.46182981  0.24546673  1
  O  O16  1  0.75580527  0.55667988  0.55274182  1
  O  O17  1  0.94332012  0.44725818  0.25580527  1
  O  O18  1  0.03817019  0.75453327  0.00240216  1
  O  O19  1  0.49491152  0.24695355  0.47933160  1
  O  O20  1  0.50508848  0.75304645  0.52066840  1
  O  O21  1  0.94725818  0.25580527  0.55667988  1
  O  O22  1  0.74546673  0.99759784  0.53817019  1
  O  O23  1  0.74695355  0.47933160  0.00508848  1
loop_
_geom_bond_atom_site_label_1
_geom_bond_atom_site_label_2
_geom_bond_distance
_geom_bond_site_symmetry_2
Hf0 O12 2.051686 1_555
Hf0 O17 2.051686 1_455
Hf0 O2 2.051686 1_555
Hf0 O21 2.051686 1_455
Hf0 O0 2.051686 1_555
Hf0 O16 2.051686 1_455
O0 Se7 1.689367 1_555
O1 Se5 1.737287 1_556
O1 Pd2 1.994126 1_656
O2 Se1 1.689367 1_555
O3 Se4 1.731668 1_555
O3 Pd0 1.991799 1_556
O4 Se1 1.737286 1_545
O4 Pd1 1.994126 1_555
O5 Se2 1.737286 1_555
O5 Pd0 1.994126 1_556
O6 Se0 1.738906 1_555
O6 Pd2 1.988310 1_656
O7 Se6 1.731668 1_555
O7 Pd0 1.991799 1_555
O8 Se6 1.731668 1_555
O8 Pd1 1.991799 1_565
O9 Se4 1.731668 1_555
O9 Pd1 1.991799 1_555
O10 Se6 1.731668 1_555
O10 Pd2 1.991799 1_665
O11 Se3 1.738906 1_555
O11 Pd0 1.988310 1_556
O12 Se3 1.689367 1_555
O13 Se1 1.738906 1_555
O13 Pd2 1.988310 1_565
O14 Se4 1.731668 1_555
O14 Pd2 1.991799 1_556
O15 Se7 1.737286 1_555
O15 Pd0 1.994126 1_555
O16 Se2 1.689367 1_555
O17 Se5 1.689367 1_555
O18 Se3 1.737287 1_554
O18 Pd2 1.994126 1_565
O19 Se7 1.738906 1_555
O19 Pd1 1.988310 1_555
O20 Se2 1.738906 1_555
O20 Pd1 1.988310 1_565
O21 Se0 1.689367 1_555
O22 Se0 1.737286 1_565
O22 Pd1 1.994126 1_565
O23 Se5 1.738906 1_555
O23 Pd0 1.988310 1_555
