# generated using pymatgen
data_SrIn3PdPb
_symmetry_space_group_name_H-M   'P 1'
_cell_length_a   9.03921270
_cell_length_b   9.03921288
_cell_length_c   7.62200316
_cell_angle_alpha   90.00000000
_cell_angle_beta   90.00000000
_cell_angle_gamma   150.36866539
_symmetry_Int_Tables_number   1
_chemical_formula_structural   SrIn3PdPb
_chemical_formula_sum   'Sr2 In6 Pd2 Pb2'
_cell_volume   307.91015637
_cell_formula_units_Z   2
loop_
 _symmetry_equiv_pos_site_id
 _symmetry_equiv_pos_as_xyz
  1  'x, y, z'
loop_
 _atom_site_type_symbol
 _atom_site_label
 _atom_site_symmetry_multiplicity
 _atom_site_fract_x
 _atom_site_fract_y
 _atom_site_fract_z
 _atom_site_occupancy
  Sr  Sr0  1  0.12137160  0.87862840  0.75000000  1
  Sr  Sr1  1  0.87862840  0.12137160  0.25000000  1
  In  In0  1  0.31087829  0.68912171  0.94668072  1
  In  In1  1  0.68912171  0.31087829  0.05331928  1
  In  In2  1  0.31087829  0.68912171  0.55331928  1
  In  In3  1  0.68912171  0.31087829  0.44668072  1
  In  In4  1  0.07346561  0.92653439  0.25000000  1
  In  In5  1  0.92653439  0.07346561  0.75000000  1
  Pd  Pd0  1  0.77334428  0.22665572  0.75000000  1
  Pd  Pd1  1  0.22665572  0.77334428  0.25000000  1
  Pb  Pb0  1  0.50000000  0.50000000  0.00000000  1
  Pb  Pb1  1  0.50000000  0.50000000  0.50000000  1
loop_
_geom_bond_atom_site_label_1
_geom_bond_atom_site_label_2
_geom_bond_distance
_geom_bond_site_symmetry_2
In0 Pd1 2.740737 1_556
In0 Pd0 2.832011 1_455
In0 Pd0 2.832012 1_565
In0 Pb0 3.330242 1_556
In0 Sr1 3.477013 1_566
In0 Sr1 3.477013 1_456
In0 Sr0 3.635544 1_555
In1 Pd0 2.740737 1_554
In1 Pd1 2.832011 1_655
In1 Pd1 2.832012 1_545
In1 Pb0 3.330242 1_555
In1 Sr0 3.477013 1_544
In1 Sr0 3.477013 1_654
In1 Sr1 3.635544 1_555
In2 Pd1 2.740737 1_555
In2 Pd0 2.832011 1_455
In2 Pd0 2.832012 1_565
In2 Pb1 3.330242 1_555
In2 Sr1 3.477013 1_565
In2 Sr1 3.477013 1_455
In2 Sr0 3.635544 1_555
In3 Pd0 2.740737 1_555
In3 Pd1 2.832011 1_655
In3 Pd1 2.832012 1_545
In3 Pb1 3.330242 1_555
In3 Sr0 3.477013 1_545
In3 Sr0 3.477013 1_655
In3 Sr1 3.635544 1_555
In4 Pd1 2.677362 1_555
In4 Pb1 3.259173 1_455
In4 Pb0 3.259173 1_455
In4 Pb1 3.259173 1_565
In4 Pb0 3.259173 1_565
In4 Sr1 3.405244 1_465
In4 Sr0 3.901891 1_555
In4 Sr0 3.901891 1_554
In5 Pd0 2.677362 1_555
In5 Pb1 3.259173 1_655
In5 Pb0 3.259173 1_656
In5 Pb0 3.259173 1_546
In5 Pb1 3.259173 1_545
In5 Sr0 3.405244 1_645
In5 Sr1 3.901891 1_555
In5 Sr1 3.901891 1_556
Pd0 Sr0 3.521000 1_545
Pd0 Sr0 3.521000 1_655
Pd1 Sr1 3.521000 1_565
Pd1 Sr1 3.521000 1_455
Pb0 Sr1 3.670602 1_455
Pb0 Sr0 3.670602 1_654
Pb0 Sr1 3.670602 1_565
Pb0 Sr0 3.670602 1_544
Pb1 Sr1 3.670602 1_455
Pb1 Sr0 3.670602 1_655
Pb1 Sr1 3.670602 1_565
Pb1 Sr0 3.670602 1_545
