# generated using pymatgen
data_Sr2Al6O11
_symmetry_space_group_name_H-M   'P 1'
_cell_length_a   4.93206300
_cell_length_b   8.49226700
_cell_length_c   22.17484400
_cell_angle_alpha   90.00000000
_cell_angle_beta   90.00000000
_cell_angle_gamma   90.00000000
_symmetry_Int_Tables_number   1
_chemical_formula_structural   Sr2Al6O11
_chemical_formula_sum   'Sr8 Al24 O44'
_cell_volume   928.77994416
_cell_formula_units_Z   4
loop_
 _symmetry_equiv_pos_site_id
 _symmetry_equiv_pos_as_xyz
  1  'x, y, z'
loop_
 _atom_site_type_symbol
 _atom_site_label
 _atom_site_symmetry_multiplicity
 _atom_site_fract_x
 _atom_site_fract_y
 _atom_site_fract_z
 _atom_site_occupancy
  Sr  Sr0  1  0.96087900  0.50000000  0.65455600  1
  Sr  Sr1  1  0.46087900  0.00000000  0.84544400  1
  Sr  Sr2  1  0.03912100  0.50000000  0.34544400  1
  Sr  Sr3  1  0.53912100  0.00000000  0.15455600  1
  Sr  Sr4  1  0.38460100  0.50000000  0.86177200  1
  Sr  Sr5  1  0.88460100  0.00000000  0.63822800  1
  Sr  Sr6  1  0.61539900  0.50000000  0.13822800  1
  Sr  Sr7  1  0.11539900  0.00000000  0.36177200  1
  Al  Al0  1  0.50704000  0.32098000  0.42572500  1
  Al  Al1  1  0.00704000  0.17902000  0.07427500  1
  Al  Al2  1  0.49296000  0.32098000  0.57427500  1
  Al  Al3  1  0.99296000  0.17902000  0.92572500  1
  Al  Al4  1  0.49296000  0.67902000  0.57427500  1
  Al  Al5  1  0.99296000  0.82098000  0.92572500  1
  Al  Al6  1  0.50704000  0.67902000  0.42572500  1
  Al  Al7  1  0.00704000  0.82098000  0.07427500  1
  Al  Al8  1  0.61471500  0.20519300  0.28625300  1
  Al  Al9  1  0.11471500  0.29480700  0.21374700  1
  Al  Al10  1  0.38528500  0.20519300  0.71374700  1
  Al  Al11  1  0.88528500  0.29480700  0.78625300  1
  Al  Al12  1  0.38528500  0.79480700  0.71374700  1
  Al  Al13  1  0.88528500  0.70519300  0.78625300  1
  Al  Al14  1  0.61471500  0.79480700  0.28625300  1
  Al  Al15  1  0.11471500  0.70519300  0.21374700  1
  Al  Al16  1  0.00000000  0.83309400  0.50000000  1
  Al  Al17  1  0.50000000  0.66690600  0.00000000  1
  Al  Al18  1  0.00000000  0.16690600  0.50000000  1
  Al  Al19  1  0.50000000  0.33309400  0.00000000  1
  Al  Al20  1  0.00000000  0.50000000  0.50000000  1
  Al  Al21  1  0.50000000  0.00000000  0.00000000  1
  Al  Al22  1  0.50000000  0.00000000  0.50000000  1
  Al  Al23  1  0.00000000  0.50000000  0.00000000  1
  O  O0  1  0.47016500  0.26095400  0.21593700  1
  O  O1  1  0.97016500  0.23904600  0.28406300  1
  O  O2  1  0.52983500  0.26095400  0.78406300  1
  O  O3  1  0.02983500  0.23904600  0.71593700  1
  O  O4  1  0.52983500  0.73904600  0.78406300  1
  O  O5  1  0.02983500  0.76095400  0.71593700  1
  O  O6  1  0.47016500  0.73904600  0.21593700  1
  O  O7  1  0.97016500  0.76095400  0.28406300  1
  O  O8  1  0.15216400  0.66295600  0.54836700  1
  O  O9  1  0.65216400  0.83704400  0.95163300  1
  O  O10  1  0.84783600  0.66295600  0.45163300  1
  O  O11  1  0.34783600  0.83704400  0.04836700  1
  O  O12  1  0.84783600  0.33704400  0.45163300  1
  O  O13  1  0.34783600  0.16295600  0.04836700  1
  O  O14  1  0.15216400  0.33704400  0.54836700  1
  O  O15  1  0.65216400  0.16295600  0.95163300  1
  O  O16  1  0.67095200  0.50000000  0.95517500  1
  O  O17  1  0.17095200  0.00000000  0.54482500  1
  O  O18  1  0.17809800  0.34210500  0.95168100  1
  O  O19  1  0.32904800  0.50000000  0.04482500  1
  O  O20  1  0.99330500  0.18160900  0.15343400  1
  O  O21  1  0.49330500  0.31839100  0.34656600  1
  O  O22  1  0.00669500  0.18160900  0.84656600  1
  O  O23  1  0.50669500  0.31839100  0.65343400  1
  O  O24  1  0.00669500  0.81839100  0.84656600  1
  O  O25  1  0.50669500  0.68160900  0.65343400  1
  O  O26  1  0.99330500  0.81839100  0.15343400  1
  O  O27  1  0.49330500  0.68160900  0.34656600  1
  O  O28  1  0.82190200  0.65789500  0.04831900  1
  O  O29  1  0.32190200  0.84210500  0.45168100  1
  O  O30  1  0.17809800  0.65789500  0.95168100  1
  O  O31  1  0.67809800  0.84210500  0.54831900  1
  O  O32  1  0.82483300  0.00000000  0.05612200  1
  O  O33  1  0.32483300  0.50000000  0.44387800  1
  O  O34  1  0.17516700  0.00000000  0.94387800  1
  O  O35  1  0.67516700  0.50000000  0.55612200  1
  O  O36  1  0.56029900  0.00000000  0.29772800  1
  O  O37  1  0.06029900  0.50000000  0.20227200  1
  O  O38  1  0.43970100  0.00000000  0.70227200  1
  O  O39  1  0.93970100  0.50000000  0.79772800  1
  O  O40  1  0.32190200  0.15789500  0.45168100  1
  O  O41  1  0.82190200  0.34210500  0.04831900  1
  O  O42  1  0.67809800  0.15789500  0.54831900  1
  O  O43  1  0.82904800  0.00000000  0.45517500  1
loop_
_geom_bond_atom_site_label_1
_geom_bond_atom_site_label_2
_geom_bond_distance
_geom_bond_site_symmetry_2
Al0 O40 1.755897 1_555
Al0 O21 1.756783 1_555
Al0 O12 1.781530 1_555
Al0 O33 1.811323 1_555
Al1 O41 1.755897 1_455
Al1 O20 1.756783 1_455
Al1 O13 1.781530 1_555
Al1 O32 1.811323 1_455
Al2 O42 1.755897 1_555
Al2 O23 1.756783 1_555
Al2 O14 1.781530 1_555
Al2 O35 1.811323 1_555
Al3 O18 1.755897 1_655
Al3 O22 1.756783 1_655
Al3 O15 1.781530 1_555
Al3 O34 1.811323 1_655
Al4 O31 1.755897 1_555
Al4 O25 1.756783 1_555
Al4 O8 1.781530 1_555
Al4 O35 1.811323 1_555
Al5 O30 1.755897 1_655
Al5 O24 1.756783 1_655
Al5 O9 1.781530 1_555
Al5 O34 1.811323 1_665
Al6 O29 1.755897 1_555
Al6 O27 1.756783 1_555
Al6 O10 1.781530 1_555
Al6 O33 1.811323 1_555
Al7 O28 1.755897 1_455
Al7 O26 1.756783 1_455
Al7 O11 1.781530 1_555
Al7 O32 1.811323 1_465
Al8 O21 1.752541 1_555
Al8 O1 1.777181 1_555
Al8 O0 1.778695 1_555
Al8 O36 1.781368 1_555
Al9 O20 1.752541 1_455
Al9 O0 1.777181 1_555
Al9 O1 1.778695 1_455
Al9 O37 1.781368 1_555
Al10 O23 1.752541 1_555
Al10 O3 1.777181 1_555
Al10 O2 1.778695 1_555
Al10 O38 1.781368 1_555
Al11 O22 1.752541 1_655
Al11 O2 1.777181 1_555
Al11 O3 1.778695 1_655
Al11 O39 1.781368 1_555
Al12 O25 1.752541 1_555
Al12 O5 1.777181 1_555
Al12 O4 1.778695 1_555
Al12 O38 1.781368 1_565
Al13 O24 1.752541 1_655
Al13 O4 1.777181 1_555
Al13 O5 1.778695 1_655
Al13 O39 1.781368 1_555
Al14 O27 1.752541 1_555
Al14 O7 1.777181 1_555
Al14 O6 1.778695 1_555
Al14 O36 1.781368 1_565
Al15 O26 1.752541 1_455
Al15 O6 1.777181 1_555
Al15 O7 1.778695 1_455
Al15 O37 1.781368 1_555
Al16 O29 1.916898 1_555
Al16 O31 1.916898 1_455
Al16 O17 1.925606 1_565
Al16 O43 1.925606 1_465
Al16 O8 1.949656 1_555
Al16 O10 1.949656 1_455
Al17 O28 1.916898 1_555
Al17 O30 1.916898 1_554
Al17 O19 1.925606 1_555
Al17 O16 1.925606 1_554
Al17 O11 1.949656 1_555
Al17 O9 1.949656 1_554
Al18 O40 1.916898 1_555
Al18 O42 1.916898 1_455
Al18 O17 1.925606 1_555
Al18 O43 1.925606 1_455
Al18 O14 1.949656 1_555
Al18 O12 1.949656 1_455
Al19 O41 1.916898 1_555
Al19 O18 1.916898 1_554
Al19 O19 1.925606 1_555
Al19 O16 1.925606 1_554
Al19 O13 1.949656 1_555
Al19 O15 1.949656 1_554
Al20 O14 1.904896 1_555
Al20 O8 1.904896 1_555
Al20 O10 1.904896 1_455
Al20 O12 1.904896 1_455
Al20 O33 2.028666 1_555
Al20 O35 2.028666 1_455
Al21 O11 1.904896 1_545
Al21 O13 1.904896 1_555
Al21 O9 1.904896 1_544
Al21 O15 1.904896 1_554
Al21 O32 2.028666 1_555
Al21 O34 2.028666 1_554
Al22 O43 1.903094 1_555
Al22 O17 1.903094 1_555
Al22 O42 1.928104 1_555
Al22 O40 1.928104 1_555
Al22 O31 1.928104 1_545
Al22 O29 1.928104 1_545
Al23 O16 1.903094 1_454
Al23 O19 1.903094 1_555
Al23 O18 1.928104 1_554
Al23 O30 1.928104 1_554
Al23 O28 1.928104 1_455
Al23 O41 1.928104 1_455
O0 Sr3 2.622853 1_555
O0 Sr6 2.757450 1_555
O1 Sr2 2.622853 1_655
O1 Sr7 2.757450 1_655
O2 Sr1 2.622853 1_555
O2 Sr4 2.757450 1_555
O3 Sr0 2.622853 1_455
O3 Sr5 2.757450 1_455
O4 Sr1 2.622853 1_565
O4 Sr4 2.757450 1_555
O5 Sr0 2.622853 1_455
O5 Sr5 2.757450 1_465
O6 Sr3 2.622853 1_565
O6 Sr6 2.757450 1_555
O7 Sr2 2.622853 1_655
O7 Sr7 2.757450 1_665
O8 Sr0 2.889614 1_455
O9 Sr1 2.889614 1_565
O10 Sr2 2.889614 1_655
O11 Sr3 2.889614 1_565
O12 Sr2 2.889614 1_655
O13 Sr3 2.889614 1_555
O14 Sr0 2.889614 1_455
O15 Sr1 2.889614 1_555
O16 Sr4 2.506881 1_555
O17 Sr5 2.506881 1_455
O18 Sr4 2.609636 1_555
O19 Sr6 2.506881 1_555
O20 Sr3 2.719763 1_555
O20 Sr3 3.102593 1_655
O21 Sr2 2.719763 1_555
O21 Sr2 3.102593 1_655
O22 Sr1 2.719763 1_555
O22 Sr1 3.102593 1_455
O23 Sr0 2.719763 1_555
O23 Sr0 3.102593 1_455
O24 Sr1 2.719763 1_565
O24 Sr1 3.102593 1_465
O25 Sr0 2.719763 1_555
O25 Sr0 3.102593 1_455
O26 Sr3 2.719763 1_565
O26 Sr3 3.102593 1_665
O27 Sr2 2.719763 1_555
O27 Sr2 3.102593 1_655
O28 Sr6 2.609636 1_555
O29 Sr7 2.609636 1_565
O30 Sr4 2.609636 1_555
O31 Sr5 2.609636 1_565
O32 Sr3 2.598103 1_555
O33 Sr2 2.598103 1_555
O34 Sr1 2.598103 1_555
O35 Sr0 2.598103 1_555
O36 Sr7 2.613755 1_555
O36 Sr7 3.084211 1_655
O36 Sr3 3.176535 1_555
O37 Sr6 2.613755 1_455
O37 Sr6 3.084211 1_555
O37 Sr2 3.176535 1_555
O38 Sr5 2.613755 1_555
O38 Sr5 3.084211 1_455
O38 Sr1 3.176535 1_555
O39 Sr4 2.613755 1_655
O39 Sr4 3.084211 1_555
O39 Sr0 3.176535 1_555
O40 Sr7 2.609636 1_555
O41 Sr6 2.609636 1_555
O42 Sr5 2.609636 1_555
O43 Sr7 2.506881 1_655
