# generated using pymatgen
data_K2Ba(PRh)6
_symmetry_space_group_name_H-M   'P 1'
_cell_length_a   8.75702505
_cell_length_b   8.75702491
_cell_length_c   7.04561958
_cell_angle_alpha   68.19068172
_cell_angle_beta   68.19068705
_cell_angle_gamma   36.88065134
_symmetry_Int_Tables_number   1
_chemical_formula_structural   K2Ba(PRh)6
_chemical_formula_sum   'K2 Ba1 P6 Rh6'
_cell_volume   298.35861187
_cell_formula_units_Z   1
loop_
 _symmetry_equiv_pos_site_id
 _symmetry_equiv_pos_as_xyz
  1  'x, y, z'
loop_
 _atom_site_type_symbol
 _atom_site_label
 _atom_site_symmetry_multiplicity
 _atom_site_fract_x
 _atom_site_fract_y
 _atom_site_fract_z
 _atom_site_occupancy
  K  K0  1  0.67185740  0.67185740  0.99986301  1
  K  K1  1  0.32814260  0.32814260  0.00013699  1
  Ba  Ba0  1  0.00000000  0.00000000  0.00000000  1
  P  P0  1  0.88515556  0.88515556  0.69378715  1
  P  P1  1  0.21684942  0.21684942  0.69399511  1
  P  P2  1  0.55064564  0.55064564  0.69842686  1
  P  P3  1  0.44935436  0.44935436  0.30157314  1
  P  P4  1  0.78315058  0.78315058  0.30600489  1
  P  P5  1  0.11484444  0.11484444  0.30621285  1
  Rh  Rh0  1  0.74886565  0.25113435  0.50000000  1
  Rh  Rh1  1  0.08402579  0.58286265  0.50054578  1
  Rh  Rh2  1  0.41713735  0.91597421  0.49945422  1
  Rh  Rh3  1  0.58286265  0.08402579  0.50054578  1
  Rh  Rh4  1  0.91597421  0.41713735  0.49945422  1
  Rh  Rh5  1  0.25113435  0.74886565  0.50000000  1
loop_
_geom_bond_atom_site_label_1
_geom_bond_atom_site_label_2
_geom_bond_distance
_geom_bond_site_symmetry_2
K0 P4 3.345992 1_556
K0 P0 3.350186 1_555
K0 P1 3.407937 1_565
K0 P1 3.407937 1_655
K0 P5 3.409916 1_656
K0 P5 3.409917 1_566
K0 P2 3.452021 1_555
K0 P3 3.468450 1_556
K1 P1 3.345992 1_554
K1 P5 3.350186 1_555
K1 P4 3.407937 1_545
K1 P4 3.407937 1_455
K1 P0 3.409916 1_454
K1 P0 3.409917 1_544
K1 P3 3.452021 1_555
K1 P2 3.468450 1_554
Ba0 P2 3.390454 1_454
Ba0 P3 3.390454 1_545
Ba0 P2 3.390454 1_544
Ba0 P3 3.390454 1_455
Ba0 P5 3.394103 1_555
Ba0 P0 3.394103 1_444
Ba0 P1 3.397797 1_554
Ba0 P4 3.397797 1_445
P0 Rh0 2.323827 1_565
P0 Rh5 2.323827 1_655
P0 Rh3 2.331362 1_565
P0 Rh1 2.331362 1_655
P1 Rh4 2.324052 1_455
P1 Rh2 2.324052 1_545
P1 Rh1 2.334878 1_555
P1 Rh3 2.334879 1_555
P2 Rh2 2.338536 1_555
P2 Rh4 2.338537 1_555
P2 Rh5 2.341976 1_555
P2 Rh0 2.341976 1_555
P3 Rh3 2.338536 1_555
P3 Rh1 2.338537 1_555
P3 Rh0 2.341976 1_555
P3 Rh5 2.341976 1_555
P4 Rh1 2.324052 1_655
P4 Rh3 2.324052 1_565
P4 Rh4 2.334878 1_555
P4 Rh2 2.334879 1_555
P5 Rh5 2.323827 1_545
P5 Rh0 2.323827 1_455
P5 Rh2 2.331362 1_545
P5 Rh4 2.331362 1_455
