# generated using pymatgen
data_NaHf2PdF11
_symmetry_space_group_name_H-M   'P 1'
_cell_length_a   5.72662229
_cell_length_b   5.72662232
_cell_length_c   7.75512429
_cell_angle_alpha   69.63267157
_cell_angle_beta   69.63267263
_cell_angle_gamma   73.15889382
_symmetry_Int_Tables_number   1
_chemical_formula_structural   NaHf2PdF11
_chemical_formula_sum   'Na1 Hf2 Pd1 F11'
_cell_volume   219.36607049
_cell_formula_units_Z   1
loop_
 _symmetry_equiv_pos_site_id
 _symmetry_equiv_pos_as_xyz
  1  'x, y, z'
loop_
 _atom_site_type_symbol
 _atom_site_label
 _atom_site_symmetry_multiplicity
 _atom_site_fract_x
 _atom_site_fract_y
 _atom_site_fract_z
 _atom_site_occupancy
  Na  Na0  1  0.00000000  0.00000000  0.00000000  1
  Hf  Hf0  1  0.49923946  0.49923946  0.76937884  1
  Hf  Hf1  1  0.50076054  0.50076054  0.23062116  1
  Pd  Pd0  1  0.00000000  0.00000000  0.50000000  1
  F  F0  1  0.22091263  0.79818812  0.70173313  1
  F  F1  1  0.20181188  0.77908737  0.29826687  1
  F  F2  1  0.77908737  0.20181188  0.29826687  1
  F  F3  1  0.79818812  0.22091263  0.70173313  1
  F  F4  1  0.50000000  0.50000000  0.50000000  1
  F  F5  1  0.66656317  0.33343683  1.00000000  1
  F  F6  1  0.33343683  0.66656317  0.00000000  1
  F  F7  1  0.26052251  0.26052251  0.34752167  1
  F  F8  1  0.73947749  0.73947749  0.65247833  1
  F  F9  1  0.26500386  0.26500386  0.89023212  1
  F  F10  1  0.73499614  0.73499614  0.10976788  1
loop_
_geom_bond_atom_site_label_1
_geom_bond_atom_site_label_2
_geom_bond_distance
_geom_bond_site_symmetry_2
F0 Hf0 2.030334 1_555
F0 Pd0 2.157679 1_565
F0 Na0 2.695034 1_566
F1 Hf1 2.030334 1_555
F1 Pd0 2.157679 1_565
F1 Na0 2.695034 1_565
F2 Hf1 2.030334 1_555
F2 Pd0 2.157679 1_655
F2 Na0 2.695034 1_655
F3 Hf0 2.030334 1_555
F3 Pd0 2.157679 1_655
F3 Na0 2.695034 1_656
F4 Hf0 2.086044 1_555
F4 Hf1 2.086044 1_555
F5 Hf0 2.121807 1_555
F5 Hf1 2.121807 1_556
F5 Na0 2.275843 1_656
F6 Hf1 2.121807 1_555
F6 Hf0 2.121807 1_554
F6 Na0 2.275843 1_565
F7 Hf1 1.991894 1_555
F7 Pd0 2.164167 1_555
F8 Hf0 1.991894 1_555
F8 Pd0 2.164167 1_665
F9 Hf0 1.941492 1_555
F9 Na0 2.206068 1_556
F10 Hf1 1.941492 1_555
F10 Na0 2.206068 1_665
