# generated using pymatgen
data_TaBe4Tc
_symmetry_space_group_name_H-M   'P 1'
_cell_length_a   4.46691735
_cell_length_b   4.46691729
_cell_length_c   4.46691697
_cell_angle_alpha   59.99999505
_cell_angle_beta   59.99999548
_cell_angle_gamma   60.00000078
_symmetry_Int_Tables_number   1
_chemical_formula_structural   TaBe4Tc
_chemical_formula_sum   'Ta1 Be4 Tc1'
_cell_volume   63.02439465
_cell_formula_units_Z   1
loop_
 _symmetry_equiv_pos_site_id
 _symmetry_equiv_pos_as_xyz
  1  'x, y, z'
loop_
 _atom_site_type_symbol
 _atom_site_label
 _atom_site_symmetry_multiplicity
 _atom_site_fract_x
 _atom_site_fract_y
 _atom_site_fract_z
 _atom_site_occupancy
  Ta  Ta0  1  0.25000000  0.25000000  0.25000000  1
  Be  Be0  1  0.62576511  0.62576511  0.12270468  1
  Be  Be1  1  0.62576511  0.12270468  0.62576511  1
  Be  Be2  1  0.12270468  0.62576511  0.62576511  1
  Be  Be3  1  0.62576511  0.62576511  0.62576511  1
  Tc  Tc0  1  0.00000000  0.00000000  0.00000000  1
loop_
_geom_bond_atom_site_label_1
_geom_bond_atom_site_label_2
_geom_bond_distance
_geom_bond_site_symmetry_2
Ta0 Tc0 2.735417 1_556
Ta0 Tc0 2.735417 1_565
Ta0 Tc0 2.735417 1_655
Ta0 Tc0 2.735417 1_555
Be0 Be1 2.219788 1_564
Be0 Be2 2.219788 1_654
Be0 Be3 2.219788 1_554
Be0 Be1 2.247129 1_555
Be0 Be2 2.247129 1_555
Be0 Be3 2.247129 1_555
Be0 Tc0 2.617518 1_665
Be0 Tc0 2.617518 1_655
Be0 Tc0 2.617518 1_565
Be0 Ta0 2.620433 1_555
Be0 Ta0 2.620433 1_565
Be0 Ta0 2.620433 1_655
Be1 Be3 2.219788 1_545
Be1 Be2 2.219788 1_645
Be1 Be3 2.247129 1_555
Be1 Be2 2.247129 1_555
Be1 Tc0 2.617518 1_655
Be1 Tc0 2.617518 1_556
Be1 Tc0 2.617518 1_656
Be1 Ta0 2.620432 1_556
Be1 Ta0 2.620433 1_655
Be1 Ta0 2.620433 1_555
Be2 Be3 2.219788 1_455
Be2 Be3 2.247129 1_555
Be2 Tc0 2.617518 1_565
Be2 Tc0 2.617518 1_556
Be2 Tc0 2.617518 1_566
Be2 Ta0 2.620432 1_556
Be2 Ta0 2.620433 1_565
Be2 Ta0 2.620433 1_555
Be3 Tc0 2.617518 1_665
Be3 Tc0 2.617518 1_656
Be3 Tc0 2.617518 1_566
Be3 Ta0 2.620432 1_556
Be3 Ta0 2.620433 1_565
Be3 Ta0 2.620433 1_655
