# generated using pymatgen
data_VPd(SeO3)4
_symmetry_space_group_name_H-M   'P 1'
_cell_length_a   8.01951553
_cell_length_b   7.92991079
_cell_length_c   7.79259441
_cell_angle_alpha   90.75961653
_cell_angle_beta   90.00000000
_cell_angle_gamma   90.00000000
_symmetry_Int_Tables_number   1
_chemical_formula_structural   VPd(SeO3)4
_chemical_formula_sum   'V2 Pd2 Se8 O24'
_cell_volume   495.51902930
_cell_formula_units_Z   2
loop_
 _symmetry_equiv_pos_site_id
 _symmetry_equiv_pos_as_xyz
  1  'x, y, z'
loop_
 _atom_site_type_symbol
 _atom_site_label
 _atom_site_symmetry_multiplicity
 _atom_site_fract_x
 _atom_site_fract_y
 _atom_site_fract_z
 _atom_site_occupancy
  V  V0  1  0.00000000  0.50000000  0.00000000  1
  V  V1  1  0.50000000  0.50000000  0.50000000  1
  Pd  Pd0  1  0.00000000  0.00000000  0.50000000  1
  Pd  Pd1  1  0.50000000  0.00000000  0.00000000  1
  Se  Se0  1  0.34068231  0.67655661  0.17568174  1
  Se  Se1  1  0.84068231  0.32344339  0.32431826  1
  Se  Se2  1  0.67668567  0.83727072  0.66426363  1
  Se  Se3  1  0.17668567  0.16272928  0.83573637  1
  Se  Se4  1  0.65931769  0.32344339  0.82431826  1
  Se  Se5  1  0.15931769  0.67655661  0.67568174  1
  Se  Se6  1  0.32331433  0.16272928  0.33573637  1
  Se  Se7  1  0.82331433  0.83727072  0.16426363  1
  O  O0  1  0.23162314  0.56069470  0.02778929  1
  O  O1  1  0.73162314  0.43930530  0.47221071  1
  O  O2  1  0.75386155  0.99177193  0.52983002  1
  O  O3  1  0.25386155  0.00822807  0.97016998  1
  O  O4  1  0.51494475  0.95701693  0.74733878  1
  O  O5  1  0.46150926  0.51674693  0.25731152  1
  O  O6  1  0.96150926  0.48325307  0.24268848  1
  O  O7  1  0.01494475  0.04298307  0.75266122  1
  O  O8  1  0.99428949  0.24710283  0.45921589  1
  O  O9  1  0.56380386  0.73292119  0.50877008  1
  O  O10  1  0.49428949  0.75289717  0.04078411  1
  O  O11  1  0.06380386  0.26707881  0.99122992  1
  O  O12  1  0.76837686  0.43930530  0.97221071  1
  O  O13  1  0.26837686  0.56069470  0.52778929  1
  O  O14  1  0.24613845  0.00822807  0.47016998  1
  O  O15  1  0.74613845  0.99177193  0.02983002  1
  O  O16  1  0.48505525  0.04298307  0.25266122  1
  O  O17  1  0.53849074  0.48325307  0.74268848  1
  O  O18  1  0.03849074  0.51674693  0.75731152  1
  O  O19  1  0.98505525  0.95701693  0.24733878  1
  O  O20  1  0.00571051  0.75289717  0.54078411  1
  O  O21  1  0.43619614  0.26707881  0.49122992  1
  O  O22  1  0.50571051  0.24710283  0.95921589  1
  O  O23  1  0.93619614  0.73292119  0.00877008  1
loop_
_geom_bond_atom_site_label_1
_geom_bond_atom_site_label_2
_geom_bond_distance
_geom_bond_site_symmetry_2
O0 Se0 1.705631 1_555
O0 V0 1.930313 1_555
O1 Se1 1.705631 1_555
O1 V1 1.930313 1_555
O2 Se2 1.736546 1_555
O2 Pd0 1.988723 1_665
O3 Se3 1.736546 1_555
O3 Pd1 1.988723 1_556
O4 Se2 1.728269 1_555
O4 Pd1 1.997314 1_566
O5 Se0 1.723632 1_555
O5 V1 1.922528 1_555
O6 Se1 1.723632 1_555
O6 V0 1.922528 1_655
O7 Se3 1.728269 1_555
O7 Pd0 1.997314 1_555
O8 Se1 1.733737 1_555
O8 Pd0 1.989791 1_655
O9 Se2 1.716347 1_555
O9 V1 1.916953 1_555
O10 Se0 1.733737 1_555
O10 Pd1 1.989791 1_565
O11 Se3 1.716347 1_555
O11 V0 1.916953 1_556
O12 Se4 1.705631 1_555
O12 V0 1.930313 1_656
O13 Se5 1.705631 1_555
O13 V1 1.930313 1_555
O14 Se6 1.736546 1_555
O14 Pd0 1.988723 1_555
O15 Se7 1.736546 1_555
O15 Pd1 1.988723 1_565
O16 Se6 1.728269 1_555
O16 Pd1 1.997314 1_555
O17 Se4 1.723632 1_555
O17 V1 1.922528 1_555
O18 Se5 1.723632 1_555
O18 V0 1.922528 1_556
O19 Se7 1.728269 1_555
O19 Pd0 1.997314 1_665
O20 Se5 1.733737 1_555
O20 Pd0 1.989791 1_565
O21 Se6 1.716347 1_555
O21 V1 1.916953 1_555
O22 Se4 1.733737 1_555
O22 Pd1 1.989791 1_556
O23 Se7 1.716347 1_555
O23 V0 1.916953 1_655
