# generated using pymatgen
data_Cs4Mg(AsS4)2
_symmetry_space_group_name_H-M   'P 1'
_cell_length_a   9.46269828
_cell_length_b   9.57617435
_cell_length_c   11.47378971
_cell_angle_alpha   104.96876936
_cell_angle_beta   104.09192337
_cell_angle_gamma   91.70314659
_symmetry_Int_Tables_number   1
_chemical_formula_structural   Cs4Mg(AsS4)2
_chemical_formula_sum   'Cs8 Mg2 As4 S16'
_cell_volume   969.43606964
_cell_formula_units_Z   2
loop_
 _symmetry_equiv_pos_site_id
 _symmetry_equiv_pos_as_xyz
  1  'x, y, z'
loop_
 _atom_site_type_symbol
 _atom_site_label
 _atom_site_symmetry_multiplicity
 _atom_site_fract_x
 _atom_site_fract_y
 _atom_site_fract_z
 _atom_site_occupancy
  Cs  Cs0  1  0.92605221  0.52171191  0.24771780  1
  Cs  Cs1  1  0.07394779  0.47828809  0.75228220  1
  Cs  Cs2  1  0.75912701  0.97801541  0.45210482  1
  Cs  Cs3  1  0.24087299  0.02198459  0.54789518  1
  Cs  Cs4  1  0.59954190  0.74007251  0.01204756  1
  Cs  Cs5  1  0.40045810  0.25992749  0.98795244  1
  Cs  Cs6  1  0.62102745  0.68218053  0.61962503  1
  Cs  Cs7  1  0.37897255  0.31781947  0.38037497  1
  Mg  Mg0  1  0.85211760  0.13103522  0.92542614  1
  Mg  Mg1  1  0.14788240  0.86896478  0.07457386  1
  As  As0  1  0.95262256  0.10911862  0.22210167  1
  As  As1  1  0.04737744  0.89088138  0.77789833  1
  As  As2  1  0.35962745  0.69411749  0.25429495  1
  As  As3  1  0.64037255  0.30588251  0.74570505  1
  S  S0  1  0.97816736  0.88586293  0.22565274  1
  S  S1  1  0.02183264  0.11413707  0.77434726  1
  S  S2  1  0.60701791  0.07863631  0.74905490  1
  S  S3  1  0.39298209  0.92136369  0.25094510  1
  S  S4  1  0.28073296  0.67363689  0.40970005  1
  S  S5  1  0.71926704  0.32636311  0.59029995  1
  S  S6  1  0.80579801  0.40053263  0.92078213  1
  S  S7  1  0.19420199  0.59946737  0.07921787  1
  S  S8  1  0.00413650  0.25130547  0.40708524  1
  S  S9  1  0.99586350  0.74869453  0.59291476  1
  S  S10  1  0.09683108  0.15978133  0.11172954  1
  S  S11  1  0.90316892  0.84021867  0.88827046  1
  S  S12  1  0.73696365  0.12961862  0.11055367  1
  S  S13  1  0.26303635  0.87038138  0.88944633  1
  S  S14  1  0.56114389  0.59096855  0.26147655  1
  S  S15  1  0.43885611  0.40903145  0.73852345  1
loop_
_geom_bond_atom_site_label_1
_geom_bond_atom_site_label_2
_geom_bond_distance
_geom_bond_site_symmetry_2
Cs0 S4 3.480027 1_655
Cs0 S6 3.508150 1_554
Cs0 S8 3.535061 1_655
Cs0 S14 3.568696 1_555
Cs0 S0 3.589194 1_555
Cs0 S7 3.708221 1_655
Cs0 S12 3.866954 1_555
Cs0 S9 3.878341 1_555
Cs0 S10 3.978165 1_655
Cs1 S5 3.480027 1_455
Cs1 S7 3.508150 1_556
Cs1 S9 3.535061 1_455
Cs1 S15 3.568696 1_555
Cs1 S1 3.589194 1_555
Cs1 S6 3.708221 1_455
Cs1 S13 3.866954 1_555
Cs1 S8 3.878341 1_555
Cs1 S11 3.978165 1_455
Cs2 S5 3.379037 1_565
Cs2 S9 3.579648 1_555
Cs2 S3 3.601818 1_555
Cs2 S0 3.656857 1_555
Cs2 S8 3.662232 1_665
Cs2 S1 3.793568 1_665
Cs2 S2 3.922171 1_565
Cs2 S14 3.928793 1_555
Cs3 S4 3.379037 1_545
Cs3 S8 3.579648 1_555
Cs3 S2 3.601818 1_555
Cs3 S1 3.656857 1_555
Cs3 S9 3.662232 1_445
Cs3 S0 3.793568 1_445
Cs3 S3 3.922171 1_545
Cs3 S15 3.928793 1_555
Cs4 S13 3.554882 1_554
Cs4 S14 3.598290 1_555
Cs4 S12 3.701615 1_565
Cs4 S11 3.703824 1_554
Cs4 S0 3.801521 1_555
Cs4 S15 3.802780 1_554
Cs4 S3 3.834097 1_555
Cs4 S6 3.884792 1_554
Cs5 S12 3.554882 1_556
Cs5 S15 3.598290 1_555
Cs5 S13 3.701615 1_545
Cs5 S10 3.703824 1_556
Cs5 S1 3.801521 1_555
Cs5 S14 3.802780 1_556
Cs5 S2 3.834097 1_555
Cs5 S7 3.884792 1_556
Cs6 S11 3.501721 1_555
Cs6 S4 3.504706 1_555
Cs6 S5 3.512250 1_555
Cs6 S9 3.684622 1_555
Cs6 S2 3.721538 1_565
Cs6 S15 3.794102 1_555
Cs6 S14 3.866913 1_555
Cs7 S10 3.501721 1_555
Cs7 S5 3.504706 1_555
Cs7 S4 3.512250 1_555
Cs7 S8 3.684622 1_555
Cs7 S3 3.721538 1_545
Cs7 S14 3.794102 1_555
Cs7 S15 3.866913 1_555
Mg0 S1 2.614631 1_655
Mg0 S12 2.615440 1_556
Mg0 S2 2.616651 1_555
Mg0 S6 2.642376 1_555
Mg0 S10 2.693528 1_656
Mg0 S11 2.781686 1_545
Mg1 S0 2.614631 1_455
Mg1 S13 2.615440 1_554
Mg1 S3 2.616651 1_555
Mg1 S7 2.642376 1_555
Mg1 S11 2.693528 1_454
Mg1 S10 2.781686 1_565
As0 S8 2.135477 1_655
As0 S0 2.168359 1_545
As0 S12 2.173221 1_555
As0 S10 2.195632 1_655
As1 S9 2.135477 1_455
As1 S1 2.168359 1_565
As1 S13 2.173221 1_555
As1 S11 2.195632 1_455
As2 S4 2.143683 1_555
As2 S14 2.167073 1_555
As2 S7 2.179688 1_555
As2 S3 2.201138 1_555
As3 S5 2.143683 1_555
As3 S15 2.167073 1_555
As3 S6 2.179688 1_555
As3 S2 2.201138 1_555
