# generated using pymatgen
data_CaY6BeI12
_symmetry_space_group_name_H-M   'P 1'
_cell_length_a   9.66269927
_cell_length_b   9.66269790
_cell_length_c   9.66269761
_cell_angle_alpha   106.91345141
_cell_angle_beta   106.91344690
_cell_angle_gamma   106.91344459
_symmetry_Int_Tables_number   1
_chemical_formula_structural   CaY6BeI12
_chemical_formula_sum   'Ca1 Y6 Be1 I12'
_cell_volume   753.11462827
_cell_formula_units_Z   1
loop_
 _symmetry_equiv_pos_site_id
 _symmetry_equiv_pos_as_xyz
  1  'x, y, z'
loop_
 _atom_site_type_symbol
 _atom_site_label
 _atom_site_symmetry_multiplicity
 _atom_site_fract_x
 _atom_site_fract_y
 _atom_site_fract_z
 _atom_site_occupancy
  Ca  Ca0  1  0.50000000  0.50000000  0.50000000  1
  Y  Y0  1  0.70128955  0.97807690  0.90578112  1
  Y  Y1  1  0.97807690  0.90578112  0.70128955  1
  Y  Y2  1  0.09421888  0.29871045  0.02192310  1
  Y  Y3  1  0.29871045  0.02192310  0.09421888  1
  Y  Y4  1  0.90578112  0.70128955  0.97807690  1
  Y  Y5  1  0.02192310  0.09421888  0.29871045  1
  Be  Be0  1  0.00000000  0.00000000  0.00000000  1
  I  I0  1  0.07496429  0.22919771  0.67719265  1
  I  I1  1  0.37787439  0.14652862  0.45607006  1
  I  I2  1  0.62212561  0.85347138  0.54392994  1
  I  I3  1  0.22919771  0.67719265  0.07496429  1
  I  I4  1  0.77080229  0.32280735  0.92503571  1
  I  I5  1  0.67719265  0.07496429  0.22919771  1
  I  I6  1  0.54392994  0.62212561  0.85347138  1
  I  I7  1  0.85347138  0.54392994  0.62212561  1
  I  I8  1  0.92503571  0.77080229  0.32280735  1
  I  I9  1  0.32280735  0.92503571  0.77080229  1
  I  I10  1  0.45607006  0.37787439  0.14652862  1
  I  I11  1  0.14652862  0.45607006  0.37787439  1
loop_
_geom_bond_atom_site_label_1
_geom_bond_atom_site_label_2
_geom_bond_distance
_geom_bond_site_symmetry_2
Ca0 I6 3.123795 1_555
Ca0 I10 3.123795 1_555
Ca0 I2 3.123795 1_555
Ca0 I1 3.123795 1_555
Ca0 I7 3.123795 1_555
Ca0 I11 3.123795 1_555
Be0 Y5 2.684731 1_555
Be0 Y1 2.684731 1_444
Be0 Y2 2.684731 1_555
Be0 Y4 2.684731 1_444
Be0 Y0 2.684731 1_444
Be0 Y3 2.684731 1_555
I0 Y1 3.089447 1_445
I0 Y2 3.137891 1_556
I0 Y5 3.329212 1_555
I1 Y3 3.117439 1_555
I1 Y5 3.145728 1_555
I2 Y0 3.117439 1_555
I2 Y1 3.145728 1_555
I3 Y4 3.089447 1_454
I3 Y3 3.137892 1_565
I3 Y2 3.329212 1_555
I4 Y2 3.089447 1_656
I4 Y0 3.137892 1_545
I4 Y4 3.329212 1_555
I5 Y0 3.089447 1_544
I5 Y5 3.137892 1_655
I5 Y3 3.329213 1_555
I6 Y4 3.117440 1_555
I6 Y0 3.145728 1_555
I7 Y1 3.117440 1_555
I7 Y4 3.145727 1_555
I8 Y5 3.089447 1_665
I8 Y4 3.137891 1_554
I8 Y1 3.329212 1_555
I9 Y3 3.089447 1_566
I9 Y1 3.137892 1_455
I9 Y0 3.329213 1_555
I10 Y2 3.117440 1_555
I10 Y3 3.145728 1_555
I11 Y5 3.117440 1_555
I11 Y2 3.145727 1_555
