# generated using pymatgen
data_KSnPRh2
_symmetry_space_group_name_H-M   'P 1'
_cell_length_a   7.80544906
_cell_length_b   7.80544912
_cell_length_c   7.80544923
_cell_angle_alpha   150.24331121
_cell_angle_beta   150.24331540
_cell_angle_gamma   42.58436184
_symmetry_Int_Tables_number   1
_chemical_formula_structural   KSnPRh2
_chemical_formula_sum   'K1 Sn1 P1 Rh2'
_cell_volume   116.85005288
_cell_formula_units_Z   1
loop_
 _symmetry_equiv_pos_site_id
 _symmetry_equiv_pos_as_xyz
  1  'x, y, z'
loop_
 _atom_site_type_symbol
 _atom_site_label
 _atom_site_symmetry_multiplicity
 _atom_site_fract_x
 _atom_site_fract_y
 _atom_site_fract_z
 _atom_site_occupancy
  K  K0  1  0.97710036  0.97710036  1.00000000  1
  Sn  Sn0  1  0.64787044  0.64787044  0.00000000  1
  P  P0  1  0.34100998  0.34100998  1.00000000  1
  Rh  Rh0  1  0.26700961  0.76700961  0.50000000  1
  Rh  Rh1  1  0.76700961  0.26700961  0.50000000  1
loop_
_geom_bond_atom_site_label_1
_geom_bond_atom_site_label_2
_geom_bond_distance
_geom_bond_site_symmetry_2
K0 P0 3.457145 1_565
K0 P0 3.457145 1_655
K0 P0 3.457145 1_554
K0 P0 3.457145 1_666
K0 Sn0 3.768726 1_656
K0 Sn0 3.768726 1_566
K0 Sn0 3.768726 1_667
K0 Sn0 3.768727 1_555
P0 Rh1 2.274930 1_455
P0 Rh1 2.274930 1_556
P0 Rh0 2.274930 1_545
P0 Rh0 2.274930 1_556
Rh0 Sn0 2.649483 1_455
Rh0 Sn0 2.649483 1_556
Rh1 Sn0 2.649483 1_545
Rh1 Sn0 2.649483 1_556
