# generated using pymatgen
data_Cs2ZrAs2
_symmetry_space_group_name_H-M   'P 1'
_cell_length_a   9.05123408
_cell_length_b   9.05123490
_cell_length_c   9.05123451
_cell_angle_alpha   134.60071394
_cell_angle_beta   127.98219164
_cell_angle_gamma   71.48346075
_symmetry_Int_Tables_number   1
_chemical_formula_structural   Cs2ZrAs2
_chemical_formula_sum   'Cs4 Zr2 As4'
_cell_volume   407.39162798
_cell_formula_units_Z   2
loop_
 _symmetry_equiv_pos_site_id
 _symmetry_equiv_pos_as_xyz
  1  'x, y, z'
loop_
 _atom_site_type_symbol
 _atom_site_label
 _atom_site_symmetry_multiplicity
 _atom_site_fract_x
 _atom_site_fract_y
 _atom_site_fract_z
 _atom_site_occupancy
  Cs  Cs0  1  0.70360433  0.34569199  0.35791134  1
  Cs  Cs1  1  0.98778064  0.84569199  0.14208866  1
  Cs  Cs2  1  0.01221936  0.15430801  0.85791134  1
  Cs  Cs3  1  0.29639567  0.65430801  0.64208866  1
  Zr  Zr0  1  0.50000000  0.75000000  0.25000000  1
  Zr  Zr1  1  0.50000000  0.25000000  0.75000000  1
  As  As0  1  0.23130644  0.40580974  0.82549570  1
  As  As1  1  0.76869356  0.59419026  0.17450430  1
  As  As2  1  0.41968596  0.09419026  0.32549570  1
  As  As3  1  0.58031404  0.90580974  0.67450430  1
loop_
_geom_bond_atom_site_label_1
_geom_bond_atom_site_label_2
_geom_bond_distance
_geom_bond_site_symmetry_2
As0 Zr1 2.623770 1_555
As0 Zr0 2.623775 1_556
As0 Cs2 3.704275 1_555
As0 Cs0 3.815401 1_455
As0 Cs1 3.885882 1_445
As0 Cs1 3.885888 1_456
As0 Cs3 3.930747 1_555
As1 Zr0 2.623770 1_555
As1 Zr1 2.623775 1_554
As1 Cs1 3.704275 1_555
As1 Cs3 3.815401 1_655
As1 Cs2 3.885882 1_665
As1 Cs2 3.885888 1_654
As1 Cs0 3.930747 1_555
As2 Zr1 2.623778 1_555
As2 Zr0 2.623779 1_545
As2 Cs0 3.704276 1_555
As2 Cs2 3.815401 1_554
As2 Cs3 3.885879 1_544
As2 Cs3 3.885885 1_555
As2 Cs1 3.930758 1_445
As3 Zr0 2.623778 1_555
As3 Zr1 2.623779 1_565
As3 Cs3 3.704276 1_555
As3 Cs1 3.815401 1_556
As3 Cs0 3.885879 1_566
As3 Cs0 3.885885 1_555
As3 Cs2 3.930758 1_665
