# generated using pymatgen
data_Ca4Si4GeRh9
_symmetry_space_group_name_H-M   'P 1'
_cell_length_a   11.47374697
_cell_length_b   11.47374618
_cell_length_c   11.47374733
_cell_angle_alpha   28.33012439
_cell_angle_beta   28.33012966
_cell_angle_gamma   28.33013051
_symmetry_Int_Tables_number   1
_chemical_formula_structural   Ca4Si4GeRh9
_chemical_formula_sum   'Ca4 Si4 Ge1 Rh9'
_cell_volume   300.58113177
_cell_formula_units_Z   1
loop_
 _symmetry_equiv_pos_site_id
 _symmetry_equiv_pos_as_xyz
  1  'x, y, z'
loop_
 _atom_site_type_symbol
 _atom_site_label
 _atom_site_symmetry_multiplicity
 _atom_site_fract_x
 _atom_site_fract_y
 _atom_site_fract_z
 _atom_site_occupancy
  Ca  Ca0  1  0.94976857  0.94976857  0.94976857  1
  Ca  Ca1  1  0.85227871  0.85227871  0.85227871  1
  Ca  Ca2  1  0.14772129  0.14772129  0.14772129  1
  Ca  Ca3  1  0.05023143  0.05023143  0.05023143  1
  Si  Si0  1  0.27920744  0.27920744  0.27920744  1
  Si  Si1  1  0.38731140  0.38731140  0.38731140  1
  Si  Si2  1  0.72079256  0.72079256  0.72079256  1
  Si  Si3  1  0.61268860  0.61268860  0.61268860  1
  Ge  Ge0  1  0.50000000  0.50000000  0.50000000  1
  Rh  Rh0  1  0.60543314  0.60543314  0.10667536  1
  Rh  Rh1  1  0.89332464  0.39456686  0.39456686  1
  Rh  Rh2  1  0.50000000  0.00000000  0.50000000  1
  Rh  Rh3  1  0.39456686  0.89332464  0.39456686  1
  Rh  Rh4  1  0.50000000  0.50000000  0.00000000  1
  Rh  Rh5  1  0.10667536  0.60543314  0.60543314  1
  Rh  Rh6  1  0.00000000  0.50000000  0.50000000  1
  Rh  Rh7  1  0.39456686  0.39456686  0.89332464  1
  Rh  Rh8  1  0.60543314  0.10667536  0.60543314  1
loop_
_geom_bond_atom_site_label_1
_geom_bond_atom_site_label_2
_geom_bond_distance
_geom_bond_site_symmetry_2
Ca0 Ca1 3.218961 1_555
Ca0 Si3 3.244541 1_565
Ca0 Si3 3.244541 1_556
Ca0 Si3 3.244542 1_655
Ca0 Si0 3.244731 1_656
Ca0 Si0 3.244731 1_665
Ca0 Si0 3.244731 1_566
Ca0 Rh6 3.261079 1_665
Ca0 Rh6 3.261079 1_656
Ca0 Rh4 3.261079 1_566
Ca0 Rh2 3.261079 1_665
Ca0 Rh4 3.261080 1_656
Ca0 Rh2 3.261080 1_566
Ca0 Ca3 3.317125 1_666
Ca0 Rh1 3.354994 1_556
Ca0 Rh7 3.354994 1_655
Ca0 Rh1 3.354995 1_565
Ca0 Rh3 3.354995 1_556
Ca0 Rh7 3.354995 1_565
Ca0 Rh3 3.354995 1_655
Ca1 Rh0 3.094742 1_556
Ca1 Rh5 3.094743 1_655
Ca1 Rh8 3.094743 1_565
Ca1 Rh1 3.129768 1_565
Ca1 Rh1 3.129768 1_556
Ca1 Rh7 3.129769 1_565
Ca1 Rh3 3.129769 1_655
Ca1 Rh7 3.129769 1_655
Ca1 Rh3 3.129769 1_556
Ca1 Ge0 3.301977 1_556
Ca1 Ge0 3.301977 1_565
Ca1 Ge0 3.301978 1_655
Ca2 Rh7 3.094742 1_554
Ca2 Rh1 3.094743 1_455
Ca2 Rh3 3.094743 1_545
Ca2 Rh5 3.129768 1_545
Ca2 Rh5 3.129768 1_554
Ca2 Rh0 3.129769 1_545
Ca2 Rh8 3.129769 1_455
Ca2 Rh0 3.129769 1_455
Ca2 Rh8 3.129769 1_554
Ca2 Ca3 3.218961 1_555
Ca2 Ge0 3.301977 1_554
Ca2 Ge0 3.301977 1_545
Ca2 Ge0 3.301978 1_455
Ca3 Si1 3.244541 1_545
Ca3 Si1 3.244541 1_554
Ca3 Si1 3.244542 1_455
Ca3 Si2 3.244731 1_454
Ca3 Si2 3.244731 1_445
Ca3 Si2 3.244731 1_544
Ca3 Rh6 3.261079 1_545
Ca3 Rh6 3.261079 1_554
Ca3 Rh4 3.261079 1_545
Ca3 Rh2 3.261079 1_455
Ca3 Rh4 3.261080 1_455
Ca3 Rh2 3.261080 1_554
Ca3 Rh5 3.354994 1_554
Ca3 Rh0 3.354994 1_455
Ca3 Rh5 3.354995 1_545
Ca3 Rh8 3.354995 1_554
Ca3 Rh0 3.354995 1_545
Ca3 Rh8 3.354995 1_455
Ge0 Rh3 2.578296 1_555
Ge0 Rh8 2.578296 1_555
Ge0 Rh1 2.578296 1_555
Ge0 Rh5 2.578296 1_555
Ge0 Rh7 2.578296 1_555
Ge0 Rh0 2.578296 1_555
Rh0 Si1 2.355423 1_555
Rh0 Si2 2.357423 1_554
Rh0 Rh8 2.800836 1_555
Rh0 Rh5 2.800836 1_555
Rh0 Rh8 2.814787 1_564
Rh0 Rh5 2.814788 1_654
Rh1 Si3 2.355424 1_555
Rh1 Si0 2.357423 1_655
Rh1 Rh3 2.800836 1_555
Rh1 Rh7 2.800836 1_555
Rh1 Rh3 2.814788 1_645
Rh1 Rh7 2.814788 1_654
Rh2 Si1 2.409237 1_555
Rh2 Si3 2.409237 1_545
Rh2 Si2 2.412850 1_545
Rh2 Si0 2.412850 1_555
Rh3 Si3 2.355424 1_555
Rh3 Si0 2.357422 1_565
Rh3 Rh7 2.800836 1_555
Rh3 Rh7 2.814787 1_564
Rh4 Si1 2.409237 1_555
Rh4 Si3 2.409237 1_554
Rh4 Si2 2.412850 1_554
Rh4 Si0 2.412850 1_555
Rh5 Si1 2.355424 1_555
Rh5 Si2 2.357423 1_455
Rh5 Rh8 2.800836 1_555
Rh5 Rh8 2.814788 1_465
Rh6 Si1 2.409237 1_555
Rh6 Si3 2.409237 1_455
Rh6 Si2 2.412850 1_455
Rh6 Si0 2.412850 1_555
Rh7 Si3 2.355423 1_555
Rh7 Si0 2.357423 1_556
Rh8 Si1 2.355424 1_555
Rh8 Si2 2.357422 1_545
