# generated using pymatgen
data_Ti4NbMo5N12
_symmetry_space_group_name_H-M   'P 1'
_cell_length_a   5.04384935
_cell_length_b   5.05338816
_cell_length_c   10.24814380
_cell_angle_alpha   90.00000000
_cell_angle_beta   90.00000000
_cell_angle_gamma   119.93759741
_symmetry_Int_Tables_number   1
_chemical_formula_structural   Ti4NbMo5N12
_chemical_formula_sum   'Ti4 Nb1 Mo5 N12'
_cell_volume   226.35669933
_cell_formula_units_Z   1
loop_
 _symmetry_equiv_pos_site_id
 _symmetry_equiv_pos_as_xyz
  1  'x, y, z'
loop_
 _atom_site_type_symbol
 _atom_site_label
 _atom_site_symmetry_multiplicity
 _atom_site_fract_x
 _atom_site_fract_y
 _atom_site_fract_z
 _atom_site_occupancy
  Ti  Ti0  1  0.33369781  0.66702502  0.49876383  1
  Ti  Ti1  1  0.66667379  0.33297498  0.00123617  1
  Ti  Ti2  1  0.66667379  0.33297498  0.49876383  1
  Ti  Ti3  1  0.33369781  0.66702502  0.00123617  1
  Nb  Nb0  1  0.32501065  1.00000000  0.25000000  1
  Mo  Mo0  1  0.67465230  1.00000000  0.75000000  1
  Mo  Mo1  1  0.67351442  0.67458927  0.25000000  1
  Mo  Mo2  1  0.99892514  0.32541073  0.25000000  1
  Mo  Mo3  1  0.00083954  0.67469635  0.75000000  1
  Mo  Mo4  1  0.32614319  0.32530365  0.75000000  1
  N  N0  1  0.34338910  0.34846215  0.37846681  1
  N  N1  1  0.66200023  1.00000000  0.37904930  1
  N  N2  1  0.99492595  0.65153785  0.37846681  1
  N  N3  1  0.00012671  0.34431994  0.87603228  1
  N  N4  1  0.66200023  1.00000000  0.12095070  1
  N  N5  1  0.65580677  0.65568006  0.87603228  1
  N  N6  1  0.34383602  0.00000000  0.87588589  1
  N  N7  1  0.65580677  0.65568006  0.62396772  1
  N  N8  1  0.00012671  0.34431994  0.62396772  1
  N  N9  1  0.99492595  0.65153785  0.12153319  1
  N  N10  1  0.34383602  0.00000000  0.62411411  1
  N  N11  1  0.34338910  0.34846215  0.12153319  1
loop_
_geom_bond_atom_site_label_1
_geom_bond_atom_site_label_2
_geom_bond_distance
_geom_bond_site_symmetry_2
Mo0 N6 2.109155 1_565
Mo0 N10 2.109155 1_565
Mo0 N3 2.130661 1_665
Mo0 N8 2.130661 1_665
Mo0 N5 2.130661 1_555
Mo0 N7 2.130661 1_555
Mo1 N0 2.117293 1_555
Mo1 N11 2.117293 1_555
Mo1 N1 2.133514 1_555
Mo1 N4 2.133514 1_555
Mo1 N2 2.136231 1_555
Mo1 N9 2.136231 1_555
Mo2 N2 2.117296 1_555
Mo2 N9 2.117296 1_555
Mo2 N1 2.133513 1_545
Mo2 N4 2.133513 1_545
Mo2 N0 2.136235 1_655
Mo2 N11 2.136235 1_655
Mo3 N3 2.109394 1_555
Mo3 N8 2.109394 1_555
Mo3 N6 2.126287 1_565
Mo3 N10 2.126287 1_565
Mo3 N5 2.130530 1_455
Mo3 N7 2.130530 1_455
Mo4 N5 2.109393 1_555
Mo4 N7 2.109393 1_555
Mo4 N6 2.126287 1_555
Mo4 N10 2.126287 1_555
Mo4 N3 2.130530 1_555
Mo4 N8 2.130530 1_555
N0 Ti0 2.047512 1_555
N0 Ti2 2.076584 1_555
N0 Nb0 2.163280 1_545
N1 Ti2 2.073029 1_565
N1 Ti0 2.073030 1_555
N1 Nb0 2.153628 1_555
N2 Ti2 2.047507 1_555
N2 Ti0 2.076584 1_655
N2 Nb0 2.163282 1_655
N3 Ti1 2.093359 1_456
N3 Ti3 2.097125 1_556
N4 Ti1 2.073029 1_565
N4 Ti3 2.073030 1_555
N4 Nb0 2.153628 1_555
N5 Ti3 2.093363 1_556
N5 Ti1 2.097127 1_556
N6 Ti3 2.097205 1_546
N6 Ti1 2.097206 1_556
N7 Ti0 2.093363 1_555
N7 Ti2 2.097127 1_555
N8 Ti2 2.093359 1_455
N8 Ti0 2.097125 1_555
N9 Ti1 2.047507 1_555
N9 Ti3 2.076584 1_655
N9 Nb0 2.163282 1_655
N10 Ti0 2.097205 1_545
N10 Ti2 2.097206 1_555
N11 Ti3 2.047512 1_555
N11 Ti1 2.076584 1_555
N11 Nb0 2.163280 1_545
