# generated using pymatgen
data_Hf10ZnSn5Sb2
_symmetry_space_group_name_H-M   'P 1'
_cell_length_a   5.82292241
_cell_length_b   8.65137318
_cell_length_c   8.64192159
_cell_angle_alpha   120.03619228
_cell_angle_beta   89.98928750
_cell_angle_gamma   90.02138969
_symmetry_Int_Tables_number   1
_chemical_formula_structural   Hf10ZnSn5Sb2
_chemical_formula_sum   'Hf10 Zn1 Sn5 Sb2'
_cell_volume   376.88466765
_cell_formula_units_Z   1
loop_
 _symmetry_equiv_pos_site_id
 _symmetry_equiv_pos_as_xyz
  1  'x, y, z'
loop_
 _atom_site_type_symbol
 _atom_site_label
 _atom_site_symmetry_multiplicity
 _atom_site_fract_x
 _atom_site_fract_y
 _atom_site_fract_z
 _atom_site_occupancy
  Hf  Hf0  1  0.49941856  0.33364616  0.66694785  1
  Hf  Hf1  1  0.49941856  0.66669831  0.33305215  1
  Hf  Hf2  1  0.00051200  0.66660778  0.33278741  1
  Hf  Hf3  1  0.00051200  0.33382137  0.66721259  1
  Hf  Hf4  1  0.73607195  0.27404418  1.00000000  1
  Hf  Hf5  1  0.73598786  0.72693269  0.72685552  1
  Hf  Hf6  1  0.73598786  0.00007817  0.27314448  1
  Hf  Hf7  1  0.26377300  0.72445364  0.00000000  1
  Hf  Hf8  1  0.26464297  0.27475092  0.27475395  1
  Hf  Hf9  1  0.26464297  0.99999697  0.72524605  1
  Zn  Zn0  1  0.49856206  0.00044245  0.00000000  1
  Sn  Sn0  1  0.75391509  0.38908597  0.38891629  1
  Sn  Sn1  1  0.75391509  0.00016968  0.61108371  1
  Sn  Sn2  1  0.24666768  0.38661364  0.00000000  1
  Sn  Sn3  1  0.24652236  0.61196463  0.61154669  1
  Sn  Sn4  1  0.24652236  0.00041794  0.38845331  1
  Sb  Sb0  1  0.75123024  0.61005801  1.00000000  1
  Sb  Sb1  1  0.00170138  0.00021948  0.00000000  1
loop_
_geom_bond_atom_site_label_1
_geom_bond_atom_site_label_2
_geom_bond_distance
_geom_bond_site_symmetry_2
Hf0 Sb0 3.043228 1_555
Hf0 Sn4 3.053545 1_555
Hf0 Sn2 3.055927 1_556
Hf0 Sn0 3.057945 1_555
Hf0 Sn3 3.058172 1_555
Hf0 Sn1 3.059594 1_555
Hf1 Sb0 3.043228 1_554
Hf1 Sn3 3.053545 1_555
Hf1 Sn2 3.055927 1_555
Hf1 Sn1 3.057945 1_565
Hf1 Sn4 3.058172 1_565
Hf1 Sn0 3.059595 1_555
Hf2 Sb0 3.034760 1_454
Hf2 Sn2 3.036461 1_555
Hf2 Sn3 3.036572 1_555
Hf2 Sn0 3.037222 1_455
Hf2 Sn1 3.037680 1_465
Hf2 Sn4 3.038079 1_565
Hf3 Sb0 3.034757 1_455
Hf3 Sn2 3.036465 1_556
Hf3 Sn4 3.036576 1_555
Hf3 Sn1 3.037229 1_455
Hf3 Sn0 3.037676 1_455
Hf3 Sn3 3.038071 1_555
Hf4 Zn0 2.741000 1_556
Hf4 Sb1 2.829684 1_656
Hf4 Sb0 2.908288 1_555
Hf4 Sn1 2.991468 1_555
Hf4 Sn0 2.991468 1_556
Hf4 Sn2 3.011920 1_556
Hf4 Sn2 3.128251 1_656
Hf5 Zn0 2.737146 1_566
Hf5 Sb1 2.822657 1_666
Hf5 Sn0 2.921928 1_555
Hf5 Sn1 2.994526 1_565
Hf5 Sb0 2.998616 1_555
Hf5 Sn3 3.018640 1_555
Hf5 Sn3 3.135078 1_655
Hf6 Zn0 2.737142 1_555
Hf6 Sb1 2.822653 1_655
Hf6 Sn1 2.921933 1_555
Hf6 Sn0 2.994517 1_555
Hf6 Sb0 2.998622 1_544
Hf6 Sn4 3.018641 1_555
Hf6 Sn4 3.135080 1_655
Hf7 Zn0 2.750947 1_565
Hf7 Sb1 2.832540 1_565
Hf7 Sn2 2.924439 1_555
Hf7 Sn4 2.992662 1_565
Hf7 Sn3 2.992663 1_554
Hf7 Sb0 3.006364 1_554
Hf7 Sb0 3.143959 1_454
Hf8 Zn0 2.735898 1_555
Hf8 Sb1 2.824197 1_555
Hf8 Sn3 2.914291 1_555
Hf8 Sn2 2.980916 1_555
Hf8 Sn4 2.990612 1_555
Hf8 Sn0 3.015051 1_555
Hf8 Sn0 3.133716 1_455
Hf9 Zn0 2.735899 1_566
Hf9 Sb1 2.824197 1_566
Hf9 Sn4 2.914292 1_565
Hf9 Sn2 2.980916 1_566
Hf9 Sn3 2.990612 1_555
Hf9 Sn1 3.015051 1_565
Hf9 Sn1 3.133716 1_465
Sb1 Zn0 2.893181 1_555
Sb1 Zn0 2.929743 1_455
