# generated using pymatgen
data_Ba3AlO4F
_symmetry_space_group_name_H-M   'P 1'
_cell_length_a   7.28342152
_cell_length_b   8.18070645
_cell_length_c   10.49903262
_cell_angle_alpha   90.00000000
_cell_angle_beta   90.00000000
_cell_angle_gamma   90.00000000
_symmetry_Int_Tables_number   1
_chemical_formula_structural   Ba3AlO4F
_chemical_formula_sum   'Ba12 Al4 O16 F4'
_cell_volume   625.56946122
_cell_formula_units_Z   4
loop_
 _symmetry_equiv_pos_site_id
 _symmetry_equiv_pos_as_xyz
  1  'x, y, z'
loop_
 _atom_site_type_symbol
 _atom_site_label
 _atom_site_symmetry_multiplicity
 _atom_site_fract_x
 _atom_site_fract_y
 _atom_site_fract_z
 _atom_site_occupancy
  Ba  Ba0  1  0.40036742  0.02476289  0.83264501  1
  Ba  Ba1  1  0.09963258  0.47523711  0.33264501  1
  Ba  Ba2  1  0.59963258  0.52476289  0.16735499  1
  Ba  Ba3  1  0.90036742  0.97523711  0.66735499  1
  Ba  Ba4  1  0.59963258  0.97523711  0.16735499  1
  Ba  Ba5  1  0.90036742  0.52476289  0.66735499  1
  Ba  Ba6  1  0.40036742  0.47523711  0.83264501  1
  Ba  Ba7  1  0.09963258  0.02476289  0.33264501  1
  Ba  Ba8  1  0.90088422  0.25000000  0.96521782  1
  Ba  Ba9  1  0.59911578  0.25000000  0.46521782  1
  Ba  Ba10  1  0.09911578  0.75000000  0.03478218  1
  Ba  Ba11  1  0.40088422  0.75000000  0.53478218  1
  Al  Al0  1  0.18887332  0.25000000  0.60251476  1
  Al  Al1  1  0.31112668  0.25000000  0.10251476  1
  Al  Al2  1  0.81112668  0.75000000  0.39748524  1
  Al  Al3  1  0.68887332  0.75000000  0.89748524  1
  O  O0  1  0.30525506  0.06629316  0.57170811  1
  O  O1  1  0.19474494  0.43370684  0.07170811  1
  O  O2  1  0.69474494  0.56629316  0.42829189  1
  O  O3  1  0.80525506  0.93370684  0.92829189  1
  O  O4  1  0.69474494  0.93370684  0.42829189  1
  O  O5  1  0.80525506  0.56629316  0.92829189  1
  O  O6  1  0.30525506  0.43370684  0.57170811  1
  O  O7  1  0.19474494  0.06629316  0.07170811  1
  O  O8  1  0.98419202  0.25000000  0.51099984  1
  O  O9  1  0.51580798  0.25000000  0.01099984  1
  O  O10  1  0.01580798  0.75000000  0.48900016  1
  O  O11  1  0.48419202  0.75000000  0.98900016  1
  O  O12  1  0.12887154  0.25000000  0.76666135  1
  O  O13  1  0.37112846  0.25000000  0.26666135  1
  O  O14  1  0.87112846  0.75000000  0.23333865  1
  O  O15  1  0.62887154  0.75000000  0.73333865  1
  F  F0  1  0.66203743  0.25000000  0.72855647  1
  F  F1  1  0.83796257  0.25000000  0.22855647  1
  F  F2  1  0.33796257  0.75000000  0.27144353  1
  F  F3  1  0.16203743  0.75000000  0.77144353  1
loop_
_geom_bond_atom_site_label_1
_geom_bond_atom_site_label_2
_geom_bond_distance
_geom_bond_site_symmetry_2
Ba0 O9 2.758364 1_556
Ba0 O12 2.790211 1_555
Ba0 O0 2.846164 1_555
Ba0 O11 2.849548 1_545
Ba0 F0 2.867354 1_555
Ba0 F3 2.911783 1_545
Ba0 O7 2.942464 1_556
Ba0 O15 2.984849 1_545
Ba0 O3 3.203078 1_545
Ba1 O8 2.758364 1_455
Ba1 O13 2.790211 1_555
Ba1 O1 2.846164 1_555
Ba1 O10 2.849548 1_555
Ba1 F1 2.867354 1_455
Ba1 F2 2.911783 1_555
Ba1 O6 2.942464 1_555
Ba1 O14 2.984849 1_455
Ba1 O2 3.203078 1_455
Ba2 O11 2.758364 1_554
Ba2 O14 2.790211 1_555
Ba2 O2 2.846164 1_555
Ba2 O9 2.849548 1_555
Ba2 F2 2.867354 1_555
Ba2 F1 2.911783 1_555
Ba2 O5 2.942464 1_554
Ba2 O13 2.984849 1_555
Ba2 O1 3.203078 1_555
Ba3 O10 2.758364 1_655
Ba3 O15 2.790211 1_555
Ba3 O3 2.846164 1_555
Ba3 O8 2.849548 1_565
Ba3 F3 2.867354 1_655
Ba3 F0 2.911783 1_565
Ba3 O4 2.942464 1_555
Ba3 O12 2.984849 1_665
Ba3 O0 3.203078 1_665
Ba4 O11 2.758364 1_554
Ba4 O14 2.790211 1_555
Ba4 O4 2.846164 1_555
Ba4 O9 2.849548 1_565
Ba4 F2 2.867354 1_555
Ba4 F1 2.911783 1_565
Ba4 O3 2.942464 1_554
Ba4 O13 2.984849 1_565
Ba4 O7 3.203078 1_565
Ba5 O10 2.758364 1_655
Ba5 O15 2.790211 1_555
Ba5 O5 2.846164 1_555
Ba5 O8 2.849548 1_555
Ba5 F3 2.867354 1_655
Ba5 F0 2.911783 1_555
Ba5 O2 2.942464 1_555
Ba5 O12 2.984849 1_655
Ba5 O6 3.203078 1_655
Ba6 O9 2.758364 1_556
Ba6 O12 2.790211 1_555
Ba6 O6 2.846164 1_555
Ba6 O11 2.849548 1_555
Ba6 F0 2.867354 1_555
Ba6 F3 2.911783 1_555
Ba6 O1 2.942464 1_556
Ba6 O15 2.984849 1_555
Ba6 O5 3.203078 1_555
Ba7 O8 2.758364 1_455
Ba7 O13 2.790211 1_555
Ba7 O7 2.846164 1_555
Ba7 O10 2.849548 1_545
Ba7 F1 2.867354 1_455
Ba7 F2 2.911783 1_545
Ba7 O0 2.942464 1_555
Ba7 O14 2.984849 1_445
Ba7 O4 3.203078 1_445
Ba8 O12 2.665168 1_655
Ba8 O5 2.707506 1_555
Ba8 O3 2.707506 1_545
Ba8 F1 2.802526 1_556
Ba8 O1 2.844208 1_656
Ba8 O7 2.844208 1_656
Ba8 O9 2.845563 1_556
Ba8 F0 3.033166 1_555
Ba9 O13 2.665168 1_555
Ba9 O2 2.707506 1_555
Ba9 O4 2.707506 1_545
Ba9 F0 2.802526 1_555
Ba9 O6 2.844208 1_555
Ba9 O0 2.844208 1_555
Ba9 O8 2.845563 1_555
Ba9 F1 3.033166 1_555
Ba10 O14 2.665168 1_455
Ba10 O7 2.707506 1_565
Ba10 O1 2.707506 1_555
Ba10 F3 2.802526 1_554
Ba10 O3 2.844208 1_454
Ba10 O5 2.844208 1_454
Ba10 O11 2.845563 1_554
Ba10 F2 3.033166 1_555
Ba11 O15 2.665168 1_555
Ba11 O0 2.707506 1_565
Ba11 O6 2.707506 1_555
Ba11 F2 2.802526 1_555
Ba11 O4 2.844208 1_555
Ba11 O2 2.844208 1_555
Ba11 O10 2.845563 1_555
Ba11 F3 3.033166 1_555
Al0 O6 1.755477 1_555
Al0 O0 1.755477 1_555
Al0 O8 1.773583 1_455
Al0 O12 1.777927 1_555
Al1 O1 1.755477 1_555
Al1 O7 1.755477 1_555
Al1 O9 1.773583 1_555
Al1 O13 1.777927 1_555
Al2 O4 1.755477 1_555
Al2 O2 1.755477 1_555
Al2 O10 1.773583 1_655
Al2 O14 1.777927 1_555
Al3 O3 1.755477 1_555
Al3 O5 1.755477 1_555
Al3 O11 1.773583 1_555
Al3 O15 1.777927 1_555
