# generated using pymatgen
data_LuMnBr
_symmetry_space_group_name_H-M   'P 1'
_cell_length_a   3.72475060
_cell_length_b   3.72475052
_cell_length_c   11.61461014
_cell_angle_alpha   90.00000000
_cell_angle_beta   90.00000000
_cell_angle_gamma   120.00000922
_symmetry_Int_Tables_number   1
_chemical_formula_structural   LuMnBr
_chemical_formula_sum   'Lu2 Mn2 Br2'
_cell_volume   139.54992778
_cell_formula_units_Z   2
loop_
 _symmetry_equiv_pos_site_id
 _symmetry_equiv_pos_as_xyz
  1  'x, y, z'
loop_
 _atom_site_type_symbol
 _atom_site_label
 _atom_site_symmetry_multiplicity
 _atom_site_fract_x
 _atom_site_fract_y
 _atom_site_fract_z
 _atom_site_occupancy
  Lu  Lu0  1  0.00000000  0.00000000  0.17562860  1
  Lu  Lu1  1  0.00000000  0.00000000  0.82437140  1
  Mn  Mn0  1  0.66666800  0.33333500  0.00606082  1
  Mn  Mn1  1  0.33333300  0.66666600  0.99393918  1
  Br  Br0  1  0.33333300  0.66666600  0.33817398  1
  Br  Br1  1  0.66666800  0.33333500  0.66182602  1
loop_
_geom_bond_atom_site_label_1
_geom_bond_atom_site_label_2
_geom_bond_distance
_geom_bond_site_symmetry_2
Lu0 Mn0 2.916051 1_445
Lu0 Mn0 2.916056 1_455
Lu0 Mn0 2.916058 1_555
Lu0 Mn1 3.012929 1_554
Lu0 Mn1 3.012931 1_444
Lu0 Mn1 3.012932 1_544
Lu1 Mn1 2.916053 1_555
Lu1 Mn1 2.916056 1_445
Lu1 Mn1 2.916056 1_545
Lu1 Mn0 3.012927 1_446
Lu1 Mn0 3.012932 1_456
Lu1 Mn0 3.012934 1_556
Mn0 Mn1 2.155084 1_654
Mn0 Mn1 2.155087 1_554
Mn0 Mn1 2.155097 1_544
Br0 Lu0 2.861599 1_555
Br0 Lu0 2.861602 1_665
Br0 Lu0 2.861602 1_565
Br1 Lu1 2.861597 1_665
Br1 Lu1 2.861602 1_655
Br1 Lu1 2.861604 1_555
