# generated using pymatgen
data_Rb13Ti2(In3Bi5)2
_symmetry_space_group_name_H-M   'P 1'
_cell_length_a   10.18052370
_cell_length_b   10.05181052
_cell_length_c   14.45240903
_cell_angle_alpha   80.88562204
_cell_angle_beta   77.97666018
_cell_angle_gamma   63.62698937
_symmetry_Int_Tables_number   1
_chemical_formula_structural   Rb13Ti2(In3Bi5)2
_chemical_formula_sum   'Rb13 Ti2 In6 Bi10'
_cell_volume   1292.29183187
_cell_formula_units_Z   1
loop_
 _symmetry_equiv_pos_site_id
 _symmetry_equiv_pos_as_xyz
  1  'x, y, z'
loop_
 _atom_site_type_symbol
 _atom_site_label
 _atom_site_symmetry_multiplicity
 _atom_site_fract_x
 _atom_site_fract_y
 _atom_site_fract_z
 _atom_site_occupancy
  Rb  Rb0  1  0.49856074  0.85929185  0.35227590  1
  Rb  Rb1  1  0.50143926  0.14070815  0.64772410  1
  Rb  Rb2  1  0.86342855  0.57643856  0.88828455  1
  Rb  Rb3  1  0.13657145  0.42356144  0.11171545  1
  Rb  Rb4  1  0.09339248  0.78628436  0.43422849  1
  Rb  Rb5  1  0.90660752  0.21371564  0.56577151  1
  Rb  Rb6  1  0.73670073  0.70254990  0.59728143  1
  Rb  Rb7  1  0.26329927  0.29745010  0.40271857  1
  Rb  Rb8  1  0.50000000  0.50000000  0.00000000  1
  Rb  Rb9  1  0.30409082  0.93695300  0.08972639  1
  Rb  Rb10  1  0.69590918  0.06304700  0.91027361  1
  Rb  Rb11  1  0.88653190  0.85618300  0.16913324  1
  Rb  Rb12  1  0.11346810  0.14381700  0.83086676  1
  Ti  Ti0  1  0.37973780  0.73526523  0.77494347  1
  Ti  Ti1  1  0.62026220  0.26473477  0.22505653  1
  In  In0  1  0.02092863  0.81613827  0.70917028  1
  In  In1  1  0.97907137  0.18386173  0.29082972  1
  In  In2  1  0.59817052  0.44319093  0.41280996  1
  In  In3  1  0.40182948  0.55680907  0.58719004  1
  In  In4  1  0.72387909  0.56704418  0.16645874  1
  In  In5  1  0.27612091  0.43295582  0.83354126  1
  Bi  Bi0  1  0.41937639  0.56532544  0.25285475  1
  Bi  Bi1  1  0.58062361  0.43467456  0.74714525  1
  Bi  Bi2  1  0.12643793  0.74942583  0.90546723  1
  Bi  Bi3  1  0.87356207  0.25057417  0.09453277  1
  Bi  Bi4  1  0.70993176  0.11220910  0.39736904  1
  Bi  Bi5  1  0.29006824  0.88779090  0.60263096  1
  Bi  Bi6  1  0.86431042  0.51693369  0.35379977  1
  Bi  Bi7  1  0.13568958  0.48306631  0.64620023  1
  Bi  Bi8  1  0.50832652  0.86324793  0.84620999  1
  Bi  Bi9  1  0.49167348  0.13675207  0.15379001  1
loop_
_geom_bond_atom_site_label_1
_geom_bond_atom_site_label_2
_geom_bond_distance
_geom_bond_site_symmetry_2
Rb6 Ti0 3.902013 1_555
Rb7 Ti1 3.902013 1_555
Rb8 Ti1 3.784288 1_555
Rb8 Ti0 3.784288 1_554
Rb11 Ti1 3.887790 1_565
Rb12 Ti0 3.887790 1_545
In0 Rb2 3.847641 1_455
In0 Rb4 3.922164 1_555
In0 Rb5 3.983636 1_465
In0 Rb10 4.066739 1_465
In0 Rb6 4.214371 1_455
In1 Rb3 3.847641 1_655
In1 Rb5 3.922164 1_555
In1 Rb4 3.983636 1_645
In1 Rb9 4.066739 1_645
In1 Rb7 4.214371 1_655
In2 In3 2.904515 1_555
In2 Ti1 3.400110 1_555
In2 Rb0 3.837934 1_555
In2 Rb5 3.861245 1_555
In3 Ti0 3.400110 1_555
In3 Rb1 3.837934 1_555
In3 Rb4 3.861245 1_555
In4 Ti1 3.567124 1_555
In4 Rb3 3.735132 1_655
In4 Rb0 3.879376 1_555
In4 Rb11 3.940605 1_555
In4 Rb8 3.949572 1_555
In4 Rb2 3.976096 1_554
In5 Ti0 3.567124 1_555
In5 Rb2 3.735132 1_455
In5 Rb1 3.879376 1_555
In5 Rb12 3.940605 1_555
In5 Rb8 3.949572 1_556
In5 Rb3 3.976096 1_556
Bi0 Ti1 2.832965 1_555
Bi0 In2 3.005521 1_555
Bi0 In4 3.097979 1_555
Bi0 Rb8 3.673006 1_555
Bi0 Rb4 3.806508 1_555
Bi0 Rb7 3.871147 1_555
Bi0 Rb9 3.918868 1_555
Bi0 Rb0 3.922990 1_555
Bi1 Ti0 2.832965 1_555
Bi1 In3 3.005521 1_555
Bi1 In5 3.097979 1_555
Bi1 Rb8 3.673006 1_556
Bi1 Rb5 3.806508 1_555
Bi1 Rb6 3.871147 1_555
Bi1 Rb10 3.918868 1_555
Bi1 Rb1 3.922990 1_555
Bi2 Ti0 2.821499 1_555
Bi2 In5 3.098883 1_555
Bi2 In0 3.111068 1_555
Bi2 Rb2 3.847704 1_455
Bi2 Rb12 3.890506 1_565
Bi2 Rb8 3.901816 1_556
Bi2 Rb3 4.044683 1_556
Bi2 Rb11 4.089868 1_456
Bi2 Rb10 4.101281 1_465
Bi3 Ti1 2.821499 1_555
Bi3 In4 3.098883 1_555
Bi3 In1 3.111068 1_555
Bi3 Rb3 3.847704 1_655
Bi3 Rb11 3.890506 1_545
Bi3 Rb8 3.901816 1_555
Bi3 Rb2 4.044683 1_554
Bi3 Rb12 4.089868 1_654
Bi3 Rb9 4.101281 1_645
Bi4 Ti1 2.807093 1_555
Bi4 In2 3.029763 1_555
Bi4 In1 3.168804 1_555
Bi4 Rb1 3.777236 1_555
Bi4 Rb4 3.899707 1_645
Bi4 Rb5 3.950393 1_555
Bi4 Rb7 4.065114 1_555
Bi4 Rb11 4.104132 1_545
Bi4 Rb0 4.181847 1_545
Bi5 Ti0 2.807093 1_555
Bi5 In3 3.029763 1_555
Bi5 In0 3.168804 1_555
Bi5 Rb0 3.777236 1_555
Bi5 Rb5 3.899707 1_465
Bi5 Rb4 3.950393 1_555
Bi5 Rb6 4.065114 1_555
Bi5 Rb12 4.104132 1_565
Bi5 Rb1 4.181847 1_565
Bi6 In2 3.039603 1_555
Bi6 In4 3.188920 1_555
Bi6 In1 3.232548 1_555
Bi6 Rb0 3.786000 1_555
Bi6 Rb7 3.821918 1_655
Bi6 Rb5 3.909673 1_555
Bi6 Rb3 3.936163 1_655
Bi6 Rb6 3.946327 1_555
Bi6 Rb11 4.043905 1_555
Bi7 In3 3.039603 1_555
Bi7 In5 3.188920 1_555
Bi7 In0 3.232548 1_555
Bi7 Rb1 3.786000 1_555
Bi7 Rb6 3.821918 1_455
Bi7 Rb4 3.909673 1_555
Bi7 Rb2 3.936163 1_455
Bi7 Rb7 3.946327 1_555
Bi7 Rb12 4.043905 1_555
Bi8 Ti0 2.628172 1_555
Bi8 Rb2 3.584881 1_555
Bi8 Rb10 3.642901 1_565
Bi8 Rb1 3.658907 1_565
Bi8 Rb9 3.696899 1_556
Bi8 Rb12 3.776690 1_565
Bi8 Rb8 3.988067 1_556
Bi8 Rb6 3.997167 1_555
Bi9 Ti1 2.628172 1_555
Bi9 Rb3 3.584881 1_555
Bi9 Rb9 3.642901 1_545
Bi9 Rb0 3.658907 1_545
Bi9 Rb10 3.696899 1_554
Bi9 Rb11 3.776690 1_545
Bi9 Rb8 3.988067 1_555
Bi9 Rb7 3.997167 1_555
