# generated using pymatgen
data_Sr2ScAlO5
_symmetry_space_group_name_H-M   'P 1'
_cell_length_a   5.67416002
_cell_length_b   5.91391721
_cell_length_c   8.46142732
_cell_angle_alpha   110.45449645
_cell_angle_beta   109.59052635
_cell_angle_gamma   89.99999478
_symmetry_Int_Tables_number   1
_chemical_formula_structural   Sr2ScAlO5
_chemical_formula_sum   'Sr4 Sc2 Al2 O10'
_cell_volume   248.41593809
_cell_formula_units_Z   2
loop_
 _symmetry_equiv_pos_site_id
 _symmetry_equiv_pos_as_xyz
  1  'x, y, z'
loop_
 _atom_site_type_symbol
 _atom_site_label
 _atom_site_symmetry_multiplicity
 _atom_site_fract_x
 _atom_site_fract_y
 _atom_site_fract_z
 _atom_site_occupancy
  Sr  Sr0  1  0.12224453  0.63289957  0.22948339  1
  Sr  Sr1  1  0.89276114  0.36710043  0.77051661  1
  Sr  Sr2  1  0.39276114  0.90341617  0.77051661  1
  Sr  Sr3  1  0.62224453  0.09658383  0.22948339  1
  Sc  Sc0  1  0.50423881  0.50000000  1.00000000  1
  Sc  Sc1  1  0.00423881  0.00000000  1.00000000  1
  Al  Al0  1  0.27476106  0.32484740  0.50000000  1
  Al  Al1  1  0.77476106  0.67515260  0.50000000  1
  O  O0  1  0.24275317  0.73913773  0.97393604  1
  O  O1  1  0.26881713  0.26086227  0.02606396  1
  O  O2  1  0.76881713  0.26520269  0.02606396  1
  O  O3  1  0.74275317  0.73479731  0.97393604  1
  O  O4  1  0.64086359  0.71655192  0.29550324  1
  O  O5  1  0.34536136  0.28344808  0.70449676  1
  O  O6  1  0.84536136  0.92104968  0.70449676  1
  O  O7  1  0.14086359  0.07895032  0.29550324  1
  O  O8  1  0.06369820  0.55100215  0.50000000  1
  O  O9  1  0.56369820  0.44899785  0.50000000  1
loop_
_geom_bond_atom_site_label_1
_geom_bond_atom_site_label_2
_geom_bond_distance
_geom_bond_site_symmetry_2
Al0 O5 1.745205 1_555
Al0 O7 1.745208 1_555
Al0 O8 1.795287 1_555
Al0 O9 1.796372 1_555
Al1 O4 1.745206 1_555
Al1 O6 1.745208 1_555
Al1 O9 1.795287 1_555
Al1 O8 1.796372 1_655
O0 Sc1 2.054891 1_565
O0 Sc0 2.061232 1_555
O0 Sr2 2.604257 1_555
O0 Sr1 2.609262 1_455
O0 Sr3 2.731990 1_566
O0 Sr0 2.734747 1_556
O1 Sc1 2.054891 1_554
O1 Sc0 2.061232 1_554
O1 Sr3 2.604257 1_555
O1 Sr0 2.609262 1_555
O1 Sr2 2.731990 1_544
O1 Sr1 2.734747 1_454
O2 Sc0 2.054887 1_554
O2 Sc1 2.061236 1_654
O2 Sr0 2.604254 1_655
O2 Sr3 2.609266 1_555
O2 Sr1 2.731987 1_554
O2 Sr2 2.734750 1_544
O3 Sc0 2.054887 1_555
O3 Sc1 2.061236 1_665
O3 Sr1 2.604254 1_555
O3 Sr2 2.609266 1_555
O3 Sr0 2.731987 1_656
O3 Sr3 2.734750 1_566
O4 Sc0 2.225997 1_554
O4 Sr3 2.492447 1_565
O4 Sr0 2.814414 1_555
O4 Sr0 2.974489 1_655
O5 Sc0 2.225997 1_555
O5 Sr2 2.492447 1_545
O5 Sr1 2.814419 1_455
O5 Sr1 2.974483 1_555
O6 Sc1 2.225998 1_665
O6 Sr1 2.492441 1_565
O6 Sr2 2.814420 1_555
O6 Sr2 2.974484 1_655
O7 Sc1 2.225998 1_554
O7 Sr0 2.492441 1_545
O7 Sr3 2.814414 1_455
O7 Sr3 2.974489 1_555
O8 Sr2 2.620881 1_555
O8 Sr0 2.620881 1_555
O9 Sr1 2.620881 1_555
O9 Sr3 2.620881 1_555
