# generated using pymatgen
data_Zr10In6CuP
_symmetry_space_group_name_H-M   'P 1'
_cell_length_a   8.71686042
_cell_length_b   8.71686037
_cell_length_c   5.85040745
_cell_angle_alpha   90.00000000
_cell_angle_beta   90.00000000
_cell_angle_gamma   120.00000018
_symmetry_Int_Tables_number   1
_chemical_formula_structural   Zr10In6CuP
_chemical_formula_sum   'Zr10 In6 Cu1 P1'
_cell_volume   384.97889853
_cell_formula_units_Z   1
loop_
 _symmetry_equiv_pos_site_id
 _symmetry_equiv_pos_as_xyz
  1  'x, y, z'
loop_
 _atom_site_type_symbol
 _atom_site_label
 _atom_site_symmetry_multiplicity
 _atom_site_fract_x
 _atom_site_fract_y
 _atom_site_fract_z
 _atom_site_occupancy
  Zr  Zr0  1  0.74898614  0.74898614  0.25565837  1
  Zr  Zr1  1  0.25101386  0.00000000  0.25565837  1
  Zr  Zr2  1  0.00000000  0.25101386  0.25565837  1
  Zr  Zr3  1  0.25101386  0.25101386  0.74434163  1
  Zr  Zr4  1  0.74898614  0.00000000  0.74434163  1
  Zr  Zr5  1  0.00000000  0.74898614  0.74434163  1
  Zr  Zr6  1  0.66666700  0.33333300  0.50000000  1
  Zr  Zr7  1  0.33333300  0.66666700  0.50000000  1
  Zr  Zr8  1  0.33333300  0.66666700  0.00000000  1
  Zr  Zr9  1  0.66666700  0.33333300  0.00000000  1
  In  In0  1  0.39060933  0.39060933  0.24512826  1
  In  In1  1  0.60939067  0.00000000  0.24512826  1
  In  In2  1  1.00000000  0.60939067  0.24512826  1
  In  In3  1  0.60939067  0.60939067  0.75487174  1
  In  In4  1  0.39060933  0.00000000  0.75487174  1
  In  In5  1  0.00000000  0.39060933  0.75487174  1
  Cu  Cu0  1  0.00000000  0.00000000  0.00000000  1
  P  P0  1  0.00000000  0.00000000  0.50000000  1
loop_
_geom_bond_atom_site_label_1
_geom_bond_atom_site_label_2
_geom_bond_distance
_geom_bond_site_symmetry_2
Zr6 Zr9 2.925204 1_556
Zr6 Zr9 2.925204 1_555
Zr7 Zr8 2.925204 1_556
Zr7 Zr8 2.925204 1_555
In0 Zr1 2.989072 1_555
In0 Zr2 2.989072 1_555
In0 Zr8 3.049243 1_555
In0 Zr9 3.049243 1_555
In0 Zr7 3.076464 1_555
In0 Zr6 3.076464 1_555
In0 Zr0 3.124528 1_555
In0 Zr3 3.163953 1_555
In0 Zr3 3.172451 1_554
In1 Zr2 2.989072 1_655
In1 Zr0 2.989072 1_545
In1 Zr9 3.049236 1_555
In1 Zr8 3.049238 1_545
In1 Zr6 3.076457 1_555
In1 Zr7 3.076459 1_545
In1 Zr1 3.124528 1_555
In1 Zr4 3.163953 1_555
In1 Zr4 3.172451 1_554
In2 Zr1 2.989072 1_665
In2 Zr0 2.989072 1_555
In2 Zr8 3.049236 1_655
In2 Zr9 3.049238 1_555
In2 Zr7 3.076457 1_655
In2 Zr6 3.076459 1_555
In2 Zr2 3.124528 1_655
In2 Zr5 3.163953 1_655
In2 Zr5 3.172451 1_654
In3 Zr4 2.989072 1_565
In3 Zr5 2.989072 1_655
In3 Zr9 3.049243 1_556
In3 Zr8 3.049243 1_556
In3 Zr6 3.076464 1_555
In3 Zr7 3.076464 1_555
In3 Zr3 3.124528 1_555
In3 Zr0 3.163953 1_555
In3 Zr0 3.172451 1_556
In4 Zr3 2.989072 1_555
In4 Zr5 2.989072 1_545
In4 Zr8 3.049236 1_546
In4 Zr9 3.049238 1_556
In4 Zr7 3.076457 1_545
In4 Zr6 3.076459 1_555
In4 Zr4 3.124528 1_555
In4 Zr1 3.163953 1_555
In4 Zr1 3.172451 1_556
In5 Zr4 2.989072 1_455
In5 Zr3 2.989072 1_555
In5 Zr9 3.049236 1_456
In5 Zr8 3.049238 1_556
In5 Zr6 3.076457 1_455
In5 Zr7 3.076459 1_555
In5 Zr5 3.124528 1_555
In5 Zr2 3.163953 1_555
In5 Zr2 3.172451 1_556
Cu0 Zr2 2.650417 1_555
Cu0 Zr3 2.650417 1_554
Cu0 Zr0 2.650417 1_445
Cu0 Zr5 2.650417 1_544
Cu0 Zr1 2.650417 1_555
Cu0 Zr4 2.650417 1_454
P0 Zr3 2.613626 1_555
P0 Zr2 2.613626 1_555
P0 Zr5 2.613626 1_545
P0 Zr0 2.613626 1_445
P0 Zr1 2.613626 1_555
P0 Zr4 2.613626 1_455
