# generated using pymatgen
data_Zn24NiPtAu6
_symmetry_space_group_name_H-M   'P 1'
_cell_length_a   7.78684907
_cell_length_b   7.78684907
_cell_length_c   7.78684907
_cell_angle_alpha   90.00000000
_cell_angle_beta   90.00000000
_cell_angle_gamma   90.00000000
_symmetry_Int_Tables_number   1
_chemical_formula_structural   Zn24NiPtAu6
_chemical_formula_sum   'Zn24 Ni1 Pt1 Au6'
_cell_volume   472.15573694
_cell_formula_units_Z   1
loop_
 _symmetry_equiv_pos_site_id
 _symmetry_equiv_pos_as_xyz
  1  'x, y, z'
loop_
 _atom_site_type_symbol
 _atom_site_label
 _atom_site_symmetry_multiplicity
 _atom_site_fract_x
 _atom_site_fract_y
 _atom_site_fract_z
 _atom_site_occupancy
  Zn  Zn0  1  0.50000000  0.20033014  0.33611879  1
  Zn  Zn1  1  0.50000000  0.79966986  0.66388121  1
  Zn  Zn2  1  0.20033014  0.33611879  0.50000000  1
  Zn  Zn3  1  0.79966986  0.33611879  0.50000000  1
  Zn  Zn4  1  0.33611879  0.50000000  0.20033014  1
  Zn  Zn5  1  0.66388121  0.50000000  0.20033014  1
  Zn  Zn6  1  0.00000000  0.83865424  0.28709706  1
  Zn  Zn7  1  0.00000000  0.16134576  0.71290294  1
  Zn  Zn8  1  0.00000000  0.16134576  0.28709706  1
  Zn  Zn9  1  0.50000000  0.20033014  0.66388121  1
  Zn  Zn10  1  0.50000000  0.79966986  0.33611879  1
  Zn  Zn11  1  0.79966986  0.66388121  0.50000000  1
  Zn  Zn12  1  0.20033014  0.66388121  0.50000000  1
  Zn  Zn13  1  0.33611879  0.50000000  0.79966986  1
  Zn  Zn14  1  0.66388121  0.50000000  0.79966986  1
  Zn  Zn15  1  0.28709706  0.00000000  0.16134576  1
  Zn  Zn16  1  0.16134576  0.28709706  0.00000000  1
  Zn  Zn17  1  0.83865424  0.71290294  0.00000000  1
  Zn  Zn18  1  0.28709706  0.00000000  0.83865424  1
  Zn  Zn19  1  0.83865424  0.28709706  0.00000000  1
  Zn  Zn20  1  0.71290294  0.00000000  0.16134576  1
  Zn  Zn21  1  0.71290294  0.00000000  0.83865424  1
  Zn  Zn22  1  0.16134576  0.71290294  0.00000000  1
  Zn  Zn23  1  0.00000000  0.83865424  0.71290294  1
  Ni  Ni0  1  0.00000000  0.00000000  0.00000000  1
  Pt  Pt0  1  0.50000000  0.50000000  0.50000000  1
  Au  Au0  1  0.50000000  0.24808058  0.00000000  1
  Au  Au1  1  0.50000000  0.75191942  0.00000000  1
  Au  Au2  1  0.00000000  0.50000000  0.75191942  1
  Au  Au3  1  0.00000000  0.50000000  0.24808058  1
  Au  Au4  1  0.75191942  0.00000000  0.50000000  1
  Au  Au5  1  0.24808058  0.00000000  0.50000000  1
loop_
_geom_bond_atom_site_label_1
_geom_bond_atom_site_label_2
_geom_bond_distance
_geom_bond_site_symmetry_2
Zn0 Zn9 2.552237 1_555
Zn0 Zn20 2.652167 1_555
Zn0 Zn15 2.652167 1_555
Zn0 Zn3 2.862105 1_555
Zn0 Zn5 2.862105 1_555
Zn0 Zn4 2.862105 1_555
Zn0 Zn2 2.862105 1_555
Zn1 Zn10 2.552237 1_555
Zn1 Zn21 2.652167 1_565
Zn1 Zn18 2.652167 1_565
Zn1 Zn11 2.862105 1_555
Zn1 Zn14 2.862105 1_555
Zn1 Zn13 2.862105 1_555
Zn1 Zn12 2.862105 1_555
Zn2 Zn7 2.652167 1_555
Zn2 Zn8 2.652167 1_555
Zn2 Zn9 2.862105 1_555
Zn2 Zn4 2.862105 1_555
Zn3 Zn7 2.652167 1_655
Zn3 Zn8 2.652167 1_655
Zn3 Zn9 2.862105 1_555
Zn3 Zn5 2.862105 1_555
Zn4 Zn5 2.552237 1_555
Zn6 Zn8 2.512750 1_565
Zn10 Zn20 2.652167 1_565
Zn10 Zn15 2.652167 1_565
Zn10 Zn5 2.862105 1_555
Zn10 Zn4 2.862105 1_555
Zn10 Zn11 2.862105 1_555
Zn10 Zn12 2.862105 1_555
Zn11 Zn3 2.552237 1_555
Zn11 Zn23 2.652167 1_655
Zn11 Zn6 2.652167 1_655
Zn11 Zn14 2.862105 1_555
Zn11 Zn5 2.862105 1_555
Zn12 Zn2 2.552237 1_555
Zn12 Zn23 2.652167 1_555
Zn12 Zn6 2.652167 1_555
Zn12 Zn13 2.862105 1_555
Zn12 Zn4 2.862105 1_555
Zn13 Zn14 2.552237 1_555
Zn13 Zn22 2.652167 1_556
Zn13 Zn16 2.652167 1_556
Zn13 Zn2 2.862105 1_555
Zn13 Zn9 2.862105 1_555
Zn14 Zn17 2.652167 1_556
Zn14 Zn19 2.652167 1_556
Zn14 Zn3 2.862105 1_555
Zn14 Zn9 2.862105 1_555
Zn15 Zn18 2.512750 1_554
Zn15 Zn16 2.745022 1_555
Zn15 Zn8 2.745022 1_555
Zn15 Zn6 2.745022 1_545
Zn15 Zn22 2.745022 1_545
Zn16 Zn19 2.512750 1_455
Zn16 Zn4 2.652167 1_555
Zn16 Zn18 2.745022 1_554
Zn16 Zn8 2.745022 1_555
Zn16 Zn7 2.745022 1_554
Zn17 Zn22 2.512750 1_655
Zn17 Zn5 2.652167 1_555
Zn17 Zn6 2.745022 1_655
Zn17 Zn20 2.745022 1_565
Zn17 Zn21 2.745022 1_564
Zn17 Zn23 2.745022 1_654
Zn18 Zn9 2.652167 1_555
Zn18 Zn23 2.745022 1_545
Zn18 Zn7 2.745022 1_555
Zn18 Zn22 2.745022 1_546
Zn19 Zn5 2.652167 1_555
Zn19 Zn8 2.745022 1_655
Zn19 Zn20 2.745022 1_555
Zn19 Zn21 2.745022 1_554
Zn19 Zn7 2.745022 1_654
Zn20 Zn21 2.512750 1_554
Zn20 Zn6 2.745022 1_645
Zn20 Zn8 2.745022 1_655
Zn21 Zn9 2.652167 1_555
Zn21 Zn23 2.745022 1_645
Zn21 Zn7 2.745022 1_655
Zn22 Zn4 2.652167 1_555
Zn22 Zn6 2.745022 1_555
Zn22 Zn23 2.745022 1_554
Zn23 Zn7 2.512750 1_565
Ni0 Zn8 2.564430 1_555
Ni0 Zn6 2.564430 1_545
Ni0 Zn19 2.564430 1_455
Ni0 Zn15 2.564430 1_555
Ni0 Zn16 2.564430 1_555
Ni0 Zn18 2.564430 1_554
Ni0 Zn7 2.564430 1_554
Ni0 Zn22 2.564430 1_545
Ni0 Zn20 2.564430 1_455
Ni0 Zn23 2.564430 1_544
Ni0 Zn17 2.564430 1_445
Ni0 Zn21 2.564430 1_454
Pt0 Zn1 2.659629 1_555
Pt0 Zn14 2.659629 1_555
Pt0 Zn11 2.659629 1_555
Pt0 Zn13 2.659629 1_555
Pt0 Zn10 2.659629 1_555
Pt0 Zn3 2.659629 1_555
Pt0 Zn5 2.659629 1_555
Pt0 Zn9 2.659629 1_555
Pt0 Zn12 2.659629 1_555
Pt0 Zn4 2.659629 1_555
Pt0 Zn0 2.659629 1_555
Pt0 Zn2 2.659629 1_555
Au0 Zn0 2.643586 1_555
Au0 Zn9 2.643586 1_554
Au0 Zn16 2.654493 1_555
Au0 Zn19 2.654493 1_555
Au0 Zn5 2.812472 1_555
Au0 Zn4 2.812472 1_555
Au0 Zn14 2.812472 1_554
Au0 Zn13 2.812472 1_554
Au0 Zn21 2.838775 1_554
Au0 Zn20 2.838775 1_555
Au0 Zn15 2.838775 1_555
Au0 Zn18 2.838775 1_554
Au1 Zn10 2.643586 1_555
Au1 Zn1 2.643586 1_554
Au1 Zn22 2.654493 1_555
Au1 Zn17 2.654493 1_555
Au1 Zn5 2.812472 1_555
Au1 Zn4 2.812472 1_555
Au1 Zn14 2.812472 1_554
Au1 Zn13 2.812472 1_554
Au1 Zn20 2.838775 1_565
Au1 Zn21 2.838775 1_564
Au1 Zn15 2.838775 1_565
Au1 Zn18 2.838775 1_564
Au2 Zn13 2.643586 1_555
Au2 Zn14 2.643586 1_455
Au2 Zn23 2.654493 1_555
Au2 Zn7 2.654493 1_555
Au2 Zn12 2.812472 1_555
Au2 Zn2 2.812472 1_555
Au2 Zn11 2.812472 1_455
Au2 Zn3 2.812472 1_455
Au2 Zn17 2.838775 1_456
Au2 Zn22 2.838775 1_556
Au2 Zn16 2.838775 1_556
Au2 Zn19 2.838775 1_456
Au3 Zn4 2.643586 1_555
Au3 Zn5 2.643586 1_455
Au3 Zn8 2.654493 1_555
Au3 Zn6 2.654493 1_555
Au3 Zn12 2.812472 1_555
Au3 Zn2 2.812472 1_555
Au3 Zn11 2.812472 1_455
Au3 Zn3 2.812472 1_455
Au3 Zn17 2.838775 1_455
Au3 Zn22 2.838775 1_555
Au3 Zn19 2.838775 1_455
Au3 Zn16 2.838775 1_555
Au4 Zn3 2.643586 1_555
Au4 Zn11 2.643586 1_545
Au4 Zn20 2.654493 1_555
Au4 Zn21 2.654493 1_555
Au4 Zn9 2.812472 1_555
Au4 Zn0 2.812472 1_555
Au4 Zn1 2.812472 1_545
Au4 Zn10 2.812472 1_545
Au4 Zn7 2.838775 1_655
Au4 Zn23 2.838775 1_645
Au4 Zn8 2.838775 1_655
Au4 Zn6 2.838775 1_645
Au5 Zn2 2.643586 1_555
Au5 Zn12 2.643586 1_545
Au5 Zn18 2.654493 1_555
Au5 Zn15 2.654493 1_555
Au5 Zn9 2.812472 1_555
Au5 Zn0 2.812472 1_555
Au5 Zn1 2.812472 1_545
Au5 Zn10 2.812472 1_545
Au5 Zn23 2.838775 1_545
Au5 Zn7 2.838775 1_555
Au5 Zn6 2.838775 1_545
Au5 Zn8 2.838775 1_555
