# generated using pymatgen
data_Zr6Re5Si6Os
_symmetry_space_group_name_H-M   'P 1'
_cell_length_a   7.76339302
_cell_length_b   7.76320017
_cell_length_c   7.76320108
_cell_angle_alpha   126.76606372
_cell_angle_beta   127.65352267
_cell_angle_gamma   77.91021782
_symmetry_Int_Tables_number   1
_chemical_formula_structural   Zr6Re5Si6Os
_chemical_formula_sum   'Zr6 Re5 Si6 Os1'
_cell_volume   287.60487126
_cell_formula_units_Z   1
loop_
 _symmetry_equiv_pos_site_id
 _symmetry_equiv_pos_as_xyz
  1  'x, y, z'
loop_
 _atom_site_type_symbol
 _atom_site_label
 _atom_site_symmetry_multiplicity
 _atom_site_fract_x
 _atom_site_fract_y
 _atom_site_fract_z
 _atom_site_occupancy
  Zr  Zr0  1  0.45245451  0.65745027  0.70392662  1
  Zr  Zr1  1  0.54754549  0.25147111  0.20499476  1
  Zr  Zr2  1  0.75089774  0.85085590  0.60156236  1
  Zr  Zr3  1  0.24910226  0.85066462  0.09995916  1
  Zr  Zr4  1  0.04619170  0.25145883  0.70383303  1
  Zr  Zr5  1  0.95380830  0.65764233  0.20526613  1
  Re  Re0  1  0.00000000  0.50746705  0.50746705  1
  Re  Re1  1  0.12703056  0.25315198  0.12622918  1
  Re  Re2  1  0.87296944  0.99919863  0.12612243  1
  Re  Re3  1  0.37379928  0.00147654  0.62763361  1
  Re  Re4  1  0.62620072  0.25383333  0.62767825  1
  Si  Si0  1  0.24914177  0.25372231  0.50305373  1
  Si  Si1  1  0.75085823  0.25391096  0.00458054  1
  Si  Si2  1  0.33362597  0.58630087  0.25251036  1
  Si  Si3  1  0.66637403  0.91888440  0.25267490  1
  Si  Si4  1  0.16661852  0.91938289  0.75311014  1
  Si  Si5  1  0.83338148  0.58649162  0.75276437  1
  Os  Os0  1  0.50000000  0.50623636  0.00623636  1
loop_
_geom_bond_atom_site_label_1
_geom_bond_atom_site_label_2
_geom_bond_distance
_geom_bond_site_symmetry_2
Re0 Si0 2.454955 1_555
Re0 Si1 2.454956 1_455
Re0 Si4 2.637138 1_555
Re0 Si5 2.637138 1_455
Re0 Zr2 2.935179 1_455
Re0 Zr3 2.935184 1_556
Re0 Zr0 3.010334 1_555
Re0 Zr1 3.010335 1_455
Re0 Zr4 3.010454 1_555
Re0 Zr5 3.010468 1_455
Re1 Si1 2.459745 1_455
Re1 Si0 2.460584 1_555
Re1 Si4 2.639691 1_544
Re1 Si2 2.646469 1_555
Re1 Zr4 2.929909 1_554
Re1 Zr1 2.929950 1_555
Re1 Zr2 2.988560 1_444
Re1 Zr3 2.989263 1_545
Re1 Zr0 2.995833 1_555
Re1 Zr5 2.996360 1_455
Re2 Si0 2.459745 1_665
Re2 Si1 2.460581 1_565
Re2 Si5 2.639693 1_554
Re2 Si3 2.646463 1_555
Re2 Zr5 2.929891 1_555
Re2 Zr0 2.929946 1_554
Re2 Zr3 2.988560 1_655
Re2 Zr2 2.989268 1_554
Re2 Zr1 2.995825 1_565
Re2 Zr4 2.996346 1_665
Re3 Si0 2.456909 1_555
Re3 Si1 2.458612 1_556
Re3 Si4 2.651197 1_545
Re3 Si2 2.653585 1_545
Re3 Zr5 2.934918 1_445
Re3 Zr0 2.936857 1_545
Re3 Zr1 2.995406 1_556
Re3 Zr3 2.996174 1_545
Re3 Zr4 2.996845 1_555
Re3 Zr2 2.997589 1_545
Re4 Si1 2.456902 1_556
Re4 Si0 2.458612 1_555
Re4 Si5 2.651208 1_555
Re4 Si3 2.653587 1_545
Re4 Zr4 2.934927 1_655
Re4 Zr1 2.936873 1_555
Re4 Zr0 2.995418 1_555
Re4 Zr2 2.996170 1_545
Re4 Zr5 2.996845 1_556
Re4 Zr3 2.997586 1_545
Si0 Zr3 2.803740 1_545
Si0 Zr4 2.820840 1_555
Si0 Zr0 2.821452 1_555
Si1 Zr2 2.803740 1_544
Si1 Zr5 2.820857 1_555
Si1 Zr1 2.821446 1_555
Si2 Zr5 2.715456 1_455
Si2 Zr0 2.717279 1_555
Si2 Zr3 2.727835 1_555
Si2 Zr4 2.728031 1_554
Si2 Zr1 2.728208 1_555
Si2 Zr2 2.730340 1_555
Si3 Zr4 2.715459 1_665
Si3 Zr1 2.717275 1_565
Si3 Zr2 2.727841 1_555
Si3 Zr5 2.728029 1_555
Si3 Zr0 2.728203 1_554
Si3 Zr3 2.730343 1_555
Si4 Zr1 2.718542 1_566
Si4 Zr4 2.720361 1_565
Si4 Zr2 2.722896 1_455
Si4 Zr3 2.723032 1_556
Si4 Zr0 2.724051 1_555
Si4 Zr5 2.724468 1_455
Si5 Zr0 2.718545 1_555
Si5 Zr5 2.720350 1_556
Si5 Zr3 2.722894 1_656
Si5 Zr2 2.723025 1_555
Si5 Zr1 2.724057 1_555
Si5 Zr4 2.724461 1_655
Os0 Si0 2.456110 1_554
Os0 Si1 2.456115 1_555
Os0 Si3 2.639720 1_555
Os0 Si2 2.639720 1_555
Os0 Zr2 2.948535 1_555
Os0 Zr3 2.948535 1_555
Os0 Zr0 3.013360 1_554
Os0 Zr1 3.013361 1_555
Os0 Zr4 3.015102 1_554
Os0 Zr5 3.015108 1_555
