# generated using pymatgen
data_Be17Nb2
_symmetry_space_group_name_H-M   'P 1'
_cell_length_a   5.56668730
_cell_length_b   5.56670410
_cell_length_c   5.56670310
_cell_angle_alpha   83.05184098
_cell_angle_beta   83.05187013
_cell_angle_gamma   83.05139718
_symmetry_Int_Tables_number   1
_chemical_formula_structural   Be17Nb2
_chemical_formula_sum   'Be17 Nb2'
_cell_volume   168.98435602
_cell_formula_units_Z   1
loop_
 _symmetry_equiv_pos_site_id
 _symmetry_equiv_pos_as_xyz
  1  'x, y, z'
loop_
 _atom_site_type_symbol
 _atom_site_label
 _atom_site_symmetry_multiplicity
 _atom_site_fract_x
 _atom_site_fract_y
 _atom_site_fract_z
 _atom_site_occupancy
  Be  Be0  1  0.40119066  0.40119066  0.40119066  1
  Be  Be1  1  0.59880934  0.59880934  0.59880934  1
  Be  Be2  1  0.50000000  0.50000000  -0.00000000  1
  Be  Be3  1  0.00000000  0.50000000  0.50000000  1
  Be  Be4  1  0.50000000  -0.00000000  0.50000000  1
  Be  Be5  1  0.79467995  0.50000000  0.20532005  1
  Be  Be6  1  0.20532005  0.79467995  0.50000000  1
  Be  Be7  1  0.50000000  0.20532005  0.79467995  1
  Be  Be8  1  0.20532005  0.50000000  0.79467995  1
  Be  Be9  1  0.79467995  0.20532005  0.50000000  1
  Be  Be10  1  0.50000000  0.79467995  0.20532005  1
  Be  Be11  1  0.15287788  0.66082133  0.15287788  1
  Be  Be12  1  0.15287788  0.15287788  0.66082133  1
  Be  Be13  1  0.66082133  0.15287788  0.15287788  1
  Be  Be14  1  0.33917867  0.84712212  0.84712212  1
  Be  Be15  1  0.84712212  0.33917867  0.84712212  1
  Be  Be16  1  0.84712212  0.84712212  0.33917867  1
  Nb  Nb0  1  0.16039151  0.16039151  0.16039151  1
  Nb  Nb1  1  0.83960849  0.83960849  0.83960849  1
loop_
_geom_bond_atom_site_label_1
_geom_bond_atom_site_label_2
_geom_bond_distance
_geom_bond_site_symmetry_2
Be0 Be1 2.123430 1_555
Be0 Be3 2.252001 1_555
Be0 Be4 2.252006 1_555
Be0 Be2 2.252011 1_555
Be0 Be11 2.325039 1_555
Be0 Be13 2.325040 1_555
Be0 Be12 2.325052 1_555
Be0 Be9 2.420315 1_555
Be0 Be6 2.420320 1_555
Be0 Be7 2.420326 1_555
Be0 Be8 2.420326 1_555
Be0 Be5 2.420327 1_555
Be0 Be10 2.420332 1_555
Be0 Nb0 2.587407 1_555
Be1 Be3 2.252001 1_655
Be1 Be4 2.252006 1_565
Be1 Be2 2.252011 1_556
Be1 Be15 2.325039 1_555
Be1 Be14 2.325040 1_555
Be1 Be16 2.325052 1_555
Be1 Be6 2.420315 1_555
Be1 Be9 2.420320 1_555
Be1 Be10 2.420326 1_555
Be1 Be5 2.420326 1_555
Be1 Be8 2.420327 1_555
Be1 Be7 2.420332 1_555
Be1 Nb1 2.587407 1_555
Be2 Be5 2.109703 1_555
Be2 Be8 2.109703 1_554
Be2 Be7 2.109707 1_554
Be2 Nb1 2.827213 1_554
Be2 Nb0 2.827213 1_555
Be3 Be5 2.109705 1_455
Be3 Be8 2.109705 1_555
Be3 Be9 2.109712 1_455
Be3 Be6 2.109712 1_555
Be3 Nb1 2.827202 1_455
Be3 Nb0 2.827202 1_555
Be4 Be7 2.109707 1_555
Be4 Be6 2.109710 1_545
Be4 Be9 2.109710 1_555
Be4 Nb0 2.827197 1_555
Be4 Nb1 2.827197 1_545
Be5 Be9 2.175030 1_555
Be5 Nb0 2.615534 1_655
Be5 Nb1 2.615551 1_554
Be6 Be8 2.175030 1_555
Be6 Nb1 2.615545 1_455
Be6 Nb0 2.615548 1_565
Be7 Be8 2.175017 1_555
Be7 Be9 2.175027 1_555
Be7 Nb1 2.615535 1_545
Be7 Nb0 2.615548 1_556
Be8 Nb1 2.615534 1_455
Be8 Nb0 2.615551 1_556
Be9 Nb0 2.615545 1_655
Be9 Nb1 2.615548 1_545
Be10 Be4 2.109707 1_565
Be10 Be2 2.109707 1_555
Be10 Be5 2.175017 1_555
Be10 Be6 2.175027 1_555
Be10 Be16 2.216262 1_555
Be10 Be11 2.216266 1_555
Be10 Be14 2.256205 1_554
Be10 Be13 2.256213 1_565
Be10 Nb0 2.615535 1_565
Be10 Nb1 2.615548 1_554
Be11 Be16 2.110473 1_455
Be11 Be14 2.110485 1_554
Be11 Be2 2.151157 1_555
Be11 Be3 2.151169 1_555
Be11 Be6 2.216266 1_555
Be11 Be8 2.256207 1_554
Be11 Be5 2.256209 1_455
Be11 Nb1 2.639819 1_454
Be11 Nb0 2.776313 1_555
Be11 Nb0 2.791763 1_565
Be12 Be15 2.110473 1_455
Be12 Be14 2.110474 1_545
Be12 Be4 2.151157 1_555
Be12 Be3 2.151160 1_555
Be12 Be7 2.216262 1_555
Be12 Be8 2.216268 1_555
Be12 Be9 2.256200 1_455
Be12 Be6 2.256206 1_545
Be12 Nb1 2.639834 1_445
Be12 Nb0 2.776313 1_555
Be12 Nb0 2.791763 1_556
Be13 Be16 2.110474 1_545
Be13 Be15 2.110485 1_554
Be13 Be2 2.151160 1_555
Be13 Be4 2.151169 1_555
Be13 Be9 2.216265 1_555
Be13 Be5 2.216270 1_555
Be13 Be7 2.256205 1_554
Be13 Nb1 2.639823 1_544
Be13 Nb0 2.776304 1_555
Be13 Nb0 2.791755 1_655
Be14 Be2 2.151160 1_556
Be14 Be4 2.151169 1_565
Be14 Be6 2.216265 1_555
Be14 Be8 2.216270 1_555
Be14 Be7 2.256213 1_565
Be14 Nb0 2.639823 1_566
Be14 Nb1 2.776304 1_555
Be14 Nb1 2.791755 1_455
Be15 Be2 2.151157 1_556
Be15 Be3 2.151169 1_655
Be15 Be7 2.216266 1_555
Be15 Be9 2.216266 1_555
Be15 Be5 2.256207 1_556
Be15 Be8 2.256209 1_655
Be15 Nb0 2.639819 1_656
Be15 Nb1 2.776313 1_555
Be15 Nb1 2.791763 1_545
Be16 Be4 2.151157 1_565
Be16 Be3 2.151160 1_655
Be16 Be5 2.216268 1_555
Be16 Be6 2.256200 1_655
Be16 Be9 2.256206 1_565
Be16 Nb0 2.639834 1_665
Be16 Nb1 2.776313 1_555
Be16 Nb1 2.791763 1_554
