# generated using pymatgen
data_RbNO3
_symmetry_space_group_name_H-M   'P 1'
_cell_length_a   9.04392190
_cell_length_b   6.05199393
_cell_length_c   6.05199393
_cell_angle_alpha   60.00000000
_cell_angle_beta   47.99633671
_cell_angle_gamma   47.99633671
_symmetry_Int_Tables_number   1
_chemical_formula_structural   RbNO3
_chemical_formula_sum   'Rb2 N2 O6'
_cell_volume   182.09644395
_cell_formula_units_Z   2
loop_
 _symmetry_equiv_pos_site_id
 _symmetry_equiv_pos_as_xyz
  1  'x, y, z'
loop_
 _atom_site_type_symbol
 _atom_site_label
 _atom_site_symmetry_multiplicity
 _atom_site_fract_x
 _atom_site_fract_y
 _atom_site_fract_z
 _atom_site_occupancy
  Rb  Rb0  1  0.25000000  0.50000000  0.50000000  1
  Rb  Rb1  1  0.75000000  0.50000000  0.50000000  1
  N  N0  1  -0.00000000  0.00000000  0.00000000  1
  N  N1  1  0.50000000  0.00000000  0.00000000  1
  O  O0  1  -0.00000000  0.20816402  0.00000000  1
  O  O1  1  0.00000000  -0.00000000  0.79183598  1
  O  O2  1  0.50000000  0.00000000  0.20816402  1
  O  O3  1  0.50000000  0.79183598  -0.00000000  1
  O  O4  1  0.50000000  0.20816402  0.79183598  1
  O  O5  1  -0.00000000  0.79183598  0.20816402  1
loop_
_geom_bond_atom_site_label_1
_geom_bond_atom_site_label_2
_geom_bond_distance
_geom_bond_site_symmetry_2
N0 O5 1.259807 1_545
N0 O0 1.259807 1_555
N0 O1 1.259807 1_554
N1 O4 1.259807 1_554
N1 O3 1.259807 1_545
N1 O2 1.259807 1_555
O0 Rb1 2.869052 1_455
O0 Rb0 2.869052 1_554
O1 Rb0 2.869052 1_545
O1 Rb1 2.869052 1_455
O2 Rb0 2.869052 1_555
O2 Rb1 2.869052 1_545
O3 Rb1 2.869052 1_554
O3 Rb0 2.869052 1_555
O4 Rb0 2.869052 1_555
O4 Rb1 2.869052 1_555
O5 Rb0 2.869052 1_555
O5 Rb1 2.869052 1_455
