# generated using pymatgen
data_Mg3ScGe6Ir7
_symmetry_space_group_name_H-M   'P 1'
_cell_length_a   6.93689134
_cell_length_b   7.04914170
_cell_length_c   7.04914162
_cell_angle_alpha   109.79154107
_cell_angle_beta   109.14896300
_cell_angle_gamma   109.14896826
_symmetry_Int_Tables_number   1
_chemical_formula_structural   Mg3ScGe6Ir7
_chemical_formula_sum   'Mg3 Sc1 Ge6 Ir7'
_cell_volume   266.39573850
_cell_formula_units_Z   1
loop_
 _symmetry_equiv_pos_site_id
 _symmetry_equiv_pos_as_xyz
  1  'x, y, z'
loop_
 _atom_site_type_symbol
 _atom_site_label
 _atom_site_symmetry_multiplicity
 _atom_site_fract_x
 _atom_site_fract_y
 _atom_site_fract_z
 _atom_site_occupancy
  Mg  Mg0  1  0.50000000  0.50000000  0.50000000  1
  Mg  Mg1  1  0.00000000  0.00000000  0.50000000  1
  Mg  Mg2  1  0.00000000  0.50000000  0.00000000  1
  Sc  Sc0  1  0.50000000  0.00000000  0.00000000  1
  Ge  Ge0  1  0.00418690  0.31130994  0.31130994  1
  Ge  Ge1  1  0.99581310  0.68869006  0.68869006  1
  Ge  Ge2  1  0.30712305  0.00000000  0.31130994  1
  Ge  Ge3  1  0.69287695  0.00000000  0.68869006  1
  Ge  Ge4  1  0.30712305  0.31130994  0.00000000  1
  Ge  Ge5  1  0.69287695  0.68869006  0.00000000  1
  Ir  Ir0  1  0.50000000  0.74928481  0.25071519  1
  Ir  Ir1  1  0.50000000  0.25071519  0.74928481  1
  Ir  Ir2  1  0.24928481  0.49856962  0.74928481  1
  Ir  Ir3  1  0.75071519  0.50143038  0.25071519  1
  Ir  Ir4  1  0.75071519  0.25071519  0.50143038  1
  Ir  Ir5  1  0.24928481  0.74928481  0.49856962  1
  Ir  Ir6  1  0.00000000  0.00000000  0.00000000  1
loop_
_geom_bond_atom_site_label_1
_geom_bond_atom_site_label_2
_geom_bond_distance
_geom_bond_site_symmetry_2
Ge0 Ir6 2.507473 1_555
Ge0 Ir5 2.547346 1_555
Ge0 Ir2 2.547346 1_555
Ge0 Ir4 2.551682 1_455
Ge0 Ir3 2.551682 1_455
Ge0 Mg0 2.857832 1_555
Ge0 Sc0 2.920974 1_455
Ge0 Mg2 2.923335 1_555
Ge0 Mg1 2.923335 1_555
Ge1 Ir6 2.507473 1_666
Ge1 Ir4 2.547346 1_555
Ge1 Ir3 2.547346 1_555
Ge1 Ir5 2.551682 1_655
Ge1 Ir2 2.551682 1_655
Ge1 Mg0 2.857832 1_555
Ge1 Sc0 2.920974 1_666
Ge1 Mg2 2.923335 1_656
Ge1 Mg1 2.923335 1_665
Ge2 Ir6 2.507473 1_555
Ge2 Ir5 2.547346 1_545
Ge2 Ir1 2.547346 1_555
Ge2 Ir4 2.551682 1_555
Ge2 Ir0 2.551682 1_545
Ge2 Mg1 2.857832 1_555
Ge2 Sc0 2.920974 1_555
Ge2 Mg0 2.923335 1_555
Ge2 Mg2 2.923335 1_545
Ge3 Ir6 2.507473 1_656
Ge3 Ir4 2.547346 1_555
Ge3 Ir0 2.547346 1_545
Ge3 Ir5 2.551682 1_545
Ge3 Ir1 2.551682 1_555
Ge3 Mg1 2.857832 1_655
Ge3 Sc0 2.920974 1_556
Ge3 Mg0 2.923335 1_545
Ge3 Mg2 2.923335 1_656
Ge4 Ir6 2.507472 1_555
Ge4 Ir2 2.547346 1_554
Ge4 Ir0 2.547346 1_555
Ge4 Ir1 2.551682 1_554
Ge4 Ir3 2.551682 1_555
Ge4 Mg2 2.857832 1_555
Ge4 Sc0 2.920974 1_555
Ge4 Mg0 2.923335 1_555
Ge4 Mg1 2.923335 1_554
Ge5 Ir6 2.507472 1_665
Ge5 Ir3 2.547346 1_555
Ge5 Ir1 2.547346 1_554
Ge5 Ir0 2.551682 1_555
Ge5 Ir2 2.551682 1_554
Ge5 Mg2 2.857832 1_655
Ge5 Sc0 2.920974 1_565
Ge5 Mg0 2.923335 1_554
Ge5 Mg1 2.923335 1_665
Ir0 Mg1 2.849257 1_665
Ir0 Mg2 2.849257 1_555
Ir0 Mg0 2.875228 1_555
Ir0 Sc0 2.891726 1_565
Ir1 Mg1 2.849257 1_555
Ir1 Mg2 2.849257 1_656
Ir1 Mg0 2.875228 1_555
Ir1 Sc0 2.891726 1_556
Ir2 Mg0 2.849257 1_555
Ir2 Mg2 2.849257 1_556
Ir2 Mg1 2.875228 1_555
Ir2 Sc0 2.891726 1_566
Ir3 Mg0 2.849257 1_555
Ir3 Mg2 2.849257 1_655
Ir3 Mg1 2.875228 1_665
Ir3 Sc0 2.891726 1_555
Ir4 Mg0 2.849257 1_555
Ir4 Mg1 2.849257 1_655
Ir4 Mg2 2.875228 1_656
Ir4 Sc0 2.891726 1_555
Ir5 Mg0 2.849257 1_555
Ir5 Mg1 2.849257 1_565
Ir5 Mg2 2.875228 1_555
Ir5 Sc0 2.891726 1_566
