# generated using pymatgen
data_Ba4Zr(RhO4)3
_symmetry_space_group_name_H-M   'P 1'
_cell_length_a   10.12986532
_cell_length_b   10.12986517
_cell_length_c   10.12986571
_cell_angle_alpha   33.43155995
_cell_angle_beta   33.43156472
_cell_angle_gamma   33.43155479
_symmetry_Int_Tables_number   1
_chemical_formula_structural   Ba4Zr(RhO4)3
_chemical_formula_sum   'Ba4 Zr1 Rh3 O12'
_cell_volume   280.97890313
_cell_formula_units_Z   1
loop_
 _symmetry_equiv_pos_site_id
 _symmetry_equiv_pos_as_xyz
  1  'x, y, z'
loop_
 _atom_site_type_symbol
 _atom_site_label
 _atom_site_symmetry_multiplicity
 _atom_site_fract_x
 _atom_site_fract_y
 _atom_site_fract_z
 _atom_site_occupancy
  Ba  Ba0  1  0.71296939  0.71296939  0.71296939  1
  Ba  Ba1  1  0.28703061  0.28703061  0.28703061  1
  Ba  Ba2  1  0.87143815  0.87143815  0.87143815  1
  Ba  Ba3  1  0.12856185  0.12856185  0.12856185  1
  Zr  Zr0  1  0.00000000  0.00000000  0.00000000  1
  Rh  Rh0  1  0.41337113  0.41337113  0.41337113  1
  Rh  Rh1  1  0.50000000  0.50000000  0.50000000  1
  Rh  Rh2  1  0.58662887  0.58662887  0.58662887  1
  O  O0  1  0.21093574  0.21093574  0.70189476  1
  O  O1  1  0.70189476  0.21093574  0.21093574  1
  O  O2  1  0.21093574  0.70189476  0.21093574  1
  O  O3  1  0.78906426  0.29810524  0.78906426  1
  O  O4  1  0.78906426  0.78906426  0.29810524  1
  O  O5  1  0.29810524  0.78906426  0.78906426  1
  O  O6  1  0.38584894  0.38584894  0.85664625  1
  O  O7  1  0.85664625  0.38584894  0.38584894  1
  O  O8  1  0.14335375  0.61415106  0.61415106  1
  O  O9  1  0.61415106  0.61415106  0.14335375  1
  O  O10  1  0.61415106  0.14335375  0.61415106  1
  O  O11  1  0.38584894  0.85664625  0.38584894  1
loop_
_geom_bond_atom_site_label_1
_geom_bond_atom_site_label_2
_geom_bond_distance
_geom_bond_site_symmetry_2
Ba0 O10 2.848768 1_565
Ba0 O8 2.848768 1_655
Ba0 O9 2.848769 1_556
Ba0 O0 2.917343 1_565
Ba0 O0 2.917344 1_655
Ba0 O1 2.917344 1_565
Ba0 O1 2.917344 1_556
Ba0 O2 2.917344 1_655
Ba0 O2 2.917344 1_556
Ba0 O3 3.004573 1_555
Ba0 O5 3.004573 1_555
Ba0 O4 3.004574 1_555
Ba1 O11 2.848768 1_545
Ba1 O7 2.848768 1_455
Ba1 O6 2.848769 1_554
Ba1 O4 2.917343 1_545
Ba1 O4 2.917344 1_455
Ba1 O5 2.917344 1_545
Ba1 O5 2.917344 1_554
Ba1 O3 2.917344 1_455
Ba1 O3 2.917344 1_554
Ba1 O2 3.004573 1_555
Ba1 O1 3.004573 1_555
Ba1 O0 3.004574 1_555
Ba2 O6 2.918331 1_565
Ba2 O6 2.918331 1_655
Ba2 O7 2.918332 1_565
Ba2 O7 2.918332 1_556
Ba2 O11 2.918332 1_655
Ba2 O11 2.918332 1_556
Ba2 O10 2.923292 1_565
Ba2 O8 2.923292 1_655
Ba2 O9 2.923292 1_556
Ba2 O3 3.032484 1_565
Ba2 O5 3.032484 1_655
Ba2 O4 3.032485 1_556
Ba3 O9 2.918331 1_545
Ba3 O9 2.918331 1_455
Ba3 O8 2.918332 1_545
Ba3 O8 2.918332 1_554
Ba3 O10 2.918332 1_455
Ba3 O10 2.918332 1_554
Ba3 O11 2.923292 1_545
Ba3 O7 2.923292 1_455
Ba3 O6 2.923292 1_554
Ba3 O2 3.032484 1_545
Ba3 O1 3.032484 1_455
Ba3 O0 3.032485 1_554
O0 Rh0 1.991007 1_555
O0 Zr0 2.081204 1_556
O1 Rh0 1.991007 1_555
O1 Zr0 2.081204 1_655
O2 Rh0 1.991007 1_555
O2 Zr0 2.081203 1_565
O3 Rh2 1.991007 1_555
O3 Zr0 2.081203 1_656
O4 Rh2 1.991007 1_555
O4 Zr0 2.081204 1_665
O5 Rh2 1.991007 1_555
O5 Zr0 2.081204 1_566
O6 Rh1 2.003156 1_555
O6 Rh2 2.022009 1_555
O7 Rh1 2.003156 1_555
O7 Rh2 2.022009 1_555
O8 Rh1 2.003156 1_555
O8 Rh0 2.022009 1_555
O9 Rh1 2.003156 1_555
O9 Rh0 2.022009 1_555
O10 Rh1 2.003156 1_555
O10 Rh0 2.022009 1_555
O11 Rh1 2.003156 1_555
O11 Rh2 2.022009 1_555
