# generated using pymatgen
data_Na16SiSnP8
_symmetry_space_group_name_H-M   'P 1'
_cell_length_a   9.50063016
_cell_length_b   9.50062954
_cell_length_c   9.50062929
_cell_angle_alpha   60.00000087
_cell_angle_beta   60.00000303
_cell_angle_gamma   60.00000181
_symmetry_Int_Tables_number   1
_chemical_formula_structural   Na16SiSnP8
_chemical_formula_sum   'Na16 Si1 Sn1 P8'
_cell_volume   606.37625914
_cell_formula_units_Z   1
loop_
 _symmetry_equiv_pos_site_id
 _symmetry_equiv_pos_as_xyz
  1  'x, y, z'
loop_
 _atom_site_type_symbol
 _atom_site_label
 _atom_site_symmetry_multiplicity
 _atom_site_fract_x
 _atom_site_fract_y
 _atom_site_fract_z
 _atom_site_occupancy
  Na  Na0  1  0.62815441  0.62815441  0.11553877  1
  Na  Na1  1  0.62815441  0.11553877  0.62815441  1
  Na  Na2  1  0.11553877  0.62815441  0.62815441  1
  Na  Na3  1  0.62815441  0.62815441  0.62815441  1
  Na  Na4  1  0.02521995  0.47478005  0.47478005  1
  Na  Na5  1  0.77435674  0.22564326  0.22564326  1
  Na  Na6  1  0.47478005  0.02521995  0.47478005  1
  Na  Na7  1  0.47478005  0.47478005  0.02521995  1
  Na  Na8  1  0.02521995  0.02521995  0.47478005  1
  Na  Na9  1  0.02521995  0.47478005  0.02521995  1
  Na  Na10  1  0.47478005  0.02521995  0.02521995  1
  Na  Na11  1  0.77435674  0.22564326  0.77435674  1
  Na  Na12  1  0.22564326  0.77435674  0.22564326  1
  Na  Na13  1  0.22564326  0.22564326  0.77435674  1
  Na  Na14  1  0.77435674  0.77435674  0.22564326  1
  Na  Na15  1  0.22564326  0.77435674  0.77435674  1
  Si  Si0  1  0.75000000  0.75000000  0.75000000  1
  Sn  Sn0  1  0.50000000  0.50000000  0.50000000  1
  P  P0  1  0.85004163  0.85004163  0.44987712  1
  P  P1  1  0.85004163  0.44987712  0.85004163  1
  P  P2  1  0.39064461  0.39064461  0.82806418  1
  P  P3  1  0.39064461  0.82806418  0.39064461  1
  P  P4  1  0.82806418  0.39064461  0.39064461  1
  P  P5  1  0.85004163  0.85004163  0.85004163  1
  P  P6  1  0.44987712  0.85004163  0.85004163  1
  P  P7  1  0.39064461  0.39064461  0.39064461  1
loop_
_geom_bond_atom_site_label_1
_geom_bond_atom_site_label_2
_geom_bond_distance
_geom_bond_site_symmetry_2
Na0 Si0 2.835569 1_554
Na0 Sn0 2.982355 1_555
Na0 P6 3.009911 1_554
Na0 P1 3.009911 1_554
Na0 P5 3.009911 1_554
Na0 Na10 3.099487 1_565
Na0 Na9 3.099487 1_655
Na0 Na7 3.099503 1_555
Na0 Na14 3.128629 1_555
Na0 Na5 3.128644 1_555
Na0 Na12 3.128645 1_555
Na0 P4 3.211066 1_555
Na0 P3 3.211066 1_555
Na0 P7 3.211090 1_555
Na1 Si0 2.835569 1_545
Na1 Sn0 2.982355 1_555
Na1 P0 3.009911 1_545
Na1 P5 3.009911 1_545
Na1 P6 3.009911 1_545
Na1 Na10 3.099487 1_556
Na1 Na8 3.099487 1_655
Na1 Na6 3.099503 1_555
Na1 Na11 3.128629 1_555
Na1 Na5 3.128644 1_555
Na1 Na13 3.128645 1_555
Na1 P2 3.211066 1_555
Na1 P4 3.211066 1_555
Na1 P7 3.211090 1_555
Na2 Si0 2.835569 1_455
Na2 Sn0 2.982355 1_555
Na2 P5 3.009911 1_455
Na2 P0 3.009911 1_455
Na2 P1 3.009911 1_455
Na2 Na9 3.099487 1_556
Na2 Na8 3.099487 1_565
Na2 Na4 3.099503 1_555
Na2 P2 3.211066 1_555
Na2 P3 3.211066 1_555
Na2 P7 3.211090 1_555
Na3 Si0 2.835553 1_555
Na3 Sn0 2.982370 1_555
Na3 P6 3.009911 1_555
Na3 P1 3.009911 1_555
Na3 P0 3.009911 1_555
Na3 Na7 3.099489 1_556
Na3 Na6 3.099489 1_565
Na3 Na4 3.099489 1_655
Na3 P4 3.211094 1_555
Na3 P3 3.211094 1_555
Na3 P2 3.211095 1_555
Na4 P7 2.901679 1_555
Na4 P4 2.901697 1_455
Na4 P1 3.025447 1_455
Na4 P0 3.025447 1_455
Na5 P1 3.025421 1_554
Na5 P0 3.025421 1_545
Na5 P4 3.038485 1_555
Na5 P7 3.038499 1_555
Na6 P7 2.901679 1_555
Na6 P3 2.901697 1_545
Na6 P6 3.025447 1_545
Na6 P0 3.025447 1_545
Na7 P7 2.901679 1_555
Na7 P2 2.901696 1_554
Na7 P6 3.025447 1_554
Na7 P1 3.025447 1_554
Na8 P4 2.901683 1_455
Na8 P3 2.901683 1_545
Na8 P0 3.025431 1_445
Na8 P5 3.025443 1_445
Na9 P4 2.901683 1_455
Na9 P2 2.901683 1_554
Na9 P1 3.025431 1_454
Na9 P5 3.025443 1_454
Na10 P3 2.901683 1_545
Na10 P2 2.901683 1_554
Na10 P6 3.025431 1_544
Na10 P5 3.025443 1_544
Na11 P5 3.025417 1_545
Na11 P1 3.025435 1_555
Na11 P4 3.038502 1_555
Na11 P2 3.038502 1_555
Na11 Na3 3.128643 1_555
Na12 P6 3.025421 1_554
Na12 P0 3.025421 1_455
Na12 P3 3.038485 1_555
Na12 P7 3.038498 1_555
Na12 Na2 3.128644 1_555
Na13 P6 3.025421 1_545
Na13 P1 3.025421 1_455
Na13 P2 3.038485 1_555
Na13 P7 3.038498 1_555
Na13 Na2 3.128644 1_555
Na14 P5 3.025417 1_554
Na14 P0 3.025434 1_555
Na14 P4 3.038502 1_555
Na14 P3 3.038502 1_555
Na14 Na3 3.128643 1_555
Na15 P5 3.025417 1_455
Na15 P6 3.025435 1_555
Na15 P3 3.038502 1_555
Na15 P2 3.038502 1_555
Na15 Na2 3.128629 1_555
Na15 Na3 3.128644 1_555
P0 Si0 2.328123 1_555
P1 Si0 2.328123 1_555
P2 Sn0 2.544870 1_555
P3 Sn0 2.544870 1_555
P4 Sn0 2.544870 1_555
P5 Si0 2.328138 1_555
P6 Si0 2.328123 1_555
P7 Sn0 2.544885 1_555
