# generated using pymatgen
data_ZrGaNi3Au
_symmetry_space_group_name_H-M   'P 1'
_cell_length_a   4.92535592
_cell_length_b   4.92535522
_cell_length_c   4.81572564
_cell_angle_alpha   59.24403889
_cell_angle_beta   59.24403664
_cell_angle_gamma   59.99998962
_symmetry_Int_Tables_number   1
_chemical_formula_structural   ZrGaNi3Au
_chemical_formula_sum   'Zr1 Ga1 Ni3 Au1'
_cell_volume   81.65143032
_cell_formula_units_Z   1
loop_
 _symmetry_equiv_pos_site_id
 _symmetry_equiv_pos_as_xyz
  1  'x, y, z'
loop_
 _atom_site_type_symbol
 _atom_site_label
 _atom_site_symmetry_multiplicity
 _atom_site_fract_x
 _atom_site_fract_y
 _atom_site_fract_z
 _atom_site_occupancy
  Zr  Zr0  1  0.00508876  0.00508876  0.98473271  1
  Ga  Ga0  1  0.62202079  0.62202079  0.13393564  1
  Ni  Ni0  1  0.62314046  0.12430637  0.62941071  1
  Ni  Ni1  1  0.12430637  0.62314046  0.62941071  1
  Ni  Ni2  1  0.62314046  0.62314046  0.62941071  1
  Au  Au0  1  0.25230116  0.25230116  0.24309753  1
loop_
_geom_bond_atom_site_label_1
_geom_bond_atom_site_label_2
_geom_bond_distance
_geom_bond_site_symmetry_2
Ga0 Ni0 2.391725 1_555
Ga0 Ni1 2.391725 1_555
Ga0 Ni2 2.391725 1_555
Ga0 Ni0 2.424025 1_564
Ga0 Ni1 2.424026 1_654
Ga0 Ni2 2.424026 1_554
Ga0 Zr0 2.902175 1_654
Ga0 Zr0 2.902176 1_564
Ga0 Zr0 2.902180 1_664
Ni0 Ni1 2.456935 1_555
Ni0 Ni2 2.456935 1_555
Ni0 Ni1 2.468420 1_645
Ni0 Ni2 2.468420 1_545
Ni0 Zr0 2.823442 1_555
Ni0 Zr0 2.823446 1_655
Ni0 Zr0 2.882489 1_654
Ni1 Ni2 2.456935 1_555
Ni1 Ni2 2.468420 1_455
Ni1 Zr0 2.823442 1_555
Ni1 Zr0 2.823446 1_565
Ni1 Zr0 2.882490 1_564
Ni2 Zr0 2.823443 1_565
Ni2 Zr0 2.823443 1_655
Ni2 Zr0 2.882492 1_664
Au0 Ni2 2.775033 1_554
Au0 Ni0 2.775039 1_554
Au0 Ni1 2.775040 1_554
Au0 Ga0 2.875121 1_555
Au0 Ga0 2.875133 1_545
Au0 Ga0 2.875134 1_455
Au0 Zr0 2.882361 1_555
Au0 Ni1 2.884262 1_555
Au0 Ni0 2.884263 1_555
Au0 Ni2 2.884268 1_455
Au0 Ni2 2.884269 1_545
Au0 Ni1 2.884275 1_545
Au0 Ni0 2.884275 1_455
Au0 Zr0 3.015732 1_564
Au0 Zr0 3.015733 1_654
Au0 Zr0 3.015741 1_554
