# generated using pymatgen
data_Y8CdInPd2
_symmetry_space_group_name_H-M   'P 1'
_cell_length_a   9.73153712
_cell_length_b   9.73153685
_cell_length_c   9.72613626
_cell_angle_alpha   60.01835615
_cell_angle_beta   60.01835708
_cell_angle_gamma   60.06881985
_symmetry_Int_Tables_number   1
_chemical_formula_structural   Y8CdInPd2
_chemical_formula_sum   'Y16 Cd2 In2 Pd4'
_cell_volume   651.82973145
_cell_formula_units_Z   2
loop_
 _symmetry_equiv_pos_site_id
 _symmetry_equiv_pos_as_xyz
  1  'x, y, z'
loop_
 _atom_site_type_symbol
 _atom_site_label
 _atom_site_symmetry_multiplicity
 _atom_site_fract_x
 _atom_site_fract_y
 _atom_site_fract_z
 _atom_site_occupancy
  Y  Y0  1  0.35316365  0.35316365  0.35405818  1
  Y  Y1  1  0.35316365  0.35316365  0.93961452  1
  Y  Y2  1  0.35346095  0.93871966  0.35390970  1
  Y  Y3  1  0.93871966  0.35346095  0.35390970  1
  Y  Y4  1  0.80975055  0.19052104  0.18962635  1
  Y  Y5  1  0.19052104  0.80975055  0.81010206  1
  Y  Y6  1  0.19052104  0.80975055  0.18962635  1
  Y  Y7  1  0.80975055  0.19052104  0.81010206  1
  Y  Y8  1  0.18873740  0.18873740  0.81126260  1
  Y  Y9  1  0.80906166  0.80906166  0.19093834  1
  Y  Y10  1  0.93771980  0.56516264  0.56360366  1
  Y  Y11  1  0.56516264  0.93771980  0.93351390  1
  Y  Y12  1  0.56516264  0.93771980  0.56360366  1
  Y  Y13  1  0.93771980  0.56516264  0.93351390  1
  Y  Y14  1  0.56475252  0.56475252  0.93524748  1
  Y  Y15  1  0.93613786  0.93613786  0.56386214  1
  Cd  Cd0  1  0.58184736  0.25108774  0.58353295  1
  Cd  Cd1  1  0.25108774  0.58184736  0.58353295  1
  In  In0  1  0.58222436  0.58222436  0.58440389  1
  In  In1  1  0.58222436  0.58222436  0.25114740  1
  Pd  Pd0  1  0.14395726  0.14395726  0.14504024  1
  Pd  Pd1  1  0.14395726  0.14395726  0.56704324  1
  Pd  Pd2  1  0.14374099  0.56745327  0.14440237  1
  Pd  Pd3  1  0.56745327  0.14374099  0.14440237  1
loop_
_geom_bond_atom_site_label_1
_geom_bond_atom_site_label_2
_geom_bond_distance
_geom_bond_site_symmetry_2
Y0 Y12 3.521199 1_545
Y0 Y10 3.521199 1_455
Y0 Y14 3.540855 1_554
Y1 Y11 3.521199 1_545
Y1 Y13 3.521199 1_455
Y1 Y14 3.540855 1_555
Y10 Y3 3.544525 1_555
Y10 Y13 3.597797 1_555
Y10 Y15 3.603757 1_555
Y10 Y14 3.623137 1_555
Y10 Y12 3.629324 1_555
Y10 Y6 3.632525 1_655
Y10 Y9 3.648380 1_555
Y10 Y8 3.649730 1_655
Y10 Y7 3.660844 1_555
Y11 Y2 3.544525 1_556
Y11 Y12 3.597797 1_555
Y11 Y15 3.603757 1_555
Y11 Y14 3.623137 1_555
Y11 Y13 3.629324 1_555
Y11 Y7 3.632525 1_565
Y11 Y9 3.648380 1_556
Y11 Y8 3.649730 1_565
Y11 Y6 3.660844 1_556
Y12 Y2 3.544525 1_555
Y12 Y15 3.603757 1_555
Y12 Y14 3.623137 1_555
Y12 Y4 3.632525 1_565
Y12 Y9 3.648380 1_555
Y12 Y8 3.649730 1_565
Y12 Y5 3.660844 1_555
Y13 Y3 3.544525 1_556
Y13 Y15 3.603757 1_555
Y13 Y14 3.623137 1_555
Y13 Y5 3.632525 1_655
Y13 Y9 3.648380 1_556
Y13 Y8 3.649730 1_655
Y13 Y4 3.660844 1_556
Y14 Y4 3.646108 1_556
Y14 Y7 3.646108 1_555
Y14 Y6 3.646108 1_556
Y14 Y5 3.646108 1_555
Y15 Y3 3.525038 1_565
Y15 Y2 3.525038 1_655
Y15 Y4 3.649653 1_565
Y15 Y7 3.649653 1_565
Y15 Y6 3.649653 1_655
Y15 Y5 3.649653 1_655
Cd0 Cd1 3.222147 1_555
Cd0 In0 3.228544 1_555
Cd0 In1 3.228549 1_555
Cd0 Y11 3.237286 1_545
Cd0 Y12 3.237292 1_545
Cd0 Y15 3.270972 1_545
Cd0 Y1 3.385707 1_555
Cd0 Y0 3.385715 1_555
Cd0 Y3 3.393896 1_555
Cd0 Y7 3.521975 1_555
Cd0 Y4 3.521983 1_555
Cd0 Y8 3.523288 1_555
Cd1 In0 3.228544 1_555
Cd1 In1 3.228549 1_555
Cd1 Y13 3.237286 1_455
Cd1 Y10 3.237292 1_455
Cd1 Y15 3.270972 1_455
Cd1 Y1 3.385707 1_555
Cd1 Y0 3.385715 1_555
Cd1 Y2 3.393895 1_555
Cd1 Y5 3.521975 1_555
Cd1 Y6 3.521983 1_555
Cd1 Y8 3.523288 1_555
In0 In1 3.241298 1_555
In0 Y14 3.251319 1_555
In0 Y12 3.285973 1_555
In0 Y10 3.285974 1_555
In0 Y1 3.382081 1_555
In0 Y2 3.394871 1_555
In0 Y3 3.394871 1_555
In0 Y7 3.510538 1_555
In0 Y5 3.510539 1_555
In0 Y9 3.516769 1_555
In1 Y14 3.251319 1_554
In1 Y11 3.285973 1_554
In1 Y13 3.285974 1_554
In1 Y0 3.382081 1_555
In1 Y2 3.394871 1_555
In1 Y3 3.394871 1_555
In1 Y4 3.510538 1_555
In1 Y6 3.510539 1_555
In1 Y9 3.516769 1_555
Pd0 Y8 2.877565 1_554
Pd0 Y1 2.878732 1_554
Pd0 Y6 2.878756 1_545
Pd0 Y4 2.878756 1_455
Pd0 Y3 2.879842 1_455
Pd0 Y2 2.879842 1_545
Pd0 Y15 3.519650 1_445
Pd0 Y13 3.542776 1_454
Pd0 Y11 3.542776 1_544
Pd1 Y8 2.877584 1_555
Pd1 Y0 2.878732 1_555
Pd1 Y5 2.878763 1_545
Pd1 Y7 2.878763 1_455
Pd1 Y3 2.879828 1_455
Pd1 Y2 2.879828 1_545
Pd1 Y15 3.519638 1_445
Pd1 Y10 3.542781 1_455
Pd1 Y12 3.542782 1_545
Pd2 Y5 2.875479 1_554
Pd2 Y6 2.875485 1_555
Pd2 Y9 2.879099 1_455
Pd2 Y3 2.882963 1_455
Pd2 Y1 2.884893 1_554
Pd2 Y0 2.884900 1_555
Pd2 Y13 3.525280 1_454
Pd2 Y10 3.525288 1_455
Pd2 Y14 3.541342 1_554
Pd3 Y7 2.875479 1_554
Pd3 Y4 2.875485 1_555
Pd3 Y9 2.879099 1_545
Pd3 Y2 2.882963 1_545
Pd3 Y1 2.884893 1_554
Pd3 Y0 2.884900 1_555
Pd3 Y11 3.525280 1_544
Pd3 Y12 3.525288 1_545
Pd3 Y14 3.541342 1_554
