# generated using pymatgen
data_Al2O3
_symmetry_space_group_name_H-M   'P 1'
_cell_length_a   5.63864550
_cell_length_b   5.63864550
_cell_length_c   27.54087063
_cell_angle_alpha   89.44901735
_cell_angle_beta   89.44901735
_cell_angle_gamma   60.44738262
_symmetry_Int_Tables_number   1
_chemical_formula_structural   Al2O3
_chemical_formula_sum   'Al32 O48'
_cell_volume   761.67769245
_cell_formula_units_Z   16
loop_
 _symmetry_equiv_pos_site_id
 _symmetry_equiv_pos_as_xyz
  1  'x, y, z'
loop_
 _atom_site_type_symbol
 _atom_site_label
 _atom_site_symmetry_multiplicity
 _atom_site_fract_x
 _atom_site_fract_y
 _atom_site_fract_z
 _atom_site_occupancy
  Al  Al0  1  0.83541400  0.83541400  0.08329900  1
  Al  Al1  1  0.99996800  0.99996800  0.00658500  1
  Al  Al2  1  0.00469400  0.00469400  0.19069200  1
  Al  Al3  1  0.32424800  0.83620000  0.08277000  1
  Al  Al4  1  0.65256200  0.65256200  0.17097100  1
  Al  Al5  1  0.67471900  0.67471900  0.35354200  1
  Al  Al6  1  0.83620000  0.32424800  0.08277000  1
  Al  Al7  1  0.00034900  0.50086200  0.25039700  1
  Al  Al8  1  0.16484900  0.16484900  0.41955200  1
  Al  Al9  1  0.34698700  0.34698700  0.33038600  1
  Al  Al10  1  0.50086200  0.00034900  0.25039700  1
  Al  Al11  1  0.32564900  0.32564900  0.14621000  1
  Al  Al12  1  0.33438300  0.33438300  0.52316700  1
  Al  Al13  1  0.67494700  0.16400700  0.41972000  1
  Al  Al14  1  0.83505600  0.83505600  0.57969100  1
  Al  Al15  1  0.16400700  0.67494700  0.41972000  1
  Al  Al16  1  0.99655700  0.99655700  0.31154000  1
  Al  Al17  1  0.00501300  0.00501300  0.68730300  1
  Al  Al18  1  0.32534700  0.83593100  0.57939200  1
  Al  Al19  1  0.65329700  0.65329700  0.66858900  1
  Al  Al20  1  0.50091600  0.00063700  0.74812900  1
  Al  Al21  1  0.83593100  0.32534700  0.57939200  1
  Al  Al22  1  0.67358400  0.67358400  0.84944300  1
  Al  Al23  1  0.66573200  0.66573200  0.47561800  1
  Al  Al24  1  0.00063700  0.50091600  0.74812900  1
  Al  Al25  1  0.34657000  0.34657000  0.82842700  1
  Al  Al26  1  0.32553300  0.32553300  0.64555800  1
  Al  Al27  1  0.66233200  0.16913300  0.91797800  1
  Al  Al28  1  0.16913300  0.66233200  0.91797800  1
  Al  Al29  1  0.99663800  0.99663800  0.81069300  1
  Al  Al30  1  0.17071600  0.17071600  0.91737800  1
  Al  Al31  1  0.66472900  0.66472900  0.98189600  1
  O  O0  1  0.70002500  0.14861700  0.04597100  1
  O  O1  1  0.99757000  0.99757000  0.12519400  1
  O  O2  1  0.14861700  0.70002500  0.04597100  1
  O  O3  1  0.15009800  0.15009800  0.04573800  1
  O  O4  1  0.34893000  0.84400000  0.20842800  1
  O  O5  1  0.50639400  0.50639400  0.12477400  1
  O  O6  1  0.51128300  0.97067400  0.12384300  1
  O  O7  1  0.84400000  0.34893000  0.20842800  1
  O  O8  1  0.67899200  0.67899200  0.29030100  1
  O  O9  1  0.66480100  0.66480100  0.04625100  1
  O  O10  1  0.82419500  0.82419500  0.20989800  1
  O  O11  1  0.97067400  0.51128300  0.12384300  1
  O  O12  1  0.03028600  0.48785900  0.37776800  1
  O  O13  1  0.17672200  0.17672200  0.29232000  1
  O  O14  1  0.15574500  0.65302600  0.29397800  1
  O  O15  1  0.32129000  0.32129000  0.21060200  1
  O  O16  1  0.48785900  0.03028600  0.37776800  1
  O  O17  1  0.33485700  0.33485700  0.45656100  1
  O  O18  1  0.49334100  0.49334100  0.37666800  1
  O  O19  1  0.65302600  0.15574500  0.29397800  1
  O  O20  1  0.66816400  0.16537700  0.54700700  1
  O  O21  1  0.83528200  0.83528200  0.45316600  1
  O  O22  1  0.00247100  0.00247100  0.37941000  1
  O  O23  1  0.83537700  0.32993200  0.45326400  1
  O  O24  1  0.16537700  0.66816400  0.54700700  1
  O  O25  1  0.99783900  0.99783900  0.62025700  1
  O  O26  1  0.16577200  0.16577200  0.54707200  1
  O  O27  1  0.32993200  0.83537700  0.45326400  1
  O  O28  1  0.34761800  0.84598200  0.70578400  1
  O  O29  1  0.50661600  0.50661600  0.62349600  1
  O  O30  1  0.66512900  0.66512900  0.54331100  1
  O  O31  1  0.84598200  0.34761800  0.70578400  1
  O  O32  1  0.51257400  0.96905000  0.62244700  1
  O  O33  1  0.67831100  0.67831100  0.78640500  1
  O  O34  1  0.82563500  0.82563500  0.70737700  1
  O  O35  1  0.96905000  0.51257400  0.62244700  1
  O  O36  1  0.01823000  0.49207400  0.87512000  1
  O  O37  1  0.17643300  0.17643300  0.79080500  1
  O  O38  1  0.32255500  0.32255500  0.70961300  1
  O  O39  1  0.33449500  0.33449500  0.94757000  1
  O  O40  1  0.15436300  0.65388300  0.79260300  1
  O  O41  1  0.49207400  0.01823000  0.87512000  1
  O  O42  1  0.49670300  0.49670300  0.87383100  1
  O  O43  1  0.65388300  0.15436300  0.79260300  1
  O  O44  1  0.84155600  0.84155600  0.95650500  1
  O  O45  1  0.84237900  0.31499300  0.95638900  1
  O  O46  1  0.00153100  0.00153100  0.87952800  1
  O  O47  1  0.31499300  0.84237900  0.95638900  1
loop_
_geom_bond_atom_site_label_1
_geom_bond_atom_site_label_2
_geom_bond_distance
_geom_bond_site_symmetry_2
Al0 O0 1.846296 1_565
Al0 O2 1.846296 1_655
Al0 O11 1.941895 1_555
Al0 O6 1.941895 1_555
Al0 O9 1.960300 1_555
Al0 O1 1.966879 1_555
Al1 O0 1.823020 1_565
Al1 O2 1.823020 1_655
Al1 O3 1.827015 1_665
Al1 O45 2.067706 1_564
Al1 O47 2.067706 1_654
Al1 O44 2.081459 1_554
Al2 O7 1.761247 1_455
Al2 O4 1.761247 1_545
Al2 O1 1.805979 1_445
Al2 O10 1.831012 1_445
Al3 O2 1.838974 1_555
Al3 O3 1.845876 1_565
Al3 O9 1.945212 1_555
Al3 O6 1.948084 1_555
Al3 O1 1.977833 1_455
Al3 O5 1.987163 1_555
Al4 O4 1.823459 1_555
Al4 O7 1.823459 1_555
Al4 O5 1.920353 1_555
Al4 O10 1.996586 1_555
Al4 O11 2.025405 1_555
Al4 O6 2.025405 1_555
Al5 O8 1.741747 1_555
Al5 O12 1.871734 1_655
Al5 O16 1.871734 1_565
Al5 O18 1.871985 1_555
Al6 O0 1.838974 1_555
Al6 O3 1.845876 1_655
Al6 O9 1.945212 1_555
Al6 O11 1.948084 1_555
Al6 O1 1.977833 1_545
Al6 O5 1.987163 1_555
Al7 O7 1.905469 1_455
Al7 O15 1.917554 1_555
Al7 O8 1.920318 1_455
Al7 O14 1.930334 1_555
Al7 O10 1.936600 1_455
Al7 O13 1.962429 1_555
Al8 O23 1.859415 1_455
Al8 O27 1.859415 1_545
Al8 O22 1.940291 1_555
Al8 O17 1.954698 1_555
Al8 O16 1.957170 1_555
Al8 O12 1.957170 1_555
Al9 O19 1.816040 1_555
Al9 O14 1.816040 1_555
Al9 O18 1.923281 1_555
Al9 O13 1.972428 1_555
Al9 O12 2.024511 1_555
Al9 O16 2.024511 1_555
Al10 O4 1.905469 1_545
Al10 O15 1.917554 1_555
Al10 O8 1.920318 1_545
Al10 O19 1.930334 1_555
Al10 O10 1.936600 1_545
Al10 O13 1.962429 1_555
Al11 O15 1.773448 1_555
Al11 O11 1.850952 1_455
Al11 O6 1.850952 1_545
Al11 O5 1.851311 1_555
Al12 O26 1.763185 1_555
Al12 O20 1.767463 1_555
Al12 O24 1.767463 1_555
Al12 O17 1.834342 1_555
Al13 O23 1.847885 1_555
Al13 O21 1.852476 1_545
Al13 O22 1.947675 1_655
Al13 O17 1.947806 1_555
Al13 O16 1.959887 1_555
Al13 O18 2.002022 1_555
Al14 O20 1.849329 1_565
Al14 O24 1.849329 1_655
Al14 O30 1.944881 1_555
Al14 O25 1.950308 1_555
Al14 O32 1.970934 1_555
Al14 O35 1.970934 1_555
Al15 O27 1.847885 1_555
Al15 O21 1.852476 1_455
Al15 O22 1.947675 1_565
Al15 O17 1.947806 1_555
Al15 O12 1.959887 1_555
Al15 O18 2.002022 1_555
Al16 O14 1.756794 1_655
Al16 O19 1.756794 1_565
Al16 O13 1.828004 1_665
Al16 O22 1.870728 1_665
Al17 O31 1.759669 1_455
Al17 O28 1.759669 1_545
Al17 O34 1.827392 1_445
Al17 O25 1.848605 1_445
Al18 O24 1.837779 1_555
Al18 O26 1.842219 1_565
Al18 O30 1.935796 1_555
Al18 O25 1.956306 1_455
Al18 O32 1.976580 1_555
Al18 O29 2.019018 1_555
Al19 O31 1.827788 1_555
Al19 O28 1.827788 1_555
Al19 O29 1.903877 1_555
Al19 O32 1.999178 1_555
Al19 O35 1.999178 1_555
Al19 O34 2.000303 1_555
Al20 O33 1.898716 1_545
Al20 O38 1.901116 1_555
Al20 O28 1.910555 1_545
Al20 O43 1.942632 1_555
Al20 O34 1.945601 1_545
Al20 O37 1.975749 1_555
Al21 O20 1.837779 1_555
Al21 O26 1.842219 1_655
Al21 O30 1.935796 1_555
Al21 O25 1.956306 1_545
Al21 O35 1.976580 1_555
Al21 O29 2.019018 1_555
Al22 O33 1.736220 1_555
Al22 O36 1.837024 1_655
Al22 O41 1.837024 1_565
Al22 O42 1.842857 1_555
Al23 O21 1.757617 1_555
Al23 O23 1.761718 1_555
Al23 O27 1.761718 1_555
Al23 O30 1.864268 1_555
Al24 O33 1.898716 1_455
Al24 O38 1.901116 1_555
Al24 O31 1.910555 1_455
Al24 O40 1.942632 1_555
Al24 O34 1.945601 1_455
Al24 O37 1.975749 1_555
Al25 O43 1.812689 1_555
Al25 O40 1.812689 1_555
Al25 O42 1.935095 1_555
Al25 O37 1.964781 1_555
Al25 O36 2.056847 1_555
Al25 O41 2.056847 1_555
Al26 O38 1.764046 1_555
Al26 O29 1.859811 1_555
Al26 O35 1.865031 1_455
Al26 O32 1.865031 1_545
Al27 O39 1.798930 1_555
Al27 O45 1.920219 1_555
Al27 O44 1.923662 1_545
Al27 O46 1.967202 1_655
Al27 O41 1.971240 1_555
Al27 O42 2.009756 1_555
Al28 O39 1.798930 1_555
Al28 O47 1.920219 1_555
Al28 O44 1.923662 1_455
Al28 O46 1.967202 1_565
Al28 O36 1.971240 1_555
Al28 O42 2.009756 1_555
Al29 O40 1.757515 1_655
Al29 O43 1.757515 1_565
Al29 O37 1.829780 1_665
Al29 O46 1.896906 1_665
Al30 O39 1.807734 1_555
Al30 O47 1.933022 1_545
Al30 O45 1.933022 1_455
Al30 O36 1.954225 1_555
Al30 O41 1.954225 1_555
Al30 O46 1.960296 1_555
Al31 O9 1.772401 1_556
Al31 O44 1.852330 1_555
Al31 O45 1.857502 1_555
Al31 O47 1.857502 1_555
