# generated using pymatgen
data_ScCrH6Os
_symmetry_space_group_name_H-M   'P 1'
_cell_length_a   4.73137618
_cell_length_b   4.73137682
_cell_length_c   4.73137601
_cell_angle_alpha   60.00000563
_cell_angle_beta   60.00000116
_cell_angle_gamma   59.99999714
_symmetry_Int_Tables_number   1
_chemical_formula_structural   ScCrH6Os
_chemical_formula_sum   'Sc1 Cr1 H6 Os1'
_cell_volume   74.89408081
_cell_formula_units_Z   1
loop_
 _symmetry_equiv_pos_site_id
 _symmetry_equiv_pos_as_xyz
  1  'x, y, z'
loop_
 _atom_site_type_symbol
 _atom_site_label
 _atom_site_symmetry_multiplicity
 _atom_site_fract_x
 _atom_site_fract_y
 _atom_site_fract_z
 _atom_site_occupancy
  Sc  Sc0  1  0.75000000  0.75000000  0.75000000  1
  Cr  Cr0  1  0.25000100  0.25000100  0.25000100  1
  H  H0  1  0.25418676  0.74581324  0.25418676  1
  H  H1  1  0.74581324  0.25418676  0.25418676  1
  H  H2  1  0.74581324  0.74581324  0.25418676  1
  H  H3  1  0.25418676  0.25418676  0.74581324  1
  H  H4  1  0.74581324  0.25418676  0.74581324  1
  H  H5  1  0.25418676  0.74581324  0.74581324  1
  Os  Os0  1  0.00000000  0.00000000  0.00000000  1
loop_
_geom_bond_atom_site_label_1
_geom_bond_atom_site_label_2
_geom_bond_distance
_geom_bond_site_symmetry_2
Cr0 H3 2.365844 1_555
Cr0 H1 2.365844 1_555
Cr0 H0 2.365845 1_555
Cr0 H4 2.365854 1_455
Cr0 H4 2.365854 1_554
Cr0 H2 2.365854 1_455
Cr0 H2 2.365854 1_545
Cr0 H5 2.365854 1_554
Cr0 H5 2.365854 1_545
Cr0 H3 2.365863 1_554
Cr0 H1 2.365863 1_455
Cr0 H0 2.365864 1_545
H0 Os0 1.700808 1_565
H0 Sc0 2.365854 1_455
H0 Sc0 2.365854 1_554
H1 Os0 1.700808 1_655
H1 Sc0 2.365854 1_554
H1 Sc0 2.365854 1_545
H2 Os0 1.700809 1_665
H2 Sc0 2.365854 1_554
H2 Sc0 2.365854 1_555
H3 Os0 1.700809 1_556
H3 Sc0 2.365854 1_455
H3 Sc0 2.365854 1_545
H4 Os0 1.700808 1_656
H4 Sc0 2.365854 1_555
H4 Sc0 2.365854 1_545
H5 Os0 1.700808 1_566
H5 Sc0 2.365854 1_455
H5 Sc0 2.365854 1_555
