# generated using pymatgen
data_Fe7O8
_symmetry_space_group_name_H-M   'P 1'
_cell_length_a   6.13364645
_cell_length_b   6.13364645
_cell_length_c   6.13364645
_cell_angle_alpha   60.00000000
_cell_angle_beta   60.00000000
_cell_angle_gamma   60.00000000
_symmetry_Int_Tables_number   1
_chemical_formula_structural   Fe7O8
_chemical_formula_sum   'Fe7 O8'
_cell_volume   163.17034065
_cell_formula_units_Z   1
loop_
 _symmetry_equiv_pos_site_id
 _symmetry_equiv_pos_as_xyz
  1  'x, y, z'
loop_
 _atom_site_type_symbol
 _atom_site_label
 _atom_site_symmetry_multiplicity
 _atom_site_fract_x
 _atom_site_fract_y
 _atom_site_fract_z
 _atom_site_occupancy
  Fe  Fe0  1  0.50000000  0.00000000  0.00000000  1
  Fe  Fe1  1  0.00000000  0.50000000  0.00000000  1
  Fe  Fe2  1  0.50000000  0.00000000  0.50000000  1
  Fe  Fe3  1  0.50000000  0.50000000  0.00000000  1
  Fe  Fe4  1  0.00000000  0.50000000  0.50000000  1
  Fe  Fe5  1  0.50000000  0.50000000  0.50000000  1
  Fe  Fe6  1  0.00000000  0.00000000  0.50000000  1
  O  O0  1  0.25000000  0.25000000  0.25000000  1
  O  O1  1  0.73648200  0.26351800  0.26351800  1
  O  O2  1  0.26351800  0.26351800  0.73648200  1
  O  O3  1  0.26351800  0.73648200  0.26351800  1
  O  O4  1  0.73648200  0.26351800  0.73648200  1
  O  O5  1  0.73648200  0.73648200  0.26351800  1
  O  O6  1  0.26351800  0.73648200  0.73648200  1
  O  O7  1  0.75000000  0.75000000  0.75000000  1
loop_
_geom_bond_atom_site_label_1
_geom_bond_atom_site_label_2
_geom_bond_distance
_geom_bond_site_symmetry_2
Fe0 O0 2.168572 1_555
Fe0 O7 2.168572 1_544
Fe0 O5 2.171739 1_545
Fe0 O4 2.171739 1_554
Fe0 O3 2.171739 1_545
Fe0 O2 2.171739 1_554
Fe1 O7 2.168572 1_454
Fe1 O0 2.168572 1_555
Fe1 O5 2.171739 1_455
Fe1 O2 2.171739 1_554
Fe1 O6 2.171739 1_554
Fe1 O1 2.171739 1_455
Fe2 O7 2.168572 1_545
Fe2 O0 2.168572 1_555
Fe2 O1 2.171739 1_555
Fe2 O6 2.171739 1_545
Fe2 O2 2.171739 1_555
Fe2 O5 2.171739 1_545
Fe3 O0 2.168572 1_555
Fe3 O7 2.168572 1_554
Fe3 O3 2.171739 1_555
Fe3 O1 2.171739 1_555
Fe3 O4 2.171739 1_554
Fe3 O6 2.171739 1_554
Fe4 O0 2.168572 1_555
Fe4 O7 2.168572 1_455
Fe4 O2 2.171739 1_555
Fe4 O3 2.171739 1_555
Fe4 O4 2.171739 1_455
Fe4 O5 2.171739 1_455
Fe5 O4 2.051313 1_555
Fe5 O5 2.051313 1_555
Fe5 O6 2.051313 1_555
Fe5 O2 2.051313 1_555
Fe5 O3 2.051313 1_555
Fe5 O1 2.051313 1_555
Fe6 O0 2.168572 1_555
Fe6 O7 2.168572 1_445
Fe6 O6 2.171739 1_545
Fe6 O4 2.171739 1_455
Fe6 O1 2.171739 1_455
Fe6 O3 2.171739 1_545
