# generated using pymatgen
data_Ba4Mo(N2Cl)2
_symmetry_space_group_name_H-M   'P 1'
_cell_length_a   6.19315679
_cell_length_b   8.50762542
_cell_length_c   10.87457774
_cell_angle_alpha   81.36713553
_cell_angle_beta   90.00000000
_cell_angle_gamma   90.00000000
_symmetry_Int_Tables_number   1
_chemical_formula_structural   Ba4Mo(N2Cl)2
_chemical_formula_sum   'Ba8 Mo2 N8 Cl4'
_cell_volume   566.47975003
_cell_formula_units_Z   2
loop_
 _symmetry_equiv_pos_site_id
 _symmetry_equiv_pos_as_xyz
  1  'x, y, z'
loop_
 _atom_site_type_symbol
 _atom_site_label
 _atom_site_symmetry_multiplicity
 _atom_site_fract_x
 _atom_site_fract_y
 _atom_site_fract_z
 _atom_site_occupancy
  Ba  Ba0  1  0.75000000  0.28539526  0.29388879  1
  Ba  Ba1  1  0.75000000  0.00358313  0.62663100  1
  Ba  Ba2  1  0.75000000  0.44715265  0.62160232  1
  Ba  Ba3  1  0.75000000  0.81311813  0.09266580  1
  Ba  Ba4  1  0.25000000  0.99641687  0.37336900  1
  Ba  Ba5  1  0.25000000  0.55284735  0.37839768  1
  Ba  Ba6  1  0.25000000  0.18688187  0.90733420  1
  Ba  Ba7  1  0.25000000  0.71460474  0.70611121  1
  Mo  Mo0  1  0.75000000  0.77009151  0.40053219  1
  Mo  Mo1  1  0.25000000  0.22990849  0.59946781  1
  N  N0  1  0.25000000  0.03897380  0.70685356  1
  N  N1  1  0.00500554  0.24635432  0.49812052  1
  N  N2  1  0.50500554  0.75364568  0.50187948  1
  N  N3  1  0.99499446  0.75364568  0.50187948  1
  N  N4  1  0.75000000  0.60994282  0.30091902  1
  N  N5  1  0.75000000  0.96102620  0.29314644  1
  N  N6  1  0.49499446  0.24635432  0.49812052  1
  N  N7  1  0.25000000  0.39005718  0.69908098  1
  Cl  Cl0  1  0.25000000  0.32248875  0.16643552  1
  Cl  Cl1  1  0.75000000  0.67751125  0.83356448  1
  Cl  Cl2  1  0.25000000  0.84420419  0.10081531  1
  Cl  Cl3  1  0.75000000  0.15579581  0.89918469  1
loop_
_geom_bond_atom_site_label_1
_geom_bond_atom_site_label_2
_geom_bond_distance
_geom_bond_site_symmetry_2
Ba0 N1 2.704731 1_655
Ba0 N6 2.704731 1_555
Ba0 N5 2.760834 1_545
Ba0 N4 2.773635 1_555
Ba0 Cl0 3.387931 1_555
Ba0 Cl0 3.387931 1_655
Ba1 N1 2.801169 1_655
Ba1 N6 2.801169 1_555
Ba1 N3 3.087077 1_545
Ba1 N2 3.087077 1_545
Ba1 N0 3.243357 1_655
Ba1 N0 3.243357 1_555
Ba1 Cl1 3.299314 1_545
Ba1 Cl3 3.407920 1_555
Ba2 N1 2.811459 1_655
Ba2 N6 2.811459 1_555
Ba2 N3 3.126861 1_555
Ba2 N2 3.126861 1_555
Ba2 N7 3.226728 1_655
Ba2 N7 3.226728 1_555
Ba2 Cl1 3.241911 1_555
Ba2 Cl3 3.606921 1_555
Ba3 N4 2.634652 1_555
Ba3 N5 2.675823 1_555
Ba3 Cl2 3.110246 1_655
Ba3 Cl2 3.110246 1_555
Ba3 Cl1 3.200912 1_554
Ba3 Cl3 3.329394 1_564
Ba4 N2 2.801169 1_555
Ba4 N3 2.801169 1_455
Ba4 N6 3.087077 1_565
Ba4 N1 3.087077 1_565
Ba4 N5 3.243357 1_555
Ba4 N5 3.243357 1_455
Ba4 Cl0 3.299314 1_565
Ba4 Cl2 3.407920 1_555
Ba5 N2 2.811459 1_555
Ba5 N3 2.811459 1_455
Ba5 N6 3.126861 1_555
Ba5 N1 3.126861 1_555
Ba5 N4 3.226728 1_455
Ba5 N4 3.226728 1_555
Ba5 Cl0 3.241911 1_555
Ba5 Cl2 3.606921 1_555
Ba6 N7 2.634652 1_555
Ba6 N0 2.675823 1_555
Ba6 Cl3 3.110246 1_555
Ba6 Cl3 3.110246 1_455
Ba6 Cl0 3.200912 1_556
Ba6 Cl2 3.329394 1_546
Ba7 N2 2.704731 1_555
Ba7 N3 2.704731 1_455
Ba7 N0 2.760834 1_565
Ba7 N7 2.773635 1_555
Ba7 Cl1 3.387931 1_455
Ba7 Cl1 3.387931 1_555
Mo0 N5 1.852810 1_555
Mo0 N4 1.863565 1_555
Mo0 N3 1.868179 1_555
Mo0 N2 1.868179 1_555
Mo1 N0 1.852810 1_555
Mo1 N7 1.863565 1_555
Mo1 N6 1.868179 1_555
Mo1 N1 1.868179 1_555
