# generated using pymatgen
data_ZrAl3V2Ga
_symmetry_space_group_name_H-M   'P 1'
_cell_length_a   5.29037520
_cell_length_b   5.29037472
_cell_length_c   5.26466865
_cell_angle_alpha   103.56419041
_cell_angle_beta   103.56418267
_cell_angle_gamma   122.22262047
_symmetry_Int_Tables_number   1
_chemical_formula_structural   ZrAl3V2Ga
_chemical_formula_sum   'Zr1 Al3 V2 Ga1'
_cell_volume   108.97907494
_cell_formula_units_Z   1
loop_
 _symmetry_equiv_pos_site_id
 _symmetry_equiv_pos_as_xyz
  1  'x, y, z'
loop_
 _atom_site_type_symbol
 _atom_site_label
 _atom_site_symmetry_multiplicity
 _atom_site_fract_x
 _atom_site_fract_y
 _atom_site_fract_z
 _atom_site_occupancy
  Zr  Zr0  1  0.00401845  0.99598155  1.00000000  1
  Al  Al0  1  0.30466559  0.30635187  0.61101746  1
  Al  Al1  1  0.69364813  0.69533441  0.38898254  1
  Al  Al2  1  0.69901457  0.30098543  0.00000000  1
  V  V0  1  0.24779137  0.75220863  0.50000000  1
  V  V1  1  0.74779137  0.25220863  0.50000000  1
  Ga  Ga0  1  0.30307152  0.69692848  1.00000000  1
loop_
_geom_bond_atom_site_label_1
_geom_bond_atom_site_label_2
_geom_bond_distance
_geom_bond_site_symmetry_2
Al0 Ga0 2.550533 1_555
Al0 Al2 2.575541 1_556
Al0 V0 2.683221 1_545
Al0 V1 2.683222 1_555
Al0 V0 2.704971 1_555
Al0 V1 2.704971 1_455
Al0 Al1 2.752572 1_445
Al0 Al1 2.752572 1_555
Al0 Zr0 2.812665 1_544
Al0 Zr0 3.120843 1_655
Al0 Zr0 3.120844 1_545
Al1 Ga0 2.550534 1_554
Al1 Al2 2.575541 1_555
Al1 V1 2.683221 1_555
Al1 V0 2.683222 1_655
Al1 V1 2.704971 1_565
Al1 V0 2.704971 1_555
Al1 Zr0 2.812665 1_655
Al1 Zr0 3.120843 1_544
Al1 Zr0 3.120844 1_654
Al2 V0 2.670837 1_544
Al2 V0 2.670837 1_655
Al2 V1 2.670837 1_554
Al2 V1 2.670837 1_555
Al2 Ga0 2.731584 1_544
Al2 Ga0 2.731584 1_654
Al2 Zr0 2.825580 1_644
Al2 Zr0 3.129787 1_654
Al2 Zr0 3.129787 1_544
V0 V1 2.555831 1_565
V0 V1 2.555831 1_455
Ga0 V1 2.681688 1_566
Ga0 V1 2.681688 1_455
Ga0 V0 2.681688 1_556
Ga0 V0 2.681688 1_555
Ga0 Zr0 2.770452 1_555
Ga0 Zr0 3.161927 1_545
Ga0 Zr0 3.161927 1_655
