# generated using pymatgen
data_Zr6Sc4Al12Ir7
_symmetry_space_group_name_H-M   'P 1'
_cell_length_a   8.86509576
_cell_length_b   8.86509637
_cell_length_c   8.86509594
_cell_angle_alpha   59.99999791
_cell_angle_beta   59.99999566
_cell_angle_gamma   60.00000147
_symmetry_Int_Tables_number   1
_chemical_formula_structural   Zr6Sc4Al12Ir7
_chemical_formula_sum   'Zr6 Sc4 Al12 Ir7'
_cell_volume   492.64640561
_cell_formula_units_Z   1
loop_
 _symmetry_equiv_pos_site_id
 _symmetry_equiv_pos_as_xyz
  1  'x, y, z'
loop_
 _atom_site_type_symbol
 _atom_site_label
 _atom_site_symmetry_multiplicity
 _atom_site_fract_x
 _atom_site_fract_y
 _atom_site_fract_z
 _atom_site_occupancy
  Zr  Zr0  1  0.68354885  0.68354885  0.31645115  1
  Zr  Zr1  1  0.31645115  0.68354885  0.31645115  1
  Zr  Zr2  1  0.68354885  0.31645115  0.31645115  1
  Zr  Zr3  1  0.31645115  0.31645115  0.68354885  1
  Zr  Zr4  1  0.68354885  0.31645115  0.68354885  1
  Zr  Zr5  1  0.31645115  0.68354885  0.68354885  1
  Sc  Sc0  1  0.88015136  0.88015136  0.35954593  1
  Sc  Sc1  1  0.88015136  0.35954593  0.88015136  1
  Sc  Sc2  1  0.35954593  0.88015136  0.88015136  1
  Sc  Sc3  1  0.88015136  0.88015136  0.88015136  1
  Al  Al0  1  0.12200415  0.12200415  0.63398756  1
  Al  Al1  1  0.12200415  0.63398756  0.12200415  1
  Al  Al2  1  0.63398756  0.12200415  0.12200415  1
  Al  Al3  1  0.12200415  0.12200415  0.12200415  1
  Al  Al4  1  0.66233375  0.66233375  0.01299876  1
  Al  Al5  1  0.66233375  0.01299876  0.66233375  1
  Al  Al6  1  0.01299876  0.66233375  0.66233375  1
  Al  Al7  1  0.66233375  0.66233375  0.66233375  1
  Al  Al8  1  0.33608853  0.33608853  0.99173442  1
  Al  Al9  1  0.33608853  0.99173442  0.33608853  1
  Al  Al10  1  0.99173442  0.33608853  0.33608853  1
  Al  Al11  1  0.33608853  0.33608853  0.33608853  1
  Ir  Ir0  1  0.00000000  0.00000000  0.00000000  1
  Ir  Ir1  1  0.00142826  0.00142826  0.49857174  1
  Ir  Ir2  1  0.49857174  0.00142826  0.49857174  1
  Ir  Ir3  1  0.00142826  0.49857174  0.49857174  1
  Ir  Ir4  1  0.49857174  0.49857174  0.00142826  1
  Ir  Ir5  1  0.00142826  0.49857174  0.00142826  1
  Ir  Ir6  1  0.49857174  0.00142826  0.00142826  1
loop_
_geom_bond_atom_site_label_1
_geom_bond_atom_site_label_2
_geom_bond_distance
_geom_bond_site_symmetry_2
Zr0 Zr5 3.254356 1_555
Zr0 Zr1 3.254356 1_555
Zr0 Zr4 3.254356 1_555
Zr0 Zr2 3.254356 1_555
Zr1 Zr3 3.254356 1_555
Zr1 Zr5 3.254356 1_555
Zr1 Zr2 3.254356 1_555
Zr2 Zr3 3.254356 1_555
Zr2 Zr4 3.254356 1_555
Zr3 Zr4 3.254356 1_555
Zr3 Zr5 3.254356 1_555
Zr4 Zr5 3.254356 1_555
Sc0 Zr1 3.254346 1_655
Sc0 Zr0 3.254346 1_555
Sc0 Zr2 3.254346 1_565
Sc1 Zr3 3.254346 1_655
Sc1 Zr2 3.254346 1_556
Sc1 Zr4 3.254346 1_555
Sc2 Zr1 3.254346 1_556
Sc2 Zr5 3.254346 1_555
Sc2 Zr3 3.254346 1_565
Sc3 Zr0 3.254346 1_556
Sc3 Zr5 3.254346 1_655
Sc3 Zr4 3.254346 1_565
Al0 Ir0 2.649315 1_556
Al0 Ir2 2.726775 1_555
Al0 Ir1 2.726775 1_555
Al0 Ir3 2.726775 1_555
Al0 Zr4 3.259166 1_455
Al0 Zr3 3.259166 1_555
Al0 Zr5 3.259166 1_545
Al1 Ir0 2.649316 1_565
Al1 Ir3 2.726775 1_555
Al1 Ir4 2.726775 1_555
Al1 Ir5 2.726775 1_555
Al1 Zr0 3.259166 1_455
Al1 Zr5 3.259166 1_554
Al1 Zr1 3.259166 1_555
Al2 Ir0 2.649315 1_655
Al2 Ir2 2.726775 1_555
Al2 Ir6 2.726775 1_555
Al2 Ir4 2.726775 1_555
Al2 Zr4 3.259166 1_554
Al2 Zr2 3.259166 1_555
Al2 Zr0 3.259166 1_545
Al3 Ir0 2.649315 1_555
Al3 Ir1 2.726775 1_555
Al3 Ir6 2.726775 1_555
Al3 Ir5 2.726775 1_555
Al3 Zr3 3.259166 1_554
Al3 Zr2 3.259166 1_455
Al3 Zr1 3.259166 1_545
Al4 Ir5 2.575115 1_655
Al4 Ir4 2.575115 1_555
Al4 Ir6 2.575116 1_565
Al4 Sc3 2.832796 1_554
Al4 Sc2 2.832796 1_554
Al4 Sc1 2.832797 1_554
Al4 Zr1 2.890472 1_555
Al4 Zr2 2.890472 1_555
Al4 Zr0 2.890472 1_555
Al5 Ir1 2.575115 1_655
Al5 Ir6 2.575115 1_556
Al5 Ir2 2.575115 1_555
Al5 Sc2 2.832796 1_545
Al5 Sc0 2.832796 1_545
Al5 Sc3 2.832796 1_545
Al5 Zr2 2.890472 1_555
Al5 Zr3 2.890472 1_555
Al5 Zr4 2.890472 1_555
Al6 Ir5 2.575115 1_556
Al6 Ir1 2.575116 1_565
Al6 Ir3 2.575116 1_555
Al6 Sc1 2.832796 1_455
Al6 Sc0 2.832796 1_455
Al6 Sc3 2.832796 1_455
Al6 Zr1 2.890472 1_555
Al6 Zr5 2.890472 1_555
Al6 Zr3 2.890472 1_555
Al7 Ir4 2.575115 1_556
Al7 Ir3 2.575115 1_655
Al7 Ir2 2.575116 1_565
Al7 Sc0 2.832796 1_555
Al7 Sc2 2.832796 1_555
Al7 Sc1 2.832796 1_555
Al7 Zr5 2.890472 1_555
Al7 Zr0 2.890472 1_555
Al7 Zr4 2.890472 1_555
Al8 Ir5 2.545480 1_556
Al8 Ir4 2.545480 1_556
Al8 Ir6 2.545480 1_556
Al8 Zr4 2.916591 1_555
Al8 Zr5 2.916591 1_555
Al8 Zr3 2.916591 1_555
Al9 Ir1 2.545479 1_565
Al9 Ir6 2.545480 1_565
Al9 Ir2 2.545480 1_565
Al9 Zr5 2.916591 1_555
Al9 Zr0 2.916592 1_555
Al9 Zr1 2.916592 1_555
Al10 Ir5 2.545480 1_655
Al10 Ir1 2.545480 1_655
Al10 Ir3 2.545480 1_655
Al10 Zr4 2.916591 1_555
Al10 Zr2 2.916591 1_555
Al10 Zr0 2.916592 1_555
Al11 Ir4 2.545479 1_555
Al11 Ir3 2.545480 1_555
Al11 Ir2 2.545480 1_555
Al11 Zr2 2.916591 1_555
Al11 Zr3 2.916591 1_555
Al11 Zr1 2.916592 1_555
Ir0 Sc0 2.602509 1_445
Ir0 Sc2 2.602509 1_544
Ir0 Sc3 2.602509 1_444
Ir0 Sc1 2.602509 1_454
Ir1 Sc3 2.763489 1_445
Ir1 Sc0 2.763489 1_445
Ir1 Zr4 3.243167 1_455
Ir1 Zr2 3.243167 1_455
Ir1 Zr5 3.243167 1_545
Ir1 Zr1 3.243167 1_545
Ir2 Sc2 2.763489 1_545
Ir2 Sc0 2.763489 1_545
Ir2 Zr2 3.243167 1_555
Ir2 Zr5 3.243167 1_545
Ir2 Zr3 3.243167 1_555
Ir2 Zr0 3.243167 1_545
Ir3 Sc1 2.763489 1_455
Ir3 Sc0 2.763489 1_455
Ir3 Zr4 3.243166 1_455
Ir3 Zr1 3.243166 1_555
Ir3 Zr3 3.243167 1_555
Ir3 Zr0 3.243167 1_455
Ir4 Sc1 2.763489 1_554
Ir4 Sc2 2.763489 1_554
Ir4 Zr4 3.243167 1_554
Ir4 Zr5 3.243167 1_554
Ir4 Zr2 3.243167 1_555
Ir4 Zr1 3.243167 1_555
Ir5 Sc1 2.763489 1_454
Ir5 Sc3 2.763489 1_454
Ir5 Zr2 3.243166 1_455
Ir5 Zr5 3.243166 1_554
Ir5 Zr3 3.243166 1_554
Ir5 Zr0 3.243166 1_455
Ir6 Sc3 2.763489 1_544
Ir6 Sc2 2.763489 1_544
Ir6 Zr4 3.243166 1_554
Ir6 Zr1 3.243166 1_545
Ir6 Zr3 3.243167 1_554
Ir6 Zr0 3.243167 1_545
