# generated using pymatgen
data_Hf9TiSn6P
_symmetry_space_group_name_H-M   'P 1'
_cell_length_a   8.40598374
_cell_length_b   8.42906805
_cell_length_c   5.74994632
_cell_angle_alpha   89.63367584
_cell_angle_beta   90.18365592
_cell_angle_gamma   120.09088557
_symmetry_Int_Tables_number   1
_chemical_formula_structural   Hf9TiSn6P
_chemical_formula_sum   'Hf9 Ti1 Sn6 P1'
_cell_volume   352.49680544
_cell_formula_units_Z   1
loop_
 _symmetry_equiv_pos_site_id
 _symmetry_equiv_pos_as_xyz
  1  'x, y, z'
loop_
 _atom_site_type_symbol
 _atom_site_label
 _atom_site_symmetry_multiplicity
 _atom_site_fract_x
 _atom_site_fract_y
 _atom_site_fract_z
 _atom_site_occupancy
  Hf  Hf0  1  0.66586382  0.33236251  0.49930534  1
  Hf  Hf1  1  0.33413618  0.66649969  0.49930534  1
  Hf  Hf2  1  0.33586723  0.66719002  0.99895842  1
  Hf  Hf3  1  0.66413277  0.33132279  0.99895842  1
  Hf  Hf4  1  0.75234939  0.75278037  0.24069681  1
  Hf  Hf5  1  0.24765061  0.00043098  0.24069681  1
  Hf  Hf6  1  1.00000000  0.24824124  0.24490384  1
  Hf  Hf7  1  0.24961112  0.25184911  0.76004633  1
  Hf  Hf8  1  0.75038888  0.00223799  0.76004633  1
  Ti  Ti0  1  1.00000000  0.74703159  0.75356133  1
  Sn  Sn0  1  0.39501892  0.39533183  0.25227104  1
  Sn  Sn1  1  0.60498108  0.00031292  0.25227104  1
  Sn  Sn2  1  0.00000000  0.60563560  0.24573225  1
  Sn  Sn3  1  0.61271901  0.60892871  0.74708919  1
  Sn  Sn4  1  0.38728099  0.99620970  0.74708919  1
  Sn  Sn5  1  1.00000000  0.39901625  0.75015943  1
  P  P0  1  0.00000000  0.99461771  0.50890889  1
loop_
_geom_bond_atom_site_label_1
_geom_bond_atom_site_label_2
_geom_bond_distance
_geom_bond_site_symmetry_2
Hf0 Sn0 2.943495 1_555
Hf0 Sn5 2.947410 1_555
Hf0 Sn1 2.953482 1_555
Hf0 Sn3 2.958847 1_555
Hf0 Sn2 2.969259 1_655
Hf0 Sn4 2.976320 1_545
Hf1 Sn1 2.943490 1_565
Hf1 Sn5 2.947412 1_455
Hf1 Sn0 2.953489 1_555
Hf1 Sn4 2.958839 1_555
Hf1 Sn2 2.969256 1_555
Hf1 Sn3 2.976325 1_555
Hf2 Sn0 2.952111 1_556
Hf2 Sn4 2.954031 1_555
Hf2 Sn5 2.956892 1_455
Hf2 Sn1 2.963956 1_566
Hf2 Sn2 2.966642 1_556
Hf2 Sn3 2.988507 1_555
Hf3 Sn1 2.952111 1_556
Hf3 Sn3 2.954031 1_555
Hf3 Sn5 2.956892 1_555
Hf3 Sn0 2.963956 1_556
Hf3 Sn2 2.966642 1_656
Hf3 Sn4 2.988507 1_545
Hf4 P0 2.575228 1_655
Hf4 Sn2 2.908790 1_655
Hf4 Sn1 2.913145 1_565
Hf4 Sn0 3.004737 1_555
Hf4 Sn3 3.082031 1_554
Hf4 Sn3 3.142565 1_555
Hf5 P0 2.575227 1_545
Hf5 Sn2 2.908790 1_545
Hf5 Sn0 2.913145 1_555
Hf5 Sn1 3.004737 1_555
Hf5 Sn4 3.082031 1_544
Hf5 Sn4 3.142566 1_545
Hf6 P0 2.614021 1_645
Hf6 Sn1 2.904551 1_555
Hf6 Sn0 2.904551 1_655
Hf6 Sn2 3.012536 1_655
Hf6 Sn5 3.108305 1_554
Hf6 Sn5 3.178447 1_555
Hf7 P0 2.578304 1_545
Hf7 Sn4 2.913941 1_545
Hf7 Sn5 2.924530 1_455
Hf7 Sn3 3.027806 1_555
Hf7 Sn0 3.083241 1_556
Hf7 Sn0 3.158582 1_555
Hf8 P0 2.578304 1_645
Hf8 Sn3 2.913941 1_545
Hf8 Sn5 2.924530 1_555
Hf8 Sn4 3.027806 1_545
Hf8 Sn1 3.083241 1_556
Hf8 Sn1 3.158583 1_555
Sn2 Ti0 3.063658 1_454
Sn2 Ti0 3.160904 1_455
Sn3 Ti0 2.855580 1_555
Sn4 Ti0 2.855580 1_455
Sn5 Ti0 2.933635 1_555
P0 Ti0 2.509305 1_455
