# generated using pymatgen
data_HfIn2(Ni10P3)2
_symmetry_space_group_name_H-M   'P 1'
_cell_length_a   7.83135559
_cell_length_b   7.83135591
_cell_length_c   7.83135417
_cell_angle_alpha   59.99999912
_cell_angle_beta   59.99999774
_cell_angle_gamma   59.99999987
_symmetry_Int_Tables_number   1
_chemical_formula_structural   HfIn2(Ni10P3)2
_chemical_formula_sum   'Hf1 In2 Ni20 P6'
_cell_volume   339.62195866
_cell_formula_units_Z   1
loop_
 _symmetry_equiv_pos_site_id
 _symmetry_equiv_pos_as_xyz
  1  'x, y, z'
loop_
 _atom_site_type_symbol
 _atom_site_label
 _atom_site_symmetry_multiplicity
 _atom_site_fract_x
 _atom_site_fract_y
 _atom_site_fract_z
 _atom_site_occupancy
  Hf  Hf0  1  0.00000000  0.00000000  0.00000000  1
  In  In0  1  0.75000000  0.75000000  0.75000000  1
  In  In1  1  0.25000000  0.25000000  0.25000000  1
  Ni  Ni0  1  1.00000000  0.65151396  0.00000000  1
  Ni  Ni1  1  0.15334994  0.61554969  0.61554969  1
  Ni  Ni2  1  1.00000000  1.00000000  0.65151396  1
  Ni  Ni3  1  0.00000000  0.00000000  0.34848604  1
  Ni  Ni4  1  0.65151396  0.00000000  0.34848604  1
  Ni  Ni5  1  0.34848604  0.00000000  1.00000000  1
  Ni  Ni6  1  0.84665006  0.38445031  0.38445031  1
  Ni  Ni7  1  0.00000000  0.65151396  0.34848604  1
  Ni  Ni8  1  0.61554969  0.61554969  0.61554969  1
  Ni  Ni9  1  0.38445031  0.84665006  0.38445031  1
  Ni  Ni10  1  0.65151396  0.34848604  1.00000000  1
  Ni  Ni11  1  1.00000000  0.34848604  0.65151396  1
  Ni  Ni12  1  0.34848604  0.65151396  0.00000000  1
  Ni  Ni13  1  0.34848604  1.00000000  0.65151396  1
  Ni  Ni14  1  0.38445031  0.38445031  0.38445031  1
  Ni  Ni15  1  0.65151396  1.00000000  0.00000000  1
  Ni  Ni16  1  0.00000000  0.34848604  1.00000000  1
  Ni  Ni17  1  0.61554969  0.61554969  0.15334994  1
  Ni  Ni18  1  0.38445031  0.38445031  0.84665006  1
  Ni  Ni19  1  0.61554969  0.15334994  0.61554969  1
  P  P0  1  0.26470358  0.73529642  0.26470358  1
  P  P1  1  0.73529642  0.73529642  0.26470358  1
  P  P2  1  0.73529642  0.26470358  0.26470358  1
  P  P3  1  0.26470358  0.73529642  0.73529642  1
  P  P4  1  0.26470358  0.26470358  0.73529642  1
  P  P5  1  0.73529642  0.26470358  0.73529642  1
loop_
_geom_bond_atom_site_label_1
_geom_bond_atom_site_label_2
_geom_bond_distance
_geom_bond_site_symmetry_2
Hf0 Ni3 2.729118 1_555
Hf0 Ni2 2.729118 1_444
Hf0 Ni4 2.729118 1_455
Hf0 Ni13 2.729118 1_544
Hf0 Ni7 2.729118 1_545
Hf0 Ni11 2.729118 1_454
Hf0 Ni15 2.729118 1_445
Hf0 Ni5 2.729118 1_554
Hf0 Ni12 2.729118 1_545
Hf0 Ni10 2.729118 1_454
Hf0 Ni16 2.729118 1_554
Hf0 Ni0 2.729118 1_445
Hf0 P2 2.931647 1_455
Hf0 P3 2.931647 1_544
Hf0 P0 2.931647 1_545
Hf0 P5 2.931647 1_454
Hf0 P4 2.931648 1_554
Hf0 P1 2.931648 1_445
In0 Ni17 2.579130 1_556
In0 Ni1 2.579130 1_655
In0 Ni19 2.579131 1_565
In0 Ni8 2.579137 1_555
In1 Ni18 2.579130 1_554
In1 Ni6 2.579130 1_455
In1 Ni9 2.579131 1_545
In1 Ni14 2.579137 1_555
Ni0 P1 2.174347 1_555
Ni0 P3 2.174347 1_654
Ni1 P0 2.243727 1_555
Ni1 P4 2.243728 1_555
Ni1 P3 2.243734 1_555
Ni2 P5 2.174347 1_565
Ni2 P3 2.174347 1_655
Ni3 P0 2.174347 1_545
Ni3 P2 2.174347 1_455
Ni4 P1 2.174347 1_545
Ni4 P2 2.174347 1_555
Ni5 P4 2.174347 1_555
Ni5 P0 2.174347 1_546
Ni6 P5 2.243727 1_555
Ni6 P1 2.243728 1_555
Ni6 P2 2.243734 1_555
Ni7 P1 2.174347 1_455
Ni7 P0 2.174347 1_555
Ni8 P1 2.243727 1_555
Ni8 P3 2.243728 1_555
Ni8 P5 2.243728 1_555
Ni9 P3 2.243727 1_555
Ni9 P1 2.243727 1_555
Ni9 P0 2.243734 1_555
Ni10 P2 2.174347 1_556
Ni10 P5 2.174347 1_555
Ni11 P4 2.174347 1_655
Ni11 P5 2.174347 1_555
Ni12 P3 2.174347 1_554
Ni12 P0 2.174347 1_555
Ni13 P4 2.174347 1_565
Ni13 P3 2.174347 1_555
Ni14 P4 2.243727 1_555
Ni14 P2 2.243728 1_555
Ni14 P0 2.243728 1_555
Ni15 P1 2.174347 1_555
Ni15 P5 2.174347 1_564
Ni16 P4 2.174347 1_555
Ni16 P2 2.174347 1_456
Ni17 P0 2.243727 1_555
Ni17 P2 2.243728 1_555
Ni17 P1 2.243734 1_555
Ni18 P5 2.243727 1_555
Ni18 P3 2.243728 1_555
Ni18 P4 2.243734 1_555
Ni19 P2 2.243727 1_555
Ni19 P4 2.243727 1_555
Ni19 P5 2.243734 1_555
