# generated using pymatgen
data_SrMn(As4Ru)3
_symmetry_space_group_name_H-M   'P 1'
_cell_length_a   7.43614018
_cell_length_b   7.43987502
_cell_length_c   7.43613972
_cell_angle_alpha   109.48140211
_cell_angle_beta   109.46104304
_cell_angle_gamma   109.48140022
_symmetry_Int_Tables_number   1
_chemical_formula_structural   SrMn(As4Ru)3
_chemical_formula_sum   'Sr1 Mn1 As12 Ru3'
_cell_volume   316.65346990
_cell_formula_units_Z   1
loop_
 _symmetry_equiv_pos_site_id
 _symmetry_equiv_pos_as_xyz
  1  'x, y, z'
loop_
 _atom_site_type_symbol
 _atom_site_label
 _atom_site_symmetry_multiplicity
 _atom_site_fract_x
 _atom_site_fract_y
 _atom_site_fract_z
 _atom_site_occupancy
  Sr  Sr0  1  0.00000000  0.00000000  0.00000000  1
  Mn  Mn0  1  0.00000000  0.50000000  0.00000000  1
  As  As0  1  0.85070079  0.65213852  0.50222728  1
  As  As1  1  0.14929921  0.34786148  0.49777272  1
  As  As2  1  0.15111832  0.65239894  0.79479964  1
  As  As3  1  0.84888168  0.34760106  0.20520036  1
  As  As4  1  0.64368132  0.50128162  0.84888168  1
  As  As5  1  0.35631868  0.49871838  0.15111832  1
  As  As6  1  0.65152649  0.80143773  0.14929921  1
  As  As7  1  0.34847351  0.19856227  0.85070079  1
  As  As8  1  0.50222728  0.85008976  0.65152649  1
  As  As9  1  0.49777272  0.14991024  0.34847351  1
  As  As10  1  0.20520036  0.85760029  0.35631868  1
  As  As11  1  0.79479964  0.14239971  0.64368132  1
  Ru  Ru0  1  0.50000000  0.50000000  0.50000000  1
  Ru  Ru1  1  0.50000000  0.00000000  0.00000000  1
  Ru  Ru2  1  0.00000000  0.00000000  0.50000000  1
loop_
_geom_bond_atom_site_label_1
_geom_bond_atom_site_label_2
_geom_bond_distance
_geom_bond_site_symmetry_2
As0 Ru2 2.460729 1_665
As0 Ru0 2.464191 1_555
As0 As2 2.545505 1_655
As0 As3 2.575636 1_555
As0 Sr0 3.253815 1_666
As1 Ru2 2.460729 1_555
As1 Ru0 2.464191 1_555
As1 As3 2.545505 1_455
As1 As2 2.575636 1_555
As1 Sr0 3.253815 1_555
As2 Ru1 2.449886 1_566
As2 Mn0 2.514642 1_556
As2 Sr0 3.275358 1_566
As3 Ru1 2.449886 1_555
As3 Mn0 2.514642 1_655
As3 Sr0 3.275358 1_655
As4 Ru0 2.449882 1_555
As4 Mn0 2.514646 1_656
As4 As6 2.545501 1_556
As4 As7 2.575640 1_555
As4 Sr0 3.275352 1_666
As5 Ru0 2.449882 1_555
As5 Mn0 2.514646 1_555
As5 As7 2.545501 1_554
As5 As6 2.575640 1_555
As5 Sr0 3.275352 1_555
As6 Ru1 2.460729 1_565
As6 Ru2 2.464191 1_665
As6 Sr0 3.253815 1_665
As7 Ru1 2.460729 1_556
As7 Ru2 2.464191 1_555
As7 Sr0 3.253815 1_556
As8 Ru0 2.460735 1_555
As8 Ru1 2.464190 1_566
As8 Sr0 3.253818 1_666
As9 Ru0 2.460735 1_555
As9 Ru1 2.464190 1_555
As9 Sr0 3.253818 1_555
As10 Ru2 2.449882 1_565
As10 Mn0 2.514646 1_555
As10 As9 2.545496 1_565
As10 As8 2.575636 1_555
As10 Sr0 3.275352 1_565
As11 Ru2 2.449882 1_655
As11 Mn0 2.514646 1_656
As11 As8 2.545496 1_545
As11 As9 2.575636 1_555
As11 Sr0 3.275352 1_656
