# generated using pymatgen
data_RbBaSb(AsSe3)2
_symmetry_space_group_name_H-M   'P 1'
_cell_length_a   25.86768755
_cell_length_b   6.37651237
_cell_length_c   9.14483843
_cell_angle_alpha   66.01395352
_cell_angle_beta   90.00000000
_cell_angle_gamma   90.00000000
_symmetry_Int_Tables_number   1
_chemical_formula_structural   RbBaSb(AsSe3)2
_chemical_formula_sum   'Rb4 Ba4 Sb4 As8 Se24'
_cell_volume   1378.14237813
_cell_formula_units_Z   4
loop_
 _symmetry_equiv_pos_site_id
 _symmetry_equiv_pos_as_xyz
  1  'x, y, z'
loop_
 _atom_site_type_symbol
 _atom_site_label
 _atom_site_symmetry_multiplicity
 _atom_site_fract_x
 _atom_site_fract_y
 _atom_site_fract_z
 _atom_site_occupancy
  Rb  Rb0  1  0.94126998  0.74541666  0.09580424  1
  Rb  Rb1  1  0.05873002  0.25458334  0.90419576  1
  Rb  Rb2  1  0.44126998  0.25458334  0.40419576  1
  Rb  Rb3  1  0.55873002  0.74541666  0.59580424  1
  Ba  Ba0  1  0.74670522  0.80874213  0.06918027  1
  Ba  Ba1  1  0.25329478  0.19125787  0.93081973  1
  Ba  Ba2  1  0.24670522  0.19125787  0.43081973  1
  Ba  Ba3  1  0.75329478  0.80874213  0.56918027  1
  Sb  Sb0  1  0.57085847  0.95189404  0.03854011  1
  Sb  Sb1  1  0.42914153  0.04810596  0.96145989  1
  Sb  Sb2  1  0.07085847  0.04810596  0.46145989  1
  Sb  Sb3  1  0.92914153  0.95189404  0.53854011  1
  As  As0  1  0.65046212  0.33414625  0.19108190  1
  As  As1  1  0.34953788  0.66585375  0.80891810  1
  As  As2  1  0.15046212  0.66585375  0.30891810  1
  As  As3  1  0.84953788  0.33414625  0.69108190  1
  As  As4  1  0.83697565  0.33243465  0.09389523  1
  As  As5  1  0.16302435  0.66756535  0.90610477  1
  As  As6  1  0.33697565  0.66756535  0.40610477  1
  As  As7  1  0.66302435  0.33243465  0.59389523  1
  Se  Se0  1  0.48767498  0.87227308  0.22440223  1
  Se  Se1  1  0.51232502  0.12772692  0.77559777  1
  Se  Se2  1  0.98767498  0.12772692  0.27559777  1
  Se  Se3  1  0.01232502  0.87227308  0.72440223  1
  Se  Se4  1  0.65852100  0.93102925  0.29015171  1
  Se  Se5  1  0.34147900  0.06897075  0.70984829  1
  Se  Se6  1  0.15852100  0.06897075  0.20984829  1
  Se  Se7  1  0.84147900  0.93102925  0.79015171  1
  Se  Se8  1  0.83967507  0.93838011  0.26921823  1
  Se  Se9  1  0.16032493  0.06161989  0.73078177  1
  Se  Se10  1  0.33967507  0.06161989  0.23078177  1
  Se  Se11  1  0.66032493  0.93838011  0.76921823  1
  Se  Se12  1  0.74100243  0.37538710  0.44380858  1
  Se  Se13  1  0.25899757  0.62461290  0.55619142  1
  Se  Se14  1  0.24100243  0.62461290  0.05619142  1
  Se  Se15  1  0.75899757  0.37538710  0.94380858  1
  Se  Se16  1  0.41656949  0.62126360  0.00433336  1
  Se  Se17  1  0.58343051  0.37873640  0.99566664  1
  Se  Se18  1  0.91656949  0.37873640  0.49566664  1
  Se  Se19  1  0.08343051  0.62126360  0.50433336  1
  Se  Se20  1  0.59428410  0.35740596  0.39833617  1
  Se  Se21  1  0.40571590  0.64259404  0.60166383  1
  Se  Se22  1  0.09428410  0.64259404  0.10166383  1
  Se  Se23  1  0.90571590  0.35740596  0.89833617  1
loop_
_geom_bond_atom_site_label_1
_geom_bond_atom_site_label_2
_geom_bond_distance
_geom_bond_site_symmetry_2
Rb0 Se18 3.506450 1_555
Rb0 Se8 3.538619 1_555
Rb0 Se7 3.631445 1_554
Rb0 Se3 3.651657 1_654
Rb0 Se2 3.653211 1_565
Rb0 Se23 3.688611 1_564
Rb0 Se23 3.723004 1_554
Rb0 Se2 3.793751 1_555
Rb0 Se22 4.008854 1_655
Rb1 Se19 3.506450 1_555
Rb1 Se9 3.538619 1_555
Rb1 Se6 3.631445 1_556
Rb1 Se2 3.651657 1_456
Rb1 Se3 3.653211 1_545
Rb1 Se22 3.688611 1_546
Rb1 Se22 3.723004 1_556
Rb1 Se3 3.793751 1_555
Rb1 Se23 4.008854 1_455
Rb2 Se16 3.506450 1_555
Rb2 Se10 3.538619 1_555
Rb2 Se5 3.631445 1_555
Rb2 Se1 3.651657 1_555
Rb2 Se0 3.653211 1_545
Rb2 Se21 3.688611 1_545
Rb2 Se21 3.723004 1_555
Rb2 Se0 3.793751 1_555
Rb2 Se20 4.008854 1_555
Rb3 Se17 3.506450 1_555
Rb3 Se11 3.538619 1_555
Rb3 Se4 3.631445 1_555
Rb3 Se0 3.651657 1_555
Rb3 Se1 3.653211 1_565
Rb3 Se20 3.688611 1_565
Rb3 Se20 3.723004 1_555
Rb3 Se1 3.793751 1_555
Rb3 Se21 4.008854 1_555
Ba0 Se8 3.323069 1_555
Ba0 Se15 3.332102 1_564
Ba0 Se4 3.343063 1_555
Ba0 Se11 3.370040 1_554
Ba0 Se7 3.392876 1_554
Ba0 Se15 3.409860 1_554
Ba0 Se12 3.420185 1_555
Ba1 Se9 3.323069 1_555
Ba1 Se14 3.332102 1_546
Ba1 Se5 3.343063 1_555
Ba1 Se10 3.370040 1_556
Ba1 Se6 3.392876 1_556
Ba1 Se14 3.409860 1_556
Ba1 Se13 3.420185 1_555
Ba2 Se10 3.323069 1_555
Ba2 Se13 3.332102 1_545
Ba2 Se6 3.343063 1_555
Ba2 Se9 3.370040 1_555
Ba2 Se5 3.392876 1_555
Ba2 Se13 3.409860 1_555
Ba2 Se14 3.420185 1_555
Ba3 Se11 3.323069 1_555
Ba3 Se12 3.332102 1_565
Ba3 Se7 3.343063 1_555
Ba3 Se8 3.370040 1_555
Ba3 Se4 3.392876 1_555
Ba3 Se12 3.409860 1_555
Ba3 Se15 3.420185 1_555
Sb0 Se17 2.607659 1_564
Sb0 Se0 2.659920 1_555
Sb0 Se1 2.672017 1_564
Sb0 Se4 3.194574 1_555
Sb1 Se16 2.607659 1_546
Sb1 Se1 2.659920 1_555
Sb1 Se0 2.672017 1_546
Sb1 Se5 3.194574 1_555
Sb2 Se19 2.607659 1_545
Sb2 Se2 2.659920 1_455
Sb2 Se3 2.672017 1_545
Sb2 Se6 3.194574 1_555
Sb3 Se18 2.607659 1_565
Sb3 Se3 2.659920 1_655
Sb3 Se2 2.672017 1_565
Sb3 Se7 3.194574 1_555
As0 Se4 2.361831 1_545
As0 Se17 2.422363 1_554
As0 Se20 2.440186 1_555
As0 Ba0 3.722394 1_555
As1 Se5 2.361831 1_565
As1 Se16 2.422363 1_556
As1 Se21 2.440186 1_555
As1 Ba1 3.722394 1_555
As2 Se6 2.361831 1_565
As2 Se19 2.422363 1_555
As2 Se22 2.440186 1_555
As2 Ba2 3.722394 1_555
As3 Se7 2.361831 1_545
As3 Se18 2.422363 1_555
As3 Se23 2.440186 1_555
As3 Ba3 3.722394 1_555
As4 Se8 2.369327 1_545
As4 Se15 2.392057 1_554
As4 Se23 2.480701 1_554
As4 Ba0 3.764317 1_555
As4 Rb0 3.775024 1_555
As5 Se9 2.369327 1_565
As5 Se14 2.392057 1_556
As5 Se22 2.480701 1_556
As5 Ba1 3.764317 1_555
As5 Rb1 3.775024 1_555
As6 Se10 2.369327 1_565
As6 Se13 2.392057 1_555
As6 Se21 2.480701 1_555
As6 Ba2 3.764317 1_555
As6 Rb2 3.775024 1_555
As7 Se11 2.369327 1_545
As7 Se12 2.392057 1_555
As7 Se20 2.480701 1_555
As7 Ba3 3.764317 1_555
As7 Rb3 3.775024 1_555
