# generated using pymatgen
data_Hf4Ti2BBr12
_symmetry_space_group_name_H-M   'P 1'
_cell_length_a   8.41607740
_cell_length_b   8.46165783
_cell_length_c   8.42123999
_cell_angle_alpha   107.00759524
_cell_angle_beta   107.14754298
_cell_angle_gamma   107.12696576
_symmetry_Int_Tables_number   1
_chemical_formula_structural   Hf4Ti2BBr12
_chemical_formula_sum   'Hf4 Ti2 B1 Br12'
_cell_volume   498.15677695
_cell_formula_units_Z   1
loop_
 _symmetry_equiv_pos_site_id
 _symmetry_equiv_pos_as_xyz
  1  'x, y, z'
loop_
 _atom_site_type_symbol
 _atom_site_label
 _atom_site_symmetry_multiplicity
 _atom_site_fract_x
 _atom_site_fract_y
 _atom_site_fract_z
 _atom_site_occupancy
  Hf  Hf0  1  0.09908536  0.03003765  0.29136061  1
  Hf  Hf1  1  0.90409585  0.96746349  0.71012289  1
  Hf  Hf2  1  0.70318253  0.90029793  0.96777317  1
  Hf  Hf3  1  0.03202122  0.29257172  0.09668918  1
  Ti  Ti0  1  0.97520962  0.72784838  0.90942985  1
  Ti  Ti1  1  0.27506979  0.08872306  0.02853778  1
  B  B0  1  0.99464268  0.00297972  0.00219537  1
  Br  Br0  1  0.92012537  0.30547571  0.77076008  1
  Br  Br1  1  0.69075294  0.22634239  0.07903971  1
  Br  Br2  1  0.44553779  0.14249993  0.36513200  1
  Br  Br3  1  0.86117977  0.63135328  0.56111884  1
  Br  Br4  1  0.22604112  0.07681167  0.68930233  1
  Br  Br5  1  0.63735653  0.55697576  0.85760849  1
  Br  Br6  1  0.37034924  0.43713637  0.14021069  1
  Br  Br7  1  0.77448314  0.91926974  0.31271482  1
  Br  Br8  1  0.14600342  0.37056743  0.44859591  1
  Br  Br9  1  0.55056124  0.85282625  0.62574161  1
  Br  Br10  1  0.31443641  0.78182395  0.92493086  1
  Br  Br11  1  0.07986600  0.68899356  0.21873580  1
loop_
_geom_bond_atom_site_label_1
_geom_bond_atom_site_label_2
_geom_bond_distance
_geom_bond_site_symmetry_2
B0 Ti0 2.166425 1_544
B0 Ti1 2.175835 1_655
B0 Hf3 2.234826 1_655
B0 Hf2 2.243661 1_544
B0 Hf0 2.246789 1_655
B0 Hf1 2.246817 1_544
Br0 Hf3 2.672830 1_656
Br0 Hf1 2.708709 1_545
Br0 Ti0 3.258108 1_555
Br1 Hf2 2.686231 1_544
Br1 Hf3 2.708668 1_655
Br1 Ti1 3.195212 1_555
Br2 Hf0 2.597119 1_555
Br2 Ti1 2.600568 1_555
Br3 Ti0 2.582429 1_555
Br3 Hf1 2.614124 1_555
Br4 Hf1 2.669605 1_445
Br4 Ti1 2.730128 1_556
Br4 Hf0 3.064673 1_555
Br5 Hf2 2.603737 1_555
Br5 Ti0 2.616041 1_555
Br6 Ti1 2.600010 1_555
Br6 Hf3 2.609450 1_555
Br7 Hf0 2.693357 1_665
Br7 Hf2 2.732498 1_554
Br7 Hf1 3.056689 1_555
Br8 Hf3 2.635282 1_555
Br8 Hf0 2.646038 1_555
Br9 Hf2 2.635375 1_555
Br9 Hf1 2.636073 1_555
Br10 Ti1 2.639416 1_566
Br10 Ti0 2.711790 1_455
Br10 Hf2 2.999982 1_555
Br11 Ti0 2.643343 1_454
Br11 Hf0 2.713356 1_565
Br11 Hf3 3.068223 1_555
