# generated using pymatgen
data_Cs3Mg2H9Ru
_symmetry_space_group_name_H-M   'P 1'
_cell_length_a   8.03439588
_cell_length_b   8.03439546
_cell_length_c   8.03439556
_cell_angle_alpha   46.04447423
_cell_angle_beta   46.04448201
_cell_angle_gamma   46.04448416
_symmetry_Int_Tables_number   1
_chemical_formula_structural   Cs3Mg2H9Ru
_chemical_formula_sum   'Cs3 Mg2 H9 Ru1'
_cell_volume   245.17422557
_cell_formula_units_Z   1
loop_
 _symmetry_equiv_pos_site_id
 _symmetry_equiv_pos_as_xyz
  1  'x, y, z'
loop_
 _atom_site_type_symbol
 _atom_site_label
 _atom_site_symmetry_multiplicity
 _atom_site_fract_x
 _atom_site_fract_y
 _atom_site_fract_z
 _atom_site_occupancy
  Cs  Cs0  1  0.00000000  0.00000000  0.00000000  1
  Cs  Cs1  1  0.78898761  0.78898761  0.78898761  1
  Cs  Cs2  1  0.21101239  0.21101239  0.21101239  1
  Mg  Mg0  1  0.61786425  0.61786425  0.61786425  1
  Mg  Mg1  1  0.38213575  0.38213575  0.38213575  1
  H  H0  1  0.00000000  0.50000000  0.50000000  1
  H  H1  1  0.50000000  0.00000000  0.50000000  1
  H  H2  1  0.50000000  0.50000000  0.00000000  1
  H  H3  1  0.70926198  0.32368832  0.32368832  1
  H  H4  1  0.32368832  0.70926198  0.32368832  1
  H  H5  1  0.32368832  0.32368832  0.70926198  1
  H  H6  1  0.67631168  0.67631168  0.29073802  1
  H  H7  1  0.67631168  0.29073802  0.67631168  1
  H  H8  1  0.29073802  0.67631168  0.67631168  1
  Ru  Ru0  1  0.50000000  0.50000000  0.50000000  1
loop_
_geom_bond_atom_site_label_1
_geom_bond_atom_site_label_2
_geom_bond_distance
_geom_bond_site_symmetry_2
Cs0 H0 3.142159 1_545
Cs0 H0 3.142159 1_554
Cs0 H1 3.142159 1_554
Cs0 H1 3.142159 1_455
Cs0 H2 3.142159 1_545
Cs0 H2 3.142159 1_455
Cs0 H5 3.392014 1_554
Cs0 H6 3.392014 1_445
Cs0 H4 3.392014 1_545
Cs0 H7 3.392014 1_454
Cs0 H8 3.392014 1_544
Cs0 H3 3.392014 1_455
Cs1 H7 2.982540 1_565
Cs1 H6 2.982540 1_556
Cs1 H8 2.982540 1_655
Cs1 H3 3.170331 1_556
Cs1 H3 3.170332 1_565
Cs1 H4 3.170332 1_556
Cs1 H5 3.170332 1_565
Cs1 H4 3.170332 1_655
Cs1 H5 3.170332 1_655
Cs1 H2 3.195459 1_556
Cs1 H1 3.195459 1_565
Cs1 H0 3.195459 1_655
Cs2 H4 2.982540 1_545
Cs2 H5 2.982540 1_554
Cs2 H3 2.982540 1_455
Cs2 H8 3.170331 1_554
Cs2 H8 3.170332 1_545
Cs2 H7 3.170332 1_554
Cs2 H6 3.170332 1_545
Cs2 H7 3.170332 1_455
Cs2 H6 3.170332 1_455
Cs2 H2 3.195459 1_555
Cs2 H1 3.195459 1_555
Cs2 H0 3.195459 1_555
H0 Mg1 2.095840 1_555
H0 Mg0 2.095840 1_455
H1 Mg1 2.095840 1_555
H1 Mg0 2.095840 1_545
H2 Mg1 2.095840 1_555
H2 Mg0 2.095840 1_554
H3 Ru0 1.735864 1_555
H3 Mg1 2.056274 1_555
H4 Ru0 1.735863 1_555
H4 Mg1 2.056274 1_555
H5 Ru0 1.735863 1_555
H5 Mg1 2.056274 1_555
H6 Ru0 1.735863 1_555
H6 Mg0 2.056274 1_555
H7 Ru0 1.735863 1_555
H7 Mg0 2.056274 1_555
H8 Ru0 1.735864 1_555
H8 Mg0 2.056274 1_555
