# generated using pymatgen
data_Y3Cd3Hg2Pb
_symmetry_space_group_name_H-M   'P 1'
_cell_length_a   7.60823803
_cell_length_b   7.60823720
_cell_length_c   4.44607706
_cell_angle_alpha   90.00000000
_cell_angle_beta   90.00000000
_cell_angle_gamma   120.00000358
_symmetry_Int_Tables_number   1
_chemical_formula_structural   Y3Cd3Hg2Pb
_chemical_formula_sum   'Y3 Cd3 Hg2 Pb1'
_cell_volume   222.88237993
_cell_formula_units_Z   1
loop_
 _symmetry_equiv_pos_site_id
 _symmetry_equiv_pos_as_xyz
  1  'x, y, z'
loop_
 _atom_site_type_symbol
 _atom_site_label
 _atom_site_symmetry_multiplicity
 _atom_site_fract_x
 _atom_site_fract_y
 _atom_site_fract_z
 _atom_site_occupancy
  Y  Y0  1  0.41181862  0.98962296  0.49999900  1
  Y  Y1  1  0.01037704  0.42219467  0.49999900  1
  Y  Y2  1  0.57780533  0.58818138  0.49999900  1
  Cd  Cd0  1  0.74744592  0.98618582  0.00000000  1
  Cd  Cd1  1  0.23873890  0.25255408  0.00000000  1
  Cd  Cd2  1  0.01381418  0.76126210  0.00000000  1
  Hg  Hg0  1  0.33333300  0.66666600  0.00000000  1
  Hg  Hg1  1  0.00000000  0.00000000  0.49999900  1
  Pb  Pb0  1  0.66666700  0.33333300  0.00000000  1
loop_
_geom_bond_atom_site_label_1
_geom_bond_atom_site_label_2
_geom_bond_distance
_geom_bond_site_symmetry_2
Cd0 Hg0 2.859575 1_555
Cd0 Hg1 2.905702 1_665
Cd0 Hg1 2.905709 1_664
Cd0 Pb0 2.996125 1_565
Cd0 Cd2 3.240924 1_655
Cd0 Cd1 3.240931 1_665
Cd0 Y0 3.395566 1_555
Cd0 Y0 3.395572 1_554
Cd0 Y2 3.445124 1_555
Cd0 Y2 3.445130 1_554
Cd0 Y1 3.648544 1_665
Cd0 Y1 3.648549 1_664
Cd1 Hg0 2.859566 1_555
Cd1 Hg1 2.905700 1_555
Cd1 Hg1 2.905707 1_554
Cd1 Pb0 2.996140 1_555
Cd1 Cd2 3.240923 1_545
Cd1 Y2 3.395572 1_555
Cd1 Y2 3.395577 1_554
Cd1 Y1 3.445114 1_555
Cd1 Y1 3.445120 1_554
Cd1 Y0 3.648553 1_545
Cd1 Y0 3.648559 1_544
Cd2 Hg0 2.859584 1_555
Cd2 Hg1 2.905692 1_565
Cd2 Hg1 2.905699 1_564
Cd2 Pb0 2.996140 1_455
Cd2 Y1 3.395583 1_555
Cd2 Y1 3.395589 1_554
Cd2 Y0 3.445123 1_555
Cd2 Y0 3.445129 1_554
Cd2 Y2 3.648542 1_455
Cd2 Y2 3.648547 1_454
Hg0 Y1 3.141447 1_555
Hg0 Y0 3.141450 1_555
Hg0 Y2 3.141452 1_555
Hg0 Y1 3.141453 1_554
Hg0 Y0 3.141457 1_554
Hg0 Y2 3.141458 1_554
Hg1 Y1 3.173418 1_555
Hg1 Y2 3.173422 1_445
Hg1 Y0 3.173426 1_545
Pb0 Y0 3.235640 1_545
Pb0 Y2 3.235640 1_555
Pb0 Y1 3.235640 1_655
Pb0 Y0 3.235646 1_544
Pb0 Y2 3.235646 1_554
Pb0 Y1 3.235646 1_654
