# generated using pymatgen
data_Na6Al7Ag16
_symmetry_space_group_name_H-M   'P 1'
_cell_length_a   9.18002295
_cell_length_b   9.18002246
_cell_length_c   9.18002250
_cell_angle_alpha   59.99999639
_cell_angle_beta   59.99999813
_cell_angle_gamma   59.99999299
_symmetry_Int_Tables_number   1
_chemical_formula_structural   Na6Al7Ag16
_chemical_formula_sum   'Na6 Al7 Ag16'
_cell_volume   547.03639007
_cell_formula_units_Z   1
loop_
 _symmetry_equiv_pos_site_id
 _symmetry_equiv_pos_as_xyz
  1  'x, y, z'
loop_
 _atom_site_type_symbol
 _atom_site_label
 _atom_site_symmetry_multiplicity
 _atom_site_fract_x
 _atom_site_fract_y
 _atom_site_fract_z
 _atom_site_occupancy
  Na  Na0  1  0.70649573  0.29350427  0.29350427  1
  Na  Na1  1  0.29350427  0.70649573  0.70649573  1
  Na  Na2  1  0.29350427  0.70649573  0.29350427  1
  Na  Na3  1  0.29350427  0.29350427  0.70649573  1
  Na  Na4  1  0.70649573  0.29350427  0.70649573  1
  Na  Na5  1  0.70649573  0.70649573  0.29350427  1
  Al  Al0  1  0.50000000  0.00000000  0.00000000  1
  Al  Al1  1  0.00000000  0.50000000  0.50000000  1
  Al  Al2  1  0.00000000  0.50000000  0.00000000  1
  Al  Al3  1  0.00000000  0.00000000  0.50000000  1
  Al  Al4  1  0.50000000  0.00000000  0.50000000  1
  Al  Al5  1  0.50000000  0.50000000  0.00000000  1
  Al  Al6  1  0.00000000  0.00000000  0.00000000  1
  Ag  Ag0  1  0.33186971  0.33186971  0.33186971  1
  Ag  Ag1  1  0.33186971  0.33186971  0.00439087  1
  Ag  Ag2  1  0.00439087  0.33186971  0.33186971  1
  Ag  Ag3  1  0.33186971  0.00439087  0.33186971  1
  Ag  Ag4  1  0.66813029  0.66813029  0.66813029  1
  Ag  Ag5  1  0.66813029  0.66813029  0.99560913  1
  Ag  Ag6  1  0.66813029  0.99560913  0.66813029  1
  Ag  Ag7  1  0.99560913  0.66813029  0.66813029  1
  Ag  Ag8  1  0.11793171  0.11793171  0.11793171  1
  Ag  Ag9  1  0.11793171  0.11793171  0.64620488  1
  Ag  Ag10  1  0.64620488  0.11793171  0.11793171  1
  Ag  Ag11  1  0.11793171  0.64620488  0.11793171  1
  Ag  Ag12  1  0.88206829  0.88206829  0.88206829  1
  Ag  Ag13  1  0.88206829  0.88206829  0.35379512  1
  Ag  Ag14  1  0.88206829  0.35379512  0.88206829  1
  Ag  Ag15  1  0.35379512  0.88206829  0.88206829  1
loop_
_geom_bond_atom_site_label_1
_geom_bond_atom_site_label_2
_geom_bond_distance
_geom_bond_site_symmetry_2
Na0 Na2 3.791271 1_555
Na0 Na3 3.791271 1_555
Na0 Na5 3.791271 1_555
Na0 Na4 3.791271 1_555
Na1 Na4 3.791271 1_555
Na1 Na5 3.791271 1_555
Na1 Na3 3.791271 1_555
Na1 Na2 3.791271 1_555
Na2 Na3 3.791271 1_555
Na2 Na5 3.791271 1_555
Na3 Na4 3.791271 1_555
Na4 Na5 3.791271 1_555
Al0 Na5 3.294403 1_545
Al0 Na3 3.294403 1_554
Al0 Na4 3.294404 1_554
Al0 Na2 3.294404 1_545
Al1 Na3 3.294403 1_555
Al1 Na5 3.294403 1_455
Al1 Na2 3.294404 1_555
Al1 Na4 3.294404 1_455
Al2 Na5 3.294403 1_455
Al2 Na3 3.294403 1_554
Al2 Na1 3.294404 1_554
Al2 Na0 3.294404 1_455
Al3 Na4 3.294403 1_455
Al3 Na2 3.294403 1_545
Al3 Na1 3.294403 1_545
Al3 Na0 3.294403 1_455
Al4 Na3 3.294403 1_555
Al4 Na5 3.294403 1_545
Al4 Na0 3.294404 1_555
Al4 Na1 3.294404 1_545
Al5 Na0 3.294403 1_555
Al5 Na1 3.294403 1_554
Al5 Na2 3.294403 1_555
Al5 Na4 3.294403 1_554
Ag0 Al4 2.650248 1_555
Ag0 Al1 2.650248 1_555
Ag0 Al5 2.650249 1_555
Ag0 Ag11 2.926376 1_555
Ag0 Ag10 2.926376 1_555
Ag0 Ag9 2.926377 1_555
Ag0 Ag3 3.006263 1_555
Ag0 Ag1 3.006263 1_555
Ag0 Ag2 3.006263 1_555
Ag0 Na2 3.126805 1_555
Ag0 Na3 3.126805 1_555
Ag0 Na0 3.126805 1_555
Ag1 Al0 2.650248 1_555
Ag1 Al2 2.650249 1_555
Ag1 Al5 2.650249 1_555
Ag1 Ag11 2.926376 1_555
Ag1 Ag10 2.926376 1_555
Ag1 Ag8 2.926377 1_555
Ag1 Ag3 3.006263 1_555
Ag1 Ag2 3.006263 1_555
Ag1 Na1 3.126805 1_554
Ag1 Na4 3.126805 1_554
Ag1 Na3 3.126805 1_554
Ag2 Al3 2.650248 1_555
Ag2 Al2 2.650248 1_555
Ag2 Al1 2.650249 1_555
Ag2 Ag9 2.926376 1_555
Ag2 Ag8 2.926376 1_555
Ag2 Ag3 3.006263 1_555
Ag2 Na5 3.126805 1_455
Ag2 Na4 3.126805 1_455
Ag2 Na0 3.126805 1_455
Ag3 Al0 2.650249 1_555
Ag3 Al3 2.650249 1_555
Ag3 Al4 2.650249 1_555
Ag3 Ag9 2.926376 1_555
Ag3 Ag8 2.926376 1_555
Ag3 Na5 3.126805 1_545
Ag3 Na1 3.126805 1_545
Ag3 Na2 3.126805 1_545
Ag4 Al4 2.650248 1_565
Ag4 Al1 2.650248 1_655
Ag4 Al5 2.650249 1_556
Ag4 Ag6 3.006263 1_555
Ag4 Ag5 3.006263 1_555
Ag4 Ag7 3.006263 1_555
Ag4 Na4 3.126805 1_555
Ag4 Na5 3.126805 1_555
Ag4 Na1 3.126805 1_555
Ag5 Al0 2.650248 1_566
Ag5 Al2 2.650249 1_656
Ag5 Al5 2.650249 1_556
Ag5 Ag6 3.006263 1_555
Ag5 Ag7 3.006263 1_555
Ag5 Na0 3.126805 1_556
Ag5 Na2 3.126805 1_556
Ag5 Na5 3.126805 1_556
Ag6 Al0 2.650249 1_566
Ag6 Al3 2.650249 1_665
Ag6 Al4 2.650249 1_565
Ag6 Ag7 3.006263 1_555
Ag6 Na3 3.126805 1_565
Ag6 Na0 3.126805 1_565
Ag6 Na4 3.126805 1_565
Ag7 Al3 2.650248 1_665
Ag7 Al2 2.650248 1_656
Ag7 Al1 2.650249 1_655
Ag7 Na3 3.126805 1_655
Ag7 Na2 3.126805 1_655
Ag7 Na1 3.126805 1_655
Ag8 Al6 2.651856 1_555
Ag8 Al2 2.867694 1_555
Ag8 Al3 2.867694 1_555
Ag8 Al0 2.867694 1_555
Ag8 Na2 3.143846 1_545
Ag8 Na0 3.143846 1_455
Ag8 Na3 3.143846 1_554
Ag9 Al6 2.651856 1_556
Ag9 Al1 2.867694 1_555
Ag9 Al4 2.867694 1_555
Ag9 Al3 2.867694 1_555
Ag9 Na1 3.143846 1_545
Ag9 Na4 3.143846 1_455
Ag9 Na3 3.143846 1_555
Ag10 Al6 2.651856 1_655
Ag10 Al5 2.867694 1_555
Ag10 Al4 2.867694 1_555
Ag10 Al0 2.867694 1_555
Ag10 Ag3 2.926377 1_555
Ag10 Ag13 3.062100 1_545
Ag10 Ag12 3.062100 1_544
Ag10 Ag14 3.062100 1_554
Ag10 Na5 3.143846 1_545
Ag10 Na4 3.143846 1_554
Ag10 Na0 3.143846 1_555
Ag11 Al6 2.651856 1_565
Ag11 Al1 2.867694 1_555
Ag11 Al5 2.867694 1_555
Ag11 Al2 2.867694 1_555
Ag11 Ag2 2.926376 1_555
Ag11 Ag13 3.062100 1_455
Ag11 Ag12 3.062100 1_454
Ag11 Ag15 3.062100 1_554
Ag11 Na1 3.143846 1_554
Ag11 Na5 3.143846 1_455
Ag11 Na2 3.143846 1_555
Ag12 Al6 2.651856 1_666
Ag12 Al2 2.867694 1_656
Ag12 Al3 2.867694 1_665
Ag12 Al0 2.867694 1_566
Ag12 Ag7 2.926376 1_555
Ag12 Ag6 2.926376 1_555
Ag12 Ag5 2.926377 1_555
Ag12 Ag9 3.062100 1_665
Ag12 Na4 3.143846 1_565
Ag12 Na1 3.143846 1_655
Ag12 Na5 3.143846 1_556
Ag13 Al6 2.651856 1_665
Ag13 Al1 2.867694 1_655
Ag13 Al4 2.867694 1_565
Ag13 Al3 2.867694 1_665
Ag13 Ag7 2.926376 1_555
Ag13 Ag6 2.926376 1_555
Ag13 Ag4 2.926377 1_555
Ag13 Ag8 3.062100 1_665
Ag13 Na0 3.143846 1_565
Ag13 Na2 3.143846 1_655
Ag13 Na5 3.143846 1_555
Ag14 Al6 2.651856 1_656
Ag14 Al1 2.867694 1_655
Ag14 Al5 2.867694 1_556
Ag14 Al2 2.867694 1_656
Ag14 Ag4 2.926376 1_555
Ag14 Ag5 2.926376 1_555
Ag14 Ag7 2.926376 1_555
Ag14 Ag9 3.062100 1_655
Ag14 Ag8 3.062100 1_656
Ag14 Na0 3.143846 1_556
Ag14 Na3 3.143846 1_655
Ag14 Na4 3.143846 1_555
Ag15 Al6 2.651856 1_566
Ag15 Al5 2.867694 1_556
Ag15 Al4 2.867694 1_565
Ag15 Al0 2.867694 1_566
Ag15 Ag4 2.926376 1_555
Ag15 Ag5 2.926376 1_555
Ag15 Ag6 2.926377 1_555
Ag15 Ag9 3.062100 1_565
Ag15 Ag8 3.062100 1_566
Ag15 Na3 3.143846 1_565
Ag15 Na2 3.143846 1_556
Ag15 Na1 3.143846 1_555
