# generated using pymatgen
data_Ga2CoMo3C
_symmetry_space_group_name_H-M   'P 1'
_cell_length_a   7.96864835
_cell_length_b   7.96864852
_cell_length_c   7.96864835
_cell_angle_alpha   120.00000337
_cell_angle_beta   90.00000000
_cell_angle_gamma   120.00000337
_symmetry_Int_Tables_number   1
_chemical_formula_structural   Ga2CoMo3C
_chemical_formula_sum   'Ga8 Co4 Mo12 C4'
_cell_volume   357.79886057
_cell_formula_units_Z   4
loop_
 _symmetry_equiv_pos_site_id
 _symmetry_equiv_pos_as_xyz
  1  'x, y, z'
loop_
 _atom_site_type_symbol
 _atom_site_label
 _atom_site_symmetry_multiplicity
 _atom_site_fract_x
 _atom_site_fract_y
 _atom_site_fract_z
 _atom_site_occupancy
  Ga  Ga0  1  0.71091162  0.92182323  0.13273585  1
  Ga  Ga1  1  0.28908838  0.07817577  0.21091262  1
  Ga  Ga2  1  0.28908838  0.42182523  0.21091262  1
  Ga  Ga3  1  0.63273685  0.42182523  0.21091262  1
  Ga  Ga4  1  0.71091162  0.57817577  0.78908738  1
  Ga  Ga5  1  0.71091162  0.92182323  0.78908738  1
  Ga  Ga6  1  0.36726415  0.57817577  0.78908838  1
  Ga  Ga7  1  0.28908838  0.07817577  0.86726415  1
  Co  Co0  1  0.00000000  0.00000000  0.00000000  1
  Co  Co1  1  0.50000100  0.00000000  0.00000000  1
  Co  Co2  1  0.50000100  0.50000100  0.00000000  1
  Co  Co3  1  0.50000100  0.50000100  0.50000100  1
  Mo  Mo0  1  0.92958569  0.35916838  0.17958469  1
  Mo  Mo1  1  0.92958569  0.75000100  0.17958469  1
  Mo  Mo2  1  0.32041631  0.75000100  0.17958469  1
  Mo  Mo3  1  0.67958569  0.85916938  0.42958469  1
  Mo  Mo4  1  0.07041531  0.25000000  0.42958469  1
  Mo  Mo5  1  0.67958569  0.25000000  0.42958469  1
  Mo  Mo6  1  0.32041631  0.14083262  0.57041631  1
  Mo  Mo7  1  0.32041631  0.75000100  0.57041631  1
  Mo  Mo8  1  0.92958569  0.75000100  0.57041631  1
  Mo  Mo9  1  0.07041431  0.25000000  0.82041531  1
  Mo  Mo10  1  0.67958469  0.25000000  0.82041531  1
  Mo  Mo11  1  0.07041431  0.64083062  0.82041531  1
  C  C0  1  0.00000000  0.50000100  0.00000000  1
  C  C1  1  0.50000000  0.00000000  0.50000000  1
  C  C2  1  0.00000000  0.00000000  0.50000100  1
  C  C3  1  0.00000000  0.50000100  0.50000100  1
loop_
_geom_bond_atom_site_label_1
_geom_bond_atom_site_label_2
_geom_bond_distance
_geom_bond_site_symmetry_2
Ga0 Mo5 2.638839 1_565
Ga0 Mo3 2.638839 1_555
Ga0 Mo4 2.638844 1_665
Ga0 Ga6 2.738405 1_554
Ga0 Ga4 2.738410 1_554
Ga0 Ga5 2.738414 1_554
Ga0 Mo2 2.819125 1_555
Ga0 Mo0 2.819131 1_565
Ga0 Mo1 2.819132 1_555
Ga1 Mo1 2.638833 1_445
Ga1 Mo2 2.638833 1_545
Ga1 Mo6 2.638837 1_555
Ga1 Ga7 2.738414 1_554
Ga1 Ga3 2.738418 1_555
Ga1 Ga2 2.738422 1_555
Ga1 Mo11 2.819135 1_544
Ga1 Mo5 2.819135 1_555
Ga1 Mo4 2.819135 1_555
Ga2 Mo0 2.638830 1_455
Ga2 Mo7 2.638841 1_555
Ga2 Mo2 2.638841 1_555
Ga2 Ga3 2.738414 1_555
Ga2 Ga7 2.738418 1_554
Ga2 Mo3 2.819132 1_555
Ga2 Mo4 2.819135 1_555
Ga2 Mo9 2.819138 1_554
Ga3 Mo8 2.638844 1_555
Ga3 Mo1 2.638844 1_555
Ga3 Mo0 2.638853 1_555
Ga3 Ga7 2.738413 1_554
Ga3 Mo3 2.819125 1_555
Ga3 Mo10 2.819135 1_554
Ga3 Mo5 2.819138 1_555
Ga4 Mo11 2.638836 1_655
Ga4 Mo5 2.638842 1_555
Ga4 Mo10 2.638844 1_555
Ga4 Ga6 2.738406 1_555
Ga4 Ga5 2.738406 1_555
Ga4 Mo6 2.819121 1_555
Ga4 Mo8 2.819131 1_555
Ga4 Mo1 2.819138 1_556
Ga5 Mo9 2.638839 1_665
Ga5 Mo3 2.638839 1_555
Ga5 Mo10 2.638844 1_565
Ga5 Ga6 2.738410 1_555
Ga5 Mo7 2.819124 1_555
Ga5 Mo8 2.819131 1_555
Ga5 Mo0 2.819135 1_566
Ga6 Mo9 2.638842 1_555
Ga6 Mo4 2.638844 1_555
Ga6 Mo11 2.638852 1_555
Ga6 Mo6 2.819122 1_555
Ga6 Mo2 2.819128 1_556
Ga6 Mo7 2.819135 1_555
Ga7 Mo8 2.638836 1_445
Ga7 Mo7 2.638836 1_545
Ga7 Mo6 2.638845 1_555
Ga7 Mo11 2.819131 1_545
Ga7 Mo10 2.819131 1_555
Ga7 Mo9 2.819145 1_555
Co0 Ga4 2.457128 1_444
Co0 Ga5 2.457128 1_444
Co0 Ga0 2.457128 1_445
Co0 Ga7 2.457128 1_554
Co0 Ga2 2.457132 1_555
Co0 Ga1 2.457133 1_555
Co0 Mo0 2.839794 1_455
Co0 Mo8 2.839801 1_444
Co0 Mo11 2.839801 1_544
Co0 Mo1 2.839801 1_445
Co0 Mo4 2.839807 1_555
Co0 Mo9 2.839808 1_554
Co1 Ga5 2.457122 1_544
Co1 Ga0 2.457122 1_545
Co1 Ga6 2.457126 1_544
Co1 Ga7 2.457128 1_554
Co1 Ga1 2.457133 1_555
Co1 Ga3 2.457134 1_555
Co1 Mo7 2.839801 1_544
Co1 Mo2 2.839801 1_545
Co1 Mo0 2.839805 1_555
Co1 Mo10 2.839806 1_554
Co1 Mo5 2.839807 1_555
Co1 Mo11 2.839818 1_544
Co2 Ga0 2.457115 1_555
Co2 Ga6 2.457120 1_554
Co2 Ga4 2.457122 1_554
Co2 Ga3 2.457128 1_555
Co2 Ga2 2.457133 1_555
Co2 Ga7 2.457134 1_554
Co2 Mo6 2.839800 1_554
Co2 Mo3 2.839805 1_555
Co2 Mo10 2.839806 1_554
Co2 Mo1 2.839807 1_555
Co2 Mo2 2.839807 1_555
Co2 Mo9 2.839819 1_554
Co3 Ga5 2.457115 1_555
Co3 Ga4 2.457115 1_555
Co3 Ga6 2.457126 1_555
Co3 Ga3 2.457128 1_555
Co3 Ga1 2.457132 1_555
Co3 Ga2 2.457133 1_555
Co3 Mo6 2.839800 1_555
Co3 Mo3 2.839806 1_555
Co3 Mo8 2.839807 1_555
Co3 Mo7 2.839807 1_555
Co3 Mo4 2.839812 1_555
Co3 Mo5 2.839812 1_555
C0 Mo1 2.144384 1_455
C0 Mo11 2.144384 1_554
C0 Mo10 2.144390 1_454
C0 Mo9 2.144390 1_554
C0 Mo2 2.144396 1_555
C0 Mo0 2.144402 1_455
C1 Mo2 2.144388 1_545
C1 Mo7 2.144389 1_545
C1 Mo10 2.144390 1_555
C1 Mo5 2.144392 1_555
C1 Mo6 2.144394 1_555
C1 Mo3 2.144398 1_545
C2 Mo3 2.144383 1_445
C2 Mo8 2.144384 1_445
C2 Mo9 2.144386 1_555
C2 Mo6 2.144394 1_555
C2 Mo1 2.144396 1_445
C2 Mo4 2.144396 1_555
C3 Mo5 2.144384 1_455
C3 Mo11 2.144384 1_555
C3 Mo8 2.144384 1_455
C3 Mo0 2.144394 1_455
C3 Mo7 2.144396 1_555
C3 Mo4 2.144396 1_555
