# generated using pymatgen
data_NaPdPtSe3
_symmetry_space_group_name_H-M   'P 1'
_cell_length_a   7.37738968
_cell_length_b   7.36878731
_cell_length_c   11.65635085
_cell_angle_alpha   90.24572992
_cell_angle_beta   89.50910113
_cell_angle_gamma   120.03862072
_symmetry_Int_Tables_number   1
_chemical_formula_structural   NaPdPtSe3
_chemical_formula_sum   'Na4 Pd4 Pt4 Se12'
_cell_volume   548.53823235
_cell_formula_units_Z   4
loop_
 _symmetry_equiv_pos_site_id
 _symmetry_equiv_pos_as_xyz
  1  'x, y, z'
loop_
 _atom_site_type_symbol
 _atom_site_label
 _atom_site_symmetry_multiplicity
 _atom_site_fract_x
 _atom_site_fract_y
 _atom_site_fract_z
 _atom_site_occupancy
  Na  Na0  1  0.32501366  0.66837016  0.30943484  1
  Na  Na1  1  0.65664350  0.33162984  0.80943484  1
  Na  Na2  1  0.00129272  0.99578550  0.69558595  1
  Na  Na3  1  0.00550722  0.00421450  0.19558595  1
  Pd  Pd0  1  0.83528032  0.16627471  0.00603851  1
  Pd  Pd1  1  0.66900561  0.83372529  0.50603851  1
  Pd  Pd2  1  0.16567469  0.33019894  0.50643711  1
  Pd  Pd3  1  0.83547675  0.66980106  0.00643711  1
  Pt  Pt0  1  0.33201681  0.16651204  0.00659759  1
  Pt  Pt1  1  0.16550477  0.83348796  0.50659759  1
  Pt  Pt2  1  0.66700071  0.33261263  0.49896139  1
  Pt  Pt3  1  0.33438708  0.66738737  0.99896139  1
  Se  Se0  1  0.49827328  0.49991169  0.61310338  1
  Se  Se1  1  0.99836259  0.50008831  0.11310338  1
  Se  Se2  1  0.49945750  0.00261876  0.11247649  1
  Se  Se3  1  0.49683774  0.99738124  0.61247649  1
  Se  Se4  1  0.16393441  0.84127402  0.89508541  1
  Se  Se5  1  0.32266138  0.15872598  0.39508541  1
  Se  Se6  1  0.84223944  0.67867342  0.39479662  1
  Se  Se7  1  0.16356502  0.32132658  0.89479662  1
  Se  Se8  1  0.68128294  0.83990262  0.89431037  1
  Se  Se9  1  0.84138132  0.16009738  0.39431037  1
  Se  Se10  1  0.49926904  0.49933854  0.11297135  1
  Se  Se11  1  0.99992950  0.50066146  0.61297135  1
loop_
_geom_bond_atom_site_label_1
_geom_bond_atom_site_label_2
_geom_bond_distance
_geom_bond_site_symmetry_2
Na0 Pt1 3.083830 1_555
Na0 Se1 3.108158 1_455
Na0 Se2 3.133340 1_565
Na0 Pd2 3.151938 1_555
Na0 Se10 3.158568 1_555
Na0 Pd1 3.186945 1_555
Na1 Pt0 3.083830 1_556
Na1 Se0 3.108162 1_555
Na1 Se3 3.133340 1_545
Na1 Pd3 3.151938 1_556
Na1 Se11 3.158564 1_555
Na1 Pd0 3.186945 1_556
Na2 Pt1 3.022070 1_555
Na2 Pd2 3.068068 1_565
Na2 Pd1 3.075127 1_455
Na2 Se8 3.077798 1_455
Na2 Se4 3.095466 1_555
Na2 Se7 3.115181 1_565
Na3 Pt0 3.022070 1_555
Na3 Pd3 3.068068 1_445
Na3 Pd0 3.075127 1_455
Na3 Se9 3.077793 1_455
Na3 Se5 3.095471 1_555
Na3 Se6 3.115180 1_445
Pd0 Se8 2.456359 1_544
Pd0 Se7 2.457814 1_654
Pd0 Se1 2.468217 1_555
Pd0 Se2 2.469924 1_555
Pd1 Se9 2.456359 1_565
Pd1 Se6 2.457820 1_555
Pd1 Se0 2.468217 1_555
Pd1 Se3 2.469929 1_555
Pd2 Se9 2.457711 1_455
Pd2 Se5 2.459231 1_555
Pd2 Se0 2.469277 1_555
Pd2 Se11 2.472516 1_455
Pd3 Se8 2.457721 1_554
Pd3 Se4 2.459221 1_654
Pd3 Se1 2.469277 1_555
Pd3 Se10 2.472516 1_555
Pt0 Se4 2.448779 1_544
Pt0 Se7 2.450301 1_554
Pt0 Se2 2.457656 1_555
Pt0 Se10 2.458710 1_555
Pt1 Se5 2.448778 1_565
Pt1 Se6 2.450296 1_455
Pt1 Se3 2.457650 1_555
Pt1 Se11 2.458709 1_455
Pt2 Se3 2.514706 1_545
Pt2 Se11 2.515738 1_555
Pt2 Se0 2.516601 1_555
Pt2 Se5 2.518280 1_555
Pt2 Se6 2.519410 1_555
Pt2 Se9 2.521148 1_555
Pt3 Se2 2.514706 1_566
Pt3 Se10 2.515749 1_556
Pt3 Se1 2.516590 1_456
Pt3 Se4 2.518280 1_555
Pt3 Se7 2.519410 1_555
Pt3 Se8 2.521148 1_555
