# generated using pymatgen
data_Lu10Ti6O27
_symmetry_space_group_name_H-M   'P 1'
_cell_length_a   7.31527833
_cell_length_b   7.31527833
_cell_length_c   12.28016729
_cell_angle_alpha   72.43770214
_cell_angle_beta   72.43770214
_cell_angle_gamma   58.53260001
_symmetry_Int_Tables_number   1
_chemical_formula_structural   Lu10Ti6O27
_chemical_formula_sum   'Lu10 Ti6 O27'
_cell_volume   525.91152594
_cell_formula_units_Z   1
loop_
 _symmetry_equiv_pos_site_id
 _symmetry_equiv_pos_as_xyz
  1  'x, y, z'
loop_
 _atom_site_type_symbol
 _atom_site_label
 _atom_site_symmetry_multiplicity
 _atom_site_fract_x
 _atom_site_fract_y
 _atom_site_fract_z
 _atom_site_occupancy
  Lu  Lu0  1  0.25946800  0.25946800  0.26957800  1
  Lu  Lu1  1  0.51725000  0.51725000  0.99487400  1
  Lu  Lu2  1  0.74379900  0.74379900  0.23834800  1
  Lu  Lu3  1  0.98438400  0.98438400  0.99031000  1
  Lu  Lu4  1  0.74784200  0.26182900  0.25129800  1
  Lu  Lu5  1  0.24962400  0.24962400  0.76821400  1
  Lu  Lu6  1  0.26182900  0.74784200  0.25129800  1
  Lu  Lu7  1  0.27838600  0.77096500  0.73407400  1
  Lu  Lu8  1  0.51470900  0.51470900  0.50468700  1
  Lu  Lu9  1  0.77096500  0.27838600  0.73407400  1
  Ti  Ti0  1  0.01842500  0.49756300  0.00563400  1
  Ti  Ti1  1  0.51821800  0.00761100  0.49148600  1
  Ti  Ti2  1  0.74766300  0.74766300  0.75350800  1
  Ti  Ti3  1  0.00262000  0.00262000  0.50608800  1
  Ti  Ti4  1  0.49756300  0.01842500  0.00563400  1
  Ti  Ti5  1  0.00761100  0.51821800  0.49148600  1
  O  O0  1  0.79759000  0.79759000  0.04813500  1
  O  O1  1  0.61435600  0.02910700  0.31270400  1
  O  O2  1  0.83405600  0.27944500  0.06391800  1
  O  O3  1  0.02910700  0.61435600  0.31270400  1
  O  O4  1  0.43512900  0.43512900  0.18374300  1
  O  O5  1  0.15261300  0.67089800  0.47785400  1
  O  O6  1  0.91729700  0.55518100  0.86548100  1
  O  O7  1  0.26089800  0.26089800  0.44959000  1
  O  O8  1  0.05680800  0.05680800  0.33956300  1
  O  O9  1  0.27944500  0.83405600  0.06391800  1
  O  O10  1  0.28573900  0.87418200  0.54189900  1
  O  O11  1  0.42071800  0.99239800  0.16924000  1
  O  O12  1  0.43007500  0.43007500  0.69048600  1
  O  O13  1  0.56849800  0.56849800  0.31668900  1
  O  O14  1  0.55518100  0.91729700  0.86548100  1
  O  O15  1  0.67089800  0.15261300  0.47785400  1
  O  O16  1  0.63224100  0.19940200  0.93995100  1
  O  O17  1  0.90791800  0.90791800  0.67768100  1
  O  O18  1  0.58408200  0.58408200  0.79608400  1
  O  O19  1  0.69605500  0.69605500  0.49274900  1
  O  O20  1  0.99239800  0.42071800  0.16924000  1
  O  O21  1  0.87418200  0.28573900  0.54189900  1
  O  O22  1  0.97319900  0.46668300  0.66183800  1
  O  O23  1  0.19940200  0.63224100  0.93995100  1
  O  O24  1  0.06687100  0.06687100  0.81058300  1
  O  O25  1  0.24070500  0.24070500  0.95083700  1
  O  O26  1  0.46668300  0.97319900  0.66183800  1
loop_
_geom_bond_atom_site_label_1
_geom_bond_atom_site_label_2
_geom_bond_distance
_geom_bond_site_symmetry_2
Lu0 O4 2.121951 1_555
Lu0 O20 2.212732 1_455
Lu0 O11 2.212732 1_545
Lu0 O7 2.216957 1_555
Lu0 O3 2.362979 1_555
Lu0 O1 2.362979 1_555
Lu0 O8 2.427161 1_555
Lu1 O4 2.190024 1_556
Lu1 O23 2.265131 1_555
Lu1 O16 2.265131 1_555
Lu1 O2 2.280936 1_556
Lu1 O9 2.280936 1_556
Lu1 O18 2.290506 1_555
Lu2 O13 2.107688 1_555
Lu2 O3 2.156711 1_655
Lu2 O1 2.156711 1_565
Lu2 O0 2.195025 1_555
Lu2 O20 2.324859 1_555
Lu2 O11 2.324859 1_555
Lu3 O24 2.090963 1_665
Lu3 O2 2.187403 1_566
Lu3 O9 2.187403 1_656
Lu3 O0 2.239835 1_556
Lu3 O23 2.374133 1_655
Lu3 O16 2.374133 1_565
Lu4 O2 2.177001 1_555
Lu4 O13 2.185715 1_555
Lu4 O1 2.221913 1_555
Lu4 O4 2.238582 1_555
Lu4 O8 2.343281 1_655
Lu4 O20 2.437844 1_555
Lu4 O15 2.622690 1_555
Lu5 O12 2.166706 1_555
Lu5 O25 2.205854 1_555
Lu5 O24 2.207186 1_555
Lu5 O22 2.303667 1_455
Lu5 O26 2.303667 1_545
Lu5 O14 2.553168 1_545
Lu5 O6 2.553168 1_455
Lu6 O9 2.177001 1_555
Lu6 O13 2.185715 1_555
Lu6 O3 2.221913 1_555
Lu6 O4 2.238582 1_555
Lu6 O8 2.343281 1_565
Lu6 O11 2.437844 1_555
Lu6 O5 2.622690 1_555
Lu7 O18 2.158077 1_555
Lu7 O24 2.194482 1_565
Lu7 O10 2.243386 1_555
Lu7 O12 2.300983 1_555
Lu7 O26 2.339019 1_555
Lu7 O23 2.436754 1_555
Lu7 O17 2.589803 1_455
Lu8 O12 2.160491 1_555
Lu8 O13 2.169038 1_555
Lu8 O19 2.267998 1_555
Lu8 O5 2.360121 1_555
Lu8 O15 2.360121 1_555
Lu8 O21 2.365198 1_555
Lu8 O10 2.365198 1_555
Lu9 O18 2.158077 1_555
Lu9 O24 2.194482 1_655
Lu9 O21 2.243386 1_555
Lu9 O12 2.300983 1_555
Lu9 O22 2.339019 1_555
Lu9 O16 2.436754 1_555
Lu9 O17 2.589803 1_545
O0 Ti0 2.044497 1_655
O0 Ti4 2.044497 1_565
O1 Ti1 2.077196 1_555
O2 Ti0 2.419133 1_655
O3 Ti5 2.077196 1_555
O5 Ti5 1.848654 1_555
O5 Ti3 2.170497 1_565
O6 Ti2 1.857513 1_555
O6 Ti0 1.921504 1_656
O7 Ti5 1.899723 1_555
O7 Ti1 1.899723 1_555
O8 Ti3 1.918792 1_555
O9 Ti4 2.419133 1_565
O10 Ti3 1.906386 1_565
O10 Ti1 2.227370 1_565
O11 Ti4 1.894225 1_565
O14 Ti2 1.857513 1_555
O14 Ti4 1.921504 1_566
O15 Ti1 1.848654 1_555
O15 Ti3 2.170497 1_655
O16 Ti4 1.900440 1_556
O17 Ti2 1.932087 1_555
O17 Ti3 2.034513 1_665
O18 Ti2 1.969037 1_555
O19 Ti5 1.944833 1_655
O19 Ti1 1.944833 1_565
O20 Ti0 1.894225 1_655
O21 Ti3 1.906386 1_655
O21 Ti5 2.227370 1_655
O22 Ti5 1.971570 1_655
O22 Ti2 2.224677 1_555
O23 Ti0 1.900440 1_556
O25 Ti0 1.881572 1_556
O25 Ti4 1.881572 1_556
O26 Ti1 1.971570 1_565
O26 Ti2 2.224677 1_555
