# generated using pymatgen
data_Sr12Sc4Bi5Sb7
_symmetry_space_group_name_H-M   'P 1'
_cell_length_a   4.89600936
_cell_length_b   13.63294698
_cell_length_c   15.24027346
_cell_angle_alpha   90.00647615
_cell_angle_beta   90.00000000
_cell_angle_gamma   90.00000000
_symmetry_Int_Tables_number   1
_chemical_formula_structural   Sr12Sc4Bi5Sb7
_chemical_formula_sum   'Sr12 Sc4 Bi5 Sb7'
_cell_volume   1017.24307472
_cell_formula_units_Z   1
loop_
 _symmetry_equiv_pos_site_id
 _symmetry_equiv_pos_as_xyz
  1  'x, y, z'
loop_
 _atom_site_type_symbol
 _atom_site_label
 _atom_site_symmetry_multiplicity
 _atom_site_fract_x
 _atom_site_fract_y
 _atom_site_fract_z
 _atom_site_occupancy
  Sr  Sr0  1  0.25000000  0.06444606  0.89336980  1
  Sr  Sr1  1  0.75000000  0.93320162  0.10306012  1
  Sr  Sr2  1  0.25000000  0.56461326  0.60342483  1
  Sr  Sr3  1  0.75000000  0.43608401  0.39712610  1
  Sr  Sr4  1  0.25000000  0.84867847  0.49500458  1
  Sr  Sr5  1  0.75000000  0.15086548  0.50626973  1
  Sr  Sr6  1  0.25000000  0.35012258  0.00421575  1
  Sr  Sr7  1  0.75000000  0.65037413  0.99460344  1
  Sr  Sr8  1  0.75000000  0.22958095  0.21585282  1
  Sr  Sr9  1  0.25000000  0.77169556  0.78644154  1
  Sr  Sr10  1  0.75000000  0.72785991  0.28709905  1
  Sr  Sr11  1  0.25000000  0.27264610  0.71242247  1
  Sc  Sc0  1  0.25000000  0.05235777  0.29761059  1
  Sc  Sc1  1  0.75000000  0.94656871  0.70388780  1
  Sc  Sc2  1  0.25000000  0.55229240  0.20469033  1
  Sc  Sc3  1  0.75000000  0.44780629  0.79520640  1
  Bi  Bi0  1  0.25000000  0.24885197  0.37629307  1
  Bi  Bi1  1  0.75000000  0.75055441  0.62516954  1
  Bi  Bi2  1  0.25000000  0.74818347  0.12533230  1
  Bi  Bi3  1  0.75000000  0.25175788  0.87368423  1
  Bi  Bi4  1  0.25000000  0.10730249  0.11188552  1
  Sb  Sb0  1  0.75000000  0.89382725  0.88562485  1
  Sb  Sb1  1  0.25000000  0.60610666  0.38648687  1
  Sb  Sb2  1  0.75000000  0.39449556  0.61339967  1
  Sb  Sb3  1  0.25000000  0.03903224  0.64764338  1
  Sb  Sb4  1  0.75000000  0.96026073  0.35428017  1
  Sb  Sb5  1  0.25000000  0.53940031  0.85239287  1
  Sb  Sb6  1  0.75000000  0.46103475  0.14752119  1
loop_
_geom_bond_atom_site_label_1
_geom_bond_atom_site_label_2
_geom_bond_distance
_geom_bond_site_symmetry_2
Bi0 Sc0 2.934819 1_555
Bi0 Sr5 3.420773 1_455
Bi0 Sr5 3.420773 1_555
Bi0 Sr8 3.469925 1_555
Bi0 Sr8 3.469925 1_455
Bi0 Sr3 3.550878 1_455
Bi0 Sr3 3.550878 1_555
Bi1 Sc1 2.929072 1_555
Bi1 Sr4 3.423169 1_555
Bi1 Sr4 3.423169 1_655
Bi1 Sr9 3.480885 1_655
Bi1 Sr9 3.480885 1_555
Bi1 Sr2 3.539521 1_555
Bi1 Sr2 3.539521 1_655
Bi2 Sc2 2.931796 1_555
Bi2 Sr7 3.426309 1_554
Bi2 Sr7 3.426309 1_454
Bi2 Sr10 3.485355 1_555
Bi2 Sr10 3.485355 1_455
Bi2 Sr1 3.531338 1_455
Bi2 Sr1 3.531338 1_555
Bi3 Sc3 2.928244 1_555
Bi3 Sr6 3.427516 1_556
Bi3 Sr6 3.427516 1_656
Bi3 Sr11 3.480537 1_555
Bi3 Sr11 3.480537 1_655
Bi3 Sr0 3.550189 1_655
Bi3 Sr0 3.550189 1_555
Bi4 Sc0 2.928020 1_555
Bi4 Sr8 3.358821 1_455
Bi4 Sr8 3.358821 1_555
Bi4 Sr0 3.381037 1_554
Bi4 Sr1 3.412372 1_445
Bi4 Sr1 3.412372 1_545
Bi4 Sr6 3.694899 1_555
Sb0 Sc1 2.861609 1_555
Sb0 Sr9 3.324050 1_555
Sb0 Sr9 3.324050 1_655
Sb0 Sr1 3.356908 1_556
Sb0 Sr0 3.378912 1_565
Sb0 Sr0 3.378912 1_665
Sb0 Sr7 3.711518 1_555
Sb1 Sc2 2.866036 1_555
Sb1 Sr10 3.323060 1_555
Sb1 Sr10 3.323060 1_455
Sb1 Sr2 3.354300 1_555
Sb1 Sr3 3.375175 1_555
Sb1 Sr3 3.375175 1_455
Sb1 Sr4 3.697295 1_555
Sb2 Sc3 2.864438 1_555
Sb2 Sr11 3.321183 1_555
Sb2 Sr11 3.321183 1_655
Sb2 Sr3 3.344540 1_555
Sb2 Sr2 3.375593 1_555
Sb2 Sr2 3.375593 1_655
Sb2 Sr5 3.700827 1_555
Sb3 Sc1 2.883872 1_545
Sb3 Sc1 2.883872 1_445
Sb3 Sr11 3.334246 1_555
Sb3 Sr4 3.484905 1_545
Sb3 Sr5 3.600015 1_555
Sb3 Sr5 3.600015 1_455
Sb3 Sr0 3.760891 1_555
Sb4 Sc0 2.883626 1_565
Sb4 Sc0 2.883626 1_665
Sb4 Sr10 3.329524 1_555
Sb4 Sr5 3.480862 1_565
Sb4 Sr4 3.592651 1_555
Sb4 Sr4 3.592651 1_655
Sb4 Sr1 3.846351 1_555
Sb5 Sc3 2.882933 1_555
Sb5 Sc3 2.882933 1_455
Sb5 Sr9 3.322655 1_555
Sb5 Sr6 3.466072 1_556
Sb5 Sr7 3.602522 1_455
Sb5 Sr7 3.602522 1_555
Sb5 Sr2 3.809917 1_555
Sb6 Sc2 2.880870 1_555
Sb6 Sc2 2.880870 1_655
Sb6 Sr8 3.322917 1_555
Sb6 Sr7 3.477859 1_554
Sb6 Sr6 3.612232 1_655
Sb6 Sr6 3.612232 1_555
Sb6 Sr3 3.819263 1_555
