# generated using pymatgen
data_Cs3NaSn4
_symmetry_space_group_name_H-M   'P 1'
_cell_length_a   9.36949896
_cell_length_b   9.36949853
_cell_length_c   10.97209889
_cell_angle_alpha   90.00000000
_cell_angle_beta   90.00000000
_cell_angle_gamma   133.35579488
_symmetry_Int_Tables_number   1
_chemical_formula_structural   Cs3NaSn4
_chemical_formula_sum   'Cs6 Na2 Sn8'
_cell_volume   700.35671309
_cell_formula_units_Z   2
loop_
 _symmetry_equiv_pos_site_id
 _symmetry_equiv_pos_as_xyz
  1  'x, y, z'
loop_
 _atom_site_type_symbol
 _atom_site_label
 _atom_site_symmetry_multiplicity
 _atom_site_fract_x
 _atom_site_fract_y
 _atom_site_fract_z
 _atom_site_occupancy
  Cs  Cs0  1  0.23508296  0.76491704  0.25000000  1
  Cs  Cs1  1  0.76491704  0.23508296  0.75000000  1
  Cs  Cs2  1  0.61152932  0.38847068  0.05083130  1
  Cs  Cs3  1  0.38847068  0.61152932  0.94916870  1
  Cs  Cs4  1  0.38847068  0.61152932  0.55083130  1
  Cs  Cs5  1  0.61152932  0.38847068  0.44916870  1
  Na  Na0  1  0.00000000  0.00000000  0.00000000  1
  Na  Na1  1  0.00000000  0.00000000  0.50000000  1
  Sn  Sn0  1  0.15771308  0.25376474  0.25000000  1
  Sn  Sn1  1  0.84228692  0.74623526  0.75000000  1
  Sn  Sn2  1  0.74623526  0.84228692  0.25000000  1
  Sn  Sn3  1  0.25376474  0.15771308  0.75000000  1
  Sn  Sn4  1  0.83057308  0.16942692  0.11761520  1
  Sn  Sn5  1  0.16942692  0.83057308  0.88238480  1
  Sn  Sn6  1  0.16942692  0.83057308  0.61761520  1
  Sn  Sn7  1  0.83057308  0.16942692  0.38238480  1
loop_
_geom_bond_atom_site_label_1
_geom_bond_atom_site_label_2
_geom_bond_distance
_geom_bond_site_symmetry_2
Cs0 Sn6 4.188754 1_555
Cs0 Sn5 4.188754 1_554
Cs0 Sn7 4.309228 1_455
Cs0 Sn4 4.309228 1_455
Cs0 Sn7 4.309228 1_565
Cs0 Sn4 4.309228 1_565
Cs0 Sn0 4.323813 1_555
Cs0 Sn2 4.323814 1_555
Cs1 Sn4 4.188754 1_556
Cs1 Sn7 4.188754 1_555
Cs1 Sn5 4.309228 1_655
Cs1 Sn6 4.309228 1_655
Cs1 Sn5 4.309228 1_545
Cs1 Sn6 4.309228 1_545
Cs1 Sn1 4.323813 1_555
Cs1 Sn3 4.323814 1_555
Cs2 Sn4 3.839849 1_555
Cs2 Sn1 4.105461 1_554
Cs2 Sn3 4.105461 1_554
Cs2 Sn2 4.132750 1_555
Cs2 Sn0 4.132751 1_555
Cs2 Sn5 4.262395 1_544
Cs2 Sn5 4.262395 1_654
Cs3 Sn5 3.839849 1_555
Cs3 Sn0 4.105461 1_556
Cs3 Sn2 4.105461 1_556
Cs3 Sn3 4.132750 1_555
Cs3 Sn1 4.132751 1_555
Cs3 Sn4 4.262395 1_566
Cs3 Sn4 4.262395 1_456
Cs4 Sn6 3.839849 1_555
Cs4 Sn0 4.105461 1_555
Cs4 Sn2 4.105461 1_555
Cs4 Sn3 4.132750 1_555
Cs4 Sn1 4.132751 1_555
Cs4 Sn7 4.262395 1_565
Cs4 Sn7 4.262395 1_455
Cs5 Sn7 3.839849 1_555
Cs5 Sn1 4.105461 1_555
Cs5 Sn3 4.105461 1_555
Cs5 Sn2 4.132750 1_555
Cs5 Sn0 4.132751 1_555
Cs5 Sn6 4.262395 1_545
Cs5 Sn6 4.262395 1_655
Na0 Sn5 3.188321 1_544
Na0 Sn4 3.188321 1_455
Na0 Sn0 3.246050 1_555
Na0 Sn1 3.246050 1_444
Na0 Sn3 3.246050 1_554
Na0 Sn2 3.246050 1_445
Na1 Sn6 3.188321 1_545
Na1 Sn7 3.188321 1_455
Na1 Sn0 3.246050 1_555
Na1 Sn1 3.246050 1_445
Na1 Sn3 3.246050 1_555
Na1 Sn2 3.246050 1_445
Sn0 Sn7 2.967105 1_455
Sn0 Sn4 2.967105 1_455
Sn0 Sn2 3.052657 1_445
Sn1 Sn5 2.967105 1_655
Sn1 Sn6 2.967105 1_655
Sn1 Sn3 3.052657 1_665
Sn2 Sn7 2.967105 1_565
Sn2 Sn4 2.967105 1_565
Sn3 Sn5 2.967105 1_545
Sn3 Sn6 2.967105 1_545
Sn4 Sn7 2.905078 1_555
Sn5 Sn6 2.905078 1_555
