# generated using pymatgen
data_Rb2Bi8Se13
_symmetry_space_group_name_H-M   'P 1'
_cell_length_a   4.22101800
_cell_length_b   13.89366300
_cell_length_c   25.28277318
_cell_angle_alpha   83.36858049
_cell_angle_beta   90.00000000
_cell_angle_gamma   90.00000000
_symmetry_Int_Tables_number   1
_chemical_formula_structural   Rb2Bi8Se13
_chemical_formula_sum   'Rb4 Bi16 Se26'
_cell_volume   1472.79838940
_cell_formula_units_Z   2
loop_
 _symmetry_equiv_pos_site_id
 _symmetry_equiv_pos_as_xyz
  1  'x, y, z'
loop_
 _atom_site_type_symbol
 _atom_site_label
 _atom_site_symmetry_multiplicity
 _atom_site_fract_x
 _atom_site_fract_y
 _atom_site_fract_z
 _atom_site_occupancy
  Rb  Rb0  1  0.75000000  0.41867300  0.11900800  1
  Rb  Rb1  1  0.25000000  0.58132700  0.88099200  1
  Rb  Rb2  1  0.25000000  0.27719300  0.36172200  1
  Rb  Rb3  1  0.75000000  0.72280700  0.63827800  1
  Bi  Bi0  1  0.25000000  0.57160900  0.43631100  1
  Bi  Bi1  1  0.75000000  0.42839100  0.56368900  1
  Bi  Bi2  1  0.25000000  0.80913600  0.16932900  1
  Bi  Bi3  1  0.75000000  0.19086400  0.83067100  1
  Bi  Bi4  1  0.75000000  0.04634900  0.07001600  1
  Bi  Bi5  1  0.25000000  0.95365100  0.92998400  1
  Bi  Bi6  1  0.75000000  0.88338700  0.30759800  1
  Bi  Bi7  1  0.25000000  0.11661300  0.69240200  1
  Bi  Bi8  1  0.75000000  0.56360000  0.26753000  1
  Bi  Bi9  1  0.25000000  0.43640000  0.73247000  1
  Bi  Bi10  1  0.75000000  0.72278000  0.03208900  1
  Bi  Bi11  1  0.25000000  0.27722000  0.96791100  1
  Bi  Bi12  1  0.25000000  0.12499800  0.21240200  1
  Bi  Bi13  1  0.75000000  0.87500200  0.78759800  1
  Bi  Bi14  1  0.25000000  0.95006500  0.44047600  1
  Bi  Bi15  1  0.75000000  0.04993500  0.55952400  1
  Se  Se0  1  0.25000000  0.38781000  0.48779900  1
  Se  Se1  1  0.75000000  0.61219000  0.51220100  1
  Se  Se2  1  0.75000000  0.48360900  0.37262800  1
  Se  Se3  1  0.25000000  0.51639100  0.62737200  1
  Se  Se4  1  0.25000000  0.44649900  0.23885000  1
  Se  Se5  1  0.75000000  0.55350100  0.76115000  1
  Se  Se6  1  0.25000000  0.74105800  0.27967300  1
  Se  Se7  1  0.75000000  0.25894200  0.72032700  1
  Se  Se8  1  0.75000000  0.67653200  0.14596300  1
  Se  Se9  1  0.25000000  0.32346800  0.85403700  1
  Se  Se10  1  0.25000000  0.59324400  0.02124100  1
  Se  Se11  1  0.75000000  0.40675600  0.97875900  1
  Se  Se12  1  0.25000000  0.89650500  0.04841900  1
  Se  Se13  1  0.75000000  0.10349500  0.95158100  1
  Se  Se14  1  0.25000000  0.18522000  0.08780600  1
  Se  Se15  1  0.75000000  0.81478000  0.91219400  1
  Se  Se16  1  0.75000000  0.24640200  0.23513800  1
  Se  Se17  1  0.25000000  0.75359800  0.76486200  1
  Se  Se18  1  0.75000000  0.96330100  0.18245700  1
  Se  Se19  1  0.25000000  0.03669900  0.81754300  1
  Se  Se20  1  0.25000000  0.90075500  0.55094600  1
  Se  Se21  1  0.75000000  0.09924500  0.44905400  1
  Se  Se22  1  0.25000000  0.19020900  0.58556600  1
  Se  Se23  1  0.75000000  0.80979100  0.41443400  1
  Se  Se24  1  0.75000000  0.97347100  0.68074700  1
  Se  Se25  1  0.25000000  0.02652900  0.31925300  1
loop_
_geom_bond_atom_site_label_1
_geom_bond_atom_site_label_2
_geom_bond_distance
_geom_bond_site_symmetry_2
Rb0 Se16 3.567387 1_555
Rb0 Se11 3.568796 1_554
Rb0 Se8 3.723360 1_555
Rb0 Se4 3.748971 1_555
Rb0 Se4 3.748971 1_655
Rb0 Se10 3.881002 1_555
Rb0 Se10 3.881002 1_655
Rb0 Se14 4.023425 1_655
Rb0 Se14 4.023425 1_555
Rb1 Se17 3.567387 1_555
Rb1 Se10 3.568796 1_556
Rb1 Se9 3.723360 1_555
Rb1 Se5 3.748971 1_555
Rb1 Se5 3.748971 1_455
Rb1 Se11 3.881002 1_455
Rb1 Se11 3.881002 1_555
Rb1 Se15 4.023425 1_555
Rb1 Se15 4.023425 1_455
Rb2 Se2 3.596890 1_555
Rb2 Se2 3.596890 1_455
Rb2 Se4 3.673702 1_555
Rb2 Se0 3.695145 1_555
Rb2 Se25 3.761033 1_555
Rb2 Se21 3.765792 1_455
Rb2 Se21 3.765792 1_555
Rb2 Se16 3.898205 1_555
Rb2 Se16 3.898205 1_455
Rb3 Se3 3.596890 1_655
Rb3 Se3 3.596890 1_555
Rb3 Se5 3.673702 1_555
Rb3 Se1 3.695145 1_555
Rb3 Se24 3.761033 1_555
Rb3 Se20 3.765792 1_655
Rb3 Se20 3.765792 1_555
Rb3 Se17 3.898205 1_555
Rb3 Se17 3.898205 1_655
Bi0 Se0 2.729082 1_555
Bi0 Se1 2.950160 1_455
Bi0 Se1 2.950160 1_555
Bi0 Se2 2.999356 1_455
Bi0 Se2 2.999356 1_555
Bi1 Se1 2.729082 1_555
Bi1 Se0 2.950160 1_555
Bi1 Se0 2.950160 1_655
Bi1 Se3 2.999356 1_555
Bi1 Se3 2.999356 1_655
Bi2 Se6 2.840454 1_555
Bi2 Se8 2.906698 1_455
Bi2 Se8 2.906698 1_555
Bi2 Se18 3.052281 1_455
Bi2 Se18 3.052281 1_555
Bi2 Se12 3.156157 1_555
Bi3 Se7 2.840454 1_555
Bi3 Se9 2.906698 1_555
Bi3 Se9 2.906698 1_655
Bi3 Se19 3.052281 1_655
Bi3 Se19 3.052281 1_555
Bi3 Se13 3.156157 1_555
Bi4 Se14 2.929108 1_655
Bi4 Se14 2.929108 1_555
Bi4 Se18 2.942002 1_545
Bi4 Se13 3.007908 1_554
Bi4 Se12 3.057644 1_545
Bi4 Se12 3.057644 1_645
Bi5 Se15 2.929108 1_455
Bi5 Se15 2.929108 1_555
Bi5 Se19 2.942002 1_565
Bi5 Se12 3.007908 1_556
Bi5 Se13 3.057644 1_465
Bi5 Se13 3.057644 1_565
Bi6 Se23 2.775542 1_555
Bi6 Se25 2.937963 1_565
Bi6 Se25 2.937963 1_665
Bi6 Se6 3.030769 1_555
Bi6 Se6 3.030769 1_655
Bi6 Se18 3.229822 1_555
Bi7 Se22 2.775542 1_555
Bi7 Se24 2.937963 1_545
Bi7 Se24 2.937963 1_445
Bi7 Se7 3.030769 1_555
Bi7 Se7 3.030769 1_455
Bi7 Se19 3.229822 1_555
Bi8 Se2 2.759280 1_555
Bi8 Se4 2.810607 1_555
Bi8 Se4 2.810607 1_655
Bi8 Se8 3.285540 1_555
Bi8 Se6 3.286674 1_655
Bi8 Se6 3.286674 1_555
Bi9 Se3 2.759280 1_555
Bi9 Se5 2.810607 1_455
Bi9 Se5 2.810607 1_555
Bi9 Se9 3.285540 1_555
Bi9 Se7 3.286674 1_555
Bi9 Se7 3.286674 1_455
Bi10 Se10 2.807580 1_655
Bi10 Se10 2.807580 1_555
Bi10 Se8 2.876550 1_555
Bi10 Se15 3.150807 1_554
Bi10 Se12 3.268135 1_655
Bi10 Se12 3.268135 1_555
Bi11 Se11 2.807580 1_555
Bi11 Se11 2.807580 1_455
Bi11 Se9 2.876550 1_555
Bi11 Se14 3.150807 1_556
Bi11 Se13 3.268135 1_555
Bi11 Se13 3.268135 1_455
Bi12 Se16 2.802451 1_555
Bi12 Se16 2.802451 1_455
Bi12 Se25 2.883767 1_555
Bi12 Se14 3.164593 1_555
Bi12 Se18 3.235324 1_445
Bi12 Se18 3.235324 1_545
Bi13 Se17 2.802451 1_555
Bi13 Se17 2.802451 1_655
Bi13 Se24 2.883767 1_555
Bi13 Se15 3.164593 1_555
Bi13 Se19 3.235324 1_665
Bi13 Se19 3.235324 1_565
Bi14 Se20 2.797892 1_555
Bi14 Se21 2.983456 1_465
Bi14 Se21 2.983456 1_565
Bi14 Se23 2.997068 1_455
Bi14 Se23 2.997068 1_555
Bi14 Se25 3.125689 1_565
Bi15 Se21 2.797892 1_555
Bi15 Se20 2.983456 1_645
Bi15 Se20 2.983456 1_545
Bi15 Se22 2.997068 1_655
Bi15 Se22 2.997068 1_555
Bi15 Se24 3.125689 1_545
