# generated using pymatgen
data_Sr8Ga7
_symmetry_space_group_name_H-M   'P 1'
_cell_length_a   12.44393140
_cell_length_b   12.44393140
_cell_length_c   12.44393140
_cell_angle_alpha   90.00000000
_cell_angle_beta   90.00000000
_cell_angle_gamma   90.00000000
_symmetry_Int_Tables_number   1
_chemical_formula_structural   Sr8Ga7
_chemical_formula_sum   'Sr32 Ga28'
_cell_volume   1926.96055578
_cell_formula_units_Z   4
loop_
 _symmetry_equiv_pos_site_id
 _symmetry_equiv_pos_as_xyz
  1  'x, y, z'
loop_
 _atom_site_type_symbol
 _atom_site_label
 _atom_site_symmetry_multiplicity
 _atom_site_fract_x
 _atom_site_fract_y
 _atom_site_fract_z
 _atom_site_occupancy
  Sr  Sr0  1  0.18547253  0.18547253  0.18547253  1
  Sr  Sr1  1  0.31452747  0.81452747  0.68547253  1
  Sr  Sr2  1  0.68547253  0.31452747  0.81452747  1
  Sr  Sr3  1  0.81452747  0.68547253  0.31452747  1
  Sr  Sr4  1  0.81272207  0.81272207  0.81272207  1
  Sr  Sr5  1  0.68727793  0.18727793  0.31272207  1
  Sr  Sr6  1  0.31272207  0.68727793  0.18727793  1
  Sr  Sr7  1  0.18727793  0.31272207  0.68727793  1
  Sr  Sr8  1  0.52163986  0.70420908  0.93831332  1
  Sr  Sr9  1  0.93831332  0.52163986  0.70420908  1
  Sr  Sr10  1  0.70420908  0.93831332  0.52163986  1
  Sr  Sr11  1  0.79579092  0.06168668  0.02163986  1
  Sr  Sr12  1  0.43831332  0.97836014  0.29579092  1
  Sr  Sr13  1  0.29579092  0.43831332  0.97836014  1
  Sr  Sr14  1  0.56168668  0.47836014  0.20420908  1
  Sr  Sr15  1  0.06168668  0.02163986  0.79579092  1
  Sr  Sr16  1  0.20420908  0.56168668  0.47836014  1
  Sr  Sr17  1  0.02163986  0.79579092  0.06168668  1
  Sr  Sr18  1  0.47836014  0.20420908  0.56168668  1
  Sr  Sr19  1  0.97836014  0.29579092  0.43831332  1
  Sr  Sr20  1  0.79882136  0.55760424  0.00464625  1
  Sr  Sr21  1  0.00464625  0.79882136  0.55760424  1
  Sr  Sr22  1  0.55760424  0.00464625  0.79882136  1
  Sr  Sr23  1  0.94239576  0.99535375  0.29882136  1
  Sr  Sr24  1  0.50464625  0.70117864  0.44239576  1
  Sr  Sr25  1  0.44239576  0.50464625  0.70117864  1
  Sr  Sr26  1  0.49535375  0.20117864  0.05760424  1
  Sr  Sr27  1  0.99535375  0.29882136  0.94239576  1
  Sr  Sr28  1  0.05760424  0.49535375  0.20117864  1
  Sr  Sr29  1  0.29882136  0.94239576  0.99535375  1
  Sr  Sr30  1  0.20117864  0.05760424  0.49535375  1
  Sr  Sr31  1  0.70117864  0.44239576  0.50464625  1
  Ga  Ga0  1  0.43332094  0.43332094  0.43332094  1
  Ga  Ga1  1  0.06667906  0.56667906  0.93332094  1
  Ga  Ga2  1  0.93332094  0.06667906  0.56667906  1
  Ga  Ga3  1  0.56667906  0.93332094  0.06667906  1
  Ga  Ga4  1  0.74958516  0.68743320  0.57964787  1
  Ga  Ga5  1  0.57964787  0.74958516  0.68743320  1
  Ga  Ga6  1  0.68743320  0.57964787  0.74958516  1
  Ga  Ga7  1  0.81256680  0.42035213  0.24958516  1
  Ga  Ga8  1  0.07964787  0.75041484  0.31256680  1
  Ga  Ga9  1  0.31256680  0.07964787  0.75041484  1
  Ga  Ga10  1  0.92035213  0.25041484  0.18743320  1
  Ga  Ga11  1  0.42035213  0.24958516  0.81256680  1
  Ga  Ga12  1  0.18743320  0.92035213  0.25041484  1
  Ga  Ga13  1  0.24958516  0.81256680  0.42035213  1
  Ga  Ga14  1  0.25041484  0.18743320  0.92035213  1
  Ga  Ga15  1  0.75041484  0.31256680  0.07964787  1
  Ga  Ga16  1  0.75534598  0.19351464  0.57444299  1
  Ga  Ga17  1  0.57444299  0.75534598  0.19351464  1
  Ga  Ga18  1  0.19351464  0.57444299  0.75534598  1
  Ga  Ga19  1  0.30648536  0.42555701  0.25534598  1
  Ga  Ga20  1  0.07444299  0.74465402  0.80648536  1
  Ga  Ga21  1  0.80648536  0.07444299  0.74465402  1
  Ga  Ga22  1  0.92555701  0.24465402  0.69351464  1
  Ga  Ga23  1  0.42555701  0.25534598  0.30648536  1
  Ga  Ga24  1  0.69351464  0.92555701  0.24465402  1
  Ga  Ga25  1  0.25534598  0.30648536  0.42555701  1
  Ga  Ga26  1  0.24465402  0.69351464  0.92555701  1
  Ga  Ga27  1  0.74465402  0.80648536  0.07444299  1
loop_
_geom_bond_atom_site_label_1
_geom_bond_atom_site_label_2
_geom_bond_distance
_geom_bond_site_symmetry_2
Ga0 Ga23 2.721287 1_555
Ga0 Ga25 2.721287 1_555
Ga0 Ga19 2.721287 1_555
Ga0 Sr16 3.315754 1_555
Ga0 Sr14 3.315754 1_555
Ga0 Sr18 3.315754 1_555
Ga0 Sr24 3.451198 1_555
Ga0 Sr25 3.451198 1_555
Ga0 Sr31 3.451198 1_555
Ga1 Ga26 2.721287 1_555
Ga1 Ga20 2.721287 1_555
Ga1 Ga18 2.721287 1_555
Ga1 Sr17 3.315754 1_556
Ga1 Sr9 3.315754 1_455
Ga1 Sr13 3.315754 1_555
Ga1 Sr28 3.451198 1_556
Ga1 Sr20 3.451198 1_456
Ga1 Sr27 3.451198 1_455
Ga2 Ga21 2.721287 1_555
Ga2 Ga22 2.721287 1_555
Ga2 Sr15 3.315754 1_655
Ga2 Sr10 3.315754 1_545
Ga2 Sr19 3.315754 1_555
Ga2 Sr21 3.451198 1_645
Ga2 Sr30 3.451198 1_655
Ga2 Sr23 3.451198 1_545
Ga3 Sr11 3.315754 1_565
Ga3 Sr8 3.315754 1_554
Ga3 Sr12 3.315754 1_555
Ga3 Sr26 3.451198 1_565
Ga3 Sr22 3.451198 1_564
Ga3 Sr29 3.451198 1_554
Ga4 Ga5 2.620895 1_555
Ga4 Ga6 2.620895 1_555
Ga4 Sr31 3.245261 1_555
Ga4 Sr10 3.253672 1_555
Ga4 Sr4 3.385279 1_555
Ga4 Sr3 3.396764 1_555
Ga4 Sr21 3.474274 1_655
Ga4 Sr9 3.489214 1_555
Ga4 Sr24 3.498098 1_555
Ga5 Ga6 2.620895 1_555
Ga5 Sr24 3.245261 1_555
Ga5 Sr8 3.253672 1_555
Ga5 Sr4 3.385279 1_555
Ga5 Sr1 3.396764 1_555
Ga5 Sr22 3.474274 1_565
Ga5 Sr10 3.489214 1_555
Ga5 Sr25 3.498098 1_555
Ga6 Sr25 3.245261 1_555
Ga6 Sr9 3.253672 1_555
Ga6 Sr4 3.385279 1_555
Ga6 Sr2 3.396764 1_555
Ga6 Sr20 3.474274 1_556
Ga6 Sr8 3.489214 1_555
Ga6 Sr31 3.498098 1_555
Ga7 Sr28 3.245261 1_655
Ga7 Sr14 3.253672 1_555
Ga7 Sr5 3.385279 1_555
Ga7 Sr3 3.396764 1_555
Ga7 Sr31 3.474274 1_555
Ga7 Sr19 3.489214 1_555
Ga7 Sr20 3.498098 1_555
Ga8 Sr21 3.245261 1_555
Ga8 Sr17 3.253672 1_555
Ga8 Sr6 3.385279 1_555
Ga8 Sr3 3.396764 1_455
Ga8 Sr28 3.474274 1_555
Ga8 Sr16 3.489214 1_555
Ga8 Sr23 3.498098 1_455
Ga9 Sr22 3.245261 1_555
Ga9 Sr15 3.253672 1_555
Ga9 Sr7 3.385279 1_555
Ga9 Sr1 3.396764 1_545
Ga9 Sr30 3.474274 1_555
Ga9 Sr18 3.489214 1_555
Ga9 Sr29 3.498098 1_545
Ga10 Ga7 2.620895 1_555
Ga10 Ga15 2.620895 1_555
Ga10 Sr27 3.245261 1_554
Ga10 Sr19 3.253672 1_555
Ga10 Sr5 3.385279 1_555
Ga10 Sr0 3.396764 1_655
Ga10 Sr23 3.474274 1_545
Ga10 Sr11 3.489214 1_555
Ga10 Sr28 3.498098 1_655
Ga11 Ga14 2.620895 1_555
Ga11 Ga9 2.620895 1_555
Ga11 Sr26 3.245261 1_556
Ga11 Sr18 3.253672 1_555
Ga11 Sr7 3.385279 1_555
Ga11 Sr2 3.396764 1_555
Ga11 Sr25 3.474274 1_555
Ga11 Sr13 3.489214 1_555
Ga11 Sr22 3.498098 1_555
Ga12 Ga8 2.620895 1_555
Ga12 Ga13 2.620895 1_555
Ga12 Sr23 3.245261 1_455
Ga12 Sr12 3.253672 1_555
Ga12 Sr6 3.385279 1_555
Ga12 Sr0 3.396764 1_565
Ga12 Sr29 3.474274 1_554
Ga12 Sr17 3.489214 1_555
Ga12 Sr30 3.498098 1_565
Ga13 Ga8 2.620895 1_555
Ga13 Sr30 3.245261 1_565
Ga13 Sr16 3.253672 1_555
Ga13 Sr6 3.385279 1_555
Ga13 Sr1 3.396764 1_555
Ga13 Sr24 3.474274 1_555
Ga13 Sr12 3.489214 1_555
Ga13 Sr21 3.498098 1_555
Ga14 Ga9 2.620895 1_555
Ga14 Sr29 3.245261 1_545
Ga14 Sr13 3.253672 1_555
Ga14 Sr7 3.385279 1_555
Ga14 Sr0 3.396764 1_556
Ga14 Sr27 3.474274 1_455
Ga14 Sr15 3.489214 1_555
Ga14 Sr26 3.498098 1_556
Ga15 Ga7 2.620895 1_555
Ga15 Sr20 3.245261 1_555
Ga15 Sr11 3.253672 1_555
Ga15 Sr5 3.385279 1_555
Ga15 Sr2 3.396764 1_554
Ga15 Sr26 3.474274 1_555
Ga15 Sr14 3.489214 1_555
Ga15 Sr27 3.498098 1_554
Ga16 Ga21 2.662102 1_555
Ga16 Ga22 2.662102 1_555
Ga16 Ga2 2.721287 1_555
Ga16 Sr31 3.286411 1_555
Ga16 Sr10 3.304816 1_545
Ga16 Sr5 3.366078 1_555
Ga16 Sr18 3.453012 1_555
Ga16 Sr2 3.456792 1_555
Ga16 Sr19 3.491560 1_555
Ga17 Ga24 2.662102 1_555
Ga17 Ga27 2.662102 1_555
Ga17 Ga3 2.721287 1_555
Ga17 Sr24 3.286411 1_555
Ga17 Sr8 3.304816 1_554
Ga17 Sr6 3.366078 1_555
Ga17 Sr14 3.453012 1_555
Ga17 Sr3 3.456792 1_555
Ga17 Sr12 3.491560 1_555
Ga18 Ga26 2.662102 1_555
Ga18 Ga20 2.662102 1_555
Ga18 Sr25 3.286411 1_555
Ga18 Sr9 3.304816 1_455
Ga18 Sr7 3.366078 1_555
Ga18 Sr16 3.453012 1_555
Ga18 Sr1 3.456792 1_555
Ga18 Sr13 3.491560 1_555
Ga19 Ga25 2.662102 1_555
Ga19 Ga23 2.662102 1_555
Ga19 Sr28 3.286411 1_555
Ga19 Sr14 3.304816 1_555
Ga19 Sr6 3.366078 1_555
Ga19 Sr13 3.453012 1_554
Ga19 Sr0 3.456792 1_555
Ga19 Sr16 3.491560 1_555
Ga20 Ga26 2.662102 1_555
Ga20 Sr21 3.286411 1_555
Ga20 Sr17 3.304816 1_556
Ga20 Sr4 3.366078 1_455
Ga20 Sr15 3.453012 1_565
Ga20 Sr1 3.456792 1_555
Ga20 Sr9 3.491560 1_455
Ga21 Ga22 2.662102 1_555
Ga21 Sr22 3.286411 1_555
Ga21 Sr15 3.304816 1_655
Ga21 Sr4 3.366078 1_545
Ga21 Sr11 3.453012 1_556
Ga21 Sr2 3.456792 1_555
Ga21 Sr10 3.491560 1_545
Ga22 Sr27 3.286411 1_555
Ga22 Sr19 3.304816 1_555
Ga22 Sr7 3.366078 1_655
Ga22 Sr9 3.453012 1_555
Ga22 Sr2 3.456792 1_555
Ga22 Sr15 3.491560 1_655
Ga23 Ga25 2.662102 1_555
Ga23 Sr26 3.286411 1_555
Ga23 Sr18 3.304816 1_555
Ga23 Sr5 3.366078 1_555
Ga23 Sr12 3.453012 1_545
Ga23 Sr0 3.456792 1_555
Ga23 Sr14 3.491560 1_555
Ga24 Ga27 2.662102 1_555
Ga24 Ga3 2.721287 1_555
Ga24 Sr23 3.286411 1_555
Ga24 Sr12 3.304816 1_555
Ga24 Sr5 3.366078 1_565
Ga24 Sr10 3.453012 1_555
Ga24 Sr3 3.456792 1_555
Ga24 Sr11 3.491560 1_565
Ga25 Sr30 3.286411 1_555
Ga25 Sr16 3.304816 1_555
Ga25 Sr7 3.366078 1_555
Ga25 Sr19 3.453012 1_455
Ga25 Sr0 3.456792 1_555
Ga25 Sr18 3.491560 1_555
Ga26 Sr29 3.286411 1_555
Ga26 Sr13 3.304816 1_555
Ga26 Sr6 3.366078 1_556
Ga26 Sr8 3.453012 1_555
Ga26 Sr1 3.456792 1_555
Ga26 Sr17 3.491560 1_556
Ga27 Ga3 2.721287 1_555
Ga27 Sr20 3.286411 1_555
Ga27 Sr11 3.304816 1_565
Ga27 Sr4 3.366078 1_554
Ga27 Sr17 3.453012 1_655
Ga27 Sr3 3.456792 1_555
Ga27 Sr8 3.491560 1_554
