# generated using pymatgen
data_Ba2AlAsS5
_symmetry_space_group_name_H-M   'P 1'
_cell_length_a   8.80396569
_cell_length_b   9.06875702
_cell_length_c   12.32086752
_cell_angle_alpha   90.00000000
_cell_angle_beta   90.00000000
_cell_angle_gamma   90.00000000
_symmetry_Int_Tables_number   1
_chemical_formula_structural   Ba2AlAsS5
_chemical_formula_sum   'Ba8 Al4 As4 S20'
_cell_volume   983.71069963
_cell_formula_units_Z   4
loop_
 _symmetry_equiv_pos_site_id
 _symmetry_equiv_pos_as_xyz
  1  'x, y, z'
loop_
 _atom_site_type_symbol
 _atom_site_label
 _atom_site_symmetry_multiplicity
 _atom_site_fract_x
 _atom_site_fract_y
 _atom_site_fract_z
 _atom_site_occupancy
  Ba  Ba0  1  0.99490323  0.13278837  0.67380225  1
  Ba  Ba1  1  0.50509677  0.36721163  0.17380225  1
  Ba  Ba2  1  0.49490323  0.86721163  0.32619775  1
  Ba  Ba3  1  0.00509677  0.63278837  0.82619775  1
  Ba  Ba4  1  0.00509677  0.86721163  0.32619775  1
  Ba  Ba5  1  0.49490323  0.63278837  0.82619775  1
  Ba  Ba6  1  0.50509677  0.13278837  0.67380225  1
  Ba  Ba7  1  0.99490323  0.36721163  0.17380225  1
  Al  Al0  1  0.25000000  0.82735519  0.59603294  1
  Al  Al1  1  0.25000000  0.67264481  0.09603294  1
  Al  Al2  1  0.75000000  0.17264481  0.40396706  1
  Al  Al3  1  0.75000000  0.32735519  0.90396706  1
  As  As0  1  0.25000000  0.49786969  0.53781577  1
  As  As1  1  0.25000000  0.00213031  0.03781577  1
  As  As2  1  0.75000000  0.50213031  0.46218423  1
  As  As3  1  0.75000000  0.99786969  0.96218423  1
  S  S0  1  0.05619046  0.67008316  0.55761895  1
  S  S1  1  0.44380954  0.82991684  0.05761895  1
  S  S2  1  0.55619046  0.32991684  0.44238105  1
  S  S3  1  0.94380954  0.17008316  0.94238105  1
  S  S4  1  0.94380954  0.32991684  0.44238105  1
  S  S5  1  0.55619046  0.17008316  0.94238105  1
  S  S6  1  0.44380954  0.67008316  0.55761895  1
  S  S7  1  0.05619046  0.82991684  0.05761895  1
  S  S8  1  0.75000000  0.97667626  0.50851132  1
  S  S9  1  0.75000000  0.52332374  0.00851132  1
  S  S10  1  0.25000000  0.02332374  0.49148868  1
  S  S11  1  0.25000000  0.47667626  0.99148868  1
  S  S12  1  0.25000000  0.89105426  0.76904870  1
  S  S13  1  0.25000000  0.60894574  0.26904870  1
  S  S14  1  0.75000000  0.10894574  0.23095130  1
  S  S15  1  0.75000000  0.39105426  0.73095130  1
  S  S16  1  0.25000000  0.39982859  0.70549980  1
  S  S17  1  0.25000000  0.10017141  0.20549980  1
  S  S18  1  0.75000000  0.60017141  0.29450020  1
  S  S19  1  0.75000000  0.89982859  0.79450020  1
loop_
_geom_bond_atom_site_label_1
_geom_bond_atom_site_label_2
_geom_bond_distance
_geom_bond_site_symmetry_2
Ba0 S15 3.260416 1_555
Ba0 S8 3.286430 1_545
Ba0 S16 3.325833 1_655
Ba0 S10 3.327921 1_655
Ba0 S12 3.350658 1_645
Ba0 S3 3.356641 1_555
Ba0 S19 3.365062 1_545
Ba0 S4 3.395323 1_555
Ba1 S14 3.260416 1_555
Ba1 S9 3.286430 1_555
Ba1 S17 3.325833 1_555
Ba1 S11 3.327921 1_554
Ba1 S13 3.350658 1_555
Ba1 S2 3.356641 1_555
Ba1 S18 3.365062 1_555
Ba1 S5 3.395323 1_554
Ba2 S13 3.260416 1_555
Ba2 S10 3.286430 1_565
Ba2 S18 3.325833 1_555
Ba2 S8 3.327921 1_555
Ba2 S14 3.350658 1_565
Ba2 S1 3.356641 1_555
Ba2 S17 3.365062 1_565
Ba2 S6 3.395323 1_555
Ba3 S12 3.260416 1_555
Ba3 S11 3.286430 1_555
Ba3 S19 3.325833 1_455
Ba3 S9 3.327921 1_456
Ba3 S15 3.350658 1_455
Ba3 S0 3.356641 1_555
Ba3 S16 3.365062 1_555
Ba3 S7 3.395323 1_556
Ba4 S13 3.260416 1_555
Ba4 S10 3.286430 1_565
Ba4 S18 3.325833 1_455
Ba4 S8 3.327921 1_455
Ba4 S14 3.350658 1_465
Ba4 S7 3.356641 1_555
Ba4 S17 3.365062 1_565
Ba4 S0 3.395323 1_555
Ba5 S12 3.260416 1_555
Ba5 S11 3.286430 1_555
Ba5 S19 3.325833 1_555
Ba5 S9 3.327921 1_556
Ba5 S15 3.350658 1_555
Ba5 S6 3.356641 1_555
Ba5 S16 3.365062 1_555
Ba5 S1 3.395323 1_556
Ba6 S15 3.260416 1_555
Ba6 S8 3.286430 1_545
Ba6 S16 3.325833 1_555
Ba6 S10 3.327921 1_555
Ba6 S12 3.350658 1_545
Ba6 S5 3.356641 1_555
Ba6 S19 3.365062 1_545
Ba6 S2 3.395323 1_555
Ba7 S14 3.260416 1_555
Ba7 S9 3.286430 1_555
Ba7 S17 3.325833 1_655
Ba7 S11 3.327921 1_654
Ba7 S13 3.350658 1_655
Ba7 S4 3.356641 1_555
Ba7 S18 3.365062 1_555
Ba7 S3 3.395323 1_554
Al0 S10 2.194891 1_565
Al0 S12 2.208589 1_555
Al0 S6 2.273689 1_555
Al0 S0 2.273689 1_555
Al1 S11 2.194891 1_554
Al1 S13 2.208589 1_555
Al1 S1 2.273689 1_555
Al1 S7 2.273689 1_555
Al2 S8 2.194891 1_545
Al2 S14 2.208589 1_555
Al2 S4 2.273689 1_555
Al2 S2 2.273689 1_555
Al3 S9 2.194891 1_556
Al3 S15 2.208589 1_555
Al3 S3 2.273689 1_555
Al3 S5 2.273689 1_555
As0 S16 2.249206 1_555
As0 S6 2.325955 1_555
As0 S0 2.325955 1_555
As1 S17 2.249206 1_555
As1 S1 2.325955 1_545
As1 S7 2.325955 1_545
As2 S18 2.249206 1_555
As2 S4 2.325955 1_555
As2 S2 2.325955 1_555
As3 S19 2.249206 1_555
As3 S3 2.325955 1_565
As3 S5 2.325955 1_565
