# generated using pymatgen
data_LiZn(Sn4Os)2
_symmetry_space_group_name_H-M   'P 1'
_cell_length_a   7.28704934
_cell_length_b   7.28704947
_cell_length_c   7.28704872
_cell_angle_alpha   124.95518421
_cell_angle_beta   124.95518133
_cell_angle_gamma   81.61227307
_symmetry_Int_Tables_number   1
_chemical_formula_structural   LiZn(Sn4Os)2
_chemical_formula_sum   'Li1 Zn1 Sn8 Os2'
_cell_volume   250.16782004
_cell_formula_units_Z   1
loop_
 _symmetry_equiv_pos_site_id
 _symmetry_equiv_pos_as_xyz
  1  'x, y, z'
loop_
 _atom_site_type_symbol
 _atom_site_label
 _atom_site_symmetry_multiplicity
 _atom_site_fract_x
 _atom_site_fract_y
 _atom_site_fract_z
 _atom_site_occupancy
  Li  Li0  1  0.00000000  0.00000000  0.00000000  1
  Zn  Zn0  1  0.50000000  0.50000000  0.00000000  1
  Sn  Sn0  1  0.71263924  0.52471136  0.51181090  1
  Sn  Sn1  1  0.52471136  0.01290147  0.81207212  1
  Sn  Sn2  1  0.20082834  0.71263924  0.18792788  1
  Sn  Sn3  1  0.79917166  0.28736076  0.81207212  1
  Sn  Sn4  1  0.47528864  0.98709853  0.18792788  1
  Sn  Sn5  1  0.28736076  0.47528864  0.48818910  1
  Sn  Sn6  1  0.98709853  0.79917166  0.51181090  1
  Sn  Sn7  1  0.01290147  0.20082834  0.48818910  1
  Os  Os0  1  0.26222022  0.26222022  1.00000000  1
  Os  Os1  1  0.73777978  0.73777978  0.00000000  1
loop_
_geom_bond_atom_site_label_1
_geom_bond_atom_site_label_2
_geom_bond_distance
_geom_bond_site_symmetry_2
Li0 Os0 2.892683 1_554
Li0 Os1 2.892683 1_445
Li0 Sn7 2.915021 1_555
Li0 Sn6 2.915021 1_444
Li0 Sn3 2.915026 1_454
Li0 Sn2 2.915026 1_545
Li0 Sn5 2.915026 1_555
Li0 Sn0 2.915026 1_444
Li0 Sn4 2.915027 1_545
Li0 Sn1 2.915027 1_454
Sn0 Sn7 2.974369 1_655
Sn0 Zn0 3.005505 1_555
Sn0 Sn6 3.027703 1_555
Sn0 Sn5 3.067020 1_555
Sn0 Sn3 3.257878 1_555
Sn0 Sn4 3.257885 1_545
Sn1 Sn2 2.974364 1_545
Sn1 Zn0 3.005498 1_556
Sn1 Sn3 3.027703 1_555
Sn1 Sn4 3.067028 1_546
Sn1 Sn5 3.257885 1_545
Sn1 Sn6 3.257887 1_445
Sn2 Zn0 3.005505 1_555
Sn2 Sn4 3.027703 1_555
Sn2 Sn3 3.067020 1_454
Sn2 Sn5 3.257878 1_555
Sn2 Sn6 3.257885 1_455
Sn3 Sn4 2.974364 1_545
Sn3 Zn0 3.005505 1_556
Sn3 Sn7 3.257885 1_655
Sn4 Zn0 3.005498 1_555
Sn4 Sn7 3.257887 1_665
Sn5 Sn6 2.974369 1_455
Sn5 Zn0 3.005505 1_556
Sn5 Sn7 3.027703 1_555
Sn6 Zn0 3.005501 1_555
Sn6 Sn7 3.067023 1_665
Sn7 Zn0 3.005501 1_556
Os0 Zn0 2.623068 1_556
Os0 Sn1 2.823411 1_555
Os0 Sn2 2.823413 1_556
Os0 Sn0 2.823413 1_556
Os0 Sn7 2.823413 1_555
Os0 Sn5 2.847242 1_556
Os0 Sn3 2.847242 1_455
Os0 Sn6 2.847243 1_445
Os0 Sn4 2.847248 1_546
Os1 Zn0 2.623068 1_555
Os1 Sn4 2.823411 1_555
Os1 Sn3 2.823413 1_554
Os1 Sn5 2.823413 1_554
Os1 Sn6 2.823413 1_555
Os1 Sn0 2.847242 1_554
Os1 Sn2 2.847242 1_655
Os1 Sn7 2.847243 1_665
Os1 Sn1 2.847248 1_564
