# generated using pymatgen
data_K6ScFeF12
_symmetry_space_group_name_H-M   'P 1'
_cell_length_a   6.34312896
_cell_length_b   6.09025736
_cell_length_c   10.57878062
_cell_angle_alpha   55.15839888
_cell_angle_beta   89.93816191
_cell_angle_gamma   90.14260731
_symmetry_Int_Tables_number   1
_chemical_formula_structural   K6ScFeF12
_chemical_formula_sum   'K6 Sc1 Fe1 F12'
_cell_volume   335.40859167
_cell_formula_units_Z   1
loop_
 _symmetry_equiv_pos_site_id
 _symmetry_equiv_pos_as_xyz
  1  'x, y, z'
loop_
 _atom_site_type_symbol
 _atom_site_label
 _atom_site_symmetry_multiplicity
 _atom_site_fract_x
 _atom_site_fract_y
 _atom_site_fract_z
 _atom_site_occupancy
  K  K0  1  0.50000000  0.50000000  0.00000000  1
  K  K1  1  0.00000000  0.50000000  0.50000000  1
  K  K2  1  0.05391560  0.73743184  0.74689787  1
  K  K3  1  0.94608440  0.26256816  0.25310213  1
  K  K4  1  0.55165644  0.27381950  0.74125073  1
  K  K5  1  0.44834356  0.72618050  0.25874927  1
  Sc  Sc0  1  0.00000000  0.00000000  0.00000000  1
  Fe  Fe0  1  0.50000000  0.00000000  0.50000000  1
  F  F0  1  0.75253427  0.77749610  0.55753774  1
  F  F1  1  0.24746573  0.22250390  0.44246226  1
  F  F2  1  0.26373056  0.23076660  0.93389513  1
  F  F3  1  0.73626944  0.76923340  0.06610487  1
  F  F4  1  0.45871817  0.88284432  0.71157410  1
  F  F5  1  0.54128183  0.11715568  0.28842590  1
  F  F6  1  0.95221314  0.11640074  0.78075010  1
  F  F7  1  0.04778686  0.88359926  0.21924990  1
  F  F8  1  0.32744047  0.70160836  0.53997912  1
  F  F9  1  0.67255953  0.29839164  0.46002088  1
  F  F10  1  0.82808971  0.31589878  0.95477004  1
  F  F11  1  0.17191029  0.68410122  0.04522996  1
loop_
_geom_bond_atom_site_label_1
_geom_bond_atom_site_label_2
_geom_bond_distance
_geom_bond_site_symmetry_2
F0 Fe0 1.960408 1_565
F0 K1 2.622438 1_655
F0 K2 2.679373 1_655
F0 K4 2.823764 1_555
F0 K3 3.115916 1_565
F1 Fe0 1.960408 1_555
F1 K1 2.622438 1_555
F1 K3 2.679373 1_455
F1 K5 2.823764 1_555
F1 K2 3.115916 1_545
F2 Sc0 2.031145 1_556
F2 K0 2.593056 1_556
F2 K4 2.633731 1_555
F2 K2 2.873601 1_555
F2 K5 3.253401 1_546
F3 Sc0 2.031145 1_665
F3 K0 2.593056 1_555
F3 K5 2.633731 1_555
F3 K3 2.873601 1_555
F3 K4 3.253401 1_564
F4 Fe0 1.939139 1_565
F4 K0 2.586643 1_556
F4 K4 2.638842 1_565
F4 K2 2.669375 1_555
F5 Fe0 1.939139 1_555
F5 K0 2.586643 1_555
F5 K5 2.638842 1_545
F5 K3 2.669375 1_555
F6 Sc0 2.024321 1_656
F6 K1 2.537137 1_655
F6 K2 2.612029 1_645
F6 K4 2.665709 1_555
F7 Sc0 2.024321 1_565
F7 K1 2.537137 1_555
F7 K3 2.612029 1_465
F7 K5 2.665709 1_555
F8 Fe0 1.946885 1_565
F8 K1 2.565726 1_555
F8 K4 2.651527 1_555
F8 K2 2.896325 1_555
F8 K5 2.991213 1_555
F9 Fe0 1.946885 1_555
F9 K1 2.565726 1_655
F9 K5 2.651527 1_555
F9 K3 2.896325 1_555
F9 K4 2.991213 1_555
F10 Sc0 2.019695 1_656
F10 K0 2.537634 1_556
F10 K2 2.646257 1_655
F10 K4 2.984973 1_555
F10 K3 3.075875 1_556
F11 Sc0 2.019695 1_565
F11 K0 2.537634 1_555
F11 K3 2.646257 1_455
F11 K5 2.984973 1_555
F11 K2 3.075875 1_554
