# generated using pymatgen
data_BaRh2(SeO3)4
_symmetry_space_group_name_H-M   'P 1'
_cell_length_a   5.25992054
_cell_length_b   9.97716393
_cell_length_c   13.93123534
_cell_angle_alpha   49.06014703
_cell_angle_beta   90.00000000
_cell_angle_gamma   90.00000000
_symmetry_Int_Tables_number   1
_chemical_formula_structural   BaRh2(SeO3)4
_chemical_formula_sum   'Ba2 Rh4 Se8 O24'
_cell_volume   552.27028499
_cell_formula_units_Z   2
loop_
 _symmetry_equiv_pos_site_id
 _symmetry_equiv_pos_as_xyz
  1  'x, y, z'
loop_
 _atom_site_type_symbol
 _atom_site_label
 _atom_site_symmetry_multiplicity
 _atom_site_fract_x
 _atom_site_fract_y
 _atom_site_fract_z
 _atom_site_occupancy
  Ba  Ba0  1  0.08277933  0.00000000  0.75000000  1
  Ba  Ba1  1  0.91722067  0.00000000  0.25000000  1
  Rh  Rh0  1  0.00000000  0.50000000  0.50000000  1
  Rh  Rh1  1  0.50000000  0.00000000  0.00000000  1
  Rh  Rh2  1  0.50000000  0.00000000  0.50000000  1
  Rh  Rh3  1  0.00000000  0.50000000  0.00000000  1
  Se  Se0  1  0.48626300  0.35582918  0.17792890  1
  Se  Se1  1  0.00519536  0.75014608  0.59334086  1
  Se  Se2  1  0.00519536  0.24985392  0.90665914  1
  Se  Se3  1  0.99480464  0.24985392  0.40665914  1
  Se  Se4  1  0.51373700  0.35582918  0.67792890  1
  Se  Se5  1  0.51373700  0.64417082  0.82207110  1
  Se  Se6  1  0.48626300  0.64417082  0.32207110  1
  Se  Se7  1  0.99480464  0.75014608  0.09334086  1
  O  O0  1  0.20790844  0.70581116  0.34919394  1
  O  O1  1  0.28943974  0.80988186  0.02236849  1
  O  O2  1  0.79209156  0.70581116  0.84919394  1
  O  O3  1  0.81668906  0.91994046  0.96217183  1
  O  O4  1  0.71056026  0.80988186  0.52236849  1
  O  O5  1  0.31907335  0.35151622  0.58051469  1
  O  O6  1  0.18331094  0.08005954  0.03782817  1
  O  O7  1  0.68092665  0.35151622  0.08051469  1
  O  O8  1  0.79209156  0.29418884  0.65080606  1
  O  O9  1  0.58322469  0.14764588  0.31303098  1
  O  O10  1  0.68092665  0.64848378  0.41948531  1
  O  O11  1  0.28943974  0.19011814  0.47763151  1
  O  O12  1  0.58322469  0.85235412  0.18696902  1
  O  O13  1  0.81668906  0.08005954  0.53782817  1
  O  O14  1  0.41677531  0.14764588  0.81303098  1
  O  O15  1  0.06129560  0.43098349  0.89238054  1
  O  O16  1  0.71056026  0.19011814  0.97763151  1
  O  O17  1  0.93870440  0.43098349  0.39238054  1
  O  O18  1  0.06129560  0.56901651  0.60761946  1
  O  O19  1  0.41677531  0.85235412  0.68696902  1
  O  O20  1  0.31907335  0.64848378  0.91948531  1
  O  O21  1  0.18331094  0.91994046  0.46217183  1
  O  O22  1  0.93870440  0.56901651  0.10761946  1
  O  O23  1  0.20790844  0.29418884  0.15080606  1
loop_
_geom_bond_atom_site_label_1
_geom_bond_atom_site_label_2
_geom_bond_distance
_geom_bond_site_symmetry_2
Ba0 O8 2.747187 1_455
Ba0 O2 2.747187 1_445
Ba0 O14 2.778949 1_555
Ba0 O19 2.778949 1_545
Ba0 O13 2.870473 1_455
Ba0 O3 2.870473 1_445
Ba0 O5 2.927019 1_555
Ba0 O20 2.927019 1_545
Ba0 O1 3.121673 1_546
Ba0 O11 3.121673 1_555
Ba1 O23 2.747187 1_655
Ba1 O0 2.747187 1_645
Ba1 O9 2.778949 1_555
Ba1 O12 2.778949 1_545
Ba1 O6 2.870473 1_655
Ba1 O21 2.870473 1_645
Ba1 O7 2.927019 1_555
Ba1 O10 2.927019 1_545
Ba1 O4 3.121673 1_545
Ba1 O16 3.121673 1_554
O0 Se6 1.723134 1_555
O0 Rh0 2.042687 1_555
O1 Se7 1.721127 1_455
O1 Rh1 2.036439 1_565
O2 Se5 1.723134 1_555
O2 Rh3 2.042687 1_656
O3 Se7 1.740644 1_556
O3 Rh1 2.059652 1_566
O4 Se1 1.721127 1_655
O4 Rh2 2.036439 1_565
O5 Se4 1.722936 1_555
O5 Rh0 2.022824 1_555
O6 Se2 1.740644 1_554
O6 Rh1 2.059652 1_555
O7 Se0 1.722936 1_555
O7 Rh3 2.022824 1_655
O8 Se4 1.723134 1_555
O8 Rh0 2.042687 1_655
O9 Se0 1.730168 1_555
O9 Rh2 2.029202 1_555
O10 Se6 1.722936 1_555
O10 Rh0 2.022824 1_655
O11 Se3 1.721127 1_455
O11 Rh2 2.036439 1_555
O12 Se6 1.730168 1_555
O12 Rh1 2.029202 1_565
O13 Se3 1.740644 1_555
O13 Rh2 2.059652 1_555
O14 Se4 1.730168 1_555
O14 Rh1 2.029202 1_556
O15 Se2 1.709199 1_555
O15 Rh3 2.044233 1_556
O16 Se2 1.721127 1_655
O16 Rh1 2.036439 1_556
O17 Se3 1.709199 1_555
O17 Rh0 2.044233 1_655
O18 Se1 1.709199 1_555
O18 Rh0 2.044233 1_555
O19 Se5 1.730168 1_555
O19 Rh2 2.029202 1_565
O20 Se5 1.722936 1_555
O20 Rh3 2.022824 1_556
O21 Se1 1.740644 1_555
O21 Rh2 2.059652 1_565
O22 Se7 1.709199 1_555
O22 Rh3 2.044233 1_655
O23 Se0 1.723134 1_555
O23 Rh3 2.042687 1_555
