# generated using pymatgen
data_ReTc3(PN3)4
_symmetry_space_group_name_H-M   'P 1'
_cell_length_a   6.43013104
_cell_length_b   6.43012988
_cell_length_c   4.79712525
_cell_angle_alpha   82.00042024
_cell_angle_beta   82.00042721
_cell_angle_gamma   82.21084477
_symmetry_Int_Tables_number   1
_chemical_formula_structural   ReTc3(PN3)4
_chemical_formula_sum   'Re1 Tc3 P4 N12'
_cell_volume   193.13392986
_cell_formula_units_Z   1
loop_
 _symmetry_equiv_pos_site_id
 _symmetry_equiv_pos_as_xyz
  1  'x, y, z'
loop_
 _atom_site_type_symbol
 _atom_site_label
 _atom_site_symmetry_multiplicity
 _atom_site_fract_x
 _atom_site_fract_y
 _atom_site_fract_z
 _atom_site_occupancy
  Re  Re0  1  0.09646669  0.90353331  0.75000000  1
  Tc  Tc0  1  0.76479257  0.23520743  0.75000000  1
  Tc  Tc1  1  0.90462980  0.09537020  0.25000000  1
  Tc  Tc2  1  0.23467314  0.76532686  0.25000000  1
  P  P0  1  0.23364816  0.39479974  0.80777786  1
  P  P1  1  0.39580268  0.23434958  0.30687996  1
  P  P2  1  0.76565042  0.60419732  0.19312004  1
  P  P3  1  0.60520026  0.76635184  0.69222214  1
  N  N0  1  0.29004526  0.44154465  0.11235886  1
  N  N1  1  0.06259287  0.21400851  0.86431709  1
  N  N2  1  0.93790029  0.78424037  0.13488064  1
  N  N3  1  0.44113202  0.29088100  0.61178753  1
  N  N4  1  0.61385242  0.14370185  0.13599452  1
  N  N5  1  0.38716234  0.85917456  0.85968912  1
  N  N6  1  0.85629815  0.38614758  0.36400548  1
  N  N7  1  0.70911900  0.55886798  0.88821247  1
  N  N8  1  0.78599149  0.93740713  0.63568291  1
  N  N9  1  0.14082544  0.61283766  0.64031088  1
  N  N10  1  0.21575963  0.06209971  0.36511936  1
  N  N11  1  0.55845535  0.70995474  0.38764114  1
loop_
_geom_bond_atom_site_label_1
_geom_bond_atom_site_label_2
_geom_bond_distance
_geom_bond_site_symmetry_2
N0 P0 1.629713 1_554
N0 P1 1.641102 1_555
N0 Tc2 2.239099 1_555
N1 P0 1.676481 1_555
N1 Tc0 2.046182 1_455
N1 Tc1 2.081082 1_456
N1 Re0 2.118344 1_545
N2 P2 1.678240 1_555
N2 Tc2 2.042803 1_655
N2 Re0 2.081040 1_654
N2 Tc1 2.124093 1_565
N3 P1 1.628463 1_555
N3 P0 1.641495 1_555
N3 Tc0 2.239445 1_555
N4 P1 1.602862 1_555
N4 Tc1 1.992836 1_555
N4 Tc0 2.016979 1_554
N5 P3 1.600130 1_555
N5 Re0 1.984856 1_555
N5 Tc2 2.041143 1_556
N6 P2 1.602862 1_555
N6 Tc1 1.992836 1_555
N6 Tc0 2.016979 1_555
N7 P2 1.628463 1_556
N7 P3 1.641495 1_555
N7 Tc0 2.239445 1_555
N8 P3 1.676481 1_555
N8 Tc0 2.046182 1_565
N8 Tc1 2.081082 1_565
N8 Re0 2.118345 1_655
N9 P0 1.600130 1_555
N9 Re0 1.984856 1_555
N9 Tc2 2.041143 1_555
N10 P1 1.678240 1_555
N10 Tc2 2.042802 1_545
N10 Re0 2.081040 1_545
N10 Tc1 2.124093 1_455
N11 P3 1.629713 1_555
N11 P2 1.641102 1_555
N11 Tc2 2.239099 1_555
