# generated using pymatgen
data_Hf10Zn2(InSb)3
_symmetry_space_group_name_H-M   'P 1'
_cell_length_a   8.57859630
_cell_length_b   8.56536792
_cell_length_c   5.78314242
_cell_angle_alpha   90.00000000
_cell_angle_beta   90.00000000
_cell_angle_gamma   120.04772110
_symmetry_Int_Tables_number   1
_chemical_formula_structural   Hf10Zn2(InSb)3
_chemical_formula_sum   'Hf10 Zn2 In3 Sb3'
_cell_volume   367.83049619
_cell_formula_units_Z   1
loop_
 _symmetry_equiv_pos_site_id
 _symmetry_equiv_pos_as_xyz
  1  'x, y, z'
loop_
 _atom_site_type_symbol
 _atom_site_label
 _atom_site_symmetry_multiplicity
 _atom_site_fract_x
 _atom_site_fract_y
 _atom_site_fract_z
 _atom_site_occupancy
  Hf  Hf0  1  0.73034210  0.73299942  0.25000000  1
  Hf  Hf1  1  0.73539095  0.00002249  0.75000000  1
  Hf  Hf2  1  0.99731354  0.26698507  0.25000000  1
  Hf  Hf3  1  0.99786283  0.73182620  0.75000000  1
  Hf  Hf4  1  0.26605435  0.26816054  0.75000000  1
  Hf  Hf5  1  0.27069449  0.00001919  0.25000000  1
  Hf  Hf6  1  0.33426787  0.66695004  0.49938220  1
  Hf  Hf7  1  0.66731522  0.33304921  0.00064512  1
  Hf  Hf8  1  0.66731522  0.33304921  0.49935488  1
  Hf  Hf9  1  0.33426787  0.66695004  0.00061780  1
  Zn  Zn0  1  0.00470260  0.99999748  0.00392376  1
  Zn  Zn1  1  0.00470260  0.99999748  0.49607624  1
  In  In0  1  0.38364629  0.99999847  0.75000000  1
  In  In1  1  0.38223338  0.38293815  0.25000000  1
  In  In2  1  0.99928669  0.61706266  0.25000000  1
  Sb  Sb0  1  0.00059665  0.38888307  0.75000000  1
  Sb  Sb1  1  0.61169895  0.61109401  0.75000000  1
  Sb  Sb2  1  0.61231141  0.00001728  0.25000000  1
loop_
_geom_bond_atom_site_label_1
_geom_bond_atom_site_label_2
_geom_bond_distance
_geom_bond_site_symmetry_2
Hf0 Zn1 2.721117 1_655
Hf0 Zn0 2.721117 1_655
Hf0 Sb2 2.928346 1_565
Hf0 In2 2.933184 1_555
Hf0 In1 2.990204 1_555
Hf0 Sb1 3.069705 1_554
Hf0 Sb1 3.069705 1_555
Hf1 Zn0 2.737605 1_646
Hf1 Zn1 2.737605 1_645
Hf1 Sb0 2.946384 1_655
Hf1 Sb1 2.946801 1_545
Hf1 In0 3.017372 1_545
Hf1 Sb2 3.078304 1_555
Hf1 Sb2 3.078304 1_556
Hf2 Zn1 2.721038 1_645
Hf2 Zn0 2.721038 1_645
Hf2 Sb2 2.928132 1_555
Hf2 In1 2.933565 1_655
Hf2 In2 2.990104 1_555
Hf2 Sb0 3.069638 1_655
Hf2 Sb0 3.069638 1_654
Hf3 Zn0 2.702044 1_656
Hf3 Zn1 2.702044 1_655
Hf3 Sb1 2.934786 1_555
Hf3 In0 2.935306 1_655
Hf3 Sb0 2.949247 1_655
Hf3 In2 3.056081 1_556
Hf3 In2 3.056081 1_555
Hf4 Zn0 2.702178 1_546
Hf4 Zn1 2.702178 1_545
Hf4 Sb0 2.934836 1_555
Hf4 In0 2.934929 1_545
Hf4 Sb1 2.949218 1_555
Hf4 In1 3.056105 1_555
Hf4 In1 3.056105 1_556
Hf5 Zn1 2.689154 1_545
Hf5 Zn0 2.689154 1_545
Hf5 In1 2.920631 1_555
Hf5 In2 2.920998 1_445
Hf5 Sb2 2.930602 1_555
Hf5 In0 3.049632 1_545
Hf5 In0 3.049632 1_544
Hf6 Hf9 2.884426 1_555
Hf6 Hf9 2.898717 1_556
Hf6 Sb2 3.015543 1_565
Hf6 Sb1 3.022263 1_555
Hf6 Sb0 3.023152 1_555
Hf6 In1 3.028132 1_555
Hf6 In0 3.034426 1_555
Hf6 In2 3.048087 1_455
Hf7 Hf8 2.884110 1_555
Hf7 Hf8 2.899033 1_554
Hf7 Sb2 3.015167 1_555
Hf7 Sb0 3.022398 1_654
Hf7 Sb1 3.022986 1_554
Hf7 In2 3.028168 1_555
Hf7 In0 3.034605 1_544
Hf7 In1 3.047892 1_555
Hf8 Sb2 3.015167 1_555
Hf8 Sb0 3.022398 1_655
Hf8 Sb1 3.022986 1_555
Hf8 In2 3.028168 1_555
Hf8 In0 3.034605 1_545
Hf8 In1 3.047892 1_555
Hf9 Sb2 3.015543 1_565
Hf9 Sb1 3.022263 1_554
Hf9 Sb0 3.023152 1_554
Hf9 In1 3.028132 1_555
Hf9 In0 3.034426 1_554
Hf9 In2 3.048087 1_455
