# generated using pymatgen
data_Pr5AgSe8
_symmetry_space_group_name_H-M   'P 1'
_cell_length_a   7.78261750
_cell_length_b   7.78258306
_cell_length_c   7.78257034
_cell_angle_alpha   109.84752890
_cell_angle_beta   109.84779116
_cell_angle_gamma   108.72116622
_symmetry_Int_Tables_number   1
_chemical_formula_structural   Pr5AgSe8
_chemical_formula_sum   'Pr5 Ag1 Se8'
_cell_volume   362.82201735
_cell_formula_units_Z   1
loop_
 _symmetry_equiv_pos_site_id
 _symmetry_equiv_pos_as_xyz
  1  'x, y, z'
loop_
 _atom_site_type_symbol
 _atom_site_label
 _atom_site_symmetry_multiplicity
 _atom_site_fract_x
 _atom_site_fract_y
 _atom_site_fract_z
 _atom_site_occupancy
  Pr  Pr0  1  0.37931068  0.76070190  0.87800647  1
  Pr  Pr1  1  0.49868962  0.62067574  0.38138542  1
  Pr  Pr2  1  0.88270217  0.50131356  0.12199247  1
  Pr  Pr3  1  0.23929419  0.11730363  0.61861000  1
  Pr  Pr4  1  0.75000033  0.25000505  0.50000025  1
  Ag  Ag0  1  0.00000517  0.00001076  0.00000346  1
  Se  Se0  1  0.27151681  0.88417905  0.24882536  1
  Se  Se1  1  0.97730531  0.72849675  0.61267147  1
  Se  Se2  1  0.60942018  0.50407045  0.74177110  1
  Se  Se3  1  0.49591742  0.23769938  0.10535450  1
  Se  Se4  1  0.13235531  0.39056740  0.89465505  1
  Se  Se5  1  0.11582778  0.36464686  0.38734908  1
  Se  Se6  1  0.63535228  0.02267643  0.75115650  1
  Se  Se7  1  0.76230274  0.86765204  0.25822087  1
loop_
_geom_bond_atom_site_label_1
_geom_bond_atom_site_label_2
_geom_bond_distance
_geom_bond_site_symmetry_2
Pr0 Se1 2.978857 1_455
Pr0 Se4 2.979458 1_555
Pr0 Se7 3.013141 1_556
Pr0 Se6 3.032624 1_565
Pr0 Se3 3.165767 1_566
Pr0 Se0 3.199086 1_556
Pr0 Se2 3.235397 1_555
Pr0 Se5 3.304597 1_555
Pr1 Se6 2.978734 1_565
Pr1 Se7 2.979502 1_555
Pr1 Se3 3.013048 1_555
Pr1 Se5 3.032551 1_555
Pr1 Se2 3.165715 1_555
Pr1 Se1 3.199056 1_555
Pr1 Se4 3.235295 1_554
Pr1 Se0 3.304715 1_555
Pr2 Se5 2.978916 1_655
Pr2 Se3 2.979546 1_555
Pr2 Se2 3.013140 1_554
Pr2 Se0 3.032512 1_655
Pr2 Se4 3.165761 1_654
Pr2 Se6 3.199238 1_554
Pr2 Se7 3.235361 1_555
Pr2 Se1 3.304755 1_555
Pr3 Se0 2.978829 1_545
Pr3 Se2 2.979397 1_555
Pr3 Se4 3.013098 1_555
Pr3 Se1 3.032529 1_445
Pr3 Se7 3.165731 1_445
Pr3 Se5 3.199014 1_555
Pr3 Se3 3.235391 1_556
Pr3 Se6 3.304747 1_555
Pr4 Se3 2.984499 1_555
Pr4 Se2 2.984517 1_555
Pr4 Se7 2.984579 1_545
Pr4 Se4 2.984603 1_655
Pr4 Se6 3.204060 1_555
Pr4 Se5 3.204077 1_655
Pr4 Se0 3.204095 1_545
Pr4 Se1 3.204113 1_555
Ag0 Se1 2.942211 1_444
Ag0 Se6 2.942271 1_454
Ag0 Se5 2.942275 1_555
Ag0 Se0 2.942315 1_545
