# generated using pymatgen
data_K4BaTa5O15
_symmetry_space_group_name_H-M   'P 1'
_cell_length_a   8.98629140
_cell_length_b   8.98629195
_cell_length_c   6.96225603
_cell_angle_alpha   75.00842909
_cell_angle_beta   75.00842783
_cell_angle_gamma   36.83931658
_symmetry_Int_Tables_number   1
_chemical_formula_structural   K4BaTa5O15
_chemical_formula_sum   'K4 Ba1 Ta5 O15'
_cell_volume   324.32456801
_cell_formula_units_Z   1
loop_
 _symmetry_equiv_pos_site_id
 _symmetry_equiv_pos_as_xyz
  1  'x, y, z'
loop_
 _atom_site_type_symbol
 _atom_site_label
 _atom_site_symmetry_multiplicity
 _atom_site_fract_x
 _atom_site_fract_y
 _atom_site_fract_z
 _atom_site_occupancy
  K  K0  1  0.60006813  0.60006813  0.59881596  1
  K  K1  1  0.20057314  0.20057314  0.20052898  1
  K  K2  1  0.79942686  0.79942686  0.79947102  1
  K  K3  1  0.39993187  0.39993187  0.40118404  1
  Ba  Ba0  1  0.00000000  0.00000000  0.00000000  1
  Ta  Ta0  1  0.20151394  0.20151394  0.69677331  1
  Ta  Ta1  1  0.79848606  0.79848606  0.30322669  1
  Ta  Ta2  1  0.39796033  0.39796033  0.89986414  1
  Ta  Ta3  1  0.00000000  0.00000000  0.50000000  1
  Ta  Ta4  1  0.60203967  0.60203967  0.10013586  1
  O  O0  1  0.39794316  0.90084873  0.90054959  1
  O  O1  1  0.00000000  0.50000000  0.50000000  1
  O  O2  1  0.60205684  0.09915127  0.09945041  1
  O  O3  1  0.19865106  0.70158460  0.70172442  1
  O  O4  1  0.80134894  0.29841540  0.29827558  1
  O  O5  1  0.29994929  0.29994929  0.79957067  1
  O  O6  1  0.90055399  0.90055399  0.39772114  1
  O  O7  1  0.50000000  0.50000000  0.00000000  1
  O  O8  1  0.09944601  0.09944601  0.60227886  1
  O  O9  1  0.70005071  0.70005071  0.20042933  1
  O  O10  1  0.50000000  0.00000000  0.50000000  1
  O  O11  1  0.09915127  0.60205684  0.09945041  1
  O  O12  1  0.70158460  0.19865106  0.70172442  1
  O  O13  1  0.29841540  0.80134894  0.29827558  1
  O  O14  1  0.90084873  0.39794316  0.90054959  1
loop_
_geom_bond_atom_site_label_1
_geom_bond_atom_site_label_2
_geom_bond_distance
_geom_bond_site_symmetry_2
K0 O9 2.832192 1_555
K0 O8 2.839537 1_565
K0 O8 2.839537 1_655
K0 O1 2.840081 1_655
K0 O10 2.840082 1_565
K0 O3 2.844567 1_555
K0 O12 2.844567 1_555
K0 O7 2.848575 1_556
K0 O14 2.850133 1_555
K0 O0 2.850133 1_555
K0 O13 2.850678 1_555
K0 O4 2.850678 1_555
K1 O10 2.833967 1_555
K1 O1 2.833967 1_555
K1 O9 2.839454 1_455
K1 O9 2.839454 1_545
K1 O5 2.843396 1_554
K1 O2 2.845612 1_555
K1 O11 2.845612 1_555
K1 O4 2.846791 1_455
K1 O13 2.846791 1_545
K1 O14 2.847736 1_454
K1 O0 2.847736 1_544
K1 O8 2.857822 1_555
K2 O10 2.833967 1_565
K2 O1 2.833967 1_655
K2 O5 2.839454 1_655
K2 O5 2.839454 1_565
K2 O9 2.843396 1_556
K2 O0 2.845612 1_555
K2 O14 2.845612 1_555
K2 O3 2.846791 1_655
K2 O12 2.846791 1_565
K2 O11 2.847736 1_656
K2 O2 2.847736 1_566
K2 O6 2.857822 1_555
K3 O5 2.832192 1_555
K3 O6 2.839537 1_545
K3 O6 2.839537 1_455
K3 O1 2.840081 1_555
K3 O10 2.840082 1_555
K3 O4 2.844567 1_555
K3 O13 2.844567 1_555
K3 O7 2.848575 1_555
K3 O11 2.850133 1_555
K3 O2 2.850133 1_555
K3 O12 2.850678 1_555
K3 O3 2.850678 1_555
Ba0 O6 2.825356 1_445
Ba0 O8 2.825356 1_554
Ba0 O13 2.826882 1_545
Ba0 O12 2.826882 1_454
Ba0 O4 2.826882 1_455
Ba0 O3 2.826882 1_544
Ba0 O0 2.828330 1_544
Ba0 O2 2.828330 1_455
Ba0 O14 2.828330 1_454
Ba0 O11 2.828330 1_545
Ba0 O7 2.839440 1_455
Ba0 O7 2.839440 1_545
O0 Ta4 2.002551 1_556
O0 Ta0 2.026660 1_565
O1 Ta0 1.989570 1_555
O1 Ta1 1.989570 1_455
O2 Ta2 2.002551 1_554
O2 Ta1 2.026660 1_545
O3 Ta3 2.009130 1_565
O3 Ta2 2.016017 1_555
O4 Ta3 2.009130 1_655
O4 Ta4 2.016017 1_555
O5 Ta2 1.979156 1_555
O5 Ta0 1.996160 1_555
O6 Ta3 2.010233 1_665
O6 Ta1 2.021469 1_555
O7 Ta4 2.043276 1_555
O7 Ta2 2.043276 1_554
O8 Ta3 2.010233 1_555
O8 Ta0 2.021469 1_555
O9 Ta4 1.979156 1_555
O9 Ta1 1.996160 1_555
O10 Ta0 1.989570 1_555
O10 Ta1 1.989570 1_545
O11 Ta2 2.002551 1_554
O11 Ta1 2.026659 1_455
O12 Ta3 2.009130 1_655
O12 Ta2 2.016017 1_555
O13 Ta3 2.009130 1_565
O13 Ta4 2.016017 1_555
O14 Ta4 2.002551 1_556
O14 Ta0 2.026659 1_655
