# generated using pymatgen
data_Y20TcIr3Pt8
_symmetry_space_group_name_H-M   'P 1'
_cell_length_a   11.01399800
_cell_length_b   11.01399800
_cell_length_c   6.41689362
_cell_angle_alpha   90.00000000
_cell_angle_beta   90.00000000
_cell_angle_gamma   90.00000000
_symmetry_Int_Tables_number   1
_chemical_formula_structural   Y20TcIr3Pt8
_chemical_formula_sum   'Y20 Tc1 Ir3 Pt8'
_cell_volume   778.42150574
_cell_formula_units_Z   1
loop_
 _symmetry_equiv_pos_site_id
 _symmetry_equiv_pos_as_xyz
  1  'x, y, z'
loop_
 _atom_site_type_symbol
 _atom_site_label
 _atom_site_symmetry_multiplicity
 _atom_site_fract_x
 _atom_site_fract_y
 _atom_site_fract_z
 _atom_site_occupancy
  Y  Y0  1  0.29597636  0.08732293  0.37645788  1
  Y  Y1  1  0.29786958  0.91321130  0.88056341  1
  Y  Y2  1  0.70213042  0.08678870  0.88056341  1
  Y  Y3  1  0.70402364  0.91267707  0.37645788  1
  Y  Y4  1  0.58678870  0.79786958  0.88056341  1
  Y  Y5  1  0.58732293  0.20402364  0.37645788  1
  Y  Y6  1  0.41267707  0.79597636  0.37645788  1
  Y  Y7  1  0.41321130  0.20213042  0.88056341  1
  Y  Y8  1  0.20481104  0.41098186  0.62141048  1
  Y  Y9  1  0.20467748  0.58719671  0.12102798  1
  Y  Y10  1  0.79532252  0.41280329  0.12102798  1
  Y  Y11  1  0.79518896  0.58901814  0.62141048  1
  Y  Y12  1  0.91280329  0.70467748  0.12102798  1
  Y  Y13  1  0.91098186  0.29518896  0.62141048  1
  Y  Y14  1  0.08901814  0.70481104  0.62141048  1
  Y  Y15  1  0.08719671  0.29532252  0.12102798  1
  Y  Y16  1  0.00000000  0.00000000  0.49767345  1
  Y  Y17  1  0.00000000  0.00000000  0.99766968  1
  Y  Y18  1  0.50000000  0.50000000  0.99766968  1
  Y  Y19  1  0.50000000  0.50000000  0.49767345  1
  Tc  Tc0  1  0.50000000  0.00000000  0.13771684  1
  Ir  Ir0  1  0.50000000  0.00000000  0.62898413  1
  Ir  Ir1  1  0.00000000  0.50000000  0.87582018  1
  Ir  Ir2  1  0.00000000  0.50000000  0.37761911  1
  Pt  Pt0  1  0.84757616  0.15455604  0.24888057  1
  Pt  Pt1  1  0.84801964  0.84613789  0.74895255  1
  Pt  Pt2  1  0.15198036  0.15386211  0.74895255  1
  Pt  Pt3  1  0.15242384  0.84544396  0.24888057  1
  Pt  Pt4  1  0.65386211  0.34801964  0.74895255  1
  Pt  Pt5  1  0.65455604  0.65242384  0.24888057  1
  Pt  Pt6  1  0.34544396  0.34757616  0.24888057  1
  Pt  Pt7  1  0.34613789  0.65198036  0.74895255  1
loop_
_geom_bond_atom_site_label_1
_geom_bond_atom_site_label_2
_geom_bond_distance
_geom_bond_site_symmetry_2
Y0 Y16 3.486669 1_555
Y1 Y17 3.498805 1_565
Y10 Y18 3.482653 1_554
Y11 Y19 3.487419 1_555
Y12 Y17 3.482653 1_664
Y13 Y16 3.487419 1_655
Y14 Y16 3.487419 1_565
Y15 Y17 3.482653 1_554
Y16 Y17 3.208423 1_555
Y16 Y17 3.208471 1_554
Y16 Y3 3.486669 1_445
Y17 Y2 3.498805 1_455
Y18 Y19 3.208423 1_555
Y18 Y19 3.208471 1_556
Y18 Y9 3.482653 1_556
Y18 Y4 3.498805 1_555
Y18 Y7 3.498805 1_555
Y19 Y6 3.486669 1_555
Y19 Y5 3.486669 1_555
Y19 Y8 3.487419 1_555
Tc0 Y5 2.884699 1_555
Tc0 Y3 2.884699 1_545
Tc0 Y0 2.884699 1_555
Tc0 Y6 2.884699 1_545
Tc0 Y2 2.931364 1_554
Tc0 Y7 2.931364 1_554
Tc0 Y4 2.931364 1_544
Tc0 Y1 2.931364 1_544
Ir0 Y2 2.911379 1_555
Ir0 Y7 2.911379 1_555
Ir0 Y4 2.911379 1_545
Ir0 Y1 2.911379 1_545
Ir0 Y5 2.932635 1_555
Ir0 Y3 2.932635 1_545
Ir0 Y0 2.932635 1_555
Ir0 Y6 2.932635 1_545
Ir0 Tc0 3.152410 1_555
Ir0 Tc0 3.264484 1_556
Ir1 Y9 2.912061 1_556
Ir1 Y12 2.912061 1_456
Ir1 Y15 2.912061 1_556
Ir1 Y10 2.912061 1_456
Ir1 Y14 2.952114 1_555
Ir1 Y11 2.952114 1_455
Ir1 Y8 2.952114 1_555
Ir1 Y13 2.952114 1_455
Ir1 Ir2 3.196903 1_555
Ir1 Ir2 3.219990 1_556
Ir2 Y11 2.914987 1_455
Ir2 Y14 2.914987 1_555
Ir2 Y8 2.914987 1_555
Ir2 Y13 2.914987 1_455
Ir2 Y9 2.952170 1_555
Ir2 Y12 2.952170 1_455
Ir2 Y15 2.952170 1_555
Ir2 Y10 2.952170 1_455
Pt0 Y16 2.874866 1_655
Pt0 Y17 2.883511 1_654
Pt0 Y13 2.932797 1_555
Pt0 Y2 2.951137 1_554
Pt0 Y10 3.015717 1_555
Pt0 Y5 3.030420 1_555
Pt0 Y15 3.168927 1_655
Pt0 Y3 3.204249 1_545
Pt1 Y17 2.867222 1_665
Pt1 Y16 2.876405 1_665
Pt1 Y12 2.938896 1_556
Pt1 Y3 2.960697 1_555
Pt1 Y11 3.004688 1_555
Pt1 Y4 3.045345 1_555
Pt1 Y14 3.184078 1_655
Pt1 Y2 3.212540 1_565
Pt2 Y17 2.867222 1_555
Pt2 Y16 2.876405 1_555
Pt2 Y15 2.938896 1_556
Pt2 Y0 2.960697 1_555
Pt2 Y8 3.004688 1_555
Pt2 Y7 3.045345 1_555
Pt2 Y13 3.184078 1_455
Pt2 Y1 3.212540 1_545
Pt3 Y16 2.874866 1_565
Pt3 Y17 2.883511 1_564
Pt3 Y14 2.932797 1_555
Pt3 Y1 2.951137 1_554
Pt3 Y9 3.015717 1_555
Pt3 Y6 3.030420 1_555
Pt3 Y12 3.168927 1_455
Pt3 Y0 3.204249 1_565
Pt4 Y18 2.867222 1_555
Pt4 Y19 2.876405 1_555
Pt4 Y10 2.938896 1_556
Pt4 Y5 2.960697 1_555
Pt4 Y13 3.004688 1_555
Pt4 Y2 3.045345 1_555
Pt4 Y11 3.184078 1_555
Pt4 Y7 3.212540 1_555
Pt5 Y19 2.874866 1_555
Pt5 Y18 2.883511 1_554
Pt5 Y11 2.932797 1_555
Pt5 Y4 2.951137 1_554
Pt5 Y12 3.015717 1_555
Pt5 Y3 3.030420 1_555
Pt5 Y10 3.168927 1_555
Pt5 Y6 3.204249 1_555
Pt6 Y19 2.874866 1_555
Pt6 Y18 2.883511 1_554
Pt6 Y8 2.932797 1_555
Pt6 Y7 2.951137 1_554
Pt6 Y15 3.015717 1_555
Pt6 Y0 3.030420 1_555
Pt6 Y9 3.168927 1_555
Pt6 Y5 3.204249 1_555
Pt7 Y18 2.867222 1_555
Pt7 Y19 2.876405 1_555
Pt7 Y9 2.938896 1_556
Pt7 Y6 2.960697 1_555
Pt7 Y14 3.004688 1_555
Pt7 Y1 3.045345 1_555
Pt7 Y8 3.184078 1_555
Pt7 Y4 3.212540 1_555
