# generated using pymatgen
data_ScHgIO6
_symmetry_space_group_name_H-M   'P 1'
_cell_length_a   5.34830170
_cell_length_b   5.34830084
_cell_length_c   4.82384814
_cell_angle_alpha   90.00000000
_cell_angle_beta   90.00000000
_cell_angle_gamma   119.99999936
_symmetry_Int_Tables_number   1
_chemical_formula_structural   ScHgIO6
_chemical_formula_sum   'Sc1 Hg1 I1 O6'
_cell_volume   119.49672091
_cell_formula_units_Z   1
loop_
 _symmetry_equiv_pos_site_id
 _symmetry_equiv_pos_as_xyz
  1  'x, y, z'
loop_
 _atom_site_type_symbol
 _atom_site_label
 _atom_site_symmetry_multiplicity
 _atom_site_fract_x
 _atom_site_fract_y
 _atom_site_fract_z
 _atom_site_occupancy
  Sc  Sc0  1  0.33333300  0.66666600  0.50000000  1
  Hg  Hg0  1  0.66666700  0.33333300  0.00000000  1
  I  I0  1  0.00000000  0.00000000  0.50000000  1
  O  O0  1  0.02057488  0.30214166  0.28245303  1
  O  O1  1  0.69785734  0.71843321  0.28245303  1
  O  O2  1  0.28156679  0.97942412  0.28245303  1
  O  O3  1  0.28156579  0.30214166  0.71754697  1
  O  O4  1  0.02057488  0.71843321  0.71754697  1
  O  O5  1  0.69785834  0.97942412  0.71754697  1
loop_
_geom_bond_atom_site_label_1
_geom_bond_atom_site_label_2
_geom_bond_distance
_geom_bond_site_symmetry_2
Hg0 O0 2.404732 1_655
Hg0 O4 2.404735 1_654
Hg0 O5 2.404737 1_544
Hg0 O2 2.404737 1_545
Hg0 O1 2.404739 1_555
Hg0 O3 2.404741 1_554
I0 O3 1.883302 1_555
I0 O5 1.883302 1_445
I0 O0 1.883304 1_555
I0 O4 1.883304 1_545
I0 O1 1.883307 1_445
I0 O2 1.883307 1_545
O0 Sc0 2.106903 1_555
O1 Sc0 2.106902 1_555
O2 Sc0 2.106903 1_555
O3 Sc0 2.106901 1_555
O4 Sc0 2.106906 1_555
O5 Sc0 2.106906 1_555
