# generated using pymatgen
data_Lu12In2Fe2Ru
_symmetry_space_group_name_H-M   'P 1'
_cell_length_a   8.16073146
_cell_length_b   8.16073184
_cell_length_c   8.16073187
_cell_angle_alpha   108.75036120
_cell_angle_beta   108.75036580
_cell_angle_gamma   110.92275545
_symmetry_Int_Tables_number   1
_chemical_formula_structural   Lu12In2Fe2Ru
_chemical_formula_sum   'Lu12 In2 Fe2 Ru1'
_cell_volume   418.17274804
_cell_formula_units_Z   1
loop_
 _symmetry_equiv_pos_site_id
 _symmetry_equiv_pos_as_xyz
  1  'x, y, z'
loop_
 _atom_site_type_symbol
 _atom_site_label
 _atom_site_symmetry_multiplicity
 _atom_site_fract_x
 _atom_site_fract_y
 _atom_site_fract_z
 _atom_site_occupancy
  Lu  Lu0  1  0.30903325  0.30903325  0.61806649  1
  Lu  Lu1  1  0.69096675  0.69096675  0.38193351  1
  Lu  Lu2  1  0.69096675  0.30903325  1.00000000  1
  Lu  Lu3  1  0.30903325  0.69096675  0.00000000  1
  Lu  Lu4  1  0.19057597  0.43041375  0.23983678  1
  Lu  Lu5  1  0.80942403  0.56958625  0.76016322  1
  Lu  Lu6  1  0.19057597  0.95073818  0.76016322  1
  Lu  Lu7  1  0.95073818  0.19057597  0.76016322  1
  Lu  Lu8  1  0.80942403  0.04926182  0.23983678  1
  Lu  Lu9  1  0.04926182  0.80942403  0.23983678  1
  Lu  Lu10  1  0.43041375  0.19057597  0.23983678  1
  Lu  Lu11  1  0.56958625  0.80942403  0.76016322  1
  In  In0  1  0.00000000  0.50000000  0.50000000  1
  In  In1  1  0.50000000  0.00000000  0.50000000  1
  Fe  Fe0  1  0.37820258  0.37820258  1.00000000  1
  Fe  Fe1  1  0.62179742  0.62179742  0.00000000  1
  Ru  Ru0  1  0.00000000  0.00000000  0.00000000  1
loop_
_geom_bond_atom_site_label_1
_geom_bond_atom_site_label_2
_geom_bond_distance
_geom_bond_site_symmetry_2
Lu4 Ru0 2.882510 1_555
Lu5 Ru0 2.882510 1_666
Lu6 Ru0 2.882505 1_566
Lu7 Ru0 2.882505 1_656
Lu8 Ru0 2.882505 1_655
Lu9 Ru0 2.882505 1_565
Lu10 Ru0 2.882510 1_555
Lu11 Ru0 2.882510 1_666
In0 Lu8 3.037654 1_455
In0 Lu6 3.037654 1_555
In0 Lu5 3.037659 1_455
In0 Lu4 3.037659 1_555
In0 Lu1 3.453614 1_455
In0 Lu0 3.453614 1_555
In0 Lu3 3.453614 1_556
In0 Lu2 3.453614 1_454
In0 Lu11 3.783623 1_555
In0 Lu10 3.783623 1_455
In0 Lu9 3.783630 1_555
In0 Lu7 3.783630 1_455
In1 Lu7 3.037654 1_555
In1 Lu9 3.037654 1_545
In1 Lu11 3.037659 1_545
In1 Lu10 3.037659 1_555
In1 Lu0 3.453614 1_555
In1 Lu1 3.453614 1_545
In1 Lu2 3.453614 1_555
In1 Lu3 3.453614 1_545
In1 Lu5 3.783623 1_555
In1 Lu4 3.783623 1_545
In1 Lu8 3.783630 1_555
In1 Lu6 3.783630 1_545
Fe0 Fe1 2.254140 1_556
Fe0 Lu2 2.803980 1_555
Fe0 Lu3 2.803980 1_556
Fe0 Lu0 2.803980 1_555
Fe0 Lu1 2.803981 1_556
Fe0 Lu10 2.865888 1_556
Fe0 Lu4 2.865888 1_556
Fe0 Lu7 2.865894 1_455
Fe0 Lu6 2.865894 1_545
Fe1 Lu3 2.803980 1_555
Fe1 Lu2 2.803980 1_554
Fe1 Lu1 2.803980 1_555
Fe1 Lu0 2.803981 1_554
Fe1 Lu11 2.865888 1_554
Fe1 Lu5 2.865888 1_554
Fe1 Lu9 2.865894 1_655
Fe1 Lu8 2.865894 1_565
