# generated using pymatgen
data_Cs3Rb3(Ru2Br9)2
_symmetry_space_group_name_H-M   'P 1'
_cell_length_a   7.54294266
_cell_length_b   7.54292945
_cell_length_c   18.42953426
_cell_angle_alpha   90.00000000
_cell_angle_beta   90.00000000
_cell_angle_gamma   120.00004958
_symmetry_Int_Tables_number   1
_chemical_formula_structural   Cs3Rb3(Ru2Br9)2
_chemical_formula_sum   'Cs3 Rb3 Ru4 Br18'
_cell_volume   908.08317037
_cell_formula_units_Z   1
loop_
 _symmetry_equiv_pos_site_id
 _symmetry_equiv_pos_as_xyz
  1  'x, y, z'
loop_
 _atom_site_type_symbol
 _atom_site_label
 _atom_site_symmetry_multiplicity
 _atom_site_fract_x
 _atom_site_fract_y
 _atom_site_fract_z
 _atom_site_occupancy
  Cs  Cs0  1  0.66666700  0.33333300  0.57033981  1
  Cs  Cs1  1  0.66666700  0.33333300  0.92934639  1
  Cs  Cs2  1  0.33333300  0.66666700  0.42935505  1
  Rb  Rb0  1  0.00000200  0.00000100  0.24891574  1
  Rb  Rb1  1  0.99999800  0.99999900  0.75123377  1
  Rb  Rb2  1  0.33333300  0.66666700  0.06462540  1
  Ru  Ru0  1  0.33333300  0.66666700  0.82514153  1
  Ru  Ru1  1  0.66666700  0.33333300  0.32299445  1
  Ru  Ru2  1  0.66666700  0.33333300  0.17533420  1
  Ru  Ru3  1  0.33333300  0.66666700  0.67738844  1
  Br  Br0  1  0.50399930  0.00799760  0.24908875  1
  Br  Br1  1  0.49591036  0.50408964  0.75127241  1
  Br  Br2  1  0.00818029  0.50409064  0.75127241  1
  Br  Br3  1  0.99200240  0.49600070  0.24908875  1
  Br  Br4  1  0.50399830  0.49600170  0.24908875  1
  Br  Br5  1  0.49590936  0.99181971  0.75127241  1
  Br  Br6  1  0.82335202  0.64670204  0.09636376  1
  Br  Br7  1  0.17665158  0.82334842  0.59843126  1
  Br  Br8  1  0.64669584  0.82334842  0.59843126  1
  Br  Br9  1  0.35329796  0.17664798  0.09636376  1
  Br  Br10  1  0.82335202  0.17664798  0.09636376  1
  Br  Br11  1  0.17701663  0.35403427  0.90463316  1
  Br  Br12  1  0.17701663  0.82298337  0.90463316  1
  Br  Br13  1  0.17665158  0.35330416  0.59843126  1
  Br  Br14  1  0.64596573  0.82298337  0.90463316  1
  Br  Br15  1  0.35306813  0.17653357  0.40198508  1
  Br  Br16  1  0.82346643  0.64693187  0.40198508  1
  Br  Br17  1  0.82346643  0.17653357  0.40198508  1
loop_
_geom_bond_atom_site_label_1
_geom_bond_atom_site_label_2
_geom_bond_distance
_geom_bond_site_symmetry_2
Br0 Ru2 2.522719 1_555
Br0 Ru1 2.524221 1_555
Br0 Rb0 3.771827 1_555
Br0 Rb0 3.771842 1_655
Br0 Cs2 4.001089 1_545
Br0 Rb2 4.065544 1_545
Br1 Ru0 2.522866 1_555
Br1 Ru3 2.523014 1_555
Br1 Rb1 3.771832 1_555
Br1 Rb1 3.771855 1_445
Br1 Cs1 3.968278 1_555
Br1 Cs0 4.011957 1_555
Br2 Ru0 2.522855 1_555
Br2 Ru3 2.523003 1_555
Br2 Rb1 3.771840 1_455
Br2 Rb1 3.771847 1_445
Br2 Cs1 3.968278 1_455
Br2 Cs0 4.011957 1_455
Br3 Ru2 2.522722 1_555
Br3 Ru1 2.524224 1_555
Br3 Rb0 3.771824 1_655
Br3 Rb0 3.771832 1_665
Br3 Cs2 4.001092 1_655
Br3 Rb2 4.065546 1_655
Br4 Ru2 2.522733 1_555
Br4 Ru1 2.524235 1_555
Br4 Rb0 3.771817 1_555
Br4 Rb0 3.771839 1_665
Br4 Cs2 4.001091 1_555
Br4 Rb2 4.065546 1_555
Br5 Ru0 2.522852 1_555
Br5 Ru3 2.523000 1_555
Br5 Rb1 3.771842 1_555
Br5 Rb1 3.771857 1_455
Br5 Cs1 3.968276 1_565
Br5 Cs0 4.011955 1_565
Br6 Ru2 2.511679 1_555
Br6 Rb0 3.637392 1_665
Br6 Cs1 3.696591 1_554
Br6 Rb2 3.818777 1_655
Br6 Rb2 3.818799 1_555
Br7 Ru3 2.511507 1_555
Br7 Rb1 3.640986 1_455
Br7 Cs2 3.728224 1_555
Br7 Cs0 3.809067 1_565
Br7 Cs0 3.809067 1_455
Br8 Ru3 2.511508 1_555
Br8 Rb1 3.640978 1_555
Br8 Cs2 3.728224 1_555
Br8 Cs0 3.809059 1_565
Br8 Cs0 3.809075 1_555
Br9 Ru2 2.511682 1_555
Br9 Rb0 3.637382 1_555
Br9 Cs1 3.696593 1_554
Br9 Rb2 3.818770 1_545
Br9 Rb2 3.818793 1_555
Br10 Ru2 2.511687 1_555
Br10 Rb0 3.637386 1_655
Br10 Cs1 3.696596 1_554
Br10 Rb2 3.818781 1_545
Br10 Rb2 3.818781 1_655
Br11 Ru0 2.513347 1_555
Br11 Rb2 3.586760 1_556
Br11 Rb1 3.652520 1_445
Br11 Cs1 3.801271 1_455
Br11 Cs1 3.801286 1_555
Br12 Ru0 2.513350 1_555
Br12 Rb2 3.586762 1_556
Br12 Rb1 3.652518 1_455
Br12 Cs1 3.801272 1_565
Br12 Cs1 3.801273 1_455
Br13 Ru3 2.511505 1_555
Br13 Rb1 3.640987 1_445
Br13 Cs2 3.728222 1_555
Br13 Cs0 3.809066 1_455
Br13 Cs0 3.809081 1_555
Br14 Ru0 2.513350 1_555
Br14 Rb2 3.586762 1_556
Br14 Rb1 3.652510 1_555
Br14 Cs1 3.801265 1_565
Br14 Cs1 3.801280 1_555
Br15 Ru1 2.513121 1_555
Br15 Rb0 3.643806 1_555
Br15 Cs0 3.717968 1_555
Br15 Cs2 3.807222 1_545
Br15 Cs2 3.807238 1_555
Br16 Ru1 2.513118 1_555
Br16 Rb0 3.643816 1_665
Br16 Cs0 3.717966 1_555
Br16 Cs2 3.807229 1_655
Br16 Cs2 3.807244 1_555
Br17 Ru1 2.513121 1_555
Br17 Rb0 3.643814 1_655
Br17 Cs0 3.717967 1_555
Br17 Cs2 3.807230 1_545
Br17 Cs2 3.807230 1_655
