# generated using pymatgen
data_Zr10Zn2(SnBi)3
_symmetry_space_group_name_H-M   'P 1'
_cell_length_a   8.75268285
_cell_length_b   8.75268256
_cell_length_c   5.88754502
_cell_angle_alpha   90.00000000
_cell_angle_beta   90.00000000
_cell_angle_gamma   120.00000482
_symmetry_Int_Tables_number   1
_chemical_formula_structural   Zr10Zn2(SnBi)3
_chemical_formula_sum   'Zr10 Zn2 Sn3 Bi3'
_cell_volume   390.61347580
_cell_formula_units_Z   1
loop_
 _symmetry_equiv_pos_site_id
 _symmetry_equiv_pos_as_xyz
  1  'x, y, z'
loop_
 _atom_site_type_symbol
 _atom_site_label
 _atom_site_symmetry_multiplicity
 _atom_site_fract_x
 _atom_site_fract_y
 _atom_site_fract_z
 _atom_site_occupancy
  Zr  Zr0  1  0.66666700  0.33333300  0.00463806  1
  Zr  Zr1  1  0.33333300  0.66666700  0.00463806  1
  Zr  Zr2  1  0.33333300  0.66666700  0.49536194  1
  Zr  Zr3  1  0.66666700  0.33333300  0.49536194  1
  Zr  Zr4  1  0.73742166  0.73742166  0.75000000  1
  Zr  Zr5  1  0.26257834  1.00000000  0.75000000  1
  Zr  Zr6  1  1.00000000  0.26257834  0.75000000  1
  Zr  Zr7  1  0.26840786  0.26840786  0.25000000  1
  Zr  Zr8  1  0.73159214  0.00000000  0.25000000  1
  Zr  Zr9  1  0.00000000  0.73159214  0.25000000  1
  Zn  Zn0  1  0.00000000  0.00000000  0.00806439  1
  Zn  Zn1  1  0.00000000  0.00000000  0.49193561  1
  Sn  Sn0  1  0.61726025  0.61726025  0.25000000  1
  Sn  Sn1  1  0.38273975  1.00000000  0.25000000  1
  Sn  Sn2  1  1.00000000  0.38273975  0.25000000  1
  Bi  Bi0  1  0.38816545  0.38816545  0.75000000  1
  Bi  Bi1  1  0.61183455  0.00000000  0.75000000  1
  Bi  Bi2  1  0.00000000  0.61183455  0.75000000  1
loop_
_geom_bond_atom_site_label_1
_geom_bond_atom_site_label_2
_geom_bond_distance
_geom_bond_site_symmetry_2
Zr0 Zr3 2.889159 1_555
Zr0 Zr3 2.998386 1_554
Zr1 Zr2 2.889159 1_555
Zr1 Zr2 2.998386 1_554
Zn0 Zr7 2.747379 1_555
Zn0 Zr9 2.747379 1_545
Zn0 Zr8 2.747379 1_455
Zn0 Zr4 2.755085 1_444
Zn0 Zr6 2.755085 1_454
Zn0 Zr5 2.755085 1_544
Zn0 Zn1 2.848814 1_555
Zn0 Zn1 3.038731 1_554
Zn1 Zr7 2.747379 1_555
Zn1 Zr9 2.747379 1_545
Zn1 Zr8 2.747379 1_455
Zn1 Zr4 2.755085 1_445
Zn1 Zr6 2.755085 1_455
Zn1 Zr5 2.755085 1_545
Sn0 Zr8 2.978513 1_565
Sn0 Zr9 2.978513 1_655
Sn0 Zr7 3.053394 1_555
Sn0 Zr3 3.086152 1_555
Sn0 Zr0 3.086152 1_555
Sn0 Zr2 3.086152 1_555
Sn0 Zr1 3.086152 1_555
Sn0 Zr4 3.126011 1_555
Sn0 Zr4 3.126011 1_554
Sn1 Zr9 2.978513 1_555
Sn1 Zr7 2.978513 1_565
Sn1 Zr8 3.053394 1_565
Sn1 Zr2 3.086144 1_555
Sn1 Zr1 3.086144 1_555
Sn1 Zr3 3.086147 1_565
Sn1 Zr0 3.086147 1_565
Sn1 Zr5 3.126011 1_555
Sn1 Zr5 3.126011 1_554
Sn2 Zr8 2.978513 1_555
Sn2 Zr7 2.978513 1_655
Sn2 Zr9 3.053394 1_655
Sn2 Zr3 3.086144 1_555
Sn2 Zr0 3.086144 1_555
Sn2 Zr2 3.086147 1_655
Sn2 Zr1 3.086147 1_655
Sn2 Zr6 3.126011 1_554
Sn2 Zr6 3.126011 1_555
Bi0 Zr5 3.002769 1_545
Bi0 Zr6 3.002769 1_455
Bi0 Zr4 3.056929 1_555
Bi0 Zr1 3.096753 1_556
Bi0 Zr2 3.096753 1_555
Bi0 Zr0 3.096753 1_556
Bi0 Zr3 3.096753 1_555
Bi0 Zr7 3.124823 1_555
Bi0 Zr7 3.124823 1_556
Bi1 Zr6 3.002769 1_555
Bi1 Zr4 3.002769 1_545
Bi1 Zr5 3.056929 1_545
Bi1 Zr0 3.096745 1_556
Bi1 Zr3 3.096745 1_555
Bi1 Zr1 3.096748 1_546
Bi1 Zr2 3.096748 1_545
Bi1 Zr8 3.124823 1_556
Bi1 Zr8 3.124823 1_555
Bi2 Zr5 3.002769 1_555
Bi2 Zr4 3.002769 1_455
Bi2 Zr6 3.056929 1_455
Bi2 Zr1 3.096745 1_556
Bi2 Zr2 3.096745 1_555
Bi2 Zr0 3.096748 1_456
Bi2 Zr3 3.096748 1_455
Bi2 Zr9 3.124823 1_556
Bi2 Zr9 3.124823 1_555
