# generated using pymatgen
data_CaLuGaSe4
_symmetry_space_group_name_H-M   'P 1'
_cell_length_a   6.54758812
_cell_length_b   8.23074756
_cell_length_c   14.39017155
_cell_angle_alpha   90.00000000
_cell_angle_beta   90.00000000
_cell_angle_gamma   90.00000000
_symmetry_Int_Tables_number   1
_chemical_formula_structural   CaLuGaSe4
_chemical_formula_sum   'Ca4 Lu4 Ga4 Se16'
_cell_volume   775.50857703
_cell_formula_units_Z   4
loop_
 _symmetry_equiv_pos_site_id
 _symmetry_equiv_pos_as_xyz
  1  'x, y, z'
loop_
 _atom_site_type_symbol
 _atom_site_label
 _atom_site_symmetry_multiplicity
 _atom_site_fract_x
 _atom_site_fract_y
 _atom_site_fract_z
 _atom_site_occupancy
  Ca  Ca0  1  0.49301724  0.50000000  0.23589064  1
  Ca  Ca1  1  0.99301824  0.00000000  0.26410936  1
  Ca  Ca2  1  0.00698376  0.50000000  0.73589064  1
  Ca  Ca3  1  0.50698276  0.00000000  0.76410936  1
  Lu  Lu0  1  0.00000000  0.25000000  0.00000000  1
  Lu  Lu1  1  0.00000000  0.75000100  0.00000000  1
  Lu  Lu2  1  0.50000100  0.25000000  0.50000000  1
  Lu  Lu3  1  0.50000100  0.75000100  0.50000000  1
  Ga  Ga0  1  0.40137924  0.00000000  0.08385895  1
  Ga  Ga1  1  0.90138224  0.50000000  0.41614105  1
  Ga  Ga2  1  0.09861976  0.00000000  0.58385895  1
  Ga  Ga3  1  0.59861976  0.50000000  0.91614205  1
  Se  Se0  1  0.75764255  0.50000000  0.07023660  1
  Se  Se1  1  0.76651596  0.00000000  0.08429193  1
  Se  Se2  1  0.24770297  0.23322784  0.15773197  1
  Se  Se3  1  0.24770297  0.76677316  0.15773197  1
  Se  Se4  1  0.74770397  0.26677116  0.34226703  1
  Se  Se5  1  0.74770397  0.73322884  0.34226703  1
  Se  Se6  1  0.26651696  0.50000000  0.41570807  1
  Se  Se7  1  0.25764155  0.00000000  0.42976340  1
  Se  Se8  1  0.74235845  0.50000000  0.57023660  1
  Se  Se9  1  0.73348504  0.00000000  0.58429193  1
  Se  Se10  1  0.25229803  0.23322784  0.65773197  1
  Se  Se11  1  0.25229803  0.76677316  0.65773197  1
  Se  Se12  1  0.75229703  0.26677116  0.84226703  1
  Se  Se13  1  0.75229703  0.73322884  0.84226703  1
  Se  Se14  1  0.23348404  0.50000000  0.91570807  1
  Se  Se15  1  0.24235945  0.00000000  0.92976340  1
loop_
_geom_bond_atom_site_label_1
_geom_bond_atom_site_label_2
_geom_bond_distance
_geom_bond_site_symmetry_2
Ca0 Se2 2.943836 1_555
Ca0 Se3 2.943842 1_555
Ca0 Se0 2.946957 1_555
Ca0 Se5 2.968022 1_555
Ca0 Se4 2.968022 1_555
Ca0 Se6 2.982461 1_555
Ca1 Se4 2.943824 1_555
Ca1 Se5 2.943824 1_545
Ca1 Se7 2.946949 1_655
Ca1 Se3 2.968011 1_645
Ca1 Se2 2.968017 1_655
Ca1 Se1 2.982467 1_555
Ca2 Se10 2.943836 1_555
Ca2 Se11 2.943842 1_555
Ca2 Se8 2.946957 1_455
Ca2 Se13 2.968022 1_455
Ca2 Se12 2.968022 1_455
Ca2 Se14 2.982461 1_555
Ca3 Se12 2.943824 1_555
Ca3 Se13 2.943824 1_545
Ca3 Se15 2.946949 1_555
Ca3 Se11 2.968011 1_545
Ca3 Se10 2.968017 1_555
Ca3 Se9 2.982467 1_555
Lu0 Se0 2.788142 1_455
Lu0 Se15 2.788150 1_554
Lu0 Se2 2.793103 1_555
Lu0 Se12 2.793114 1_454
Lu0 Se1 2.835927 1_455
Lu0 Se14 2.835927 1_554
Lu1 Se15 2.788144 1_564
Lu1 Se0 2.788148 1_455
Lu1 Se3 2.793103 1_555
Lu1 Se13 2.793115 1_454
Lu1 Se1 2.835921 1_465
Lu1 Se14 2.835933 1_554
Lu2 Se8 2.788142 1_555
Lu2 Se7 2.788150 1_555
Lu2 Se10 2.793103 1_555
Lu2 Se4 2.793114 1_555
Lu2 Se6 2.835927 1_555
Lu2 Se9 2.835927 1_555
Lu3 Se7 2.788144 1_565
Lu3 Se8 2.788148 1_555
Lu3 Se11 2.793103 1_555
Lu3 Se5 2.793115 1_555
Lu3 Se9 2.835921 1_565
Lu3 Se6 2.835933 1_555
Ga0 Se1 2.390773 1_555
Ga0 Se3 2.414023 1_545
Ga0 Se2 2.414029 1_555
Ga0 Se15 2.449740 1_554
Ga1 Se6 2.390760 1_655
Ga1 Se5 2.414048 1_555
Ga1 Se4 2.414048 1_555
Ga1 Se8 2.449751 1_555
Ga2 Se9 2.390760 1_455
Ga2 Se11 2.414028 1_545
Ga2 Se10 2.414035 1_555
Ga2 Se7 2.449745 1_555
Ga3 Se14 2.390766 1_555
Ga3 Se13 2.414051 1_555
Ga3 Se12 2.414051 1_555
Ga3 Se0 2.449735 1_556
