# generated using pymatgen
data_Ta2SiH
_symmetry_space_group_name_H-M   'P 1'
_cell_length_a   5.09002173
_cell_length_b   5.09002204
_cell_length_c   5.09002212
_cell_angle_alpha   105.13901811
_cell_angle_beta   105.13902088
_cell_angle_gamma   118.53373877
_symmetry_Int_Tables_number   1
_chemical_formula_structural   Ta2SiH
_chemical_formula_sum   'Ta4 Si2 H2'
_cell_volume   99.58481882
_cell_formula_units_Z   2
loop_
 _symmetry_equiv_pos_site_id
 _symmetry_equiv_pos_as_xyz
  1  'x, y, z'
loop_
 _atom_site_type_symbol
 _atom_site_label
 _atom_site_symmetry_multiplicity
 _atom_site_fract_x
 _atom_site_fract_y
 _atom_site_fract_z
 _atom_site_occupancy
  Ta  Ta0  1  0.16744591  0.66744591  0.83489282  1
  Ta  Ta1  1  0.83255409  0.33255409  0.16510718  1
  Ta  Ta2  1  0.33255409  0.16744591  0.50000000  1
  Ta  Ta3  1  0.66744591  0.83255409  0.50000000  1
  Si  Si0  1  0.25000000  0.25000000  0.00000000  1
  Si  Si1  1  0.75000000  0.75000000  0.00000000  1
  H  H0  1  0.75000000  0.25000000  0.50000000  1
  H  H1  1  0.25000000  0.75000000  0.50000000  1
loop_
_geom_bond_atom_site_label_1
_geom_bond_atom_site_label_2
_geom_bond_distance
_geom_bond_site_symmetry_2
Si0 Si1 2.601205 1_445
Si0 Si1 2.601205 1_555
Si0 Ta1 2.645542 1_455
Si0 Ta0 2.645542 1_554
Si0 Ta3 2.645544 1_444
Si0 Ta3 2.645545 1_555
Si0 Ta1 2.645545 1_555
Si0 Ta2 2.645545 1_555
Si0 Ta2 2.645545 1_554
Si0 Ta0 2.645545 1_544
Si1 Ta0 2.645542 1_654
Si1 Ta1 2.645542 1_555
Si1 Ta2 2.645544 1_665
Si1 Ta2 2.645545 1_554
Si1 Ta0 2.645545 1_554
Si1 Ta3 2.645545 1_554
Si1 Ta3 2.645545 1_555
Si1 Ta1 2.645545 1_565
H0 Ta2 1.959183 1_555
H0 Ta3 1.959183 1_545
H0 Ta0 1.959184 1_655
H0 Ta1 1.959188 1_555
H1 Ta3 1.959183 1_555
H1 Ta2 1.959183 1_565
H1 Ta1 1.959184 1_455
H1 Ta0 1.959188 1_555
