# generated using pymatgen
data_Ta7Ti2NbN12
_symmetry_space_group_name_H-M   'P 1'
_cell_length_a   5.17919421
_cell_length_b   5.18893672
_cell_length_c   10.28354910
_cell_angle_alpha   90.03893754
_cell_angle_beta   90.00000000
_cell_angle_gamma   119.93792297
_symmetry_Int_Tables_number   1
_chemical_formula_structural   Ta7Ti2NbN12
_chemical_formula_sum   'Ta7 Ti2 Nb1 N12'
_cell_volume   239.48891642
_cell_formula_units_Z   1
loop_
 _symmetry_equiv_pos_site_id
 _symmetry_equiv_pos_as_xyz
  1  'x, y, z'
loop_
 _atom_site_type_symbol
 _atom_site_label
 _atom_site_symmetry_multiplicity
 _atom_site_fract_x
 _atom_site_fract_y
 _atom_site_fract_z
 _atom_site_occupancy
  Ta  Ta0  1  0.66514664  0.33147735  0.50008285  1
  Ta  Ta1  1  0.33366830  0.66852265  0.99991715  1
  Ta  Ta2  1  0.67733117  0.00000000  0.75000000  1
  Ta  Ta3  1  0.67796153  0.67761448  0.25004455  1
  Ta  Ta4  1  0.00034805  0.32238552  0.24995545  1
  Ta  Ta5  1  0.99957834  0.67726226  0.74999422  1
  Ta  Ta6  1  0.32231708  0.32273774  0.75000578  1
  Ti  Ti0  1  0.33337863  0.66745050  0.50030913  1
  Ti  Ti1  1  0.66593012  0.33254950  0.99969087  1
  Nb  Nb0  1  0.32369984  1.00000000  0.25000000  1
  N  N0  1  0.34534628  0.35109523  0.38034148  1
  N  N1  1  0.65980708  0.99852742  0.38107354  1
  N  N2  1  0.99726090  0.65039188  0.38023094  1
  N  N3  1  0.99840366  0.34483921  0.87960493  1
  N  N4  1  0.66127966  0.00147258  0.11892646  1
  N  N5  1  0.65527445  0.65407123  0.87961546  1
  N  N6  1  0.34463254  0.00188256  0.87983694  1
  N  N7  1  0.65356245  0.65516079  0.62039507  1
  N  N8  1  0.00120222  0.34592877  0.62038454  1
  N  N9  1  0.99425105  0.64890477  0.11965852  1
  N  N10  1  0.34274899  0.99811744  0.62016306  1
  N  N11  1  0.34687002  0.34960812  0.11976906  1
loop_
_geom_bond_atom_site_label_1
_geom_bond_atom_site_label_2
_geom_bond_distance
_geom_bond_site_symmetry_2
N0 Ti0 2.078298 1_555
N0 Ta0 2.106761 1_555
N0 Ta3 2.173351 1_555
N0 Ta4 2.178707 1_555
N0 Nb0 2.218329 1_545
N1 Ti0 2.101654 1_555
N1 Ta0 2.105416 1_565
N1 Ta3 2.179576 1_555
N1 Ta4 2.190332 1_665
N1 Nb0 2.204642 1_555
N2 Ta0 2.092338 1_555
N2 Ti0 2.099795 1_655
N2 Ta4 2.171617 1_655
N2 Ta3 2.186427 1_555
N2 Nb0 2.210184 1_655
N3 Ti1 2.093960 1_555
N3 Ta1 2.110224 1_655
N3 Ta5 2.178200 1_555
N3 Ta2 2.184076 1_555
N3 Ta6 2.189874 1_655
N4 Ti1 2.101650 1_554
N4 Ta1 2.105418 1_544
N4 Ta4 2.179578 1_655
N4 Ta3 2.190330 1_545
N4 Nb0 2.204642 1_545
N5 Ti1 2.099022 1_555
N5 Ta1 2.105963 1_555
N5 Ta6 2.178016 1_555
N5 Ta5 2.181095 1_555
N5 Ta2 2.193241 1_565
N6 Ti1 2.092724 1_555
N6 Ta1 2.103590 1_545
N6 Ta6 2.182403 1_555
N6 Ta2 2.183737 1_555
N6 Ta5 2.192320 1_445
N7 Ti0 2.093960 1_555
N7 Ta0 2.110231 1_555
N7 Ta6 2.178193 1_555
N7 Ta2 2.184073 1_565
N7 Ta5 2.189878 1_555
N8 Ti0 2.099019 1_555
N8 Ta0 2.105954 1_455
N8 Ta5 2.178016 1_455
N8 Ta6 2.181104 1_555
N8 Ta2 2.193239 1_455
N9 Ti1 2.078294 1_554
N9 Ta1 2.106757 1_654
N9 Ta4 2.173354 1_655
N9 Ta3 2.178711 1_555
N9 Nb0 2.218329 1_655
N10 Ti0 2.092722 1_555
N10 Ta0 2.103594 1_565
N10 Ta5 2.182403 1_455
N10 Ta2 2.183741 1_565
N10 Ta6 2.192316 1_565
N11 Ta1 2.092343 1_554
N11 Ti1 2.099800 1_554
N11 Ta3 2.171612 1_555
N11 Ta4 2.186427 1_555
N11 Nb0 2.210183 1_545
