# generated using pymatgen
data_Li2Zr6BCl15
_symmetry_space_group_name_H-M   'P 1'
_cell_length_a   8.85675702
_cell_length_b   8.85675748
_cell_length_c   8.85675743
_cell_angle_alpha   108.68170383
_cell_angle_beta   108.68170484
_cell_angle_gamma   111.06206022
_symmetry_Int_Tables_number   1
_chemical_formula_structural   Li2Zr6BCl15
_chemical_formula_sum   'Li2 Zr6 B1 Cl15'
_cell_volume   534.50329477
_cell_formula_units_Z   1
loop_
 _symmetry_equiv_pos_site_id
 _symmetry_equiv_pos_as_xyz
  1  'x, y, z'
loop_
 _atom_site_type_symbol
 _atom_site_label
 _atom_site_symmetry_multiplicity
 _atom_site_fract_x
 _atom_site_fract_y
 _atom_site_fract_z
 _atom_site_occupancy
  Li  Li0  1  0.25000000  0.75000000  0.50000000  1
  Li  Li1  1  0.75000000  0.25000000  0.50000000  1
  Zr  Zr0  1  0.76731397  0.76731397  0.00000000  1
  Zr  Zr1  1  1.00000000  0.22161912  0.22161912  1
  Zr  Zr2  1  0.22161912  1.00000000  0.22161912  1
  Zr  Zr3  1  0.23268603  0.23268603  1.00000000  1
  Zr  Zr4  1  0.00000000  0.77838088  0.77838088  1
  Zr  Zr5  1  0.77838088  0.00000000  0.77838088  1
  B  B0  1  0.00000000  0.00000000  0.00000000  1
  Cl  Cl0  1  0.50000000  0.50000000  0.00000000  1
  Cl  Cl1  1  0.00000000  0.50000000  0.50000000  1
  Cl  Cl2  1  0.50000000  0.00000000  0.50000000  1
  Cl  Cl3  1  0.24437795  0.24437795  0.48875591  1
  Cl  Cl4  1  0.99532322  0.74724720  0.24807602  1
  Cl  Cl5  1  0.74724720  0.99532322  0.24807602  1
  Cl  Cl6  1  0.24437795  0.75562205  0.00000000  1
  Cl  Cl7  1  0.50082882  0.25275280  0.24807602  1
  Cl  Cl8  1  0.25275280  0.00467678  0.75192398  1
  Cl  Cl9  1  0.75562205  0.24437795  1.00000000  1
  Cl  Cl10  1  0.00467678  0.25275280  0.75192398  1
  Cl  Cl11  1  0.25275280  0.50082882  0.24807602  1
  Cl  Cl12  1  0.75562205  0.75562205  0.51124409  1
  Cl  Cl13  1  0.49917118  0.74724720  0.75192398  1
  Cl  Cl14  1  0.74724720  0.49917118  0.75192398  1
loop_
_geom_bond_atom_site_label_1
_geom_bond_atom_site_label_2
_geom_bond_distance
_geom_bond_site_symmetry_2
B0 Zr2 2.288507 1_545
B0 Zr5 2.288507 1_454
B0 Zr4 2.288507 1_544
B0 Zr1 2.288507 1_455
B0 Zr3 2.332709 1_554
B0 Zr0 2.332709 1_445
Cl0 Zr0 2.679859 1_555
Cl0 Zr3 2.679859 1_554
Cl1 Li1 2.506284 1_455
Cl1 Li0 2.506284 1_555
Cl1 Zr1 2.874646 1_455
Cl1 Zr4 2.874646 1_555
Cl2 Li0 2.506284 1_545
Cl2 Li1 2.506284 1_555
Cl2 Zr5 2.874646 1_555
Cl2 Zr2 2.874646 1_545
Cl3 Zr1 2.534441 1_455
Cl3 Zr2 2.534442 1_545
Cl4 Zr2 2.548567 1_655
Cl4 Zr0 2.569596 1_555
Cl4 Li0 2.601591 1_655
Cl5 Zr1 2.548567 1_565
Cl5 Zr0 2.569596 1_555
Cl5 Li1 2.601591 1_565
Cl6 Zr4 2.534441 1_554
Cl6 Zr2 2.534442 1_555
Cl7 Zr2 2.548567 1_545
Cl7 Zr3 2.569596 1_554
Cl7 Li1 2.601591 1_555
Cl8 Zr4 2.548567 1_545
Cl8 Zr3 2.569596 1_555
Cl8 Li0 2.601591 1_545
Cl9 Zr1 2.534441 1_556
Cl9 Zr5 2.534442 1_555
Cl10 Zr5 2.548567 1_455
Cl10 Zr3 2.569596 1_555
Cl10 Li1 2.601591 1_455
Cl11 Zr1 2.548567 1_455
Cl11 Zr3 2.569596 1_554
Cl11 Li0 2.601591 1_555
Cl12 Zr4 2.534441 1_655
Cl12 Zr5 2.534442 1_565
Cl13 Zr5 2.548567 1_565
Cl13 Zr0 2.569596 1_556
Cl13 Li0 2.601591 1_555
Cl14 Zr4 2.548567 1_655
Cl14 Zr0 2.569596 1_556
Cl14 Li1 2.601591 1_555
