# generated using pymatgen
data_Sc12Co4RePb
_symmetry_space_group_name_H-M   'P 1'
_cell_length_a   7.73348779
_cell_length_b   7.73348743
_cell_length_c   7.73348721
_cell_angle_alpha   111.71774163
_cell_angle_beta   110.52907416
_cell_angle_gamma   106.21741210
_symmetry_Int_Tables_number   1
_chemical_formula_structural   Sc12Co4RePb
_chemical_formula_sum   'Sc12 Co4 Re1 Pb1'
_cell_volume   355.14889873
_cell_formula_units_Z   1
loop_
 _symmetry_equiv_pos_site_id
 _symmetry_equiv_pos_as_xyz
  1  'x, y, z'
loop_
 _atom_site_type_symbol
 _atom_site_label
 _atom_site_symmetry_multiplicity
 _atom_site_fract_x
 _atom_site_fract_y
 _atom_site_fract_z
 _atom_site_occupancy
  Sc  Sc0  1  0.42588583  0.22456995  0.20131588  1
  Sc  Sc1  1  0.57411417  0.77543005  0.79868412  1
  Sc  Sc2  1  0.02325308  0.22456995  0.79868412  1
  Sc  Sc3  1  0.97674692  0.77543005  0.20131588  1
  Sc  Sc4  1  0.30789211  0.61021260  0.30232049  1
  Sc  Sc5  1  0.69210789  0.38978740  0.69767951  1
  Sc  Sc6  1  0.30789211  0.00556961  0.69767951  1
  Sc  Sc7  1  0.69210789  0.99443039  0.30232049  1
  Sc  Sc8  1  0.18389904  0.27335567  0.45725571  1
  Sc  Sc9  1  0.81610096  0.72664333  0.54274429  1
  Sc  Sc10  1  0.18389904  0.72664333  0.91054336  1
  Sc  Sc11  1  0.81610096  0.27335567  0.08945664  1
  Co  Co0  1  0.37412890  1.00000000  0.37412890  1
  Co  Co1  1  0.62587110  0.00000000  0.62587110  1
  Co  Co2  1  0.11550922  0.61550922  0.50000000  1
  Co  Co3  1  0.88449078  0.38449078  0.50000000  1
  Re  Re0  1  0.00000000  0.00000000  0.00000000  1
  Pb  Pb0  1  0.50000000  0.50000000  0.00000000  1
loop_
_geom_bond_atom_site_label_1
_geom_bond_atom_site_label_2
_geom_bond_distance
_geom_bond_site_symmetry_2
Co0 Co1 2.218579 1_565
Co0 Sc3 2.582061 1_455
Co0 Sc0 2.582068 1_565
Co0 Sc7 2.712305 1_555
Co0 Sc5 2.712308 1_565
Co0 Sc4 2.712308 1_555
Co0 Sc6 2.712312 1_565
Co0 Sc10 2.905369 1_554
Co0 Sc8 2.905369 1_565
Co1 Sc2 2.582061 1_655
Co1 Sc1 2.582068 1_545
Co1 Sc6 2.712305 1_555
Co1 Sc4 2.712308 1_545
Co1 Sc5 2.712308 1_555
Co1 Sc7 2.712312 1_545
Co1 Sc11 2.905368 1_556
Co1 Sc9 2.905375 1_545
Co2 Co3 2.144961 1_455
Co2 Sc6 2.476922 1_565
Co2 Sc4 2.476935 1_555
Co2 Sc9 2.765407 1_455
Co2 Sc11 2.765413 1_455
Co2 Sc10 2.765415 1_555
Co2 Sc8 2.765415 1_555
Co2 Sc3 3.022182 1_455
Co2 Sc1 3.022184 1_555
Co3 Sc7 2.476922 1_545
Co3 Sc5 2.476935 1_555
Co3 Sc9 2.765407 1_555
Co3 Sc10 2.765411 1_655
Co3 Sc8 2.765411 1_655
Co3 Sc11 2.765413 1_555
Co3 Sc2 3.022182 1_655
Co3 Sc0 3.022184 1_555
Re0 Sc3 2.737753 1_445
Re0 Sc2 2.737753 1_554
Re0 Sc0 2.737754 1_555
Re0 Sc1 2.737754 1_444
Re0 Sc11 2.873535 1_455
Re0 Sc8 2.873541 1_555
Re0 Sc10 2.873541 1_544
Re0 Sc9 2.873542 1_444
Pb0 Sc0 3.112485 1_555
Pb0 Sc1 3.112485 1_554
Pb0 Sc3 3.112491 1_555
Pb0 Sc2 3.112491 1_554
Pb0 Sc4 3.173101 1_555
Pb0 Sc5 3.173101 1_554
Pb0 Sc6 3.173114 1_554
Pb0 Sc7 3.173114 1_555
Pb0 Sc8 3.410445 1_554
Pb0 Sc10 3.410445 1_554
Pb0 Sc9 3.410446 1_555
Pb0 Sc11 3.410451 1_555
