# generated using pymatgen
data_Nb9Ge2B4W
_symmetry_space_group_name_H-M   'P 1'
_cell_length_a   7.34893648
_cell_length_b   7.34893641
_cell_length_c   7.34893694
_cell_angle_alpha   129.52452181
_cell_angle_beta   129.52452374
_cell_angle_gamma   74.16804261
_symmetry_Int_Tables_number   1
_chemical_formula_structural   Nb9Ge2B4W
_chemical_formula_sum   'Nb9 Ge2 B4 W1'
_cell_volume   230.24239023
_cell_formula_units_Z   1
loop_
 _symmetry_equiv_pos_site_id
 _symmetry_equiv_pos_as_xyz
  1  'x, y, z'
loop_
 _atom_site_type_symbol
 _atom_site_label
 _atom_site_symmetry_multiplicity
 _atom_site_fract_x
 _atom_site_fract_y
 _atom_site_fract_z
 _atom_site_occupancy
  Nb  Nb0  1  0.52910145  0.69462591  0.49717210  1
  Nb  Nb1  1  0.19745280  0.03192934  0.50282790  1
  Nb  Nb2  1  0.03192934  0.52910145  0.83447654  1
  Nb  Nb3  1  0.69462591  0.19745280  0.16552346  1
  Nb  Nb4  1  0.47089855  0.30537409  0.50282790  1
  Nb  Nb5  1  0.80254720  0.96807066  0.49717210  1
  Nb  Nb6  1  0.96807066  0.47089855  0.16552346  1
  Nb  Nb7  1  0.30537409  0.80254720  0.83447654  1
  Nb  Nb8  1  0.00000000  0.00000000  0.00000000  1
  Ge  Ge0  1  0.24843159  0.24843159  0.00000000  1
  Ge  Ge1  1  0.75156841  0.75156841  1.00000000  1
  B  B0  1  0.88106958  0.61584110  0.49690968  1
  B  B1  1  0.11893042  0.38415890  0.50309032  1
  B  B2  1  0.38415890  0.88106958  0.26522648  1
  B  B3  1  0.61584110  0.11893042  0.73477352  1
  W  W0  1  0.50000000  0.50000000  0.00000000  1
loop_
_geom_bond_atom_site_label_1
_geom_bond_atom_site_label_2
_geom_bond_distance
_geom_bond_site_symmetry_2
Nb0 W0 2.821647 1_555
Nb1 W0 2.821649 1_556
Nb2 W0 2.821649 1_556
Nb3 W0 2.821649 1_555
Nb4 W0 2.821647 1_556
Nb5 W0 2.821649 1_555
Nb6 W0 2.821649 1_555
Nb7 W0 2.821649 1_556
Ge0 Nb2 2.684223 1_554
Ge0 Nb1 2.684223 1_554
Ge0 Nb0 2.684227 1_555
Ge0 Nb3 2.684229 1_555
Ge0 Nb7 2.686709 1_544
Ge0 Nb6 2.686710 1_455
Ge0 Nb5 2.686710 1_444
Ge0 Nb4 2.686714 1_555
Ge0 Nb8 2.912925 1_555
Ge0 W0 2.949705 1_555
Ge1 Nb6 2.684223 1_556
Ge1 Nb5 2.684223 1_556
Ge1 Nb4 2.684227 1_555
Ge1 Nb7 2.684229 1_555
Ge1 Nb3 2.686709 1_566
Ge1 Nb2 2.686710 1_655
Ge1 Nb1 2.686710 1_666
Ge1 Nb0 2.686714 1_555
Ge1 Nb8 2.912925 1_666
Ge1 W0 2.949705 1_556
B0 B1 2.080867 1_655
B0 Nb6 2.404736 1_555
B0 Nb3 2.404742 1_555
B0 Nb7 2.432296 1_655
B0 Nb2 2.432310 1_655
B0 Nb5 2.492676 1_555
B0 Nb0 2.492683 1_555
B0 W0 2.495990 1_555
B0 Nb8 2.520185 1_666
B1 Nb2 2.404736 1_555
B1 Nb7 2.404742 1_555
B1 Nb3 2.432296 1_455
B1 Nb6 2.432310 1_455
B1 Nb1 2.492676 1_555
B1 Nb4 2.492683 1_555
B1 W0 2.495990 1_556
B1 Nb8 2.520185 1_555
B2 B3 2.080885 1_565
B2 Nb5 2.404739 1_555
B2 Nb0 2.404748 1_555
B2 Nb4 2.432292 1_565
B2 Nb1 2.432315 1_565
B2 Nb7 2.492662 1_554
B2 Nb2 2.492681 1_554
B2 W0 2.495989 1_555
B2 Nb8 2.520176 1_565
B3 Nb1 2.404739 1_555
B3 Nb4 2.404748 1_555
B3 Nb0 2.432292 1_545
B3 Nb5 2.432315 1_545
B3 Nb3 2.492662 1_556
B3 Nb6 2.492681 1_556
B3 W0 2.495989 1_556
B3 Nb8 2.520176 1_656
