# generated using pymatgen
data_Zr6In6PdPt5
_symmetry_space_group_name_H-M   'P 1'
_cell_length_a   7.47516419
_cell_length_b   7.47516414
_cell_length_c   7.24800033
_cell_angle_alpha   90.00000000
_cell_angle_beta   90.00000000
_cell_angle_gamma   119.99999155
_symmetry_Int_Tables_number   1
_chemical_formula_structural   Zr6In6PdPt5
_chemical_formula_sum   'Zr6 In6 Pd1 Pt5'
_cell_volume   350.74407462
_cell_formula_units_Z   1
loop_
 _symmetry_equiv_pos_site_id
 _symmetry_equiv_pos_as_xyz
  1  'x, y, z'
loop_
 _atom_site_type_symbol
 _atom_site_label
 _atom_site_symmetry_multiplicity
 _atom_site_fract_x
 _atom_site_fract_y
 _atom_site_fract_z
 _atom_site_occupancy
  Zr  Zr0  1  0.39487337  0.41709221  0.75000000  1
  Zr  Zr1  1  0.02221784  0.60512663  0.75000000  1
  Zr  Zr2  1  0.58290779  0.97778216  0.75000000  1
  Zr  Zr3  1  0.61163908  0.01954473  0.25000000  1
  Zr  Zr4  1  0.98045527  0.59209436  0.25000000  1
  Zr  Zr5  1  0.40790564  0.38836092  0.25000000  1
  In  In0  1  0.26782489  0.99959275  0.99788482  1
  In  In1  1  0.73176686  0.73217511  0.99788482  1
  In  In2  1  0.00040725  0.26823314  0.99788482  1
  In  In3  1  0.73176686  0.73217511  0.50211518  1
  In  In4  1  0.26782489  0.99959275  0.50211518  1
  In  In5  1  0.00040725  0.26823314  0.50211518  1
  Pd  Pd0  1  0.00000000  0.00000000  0.75000000  1
  Pt  Pt0  1  0.66666700  0.33333300  0.96584821  1
  Pt  Pt1  1  0.66666700  0.33333300  0.53415179  1
  Pt  Pt2  1  0.33333300  0.66666700  0.46034756  1
  Pt  Pt3  1  0.33333300  0.66666700  0.03965244  1
  Pt  Pt4  1  0.00000000  0.00000000  0.25000000  1
loop_
_geom_bond_atom_site_label_1
_geom_bond_atom_site_label_2
_geom_bond_distance
_geom_bond_site_symmetry_2
In0 Pd0 2.691146 1_565
In0 Pt4 2.711713 1_566
In0 Pt0 2.780046 1_565
In0 Pt3 2.782733 1_556
In0 Zr2 3.030846 1_555
In0 Zr3 3.095694 1_566
In0 Zr5 3.136559 1_566
In0 Zr1 3.143231 1_555
In0 Zr4 3.269401 1_456
In0 Zr0 3.302411 1_565
In1 Pd0 2.691149 1_665
In1 Pt4 2.711716 1_666
In1 Pt0 2.780051 1_555
In1 Pt3 2.782733 1_556
In1 Zr0 3.030846 1_555
In1 Zr5 3.095691 1_556
In1 Zr4 3.136565 1_556
In1 Zr2 3.143230 1_555
In1 Zr3 3.269396 1_566
In1 Zr1 3.302411 1_655
In2 Pd0 2.691152 1_555
In2 Pt4 2.711718 1_556
In2 Pt0 2.780037 1_455
In2 Pt3 2.782733 1_556
In2 Zr1 3.030846 1_555
In2 Zr4 3.095687 1_456
In2 Zr3 3.136560 1_456
In2 Zr0 3.143230 1_555
In2 Zr5 3.269402 1_556
In2 Zr2 3.302411 1_445
In3 Pd0 2.691149 1_665
In3 Pt4 2.711716 1_665
In3 Pt1 2.780051 1_555
In3 Pt2 2.782733 1_555
In3 Zr0 3.030846 1_555
In3 Zr5 3.095691 1_555
In3 Zr4 3.136565 1_555
In3 Zr2 3.143230 1_555
In3 Zr3 3.269396 1_565
In3 Zr1 3.302411 1_655
In4 Pd0 2.691146 1_565
In4 Pt4 2.711713 1_565
In4 Pt1 2.780046 1_565
In4 Pt2 2.782733 1_555
In4 Zr2 3.030846 1_555
In4 Zr3 3.095694 1_565
In4 Zr5 3.136559 1_565
In4 Zr1 3.143231 1_555
In4 Zr4 3.269401 1_455
In4 Zr0 3.302411 1_565
In5 Pd0 2.691152 1_555
In5 Pt4 2.711718 1_555
In5 Pt1 2.780037 1_455
In5 Pt2 2.782733 1_555
In5 Zr1 3.030846 1_555
In5 Zr4 3.095687 1_455
In5 Zr3 3.136560 1_455
In5 Zr0 3.143230 1_555
In5 Zr5 3.269402 1_555
In5 Zr2 3.302411 1_445
Pd0 Zr1 3.038191 1_545
Pd0 Zr0 3.038195 1_555
Pd0 Zr2 3.038198 1_445
Pt0 Zr2 2.870435 1_545
Pt0 Zr1 2.870439 1_655
Pt0 Zr0 2.870447 1_555
Pt0 Zr3 2.991313 1_556
Pt0 Zr4 2.991315 1_556
Pt0 Zr5 2.991318 1_556
Pt0 Pt1 3.128936 1_555
Pt1 Zr2 2.870435 1_545
Pt1 Zr1 2.870439 1_655
Pt1 Zr0 2.870447 1_555
Pt1 Zr3 2.991313 1_555
Pt1 Zr4 2.991315 1_555
Pt1 Zr5 2.991318 1_555
Pt2 Zr4 2.850053 1_455
Pt2 Zr3 2.850055 1_565
Pt2 Zr5 2.850059 1_555
Pt2 Zr0 2.992966 1_555
Pt2 Zr1 2.992966 1_555
Pt2 Zr2 2.992966 1_555
Pt2 Pt3 3.049198 1_555
Pt3 Zr4 2.850053 1_455
Pt3 Zr3 2.850055 1_565
Pt3 Zr5 2.850059 1_555
Pt3 Zr0 2.992966 1_554
Pt3 Zr1 2.992966 1_554
Pt3 Zr2 2.992966 1_554
Pt4 Zr3 2.978800 1_455
Pt4 Zr4 2.978800 1_445
Pt4 Zr5 2.978800 1_555
