# generated using pymatgen
data_CdHgSb2O7
_symmetry_space_group_name_H-M   'P 1'
_cell_length_a   7.39546218
_cell_length_b   7.32397987
_cell_length_c   7.32397893
_cell_angle_alpha   59.38204916
_cell_angle_beta   59.67661263
_cell_angle_gamma   59.67661055
_symmetry_Int_Tables_number   1
_chemical_formula_structural   CdHgSb2O7
_chemical_formula_sum   'Cd2 Hg2 Sb4 O14'
_cell_volume   277.81444061
_cell_formula_units_Z   2
loop_
 _symmetry_equiv_pos_site_id
 _symmetry_equiv_pos_as_xyz
  1  'x, y, z'
loop_
 _atom_site_type_symbol
 _atom_site_label
 _atom_site_symmetry_multiplicity
 _atom_site_fract_x
 _atom_site_fract_y
 _atom_site_fract_z
 _atom_site_occupancy
  Cd  Cd0  1  0.62500000  0.62500000  0.62500000  1
  Cd  Cd1  1  0.12500000  0.62500000  0.62500000  1
  Hg  Hg0  1  0.62500000  0.12500000  0.62500000  1
  Hg  Hg1  1  0.62500000  0.62500000  0.12500000  1
  Sb  Sb0  1  0.12500000  0.62500000  0.12500000  1
  Sb  Sb1  1  0.12500000  0.12500000  0.12500000  1
  Sb  Sb2  1  0.12500000  0.12500000  0.62500000  1
  Sb  Sb3  1  0.62500000  0.12500000  0.12500000  1
  O  O0  1  0.80472120  0.80242371  0.20256383  1
  O  O1  1  0.80472120  0.20256383  0.80242371  1
  O  O2  1  0.05970873  0.04743617  0.44757629  1
  O  O3  1  0.80633940  0.19366060  0.19366060  1
  O  O4  1  0.44527880  0.44757629  0.04743617  1
  O  O5  1  0.05970873  0.44757629  0.04743617  1
  O  O6  1  0.19840885  0.80159115  0.80159115  1
  O  O7  1  0.44527880  0.04743617  0.44757629  1
  O  O8  1  0.50144195  0.49855805  0.49855805  1
  O  O9  1  0.19029127  0.80242371  0.20256383  1
  O  O10  1  0.19029127  0.20256383  0.80242371  1
  O  O11  1  0.74855805  0.75144195  0.75144195  1
  O  O12  1  0.44366060  0.05633940  0.05633940  1
  O  O13  1  0.05159115  0.44840885  0.44840885  1
loop_
_geom_bond_atom_site_label_1
_geom_bond_atom_site_label_2
_geom_bond_distance
_geom_bond_site_symmetry_2
Cd0 O11 2.265529 1_555
Cd0 O8 2.265529 1_555
Cd0 O4 2.554181 1_556
Cd0 O0 2.554181 1_555
Cd0 O1 2.554181 1_555
Cd0 O7 2.554181 1_565
Cd0 O13 2.600414 1_655
Cd0 O6 2.600414 1_555
Cd1 O11 2.265529 1_455
Cd1 O8 2.265529 1_555
Cd1 O5 2.554181 1_556
Cd1 O9 2.554181 1_555
Cd1 O2 2.554181 1_565
Cd1 O10 2.554181 1_555
Cd1 O6 2.600413 1_555
Cd1 O13 2.600413 1_555
Hg0 O8 2.219711 1_555
Hg0 O11 2.219711 1_545
Hg0 O12 2.610784 1_556
Hg0 O3 2.610784 1_555
Hg0 O1 2.652576 1_555
Hg0 O7 2.652576 1_555
Hg0 O2 2.652576 1_655
Hg0 O10 2.652576 1_555
Hg1 O8 2.219711 1_555
Hg1 O11 2.219711 1_554
Hg1 O12 2.610785 1_565
Hg1 O3 2.610785 1_555
Hg1 O0 2.652576 1_555
Hg1 O4 2.652576 1_555
Hg1 O5 2.652576 1_655
Hg1 O9 2.652576 1_555
O0 Sb3 1.973687 1_565
O0 Sb0 1.976591 1_655
O1 Sb3 1.973687 1_556
O1 Sb2 1.976591 1_655
O2 Sb1 1.973687 1_555
O2 Sb2 1.976591 1_555
O3 Sb3 1.980860 1_555
O3 Sb1 1.980860 1_655
O4 Sb3 1.973687 1_555
O4 Sb0 1.976591 1_555
O5 Sb1 1.973687 1_555
O5 Sb0 1.976591 1_555
O6 Sb0 1.966710 1_556
O6 Sb2 1.966710 1_565
O7 Sb3 1.973687 1_555
O7 Sb2 1.976591 1_555
O9 Sb1 1.973687 1_565
O9 Sb0 1.976591 1_555
O10 Sb1 1.973687 1_556
O10 Sb2 1.976591 1_555
O12 Sb3 1.980860 1_555
O12 Sb1 1.980860 1_555
O13 Sb0 1.966710 1_555
O13 Sb2 1.966710 1_555
