# generated using pymatgen
data_Y12Co4BiRh
_symmetry_space_group_name_H-M   'P 1'
_cell_length_a   8.38803602
_cell_length_b   8.38803585
_cell_length_c   8.38803564
_cell_angle_alpha   110.27327071
_cell_angle_beta   110.62050850
_cell_angle_gamma   107.53721542
_symmetry_Int_Tables_number   1
_chemical_formula_structural   Y12Co4BiRh
_chemical_formula_sum   'Y12 Co4 Bi1 Rh1'
_cell_volume   453.92603441
_cell_formula_units_Z   1
loop_
 _symmetry_equiv_pos_site_id
 _symmetry_equiv_pos_as_xyz
  1  'x, y, z'
loop_
 _atom_site_type_symbol
 _atom_site_label
 _atom_site_symmetry_multiplicity
 _atom_site_fract_x
 _atom_site_fract_y
 _atom_site_fract_z
 _atom_site_occupancy
  Y  Y0  1  0.29144678  0.18303767  0.47448545  1
  Y  Y1  1  0.70855322  0.81696233  0.52551455  1
  Y  Y2  1  0.29144678  0.81696233  0.10841012  1
  Y  Y3  1  0.70855322  0.18303767  0.89158988  1
  Y  Y4  1  0.61775572  0.31139344  0.30636228  1
  Y  Y5  1  0.38224428  0.68860656  0.69363772  1
  Y  Y6  1  0.00503016  0.31139344  0.69363772  1
  Y  Y7  1  0.99496984  0.68860656  0.30636228  1
  Y  Y8  1  0.20548311  0.40326105  0.19777794  1
  Y  Y9  1  0.79451689  0.59673895  0.80222206  1
  Y  Y10  1  0.20548311  0.00770617  0.80222206  1
  Y  Y11  1  0.79451689  0.99229383  0.19777794  1
  Co  Co0  1  0.00000000  0.38408647  0.38408647  1
  Co  Co1  1  1.00000000  0.61591353  0.61591353  1
  Co  Co2  1  0.39144770  0.89144770  0.50000000  1
  Co  Co3  1  0.60855230  0.10855230  0.50000000  1
  Bi  Bi0  1  0.50000000  0.50000000  0.00000000  1
  Rh  Rh0  1  0.00000000  0.00000000  0.00000000  1
loop_
_geom_bond_atom_site_label_1
_geom_bond_atom_site_label_2
_geom_bond_distance
_geom_bond_site_symmetry_2
Y0 Y11 3.451740 1_445
Y0 Y8 3.451747 1_555
Y0 Y2 3.510502 1_545
Y0 Y7 3.554502 1_445
Y0 Y4 3.554513 1_555
Y0 Y5 3.688928 1_555
Y0 Y6 3.688930 1_555
Y0 Y10 3.714719 1_555
Y0 Y9 3.714732 1_555
Y1 Y10 3.451740 1_665
Y1 Y9 3.451747 1_555
Y1 Y3 3.510502 1_565
Y1 Y6 3.554502 1_665
Y1 Y5 3.554513 1_555
Y1 Y4 3.688928 1_555
Y1 Y7 3.688930 1_555
Y1 Y11 3.714719 1_555
Y1 Y8 3.714732 1_555
Y2 Y9 3.451742 1_454
Y2 Y7 3.554493 1_455
Y2 Y4 3.554508 1_565
Y2 Y6 3.688930 1_554
Y2 Y5 3.688935 1_554
Y2 Y8 3.714727 1_555
Y3 Y8 3.451742 1_656
Y3 Y6 3.554493 1_655
Y3 Y5 3.554508 1_545
Y3 Y7 3.688930 1_556
Y3 Y4 3.688935 1_556
Y3 Y9 3.714727 1_555
Y10 Y2 3.451754 1_546
Y10 Y3 3.714735 1_555
Y11 Y3 3.451754 1_564
Y11 Y2 3.714735 1_555
Co0 Co1 2.223120 1_455
Co0 Y8 2.709841 1_555
Co0 Y11 2.709848 1_445
Co0 Y7 2.855000 1_455
Co0 Y4 2.855002 1_455
Co0 Y5 2.855002 1_555
Co0 Y6 2.855004 1_555
Co0 Y0 3.385316 1_555
Co0 Y3 3.385322 1_454
Co1 Y9 2.709841 1_555
Co1 Y10 2.709848 1_665
Co1 Y6 2.855000 1_655
Co1 Y5 2.855002 1_655
Co1 Y4 2.855002 1_555
Co1 Y7 2.855004 1_555
Co1 Y1 3.385316 1_555
Co1 Y2 3.385322 1_656
Co2 Co3 2.152692 1_565
Co2 Y7 2.731897 1_455
Co2 Y5 2.731903 1_555
Co2 Y2 2.864325 1_555
Co2 Y3 2.864329 1_565
Co2 Y0 2.864331 1_565
Co2 Y1 2.864335 1_555
Co3 Y6 2.731897 1_655
Co3 Y4 2.731903 1_555
Co3 Y3 2.864325 1_555
Co3 Y2 2.864329 1_545
Co3 Y1 2.864331 1_545
Co3 Y0 2.864335 1_555
Bi0 Y5 3.471813 1_554
Bi0 Y4 3.471813 1_555
Bi0 Y6 3.471820 1_554
Bi0 Y7 3.471820 1_555
Bi0 Y11 3.482102 1_555
Bi0 Y10 3.482102 1_554
Bi0 Y9 3.482109 1_554
Bi0 Y8 3.482109 1_555
Bi0 Y0 3.633686 1_554
Bi0 Y1 3.633686 1_555
Bi0 Y2 3.633694 1_555
Bi0 Y3 3.633694 1_554
Rh0 Y8 2.783585 1_555
Rh0 Y9 2.783585 1_444
Rh0 Y10 2.783585 1_554
Rh0 Y11 2.783585 1_445
Rh0 Y3 3.290016 1_454
Rh0 Y2 3.290016 1_545
Rh0 Y0 3.290021 1_555
Rh0 Y1 3.290021 1_444
