# generated using pymatgen
data_YIn2(SnRh)4
_symmetry_space_group_name_H-M   'P 1'
_cell_length_a   6.93681486
_cell_length_b   6.93681494
_cell_length_c   6.89920515
_cell_angle_alpha   120.46191813
_cell_angle_beta   120.46192183
_cell_angle_gamma   89.51677889
_symmetry_Int_Tables_number   1
_chemical_formula_structural   YIn2(SnRh)4
_chemical_formula_sum   'Y1 In2 Sn4 Rh4'
_cell_volume   232.44584395
_cell_formula_units_Z   1
loop_
 _symmetry_equiv_pos_site_id
 _symmetry_equiv_pos_as_xyz
  1  'x, y, z'
loop_
 _atom_site_type_symbol
 _atom_site_label
 _atom_site_symmetry_multiplicity
 _atom_site_fract_x
 _atom_site_fract_y
 _atom_site_fract_z
 _atom_site_occupancy
  Y  Y0  1  0.00015140  0.00015140  1.00000000  1
  In  In0  1  0.46106917  0.12426495  0.00000000  1
  In  In1  1  0.12426495  0.46106917  0.00000000  1
  Sn  Sn0  1  0.87316019  0.87316019  0.33421795  1
  Sn  Sn1  1  0.50110682  0.00110782  0.49999900  1
  Sn  Sn2  1  0.00110782  0.50110682  0.49999900  1
  Sn  Sn3  1  0.53894024  0.53894024  0.66578105  1
  Rh  Rh0  1  0.75070113  0.39618815  0.00000000  1
  Rh  Rh1  1  0.39618815  0.75070113  0.00000000  1
  Rh  Rh2  1  0.61415768  0.61415768  0.37500421  1
  Rh  Rh3  1  0.23915246  0.23915246  0.62499479  1
loop_
_geom_bond_atom_site_label_1
_geom_bond_atom_site_label_2
_geom_bond_distance
_geom_bond_site_symmetry_2
In0 Rh1 2.633874 1_545
In0 Rh0 2.767410 1_555
In0 Rh2 2.780349 1_555
In0 Rh3 2.780350 1_554
In0 Y0 3.318193 1_554
In0 Y0 3.830261 1_654
In1 Rh0 2.633874 1_455
In1 Rh1 2.767410 1_555
In1 Rh2 2.780349 1_555
In1 Rh3 2.780350 1_554
In1 Y0 3.318193 1_554
In1 Y0 3.830261 1_564
Sn0 Y0 3.316789 1_664
Sn0 Y0 3.802455 1_665
Sn1 Y0 3.434871 1_554
Sn1 Y0 3.434885 1_655
Sn2 Y0 3.434871 1_554
Sn2 Y0 3.434885 1_565
Sn3 Y0 3.316804 1_665
Sn3 Y0 3.802442 1_554
Rh0 Sn2 2.616654 1_655
Rh0 Sn1 2.616660 1_554
Rh0 Sn3 2.703994 1_554
Rh0 Sn0 2.703998 1_555
Rh0 Rh2 2.893305 1_555
Rh0 Rh3 2.893310 1_554
Rh0 Y0 3.234402 1_654
Rh1 Sn1 2.616654 1_565
Rh1 Sn2 2.616660 1_554
Rh1 Sn3 2.703994 1_554
Rh1 Sn0 2.703998 1_555
Rh1 Rh2 2.893305 1_555
Rh1 Rh3 2.893310 1_554
Rh1 Y0 3.234402 1_564
Rh2 Sn3 2.587715 1_555
Rh2 Sn2 2.620455 1_655
Rh2 Sn1 2.620455 1_565
Rh2 Sn0 2.759487 1_555
Rh2 Y0 3.104818 1_665
Rh3 Sn0 2.587698 1_445
Rh3 Sn2 2.620449 1_555
Rh3 Sn1 2.620449 1_555
Rh3 Sn3 2.759477 1_555
Rh3 Y0 3.104814 1_554
