# generated using pymatgen
data_Na2Sb4O7
_symmetry_space_group_name_H-M   'P 1'
_cell_length_a   10.06170458
_cell_length_b   10.06170458
_cell_length_c   5.67429061
_cell_angle_alpha   74.88285283
_cell_angle_beta   74.88285283
_cell_angle_gamma   112.88584503
_symmetry_Int_Tables_number   1
_chemical_formula_structural   Na2Sb4O7
_chemical_formula_sum   'Na4 Sb8 O14'
_cell_volume   466.62898770
_cell_formula_units_Z   2
loop_
 _symmetry_equiv_pos_site_id
 _symmetry_equiv_pos_as_xyz
  1  'x, y, z'
loop_
 _atom_site_type_symbol
 _atom_site_label
 _atom_site_symmetry_multiplicity
 _atom_site_fract_x
 _atom_site_fract_y
 _atom_site_fract_z
 _atom_site_occupancy
  Na  Na0  1  0.67430524  0.49316432  0.92098453  1
  Na  Na1  1  0.50683568  0.32569476  0.57901547  1
  Na  Na2  1  0.32569476  0.50683568  0.07901547  1
  Na  Na3  1  0.49316432  0.67430524  0.42098453  1
  Sb  Sb0  1  0.11629460  0.60295780  0.67754074  1
  Sb  Sb1  1  0.60295780  0.11629460  0.17754074  1
  Sb  Sb2  1  0.88370540  0.39704220  0.32245926  1
  Sb  Sb3  1  0.39704220  0.88370540  0.82245926  1
  Sb  Sb4  1  0.86408883  0.72603491  0.25995064  1
  Sb  Sb5  1  0.27396509  0.13591117  0.24004936  1
  Sb  Sb6  1  0.13591117  0.27396509  0.74004936  1
  Sb  Sb7  1  0.72603491  0.86408883  0.75995064  1
  O  O0  1  0.22903645  0.49585036  0.49736795  1
  O  O1  1  0.61368556  0.98443036  0.53615292  1
  O  O2  1  0.77096355  0.50414964  0.50263205  1
  O  O3  1  0.49585036  0.22903645  -0.00263205  1
  O  O4  1  0.69164034  0.30835966  0.25000000  1
  O  O5  1  0.30835966  0.69164034  0.75000000  1
  O  O6  1  0.98443036  0.61368556  0.03615292  1
  O  O7  1  0.38631444  0.01556964  0.46384708  1
  O  O8  1  0.01556964  0.38631444  0.96384708  1
  O  O9  1  0.31099566  0.28398951  0.41509253  1
  O  O10  1  0.28398951  0.31099566  0.91509253  1
  O  O11  1  0.68900434  0.71601049  0.58490747  1
  O  O12  1  0.50414964  0.77096355  0.00263205  1
  O  O13  1  0.71601049  0.68900434  0.08490747  1
loop_
_geom_bond_atom_site_label_1
_geom_bond_atom_site_label_2
_geom_bond_distance
_geom_bond_site_symmetry_2
Na0 O2 2.273455 1_555
Na0 O13 2.332489 1_556
Na0 O4 2.363226 1_556
Na0 O3 2.399249 1_556
Na0 O11 2.459826 1_555
Na1 O3 2.273455 1_556
Na1 O9 2.332489 1_555
Na1 O4 2.363226 1_555
Na1 O2 2.399249 1_555
Na1 O10 2.459826 1_555
Na2 O0 2.273455 1_555
Na2 O10 2.332489 1_554
Na2 O5 2.363226 1_554
Na2 O12 2.399249 1_555
Na2 O9 2.459826 1_555
Na3 O12 2.273455 1_555
Na3 O11 2.332489 1_555
Na3 O5 2.363226 1_555
Na3 O0 2.399249 1_555
Na3 O13 2.459826 1_555
O0 Sb6 1.963389 1_555
O0 Sb0 2.100960 1_555
O1 Sb3 1.998451 1_555
O1 Sb1 2.174959 1_565
O1 Sb7 2.316890 1_555
O2 Sb4 1.963389 1_555
O2 Sb2 2.100960 1_555
O3 Sb5 1.963389 1_555
O3 Sb1 2.100960 1_555
O4 Sb1 1.991079 1_555
O4 Sb2 1.991079 1_555
O5 Sb0 1.991079 1_555
O5 Sb3 1.991079 1_555
O6 Sb2 1.998451 1_555
O6 Sb0 2.174959 1_654
O6 Sb4 2.316890 1_555
O7 Sb1 1.998451 1_555
O7 Sb3 2.174959 1_545
O7 Sb5 2.316890 1_555
O8 Sb0 1.998451 1_555
O8 Sb2 2.174959 1_456
O8 Sb6 2.316890 1_555
O9 Sb5 1.969352 1_555
O9 Sb6 2.141043 1_555
O10 Sb6 1.969352 1_555
O10 Sb5 2.141043 1_556
O11 Sb7 1.969352 1_555
O11 Sb4 2.141043 1_555
O12 Sb7 1.963389 1_554
O12 Sb3 2.100960 1_554
O13 Sb4 1.969352 1_555
O13 Sb7 2.141043 1_554
