# generated using pymatgen
data_Rb2Ni(PtS2)2
_symmetry_space_group_name_H-M   'P 1'
_cell_length_a   8.42162787
_cell_length_b   7.47970624
_cell_length_c   6.00608510
_cell_angle_alpha   76.42078857
_cell_angle_beta   59.69223716
_cell_angle_gamma   43.88696994
_symmetry_Int_Tables_number   1
_chemical_formula_structural   Rb2Ni(PtS2)2
_chemical_formula_sum   'Rb2 Ni1 Pt2 S4'
_cell_volume   221.11286602
_cell_formula_units_Z   1
loop_
 _symmetry_equiv_pos_site_id
 _symmetry_equiv_pos_as_xyz
  1  'x, y, z'
loop_
 _atom_site_type_symbol
 _atom_site_label
 _atom_site_symmetry_multiplicity
 _atom_site_fract_x
 _atom_site_fract_y
 _atom_site_fract_z
 _atom_site_occupancy
  Rb  Rb0  1  0.65637528  0.65637528  0.34362472  1
  Rb  Rb1  1  0.34362472  0.34362472  0.65637528  1
  Ni  Ni0  1  0.00000000  0.00000000  0.00000000  1
  Pt  Pt0  1  0.00000000  0.00000000  0.50000000  1
  Pt  Pt1  1  0.50000000  0.50000000  0.00000000  1
  S  S0  1  0.05530493  0.72655178  0.27344822  1
  S  S1  1  0.27344822  0.94469507  0.05530493  1
  S  S2  1  0.72655178  0.05530493  0.94469507  1
  S  S3  1  0.94469507  0.27344822  0.72655178  1
loop_
_geom_bond_atom_site_label_1
_geom_bond_atom_site_label_2
_geom_bond_distance
_geom_bond_site_symmetry_2
Rb0 S1 3.450709 1_555
Rb0 S3 3.450709 1_555
Rb0 S0 3.570595 1_655
Rb0 S2 3.570595 1_564
Rb0 S3 3.703068 1_465
Rb0 S1 3.703068 1_645
Rb0 S1 3.703068 1_556
Rb0 S3 3.703068 1_554
Rb1 S2 3.450709 1_555
Rb1 S0 3.450709 1_555
Rb1 S3 3.570595 1_455
Rb1 S1 3.570595 1_546
Rb1 S0 3.703068 1_645
Rb1 S2 3.703068 1_465
Rb1 S2 3.703068 1_554
Rb1 S0 3.703068 1_556
Ni0 S1 2.217905 1_545
Ni0 S2 2.217905 1_454
Ni0 S3 2.217905 1_454
Ni0 S0 2.217905 1_545
Pt0 S2 2.354952 1_455
Pt0 S1 2.354952 1_545
Pt0 S3 2.354952 1_455
Pt0 S0 2.354952 1_545
Pt0 Rb0 3.668625 1_545
Pt0 Rb1 3.668625 1_455
Pt0 Rb0 3.668625 1_455
Pt0 Rb1 3.668625 1_545
Pt1 S3 2.354952 1_554
Pt1 S0 2.354952 1_555
Pt1 S1 2.354952 1_555
Pt1 S2 2.354952 1_554
Pt1 Rb0 3.668625 1_555
Pt1 Rb1 3.668625 1_554
Pt1 Rb1 3.668625 1_555
Pt1 Rb0 3.668625 1_554
