# generated using pymatgen
data_Cs5Rb(CuSe2)2
_symmetry_space_group_name_H-M   'P 1'
_cell_length_a   8.36956360
_cell_length_b   8.34217296
_cell_length_c   8.36956385
_cell_angle_alpha   71.80361025
_cell_angle_beta   70.77744319
_cell_angle_gamma   71.80360562
_symmetry_Int_Tables_number   1
_chemical_formula_structural   Cs5Rb(CuSe2)2
_chemical_formula_sum   'Cs5 Rb1 Cu2 Se4'
_cell_volume   509.70051482
_cell_formula_units_Z   1
loop_
 _symmetry_equiv_pos_site_id
 _symmetry_equiv_pos_as_xyz
  1  'x, y, z'
loop_
 _atom_site_type_symbol
 _atom_site_label
 _atom_site_symmetry_multiplicity
 _atom_site_fract_x
 _atom_site_fract_y
 _atom_site_fract_z
 _atom_site_occupancy
  Cs  Cs0  1  0.46717555  0.74999900  0.03282445  1
  Cs  Cs1  1  0.96639636  0.53607929  0.24826324  1
  Cs  Cs2  1  0.75009241  0.03219004  0.46600393  1
  Cs  Cs3  1  0.25173676  0.96391971  0.53360264  1
  Cs  Cs4  1  0.03399507  0.46780996  0.74990759  1
  Rb  Rb0  1  0.53294074  0.25000000  0.96705826  1
  Cu  Cu0  1  0.00002919  0.00736144  0.00006908  1
  Cu  Cu1  1  0.49993092  0.49263856  0.49997081  1
  Se  Se0  1  0.12919682  0.12453544  0.11777653  1
  Se  Se1  1  0.38222347  0.37546456  0.37080318  1
  Se  Se2  1  0.61688181  0.60812862  0.63060210  1
  Se  Se3  1  0.86939790  0.89187138  0.88311819  1
loop_
_geom_bond_atom_site_label_1
_geom_bond_atom_site_label_2
_geom_bond_distance
_geom_bond_site_symmetry_2
Cs0 Se1 3.579459 1_555
Cs0 Se0 3.579471 1_565
Cs0 Se2 3.617754 1_554
Cs0 Se3 3.617763 1_554
Cs0 Cu1 3.881596 1_555
Cs0 Cu0 3.881600 1_565
Cs1 Se2 3.619085 1_555
Cs1 Se3 3.643076 1_554
Cs1 Se0 3.643652 1_655
Cs1 Se1 3.679580 1_655
Cs1 Cu1 3.847409 1_555
Cs1 Cu0 3.880295 1_665
Cs2 Se1 3.605381 1_555
Cs2 Se0 3.631859 1_655
Cs2 Se3 3.683477 1_545
Cs2 Se2 3.750153 1_545
Cs2 Cu1 3.806067 1_555
Cs2 Cu0 3.806377 1_655
Cs3 Se3 3.619087 1_455
Cs3 Se2 3.643074 1_555
Cs3 Se1 3.643660 1_565
Cs3 Se0 3.679573 1_565
Cs3 Cu0 3.847418 1_566
Cs3 Cu1 3.880285 1_555
Cs4 Se0 3.605383 1_556
Cs4 Se1 3.631863 1_555
Cs4 Se2 3.683469 1_455
Cs4 Se3 3.750153 1_455
Cs4 Cu0 3.806065 1_556
Cs4 Cu1 3.806384 1_555
Rb0 Se2 3.478909 1_555
Rb0 Se3 3.478911 1_545
Rb0 Se0 3.561308 1_556
Rb0 Se1 3.561316 1_556
Cu0 Se3 2.243483 1_444
Cu0 Se0 2.248880 1_555
Cu1 Se2 2.243483 1_555
Cu1 Se1 2.248880 1_555
