# generated using pymatgen
data_SrAs12Ru3Pt
_symmetry_space_group_name_H-M   'P 1'
_cell_length_a   7.42836766
_cell_length_b   7.42836682
_cell_length_c   7.44235716
_cell_angle_alpha   109.50937140
_cell_angle_beta   109.50936911
_cell_angle_gamma   109.43304750
_symmetry_Int_Tables_number   1
_chemical_formula_structural   SrAs12Ru3Pt
_chemical_formula_sum   'Sr1 As12 Ru3 Pt1'
_cell_volume   315.98803691
_cell_formula_units_Z   1
loop_
 _symmetry_equiv_pos_site_id
 _symmetry_equiv_pos_as_xyz
  1  'x, y, z'
loop_
 _atom_site_type_symbol
 _atom_site_label
 _atom_site_symmetry_multiplicity
 _atom_site_fract_x
 _atom_site_fract_y
 _atom_site_fract_z
 _atom_site_occupancy
  Sr  Sr0  1  0.00000000  0.00000000  0.00000000  1
  As  As0  1  0.84859139  0.64260144  0.50124498  1
  As  As1  1  0.15140861  0.35739856  0.49875502  1
  As  As2  1  0.14968040  0.65168984  0.80216563  1
  As  As3  1  0.85031960  0.34831016  0.19783437  1
  As  As4  1  0.65168984  0.50200844  0.84952521  1
  As  As5  1  0.34831016  0.49799156  0.15047479  1
  As  As6  1  0.64260144  0.79401105  0.14135746  1
  As  As7  1  0.35739856  0.20598895  0.85864254  1
  As  As8  1  0.50200844  0.85031960  0.65248323  1
  As  As9  1  0.49799156  0.14968040  0.34751677  1
  As  As10  1  0.20598895  0.84859139  0.34734642  1
  As  As11  1  0.79401105  0.15140861  0.65265358  1
  Ru  Ru0  1  0.50000000  0.50000000  0.50000000  1
  Ru  Ru1  1  0.50000000  0.00000000  0.00000000  1
  Ru  Ru2  1  0.00000000  0.50000000  0.00000000  1
  Pt  Pt0  1  0.00000000  0.00000000  0.50000000  1
loop_
_geom_bond_atom_site_label_1
_geom_bond_atom_site_label_2
_geom_bond_distance
_geom_bond_site_symmetry_2
As0 Ru0 2.445346 1_555
As0 Pt0 2.519917 1_665
As0 As2 2.544696 1_655
As0 As3 2.572757 1_555
As0 Sr0 3.276300 1_666
As1 Ru0 2.445346 1_555
As1 Pt0 2.519917 1_555
As1 As3 2.544696 1_455
As1 As2 2.572757 1_555
As1 Sr0 3.276300 1_555
As2 Ru2 2.457985 1_556
As2 Ru1 2.459756 1_566
As2 Sr0 3.249904 1_566
As3 Ru2 2.457985 1_655
As3 Ru1 2.459756 1_555
As3 Sr0 3.249904 1_655
As4 Ru0 2.457996 1_555
As4 Ru2 2.459752 1_656
As4 As6 2.544705 1_556
As4 As7 2.572748 1_555
As4 Sr0 3.249912 1_666
As5 Ru0 2.457996 1_555
As5 Ru2 2.459752 1_555
As5 As7 2.544705 1_554
As5 As6 2.572748 1_555
As5 Sr0 3.249912 1_555
As6 Ru1 2.445343 1_565
As6 Pt0 2.519914 1_665
As6 Sr0 3.276303 1_665
As7 Ru1 2.445343 1_556
As7 Pt0 2.519914 1_555
As7 Sr0 3.276303 1_556
As8 Ru1 2.457995 1_566
As8 Ru0 2.459758 1_555
As8 Sr0 3.249915 1_666
As9 Ru1 2.457995 1_555
As9 Ru0 2.459758 1_555
As9 Sr0 3.249915 1_555
As10 Ru2 2.445346 1_555
As10 Pt0 2.519911 1_565
As10 As9 2.544695 1_565
As10 As8 2.572748 1_555
As10 Sr0 3.276298 1_565
As11 Ru2 2.445346 1_656
As11 Pt0 2.519911 1_655
As11 As8 2.544695 1_545
As11 As9 2.572748 1_555
As11 Sr0 3.276298 1_656
