# generated using pymatgen
data_Sr4Ti3O10
_symmetry_space_group_name_H-M   'P 1'
_cell_length_a   3.91068857
_cell_length_b   3.91068745
_cell_length_c   14.36037665
_cell_angle_alpha   97.82583191
_cell_angle_beta   97.82583055
_cell_angle_gamma   90.00000304
_symmetry_Int_Tables_number   1
_chemical_formula_structural   Sr4Ti3O10
_chemical_formula_sum   'Sr4 Ti3 O10'
_cell_volume   215.50989031
_cell_formula_units_Z   1
loop_
 _symmetry_equiv_pos_site_id
 _symmetry_equiv_pos_as_xyz
  1  'x, y, z'
loop_
 _atom_site_type_symbol
 _atom_site_label
 _atom_site_symmetry_multiplicity
 _atom_site_fract_x
 _atom_site_fract_y
 _atom_site_fract_z
 _atom_site_occupancy
  Sr  Sr0  1  0.56848530  0.56848530  0.13697260  1
  Sr  Sr1  1  0.43151470  0.43151470  0.86302740  1
  Sr  Sr2  1  0.29758645  0.29758645  0.59517189  1
  Sr  Sr3  1  0.70241355  0.70241355  0.40482811  1
  Ti  Ti0  1  -0.00000000  0.00000000  0.00000000  1
  Ti  Ti1  1  0.85990863  0.85990863  0.71981725  1
  Ti  Ti2  1  0.14009137  0.14009137  0.28018275  1
  O  O0  1  0.13889984  0.63889984  0.27780167  1
  O  O1  1  0.79064032  0.79064032  0.58128164  1
  O  O2  1  0.20935968  0.20935968  0.41871836  1
  O  O3  1  0.50000000  0.00000000  0.00000000  1
  O  O4  1  -0.00000000  0.50000000  0.00000000  1
  O  O5  1  0.06946608  0.06946608  0.13893417  1
  O  O6  1  0.93053392  0.93053392  0.86106583  1
  O  O7  1  0.63889984  0.13889984  0.27780167  1
  O  O8  1  0.36110016  0.86110016  0.72219833  1
  O  O9  1  0.86110016  0.36110016  0.72219833  1
loop_
_geom_bond_atom_site_label_1
_geom_bond_atom_site_label_2
_geom_bond_distance
_geom_bond_site_symmetry_2
O0 Ti2 1.955628 1_555
O0 Ti2 1.955635 1_565
O0 Sr3 2.650942 1_455
O0 Sr3 2.650945 1_555
O0 Sr0 2.785973 1_555
O0 Sr0 2.785974 1_455
O1 Ti1 1.952191 1_555
O1 Sr3 2.486516 1_555
O1 Sr2 2.772187 1_555
O1 Sr2 2.772193 1_565
O1 Sr2 2.772193 1_655
O1 Sr2 2.772198 1_665
O2 Ti2 1.952191 1_555
O2 Sr2 2.486516 1_555
O2 Sr3 2.772187 1_555
O2 Sr3 2.772193 1_545
O2 Sr3 2.772193 1_455
O2 Sr3 2.772198 1_445
O3 Ti0 1.955344 1_555
O3 Ti0 1.955344 1_655
O3 Sr0 2.747525 1_555
O3 Sr1 2.747525 1_544
O3 Sr1 2.747530 1_554
O3 Sr0 2.747530 1_545
O4 Ti0 1.955344 1_565
O4 Ti0 1.955344 1_555
O4 Sr0 2.747526 1_555
O4 Sr1 2.747526 1_454
O4 Sr1 2.747530 1_554
O4 Sr0 2.747530 1_455
O5 Ti0 1.957807 1_555
O5 Ti2 1.990421 1_555
O5 Sr0 2.765412 1_445
O5 Sr0 2.765412 1_555
O5 Sr0 2.765412 1_545
O5 Sr0 2.765412 1_455
O6 Ti0 1.957807 1_666
O6 Ti1 1.990421 1_555
O6 Sr1 2.765412 1_665
O6 Sr1 2.765412 1_555
O6 Sr1 2.765412 1_565
O6 Sr1 2.765412 1_655
O7 Ti2 1.955628 1_555
O7 Ti2 1.955636 1_655
O7 Sr3 2.650941 1_545
O7 Sr3 2.650945 1_555
O7 Sr0 2.785973 1_555
O7 Sr0 2.785974 1_545
O8 Ti1 1.955628 1_555
O8 Ti1 1.955636 1_455
O8 Sr2 2.650941 1_565
O8 Sr2 2.650945 1_555
O8 Sr1 2.785973 1_555
O8 Sr1 2.785974 1_565
O9 Ti1 1.955628 1_555
O9 Ti1 1.955635 1_545
O9 Sr2 2.650942 1_655
O9 Sr2 2.650945 1_555
O9 Sr1 2.785973 1_555
O9 Sr1 2.785974 1_655
