# generated using pymatgen
data_Cs2ZrZn3As4
_symmetry_space_group_name_H-M   'P 1'
_cell_length_a   8.20428864
_cell_length_b   8.20428873
_cell_length_c   6.03223281
_cell_angle_alpha   90.00000000
_cell_angle_beta   90.00000000
_cell_angle_gamma   136.86553947
_symmetry_Int_Tables_number   1
_chemical_formula_structural   Cs2ZrZn3As4
_chemical_formula_sum   'Cs2 Zr1 Zn3 As4'
_cell_volume   277.60908544
_cell_formula_units_Z   1
loop_
 _symmetry_equiv_pos_site_id
 _symmetry_equiv_pos_as_xyz
  1  'x, y, z'
loop_
 _atom_site_type_symbol
 _atom_site_label
 _atom_site_symmetry_multiplicity
 _atom_site_fract_x
 _atom_site_fract_y
 _atom_site_fract_z
 _atom_site_occupancy
  Cs  Cs0  1  0.50000000  0.00000000  0.25621760  1
  Cs  Cs1  1  0.00000000  0.50000000  0.74378240  1
  Zr  Zr0  1  0.00000000  0.00000000  0.00000000  1
  Zn  Zn0  1  0.50000000  0.50000000  0.50000000  1
  Zn  Zn1  1  0.50000000  0.50000000  0.00000000  1
  Zn  Zn2  1  0.00000000  0.00000000  0.50000000  1
  As  As0  1  0.65183994  0.84293165  0.74757289  1
  As  As1  1  0.15706835  0.34816006  0.25242711  1
  As  As2  1  0.84293165  0.65183994  0.25242711  1
  As  As3  1  0.34816006  0.15706835  0.74757289  1
loop_
_geom_bond_atom_site_label_1
_geom_bond_atom_site_label_2
_geom_bond_distance
_geom_bond_site_symmetry_2
As0 Zn0 2.565656 1_555
As0 Zn1 2.582810 1_556
As0 Zn2 2.584125 1_665
As0 Zr0 2.601157 1_666
As0 Cs0 3.786885 1_565
As0 Cs1 3.815242 1_555
As0 Cs1 3.840089 1_665
As0 Cs0 3.869060 1_566
As1 Zn0 2.565656 1_555
As1 Zn1 2.582810 1_555
As1 Zn2 2.584125 1_555
As1 Zr0 2.601157 1_555
As1 Cs1 3.786885 1_555
As1 Cs0 3.815242 1_565
As1 Cs0 3.840089 1_455
As1 Cs1 3.869060 1_554
As2 Zn0 2.565656 1_555
As2 Zn1 2.582810 1_555
As2 Zn2 2.584125 1_665
As2 Zr0 2.601157 1_665
As2 Cs1 3.786885 1_655
As2 Cs0 3.815242 1_555
As2 Cs0 3.840089 1_665
As2 Cs1 3.869060 1_654
As3 Zn0 2.565656 1_555
As3 Zn1 2.582810 1_556
As3 Zn2 2.584125 1_555
As3 Zr0 2.601157 1_556
As3 Cs0 3.786885 1_555
As3 Cs1 3.815242 1_655
As3 Cs1 3.840089 1_545
As3 Cs0 3.869060 1_556
