# generated using pymatgen
data_Ca2MnPt3
_symmetry_space_group_name_H-M   'P 1'
_cell_length_a   5.27433054
_cell_length_b   5.58374352
_cell_length_c   5.58374341
_cell_angle_alpha   60.00000653
_cell_angle_beta   58.03967736
_cell_angle_gamma   58.03967507
_symmetry_Int_Tables_number   1
_chemical_formula_structural   Ca2MnPt3
_chemical_formula_sum   'Ca2 Mn1 Pt3'
_cell_volume   112.71413211
_cell_formula_units_Z   1
loop_
 _symmetry_equiv_pos_site_id
 _symmetry_equiv_pos_as_xyz
  1  'x, y, z'
loop_
 _atom_site_type_symbol
 _atom_site_label
 _atom_site_symmetry_multiplicity
 _atom_site_fract_x
 _atom_site_fract_y
 _atom_site_fract_z
 _atom_site_occupancy
  Ca  Ca0  1  0.99914961  0.00028313  0.00028313  1
  Ca  Ca1  1  0.25085039  0.24971687  0.24971687  1
  Mn  Mn0  1  0.12500000  0.62500000  0.62500000  1
  Pt  Pt0  1  0.62500000  0.62500000  0.62500000  1
  Pt  Pt1  1  0.62500000  0.62500000  0.12500000  1
  Pt  Pt2  1  0.62500000  0.12500000  0.62500000  1
loop_
_geom_bond_atom_site_label_1
_geom_bond_atom_site_label_2
_geom_bond_distance
_geom_bond_site_symmetry_2
Ca0 Pt0 3.069801 1_644
Ca0 Pt1 3.069803 1_645
Ca0 Pt2 3.069803 1_654
Ca0 Ca1 3.123720 1_555
Ca0 Pt2 3.199053 1_554
Ca0 Pt1 3.199053 1_545
Ca0 Pt0 3.199055 1_554
Ca0 Pt0 3.199056 1_545
Ca0 Pt1 3.199058 1_555
Ca0 Pt2 3.199058 1_555
Ca0 Mn0 3.266298 1_644
Ca0 Mn0 3.266303 1_645
Ca0 Mn0 3.266303 1_654
Ca0 Ca1 3.390678 1_645
Ca0 Ca1 3.390678 1_654
Ca0 Ca1 3.390686 1_655
Ca1 Pt0 3.069801 1_455
Ca1 Pt1 3.069803 1_455
Ca1 Pt2 3.069803 1_455
Ca1 Pt2 3.199053 1_555
Ca1 Pt1 3.199053 1_555
Ca1 Pt0 3.199055 1_545
Ca1 Pt0 3.199056 1_554
Ca1 Pt1 3.199058 1_545
Ca1 Pt2 3.199058 1_554
Ca1 Mn0 3.266298 1_555
Ca1 Mn0 3.266303 1_554
Ca1 Mn0 3.266303 1_545
Mn0 Pt0 2.637165 1_455
Mn0 Pt0 2.637165 1_555
Mn0 Pt2 2.637165 1_555
Mn0 Pt2 2.637165 1_465
Mn0 Pt1 2.637166 1_456
Mn0 Pt1 2.637166 1_555
Pt0 Pt1 2.791872 1_556
Pt0 Pt1 2.791872 1_555
Pt0 Pt2 2.791872 1_555
Pt0 Pt2 2.791872 1_565
Pt1 Pt2 2.791872 1_555
Pt1 Pt2 2.791872 1_564
