# generated using pymatgen
data_LuBPd3
_symmetry_space_group_name_H-M   'P 1'
_cell_length_a   4.28611900
_cell_length_b   4.28611900
_cell_length_c   4.28611900
_cell_angle_alpha   90.00000000
_cell_angle_beta   90.00000000
_cell_angle_gamma   90.00000000
_symmetry_Int_Tables_number   1
_chemical_formula_structural   LuBPd3
_chemical_formula_sum   'Lu1 B1 Pd3'
_cell_volume   78.73950386
_cell_formula_units_Z   1
loop_
 _symmetry_equiv_pos_site_id
 _symmetry_equiv_pos_as_xyz
  1  'x, y, z'
loop_
 _atom_site_type_symbol
 _atom_site_label
 _atom_site_symmetry_multiplicity
 _atom_site_fract_x
 _atom_site_fract_y
 _atom_site_fract_z
 _atom_site_occupancy
  Lu  Lu0  1  0.00000000  0.00000000  0.00000000  1
  B  B0  1  0.50000000  0.50000000  0.50000000  1
  Pd  Pd0  1  0.00000000  0.50000000  0.50000000  1
  Pd  Pd1  1  0.50000000  0.50000000  0.00000000  1
  Pd  Pd2  1  0.50000000  0.00000000  0.50000000  1
loop_
_geom_bond_atom_site_label_1
_geom_bond_atom_site_label_2
_geom_bond_distance
_geom_bond_site_symmetry_2
Lu0 Pd2 3.030744 1_455
Lu0 Pd1 3.030744 1_455
Lu0 Pd0 3.030744 1_555
Lu0 Pd2 3.030744 1_454
Lu0 Pd1 3.030744 1_555
Lu0 Pd1 3.030744 1_545
Lu0 Pd0 3.030744 1_544
Lu0 Pd0 3.030744 1_545
Lu0 Pd2 3.030744 1_554
Lu0 Pd1 3.030744 1_445
Lu0 Pd2 3.030744 1_555
Lu0 Pd0 3.030744 1_554
B0 Pd2 2.143060 1_555
B0 Pd2 2.143060 1_565
B0 Pd0 2.143060 1_555
B0 Pd0 2.143060 1_655
B0 Pd1 2.143060 1_556
B0 Pd1 2.143060 1_555
