# generated using pymatgen
data_Mg3Nb(InRh2)4
_symmetry_space_group_name_H-M   'P 1'
_cell_length_a   6.28393370
_cell_length_b   6.28391309
_cell_length_c   6.41055587
_cell_angle_alpha   90.00000000
_cell_angle_beta   89.99999005
_cell_angle_gamma   90.00000000
_symmetry_Int_Tables_number   1
_chemical_formula_structural   Mg3Nb(InRh2)4
_chemical_formula_sum   'Mg3 Nb1 In4 Rh8'
_cell_volume   253.13806357
_cell_formula_units_Z   1
loop_
 _symmetry_equiv_pos_site_id
 _symmetry_equiv_pos_as_xyz
  1  'x, y, z'
loop_
 _atom_site_type_symbol
 _atom_site_label
 _atom_site_symmetry_multiplicity
 _atom_site_fract_x
 _atom_site_fract_y
 _atom_site_fract_z
 _atom_site_occupancy
  Mg  Mg0  1  0.25007986  0.75000100  0.00001024  1
  Mg  Mg1  1  0.25000259  0.75000100  0.49998795  1
  Mg  Mg2  1  0.74994189  0.25000000  0.49999147  1
  Nb  Nb0  1  0.74995708  0.25000000  0.99998960  1
  In  In0  1  0.25006090  0.25000000  0.99999150  1
  In  In1  1  0.74994940  0.75000100  0.99999232  1
  In  In2  1  0.74999413  0.75000100  0.50001107  1
  In  In3  1  0.25001457  0.25000000  0.50001188  1
  Rh  Rh0  1  0.99558473  0.00441948  0.24820323  1
  Rh  Rh1  1  0.99558473  0.49558152  0.24820323  1
  Rh  Rh2  1  0.50441651  0.00441726  0.24823313  1
  Rh  Rh3  1  0.50441651  0.49558174  0.24823313  1
  Rh  Rh4  1  0.50441596  0.00441906  0.75177144  1
  Rh  Rh5  1  0.50441596  0.49558194  0.75177144  1
  Rh  Rh6  1  0.99558359  0.00441965  0.75180068  1
  Rh  Rh7  1  0.99558359  0.49557935  0.75180068  1
loop_
_geom_bond_atom_site_label_1
_geom_bond_atom_site_label_2
_geom_bond_distance
_geom_bond_site_symmetry_2
Mg0 Rh2 2.764481 1_565
Mg0 Rh3 2.764492 1_555
Mg0 Rh4 2.764544 1_564
Mg0 Rh5 2.764548 1_554
Mg0 Rh0 2.764955 1_465
Mg0 Rh1 2.764958 1_455
Mg0 Rh6 2.765021 1_464
Mg0 Rh7 2.765032 1_454
Mg1 Rh2 2.777855 1_565
Mg1 Rh3 2.777866 1_555
Mg1 Rh4 2.777967 1_565
Mg1 Rh5 2.777970 1_555
Mg1 Rh0 2.777989 1_465
Mg1 Rh1 2.777992 1_455
Mg1 Rh6 2.778098 1_465
Mg1 Rh7 2.778108 1_455
Mg2 Rh3 2.714158 1_555
Mg2 Rh2 2.714161 1_555
Mg2 Rh4 2.714239 1_555
Mg2 Rh5 2.714243 1_555
Mg2 Rh0 2.714687 1_555
Mg2 Rh1 2.714690 1_555
Mg2 Rh7 2.714759 1_555
Mg2 Rh6 2.714762 1_555
Nb0 Rh4 2.700778 1_555
Nb0 Rh5 2.700782 1_555
Nb0 Rh3 2.700875 1_556
Nb0 Rh2 2.700878 1_556
Nb0 Rh7 2.700968 1_555
Nb0 Rh6 2.700972 1_555
Nb0 Rh0 2.701070 1_556
Nb0 Rh1 2.701074 1_556
In0 Rh4 2.732806 1_555
In0 Rh5 2.732809 1_555
In0 Rh3 2.732891 1_556
In0 Rh2 2.732895 1_556
In0 Rh7 2.733140 1_455
In0 Rh6 2.733144 1_455
In0 Rh0 2.733218 1_456
In0 Rh1 2.733222 1_456
In1 Rh4 2.732872 1_565
In1 Rh5 2.732875 1_555
In1 Rh2 2.732937 1_566
In1 Rh3 2.732948 1_556
In1 Rh6 2.733122 1_565
In1 Rh7 2.733133 1_555
In1 Rh0 2.733198 1_566
In1 Rh1 2.733201 1_556
In2 Rh4 2.746303 1_565
In2 Rh5 2.746306 1_555
In2 Rh2 2.746361 1_565
In2 Rh3 2.746372 1_555
In2 Rh6 2.746455 1_565
In2 Rh7 2.746466 1_555
In2 Rh0 2.746527 1_565
In2 Rh1 2.746531 1_555
In3 Rh4 2.746249 1_555
In3 Rh5 2.746253 1_555
In3 Rh3 2.746326 1_555
In3 Rh2 2.746329 1_555
In3 Rh7 2.746462 1_455
In3 Rh6 2.746465 1_455
In3 Rh0 2.746537 1_455
In3 Rh1 2.746540 1_455
