# generated using pymatgen
data_Cu2SiIr3S8
_symmetry_space_group_name_H-M   'P 1'
_cell_length_a   6.88413851
_cell_length_b   6.88413944
_cell_length_c   6.88413866
_cell_angle_alpha   61.21695153
_cell_angle_beta   61.21694798
_cell_angle_gamma   61.21695167
_symmetry_Int_Tables_number   1
_chemical_formula_structural   Cu2SiIr3S8
_chemical_formula_sum   'Cu2 Si1 Ir3 S8'
_cell_volume   237.00702846
_cell_formula_units_Z   1
loop_
 _symmetry_equiv_pos_site_id
 _symmetry_equiv_pos_as_xyz
  1  'x, y, z'
loop_
 _atom_site_type_symbol
 _atom_site_label
 _atom_site_symmetry_multiplicity
 _atom_site_fract_x
 _atom_site_fract_y
 _atom_site_fract_z
 _atom_site_occupancy
  Cu  Cu0  1  0.99954531  0.99954531  0.99954531  1
  Cu  Cu1  1  0.25045469  0.25045469  0.25045469  1
  Si  Si0  1  0.62500000  0.62500000  0.62500000  1
  Ir  Ir0  1  0.62500000  0.62500000  0.12500000  1
  Ir  Ir1  1  0.12500000  0.62500000  0.62500000  1
  Ir  Ir2  1  0.62500000  0.12500000  0.62500000  1
  S  S0  1  0.38789237  0.38789237  0.84388402  1
  S  S1  1  0.38546086  0.38546086  0.38546086  1
  S  S2  1  0.86453914  0.86453914  0.86453914  1
  S  S3  1  0.86210763  0.86210763  0.40611598  1
  S  S4  1  0.38789237  0.84388402  0.38789237  1
  S  S5  1  0.84388402  0.38789237  0.38789237  1
  S  S6  1  0.40611598  0.86210763  0.86210763  1
  S  S7  1  0.86210763  0.40611598  0.86210763  1
loop_
_geom_bond_atom_site_label_1
_geom_bond_atom_site_label_2
_geom_bond_distance
_geom_bond_site_symmetry_2
Cu0 S2 2.255396 1_555
Cu0 S6 2.320761 1_655
Cu0 S3 2.320761 1_556
Cu0 S7 2.320761 1_565
Cu1 S1 2.255396 1_555
Cu1 S5 2.320761 1_455
Cu1 S0 2.320761 1_554
Cu1 S4 2.320761 1_545
Ir0 S2 2.361675 1_554
Ir0 S1 2.361675 1_555
Ir0 S5 2.371292 1_555
Ir0 S6 2.371292 1_554
Ir0 S4 2.371292 1_555
Ir0 S7 2.371292 1_554
Ir1 S2 2.361675 1_455
Ir1 S1 2.361675 1_555
Ir1 S4 2.371292 1_555
Ir1 S7 2.371292 1_455
Ir1 S3 2.371292 1_455
Ir1 S0 2.371292 1_555
Ir2 S2 2.361675 1_545
Ir2 S1 2.361675 1_555
Ir2 S5 2.371292 1_555
Ir2 S6 2.371292 1_545
Ir2 S3 2.371292 1_545
Ir2 S0 2.371292 1_555
S0 Si0 2.329781 1_555
S3 Si0 2.329781 1_555
S4 Si0 2.329781 1_555
S5 Si0 2.329781 1_555
S6 Si0 2.329781 1_555
S7 Si0 2.329781 1_555
