# generated using pymatgen
data_Ti16Pd7PtO4
_symmetry_space_group_name_H-M   'P 1'
_cell_length_a   8.25394017
_cell_length_b   8.27209956
_cell_length_c   8.27210379
_cell_angle_alpha   60.00229034
_cell_angle_beta   59.92479057
_cell_angle_gamma   59.92509190
_symmetry_Int_Tables_number   1
_chemical_formula_structural   Ti16Pd7PtO4
_chemical_formula_sum   'Ti16 Pd7 Pt1 O4'
_cell_volume   398.92559425
_cell_formula_units_Z   1
loop_
 _symmetry_equiv_pos_site_id
 _symmetry_equiv_pos_as_xyz
  1  'x, y, z'
loop_
 _atom_site_type_symbol
 _atom_site_label
 _atom_site_symmetry_multiplicity
 _atom_site_fract_x
 _atom_site_fract_y
 _atom_site_fract_z
 _atom_site_occupancy
  Ti  Ti0  1  0.12169136  0.62611258  0.62611183  1
  Ti  Ti1  1  0.62224968  0.12709516  0.62531834  1
  Ti  Ti2  1  0.62224235  0.62532463  0.12708753  1
  Ti  Ti3  1  0.62225294  0.62529769  0.62530351  1
  Ti  Ti4  1  0.82154351  0.82060770  0.17891000  1
  Ti  Ti5  1  0.17740498  0.17815296  0.82222051  1
  Ti  Ti6  1  0.82154468  0.17891063  0.82060700  1
  Ti  Ti7  1  0.17740629  0.82221504  0.17815660  1
  Ti  Ti8  1  0.17736413  0.82223007  0.82223279  1
  Ti  Ti9  1  0.82155585  0.17892053  0.17892241  1
  Ti  Ti10  1  0.42819925  0.42815342  0.07184807  1
  Ti  Ti11  1  0.07284019  0.06667694  0.43025303  1
  Ti  Ti12  1  0.42819680  0.07184602  0.42815480  1
  Ti  Ti13  1  0.07284259  0.43024884  0.06667798  1
  Ti  Ti14  1  0.07284754  0.43023160  0.43023767  1
  Ti  Ti15  1  0.42818001  0.07183596  0.07183835  1
  Pd  Pd0  1  0.41052680  0.76276835  0.41338938  1
  Pd  Pd1  1  0.41052691  0.41338690  0.76276823  1
  Pd  Pd2  1  0.41058828  0.41338005  0.41339340  1
  Pd  Pd3  1  0.48687804  0.83766931  0.83765201  1
  Pd  Pd4  1  0.83550432  0.48707713  0.83867439  1
  Pd  Pd5  1  0.83550640  0.83866942  0.48708215  1
  Pd  Pd6  1  0.83538921  0.83874453  0.83871817  1
  Pt  Pt0  1  0.78422108  0.40520703  0.40519029  1
  O  O0  1  0.62581341  0.12475462  0.12475942  1
  O  O1  1  0.12556552  0.62592149  0.12430873  1
  O  O2  1  0.12556602  0.12430574  0.62592366  1
  O  O3  1  0.12555188  0.12425666  0.12426076  1
loop_
_geom_bond_atom_site_label_1
_geom_bond_atom_site_label_2
_geom_bond_distance
_geom_bond_site_symmetry_2
Pd0 Ti3 2.550575 1_555
Pd0 Ti2 2.551167 1_555
Pd0 Ti0 2.562285 1_555
Pd0 Ti11 2.654483 1_565
Pd0 Ti12 2.697566 1_565
Pd0 Ti15 2.697791 1_565
Pd1 Ti3 2.550554 1_555
Pd1 Ti1 2.551131 1_555
Pd1 Ti0 2.562301 1_555
Pd1 Ti13 2.654466 1_556
Pd1 Ti10 2.697601 1_556
Pd1 Ti15 2.697801 1_556
Pd2 Ti1 2.550557 1_555
Pd2 Ti2 2.550643 1_555
Pd2 Ti0 2.562067 1_555
Pd2 Ti14 2.655316 1_555
Pd2 Ti12 2.697980 1_555
Pd2 Ti10 2.698020 1_555
Pd3 Ti3 2.563456 1_555
Pd3 Ti1 2.564136 1_565
Pd3 Ti2 2.564176 1_556
Pd3 Ti8 2.688683 1_555
Pd3 Ti5 2.688951 1_565
Pd3 Ti7 2.689029 1_556
Pd4 Ti0 2.555817 1_655
Pd4 Ti3 2.568962 1_555
Pd4 Ti2 2.568998 1_556
Pd4 Ti6 2.688226 1_555
Pd4 Ti9 2.688532 1_556
Pd4 Ti5 2.692144 1_655
Pd5 Ti0 2.555789 1_655
Pd5 Ti3 2.568970 1_555
Pd5 Ti1 2.569032 1_565
Pd5 Ti4 2.688264 1_555
Pd5 Ti9 2.688559 1_565
Pd5 Ti7 2.692135 1_655
Pd6 Ti0 2.555960 1_655
Pd6 Ti1 2.568478 1_565
Pd6 Ti2 2.568630 1_556
Pd6 Ti6 2.688273 1_565
Pd6 Ti4 2.688387 1_556
Pd6 Ti8 2.692753 1_655
Pt0 Ti13 2.605350 1_655
Pt0 Ti11 2.605438 1_655
Pt0 Ti14 2.606346 1_655
Pt0 Ti2 2.617140 1_555
Pt0 Ti1 2.617152 1_555
Pt0 Ti3 2.617777 1_555
O0 Ti9 2.159545 1_555
O0 Ti12 2.159858 1_555
O0 Ti10 2.159881 1_555
O0 Ti4 2.159897 1_545
O0 Ti6 2.159922 1_554
O0 Ti15 2.160395 1_555
O1 Ti7 2.151447 1_555
O1 Ti8 2.152070 1_554
O1 Ti10 2.152202 1_555
O1 Ti4 2.153029 1_455
O1 Ti14 2.172571 1_555
O1 Ti13 2.173035 1_555
O2 Ti5 2.151461 1_555
O2 Ti8 2.152072 1_545
O2 Ti12 2.152181 1_555
O2 Ti6 2.153013 1_455
O2 Ti14 2.172548 1_555
O2 Ti11 2.173025 1_555
O3 Ti5 2.151771 1_554
O3 Ti7 2.151781 1_545
O3 Ti15 2.152262 1_555
O3 Ti9 2.152898 1_455
O3 Ti13 2.172905 1_555
O3 Ti11 2.172905 1_555
