# generated using pymatgen
data_V3Sn(SeO3)8
_symmetry_space_group_name_H-M   'P 1'
_cell_length_a   8.01630238
_cell_length_b   8.01630236
_cell_length_c   8.01630277
_cell_angle_alpha   89.53171153
_cell_angle_beta   90.46829317
_cell_angle_gamma   90.46828565
_symmetry_Int_Tables_number   1
_chemical_formula_structural   V3Sn(SeO3)8
_chemical_formula_sum   'V3 Sn1 Se8 O24'
_cell_volume   515.08512617
_cell_formula_units_Z   1
loop_
 _symmetry_equiv_pos_site_id
 _symmetry_equiv_pos_as_xyz
  1  'x, y, z'
loop_
 _atom_site_type_symbol
 _atom_site_label
 _atom_site_symmetry_multiplicity
 _atom_site_fract_x
 _atom_site_fract_y
 _atom_site_fract_z
 _atom_site_occupancy
  V  V0  1  0.50000000  0.50000000  0.50000000  1
  V  V1  1  0.50000000  0.00000000  0.00000000  1
  V  V2  1  0.00000000  0.50000000  0.00000000  1
  Sn  Sn0  1  0.00000000  0.00000000  0.50000000  1
  Se  Se0  1  0.83385330  0.66336392  0.31975283  1
  Se  Se1  1  0.18024717  0.16614670  0.16336392  1
  Se  Se2  1  0.67540871  0.32459129  0.82459129  1
  Se  Se3  1  0.33663608  0.81975283  0.66614670  1
  Se  Se4  1  0.16614670  0.33663608  0.68024717  1
  Se  Se5  1  0.81975283  0.83385330  0.83663608  1
  Se  Se6  1  0.32459129  0.67540871  0.17540871  1
  Se  Se7  1  0.66336392  0.18024717  0.33385330  1
  O  O0  1  0.73237456  0.52117626  0.44271191  1
  O  O1  1  0.26369423  0.02335977  0.02807619  1
  O  O2  1  0.76764468  0.43431425  0.98425012  1
  O  O3  1  0.25134434  0.96723847  0.53570314  1
  O  O4  1  0.47192381  0.73630577  0.52335977  1
  O  O5  1  0.05728809  0.26762544  0.02117626  1
  O  O6  1  0.96429686  0.74865566  0.46723847  1
  O  O7  1  0.51574988  0.23235532  0.93431425  1
  O  O8  1  0.56568575  0.48425012  0.73235532  1
  O  O9  1  0.03276153  0.03570314  0.24865566  1
  O  O10  1  0.47882374  0.94271191  0.76762544  1
  O  O11  1  0.97664023  0.52807619  0.23630577  1
  O  O12  1  0.26762544  0.47882374  0.55728809  1
  O  O13  1  0.73630577  0.97664023  0.97192381  1
  O  O14  1  0.23235532  0.56568575  0.01574988  1
  O  O15  1  0.74865566  0.03276153  0.46429686  1
  O  O16  1  0.52807619  0.26369423  0.47664023  1
  O  O17  1  0.94271191  0.73237456  0.97882374  1
  O  O18  1  0.03570314  0.25134434  0.53276153  1
  O  O19  1  0.48425012  0.76764468  0.06568575  1
  O  O20  1  0.43431425  0.51574988  0.26764468  1
  O  O21  1  0.96723847  0.96429686  0.75134434  1
  O  O22  1  0.52117626  0.05728809  0.23237456  1
  O  O23  1  0.02335977  0.47192381  0.76369423  1
loop_
_geom_bond_atom_site_label_1
_geom_bond_atom_site_label_2
_geom_bond_distance
_geom_bond_site_symmetry_2
O0 Se0 1.706485 1_555
O0 V0 1.928011 1_555
O1 Se1 1.725822 1_555
O1 V1 1.920298 1_555
O2 Se2 1.717768 1_555
O2 V2 1.934892 1_656
O3 Se3 1.714655 1_555
O3 Sn0 2.051466 1_565
O4 Se3 1.725822 1_555
O4 V0 1.920298 1_555
O5 Se1 1.706484 1_555
O5 V2 1.928010 1_555
O6 Se0 1.714655 1_555
O6 Sn0 2.051466 1_665
O7 Se2 1.717768 1_555
O7 V1 1.934892 1_556
O8 Se2 1.717767 1_555
O8 V0 1.934892 1_555
O9 Se1 1.714655 1_555
O9 Sn0 2.051466 1_555
O10 Se3 1.706485 1_555
O10 V1 1.928011 1_566
O11 Se0 1.725822 1_555
O11 V2 1.920298 1_655
O12 Se4 1.706485 1_555
O12 V0 1.928011 1_555
O13 Se5 1.725822 1_555
O13 V1 1.920298 1_566
O14 Se6 1.717768 1_555
O14 V2 1.934892 1_555
O15 Se7 1.714655 1_555
O15 Sn0 2.051466 1_655
O16 Se7 1.725822 1_555
O16 V0 1.920298 1_555
O17 Se5 1.706484 1_555
O17 V2 1.928010 1_656
O18 Se4 1.714655 1_555
O18 Sn0 2.051466 1_555
O19 Se6 1.717768 1_555
O19 V1 1.934892 1_565
O20 Se6 1.717767 1_555
O20 V0 1.934892 1_555
O21 Se5 1.714655 1_555
O21 Sn0 2.051466 1_665
O22 Se7 1.706485 1_555
O22 V1 1.928011 1_555
O23 Se4 1.725822 1_555
O23 V2 1.920298 1_556
