# generated using pymatgen
data_La3Tl
_symmetry_space_group_name_H-M   'P 1'
_cell_length_a   5.09044228
_cell_length_b   5.09041111
_cell_length_c   5.09043905
_cell_angle_alpha   90.00000000
_cell_angle_beta   90.00000000
_cell_angle_gamma   90.00000000
_symmetry_Int_Tables_number   1
_chemical_formula_structural   La3Tl
_chemical_formula_sum   'La3 Tl1'
_cell_volume   131.90571650
_cell_formula_units_Z   1
loop_
 _symmetry_equiv_pos_site_id
 _symmetry_equiv_pos_as_xyz
  1  'x, y, z'
loop_
 _atom_site_type_symbol
 _atom_site_label
 _atom_site_symmetry_multiplicity
 _atom_site_fract_x
 _atom_site_fract_y
 _atom_site_fract_z
 _atom_site_occupancy
  La  La0  1  -0.00000000  0.50000000  0.50000000  1
  La  La1  1  0.50000000  0.50000000  0.00000000  1
  La  La2  1  0.50000000  -0.00000000  0.50000000  1
  Tl  Tl0  1  0.00000000  -0.00000000  0.00000000  1
loop_
_geom_bond_atom_site_label_1
_geom_bond_atom_site_label_2
_geom_bond_distance
_geom_bond_site_symmetry_2
La0 Tl0 3.599474 1_555
La0 Tl0 3.599474 1_556
La0 Tl0 3.599474 1_565
La0 Tl0 3.599474 1_566
La0 La2 3.599475 1_455
La0 La2 3.599475 1_555
La0 La2 3.599475 1_465
La0 La2 3.599475 1_565
La0 La1 3.599485 1_455
La0 La1 3.599485 1_456
La0 La1 3.599485 1_555
La0 La1 3.599485 1_556
La1 La2 3.599474 1_565
La1 La2 3.599474 1_564
La1 La2 3.599474 1_554
La1 La2 3.599474 1_555
La1 Tl0 3.599475 1_565
La1 Tl0 3.599475 1_655
La1 Tl0 3.599475 1_665
La1 Tl0 3.599475 1_555
La2 Tl0 3.599485 1_555
La2 Tl0 3.599485 1_556
La2 Tl0 3.599485 1_656
La2 Tl0 3.599485 1_655
