# generated using pymatgen
data_Cs2NaScBi2
_symmetry_space_group_name_H-M   'P 1'
_cell_length_a   10.31532113
_cell_length_b   10.31532108
_cell_length_c   10.31532122
_cell_angle_alpha   136.62879610
_cell_angle_beta   62.35078263
_cell_angle_gamma   137.48811955
_symmetry_Int_Tables_number   1
_chemical_formula_structural   Cs2NaScBi2
_chemical_formula_sum   'Cs4 Na2 Sc2 Bi4'
_cell_volume   503.21297381
_cell_formula_units_Z   2
loop_
 _symmetry_equiv_pos_site_id
 _symmetry_equiv_pos_as_xyz
  1  'x, y, z'
loop_
 _atom_site_type_symbol
 _atom_site_label
 _atom_site_symmetry_multiplicity
 _atom_site_fract_x
 _atom_site_fract_y
 _atom_site_fract_z
 _atom_site_occupancy
  Cs  Cs0  1  0.82360977  0.27891575  0.10252552  1
  Cs  Cs1  1  0.67639023  0.77891575  0.45530498  1
  Cs  Cs2  1  0.32360977  0.22108525  0.54469502  1
  Cs  Cs3  1  0.17639023  0.72108425  0.89747448  1
  Na  Na0  1  0.75000000  0.25000000  0.50000000  1
  Na  Na1  1  0.25000000  0.75000000  0.50000000  1
  Sc  Sc0  1  0.25000000  0.25000000  0.00000000  1
  Sc  Sc1  1  0.75000000  0.75000000  0.00000000  1
  Bi  Bi0  1  0.40888053  0.71654933  0.12542785  1
  Bi  Bi1  1  0.09112047  0.21654833  0.30766880  1
  Bi  Bi2  1  0.90888053  0.78345167  0.69233120  1
  Bi  Bi3  1  0.59112047  0.28345167  0.87457215  1
loop_
_geom_bond_atom_site_label_1
_geom_bond_atom_site_label_2
_geom_bond_distance
_geom_bond_site_symmetry_2
Bi0 Sc1 2.967887 1_555
Bi0 Sc0 2.967896 1_555
Bi0 Na0 3.279083 1_565
Bi0 Na1 3.279092 1_555
Bi0 Cs0 4.059120 1_565
Bi0 Cs0 4.059134 1_455
Bi0 Cs2 4.065906 1_554
Bi0 Cs3 4.103885 1_554
Bi0 Cs2 4.130243 1_565
Bi1 Sc1 2.967892 1_445
Bi1 Sc0 2.967892 1_555
Bi1 Na1 3.279087 1_555
Bi1 Na0 3.279087 1_455
Bi1 Cs1 4.059120 1_445
Bi1 Cs1 4.059126 1_555
Bi1 Cs3 4.065913 1_544
Bi1 Cs2 4.103885 1_555
Bi1 Cs3 4.130236 1_555
Bi2 Sc0 2.967887 1_666
Bi2 Sc1 2.967892 1_556
Bi2 Na1 3.279078 1_655
Bi2 Na0 3.279083 1_555
Bi2 Cs2 4.059125 1_665
Bi2 Cs2 4.059132 1_555
Bi2 Cs0 4.065919 1_566
Bi2 Cs1 4.103902 1_555
Bi2 Cs0 4.130236 1_555
Bi3 Sc1 2.967892 1_556
Bi3 Sc0 2.967892 1_556
Bi3 Na1 3.279087 1_545
Bi3 Na0 3.279087 1_555
Bi3 Cs3 4.059127 1_545
Bi3 Cs3 4.059127 1_655
Bi3 Cs1 4.065906 1_556
Bi3 Cs0 4.103885 1_556
Bi3 Cs1 4.130237 1_545
