# generated using pymatgen
data_K2Pd(IO3)6
_symmetry_space_group_name_H-M   'P 1'
_cell_length_a   7.48790333
_cell_length_b   7.48790356
_cell_length_c   7.48790458
_cell_angle_alpha   96.78061375
_cell_angle_beta   96.78061128
_cell_angle_gamma   96.78060718
_symmetry_Int_Tables_number   1
_chemical_formula_structural   K2Pd(IO3)6
_chemical_formula_sum   'K2 Pd1 I6 O18'
_cell_volume   410.25796708
_cell_formula_units_Z   1
loop_
 _symmetry_equiv_pos_site_id
 _symmetry_equiv_pos_as_xyz
  1  'x, y, z'
loop_
 _atom_site_type_symbol
 _atom_site_label
 _atom_site_symmetry_multiplicity
 _atom_site_fract_x
 _atom_site_fract_y
 _atom_site_fract_z
 _atom_site_occupancy
  K  K0  1  0.32452494  0.32452494  0.32452494  1
  K  K1  1  0.67547506  0.67547506  0.67547506  1
  Pd  Pd0  1  0.00000000  0.00000000  0.00000000  1
  I  I0  1  0.83463781  0.63506853  0.20676115  1
  I  I1  1  0.63506853  0.20676115  0.83463781  1
  I  I2  1  0.16536219  0.36493147  0.79323885  1
  I  I3  1  0.20676115  0.83463781  0.63506853  1
  I  I4  1  0.36493147  0.79323885  0.16536219  1
  I  I5  1  0.79323885  0.16536219  0.36493147  1
  O  O0  1  0.80324816  0.81959703  0.05640416  1
  O  O1  1  0.58398237  0.12036245  0.21076951  1
  O  O2  1  0.21076951  0.58398237  0.12036245  1
  O  O3  1  0.18040297  0.94359584  0.19675184  1
  O  O4  1  0.59095888  0.58075535  0.18671042  1
  O  O5  1  0.18671042  0.59095888  0.58075535  1
  O  O6  1  0.78923049  0.41601763  0.87963755  1
  O  O7  1  0.41601763  0.87963755  0.78923049  1
  O  O8  1  0.12036245  0.21076951  0.58398237  1
  O  O9  1  0.94359584  0.19675184  0.18040297  1
  O  O10  1  0.05640416  0.80324816  0.81959703  1
  O  O11  1  0.19675184  0.18040297  0.94359584  1
  O  O12  1  0.81959703  0.05640416  0.80324816  1
  O  O13  1  0.58075535  0.18671042  0.59095888  1
  O  O14  1  0.87963755  0.78923049  0.41601763  1
  O  O15  1  0.40904112  0.41924465  0.81328958  1
  O  O16  1  0.41924465  0.81328958  0.40904112  1
  O  O17  1  0.81328958  0.40904112  0.41924465  1
loop_
_geom_bond_atom_site_label_1
_geom_bond_atom_site_label_2
_geom_bond_distance
_geom_bond_site_symmetry_2
K0 O1 2.760738 1_555
K0 O2 2.760738 1_555
K0 O8 2.760738 1_555
K0 O9 2.932721 1_455
K0 O3 2.932721 1_545
K0 O11 2.932721 1_554
K0 O5 2.962432 1_555
K0 O13 2.962432 1_555
K0 O4 2.962432 1_555
K1 O7 2.760738 1_555
K1 O6 2.760738 1_555
K1 O14 2.760738 1_555
K1 O10 2.932721 1_655
K1 O12 2.932721 1_565
K1 O0 2.932721 1_556
K1 O17 2.962432 1_555
K1 O16 2.962432 1_555
K1 O15 2.962432 1_555
I0 O14 1.804878 1_555
I0 O4 1.806358 1_555
I0 O0 1.900928 1_555
I0 O17 2.460389 1_555
I1 O6 1.804878 1_555
I1 O13 1.806359 1_555
I1 O12 1.900928 1_555
I1 O15 2.460389 1_555
I2 O8 1.804878 1_555
I2 O15 1.806358 1_555
I2 O11 1.900928 1_555
I2 O5 2.460389 1_555
I3 O7 1.804878 1_555
I3 O5 1.806358 1_555
I3 O10 1.900928 1_555
I3 O16 2.460389 1_555
I4 O2 1.804878 1_555
I4 O16 1.806359 1_555
I4 O3 1.900928 1_555
I4 O4 2.460389 1_555
I5 O1 1.804878 1_555
I5 O17 1.806358 1_555
I5 O9 1.900928 1_555
I5 O13 2.460389 1_555
O0 Pd0 1.996334 1_665
O3 Pd0 1.996334 1_565
O9 Pd0 1.996334 1_655
O10 Pd0 1.996334 1_566
O11 Pd0 1.996334 1_556
O12 Pd0 1.996334 1_656
