# generated using pymatgen
data_TaCrOF5
_symmetry_space_group_name_H-M   'P 1'
_cell_length_a   5.63087740
_cell_length_b   5.65391643
_cell_length_c   5.47537168
_cell_angle_alpha   117.64702140
_cell_angle_beta   119.28136819
_cell_angle_gamma   93.40364815
_symmetry_Int_Tables_number   1
_chemical_formula_structural   TaCrOF5
_chemical_formula_sum   'Ta1 Cr1 O1 F5'
_cell_volume   125.09476994
_cell_formula_units_Z   1
loop_
 _symmetry_equiv_pos_site_id
 _symmetry_equiv_pos_as_xyz
  1  'x, y, z'
loop_
 _atom_site_type_symbol
 _atom_site_label
 _atom_site_symmetry_multiplicity
 _atom_site_fract_x
 _atom_site_fract_y
 _atom_site_fract_z
 _atom_site_occupancy
  Ta  Ta0  1  0.68222885  0.99646295  0.32071867  1
  Cr  Cr0  1  0.15755116  0.47300760  0.31883559  1
  O  O0  1  0.93679553  0.22680716  0.34782742  1
  F  F0  1  0.37868257  0.72589731  0.28453667  1
  F  F1  1  0.38335903  0.15939743  0.20754316  1
  F  F2  1  0.47802039  0.69987980  0.83434143  1
  F  F3  1  0.91258861  0.77083449  0.41934432  1
  F  F4  1  0.83192987  0.24294826  0.80032973  1
loop_
_geom_bond_atom_site_label_1
_geom_bond_atom_site_label_2
_geom_bond_distance
_geom_bond_site_symmetry_2
Cr0 O0 1.923708 1_455
Cr0 F0 1.973986 1_555
Cr0 F2 2.061886 1_555
Cr0 F4 2.076423 1_454
Cr0 F1 2.270437 1_555
Cr0 F3 2.280194 1_455
O0 Ta0 1.778674 1_545
F0 Ta0 2.092347 1_555
F1 Ta0 1.938696 1_545
F2 Ta0 1.964030 1_556
F3 Ta0 1.937042 1_555
F4 Ta0 1.961538 1_545
