# generated using pymatgen
data_Al2FeO4
_symmetry_space_group_name_H-M   'P 1'
_cell_length_a   5.74644890
_cell_length_b   5.74645025
_cell_length_c   5.74644069
_cell_angle_alpha   60.00001660
_cell_angle_beta   60.00005728
_cell_angle_gamma   59.99990624
_symmetry_Int_Tables_number   1
_chemical_formula_structural   Al2FeO4
_chemical_formula_sum   'Al4 Fe2 O8'
_cell_volume   134.17854118
_cell_formula_units_Z   2
loop_
 _symmetry_equiv_pos_site_id
 _symmetry_equiv_pos_as_xyz
  1  'x, y, z'
loop_
 _atom_site_type_symbol
 _atom_site_label
 _atom_site_symmetry_multiplicity
 _atom_site_fract_x
 _atom_site_fract_y
 _atom_site_fract_z
 _atom_site_occupancy
  Al  Al0  1  0.49999762  0.49999762  0.49999762  1
  Al  Al1  1  0.49999762  0.49999762  0.00000714  1
  Al  Al2  1  0.49999762  0.00000714  0.49999762  1
  Al  Al3  1  0.00000714  0.49999762  0.49999762  1
  Fe  Fe0  1  0.87500000  0.87500000  0.87500000  1
  Fe  Fe1  1  0.12500000  0.12500000  0.12500000  1
  O  O0  1  0.73476777  0.73476577  0.73476677  1
  O  O1  1  0.26523959  0.26524059  0.70428122  1
  O  O2  1  0.26523859  0.70428122  0.26524059  1
  O  O3  1  0.70428122  0.26523859  0.26523959  1
  O  O4  1  0.73476677  0.29570068  0.73476777  1
  O  O5  1  0.29570068  0.73476677  0.73476577  1
  O  O6  1  0.26524059  0.26523959  0.26523859  1
  O  O7  1  0.73476577  0.73476777  0.29569968  1
loop_
_geom_bond_atom_site_label_1
_geom_bond_atom_site_label_2
_geom_bond_distance
_geom_bond_site_symmetry_2
Al0 O2 1.915827 1_555
Al0 O1 1.915828 1_555
Al0 O3 1.915832 1_555
Al0 O5 1.915912 1_555
Al0 O4 1.915920 1_555
Al0 O7 1.915921 1_555
Al1 O3 1.915826 1_555
Al1 O6 1.915828 1_555
Al1 O2 1.915832 1_555
Al1 O4 1.915908 1_554
Al1 O5 1.915915 1_554
Al1 O0 1.915921 1_554
Al2 O6 1.915827 1_555
Al2 O3 1.915828 1_555
Al2 O1 1.915832 1_555
Al2 O7 1.915912 1_545
Al2 O5 1.915917 1_545
Al2 O0 1.915919 1_545
Al3 O1 1.915827 1_555
Al3 O2 1.915828 1_555
Al3 O6 1.915832 1_555
Al3 O0 1.915912 1_455
Al3 O4 1.915917 1_455
Al3 O7 1.915919 1_455
Fe0 O7 1.973903 1_556
Fe0 O0 1.973904 1_555
Fe0 O4 1.973908 1_565
Fe0 O5 1.973908 1_655
Fe1 O1 1.973993 1_554
Fe1 O2 1.973993 1_545
Fe1 O6 1.973993 1_555
Fe1 O3 1.973993 1_455
