# generated using pymatgen
data_Na14TaNbAs8
_symmetry_space_group_name_H-M   'P 1'
_cell_length_a   7.45047679
_cell_length_b   8.31656060
_cell_length_c   9.22743233
_cell_angle_alpha   90.00000000
_cell_angle_beta   90.00000000
_cell_angle_gamma   90.00343174
_symmetry_Int_Tables_number   1
_chemical_formula_structural   Na14TaNbAs8
_chemical_formula_sum   'Na14 Ta1 Nb1 As8'
_cell_volume   571.75331454
_cell_formula_units_Z   1
loop_
 _symmetry_equiv_pos_site_id
 _symmetry_equiv_pos_as_xyz
  1  'x, y, z'
loop_
 _atom_site_type_symbol
 _atom_site_label
 _atom_site_symmetry_multiplicity
 _atom_site_fract_x
 _atom_site_fract_y
 _atom_site_fract_z
 _atom_site_occupancy
  Na  Na0  1  0.71047611  0.83254875  0.72544568  1
  Na  Na1  1  0.21129086  0.16755893  0.77431838  1
  Na  Na2  1  0.21129086  0.16755893  0.22568162  1
  Na  Na3  1  0.71047611  0.83254875  0.27455432  1
  Na  Na4  1  0.87215199  0.45627187  0.70829722  1
  Na  Na5  1  0.37171303  0.54401191  0.79139107  1
  Na  Na6  1  0.37171303  0.54401191  0.20860893  1
  Na  Na7  1  0.87215199  0.45627187  0.29170278  1
  Na  Na8  1  0.15625537  0.65941788  0.50000000  1
  Na  Na9  1  0.65613829  0.34020239  0.00000000  1
  Na  Na10  1  0.88165778  0.04466750  0.00000000  1
  Na  Na11  1  0.38012818  0.95513586  0.50000000  1
  Na  Na12  1  0.38818821  0.91387477  0.00000000  1
  Na  Na13  1  0.88874845  0.08572990  0.50000000  1
  Ta  Ta0  1  0.49914188  0.32476421  0.50000000  1
  Nb  Nb0  1  0.99894953  0.67519415  0.00000000  1
  As  As0  1  0.66615800  0.67891466  0.00000000  1
  As  As1  1  0.16798999  0.32063257  0.50000000  1
  As  As2  1  0.10362865  0.82368885  0.77717678  1
  As  As3  1  0.60399473  0.17723261  0.72159141  1
  As  As4  1  0.60399473  0.17723261  0.27840859  1
  As  As5  1  0.10362865  0.82368885  0.22282322  1
  As  As6  1  0.58785052  0.61177170  0.50000000  1
  As  As7  1  0.08750505  0.38706655  0.00000000  1
loop_
_geom_bond_atom_site_label_1
_geom_bond_atom_site_label_2
_geom_bond_distance
_geom_bond_site_symmetry_2
Na10 Na9 2.977349 1_555
Na10 Nb0 3.194646 1_545
Na11 Na8 2.971537 1_555
Na11 Ta0 3.199317 1_565
As0 Nb0 2.479651 1_555
As0 Na9 2.817906 1_555
As0 Na12 2.847439 1_555
As0 Na3 2.856534 1_555
As0 Na0 2.856534 1_554
As0 Na6 3.126711 1_555
As0 Na5 3.126711 1_554
As0 Na10 3.439458 1_565
As1 Ta0 2.467477 1_555
As1 Na8 2.818890 1_555
As1 Na2 2.851670 1_555
As1 Na1 2.851670 1_555
As1 Na13 2.853840 1_455
As1 Na4 3.134530 1_455
As1 Na7 3.134530 1_455
As1 Na11 3.426117 1_545
As2 Nb0 2.522057 1_456
As2 Na8 2.926037 1_555
As2 Na0 2.968733 1_455
As2 Na1 2.970251 1_565
As2 Na12 3.047080 1_556
As2 Na5 3.068752 1_555
As2 Na10 3.215636 1_466
As2 Na11 3.461225 1_555
As3 Ta0 2.509321 1_555
As3 Na9 2.930457 1_556
As3 Na1 2.967094 1_555
As3 Na0 2.974597 1_545
As3 Na13 3.043214 1_555
As3 Na4 3.064555 1_555
As3 Na11 3.220893 1_545
As3 Na10 3.477801 1_556
As4 Ta0 2.509321 1_555
As4 Na9 2.930457 1_555
As4 Na2 2.967094 1_555
As4 Na3 2.974597 1_545
As4 Na13 3.043214 1_555
As4 Na7 3.064555 1_555
As4 Na11 3.220893 1_545
As4 Na10 3.477801 1_555
As5 Nb0 2.522057 1_455
As5 Na8 2.926037 1_555
As5 Na3 2.968733 1_455
As5 Na2 2.970251 1_565
As5 Na12 3.047080 1_555
As5 Na6 3.068752 1_555
As5 Na10 3.215636 1_465
As5 Na11 3.461225 1_555
As6 Ta0 2.476690 1_555
As6 Na0 2.921193 1_555
As6 Na3 2.921193 1_555
As6 Na4 3.139063 1_555
As6 Na7 3.139063 1_555
As6 Na5 3.184369 1_555
As6 Na6 3.184369 1_555
As6 Na8 3.239936 1_555
As6 Na11 3.248106 1_555
As7 Nb0 2.485442 1_455
As7 Na1 2.918912 1_554
As7 Na2 2.918912 1_555
As7 Na6 3.145221 1_555
As7 Na5 3.145221 1_554
As7 Na7 3.186033 1_455
As7 Na4 3.186033 1_454
As7 Na10 3.234241 1_455
As7 Na9 3.237411 1_455
