# generated using pymatgen
data_PRuCl9
_symmetry_space_group_name_H-M   'P 1'
_cell_length_a   7.05473327
_cell_length_b   8.91310851
_cell_length_c   9.41693075
_cell_angle_alpha   100.52876168
_cell_angle_beta   95.77987166
_cell_angle_gamma   95.36445788
_symmetry_Int_Tables_number   1
_chemical_formula_structural   PRuCl9
_chemical_formula_sum   'P2 Ru2 Cl18'
_cell_volume   575.40170393
_cell_formula_units_Z   2
loop_
 _symmetry_equiv_pos_site_id
 _symmetry_equiv_pos_as_xyz
  1  'x, y, z'
loop_
 _atom_site_type_symbol
 _atom_site_label
 _atom_site_symmetry_multiplicity
 _atom_site_fract_x
 _atom_site_fract_y
 _atom_site_fract_z
 _atom_site_occupancy
  P  P0  1  0.05062887  0.18858558  0.78001130  1
  P  P1  1  0.94937113  0.81141442  0.21998870  1
  Ru  Ru0  1  0.60908397  0.62949655  0.66493969  1
  Ru  Ru1  1  0.39091603  0.37050345  0.33506031  1
  Cl  Cl0  1  0.37542957  0.57751086  0.22299703  1
  Cl  Cl1  1  0.62457043  0.42248914  0.77700297  1
  Cl  Cl2  1  0.42072643  0.16893151  0.45171170  1
  Cl  Cl3  1  0.57927357  0.83106849  0.54828830  1
  Cl  Cl4  1  0.07661227  0.28096771  0.24332336  1
  Cl  Cl5  1  0.92338773  0.71903229  0.75667664  1
  Cl  Cl6  1  0.50424638  0.23119662  0.13274691  1
  Cl  Cl7  1  0.49575362  0.76880338  0.86725309  1
  Cl  Cl8  1  0.29110296  0.51806679  0.55099038  1
  Cl  Cl9  1  0.70889704  0.48193321  0.44900962  1
  Cl  Cl10  1  0.84256365  0.61059719  0.11179696  1
  Cl  Cl11  1  0.15743635  0.38940281  0.88820304  1
  Cl  Cl12  1  0.95626517  0.20302331  0.58283316  1
  Cl  Cl13  1  0.04373483  0.79697669  0.41716684  1
  Cl  Cl14  1  0.24845080  0.05010014  0.77533015  1
  Cl  Cl15  1  0.75154920  0.94989986  0.22466985  1
  Cl  Cl16  1  0.84089816  0.10718421  0.87285867  1
  Cl  Cl17  1  0.15910184  0.89281579  0.12714133  1
loop_
_geom_bond_atom_site_label_1
_geom_bond_atom_site_label_2
_geom_bond_distance
_geom_bond_site_symmetry_2
Cl0 Ru1 2.292586 1_555
Cl1 Ru0 2.292586 1_555
Cl2 Ru1 2.285651 1_555
Cl3 Ru0 2.285651 1_555
Cl4 Ru1 2.308913 1_555
Cl5 Ru0 2.308913 1_555
Cl6 Ru1 2.332062 1_555
Cl7 Ru0 2.332062 1_555
Cl8 Ru1 2.417559 1_555
Cl8 Ru0 2.424710 1_555
Cl9 Ru0 2.417559 1_555
Cl9 Ru1 2.424710 1_555
Cl10 P1 1.932948 1_555
Cl11 P0 1.932948 1_555
Cl12 P0 1.939551 1_655
Cl13 P1 1.939551 1_455
Cl14 P0 1.946221 1_555
Cl15 P1 1.946221 1_555
Cl16 P0 1.942097 1_655
Cl17 P1 1.942097 1_455
