# generated using pymatgen
data_K3Sr3GaP4
_symmetry_space_group_name_H-M   'P 1'
_cell_length_a   9.92299848
_cell_length_b   9.92299954
_cell_length_c   7.45284715
_cell_angle_alpha   90.00000000
_cell_angle_beta   90.00000000
_cell_angle_gamma   119.99999648
_symmetry_Int_Tables_number   1
_chemical_formula_structural   K3Sr3GaP4
_chemical_formula_sum   'K6 Sr6 Ga2 P8'
_cell_volume   635.53395277
_cell_formula_units_Z   2
loop_
 _symmetry_equiv_pos_site_id
 _symmetry_equiv_pos_as_xyz
  1  'x, y, z'
loop_
 _atom_site_type_symbol
 _atom_site_label
 _atom_site_symmetry_multiplicity
 _atom_site_fract_x
 _atom_site_fract_y
 _atom_site_fract_z
 _atom_site_occupancy
  K  K0  1  0.73017164  0.86508632  0.17588565  1
  K  K1  1  0.86508632  0.13491368  0.67588565  1
  K  K2  1  0.86508632  0.73017164  0.67588565  1
  K  K3  1  0.13491368  0.26982836  0.17588565  1
  K  K4  1  0.13491368  0.86508632  0.17588565  1
  K  K5  1  0.26982836  0.13491368  0.67588565  1
  Sr  Sr0  1  0.05040659  0.52520430  0.49735155  1
  Sr  Sr1  1  0.47479570  0.94959341  0.49735155  1
  Sr  Sr2  1  0.47479570  0.52520430  0.49735155  1
  Sr  Sr3  1  0.52520430  0.47479570  0.99735155  1
  Sr  Sr4  1  0.52520430  0.05040659  0.99735155  1
  Sr  Sr5  1  0.94959341  0.47479570  0.99735155  1
  Ga  Ga0  1  0.33333300  0.66666700  0.87918689  1
  Ga  Ga1  1  0.66666700  0.33333300  0.37918689  1
  P  P0  1  0.66666700  0.33333300  0.71443580  1
  P  P1  1  0.59783754  0.79891877  0.77195557  1
  P  P2  1  0.79891877  0.20108123  0.27195557  1
  P  P3  1  0.79891877  0.59783754  0.27195557  1
  P  P4  1  0.33333300  0.66666700  0.21443580  1
  P  P5  1  0.20108123  0.40216246  0.77195557  1
  P  P6  1  0.20108123  0.79891877  0.77195557  1
  P  P7  1  0.40216246  0.20108123  0.27195557  1
loop_
_geom_bond_atom_site_label_1
_geom_bond_atom_site_label_2
_geom_bond_distance
_geom_bond_site_symmetry_2
K0 P2 3.133633 1_565
K0 P3 3.133642 1_555
K0 P1 3.218067 1_554
K0 P4 3.422342 1_555
K1 P5 3.133636 1_655
K1 P1 3.133636 1_545
K1 P2 3.218071 1_555
K1 P0 3.422342 1_555
K2 P6 3.133632 1_655
K2 P1 3.133642 1_555
K2 P3 3.218068 1_555
K2 P0 3.422342 1_555
K3 P2 3.133632 1_455
K3 P7 3.133642 1_555
K3 P5 3.218068 1_554
K3 P4 3.422342 1_555
K4 P3 3.133636 1_455
K4 P7 3.133636 1_565
K4 P6 3.218071 1_554
K4 P4 3.422342 1_555
K5 P6 3.133633 1_545
K5 P5 3.133642 1_555
K5 P7 3.218067 1_555
K5 P0 3.422342 1_555
Ga0 P6 2.409429 1_555
Ga0 P1 2.409437 1_555
Ga0 P5 2.409438 1_555
Ga0 P4 2.498559 1_556
Ga1 P2 2.409429 1_555
Ga1 P7 2.409437 1_555
Ga1 P3 2.409438 1_555
Ga1 P0 2.498559 1_555
P0 Sr3 3.218276 1_555
P0 Sr5 3.218282 1_555
P0 Sr4 3.218282 1_555
P1 Sr2 3.120907 1_555
P1 Sr1 3.120921 1_555
P1 Sr4 3.371578 1_565
P1 Sr3 3.371595 1_555
P2 Sr4 3.120908 1_554
P2 Sr5 3.120908 1_554
P2 Sr1 3.371589 1_545
P2 Sr0 3.371590 1_655
P3 Sr3 3.120907 1_554
P3 Sr5 3.120921 1_554
P3 Sr0 3.371578 1_655
P3 Sr2 3.371594 1_555
P4 Sr2 3.218276 1_555
P4 Sr0 3.218282 1_555
P4 Sr1 3.218282 1_555
P5 Sr2 3.120907 1_555
P5 Sr0 3.120921 1_555
P5 Sr5 3.371578 1_455
P5 Sr3 3.371594 1_555
P6 Sr1 3.120908 1_555
P6 Sr0 3.120908 1_555
P6 Sr4 3.371589 1_565
P6 Sr5 3.371590 1_455
P7 Sr3 3.120907 1_554
P7 Sr4 3.120921 1_554
P7 Sr1 3.371578 1_545
P7 Sr2 3.371595 1_555
