# generated using pymatgen
data_Ti4Nb2SnSb
_symmetry_space_group_name_H-M   'P 1'
_cell_length_a   7.47039034
_cell_length_b   7.47085538
_cell_length_c   6.24702021
_cell_angle_alpha   65.24264378
_cell_angle_beta   65.24136610
_cell_angle_gamma   81.18957679
_symmetry_Int_Tables_number   1
_chemical_formula_structural   Ti4Nb2SnSb
_chemical_formula_sum   'Ti8 Nb4 Sn2 Sb2'
_cell_volume   287.39659767
_cell_formula_units_Z   2
loop_
 _symmetry_equiv_pos_site_id
 _symmetry_equiv_pos_as_xyz
  1  'x, y, z'
loop_
 _atom_site_type_symbol
 _atom_site_label
 _atom_site_symmetry_multiplicity
 _atom_site_fract_x
 _atom_site_fract_y
 _atom_site_fract_z
 _atom_site_occupancy
  Ti  Ti0  1  0.22835916  0.52249720  0.12616921  1
  Ti  Ti1  1  0.72719612  0.02140184  0.12433633  1
  Ti  Ti2  1  0.77281050  0.47860353  0.37564528  1
  Ti  Ti3  1  0.27164097  0.97749982  0.37380523  1
  Ti  Ti4  1  0.72772328  0.02213674  0.62635813  1
  Ti  Ti5  1  0.22770678  0.52205399  0.62360383  1
  Ti  Ti6  1  0.27228931  0.97793574  0.87641058  1
  Ti  Ti7  1  0.77227241  0.47786588  0.87366155  1
  Nb  Nb0  1  0.00748510  0.24284825  0.12481282  1
  Nb  Nb1  1  0.49252126  0.25714193  0.37518770  1
  Nb  Nb2  1  0.50678318  0.74298419  0.62515868  1
  Nb  Nb3  1  0.99321801  0.75703247  0.87483575  1
  Sn  Sn0  1  0.03148337  0.21770443  0.62542762  1
  Sn  Sn1  1  0.46853643  0.28229755  0.87455833  1
  Sb  Sb0  1  0.53258322  0.71745117  0.12490935  1
  Sb  Sb1  1  0.96738991  0.78254525  0.37511461  1
loop_
_geom_bond_atom_site_label_1
_geom_bond_atom_site_label_2
_geom_bond_distance
_geom_bond_site_symmetry_2
Nb0 Ti7 2.772848 1_454
Nb0 Ti2 2.774105 1_455
Nb0 Ti5 2.850901 1_554
Nb0 Ti4 2.854361 1_455
Nb0 Ti0 2.858319 1_555
Nb0 Ti1 2.862134 1_455
Nb0 Ti3 3.005561 1_545
Nb0 Ti6 3.006650 1_544
Nb0 Sb1 3.127304 1_445
Nb0 Sn1 3.131878 1_554
Nb0 Sn0 3.132382 1_554
Nb0 Sn0 3.132892 1_555
Nb1 Ti4 2.772826 1_555
Nb1 Ti1 2.774084 1_555
Nb1 Ti6 2.850968 1_545
Nb1 Ti7 2.854288 1_554
Nb1 Ti3 2.858398 1_545
Nb1 Ti2 2.862150 1_555
Nb1 Ti0 3.005699 1_555
Nb1 Ti5 3.006718 1_555
Nb1 Sb0 3.127333 1_555
Nb1 Sn0 3.131783 1_555
Nb1 Sn1 3.132369 1_555
Nb1 Sn1 3.132903 1_554
Nb2 Ti6 2.770538 1_555
Nb2 Ti3 2.772036 1_555
Nb2 Ti1 2.847783 1_565
Nb2 Ti0 2.848542 1_556
Nb2 Ti4 2.855077 1_565
Nb2 Ti5 2.855747 1_555
Nb2 Ti2 3.010286 1_555
Nb2 Ti7 3.011096 1_555
Nb2 Sb1 3.128918 1_555
Nb2 Sn1 3.129171 1_555
Nb2 Sb0 3.132741 1_556
Nb2 Sb0 3.134183 1_555
Nb3 Ti5 2.770611 1_655
Nb3 Ti0 2.772003 1_656
Nb3 Ti2 2.847760 1_556
Nb3 Ti3 2.848575 1_655
Nb3 Ti7 2.855105 1_555
Nb3 Ti6 2.855646 1_655
Nb3 Ti1 3.010166 1_566
Nb3 Ti4 3.011011 1_565
Nb3 Sn0 3.129079 1_665
Nb3 Sb0 3.129116 1_556
Nb3 Sb1 3.132711 1_555
Nb3 Sb1 3.134220 1_556
Sn0 Ti3 2.814984 1_545
Sn0 Ti6 2.815333 1_545
Sn0 Ti4 2.877757 1_455
Sn0 Ti1 2.879336 1_456
Sn0 Ti5 2.881694 1_555
Sn0 Ti0 2.882897 1_555
Sn0 Ti7 2.964530 1_455
Sn0 Ti2 2.965221 1_455
Sn1 Ti0 2.814960 1_556
Sn1 Ti5 2.815343 1_555
Sn1 Ti7 2.877718 1_555
Sn1 Ti2 2.879314 1_555
Sn1 Ti6 2.881788 1_545
Sn1 Ti3 2.882900 1_546
Sn1 Ti4 2.964355 1_555
Sn1 Ti1 2.965122 1_556
Sb0 Ti2 2.809026 1_555
Sb0 Ti7 2.809028 1_554
Sb0 Ti1 2.875792 1_565
Sb0 Ti0 2.876772 1_555
Sb0 Ti4 2.877901 1_564
Sb0 Ti5 2.879250 1_555
Sb0 Ti6 2.969336 1_554
Sb0 Ti3 2.970378 1_555
Sb1 Ti4 2.808997 1_565
Sb1 Ti1 2.809000 1_565
Sb1 Ti2 2.875721 1_555
Sb1 Ti3 2.876782 1_655
Sb1 Ti7 2.877838 1_555
Sb1 Ti6 2.879345 1_654
Sb1 Ti5 2.969454 1_655
Sb1 Ti0 2.970604 1_655
