# generated using pymatgen
data_Zr3MnOs2N
_symmetry_space_group_name_H-M   'P 1'
_cell_length_a   8.51909041
_cell_length_b   8.51909027
_cell_length_c   8.51909057
_cell_angle_alpha   59.99999885
_cell_angle_beta   59.99999937
_cell_angle_gamma   59.99999906
_symmetry_Int_Tables_number   1
_chemical_formula_structural   Zr3MnOs2N
_chemical_formula_sum   'Zr12 Mn4 Os8 N4'
_cell_volume   437.18441968
_cell_formula_units_Z   4
loop_
 _symmetry_equiv_pos_site_id
 _symmetry_equiv_pos_as_xyz
  1  'x, y, z'
loop_
 _atom_site_type_symbol
 _atom_site_label
 _atom_site_symmetry_multiplicity
 _atom_site_fract_x
 _atom_site_fract_y
 _atom_site_fract_z
 _atom_site_occupancy
  Zr  Zr0  1  0.80787908  0.80787908  0.19212092  1
  Zr  Zr1  1  0.19212092  0.19212092  0.80787908  1
  Zr  Zr2  1  0.80787908  0.19212092  0.80787908  1
  Zr  Zr3  1  0.19212092  0.80787908  0.19212092  1
  Zr  Zr4  1  0.19212092  0.80787908  0.80787908  1
  Zr  Zr5  1  0.80787908  0.19212092  0.19212092  1
  Zr  Zr6  1  0.44212092  0.44212092  0.05787908  1
  Zr  Zr7  1  0.05787908  0.05787908  0.44212092  1
  Zr  Zr8  1  0.44212092  0.05787908  0.44212092  1
  Zr  Zr9  1  0.05787908  0.44212092  0.05787908  1
  Zr  Zr10  1  0.05787908  0.44212092  0.44212092  1
  Zr  Zr11  1  0.44212092  0.05787908  0.05787908  1
  Mn  Mn0  1  0.12500000  0.62500000  0.62500000  1
  Mn  Mn1  1  0.62500000  0.12500000  0.62500000  1
  Mn  Mn2  1  0.62500000  0.62500000  0.12500000  1
  Mn  Mn3  1  0.62500000  0.62500000  0.62500000  1
  Os  Os0  1  0.73883694  0.42038735  0.42038735  1
  Os  Os1  1  0.42038735  0.73883694  0.42038735  1
  Os  Os2  1  0.42038735  0.42038735  0.73883694  1
  Os  Os3  1  0.42038735  0.42038735  0.42038735  1
  Os  Os4  1  0.51116306  0.82961265  0.82961265  1
  Os  Os5  1  0.82961265  0.51116306  0.82961265  1
  Os  Os6  1  0.82961265  0.82961265  0.51116306  1
  Os  Os7  1  0.82961265  0.82961265  0.82961265  1
  N  N0  1  0.62500000  0.12500000  0.12500000  1
  N  N1  1  0.12500000  0.62500000  0.12500000  1
  N  N2  1  0.12500000  0.12500000  0.62500000  1
  N  N3  1  0.12500000  0.12500000  0.12500000  1
loop_
_geom_bond_atom_site_label_1
_geom_bond_atom_site_label_2
_geom_bond_distance
_geom_bond_site_symmetry_2
Mn0 Os1 2.583580 1_555
Mn0 Os5 2.583580 1_455
Mn0 Os2 2.583580 1_555
Mn0 Os6 2.583580 1_455
Mn0 Os7 2.583585 1_455
Mn0 Os3 2.583585 1_555
Mn1 Os0 2.583580 1_555
Mn1 Os4 2.583580 1_545
Mn1 Os2 2.583580 1_555
Mn1 Os6 2.583580 1_545
Mn1 Os7 2.583585 1_545
Mn1 Os3 2.583585 1_555
Mn2 Os0 2.583580 1_555
Mn2 Os4 2.583580 1_554
Mn2 Os1 2.583580 1_555
Mn2 Os5 2.583580 1_554
Mn2 Os7 2.583585 1_554
Mn2 Os3 2.583585 1_555
Mn3 Os6 2.583587 1_555
Mn3 Os2 2.583587 1_555
Mn3 Os4 2.583587 1_555
Mn3 Os0 2.583587 1_555
Mn3 Os5 2.583587 1_555
Mn3 Os1 2.583587 1_555
Os0 Os1 2.712901 1_555
Os0 Os2 2.712901 1_555
Os0 Os3 2.712901 1_555
Os0 Zr7 2.914879 1_655
Os0 Zr9 2.914879 1_655
Os0 Zr10 2.914883 1_655
Os0 Zr5 3.066441 1_555
Os0 Zr0 3.066448 1_555
Os0 Zr2 3.066448 1_555
Os1 Os2 2.712901 1_555
Os1 Os3 2.712901 1_555
Os1 Zr7 2.914879 1_565
Os1 Zr11 2.914879 1_565
Os1 Zr8 2.914883 1_565
Os1 Zr3 3.066441 1_555
Os1 Zr0 3.066448 1_555
Os1 Zr4 3.066448 1_555
Os2 Os3 2.712901 1_555
Os2 Zr11 2.914879 1_556
Os2 Zr9 2.914879 1_556
Os2 Zr6 2.914883 1_556
Os2 Zr1 3.066441 1_555
Os2 Zr4 3.066448 1_555
Os2 Zr2 3.066448 1_555
Os3 Zr8 2.914875 1_555
Os3 Zr10 2.914875 1_555
Os3 Zr6 2.914875 1_555
Os3 Zr3 3.066444 1_555
Os3 Zr5 3.066444 1_555
Os3 Zr1 3.066444 1_555
Os4 Os5 2.712901 1_555
Os4 Os6 2.712901 1_555
Os4 Os7 2.712901 1_555
Os4 Zr1 2.914879 1_565
Os4 Zr3 2.914879 1_556
Os4 Zr4 2.914883 1_555
Os4 Zr11 3.066441 1_566
Os4 Zr6 3.066448 1_556
Os4 Zr8 3.066448 1_565
Os5 Os6 2.712901 1_555
Os5 Os7 2.712901 1_555
Os5 Zr1 2.914879 1_655
Os5 Zr5 2.914879 1_556
Os5 Zr2 2.914883 1_555
Os5 Zr9 3.066441 1_656
Os5 Zr6 3.066448 1_556
Os5 Zr10 3.066448 1_655
Os6 Os7 2.712901 1_555
Os6 Zr5 2.914879 1_565
Os6 Zr3 2.914879 1_655
Os6 Zr0 2.914883 1_555
Os6 Zr7 3.066441 1_665
Os6 Zr10 3.066448 1_655
Os6 Zr8 3.066448 1_565
Os7 Zr2 2.914875 1_565
Os7 Zr4 2.914875 1_655
Os7 Zr0 2.914875 1_556
Os7 Zr9 3.066444 1_656
Os7 Zr11 3.066444 1_566
Os7 Zr7 3.066444 1_665
N0 Zr6 2.278127 1_555
N0 Zr0 2.278127 1_545
N0 Zr5 2.278127 1_555
N0 Zr2 2.278127 1_554
N0 Zr8 2.278127 1_555
N0 Zr11 2.278127 1_555
N1 Zr0 2.278127 1_455
N1 Zr6 2.278127 1_555
N1 Zr3 2.278127 1_555
N1 Zr10 2.278127 1_555
N1 Zr4 2.278127 1_554
N1 Zr9 2.278127 1_555
N2 Zr10 2.278127 1_555
N2 Zr4 2.278127 1_545
N2 Zr2 2.278127 1_455
N2 Zr8 2.278127 1_555
N2 Zr1 2.278127 1_555
N2 Zr7 2.278127 1_555
N3 Zr9 2.278127 1_555
N3 Zr3 2.278127 1_545
N3 Zr11 2.278127 1_555
N3 Zr5 2.278127 1_455
N3 Zr7 2.278127 1_555
N3 Zr1 2.278127 1_554
