# generated using pymatgen
data_Sb2MoS
_symmetry_space_group_name_H-M   'P 1'
_cell_length_a   18.69470935
_cell_length_b   18.69470935
_cell_length_c   6.57480173
_cell_angle_alpha   85.39891150
_cell_angle_beta   85.39891150
_cell_angle_gamma   19.90853276
_symmetry_Int_Tables_number   1
_chemical_formula_structural   Sb2MoS
_chemical_formula_sum   'Sb16 Mo8 S8'
_cell_volume   779.86067834
_cell_formula_units_Z   8
loop_
 _symmetry_equiv_pos_site_id
 _symmetry_equiv_pos_as_xyz
  1  'x, y, z'
loop_
 _atom_site_type_symbol
 _atom_site_label
 _atom_site_symmetry_multiplicity
 _atom_site_fract_x
 _atom_site_fract_y
 _atom_site_fract_z
 _atom_site_occupancy
  Sb  Sb0  1  0.98968144  0.98968144  0.79633429  1
  Sb  Sb1  1  0.01031856  0.01031856  0.20366571  1
  Sb  Sb2  1  0.48960518  0.48960518  0.79626138  1
  Sb  Sb3  1  0.51039482  0.51039482  0.20373862  1
  Sb  Sb4  1  0.91392446  0.91392446  0.92224140  1
  Sb  Sb5  1  0.08607554  0.08607554  0.07775860  1
  Sb  Sb6  1  0.41307449  0.91265620  0.92398169  1
  Sb  Sb7  1  0.08734380  0.58692551  0.07601831  1
  Sb  Sb8  1  0.58692551  0.08734380  0.07601831  1
  Sb  Sb9  1  0.91265620  0.41307449  0.92398169  1
  Sb  Sb10  1  0.41389772  0.41389772  0.92215054  1
  Sb  Sb11  1  0.58610228  0.58610228  0.07784946  1
  Sb  Sb12  1  0.51482068  0.96393183  0.79486747  1
  Sb  Sb13  1  0.03606817  0.48517932  0.20513253  1
  Sb  Sb14  1  0.48517932  0.03606817  0.20513253  1
  Sb  Sb15  1  0.96393183  0.51482068  0.79486747  1
  Mo  Mo0  1  0.87787967  0.87787967  0.33024737  1
  Mo  Mo1  1  0.12212033  0.12212033  0.66975263  1
  Mo  Mo2  1  0.37764403  0.87820455  0.33111917  1
  Mo  Mo3  1  0.12179545  0.62235597  0.66888083  1
  Mo  Mo4  1  0.62235597  0.12179545  0.66888083  1
  Mo  Mo5  1  0.87820455  0.37764403  0.33111917  1
  Mo  Mo6  1  0.37792699  0.37792699  0.32963627  1
  Mo  Mo7  1  0.62207301  0.62207301  0.67036373  1
  S  S0  1  0.32851961  0.32851961  0.58762566  1
  S  S1  1  0.67148039  0.67148039  0.41237434  1
  S  S2  1  0.32839373  0.82855054  0.58852671  1
  S  S3  1  0.17144946  0.67160627  0.41147329  1
  S  S4  1  0.67160627  0.17144946  0.41147329  1
  S  S5  1  0.82855054  0.32839373  0.58852671  1
  S  S6  1  0.82844368  0.82844368  0.58756263  1
  S  S7  1  0.17155632  0.17155632  0.41243737  1
loop_
_geom_bond_atom_site_label_1
_geom_bond_atom_site_label_2
_geom_bond_distance
_geom_bond_site_symmetry_2
Sb0 Sb1 2.842793 1_666
Sb0 Sb4 2.844724 1_555
Sb0 Sb2 3.231607 1_565
Sb0 Sb2 3.231607 1_655
Sb1 Sb5 2.844724 1_555
Sb1 Sb3 3.231607 1_455
Sb1 Sb3 3.231607 1_545
Sb2 Sb3 2.845654 1_556
Sb10 Sb2 2.842954 1_555
Sb11 Sb3 2.842954 1_555
Sb12 Sb6 2.880396 1_555
Sb12 Sb14 2.887952 1_566
Sb12 Sb15 2.902700 1_555
Sb13 Sb7 2.880396 1_555
Sb13 Sb15 2.887952 1_454
Sb13 Sb14 2.902700 1_555
Sb14 Sb8 2.880396 1_555
Sb15 Sb9 2.880396 1_555
Mo0 S4 2.370230 1_565
Mo0 S3 2.370230 1_655
Mo0 S6 2.382207 1_555
Mo0 Sb8 2.840626 1_565
Mo0 Sb7 2.840626 1_655
Mo0 Sb4 2.894496 1_554
Mo1 S2 2.370230 1_545
Mo1 S5 2.370230 1_455
Mo1 S7 2.382207 1_555
Mo1 Sb6 2.840626 1_545
Mo1 Sb9 2.840626 1_455
Mo1 Sb5 2.894496 1_556
Mo2 S7 2.369096 1_565
Mo2 S1 2.369505 1_555
Mo2 S2 2.383021 1_555
Mo2 Sb5 2.858871 1_565
Mo2 Sb11 2.859967 1_555
Mo2 Sb6 2.874059 1_554
Mo3 S6 2.369096 1_455
Mo3 S0 2.369505 1_555
Mo3 S3 2.383021 1_555
Mo3 Sb4 2.858871 1_455
Mo3 Sb10 2.859967 1_555
Mo3 Sb7 2.874059 1_556
Mo4 S6 2.369096 1_545
Mo4 S0 2.369505 1_555
Mo4 S4 2.383021 1_555
Mo4 Sb4 2.858871 1_545
Mo4 Sb10 2.859967 1_555
Mo4 Sb8 2.874059 1_556
Mo5 S7 2.369096 1_655
Mo5 S1 2.369505 1_555
Mo5 S5 2.383021 1_555
Mo5 Sb5 2.858871 1_655
Mo5 Sb11 2.859967 1_555
Mo5 Sb9 2.874059 1_554
Mo6 S3 2.370838 1_555
Mo6 S4 2.370838 1_555
Mo6 S0 2.384338 1_555
Mo6 Sb7 2.837556 1_555
Mo6 Sb8 2.837556 1_555
Mo6 Sb10 2.890409 1_554
Mo7 S5 2.370838 1_555
Mo7 S2 2.370838 1_555
Mo7 S1 2.384338 1_555
Mo7 Sb9 2.837556 1_555
Mo7 Sb6 2.837556 1_555
Mo7 Sb11 2.890409 1_556
