# generated using pymatgen
data_ZrGa3
_symmetry_space_group_name_H-M   'P 1'
_cell_length_a   3.88615139
_cell_length_b   3.88615132
_cell_length_c   5.31567364
_cell_angle_alpha   111.44063587
_cell_angle_beta   111.44062586
_cell_angle_gamma   89.99999080
_symmetry_Int_Tables_number   1
_chemical_formula_structural   ZrGa3
_chemical_formula_sum   'Zr1 Ga3'
_cell_volume   68.71954055
_cell_formula_units_Z   1
loop_
 _symmetry_equiv_pos_site_id
 _symmetry_equiv_pos_as_xyz
  1  'x, y, z'
loop_
 _atom_site_type_symbol
 _atom_site_label
 _atom_site_symmetry_multiplicity
 _atom_site_fract_x
 _atom_site_fract_y
 _atom_site_fract_z
 _atom_site_occupancy
  Zr  Zr0  1  0.00000000  -0.00000000  -0.00000000  1
  Ga  Ga0  1  0.75000000  0.25000000  0.50000000  1
  Ga  Ga1  1  0.50000000  0.50000000  -0.00000000  1
  Ga  Ga2  1  0.25000000  0.75000000  0.50000000  1
loop_
_geom_bond_atom_site_label_1
_geom_bond_atom_site_label_2
_geom_bond_distance
_geom_bond_site_symmetry_2
Ga0 Ga2 2.747924 1_555
Ga0 Ga2 2.747924 1_645
Ga0 Ga2 2.747924 1_545
Ga0 Ga2 2.747924 1_655
Ga0 Zr0 2.991967 1_655
Ga0 Ga1 2.991967 1_556
Ga0 Zr0 2.991967 1_656
Ga0 Ga1 2.991967 1_555
Ga0 Zr0 2.991968 1_666
Ga0 Ga1 2.991968 1_545
Ga0 Ga1 2.991968 1_656
Ga0 Zr0 2.991968 1_555
Ga1 Zr0 2.747924 1_655
Ga1 Zr0 2.747924 1_565
Ga1 Zr0 2.747924 1_665
Ga1 Zr0 2.747924 1_555
Ga1 Ga2 2.991967 1_555
Ga1 Ga2 2.991967 1_554
Ga1 Ga2 2.991968 1_544
Ga1 Ga2 2.991968 1_655
Ga2 Zr0 2.991967 1_566
Ga2 Zr0 2.991967 1_565
Ga2 Zr0 2.991968 1_555
Ga2 Zr0 2.991968 1_666
