# generated using pymatgen
data_Sr4Fe2RhWO12
_symmetry_space_group_name_H-M   'P 1'
_cell_length_a   5.54646948
_cell_length_b   5.56833249
_cell_length_c   9.65021693
_cell_angle_alpha   89.71282977
_cell_angle_beta   106.74092549
_cell_angle_gamma   119.72296691
_symmetry_Int_Tables_number   1
_chemical_formula_structural   Sr4Fe2RhWO12
_chemical_formula_sum   'Sr4 Fe2 Rh1 W1 O12'
_cell_volume   244.43381645
_cell_formula_units_Z   1
loop_
 _symmetry_equiv_pos_site_id
 _symmetry_equiv_pos_as_xyz
  1  'x, y, z'
loop_
 _atom_site_type_symbol
 _atom_site_label
 _atom_site_symmetry_multiplicity
 _atom_site_fract_x
 _atom_site_fract_y
 _atom_site_fract_z
 _atom_site_occupancy
  Sr  Sr0  1  0.75615856  0.62823653  0.38507533  1
  Sr  Sr1  1  0.74253753  0.12129767  0.86305723  1
  Sr  Sr2  1  0.25746247  0.87870233  0.13694277  1
  Sr  Sr3  1  0.24384144  0.37176347  0.61492467  1
  Fe  Fe0  1  0.00475131  0.25319176  0.25736072  1
  Fe  Fe1  1  0.99524869  0.74680824  0.74263928  1
  Rh  Rh0  1  0.50000000  0.00000000  0.50000000  1
  W  W0  1  0.50000000  0.50000000  0.00000000  1
  O  O0  1  0.74485289  0.86626343  0.11924401  1
  O  O1  1  0.74378722  0.37399240  0.62686029  1
  O  O2  1  0.25621278  0.62600760  0.37313971  1
  O  O3  1  0.25514711  0.13373657  0.88075599  1
  O  O4  1  0.21776741  0.10371740  0.38515997  1
  O  O5  1  0.22532251  0.60866038  0.89619312  1
  O  O6  1  0.78223259  0.89628260  0.61484003  1
  O  O7  1  0.77467749  0.39133962  0.10380688  1
  O  O8  1  0.70943028  0.63447697  0.86280246  1
  O  O9  1  0.72549824  0.14469422  0.36103657  1
  O  O10  1  0.27450176  0.85530578  0.63896343  1
  O  O11  1  0.29056972  0.36552303  0.13719754  1
loop_
_geom_bond_atom_site_label_1
_geom_bond_atom_site_label_2
_geom_bond_distance
_geom_bond_site_symmetry_2
Fe0 O9 1.929701 1_455
Fe0 O4 1.932639 1_555
Fe0 O2 1.938460 1_555
Fe0 O7 2.070896 1_455
Fe0 O11 2.077864 1_555
Fe0 O0 2.082955 1_445
Fe1 O10 1.929701 1_655
Fe1 O6 1.932639 1_555
Fe1 O1 1.938460 1_555
Fe1 O5 2.070896 1_655
Fe1 O8 2.077864 1_555
Fe1 O3 2.082955 1_665
O0 W0 1.924761 1_555
O0 Sr2 2.764542 1_655
O0 Sr2 2.791694 1_555
O0 Sr1 2.844917 1_564
O0 Sr0 2.880491 1_555
O1 Rh0 1.985847 1_555
O1 Sr1 2.672577 1_555
O1 Sr0 2.723222 1_555
O1 Sr3 2.735777 1_555
O1 Sr3 2.814979 1_655
O2 Rh0 1.985847 1_565
O2 Sr2 2.672577 1_555
O2 Sr3 2.723222 1_555
O2 Sr0 2.735777 1_555
O2 Sr0 2.814979 1_455
O3 W0 1.924761 1_556
O3 Sr1 2.764542 1_455
O3 Sr1 2.791694 1_555
O3 Sr2 2.844917 1_546
O3 Sr3 2.880491 1_555
O4 Rh0 1.975561 1_555
O4 Sr3 2.607567 1_555
O4 Sr0 2.615728 1_445
O4 Sr2 2.821973 1_545
O4 Sr0 2.966565 1_555
O5 W0 1.928580 1_556
O5 Sr1 2.635676 1_455
O5 Sr2 2.687215 1_556
O5 Sr1 2.979814 1_565
O5 Sr3 3.073910 1_555
O6 Rh0 1.975561 1_565
O6 Sr0 2.607567 1_555
O6 Sr3 2.615728 1_665
O6 Sr1 2.821973 1_565
O6 Sr3 2.966565 1_555
O7 W0 1.928580 1_555
O7 Sr2 2.635676 1_655
O7 Sr1 2.687215 1_554
O7 Sr2 2.979814 1_545
O7 Sr0 3.073910 1_555
O8 W0 1.917420 1_556
O8 Sr1 2.624549 1_565
O8 Sr3 2.694645 1_555
O8 Sr1 2.952851 1_555
O8 Sr2 3.064643 1_656
O9 Rh0 1.991976 1_555
O9 Sr2 2.568005 1_545
O9 Sr0 2.619526 1_555
O9 Sr3 2.869767 1_655
O9 Sr0 2.967919 1_545
O10 Rh0 1.991976 1_565
O10 Sr1 2.568005 1_565
O10 Sr3 2.619526 1_555
O10 Sr0 2.869767 1_455
O10 Sr3 2.967919 1_565
O11 W0 1.917420 1_555
O11 Sr2 2.624549 1_545
O11 Sr0 2.694645 1_555
O11 Sr2 2.952851 1_555
O11 Sr1 3.064643 1_454
