# generated using pymatgen
data_Ho(SiRh)2
_symmetry_space_group_name_H-M   'P 1'
_cell_length_a   4.02915315
_cell_length_b   4.02915307
_cell_length_c   5.72153178
_cell_angle_alpha   110.61607679
_cell_angle_beta   110.61608857
_cell_angle_gamma   90.00000275
_symmetry_Int_Tables_number   1
_chemical_formula_structural   Ho(SiRh)2
_chemical_formula_sum   'Ho1 Si2 Rh2'
_cell_volume   80.54929980
_cell_formula_units_Z   1
loop_
 _symmetry_equiv_pos_site_id
 _symmetry_equiv_pos_as_xyz
  1  'x, y, z'
loop_
 _atom_site_type_symbol
 _atom_site_label
 _atom_site_symmetry_multiplicity
 _atom_site_fract_x
 _atom_site_fract_y
 _atom_site_fract_z
 _atom_site_occupancy
  Ho  Ho0  1  -0.00000000  -0.00000000  0.00000000  1
  Si  Si0  1  0.62152351  0.62152351  0.24304701  1
  Si  Si1  1  0.37847649  0.37847649  0.75695299  1
  Rh  Rh0  1  0.25000000  0.75000000  0.50000000  1
  Rh  Rh1  1  0.75000000  0.25000000  0.50000000  1
loop_
_geom_bond_atom_site_label_1
_geom_bond_atom_site_label_2
_geom_bond_distance
_geom_bond_site_symmetry_2
Ho0 Si0 3.093755 1_545
Ho0 Si1 3.093755 1_454
Ho0 Si1 3.093755 1_554
Ho0 Si0 3.093755 1_445
Ho0 Si0 3.093755 1_555
Ho0 Si1 3.093755 1_444
Ho0 Si1 3.093755 1_544
Ho0 Si0 3.093755 1_455
Ho0 Rh0 3.195816 1_545
Ho0 Rh1 3.195816 1_454
Ho0 Rh0 3.195816 1_444
Ho0 Rh1 3.195816 1_555
Ho0 Rh1 3.195816 1_455
Ho0 Rh0 3.195816 1_544
Ho0 Rh1 3.195816 1_444
Ho0 Rh0 3.195816 1_555
Si0 Si1 2.411873 1_554
Rh0 Si1 2.384109 1_555
Rh0 Si0 2.384109 1_455
Rh0 Si1 2.384109 1_565
Rh0 Si0 2.384109 1_555
Rh1 Si0 2.384109 1_555
Rh1 Si1 2.384109 1_655
Rh1 Si0 2.384109 1_545
Rh1 Si1 2.384109 1_555
