# generated using pymatgen
data_Cs4LiAgAs2
_symmetry_space_group_name_H-M   'P 1'
_cell_length_a   6.98400954
_cell_length_b   6.98400962
_cell_length_c   6.39217641
_cell_angle_alpha   90.03298814
_cell_angle_beta   90.03296648
_cell_angle_gamma   107.22263315
_symmetry_Int_Tables_number   1
_chemical_formula_structural   Cs4LiAgAs2
_chemical_formula_sum   'Cs4 Li1 Ag1 As2'
_cell_volume   297.80706606
_cell_formula_units_Z   1
loop_
 _symmetry_equiv_pos_site_id
 _symmetry_equiv_pos_as_xyz
  1  'x, y, z'
loop_
 _atom_site_type_symbol
 _atom_site_label
 _atom_site_symmetry_multiplicity
 _atom_site_fract_x
 _atom_site_fract_y
 _atom_site_fract_z
 _atom_site_occupancy
  Cs  Cs0  1  0.97480060  0.31143876  0.75358712  1
  Cs  Cs1  1  0.31143876  0.97480060  0.75358712  1
  Cs  Cs2  1  0.02519940  0.68856124  0.24641288  1
  Cs  Cs3  1  0.68856124  0.02519940  0.24641288  1
  Li  Li0  1  0.50000000  0.50000000  0.50000000  1
  Ag  Ag0  1  0.50000000  0.50000000  0.00000000  1
  As  As0  1  0.73410428  0.73410428  0.74554905  1
  As  As1  1  0.26589572  0.26589572  0.25445095  1
loop_
_geom_bond_atom_site_label_1
_geom_bond_atom_site_label_2
_geom_bond_distance
_geom_bond_site_symmetry_2
Ag0 As1 2.532783 1_555
Ag0 As0 2.532783 1_554
Ag0 Li0 3.196088 1_555
Ag0 Li0 3.196088 1_554
Ag0 Cs3 3.847073 1_565
Ag0 Cs1 3.847073 1_544
Ag0 Cs2 3.847073 1_655
Ag0 Cs0 3.847073 1_454
Ag0 Cs0 4.219094 1_554
Ag0 Cs2 4.219094 1_555
Ag0 Cs3 4.219095 1_555
Ag0 Cs1 4.219095 1_554
As0 Li0 2.494212 1_555
As0 Cs1 3.805359 1_555
As0 Cs0 3.805359 1_555
As0 Cs2 3.847498 1_655
As0 Cs3 3.847499 1_565
As0 Cs3 3.855024 1_566
As0 Cs2 3.855025 1_656
As0 Cs1 3.882303 1_655
As0 Cs0 3.882303 1_565
As1 Li0 2.494212 1_555
As1 Cs3 3.805359 1_555
As1 Cs2 3.805359 1_555
As1 Cs0 3.847498 1_455
As1 Cs1 3.847499 1_545
As1 Cs1 3.855024 1_544
As1 Cs0 3.855025 1_454
As1 Cs3 3.882303 1_455
As1 Cs2 3.882303 1_545
