# generated using pymatgen
data_Li2InSnPd4
_symmetry_space_group_name_H-M   'P 1'
_cell_length_a   7.71153771
_cell_length_b   7.71153762
_cell_length_c   7.71153907
_cell_angle_alpha   33.52852209
_cell_angle_beta   33.52852413
_cell_angle_gamma   33.52852463
_symmetry_Int_Tables_number   1
_chemical_formula_structural   Li2InSnPd4
_chemical_formula_sum   'Li2 In1 Sn1 Pd4'
_cell_volume   124.61701792
_cell_formula_units_Z   1
loop_
 _symmetry_equiv_pos_site_id
 _symmetry_equiv_pos_as_xyz
  1  'x, y, z'
loop_
 _atom_site_type_symbol
 _atom_site_label
 _atom_site_symmetry_multiplicity
 _atom_site_fract_x
 _atom_site_fract_y
 _atom_site_fract_z
 _atom_site_occupancy
  Li  Li0  1  0.25046779  0.25046779  0.25046779  1
  Li  Li1  1  0.74953221  0.74953221  0.74953221  1
  In  In0  1  0.00000000  0.00000000  0.00000000  1
  Sn  Sn0  1  0.50000000  0.50000000  0.50000000  1
  Pd  Pd0  1  0.62379086  0.62379086  0.62379086  1
  Pd  Pd1  1  0.12590280  0.12590280  0.12590280  1
  Pd  Pd2  1  0.87409720  0.87409720  0.87409720  1
  Pd  Pd3  1  0.37620914  0.37620914  0.37620914  1
loop_
_geom_bond_atom_site_label_1
_geom_bond_atom_site_label_2
_geom_bond_distance
_geom_bond_site_symmetry_2
Li0 Pd0 2.712468 1_554
Li0 Pd0 2.712469 1_545
Li0 Pd0 2.712469 1_455
Li0 Pd1 2.717235 1_555
Li0 Pd2 2.734572 1_445
Li0 Pd2 2.734572 1_454
Li0 Pd2 2.734573 1_544
Li0 Pd3 2.742896 1_555
Li0 Sn0 3.152489 1_545
Li0 Sn0 3.152489 1_455
Li0 Sn0 3.152490 1_554
Li1 Pd3 2.712468 1_556
Li1 Pd3 2.712469 1_565
Li1 Pd3 2.712469 1_655
Li1 Pd2 2.717235 1_555
Li1 Pd1 2.734572 1_665
Li1 Pd1 2.734572 1_656
Li1 Pd1 2.734573 1_566
Li1 Pd0 2.742896 1_555
Li1 Sn0 3.152489 1_565
Li1 Sn0 3.152489 1_655
Li1 Sn0 3.152490 1_556
In0 Pd3 2.733365 1_554
In0 Pd0 2.733365 1_445
In0 Pd3 2.733365 1_545
In0 Pd0 2.733365 1_454
In0 Pd3 2.733366 1_455
In0 Pd0 2.733366 1_544
In0 Pd1 2.746418 1_555
In0 Pd2 2.746418 1_444
In0 Li1 3.140699 1_454
In0 Li0 3.140699 1_545
In0 Li1 3.140699 1_544
In0 Li0 3.140699 1_455
In0 Li1 3.140700 1_445
In0 Li0 3.140700 1_554
Pd0 Sn0 2.700348 1_555
Pd1 Sn0 2.717946 1_554
Pd1 Sn0 2.717946 1_545
Pd1 Sn0 2.717946 1_455
Pd2 Sn0 2.717946 1_556
Pd2 Sn0 2.717946 1_565
Pd2 Sn0 2.717946 1_655
Pd3 Sn0 2.700348 1_555
