# generated using pymatgen
data_Cr2SbTe
_symmetry_space_group_name_H-M   'P 1'
_cell_length_a   4.13653800
_cell_length_b   4.13653801
_cell_length_c   6.39561200
_cell_angle_alpha   90.00000000
_cell_angle_beta   90.00000000
_cell_angle_gamma   119.99999994
_symmetry_Int_Tables_number   1
_chemical_formula_structural   Cr2SbTe
_chemical_formula_sum   'Cr2 Sb1 Te1'
_cell_volume   94.77346912
_cell_formula_units_Z   1
loop_
 _symmetry_equiv_pos_site_id
 _symmetry_equiv_pos_as_xyz
  1  'x, y, z'
loop_
 _atom_site_type_symbol
 _atom_site_label
 _atom_site_symmetry_multiplicity
 _atom_site_fract_x
 _atom_site_fract_y
 _atom_site_fract_z
 _atom_site_occupancy
  Cr  Cr0  1  0.00000000  0.00000000  0.99424300  1
  Cr  Cr1  1  0.00000000  0.00000000  0.50575700  1
  Sb  Sb0  1  0.66666700  0.33333300  0.75000000  1
  Te  Te0  1  0.33333300  0.66666700  0.25000000  1
loop_
_geom_bond_atom_site_label_1
_geom_bond_atom_site_label_2
_geom_bond_distance
_geom_bond_site_symmetry_2
Cr0 Sb0 2.853724 1_455
Cr0 Sb0 2.853727 1_555
Cr0 Sb0 2.853727 1_445
Cr0 Te0 2.894689 1_546
Cr0 Te0 2.894692 1_446
Cr0 Te0 2.894692 1_556
Cr1 Sb0 2.853724 1_455
Cr1 Sb0 2.853727 1_555
Cr1 Sb0 2.853727 1_445
Cr1 Te0 2.894689 1_545
Cr1 Te0 2.894692 1_445
Cr1 Te0 2.894692 1_555
