# generated using pymatgen
data_CsCu2AuS2
_symmetry_space_group_name_H-M   'P 1'
_cell_length_a   5.34365517
_cell_length_b   5.63687694
_cell_length_c   6.37954378
_cell_angle_alpha   90.31898305
_cell_angle_beta   90.00000032
_cell_angle_gamma   118.29367558
_symmetry_Int_Tables_number   1
_chemical_formula_structural   CsCu2AuS2
_chemical_formula_sum   'Cs1 Cu2 Au1 S2'
_cell_volume   169.20060776
_cell_formula_units_Z   1
loop_
 _symmetry_equiv_pos_site_id
 _symmetry_equiv_pos_as_xyz
  1  'x, y, z'
loop_
 _atom_site_type_symbol
 _atom_site_label
 _atom_site_symmetry_multiplicity
 _atom_site_fract_x
 _atom_site_fract_y
 _atom_site_fract_z
 _atom_site_occupancy
  Cs  Cs0  1  0.00000000  0.00000000  0.50000000  1
  Cu  Cu0  1  0.50000000  0.50000000  0.00000000  1
  Cu  Cu1  1  0.00000000  0.50000000  0.00000000  1
  Au  Au0  1  0.50000000  0.00000000  0.00000000  1
  S  S0  1  0.67783719  0.35567337  0.75818718  1
  S  S1  1  0.32216281  0.64432663  0.24181282  1
loop_
_geom_bond_atom_site_label_1
_geom_bond_atom_site_label_2
_geom_bond_distance
_geom_bond_site_symmetry_2
Cs0 S0 3.596023 1_455
Cs0 S1 3.596023 1_545
Cs0 S0 3.596026 1_555
Cs0 S1 3.596026 1_445
Cs0 S1 3.606562 1_555
Cs0 S0 3.606562 1_445
Cu0 S1 2.159549 1_555
Cu0 S0 2.159549 1_554
Cu1 S1 2.159545 1_555
Cu1 S0 2.159545 1_454
Au0 S0 2.351750 1_554
Au0 S1 2.351750 1_545
Au0 Cu1 2.818438 1_655
Au0 Cu1 2.818438 1_545
Au0 Cu0 2.818438 1_545
Au0 Cu0 2.818438 1_555
