# generated using pymatgen
data_RbAlCuAs2
_symmetry_space_group_name_H-M   'P 1'
_cell_length_a   8.20348612
_cell_length_b   8.20348623
_cell_length_c   8.20348777
_cell_angle_alpha   152.57049061
_cell_angle_beta   152.57049200
_cell_angle_gamma   39.18077744
_symmetry_Int_Tables_number   1
_chemical_formula_structural   RbAlCuAs2
_chemical_formula_sum   'Rb1 Al1 Cu1 As2'
_cell_volume   116.94430678
_cell_formula_units_Z   1
loop_
 _symmetry_equiv_pos_site_id
 _symmetry_equiv_pos_as_xyz
  1  'x, y, z'
loop_
 _atom_site_type_symbol
 _atom_site_label
 _atom_site_symmetry_multiplicity
 _atom_site_fract_x
 _atom_site_fract_y
 _atom_site_fract_z
 _atom_site_occupancy
  Rb  Rb0  1  0.00000000  0.00000000  0.00000000  1
  Al  Al0  1  0.25000000  0.75000000  0.50000000  1
  Cu  Cu0  1  0.75000000  0.25000000  0.50000000  1
  As  As0  1  0.35113646  0.35113646  1.00000000  1
  As  As1  1  0.64886354  0.64886354  0.00000000  1
loop_
_geom_bond_atom_site_label_1
_geom_bond_atom_site_label_2
_geom_bond_distance
_geom_bond_site_symmetry_2
Al0 As1 2.495337 1_455
Al0 As0 2.495337 1_565
Al0 As1 2.495338 1_556
Al0 As0 2.495338 1_554
Al0 Cu0 2.750576 1_555
Al0 Cu0 2.750576 1_465
Al0 Cu0 2.750576 1_454
Al0 Cu0 2.750576 1_566
As0 Cu0 2.495337 1_455
As0 Cu0 2.495338 1_556
As0 Rb0 3.586133 1_667
As0 Rb0 3.586133 1_656
As0 Rb0 3.586134 1_566
As0 Rb0 3.586135 1_555
As1 Cu0 2.495337 1_565
As1 Cu0 2.495338 1_554
As1 Rb0 3.586133 1_554
As1 Rb0 3.586133 1_565
As1 Rb0 3.586134 1_655
As1 Rb0 3.586135 1_666
