# generated using pymatgen
data_Be3BW3
_symmetry_space_group_name_H-M   'P 1'
_cell_length_a   4.54105822
_cell_length_b   4.54105713
_cell_length_c   10.81880883
_cell_angle_alpha   90.00000000
_cell_angle_beta   90.00000000
_cell_angle_gamma   138.36842661
_symmetry_Int_Tables_number   1
_chemical_formula_structural   Be3BW3
_chemical_formula_sum   'Be6 B2 W6'
_cell_volume   148.21177339
_cell_formula_units_Z   2
loop_
 _symmetry_equiv_pos_site_id
 _symmetry_equiv_pos_as_xyz
  1  'x, y, z'
loop_
 _atom_site_type_symbol
 _atom_site_label
 _atom_site_symmetry_multiplicity
 _atom_site_fract_x
 _atom_site_fract_y
 _atom_site_fract_z
 _atom_site_occupancy
  Be  Be0  1  0.08048231  0.91951769  0.59785708  1
  Be  Be1  1  0.91951769  0.08048231  0.40214292  1
  Be  Be2  1  0.91951769  0.08048231  0.09785708  1
  Be  Be3  1  0.08048231  0.91951769  0.90214292  1
  Be  Be4  1  0.50000000  0.50000000  0.00000000  1
  Be  Be5  1  0.50000000  0.50000000  0.50000000  1
  B  B0  1  0.79092901  0.20907099  0.25000000  1
  B  B1  1  0.20907099  0.79092901  0.75000000  1
  W  W0  1  0.50439544  0.49560456  0.25000000  1
  W  W1  1  0.49560456  0.50439544  0.75000000  1
  W  W2  1  0.78899436  0.21100564  0.60782370  1
  W  W3  1  0.21100564  0.78899436  0.39217630  1
  W  W4  1  0.21100564  0.78899436  0.10782370  1
  W  W5  1  0.78899436  0.21100564  0.89217630  1
loop_
_geom_bond_atom_site_label_1
_geom_bond_atom_site_label_2
_geom_bond_distance
_geom_bond_site_symmetry_2
Be0 Be5 2.047384 1_565
Be0 Be5 2.047384 1_455
Be0 W2 2.397725 1_455
Be0 W2 2.397726 1_565
Be0 W1 2.415089 1_565
Be0 W1 2.415090 1_455
Be0 W2 2.476878 1_465
Be0 W3 2.485838 1_555
Be1 Be5 2.047384 1_545
Be1 Be5 2.047384 1_655
Be1 W3 2.397725 1_655
Be1 W3 2.397726 1_545
Be1 W0 2.415089 1_545
Be1 W0 2.415090 1_655
Be1 W3 2.476878 1_645
Be1 W2 2.485838 1_555
Be2 Be4 2.047384 1_545
Be2 Be4 2.047384 1_655
Be2 W4 2.397725 1_655
Be2 W4 2.397726 1_545
Be2 W0 2.415089 1_545
Be2 W0 2.415090 1_655
Be2 W4 2.476878 1_645
Be2 W5 2.485838 1_554
Be3 Be4 2.047384 1_566
Be3 Be4 2.047384 1_456
Be3 W5 2.397725 1_455
Be3 W5 2.397726 1_565
Be3 W1 2.415089 1_565
Be3 W1 2.415090 1_455
Be3 W5 2.476878 1_465
Be3 W4 2.485838 1_556
Be4 W4 2.678363 1_545
Be4 W5 2.678363 1_564
Be4 W4 2.678364 1_655
Be4 W5 2.678364 1_454
Be4 W1 2.704960 1_554
Be4 W0 2.704960 1_555
Be4 W4 2.716572 1_555
Be4 W5 2.716572 1_554
Be5 W2 2.678363 1_565
Be5 W3 2.678363 1_545
Be5 W2 2.678364 1_455
Be5 W3 2.678364 1_655
Be5 W1 2.704960 1_555
Be5 W0 2.704960 1_555
Be5 W2 2.716572 1_555
Be5 W3 2.716572 1_555
B0 Be1 1.975091 1_555
B0 Be2 1.975091 1_555
B0 W3 2.330337 1_655
B0 W4 2.330337 1_655
B0 W3 2.330338 1_545
B0 W4 2.330338 1_545
B0 W0 2.426546 1_545
B0 W0 2.426547 1_655
B0 W0 2.432471 1_555
B1 Be3 1.975091 1_555
B1 Be0 1.975091 1_555
B1 W5 2.330337 1_455
B1 W2 2.330337 1_455
B1 W5 2.330338 1_565
B1 W2 2.330338 1_565
B1 W1 2.426546 1_565
B1 W1 2.426547 1_455
B1 W1 2.432471 1_555
