# generated using pymatgen
data_Zr3CdC2
_symmetry_space_group_name_H-M   'P 1'
_cell_length_a   6.68278611
_cell_length_b   6.68278751
_cell_length_c   41.36972593
_cell_angle_alpha   90.00000000
_cell_angle_beta   90.00000000
_cell_angle_gamma   120.00000282
_symmetry_Int_Tables_number   1
_chemical_formula_structural   Zr3CdC2
_chemical_formula_sum   'Zr48 Cd16 C32'
_cell_volume   1600.03129239
_cell_formula_units_Z   16
loop_
 _symmetry_equiv_pos_site_id
 _symmetry_equiv_pos_as_xyz
  1  'x, y, z'
loop_
 _atom_site_type_symbol
 _atom_site_label
 _atom_site_symmetry_multiplicity
 _atom_site_fract_x
 _atom_site_fract_y
 _atom_site_fract_z
 _atom_site_occupancy
  Zr  Zr0_0  1  0.00000000  0.00000000  0.00000000  1
  Zr  Zr0_1  1  0.00000000  0.00000000  0.50000000  1
  Zr  Zr0_2  1  0.00000000  0.50000000  0.00000000  1
  Zr  Zr0_3  1  0.00000000  0.50000000  0.50000000  1
  Zr  Zr0_4  1  0.50000000  0.00000000  0.00000000  1
  Zr  Zr0_5  1  0.50000000  0.00000000  0.50000000  1
  Zr  Zr0_6  1  0.50000000  0.50000000  0.00000000  1
  Zr  Zr0_7  1  0.50000000  0.50000000  0.50000000  1
  Zr  Zr1_0  1  0.16666650  0.33333300  0.06247358  1
  Zr  Zr1_1  1  0.16666650  0.33333300  0.56247358  1
  Zr  Zr1_2  1  0.16666650  0.83333300  0.06247358  1
  Zr  Zr1_3  1  0.16666650  0.83333300  0.56247358  1
  Zr  Zr1_4  1  0.66666650  0.33333300  0.06247358  1
  Zr  Zr1_5  1  0.66666650  0.33333300  0.56247358  1
  Zr  Zr1_6  1  0.66666650  0.83333300  0.06247358  1
  Zr  Zr1_7  1  0.66666650  0.83333300  0.56247358  1
  Zr  Zr2_0  1  0.16666650  0.33333300  0.18752642  1
  Zr  Zr2_1  1  0.16666650  0.33333300  0.68752642  1
  Zr  Zr2_2  1  0.16666650  0.83333300  0.18752642  1
  Zr  Zr2_3  1  0.16666650  0.83333300  0.68752642  1
  Zr  Zr2_4  1  0.66666650  0.33333300  0.18752642  1
  Zr  Zr2_5  1  0.66666650  0.33333300  0.68752642  1
  Zr  Zr2_6  1  0.66666650  0.83333300  0.18752642  1
  Zr  Zr2_7  1  0.66666650  0.83333300  0.68752642  1
  Zr  Zr3_0  1  0.00000000  0.00000000  0.25000000  1
  Zr  Zr3_1  1  0.00000000  0.00000000  0.75000000  1
  Zr  Zr3_2  1  0.00000000  0.50000000  0.25000000  1
  Zr  Zr3_3  1  0.00000000  0.50000000  0.75000000  1
  Zr  Zr3_4  1  0.50000000  0.00000000  0.25000000  1
  Zr  Zr3_5  1  0.50000000  0.00000000  0.75000000  1
  Zr  Zr3_6  1  0.50000000  0.50000000  0.25000000  1
  Zr  Zr3_7  1  0.50000000  0.50000000  0.75000000  1
  Zr  Zr4_0  1  0.33333250  0.16666650  0.31247358  1
  Zr  Zr4_1  1  0.33333250  0.16666650  0.81247358  1
  Zr  Zr4_2  1  0.33333250  0.66666650  0.31247358  1
  Zr  Zr4_3  1  0.33333250  0.66666650  0.81247358  1
  Zr  Zr4_4  1  0.83333250  0.16666650  0.31247358  1
  Zr  Zr4_5  1  0.83333250  0.16666650  0.81247358  1
  Zr  Zr4_6  1  0.83333250  0.66666650  0.31247358  1
  Zr  Zr4_7  1  0.83333250  0.66666650  0.81247358  1
  Zr  Zr5_0  1  0.33333250  0.16666650  0.43752642  1
  Zr  Zr5_1  1  0.33333250  0.16666650  0.93752642  1
  Zr  Zr5_2  1  0.33333250  0.66666650  0.43752642  1
  Zr  Zr5_3  1  0.33333250  0.66666650  0.93752642  1
  Zr  Zr5_4  1  0.83333250  0.16666650  0.43752642  1
  Zr  Zr5_5  1  0.83333250  0.16666650  0.93752642  1
  Zr  Zr5_6  1  0.83333250  0.66666650  0.43752642  1
  Zr  Zr5_7  1  0.83333250  0.66666650  0.93752642  1
  Cd  Cd0_0  1  0.00000000  0.00000000  0.12500000  1
  Cd  Cd0_1  1  0.00000000  0.00000000  0.62500000  1
  Cd  Cd0_2  1  0.00000000  0.50000000  0.12500000  1
  Cd  Cd0_3  1  0.00000000  0.50000000  0.62500000  1
  Cd  Cd0_4  1  0.50000000  0.00000000  0.12500000  1
  Cd  Cd0_5  1  0.50000000  0.00000000  0.62500000  1
  Cd  Cd0_6  1  0.50000000  0.50000000  0.12500000  1
  Cd  Cd0_7  1  0.50000000  0.50000000  0.62500000  1
  Cd  Cd1_0  1  0.00000000  0.00000000  0.37500000  1
  Cd  Cd1_1  1  0.00000000  0.00000000  0.87500000  1
  Cd  Cd1_2  1  0.00000000  0.50000000  0.37500000  1
  Cd  Cd1_3  1  0.00000000  0.50000000  0.87500000  1
  Cd  Cd1_4  1  0.50000000  0.00000000  0.37500000  1
  Cd  Cd1_5  1  0.50000000  0.00000000  0.87500000  1
  Cd  Cd1_6  1  0.50000000  0.50000000  0.37500000  1
  Cd  Cd1_7  1  0.50000000  0.50000000  0.87500000  1
  C  C0_0  1  0.33333250  0.16666650  0.03426255  1
  C  C0_1  1  0.33333250  0.16666650  0.53426255  1
  C  C0_2  1  0.33333250  0.66666650  0.03426255  1
  C  C0_3  1  0.33333250  0.66666650  0.53426255  1
  C  C0_4  1  0.83333250  0.16666650  0.03426255  1
  C  C0_5  1  0.83333250  0.16666650  0.53426255  1
  C  C0_6  1  0.83333250  0.66666650  0.03426255  1
  C  C0_7  1  0.83333250  0.66666650  0.53426255  1
  C  C1_0  1  0.33333250  0.16666650  0.21573745  1
  C  C1_1  1  0.33333250  0.16666650  0.71573745  1
  C  C1_2  1  0.33333250  0.66666650  0.21573745  1
  C  C1_3  1  0.33333250  0.66666650  0.71573745  1
  C  C1_4  1  0.83333250  0.16666650  0.21573745  1
  C  C1_5  1  0.83333250  0.16666650  0.71573745  1
  C  C1_6  1  0.83333250  0.66666650  0.21573745  1
  C  C1_7  1  0.83333250  0.66666650  0.71573745  1
  C  C2_0  1  0.16666650  0.33333300  0.28426255  1
  C  C2_1  1  0.16666650  0.33333300  0.78426255  1
  C  C2_2  1  0.16666650  0.83333300  0.28426255  1
  C  C2_3  1  0.16666650  0.83333300  0.78426255  1
  C  C2_4  1  0.66666650  0.33333300  0.28426255  1
  C  C2_5  1  0.66666650  0.33333300  0.78426255  1
  C  C2_6  1  0.66666650  0.83333300  0.28426255  1
  C  C2_7  1  0.66666650  0.83333300  0.78426255  1
  C  C3_0  1  0.16666650  0.33333300  0.46573745  1
  C  C3_1  1  0.16666650  0.33333300  0.96573745  1
  C  C3_2  1  0.16666650  0.83333300  0.46573745  1
  C  C3_3  1  0.16666650  0.83333300  0.96573745  1
  C  C3_4  1  0.66666650  0.33333300  0.46573745  1
  C  C3_5  1  0.66666650  0.33333300  0.96573745  1
  C  C3_6  1  0.66666650  0.83333300  0.46573745  1
  C  C3_7  1  0.66666650  0.83333300  0.96573745  1
loop_
_geom_bond_atom_site_label_1
_geom_bond_atom_site_label_2
_geom_bond_distance
_geom_bond_site_symmetry_2
Cd0_0 Zr2_0 3.226864 1_555
Cd0_0 Zr1_0 3.226864 1_555
Cd0_0 Zr1_6 3.226865 1_445
Cd0_0 Zr2_6 3.226865 1_445
Cd0_0 Zr2_2 3.226866 1_545
Cd0_0 Zr1_2 3.226866 1_545
Cd0_0 Cd0_4 3.341393 1_455
Cd0_0 Cd0_4 3.341393 1_555
Cd0_0 Cd0_6 3.341393 1_555
Cd0_0 Cd0_6 3.341393 1_445
Cd0_0 Cd0_2 3.341394 1_555
Cd0_0 Cd0_2 3.341394 1_545
Cd0_1 Zr2_1 3.226864 1_555
Cd0_1 Zr1_1 3.226864 1_555
Cd0_1 Zr2_7 3.226865 1_445
Cd0_1 Zr1_7 3.226865 1_445
Cd0_1 Zr1_3 3.226866 1_545
Cd0_1 Zr2_3 3.226866 1_545
Cd0_1 Cd0_5 3.341393 1_455
Cd0_1 Cd0_5 3.341393 1_555
Cd0_1 Cd0_7 3.341393 1_555
Cd0_1 Cd0_7 3.341393 1_445
Cd0_1 Cd0_3 3.341394 1_555
Cd0_1 Cd0_3 3.341394 1_545
Cd0_2 Zr2_2 3.226864 1_555
Cd0_2 Zr1_2 3.226864 1_555
Cd0_2 Zr1_4 3.226865 1_455
Cd0_2 Zr2_4 3.226865 1_455
Cd0_2 Zr2_0 3.226866 1_555
Cd0_2 Zr1_0 3.226866 1_555
Cd0_2 Cd0_6 3.341393 1_455
Cd0_2 Cd0_6 3.341393 1_555
Cd0_2 Cd0_4 3.341393 1_455
Cd0_2 Cd0_4 3.341393 1_565
Cd0_3 Zr2_3 3.226864 1_555
Cd0_3 Zr1_3 3.226864 1_555
Cd0_3 Zr1_5 3.226865 1_455
Cd0_3 Zr2_5 3.226865 1_455
Cd0_3 Zr2_1 3.226866 1_555
Cd0_3 Zr1_1 3.226866 1_555
Cd0_3 Cd0_7 3.341393 1_455
Cd0_3 Cd0_7 3.341393 1_555
Cd0_3 Cd0_5 3.341393 1_455
Cd0_3 Cd0_5 3.341393 1_565
Cd0_4 Zr2_4 3.226864 1_555
Cd0_4 Zr1_4 3.226864 1_555
Cd0_4 Zr2_2 3.226865 1_545
Cd0_4 Zr1_2 3.226865 1_545
Cd0_4 Zr1_6 3.226866 1_545
Cd0_4 Zr2_6 3.226866 1_545
Cd0_4 Cd0_6 3.341394 1_545
Cd0_4 Cd0_6 3.341394 1_555
Cd0_5 Zr1_5 3.226864 1_555
Cd0_5 Zr2_5 3.226864 1_555
Cd0_5 Zr2_3 3.226865 1_545
Cd0_5 Zr1_3 3.226865 1_545
Cd0_5 Zr2_7 3.226866 1_545
Cd0_5 Zr1_7 3.226866 1_545
Cd0_5 Cd0_7 3.341394 1_545
Cd0_5 Cd0_7 3.341394 1_555
Cd0_6 Zr2_6 3.226864 1_555
Cd0_6 Zr1_6 3.226864 1_555
Cd0_6 Zr1_0 3.226865 1_555
Cd0_6 Zr2_0 3.226865 1_555
Cd0_6 Zr1_4 3.226866 1_555
Cd0_6 Zr2_4 3.226866 1_555
Cd0_7 Zr2_7 3.226864 1_555
Cd0_7 Zr1_7 3.226864 1_555
Cd0_7 Zr2_1 3.226865 1_555
Cd0_7 Zr1_1 3.226865 1_555
Cd0_7 Zr2_5 3.226866 1_555
Cd0_7 Zr1_5 3.226866 1_555
Cd1_0 Zr4_0 3.226862 1_555
Cd1_0 Zr5_0 3.226862 1_555
Cd1_0 Zr5_6 3.226866 1_445
Cd1_0 Zr4_6 3.226866 1_445
Cd1_0 Zr4_4 3.226867 1_455
Cd1_0 Zr5_4 3.226867 1_455
Cd1_0 Cd1_4 3.341393 1_455
Cd1_0 Cd1_4 3.341393 1_555
Cd1_0 Cd1_6 3.341393 1_445
Cd1_0 Cd1_6 3.341393 1_555
Cd1_0 Cd1_2 3.341394 1_555
Cd1_0 Cd1_2 3.341394 1_545
Cd1_1 Zr5_1 3.226862 1_555
Cd1_1 Zr4_1 3.226862 1_555
Cd1_1 Zr5_7 3.226866 1_445
Cd1_1 Zr4_7 3.226866 1_445
Cd1_1 Zr5_5 3.226867 1_455
Cd1_1 Zr4_5 3.226867 1_455
Cd1_1 Cd1_5 3.341393 1_455
Cd1_1 Cd1_5 3.341393 1_555
Cd1_1 Cd1_7 3.341393 1_555
Cd1_1 Cd1_7 3.341393 1_445
Cd1_1 Cd1_3 3.341394 1_555
Cd1_1 Cd1_3 3.341394 1_545
Cd1_2 Zr5_2 3.226862 1_555
Cd1_2 Zr4_2 3.226862 1_555
Cd1_2 Zr5_4 3.226866 1_455
Cd1_2 Zr4_4 3.226866 1_455
Cd1_2 Zr4_6 3.226867 1_455
Cd1_2 Zr5_6 3.226867 1_455
Cd1_2 Cd1_6 3.341393 1_455
Cd1_2 Cd1_6 3.341393 1_555
Cd1_2 Cd1_4 3.341393 1_455
Cd1_2 Cd1_4 3.341393 1_565
Cd1_3 Zr4_3 3.226862 1_555
Cd1_3 Zr5_3 3.226862 1_555
Cd1_3 Zr5_5 3.226866 1_455
Cd1_3 Zr4_5 3.226866 1_455
Cd1_3 Zr5_7 3.226867 1_455
Cd1_3 Zr4_7 3.226867 1_455
Cd1_3 Cd1_7 3.341393 1_555
Cd1_3 Cd1_7 3.341393 1_455
Cd1_3 Cd1_5 3.341393 1_455
Cd1_3 Cd1_5 3.341393 1_565
Cd1_4 Zr5_4 3.226862 1_555
Cd1_4 Zr4_4 3.226862 1_555
Cd1_4 Zr5_2 3.226866 1_545
Cd1_4 Zr4_2 3.226866 1_545
Cd1_4 Zr4_0 3.226867 1_555
Cd1_4 Zr5_0 3.226867 1_555
Cd1_4 Cd1_6 3.341394 1_545
Cd1_4 Cd1_6 3.341394 1_555
Cd1_5 Zr5_5 3.226862 1_555
Cd1_5 Zr4_5 3.226862 1_555
Cd1_5 Zr4_3 3.226866 1_545
Cd1_5 Zr5_3 3.226866 1_545
Cd1_5 Zr4_1 3.226867 1_555
Cd1_5 Zr5_1 3.226867 1_555
Cd1_5 Cd1_7 3.341394 1_555
Cd1_5 Cd1_7 3.341394 1_545
Cd1_6 Zr5_6 3.226862 1_555
Cd1_6 Zr4_6 3.226862 1_555
Cd1_6 Zr4_0 3.226866 1_555
Cd1_6 Zr5_0 3.226866 1_555
Cd1_6 Zr4_2 3.226867 1_555
Cd1_6 Zr5_2 3.226867 1_555
Cd1_7 Zr5_7 3.226862 1_555
Cd1_7 Zr4_7 3.226862 1_555
Cd1_7 Zr5_1 3.226866 1_555
Cd1_7 Zr4_1 3.226866 1_555
Cd1_7 Zr5_3 3.226867 1_555
Cd1_7 Zr4_3 3.226867 1_555
C0_0 Zr1_0 2.254706 1_555
C0_0 Zr1_2 2.254711 1_545
C0_0 Zr1_4 2.254713 1_555
C0_0 Zr0_0 2.393895 1_555
C0_0 Zr0_6 2.393900 1_555
C0_0 Zr0_4 2.393902 1_555
C0_1 Zr1_1 2.254706 1_555
C0_1 Zr1_3 2.254711 1_545
C0_1 Zr1_5 2.254713 1_555
C0_1 Zr0_1 2.393895 1_555
C0_1 Zr0_7 2.393900 1_555
C0_1 Zr0_5 2.393902 1_555
C0_2 Zr1_2 2.254706 1_555
C0_2 Zr1_0 2.254711 1_555
C0_2 Zr1_6 2.254713 1_555
C0_2 Zr0_2 2.393895 1_555
C0_2 Zr0_4 2.393900 1_565
C0_2 Zr0_6 2.393902 1_555
C0_3 Zr1_3 2.254706 1_555
C0_3 Zr1_1 2.254711 1_555
C0_3 Zr1_7 2.254713 1_555
C0_3 Zr0_3 2.393895 1_555
C0_3 Zr0_5 2.393900 1_565
C0_3 Zr0_7 2.393902 1_555
C0_4 Zr1_4 2.254706 1_555
C0_4 Zr1_6 2.254711 1_545
C0_4 Zr1_0 2.254713 1_655
C0_4 Zr0_4 2.393895 1_555
C0_4 Zr0_2 2.393900 1_655
C0_4 Zr0_0 2.393902 1_655
C0_5 Zr1_5 2.254706 1_555
C0_5 Zr1_7 2.254711 1_545
C0_5 Zr1_1 2.254713 1_655
C0_5 Zr0_5 2.393895 1_555
C0_5 Zr0_3 2.393900 1_655
C0_5 Zr0_1 2.393902 1_655
C0_6 Zr1_6 2.254706 1_555
C0_6 Zr1_4 2.254711 1_555
C0_6 Zr1_2 2.254713 1_655
C0_6 Zr0_6 2.393895 1_555
C0_6 Zr0_0 2.393900 1_665
C0_6 Zr0_2 2.393902 1_655
C0_7 Zr1_7 2.254706 1_555
C0_7 Zr1_5 2.254711 1_555
C0_7 Zr1_3 2.254713 1_655
C0_7 Zr0_7 2.393895 1_555
C0_7 Zr0_1 2.393900 1_665
C0_7 Zr0_3 2.393902 1_655
C1_0 Zr2_0 2.254706 1_555
C1_0 Zr2_2 2.254711 1_545
C1_0 Zr2_4 2.254713 1_555
C1_0 Zr3_0 2.393895 1_555
C1_0 Zr3_6 2.393900 1_555
C1_0 Zr3_4 2.393902 1_555
C1_1 Zr2_1 2.254706 1_555
C1_1 Zr2_3 2.254711 1_545
C1_1 Zr2_5 2.254713 1_555
C1_1 Zr3_1 2.393895 1_555
C1_1 Zr3_7 2.393900 1_555
C1_1 Zr3_5 2.393902 1_555
C1_2 Zr2_2 2.254706 1_555
C1_2 Zr2_0 2.254711 1_555
C1_2 Zr2_6 2.254713 1_555
C1_2 Zr3_2 2.393895 1_555
C1_2 Zr3_4 2.393900 1_565
C1_2 Zr3_6 2.393902 1_555
C1_3 Zr2_3 2.254706 1_555
C1_3 Zr2_1 2.254711 1_555
C1_3 Zr2_7 2.254713 1_555
C1_3 Zr3_3 2.393895 1_555
C1_3 Zr3_5 2.393900 1_565
C1_3 Zr3_7 2.393902 1_555
C1_4 Zr2_4 2.254706 1_555
C1_4 Zr2_6 2.254711 1_545
C1_4 Zr2_0 2.254713 1_655
C1_4 Zr3_4 2.393895 1_555
C1_4 Zr3_2 2.393900 1_655
C1_4 Zr3_0 2.393902 1_655
C1_5 Zr2_5 2.254706 1_555
C1_5 Zr2_7 2.254711 1_545
C1_5 Zr2_1 2.254713 1_655
C1_5 Zr3_5 2.393895 1_555
C1_5 Zr3_3 2.393900 1_655
C1_5 Zr3_1 2.393902 1_655
C1_6 Zr2_6 2.254706 1_555
C1_6 Zr2_4 2.254711 1_555
C1_6 Zr2_2 2.254713 1_655
C1_6 Zr3_6 2.393895 1_555
C1_6 Zr3_0 2.393900 1_665
C1_6 Zr3_2 2.393902 1_655
C1_7 Zr2_7 2.254706 1_555
C1_7 Zr2_5 2.254711 1_555
C1_7 Zr2_3 2.254713 1_655
C1_7 Zr3_7 2.393895 1_555
C1_7 Zr3_1 2.393900 1_665
C1_7 Zr3_3 2.393902 1_655
C2_0 Zr4_0 2.254706 1_555
C2_0 Zr4_2 2.254711 1_555
C2_0 Zr4_4 2.254713 1_455
C2_0 Zr3_0 2.393897 1_555
C2_0 Zr3_6 2.393899 1_555
C2_0 Zr3_2 2.393899 1_555
C2_1 Zr4_1 2.254706 1_555
C2_1 Zr4_3 2.254711 1_555
C2_1 Zr4_5 2.254713 1_455
C2_1 Zr3_1 2.393897 1_555
C2_1 Zr3_7 2.393899 1_555
C2_1 Zr3_3 2.393899 1_555
C2_2 Zr4_2 2.254706 1_555
C2_2 Zr4_0 2.254711 1_565
C2_2 Zr4_6 2.254713 1_455
C2_2 Zr3_2 2.393897 1_555
C2_2 Zr3_4 2.393899 1_565
C2_2 Zr3_0 2.393899 1_565
C2_3 Zr4_3 2.254706 1_555
C2_3 Zr4_1 2.254711 1_565
C2_3 Zr4_7 2.254713 1_455
C2_3 Zr3_3 2.393897 1_555
C2_3 Zr3_5 2.393899 1_565
C2_3 Zr3_1 2.393899 1_565
C2_4 Zr4_4 2.254706 1_555
C2_4 Zr4_6 2.254711 1_555
C2_4 Zr4_0 2.254713 1_555
C2_4 Zr3_4 2.393897 1_555
C2_4 Zr3_2 2.393899 1_655
C2_4 Zr3_6 2.393899 1_555
C2_5 Zr4_5 2.254706 1_555
C2_5 Zr4_7 2.254711 1_555
C2_5 Zr4_1 2.254713 1_555
C2_5 Zr3_5 2.393897 1_555
C2_5 Zr3_3 2.393899 1_655
C2_5 Zr3_7 2.393899 1_555
C2_6 Zr4_6 2.254706 1_555
C2_6 Zr4_4 2.254711 1_565
C2_6 Zr4_2 2.254713 1_555
C2_6 Zr3_6 2.393897 1_555
C2_6 Zr3_0 2.393899 1_665
C2_6 Zr3_4 2.393899 1_565
C2_7 Zr4_7 2.254706 1_555
C2_7 Zr4_5 2.254711 1_565
C2_7 Zr4_3 2.254713 1_555
C2_7 Zr3_7 2.393897 1_555
C2_7 Zr3_1 2.393899 1_665
C2_7 Zr3_5 2.393899 1_565
C3_0 Zr5_0 2.254706 1_555
C3_0 Zr5_2 2.254711 1_555
C3_0 Zr5_4 2.254713 1_455
C3_0 Zr0_1 2.393897 1_555
C3_0 Zr0_7 2.393899 1_555
C3_0 Zr0_3 2.393899 1_555
C3_1 Zr5_1 2.254706 1_555
C3_1 Zr5_3 2.254711 1_555
C3_1 Zr5_5 2.254713 1_455
C3_1 Zr0_0 2.393897 1_556
C3_1 Zr0_6 2.393899 1_556
C3_1 Zr0_2 2.393899 1_556
C3_2 Zr5_2 2.254706 1_555
C3_2 Zr5_0 2.254711 1_565
C3_2 Zr5_6 2.254713 1_455
C3_2 Zr0_3 2.393897 1_555
C3_2 Zr0_5 2.393899 1_565
C3_2 Zr0_1 2.393899 1_565
C3_3 Zr5_3 2.254706 1_555
C3_3 Zr5_1 2.254711 1_565
C3_3 Zr5_7 2.254713 1_455
C3_3 Zr0_2 2.393897 1_556
C3_3 Zr0_4 2.393899 1_566
C3_3 Zr0_0 2.393899 1_566
C3_4 Zr5_4 2.254706 1_555
C3_4 Zr5_6 2.254711 1_555
C3_4 Zr5_0 2.254713 1_555
C3_4 Zr0_5 2.393897 1_555
C3_4 Zr0_3 2.393899 1_655
C3_4 Zr0_7 2.393899 1_555
C3_5 Zr5_5 2.254706 1_555
C3_5 Zr5_7 2.254711 1_555
C3_5 Zr5_1 2.254713 1_555
C3_5 Zr0_4 2.393897 1_556
C3_5 Zr0_2 2.393899 1_656
C3_5 Zr0_6 2.393899 1_556
C3_6 Zr5_6 2.254706 1_555
C3_6 Zr5_4 2.254711 1_565
C3_6 Zr5_2 2.254713 1_555
C3_6 Zr0_7 2.393897 1_555
C3_6 Zr0_1 2.393899 1_665
C3_6 Zr0_5 2.393899 1_565
C3_7 Zr5_7 2.254706 1_555
C3_7 Zr5_5 2.254711 1_565
C3_7 Zr5_3 2.254713 1_555
C3_7 Zr0_6 2.393897 1_556
C3_7 Zr0_0 2.393899 1_666
C3_7 Zr0_4 2.393899 1_566
