# generated using pymatgen
data_Ba2ReHN4
_symmetry_space_group_name_H-M   'P 1'
_cell_length_a   5.48357110
_cell_length_b   6.38893759
_cell_length_c   8.56903551
_cell_angle_alpha   76.86943366
_cell_angle_beta   90.00000000
_cell_angle_gamma   90.00000000
_symmetry_Int_Tables_number   1
_chemical_formula_structural   Ba2ReHN4
_chemical_formula_sum   'Ba4 Re2 H2 N8'
_cell_volume   292.36025189
_cell_formula_units_Z   2
loop_
 _symmetry_equiv_pos_site_id
 _symmetry_equiv_pos_as_xyz
  1  'x, y, z'
loop_
 _atom_site_type_symbol
 _atom_site_label
 _atom_site_symmetry_multiplicity
 _atom_site_fract_x
 _atom_site_fract_y
 _atom_site_fract_z
 _atom_site_occupancy
  Ba  Ba0  1  0.25000000  0.25155991  0.04858285  1
  Ba  Ba1  1  0.75000000  0.74844009  0.95141715  1
  Ba  Ba2  1  0.75000000  0.77274475  0.47629457  1
  Ba  Ba3  1  0.25000000  0.22725525  0.52370543  1
  Re  Re0  1  0.25000000  0.70617968  0.22588922  1
  Re  Re1  1  0.75000000  0.29382032  0.77411078  1
  H  H0  1  0.75000000  0.51697873  0.27071436  1
  H  H1  1  0.25000000  0.48302127  0.72928564  1
  N  N0  1  0.48254476  0.47059237  0.72631223  1
  N  N1  1  0.98254476  0.52940763  0.27368777  1
  N  N2  1  0.51745524  0.52940763  0.27368777  1
  N  N3  1  0.01745524  0.47059237  0.72631223  1
  N  N4  1  0.75000000  0.08464231  0.66112006  1
  N  N5  1  0.25000000  0.91535769  0.33887994  1
  N  N6  1  0.75000000  0.16655936  0.98325675  1
  N  N7  1  0.25000000  0.83344064  0.01674325  1
loop_
_geom_bond_atom_site_label_1
_geom_bond_atom_site_label_2
_geom_bond_distance
_geom_bond_site_symmetry_2
Ba0 N7 2.746202 1_545
Ba0 H1 2.799035 1_554
Ba0 N6 2.874679 1_454
Ba0 N6 2.874679 1_554
Ba0 N5 2.893809 1_545
Ba0 N0 3.074851 1_554
Ba0 N3 3.074851 1_554
Ba0 N1 3.252479 1_455
Ba0 N2 3.252479 1_555
Ba1 N6 2.746202 1_565
Ba1 H0 2.799035 1_556
Ba1 N7 2.874679 1_556
Ba1 N7 2.874679 1_656
Ba1 N4 2.893809 1_565
Ba1 N2 3.074851 1_556
Ba1 N1 3.074851 1_556
Ba1 N3 3.252479 1_655
Ba1 N0 3.252479 1_555
Ba2 H0 2.661089 1_555
Ba2 N4 2.813018 1_565
Ba2 N2 2.878121 1_555
Ba2 N1 2.878121 1_555
Ba2 N3 2.930594 1_655
Ba2 N0 2.930594 1_555
Ba2 N5 3.040830 1_555
Ba2 N5 3.040830 1_655
Ba3 H1 2.661089 1_555
Ba3 N5 2.813018 1_545
Ba3 N0 2.878121 1_555
Ba3 N3 2.878121 1_555
Ba3 N1 2.930594 1_455
Ba3 N2 2.930594 1_555
Ba3 N4 3.040830 1_555
Ba3 N4 3.040830 1_455
H0 N2 1.278259 1_555
H0 N1 1.278259 1_555
H1 N0 1.278259 1_555
H1 N3 1.278259 1_555
N0 Re1 1.839578 1_555
N1 Re0 1.839578 1_655
N2 Re0 1.839578 1_555
N3 Re1 1.839578 1_455
N4 Re1 1.819721 1_555
N5 Re0 1.819721 1_555
N6 Re1 1.791907 1_555
N7 Re0 1.791907 1_555
