# generated using pymatgen
data_Ta3Si3Ru2W
_symmetry_space_group_name_H-M   'P 1'
_cell_length_a   7.46373527
_cell_length_b   7.46373500
_cell_length_c   7.46373547
_cell_angle_alpha   126.75751189
_cell_angle_beta   123.95116598
_cell_angle_gamma   80.97207654
_symmetry_Int_Tables_number   1
_chemical_formula_structural   Ta3Si3Ru2W
_chemical_formula_sum   'Ta6 Si6 Ru4 W2'
_cell_volume   266.31005495
_cell_formula_units_Z   2
loop_
 _symmetry_equiv_pos_site_id
 _symmetry_equiv_pos_as_xyz
  1  'x, y, z'
loop_
 _atom_site_type_symbol
 _atom_site_label
 _atom_site_symmetry_multiplicity
 _atom_site_fract_x
 _atom_site_fract_y
 _atom_site_fract_z
 _atom_site_occupancy
  Ta  Ta0  1  0.94113927  0.90637855  0.46524029  1
  Ta  Ta1  1  0.05886073  0.52410202  0.96524029  1
  Ta  Ta2  1  0.53931719  0.51221418  0.47289599  1
  Ta  Ta3  1  0.46068281  0.93357780  0.97289599  1
  Ta  Ta4  1  0.74762477  0.08032110  0.83269633  1
  Ta  Ta5  1  0.25237523  0.08507257  0.33269633  1
  Si  Si0  1  0.72080363  0.44802401  0.22722138  1
  Si  Si1  1  0.27919637  0.50641775  0.72722138  1
  Si  Si2  1  0.67474803  0.18211035  0.51682863  1
  Si  Si3  1  0.32525197  0.84208060  0.50736132  1
  Si  Si4  1  0.16528072  0.18211035  0.00736132  1
  Si  Si5  1  0.83471928  0.84208060  0.01682863  1
  Ru  Ru0  1  0.90699226  0.25160537  0.41202805  1
  Ru  Ru1  1  0.09300774  0.50503579  0.34461211  1
  Ru  Ru2  1  0.33957732  0.25160537  0.84461211  1
  Ru  Ru3  1  0.66042268  0.50503579  0.91202805  1
  W  W0  1  0.50000000  0.75001489  0.25001489  1
  W  W1  1  1.00000000  0.75001489  0.75001489  1
loop_
_geom_bond_atom_site_label_1
_geom_bond_atom_site_label_2
_geom_bond_distance
_geom_bond_site_symmetry_2
Ta0 W1 2.799586 1_555
Ta0 W0 2.799590 1_555
Ta1 W1 2.799585 1_455
Ta1 W0 2.799590 1_556
Ta2 W0 2.971315 1_555
Ta2 W1 2.971319 1_555
Ta3 W0 2.971315 1_556
Ta3 W1 2.971319 1_455
Ta4 W1 2.833187 1_545
Ta4 W0 2.833188 1_545
Ta5 W1 2.833188 1_444
Ta5 W0 2.833192 1_545
Si0 W1 2.552210 1_555
Si0 W0 2.552214 1_555
Si0 Ta2 2.635506 1_555
Si0 Ta4 2.656430 1_554
Si0 Ta0 2.965196 1_555
Si1 W1 2.552209 1_455
Si1 W0 2.552209 1_556
Si1 Ta3 2.635504 1_555
Si1 Ta5 2.656429 1_555
Si1 Ta1 2.965193 1_555
Si2 W0 2.607675 1_545
Si2 Ta0 2.638062 1_545
Si2 Ta4 2.648162 1_555
Si2 Ta2 2.648536 1_555
Si2 Ta5 2.652805 1_555
Si2 Ta3 2.673406 1_544
Si2 Ta1 2.700076 1_655
Si3 W0 2.607669 1_555
Si3 Ta1 2.638053 1_554
Si3 Ta5 2.648163 1_565
Si3 Ta3 2.648540 1_555
Si3 Ta4 2.652806 1_565
Si3 Ta2 2.673402 1_555
Si3 Ta0 2.700075 1_455
Si4 W1 2.607675 1_444
Si4 Ta0 2.638053 1_444
Si4 Ta4 2.648157 1_454
Si4 Ta2 2.648536 1_555
Si4 Ta5 2.652805 1_555
Si4 Ta3 2.673415 1_544
Si4 Ta1 2.700076 1_554
Si5 W1 2.607669 1_554
Si5 Ta1 2.638048 1_654
Si5 Ta5 2.648159 1_665
Si5 Ta3 2.648535 1_554
Si5 Ta4 2.652805 1_564
Si5 Ta2 2.673407 1_554
Si5 Ta0 2.700080 1_555
Ru0 Si0 2.371242 1_555
Ru0 Si1 2.423263 1_655
Ru0 Si2 2.483512 1_555
Ru0 Si5 2.506721 1_545
Ru0 Ta0 2.787049 1_545
Ru0 Ta1 2.813363 1_655
Ru0 W1 2.882153 1_555
Ru0 Ta5 2.891251 1_655
Ru0 Ta3 2.906574 1_544
Ru1 Si1 2.371256 1_555
Ru1 Si0 2.423266 1_455
Ru1 Si3 2.483512 1_555
Ru1 Si4 2.506714 1_555
Ru1 Ta1 2.787039 1_554
Ru1 Ta0 2.813357 1_455
Ru1 W1 2.882159 1_455
Ru1 Ta4 2.891251 1_454
Ru1 Ta2 2.906569 1_555
Ru2 Si0 2.371250 1_556
Ru2 Si1 2.423257 1_555
Ru2 Si4 2.483519 1_556
Ru2 Si3 2.506719 1_545
Ru2 Ta0 2.787046 1_445
Ru2 Ta1 2.813369 1_555
Ru2 W0 2.882154 1_556
Ru2 Ta5 2.891248 1_555
Ru2 Ta3 2.906583 1_545
Ru3 Si1 2.371249 1_555
Ru3 Si0 2.423268 1_556
Ru3 Si5 2.483516 1_556
Ru3 Si2 2.506719 1_555
Ru3 Ta1 2.787043 1_655
Ru3 Ta0 2.813362 1_556
Ru3 W0 2.882153 1_556
Ru3 Ta4 2.891252 1_555
Ru3 Ta2 2.906576 1_555
