# generated using pymatgen
data_RbGaSiSe4
_symmetry_space_group_name_H-M   'P 1'
_cell_length_a   16.84866259
_cell_length_b   7.18268183
_cell_length_c   7.72916360
_cell_angle_alpha   69.28890288
_cell_angle_beta   90.00000000
_cell_angle_gamma   90.00000000
_symmetry_Int_Tables_number   1
_chemical_formula_structural   RbGaSiSe4
_chemical_formula_sum   'Rb4 Ga4 Si4 Se16'
_cell_volume   874.92449716
_cell_formula_units_Z   4
loop_
 _symmetry_equiv_pos_site_id
 _symmetry_equiv_pos_as_xyz
  1  'x, y, z'
loop_
 _atom_site_type_symbol
 _atom_site_label
 _atom_site_symmetry_multiplicity
 _atom_site_fract_x
 _atom_site_fract_y
 _atom_site_fract_z
 _atom_site_occupancy
  Rb  Rb0  1  0.39561293  0.95316956  0.18383718  1
  Rb  Rb1  1  0.89561293  0.04683044  0.81616282  1
  Rb  Rb2  1  0.59984338  0.52181073  0.83693001  1
  Rb  Rb3  1  0.09984338  0.47818927  0.16306999  1
  Ga  Ga0  1  0.58554971  0.15896369  0.48432740  1
  Ga  Ga1  1  0.08554971  0.84103631  0.51567260  1
  Ga  Ga2  1  0.27225257  0.58906184  0.70201022  1
  Ga  Ga3  1  0.77225257  0.41093816  0.29798978  1
  Si  Si0  1  0.42153168  0.31674660  0.53907451  1
  Si  Si1  1  0.92153168  0.68325340  0.46092549  1
  Si  Si2  1  0.72589313  0.91273098  0.27531406  1
  Si  Si3  1  0.22589313  0.08726902  0.72468594  1
  Se  Se0  1  0.59895880  0.88004754  0.38212977  1
  Se  Se1  1  0.09895880  0.11995246  0.61787023  1
  Se  Se2  1  0.41159883  0.58736813  0.62570426  1
  Se  Se3  1  0.91159883  0.41263187  0.37429574  1
  Se  Se4  1  0.80195913  0.78631060  0.54004197  1
  Se  Se5  1  0.30195913  0.21368940  0.45995803  1
  Se  Se6  1  0.20139095  0.72059890  0.42101877  1
  Se  Se7  1  0.70139095  0.27940110  0.57898123  1
  Se  Se8  1  0.76110174  0.22549064  0.09099730  1
  Se  Se9  1  0.26110174  0.77450936  0.90900270  1
  Se  Se10  1  0.23688467  0.26113259  0.91779383  1
  Se  Se11  1  0.73688467  0.73886741  0.08220617  1
  Se  Se12  1  0.99457039  0.92577928  0.25069620  1
  Se  Se13  1  0.49457039  0.07422072  0.74930380  1
  Se  Se14  1  0.99285008  0.60482486  0.72807382  1
  Se  Se15  1  0.49285008  0.39517514  0.27192618  1
loop_
_geom_bond_atom_site_label_1
_geom_bond_atom_site_label_2
_geom_bond_distance
_geom_bond_site_symmetry_2
Rb0 Se2 3.506138 1_555
Rb0 Se13 3.570776 1_564
Rb0 Se10 3.613344 1_564
Rb0 Se9 3.636416 1_554
Rb0 Se5 3.656614 1_565
Rb0 Se0 3.713982 1_555
Rb0 Se6 3.833226 1_555
Rb0 Se15 3.841329 1_565
Rb1 Se3 3.506138 1_555
Rb1 Se12 3.570776 1_546
Rb1 Se11 3.613344 1_546
Rb1 Se8 3.636416 1_556
Rb1 Se4 3.656614 1_545
Rb1 Se1 3.713982 1_655
Rb1 Se7 3.833226 1_555
Rb1 Se14 3.841329 1_545
Rb2 Se7 3.519834 1_555
Rb2 Se2 3.521766 1_555
Rb2 Se0 3.546861 1_555
Rb2 Se8 3.579382 1_556
Rb2 Se15 3.635666 1_556
Rb2 Se11 3.666942 1_556
Rb2 Se13 3.934513 1_555
Rb3 Se6 3.519834 1_555
Rb3 Se3 3.521766 1_455
Rb3 Se1 3.546861 1_555
Rb3 Se9 3.579382 1_554
Rb3 Se14 3.635666 1_454
Rb3 Se10 3.666942 1_554
Rb3 Se12 3.934513 1_455
Ga0 Se7 2.353851 1_555
Ga0 Se0 2.409929 1_545
Ga0 Se13 2.456210 1_555
Ga0 Se15 2.458253 1_555
Ga1 Se6 2.353851 1_555
Ga1 Se1 2.409929 1_565
Ga1 Se12 2.456210 1_455
Ga1 Se14 2.458253 1_455
Ga2 Se6 2.362958 1_555
Ga2 Se2 2.421822 1_555
Ga2 Se9 2.424146 1_555
Ga2 Se10 2.430245 1_555
Ga3 Se7 2.362958 1_555
Ga3 Se3 2.421822 1_555
Ga3 Se8 2.424146 1_555
Ga3 Se11 2.430245 1_555
Se0 Si2 2.274546 1_555
Se1 Si3 2.274546 1_555
Se2 Si0 2.274913 1_555
Se3 Si1 2.274913 1_555
Se4 Si1 2.302347 1_555
Se4 Si2 2.310742 1_555
Se5 Si0 2.302347 1_555
Se5 Si3 2.310742 1_555
Se8 Si2 2.272521 1_545
Se9 Si3 2.272521 1_565
Se10 Si3 2.267142 1_555
Se11 Si2 2.267142 1_555
Se12 Si1 2.277523 1_555
Se13 Si0 2.277523 1_555
Se14 Si1 2.280797 1_555
Se15 Si0 2.280797 1_555
