# generated using pymatgen
data_MnCu6ClO8
_symmetry_space_group_name_H-M   'P 1'
_cell_length_a   6.36486675
_cell_length_b   6.36486640
_cell_length_c   6.36486705
_cell_angle_alpha   60.00000162
_cell_angle_beta   60.00000339
_cell_angle_gamma   60.00000049
_symmetry_Int_Tables_number   1
_chemical_formula_structural   MnCu6ClO8
_chemical_formula_sum   'Mn1 Cu6 Cl1 O8'
_cell_volume   182.32783084
_cell_formula_units_Z   1
loop_
 _symmetry_equiv_pos_site_id
 _symmetry_equiv_pos_as_xyz
  1  'x, y, z'
loop_
 _atom_site_type_symbol
 _atom_site_label
 _atom_site_symmetry_multiplicity
 _atom_site_fract_x
 _atom_site_fract_y
 _atom_site_fract_z
 _atom_site_occupancy
  Mn  Mn0  1  0.00000000  0.00000000  0.00000000  1
  Cu  Cu0  1  0.00000000  0.00000000  0.50000000  1
  Cu  Cu1  1  0.50000000  0.00000000  0.50000000  1
  Cu  Cu2  1  0.00000000  0.50000000  0.50000000  1
  Cu  Cu3  1  0.50000000  0.50000000  0.00000000  1
  Cu  Cu4  1  0.00000000  0.50000000  0.00000000  1
  Cu  Cu5  1  0.50000000  0.00000000  0.00000000  1
  Cl  Cl0  1  0.50000000  0.50000000  0.50000000  1
  O  O0  1  0.86011903  0.86011903  0.41964290  1
  O  O1  1  0.86011903  0.41964290  0.86011903  1
  O  O2  1  0.41964290  0.86011903  0.86011903  1
  O  O3  1  0.86011903  0.86011903  0.86011903  1
  O  O4  1  0.13988097  0.13988097  0.58035710  1
  O  O5  1  0.13988097  0.58035710  0.13988097  1
  O  O6  1  0.58035710  0.13988097  0.13988097  1
  O  O7  1  0.13988097  0.13988097  0.13988097  1
loop_
_geom_bond_atom_site_label_1
_geom_bond_atom_site_label_2
_geom_bond_distance
_geom_bond_site_symmetry_2
Mn0 O1 2.180839 1_454
Mn0 O5 2.180839 1_545
Mn0 O7 2.180839 1_555
Mn0 O3 2.180839 1_444
Mn0 O2 2.180839 1_544
Mn0 O6 2.180839 1_455
Mn0 O0 2.180839 1_445
Mn0 O4 2.180839 1_554
Cu0 O4 1.884239 1_555
Cu0 O0 1.884239 1_445
Cu0 O3 1.884239 1_445
Cu0 O7 1.884239 1_555
Cu1 O0 1.884239 1_545
Cu1 O4 1.884239 1_555
Cu1 O2 1.884239 1_545
Cu1 O6 1.884239 1_555
Cu2 O0 1.884239 1_455
Cu2 O4 1.884239 1_555
Cu2 O1 1.884239 1_455
Cu2 O5 1.884239 1_555
Cu3 O2 1.884239 1_554
Cu3 O6 1.884239 1_555
Cu3 O1 1.884239 1_554
Cu3 O5 1.884239 1_555
Cu4 O3 1.884239 1_454
Cu4 O7 1.884239 1_555
Cu4 O5 1.884239 1_555
Cu4 O1 1.884239 1_454
Cu5 O6 1.884239 1_555
Cu5 O2 1.884239 1_544
Cu5 O3 1.884239 1_544
Cu5 O7 1.884239 1_555
