# generated using pymatgen
data_Cs2NaLuSb2
_symmetry_space_group_name_H-M   'P 1'
_cell_length_a   10.24370191
_cell_length_b   10.24370168
_cell_length_c   10.24370153
_cell_angle_alpha   136.65555590
_cell_angle_beta   62.57302973
_cell_angle_gamma   137.17026249
_symmetry_Int_Tables_number   1
_chemical_formula_structural   Cs2NaLuSb2
_chemical_formula_sum   'Cs4 Na2 Lu2 Sb4'
_cell_volume   495.44180069
_cell_formula_units_Z   2
loop_
 _symmetry_equiv_pos_site_id
 _symmetry_equiv_pos_as_xyz
  1  'x, y, z'
loop_
 _atom_site_type_symbol
 _atom_site_label
 _atom_site_symmetry_multiplicity
 _atom_site_fract_x
 _atom_site_fract_y
 _atom_site_fract_z
 _atom_site_occupancy
  Cs  Cs0  1  0.32180560  0.77960361  0.10140821  1
  Cs  Cs1  1  0.17819440  0.27960361  0.45779901  1
  Cs  Cs2  1  0.82180560  0.72039639  0.54220199  1
  Cs  Cs3  1  0.67819540  0.22039639  0.89859179  1
  Na  Na0  1  0.75000000  0.25000000  0.50000000  1
  Na  Na1  1  0.25000000  0.75000000  0.50000000  1
  Lu  Lu0  1  0.25000000  0.25000000  0.00000000  1
  Lu  Lu1  1  0.75000000  0.75000000  0.00000000  1
  Sb  Sb0  1  0.90823087  0.22157761  0.12980848  1
  Sb  Sb1  1  0.59176913  0.72157761  0.31334674  1
  Sb  Sb2  1  0.40823087  0.27842239  0.68665426  1
  Sb  Sb3  1  0.09176913  0.77842239  0.87019152  1
loop_
_geom_bond_atom_site_label_1
_geom_bond_atom_site_label_2
_geom_bond_distance
_geom_bond_site_symmetry_2
Cs0 Sb3 4.027514 1_554
Cs0 Sb0 4.058469 1_565
Cs0 Sb0 4.058476 1_455
Cs0 Sb2 4.066076 1_565
Cs0 Sb2 4.082658 1_554
Cs1 Sb2 4.027522 1_555
Cs1 Sb1 4.058470 1_445
Cs1 Sb1 4.058477 1_555
Cs1 Sb3 4.066063 1_555
Cs1 Sb3 4.082665 1_544
Cs2 Sb1 4.027522 1_555
Cs2 Sb2 4.058470 1_665
Cs2 Sb2 4.058477 1_555
Cs2 Sb0 4.066063 1_555
Cs2 Sb0 4.082658 1_566
Cs3 Sb0 4.027505 1_556
Cs3 Sb3 4.058476 1_655
Cs3 Sb3 4.058476 1_545
Cs3 Sb1 4.066069 1_545
Cs3 Sb1 4.082665 1_556
Na0 Sb3 3.242861 1_655
Na0 Sb1 3.242861 1_545
Na0 Sb0 3.242861 1_555
Na0 Sb2 3.242862 1_555
Na1 Sb2 3.242857 1_565
Na1 Sb0 3.242861 1_455
Na1 Sb3 3.242861 1_555
Na1 Sb1 3.242862 1_555
Lu0 Sb2 2.981461 1_554
Lu0 Sb1 2.981470 1_555
Lu0 Sb3 2.981470 1_544
Lu0 Sb0 2.981470 1_455
Lu1 Sb2 2.981465 1_554
Lu1 Sb0 2.981470 1_565
Lu1 Sb1 2.981470 1_555
Lu1 Sb3 2.981470 1_654
