# generated using pymatgen
data_NaSc(NbSe2)8
_symmetry_space_group_name_H-M   'P 1'
_cell_length_a   7.01629480
_cell_length_b   7.01629547
_cell_length_c   14.29243620
_cell_angle_alpha   90.00000000
_cell_angle_beta   90.00000000
_cell_angle_gamma   119.99999211
_symmetry_Int_Tables_number   1
_chemical_formula_structural   NaSc(NbSe2)8
_chemical_formula_sum   'Na1 Sc1 Nb8 Se16'
_cell_volume   609.33009156
_cell_formula_units_Z   1
loop_
 _symmetry_equiv_pos_site_id
 _symmetry_equiv_pos_as_xyz
  1  'x, y, z'
loop_
 _atom_site_type_symbol
 _atom_site_label
 _atom_site_symmetry_multiplicity
 _atom_site_fract_x
 _atom_site_fract_y
 _atom_site_fract_z
 _atom_site_occupancy
  Na  Na0  1  0.00000000  0.00000000  0.50000000  1
  Sc  Sc0  1  0.00000000  0.00000000  0.00000000  1
  Nb  Nb0  1  0.00000000  0.00000000  0.23539210  1
  Nb  Nb1  1  0.00000000  0.00000000  0.76460790  1
  Nb  Nb2  1  0.51016686  0.48983314  0.23526475  1
  Nb  Nb3  1  0.51016686  0.02033172  0.23526475  1
  Nb  Nb4  1  0.97966828  0.48983314  0.23526475  1
  Nb  Nb5  1  0.48983314  0.51016686  0.76473525  1
  Nb  Nb6  1  0.48983314  0.97966828  0.76473525  1
  Nb  Nb7  1  0.02033172  0.51016686  0.76473525  1
  Se  Se0  1  0.33333300  0.66666700  0.88664110  1
  Se  Se1  1  0.66666700  0.33333300  0.11335890  1
  Se  Se2  1  0.66666700  0.33333300  0.35693187  1
  Se  Se3  1  0.33333300  0.66666700  0.64306813  1
  Se  Se4  1  0.16867049  0.83132951  0.34934368  1
  Se  Se5  1  0.16867049  0.33734198  0.34934368  1
  Se  Se6  1  0.66265802  0.83132951  0.34934368  1
  Se  Se7  1  0.83132951  0.16867049  0.65065632  1
  Se  Se8  1  0.83132951  0.66265802  0.65065632  1
  Se  Se9  1  0.33734198  0.16867049  0.65065632  1
  Se  Se10  1  0.83099208  0.16900792  0.87984007  1
  Se  Se11  1  0.83099208  0.66198417  0.87984007  1
  Se  Se12  1  0.33801583  0.16900792  0.87984007  1
  Se  Se13  1  0.16900792  0.83099208  0.12015993  1
  Se  Se14  1  0.16900792  0.33801583  0.12015993  1
  Se  Se15  1  0.66198417  0.83099208  0.12015993  1
loop_
_geom_bond_atom_site_label_1
_geom_bond_atom_site_label_2
_geom_bond_distance
_geom_bond_site_symmetry_2
Na0 Se7 2.972889 1_455
Na0 Se4 2.972889 1_545
Na0 Se9 2.972894 1_555
Na0 Se6 2.972894 1_445
Na0 Se8 2.972894 1_445
Na0 Se5 2.972894 1_555
Sc0 Se13 2.677278 1_545
Sc0 Se10 2.677278 1_454
Sc0 Se15 2.677278 1_445
Sc0 Se12 2.677278 1_554
Sc0 Se14 2.677279 1_555
Sc0 Se11 2.677279 1_444
Nb0 Se4 2.618032 1_545
Nb0 Se6 2.618037 1_445
Nb0 Se5 2.618037 1_555
Nb0 Se13 2.632655 1_545
Nb0 Se15 2.632655 1_445
Nb0 Se14 2.632655 1_555
Nb1 Se7 2.618032 1_455
Nb1 Se9 2.618037 1_555
Nb1 Se8 2.618037 1_445
Nb1 Se10 2.632655 1_455
Nb1 Se12 2.632655 1_555
Nb1 Se11 2.632655 1_445
Nb2 Se2 2.577012 1_555
Nb2 Se1 2.579315 1_555
Nb2 Se5 2.642079 1_555
Nb2 Se6 2.642079 1_555
Nb2 Se14 2.649722 1_555
Nb2 Se15 2.649722 1_555
Nb3 Se2 2.577017 1_555
Nb3 Se1 2.579320 1_555
Nb3 Se6 2.642064 1_545
Nb3 Se4 2.642078 1_545
Nb3 Se15 2.649712 1_545
Nb3 Se13 2.649721 1_545
Nb4 Se2 2.577016 1_555
Nb4 Se1 2.579320 1_555
Nb4 Se5 2.642064 1_655
Nb4 Se4 2.642078 1_655
Nb4 Se14 2.649712 1_655
Nb4 Se13 2.649721 1_655
Nb5 Se3 2.577012 1_555
Nb5 Se0 2.579315 1_555
Nb5 Se8 2.642079 1_555
Nb5 Se9 2.642079 1_555
Nb5 Se11 2.649722 1_555
Nb5 Se12 2.649722 1_555
Nb6 Se3 2.577017 1_555
Nb6 Se0 2.579320 1_555
Nb6 Se9 2.642064 1_565
Nb6 Se7 2.642078 1_565
Nb6 Se12 2.649712 1_565
Nb6 Se10 2.649721 1_565
Nb7 Se3 2.577016 1_555
Nb7 Se0 2.579320 1_555
Nb7 Se8 2.642064 1_455
Nb7 Se7 2.642078 1_455
Nb7 Se11 2.649712 1_455
Nb7 Se10 2.649721 1_455
