# generated using pymatgen
data_Sr3LiAs2F
_symmetry_space_group_name_H-M   'P 1'
_cell_length_a   4.46944745
_cell_length_b   12.04406708
_cell_length_c   12.70474128
_cell_angle_alpha   90.00000000
_cell_angle_beta   90.00000000
_cell_angle_gamma   90.00000000
_symmetry_Int_Tables_number   1
_chemical_formula_structural   Sr3LiAs2F
_chemical_formula_sum   'Sr12 Li4 As8 F4'
_cell_volume   683.90035159
_cell_formula_units_Z   4
loop_
 _symmetry_equiv_pos_site_id
 _symmetry_equiv_pos_as_xyz
  1  'x, y, z'
loop_
 _atom_site_type_symbol
 _atom_site_label
 _atom_site_symmetry_multiplicity
 _atom_site_fract_x
 _atom_site_fract_y
 _atom_site_fract_z
 _atom_site_occupancy
  Sr  Sr0  1  0.25000000  0.06352292  0.62133600  1
  Sr  Sr1  1  0.25000000  0.56352292  0.87866400  1
  Sr  Sr2  1  0.75000000  0.93647708  0.37866400  1
  Sr  Sr3  1  0.75000000  0.43647708  0.12133600  1
  Sr  Sr4  1  0.25000000  0.20436074  0.29901479  1
  Sr  Sr5  1  0.25000000  0.70436074  0.20098521  1
  Sr  Sr6  1  0.75000000  0.79563926  0.70098521  1
  Sr  Sr7  1  0.75000000  0.29563926  0.79901479  1
  Sr  Sr8  1  0.25000000  0.36782726  0.56087329  1
  Sr  Sr9  1  0.25000000  0.86782726  0.93912671  1
  Sr  Sr10  1  0.75000000  0.63217274  0.43912671  1
  Sr  Sr11  1  0.75000000  0.13217274  0.06087329  1
  Li  Li0  1  0.25000000  0.13496701  0.85716189  1
  Li  Li1  1  0.25000000  0.63496701  0.64283811  1
  Li  Li2  1  0.75000000  0.86503299  0.14283811  1
  Li  Li3  1  0.75000000  0.36503299  0.35716189  1
  As  As0  1  0.25000000  0.31453748  0.98328839  1
  As  As1  1  0.25000000  0.81453748  0.51671161  1
  As  As2  1  0.75000000  0.68546252  0.01671161  1
  As  As3  1  0.75000000  0.18546252  0.48328839  1
  As  As4  1  0.25000000  0.47572489  0.32552656  1
  As  As5  1  0.25000000  0.97572489  0.17447344  1
  As  As6  1  0.75000000  0.52427511  0.67447344  1
  As  As7  1  0.75000000  0.02427511  0.82552656  1
  F  F0  1  0.25000000  0.24120523  0.72178845  1
  F  F1  1  0.25000000  0.74120523  0.77821155  1
  F  F2  1  0.75000000  0.75879477  0.27821155  1
  F  F3  1  0.75000000  0.25879477  0.22178845  1
loop_
_geom_bond_atom_site_label_1
_geom_bond_atom_site_label_2
_geom_bond_distance
_geom_bond_site_symmetry_2
As0 Li0 2.691696 1_555
As0 Sr3 3.197959 1_556
As0 Sr3 3.197959 1_456
As0 Sr7 3.244499 1_455
As0 Sr7 3.244499 1_555
As0 Sr1 3.280187 1_555
As0 Sr11 3.284786 1_456
As0 Sr11 3.284786 1_556
As1 Li1 2.691696 1_555
As1 Sr2 3.197959 1_555
As1 Sr2 3.197959 1_455
As1 Sr6 3.244499 1_455
As1 Sr6 3.244499 1_555
As1 Sr0 3.280187 1_565
As1 Sr10 3.284786 1_555
As1 Sr10 3.284786 1_455
As2 Li2 2.691696 1_555
As2 Sr1 3.197959 1_554
As2 Sr1 3.197959 1_654
As2 Sr5 3.244499 1_555
As2 Sr5 3.244499 1_655
As2 Sr3 3.280187 1_555
As2 Sr9 3.284786 1_654
As2 Sr9 3.284786 1_554
As3 Li3 2.691696 1_555
As3 Sr0 3.197959 1_655
As3 Sr0 3.197959 1_555
As3 Sr4 3.244499 1_555
As3 Sr4 3.244499 1_655
As3 Sr2 3.280187 1_545
As3 Sr8 3.284786 1_555
As3 Sr8 3.284786 1_655
As4 Li3 2.633040 1_455
As4 Li3 2.633040 1_555
As4 Sr5 3.175919 1_555
As4 Sr10 3.259978 1_455
As4 Sr10 3.259978 1_555
As4 Sr8 3.260212 1_555
As4 Sr4 3.285638 1_555
As4 Sr3 3.456480 1_555
As4 Sr3 3.456480 1_455
As5 Li2 2.633040 1_455
As5 Li2 2.633040 1_555
As5 Sr4 3.175919 1_565
As5 Sr11 3.259978 1_565
As5 Sr11 3.259978 1_465
As5 Sr9 3.260212 1_554
As5 Sr5 3.285638 1_555
As5 Sr2 3.456480 1_555
As5 Sr2 3.456480 1_455
As6 Li1 2.633040 1_555
As6 Li1 2.633040 1_655
As6 Sr7 3.175919 1_555
As6 Sr8 3.259978 1_555
As6 Sr8 3.259978 1_655
As6 Sr10 3.260212 1_555
As6 Sr6 3.285638 1_555
As6 Sr1 3.456480 1_555
As6 Sr1 3.456480 1_655
As7 Li0 2.633040 1_655
As7 Li0 2.633040 1_555
As7 Sr6 3.175919 1_545
As7 Sr9 3.259978 1_545
As7 Sr9 3.259978 1_645
As7 Sr11 3.260212 1_556
As7 Sr7 3.285638 1_555
As7 Sr0 3.456480 1_555
As7 Sr0 3.456480 1_655
F0 Li0 2.143648 1_555
F0 Sr0 2.491670 1_555
F0 Sr7 2.527142 1_555
F0 Sr7 2.527142 1_455
F0 Sr8 2.550543 1_555
F1 Li1 2.143648 1_555
F1 Sr1 2.491670 1_555
F1 Sr6 2.527142 1_455
F1 Sr6 2.527142 1_555
F1 Sr9 2.550543 1_555
F2 Li2 2.143648 1_555
F2 Sr2 2.491670 1_555
F2 Sr5 2.527142 1_655
F2 Sr5 2.527142 1_555
F2 Sr10 2.550543 1_555
F3 Li3 2.143648 1_555
F3 Sr3 2.491670 1_555
F3 Sr4 2.527142 1_555
F3 Sr4 2.527142 1_655
F3 Sr11 2.550543 1_555
