# generated using pymatgen
data_Rb3NaZrO4
_symmetry_space_group_name_H-M   'P 1'
_cell_length_a   6.56383902
_cell_length_b   11.00609402
_cell_length_c   11.07601194
_cell_angle_alpha   67.62711175
_cell_angle_beta   90.00000000
_cell_angle_gamma   90.00000000
_symmetry_Int_Tables_number   1
_chemical_formula_structural   Rb3NaZrO4
_chemical_formula_sum   'Rb12 Na4 Zr4 O16'
_cell_volume   739.92506694
_cell_formula_units_Z   4
loop_
 _symmetry_equiv_pos_site_id
 _symmetry_equiv_pos_as_xyz
  1  'x, y, z'
loop_
 _atom_site_type_symbol
 _atom_site_label
 _atom_site_symmetry_multiplicity
 _atom_site_fract_x
 _atom_site_fract_y
 _atom_site_fract_z
 _atom_site_occupancy
  Rb  Rb0  1  0.68178008  0.02665488  0.33334803  1
  Rb  Rb1  1  0.12139749  0.31849437  0.61347108  1
  Rb  Rb2  1  0.38663099  0.54116729  0.31337415  1
  Rb  Rb3  1  0.11336901  0.54116729  0.81337415  1
  Rb  Rb4  1  0.81821992  0.02665488  0.83334803  1
  Rb  Rb5  1  0.61336901  0.45883271  0.68662585  1
  Rb  Rb6  1  0.87860251  0.68150563  0.38652892  1
  Rb  Rb7  1  0.18178008  0.97334512  0.16665197  1
  Rb  Rb8  1  0.62139749  0.68150563  0.88652892  1
  Rb  Rb9  1  0.37860251  0.31849437  0.11347108  1
  Rb  Rb10  1  0.31821992  0.97334512  0.66665197  1
  Rb  Rb11  1  0.88663099  0.45883271  0.18662585  1
  Na  Na0  1  0.61781994  0.87588544  0.10953754  1
  Na  Na1  1  0.38218006  0.12411456  0.89046246  1
  Na  Na2  1  0.88218006  0.87588544  0.60953754  1
  Na  Na3  1  0.11781994  0.12411456  0.39046246  1
  Zr  Zr0  1  0.35584034  0.76062011  0.48811954  1
  Zr  Zr1  1  0.64415966  0.23937989  0.51188046  1
  Zr  Zr2  1  0.85584034  0.23937989  0.01188046  1
  Zr  Zr3  1  0.14415966  0.76062011  0.98811954  1
  O  O0  1  0.98269662  0.20847920  0.18257222  1
  O  O1  1  0.48269662  0.79152080  0.31742778  1
  O  O2  1  0.25534048  0.58039158  0.05351414  1
  O  O3  1  0.13373117  0.89217471  0.45473409  1
  O  O4  1  0.74465952  0.41960842  0.94648586  1
  O  O5  1  0.43058851  0.22262539  0.39243451  1
  O  O6  1  0.63373117  0.10782529  0.04526591  1
  O  O7  1  0.01730338  0.79152080  0.81742778  1
  O  O8  1  0.75534048  0.41960842  0.44648586  1
  O  O9  1  0.06941149  0.22262539  0.89243451  1
  O  O10  1  0.36626883  0.89217471  0.95473409  1
  O  O11  1  0.86626883  0.10782529  0.54526591  1
  O  O12  1  0.56941149  0.77737461  0.60756549  1
  O  O13  1  0.24465952  0.58039158  0.55351414  1
  O  O14  1  0.51730338  0.20847920  0.68257222  1
  O  O15  1  0.93058851  0.77737461  0.10756549  1
loop_
_geom_bond_atom_site_label_1
_geom_bond_atom_site_label_2
_geom_bond_distance
_geom_bond_site_symmetry_2
Na0 O1 2.307194 1_555
Na0 O15 2.325660 1_555
Na0 O10 2.337577 1_554
Na0 O6 2.377144 1_565
Na1 O14 2.307194 1_555
Na1 O9 2.325660 1_555
Na1 O6 2.337577 1_556
Na1 O10 2.377144 1_545
Na2 O7 2.307194 1_655
Na2 O12 2.325660 1_555
Na2 O3 2.337577 1_655
Na2 O11 2.377144 1_565
Na3 O0 2.307194 1_455
Na3 O5 2.325660 1_555
Na3 O11 2.337577 1_455
Na3 O3 2.377144 1_545
O0 Zr2 1.973278 1_555
O0 Rb11 2.843608 1_555
O0 Rb9 2.845956 1_655
O0 Rb0 2.854954 1_555
O0 Rb7 2.963672 1_645
O1 Zr0 1.973278 1_555
O1 Rb2 2.843608 1_555
O1 Rb6 2.845956 1_555
O1 Rb7 2.854954 1_555
O1 Rb0 2.963672 1_565
O2 Zr3 1.974376 1_554
O2 Rb9 2.819042 1_555
O2 Rb2 2.875277 1_555
O2 Rb11 2.884296 1_455
O2 Rb8 2.977498 1_554
O2 Rb3 3.000565 1_554
O3 Zr0 1.987716 1_555
O3 Rb7 2.984753 1_555
O3 Rb10 3.061079 1_555
O3 Rb6 3.175625 1_455
O3 Rb0 3.359129 1_465
O4 Zr2 1.974376 1_556
O4 Rb8 2.819042 1_555
O4 Rb5 2.875277 1_555
O4 Rb3 2.884296 1_655
O4 Rb9 2.977498 1_556
O4 Rb11 3.000565 1_556
O5 Zr1 1.983730 1_555
O5 Rb9 2.880065 1_555
O5 Rb0 2.978829 1_555
O5 Rb2 3.286989 1_555
O5 Rb10 3.309465 1_545
O6 Zr2 1.987716 1_555
O6 Rb0 2.984753 1_555
O6 Rb4 3.061079 1_554
O6 Rb9 3.175625 1_555
O6 Rb7 3.359129 1_545
O7 Zr3 1.973278 1_555
O7 Rb3 2.843608 1_555
O7 Rb8 2.845956 1_455
O7 Rb10 2.854954 1_555
O7 Rb4 2.963672 1_465
O8 Zr1 1.974376 1_555
O8 Rb6 2.819042 1_555
O8 Rb11 2.875277 1_555
O8 Rb2 2.884296 1_555
O8 Rb1 2.977498 1_655
O8 Rb5 3.000565 1_555
O9 Zr2 1.983730 1_456
O9 Rb1 2.880065 1_555
O9 Rb4 2.978829 1_455
O9 Rb3 3.286989 1_555
O9 Rb7 3.309465 1_546
O10 Zr3 1.987716 1_555
O10 Rb10 2.984753 1_555
O10 Rb7 3.061079 1_556
O10 Rb8 3.175625 1_555
O10 Rb4 3.359129 1_565
O11 Zr1 1.987716 1_555
O11 Rb4 2.984753 1_555
O11 Rb0 3.061079 1_555
O11 Rb1 3.175625 1_655
O11 Rb10 3.359129 1_645
O12 Zr0 1.983730 1_555
O12 Rb8 2.880065 1_555
O12 Rb10 2.978829 1_555
O12 Rb5 3.286989 1_555
O12 Rb0 3.309465 1_565
O13 Zr0 1.974376 1_555
O13 Rb1 2.819042 1_555
O13 Rb3 2.875277 1_555
O13 Rb5 2.884296 1_555
O13 Rb6 2.977498 1_455
O13 Rb2 3.000565 1_555
O14 Zr1 1.973278 1_555
O14 Rb5 2.843608 1_555
O14 Rb1 2.845956 1_555
O14 Rb4 2.854954 1_555
O14 Rb10 2.963672 1_545
O15 Zr3 1.983730 1_654
O15 Rb6 2.880065 1_555
O15 Rb7 2.978829 1_655
O15 Rb11 3.286989 1_555
O15 Rb4 3.309465 1_564
