# generated using pymatgen
data_Cs2NaTaTe4
_symmetry_space_group_name_H-M   'P 1'
_cell_length_a   15.37739192
_cell_length_b   13.83794487
_cell_length_c   8.44510633
_cell_angle_alpha   83.52816143
_cell_angle_beta   63.39999986
_cell_angle_gamma   33.07183203
_symmetry_Int_Tables_number   1
_chemical_formula_structural   Cs2NaTaTe4
_chemical_formula_sum   'Cs4 Na2 Ta2 Te8'
_cell_volume   739.12976272
_cell_formula_units_Z   2
loop_
 _symmetry_equiv_pos_site_id
 _symmetry_equiv_pos_as_xyz
  1  'x, y, z'
loop_
 _atom_site_type_symbol
 _atom_site_label
 _atom_site_symmetry_multiplicity
 _atom_site_fract_x
 _atom_site_fract_y
 _atom_site_fract_z
 _atom_site_occupancy
  Cs  Cs0  1  0.68082395  0.68082395  0.31917605  1
  Cs  Cs1  1  0.31917605  0.31917605  0.68082395  1
  Cs  Cs2  1  0.56917605  0.56917605  0.93082395  1
  Cs  Cs3  1  0.93082395  0.93082395  0.56917605  1
  Na  Na0  1  0.00000000  0.00000000  0.00000000  1
  Na  Na1  1  0.25000000  0.25000000  0.25000000  1
  Ta  Ta0  1  0.50000000  0.50000000  0.50000000  1
  Ta  Ta1  1  0.75000000  0.75000000  0.75000000  1
  Te  Te0  1  0.25238250  0.86166476  0.54591919  1
  Te  Te1  1  0.34003355  0.54591919  0.86166476  1
  Te  Te2  1  0.54591919  0.34003355  0.25238250  1
  Te  Te3  1  0.86166476  0.25238250  0.34003355  1
  Te  Te4  1  0.38833524  0.99761750  0.90996645  1
  Te  Te5  1  0.90996645  0.70408081  0.38833524  1
  Te  Te6  1  0.70408081  0.90996645  0.99761750  1
  Te  Te7  1  0.99761750  0.38833524  0.70408081  1
loop_
_geom_bond_atom_site_label_1
_geom_bond_atom_site_label_2
_geom_bond_distance
_geom_bond_site_symmetry_2
Cs0 Te0 3.935185 1_555
Cs0 Te3 3.935186 1_555
Cs0 Te7 4.016164 1_554
Cs0 Te4 4.016164 1_555
Cs0 Te6 4.080004 1_554
Cs0 Te5 4.080005 1_555
Cs1 Te2 3.935185 1_555
Cs1 Te1 3.935186 1_555
Cs1 Te6 4.016165 1_455
Cs1 Te5 4.016165 1_545
Cs1 Te4 4.080005 1_545
Cs1 Te7 4.080005 1_455
Cs2 Te7 3.935185 1_555
Cs2 Te4 3.935186 1_555
Cs2 Te0 4.016164 1_556
Cs2 Te3 4.016164 1_555
Cs2 Te2 4.080004 1_556
Cs2 Te1 4.080005 1_555
Cs3 Te6 3.935185 1_555
Cs3 Te5 3.935186 1_555
Cs3 Te2 4.016165 1_655
Cs3 Te1 4.016165 1_565
Cs3 Te3 4.080005 1_565
Cs3 Te0 4.080005 1_655
Na0 Te0 3.050862 1_544
Na0 Te3 3.050863 1_455
Na0 Te2 3.050863 1_455
Na0 Te1 3.050863 1_544
Na1 Te7 3.050862 1_455
Na1 Te4 3.050863 1_544
Na1 Te6 3.050863 1_544
Na1 Te5 3.050863 1_455
Ta0 Te1 2.621664 1_555
Ta0 Te2 2.621664 1_555
Ta0 Te3 2.621664 1_555
Ta0 Te0 2.621664 1_555
Ta1 Te5 2.621664 1_555
Ta1 Te6 2.621664 1_555
Ta1 Te4 2.621664 1_555
Ta1 Te7 2.621664 1_555
