# generated using pymatgen
data_BaTi(CuSe2)2
_symmetry_space_group_name_H-M   'P 1'
_cell_length_a   9.81322028
_cell_length_b   9.81322053
_cell_length_c   7.59959127
_cell_angle_alpha   90.00000000
_cell_angle_beta   90.00000000
_cell_angle_gamma   146.92541708
_symmetry_Int_Tables_number   1
_chemical_formula_structural   BaTi(CuSe2)2
_chemical_formula_sum   'Ba2 Ti2 Cu4 Se8'
_cell_volume   399.38467627
_cell_formula_units_Z   2
loop_
 _symmetry_equiv_pos_site_id
 _symmetry_equiv_pos_as_xyz
  1  'x, y, z'
loop_
 _atom_site_type_symbol
 _atom_site_label
 _atom_site_symmetry_multiplicity
 _atom_site_fract_x
 _atom_site_fract_y
 _atom_site_fract_z
 _atom_site_occupancy
  Ba  Ba0  1  0.43408323  0.08302981  0.25000000  1
  Ba  Ba1  1  0.08302981  0.43408323  0.75000000  1
  Ti  Ti0  1  0.61207316  0.39056572  0.75000000  1
  Ti  Ti1  1  0.39056572  0.61207316  0.25000000  1
  Cu  Cu0  1  0.11131356  0.89118680  0.75000000  1
  Cu  Cu1  1  0.89118680  0.11131356  0.25000000  1
  Cu  Cu2  1  0.51945953  0.51945953  0.50000000  1
  Cu  Cu3  1  0.51945953  0.51945953  0.00000000  1
  Se  Se0  1  0.25815602  0.24692800  0.75000000  1
  Se  Se1  1  0.24692800  0.25815602  0.25000000  1
  Se  Se2  1  0.46773942  0.03716668  0.75000000  1
  Se  Se3  1  0.03716668  0.46773942  0.25000000  1
  Se  Se4  1  0.63766214  0.85635663  0.99170983  1
  Se  Se5  1  0.85635663  0.63766214  0.00829017  1
  Se  Se6  1  0.63766214  0.85635663  0.50829017  1
  Se  Se7  1  0.85635663  0.63766214  0.49170983  1
loop_
_geom_bond_atom_site_label_1
_geom_bond_atom_site_label_2
_geom_bond_distance
_geom_bond_site_symmetry_2
Ba0 Se1 3.408253 1_555
Ba0 Se3 3.439911 1_655
Ba0 Se3 3.494846 1_545
Ba0 Se7 3.517169 1_555
Ba0 Se5 3.517169 1_555
Ba0 Se7 3.618178 1_445
Ba0 Se5 3.618178 1_445
Ba0 Se2 3.872881 1_554
Ba0 Se2 3.872881 1_555
Ba1 Se0 3.408253 1_555
Ba1 Se2 3.439911 1_565
Ba1 Se2 3.494845 1_455
Ba1 Se4 3.517169 1_555
Ba1 Se6 3.517169 1_555
Ba1 Se4 3.618178 1_445
Ba1 Se6 3.618178 1_445
Ba1 Se3 3.872881 1_555
Ba1 Se3 3.872881 1_556
Cu0 Se0 2.415086 1_565
Cu0 Se5 2.422896 1_456
Cu0 Se7 2.422896 1_455
Cu0 Se2 2.426657 1_565
Cu1 Se1 2.415086 1_655
Cu1 Se6 2.422896 1_545
Cu1 Se4 2.422896 1_544
Cu1 Se3 2.426657 1_655
Cu2 Se1 2.417482 1_555
Cu2 Se0 2.417482 1_555
Cu2 Se7 2.419192 1_555
Cu2 Se6 2.419192 1_555
Cu3 Se1 2.417482 1_555
Cu3 Se0 2.417482 1_554
Cu3 Se5 2.419192 1_555
Cu3 Se4 2.419192 1_554
Se0 Ti0 2.417565 1_555
Se1 Ti1 2.417565 1_555
Se2 Ti0 2.408515 1_555
Se3 Ti1 2.408515 1_555
Se4 Ti1 2.395315 1_556
Se5 Ti0 2.395315 1_554
Se6 Ti1 2.395315 1_555
Se7 Ti0 2.395315 1_555
