# generated using pymatgen
data_BaCaCdP2
_symmetry_space_group_name_H-M   'P 1'
_cell_length_a   9.01462559
_cell_length_b   9.01462432
_cell_length_c   7.06473080
_cell_angle_alpha   90.00000000
_cell_angle_beta   90.00000000
_cell_angle_gamma   152.06197309
_symmetry_Int_Tables_number   1
_chemical_formula_structural   BaCaCdP2
_chemical_formula_sum   'Ba2 Ca2 Cd2 P4'
_cell_volume   268.97728978
_cell_formula_units_Z   2
loop_
 _symmetry_equiv_pos_site_id
 _symmetry_equiv_pos_as_xyz
  1  'x, y, z'
loop_
 _atom_site_type_symbol
 _atom_site_label
 _atom_site_symmetry_multiplicity
 _atom_site_fract_x
 _atom_site_fract_y
 _atom_site_fract_z
 _atom_site_occupancy
  Ba  Ba0  1  0.30109433  0.69890567  0.95394585  1
  Ba  Ba1  1  0.69890567  0.30109433  0.45394585  1
  Ca  Ca0  1  0.47204933  0.52795067  0.26666901  1
  Ca  Ca1  1  0.52795067  0.47204933  0.76666901  1
  Cd  Cd0  1  0.09377380  0.90622620  0.09997891  1
  Cd  Cd1  1  0.90622620  0.09377380  0.59997891  1
  P  P0  1  0.05413070  0.94586930  0.47492074  1
  P  P1  1  0.94586930  0.05413070  0.97492074  1
  P  P2  1  0.33481181  0.66518819  0.49315449  1
  P  P3  1  0.66518819  0.33481181  0.99315449  1
loop_
_geom_bond_atom_site_label_1
_geom_bond_atom_site_label_2
_geom_bond_distance
_geom_bond_site_symmetry_2
Ba0 P3 3.235150 1_565
Ba0 P3 3.235151 1_455
Ba0 P2 3.308387 1_555
Ba0 P1 3.342668 1_455
Ba0 P1 3.342669 1_565
Ba0 P2 3.854771 1_556
Ba1 P2 3.235150 1_545
Ba1 P2 3.235151 1_655
Ba1 P3 3.308387 1_554
Ba1 P0 3.342668 1_655
Ba1 P0 3.342669 1_545
Ba1 P3 3.854771 1_555
Ca0 P2 2.885402 1_555
Ca0 P0 2.993721 1_545
Ca0 P0 2.993722 1_655
Ca0 P1 3.032073 1_564
Ca0 P1 3.032073 1_454
Ca1 P3 2.885402 1_555
Ca1 P1 2.993721 1_565
Ca1 P1 2.993722 1_455
Ca1 P0 3.032073 1_545
Ca1 P0 3.032073 1_655
Cd0 P3 2.620335 1_454
Cd0 P3 2.620336 1_564
Cd0 P1 2.734411 1_464
Cd0 P0 2.738166 1_555
Cd1 P2 2.620335 1_655
Cd1 P2 2.620336 1_545
Cd1 P0 2.734411 1_645
Cd1 P1 2.738166 1_555
