# generated using pymatgen
data_Nb2SbO7F
_symmetry_space_group_name_H-M   'P 1'
_cell_length_a   6.28920813
_cell_length_b   6.28920803
_cell_length_c   3.84417644
_cell_angle_alpha   90.00000000
_cell_angle_beta   90.00000000
_cell_angle_gamma   117.79868241
_symmetry_Int_Tables_number   1
_chemical_formula_structural   Nb2SbO7F
_chemical_formula_sum   'Nb2 Sb1 O7 F1'
_cell_volume   134.50489831
_cell_formula_units_Z   1
loop_
 _symmetry_equiv_pos_site_id
 _symmetry_equiv_pos_as_xyz
  1  'x, y, z'
loop_
 _atom_site_type_symbol
 _atom_site_label
 _atom_site_symmetry_multiplicity
 _atom_site_fract_x
 _atom_site_fract_y
 _atom_site_fract_z
 _atom_site_occupancy
  Nb  Nb0  1  0.69602832  0.30397168  0.00000000  1
  Nb  Nb1  1  0.30397168  0.69602832  0.00000000  1
  Sb  Sb0  1  0.00000000  0.00000000  0.00000000  1
  O  O0  1  0.33377614  0.03908277  0.00000000  1
  O  O1  1  0.03908277  0.33377614  0.00000000  1
  O  O2  1  0.00000000  0.00000000  0.50000000  1
  O  O3  1  0.67870606  0.32129394  0.50000000  1
  O  O4  1  0.32129394  0.67870606  0.50000000  1
  O  O5  1  0.96091723  0.66622386  0.00000000  1
  O  O6  1  0.66622386  0.96091723  0.00000000  1
  F  F0  1  0.50000000  0.50000000  0.00000000  1
loop_
_geom_bond_atom_site_label_1
_geom_bond_atom_site_label_2
_geom_bond_distance
_geom_bond_site_symmetry_2
Nb0 O3 1.931122 1_555
Nb0 O3 1.931122 1_554
Nb0 O6 2.076752 1_545
Nb0 O1 2.076752 1_655
Nb0 O5 2.103747 1_555
Nb0 O0 2.103747 1_555
Nb1 O4 1.931122 1_555
Nb1 O4 1.931122 1_554
Nb1 O0 2.076752 1_565
Nb1 O5 2.076752 1_455
Nb1 O1 2.103747 1_555
Nb1 O6 2.103747 1_555
O0 Sb0 1.996431 1_555
O1 Sb0 1.996431 1_555
O2 Sb0 1.922088 1_556
O2 Sb0 1.922088 1_555
O5 Sb0 1.996431 1_665
O6 Sb0 1.996431 1_665
F0 Nb0 2.111305 1_555
F0 Nb1 2.111305 1_555
