# generated using pymatgen
data_Sr10TaWN10
_symmetry_space_group_name_H-M   'P 1'
_cell_length_a   7.33116950
_cell_length_b   7.33117027
_cell_length_c   9.37419131
_cell_angle_alpha   81.52439000
_cell_angle_beta   81.52438940
_cell_angle_gamma   59.47866064
_symmetry_Int_Tables_number   1
_chemical_formula_structural   Sr10TaWN10
_chemical_formula_sum   'Sr10 Ta1 W1 N10'
_cell_volume   427.71725600
_cell_formula_units_Z   1
loop_
 _symmetry_equiv_pos_site_id
 _symmetry_equiv_pos_as_xyz
  1  'x, y, z'
loop_
 _atom_site_type_symbol
 _atom_site_label
 _atom_site_symmetry_multiplicity
 _atom_site_fract_x
 _atom_site_fract_y
 _atom_site_fract_z
 _atom_site_occupancy
  Sr  Sr0  1  0.87864654  0.35604141  0.84174938  1
  Sr  Sr1  1  0.87596746  0.87596746  0.82375247  1
  Sr  Sr2  1  0.73762095  0.73762095  0.53148681  1
  Sr  Sr3  1  0.74532469  0.25067914  0.50486596  1
  Sr  Sr4  1  0.62844589  0.13059133  0.14525815  1
  Sr  Sr5  1  0.35604141  0.87864654  0.84174938  1
  Sr  Sr6  1  0.25067914  0.74532469  0.50486596  1
  Sr  Sr7  1  0.23848568  0.23848568  0.49535440  1
  Sr  Sr8  1  0.14024808  0.14024808  0.16393158  1
  Sr  Sr9  1  0.13059133  0.62844589  0.14525815  1
  Ta  Ta0  1  0.36768041  0.36768041  0.77334555  1
  W  W0  1  0.63582360  0.63582360  0.22594372  1
  N  N0  1  0.89423540  0.47898151  0.31993590  1
  N  N1  1  0.99864261  0.99864261  0.01551640  1
  N  N2  1  0.69103731  0.69103731  0.02778286  1
  N  N3  1  0.52484270  0.52484270  0.70466183  1
  N  N4  1  0.47898151  0.89423540  0.31993590  1
  N  N5  1  0.52817209  0.09815521  0.67915828  1
  N  N6  1  0.48503066  0.48503066  0.27729582  1
  N  N7  1  0.31475829  0.31475829  0.98182361  1
  N  N8  1  0.06287704  0.06287704  0.64297559  1
  N  N9  1  0.09815521  0.52817209  0.67915828  1
loop_
_geom_bond_atom_site_label_1
_geom_bond_atom_site_label_2
_geom_bond_distance
_geom_bond_site_symmetry_2
N0 W0 1.915276 1_555
N0 Sr2 2.659380 1_555
N0 Sr8 2.702250 1_655
N0 Sr3 2.727845 1_555
N0 Sr9 2.729040 1_655
N0 Sr7 2.833918 1_655
N1 Sr8 2.457082 1_665
N1 Sr4 2.547118 1_565
N1 Sr9 2.547118 1_655
N1 Sr1 2.573681 1_554
N1 Sr5 2.667502 1_654
N1 Sr0 2.667503 1_564
N2 W0 1.871227 1_555
N2 Sr1 2.769924 1_554
N2 Sr5 2.844110 1_554
N2 Sr0 2.844110 1_554
N3 Ta0 1.995155 1_555
N3 Sr6 2.660411 1_555
N3 Sr3 2.660411 1_555
N3 Sr0 2.676589 1_555
N3 Sr5 2.676589 1_555
N3 Sr2 2.912155 1_555
N4 W0 1.915277 1_555
N4 Sr2 2.659380 1_555
N4 Sr8 2.702250 1_565
N4 Sr6 2.727845 1_555
N4 Sr4 2.729040 1_565
N4 Sr7 2.833918 1_565
N5 Ta0 1.978606 1_555
N5 Sr7 2.621900 1_555
N5 Sr3 2.637618 1_555
N5 Sr1 2.672291 1_545
N5 Sr5 2.697758 1_545
N5 Sr2 2.754973 1_545
N6 W0 1.898293 1_555
N6 Sr9 2.679351 1_555
N6 Sr4 2.679351 1_555
N6 Sr3 2.816677 1_555
N6 Sr6 2.816677 1_555
N7 Ta0 1.956086 1_555
N7 Sr8 2.561774 1_556
N7 Sr4 2.594963 1_556
N7 Sr9 2.594963 1_556
N8 Sr7 2.421370 1_555
N8 Sr3 2.469590 1_455
N8 Sr6 2.469590 1_545
N8 Sr1 2.676787 1_445
N8 Sr5 2.721336 1_545
N8 Sr0 2.721337 1_455
N9 Ta0 1.978606 1_555
N9 Sr7 2.621900 1_555
N9 Sr6 2.637618 1_555
N9 Sr1 2.672292 1_455
N9 Sr0 2.697758 1_455
N9 Sr2 2.754973 1_455
