# generated using pymatgen
data_Hf5Zr(AuN)2
_symmetry_space_group_name_H-M   'P 1'
_cell_length_a   5.90669171
_cell_length_b   5.90669213
_cell_length_c   8.95032624
_cell_angle_alpha   90.00000000
_cell_angle_beta   90.00000000
_cell_angle_gamma   147.33846457
_symmetry_Int_Tables_number   1
_chemical_formula_structural   Hf5Zr(AuN)2
_chemical_formula_sum   'Hf5 Zr1 Au2 N2'
_cell_volume   168.52332451
_cell_formula_units_Z   1
loop_
 _symmetry_equiv_pos_site_id
 _symmetry_equiv_pos_as_xyz
  1  'x, y, z'
loop_
 _atom_site_type_symbol
 _atom_site_label
 _atom_site_symmetry_multiplicity
 _atom_site_fract_x
 _atom_site_fract_y
 _atom_site_fract_z
 _atom_site_occupancy
  Hf  Hf0  1  0.62765651  0.37234149  0.04551753  1
  Hf  Hf1  1  0.62765651  0.37234149  0.45448347  1
  Hf  Hf2  1  0.37339882  0.62659918  0.54773356  1
  Hf  Hf3  1  0.04561760  0.95438140  0.75000000  1
  Hf  Hf4  1  0.37339882  0.62659918  0.95226644  1
  Zr  Zr0  1  0.95390794  0.04609106  0.25000000  1
  Au  Au0  1  0.24562804  0.75436996  0.25000000  1
  Au  Au1  1  0.75087836  0.24911964  0.75000000  1
  N  N0  1  0.00092570  0.99907430  0.99663609  1
  N  N1  1  0.00092570  0.99907430  0.50336391  1
loop_
_geom_bond_atom_site_label_1
_geom_bond_atom_site_label_2
_geom_bond_distance
_geom_bond_site_symmetry_2
Hf0 N0 2.239203 1_544
Hf0 N0 2.239208 1_654
Hf1 N1 2.239201 1_545
Hf1 N1 2.239207 1_655
Hf2 N1 2.237471 1_545
Hf2 N1 2.237476 1_655
Hf3 N0 2.264873 1_555
Hf3 N1 2.264873 1_555
Hf4 N0 2.237471 1_545
Hf4 N0 2.237476 1_655
Au0 Hf0 2.810107 1_455
Au0 Hf0 2.810107 1_565
Au0 Hf1 2.810112 1_455
Au0 Hf1 2.810113 1_565
Au0 Zr0 2.886828 1_455
Au0 Zr0 2.886829 1_565
Au0 Hf4 3.033051 1_554
Au0 Hf2 3.033051 1_555
Au1 Hf2 2.822250 1_655
Au1 Hf4 2.822250 1_655
Au1 Hf2 2.822250 1_545
Au1 Hf4 2.822250 1_545
Au1 Hf3 2.858909 1_545
Au1 Hf3 2.858911 1_655
Au1 Hf1 2.991203 1_555
Au1 Hf0 2.991211 1_556
N0 Zr0 2.329492 1_466
N1 Zr0 2.329492 1_465
