# generated using pymatgen
data_Hf(SeO4)2
_symmetry_space_group_name_H-M   'P 1'
_cell_length_a   5.50910938
_cell_length_b   5.50911032
_cell_length_c   6.20802579
_cell_angle_alpha   90.00000000
_cell_angle_beta   90.00000000
_cell_angle_gamma   120.00000016
_symmetry_Int_Tables_number   1
_chemical_formula_structural   Hf(SeO4)2
_chemical_formula_sum   'Hf1 Se2 O8'
_cell_volume   163.17251505
_cell_formula_units_Z   1
loop_
 _symmetry_equiv_pos_site_id
 _symmetry_equiv_pos_as_xyz
  1  'x, y, z'
loop_
 _atom_site_type_symbol
 _atom_site_label
 _atom_site_symmetry_multiplicity
 _atom_site_fract_x
 _atom_site_fract_y
 _atom_site_fract_z
 _atom_site_occupancy
  Hf  Hf0  1  0.00000000  0.00000000  0.00000000  1
  Se  Se0  1  0.33333300  0.66666700  0.29406857  1
  Se  Se1  1  0.66666600  0.33333200  0.70593143  1
  O  O0  1  0.66666600  0.33333200  0.44847135  1
  O  O1  1  0.33333300  0.66666700  0.55152865  1
  O  O2  1  0.17509526  0.34751898  0.19003977  1
  O  O3  1  0.17242472  0.82490474  0.19003977  1
  O  O4  1  0.65248002  0.82757628  0.19003977  1
  O  O5  1  0.34751998  0.17242472  0.80995923  1
  O  O6  1  0.82757628  0.17509426  0.80995923  1
  O  O7  1  0.82490374  0.65248002  0.80995923  1
loop_
_geom_bond_atom_site_label_1
_geom_bond_atom_site_label_2
_geom_bond_distance
_geom_bond_site_symmetry_2
Hf0 O6 2.034934 1_454
Hf0 O2 2.034934 1_555
Hf0 O4 2.034938 1_445
Hf0 O3 2.034938 1_545
Hf0 O5 2.034941 1_554
Hf0 O7 2.034942 1_444
O0 Se1 1.598319 1_555
O1 Se0 1.598319 1_555
O2 Se0 1.653976 1_555
O3 Se0 1.653967 1_555
O4 Se0 1.653971 1_555
O5 Se1 1.653965 1_555
O6 Se1 1.653973 1_555
O7 Se1 1.653974 1_555
