# generated using pymatgen
data_Lu10Ga4BiIr
_symmetry_space_group_name_H-M   'P 1'
_cell_length_a   8.78857857
_cell_length_b   8.78857703
_cell_length_c   8.78857842
_cell_angle_alpha   130.32617172
_cell_angle_beta   130.32616035
_cell_angle_gamma   72.88587419
_symmetry_Int_Tables_number   1
_chemical_formula_structural   Lu10Ga4BiIr
_chemical_formula_sum   'Lu10 Ga4 Bi1 Ir1'
_cell_volume   385.37998399
_cell_formula_units_Z   1
loop_
 _symmetry_equiv_pos_site_id
 _symmetry_equiv_pos_as_xyz
  1  'x, y, z'
loop_
 _atom_site_type_symbol
 _atom_site_label
 _atom_site_symmetry_multiplicity
 _atom_site_fract_x
 _atom_site_fract_y
 _atom_site_fract_z
 _atom_site_occupancy
  Lu  Lu0  1  0.98472395  0.98472395  0.00000000  1
  Lu  Lu1  1  0.51527605  0.51527605  1.00000000  1
  Lu  Lu2  1  0.84256943  0.28859566  0.83897359  1
  Lu  Lu3  1  0.21140434  0.65743057  0.16102641  1
  Lu  Lu4  1  0.44962307  0.00359684  0.16102641  1
  Lu  Lu5  1  0.28859566  0.44962307  0.44602623  1
  Lu  Lu6  1  0.05037693  0.21140434  0.55397377  1
  Lu  Lu7  1  0.49640316  0.05037693  0.83897359  1
  Lu  Lu8  1  0.65743057  0.49640316  0.44602623  1
  Lu  Lu9  1  0.00359684  0.84256943  0.55397377  1
  Ga  Ga0  1  0.12458705  0.62458705  0.74917410  1
  Ga  Ga1  1  0.87541295  0.37541295  0.25082590  1
  Ga  Ga2  1  0.62458705  0.87541295  0.50000000  1
  Ga  Ga3  1  0.37541295  0.12458705  0.50000000  1
  Bi  Bi0  1  0.75000000  0.75000000  0.00000000  1
  Ir  Ir0  1  0.25000000  0.25000000  0.00000000  1
loop_
_geom_bond_atom_site_label_1
_geom_bond_atom_site_label_2
_geom_bond_distance
_geom_bond_site_symmetry_2
Ga0 Ga1 2.601680 1_455
Ga0 Lu6 2.904757 1_555
Ga0 Lu9 2.904757 1_555
Ga0 Lu0 2.928316 1_456
Ga0 Lu1 2.928317 1_555
Ga0 Lu3 2.994974 1_556
Ga0 Lu4 2.994983 1_566
Ga0 Lu5 3.147030 1_555
Ga0 Lu8 3.147030 1_455
Ga1 Lu8 2.904758 1_555
Ga1 Lu5 2.904758 1_655
Ga1 Lu0 2.928316 1_545
Ga1 Lu1 2.928317 1_554
Ga1 Lu2 2.994974 1_554
Ga1 Lu7 2.994984 1_554
Ga1 Lu9 3.147029 1_655
Ga1 Lu6 3.147030 1_655
Ga2 Ga3 2.601680 1_565
Ga2 Lu2 2.904755 1_565
Ga2 Lu3 2.904756 1_555
Ga2 Lu1 2.928316 1_554
Ga2 Lu0 2.928317 1_556
Ga2 Lu8 2.994982 1_555
Ga2 Lu9 2.994983 1_655
Ga2 Lu7 3.147038 1_565
Ga2 Lu4 3.147038 1_565
Ga3 Lu4 2.904766 1_555
Ga3 Lu7 2.904766 1_555
Ga3 Lu1 2.928316 1_555
Ga3 Lu0 2.928317 1_445
Ga3 Lu5 2.994982 1_555
Ga3 Lu6 2.994983 1_555
Ga3 Lu3 3.147028 1_545
Ga3 Lu2 3.147028 1_555
Bi0 Lu0 3.318979 1_555
Bi0 Lu1 3.318979 1_554
Bi0 Lu7 3.351019 1_564
Bi0 Lu4 3.351019 1_565
Bi0 Lu6 3.351023 1_665
Bi0 Lu8 3.351023 1_554
Bi0 Lu5 3.351023 1_554
Bi0 Lu9 3.351024 1_655
Bi0 Lu2 3.351025 1_554
Bi0 Lu3 3.351026 1_655
Ir0 Lu4 2.878758 1_555
Ir0 Lu7 2.878758 1_554
Ir0 Lu9 2.878762 1_544
Ir0 Lu5 2.878763 1_555
Ir0 Lu8 2.878763 1_555
Ir0 Lu6 2.878763 1_554
Ir0 Lu3 2.878764 1_555
Ir0 Lu2 2.878765 1_454
