# generated using pymatgen
data_Li4GeSe4
_symmetry_space_group_name_H-M   'P 1'
_cell_length_a   6.48761165
_cell_length_b   8.15358240
_cell_length_c   14.75452139
_cell_angle_alpha   90.00000000
_cell_angle_beta   90.00000000
_cell_angle_gamma   90.00000000
_symmetry_Int_Tables_number   1
_chemical_formula_structural   Li4GeSe4
_chemical_formula_sum   'Li16 Ge4 Se16'
_cell_volume   780.47399203
_cell_formula_units_Z   4
loop_
 _symmetry_equiv_pos_site_id
 _symmetry_equiv_pos_as_xyz
  1  'x, y, z'
loop_
 _atom_site_type_symbol
 _atom_site_label
 _atom_site_symmetry_multiplicity
 _atom_site_fract_x
 _atom_site_fract_y
 _atom_site_fract_z
 _atom_site_occupancy
  Li  Li0  1  0.50000000  0.00000000  0.00000000  1
  Li  Li1  1  0.50000000  0.50000000  0.00000000  1
  Li  Li2  1  0.87673310  0.25000000  0.08513191  1
  Li  Li3  1  0.31073823  0.50032968  0.17673779  1
  Li  Li4  1  0.31073823  0.99967032  0.17673779  1
  Li  Li5  1  0.81073823  0.00032968  0.32326221  1
  Li  Li6  1  0.81073823  0.49967032  0.32326221  1
  Li  Li7  1  0.37673310  0.75000000  0.41486809  1
  Li  Li8  1  0.00000000  0.00000000  0.50000000  1
  Li  Li9  1  0.00000000  0.50000000  0.50000000  1
  Li  Li10  1  0.62326690  0.25000000  0.58513191  1
  Li  Li11  1  0.18926177  0.50032968  0.67673779  1
  Li  Li12  1  0.18926177  0.99967032  0.67673779  1
  Li  Li13  1  0.68926177  0.00032968  0.82326221  1
  Li  Li14  1  0.68926177  0.49967032  0.82326221  1
  Li  Li15  1  0.12326690  0.75000000  0.91486809  1
  Ge  Ge0  1  0.85063845  0.75000000  0.08942094  1
  Ge  Ge1  1  0.35063845  0.25000000  0.41057906  1
  Ge  Ge2  1  0.64936155  0.75000000  0.58942094  1
  Ge  Ge3  1  0.14936155  0.25000000  0.91057906  1
  Se  Se0  1  0.27252825  0.25000000  0.06319843  1
  Se  Se1  1  0.21344900  0.75000000  0.08680997  1
  Se  Se2  1  0.71687712  0.51075177  0.15689759  1
  Se  Se3  1  0.71687712  0.98924823  0.15689759  1
  Se  Se4  1  0.21687712  0.01075177  0.34310241  1
  Se  Se5  1  0.21687712  0.48924823  0.34310241  1
  Se  Se6  1  0.71344900  0.25000000  0.41319003  1
  Se  Se7  1  0.77252825  0.75000000  0.43680157  1
  Se  Se8  1  0.22747175  0.25000000  0.56319843  1
  Se  Se9  1  0.28655100  0.75000000  0.58680997  1
  Se  Se10  1  0.78312288  0.51075177  0.65689759  1
  Se  Se11  1  0.78312288  0.98924823  0.65689759  1
  Se  Se12  1  0.28312288  0.01075177  0.84310241  1
  Se  Se13  1  0.28312288  0.48924823  0.84310241  1
  Se  Se14  1  0.78655100  0.25000000  0.91319003  1
  Se  Se15  1  0.72747175  0.75000000  0.93680157  1
loop_
_geom_bond_atom_site_label_1
_geom_bond_atom_site_label_2
_geom_bond_distance
_geom_bond_site_symmetry_2
Li0 Se0 2.683724 1_555
Li0 Se15 2.683724 1_544
Li0 Se3 2.710418 1_545
Li0 Se12 2.710418 1_554
Li0 Se1 3.041645 1_545
Li0 Se14 3.041645 1_554
Li1 Se0 2.683724 1_555
Li1 Se15 2.683724 1_554
Li1 Se2 2.710418 1_555
Li1 Se13 2.710418 1_554
Li1 Se1 3.041645 1_555
Li1 Se14 3.041645 1_554
Li2 Se0 2.588078 1_655
Li2 Se2 2.591694 1_555
Li2 Se3 2.591694 1_545
Li2 Se14 2.603510 1_554
Li3 Se1 2.510577 1_555
Li3 Se5 2.530647 1_555
Li3 Se0 2.652137 1_555
Li3 Se2 2.652444 1_555
Li4 Se1 2.510577 1_555
Li4 Se4 2.530647 1_565
Li4 Se0 2.652137 1_565
Li4 Se3 2.652444 1_555
Li5 Se6 2.510577 1_555
Li5 Se3 2.530647 1_545
Li5 Se7 2.652137 1_545
Li5 Se4 2.652444 1_655
Li6 Se6 2.510577 1_555
Li6 Se2 2.530647 1_555
Li6 Se7 2.652137 1_555
Li6 Se5 2.652444 1_655
Li7 Se7 2.588078 1_555
Li7 Se4 2.591694 1_565
Li7 Se5 2.591694 1_555
Li7 Se9 2.603510 1_555
Li8 Se8 2.683724 1_555
Li8 Se7 2.683724 1_445
Li8 Se4 2.710418 1_555
Li8 Se11 2.710418 1_445
Li8 Se9 3.041645 1_545
Li8 Se6 3.041645 1_455
Li9 Se8 2.683724 1_555
Li9 Se7 2.683724 1_455
Li9 Se5 2.710418 1_555
Li9 Se10 2.710418 1_455
Li9 Se9 3.041645 1_555
Li9 Se6 3.041645 1_455
Li10 Se8 2.588078 1_555
Li10 Se10 2.591694 1_555
Li10 Se11 2.591694 1_545
Li10 Se6 2.603510 1_555
Li11 Se9 2.510577 1_555
Li11 Se13 2.530647 1_555
Li11 Se8 2.652137 1_555
Li11 Se10 2.652444 1_455
Li12 Se9 2.510577 1_555
Li12 Se12 2.530647 1_565
Li12 Se8 2.652137 1_565
Li12 Se11 2.652444 1_455
Li13 Se14 2.510577 1_555
Li13 Se11 2.530647 1_545
Li13 Se15 2.652137 1_545
Li13 Se12 2.652444 1_555
Li14 Se14 2.510577 1_555
Li14 Se10 2.530647 1_555
Li14 Se15 2.652137 1_555
Li14 Se13 2.652444 1_555
Li15 Se15 2.588078 1_455
Li15 Se12 2.591694 1_565
Li15 Se13 2.591694 1_555
Li15 Se1 2.603510 1_556
Ge0 Se1 2.354089 1_655
Ge0 Se3 2.355759 1_555
Ge0 Se2 2.355759 1_555
Ge0 Se15 2.389396 1_554
Ge1 Se6 2.354089 1_555
Ge1 Se5 2.355759 1_555
Ge1 Se4 2.355759 1_555
Ge1 Se8 2.389396 1_555
Ge2 Se9 2.354089 1_555
Ge2 Se11 2.355759 1_555
Ge2 Se10 2.355759 1_555
Ge2 Se7 2.389396 1_555
Ge3 Se14 2.354089 1_455
Ge3 Se13 2.355759 1_555
Ge3 Se12 2.355759 1_555
Ge3 Se0 2.389396 1_556
