# generated using pymatgen
data_YCrClO4
_symmetry_space_group_name_H-M   'P 1'
_cell_length_a   6.09876730
_cell_length_b   6.09876606
_cell_length_c   6.60311158
_cell_angle_alpha   102.37180799
_cell_angle_beta   102.37180160
_cell_angle_gamma   71.34525831
_symmetry_Int_Tables_number   1
_chemical_formula_structural   YCrClO4
_chemical_formula_sum   'Y2 Cr2 Cl2 O8'
_cell_volume   224.46010735
_cell_formula_units_Z   2
loop_
 _symmetry_equiv_pos_site_id
 _symmetry_equiv_pos_as_xyz
  1  'x, y, z'
loop_
 _atom_site_type_symbol
 _atom_site_label
 _atom_site_symmetry_multiplicity
 _atom_site_fract_x
 _atom_site_fract_y
 _atom_site_fract_z
 _atom_site_occupancy
  Y  Y0  1  0.77644036  0.77644036  0.38514240  1
  Y  Y1  1  0.22356064  0.22356064  0.61485860  1
  Cr  Cr0  1  0.36150972  0.36150972  0.23160804  1
  Cr  Cr1  1  0.63849028  0.63849028  0.76839296  1
  Cl  Cl0  1  0.01519889  0.01519889  0.25975960  1
  Cl  Cl1  1  0.98480211  0.98480211  0.74024140  1
  O  O0  1  0.71287886  0.71287886  0.01815132  1
  O  O1  1  0.53043035  0.53043035  0.27200972  1
  O  O2  1  0.49269334  0.12740286  0.35268343  1
  O  O3  1  0.12740286  0.49269334  0.35268343  1
  O  O4  1  0.87259814  0.50730666  0.64731557  1
  O  O5  1  0.50730666  0.87259814  0.64731557  1
  O  O6  1  0.46956965  0.46956965  0.72799128  1
  O  O7  1  0.28712014  0.28712014  0.98184868  1
loop_
_geom_bond_atom_site_label_1
_geom_bond_atom_site_label_2
_geom_bond_distance
_geom_bond_site_symmetry_2
Cr0 O7 1.619237 1_554
Cr0 O1 1.623961 1_555
Cr0 O2 1.673930 1_555
Cr0 O3 1.673930 1_555
Cr1 O0 1.619229 1_556
Cr1 O6 1.623961 1_555
Cr1 O5 1.673942 1_555
Cr1 O4 1.673942 1_555
Cl0 Y1 2.684579 1_555
Cl0 Y0 2.704756 1_445
Cl1 Y0 2.684579 1_555
Cl1 Y1 2.704756 1_665
O0 Y0 2.337500 1_555
O1 Y0 2.353661 1_555
O2 Y0 2.300029 1_545
O2 Y1 2.490337 1_555
O3 Y0 2.300029 1_455
O3 Y1 2.490337 1_555
O4 Y1 2.300024 1_655
O4 Y0 2.490331 1_555
O5 Y1 2.300024 1_565
O5 Y0 2.490331 1_555
O6 Y1 2.353652 1_555
O7 Y1 2.337494 1_555
