# generated using pymatgen
data_Ca5Ge2BiF
_symmetry_space_group_name_H-M   'P 1'
_cell_length_a   9.21388864
_cell_length_b   9.21388817
_cell_length_c   9.21388817
_cell_angle_alpha   129.39700247
_cell_angle_beta   129.39699482
_cell_angle_gamma   74.37261542
_symmetry_Int_Tables_number   1
_chemical_formula_structural   Ca5Ge2BiF
_chemical_formula_sum   'Ca10 Ge4 Bi2 F2'
_cell_volume   455.30372100
_cell_formula_units_Z   2
loop_
 _symmetry_equiv_pos_site_id
 _symmetry_equiv_pos_as_xyz
  1  'x, y, z'
loop_
 _atom_site_type_symbol
 _atom_site_label
 _atom_site_symmetry_multiplicity
 _atom_site_fract_x
 _atom_site_fract_y
 _atom_site_fract_z
 _atom_site_occupancy
  Ca  Ca0  1  0.50000000  0.50000000  0.00000000  1
  Ca  Ca1  1  0.00000000  0.00000000  0.00000000  1
  Ca  Ca2  1  0.51720068  0.01720068  0.81712060  1
  Ca  Ca3  1  0.20008108  0.70008108  0.18287940  1
  Ca  Ca4  1  0.01720068  0.20008108  0.50000000  1
  Ca  Ca5  1  0.70008108  0.51720068  0.50000000  1
  Ca  Ca6  1  0.48279932  0.98279932  0.18287940  1
  Ca  Ca7  1  0.79991892  0.29991892  0.81712060  1
  Ca  Ca8  1  0.98279932  0.79991892  0.50000000  1
  Ca  Ca9  1  0.29991892  0.48279932  0.50000000  1
  Ge  Ge0  1  0.87718842  0.37718842  0.25437684  1
  Ge  Ge1  1  0.12281158  0.62281158  0.74562316  1
  Ge  Ge2  1  0.37718842  0.12281158  0.50000000  1
  Ge  Ge3  1  0.62281158  0.87718842  0.50000000  1
  Bi  Bi0  1  0.25000000  0.25000000  0.00000000  1
  Bi  Bi1  1  0.75000000  0.75000000  0.00000000  1
  F  F0  1  0.25000000  0.75000000  0.50000000  1
  F  F1  1  0.75000000  0.25000000  0.50000000  1
loop_
_geom_bond_atom_site_label_1
_geom_bond_atom_site_label_2
_geom_bond_distance
_geom_bond_site_symmetry_2
Ca0 Ge3 3.124117 1_555
Ca0 Ge2 3.124117 1_554
Ca0 Ge0 3.124117 1_555
Ca0 Ge1 3.124117 1_554
Ca1 Ge0 3.124117 1_455
Ca1 Ge1 3.124117 1_544
Ca1 Ge2 3.124117 1_555
Ca1 Ge3 3.124117 1_444
Ca2 F0 2.379644 1_545
Ca2 Ge3 3.049057 1_545
Ca2 Ge2 3.049057 1_555
Ca2 Ge0 3.199431 1_556
Ca3 F0 2.379654 1_555
Ca3 Ge2 3.049047 1_565
Ca3 Ge3 3.049048 1_555
Ca3 Ge1 3.199421 1_554
Ca4 F1 2.379645 1_455
Ca4 Ge1 3.049049 1_555
Ca4 Ge0 3.049049 1_455
Ca4 Ge2 3.199430 1_555
Ca5 F1 2.379645 1_555
Ca5 Ge0 3.049049 1_555
Ca5 Ge1 3.049050 1_655
Ca5 Ge3 3.199430 1_555
Ca6 F1 2.379644 1_565
Ca6 Ge2 3.049057 1_565
Ca6 Ge3 3.049057 1_555
Ca6 Ge1 3.199431 1_554
Ca7 F1 2.379654 1_555
Ca7 Ge3 3.049047 1_545
Ca7 Ge2 3.049048 1_555
Ca7 Ge0 3.199421 1_556
Ca8 F0 2.379645 1_655
Ca8 Ge0 3.049049 1_555
Ca8 Ge1 3.049049 1_655
Ca8 Ge3 3.199430 1_555
Ca9 F0 2.379645 1_555
Ca9 Ge1 3.049049 1_555
Ca9 Ge0 3.049050 1_455
Ca9 Ge2 3.199430 1_555
Ge0 Ge1 2.735729 1_655
Ge2 Ge3 2.735729 1_545
Bi0 Ca2 3.366659 1_554
Bi0 Ca6 3.366659 1_545
Bi0 Ca9 3.366664 1_555
Bi0 Ca8 3.366664 1_444
Bi0 Ca4 3.366664 1_554
Bi0 Ca5 3.366664 1_555
Bi0 Ca3 3.366666 1_555
Bi0 Ca7 3.366666 1_454
Bi0 Ca0 3.670234 1_555
Bi0 Ca1 3.670234 1_555
Bi1 Ca6 3.366659 1_555
Bi1 Ca2 3.366659 1_564
Bi1 Ca5 3.366664 1_554
Bi1 Ca4 3.366664 1_665
Bi1 Ca8 3.366664 1_555
Bi1 Ca9 3.366664 1_554
Bi1 Ca7 3.366666 1_554
Bi1 Ca3 3.366666 1_655
Bi1 Ca0 3.670234 1_555
Bi1 Ca1 3.670234 1_665
