# generated using pymatgen
data_Mn2GaCo4Si
_symmetry_space_group_name_H-M   'P 1'
_cell_length_a   6.89278088
_cell_length_b   6.89278090
_cell_length_c   6.89278113
_cell_angle_alpha   33.53392839
_cell_angle_beta   33.53393151
_cell_angle_gamma   33.53393515
_symmetry_Int_Tables_number   1
_chemical_formula_structural   Mn2GaCo4Si
_chemical_formula_sum   'Mn2 Ga1 Co4 Si1'
_cell_volume   89.01543870
_cell_formula_units_Z   1
loop_
 _symmetry_equiv_pos_site_id
 _symmetry_equiv_pos_as_xyz
  1  'x, y, z'
loop_
 _atom_site_type_symbol
 _atom_site_label
 _atom_site_symmetry_multiplicity
 _atom_site_fract_x
 _atom_site_fract_y
 _atom_site_fract_z
 _atom_site_occupancy
  Mn  Mn0  1  0.25068179  0.25068179  0.25068179  1
  Mn  Mn1  1  0.74931821  0.74931821  0.74931821  1
  Ga  Ga0  1  0.00000000  0.00000000  0.00000000  1
  Co  Co0  1  0.87238723  0.87238723  0.87238723  1
  Co  Co1  1  0.37804373  0.37804373  0.37804373  1
  Co  Co2  1  0.12761277  0.12761277  0.12761277  1
  Co  Co3  1  0.62195627  0.62195627  0.62195627  1
  Si  Si0  1  0.50000000  0.50000000  0.50000000  1
loop_
_geom_bond_atom_site_label_1
_geom_bond_atom_site_label_2
_geom_bond_distance
_geom_bond_site_symmetry_2
Mn0 Si0 2.820476 1_545
Mn0 Si0 2.820476 1_554
Mn0 Si0 2.820476 1_455
Mn1 Si0 2.820476 1_565
Mn1 Si0 2.820476 1_556
Mn1 Si0 2.820476 1_655
Ga0 Mn1 2.805118 1_454
Ga0 Mn0 2.805118 1_545
Ga0 Mn1 2.805118 1_445
Ga0 Mn0 2.805118 1_554
Ga0 Mn1 2.805119 1_544
Ga0 Mn0 2.805119 1_455
Co0 Mn1 2.399523 1_555
Co0 Si0 2.419008 1_556
Co0 Si0 2.419008 1_565
Co0 Si0 2.419008 1_655
Co0 Mn0 2.457695 1_665
Co0 Mn0 2.457696 1_656
Co0 Mn0 2.457696 1_566
Co0 Ga0 2.488114 1_666
Co1 Si0 2.377827 1_555
Co1 Mn1 2.412266 1_554
Co1 Mn1 2.412266 1_545
Co1 Mn1 2.412267 1_455
Co1 Ga0 2.455955 1_556
Co1 Ga0 2.455956 1_565
Co1 Ga0 2.455956 1_655
Co1 Mn0 2.483224 1_555
Co2 Mn0 2.399523 1_555
Co2 Si0 2.419008 1_554
Co2 Si0 2.419008 1_545
Co2 Si0 2.419008 1_455
Co2 Mn1 2.457695 1_445
Co2 Mn1 2.457696 1_454
Co2 Mn1 2.457696 1_544
Co2 Ga0 2.488114 1_555
Co3 Si0 2.377827 1_555
Co3 Mn0 2.412266 1_556
Co3 Mn0 2.412266 1_565
Co3 Mn0 2.412267 1_655
Co3 Ga0 2.455955 1_665
Co3 Ga0 2.455956 1_656
Co3 Ga0 2.455956 1_566
Co3 Mn1 2.483224 1_555
