# generated using pymatgen
data_Cs2Zr(CuTe2)2
_symmetry_space_group_name_H-M   'P 1'
_cell_length_a   8.38584343
_cell_length_b   8.38584375
_cell_length_c   6.29095028
_cell_angle_alpha   90.00000000
_cell_angle_beta   90.00000000
_cell_angle_gamma   135.91514371
_symmetry_Int_Tables_number   1
_chemical_formula_structural   Cs2Zr(CuTe2)2
_chemical_formula_sum   'Cs2 Zr1 Cu2 Te4'
_cell_volume   307.78404892
_cell_formula_units_Z   1
loop_
 _symmetry_equiv_pos_site_id
 _symmetry_equiv_pos_as_xyz
  1  'x, y, z'
loop_
 _atom_site_type_symbol
 _atom_site_label
 _atom_site_symmetry_multiplicity
 _atom_site_fract_x
 _atom_site_fract_y
 _atom_site_fract_z
 _atom_site_occupancy
  Cs  Cs0  1  0.50000000  0.00000000  0.25022444  1
  Cs  Cs1  1  0.00000000  0.50000000  0.74977556  1
  Zr  Zr0  1  0.00000000  0.00000000  0.00000000  1
  Cu  Cu0  1  0.00000000  0.00000000  0.50000000  1
  Cu  Cu1  1  0.50000000  0.50000000  0.00000000  1
  Te  Te0  1  0.83784873  0.64625602  0.25740696  1
  Te  Te1  1  0.16215127  0.35374398  0.25740696  1
  Te  Te2  1  0.64625602  0.83784873  0.74259304  1
  Te  Te3  1  0.35374398  0.16215127  0.74259304  1
loop_
_geom_bond_atom_site_label_1
_geom_bond_atom_site_label_2
_geom_bond_distance
_geom_bond_site_symmetry_2
Cs0 Te1 3.916742 1_545
Cs0 Te0 3.916742 1_555
Cs0 Te2 3.917071 1_545
Cs0 Te3 3.917071 1_555
Cs0 Te2 3.993430 1_544
Cs0 Te3 3.993430 1_554
Cs0 Te1 3.996324 1_655
Cs0 Te0 3.996324 1_445
Cs1 Te2 3.916742 1_555
Cs1 Te3 3.916742 1_455
Cs1 Te1 3.917071 1_555
Cs1 Te0 3.917071 1_455
Cs1 Te1 3.993430 1_556
Cs1 Te0 3.993430 1_456
Cs1 Te3 3.996324 1_565
Cs1 Te2 3.996324 1_445
Cu0 Te3 2.680109 1_555
Cu0 Te2 2.680109 1_445
Cu0 Te0 2.680109 1_445
Cu0 Te1 2.680109 1_555
Cu0 Zr0 3.145475 1_556
Cu0 Zr0 3.145475 1_555
Cu1 Te0 2.676051 1_555
Cu1 Te1 2.676051 1_555
Cu1 Te2 2.676051 1_554
Cu1 Te3 2.676051 1_554
Cu1 Zr0 3.147149 1_555
Cu1 Zr0 3.147149 1_665
Te0 Zr0 2.734250 1_665
Te1 Zr0 2.734250 1_555
Te2 Zr0 2.734250 1_666
Te3 Zr0 2.734250 1_556
