# generated using pymatgen
data_Ba6Sn8BiAu
_symmetry_space_group_name_H-M   'P 1'
_cell_length_a   9.23372932
_cell_length_b   9.23372943
_cell_length_c   9.35057644
_cell_angle_alpha   119.58749086
_cell_angle_beta   119.58749172
_cell_angle_gamma   89.99999757
_symmetry_Int_Tables_number   1
_chemical_formula_structural   Ba6Sn8BiAu
_chemical_formula_sum   'Ba6 Sn8 Bi1 Au1'
_cell_volume   570.69597659
_cell_formula_units_Z   1
loop_
 _symmetry_equiv_pos_site_id
 _symmetry_equiv_pos_as_xyz
  1  'x, y, z'
loop_
 _atom_site_type_symbol
 _atom_site_label
 _atom_site_symmetry_multiplicity
 _atom_site_fract_x
 _atom_site_fract_y
 _atom_site_fract_z
 _atom_site_occupancy
  Ba  Ba0  1  0.25386381  0.25386381  0.50772662  1
  Ba  Ba1  1  0.74613619  0.74613619  0.49227338  1
  Ba  Ba2  1  0.66317418  0.16532737  1.00000000  1
  Ba  Ba3  1  0.33682582  0.83467263  0.00000000  1
  Ba  Ba4  1  0.83467263  0.66317418  1.00000000  1
  Ba  Ba5  1  0.16532737  0.33682582  0.00000000  1
  Sn  Sn0  1  0.33657163  0.83342879  0.38954106  1
  Sn  Sn1  1  0.66342837  0.16657121  0.61045894  1
  Sn  Sn2  1  0.05297043  0.55611327  0.38954106  1
  Sn  Sn3  1  0.55611327  0.33657163  0.38954106  1
  Sn  Sn4  1  0.16657121  0.94702957  0.61045894  1
  Sn  Sn5  1  0.94702957  0.44388673  0.61045894  1
  Sn  Sn6  1  0.44388673  0.66342837  0.61045894  1
  Sn  Sn7  1  0.83342879  0.05297043  0.38954106  1
  Bi  Bi0  1  0.00000000  0.00000000  0.00000000  1
  Au  Au0  1  0.50000000  0.50000000  0.00000000  1
loop_
_geom_bond_atom_site_label_1
_geom_bond_atom_site_label_2
_geom_bond_distance
_geom_bond_site_symmetry_2
Ba0 Bi0 3.398447 1_555
Ba0 Sn6 3.612708 1_555
Ba0 Sn1 3.612715 1_555
Ba0 Sn5 3.612725 1_455
Ba0 Sn4 3.612732 1_545
Ba0 Sn7 3.670512 1_455
Ba0 Sn0 3.670512 1_545
Ba0 Sn2 3.670512 1_555
Ba0 Sn3 3.670512 1_555
Ba1 Bi0 3.398447 1_666
Ba1 Sn3 3.612708 1_555
Ba1 Sn0 3.612715 1_555
Ba1 Sn2 3.612725 1_655
Ba1 Sn7 3.612732 1_565
Ba1 Sn4 3.670512 1_655
Ba1 Sn1 3.670512 1_565
Ba1 Sn5 3.670512 1_555
Ba1 Sn6 3.670512 1_555
Ba2 Bi0 3.464615 1_656
Ba2 Sn1 3.649276 1_555
Ba2 Sn2 3.649284 1_656
Ba2 Sn3 3.822714 1_556
Ba2 Sn4 3.822720 1_545
Ba2 Sn7 3.859038 1_556
Ba2 Sn6 3.859044 1_545
Ba2 Sn0 4.098249 1_545
Ba2 Sn5 4.098251 1_556
Ba3 Bi0 3.464615 1_565
Ba3 Sn0 3.649276 1_555
Ba3 Sn5 3.649284 1_454
Ba3 Sn6 3.822714 1_554
Ba3 Sn7 3.822720 1_565
Ba3 Sn4 3.859038 1_554
Ba3 Sn3 3.859044 1_565
Ba3 Sn1 4.098249 1_565
Ba3 Sn2 4.098251 1_554
Ba4 Bi0 3.464615 1_666
Ba4 Sn6 3.649280 1_555
Ba4 Sn7 3.649280 1_566
Ba4 Sn2 3.822714 1_656
Ba4 Sn1 3.822720 1_555
Ba4 Sn5 3.859038 1_555
Ba4 Sn0 3.859044 1_656
Ba4 Sn4 4.098250 1_656
Ba4 Sn3 4.098250 1_555
Ba5 Bi0 3.464615 1_555
Ba5 Sn3 3.649280 1_555
Ba5 Sn4 3.649280 1_544
Ba5 Sn5 3.822714 1_454
Ba5 Sn0 3.822720 1_555
Ba5 Sn2 3.859038 1_555
Ba5 Sn1 3.859044 1_454
Ba5 Sn7 4.098250 1_454
Ba5 Sn6 4.098250 1_555
Sn0 Sn4 2.982261 1_555
Sn0 Sn6 2.982262 1_555
Sn0 Sn1 3.226013 1_565
Sn1 Sn7 2.982261 1_555
Sn1 Sn3 2.982262 1_555
Sn2 Sn4 2.982245 1_555
Sn2 Sn6 2.982245 1_555
Sn2 Sn5 3.226037 1_455
Sn3 Sn5 2.982245 1_555
Sn3 Sn6 3.226025 1_555
Sn4 Sn7 3.226024 1_465
Sn5 Sn7 2.982245 1_555
Au0 Ba0 3.295011 1_554
Au0 Ba1 3.295011 1_555
Au0 Ba3 3.438019 1_555
Au0 Ba2 3.438019 1_554
Au0 Ba4 3.438019 1_554
Au0 Ba5 3.438019 1_555
