# generated using pymatgen
data_LiYNi4
_symmetry_space_group_name_H-M   'P 1'
_cell_length_a   4.85181223
_cell_length_b   4.85181277
_cell_length_c   4.85181230
_cell_angle_alpha   59.99999649
_cell_angle_beta   59.99999286
_cell_angle_gamma   59.99999887
_symmetry_Int_Tables_number   1
_chemical_formula_structural   LiYNi4
_chemical_formula_sum   'Li1 Y1 Ni4'
_cell_volume   80.76012312
_cell_formula_units_Z   1
loop_
 _symmetry_equiv_pos_site_id
 _symmetry_equiv_pos_as_xyz
  1  'x, y, z'
loop_
 _atom_site_type_symbol
 _atom_site_label
 _atom_site_symmetry_multiplicity
 _atom_site_fract_x
 _atom_site_fract_y
 _atom_site_fract_z
 _atom_site_occupancy
  Li  Li0  1  0.25000000  0.25000000  0.25000000  1
  Y  Y0  1  0.00000000  0.00000000  0.00000000  1
  Ni  Ni0  1  0.62409571  0.62409571  0.12771288  1
  Ni  Ni1  1  0.62409571  0.12771288  0.62409571  1
  Ni  Ni2  1  0.12771288  0.62409571  0.62409571  1
  Ni  Ni3  1  0.62409571  0.62409571  0.62409571  1
loop_
_geom_bond_atom_site_label_1
_geom_bond_atom_site_label_2
_geom_bond_distance
_geom_bond_site_symmetry_2
Li0 Ni3 2.842776 1_554
Li0 Ni1 2.842776 1_455
Li0 Ni1 2.842776 1_554
Li0 Ni3 2.842776 1_455
Li0 Ni2 2.842776 1_554
Li0 Ni0 2.842776 1_455
Li0 Ni1 2.842776 1_555
Li0 Ni0 2.842776 1_555
Li0 Ni3 2.842776 1_545
Li0 Ni2 2.842776 1_545
Li0 Ni2 2.842776 1_555
Li0 Ni0 2.842776 1_545
Li0 Y0 2.971116 1_556
Li0 Y0 2.971116 1_655
Li0 Y0 2.971116 1_555
Li0 Y0 2.971116 1_565
Ni0 Ni2 2.408356 1_555
Ni0 Ni1 2.408356 1_555
Ni0 Ni3 2.408356 1_555
Ni0 Ni2 2.443456 1_654
Ni0 Ni1 2.443456 1_564
Ni0 Ni3 2.443456 1_554
Ni0 Y0 2.846518 1_565
Ni0 Y0 2.846518 1_665
Ni0 Y0 2.846518 1_655
Ni1 Ni2 2.408356 1_555
Ni1 Ni3 2.408357 1_555
Ni1 Ni2 2.443456 1_645
Ni1 Ni3 2.443456 1_545
Ni1 Y0 2.846517 1_556
Ni1 Y0 2.846517 1_655
Ni1 Y0 2.846518 1_656
Ni2 Ni3 2.408356 1_555
Ni2 Ni3 2.443456 1_455
Ni2 Y0 2.846518 1_565
Ni2 Y0 2.846518 1_556
Ni2 Y0 2.846518 1_566
Ni3 Y0 2.846517 1_665
Ni3 Y0 2.846517 1_566
Ni3 Y0 2.846518 1_656
