# generated using pymatgen
data_BaPH
_symmetry_space_group_name_H-M   'P 1'
_cell_length_a   4.95489072
_cell_length_b   4.55938681
_cell_length_c   6.72840835
_cell_angle_alpha   83.19220876
_cell_angle_beta   90.00000000
_cell_angle_gamma   90.00000000
_symmetry_Int_Tables_number   1
_chemical_formula_structural   BaPH
_chemical_formula_sum   'Ba2 P2 H2'
_cell_volume   150.93153078
_cell_formula_units_Z   2
loop_
 _symmetry_equiv_pos_site_id
 _symmetry_equiv_pos_as_xyz
  1  'x, y, z'
loop_
 _atom_site_type_symbol
 _atom_site_label
 _atom_site_symmetry_multiplicity
 _atom_site_fract_x
 _atom_site_fract_y
 _atom_site_fract_z
 _atom_site_occupancy
  Ba  Ba0  1  0.75000000  0.75143500  0.75057016  1
  Ba  Ba1  1  0.25000000  0.24856500  0.24942984  1
  P  P0  1  0.75000000  0.75134542  0.24739269  1
  P  P1  1  0.25000000  0.24865458  0.75260731  1
  H  H0  1  0.75000000  0.48162868  0.38160862  1
  H  H1  1  0.25000000  0.51837132  0.61839138  1
loop_
_geom_bond_atom_site_label_1
_geom_bond_atom_site_label_2
_geom_bond_distance
_geom_bond_site_symmetry_2
Ba0 H1 2.877831 1_655
Ba0 H1 2.877831 1_555
Ba0 H0 2.898311 1_555
Ba0 P0 3.342776 1_556
Ba0 P1 3.359264 1_665
Ba0 P1 3.359264 1_565
Ba1 H0 2.877831 1_455
Ba1 H0 2.877831 1_555
Ba1 H1 2.898311 1_555
Ba1 P1 3.342776 1_554
Ba1 P0 3.359264 1_545
Ba1 P0 3.359264 1_445
H0 P0 1.436837 1_555
H1 P1 1.436837 1_555
