# generated using pymatgen
data_CuNi20(SnB3)2
_symmetry_space_group_name_H-M   'P 1'
_cell_length_a   7.42227417
_cell_length_b   7.42227341
_cell_length_c   7.42227363
_cell_angle_alpha   59.99999903
_cell_angle_beta   60.00000241
_cell_angle_gamma   60.00000074
_symmetry_Int_Tables_number   1
_chemical_formula_structural   CuNi20(SnB3)2
_chemical_formula_sum   'Cu1 Ni20 Sn2 B6'
_cell_volume   289.13183401
_cell_formula_units_Z   1
loop_
 _symmetry_equiv_pos_site_id
 _symmetry_equiv_pos_as_xyz
  1  'x, y, z'
loop_
 _atom_site_type_symbol
 _atom_site_label
 _atom_site_symmetry_multiplicity
 _atom_site_fract_x
 _atom_site_fract_y
 _atom_site_fract_z
 _atom_site_occupancy
  Cu  Cu0  1  0.00000000  0.00000000  0.00000000  1
  Ni  Ni0  1  0.66339386  0.00000000  0.00000000  1
  Ni  Ni1  1  0.15575151  0.61474883  0.61474883  1
  Ni  Ni2  1  0.61474883  0.61474883  0.61474883  1
  Ni  Ni3  1  0.61474883  0.61474883  0.15575151  1
  Ni  Ni4  1  0.38525117  0.84424849  0.38525117  1
  Ni  Ni5  1  0.66339386  0.33660614  0.00000000  1
  Ni  Ni6  1  0.00000000  0.33660614  0.66339386  1
  Ni  Ni7  1  0.00000000  0.00000000  0.33660614  1
  Ni  Ni8  1  0.33660614  1.00000000  1.00000000  1
  Ni  Ni9  1  0.00000000  0.00000000  0.66339386  1
  Ni  Ni10  1  0.00000000  0.33660614  0.00000000  1
  Ni  Ni11  1  0.66339386  0.00000000  0.33660614  1
  Ni  Ni12  1  1.00000000  0.66339386  1.00000000  1
  Ni  Ni13  1  0.33660614  1.00000000  0.66339386  1
  Ni  Ni14  1  1.00000000  0.66339386  0.33660614  1
  Ni  Ni15  1  0.33660614  0.66339386  1.00000000  1
  Ni  Ni16  1  0.84424849  0.38525117  0.38525117  1
  Ni  Ni17  1  0.38525117  0.38525117  0.84424849  1
  Ni  Ni18  1  0.61474883  0.15575151  0.61474883  1
  Ni  Ni19  1  0.38525117  0.38525117  0.38525117  1
  Sn  Sn0  1  0.75000000  0.75000000  0.75000000  1
  Sn  Sn1  1  0.25000000  0.25000000  0.25000000  1
  B  B0  1  0.72764519  0.72764519  0.27235481  1
  B  B1  1  0.72764519  0.27235481  0.72764519  1
  B  B2  1  0.27235481  0.72764519  0.27235481  1
  B  B3  1  0.72764519  0.27235481  0.27235481  1
  B  B4  1  0.27235481  0.72764519  0.72764519  1
  B  B5  1  0.27235481  0.27235481  0.72764519  1
loop_
_geom_bond_atom_site_label_1
_geom_bond_atom_site_label_2
_geom_bond_distance
_geom_bond_site_symmetry_2
Cu0 Ni10 2.498383 1_555
Cu0 Ni6 2.498383 1_554
Cu0 Ni14 2.498383 1_445
Cu0 Ni12 2.498383 1_444
Cu0 Ni7 2.498383 1_555
Cu0 Ni9 2.498383 1_554
Cu0 Ni15 2.498383 1_544
Cu0 Ni5 2.498383 1_455
Cu0 Ni8 2.498383 1_544
Cu0 Ni13 2.498383 1_544
Cu0 Ni11 2.498383 1_455
Cu0 Ni0 2.498383 1_455
Ni1 Sn0 2.458960 1_455
Ni2 Sn0 2.458972 1_555
Ni3 Sn0 2.458960 1_554
Ni4 Sn1 2.458960 1_565
Ni16 Sn1 2.458960 1_655
Ni17 Sn1 2.458960 1_556
Ni18 Sn0 2.458960 1_545
Ni19 Sn1 2.458972 1_555
B0 Ni2 2.075058 1_555
B0 Ni16 2.075058 1_555
B0 Ni4 2.075058 1_555
B0 Ni3 2.075070 1_555
B0 Ni11 2.076982 1_565
B0 Ni0 2.076982 1_565
B0 Ni14 2.076982 1_555
B0 Ni12 2.076982 1_554
B1 Ni2 2.075058 1_555
B1 Ni16 2.075058 1_555
B1 Ni17 2.075058 1_555
B1 Ni18 2.075070 1_555
B1 Ni0 2.076982 1_556
B1 Ni5 2.076982 1_556
B1 Ni9 2.076982 1_655
B1 Ni6 2.076982 1_655
B2 Ni19 2.075058 1_555
B2 Ni1 2.075058 1_555
B2 Ni3 2.075058 1_555
B2 Ni4 2.075070 1_555
B2 Ni8 2.076982 1_554
B2 Ni15 2.076982 1_554
B2 Ni7 2.076982 1_565
B2 Ni14 2.076982 1_455
B3 Ni3 2.075058 1_555
B3 Ni18 2.075058 1_555
B3 Ni19 2.075058 1_555
B3 Ni16 2.075070 1_555
B3 Ni11 2.076982 1_555
B3 Ni5 2.076982 1_555
B3 Ni7 2.076982 1_655
B3 Ni10 2.076982 1_655
B4 Ni17 2.075058 1_555
B4 Ni4 2.075058 1_555
B4 Ni2 2.075058 1_555
B4 Ni1 2.075070 1_555
B4 Ni13 2.076982 1_555
B4 Ni15 2.076982 1_555
B4 Ni9 2.076982 1_565
B4 Ni12 2.076982 1_455
B5 Ni19 2.075058 1_555
B5 Ni1 2.075058 1_555
B5 Ni18 2.075058 1_555
B5 Ni17 2.075070 1_555
B5 Ni13 2.076982 1_545
B5 Ni8 2.076982 1_545
B5 Ni6 2.076982 1_555
B5 Ni10 2.076982 1_556
