# generated using pymatgen
data_V5Tc(PbO3)8
_symmetry_space_group_name_H-M   'P 1'
_cell_length_a   9.45484971
_cell_length_b   9.45484918
_cell_length_c   9.45484928
_cell_angle_alpha   109.48292191
_cell_angle_beta   109.48291769
_cell_angle_gamma   109.44781910
_symmetry_Int_Tables_number   1
_chemical_formula_structural   V5Tc(PbO3)8
_chemical_formula_sum   'V5 Tc1 Pb8 O24'
_cell_volume   650.64175619
_cell_formula_units_Z   1
loop_
 _symmetry_equiv_pos_site_id
 _symmetry_equiv_pos_as_xyz
  1  'x, y, z'
loop_
 _atom_site_type_symbol
 _atom_site_label
 _atom_site_symmetry_multiplicity
 _atom_site_fract_x
 _atom_site_fract_y
 _atom_site_fract_z
 _atom_site_occupancy
  V  V0  1  0.37500000  0.62500000  0.75000000  1
  V  V1  1  0.87930995  0.25788119  0.12888117  1
  V  V2  1  0.62900002  0.75042878  0.37111883  1
  V  V3  1  0.24957122  0.12069005  0.87857123  1
  V  V4  1  0.74211881  0.37099998  0.62142877  1
  Tc  Tc0  1  0.12500000  0.87500000  0.25000000  1
  Pb  Pb0  1  0.35605078  0.36917703  0.34139533  1
  Pb  Pb1  1  0.16113137  0.48936283  0.99039597  1
  Pb  Pb2  1  0.99896686  0.17073540  0.50960403  1
  Pb  Pb3  1  0.82926460  0.83886863  0.82823146  1
  Pb  Pb4  1  0.52778170  0.01465545  0.15860467  1
  Pb  Pb5  1  0.63082297  0.47221830  0.98687375  1
  Pb  Pb6  1  0.51063717  0.00103314  0.67176854  1
  Pb  Pb7  1  0.98534455  0.64394922  0.51312625  1
  O  O0  1  0.30319518  0.15697689  0.08373789  1
  O  O1  1  0.18820917  0.26391792  0.84158549  1
  O  O2  1  0.92233242  0.34662368  0.65841451  1
  O  O3  1  0.14483806  0.07322872  0.29224241  1
  O  O4  1  0.79887337  0.57387149  0.64004077  1
  O  O5  1  0.57324000  0.21945729  0.41626211  1
  O  O6  1  0.28098631  0.85259666  0.20775759  1
  O  O7  1  0.68098052  0.34773617  0.76740113  1
  O  O8  1  0.34725824  0.65178897  0.92639284  1
  O  O9  1  0.43382971  0.15883160  0.85995923  1
  O  O10  1  0.22539513  0.42086440  0.57360716  1
  O  O11  1  0.08033504  0.91357939  0.73259887  1
  O  O12  1  0.08642061  0.31901948  0.16675465  1
  O  O13  1  0.65337632  0.81179083  0.57570875  1
  O  O14  1  0.65226383  0.91966496  0.33324535  1
  O  O15  1  0.84302311  0.42676000  0.14621729  1
  O  O16  1  0.42612851  0.56617029  0.22500089  1
  O  O17  1  0.73608208  0.07766758  0.92429125  1
  O  O18  1  0.84116840  0.20112663  0.27499911  1
  O  O19  1  0.78054271  0.69680482  0.35378271  1
  O  O20  1  0.57913560  0.65274176  0.80453073  1
  O  O21  1  0.34821103  0.77460487  0.69546927  1
  O  O22  1  0.92677128  0.71901369  0.07161034  1
  O  O23  1  0.14740334  0.85516194  0.42838966  1
loop_
_geom_bond_atom_site_label_1
_geom_bond_atom_site_label_2
_geom_bond_distance
_geom_bond_site_symmetry_2
O0 V3 1.709341 1_554
O0 Pb0 2.338732 1_555
O1 V3 1.731028 1_555
O1 Pb1 2.278548 1_555
O1 Pb2 2.681283 1_455
O2 V4 1.731028 1_555
O2 Pb2 2.278548 1_555
O2 Pb1 2.681283 1_655
O3 Tc0 1.709977 1_545
O3 Pb0 2.612684 1_555
O4 V4 1.739126 1_555
O4 Pb3 2.394132 1_555
O4 Pb7 2.480113 1_555
O5 V4 1.709339 1_555
O5 Pb4 2.338728 1_555
O6 Tc0 1.709974 1_555
O6 Pb4 2.612681 1_565
O7 V4 1.713866 1_555
O7 Pb5 2.305440 1_555
O7 Pb6 2.773596 1_555
O8 V0 1.722981 1_555
O8 Pb1 2.313474 1_555
O9 V3 1.739118 1_555
O9 Pb6 2.394135 1_555
O9 Pb5 2.480122 1_555
O10 V0 1.722987 1_555
O10 Pb2 2.313463 1_455
O11 V3 1.713866 1_565
O11 Pb7 2.305440 1_455
O11 Pb3 2.773596 1_455
O12 V1 1.713869 1_455
O12 Pb0 2.305443 1_555
O12 Pb1 2.773587 1_554
O13 V2 1.731028 1_555
O13 Pb3 2.278548 1_555
O13 Pb6 2.681283 1_565
O14 V2 1.713860 1_555
O14 Pb4 2.305447 1_565
O14 Pb2 2.773597 1_565
O15 V1 1.709333 1_555
O15 Pb5 2.338735 1_554
O16 V2 1.739124 1_555
O16 Pb1 2.394124 1_554
O16 Pb0 2.480128 1_555
O17 V1 1.731028 1_556
O17 Pb6 2.278548 1_555
O17 Pb3 2.681283 1_545
O18 V1 1.739132 1_555
O18 Pb2 2.394121 1_555
O18 Pb4 2.480119 1_555
O19 V2 1.709339 1_555
O19 Pb7 2.338728 1_555
O20 V0 1.722990 1_555
O20 Pb3 2.313467 1_555
O21 V0 1.722990 1_555
O21 Pb6 2.313467 1_565
O22 Tc0 1.709974 1_655
O22 Pb5 2.612681 1_554
O23 Tc0 1.709970 1_555
O23 Pb7 2.612687 1_455
