# generated using pymatgen
data_Cs6ScTe4I
_symmetry_space_group_name_H-M   'P 1'
_cell_length_a   12.18891120
_cell_length_b   12.18867872
_cell_length_c   9.23829354
_cell_angle_alpha   90.00000000
_cell_angle_beta   90.00000000
_cell_angle_gamma   119.99933637
_symmetry_Int_Tables_number   1
_chemical_formula_structural   Cs6ScTe4I
_chemical_formula_sum   'Cs12 Sc2 Te8 I2'
_cell_volume   1188.63040778
_cell_formula_units_Z   2
loop_
 _symmetry_equiv_pos_site_id
 _symmetry_equiv_pos_as_xyz
  1  'x, y, z'
loop_
 _atom_site_type_symbol
 _atom_site_label
 _atom_site_symmetry_multiplicity
 _atom_site_fract_x
 _atom_site_fract_y
 _atom_site_fract_z
 _atom_site_occupancy
  Cs  Cs0  1  0.13940311  0.86059629  0.51255844  1
  Cs  Cs1  1  0.72119233  0.86059663  0.51256206  1
  Cs  Cs2  1  0.94346480  0.47173219  0.31923863  1
  Cs  Cs3  1  0.52826722  0.47173174  0.31923728  1
  Cs  Cs4  1  0.86059686  0.72119181  0.01255888  1
  Cs  Cs5  1  0.27880767  0.13940337  0.01256206  1
  Cs  Cs6  1  0.52826837  0.05653601  0.31923808  1
  Cs  Cs7  1  0.13940314  0.27880819  0.51255888  1
  Cs  Cs8  1  0.86059689  0.13940371  0.01255844  1
  Cs  Cs9  1  0.05653520  0.52826781  0.81923863  1
  Cs  Cs10  1  0.47173163  0.94346399  0.81923808  1
  Cs  Cs11  1  0.47173278  0.52826826  0.81923728  1
  Sc  Sc0  1  0.66667088  0.33333582  0.71300768  1
  Sc  Sc1  1  0.33332912  0.66666418  0.21300768  1
  Te  Te0  1  0.41608860  0.20806496  0.61430303  1
  Te  Te1  1  0.58391140  0.79193504  0.11430303  1
  Te  Te2  1  0.66666318  0.33333429  0.02027405  1
  Te  Te3  1  0.79197857  0.58391566  0.61429894  1
  Te  Te4  1  0.20802143  0.41608434  0.11429894  1
  Te  Te5  1  0.33333682  0.66666571  0.52027405  1
  Te  Te6  1  0.20805251  0.79195112  0.11428711  1
  Te  Te7  1  0.79194749  0.20804888  0.61428711  1
  I  I0  1  0.99996702  0.99998232  0.26903884  1
  I  I1  1  0.00003298  0.00001768  0.76903884  1
loop_
_geom_bond_atom_site_label_1
_geom_bond_atom_site_label_2
_geom_bond_distance
_geom_bond_site_symmetry_2
Cs0 I0 3.704524 1_455
Cs0 I1 3.778184 1_565
Cs0 Te6 3.954481 1_555
Cs0 Te3 3.988539 1_455
Cs0 Te0 3.988879 1_565
Cs0 Te5 4.094827 1_555
Cs1 I0 3.704192 1_555
Cs1 I1 3.778612 1_665
Cs1 Te1 3.954333 1_555
Cs1 Te7 3.988701 1_565
Cs1 Te3 3.988781 1_555
Cs1 Te5 4.094814 1_555
Cs2 Te3 3.903087 1_555
Cs2 Te7 3.903133 1_555
Cs2 Te2 4.020670 1_555
Cs2 Te4 4.078012 1_655
Cs2 Te6 4.078282 1_655
Cs3 Te0 3.903096 1_555
Cs3 Te3 3.903459 1_555
Cs3 Te2 4.020556 1_555
Cs3 Te1 4.077945 1_555
Cs3 Te4 4.078472 1_555
Cs4 I1 3.704559 1_664
Cs4 I0 3.778174 1_555
Cs4 Te3 3.954313 1_554
Cs4 Te1 3.988564 1_555
Cs4 Te6 3.988813 1_655
Cs4 Te2 4.094757 1_555
Cs5 I1 3.704192 1_554
Cs5 I0 3.778612 1_445
Cs5 Te0 3.954333 1_554
Cs5 Te6 3.988701 1_545
Cs5 Te4 3.988781 1_555
Cs5 Te2 4.094814 1_555
Cs6 Te7 3.903137 1_555
Cs6 Te0 3.903421 1_555
Cs6 Te2 4.020600 1_555
Cs6 Te6 4.078271 1_545
Cs6 Te1 4.078385 1_545
Cs7 I0 3.704559 1_445
Cs7 I1 3.778174 1_555
Cs7 Te4 3.954313 1_555
Cs7 Te0 3.988564 1_555
Cs7 Te7 3.988813 1_455
Cs7 Te5 4.094757 1_555
Cs8 I1 3.704524 1_654
Cs8 I0 3.778184 1_545
Cs8 Te7 3.954481 1_554
Cs8 Te4 3.988539 1_655
Cs8 Te1 3.988879 1_545
Cs8 Te2 4.094827 1_555
Cs9 Te4 3.903087 1_556
Cs9 Te6 3.903133 1_556
Cs9 Te5 4.020670 1_555
Cs9 Te3 4.078012 1_455
Cs9 Te7 4.078282 1_455
Cs10 Te6 3.903137 1_556
Cs10 Te1 3.903421 1_556
Cs10 Te5 4.020600 1_555
Cs10 Te7 4.078271 1_565
Cs10 Te0 4.078385 1_565
Cs11 Te1 3.903096 1_556
Cs11 Te4 3.903459 1_556
Cs11 Te5 4.020556 1_555
Cs11 Te0 4.077945 1_555
Cs11 Te3 4.078472 1_555
Sc0 Te7 2.797715 1_555
Sc0 Te3 2.797844 1_555
Sc0 Te0 2.797903 1_555
Sc0 Te2 2.838617 1_556
Sc1 Te6 2.797715 1_555
Sc1 Te4 2.797844 1_555
Sc1 Te1 2.797903 1_555
Sc1 Te5 2.838617 1_555
