# generated using pymatgen
data_Cs8Ti2Se7S
_symmetry_space_group_name_H-M   'P 1'
_cell_length_a   8.80660319
_cell_length_b   8.32214253
_cell_length_c   11.77899226
_cell_angle_alpha   82.41570729
_cell_angle_beta   73.75755260
_cell_angle_gamma   69.03522937
_symmetry_Int_Tables_number   1
_chemical_formula_structural   Cs8Ti2Se7S
_chemical_formula_sum   'Cs8 Ti2 Se7 S1'
_cell_volume   773.46574365
_cell_formula_units_Z   1
loop_
 _symmetry_equiv_pos_site_id
 _symmetry_equiv_pos_as_xyz
  1  'x, y, z'
loop_
 _atom_site_type_symbol
 _atom_site_label
 _atom_site_symmetry_multiplicity
 _atom_site_fract_x
 _atom_site_fract_y
 _atom_site_fract_z
 _atom_site_occupancy
  Cs  Cs0  1  0.79696923  0.28018555  0.05760131  1
  Cs  Cs1  1  0.55518113  0.76346496  0.13959579  1
  Cs  Cs2  1  0.03941341  0.77045058  0.36271942  1
  Cs  Cs3  1  0.48560289  0.29441712  0.43952734  1
  Cs  Cs4  1  0.51462454  0.70165333  0.55807893  1
  Cs  Cs5  1  0.95833932  0.22823156  0.63479497  1
  Cs  Cs6  1  0.43243940  0.23933182  0.86431055  1
  Cs  Cs7  1  0.21463301  0.73046569  0.94410107  1
  Ti  Ti0  1  0.16593324  0.23576001  0.24348008  1
  Ti  Ti1  1  0.83527498  0.75985256  0.75395697  1
  Se  Se0  1  0.33911159  0.41487415  0.17107899  1
  Se  Se1  1  0.87643553  0.41079285  0.32539672  1
  Se  Se2  1  0.28449550  0.03243424  0.38719183  1
  Se  Se3  1  0.71325610  0.96453670  0.61277689  1
  Se  Se4  1  0.12493722  0.58665226  0.67304026  1
  Se  Se5  1  0.66298166  0.58129265  0.82651742  1
  Se  Se6  1  0.81634926  0.93130984  0.90789917  1
  S  S0  1  0.18402299  0.07429613  0.09792930  1
loop_
_geom_bond_atom_site_label_1
_geom_bond_atom_site_label_2
_geom_bond_distance
_geom_bond_site_symmetry_2
Cs0 S0 3.360331 1_655
Cs0 Se6 3.520892 1_544
Cs0 Se5 3.600130 1_554
Cs0 Se0 3.667119 1_555
Cs0 Se1 3.782251 1_555
Cs1 S0 3.482547 1_565
Cs1 Se6 3.531386 1_554
Cs1 Se2 3.635159 1_565
Cs1 Se5 3.909811 1_554
Cs1 Se0 3.930101 1_555
Cs1 Se1 4.151415 1_555
Cs2 Se3 3.569028 1_455
Cs2 Se2 3.657377 1_565
Cs2 Se0 3.695909 1_555
Cs2 Se1 3.871247 1_455
Cs2 Se4 3.937983 1_555
Cs2 S0 3.967917 1_565
Cs3 Se2 3.463952 1_555
Cs3 Se3 3.548512 1_545
Cs3 Se0 3.631480 1_555
Cs3 Se1 3.747700 1_555
Cs3 Se4 3.862598 1_555
Cs4 Se3 3.464446 1_555
Cs4 Se2 3.544582 1_565
Cs4 Se5 3.639589 1_555
Cs4 Se4 3.733042 1_555
Cs4 Se1 3.856227 1_555
Cs5 Se2 3.553941 1_655
Cs5 Se3 3.659831 1_545
Cs5 Se5 3.673607 1_555
Cs5 Se4 3.887008 1_655
Cs5 Se1 3.915983 1_555
Cs5 Se6 3.985039 1_545
Cs6 S0 3.468368 1_556
Cs6 Se6 3.561918 1_545
Cs6 Se3 3.710349 1_545
Cs6 Se0 3.839194 1_556
Cs6 Se5 3.964050 1_555
Cs6 Se4 4.105714 1_555
Cs7 Se6 3.425148 1_455
Cs7 S0 3.476613 1_566
Cs7 Se5 3.596748 1_555
Cs7 Se0 3.601857 1_556
Cs7 Se4 3.917470 1_555
Se0 Ti0 2.416367 1_555
Se1 Ti0 2.426963 1_655
Se2 Ti0 2.405677 1_555
Se3 Ti1 2.400792 1_555
Se4 Ti1 2.421722 1_455
Se5 Ti1 2.407010 1_555
Se6 Ti1 2.386532 1_555
S0 Ti0 2.252206 1_555
