# generated using pymatgen
data_TaNi21GeB6
_symmetry_space_group_name_H-M   'P 1'
_cell_length_a   7.35503459
_cell_length_b   7.35503451
_cell_length_c   7.35503407
_cell_angle_alpha   59.99999759
_cell_angle_beta   59.99999796
_cell_angle_gamma   59.99999827
_symmetry_Int_Tables_number   1
_chemical_formula_structural   TaNi21GeB6
_chemical_formula_sum   'Ta1 Ni21 Ge1 B6'
_cell_volume   281.34493767
_cell_formula_units_Z   1
loop_
 _symmetry_equiv_pos_site_id
 _symmetry_equiv_pos_as_xyz
  1  'x, y, z'
loop_
 _atom_site_type_symbol
 _atom_site_label
 _atom_site_symmetry_multiplicity
 _atom_site_fract_x
 _atom_site_fract_y
 _atom_site_fract_z
 _atom_site_occupancy
  Ta  Ta0  1  0.25000000  0.25000000  0.25000000  1
  Ni  Ni0  1  0.33610538  0.00310259  0.00310259  1
  Ni  Ni1  1  0.65768945  0.00310259  0.00310259  1
  Ni  Ni2  1  0.00310259  0.33610538  0.65768945  1
  Ni  Ni3  1  0.00310259  0.65768945  0.33610538  1
  Ni  Ni4  1  0.00310259  0.33610538  0.00310259  1
  Ni  Ni5  1  0.65768945  0.00310259  0.33610538  1
  Ni  Ni6  1  0.00310259  0.65768945  0.00310259  1
  Ni  Ni7  1  0.33610538  0.00310259  0.65768945  1
  Ni  Ni8  1  0.00310259  0.00310259  0.33610538  1
  Ni  Ni9  1  0.00310259  0.00310259  0.65768945  1
  Ni  Ni10  1  0.65768945  0.33610538  0.00310259  1
  Ni  Ni11  1  0.33610538  0.65768945  0.00310259  1
  Ni  Ni12  1  0.38676627  0.38676627  0.38676627  1
  Ni  Ni13  1  0.62160282  0.62160282  0.62160282  1
  Ni  Ni14  1  0.38676627  0.38676627  0.83970019  1
  Ni  Ni15  1  0.38676627  0.83970019  0.38676627  1
  Ni  Ni16  1  0.62160282  0.62160282  0.13519153  1
  Ni  Ni17  1  0.62160282  0.13519153  0.62160282  1
  Ni  Ni18  1  0.83970019  0.38676627  0.38676627  1
  Ni  Ni19  1  0.13519153  0.62160282  0.62160282  1
  Ni  Ni20  1  0.00000000  0.00000000  0.00000000  1
  Ge  Ge0  1  0.75000000  0.75000000  0.75000000  1
  B  B0  1  0.72953403  0.27046597  0.27046597  1
  B  B1  1  0.27046597  0.72953403  0.72953403  1
  B  B2  1  0.27046597  0.72953403  0.27046597  1
  B  B3  1  0.72953403  0.27046597  0.72953403  1
  B  B4  1  0.27046597  0.27046597  0.72953403  1
  B  B5  1  0.72953403  0.72953403  0.27046597  1
loop_
_geom_bond_atom_site_label_1
_geom_bond_atom_site_label_2
_geom_bond_distance
_geom_bond_site_symmetry_2
Ni0 Ni20 2.495095 1_555
Ni0 Ta0 2.827346 1_555
Ni1 Ni20 2.495095 1_655
Ni1 Ta0 2.827346 1_555
Ni2 Ni20 2.495095 1_556
Ni2 Ta0 2.827346 1_555
Ni3 Ta0 2.827346 1_555
Ni4 Ta0 2.827346 1_555
Ni5 Ta0 2.827346 1_555
Ni6 Ta0 2.827346 1_555
Ni7 Ta0 2.827346 1_555
Ni8 Ta0 2.827346 1_555
Ni9 Ta0 2.827346 1_555
Ni10 Ni20 2.495095 1_655
Ni10 Ta0 2.827346 1_555
Ni11 Ni20 2.495095 1_565
Ni11 Ta0 2.827346 1_555
Ni12 Ta0 2.463992 1_555
Ni14 Ta0 2.463998 1_556
Ni15 Ta0 2.463998 1_565
Ni18 Ta0 2.463998 1_655
Ni20 Ni3 2.495095 1_545
Ni20 Ni9 2.495095 1_554
Ni20 Ni8 2.495095 1_555
Ni20 Ni7 2.495095 1_554
Ni20 Ni5 2.495095 1_455
Ni20 Ni6 2.495095 1_545
Ni20 Ni4 2.495095 1_555
Ge0 Ni16 2.313214 1_556
Ge0 Ni17 2.313214 1_565
Ge0 Ni19 2.313214 1_655
Ge0 Ni13 2.313214 1_555
B0 Ni10 2.052787 1_555
B0 Ni4 2.052787 1_655
B0 Ni8 2.052787 1_655
B0 Ni5 2.052787 1_555
B0 Ni18 2.058603 1_555
B0 Ni12 2.058609 1_555
B0 Ni17 2.111898 1_555
B0 Ni16 2.111898 1_555
B1 Ni11 2.052787 1_556
B1 Ni6 2.052787 1_556
B1 Ni9 2.052787 1_565
B1 Ni7 2.052787 1_565
B1 Ni15 2.058609 1_555
B1 Ni14 2.058609 1_555
B1 Ni13 2.111898 1_555
B1 Ni19 2.111898 1_555
B2 Ni11 2.052787 1_555
B2 Ni0 2.052787 1_565
B2 Ni8 2.052787 1_565
B2 Ni3 2.052787 1_555
B2 Ni15 2.058603 1_555
B2 Ni12 2.058609 1_555
B2 Ni19 2.111898 1_555
B2 Ni16 2.111898 1_555
B3 Ni10 2.052787 1_556
B3 Ni1 2.052787 1_556
B3 Ni9 2.052787 1_655
B3 Ni2 2.052787 1_655
B3 Ni18 2.058609 1_555
B3 Ni14 2.058609 1_555
B3 Ni13 2.111898 1_555
B3 Ni17 2.111898 1_555
B4 Ni0 2.052787 1_556
B4 Ni4 2.052787 1_556
B4 Ni7 2.052787 1_555
B4 Ni2 2.052787 1_555
B4 Ni14 2.058603 1_555
B4 Ni12 2.058609 1_555
B4 Ni19 2.111898 1_555
B4 Ni17 2.111898 1_555
B5 Ni1 2.052787 1_565
B5 Ni6 2.052787 1_655
B5 Ni5 2.052787 1_565
B5 Ni3 2.052787 1_655
B5 Ni18 2.058609 1_555
B5 Ni15 2.058609 1_555
B5 Ni13 2.111898 1_555
B5 Ni16 2.111898 1_555
