# generated using pymatgen
data_K2GaSb2
_symmetry_space_group_name_H-M   'P 1'
_cell_length_a   9.20969207
_cell_length_b   10.40780672
_cell_length_c   15.14599248
_cell_angle_alpha   90.00000000
_cell_angle_beta   90.00000000
_cell_angle_gamma   90.00000000
_symmetry_Int_Tables_number   1
_chemical_formula_structural   K2GaSb2
_chemical_formula_sum   'K16 Ga8 Sb16'
_cell_volume   1451.78419789
_cell_formula_units_Z   8
loop_
 _symmetry_equiv_pos_site_id
 _symmetry_equiv_pos_as_xyz
  1  'x, y, z'
loop_
 _atom_site_type_symbol
 _atom_site_label
 _atom_site_symmetry_multiplicity
 _atom_site_fract_x
 _atom_site_fract_y
 _atom_site_fract_z
 _atom_site_occupancy
  K  K0  1  0.77063392  0.02635301  0.51477479  1
  K  K1  1  0.72936608  0.47364699  0.01477479  1
  K  K2  1  0.22936608  0.52635301  0.48522521  1
  K  K3  1  0.27063392  0.97364699  0.98522521  1
  K  K4  1  0.27063392  0.52635301  0.98522521  1
  K  K5  1  0.77063392  0.47364699  0.51477479  1
  K  K6  1  0.72936608  0.02635301  0.01477479  1
  K  K7  1  0.22936608  0.97364699  0.48522521  1
  K  K8  1  0.41141248  0.53011553  0.73472017  1
  K  K9  1  0.91141248  0.46988447  0.76527983  1
  K  K10  1  0.58858752  0.03011553  0.26527983  1
  K  K11  1  0.91141248  0.03011553  0.76527983  1
  K  K12  1  0.58858752  0.46988447  0.26527983  1
  K  K13  1  0.08858752  0.53011553  0.23472017  1
  K  K14  1  0.41141248  0.96988447  0.73472017  1
  K  K15  1  0.08858752  0.96988447  0.23472017  1
  Ga  Ga0  1  0.58286314  0.75000000  0.40523474  1
  Ga  Ga1  1  0.27520674  0.25000000  0.32162393  1
  Ga  Ga2  1  0.22479326  0.25000000  0.82162393  1
  Ga  Ga3  1  0.72479326  0.75000000  0.67837607  1
  Ga  Ga4  1  0.08286314  0.25000000  0.09476526  1
  Ga  Ga5  1  0.91713686  0.75000000  0.90523474  1
  Ga  Ga6  1  0.41713686  0.25000000  0.59476526  1
  Ga  Ga7  1  0.77520674  0.75000000  0.17837607  1
  Sb  Sb0  1  0.84570178  0.75000000  0.34704707  1
  Sb  Sb1  1  0.00419904  0.25000000  0.93089408  1
  Sb  Sb2  1  0.49580096  0.25000000  0.43089408  1
  Sb  Sb3  1  0.99580096  0.75000000  0.06910592  1
  Sb  Sb4  1  0.50419904  0.75000000  0.56910592  1
  Sb  Sb5  1  0.34570178  0.25000000  0.15295293  1
  Sb  Sb6  1  0.15429822  0.25000000  0.65295293  1
  Sb  Sb7  1  0.65429822  0.75000000  0.84704707  1
  Sb  Sb8  1  0.50526094  0.75000000  0.12872796  1
  Sb  Sb9  1  0.00526094  0.25000000  0.37127204  1
  Sb  Sb10  1  0.49473906  0.25000000  0.87127204  1
  Sb  Sb11  1  0.99473906  0.75000000  0.62872796  1
  Sb  Sb12  1  0.36570149  0.75000000  0.29761897  1
  Sb  Sb13  1  0.86570149  0.25000000  0.20238103  1
  Sb  Sb14  1  0.63429851  0.25000000  0.70238103  1
  Sb  Sb15  1  0.13429851  0.75000000  0.79761897  1
loop_
_geom_bond_atom_site_label_1
_geom_bond_atom_site_label_2
_geom_bond_distance
_geom_bond_site_symmetry_2
K0 Sb2 3.665888 1_555
K0 Sb9 3.848555 1_655
K0 Sb4 3.869226 1_545
K0 Sb14 3.881835 1_555
K0 Sb0 3.899270 1_545
K0 Sb11 3.938450 1_545
K1 Sb1 3.665888 1_654
K1 Sb10 3.848555 1_554
K1 Sb3 3.869226 1_555
K1 Sb13 3.881835 1_555
K1 Sb7 3.899270 1_554
K1 Sb8 3.938450 1_555
K2 Sb4 3.665888 1_555
K2 Sb11 3.848555 1_455
K2 Sb2 3.869226 1_555
K2 Sb12 3.881835 1_555
K2 Sb6 3.899270 1_555
K2 Sb9 3.938450 1_555
K3 Sb3 3.665888 1_456
K3 Sb8 3.848555 1_556
K3 Sb1 3.869226 1_565
K3 Sb15 3.881835 1_555
K3 Sb5 3.899270 1_566
K3 Sb10 3.938450 1_565
K4 Sb3 3.665888 1_456
K4 Sb8 3.848555 1_556
K4 Sb1 3.869226 1_555
K4 Sb15 3.881835 1_555
K4 Sb5 3.899270 1_556
K4 Sb10 3.938450 1_555
K5 Sb2 3.665888 1_555
K5 Sb9 3.848555 1_655
K5 Sb4 3.869226 1_555
K5 Sb14 3.881835 1_555
K5 Sb0 3.899270 1_555
K5 Sb11 3.938450 1_555
K6 Sb1 3.665888 1_654
K6 Sb10 3.848555 1_554
K6 Sb3 3.869226 1_545
K6 Sb13 3.881835 1_555
K6 Sb7 3.899270 1_544
K6 Sb8 3.938450 1_545
K7 Sb4 3.665888 1_555
K7 Sb11 3.848555 1_455
K7 Sb2 3.869226 1_565
K7 Sb12 3.881835 1_555
K7 Sb6 3.899270 1_565
K7 Sb9 3.938450 1_565
K8 Sb4 3.501366 1_555
K8 Sb15 3.557845 1_555
K8 Sb14 3.599031 1_555
K8 Sb7 3.624288 1_555
K8 Sb10 3.655943 1_555
K8 Sb6 3.954794 1_555
K9 Sb1 3.501366 1_655
K9 Sb14 3.557845 1_555
K9 Sb15 3.599031 1_655
K9 Sb6 3.624288 1_655
K9 Sb11 3.655943 1_555
K9 Sb7 3.954794 1_555
K10 Sb2 3.501366 1_555
K10 Sb13 3.557845 1_555
K10 Sb12 3.599031 1_545
K10 Sb5 3.624288 1_555
K10 Sb8 3.655943 1_545
K10 Sb0 3.954794 1_545
K11 Sb1 3.501366 1_655
K11 Sb14 3.557845 1_555
K11 Sb15 3.599031 1_645
K11 Sb6 3.624288 1_655
K11 Sb11 3.655943 1_545
K11 Sb7 3.954794 1_545
K12 Sb2 3.501366 1_555
K12 Sb13 3.557845 1_555
K12 Sb12 3.599031 1_555
K12 Sb5 3.624288 1_555
K12 Sb8 3.655943 1_555
K12 Sb0 3.954794 1_555
K13 Sb3 3.501366 1_455
K13 Sb12 3.557845 1_555
K13 Sb13 3.599031 1_455
K13 Sb0 3.624288 1_455
K13 Sb9 3.655943 1_555
K13 Sb5 3.954794 1_555
K14 Sb4 3.501366 1_555
K14 Sb15 3.557845 1_555
K14 Sb14 3.599031 1_565
K14 Sb7 3.624288 1_555
K14 Sb10 3.655943 1_565
K14 Sb6 3.954794 1_565
K15 Sb3 3.501366 1_455
K15 Sb12 3.557845 1_555
K15 Sb13 3.599031 1_465
K15 Sb0 3.624288 1_455
K15 Sb9 3.655943 1_565
K15 Sb5 3.954794 1_565
Ga0 Sb0 2.576105 1_555
Ga0 Sb12 2.580058 1_555
Ga0 Sb4 2.585564 1_555
Ga0 K10 3.604946 1_565
Ga0 K12 3.604946 1_555
Ga0 K5 3.743768 1_555
Ga0 K0 3.743768 1_565
Ga1 Sb9 2.597352 1_555
Ga1 Sb2 2.620393 1_555
Ga1 Sb5 2.635896 1_555
Ga1 K13 3.631244 1_555
Ga1 K15 3.631244 1_545
Ga1 K12 3.780923 1_555
Ga1 K10 3.780923 1_555
Ga1 K2 3.819808 1_555
Ga1 K7 3.819808 1_545
Ga2 Sb10 2.597352 1_555
Ga2 Sb1 2.620393 1_555
Ga2 Sb6 2.635896 1_555
Ga2 K14 3.631244 1_545
Ga2 K8 3.631244 1_555
Ga2 K9 3.780923 1_455
Ga2 K11 3.780923 1_455
Ga2 K3 3.819808 1_545
Ga2 K4 3.819808 1_555
Ga3 Sb11 2.597352 1_555
Ga3 Sb4 2.620393 1_555
Ga3 Sb7 2.635896 1_555
Ga3 K9 3.631244 1_555
Ga3 K11 3.631244 1_565
Ga3 K8 3.780923 1_555
Ga3 K14 3.780923 1_555
Ga3 K0 3.819808 1_565
Ga3 K5 3.819808 1_555
Ga4 Sb5 2.576105 1_555
Ga4 Sb13 2.580058 1_455
Ga4 Sb1 2.585564 1_554
Ga4 K13 3.604946 1_555
Ga4 K15 3.604946 1_545
Ga4 K4 3.743768 1_554
Ga4 K3 3.743768 1_544
Ga5 Sb7 2.576105 1_555
Ga5 Sb15 2.580058 1_655
Ga5 Sb3 2.585564 1_556
Ga5 K11 3.604946 1_565
Ga5 K9 3.604946 1_555
Ga5 K6 3.743768 1_566
Ga5 K1 3.743768 1_556
Ga6 Sb6 2.576105 1_555
Ga6 Sb14 2.580058 1_555
Ga6 Sb2 2.585564 1_555
Ga6 K8 3.604946 1_555
Ga6 K14 3.604946 1_545
Ga6 K2 3.743768 1_555
Ga6 K7 3.743768 1_545
Ga7 Sb8 2.597352 1_555
Ga7 Sb3 2.620393 1_555
Ga7 Sb0 2.635896 1_555
Ga7 K12 3.631244 1_555
Ga7 K10 3.631244 1_565
Ga7 K15 3.780923 1_655
Ga7 K13 3.780923 1_655
Ga7 K6 3.819808 1_565
Ga7 K1 3.819808 1_555
Sb10 Sb14 2.862773 1_555
Sb11 Sb15 2.862773 1_655
Sb12 Sb8 2.862773 1_555
Sb13 Sb9 2.862773 1_655
