# generated using pymatgen
data_Ba4H12PtAu
_symmetry_space_group_name_H-M   'P 1'
_cell_length_a   7.85980771
_cell_length_b   7.85980797
_cell_length_c   6.08468052
_cell_angle_alpha   89.98772016
_cell_angle_beta   89.98771638
_cell_angle_gamma   134.54264326
_symmetry_Int_Tables_number   1
_chemical_formula_structural   Ba4H12PtAu
_chemical_formula_sum   'Ba4 H12 Pt1 Au1'
_cell_volume   267.90804162
_cell_formula_units_Z   1
loop_
 _symmetry_equiv_pos_site_id
 _symmetry_equiv_pos_as_xyz
  1  'x, y, z'
loop_
 _atom_site_type_symbol
 _atom_site_label
 _atom_site_symmetry_multiplicity
 _atom_site_fract_x
 _atom_site_fract_y
 _atom_site_fract_z
 _atom_site_occupancy
  Ba  Ba0  1  0.35712700  0.64287300  0.00000000  1
  Ba  Ba1  1  0.85702762  0.14297238  0.50000000  1
  Ba  Ba2  1  0.64287300  0.35712700  1.00000000  1
  Ba  Ba3  1  0.14297238  0.85702762  0.50000000  1
  H  H0  1  0.99963665  0.49984286  0.24972233  1
  H  H1  1  0.50015714  0.00036335  0.75027767  1
  H  H2  1  0.00036335  0.50015714  0.75027767  1
  H  H3  1  0.49984286  0.99963665  0.24972233  1
  H  H4  1  0.11427581  0.88572419  1.00000000  1
  H  H5  1  0.61455003  0.38544997  0.50000000  1
  H  H6  1  0.88572419  0.11427581  0.00000000  1
  H  H7  1  0.38544997  0.61455003  0.50000000  1
  H  H8  1  0.70022388  0.70022388  0.30479289  1
  H  H9  1  0.29977612  0.29977612  0.69520711  1
  H  H10  1  0.69569028  0.69569028  0.69965966  1
  H  H11  1  0.30430972  0.30430972  0.30034034  1
  Pt  Pt0  1  0.50000000  0.50000000  0.50000000  1
  Au  Au0  1  0.00000000  0.00000000  0.00000000  1
loop_
_geom_bond_atom_site_label_1
_geom_bond_atom_site_label_2
_geom_bond_distance
_geom_bond_site_symmetry_2
Ba0 H2 2.649518 1_554
Ba0 H3 2.649518 1_555
Ba0 H0 2.652115 1_455
Ba0 H1 2.652115 1_564
Ba0 H10 3.006824 1_554
Ba0 H11 3.006824 1_555
Ba0 H9 3.035106 1_554
Ba0 H8 3.035106 1_555
Ba0 H6 3.064951 1_565
Ba0 H6 3.064951 1_455
Ba0 H7 3.069930 1_554
Ba0 H7 3.069930 1_555
Ba1 H1 2.651399 1_555
Ba1 H0 2.651399 1_555
Ba1 H3 2.652427 1_545
Ba1 H2 2.652427 1_655
Ba1 H9 3.004208 1_655
Ba1 H8 3.004208 1_545
Ba1 H11 3.030923 1_655
Ba1 H10 3.030923 1_545
Ba1 H7 3.064609 1_655
Ba1 H7 3.064609 1_545
Ba1 H6 3.070659 1_555
Ba1 H6 3.070659 1_556
Ba2 H0 2.649518 1_556
Ba2 H1 2.649518 1_555
Ba2 H2 2.652115 1_655
Ba2 H3 2.652115 1_546
Ba2 H11 3.006824 1_556
Ba2 H10 3.006824 1_555
Ba2 H8 3.035106 1_556
Ba2 H9 3.035106 1_555
Ba2 H4 3.064951 1_545
Ba2 H4 3.064951 1_655
Ba2 H5 3.069930 1_556
Ba2 H5 3.069930 1_555
Ba3 H3 2.651399 1_555
Ba3 H2 2.651399 1_555
Ba3 H1 2.652427 1_565
Ba3 H0 2.652427 1_455
Ba3 H8 3.004208 1_455
Ba3 H9 3.004208 1_565
Ba3 H10 3.030923 1_455
Ba3 H11 3.030923 1_565
Ba3 H5 3.064609 1_455
Ba3 H5 3.064609 1_565
Ba3 H4 3.070659 1_555
Ba3 H4 3.070659 1_554
H5 Pt0 1.660850 1_555
H7 Pt0 1.660850 1_555
H8 Pt0 1.699420 1_555
H9 Pt0 1.699420 1_555
H10 Pt0 1.700034 1_555
H11 Pt0 1.700034 1_555
Au0 H6 1.656874 1_455
Au0 H4 1.656874 1_544
