# generated using pymatgen
data_Ca6Al15SiIr7
_symmetry_space_group_name_H-M   'P 1'
_cell_length_a   8.88906706
_cell_length_b   8.88907927
_cell_length_c   8.88907602
_cell_angle_alpha   60.03262177
_cell_angle_beta   60.03262893
_cell_angle_gamma   60.03262761
_symmetry_Int_Tables_number   1
_chemical_formula_structural   Ca6Al15SiIr7
_chemical_formula_sum   'Ca6 Al15 Si1 Ir7'
_cell_volume   497.02204689
_cell_formula_units_Z   1
loop_
 _symmetry_equiv_pos_site_id
 _symmetry_equiv_pos_as_xyz
  1  'x, y, z'
loop_
 _atom_site_type_symbol
 _atom_site_label
 _atom_site_symmetry_multiplicity
 _atom_site_fract_x
 _atom_site_fract_y
 _atom_site_fract_z
 _atom_site_occupancy
  Ca  Ca0  1  0.20303038  0.79327114  0.79328918  1
  Ca  Ca1  1  0.79309348  0.20756226  0.20754558  1
  Ca  Ca2  1  0.79328600  0.20305047  0.79326999  1
  Ca  Ca3  1  0.79329643  0.79326295  0.20303837  1
  Ca  Ca4  1  0.20754792  0.79307573  0.20756399  1
  Ca  Ca5  1  0.20753862  0.20757200  0.79308413  1
  Al  Al0  1  0.82640963  0.82639654  0.52167278  1
  Al  Al1  1  0.52167241  0.82639762  0.82640236  1
  Al  Al2  1  0.82640544  0.52167092  0.82640137  1
  Al  Al3  1  0.17359450  0.17360623  0.17359901  1
  Al  Al4  1  0.17377411  0.17378572  0.47860306  1
  Al  Al5  1  0.17377526  0.47860445  0.17378317  1
  Al  Al6  1  0.47859940  0.17378412  0.17377916  1
  Al  Al7  1  0.61974684  0.61974192  0.61974172  1
  Al  Al8  1  0.61817990  0.61817226  0.14294106  1
  Al  Al9  1  0.14294020  0.61817385  0.61817752  1
  Al  Al10  1  0.61817531  0.14294267  0.61817709  1
  Al  Al11  1  0.38030074  0.38030581  0.38030436  1
  Al  Al12  1  0.38116046  0.38116969  0.85890298  1
  Al  Al13  1  0.38116367  0.85890011  0.38116747  1
  Al  Al14  1  0.85890332  0.38116729  0.38116295  1
  Si  Si0  1  0.82406551  0.82405133  0.82405719  1
  Ir  Ir0  1  0.50024729  0.50024577  0.50024767  1
  Ir  Ir1  1  0.99994096  0.50111877  0.50112060  1
  Ir  Ir2  1  0.50638008  0.99726426  0.99726400  1
  Ir  Ir3  1  0.50112103  0.99994042  0.50112018  1
  Ir  Ir4  1  0.50112017  0.50112069  0.99994068  1
  Ir  Ir5  1  0.99726504  0.50638027  0.99726330  1
  Ir  Ir6  1  0.99726590  0.99726475  0.50637808  1
loop_
_geom_bond_atom_site_label_1
_geom_bond_atom_site_label_2
_geom_bond_distance
_geom_bond_site_symmetry_2
Ca0 Si0 3.119454 1_455
Ca0 Ir5 3.140690 1_455
Ca0 Ir6 3.140809 1_455
Ca0 Ir4 3.219013 1_555
Ca0 Ir3 3.219128 1_555
Ca1 Ir4 3.187316 1_554
Ca1 Ir3 3.187415 1_545
Ca1 Ir5 3.210930 1_554
Ca1 Ir6 3.211024 1_545
Ca2 Si0 3.119694 1_545
Ca2 Ir6 3.140819 1_545
Ca2 Ir2 3.140906 1_545
Ca2 Ir1 3.218896 1_555
Ca2 Ir4 3.219007 1_555
Ca3 Si0 3.119568 1_554
Ca3 Ir5 3.140698 1_554
Ca3 Ir2 3.140900 1_554
Ca3 Ir1 3.218924 1_555
Ca3 Ir3 3.219123 1_555
Ca4 Ir1 3.187224 1_455
Ca4 Ir4 3.187315 1_554
Ca4 Ir6 3.211010 1_455
Ca4 Ir2 3.211117 1_554
Ca5 Ir1 3.187206 1_455
Ca5 Ir3 3.187423 1_545
Ca5 Ir5 3.210916 1_455
Ca5 Ir2 3.211124 1_545
Al0 Ir6 2.554204 1_555
Al0 Ir1 2.561946 1_555
Al0 Ir3 2.562027 1_555
Al0 Si0 2.667260 1_555
Al0 Al2 2.710078 1_555
Al0 Al1 2.710133 1_555
Al0 Al7 2.771413 1_555
Al0 Al9 2.775035 1_655
Al0 Al10 2.775152 1_565
Al0 Ca4 3.120164 1_655
Al0 Ca1 3.120376 1_565
Al0 Ca3 3.154131 1_555
Al1 Ir2 2.554246 1_555
Al1 Ir4 2.561940 1_555
Al1 Ir3 2.561977 1_555
Al1 Si0 2.667325 1_555
Al1 Al2 2.710102 1_555
Al1 Al7 2.771390 1_555
Al1 Al8 2.775109 1_556
Al1 Al10 2.775137 1_565
Al1 Ca4 3.120344 1_556
Al1 Ca5 3.120444 1_565
Al1 Ca0 3.154158 1_555
Al2 Ir5 2.554200 1_555
Al2 Ir1 2.561968 1_555
Al2 Ir4 2.561994 1_555
Al2 Si0 2.667248 1_555
Al2 Al7 2.771412 1_555
Al2 Al9 2.775058 1_655
Al2 Al8 2.775091 1_556
Al2 Ca5 3.120103 1_655
Al2 Ca1 3.120197 1_556
Al2 Ca2 3.154030 1_555
Al3 Ir5 2.618061 1_454
Al3 Ir6 2.618099 1_445
Al3 Ir2 2.618150 1_544
Al3 Al5 2.712775 1_555
Al3 Al4 2.712800 1_555
Al3 Al6 2.712800 1_555
Al3 Ca1 3.110239 1_455
Al3 Ca5 3.110339 1_554
Al3 Ca4 3.110447 1_545
Al4 Ir6 2.582688 1_445
Al4 Ir1 2.583647 1_455
Al4 Ir3 2.583748 1_545
Al4 Al5 2.710898 1_555
Al4 Al6 2.710944 1_555
Al4 Ca2 3.118907 1_455
Al4 Ca0 3.119118 1_545
Al4 Ca5 3.124381 1_555
Al5 Ir5 2.582691 1_454
Al5 Ir1 2.583670 1_455
Al5 Ir4 2.583730 1_554
Al5 Al6 2.710923 1_555
Al5 Ca3 3.118829 1_455
Al5 Ca0 3.118940 1_554
Al5 Ca4 3.124310 1_555
Al6 Ir2 2.582709 1_544
Al6 Ir4 2.583683 1_554
Al6 Ir3 2.583719 1_545
Al6 Ca2 3.119088 1_554
Al6 Ca3 3.119190 1_545
Al6 Ca1 3.124460 1_555
Al7 Ir0 2.601241 1_555
Al7 Ir1 2.763305 1_555
Al7 Ir3 2.763341 1_555
Al7 Ir4 2.763343 1_555
Al7 Ca2 3.072415 1_555
Al7 Ca3 3.072493 1_555
Al7 Ca0 3.072581 1_555
Al8 Ir0 2.594416 1_555
Al8 Ir4 2.739604 1_554
Al8 Ir5 2.756870 1_554
Al8 Ir2 2.756922 1_554
Al8 Si0 2.777493 1_554
Al8 Ca1 3.032813 1_555
Al8 Ca4 3.032949 1_555
Al8 Ca3 3.035212 1_555
Al9 Ir0 2.594417 1_555
Al9 Ir1 2.739600 1_455
Al9 Ir5 2.756876 1_455
Al9 Ir6 2.756913 1_455
Al9 Si0 2.777431 1_455
Al9 Ca5 3.032759 1_555
Al9 Ca4 3.032834 1_555
Al9 Ca0 3.035183 1_555
Al10 Ir0 2.594391 1_555
Al10 Ir3 2.739618 1_545
Al10 Ir2 2.756886 1_545
Al10 Ir6 2.756909 1_545
Al10 Si0 2.777541 1_545
Al10 Ca1 3.032954 1_555
Al10 Ca5 3.032976 1_555
Al10 Ca2 3.035248 1_555
Al11 Ir0 2.610964 1_555
Al11 Ir1 2.763232 1_455
Al11 Ir4 2.763262 1_554
Al11 Ir3 2.763276 1_545
Al11 Al5 2.768690 1_555
Al11 Al4 2.768691 1_555
Al11 Al6 2.768694 1_555
Al11 Ca4 3.045793 1_555
Al11 Ca5 3.045857 1_555
Al11 Ca1 3.045945 1_555
Al12 Ir0 2.604161 1_555
Al12 Ir4 2.766322 1_555
Al12 Al6 2.766734 1_556
Al12 Al5 2.766746 1_556
Al12 Al3 2.778880 1_556
Al12 Ir5 2.788678 1_455
Al12 Ir2 2.788754 1_545
Al12 Ca0 3.043017 1_555
Al12 Ca2 3.043167 1_555
Al12 Ca5 3.047727 1_555
Al13 Ir0 2.604155 1_555
Al13 Ir3 2.766337 1_555
Al13 Al6 2.766779 1_565
Al13 Al4 2.766791 1_565
Al13 Al3 2.778947 1_565
Al13 Ir6 2.788696 1_455
Al13 Ir2 2.788739 1_554
Al13 Ca0 3.043149 1_555
Al13 Ca3 3.043218 1_555
Al13 Ca4 3.047759 1_555
Al14 Ir0 2.604164 1_555
Al14 Ir1 2.766310 1_555
Al14 Al5 2.766693 1_655
Al14 Al4 2.766697 1_655
Al14 Al3 2.778846 1_655
Al14 Ir5 2.788711 1_554
Al14 Ir6 2.788733 1_545
Al14 Ca3 3.042982 1_555
Al14 Ca2 3.043051 1_555
Al14 Ca1 3.047694 1_555
Ir2 Si0 2.529179 1_555
Ir5 Si0 2.529070 1_555
Ir6 Si0 2.529132 1_555
