# generated using pymatgen
data_Zr8CrBi4Os
_symmetry_space_group_name_H-M   'P 1'
_cell_length_a   8.34812279
_cell_length_b   8.34812355
_cell_length_c   8.34812354
_cell_angle_alpha   96.08858108
_cell_angle_beta   96.08858508
_cell_angle_gamma   141.98672527
_symmetry_Int_Tables_number   1
_chemical_formula_structural   Zr8CrBi4Os
_chemical_formula_sum   'Zr8 Cr1 Bi4 Os1'
_cell_volume   338.75838110
_cell_formula_units_Z   1
loop_
 _symmetry_equiv_pos_site_id
 _symmetry_equiv_pos_as_xyz
  1  'x, y, z'
loop_
 _atom_site_type_symbol
 _atom_site_label
 _atom_site_symmetry_multiplicity
 _atom_site_fract_x
 _atom_site_fract_y
 _atom_site_fract_z
 _atom_site_occupancy
  Zr  Zr0  1  0.08085082  0.19750123  0.28326725  1
  Zr  Zr1  1  0.91423299  0.79758257  0.71673275  1
  Zr  Zr2  1  0.79758257  0.08085082  0.88334859  1
  Zr  Zr3  1  0.41914918  0.70241743  0.11665141  1
  Zr  Zr4  1  0.19750123  0.91423299  0.11665141  1
  Zr  Zr5  1  0.58576701  0.30249877  0.88334859  1
  Zr  Zr6  1  0.70241743  0.58576701  0.28326725  1
  Zr  Zr7  1  0.30249877  0.41914918  0.71673275  1
  Cr  Cr0  1  0.75000000  0.75000000  0.00000000  1
  Bi  Bi0  1  0.14053695  0.64053695  0.78107389  1
  Bi  Bi1  1  0.85946305  0.35946305  0.21892611  1
  Bi  Bi2  1  0.35946305  0.14053695  0.50000000  1
  Bi  Bi3  1  0.64053695  0.85946305  0.50000000  1
  Os  Os0  1  0.25000000  0.25000000  0.00000000  1
loop_
_geom_bond_atom_site_label_1
_geom_bond_atom_site_label_2
_geom_bond_distance
_geom_bond_site_symmetry_2
Cr0 Os0 2.718797 1_555
Cr0 Os0 2.718797 1_665
Cr0 Zr1 2.767389 1_554
Cr0 Zr6 2.767389 1_555
Cr0 Zr7 2.767391 1_554
Cr0 Zr0 2.767392 1_665
Cr0 Zr4 2.767397 1_655
Cr0 Zr5 2.767398 1_554
Cr0 Zr3 2.767400 1_555
Cr0 Zr2 2.767400 1_564
Bi0 Zr1 3.068126 1_455
Bi0 Zr7 3.068126 1_555
Bi0 Zr3 3.153127 1_556
Bi0 Zr4 3.153127 1_556
Bi0 Zr5 3.301116 1_455
Bi0 Zr2 3.301120 1_565
Bi0 Zr2 3.323060 1_455
Bi0 Zr5 3.323064 1_565
Bi1 Zr0 3.068126 1_655
Bi1 Zr6 3.068126 1_555
Bi1 Zr5 3.153127 1_554
Bi1 Zr2 3.153127 1_554
Bi1 Zr4 3.301116 1_655
Bi1 Zr3 3.301120 1_545
Bi1 Zr3 3.323059 1_655
Bi1 Zr4 3.323064 1_545
Bi2 Zr5 3.068120 1_555
Bi2 Zr4 3.068120 1_545
Bi2 Zr0 3.153124 1_555
Bi2 Zr7 3.153125 1_555
Bi2 Zr6 3.301122 1_445
Bi2 Zr1 3.301122 1_555
Bi2 Zr1 3.323070 1_445
Bi2 Zr6 3.323070 1_555
Bi3 Zr3 3.068120 1_555
Bi3 Zr2 3.068120 1_565
Bi3 Zr1 3.153124 1_555
Bi3 Zr6 3.153125 1_555
Bi3 Zr0 3.301126 1_665
Bi3 Zr7 3.301126 1_555
Bi3 Zr7 3.323065 1_665
Bi3 Zr0 3.323066 1_555
Os0 Zr0 2.780489 1_555
Os0 Zr7 2.780489 1_554
Os0 Zr6 2.780492 1_555
Os0 Zr1 2.780492 1_444
Os0 Zr2 2.780498 1_454
Os0 Zr3 2.780498 1_555
Os0 Zr5 2.780501 1_554
Os0 Zr4 2.780501 1_545
