# generated using pymatgen
data_K3B5Pt9
_symmetry_space_group_name_H-M   'P 1'
_cell_length_a   6.50105109
_cell_length_b   6.50105139
_cell_length_c   15.28698936
_cell_angle_alpha   90.00000000
_cell_angle_beta   90.00000000
_cell_angle_gamma   127.87767882
_symmetry_Int_Tables_number   1
_chemical_formula_structural   K3B5Pt9
_chemical_formula_sum   'K6 B10 Pt18'
_cell_volume   509.96936174
_cell_formula_units_Z   2
loop_
 _symmetry_equiv_pos_site_id
 _symmetry_equiv_pos_as_xyz
  1  'x, y, z'
loop_
 _atom_site_type_symbol
 _atom_site_label
 _atom_site_symmetry_multiplicity
 _atom_site_fract_x
 _atom_site_fract_y
 _atom_site_fract_z
 _atom_site_occupancy
  K  K0  1  0.32932662  0.67067338  0.75000000  1
  K  K1  1  0.67067338  0.32932662  0.25000000  1
  K  K2  1  0.55661250  0.44338750  0.08565726  1
  K  K3  1  0.44338750  0.55661250  0.91434274  1
  K  K4  1  0.44338750  0.55661250  0.58565726  1
  K  K5  1  0.55661250  0.44338750  0.41434274  1
  B  B0  1  0.94171627  0.05828373  0.14721693  1
  B  B1  1  0.05828373  0.94171627  0.85278307  1
  B  B2  1  0.05828373  0.94171627  0.64721693  1
  B  B3  1  0.94171627  0.05828373  0.35278307  1
  B  B4  1  0.18971956  0.81028044  0.02868766  1
  B  B5  1  0.81028044  0.18971956  0.97131234  1
  B  B6  1  0.81028044  0.18971956  0.52868766  1
  B  B7  1  0.18971956  0.81028044  0.47131234  1
  B  B8  1  0.73239137  0.26760863  0.75000000  1
  B  B9  1  0.26760863  0.73239137  0.25000000  1
  Pt  Pt0  1  0.00000000  0.00000000  0.00000000  1
  Pt  Pt1  1  0.00000000  0.00000000  0.50000000  1
  Pt  Pt2  1  0.65038104  0.84649516  0.25000000  1
  Pt  Pt3  1  0.84649516  0.65038104  0.75000000  1
  Pt  Pt4  1  0.34961896  0.15350484  0.75000000  1
  Pt  Pt5  1  0.15350484  0.34961896  0.25000000  1
  Pt  Pt6  1  0.12372039  0.87627961  0.15636871  1
  Pt  Pt7  1  0.87627961  0.12372039  0.84363129  1
  Pt  Pt8  1  0.87627961  0.12372039  0.65636871  1
  Pt  Pt9  1  0.12372039  0.87627961  0.34363129  1
  Pt  Pt10  1  0.56850114  0.94268313  0.07808124  1
  Pt  Pt11  1  0.94268313  0.56850114  0.92191876  1
  Pt  Pt12  1  0.43149886  0.05731687  0.57808124  1
  Pt  Pt13  1  0.05731687  0.43149886  0.42191876  1
  Pt  Pt14  1  0.43149886  0.05731687  0.92191876  1
  Pt  Pt15  1  0.05731687  0.43149886  0.07808124  1
  Pt  Pt16  1  0.56850114  0.94268313  0.42191876  1
  Pt  Pt17  1  0.94268313  0.56850114  0.57808124  1
loop_
_geom_bond_atom_site_label_1
_geom_bond_atom_site_label_2
_geom_bond_distance
_geom_bond_site_symmetry_2
K0 K4 2.843687 1_555
K0 K3 2.843687 1_555
K0 Pt3 3.059687 1_455
K0 Pt4 3.059688 1_565
K0 Pt7 3.241428 1_565
K0 Pt8 3.241428 1_565
K0 Pt7 3.241428 1_455
K0 Pt8 3.241428 1_455
K0 Pt11 3.408248 1_455
K0 Pt17 3.408248 1_455
K0 Pt14 3.408248 1_565
K0 Pt12 3.408248 1_565
K0 Pt3 3.444710 1_555
K0 Pt4 3.444710 1_555
K1 K2 2.843687 1_555
K1 K5 2.843687 1_555
K1 Pt5 3.059687 1_655
K1 Pt2 3.059688 1_545
K1 Pt9 3.241428 1_545
K1 Pt6 3.241428 1_545
K1 Pt9 3.241428 1_655
K1 Pt6 3.241428 1_655
K1 Pt13 3.408248 1_655
K1 Pt15 3.408248 1_655
K1 Pt16 3.408248 1_545
K1 Pt10 3.408248 1_545
K1 Pt5 3.444710 1_555
K1 Pt2 3.444710 1_555
K2 K3 2.933855 1_554
K2 Pt6 3.152813 1_655
K2 Pt6 3.152813 1_545
K2 Pt15 3.201170 1_555
K2 Pt10 3.201170 1_555
K2 Pt0 3.210800 1_555
K2 Pt0 3.210800 1_665
K2 Pt11 3.274070 1_554
K2 Pt14 3.274070 1_554
K2 Pt15 3.305151 1_655
K2 Pt10 3.305152 1_545
K2 Pt5 3.404302 1_555
K2 Pt2 3.404302 1_555
K3 Pt7 3.152813 1_455
K3 Pt7 3.152813 1_565
K3 Pt11 3.201170 1_555
K3 Pt14 3.201170 1_555
K3 Pt0 3.210800 1_666
K3 Pt0 3.210800 1_556
K3 Pt15 3.274070 1_556
K3 Pt10 3.274070 1_556
K3 Pt11 3.305151 1_455
K3 Pt14 3.305152 1_565
K3 Pt3 3.404302 1_555
K3 Pt4 3.404302 1_555
K4 K5 2.933855 1_555
K4 Pt8 3.152813 1_455
K4 Pt8 3.152813 1_565
K4 Pt17 3.201170 1_555
K4 Pt12 3.201170 1_555
K4 Pt1 3.210800 1_665
K4 Pt1 3.210800 1_555
K4 Pt13 3.274070 1_555
K4 Pt16 3.274070 1_555
K4 Pt17 3.305151 1_455
K4 Pt12 3.305152 1_565
K4 Pt3 3.404302 1_555
K4 Pt4 3.404302 1_555
K5 Pt9 3.152813 1_655
K5 Pt9 3.152813 1_545
K5 Pt13 3.201170 1_555
K5 Pt16 3.201170 1_555
K5 Pt1 3.210800 1_555
K5 Pt1 3.210800 1_665
K5 Pt17 3.274070 1_555
K5 Pt12 3.274070 1_555
K5 Pt13 3.305151 1_655
K5 Pt16 3.305152 1_545
K5 Pt5 3.404302 1_555
K5 Pt2 3.404302 1_555
B0 Pt6 2.130429 1_645
B0 Pt2 2.179340 1_545
B0 Pt5 2.179340 1_655
B0 Pt10 2.308590 1_545
B0 Pt15 2.308590 1_655
B0 Pt0 2.351213 1_655
B0 K2 3.293011 1_655
B0 K2 3.293012 1_545
B1 Pt7 2.130429 1_465
B1 Pt4 2.179340 1_565
B1 Pt3 2.179340 1_455
B1 Pt14 2.308590 1_565
B1 Pt11 2.308590 1_455
B1 Pt0 2.351213 1_566
B1 K3 3.293011 1_455
B1 K3 3.293012 1_565
B2 Pt8 2.130429 1_465
B2 Pt4 2.179340 1_565
B2 Pt3 2.179340 1_455
B2 Pt12 2.308590 1_565
B2 Pt17 2.308590 1_455
B2 Pt1 2.351213 1_565
B2 K4 3.293011 1_455
B2 K4 3.293012 1_565
B3 Pt9 2.130429 1_645
B3 Pt2 2.179340 1_545
B3 Pt5 2.179340 1_655
B3 Pt16 2.308590 1_545
B3 Pt13 2.308590 1_655
B3 Pt1 2.351213 1_655
B3 K5 3.293011 1_655
B3 K5 3.293012 1_545
B4 Pt6 2.098572 1_555
B4 Pt11 2.148037 1_454
B4 Pt14 2.148037 1_564
B4 Pt10 2.184509 1_555
B4 Pt15 2.184509 1_555
B4 Pt0 2.258926 1_565
B4 K2 3.366441 1_455
B4 K2 3.366441 1_565
B4 K3 3.440070 1_554
B5 Pt7 2.098572 1_555
B5 Pt15 2.148037 1_656
B5 Pt10 2.148037 1_546
B5 Pt14 2.184509 1_555
B5 Pt11 2.184509 1_555
B5 Pt0 2.258926 1_656
B5 K3 3.366441 1_655
B5 K3 3.366441 1_545
B5 K2 3.440070 1_556
B6 Pt8 2.098572 1_555
B6 Pt13 2.148037 1_655
B6 Pt16 2.148037 1_545
B6 Pt12 2.184509 1_555
B6 Pt17 2.184509 1_555
B6 Pt1 2.258926 1_655
B6 K4 3.366441 1_655
B6 K4 3.366441 1_545
B6 K5 3.440070 1_555
B7 Pt9 2.098572 1_555
B7 Pt17 2.148037 1_455
B7 Pt12 2.148037 1_565
B7 Pt16 2.184509 1_555
B7 Pt13 2.184509 1_555
B7 Pt1 2.258926 1_565
B7 K5 3.366441 1_455
B7 K5 3.366441 1_565
B7 K4 3.440070 1_555
B8 Pt4 2.115615 1_555
B8 Pt3 2.115615 1_555
B8 Pt7 2.207546 1_555
B8 Pt8 2.207546 1_555
B8 K0 3.072339 1_655
B8 K0 3.072340 1_545
B9 Pt2 2.115615 1_555
B9 Pt5 2.115615 1_555
B9 Pt9 2.207546 1_555
B9 Pt6 2.207546 1_555
B9 K1 3.072339 1_455
B9 K1 3.072340 1_565
