# generated using pymatgen
data_Be6V3Si2Mo
_symmetry_space_group_name_H-M   'P 1'
_cell_length_a   4.40293369
_cell_length_b   4.40293348
_cell_length_c   7.38370467
_cell_angle_alpha   90.00000000
_cell_angle_beta   90.00000000
_cell_angle_gamma   120.00001642
_symmetry_Int_Tables_number   1
_chemical_formula_structural   Be6V3Si2Mo
_chemical_formula_sum   'Be6 V3 Si2 Mo1'
_cell_volume   123.96216331
_cell_formula_units_Z   1
loop_
 _symmetry_equiv_pos_site_id
 _symmetry_equiv_pos_as_xyz
  1  'x, y, z'
loop_
 _atom_site_type_symbol
 _atom_site_label
 _atom_site_symmetry_multiplicity
 _atom_site_fract_x
 _atom_site_fract_y
 _atom_site_fract_z
 _atom_site_occupancy
  Be  Be0  1  0.82648407  0.17351593  0.25288543  1
  Be  Be1  1  0.82648407  0.65296814  0.25288543  1
  Be  Be2  1  0.34703186  0.17351593  0.25288543  1
  Be  Be3  1  0.17352850  0.82647150  0.74743313  1
  Be  Be4  1  0.17352850  0.34705800  0.74743313  1
  Be  Be5  1  0.65294200  0.82647150  0.74743313  1
  V  V0  1  0.33333300  0.66666700  0.43947088  1
  V  V1  1  0.66666700  0.33333300  0.56183145  1
  V  V2  1  0.66666700  0.33333300  0.93662587  1
  Si  Si0  1  0.00000000  0.00000000  0.50088822  1
  Si  Si1  1  0.00000000  0.00000000  0.99876678  1
  Mo  Mo0  1  0.33333300  0.66666700  0.06146113  1
loop_
_geom_bond_atom_site_label_1
_geom_bond_atom_site_label_2
_geom_bond_distance
_geom_bond_site_symmetry_2
Be0 Be1 2.110996 1_555
Be0 Be2 2.110996 1_555
Be0 Si0 2.259250 1_655
Be0 Be1 2.291937 1_545
Be0 Be2 2.291937 1_655
Be0 Si1 2.296004 1_654
Be0 V1 2.586339 1_555
Be0 V0 2.597540 1_545
Be0 V0 2.597540 1_655
Be0 Mo0 2.616666 1_545
Be0 Mo0 2.616666 1_655
Be0 V2 2.634091 1_554
Be1 Be2 2.110996 1_555
Be1 Si0 2.259250 1_665
Be1 Be2 2.291937 1_665
Be1 Si1 2.296004 1_664
Be1 V1 2.586340 1_555
Be1 V0 2.597539 1_655
Be1 V0 2.597543 1_555
Be1 Mo0 2.616664 1_655
Be1 Mo0 2.616668 1_555
Be1 V2 2.634093 1_554
Be2 Si0 2.259250 1_555
Be2 Si1 2.296004 1_554
Be2 V1 2.586340 1_555
Be2 V0 2.597539 1_545
Be2 V0 2.597543 1_555
Be2 Mo0 2.616664 1_545
Be2 Mo0 2.616668 1_555
Be2 V2 2.634093 1_554
Be3 Be4 2.110826 1_555
Be3 Be5 2.110826 1_555
Be3 Si0 2.250590 1_565
Be3 Si1 2.279285 1_565
Be3 Be4 2.292108 1_565
Be3 Be5 2.292108 1_455
Be3 V0 2.579889 1_555
Be3 V1 2.593697 1_565
Be3 V1 2.593697 1_455
Be3 V2 2.607804 1_565
Be3 V2 2.607804 1_455
Be3 Mo0 2.619450 1_556
Be4 Be5 2.110825 1_555
Be4 Si0 2.250592 1_555
Be4 Si1 2.279287 1_555
Be4 Be5 2.292107 1_445
Be4 V0 2.579889 1_555
Be4 V1 2.593694 1_455
Be4 V1 2.593701 1_555
Be4 V2 2.607801 1_455
Be4 V2 2.607809 1_555
Be4 Mo0 2.619450 1_556
Be5 Si0 2.250592 1_665
Be5 Si1 2.279287 1_665
Be5 V0 2.579889 1_555
Be5 V1 2.593694 1_565
Be5 V1 2.593701 1_555
Be5 V2 2.607801 1_565
Be5 V2 2.607808 1_555
Be5 Mo0 2.619450 1_556
V0 V1 2.697812 1_565
V0 V1 2.697813 1_455
V0 V1 2.697820 1_555
V1 V2 2.767371 1_555
Si0 V1 2.581553 1_455
Si0 V1 2.581556 1_445
Si0 V1 2.581557 1_555
Si0 V0 2.582166 1_545
Si0 V0 2.582169 1_555
Si0 V0 2.582169 1_445
Si1 V2 2.583109 1_455
Si1 V2 2.583113 1_445
Si1 V2 2.583113 1_555
Mo0 Si1 2.583838 1_564
Mo0 Si1 2.583842 1_554
Mo0 Si1 2.583842 1_664
Mo0 V2 2.703987 1_564
Mo0 V2 2.703987 1_454
Mo0 V2 2.703994 1_554
Mo0 V0 2.791112 1_555
