# generated using pymatgen
data_CsBaAsS4
_symmetry_space_group_name_H-M   'P 1'
_cell_length_a   7.01210353
_cell_length_b   9.94129800
_cell_length_c   12.42749051
_cell_angle_alpha   90.00000000
_cell_angle_beta   90.00000000
_cell_angle_gamma   90.00000000
_symmetry_Int_Tables_number   1
_chemical_formula_structural   CsBaAsS4
_chemical_formula_sum   'Cs4 Ba4 As4 S16'
_cell_volume   866.31304148
_cell_formula_units_Z   4
loop_
 _symmetry_equiv_pos_site_id
 _symmetry_equiv_pos_as_xyz
  1  'x, y, z'
loop_
 _atom_site_type_symbol
 _atom_site_label
 _atom_site_symmetry_multiplicity
 _atom_site_fract_x
 _atom_site_fract_y
 _atom_site_fract_z
 _atom_site_occupancy
  Cs  Cs0  1  0.25000000  0.87138846  0.92157586  1
  Cs  Cs1  1  0.25000000  0.62861154  0.42157586  1
  Cs  Cs2  1  0.75000000  0.12861154  0.07842414  1
  Cs  Cs3  1  0.75000000  0.37138846  0.57842414  1
  Ba  Ba0  1  0.25000000  0.39746488  0.85127732  1
  Ba  Ba1  1  0.25000000  0.10253512  0.35127732  1
  Ba  Ba2  1  0.75000000  0.60253512  0.14872268  1
  Ba  Ba3  1  0.75000000  0.89746488  0.64872268  1
  As  As0  1  0.25000000  0.11968455  0.66244894  1
  As  As1  1  0.25000000  0.38031545  0.16244894  1
  As  As2  1  0.75000000  0.88031545  0.33755106  1
  As  As3  1  0.75000000  0.61968455  0.83755106  1
  S  S0  1  0.50059593  0.13363373  0.76363704  1
  S  S1  1  0.99940407  0.36636627  0.26363704  1
  S  S2  1  0.00059593  0.86636627  0.23636296  1
  S  S3  1  0.49940407  0.63363373  0.73636296  1
  S  S4  1  0.49940407  0.86636627  0.23636296  1
  S  S5  1  0.00059593  0.63363373  0.73636296  1
  S  S6  1  0.99940407  0.13363373  0.76363704  1
  S  S7  1  0.50059593  0.36636627  0.26363704  1
  S  S8  1  0.25000000  0.29465061  0.55840571  1
  S  S9  1  0.25000000  0.20534939  0.05840571  1
  S  S10  1  0.75000000  0.70534939  0.44159429  1
  S  S11  1  0.75000000  0.79465061  0.94159429  1
  S  S12  1  0.25000000  0.93175046  0.57460558  1
  S  S13  1  0.25000000  0.56824954  0.07460558  1
  S  S14  1  0.75000000  0.06824954  0.42539442  1
  S  S15  1  0.75000000  0.43175046  0.92539442  1
loop_
_geom_bond_atom_site_label_1
_geom_bond_atom_site_label_2
_geom_bond_distance
_geom_bond_site_symmetry_2
Cs0 S13 3.563496 1_556
Cs0 S11 3.596702 1_555
Cs0 S11 3.596702 1_455
Cs0 S0 3.706351 1_565
Cs0 S6 3.706351 1_465
Cs0 S9 3.730143 1_566
Cs0 S3 3.734032 1_555
Cs0 S5 3.734032 1_555
Cs1 S12 3.563496 1_555
Cs1 S10 3.596702 1_455
Cs1 S10 3.596702 1_555
Cs1 S7 3.706351 1_555
Cs1 S1 3.706351 1_455
Cs1 S8 3.730143 1_555
Cs1 S4 3.734032 1_555
Cs1 S2 3.734032 1_555
Cs2 S15 3.563496 1_554
Cs2 S9 3.596702 1_555
Cs2 S9 3.596702 1_655
Cs2 S2 3.706351 1_645
Cs2 S4 3.706351 1_545
Cs2 S11 3.730143 1_544
Cs2 S1 3.734032 1_555
Cs2 S7 3.734032 1_555
Cs3 S14 3.563496 1_555
Cs3 S8 3.596702 1_655
Cs3 S8 3.596702 1_555
Cs3 S5 3.706351 1_655
Cs3 S3 3.706351 1_555
Cs3 S10 3.730143 1_555
Cs3 S6 3.734032 1_555
Cs3 S0 3.734032 1_555
Ba0 S9 3.205238 1_556
Ba0 S13 3.253536 1_556
Ba0 S3 3.257332 1_555
Ba0 S5 3.257332 1_555
Ba0 S0 3.339644 1_555
Ba0 S6 3.339644 1_455
Ba0 S15 3.641013 1_555
Ba0 S15 3.641013 1_455
Ba0 S8 3.780453 1_555
Ba1 S8 3.205238 1_555
Ba1 S12 3.253536 1_545
Ba1 S4 3.257332 1_545
Ba1 S2 3.257332 1_545
Ba1 S7 3.339644 1_555
Ba1 S1 3.339644 1_455
Ba1 S14 3.641013 1_455
Ba1 S14 3.641013 1_555
Ba1 S9 3.780453 1_555
Ba2 S11 3.205238 1_554
Ba2 S15 3.253536 1_554
Ba2 S1 3.257332 1_555
Ba2 S7 3.257332 1_555
Ba2 S2 3.339644 1_655
Ba2 S4 3.339644 1_555
Ba2 S13 3.641013 1_555
Ba2 S13 3.641013 1_655
Ba2 S10 3.780453 1_555
Ba3 S10 3.205238 1_555
Ba3 S14 3.253536 1_565
Ba3 S6 3.257332 1_565
Ba3 S0 3.257332 1_565
Ba3 S5 3.339644 1_655
Ba3 S3 3.339644 1_555
Ba3 S12 3.641013 1_655
Ba3 S12 3.641013 1_555
Ba3 S11 3.780453 1_555
As0 S12 2.163868 1_545
As0 S0 2.165258 1_555
As0 S6 2.165258 1_455
As0 S8 2.167329 1_555
As1 S13 2.163868 1_555
As1 S7 2.165258 1_555
As1 S1 2.165258 1_455
As1 S9 2.167329 1_555
As2 S14 2.163868 1_565
As2 S2 2.165258 1_655
As2 S4 2.165258 1_555
As2 S10 2.167329 1_555
As3 S15 2.163868 1_555
As3 S5 2.165258 1_655
As3 S3 2.165258 1_555
As3 S11 2.167329 1_555
