# generated using pymatgen
data_Sc5Sb3S
_symmetry_space_group_name_H-M   'P 1'
_cell_length_a   8.46894265
_cell_length_b   8.46894364
_cell_length_c   6.19979943
_cell_angle_alpha   90.00000000
_cell_angle_beta   90.00000000
_cell_angle_gamma   119.99999613
_symmetry_Int_Tables_number   1
_chemical_formula_structural   Sc5Sb3S
_chemical_formula_sum   'Sc10 Sb6 S2'
_cell_volume   385.09397430
_cell_formula_units_Z   2
loop_
 _symmetry_equiv_pos_site_id
 _symmetry_equiv_pos_as_xyz
  1  'x, y, z'
loop_
 _atom_site_type_symbol
 _atom_site_label
 _atom_site_symmetry_multiplicity
 _atom_site_fract_x
 _atom_site_fract_y
 _atom_site_fract_z
 _atom_site_occupancy
  Sc  Sc0  1  0.75061866  0.75061866  0.25000000  1
  Sc  Sc1  1  0.24938134  0.00000000  0.25000000  1
  Sc  Sc2  1  1.00000000  0.24938134  0.25000000  1
  Sc  Sc3  1  0.24938134  0.24938134  0.75000000  1
  Sc  Sc4  1  0.75061866  0.00000000  0.75000000  1
  Sc  Sc5  1  0.00000000  0.75061866  0.75000000  1
  Sc  Sc6  1  0.66666700  0.33333300  0.50000000  1
  Sc  Sc7  1  0.33333300  0.66666700  0.50000000  1
  Sc  Sc8  1  0.33333300  0.66666700  0.00000000  1
  Sc  Sc9  1  0.66666700  0.33333300  0.00000000  1
  Sb  Sb0  1  0.39856569  0.39856569  0.25000000  1
  Sb  Sb1  1  0.60143431  0.00000000  0.25000000  1
  Sb  Sb2  1  1.00000000  0.60143431  0.25000000  1
  Sb  Sb3  1  0.60143431  0.60143431  0.75000000  1
  Sb  Sb4  1  0.39856569  0.00000000  0.75000000  1
  Sb  Sb5  1  0.00000000  0.39856569  0.75000000  1
  S  S0  1  0.00000000  0.00000000  0.50000000  1
  S  S1  1  0.00000000  0.00000000  0.00000000  1
loop_
_geom_bond_atom_site_label_1
_geom_bond_atom_site_label_2
_geom_bond_distance
_geom_bond_site_symmetry_2
Sb0 Sc2 2.953838 1_455
Sb0 Sc1 2.953839 1_555
Sb0 Sc0 2.981517 1_555
Sb0 Sc6 3.019476 1_555
Sb0 Sc9 3.019476 1_555
Sb0 Sc8 3.019476 1_555
Sb0 Sc7 3.019476 1_555
Sb0 Sc3 3.347483 1_555
Sb0 Sc3 3.347483 1_554
Sb1 Sc2 2.953838 1_555
Sb1 Sc0 2.953838 1_545
Sb1 Sc1 2.981516 1_555
Sb1 Sc6 3.019469 1_555
Sb1 Sc9 3.019469 1_555
Sb1 Sc7 3.019472 1_545
Sb1 Sc8 3.019472 1_545
Sb1 Sc4 3.347483 1_555
Sb1 Sc4 3.347483 1_554
Sb2 Sc0 2.953838 1_555
Sb2 Sc1 2.953839 1_665
Sb2 Sc2 2.981517 1_555
Sb2 Sc8 3.019469 1_655
Sb2 Sc7 3.019469 1_655
Sb2 Sc6 3.019472 1_555
Sb2 Sc9 3.019472 1_555
Sb2 Sc5 3.347483 1_654
Sb2 Sc5 3.347483 1_655
Sb3 Sc5 2.953838 1_655
Sb3 Sc4 2.953839 1_565
Sb3 Sc3 2.981517 1_555
Sb3 Sc8 3.019476 1_556
Sb3 Sc7 3.019476 1_555
Sb3 Sc9 3.019476 1_556
Sb3 Sc6 3.019476 1_555
Sb3 Sc0 3.347483 1_555
Sb3 Sc0 3.347483 1_556
Sb4 Sc5 2.953838 1_545
Sb4 Sc3 2.953838 1_555
Sb4 Sc4 2.981516 1_555
Sb4 Sc8 3.019469 1_546
Sb4 Sc7 3.019469 1_545
Sb4 Sc9 3.019472 1_556
Sb4 Sc6 3.019472 1_555
Sb4 Sc1 3.347483 1_555
Sb4 Sc1 3.347483 1_556
Sb5 Sc3 2.953838 1_555
Sb5 Sc4 2.953839 1_455
Sb5 Sc5 2.981517 1_555
Sb5 Sc9 3.019469 1_456
Sb5 Sc6 3.019469 1_455
Sb5 Sc7 3.019472 1_555
Sb5 Sc8 3.019472 1_556
Sb5 Sc2 3.347483 1_456
Sb5 Sc2 3.347483 1_455
S0 Sc1 2.619709 1_555
S0 Sc4 2.619709 1_455
S0 Sc3 2.619709 1_555
S0 Sc2 2.619709 1_455
S0 Sc0 2.619709 1_445
S0 Sc5 2.619709 1_545
S1 Sc1 2.619709 1_555
S1 Sc4 2.619709 1_454
S1 Sc3 2.619709 1_554
S1 Sc2 2.619709 1_455
S1 Sc0 2.619709 1_445
S1 Sc5 2.619709 1_544
