# generated using pymatgen
data_Na5OsNO4
_symmetry_space_group_name_H-M   'P 1'
_cell_length_a   5.64604195
_cell_length_b   5.64604216
_cell_length_c   10.63044140
_cell_angle_alpha   90.00000000
_cell_angle_beta   90.00000000
_cell_angle_gamma   118.29019178
_symmetry_Int_Tables_number   1
_chemical_formula_structural   Na5OsNO4
_chemical_formula_sum   'Na10 Os2 N2 O8'
_cell_volume   298.39925036
_cell_formula_units_Z   2
loop_
 _symmetry_equiv_pos_site_id
 _symmetry_equiv_pos_as_xyz
  1  'x, y, z'
loop_
 _atom_site_type_symbol
 _atom_site_label
 _atom_site_symmetry_multiplicity
 _atom_site_fract_x
 _atom_site_fract_y
 _atom_site_fract_z
 _atom_site_occupancy
  Na  Na0  1  0.19276437  0.80723563  0.50000000  1
  Na  Na1  1  0.19276437  0.80723563  0.00000000  1
  Na  Na2  1  0.56619593  0.17970131  0.75000000  1
  Na  Na3  1  0.17970131  0.56619593  0.75000000  1
  Na  Na4  1  0.50000000  0.50000000  0.00000000  1
  Na  Na5  1  0.80723563  0.19276437  0.50000000  1
  Na  Na6  1  0.80723563  0.19276437  0.00000000  1
  Na  Na7  1  0.50000000  0.50000000  0.50000000  1
  Na  Na8  1  0.43380407  0.82029869  0.25000000  1
  Na  Na9  1  0.82029869  0.43380407  0.25000000  1
  Os  Os0  1  0.18940266  0.18940266  0.25000000  1
  Os  Os1  1  0.81059734  0.81059734  0.75000000  1
  N  N0  1  0.89609730  0.89609730  0.25000000  1
  N  N1  1  0.10390270  0.10390270  0.75000000  1
  O  O0  1  0.83589154  0.55717356  0.62712728  1
  O  O1  1  0.55717356  0.83589154  0.62712728  1
  O  O2  1  0.16410846  0.44282644  0.37287272  1
  O  O3  1  0.44282644  0.16410846  0.37287272  1
  O  O4  1  0.44282644  0.16410846  0.12712728  1
  O  O5  1  0.16410846  0.44282644  0.12712728  1
  O  O6  1  0.55717356  0.83589154  0.87287272  1
  O  O7  1  0.83589154  0.55717356  0.87287272  1
loop_
_geom_bond_atom_site_label_1
_geom_bond_atom_site_label_2
_geom_bond_distance
_geom_bond_site_symmetry_2
Na0 O0 2.276638 1_455
Na0 O3 2.276638 1_565
Na0 O1 2.402116 1_555
Na0 O2 2.402116 1_555
Na1 O7 2.276638 1_454
Na1 O4 2.276638 1_565
Na1 O6 2.402116 1_554
Na1 O5 2.402116 1_555
Na2 O6 2.320155 1_545
Na2 O1 2.320155 1_545
Na2 O0 2.343250 1_555
Na2 O7 2.343250 1_555
Na3 O7 2.320155 1_455
Na3 O0 2.320155 1_455
Na3 O6 2.343250 1_555
Na3 O1 2.343250 1_555
Na4 O7 2.224143 1_554
Na4 O5 2.224143 1_555
Na4 O4 2.224143 1_555
Na4 O6 2.224143 1_554
Na5 O2 2.276638 1_655
Na5 O1 2.276638 1_545
Na5 O3 2.402116 1_555
Na5 O0 2.402116 1_555
Na6 O5 2.276638 1_655
Na6 O6 2.276638 1_544
Na6 O4 2.402116 1_555
Na6 O7 2.402116 1_554
Na7 O0 2.224143 1_555
Na7 O2 2.224143 1_555
Na7 O3 2.224143 1_555
Na7 O1 2.224143 1_555
Na8 O4 2.320155 1_565
Na8 O3 2.320155 1_565
Na8 O5 2.343250 1_555
Na8 O2 2.343250 1_555
Na9 O5 2.320155 1_655
Na9 O2 2.320155 1_655
Na9 O4 2.343250 1_555
Na9 O3 2.343250 1_555
N0 Os0 1.698626 1_665
N0 Na8 2.436617 1_555
N0 Na9 2.436617 1_555
N1 Os1 1.698626 1_445
N1 Na2 2.436617 1_555
N1 Na3 2.436617 1_555
O0 Os1 1.991865 1_555
O1 Os1 1.991865 1_555
O2 Os0 1.991865 1_555
O3 Os0 1.991865 1_555
O4 Os0 1.991865 1_555
O5 Os0 1.991865 1_555
O6 Os1 1.991865 1_555
O7 Os1 1.991865 1_555
