# generated using pymatgen
data_Er4(Al8Pt3)3
_symmetry_space_group_name_H-M   'P 1'
_cell_length_a   7.47160123
_cell_length_b   7.46935052
_cell_length_c   13.05719937
_cell_angle_alpha   84.53897485
_cell_angle_beta   100.93307725
_cell_angle_gamma   119.88066117
_symmetry_Int_Tables_number   1
_chemical_formula_structural   Er4(Al8Pt3)3
_chemical_formula_sum   'Er4 Al24 Pt9'
_cell_volume   620.35876949
_cell_formula_units_Z   1
loop_
 _symmetry_equiv_pos_site_id
 _symmetry_equiv_pos_as_xyz
  1  'x, y, z'
loop_
 _atom_site_type_symbol
 _atom_site_label
 _atom_site_symmetry_multiplicity
 _atom_site_fract_x
 _atom_site_fract_y
 _atom_site_fract_z
 _atom_site_occupancy
  Er  Er0  1  0.73268327  0.99889293  0.19223605  1
  Er  Er1  1  0.26731673  0.00110707  0.80776395  1
  Er  Er2  1  0.06235319  0.66819618  0.19223039  1
  Er  Er3  1  0.93764681  0.33180382  0.80776961  1
  Al  Al0  1  0.80779641  0.86912464  0.81559544  1
  Al  Al1  1  0.19220359  0.13087536  0.18440456  1
  Al  Al2  1  0.98208622  0.66631999  0.94477832  1
  Al  Al3  1  0.01791378  0.33368001  0.05522168  1
  Al  Al4  1  0.39793227  0.66385713  0.81685476  1
  Al  Al5  1  0.60206773  0.33614287  0.18314524  1
  Al  Al6  1  0.88278523  0.66540835  0.67124535  1
  Al  Al7  1  0.11721477  0.33459165  0.32875465  1
  Al  Al8  1  0.60296570  0.45809535  0.81642087  1
  Al  Al9  1  0.39703430  0.54190465  0.18357913  1
  Al  Al10  1  0.23019590  0.33993706  0.66985352  1
  Al  Al11  1  0.76980410  0.66006294  0.33014648  1
  Al  Al12  1  0.85305342  0.33334564  0.55901559  1
  Al  Al13  1  0.18594558  0.99939296  0.55898854  1
  Al  Al14  1  0.81405442  0.00060704  0.44101146  1
  Al  Al15  1  0.35207953  0.99952175  0.05534789  1
  Al  Al16  1  0.64792047  0.00047825  0.94465211  1
  Al  Al17  1  0.55629351  0.99345146  0.67145160  1
  Al  Al18  1  0.44370649  0.00654854  0.32854840  1
  Al  Al19  1  0.52078538  0.66748364  0.56135338  1
  Al  Al20  1  0.47921462  0.33251636  0.43864662  1
  Al  Al21  1  0.68280657  0.66751770  0.04640431  1
  Al  Al22  1  0.31719343  0.33248230  0.95359569  1
  Al  Al23  1  0.14694658  0.66665436  0.44098441  1
  Pt  Pt0  1  0.32829450  0.67169869  0.00011178  1
  Pt  Pt1  1  0.54577714  0.32493843  0.63769884  1
  Pt  Pt2  1  0.45422286  0.67506157  0.36230116  1
  Pt  Pt3  1  0.88801317  0.00833424  0.63909283  1
  Pt  Pt4  1  0.11198683  0.99166576  0.36090717  1
  Pt  Pt5  1  0.67170550  0.32830131  0.99988822  1
  Pt  Pt6  1  0.20436999  0.66662688  0.63906463  1
  Pt  Pt7  1  0.79563001  0.33337312  0.36093537  1
  Pt  Pt8  1  -0.00000000  -0.00000000  0.00000000  1
loop_
_geom_bond_atom_site_label_1
_geom_bond_atom_site_label_2
_geom_bond_distance
_geom_bond_site_symmetry_2
Er0 Pt4 3.263002 1_655
Er0 Pt7 3.286144 1_565
Er0 Pt2 3.290309 1_555
Er0 Pt5 3.475044 1_564
Er0 Pt8 3.488682 1_665
Er0 Pt0 3.511301 1_555
Er1 Pt3 3.263002 1_455
Er1 Pt6 3.286144 1_545
Er1 Pt1 3.290309 1_555
Er1 Pt0 3.475044 1_546
Er1 Pt8 3.488682 1_556
Er1 Pt5 3.511301 1_555
Er2 Pt4 3.261310 1_555
Er2 Pt7 3.275524 1_455
Er2 Pt2 3.303368 1_555
Er2 Pt0 3.473911 1_555
Er2 Pt8 3.490303 1_565
Er2 Pt5 3.510224 1_454
Er3 Pt3 3.261310 1_555
Er3 Pt6 3.275524 1_655
Er3 Pt1 3.303368 1_555
Er3 Pt5 3.473911 1_555
Er3 Pt8 3.490303 1_656
Er3 Pt0 3.510224 1_656
Al0 Pt3 2.489701 1_565
Al0 Pt8 2.559895 1_666
Al0 Al4 2.658002 1_555
Al0 Al8 2.662009 1_555
Al0 Al16 2.734068 1_565
Al0 Al2 2.735254 1_555
Al0 Al6 2.824484 1_555
Al0 Al17 2.828489 1_555
Al0 Er1 3.084111 1_665
Al0 Er3 3.086202 1_565
Al1 Pt4 2.489701 1_545
Al1 Pt8 2.559895 1_555
Al1 Al5 2.658002 1_555
Al1 Al9 2.662009 1_555
Al1 Al15 2.734068 1_545
Al1 Al3 2.735254 1_555
Al1 Al7 2.824484 1_555
Al1 Al18 2.828489 1_555
Al1 Er0 3.084111 1_445
Al1 Er2 3.086202 1_545
Al2 Pt0 2.531372 1_656
Al2 Pt8 2.592836 1_666
Al2 Pt5 2.592975 1_555
Al2 Al8 2.749063 1_555
Al2 Al21 2.812247 1_556
Al2 Al3 2.856363 1_656
Al2 Er1 3.046357 1_665
Al2 Er3 3.058190 1_555
Al2 Er2 3.172482 1_656
Al3 Pt5 2.531372 1_454
Al3 Pt8 2.592836 1_555
Al3 Pt0 2.592975 1_555
Al3 Al9 2.749063 1_555
Al3 Er0 3.046357 1_445
Al3 Er2 3.058190 1_555
Al3 Er3 3.172482 1_454
Al4 Pt6 2.495642 1_555
Al4 Pt0 2.555201 1_556
Al4 Al8 2.657028 1_555
Al4 Er3 3.065152 1_455
Al4 Er1 3.108160 1_565
Al5 Pt7 2.495642 1_555
Al5 Pt5 2.555201 1_554
Al5 Al9 2.657028 1_555
Al5 Er2 3.065152 1_655
Al5 Er0 3.108160 1_545
Al6 Pt6 2.512035 1_655
Al6 Pt1 2.532338 1_555
Al6 Pt3 2.537828 1_565
Al6 Al8 2.842703 1_555
Al6 Er1 3.073974 1_665
Al6 Er3 3.074078 1_555
Al7 Pt7 2.512035 1_455
Al7 Pt2 2.532338 1_555
Al7 Pt4 2.537828 1_545
Al7 Al9 2.842703 1_555
Al7 Er0 3.073974 1_445
Al7 Er2 3.074078 1_555
Al8 Pt1 2.501523 1_555
Al8 Pt5 2.555346 1_555
Al8 Er1 3.064295 1_555
Al8 Er3 3.103772 1_555
Al9 Pt2 2.501523 1_555
Al9 Pt0 2.555346 1_555
Al9 Er0 3.064295 1_555
Al9 Er2 3.103772 1_555
Al10 Pt3 2.514527 1_455
Al10 Pt1 2.529066 1_555
Al10 Pt6 2.531057 1_555
Al10 Al19 2.814431 1_555
Al10 Al8 2.837083 1_555
Al10 Al4 2.838813 1_555
Al10 Al13 2.890726 1_545
Al10 Al12 2.892341 1_455
Al10 Er3 3.060114 1_455
Al10 Er1 3.060588 1_555
Al11 Pt4 2.514527 1_655
Al11 Pt2 2.529066 1_555
Al11 Pt7 2.531057 1_555
Al11 Al20 2.814431 1_555
Al11 Al9 2.837083 1_555
Al11 Al5 2.838813 1_555
Al11 Al14 2.890726 1_565
Al11 Al23 2.892341 1_655
Al11 Er2 3.060114 1_655
Al11 Er0 3.060588 1_555
Al12 Pt7 2.540170 1_555
Al12 Pt1 2.658788 1_555
Al12 Pt3 2.664568 1_555
Al12 Pt6 2.668964 1_655
Al12 Al6 2.892740 1_555
Al12 Al17 2.904055 1_545
Al12 Al14 2.910825 1_555
Al12 Al23 2.915711 1_655
Al12 Al20 2.931114 1_555
Al12 Er3 3.189159 1_555
Al13 Pt4 2.540195 1_555
Al13 Pt6 2.661162 1_555
Al13 Pt3 2.664258 1_465
Al13 Pt1 2.666614 1_565
Al13 Al17 2.895470 1_555
Al13 Al6 2.904404 1_455
Al13 Al23 2.910825 1_555
Al13 Al14 2.914211 1_465
Al13 Al20 2.931040 1_565
Al13 Er1 3.189412 1_565
Al14 Pt3 2.540195 1_555
Al14 Pt7 2.661162 1_555
Al14 Pt4 2.664258 1_645
Al14 Pt2 2.666614 1_545
Al14 Al18 2.895470 1_555
Al14 Al7 2.904404 1_655
Al14 Al19 2.931040 1_545
Al14 Er0 3.189412 1_545
Al15 Pt0 2.530111 1_555
Al15 Pt8 2.594238 1_565
Al15 Pt5 2.594669 1_564
Al15 Al5 2.744460 1_565
Al15 Al22 2.811389 1_564
Al15 Al16 2.858190 1_564
Al15 Al2 2.869721 1_454
Al15 Er2 3.048419 1_555
Al15 Er0 3.060254 1_555
Al15 Er1 3.174192 1_564
Al16 Pt5 2.530111 1_555
Al16 Pt8 2.594238 1_656
Al16 Pt0 2.594669 1_546
Al16 Al4 2.744460 1_545
Al16 Al21 2.811389 1_546
Al16 Al3 2.869721 1_656
Al16 Er3 3.048419 1_555
Al16 Er1 3.060254 1_555
Al16 Er0 3.174192 1_546
Al17 Pt1 2.510768 1_565
Al17 Pt6 2.535948 1_555
Al17 Pt3 2.539190 1_565
Al17 Al19 2.818337 1_555
Al17 Al4 2.850499 1_555
Al17 Er3 3.071042 1_565
Al17 Er1 3.071329 1_565
Al18 Pt2 2.510768 1_545
Al18 Pt7 2.535948 1_555
Al18 Pt4 2.539190 1_545
Al18 Al20 2.818337 1_555
Al18 Al5 2.850499 1_555
Al18 Al23 2.904055 1_545
Al18 Er2 3.071042 1_545
Al18 Er0 3.071329 1_545
Al19 Pt2 2.552531 1_555
Al19 Pt1 2.737689 1_555
Al19 Pt6 2.740873 1_555
Al19 Pt3 2.741461 1_565
Al19 Al6 2.817806 1_555
Al19 Al23 2.931114 1_555
Al19 Al20 2.953541 1_555
Al20 Pt1 2.552531 1_555
Al20 Pt2 2.737689 1_555
Al20 Pt7 2.740873 1_555
Al20 Pt4 2.741461 1_545
Al20 Al7 2.817806 1_555
Al21 Pt8 2.558344 1_665
Al21 Pt0 2.617984 1_555
Al21 Pt5 2.619151 1_554
Al21 Al22 2.775491 1_554
Al21 Al5 2.785284 1_555
Al21 Al9 2.789643 1_555
Al21 Er0 3.098375 1_555
Al21 Er2 3.099473 1_655
Al22 Pt8 2.558344 1_556
Al22 Pt5 2.617984 1_555
Al22 Pt0 2.619151 1_556
Al22 Al4 2.785284 1_555
Al22 Al8 2.789643 1_555
Al22 Al3 2.812247 1_556
Al22 Er1 3.098375 1_555
Al22 Er3 3.099473 1_455
Al23 Pt6 2.540170 1_555
Al23 Pt2 2.658788 1_555
Al23 Pt4 2.664568 1_555
Al23 Pt7 2.668964 1_455
Al23 Al7 2.892740 1_555
Al23 Er2 3.189159 1_555
