# generated using pymatgen
data_MnFe(Co2Si)2
_symmetry_space_group_name_H-M   'P 1'
_cell_length_a   6.84527785
_cell_length_b   6.84527766
_cell_length_c   6.84527718
_cell_angle_alpha   33.58104726
_cell_angle_beta   33.58105274
_cell_angle_gamma   33.58105626
_symmetry_Int_Tables_number   1
_chemical_formula_structural   MnFe(Co2Si)2
_chemical_formula_sum   'Mn1 Fe1 Co4 Si2'
_cell_volume   87.41090819
_cell_formula_units_Z   1
loop_
 _symmetry_equiv_pos_site_id
 _symmetry_equiv_pos_as_xyz
  1  'x, y, z'
loop_
 _atom_site_type_symbol
 _atom_site_label
 _atom_site_symmetry_multiplicity
 _atom_site_fract_x
 _atom_site_fract_y
 _atom_site_fract_z
 _atom_site_occupancy
  Mn  Mn0  1  0.00000000  0.00000000  0.00000000  1
  Fe  Fe0  1  0.50000000  0.50000000  0.50000000  1
  Co  Co0  1  0.62333460  0.62333460  0.62333460  1
  Co  Co1  1  0.12671641  0.12671641  0.12671641  1
  Co  Co2  1  0.87328359  0.87328359  0.87328359  1
  Co  Co3  1  0.37666540  0.37666540  0.37666540  1
  Si  Si0  1  0.25168918  0.25168918  0.25168918  1
  Si  Si1  1  0.74831082  0.74831082  0.74831082  1
loop_
_geom_bond_atom_site_label_1
_geom_bond_atom_site_label_2
_geom_bond_distance
_geom_bond_site_symmetry_2
Mn0 Si1 2.777030 1_445
Mn0 Si0 2.777030 1_554
Mn0 Si1 2.777031 1_454
Mn0 Si0 2.777031 1_545
Mn0 Si1 2.777031 1_544
Mn0 Si0 2.777031 1_455
Fe0 Si0 2.814770 1_556
Fe0 Si1 2.814770 1_554
Fe0 Si0 2.814771 1_565
Fe0 Si1 2.814771 1_545
Fe0 Si0 2.814771 1_655
Fe0 Si1 2.814771 1_455
Co0 Fe0 2.387722 1_555
Co0 Si0 2.400774 1_556
Co0 Si0 2.400774 1_565
Co0 Si0 2.400775 1_655
Co0 Si1 2.419503 1_555
Co0 Mn0 2.432556 1_665
Co0 Mn0 2.432556 1_656
Co0 Mn0 2.432556 1_566
Co1 Fe0 2.410761 1_554
Co1 Fe0 2.410761 1_545
Co1 Fe0 2.410761 1_455
Co1 Si0 2.419436 1_555
Co1 Si1 2.444379 1_445
Co1 Si1 2.444379 1_454
Co1 Si1 2.444379 1_544
Co1 Mn0 2.453192 1_555
Co2 Fe0 2.410761 1_556
Co2 Fe0 2.410761 1_565
Co2 Fe0 2.410761 1_655
Co2 Si1 2.419436 1_555
Co2 Si0 2.444379 1_665
Co2 Si0 2.444379 1_656
Co2 Si0 2.444379 1_566
Co2 Mn0 2.453192 1_666
Co3 Fe0 2.387722 1_555
Co3 Si1 2.400774 1_554
Co3 Si1 2.400774 1_545
Co3 Si1 2.400775 1_455
Co3 Si0 2.419503 1_555
Co3 Mn0 2.432556 1_556
Co3 Mn0 2.432556 1_565
Co3 Mn0 2.432556 1_655
