# generated using pymatgen
data_Ta6Si6Tc5Rh
_symmetry_space_group_name_H-M   'P 1'
_cell_length_a   7.45622987
_cell_length_b   7.47679796
_cell_length_c   7.47679707
_cell_angle_alpha   128.01922327
_cell_angle_beta   122.60786322
_cell_angle_gamma   81.15552966
_symmetry_Int_Tables_number   1
_chemical_formula_structural   Ta6Si6Tc5Rh
_chemical_formula_sum   'Ta6 Si6 Tc5 Rh1'
_cell_volume   266.46049727
_cell_formula_units_Z   1
loop_
 _symmetry_equiv_pos_site_id
 _symmetry_equiv_pos_as_xyz
  1  'x, y, z'
loop_
 _atom_site_type_symbol
 _atom_site_label
 _atom_site_symmetry_multiplicity
 _atom_site_fract_x
 _atom_site_fract_y
 _atom_site_fract_z
 _atom_site_occupancy
  Ta  Ta0  1  0.54452414  0.09437246  0.04004735  1
  Ta  Ta1  1  0.45547586  0.49552421  0.54984832  1
  Ta  Ta2  1  0.96022212  0.50123555  0.02280064  1
  Ta  Ta3  1  0.03977788  0.06257853  0.54101343  1
  Ta  Ta4  1  0.74656085  0.91113387  0.65330480  1
  Ta  Ta5  1  0.25343915  0.90674295  0.16457402  1
  Si  Si0  1  0.33571062  0.82554483  0.49701471  1
  Si  Si1  1  0.66428938  0.16130309  0.48983421  1
  Si  Si2  1  0.83136391  0.83740159  0.99786400  1
  Si  Si3  1  0.16863609  0.16649909  0.00603768  1
  Si  Si4  1  0.77517215  0.52348316  0.24708281  1
  Si  Si5  1  0.22482785  0.47191066  0.74831201  1
  Tc  Tc0  1  0.15657943  0.74753238  0.65412371  1
  Tc  Tc1  1  0.84342057  0.49754328  0.59095295  1
  Tc  Tc2  1  0.59139770  0.74878090  0.08819977  1
  Tc  Tc3  1  0.40860230  0.49680107  0.15738320  1
  Tc  Tc4  1  0.50000000  0.24443733  0.74443733  1
  Rh  Rh0  1  0.00000000  0.24917006  0.24917006  1
loop_
_geom_bond_atom_site_label_1
_geom_bond_atom_site_label_2
_geom_bond_distance
_geom_bond_site_symmetry_2
Ta0 Tc0 2.740701 1_544
Ta0 Tc3 2.760247 1_555
Ta0 Tc2 2.767860 1_545
Ta0 Tc1 2.810113 1_555
Ta0 Tc4 2.898903 1_554
Ta1 Tc1 2.740699 1_555
Ta1 Tc2 2.760254 1_556
Ta1 Tc3 2.767850 1_555
Ta1 Tc0 2.810112 1_555
Ta1 Tc4 2.898910 1_555
Ta2 Tc1 2.837520 1_554
Ta2 Tc3 2.927807 1_655
Ta2 Tc4 3.033086 1_554
Ta2 Tc0 3.238613 1_655
Ta3 Tc0 2.837525 1_545
Ta3 Tc2 2.927807 1_445
Ta3 Tc4 3.033086 1_555
Ta3 Tc1 3.238607 1_455
Ta4 Tc3 2.806376 1_555
Ta4 Tc4 2.811383 1_565
Ta4 Tc1 2.863861 1_555
Ta4 Tc0 3.111563 1_655
Ta5 Tc2 2.806374 1_555
Ta5 Tc4 2.811379 1_565
Ta5 Tc0 2.863863 1_554
Ta5 Tc1 3.111565 1_454
Si0 Tc3 2.484588 1_555
Si0 Tc0 2.505707 1_555
Si0 Tc4 2.516391 1_565
Si0 Ta3 2.641886 1_565
Si0 Ta4 2.642522 1_555
Si0 Ta5 2.650294 1_555
Si0 Ta0 2.654283 1_566
Si0 Ta2 2.662249 1_455
Si0 Ta1 2.680481 1_555
Si1 Tc2 2.484581 1_545
Si1 Tc1 2.505708 1_555
Si1 Tc4 2.516388 1_555
Si1 Ta2 2.641888 1_556
Si1 Ta5 2.642523 1_545
Si1 Ta4 2.650300 1_545
Si1 Ta1 2.654295 1_555
Si1 Ta3 2.662247 1_655
Si1 Ta0 2.680492 1_555
Si2 Tc2 2.512960 1_556
Si2 Tc1 2.534247 1_555
Si2 Ta2 2.630001 1_556
Si2 Ta0 2.661222 1_566
Si2 Ta1 2.673327 1_555
Si2 Ta5 2.684121 1_656
Si2 Ta4 2.688342 1_555
Si2 Ta3 2.705896 1_666
Si3 Tc3 2.512960 1_555
Si3 Tc0 2.534241 1_544
Si3 Ta3 2.630004 1_554
Si3 Ta1 2.661223 1_555
Si3 Ta0 2.673329 1_555
Si3 Ta4 2.684121 1_444
Si3 Ta5 2.688348 1_545
Si3 Ta2 2.705902 1_455
Si4 Tc3 2.446905 1_555
Si4 Tc0 2.452051 1_655
Si4 Tc4 2.456306 1_554
Si4 Tc1 2.465901 1_555
Si4 Tc2 2.475327 1_555
Si4 Ta2 2.612088 1_555
Si4 Ta4 2.708333 1_555
Si4 Ta0 2.890858 1_555
Si5 Tc2 2.446905 1_556
Si5 Tc1 2.452049 1_455
Si5 Tc4 2.456306 1_555
Si5 Tc0 2.465901 1_555
Si5 Tc3 2.475324 1_556
Si5 Ta3 2.612085 1_555
Si5 Ta5 2.708330 1_556
Si5 Ta1 2.890867 1_555
Tc0 Tc1 2.869632 1_455
Tc0 Tc2 3.110625 1_556
Tc1 Tc3 3.110625 1_555
Tc2 Tc4 2.872856 1_554
Tc3 Tc4 2.872856 1_554
Rh0 Si4 2.443553 1_455
Rh0 Si5 2.443559 1_555
Rh0 Si3 2.471445 1_555
Rh0 Si2 2.471447 1_444
Rh0 Tc1 2.836351 1_455
Rh0 Tc0 2.836351 1_555
Rh0 Ta4 2.886442 1_444
Rh0 Ta5 2.886447 1_545
Rh0 Ta0 2.928210 1_455
Rh0 Ta1 2.928213 1_555
Rh0 Ta3 3.117835 1_555
Rh0 Ta2 3.117835 1_455
