# generated using pymatgen
data_CdFeIO6
_symmetry_space_group_name_H-M   'P 1'
_cell_length_a   5.15501293
_cell_length_b   5.15501401
_cell_length_c   4.82041499
_cell_angle_alpha   90.00000000
_cell_angle_beta   90.00000000
_cell_angle_gamma   120.00000539
_symmetry_Int_Tables_number   1
_chemical_formula_structural   CdFeIO6
_chemical_formula_sum   'Cd1 Fe1 I1 O6'
_cell_volume   110.93654730
_cell_formula_units_Z   1
loop_
 _symmetry_equiv_pos_site_id
 _symmetry_equiv_pos_as_xyz
  1  'x, y, z'
loop_
 _atom_site_type_symbol
 _atom_site_label
 _atom_site_symmetry_multiplicity
 _atom_site_fract_x
 _atom_site_fract_y
 _atom_site_fract_z
 _atom_site_occupancy
  Cd  Cd0  1  0.33333300  0.66666700  0.00000000  1
  Fe  Fe0  1  0.66666700  0.33333300  0.50000000  1
  I  I0  1  0.00000000  0.00000000  0.50000000  1
  O  O0  1  0.31411476  0.02463870  0.71831984  1
  O  O1  1  0.97536130  0.68588524  0.28168016  1
  O  O2  1  0.31411476  0.28947606  0.28168016  1
  O  O3  1  0.71052394  0.02463870  0.28168016  1
  O  O4  1  0.97536130  0.28947606  0.71831984  1
  O  O5  1  0.71052394  0.68588524  0.71831984  1
loop_
_geom_bond_atom_site_label_1
_geom_bond_atom_site_label_2
_geom_bond_distance
_geom_bond_site_symmetry_2
Cd0 O1 2.332726 1_455
Cd0 O0 2.332726 1_564
Cd0 O3 2.332728 1_565
Cd0 O4 2.332728 1_454
Cd0 O5 2.332730 1_554
Cd0 O2 2.332730 1_555
Fe0 O4 2.012641 1_555
Fe0 O3 2.012641 1_555
Fe0 O0 2.012644 1_555
Fe0 O1 2.012644 1_555
Fe0 O2 2.012645 1_555
Fe0 O5 2.012646 1_555
I0 O0 1.881493 1_555
I0 O2 1.881493 1_555
I0 O3 1.881493 1_455
I0 O5 1.881493 1_445
I0 O4 1.881493 1_455
I0 O1 1.881493 1_445
