# generated using pymatgen
data_Ba2IOF
_symmetry_space_group_name_H-M   'P 1'
_cell_length_a   7.87025474
_cell_length_b   7.87025448
_cell_length_c   6.37900613
_cell_angle_alpha   90.00000000
_cell_angle_beta   90.00000000
_cell_angle_gamma   132.11818611
_symmetry_Int_Tables_number   1
_chemical_formula_structural   Ba2IOF
_chemical_formula_sum   'Ba4 I2 O2 F2'
_cell_volume   293.08645886
_cell_formula_units_Z   2
loop_
 _symmetry_equiv_pos_site_id
 _symmetry_equiv_pos_as_xyz
  1  'x, y, z'
loop_
 _atom_site_type_symbol
 _atom_site_label
 _atom_site_symmetry_multiplicity
 _atom_site_fract_x
 _atom_site_fract_y
 _atom_site_fract_z
 _atom_site_occupancy
  Ba  Ba0  1  0.41151717  0.58848283  0.22805979  1
  Ba  Ba1  1  0.58848283  0.41151717  0.77194021  1
  Ba  Ba2  1  0.08848283  0.91151717  0.22805979  1
  Ba  Ba3  1  0.91151717  0.08848283  0.77194021  1
  I  I0  1  0.75000000  0.25000000  0.25032542  1
  I  I1  1  0.25000000  0.75000000  0.74967458  1
  O  O0  1  0.25000000  0.25000000  0.00000000  1
  O  O1  1  0.75000000  0.75000000  0.00000000  1
  F  F0  1  0.25000000  0.25000000  0.50000000  1
  F  F1  1  0.75000000  0.75000000  0.50000000  1
loop_
_geom_bond_atom_site_label_1
_geom_bond_atom_site_label_2
_geom_bond_distance
_geom_bond_site_symmetry_2
Ba0 O0 2.507336 1_555
Ba0 O1 2.507336 1_555
Ba0 F0 2.679462 1_555
Ba0 F1 2.679462 1_555
Ba0 I1 3.835577 1_554
Ba0 I0 3.952109 1_565
Ba0 I0 3.952110 1_455
Ba0 I1 4.058415 1_555
Ba1 O1 2.507336 1_556
Ba1 O0 2.507336 1_556
Ba1 F1 2.679462 1_555
Ba1 F0 2.679462 1_555
Ba1 I0 3.835577 1_556
Ba1 I1 3.952109 1_545
Ba1 I1 3.952110 1_655
Ba1 I0 4.058415 1_555
Ba2 O0 2.507336 1_565
Ba2 O1 2.507336 1_455
Ba2 F0 2.679462 1_565
Ba2 F1 2.679462 1_455
Ba2 I1 3.835577 1_554
Ba2 I0 3.952109 1_455
Ba2 I0 3.952110 1_565
Ba2 I1 4.058415 1_555
Ba3 O1 2.507336 1_546
Ba3 O0 2.507336 1_656
Ba3 F1 2.679462 1_545
Ba3 F0 2.679462 1_655
Ba3 I0 3.835577 1_556
Ba3 I1 3.952109 1_655
Ba3 I1 3.952110 1_545
Ba3 I0 4.058415 1_555
