# generated using pymatgen
data_GeBiF7
_symmetry_space_group_name_H-M   'P 1'
_cell_length_a   5.37370390
_cell_length_b   8.89704718
_cell_length_c   11.86580266
_cell_angle_alpha   61.37854880
_cell_angle_beta   90.00000000
_cell_angle_gamma   90.00000000
_symmetry_Int_Tables_number   1
_chemical_formula_structural   GeBiF7
_chemical_formula_sum   'Ge4 Bi4 F28'
_cell_volume   497.98258096
_cell_formula_units_Z   4
loop_
 _symmetry_equiv_pos_site_id
 _symmetry_equiv_pos_as_xyz
  1  'x, y, z'
loop_
 _atom_site_type_symbol
 _atom_site_label
 _atom_site_symmetry_multiplicity
 _atom_site_fract_x
 _atom_site_fract_y
 _atom_site_fract_z
 _atom_site_occupancy
  Ge  Ge0  1  0.75693205  0.27360510  0.95862449  1
  Ge  Ge1  1  0.25693205  0.72639490  0.54137551  1
  Ge  Ge2  1  0.24306795  0.72639490  0.04137551  1
  Ge  Ge3  1  0.74306795  0.27360510  0.45862449  1
  Bi  Bi0  1  0.76501302  0.81262831  0.76197715  1
  Bi  Bi1  1  0.26501302  0.18737169  0.73802285  1
  Bi  Bi2  1  0.23498698  0.18737169  0.23802285  1
  Bi  Bi3  1  0.73498698  0.81262831  0.26197715  1
  F  F0  1  0.42373786  0.71158302  0.91927379  1
  F  F1  1  0.92373786  0.28841698  0.58072621  1
  F  F2  1  0.57626214  0.28841698  0.08072621  1
  F  F3  1  0.07626214  0.71158302  0.41927379  1
  F  F4  1  0.45480708  0.27749819  0.53789783  1
  F  F5  1  0.95480708  0.72250181  0.96210217  1
  F  F6  1  0.54519292  0.72250181  0.46210217  1
  F  F7  1  0.04519292  0.27749819  0.03789783  1
  F  F8  1  0.77014774  0.50247659  0.86665685  1
  F  F9  1  0.27014774  0.49752341  0.63334315  1
  F  F10  1  0.22985226  0.49752341  0.13334315  1
  F  F11  1  0.72985226  0.50247659  0.36665685  1
  F  F12  1  0.76157373  0.04122570  0.04947059  1
  F  F13  1  0.26157373  0.95877430  0.45052941  1
  F  F14  1  0.23842627  0.95877430  0.95052941  1
  F  F15  1  0.73842627  0.04122570  0.54947059  1
  F  F16  1  0.97621694  0.73149490  0.62267425  1
  F  F17  1  0.47621694  0.26850510  0.87732575  1
  F  F18  1  0.02378306  0.26850510  0.37732575  1
  F  F19  1  0.52378306  0.73149490  0.12267425  1
  F  F20  1  0.06459625  0.74096272  0.16506356  1
  F  F21  1  0.56459625  0.25903728  0.33493644  1
  F  F22  1  0.93540375  0.25903728  0.83493644  1
  F  F23  1  0.43540375  0.74096272  0.66506356  1
  F  F24  1  0.37931000  0.96330047  0.22283147  1
  F  F25  1  0.87931000  0.03669953  0.27716853  1
  F  F26  1  0.62069000  0.03669953  0.77716853  1
  F  F27  1  0.12069000  0.96330047  0.72283147  1
loop_
_geom_bond_atom_site_label_1
_geom_bond_atom_site_label_2
_geom_bond_distance
_geom_bond_site_symmetry_2
Bi0 F26 2.225439 1_565
Bi0 F27 2.251517 1_655
Bi0 F5 2.344753 1_555
Bi0 F23 2.359797 1_555
Bi0 F15 2.366838 1_565
Bi0 F16 2.384217 1_555
Bi0 F8 2.423710 1_555
Bi0 F0 2.459174 1_555
Bi1 F27 2.225439 1_545
Bi1 F26 2.251517 1_555
Bi1 F4 2.344753 1_555
Bi1 F22 2.359797 1_455
Bi1 F14 2.366838 1_545
Bi1 F17 2.384217 1_555
Bi1 F9 2.423710 1_555
Bi1 F1 2.459174 1_455
Bi2 F24 2.225439 1_545
Bi2 F25 2.251517 1_455
Bi2 F7 2.344753 1_555
Bi2 F21 2.359797 1_555
Bi2 F13 2.366838 1_545
Bi2 F18 2.384217 1_555
Bi2 F10 2.423710 1_555
Bi2 F2 2.459174 1_555
Bi3 F25 2.225439 1_565
Bi3 F24 2.251517 1_555
Bi3 F6 2.344753 1_555
Bi3 F20 2.359797 1_655
Bi3 F12 2.366838 1_565
Bi3 F19 2.384217 1_555
Bi3 F11 2.423710 1_555
Bi3 F3 2.459174 1_655
F0 Ge2 1.800553 1_556
F1 Ge3 1.800553 1_555
F2 Ge0 1.800553 1_554
F3 Ge1 1.800553 1_555
F4 Ge3 1.821184 1_555
F5 Ge2 1.821184 1_656
F6 Ge1 1.821184 1_555
F7 Ge0 1.821184 1_454
F8 Ge0 1.792612 1_555
F9 Ge1 1.792612 1_555
F10 Ge2 1.792612 1_555
F11 Ge3 1.792612 1_555
F12 Ge0 1.817135 1_554
F13 Ge1 1.817135 1_555
F14 Ge2 1.817135 1_556
F15 Ge3 1.817135 1_555
F16 Ge1 1.802804 1_655
F17 Ge0 1.802804 1_555
F18 Ge3 1.802804 1_455
F19 Ge2 1.802804 1_555
F20 Ge2 1.809101 1_555
F21 Ge3 1.809101 1_555
F22 Ge0 1.809101 1_555
F23 Ge1 1.809101 1_555
