# generated using pymatgen
data_Sc22Tc6HgIr
_symmetry_space_group_name_H-M   'P 1'
_cell_length_a   9.42584435
_cell_length_b   9.61048073
_cell_length_c   9.61048131
_cell_angle_alpha   59.43954613
_cell_angle_beta   60.63351941
_cell_angle_gamma   60.63352028
_symmetry_Int_Tables_number   1
_chemical_formula_structural   Sc22Tc6HgIr
_chemical_formula_sum   'Sc22 Tc6 Hg1 Ir1'
_cell_volume   618.70149726
_cell_formula_units_Z   1
loop_
 _symmetry_equiv_pos_site_id
 _symmetry_equiv_pos_as_xyz
  1  'x, y, z'
loop_
 _atom_site_type_symbol
 _atom_site_label
 _atom_site_symmetry_multiplicity
 _atom_site_fract_x
 _atom_site_fract_y
 _atom_site_fract_z
 _atom_site_occupancy
  Sc  Sc0  1  0.80126082  0.80762130  0.19237870  1
  Sc  Sc1  1  0.19873918  0.80762130  0.19237870  1
  Sc  Sc2  1  0.80245280  0.19754720  0.19754720  1
  Sc  Sc3  1  0.19873918  0.19237870  0.80762130  1
  Sc  Sc4  1  0.80126082  0.19237870  0.80762130  1
  Sc  Sc5  1  0.19754720  0.80245280  0.80245280  1
  Sc  Sc6  1  0.62353225  0.59979548  0.15313802  1
  Sc  Sc7  1  0.62353225  0.15313802  0.59979548  1
  Sc  Sc8  1  0.14836621  0.61210273  0.61210273  1
  Sc  Sc9  1  0.62742533  0.61210273  0.61210273  1
  Sc  Sc10  1  0.37646775  0.40020452  0.84686198  1
  Sc  Sc11  1  0.37646775  0.84686198  0.40020452  1
  Sc  Sc12  1  0.85163379  0.38789727  0.38789727  1
  Sc  Sc13  1  0.37257467  0.38789727  0.38789727  1
  Sc  Sc14  1  0.84579235  0.84705906  0.46135523  1
  Sc  Sc15  1  0.84579235  0.46135523  0.84705906  1
  Sc  Sc16  1  0.47739640  0.83206711  0.83206711  1
  Sc  Sc17  1  0.85846737  0.83206711  0.83206711  1
  Sc  Sc18  1  0.15420765  0.15294094  0.53864477  1
  Sc  Sc19  1  0.15420765  0.53864477  0.15294094  1
  Sc  Sc20  1  0.52260360  0.16793289  0.16793289  1
  Sc  Sc21  1  0.14153263  0.16793289  0.16793289  1
  Tc  Tc0  1  0.00000000  0.00000000  0.00000000  1
  Tc  Tc1  1  0.00000000  0.00000000  0.50000000  1
  Tc  Tc2  1  0.50000000  0.00000000  0.50000000  1
  Tc  Tc3  1  0.00000000  0.50000000  0.50000000  1
  Tc  Tc4  1  0.50000000  0.50000000  0.00000000  1
  Tc  Tc5  1  0.00000000  0.50000000  0.00000000  1
  Hg  Hg0  1  0.50000000  0.00000000  0.00000000  1
  Ir  Ir0  1  0.50000000  0.50000000  0.50000000  1
loop_
_geom_bond_atom_site_label_1
_geom_bond_atom_site_label_2
_geom_bond_distance
_geom_bond_site_symmetry_2
Sc0 Tc0 2.621011 1_665
Sc0 Sc14 3.036210 1_555
Sc0 Sc19 3.036216 1_655
Sc0 Sc20 3.130867 1_565
Sc0 Sc17 3.130873 1_554
Sc0 Sc12 3.363974 1_555
Sc0 Sc9 3.363979 1_555
Sc0 Sc11 3.406619 1_555
Sc0 Sc6 3.406635 1_555
Sc1 Tc0 2.621011 1_565
Sc1 Sc19 3.036210 1_555
Sc1 Sc14 3.036216 1_455
Sc1 Sc16 3.130867 1_554
Sc1 Sc21 3.130873 1_565
Sc1 Sc8 3.363974 1_555
Sc1 Sc13 3.363979 1_555
Sc1 Sc6 3.406619 1_555
Sc1 Sc11 3.406635 1_555
Sc2 Tc0 2.721552 1_655
Sc2 Sc20 2.945349 1_555
Sc2 Sc21 2.945368 1_655
Sc2 Sc6 3.256472 1_555
Sc2 Sc7 3.256472 1_555
Sc2 Tc5 3.427850 1_655
Sc2 Tc2 3.427850 1_555
Sc2 Tc4 3.427851 1_555
Sc2 Tc1 3.427851 1_655
Sc3 Tc0 2.621011 1_556
Sc3 Sc8 3.363974 1_555
Sc3 Sc7 3.406619 1_555
Sc4 Tc0 2.621011 1_656
Sc4 Sc9 3.363979 1_555
Sc4 Sc7 3.406635 1_555
Sc5 Tc0 2.721552 1_566
Sc5 Tc5 3.427850 1_556
Sc5 Tc2 3.427850 1_565
Sc5 Tc4 3.427851 1_556
Sc5 Tc1 3.427851 1_565
Sc5 Sc9 3.460409 1_555
Sc5 Sc8 3.460427 1_555
Sc6 Tc4 2.941607 1_555
Sc6 Tc5 2.941622 1_655
Sc7 Tc2 2.941607 1_555
Sc7 Tc1 2.941622 1_655
Sc8 Tc3 2.900501 1_555
Sc8 Tc1 3.048594 1_565
Sc8 Tc5 3.048595 1_556
Sc9 Tc3 2.900525 1_655
Sc9 Tc2 3.048595 1_565
Sc9 Tc4 3.048596 1_556
Sc10 Tc4 2.941607 1_556
Sc10 Tc5 2.941622 1_556
Sc10 Sc9 3.106601 1_555
Sc10 Sc8 3.106636 1_555
Sc10 Sc19 3.164463 1_556
Sc10 Sc21 3.248101 1_556
Sc10 Sc20 3.248101 1_556
Sc10 Sc5 3.256472 1_555
Sc10 Sc7 3.403765 1_555
Sc10 Sc4 3.406619 1_555
Sc10 Sc3 3.406635 1_555
Sc11 Tc2 2.941607 1_565
Sc11 Tc1 2.941622 1_565
Sc11 Sc9 3.106602 1_555
Sc11 Sc8 3.106636 1_555
Sc11 Sc18 3.164463 1_565
Sc11 Sc20 3.248101 1_565
Sc11 Sc21 3.248101 1_565
Sc11 Sc5 3.256472 1_555
Sc11 Sc6 3.403765 1_555
Sc12 Tc3 2.900501 1_655
Sc12 Tc1 3.048594 1_655
Sc12 Tc5 3.048595 1_655
Sc12 Sc9 3.088815 1_555
Sc12 Sc21 3.101254 1_655
Sc12 Sc7 3.106636 1_555
Sc12 Sc6 3.106636 1_555
Sc12 Sc19 3.121099 1_655
Sc12 Sc18 3.121099 1_655
Sc12 Sc4 3.363974 1_555
Sc12 Sc2 3.460427 1_555
Sc13 Tc3 2.900525 1_555
Sc13 Tc2 3.048595 1_555
Sc13 Tc4 3.048596 1_555
Sc13 Sc8 3.088815 1_555
Sc13 Sc20 3.101256 1_555
Sc13 Sc6 3.106601 1_555
Sc13 Sc7 3.106602 1_555
Sc13 Sc18 3.121114 1_555
Sc13 Sc19 3.121114 1_555
Sc13 Sc3 3.363979 1_555
Sc13 Sc2 3.460409 1_555
Sc14 Tc2 2.755190 1_565
Sc14 Tc1 2.755198 1_665
Sc14 Tc3 2.808989 1_655
Sc14 Sc2 2.987083 1_565
Sc14 Sc8 3.121099 1_655
Sc14 Sc9 3.121114 1_555
Sc14 Sc7 3.164463 1_565
Sc14 Sc17 3.550578 1_555
Sc14 Sc16 3.550583 1_555
Sc15 Tc4 2.755190 1_556
Sc15 Tc5 2.755198 1_656
Sc15 Tc3 2.808989 1_655
Sc15 Sc2 2.987083 1_556
Sc15 Sc4 3.036210 1_555
Sc15 Sc3 3.036216 1_655
Sc15 Sc8 3.121099 1_655
Sc15 Sc9 3.121114 1_555
Sc15 Sc6 3.164463 1_556
Sc15 Sc17 3.550578 1_555
Sc15 Sc16 3.550582 1_555
Sc16 Tc4 2.695831 1_556
Sc16 Tc2 2.695831 1_565
Sc16 Sc5 2.945349 1_555
Sc16 Sc9 3.101256 1_555
Sc16 Sc3 3.130867 1_565
Sc16 Sc7 3.248101 1_565
Sc16 Sc6 3.248101 1_556
Sc16 Sc17 3.591916 1_555
Sc17 Tc5 2.695835 1_656
Sc17 Tc1 2.695835 1_665
Sc17 Sc5 2.945368 1_655
Sc17 Sc8 3.101254 1_655
Sc17 Sc4 3.130873 1_565
Sc17 Sc6 3.248101 1_556
Sc17 Sc7 3.248101 1_565
Sc18 Tc2 2.755190 1_555
Sc18 Tc1 2.755198 1_555
Sc18 Tc3 2.808989 1_555
Sc18 Sc5 2.987083 1_545
Sc18 Sc3 3.036210 1_555
Sc18 Sc4 3.036216 1_455
Sc18 Sc21 3.550578 1_555
Sc18 Sc20 3.550583 1_555
Sc19 Tc4 2.755190 1_555
Sc19 Tc5 2.755198 1_555
Sc19 Tc3 2.808989 1_555
Sc19 Sc5 2.987083 1_554
Sc19 Sc21 3.550578 1_555
Sc19 Sc20 3.550582 1_555
Sc20 Tc4 2.695831 1_555
Sc20 Tc2 2.695831 1_555
Sc20 Sc4 3.130867 1_554
Sc20 Sc21 3.591916 1_555
Sc21 Tc5 2.695835 1_555
Sc21 Tc1 2.695835 1_555
Sc21 Sc3 3.130873 1_554
Hg0 Sc17 2.928824 1_544
Hg0 Sc21 2.928824 1_555
Hg0 Sc20 2.928835 1_555
Hg0 Sc16 2.928835 1_544
Hg0 Sc10 3.137984 1_554
Hg0 Sc6 3.137984 1_545
Hg0 Sc11 3.137984 1_545
Hg0 Sc7 3.137984 1_554
Hg0 Sc4 3.379947 1_554
Hg0 Sc1 3.379947 1_545
Hg0 Sc0 3.379948 1_545
Hg0 Sc3 3.379948 1_554
Ir0 Sc11 2.724916 1_555
Ir0 Sc7 2.724916 1_555
Ir0 Sc10 2.724916 1_555
Ir0 Sc6 2.724916 1_555
Ir0 Sc9 2.735443 1_555
Ir0 Sc13 2.735443 1_555
Ir0 Sc12 2.735466 1_555
Ir0 Sc8 2.735466 1_555
