# generated using pymatgen
data_LiCa2IO6
_symmetry_space_group_name_H-M   'P 1'
_cell_length_a   5.43257028
_cell_length_b   5.60246451
_cell_length_c   7.67027196
_cell_angle_alpha   90.00000000
_cell_angle_beta   90.57015726
_cell_angle_gamma   90.00000000
_symmetry_Int_Tables_number   1
_chemical_formula_structural   LiCa2IO6
_chemical_formula_sum   'Li2 Ca4 I2 O12'
_cell_volume   233.43916848
_cell_formula_units_Z   2
loop_
 _symmetry_equiv_pos_site_id
 _symmetry_equiv_pos_as_xyz
  1  'x, y, z'
loop_
 _atom_site_type_symbol
 _atom_site_label
 _atom_site_symmetry_multiplicity
 _atom_site_fract_x
 _atom_site_fract_y
 _atom_site_fract_z
 _atom_site_occupancy
  Li  Li0  1  0.50000000  0.50000000  0.00000000  1
  Li  Li1  1  0.00000000  0.00000000  0.50000000  1
  Ca  Ca0  1  0.48680315  0.94592804  0.75229596  1
  Ca  Ca1  1  0.01319685  0.44592804  0.74770404  1
  Ca  Ca2  1  0.51319685  0.05407196  0.24770404  1
  Ca  Ca3  1  0.98680315  0.55407196  0.25229596  1
  I  I0  1  0.50000000  0.50000000  0.50000000  1
  I  I1  1  0.00000000  0.00000000  0.00000000  1
  O  O0  1  0.31642522  0.22460954  0.54944581  1
  O  O1  1  0.18357478  0.72460954  0.95055419  1
  O  O2  1  0.68357478  0.77539046  0.45055419  1
  O  O3  1  0.81642522  0.27539046  0.04944581  1
  O  O4  1  0.58825193  0.52978919  0.73560344  1
  O  O5  1  0.91174807  0.02978919  0.76439656  1
  O  O6  1  0.41174807  0.47021081  0.26439656  1
  O  O7  1  0.08825193  0.97021081  0.23560344  1
  O  O8  1  0.22062674  0.68814548  0.54125937  1
  O  O9  1  0.27937326  0.18814548  0.95874063  1
  O  O10  1  0.77937326  0.31185452  0.45874063  1
  O  O11  1  0.72062674  0.81185452  0.04125937  1
loop_
_geom_bond_atom_site_label_1
_geom_bond_atom_site_label_2
_geom_bond_distance
_geom_bond_site_symmetry_2
Li0 O6 2.095190 1_555
Li0 O4 2.095190 1_554
Li0 O11 2.140496 1_555
Li0 O9 2.140496 1_554
Li0 O3 2.160861 1_555
Li0 O1 2.160861 1_554
Li1 O7 2.095190 1_545
Li1 O5 2.095190 1_455
Li1 O10 2.140496 1_455
Li1 O8 2.140496 1_545
Li1 O0 2.160861 1_555
Li1 O2 2.160861 1_445
Ca0 O5 2.356790 1_565
Ca0 O9 2.377874 1_565
Ca0 O0 2.384659 1_565
Ca0 O4 2.399371 1_555
Ca0 O1 2.571657 1_555
Ca0 O8 2.598149 1_555
Ca0 O11 2.652226 1_556
Ca0 O2 2.731563 1_555
Ca1 O4 2.356790 1_455
Ca1 O8 2.377874 1_555
Ca1 O1 2.384659 1_555
Ca1 O5 2.399371 1_455
Ca1 O0 2.571657 1_555
Ca1 O9 2.598149 1_555
Ca1 O10 2.652226 1_455
Ca1 O3 2.731563 1_456
Ca2 O7 2.356790 1_545
Ca2 O11 2.377874 1_545
Ca2 O2 2.384659 1_545
Ca2 O6 2.399371 1_555
Ca2 O3 2.571657 1_555
Ca2 O10 2.598149 1_555
Ca2 O9 2.652226 1_554
Ca2 O0 2.731563 1_555
Ca3 O6 2.356790 1_655
Ca3 O10 2.377874 1_555
Ca3 O3 2.384659 1_555
Ca3 O7 2.399371 1_655
Ca3 O2 2.571657 1_555
Ca3 O11 2.598149 1_555
Ca3 O8 2.652226 1_655
Ca3 O1 2.731563 1_654
I0 O4 1.872493 1_555
I0 O6 1.872493 1_555
I0 O10 1.877299 1_555
I0 O8 1.877299 1_555
I0 O2 1.877864 1_555
I0 O0 1.877864 1_555
I1 O7 1.872493 1_545
I1 O5 1.872493 1_454
I1 O9 1.877299 1_554
I1 O11 1.877299 1_445
I1 O3 1.877864 1_455
I1 O1 1.877864 1_544
