# generated using pymatgen
data_Y2CoSi5Rh2
_symmetry_space_group_name_H-M   'P 1'
_cell_length_a   8.04455512
_cell_length_b   8.01896356
_cell_length_c   8.01475325
_cell_angle_alpha   138.40455438
_cell_angle_beta   105.73418908
_cell_angle_gamma   88.94888830
_symmetry_Int_Tables_number   1
_chemical_formula_structural   Y2CoSi5Rh2
_chemical_formula_sum   'Y4 Co2 Si10 Rh4'
_cell_volume   316.30998429
_cell_formula_units_Z   2
loop_
 _symmetry_equiv_pos_site_id
 _symmetry_equiv_pos_as_xyz
  1  'x, y, z'
loop_
 _atom_site_type_symbol
 _atom_site_label
 _atom_site_symmetry_multiplicity
 _atom_site_fract_x
 _atom_site_fract_y
 _atom_site_fract_z
 _atom_site_occupancy
  Y  Y0  1  0.86562365  0.62538257  0.22621361  1
  Y  Y1  1  0.13586981  0.36387655  0.76346791  1
  Y  Y2  1  0.60210521  0.87181279  0.73881286  1
  Y  Y3  1  0.39803859  0.13942169  0.27165853  1
  Co  Co0  1  0.00471716  0.75253142  0.75343293  1
  Co  Co1  1  0.24126719  0.85480344  0.38005755  1
  Si  Si0  1  0.05702182  0.88544348  0.14714639  1
  Si  Si1  1  0.95262922  0.09089852  0.83448769  1
  Si  Si2  1  0.26011617  0.61687035  0.66875751  1
  Si  Si3  1  0.74873894  0.41350425  0.36142879  1
  Si  Si4  1  0.22604554  0.96805951  0.73452483  1
  Si  Si5  1  0.78044014  0.52972828  0.75107482  1
  Si  Si6  1  0.78354091  0.03319522  0.25036760  1
  Si  Si7  1  0.48355331  0.22165273  0.72804459  1
  Si  Si8  1  0.48133303  0.75536038  0.26232064  1
  Si  Si9  1  0.22447706  0.48956760  0.25835858  1
  Rh  Rh0  1  0.00449825  0.25168994  0.25138034  1
  Rh  Rh1  1  0.74407312  0.12962082  0.59752673  1
  Rh  Rh2  1  0.53328804  0.64303775  0.90558945  1
  Rh  Rh3  1  0.47262484  0.36354273  0.11534865  1
loop_
_geom_bond_atom_site_label_1
_geom_bond_atom_site_label_2
_geom_bond_distance
_geom_bond_site_symmetry_2
Co0 Si3 2.328842 1_455
Co0 Si1 2.330099 1_465
Co0 Si2 2.331361 1_555
Co0 Si0 2.352934 1_556
Co0 Si5 2.548904 1_455
Co0 Si4 2.613647 1_555
Co0 Rh0 2.838955 1_566
Co0 Rh0 2.854163 1_555
Co0 Y3 3.293489 1_566
Co0 Y1 3.322821 1_555
Co0 Y0 3.343693 1_455
Co0 Y2 3.356612 1_455
Co1 Si0 2.216741 1_555
Co1 Si8 2.249962 1_555
Co1 Si9 2.284255 1_555
Co1 Si7 2.285160 1_565
Co1 Si4 2.288310 1_555
Co1 Y0 2.971022 1_455
Co1 Y1 3.057748 1_565
Co1 Y1 3.064309 1_554
Co1 Y3 3.349634 1_565
Si0 Si5 2.454136 1_454
Si0 Si6 2.520665 1_465
Si0 Y3 2.889625 1_565
Si0 Y1 3.012475 1_554
Si0 Y1 3.092939 1_565
Si0 Y0 3.121680 1_455
Si1 Si4 2.479091 1_645
Si1 Si9 2.554763 1_656
Si1 Y2 2.935969 1_545
Si1 Y0 3.036015 1_545
Si1 Y0 3.109966 1_556
Si1 Y1 3.118612 1_655
Si2 Si4 2.472563 1_555
Si2 Si9 2.533869 1_555
Si2 Y1 2.912090 1_555
Si2 Y3 3.019412 1_566
Si2 Y3 3.090736 1_555
Si2 Y2 3.116931 1_555
Si3 Si5 2.430995 1_555
Si3 Si6 2.492964 1_555
Si3 Y0 2.882812 1_555
Si3 Y2 3.032560 1_555
Si3 Y2 3.120243 1_544
Si3 Y3 3.173167 1_555
Si4 Y1 3.091944 1_565
Si4 Y2 3.105883 1_555
Si4 Y0 3.113958 1_455
Si4 Y3 3.213534 1_566
Si5 Y2 3.126520 1_555
Si5 Y0 3.129657 1_556
Si5 Y1 3.139768 1_655
Si5 Y3 3.158858 1_555
Si6 Y2 3.082650 1_544
Si6 Y1 3.101684 1_655
Si6 Y0 3.195487 1_545
Si6 Y3 3.216335 1_555
Si7 Si8 2.646733 1_545
Si7 Y2 3.001055 1_545
Si7 Y1 3.005600 1_555
Si7 Y3 3.054835 1_555
Si7 Y0 3.200846 1_556
Si8 Y1 3.014069 1_554
Si8 Y2 3.014531 1_555
Si8 Y3 3.089714 1_565
Si8 Y0 3.262360 1_555
Si9 Y0 3.080125 1_455
Si9 Y1 3.125695 1_554
Si9 Y2 3.129729 1_555
Si9 Y3 3.172964 1_555
Rh0 Si1 2.412604 1_454
Rh0 Si2 2.415058 1_555
Rh0 Si3 2.422664 1_455
Rh0 Si0 2.445013 1_545
Rh0 Si6 2.512889 1_455
Rh0 Si9 2.585344 1_555
Rh0 Y3 3.270288 1_555
Rh0 Y0 3.305689 1_455
Rh0 Y1 3.306210 1_555
Rh1 Si1 2.377594 1_555
Rh1 Si6 2.385920 1_555
Rh1 Si8 2.405315 1_545
Rh1 Si5 2.414053 1_555
Rh1 Si7 2.451268 1_555
Rh1 Y1 3.072226 1_655
Rh1 Y0 3.097933 1_545
Rh1 Y0 3.107901 1_556
Rh1 Y3 3.306405 1_555
Rh2 Si2 2.373838 1_555
Rh2 Si6 2.400045 1_566
Rh2 Si5 2.428654 1_555
Rh2 Si8 2.437826 1_556
Rh2 Si7 2.480331 1_555
Rh2 Y2 3.092738 1_555
Rh2 Y3 3.121040 1_566
Rh2 Y3 3.127436 1_555
Rh2 Y0 3.251974 1_556
Rh2 Y1 3.317154 1_555
Rh3 Si3 2.336452 1_555
Rh3 Si8 2.385807 1_555
Rh3 Si9 2.398836 1_555
Rh3 Si4 2.403659 1_544
Rh3 Si7 2.408254 1_554
Rh3 Y3 2.995720 1_555
Rh3 Y2 3.081622 1_544
Rh3 Y2 3.088213 1_555
Rh3 Y0 3.335082 1_555
Rh3 Y1 3.340668 1_554
