# generated using pymatgen
data_Sr2Li2Si2As
_symmetry_space_group_name_H-M   'P 1'
_cell_length_a   9.94831218
_cell_length_b   9.94831309
_cell_length_c   7.06230067
_cell_angle_alpha   90.00000000
_cell_angle_beta   90.00000000
_cell_angle_gamma   153.63823609
_symmetry_Int_Tables_number   1
_chemical_formula_structural   Sr2Li2Si2As
_chemical_formula_sum   'Sr4 Li4 Si4 As2'
_cell_volume   310.35913754
_cell_formula_units_Z   2
loop_
 _symmetry_equiv_pos_site_id
 _symmetry_equiv_pos_as_xyz
  1  'x, y, z'
loop_
 _atom_site_type_symbol
 _atom_site_label
 _atom_site_symmetry_multiplicity
 _atom_site_fract_x
 _atom_site_fract_y
 _atom_site_fract_z
 _atom_site_occupancy
  Sr  Sr0  1  0.55846001  0.44153999  0.75000000  1
  Sr  Sr1  1  0.44153999  0.55846001  0.25000000  1
  Sr  Sr2  1  0.34102121  0.65897879  0.75000000  1
  Sr  Sr3  1  0.65897879  0.34102121  0.25000000  1
  Li  Li0  1  0.80792008  0.19207992  0.44405111  1
  Li  Li1  1  0.19207992  0.80792008  0.55594889  1
  Li  Li2  1  0.80792008  0.19207992  0.05594889  1
  Li  Li3  1  0.19207992  0.80792008  0.94405111  1
  Si  Si0  1  0.94698612  0.05301388  0.91689296  1
  Si  Si1  1  0.05301388  0.94698612  0.08310704  1
  Si  Si2  1  0.94698612  0.05301388  0.58310704  1
  Si  Si3  1  0.05301388  0.94698612  0.41689296  1
  As  As0  1  0.72160581  0.27839419  0.75000000  1
  As  As1  1  0.27839419  0.72160581  0.25000000  1
loop_
_geom_bond_atom_site_label_1
_geom_bond_atom_site_label_2
_geom_bond_distance
_geom_bond_site_symmetry_2
Li0 Si2 2.867462 1_555
Li1 Si3 2.867462 1_555
Li2 Si0 2.867462 1_554
Li3 Si1 2.867462 1_556
Si0 Si2 2.357297 1_555
Si0 Si1 2.365781 1_646
Si0 Sr1 3.269766 1_546
Si0 Sr1 3.269766 1_656
Si0 Sr2 3.278593 1_545
Si0 Sr2 3.278593 1_655
Si0 Sr0 3.346449 1_655
Si0 Sr0 3.346450 1_545
Si1 Si3 2.357297 1_555
Si1 Sr0 3.269766 1_564
Si1 Sr0 3.269766 1_454
Si1 Sr3 3.278593 1_565
Si1 Sr3 3.278593 1_455
Si1 Sr1 3.346449 1_455
Si1 Sr1 3.346450 1_565
Si2 Si3 2.365781 1_645
Si2 Sr1 3.269766 1_545
Si2 Sr1 3.269766 1_655
Si2 Sr2 3.278593 1_545
Si2 Sr2 3.278593 1_655
Si2 Sr0 3.346449 1_655
Si2 Sr0 3.346450 1_545
Si3 Sr0 3.269766 1_565
Si3 Sr0 3.269766 1_455
Si3 Sr3 3.278593 1_565
Si3 Sr3 3.278593 1_455
Si3 Sr1 3.346449 1_455
Si3 Sr1 3.346450 1_565
As0 Li3 2.711323 1_545
As0 Li1 2.711323 1_545
As0 Li3 2.711323 1_655
As0 Li1 2.711323 1_655
As0 Li2 2.732146 1_556
As0 Li0 2.732146 1_555
As0 Sr0 3.160534 1_555
As0 Sr2 3.240007 1_655
As0 Sr2 3.240008 1_545
As1 Li0 2.711323 1_565
As1 Li2 2.711323 1_565
As1 Li0 2.711323 1_455
As1 Li2 2.711323 1_455
As1 Li1 2.732146 1_555
As1 Li3 2.732146 1_554
As1 Sr1 3.160534 1_555
As1 Sr3 3.240007 1_455
As1 Sr3 3.240008 1_565
