# generated using pymatgen
data_Rb3GaSe3
_symmetry_space_group_name_H-M   'P 1'
_cell_length_a   10.71151983
_cell_length_b   10.71151433
_cell_length_c   13.60695993
_cell_angle_alpha   90.00000000
_cell_angle_beta   90.00000000
_cell_angle_gamma   140.83491626
_symmetry_Int_Tables_number   1
_chemical_formula_structural   Rb3GaSe3
_chemical_formula_sum   'Rb12 Ga4 Se12'
_cell_volume   985.99697145
_cell_formula_units_Z   4
loop_
 _symmetry_equiv_pos_site_id
 _symmetry_equiv_pos_as_xyz
  1  'x, y, z'
loop_
 _atom_site_type_symbol
 _atom_site_label
 _atom_site_symmetry_multiplicity
 _atom_site_fract_x
 _atom_site_fract_y
 _atom_site_fract_z
 _atom_site_occupancy
  Rb  Rb0  1  0.84703668  0.84703468  0.33576686  1
  Rb  Rb1  1  0.15296332  0.15296532  0.66423314  1
  Rb  Rb2  1  0.65296332  0.65296532  0.83576686  1
  Rb  Rb3  1  0.34703668  0.34703468  0.16423314  1
  Rb  Rb4  1  0.84027166  0.48555309  0.12801325  1
  Rb  Rb5  1  0.51444991  0.15973434  0.87198475  1
  Rb  Rb6  1  0.01444991  0.65973434  0.62801525  1
  Rb  Rb7  1  0.34027166  0.98555309  0.37198675  1
  Rb  Rb8  1  0.15972834  0.51444691  0.87198675  1
  Rb  Rb9  1  0.48555009  0.84026566  0.12801525  1
  Rb  Rb10  1  0.98555009  0.34026566  0.37198475  1
  Rb  Rb11  1  0.65972834  0.01444691  0.62801325  1
  Ga  Ga0  1  0.08430065  0.91570035  0.00000000  1
  Ga  Ga1  1  0.58430065  0.41570035  0.50000000  1
  Ga  Ga2  1  0.91569935  0.08429965  0.00000000  1
  Ga  Ga3  1  0.41569935  0.58429965  0.50000000  1
  Se  Se0  1  0.01409819  0.31589432  0.11619434  1
  Se  Se1  1  0.68410468  0.98590181  0.88380566  1
  Se  Se2  1  0.18410468  0.48590181  0.61619434  1
  Se  Se3  1  0.51409819  0.81589432  0.38380566  1
  Se  Se4  1  0.98590181  0.68410568  0.88380566  1
  Se  Se5  1  0.31589532  0.01409819  0.11619434  1
  Se  Se6  1  0.81589532  0.51409819  0.38380566  1
  Se  Se7  1  0.48590181  0.18410568  0.61619434  1
  Se  Se8  1  0.80141802  0.80141902  0.08217463  1
  Se  Se9  1  0.19858198  0.19858098  0.91782537  1
  Se  Se10  1  0.69858198  0.69858098  0.58217463  1
  Se  Se11  1  0.30141802  0.30141902  0.41782537  1
loop_
_geom_bond_atom_site_label_1
_geom_bond_atom_site_label_2
_geom_bond_distance
_geom_bond_site_symmetry_2
Rb0 Se6 3.378172 1_555
Rb0 Se3 3.378203 1_555
Rb0 Se11 3.448353 1_665
Rb0 Se8 3.466130 1_555
Rb0 Se10 3.518224 1_555
Rb1 Se2 3.378172 1_555
Rb1 Se7 3.378203 1_555
Rb1 Se10 3.448353 1_445
Rb1 Se9 3.466130 1_555
Rb1 Se11 3.518224 1_555
Rb2 Se1 3.378172 1_555
Rb2 Se4 3.378203 1_555
Rb2 Se9 3.448353 1_555
Rb2 Se10 3.466130 1_555
Rb2 Se8 3.518224 1_556
Rb3 Se5 3.378172 1_555
Rb3 Se0 3.378203 1_555
Rb3 Se8 3.448353 1_555
Rb3 Se11 3.466130 1_555
Rb3 Se9 3.518224 1_554
Rb4 Se0 3.470200 1_655
Rb4 Se6 3.521327 1_555
Rb4 Se4 3.585236 1_554
Rb4 Se5 3.618402 1_555
Rb4 Se5 3.647979 1_665
Rb4 Se8 3.767380 1_555
Rb5 Se1 3.470222 1_545
Rb5 Se7 3.521297 1_555
Rb5 Se5 3.585266 1_556
Rb5 Se4 3.618371 1_555
Rb5 Se4 3.648007 1_445
Rb5 Se9 3.767346 1_555
Rb6 Se2 3.470222 1_555
Rb6 Se4 3.521297 1_455
Rb6 Se6 3.585266 1_455
Rb6 Se7 3.618371 1_565
Rb6 Se7 3.648007 1_455
Rb6 Se10 3.767346 1_455
Rb7 Se3 3.470200 1_555
Rb7 Se5 3.521327 1_565
Rb7 Se7 3.585236 1_565
Rb7 Se6 3.618402 1_455
Rb7 Se6 3.647979 1_565
Rb7 Se11 3.767380 1_565
Rb8 Se4 3.470200 1_455
Rb8 Se2 3.521327 1_555
Rb8 Se0 3.585236 1_556
Rb8 Se1 3.618402 1_555
Rb8 Se1 3.647979 1_445
Rb8 Se9 3.767380 1_555
Rb9 Se5 3.470222 1_565
Rb9 Se3 3.521297 1_555
Rb9 Se1 3.585266 1_554
Rb9 Se0 3.618371 1_555
Rb9 Se0 3.648007 1_665
Rb9 Se8 3.767346 1_555
Rb10 Se6 3.470222 1_555
Rb10 Se0 3.521297 1_655
Rb10 Se2 3.585266 1_655
Rb10 Se3 3.618371 1_545
Rb10 Se3 3.648007 1_655
Rb10 Se11 3.767346 1_655
Rb11 Se7 3.470200 1_555
Rb11 Se1 3.521327 1_545
Rb11 Se3 3.585236 1_545
Rb11 Se2 3.618402 1_655
Rb11 Se2 3.647979 1_545
Rb11 Se10 3.767380 1_545
Ga0 Se4 2.389596 1_454
Ga0 Se5 2.389600 1_565
Ga0 Se9 2.485642 1_564
Ga0 Se8 2.485662 1_455
Ga0 Rb4 3.524247 1_455
Ga0 Rb5 3.524264 1_564
Ga1 Se7 2.389596 1_555
Ga1 Se6 2.389600 1_555
Ga1 Se10 2.485642 1_555
Ga1 Se11 2.485662 1_555
Ga1 Rb7 3.524247 1_545
Ga1 Rb6 3.524264 1_655
Ga2 Se0 2.389596 1_655
Ga2 Se1 2.389600 1_544
Ga2 Se8 2.485642 1_545
Ga2 Se9 2.485662 1_654
Ga2 Rb8 3.524247 1_654
Ga2 Rb9 3.524264 1_545
Ga3 Se3 2.389596 1_555
Ga3 Se2 2.389600 1_555
Ga3 Se11 2.485642 1_555
Ga3 Se10 2.485662 1_555
Ga3 Rb11 3.524247 1_565
Ga3 Rb10 3.524264 1_455
