# generated using pymatgen
data_Y6PtBr10
_symmetry_space_group_name_H-M   'P 1'
_cell_length_a   7.30517153
_cell_length_b   9.15275952
_cell_length_c   9.17974383
_cell_angle_alpha   108.14793419
_cell_angle_beta   96.85211041
_cell_angle_gamma   105.46985675
_symmetry_Int_Tables_number   1
_chemical_formula_structural   Y6PtBr10
_chemical_formula_sum   'Y6 Pt1 Br10'
_cell_volume   548.22028422
_cell_formula_units_Z   1
loop_
 _symmetry_equiv_pos_site_id
 _symmetry_equiv_pos_as_xyz
  1  'x, y, z'
loop_
 _atom_site_type_symbol
 _atom_site_label
 _atom_site_symmetry_multiplicity
 _atom_site_fract_x
 _atom_site_fract_y
 _atom_site_fract_z
 _atom_site_occupancy
  Y  Y0  1  0.36557142  0.13943366  0.18143339  1
  Y  Y1  1  0.63442858  0.86056634  0.81856661  1
  Y  Y2  1  0.87305380  0.95349642  0.25079655  1
  Y  Y3  1  0.12694620  0.04650358  0.74920345  1
  Y  Y4  1  0.02976615  0.69697507  0.90397234  1
  Y  Y5  1  0.97023385  0.30302493  0.09602766  1
  Pt  Pt0  1  0.00000000  0.00000000  0.00000000  1
  Br  Br0  1  0.91093894  0.62719451  0.17516708  1
  Br  Br1  1  0.08906106  0.37280549  0.82483292  1
  Br  Br2  1  0.25625779  0.08348566  0.46067846  1
  Br  Br3  1  0.74374221  0.91651434  0.53932154  1
  Br  Br4  1  0.45126261  0.82042479  0.08680286  1
  Br  Br5  1  0.54873739  0.17957521  0.91319714  1
  Br  Br6  1  0.35464476  0.45946921  0.27707403  1
  Br  Br7  1  0.64535524  0.54053079  0.72292597  1
  Br  Br8  1  0.78539923  0.26021015  0.35312035  1
  Br  Br9  1  0.21460077  0.73978985  0.64687965  1
loop_
_geom_bond_atom_site_label_1
_geom_bond_atom_site_label_2
_geom_bond_distance
_geom_bond_site_symmetry_2
Pt0 Y2 2.692736 1_445
Pt0 Y3 2.692736 1_554
Pt0 Y0 2.707579 1_555
Pt0 Y1 2.707579 1_444
Pt0 Y5 2.713147 1_455
Pt0 Y4 2.713147 1_544
Br0 Y4 2.927355 1_654
Br0 Y2 2.945045 1_555
Br0 Y5 2.989432 1_555
Br1 Y5 2.927355 1_456
Br1 Y3 2.945045 1_555
Br1 Y4 2.989432 1_555
Br2 Y2 2.910737 1_445
Br2 Y0 2.925566 1_555
Br2 Y3 3.001139 1_555
Br3 Y3 2.910737 1_665
Br3 Y1 2.925566 1_555
Br3 Y2 3.001139 1_555
Br4 Y2 2.998805 1_555
Br4 Y1 3.012638 1_554
Br4 Y0 3.032581 1_565
Br4 Y4 3.050244 1_554
Br5 Y3 2.998805 1_555
Br5 Y0 3.012638 1_556
Br5 Y1 3.032581 1_545
Br5 Y5 3.050244 1_556
Br6 Y0 2.810135 1_555
Br6 Y5 2.820850 1_455
Br7 Y1 2.810135 1_555
Br7 Y4 2.820850 1_655
Br8 Y5 2.932709 1_555
Br8 Y2 2.938189 1_545
Br8 Y0 3.010749 1_555
Br9 Y4 2.932709 1_555
Br9 Y3 2.938189 1_565
Br9 Y1 3.010749 1_555
