# generated using pymatgen
data_CaAs12PdRu3
_symmetry_space_group_name_H-M   'P 1'
_cell_length_a   7.41167838
_cell_length_b   7.41167715
_cell_length_c   7.41167814
_cell_angle_alpha   109.42579148
_cell_angle_beta   109.42578473
_cell_angle_gamma   109.42578968
_symmetry_Int_Tables_number   1
_chemical_formula_structural   CaAs12PdRu3
_chemical_formula_sum   'Ca1 As12 Pd1 Ru3'
_cell_volume   313.94682151
_cell_formula_units_Z   1
loop_
 _symmetry_equiv_pos_site_id
 _symmetry_equiv_pos_as_xyz
  1  'x, y, z'
loop_
 _atom_site_type_symbol
 _atom_site_label
 _atom_site_symmetry_multiplicity
 _atom_site_fract_x
 _atom_site_fract_y
 _atom_site_fract_z
 _atom_site_occupancy
  Ca  Ca0  1  0.00000000  0.00000000  0.00000000  1
  As  As0  1  0.85885491  0.65320043  0.50224381  1
  As  As1  1  0.14114509  0.34679957  0.49775619  1
  As  As2  1  0.14960444  0.65373763  0.80264831  1
  As  As3  1  0.85039556  0.34626237  0.19735169  1
  As  As4  1  0.65320043  0.50224381  0.85885491  1
  As  As5  1  0.34679957  0.49775619  0.14114509  1
  As  As6  1  0.65373763  0.80264831  0.14960444  1
  As  As7  1  0.34626237  0.19735169  0.85039556  1
  As  As8  1  0.50224381  0.85885491  0.65320043  1
  As  As9  1  0.49775619  0.14114509  0.34679957  1
  As  As10  1  0.19735169  0.85039556  0.34626237  1
  As  As11  1  0.80264831  0.14960444  0.65373763  1
  Pd  Pd0  1  0.50000000  0.50000000  0.50000000  1
  Ru  Ru0  1  0.50000000  0.00000000  0.00000000  1
  Ru  Ru1  1  0.00000000  0.50000000  0.00000000  1
  Ru  Ru2  1  0.00000000  0.00000000  0.50000000  1
loop_
_geom_bond_atom_site_label_1
_geom_bond_atom_site_label_2
_geom_bond_distance
_geom_bond_site_symmetry_2
As0 Ru2 2.439846 1_665
As0 Pd0 2.512538 1_555
As0 As2 2.529430 1_655
As0 As3 2.584012 1_555
As0 Ca0 3.263146 1_666
As1 Ru2 2.439846 1_555
As1 Pd0 2.512538 1_555
As1 As3 2.529430 1_455
As1 As2 2.584012 1_555
As1 Ca0 3.263146 1_555
As2 Ru0 2.452199 1_566
As2 Ru1 2.452427 1_556
As2 Ca0 3.229557 1_566
As3 Ru0 2.452199 1_555
As3 Ru1 2.452427 1_655
As3 Ca0 3.229557 1_655
As4 Ru1 2.439846 1_656
As4 Pd0 2.512538 1_555
As4 As6 2.529430 1_556
As4 As7 2.584012 1_555
As4 Ca0 3.263146 1_666
As5 Ru1 2.439846 1_555
As5 Pd0 2.512538 1_555
As5 As7 2.529430 1_554
As5 As6 2.584012 1_555
As5 Ca0 3.263146 1_555
As6 Ru2 2.452199 1_665
As6 Ru0 2.452427 1_565
As6 Ca0 3.229557 1_665
As7 Ru2 2.452199 1_555
As7 Ru0 2.452427 1_556
As7 Ca0 3.229557 1_556
As8 Ru0 2.439846 1_566
As8 Pd0 2.512537 1_555
As8 Ca0 3.263147 1_666
As9 Ru0 2.439846 1_555
As9 Pd0 2.512537 1_555
As9 Ca0 3.263147 1_555
As10 Ru1 2.452199 1_555
As10 Ru2 2.452427 1_565
As10 As9 2.529430 1_565
As10 As8 2.584012 1_555
As10 Ca0 3.229557 1_565
As11 Ru1 2.452199 1_656
As11 Ru2 2.452427 1_655
As11 As8 2.529430 1_545
As11 As9 2.584012 1_555
As11 Ca0 3.229557 1_656
