# generated using pymatgen
data_K10TaInP6
_symmetry_space_group_name_H-M   'P 1'
_cell_length_a   8.14532512
_cell_length_b   8.88967644
_cell_length_c   17.18341271
_cell_angle_alpha   60.08174350
_cell_angle_beta   90.00000000
_cell_angle_gamma   90.00000000
_symmetry_Int_Tables_number   1
_chemical_formula_structural   K10TaInP6
_chemical_formula_sum   'K20 Ta2 In2 P12'
_cell_volume   1078.42903253
_cell_formula_units_Z   2
loop_
 _symmetry_equiv_pos_site_id
 _symmetry_equiv_pos_as_xyz
  1  'x, y, z'
loop_
 _atom_site_type_symbol
 _atom_site_label
 _atom_site_symmetry_multiplicity
 _atom_site_fract_x
 _atom_site_fract_y
 _atom_site_fract_z
 _atom_site_occupancy
  K  K0  1  0.74470436  0.91240493  0.41122274  1
  K  K1  1  0.25529564  0.91240493  0.91122274  1
  K  K2  1  0.76616624  0.08572385  0.59170521  1
  K  K3  1  0.23383376  0.08572385  0.09170521  1
  K  K4  1  0.57087753  0.16051418  0.75395906  1
  K  K5  1  0.42912247  0.16051418  0.25395906  1
  K  K6  1  0.91600105  0.84075949  0.24082283  1
  K  K7  1  0.08399895  0.84075949  0.74082283  1
  K  K8  1  0.73659921  0.54164143  0.75523938  1
  K  K9  1  0.26340079  0.54164143  0.25523938  1
  K  K10  1  0.77584019  0.45661497  0.24096956  1
  K  K11  1  0.22415981  0.45661497  0.74096956  1
  K  K12  1  0.08753945  0.16114040  0.41825343  1
  K  K13  1  0.91246055  0.16114040  0.91825343  1
  K  K14  1  0.41868321  0.83993309  0.58251264  1
  K  K15  1  0.58131679  0.83993309  0.08251264  1
  K  K16  1  0.24268791  0.27807362  0.57047231  1
  K  K17  1  0.75731209  0.27807362  0.07047231  1
  K  K18  1  0.21823190  0.74142224  0.42063534  1
  K  K19  1  0.78176810  0.74142224  0.92063534  1
  Ta  Ta0  1  0.61939375  0.50310236  0.42460200  1
  Ta  Ta1  1  0.38060625  0.50310236  0.92460200  1
  In  In0  1  0.88002665  0.49213322  0.58345720  1
  In  In1  1  0.11997335  0.49213322  0.08345720  1
  P  P0  1  0.91771043  0.48321565  0.42947170  1
  P  P1  1  0.08228957  0.48321565  0.92947170  1
  P  P2  1  0.54904083  0.51608922  0.55876060  1
  P  P3  1  0.45095917  0.51608922  0.05876060  1
  P  P4  1  0.96094999  0.19937291  0.72427104  1
  P  P5  1  0.03905001  0.19937291  0.22427104  1
  P  P6  1  0.53538610  0.76333703  0.29225089  1
  P  P7  1  0.46461390  0.76333703  0.79225089  1
  P  P8  1  0.99903432  0.76968044  0.57734190  1
  P  P9  1  0.00096568  0.76968044  0.07734190  1
  P  P10  1  0.50056307  0.25484299  0.42405216  1
  P  P11  1  0.49943693  0.25484299  0.92405216  1
loop_
_geom_bond_atom_site_label_1
_geom_bond_atom_site_label_2
_geom_bond_distance
_geom_bond_site_symmetry_2
K0 P8 3.230588 1_555
K0 P6 3.397749 1_555
K0 P2 3.531274 1_555
K0 P10 3.733569 1_565
K1 P9 3.230588 1_556
K1 P7 3.397749 1_555
K1 P3 3.531274 1_556
K1 P11 3.733569 1_565
K2 P10 3.304476 1_555
K2 P4 3.320035 1_555
K2 P0 3.457595 1_555
K2 P8 3.499120 1_545
K3 P11 3.304476 1_554
K3 P5 3.320035 1_555
K3 P1 3.457595 1_554
K3 P9 3.499120 1_545
K4 P4 3.209176 1_555
K4 P2 3.270712 1_555
K4 P7 3.366163 1_545
K4 P11 3.468324 1_555
K5 P5 3.209176 1_555
K5 P3 3.270712 1_555
K5 P6 3.366163 1_545
K5 P10 3.468324 1_555
K6 P6 3.203025 1_555
K6 P0 3.214501 1_555
K6 P5 3.216217 1_665
K6 P9 3.246572 1_655
K7 P7 3.203025 1_555
K7 P1 3.214501 1_555
K7 P4 3.216217 1_465
K7 P8 3.246572 1_455
K8 P7 3.232162 1_555
K8 P11 3.356937 1_555
K8 P8 3.441206 1_555
K9 P6 3.232162 1_555
K9 P10 3.356937 1_555
K9 P9 3.441206 1_555
K10 P5 3.250040 1_655
K10 P9 3.347797 1_655
K10 P10 3.537390 1_555
K10 P0 3.556287 1_555
K11 P4 3.250040 1_455
K11 P8 3.347797 1_455
K11 P11 3.537390 1_555
K11 P1 3.556287 1_555
K12 P5 3.201900 1_555
K12 P8 3.257794 1_445
K12 P0 3.270913 1_455
K12 P10 3.479153 1_555
K13 P4 3.201900 1_555
K13 P9 3.257794 1_646
K13 P1 3.270913 1_655
K13 P11 3.479153 1_555
K14 P2 3.279324 1_555
K14 P7 3.338353 1_555
K14 P10 3.383049 1_565
K14 P8 3.483850 1_455
K15 P3 3.279324 1_555
K15 P6 3.338353 1_555
K15 P11 3.383049 1_564
K15 P9 3.483850 1_655
K16 P2 3.212388 1_555
K16 P4 3.300869 1_455
K16 P10 3.362023 1_555
K16 P0 3.434431 1_455
K17 P3 3.212388 1_555
K17 P5 3.300869 1_655
K17 P11 3.362023 1_554
K17 P1 3.434431 1_654
K18 P0 3.306973 1_455
K18 P6 3.339102 1_555
K18 P8 3.343138 1_455
K18 P2 3.487671 1_555
K19 P1 3.306973 1_655
K19 P7 3.339102 1_555
K19 P9 3.343138 1_656
K19 P3 3.487671 1_556
In0 P8 2.603778 1_555
In0 P4 2.603991 1_555
In0 P0 2.703893 1_555
In0 P2 2.720963 1_555
In0 K8 3.401117 1_555
In1 P9 2.603778 1_555
In1 P5 2.603991 1_555
In1 P1 2.703893 1_554
In1 P3 2.720963 1_555
In1 K9 3.401117 1_555
P0 Ta0 2.434717 1_555
P1 Ta1 2.434717 1_555
P2 Ta0 2.433438 1_555
P3 Ta1 2.433438 1_554
P6 Ta0 2.396665 1_555
P7 Ta1 2.396665 1_555
P10 Ta0 2.414199 1_555
P11 Ta1 2.414199 1_555
