# generated using pymatgen
data_YGeF7
_symmetry_space_group_name_H-M   'P 1'
_cell_length_a   5.31933855
_cell_length_b   8.61817155
_cell_length_c   11.55374040
_cell_angle_alpha   61.95752679
_cell_angle_beta   90.00000000
_cell_angle_gamma   90.00000000
_symmetry_Int_Tables_number   1
_chemical_formula_structural   YGeF7
_chemical_formula_sum   'Y4 Ge4 F28'
_cell_volume   467.47561995
_cell_formula_units_Z   4
loop_
 _symmetry_equiv_pos_site_id
 _symmetry_equiv_pos_as_xyz
  1  'x, y, z'
loop_
 _atom_site_type_symbol
 _atom_site_label
 _atom_site_symmetry_multiplicity
 _atom_site_fract_x
 _atom_site_fract_y
 _atom_site_fract_z
 _atom_site_occupancy
  Y  Y0  1  0.26063137  0.81090793  0.26390589  1
  Y  Y1  1  0.73936863  0.18909207  0.73609411  1
  Y  Y2  1  0.76063137  0.18909207  0.23609411  1
  Y  Y3  1  0.23936863  0.81090793  0.76390589  1
  Ge  Ge0  1  0.75686442  0.72543115  0.04300976  1
  Ge  Ge1  1  0.24313558  0.27456885  0.95699024  1
  Ge  Ge2  1  0.25686442  0.27456885  0.45699024  1
  Ge  Ge3  1  0.74313558  0.72543115  0.54300976  1
  F  F0  1  0.93444850  0.70751523  0.42139338  1
  F  F1  1  0.06555150  0.29248477  0.57860662  1
  F  F2  1  0.43444850  0.29248477  0.07860662  1
  F  F3  1  0.56555150  0.70751523  0.92139338  1
  F  F4  1  0.47911709  0.72749191  0.13153186  1
  F  F5  1  0.52088291  0.27250809  0.86846814  1
  F  F6  1  0.97911709  0.27250809  0.36846814  1
  F  F7  1  0.02088291  0.72749191  0.63153186  1
  F  F8  1  0.94529673  0.73904104  0.16871199  1
  F  F9  1  0.05470327  0.26095896  0.83128801  1
  F  F10  1  0.44529673  0.26095896  0.33128801  1
  F  F11  1  0.55470327  0.73904104  0.66871199  1
  F  F12  1  0.76912423  0.48975054  0.13695147  1
  F  F13  1  0.23087577  0.51024946  0.86304853  1
  F  F14  1  0.26912423  0.51024946  0.36304853  1
  F  F15  1  0.73087577  0.48975054  0.63695147  1
  F  F16  1  0.95733064  0.28277266  0.03930117  1
  F  F17  1  0.04266936  0.71722734  0.96069883  1
  F  F18  1  0.45733064  0.71722734  0.46069883  1
  F  F19  1  0.54266936  0.28277266  0.53930117  1
  F  F20  1  0.73870949  0.96140824  0.45250057  1
  F  F21  1  0.26129051  0.03859176  0.54749943  1
  F  F22  1  0.23870949  0.03859176  0.04749943  1
  F  F23  1  0.76129051  0.96140824  0.95250057  1
  F  F24  1  0.60724807  0.96387114  0.22592562  1
  F  F25  1  0.39275193  0.03612886  0.77407438  1
  F  F26  1  0.10724807  0.03612886  0.27407438  1
  F  F27  1  0.89275193  0.96387114  0.72592562  1
loop_
_geom_bond_atom_site_label_1
_geom_bond_atom_site_label_2
_geom_bond_distance
_geom_bond_site_symmetry_2
F0 Ge3 1.799398 1_555
F0 Y0 2.364496 1_655
F1 Ge2 1.799398 1_555
F1 Y1 2.364496 1_455
F2 Ge1 1.799398 1_554
F2 Y2 2.364496 1_555
F3 Ge0 1.799398 1_556
F3 Y3 2.364496 1_555
F4 Ge0 1.801733 1_555
F4 Y0 2.289197 1_555
F5 Ge1 1.801733 1_555
F5 Y1 2.289197 1_555
F6 Ge2 1.801733 1_655
F6 Y2 2.289197 1_555
F7 Ge3 1.801733 1_455
F7 Y3 2.289197 1_555
F8 Ge0 1.813248 1_555
F8 Y0 2.246630 1_655
F9 Ge1 1.813248 1_555
F9 Y1 2.246630 1_455
F10 Ge2 1.813248 1_555
F10 Y2 2.246630 1_555
F11 Ge3 1.813248 1_555
F11 Y3 2.246630 1_555
F12 Ge0 1.798605 1_555
F12 Y2 2.288527 1_555
F13 Ge1 1.798605 1_555
F13 Y3 2.288527 1_555
F14 Ge2 1.798605 1_555
F14 Y0 2.288527 1_555
F15 Ge3 1.798605 1_555
F15 Y1 2.288527 1_555
F16 Ge1 1.812156 1_654
F16 Y2 2.278217 1_555
F17 Ge0 1.812156 1_456
F17 Y3 2.278217 1_555
F18 Ge3 1.812156 1_555
F18 Y0 2.278217 1_555
F19 Ge2 1.812156 1_555
F19 Y1 2.278217 1_555
F20 Ge3 1.797325 1_555
F20 Y2 2.345721 1_565
F21 Ge2 1.797325 1_555
F21 Y3 2.345721 1_545
F22 Ge1 1.797325 1_554
F22 Y0 2.345721 1_545
F23 Ge0 1.797325 1_556
F23 Y1 2.345721 1_565
F24 Y2 2.159017 1_565
F24 Y0 2.187684 1_555
F25 Y3 2.159017 1_545
F25 Y1 2.187684 1_555
F26 Y0 2.159017 1_545
F26 Y2 2.187684 1_455
F27 Y1 2.159017 1_565
F27 Y3 2.187684 1_655
