# generated using pymatgen
data_Hf16Ir7PdO4
_symmetry_space_group_name_H-M   'P 1'
_cell_length_a   8.68601054
_cell_length_b   8.69939836
_cell_length_c   8.69939816
_cell_angle_alpha   60.00000076
_cell_angle_beta   59.94900157
_cell_angle_gamma   59.94899640
_symmetry_Int_Tables_number   1
_chemical_formula_structural   Hf16Ir7PdO4
_chemical_formula_sum   'Hf16 Ir7 Pd1 O4'
_cell_volume   464.46026373
_cell_formula_units_Z   1
loop_
 _symmetry_equiv_pos_site_id
 _symmetry_equiv_pos_as_xyz
  1  'x, y, z'
loop_
 _atom_site_type_symbol
 _atom_site_label
 _atom_site_symmetry_multiplicity
 _atom_site_fract_x
 _atom_site_fract_y
 _atom_site_fract_z
 _atom_site_occupancy
  Hf  Hf0  1  0.14568461  0.61810513  0.61810513  1
  Hf  Hf1  1  0.61929305  0.13558519  0.62256088  1
  Hf  Hf2  1  0.61929305  0.62256088  0.13558519  1
  Hf  Hf3  1  0.61929305  0.62256088  0.62256088  1
  Hf  Hf4  1  0.81538447  0.81640035  0.18410759  1
  Hf  Hf5  1  0.18489482  0.18504375  0.81503022  1
  Hf  Hf6  1  0.81538447  0.18410759  0.81640035  1
  Hf  Hf7  1  0.18489482  0.81503022  0.18504375  1
  Hf  Hf8  1  0.18489482  0.81503022  0.81503022  1
  Hf  Hf9  1  0.81538447  0.18410759  0.18410759  1
  Hf  Hf10  1  0.43643913  0.43735953  0.06310017  1
  Hf  Hf11  1  0.06446837  0.06002852  0.43775155  1
  Hf  Hf12  1  0.43643913  0.06310017  0.43735953  1
  Hf  Hf13  1  0.06446837  0.43775155  0.06002852  1
  Hf  Hf14  1  0.06446837  0.43775155  0.43775155  1
  Hf  Hf15  1  0.43643913  0.06310017  0.06310017  1
  Ir  Ir0  1  0.40213838  0.79936165  0.39924948  1
  Ir  Ir1  1  0.40213838  0.39924948  0.79936165  1
  Ir  Ir2  1  0.40213838  0.39924948  0.39924948  1
  Ir  Ir3  1  0.48261847  0.83912684  0.83912684  1
  Ir  Ir4  1  0.84191017  0.48328223  0.83740330  1
  Ir  Ir5  1  0.84191017  0.83740330  0.48328223  1
  Ir  Ir6  1  0.84191017  0.83740330  0.83740330  1
  Pd  Pd0  1  0.78404371  0.40531843  0.40531843  1
  O  O0  1  0.62467997  0.12510634  0.12510634  1
  O  O1  1  0.12312835  0.62600882  0.12543141  1
  O  O2  1  0.12312835  0.12543141  0.62600882  1
  O  O3  1  0.12312835  0.12543141  0.12543141  1
loop_
_geom_bond_atom_site_label_1
_geom_bond_atom_site_label_2
_geom_bond_distance
_geom_bond_site_symmetry_2
Hf0 Ir1 2.709503 1_555
Hf0 Ir0 2.709504 1_555
Hf0 Ir2 2.709509 1_555
Hf0 Ir6 2.792436 1_455
Hf0 Ir5 2.792441 1_455
Hf0 Ir4 2.792441 1_455
Hf1 Pd0 2.710250 1_555
Hf1 Ir1 2.733820 1_555
Hf1 Ir2 2.733825 1_555
Hf1 Ir3 2.752742 1_545
Hf1 Ir6 2.776468 1_545
Hf1 Ir5 2.776473 1_545
Hf2 Pd0 2.710250 1_555
Hf2 Ir0 2.733820 1_555
Hf2 Ir2 2.733825 1_555
Hf2 Ir3 2.752742 1_554
Hf2 Ir6 2.776468 1_554
Hf2 Ir4 2.776473 1_554
Hf3 Pd0 2.710257 1_555
Hf3 Ir0 2.733826 1_555
Hf3 Ir1 2.733827 1_555
Hf3 Ir3 2.752735 1_555
Hf3 Ir4 2.776466 1_555
Hf3 Ir5 2.776466 1_555
Hf4 O1 2.278997 1_655
Hf4 O0 2.288505 1_565
Hf4 Ir5 2.824620 1_555
Hf4 Ir6 2.824629 1_554
Hf4 Pd0 3.183513 1_555
Hf5 O2 2.296893 1_555
Hf5 O3 2.296902 1_556
Hf5 Ir4 2.797788 1_455
Hf5 Ir3 2.811628 1_545
Hf6 O2 2.278997 1_655
Hf6 O0 2.288505 1_556
Hf6 Ir4 2.824620 1_555
Hf6 Ir6 2.824629 1_545
Hf6 Pd0 3.183513 1_555
Hf7 O1 2.296894 1_555
Hf7 O3 2.296902 1_565
Hf7 Ir5 2.797788 1_455
Hf7 Ir3 2.811629 1_554
Hf8 O2 2.296900 1_565
Hf8 O1 2.296900 1_556
Hf8 Ir6 2.797788 1_455
Hf8 Ir3 2.811629 1_555
Hf9 O3 2.278997 1_655
Hf9 O0 2.288511 1_555
Hf9 Ir5 2.824625 1_545
Hf9 Ir4 2.824625 1_554
Hf9 Pd0 3.183505 1_555
Hf10 O0 2.304998 1_555
Hf10 O1 2.309183 1_555
Hf10 Ir2 2.647077 1_555
Hf10 Ir1 2.647077 1_554
Hf10 Ir3 3.159837 1_554
Hf10 Ir4 3.180832 1_554
Hf11 O2 2.307244 1_555
Hf11 O3 2.307244 1_555
Hf11 Ir0 2.640318 1_545
Hf11 Pd0 2.747434 1_455
Hf11 Ir6 3.140134 1_445
Hf11 Ir5 3.140138 1_445
Hf12 O0 2.304998 1_555
Hf12 O2 2.309183 1_555
Hf12 Ir2 2.647077 1_555
Hf12 Ir0 2.647077 1_545
Hf12 Ir3 3.159837 1_545
Hf12 Ir5 3.180832 1_545
Hf13 O3 2.307244 1_555
Hf13 O1 2.307244 1_555
Hf13 Ir1 2.640319 1_554
Hf13 Pd0 2.747434 1_455
Hf13 Ir6 3.140134 1_454
Hf13 Ir4 3.140138 1_454
Hf14 O2 2.307244 1_555
Hf14 O1 2.307244 1_555
Hf14 Ir2 2.640315 1_555
Hf14 Pd0 2.747440 1_455
Hf14 Ir5 3.140131 1_455
Hf14 Ir4 3.140131 1_455
Hf15 O0 2.304998 1_555
Hf15 O3 2.309181 1_555
Hf15 Ir1 2.647077 1_554
Hf15 Ir0 2.647077 1_545
Hf15 Ir3 3.159837 1_544
Hf15 Ir6 3.180832 1_544
