# generated using pymatgen
data_Ba2InAuI
_symmetry_space_group_name_H-M   'P 1'
_cell_length_a   4.87662278
_cell_length_b   4.87662246
_cell_length_c   18.83884444
_cell_angle_alpha   90.00000000
_cell_angle_beta   90.00000000
_cell_angle_gamma   119.99999545
_symmetry_Int_Tables_number   1
_chemical_formula_structural   Ba2InAuI
_chemical_formula_sum   'Ba4 In2 Au2 I2'
_cell_volume   387.99239192
_cell_formula_units_Z   2
loop_
 _symmetry_equiv_pos_site_id
 _symmetry_equiv_pos_as_xyz
  1  'x, y, z'
loop_
 _atom_site_type_symbol
 _atom_site_label
 _atom_site_symmetry_multiplicity
 _atom_site_fract_x
 _atom_site_fract_y
 _atom_site_fract_z
 _atom_site_occupancy
  Ba  Ba0  1  0.00000000  0.00000000  0.11341079  1
  Ba  Ba1  1  0.00000000  0.00000000  0.38658921  1
  Ba  Ba2  1  0.00000000  0.00000000  0.61503143  1
  Ba  Ba3  1  0.00000000  0.00000000  0.88496857  1
  In  In0  1  0.66666600  0.33333400  0.50145418  1
  In  In1  1  0.66666600  0.33333400  0.99854582  1
  Au  Au0  1  0.33333400  0.66666700  0.00090007  1
  Au  Au1  1  0.33333400  0.66666700  0.49909993  1
  I  I0  1  0.66666600  0.33333400  0.25000000  1
  I  I1  1  0.33333400  0.66666700  0.75000000  1
loop_
_geom_bond_atom_site_label_1
_geom_bond_atom_site_label_2
_geom_bond_distance
_geom_bond_site_symmetry_2
Ba0 In1 3.551014 1_444
Ba0 In1 3.551014 1_554
Ba0 In1 3.551020 1_454
Ba0 I0 3.814237 1_445
Ba0 I0 3.814237 1_555
Ba0 I0 3.814243 1_455
Ba1 In0 3.551014 1_445
Ba1 In0 3.551014 1_555
Ba1 In0 3.551020 1_455
Ba1 I0 3.814237 1_445
Ba1 I0 3.814237 1_555
Ba1 I0 3.814243 1_455
Ba2 In0 3.536283 1_445
Ba2 In0 3.536283 1_555
Ba2 In0 3.536290 1_455
Ba2 I1 3.793707 1_445
Ba2 I1 3.793710 1_545
Ba2 I1 3.793710 1_555
Ba3 In1 3.536283 1_445
Ba3 In1 3.536283 1_555
Ba3 In1 3.536290 1_455
Ba3 I1 3.793707 1_445
Ba3 I1 3.793710 1_545
Ba3 I1 3.793710 1_555
Au0 In1 2.815862 1_554
Au0 In1 2.815870 1_564
Au0 In1 2.815875 1_454
Au0 Ba0 3.524162 1_665
Au0 Ba0 3.524165 1_565
Au0 Ba0 3.524166 1_555
Au0 Ba3 3.563293 1_664
Au0 Ba3 3.563296 1_564
Au0 Ba3 3.563296 1_554
Au1 In0 2.815862 1_555
Au1 In0 2.815870 1_565
Au1 In0 2.815875 1_455
Au1 Ba1 3.524162 1_665
Au1 Ba1 3.524165 1_565
Au1 Ba1 3.524166 1_555
Au1 Ba2 3.563293 1_665
Au1 Ba2 3.563296 1_565
Au1 Ba2 3.563296 1_555
