# generated using pymatgen
data_Ba2NaSi2Pt7
_symmetry_space_group_name_H-M   'P 1'
_cell_length_a   8.89142444
_cell_length_b   8.89142393
_cell_length_c   8.89142336
_cell_angle_alpha   37.51250747
_cell_angle_beta   37.51251206
_cell_angle_gamma   37.51251261
_symmetry_Int_Tables_number   1
_chemical_formula_structural   Ba2NaSi2Pt7
_chemical_formula_sum   'Ba2 Na1 Si2 Pt7'
_cell_volume   233.76146360
_cell_formula_units_Z   1
loop_
 _symmetry_equiv_pos_site_id
 _symmetry_equiv_pos_as_xyz
  1  'x, y, z'
loop_
 _atom_site_type_symbol
 _atom_site_label
 _atom_site_symmetry_multiplicity
 _atom_site_fract_x
 _atom_site_fract_y
 _atom_site_fract_z
 _atom_site_occupancy
  Ba  Ba0  1  0.36186616  0.36186616  0.36186616  1
  Ba  Ba1  1  0.63813384  0.63813384  0.63813384  1
  Na  Na0  1  0.50000000  0.50000000  0.50000000  1
  Si  Si0  1  0.16869261  0.16869261  0.16869261  1
  Si  Si1  1  0.83130739  0.83130739  0.83130739  1
  Pt  Pt0  1  0.00000000  0.00000000  0.00000000  1
  Pt  Pt1  1  0.57436988  0.06704250  0.06704150  1
  Pt  Pt2  1  0.06704250  0.57436988  0.06704150  1
  Pt  Pt3  1  0.93295750  0.93295750  0.42563112  1
  Pt  Pt4  1  0.06704250  0.06704250  0.57436888  1
  Pt  Pt5  1  0.93295750  0.42563012  0.93295850  1
  Pt  Pt6  1  0.42563012  0.93295750  0.93295850  1
loop_
_geom_bond_atom_site_label_1
_geom_bond_atom_site_label_2
_geom_bond_distance
_geom_bond_site_symmetry_2
Ba0 Pt6 3.326444 1_554
Ba0 Pt5 3.326444 1_554
Ba0 Pt3 3.326446 1_455
Ba0 Pt3 3.326447 1_545
Ba0 Pt6 3.326448 1_545
Ba0 Pt5 3.326449 1_455
Ba0 Pt0 3.376050 1_556
Ba0 Pt0 3.376050 1_565
Ba0 Pt0 3.376051 1_655
Ba0 Na0 3.421238 1_555
Ba0 Pt4 3.535509 1_555
Ba0 Pt1 3.535511 1_555
Ba0 Pt2 3.535512 1_555
Ba1 Pt1 3.326444 1_556
Ba1 Pt2 3.326444 1_556
Ba1 Pt4 3.326446 1_655
Ba1 Pt4 3.326447 1_565
Ba1 Pt1 3.326448 1_565
Ba1 Pt2 3.326449 1_655
Ba1 Pt0 3.376050 1_665
Ba1 Pt0 3.376050 1_656
Ba1 Pt0 3.376051 1_566
Ba1 Na0 3.421238 1_555
Ba1 Pt3 3.535509 1_555
Ba1 Pt6 3.535511 1_555
Ba1 Pt5 3.535512 1_555
Na0 Si1 3.301640 1_554
Na0 Si0 3.301640 1_556
Na0 Si0 3.301640 1_565
Na0 Si1 3.301640 1_545
Na0 Si1 3.301640 1_455
Na0 Si0 3.301640 1_655
Na0 Pt1 3.337067 1_556
Na0 Pt6 3.337067 1_554
Na0 Pt2 3.337067 1_556
Na0 Pt5 3.337067 1_554
Na0 Pt4 3.337070 1_565
Na0 Pt3 3.337070 1_545
Na0 Pt4 3.337070 1_655
Na0 Pt3 3.337070 1_455
Na0 Pt1 3.337072 1_565
Na0 Pt6 3.337072 1_545
Na0 Pt2 3.337073 1_655
Na0 Pt5 3.337073 1_455
Pt0 Pt5 2.904955 1_454
Pt0 Pt2 2.904955 1_545
Pt0 Pt6 2.904956 1_544
Pt0 Pt1 2.904956 1_455
Pt0 Pt3 2.904958 1_445
Pt0 Pt4 2.904958 1_554
Pt1 Si0 2.365704 1_555
Pt1 Si1 2.404630 1_544
Pt2 Si0 2.365703 1_555
Pt2 Si1 2.404630 1_454
Pt3 Si1 2.365700 1_555
Pt3 Si0 2.404634 1_665
Pt4 Si0 2.365700 1_555
Pt4 Si1 2.404634 1_445
Pt5 Si1 2.365703 1_555
Pt5 Si0 2.404630 1_656
Pt6 Si1 2.365704 1_555
Pt6 Si0 2.404630 1_566
