# generated using pymatgen
data_Er5Si3
_symmetry_space_group_name_H-M   'P 1'
_cell_length_a   8.32205932
_cell_length_b   8.32205946
_cell_length_c   6.27368241
_cell_angle_alpha   90.00000000
_cell_angle_beta   90.00000000
_cell_angle_gamma   119.99999946
_symmetry_Int_Tables_number   1
_chemical_formula_structural   Er5Si3
_chemical_formula_sum   'Er10 Si6'
_cell_volume   376.28316234
_cell_formula_units_Z   2
loop_
 _symmetry_equiv_pos_site_id
 _symmetry_equiv_pos_as_xyz
  1  'x, y, z'
loop_
 _atom_site_type_symbol
 _atom_site_label
 _atom_site_symmetry_multiplicity
 _atom_site_fract_x
 _atom_site_fract_y
 _atom_site_fract_z
 _atom_site_occupancy
  Er  Er0  1  0.00000000  0.75769394  0.75000000  1
  Er  Er1  1  -0.00000000  0.24230606  0.25000000  1
  Er  Er2  1  0.75769394  0.75769394  0.25000000  1
  Er  Er3  1  0.75769394  -0.00000000  0.75000000  1
  Er  Er4  1  0.24230606  0.24230606  0.75000000  1
  Er  Er5  1  0.24230606  -0.00000000  0.25000000  1
  Er  Er6  1  0.33333300  0.66666700  0.50000000  1
  Er  Er7  1  0.66666700  0.33333300  0.00000000  1
  Er  Er8  1  0.66666700  0.33333300  0.50000000  1
  Er  Er9  1  0.33333300  0.66666700  0.00000000  1
  Si  Si0  1  0.39417330  -0.00000000  0.75000000  1
  Si  Si1  1  0.39417330  0.39417330  0.25000000  1
  Si  Si2  1  0.00000000  0.60582670  0.25000000  1
  Si  Si3  1  -0.00000000  0.39417330  0.75000000  1
  Si  Si4  1  0.60582670  0.60582670  0.75000000  1
  Si  Si5  1  0.60582670  -0.00000000  0.25000000  1
loop_
_geom_bond_atom_site_label_1
_geom_bond_atom_site_label_2
_geom_bond_distance
_geom_bond_site_symmetry_2
Er0 Si4 2.865669 1_455
Er0 Si0 2.865669 1_565
Er0 Si3 3.025240 1_555
Er0 Si2 3.381876 1_556
Er0 Si2 3.381876 1_555
Er1 Si1 2.865669 1_555
Er1 Si5 2.865669 1_455
Er1 Si2 3.025240 1_555
Er1 Si3 3.381876 1_554
Er1 Si3 3.381876 1_555
Er2 Si2 2.865669 1_655
Er2 Si5 2.865669 1_565
Er2 Si1 3.025240 1_555
Er2 Si4 3.381876 1_555
Er2 Si4 3.381876 1_554
Er3 Si4 2.865669 1_545
Er3 Si3 2.865669 1_655
Er3 Si0 3.025240 1_555
Er3 Si5 3.381876 1_555
Er3 Si5 3.381876 1_556
Er4 Si3 2.865669 1_555
Er4 Si0 2.865669 1_555
Er4 Si4 3.025240 1_555
Er4 Si1 3.381876 1_555
Er4 Si1 3.381876 1_556
Er5 Si2 2.865669 1_545
Er5 Si1 2.865669 1_555
Er5 Si5 3.025240 1_555
Er5 Si0 3.381876 1_555
Er5 Si0 3.381876 1_554
Er6 Si2 3.001156 1_555
Er6 Si0 3.001156 1_565
Er6 Si3 3.001159 1_555
Er6 Si5 3.001159 1_565
Er6 Si4 3.001163 1_555
Er6 Si1 3.001163 1_555
Er7 Si3 3.001156 1_654
Er7 Si5 3.001156 1_555
Er7 Si2 3.001159 1_655
Er7 Si0 3.001159 1_554
Er7 Si1 3.001163 1_555
Er7 Si4 3.001163 1_554
Er8 Si3 3.001156 1_655
Er8 Si5 3.001156 1_555
Er8 Si2 3.001159 1_655
Er8 Si0 3.001159 1_555
Er8 Si1 3.001163 1_555
Er8 Si4 3.001163 1_555
Er9 Si2 3.001156 1_555
Er9 Si0 3.001156 1_564
Er9 Si3 3.001159 1_554
Er9 Si5 3.001159 1_565
Er9 Si4 3.001163 1_554
Er9 Si1 3.001163 1_555
