# generated using pymatgen
data_Ca21Ga8Si6Bi
_symmetry_space_group_name_H-M   'P 1'
_cell_length_a   11.11437074
_cell_length_b   11.11437196
_cell_length_c   11.11437089
_cell_angle_alpha   60.00000318
_cell_angle_beta   59.99999956
_cell_angle_gamma   60.00000332
_symmetry_Int_Tables_number   1
_chemical_formula_structural   Ca21Ga8Si6Bi
_chemical_formula_sum   'Ca21 Ga8 Si6 Bi1'
_cell_volume   970.82223362
_cell_formula_units_Z   1
loop_
 _symmetry_equiv_pos_site_id
 _symmetry_equiv_pos_as_xyz
  1  'x, y, z'
loop_
 _atom_site_type_symbol
 _atom_site_label
 _atom_site_symmetry_multiplicity
 _atom_site_fract_x
 _atom_site_fract_y
 _atom_site_fract_z
 _atom_site_occupancy
  Ca  Ca0  1  0.87376428  0.87376428  0.37870617  1
  Ca  Ca1  1  0.62129383  0.12623572  0.12623572  1
  Ca  Ca2  1  0.87376428  0.37870617  0.87376428  1
  Ca  Ca3  1  0.12623572  0.12623572  0.12623572  1
  Ca  Ca4  1  0.37870617  0.87376428  0.87376428  1
  Ca  Ca5  1  0.87376428  0.87376428  0.87376428  1
  Ca  Ca6  1  0.17878085  0.82121915  0.50000000  1
  Ca  Ca7  1  0.82121915  0.50000000  0.50000000  1
  Ca  Ca8  1  0.12623572  0.12623572  0.62129383  1
  Ca  Ca9  1  0.82121915  0.17878085  0.50000000  1
  Ca  Ca10  1  0.17878085  0.50000000  0.50000000  1
  Ca  Ca11  1  0.12623572  0.62129383  0.12623572  1
  Ca  Ca12  1  0.50000000  0.50000000  0.17878085  1
  Ca  Ca13  1  0.50000000  0.17878085  0.82121915  1
  Ca  Ca14  1  0.50000000  0.82121915  0.17878085  1
  Ca  Ca15  1  0.50000000  0.50000000  0.82121915  1
  Ca  Ca16  1  0.50000000  0.17878085  0.50000000  1
  Ca  Ca17  1  0.17878085  0.50000000  0.82121915  1
  Ca  Ca18  1  0.00000000  0.00000000  0.00000000  1
  Ca  Ca19  1  0.50000000  0.82121915  0.50000000  1
  Ca  Ca20  1  0.82121915  0.50000000  0.17878085  1
  Ga  Ga0  1  0.69093142  0.92720875  0.69093142  1
  Ga  Ga1  1  0.69093142  0.69093142  0.92720875  1
  Ga  Ga2  1  0.69093142  0.69093142  0.69093142  1
  Ga  Ga3  1  0.30906858  0.07279125  0.30906858  1
  Ga  Ga4  1  0.92720875  0.69093142  0.69093142  1
  Ga  Ga5  1  0.30906858  0.30906858  0.07279125  1
  Ga  Ga6  1  0.07279125  0.30906858  0.30906858  1
  Ga  Ga7  1  0.30906858  0.30906858  0.30906858  1
  Si  Si0  1  0.78767664  0.21232336  0.78767664  1
  Si  Si1  1  0.78767664  0.21232336  0.21232336  1
  Si  Si2  1  0.21232336  0.78767664  0.21232336  1
  Si  Si3  1  0.21232336  0.78767664  0.78767664  1
  Si  Si4  1  0.78767664  0.78767664  0.21232336  1
  Si  Si5  1  0.21232336  0.21232336  0.78767664  1
  Bi  Bi0  1  0.50000000  0.50000000  0.50000000  1
loop_
_geom_bond_atom_site_label_1
_geom_bond_atom_site_label_2
_geom_bond_distance
_geom_bond_site_symmetry_2
Ca0 Si4 3.115267 1_555
Ca0 Si2 3.115275 1_655
Ca0 Si1 3.115276 1_565
Ca0 Ga2 3.213535 1_555
Ca0 Ga0 3.213554 1_555
Ca0 Ga4 3.213554 1_555
Ca1 Si1 3.115267 1_555
Ca1 Si0 3.115275 1_554
Ca1 Si4 3.115276 1_545
Ca1 Ga7 3.213535 1_555
Ca1 Ga3 3.213554 1_555
Ca1 Ga5 3.213554 1_555
Ca2 Si0 3.115267 1_555
Ca2 Si5 3.115275 1_655
Ca2 Si1 3.115275 1_556
Ca2 Ga2 3.213536 1_555
Ca2 Ga4 3.213554 1_555
Ca2 Ga1 3.213554 1_555
Ca3 Si1 3.115277 1_455
Ca3 Si5 3.115277 1_554
Ca3 Si2 3.115277 1_545
Ca3 Ga3 3.213515 1_555
Ca3 Ga5 3.213516 1_555
Ca3 Ga6 3.213516 1_555
Ca4 Si3 3.115267 1_555
Ca4 Si2 3.115275 1_556
Ca4 Si5 3.115276 1_565
Ca4 Ga2 3.213535 1_555
Ca4 Ga0 3.213554 1_555
Ca4 Ga1 3.213554 1_555
Ca5 Si3 3.115277 1_655
Ca5 Si4 3.115277 1_556
Ca5 Si0 3.115277 1_565
Ca5 Ga0 3.213515 1_555
Ca5 Ga1 3.213516 1_555
Ca5 Ga4 3.213516 1_555
Ca6 Ga4 3.075809 1_455
Ca6 Ga3 3.075810 1_565
Ca6 Si2 3.219006 1_555
Ca6 Si3 3.219006 1_555
Ca7 Ga6 3.075829 1_655
Ca7 Ga2 3.075836 1_555
Ca7 Si0 3.219006 1_555
Ca7 Si4 3.219006 1_555
Ca8 Si5 3.115267 1_555
Ca8 Si0 3.115275 1_455
Ca8 Si3 3.115276 1_545
Ca8 Ga7 3.213535 1_555
Ca8 Ga3 3.213554 1_555
Ca8 Ga6 3.213554 1_555
Ca9 Ga6 3.075809 1_655
Ca9 Ga0 3.075810 1_545
Ca9 Si0 3.219006 1_555
Ca9 Si1 3.219006 1_555
Ca10 Ga4 3.075829 1_455
Ca10 Ga7 3.075836 1_555
Ca10 Si2 3.219006 1_555
Ca10 Si5 3.219006 1_555
Ca11 Si2 3.115267 1_555
Ca11 Si4 3.115275 1_455
Ca11 Si3 3.115275 1_554
Ca11 Ga7 3.213536 1_555
Ca11 Ga6 3.213554 1_555
Ca11 Ga5 3.213554 1_555
Ca12 Ga1 3.075829 1_554
Ca12 Ga7 3.075836 1_555
Ca12 Si1 3.219006 1_555
Ca12 Si2 3.219006 1_555
Ca13 Ga5 3.075809 1_556
Ca13 Ga0 3.075810 1_545
Ca13 Si0 3.219006 1_555
Ca13 Si5 3.219006 1_555
Ca14 Ga1 3.075809 1_554
Ca14 Ga3 3.075810 1_565
Ca14 Si2 3.219006 1_555
Ca14 Si4 3.219006 1_555
Ca15 Ga5 3.075829 1_556
Ca15 Ga2 3.075836 1_555
Ca15 Si0 3.219006 1_555
Ca15 Si3 3.219006 1_555
Ca16 Ga0 3.075829 1_545
Ca16 Ga7 3.075836 1_555
Ca16 Si1 3.219006 1_555
Ca16 Si5 3.219006 1_555
Ca17 Ga4 3.075809 1_455
Ca17 Ga5 3.075809 1_556
Ca17 Si3 3.219006 1_555
Ca17 Si5 3.219006 1_555
Ca18 Si5 3.337319 1_554
Ca18 Si4 3.337319 1_445
Ca18 Si2 3.337319 1_545
Ca18 Si1 3.337319 1_455
Ca18 Si3 3.337319 1_544
Ca18 Si0 3.337319 1_454
Ca19 Ga3 3.075829 1_565
Ca19 Ga2 3.075836 1_555
Ca19 Si3 3.219006 1_555
Ca19 Si4 3.219006 1_555
Ca20 Ga6 3.075809 1_655
Ca20 Ga1 3.075809 1_554
Ca20 Si1 3.219006 1_555
Ca20 Si4 3.219006 1_555
Ga0 Ga4 2.626074 1_555
Ga0 Ga1 2.626074 1_555
Ga0 Ga2 2.626074 1_555
Ga1 Ga4 2.626074 1_555
Ga1 Ga2 2.626074 1_555
Ga2 Ga4 2.626074 1_555
Ga3 Ga6 2.626074 1_555
Ga3 Ga7 2.626074 1_555
Ga3 Ga5 2.626074 1_555
Ga5 Ga6 2.626074 1_555
Ga5 Ga7 2.626074 1_555
Ga6 Ga7 2.626074 1_555
Bi0 Ca7 3.570149 1_555
Bi0 Ca10 3.570149 1_555
Bi0 Ca20 3.570149 1_555
Bi0 Ca17 3.570149 1_555
Bi0 Ca15 3.570149 1_555
Bi0 Ca12 3.570149 1_555
Bi0 Ca9 3.570149 1_555
Bi0 Ca6 3.570149 1_555
Bi0 Ca14 3.570149 1_555
Bi0 Ca13 3.570149 1_555
Bi0 Ca19 3.570149 1_555
Bi0 Ca16 3.570149 1_555
