# generated using pymatgen
data_Na4Al11InTe20
_symmetry_space_group_name_H-M   'P 1'
_cell_length_a   10.50307917
_cell_length_b   10.49440145
_cell_length_c   10.56378518
_cell_angle_alpha   90.74640075
_cell_angle_beta   90.68056426
_cell_angle_gamma   90.50555020
_symmetry_Int_Tables_number   1
_chemical_formula_structural   Na4Al11InTe20
_chemical_formula_sum   'Na4 Al11 In1 Te20'
_cell_volume   1164.14981560
_cell_formula_units_Z   1
loop_
 _symmetry_equiv_pos_site_id
 _symmetry_equiv_pos_as_xyz
  1  'x, y, z'
loop_
 _atom_site_type_symbol
 _atom_site_label
 _atom_site_symmetry_multiplicity
 _atom_site_fract_x
 _atom_site_fract_y
 _atom_site_fract_z
 _atom_site_occupancy
  Na  Na0  1  0.25698706  0.00109764  0.74328232  1
  Na  Na1  1  0.74469977  0.25445864  0.99965319  1
  Na  Na2  1  0.99942090  0.74281602  0.25203327  1
  Na  Na3  1  0.49957211  0.50013167  0.50004332  1
  Al  Al0  1  0.56989805  0.83671463  0.88037225  1
  Al  Al1  1  0.87801105  0.57200005  0.84270310  1
  Al  Al2  1  0.16317245  0.42820482  0.12161957  1
  Al  Al3  1  0.12588429  0.16464771  0.42665915  1
  Al  Al4  1  0.42886098  0.12211179  0.16203470  1
  Al  Al5  1  0.74405224  0.16489431  0.34715017  1
  Al  Al6  1  0.34409740  0.74731211  0.16360414  1
  Al  Al7  1  0.16195474  0.34671666  0.74663021  1
  Al  Al8  1  0.25360826  0.65478493  0.83772602  1
  Al  Al9  1  0.83542927  0.25520164  0.65331342  1
  Al  Al10  1  0.65300539  0.83343600  0.25149241  1
  In  In0  1  0.84168675  0.87539082  0.57173460  1
  Te  Te0  1  0.17601198  0.82409156  0.00012542  1
  Te  Te1  1  0.82307072  0.99860365  0.18166848  1
  Te  Te2  1  0.17885389  0.17876282  0.17765565  1
  Te  Te3  1  0.82154974  0.82174038  0.83606118  1
  Te  Te4  1  0.00002663  0.17489191  0.81947793  1
  Te  Te5  1  0.92605941  0.49651016  0.07546102  1
  Te  Te6  1  0.09113485  0.92560831  0.49257315  1
  Te  Te7  1  0.49914624  0.07350229  0.92691089  1
  Te  Te8  1  0.74401822  0.67817603  0.41773691  1
  Te  Te9  1  0.42896223  0.74739668  0.69236214  1
  Te  Te10  1  0.69197616  0.43152198  0.74836472  1
  Te  Te11  1  0.25183747  0.57173301  0.30812368  1
  Te  Te12  1  0.30986029  0.25840064  0.57146203  1
  Te  Te13  1  0.57086786  0.31073817  0.25009110  1
  Te  Te14  1  0.66760091  0.07977368  0.57159690  1
  Te  Te15  1  0.56785020  0.67428401  0.06982730  1
  Te  Te16  1  0.06862825  0.57350517  0.67974773  1
  Te  Te17  1  0.32293133  0.42810883  0.92886615  1
  Te  Te18  1  0.92984724  0.32297104  0.42875676  1
  Te  Te19  1  0.42942466  0.92975925  0.32307802  1
loop_
_geom_bond_atom_site_label_1
_geom_bond_atom_site_label_2
_geom_bond_distance
_geom_bond_site_symmetry_2
Na0 Te6 3.238462 1_545
Na0 Te7 3.258757 1_555
Na0 Te9 3.272793 1_545
Na0 Te12 3.319542 1_555
Na0 Te4 3.370242 1_555
Na0 Te0 3.419620 1_546
Na1 Te5 3.247711 1_556
Na1 Te7 3.267547 1_555
Na1 Te13 3.282436 1_556
Na1 Te10 3.304222 1_555
Na1 Te4 3.410408 1_655
Na1 Te1 3.423445 1_546
Na2 Te5 3.249522 1_555
Na2 Te11 3.267659 1_655
Na2 Te8 3.290977 1_555
Na2 Te6 3.293441 1_655
Na2 Te1 3.360942 1_555
Na2 Te0 3.376022 1_655
Na3 Te8 3.293870 1_555
Na3 Te12 3.312300 1_555
Na3 Te9 3.367990 1_555
Na3 Te11 3.375518 1_555
Na3 Te13 3.379292 1_555
Na3 Te10 3.381184 1_555
Al0 Te9 2.621361 1_555
Al0 Te7 2.641647 1_565
Al0 Te15 2.645917 1_556
Al0 Te3 2.695307 1_555
Al1 Te10 2.617065 1_555
Al1 Te5 2.637487 1_556
Al1 Te16 2.655909 1_655
Al1 Te3 2.693847 1_555
Al2 Te11 2.621449 1_555
Al2 Te5 2.639231 1_455
Al2 Te17 2.653832 1_554
Al2 Te2 2.697366 1_555
Al3 Te12 2.626550 1_555
Al3 Te6 2.635599 1_545
Al3 Te18 2.657263 1_455
Al3 Te2 2.700746 1_555
Al4 Te13 2.622090 1_555
Al4 Te7 2.644169 1_554
Al4 Te19 2.656783 1_545
Al4 Te2 2.703891 1_555
Al5 Te13 2.597727 1_555
Al5 Te1 2.602054 1_545
Al5 Te14 2.674352 1_555
Al5 Te18 2.677476 1_555
Al6 Te0 2.595617 1_555
Al6 Te11 2.596499 1_555
Al6 Te19 2.675257 1_555
Al6 Te15 2.675623 1_555
Al7 Te12 2.597189 1_555
Al7 Te4 2.597957 1_555
Al7 Te17 2.673686 1_555
Al7 Te16 2.681974 1_555
Al8 Te0 2.596847 1_556
Al8 Te9 2.601767 1_555
Al8 Te16 2.672823 1_555
Al8 Te17 2.681326 1_555
Al9 Te10 2.595956 1_555
Al9 Te4 2.602370 1_655
Al9 Te14 2.665866 1_555
Al9 Te18 2.683991 1_555
Al10 Te8 2.591309 1_555
Al10 Te1 2.597890 1_555
Al10 Te15 2.668654 1_555
Al10 Te19 2.678114 1_555
In0 Te8 2.795963 1_555
In0 Te6 2.807216 1_655
In0 Te14 2.830707 1_565
In0 Te3 2.865572 1_555
