# generated using pymatgen
data_K2CaIO6
_symmetry_space_group_name_H-M   'P 1'
_cell_length_a   5.89404656
_cell_length_b   5.89404636
_cell_length_c   5.89404712
_cell_angle_alpha   59.99999572
_cell_angle_beta   59.99999685
_cell_angle_gamma   59.99999366
_symmetry_Int_Tables_number   1
_chemical_formula_structural   K2CaIO6
_chemical_formula_sum   'K2 Ca1 I1 O6'
_cell_volume   144.78570013
_cell_formula_units_Z   1
loop_
 _symmetry_equiv_pos_site_id
 _symmetry_equiv_pos_as_xyz
  1  'x, y, z'
loop_
 _atom_site_type_symbol
 _atom_site_label
 _atom_site_symmetry_multiplicity
 _atom_site_fract_x
 _atom_site_fract_y
 _atom_site_fract_z
 _atom_site_occupancy
  K  K0  1  0.75000000  0.75000000  0.75000000  1
  K  K1  1  0.25000000  0.25000000  0.25000000  1
  Ca  Ca0  1  0.50000000  0.50000000  0.50000000  1
  I  I0  1  0.00000000  0.00000000  0.00000000  1
  O  O0  1  0.77627553  0.77627553  0.22372447  1
  O  O1  1  0.22372447  0.77627553  0.22372447  1
  O  O2  1  0.77627553  0.22372447  0.22372447  1
  O  O3  1  0.22372447  0.22372447  0.77627553  1
  O  O4  1  0.77627553  0.22372447  0.77627553  1
  O  O5  1  0.22372447  0.77627553  0.77627553  1
loop_
_geom_bond_atom_site_label_1
_geom_bond_atom_site_label_2
_geom_bond_distance
_geom_bond_site_symmetry_2
K0 O3 2.955150 1_655
K0 O3 2.955150 1_565
K0 O2 2.955150 1_556
K0 O4 2.955150 1_555
K0 O4 2.955151 1_565
K0 O2 2.955151 1_565
K0 O1 2.955151 1_556
K0 O5 2.955151 1_555
K0 O5 2.955151 1_655
K0 O1 2.955151 1_655
K0 O0 2.955151 1_556
K0 O0 2.955151 1_555
K1 O0 2.955150 1_455
K1 O0 2.955150 1_545
K1 O1 2.955150 1_555
K1 O5 2.955150 1_554
K1 O5 2.955151 1_545
K1 O1 2.955151 1_545
K1 O2 2.955151 1_555
K1 O4 2.955151 1_554
K1 O4 2.955151 1_455
K1 O2 2.955151 1_455
K1 O3 2.955151 1_554
K1 O3 2.955151 1_555
Ca0 O0 2.302878 1_555
Ca0 O3 2.302878 1_555
Ca0 O5 2.302878 1_555
Ca0 O4 2.302878 1_555
Ca0 O2 2.302878 1_555
Ca0 O1 2.302878 1_555
I0 O3 1.864842 1_554
I0 O0 1.864842 1_445
I0 O1 1.864842 1_545
I0 O2 1.864842 1_455
I0 O4 1.864842 1_454
I0 O5 1.864842 1_544
