# generated using pymatgen
data_Si12P12RuRh3
_symmetry_space_group_name_H-M   'P 1'
_cell_length_a   5.84917598
_cell_length_b   6.06905820
_cell_length_c   13.07154823
_cell_angle_alpha   90.02540640
_cell_angle_beta   90.05894646
_cell_angle_gamma   90.59504931
_symmetry_Int_Tables_number   1
_chemical_formula_structural   Si12P12RuRh3
_chemical_formula_sum   'Si12 P12 Ru1 Rh3'
_cell_volume   464.00143457
_cell_formula_units_Z   1
loop_
 _symmetry_equiv_pos_site_id
 _symmetry_equiv_pos_as_xyz
  1  'x, y, z'
loop_
 _atom_site_type_symbol
 _atom_site_label
 _atom_site_symmetry_multiplicity
 _atom_site_fract_x
 _atom_site_fract_y
 _atom_site_fract_z
 _atom_site_occupancy
  Si  Si0  1  0.98104216  0.15275413  0.31441664  1
  Si  Si1  1  0.46729215  0.84076973  0.68219015  1
  Si  Si2  1  0.92758175  0.62246872  0.21564237  1
  Si  Si3  1  0.43165133  0.37369437  0.78583921  1
  Si  Si4  1  0.34257293  0.91405755  0.95121346  1
  Si  Si5  1  0.84237354  0.08628007  0.04743078  1
  Si  Si6  1  0.91594941  0.52917111  0.67361306  1
  Si  Si7  1  0.41057260  0.47338459  0.32820722  1
  Si  Si8  1  0.99669804  0.06158541  0.56883411  1
  Si  Si9  1  0.49726434  0.94225757  0.43010056  1
  Si  Si10  1  0.91271369  0.62693080  0.92796015  1
  Si  Si11  1  0.40890312  0.37377108  0.07278155  1
  P  P0  1  0.57885708  0.03119476  0.82530249  1
  P  P1  1  0.07845060  0.96419732  0.17198918  1
  P  P2  1  0.51955363  0.56147887  0.93080691  1
  P  P3  1  0.01757128  0.43878086  0.06976739  1
  P  P4  1  0.60918886  0.11546305  0.57391946  1
  P  P5  1  0.11098196  0.88085827  0.42517745  1
  P  P6  1  0.54199531  0.64330813  0.18121955  1
  P  P7  1  0.04459866  0.35891323  0.81905823  1
  P  P8  1  0.58409878  0.13610188  0.28904059  1
  P  P9  1  0.07922452  0.86924652  0.70995656  1
  P  P10  1  0.15067945  0.40282796  0.55253595  1
  P  P11  1  0.65133601  0.60488328  0.45000095  1
  Ru  Ru0  1  0.02267131  0.50893210  0.38166267  1
  Rh  Rh0  1  0.96668192  0.98757918  0.87899954  1
  Rh  Rh1  1  0.46734358  0.01344789  0.12116711  1
  Rh  Rh2  1  0.53595198  0.48565658  0.62116373  1
loop_
_geom_bond_atom_site_label_1
_geom_bond_atom_site_label_2
_geom_bond_distance
_geom_bond_site_symmetry_2
P0 Si4 2.260452 1_545
P0 Si1 2.289303 1_545
P0 Si3 2.316349 1_555
P0 Rh0 2.391232 1_545
P1 Si0 2.261444 1_465
P1 Si5 2.263708 1_465
P1 Si2 2.317274 1_455
P1 Rh1 2.386233 1_565
P2 Si3 2.266709 1_555
P2 Si11 2.269320 1_556
P2 Si10 2.329987 1_555
P2 Si4 2.401599 1_555
P3 Si10 2.264986 1_454
P3 Si2 2.273360 1_455
P3 Si11 2.327055 1_555
P3 Si5 2.380229 1_455
P4 Si9 2.247037 1_545
P4 Si8 2.294459 1_555
P4 Si1 2.333866 1_545
P4 Rh2 2.373176 1_555
P5 Si8 2.278615 1_465
P5 Si9 2.286970 1_555
P5 Si0 2.328677 1_465
P5 Ru0 2.378978 1_555
P6 Si11 2.293553 1_555
P6 Si2 2.304129 1_555
P6 Si7 2.309630 1_555
P6 Rh1 2.423716 1_565
P7 Si6 2.294221 1_455
P7 Si10 2.300789 1_455
P7 Si3 2.306482 1_555
P7 Rh0 2.425184 1_445
P8 Si9 2.243505 1_545
P8 Si0 2.346161 1_555
P8 Si7 2.350694 1_555
P8 Rh1 2.412604 1_555
P9 Si8 2.238369 1_465
P9 Si1 2.307320 1_555
P9 Si6 2.314056 1_455
P9 Rh0 2.417245 1_455
P10 Si6 2.236765 1_455
P10 Si8 2.260034 1_455
P10 Ru0 2.443770 1_555
P10 Rh2 2.471382 1_555
P11 Si9 2.260657 1_555
P11 Si7 2.263984 1_555
P11 Ru0 2.425796 1_655
P11 Rh2 2.445255 1_555
Ru0 Si0 2.343434 1_455
Ru0 Si2 2.345310 1_455
Ru0 Si7 2.386630 1_555
Rh0 Si10 2.299428 1_555
Rh0 Si5 2.397075 1_566
Rh0 Si4 2.437353 1_655
Rh1 Si11 2.305509 1_555
Rh1 Si4 2.412078 1_544
Rh1 Si5 2.433296 1_555
Rh2 Si1 2.336586 1_555
Rh2 Si3 2.337271 1_555
Rh2 Si6 2.337641 1_555
