# generated using pymatgen
data_Sr3Be2Pd7
_symmetry_space_group_name_H-M   'P 1'
_cell_length_a   8.62195630
_cell_length_b   8.62195659
_cell_length_c   8.62195570
_cell_angle_alpha   37.93305732
_cell_angle_beta   37.93305215
_cell_angle_gamma   37.93305536
_symmetry_Int_Tables_number   1
_chemical_formula_structural   Sr3Be2Pd7
_chemical_formula_sum   'Sr3 Be2 Pd7'
_cell_volume   217.39625721
_cell_formula_units_Z   1
loop_
 _symmetry_equiv_pos_site_id
 _symmetry_equiv_pos_as_xyz
  1  'x, y, z'
loop_
 _atom_site_type_symbol
 _atom_site_label
 _atom_site_symmetry_multiplicity
 _atom_site_fract_x
 _atom_site_fract_y
 _atom_site_fract_z
 _atom_site_occupancy
  Sr  Sr0  1  0.35803108  0.35803108  0.35803108  1
  Sr  Sr1  1  0.50000000  0.50000000  0.50000000  1
  Sr  Sr2  1  0.64196792  0.64196792  0.64196792  1
  Be  Be0  1  0.16705839  0.16705839  0.16705839  1
  Be  Be1  1  0.83294161  0.83294161  0.83294161  1
  Pd  Pd0  1  0.00000000  0.00000000  0.00000000  1
  Pd  Pd1  1  0.57113279  0.06855027  0.06855127  1
  Pd  Pd2  1  0.06855027  0.57113279  0.06855127  1
  Pd  Pd3  1  0.93144973  0.93144973  0.42886621  1
  Pd  Pd4  1  0.06855027  0.06855027  0.57113379  1
  Pd  Pd5  1  0.93144973  0.42886721  0.93144873  1
  Pd  Pd6  1  0.42886721  0.93144973  0.93144873  1
loop_
_geom_bond_atom_site_label_1
_geom_bond_atom_site_label_2
_geom_bond_distance
_geom_bond_site_symmetry_2
Sr0 Sr1 3.403734 1_555
Sr0 Sr2 3.445699 1_554
Sr0 Sr2 3.445699 1_455
Sr0 Sr2 3.445700 1_545
Sr1 Sr2 3.403710 1_555
Be0 Pd1 2.320111 1_555
Be0 Pd2 2.320112 1_555
Be0 Pd4 2.320115 1_555
Be0 Pd3 2.321928 1_445
Be0 Pd6 2.321931 1_544
Be0 Pd5 2.321931 1_454
Be0 Sr1 3.235798 1_455
Be0 Sr1 3.235798 1_554
Be0 Sr1 3.235798 1_545
Be1 Pd6 2.320111 1_555
Be1 Pd5 2.320112 1_555
Be1 Pd3 2.320115 1_555
Be1 Pd4 2.321928 1_665
Be1 Pd1 2.321931 1_566
Be1 Pd2 2.321931 1_656
Be1 Sr1 3.235798 1_655
Be1 Sr1 3.235798 1_556
Be1 Sr1 3.235798 1_565
Pd0 Pd3 2.833281 1_445
Pd0 Pd4 2.833281 1_554
Pd0 Pd6 2.833284 1_544
Pd0 Pd1 2.833284 1_455
Pd0 Pd5 2.833284 1_454
Pd0 Pd2 2.833284 1_545
Pd0 Sr0 3.289517 1_455
Pd0 Sr0 3.289517 1_554
Pd0 Sr0 3.289517 1_545
Pd0 Sr2 3.289521 1_544
Pd0 Sr2 3.289521 1_445
Pd0 Sr2 3.289521 1_454
Pd1 Pd4 2.787797 1_654
Pd1 Pd2 2.787798 1_645
Pd1 Pd4 2.816745 1_555
Pd1 Pd2 2.816745 1_555
Pd1 Sr1 3.259170 1_545
Pd1 Sr1 3.259174 1_554
Pd1 Sr2 3.298308 1_545
Pd1 Sr2 3.298313 1_554
Pd1 Sr0 3.345678 1_555
Pd2 Pd4 2.787798 1_564
Pd2 Pd4 2.816745 1_555
Pd2 Sr1 3.259169 1_455
Pd2 Sr1 3.259174 1_554
Pd2 Sr2 3.298307 1_455
Pd2 Sr2 3.298313 1_554
Pd2 Sr0 3.345678 1_555
Pd3 Pd6 2.787797 1_654
Pd3 Pd5 2.787798 1_564
Pd3 Pd6 2.816745 1_555
Pd3 Pd5 2.816745 1_555
Pd3 Sr1 3.259172 1_655
Pd3 Sr1 3.259172 1_565
Pd3 Sr0 3.298323 1_565
Pd3 Sr0 3.298323 1_655
Pd3 Sr2 3.345702 1_555
Pd4 Sr1 3.259172 1_455
Pd4 Sr1 3.259172 1_545
Pd4 Sr2 3.298310 1_545
Pd4 Sr2 3.298310 1_455
Pd4 Sr0 3.345681 1_555
Pd5 Pd6 2.787798 1_645
Pd5 Pd6 2.816745 1_555
Pd5 Sr1 3.259169 1_655
Pd5 Sr1 3.259174 1_556
Pd5 Sr0 3.298320 1_655
Pd5 Sr0 3.298325 1_556
Pd5 Sr2 3.345699 1_555
Pd6 Sr1 3.259170 1_565
Pd6 Sr1 3.259174 1_556
Pd6 Sr0 3.298320 1_565
Pd6 Sr0 3.298326 1_556
Pd6 Sr2 3.345699 1_555
