# generated using pymatgen
data_ScCdNi3Pt
_symmetry_space_group_name_H-M   'P 1'
_cell_length_a   4.86244757
_cell_length_b   4.86244818
_cell_length_c   5.04481420
_cell_angle_alpha   61.18878014
_cell_angle_beta   61.18877149
_cell_angle_gamma   60.00000271
_symmetry_Int_Tables_number   1
_chemical_formula_structural   ScCdNi3Pt
_chemical_formula_sum   'Sc1 Cd1 Ni3 Pt1'
_cell_volume   85.82509781
_cell_formula_units_Z   1
loop_
 _symmetry_equiv_pos_site_id
 _symmetry_equiv_pos_as_xyz
  1  'x, y, z'
loop_
 _atom_site_type_symbol
 _atom_site_label
 _atom_site_symmetry_multiplicity
 _atom_site_fract_x
 _atom_site_fract_y
 _atom_site_fract_z
 _atom_site_occupancy
  Sc  Sc0  1  0.24837344  0.24837344  0.25487868  1
  Cd  Cd0  1  0.00592940  0.00592940  0.98221081  1
  Ni  Ni0  1  0.62501757  0.12171166  0.62825219  1
  Ni  Ni1  1  0.12171166  0.62501757  0.62825219  1
  Ni  Ni2  1  0.62501757  0.62501757  0.62825219  1
  Pt  Pt0  1  0.62394836  0.62394836  0.12815393  1
loop_
_geom_bond_atom_site_label_1
_geom_bond_atom_site_label_2
_geom_bond_distance
_geom_bond_site_symmetry_2
Cd0 Ni0 2.848175 1_555
Cd0 Ni2 2.848175 1_545
Cd0 Ni0 2.848175 1_455
Cd0 Ni1 2.848175 1_545
Cd0 Ni1 2.848175 1_555
Cd0 Ni2 2.848175 1_455
Cd0 Pt0 2.873211 1_446
Cd0 Pt0 2.873211 1_546
Cd0 Pt0 2.873211 1_456
Cd0 Sc0 3.031064 1_456
Cd0 Sc0 3.031064 1_556
Cd0 Sc0 3.031065 1_546
Cd0 Ni0 3.045831 1_456
Cd0 Ni2 3.045831 1_446
Cd0 Ni1 3.045831 1_546
Cd0 Sc0 3.048643 1_555
Ni0 Ni1 2.415149 1_645
Ni0 Ni2 2.415149 1_545
Ni0 Ni1 2.447299 1_555
Ni0 Ni2 2.447299 1_555
Ni0 Pt0 2.516912 1_546
Ni0 Pt0 2.527925 1_555
Ni0 Sc0 2.891400 1_655
Ni0 Sc0 2.891400 1_555
Ni0 Sc0 2.982463 1_556
Ni1 Ni2 2.415149 1_455
Ni1 Ni2 2.447299 1_555
Ni1 Pt0 2.516911 1_456
Ni1 Pt0 2.527925 1_555
Ni1 Sc0 2.891400 1_555
Ni1 Sc0 2.891400 1_565
Ni1 Sc0 2.982464 1_556
Ni2 Pt0 2.516911 1_556
Ni2 Pt0 2.527925 1_555
Ni2 Sc0 2.891400 1_655
Ni2 Sc0 2.891400 1_565
Ni2 Sc0 2.982463 1_556
Pt0 Sc0 2.857145 1_655
Pt0 Sc0 2.857145 1_555
Pt0 Sc0 2.857145 1_565
