# generated using pymatgen
data_Y16In6RuRh
_symmetry_space_group_name_H-M   'P 1'
_cell_length_a   10.42092994
_cell_length_b   10.42093091
_cell_length_c   7.10956520
_cell_angle_alpha   90.00000000
_cell_angle_beta   90.00000000
_cell_angle_gamma   120.00000317
_symmetry_Int_Tables_number   1
_chemical_formula_structural   Y16In6RuRh
_chemical_formula_sum   'Y16 In6 Ru1 Rh1'
_cell_volume   668.63122163
_cell_formula_units_Z   1
loop_
 _symmetry_equiv_pos_site_id
 _symmetry_equiv_pos_as_xyz
  1  'x, y, z'
loop_
 _atom_site_type_symbol
 _atom_site_label
 _atom_site_symmetry_multiplicity
 _atom_site_fract_x
 _atom_site_fract_y
 _atom_site_fract_z
 _atom_site_occupancy
  Y  Y0  1  0.46576813  0.53423187  0.48007610  1
  Y  Y1  1  0.06846174  0.53423187  0.48007610  1
  Y  Y2  1  0.46576813  0.93153826  0.48007610  1
  Y  Y3  1  0.53579638  0.46420362  0.98054106  1
  Y  Y4  1  0.92840724  0.46420362  0.98054106  1
  Y  Y5  1  0.53579638  0.07159276  0.98054106  1
  Y  Y6  1  0.82385881  0.17614119  0.27539172  1
  Y  Y7  1  0.35228339  0.17614119  0.27539172  1
  Y  Y8  1  0.82385881  0.64771661  0.27539172  1
  Y  Y9  1  0.17606347  0.82393653  0.77643303  1
  Y  Y10  1  0.64787206  0.82393653  0.77643303  1
  Y  Y11  1  0.17606347  0.35212794  0.77643303  1
  Y  Y12  1  0.33333300  0.66666700  0.09966486  1
  Y  Y13  1  0.66666700  0.33333300  0.59892391  1
  Y  Y14  1  0.00000000  0.00000000  0.49653439  1
  Y  Y15  1  0.00000000  0.00000000  0.99548741  1
  In  In0  1  0.16316823  0.83683177  0.23324041  1
  In  In1  1  0.67366355  0.83683177  0.23324041  1
  In  In2  1  0.16316823  0.32633645  0.23324041  1
  In  In3  1  0.83728116  0.16271884  0.73273290  1
  In  In4  1  0.32543869  0.16271884  0.73273290  1
  In  In5  1  0.83728116  0.67456131  0.73273290  1
  Ru  Ru0  1  0.66666700  0.33333300  0.20947214  1
  Rh  Rh0  1  0.33333300  0.66666700  0.70922164  1
loop_
_geom_bond_atom_site_label_1
_geom_bond_atom_site_label_2
_geom_bond_distance
_geom_bond_site_symmetry_2
In0 Y8 3.083501 1_455
In0 Y7 3.083501 1_565
In0 Y12 3.214868 1_555
In0 Y9 3.256032 1_554
In0 Y2 3.299286 1_555
In0 Y1 3.299286 1_555
In0 Y15 3.395719 1_564
In0 Y14 3.489664 1_565
In0 Y5 3.845989 1_564
In0 Y4 3.845989 1_454
In0 Y9 3.868871 1_555
In1 Y6 3.083501 1_565
In1 Y8 3.083510 1_555
In1 Y12 3.214877 1_555
In1 Y10 3.256032 1_554
In1 Y0 3.299289 1_555
In1 Y2 3.299302 1_555
In1 Y15 3.395718 1_664
In1 Y14 3.489663 1_665
In1 Y3 3.845989 1_554
In1 Y5 3.845989 1_564
In1 Y10 3.868872 1_555
In2 Y6 3.083500 1_455
In2 Y7 3.083510 1_555
In2 Y12 3.214877 1_555
In2 Y11 3.256032 1_554
In2 Y0 3.299289 1_555
In2 Y1 3.299303 1_555
In2 Y15 3.395719 1_554
In2 Y14 3.489664 1_555
In2 Y3 3.845989 1_554
In2 Y4 3.845989 1_454
In2 Y11 3.868872 1_555
In3 Y11 3.080256 1_655
In3 Y10 3.080256 1_545
In3 Y13 3.223108 1_555
In3 Y6 3.260510 1_555
In3 Y5 3.300437 1_555
In3 Y4 3.300437 1_555
In3 Y14 3.383187 1_655
In3 Y15 3.480761 1_655
In3 Y2 3.833033 1_545
In3 Y1 3.833033 1_655
In3 Y6 3.865667 1_556
In4 Y9 3.080255 1_545
In4 Y11 3.080274 1_555
In4 Y13 3.223107 1_555
In4 Y7 3.260510 1_555
In4 Y5 3.300428 1_555
In4 Y3 3.300435 1_555
In4 Y14 3.383194 1_555
In4 Y15 3.480768 1_555
In4 Y2 3.833011 1_545
In4 Y0 3.833037 1_555
In4 Y7 3.865667 1_556
In5 Y9 3.080255 1_655
In5 Y10 3.080274 1_555
In5 Y13 3.223108 1_555
In5 Y8 3.260510 1_555
In5 Y4 3.300428 1_555
In5 Y3 3.300435 1_555
In5 Y14 3.383195 1_665
In5 Y15 3.480769 1_665
In5 Y1 3.833011 1_655
In5 Y0 3.833037 1_555
In5 Y8 3.865667 1_556
Ru0 Y13 2.768833 1_555
Ru0 Y4 2.868595 1_554
Ru0 Y5 2.868595 1_554
Ru0 Y3 2.868603 1_554
Ru0 Y7 2.875692 1_555
Ru0 Y8 2.875693 1_555
Ru0 Y6 2.875693 1_555
Rh0 Y12 2.775881 1_556
Rh0 Y10 2.878587 1_555
Rh0 Y11 2.878587 1_555
Rh0 Y9 2.878587 1_555
Rh0 Y0 2.892759 1_555
Rh0 Y1 2.892766 1_555
Rh0 Y2 2.892766 1_555
