# generated using pymatgen
data_Ta6MoH16
_symmetry_space_group_name_H-M   'P 1'
_cell_length_a   6.29761283
_cell_length_b   6.29761314
_cell_length_c   6.29761449
_cell_angle_alpha   60.00000325
_cell_angle_beta   60.00000161
_cell_angle_gamma   60.00000869
_symmetry_Int_Tables_number   1
_chemical_formula_structural   Ta6MoH16
_chemical_formula_sum   'Ta6 Mo1 H16'
_cell_volume   176.60909051
_cell_formula_units_Z   1
loop_
 _symmetry_equiv_pos_site_id
 _symmetry_equiv_pos_as_xyz
  1  'x, y, z'
loop_
 _atom_site_type_symbol
 _atom_site_label
 _atom_site_symmetry_multiplicity
 _atom_site_fract_x
 _atom_site_fract_y
 _atom_site_fract_z
 _atom_site_occupancy
  Ta  Ta0  1  0.00000000  0.00000000  0.50000000  1
  Ta  Ta1  1  0.50000000  0.00000000  0.50000000  1
  Ta  Ta2  1  0.00000000  0.50000000  0.50000000  1
  Ta  Ta3  1  0.50000000  0.50000000  0.00000000  1
  Ta  Ta4  1  0.00000000  0.50000000  0.00000000  1
  Ta  Ta5  1  0.50000000  0.00000000  0.00000000  1
  Mo  Mo0  1  0.00000000  0.00000000  0.00000000  1
  H  H0  1  0.87732285  0.87732285  0.36803044  1
  H  H1  1  0.87732285  0.36803044  0.87732285  1
  H  H2  1  0.36803044  0.87732285  0.87732285  1
  H  H3  1  0.87732285  0.87732285  0.87732285  1
  H  H4  1  0.12267715  0.12267715  0.63196956  1
  H  H5  1  0.12267715  0.63196956  0.12267715  1
  H  H6  1  0.63196956  0.12267715  0.12267715  1
  H  H7  1  0.12267715  0.12267715  0.12267715  1
  H  H8  1  0.62030615  0.62030615  0.13908156  1
  H  H9  1  0.62030615  0.13908156  0.62030615  1
  H  H10  1  0.13908156  0.62030615  0.62030615  1
  H  H11  1  0.62030615  0.62030615  0.62030615  1
  H  H12  1  0.37969385  0.37969385  0.86091844  1
  H  H13  1  0.37969385  0.86091844  0.37969385  1
  H  H14  1  0.86091844  0.37969385  0.37969385  1
  H  H15  1  0.37969385  0.37969385  0.37969385  1
loop_
_geom_bond_atom_site_label_1
_geom_bond_atom_site_label_2
_geom_bond_distance
_geom_bond_site_symmetry_2
H0 Mo0 1.892405 1_665
H0 Ta1 1.940481 1_565
H0 Ta2 1.940481 1_655
H0 Ta0 1.940486 1_665
H1 Mo0 1.892405 1_656
H1 Ta3 1.940481 1_556
H1 Ta2 1.940481 1_655
H1 Ta4 1.940486 1_656
H2 Mo0 1.892405 1_566
H2 Ta3 1.940481 1_556
H2 Ta1 1.940481 1_565
H2 Ta5 1.940486 1_566
H3 Mo0 1.892410 1_666
H3 Ta5 1.940481 1_566
H3 Ta4 1.940481 1_656
H3 Ta0 1.940481 1_665
H4 Mo0 1.892405 1_556
H4 Ta1 1.940481 1_555
H4 Ta2 1.940481 1_555
H4 Ta0 1.940486 1_555
H5 Mo0 1.892405 1_565
H5 Ta3 1.940481 1_555
H5 Ta2 1.940481 1_555
H5 Ta4 1.940486 1_555
H6 Mo0 1.892405 1_655
H6 Ta3 1.940481 1_555
H6 Ta1 1.940481 1_555
H6 Ta5 1.940486 1_555
H7 Mo0 1.892410 1_555
H7 Ta5 1.940481 1_555
H7 Ta4 1.940481 1_555
H7 Ta0 1.940481 1_555
H8 Ta4 1.953571 1_655
H8 Ta3 1.953571 1_555
H8 Ta5 1.953571 1_565
H9 Ta1 1.953571 1_555
H9 Ta0 1.953571 1_655
H9 Ta5 1.953572 1_556
H10 Ta2 1.953571 1_555
H10 Ta0 1.953571 1_565
H10 Ta4 1.953572 1_556
H11 Ta2 1.953571 1_655
H11 Ta1 1.953571 1_565
H11 Ta3 1.953572 1_556
H12 Ta4 1.953571 1_556
H12 Ta3 1.953571 1_556
H12 Ta5 1.953571 1_556
H13 Ta1 1.953571 1_565
H13 Ta0 1.953571 1_565
H13 Ta5 1.953572 1_565
H14 Ta2 1.953571 1_655
H14 Ta0 1.953571 1_655
H14 Ta4 1.953572 1_655
H15 Ta2 1.953571 1_555
H15 Ta1 1.953571 1_555
H15 Ta3 1.953572 1_555
