# generated using pymatgen
data_In3Ge4Ir3
_symmetry_space_group_name_H-M   'P 1'
_cell_length_a   7.83259281
_cell_length_b   7.83259129
_cell_length_c   7.83259291
_cell_angle_alpha   109.47122483
_cell_angle_beta   109.47122090
_cell_angle_gamma   109.47121365
_symmetry_Int_Tables_number   1
_chemical_formula_structural   In3Ge4Ir3
_chemical_formula_sum   'In6 Ge8 Ir6'
_cell_volume   369.90882566
_cell_formula_units_Z   2
loop_
 _symmetry_equiv_pos_site_id
 _symmetry_equiv_pos_as_xyz
  1  'x, y, z'
loop_
 _atom_site_type_symbol
 _atom_site_label
 _atom_site_symmetry_multiplicity
 _atom_site_fract_x
 _atom_site_fract_y
 _atom_site_fract_z
 _atom_site_occupancy
  In  In0  1  0.50000000  0.75000000  0.25000000  1
  In  In1  1  0.50000000  0.25000000  0.75000000  1
  In  In2  1  0.25000000  0.50000000  0.75000000  1
  In  In3  1  0.75000000  0.50000000  0.25000000  1
  In  In4  1  0.75000000  0.25000000  0.50000000  1
  In  In5  1  0.25000000  0.75000000  0.50000000  1
  Ge  Ge0  1  0.32102043  0.32102043  0.32102043  1
  Ge  Ge1  1  0.67897957  0.67897957  0.67897957  1
  Ge  Ge2  1  0.00000000  0.00000000  0.67897957  1
  Ge  Ge3  1  0.00000000  0.67897957  0.00000000  1
  Ge  Ge4  1  0.00000000  0.00000000  0.32102043  1
  Ge  Ge5  1  1.00000000  0.32102043  1.00000000  1
  Ge  Ge6  1  0.67897957  1.00000000  1.00000000  1
  Ge  Ge7  1  0.32102043  0.00000000  0.00000000  1
  Ir  Ir0  1  1.00000000  0.32629092  0.32629092  1
  Ir  Ir1  1  0.00000000  0.67370908  0.67370908  1
  Ir  Ir2  1  0.32629092  0.00000000  0.32629092  1
  Ir  Ir3  1  0.67370908  1.00000000  0.67370908  1
  Ir  Ir4  1  0.32629092  0.32629092  1.00000000  1
  Ir  Ir5  1  0.67370908  0.67370908  0.00000000  1
loop_
_geom_bond_atom_site_label_1
_geom_bond_atom_site_label_2
_geom_bond_distance
_geom_bond_site_symmetry_2
In0 Ir4 2.753314 1_554
In0 Ir2 2.753314 1_565
In0 Ir3 2.753315 1_555
In0 Ir5 2.753315 1_555
In1 Ir5 2.753314 1_556
In1 Ir3 2.753314 1_545
In1 Ir2 2.753315 1_555
In1 Ir4 2.753315 1_555
In2 Ir1 2.753314 1_555
In2 Ir4 2.753315 1_555
In2 Ir0 2.753315 1_455
In2 Ir5 2.753315 1_556
In3 Ir0 2.753314 1_555
In3 Ir5 2.753315 1_555
In3 Ir1 2.753315 1_655
In3 Ir4 2.753315 1_554
In4 Ir1 2.753314 1_655
In4 Ir3 2.753315 1_545
In4 Ir0 2.753315 1_555
In4 Ir2 2.753315 1_555
In5 Ir0 2.753314 1_455
In5 Ir2 2.753315 1_565
In5 Ir1 2.753315 1_555
In5 Ir3 2.753315 1_555
Ge0 Ir2 2.542241 1_555
Ge0 Ir0 2.542241 1_455
Ge0 Ir4 2.542241 1_554
Ge1 Ir3 2.542241 1_555
Ge1 Ir1 2.542241 1_655
Ge1 Ir5 2.542241 1_556
Ge2 Ir1 2.542241 1_545
Ge2 Ir4 2.542241 1_555
Ge2 Ir3 2.542241 1_445
Ge3 Ir2 2.542241 1_565
Ge3 Ir5 2.542241 1_455
Ge3 Ir1 2.542241 1_554
Ge4 Ir0 2.542241 1_455
Ge4 Ir5 2.542241 1_445
Ge4 Ir2 2.542241 1_555
Ge5 Ir3 2.542241 1_545
Ge5 Ir4 2.542241 1_655
Ge5 Ir0 2.542241 1_556
Ge6 Ir5 2.542241 1_556
Ge6 Ir0 2.542241 1_566
Ge6 Ir3 2.542241 1_555
Ge7 Ir4 2.542241 1_554
Ge7 Ir1 2.542241 1_544
Ge7 Ir2 2.542241 1_555
