# generated using pymatgen
data_SiSnPbSe4
_symmetry_space_group_name_H-M   'P 1'
_cell_length_a   7.38457248
_cell_length_b   8.69172004
_cell_length_c   13.83683673
_cell_angle_alpha   71.40200931
_cell_angle_beta   90.00000000
_cell_angle_gamma   90.00000000
_symmetry_Int_Tables_number   1
_chemical_formula_structural   SiSnPbSe4
_chemical_formula_sum   'Si4 Sn4 Pb4 Se16'
_cell_volume   841.73475176
_cell_formula_units_Z   4
loop_
 _symmetry_equiv_pos_site_id
 _symmetry_equiv_pos_as_xyz
  1  'x, y, z'
loop_
 _atom_site_type_symbol
 _atom_site_label
 _atom_site_symmetry_multiplicity
 _atom_site_fract_x
 _atom_site_fract_y
 _atom_site_fract_z
 _atom_site_occupancy
  Si  Si0  1  0.75153511  0.20510159  0.35191150  1
  Si  Si1  1  0.25153511  0.79489841  0.14808850  1
  Si  Si2  1  0.24846489  0.79489841  0.64808850  1
  Si  Si3  1  0.74846489  0.20510159  0.85191150  1
  Sn  Sn0  1  0.61734849  0.55593457  0.13872088  1
  Sn  Sn1  1  0.11734849  0.44406543  0.36127912  1
  Sn  Sn2  1  0.38265151  0.44406543  0.86127912  1
  Sn  Sn3  1  0.88265151  0.55593457  0.63872088  1
  Pb  Pb0  1  0.64446925  0.05374094  0.12600342  1
  Pb  Pb1  1  0.14446925  0.94625906  0.37399658  1
  Pb  Pb2  1  0.35553075  0.94625906  0.87399658  1
  Pb  Pb3  1  0.85553075  0.05374094  0.62600342  1
  Se  Se0  1  0.76763214  0.93668657  0.44232953  1
  Se  Se1  1  0.26763214  0.06331343  0.05767047  1
  Se  Se2  1  0.23236786  0.06331343  0.55767047  1
  Se  Se3  1  0.73236786  0.93668657  0.94232953  1
  Se  Se4  1  0.51513923  0.27304000  0.73802441  1
  Se  Se5  1  0.01513923  0.72696000  0.76197559  1
  Se  Se6  1  0.48486077  0.72696000  0.26197559  1
  Se  Se7  1  0.98486077  0.27304000  0.23802441  1
  Se  Se8  1  0.51240415  0.74515210  0.73767046  1
  Se  Se9  1  0.01240415  0.25484790  0.76232954  1
  Se  Se10  1  0.48759585  0.25484790  0.26232954  1
  Se  Se11  1  0.98759585  0.74515210  0.23767046  1
  Se  Se12  1  0.72263226  0.36909644  0.95233941  1
  Se  Se13  1  0.22263226  0.63090356  0.54766059  1
  Se  Se14  1  0.27736774  0.63090356  0.04766059  1
  Se  Se15  1  0.77736774  0.36909644  0.45233941  1
loop_
_geom_bond_atom_site_label_1
_geom_bond_atom_site_label_2
_geom_bond_distance
_geom_bond_site_symmetry_2
Pb0 Se1 2.931656 1_555
Pb0 Se12 3.069066 1_554
Pb0 Se3 3.092697 1_544
Pb0 Se6 3.096392 1_545
Pb0 Se10 3.171550 1_555
Pb1 Se0 2.931656 1_455
Pb1 Se13 3.069066 1_555
Pb1 Se2 3.092697 1_565
Pb1 Se7 3.096392 1_465
Pb1 Se11 3.171550 1_455
Pb2 Se3 2.931656 1_555
Pb2 Se14 3.069066 1_556
Pb2 Se1 3.092697 1_566
Pb2 Se4 3.096392 1_565
Pb2 Se8 3.171550 1_555
Pb3 Se2 2.931656 1_655
Pb3 Se15 3.069066 1_555
Pb3 Se0 3.092697 1_545
Pb3 Se5 3.096392 1_645
Pb3 Se9 3.171550 1_655
Se0 Si0 2.271663 1_565
Se1 Si1 2.271663 1_545
Se2 Si2 2.271663 1_545
Se3 Si3 2.271663 1_565
Se4 Si3 2.281924 1_555
Se4 Sn2 2.773542 1_555
Se5 Si2 2.281924 1_555
Se5 Sn3 2.773542 1_455
Se6 Si1 2.281924 1_555
Se6 Sn0 2.773542 1_555
Se7 Si0 2.281924 1_555
Se7 Sn1 2.773542 1_655
Se8 Si2 2.276058 1_555
Se8 Sn2 2.799446 1_555
Se9 Si3 2.276058 1_455
Se9 Sn3 2.799446 1_455
Se10 Si0 2.276058 1_555
Se10 Sn0 2.799446 1_555
Se11 Si1 2.276058 1_655
Se11 Sn1 2.799446 1_655
Se12 Si3 2.294029 1_555
Se12 Sn2 2.791352 1_555
Se13 Si2 2.294029 1_555
Se13 Sn3 2.791352 1_455
Se14 Si1 2.294029 1_555
Se14 Sn0 2.791352 1_555
Se15 Si0 2.294029 1_555
Se15 Sn1 2.791352 1_655
