# generated using pymatgen
data_LiY9Cd3Pd
_symmetry_space_group_name_H-M   'P 1'
_cell_length_a   9.59479216
_cell_length_b   9.59479205
_cell_length_c   9.68815753
_cell_angle_alpha   90.00000000
_cell_angle_beta   90.00000000
_cell_angle_gamma   119.99999690
_symmetry_Int_Tables_number   1
_chemical_formula_structural   LiY9Cd3Pd
_chemical_formula_sum   'Li2 Y18 Cd6 Pd2'
_cell_volume   772.40126291
_cell_formula_units_Z   2
loop_
 _symmetry_equiv_pos_site_id
 _symmetry_equiv_pos_as_xyz
  1  'x, y, z'
loop_
 _atom_site_type_symbol
 _atom_site_label
 _atom_site_symmetry_multiplicity
 _atom_site_fract_x
 _atom_site_fract_y
 _atom_site_fract_z
 _atom_site_occupancy
  Li  Li0  1  0.00000000  0.00000000  0.00000000  1
  Li  Li1  1  0.00000000  0.00000000  0.50000000  1
  Y  Y0  1  0.20452870  0.79547130  0.93998473  1
  Y  Y1  1  0.20452870  0.40905740  0.93998473  1
  Y  Y2  1  0.59094260  0.79547130  0.93998473  1
  Y  Y3  1  0.79547130  0.20452870  0.06001527  1
  Y  Y4  1  0.79547130  0.59094260  0.06001527  1
  Y  Y5  1  0.40905740  0.20452870  0.06001527  1
  Y  Y6  1  0.79547130  0.20452870  0.43998473  1
  Y  Y7  1  0.79547130  0.59094260  0.43998473  1
  Y  Y8  1  0.40905740  0.20452870  0.43998473  1
  Y  Y9  1  0.20452870  0.79547130  0.56001527  1
  Y  Y10  1  0.20452870  0.40905740  0.56001527  1
  Y  Y11  1  0.59094260  0.79547130  0.56001527  1
  Y  Y12  1  0.54376225  0.45623775  0.75000000  1
  Y  Y13  1  0.54376225  0.08752350  0.75000000  1
  Y  Y14  1  0.91247650  0.45623775  0.75000000  1
  Y  Y15  1  0.45623775  0.54376225  0.25000000  1
  Y  Y16  1  0.45623775  0.91247650  0.25000000  1
  Y  Y17  1  0.08752350  0.54376225  0.25000000  1
  Cd  Cd0  1  0.89253264  0.10746736  0.75000000  1
  Cd  Cd1  1  0.89253264  0.78506628  0.75000000  1
  Cd  Cd2  1  0.21493372  0.10746736  0.75000000  1
  Cd  Cd3  1  0.10746736  0.89253264  0.25000000  1
  Cd  Cd4  1  0.10746736  0.21493372  0.25000000  1
  Cd  Cd5  1  0.78506628  0.89253264  0.25000000  1
  Pd  Pd0  1  0.33333300  0.66666700  0.75000000  1
  Pd  Pd1  1  0.66666700  0.33333300  0.25000000  1
loop_
_geom_bond_atom_site_label_1
_geom_bond_atom_site_label_2
_geom_bond_distance
_geom_bond_site_symmetry_2
Li0 Y3 3.448367 1_455
Li0 Y0 3.448367 1_544
Li0 Y1 3.448367 1_554
Li0 Y4 3.448367 1_445
Li0 Y5 3.448367 1_555
Li0 Y2 3.448367 1_444
Li1 Y9 3.448367 1_545
Li1 Y6 3.448367 1_455
Li1 Y10 3.448367 1_555
Li1 Y7 3.448367 1_445
Li1 Y8 3.448367 1_555
Li1 Y11 3.448367 1_445
Y0 Y14 3.565599 1_455
Y0 Y13 3.565599 1_565
Y0 Y17 3.660956 1_556
Y0 Y16 3.660956 1_556
Y1 Y14 3.565594 1_455
Y1 Y12 3.565602 1_555
Y1 Y15 3.660956 1_556
Y1 Y17 3.660961 1_556
Y10 Y14 3.565594 1_455
Y10 Y12 3.565602 1_555
Y10 Y15 3.660956 1_555
Y10 Y17 3.660961 1_555
Y11 Y13 3.565594 1_565
Y11 Y12 3.565602 1_555
Y11 Y15 3.660956 1_555
Y11 Y16 3.660961 1_555
Y12 Y13 3.537737 1_555
Y12 Y14 3.537737 1_555
Y12 Y2 3.565602 1_555
Y12 Y5 3.660956 1_556
Y12 Y8 3.660956 1_555
Y12 Y4 3.660956 1_556
Y12 Y7 3.660956 1_555
Y13 Y14 3.537737 1_555
Y13 Y2 3.565594 1_545
Y13 Y9 3.565599 1_545
Y13 Y3 3.660956 1_556
Y13 Y6 3.660956 1_555
Y13 Y5 3.660961 1_556
Y13 Y8 3.660961 1_555
Y14 Y9 3.565599 1_655
Y14 Y3 3.660956 1_556
Y14 Y6 3.660956 1_555
Y14 Y4 3.660961 1_556
Y14 Y7 3.660961 1_555
Y15 Y16 3.537737 1_555
Y15 Y17 3.537737 1_555
Y15 Y8 3.565602 1_555
Y15 Y5 3.565602 1_555
Y15 Y7 3.565602 1_555
Y15 Y4 3.565602 1_555
Y15 Y2 3.660956 1_554
Y16 Y17 3.537737 1_555
Y16 Y8 3.565594 1_565
Y16 Y5 3.565594 1_565
Y16 Y6 3.565599 1_565
Y16 Y3 3.565599 1_565
Y16 Y9 3.660956 1_555
Y16 Y2 3.660961 1_554
Y17 Y7 3.565594 1_455
Y17 Y4 3.565594 1_455
Y17 Y6 3.565599 1_455
Y17 Y3 3.565599 1_455
Y17 Y9 3.660956 1_555
Cd0 Li0 3.009309 1_656
Cd0 Li1 3.009309 1_655
Cd0 Cd1 3.093371 1_545
Cd0 Cd2 3.093371 1_655
Cd0 Y14 3.254922 1_555
Cd0 Y13 3.254922 1_555
Cd0 Y3 3.409214 1_556
Cd0 Y6 3.409214 1_555
Cd0 Y2 3.472775 1_545
Cd0 Y11 3.472775 1_545
Cd0 Y1 3.472775 1_655
Cd0 Y10 3.472775 1_655
Cd1 Li0 3.009305 1_666
Cd1 Li1 3.009305 1_665
Cd1 Cd2 3.093371 1_665
Cd1 Y12 3.254931 1_555
Cd1 Y14 3.254941 1_555
Cd1 Y4 3.409218 1_556
Cd1 Y7 3.409218 1_555
Cd1 Y2 3.472771 1_555
Cd1 Y11 3.472771 1_555
Cd1 Y0 3.472779 1_655
Cd1 Y9 3.472779 1_655
Cd2 Li1 3.009305 1_555
Cd2 Li0 3.009305 1_556
Cd2 Y12 3.254931 1_555
Cd2 Y13 3.254941 1_555
Cd2 Y5 3.409218 1_556
Cd2 Y8 3.409218 1_555
Cd2 Y1 3.472770 1_555
Cd2 Y10 3.472770 1_555
Cd2 Y0 3.472779 1_545
Cd2 Y9 3.472779 1_545
Cd3 Li0 3.009309 1_565
Cd3 Li1 3.009309 1_565
Cd3 Cd4 3.093371 1_565
Cd3 Cd5 3.093371 1_455
Cd3 Y17 3.254922 1_555
Cd3 Y16 3.254922 1_555
Cd3 Y9 3.409214 1_555
Cd3 Y0 3.409214 1_554
Cd3 Y8 3.472775 1_565
Cd3 Y5 3.472775 1_565
Cd3 Y7 3.472775 1_455
Cd3 Y4 3.472775 1_455
Cd4 Li1 3.009305 1_555
Cd4 Li0 3.009305 1_555
Cd4 Cd5 3.093371 1_445
Cd4 Y15 3.254931 1_555
Cd4 Y17 3.254941 1_555
Cd4 Y10 3.409218 1_555
Cd4 Y1 3.409218 1_554
Cd4 Y8 3.472771 1_555
Cd4 Y5 3.472771 1_555
Cd4 Y6 3.472779 1_455
Cd4 Y3 3.472779 1_455
Cd5 Li0 3.009305 1_665
Cd5 Li1 3.009305 1_665
Cd5 Y15 3.254931 1_555
Cd5 Y16 3.254941 1_555
Cd5 Y11 3.409218 1_555
Cd5 Y2 3.409218 1_554
Cd5 Y7 3.472770 1_555
Cd5 Y4 3.472770 1_555
Cd5 Y6 3.472779 1_565
Cd5 Y3 3.472779 1_565
Pd0 Y0 2.823082 1_555
Pd0 Y9 2.823082 1_555
Pd0 Y1 2.823089 1_555
Pd0 Y10 2.823089 1_555
Pd0 Y2 2.823089 1_555
Pd0 Y11 2.823089 1_555
Pd0 Y13 3.497037 1_565
Pd0 Y14 3.497037 1_455
Pd0 Y12 3.497054 1_555
Pd1 Y6 2.823082 1_555
Pd1 Y3 2.823082 1_555
Pd1 Y7 2.823089 1_555
Pd1 Y4 2.823089 1_555
Pd1 Y8 2.823089 1_555
Pd1 Y5 2.823089 1_555
Pd1 Y16 3.497037 1_545
Pd1 Y17 3.497037 1_655
Pd1 Y15 3.497054 1_555
