# generated using pymatgen
data_Ca5PtRh
_symmetry_space_group_name_H-M   'P 1'
_cell_length_a   8.71179071
_cell_length_b   8.71179062
_cell_length_c   7.62592434
_cell_angle_alpha   82.93306923
_cell_angle_beta   82.93306886
_cell_angle_gamma   44.37087265
_symmetry_Int_Tables_number   1
_chemical_formula_structural   Ca5PtRh
_chemical_formula_sum   'Ca10 Pt2 Rh2'
_cell_volume   401.14679977
_cell_formula_units_Z   2
loop_
 _symmetry_equiv_pos_site_id
 _symmetry_equiv_pos_as_xyz
  1  'x, y, z'
loop_
 _atom_site_type_symbol
 _atom_site_label
 _atom_site_symmetry_multiplicity
 _atom_site_fract_x
 _atom_site_fract_y
 _atom_site_fract_z
 _atom_site_occupancy
  Ca  Ca0  1  0.02317869  0.79902359  0.91411091  1
  Ca  Ca1  1  0.20097641  0.97682131  0.58588909  1
  Ca  Ca2  1  0.98350851  0.19511748  0.08060769  1
  Ca  Ca3  1  0.80488252  0.01649149  0.41939231  1
  Ca  Ca4  1  0.36270011  0.20364615  0.81937990  1
  Ca  Ca5  1  0.79635385  0.63729989  0.68062010  1
  Ca  Ca6  1  0.63360278  0.79833134  0.17492024  1
  Ca  Ca7  1  0.20166866  0.36639722  0.32507976  1
  Ca  Ca8  1  0.57007800  0.42992200  0.75000000  1
  Ca  Ca9  1  0.42656498  0.57343502  0.25000000  1
  Pt  Pt0  1  0.82376791  0.39858463  0.41611644  1
  Pt  Pt1  1  0.60141537  0.17623209  0.08388356  1
  Rh  Rh0  1  0.17384944  0.60254822  0.58314933  1
  Rh  Rh1  1  0.39745178  0.82615056  0.91685067  1
loop_
_geom_bond_atom_site_label_1
_geom_bond_atom_site_label_2
_geom_bond_distance
_geom_bond_site_symmetry_2
Ca0 Rh0 2.838744 1_555
Ca0 Pt1 2.930826 1_466
Ca0 Rh1 3.436180 1_555
Ca1 Rh1 2.838744 1_555
Ca1 Pt0 2.930826 1_465
Ca1 Rh0 3.436180 1_555
Ca2 Rh1 2.864230 1_644
Ca2 Pt0 2.887573 1_555
Ca2 Pt1 3.445218 1_555
Ca3 Rh0 2.864230 1_645
Ca3 Pt1 2.887573 1_555
Ca3 Pt0 3.445218 1_555
Ca4 Pt1 2.941789 1_556
Ca4 Rh0 3.007272 1_555
Ca4 Rh1 3.080572 1_545
Ca5 Pt0 2.941789 1_555
Ca5 Rh1 3.007272 1_555
Ca5 Rh0 3.080572 1_655
Ca6 Rh1 2.886237 1_554
Ca6 Pt0 3.030023 1_555
Ca6 Pt1 3.092708 1_565
Ca7 Rh0 2.886237 1_555
Ca7 Pt1 3.030023 1_555
Ca7 Pt0 3.092708 1_455
Ca8 Rh1 2.997371 1_555
Ca8 Rh0 2.997371 1_555
Ca8 Pt0 3.060364 1_555
Ca8 Pt1 3.060364 1_556
Ca9 Pt1 2.994521 1_555
Ca9 Pt0 2.994521 1_555
Ca9 Rh0 3.057754 1_555
Ca9 Rh1 3.057754 1_554
