# generated using pymatgen
data_Ta2MnB2Ru5
_symmetry_space_group_name_H-M   'P 1'
_cell_length_a   9.23005161
_cell_length_b   9.23005161
_cell_length_c   2.99426524
_cell_angle_alpha   90.00000000
_cell_angle_beta   90.00000000
_cell_angle_gamma   90.00000000
_symmetry_Int_Tables_number   1
_chemical_formula_structural   Ta2MnB2Ru5
_chemical_formula_sum   'Ta4 Mn2 B4 Ru10'
_cell_volume   255.09299200
_cell_formula_units_Z   2
loop_
 _symmetry_equiv_pos_site_id
 _symmetry_equiv_pos_as_xyz
  1  'x, y, z'
loop_
 _atom_site_type_symbol
 _atom_site_label
 _atom_site_symmetry_multiplicity
 _atom_site_fract_x
 _atom_site_fract_y
 _atom_site_fract_z
 _atom_site_occupancy
  Ta  Ta0  1  0.82289549  0.67710451  0.00000000  1
  Ta  Ta1  1  0.17710451  0.32289549  0.00000000  1
  Ta  Ta2  1  0.32289549  0.82289549  0.00000000  1
  Ta  Ta3  1  0.67710451  0.17710451  0.00000000  1
  Mn  Mn0  1  0.50000000  0.50000000  0.00000000  1
  Mn  Mn1  1  0.00000000  0.00000000  0.00000000  1
  B  B0  1  0.62428997  0.87571003  0.00000000  1
  B  B1  1  0.37571003  0.12428997  0.00000000  1
  B  B2  1  0.12428997  0.62428997  0.00000000  1
  B  B3  1  0.87571003  0.37571003  0.00000000  1
  Ru  Ru0  1  0.57193223  0.71459463  0.50000000  1
  Ru  Ru1  1  0.42806777  0.28540537  0.50000000  1
  Ru  Ru2  1  0.07193223  0.78540537  0.50000000  1
  Ru  Ru3  1  0.92806777  0.21459463  0.50000000  1
  Ru  Ru4  1  0.28540537  0.57193223  0.50000000  1
  Ru  Ru5  1  0.71459463  0.42806777  0.50000000  1
  Ru  Ru6  1  0.21459463  0.07193223  0.50000000  1
  Ru  Ru7  1  0.78540537  0.92806777  0.50000000  1
  Ru  Ru8  1  0.50000000  0.00000000  0.50000000  1
  Ru  Ru9  1  0.00000000  0.50000000  0.50000000  1
loop_
_geom_bond_atom_site_label_1
_geom_bond_atom_site_label_2
_geom_bond_distance
_geom_bond_site_symmetry_2
Mn0 Ru0 2.570111 1_555
Mn0 Ru0 2.570111 1_554
Mn0 Ru5 2.570111 1_554
Mn0 Ru5 2.570111 1_555
Mn0 Ru4 2.570111 1_554
Mn0 Ru4 2.570111 1_555
Mn0 Ru1 2.570111 1_554
Mn0 Ru1 2.570111 1_555
Mn1 Ru6 2.570111 1_554
Mn1 Ru6 2.570111 1_555
Mn1 Ru3 2.570111 1_455
Mn1 Ru3 2.570111 1_454
Mn1 Ru2 2.570111 1_544
Mn1 Ru2 2.570111 1_545
Mn1 Ru7 2.570111 1_445
Mn1 Ru7 2.570111 1_444
B0 Ru7 2.164816 1_555
B0 Ru7 2.164816 1_554
B0 Ru0 2.164816 1_554
B0 Ru0 2.164816 1_555
B0 Ru8 2.207613 1_565
B0 Ru8 2.207613 1_564
B0 Ta0 2.592450 1_555
B0 Ta3 2.824275 1_565
B0 Ta2 2.824275 1_555
B1 Ru6 2.164816 1_555
B1 Ru6 2.164816 1_554
B1 Ru1 2.164816 1_555
B1 Ru1 2.164816 1_554
B1 Ru8 2.207613 1_555
B1 Ru8 2.207613 1_554
B1 Ta1 2.592450 1_555
B1 Ta2 2.824275 1_545
B1 Ta3 2.824275 1_555
B2 Ru2 2.164816 1_554
B2 Ru2 2.164816 1_555
B2 Ru4 2.164816 1_554
B2 Ru4 2.164816 1_555
B2 Ru9 2.207613 1_555
B2 Ru9 2.207613 1_554
B2 Ta2 2.592450 1_555
B2 Ta0 2.824275 1_455
B2 Ta1 2.824275 1_555
B3 Ru5 2.164816 1_554
B3 Ru3 2.164816 1_554
B3 Ru5 2.164816 1_555
B3 Ru3 2.164816 1_555
B3 Ru9 2.207613 1_654
B3 Ru9 2.207613 1_655
B3 Ta3 2.592450 1_555
B3 Ta1 2.824275 1_655
B3 Ta0 2.824275 1_555
Ru0 Ta0 2.779725 1_556
Ru0 Ta0 2.779725 1_555
Ru0 Ta2 2.919643 1_555
Ru0 Ta2 2.919643 1_556
Ru1 Ta1 2.779725 1_555
Ru1 Ta1 2.779725 1_556
Ru1 Ta3 2.919643 1_555
Ru1 Ta3 2.919643 1_556
Ru2 Ta2 2.779725 1_555
Ru2 Ta2 2.779725 1_556
Ru2 Ta0 2.919643 1_455
Ru2 Ta0 2.919643 1_456
Ru3 Ta3 2.779725 1_555
Ru3 Ta3 2.779725 1_556
Ru3 Ta1 2.919643 1_656
Ru3 Ta1 2.919643 1_655
Ru4 Ta2 2.779725 1_555
Ru4 Ta2 2.779725 1_556
Ru4 Ta1 2.919643 1_556
Ru4 Ta1 2.919643 1_555
Ru5 Ta3 2.779725 1_555
Ru5 Ta3 2.779725 1_556
Ru5 Ta0 2.919643 1_556
Ru5 Ta0 2.919643 1_555
Ru6 Ta1 2.779725 1_555
Ru6 Ta1 2.779725 1_556
Ru6 Ta2 2.919643 1_545
Ru6 Ta2 2.919643 1_546
Ru7 Ta0 2.779725 1_556
Ru7 Ta0 2.779725 1_555
Ru7 Ta3 2.919643 1_566
Ru7 Ta3 2.919643 1_565
Ru8 Ta3 2.754231 1_555
Ru8 Ta3 2.754231 1_556
Ru8 Ta2 2.754231 1_545
Ru8 Ta2 2.754231 1_546
Ru9 Ta1 2.754231 1_556
Ru9 Ta1 2.754231 1_555
Ru9 Ta0 2.754231 1_456
Ru9 Ta0 2.754231 1_455
