# generated using pymatgen
data_Zr5Bi3B
_symmetry_space_group_name_H-M   'P 1'
_cell_length_a   8.69124654
_cell_length_b   8.69124710
_cell_length_c   5.85777816
_cell_angle_alpha   90.00000000
_cell_angle_beta   90.00000000
_cell_angle_gamma   120.00000541
_symmetry_Int_Tables_number   1
_chemical_formula_structural   Zr5Bi3B
_chemical_formula_sum   'Zr10 Bi6 B2'
_cell_volume   383.20193713
_cell_formula_units_Z   2
loop_
 _symmetry_equiv_pos_site_id
 _symmetry_equiv_pos_as_xyz
  1  'x, y, z'
loop_
 _atom_site_type_symbol
 _atom_site_label
 _atom_site_symmetry_multiplicity
 _atom_site_fract_x
 _atom_site_fract_y
 _atom_site_fract_z
 _atom_site_occupancy
  Zr  Zr0  1  0.66666700  0.33333300  0.50000000  1
  Zr  Zr1  1  0.33333300  0.66666700  0.50000000  1
  Zr  Zr2  1  0.33333300  0.66666700  0.00000000  1
  Zr  Zr3  1  0.66666700  0.33333300  0.00000000  1
  Zr  Zr4  1  0.77265292  0.77265292  0.25000000  1
  Zr  Zr5  1  0.22734708  0.00000000  0.25000000  1
  Zr  Zr6  1  0.00000000  0.22734708  0.25000000  1
  Zr  Zr7  1  0.22734708  0.22734708  0.75000000  1
  Zr  Zr8  1  0.77265292  1.00000000  0.75000000  1
  Zr  Zr9  1  1.00000000  0.77265292  0.75000000  1
  Bi  Bi0  1  0.39872073  0.39872073  0.25000000  1
  Bi  Bi1  1  0.60127927  1.00000000  0.25000000  1
  Bi  Bi2  1  1.00000000  0.60127927  0.25000000  1
  Bi  Bi3  1  0.60127927  0.60127927  0.75000000  1
  Bi  Bi4  1  0.39872073  0.00000000  0.75000000  1
  Bi  Bi5  1  0.00000000  0.39872073  0.75000000  1
  B  B0  1  0.00000000  0.00000000  0.50000000  1
  B  B1  1  0.00000000  0.00000000  0.00000000  1
loop_
_geom_bond_atom_site_label_1
_geom_bond_atom_site_label_2
_geom_bond_distance
_geom_bond_site_symmetry_2
Bi0 Zr6 3.010948 1_555
Bi0 Zr5 3.010948 1_555
Bi0 Zr3 3.035501 1_555
Bi0 Zr0 3.035501 1_555
Bi0 Zr2 3.035501 1_555
Bi0 Zr1 3.035501 1_555
Bi0 Zr4 3.249937 1_555
Bi0 Zr7 3.285857 1_555
Bi0 Zr7 3.285857 1_554
Bi1 Zr6 3.010948 1_665
Bi1 Zr4 3.010949 1_555
Bi1 Zr3 3.035493 1_565
Bi1 Zr0 3.035493 1_565
Bi1 Zr2 3.035496 1_555
Bi1 Zr1 3.035496 1_555
Bi1 Zr5 3.249937 1_565
Bi1 Zr8 3.285857 1_555
Bi1 Zr8 3.285857 1_554
Bi2 Zr5 3.010948 1_665
Bi2 Zr4 3.010949 1_555
Bi2 Zr1 3.035493 1_655
Bi2 Zr2 3.035493 1_655
Bi2 Zr3 3.035496 1_555
Bi2 Zr0 3.035496 1_555
Bi2 Zr6 3.249937 1_655
Bi2 Zr9 3.285857 1_555
Bi2 Zr9 3.285857 1_554
Bi3 Zr9 3.010948 1_555
Bi3 Zr8 3.010948 1_555
Bi3 Zr1 3.035501 1_555
Bi3 Zr2 3.035501 1_556
Bi3 Zr0 3.035501 1_555
Bi3 Zr3 3.035501 1_556
Bi3 Zr7 3.249937 1_555
Bi3 Zr4 3.285857 1_555
Bi3 Zr4 3.285857 1_556
Bi4 Zr9 3.010948 1_445
Bi4 Zr7 3.010949 1_555
Bi4 Zr1 3.035493 1_545
Bi4 Zr2 3.035493 1_546
Bi4 Zr0 3.035496 1_555
Bi4 Zr3 3.035496 1_556
Bi4 Zr8 3.249937 1_545
Bi4 Zr5 3.285857 1_556
Bi4 Zr5 3.285857 1_555
Bi5 Zr8 3.010948 1_445
Bi5 Zr7 3.010949 1_555
Bi5 Zr0 3.035493 1_455
Bi5 Zr3 3.035493 1_456
Bi5 Zr2 3.035496 1_556
Bi5 Zr1 3.035496 1_555
Bi5 Zr9 3.249937 1_455
Bi5 Zr6 3.285857 1_556
Bi5 Zr6 3.285857 1_555
B0 Zr7 2.459450 1_555
B0 Zr4 2.459450 1_445
B0 Zr5 2.459450 1_555
B0 Zr8 2.459450 1_445
B0 Zr6 2.459450 1_555
B0 Zr9 2.459450 1_445
B1 Zr7 2.459450 1_554
B1 Zr4 2.459450 1_445
B1 Zr5 2.459450 1_555
B1 Zr8 2.459450 1_444
B1 Zr6 2.459450 1_555
B1 Zr9 2.459450 1_444
