# generated using pymatgen
data_Zr3HgC2
_symmetry_space_group_name_H-M   'P 1'
_cell_length_a   3.35509810
_cell_length_b   3.35509823
_cell_length_c   20.18602852
_cell_angle_alpha   90.00000000
_cell_angle_beta   90.00000000
_cell_angle_gamma   119.99999877
_symmetry_Int_Tables_number   1
_chemical_formula_structural   Zr3HgC2
_chemical_formula_sum   'Zr6 Hg2 C4'
_cell_volume   196.78499589
_cell_formula_units_Z   2
loop_
 _symmetry_equiv_pos_site_id
 _symmetry_equiv_pos_as_xyz
  1  'x, y, z'
loop_
 _atom_site_type_symbol
 _atom_site_label
 _atom_site_symmetry_multiplicity
 _atom_site_fract_x
 _atom_site_fract_y
 _atom_site_fract_z
 _atom_site_occupancy
  Zr  Zr0  1  0.00000000  0.00000000  0.00000000  1
  Zr  Zr1  1  0.33333300  0.66666700  0.12823331  1
  Zr  Zr2  1  0.33333300  0.66666700  0.37176669  1
  Zr  Zr3  1  0.00000000  0.00000000  0.50000000  1
  Zr  Zr4  1  0.66666700  0.33333500  0.62823331  1
  Zr  Zr5  1  0.66666700  0.33333500  0.87176669  1
  Hg  Hg0  1  0.00000000  0.00000000  0.25000000  1
  Hg  Hg1  1  0.00000000  0.00000000  0.75000000  1
  C  C0  1  0.66666700  0.33333500  0.07013853  1
  C  C1  1  0.66666700  0.33333500  0.42986147  1
  C  C2  1  0.33333300  0.66666700  0.57013853  1
  C  C3  1  0.33333300  0.66666700  0.92986147  1
loop_
_geom_bond_atom_site_label_1
_geom_bond_atom_site_label_2
_geom_bond_distance
_geom_bond_site_symmetry_2
Hg0 Zr1 3.129523 1_545
Hg0 Zr2 3.129523 1_545
Hg0 Zr1 3.129525 1_445
Hg0 Zr2 3.129525 1_445
Hg0 Zr1 3.129525 1_555
Hg0 Zr2 3.129525 1_555
Hg1 Zr4 3.129521 1_445
Hg1 Zr5 3.129521 1_445
Hg1 Zr4 3.129525 1_555
Hg1 Zr5 3.129525 1_555
Hg1 Zr4 3.129527 1_455
Hg1 Zr5 3.129527 1_455
C0 Zr1 2.264388 1_555
C0 Zr1 2.264388 1_655
C0 Zr1 2.264393 1_545
C0 Zr0 2.399323 1_665
C0 Zr0 2.399328 1_555
C0 Zr0 2.399330 1_655
C1 Zr2 2.264388 1_555
C1 Zr2 2.264388 1_655
C1 Zr2 2.264393 1_545
C1 Zr3 2.399323 1_665
C1 Zr3 2.399328 1_555
C1 Zr3 2.399330 1_655
C2 Zr4 2.264388 1_555
C2 Zr4 2.264388 1_455
C2 Zr4 2.264393 1_565
C2 Zr3 2.399325 1_565
C2 Zr3 2.399328 1_665
C2 Zr3 2.399328 1_555
C3 Zr5 2.264388 1_555
C3 Zr5 2.264388 1_455
C3 Zr5 2.264393 1_565
C3 Zr0 2.399325 1_566
C3 Zr0 2.399328 1_666
C3 Zr0 2.399328 1_556
