# generated using pymatgen
data_Zr3SnIr2N
_symmetry_space_group_name_H-M   'P 1'
_cell_length_a   8.70822821
_cell_length_b   8.70831614
_cell_length_c   8.70823649
_cell_angle_alpha   60.00046490
_cell_angle_beta   60.00007889
_cell_angle_gamma   60.00014451
_symmetry_Int_Tables_number   1
_chemical_formula_structural   Zr3SnIr2N
_chemical_formula_sum   'Zr12 Sn4 Ir8 N4'
_cell_volume   466.96191866
_cell_formula_units_Z   4
loop_
 _symmetry_equiv_pos_site_id
 _symmetry_equiv_pos_as_xyz
  1  'x, y, z'
loop_
 _atom_site_type_symbol
 _atom_site_label
 _atom_site_symmetry_multiplicity
 _atom_site_fract_x
 _atom_site_fract_y
 _atom_site_fract_z
 _atom_site_occupancy
  Zr  Zr0  1  0.81282495  0.81281835  0.18717685  1
  Zr  Zr1  1  0.18718747  0.18718476  0.81281289  1
  Zr  Zr2  1  0.81281821  0.18718483  0.81281445  1
  Zr  Zr3  1  0.18718223  0.81281749  0.18717816  1
  Zr  Zr4  1  0.18718023  0.81281949  0.81282112  1
  Zr  Zr5  1  0.81281721  0.18718683  0.18718051  1
  Zr  Zr6  1  0.43717505  0.43718165  0.06282315  1
  Zr  Zr7  1  0.06281253  0.06281524  0.43718711  1
  Zr  Zr8  1  0.43718179  0.06281517  0.43718555  1
  Zr  Zr9  1  0.06281777  0.43718251  0.06282184  1
  Zr  Zr10  1  0.06281977  0.43718051  0.43717888  1
  Zr  Zr11  1  0.43718279  0.06281317  0.06281949  1
  Sn  Sn0  1  0.12500000  0.62500000  0.62500000  1
  Sn  Sn1  1  0.62500000  0.12500000  0.62500000  1
  Sn  Sn2  1  0.62500000  0.62500000  0.12500000  1
  Sn  Sn3  1  0.62500000  0.62500000  0.62500000  1
  Ir  Ir0  1  0.77323464  0.40891581  0.40892477  1
  Ir  Ir1  1  0.40891665  0.77323921  0.40892207  1
  Ir  Ir2  1  0.40892105  0.40891456  0.77324065  1
  Ir  Ir3  1  0.40892105  0.40891256  0.40892173  1
  Ir  Ir4  1  0.47676536  0.84108419  0.84107523  1
  Ir  Ir5  1  0.84108335  0.47676079  0.84107793  1
  Ir  Ir6  1  0.84107895  0.84108544  0.47675935  1
  Ir  Ir7  1  0.84107895  0.84108744  0.84107827  1
  N  N0  1  0.62500000  0.12500000  0.12500000  1
  N  N1  1  0.12500000  0.62500000  0.12500000  1
  N  N2  1  0.12500000  0.12500000  0.62500000  1
  N  N3  1  0.12500000  0.12500000  0.12500000  1
loop_
_geom_bond_atom_site_label_1
_geom_bond_atom_site_label_2
_geom_bond_distance
_geom_bond_site_symmetry_2
Sn0 Zr7 3.176448 1_565
Sn0 Zr1 3.176448 1_555
Sn0 Zr4 3.176462 1_555
Sn0 Zr10 3.176462 1_555
Sn0 Zr9 3.176475 1_556
Sn0 Zr3 3.176475 1_555
Sn1 Zr7 3.176385 1_655
Sn1 Zr1 3.176385 1_555
Sn1 Zr2 3.176423 1_555
Sn1 Zr8 3.176423 1_555
Sn1 Zr11 3.176442 1_556
Sn1 Zr5 3.176442 1_555
Sn2 Zr9 3.176436 1_655
Sn2 Zr3 3.176436 1_555
Sn2 Zr11 3.176437 1_565
Sn2 Zr5 3.176437 1_555
Sn2 Zr6 3.176464 1_555
Sn2 Zr0 3.176464 1_555
Sn3 Zr10 3.176451 1_655
Sn3 Zr4 3.176451 1_555
Sn3 Zr8 3.176451 1_565
Sn3 Zr2 3.176451 1_555
Sn3 Zr6 3.176491 1_556
Sn3 Zr0 3.176491 1_555
Ir0 Sn1 2.725850 1_555
Ir0 Sn3 2.725892 1_555
Ir0 Sn2 2.725896 1_555
Ir0 Zr7 2.789639 1_655
Ir0 Zr9 2.789651 1_655
Ir0 Zr10 2.789657 1_655
Ir0 Zr5 3.158042 1_555
Ir0 Zr2 3.158045 1_555
Ir0 Zr0 3.158190 1_555
Ir1 Sn0 2.725862 1_555
Ir1 Sn2 2.725891 1_555
Ir1 Sn3 2.725891 1_555
Ir1 Zr7 2.789640 1_565
Ir1 Zr11 2.789641 1_565
Ir1 Zr8 2.789651 1_565
Ir1 Zr3 3.158088 1_555
Ir1 Zr4 3.158091 1_555
Ir1 Zr0 3.158157 1_555
Ir2 Sn1 2.725858 1_555
Ir2 Sn0 2.725896 1_555
Ir2 Sn3 2.725924 1_555
Ir2 Zr9 2.789643 1_556
Ir2 Zr6 2.789647 1_556
Ir2 Zr11 2.789660 1_556
Ir2 Zr1 3.158018 1_555
Ir2 Zr2 3.158058 1_555
Ir2 Zr4 3.158164 1_555
Ir3 Sn1 2.725868 1_555
Ir3 Sn0 2.725915 1_555
Ir3 Sn2 2.725934 1_555
Ir3 Zr6 2.789599 1_555
Ir3 Zr10 2.789611 1_555
Ir3 Zr8 2.789612 1_555
Ir3 Zr1 3.158020 1_555
Ir3 Zr5 3.158042 1_555
Ir3 Zr3 3.158159 1_555
Ir4 Sn1 2.725850 1_565
Ir4 Sn3 2.725892 1_555
Ir4 Sn2 2.725896 1_556
Ir4 Zr1 2.789639 1_565
Ir4 Zr3 2.789651 1_556
Ir4 Zr4 2.789657 1_555
Ir4 Zr11 3.158042 1_566
Ir4 Zr8 3.158045 1_565
Ir4 Zr6 3.158190 1_556
Ir5 Sn0 2.725862 1_655
Ir5 Sn2 2.725891 1_556
Ir5 Sn3 2.725891 1_555
Ir5 Zr1 2.789640 1_655
Ir5 Zr5 2.789641 1_556
Ir5 Zr2 2.789651 1_555
Ir5 Zr9 3.158088 1_656
Ir5 Zr10 3.158091 1_655
Ir5 Zr6 3.158157 1_556
Ir6 Sn1 2.725858 1_565
Ir6 Sn0 2.725896 1_655
Ir6 Sn3 2.725924 1_555
Ir6 Zr3 2.789643 1_655
Ir6 Zr0 2.789647 1_555
Ir6 Zr5 2.789660 1_565
Ir6 Zr7 3.158018 1_665
Ir6 Zr8 3.158058 1_565
Ir6 Zr10 3.158164 1_655
Ir7 Sn1 2.725868 1_565
Ir7 Sn0 2.725915 1_655
Ir7 Sn2 2.725934 1_556
Ir7 Zr0 2.789599 1_556
Ir7 Zr4 2.789611 1_655
Ir7 Zr2 2.789612 1_565
Ir7 Zr7 3.158020 1_665
Ir7 Zr11 3.158042 1_566
Ir7 Zr9 3.158159 1_656
N0 Zr5 2.307831 1_555
N0 Zr11 2.307831 1_555
N0 Zr8 2.307845 1_555
N0 Zr2 2.307845 1_554
N0 Zr0 2.307855 1_545
N0 Zr6 2.307855 1_555
N1 Zr6 2.307779 1_555
N1 Zr0 2.307779 1_455
N1 Zr3 2.307801 1_555
N1 Zr9 2.307801 1_555
N1 Zr10 2.307818 1_555
N1 Zr4 2.307818 1_554
N2 Zr8 2.307808 1_555
N2 Zr2 2.307808 1_455
N2 Zr1 2.307826 1_555
N2 Zr7 2.307826 1_555
N2 Zr10 2.307847 1_555
N2 Zr4 2.307847 1_545
N3 Zr11 2.307815 1_555
N3 Zr5 2.307815 1_455
N3 Zr7 2.307846 1_555
N3 Zr1 2.307846 1_554
N3 Zr9 2.307858 1_555
N3 Zr3 2.307858 1_545
