# generated using pymatgen
data_K2Te3RhO12
_symmetry_space_group_name_H-M   'P 1'
_cell_length_a   7.02973134
_cell_length_b   7.02973198
_cell_length_c   7.05550293
_cell_angle_alpha   61.53422305
_cell_angle_beta   61.53421566
_cell_angle_gamma   61.38305070
_symmetry_Int_Tables_number   1
_chemical_formula_structural   K2Te3RhO12
_chemical_formula_sum   'K2 Te3 Rh1 O12'
_cell_volume   254.75340516
_cell_formula_units_Z   1
loop_
 _symmetry_equiv_pos_site_id
 _symmetry_equiv_pos_as_xyz
  1  'x, y, z'
loop_
 _atom_site_type_symbol
 _atom_site_label
 _atom_site_symmetry_multiplicity
 _atom_site_fract_x
 _atom_site_fract_y
 _atom_site_fract_z
 _atom_site_occupancy
  K  K0  1  0.85703412  0.87445545  0.38032963  1
  K  K1  1  0.12554455  0.14296588  0.61967037  1
  Te  Te0  1  0.99637574  0.50372617  0.99997839  1
  Te  Te1  1  0.49627383  0.00362426  0.00002161  1
  Te  Te2  1  0.49638680  0.50361320  0.50000000  1
  Rh  Rh0  1  0.49636705  0.50363295  0.00000000  1
  O  O0  1  0.17318047  0.18033194  0.06502087  1
  O  O1  1  0.57694207  0.58259353  0.66353732  1
  O  O2  1  0.16703117  0.56999589  0.08892606  1
  O  O3  1  0.57327990  0.18160688  0.68113897  1
  O  O4  1  0.56335611  0.17415896  0.08820003  1
  O  O5  1  0.17466210  0.57974572  0.68120597  1
  O  O6  1  0.81966806  0.82681953  0.93497913  1
  O  O7  1  0.41740647  0.42305793  0.33646268  1
  O  O8  1  0.82584104  0.43664389  0.91179997  1
  O  O9  1  0.42025428  0.82533790  0.31879403  1
  O  O10  1  0.43000411  0.83296883  0.91107394  1
  O  O11  1  0.81839312  0.42672010  0.31886103  1
loop_
_geom_bond_atom_site_label_1
_geom_bond_atom_site_label_2
_geom_bond_distance
_geom_bond_site_symmetry_2
K0 O1 2.879269 1_555
K0 O4 2.949476 1_565
K0 O2 3.002126 1_655
K0 O3 3.058189 1_565
K0 O5 3.111106 1_655
K0 O0 3.133090 1_665
K1 O7 2.879269 1_555
K1 O8 2.949475 1_455
K1 O10 3.002126 1_545
K1 O11 3.058189 1_455
K1 O9 3.111106 1_545
K1 O6 3.133090 1_445
O0 Te1 1.938953 1_555
O0 Te0 1.940670 1_454
O1 Te2 1.869490 1_555
O1 Rh0 2.006903 1_556
O2 Te0 1.892561 1_454
O2 Rh0 1.957277 1_555
O3 Te1 1.929964 1_556
O3 Te2 1.943761 1_555
O4 Te1 1.891765 1_555
O4 Rh0 1.958065 1_555
O5 Te0 1.929650 1_455
O5 Te2 1.942275 1_555
O6 Te0 1.938953 1_555
O6 Te1 1.940670 1_566
O7 Te2 1.869490 1_555
O7 Rh0 2.006903 1_555
O8 Te0 1.891764 1_555
O8 Rh0 1.958065 1_556
O9 Te1 1.929650 1_565
O9 Te2 1.942275 1_555
O10 Te1 1.892561 1_566
O10 Rh0 1.957278 1_556
O11 Te0 1.929963 1_554
O11 Te2 1.943761 1_555
