# generated using pymatgen
data_Hf6Al16RuPt6
_symmetry_space_group_name_H-M   'P 1'
_cell_length_a   8.67536650
_cell_length_b   8.67536670
_cell_length_c   8.67536694
_cell_angle_alpha   59.99999538
_cell_angle_beta   59.99999461
_cell_angle_gamma   59.99999503
_symmetry_Int_Tables_number   1
_chemical_formula_structural   Hf6Al16RuPt6
_chemical_formula_sum   'Hf6 Al16 Ru1 Pt6'
_cell_volume   461.68788432
_cell_formula_units_Z   1
loop_
 _symmetry_equiv_pos_site_id
 _symmetry_equiv_pos_as_xyz
  1  'x, y, z'
loop_
 _atom_site_type_symbol
 _atom_site_label
 _atom_site_symmetry_multiplicity
 _atom_site_fract_x
 _atom_site_fract_y
 _atom_site_fract_z
 _atom_site_occupancy
  Hf  Hf0  1  0.68365503  0.31634397  0.31634397  1
  Hf  Hf1  1  0.31634397  0.68365503  0.68365503  1
  Hf  Hf2  1  0.31634397  0.68365503  0.31634397  1
  Hf  Hf3  1  0.31634397  0.31634397  0.68365503  1
  Hf  Hf4  1  0.68365503  0.31634397  0.68365503  1
  Hf  Hf5  1  0.68365503  0.68365503  0.31634397  1
  Al  Al0  1  0.33481332  0.33481332  0.33481332  1
  Al  Al1  1  0.33481332  0.33481332  0.99555903  1
  Al  Al2  1  0.99555903  0.33481332  0.33481332  1
  Al  Al3  1  0.33481332  0.99555903  0.33481332  1
  Al  Al4  1  0.66518668  0.66518668  0.66518668  1
  Al  Al5  1  0.66518668  0.66518668  0.00444097  1
  Al  Al6  1  0.66518668  0.00444097  0.66518668  1
  Al  Al7  1  0.00444097  0.66518668  0.66518668  1
  Al  Al8  1  0.11797947  0.11797947  0.11797947  1
  Al  Al9  1  0.11797947  0.11797947  0.64606158  1
  Al  Al10  1  0.64606158  0.11797947  0.11797947  1
  Al  Al11  1  0.11797947  0.64606158  0.11797947  1
  Al  Al12  1  0.88201953  0.88201953  0.88201953  1
  Al  Al13  1  0.88201953  0.88201953  0.35394142  1
  Al  Al14  1  0.88201953  0.35394142  0.88201953  1
  Al  Al15  1  0.35394142  0.88201953  0.88201953  1
  Ru  Ru0  1  0.00000000  0.00000000  0.00000000  1
  Pt  Pt0  1  0.50000000  0.00000000  0.00000000  1
  Pt  Pt1  1  0.00000000  0.50000000  0.50000000  1
  Pt  Pt2  1  0.00000000  0.50000000  0.00000000  1
  Pt  Pt3  1  0.00000000  0.00000000  0.50000000  1
  Pt  Pt4  1  0.50000000  0.00000000  0.50000000  1
  Pt  Pt5  1  0.50000000  0.50000000  0.00000000  1
loop_
_geom_bond_atom_site_label_1
_geom_bond_atom_site_label_2
_geom_bond_distance
_geom_bond_site_symmetry_2
Hf0 Pt4 3.173365 1_555
Hf0 Pt5 3.173365 1_555
Hf0 Pt2 3.173377 1_655
Hf0 Pt3 3.173377 1_655
Hf0 Hf2 3.186558 1_555
Hf0 Hf3 3.186558 1_555
Hf0 Hf5 3.186558 1_555
Hf0 Hf4 3.186558 1_555
Hf1 Pt2 3.173368 1_556
Hf1 Pt3 3.173368 1_565
Hf1 Pt4 3.173380 1_565
Hf1 Pt5 3.173380 1_556
Hf1 Hf4 3.186558 1_555
Hf1 Hf5 3.186558 1_555
Hf1 Hf3 3.186558 1_555
Hf1 Hf2 3.186558 1_555
Hf2 Pt1 3.173365 1_555
Hf2 Pt5 3.173365 1_555
Hf2 Pt3 3.173377 1_565
Hf2 Pt0 3.173377 1_565
Hf2 Hf3 3.186558 1_555
Hf2 Hf5 3.186558 1_555
Hf3 Pt1 3.173365 1_555
Hf3 Pt4 3.173365 1_555
Hf3 Pt2 3.173377 1_556
Hf3 Pt0 3.173377 1_556
Hf3 Hf4 3.186558 1_555
Hf4 Pt3 3.173368 1_655
Hf4 Pt0 3.173368 1_556
Hf4 Pt1 3.173380 1_655
Hf4 Pt5 3.173380 1_556
Hf4 Hf5 3.186558 1_555
Hf5 Pt2 3.173368 1_655
Hf5 Pt0 3.173368 1_565
Hf5 Pt1 3.173380 1_655
Hf5 Pt4 3.173380 1_565
Al0 Pt1 2.504560 1_555
Al0 Pt4 2.504560 1_555
Al0 Pt5 2.504560 1_555
Al0 Hf0 2.875045 1_555
Al0 Hf2 2.875045 1_555
Al0 Hf3 2.875045 1_555
Al1 Pt2 2.504558 1_556
Al1 Pt0 2.504558 1_556
Al1 Pt5 2.504565 1_556
Al1 Hf4 2.875049 1_555
Al1 Hf1 2.875049 1_555
Al1 Hf3 2.875054 1_555
Al2 Pt3 2.504558 1_655
Al2 Pt2 2.504558 1_655
Al2 Pt1 2.504565 1_655
Al2 Hf5 2.875049 1_555
Al2 Hf4 2.875049 1_555
Al2 Hf0 2.875054 1_555
Al3 Pt3 2.504558 1_565
Al3 Pt0 2.504558 1_565
Al3 Pt4 2.504565 1_565
Al3 Hf5 2.875048 1_555
Al3 Hf1 2.875049 1_555
Al3 Hf2 2.875054 1_555
Al4 Pt1 2.504560 1_655
Al4 Pt4 2.504560 1_565
Al4 Pt5 2.504560 1_556
Al4 Hf1 2.875061 1_555
Al4 Hf4 2.875061 1_555
Al4 Hf5 2.875061 1_555
Al5 Pt2 2.504558 1_655
Al5 Pt0 2.504558 1_565
Al5 Pt5 2.504565 1_555
Al5 Hf5 2.875035 1_555
Al5 Hf2 2.875049 1_555
Al5 Hf0 2.875050 1_555
Al6 Pt3 2.504558 1_655
Al6 Pt0 2.504558 1_556
Al6 Pt4 2.504565 1_555
Al6 Hf4 2.875035 1_555
Al6 Hf3 2.875049 1_555
Al6 Hf0 2.875050 1_555
Al7 Pt3 2.504558 1_565
Al7 Pt2 2.504558 1_556
Al7 Pt1 2.504565 1_555
Al7 Hf1 2.875035 1_555
Al7 Hf3 2.875049 1_555
Al7 Hf2 2.875049 1_555
Al8 Ru0 2.507090 1_555
Al8 Pt0 2.709660 1_555
Al8 Pt2 2.709660 1_555
Al8 Pt3 2.709660 1_555
Al8 Hf0 3.180134 1_455
Al8 Hf2 3.180135 1_545
Al8 Hf3 3.180135 1_554
Al9 Ru0 2.507090 1_556
Al9 Pt4 2.709660 1_555
Al9 Pt1 2.709660 1_555
Al9 Pt3 2.709660 1_555
Al9 Hf3 3.180124 1_555
Al9 Hf4 3.180138 1_455
Al9 Hf1 3.180138 1_545
Al10 Ru0 2.507090 1_655
Al10 Pt5 2.709660 1_555
Al10 Pt4 2.709660 1_555
Al10 Pt0 2.709660 1_555
Al10 Hf0 3.180124 1_555
Al10 Hf5 3.180138 1_545
Al10 Hf4 3.180139 1_554
Al11 Ru0 2.507090 1_565
Al11 Pt5 2.709660 1_555
Al11 Pt1 2.709660 1_555
Al11 Pt2 2.709660 1_555
Al11 Hf2 3.180124 1_555
Al11 Hf5 3.180138 1_455
Al11 Hf1 3.180139 1_554
Al12 Ru0 2.507111 1_666
Al12 Pt0 2.709652 1_566
Al12 Pt2 2.709652 1_656
Al12 Pt3 2.709652 1_665
Al12 Hf1 3.180134 1_655
Al12 Hf4 3.180135 1_565
Al12 Hf5 3.180135 1_556
Al13 Ru0 2.507111 1_665
Al13 Pt4 2.709652 1_565
Al13 Pt1 2.709652 1_655
Al13 Pt3 2.709652 1_665
Al13 Hf2 3.180131 1_655
Al13 Hf0 3.180131 1_565
Al13 Hf5 3.180146 1_555
Al14 Ru0 2.507111 1_656
Al14 Pt5 2.709652 1_556
Al14 Pt1 2.709652 1_655
Al14 Pt2 2.709652 1_656
Al14 Hf3 3.180131 1_655
Al14 Hf0 3.180131 1_556
Al14 Hf4 3.180146 1_555
Al15 Ru0 2.507111 1_566
Al15 Pt5 2.709652 1_556
Al15 Pt4 2.709652 1_565
Al15 Pt0 2.709652 1_566
Al15 Hf3 3.180131 1_565
Al15 Hf2 3.180131 1_556
Al15 Hf1 3.180146 1_555
