# generated using pymatgen
data_RbCr2Rh3Se8
_symmetry_space_group_name_H-M   'P 1'
_cell_length_a   9.62379098
_cell_length_b   9.62379118
_cell_length_c   8.93250432
_cell_angle_alpha   74.92269059
_cell_angle_beta   74.92269151
_cell_angle_gamma   22.19998573
_symmetry_Int_Tables_number   1
_chemical_formula_structural   RbCr2Rh3Se8
_chemical_formula_sum   'Rb1 Cr2 Rh3 Se8'
_cell_volume   301.40681934
_cell_formula_units_Z   1
loop_
 _symmetry_equiv_pos_site_id
 _symmetry_equiv_pos_as_xyz
  1  'x, y, z'
loop_
 _atom_site_type_symbol
 _atom_site_label
 _atom_site_symmetry_multiplicity
 _atom_site_fract_x
 _atom_site_fract_y
 _atom_site_fract_z
 _atom_site_occupancy
  Rb  Rb0  1  0.50268856  0.50268856  0.49691481  1
  Cr  Cr0  1  0.34381458  0.34381458  0.98176215  1
  Cr  Cr1  1  0.70295675  0.70295675  0.66889272  1
  Rh  Rh0  1  0.99663302  0.99663302  0.00125481  1
  Rh  Rh1  1  0.29391544  0.29391544  0.32545569  1
  Rh  Rh2  1  0.66167585  0.66167585  0.01741793  1
  Se  Se0  1  0.24063437  0.24063437  0.84607225  1
  Se  Se1  1  0.42712801  0.42712801  0.16341705  1
  Se  Se2  1  0.57266346  0.57266346  0.85956720  1
  Se  Se3  1  0.91338460  0.91338460  0.82357576  1
  Se  Se4  1  0.08743943  0.08743943  0.16030955  1
  Se  Se5  1  0.82643949  0.82643949  0.48267091  1
  Se  Se6  1  0.16951980  0.16951980  0.51263636  1
  Se  Se7  1  0.76110765  0.76110765  0.16005381  1
loop_
_geom_bond_atom_site_label_1
_geom_bond_atom_site_label_2
_geom_bond_distance
_geom_bond_site_symmetry_2
Rb0 Se3 3.490376 1_545
Rb0 Se3 3.490376 1_455
Rb0 Se4 3.533261 1_565
Rb0 Se4 3.533261 1_655
Rb0 Se1 3.628357 1_555
Rb0 Se6 3.690003 1_655
Rb0 Se6 3.690003 1_565
Rb0 Se2 3.809232 1_555
Rb0 Se5 3.841248 1_455
Rb0 Se5 3.841248 1_545
Cr0 Se3 2.484283 1_455
Cr0 Se3 2.484283 1_545
Cr0 Se1 2.542202 1_556
Cr0 Se0 2.553279 1_555
Cr0 Se7 2.662793 1_546
Cr0 Se7 2.662793 1_456
Cr0 Rh1 2.963011 1_556
Cr1 Se5 2.479863 1_555
Cr1 Se6 2.499430 1_565
Cr1 Se6 2.499430 1_655
Cr1 Se2 2.595161 1_555
Cr1 Se0 2.653520 1_655
Cr1 Se0 2.653520 1_565
Rh0 Se2 2.476541 1_654
Rh0 Se2 2.476541 1_564
Rh0 Se1 2.499253 1_655
Rh0 Se1 2.499253 1_565
Rh0 Se4 2.500403 1_665
Rh0 Se3 2.512822 1_554
Rh1 Se6 2.496626 1_555
Rh1 Se5 2.497935 1_545
Rh1 Se5 2.497936 1_455
Rh1 Se7 2.546575 1_455
Rh1 Se7 2.546575 1_545
Rh1 Se1 2.548490 1_555
Rh2 Se2 2.464017 1_554
Rh2 Se4 2.465596 1_565
Rh2 Se4 2.465596 1_655
Rh2 Se7 2.533542 1_555
Rh2 Se0 2.605637 1_564
Rh2 Se0 2.605637 1_654
