# generated using pymatgen
data_LuHfPRh6
_symmetry_space_group_name_H-M   'P 1'
_cell_length_a   5.81792230
_cell_length_b   5.81792189
_cell_length_c   5.81792275
_cell_angle_alpha   59.99999512
_cell_angle_beta   59.99999747
_cell_angle_gamma   59.99999914
_symmetry_Int_Tables_number   1
_chemical_formula_structural   LuHfPRh6
_chemical_formula_sum   'Lu1 Hf1 P1 Rh6'
_cell_volume   139.24792387
_cell_formula_units_Z   1
loop_
 _symmetry_equiv_pos_site_id
 _symmetry_equiv_pos_as_xyz
  1  'x, y, z'
loop_
 _atom_site_type_symbol
 _atom_site_label
 _atom_site_symmetry_multiplicity
 _atom_site_fract_x
 _atom_site_fract_y
 _atom_site_fract_z
 _atom_site_occupancy
  Lu  Lu0  1  0.25000100  0.25000100  0.25000100  1
  Hf  Hf0  1  0.75000000  0.75000000  0.75000000  1
  P  P0  1  0.50000000  0.50000000  0.50000000  1
  Rh  Rh0  1  0.76551422  0.23448578  0.23448578  1
  Rh  Rh1  1  0.23448578  0.76551422  0.23448578  1
  Rh  Rh2  1  0.76551422  0.76551422  0.23448578  1
  Rh  Rh3  1  0.23448578  0.23448578  0.76551422  1
  Rh  Rh4  1  0.76551422  0.23448578  0.76551422  1
  Rh  Rh5  1  0.23448578  0.76551422  0.76551422  1
loop_
_geom_bond_atom_site_label_1
_geom_bond_atom_site_label_2
_geom_bond_distance
_geom_bond_site_symmetry_2
Lu0 Rh1 2.911749 1_555
Lu0 Rh0 2.911749 1_555
Lu0 Rh3 2.911749 1_555
Lu0 Rh5 2.911760 1_554
Lu0 Rh5 2.911760 1_545
Lu0 Rh2 2.911760 1_455
Lu0 Rh2 2.911760 1_545
Lu0 Rh4 2.911760 1_554
Lu0 Rh4 2.911760 1_455
Lu0 Rh1 2.911772 1_545
Lu0 Rh0 2.911772 1_455
Lu0 Rh3 2.911773 1_554
Hf0 Rh0 2.911760 1_556
Hf0 Rh4 2.911760 1_555
Hf0 Rh4 2.911760 1_565
Hf0 Rh0 2.911760 1_565
Hf0 Rh3 2.911760 1_655
Hf0 Rh3 2.911760 1_565
Hf0 Rh1 2.911760 1_556
Hf0 Rh5 2.911760 1_555
Hf0 Rh5 2.911760 1_655
Hf0 Rh1 2.911760 1_655
Hf0 Rh2 2.911761 1_556
Hf0 Rh2 2.911761 1_555
P0 Rh2 2.184594 1_555
P0 Rh3 2.184594 1_555
P0 Rh5 2.184594 1_555
P0 Rh4 2.184594 1_555
P0 Rh0 2.184594 1_555
P0 Rh1 2.184594 1_555
