# generated using pymatgen
data_Sr3Ca2Sb3H
_symmetry_space_group_name_H-M   'P 1'
_cell_length_a   9.34203569
_cell_length_b   9.34203462
_cell_length_c   7.06428574
_cell_angle_alpha   90.00000000
_cell_angle_beta   90.00000000
_cell_angle_gamma   120.00000028
_symmetry_Int_Tables_number   1
_chemical_formula_structural   Sr3Ca2Sb3H
_chemical_formula_sum   'Sr6 Ca4 Sb6 H2'
_cell_volume   533.92699891
_cell_formula_units_Z   2
loop_
 _symmetry_equiv_pos_site_id
 _symmetry_equiv_pos_as_xyz
  1  'x, y, z'
loop_
 _atom_site_type_symbol
 _atom_site_label
 _atom_site_symmetry_multiplicity
 _atom_site_fract_x
 _atom_site_fract_y
 _atom_site_fract_z
 _atom_site_occupancy
  Sr  Sr0  1  0.75417159  0.75417159  0.25000000  1
  Sr  Sr1  1  0.75417159  0.00000000  0.75000000  1
  Sr  Sr2  1  0.00000000  0.24582841  0.25000000  1
  Sr  Sr3  1  1.00000000  0.75417159  0.75000000  1
  Sr  Sr4  1  0.24582841  0.24582841  0.75000000  1
  Sr  Sr5  1  0.24582841  0.00000000  0.25000000  1
  Ca  Ca0  1  0.33333300  0.66666700  0.50000000  1
  Ca  Ca1  1  0.66666700  0.33333300  0.00000000  1
  Ca  Ca2  1  0.66666700  0.33333300  0.50000000  1
  Ca  Ca3  1  0.33333300  0.66666700  0.00000000  1
  Sb  Sb0  1  0.39541222  0.00000000  0.75000000  1
  Sb  Sb1  1  0.39541222  0.39541222  0.25000000  1
  Sb  Sb2  1  0.00000000  0.60458778  0.25000000  1
  Sb  Sb3  1  1.00000000  0.39541222  0.75000000  1
  Sb  Sb4  1  0.60458778  0.60458778  0.75000000  1
  Sb  Sb5  1  0.60458778  1.00000000  0.25000000  1
  H  H0  1  0.00000000  0.00000000  0.50000000  1
  H  H1  1  0.00000000  0.00000000  0.00000000  1
loop_
_geom_bond_atom_site_label_1
_geom_bond_atom_site_label_2
_geom_bond_distance
_geom_bond_site_symmetry_2
Ca0 Sb0 3.368447 1_565
Ca0 Sb2 3.368448 1_555
Ca0 Sb5 3.368450 1_555
Ca0 Sb3 3.368450 1_455
Ca0 Sb1 3.368455 1_555
Ca0 Sb4 3.368455 1_555
Ca1 Sb5 3.368447 1_545
Ca1 Sb3 3.368448 1_554
Ca1 Sb0 3.368450 1_554
Ca1 Sb2 3.368450 1_655
Ca1 Sb4 3.368455 1_554
Ca1 Sb1 3.368455 1_555
Ca2 Sb5 3.368447 1_545
Ca2 Sb3 3.368448 1_555
Ca2 Sb0 3.368450 1_555
Ca2 Sb2 3.368450 1_655
Ca2 Sb4 3.368455 1_555
Ca2 Sb1 3.368455 1_555
Ca3 Sb0 3.368447 1_564
Ca3 Sb2 3.368448 1_555
Ca3 Sb5 3.368450 1_555
Ca3 Sb3 3.368450 1_454
Ca3 Sb1 3.368455 1_555
Ca3 Sb4 3.368455 1_554
Sb0 Sr4 3.230492 1_555
Sb0 Sr3 3.230493 1_445
Sb0 Sr1 3.351543 1_555
Sb0 Sr5 3.798527 1_555
Sb0 Sr5 3.798527 1_556
Sb1 Sr5 3.230492 1_555
Sb1 Sr2 3.230493 1_555
Sb1 Sr0 3.351543 1_555
Sb1 Sr4 3.798527 1_555
Sb1 Sr4 3.798527 1_554
Sb2 Sr5 3.230492 1_565
Sb2 Sr0 3.230492 1_455
Sb2 Sr2 3.351542 1_555
Sb2 Sr3 3.798527 1_455
Sb2 Sr3 3.798527 1_454
Sb3 Sr1 3.230492 1_555
Sb3 Sr4 3.230492 1_655
Sb3 Sr3 3.351542 1_555
Sb3 Sr2 3.798527 1_655
Sb3 Sr2 3.798527 1_656
Sb4 Sr1 3.230492 1_565
Sb4 Sr3 3.230493 1_555
Sb4 Sr4 3.351543 1_555
Sb4 Sr0 3.798527 1_555
Sb4 Sr0 3.798527 1_556
Sb5 Sr0 3.230492 1_555
Sb5 Sr2 3.230493 1_665
Sb5 Sr5 3.351543 1_565
Sb5 Sr1 3.798527 1_565
Sb5 Sr1 3.798527 1_564
H0 Sr2 2.897084 1_555
H0 Sr3 2.897084 1_445
H0 Sr4 2.897084 1_555
H0 Sr0 2.897084 1_445
H0 Sr5 2.897084 1_555
H0 Sr1 2.897084 1_455
H1 Sr2 2.897084 1_555
H1 Sr3 2.897084 1_444
H1 Sr4 2.897084 1_554
H1 Sr0 2.897084 1_445
H1 Sr5 2.897084 1_555
H1 Sr1 2.897084 1_454
