# generated using pymatgen
data_Na3CoO3
_symmetry_space_group_name_H-M   'P 1'
_cell_length_a   5.66117035
_cell_length_b   5.84273886
_cell_length_c   6.30360749
_cell_angle_alpha   115.33598130
_cell_angle_beta   89.16638966
_cell_angle_gamma   94.55894087
_symmetry_Int_Tables_number   1
_chemical_formula_structural   Na3CoO3
_chemical_formula_sum   'Na6 Co2 O6'
_cell_volume   187.80765940
_cell_formula_units_Z   2
loop_
 _symmetry_equiv_pos_site_id
 _symmetry_equiv_pos_as_xyz
  1  'x, y, z'
loop_
 _atom_site_type_symbol
 _atom_site_label
 _atom_site_symmetry_multiplicity
 _atom_site_fract_x
 _atom_site_fract_y
 _atom_site_fract_z
 _atom_site_occupancy
  Na  Na0  1  0.94157079  0.77167751  0.55650095  1
  Na  Na1  1  0.14596157  0.23202540  0.98078215  1
  Na  Na2  1  0.85403843  0.76797460  0.01921785  1
  Na  Na3  1  0.43596533  0.74494505  0.74169208  1
  Na  Na4  1  0.05842921  0.22832249  0.44349905  1
  Na  Na5  1  0.56403467  0.25505495  0.25830792  1
  Co  Co0  1  0.35946542  0.80719195  0.30808718  1
  Co  Co1  1  0.64053458  0.19280805  0.69191282  1
  O  O0  1  0.25760339  0.52821595  0.34561919  1
  O  O1  1  0.74239661  0.47178405  0.65438081  1
  O  O2  1  0.24551614  0.90572869  0.09883701  1
  O  O3  1  0.30587571  0.07464593  0.62461957  1
  O  O4  1  0.75448386  0.09427131  0.90116299  1
  O  O5  1  0.69412429  0.92535407  0.37538043  1
loop_
_geom_bond_atom_site_label_1
_geom_bond_atom_site_label_2
_geom_bond_distance
_geom_bond_site_symmetry_2
Na0 O5 2.279454 1_555
Na0 O1 2.305042 1_555
Na0 O0 2.389244 1_655
Na0 O4 2.477957 1_565
Na0 O3 2.523134 1_665
Na1 O3 2.238740 1_555
Na1 O0 2.268375 1_556
Na1 O4 2.283509 1_455
Na1 O2 2.429668 1_546
Na2 O5 2.238740 1_555
Na2 O1 2.268375 1_554
Na2 O2 2.283509 1_655
Na2 O4 2.429668 1_564
Na3 O2 2.322421 1_556
Na3 O1 2.349493 1_555
Na3 O0 2.453733 1_555
Na3 O4 2.477798 1_565
Na3 O3 2.501172 1_565
Na4 O3 2.279454 1_555
Na4 O0 2.305042 1_555
Na4 O1 2.389244 1_455
Na4 O2 2.477957 1_545
Na4 O5 2.523134 1_445
Na5 O4 2.322421 1_554
Na5 O0 2.349493 1_555
Na5 O1 2.453733 1_555
Na5 O2 2.477798 1_545
Na5 O5 2.501172 1_545
Co0 O2 1.794761 1_555
Co0 O0 1.794995 1_555
Co0 O5 1.952114 1_555
Co0 O3 1.975953 1_565
Co1 O4 1.794761 1_555
Co1 O1 1.794995 1_555
Co1 O3 1.952114 1_555
Co1 O5 1.975953 1_545
