# generated using pymatgen
data_CsRb3(SbPt)4
_symmetry_space_group_name_H-M   'P 1'
_cell_length_a   7.21998243
_cell_length_b   7.21998185
_cell_length_c   7.21998247
_cell_angle_alpha   90.22119696
_cell_angle_beta   89.77880368
_cell_angle_gamma   90.22119687
_symmetry_Int_Tables_number   1
_chemical_formula_structural   CsRb3(SbPt)4
_chemical_formula_sum   'Cs1 Rb3 Sb4 Pt4'
_cell_volume   376.35587933
_cell_formula_units_Z   1
loop_
 _symmetry_equiv_pos_site_id
 _symmetry_equiv_pos_as_xyz
  1  'x, y, z'
loop_
 _atom_site_type_symbol
 _atom_site_label
 _atom_site_symmetry_multiplicity
 _atom_site_fract_x
 _atom_site_fract_y
 _atom_site_fract_z
 _atom_site_occupancy
  Cs  Cs0  1  0.86139475  0.63860525  0.36139475  1
  Rb  Rb0  1  0.63762444  0.36121311  0.86229869  1
  Rb  Rb1  1  0.36229869  0.86237556  0.63878689  1
  Rb  Rb2  1  0.13878689  0.13770131  0.13762444  1
  Sb  Sb0  1  0.15488148  0.34511852  0.65488148  1
  Sb  Sb1  1  0.65285711  0.15318767  0.34723834  1
  Sb  Sb2  1  0.34681233  0.65276166  0.15285711  1
  Sb  Sb3  1  0.84723834  0.84714289  0.84681233  1
  Pt  Pt0  1  0.59841044  0.90158956  0.09841044  1
  Pt  Pt1  1  0.10070022  0.60066472  0.89965903  1
  Pt  Pt2  1  0.39965903  0.39929978  0.39933528  1
  Pt  Pt3  1  0.89933528  0.10034097  0.60070022  1
loop_
_geom_bond_atom_site_label_1
_geom_bond_atom_site_label_2
_geom_bond_distance
_geom_bond_site_symmetry_2
Cs0 Pt0 3.301390 1_555
Cs0 Sb0 3.684304 1_655
Cs0 Pt3 3.758471 1_565
Cs0 Pt2 3.758472 1_555
Cs0 Pt1 3.758472 1_654
Cs0 Sb1 3.810254 1_555
Cs0 Sb3 3.810254 1_555
Cs0 Sb2 3.810254 1_655
Rb0 Sb2 3.634059 1_556
Rb0 Sb0 3.799996 1_555
Rb0 Sb1 3.817272 1_556
Rb0 Sb3 3.817399 1_555
Rb1 Sb1 3.634059 1_565
Rb1 Sb0 3.799996 1_565
Rb1 Sb3 3.817272 1_555
Rb1 Sb2 3.817399 1_555
Rb2 Sb3 3.634059 1_444
Rb2 Sb0 3.799996 1_554
Rb2 Sb2 3.817271 1_545
Rb2 Sb1 3.817399 1_455
Pt0 Sb1 2.580038 1_565
Pt0 Sb2 2.580038 1_555
Pt0 Sb3 2.580039 1_554
Pt0 Rb0 3.745825 1_564
Pt0 Rb2 3.745825 1_565
Pt0 Rb1 3.745825 1_554
Pt1 Sb2 2.579816 1_556
Pt1 Sb0 2.579839 1_555
Pt1 Sb3 2.587873 1_455
Pt1 Rb1 3.264615 1_555
Pt1 Rb0 3.768114 1_455
Pt1 Rb2 3.775643 1_556
Pt2 Sb1 2.579816 1_555
Pt2 Sb0 2.579839 1_555
Pt2 Sb2 2.587873 1_555
Pt2 Rb2 3.264615 1_555
Pt2 Rb1 3.768114 1_555
Pt2 Rb0 3.775644 1_555
Pt3 Sb3 2.579816 1_545
Pt3 Sb0 2.579839 1_655
Pt3 Sb1 2.587873 1_555
Pt3 Rb0 3.264615 1_555
Pt3 Rb2 3.768114 1_655
Pt3 Rb1 3.775644 1_645
