# generated using pymatgen
data_Rb5Ti(MoH9)3
_symmetry_space_group_name_H-M   'P 1'
_cell_length_a   9.70368845
_cell_length_b   9.22272651
_cell_length_c   5.32431002
_cell_angle_alpha   90.00000000
_cell_angle_beta   90.00000000
_cell_angle_gamma   118.37353099
_symmetry_Int_Tables_number   1
_chemical_formula_structural   Rb5Ti(MoH9)3
_chemical_formula_sum   'Rb5 Ti1 Mo3 H27'
_cell_volume   419.25392182
_cell_formula_units_Z   1
loop_
 _symmetry_equiv_pos_site_id
 _symmetry_equiv_pos_as_xyz
  1  'x, y, z'
loop_
 _atom_site_type_symbol
 _atom_site_label
 _atom_site_symmetry_multiplicity
 _atom_site_fract_x
 _atom_site_fract_y
 _atom_site_fract_z
 _atom_site_occupancy
  Rb  Rb0  1  0.72772386  0.75365824  0.50000000  1
  Rb  Rb1  1  0.27227614  0.02593438  0.50000000  1
  Rb  Rb2  1  0.00000000  0.63251081  0.00000000  1
  Rb  Rb3  1  0.43480793  0.38362245  0.00000000  1
  Rb  Rb4  1  0.56519207  0.94881452  0.00000000  1
  Ti  Ti0  1  1.00000000  0.27306625  0.50000000  1
  Mo  Mo0  1  0.72420781  0.32304058  0.50000000  1
  Mo  Mo1  1  0.27579219  0.59883377  0.50000000  1
  Mo  Mo2  1  1.00000000  0.07018176  0.00000000  1
  H  H0  1  0.88751335  0.34821366  0.69498538  1
  H  H1  1  0.71357355  0.40817049  0.77560777  1
  H  H2  1  0.57485282  0.18726318  0.69389893  1
  H  H3  1  0.11248665  0.46070131  0.30501462  1
  H  H4  1  0.57485282  0.18726318  0.30610107  1
  H  H5  1  0.88751335  0.34821366  0.30501462  1
  H  H6  1  0.71357355  0.40817049  0.22439223  1
  H  H7  1  0.28642645  0.69459694  0.77560777  1
  H  H8  1  0.42514718  0.61241136  0.69389893  1
  H  H9  1  0.17628906  0.06894084  0.00000000  1
  H  H10  1  0.82371094  0.89265178  0.00000000  1
  H  H11  1  0.00000000  0.25988222  0.00000000  1
  H  H12  1  0.88136168  0.07597710  0.24967793  1
  H  H13  1  0.11863832  0.19461541  0.75032207  1
  H  H14  1  1.00000000  0.92834002  0.78399605  1
  H  H15  1  1.00000000  0.92834002  0.21600395  1
  H  H16  1  0.11863832  0.19461541  0.24967793  1
  H  H17  1  0.88136168  0.07597710  0.75032207  1
  H  H18  1  0.16323812  0.69781845  0.50000000  1
  H  H19  1  0.42538580  0.80342109  0.50000000  1
  H  H20  1  0.23970462  0.38706594  0.50000000  1
  H  H21  1  0.57461420  0.37803630  0.50000000  1
  H  H22  1  0.83676188  0.53458033  0.50000000  1
  H  H23  1  0.76029538  0.14736132  0.50000000  1
  H  H24  1  0.11248665  0.46070131  0.69498538  1
  H  H25  1  0.28642645  0.69459694  0.22439223  1
  H  H26  1  0.42514718  0.61241136  0.30610107  1
loop_
_geom_bond_atom_site_label_1
_geom_bond_atom_site_label_2
_geom_bond_distance
_geom_bond_site_symmetry_2
H0 Mo0 1.814712 1_555
H0 Ti0 1.862412 1_555
H0 Rb2 2.825511 1_656
H1 Mo0 1.690386 1_555
H1 Rb2 2.822708 1_656
H1 Rb3 2.865990 1_556
H2 Mo0 1.734776 1_555
H2 Rb4 2.702826 1_546
H2 Rb1 2.783574 1_555
H3 Mo1 1.814712 1_555
H3 Ti0 1.862417 1_455
H3 Rb2 2.825504 1_555
H4 Mo0 1.734776 1_555
H4 Rb4 2.702826 1_545
H4 Rb1 2.783574 1_555
H5 Mo0 1.814712 1_555
H5 Ti0 1.862412 1_555
H5 Rb2 2.825511 1_655
H6 Mo0 1.690386 1_555
H6 Rb2 2.822708 1_655
H6 Rb3 2.865990 1_555
H7 Mo1 1.690382 1_555
H7 Rb2 2.822708 1_556
H7 Rb4 2.865989 1_556
H8 Mo1 1.734777 1_555
H8 Rb3 2.702833 1_556
H8 Rb0 2.783574 1_555
H9 Mo2 1.716122 1_455
H9 Rb3 2.792182 1_555
H9 Rb1 2.909137 1_554
H9 Rb1 2.909137 1_555
H10 Mo2 1.716122 1_565
H10 Rb4 2.792182 1_555
H10 Rb0 2.909137 1_555
H10 Rb0 2.909137 1_554
H11 Mo2 1.749555 1_455
H12 Mo2 1.775915 1_555
H12 Ti0 2.101624 1_555
H12 Rb0 2.936586 1_545
H12 Rb4 3.022506 1_545
H13 Mo2 1.775914 1_456
H13 Ti0 2.101625 1_455
H13 Rb1 2.936587 1_555
H13 Rb3 3.022506 1_556
H14 Mo2 1.741829 1_566
H14 Rb0 2.795875 1_555
H14 Rb1 2.795875 1_665
H14 Rb2 2.960839 1_656
H15 Mo2 1.741829 1_565
H15 Rb0 2.795875 1_555
H15 Rb1 2.795875 1_665
H15 Rb2 2.960839 1_655
H16 Mo2 1.775914 1_455
H16 Ti0 2.101625 1_455
H16 Rb1 2.936587 1_555
H16 Rb3 3.022506 1_555
H17 Mo2 1.775915 1_556
H17 Ti0 2.101624 1_555
H17 Rb0 2.936586 1_545
H17 Rb4 3.022506 1_546
H18 Mo1 1.724509 1_555
H18 Rb1 2.689569 1_565
H18 Rb2 3.008681 1_555
H18 Rb2 3.008681 1_556
H19 Mo1 1.750476 1_555
H19 Rb4 2.999438 1_555
H19 Rb4 2.999438 1_556
H19 Rb1 3.052325 1_565
H19 Rb0 3.177658 1_555
H20 Mo1 1.813037 1_555
H20 Ti0 2.047302 1_455
H21 Mo0 1.750489 1_555
H21 Rb3 2.999436 1_555
H21 Rb3 2.999436 1_556
H21 Rb0 3.052316 1_555
H21 Rb1 3.177663 1_555
H22 Mo0 1.724516 1_555
H22 Rb0 2.689570 1_555
H22 Rb2 3.008681 1_655
H22 Rb2 3.008681 1_656
H23 Mo0 1.813028 1_555
H23 Ti0 2.047302 1_555
H24 Mo1 1.814712 1_555
H24 Ti0 1.862417 1_455
H24 Rb2 2.825504 1_556
H25 Mo1 1.690382 1_555
H25 Rb2 2.822708 1_555
H25 Rb4 2.865989 1_555
H26 Mo1 1.734777 1_555
H26 Rb3 2.702833 1_555
H26 Rb0 2.783574 1_555
