# generated using pymatgen
data_CsTcAs2Pt
_symmetry_space_group_name_H-M   'P 1'
_cell_length_a   8.00820951
_cell_length_b   8.00820920
_cell_length_c   8.00820862
_cell_angle_alpha   150.35364617
_cell_angle_beta   150.35364730
_cell_angle_gamma   42.42253961
_symmetry_Int_Tables_number   1
_chemical_formula_structural   CsTcAs2Pt
_chemical_formula_sum   'Cs1 Tc1 As2 Pt1'
_cell_volume   125.35046486
_cell_formula_units_Z   1
loop_
 _symmetry_equiv_pos_site_id
 _symmetry_equiv_pos_as_xyz
  1  'x, y, z'
loop_
 _atom_site_type_symbol
 _atom_site_label
 _atom_site_symmetry_multiplicity
 _atom_site_fract_x
 _atom_site_fract_y
 _atom_site_fract_z
 _atom_site_occupancy
  Cs  Cs0  1  0.00000000  0.00000000  0.00000000  1
  Tc  Tc0  1  0.75000000  0.25000000  0.50000000  1
  As  As0  1  0.34183954  0.34183954  0.00000000  1
  As  As1  1  0.65816046  0.65816046  1.00000000  1
  Pt  Pt0  1  0.25000000  0.75000000  0.50000000  1
loop_
_geom_bond_atom_site_label_1
_geom_bond_atom_site_label_2
_geom_bond_distance
_geom_bond_site_symmetry_2
As0 Tc0 2.465358 1_555
As0 Pt0 2.465358 1_555
As0 Pt0 2.465358 1_544
As0 Tc0 2.465358 1_454
As0 Cs0 3.737918 1_554
As0 Cs0 3.737918 1_666
As0 Cs0 3.737919 1_565
As0 Cs0 3.737919 1_655
As1 Pt0 2.465358 1_555
As1 Tc0 2.465358 1_555
As1 Tc0 2.465358 1_566
As1 Pt0 2.465358 1_656
As1 Cs0 3.737918 1_667
As1 Cs0 3.737918 1_555
As1 Cs0 3.737919 1_656
As1 Cs0 3.737919 1_566
Pt0 Tc0 2.897433 1_566
Pt0 Tc0 2.897433 1_454
Pt0 Tc0 2.897434 1_465
Pt0 Tc0 2.897434 1_555
