# generated using pymatgen
data_Rb4InICl12
_symmetry_space_group_name_H-M   'P 1'
_cell_length_a   7.24171255
_cell_length_b   7.24171255
_cell_length_c   10.31428208
_cell_angle_alpha   90.00000000
_cell_angle_beta   90.00000000
_cell_angle_gamma   90.00000000
_symmetry_Int_Tables_number   1
_chemical_formula_structural   Rb4InICl12
_chemical_formula_sum   'Rb4 In1 I1 Cl12'
_cell_volume   540.90571314
_cell_formula_units_Z   1
loop_
 _symmetry_equiv_pos_site_id
 _symmetry_equiv_pos_as_xyz
  1  'x, y, z'
loop_
 _atom_site_type_symbol
 _atom_site_label
 _atom_site_symmetry_multiplicity
 _atom_site_fract_x
 _atom_site_fract_y
 _atom_site_fract_z
 _atom_site_occupancy
  Rb  Rb0  1  0.50000000  0.00000000  0.78259496  1
  Rb  Rb1  1  0.00000000  0.50000000  0.21740504  1
  Rb  Rb2  1  0.50000000  0.00000000  0.21740504  1
  Rb  Rb3  1  0.00000000  0.50000000  0.78259496  1
  In  In0  1  0.00000000  0.00000000  0.00000000  1
  I  I0  1  0.50000000  0.50000000  0.50000000  1
  Cl  Cl0  1  0.00000000  0.00000000  0.75413354  1
  Cl  Cl1  1  0.50000000  0.50000000  0.25798599  1
  Cl  Cl2  1  0.74305423  0.74305423  0.50000000  1
  Cl  Cl3  1  0.24683235  0.24683235  0.00000000  1
  Cl  Cl4  1  0.74305423  0.25694577  0.50000000  1
  Cl  Cl5  1  0.24683235  0.75316765  0.00000000  1
  Cl  Cl6  1  0.00000000  0.00000000  0.24586646  1
  Cl  Cl7  1  0.50000000  0.50000000  0.74201401  1
  Cl  Cl8  1  0.25694577  0.25694577  0.50000000  1
  Cl  Cl9  1  0.75316765  0.75316765  0.00000000  1
  Cl  Cl10  1  0.25694577  0.74305423  0.50000000  1
  Cl  Cl11  1  0.75316765  0.24683235  0.00000000  1
loop_
_geom_bond_atom_site_label_1
_geom_bond_atom_site_label_2
_geom_bond_distance
_geom_bond_site_symmetry_2
Cl0 In0 2.535936 1_556
Cl0 Rb3 3.632737 1_555
Cl0 Rb0 3.632737 1_455
Cl0 Rb0 3.632737 1_555
Cl0 Rb3 3.632737 1_545
Cl1 I0 2.496201 1_555
Cl1 Rb2 3.644969 1_565
Cl1 Rb1 3.644969 1_555
Cl1 Rb2 3.644969 1_555
Cl1 Rb1 3.644969 1_655
Cl2 I0 2.489198 1_555
Cl2 Rb0 3.880233 1_565
Cl2 Rb3 3.880233 1_655
Cl2 Rb1 3.880233 1_655
Cl2 Rb2 3.880233 1_565
Cl3 In0 2.527891 1_555
Cl3 Rb1 3.403617 1_555
Cl3 Rb2 3.403617 1_555
Cl3 Rb0 3.403617 1_554
Cl3 Rb3 3.403617 1_554
Cl4 I0 2.489198 1_555
Cl4 Rb0 3.880233 1_555
Cl4 Rb3 3.880233 1_655
Cl4 Rb2 3.880233 1_555
Cl4 Rb1 3.880233 1_655
Cl5 In0 2.527891 1_565
Cl5 Rb1 3.403617 1_555
Cl5 Rb3 3.403617 1_554
Cl5 Rb2 3.403617 1_565
Cl5 Rb0 3.403617 1_564
Cl6 In0 2.535936 1_555
Cl6 Rb1 3.632737 1_555
Cl6 Rb2 3.632737 1_555
Cl6 Rb2 3.632737 1_455
Cl6 Rb1 3.632737 1_545
Cl7 I0 2.496201 1_555
Cl7 Rb0 3.644969 1_555
Cl7 Rb3 3.644969 1_555
Cl7 Rb0 3.644969 1_565
Cl7 Rb3 3.644969 1_655
Cl8 I0 2.489198 1_555
Cl8 Rb3 3.880233 1_555
Cl8 Rb0 3.880233 1_555
Cl8 Rb1 3.880233 1_555
Cl8 Rb2 3.880233 1_555
Cl9 In0 2.527891 1_665
Cl9 Rb2 3.403617 1_565
Cl9 Rb1 3.403617 1_655
Cl9 Rb3 3.403617 1_654
Cl9 Rb0 3.403617 1_564
Cl10 I0 2.489198 1_555
Cl10 Rb3 3.880233 1_555
Cl10 Rb0 3.880233 1_565
Cl10 Rb1 3.880233 1_555
Cl10 Rb2 3.880233 1_565
Cl11 In0 2.527891 1_655
Cl11 Rb2 3.403617 1_555
Cl11 Rb0 3.403617 1_554
Cl11 Rb1 3.403617 1_655
Cl11 Rb3 3.403617 1_654
