# generated using pymatgen
data_K2Ba(BeAs)6
_symmetry_space_group_name_H-M   'P 1'
_cell_length_a   8.28172374
_cell_length_b   8.28172372
_cell_length_c   7.58747207
_cell_angle_alpha   70.86084840
_cell_angle_beta   70.86084874
_cell_angle_gamma   36.96162797
_symmetry_Int_Tables_number   1
_chemical_formula_structural   K2Ba(BeAs)6
_chemical_formula_sum   'K2 Ba1 Be6 As6'
_cell_volume   293.61585762
_cell_formula_units_Z   1
loop_
 _symmetry_equiv_pos_site_id
 _symmetry_equiv_pos_as_xyz
  1  'x, y, z'
loop_
 _atom_site_type_symbol
 _atom_site_label
 _atom_site_symmetry_multiplicity
 _atom_site_fract_x
 _atom_site_fract_y
 _atom_site_fract_z
 _atom_site_occupancy
  K  K0  1  0.67390998  0.67390998  0.00080173  1
  K  K1  1  0.32609002  0.32609002  0.99919827  1
  Ba  Ba0  1  0.00000000  0.00000000  0.00000000  1
  Be  Be0  1  0.75090147  0.24909853  0.50000000  1
  Be  Be1  1  0.08246115  0.58408382  0.50077938  1
  Be  Be2  1  0.41591618  0.91753885  0.49922062  1
  Be  Be3  1  0.58408382  0.08246115  0.50077938  1
  Be  Be4  1  0.91753885  0.41591618  0.49922062  1
  Be  Be5  1  0.24909853  0.75090147  0.50000000  1
  As  As0  1  0.88451689  0.88451689  0.69470429  1
  As  As1  1  0.21726431  0.21726431  0.69358217  1
  As  As2  1  0.55084694  0.55084694  0.69475460  1
  As  As3  1  0.44915306  0.44915306  0.30524540  1
  As  As4  1  0.78273569  0.78273569  0.30641783  1
  As  As5  1  0.11548311  0.11548311  0.30529571  1
loop_
_geom_bond_atom_site_label_1
_geom_bond_atom_site_label_2
_geom_bond_distance
_geom_bond_site_symmetry_2
As0 Be0 2.308933 1_565
As0 Be5 2.308933 1_655
As0 Be3 2.311656 1_565
As0 Be1 2.311656 1_655
As0 K0 3.320771 1_556
As0 Ba0 3.400353 1_666
As0 K1 3.406711 1_655
As0 K1 3.406711 1_565
As1 Be4 2.307867 1_455
As1 Be2 2.307867 1_545
As1 Be1 2.313462 1_555
As1 Be3 2.313462 1_555
As1 K1 3.322729 1_555
As1 Ba0 3.401192 1_556
As1 K0 3.419291 1_546
As1 K0 3.419291 1_456
As2 Be5 2.317982 1_555
As2 Be0 2.317982 1_555
As2 Be2 2.319873 1_555
As2 Be4 2.319873 1_555
As2 Ba0 3.408036 1_656
As2 Ba0 3.408036 1_566
As2 K1 3.487601 1_555
As2 K0 3.497627 1_556
As3 Be0 2.317982 1_555
As3 Be5 2.317982 1_555
As3 Be3 2.319873 1_555
As3 Be1 2.319873 1_555
As3 Ba0 3.408036 1_565
As3 Ba0 3.408036 1_655
As3 K0 3.487601 1_555
As3 K1 3.497627 1_554
As4 Be1 2.307867 1_655
As4 Be3 2.307867 1_565
As4 Be4 2.313462 1_555
As4 Be2 2.313462 1_555
As4 K0 3.322729 1_555
As4 Ba0 3.401192 1_665
As4 K1 3.419291 1_564
As4 K1 3.419291 1_654
As5 Be5 2.308933 1_545
As5 Be0 2.308933 1_455
As5 Be2 2.311656 1_545
As5 Be4 2.311656 1_455
As5 K1 3.320771 1_554
As5 Ba0 3.400353 1_555
As5 K0 3.406711 1_455
As5 K0 3.406711 1_545
