# generated using pymatgen
data_Lu3ZnNi8
_symmetry_space_group_name_H-M   'P 1'
_cell_length_a   4.90725368
_cell_length_b   4.90725370
_cell_length_c   15.83913776
_cell_angle_alpha   90.00000000
_cell_angle_beta   90.00000000
_cell_angle_gamma   119.99999988
_symmetry_Int_Tables_number   1
_chemical_formula_structural   Lu3ZnNi8
_chemical_formula_sum   'Lu6 Zn2 Ni16'
_cell_volume   330.32328503
_cell_formula_units_Z   2
loop_
 _symmetry_equiv_pos_site_id
 _symmetry_equiv_pos_as_xyz
  1  'x, y, z'
loop_
 _atom_site_type_symbol
 _atom_site_label
 _atom_site_symmetry_multiplicity
 _atom_site_fract_x
 _atom_site_fract_y
 _atom_site_fract_z
 _atom_site_occupancy
  Lu  Lu0  1  0.33333300  0.66666700  0.95827075  1
  Lu  Lu1  1  0.66666700  0.33333300  0.04172925  1
  Lu  Lu2  1  0.66666700  0.33333300  0.45827075  1
  Lu  Lu3  1  0.33333300  0.66666700  0.54172925  1
  Lu  Lu4  1  0.33333300  0.66666700  0.75000000  1
  Lu  Lu5  1  0.66666700  0.33333300  0.25000000  1
  Zn  Zn0  1  0.33333300  0.66666700  0.25000000  1
  Zn  Zn1  1  0.66666700  0.33333300  0.75000000  1
  Ni  Ni0  1  0.16628621  0.83371379  0.37525778  1
  Ni  Ni1  1  0.16628621  0.33257242  0.37525778  1
  Ni  Ni2  1  0.66742758  0.83371379  0.37525778  1
  Ni  Ni3  1  0.83371379  0.16628621  0.62474222  1
  Ni  Ni4  1  0.83371379  0.66742758  0.62474222  1
  Ni  Ni5  1  0.33257242  0.16628621  0.62474222  1
  Ni  Ni6  1  0.83371379  0.16628621  0.87525778  1
  Ni  Ni7  1  0.83371379  0.66742758  0.87525778  1
  Ni  Ni8  1  0.33257242  0.16628621  0.87525778  1
  Ni  Ni9  1  0.16628621  0.83371379  0.12474222  1
  Ni  Ni10  1  0.16628621  0.33257242  0.12474222  1
  Ni  Ni11  1  0.66742758  0.83371379  0.12474222  1
  Ni  Ni12  1  0.00000000  0.00000000  0.25000000  1
  Ni  Ni13  1  0.00000000  0.00000000  0.75000000  1
  Ni  Ni14  1  0.00000000  0.00000000  0.50000000  1
  Ni  Ni15  1  0.00000000  0.00000000  0.00000000  1
loop_
_geom_bond_atom_site_label_1
_geom_bond_atom_site_label_2
_geom_bond_distance
_geom_bond_site_symmetry_2
Lu0 Ni7 2.783725 1_455
Lu0 Ni8 2.783725 1_565
Lu0 Ni6 2.783727 1_565
Lu0 Ni6 2.783727 1_455
Lu0 Ni7 2.783729 1_555
Lu0 Ni8 2.783729 1_555
Lu0 Ni15 2.909277 1_566
Lu0 Ni15 2.909281 1_666
Lu0 Ni15 2.909281 1_556
Lu0 Ni9 2.994737 1_556
Lu0 Ni11 2.994739 1_556
Lu0 Ni10 2.994739 1_556
Lu1 Ni10 2.783725 1_655
Lu1 Ni11 2.783725 1_545
Lu1 Ni9 2.783727 1_545
Lu1 Ni9 2.783727 1_655
Lu1 Ni10 2.783729 1_555
Lu1 Ni11 2.783729 1_555
Lu1 Ni15 2.909277 1_655
Lu1 Ni15 2.909281 1_555
Lu1 Ni15 2.909281 1_665
Lu1 Ni6 2.994737 1_554
Lu1 Ni8 2.994739 1_554
Lu1 Ni7 2.994739 1_554
Lu2 Ni1 2.783725 1_655
Lu2 Ni2 2.783725 1_545
Lu2 Ni0 2.783727 1_545
Lu2 Ni0 2.783727 1_655
Lu2 Ni1 2.783729 1_555
Lu2 Ni2 2.783729 1_555
Lu2 Ni14 2.909277 1_655
Lu2 Ni14 2.909281 1_555
Lu2 Ni14 2.909281 1_665
Lu2 Ni3 2.994737 1_555
Lu2 Ni5 2.994739 1_555
Lu2 Ni4 2.994739 1_555
Lu3 Ni4 2.783725 1_455
Lu3 Ni5 2.783725 1_565
Lu3 Ni3 2.783727 1_565
Lu3 Ni3 2.783727 1_455
Lu3 Ni4 2.783729 1_555
Lu3 Ni5 2.783729 1_555
Lu3 Ni14 2.909277 1_565
Lu3 Ni14 2.909281 1_665
Lu3 Ni14 2.909281 1_555
Lu3 Ni0 2.994737 1_555
Lu3 Ni2 2.994739 1_555
Lu3 Ni1 2.994739 1_555
Lu4 Ni13 2.833201 1_565
Lu4 Zn1 2.833201 1_455
Lu4 Zn1 2.833201 1_565
Lu4 Ni13 2.833206 1_665
Lu4 Ni13 2.833206 1_555
Lu4 Zn1 2.833210 1_555
Lu4 Ni7 3.155383 1_455
Lu4 Ni4 3.155383 1_455
Lu4 Ni8 3.155383 1_565
Lu4 Ni5 3.155383 1_565
Lu4 Ni6 3.155385 1_565
Lu4 Ni3 3.155385 1_565
Lu4 Ni6 3.155385 1_455
Lu4 Ni3 3.155385 1_455
Lu4 Ni7 3.155387 1_555
Lu4 Ni4 3.155387 1_555
Lu4 Ni8 3.155387 1_555
Lu4 Ni5 3.155387 1_555
Lu5 Ni12 2.833201 1_655
Lu5 Zn0 2.833201 1_655
Lu5 Zn0 2.833201 1_545
Lu5 Ni12 2.833206 1_555
Lu5 Ni12 2.833206 1_665
Lu5 Zn0 2.833210 1_555
Lu5 Ni1 3.155383 1_655
Lu5 Ni10 3.155383 1_655
Lu5 Ni2 3.155383 1_545
Lu5 Ni11 3.155383 1_545
Lu5 Ni0 3.155385 1_545
Lu5 Ni9 3.155385 1_545
Lu5 Ni0 3.155385 1_655
Lu5 Ni9 3.155385 1_655
Lu5 Ni1 3.155387 1_555
Lu5 Ni10 3.155387 1_555
Lu5 Ni2 3.155387 1_555
Lu5 Ni11 3.155387 1_555
Ni0 Ni14 2.429286 1_565
Ni0 Ni12 2.435933 1_565
Ni0 Zn0 2.439689 1_555
Ni0 Ni2 2.448026 1_455
Ni0 Ni1 2.448026 1_565
Ni0 Ni2 2.459228 1_555
Ni0 Ni1 2.459228 1_555
Ni1 Ni14 2.429286 1_555
Ni1 Ni12 2.435933 1_555
Ni1 Zn0 2.439692 1_555
Ni1 Ni2 2.448026 1_445
Ni1 Ni2 2.459228 1_555
Ni2 Zn0 2.439692 1_555
Ni3 Zn1 2.439689 1_555
Ni3 Ni5 2.448026 1_655
Ni3 Ni4 2.448026 1_545
Ni3 Ni5 2.459228 1_555
Ni3 Ni4 2.459228 1_555
Ni4 Zn1 2.439692 1_555
Ni4 Ni5 2.448026 1_665
Ni4 Ni5 2.459228 1_555
Ni5 Zn1 2.439692 1_555
Ni6 Zn1 2.439689 1_555
Ni6 Ni8 2.448026 1_655
Ni6 Ni7 2.448026 1_545
Ni6 Ni8 2.459228 1_555
Ni6 Ni7 2.459228 1_555
Ni7 Zn1 2.439692 1_555
Ni7 Ni8 2.448026 1_665
Ni7 Ni8 2.459228 1_555
Ni8 Zn1 2.439692 1_555
Ni9 Zn0 2.439689 1_555
Ni10 Ni15 2.429286 1_555
Ni10 Ni12 2.435933 1_555
Ni10 Zn0 2.439692 1_555
Ni10 Ni9 2.448026 1_545
Ni10 Ni11 2.448026 1_445
Ni10 Ni11 2.459228 1_555
Ni10 Ni9 2.459228 1_555
Ni11 Ni15 2.429286 1_665
Ni11 Ni12 2.435933 1_665
Ni11 Zn0 2.439692 1_555
Ni11 Ni9 2.448026 1_655
Ni11 Ni9 2.459228 1_555
Ni12 Ni9 2.435933 1_545
Ni12 Ni2 2.435933 1_445
Ni12 Zn0 2.833201 1_545
Ni12 Zn0 2.833206 1_445
Ni12 Zn0 2.833206 1_555
Ni13 Ni6 2.435933 1_455
Ni13 Ni3 2.435933 1_455
Ni13 Ni8 2.435933 1_555
Ni13 Ni5 2.435933 1_555
Ni13 Ni7 2.435933 1_445
Ni13 Ni4 2.435933 1_445
Ni13 Zn1 2.833201 1_455
Ni13 Zn1 2.833206 1_555
Ni13 Zn1 2.833206 1_445
Ni14 Ni3 2.429286 1_455
Ni14 Ni5 2.429286 1_555
Ni14 Ni2 2.429286 1_445
Ni14 Ni4 2.429286 1_445
Ni15 Ni9 2.429286 1_545
Ni15 Ni6 2.429286 1_454
Ni15 Ni8 2.429286 1_554
Ni15 Ni7 2.429286 1_444
