# generated using pymatgen
data_Hf6Al16CuRh6
_symmetry_space_group_name_H-M   'P 1'
_cell_length_a   8.61737879
_cell_length_b   8.60748840
_cell_length_c   8.60748868
_cell_angle_alpha   60.49931713
_cell_angle_beta   59.96198045
_cell_angle_gamma   59.96197669
_symmetry_Int_Tables_number   1
_chemical_formula_structural   Hf6Al16CuRh6
_chemical_formula_sum   'Hf6 Al16 Cu1 Rh6'
_cell_volume   452.86989488
_cell_formula_units_Z   1
loop_
 _symmetry_equiv_pos_site_id
 _symmetry_equiv_pos_as_xyz
  1  'x, y, z'
loop_
 _atom_site_type_symbol
 _atom_site_label
 _atom_site_symmetry_multiplicity
 _atom_site_fract_x
 _atom_site_fract_y
 _atom_site_fract_z
 _atom_site_occupancy
  Hf  Hf0  1  0.67465558  0.32534342  0.32534342  1
  Hf  Hf1  1  0.32534342  0.67465558  0.67465558  1
  Hf  Hf2  1  0.30843379  0.69000014  0.30999886  1
  Hf  Hf3  1  0.30843379  0.30999886  0.69000014  1
  Hf  Hf4  1  0.69156521  0.30999886  0.69000014  1
  Hf  Hf5  1  0.69156521  0.69000014  0.30999886  1
  Al  Al0  1  0.33329071  0.33632405  0.33632405  1
  Al  Al1  1  0.33723892  0.33432535  0.99119581  1
  Al  Al2  1  0.99405919  0.33632405  0.33632405  1
  Al  Al3  1  0.33723892  0.99119581  0.33432535  1
  Al  Al4  1  0.66670929  0.66367595  0.66367595  1
  Al  Al5  1  0.66276108  0.66567465  0.00880419  1
  Al  Al6  1  0.66276108  0.00880419  0.66567465  1
  Al  Al7  1  0.00594081  0.66367595  0.66367595  1
  Al  Al8  1  0.11935878  0.12026488  0.12026488  1
  Al  Al9  1  0.12285096  0.11173573  0.64256136  1
  Al  Al10  1  0.64011145  0.12026488  0.12026488  1
  Al  Al11  1  0.12285096  0.64256136  0.11173573  1
  Al  Al12  1  0.88064022  0.87973412  0.87973412  1
  Al  Al13  1  0.87714804  0.88826327  0.35744164  1
  Al  Al14  1  0.87714804  0.35744164  0.88826327  1
  Al  Al15  1  0.35989155  0.87973412  0.87973412  1
  Cu  Cu0  1  0.00000000  0.50000000  0.50000000  1
  Rh  Rh0  1  0.00000000  0.00000000  0.00000000  1
  Rh  Rh1  1  0.50000000  0.00000000  0.00000000  1
  Rh  Rh2  1  0.00000000  0.50000000  0.00000000  1
  Rh  Rh3  1  0.00000000  0.00000000  0.50000000  1
  Rh  Rh4  1  0.50000000  0.00000000  0.50000000  1
  Rh  Rh5  1  0.50000000  0.50000000  0.00000000  1
loop_
_geom_bond_atom_site_label_1
_geom_bond_atom_site_label_2
_geom_bond_distance
_geom_bond_site_symmetry_2
Hf0 Hf2 3.149753 1_555
Hf0 Hf3 3.149754 1_555
Hf0 Hf5 3.149754 1_555
Hf0 Hf4 3.149754 1_555
Hf0 Rh5 3.189923 1_555
Hf0 Rh4 3.189923 1_555
Hf0 Rh3 3.189934 1_655
Hf0 Rh2 3.189934 1_655
Hf1 Hf4 3.149753 1_555
Hf1 Hf5 3.149754 1_555
Hf1 Hf3 3.149754 1_555
Hf1 Hf2 3.149754 1_555
Hf1 Rh3 3.189926 1_565
Hf1 Rh2 3.189926 1_556
Hf1 Rh5 3.189938 1_556
Hf1 Rh4 3.189938 1_565
Hf2 Rh5 3.115230 1_555
Hf2 Rh3 3.115241 1_565
Hf2 Rh1 3.154806 1_565
Hf2 Hf3 3.295511 1_555
Hf2 Hf5 3.301589 1_555
Hf3 Rh4 3.115230 1_555
Hf3 Rh2 3.115242 1_556
Hf3 Rh1 3.154806 1_556
Hf3 Hf4 3.301589 1_555
Hf4 Rh3 3.115232 1_655
Hf4 Rh5 3.115244 1_556
Hf4 Rh1 3.154797 1_556
Hf4 Hf5 3.295511 1_555
Hf5 Rh2 3.115233 1_655
Hf5 Rh4 3.115244 1_565
Hf5 Rh1 3.154797 1_565
Al0 Cu0 2.464027 1_555
Al0 Rh4 2.505004 1_555
Al0 Rh5 2.505004 1_555
Al0 Al10 2.732874 1_555
Al0 Al11 2.771152 1_555
Al0 Al9 2.771152 1_555
Al0 Hf2 2.842736 1_555
Al0 Hf3 2.842736 1_555
Al0 Hf0 2.850155 1_555
Al0 Al2 2.923287 1_455
Al0 Al3 2.962262 1_545
Al0 Al1 2.962262 1_554
Al1 Rh1 2.470816 1_556
Al1 Rh2 2.494351 1_556
Al1 Rh5 2.494359 1_556
Al1 Al11 2.722797 1_556
Al1 Al8 2.741071 1_556
Al1 Al10 2.741078 1_556
Al1 Hf4 2.838596 1_555
Al1 Hf3 2.838602 1_555
Al1 Hf1 2.851957 1_555
Al1 Al2 2.962266 1_456
Al1 Al3 2.975746 1_546
Al2 Cu0 2.464038 1_655
Al2 Rh3 2.504999 1_655
Al2 Rh2 2.504999 1_655
Al2 Al8 2.732869 1_655
Al2 Al9 2.771157 1_655
Al2 Hf5 2.842736 1_555
Al2 Hf4 2.842736 1_555
Al2 Hf0 2.850155 1_555
Al2 Al3 2.962266 1_645
Al3 Rh1 2.470816 1_565
Al3 Rh3 2.494352 1_565
Al3 Rh4 2.494359 1_565
Al3 Al9 2.722797 1_565
Al3 Al8 2.741071 1_565
Al3 Hf5 2.838596 1_555
Al3 Hf2 2.838602 1_555
Al3 Hf1 2.851957 1_555
Al4 Cu0 2.464027 1_655
Al4 Rh4 2.505004 1_565
Al4 Rh5 2.505004 1_556
Al4 Hf4 2.842752 1_555
Al4 Hf5 2.842752 1_555
Al4 Hf1 2.850171 1_555
Al4 Al7 2.923287 1_655
Al4 Al6 2.962262 1_565
Al4 Al5 2.962262 1_556
Al5 Rh1 2.470816 1_565
Al5 Rh2 2.494351 1_655
Al5 Rh5 2.494359 1_555
Al5 Hf5 2.838583 1_555
Al5 Hf2 2.838598 1_555
Al5 Hf0 2.851958 1_555
Al5 Al7 2.962266 1_654
Al5 Al6 2.975746 1_564
Al6 Rh1 2.470816 1_556
Al6 Rh3 2.494352 1_655
Al6 Rh4 2.494359 1_555
Al6 Hf4 2.838583 1_555
Al6 Hf3 2.838598 1_555
Al6 Hf0 2.851958 1_555
Al6 Al7 2.962266 1_645
Al7 Cu0 2.464038 1_555
Al7 Rh3 2.504999 1_565
Al7 Rh2 2.504999 1_556
Al7 Hf3 2.842737 1_555
Al7 Hf2 2.842737 1_555
Al7 Hf1 2.850137 1_555
Al8 Rh0 2.527536 1_555
Al8 Rh1 2.675626 1_555
Al8 Rh2 2.679718 1_555
Al8 Rh3 2.679718 1_555
Al8 Hf2 3.115088 1_545
Al8 Hf3 3.115089 1_554
Al8 Hf0 3.231344 1_455
Al9 Rh0 2.521065 1_556
Al9 Rh3 2.652117 1_555
Al9 Rh4 2.652123 1_555
Al9 Cu0 2.741344 1_555
Al9 Hf3 3.115921 1_555
Al9 Hf4 3.115928 1_455
Al9 Hf1 3.187746 1_545
Al10 Rh0 2.527536 1_655
Al10 Rh1 2.675626 1_555
Al10 Rh5 2.679718 1_555
Al10 Rh4 2.679718 1_555
Al10 Al3 2.741078 1_545
Al10 Al13 2.898946 1_545
Al10 Al14 2.898947 1_554
Al10 Al12 2.915152 1_544
Al10 Hf5 3.115092 1_545
Al10 Hf4 3.115092 1_554
Al10 Hf0 3.231334 1_555
Al11 Rh0 2.521065 1_565
Al11 Rh2 2.652117 1_555
Al11 Rh5 2.652123 1_555
Al11 Cu0 2.741344 1_555
Al11 Al2 2.771157 1_455
Al11 Al12 2.898940 1_454
Al11 Al15 2.898946 1_554
Al11 Al13 2.977849 1_455
Al11 Hf2 3.115921 1_555
Al11 Hf5 3.115928 1_455
Al11 Hf1 3.187746 1_554
Al12 Rh0 2.527557 1_666
Al12 Rh1 2.675618 1_566
Al12 Rh2 2.679711 1_656
Al12 Rh3 2.679711 1_665
Al12 Al7 2.732853 1_655
Al12 Al6 2.741055 1_565
Al12 Al5 2.741055 1_556
Al12 Al9 2.898940 1_665
Al12 Hf4 3.115088 1_565
Al12 Hf5 3.115089 1_556
Al12 Hf1 3.231344 1_655
Al13 Rh0 2.521086 1_665
Al13 Rh3 2.652109 1_665
Al13 Rh4 2.652115 1_565
Al13 Al6 2.722780 1_565
Al13 Cu0 2.741336 1_655
Al13 Al4 2.771136 1_555
Al13 Al7 2.771140 1_655
Al13 Al8 2.898940 1_665
Al13 Hf2 3.115921 1_655
Al13 Hf5 3.115943 1_555
Al13 Hf0 3.187738 1_565
Al14 Rh0 2.521086 1_656
Al14 Rh2 2.652109 1_656
Al14 Rh5 2.652115 1_556
Al14 Al5 2.722780 1_556
Al14 Cu0 2.741336 1_655
Al14 Al4 2.771135 1_555
Al14 Al7 2.771140 1_655
Al14 Al8 2.898940 1_656
Al14 Al9 2.977849 1_655
Al14 Hf3 3.115921 1_655
Al14 Hf4 3.115943 1_555
Al14 Hf0 3.187739 1_556
Al15 Rh0 2.527557 1_566
Al15 Rh1 2.675618 1_566
Al15 Rh5 2.679711 1_556
Al15 Rh4 2.679711 1_565
Al15 Al4 2.732857 1_555
Al15 Al5 2.741062 1_556
Al15 Al6 2.741062 1_565
Al15 Al9 2.898946 1_565
Al15 Al8 2.915152 1_566
Al15 Hf3 3.115085 1_565
Al15 Hf2 3.115085 1_556
Al15 Hf1 3.231356 1_555
Cu0 Hf3 3.127213 1_555
Cu0 Hf2 3.127213 1_555
Cu0 Hf5 3.127227 1_455
Cu0 Hf4 3.127227 1_455
