# generated using pymatgen
data_In2As2I2O5
_symmetry_space_group_name_H-M   'P 1'
_cell_length_a   6.84016415
_cell_length_b   7.72562670
_cell_length_c   10.02944445
_cell_angle_alpha   109.61899388
_cell_angle_beta   98.85267197
_cell_angle_gamma   100.99085743
_symmetry_Int_Tables_number   1
_chemical_formula_structural   In2As2I2O5
_chemical_formula_sum   'In4 As4 I4 O10'
_cell_volume   476.27296457
_cell_formula_units_Z   2
loop_
 _symmetry_equiv_pos_site_id
 _symmetry_equiv_pos_as_xyz
  1  'x, y, z'
loop_
 _atom_site_type_symbol
 _atom_site_label
 _atom_site_symmetry_multiplicity
 _atom_site_fract_x
 _atom_site_fract_y
 _atom_site_fract_z
 _atom_site_occupancy
  In  In0  1  0.39691589  0.69087446  0.51274226  1
  In  In1  1  0.60308411  0.30912554  0.48725774  1
  In  In2  1  0.87739912  0.79096510  0.35251531  1
  In  In3  1  0.12260088  0.20903490  0.64748469  1
  As  As0  1  0.84377844  0.83566029  0.71403605  1
  As  As1  1  0.15622156  0.16433971  0.28596395  1
  As  As2  1  0.65426765  0.20851262  0.75948530  1
  As  As3  1  0.34573235  0.79148738  0.24051470  1
  I  I0  1  0.23239176  0.63434594  0.74108839  1
  I  I1  1  0.76760824  0.36565406  0.25891161  1
  I  I2  1  0.79988104  0.74013903  0.05659505  1
  I  I3  1  0.20011896  0.25986097  0.94340495  1
  O  O0  1  0.81310983  0.25923132  0.64154620  1
  O  O1  1  0.18689017  0.74076868  0.35845380  1
  O  O2  1  0.56140209  0.79046577  0.36502687  1
  O  O3  1  0.43859791  0.20953423  0.63497313  1
  O  O4  1  0.62275194  0.94878685  0.68912276  1
  O  O5  1  0.37724806  0.05121315  0.31087724  1
  O  O6  1  0.67375124  0.61807018  0.58940040  1
  O  O7  1  0.32624876  0.38192982  0.41059960  1
  O  O8  1  0.96709011  0.90299188  0.58700773  1
  O  O9  1  0.03290989  0.09700812  0.41299227  1
loop_
_geom_bond_atom_site_label_1
_geom_bond_atom_site_label_2
_geom_bond_distance
_geom_bond_site_symmetry_2
In0 O1 2.129422 1_555
In0 O6 2.177522 1_555
In0 O7 2.178440 1_555
In0 O2 2.236321 1_555
In0 O4 2.259224 1_555
In1 O0 2.129422 1_555
In1 O7 2.177522 1_555
In1 O6 2.178440 1_555
In1 O3 2.236321 1_555
In1 O5 2.259224 1_555
In2 O8 2.154789 1_555
In2 O2 2.183655 1_555
In2 O1 2.219287 1_655
In2 O9 2.229135 1_665
In3 O9 2.154789 1_555
In3 O3 2.183655 1_555
In3 O0 2.219287 1_455
In3 O8 2.229135 1_445
As0 O6 1.771149 1_555
As0 O8 1.792666 1_555
As0 O4 1.909497 1_555
As1 O7 1.771149 1_555
As1 O9 1.792666 1_555
As1 O5 1.909497 1_555
As2 O3 1.783210 1_555
As2 O0 1.810435 1_555
As2 O4 1.846090 1_545
As3 O2 1.783210 1_555
As3 O1 1.810435 1_555
As3 O5 1.846090 1_565
I0 In0 2.824825 1_555
I0 In3 3.002067 1_555
I1 In1 2.824825 1_555
I1 In2 3.002067 1_555
I2 In2 2.810251 1_555
I3 In3 2.810251 1_555
