# generated using pymatgen
data_CsSF5
_symmetry_space_group_name_H-M   'P 1'
_cell_length_a   6.42137374
_cell_length_b   8.01562530
_cell_length_c   10.11805188
_cell_angle_alpha   90.00000000
_cell_angle_beta   90.00000000
_cell_angle_gamma   90.00000000
_symmetry_Int_Tables_number   1
_chemical_formula_structural   CsSF5
_chemical_formula_sum   'Cs4 S4 F20'
_cell_volume   520.78954520
_cell_formula_units_Z   4
loop_
 _symmetry_equiv_pos_site_id
 _symmetry_equiv_pos_as_xyz
  1  'x, y, z'
loop_
 _atom_site_type_symbol
 _atom_site_label
 _atom_site_symmetry_multiplicity
 _atom_site_fract_x
 _atom_site_fract_y
 _atom_site_fract_z
 _atom_site_occupancy
  Cs  Cs0  1  0.25000000  0.65929953  0.66186565  1
  Cs  Cs1  1  0.75000000  0.34070047  0.33813435  1
  Cs  Cs2  1  0.75000000  0.15929953  0.83813435  1
  Cs  Cs3  1  0.25000000  0.84070047  0.16186565  1
  S  S0  1  0.25000000  0.15768309  0.59286266  1
  S  S1  1  0.75000000  0.84231691  0.40713734  1
  S  S2  1  0.75000000  0.65768309  0.90713734  1
  S  S3  1  0.25000000  0.34231691  0.09286266  1
  F  F0  1  0.25000000  0.21536359  0.74530730  1
  F  F1  1  0.75000000  0.78463641  0.25469270  1
  F  F2  1  0.75000000  0.71536359  0.75469270  1
  F  F3  1  0.25000000  0.28463641  0.24530730  1
  F  F4  1  0.94510996  0.68832610  0.42523079  1
  F  F5  1  0.44510996  0.31167390  0.57476921  1
  F  F6  1  0.05489004  0.18832610  0.07476921  1
  F  F7  1  0.55489004  0.81167390  0.92523079  1
  F  F8  1  0.43929685  0.48444115  0.14156164  1
  F  F9  1  0.93929685  0.51555885  0.85843836  1
  F  F10  1  0.56070315  0.98444115  0.35843836  1
  F  F11  1  0.06070315  0.01555885  0.64156164  1
  F  F12  1  0.56070315  0.51555885  0.85843836  1
  F  F13  1  0.06070315  0.48444115  0.14156164  1
  F  F14  1  0.43929685  0.01555885  0.64156164  1
  F  F15  1  0.93929685  0.98444115  0.35843836  1
  F  F16  1  0.44510996  0.18832610  0.07476921  1
  F  F17  1  0.94510996  0.81167390  0.92523079  1
  F  F18  1  0.55489004  0.68832610  0.42523079  1
  F  F19  1  0.05489004  0.31167390  0.57476921  1
loop_
_geom_bond_atom_site_label_1
_geom_bond_atom_site_label_2
_geom_bond_distance
_geom_bond_site_symmetry_2
Cs0 F12 3.043672 1_555
Cs0 F9 3.043672 1_455
Cs0 F18 3.101574 1_555
Cs0 F4 3.101574 1_455
Cs0 F14 3.110377 1_565
Cs0 F11 3.110377 1_565
Cs0 F5 3.179704 1_555
Cs0 F19 3.179704 1_555
Cs0 F2 3.375294 1_455
Cs0 F2 3.375294 1_555
Cs0 F7 3.525002 1_555
Cs0 F17 3.525002 1_455
Cs1 F13 3.043672 1_655
Cs1 F8 3.043672 1_555
Cs1 F19 3.101574 1_655
Cs1 F5 3.101574 1_555
Cs1 F15 3.110377 1_545
Cs1 F10 3.110377 1_545
Cs1 F4 3.179704 1_555
Cs1 F18 3.179704 1_555
Cs1 F3 3.375294 1_655
Cs1 F3 3.375294 1_555
Cs1 F6 3.525002 1_655
Cs1 F16 3.525002 1_555
Cs2 F11 3.043672 1_655
Cs2 F14 3.043672 1_555
Cs2 F6 3.101574 1_656
Cs2 F16 3.101574 1_556
Cs2 F9 3.110377 1_555
Cs2 F12 3.110377 1_555
Cs2 F17 3.179704 1_545
Cs2 F7 3.179704 1_545
Cs2 F0 3.375294 1_555
Cs2 F0 3.375294 1_655
Cs2 F19 3.525002 1_655
Cs2 F5 3.525002 1_555
Cs3 F10 3.043672 1_555
Cs3 F15 3.043672 1_455
Cs3 F7 3.101574 1_554
Cs3 F17 3.101574 1_454
Cs3 F8 3.110377 1_555
Cs3 F13 3.110377 1_555
Cs3 F16 3.179704 1_565
Cs3 F6 3.179704 1_565
Cs3 F1 3.375294 1_455
Cs3 F1 3.375294 1_555
Cs3 F18 3.525002 1_555
Cs3 F4 3.525002 1_455
F0 S0 1.610246 1_555
F1 S1 1.610246 1_555
F2 S2 1.610246 1_555
F3 S3 1.610246 1_555
F4 S1 1.768272 1_555
F5 S0 1.768272 1_555
F6 S3 1.768272 1_555
F7 S2 1.768272 1_555
F8 S3 1.737283 1_555
F9 S2 1.737283 1_555
F10 S1 1.737283 1_555
F11 S0 1.737283 1_555
F12 S2 1.737283 1_555
F13 S3 1.737283 1_555
F14 S0 1.737283 1_555
F15 S1 1.737283 1_555
F16 S3 1.768272 1_555
F17 S2 1.768272 1_555
F18 S1 1.768272 1_555
F19 S0 1.768272 1_555
