# generated using pymatgen
data_Sc3ZnSn3Rh2
_symmetry_space_group_name_H-M   'P 1'
_cell_length_a   7.42409059
_cell_length_b   7.42409106
_cell_length_c   7.24355501
_cell_angle_alpha   90.00000000
_cell_angle_beta   90.00000000
_cell_angle_gamma   119.99999789
_symmetry_Int_Tables_number   1
_chemical_formula_structural   Sc3ZnSn3Rh2
_chemical_formula_sum   'Sc6 Zn2 Sn6 Rh4'
_cell_volume   345.75538749
_cell_formula_units_Z   2
loop_
 _symmetry_equiv_pos_site_id
 _symmetry_equiv_pos_as_xyz
  1  'x, y, z'
loop_
 _atom_site_type_symbol
 _atom_site_label
 _atom_site_symmetry_multiplicity
 _atom_site_fract_x
 _atom_site_fract_y
 _atom_site_fract_z
 _atom_site_occupancy
  Sc  Sc0  1  0.38230795  0.98250893  0.25000000  1
  Sc  Sc1  1  0.60019998  0.61769205  0.25000000  1
  Sc  Sc2  1  0.01749107  0.39980002  0.25000000  1
  Sc  Sc3  1  0.37505106  0.96975437  0.75000000  1
  Sc  Sc4  1  0.59470331  0.62494894  0.75000000  1
  Sc  Sc5  1  0.03024563  0.40529669  0.75000000  1
  Zn  Zn0  1  0.66666700  0.33333300  0.96389704  1
  Zn  Zn1  1  0.66666700  0.33333300  0.53610296  1
  Sn  Sn0  1  0.73352377  0.00878680  0.00091341  1
  Sn  Sn1  1  0.27526303  0.26647623  0.49908659  1
  Sn  Sn2  1  0.99121320  0.72473697  0.49908659  1
  Sn  Sn3  1  0.99121320  0.72473697  0.00091341  1
  Sn  Sn4  1  0.27526303  0.26647623  0.00091341  1
  Sn  Sn5  1  0.73352377  0.00878680  0.49908659  1
  Rh  Rh0  1  0.33333300  0.66666700  0.00878119  1
  Rh  Rh1  1  0.33333300  0.66666700  0.49121881  1
  Rh  Rh2  1  0.00000000  0.00000000  0.25000000  1
  Rh  Rh3  1  0.00000000  0.00000000  0.75000000  1
loop_
_geom_bond_atom_site_label_1
_geom_bond_atom_site_label_2
_geom_bond_distance
_geom_bond_site_symmetry_2
Sc0 Sn5 3.095740 1_565
Sc0 Sn0 3.095740 1_565
Sc0 Sn2 3.129160 1_455
Sc0 Sn3 3.129160 1_455
Sc0 Sn1 3.163365 1_565
Sc0 Sn4 3.163365 1_565
Sc0 Zn1 3.168094 1_565
Sc0 Zn0 3.168094 1_564
Sc1 Sn1 3.095738 1_555
Sc1 Sn4 3.095738 1_555
Sc1 Sn5 3.129159 1_565
Sc1 Sn0 3.129159 1_565
Sc1 Sn2 3.163371 1_555
Sc1 Sn3 3.163371 1_555
Sc1 Zn1 3.168102 1_555
Sc1 Zn0 3.168102 1_554
Sc2 Sn2 3.095735 1_455
Sc2 Sn3 3.095735 1_455
Sc2 Sn1 3.129164 1_555
Sc2 Sn4 3.129164 1_555
Sc2 Sn5 3.163369 1_455
Sc2 Sn0 3.163369 1_455
Sc2 Zn1 3.168090 1_455
Sc2 Zn0 3.168090 1_454
Sc3 Zn0 2.920583 1_565
Sc3 Zn1 2.920583 1_565
Sc3 Sn3 3.090160 1_456
Sc3 Sn2 3.090160 1_455
Sc3 Sn0 3.114289 1_566
Sc3 Sn5 3.114289 1_565
Sc3 Sn4 3.215100 1_566
Sc3 Sn1 3.215100 1_565
Sc4 Zn0 2.920587 1_555
Sc4 Zn1 2.920587 1_555
Sc4 Sn0 3.090160 1_566
Sc4 Sn5 3.090160 1_565
Sc4 Sn4 3.114289 1_556
Sc4 Sn1 3.114289 1_555
Sc4 Sn3 3.215100 1_556
Sc4 Sn2 3.215100 1_555
Sc5 Zn0 2.920581 1_455
Sc5 Zn1 2.920581 1_455
Sc5 Sn4 3.090160 1_556
Sc5 Sn1 3.090160 1_555
Sc5 Sn3 3.114289 1_456
Sc5 Sn2 3.114289 1_455
Sc5 Sn0 3.215100 1_456
Sc5 Sn5 3.215100 1_455
Sn0 Zn0 2.705494 1_554
Sn1 Zn1 2.705501 1_555
Sn2 Zn1 2.705498 1_555
Sn3 Zn0 2.705498 1_554
Sn4 Zn0 2.705501 1_554
Sn5 Zn1 2.705494 1_555
Rh0 Sn3 2.781250 1_455
Rh0 Sn0 2.781255 1_565
Rh0 Sn4 2.781258 1_555
Rh0 Sc1 2.798374 1_555
Rh0 Sc2 2.798374 1_555
Rh0 Sc0 2.798374 1_555
Rh0 Sc3 2.824166 1_554
Rh0 Sc5 2.824168 1_554
Rh0 Sc4 2.824172 1_554
Rh1 Sn2 2.781250 1_455
Rh1 Sn5 2.781255 1_565
Rh1 Sn1 2.781258 1_555
Rh1 Sc1 2.798374 1_555
Rh1 Sc2 2.798374 1_555
Rh1 Sc0 2.798374 1_555
Rh1 Sc3 2.824166 1_555
Rh1 Sc5 2.824168 1_555
Rh1 Sc4 2.824172 1_555
Rh2 Sn5 2.702324 1_455
Rh2 Sn0 2.702324 1_455
Rh2 Sn1 2.702324 1_555
Rh2 Sn4 2.702324 1_555
Rh2 Sn2 2.702324 1_445
Rh2 Sn3 2.702324 1_445
Rh2 Sc0 2.905394 1_545
Rh2 Sc1 2.905398 1_445
Rh2 Sc2 2.905401 1_555
Rh3 Sn0 2.711177 1_456
Rh3 Sn5 2.711177 1_455
Rh3 Sn4 2.711177 1_556
Rh3 Sn1 2.711177 1_555
Rh3 Sn3 2.711177 1_446
Rh3 Sn2 2.711177 1_445
Rh3 Sc3 2.903206 1_545
Rh3 Sc4 2.903206 1_445
Rh3 Sc5 2.903206 1_555
