# generated using pymatgen
data_Li7Sn3
_symmetry_space_group_name_H-M   'P 1'
_cell_length_a   4.69720012
_cell_length_b   8.50470968
_cell_length_c   9.38949916
_cell_angle_alpha   73.99907277
_cell_angle_beta   90.00000000
_cell_angle_gamma   90.00000000
_symmetry_Int_Tables_number   1
_chemical_formula_structural   Li7Sn3
_chemical_formula_sum   'Li14 Sn6'
_cell_volume   360.56254086
_cell_formula_units_Z   2
loop_
 _symmetry_equiv_pos_site_id
 _symmetry_equiv_pos_as_xyz
  1  'x, y, z'
loop_
 _atom_site_type_symbol
 _atom_site_label
 _atom_site_symmetry_multiplicity
 _atom_site_fract_x
 _atom_site_fract_y
 _atom_site_fract_z
 _atom_site_occupancy
  Li  Li0  1  0.75000000  0.39511965  0.27581070  1
  Li  Li1  1  0.25000000  0.60488035  0.72418930  1
  Li  Li2  1  0.75000000  0.00767753  0.87146370  1
  Li  Li3  1  0.25000000  0.99232247  0.12853630  1
  Li  Li4  1  0.75000000  0.99565313  0.37869345  1
  Li  Li5  1  0.25000000  0.00434687  0.62130655  1
  Li  Li6  1  0.75000000  0.79946780  0.68205713  1
  Li  Li7  1  0.25000000  0.20053220  0.31794287  1
  Li  Li8  1  0.75000000  0.81402326  0.16860749  1
  Li  Li9  1  0.25000000  0.18597674  0.83139251  1
  Li  Li10  1  0.75000000  0.59890303  0.46549437  1
  Li  Li11  1  0.25000000  0.40109697  0.53450563  1
  Li  Li12  1  0.75000000  0.60159222  0.98589444  1
  Li  Li13  1  0.25000000  0.39840778  0.01410556  1
  Sn  Sn0  1  0.75000000  0.40325472  0.77620698  1
  Sn  Sn1  1  0.25000000  0.59674528  0.22379302  1
  Sn  Sn2  1  0.75000000  0.19513662  0.08399000  1
  Sn  Sn3  1  0.25000000  0.80486338  0.91601000  1
  Sn  Sn4  1  0.75000000  0.19789691  0.56847624  1
  Sn  Sn5  1  0.25000000  0.80210309  0.43152376  1
loop_
_geom_bond_atom_site_label_1
_geom_bond_atom_site_label_2
_geom_bond_distance
_geom_bond_site_symmetry_2
Li0 Sn4 2.797090 1_555
Li0 Sn2 2.797408 1_555
Li0 Li7 2.837291 1_555
Li0 Li7 2.837291 1_655
Li0 Sn1 2.869350 1_555
Li0 Sn1 2.869350 1_655
Li1 Sn5 2.797090 1_555
Li1 Sn3 2.797408 1_555
Li1 Li6 2.837291 1_455
Li1 Li6 2.837291 1_555
Li1 Sn0 2.869350 1_455
Li1 Sn0 2.869350 1_555
Li2 Li6 2.834535 1_545
Li2 Sn4 2.858898 1_555
Li2 Sn3 2.875469 1_545
Li2 Sn3 2.875469 1_645
Li2 Sn2 2.877110 1_556
Li3 Li7 2.834535 1_565
Li3 Sn5 2.858898 1_555
Li3 Sn2 2.875469 1_465
Li3 Sn2 2.875469 1_565
Li3 Sn3 2.877110 1_554
Li4 Sn4 2.797079 1_565
Li4 Sn2 2.819058 1_565
Li4 Sn5 2.832212 1_655
Li4 Sn5 2.832212 1_555
Li4 Li6 2.877033 1_555
Li4 Li7 2.886076 1_565
Li4 Li7 2.886076 1_665
Li5 Sn5 2.797079 1_545
Li5 Sn3 2.819058 1_545
Li5 Sn4 2.832212 1_455
Li5 Sn4 2.832212 1_555
Li5 Li7 2.877033 1_555
Li5 Li6 2.886076 1_445
Li5 Li6 2.886076 1_545
Li6 Sn3 3.224762 1_655
Li6 Sn3 3.224762 1_555
Li6 Sn0 3.239437 1_555
Li6 Sn4 3.259933 1_565
Li6 Sn5 3.319799 1_655
Li6 Sn5 3.319799 1_555
Li7 Sn2 3.224762 1_455
Li7 Sn2 3.224762 1_555
Li7 Sn1 3.239437 1_555
Li7 Sn5 3.259933 1_545
Li7 Sn4 3.319799 1_455
Li7 Sn4 3.319799 1_555
Li8 Sn1 2.944693 1_655
Li8 Sn1 2.944693 1_555
Li9 Sn0 2.944693 1_455
Li9 Sn0 2.944693 1_555
Li10 Sn5 2.881024 1_555
Li10 Sn5 2.881024 1_655
Li10 Sn0 2.933229 1_555
Li10 Li6 2.992749 1_555
Li11 Sn4 2.881024 1_455
Li11 Sn4 2.881024 1_555
Li11 Sn1 2.933229 1_555
Li11 Li7 2.992749 1_555
Li12 Sn3 2.882659 1_555
Li12 Sn3 2.882659 1_655
Li12 Li6 2.885160 1_555
Li12 Sn0 2.924491 1_555
Li13 Sn2 2.882659 1_555
Li13 Sn2 2.882659 1_455
Li13 Li7 2.885160 1_555
Li13 Sn1 2.924491 1_555
