# generated using pymatgen
data_Cs16HfSnBi8
_symmetry_space_group_name_H-M   'P 1'
_cell_length_a   12.71587221
_cell_length_b   12.71587136
_cell_length_c   12.71587260
_cell_angle_alpha   59.99999929
_cell_angle_beta   60.00000151
_cell_angle_gamma   60.00000025
_symmetry_Int_Tables_number   1
_chemical_formula_structural   Cs16HfSnBi8
_chemical_formula_sum   'Cs16 Hf1 Sn1 Bi8'
_cell_volume   1453.86290019
_cell_formula_units_Z   1
loop_
 _symmetry_equiv_pos_site_id
 _symmetry_equiv_pos_as_xyz
  1  'x, y, z'
loop_
 _atom_site_type_symbol
 _atom_site_label
 _atom_site_symmetry_multiplicity
 _atom_site_fract_x
 _atom_site_fract_y
 _atom_site_fract_z
 _atom_site_occupancy
  Cs  Cs0  1  0.62227681  0.13316857  0.62227681  1
  Cs  Cs1  1  0.62227681  0.62227681  0.13316857  1
  Cs  Cs2  1  0.13316857  0.62227681  0.62227681  1
  Cs  Cs3  1  0.62227681  0.62227681  0.62227681  1
  Cs  Cs4  1  0.02138943  0.02138943  0.47861057  1
  Cs  Cs5  1  0.77661986  0.22338014  0.22338014  1
  Cs  Cs6  1  0.22338014  0.77661986  0.77661986  1
  Cs  Cs7  1  0.77661986  0.77661986  0.22338014  1
  Cs  Cs8  1  0.77661986  0.22338014  0.77661986  1
  Cs  Cs9  1  0.22338014  0.77661986  0.22338014  1
  Cs  Cs10  1  0.47861057  0.02138943  0.47861057  1
  Cs  Cs11  1  0.47861057  0.02138943  0.02138943  1
  Cs  Cs12  1  0.02138943  0.47861057  0.47861057  1
  Cs  Cs13  1  0.02138943  0.47861057  0.02138943  1
  Cs  Cs14  1  0.22338014  0.22338014  0.77661986  1
  Cs  Cs15  1  0.47861057  0.47861057  0.02138943  1
  Hf  Hf0  1  0.75000000  0.75000000  0.75000000  1
  Sn  Sn0  1  0.50000000  0.50000000  0.50000000  1
  Bi  Bi0  1  0.40160161  0.79519516  0.40160161  1
  Bi  Bi1  1  0.84451563  0.84451563  0.46645312  1
  Bi  Bi2  1  0.46645312  0.84451563  0.84451563  1
  Bi  Bi3  1  0.84451563  0.84451563  0.84451563  1
  Bi  Bi4  1  0.79519516  0.40160161  0.40160161  1
  Bi  Bi5  1  0.40160161  0.40160161  0.40160161  1
  Bi  Bi6  1  0.40160161  0.40160161  0.79519516  1
  Bi  Bi7  1  0.84451563  0.46645312  0.84451563  1
loop_
_geom_bond_atom_site_label_1
_geom_bond_atom_site_label_2
_geom_bond_distance
_geom_bond_site_symmetry_2
Cs0 Sn0 3.808615 1_555
Cs0 Hf0 3.978234 1_545
Cs0 Cs10 4.150370 1_555
Cs0 Cs4 4.150381 1_655
Cs0 Cs11 4.150381 1_556
Cs0 Cs14 4.168207 1_555
Cs0 Cs5 4.168207 1_555
Cs0 Cs8 4.168218 1_555
Cs1 Sn0 3.808615 1_555
Cs1 Hf0 3.978235 1_554
Cs1 Cs15 4.150370 1_555
Cs1 Cs11 4.150381 1_565
Cs1 Cs13 4.150381 1_655
Cs1 Cs5 4.168207 1_555
Cs1 Cs9 4.168207 1_555
Cs1 Cs7 4.168218 1_555
Cs2 Sn0 3.808615 1_555
Cs2 Hf0 3.978235 1_455
Cs2 Cs4 4.150381 1_565
Cs2 Cs9 4.168207 1_555
Cs2 Cs6 4.168218 1_555
Cs3 Sn0 3.808605 1_555
Cs3 Hf0 3.978245 1_555
Cs3 Cs8 4.168208 1_555
Cs3 Cs6 4.168208 1_555
Cs3 Cs7 4.168208 1_555
Cs4 Cs9 4.537487 1_545
Cs4 Cs6 4.537487 1_545
Cs4 Cs5 4.537487 1_455
Cs4 Cs8 4.537487 1_455
Cs10 Cs3 4.150380 1_545
Cs10 Cs6 4.537487 1_545
Cs10 Cs5 4.537487 1_555
Cs10 Cs7 4.537487 1_545
Cs10 Cs14 4.537487 1_555
Cs11 Cs9 4.537486 1_545
Cs11 Cs8 4.537487 1_554
Cs11 Cs7 4.537487 1_545
Cs11 Cs14 4.537487 1_554
Cs12 Cs2 4.150370 1_555
Cs12 Cs3 4.150380 1_455
Cs12 Cs9 4.537486 1_555
Cs12 Cs8 4.537487 1_455
Cs12 Cs7 4.537487 1_455
Cs12 Cs14 4.537487 1_555
Cs13 Cs2 4.150381 1_554
Cs13 Cs6 4.537486 1_554
Cs13 Cs5 4.537486 1_455
Cs13 Cs7 4.537487 1_455
Cs13 Cs14 4.537487 1_554
Cs14 Cs2 4.168207 1_555
Cs15 Cs3 4.150380 1_554
Cs15 Cs9 4.537487 1_555
Cs15 Cs6 4.537487 1_554
Cs15 Cs5 4.537487 1_555
Cs15 Cs8 4.537487 1_554
Bi0 Sn0 3.064854 1_555
Bi0 Cs3 4.014588 1_555
Bi0 Cs2 4.014598 1_555
Bi0 Cs1 4.014598 1_555
Bi0 Cs9 4.066192 1_555
Bi0 Cs7 4.066192 1_555
Bi0 Cs6 4.066192 1_555
Bi0 Cs10 4.096661 1_565
Bi0 Cs4 4.096662 1_565
Bi0 Cs11 4.096662 1_565
Bi1 Hf0 2.943916 1_555
Bi1 Cs12 3.986816 1_655
Bi1 Cs4 3.986816 1_665
Bi1 Cs10 3.986816 1_565
Bi1 Cs0 4.084758 1_565
Bi1 Cs2 4.084758 1_655
Bi1 Cs3 4.084768 1_555
Bi1 Cs5 4.138449 1_565
Bi1 Cs7 4.138450 1_555
Bi1 Cs9 4.138450 1_655
Bi2 Hf0 2.943916 1_555
Bi2 Cs15 3.986816 1_556
Bi2 Cs11 3.986816 1_566
Bi2 Cs10 3.986816 1_565
Bi2 Cs0 4.084758 1_565
Bi2 Cs1 4.084758 1_556
Bi2 Cs3 4.084768 1_555
Bi2 Cs14 4.138449 1_565
Bi2 Cs6 4.138450 1_555
Bi2 Cs9 4.138450 1_556
Bi3 Hf0 2.943916 1_555
Bi3 Cs13 3.986816 1_656
Bi3 Cs11 3.986816 1_566
Bi3 Cs4 3.986816 1_665
Bi3 Cs1 4.084765 1_556
Bi3 Cs0 4.084765 1_565
Bi3 Cs2 4.084765 1_655
Bi3 Cs8 4.138449 1_565
Bi3 Cs6 4.138450 1_655
Bi3 Cs7 4.138450 1_556
Bi4 Sn0 3.064854 1_555
Bi4 Cs3 4.014588 1_555
Bi4 Cs0 4.014598 1_555
Bi4 Cs1 4.014598 1_555
Bi4 Cs7 4.066192 1_555
Bi4 Cs5 4.066192 1_555
Bi4 Cs8 4.066192 1_555
Bi4 Cs4 4.096661 1_655
Bi4 Cs12 4.096662 1_655
Bi4 Cs13 4.096662 1_655
Bi5 Sn0 3.064854 1_555
Bi5 Cs1 4.014590 1_555
Bi5 Cs0 4.014590 1_555
Bi5 Cs2 4.014590 1_555
Bi5 Cs9 4.066192 1_555
Bi5 Cs5 4.066192 1_555
Bi5 Cs14 4.066192 1_555
Bi5 Cs10 4.096661 1_555
Bi5 Cs12 4.096662 1_555
Bi5 Cs15 4.096662 1_555
Bi6 Sn0 3.064854 1_555
Bi6 Cs3 4.014588 1_555
Bi6 Cs0 4.014598 1_555
Bi6 Cs2 4.014598 1_555
Bi6 Cs6 4.066192 1_555
Bi6 Cs14 4.066192 1_555
Bi6 Cs8 4.066192 1_555
Bi6 Cs11 4.096661 1_556
Bi6 Cs15 4.096662 1_556
Bi6 Cs13 4.096662 1_556
Bi7 Hf0 2.943916 1_555
Bi7 Cs13 3.986816 1_656
Bi7 Cs15 3.986816 1_556
Bi7 Cs12 3.986816 1_655
Bi7 Cs2 4.084758 1_655
Bi7 Cs1 4.084758 1_556
Bi7 Cs3 4.084768 1_555
Bi7 Cs8 4.138449 1_555
Bi7 Cs14 4.138450 1_655
Bi7 Cs5 4.138450 1_556
