# generated using pymatgen
data_Nb12Al9Rh3C4
_symmetry_space_group_name_H-M   'P 1'
_cell_length_a   8.34117009
_cell_length_b   8.33550033
_cell_length_c   8.34116929
_cell_angle_alpha   59.97749603
_cell_angle_beta   59.99999924
_cell_angle_gamma   59.97749854
_symmetry_Int_Tables_number   1
_chemical_formula_structural   Nb12Al9Rh3C4
_chemical_formula_sum   'Nb12 Al9 Rh3 C4'
_cell_volume   409.94234981
_cell_formula_units_Z   1
loop_
 _symmetry_equiv_pos_site_id
 _symmetry_equiv_pos_as_xyz
  1  'x, y, z'
loop_
 _atom_site_type_symbol
 _atom_site_label
 _atom_site_symmetry_multiplicity
 _atom_site_fract_x
 _atom_site_fract_y
 _atom_site_fract_z
 _atom_site_occupancy
  Nb  Nb0  1  0.81474218  0.81612713  0.18456585  1
  Nb  Nb1  1  0.19231670  0.18551121  0.81108604  1
  Nb  Nb2  1  0.81108604  0.18551121  0.81108604  1
  Nb  Nb3  1  0.18456585  0.81612713  0.18456585  1
  Nb  Nb4  1  0.18456585  0.81612713  0.81474218  1
  Nb  Nb5  1  0.81108604  0.18551121  0.19231670  1
  Nb  Nb6  1  0.43525782  0.43387287  0.06543415  1
  Nb  Nb7  1  0.05768330  0.06448879  0.43891396  1
  Nb  Nb8  1  0.43891396  0.06448879  0.43891396  1
  Nb  Nb9  1  0.06543415  0.43387287  0.06543415  1
  Nb  Nb10  1  0.06543415  0.43387287  0.43525782  1
  Nb  Nb11  1  0.43891396  0.06448879  0.05768330  1
  Al  Al0  1  0.62500000  0.12500000  0.62500000  1
  Al  Al1  1  0.75065533  0.42677549  0.41128559  1
  Al  Al2  1  0.41566736  0.75300092  0.41566736  1
  Al  Al3  1  0.41128559  0.42677549  0.75065533  1
  Al  Al4  1  0.41128559  0.42677549  0.41128559  1
  Al  Al5  1  0.49934467  0.82322451  0.83871441  1
  Al  Al6  1  0.83433264  0.49699908  0.83433264  1
  Al  Al7  1  0.83871441  0.82322451  0.49934467  1
  Al  Al8  1  0.83871441  0.82322451  0.83871441  1
  Rh  Rh0  1  0.12500000  0.62500000  0.62500000  1
  Rh  Rh1  1  0.62500000  0.62500000  0.12500000  1
  Rh  Rh2  1  0.62500000  0.62500000  0.62500000  1
  C  C0  1  0.62500000  0.12500000  0.12500000  1
  C  C1  1  0.12500000  0.62500000  0.12500000  1
  C  C2  1  0.12500000  0.12500000  0.62500000  1
  C  C3  1  0.12500000  0.12500000  0.12500000  1
loop_
_geom_bond_atom_site_label_1
_geom_bond_atom_site_label_2
_geom_bond_distance
_geom_bond_site_symmetry_2
Nb0 Rh2 3.064529 1_555
Nb0 Rh1 3.064535 1_555
Nb1 Rh0 3.044316 1_555
Nb2 Rh2 3.044316 1_555
Nb3 Rh0 3.064528 1_555
Nb3 Rh1 3.064528 1_555
Nb4 Rh2 3.064529 1_555
Nb4 Rh0 3.064535 1_555
Nb5 Rh1 3.044316 1_555
Nb6 Rh2 3.064529 1_554
Nb6 Rh1 3.064535 1_555
Nb7 Rh0 3.044316 1_545
Nb8 Rh2 3.044316 1_545
Nb9 Rh0 3.064528 1_554
Nb9 Rh1 3.064528 1_455
Nb10 Rh2 3.064529 1_455
Nb10 Rh0 3.064535 1_555
Nb11 Rh1 3.044316 1_545
Al0 Al8 2.624205 1_545
Al0 Al4 2.624205 1_555
Al0 Al1 2.624214 1_555
Al0 Al5 2.624214 1_545
Al0 Al3 2.624214 1_555
Al0 Al7 2.624214 1_545
Al0 Nb11 3.008160 1_556
Al0 Nb5 3.008160 1_555
Al0 Nb2 3.008160 1_555
Al0 Nb8 3.008160 1_555
Al0 Nb7 3.008160 1_655
Al0 Nb1 3.008160 1_555
Al1 Rh2 2.520411 1_555
Al1 Rh1 2.520425 1_555
Al2 Rh2 2.560520 1_555
Al2 Rh1 2.560541 1_555
Al2 Rh0 2.560541 1_555
Al3 Rh2 2.520411 1_555
Al3 Rh0 2.520425 1_555
Al4 Rh1 2.520415 1_555
Al4 Rh0 2.520415 1_555
Al5 Rh2 2.520411 1_555
Al5 Rh1 2.520425 1_556
Al6 Rh2 2.560520 1_555
Al6 Rh1 2.560541 1_556
Al6 Rh0 2.560541 1_655
Al7 Rh2 2.520411 1_555
Al7 Rh0 2.520425 1_655
Al8 Rh1 2.520415 1_556
Al8 Rh0 2.520415 1_655
C0 Nb6 2.192961 1_555
C0 Nb0 2.192961 1_545
C0 Nb8 2.217506 1_555
C0 Nb2 2.217506 1_554
C0 Nb5 2.217506 1_555
C0 Nb11 2.217506 1_555
C1 Nb4 2.205181 1_554
C1 Nb10 2.205181 1_555
C1 Nb6 2.205181 1_555
C1 Nb0 2.205181 1_455
C1 Nb3 2.205187 1_555
C1 Nb9 2.205187 1_555
C2 Nb10 2.192961 1_555
C2 Nb4 2.192961 1_545
C2 Nb1 2.217506 1_555
C2 Nb7 2.217506 1_555
C2 Nb8 2.217506 1_555
C2 Nb2 2.217506 1_455
C3 Nb9 2.192959 1_555
C3 Nb3 2.192959 1_545
C3 Nb7 2.217506 1_555
C3 Nb1 2.217506 1_554
C3 Nb11 2.217506 1_555
C3 Nb5 2.217506 1_455
