# generated using pymatgen
data_Lu12InTc3Pb
_symmetry_space_group_name_H-M   'P 1'
_cell_length_a   8.26560001
_cell_length_b   8.26559961
_cell_length_c   8.26559992
_cell_angle_alpha   108.72363673
_cell_angle_beta   109.16760902
_cell_angle_gamma   110.52790530
_symmetry_Int_Tables_number   1
_chemical_formula_structural   Lu12InTc3Pb
_chemical_formula_sum   'Lu12 In1 Tc3 Pb1'
_cell_volume   434.59409210
_cell_formula_units_Z   1
loop_
 _symmetry_equiv_pos_site_id
 _symmetry_equiv_pos_as_xyz
  1  'x, y, z'
loop_
 _atom_site_type_symbol
 _atom_site_label
 _atom_site_symmetry_multiplicity
 _atom_site_fract_x
 _atom_site_fract_y
 _atom_site_fract_z
 _atom_site_occupancy
  Lu  Lu0  1  0.30332403  0.30746182  0.61078785  1
  Lu  Lu1  1  0.69667597  0.69253818  0.38921215  1
  Lu  Lu2  1  0.69667597  0.30746182  0.00413779  1
  Lu  Lu3  1  0.30332403  0.69253818  0.99586221  1
  Lu  Lu4  1  0.18822627  0.42712610  0.23889983  1
  Lu  Lu5  1  0.81177373  0.57287390  0.76110017  1
  Lu  Lu6  1  0.18822627  0.94932544  0.76110017  1
  Lu  Lu7  1  0.95192276  0.19012705  0.76179671  1
  Lu  Lu8  1  0.81177373  0.05067456  0.23889983  1
  Lu  Lu9  1  0.04807724  0.80987295  0.23820329  1
  Lu  Lu10  1  0.42833034  0.19012705  0.23820329  1
  Lu  Lu11  1  0.57166966  0.80987295  0.76179671  1
  In  In0  1  0.00000000  0.50000000  0.50000000  1
  Tc  Tc0  1  0.37413606  0.37413606  1.00000000  1
  Tc  Tc1  1  0.62586394  0.62586394  0.00000000  1
  Tc  Tc2  1  0.00000000  0.00000000  0.00000000  1
  Pb  Pb0  1  0.50000000  0.00000000  0.50000000  1
loop_
_geom_bond_atom_site_label_1
_geom_bond_atom_site_label_2
_geom_bond_distance
_geom_bond_site_symmetry_2
Lu0 Tc0 2.897397 1_555
Lu0 Tc1 2.897405 1_556
Lu0 Lu8 3.467507 1_455
Lu0 Lu4 3.467516 1_555
Lu0 Lu7 3.480970 1_455
Lu0 Lu11 3.480978 1_555
Lu0 Pb0 3.510080 1_555
Lu0 Lu9 3.516689 1_545
Lu0 Lu10 3.516698 1_555
Lu0 Lu6 3.517644 1_545
Lu0 Lu5 3.517652 1_555
Lu1 Tc1 2.897397 1_555
Lu1 Tc0 2.897405 1_554
Lu1 Lu6 3.467507 1_655
Lu1 Lu5 3.467516 1_555
Lu1 Lu9 3.480970 1_655
Lu1 Lu10 3.480978 1_555
Lu1 Pb0 3.510080 1_565
Lu1 Lu7 3.516689 1_565
Lu1 Lu11 3.516698 1_555
Lu1 Lu8 3.517644 1_565
Lu1 Lu4 3.517652 1_555
Lu2 Tc1 2.897413 1_555
Lu2 Tc0 2.897413 1_554
Lu2 Lu8 3.467494 1_555
Lu2 Lu4 3.467501 1_655
Lu2 Lu9 3.480976 1_655
Lu2 Pb0 3.510077 1_554
Lu2 Lu7 3.516676 1_554
Lu2 Lu5 3.517648 1_554
Lu2 Lu6 3.517651 1_544
Lu3 Tc0 2.897413 1_555
Lu3 Tc1 2.897413 1_556
Lu3 Lu6 3.467494 1_555
Lu3 Lu5 3.467501 1_455
Lu3 Lu7 3.480976 1_455
Lu3 Pb0 3.510077 1_566
Lu3 Lu9 3.516676 1_556
Lu3 Lu4 3.517648 1_556
Lu3 Lu8 3.517651 1_566
Lu4 Tc0 2.891663 1_554
Lu4 Tc2 2.904929 1_555
Lu4 Lu7 3.240826 1_454
Lu4 Lu8 3.545961 1_455
Lu4 Lu9 3.732033 1_555
Lu4 Pb0 3.866442 1_565
Lu5 Tc1 2.891663 1_556
Lu5 Tc2 2.904929 1_666
Lu5 Lu9 3.240826 1_656
Lu5 Lu6 3.545961 1_655
Lu5 Lu7 3.732033 1_555
Lu5 Pb0 3.866442 1_555
Lu6 Tc0 2.891670 1_565
Lu6 Tc2 2.904930 1_566
Lu6 Lu7 3.240840 1_465
Lu6 Lu9 3.732041 1_555
Lu6 Pb0 3.866442 1_565
Lu7 Tc0 2.865609 1_655
Lu7 Tc2 2.900822 1_656
Lu7 Pb0 3.081784 1_555
Lu7 Lu8 3.732041 1_555
Lu8 Tc1 2.891670 1_545
Lu8 Tc2 2.904930 1_655
Lu8 Lu9 3.240840 1_645
Lu8 Pb0 3.866442 1_555
Lu9 Tc1 2.865609 1_455
Lu9 Tc2 2.900822 1_565
Lu9 Pb0 3.081784 1_565
Lu10 Tc0 2.865602 1_554
Lu10 Tc2 2.900822 1_555
Lu10 Pb0 3.081790 1_555
Lu10 Lu4 3.240826 1_555
Lu10 Lu6 3.240826 1_544
Lu10 Lu2 3.480974 1_555
Lu10 Lu3 3.516683 1_544
Lu10 Lu9 3.581769 1_545
Lu10 Lu8 3.732033 1_555
Lu10 Lu5 3.732038 1_555
Lu11 Tc1 2.865602 1_556
Lu11 Tc2 2.900822 1_666
Lu11 Pb0 3.081790 1_565
Lu11 Lu5 3.240826 1_555
Lu11 Lu8 3.240826 1_566
Lu11 Lu3 3.480974 1_555
Lu11 Lu2 3.516683 1_566
Lu11 Lu7 3.581769 1_565
Lu11 Lu6 3.732033 1_555
Lu11 Lu4 3.732038 1_555
In0 Lu6 3.077081 1_555
In0 Lu8 3.077081 1_455
In0 Lu5 3.077087 1_455
In0 Lu4 3.077087 1_555
In0 Lu2 3.447223 1_455
In0 Lu3 3.447223 1_555
In0 Lu1 3.447226 1_455
In0 Lu0 3.447226 1_555
In0 Lu11 3.848336 1_555
In0 Lu10 3.848336 1_455
In0 Lu7 3.848336 1_455
In0 Lu9 3.848336 1_555
Tc0 Tc1 2.371131 1_556
