# generated using pymatgen
data_SrYCuS3
_symmetry_space_group_name_H-M   'P 1'
_cell_length_a   3.93339089
_cell_length_b   10.23167119
_cell_length_c   12.98694025
_cell_angle_alpha   90.00000000
_cell_angle_beta   90.00000000
_cell_angle_gamma   90.00000000
_symmetry_Int_Tables_number   1
_chemical_formula_structural   SrYCuS3
_chemical_formula_sum   'Sr4 Y4 Cu4 S12'
_cell_volume   522.66151726
_cell_formula_units_Z   4
loop_
 _symmetry_equiv_pos_site_id
 _symmetry_equiv_pos_as_xyz
  1  'x, y, z'
loop_
 _atom_site_type_symbol
 _atom_site_label
 _atom_site_symmetry_multiplicity
 _atom_site_fract_x
 _atom_site_fract_y
 _atom_site_fract_z
 _atom_site_occupancy
  Sr  Sr0  1  0.75000000  0.76407314  0.99834131  1
  Sr  Sr1  1  0.25000000  0.23592686  0.00165869  1
  Sr  Sr2  1  0.75000000  0.26407314  0.50165869  1
  Sr  Sr3  1  0.25000000  0.73592686  0.49834131  1
  Y  Y0  1  0.75000000  0.00779388  0.25497429  1
  Y  Y1  1  0.25000000  0.99220612  0.74502571  1
  Y  Y2  1  0.75000000  0.50779388  0.24502571  1
  Y  Y3  1  0.25000000  0.49220612  0.75497429  1
  Cu  Cu0  1  0.75000000  0.74332855  0.72176918  1
  Cu  Cu1  1  0.25000000  0.25667145  0.27823082  1
  Cu  Cu2  1  0.75000000  0.24332855  0.77823082  1
  Cu  Cu3  1  0.25000000  0.75667145  0.22176918  1
  S  S0  1  0.75000000  0.25569397  0.17489016  1
  S  S1  1  0.25000000  0.74430603  0.82510984  1
  S  S2  1  0.75000000  0.75569397  0.32510984  1
  S  S3  1  0.25000000  0.24430603  0.67489016  1
  S  S4  1  0.75000000  0.05988336  0.88350256  1
  S  S5  1  0.25000000  0.94011664  0.11649744  1
  S  S6  1  0.75000000  0.55988336  0.61649744  1
  S  S7  1  0.25000000  0.44011664  0.38350256  1
  S  S8  1  0.75000000  0.41971081  0.88899025  1
  S  S9  1  0.25000000  0.58028919  0.11100975  1
  S  S10  1  0.75000000  0.91971081  0.61100975  1
  S  S11  1  0.25000000  0.08028919  0.38899025  1
loop_
_geom_bond_atom_site_label_1
_geom_bond_atom_site_label_2
_geom_bond_distance
_geom_bond_site_symmetry_2
Cu0 S10 2.307804 1_555
Cu0 S6 2.322082 1_555
Cu0 S1 2.381001 1_555
Cu0 S1 2.381001 1_655
Cu1 S11 2.307804 1_555
Cu1 S7 2.322082 1_555
Cu1 S0 2.381001 1_555
Cu1 S0 2.381001 1_455
Cu2 S8 2.307804 1_555
Cu2 S4 2.322082 1_555
Cu2 S3 2.381001 1_555
Cu2 S3 2.381001 1_655
Cu3 S9 2.307804 1_555
Cu3 S5 2.322082 1_555
Cu3 S2 2.381001 1_455
Cu3 S2 2.381001 1_555
S0 Y2 2.735500 1_555
S0 Y0 2.741384 1_555
S0 Sr1 2.995022 1_655
S0 Sr1 2.995022 1_555
S1 Y3 2.735500 1_555
S1 Y1 2.741384 1_555
S1 Sr0 2.995022 1_455
S1 Sr0 2.995022 1_555
S2 Y0 2.735500 1_565
S2 Y2 2.741384 1_555
S2 Sr3 2.995022 1_655
S2 Sr3 2.995022 1_555
S3 Y1 2.735500 1_545
S3 Y3 2.741384 1_555
S3 Sr2 2.995022 1_455
S3 Sr2 2.995022 1_555
S4 Y1 2.753468 1_645
S4 Y1 2.753468 1_545
S4 Sr1 3.076838 1_656
S4 Sr1 3.076838 1_556
S4 Sr0 3.374136 1_545
S5 Y0 2.753468 1_565
S5 Y0 2.753468 1_465
S5 Sr0 3.076838 1_554
S5 Sr0 3.076838 1_454
S5 Sr1 3.374136 1_565
S6 Y3 2.753468 1_555
S6 Y3 2.753468 1_655
S6 Sr3 3.076838 1_555
S6 Sr3 3.076838 1_655
S6 Sr2 3.374136 1_555
S7 Y2 2.753468 1_555
S7 Y2 2.753468 1_455
S7 Sr2 3.076838 1_455
S7 Sr2 3.076838 1_555
S7 Sr3 3.374136 1_555
S8 Y3 2.728969 1_655
S8 Y3 2.728969 1_555
S8 Sr1 3.089477 1_656
S8 Sr1 3.089477 1_556
S9 Y2 2.728969 1_455
S9 Y2 2.728969 1_555
S9 Sr0 3.089477 1_554
S9 Sr0 3.089477 1_454
S10 Y1 2.728969 1_655
S10 Y1 2.728969 1_555
S10 Sr3 3.089477 1_555
S10 Sr3 3.089477 1_655
S11 Y0 2.728969 1_455
S11 Y0 2.728969 1_555
S11 Sr2 3.089477 1_455
S11 Sr2 3.089477 1_555
