# generated using pymatgen
data_MnHgBr18
_symmetry_space_group_name_H-M   'P 1'
_cell_length_a   9.03794425
_cell_length_b   9.03794294
_cell_length_c   9.03794394
_cell_angle_alpha   94.61524718
_cell_angle_beta   94.61524641
_cell_angle_gamma   94.61524388
_symmetry_Int_Tables_number   1
_chemical_formula_structural   MnHgBr18
_chemical_formula_sum   'Mn1 Hg1 Br18'
_cell_volume   730.66582349
_cell_formula_units_Z   1
loop_
 _symmetry_equiv_pos_site_id
 _symmetry_equiv_pos_as_xyz
  1  'x, y, z'
loop_
 _atom_site_type_symbol
 _atom_site_label
 _atom_site_symmetry_multiplicity
 _atom_site_fract_x
 _atom_site_fract_y
 _atom_site_fract_z
 _atom_site_occupancy
  Mn  Mn0  1  0.00000000  0.00000000  0.00000000  1
  Hg  Hg0  1  0.50000000  0.50000000  0.50000000  1
  Br  Br0  1  0.27190607  0.99361033  0.04326839  1
  Br  Br1  1  0.04326839  0.27190607  0.99361033  1
  Br  Br2  1  0.99361033  0.04326839  0.27190607  1
  Br  Br3  1  0.72809393  0.00638967  0.95673161  1
  Br  Br4  1  0.95673161  0.72809393  0.00638967  1
  Br  Br5  1  0.00638967  0.95673161  0.72809393  1
  Br  Br6  1  0.63578005  0.25055985  0.09102607  1
  Br  Br7  1  0.09102607  0.63578005  0.25055985  1
  Br  Br8  1  0.25055985  0.09102607  0.63578005  1
  Br  Br9  1  0.36421995  0.74944015  0.90897393  1
  Br  Br10  1  0.90897393  0.36421995  0.74944015  1
  Br  Br11  1  0.74944015  0.90897393  0.36421995  1
  Br  Br12  1  0.47711902  0.19242138  0.53326610  1
  Br  Br13  1  0.53326610  0.47711902  0.19242138  1
  Br  Br14  1  0.19242138  0.53326610  0.47711902  1
  Br  Br15  1  0.52288098  0.80757862  0.46673390  1
  Br  Br16  1  0.46673390  0.52288098  0.80757862  1
  Br  Br17  1  0.80757862  0.46673390  0.52288098  1
loop_
_geom_bond_atom_site_label_1
_geom_bond_atom_site_label_2
_geom_bond_distance
_geom_bond_site_symmetry_2
Br0 Mn0 2.463178 1_565
Br0 Br9 2.658468 1_554
Br1 Mn0 2.463178 1_556
Br1 Br10 2.658468 1_455
Br2 Mn0 2.463178 1_655
Br3 Mn0 2.463178 1_656
Br3 Br6 2.658468 1_556
Br4 Mn0 2.463178 1_665
Br4 Br7 2.658468 1_655
Br5 Mn0 2.463178 1_566
Br5 Br8 2.658468 1_565
Br10 Br17 2.455806 1_555
Br11 Br15 2.455806 1_555
Br11 Br2 2.658468 1_565
Br12 Br8 2.455806 1_555
Br12 Hg0 2.812984 1_555
Br13 Br6 2.455806 1_555
Br13 Hg0 2.812984 1_555
Br14 Br7 2.455806 1_555
Br14 Hg0 2.812984 1_555
Br15 Hg0 2.812984 1_555
Br16 Br9 2.455806 1_555
Br16 Hg0 2.812984 1_555
Br17 Hg0 2.812984 1_555
