# generated using pymatgen
data_Hg3Ir4PbO14
_symmetry_space_group_name_H-M   'P 1'
_cell_length_a   7.21810775
_cell_length_b   7.29634026
_cell_length_c   7.21810743
_cell_angle_alpha   60.35405823
_cell_angle_beta   60.00000144
_cell_angle_gamma   60.35406028
_symmetry_Int_Tables_number   1
_chemical_formula_structural   Hg3Ir4PbO14
_chemical_formula_sum   'Hg3 Ir4 Pb1 O14'
_cell_volume   270.23422263
_cell_formula_units_Z   1
loop_
 _symmetry_equiv_pos_site_id
 _symmetry_equiv_pos_as_xyz
  1  'x, y, z'
loop_
 _atom_site_type_symbol
 _atom_site_label
 _atom_site_symmetry_multiplicity
 _atom_site_fract_x
 _atom_site_fract_y
 _atom_site_fract_z
 _atom_site_occupancy
  Hg  Hg0  1  0.62500000  0.12500000  0.12500000  1
  Hg  Hg1  1  0.12500000  0.12500000  0.62500000  1
  Hg  Hg2  1  0.12500000  0.12500000  0.12500000  1
  Ir  Ir0  1  0.12500000  0.62500000  0.62500000  1
  Ir  Ir1  1  0.62500000  0.12500000  0.62500000  1
  Ir  Ir2  1  0.62500000  0.62500000  0.12500000  1
  Ir  Ir3  1  0.62500000  0.62500000  0.62500000  1
  Pb  Pb0  1  0.12500000  0.62500000  0.12500000  1
  O  O0  1  0.71087148  0.68980000  0.29966426  1
  O  O1  1  0.30358282  0.30718805  0.69461507  1
  O  O2  1  0.69461507  0.30718805  0.69461507  1
  O  O3  1  0.29966426  0.68980000  0.29966426  1
  O  O4  1  0.29966426  0.68980000  0.71087148  1
  O  O5  1  0.69461507  0.30718805  0.30358282  1
  O  O6  1  0.53912852  0.56020000  0.95033574  1
  O  O7  1  0.94641718  0.94281195  0.55538493  1
  O  O8  1  0.55538493  0.94281195  0.55538493  1
  O  O9  1  0.95033574  0.56020000  0.95033574  1
  O  O10  1  0.95033574  0.56020000  0.53912852  1
  O  O11  1  0.55538493  0.94281195  0.94641718  1
  O  O12  1  0.25694924  0.22915327  0.25694924  1
  O  O13  1  0.99305076  0.02084673  0.99305076  1
loop_
_geom_bond_atom_site_label_1
_geom_bond_atom_site_label_2
_geom_bond_distance
_geom_bond_site_symmetry_2
Hg0 O13 2.175053 1_554
Hg0 O12 2.175053 1_555
Hg0 O8 2.585495 1_545
Hg0 O2 2.585495 1_554
Hg0 O5 2.585501 1_555
Hg0 O11 2.585501 1_544
Hg0 O6 2.632600 1_554
Hg0 O0 2.632600 1_545
Hg1 O13 2.175053 1_455
Hg1 O12 2.175053 1_555
Hg1 O8 2.585495 1_545
Hg1 O2 2.585495 1_455
Hg1 O1 2.585501 1_555
Hg1 O7 2.585501 1_445
Hg1 O10 2.632600 1_455
Hg1 O4 2.632600 1_545
Hg2 O12 2.175059 1_555
Hg2 O13 2.175059 1_454
Hg2 O1 2.585496 1_554
Hg2 O7 2.585496 1_445
Hg2 O11 2.585496 1_544
Hg2 O5 2.585496 1_455
Hg2 O9 2.632600 1_454
Hg2 O3 2.632600 1_545
Ir0 O1 1.956835 1_555
Ir0 O7 1.956835 1_455
Ir0 O4 1.964247 1_555
Ir0 O9 1.964247 1_455
Ir0 O3 1.964247 1_555
Ir0 O10 1.964247 1_455
Ir1 O11 1.961152 1_545
Ir1 O5 1.961152 1_555
Ir1 O7 1.961153 1_545
Ir1 O1 1.961153 1_555
Ir1 O2 1.961158 1_555
Ir1 O8 1.961158 1_545
Ir2 O11 1.956835 1_554
Ir2 O5 1.956835 1_555
Ir2 O0 1.964247 1_555
Ir2 O6 1.964247 1_554
Ir2 O9 1.964247 1_554
Ir2 O3 1.964247 1_555
Ir3 O8 1.956833 1_555
Ir3 O2 1.956833 1_555
Ir3 O6 1.964247 1_555
Ir3 O0 1.964247 1_555
Ir3 O10 1.964247 1_555
Ir3 O4 1.964247 1_555
O0 Pb0 2.484223 1_655
O3 Pb0 2.484223 1_555
O4 Pb0 2.484223 1_556
O6 Pb0 2.484223 1_556
O9 Pb0 2.484223 1_656
O10 Pb0 2.484223 1_655
O12 Pb0 2.370774 1_555
O13 Pb0 2.370774 1_646
