# generated using pymatgen
data_Y2Ga3Ni2Pt7
_symmetry_space_group_name_H-M   'P 1'
_cell_length_a   7.69114207
_cell_length_b   7.69114169
_cell_length_c   9.86607587
_cell_angle_alpha   67.03281244
_cell_angle_beta   67.03280273
_cell_angle_gamma   59.25311448
_symmetry_Int_Tables_number   1
_chemical_formula_structural   Y2Ga3Ni2Pt7
_chemical_formula_sum   'Y4 Ga6 Ni4 Pt14'
_cell_volume   448.20407711
_cell_formula_units_Z   2
loop_
 _symmetry_equiv_pos_site_id
 _symmetry_equiv_pos_as_xyz
  1  'x, y, z'
loop_
 _atom_site_type_symbol
 _atom_site_label
 _atom_site_symmetry_multiplicity
 _atom_site_fract_x
 _atom_site_fract_y
 _atom_site_fract_z
 _atom_site_occupancy
  Y  Y0  1  0.42026884  0.24747956  0.25053646  1
  Y  Y1  1  0.57973116  0.75252044  0.74946354  1
  Y  Y2  1  0.75252044  0.57973116  0.24946354  1
  Y  Y3  1  0.24747956  0.42026884  0.75053646  1
  Ga  Ga0  1  0.50000000  0.00000000  0.00000000  1
  Ga  Ga1  1  0.00000000  0.50000000  0.50000000  1
  Ga  Ga2  1  0.63892547  0.17872385  0.50723041  1
  Ga  Ga3  1  0.36107453  0.82127615  0.49276959  1
  Ga  Ga4  1  0.82127615  0.36107453  0.99276959  1
  Ga  Ga5  1  0.17872385  0.63892547  0.00723041  1
  Ni  Ni0  1  0.27877318  0.91516298  0.25050142  1
  Ni  Ni1  1  0.72122682  0.08483702  0.74949858  1
  Ni  Ni2  1  0.08483702  0.72122682  0.24949858  1
  Ni  Ni3  1  0.91516298  0.27877318  0.75050142  1
  Pt  Pt0  1  0.45799528  0.65188021  0.08525422  1
  Pt  Pt1  1  0.54200472  0.34811979  0.91474578  1
  Pt  Pt2  1  0.34811979  0.54200472  0.41474578  1
  Pt  Pt3  1  0.65188021  0.45799528  0.58525422  1
  Pt  Pt4  1  0.87883800  0.12116200  0.25000000  1
  Pt  Pt5  1  0.12116200  0.87883800  0.75000000  1
  Pt  Pt6  1  0.81696853  0.96292922  0.07709877  1
  Pt  Pt7  1  0.18303147  0.03707078  0.92290123  1
  Pt  Pt8  1  0.03707078  0.18303147  0.42290123  1
  Pt  Pt9  1  0.96292922  0.81696853  0.57709877  1
  Pt  Pt10  1  0.70426146  0.85235566  0.41541741  1
  Pt  Pt11  1  0.29573854  0.14764434  0.58458259  1
  Pt  Pt12  1  0.14764434  0.29573854  0.08458259  1
  Pt  Pt13  1  0.85235566  0.70426146  0.91541741  1
loop_
_geom_bond_atom_site_label_1
_geom_bond_atom_site_label_2
_geom_bond_distance
_geom_bond_site_symmetry_2
Ga0 Ni0 2.454361 1_545
Ga0 Ni1 2.454361 1_554
Ga0 Pt13 2.574468 1_544
Ga0 Pt12 2.574468 1_555
Ga0 Pt1 2.625907 1_554
Ga0 Pt0 2.625907 1_545
Ga0 Pt6 2.677728 1_545
Ga0 Pt7 2.677728 1_554
Ga0 Y2 3.373520 1_545
Ga0 Y3 3.373520 1_554
Ga0 Y0 3.377002 1_555
Ga0 Y1 3.377002 1_544
Ga1 Ni3 2.454361 1_455
Ga1 Ni2 2.454361 1_555
Ga1 Pt10 2.574468 1_455
Ga1 Pt11 2.574468 1_555
Ga1 Pt2 2.625907 1_555
Ga1 Pt3 2.625907 1_455
Ga1 Pt9 2.677728 1_455
Ga1 Pt8 2.677728 1_555
Ga1 Y0 3.373519 1_555
Ga1 Y1 3.373519 1_455
Ga1 Y3 3.377002 1_555
Ga1 Y2 3.377002 1_455
Ga2 Ni1 2.449848 1_555
Ga2 Pt4 2.535446 1_555
Ga2 Pt11 2.556804 1_555
Ga2 Pt3 2.604820 1_555
Ga2 Pt2 2.618214 1_555
Ga2 Pt9 2.679689 1_545
Ga2 Pt10 2.739228 1_545
Ga2 Pt8 2.857322 1_655
Ga2 Y3 3.224742 1_555
Ga2 Y0 3.300155 1_555
Ga2 Y1 3.350694 1_545
Ga2 Y2 3.412221 1_555
Ga3 Ni0 2.449848 1_555
Ga3 Pt5 2.535446 1_555
Ga3 Pt10 2.556804 1_555
Ga3 Pt2 2.604820 1_555
Ga3 Pt3 2.618214 1_555
Ga3 Pt8 2.679689 1_565
Ga3 Pt11 2.739228 1_565
Ga3 Pt9 2.857322 1_455
Ga3 Y2 3.224742 1_555
Ga3 Y1 3.300155 1_555
Ga3 Y0 3.350694 1_565
Ga3 Y3 3.412221 1_555
Ga4 Ni3 2.449848 1_555
Ga4 Pt4 2.535447 1_556
Ga4 Pt13 2.556804 1_555
Ga4 Pt1 2.604820 1_555
Ga4 Pt0 2.618213 1_556
Ga4 Pt7 2.679689 1_655
Ga4 Pt12 2.739228 1_656
Ga4 Pt6 2.857322 1_546
Ga4 Y1 3.224743 1_555
Ga4 Y2 3.300155 1_556
Ga4 Y3 3.350694 1_655
Ga4 Y0 3.412221 1_556
Ga5 Ni2 2.449848 1_555
Ga5 Pt5 2.535447 1_554
Ga5 Pt12 2.556804 1_555
Ga5 Pt0 2.604820 1_555
Ga5 Pt1 2.618213 1_554
Ga5 Pt6 2.679689 1_455
Ga5 Pt13 2.739228 1_454
Ga5 Pt7 2.857322 1_564
Ga5 Y0 3.224743 1_555
Ga5 Y3 3.300155 1_554
Ga5 Y2 3.350694 1_455
Ga5 Y1 3.412221 1_554
Ni0 Pt0 2.574304 1_555
Ni0 Pt2 2.574328 1_555
Ni0 Ni2 2.597634 1_555
Ni0 Pt12 2.606746 1_565
Ni0 Pt8 2.635234 1_565
Ni0 Pt4 2.644704 1_465
Ni0 Y2 3.211223 1_555
Ni0 Y0 3.249914 1_565
Ni1 Pt1 2.574304 1_555
Ni1 Pt3 2.574328 1_555
Ni1 Ni3 2.597634 1_555
Ni1 Pt13 2.606746 1_545
Ni1 Pt9 2.635234 1_545
Ni1 Pt5 2.644704 1_645
Ni1 Y3 3.211223 1_555
Ni1 Y1 3.249914 1_545
Ni2 Pt2 2.574305 1_555
Ni2 Pt0 2.574328 1_555
Ni2 Pt10 2.606746 1_455
Ni2 Pt6 2.635234 1_455
Ni2 Pt4 2.644704 1_465
Ni2 Y0 3.211223 1_555
Ni2 Y2 3.249914 1_455
Ni3 Pt3 2.574305 1_555
Ni3 Pt1 2.574328 1_555
Ni3 Pt11 2.606746 1_655
Ni3 Pt7 2.635234 1_655
Ni3 Pt5 2.644704 1_645
Ni3 Y1 3.211223 1_555
Ni3 Y3 3.249914 1_655
Pt0 Pt7 2.889452 1_564
Pt0 Pt2 2.904881 1_555
Pt0 Y1 2.961485 1_554
Pt0 Pt13 2.987631 1_554
Pt0 Y2 2.990168 1_555
Pt0 Y0 3.002110 1_555
Pt0 Pt1 3.062838 1_554
Pt1 Pt6 2.889452 1_546
Pt1 Pt3 2.904881 1_555
Pt1 Y0 2.961485 1_556
Pt1 Pt12 2.987631 1_556
Pt1 Y3 2.990168 1_555
Pt1 Y1 3.002110 1_555
Pt2 Pt9 2.889451 1_455
Pt2 Y3 2.961485 1_555
Pt2 Y0 2.990168 1_555
Pt2 Y2 3.002110 1_555
Pt2 Pt3 3.062838 1_555
Pt3 Pt8 2.889451 1_655
Pt3 Y2 2.961485 1_555
Pt3 Y1 2.990168 1_555
Pt3 Y3 3.002110 1_555
Pt4 Pt6 2.731883 1_545
Pt4 Pt8 2.731883 1_655
Pt4 Y2 3.141486 1_555
Pt4 Y0 3.141486 1_555
Pt5 Pt7 2.731883 1_565
Pt5 Pt9 2.731883 1_455
Pt5 Y3 3.141486 1_555
Pt5 Y1 3.141486 1_555
Pt6 Pt7 2.861507 1_664
Pt6 Y2 2.957757 1_555
Pt6 Y0 3.007876 1_565
Pt7 Y3 2.957757 1_555
Pt7 Y1 3.007876 1_545
Pt8 Pt9 2.861507 1_445
Pt8 Y0 2.957756 1_555
Pt8 Y2 3.007876 1_455
Pt9 Y1 2.957756 1_555
Pt9 Y3 3.007876 1_655
Pt10 Pt4 2.689918 1_565
Pt10 Pt9 2.856692 1_555
Pt10 Y2 2.936715 1_555
Pt10 Y1 2.946587 1_555
Pt10 Y0 2.963137 1_565
Pt10 Pt6 2.982702 1_555
Pt10 Pt3 2.987631 1_555
Pt10 Pt11 3.063495 1_565
Pt11 Pt5 2.689918 1_545
Pt11 Pt8 2.856692 1_555
Pt11 Y3 2.936715 1_555
Pt11 Y0 2.946587 1_555
Pt11 Y1 2.963137 1_545
Pt11 Pt7 2.982702 1_555
Pt11 Pt2 2.987631 1_555
Pt12 Pt4 2.689918 1_455
Pt12 Pt7 2.856692 1_554
Pt12 Y0 2.936716 1_555
Pt12 Y3 2.946587 1_554
Pt12 Y2 2.963137 1_455
Pt12 Pt8 2.982702 1_555
Pt12 Pt13 3.063495 1_454
Pt13 Pt5 2.689918 1_655
Pt13 Pt6 2.856692 1_556
Pt13 Y1 2.936716 1_555
Pt13 Y2 2.946587 1_556
Pt13 Y3 2.963137 1_655
Pt13 Pt9 2.982702 1_555
