# generated using pymatgen
data_Ca2ScRuO6
_symmetry_space_group_name_H-M   'P 1'
_cell_length_a   5.44517149
_cell_length_b   5.61395376
_cell_length_c   7.78306716
_cell_angle_alpha   90.00000000
_cell_angle_beta   89.77365046
_cell_angle_gamma   90.00000000
_symmetry_Int_Tables_number   1
_chemical_formula_structural   Ca2ScRuO6
_chemical_formula_sum   'Ca4 Sc2 Ru2 O12'
_cell_volume   237.91826395
_cell_formula_units_Z   2
loop_
 _symmetry_equiv_pos_site_id
 _symmetry_equiv_pos_as_xyz
  1  'x, y, z'
loop_
 _atom_site_type_symbol
 _atom_site_label
 _atom_site_symmetry_multiplicity
 _atom_site_fract_x
 _atom_site_fract_y
 _atom_site_fract_z
 _atom_site_occupancy
  Ca  Ca0  1  0.01338153  0.94621364  0.24965780  1
  Ca  Ca1  1  0.48661847  0.44621364  0.25034220  1
  Ca  Ca2  1  0.51338153  0.55378636  0.74965780  1
  Ca  Ca3  1  0.98661847  0.05378636  0.75034220  1
  Sc  Sc0  1  0.00000000  0.50000000  0.00000000  1
  Sc  Sc1  1  0.50000000  0.00000000  0.50000000  1
  Ru  Ru0  1  0.00000000  0.50000000  0.50000000  1
  Ru  Ru1  1  0.50000000  0.00000000  0.00000000  1
  O  O0  1  0.09349064  0.46985269  0.74095429  1
  O  O1  1  0.21098720  0.19615350  0.04761209  1
  O  O2  1  0.19212775  0.21293673  0.44937825  1
  O  O3  1  0.30787225  0.71293673  0.05062175  1
  O  O4  1  0.28901280  0.69615350  0.45238791  1
  O  O5  1  0.40650936  0.96985269  0.75904571  1
  O  O6  1  0.59349064  0.03014731  0.24095429  1
  O  O7  1  0.71098720  0.30384650  0.54761209  1
  O  O8  1  0.69212775  0.28706327  0.94937825  1
  O  O9  1  0.78901280  0.80384650  0.95238791  1
  O  O10  1  0.80787225  0.78706327  0.55062175  1
  O  O11  1  0.90650936  0.53014731  0.25904571  1
loop_
_geom_bond_atom_site_label_1
_geom_bond_atom_site_label_2
_geom_bond_distance
_geom_bond_site_symmetry_2
Ca0 O6 2.335672 1_465
Ca0 O1 2.363493 1_565
Ca0 O2 2.370163 1_565
Ca0 O11 2.408217 1_455
Ca0 O3 2.581969 1_555
Ca0 O4 2.594546 1_555
Ca0 O9 2.739856 1_454
Ca0 O10 2.741668 1_455
Ca1 O11 2.335672 1_555
Ca1 O4 2.363493 1_555
Ca1 O3 2.370163 1_555
Ca1 O6 2.408217 1_555
Ca1 O2 2.581969 1_555
Ca1 O1 2.594546 1_555
Ca1 O7 2.739856 1_555
Ca1 O8 2.741668 1_554
Ca2 O0 2.335672 1_555
Ca2 O7 2.363493 1_555
Ca2 O8 2.370163 1_555
Ca2 O5 2.408217 1_555
Ca2 O10 2.581969 1_555
Ca2 O9 2.594546 1_555
Ca2 O4 2.739856 1_555
Ca2 O3 2.741668 1_556
Ca3 O5 2.335672 1_645
Ca3 O9 2.363493 1_545
Ca3 O10 2.370163 1_545
Ca3 O0 2.408217 1_655
Ca3 O8 2.581969 1_555
Ca3 O7 2.594546 1_555
Ca3 O1 2.739856 1_656
Ca3 O2 2.741668 1_655
O0 Ru0 1.952519 1_555
O0 Sc0 2.084378 1_556
O1 Ru1 1.954982 1_555
O1 Sc0 2.090515 1_555
O2 Ru0 1.960502 1_555
O2 Sc1 2.097581 1_555
O3 Ru1 1.960502 1_565
O3 Sc0 2.097581 1_555
O4 Ru0 1.954982 1_555
O4 Sc1 2.090515 1_565
O5 Ru1 1.952519 1_566
O5 Sc1 2.084378 1_565
O6 Ru1 1.952519 1_555
O6 Sc1 2.084378 1_555
O7 Ru0 1.954982 1_655
O7 Sc1 2.090515 1_555
O8 Ru1 1.960502 1_556
O8 Sc0 2.097581 1_656
O9 Ru1 1.954982 1_566
O9 Sc0 2.090515 1_656
O10 Ru0 1.960502 1_655
O10 Sc1 2.097581 1_565
O11 Ru0 1.952519 1_655
O11 Sc0 2.084378 1_655
