# generated using pymatgen
data_RbHf2CuS5
_symmetry_space_group_name_H-M   'P 1'
_cell_length_a   3.68811414
_cell_length_b   7.74293527
_cell_length_c   15.61420797
_cell_angle_alpha   90.00000000
_cell_angle_beta   90.00000000
_cell_angle_gamma   76.22202816
_symmetry_Int_Tables_number   1
_chemical_formula_structural   RbHf2CuS5
_chemical_formula_sum   'Rb2 Hf4 Cu2 S10'
_cell_volume   433.06212616
_cell_formula_units_Z   2
loop_
 _symmetry_equiv_pos_site_id
 _symmetry_equiv_pos_as_xyz
  1  'x, y, z'
loop_
 _atom_site_type_symbol
 _atom_site_label
 _atom_site_symmetry_multiplicity
 _atom_site_fract_x
 _atom_site_fract_y
 _atom_site_fract_z
 _atom_site_occupancy
  Rb  Rb0  1  0.95910908  0.08177983  0.25000000  1
  Rb  Rb1  1  0.04088992  0.91822017  0.75000000  1
  Hf  Hf0  1  0.21153649  0.57692603  0.09773293  1
  Hf  Hf1  1  0.21153649  0.57692603  0.40226707  1
  Hf  Hf2  1  0.78846251  0.42307397  0.59773293  1
  Hf  Hf3  1  0.78846251  0.42307397  0.90226707  1
  Cu  Cu0  1  0.68023255  0.63953189  0.25000000  1
  Cu  Cu1  1  0.31976545  0.36046811  0.75000000  1
  S  S0  1  0.82517832  0.34964136  0.06126862  1
  S  S1  1  0.60005753  0.79988395  0.12631746  1
  S  S2  1  0.27474945  0.45050110  0.25000000  1
  S  S3  1  0.60005753  0.79988395  0.37368254  1
  S  S4  1  0.82517832  0.34964136  0.43873138  1
  S  S5  1  0.17482068  0.65035864  0.56126862  1
  S  S6  1  0.39994147  0.20011605  0.62631746  1
  S  S7  1  0.72524955  0.54949890  0.75000000  1
  S  S8  1  0.39994147  0.20011605  0.87368254  1
  S  S9  1  0.17482068  0.65035864  0.93873138  1
loop_
_geom_bond_atom_site_label_1
_geom_bond_atom_site_label_2
_geom_bond_distance
_geom_bond_site_symmetry_2
Rb0 S2 3.330037 1_555
Rb0 S2 3.330042 1_655
Rb0 S3 3.409407 1_545
Rb0 S1 3.409407 1_545
Rb0 S3 3.409408 1_645
Rb0 S1 3.409408 1_645
Rb0 S4 3.569565 1_555
Rb0 S0 3.569565 1_555
Rb1 S7 3.330037 1_555
Rb1 S7 3.330042 1_455
Rb1 S8 3.409407 1_565
Rb1 S6 3.409407 1_565
Rb1 S8 3.409408 1_465
Rb1 S6 3.409408 1_465
Rb1 S9 3.569565 1_555
Rb1 S5 3.569565 1_555
Hf0 S1 2.531993 1_455
Hf0 S1 2.531993 1_555
Hf0 S9 2.543358 1_554
Hf0 S2 2.560574 1_555
Hf0 S0 2.578007 1_555
Hf0 S0 2.578010 1_455
Hf1 S3 2.531993 1_455
Hf1 S3 2.531993 1_555
Hf1 S5 2.543358 1_555
Hf1 S2 2.560574 1_555
Hf1 S4 2.578007 1_555
Hf1 S4 2.578010 1_455
Hf2 S6 2.531993 1_655
Hf2 S6 2.531993 1_555
Hf2 S4 2.543358 1_555
Hf2 S7 2.560574 1_555
Hf2 S5 2.578007 1_555
Hf2 S5 2.578010 1_655
Hf3 S8 2.531993 1_655
Hf3 S8 2.531993 1_555
Hf3 S0 2.543358 1_556
Hf3 S7 2.560574 1_555
Hf3 S9 2.578007 1_555
Hf3 S9 2.578010 1_655
Cu0 S3 2.276768 1_555
Cu0 S1 2.276768 1_555
Cu0 S2 2.328368 1_555
Cu0 S2 2.328376 1_655
Cu1 S8 2.276768 1_555
Cu1 S6 2.276768 1_555
Cu1 S7 2.328371 1_555
Cu1 S7 2.328373 1_455
