# generated using pymatgen
data_SrCu2SiS4
_symmetry_space_group_name_H-M   'P 1'
_cell_length_a   6.05925711
_cell_length_b   6.05925714
_cell_length_c   15.04909871
_cell_angle_alpha   90.00000000
_cell_angle_beta   90.00000000
_cell_angle_gamma   119.99999984
_symmetry_Int_Tables_number   1
_chemical_formula_structural   SrCu2SiS4
_chemical_formula_sum   'Sr3 Cu6 Si3 S12'
_cell_volume   478.49773636
_cell_formula_units_Z   3
loop_
 _symmetry_equiv_pos_site_id
 _symmetry_equiv_pos_as_xyz
  1  'x, y, z'
loop_
 _atom_site_type_symbol
 _atom_site_label
 _atom_site_symmetry_multiplicity
 _atom_site_fract_x
 _atom_site_fract_y
 _atom_site_fract_z
 _atom_site_occupancy
  Sr  Sr0  1  0.55232857  0.00000000  0.66666700  1
  Sr  Sr1  1  1.00000000  0.55232857  0.33333300  1
  Sr  Sr2  1  0.44767143  0.44767143  0.00000000  1
  Cu  Cu0  1  0.41682409  0.34241788  0.24494297  1
  Cu  Cu1  1  0.34241788  0.41682409  0.75505703  1
  Cu  Cu2  1  0.58317591  0.92559479  0.42172303  1
  Cu  Cu3  1  0.92559479  0.58317591  0.57827697  1
  Cu  Cu4  1  0.65758212  0.07440521  0.91160997  1
  Cu  Cu5  1  0.07440521  0.65758212  0.08839003  1
  Si  Si0  1  0.71634362  0.00000000  0.16666700  1
  Si  Si1  1  1.00000000  0.71634362  0.83333300  1
  Si  Si2  1  0.28365638  0.28365638  0.50000000  1
  S  S0  1  0.48503659  0.96815028  0.05538615  1
  S  S1  1  0.32388143  0.09068110  0.83780802  1
  S  S2  1  0.03184972  0.51688631  0.72205315  1
  S  S3  1  0.51688631  0.03184972  0.27794685  1
  S  S4  1  0.09068110  0.32388143  0.16219198  1
  S  S5  1  0.76679868  0.67611857  0.17114202  1
  S  S6  1  0.67611857  0.76679868  0.82885798  1
  S  S7  1  0.90931890  0.23320132  0.50447502  1
  S  S8  1  0.48311369  0.51496341  0.38872015  1
  S  S9  1  0.23320132  0.90931890  0.49552498  1
  S  S10  1  0.96815028  0.48503659  0.94461385  1
  S  S11  1  0.51496341  0.48311369  0.61127985  1
loop_
_geom_bond_atom_site_label_1
_geom_bond_atom_site_label_2
_geom_bond_distance
_geom_bond_site_symmetry_2
Cu0 S4 2.290590 1_555
Cu0 S3 2.301404 1_555
Cu0 S8 2.348645 1_555
Cu0 S5 2.351812 1_555
Cu1 S1 2.290590 1_555
Cu1 S2 2.301404 1_555
Cu1 S11 2.348645 1_555
Cu1 S6 2.351812 1_555
Cu2 S7 2.290598 1_565
Cu2 S8 2.301406 1_555
Cu2 S3 2.348629 1_565
Cu2 S9 2.351814 1_555
Cu3 S9 2.290598 1_655
Cu3 S11 2.301406 1_555
Cu3 S2 2.348629 1_655
Cu3 S7 2.351814 1_555
Cu4 S6 2.290598 1_545
Cu4 S10 2.301408 1_555
Cu4 S0 2.348630 1_546
Cu4 S1 2.351825 1_555
Cu5 S5 2.290598 1_455
Cu5 S0 2.301408 1_555
Cu5 S10 2.348630 1_454
Cu5 S4 2.351825 1_555
S0 Si0 2.129705 1_565
S0 Sr2 3.137834 1_565
S0 Sr2 3.158782 1_555
S1 Si1 2.132913 1_445
S1 Sr2 3.094645 1_556
S1 Sr0 3.100296 1_555
S2 Si1 2.129693 1_455
S2 Sr0 3.137834 1_455
S2 Sr0 3.158782 1_565
S3 Si0 2.129693 1_555
S3 Sr1 3.137834 1_445
S3 Sr1 3.158782 1_555
S4 Si0 2.132913 1_455
S4 Sr2 3.094645 1_555
S4 Sr1 3.100296 1_455
S5 Si0 2.132909 1_565
S5 Sr1 3.094637 1_555
S5 Sr2 3.100307 1_555
S6 Si1 2.132909 1_555
S6 Sr0 3.094637 1_565
S6 Sr2 3.100307 1_556
S7 Si2 2.132915 1_655
S7 Sr0 3.094646 1_555
S7 Sr1 3.100306 1_555
S8 Si2 2.129693 1_555
S8 Sr1 3.137838 1_555
S8 Sr1 3.158786 1_455
S9 Si2 2.132915 1_565
S9 Sr1 3.094646 1_455
S9 Sr0 3.100306 1_565
S10 Si1 2.129705 1_555
S10 Sr2 3.137834 1_656
S10 Sr2 3.158782 1_556
S11 Si2 2.129693 1_555
S11 Sr0 3.137838 1_565
S11 Sr0 3.158786 1_555
