# generated using pymatgen
data_Co3(PO4)4
_symmetry_space_group_name_H-M   'P 1'
_cell_length_a   5.08924900
_cell_length_b   8.42656700
_cell_length_c   15.54395472
_cell_angle_alpha   66.84692165
_cell_angle_beta   90.00000000
_cell_angle_gamma   90.00000000
_symmetry_Int_Tables_number   1
_chemical_formula_structural   Co3(PO4)4
_chemical_formula_sum   'Co6 P8 O32'
_cell_volume   612.91130070
_cell_formula_units_Z   2
loop_
 _symmetry_equiv_pos_site_id
 _symmetry_equiv_pos_as_xyz
  1  'x, y, z'
loop_
 _atom_site_type_symbol
 _atom_site_label
 _atom_site_symmetry_multiplicity
 _atom_site_fract_x
 _atom_site_fract_y
 _atom_site_fract_z
 _atom_site_occupancy
  Co  Co0  1  0.41230200  0.18625700  0.30040800  1
  Co  Co1  1  0.08769800  0.18625700  0.80040800  1
  Co  Co2  1  0.91230200  0.81374300  0.19959200  1
  Co  Co3  1  0.58769800  0.81374300  0.69959200  1
  Co  Co4  1  0.50000000  0.50000000  0.00000000  1
  Co  Co5  1  0.00000000  0.50000000  0.50000000  1
  P  P0  1  0.51015100  0.47427200  0.64625900  1
  P  P1  1  0.04878100  0.08014300  0.61645700  1
  P  P2  1  0.98984900  0.47427200  0.14625900  1
  P  P3  1  0.54878100  0.91985700  0.88354300  1
  P  P4  1  0.95121900  0.91985700  0.38354300  1
  P  P5  1  0.01015100  0.52572800  0.85374100  1
  P  P6  1  0.48984900  0.52572800  0.35374100  1
  P  P7  1  0.45121900  0.08014300  0.11645700  1
  O  O0  1  0.03682500  0.25216700  0.53028400  1
  O  O1  1  0.52422300  0.35795000  0.33592700  1
  O  O2  1  0.20364000  0.54749700  0.37791700  1
  O  O3  1  0.70364000  0.45250300  0.12208300  1
  O  O4  1  0.02422300  0.64205000  0.16407300  1
  O  O5  1  0.59023000  0.68212000  0.26908200  1
  O  O6  1  0.97577700  0.35795000  0.83592700  1
  O  O7  1  0.99127700  0.89062600  0.29248500  1
  O  O8  1  0.83224200  0.50774000  0.93808900  1
  O  O9  1  0.96317500  0.74783300  0.46971600  1
  O  O10  1  0.66775800  0.50774000  0.43808900  1
  O  O11  1  0.80311900  0.01757800  0.88360700  1
  O  O12  1  0.17921800  0.03416100  0.39353400  1
  O  O13  1  0.79636000  0.45250300  0.62208300  1
  O  O14  1  0.30311900  0.98242200  0.61639300  1
  O  O15  1  0.46317500  0.25216700  0.03028400  1
  O  O16  1  0.16775800  0.49226000  0.06191100  1
  O  O17  1  0.09023000  0.31788000  0.23091800  1
  O  O18  1  0.53682500  0.74783300  0.96971600  1
  O  O19  1  0.82078200  0.96583900  0.60646600  1
  O  O20  1  0.00872300  0.10937400  0.70751500  1
  O  O21  1  0.47577700  0.64205000  0.66407300  1
  O  O22  1  0.90977000  0.68212000  0.76908200  1
  O  O23  1  0.50872300  0.89062600  0.79248500  1
  O  O24  1  0.29636000  0.54749700  0.87791700  1
  O  O25  1  0.33224200  0.49226000  0.56191100  1
  O  O26  1  0.49127700  0.10937400  0.20751500  1
  O  O27  1  0.19688100  0.98242200  0.11639300  1
  O  O28  1  0.32078200  0.03416100  0.89353400  1
  O  O29  1  0.40977000  0.31788000  0.73091800  1
  O  O30  1  0.69688100  0.01757800  0.38360700  1
  O  O31  1  0.67921800  0.96583900  0.10646600  1
loop_
_geom_bond_atom_site_label_1
_geom_bond_atom_site_label_2
_geom_bond_distance
_geom_bond_site_symmetry_2
Co0 O1 1.830459 1_555
Co0 O26 1.844399 1_555
Co0 O12 1.919951 1_555
Co0 O17 2.035056 1_555
Co0 O30 2.084430 1_555
Co1 O6 1.830459 1_455
Co1 O20 1.844399 1_555
Co1 O28 1.919951 1_555
Co1 O29 2.035056 1_555
Co1 O11 2.084430 1_455
Co2 O4 1.830459 1_655
Co2 O7 1.844399 1_555
Co2 O31 1.919951 1_555
Co2 O5 2.035056 1_555
Co2 O27 2.084430 1_655
Co3 O21 1.830459 1_555
Co3 O23 1.844399 1_555
Co3 O19 1.919951 1_555
Co3 O22 2.035056 1_555
Co3 O14 2.084430 1_555
Co4 O16 1.933911 1_555
Co4 O8 1.933911 1_554
Co4 O18 1.960863 1_554
Co4 O15 1.960863 1_555
Co4 O3 2.058661 1_555
Co4 O24 2.058661 1_554
Co5 O25 1.933911 1_555
Co5 O10 1.933911 1_455
Co5 O9 1.960863 1_455
Co5 O0 1.960863 1_555
Co5 O13 2.058661 1_455
Co5 O2 2.058661 1_555
O0 P1 1.540215 1_555
O1 P6 1.553685 1_555
O2 P6 1.533208 1_555
O3 P2 1.533208 1_555
O4 P2 1.553685 1_455
O5 P6 1.538068 1_555
O6 P5 1.553685 1_655
O7 P4 1.542645 1_555
O8 P5 1.550959 1_655
O9 P4 1.540215 1_555
O10 P6 1.550959 1_555
O11 P3 1.534328 1_545
O12 P4 1.554310 1_445
O13 P0 1.533208 1_555
O14 P1 1.534328 1_565
O15 P7 1.540215 1_555
O16 P2 1.550959 1_455
O17 P2 1.538068 1_455
O18 P3 1.540215 1_555
O19 P1 1.554310 1_665
O20 P1 1.542645 1_555
O21 P0 1.553685 1_555
O22 P5 1.538068 1_655
O23 P3 1.542645 1_555
O24 P5 1.533208 1_555
O25 P0 1.550959 1_555
O26 P7 1.542645 1_555
O27 P7 1.534328 1_565
O28 P3 1.554310 1_545
O29 P0 1.538068 1_555
O30 P4 1.534328 1_545
O31 P7 1.554310 1_565
