# generated using pymatgen
data_LiTaNbN3
_symmetry_space_group_name_H-M   'P 1'
_cell_length_a   5.23400777
_cell_length_b   5.23400644
_cell_length_c   10.31316703
_cell_angle_alpha   90.00000000
_cell_angle_beta   90.00000000
_cell_angle_gamma   119.82918769
_symmetry_Int_Tables_number   1
_chemical_formula_structural   LiTaNbN3
_chemical_formula_sum   'Li4 Ta4 Nb4 N12'
_cell_volume   245.09601204
_cell_formula_units_Z   4
loop_
 _symmetry_equiv_pos_site_id
 _symmetry_equiv_pos_as_xyz
  1  'x, y, z'
loop_
 _atom_site_type_symbol
 _atom_site_label
 _atom_site_symmetry_multiplicity
 _atom_site_fract_x
 _atom_site_fract_y
 _atom_site_fract_z
 _atom_site_occupancy
  Li  Li0  1  0.33323144  0.66676856  0.00000000  1
  Li  Li1  1  0.33323144  0.66676856  0.50000000  1
  Li  Li2  1  0.66650134  0.33349866  0.50000000  1
  Li  Li3  1  0.66650134  0.33349866  0.00000000  1
  Ta  Ta0  1  0.99850931  0.00149069  0.50000000  1
  Ta  Ta1  1  0.99850931  0.00149069  0.00000000  1
  Ta  Ta2  1  0.35588388  0.99994767  0.25000000  1
  Ta  Ta3  1  0.00005233  0.64411612  0.75000000  1
  Nb  Nb0  1  0.00139109  0.35570911  0.25000000  1
  Nb  Nb1  1  0.64429089  0.99860891  0.75000000  1
  Nb  Nb2  1  0.35523095  0.35371658  0.75000000  1
  Nb  Nb3  1  0.64628342  0.64476905  0.25000000  1
  N  N0  1  0.68585799  0.68116063  0.62400044  1
  N  N1  1  0.68585799  0.68116063  0.87599956  1
  N  N2  1  0.31883937  0.31414201  0.12400044  1
  N  N3  1  0.31883937  0.31414201  0.37599956  1
  N  N4  1  0.31296594  0.99496559  0.87573697  1
  N  N5  1  0.31296594  0.99496559  0.62426303  1
  N  N6  1  0.00503441  0.68703406  0.37573697  1
  N  N7  1  0.00503441  0.68703406  0.12426303  1
  N  N8  1  0.67779566  0.00030024  0.12313415  1
  N  N9  1  0.67779566  0.00030024  0.37686585  1
  N  N10  1  0.99969976  0.32220434  0.87686585  1
  N  N11  1  0.99969976  0.32220434  0.62313415  1
loop_
_geom_bond_atom_site_label_1
_geom_bond_atom_site_label_2
_geom_bond_distance
_geom_bond_site_symmetry_2
Li0 N10 2.186449 1_454
Li0 N8 2.186449 1_565
Li0 N4 2.187615 1_554
Li0 N7 2.187615 1_555
Li0 N2 2.215674 1_555
Li0 N1 2.215674 1_554
Li1 N11 2.186449 1_455
Li1 N9 2.186449 1_565
Li1 N5 2.187615 1_555
Li1 N6 2.187615 1_555
Li1 N3 2.215674 1_555
Li1 N0 2.215674 1_555
Li2 N9 2.181769 1_555
Li2 N11 2.181769 1_555
Li2 N0 2.184827 1_555
Li2 N3 2.184827 1_555
Li2 N6 2.223550 1_655
Li2 N5 2.223550 1_545
Li3 N8 2.181769 1_555
Li3 N10 2.181769 1_554
Li3 N1 2.184827 1_554
Li3 N2 2.184827 1_555
Li3 N7 2.223550 1_655
Li3 N4 2.223550 1_544
N0 Ta0 2.096391 1_565
N0 Nb2 2.161019 1_555
N0 Ta3 2.178933 1_655
N0 Nb1 2.203679 1_555
N1 Ta1 2.096391 1_566
N1 Nb2 2.161019 1_555
N1 Ta3 2.178933 1_655
N1 Nb1 2.203679 1_555
N2 Ta1 2.096391 1_455
N2 Nb3 2.161019 1_555
N2 Ta2 2.178932 1_545
N2 Nb0 2.203680 1_555
N3 Ta0 2.096391 1_455
N3 Nb3 2.161019 1_555
N3 Ta2 2.178932 1_545
N3 Nb0 2.203680 1_555
N4 Ta1 2.099602 1_466
N4 Nb1 2.157850 1_555
N4 Ta3 2.178090 1_555
N4 Nb2 2.200689 1_565
N5 Ta0 2.099602 1_465
N5 Nb1 2.157850 1_555
N5 Ta3 2.178090 1_555
N5 Nb2 2.200689 1_565
N6 Ta0 2.099602 1_465
N6 Nb0 2.157850 1_555
N6 Ta2 2.178090 1_555
N6 Nb3 2.200690 1_455
N7 Ta1 2.099602 1_465
N7 Nb0 2.157850 1_555
N7 Ta2 2.178090 1_555
N7 Nb3 2.200690 1_455
N8 Ta1 2.102390 1_555
N8 Ta2 2.132520 1_545
N8 Nb3 2.212809 1_545
N8 Nb0 2.215070 1_655
N9 Ta0 2.102390 1_555
N9 Ta2 2.132520 1_545
N9 Nb3 2.212809 1_545
N9 Nb0 2.215070 1_655
N10 Ta1 2.102390 1_556
N10 Ta3 2.132520 1_655
N10 Nb2 2.212809 1_655
N10 Nb1 2.215070 1_545
N11 Ta0 2.102390 1_555
N11 Ta3 2.132520 1_655
N11 Nb2 2.212809 1_655
N11 Nb1 2.215070 1_545
