# generated using pymatgen
data_CsNb(AgTe2)2
_symmetry_space_group_name_H-M   'P 1'
_cell_length_a   11.19123023
_cell_length_b   11.19123007
_cell_length_c   8.68411831
_cell_angle_alpha   90.00000000
_cell_angle_beta   90.00000000
_cell_angle_gamma   146.75595008
_symmetry_Int_Tables_number   1
_chemical_formula_structural   CsNb(AgTe2)2
_chemical_formula_sum   'Cs2 Nb2 Ag4 Te8'
_cell_volume   596.24598934
_cell_formula_units_Z   2
loop_
 _symmetry_equiv_pos_site_id
 _symmetry_equiv_pos_as_xyz
  1  'x, y, z'
loop_
 _atom_site_type_symbol
 _atom_site_label
 _atom_site_symmetry_multiplicity
 _atom_site_fract_x
 _atom_site_fract_y
 _atom_site_fract_z
 _atom_site_occupancy
  Cs  Cs0  1  0.46522234  0.83479356  0.25000000  1
  Cs  Cs1  1  0.83479356  0.46522234  0.75000000  1
  Nb  Nb0  1  0.77830316  0.99221175  0.75000000  1
  Nb  Nb1  1  0.99221175  0.77830316  0.25000000  1
  Ag  Ag0  1  0.90761857  0.90761857  0.50000000  1
  Ag  Ag1  1  0.90761857  0.90761857  0.00000000  1
  Ag  Ag2  1  0.27481738  0.49424058  0.75000000  1
  Ag  Ag3  1  0.49424058  0.27481738  0.25000000  1
  Te  Te0  1  0.64289588  0.63275004  0.25000000  1
  Te  Te1  1  0.00738752  0.23243570  0.00289170  1
  Te  Te2  1  0.00738752  0.23243570  0.49710830  1
  Te  Te3  1  0.45040086  0.86914085  0.75000000  1
  Te  Te4  1  0.86914085  0.45040086  0.25000000  1
  Te  Te5  1  0.23243570  0.00738752  0.99710830  1
  Te  Te6  1  0.63275004  0.64289588  0.75000000  1
  Te  Te7  1  0.23243570  0.00738752  0.50289170  1
loop_
_geom_bond_atom_site_label_1
_geom_bond_atom_site_label_2
_geom_bond_distance
_geom_bond_site_symmetry_2
Cs0 Te4 3.873675 1_455
Cs0 Te4 3.975651 1_565
Cs0 Te2 4.007332 1_665
Cs0 Te1 4.007332 1_665
Cs0 Te0 4.072673 1_555
Cs0 Te2 4.304213 1_555
Cs0 Te1 4.304213 1_555
Cs0 Te3 4.374402 1_554
Cs0 Te3 4.374402 1_555
Cs1 Te3 3.873675 1_545
Cs1 Te3 3.975651 1_655
Cs1 Te5 4.007332 1_665
Cs1 Te7 4.007332 1_665
Cs1 Te6 4.072673 1_555
Cs1 Te5 4.304213 1_555
Cs1 Te7 4.304213 1_555
Cs1 Te4 4.374402 1_555
Cs1 Te4 4.374402 1_556
Nb0 Te3 2.628504 1_555
Nb0 Te1 2.663558 1_666
Nb0 Te2 2.663558 1_665
Nb0 Te6 2.698948 1_555
Nb1 Te4 2.628503 1_555
Nb1 Te7 2.663558 1_665
Nb1 Te5 2.663558 1_664
Nb1 Te0 2.698948 1_555
Ag0 Te2 2.769889 1_665
Ag0 Te7 2.769889 1_665
Ag0 Te0 2.776535 1_555
Ag0 Te6 2.776535 1_555
Ag0 Nb1 3.161596 1_555
Ag0 Nb0 3.161596 1_555
Ag1 Te1 2.769889 1_665
Ag1 Te5 2.769889 1_664
Ag1 Te0 2.776535 1_555
Ag1 Te6 2.776535 1_554
Ag1 Nb1 3.161596 1_555
Ag1 Nb0 3.161596 1_554
Ag2 Te6 2.768850 1_555
Ag2 Te3 2.770209 1_555
Ag2 Te1 2.774377 1_556
Ag2 Te2 2.774377 1_555
Ag2 Nb0 3.197210 1_445
Ag2 Nb0 3.206536 1_555
Ag3 Te0 2.768850 1_555
Ag3 Te4 2.770209 1_555
Ag3 Te7 2.774377 1_555
Ag3 Te5 2.774377 1_554
Ag3 Nb1 3.197210 1_445
Ag3 Nb1 3.206536 1_555
