# generated using pymatgen
data_YSF
_symmetry_space_group_name_H-M   'P 1'
_cell_length_a   4.03178859
_cell_length_b   4.03178816
_cell_length_c   16.71981561
_cell_angle_alpha   90.00000000
_cell_angle_beta   90.00000000
_cell_angle_gamma   120.00000363
_symmetry_Int_Tables_number   1
_chemical_formula_structural   YSF
_chemical_formula_sum   'Y4 S4 F4'
_cell_volume   235.37349486
_cell_formula_units_Z   4
loop_
 _symmetry_equiv_pos_site_id
 _symmetry_equiv_pos_as_xyz
  1  'x, y, z'
loop_
 _atom_site_type_symbol
 _atom_site_label
 _atom_site_symmetry_multiplicity
 _atom_site_fract_x
 _atom_site_fract_y
 _atom_site_fract_z
 _atom_site_occupancy
  Y  Y0  1  0.66666700  0.33333300  0.75000000  1
  Y  Y1  1  0.33333300  0.66666700  0.25000000  1
  Y  Y2  1  0.00000000  -0.00000000  0.50000000  1
  Y  Y3  1  0.00000000  0.00000000  -0.00000000  1
  S  S0  1  0.66666700  0.33333300  0.58612679  1
  S  S1  1  0.66666700  0.33333300  0.91387321  1
  S  S2  1  0.33333300  0.66666700  0.41387321  1
  S  S3  1  0.33333300  0.66666700  0.08612679  1
  F  F0  1  0.33333300  0.66666700  0.75000000  1
  F  F1  1  -0.00000000  0.00000000  0.75000000  1
  F  F2  1  0.00000000  -0.00000000  0.25000000  1
  F  F3  1  0.66666700  0.33333300  0.25000000  1
loop_
_geom_bond_atom_site_label_1
_geom_bond_atom_site_label_2
_geom_bond_distance
_geom_bond_site_symmetry_2
S0 Y2 2.737170 1_655
S0 Y2 2.737172 1_665
S0 Y2 2.737173 1_555
S0 Y0 2.739930 1_555
S1 Y3 2.737170 1_656
S1 Y3 2.737172 1_666
S1 Y3 2.737173 1_556
S1 Y0 2.739930 1_555
S2 Y2 2.737170 1_565
S2 Y2 2.737172 1_555
S2 Y2 2.737173 1_665
S2 Y1 2.739930 1_555
S3 Y3 2.737170 1_565
S3 Y3 2.737172 1_555
S3 Y3 2.737173 1_665
S3 Y1 2.739930 1_555
F0 Y0 2.327752 1_565
F0 Y0 2.327752 1_455
F0 Y0 2.327759 1_555
F1 Y0 2.327752 1_455
F1 Y0 2.327755 1_445
F1 Y0 2.327755 1_555
F2 Y1 2.327752 1_545
F2 Y1 2.327755 1_555
F2 Y1 2.327755 1_445
F3 Y1 2.327752 1_545
F3 Y1 2.327752 1_655
F3 Y1 2.327759 1_555
