# generated using pymatgen
data_CsGa5(HgTe3)4
_symmetry_space_group_name_H-M   'P 1'
_cell_length_a   9.69506840
_cell_length_b   9.70933607
_cell_length_c   9.74921802
_cell_angle_alpha   107.30427555
_cell_angle_beta   107.84343299
_cell_angle_gamma   107.35037076
_symmetry_Int_Tables_number   1
_chemical_formula_structural   CsGa5(HgTe3)4
_chemical_formula_sum   'Cs1 Ga5 Hg4 Te12'
_cell_volume   753.61676956
_cell_formula_units_Z   1
loop_
 _symmetry_equiv_pos_site_id
 _symmetry_equiv_pos_as_xyz
  1  'x, y, z'
loop_
 _atom_site_type_symbol
 _atom_site_label
 _atom_site_symmetry_multiplicity
 _atom_site_fract_x
 _atom_site_fract_y
 _atom_site_fract_z
 _atom_site_occupancy
  Cs  Cs0  1  0.99504393  0.99624355  0.99495053  1
  Ga  Ga0  1  0.48373523  0.33528863  0.94153183  1
  Ga  Ga1  1  0.93918668  0.49010195  0.34260905  1
  Ga  Ga2  1  0.33078729  0.93267914  0.48046438  1
  Ga  Ga3  1  0.01870625  0.18544923  0.55406711  1
  Ga  Ga4  1  0.56047363  0.02557372  0.18709082  1
  Hg  Hg0  1  0.63322366  0.70792775  0.39618823  1
  Hg  Hg1  1  0.40076155  0.63720648  0.71627178  1
  Hg  Hg2  1  0.70800387  0.39060173  0.63066292  1
  Hg  Hg3  1  0.19163235  0.56315052  0.01730303  1
  Te  Te0  1  0.78543001  0.93272855  0.28971207  1
  Te  Te1  1  0.30226382  0.80754286  0.93053490  1
  Te  Te2  1  0.92379048  0.27628444  0.77200169  1
  Te  Te3  1  0.06564883  0.69759533  0.23896026  1
  Te  Te4  1  0.23066901  0.07832416  0.68903875  1
  Te  Te5  1  0.69796745  0.23373532  0.08068830  1
  Te  Te6  1  0.37614747  0.42231066  0.15106903  1
  Te  Te7  1  0.14578675  0.37198242  0.43510457  1
  Te  Te8  1  0.42702915  0.13947926  0.36484062  1
  Te  Te9  1  0.87886644  0.63889314  0.56936886  1
  Te  Te10  1  0.56032230  0.87529958  0.63537794  1
  Te  Te11  1  0.63916387  0.55624256  0.87680131  1
loop_
_geom_bond_atom_site_label_1
_geom_bond_atom_site_label_2
_geom_bond_distance
_geom_bond_site_symmetry_2
Cs0 Te2 4.038634 1_565
Cs0 Te1 4.042199 1_655
Cs0 Te0 4.080940 1_556
Cs0 Te9 4.094286 1_555
Cs0 Te8 4.094601 1_666
Cs0 Te6 4.095523 1_666
Cs0 Te10 4.120194 1_555
Cs0 Te11 4.162680 1_555
Cs0 Te7 4.186030 1_666
Cs0 Te5 4.312897 1_566
Cs0 Te3 4.338821 1_656
Cs0 Te4 4.387675 1_665
Ga0 Te11 2.594498 1_555
Ga0 Te6 2.603785 1_556
Ga0 Te4 2.701513 1_555
Ga0 Te5 2.723432 1_556
Ga1 Te9 2.590876 1_555
Ga1 Te7 2.649319 1_655
Ga1 Te3 2.660853 1_655
Ga1 Te5 2.696801 1_555
Ga2 Te10 2.593041 1_555
Ga2 Te3 2.637347 1_555
Ga2 Te8 2.654535 1_565
Ga2 Te4 2.719263 1_565
Ga3 Te2 2.589680 1_455
Ga3 Te7 2.633936 1_555
Ga3 Te0 2.670972 1_445
Ga3 Te4 2.732801 1_555
Ga4 Te1 2.618482 1_544
Ga4 Te0 2.634796 1_545
Ga4 Te8 2.643322 1_555
Ga4 Te5 2.725008 1_555
Hg0 Te6 2.810380 1_555
Hg0 Te10 2.831774 1_555
Hg0 Te9 2.851788 1_555
Hg0 Te0 2.895644 1_555
Hg1 Te11 2.829892 1_555
Hg1 Te10 2.838740 1_555
Hg1 Te7 2.847363 1_555
Hg1 Te1 2.849539 1_555
Hg2 Te9 2.827485 1_555
Hg2 Te8 2.834592 1_555
Hg2 Te2 2.834714 1_555
Hg2 Te11 2.848879 1_555
Hg3 Te1 2.780068 1_554
Hg3 Te6 2.803744 1_555
Hg3 Te2 2.852722 1_454
Hg3 Te3 2.959069 1_555
