# generated using pymatgen
data_Hf8MnVBi4
_symmetry_space_group_name_H-M   'P 1'
_cell_length_a   8.22241902
_cell_length_b   8.22242712
_cell_length_c   8.22155862
_cell_angle_alpha   96.24726970
_cell_angle_beta   96.24723818
_cell_angle_gamma   141.47529627
_symmetry_Int_Tables_number   1
_chemical_formula_structural   Hf8MnVBi4
_chemical_formula_sum   'Hf8 Mn1 V1 Bi4'
_cell_volume   326.83174342
_cell_formula_units_Z   1
loop_
 _symmetry_equiv_pos_site_id
 _symmetry_equiv_pos_as_xyz
  1  'x, y, z'
loop_
 _atom_site_type_symbol
 _atom_site_label
 _atom_site_symmetry_multiplicity
 _atom_site_fract_x
 _atom_site_fract_y
 _atom_site_fract_z
 _atom_site_occupancy
  Hf  Hf0  1  0.69352283  0.58066614  0.27480299  1
  Hf  Hf1  1  0.30597033  0.41880566  0.72520630  1
  Hf  Hf2  1  0.58068499  0.30597440  0.88725066  1
  Hf  Hf3  1  0.08119172  0.19402330  0.27479572  1
  Hf  Hf4  1  0.80659302  0.08130225  0.88724992  1
  Hf  Hf5  1  0.41869448  0.69340639  0.11275005  1
  Hf  Hf6  1  0.91933641  0.80648076  0.72520153  1
  Hf  Hf7  1  0.19402042  0.91931282  0.11274905  1
  Mn  Mn0  1  0.74999303  0.74998318  0.99999967  1
  V  V0  1  0.25002082  0.25004768  0.00000166  1
  Bi  Bi0  1  0.13897244  0.63898058  0.77811508  1
  Bi  Bi1  1  0.36093718  0.13905879  0.49999833  1
  Bi  Bi2  1  0.86100233  0.36101660  0.22187956  1
  Bi  Bi3  1  0.63906001  0.86094144  0.50000147  1
loop_
_geom_bond_atom_site_label_1
_geom_bond_atom_site_label_2
_geom_bond_distance
_geom_bond_site_symmetry_2
Hf0 V0 2.674252 1_555
Hf0 Mn0 2.675765 1_554
Hf1 V0 2.674123 1_556
Hf1 Mn0 2.675601 1_555
Hf2 V0 2.673572 1_556
Hf2 Mn0 2.675093 1_555
Hf3 V0 2.674303 1_555
Hf3 Mn0 2.675659 1_444
Hf4 V0 2.673406 1_656
Hf4 Mn0 2.675283 1_545
Hf5 V0 2.673228 1_555
Hf5 Mn0 2.675239 1_554
Hf6 V0 2.674425 1_666
Hf6 Mn0 2.675796 1_555
Hf7 V0 2.673741 1_565
Hf7 Mn0 2.675127 1_454
Mn0 V0 2.712284 1_556
Mn0 V0 2.712774 1_666
Bi0 Hf6 3.032930 1_455
Bi0 Hf1 3.033206 1_555
Bi0 Hf7 3.131051 1_556
Bi0 Hf5 3.131108 1_556
Bi0 Hf4 3.334874 1_455
Bi0 Hf2 3.335737 1_565
Bi0 Hf2 3.337526 1_455
Bi0 Hf4 3.338529 1_565
Bi1 Hf7 3.033439 1_545
Bi1 Hf2 3.033466 1_555
Bi1 Hf3 3.131295 1_555
Bi1 Hf1 3.131343 1_555
Bi1 Hf0 3.334542 1_555
Bi1 Hf6 3.334560 1_445
Bi1 Hf0 3.337442 1_445
Bi1 Hf6 3.337493 1_555
Bi2 Hf0 3.032885 1_555
Bi2 Hf3 3.033289 1_655
Bi2 Hf2 3.130978 1_554
Bi2 Hf4 3.131113 1_554
Bi2 Hf5 3.334915 1_655
Bi2 Hf7 3.335675 1_545
Bi2 Hf7 3.337542 1_655
Bi2 Hf5 3.338496 1_545
Bi3 Hf4 3.033432 1_565
Bi3 Hf5 3.033457 1_555
Bi3 Hf6 3.131459 1_555
Bi3 Hf0 3.131459 1_555
Bi3 Hf1 3.335231 1_665
Bi3 Hf3 3.335269 1_555
Bi3 Hf3 3.336912 1_665
Bi3 Hf1 3.336927 1_555
