# generated using pymatgen
data_Ba8HfZrS12
_symmetry_space_group_name_H-M   'P 1'
_cell_length_a   8.62044443
_cell_length_b   8.62044273
_cell_length_c   8.62044492
_cell_angle_alpha   89.36772365
_cell_angle_beta   89.36773145
_cell_angle_gamma   89.36774256
_symmetry_Int_Tables_number   1
_chemical_formula_structural   Ba8HfZrS12
_chemical_formula_sum   'Ba8 Hf1 Zr1 S12'
_cell_volume   640.48675435
_cell_formula_units_Z   1
loop_
 _symmetry_equiv_pos_site_id
 _symmetry_equiv_pos_as_xyz
  1  'x, y, z'
loop_
 _atom_site_type_symbol
 _atom_site_label
 _atom_site_symmetry_multiplicity
 _atom_site_fract_x
 _atom_site_fract_y
 _atom_site_fract_z
 _atom_site_occupancy
  Ba  Ba0  1  0.87757336  0.62252745  0.24968977  1
  Ba  Ba1  1  0.24968977  0.87757336  0.62252745  1
  Ba  Ba2  1  0.62252745  0.24968977  0.87757336  1
  Ba  Ba3  1  0.75031023  0.12242664  0.37747255  1
  Ba  Ba4  1  0.37747255  0.75031023  0.12242664  1
  Ba  Ba5  1  0.12242664  0.37747255  0.75031023  1
  Ba  Ba6  1  0.24972452  0.24972452  0.24972452  1
  Ba  Ba7  1  0.75027548  0.75027548  0.75027548  1
  Hf  Hf0  1  0.00000000  0.00000000  0.00000000  1
  Zr  Zr0  1  0.50000000  0.50000000  0.50000000  1
  S  S0  1  0.21318454  0.56040050  0.42638028  1
  S  S1  1  0.42638028  0.21318454  0.56040050  1
  S  S2  1  0.56040050  0.42638028  0.21318454  1
  S  S3  1  0.92744363  0.06018049  0.71605448  1
  S  S4  1  0.71605448  0.92744363  0.06018049  1
  S  S5  1  0.06018049  0.71605448  0.92744363  1
  S  S6  1  0.78681546  0.43959950  0.57361972  1
  S  S7  1  0.57361972  0.78681546  0.43959950  1
  S  S8  1  0.43959950  0.57361972  0.78681546  1
  S  S9  1  0.07255637  0.93981951  0.28394552  1
  S  S10  1  0.28394552  0.07255637  0.93981951  1
  S  S11  1  0.93981951  0.28394552  0.07255637  1
loop_
_geom_bond_atom_site_label_1
_geom_bond_atom_site_label_2
_geom_bond_distance
_geom_bond_site_symmetry_2
Ba0 S9 3.244068 1_655
Ba0 S2 3.250622 1_555
Ba0 S5 3.275183 1_654
Ba0 S6 3.283020 1_555
Ba0 S0 3.319940 1_655
Ba0 S11 3.344285 1_555
Ba0 S4 3.375092 1_555
Ba0 S7 3.380233 1_555
Ba1 S10 3.244069 1_565
Ba1 S0 3.250622 1_555
Ba1 S3 3.275183 1_465
Ba1 S7 3.283021 1_555
Ba1 S1 3.319939 1_565
Ba1 S9 3.344285 1_555
Ba1 S5 3.375092 1_555
Ba1 S8 3.380232 1_555
Ba2 S11 3.244069 1_556
Ba2 S1 3.250623 1_555
Ba2 S4 3.275182 1_546
Ba2 S8 3.283020 1_555
Ba2 S2 3.319940 1_556
Ba2 S10 3.344284 1_555
Ba2 S3 3.375092 1_555
Ba2 S6 3.380232 1_555
Ba3 S4 3.244069 1_545
Ba3 S6 3.250622 1_555
Ba3 S9 3.275183 1_645
Ba3 S1 3.283021 1_555
Ba3 S7 3.319939 1_545
Ba3 S3 3.344285 1_555
Ba3 S11 3.375092 1_555
Ba3 S2 3.380232 1_555
Ba4 S5 3.244069 1_554
Ba4 S7 3.250623 1_555
Ba4 S10 3.275182 1_564
Ba4 S2 3.283020 1_555
Ba4 S8 3.319940 1_554
Ba4 S4 3.344284 1_555
Ba4 S9 3.375092 1_555
Ba4 S0 3.380232 1_555
Ba5 S3 3.244068 1_455
Ba5 S8 3.250622 1_555
Ba5 S11 3.275183 1_456
Ba5 S0 3.283020 1_555
Ba5 S6 3.319940 1_455
Ba5 S5 3.344285 1_555
Ba5 S10 3.375092 1_555
Ba5 S1 3.380233 1_555
Ba6 S9 3.101498 1_545
Ba6 S11 3.101499 1_455
Ba6 S10 3.101499 1_554
Ba6 S2 3.106713 1_555
Ba6 S0 3.106713 1_555
Ba6 S1 3.106714 1_555
Ba7 S3 3.101498 1_565
Ba7 S5 3.101499 1_655
Ba7 S4 3.101499 1_556
Ba7 S8 3.106713 1_555
Ba7 S6 3.106713 1_555
Ba7 S7 3.106714 1_555
Hf0 S11 2.578829 1_455
Hf0 S5 2.578829 1_544
Hf0 S10 2.578829 1_554
Hf0 S4 2.578829 1_445
Hf0 S9 2.578830 1_545
Hf0 S3 2.578830 1_454
S0 Zr0 2.604983 1_555
S1 Zr0 2.604982 1_555
S2 Zr0 2.604983 1_555
S6 Zr0 2.604983 1_555
S7 Zr0 2.604982 1_555
S8 Zr0 2.604983 1_555
