# generated using pymatgen
data_Zr6Al2Ga5Ni16
_symmetry_space_group_name_H-M   'P 1'
_cell_length_a   8.20316870
_cell_length_b   8.20316756
_cell_length_c   8.19206935
_cell_angle_alpha   60.04474406
_cell_angle_beta   60.04474867
_cell_angle_gamma   60.04131513
_symmetry_Int_Tables_number   1
_chemical_formula_structural   Zr6Al2Ga5Ni16
_chemical_formula_sum   'Zr6 Al2 Ga5 Ni16'
_cell_volume   390.18525347
_cell_formula_units_Z   1
loop_
 _symmetry_equiv_pos_site_id
 _symmetry_equiv_pos_as_xyz
  1  'x, y, z'
loop_
 _atom_site_type_symbol
 _atom_site_label
 _atom_site_symmetry_multiplicity
 _atom_site_fract_x
 _atom_site_fract_y
 _atom_site_fract_z
 _atom_site_occupancy
  Zr  Zr0  1  0.71031537  0.71031537  0.28968463  1
  Zr  Zr1  1  0.29056560  0.70943440  0.28964226  1
  Zr  Zr2  1  0.70943440  0.29056560  0.28964226  1
  Zr  Zr3  1  0.28968463  0.28968463  0.71031537  1
  Zr  Zr4  1  0.70943440  0.29056560  0.71035774  1
  Zr  Zr5  1  0.29056560  0.70943440  0.71035774  1
  Al  Al0  1  0.00000000  0.00000000  0.00000000  1
  Al  Al1  1  0.00000000  0.00000000  0.50000000  1
  Ga  Ga0  1  0.50000000  0.00000000  0.50000000  1
  Ga  Ga1  1  0.00000000  0.50000000  0.50000000  1
  Ga  Ga2  1  0.50000000  0.50000000  0.00000000  1
  Ga  Ga3  1  0.00000000  0.50000000  0.00000000  1
  Ga  Ga4  1  0.50000000  0.00000000  0.00000000  1
  Ni  Ni0  1  0.88023642  0.88023642  0.36319612  1
  Ni  Ni1  1  0.87910851  0.36226153  0.87931548  1
  Ni  Ni2  1  0.36226153  0.87910851  0.87931548  1
  Ni  Ni3  1  0.88023642  0.88023642  0.87633003  1
  Ni  Ni4  1  0.11976358  0.11976358  0.63680388  1
  Ni  Ni5  1  0.12089149  0.63773847  0.12068452  1
  Ni  Ni6  1  0.63773847  0.12089149  0.12068452  1
  Ni  Ni7  1  0.11976358  0.11976358  0.12366997  1
  Ni  Ni8  1  0.66996677  0.66996677  0.99128726  1
  Ni  Ni9  1  0.66981859  0.99288324  0.66864908  1
  Ni  Ni10  1  0.99288324  0.66981859  0.66864908  1
  Ni  Ni11  1  0.66996677  0.66996677  0.66877920  1
  Ni  Ni12  1  0.33003323  0.33003323  0.00871274  1
  Ni  Ni13  1  0.33018141  0.00711676  0.33135092  1
  Ni  Ni14  1  0.00711676  0.33018141  0.33135092  1
  Ni  Ni15  1  0.33003323  0.33003323  0.33122080  1
loop_
_geom_bond_atom_site_label_1
_geom_bond_atom_site_label_2
_geom_bond_distance
_geom_bond_site_symmetry_2
Al0 Ni1 2.427681 1_454
Al0 Ni5 2.427681 1_545
Al0 Ni2 2.427681 1_544
Al0 Ni6 2.427681 1_455
Al0 Ni0 2.430778 1_445
Al0 Ni4 2.430778 1_554
Al0 Ni7 2.430785 1_555
Al0 Ni3 2.430785 1_444
Al1 Ni14 2.364045 1_555
Al1 Ni10 2.364045 1_445
Al1 Ni13 2.364046 1_555
Al1 Ni9 2.364046 1_445
Al1 Ni3 2.519800 1_445
Al1 Ni7 2.519800 1_555
Al1 Ni4 2.519806 1_555
Al1 Ni0 2.519806 1_445
Al1 Zr4 2.942463 1_455
Al1 Zr1 2.942463 1_545
Al1 Zr5 2.942463 1_545
Al1 Zr2 2.942463 1_455
Ga0 Ni11 2.366903 1_545
Ga0 Ni15 2.366903 1_555
Ga0 Ni9 2.369181 1_545
Ga0 Ni13 2.369181 1_555
Ga0 Ni2 2.539955 1_545
Ga0 Ni6 2.539955 1_555
Ga0 Ni0 2.549178 1_545
Ga0 Ni4 2.549178 1_555
Ga0 Zr3 2.935555 1_555
Ga0 Zr0 2.935555 1_545
Ga0 Zr2 2.938358 1_555
Ga0 Zr5 2.938358 1_545
Ga1 Ni11 2.366903 1_455
Ga1 Ni15 2.366903 1_555
Ga1 Ni10 2.369180 1_455
Ga1 Ni14 2.369180 1_555
Ga1 Ni1 2.539955 1_455
Ga1 Ni5 2.539955 1_555
Ga1 Ni0 2.549177 1_455
Ga1 Ni4 2.549177 1_555
Ga1 Zr3 2.935555 1_555
Ga1 Zr0 2.935555 1_455
Ga1 Zr1 2.938359 1_555
Ga1 Zr4 2.938359 1_455
Ga2 Ni11 2.373991 1_554
Ga2 Ni15 2.373991 1_555
Ga2 Ni8 2.373991 1_554
Ga2 Ni12 2.373991 1_555
Ga2 Ni2 2.541884 1_554
Ga2 Ni6 2.541884 1_555
Ga2 Ni1 2.541885 1_554
Ga2 Ni5 2.541885 1_555
Ga2 Zr2 2.930074 1_555
Ga2 Zr5 2.930074 1_554
Ga2 Zr1 2.930074 1_555
Ga2 Zr4 2.930074 1_554
Ga3 Ni12 2.366903 1_555
Ga3 Ni8 2.366903 1_454
Ga3 Ni14 2.369180 1_555
Ga3 Ni10 2.369180 1_454
Ga3 Ni5 2.539948 1_555
Ga3 Ni1 2.539948 1_454
Ga3 Ni3 2.549177 1_454
Ga3 Ni7 2.549177 1_555
Ga3 Zr0 2.935555 1_455
Ga3 Zr3 2.935555 1_554
Ga3 Zr5 2.938359 1_554
Ga3 Zr2 2.938359 1_455
Ga4 Ni12 2.366903 1_555
Ga4 Ni8 2.366903 1_544
Ga4 Ni13 2.369181 1_555
Ga4 Ni9 2.369181 1_544
Ga4 Ni6 2.539948 1_555
Ga4 Ni2 2.539948 1_544
Ga4 Ni3 2.549178 1_544
Ga4 Ni7 2.549178 1_555
Ga4 Zr0 2.935555 1_545
Ga4 Zr3 2.935555 1_554
Ga4 Zr4 2.938358 1_554
Ga4 Zr1 2.938358 1_545
Ni0 Ni10 2.549024 1_555
Ni0 Ni9 2.549024 1_555
Ni0 Ni11 2.562109 1_555
Ni0 Ni7 2.779773 1_665
Ni0 Zr2 2.786312 1_565
Ni0 Zr1 2.786312 1_655
Ni0 Zr0 2.804566 1_555
Ni0 Ni5 2.812302 1_655
Ni0 Ni6 2.812302 1_565
Ni1 Ni8 2.563532 1_555
Ni1 Ni11 2.563536 1_555
Ni1 Ni10 2.570937 1_555
Ni1 Zr2 2.784482 1_556
Ni1 Zr4 2.784489 1_555
Ni1 Zr3 2.789022 1_655
Ni1 Ni6 2.801160 1_556
Ni1 Ni7 2.812302 1_656
Ni1 Ni4 2.812302 1_655
Ni2 Ni8 2.563532 1_555
Ni2 Ni9 2.570937 1_555
Ni2 Zr1 2.784482 1_556
Ni2 Zr5 2.784489 1_555
Ni2 Zr3 2.789021 1_565
Ni2 Ni5 2.801160 1_556
Ni2 Ni7 2.812302 1_566
Ni2 Ni4 2.812302 1_565
Ni3 Ni9 2.549017 1_555
Ni3 Ni8 2.562107 1_555
Ni3 Ni4 2.779773 1_665
Ni3 Zr4 2.786311 1_565
Ni3 Zr5 2.786311 1_655
Ni3 Zr0 2.804572 1_556
Ni3 Ni5 2.812302 1_656
Ni3 Ni6 2.812302 1_566
Ni4 Zr5 2.786312 1_545
Ni4 Zr4 2.786312 1_455
Ni4 Zr3 2.804566 1_555
Ni5 Zr5 2.784482 1_554
Ni5 Zr1 2.784489 1_555
Ni5 Zr0 2.789022 1_455
Ni6 Zr4 2.784482 1_554
Ni6 Zr2 2.784489 1_555
Ni6 Zr0 2.789021 1_545
Ni7 Zr1 2.786311 1_545
Ni7 Zr2 2.786311 1_455
Ni7 Zr3 2.804572 1_554
Ni8 Ni9 2.647799 1_555
Ni8 Zr0 2.814260 1_556
Ni8 Zr2 2.819981 1_556
Ni8 Zr1 2.819981 1_556
Ni9 Zr4 2.814625 1_565
Ni9 Zr2 2.814625 1_565
Ni9 Zr3 2.820007 1_565
Ni10 Ni3 2.549017 1_555
Ni10 Ni11 2.647800 1_555
Ni10 Ni8 2.647800 1_555
Ni10 Ni9 2.651808 1_555
Ni10 Zr1 2.814626 1_655
Ni10 Zr5 2.814626 1_655
Ni10 Zr3 2.820007 1_655
Ni11 Ni2 2.563536 1_555
Ni11 Ni8 2.642008 1_555
Ni11 Ni9 2.647799 1_555
Ni11 Zr0 2.814260 1_555
Ni11 Zr4 2.819981 1_555
Ni11 Zr5 2.819981 1_555
Ni12 Ni7 2.562107 1_555
Ni12 Ni5 2.563532 1_555
Ni12 Ni6 2.563532 1_555
Ni12 Ni15 2.642008 1_555
Ni12 Ni13 2.647799 1_555
Ni12 Ni14 2.647800 1_555
Ni12 Zr3 2.814260 1_554
Ni12 Zr5 2.819981 1_554
Ni12 Zr4 2.819981 1_554
Ni13 Ni7 2.549017 1_555
Ni13 Ni4 2.549024 1_555
Ni13 Ni6 2.570937 1_555
Ni13 Ni15 2.647799 1_555
Ni13 Ni14 2.651808 1_555
Ni13 Zr1 2.814625 1_545
Ni13 Zr5 2.814625 1_545
Ni13 Zr0 2.820007 1_545
Ni14 Ni7 2.549017 1_555
Ni14 Ni4 2.549024 1_555
Ni14 Ni5 2.570937 1_555
Ni14 Ni15 2.647800 1_555
Ni14 Zr4 2.814626 1_455
Ni14 Zr2 2.814626 1_455
Ni14 Zr0 2.820007 1_455
Ni15 Ni4 2.562109 1_555
Ni15 Ni5 2.563536 1_555
Ni15 Ni6 2.563536 1_555
Ni15 Zr3 2.814260 1_555
Ni15 Zr1 2.819981 1_555
Ni15 Zr2 2.819981 1_555
