# generated using pymatgen
data_Pr2S3
_symmetry_space_group_name_H-M   'P 1'
_cell_length_a   22.49946715
_cell_length_b   8.67062568
_cell_length_c   8.67062479
_cell_angle_alpha   89.99629802
_cell_angle_beta   54.68455391
_cell_angle_gamma   54.68454333
_symmetry_Int_Tables_number   1
_chemical_formula_structural   Pr2S3
_chemical_formula_sum   'Pr16 S24'
_cell_volume   974.18821994
_cell_formula_units_Z   8
loop_
 _symmetry_equiv_pos_site_id
 _symmetry_equiv_pos_as_xyz
  1  'x, y, z'
loop_
 _atom_site_type_symbol
 _atom_site_label
 _atom_site_symmetry_multiplicity
 _atom_site_fract_x
 _atom_site_fract_y
 _atom_site_fract_z
 _atom_site_occupancy
  Pr  Pr0  1  0.16666960  0.24998562  0.13019539  1
  Pr  Pr1  1  0.99452748  0.61913167  0.74938120  1
  Pr  Pr2  1  0.08604601  0.12091216  0.87089421  1
  Pr  Pr3  1  0.16665054  0.75003272  0.36982333  1
  Pr  Pr4  1  0.24727701  0.37911203  0.62910875  1
  Pr  Pr5  1  0.33882158  0.88083087  0.23300506  1
  Pr  Pr6  1  0.49452748  0.24938120  0.11913167  1
  Pr  Pr7  1  0.33880280  0.60270531  0.75059891  1
  Pr  Pr8  1  0.49451611  0.76704052  0.39730477  1
  Pr  Pr9  1  0.58604601  0.37089421  0.62091216  1
  Pr  Pr10  1  0.83880280  0.25059891  0.10270531  1
  Pr  Pr11  1  0.66665054  0.86982333  0.25003272  1
  Pr  Pr12  1  0.66666960  0.63019539  0.74998562  1
  Pr  Pr13  1  0.74727701  0.12910875  0.87911203  1
  Pr  Pr14  1  0.83882158  0.73300506  0.38083087  1
  Pr  Pr15  1  0.99451611  0.89730477  0.26704052  1
  S  S0  1  0.12716022  0.98650293  0.12709657  1
  S  S1  1  0.05008476  0.49818764  0.99545453  1
  S  S2  1  0.12711329  0.13212179  0.49142567  1
  S  S3  1  0.20616628  0.51350825  0.00866859  1
  S  S4  1  0.20620754  0.36792680  0.37288110  1
  S  S5  1  0.05001526  0.85165287  0.85436532  1
  S  S6  1  0.28331261  0.00172104  0.64562280  1
  S  S7  1  0.44950488  0.99553051  0.15603438  1
  S  S8  1  0.38380859  0.50464624  0.00449708  1
  S  S9  1  0.28331717  0.64837144  0.50442842  1
  S  S10  1  0.44948155  0.15593718  0.49539728  1
  S  S11  1  0.55008476  0.49545453  0.99818764  1
  S  S12  1  0.55001526  0.35436532  0.35165287  1
  S  S13  1  0.38385271  0.84390608  0.84405898  1
  S  S14  1  0.62711329  0.99142567  0.63212179  1
  S  S15  1  0.78331717  0.00442842  0.14837144  1
  S  S16  1  0.70616628  0.50866859  0.01350825  1
  S  S17  1  0.62716022  0.62709657  0.48650293  1
  S  S18  1  0.78331261  0.14562280  0.50172104  1
  S  S19  1  0.88380859  0.50449708  0.00464624  1
  S  S20  1  0.88385271  0.34405898  0.34390608  1
  S  S21  1  0.70620754  0.87288110  0.86792680  1
  S  S22  1  0.94948155  0.99539728  0.65593718  1
  S  S23  1  0.94950488  0.65603438  0.49553051  1
loop_
_geom_bond_atom_site_label_1
_geom_bond_atom_site_label_2
_geom_bond_distance
_geom_bond_site_symmetry_2
Pr0 S3 2.895766 1_555
Pr0 S0 2.895813 1_545
Pr0 S23 2.919187 1_455
Pr0 S13 2.919446 1_544
Pr0 S2 3.078115 1_555
Pr0 S4 3.079151 1_555
Pr0 S1 3.145327 1_554
Pr0 S6 3.145709 1_554
Pr1 S4 2.848862 1_655
Pr1 S23 2.859384 1_555
Pr1 S15 2.889816 1_566
Pr1 S19 2.929192 1_556
Pr1 S1 2.963475 1_655
Pr1 S22 3.074650 1_555
Pr1 S2 3.075053 1_655
Pr1 S5 3.267425 1_655
Pr2 S2 2.877104 1_555
Pr2 S0 2.877108 1_546
Pr2 S5 2.907035 1_545
Pr2 S1 2.907234 1_555
Pr2 S9 3.042163 1_545
Pr2 S6 3.042467 1_555
Pr2 S20 3.084328 1_456
Pr2 S19 3.084459 1_456
Pr3 S2 2.896106 1_565
Pr3 S4 2.896128 1_555
Pr3 S8 2.919160 1_555
Pr3 S22 2.919421 1_455
Pr3 S3 3.078329 1_555
Pr3 S0 3.078611 1_555
Pr3 S5 3.145492 1_555
Pr3 S9 3.145818 1_555
Pr4 S4 2.876823 1_555
Pr4 S3 2.877356 1_556
Pr4 S9 2.907185 1_555
Pr4 S6 2.907247 1_555
Pr4 S1 3.041538 1_555
Pr4 S5 3.042190 1_555
Pr4 S10 3.083884 1_555
Pr4 S7 3.085015 1_545
Pr5 S2 2.849377 1_565
Pr5 S13 2.859520 1_554
Pr5 S11 2.890203 1_554
Pr5 S7 2.928811 1_555
Pr5 S6 2.962959 1_565
Pr5 S8 3.074789 1_555
Pr5 S4 3.075450 1_565
Pr5 S9 3.266835 1_555
Pr6 S21 2.848861 1_544
Pr6 S7 2.859384 1_545
Pr6 S9 2.889816 1_555
Pr6 S8 2.929192 1_555
Pr6 S11 2.963476 1_554
Pr6 S10 3.074650 1_555
Pr6 S14 3.075053 1_544
Pr6 S12 3.267425 1_555
Pr7 S0 2.848552 1_556
Pr7 S8 2.859432 1_556
Pr7 S12 2.889688 1_555
Pr7 S10 2.929342 1_555
Pr7 S9 2.963156 1_555
Pr7 S13 3.075473 1_555
Pr7 S3 3.075494 1_556
Pr7 S6 3.267468 1_565
Pr8 S16 2.848695 1_555
Pr8 S10 2.859039 1_565
Pr8 S6 2.889572 1_565
Pr8 S13 2.929084 1_555
Pr8 S12 2.963458 1_555
Pr8 S7 3.075079 1_555
Pr8 S17 3.075541 1_555
Pr8 S11 3.267863 1_554
Pr9 S14 2.877104 1_545
Pr9 S17 2.877108 1_555
Pr9 S12 2.907034 1_555
Pr9 S11 2.907234 1_555
Pr9 S15 3.042163 1_555
Pr9 S18 3.042467 1_555
Pr9 S13 3.084328 1_555
Pr9 S8 3.084459 1_556
Pr10 S17 2.848552 1_555
Pr10 S19 2.859432 1_555
Pr10 S5 2.889688 1_644
Pr10 S22 2.929342 1_544
Pr10 S15 2.963157 1_555
Pr10 S20 3.075473 1_555
Pr10 S16 3.075494 1_555
Pr10 S18 3.267468 1_555
Pr11 S14 2.896106 1_555
Pr11 S21 2.896128 1_554
Pr11 S19 2.919160 1_555
Pr11 S10 2.919421 1_565
Pr11 S16 3.078329 1_555
Pr11 S17 3.078611 1_555
Pr11 S12 3.145492 1_565
Pr11 S15 3.145818 1_565
Pr12 S16 2.895765 1_556
Pr12 S17 2.895813 1_555
Pr12 S7 2.919187 1_556
Pr12 S20 2.919447 1_555
Pr12 S14 3.078115 1_555
Pr12 S21 3.079151 1_555
Pr12 S11 3.145328 1_555
Pr12 S18 3.145709 1_555
Pr13 S21 2.876824 1_545
Pr13 S16 2.877356 1_556
Pr13 S15 2.907184 1_556
Pr13 S18 2.907247 1_555
Pr13 S11 3.041538 1_555
Pr13 S12 3.042190 1_556
Pr13 S22 3.083884 1_545
Pr13 S23 3.085015 1_545
Pr14 S14 2.849377 1_555
Pr14 S20 2.859520 1_555
Pr14 S1 2.890203 1_654
Pr14 S23 2.928810 1_555
Pr14 S18 2.962959 1_565
Pr14 S19 3.074789 1_555
Pr14 S21 3.075450 1_555
Pr14 S15 3.266834 1_565
Pr15 S3 2.848694 1_655
Pr15 S22 2.859039 1_555
Pr15 S18 2.889572 1_565
Pr15 S20 2.929084 1_565
Pr15 S5 2.963458 1_654
Pr15 S23 3.075079 1_555
Pr15 S0 3.075542 1_655
Pr15 S1 3.267863 1_654
