# generated using pymatgen
data_Cs2MgCdP2
_symmetry_space_group_name_H-M   'P 1'
_cell_length_a   4.52799016
_cell_length_b   4.52799016
_cell_length_c   8.69654683
_cell_angle_alpha   90.00000000
_cell_angle_beta   90.00000000
_cell_angle_gamma   90.00000000
_symmetry_Int_Tables_number   1
_chemical_formula_structural   Cs2MgCdP2
_chemical_formula_sum   'Cs2 Mg1 Cd1 P2'
_cell_volume   178.30264621
_cell_formula_units_Z   1
loop_
 _symmetry_equiv_pos_site_id
 _symmetry_equiv_pos_as_xyz
  1  'x, y, z'
loop_
 _atom_site_type_symbol
 _atom_site_label
 _atom_site_symmetry_multiplicity
 _atom_site_fract_x
 _atom_site_fract_y
 _atom_site_fract_z
 _atom_site_occupancy
  Cs  Cs0  1  0.00000000  0.49999900  0.35115698  1
  Cs  Cs1  1  0.49999900  0.00000000  0.64884302  1
  Mg  Mg0  1  0.49999900  0.49999900  0.00000000  1
  Cd  Cd0  1  0.00000000  0.00000000  0.00000000  1
  P  P0  1  0.49999900  0.00000000  0.16695672  1
  P  P1  1  0.00000000  0.49999900  0.83304328  1
loop_
_geom_bond_atom_site_label_1
_geom_bond_atom_site_label_2
_geom_bond_distance
_geom_bond_site_symmetry_2
Cs0 P0 3.580141 1_555
Cs0 P0 3.580147 1_455
Cs0 P0 3.580147 1_565
Cs0 P0 3.580153 1_465
Cs1 P1 3.580141 1_555
Cs1 P1 3.580147 1_545
Cs1 P1 3.580147 1_655
Cs1 P1 3.580153 1_645
Mg0 P0 2.689573 1_555
Mg0 P1 2.689573 1_554
Mg0 P0 2.689581 1_565
Mg0 P1 2.689581 1_654
Cd0 P0 2.689573 1_555
Cd0 P1 2.689573 1_554
Cd0 P0 2.689581 1_455
Cd0 P1 2.689581 1_544
