# generated using pymatgen
data_Nb3VIr2C
_symmetry_space_group_name_H-M   'P 1'
_cell_length_a   8.34056126
_cell_length_b   8.34061701
_cell_length_c   8.34048072
_cell_angle_alpha   59.99950994
_cell_angle_beta   59.99968171
_cell_angle_gamma   60.00007647
_symmetry_Int_Tables_number   1
_chemical_formula_structural   Nb3VIr2C
_chemical_formula_sum   'Nb12 V4 Ir8 C4'
_cell_volume   410.26752232
_cell_formula_units_Z   4
loop_
 _symmetry_equiv_pos_site_id
 _symmetry_equiv_pos_as_xyz
  1  'x, y, z'
loop_
 _atom_site_type_symbol
 _atom_site_label
 _atom_site_symmetry_multiplicity
 _atom_site_fract_x
 _atom_site_fract_y
 _atom_site_fract_z
 _atom_site_occupancy
  Nb  Nb0  1  0.81009007  0.81006999  0.18991280  1
  Nb  Nb1  1  0.18988543  0.18992321  0.81009124  1
  Nb  Nb2  1  0.81010202  0.18991866  0.81008915  1
  Nb  Nb3  1  0.18992313  0.81007164  0.18991788  1
  Nb  Nb4  1  0.18991255  0.81008025  0.81008959  1
  Nb  Nb5  1  0.81008893  0.18993308  0.18989042  1
  Nb  Nb6  1  0.43991316  0.43991792  0.06008290  1
  Nb  Nb7  1  0.06011058  0.06008738  0.43989902  1
  Nb  Nb8  1  0.43991942  0.06006761  0.43991058  1
  Nb  Nb9  1  0.06009111  0.43991325  0.06009453  1
  Nb  Nb10  1  0.06007986  0.43992432  0.43990890  1
  Nb  Nb11  1  0.43991110  0.06007555  0.06010875  1
  V  V0  1  0.12500198  0.62499965  0.62501381  1
  V  V1  1  0.62499181  0.12500480  0.62501467  1
  V  V2  1  0.62499337  0.62500184  0.12501051  1
  V  V3  1  0.62498774  0.62499658  0.62501574  1
  Ir  Ir0  1  0.74879973  0.41708109  0.41707191  1
  Ir  Ir1  1  0.41706142  0.74881559  0.41707041  1
  Ir  Ir2  1  0.41705762  0.41707696  0.74881804  1
  Ir  Ir3  1  0.41704568  0.41707024  0.41705403  1
  Ir  Ir4  1  0.50117628  0.83292422  0.83294520  1
  Ir  Ir5  1  0.83294711  0.50118531  0.83292472  1
  Ir  Ir6  1  0.83297021  0.83292854  0.50114269  1
  Ir  Ir7  1  0.83295481  0.83292370  0.83293541  1
  C  C0  1  0.62499048  0.12500267  0.12500087  1
  C  C1  1  0.12499749  0.62500366  0.12499638  1
  C  C2  1  0.12500011  0.12500213  0.62499399  1
  C  C3  1  0.12499780  0.12500016  0.12499688  1
loop_
_geom_bond_atom_site_label_1
_geom_bond_atom_site_label_2
_geom_bond_distance
_geom_bond_site_symmetry_2
Ir0 V3 2.550977 1_555
Ir0 V2 2.551019 1_555
Ir0 V1 2.551150 1_555
Ir0 Ir1 2.766880 1_555
Ir0 Ir2 2.766906 1_555
Ir0 Ir3 2.767135 1_555
Ir0 Nb10 2.799743 1_655
Ir0 Nb9 2.799832 1_655
Ir0 Nb7 2.800024 1_655
Ir0 Nb0 3.015213 1_555
Ir0 Nb2 3.015415 1_555
Ir0 Nb5 3.015578 1_555
Ir1 V3 2.551029 1_555
Ir1 V2 2.551053 1_555
Ir1 V0 2.551065 1_555
Ir1 Ir2 2.766899 1_555
Ir1 Ir3 2.767095 1_555
Ir1 Nb8 2.799611 1_565
Ir1 Nb11 2.799646 1_565
Ir1 Nb7 2.799679 1_565
Ir1 Nb4 3.015311 1_555
Ir1 Nb0 3.015365 1_555
Ir1 Nb3 3.015412 1_555
Ir2 V3 2.550934 1_555
Ir2 V0 2.550993 1_555
Ir2 V1 2.551119 1_555
Ir2 Ir3 2.767149 1_555
Ir2 Nb6 2.799670 1_556
Ir2 Nb9 2.799736 1_556
Ir2 Nb11 2.799955 1_556
Ir2 Nb4 3.015274 1_555
Ir2 Nb2 3.015545 1_555
Ir2 Nb1 3.015619 1_555
Ir3 V2 2.551035 1_555
Ir3 V0 2.551102 1_555
Ir3 V1 2.551222 1_555
Ir3 Nb6 2.799675 1_555
Ir3 Nb10 2.799685 1_555
Ir3 Nb8 2.799933 1_555
Ir3 Nb3 3.015187 1_555
Ir3 Nb1 3.015454 1_555
Ir3 Nb5 3.015490 1_555
Ir4 V3 2.550963 1_555
Ir4 V2 2.551095 1_556
Ir4 V1 2.551214 1_565
Ir4 Ir5 2.767034 1_555
Ir4 Ir7 2.767176 1_555
Ir4 Ir6 2.767357 1_555
Ir4 Nb3 2.799673 1_556
Ir4 Nb4 2.799698 1_555
Ir4 Nb1 2.799977 1_565
Ir4 Nb6 3.015247 1_556
Ir4 Nb8 3.015388 1_565
Ir4 Nb11 3.015566 1_566
Ir5 V3 2.551024 1_555
Ir5 V0 2.551026 1_655
Ir5 V2 2.551242 1_556
Ir5 Ir7 2.766980 1_555
Ir5 Ir6 2.767062 1_555
Ir5 Nb1 2.799585 1_655
Ir5 Nb5 2.799637 1_556
Ir5 Nb2 2.799650 1_555
Ir5 Nb10 3.015275 1_655
Ir5 Nb6 3.015446 1_556
Ir5 Nb9 3.015515 1_656
Ir6 V0 2.551132 1_655
Ir6 V3 2.551213 1_555
Ir6 V1 2.551457 1_565
Ir6 Ir7 2.767226 1_555
Ir6 Nb3 2.799487 1_655
Ir6 Nb0 2.799579 1_555
Ir6 Nb5 2.799832 1_565
Ir6 Nb10 3.015155 1_655
Ir6 Nb8 3.015461 1_565
Ir6 Nb7 3.015541 1_665
Ir7 V0 2.550913 1_655
Ir7 V2 2.551125 1_556
Ir7 V1 2.551154 1_565
Ir7 Nb4 2.799688 1_655
Ir7 Nb0 2.799715 1_556
Ir7 Nb2 2.799982 1_565
Ir7 Nb9 3.015343 1_656
Ir7 Nb7 3.015491 1_665
Ir7 Nb11 3.015573 1_566
C0 Nb11 2.221176 1_555
C0 Nb8 2.221193 1_555
C0 Nb2 2.221281 1_554
C0 Nb6 2.221282 1_555
C0 Nb5 2.221330 1_555
C0 Nb0 2.221427 1_545
C1 Nb4 2.221185 1_554
C1 Nb9 2.221205 1_555
C1 Nb0 2.221207 1_455
C1 Nb10 2.221225 1_555
C1 Nb3 2.221261 1_555
C1 Nb6 2.221292 1_555
C2 Nb2 2.221193 1_455
C2 Nb7 2.221201 1_555
C2 Nb1 2.221231 1_555
C2 Nb8 2.221297 1_555
C2 Nb10 2.221324 1_555
C2 Nb4 2.221342 1_545
C3 Nb7 2.221206 1_555
C3 Nb1 2.221213 1_554
C3 Nb5 2.221241 1_455
C3 Nb11 2.221301 1_555
C3 Nb9 2.221322 1_555
C3 Nb3 2.221372 1_545
