# generated using pymatgen
data_Hf2Al3V
_symmetry_space_group_name_H-M   'P 1'
_cell_length_a   5.25833452
_cell_length_b   5.25833420
_cell_length_c   5.25833446
_cell_angle_alpha   59.79693635
_cell_angle_beta   59.79693547
_cell_angle_gamma   59.79694554
_symmetry_Int_Tables_number   1
_chemical_formula_structural   Hf2Al3V
_chemical_formula_sum   'Hf2 Al3 V1'
_cell_volume   102.33471614
_cell_formula_units_Z   1
loop_
 _symmetry_equiv_pos_site_id
 _symmetry_equiv_pos_as_xyz
  1  'x, y, z'
loop_
 _atom_site_type_symbol
 _atom_site_label
 _atom_site_symmetry_multiplicity
 _atom_site_fract_x
 _atom_site_fract_y
 _atom_site_fract_z
 _atom_site_occupancy
  Hf  Hf0  1  0.62867872  0.62867872  0.62867872  1
  Hf  Hf1  1  0.37132128  0.37132128  0.37132128  1
  Al  Al0  1  0.00000000  0.50000000  0.00000000  1
  Al  Al1  1  0.50000000  0.00000000  0.00000000  1
  Al  Al2  1  0.00000000  0.00000000  0.50000000  1
  V  V0  1  0.00000000  0.00000000  0.00000000  1
loop_
_geom_bond_atom_site_label_1
_geom_bond_atom_site_label_2
_geom_bond_distance
_geom_bond_site_symmetry_2
Hf0 V0 3.065993 1_665
Hf0 V0 3.065994 1_566
Hf0 V0 3.065994 1_656
Hf0 Hf1 3.181312 1_556
Hf0 Hf1 3.181312 1_565
Hf0 Hf1 3.181312 1_655
Hf0 Hf1 3.319903 1_555
Hf1 V0 3.065993 1_556
Hf1 V0 3.065994 1_655
Hf1 V0 3.065994 1_565
Al0 Al2 2.621093 1_555
Al0 Al2 2.621093 1_564
Al0 Al1 2.621094 1_555
Al0 Al1 2.621094 1_465
Al0 V0 2.629167 1_565
Al0 V0 2.629167 1_555
Al0 Hf1 3.042999 1_555
Al0 Hf0 3.042999 1_454
Al0 Hf0 3.102510 1_554
Al0 Hf1 3.102510 1_455
Al0 Hf0 3.102510 1_455
Al0 Hf1 3.102510 1_554
Al1 Al2 2.621093 1_654
Al1 Al2 2.621093 1_555
Al1 V0 2.629167 1_555
Al1 V0 2.629167 1_655
Al1 Hf1 3.042999 1_555
Al1 Hf0 3.042999 1_544
Al1 Hf0 3.102510 1_554
Al1 Hf1 3.102510 1_545
Al1 Hf0 3.102510 1_545
Al1 Hf1 3.102510 1_554
Al2 V0 2.629167 1_555
Al2 V0 2.629167 1_556
Al2 Hf1 3.042999 1_555
Al2 Hf0 3.042999 1_445
Al2 Hf0 3.102510 1_455
Al2 Hf1 3.102510 1_545
Al2 Hf0 3.102510 1_545
Al2 Hf1 3.102510 1_455
