# generated using pymatgen
data_CaZrCl6
_symmetry_space_group_name_H-M   'P 1'
_cell_length_a   7.21560957
_cell_length_b   7.21561010
_cell_length_c   7.21561081
_cell_angle_alpha   56.25675163
_cell_angle_beta   56.25674570
_cell_angle_gamma   56.25673502
_symmetry_Int_Tables_number   1
_chemical_formula_structural   CaZrCl6
_chemical_formula_sum   'Ca1 Zr1 Cl6'
_cell_volume   242.63664069
_cell_formula_units_Z   1
loop_
 _symmetry_equiv_pos_site_id
 _symmetry_equiv_pos_as_xyz
  1  'x, y, z'
loop_
 _atom_site_type_symbol
 _atom_site_label
 _atom_site_symmetry_multiplicity
 _atom_site_fract_x
 _atom_site_fract_y
 _atom_site_fract_z
 _atom_site_occupancy
  Ca  Ca0  1  0.33382745  0.33382745  0.33382745  1
  Zr  Zr0  1  0.66674483  0.66674483  0.66674483  1
  Cl  Cl0  1  0.04920735  0.45380487  0.73392638  1
  Cl  Cl1  1  0.29859342  0.89211761  0.57177610  1
  Cl  Cl2  1  0.45380487  0.73392638  0.04920735  1
  Cl  Cl3  1  0.57177610  0.29859342  0.89211761  1
  Cl  Cl4  1  0.73392638  0.04920735  0.45380487  1
  Cl  Cl5  1  0.89211761  0.57177610  0.29859342  1
loop_
_geom_bond_atom_site_label_1
_geom_bond_atom_site_label_2
_geom_bond_distance
_geom_bond_site_symmetry_2
Ca0 Cl5 2.739836 1_455
Ca0 Cl1 2.739837 1_545
Ca0 Cl3 2.739837 1_554
Ca0 Cl4 2.741591 1_555
Ca0 Cl0 2.741591 1_555
Ca0 Cl2 2.741592 1_555
Cl0 Zr0 2.481893 1_455
Cl1 Zr0 2.481107 1_555
Cl2 Zr0 2.481893 1_554
Cl3 Zr0 2.481108 1_555
Cl4 Zr0 2.481893 1_545
Cl5 Zr0 2.481108 1_555
