# generated using pymatgen
data_Lu3HC2
_symmetry_space_group_name_H-M   'P 1'
_cell_length_a   3.52743209
_cell_length_b   3.52743207
_cell_length_c   8.28537246
_cell_angle_alpha   90.00000000
_cell_angle_beta   90.00000000
_cell_angle_gamma   120.00000939
_symmetry_Int_Tables_number   1
_chemical_formula_structural   Lu3HC2
_chemical_formula_sum   'Lu3 H1 C2'
_cell_volume   89.28118545
_cell_formula_units_Z   1
loop_
 _symmetry_equiv_pos_site_id
 _symmetry_equiv_pos_as_xyz
  1  'x, y, z'
loop_
 _atom_site_type_symbol
 _atom_site_label
 _atom_site_symmetry_multiplicity
 _atom_site_fract_x
 _atom_site_fract_y
 _atom_site_fract_z
 _atom_site_occupancy
  Lu  Lu0  1  0.00000000  0.00000000  0.50000000  1
  Lu  Lu1  1  0.33333300  0.66666700  0.18606987  1
  Lu  Lu2  1  0.66666700  0.33333300  0.81393013  1
  H  H0  1  0.00000000  0.00000000  0.00000000  1
  C  C0  1  0.33333300  0.66666700  0.68382609  1
  C  C1  1  0.66666700  0.33333300  0.31617391  1
loop_
_geom_bond_atom_site_label_1
_geom_bond_atom_site_label_2
_geom_bond_distance
_geom_bond_site_symmetry_2
H0 Lu1 2.554270 1_545
H0 Lu2 2.554270 1_454
H0 Lu1 2.554272 1_555
H0 Lu2 2.554272 1_444
H0 Lu1 2.554272 1_445
H0 Lu2 2.554272 1_554
C0 Lu2 2.304253 1_565
C0 Lu2 2.304253 1_455
C0 Lu2 2.304259 1_555
C0 Lu0 2.543093 1_565
C0 Lu0 2.543095 1_555
C0 Lu0 2.543095 1_665
C1 Lu1 2.304253 1_545
C1 Lu1 2.304253 1_655
C1 Lu1 2.304259 1_555
C1 Lu0 2.543093 1_655
C1 Lu0 2.543095 1_665
C1 Lu0 2.543095 1_555
