# generated using pymatgen
data_BeV10Si4As
_symmetry_space_group_name_H-M   'P 1'
_cell_length_a   7.02155146
_cell_length_b   7.02054786
_cell_length_c   7.01044651
_cell_angle_alpha   96.26616877
_cell_angle_beta   96.27350937
_cell_angle_gamma   141.43558609
_symmetry_Int_Tables_number   1
_chemical_formula_structural   BeV10Si4As
_chemical_formula_sum   'Be1 V10 Si4 As1'
_cell_volume   203.31038635
_cell_formula_units_Z   1
loop_
 _symmetry_equiv_pos_site_id
 _symmetry_equiv_pos_as_xyz
  1  'x, y, z'
loop_
 _atom_site_type_symbol
 _atom_site_label
 _atom_site_symmetry_multiplicity
 _atom_site_fract_x
 _atom_site_fract_y
 _atom_site_fract_z
 _atom_site_occupancy
  Be  Be0  1  0.25028170  0.25028170  0.00056439  1
  V  V0  1  0.56794077  0.27500245  0.85378241  1
  V  V1  1  0.25107181  0.75089416  0.49634231  1
  V  V2  1  0.08032347  0.22776367  0.29612994  1
  V  V3  1  0.93002785  0.78596694  0.70433684  1
  V  V4  1  0.74527050  0.24544814  0.49634231  1
  V  V5  1  0.71580647  0.56836627  0.29612994  1
  V  V6  1  0.42113919  0.71562296  0.14865437  1
  V  V7  1  0.78584164  0.07877996  0.85378241  1
  V  V8  1  0.27430799  0.41836990  0.70433684  1
  V  V9  1  0.22751718  0.93303341  0.14865437  1
  Si  Si0  1  0.66586940  0.83475149  0.50003777  1
  Si  Si1  1  0.83474825  0.33474825  0.16949450  1
  Si  Si2  1  0.75061939  0.75061939  0.00124079  1
  Si  Si3  1  0.33416838  0.16528628  0.50003777  1
  As  As0  1  0.16506502  0.66506502  0.83013104  1
loop_
_geom_bond_atom_site_label_1
_geom_bond_atom_site_label_2
_geom_bond_distance
_geom_bond_site_symmetry_2
Be0 Si2 2.318502 1_555
Be0 Si2 2.318507 1_445
Be0 V7 2.449316 1_454
Be0 V0 2.449318 1_554
Be0 V3 2.456388 1_444
Be0 V8 2.456392 1_554
Be0 V9 2.459335 1_545
Be0 V6 2.459341 1_555
Be0 V2 2.461583 1_555
Be0 V5 2.461585 1_555
V1 V4 2.292424 1_565
V1 V4 2.344579 1_455
Si0 V6 2.469438 1_555
Si0 V3 2.475642 1_555
Si0 V1 2.475642 1_555
Si0 V4 2.476011 1_565
Si0 V7 2.480678 1_565
Si0 V5 2.493058 1_555
Si0 V2 2.663423 1_555
Si0 V8 2.664353 1_665
Si0 V2 2.709002 1_665
Si0 V8 2.713237 1_555
Si1 V1 2.459731 1_655
Si1 V4 2.459735 1_555
Si1 V5 2.482314 1_555
Si1 V2 2.482314 1_655
Si1 V7 2.499302 1_554
Si1 V0 2.499302 1_554
Si1 V9 2.669045 1_545
Si1 V6 2.669045 1_655
Si1 V6 2.716000 1_545
Si1 V9 2.716000 1_655
Si2 V0 2.474332 1_554
Si2 V7 2.474337 1_564
Si2 V5 2.483831 1_555
Si2 V2 2.483835 1_665
Si2 V6 2.483852 1_555
Si2 V9 2.483861 1_655
Si2 V8 2.485511 1_554
Si2 V3 2.485512 1_554
Si3 V9 2.469438 1_545
Si3 V4 2.475642 1_555
Si3 V8 2.475647 1_555
Si3 V1 2.476011 1_545
Si3 V0 2.480678 1_555
Si3 V2 2.493058 1_555
Si3 V5 2.663424 1_555
Si3 V3 2.664356 1_445
Si3 V5 2.709001 1_445
Si3 V3 2.713235 1_555
As0 V4 2.500198 1_455
As0 V1 2.500200 1_555
As0 V8 2.501522 1_555
As0 V3 2.501528 1_455
As0 V9 2.509312 1_556
As0 V6 2.509312 1_556
As0 V7 2.676866 1_455
As0 V0 2.676870 1_565
As0 V0 2.720586 1_455
As0 V7 2.720590 1_565
