# generated using pymatgen
data_ScGaF6
_symmetry_space_group_name_H-M   'P 1'
_cell_length_a   5.52287319
_cell_length_b   5.52287315
_cell_length_c   5.52287294
_cell_angle_alpha   120.01144416
_cell_angle_beta   120.01145326
_cell_angle_gamma   89.98017498
_symmetry_Int_Tables_number   1
_chemical_formula_structural   ScGaF6
_chemical_formula_sum   'Sc1 Ga1 F6'
_cell_volume   119.09814368
_cell_formula_units_Z   1
loop_
 _symmetry_equiv_pos_site_id
 _symmetry_equiv_pos_as_xyz
  1  'x, y, z'
loop_
 _atom_site_type_symbol
 _atom_site_label
 _atom_site_symmetry_multiplicity
 _atom_site_fract_x
 _atom_site_fract_y
 _atom_site_fract_z
 _atom_site_occupancy
  Sc  Sc0  1  0.00000000  0.00000000  0.00000000  1
  Ga  Ga0  1  0.50000000  0.50000000  0.00000000  1
  F  F0  1  0.74182164  0.25817736  1.00000000  1
  F  F1  1  0.25817347  0.25817347  0.00000000  1
  F  F2  1  0.74182753  0.74182753  1.00000000  1
  F  F3  1  0.25817736  0.74182164  0.00000000  1
  F  F4  1  0.74182164  0.74182164  0.48364328  1
  F  F5  1  0.25817836  0.25817836  0.51635672  1
loop_
_geom_bond_atom_site_label_1
_geom_bond_atom_site_label_2
_geom_bond_distance
_geom_bond_site_symmetry_2
F0 Ga0 1.888430 1_556
F0 Sc0 2.016155 1_656
F1 Ga0 1.889118 1_555
F1 Sc0 2.016818 1_555
F2 Ga0 1.889126 1_556
F2 Sc0 2.016811 1_666
F3 Ga0 1.888430 1_555
F3 Sc0 2.016155 1_565
F4 Ga0 1.888426 1_555
F4 Sc0 2.016159 1_666
F5 Ga0 1.888426 1_556
F5 Sc0 2.016159 1_555
