# generated using pymatgen
data_Hf4Pt2N
_symmetry_space_group_name_H-M   'P 1'
_cell_length_a   8.72546564
_cell_length_b   8.72546500
_cell_length_c   8.72546523
_cell_angle_alpha   59.99999910
_cell_angle_beta   60.00000154
_cell_angle_gamma   59.99999858
_symmetry_Int_Tables_number   1
_chemical_formula_structural   Hf4Pt2N
_chemical_formula_sum   'Hf16 Pt8 N4'
_cell_volume   469.73269043
_cell_formula_units_Z   4
loop_
 _symmetry_equiv_pos_site_id
 _symmetry_equiv_pos_as_xyz
  1  'x, y, z'
loop_
 _atom_site_type_symbol
 _atom_site_label
 _atom_site_symmetry_multiplicity
 _atom_site_fract_x
 _atom_site_fract_y
 _atom_site_fract_z
 _atom_site_occupancy
  Hf  Hf0  1  0.12500000  0.62500000  0.62500000  1
  Hf  Hf1  1  0.62500000  0.12500000  0.62500000  1
  Hf  Hf2  1  0.62500000  0.62500000  0.12500000  1
  Hf  Hf3  1  0.62500000  0.62500000  0.62500000  1
  Hf  Hf4  1  0.81702957  0.81702957  0.18297043  1
  Hf  Hf5  1  0.18297043  0.18297043  0.81702957  1
  Hf  Hf6  1  0.81702957  0.18297043  0.81702957  1
  Hf  Hf7  1  0.18297043  0.81702957  0.18297043  1
  Hf  Hf8  1  0.18297043  0.81702957  0.81702957  1
  Hf  Hf9  1  0.81702957  0.18297043  0.18297043  1
  Hf  Hf10  1  0.43297043  0.43297043  0.06702957  1
  Hf  Hf11  1  0.06702957  0.06702957  0.43297043  1
  Hf  Hf12  1  0.43297043  0.06702957  0.43297043  1
  Hf  Hf13  1  0.06702957  0.43297043  0.06702957  1
  Hf  Hf14  1  0.06702957  0.43297043  0.43297043  1
  Hf  Hf15  1  0.43297043  0.06702957  0.06702957  1
  Pt  Pt0  1  0.78316679  0.40561107  0.40561107  1
  Pt  Pt1  1  0.40561107  0.78316679  0.40561107  1
  Pt  Pt2  1  0.40561107  0.40561107  0.78316679  1
  Pt  Pt3  1  0.40561107  0.40561107  0.40561107  1
  Pt  Pt4  1  0.46683321  0.84438893  0.84438893  1
  Pt  Pt5  1  0.84438893  0.46683321  0.84438893  1
  Pt  Pt6  1  0.84438893  0.84438893  0.46683321  1
  Pt  Pt7  1  0.84438893  0.84438893  0.84438893  1
  N  N0  1  0.62500000  0.12500000  0.12500000  1
  N  N1  1  0.12500000  0.62500000  0.12500000  1
  N  N2  1  0.12500000  0.12500000  0.62500000  1
  N  N3  1  0.12500000  0.12500000  0.12500000  1
loop_
_geom_bond_atom_site_label_1
_geom_bond_atom_site_label_2
_geom_bond_distance
_geom_bond_site_symmetry_2
Hf0 Pt7 2.759388 1_455
Hf0 Pt2 2.759388 1_555
Hf0 Pt3 2.759388 1_555
Hf0 Pt6 2.759388 1_455
Hf0 Pt1 2.759388 1_555
Hf0 Pt5 2.759388 1_455
Hf1 Pt7 2.759388 1_545
Hf1 Pt2 2.759388 1_555
Hf1 Pt3 2.759388 1_555
Hf1 Pt6 2.759388 1_545
Hf1 Pt0 2.759388 1_555
Hf1 Pt4 2.759388 1_545
Hf2 Pt0 2.759388 1_555
Hf2 Pt4 2.759388 1_554
Hf2 Pt1 2.759388 1_555
Hf2 Pt5 2.759388 1_554
Hf2 Pt7 2.759388 1_554
Hf2 Pt3 2.759388 1_555
Hf3 Pt4 2.759388 1_555
Hf3 Pt0 2.759388 1_555
Hf3 Pt5 2.759388 1_555
Hf3 Pt1 2.759388 1_555
Hf3 Pt6 2.759388 1_555
Hf3 Pt2 2.759388 1_555
Hf4 N0 2.295662 1_565
Hf4 N1 2.295662 1_655
Hf4 Pt6 2.736464 1_555
Hf4 Pt7 2.736464 1_554
Hf4 Pt0 3.203265 1_555
Hf4 Pt1 3.203266 1_555
Hf5 N2 2.295662 1_555
Hf5 N3 2.295662 1_556
Hf5 Pt4 2.736463 1_545
Hf5 Pt5 2.736464 1_455
Hf5 Pt3 3.203265 1_555
Hf5 Pt2 3.203265 1_555
Hf6 N0 2.295662 1_556
Hf6 N2 2.295662 1_655
Hf6 Pt7 2.736463 1_545
Hf6 Pt5 2.736463 1_555
Hf6 Pt0 3.203265 1_555
Hf6 Pt2 3.203266 1_555
Hf7 N3 2.295662 1_565
Hf7 N1 2.295662 1_555
Hf7 Pt4 2.736464 1_554
Hf7 Pt6 2.736464 1_455
Hf7 Pt3 3.203265 1_555
Hf7 Pt1 3.203265 1_555
Hf8 N2 2.295662 1_565
Hf8 N1 2.295662 1_556
Hf8 Pt4 2.736464 1_555
Hf8 Pt7 2.736464 1_455
Hf8 Pt2 3.203265 1_555
Hf8 Pt1 3.203265 1_555
Hf9 N0 2.295662 1_555
Hf9 N3 2.295662 1_655
Hf9 Pt6 2.736463 1_545
Hf9 Pt5 2.736463 1_554
Hf9 Pt0 3.203265 1_555
Hf9 Pt3 3.203266 1_555
Hf10 N0 2.295662 1_555
Hf10 N1 2.295662 1_555
Hf10 Pt2 2.736464 1_554
Hf10 Pt3 2.736464 1_555
Hf10 Pt4 3.203265 1_554
Hf10 Pt5 3.203266 1_554
Hf11 N2 2.295662 1_555
Hf11 N3 2.295662 1_555
Hf11 Pt0 2.736463 1_455
Hf11 Pt1 2.736464 1_545
Hf11 Pt7 3.203265 1_445
Hf11 Pt6 3.203265 1_445
Hf12 N0 2.295662 1_555
Hf12 N2 2.295662 1_555
Hf12 Pt3 2.736463 1_555
Hf12 Pt1 2.736463 1_545
Hf12 Pt4 3.203265 1_545
Hf12 Pt6 3.203266 1_545
Hf13 N3 2.295662 1_555
Hf13 N1 2.295662 1_555
Hf13 Pt0 2.736464 1_455
Hf13 Pt2 2.736464 1_554
Hf13 Pt7 3.203265 1_454
Hf13 Pt5 3.203265 1_454
Hf14 N2 2.295662 1_555
Hf14 N1 2.295662 1_555
Hf14 Pt0 2.736464 1_455
Hf14 Pt3 2.736464 1_555
Hf14 Pt6 3.203265 1_455
Hf14 Pt5 3.203265 1_455
Hf15 N0 2.295662 1_555
Hf15 N3 2.295662 1_555
Hf15 Pt2 2.736463 1_554
Hf15 Pt1 2.736463 1_545
Hf15 Pt4 3.203265 1_544
Hf15 Pt7 3.203266 1_544
