# generated using pymatgen
data_Ca3Ga2(SbP)2
_symmetry_space_group_name_H-M   'P 1'
_cell_length_a   8.44849893
_cell_length_b   8.44849827
_cell_length_c   6.70068809
_cell_angle_alpha   89.98612592
_cell_angle_beta   89.98612338
_cell_angle_gamma   75.67208909
_symmetry_Int_Tables_number   1
_chemical_formula_structural   Ca3Ga2(SbP)2
_chemical_formula_sum   'Ca6 Ga4 Sb4 P4'
_cell_volume   463.39922277
_cell_formula_units_Z   2
loop_
 _symmetry_equiv_pos_site_id
 _symmetry_equiv_pos_as_xyz
  1  'x, y, z'
loop_
 _atom_site_type_symbol
 _atom_site_label
 _atom_site_symmetry_multiplicity
 _atom_site_fract_x
 _atom_site_fract_y
 _atom_site_fract_z
 _atom_site_occupancy
  Ca  Ca0  1  0.99758223  0.26678178  0.00721686  1
  Ca  Ca1  1  0.73321822  0.00241777  0.49278314  1
  Ca  Ca2  1  0.00241777  0.73321822  0.99278314  1
  Ca  Ca3  1  0.26678178  0.99758223  0.50721686  1
  Ca  Ca4  1  0.58695036  0.41304964  0.75000000  1
  Ca  Ca5  1  0.41304964  0.58695036  0.25000000  1
  Ga  Ga0  1  0.19470365  0.40685494  0.60615486  1
  Ga  Ga1  1  0.59314506  0.80529635  0.89384514  1
  Ga  Ga2  1  0.80529635  0.59314506  0.39384514  1
  Ga  Ga3  1  0.40685494  0.19470365  0.10615486  1
  Sb  Sb0  1  0.93752579  0.28344034  0.50855661  1
  Sb  Sb1  1  0.71655966  0.06247421  0.99144339  1
  Sb  Sb2  1  0.06247421  0.71655966  0.49144339  1
  Sb  Sb3  1  0.28344034  0.93752579  0.00855661  1
  P  P0  1  0.26170765  0.43687437  0.94524728  1
  P  P1  1  0.56312563  0.73829235  0.55475272  1
  P  P2  1  0.73829235  0.56312563  0.05475272  1
  P  P3  1  0.43687437  0.26170765  0.44524728  1
loop_
_geom_bond_atom_site_label_1
_geom_bond_atom_site_label_2
_geom_bond_distance
_geom_bond_site_symmetry_2
Ca0 P2 2.907587 1_555
Ca0 P0 2.967032 1_654
Ca0 Sb3 3.200869 1_645
Ca0 Sb1 3.264356 1_554
Ca0 Sb0 3.377459 1_554
Ca0 Sb0 3.395048 1_555
Ca1 P3 2.907587 1_555
Ca1 P1 2.967032 1_545
Ca1 Sb2 3.200869 1_645
Ca1 Sb0 3.264356 1_555
Ca1 Sb1 3.377459 1_555
Ca1 Sb1 3.395048 1_554
Ca2 P0 2.907587 1_555
Ca2 P2 2.967032 1_456
Ca2 Sb1 3.200869 1_465
Ca2 Sb3 3.264356 1_556
Ca2 Sb2 3.377459 1_556
Ca2 Sb2 3.395048 1_555
Ca3 P1 2.907587 1_555
Ca3 P3 2.967032 1_565
Ca3 Sb0 3.200869 1_465
Ca3 Sb2 3.264356 1_555
Ca3 Sb3 3.377459 1_555
Ca3 Sb3 3.395048 1_556
Ca4 P3 2.866592 1_555
Ca4 P2 2.866592 1_556
Ca4 P1 3.004539 1_555
Ca4 P0 3.004539 1_555
Ca4 Sb1 3.313945 1_555
Ca4 Sb0 3.313945 1_555
Ca5 P1 2.866592 1_555
Ca5 P0 2.866592 1_554
Ca5 P3 3.004539 1_555
Ca5 P2 3.004539 1_555
Ca5 Sb3 3.313945 1_555
Ca5 Sb2 3.313945 1_555
Ga0 P3 2.368560 1_555
Ga0 P0 2.370530 1_555
Ga0 Sb2 2.690317 1_555
Ga0 Sb0 2.712573 1_455
Ga1 P2 2.368560 1_556
Ga1 P1 2.370530 1_555
Ga1 Sb3 2.690317 1_556
Ga1 Sb1 2.712573 1_565
Ga2 P1 2.368560 1_555
Ga2 P2 2.370530 1_555
Ga2 Sb0 2.690317 1_555
Ga2 Sb2 2.712573 1_655
Ga3 P0 2.368560 1_554
Ga3 P3 2.370530 1_555
Ga3 Sb1 2.690317 1_554
Ga3 Sb3 2.712573 1_545
