# generated using pymatgen
data_ZnIn2(Ni10B3)2
_symmetry_space_group_name_H-M   'P 1'
_cell_length_a   7.43343773
_cell_length_b   7.43343719
_cell_length_c   7.43343802
_cell_angle_alpha   60.00000063
_cell_angle_beta   60.00000308
_cell_angle_gamma   60.00000463
_symmetry_Int_Tables_number   1
_chemical_formula_structural   ZnIn2(Ni10B3)2
_chemical_formula_sum   'Zn1 In2 Ni20 B6'
_cell_volume   290.43846852
_cell_formula_units_Z   1
loop_
 _symmetry_equiv_pos_site_id
 _symmetry_equiv_pos_as_xyz
  1  'x, y, z'
loop_
 _atom_site_type_symbol
 _atom_site_label
 _atom_site_symmetry_multiplicity
 _atom_site_fract_x
 _atom_site_fract_y
 _atom_site_fract_z
 _atom_site_occupancy
  Zn  Zn0  1  0.00000000  0.00000000  0.00000000  1
  In  In0  1  0.25000000  0.25000000  0.25000000  1
  In  In1  1  0.75000000  0.75000000  0.75000000  1
  Ni  Ni0  1  0.38609635  0.38609635  0.38609635  1
  Ni  Ni1  1  0.38609635  0.38609635  0.84170994  1
  Ni  Ni2  1  0.84170994  0.38609635  0.38609635  1
  Ni  Ni3  1  0.38609635  0.84170994  0.38609635  1
  Ni  Ni4  1  0.61390365  0.61390365  0.61390365  1
  Ni  Ni5  1  0.61390365  0.61390365  0.15829006  1
  Ni  Ni6  1  0.61390365  0.15829006  0.61390365  1
  Ni  Ni7  1  0.15829006  0.61390365  0.61390365  1
  Ni  Ni8  1  0.33680689  1.00000000  0.00000000  1
  Ni  Ni9  1  1.00000000  0.33680689  0.66319311  1
  Ni  Ni10  1  0.66319311  0.00000000  1.00000000  1
  Ni  Ni11  1  0.00000000  0.66319311  0.33680689  1
  Ni  Ni12  1  1.00000000  0.33680689  0.00000000  1
  Ni  Ni13  1  1.00000000  1.00000000  0.33680689  1
  Ni  Ni14  1  0.33680689  1.00000000  0.66319311  1
  Ni  Ni15  1  0.33680689  0.66319311  1.00000000  1
  Ni  Ni16  1  0.66319311  0.00000000  0.33680689  1
  Ni  Ni17  1  0.00000000  0.00000000  0.66319311  1
  Ni  Ni18  1  0.00000000  0.66319311  1.00000000  1
  Ni  Ni19  1  0.66319311  0.33680689  0.00000000  1
  B  B0  1  0.72639705  0.27360295  0.72639705  1
  B  B1  1  0.27360295  0.27360295  0.72639705  1
  B  B2  1  0.27360295  0.72639705  0.27360295  1
  B  B3  1  0.27360295  0.72639705  0.72639705  1
  B  B4  1  0.72639705  0.27360295  0.27360295  1
  B  B5  1  0.72639705  0.72639705  0.27360295  1
loop_
_geom_bond_atom_site_label_1
_geom_bond_atom_site_label_2
_geom_bond_distance
_geom_bond_site_symmetry_2
In0 Ni0 2.478060 1_555
In0 Ni3 2.478066 1_545
In0 Ni1 2.478066 1_554
In0 Ni2 2.478066 1_455
In1 Ni4 2.478060 1_555
In1 Ni6 2.478066 1_565
In1 Ni5 2.478066 1_556
In1 Ni7 2.478066 1_655
Ni8 Zn0 2.503633 1_565
Ni9 Zn0 2.503633 1_656
Ni10 Zn0 2.503633 1_656
Ni11 Zn0 2.503633 1_565
Ni12 Zn0 2.503633 1_655
Ni13 Zn0 2.503633 1_665
Ni14 Zn0 2.503633 1_566
Ni15 Zn0 2.503633 1_566
Ni16 Zn0 2.503633 1_655
Ni17 Zn0 2.503633 1_556
Ni18 Zn0 2.503633 1_566
Ni19 Zn0 2.503633 1_655
B0 Ni6 2.065442 1_555
B0 Ni4 2.065448 1_555
B0 Ni2 2.065449 1_555
B0 Ni1 2.065449 1_555
B0 Ni10 2.087371 1_555
B0 Ni9 2.087371 1_555
B0 Ni17 2.087371 1_655
B0 Ni19 2.087371 1_556
B1 Ni1 2.065442 1_555
B1 Ni7 2.065448 1_555
B1 Ni6 2.065449 1_555
B1 Ni0 2.065449 1_555
B1 Ni14 2.087371 1_545
B1 Ni8 2.087371 1_546
B1 Ni9 2.087371 1_455
B1 Ni12 2.087371 1_456
B2 Ni3 2.065442 1_555
B2 Ni0 2.065448 1_555
B2 Ni7 2.065449 1_555
B2 Ni5 2.065449 1_555
B2 Ni8 2.087371 1_555
B2 Ni11 2.087371 1_555
B2 Ni13 2.087371 1_455
B2 Ni15 2.087371 1_554
B3 Ni7 2.065442 1_555
B3 Ni1 2.065448 1_555
B3 Ni3 2.065449 1_555
B3 Ni4 2.065449 1_555
B3 Ni14 2.087371 1_555
B3 Ni17 2.087371 1_565
B3 Ni15 2.087371 1_555
B3 Ni18 2.087371 1_555
B4 Ni2 2.065442 1_555
B4 Ni5 2.065448 1_555
B4 Ni6 2.065449 1_555
B4 Ni0 2.065449 1_555
B4 Ni16 2.087371 1_555
B4 Ni13 2.087371 1_545
B4 Ni19 2.087371 1_555
B4 Ni12 2.087371 1_555
B5 Ni5 2.065442 1_555
B5 Ni2 2.065448 1_555
B5 Ni3 2.065449 1_555
B5 Ni4 2.065449 1_555
B5 Ni16 2.087371 1_565
B5 Ni10 2.087371 1_564
B5 Ni11 2.087371 1_655
B5 Ni18 2.087371 1_654
