# generated using pymatgen
data_Ca2Y3Pb3Cl
_symmetry_space_group_name_H-M   'P 1'
_cell_length_a   9.14274943
_cell_length_b   9.13177741
_cell_length_c   6.94022260
_cell_angle_alpha   90.00000000
_cell_angle_beta   90.00000000
_cell_angle_gamma   120.03975038
_symmetry_Int_Tables_number   1
_chemical_formula_structural   Ca2Y3Pb3Cl
_chemical_formula_sum   'Ca4 Y6 Pb6 Cl2'
_cell_volume   501.60524630
_cell_formula_units_Z   2
loop_
 _symmetry_equiv_pos_site_id
 _symmetry_equiv_pos_as_xyz
  1  'x, y, z'
loop_
 _atom_site_type_symbol
 _atom_site_label
 _atom_site_symmetry_multiplicity
 _atom_site_fract_x
 _atom_site_fract_y
 _atom_site_fract_z
 _atom_site_occupancy
  Ca  Ca0  1  0.99815104  0.25411232  0.25000000  1
  Ca  Ca1  1  0.00184896  0.74588768  0.75000000  1
  Ca  Ca2  1  0.74403872  0.74588768  0.25000000  1
  Ca  Ca3  1  0.25596128  0.25411232  0.75000000  1
  Y  Y0  1  0.25444272  0.00000000  0.25000000  1
  Y  Y1  1  0.74555728  1.00000000  0.75000000  1
  Y  Y2  1  0.33241298  0.66482596  0.00000000  1
  Y  Y3  1  0.66758702  0.33517404  0.00000000  1
  Y  Y4  1  0.66758702  0.33517404  0.50000000  1
  Y  Y5  1  0.33241298  0.66482596  0.50000000  1
  Pb  Pb0  1  0.60081849  1.00000000  0.25000000  1
  Pb  Pb1  1  0.39918151  0.00000000  0.75000000  1
  Pb  Pb2  1  0.00377413  0.60870735  0.25000000  1
  Pb  Pb3  1  0.99622587  0.39129265  0.75000000  1
  Pb  Pb4  1  0.39506679  0.39129265  0.25000000  1
  Pb  Pb5  1  0.60493321  0.60870735  0.75000000  1
  Cl  Cl0  1  0.00000000  0.00000000  0.00000000  1
  Cl  Cl1  1  0.00000000  0.00000000  0.50000000  1
loop_
_geom_bond_atom_site_label_1
_geom_bond_atom_site_label_2
_geom_bond_distance
_geom_bond_site_symmetry_2
Ca0 Cl0 2.904253 1_655
Ca0 Cl1 2.904253 1_655
Ca0 Pb0 3.184569 1_545
Ca0 Pb4 3.191676 1_655
Ca0 Pb2 3.212655 1_655
Ca0 Pb3 3.692332 1_554
Ca0 Pb3 3.692332 1_555
Ca1 Cl0 2.904253 1_566
Ca1 Cl1 2.904253 1_565
Ca1 Pb1 3.184569 1_565
Ca1 Pb5 3.191676 1_455
Ca1 Pb3 3.212655 1_455
Ca1 Pb2 3.692332 1_556
Ca1 Pb2 3.692332 1_555
Ca2 Cl0 2.904253 1_665
Ca2 Cl1 2.904253 1_665
Ca2 Pb0 3.184568 1_555
Ca2 Pb2 3.191676 1_655
Ca2 Pb4 3.212655 1_555
Ca2 Pb5 3.692332 1_555
Ca2 Pb5 3.692332 1_554
Ca3 Cl0 2.904253 1_556
Ca3 Cl1 2.904253 1_555
Ca3 Pb1 3.184568 1_555
Ca3 Pb3 3.191676 1_455
Ca3 Pb5 3.212655 1_555
Ca3 Pb4 3.692332 1_556
Ca3 Pb4 3.692332 1_555
Pb0 Y0 3.166827 1_565
Pb0 Y4 3.298560 1_565
Pb0 Y3 3.298560 1_565
Pb0 Y5 3.298560 1_555
Pb0 Y2 3.298560 1_555
Pb0 Y1 3.713869 1_555
Pb0 Y1 3.713869 1_554
Pb1 Y1 3.166827 1_545
Pb1 Y2 3.298560 1_546
Pb1 Y5 3.298560 1_545
Pb1 Y4 3.298560 1_555
Pb1 Y3 3.298560 1_556
Pb1 Y0 3.713869 1_556
Pb1 Y0 3.713869 1_555
Pb2 Y0 3.133879 1_565
Pb2 Y2 3.280153 1_555
Pb2 Y5 3.280153 1_555
Pb2 Y3 3.318183 1_455
Pb2 Y4 3.318183 1_455
Pb3 Y1 3.133879 1_545
Pb3 Y4 3.280153 1_555
Pb3 Y3 3.280153 1_556
Pb3 Y2 3.318183 1_656
Pb3 Y5 3.318183 1_655
Pb4 Y0 3.133878 1_555
Pb4 Y3 3.280153 1_555
Pb4 Y4 3.280153 1_555
Pb4 Y5 3.318183 1_555
Pb4 Y2 3.318183 1_555
Pb5 Y1 3.133878 1_555
Pb5 Y5 3.280153 1_555
Pb5 Y2 3.280153 1_556
Pb5 Y4 3.318183 1_555
Pb5 Y3 3.318183 1_556
Cl0 Y0 2.902089 1_555
Cl0 Y1 2.902089 1_444
Cl1 Y0 2.902089 1_555
Cl1 Y1 2.902089 1_445
