# generated using pymatgen
data_V(Ga4Ir)3
_symmetry_space_group_name_H-M   'P 1'
_cell_length_a   6.48357963
_cell_length_b   6.48357963
_cell_length_c   6.78515843
_cell_angle_alpha   90.00000000
_cell_angle_beta   90.00000000
_cell_angle_gamma   90.04247520
_symmetry_Int_Tables_number   1
_chemical_formula_structural   V(Ga4Ir)3
_chemical_formula_sum   'V1 Ga12 Ir3'
_cell_volume   285.22630270
_cell_formula_units_Z   1
loop_
 _symmetry_equiv_pos_site_id
 _symmetry_equiv_pos_as_xyz
  1  'x, y, z'
loop_
 _atom_site_type_symbol
 _atom_site_label
 _atom_site_symmetry_multiplicity
 _atom_site_fract_x
 _atom_site_fract_y
 _atom_site_fract_z
 _atom_site_occupancy
  V  V0  1  0.15556540  0.84443460  0.50000000  1
  Ga  Ga0  1  0.00667075  0.50637885  0.50000000  1
  Ga  Ga1  1  0.49795289  0.99794956  0.00000000  1
  Ga  Ga2  1  0.49362115  0.99332925  0.50000000  1
  Ga  Ga3  1  0.00205044  0.50204711  0.00000000  1
  Ga  Ga4  1  0.34463651  0.65536349  0.24591092  1
  Ga  Ga5  1  0.64930519  0.35069481  0.23611810  1
  Ga  Ga6  1  0.16238614  0.14781058  0.72886162  1
  Ga  Ga7  1  0.85218942  0.83761386  0.72886162  1
  Ga  Ga8  1  0.64930519  0.35069481  0.76388190  1
  Ga  Ga9  1  0.34463651  0.65536349  0.75408908  1
  Ga  Ga10  1  0.85218942  0.83761386  0.27113838  1
  Ga  Ga11  1  0.16238614  0.14781058  0.27113838  1
  Ir  Ir0  1  0.82901912  0.17098088  0.50000000  1
  Ir  Ir1  1  0.33821231  0.34012759  0.00000000  1
  Ir  Ir2  1  0.65987241  0.66178769  0.00000000  1
loop_
_geom_bond_atom_site_label_1
_geom_bond_atom_site_label_2
_geom_bond_distance
_geom_bond_site_symmetry_2
Ga0 V0 2.394335 1_555
Ga0 Ir0 2.460034 1_455
Ga1 Ir2 2.419891 1_555
Ga1 Ir1 2.449076 1_565
Ga2 V0 2.394335 1_555
Ga2 Ir0 2.460034 1_565
Ga3 Ir1 2.419891 1_555
Ga3 Ir2 2.449076 1_455
Ga4 V0 2.445399 1_555
Ga4 Ir1 2.638750 1_555
Ga4 Ir2 2.638750 1_555
Ga5 Ir0 2.433756 1_555
Ga5 Ir1 2.576719 1_555
Ga5 Ir2 2.576719 1_555
Ga6 Ir1 2.497354 1_556
Ga6 V0 2.506422 1_545
Ga6 Ir0 2.665733 1_455
Ga7 Ir2 2.497354 1_556
Ga7 V0 2.506422 1_655
Ga7 Ir0 2.665733 1_565
Ga8 Ir0 2.433756 1_555
Ga8 Ir1 2.576719 1_556
Ga8 Ir2 2.576719 1_556
Ga9 V0 2.445399 1_555
Ga9 Ir1 2.638750 1_556
Ga9 Ir2 2.638750 1_556
Ga10 Ir2 2.497354 1_555
Ga10 V0 2.506422 1_655
Ga10 Ir0 2.665733 1_565
Ga11 Ir1 2.497354 1_555
Ga11 V0 2.506422 1_545
Ga11 Ir0 2.665733 1_455
