# generated using pymatgen
data_Y4Si10OsPt5
_symmetry_space_group_name_H-M   'P 1'
_cell_length_a   8.13258969
_cell_length_b   8.13259072
_cell_length_c   8.13258967
_cell_angle_alpha   137.40930837
_cell_angle_beta   103.96001821
_cell_angle_gamma   91.29202838
_symmetry_Int_Tables_number   1
_chemical_formula_structural   Y4Si10OsPt5
_chemical_formula_sum   'Y4 Si10 Os1 Pt5'
_cell_volume   336.45869394
_cell_formula_units_Z   1
loop_
 _symmetry_equiv_pos_site_id
 _symmetry_equiv_pos_as_xyz
  1  'x, y, z'
loop_
 _atom_site_type_symbol
 _atom_site_label
 _atom_site_symmetry_multiplicity
 _atom_site_fract_x
 _atom_site_fract_y
 _atom_site_fract_z
 _atom_site_occupancy
  Y  Y0  1  0.86053770  0.63127492  0.23155235  1
  Y  Y1  1  0.13946230  0.37101565  0.77073721  1
  Y  Y2  1  0.39972156  0.12898435  0.26844765  1
  Y  Y3  1  0.60027844  0.86872508  0.72926279  1
  Si  Si0  1  0.50000000  0.75000000  0.25000000  1
  Si  Si1  1  0.50000000  0.25000000  0.75000000  1
  Si  Si2  1  0.22505633  0.97505633  0.75000000  1
  Si  Si3  1  0.77494367  0.52494367  0.75000000  1
  Si  Si4  1  0.77089755  0.02089755  0.25000000  1
  Si  Si5  1  0.22910245  0.47910245  0.25000000  1
  Si  Si6  1  0.04246325  0.88578928  0.14585873  1
  Si  Si7  1  0.95753675  0.10339547  0.84332603  1
  Si  Si8  1  0.73992955  0.39660453  0.35414127  1
  Si  Si9  1  0.26007045  0.61421072  0.65667397  1
  Os  Os0  1  0.00000000  0.75000000  0.75000000  1
  Pt  Pt0  1  0.00000000  0.25000000  0.25000000  1
  Pt  Pt1  1  0.24752775  0.86459110  0.38720539  1
  Pt  Pt2  1  0.75247225  0.13967664  0.61706236  1
  Pt  Pt3  1  0.47738671  0.36032336  0.11279461  1
  Pt  Pt4  1  0.52261329  0.63540890  0.88293764  1
loop_
_geom_bond_atom_site_label_1
_geom_bond_atom_site_label_2
_geom_bond_distance
_geom_bond_site_symmetry_2
Si0 Y2 3.111047 1_565
Si0 Y3 3.111052 1_555
Si0 Y1 3.111052 1_554
Si0 Y0 3.111052 1_555
Si1 Y2 3.117460 1_555
Si1 Y0 3.117466 1_556
Si1 Y1 3.117468 1_555
Si1 Y3 3.117469 1_545
Si2 Si7 2.476185 1_465
Si2 Si9 2.476187 1_555
Si2 Y3 3.200097 1_555
Si2 Y1 3.200098 1_565
Si2 Y0 3.258939 1_455
Si2 Y2 3.258943 1_566
Si3 Si8 2.476183 1_555
Si3 Si6 2.476185 1_656
Si3 Y0 3.200089 1_556
Si3 Y2 3.200095 1_555
Si3 Y1 3.258935 1_655
Si3 Y3 3.258936 1_555
Si4 Si6 2.538491 1_645
Si4 Si8 2.538493 1_555
Si4 Y0 3.170367 1_545
Si4 Y2 3.170373 1_555
Si4 Y1 3.280558 1_655
Si4 Y3 3.280558 1_544
Si5 Si9 2.538489 1_555
Si5 Si7 2.538491 1_454
Si5 Y1 3.170372 1_554
Si5 Y3 3.170372 1_555
Si5 Y0 3.280559 1_455
Si5 Y2 3.280563 1_555
Si6 Y2 2.964316 1_565
Si6 Y0 3.072844 1_455
Si6 Y1 3.156007 1_554
Si6 Y1 3.227645 1_565
Si7 Y3 2.964319 1_545
Si7 Y1 3.072850 1_655
Si7 Y0 3.156012 1_545
Si7 Y0 3.227645 1_556
Si8 Y0 2.964330 1_555
Si8 Y2 3.072848 1_555
Si8 Y3 3.156002 1_555
Si8 Y3 3.227646 1_544
Si9 Y1 2.964322 1_555
Si9 Y3 3.072843 1_555
Si9 Y2 3.156011 1_566
Si9 Y2 3.227639 1_555
Os0 Si6 2.432016 1_556
Os0 Si7 2.432017 1_465
Os0 Si8 2.432021 1_455
Os0 Si9 2.432024 1_555
Os0 Si2 2.559074 1_555
Os0 Si3 2.559074 1_455
Os0 Y3 3.412480 1_455
Os0 Y1 3.412481 1_555
Os0 Y2 3.412483 1_566
Os0 Y0 3.412488 1_455
Pt0 Si7 2.470505 1_454
Pt0 Si6 2.470506 1_545
Pt0 Si9 2.470510 1_555
Pt0 Si8 2.470513 1_455
Pt0 Si5 2.605081 1_555
Pt0 Si4 2.605081 1_455
Pt0 Y3 3.418331 1_444
Pt0 Y1 3.418331 1_555
Pt0 Y2 3.418331 1_555
Pt0 Y0 3.418336 1_455
Pt1 Si6 2.365436 1_555
Pt1 Si5 2.417290 1_555
Pt1 Si2 2.431143 1_555
Pt1 Si1 2.432188 1_565
Pt1 Si0 2.447450 1_555
Pt1 Y0 3.062627 1_455
Pt1 Y1 3.167738 1_565
Pt1 Y1 3.178614 1_554
Pt1 Y2 3.256166 1_565
Pt1 Y3 3.460777 1_555
Pt2 Si7 2.365436 1_555
Pt2 Si4 2.417286 1_555
Pt2 Si3 2.431147 1_555
Pt2 Si1 2.432191 1_555
Pt2 Si0 2.447447 1_545
Pt2 Y1 3.062630 1_655
Pt2 Y0 3.167738 1_556
Pt2 Y0 3.178610 1_545
Pt2 Y3 3.256173 1_545
Pt2 Y2 3.460772 1_555
Pt3 Si8 2.365429 1_555
Pt3 Si5 2.417297 1_555
Pt3 Si2 2.431151 1_544
Pt3 Si1 2.432180 1_554
Pt3 Si0 2.447443 1_555
Pt3 Y2 3.062647 1_555
Pt3 Y3 3.167738 1_544
Pt3 Y3 3.178614 1_555
Pt3 Y0 3.256166 1_555
Pt3 Y1 3.460776 1_554
Pt4 Si9 2.365428 1_555
Pt4 Si4 2.417293 1_566
Pt4 Si3 2.431154 1_555
Pt4 Si1 2.432184 1_555
Pt4 Si0 2.447439 1_556
Pt4 Y3 3.062640 1_555
Pt4 Y2 3.167738 1_555
Pt4 Y2 3.178610 1_566
Pt4 Y1 3.256163 1_555
Pt4 Y0 3.460771 1_556
