# generated using pymatgen
data_UP2O7
_symmetry_space_group_name_H-M   'P 1'
_cell_length_a   7.11779200
_cell_length_b   11.69727700
_cell_length_c   12.97033600
_cell_angle_alpha   90.00000000
_cell_angle_beta   90.00000000
_cell_angle_gamma   90.00000000
_symmetry_Int_Tables_number   1
_chemical_formula_structural   UP2O7
_chemical_formula_sum   'U8 P16 O56'
_cell_volume   1079.89441189
_cell_formula_units_Z   8
loop_
 _symmetry_equiv_pos_site_id
 _symmetry_equiv_pos_as_xyz
  1  'x, y, z'
loop_
 _atom_site_type_symbol
 _atom_site_label
 _atom_site_symmetry_multiplicity
 _atom_site_fract_x
 _atom_site_fract_y
 _atom_site_fract_z
 _atom_site_occupancy
  U  U0  1  0.70973000  0.35933900  0.81282800  1
  U  U1  1  0.20973000  0.64066100  0.18717200  1
  U  U2  1  0.20973000  0.14066100  0.31282800  1
  U  U3  1  0.70973000  0.85933900  0.68717200  1
  U  U4  1  0.20780500  0.97471200  0.82737800  1
  U  U5  1  0.70780500  0.02528800  0.17262200  1
  U  U6  1  0.70780500  0.52528800  0.32737800  1
  U  U7  1  0.20780500  0.47471200  0.67262200  1
  P  P0  1  0.66610400  0.16474800  0.59549000  1
  P  P1  1  0.16610400  0.83525200  0.40451000  1
  P  P2  1  0.16610400  0.33525200  0.09549000  1
  P  P3  1  0.66610400  0.66474800  0.90451000  1
  P  P4  1  0.73613000  0.33128100  0.09220600  1
  P  P5  1  0.23613000  0.66871900  0.90779400  1
  P  P6  1  0.23613000  0.16871900  0.59220600  1
  P  P7  1  0.73613000  0.83128100  0.40779400  1
  P  P8  1  0.21461800  0.79288000  0.62849100  1
  P  P9  1  0.71461800  0.20712000  0.37150900  1
  P  P10  1  0.71461800  0.70712000  0.12849100  1
  P  P11  1  0.21461800  0.29288000  0.87150900  1
  P  P12  1  0.70870400  0.54622200  0.61682900  1
  P  P13  1  0.20870400  0.45377800  0.38317100  1
  P  P14  1  0.20870400  0.95377800  0.11682900  1
  P  P15  1  0.70870400  0.04622200  0.88317100  1
  O  O0  1  0.45680900  0.19058200  0.56559300  1
  O  O1  1  0.95680900  0.80941800  0.43440700  1
  O  O2  1  0.95680900  0.30941800  0.06559300  1
  O  O3  1  0.45680900  0.69058200  0.93440700  1
  O  O4  1  0.76331500  0.16087300  0.48503000  1
  O  O5  1  0.26331500  0.83912700  0.51497000  1
  O  O6  1  0.26331500  0.33912700  0.98503000  1
  O  O7  1  0.76331500  0.66087300  0.01497000  1
  O  O8  1  0.69229400  0.04884500  0.64297700  1
  O  O9  1  0.19229400  0.95115500  0.35702300  1
  O  O10  1  0.19229400  0.45115500  0.14297700  1
  O  O11  1  0.69229400  0.54884500  0.85702300  1
  O  O12  1  0.74138700  0.26356200  0.65739100  1
  O  O13  1  0.24138700  0.73643800  0.34260900  1
  O  O14  1  0.24138700  0.23643800  0.15739100  1
  O  O15  1  0.74138700  0.76356200  0.84260900  1
  O  O16  1  0.65917000  0.36791100  0.98774800  1
  O  O17  1  0.15917000  0.63208900  0.01225200  1
  O  O18  1  0.15917000  0.13208900  0.48774800  1
  O  O19  1  0.72501900  0.42465300  0.17424400  1
  O  O20  1  0.65917000  0.86791100  0.51225200  1
  O  O21  1  0.16528900  0.78440000  0.87070100  1
  O  O22  1  0.16528900  0.28440000  0.62929900  1
  O  O23  1  0.66528900  0.71560000  0.37070100  1
  O  O24  1  0.88057200  0.98855200  0.82718000  1
  O  O25  1  0.38057200  0.01144800  0.17282000  1
  O  O26  1  0.38057200  0.51144800  0.32718000  1
  O  O27  1  0.88057200  0.48855200  0.67282000  1
  O  O28  1  0.53246000  0.98445000  0.83584100  1
  O  O29  1  0.03246000  0.01555000  0.16415900  1
  O  O30  1  0.03246000  0.51555000  0.33584100  1
  O  O31  1  0.53246000  0.48445000  0.66415900  1
  O  O32  1  0.71863900  0.02634400  0.99948900  1
  O  O33  1  0.21863900  0.97365600  0.00051100  1
  O  O34  1  0.21863900  0.47365600  0.49948900  1
  O  O35  1  0.71863900  0.52634400  0.50051100  1
  O  O36  1  0.70246200  0.17471400  0.85820700  1
  O  O37  1  0.20246200  0.82528600  0.14179300  1
  O  O38  1  0.20246200  0.32528600  0.35820700  1
  O  O39  1  0.70246200  0.67471400  0.64179300  1
  O  O40  1  0.03228100  0.35163600  0.83457000  1
  O  O41  1  0.53228100  0.64836400  0.16543000  1
  O  O42  1  0.53228100  0.14836400  0.33457000  1
  O  O43  1  0.03228100  0.85163600  0.66543000  1
  O  O44  1  0.20332900  0.16436100  0.87539200  1
  O  O45  1  0.70332900  0.83563900  0.12460800  1
  O  O46  1  0.70332900  0.33563900  0.37539200  1
  O  O47  1  0.20332900  0.66436100  0.62460800  1
  O  O48  1  0.37788300  0.34121200  0.80577500  1
  O  O49  1  0.87788300  0.65878800  0.19422500  1
  O  O50  1  0.87788300  0.15878800  0.30577500  1
  O  O51  1  0.37788300  0.84121200  0.69422500  1
  O  O52  1  0.72501900  0.92465300  0.32575600  1
  O  O53  1  0.22501900  0.07534700  0.67424400  1
  O  O54  1  0.22501900  0.57534700  0.82575600  1
  O  O55  1  0.66528900  0.21560000  0.12929900  1
loop_
_geom_bond_atom_site_label_1
_geom_bond_atom_site_label_2
_geom_bond_distance
_geom_bond_site_symmetry_2
O0 P0 1.568740 1_555
O0 P6 1.628434 1_555
O1 P1 1.568740 1_655
O1 P7 1.628434 1_555
O2 P2 1.568740 1_655
O2 P4 1.628434 1_555
O3 P3 1.568740 1_555
O3 P5 1.628434 1_555
O4 P0 1.591684 1_555
O4 P9 1.606475 1_555
O5 P1 1.591684 1_555
O5 P8 1.606475 1_555
O6 P2 1.591684 1_556
O6 P11 1.606475 1_555
O7 P3 1.591684 1_554
O7 P10 1.606475 1_555
O8 P0 1.500722 1_555
O8 U3 2.292982 1_545
O9 P1 1.500722 1_555
O9 U2 2.292982 1_565
O10 P2 1.500722 1_555
O10 U1 2.292982 1_555
O11 P3 1.500722 1_555
O11 U0 2.292982 1_555
O12 P0 1.505903 1_555
O12 U0 2.317423 1_555
O13 P1 1.505903 1_555
O13 U1 2.317423 1_555
O14 P2 1.505903 1_555
O14 U2 2.317423 1_555
O15 P3 1.505903 1_555
O15 U3 2.317423 1_555
O16 P4 1.522921 1_556
O16 U0 2.299323 1_555
O17 P5 1.522921 1_554
O17 U1 2.299323 1_555
O18 P6 1.522921 1_555
O18 U2 2.299323 1_555
O19 P4 1.526884 1_555
O19 U6 2.312076 1_555
O20 P7 1.522921 1_555
O20 U3 2.299323 1_555
O21 P5 1.522083 1_555
O21 U4 2.315813 1_555
O22 P6 1.522083 1_555
O22 U7 2.315813 1_555
O23 P7 1.522083 1_555
O23 U6 2.315813 1_555
O24 P15 1.574475 1_565
O24 U4 2.334797 1_655
O24 U3 2.657222 1_555
O25 P14 1.574475 1_545
O25 U5 2.334797 1_555
O25 U2 2.657222 1_555
O26 P13 1.574475 1_555
O26 U6 2.334797 1_555
O26 U1 2.657222 1_555
O27 P12 1.574475 1_555
O27 U7 2.334797 1_655
O27 U0 2.657222 1_555
O28 P15 1.572465 1_565
O28 U4 2.316235 1_555
O28 U3 2.729847 1_555
O29 P14 1.572465 1_545
O29 U5 2.316235 1_455
O29 U2 2.729847 1_555
O30 P13 1.572465 1_555
O30 U6 2.316235 1_455
O30 U1 2.729847 1_555
O31 P12 1.572465 1_555
O31 U7 2.316235 1_555
O31 U0 2.729847 1_555
O32 P15 1.528133 1_555
O32 U5 2.246951 1_556
O33 P14 1.528133 1_555
O33 U4 2.246951 1_554
O34 P13 1.528133 1_555
O34 U7 2.246951 1_555
O35 P12 1.528133 1_555
O35 U6 2.246951 1_555
O36 P15 1.538130 1_555
O36 U0 2.238977 1_555
O37 P14 1.538130 1_555
O37 U1 2.238977 1_555
O38 P13 1.538130 1_555
O38 U2 2.238977 1_555
O39 P12 1.538130 1_555
O39 U3 2.238977 1_555
O40 P11 1.544762 1_555
O40 U0 2.314860 1_455
O40 U7 2.836485 1_555
O41 P10 1.544762 1_555
O41 U1 2.314860 1_555
O41 U6 2.836485 1_555
O42 P9 1.544762 1_555
O42 U2 2.314860 1_555
O42 U5 2.836485 1_555
O43 P8 1.544762 1_555
O43 U3 2.314860 1_455
O43 U4 2.836485 1_555
O44 P11 1.506310 1_555
O44 U4 2.304352 1_545
O45 P10 1.506310 1_555
O45 U5 2.304352 1_565
O46 P9 1.506310 1_555
O46 U6 2.304352 1_555
O47 P8 1.506310 1_555
O47 U7 2.304352 1_555
O48 P11 1.548219 1_555
O48 U0 2.373280 1_555
O48 U7 2.624256 1_555
O49 P10 1.548219 1_555
O49 U1 2.373280 1_655
O49 U6 2.624256 1_555
O50 P9 1.548219 1_555
O50 U2 2.373280 1_655
O50 U5 2.624256 1_555
O51 P8 1.548219 1_555
O51 U3 2.373280 1_555
O51 U4 2.624256 1_555
O52 P7 1.526884 1_555
O52 U5 2.312076 1_565
O53 P6 1.526884 1_555
O53 U4 2.312076 1_545
O54 P5 1.526884 1_555
O54 U7 2.312076 1_555
O55 P4 1.522083 1_555
O55 U5 2.315813 1_555
