# generated using pymatgen
data_Ti13Ga9FeRh7
_symmetry_space_group_name_H-M   'P 1'
_cell_length_a   8.65655200
_cell_length_b   8.65655199
_cell_length_c   8.65655247
_cell_angle_alpha   59.81391807
_cell_angle_beta   59.81391951
_cell_angle_gamma   59.81393011
_symmetry_Int_Tables_number   1
_chemical_formula_structural   Ti13Ga9FeRh7
_chemical_formula_sum   'Ti13 Ga9 Fe1 Rh7'
_cell_volume   456.75321643
_cell_formula_units_Z   1
loop_
 _symmetry_equiv_pos_site_id
 _symmetry_equiv_pos_as_xyz
  1  'x, y, z'
loop_
 _atom_site_type_symbol
 _atom_site_label
 _atom_site_symmetry_multiplicity
 _atom_site_fract_x
 _atom_site_fract_y
 _atom_site_fract_z
 _atom_site_occupancy
  Ti  Ti0  1  0.20691999  0.20691999  0.79245341  1
  Ti  Ti1  1  0.79245341  0.20691999  0.20691999  1
  Ti  Ti2  1  0.20691999  0.79245341  0.20691999  1
  Ti  Ti3  1  0.80326464  0.80326464  0.17741319  1
  Ti  Ti4  1  0.17741319  0.80326464  0.80326464  1
  Ti  Ti5  1  0.80326464  0.17741319  0.80326464  1
  Ti  Ti6  1  0.37636733  0.37636733  0.37636733  1
  Ti  Ti7  1  0.37765814  0.87110842  0.37765814  1
  Ti  Ti8  1  0.87110842  0.37765814  0.37765814  1
  Ti  Ti9  1  0.37765814  0.37765814  0.87110842  1
  Ti  Ti10  1  0.84236252  0.47919841  0.84236252  1
  Ti  Ti11  1  0.47919841  0.84236252  0.84236252  1
  Ti  Ti12  1  0.84236252  0.84236252  0.47919841  1
  Ga  Ga0  1  0.14922501  0.14922501  0.14922501  1
  Ga  Ga1  1  0.15463492  0.54137391  0.15463492  1
  Ga  Ga2  1  0.54137391  0.15463492  0.15463492  1
  Ga  Ga3  1  0.15463492  0.15463492  0.54137391  1
  Ga  Ga4  1  0.62024295  0.62024295  0.62024295  1
  Ga  Ga5  1  0.61776320  0.14619620  0.61776320  1
  Ga  Ga6  1  0.14619620  0.61776320  0.61776320  1
  Ga  Ga7  1  0.61776320  0.61776320  0.14619620  1
  Ga  Ga8  1  0.82797934  0.82797934  0.82797934  1
  Fe  Fe0  1  0.00368418  0.00368418  0.00368418  1
  Rh  Rh0  1  0.00501305  0.00501305  0.49641789  1
  Rh  Rh1  1  0.49641789  0.00501305  0.00501305  1
  Rh  Rh2  1  0.00501305  0.49641789  0.00501305  1
  Rh  Rh3  1  0.49952421  0.49952421  0.00206353  1
  Rh  Rh4  1  0.00206353  0.49952421  0.49952421  1
  Rh  Rh5  1  0.49952421  0.00206353  0.49952421  1
  Rh  Rh6  1  0.50199587  0.50199587  0.50199587  1
loop_
_geom_bond_atom_site_label_1
_geom_bond_atom_site_label_2
_geom_bond_distance
_geom_bond_site_symmetry_2
Ti0 Ti11 2.806088 1_545
Ti0 Ti10 2.806088 1_455
Ti0 Ti6 2.968887 1_555
Ti0 Ti9 3.008880 1_555
Ti1 Ti10 2.806088 1_554
Ti1 Ti12 2.806088 1_545
Ti1 Ti6 2.968887 1_555
Ti1 Ti8 3.008880 1_555
Ti2 Ti6 2.968887 1_555
Ti2 Ti7 3.008880 1_555
Ti3 Ti8 3.057637 1_555
Ti3 Ti7 3.057637 1_555
Ti4 Ti7 3.057637 1_555
Ti4 Ti9 3.057637 1_555
Ti5 Ti8 3.057637 1_555
Ti5 Ti9 3.057637 1_555
Ti10 Ti5 2.991209 1_555
Ti11 Ti2 2.806088 1_556
Ti11 Ti4 2.991209 1_555
Ti12 Ti2 2.806088 1_655
Ti12 Ti3 2.991209 1_555
Ga0 Rh0 2.484137 1_555
Ga0 Rh2 2.484137 1_555
Ga0 Rh1 2.484137 1_555
Ga0 Ti2 2.680620 1_545
Ga0 Ti1 2.680620 1_455
Ga0 Ti0 2.680620 1_554
Ga0 Ti9 2.823828 1_554
Ga0 Ti7 2.823828 1_545
Ga0 Ti8 2.823828 1_455
Ga1 Rh2 2.491454 1_555
Ga1 Rh3 2.493454 1_555
Ga1 Rh4 2.493454 1_555
Ga1 Ti2 2.705230 1_555
Ga1 Ti4 2.709643 1_554
Ga1 Ti3 2.709643 1_455
Ga1 Ti6 2.756720 1_555
Ga1 Ti8 2.782272 1_455
Ga1 Ti9 2.782272 1_554
Ga2 Rh1 2.491454 1_555
Ga2 Rh3 2.493454 1_555
Ga2 Rh5 2.493454 1_555
Ga2 Ti1 2.705230 1_555
Ga2 Ti5 2.709643 1_554
Ga2 Ti3 2.709643 1_545
Ga2 Ti6 2.756720 1_555
Ga2 Ti7 2.782272 1_545
Ga2 Ti9 2.782272 1_554
Ga3 Rh0 2.491454 1_555
Ga3 Rh4 2.493454 1_555
Ga3 Rh5 2.493454 1_555
Ga3 Ti0 2.705231 1_555
Ga3 Ti4 2.709643 1_545
Ga3 Ti5 2.709643 1_455
Ga3 Ti6 2.756720 1_555
Ga3 Ti8 2.782272 1_455
Ga3 Ti7 2.782272 1_545
Ga4 Rh6 2.510847 1_555
Ga4 Rh3 2.694456 1_556
Ga4 Rh5 2.694456 1_565
Ga4 Rh4 2.694456 1_655
Ga4 Ti12 2.807346 1_555
Ga4 Ti10 2.807347 1_555
Ga4 Ti11 2.807347 1_555
Ga4 Ti9 2.966180 1_555
Ga4 Ti7 2.966181 1_555
Ga4 Ti8 2.966181 1_555
Ga4 Ti3 3.166114 1_555
Ga4 Ti5 3.166114 1_555
Ga4 Ti4 3.166115 1_555
Ga5 Rh6 2.509385 1_555
Ga5 Rh5 2.697039 1_555
Ga5 Ga8 2.731170 1_545
Ga5 Rh1 2.732134 1_556
Ga5 Rh0 2.732134 1_655
Ga5 Ti11 2.796701 1_545
Ga5 Ti12 2.796702 1_545
Ga5 Ti5 2.948912 1_555
Ga5 Ti6 2.953051 1_555
Ga5 Ti0 2.953418 1_555
Ga5 Ti1 2.953418 1_555
Ga5 Ti8 2.965034 1_555
Ga5 Ti9 2.965035 1_555
Ga6 Rh6 2.509386 1_555
Ga6 Rh4 2.697039 1_555
Ga6 Ga8 2.731170 1_455
Ga6 Rh2 2.732134 1_556
Ga6 Rh0 2.732134 1_565
Ga6 Ti10 2.796701 1_455
Ga6 Ti12 2.796702 1_455
Ga6 Ti4 2.948912 1_555
Ga6 Ti6 2.953051 1_555
Ga6 Ti0 2.953418 1_555
Ga6 Ti2 2.953418 1_555
Ga6 Ti7 2.965034 1_555
Ga6 Ti9 2.965035 1_555
Ga7 Rh6 2.509385 1_555
Ga7 Rh3 2.697039 1_555
Ga7 Ga8 2.731170 1_554
Ga7 Rh1 2.732134 1_565
Ga7 Rh2 2.732134 1_655
Ga7 Ti11 2.796702 1_554
Ga7 Ti10 2.796702 1_554
Ga7 Ti3 2.948911 1_555
Ga7 Ti6 2.953050 1_555
Ga7 Ti1 2.953418 1_555
Ga7 Ti2 2.953418 1_555
Ga7 Ti8 2.965035 1_555
Ga7 Ti7 2.965035 1_555
Ga8 Rh0 2.539737 1_665
Ga8 Rh2 2.539737 1_656
Ga8 Rh1 2.539737 1_566
Ga8 Ti5 2.825944 1_565
Ga8 Ti4 2.825944 1_655
Ga8 Ti3 2.825944 1_556
Ga8 Ti10 2.899369 1_555
Ga8 Ti11 2.899369 1_555
Ga8 Ti12 2.899369 1_555
Fe0 Ti3 2.461914 1_445
Fe0 Ti5 2.461914 1_454
Fe0 Ti4 2.461914 1_544
Fe0 Ti0 2.485246 1_554
Fe0 Ti2 2.485247 1_545
Fe0 Ti1 2.485247 1_455
Rh0 Ti12 2.530376 1_445
Rh0 Ti8 2.628618 1_455
Rh0 Ti7 2.628618 1_545
Rh0 Ti4 3.005535 1_545
Rh0 Ti5 3.005535 1_455
Rh0 Ti1 3.117559 1_455
Rh0 Ti2 3.117559 1_545
Rh1 Ti11 2.530377 1_544
Rh1 Ti7 2.628618 1_545
Rh1 Ti9 2.628618 1_554
Rh1 Ti5 3.005534 1_554
Rh1 Ti3 3.005535 1_545
Rh1 Ti2 3.117559 1_545
Rh1 Ti0 3.117559 1_554
Rh2 Ti10 2.530377 1_454
Rh2 Ti8 2.628618 1_455
Rh2 Ti9 2.628618 1_554
Rh2 Ti4 3.005534 1_554
Rh2 Ti3 3.005535 1_455
Rh2 Ti1 3.117559 1_455
Rh2 Ti0 3.117559 1_554
Rh3 Ti11 2.518640 1_554
Rh3 Ti10 2.518640 1_554
Rh3 Ti6 2.639569 1_555
Rh3 Ti9 2.652411 1_554
Rh3 Ti1 3.088144 1_555
Rh3 Ti2 3.088144 1_555
Rh4 Ti10 2.518640 1_455
Rh4 Ti12 2.518640 1_455
Rh4 Ti6 2.639569 1_555
Rh4 Ti8 2.652411 1_455
Rh4 Ti2 3.088143 1_555
Rh4 Ti0 3.088144 1_555
Rh5 Ti11 2.518640 1_545
Rh5 Ti12 2.518640 1_545
Rh5 Ti6 2.639569 1_555
Rh5 Ti7 2.652411 1_545
Rh5 Ti1 3.088143 1_555
Rh5 Ti0 3.088144 1_555
Rh6 Ti9 2.602809 1_555
Rh6 Ti7 2.602809 1_555
Rh6 Ti8 2.602809 1_555
Rh6 Ti6 2.667585 1_555
