# generated using pymatgen
data_YLu4(In2Au)2
_symmetry_space_group_name_H-M   'P 1'
_cell_length_a   3.63205110
_cell_length_b   8.01883463
_cell_length_c   17.94012243
_cell_angle_alpha   90.00000000
_cell_angle_beta   90.00000000
_cell_angle_gamma   90.00000000
_symmetry_Int_Tables_number   1
_chemical_formula_structural   YLu4(In2Au)2
_chemical_formula_sum   'Y2 Lu8 In8 Au4'
_cell_volume   522.50278485
_cell_formula_units_Z   2
loop_
 _symmetry_equiv_pos_site_id
 _symmetry_equiv_pos_as_xyz
  1  'x, y, z'
loop_
 _atom_site_type_symbol
 _atom_site_label
 _atom_site_symmetry_multiplicity
 _atom_site_fract_x
 _atom_site_fract_y
 _atom_site_fract_z
 _atom_site_occupancy
  Y  Y0  1  0.00000000  0.50000000  0.50000000  1
  Y  Y1  1  0.00000000  0.00000000  0.00000000  1
  Lu  Lu0  1  0.00000000  0.73838041  0.28211970  1
  Lu  Lu1  1  0.00000000  0.26161959  0.71788030  1
  Lu  Lu2  1  0.00000000  0.76161959  0.78211970  1
  Lu  Lu3  1  0.00000000  0.23838041  0.21788030  1
  Lu  Lu4  1  0.00000000  0.61821270  0.08209399  1
  Lu  Lu5  1  0.00000000  0.38178730  0.91790601  1
  Lu  Lu6  1  0.00000000  0.88178730  0.58209399  1
  Lu  Lu7  1  0.00000000  0.11821270  0.41790601  1
  In  In0  1  0.50000000  0.70614712  0.93422857  1
  In  In1  1  0.50000000  0.29385288  0.06577143  1
  In  In2  1  0.50000000  0.79385288  0.43422857  1
  In  In3  1  0.50000000  0.20614712  0.56577143  1
  In  In4  1  0.50000000  0.58114556  0.64778447  1
  In  In5  1  0.50000000  0.41885444  0.35221553  1
  In  In6  1  0.50000000  0.91885444  0.14778447  1
  In  In7  1  0.50000000  0.08114556  0.85221553  1
  Au  Au0  1  0.50000000  0.52642945  0.19712814  1
  Au  Au1  1  0.50000000  0.47357055  0.80287186  1
  Au  Au2  1  0.50000000  0.97357055  0.69712814  1
  Au  Au3  1  0.50000000  0.02642945  0.30287186  1
loop_
_geom_bond_atom_site_label_1
_geom_bond_atom_site_label_2
_geom_bond_distance
_geom_bond_site_symmetry_2
In0 Lu5 3.185724 1_555
In0 Lu5 3.185724 1_655
In0 Y1 3.200413 1_666
In0 Y1 3.200413 1_566
In0 Lu4 3.291216 1_656
In0 Lu4 3.291216 1_556
In0 Lu2 3.307937 1_655
In0 Lu2 3.307937 1_555
In1 Lu4 3.185724 1_555
In1 Lu4 3.185724 1_655
In1 Y1 3.200413 1_555
In1 Y1 3.200413 1_655
In1 Lu5 3.291216 1_654
In1 Lu5 3.291216 1_554
In1 Lu3 3.307937 1_555
In1 Lu3 3.307937 1_655
In2 Lu7 3.185724 1_565
In2 Lu7 3.185724 1_665
In2 Y0 3.200413 1_655
In2 Y0 3.200413 1_555
In2 Lu6 3.291216 1_555
In2 Lu6 3.291216 1_655
In2 Lu0 3.307937 1_555
In2 Lu0 3.307937 1_655
In3 Lu6 3.185724 1_645
In3 Lu6 3.185724 1_545
In3 Y0 3.200413 1_555
In3 Y0 3.200413 1_655
In3 Lu7 3.291216 1_555
In3 Lu7 3.291216 1_655
In3 Lu1 3.307937 1_555
In3 Lu1 3.307937 1_655
In4 Lu6 3.240176 1_555
In4 Lu6 3.240176 1_655
In4 Y0 3.278809 1_555
In4 Y0 3.278809 1_655
In4 Lu2 3.346695 1_555
In4 Lu2 3.346695 1_655
In4 Lu1 3.382946 1_555
In4 Lu1 3.382946 1_655
In5 Lu7 3.240176 1_555
In5 Lu7 3.240176 1_655
In5 Y0 3.278809 1_655
In5 Y0 3.278809 1_555
In5 Lu3 3.346695 1_655
In5 Lu3 3.346695 1_555
In5 Lu0 3.382946 1_555
In5 Lu0 3.382946 1_655
In6 Lu4 3.240176 1_655
In6 Lu4 3.240176 1_555
In6 Y1 3.278809 1_565
In6 Y1 3.278809 1_665
In6 Lu0 3.346695 1_555
In6 Lu0 3.346695 1_655
In6 Lu3 3.382946 1_565
In6 Lu3 3.382946 1_665
In7 Lu5 3.240176 1_655
In7 Lu5 3.240176 1_555
In7 Y1 3.278809 1_656
In7 Y1 3.278809 1_556
In7 Lu1 3.346695 1_555
In7 Lu1 3.346695 1_655
In7 Lu2 3.382946 1_645
In7 Lu2 3.382946 1_545
Au0 Lu4 2.845805 1_555
Au0 Lu4 2.845805 1_655
Au0 In5 2.912944 1_555
Au0 Lu0 2.917444 1_555
Au0 Lu0 2.917444 1_655
Au0 Lu3 2.961724 1_555
Au0 Lu3 2.961724 1_655
Au0 In1 3.005254 1_555
Au0 In6 3.268934 1_555
Au1 Lu5 2.845805 1_655
Au1 Lu5 2.845805 1_555
Au1 In4 2.912944 1_555
Au1 Lu1 2.917444 1_555
Au1 Lu1 2.917444 1_655
Au1 Lu2 2.961724 1_655
Au1 Lu2 2.961724 1_555
Au1 In0 3.005254 1_555
Au1 In7 3.268934 1_555
Au2 Lu6 2.845805 1_655
Au2 Lu6 2.845805 1_555
Au2 In7 2.912944 1_565
Au2 Lu2 2.917444 1_655
Au2 Lu2 2.917444 1_555
Au2 Lu1 2.961724 1_565
Au2 Lu1 2.961724 1_665
Au2 In3 3.005254 1_565
Au2 In4 3.268934 1_555
Au3 Lu7 2.845805 1_555
Au3 Lu7 2.845805 1_655
Au3 In6 2.912944 1_545
Au3 Lu3 2.917444 1_555
Au3 Lu3 2.917444 1_655
Au3 Lu0 2.961724 1_645
Au3 Lu0 2.961724 1_545
Au3 In2 3.005254 1_545
Au3 In5 3.268934 1_555
