# generated using pymatgen
data_NbAlGaPt9
_symmetry_space_group_name_H-M   'P 1'
_cell_length_a   3.94127798
_cell_length_b   3.94127798
_cell_length_c   11.73559320
_cell_angle_alpha   90.00000000
_cell_angle_beta   90.00000000
_cell_angle_gamma   90.00000000
_symmetry_Int_Tables_number   1
_chemical_formula_structural   NbAlGaPt9
_chemical_formula_sum   'Nb1 Al1 Ga1 Pt9'
_cell_volume   182.29685709
_cell_formula_units_Z   1
loop_
 _symmetry_equiv_pos_site_id
 _symmetry_equiv_pos_as_xyz
  1  'x, y, z'
loop_
 _atom_site_type_symbol
 _atom_site_label
 _atom_site_symmetry_multiplicity
 _atom_site_fract_x
 _atom_site_fract_y
 _atom_site_fract_z
 _atom_site_occupancy
  Nb  Nb0  1  0.00000000  0.00000000  0.99976071  1
  Al  Al0  1  0.00000000  0.00000000  0.65841451  1
  Ga  Ga0  1  0.00000000  0.00000000  0.34207182  1
  Pt  Pt0  1  0.50000000  0.50000000  0.99905566  1
  Pt  Pt1  1  0.50000000  0.50000000  0.33388320  1
  Pt  Pt2  1  0.50000000  0.50000000  0.66665230  1
  Pt  Pt3  1  0.50000000  0.00000000  0.16578682  1
  Pt  Pt4  1  0.50000000  0.00000000  0.50224448  1
  Pt  Pt5  1  0.50000000  0.00000000  0.83204859  1
  Pt  Pt6  1  0.00000000  0.50000000  0.16578682  1
  Pt  Pt7  1  0.00000000  0.50000000  0.50224448  1
  Pt  Pt8  1  0.00000000  0.50000000  0.83204859  1
loop_
_geom_bond_atom_site_label_1
_geom_bond_atom_site_label_2
_geom_bond_distance
_geom_bond_site_symmetry_2
Nb0 Pt3 2.771234 1_456
Nb0 Pt3 2.771234 1_556
Nb0 Pt6 2.771234 1_556
Nb0 Pt6 2.771234 1_546
Nb0 Pt8 2.785181 1_555
Nb0 Pt5 2.785181 1_555
Nb0 Pt5 2.785181 1_455
Nb0 Pt8 2.785181 1_545
Nb0 Pt0 2.786917 1_445
Nb0 Pt0 2.786917 1_545
Nb0 Pt0 2.786917 1_555
Nb0 Pt0 2.786917 1_455
Al0 Pt7 2.691168 1_545
Al0 Pt4 2.691168 1_455
Al0 Pt4 2.691168 1_555
Al0 Pt7 2.691168 1_555
Al0 Pt2 2.788581 1_455
Al0 Pt2 2.788581 1_555
Al0 Pt2 2.788581 1_545
Al0 Pt2 2.788581 1_445
Al0 Pt5 2.834720 1_455
Al0 Pt8 2.834720 1_545
Al0 Pt8 2.834720 1_555
Al0 Pt5 2.834720 1_555
Ga0 Pt7 2.723375 1_545
Ga0 Pt4 2.723375 1_455
Ga0 Pt7 2.723375 1_555
Ga0 Pt4 2.723375 1_555
Ga0 Pt1 2.788561 1_545
Ga0 Pt1 2.788561 1_445
Ga0 Pt1 2.788561 1_455
Ga0 Pt1 2.788561 1_555
Ga0 Pt3 2.857164 1_555
Ga0 Pt6 2.857164 1_555
Ga0 Pt6 2.857164 1_545
Ga0 Pt3 2.857164 1_455
Pt0 Pt3 2.777058 1_556
Pt0 Pt6 2.777058 1_556
Pt0 Pt3 2.777058 1_566
Pt0 Pt6 2.777058 1_656
Pt0 Pt8 2.779340 1_555
Pt0 Pt5 2.779340 1_555
Pt0 Pt5 2.779340 1_565
Pt0 Pt8 2.779340 1_655
Pt1 Pt6 2.788370 1_555
Pt1 Pt3 2.788370 1_555
Pt1 Pt6 2.788370 1_655
Pt1 Pt3 2.788370 1_565
Pt1 Pt7 2.790570 1_555
Pt1 Pt4 2.790570 1_555
Pt1 Pt4 2.790570 1_565
Pt1 Pt7 2.790570 1_655
Pt2 Pt4 2.757914 1_555
Pt2 Pt7 2.757914 1_555
Pt2 Pt4 2.757914 1_565
Pt2 Pt7 2.757914 1_655
Pt2 Pt8 2.766042 1_655
Pt2 Pt5 2.766042 1_565
Pt2 Pt8 2.766042 1_555
Pt2 Pt5 2.766042 1_555
Pt3 Pt6 2.786904 1_545
Pt3 Pt6 2.786904 1_655
Pt3 Pt6 2.786904 1_645
Pt3 Pt6 2.786904 1_555
Pt5 Pt8 2.786904 1_645
Pt5 Pt8 2.786904 1_545
Pt5 Pt8 2.786904 1_555
Pt5 Pt8 2.786904 1_655
