# generated using pymatgen
data_K6Si2Se6O
_symmetry_space_group_name_H-M   'P 1'
_cell_length_a   12.25494769
_cell_length_b   8.74949057
_cell_length_c   9.03517059
_cell_angle_alpha   67.15384180
_cell_angle_beta   90.00000000
_cell_angle_gamma   90.00000000
_symmetry_Int_Tables_number   1
_chemical_formula_structural   K6Si2Se6O
_chemical_formula_sum   'K12 Si4 Se12 O2'
_cell_volume   892.79099779
_cell_formula_units_Z   2
loop_
 _symmetry_equiv_pos_site_id
 _symmetry_equiv_pos_as_xyz
  1  'x, y, z'
loop_
 _atom_site_type_symbol
 _atom_site_label
 _atom_site_symmetry_multiplicity
 _atom_site_fract_x
 _atom_site_fract_y
 _atom_site_fract_z
 _atom_site_occupancy
  K  K0  1  0.33231906  0.99184455  0.00453027  1
  K  K1  1  0.22324736  0.70985067  0.45386621  1
  K  K2  1  0.56126173  0.28503564  0.22693720  1
  K  K3  1  0.83231906  0.50815545  0.99546973  1
  K  K4  1  0.43873827  0.71496436  0.77306280  1
  K  K5  1  0.77675264  0.29014933  0.54613379  1
  K  K6  1  0.06126173  0.21496436  0.77306280  1
  K  K7  1  0.93873827  0.78503564  0.22693720  1
  K  K8  1  0.27675264  0.20985067  0.45386621  1
  K  K9  1  0.72324736  0.79014933  0.54613379  1
  K  K10  1  0.66768094  0.00815545  0.99546973  1
  K  K11  1  0.16768094  0.49184455  0.00453027  1
  Si  Si0  1  0.48908552  0.35475855  0.67961343  1
  Si  Si1  1  0.98908552  0.14524145  0.32038657  1
  Si  Si2  1  0.51091448  0.64524145  0.32038657  1
  Si  Si3  1  0.01091448  0.85475855  0.67961343  1
  Se  Se0  1  0.98031961  0.60876602  0.65822983  1
  Se  Se1  1  0.88010859  0.91123468  0.82872178  1
  Se  Se2  1  0.81615299  0.12337661  0.24180291  1
  Se  Se3  1  0.61989141  0.41123468  0.82872178  1
  Se  Se4  1  0.31615299  0.37662339  0.75819709  1
  Se  Se5  1  0.11989141  0.08876532  0.17127822  1
  Se  Se6  1  0.48031961  0.89123398  0.34177017  1
  Se  Se7  1  0.38010859  0.58876532  0.17127822  1
  Se  Se8  1  0.01968039  0.39123398  0.34177017  1
  Se  Se9  1  0.68384701  0.62337661  0.24180291  1
  Se  Se10  1  0.51968039  0.10876602  0.65822983  1
  Se  Se11  1  0.18384701  0.87662339  0.75819709  1
  O  O0  1  0.50000000  0.50000000  0.50000000  1
  O  O1  1  0.00000000  0.00000000  0.50000000  1
loop_
_geom_bond_atom_site_label_1
_geom_bond_atom_site_label_2
_geom_bond_distance
_geom_bond_site_symmetry_2
K0 Se4 3.241688 1_564
K0 Se5 3.279961 1_565
K0 Se7 3.305267 1_555
K0 Se11 3.320067 1_554
K0 Se6 3.356497 1_555
K0 Se10 3.690938 1_564
K1 Se4 3.336518 1_555
K1 Se0 3.433141 1_455
K1 Se6 3.495901 1_555
K1 Se5 3.541410 1_565
K1 Se11 3.610911 1_555
K1 Se7 3.665677 1_555
K2 Se6 3.340116 1_545
K2 Se7 3.347514 1_555
K2 Se9 3.368541 1_555
K2 Se3 3.405252 1_554
K2 Se2 3.410061 1_555
K2 Se10 3.627194 1_555
K3 Se2 3.241688 1_556
K3 Se3 3.279961 1_555
K3 Se1 3.305267 1_555
K3 Se9 3.320067 1_556
K3 Se0 3.356497 1_555
K3 Se8 3.690938 1_656
K4 Se10 3.340116 1_565
K4 Se3 3.347514 1_555
K4 Se4 3.368541 1_555
K4 Se7 3.405252 1_556
K4 Se11 3.410061 1_555
K4 Se6 3.627194 1_555
K5 Se9 3.336518 1_555
K5 Se8 3.433141 1_655
K5 Se10 3.495901 1_555
K5 Se1 3.541410 1_545
K5 Se2 3.610911 1_555
K5 Se3 3.665677 1_555
K6 Se0 3.340116 1_455
K6 Se1 3.347514 1_445
K6 Se11 3.368541 1_545
K6 Se5 3.405252 1_556
K6 Se4 3.410061 1_555
K6 Se8 3.627194 1_555
K7 Se8 3.340116 1_655
K7 Se5 3.347514 1_665
K7 Se2 3.368541 1_565
K7 Se1 3.405252 1_554
K7 Se9 3.410061 1_555
K7 Se0 3.627194 1_555
K8 Se11 3.336518 1_545
K8 Se10 3.433141 1_555
K8 Se8 3.495901 1_555
K8 Se7 3.541410 1_555
K8 Se4 3.610911 1_555
K8 Se5 3.665677 1_555
K9 Se2 3.336518 1_565
K9 Se6 3.433141 1_555
K9 Se0 3.495901 1_555
K9 Se3 3.541410 1_555
K9 Se9 3.610911 1_555
K9 Se1 3.665677 1_555
K10 Se9 3.241688 1_546
K10 Se1 3.279961 1_545
K10 Se3 3.305267 1_555
K10 Se2 3.320067 1_556
K10 Se10 3.356497 1_555
K10 Se6 3.690938 1_546
K11 Se11 3.241688 1_554
K11 Se7 3.279961 1_555
K11 Se5 3.305267 1_555
K11 Se4 3.320067 1_554
K11 Se8 3.356497 1_555
K11 Se0 3.690938 1_454
Se0 Si3 2.265667 1_655
Se1 Si3 2.268431 1_655
Se2 Si1 2.266614 1_555
Se3 Si0 2.268431 1_555
Se4 Si0 2.266614 1_555
Se5 Si1 2.268431 1_455
Se6 Si2 2.265667 1_555
Se7 Si2 2.268431 1_555
Se8 Si1 2.265667 1_455
Se9 Si2 2.266614 1_555
Se10 Si0 2.265667 1_555
Se11 Si3 2.266614 1_555
O0 Si0 1.632483 1_555
O0 Si2 1.632483 1_555
O1 Si3 1.632483 1_545
O1 Si1 1.632483 1_455
