# generated using pymatgen
data_Ba6YGa(BO3)6
_symmetry_space_group_name_H-M   'P 1'
_cell_length_a   8.04376549
_cell_length_b   8.04375911
_cell_length_c   8.04376627
_cell_angle_alpha   105.94021767
_cell_angle_beta   105.94039106
_cell_angle_gamma   105.94006313
_symmetry_Int_Tables_number   1
_chemical_formula_structural   Ba6YGa(BO3)6
_chemical_formula_sum   'Ba6 Y1 Ga1 B6 O18'
_cell_volume   445.37146410
_cell_formula_units_Z   1
loop_
 _symmetry_equiv_pos_site_id
 _symmetry_equiv_pos_as_xyz
  1  'x, y, z'
loop_
 _atom_site_type_symbol
 _atom_site_label
 _atom_site_symmetry_multiplicity
 _atom_site_fract_x
 _atom_site_fract_y
 _atom_site_fract_z
 _atom_site_occupancy
  Ba  Ba0  1  0.34231617  0.73316097  0.83002387  1
  Ba  Ba1  1  0.83002387  0.34231617  0.73316097  1
  Ba  Ba2  1  0.73316097  0.83002387  0.34231617  1
  Ba  Ba3  1  0.65768383  0.26683903  0.16997613  1
  Ba  Ba4  1  0.16997613  0.65768383  0.26683903  1
  Ba  Ba5  1  0.26683903  0.16997613  0.65768383  1
  Y  Y0  1  0.00000000  0.00000000  0.00000000  1
  Ga  Ga0  1  0.50000000  0.50000000  0.50000000  1
  B  B0  1  0.37116074  0.06018046  0.29958471  1
  B  B1  1  0.29958371  0.37116074  0.06018046  1
  B  B2  1  0.06017846  0.29958271  0.37116074  1
  B  B3  1  0.70041629  0.62883926  0.93981954  1
  B  B4  1  0.93982154  0.70041729  0.62883926  1
  B  B5  1  0.62883926  0.93981954  0.70041529  1
  O  O0  1  0.42939258  0.49171584  0.23787264  1
  O  O1  1  0.23787464  0.42939458  0.49171684  1
  O  O2  1  0.81757608  0.00117999  0.72845089  1
  O  O3  1  0.00117899  0.72845189  0.81757708  1
  O  O4  1  0.72845189  0.81757508  0.00117899  1
  O  O5  1  0.27154811  0.18242492  0.99882101  1
  O  O6  1  0.18242392  0.99882001  0.27154911  1
  O  O7  1  0.99882101  0.27154811  0.18242292  1
  O  O8  1  0.55795090  0.05858351  0.78836662  1
  O  O9  1  0.05858451  0.78836662  0.55795090  1
  O  O10  1  0.78836562  0.55795090  0.05858351  1
  O  O11  1  0.44204910  0.94141649  0.21163338  1
  O  O12  1  0.94141549  0.21163338  0.44204910  1
  O  O13  1  0.21163438  0.44204910  0.94141649  1
  O  O14  1  0.50828416  0.76212636  0.57060543  1
  O  O15  1  0.76212536  0.57060542  0.50828316  1
  O  O16  1  0.57060742  0.50828416  0.76212736  1
  O  O17  1  0.49171584  0.23787364  0.42939457  1
loop_
_geom_bond_atom_site_label_1
_geom_bond_atom_site_label_2
_geom_bond_distance
_geom_bond_site_symmetry_2
Ba0 O3 2.707595 1_555
Ba0 O13 2.776483 1_555
Ba0 O14 2.795925 1_555
Ba0 O11 2.820808 1_556
Ba0 O4 2.825417 1_556
Ba0 O1 2.836540 1_555
Ba0 O8 2.877490 1_565
Ba0 O9 2.922742 1_555
Ba0 O16 2.962263 1_555
Ba1 O2 2.707581 1_555
Ba1 O12 2.776479 1_555
Ba1 O16 2.795906 1_555
Ba1 O13 2.820813 1_655
Ba1 O3 2.825416 1_655
Ba1 O17 2.836541 1_555
Ba1 O10 2.877491 1_556
Ba1 O8 2.922757 1_555
Ba1 O15 2.962259 1_555
Ba2 O4 2.707591 1_555
Ba2 O11 2.776478 1_555
Ba2 O15 2.795913 1_555
Ba2 O12 2.820809 1_565
Ba2 O2 2.825410 1_565
Ba2 O0 2.836555 1_555
Ba2 O9 2.877488 1_655
Ba2 O10 2.922748 1_555
Ba2 O14 2.962259 1_555
Ba3 O7 2.707595 1_555
Ba3 O10 2.776483 1_555
Ba3 O17 2.795925 1_555
Ba3 O8 2.820808 1_554
Ba3 O5 2.825417 1_554
Ba3 O15 2.836540 1_555
Ba3 O11 2.877490 1_545
Ba3 O12 2.922742 1_555
Ba3 O0 2.962263 1_555
Ba4 O6 2.707581 1_555
Ba4 O9 2.776479 1_555
Ba4 O0 2.795906 1_555
Ba4 O10 2.820813 1_455
Ba4 O7 2.825416 1_455
Ba4 O14 2.836541 1_555
Ba4 O13 2.877491 1_554
Ba4 O11 2.922757 1_555
Ba4 O1 2.962259 1_555
Ba5 O5 2.707591 1_555
Ba5 O8 2.776478 1_555
Ba5 O1 2.795913 1_555
Ba5 O9 2.820809 1_545
Ba5 O6 2.825410 1_545
Ba5 O16 2.836555 1_555
Ba5 O12 2.877488 1_455
Ba5 O13 2.922748 1_555
Ba5 O17 2.962259 1_555
Ga0 O15 2.004240 1_555
Ga0 O1 2.004240 1_555
Ga0 O14 2.004242 1_555
Ga0 O17 2.004242 1_555
Ga0 O16 2.004250 1_555
Ga0 O0 2.004250 1_555
B0 O11 1.373976 1_545
B0 O17 1.391535 1_555
B0 O6 1.392301 1_545
B1 O13 1.373967 1_554
B1 O0 1.391526 1_555
B1 O5 1.392292 1_554
B2 O12 1.373966 1_455
B2 O1 1.391556 1_555
B2 O7 1.392308 1_455
B3 O10 1.373967 1_556
B3 O16 1.391526 1_555
B3 O4 1.392292 1_556
B4 O9 1.373966 1_655
B4 O15 1.391556 1_555
B4 O3 1.392308 1_655
B5 O8 1.373976 1_565
B5 O14 1.391535 1_555
B5 O2 1.392301 1_565
O2 Y0 2.276593 1_656
O3 Y0 2.276583 1_566
O4 Y0 2.276594 1_665
O5 Y0 2.276594 1_556
O6 Y0 2.276593 1_565
O7 Y0 2.276583 1_655
