# generated using pymatgen
data_Mn4Pd9PbAu2
_symmetry_space_group_name_H-M   'P 1'
_cell_length_a   6.90009802
_cell_length_b   6.90009730
_cell_length_c   6.90009751
_cell_angle_alpha   107.66108020
_cell_angle_beta   107.66108128
_cell_angle_gamma   113.15552615
_symmetry_Int_Tables_number   1
_chemical_formula_structural   Mn4Pd9PbAu2
_chemical_formula_sum   'Mn4 Pd9 Pb1 Au2'
_cell_volume   252.10741437
_cell_formula_units_Z   1
loop_
 _symmetry_equiv_pos_site_id
 _symmetry_equiv_pos_as_xyz
  1  'x, y, z'
loop_
 _atom_site_type_symbol
 _atom_site_label
 _atom_site_symmetry_multiplicity
 _atom_site_fract_x
 _atom_site_fract_y
 _atom_site_fract_z
 _atom_site_occupancy
  Mn  Mn0  1  0.23527174  0.23527174  0.47054349  1
  Mn  Mn1  1  0.76472826  0.76472826  0.52945651  1
  Mn  Mn2  1  0.23527174  0.76472826  0.00000000  1
  Mn  Mn3  1  0.76472826  0.23527174  1.00000000  1
  Pd  Pd0  1  0.50446382  0.25375521  0.25070761  1
  Pd  Pd1  1  0.49553618  0.74624479  0.74929239  1
  Pd  Pd2  1  0.00304760  0.25375521  0.74929239  1
  Pd  Pd3  1  0.25375521  0.00304760  0.74929239  1
  Pd  Pd4  1  0.99695240  0.74624479  0.25070761  1
  Pd  Pd5  1  0.74624479  0.99695240  0.25070761  1
  Pd  Pd6  1  0.25375521  0.50446382  0.25070761  1
  Pd  Pd7  1  0.74624479  0.49553618  0.74929239  1
  Pd  Pd8  1  0.00000000  0.00000000  0.00000000  1
  Pb  Pb0  1  0.50000000  0.50000000  0.00000000  1
  Au  Au0  1  0.50000000  0.00000000  0.50000000  1
  Au  Au1  1  0.00000000  0.50000000  0.50000000  1
loop_
_geom_bond_atom_site_label_1
_geom_bond_atom_site_label_2
_geom_bond_distance
_geom_bond_site_symmetry_2
Mn0 Pd8 2.709887 1_555
Mn0 Pd4 2.721764 1_445
Mn0 Pd5 2.721764 1_445
Mn0 Pd6 2.721770 1_555
Mn0 Pd0 2.721770 1_555
Mn0 Pd3 2.857489 1_555
Mn0 Pd2 2.857489 1_555
Mn0 Pd1 2.857489 1_555
Mn0 Pd7 2.857489 1_555
Mn0 Pb0 3.049170 1_556
Mn1 Pd8 2.709887 1_666
Mn1 Pd2 2.721764 1_665
Mn1 Pd3 2.721764 1_665
Mn1 Pd7 2.721770 1_555
Mn1 Pd1 2.721770 1_555
Mn1 Pd5 2.857489 1_555
Mn1 Pd4 2.857489 1_555
Mn1 Pd0 2.857489 1_555
Mn1 Pd6 2.857489 1_555
Mn1 Pb0 3.049170 1_555
Mn2 Pd8 2.709887 1_565
Mn2 Pd0 2.721764 1_565
Mn2 Pd3 2.721764 1_564
Mn2 Pd7 2.721764 1_454
Mn2 Pd4 2.721764 1_455
Mn2 Pd6 2.857483 1_555
Mn2 Pd1 2.857483 1_554
Mn2 Pd2 2.857488 1_554
Mn2 Pd5 2.857489 1_555
Mn2 Pb0 3.049170 1_555
Mn3 Pd8 2.709887 1_656
Mn3 Pd1 2.721764 1_545
Mn3 Pd5 2.721764 1_546
Mn3 Pd6 2.721764 1_656
Mn3 Pd2 2.721764 1_655
Mn3 Pd7 2.857483 1_555
Mn3 Pd0 2.857483 1_556
Mn3 Pd4 2.857488 1_556
Mn3 Pd3 2.857489 1_555
Mn3 Pb0 3.049170 1_556
Pd0 Pd8 2.808884 1_555
Pd0 Pd5 2.871940 1_545
Pd0 Pd7 2.871946 1_555
Pd0 Pd3 2.887679 1_554
Pd0 Pd6 2.887690 1_555
Pd1 Pd8 2.808884 1_666
Pd1 Pd3 2.871940 1_565
Pd1 Pd6 2.871946 1_555
Pd1 Pd5 2.887679 1_556
Pd1 Pd7 2.887690 1_555
Pd2 Pd8 2.808878 1_556
Pd2 Pd7 2.871940 1_455
Pd2 Pd5 2.871945 1_445
Pd2 Pd6 2.887679 1_556
Pd2 Pd3 2.887679 1_555
Pd3 Pd8 2.808878 1_556
Pd3 Pd4 2.871945 1_445
Pd4 Pd8 2.808878 1_665
Pd4 Pd6 2.871940 1_655
Pd4 Pd7 2.887679 1_554
Pd4 Pd5 2.887679 1_555
Pd5 Pd8 2.808878 1_665
Pd6 Pd8 2.808883 1_555
Pd7 Pd8 2.808883 1_666
Pb0 Pd5 2.769986 1_555
Pb0 Pd3 2.769986 1_554
Pb0 Pd4 2.769987 1_555
Pb0 Pd2 2.769987 1_554
Pb0 Pd1 2.769987 1_554
Pb0 Pd0 2.769987 1_555
Pb0 Pd6 2.769987 1_555
Pb0 Pd7 2.769987 1_554
Au0 Pd7 2.761495 1_555
Au0 Pd6 2.761495 1_545
Au0 Pd5 2.761501 1_545
Au0 Pd3 2.761501 1_555
Au0 Pd0 2.800510 1_555
Au0 Pd1 2.800510 1_545
Au0 Pd2 2.800510 1_655
Au0 Pd4 2.800510 1_445
Au0 Mn3 2.884521 1_555
Au0 Mn2 2.884521 1_545
Au0 Mn1 2.884521 1_545
Au0 Mn0 2.884521 1_555
Au1 Pd1 2.761495 1_555
Au1 Pd0 2.761495 1_455
Au1 Pd2 2.761501 1_555
Au1 Pd4 2.761501 1_455
Au1 Pd3 2.800510 1_565
Au1 Pd5 2.800510 1_445
Au1 Pd7 2.800510 1_455
Au1 Pd6 2.800510 1_555
Au1 Mn2 2.884521 1_556
Au1 Mn3 2.884521 1_454
Au1 Mn0 2.884521 1_555
Au1 Mn1 2.884521 1_455
