# generated using pymatgen
data_K6Si2PdO8
_symmetry_space_group_name_H-M   'P 1'
_cell_length_a   6.18243100
_cell_length_b   6.78613199
_cell_length_c   7.52306037
_cell_angle_alpha   82.08234939
_cell_angle_beta   87.74389104
_cell_angle_gamma   69.67641247
_symmetry_Int_Tables_number   1
_chemical_formula_structural   K6Si2PdO8
_chemical_formula_sum   'K6 Si2 Pd1 O8'
_cell_volume   293.14555646
_cell_formula_units_Z   1
loop_
 _symmetry_equiv_pos_site_id
 _symmetry_equiv_pos_as_xyz
  1  'x, y, z'
loop_
 _atom_site_type_symbol
 _atom_site_label
 _atom_site_symmetry_multiplicity
 _atom_site_fract_x
 _atom_site_fract_y
 _atom_site_fract_z
 _atom_site_occupancy
  K  K0  1  0.65806766  0.82969463  0.16723237  1
  K  K1  1  0.79748118  0.30527285  0.96850910  1
  K  K2  1  0.27236896  0.81060841  0.56179506  1
  K  K3  1  0.72763104  0.18939159  0.43820494  1
  K  K4  1  0.20251882  0.69472715  0.03149090  1
  K  K5  1  0.34193234  0.17030537  0.83276763  1
  Si  Si0  1  0.77734350  0.76644875  0.73717945  1
  Si  Si1  1  0.22265650  0.23355125  0.26282055  1
  Pd  Pd0  1  0.00000000  0.50000000  0.50000000  1
  O  O0  1  0.56161111  0.72818923  0.84629665  1
  O  O1  1  0.82796434  0.96965639  0.79085974  1
  O  O2  1  0.17203566  0.03034361  0.20914026  1
  O  O3  1  0.01727562  0.55063660  0.76062639  1
  O  O4  1  0.43838889  0.27181077  0.15370335  1
  O  O5  1  0.98272438  0.44936340  0.23937361  1
  O  O6  1  0.74018780  0.78299598  0.51523868  1
  O  O7  1  0.25981220  0.21700402  0.48476132  1
loop_
_geom_bond_atom_site_label_1
_geom_bond_atom_site_label_2
_geom_bond_distance
_geom_bond_site_symmetry_2
K0 O6 2.641364 1_555
K0 O5 2.661956 1_555
K0 O0 2.741607 1_554
K0 O4 2.820054 1_565
K0 O2 2.860797 1_565
K0 O1 3.120992 1_554
K1 O4 2.634546 1_556
K1 O1 2.743981 1_545
K1 O0 2.771272 1_555
K1 O3 2.784201 1_655
K1 O5 2.816141 1_556
K1 O2 2.918684 1_656
K2 O7 2.713327 1_565
K2 O0 2.714464 1_555
K2 O2 2.836212 1_565
K2 O6 2.843378 1_555
K2 O3 2.976086 1_555
K2 O1 3.124591 1_455
K2 Pd0 3.208075 1_555
K3 O6 2.713327 1_545
K3 O4 2.714464 1_555
K3 O1 2.836212 1_545
K3 O7 2.843378 1_555
K3 O5 2.976086 1_555
K3 O2 3.124591 1_655
K3 Pd0 3.208075 1_655
K4 O0 2.634546 1_554
K4 O2 2.743981 1_565
K4 O4 2.771272 1_555
K4 O5 2.784201 1_455
K4 O3 2.816141 1_554
K4 O1 2.918684 1_454
K5 O7 2.641364 1_555
K5 O3 2.661956 1_555
K5 O4 2.741607 1_556
K5 O0 2.820054 1_545
K5 O1 2.860797 1_545
K5 O2 3.120992 1_556
O0 Si0 1.617342 1_555
O1 Si0 1.620437 1_555
O2 Si1 1.620437 1_555
O3 Si0 1.678301 1_455
O3 Pd0 2.049747 1_555
O4 Si1 1.617342 1_555
O5 Si1 1.678301 1_655
O5 Pd0 2.049747 1_655
O6 Si0 1.677443 1_555
O6 Pd0 2.045658 1_655
O7 Si1 1.677443 1_555
O7 Pd0 2.045658 1_555
