# generated using pymatgen
data_Lu5(SiPb)2
_symmetry_space_group_name_H-M   'P 1'
_cell_length_a   8.39724043
_cell_length_b   8.39724054
_cell_length_c   7.64855169
_cell_angle_alpha   90.00000000
_cell_angle_beta   90.00000000
_cell_angle_gamma   125.30255307
_symmetry_Int_Tables_number   1
_chemical_formula_structural   Lu5(SiPb)2
_chemical_formula_sum   'Lu10 Si4 Pb4'
_cell_volume   440.15137829
_cell_formula_units_Z   2
loop_
 _symmetry_equiv_pos_site_id
 _symmetry_equiv_pos_as_xyz
  1  'x, y, z'
loop_
 _atom_site_type_symbol
 _atom_site_label
 _atom_site_symmetry_multiplicity
 _atom_site_fract_x
 _atom_site_fract_y
 _atom_site_fract_z
 _atom_site_occupancy
  Lu  Lu0  1  0.04374696  0.29263652  0.33239484  1
  Lu  Lu1  1  0.95625304  0.70736348  0.66760516  1
  Lu  Lu2  1  0.45625304  0.20736348  0.83239484  1
  Lu  Lu3  1  0.79263652  0.54374696  0.16760516  1
  Lu  Lu4  1  0.54374696  0.79263652  0.16760516  1
  Lu  Lu5  1  0.20736348  0.45625304  0.83239484  1
  Lu  Lu6  1  0.70736348  0.95625304  0.66760516  1
  Lu  Lu7  1  0.29263652  0.04374696  0.33239484  1
  Lu  Lu8  1  0.00000000  0.00000000  0.00000000  1
  Lu  Lu9  1  0.50000000  0.50000000  0.50000000  1
  Si  Si0  1  0.36722147  0.36722147  0.13359302  1
  Si  Si1  1  0.63277853  0.63277853  0.86640698  1
  Si  Si2  1  0.13277853  0.13277853  0.63359302  1
  Si  Si3  1  0.86722147  0.86722147  0.36640698  1
  Pb  Pb0  1  0.78841435  0.21158565  0.00000000  1
  Pb  Pb1  1  0.21158565  0.78841435  0.00000000  1
  Pb  Pb2  1  0.71158565  0.28841435  0.50000000  1
  Pb  Pb3  1  0.28841435  0.71158565  0.50000000  1
loop_
_geom_bond_atom_site_label_1
_geom_bond_atom_site_label_2
_geom_bond_distance
_geom_bond_site_symmetry_2
Lu0 Si0 2.848913 1_555
Lu0 Si2 2.971191 1_555
Lu0 Si3 2.984309 1_445
Lu0 Pb2 3.051258 1_455
Lu0 Pb0 3.136434 1_455
Lu0 Pb3 3.144362 1_555
Lu1 Si1 2.848913 1_555
Lu1 Si3 2.971191 1_555
Lu1 Si2 2.984309 1_665
Lu1 Pb3 3.051258 1_655
Lu1 Pb1 3.136434 1_656
Lu1 Pb2 3.144362 1_555
Lu2 Si2 2.848913 1_555
Lu2 Si0 2.971191 1_556
Lu2 Si1 2.984309 1_555
Lu2 Pb0 3.051258 1_556
Lu2 Pb2 3.136434 1_555
Lu2 Pb1 3.144362 1_546
Lu3 Si3 2.848913 1_555
Lu3 Si1 2.971191 1_554
Lu3 Si0 2.984309 1_555
Lu3 Pb0 3.051258 1_555
Lu3 Pb2 3.136434 1_555
Lu3 Pb1 3.144362 1_655
Lu4 Si3 2.848913 1_555
Lu4 Si1 2.971191 1_554
Lu4 Si0 2.984309 1_555
Lu4 Pb1 3.051258 1_555
Lu4 Pb3 3.136434 1_555
Lu4 Pb0 3.144362 1_565
Lu5 Si2 2.848913 1_555
Lu5 Si0 2.971191 1_556
Lu5 Si1 2.984309 1_555
Lu5 Pb1 3.051258 1_556
Lu5 Pb3 3.136434 1_555
Lu5 Pb0 3.144362 1_456
Lu6 Si1 2.848913 1_555
Lu6 Si3 2.971191 1_555
Lu6 Si2 2.984309 1_665
Lu6 Pb2 3.051258 1_565
Lu6 Pb0 3.136434 1_566
Lu6 Pb3 3.144362 1_555
Lu7 Si0 2.848913 1_555
Lu7 Si2 2.971191 1_555
Lu7 Si3 2.984309 1_445
Lu7 Pb3 3.051258 1_545
Lu7 Pb1 3.136434 1_545
Lu7 Pb2 3.144362 1_555
Lu8 Si3 2.983857 1_445
Lu8 Si2 2.983857 1_554
Lu8 Si0 3.011905 1_555
Lu8 Si1 3.011905 1_444
Lu8 Pb0 3.156289 1_455
Lu8 Pb1 3.156289 1_545
Lu9 Si1 2.983857 1_555
Lu9 Si0 2.983857 1_555
Lu9 Si3 3.011905 1_555
Lu9 Si2 3.011905 1_555
Lu9 Pb3 3.156289 1_555
Lu9 Pb2 3.156289 1_555
