# generated using pymatgen
data_Ba3InSb2As
_symmetry_space_group_name_H-M   'P 1'
_cell_length_a   14.79791848
_cell_length_b   4.87827595
_cell_length_c   14.89212095
_cell_angle_alpha   89.99834608
_cell_angle_beta   89.99915289
_cell_angle_gamma   90.00207526
_symmetry_Int_Tables_number   1
_chemical_formula_structural   Ba3InSb2As
_chemical_formula_sum   'Ba12 In4 Sb8 As4'
_cell_volume   1075.03733865
_cell_formula_units_Z   4
loop_
 _symmetry_equiv_pos_site_id
 _symmetry_equiv_pos_as_xyz
  1  'x, y, z'
loop_
 _atom_site_type_symbol
 _atom_site_label
 _atom_site_symmetry_multiplicity
 _atom_site_fract_x
 _atom_site_fract_y
 _atom_site_fract_z
 _atom_site_occupancy
  Ba  Ba0  1  0.36812591  0.24996957  0.00415728  1
  Ba  Ba1  1  0.13185439  0.74998805  0.50411229  1
  Ba  Ba2  1  0.86811656  0.25001396  0.49582962  1
  Ba  Ba3  1  0.63198593  0.74997584  0.99596301  1
  Ba  Ba4  1  0.57826592  0.24991608  0.39618691  1
  Ba  Ba5  1  0.92177993  0.75010385  0.89616375  1
  Ba  Ba6  1  0.07823726  0.25001102  0.10380252  1
  Ba  Ba7  1  0.42168547  0.75002369  0.60384778  1
  Ba  Ba8  1  0.29032554  0.24993106  0.30922669  1
  Ba  Ba9  1  0.20970894  0.75005660  0.80925267  1
  Ba  Ba10  1  0.79035117  0.25000548  0.19075533  1
  Ba  Ba11  1  0.70961489  0.74999338  0.69077990  1
  In  In0  1  0.55399527  0.24997798  0.79263318  1
  In  In1  1  0.94597481  0.74992895  0.29257282  1
  In  In2  1  0.05403604  0.25004917  0.70739595  1
  In  In3  1  0.44597886  0.74998532  0.20736858  1
  Sb  Sb0  1  0.45244754  0.74997182  0.84696218  1
  Sb  Sb1  1  0.04752252  0.24993805  0.34685858  1
  Sb  Sb2  1  0.54753543  0.25000528  0.15316346  1
  Sb  Sb3  1  0.95246173  0.75002866  0.65310062  1
  Sb  Sb4  1  0.73690787  0.24997504  0.86921786  1
  Sb  Sb5  1  0.76312592  0.74998293  0.36927577  1
  Sb  Sb6  1  0.23691096  0.24998205  0.63076311  1
  Sb  Sb7  1  0.26308481  0.74998768  0.13073286  1
  As  As0  1  0.57922437  0.25006062  0.61541751  1
  As  As1  1  0.92063529  0.75003811  0.11532301  1
  As  As2  1  0.07936199  0.25019832  0.88458119  1
  As  As3  1  0.42074569  0.74990144  0.38455558  1
loop_
_geom_bond_atom_site_label_1
_geom_bond_atom_site_label_2
_geom_bond_distance
_geom_bond_site_symmetry_2
Ba0 Sb7 3.452189 1_545
Ba0 Sb7 3.452470 1_555
Ba0 Sb2 3.460151 1_555
Ba0 Sb0 3.603597 1_554
Ba0 Sb0 3.603735 1_544
Ba1 Sb6 3.453048 1_565
Ba1 Sb6 3.453092 1_555
Ba1 Sb3 3.459738 1_455
Ba1 Sb1 3.604129 1_565
Ba1 Sb1 3.604490 1_555
Ba2 Sb5 3.451736 1_555
Ba2 Sb5 3.451947 1_545
Ba2 Sb1 3.459724 1_655
Ba2 Sb3 3.604481 1_545
Ba2 Sb3 3.604608 1_555
Ba3 Sb4 3.452835 1_565
Ba3 Sb4 3.452997 1_555
Ba3 Sb0 3.461563 1_555
Ba3 Sb2 3.604205 1_556
Ba3 Sb2 3.604552 1_566
Ba4 Sb2 3.647599 1_555
Ba4 Sb5 3.686749 1_545
Ba4 Sb5 3.687034 1_555
Ba5 Sb3 3.648082 1_555
Ba5 Sb4 3.686731 1_565
Ba5 Sb4 3.687447 1_555
Ba6 Sb1 3.648039 1_555
Ba6 Sb7 3.686662 1_555
Ba6 Sb7 3.686928 1_545
Ba7 Sb0 3.649001 1_555
Ba7 Sb6 3.685899 1_565
Ba7 Sb6 3.686021 1_555
Ba8 Sb7 3.629965 1_545
Ba8 Sb7 3.630253 1_555
Ba8 Sb1 3.636414 1_555
Ba8 In3 3.681705 1_545
Ba8 In3 3.681887 1_555
Ba9 Sb6 3.629684 1_565
Ba9 Sb6 3.630296 1_555
Ba9 Sb0 3.635667 1_555
Ba9 In2 3.681995 1_555
Ba9 In2 3.681999 1_565
Ba10 Sb5 3.630352 1_555
Ba10 Sb5 3.630378 1_545
Ba10 Sb2 3.636525 1_555
Ba10 In1 3.681027 1_555
Ba10 In1 3.681574 1_545
Ba11 Sb4 3.629567 1_565
Ba11 Sb4 3.629604 1_555
Ba11 Sb3 3.637164 1_555
Ba11 In0 3.681420 1_555
Ba11 In0 3.681489 1_565
In0 Sb4 2.937212 1_555
In0 Sb0 2.976881 1_545
In0 Sb0 2.976959 1_555
In1 Sb5 2.936997 1_555
In1 Sb1 2.976746 1_655
In1 Sb1 2.976768 1_665
In2 Sb6 2.936946 1_555
In2 Sb3 2.976938 1_455
In2 Sb3 2.977051 1_445
In3 Sb7 2.937254 1_555
In3 Sb2 2.976469 1_555
In3 Sb2 2.976501 1_565
As0 In0 2.665388 1_555
As0 Ba4 3.264840 1_555
As0 Ba11 3.306093 1_555
As0 Ba11 3.306632 1_545
As0 Ba7 3.378360 1_555
As0 Ba7 3.378506 1_545
As1 In1 2.666132 1_555
As1 Ba5 3.263790 1_554
As1 Ba10 3.305736 1_565
As1 Ba10 3.305820 1_555
As1 Ba6 3.378876 1_665
As1 Ba6 3.379196 1_655
As2 In2 2.665151 1_555
As2 Ba6 3.264713 1_556
As2 Ba9 3.305210 1_555
As2 Ba9 3.306381 1_545
As2 Ba5 3.378612 1_455
As2 Ba5 3.379148 1_445
As3 In3 2.664973 1_555
As3 Ba7 3.265756 1_555
As3 Ba8 3.306314 1_555
As3 Ba8 3.306583 1_565
As3 Ba4 3.378283 1_565
As3 Ba4 3.378295 1_555
