# generated using pymatgen
data_BaSc2(SeO3)4
_symmetry_space_group_name_H-M   'P 1'
_cell_length_a   5.35961679
_cell_length_b   10.41035973
_cell_length_c   14.19381616
_cell_angle_alpha   49.88651313
_cell_angle_beta   90.00000000
_cell_angle_gamma   90.00000000
_symmetry_Int_Tables_number   1
_chemical_formula_structural   BaSc2(SeO3)4
_chemical_formula_sum   'Ba2 Sc4 Se8 O24'
_cell_volume   605.66064949
_cell_formula_units_Z   2
loop_
 _symmetry_equiv_pos_site_id
 _symmetry_equiv_pos_as_xyz
  1  'x, y, z'
loop_
 _atom_site_type_symbol
 _atom_site_label
 _atom_site_symmetry_multiplicity
 _atom_site_fract_x
 _atom_site_fract_y
 _atom_site_fract_z
 _atom_site_occupancy
  Ba  Ba0  1  0.03947218  0.00000000  0.75000000  1
  Ba  Ba1  1  0.96052782  0.00000000  0.25000000  1
  Sc  Sc0  1  0.00000000  0.50000000  0.50000000  1
  Sc  Sc1  1  0.50000000  0.00000000  0.00000000  1
  Sc  Sc2  1  0.50000000  0.00000000  0.50000000  1
  Sc  Sc3  1  0.00000000  0.50000000  0.00000000  1
  Se  Se0  1  0.50126327  0.32483165  0.18860257  1
  Se  Se1  1  0.01553893  0.73727244  0.60373454  1
  Se  Se2  1  0.01553893  0.26272756  0.89626546  1
  Se  Se3  1  0.98446107  0.26272756  0.39626546  1
  Se  Se4  1  0.49873673  0.32483165  0.68860257  1
  Se  Se5  1  0.49873673  0.67516835  0.81139743  1
  Se  Se6  1  0.50126327  0.67516835  0.31139743  1
  Se  Se7  1  0.98446107  0.73727244  0.10373454  1
  O  O0  1  0.21932384  0.70728267  0.34918482  1
  O  O1  1  0.28335358  0.79747408  0.05306560  1
  O  O2  1  0.78067616  0.70728267  0.84918482  1
  O  O3  1  0.82072408  0.89941522  0.97572906  1
  O  O4  1  0.71664642  0.79747408  0.55306560  1
  O  O5  1  0.30564747  0.34053908  0.58637153  1
  O  O6  1  0.17927592  0.10058478  0.02427094  1
  O  O7  1  0.69435253  0.34053908  0.08637153  1
  O  O8  1  0.78067616  0.29271733  0.65081518  1
  O  O9  1  0.58126212  0.12229542  0.31402815  1
  O  O10  1  0.69435253  0.65946092  0.41362847  1
  O  O11  1  0.28335358  0.20252592  0.44693440  1
  O  O12  1  0.58126212  0.87770458  0.18597185  1
  O  O13  1  0.82072408  0.10058478  0.52427094  1
  O  O14  1  0.41873788  0.12229542  0.81402815  1
  O  O15  1  0.05229938  0.42062194  0.90019355  1
  O  O16  1  0.71664642  0.20252592  0.94693440  1
  O  O17  1  0.94770062  0.42062194  0.40019355  1
  O  O18  1  0.05229938  0.57937806  0.59980645  1
  O  O19  1  0.41873788  0.87770458  0.68597185  1
  O  O20  1  0.30564747  0.65946092  0.91362847  1
  O  O21  1  0.17927592  0.89941522  0.47572906  1
  O  O22  1  0.94770062  0.57937806  0.09980645  1
  O  O23  1  0.21932384  0.29271733  0.15081518  1
loop_
_geom_bond_atom_site_label_1
_geom_bond_atom_site_label_2
_geom_bond_distance
_geom_bond_site_symmetry_2
Ba0 O8 2.768336 1_455
Ba0 O2 2.768336 1_445
Ba0 O14 2.840724 1_555
Ba0 O19 2.840724 1_545
Ba0 O3 2.900542 1_445
Ba0 O13 2.900542 1_455
Ba0 O20 3.063873 1_545
Ba0 O5 3.063873 1_555
Ba1 O23 2.768336 1_655
Ba1 O0 2.768336 1_645
Ba1 O9 2.840724 1_555
Ba1 O12 2.840724 1_545
Ba1 O21 2.900542 1_645
Ba1 O6 2.900542 1_655
Ba1 O10 3.063873 1_545
Ba1 O7 3.063873 1_555
O0 Se6 1.707011 1_555
O0 Sc0 2.160599 1_555
O1 Se7 1.701598 1_455
O1 Sc1 2.077121 1_565
O2 Se5 1.707011 1_555
O2 Sc3 2.160599 1_656
O3 Se7 1.722926 1_556
O3 Sc1 2.152860 1_566
O4 Se1 1.701598 1_655
O4 Sc2 2.077121 1_565
O5 Se4 1.702208 1_555
O5 Sc0 2.078403 1_555
O6 Se2 1.722926 1_554
O6 Sc1 2.152860 1_555
O7 Se0 1.702208 1_555
O7 Sc3 2.078403 1_655
O8 Se4 1.707011 1_555
O8 Sc0 2.160599 1_655
O9 Se0 1.721010 1_555
O9 Sc2 2.108976 1_555
O10 Se6 1.702208 1_555
O10 Sc0 2.078403 1_655
O11 Se3 1.701598 1_455
O11 Sc2 2.077121 1_555
O12 Se6 1.721010 1_555
O12 Sc1 2.108976 1_565
O13 Se3 1.722926 1_555
O13 Sc2 2.152860 1_555
O14 Se4 1.721010 1_555
O14 Sc1 2.108976 1_556
O15 Se2 1.691713 1_555
O15 Sc3 2.068038 1_556
O16 Se2 1.701598 1_655
O16 Sc1 2.077121 1_556
O17 Se3 1.691713 1_555
O17 Sc0 2.068038 1_655
O18 Se1 1.691713 1_555
O18 Sc0 2.068038 1_555
O19 Se5 1.721010 1_555
O19 Sc2 2.108976 1_565
O20 Se5 1.702208 1_555
O20 Sc3 2.078403 1_556
O21 Se1 1.722926 1_555
O21 Sc2 2.152860 1_565
O22 Se7 1.691713 1_555
O22 Sc3 2.068038 1_655
O23 Se0 1.707011 1_555
O23 Sc3 2.160599 1_555
