# generated using pymatgen
data_Rb4V2PdSe8
_symmetry_space_group_name_H-M   'P 1'
_cell_length_a   13.27963171
_cell_length_b   7.41256475
_cell_length_c   9.74643882
_cell_angle_alpha   85.87123504
_cell_angle_beta   90.00000000
_cell_angle_gamma   90.00000000
_symmetry_Int_Tables_number   1
_chemical_formula_structural   Rb4V2PdSe8
_chemical_formula_sum   'Rb8 V4 Pd2 Se16'
_cell_volume   956.91184260
_cell_formula_units_Z   2
loop_
 _symmetry_equiv_pos_site_id
 _symmetry_equiv_pos_as_xyz
  1  'x, y, z'
loop_
 _atom_site_type_symbol
 _atom_site_label
 _atom_site_symmetry_multiplicity
 _atom_site_fract_x
 _atom_site_fract_y
 _atom_site_fract_z
 _atom_site_occupancy
  Rb  Rb0  1  0.13591693  0.81770981  0.67805937  1
  Rb  Rb1  1  0.63591693  0.18229019  0.82194063  1
  Rb  Rb2  1  0.86408307  0.18229019  0.32194063  1
  Rb  Rb3  1  0.36408307  0.81770981  0.17805937  1
  Rb  Rb4  1  0.34885463  0.26909559  0.54291701  1
  Rb  Rb5  1  0.84885463  0.73090441  0.95708299  1
  Rb  Rb6  1  0.65114537  0.73090441  0.45708299  1
  Rb  Rb7  1  0.15114537  0.26909559  0.04291701  1
  V  V0  1  0.42547162  0.74991366  0.76592064  1
  V  V1  1  0.92547162  0.25008634  0.73407936  1
  V  V2  1  0.57452838  0.25008634  0.23407936  1
  V  V3  1  0.07452838  0.74991366  0.26592064  1
  Pd  Pd0  1  0.00000000  0.50000000  0.50000000  1
  Pd  Pd1  1  0.50000000  0.50000000  0.00000000  1
  Se  Se0  1  0.09265373  0.30666345  0.67708016  1
  Se  Se1  1  0.59265373  0.69333655  0.82291984  1
  Se  Se2  1  0.90734627  0.69333655  0.32291984  1
  Se  Se3  1  0.40734627  0.30666345  0.17708016  1
  Se  Se4  1  0.39715228  0.75576113  0.53874551  1
  Se  Se5  1  0.89715228  0.24423887  0.96125449  1
  Se  Se6  1  0.60284772  0.24423887  0.46125449  1
  Se  Se7  1  0.10284772  0.75576113  0.03874551  1
  Se  Se8  1  0.16164474  0.51379145  0.37448499  1
  Se  Se9  1  0.66164474  0.48620855  0.12551501  1
  Se  Se10  1  0.83835526  0.48620855  0.62551501  1
  Se  Se11  1  0.33835526  0.51379145  0.87448499  1
  Se  Se12  1  0.37176401  0.01133445  0.84398343  1
  Se  Se13  1  0.87176401  0.98866555  0.65601657  1
  Se  Se14  1  0.62823599  0.98866555  0.15601657  1
  Se  Se15  1  0.12823599  0.01133445  0.34398343  1
loop_
_geom_bond_atom_site_label_1
_geom_bond_atom_site_label_2
_geom_bond_distance
_geom_bond_site_symmetry_2
Rb0 Se15 3.464000 1_565
Rb0 Se7 3.539681 1_556
Rb0 Se0 3.668986 1_565
Rb0 Se13 3.730662 1_455
Rb0 Se4 3.765504 1_555
Rb0 Se0 3.832174 1_555
Rb0 Se12 3.849494 1_565
Rb0 Se8 3.860833 1_555
Rb0 Se11 3.917428 1_555
Rb1 Se14 3.464000 1_546
Rb1 Se6 3.539681 1_555
Rb1 Se1 3.668986 1_545
Rb1 Se12 3.730662 1_555
Rb1 Se5 3.765504 1_555
Rb1 Se1 3.832174 1_555
Rb1 Se13 3.849494 1_545
Rb1 Se9 3.860833 1_556
Rb1 Se10 3.917428 1_555
Rb2 Se13 3.464000 1_545
Rb2 Se5 3.539681 1_554
Rb2 Se2 3.668986 1_545
Rb2 Se15 3.730662 1_655
Rb2 Se6 3.765504 1_555
Rb2 Se2 3.832174 1_555
Rb2 Se14 3.849494 1_545
Rb2 Se10 3.860833 1_555
Rb2 Se9 3.917428 1_555
Rb3 Se12 3.464000 1_564
Rb3 Se4 3.539681 1_555
Rb3 Se3 3.668986 1_565
Rb3 Se14 3.730662 1_555
Rb3 Se7 3.765504 1_555
Rb3 Se3 3.832174 1_555
Rb3 Se15 3.849494 1_565
Rb3 Se11 3.860833 1_554
Rb3 Se8 3.917428 1_555
Rb4 Se12 3.397965 1_555
Rb4 Se8 3.425882 1_555
Rb4 Se6 3.473506 1_555
Rb4 Se3 3.640255 1_555
Rb4 Se4 3.661355 1_555
Rb4 Se0 3.662672 1_555
Rb4 Se11 3.820566 1_555
Rb4 Se4 3.861899 1_545
Rb4 Se15 4.065312 1_555
Rb5 Se13 3.397965 1_555
Rb5 Se9 3.425882 1_556
Rb5 Se7 3.473506 1_656
Rb5 Se2 3.640255 1_556
Rb5 Se5 3.661355 1_555
Rb5 Se1 3.662672 1_555
Rb5 Se10 3.820566 1_555
Rb5 Se5 3.861899 1_565
Rb5 Se14 4.065312 1_556
Rb6 Se14 3.397965 1_555
Rb6 Se10 3.425882 1_555
Rb6 Se4 3.473506 1_555
Rb6 Se1 3.640255 1_555
Rb6 Se6 3.661355 1_555
Rb6 Se2 3.662672 1_555
Rb6 Se9 3.820566 1_555
Rb6 Se6 3.861899 1_565
Rb6 Se13 4.065312 1_555
Rb7 Se15 3.397965 1_555
Rb7 Se11 3.425882 1_554
Rb7 Se5 3.473506 1_454
Rb7 Se0 3.640255 1_554
Rb7 Se7 3.661355 1_555
Rb7 Se3 3.662672 1_555
Rb7 Se8 3.820566 1_555
Rb7 Se7 3.861899 1_545
Rb7 Se12 4.065312 1_554
Pd0 Se8 2.469166 1_555
Pd0 Se10 2.469166 1_455
Pd0 Se0 2.488032 1_555
Pd0 Se2 2.488032 1_455
Pd0 V3 3.001278 1_555
Pd0 V1 3.001278 1_455
Pd0 Rb0 3.521972 1_555
Pd0 Rb2 3.521972 1_455
Pd1 Se9 2.469166 1_555
Pd1 Se11 2.469166 1_554
Pd1 Se1 2.488032 1_554
Pd1 Se3 2.488032 1_555
Pd1 V2 3.001278 1_555
Pd1 V0 3.001278 1_554
Pd1 Rb3 3.521972 1_555
Pd1 Rb1 3.521972 1_554
Se0 V1 2.319456 1_455
Se1 V0 2.319456 1_555
Se2 V3 2.319456 1_655
Se3 V2 2.319456 1_555
Se4 V0 2.243199 1_555
Se5 V1 2.243199 1_555
Se6 V2 2.243199 1_555
Se7 V3 2.243199 1_555
Se8 V3 2.292321 1_555
Se9 V2 2.292321 1_555
Se10 V1 2.292321 1_555
Se11 V0 2.292321 1_555
Se12 V0 2.248313 1_545
Se13 V1 2.248313 1_565
Se14 V2 2.248313 1_565
Se15 V3 2.248313 1_545
