# generated using pymatgen
data_Hf8Zr2Sn6Ge
_symmetry_space_group_name_H-M   'P 1'
_cell_length_a   5.81440759
_cell_length_b   8.50703727
_cell_length_c   8.50485237
_cell_angle_alpha   120.00850638
_cell_angle_beta   89.92711449
_cell_angle_gamma   90.14572343
_symmetry_Int_Tables_number   1
_chemical_formula_structural   Hf8Zr2Sn6Ge
_chemical_formula_sum   'Hf8 Zr2 Sn6 Ge1'
_cell_volume   364.28608456
_cell_formula_units_Z   1
loop_
 _symmetry_equiv_pos_site_id
 _symmetry_equiv_pos_as_xyz
  1  'x, y, z'
loop_
 _atom_site_type_symbol
 _atom_site_label
 _atom_site_symmetry_multiplicity
 _atom_site_fract_x
 _atom_site_fract_y
 _atom_site_fract_z
 _atom_site_occupancy
  Hf  Hf0  1  0.49972634  0.33334038  0.66669985  1
  Hf  Hf1  1  0.49972634  0.66664053  0.33330015  1
  Hf  Hf2  1  0.99910750  0.66698172  0.33352183  1
  Hf  Hf3  1  0.99910750  0.33345989  0.66647817  1
  Hf  Hf4  1  0.75939535  0.25635764  0.00000000  1
  Hf  Hf5  1  0.76227402  0.74386037  0.74469458  1
  Hf  Hf6  1  0.76227402  0.99916379  0.25530542  1
  Hf  Hf7  1  0.23926018  0.74523613  1.00000000  1
  Zr  Zr0  1  0.23867079  0.25454119  0.25420405  1
  Zr  Zr1  1  0.23867079  0.00033913  0.74579595  1
  Sn  Sn0  1  0.74579385  0.60732337  1.00000000  1
  Sn  Sn1  1  0.74534794  0.39229706  0.39228041  1
  Sn  Sn2  1  0.74534794  0.00001765  0.60771959  1
  Sn  Sn3  1  0.25290222  0.39456962  0.00000000  1
  Sn  Sn4  1  0.25461489  0.60743502  0.60807093  1
  Sn  Sn5  1  0.25461489  0.99936409  0.39192907  1
  Ge  Ge0  1  0.50316343  0.99907143  1.00000000  1
loop_
_geom_bond_atom_site_label_1
_geom_bond_atom_site_label_2
_geom_bond_distance
_geom_bond_site_symmetry_2
Hf0 Sn3 2.980408 1_556
Hf0 Sn1 2.982776 1_555
Hf0 Sn4 2.983023 1_555
Hf0 Sn0 2.983214 1_555
Hf0 Sn5 2.985133 1_545
Hf0 Sn2 2.987944 1_555
Hf1 Sn3 2.980408 1_555
Hf1 Sn2 2.982781 1_565
Hf1 Sn5 2.983023 1_555
Hf1 Sn0 2.983214 1_554
Hf1 Sn4 2.985133 1_555
Hf1 Sn1 2.987951 1_555
Hf2 Sn5 3.004106 1_655
Hf2 Sn3 3.004269 1_655
Hf2 Sn1 3.005956 1_555
Hf2 Sn0 3.006628 1_554
Hf2 Sn2 3.007636 1_565
Hf2 Sn4 3.018559 1_655
Hf3 Sn4 3.004106 1_655
Hf3 Sn3 3.004269 1_656
Hf3 Sn2 3.005949 1_555
Hf3 Sn0 3.006628 1_555
Hf3 Sn1 3.007631 1_555
Hf3 Sn5 3.018559 1_645
Hf4 Sn2 2.935201 1_554
Hf4 Sn1 2.935202 1_555
Hf4 Sn0 2.986927 1_554
Hf4 Sn3 3.098230 1_655
Hf4 Sn3 3.173773 1_555
Hf5 Sn0 2.931660 1_555
Hf5 Sn2 2.942121 1_565
Hf5 Sn1 2.995109 1_555
Hf5 Sn4 3.090554 1_655
Hf5 Sn4 3.170529 1_555
Hf6 Sn0 2.931647 1_554
Hf6 Sn1 2.942129 1_565
Hf6 Sn2 2.995097 1_565
Hf6 Sn5 3.090551 1_655
Hf6 Sn5 3.170526 1_555
Hf7 Sn5 2.929898 1_556
Hf7 Sn4 2.929898 1_555
Hf7 Sn3 2.984389 1_556
Hf7 Sn0 3.097053 1_455
Hf7 Sn0 3.173044 1_555
Sn1 Zr0 3.100317 1_655
Sn1 Zr0 3.169566 1_555
Sn2 Zr1 3.100315 1_655
Sn2 Zr1 3.169564 1_555
Sn3 Zr1 2.945335 1_554
Sn3 Zr0 2.945348 1_555
Sn4 Zr1 2.939007 1_565
Sn4 Zr0 3.006766 1_555
Sn5 Zr0 2.938991 1_565
Sn5 Zr1 3.006758 1_565
Ge0 Hf5 2.644056 1_555
Ge0 Hf6 2.644064 1_556
Ge0 Hf4 2.644546 1_566
Ge0 Hf7 2.645865 1_555
Ge0 Zr0 2.659151 1_566
Ge0 Zr1 2.659159 1_565
