# generated using pymatgen
data_Hf6GaAs5Ru6
_symmetry_space_group_name_H-M   'P 1'
_cell_length_a   7.61283427
_cell_length_b   7.63148597
_cell_length_c   7.61283462
_cell_angle_alpha   128.33716545
_cell_angle_beta   119.91741968
_cell_angle_gamma   83.09264454
_symmetry_Int_Tables_number   1
_chemical_formula_structural   Hf6GaAs5Ru6
_chemical_formula_sum   'Hf6 Ga1 As5 Ru6'
_cell_volume   288.82194331
_cell_formula_units_Z   1
loop_
 _symmetry_equiv_pos_site_id
 _symmetry_equiv_pos_as_xyz
  1  'x, y, z'
loop_
 _atom_site_type_symbol
 _atom_site_label
 _atom_site_symmetry_multiplicity
 _atom_site_fract_x
 _atom_site_fract_y
 _atom_site_fract_z
 _atom_site_occupancy
  Hf  Hf0  1  0.46902126  0.69910827  0.73008701  1
  Hf  Hf1  1  0.52431297  0.25518726  0.23087429  1
  Hf  Hf2  1  0.74890656  0.83394933  0.58504277  1
  Hf  Hf3  1  0.24877353  0.83112813  0.08235361  1
  Hf  Hf4  1  0.05537930  0.25633690  0.70095860  1
  Hf  Hf5  1  0.95114989  0.65761757  0.20646768  1
  Ga  Ga0  1  0.27701624  0.27133121  0.49431597  1
  As  As0  1  0.72567443  0.23238188  0.00670746  1
  As  As1  1  0.32902307  0.58499952  0.24826685  1
  As  As2  1  0.67134454  0.91998677  0.25909678  1
  As  As3  1  0.16088998  0.91998677  0.74864122  1
  As  As4  1  0.83673266  0.58499952  0.75597645  1
  Ru  Ru0  1  0.50085654  0.49895925  0.99929631  1
  Ru  Ru1  1  0.99966294  0.49895925  0.49810271  1
  Ru  Ru2  1  0.08999064  0.25196472  0.09446625  1
  Ru  Ru3  1  0.89877719  0.00536847  0.15037769  1
  Ru  Ru4  1  0.35499078  0.00536847  0.60659127  1
  Ru  Ru5  1  0.65749847  0.25196472  0.66197508  1
loop_
_geom_bond_atom_site_label_1
_geom_bond_atom_site_label_2
_geom_bond_distance
_geom_bond_site_symmetry_2
Hf0 Ru3 2.919577 1_566
Hf0 Ru4 2.919577 1_565
Hf0 Ru1 3.144999 1_455
Hf0 Ru0 3.144999 1_555
Hf1 Ru2 2.928193 1_555
Hf1 Ru5 2.928201 1_555
Hf1 Ru1 3.205560 1_555
Hf1 Ru0 3.205560 1_554
Hf1 Ru3 3.335098 1_555
Hf1 Ru4 3.335098 1_554
Hf2 Ru5 2.925513 1_565
Hf2 Ru2 2.925515 1_666
Hf2 Ru1 2.933455 1_555
Hf2 Ru0 2.933455 1_554
Hf2 Ru4 3.164180 1_565
Hf2 Ru3 3.164181 1_566
Hf3 Ru1 2.925810 1_454
Hf3 Ru0 2.925815 1_554
Hf3 Ru3 2.967422 1_465
Hf3 Ru4 2.967427 1_565
Hf4 Ru4 2.874650 1_555
Hf4 Ru3 2.874655 1_455
Hf4 Ru2 2.894707 1_556
Hf4 Ru5 2.894715 1_455
Hf4 Ru0 2.949250 1_555
Hf4 Ru1 2.949255 1_455
Hf5 Ru5 2.874909 1_554
Hf5 Ru2 2.874912 1_655
Hf5 Ru4 2.892361 1_665
Hf5 Ru3 2.892361 1_565
Hf5 Ru0 2.990151 1_554
Hf5 Ru1 2.990151 1_555
Ga0 Ru5 2.546405 1_555
Ga0 Ru2 2.546412 1_555
Ga0 Ru4 2.561032 1_555
Ga0 Ru3 2.561037 1_455
Ga0 Ru0 2.567688 1_555
Ga0 Ru1 2.567693 1_455
Ga0 Hf0 2.697621 1_555
Ga0 Hf3 2.756497 1_545
Ga0 Hf4 2.872672 1_555
As0 Ru0 2.505936 1_554
As0 Ru1 2.505936 1_555
As0 Ru5 2.507658 1_554
As0 Ru2 2.507665 1_655
As0 Ru4 2.509598 1_554
As0 Ru3 2.509598 1_555
As0 Hf1 2.733006 1_555
As0 Hf2 2.812368 1_544
As0 Hf5 2.898947 1_555
As1 Ru2 2.537156 1_555
As1 Ru0 2.541159 1_554
As1 Ru4 2.555399 1_565
As1 Hf3 2.719224 1_555
As1 Hf1 2.728696 1_555
As1 Hf5 2.757882 1_455
As1 Hf4 2.761339 1_554
As1 Hf2 2.764682 1_555
As1 Hf0 2.776623 1_555
As2 Ru5 2.540672 1_565
As2 Ru3 2.545033 1_565
As2 Ru0 2.545363 1_554
As2 Hf2 2.720924 1_555
As2 Hf0 2.729090 1_554
As2 Hf5 2.745397 1_555
As2 Hf1 2.756093 1_565
As2 Hf3 2.773847 1_555
As2 Hf4 2.781168 1_665
As3 Ru2 2.540671 1_566
As3 Ru4 2.545026 1_565
As3 Ru1 2.545365 1_455
As3 Hf2 2.720926 1_455
As3 Hf0 2.729089 1_555
As3 Hf5 2.745391 1_455
As3 Hf1 2.756095 1_566
As3 Hf3 2.773849 1_556
As3 Hf4 2.781159 1_565
As4 Ru5 2.537161 1_555
As4 Ru1 2.541159 1_555
As4 Ru3 2.555399 1_566
As4 Hf3 2.719218 1_656
As4 Hf1 2.728696 1_555
As4 Hf5 2.757882 1_556
As4 Hf4 2.761344 1_655
As4 Hf2 2.764682 1_555
As4 Hf0 2.776623 1_555
Ru0 Ru5 2.842271 1_555
Ru0 Ru4 2.843219 1_555
Ru1 Ru2 2.842277 1_655
Ru1 Ru3 2.843219 1_555
Ru2 Ru3 2.848225 1_455
Ru4 Ru5 2.848220 1_555
