# generated using pymatgen
data_Cs2LuP2S7
_symmetry_space_group_name_H-M   'P 1'
_cell_length_a   9.61750277
_cell_length_b   9.61750357
_cell_length_c   9.21895432
_cell_angle_alpha   71.99539552
_cell_angle_beta   71.99538671
_cell_angle_gamma   69.67255158
_symmetry_Int_Tables_number   1
_chemical_formula_structural   Cs2LuP2S7
_chemical_formula_sum   'Cs4 Lu2 P4 S14'
_cell_volume   740.74978269
_cell_formula_units_Z   2
loop_
 _symmetry_equiv_pos_site_id
 _symmetry_equiv_pos_as_xyz
  1  'x, y, z'
loop_
 _atom_site_type_symbol
 _atom_site_label
 _atom_site_symmetry_multiplicity
 _atom_site_fract_x
 _atom_site_fract_y
 _atom_site_fract_z
 _atom_site_occupancy
  Cs  Cs0  1  0.61102733  0.05088723  0.16797569  1
  Cs  Cs1  1  0.94911277  0.38897267  0.83202431  1
  Cs  Cs2  1  0.38897267  0.94911277  0.83202431  1
  Cs  Cs3  1  0.05088723  0.61102733  0.16797569  1
  Lu  Lu0  1  0.68369853  0.31630147  0.50000000  1
  Lu  Lu1  1  0.31630147  0.68369853  0.50000000  1
  P  P0  1  0.94784308  0.94784308  0.44168555  1
  P  P1  1  0.05215692  0.05215692  0.55831445  1
  P  P2  1  0.39402070  0.39402070  0.81234412  1
  P  P3  1  0.60597930  0.60597930  0.18765588  1
  S  S0  1  0.68400293  0.37711459  0.20065915  1
  S  S1  1  0.62288541  0.31599707  0.79934085  1
  S  S2  1  0.31599707  0.62288541  0.79934085  1
  S  S3  1  0.37711459  0.68400293  0.20065915  1
  S  S4  1  0.00475014  0.00475014  0.21122826  1
  S  S5  1  0.99524986  0.99524986  0.78877174  1
  S  S6  1  0.71857817  0.02311950  0.53290844  1
  S  S7  1  0.97688050  0.28142183  0.46709156  1
  S  S8  1  0.28142183  0.97688050  0.46709156  1
  S  S9  1  0.02311950  0.71857817  0.53290844  1
  S  S10  1  0.27769176  0.27769176  0.99774839  1
  S  S11  1  0.72230824  0.72230824  0.00225161  1
  S  S12  1  0.37177234  0.37177234  0.59962847  1
  S  S13  1  0.62822766  0.62822766  0.40037153  1
loop_
_geom_bond_atom_site_label_1
_geom_bond_atom_site_label_2
_geom_bond_distance
_geom_bond_site_symmetry_2
Cs0 S1 3.559373 1_554
Cs0 S0 3.559812 1_555
Cs0 S11 3.618001 1_545
Cs0 S8 3.620756 1_545
Cs0 S10 3.692399 1_554
Cs0 S6 3.723394 1_555
Cs0 S4 3.788286 1_655
Cs0 S13 3.938182 1_545
Cs1 S0 3.559372 1_556
Cs1 S1 3.559812 1_555
Cs1 S10 3.618001 1_655
Cs1 S9 3.620757 1_655
Cs1 S11 3.692398 1_556
Cs1 S7 3.723393 1_555
Cs1 S5 3.788286 1_545
Cs1 S12 3.938181 1_655
Cs2 S3 3.559373 1_556
Cs2 S2 3.559812 1_555
Cs2 S10 3.618001 1_565
Cs2 S6 3.620756 1_565
Cs2 S11 3.692399 1_556
Cs2 S8 3.723394 1_555
Cs2 S5 3.788286 1_455
Cs2 S12 3.938182 1_565
Cs3 S2 3.559372 1_554
Cs3 S3 3.559812 1_555
Cs3 S11 3.618001 1_455
Cs3 S7 3.620757 1_455
Cs3 S10 3.692398 1_554
Cs3 S9 3.723393 1_555
Cs3 S4 3.788286 1_565
Cs3 S13 3.938181 1_455
Lu0 S1 2.637415 1_555
Lu0 S0 2.637415 1_555
Lu0 S7 2.651808 1_555
Lu0 S6 2.651808 1_555
Lu0 S12 2.759627 1_555
Lu0 S13 2.759627 1_555
Lu1 S3 2.637415 1_555
Lu1 S2 2.637415 1_555
Lu1 S9 2.651808 1_555
Lu1 S8 2.651808 1_555
Lu1 S13 2.759627 1_555
Lu1 S12 2.759627 1_555
P0 S4 1.970628 1_665
P0 S6 2.052850 1_565
P0 S9 2.052851 1_655
P0 P1 2.280779 1_665
P1 S5 1.970628 1_445
P1 S8 2.052850 1_545
P1 S7 2.052851 1_455
P2 S10 1.982481 1_555
P2 S1 2.041391 1_555
P2 S2 2.041391 1_555
P2 S12 2.118432 1_555
P3 S11 1.982481 1_555
P3 S3 2.041391 1_555
P3 S0 2.041391 1_555
P3 S13 2.118432 1_555
