# generated using pymatgen
data_Ca3Nb2TcN6
_symmetry_space_group_name_H-M   'P 1'
_cell_length_a   5.48840189
_cell_length_b   5.48840235
_cell_length_c   5.81518565
_cell_angle_alpha   98.94598063
_cell_angle_beta   98.94598248
_cell_angle_gamma   119.70310288
_symmetry_Int_Tables_number   1
_chemical_formula_structural   Ca3Nb2TcN6
_chemical_formula_sum   'Ca3 Nb2 Tc1 N6'
_cell_volume   144.67538375
_cell_formula_units_Z   1
loop_
 _symmetry_equiv_pos_site_id
 _symmetry_equiv_pos_as_xyz
  1  'x, y, z'
loop_
 _atom_site_type_symbol
 _atom_site_label
 _atom_site_symmetry_multiplicity
 _atom_site_fract_x
 _atom_site_fract_y
 _atom_site_fract_z
 _atom_site_occupancy
  Ca  Ca0  1  0.83686747  0.16313253  0.50000000  1
  Ca  Ca1  1  0.16313253  0.83686747  0.50000000  1
  Ca  Ca2  1  0.50000000  0.50000000  0.50000000  1
  Nb  Nb0  1  0.32891284  0.67108716  1.00000000  1
  Nb  Nb1  1  0.67108716  0.32891284  0.00000000  1
  Tc  Tc0  1  0.00000000  0.00000000  0.00000000  1
  N  N0  1  0.41593086  0.07243266  0.21689958  1
  N  N1  1  0.92756734  0.58406914  0.78310042  1
  N  N2  1  0.58406914  0.92756734  0.78310042  1
  N  N3  1  0.07243266  0.41593086  0.21689958  1
  N  N4  1  0.73219409  0.73219409  0.21311193  1
  N  N5  1  0.26780591  0.26780591  0.78688807  1
loop_
_geom_bond_atom_site_label_1
_geom_bond_atom_site_label_2
_geom_bond_distance
_geom_bond_site_symmetry_2
Ca0 N0 2.391221 1_555
Ca0 N1 2.391221 1_555
Ca0 N5 2.415675 1_655
Ca0 N4 2.415675 1_545
Ca0 N2 2.429294 1_545
Ca0 N3 2.429294 1_655
Ca1 N2 2.391221 1_555
Ca1 N3 2.391221 1_555
Ca1 N4 2.415675 1_455
Ca1 N5 2.415675 1_565
Ca1 N0 2.429294 1_565
Ca1 N1 2.429294 1_455
Ca2 N5 2.396728 1_555
Ca2 N4 2.396728 1_555
Ca2 N1 2.432938 1_555
Ca2 N3 2.432938 1_555
Ca2 N2 2.432938 1_555
Ca2 N0 2.432938 1_555
N0 Nb0 2.139416 1_544
N0 Nb1 2.163680 1_555
N0 Tc0 2.238152 1_555
N1 Nb0 2.139416 1_655
N1 Nb1 2.163680 1_556
N1 Tc0 2.238152 1_666
N2 Nb1 2.139416 1_566
N2 Nb0 2.163680 1_555
N2 Tc0 2.238152 1_666
N3 Nb1 2.139416 1_455
N3 Nb0 2.163680 1_554
N3 Tc0 2.238152 1_555
N4 Nb0 2.197570 1_554
N4 Nb1 2.197570 1_555
N4 Tc0 2.201966 1_665
N5 Nb1 2.197570 1_556
N5 Nb0 2.197570 1_555
N5 Tc0 2.201966 1_556
