# generated using pymatgen
data_LiMg(Sn4Os)2
_symmetry_space_group_name_H-M   'P 1'
_cell_length_a   7.34780395
_cell_length_b   7.34780373
_cell_length_c   7.34780381
_cell_angle_alpha   125.45577006
_cell_angle_beta   125.45576455
_cell_angle_gamma   80.78447496
_symmetry_Int_Tables_number   1
_chemical_formula_structural   LiMg(Sn4Os)2
_chemical_formula_sum   'Li1 Mg1 Sn8 Os2'
_cell_volume   253.75637017
_cell_formula_units_Z   1
loop_
 _symmetry_equiv_pos_site_id
 _symmetry_equiv_pos_as_xyz
  1  'x, y, z'
loop_
 _atom_site_type_symbol
 _atom_site_label
 _atom_site_symmetry_multiplicity
 _atom_site_fract_x
 _atom_site_fract_y
 _atom_site_fract_z
 _atom_site_occupancy
  Li  Li0  1  0.00000000  0.00000000  0.00000000  1
  Mg  Mg0  1  0.50000000  0.50000000  0.00000000  1
  Sn  Sn0  1  0.71155978  0.52323176  0.51121272  1
  Sn  Sn1  1  0.52323176  0.01201904  0.81167198  1
  Sn  Sn2  1  0.20034706  0.71155978  0.18832802  1
  Sn  Sn3  1  0.79965294  0.28844022  0.81167198  1
  Sn  Sn4  1  0.47676824  0.98798096  0.18832802  1
  Sn  Sn5  1  0.28844022  0.47676824  0.48878728  1
  Sn  Sn6  1  0.98798096  0.79965294  0.51121272  1
  Sn  Sn7  1  0.01201904  0.20034706  0.48878728  1
  Os  Os0  1  0.25515448  0.25515448  0.00000000  1
  Os  Os1  1  0.74484552  0.74484552  1.00000000  1
loop_
_geom_bond_atom_site_label_1
_geom_bond_atom_site_label_2
_geom_bond_distance
_geom_bond_site_symmetry_2
Li0 Os0 2.855831 1_555
Li0 Os1 2.855831 1_444
Li0 Sn7 2.934913 1_555
Li0 Sn6 2.934913 1_444
Li0 Sn3 2.934913 1_454
Li0 Sn2 2.934913 1_545
Li0 Sn4 2.934913 1_545
Li0 Sn1 2.934913 1_454
Li0 Sn5 2.934913 1_555
Li0 Sn0 2.934913 1_444
Mg0 Os1 2.740448 1_554
Mg0 Os0 2.740448 1_555
Mg0 Sn3 3.020288 1_554
Mg0 Sn2 3.020288 1_555
Mg0 Sn4 3.020288 1_555
Mg0 Sn1 3.020288 1_554
Mg0 Sn0 3.020288 1_555
Mg0 Sn5 3.020288 1_554
Mg0 Sn6 3.020289 1_555
Mg0 Sn7 3.020289 1_554
Os0 Sn4 2.816726 1_545
Os0 Sn5 2.816726 1_555
Os0 Sn3 2.816726 1_454
Os0 Sn6 2.816726 1_444
Os0 Sn1 2.855456 1_554
Os0 Sn2 2.855456 1_555
Os0 Sn7 2.855457 1_554
Os0 Sn0 2.855457 1_555
Os1 Sn1 2.816726 1_565
Os1 Sn0 2.816726 1_555
Os1 Sn2 2.816726 1_656
Os1 Sn7 2.816726 1_666
Os1 Sn4 2.855456 1_556
Os1 Sn3 2.855456 1_555
Os1 Sn6 2.855457 1_556
Os1 Sn5 2.855457 1_555
