# generated using pymatgen
data_Ca2ZnWN4
_symmetry_space_group_name_H-M   'P 1'
_cell_length_a   5.81500841
_cell_length_b   5.95591255
_cell_length_c   6.53920562
_cell_angle_alpha   73.84725455
_cell_angle_beta   90.00000000
_cell_angle_gamma   90.00000000
_symmetry_Int_Tables_number   1
_chemical_formula_structural   Ca2ZnWN4
_chemical_formula_sum   'Ca4 Zn2 W2 N8'
_cell_volume   217.53624530
_cell_formula_units_Z   2
loop_
 _symmetry_equiv_pos_site_id
 _symmetry_equiv_pos_as_xyz
  1  'x, y, z'
loop_
 _atom_site_type_symbol
 _atom_site_label
 _atom_site_symmetry_multiplicity
 _atom_site_fract_x
 _atom_site_fract_y
 _atom_site_fract_z
 _atom_site_occupancy
  Ca  Ca0  1  0.25000000  0.26576432  0.05762400  1
  Ca  Ca1  1  0.75000000  0.73423568  0.94237600  1
  Ca  Ca2  1  0.75000000  0.76790515  0.43238247  1
  Ca  Ca3  1  0.25000000  0.23209485  0.56761753  1
  Zn  Zn0  1  0.75000000  0.28146065  0.30896608  1
  Zn  Zn1  1  0.25000000  0.71853935  0.69103392  1
  W  W0  1  0.25000000  0.72617236  0.19568609  1
  W  W1  1  0.75000000  0.27382764  0.80431391  1
  N  N0  1  0.50177924  0.47665484  0.75315561  1
  N  N1  1  0.00177924  0.52334516  0.24684439  1
  N  N2  1  0.49822076  0.52334516  0.24684439  1
  N  N3  1  0.99822076  0.47665484  0.75315561  1
  N  N4  1  0.75000000  0.08064502  0.61737474  1
  N  N5  1  0.25000000  0.91935498  0.38262526  1
  N  N6  1  0.75000000  0.09243912  0.09028555  1
  N  N7  1  0.25000000  0.90756088  0.90971445  1
loop_
_geom_bond_atom_site_label_1
_geom_bond_atom_site_label_2
_geom_bond_distance
_geom_bond_site_symmetry_2
Ca0 N0 2.508749 1_554
Ca0 N3 2.508749 1_454
Ca0 N5 2.516691 1_545
Ca0 N7 2.575874 1_544
Ca0 N2 2.650320 1_555
Ca0 N1 2.650320 1_555
Ca1 N1 2.508749 1_656
Ca1 N2 2.508749 1_556
Ca1 N4 2.516691 1_565
Ca1 N6 2.575874 1_566
Ca1 N3 2.650320 1_555
Ca1 N0 2.650320 1_555
Ca2 N4 2.487279 1_565
Ca2 N6 2.516862 1_565
Ca2 N1 2.592395 1_655
Ca2 N2 2.592395 1_555
Ca2 N3 2.732742 1_555
Ca2 N0 2.732742 1_555
Ca2 N5 3.034764 1_655
Ca2 N5 3.034764 1_555
Ca3 N5 2.487279 1_545
Ca3 N7 2.516862 1_545
Ca3 N0 2.592395 1_555
Ca3 N3 2.592395 1_455
Ca3 N2 2.732742 1_555
Ca3 N1 2.732742 1_555
Ca3 N4 3.034764 1_455
Ca3 N4 3.034764 1_555
N0 W1 1.851970 1_555
N0 Zn1 2.014556 1_555
N1 W0 1.851970 1_555
N1 Zn0 2.014556 1_455
N2 W0 1.851970 1_555
N2 Zn0 2.014556 1_555
N3 W1 1.851970 1_555
N3 Zn1 2.014556 1_655
N4 W1 1.897565 1_555
N4 Zn0 2.038551 1_555
N5 W0 1.897565 1_555
N5 Zn1 2.038551 1_555
N6 W1 1.881504 1_554
N6 Zn0 2.051352 1_555
N7 W0 1.881504 1_556
N7 Zn1 2.051352 1_555
