# generated using pymatgen
data_Ca3YAs3
_symmetry_space_group_name_H-M   'P 1'
_cell_length_a   7.66746117
_cell_length_b   7.73577754
_cell_length_c   7.66746154
_cell_angle_alpha   109.55148551
_cell_angle_beta   109.08258938
_cell_angle_gamma   109.55149255
_symmetry_Int_Tables_number   1
_chemical_formula_structural   Ca3YAs3
_chemical_formula_sum   'Ca6 Y2 As6'
_cell_volume   351.07066656
_cell_formula_units_Z   2
loop_
 _symmetry_equiv_pos_site_id
 _symmetry_equiv_pos_as_xyz
  1  'x, y, z'
loop_
 _atom_site_type_symbol
 _atom_site_label
 _atom_site_symmetry_multiplicity
 _atom_site_fract_x
 _atom_site_fract_y
 _atom_site_fract_z
 _atom_site_occupancy
  Ca  Ca0  1  0.36613893  0.36276921  0.36921467  1
  Ca  Ca1  1  0.99643950  0.13022204  0.49344834  1
  Ca  Ca2  1  0.86921467  0.86276921  0.86613893  1
  Ca  Ca3  1  0.99344834  0.63022204  0.49643950  1
  Ca  Ca4  1  0.63552829  0.50667030  0.00308755  1
  Ca  Ca5  1  0.50308755  0.00667030  0.13552829  1
  Y  Y0  1  0.13680577  0.49987726  0.00017221  1
  Y  Y1  1  0.50017221  0.99987726  0.63680577  1
  As  As0  1  0.87585033  0.24963680  0.11331032  1
  As  As1  1  0.13303837  0.86965420  0.25314606  1
  As  As2  1  0.37186968  0.63117018  0.75194797  1
  As  As3  1  0.25194797  0.13117018  0.87186968  1
  As  As4  1  0.75314606  0.36965420  0.63303837  1
  As  As5  1  0.61331032  0.74963680  0.37585033  1
loop_
_geom_bond_atom_site_label_1
_geom_bond_atom_site_label_2
_geom_bond_distance
_geom_bond_site_symmetry_2
As0 Y0 2.858282 1_655
As0 Ca2 2.930797 1_544
As0 Ca5 2.944116 1_555
As0 Ca3 2.968695 1_555
As0 Y1 3.169849 1_544
As0 Ca0 3.251713 1_655
As0 Ca4 3.259127 1_555
As0 Ca1 3.288668 1_555
As1 Y1 2.880381 1_555
As1 Y0 2.885134 1_555
As1 Ca1 2.957010 1_465
As1 Ca2 2.966025 1_454
As1 Ca5 3.207373 1_565
As1 Ca3 3.216716 1_455
As1 Ca4 3.249213 1_455
As1 Ca0 3.265325 1_565
As2 Ca5 2.913949 1_566
As2 Ca3 2.918278 1_455
As2 Ca0 2.949786 1_555
As2 Ca4 2.953205 1_556
As2 Y0 3.195918 1_556
As2 Y1 3.202763 1_555
As2 Ca2 3.272992 1_555
As2 Ca1 3.300673 1_455
As3 Ca4 2.913949 1_556
As3 Ca1 2.918278 1_455
As3 Ca2 2.949785 1_445
As3 Ca5 2.953205 1_556
As3 Y1 3.195918 1_545
As3 Y0 3.202764 1_556
As3 Ca0 3.272992 1_556
As3 Ca3 3.300673 1_445
As4 Y0 2.880381 1_656
As4 Y1 2.885134 1_545
As4 Ca3 2.957010 1_555
As4 Ca0 2.966024 1_555
As4 Ca4 3.207373 1_556
As4 Ca1 3.216716 1_555
As4 Ca5 3.249213 1_555
As4 Ca2 3.265325 1_555
As5 Y1 2.858283 1_555
As5 Ca0 2.930797 1_555
As5 Ca4 2.944117 1_555
As5 Ca1 2.968695 1_565
As5 Y0 3.169849 1_555
As5 Ca2 3.251713 1_555
As5 Ca5 3.259127 1_565
As5 Ca3 3.288668 1_555
