# generated using pymatgen
data_Hf7Ta(Rh2N)2
_symmetry_space_group_name_H-M   'P 1'
_cell_length_a   8.66715560
_cell_length_b   8.61634359
_cell_length_c   8.61634195
_cell_angle_alpha   59.61815546
_cell_angle_beta   59.80473157
_cell_angle_gamma   59.80473237
_symmetry_Int_Tables_number   1
_chemical_formula_structural   Hf7Ta(Rh2N)2
_chemical_formula_sum   'Hf14 Ta2 Rh8 N4'
_cell_volume   452.33252982
_cell_formula_units_Z   2
loop_
 _symmetry_equiv_pos_site_id
 _symmetry_equiv_pos_as_xyz
  1  'x, y, z'
loop_
 _atom_site_type_symbol
 _atom_site_label
 _atom_site_symmetry_multiplicity
 _atom_site_fract_x
 _atom_site_fract_y
 _atom_site_fract_z
 _atom_site_occupancy
  Hf  Hf0  1  0.62500000  0.12500000  0.62500000  1
  Hf  Hf1  1  0.62500000  0.62500000  0.12500000  1
  Hf  Hf2  1  0.81579091  0.81583043  0.18483987  1
  Hf  Hf3  1  0.18353879  0.18483987  0.81583043  1
  Hf  Hf4  1  0.81579091  0.18483987  0.81583043  1
  Hf  Hf5  1  0.18353879  0.81583043  0.18483987  1
  Hf  Hf6  1  0.18548640  0.81451360  0.81451360  1
  Hf  Hf7  1  0.81729930  0.18270070  0.18270070  1
  Hf  Hf8  1  0.43420909  0.43416957  0.06516013  1
  Hf  Hf9  1  0.06646121  0.06516013  0.43416957  1
  Hf  Hf10  1  0.43420909  0.06516013  0.43416957  1
  Hf  Hf11  1  0.06646121  0.43416957  0.06516013  1
  Hf  Hf12  1  0.06451360  0.43548640  0.43548640  1
  Hf  Hf13  1  0.43270070  0.06729930  0.06729930  1
  Ta  Ta0  1  0.12500000  0.62500000  0.62500000  1
  Ta  Ta1  1  0.62500000  0.62500000  0.62500000  1
  Rh  Rh0  1  0.77000155  0.41285106  0.41285106  1
  Rh  Rh1  1  0.40955423  0.76332750  0.41756403  1
  Rh  Rh2  1  0.40955423  0.41756403  0.76332750  1
  Rh  Rh3  1  0.40429833  0.41285106  0.41285106  1
  Rh  Rh4  1  0.47999845  0.83714894  0.83714894  1
  Rh  Rh5  1  0.84044577  0.48667250  0.83243597  1
  Rh  Rh6  1  0.84044577  0.83243597  0.48667250  1
  Rh  Rh7  1  0.84570167  0.83714894  0.83714894  1
  N  N0  1  0.62500000  0.12500000  0.12500000  1
  N  N1  1  0.12500000  0.62500000  0.12500000  1
  N  N2  1  0.12500000  0.12500000  0.62500000  1
  N  N3  1  0.12500000  0.12500000  0.12500000  1
loop_
_geom_bond_atom_site_label_1
_geom_bond_atom_site_label_2
_geom_bond_distance
_geom_bond_site_symmetry_2
Hf0 Rh7 2.703868 1_545
Hf0 Rh3 2.703868 1_555
Hf0 Rh0 2.703878 1_555
Hf0 Rh4 2.703878 1_545
Hf0 Rh2 2.706933 1_555
Hf0 Rh6 2.706933 1_545
Hf1 Rh7 2.703868 1_554
Hf1 Rh3 2.703868 1_555
Hf1 Rh0 2.703878 1_555
Hf1 Rh4 2.703878 1_554
Hf1 Rh1 2.706933 1_555
Hf1 Rh5 2.706933 1_554
Hf2 N0 2.265821 1_565
Hf2 N1 2.277434 1_655
Hf2 Rh7 2.790332 1_554
Hf2 Rh6 2.792113 1_555
Hf3 N3 2.265820 1_556
Hf3 N2 2.277434 1_555
Hf3 Rh4 2.790325 1_545
Hf3 Rh5 2.792114 1_455
Hf4 N0 2.265820 1_556
Hf4 N2 2.277434 1_655
Hf4 Rh7 2.790332 1_545
Hf4 Rh5 2.792114 1_555
Hf5 N3 2.265821 1_565
Hf5 N1 2.277434 1_555
Hf5 Rh4 2.790325 1_554
Hf5 Rh6 2.792114 1_455
Hf6 N1 2.264902 1_556
Hf6 N2 2.264903 1_565
Hf6 Rh4 2.762567 1_555
Hf6 Rh7 2.762585 1_455
Hf7 N0 2.277993 1_555
Hf7 N3 2.277993 1_655
Hf7 Rh5 2.816436 1_554
Hf7 Rh6 2.816436 1_545
Hf8 N0 2.265821 1_555
Hf8 N1 2.277434 1_555
Hf8 Rh3 2.790332 1_555
Hf8 Rh2 2.792113 1_554
Hf9 N3 2.265820 1_555
Hf9 N2 2.277434 1_555
Hf9 Rh0 2.790325 1_455
Hf9 Rh1 2.792114 1_545
Hf10 N0 2.265820 1_555
Hf10 N2 2.277434 1_555
Hf10 Rh3 2.790332 1_555
Hf10 Rh1 2.792114 1_545
Hf11 N3 2.265821 1_555
Hf11 N1 2.277434 1_555
Hf11 Rh0 2.790325 1_455
Hf11 Rh2 2.792114 1_554
Hf12 N1 2.264902 1_555
Hf12 N2 2.264903 1_555
Hf12 Rh0 2.762567 1_455
Hf12 Rh3 2.762585 1_555
Hf13 N0 2.277993 1_555
Hf13 N3 2.277993 1_555
Hf13 Rh1 2.816436 1_545
Hf13 Rh2 2.816436 1_554
Rh0 Ta1 2.649614 1_555
Rh1 Ta1 2.658120 1_555
Rh1 Ta0 2.658120 1_555
Rh2 Ta0 2.658120 1_555
Rh2 Ta1 2.658120 1_555
Rh3 Ta0 2.649618 1_555
Rh4 Ta1 2.649614 1_555
Rh5 Ta1 2.658120 1_555
Rh5 Ta0 2.658120 1_655
Rh6 Ta0 2.658120 1_655
Rh6 Ta1 2.658120 1_555
Rh7 Ta0 2.649618 1_655
