# generated using pymatgen
data_Ti6GaAsN2
_symmetry_space_group_name_H-M   'P 1'
_cell_length_a   5.48051412
_cell_length_b   5.48051635
_cell_length_c   8.05900942
_cell_angle_alpha   90.00000000
_cell_angle_beta   90.00000000
_cell_angle_gamma   146.26276885
_symmetry_Int_Tables_number   1
_chemical_formula_structural   Ti6GaAsN2
_chemical_formula_sum   'Ti6 Ga1 As1 N2'
_cell_volume   134.43691100
_cell_formula_units_Z   1
loop_
 _symmetry_equiv_pos_site_id
 _symmetry_equiv_pos_as_xyz
  1  'x, y, z'
loop_
 _atom_site_type_symbol
 _atom_site_label
 _atom_site_symmetry_multiplicity
 _atom_site_fract_x
 _atom_site_fract_y
 _atom_site_fract_z
 _atom_site_occupancy
  Ti  Ti0  1  0.95342433  0.04657567  0.75000000  1
  Ti  Ti1  1  0.05429251  0.94570749  0.25000000  1
  Ti  Ti2  1  0.62522955  0.37477045  0.54499314  1
  Ti  Ti3  1  0.37213723  0.62786277  0.44815537  1
  Ti  Ti4  1  0.37213723  0.62786277  0.05184463  1
  Ti  Ti5  1  0.62522955  0.37477045  0.95500686  1
  Ga  Ga0  1  0.25312109  0.74687891  0.75000000  1
  As  As0  1  0.74541764  0.25458236  0.25000000  1
  N  N0  1  0.99950545  0.00049455  0.49760618  1
  N  N1  1  0.99950545  0.00049455  0.00239382  1
loop_
_geom_bond_atom_site_label_1
_geom_bond_atom_site_label_2
_geom_bond_distance
_geom_bond_site_symmetry_2
Ga0 Ti0 2.635070 1_565
Ga0 Ti0 2.635071 1_455
Ga0 Ti5 2.656761 1_455
Ga0 Ti2 2.656761 1_455
Ga0 Ti5 2.656762 1_565
Ga0 Ti2 2.656762 1_565
Ga0 Ti3 2.734212 1_555
Ga0 Ti4 2.734212 1_556
As0 Ti1 2.558966 1_545
As0 Ti1 2.558968 1_655
As0 Ti4 2.616514 1_655
As0 Ti3 2.616514 1_655
As0 Ti3 2.616515 1_545
As0 Ti4 2.616515 1_545
As0 Ti2 2.690943 1_555
As0 Ti5 2.690943 1_554
N0 Ti1 2.076565 1_645
N0 Ti0 2.090688 1_555
N0 Ti2 2.100983 1_655
N0 Ti2 2.100985 1_545
N0 Ti3 2.114922 1_545
N0 Ti3 2.114923 1_655
N1 Ti1 2.076565 1_645
N1 Ti0 2.090688 1_554
N1 Ti5 2.100983 1_654
N1 Ti5 2.100985 1_544
N1 Ti4 2.114922 1_545
N1 Ti4 2.114923 1_655
