# generated using pymatgen
data_Na2TePdO6
_symmetry_space_group_name_H-M   'P 1'
_cell_length_a   6.05503564
_cell_length_b   6.05503550
_cell_length_c   6.05503459
_cell_angle_alpha   51.05251229
_cell_angle_beta   51.05250812
_cell_angle_gamma   51.05251525
_symmetry_Int_Tables_number   1
_chemical_formula_structural   Na2TePdO6
_chemical_formula_sum   'Na2 Te1 Pd1 O6'
_cell_volume   123.87089019
_cell_formula_units_Z   1
loop_
 _symmetry_equiv_pos_site_id
 _symmetry_equiv_pos_as_xyz
  1  'x, y, z'
loop_
 _atom_site_type_symbol
 _atom_site_label
 _atom_site_symmetry_multiplicity
 _atom_site_fract_x
 _atom_site_fract_y
 _atom_site_fract_z
 _atom_site_occupancy
  Na  Na0  1  0.85643053  0.85643053  0.85643053  1
  Na  Na1  1  0.13970445  0.13970445  0.13970445  1
  Te  Te0  1  0.33696869  0.33696869  0.33696869  1
  Pd  Pd0  1  0.66366603  0.66366603  0.66366603  1
  O  O0  1  0.69247989  0.07284577  0.44506250  1
  O  O1  1  0.44506250  0.69247989  0.07284577  1
  O  O2  1  0.07284577  0.44506250  0.69247989  1
  O  O3  1  0.29437905  0.94957533  0.54888677  1
  O  O4  1  0.54888677  0.29437905  0.94957533  1
  O  O5  1  0.94957533  0.54888677  0.29437905  1
loop_
_geom_bond_atom_site_label_1
_geom_bond_atom_site_label_2
_geom_bond_distance
_geom_bond_site_symmetry_2
Na0 O5 2.273636 1_556
Na0 O3 2.273636 1_655
Na0 O4 2.273636 1_565
Na0 O0 2.505334 1_565
Na0 O2 2.505334 1_655
Na0 O1 2.505334 1_556
Na1 O2 2.249005 1_554
Na1 O0 2.249005 1_455
Na1 O1 2.249005 1_545
Na1 O3 2.513330 1_545
Na1 O5 2.513330 1_455
Na1 O4 2.513330 1_554
O0 Te0 1.935737 1_555
O0 Pd0 2.012731 1_545
O1 Te0 1.935737 1_555
O1 Pd0 2.012731 1_554
O2 Te0 1.935736 1_555
O2 Pd0 2.012731 1_455
O3 Te0 1.943096 1_565
O3 Pd0 2.013541 1_555
O4 Te0 1.943096 1_556
O4 Pd0 2.013541 1_555
O5 Te0 1.943096 1_655
O5 Pd0 2.013541 1_555
