# generated using pymatgen
data_HfV3(SeO3)8
_symmetry_space_group_name_H-M   'P 1'
_cell_length_a   8.12091841
_cell_length_b   8.12091865
_cell_length_c   8.12091867
_cell_angle_alpha   89.82605908
_cell_angle_beta   90.17393973
_cell_angle_gamma   90.17394184
_symmetry_Int_Tables_number   1
_chemical_formula_structural   HfV3(SeO3)8
_chemical_formula_sum   'Hf1 V3 Se8 O24'
_cell_volume   535.56165746
_cell_formula_units_Z   1
loop_
 _symmetry_equiv_pos_site_id
 _symmetry_equiv_pos_as_xyz
  1  'x, y, z'
loop_
 _atom_site_type_symbol
 _atom_site_label
 _atom_site_symmetry_multiplicity
 _atom_site_fract_x
 _atom_site_fract_y
 _atom_site_fract_z
 _atom_site_occupancy
  Hf  Hf0  1  0.00000000  0.00000000  0.50000000  1
  V  V0  1  0.50000000  0.50000000  0.50000000  1
  V  V1  1  0.50000000  0.00000000  0.00000000  1
  V  V2  1  0.00000000  0.50000000  0.00000000  1
  Se  Se0  1  0.80904534  0.65721086  0.31419498  1
  Se  Se1  1  0.18580502  0.19095466  0.15721086  1
  Se  Se2  1  0.68051712  0.31948288  0.81948288  1
  Se  Se3  1  0.34278914  0.81419498  0.69095466  1
  Se  Se4  1  0.19095466  0.34278914  0.68580502  1
  Se  Se5  1  0.81419498  0.80904534  0.84278914  1
  Se  Se6  1  0.31948288  0.68051712  0.18051712  1
  Se  Se7  1  0.65721086  0.18580502  0.30904534  1
  O  O0  1  0.73285387  0.52971423  0.46588099  1
  O  O1  1  0.27446602  0.06236641  0.01505544  1
  O  O2  1  0.77029204  0.46939599  0.93787490  1
  O  O3  1  0.23718386  0.92960798  0.55263056  1
  O  O4  1  0.48494456  0.72553398  0.56236641  1
  O  O5  1  0.03411901  0.26714613  0.02971423  1
  O  O6  1  0.94736944  0.76281614  0.42960798  1
  O  O7  1  0.56212510  0.22970796  0.96939599  1
  O  O8  1  0.53060401  0.43787490  0.72970796  1
  O  O9  1  0.07039202  0.05263056  0.26281614  1
  O  O10  1  0.47028577  0.96588099  0.76714613  1
  O  O11  1  0.93763359  0.51505544  0.22553398  1
  O  O12  1  0.26714613  0.47028577  0.53411901  1
  O  O13  1  0.72553398  0.93763359  0.98494456  1
  O  O14  1  0.22970796  0.53060401  0.06212510  1
  O  O15  1  0.76281614  0.07039202  0.44736944  1
  O  O16  1  0.51505544  0.27446602  0.43763359  1
  O  O17  1  0.96588099  0.73285387  0.97028577  1
  O  O18  1  0.05263056  0.23718386  0.57039202  1
  O  O19  1  0.43787490  0.77029204  0.03060401  1
  O  O20  1  0.46939599  0.56212510  0.27029204  1
  O  O21  1  0.92960798  0.94736944  0.73718386  1
  O  O22  1  0.52971423  0.03411901  0.23285387  1
  O  O23  1  0.06236641  0.48494456  0.77446602  1
loop_
_geom_bond_atom_site_label_1
_geom_bond_atom_site_label_2
_geom_bond_distance
_geom_bond_site_symmetry_2
Hf0 O3 2.054196 1_545
Hf0 O15 2.054196 1_455
Hf0 O9 2.054196 1_555
Hf0 O21 2.054196 1_445
Hf0 O18 2.054196 1_555
Hf0 O6 2.054196 1_445
O0 Se0 1.721997 1_555
O0 V0 1.926354 1_555
O1 Se1 1.720037 1_555
O1 V1 1.906143 1_555
O2 Se2 1.713334 1_555
O2 V2 1.946381 1_656
O3 Se3 1.693646 1_555
O4 Se3 1.720037 1_555
O4 V0 1.906143 1_555
O5 Se1 1.721998 1_555
O5 V2 1.926354 1_555
O6 Se0 1.693646 1_555
O7 Se2 1.713334 1_555
O7 V1 1.946381 1_556
O8 Se2 1.713334 1_555
O8 V0 1.946381 1_555
O9 Se1 1.693646 1_555
O10 Se3 1.721997 1_555
O10 V1 1.926354 1_566
O11 Se0 1.720037 1_555
O11 V2 1.906143 1_655
O12 Se4 1.721997 1_555
O12 V0 1.926354 1_555
O13 Se5 1.720037 1_555
O13 V1 1.906143 1_566
O14 Se6 1.713334 1_555
O14 V2 1.946381 1_555
O15 Se7 1.693646 1_555
O16 Se7 1.720037 1_555
O16 V0 1.906143 1_555
O17 Se5 1.721998 1_555
O17 V2 1.926354 1_656
O18 Se4 1.693646 1_555
O19 Se6 1.713334 1_555
O19 V1 1.946381 1_565
O20 Se6 1.713334 1_555
O20 V0 1.946381 1_555
O21 Se5 1.693646 1_555
O22 Se7 1.721997 1_555
O22 V1 1.926354 1_555
O23 Se4 1.720037 1_555
O23 V2 1.906143 1_556
