# generated using pymatgen
data_HfZr(InBr3)4
_symmetry_space_group_name_H-M   'P 1'
_cell_length_a   7.31385303
_cell_length_b   7.31385303
_cell_length_c   11.01527930
_cell_angle_alpha   90.00000000
_cell_angle_beta   90.00000000
_cell_angle_gamma   90.00000000
_symmetry_Int_Tables_number   1
_chemical_formula_structural   HfZr(InBr3)4
_chemical_formula_sum   'Hf1 Zr1 In4 Br12'
_cell_volume   589.23423495
_cell_formula_units_Z   1
loop_
 _symmetry_equiv_pos_site_id
 _symmetry_equiv_pos_as_xyz
  1  'x, y, z'
loop_
 _atom_site_type_symbol
 _atom_site_label
 _atom_site_symmetry_multiplicity
 _atom_site_fract_x
 _atom_site_fract_y
 _atom_site_fract_z
 _atom_site_occupancy
  Hf  Hf0  1  0.00000000  0.00000000  0.50000000  1
  Zr  Zr0  1  0.50000000  0.50000000  0.00000000  1
  In  In0  1  0.00000000  0.50000000  0.25028655  1
  In  In1  1  0.00000000  0.50000000  0.74971345  1
  In  In2  1  0.50000000  0.00000000  0.74971345  1
  In  In3  1  0.50000000  0.00000000  0.25028655  1
  Br  Br0  1  0.81174463  0.69841323  0.50000000  1
  Br  Br1  1  0.19430481  0.31111851  0.00000000  1
  Br  Br2  1  0.50000000  0.50000000  0.76011099  1
  Br  Br3  1  0.30158677  0.81174463  0.50000000  1
  Br  Br4  1  0.00000000  0.00000000  0.26252267  1
  Br  Br5  1  0.80569519  0.68888149  0.00000000  1
  Br  Br6  1  0.68888149  0.19430481  0.00000000  1
  Br  Br7  1  0.31111851  0.80569519  0.00000000  1
  Br  Br8  1  0.00000000  0.00000000  0.73747733  1
  Br  Br9  1  0.18825537  0.30158677  0.50000000  1
  Br  Br10  1  0.50000000  0.50000000  0.23988901  1
  Br  Br11  1  0.69841323  0.18825537  0.50000000  1
loop_
_geom_bond_atom_site_label_1
_geom_bond_atom_site_label_2
_geom_bond_distance
_geom_bond_site_symmetry_2
Br0 Hf0 2.600223 1_665
Br0 In1 3.401148 1_655
Br0 In0 3.401148 1_655
Br1 Zr0 2.628165 1_555
Br1 In0 3.395423 1_555
Br1 In1 3.395423 1_554
Br2 Zr0 2.642444 1_556
Br3 Hf0 2.600223 1_565
Br3 In2 3.401148 1_565
Br3 In3 3.401148 1_565
Br4 Hf0 2.615879 1_555
Br5 Zr0 2.628165 1_555
Br5 In0 3.395423 1_655
Br5 In1 3.395423 1_654
Br6 Zr0 2.628165 1_555
Br6 In3 3.395423 1_555
Br6 In2 3.395423 1_554
Br7 Zr0 2.628165 1_555
Br7 In3 3.395423 1_565
Br7 In2 3.395423 1_564
Br8 Hf0 2.615879 1_555
Br9 Hf0 2.600223 1_555
Br9 In1 3.401148 1_555
Br9 In0 3.401148 1_555
Br10 Zr0 2.642444 1_555
Br11 Hf0 2.600223 1_655
Br11 In2 3.401148 1_555
Br11 In3 3.401148 1_555
