# generated using pymatgen
data_Li8Al3Si5
_symmetry_space_group_name_H-M   'P 1'
_cell_length_a   6.25926500
_cell_length_b   6.25926500
_cell_length_c   6.25926500
_cell_angle_alpha   90.00000000
_cell_angle_beta   90.00000000
_cell_angle_gamma   90.00000000
_symmetry_Int_Tables_number   1
_chemical_formula_structural   Li8Al3Si5
_chemical_formula_sum   'Li8 Al3 Si5'
_cell_volume   245.22797749
_cell_formula_units_Z   1
loop_
 _symmetry_equiv_pos_site_id
 _symmetry_equiv_pos_as_xyz
  1  'x, y, z'
loop_
 _atom_site_type_symbol
 _atom_site_label
 _atom_site_symmetry_multiplicity
 _atom_site_fract_x
 _atom_site_fract_y
 _atom_site_fract_z
 _atom_site_occupancy
  Li  Li0  1  0.25359300  0.74640700  0.25359300  1
  Li  Li1  1  0.74640700  0.25359300  0.25359300  1
  Li  Li2  1  0.25359300  0.25359300  0.74640700  1
  Li  Li3  1  0.00000000  0.00000000  0.00000000  1
  Li  Li4  1  0.00000000  0.50000000  0.50000000  1
  Li  Li5  1  0.74640700  0.74640700  0.74640700  1
  Li  Li6  1  0.50000000  0.00000000  0.50000000  1
  Li  Li7  1  0.50000000  0.50000000  0.00000000  1
  Al  Al0  1  0.00000000  0.00000000  0.50000000  1
  Al  Al1  1  0.00000000  0.50000000  0.00000000  1
  Al  Al2  1  0.50000000  0.00000000  0.00000000  1
  Si  Si0  1  0.24708400  0.24708400  0.24708400  1
  Si  Si1  1  0.50000000  0.50000000  0.50000000  1
  Si  Si2  1  0.75291600  0.24708400  0.75291600  1
  Si  Si3  1  0.75291600  0.75291600  0.24708400  1
  Si  Si4  1  0.24708400  0.75291600  0.75291600  1
loop_
_geom_bond_atom_site_label_1
_geom_bond_atom_site_label_2
_geom_bond_distance
_geom_bond_site_symmetry_2
Li0 Si1 2.671388 1_555
Li1 Si1 2.671388 1_555
Li2 Si1 2.671388 1_555
Li3 Si0 2.678728 1_555
Li3 Si3 2.678728 1_445
Li3 Si4 2.678728 1_544
Li3 Si2 2.678728 1_454
Li4 Si4 2.721042 1_555
Li4 Si2 2.721042 1_455
Li4 Si3 2.721042 1_455
Li4 Si0 2.721042 1_555
Li5 Si1 2.671388 1_555
Li6 Si2 2.721042 1_555
Li6 Si3 2.721042 1_545
Li6 Si0 2.721042 1_555
Li6 Si4 2.721042 1_545
Li7 Si3 2.721042 1_555
Li7 Si2 2.721042 1_554
Li7 Si4 2.721042 1_554
Li7 Si0 2.721042 1_555
Al0 Si2 2.699968 1_455
Al0 Si0 2.699968 1_555
Al0 Si4 2.699968 1_545
Al0 Si3 2.699968 1_445
Al0 Li2 2.723573 1_555
Al0 Li1 2.723573 1_455
Al0 Li0 2.723573 1_545
Al0 Li5 2.723573 1_445
Al1 Si3 2.699968 1_455
Al1 Si4 2.699968 1_554
Al1 Si0 2.699968 1_555
Al1 Si2 2.699968 1_454
Al1 Li0 2.723573 1_555
Al1 Li1 2.723573 1_455
Al1 Li5 2.723573 1_454
Al1 Li2 2.723573 1_554
Al2 Si2 2.699968 1_554
Al2 Si0 2.699968 1_555
Al2 Si3 2.699968 1_545
Al2 Si4 2.699968 1_544
Al2 Li1 2.723573 1_555
Al2 Li2 2.723573 1_554
Al2 Li0 2.723573 1_545
Al2 Li5 2.723573 1_544
