# generated using pymatgen
data_HfGa2FeRu4
_symmetry_space_group_name_H-M   'P 1'
_cell_length_a   7.44773666
_cell_length_b   7.44773698
_cell_length_c   7.44773729
_cell_angle_alpha   33.63664021
_cell_angle_beta   33.63663795
_cell_angle_gamma   33.63663961
_symmetry_Int_Tables_number   1
_chemical_formula_structural   HfGa2FeRu4
_chemical_formula_sum   'Hf1 Ga2 Fe1 Ru4'
_cell_volume   112.92058362
_cell_formula_units_Z   1
loop_
 _symmetry_equiv_pos_site_id
 _symmetry_equiv_pos_as_xyz
  1  'x, y, z'
loop_
 _atom_site_type_symbol
 _atom_site_label
 _atom_site_symmetry_multiplicity
 _atom_site_fract_x
 _atom_site_fract_y
 _atom_site_fract_z
 _atom_site_occupancy
  Hf  Hf0  1  0.50000000  0.50000000  0.50000000  1
  Ga  Ga0  1  0.24963744  0.24963744  0.24963744  1
  Ga  Ga1  1  0.75036256  0.75036256  0.75036256  1
  Fe  Fe0  1  0.00000000  0.00000000  0.00000000  1
  Ru  Ru0  1  0.62905897  0.62905897  0.62905897  1
  Ru  Ru1  1  0.12077675  0.12077675  0.12077675  1
  Ru  Ru2  1  0.87922325  0.87922325  0.87922325  1
  Ru  Ru3  1  0.37094103  0.37094103  0.37094103  1
loop_
_geom_bond_atom_site_label_1
_geom_bond_atom_site_label_2
_geom_bond_distance
_geom_bond_site_symmetry_2
Hf0 Ru2 2.669359 1_554
Hf0 Ru1 2.669359 1_556
Hf0 Ru2 2.669359 1_455
Hf0 Ru1 2.669359 1_655
Hf0 Ru2 2.669359 1_545
Hf0 Ru1 2.669359 1_565
Hf0 Ru0 2.717895 1_555
Hf0 Ru3 2.717895 1_555
Ga0 Ru3 2.554572 1_555
Ga0 Ru2 2.607936 1_445
Ga0 Ru2 2.607936 1_544
Ga0 Ru2 2.607936 1_454
Ga0 Ru0 2.670874 1_554
Ga0 Ru0 2.670874 1_455
Ga0 Ru0 2.670874 1_545
Ga0 Ru1 2.713720 1_555
Ga1 Ru0 2.554572 1_555
Ga1 Ru1 2.607936 1_665
Ga1 Ru1 2.607936 1_566
Ga1 Ru1 2.607936 1_656
Ga1 Ru3 2.670874 1_556
Ga1 Ru3 2.670874 1_655
Ga1 Ru3 2.670874 1_565
Ga1 Ru2 2.713720 1_555
Fe0 Ru1 2.543477 1_555
Fe0 Ru2 2.543477 1_444
Fe0 Ru3 2.611280 1_554
Fe0 Ru0 2.611280 1_445
Fe0 Ru3 2.611280 1_455
Fe0 Ru0 2.611280 1_544
Fe0 Ru3 2.611280 1_545
Fe0 Ru0 2.611280 1_454
