# generated using pymatgen
data_Ca7Mg(SnN)2
_symmetry_space_group_name_H-M   'P 1'
_cell_length_a   12.50586430
_cell_length_b   12.50586465
_cell_length_c   4.93552561
_cell_angle_alpha   90.00000000
_cell_angle_beta   90.00000000
_cell_angle_gamma   157.41410363
_symmetry_Int_Tables_number   1
_chemical_formula_structural   Ca7Mg(SnN)2
_chemical_formula_sum   'Ca7 Mg1 Sn2 N2'
_cell_volume   296.46200109
_cell_formula_units_Z   1
loop_
 _symmetry_equiv_pos_site_id
 _symmetry_equiv_pos_as_xyz
  1  'x, y, z'
loop_
 _atom_site_type_symbol
 _atom_site_label
 _atom_site_symmetry_multiplicity
 _atom_site_fract_x
 _atom_site_fract_y
 _atom_site_fract_z
 _atom_site_occupancy
  Ca  Ca0  1  0.90502336  0.09497564  0.00000000  1
  Ca  Ca1  1  0.69404654  0.30595246  0.00000000  1
  Ca  Ca2  1  0.50175202  0.49824798  0.00000000  1
  Ca  Ca3  1  0.30399093  0.69600807  0.00000000  1
  Ca  Ca4  1  0.09854975  0.90144925  0.00000000  1
  Ca  Ca5  1  0.59805289  0.40194711  0.50000100  1
  Ca  Ca6  1  0.40669267  0.59330733  0.50000100  1
  Mg  Mg0  1  0.78360906  0.21638994  0.50000100  1
  Sn  Sn0  1  0.00083279  0.99916721  0.50000100  1
  Sn  Sn1  1  0.20814575  0.79185325  0.50000100  1
  N  N0  1  0.60125708  0.39874192  0.00000000  1
  N  N1  1  0.39804316  0.60195584  0.00000000  1
loop_
_geom_bond_atom_site_label_1
_geom_bond_atom_site_label_2
_geom_bond_distance
_geom_bond_site_symmetry_2
Ca0 N1 2.454944 1_545
Ca0 N1 2.454944 1_655
Ca0 Sn0 3.407653 1_644
Ca0 Sn0 3.407660 1_645
Ca1 N0 2.275891 1_555
Ca1 Mg0 3.303862 1_554
Ca1 Mg0 3.303869 1_555
Ca1 Sn1 3.493831 1_654
Ca1 Sn1 3.493831 1_544
Ca1 Sn1 3.493838 1_655
Ca1 Sn1 3.493838 1_545
Ca2 N0 2.440620 1_555
Ca2 N1 2.543704 1_555
Ca2 Sn0 3.476748 1_544
Ca2 Sn0 3.476748 1_654
Ca2 Sn0 3.476755 1_545
Ca2 Sn0 3.476755 1_655
Ca3 N1 2.306863 1_555
Ca3 Sn1 3.408266 1_554
Ca3 Sn1 3.408273 1_555
Ca3 Mg0 3.512432 1_454
Ca3 Mg0 3.512433 1_564
Ca3 Mg0 3.512439 1_455
Ca3 Mg0 3.512439 1_565
Ca4 N0 2.449867 1_565
Ca4 N0 2.449867 1_455
Ca4 Sn0 3.440101 1_554
Ca4 Sn0 3.440109 1_555
Ca4 Sn1 3.649079 1_554
Ca4 Sn1 3.649086 1_555
Ca5 N0 2.469009 1_556
Ca5 N0 2.469019 1_555
Ca5 Sn0 3.418125 1_545
Ca5 Sn0 3.418125 1_655
Ca5 Sn1 3.645423 1_655
Ca5 Sn1 3.645426 1_545
Ca6 N1 2.476859 1_556
Ca6 N1 2.476869 1_555
Ca6 Sn0 3.365859 1_655
Ca6 Sn0 3.365859 1_545
Mg0 Sn1 3.069749 1_545
Mg0 Sn1 3.069749 1_655
