# generated using pymatgen
data_Sc15Al7(Ir3Os)2
_symmetry_space_group_name_H-M   'P 1'
_cell_length_a   9.16997206
_cell_length_b   9.16997206
_cell_length_c   9.16997031
_cell_angle_alpha   59.96241785
_cell_angle_beta   59.96241876
_cell_angle_gamma   59.96241925
_symmetry_Int_Tables_number   1
_chemical_formula_structural   Sc15Al7(Ir3Os)2
_chemical_formula_sum   'Sc15 Al7 Ir6 Os2'
_cell_volume   544.77687571
_cell_formula_units_Z   1
loop_
 _symmetry_equiv_pos_site_id
 _symmetry_equiv_pos_as_xyz
  1  'x, y, z'
loop_
 _atom_site_type_symbol
 _atom_site_label
 _atom_site_symmetry_multiplicity
 _atom_site_fract_x
 _atom_site_fract_y
 _atom_site_fract_z
 _atom_site_occupancy
  Sc  Sc0  1  0.14887437  0.14887437  0.14887437  1
  Sc  Sc1  1  0.20405327  0.76591515  0.20405327  1
  Sc  Sc2  1  0.19271124  0.81005261  0.81005261  1
  Sc  Sc3  1  0.76591515  0.20405327  0.20405327  1
  Sc  Sc4  1  0.81005261  0.81005261  0.19271124  1
  Sc  Sc5  1  0.20405327  0.20405327  0.76591515  1
  Sc  Sc6  1  0.81005261  0.19271124  0.81005261  1
  Sc  Sc7  1  0.37718063  0.37718063  0.37718063  1
  Sc  Sc8  1  0.13470342  0.62364813  0.62364813  1
  Sc  Sc9  1  0.62364813  0.13470342  0.62364813  1
  Sc  Sc10  1  0.62364813  0.62364813  0.13470342  1
  Sc  Sc11  1  0.38254826  0.86007165  0.38254826  1
  Sc  Sc12  1  0.38254826  0.38254826  0.86007165  1
  Sc  Sc13  1  0.86007165  0.38254826  0.38254826  1
  Sc  Sc14  1  0.62586446  0.62586446  0.62586446  1
  Al  Al0  1  0.83838513  0.83838513  0.83838513  1
  Al  Al1  1  0.49365062  0.16609370  0.16609370  1
  Al  Al2  1  0.16609370  0.16609370  0.49365062  1
  Al  Al3  1  0.16609370  0.49365062  0.16609370  1
  Al  Al4  1  0.84492454  0.84492454  0.47728223  1
  Al  Al5  1  0.84492454  0.47728223  0.84492454  1
  Al  Al6  1  0.47728223  0.84492454  0.84492454  1
  Ir  Ir0  1  0.50215175  0.50215175  0.00234840  1
  Ir  Ir1  1  0.99713609  0.99713609  0.51120683  1
  Ir  Ir2  1  0.50215175  0.00234840  0.50215175  1
  Ir  Ir3  1  0.00234840  0.50215175  0.50215175  1
  Ir  Ir4  1  0.51120683  0.99713609  0.99713609  1
  Ir  Ir5  1  0.99713609  0.51120683  0.99713609  1
  Os  Os0  1  0.50047575  0.50047575  0.50047575  1
  Os  Os1  1  0.01011344  0.01011344  0.01011344  1
loop_
_geom_bond_atom_site_label_1
_geom_bond_atom_site_label_2
_geom_bond_distance
_geom_bond_site_symmetry_2
Al0 Ir1 2.572208 1_555
Al0 Ir5 2.572208 1_555
Al0 Ir4 2.572208 1_555
Al0 Sc9 2.882163 1_565
Al0 Sc8 2.882163 1_655
Al0 Sc10 2.882163 1_556
Al0 Sc4 3.011542 1_556
Al0 Sc6 3.011542 1_565
Al0 Sc2 3.011542 1_655
Al1 Ir4 2.594331 1_544
Al1 Ir2 2.692224 1_555
Al1 Ir0 2.692225 1_555
Al1 Sc12 2.848500 1_554
Al1 Sc11 2.848500 1_545
Al2 Ir1 2.594331 1_445
Al2 Ir2 2.692225 1_555
Al2 Ir3 2.692225 1_555
Al2 Sc13 2.848500 1_455
Al2 Sc11 2.848500 1_545
Al3 Ir5 2.594331 1_454
Al3 Ir3 2.692224 1_555
Al3 Ir0 2.692225 1_555
Al3 Sc12 2.848500 1_554
Al3 Sc13 2.848500 1_455
Al4 Ir1 2.610165 1_555
Al4 Ir3 2.661777 1_655
Al4 Ir2 2.661777 1_565
Al4 Sc8 2.902724 1_655
Al4 Sc9 2.902724 1_565
Al4 Sc14 2.913142 1_555
Al4 Sc4 2.964324 1_555
Al4 Sc3 2.969139 1_565
Al4 Sc1 2.969139 1_655
Al5 Ir5 2.610165 1_555
Al5 Ir3 2.661777 1_655
Al5 Ir0 2.661777 1_556
Al5 Sc10 2.902724 1_556
Al5 Sc8 2.902724 1_655
Al5 Sc14 2.913142 1_555
Al5 Sc6 2.964324 1_555
Al5 Sc3 2.969139 1_556
Al5 Sc5 2.969140 1_655
Al6 Ir4 2.610165 1_555
Al6 Ir2 2.661777 1_565
Al6 Ir0 2.661777 1_556
Al6 Sc10 2.902723 1_556
Al6 Sc9 2.902724 1_565
Al6 Sc14 2.913142 1_555
Al6 Sc2 2.964324 1_555
Al6 Sc1 2.969139 1_556
Al6 Sc5 2.969140 1_565
Ir0 Sc7 2.805134 1_555
Ir0 Sc10 2.811708 1_555
Ir0 Sc14 2.817652 1_554
Ir0 Sc12 2.859593 1_554
Ir0 Sc3 3.088913 1_555
Ir0 Sc1 3.088913 1_555
Ir0 Sc2 3.337230 1_554
Ir0 Sc6 3.337230 1_554
Ir1 Sc0 2.755575 1_665
Ir1 Sc8 2.797452 1_655
Ir1 Sc9 2.797452 1_565
Ir1 Sc13 2.885375 1_565
Ir1 Sc11 2.885375 1_655
Ir2 Sc7 2.805134 1_555
Ir2 Sc9 2.811708 1_555
Ir2 Sc14 2.817653 1_545
Ir2 Sc11 2.859593 1_545
Ir2 Sc5 3.088913 1_555
Ir2 Sc3 3.088913 1_555
Ir2 Sc4 3.337230 1_545
Ir2 Sc2 3.337230 1_545
Ir3 Sc7 2.805134 1_555
Ir3 Sc8 2.811708 1_555
Ir3 Sc14 2.817653 1_455
Ir3 Sc13 2.859593 1_455
Ir3 Sc5 3.088913 1_555
Ir3 Sc1 3.088913 1_555
Ir3 Sc4 3.337230 1_455
Ir3 Sc6 3.337230 1_455
Ir4 Sc0 2.755575 1_566
Ir4 Sc9 2.797451 1_565
Ir4 Sc10 2.797452 1_556
Ir4 Sc11 2.885374 1_556
Ir4 Sc12 2.885375 1_565
Ir5 Sc0 2.755575 1_656
Ir5 Sc8 2.797451 1_655
Ir5 Sc10 2.797452 1_556
Ir5 Sc13 2.885374 1_556
Ir5 Sc12 2.885375 1_655
Os0 Sc12 2.691302 1_555
Os0 Sc11 2.691303 1_555
Os0 Sc13 2.691303 1_555
Os0 Sc10 2.737393 1_555
Os0 Sc9 2.737394 1_555
Os0 Sc8 2.737394 1_555
Os0 Sc7 2.770210 1_555
Os0 Sc14 2.817250 1_555
Os1 Sc1 2.555880 1_545
Os1 Sc3 2.555880 1_455
Os1 Sc5 2.555880 1_554
Os1 Sc6 2.598779 1_454
Os1 Sc2 2.598779 1_544
Os1 Sc4 2.598779 1_445
