# generated using pymatgen
data_Rb4NiAs4Pd
_symmetry_space_group_name_H-M   'P 1'
_cell_length_a   8.02306792
_cell_length_b   8.02306855
_cell_length_c   6.06569887
_cell_angle_alpha   91.57749985
_cell_angle_beta   88.42249925
_cell_angle_gamma   129.52266340
_symmetry_Int_Tables_number   1
_chemical_formula_structural   Rb4NiAs4Pd
_chemical_formula_sum   'Rb4 Ni1 As4 Pd1'
_cell_volume   301.04053765
_cell_formula_units_Z   1
loop_
 _symmetry_equiv_pos_site_id
 _symmetry_equiv_pos_as_xyz
  1  'x, y, z'
loop_
 _atom_site_type_symbol
 _atom_site_label
 _atom_site_symmetry_multiplicity
 _atom_site_fract_x
 _atom_site_fract_y
 _atom_site_fract_z
 _atom_site_occupancy
  Rb  Rb0  1  0.79155620  0.20844380  0.24647998  1
  Rb  Rb1  1  0.20844380  0.79155620  0.75352002  1
  Rb  Rb2  1  0.41272572  0.58727428  0.24779796  1
  Rb  Rb3  1  0.58727428  0.41272572  0.75220204  1
  Ni  Ni0  1  0.00000000  0.00000000  0.50000000  1
  As  As0  1  0.92476124  0.72250523  0.26574100  1
  As  As1  1  0.07523876  0.27749477  0.73425900  1
  As  As2  1  0.27749477  0.07523876  0.26574100  1
  As  As3  1  0.72250523  0.92476124  0.73425900  1
  Pd  Pd0  1  0.00000000  0.00000000  0.00000000  1
loop_
_geom_bond_atom_site_label_1
_geom_bond_atom_site_label_2
_geom_bond_distance
_geom_bond_site_symmetry_2
Ni0 Pd0 3.032849 1_556
Ni0 Pd0 3.032849 1_555
Ni0 Rb1 3.435282 1_545
Ni0 Rb0 3.435282 1_455
As0 Ni0 2.345780 1_665
As0 As2 2.413371 1_665
As0 Pd0 2.520477 1_665
As0 Rb2 3.522876 1_555
As0 Rb0 3.540674 1_555
As0 Rb1 3.593997 1_655
As0 Rb1 3.638820 1_654
As0 Rb3 3.689728 1_555
As0 Rb3 3.832049 1_554
As1 Ni0 2.345780 1_555
As1 As3 2.413371 1_445
As1 Pd0 2.520477 1_556
As1 Rb3 3.522876 1_555
As1 Rb1 3.540674 1_555
As1 Rb0 3.593997 1_455
As1 Rb0 3.638820 1_456
As1 Rb2 3.689728 1_555
As1 Rb2 3.832049 1_556
As2 Ni0 2.345780 1_555
As2 Pd0 2.520477 1_555
As2 Rb2 3.522876 1_555
As2 Rb0 3.540674 1_555
As2 Rb1 3.593997 1_545
As2 Rb1 3.638820 1_544
As2 Rb3 3.689728 1_555
As2 Rb3 3.832049 1_554
As3 Ni0 2.345780 1_665
As3 Pd0 2.520477 1_666
As3 Rb3 3.522876 1_555
As3 Rb1 3.540674 1_555
As3 Rb0 3.593997 1_565
As3 Rb0 3.638820 1_566
As3 Rb2 3.689728 1_555
As3 Rb2 3.832049 1_556
Pd0 Rb0 3.333638 1_455
Pd0 Rb1 3.333638 1_544
Pd0 Rb3 3.930758 1_554
Pd0 Rb2 3.930758 1_445
Pd0 Rb2 3.930758 1_555
Pd0 Rb3 3.930758 1_444
