# generated using pymatgen
data_AgSe3Br
_symmetry_space_group_name_H-M   'P 1'
_cell_length_a   4.66532908
_cell_length_b   8.02472921
_cell_length_c   14.98518736
_cell_angle_alpha   90.00000000
_cell_angle_beta   90.00000000
_cell_angle_gamma   90.00000000
_symmetry_Int_Tables_number   1
_chemical_formula_structural   AgSe3Br
_chemical_formula_sum   'Ag4 Se12 Br4'
_cell_volume   561.01548201
_cell_formula_units_Z   4
loop_
 _symmetry_equiv_pos_site_id
 _symmetry_equiv_pos_as_xyz
  1  'x, y, z'
loop_
 _atom_site_type_symbol
 _atom_site_label
 _atom_site_symmetry_multiplicity
 _atom_site_fract_x
 _atom_site_fract_y
 _atom_site_fract_z
 _atom_site_occupancy
  Ag  Ag0  1  0.70786107  0.25000000  0.75000000  1
  Ag  Ag1  1  0.29213893  0.75000000  0.25000000  1
  Ag  Ag2  1  0.29213893  0.75000000  0.75000000  1
  Ag  Ag3  1  0.70786107  0.25000000  0.25000000  1
  Se  Se0  1  0.37961837  0.36758848  0.61912531  1
  Se  Se1  1  0.62038163  0.86758848  0.88087469  1
  Se  Se2  1  0.61231384  0.26814217  0.00000000  1
  Se  Se3  1  0.62038163  0.86758848  0.11912531  1
  Se  Se4  1  0.38768616  0.73185783  0.00000000  1
  Se  Se5  1  0.62038163  0.63241152  0.61912531  1
  Se  Se6  1  0.37961837  0.36758848  0.38087469  1
  Se  Se7  1  0.61231384  0.23185783  0.50000000  1
  Se  Se8  1  0.38768616  0.76814217  0.50000000  1
  Se  Se9  1  0.62038163  0.63241152  0.38087469  1
  Se  Se10  1  0.37961837  0.13241152  0.11912531  1
  Se  Se11  1  0.37961837  0.13241152  0.88087469  1
  Br  Br0  1  0.00000000  0.50000000  0.17110817  1
  Br  Br1  1  0.00000000  0.00000000  0.32889183  1
  Br  Br2  1  0.00000000  0.00000000  0.67110817  1
  Br  Br3  1  0.00000000  0.50000000  0.82889183  1
loop_
_geom_bond_atom_site_label_1
_geom_bond_atom_site_label_2
_geom_bond_distance
_geom_bond_site_symmetry_2
Ag0 Se11 2.661148 1_555
Ag0 Se0 2.661148 1_555
Ag0 Br3 2.698138 1_655
Ag0 Br2 2.698138 1_655
Ag1 Se9 2.661148 1_555
Ag1 Se3 2.661148 1_555
Ag1 Br1 2.698138 1_565
Ag1 Br0 2.698138 1_555
Ag2 Se1 2.661148 1_555
Ag2 Se5 2.661148 1_555
Ag2 Br3 2.698138 1_555
Ag2 Br2 2.698138 1_565
Ag3 Se6 2.661148 1_555
Ag3 Se10 2.661148 1_555
Ag3 Br1 2.698138 1_655
Ag3 Br0 2.698138 1_655
Se0 Se7 2.356168 1_555
Se0 Se5 2.403718 1_555
Se1 Se4 2.356168 1_556
Se1 Se11 2.403718 1_565
Se3 Se4 2.356168 1_555
Se5 Se8 2.356168 1_555
Se6 Se7 2.356168 1_555
Se6 Se9 2.403718 1_555
Se8 Se9 2.356168 1_555
Se10 Se2 2.356168 1_555
Se10 Se3 2.403718 1_545
Se11 Se2 2.356168 1_556
