# generated using pymatgen
data_Ta9Re(SiB2)2
_symmetry_space_group_name_H-M   'P 1'
_cell_length_a   6.16780733
_cell_length_b   6.16780849
_cell_length_c   7.23180553
_cell_angle_alpha   115.24161358
_cell_angle_beta   115.24161322
_cell_angle_gamma   89.99999193
_symmetry_Int_Tables_number   1
_chemical_formula_structural   Ta9Re(SiB2)2
_chemical_formula_sum   'Ta9 Re1 Si2 B4'
_cell_volume   219.45263067
_cell_formula_units_Z   1
loop_
 _symmetry_equiv_pos_site_id
 _symmetry_equiv_pos_as_xyz
  1  'x, y, z'
loop_
 _atom_site_type_symbol
 _atom_site_label
 _atom_site_symmetry_multiplicity
 _atom_site_fract_x
 _atom_site_fract_y
 _atom_site_fract_z
 _atom_site_occupancy
  Ta  Ta0  1  0.00000000  0.00000000  0.00000000  1
  Ta  Ta1  1  0.02984349  0.52515723  0.72040397  1
  Ta  Ta2  1  0.69056148  0.19524874  0.72040397  1
  Ta  Ta3  1  0.19524874  0.02984349  0.72040397  1
  Ta  Ta4  1  0.52515723  0.69056148  0.72040397  1
  Ta  Ta5  1  0.97015651  0.47484277  0.27959603  1
  Ta  Ta6  1  0.30943852  0.80475126  0.27959603  1
  Ta  Ta7  1  0.80475126  0.97015651  0.27959603  1
  Ta  Ta8  1  0.47484277  0.30943852  0.27959603  1
  Re  Re0  1  0.50000000  0.50000000  0.00000000  1
  Si  Si0  1  0.24577197  0.24577197  0.49154294  1
  Si  Si1  1  0.75422803  0.75422803  0.50845706  1
  B  B0  1  0.38147540  0.87994408  0.00000000  1
  B  B1  1  0.61852460  0.12005592  1.00000000  1
  B  B2  1  0.12005592  0.38147540  1.00000000  1
  B  B3  1  0.87994408  0.61852460  0.00000000  1
loop_
_geom_bond_atom_site_label_1
_geom_bond_atom_site_label_2
_geom_bond_distance
_geom_bond_site_symmetry_2
Re0 Ta7 2.790761 1_555
Re0 Ta3 2.790761 1_554
Re0 Ta5 2.790765 1_555
Re0 Ta1 2.790765 1_554
Re0 Ta6 2.790765 1_555
Re0 Ta2 2.790765 1_554
Re0 Ta4 2.790770 1_554
Re0 Ta8 2.790770 1_555
Si0 Ta8 2.619167 1_555
Si0 Ta5 2.619172 1_455
Si0 Ta6 2.619181 1_545
Si0 Ta7 2.619186 1_445
Si0 Ta2 2.632471 1_555
Si0 Ta3 2.632471 1_555
Si0 Ta1 2.632473 1_555
Si0 Ta4 2.632474 1_555
Si0 Ta0 2.835571 1_555
Si1 Ta4 2.619167 1_555
Si1 Ta1 2.619172 1_655
Si1 Ta2 2.619181 1_565
Si1 Ta3 2.619186 1_665
Si1 Ta6 2.632471 1_555
Si1 Ta7 2.632471 1_555
Si1 Ta5 2.632473 1_555
Si1 Ta8 2.632474 1_555
Si1 Ta0 2.835571 1_666
B0 B1 2.081085 1_564
B0 Ta7 2.398342 1_555
B0 Ta4 2.398350 1_554
B0 Ta8 2.424070 1_565
B0 Ta3 2.424073 1_564
B0 Re0 2.454800 1_555
B0 Ta1 2.463099 1_554
B0 Ta6 2.463109 1_555
B0 Ta0 2.466636 1_565
B1 Ta3 2.398342 1_555
B1 Ta8 2.398350 1_556
B1 Ta4 2.424070 1_545
B1 Ta7 2.424073 1_546
B1 Re0 2.454800 1_556
B1 Ta5 2.463099 1_556
B1 Ta2 2.463109 1_555
B1 Ta0 2.466636 1_656
B2 B3 2.081085 1_456
B2 Ta6 2.398341 1_556
B2 Ta1 2.398351 1_555
B2 Ta2 2.424068 1_455
B2 Ta5 2.424074 1_456
B2 Re0 2.454800 1_556
B2 Ta8 2.463102 1_556
B2 Ta3 2.463105 1_555
B2 Ta0 2.466637 1_556
B3 Ta2 2.398341 1_554
B3 Ta5 2.398351 1_555
B3 Ta6 2.424068 1_655
B3 Ta1 2.424074 1_654
B3 Re0 2.454800 1_555
B3 Ta4 2.463102 1_554
B3 Ta7 2.463105 1_555
B3 Ta0 2.466637 1_665
