# generated using pymatgen
data_ScInIrRh
_symmetry_space_group_name_H-M   'P 1'
_cell_length_a   4.53829574
_cell_length_b   4.53829597
_cell_length_c   4.53829580
_cell_angle_alpha   59.99999416
_cell_angle_beta   59.99999250
_cell_angle_gamma   60.00000077
_symmetry_Int_Tables_number   1
_chemical_formula_structural   ScInIrRh
_chemical_formula_sum   'Sc1 In1 Ir1 Rh1'
_cell_volume   66.09420289
_cell_formula_units_Z   1
loop_
 _symmetry_equiv_pos_site_id
 _symmetry_equiv_pos_as_xyz
  1  'x, y, z'
loop_
 _atom_site_type_symbol
 _atom_site_label
 _atom_site_symmetry_multiplicity
 _atom_site_fract_x
 _atom_site_fract_y
 _atom_site_fract_z
 _atom_site_occupancy
  Sc  Sc0  1  0.00000000  0.00000000  0.00000000  1
  In  In0  1  0.50000000  0.50000000  0.50000000  1
  Ir  Ir0  1  0.25000000  0.25000000  0.25000000  1
  Rh  Rh0  1  0.75000000  0.75000000  0.75000000  1
loop_
_geom_bond_atom_site_label_1
_geom_bond_atom_site_label_2
_geom_bond_distance
_geom_bond_site_symmetry_2
In0 Ir0 2.779127 1_556
In0 Rh0 2.779127 1_554
In0 Ir0 2.779127 1_655
In0 Rh0 2.779127 1_455
In0 Rh0 2.779127 1_545
In0 Ir0 2.779127 1_565
In0 Rh0 2.779127 1_555
In0 Ir0 2.779127 1_555
Ir0 Sc0 2.779127 1_556
Ir0 Sc0 2.779127 1_655
Ir0 Sc0 2.779127 1_565
Ir0 Sc0 2.779127 1_555
Rh0 Sc0 2.779127 1_665
Rh0 Sc0 2.779127 1_566
Rh0 Sc0 2.779127 1_656
Rh0 Sc0 2.779127 1_666
