# generated using pymatgen
data_TaNb9(B2As)2
_symmetry_space_group_name_H-M   'P 1'
_cell_length_a   7.34758071
_cell_length_b   7.34758029
_cell_length_c   7.34758099
_cell_angle_alpha   129.39208794
_cell_angle_beta   129.39208829
_cell_angle_gamma   74.38050496
_symmetry_Int_Tables_number   1
_chemical_formula_structural   TaNb9(B2As)2
_chemical_formula_sum   'Ta1 Nb9 B4 As2'
_cell_volume   230.91997479
_cell_formula_units_Z   1
loop_
 _symmetry_equiv_pos_site_id
 _symmetry_equiv_pos_as_xyz
  1  'x, y, z'
loop_
 _atom_site_type_symbol
 _atom_site_label
 _atom_site_symmetry_multiplicity
 _atom_site_fract_x
 _atom_site_fract_y
 _atom_site_fract_z
 _atom_site_occupancy
  Ta  Ta0  1  0.50000000  0.50000000  0.00000000  1
  Nb  Nb0  1  0.52893579  0.69550252  0.50008833  1
  Nb  Nb1  1  0.19541419  0.02884846  0.49991167  1
  Nb  Nb2  1  0.02884846  0.52893579  0.83343427  1
  Nb  Nb3  1  0.69550252  0.19541419  0.16656573  1
  Nb  Nb4  1  0.47106421  0.30449748  0.49991167  1
  Nb  Nb5  1  0.80458581  0.97115154  0.50008833  1
  Nb  Nb6  1  0.97115154  0.47106421  0.16656573  1
  Nb  Nb7  1  0.30449748  0.80458581  0.83343427  1
  Nb  Nb8  1  0.00000000  0.00000000  0.00000000  1
  B  B0  1  0.88351684  0.61421499  0.49773283  1
  B  B1  1  0.11648316  0.38578501  0.50226717  1
  B  B2  1  0.38578501  0.88351684  0.26929984  1
  B  B3  1  0.61421499  0.11648316  0.73070016  1
  As  As0  1  0.25018811  0.25018811  0.00000000  1
  As  As1  1  0.74981189  0.74981189  1.00000000  1
loop_
_geom_bond_atom_site_label_1
_geom_bond_atom_site_label_2
_geom_bond_distance
_geom_bond_site_symmetry_2
Nb0 Ta0 2.843182 1_555
Nb1 Ta0 2.843177 1_556
Nb2 Ta0 2.843178 1_556
Nb3 Ta0 2.843178 1_555
Nb4 Ta0 2.843182 1_556
Nb5 Ta0 2.843177 1_555
Nb6 Ta0 2.843178 1_555
Nb7 Ta0 2.843178 1_556
B0 B1 2.049319 1_655
B0 Nb3 2.411888 1_555
B0 Nb6 2.411899 1_555
B0 Nb2 2.423896 1_655
B0 Nb7 2.423898 1_655
B0 Ta0 2.513430 1_555
B0 Nb0 2.520091 1_555
B0 Nb5 2.520091 1_555
B0 Nb8 2.531160 1_666
B1 Nb7 2.411888 1_555
B1 Nb2 2.411899 1_555
B1 Nb6 2.423896 1_455
B1 Nb3 2.423898 1_455
B1 Ta0 2.513430 1_556
B1 Nb4 2.520091 1_555
B1 Nb1 2.520091 1_555
B1 Nb8 2.531160 1_555
B2 B3 2.049337 1_565
B2 Nb5 2.411886 1_555
B2 Nb0 2.411903 1_555
B2 Nb4 2.423894 1_565
B2 Nb1 2.423909 1_565
B2 Ta0 2.513422 1_555
B2 Nb7 2.520073 1_554
B2 Nb2 2.520092 1_554
B2 Nb8 2.531160 1_565
B3 Nb1 2.411886 1_555
B3 Nb4 2.411903 1_555
B3 Nb0 2.423894 1_545
B3 Nb5 2.423909 1_545
B3 Ta0 2.513422 1_556
B3 Nb3 2.520073 1_556
B3 Nb6 2.520092 1_556
B3 Nb8 2.531160 1_656
As0 Nb2 2.683109 1_554
As0 Nb0 2.683114 1_555
As0 Nb3 2.683116 1_555
As0 Nb1 2.683116 1_554
As0 Nb4 2.684620 1_555
As0 Nb5 2.684621 1_444
As0 Nb7 2.684621 1_544
As0 Nb6 2.684622 1_455
As0 Ta0 2.924459 1_555
As0 Nb8 2.928864 1_555
As1 Nb6 2.683109 1_556
As1 Nb4 2.683114 1_555
As1 Nb7 2.683116 1_555
As1 Nb5 2.683116 1_556
As1 Nb0 2.684620 1_555
As1 Nb1 2.684621 1_666
As1 Nb3 2.684621 1_566
As1 Nb2 2.684622 1_655
As1 Ta0 2.924459 1_556
As1 Nb8 2.928864 1_666
