# generated using pymatgen
data_CsK3WO5
_symmetry_space_group_name_H-M   'P 1'
_cell_length_a   6.40934010
_cell_length_b   6.40934062
_cell_length_c   10.17580522
_cell_angle_alpha   79.40953982
_cell_angle_beta   79.40953880
_cell_angle_gamma   78.73625474
_symmetry_Int_Tables_number   1
_chemical_formula_structural   CsK3WO5
_chemical_formula_sum   'Cs2 K6 W2 O10'
_cell_volume   398.21330875
_cell_formula_units_Z   2
loop_
 _symmetry_equiv_pos_site_id
 _symmetry_equiv_pos_as_xyz
  1  'x, y, z'
loop_
 _atom_site_type_symbol
 _atom_site_label
 _atom_site_symmetry_multiplicity
 _atom_site_fract_x
 _atom_site_fract_y
 _atom_site_fract_z
 _atom_site_occupancy
  Cs  Cs0  1  0.25329368  0.74670632  0.50000000  1
  Cs  Cs1  1  0.74670632  0.25329368  0.50000000  1
  K  K0  1  0.35729599  0.83806603  0.10964921  1
  K  K1  1  0.16193397  0.64270401  0.89035079  1
  K  K2  1  0.64270401  0.16193397  0.89035079  1
  K  K3  1  0.81282775  0.81282775  0.28968115  1
  K  K4  1  0.83806603  0.35729599  0.10964921  1
  K  K5  1  0.18717225  0.18717225  0.71031885  1
  W  W0  1  0.30504049  0.30504049  0.26363116  1
  W  W1  1  0.69495951  0.69495951  0.73636884  1
  O  O0  1  0.74477994  0.74477994  0.55094232  1
  O  O1  1  0.25522006  0.25522006  0.44905768  1
  O  O2  1  0.53180187  0.12864323  0.17256968  1
  O  O3  1  0.88617544  0.88617544  0.74692808  1
  O  O4  1  0.49866322  0.49866322  0.26417995  1
  O  O5  1  0.12864323  0.53180187  0.17256968  1
  O  O6  1  0.87135677  0.46819813  0.82743032  1
  O  O7  1  0.50133678  0.50133678  0.73582005  1
  O  O8  1  0.11382456  0.11382456  0.25307192  1
  O  O9  1  0.46819813  0.87135677  0.82743032  1
loop_
_geom_bond_atom_site_label_1
_geom_bond_atom_site_label_2
_geom_bond_distance
_geom_bond_site_symmetry_2
Cs0 O4 3.130090 1_555
Cs0 O7 3.130090 1_555
Cs0 O0 3.206843 1_455
Cs0 O1 3.206843 1_565
Cs0 O3 3.237274 1_455
Cs0 O8 3.237274 1_565
Cs0 O0 3.282484 1_555
Cs0 O1 3.282484 1_555
Cs1 O7 3.130090 1_555
Cs1 O4 3.130090 1_555
Cs1 O1 3.206843 1_655
Cs1 O0 3.206843 1_545
Cs1 O8 3.237274 1_655
Cs1 O3 3.237274 1_545
Cs1 O1 3.282484 1_555
Cs1 O0 3.282484 1_555
K0 O4 2.553851 1_555
K0 O2 2.577742 1_565
K0 O8 2.592776 1_565
K0 O5 2.593795 1_555
K0 O9 2.807440 1_554
K1 O7 2.553851 1_555
K1 O6 2.577742 1_455
K1 O3 2.592776 1_455
K1 O9 2.593795 1_555
K1 O5 2.807440 1_556
K2 O7 2.553851 1_555
K2 O9 2.577742 1_545
K2 O3 2.592776 1_545
K2 O6 2.593795 1_555
K2 O2 2.807440 1_556
K3 O0 2.582671 1_555
K3 O5 2.690678 1_655
K3 O2 2.690678 1_565
K3 O8 2.916833 1_665
K3 O4 3.185034 1_555
K4 O4 2.553851 1_555
K4 O5 2.577742 1_655
K4 O8 2.592776 1_655
K4 O2 2.593795 1_555
K4 O6 2.807440 1_554
K5 O1 2.582671 1_555
K5 O6 2.690678 1_455
K5 O9 2.690678 1_545
K5 O3 2.916833 1_445
K5 O7 3.185034 1_555
O0 W1 1.833325 1_555
O1 W0 1.833325 1_555
O2 W0 1.870120 1_555
O3 W1 1.923318 1_555
O4 W0 1.920127 1_555
O5 W0 1.870120 1_555
O6 W1 1.870120 1_555
O7 W1 1.920127 1_555
O8 W0 1.923318 1_555
O9 W1 1.870120 1_555
