# generated using pymatgen
data_Sc10Ga3Bi2Ir
_symmetry_space_group_name_H-M   'P 1'
_cell_length_a   8.30075063
_cell_length_b   8.30075033
_cell_length_c   8.32829759
_cell_angle_alpha   127.27570740
_cell_angle_beta   127.27570867
_cell_angle_gamma   77.56558025
_symmetry_Int_Tables_number   1
_chemical_formula_structural   Sc10Ga3Bi2Ir
_chemical_formula_sum   'Sc10 Ga3 Bi2 Ir1'
_cell_volume   352.79547040
_cell_formula_units_Z   1
loop_
 _symmetry_equiv_pos_site_id
 _symmetry_equiv_pos_as_xyz
  1  'x, y, z'
loop_
 _atom_site_type_symbol
 _atom_site_label
 _atom_site_symmetry_multiplicity
 _atom_site_fract_x
 _atom_site_fract_y
 _atom_site_fract_z
 _atom_site_occupancy
  Sc  Sc0  1  0.00460369  0.00888028  0.01348497  1
  Sc  Sc1  1  0.49111972  0.49539631  0.98651503  1
  Sc  Sc2  1  0.01797847  0.50981555  0.80433923  1
  Sc  Sc3  1  0.71363924  0.20547531  0.19566077  1
  Sc  Sc4  1  0.51654776  0.69815068  0.50000000  1
  Sc  Sc5  1  0.19787161  0.03503606  0.50000000  1
  Sc  Sc6  1  0.99018445  0.48202153  0.19566077  1
  Sc  Sc7  1  0.29452469  0.78636076  0.80433923  1
  Sc  Sc8  1  0.46496394  0.30212839  0.50000000  1
  Sc  Sc9  1  0.80184932  0.98345224  0.50000000  1
  Ga  Ga0  1  0.36961535  0.86141112  0.23102547  1
  Ga  Ga1  1  0.63858888  0.13038465  0.76897453  1
  Ga  Ga2  1  0.86187263  0.63812737  0.50000000  1
  Bi  Bi0  1  0.75419455  0.74580545  0.00000000  1
  Bi  Bi1  1  0.25419455  0.24580545  0.00000000  1
  Ir  Ir0  1  0.12825315  0.37174685  0.50000000  1
loop_
_geom_bond_atom_site_label_1
_geom_bond_atom_site_label_2
_geom_bond_distance
_geom_bond_site_symmetry_2
Sc0 Sc5 3.201388 1_555
Sc0 Sc8 3.201395 1_555
Sc0 Sc3 3.246627 1_455
Sc0 Sc6 3.246635 1_455
Sc0 Sc2 3.391650 1_544
Sc0 Sc7 3.391664 1_544
Sc0 Sc4 3.392135 1_444
Sc0 Sc9 3.392142 1_444
Sc1 Sc8 3.201388 1_555
Sc1 Sc5 3.201395 1_555
Sc1 Sc7 3.246627 1_555
Sc1 Sc2 3.246635 1_555
Sc1 Sc6 3.391650 1_556
Sc1 Sc3 3.391664 1_556
Sc1 Sc9 3.392135 1_556
Sc1 Sc4 3.392142 1_556
Sc2 Sc9 3.631268 1_445
Sc3 Sc9 3.631261 1_545
Sc4 Sc8 3.405250 1_555
Sc4 Sc5 3.410522 1_565
Sc4 Sc7 3.631261 1_555
Sc4 Sc6 3.631269 1_455
Sc5 Sc9 3.405250 1_445
Sc8 Sc9 3.410522 1_545
Ga0 Ga1 2.820577 1_565
Ga0 Sc9 2.828081 1_555
Ga0 Sc4 2.828090 1_555
Ga0 Sc1 2.840540 1_554
Ga0 Sc8 2.863613 1_565
Ga0 Sc5 2.863621 1_565
Ga0 Sc7 2.864809 1_554
Ga0 Sc2 2.864813 1_554
Ga0 Sc0 2.898427 1_565
Ga1 Sc4 2.828081 1_545
Ga1 Sc9 2.828090 1_545
Ga1 Sc0 2.840540 1_656
Ga1 Sc5 2.863613 1_555
Ga1 Sc8 2.863620 1_555
Ga1 Sc3 2.864809 1_556
Ga1 Sc6 2.864813 1_556
Ga1 Sc1 2.898427 1_555
Ga2 Ir0 2.770005 1_655
Ga2 Sc9 2.801745 1_555
Ga2 Sc4 2.801745 1_555
Ga2 Sc2 2.816940 1_655
Ga2 Sc6 2.816941 1_555
Ga2 Sc3 2.816947 1_555
Ga2 Sc7 2.816947 1_655
Ga2 Sc1 2.941781 1_554
Ga2 Sc0 2.941781 1_666
Bi0 Sc4 3.127075 1_554
Bi0 Sc9 3.127075 1_555
Bi0 Sc8 3.128719 1_554
Bi0 Sc5 3.128719 1_665
Bi0 Sc6 3.145670 1_555
Bi0 Sc2 3.145670 1_654
Bi0 Sc3 3.147606 1_565
Bi0 Sc7 3.147606 1_554
Bi0 Sc0 3.236762 1_665
Bi0 Sc1 3.236762 1_554
Bi1 Sc4 3.127075 1_555
Bi1 Sc9 3.127075 1_444
Bi1 Sc8 3.128719 1_555
Bi1 Sc5 3.128719 1_554
Bi1 Sc7 3.145671 1_544
Bi1 Sc3 3.145671 1_555
Bi1 Sc2 3.147613 1_554
Bi1 Sc6 3.147613 1_455
Bi1 Sc1 3.236775 1_554
Bi1 Sc0 3.236775 1_555
Ir0 Sc6 2.723161 1_455
Ir0 Sc2 2.723161 1_555
Ir0 Sc7 2.723163 1_555
Ir0 Sc3 2.723163 1_455
Ir0 Sc5 2.729496 1_555
Ir0 Sc8 2.729496 1_555
Ir0 Sc1 2.837965 1_555
Ir0 Sc0 2.837965 1_555
