# generated using pymatgen
data_Sr2Hg(BrO)2
_symmetry_space_group_name_H-M   'P 1'
_cell_length_a   6.34780448
_cell_length_b   6.34780403
_cell_length_c   8.11812547
_cell_angle_alpha   58.99490079
_cell_angle_beta   58.99490351
_cell_angle_gamma   37.21305722
_symmetry_Int_Tables_number   1
_chemical_formula_structural   Sr2Hg(BrO)2
_chemical_formula_sum   'Sr2 Hg1 Br2 O2'
_cell_volume   166.06060747
_cell_formula_units_Z   1
loop_
 _symmetry_equiv_pos_site_id
 _symmetry_equiv_pos_as_xyz
  1  'x, y, z'
loop_
 _atom_site_type_symbol
 _atom_site_label
 _atom_site_symmetry_multiplicity
 _atom_site_fract_x
 _atom_site_fract_y
 _atom_site_fract_z
 _atom_site_occupancy
  Sr  Sr0  1  0.19120659  0.19120659  0.73576396  1
  Sr  Sr1  1  0.80879341  0.80879341  0.26423604  1
  Hg  Hg0  1  0.00000000  0.00000000  0.50000000  1
  Br  Br0  1  0.57935632  0.57935632  0.12739915  1
  Br  Br1  1  0.42064368  0.42064368  0.87260085  1
  O  O0  1  0.81201485  0.81201485  0.56733456  1
  O  O1  1  0.18798515  0.18798515  0.43266544  1
loop_
_geom_bond_atom_site_label_1
_geom_bond_atom_site_label_2
_geom_bond_distance
_geom_bond_site_symmetry_2
Hg0 O1 2.017604 1_555
Hg0 O0 2.017604 1_445
Br0 Sr0 3.371995 1_564
Br0 Sr0 3.371996 1_654
Br0 Sr1 3.464510 1_545
Br0 Sr1 3.464511 1_455
Br0 Sr1 3.491198 1_555
Br1 Sr1 3.371995 1_546
Br1 Sr1 3.371996 1_456
Br1 Sr0 3.464510 1_565
Br1 Sr0 3.464511 1_655
Br1 Sr0 3.491198 1_555
O0 Sr0 2.433946 1_655
O0 Sr0 2.433946 1_565
O0 Sr1 2.481872 1_555
O1 Sr1 2.433946 1_455
O1 Sr1 2.433946 1_545
O1 Sr0 2.481872 1_555
