# generated using pymatgen
data_Zr12Zn11CuC4
_symmetry_space_group_name_H-M   'P 1'
_cell_length_a   8.61219607
_cell_length_b   8.59919852
_cell_length_c   8.59919923
_cell_angle_alpha   59.99999729
_cell_angle_beta   60.04990878
_cell_angle_gamma   60.04991224
_symmetry_Int_Tables_number   1
_chemical_formula_structural   Zr12Zn11CuC4
_chemical_formula_sum   'Zr12 Zn11 Cu1 C4'
_cell_volume   450.65283436
_cell_formula_units_Z   1
loop_
 _symmetry_equiv_pos_site_id
 _symmetry_equiv_pos_as_xyz
  1  'x, y, z'
loop_
 _atom_site_type_symbol
 _atom_site_label
 _atom_site_symmetry_multiplicity
 _atom_site_fract_x
 _atom_site_fract_y
 _atom_site_fract_z
 _atom_site_occupancy
  Zr  Zr0  1  0.44102042  0.44126654  0.05885702  1
  Zr  Zr1  1  0.06042715  0.44114954  0.05727478  1
  Zr  Zr2  1  0.44102042  0.05885702  0.05885702  1
  Zr  Zr3  1  0.06042715  0.05727478  0.44114954  1
  Zr  Zr4  1  0.44102042  0.05885702  0.44126654  1
  Zr  Zr5  1  0.06042715  0.44114954  0.44114954  1
  Zr  Zr6  1  0.80897958  0.80873346  0.19114298  1
  Zr  Zr7  1  0.18957285  0.80885046  0.19272522  1
  Zr  Zr8  1  0.80897958  0.19114298  0.19114298  1
  Zr  Zr9  1  0.18957285  0.19272522  0.80885046  1
  Zr  Zr10  1  0.80897958  0.19114298  0.80873346  1
  Zr  Zr11  1  0.18957285  0.80885046  0.80885046  1
  Zn  Zn0  1  0.83441393  0.82692209  0.51174289  1
  Zn  Zn1  1  0.83441393  0.51174289  0.82692209  1
  Zn  Zn2  1  0.50964670  0.83011743  0.83011743  1
  Zn  Zn3  1  0.83441393  0.82692209  0.82692209  1
  Zn  Zn4  1  0.41558607  0.42307791  0.73825711  1
  Zn  Zn5  1  0.41558607  0.73825711  0.42307791  1
  Zn  Zn6  1  0.74035330  0.41988257  0.41988257  1
  Zn  Zn7  1  0.41558607  0.42307791  0.42307791  1
  Zn  Zn8  1  0.62500000  0.62500000  0.12500000  1
  Zn  Zn9  1  0.62500000  0.12500000  0.62500000  1
  Zn  Zn10  1  0.62500000  0.62500000  0.62500000  1
  Cu  Cu0  1  0.12500000  0.62500000  0.62500000  1
  C  C0  1  0.12500000  0.12500000  0.62500000  1
  C  C1  1  0.12500000  0.62500000  0.12500000  1
  C  C2  1  0.62500000  0.12500000  0.12500000  1
  C  C3  1  0.12500000  0.12500000  0.12500000  1
loop_
_geom_bond_atom_site_label_1
_geom_bond_atom_site_label_2
_geom_bond_distance
_geom_bond_site_symmetry_2
Zn0 Zn9 2.626413 1_565
Zn0 Zn10 2.626420 1_555
Zn0 Zn1 2.710288 1_555
Zn0 Zn3 2.710289 1_555
Zn0 Zn2 2.769788 1_555
Zn0 Zr7 2.911857 1_655
Zn0 Zr8 2.956566 1_565
Zn0 Zr6 2.956576 1_555
Zn0 Zr3 3.090077 1_665
Zn0 Zr5 3.090077 1_655
Zn0 Zr4 3.149288 1_565
Zn1 Zn8 2.626413 1_556
Zn1 Zn10 2.626420 1_555
Zn1 Zn3 2.710288 1_555
Zn1 Zn2 2.769788 1_555
Zn1 Zr9 2.911857 1_655
Zn1 Zr8 2.956566 1_556
Zn1 Zr10 2.956576 1_555
Zn1 Zr1 3.090077 1_656
Zn1 Zr5 3.090077 1_655
Zn1 Zr0 3.149288 1_556
Zn2 Zn9 2.611732 1_565
Zn2 Zn8 2.611732 1_556
Zn2 Zn3 2.769796 1_555
Zn2 Zr11 2.950516 1_555
Zn2 Zr7 2.950516 1_556
Zn2 Zr9 2.950516 1_565
Zn2 Zr0 3.103976 1_556
Zn2 Zr4 3.103976 1_565
Zn2 Zr2 3.103991 1_566
Zn3 Zn8 2.626417 1_556
Zn3 Zn9 2.626418 1_565
Zn3 Zr11 2.911849 1_655
Zn3 Zr10 2.956559 1_565
Zn3 Zr6 2.956559 1_556
Zn3 Zr3 3.090077 1_665
Zn3 Zr1 3.090077 1_656
Zn3 Zr2 3.149288 1_566
Zn4 Zn9 2.626413 1_555
Zn4 Zn5 2.710288 1_555
Zn4 Zn7 2.710289 1_555
Zn4 Zn6 2.769788 1_555
Zn4 Zr1 2.911857 1_556
Zn4 Zr2 2.956566 1_556
Zn4 Zr0 2.956576 1_556
Zn4 Zr9 3.090077 1_555
Zn4 Zr11 3.090077 1_555
Zn4 Zr10 3.149288 1_555
Zn5 Zn8 2.626413 1_555
Zn5 Zn7 2.710288 1_555
Zn5 Zn6 2.769788 1_555
Zn5 Zr3 2.911857 1_565
Zn5 Zr2 2.956566 1_565
Zn5 Zr4 2.956576 1_565
Zn5 Zr7 3.090077 1_555
Zn5 Zr11 3.090077 1_555
Zn5 Zr6 3.149288 1_555
Zn6 Zn9 2.611732 1_555
Zn6 Zn8 2.611732 1_555
Zn6 Zn7 2.769796 1_555
Zn6 Zr5 2.950516 1_655
Zn6 Zr1 2.950516 1_655
Zn6 Zr3 2.950516 1_655
Zn6 Zr6 3.103976 1_555
Zn6 Zr10 3.103976 1_555
Zn6 Zr8 3.103991 1_555
Zn7 Zn8 2.626417 1_555
Zn7 Zn9 2.626418 1_555
Zn7 Zr5 2.911849 1_555
Zn7 Zr4 2.956559 1_555
Zn7 Zr0 2.956559 1_555
Zn7 Zr9 3.090077 1_555
Zn7 Zr7 3.090077 1_555
Zn7 Zr8 3.149288 1_555
Zn8 Zr6 3.102972 1_555
Zn8 Zr0 3.102972 1_555
Zn8 Zr2 3.102979 1_565
Zn8 Zr8 3.102979 1_555
Zn8 Zr1 3.117924 1_655
Zn8 Zr7 3.117924 1_555
Zn9 Zr10 3.102972 1_555
Zn9 Zr4 3.102972 1_555
Zn9 Zr2 3.102979 1_556
Zn9 Zr8 3.102979 1_555
Zn9 Zr3 3.117924 1_655
Zn9 Zr9 3.117924 1_555
Zn10 Zn2 2.611725 1_555
Zn10 Zn6 2.611725 1_555
Zn10 Zn4 2.626420 1_555
Zn10 Zn5 2.626420 1_555
Zn10 Zr4 3.102978 1_565
Zn10 Zr10 3.102978 1_555
Zn10 Zr0 3.102978 1_556
Zn10 Zr6 3.102978 1_555
Zn10 Zr5 3.117923 1_655
Zn10 Zr11 3.117923 1_555
Cu0 Zn5 2.574903 1_555
Cu0 Zn1 2.574903 1_455
Cu0 Zn4 2.574904 1_555
Cu0 Zn0 2.574904 1_455
Cu0 Zn3 2.574908 1_455
Cu0 Zn7 2.574908 1_555
Cu0 Zr11 3.092470 1_555
Cu0 Zr5 3.092470 1_555
Cu0 Zr3 3.092477 1_565
Cu0 Zr9 3.092477 1_555
Cu0 Zr1 3.092478 1_556
Cu0 Zr7 3.092478 1_555
C0 Zr9 2.295620 1_555
C0 Zr3 2.295620 1_555
C0 Zr5 2.295626 1_555
C0 Zr11 2.295626 1_545
C0 Zr4 2.299229 1_555
C0 Zr10 2.299229 1_455
C1 Zr7 2.295619 1_555
C1 Zr1 2.295619 1_555
C1 Zr5 2.295626 1_555
C1 Zr11 2.295626 1_554
C1 Zr0 2.299229 1_555
C1 Zr6 2.299229 1_455
C2 Zr8 2.297990 1_555
C2 Zr2 2.297990 1_555
C2 Zr0 2.297996 1_555
C2 Zr6 2.297996 1_545
C2 Zr4 2.297996 1_555
C2 Zr10 2.297996 1_554
C3 Zr1 2.295627 1_555
C3 Zr7 2.295627 1_545
C3 Zr3 2.295628 1_555
C3 Zr9 2.295628 1_554
C3 Zr2 2.299231 1_555
C3 Zr8 2.299231 1_455
