# generated using pymatgen
data_Ba4GaSn3Au4
_symmetry_space_group_name_H-M   'P 1'
_cell_length_a   6.44177117
_cell_length_b   6.44176979
_cell_length_c   11.89467698
_cell_angle_alpha   88.77525396
_cell_angle_beta   88.77525406
_cell_angle_gamma   44.94742068
_symmetry_Int_Tables_number   1
_chemical_formula_structural   Ba4GaSn3Au4
_chemical_formula_sum   'Ba4 Ga1 Sn3 Au4'
_cell_volume   348.60452932
_cell_formula_units_Z   1
loop_
 _symmetry_equiv_pos_site_id
 _symmetry_equiv_pos_as_xyz
  1  'x, y, z'
loop_
 _atom_site_type_symbol
 _atom_site_label
 _atom_site_symmetry_multiplicity
 _atom_site_fract_x
 _atom_site_fract_y
 _atom_site_fract_z
 _atom_site_occupancy
  Ba  Ba0  1  0.69038660  0.69038660  0.69478548  1
  Ba  Ba1  1  0.18383714  0.18383714  0.17879531  1
  Ba  Ba2  1  0.40196863  0.40196863  0.89857213  1
  Ba  Ba3  1  0.88995903  0.88995903  0.38927001  1
  Ga  Ga0  1  0.67550009  0.67550009  0.98736830  1
  Sn  Sn0  1  0.17144442  0.17144442  0.48758442  1
  Sn  Sn1  1  0.98825615  0.98825615  0.67079277  1
  Sn  Sn2  1  0.48651190  0.48651190  0.17428874  1
  Au  Au0  1  0.38717190  0.38717190  0.60611842  1
  Au  Au1  1  0.87438585  0.87438585  0.10243596  1
  Au  Au2  1  0.11855442  0.11855442  0.89564661  1
  Au  Au3  1  0.60442287  0.60442287  0.38674085  1
loop_
_geom_bond_atom_site_label_1
_geom_bond_atom_site_label_2
_geom_bond_distance
_geom_bond_site_symmetry_2
Ba0 Sn1 3.459399 1_545
Ba0 Sn1 3.459400 1_455
Ba0 Ga0 3.480591 1_555
Ba0 Sn0 3.494899 1_655
Ba0 Sn0 3.494899 1_565
Ba0 Sn1 3.551046 1_555
Ba0 Ba2 4.156987 1_555
Ba0 Ba2 4.308893 1_565
Ba0 Ba2 4.308894 1_655
Ba1 Ga0 3.356846 1_544
Ba1 Ga0 3.356846 1_454
Ba1 Sn2 3.404538 1_545
Ba1 Sn2 3.404539 1_455
Ba1 Sn2 3.602532 1_555
Ba1 Sn0 3.672497 1_555
Ba1 Ba2 4.177717 1_554
Ba1 Ba3 4.254761 1_445
Ba1 Ba3 4.317064 1_455
Ba1 Ba3 4.317065 1_545
Ba2 Ga0 3.446585 1_555
Ba2 Sn2 3.452717 1_556
Ba2 Ga0 3.783714 1_545
Ba2 Ga0 3.783715 1_455
Ba2 Sn1 3.785591 1_455
Ba2 Sn1 3.785592 1_545
Ba3 Sn1 3.572676 1_555
Ba3 Sn0 3.574742 1_665
Ba3 Sn2 3.713190 1_565
Ba3 Sn2 3.713191 1_655
Ba3 Sn0 3.749378 1_655
Ba3 Sn0 3.749379 1_565
Ga0 Sn2 3.126349 1_556
Sn0 Sn1 3.047176 1_445
Au0 Sn1 2.854187 1_455
Au0 Sn1 2.854188 1_545
Au0 Sn0 2.958268 1_555
Au0 Ba2 3.487167 1_555
Au0 Ba0 3.542603 1_545
Au0 Ba0 3.542604 1_455
Au0 Ba3 3.565627 1_455
Au0 Ba3 3.565627 1_545
Au1 Ga0 2.762156 1_554
Au1 Sn2 2.937459 1_565
Au1 Sn2 2.937459 1_655
Au1 Ba3 3.421112 1_555
Au1 Ba1 3.455327 1_655
Au1 Ba1 3.455328 1_565
Au1 Ba2 3.466216 1_564
Au1 Ba2 3.466217 1_654
Au1 Ba1 3.814704 1_665
Au2 Ga0 2.783461 1_455
Au2 Ga0 2.783461 1_545
Au2 Sn1 3.122737 1_445
Au2 Ba2 3.375059 1_555
Au2 Ba1 3.473946 1_556
Au2 Ba0 3.522572 1_455
Au2 Ba0 3.522573 1_545
Au2 Ba2 3.564989 1_545
Au2 Ba2 3.564990 1_455
Au3 Sn0 2.860642 1_565
Au3 Sn0 2.860642 1_655
Au3 Sn2 2.919002 1_555
Au3 Ba3 3.400166 1_555
Au3 Ba3 3.546801 1_545
Au3 Ba3 3.546802 1_455
Au3 Ba1 3.600992 1_565
Au3 Ba1 3.600993 1_655
