# generated using pymatgen
data_Ba3Pt2O7
_symmetry_space_group_name_H-M   'P 1'
_cell_length_a   10.24064459
_cell_length_b   10.24064459
_cell_length_c   8.85755253
_cell_angle_alpha   89.76704718
_cell_angle_beta   89.76704718
_cell_angle_gamma   119.85102088
_symmetry_Int_Tables_number   1
_chemical_formula_structural   Ba3Pt2O7
_chemical_formula_sum   'Ba12 Pt8 O28'
_cell_volume   805.62822689
_cell_formula_units_Z   4
loop_
 _symmetry_equiv_pos_site_id
 _symmetry_equiv_pos_as_xyz
  1  'x, y, z'
loop_
 _atom_site_type_symbol
 _atom_site_label
 _atom_site_symmetry_multiplicity
 _atom_site_fract_x
 _atom_site_fract_y
 _atom_site_fract_z
 _atom_site_occupancy
  Ba  Ba0  1  0.65933700  0.99415200  0.00599900  1
  Ba  Ba1  1  0.67443400  0.00641100  0.50382200  1
  Ba  Ba2  1  0.99797100  0.33069700  0.25334200  1
  Ba  Ba3  1  0.33026200  0.02355800  0.23679300  1
  Ba  Ba4  1  0.33381600  0.32738000  0.00617800  1
  Ba  Ba5  1  0.32738000  0.33381600  0.50617800  1
  Ba  Ba6  1  0.70354600  0.68331500  0.23658600  1
  Ba  Ba7  1  0.02355800  0.33026200  0.73679300  1
  Ba  Ba8  1  0.68331500  0.70354600  0.73658600  1
  Ba  Ba9  1  0.99415200  0.65933700  0.50599900  1
  Ba  Ba10  1  0.00641100  0.67443400  0.00382200  1
  Ba  Ba11  1  0.33069700  0.99797100  0.75334200  1
  Pt  Pt0  1  0.65399900  0.32726000  0.41004600  1
  Pt  Pt1  1  0.98834700  0.00442700  0.36301700  1
  Pt  Pt2  1  0.00442700  0.98834700  0.86301700  1
  Pt  Pt3  1  0.72610200  0.39230700  0.74949800  1
  Pt  Pt4  1  0.66393800  0.33011000  0.08770300  1
  Pt  Pt5  1  0.32726000  0.65399900  0.91004600  1
  Pt  Pt6  1  0.33011000  0.66393800  0.58770300  1
  Pt  Pt7  1  0.39230700  0.72610200  0.24949800  1
  O  O0  1  0.82785400  0.01809500  0.25067300  1
  O  O1  1  0.65812200  0.18431800  0.25031000  1
  O  O2  1  0.47330700  0.16152800  0.51654000  1
  O  O3  1  0.49594000  0.16150600  0.97555500  1
  O  O4  1  0.16156400  0.98236600  0.98649500  1
  O  O5  1  0.80338300  0.32148700  0.92814200  1
  O  O6  1  0.79060600  0.31639200  0.57002700  1
  O  O7  1  0.17226200  0.17538400  0.26385600  1
  O  O8  1  0.82302400  0.48265200  0.25263300  1
  O  O9  1  0.52397200  0.34697000  0.24568200  1
  O  O10  1  0.17538400  0.17226200  0.76385600  1
  O  O11  1  0.66011800  0.47294800  0.57066400  1
  O  O12  1  0.66575500  0.47397500  0.92760300  1
  O  O13  1  0.98236600  0.16156400  0.48649500  1
  O  O14  1  0.03149800  0.85087400  0.28798300  1
  O  O15  1  0.34697000  0.52397200  0.74568200  1
  O  O16  1  0.47294800  0.66011800  0.07066400  1
  O  O17  1  0.47397500  0.66575500  0.42760300  1
  O  O18  1  0.82045400  0.83627700  0.48155300  1
  O  O19  1  0.83627700  0.82045400  0.98155300  1
  O  O20  1  0.16150600  0.49594000  0.47555500  1
  O  O21  1  0.16152800  0.47330700  0.01654000  1
  O  O22  1  0.85087400  0.03149800  0.78798300  1
  O  O23  1  0.18431800  0.65812200  0.75031000  1
  O  O24  1  0.48265200  0.82302400  0.75263300  1
  O  O25  1  0.31639200  0.79060600  0.07002700  1
  O  O26  1  0.32148700  0.80338300  0.42814200  1
  O  O27  1  0.01809500  0.82785400  0.75067300  1
loop_
_geom_bond_atom_site_label_1
_geom_bond_atom_site_label_2
_geom_bond_distance
_geom_bond_site_symmetry_2
Ba0 O22 2.634221 1_564
Ba0 O0 2.710822 1_565
Ba0 O24 2.879205 1_554
Ba0 O1 2.921244 1_565
Ba0 O3 2.943546 1_564
Ba0 O5 2.989767 1_564
Ba0 O16 3.024573 1_555
Ba0 O25 3.112426 1_555
Ba0 O19 3.114922 1_554
Ba1 O0 2.700479 1_555
Ba1 O13 2.738324 1_555
Ba1 O18 2.811485 1_545
Ba1 O6 2.845589 1_555
Ba1 O24 2.915559 1_545
Ba1 O1 2.943155 1_555
Ba1 O22 3.040727 1_555
Ba1 O17 3.121074 1_545
Ba1 O2 3.167785 1_555
Ba1 O26 3.222755 1_545
Ba2 O20 2.602874 1_655
Ba2 O21 2.617080 1_655
Ba2 O13 2.642549 1_555
Ba2 O0 2.780763 1_555
Ba2 O8 2.899414 1_555
Ba2 O7 2.924080 1_655
Ba2 O1 3.027819 1_555
Ba3 O14 2.699942 1_545
Ba3 O4 2.718632 1_544
Ba3 O25 2.754296 1_545
Ba3 O7 2.756280 1_555
Ba3 O26 2.780381 1_545
Ba3 O3 2.789986 1_554
Ba3 O2 2.877428 1_555
Ba3 O9 2.893676 1_555
Ba3 O1 2.915436 1_555
Ba4 O10 2.693144 1_554
Ba4 O7 2.783179 1_555
Ba4 O21 2.824718 1_555
Ba4 O9 2.825044 1_555
Ba4 O3 2.919423 1_554
Ba4 O15 3.014110 1_554
Ba4 O16 3.025959 1_555
Ba4 O12 3.030725 1_554
Ba4 O4 3.070578 1_544
Ba5 O7 2.693144 1_555
Ba5 O10 2.783179 1_555
Ba5 O2 2.824718 1_555
Ba5 O15 2.825044 1_555
Ba5 O20 2.919423 1_555
Ba5 O9 3.014110 1_555
Ba5 O11 3.025959 1_555
Ba5 O17 3.030725 1_555
Ba5 O13 3.070578 1_455
Ba6 O18 2.603258 1_555
Ba6 O19 2.640404 1_554
Ba6 O16 2.695460 1_555
Ba6 O17 2.822467 1_555
Ba6 O8 2.870869 1_555
Ba6 O14 2.951728 1_655
Ba6 O9 2.990497 1_555
Ba6 O0 3.008307 1_565
Ba7 O22 2.699942 1_455
Ba7 O13 2.718632 1_455
Ba7 O6 2.754296 1_455
Ba7 O10 2.756280 1_555
Ba7 O5 2.780381 1_455
Ba7 O20 2.789986 1_555
Ba7 O21 2.877428 1_556
Ba7 O15 2.893676 1_555
Ba7 O23 2.915436 1_555
Ba8 O19 2.603258 1_555
Ba8 O18 2.640404 1_555
Ba8 O11 2.695460 1_555
Ba8 O12 2.822467 1_555
Ba8 O24 2.870869 1_555
Ba8 O22 2.951728 1_565
Ba8 O15 2.990497 1_555
Ba8 O27 3.008307 1_655
Ba9 O14 2.634221 1_655
Ba9 O27 2.710822 1_655
Ba9 O8 2.879205 1_555
Ba9 O23 2.921244 1_655
Ba9 O20 2.943546 1_655
Ba9 O26 2.989767 1_655
Ba9 O11 3.024573 1_555
Ba9 O6 3.112426 1_555
Ba9 O18 3.114922 1_555
Ba10 O27 2.700479 1_554
Ba10 O4 2.738324 1_554
Ba10 O19 2.811485 1_454
Ba10 O25 2.845589 1_555
Ba10 O8 2.915559 1_455
Ba10 O23 2.943155 1_554
Ba10 O14 3.040727 1_555
Ba10 O12 3.121074 1_454
Ba10 O21 3.167785 1_555
Ba10 O5 3.222755 1_454
Ba11 O3 2.602874 1_565
Ba11 O2 2.617080 1_565
Ba11 O4 2.642549 1_555
Ba11 O27 2.780763 1_555
Ba11 O24 2.899414 1_555
Ba11 O10 2.924080 1_565
Ba11 O23 3.027819 1_555
O0 Pt1 1.988024 1_555
O1 Pt4 2.049480 1_555
O1 Pt0 2.055307 1_555
O2 Pt0 2.010147 1_555
O3 Pt4 1.999627 1_556
O4 Pt2 1.975175 1_555
O5 Pt4 2.038286 1_556
O5 Pt3 2.056297 1_555
O6 Pt3 2.020028 1_555
O6 Pt0 2.036483 1_555
O7 Pt1 2.018729 1_455
O8 Pt0 2.166273 1_555
O8 Pt4 2.175537 1_555
O9 Pt0 2.052866 1_555
O9 Pt4 2.067452 1_555
O10 Pt2 2.018729 1_545
O11 Pt0 2.044199 1_555
O11 Pt3 2.049706 1_555
O12 Pt3 2.021739 1_555
O12 Pt4 2.034052 1_556
O13 Pt1 1.975175 1_555
O14 Pt1 1.951290 1_465
O15 Pt5 2.052866 1_555
O15 Pt6 2.067452 1_555
O16 Pt5 2.044199 1_554
O16 Pt7 2.049706 1_555
O17 Pt7 2.021739 1_555
O17 Pt6 2.034052 1_555
O18 Pt1 2.011708 1_565
O19 Pt2 2.011708 1_655
O20 Pt6 1.999627 1_555
O21 Pt5 2.010147 1_554
O22 Pt2 1.951290 1_645
O23 Pt6 2.049480 1_555
O23 Pt5 2.055307 1_555
O24 Pt5 2.166273 1_555
O24 Pt6 2.175537 1_555
O25 Pt7 2.020028 1_555
O25 Pt5 2.036483 1_554
O26 Pt6 2.038286 1_555
O26 Pt7 2.056297 1_555
O27 Pt2 1.988024 1_555
