# generated using pymatgen
data_Rb7Ta(SO4)6
_symmetry_space_group_name_H-M   'P 1'
_cell_length_a   9.63987912
_cell_length_b   9.63987989
_cell_length_c   9.63988021
_cell_angle_alpha   110.15090346
_cell_angle_beta   110.15089715
_cell_angle_gamma   110.15091048
_symmetry_Int_Tables_number   1
_chemical_formula_structural   Rb7Ta(SO4)6
_chemical_formula_sum   'Rb7 Ta1 S6 O24'
_cell_volume   671.67999376
_cell_formula_units_Z   1
loop_
 _symmetry_equiv_pos_site_id
 _symmetry_equiv_pos_as_xyz
  1  'x, y, z'
loop_
 _atom_site_type_symbol
 _atom_site_label
 _atom_site_symmetry_multiplicity
 _atom_site_fract_x
 _atom_site_fract_y
 _atom_site_fract_z
 _atom_site_occupancy
  Rb  Rb0  1  0.50000000  0.50000000  0.50000000  1
  Rb  Rb1  1  0.82648643  0.30904316  0.67633723  1
  Rb  Rb2  1  0.30904316  0.67633723  0.82648643  1
  Rb  Rb3  1  0.67633723  0.82648643  0.30904316  1
  Rb  Rb4  1  0.17351357  0.69095684  0.32366277  1
  Rb  Rb5  1  0.69095684  0.32366277  0.17351357  1
  Rb  Rb6  1  0.32366277  0.17351357  0.69095684  1
  Ta  Ta0  1  0.00000000  0.00000000  0.00000000  1
  S  S0  1  0.96493035  0.74112575  0.62848532  1
  S  S1  1  0.74112575  0.62848532  0.96493035  1
  S  S2  1  0.62848532  0.96493035  0.74112575  1
  S  S3  1  0.03506965  0.25887425  0.37151468  1
  S  S4  1  0.25887425  0.37151468  0.03506965  1
  S  S5  1  0.37151468  0.03506965  0.25887425  1
  O  O0  1  0.38431539  0.88635500  0.17556038  1
  O  O1  1  0.88635500  0.17556038  0.38431539  1
  O  O2  1  0.17556038  0.38431539  0.88635500  1
  O  O3  1  0.61568461  0.11364500  0.82443962  1
  O  O4  1  0.11364500  0.82443962  0.61568461  1
  O  O5  1  0.82443962  0.61568461  0.11364500  1
  O  O6  1  0.31342210  0.02797998  0.37802646  1
  O  O7  1  0.02797998  0.37802646  0.31342210  1
  O  O8  1  0.37802646  0.31342210  0.02797998  1
  O  O9  1  0.68657790  0.97202002  0.62197354  1
  O  O10  1  0.97202002  0.62197354  0.68657790  1
  O  O11  1  0.62197354  0.68657790  0.97202002  1
  O  O12  1  0.77134709  0.97459164  0.89037296  1
  O  O13  1  0.97459164  0.89037296  0.77134709  1
  O  O14  1  0.66129173  0.47125586  0.79941732  1
  O  O15  1  0.79941732  0.66129173  0.47125586  1
  O  O16  1  0.47125586  0.79941732  0.66129173  1
  O  O17  1  0.33870827  0.52874414  0.20058268  1
  O  O18  1  0.20058268  0.33870827  0.52874414  1
  O  O19  1  0.52874414  0.20058268  0.33870827  1
  O  O20  1  0.10962704  0.22865291  0.02540836  1
  O  O21  1  0.02540836  0.10962704  0.22865291  1
  O  O22  1  0.22865291  0.02540836  0.10962704  1
  O  O23  1  0.89037296  0.77134709  0.97459164  1
loop_
_geom_bond_atom_site_label_1
_geom_bond_atom_site_label_2
_geom_bond_distance
_geom_bond_site_symmetry_2
O0 S5 1.453384 1_565
O0 Rb2 2.925822 1_554
O0 Rb3 3.008098 1_555
O0 Rb4 3.306092 1_555
O1 S3 1.453383 1_655
O1 Rb3 2.925822 1_545
O1 Rb1 3.008098 1_555
O1 Rb5 3.306093 1_555
O2 S4 1.453384 1_556
O2 Rb1 2.925822 1_455
O2 Rb2 3.008098 1_555
O2 Rb6 3.306092 1_555
O3 S2 1.453384 1_545
O3 Rb5 2.925822 1_556
O3 Rb6 3.008098 1_555
O3 Rb1 3.306092 1_555
O4 S0 1.453383 1_455
O4 Rb6 2.925822 1_565
O4 Rb4 3.008098 1_555
O4 Rb2 3.306093 1_555
O5 S1 1.453384 1_554
O5 Rb4 2.925822 1_655
O5 Rb5 3.008098 1_555
O5 Rb3 3.306092 1_555
O6 S5 1.452061 1_555
O6 Rb6 2.803826 1_555
O6 Rb4 2.823071 1_545
O7 S3 1.452062 1_555
O7 Rb4 2.803825 1_555
O7 Rb5 2.823071 1_455
O8 S4 1.452061 1_555
O8 Rb5 2.803825 1_555
O8 Rb6 2.823071 1_554
O9 S2 1.452061 1_555
O9 Rb3 2.803826 1_555
O9 Rb1 2.823071 1_565
O10 S0 1.452062 1_555
O10 Rb1 2.803825 1_555
O10 Rb2 2.823071 1_655
O11 S1 1.452061 1_555
O11 Rb2 2.803825 1_555
O11 Rb3 2.823071 1_556
O12 S2 1.558644 1_555
O12 Ta0 1.969778 1_666
O13 S0 1.558644 1_555
O13 Ta0 1.969778 1_666
O14 S1 1.455810 1_555
O14 Rb1 2.850968 1_555
O14 Rb0 2.929356 1_555
O14 Rb6 3.012612 1_555
O15 S0 1.455810 1_555
O15 Rb3 2.850968 1_555
O15 Rb0 2.929355 1_555
O15 Rb5 3.012613 1_555
O16 S2 1.455810 1_555
O16 Rb2 2.850967 1_555
O16 Rb0 2.929356 1_555
O16 Rb4 3.012613 1_555
O17 S4 1.455810 1_555
O17 Rb4 2.850968 1_555
O17 Rb0 2.929356 1_555
O17 Rb3 3.012612 1_555
O18 S3 1.455810 1_555
O18 Rb6 2.850968 1_555
O18 Rb0 2.929355 1_555
O18 Rb2 3.012613 1_555
O19 S5 1.455810 1_555
O19 Rb5 2.850967 1_555
O19 Rb0 2.929356 1_555
O19 Rb1 3.012613 1_555
O20 S4 1.558644 1_555
O20 Ta0 1.969778 1_555
O21 S3 1.558644 1_555
O21 Ta0 1.969778 1_555
O22 S5 1.558644 1_555
O22 Ta0 1.969778 1_555
O23 S1 1.558644 1_555
O23 Ta0 1.969778 1_666
