# generated using pymatgen
data_Sc22Tc3Ir5
_symmetry_space_group_name_H-M   'P 1'
_cell_length_a   9.47908113
_cell_length_b   9.46783054
_cell_length_c   9.46783138
_cell_angle_alpha   60.07862640
_cell_angle_beta   59.96068311
_cell_angle_gamma   59.96068895
_symmetry_Int_Tables_number   1
_chemical_formula_structural   Sc22Tc3Ir5
_chemical_formula_sum   'Sc22 Tc3 Ir5'
_cell_volume   600.82915805
_cell_formula_units_Z   1
loop_
 _symmetry_equiv_pos_site_id
 _symmetry_equiv_pos_as_xyz
  1  'x, y, z'
loop_
 _atom_site_type_symbol
 _atom_site_label
 _atom_site_symmetry_multiplicity
 _atom_site_fract_x
 _atom_site_fract_y
 _atom_site_fract_z
 _atom_site_occupancy
  Sc  Sc0  1  0.80382844  0.80382844  0.19617156  1
  Sc  Sc1  1  0.19617156  0.80382844  0.19617156  1
  Sc  Sc2  1  0.80289845  0.19710155  0.19710155  1
  Sc  Sc3  1  0.19617156  0.19617156  0.80382844  1
  Sc  Sc4  1  0.80382844  0.19617156  0.80382844  1
  Sc  Sc5  1  0.19710155  0.80289845  0.80289845  1
  Sc  Sc6  1  0.61647727  0.61806098  0.14898448  1
  Sc  Sc7  1  0.61647727  0.14898448  0.61806098  1
  Sc  Sc8  1  0.14898448  0.61647727  0.61647727  1
  Sc  Sc9  1  0.61806098  0.61647727  0.61647727  1
  Sc  Sc10  1  0.38352273  0.38193902  0.85101552  1
  Sc  Sc11  1  0.38352273  0.85101552  0.38193902  1
  Sc  Sc12  1  0.85101552  0.38352273  0.38352273  1
  Sc  Sc13  1  0.38193902  0.38352273  0.38352273  1
  Sc  Sc14  1  0.84406459  0.84479229  0.46707653  1
  Sc  Sc15  1  0.84406459  0.46707653  0.84479229  1
  Sc  Sc16  1  0.46707653  0.84406459  0.84406459  1
  Sc  Sc17  1  0.84479229  0.84406459  0.84406459  1
  Sc  Sc18  1  0.15593541  0.15520771  0.53292347  1
  Sc  Sc19  1  0.15593541  0.53292347  0.15520771  1
  Sc  Sc20  1  0.53292347  0.15593541  0.15593541  1
  Sc  Sc21  1  0.15520771  0.15593541  0.15593541  1
  Tc  Tc0  1  0.00000000  0.00000000  0.00000000  1
  Tc  Tc1  1  0.00000000  0.50000000  0.50000000  1
  Tc  Tc2  1  0.50000000  0.00000000  0.00000000  1
  Ir  Ir0  1  0.50000000  0.50000000  0.50000000  1
  Ir  Ir1  1  0.00000000  0.00000000  0.50000000  1
  Ir  Ir2  1  0.50000000  0.00000000  0.50000000  1
  Ir  Ir3  1  0.50000000  0.50000000  0.00000000  1
  Ir  Ir4  1  0.00000000  0.50000000  0.00000000  1
loop_
_geom_bond_atom_site_label_1
_geom_bond_atom_site_label_2
_geom_bond_distance
_geom_bond_site_symmetry_2
Sc0 Tc0 2.629767 1_665
Sc1 Tc0 2.629767 1_565
Sc2 Tc0 2.635959 1_655
Sc3 Tc0 2.629767 1_556
Sc4 Tc0 2.629767 1_656
Sc5 Tc0 2.635959 1_566
Sc6 Tc2 2.959464 1_565
Sc7 Tc2 2.959464 1_556
Sc8 Tc1 2.959464 1_555
Sc9 Tc1 2.959464 1_655
Sc10 Tc2 2.959464 1_556
Sc11 Tc2 2.959464 1_565
Sc12 Tc1 2.959464 1_655
Sc13 Tc1 2.959464 1_555
Sc14 Tc1 2.748405 1_655
Sc15 Tc1 2.748405 1_655
Sc16 Tc2 2.748421 1_566
Sc17 Tc2 2.748409 1_566
Sc18 Tc1 2.748405 1_555
Sc19 Tc1 2.748405 1_555
Sc20 Tc2 2.748421 1_555
Sc21 Tc2 2.748409 1_555
Ir0 Sc11 2.714617 1_555
Ir0 Sc7 2.714617 1_555
Ir0 Sc10 2.714617 1_555
Ir0 Sc6 2.714617 1_555
Ir0 Sc9 2.714617 1_555
Ir0 Sc13 2.714617 1_555
Ir0 Sc12 2.714617 1_555
Ir0 Sc8 2.714617 1_555
Ir1 Sc17 2.744858 1_445
Ir1 Sc21 2.744858 1_555
Ir1 Sc18 2.744870 1_555
Ir1 Sc14 2.744870 1_445
Ir1 Sc12 2.970849 1_455
Ir1 Sc8 2.970849 1_545
Ir1 Sc11 2.970850 1_545
Ir1 Sc7 2.970850 1_455
Ir2 Sc16 2.744854 1_545
Ir2 Sc20 2.744854 1_555
Ir2 Sc14 2.744854 1_545
Ir2 Sc18 2.744854 1_555
Ir2 Sc13 2.970849 1_555
Ir2 Sc9 2.970849 1_545
Ir2 Sc7 2.970849 1_555
Ir2 Sc11 2.970849 1_545
Ir3 Sc16 2.744854 1_554
Ir3 Sc20 2.744854 1_555
Ir3 Sc15 2.744854 1_554
Ir3 Sc19 2.744854 1_555
Ir3 Sc13 2.970849 1_555
Ir3 Sc9 2.970849 1_554
Ir3 Sc6 2.970849 1_555
Ir3 Sc10 2.970849 1_554
Ir4 Sc17 2.744858 1_454
Ir4 Sc21 2.744858 1_555
Ir4 Sc19 2.744870 1_555
Ir4 Sc15 2.744870 1_454
Ir4 Sc8 2.970849 1_554
Ir4 Sc12 2.970849 1_455
Ir4 Sc6 2.970850 1_455
Ir4 Sc10 2.970850 1_554
