# generated using pymatgen
data_Ca2Lu2Sb6Rh7
_symmetry_space_group_name_H-M   'P 1'
_cell_length_a   7.57405132
_cell_length_b   7.57405077
_cell_length_c   7.50036100
_cell_angle_alpha   109.37300611
_cell_angle_beta   109.37300802
_cell_angle_gamma   110.06104788
_symmetry_Int_Tables_number   1
_chemical_formula_structural   Ca2Lu2Sb6Rh7
_chemical_formula_sum   'Ca2 Lu2 Sb6 Rh7'
_cell_volume   329.59034211
_cell_formula_units_Z   1
loop_
 _symmetry_equiv_pos_site_id
 _symmetry_equiv_pos_as_xyz
  1  'x, y, z'
loop_
 _atom_site_type_symbol
 _atom_site_label
 _atom_site_symmetry_multiplicity
 _atom_site_fract_x
 _atom_site_fract_y
 _atom_site_fract_z
 _atom_site_occupancy
  Ca  Ca0  1  0.00000000  0.00000000  0.50000000  1
  Ca  Ca1  1  0.50000000  0.50000000  0.50000000  1
  Lu  Lu0  1  0.50000000  0.00000000  0.00000000  1
  Lu  Lu1  1  0.00000000  0.50000000  0.00000000  1
  Sb  Sb0  1  0.31794033  0.00189664  0.31983697  1
  Sb  Sb1  1  0.99810336  0.68205967  0.68016303  1
  Sb  Sb2  1  0.68101324  0.68101324  0.00000000  1
  Sb  Sb3  1  0.68205967  0.99810336  0.68016303  1
  Sb  Sb4  1  0.00189664  0.31794033  0.31983697  1
  Sb  Sb5  1  0.31898676  0.31898676  1.00000000  1
  Rh  Rh0  1  0.24900449  0.51009363  0.75909813  1
  Rh  Rh1  1  0.51009363  0.24900449  0.75909813  1
  Rh  Rh2  1  0.75000000  0.25000000  0.50000000  1
  Rh  Rh3  1  0.48990637  0.75099551  0.24090187  1
  Rh  Rh4  1  0.00000000  0.00000000  0.00000000  1
  Rh  Rh5  1  0.25000000  0.75000000  0.50000000  1
  Rh  Rh6  1  0.75099551  0.48990637  0.24090187  1
loop_
_geom_bond_atom_site_label_1
_geom_bond_atom_site_label_2
_geom_bond_distance
_geom_bond_site_symmetry_2
Ca0 Rh5 3.103306 1_545
Ca0 Rh2 3.103306 1_455
Ca0 Sb5 3.116334 1_555
Ca0 Sb2 3.116334 1_445
Ca0 Sb4 3.126194 1_555
Ca0 Sb1 3.126194 1_445
Ca0 Sb0 3.126195 1_555
Ca0 Sb3 3.126195 1_445
Ca0 Rh0 3.138230 1_555
Ca0 Rh6 3.138230 1_445
Ca0 Rh1 3.138230 1_555
Ca0 Rh3 3.138230 1_445
Ca1 Rh5 3.103306 1_555
Ca1 Rh2 3.103306 1_555
Ca1 Sb2 3.116334 1_556
Ca1 Sb5 3.116334 1_554
Ca1 Sb3 3.126194 1_555
Ca1 Sb0 3.126194 1_555
Ca1 Sb1 3.126195 1_555
Ca1 Sb4 3.126195 1_555
Ca1 Rh1 3.138230 1_555
Ca1 Rh3 3.138230 1_555
Ca1 Rh6 3.138230 1_555
Ca1 Rh0 3.138230 1_555
Lu0 Rh3 3.013460 1_545
Lu0 Rh1 3.013460 1_554
Lu0 Rh6 3.013460 1_555
Lu0 Rh0 3.013460 1_544
Lu0 Rh2 3.058235 1_555
Lu0 Rh5 3.058235 1_544
Lu0 Sb0 3.137139 1_555
Lu0 Sb3 3.137139 1_544
Lu0 Sb4 3.137139 1_655
Lu0 Sb1 3.137139 1_444
Lu0 Sb5 3.160576 1_554
Lu0 Sb2 3.160576 1_545
Lu1 Rh0 3.013460 1_554
Lu1 Rh6 3.013460 1_455
Lu1 Rh3 3.013460 1_555
Lu1 Rh1 3.013460 1_454
Lu1 Rh5 3.058235 1_555
Lu1 Rh2 3.058235 1_454
Lu1 Sb4 3.137139 1_555
Lu1 Sb1 3.137139 1_454
Lu1 Sb0 3.137139 1_565
Lu1 Sb3 3.137139 1_444
Lu1 Sb5 3.160576 1_554
Lu1 Sb2 3.160576 1_455
Rh0 Sb1 2.668611 1_455
Rh0 Sb5 2.695709 1_555
Rh0 Sb2 2.695709 1_556
Rh0 Sb4 2.708292 1_555
Rh1 Sb3 2.668611 1_545
Rh1 Sb5 2.695709 1_555
Rh1 Sb2 2.695709 1_556
Rh1 Sb0 2.708292 1_555
Rh2 Sb3 2.688671 1_545
Rh2 Sb4 2.688671 1_655
Rh2 Sb1 2.688672 1_555
Rh2 Sb0 2.688672 1_555
Rh3 Sb0 2.668611 1_565
Rh3 Sb2 2.695709 1_555
Rh3 Sb5 2.695709 1_554
Rh3 Sb3 2.708292 1_555
Rh4 Sb5 2.769437 1_554
Rh4 Sb2 2.769437 1_445
Rh4 Sb4 2.770330 1_555
Rh4 Sb1 2.770330 1_444
Rh4 Sb0 2.770330 1_555
Rh4 Sb3 2.770330 1_444
Rh5 Sb0 2.688671 1_565
Rh5 Sb1 2.688671 1_455
Rh5 Sb4 2.688672 1_555
Rh5 Sb3 2.688672 1_555
Rh6 Sb4 2.668611 1_655
Rh6 Sb2 2.695709 1_555
Rh6 Sb5 2.695709 1_554
Rh6 Sb1 2.708292 1_555
