# generated using pymatgen
data_Ho3(CuSi)4
_symmetry_space_group_name_H-M   'P 1'
_cell_length_a   4.10322556
_cell_length_b   6.49807945
_cell_length_c   7.79777539
_cell_angle_alpha   114.63452655
_cell_angle_beta   105.29249183
_cell_angle_gamma   89.99792158
_symmetry_Int_Tables_number   1
_chemical_formula_structural   Ho3(CuSi)4
_chemical_formula_sum   'Ho3 Cu4 Si4'
_cell_volume   180.86014539
_cell_formula_units_Z   1
loop_
 _symmetry_equiv_pos_site_id
 _symmetry_equiv_pos_as_xyz
  1  'x, y, z'
loop_
 _atom_site_type_symbol
 _atom_site_label
 _atom_site_symmetry_multiplicity
 _atom_site_fract_x
 _atom_site_fract_y
 _atom_site_fract_z
 _atom_site_occupancy
  Ho  Ho0  1  0.86950908  0.86958046  0.73949361  1
  Ho  Ho1  1  0.13049092  0.13041954  0.26050639  1
  Ho  Ho2  1  0.00000000  0.50000000  0.00000000  1
  Cu  Cu0  1  0.32951737  0.52061196  0.66223708  1
  Cu  Cu1  1  0.67070173  0.85913714  0.33851378  1
  Cu  Cu2  1  0.32929827  0.14086286  0.66148622  1
  Cu  Cu3  1  0.67048263  0.47938804  0.33776292  1
  Si  Si0  1  0.50007471  0.81532502  0.00020395  1
  Si  Si1  1  0.49992529  0.18467498  0.99979605  1
  Si  Si2  1  0.78327882  0.28408366  0.56795029  1
  Si  Si3  1  0.21672118  0.71591734  0.43204971  1
loop_
_geom_bond_atom_site_label_1
_geom_bond_atom_site_label_2
_geom_bond_distance
_geom_bond_site_symmetry_2
Ho0 Si3 2.921695 1_555
Ho0 Si3 2.929186 1_655
Ho0 Si1 2.961355 1_665
Ho0 Si1 2.961558 1_565
Ho0 Si0 2.962171 1_656
Ho0 Si0 2.962807 1_556
Ho1 Si2 2.921695 1_555
Ho1 Si2 2.929186 1_455
Ho1 Si0 2.961355 1_445
Ho1 Si0 2.961558 1_545
Ho1 Si1 2.962171 1_454
Ho1 Si1 2.962807 1_554
Ho2 Si1 2.899081 1_454
Ho2 Si0 2.899081 1_555
Ho2 Si1 2.899136 1_554
Ho2 Si0 2.899136 1_455
Ho2 Si3 2.930665 1_555
Ho2 Si2 2.930665 1_454
Cu0 Si0 2.433584 1_556
Cu0 Cu2 2.465205 1_555
Cu0 Si2 2.472936 1_455
Cu0 Si2 2.479780 1_555
Cu0 Si3 2.550979 1_555
Cu0 Ho0 2.920346 1_455
Cu0 Ho0 2.927768 1_555
Cu0 Ho1 2.989663 1_555
Cu1 Si0 2.435209 1_555
Cu1 Cu3 2.465205 1_555
Cu1 Si3 2.474150 1_655
Cu1 Si3 2.480072 1_555
Cu1 Si2 2.546539 1_565
Cu1 Ho1 2.921707 1_665
Cu1 Ho1 2.928016 1_565
Cu1 Ho0 2.987355 1_555
Cu2 Si1 2.435209 1_555
Cu2 Si2 2.474154 1_455
Cu2 Si2 2.480076 1_555
Cu2 Si3 2.546534 1_545
Cu2 Ho0 2.921707 1_445
Cu2 Ho0 2.928016 1_545
Cu2 Ho1 2.987355 1_555
Cu3 Si1 2.433584 1_554
Cu3 Si3 2.472939 1_655
Cu3 Si3 2.479783 1_555
Cu3 Si2 2.550974 1_555
Cu3 Ho1 2.920346 1_655
Cu3 Ho1 2.927768 1_555
Cu3 Ho0 2.989663 1_555
Si0 Si1 2.401393 1_564
