# generated using pymatgen
data_Hf10ZnCuSn6
_symmetry_space_group_name_H-M   'P 1'
_cell_length_a   8.54459812
_cell_length_b   8.54459833
_cell_length_c   5.79742499
_cell_angle_alpha   90.00000000
_cell_angle_beta   90.00000000
_cell_angle_gamma   119.99999158
_symmetry_Int_Tables_number   1
_chemical_formula_structural   Hf10ZnCuSn6
_chemical_formula_sum   'Hf10 Zn1 Cu1 Sn6'
_cell_volume   366.56340003
_cell_formula_units_Z   1
loop_
 _symmetry_equiv_pos_site_id
 _symmetry_equiv_pos_as_xyz
  1  'x, y, z'
loop_
 _atom_site_type_symbol
 _atom_site_label
 _atom_site_symmetry_multiplicity
 _atom_site_fract_x
 _atom_site_fract_y
 _atom_site_fract_z
 _atom_site_occupancy
  Hf  Hf0  1  0.33333300  0.66666700  0.00000000  1
  Hf  Hf1  1  0.66666700  0.33333300  0.50000000  1
  Hf  Hf2  1  0.66666700  0.33333300  0.00000000  1
  Hf  Hf3  1  0.33333300  0.66666700  0.50000000  1
  Hf  Hf4  1  0.26342575  0.00000000  0.25315885  1
  Hf  Hf5  1  0.26342575  0.26342575  0.74684115  1
  Hf  Hf6  1  1.00000000  0.73657425  0.74684115  1
  Hf  Hf7  1  0.00000000  0.26342575  0.25315885  1
  Hf  Hf8  1  0.73657425  0.73657425  0.25315885  1
  Hf  Hf9  1  0.73657425  1.00000000  0.74684115  1
  Zn  Zn0  1  0.00000000  0.00000000  0.00000000  1
  Cu  Cu0  1  0.00000000  0.00000000  0.50000000  1
  Sn  Sn0  1  0.61312368  0.00000000  0.24851213  1
  Sn  Sn1  1  0.61312368  0.61312368  0.75148787  1
  Sn  Sn2  1  1.00000000  0.38687632  0.75148787  1
  Sn  Sn3  1  0.00000000  0.61312368  0.24851213  1
  Sn  Sn4  1  0.38687632  0.38687632  0.24851213  1
  Sn  Sn5  1  0.38687632  1.00000000  0.75148787  1
loop_
_geom_bond_atom_site_label_1
_geom_bond_atom_site_label_2
_geom_bond_distance
_geom_bond_site_symmetry_2
Hf0 Hf3 2.898712 1_554
Hf0 Hf3 2.898712 1_555
Hf0 Sn3 3.015655 1_555
Hf0 Sn5 3.015655 1_554
Hf0 Sn2 3.015658 1_454
Hf0 Sn0 3.015658 1_565
Hf0 Sn1 3.015662 1_554
Hf0 Sn4 3.015662 1_555
Hf1 Hf2 2.898712 1_556
Hf1 Hf2 2.898712 1_555
Hf1 Sn2 3.023935 1_555
Hf1 Sn0 3.023935 1_555
Hf1 Sn3 3.023938 1_655
Hf1 Sn5 3.023938 1_545
Hf1 Sn4 3.023942 1_555
Hf1 Sn1 3.023942 1_555
Hf2 Sn2 3.015655 1_554
Hf2 Sn0 3.015655 1_555
Hf2 Sn3 3.015658 1_655
Hf2 Sn5 3.015658 1_544
Hf2 Sn4 3.015662 1_555
Hf2 Sn1 3.015662 1_554
Hf3 Sn3 3.023935 1_555
Hf3 Sn5 3.023935 1_555
Hf3 Sn2 3.023938 1_455
Hf3 Sn0 3.023938 1_565
Hf3 Sn1 3.023942 1_555
Hf3 Sn4 3.023942 1_555
Hf4 Zn0 2.687091 1_555
Hf4 Sn4 2.924740 1_555
Hf4 Sn3 2.924740 1_545
Hf4 Sn0 2.988150 1_555
Hf4 Sn5 3.075572 1_545
Hf4 Sn5 3.093779 1_544
Hf5 Zn0 2.687091 1_556
Hf5 Sn2 2.924739 1_455
Hf5 Sn5 2.924739 1_545
Hf5 Sn1 2.988150 1_555
Hf5 Sn4 3.075572 1_555
Hf5 Sn4 3.093779 1_556
Hf6 Zn0 2.687091 1_666
Hf6 Sn1 2.924740 1_555
Hf6 Sn5 2.924740 1_655
Hf6 Sn2 2.988150 1_555
Hf6 Sn3 3.075572 1_655
Hf6 Sn3 3.093779 1_656
Hf7 Zn0 2.687091 1_555
Hf7 Sn4 2.924740 1_555
Hf7 Sn0 2.924740 1_455
Hf7 Sn3 2.988150 1_555
Hf7 Sn2 3.075572 1_455
Hf7 Sn2 3.093779 1_454
Hf8 Zn0 2.687091 1_665
Hf8 Sn3 2.924739 1_655
Hf8 Sn0 2.924739 1_565
Hf8 Sn4 2.988150 1_555
Hf8 Sn1 3.075572 1_555
Hf8 Sn1 3.093779 1_554
Hf9 Zn0 2.687091 1_666
Hf9 Sn1 2.924740 1_555
Hf9 Sn2 2.924740 1_565
Hf9 Sn5 2.988150 1_555
Hf9 Sn0 3.075572 1_565
Hf9 Sn0 3.093779 1_566
Cu0 Hf4 2.667262 1_555
Cu0 Hf9 2.667262 1_445
Cu0 Hf7 2.667262 1_555
Cu0 Hf6 2.667262 1_445
Cu0 Hf5 2.667262 1_555
Cu0 Hf8 2.667262 1_445
Cu0 Zn0 2.898712 1_555
Cu0 Zn0 2.898712 1_556
