# generated using pymatgen
data_Y20Cd3Hg3Os2
_symmetry_space_group_name_H-M   'P 1'
_cell_length_a   9.65954212
_cell_length_b   9.65961969
_cell_length_c   9.76697728
_cell_angle_alpha   90.00000000
_cell_angle_beta   90.00000000
_cell_angle_gamma   120.00130528
_symmetry_Int_Tables_number   1
_chemical_formula_structural   Y20Cd3Hg3Os2
_chemical_formula_sum   'Y20 Cd3 Hg3 Os2'
_cell_volume   789.22651110
_cell_formula_units_Z   1
loop_
 _symmetry_equiv_pos_site_id
 _symmetry_equiv_pos_as_xyz
  1  'x, y, z'
loop_
 _atom_site_type_symbol
 _atom_site_label
 _atom_site_symmetry_multiplicity
 _atom_site_fract_x
 _atom_site_fract_y
 _atom_site_fract_z
 _atom_site_occupancy
  Y  Y0  1  0.00000906  0.00000933  0.48466420  1
  Y  Y1  1  0.00000906  0.00000933  0.01533580  1
  Y  Y2  1  0.20960174  0.79038781  0.43837328  1
  Y  Y3  1  0.20960807  0.41922210  0.43837097  1
  Y  Y4  1  0.58078136  0.79038800  0.43837648  1
  Y  Y5  1  0.79034561  0.20965130  0.56000853  1
  Y  Y6  1  0.79034371  0.58069297  0.56000501  1
  Y  Y7  1  0.41931275  0.20965764  0.56001493  1
  Y  Y8  1  0.79034561  0.20965130  0.93999147  1
  Y  Y9  1  0.79034371  0.58069297  0.93999499  1
  Y  Y10  1  0.41931275  0.20965764  0.93998507  1
  Y  Y11  1  0.20960174  0.79038781  0.06162672  1
  Y  Y12  1  0.20960807  0.41922210  0.06162903  1
  Y  Y13  1  0.58078136  0.79038800  0.06162352  1
  Y  Y14  1  0.54030358  0.45968195  0.25000000  1
  Y  Y15  1  0.54030470  0.08062630  0.25000000  1
  Y  Y16  1  0.91937013  0.45968796  0.25000000  1
  Y  Y17  1  0.45937544  0.54061090  0.75000000  1
  Y  Y18  1  0.45938305  0.91877756  0.75000000  1
  Y  Y19  1  0.08120771  0.54060254  0.75000000  1
  Cd  Cd0  1  0.11156576  0.88843870  0.75000000  1
  Cd  Cd1  1  0.11156888  0.22312786  0.75000000  1
  Cd  Cd2  1  0.77687459  0.88843532  0.75000000  1
  Hg  Hg0  1  0.87783854  0.12218327  0.25000000  1
  Hg  Hg1  1  0.87784098  0.75565773  0.25000000  1
  Hg  Hg2  1  0.24434319  0.12216789  0.25000000  1
  Os  Os0  1  0.33331978  0.66665676  0.25000000  1
  Os  Os1  1  0.66669406  0.33333197  0.75000000  1
loop_
_geom_bond_atom_site_label_1
_geom_bond_atom_site_label_2
_geom_bond_distance
_geom_bond_site_symmetry_2
Cd0 Y1 3.193761 1_566
Cd0 Y0 3.193761 1_565
Cd0 Y18 3.223227 1_555
Cd0 Y19 3.223356 1_555
Cd0 Cd2 3.232947 1_455
Cd0 Cd1 3.232955 1_565
Cd0 Y11 3.457543 1_556
Cd0 Y2 3.457543 1_555
Cd0 Y10 3.561403 1_565
Cd0 Y7 3.561403 1_565
Cd0 Y9 3.561460 1_455
Cd0 Y6 3.561460 1_455
Cd1 Y1 3.193701 1_556
Cd1 Y0 3.193701 1_555
Cd1 Y17 3.223141 1_555
Cd1 Y19 3.223350 1_555
Cd1 Cd2 3.232934 1_445
Cd1 Y12 3.457580 1_556
Cd1 Y3 3.457580 1_555
Cd1 Y10 3.561412 1_555
Cd1 Y7 3.561412 1_555
Cd1 Y8 3.561490 1_455
Cd1 Y5 3.561490 1_455
Cd2 Y1 3.193770 1_666
Cd2 Y0 3.193770 1_665
Cd2 Y17 3.223311 1_555
Cd2 Y18 3.223385 1_555
Cd2 Y13 3.457523 1_556
Cd2 Y4 3.457523 1_555
Cd2 Y9 3.561465 1_555
Cd2 Y6 3.561465 1_555
Cd2 Y8 3.561473 1_565
Cd2 Y5 3.561473 1_565
Hg0 Y0 3.071038 1_655
Hg0 Y1 3.071038 1_655
Hg0 Y16 3.079233 1_555
Hg0 Y15 3.079388 1_555
Hg0 Y5 3.363047 1_555
Hg0 Y8 3.363047 1_554
Hg0 Y3 3.562639 1_655
Hg0 Y12 3.562639 1_655
Hg0 Y4 3.562858 1_545
Hg0 Y13 3.562858 1_545
Hg1 Y0 3.071056 1_665
Hg1 Y1 3.071056 1_665
Hg1 Y16 3.079200 1_555
Hg1 Y14 3.079363 1_555
Hg1 Y6 3.363019 1_555
Hg1 Y9 3.363019 1_554
Hg1 Y2 3.562617 1_655
Hg1 Y11 3.562617 1_655
Hg1 Y4 3.562886 1_555
Hg1 Y13 3.562886 1_555
Hg2 Y0 3.070948 1_555
Hg2 Y1 3.070948 1_555
Hg2 Y15 3.079171 1_555
Hg2 Y14 3.079176 1_555
Hg2 Y7 3.363119 1_555
Hg2 Y10 3.363119 1_554
Hg2 Y2 3.562760 1_545
Hg2 Y11 3.562760 1_545
Hg2 Y3 3.562855 1_555
Hg2 Y12 3.562855 1_555
Os0 Y3 2.769355 1_555
Os0 Y12 2.769355 1_555
Os0 Y2 2.769485 1_555
Os0 Y11 2.769485 1_555
Os0 Y4 2.769547 1_555
Os0 Y13 2.769547 1_555
Os1 Y8 2.779281 1_555
Os1 Y5 2.779281 1_555
Os1 Y9 2.779460 1_555
Os1 Y6 2.779460 1_555
Os1 Y10 2.779509 1_555
Os1 Y7 2.779509 1_555
Os1 Y19 3.467531 1_655
Os1 Y18 3.467899 1_545
Os1 Y17 3.468315 1_555
