# generated using pymatgen
data_Ga6ReRh
_symmetry_space_group_name_H-M   'P 1'
_cell_length_a   6.51635338
_cell_length_b   6.51635338
_cell_length_c   6.76148862
_cell_angle_alpha   90.00000000
_cell_angle_beta   90.00000000
_cell_angle_gamma   89.46065443
_symmetry_Int_Tables_number   1
_chemical_formula_structural   Ga6ReRh
_chemical_formula_sum   'Ga12 Re2 Rh2'
_cell_volume   287.09943313
_cell_formula_units_Z   2
loop_
 _symmetry_equiv_pos_site_id
 _symmetry_equiv_pos_as_xyz
  1  'x, y, z'
loop_
 _atom_site_type_symbol
 _atom_site_label
 _atom_site_symmetry_multiplicity
 _atom_site_fract_x
 _atom_site_fract_y
 _atom_site_fract_z
 _atom_site_occupancy
  Ga  Ga0  1  0.00000000  0.50000000  0.50000000  1
  Ga  Ga1  1  0.50000000  0.00000000  0.00000000  1
  Ga  Ga2  1  0.50000000  0.00000000  0.50000000  1
  Ga  Ga3  1  0.00000000  0.50000000  0.00000000  1
  Ga  Ga4  1  0.34867758  0.65132242  0.23711266  1
  Ga  Ga5  1  0.65132242  0.34867758  0.23711266  1
  Ga  Ga6  1  0.15784180  0.15784180  0.73167958  1
  Ga  Ga7  1  0.84215820  0.84215820  0.73167958  1
  Ga  Ga8  1  0.65132242  0.34867758  0.76288734  1
  Ga  Ga9  1  0.34867758  0.65132242  0.76288734  1
  Ga  Ga10  1  0.84215820  0.84215820  0.26832042  1
  Ga  Ga11  1  0.15784180  0.15784180  0.26832042  1
  Re  Re0  1  0.16222678  0.83777322  0.50000000  1
  Re  Re1  1  0.83777322  0.16222678  0.50000000  1
  Rh  Rh0  1  0.34179779  0.34179779  0.00000000  1
  Rh  Rh1  1  0.65820221  0.65820221  0.00000000  1
loop_
_geom_bond_atom_site_label_1
_geom_bond_atom_site_label_2
_geom_bond_distance
_geom_bond_site_symmetry_2
Ga0 Re1 2.450702 1_455
Ga0 Re0 2.450702 1_555
Ga0 Ga7 2.905148 1_455
Ga0 Ga6 2.905148 1_555
Ga0 Ga10 2.905148 1_455
Ga0 Ga11 2.905148 1_555
Ga0 Ga9 3.055572 1_555
Ga0 Ga4 3.055572 1_555
Ga0 Ga8 3.055572 1_455
Ga0 Ga5 3.055572 1_455
Ga1 Rh0 2.445462 1_555
Ga1 Rh1 2.445462 1_545
Ga1 Ga5 2.957591 1_555
Ga1 Ga8 2.957591 1_554
Ga1 Ga4 2.957591 1_545
Ga1 Ga9 2.957591 1_544
Ga1 Ga10 3.045892 1_545
Ga1 Ga11 3.045892 1_555
Ga1 Ga7 3.045892 1_544
Ga1 Ga6 3.045892 1_554
Ga2 Re0 2.450702 1_545
Ga2 Re1 2.450702 1_555
Ga2 Ga7 2.905148 1_545
Ga2 Ga6 2.905148 1_555
Ga2 Ga8 3.055572 1_555
Ga2 Ga5 3.055572 1_555
Ga2 Ga9 3.055572 1_545
Ga2 Ga4 3.055572 1_545
Ga3 Rh0 2.445462 1_555
Ga3 Rh1 2.445462 1_455
Ga3 Ga4 2.957591 1_555
Ga3 Ga9 2.957591 1_554
Ga3 Ga5 2.957591 1_455
Ga3 Ga8 2.957591 1_454
Ga3 Ga7 3.045892 1_454
Ga3 Ga6 3.045892 1_554
Ga4 Re0 2.466597 1_555
Ga4 Rh1 2.577256 1_555
Ga4 Rh0 2.577256 1_555
Ga4 Ga5 2.775870 1_555
Ga5 Re1 2.466597 1_555
Ga5 Rh1 2.577256 1_555
Ga5 Rh0 2.577256 1_555
Ga6 Rh0 2.488455 1_556
Ga6 Re1 2.608385 1_455
Ga6 Re0 2.608385 1_545
Ga6 Ga7 2.922847 1_445
Ga7 Rh1 2.488455 1_556
Ga7 Re0 2.608385 1_655
Ga7 Re1 2.608385 1_565
Ga8 Re1 2.466597 1_555
Ga8 Rh0 2.577256 1_556
Ga8 Rh1 2.577256 1_556
Ga8 Ga9 2.775870 1_555
Ga9 Re0 2.466597 1_555
Ga9 Rh0 2.577256 1_556
Ga9 Rh1 2.577256 1_556
Ga10 Rh1 2.488455 1_555
Ga10 Re0 2.608385 1_655
Ga10 Re1 2.608385 1_565
Ga10 Ga2 2.905148 1_565
Ga10 Ga11 2.922847 1_665
Ga10 Ga3 3.045892 1_655
Ga10 Ga7 3.132998 1_555
Ga11 Rh0 2.488455 1_555
Ga11 Re0 2.608385 1_545
Ga11 Re1 2.608385 1_455
Ga11 Ga2 2.905148 1_555
Ga11 Ga3 3.045892 1_555
Ga11 Ga6 3.132998 1_555
