# generated using pymatgen
data_Sc22Tc3RuRh4
_symmetry_space_group_name_H-M   'P 1'
_cell_length_a   9.48972884
_cell_length_b   9.47654825
_cell_length_c   9.48972804
_cell_angle_alpha   60.04592588
_cell_angle_beta   59.90812816
_cell_angle_gamma   60.04592435
_symmetry_Int_Tables_number   1
_chemical_formula_structural   Sc22Tc3RuRh4
_chemical_formula_sum   'Sc22 Tc3 Ru1 Rh4'
_cell_volume   603.44960239
_cell_formula_units_Z   1
loop_
 _symmetry_equiv_pos_site_id
 _symmetry_equiv_pos_as_xyz
  1  'x, y, z'
loop_
 _atom_site_type_symbol
 _atom_site_label
 _atom_site_symmetry_multiplicity
 _atom_site_fract_x
 _atom_site_fract_y
 _atom_site_fract_z
 _atom_site_occupancy
  Sc  Sc0  1  0.80415134  0.80415134  0.19584866  1
  Sc  Sc1  1  0.19806296  0.80193704  0.19806296  1
  Sc  Sc2  1  0.80415134  0.19584866  0.19584866  1
  Sc  Sc3  1  0.19584866  0.19584866  0.80415134  1
  Sc  Sc4  1  0.80193704  0.19806296  0.80193704  1
  Sc  Sc5  1  0.19584866  0.80415134  0.80415134  1
  Sc  Sc6  1  0.61951269  0.61410046  0.15228940  1
  Sc  Sc7  1  0.61410046  0.15228940  0.61410046  1
  Sc  Sc8  1  0.15228940  0.61410046  0.61951269  1
  Sc  Sc9  1  0.61410046  0.61951269  0.61410046  1
  Sc  Sc10  1  0.38048731  0.38589954  0.84771060  1
  Sc  Sc11  1  0.38589954  0.84771060  0.38589954  1
  Sc  Sc12  1  0.84771060  0.38589954  0.38048731  1
  Sc  Sc13  1  0.38589954  0.38048731  0.38589954  1
  Sc  Sc14  1  0.84490958  0.84295290  0.46918361  1
  Sc  Sc15  1  0.84295290  0.46918361  0.84295290  1
  Sc  Sc16  1  0.46918361  0.84295290  0.84490958  1
  Sc  Sc17  1  0.84295290  0.84490958  0.84295290  1
  Sc  Sc18  1  0.15509042  0.15704710  0.53081639  1
  Sc  Sc19  1  0.15704710  0.53081639  0.15704710  1
  Sc  Sc20  1  0.53081639  0.15704710  0.15509042  1
  Sc  Sc21  1  0.15704710  0.15509042  0.15704710  1
  Tc  Tc0  1  0.00000000  0.00000000  0.00000000  1
  Tc  Tc1  1  0.50000000  0.00000000  0.50000000  1
  Tc  Tc2  1  0.00000000  0.50000000  0.00000000  1
  Ru  Ru0  1  0.50000000  0.50000000  0.50000000  1
  Rh  Rh0  1  0.00000000  0.00000000  0.50000000  1
  Rh  Rh1  1  0.00000000  0.50000000  0.50000000  1
  Rh  Rh2  1  0.50000000  0.50000000  0.00000000  1
  Rh  Rh3  1  0.50000000  0.00000000  0.00000000  1
loop_
_geom_bond_atom_site_label_1
_geom_bond_atom_site_label_2
_geom_bond_distance
_geom_bond_site_symmetry_2
Sc0 Tc0 2.624737 1_665
Sc0 Sc14 3.018862 1_555
Sc0 Sc20 3.018868 1_565
Sc0 Sc19 3.018868 1_655
Sc0 Sc17 3.018872 1_554
Sc0 Sc6 3.332527 1_555
Sc0 Sc9 3.332546 1_555
Sc0 Sc12 3.332552 1_555
Sc0 Sc11 3.332552 1_555
Sc1 Tc0 2.661791 1_565
Sc1 Sc19 3.008898 1_555
Sc1 Sc16 3.008904 1_554
Sc1 Sc14 3.008904 1_455
Sc1 Sc21 3.008907 1_565
Sc1 Sc11 3.357584 1_555
Sc1 Sc13 3.357602 1_555
Sc1 Sc8 3.357608 1_555
Sc1 Sc6 3.357608 1_555
Sc2 Tc0 2.624737 1_655
Sc2 Sc20 3.018863 1_555
Sc2 Sc21 3.018872 1_655
Sc2 Sc7 3.332551 1_555
Sc2 Sc6 3.332551 1_555
Sc3 Tc0 2.624737 1_556
Sc3 Sc8 3.332552 1_555
Sc3 Sc7 3.332552 1_555
Sc4 Tc0 2.661791 1_656
Sc4 Sc7 3.357584 1_555
Sc4 Sc9 3.357602 1_555
Sc5 Tc0 2.624737 1_566
Sc5 Sc8 3.332527 1_555
Sc5 Sc9 3.332546 1_555
Sc6 Tc2 2.953657 1_655
Sc7 Tc1 2.953680 1_555
Sc8 Tc2 2.953657 1_556
Sc9 Tc1 2.953655 1_565
Sc10 Tc2 2.953657 1_556
Sc10 Sc8 3.066778 1_555
Sc10 Sc7 3.130811 1_555
Sc10 Sc9 3.130851 1_555
Sc10 Sc21 3.142503 1_556
Sc10 Sc19 3.142524 1_556
Sc10 Sc20 3.164345 1_556
Sc10 Sc3 3.332527 1_555
Sc10 Sc5 3.332551 1_555
Sc10 Sc4 3.357608 1_555
Sc11 Tc1 2.953680 1_565
Sc11 Sc9 3.066818 1_555
Sc11 Sc6 3.130811 1_555
Sc11 Sc8 3.130811 1_555
Sc11 Sc18 3.142524 1_565
Sc11 Sc20 3.142524 1_565
Sc11 Sc21 3.164324 1_565
Sc11 Sc5 3.332551 1_555
Sc12 Tc2 2.953657 1_655
Sc12 Sc6 3.066778 1_555
Sc12 Sc7 3.130811 1_555
Sc12 Sc9 3.130851 1_555
Sc12 Sc21 3.142503 1_655
Sc12 Sc19 3.142524 1_655
Sc12 Sc18 3.164345 1_655
Sc12 Sc2 3.332527 1_555
Sc12 Sc4 3.357608 1_555
Sc13 Tc1 2.953655 1_555
Sc13 Sc7 3.066818 1_555
Sc13 Sc8 3.130851 1_555
Sc13 Sc6 3.130851 1_555
Sc13 Sc20 3.142493 1_555
Sc13 Sc18 3.142494 1_555
Sc13 Sc19 3.164315 1_555
Sc13 Sc3 3.332546 1_555
Sc13 Sc2 3.332546 1_555
Sc14 Tc1 2.761148 1_565
Sc14 Sc2 3.018868 1_565
Sc14 Sc9 3.142494 1_555
Sc14 Sc7 3.142524 1_565
Sc14 Sc8 3.164345 1_655
Sc15 Tc2 2.761156 1_656
Sc15 Sc4 3.008898 1_555
Sc15 Sc2 3.018868 1_556
Sc15 Sc3 3.018868 1_655
Sc15 Sc6 3.142524 1_556
Sc15 Sc8 3.142524 1_655
Sc15 Sc9 3.164315 1_555
Sc16 Tc1 2.761147 1_565
Sc16 Sc5 3.018863 1_555
Sc16 Sc3 3.018868 1_565
Sc16 Sc9 3.142493 1_555
Sc16 Sc7 3.142524 1_565
Sc16 Sc6 3.164345 1_556
Sc17 Tc2 2.761149 1_656
Sc17 Sc4 3.008907 1_565
Sc17 Sc5 3.018872 1_655
Sc17 Sc8 3.142503 1_655
Sc17 Sc6 3.142503 1_556
Sc17 Sc7 3.164324 1_565
Sc18 Tc1 2.761148 1_555
Sc18 Sc4 3.008904 1_455
Sc18 Sc3 3.018862 1_555
Sc18 Sc5 3.018868 1_545
Sc19 Tc2 2.761156 1_555
Sc19 Sc5 3.018868 1_554
Sc20 Tc1 2.761147 1_555
Sc20 Sc4 3.008904 1_554
Sc21 Tc2 2.761149 1_555
Sc21 Sc3 3.018872 1_554
Ru0 Sc11 2.693015 1_555
Ru0 Sc7 2.693015 1_555
Ru0 Sc10 2.693016 1_555
Ru0 Sc6 2.693016 1_555
Ru0 Sc8 2.693016 1_555
Ru0 Sc12 2.693016 1_555
Ru0 Sc9 2.693039 1_555
Ru0 Sc13 2.693039 1_555
Rh0 Sc17 2.742274 1_445
Rh0 Sc21 2.742274 1_555
Rh0 Sc18 2.742280 1_555
Rh0 Sc14 2.742280 1_445
Rh0 Sc11 2.995423 1_545
Rh0 Sc7 2.995423 1_455
Rh0 Sc12 2.995423 1_455
Rh0 Sc8 2.995423 1_545
Rh1 Sc14 2.742272 1_455
Rh1 Sc18 2.742272 1_555
Rh1 Sc15 2.742272 1_455
Rh1 Sc19 2.742272 1_555
Rh1 Sc13 2.995422 1_555
Rh1 Sc9 2.995422 1_455
Rh1 Sc8 2.995446 1_555
Rh1 Sc12 2.995446 1_455
Rh2 Sc16 2.742272 1_554
Rh2 Sc20 2.742272 1_555
Rh2 Sc15 2.742272 1_554
Rh2 Sc19 2.742272 1_555
Rh2 Sc13 2.995422 1_555
Rh2 Sc9 2.995422 1_554
Rh2 Sc6 2.995446 1_555
Rh2 Sc10 2.995446 1_554
Rh3 Sc17 2.742274 1_544
Rh3 Sc21 2.742274 1_555
Rh3 Sc20 2.742280 1_555
Rh3 Sc16 2.742280 1_544
Rh3 Sc11 2.995423 1_545
Rh3 Sc7 2.995423 1_554
Rh3 Sc10 2.995423 1_554
Rh3 Sc6 2.995423 1_545
