# generated using pymatgen
data_Rb2LiRhBr6
_symmetry_space_group_name_H-M   'P 1'
_cell_length_a   7.37419293
_cell_length_b   7.37419220
_cell_length_c   6.43321239
_cell_angle_alpha   90.00000000
_cell_angle_beta   90.00000000
_cell_angle_gamma   119.99999897
_symmetry_Int_Tables_number   1
_chemical_formula_structural   Rb2LiRhBr6
_chemical_formula_sum   'Rb2 Li1 Rh1 Br6'
_cell_volume   302.96152235
_cell_formula_units_Z   1
loop_
 _symmetry_equiv_pos_site_id
 _symmetry_equiv_pos_as_xyz
  1  'x, y, z'
loop_
 _atom_site_type_symbol
 _atom_site_label
 _atom_site_symmetry_multiplicity
 _atom_site_fract_x
 _atom_site_fract_y
 _atom_site_fract_z
 _atom_site_occupancy
  Rb  Rb0  1  0.33333300  0.66666700  0.28690466  1
  Rb  Rb1  1  0.66666700  0.33333300  0.71309534  1
  Li  Li0  1  0.00000000  0.00000000  0.00000000  1
  Rh  Rh0  1  0.00000000  0.00000000  0.50000000  1
  Br  Br0  1  0.84059418  0.15940582  0.27229974  1
  Br  Br1  1  0.15940582  0.84059418  0.72770026  1
  Br  Br2  1  0.84059418  0.68118735  0.27229974  1
  Br  Br3  1  0.15940582  0.31881265  0.72770026  1
  Br  Br4  1  0.31881265  0.15940582  0.27229974  1
  Br  Br5  1  0.68118735  0.84059418  0.72770026  1
loop_
_geom_bond_atom_site_label_1
_geom_bond_atom_site_label_2
_geom_bond_distance
_geom_bond_site_symmetry_2
Br0 Rh0 2.508205 1_655
Br0 Li0 2.685888 1_655
Br0 Rb1 3.602270 1_555
Br0 Rb0 3.689459 1_655
Br0 Rb0 3.689459 1_545
Br1 Rh0 2.508205 1_565
Br1 Li0 2.685888 1_566
Br1 Rb0 3.602270 1_555
Br1 Rb1 3.689459 1_455
Br1 Rb1 3.689459 1_565
Br2 Rh0 2.508210 1_665
Br2 Li0 2.685893 1_665
Br2 Rb1 3.602270 1_555
Br2 Rb0 3.689452 1_655
Br2 Rb0 3.689466 1_555
Br3 Rh0 2.508210 1_555
Br3 Li0 2.685893 1_556
Br3 Rb0 3.602270 1_555
Br3 Rb1 3.689452 1_455
Br3 Rb1 3.689466 1_555
Br4 Rh0 2.508210 1_555
Br4 Li0 2.685893 1_555
Br4 Rb1 3.602270 1_555
Br4 Rb0 3.689451 1_545
Br4 Rb0 3.689466 1_555
Br5 Rh0 2.508210 1_665
Br5 Li0 2.685893 1_666
Br5 Rb0 3.602270 1_555
Br5 Rb1 3.689451 1_565
Br5 Rb1 3.689466 1_555
