# generated using pymatgen
data_Y2Sn2O7
_symmetry_space_group_name_H-M   'P 1'
_cell_length_a   7.35660128
_cell_length_b   7.35660128
_cell_length_c   7.35660128
_cell_angle_alpha   60.00000000
_cell_angle_beta   60.00000000
_cell_angle_gamma   60.00000000
_symmetry_Int_Tables_number   1
_chemical_formula_structural   Y2Sn2O7
_chemical_formula_sum   'Y4 Sn4 O14'
_cell_volume   281.52479890
_cell_formula_units_Z   2
loop_
 _symmetry_equiv_pos_site_id
 _symmetry_equiv_pos_as_xyz
  1  'x, y, z'
loop_
 _atom_site_type_symbol
 _atom_site_label
 _atom_site_symmetry_multiplicity
 _atom_site_fract_x
 _atom_site_fract_y
 _atom_site_fract_z
 _atom_site_occupancy
  Y  Y0  1  0.12500000  0.12500000  0.12500000  1
  Y  Y1  1  0.62500000  0.12500000  0.12500000  1
  Y  Y2  1  0.12500000  0.62500000  0.12500000  1
  Y  Y3  1  0.12500000  0.12500000  0.62500000  1
  Sn  Sn0  1  0.62500000  0.62500000  0.62500000  1
  Sn  Sn1  1  0.12500000  0.62500000  0.62500000  1
  Sn  Sn2  1  0.62500000  0.12500000  0.62500000  1
  Sn  Sn3  1  0.62500000  0.62500000  0.12500000  1
  O  O0  1  0.25000000  0.25000000  0.25000000  1
  O  O1  1  0.00000000  -0.00000000  -0.00000000  1
  O  O2  1  0.28712552  0.71287448  0.28712552  1
  O  O3  1  0.53712552  0.96287448  0.53712552  1
  O  O4  1  0.28712552  0.28712552  0.71287448  1
  O  O5  1  0.71287448  0.28712552  0.28712552  1
  O  O6  1  0.28712552  0.71287448  0.71287448  1
  O  O7  1  0.71287448  0.71287448  0.28712552  1
  O  O8  1  0.71287448  0.28712552  0.71287448  1
  O  O9  1  0.96287448  0.53712552  0.53712552  1
  O  O10  1  0.53712552  0.96287448  0.96287448  1
  O  O11  1  0.96287448  0.53712552  0.96287448  1
  O  O12  1  0.53712552  0.53712552  0.96287448  1
  O  O13  1  0.96287448  0.96287448  0.53712552  1
loop_
_geom_bond_atom_site_label_1
_geom_bond_atom_site_label_2
_geom_bond_distance
_geom_bond_site_symmetry_2
O0 Y1 2.252490 1_555
O0 Y2 2.252490 1_555
O0 Y3 2.252490 1_555
O0 Y0 2.252490 1_555
O1 Y1 2.252490 1_455
O1 Y2 2.252490 1_545
O1 Y0 2.252490 1_555
O1 Y3 2.252490 1_554
O2 Sn3 2.053847 1_555
O2 Sn1 2.053847 1_555
O2 Y0 2.495497 1_565
O2 Y2 2.495497 1_555
O3 Sn2 2.053847 1_565
O3 Sn0 2.053847 1_555
O3 Y3 2.495497 1_565
O3 Y1 2.495497 1_565
O4 Sn1 2.053847 1_555
O4 Sn2 2.053847 1_555
O4 Y0 2.495497 1_556
O4 Y3 2.495497 1_555
O5 Sn2 2.053847 1_555
O5 Sn3 2.053847 1_555
O5 Y0 2.495497 1_655
O5 Y1 2.495497 1_555
O6 Sn1 2.053847 1_555
O6 Sn0 2.053847 1_555
O6 Y3 2.495497 1_565
O6 Y2 2.495497 1_556
O7 Sn3 2.053847 1_555
O7 Sn0 2.053847 1_555
O7 Y1 2.495497 1_565
O7 Y2 2.495497 1_655
O8 Sn2 2.053847 1_555
O8 Sn0 2.053847 1_555
O8 Y3 2.495497 1_655
O8 Y1 2.495497 1_556
O9 Sn1 2.053847 1_655
O9 Sn0 2.053847 1_555
O9 Y2 2.495497 1_655
O9 Y3 2.495497 1_655
O10 Sn3 2.053847 1_556
O10 Sn2 2.053847 1_565
O10 Y0 2.495497 1_566
O10 Y1 2.495497 1_566
O11 Sn1 2.053847 1_655
O11 Sn3 2.053847 1_556
O11 Y2 2.495497 1_656
O11 Y0 2.495497 1_656
O12 Sn3 2.053847 1_556
O12 Sn0 2.053847 1_555
O12 Y1 2.495497 1_556
O12 Y2 2.495497 1_556
O13 Sn2 2.053847 1_565
O13 Sn1 2.053847 1_655
O13 Y0 2.495497 1_665
O13 Y3 2.495497 1_665
