# generated using pymatgen
data_Ga4Ni3
_symmetry_space_group_name_H-M   'P 1'
_cell_length_a   9.94166679
_cell_length_b   9.94166679
_cell_length_c   9.94166679
_cell_angle_alpha   109.47122063
_cell_angle_beta   109.47122063
_cell_angle_gamma   109.47122063
_symmetry_Int_Tables_number   1
_chemical_formula_structural   Ga4Ni3
_chemical_formula_sum   'Ga32 Ni24'
_cell_volume   756.40731280
_cell_formula_units_Z   8
loop_
 _symmetry_equiv_pos_site_id
 _symmetry_equiv_pos_as_xyz
  1  'x, y, z'
loop_
 _atom_site_type_symbol
 _atom_site_label
 _atom_site_symmetry_multiplicity
 _atom_site_fract_x
 _atom_site_fract_y
 _atom_site_fract_z
 _atom_site_occupancy
  Ga  Ga0  1  0.50000000  0.00000000  0.00000000  1
  Ga  Ga1  1  0.50000000  0.50000000  0.00000000  1
  Ga  Ga2  1  0.00000000  0.50000000  0.50000000  1
  Ga  Ga3  1  0.00000000  0.00000000  0.00000000  1
  Ga  Ga4  1  0.00000000  0.00000000  0.50000000  1
  Ga  Ga5  1  0.50000000  0.50000000  0.50000000  1
  Ga  Ga6  1  0.00000000  0.50000000  0.00000000  1
  Ga  Ga7  1  0.50000000  0.00000000  0.50000000  1
  Ga  Ga8  1  0.26230400  0.75000000  0.01230400  1
  Ga  Ga9  1  0.25000000  0.26230400  0.01230400  1
  Ga  Ga10  1  0.75000000  0.23769600  0.48769600  1
  Ga  Ga11  1  0.26230400  0.01230400  0.25000000  1
  Ga  Ga12  1  0.23769600  0.48769600  0.75000000  1
  Ga  Ga13  1  0.01230400  0.25000000  0.26230400  1
  Ga  Ga14  1  0.01230400  0.26230400  0.75000000  1
  Ga  Ga15  1  0.25000000  0.48769600  0.23769600  1
  Ga  Ga16  1  0.48769600  0.23769600  0.25000000  1
  Ga  Ga17  1  0.75000000  0.01230400  0.26230400  1
  Ga  Ga18  1  0.23769600  0.25000000  0.48769600  1
  Ga  Ga19  1  0.48769600  0.75000000  0.23769600  1
  Ga  Ga20  1  0.73769600  0.25000000  0.98769600  1
  Ga  Ga21  1  0.75000000  0.73769600  0.98769600  1
  Ga  Ga22  1  0.25000000  0.76230400  0.51230400  1
  Ga  Ga23  1  0.73769600  0.98769600  0.75000000  1
  Ga  Ga24  1  0.76230400  0.51230400  0.25000000  1
  Ga  Ga25  1  0.98769600  0.75000000  0.73769600  1
  Ga  Ga26  1  0.98769600  0.73769600  0.25000000  1
  Ga  Ga27  1  0.75000000  0.51230400  0.76230400  1
  Ga  Ga28  1  0.51230400  0.76230400  0.75000000  1
  Ga  Ga29  1  0.25000000  0.98769600  0.73769600  1
  Ga  Ga30  1  0.76230400  0.75000000  0.51230400  1
  Ga  Ga31  1  0.51230400  0.25000000  0.76230400  1
  Ni  Ni0  1  0.74190500  0.48380900  0.49190500  1
  Ni  Ni1  1  0.25000000  0.74190500  0.75809500  1
  Ni  Ni2  1  0.48380900  0.49190500  0.74190500  1
  Ni  Ni3  1  0.00809500  0.49190500  0.25000000  1
  Ni  Ni4  1  0.49190500  0.74190500  0.48380900  1
  Ni  Ni5  1  0.75809500  0.25000000  0.74190500  1
  Ni  Ni6  1  0.49190500  0.25000000  0.00809500  1
  Ni  Ni7  1  0.75809500  0.00809500  0.01619100  1
  Ni  Ni8  1  0.25000000  0.00809500  0.49190500  1
  Ni  Ni9  1  0.01619100  0.75809500  0.00809500  1
  Ni  Ni10  1  0.74190500  0.75809500  0.25000000  1
  Ni  Ni11  1  0.00809500  0.01619100  0.75809500  1
  Ni  Ni12  1  0.25809500  0.51619100  0.50809500  1
  Ni  Ni13  1  0.75000000  0.25809500  0.24190500  1
  Ni  Ni14  1  0.51619100  0.50809500  0.25809500  1
  Ni  Ni15  1  0.99190500  0.50809500  0.75000000  1
  Ni  Ni16  1  0.50809500  0.25809500  0.51619100  1
  Ni  Ni17  1  0.24190500  0.75000000  0.25809500  1
  Ni  Ni18  1  0.50809500  0.75000000  0.99190500  1
  Ni  Ni19  1  0.24190500  0.99190500  0.98380900  1
  Ni  Ni20  1  0.75000000  0.99190500  0.50809500  1
  Ni  Ni21  1  0.98380900  0.24190500  0.99190500  1
  Ni  Ni22  1  0.25809500  0.24190500  0.75000000  1
  Ni  Ni23  1  0.99190500  0.98380900  0.24190500  1
loop_
_geom_bond_atom_site_label_1
_geom_bond_atom_site_label_2
_geom_bond_distance
_geom_bond_site_symmetry_2
Ga0 Ni7 2.488886 1_555
Ga0 Ni19 2.488886 1_544
Ga0 Ni13 2.488889 1_555
Ga0 Ni18 2.488889 1_544
Ga0 Ni6 2.488889 1_555
Ga0 Ni1 2.488889 1_544
Ga0 Ga8 2.873386 1_545
Ga0 Ga29 2.873386 1_544
Ga0 Ga28 2.873386 1_544
Ga0 Ga17 2.873386 1_555
Ga0 Ga20 2.873386 1_554
Ga0 Ga16 2.873386 1_555
Ga1 Ni14 2.488886 1_555
Ga1 Ni2 2.488886 1_554
Ga1 Ni10 2.488889 1_555
Ga1 Ni6 2.488889 1_555
Ga1 Ni18 2.488889 1_554
Ga1 Ni22 2.488889 1_554
Ga1 Ga9 2.873386 1_555
Ga1 Ga12 2.873386 1_554
Ga1 Ga31 2.873386 1_554
Ga1 Ga24 2.873386 1_555
Ga1 Ga21 2.873386 1_554
Ga1 Ga19 2.873386 1_555
Ga2 Ni12 2.488886 1_555
Ga2 Ni0 2.488886 1_455
Ga2 Ni1 2.488889 1_555
Ga2 Ni3 2.488889 1_555
Ga2 Ni15 2.488889 1_455
Ga2 Ni13 2.488889 1_455
Ga2 Ga22 2.873386 1_555
Ga2 Ga24 2.873386 1_455
Ga2 Ga25 2.873386 1_455
Ga3 Ni21 2.488893 1_454
Ga3 Ni23 2.488893 1_445
Ga3 Ni19 2.488893 1_544
Ga3 Ni9 2.488893 1_545
Ga3 Ni11 2.488893 1_554
Ga3 Ni7 2.488893 1_455
Ga3 Ga9 2.873386 1_555
Ga4 Ni11 2.488886 1_555
Ga4 Ni23 2.488886 1_445
Ga4 Ni22 2.488889 1_555
Ga4 Ni20 2.488889 1_445
Ga4 Ni8 2.488889 1_555
Ga4 Ni10 2.488889 1_445
Ga5 Ni0 2.488893 1_555
Ga5 Ni2 2.488893 1_555
Ga5 Ni4 2.488893 1_555
Ga5 Ni14 2.488893 1_555
Ga5 Ni16 2.488893 1_555
Ga5 Ni12 2.488893 1_555
Ga6 Ni9 2.488886 1_555
Ga6 Ni21 2.488886 1_454
Ga6 Ni17 2.488889 1_555
Ga6 Ni15 2.488889 1_454
Ga6 Ni3 2.488889 1_555
Ga6 Ni5 2.488889 1_454
Ga6 Ga8 2.873386 1_555
Ga7 Ni16 2.488886 1_555
Ga7 Ni4 2.488886 1_545
Ga7 Ni5 2.488889 1_555
Ga7 Ni8 2.488889 1_555
Ga7 Ni20 2.488889 1_545
Ga7 Ni17 2.488889 1_545
Ga8 Ni9 2.461746 1_555
Ga8 Ni1 2.461755 1_554
Ga8 Ni18 2.518441 1_554
Ga8 Ni17 2.518441 1_555
Ga8 Ni15 2.578009 1_454
Ga8 Ni19 2.578013 1_554
Ga9 Ni11 2.461752 1_554
Ga9 Ni6 2.461755 1_555
Ga9 Ni14 2.518445 1_555
Ga9 Ni21 2.518451 1_454
Ga9 Ni19 2.578007 1_544
Ga9 Ni22 2.578009 1_554
Ga10 Ni0 2.461746 1_555
Ga10 Ni5 2.461755 1_555
Ga10 Ni13 2.518441 1_555
Ga10 Ni20 2.518441 1_545
Ga10 Ni15 2.578009 1_555
Ga10 Ni16 2.578013 1_555
Ga10 Ga17 2.587421 1_555
Ga10 Ga2 2.873386 1_655
Ga10 Ga7 2.873386 1_555
Ga10 Ga14 2.876855 1_655
Ga10 Ga16 2.876855 1_555
Ga11 Ni9 2.461752 1_545
Ga11 Ni8 2.461755 1_555
Ga11 Ni16 2.518445 1_555
Ga11 Ni19 2.518451 1_544
Ga11 Ni23 2.578007 1_445
Ga11 Ni17 2.578009 1_545
Ga11 Ga16 2.587421 1_555
Ga11 Ga7 2.873386 1_555
Ga11 Ga3 2.873386 1_555
Ga11 Ga8 2.876855 1_545
Ga11 Ga18 2.876855 1_555
Ga12 Ni2 2.461746 1_555
Ga12 Ni1 2.461755 1_555
Ga12 Ni22 2.518441 1_555
Ga12 Ni15 2.518441 1_455
Ga12 Ni18 2.578009 1_555
Ga12 Ni12 2.578013 1_555
Ga12 Ga14 2.587421 1_555
Ga12 Ga2 2.873386 1_555
Ga12 Ga8 2.876855 1_556
Ga12 Ga18 2.876855 1_555
Ga13 Ni7 2.461752 1_455
Ga13 Ni3 2.461755 1_555
Ga13 Ni12 2.518445 1_555
Ga13 Ni23 2.518451 1_445
Ga13 Ni21 2.578007 1_454
Ga13 Ni13 2.578009 1_455
Ga13 Ga18 2.587421 1_555
Ga13 Ga2 2.873386 1_555
Ga13 Ga3 2.873386 1_555
Ga13 Ga17 2.876855 1_455
Ga13 Ga15 2.876855 1_555
Ga14 Ni11 2.461746 1_555
Ga14 Ni5 2.461755 1_455
Ga14 Ni15 2.518441 1_455
Ga14 Ni22 2.518441 1_555
Ga14 Ni20 2.578009 1_445
Ga14 Ni21 2.578013 1_455
Ga14 Ga6 2.873386 1_556
Ga14 Ga4 2.873386 1_555
Ga14 Ga9 2.876855 1_556
Ga15 Ni4 2.461752 1_555
Ga15 Ni3 2.461755 1_555
Ga15 Ni21 2.518445 1_454
Ga15 Ni14 2.518451 1_555
Ga15 Ni12 2.578007 1_555
Ga15 Ni17 2.578009 1_555
Ga15 Ga9 2.587421 1_555
Ga15 Ga5 2.873386 1_555
Ga15 Ga6 2.873386 1_555
Ga15 Ga19 2.876855 1_555
Ga16 Ni0 2.461752 1_555
Ga16 Ni6 2.461755 1_555
Ga16 Ni19 2.518445 1_544
Ga16 Ni16 2.518451 1_555
Ga16 Ni14 2.578007 1_555
Ga16 Ni13 2.578009 1_555
Ga16 Ga5 2.873386 1_555
Ga16 Ga9 2.876855 1_555
Ga17 Ni7 2.461746 1_555
Ga17 Ni10 2.461755 1_545
Ga17 Ni20 2.518441 1_545
Ga17 Ni13 2.518441 1_555
Ga17 Ni18 2.578009 1_544
Ga17 Ni23 2.578013 1_545
Ga17 Ga4 2.873386 1_655
Ga17 Ga19 2.876855 1_545
Ga18 Ni2 2.461752 1_555
Ga18 Ni8 2.461755 1_555
Ga18 Ni23 2.518445 1_445
Ga18 Ni12 2.518451 1_555
Ga18 Ni16 2.578007 1_555
Ga18 Ni22 2.578009 1_555
Ga18 Ga5 2.873386 1_555
Ga18 Ga4 2.873386 1_555
Ga19 Ni4 2.461746 1_555
Ga19 Ni10 2.461755 1_555
Ga19 Ni17 2.518441 1_555
Ga19 Ni18 2.518441 1_554
Ga19 Ni20 2.578009 1_555
Ga19 Ni14 2.578013 1_555
Ga19 Ga8 2.587421 1_555
Ga19 Ga7 2.873386 1_565
Ga20 Ni21 2.461746 1_555
Ga20 Ni13 2.461755 1_556
Ga20 Ni5 2.518441 1_555
Ga20 Ni6 2.518441 1_556
Ga20 Ni3 2.578009 1_656
Ga20 Ni7 2.578013 1_556
Ga20 Ga31 2.587421 1_555
Ga20 Ga6 2.873386 1_656
Ga20 Ga23 2.876855 1_545
Ga20 Ga24 2.876855 1_556
Ga21 Ni23 2.461752 1_556
Ga21 Ni18 2.461755 1_555
Ga21 Ni2 2.518445 1_555
Ga21 Ni9 2.518451 1_656
Ga21 Ni7 2.578007 1_566
Ga21 Ni10 2.578009 1_556
Ga21 Ga27 2.587421 1_555
Ga21 Ga3 2.873386 1_666
Ga21 Ga28 2.876855 1_555
Ga21 Ga26 2.876855 1_556
Ga22 Ni12 2.461746 1_555
Ga22 Ni17 2.461755 1_555
Ga22 Ni8 2.518441 1_565
Ga22 Ni1 2.518441 1_555
Ga22 Ni3 2.578009 1_555
Ga22 Ni4 2.578013 1_555
Ga22 Ga29 2.587421 1_555
Ga22 Ga7 2.873386 1_565
Ga22 Ga28 2.876855 1_555
Ga22 Ga26 2.876855 1_455
Ga23 Ni21 2.461752 1_565
Ga23 Ni20 2.461755 1_555
Ga23 Ni4 2.518445 1_555
Ga23 Ni7 2.518451 1_566
Ga23 Ni11 2.578007 1_665
Ga23 Ni5 2.578009 1_565
Ga23 Ga28 2.587421 1_555
Ga23 Ga3 2.873386 1_666
Ga23 Ga7 2.873386 1_565
Ga23 Ga30 2.876855 1_555
Ga24 Ni14 2.461746 1_555
Ga24 Ni13 2.461755 1_555
Ga24 Ni3 2.518441 1_655
Ga24 Ni10 2.518441 1_555
Ga24 Ni6 2.578009 1_555
Ga24 Ni0 2.578013 1_555
Ga24 Ga26 2.587421 1_555
Ga24 Ga30 2.876855 1_555
Ga25 Ni19 2.461752 1_655
Ga25 Ni15 2.461755 1_555
Ga25 Ni0 2.518445 1_555
Ga25 Ni11 2.518451 1_665
Ga25 Ni9 2.578007 1_656
Ga25 Ni1 2.578009 1_655
Ga25 Ga30 2.587421 1_555
Ga25 Ga3 2.873386 1_666
Ga25 Ga27 2.876855 1_555
Ga25 Ga29 2.876855 1_655
Ga26 Ni23 2.461746 1_555
Ga26 Ni17 2.461755 1_655
Ga26 Ni10 2.518441 1_555
Ga26 Ni3 2.518441 1_655
Ga26 Ni8 2.578009 1_665
Ga26 Ni9 2.578013 1_655
Ga26 Ga4 2.873386 1_665
Ga26 Ga6 2.873386 1_655
Ga27 Ni16 2.461752 1_555
Ga27 Ni15 2.461755 1_555
Ga27 Ni9 2.518445 1_656
Ga27 Ni2 2.518451 1_555
Ga27 Ni0 2.578007 1_555
Ga27 Ni5 2.578009 1_555
Ga27 Ga6 2.873386 1_656
Ga27 Ga5 2.873386 1_555
Ga27 Ga31 2.876855 1_555
Ga28 Ni12 2.461752 1_555
Ga28 Ni18 2.461755 1_555
Ga28 Ni7 2.518445 1_566
Ga28 Ni4 2.518451 1_555
Ga28 Ni2 2.578007 1_555
Ga28 Ni1 2.578009 1_555
Ga28 Ga5 2.873386 1_555
Ga29 Ni19 2.461746 1_555
Ga29 Ni22 2.461755 1_565
Ga29 Ni1 2.518441 1_555
Ga29 Ni8 2.518441 1_565
Ga29 Ni6 2.578009 1_566
Ga29 Ni11 2.578013 1_565
Ga29 Ga4 2.873386 1_565
Ga29 Ga31 2.876855 1_565
Ga30 Ni14 2.461752 1_555
Ga30 Ni20 2.461755 1_555
Ga30 Ni11 2.518445 1_665
Ga30 Ni0 2.518451 1_555
Ga30 Ni4 2.578007 1_555
Ga30 Ni10 2.578009 1_555
Ga30 Ga5 2.873386 1_555
Ga30 Ga4 2.873386 1_665
Ga31 Ni16 2.461746 1_555
Ga31 Ni22 2.461755 1_555
Ga31 Ni6 2.518441 1_556
Ga31 Ni5 2.518441 1_555
Ga31 Ni8 2.578009 1_555
Ga31 Ni2 2.578013 1_555
Ga31 Ga7 2.873386 1_555
Ni0 Ni15 2.784742 1_555
Ni0 Ni13 2.784742 1_555
Ni0 Ni16 2.784748 1_555
Ni0 Ni14 2.784748 1_555
Ni1 Ni12 2.784742 1_555
Ni1 Ni19 2.784742 1_555
Ni1 Ni18 2.784748 1_555
Ni1 Ni15 2.784748 1_455
Ni2 Ni22 2.784742 1_555
Ni10 Ni14 2.784742 1_555
Ni10 Ni23 2.784742 1_555
Ni10 Ni20 2.784748 1_555
Ni10 Ni18 2.784748 1_554
Ni11 Ni22 2.784742 1_555
Ni11 Ni20 2.784742 1_445
Ni11 Ni21 2.784748 1_455
Ni11 Ni19 2.784748 1_545
Ni12 Ni3 2.784742 1_555
Ni12 Ni2 2.784748 1_555
Ni12 Ni4 2.784748 1_555
Ni13 Ni7 2.784742 1_555
Ni13 Ni3 2.784748 1_655
Ni13 Ni6 2.784748 1_555
Ni14 Ni6 2.784742 1_555
Ni14 Ni4 2.784748 1_555
Ni15 Ni9 2.784742 1_656
Ni15 Ni5 2.784748 1_555
Ni16 Ni5 2.784742 1_555
Ni16 Ni8 2.784742 1_555
Ni16 Ni2 2.784748 1_555
Ni17 Ni9 2.784742 1_555
Ni17 Ni4 2.784742 1_555
Ni17 Ni8 2.784748 1_565
Ni17 Ni3 2.784748 1_555
Ni18 Ni7 2.784742 1_566
Ni18 Ni2 2.784742 1_555
Ni19 Ni6 2.784742 1_566
Ni19 Ni9 2.784748 1_556
Ni20 Ni4 2.784742 1_555
Ni20 Ni5 2.784748 1_565
Ni21 Ni5 2.784742 1_555
Ni21 Ni3 2.784742 1_656
Ni21 Ni7 2.784748 1_556
Ni22 Ni6 2.784748 1_556
Ni22 Ni8 2.784748 1_555
Ni23 Ni8 2.784742 1_665
Ni23 Ni7 2.784748 1_565
Ni23 Ni9 2.784748 1_655
