# generated using pymatgen
data_Zr4Nb3(MoN4)3
_symmetry_space_group_name_H-M   'P 1'
_cell_length_a   5.23964565
_cell_length_b   5.23760622
_cell_length_c   10.68309169
_cell_angle_alpha   90.00000000
_cell_angle_beta   90.00000000
_cell_angle_gamma   120.01290015
_symmetry_Int_Tables_number   1
_chemical_formula_structural   Zr4Nb3(MoN4)3
_chemical_formula_sum   'Zr4 Nb3 Mo3 N12'
_cell_volume   253.86678308
_cell_formula_units_Z   1
loop_
 _symmetry_equiv_pos_site_id
 _symmetry_equiv_pos_as_xyz
  1  'x, y, z'
loop_
 _atom_site_type_symbol
 _atom_site_label
 _atom_site_symmetry_multiplicity
 _atom_site_fract_x
 _atom_site_fract_y
 _atom_site_fract_z
 _atom_site_occupancy
  Zr  Zr0  1  0.33244301  0.66641175  0.50113690  1
  Zr  Zr1  1  0.66603126  0.33358825  0.99886310  1
  Zr  Zr2  1  0.66603126  0.33358825  0.50113690  1
  Zr  Zr3  1  0.33244301  0.66641175  0.99886310  1
  Nb  Nb0  1  0.99955226  0.67485733  0.75000000  1
  Nb  Nb1  1  0.32469493  0.32514267  0.75000000  1
  Nb  Nb2  1  0.32432139  1.00000000  0.25000000  1
  Mo  Mo0  1  0.67432949  0.00000000  0.75000000  1
  Mo  Mo1  1  0.67509838  0.67475936  0.25000000  1
  Mo  Mo2  1  0.00033902  0.32524064  0.25000000  1
  N  N0  1  0.34302022  0.34608457  0.37040297  1
  N  N1  1  0.66155286  1.00000000  0.37119044  1
  N  N2  1  0.99693664  0.65391543  0.37040297  1
  N  N3  1  0.99737689  0.33849652  0.87373841  1
  N  N4  1  0.66155286  1.00000000  0.12880956  1
  N  N5  1  0.65887936  0.66150348  0.87373841  1
  N  N6  1  0.34459302  0.00000000  0.87300320  1
  N  N7  1  0.65887936  0.66150348  0.62626159  1
  N  N8  1  0.99737689  0.33849652  0.62626159  1
  N  N9  1  0.99693664  0.65391543  0.12959703  1
  N  N10  1  0.34459302  0.00000000  0.62699680  1
  N  N11  1  0.34302022  0.34608457  0.12959703  1
loop_
_geom_bond_atom_site_label_1
_geom_bond_atom_site_label_2
_geom_bond_distance
_geom_bond_site_symmetry_2
Mo0 N6 2.170644 1_555
Mo0 N10 2.170644 1_555
Mo0 N5 2.180283 1_545
Mo0 N7 2.180283 1_545
Mo0 N3 2.180284 1_555
Mo0 N8 2.180284 1_555
Mo1 N0 2.156151 1_555
Mo1 N11 2.156151 1_555
Mo1 N2 2.166625 1_555
Mo1 N9 2.166625 1_555
Mo1 N1 2.168884 1_555
Mo1 N4 2.168884 1_555
Mo2 N2 2.156149 1_455
Mo2 N9 2.156149 1_455
Mo2 N0 2.166621 1_555
Mo2 N11 2.166621 1_555
Mo2 N1 2.168884 1_445
Mo2 N4 2.168884 1_445
N0 Nb2 2.184527 1_545
N0 Zr0 2.204889 1_555
N0 Zr2 2.220393 1_555
N1 Nb2 2.190528 1_555
N1 Zr0 2.222485 1_555
N1 Zr2 2.222485 1_565
N2 Nb2 2.184525 1_655
N2 Zr2 2.204891 1_555
N2 Zr0 2.220388 1_655
N3 Zr1 2.181052 1_555
N3 Zr3 2.191431 1_655
N3 Nb1 2.194006 1_655
N3 Nb0 2.197990 1_555
N4 Nb2 2.190528 1_555
N4 Zr3 2.222485 1_554
N4 Zr1 2.222485 1_564
N5 Zr3 2.181048 1_555
N5 Zr1 2.191433 1_555
N5 Nb0 2.194011 1_555
N5 Nb1 2.197988 1_555
N6 Zr1 2.180224 1_555
N6 Zr3 2.180224 1_545
N6 Nb0 2.194386 1_445
N6 Nb1 2.194387 1_555
N7 Zr0 2.181048 1_555
N7 Zr2 2.191433 1_555
N7 Nb0 2.194011 1_555
N7 Nb1 2.197988 1_555
N8 Zr2 2.181052 1_555
N8 Zr0 2.191431 1_655
N8 Nb1 2.194006 1_655
N8 Nb0 2.197990 1_555
N9 Nb2 2.184525 1_655
N9 Zr1 2.204891 1_554
N9 Zr3 2.220388 1_654
N10 Zr2 2.180224 1_555
N10 Zr0 2.180224 1_545
N10 Nb0 2.194386 1_445
N10 Nb1 2.194387 1_555
N11 Nb2 2.184527 1_545
N11 Zr3 2.204889 1_554
N11 Zr1 2.220393 1_554
