# generated using pymatgen
data_Ta2Ti(GaIr)3
_symmetry_space_group_name_H-M   'P 1'
_cell_length_a   14.75651658
_cell_length_b   14.75651514
_cell_length_c   5.83411369
_cell_angle_alpha   90.00000000
_cell_angle_beta   90.00000000
_cell_angle_gamma   119.86122813
_symmetry_Int_Tables_number   1
_chemical_formula_structural   Ta2Ti(GaIr)3
_chemical_formula_sum   'Ta16 Ti8 Ga24 Ir24'
_cell_volume   1101.73914300
_cell_formula_units_Z   8
loop_
 _symmetry_equiv_pos_site_id
 _symmetry_equiv_pos_as_xyz
  1  'x, y, z'
loop_
 _atom_site_type_symbol
 _atom_site_label
 _atom_site_symmetry_multiplicity
 _atom_site_fract_x
 _atom_site_fract_y
 _atom_site_fract_z
 _atom_site_occupancy
  Ta  Ta0_0  1  0.18427550  0.49979402  0.25000000  1
  Ta  Ta0_1  1  0.18427550  0.49979402  0.75000000  1
  Ta  Ta0_2  1  0.18427550  0.99979402  0.25000000  1
  Ta  Ta0_3  1  0.18427550  0.99979402  0.75000000  1
  Ta  Ta0_4  1  0.68427550  0.49979402  0.25000000  1
  Ta  Ta0_5  1  0.68427550  0.49979402  0.75000000  1
  Ta  Ta0_6  1  0.68427550  0.99979402  0.25000000  1
  Ta  Ta0_7  1  0.68427550  0.99979402  0.75000000  1
  Ta  Ta1_0  1  0.49979402  0.18427550  0.25000000  1
  Ta  Ta1_1  1  0.49979402  0.18427550  0.75000000  1
  Ta  Ta1_2  1  0.49979402  0.68427550  0.25000000  1
  Ta  Ta1_3  1  0.49979402  0.68427550  0.75000000  1
  Ta  Ta1_4  1  0.99979402  0.18427550  0.25000000  1
  Ta  Ta1_5  1  0.99979402  0.18427550  0.75000000  1
  Ta  Ta1_6  1  0.99979402  0.68427550  0.25000000  1
  Ta  Ta1_7  1  0.99979402  0.68427550  0.75000000  1
  Ti  Ti0_0  1  0.31417423  0.31417423  0.25000000  1
  Ti  Ti0_1  1  0.31417423  0.31417423  0.75000000  1
  Ti  Ti0_2  1  0.31417423  0.81417423  0.25000000  1
  Ti  Ti0_3  1  0.31417423  0.81417423  0.75000000  1
  Ti  Ti0_4  1  0.81417423  0.31417423  0.25000000  1
  Ti  Ti0_5  1  0.81417423  0.31417423  0.75000000  1
  Ti  Ti0_6  1  0.81417423  0.81417423  0.25000000  1
  Ti  Ti0_7  1  0.81417423  0.81417423  0.75000000  1
  Ga  Ga0_0  1  0.35311843  0.49849054  0.00000000  1
  Ga  Ga0_1  1  0.35311843  0.49849054  0.50000000  1
  Ga  Ga0_2  1  0.35311843  0.99849054  0.00000000  1
  Ga  Ga0_3  1  0.35311843  0.99849054  0.50000000  1
  Ga  Ga0_4  1  0.85311843  0.49849054  0.00000000  1
  Ga  Ga0_5  1  0.85311843  0.49849054  0.50000000  1
  Ga  Ga0_6  1  0.85311843  0.99849054  0.00000000  1
  Ga  Ga0_7  1  0.85311843  0.99849054  0.50000000  1
  Ga  Ga1_0  1  0.14817730  0.14817730  0.00000000  1
  Ga  Ga1_1  1  0.14817730  0.14817730  0.50000000  1
  Ga  Ga1_2  1  0.14817730  0.64817730  0.00000000  1
  Ga  Ga1_3  1  0.14817730  0.64817730  0.50000000  1
  Ga  Ga1_4  1  0.64817730  0.14817730  0.00000000  1
  Ga  Ga1_5  1  0.64817730  0.14817730  0.50000000  1
  Ga  Ga1_6  1  0.64817730  0.64817730  0.00000000  1
  Ga  Ga1_7  1  0.64817730  0.64817730  0.50000000  1
  Ga  Ga2_0  1  0.49849054  0.35311843  0.00000000  1
  Ga  Ga2_1  1  0.49849054  0.35311843  0.50000000  1
  Ga  Ga2_2  1  0.49849054  0.85311843  0.00000000  1
  Ga  Ga2_3  1  0.49849054  0.85311843  0.50000000  1
  Ga  Ga2_4  1  0.99849054  0.35311843  0.00000000  1
  Ga  Ga2_5  1  0.99849054  0.35311843  0.50000000  1
  Ga  Ga2_6  1  0.99849054  0.85311843  0.00000000  1
  Ga  Ga2_7  1  0.99849054  0.85311843  0.50000000  1
  Ir  Ir0_0  1  0.33304948  0.16789172  0.00000000  1
  Ir  Ir0_1  1  0.33304948  0.16789172  0.50000000  1
  Ir  Ir0_2  1  0.33304948  0.66789172  0.00000000  1
  Ir  Ir0_3  1  0.33304948  0.66789172  0.50000000  1
  Ir  Ir0_4  1  0.83304948  0.16789172  0.00000000  1
  Ir  Ir0_5  1  0.83304948  0.16789172  0.50000000  1
  Ir  Ir0_6  1  0.83304948  0.66789172  0.00000000  1
  Ir  Ir0_7  1  0.83304948  0.66789172  0.50000000  1
  Ir  Ir1_0  1  0.16789122  0.33304898  0.00000000  1
  Ir  Ir1_1  1  0.16789122  0.33304898  0.50000000  1
  Ir  Ir1_2  1  0.16789122  0.83304898  0.00000000  1
  Ir  Ir1_3  1  0.16789122  0.83304898  0.50000000  1
  Ir  Ir1_4  1  0.66789122  0.33304898  0.00000000  1
  Ir  Ir1_5  1  0.66789122  0.33304898  0.50000000  1
  Ir  Ir1_6  1  0.66789122  0.83304898  0.00000000  1
  Ir  Ir1_7  1  0.66789122  0.83304898  0.50000000  1
  Ir  Ir2_0  1  0.00102931  0.00102931  0.25000000  1
  Ir  Ir2_1  1  0.00102931  0.00102931  0.75000000  1
  Ir  Ir2_2  1  0.00102931  0.50102931  0.25000000  1
  Ir  Ir2_3  1  0.00102931  0.50102931  0.75000000  1
  Ir  Ir2_4  1  0.50102931  0.00102931  0.25000000  1
  Ir  Ir2_5  1  0.50102931  0.00102931  0.75000000  1
  Ir  Ir2_6  1  0.50102931  0.50102931  0.25000000  1
  Ir  Ir2_7  1  0.50102931  0.50102931  0.75000000  1
loop_
_geom_bond_atom_site_label_1
_geom_bond_atom_site_label_2
_geom_bond_distance
_geom_bond_site_symmetry_2
Ta0_0 Ta0_1 2.917057 1_555
Ta0_0 Ta0_1 2.917057 1_554
Ta0_2 Ta0_3 2.917057 1_555
Ta0_2 Ta0_3 2.917057 1_554
Ta0_4 Ta0_5 2.917057 1_555
Ta0_4 Ta0_5 2.917057 1_554
Ta0_6 Ta0_7 2.917057 1_555
Ta0_6 Ta0_7 2.917057 1_554
Ta1_0 Ta1_1 2.917057 1_555
Ta1_0 Ta1_1 2.917057 1_554
Ta1_2 Ta1_3 2.917057 1_555
Ta1_2 Ta1_3 2.917057 1_554
Ta1_4 Ta1_5 2.917057 1_555
Ta1_4 Ta1_5 2.917057 1_554
Ta1_6 Ta1_7 2.917057 1_555
Ta1_6 Ta1_7 2.917057 1_554
Ti0_0 Ti0_1 2.917057 1_555
Ti0_0 Ti0_1 2.917057 1_554
Ti0_2 Ti0_3 2.917057 1_555
Ti0_2 Ti0_3 2.917057 1_554
Ti0_4 Ti0_5 2.917057 1_555
Ti0_4 Ti0_5 2.917057 1_554
Ti0_6 Ti0_7 2.917057 1_555
Ti0_6 Ti0_7 2.917057 1_554
Ga0_0 Ir1_0 2.605033 1_555
Ga0_0 Ir2_6 2.609835 1_555
Ga0_0 Ir2_7 2.609835 1_554
Ga0_0 Ir0_2 2.659653 1_555
Ga0_0 Ti0_0 2.880754 1_555
Ga0_0 Ti0_1 2.880754 1_554
Ga0_0 Ta0_0 2.895365 1_555
Ga0_0 Ta0_1 2.895365 1_554
Ga0_0 Ta1_2 2.901573 1_555
Ga0_0 Ta1_3 2.901573 1_554
Ga0_0 Ga0_1 2.917057 1_554
Ga0_0 Ga0_1 2.917057 1_555
Ga0_1 Ir1_1 2.605033 1_555
Ga0_1 Ir2_7 2.609835 1_555
Ga0_1 Ir2_6 2.609835 1_555
Ga0_1 Ir0_3 2.659653 1_555
Ga0_1 Ti0_1 2.880754 1_555
Ga0_1 Ti0_0 2.880754 1_555
Ga0_1 Ta0_1 2.895365 1_555
Ga0_1 Ta0_0 2.895365 1_555
Ga0_1 Ta1_3 2.901573 1_555
Ga0_1 Ta1_2 2.901573 1_555
Ga0_2 Ir1_2 2.605033 1_555
Ga0_2 Ir2_4 2.609835 1_565
Ga0_2 Ir2_5 2.609835 1_564
Ga0_2 Ir0_0 2.659653 1_565
Ga0_2 Ti0_2 2.880754 1_555
Ga0_2 Ti0_3 2.880754 1_554
Ga0_2 Ta0_2 2.895365 1_555
Ga0_2 Ta0_3 2.895365 1_554
Ga0_2 Ta1_0 2.901573 1_565
Ga0_2 Ta1_1 2.901573 1_564
Ga0_2 Ga0_3 2.917057 1_555
Ga0_2 Ga0_3 2.917057 1_554
Ga0_3 Ir1_3 2.605033 1_555
Ga0_3 Ir2_5 2.609835 1_565
Ga0_3 Ir2_4 2.609835 1_565
Ga0_3 Ir0_1 2.659653 1_565
Ga0_3 Ti0_2 2.880754 1_555
Ga0_3 Ti0_3 2.880754 1_555
Ga0_3 Ta0_2 2.895365 1_555
Ga0_3 Ta0_3 2.895365 1_555
Ga0_3 Ta1_1 2.901573 1_565
Ga0_3 Ta1_0 2.901573 1_565
Ga0_4 Ir1_4 2.605033 1_555
Ga0_4 Ir2_2 2.609835 1_655
Ga0_4 Ir2_3 2.609835 1_654
Ga0_4 Ir0_6 2.659653 1_555
Ga0_4 Ti0_4 2.880754 1_555
Ga0_4 Ti0_5 2.880754 1_554
Ga0_4 Ta0_4 2.895365 1_555
Ga0_4 Ta0_5 2.895365 1_554
Ga0_4 Ta1_6 2.901573 1_555
Ga0_4 Ta1_7 2.901573 1_554
Ga0_4 Ga0_5 2.917057 1_554
Ga0_4 Ga0_5 2.917057 1_555
Ga0_5 Ir1_5 2.605033 1_555
Ga0_5 Ir2_3 2.609835 1_655
Ga0_5 Ir2_2 2.609835 1_655
Ga0_5 Ir0_7 2.659653 1_555
Ga0_5 Ti0_5 2.880754 1_555
Ga0_5 Ti0_4 2.880754 1_555
Ga0_5 Ta0_5 2.895365 1_555
Ga0_5 Ta0_4 2.895365 1_555
Ga0_5 Ta1_7 2.901573 1_555
Ga0_5 Ta1_6 2.901573 1_555
Ga0_6 Ir1_6 2.605033 1_555
Ga0_6 Ir2_0 2.609835 1_665
Ga0_6 Ir2_1 2.609835 1_664
Ga0_6 Ir0_4 2.659653 1_565
Ga0_6 Ti0_6 2.880754 1_555
Ga0_6 Ti0_7 2.880754 1_554
Ga0_6 Ta0_6 2.895365 1_555
Ga0_6 Ta0_7 2.895365 1_554
Ga0_6 Ta1_4 2.901573 1_565
Ga0_6 Ta1_5 2.901573 1_564
Ga0_6 Ga0_7 2.917057 1_555
Ga0_6 Ga0_7 2.917057 1_554
Ga0_7 Ir1_7 2.605033 1_555
Ga0_7 Ir2_0 2.609835 1_665
Ga0_7 Ir2_1 2.609835 1_665
Ga0_7 Ir0_5 2.659653 1_565
Ga0_7 Ti0_7 2.880754 1_555
Ga0_7 Ti0_6 2.880754 1_555
Ga0_7 Ta0_7 2.895365 1_555
Ga0_7 Ta0_6 2.895365 1_555
Ga0_7 Ta1_5 2.901573 1_565
Ga0_7 Ta1_4 2.901573 1_565
Ga1_0 Ir1_0 2.595508 1_555
Ga1_0 Ir0_0 2.595513 1_555
Ga1_0 Ir2_0 2.619550 1_555
Ga1_0 Ir2_1 2.619550 1_554
Ga1_0 Ti0_0 2.855297 1_555
Ga1_0 Ti0_1 2.855297 1_554
Ga1_0 Ta0_2 2.892572 1_545
Ga1_0 Ta0_3 2.892572 1_544
Ga1_0 Ta1_4 2.892572 1_455
Ga1_0 Ta1_5 2.892572 1_454
Ga1_0 Ga1_1 2.917057 1_555
Ga1_0 Ga1_1 2.917057 1_554
Ga1_1 Ir1_1 2.595508 1_555
Ga1_1 Ir0_1 2.595513 1_555
Ga1_1 Ir2_1 2.619550 1_555
Ga1_1 Ir2_0 2.619550 1_555
Ga1_1 Ti0_1 2.855297 1_555
Ga1_1 Ti0_0 2.855297 1_555
Ga1_1 Ta0_3 2.892572 1_545
Ga1_1 Ta0_2 2.892572 1_545
Ga1_1 Ta1_5 2.892572 1_455
Ga1_1 Ta1_4 2.892572 1_455
Ga1_2 Ir1_2 2.595508 1_555
Ga1_2 Ir0_2 2.595513 1_555
Ga1_2 Ir2_2 2.619550 1_555
Ga1_2 Ir2_3 2.619550 1_554
Ga1_2 Ti0_2 2.855297 1_555
Ga1_2 Ti0_3 2.855297 1_554
Ga1_2 Ta0_0 2.892572 1_555
Ga1_2 Ta0_1 2.892572 1_554
Ga1_2 Ta1_6 2.892572 1_455
Ga1_2 Ta1_7 2.892572 1_454
Ga1_2 Ga1_3 2.917057 1_555
Ga1_2 Ga1_3 2.917057 1_554
Ga1_3 Ir1_3 2.595508 1_555
Ga1_3 Ir0_3 2.595513 1_555
Ga1_3 Ir2_2 2.619550 1_555
Ga1_3 Ir2_3 2.619550 1_555
Ga1_3 Ti0_3 2.855297 1_555
Ga1_3 Ti0_2 2.855297 1_555
Ga1_3 Ta0_1 2.892572 1_555
Ga1_3 Ta0_0 2.892572 1_555
Ga1_3 Ta1_7 2.892572 1_455
Ga1_3 Ta1_6 2.892572 1_455
Ga1_4 Ir1_4 2.595508 1_555
Ga1_4 Ir0_4 2.595513 1_555
Ga1_4 Ir2_4 2.619550 1_555
Ga1_4 Ir2_5 2.619550 1_554
Ga1_4 Ti0_4 2.855297 1_555
Ga1_4 Ti0_5 2.855297 1_554
Ga1_4 Ta0_6 2.892572 1_545
Ga1_4 Ta0_7 2.892572 1_544
Ga1_4 Ta1_0 2.892572 1_555
Ga1_4 Ta1_1 2.892572 1_554
Ga1_4 Ga1_5 2.917057 1_555
Ga1_4 Ga1_5 2.917057 1_554
Ga1_5 Ir1_5 2.595508 1_555
Ga1_5 Ir0_5 2.595513 1_555
Ga1_5 Ir2_5 2.619550 1_555
Ga1_5 Ir2_4 2.619550 1_555
Ga1_5 Ti0_5 2.855297 1_555
Ga1_5 Ti0_4 2.855297 1_555
Ga1_5 Ta0_6 2.892572 1_545
Ga1_5 Ta0_7 2.892572 1_545
Ga1_5 Ta1_1 2.892572 1_555
Ga1_5 Ta1_0 2.892572 1_555
Ga1_6 Ir1_6 2.595508 1_555
Ga1_6 Ir0_6 2.595513 1_555
Ga1_6 Ir2_6 2.619550 1_555
Ga1_6 Ir2_7 2.619550 1_554
Ga1_6 Ti0_7 2.855297 1_554
Ga1_6 Ti0_6 2.855297 1_555
Ga1_6 Ta0_4 2.892572 1_555
Ga1_6 Ta0_5 2.892572 1_554
Ga1_6 Ta1_2 2.892572 1_555
Ga1_6 Ta1_3 2.892572 1_554
Ga1_6 Ga1_7 2.917057 1_554
Ga1_6 Ga1_7 2.917057 1_555
Ga1_7 Ir1_7 2.595508 1_555
Ga1_7 Ir0_7 2.595513 1_555
Ga1_7 Ir2_7 2.619550 1_555
Ga1_7 Ir2_6 2.619550 1_555
Ga1_7 Ti0_7 2.855297 1_555
Ga1_7 Ti0_6 2.855297 1_555
Ga1_7 Ta0_5 2.892572 1_555
Ga1_7 Ta0_4 2.892572 1_555
Ga1_7 Ta1_3 2.892572 1_555
Ga1_7 Ta1_2 2.892572 1_555
Ga2_0 Ir0_0 2.605025 1_555
Ga2_0 Ir2_6 2.609835 1_555
Ga2_0 Ir2_7 2.609835 1_554
Ga2_0 Ir1_4 2.659650 1_555
Ga2_0 Ti0_1 2.880754 1_554
Ga2_0 Ti0_0 2.880754 1_555
Ga2_0 Ta1_0 2.895365 1_555
Ga2_0 Ta1_1 2.895365 1_554
Ga2_0 Ta0_4 2.901573 1_555
Ga2_0 Ta0_5 2.901573 1_554
Ga2_0 Ga2_1 2.917057 1_554
Ga2_0 Ga2_1 2.917057 1_555
Ga2_1 Ir0_1 2.605025 1_555
Ga2_1 Ir2_7 2.609835 1_555
Ga2_1 Ir2_6 2.609835 1_555
Ga2_1 Ir1_5 2.659650 1_555
Ga2_1 Ti0_1 2.880754 1_555
Ga2_1 Ti0_0 2.880754 1_555
Ga2_1 Ta1_1 2.895365 1_555
Ga2_1 Ta1_0 2.895365 1_555
Ga2_1 Ta0_5 2.901573 1_555
Ga2_1 Ta0_4 2.901573 1_555
Ga2_2 Ir0_2 2.605025 1_555
Ga2_2 Ir2_4 2.609835 1_565
Ga2_2 Ir2_5 2.609835 1_564
Ga2_2 Ir1_6 2.659650 1_555
Ga2_2 Ti0_2 2.880754 1_555
Ga2_2 Ti0_3 2.880754 1_554
Ga2_2 Ta1_2 2.895365 1_555
Ga2_2 Ta1_3 2.895365 1_554
Ga2_2 Ta0_7 2.901573 1_554
Ga2_2 Ta0_6 2.901573 1_555
Ga2_2 Ga2_3 2.917057 1_555
Ga2_2 Ga2_3 2.917057 1_554
Ga2_3 Ir0_3 2.605025 1_555
Ga2_3 Ir2_5 2.609835 1_565
Ga2_3 Ir2_4 2.609835 1_565
Ga2_3 Ir1_7 2.659650 1_555
Ga2_3 Ti0_3 2.880754 1_555
Ga2_3 Ti0_2 2.880754 1_555
Ga2_3 Ta1_3 2.895365 1_555
Ga2_3 Ta1_2 2.895365 1_555
Ga2_3 Ta0_7 2.901573 1_555
Ga2_3 Ta0_6 2.901573 1_555
Ga2_4 Ir0_4 2.605025 1_555
Ga2_4 Ir2_2 2.609835 1_655
Ga2_4 Ir2_3 2.609835 1_654
Ga2_4 Ir1_0 2.659650 1_655
Ga2_4 Ti0_4 2.880754 1_555
Ga2_4 Ti0_5 2.880754 1_554
Ga2_4 Ta1_4 2.895365 1_555
Ga2_4 Ta1_5 2.895365 1_554
Ga2_4 Ta0_0 2.901573 1_655
Ga2_4 Ta0_1 2.901573 1_654
Ga2_4 Ga2_5 2.917057 1_554
Ga2_4 Ga2_5 2.917057 1_555
Ga2_5 Ir0_5 2.605025 1_555
Ga2_5 Ir2_3 2.609835 1_655
Ga2_5 Ir2_2 2.609835 1_655
Ga2_5 Ir1_1 2.659650 1_655
Ga2_5 Ti0_5 2.880754 1_555
Ga2_5 Ti0_4 2.880754 1_555
Ga2_5 Ta1_5 2.895365 1_555
Ga2_5 Ta1_4 2.895365 1_555
Ga2_5 Ta0_1 2.901573 1_655
Ga2_5 Ta0_0 2.901573 1_655
Ga2_6 Ir0_6 2.605025 1_555
Ga2_6 Ir2_0 2.609835 1_665
Ga2_6 Ir2_1 2.609835 1_664
Ga2_6 Ir1_2 2.659650 1_655
Ga2_6 Ti0_6 2.880754 1_555
Ga2_6 Ti0_7 2.880754 1_554
Ga2_6 Ta1_6 2.895365 1_555
Ga2_6 Ta1_7 2.895365 1_554
Ga2_6 Ta0_2 2.901573 1_655
Ga2_6 Ta0_3 2.901573 1_654
Ga2_6 Ga2_7 2.917057 1_555
Ga2_6 Ga2_7 2.917057 1_554
Ga2_7 Ir0_7 2.605025 1_555
Ga2_7 Ir2_1 2.609835 1_665
Ga2_7 Ir2_0 2.609835 1_665
Ga2_7 Ir1_3 2.659650 1_655
Ga2_7 Ti0_7 2.880754 1_555
Ga2_7 Ti0_6 2.880754 1_555
Ga2_7 Ta1_7 2.895365 1_555
Ga2_7 Ta1_6 2.895365 1_555
Ga2_7 Ta0_2 2.901573 1_655
Ga2_7 Ta0_3 2.901573 1_655
Ir0_0 Ti0_0 2.731895 1_555
Ir0_0 Ti0_1 2.731895 1_554
Ir0_0 Ta1_0 2.765460 1_555
Ir0_0 Ta1_1 2.765460 1_554
Ir0_0 Ta0_2 2.770778 1_545
Ir0_0 Ta0_3 2.770778 1_544
Ir0_0 Ir0_1 2.917057 1_555
Ir0_0 Ir0_1 2.917057 1_554
Ir0_1 Ti0_1 2.731895 1_555
Ir0_1 Ti0_0 2.731895 1_555
Ir0_1 Ta1_1 2.765460 1_555
Ir0_1 Ta1_0 2.765460 1_555
Ir0_1 Ta0_3 2.770778 1_545
Ir0_1 Ta0_2 2.770778 1_545
Ir0_2 Ti0_2 2.731895 1_555
Ir0_2 Ti0_3 2.731895 1_554
Ir0_2 Ta1_2 2.765460 1_555
Ir0_2 Ta1_3 2.765460 1_554
Ir0_2 Ta0_0 2.770778 1_555
Ir0_2 Ta0_1 2.770778 1_554
Ir0_2 Ir0_3 2.917057 1_555
Ir0_2 Ir0_3 2.917057 1_554
Ir0_3 Ti0_3 2.731895 1_555
Ir0_3 Ti0_2 2.731895 1_555
Ir0_3 Ta1_3 2.765460 1_555
Ir0_3 Ta1_2 2.765460 1_555
Ir0_3 Ta0_1 2.770778 1_555
Ir0_3 Ta0_0 2.770778 1_555
Ir0_4 Ti0_4 2.731895 1_555
Ir0_4 Ti0_5 2.731895 1_554
Ir0_4 Ta1_4 2.765460 1_555
Ir0_4 Ta1_5 2.765460 1_554
Ir0_4 Ta0_6 2.770778 1_545
Ir0_4 Ta0_7 2.770778 1_544
Ir0_4 Ir0_5 2.917057 1_555
Ir0_4 Ir0_5 2.917057 1_554
Ir0_5 Ti0_5 2.731895 1_555
Ir0_5 Ti0_4 2.731895 1_555
Ir0_5 Ta1_5 2.765460 1_555
Ir0_5 Ta1_4 2.765460 1_555
Ir0_5 Ta0_7 2.770778 1_545
Ir0_5 Ta0_6 2.770778 1_545
Ir0_6 Ti0_6 2.731895 1_555
Ir0_6 Ti0_7 2.731895 1_554
Ir0_6 Ta1_6 2.765460 1_555
Ir0_6 Ta1_7 2.765460 1_554
Ir0_6 Ta0_4 2.770778 1_555
Ir0_6 Ta0_5 2.770778 1_554
Ir0_6 Ir0_7 2.917057 1_554
Ir0_6 Ir0_7 2.917057 1_555
Ir0_7 Ti0_7 2.731895 1_555
Ir0_7 Ti0_6 2.731895 1_555
Ir0_7 Ta1_7 2.765460 1_555
Ir0_7 Ta1_6 2.765460 1_555
Ir0_7 Ta0_5 2.770778 1_555
Ir0_7 Ta0_4 2.770778 1_555
Ir1_0 Ti0_0 2.731898 1_555
Ir1_0 Ti0_1 2.731898 1_554
Ir1_0 Ta0_1 2.765463 1_554
Ir1_0 Ta0_0 2.765463 1_555
Ir1_0 Ta1_4 2.770772 1_455
Ir1_0 Ta1_5 2.770772 1_454
Ir1_0 Ir1_1 2.917057 1_554
Ir1_0 Ir1_1 2.917057 1_555
Ir1_1 Ti0_0 2.731898 1_555
Ir1_1 Ti0_1 2.731898 1_555
Ir1_1 Ta0_1 2.765463 1_555
Ir1_1 Ta0_0 2.765463 1_555
Ir1_1 Ta1_5 2.770772 1_455
Ir1_1 Ta1_4 2.770772 1_455
Ir1_2 Ti0_2 2.731898 1_555
Ir1_2 Ti0_3 2.731898 1_554
Ir1_2 Ta0_2 2.765463 1_555
Ir1_2 Ta0_3 2.765463 1_554
Ir1_2 Ta1_6 2.770772 1_455
Ir1_2 Ta1_7 2.770772 1_454
Ir1_2 Ir1_3 2.917057 1_554
Ir1_2 Ir1_3 2.917057 1_555
Ir1_3 Ti0_2 2.731898 1_555
Ir1_3 Ti0_3 2.731898 1_555
Ir1_3 Ta0_3 2.765463 1_555
Ir1_3 Ta0_2 2.765463 1_555
Ir1_3 Ta1_7 2.770772 1_455
Ir1_3 Ta1_6 2.770772 1_455
Ir1_4 Ti0_4 2.731898 1_555
Ir1_4 Ti0_5 2.731898 1_554
Ir1_4 Ta0_4 2.765463 1_555
Ir1_4 Ta0_5 2.765463 1_554
Ir1_4 Ta1_0 2.770772 1_555
Ir1_4 Ta1_1 2.770772 1_554
Ir1_4 Ir1_5 2.917057 1_555
Ir1_4 Ir1_5 2.917057 1_554
Ir1_5 Ti0_5 2.731898 1_555
Ir1_5 Ti0_4 2.731898 1_555
Ir1_5 Ta0_5 2.765463 1_555
Ir1_5 Ta0_4 2.765463 1_555
Ir1_5 Ta1_1 2.770772 1_555
Ir1_5 Ta1_0 2.770772 1_555
Ir1_6 Ti0_6 2.731898 1_555
Ir1_6 Ti0_7 2.731898 1_554
Ir1_6 Ta0_6 2.765463 1_555
Ir1_6 Ta0_7 2.765463 1_554
Ir1_6 Ta1_2 2.770772 1_555
Ir1_6 Ta1_3 2.770772 1_554
Ir1_6 Ir1_7 2.917057 1_554
Ir1_6 Ir1_7 2.917057 1_555
Ir1_7 Ti0_7 2.731898 1_555
Ir1_7 Ti0_6 2.731898 1_555
Ir1_7 Ta0_7 2.765463 1_555
Ir1_7 Ta0_6 2.765463 1_555
Ir1_7 Ta1_3 2.770772 1_555
Ir1_7 Ta1_2 2.770772 1_555
Ir2_0 Ta1_4 2.713197 1_455
Ir2_0 Ta0_2 2.713198 1_545
Ir2_0 Ti0_6 2.763111 1_445
Ir2_0 Ir2_1 2.917057 1_555
Ir2_0 Ir2_1 2.917057 1_554
Ir2_1 Ta1_5 2.713197 1_455
Ir2_1 Ta0_3 2.713198 1_545
Ir2_1 Ti0_7 2.763111 1_445
Ir2_2 Ta1_6 2.713197 1_455
Ir2_2 Ta0_0 2.713198 1_555
Ir2_2 Ti0_4 2.763111 1_455
Ir2_2 Ir2_3 2.917057 1_555
Ir2_2 Ir2_3 2.917057 1_554
Ir2_3 Ta1_7 2.713197 1_455
Ir2_3 Ta0_1 2.713198 1_555
Ir2_3 Ti0_5 2.763111 1_455
Ir2_4 Ta1_0 2.713197 1_555
Ir2_4 Ta0_6 2.713198 1_545
Ir2_4 Ti0_2 2.763111 1_545
Ir2_4 Ir2_5 2.917057 1_555
Ir2_4 Ir2_5 2.917057 1_554
Ir2_5 Ta1_1 2.713197 1_555
Ir2_5 Ta0_7 2.713198 1_545
Ir2_5 Ti0_3 2.763111 1_545
Ir2_6 Ta1_2 2.713197 1_555
Ir2_6 Ta0_4 2.713198 1_555
Ir2_6 Ti0_0 2.763111 1_555
Ir2_6 Ir2_7 2.917057 1_555
Ir2_6 Ir2_7 2.917057 1_554
Ir2_7 Ta1_3 2.713197 1_555
Ir2_7 Ta0_5 2.713198 1_555
Ir2_7 Ti0_1 2.763111 1_555
