# generated using pymatgen
data_CIN
_symmetry_space_group_name_H-M   'P 1'
_cell_length_a   4.70328687
_cell_length_b   4.70328687
_cell_length_c   4.70328721
_cell_angle_alpha   103.89872142
_cell_angle_beta   103.89872142
_cell_angle_gamma   103.89872319
_symmetry_Int_Tables_number   1
_chemical_formula_structural   CIN
_chemical_formula_sum   'C1 I1 N1'
_cell_volume   93.00956890
_cell_formula_units_Z   1
loop_
 _symmetry_equiv_pos_site_id
 _symmetry_equiv_pos_as_xyz
  1  'x, y, z'
loop_
 _atom_site_type_symbol
 _atom_site_label
 _atom_site_symmetry_multiplicity
 _atom_site_fract_x
 _atom_site_fract_y
 _atom_site_fract_z
 _atom_site_occupancy
  C  C0  1  0.65830200  0.65830200  0.65830200  1
  I  I0  1  0.00274100  0.00274100  0.00274100  1
  N  N0  1  0.45895700  0.45895700  0.45895700  1
loop_
_geom_bond_atom_site_label_1
_geom_bond_atom_site_label_2
_geom_bond_distance
_geom_bond_site_symmetry_2
C0 N0 1.170568 1_555
C0 I0 2.022570 1_666
I0 N0 2.678933 1_555
