# generated using pymatgen
data_Cs2Te3PdO12
_symmetry_space_group_name_H-M   'P 1'
_cell_length_a   7.13248249
_cell_length_b   7.13248258
_cell_length_c   7.13248286
_cell_angle_alpha   61.00490771
_cell_angle_beta   61.00491061
_cell_angle_gamma   61.00490074
_symmetry_Int_Tables_number   1
_chemical_formula_structural   Cs2Te3PdO12
_chemical_formula_sum   'Cs2 Te3 Pd1 O12'
_cell_volume   262.37815348
_cell_formula_units_Z   1
loop_
 _symmetry_equiv_pos_site_id
 _symmetry_equiv_pos_as_xyz
  1  'x, y, z'
loop_
 _atom_site_type_symbol
 _atom_site_label
 _atom_site_symmetry_multiplicity
 _atom_site_fract_x
 _atom_site_fract_y
 _atom_site_fract_z
 _atom_site_occupancy
  Cs  Cs0  1  0.37492513  0.37492513  0.37492513  1
  Cs  Cs1  1  0.62507487  0.62507487  0.62507487  1
  Te  Te0  1  0.50000000  0.00000000  0.00000000  1
  Te  Te1  1  0.00000000  0.00000000  0.50000000  1
  Te  Te2  1  0.00000000  0.50000000  0.00000000  1
  Pd  Pd0  1  0.00000000  0.00000000  0.00000000  1
  O  O0  1  0.93004230  0.31924874  0.31924874  1
  O  O1  1  0.33160603  0.92424066  0.92424066  1
  O  O2  1  0.31924874  0.31924874  0.93004230  1
  O  O3  1  0.92424066  0.92424066  0.33160603  1
  O  O4  1  0.92424066  0.33160603  0.92424066  1
  O  O5  1  0.31924874  0.93004230  0.31924874  1
  O  O6  1  0.06995770  0.68075126  0.68075126  1
  O  O7  1  0.66839397  0.07575934  0.07575934  1
  O  O8  1  0.68075126  0.68075126  0.06995770  1
  O  O9  1  0.07575934  0.07575934  0.66839397  1
  O  O10  1  0.07575934  0.66839397  0.07575934  1
  O  O11  1  0.68075126  0.06995770  0.68075126  1
loop_
_geom_bond_atom_site_label_1
_geom_bond_atom_site_label_2
_geom_bond_distance
_geom_bond_site_symmetry_2
Cs0 O10 3.039988 1_555
Cs0 O7 3.039988 1_555
Cs0 O9 3.039988 1_555
Cs0 O11 3.108154 1_555
Cs0 O6 3.108154 1_555
Cs0 O8 3.108155 1_555
Cs1 O4 3.039988 1_555
Cs1 O1 3.039988 1_555
Cs1 O3 3.039988 1_555
Cs1 O5 3.108154 1_555
Cs1 O0 3.108154 1_555
Cs1 O2 3.108155 1_555
O0 Te1 1.942195 1_655
O0 Te2 1.942195 1_655
O1 Te0 1.888904 1_566
O1 Pd0 1.995760 1_566
O2 Te0 1.942195 1_556
O2 Te2 1.942195 1_556
O3 Te1 1.888904 1_665
O3 Pd0 1.995761 1_665
O4 Te2 1.888904 1_656
O4 Pd0 1.995760 1_656
O5 Te1 1.942195 1_565
O5 Te0 1.942196 1_565
O6 Te1 1.942195 1_565
O6 Te2 1.942195 1_556
O7 Te0 1.888904 1_555
O7 Pd0 1.995760 1_655
O8 Te0 1.942195 1_565
O8 Te2 1.942195 1_655
O9 Te1 1.888904 1_555
O9 Pd0 1.995761 1_556
O10 Te2 1.888904 1_555
O10 Pd0 1.995760 1_565
O11 Te1 1.942195 1_655
O11 Te0 1.942196 1_556
