# generated using pymatgen
data_SiIr2Se5
_symmetry_space_group_name_H-M   'P 1'
_cell_length_a   3.68685560
_cell_length_b   7.68948582
_cell_length_c   12.70734176
_cell_angle_alpha   77.44118875
_cell_angle_beta   90.00000000
_cell_angle_gamma   90.00000000
_symmetry_Int_Tables_number   1
_chemical_formula_structural   SiIr2Se5
_chemical_formula_sum   'Si2 Ir4 Se10'
_cell_volume   351.63377596
_cell_formula_units_Z   2
loop_
 _symmetry_equiv_pos_site_id
 _symmetry_equiv_pos_as_xyz
  1  'x, y, z'
loop_
 _atom_site_type_symbol
 _atom_site_label
 _atom_site_symmetry_multiplicity
 _atom_site_fract_x
 _atom_site_fract_y
 _atom_site_fract_z
 _atom_site_occupancy
  Si  Si0  1  0.50000000  0.15838220  0.68032824  1
  Si  Si1  1  0.50000000  0.84161780  0.31967176  1
  Ir  Ir0  1  0.00000000  0.24961045  0.15232114  1
  Ir  Ir1  1  0.00000000  0.75038955  0.84767886  1
  Ir  Ir2  1  0.50000000  0.74807579  0.15441253  1
  Ir  Ir3  1  0.50000000  0.25192421  0.84558747  1
  Se  Se0  1  0.00000000  0.95601948  0.10408732  1
  Se  Se1  1  0.00000000  0.04398052  0.89591268  1
  Se  Se2  1  0.00000000  0.47097062  0.77235306  1
  Se  Se3  1  0.00000000  0.52902938  0.22764694  1
  Se  Se4  1  0.50000000  0.66278098  0.97409458  1
  Se  Se5  1  0.50000000  0.33721902  0.02590542  1
  Se  Se6  1  0.50000000  0.15767120  0.28780419  1
  Se  Se7  1  0.50000000  0.84232880  0.71219581  1
  Se  Se8  1  0.00000000  0.22605067  0.56536166  1
  Se  Se9  1  0.00000000  0.77394933  0.43463834  1
loop_
_geom_bond_atom_site_label_1
_geom_bond_atom_site_label_2
_geom_bond_distance
_geom_bond_site_symmetry_2
Ir0 Se5 2.441715 1_455
Ir0 Se5 2.441715 1_555
Ir0 Se0 2.464553 1_545
Ir0 Se6 2.516490 1_555
Ir0 Se6 2.516490 1_455
Ir0 Se3 2.535158 1_555
Ir1 Se4 2.441715 1_455
Ir1 Se4 2.441715 1_555
Ir1 Se1 2.464553 1_565
Ir1 Se7 2.516490 1_555
Ir1 Se7 2.516490 1_455
Ir1 Se2 2.535158 1_555
Ir2 Si1 2.363112 1_555
Ir2 Se0 2.432948 1_555
Ir2 Se0 2.432948 1_655
Ir2 Se4 2.516758 1_554
Ir2 Se3 2.533702 1_655
Ir2 Se3 2.533702 1_555
Ir3 Si0 2.363112 1_555
Ir3 Se1 2.432948 1_555
Ir3 Se1 2.432948 1_655
Ir3 Se5 2.516758 1_556
Ir3 Se2 2.533702 1_555
Ir3 Se2 2.533702 1_655
Se0 Se1 2.584033 1_564
Se4 Se5 2.446165 1_556
Se6 Si1 2.375352 1_545
Se7 Si0 2.375352 1_565
Se8 Si0 2.339375 1_555
Se8 Si0 2.339375 1_455
Se9 Si1 2.339375 1_455
Se9 Si1 2.339375 1_555
