# generated using pymatgen
data_Rb2AgB2Pt7
_symmetry_space_group_name_H-M   'P 1'
_cell_length_a   5.71598507
_cell_length_b   5.71598566
_cell_length_c   7.36385519
_cell_angle_alpha   90.00000000
_cell_angle_beta   90.00000000
_cell_angle_gamma   119.99999660
_symmetry_Int_Tables_number   1
_chemical_formula_structural   Rb2AgB2Pt7
_chemical_formula_sum   'Rb2 Ag1 B2 Pt7'
_cell_volume   208.36180092
_cell_formula_units_Z   1
loop_
 _symmetry_equiv_pos_site_id
 _symmetry_equiv_pos_as_xyz
  1  'x, y, z'
loop_
 _atom_site_type_symbol
 _atom_site_label
 _atom_site_symmetry_multiplicity
 _atom_site_fract_x
 _atom_site_fract_y
 _atom_site_fract_z
 _atom_site_occupancy
  Rb  Rb0  1  0.00000000  0.00000000  0.50000000  1
  Rb  Rb1  1  0.00000000  0.00000000  0.00000000  1
  Ag  Ag0  1  0.66666700  0.33333300  0.00000000  1
  B  B0  1  0.66666700  0.33333300  0.50000000  1
  B  B1  1  0.33333300  0.66666700  0.50000000  1
  Pt  Pt0  1  0.49786911  0.50213089  0.69489514  1
  Pt  Pt1  1  0.49786911  0.99573821  0.69489514  1
  Pt  Pt2  1  0.00426179  0.50213089  0.69489514  1
  Pt  Pt3  1  0.49786911  0.50213089  0.30510486  1
  Pt  Pt4  1  0.49786911  0.99573821  0.30510486  1
  Pt  Pt5  1  0.00426179  0.50213089  0.30510486  1
  Pt  Pt6  1  0.33333300  0.66666700  0.00000000  1
loop_
_geom_bond_atom_site_label_1
_geom_bond_atom_site_label_2
_geom_bond_distance
_geom_bond_site_symmetry_2
Ag0 Pt5 2.800115 1_655
Ag0 Pt2 2.800115 1_654
Ag0 Pt4 2.800115 1_545
Ag0 Pt1 2.800115 1_544
Ag0 Pt3 2.800118 1_555
Ag0 Pt0 2.800118 1_554
Ag0 Rb1 3.300122 1_655
Ag0 Pt6 3.300122 1_655
Ag0 Pt6 3.300123 1_545
Ag0 Rb1 3.300127 1_555
Ag0 Rb1 3.300128 1_665
Ag0 Pt6 3.300132 1_555
B0 Pt2 2.202841 1_655
B0 Pt5 2.202841 1_655
B0 Pt1 2.202841 1_545
B0 Pt4 2.202841 1_545
B0 Pt0 2.202845 1_555
B0 Pt3 2.202845 1_555
B1 Pt2 2.171006 1_555
B1 Pt5 2.171006 1_555
B1 Pt1 2.171006 1_555
B1 Pt4 2.171006 1_555
B1 Pt0 2.171009 1_555
B1 Pt3 2.171009 1_555
Pt0 Pt6 2.775143 1_556
Pt0 Rb0 3.198173 1_665
Pt0 Rb0 3.198173 1_555
Pt1 Pt6 2.775140 1_556
Pt1 Rb0 3.198172 1_565
Pt1 Rb0 3.198172 1_665
Pt2 Pt6 2.775140 1_556
Pt2 Rb0 3.198173 1_565
Pt2 Rb0 3.198173 1_555
Pt3 Pt6 2.775143 1_555
Pt3 Rb0 3.198173 1_665
Pt3 Rb0 3.198173 1_555
Pt4 Pt6 2.775140 1_555
Pt4 Rb0 3.198172 1_565
Pt4 Rb0 3.198172 1_665
Pt5 Pt6 2.775140 1_555
Pt5 Rb0 3.198173 1_565
Pt5 Rb0 3.198173 1_555
Pt6 Rb1 3.300122 1_565
Pt6 Rb1 3.300127 1_665
Pt6 Rb1 3.300128 1_555
