# generated using pymatgen
data_AlZn3P6N13
_symmetry_space_group_name_H-M   'P 1'
_cell_length_a   6.91122209
_cell_length_b   6.85578748
_cell_length_c   6.91122236
_cell_angle_alpha   109.30880185
_cell_angle_beta   109.63312965
_cell_angle_gamma   109.30882437
_symmetry_Int_Tables_number   1
_chemical_formula_structural   AlZn3P6N13
_chemical_formula_sum   'Al1 Zn3 P6 N13'
_cell_volume   252.58744797
_cell_formula_units_Z   1
loop_
 _symmetry_equiv_pos_site_id
 _symmetry_equiv_pos_as_xyz
  1  'x, y, z'
loop_
 _atom_site_type_symbol
 _atom_site_label
 _atom_site_symmetry_multiplicity
 _atom_site_fract_x
 _atom_site_fract_y
 _atom_site_fract_z
 _atom_site_occupancy
  Al  Al0  1  0.00000000  0.69381495  0.00000000  1
  Zn  Zn0  1  0.72064203  0.99525494  0.00000000  1
  Zn  Zn1  1  0.00000000  0.99525494  0.72064203  1
  Zn  Zn2  1  0.27935797  0.27461292  0.27935797  1
  P  P0  1  0.49929556  0.25288256  0.74862317  1
  P  P1  1  0.50070444  0.75358700  0.24932761  1
  P  P2  1  0.75067239  0.50425939  0.25137683  1
  P  P3  1  0.24932761  0.75358700  0.50070444  1
  P  P4  1  0.74862317  0.25288256  0.49929556  1
  P  P5  1  0.25137683  0.50425939  0.75067239  1
  N  N0  1  0.00000000  0.74252830  0.45757365  1
  N  N1  1  0.27072553  0.53807916  0.53565564  1
  N  N2  1  0.74171377  0.46928632  0.00000000  1
  N  N3  1  0.25828623  0.72757355  0.25828623  1
  N  N4  1  0.46434436  0.00242352  0.73507089  1
  N  N5  1  0.72927447  0.26735263  0.26492911  1
  N  N6  1  0.54242635  0.28495364  0.54242635  1
  N  N7  1  0.73507089  0.00242352  0.46434436  1
  N  N8  1  0.26492911  0.26735263  0.72927447  1
  N  N9  1  0.45757365  0.74252830  0.00000000  1
  N  N10  1  0.53565564  0.53807916  0.27072553  1
  N  N11  1  0.00000000  0.46928632  0.74171377  1
  N  N12  1  0.00000000  0.96773527  0.00000000  1
loop_
_geom_bond_atom_site_label_1
_geom_bond_atom_site_label_2
_geom_bond_distance
_geom_bond_site_symmetry_2
Al0 N12 1.877939 1_555
Al0 N3 1.933600 1_555
Al0 N2 1.933603 1_455
Al0 N11 1.933604 1_554
N0 P3 1.617828 1_555
N0 P2 1.617828 1_455
N0 Zn1 2.055325 1_555
N1 P3 1.618538 1_555
N1 P5 1.618893 1_555
N1 Zn2 2.104797 1_555
N2 P2 1.649858 1_555
N2 P0 1.649858 1_554
N3 P1 1.649859 1_555
N3 P3 1.649859 1_555
N4 P0 1.618541 1_555
N4 P3 1.618895 1_545
N4 Zn0 2.104792 1_546
N5 P2 1.618542 1_555
N5 P4 1.618897 1_555
N5 Zn0 2.104789 1_545
N6 P0 1.617825 1_555
N6 P4 1.617825 1_555
N6 Zn2 2.055328 1_555
N7 P4 1.618541 1_555
N7 P1 1.618895 1_545
N7 Zn1 2.104792 1_645
N8 P5 1.618542 1_555
N8 P0 1.618897 1_555
N8 Zn1 2.104788 1_545
N9 P1 1.617828 1_555
N9 P5 1.617828 1_554
N9 Zn0 2.055324 1_555
N10 P1 1.618538 1_555
N10 P2 1.618893 1_555
N10 Zn2 2.104796 1_555
N11 P5 1.649858 1_555
N11 P4 1.649858 1_455
N12 Zn0 2.001028 1_455
N12 Zn1 2.001028 1_554
N12 Zn2 2.001028 1_565
