# generated using pymatgen
data_Lu2Al4CoNi
_symmetry_space_group_name_H-M   'P 1'
_cell_length_a   5.26832565
_cell_length_b   5.26832703
_cell_length_c   6.87839959
_cell_angle_alpha   90.00000000
_cell_angle_beta   90.00000000
_cell_angle_gamma   135.51840424
_symmetry_Int_Tables_number   1
_chemical_formula_structural   Lu2Al4CoNi
_chemical_formula_sum   'Lu2 Al4 Co1 Ni1'
_cell_volume   133.76809314
_cell_formula_units_Z   1
loop_
 _symmetry_equiv_pos_site_id
 _symmetry_equiv_pos_as_xyz
  1  'x, y, z'
loop_
 _atom_site_type_symbol
 _atom_site_label
 _atom_site_symmetry_multiplicity
 _atom_site_fract_x
 _atom_site_fract_y
 _atom_site_fract_z
 _atom_site_occupancy
  Lu  Lu0  1  0.56112285  0.43887715  0.25000000  1
  Lu  Lu1  1  0.43817305  0.56182695  0.75000000  1
  Al  Al0  1  0.84332901  0.15667099  0.05597152  1
  Al  Al1  1  0.15640334  0.84359666  0.94634751  1
  Al  Al2  1  0.15640334  0.84359666  0.55365249  1
  Al  Al3  1  0.84332901  0.15667099  0.44402848  1
  Co  Co0  1  0.28631585  0.71368415  0.25000000  1
  Ni  Ni0  1  0.71492255  0.28507745  0.75000000  1
loop_
_geom_bond_atom_site_label_1
_geom_bond_atom_site_label_2
_geom_bond_distance
_geom_bond_site_symmetry_2
Lu1 Ni0 2.699066 1_555
Lu1 Ni0 2.952445 1_455
Lu1 Ni0 2.952446 1_565
Al0 Ni0 2.449002 1_554
Al0 Co0 2.463052 1_545
Al0 Co0 2.463052 1_655
Al0 Lu1 3.043222 1_654
Al0 Lu1 3.043223 1_544
Al0 Lu0 3.058796 1_555
Al0 Lu0 3.204558 1_655
Al0 Lu0 3.204559 1_545
Al1 Co0 2.442893 1_556
Al1 Ni0 2.475077 1_565
Al1 Ni0 2.475078 1_455
Al1 Lu0 3.033514 1_456
Al1 Lu0 3.033514 1_566
Al1 Lu1 3.061969 1_555
Al1 Lu1 3.214051 1_455
Al1 Lu1 3.214052 1_565
Al2 Co0 2.442893 1_555
Al2 Ni0 2.475077 1_565
Al2 Ni0 2.475078 1_455
Al2 Lu0 3.033514 1_455
Al2 Lu0 3.033514 1_565
Al2 Lu1 3.061969 1_555
Al2 Lu1 3.214051 1_455
Al2 Lu1 3.214052 1_565
Al3 Ni0 2.449002 1_555
Al3 Co0 2.463052 1_545
Al3 Co0 2.463052 1_655
Al3 Lu1 3.043222 1_655
Al3 Lu1 3.043223 1_545
Al3 Lu0 3.058796 1_555
Al3 Lu0 3.204558 1_655
Al3 Lu0 3.204559 1_545
Co0 Lu0 2.680121 1_555
Co0 Lu0 2.966443 1_455
Co0 Lu0 2.966444 1_565
