# generated using pymatgen
data_Ta4AlSiH2
_symmetry_space_group_name_H-M   'P 1'
_cell_length_a   5.14464922
_cell_length_b   5.14464867
_cell_length_c   5.14464877
_cell_angle_alpha   104.94281979
_cell_angle_beta   104.94281292
_cell_angle_gamma   118.96599161
_symmetry_Int_Tables_number   1
_chemical_formula_structural   Ta4AlSiH2
_chemical_formula_sum   'Ta4 Al1 Si1 H2'
_cell_volume   102.62984280
_cell_formula_units_Z   1
loop_
 _symmetry_equiv_pos_site_id
 _symmetry_equiv_pos_as_xyz
  1  'x, y, z'
loop_
 _atom_site_type_symbol
 _atom_site_label
 _atom_site_symmetry_multiplicity
 _atom_site_fract_x
 _atom_site_fract_y
 _atom_site_fract_z
 _atom_site_occupancy
  Ta  Ta0  1  0.16641893  0.66641893  0.83283985  1
  Ta  Ta1  1  0.83358107  0.33358107  0.16716015  1
  Ta  Ta2  1  0.33358107  0.16641893  0.50000000  1
  Ta  Ta3  1  0.66641893  0.83358107  0.50000000  1
  Al  Al0  1  0.25000000  0.25000000  0.00000000  1
  Si  Si0  1  0.75000000  0.75000000  0.00000000  1
  H  H0  1  0.75000000  0.25000000  0.50000000  1
  H  H1  1  0.25000000  0.75000000  0.50000000  1
loop_
_geom_bond_atom_site_label_1
_geom_bond_atom_site_label_2
_geom_bond_distance
_geom_bond_site_symmetry_2
Al0 Si0 2.612422 1_445
Al0 Si0 2.612422 1_555
Al0 Ta0 2.676883 1_554
Al0 Ta1 2.676884 1_455
Al0 Ta3 2.676888 1_555
Al0 Ta3 2.676888 1_444
Al0 Ta0 2.676888 1_544
Al0 Ta2 2.676888 1_554
Al0 Ta2 2.676888 1_555
Al0 Ta1 2.676889 1_555
Si0 Ta1 2.676883 1_555
Si0 Ta0 2.676884 1_654
Si0 Ta2 2.676888 1_554
Si0 Ta2 2.676888 1_665
Si0 Ta1 2.676888 1_565
Si0 Ta3 2.676888 1_555
Si0 Ta3 2.676888 1_554
Si0 Ta0 2.676889 1_554
H0 Ta3 1.970335 1_545
H0 Ta2 1.970336 1_555
H0 Ta0 1.970338 1_655
H0 Ta1 1.970346 1_555
H1 Ta2 1.970335 1_565
H1 Ta3 1.970336 1_555
H1 Ta1 1.970338 1_455
H1 Ta0 1.970346 1_555
