# generated using pymatgen
data_Hf16TcNi4Ir3
_symmetry_space_group_name_H-M   'P 1'
_cell_length_a   8.58518193
_cell_length_b   8.55289565
_cell_length_c   8.55289655
_cell_angle_alpha   60.00000029
_cell_angle_beta   60.12432541
_cell_angle_gamma   60.12433224
_symmetry_Int_Tables_number   1
_chemical_formula_structural   Hf16TcNi4Ir3
_chemical_formula_sum   'Hf16 Tc1 Ni4 Ir3'
_cell_volume   444.91237563
_cell_formula_units_Z   1
loop_
 _symmetry_equiv_pos_site_id
 _symmetry_equiv_pos_as_xyz
  1  'x, y, z'
loop_
 _atom_site_type_symbol
 _atom_site_label
 _atom_site_symmetry_multiplicity
 _atom_site_fract_x
 _atom_site_fract_y
 _atom_site_fract_z
 _atom_site_occupancy
  Hf  Hf0  1  0.67355190  0.10881603  0.10881603  1
  Hf  Hf1  1  0.10554097  0.68298894  0.10573355  1
  Hf  Hf2  1  0.10554097  0.10573355  0.68298894  1
  Hf  Hf3  1  0.10554097  0.10573355  0.10573355  1
  Hf  Hf4  1  0.31574018  0.31429071  0.68498505  1
  Hf  Hf5  1  0.69148295  0.68081982  0.31384911  1
  Hf  Hf6  1  0.31574018  0.68498505  0.31429071  1
  Hf  Hf7  1  0.69148295  0.31384911  0.68081982  1
  Hf  Hf8  1  0.69148295  0.31384911  0.31384911  1
  Hf  Hf9  1  0.31574018  0.68498505  0.68498505  1
  Hf  Hf10  1  0.94724933  0.95007141  0.55134013  1
  Hf  Hf11  1  0.55133903  0.55151457  0.94857420  1
  Hf  Hf12  1  0.94724933  0.55134013  0.95007141  1
  Hf  Hf13  1  0.55133903  0.94857420  0.55151457  1
  Hf  Hf14  1  0.55133903  0.94857420  0.94857420  1
  Hf  Hf15  1  0.94724933  0.55134013  0.55134013  1
  Tc  Tc0  1  0.00090267  0.33303244  0.33303244  1
  Ni  Ni0  1  0.32268970  0.89243710  0.89243710  1
  Ni  Ni1  1  0.89040924  0.31896248  0.89531414  1
  Ni  Ni2  1  0.89040924  0.89531414  0.31896248  1
  Ni  Ni3  1  0.89040924  0.89531414  0.89531414  1
  Ir  Ir0  1  0.33252287  0.99603541  0.33571986  1
  Ir  Ir1  1  0.33252287  0.33571986  0.99603541  1
  Ir  Ir2  1  0.33252287  0.33571986  0.33571986  1
loop_
_geom_bond_atom_site_label_1
_geom_bond_atom_site_label_2
_geom_bond_distance
_geom_bond_site_symmetry_2
Hf0 Ni1 2.587630 1_554
Hf0 Ni2 2.587631 1_545
Hf0 Ni3 2.587631 1_544
Hf0 Ir2 2.923977 1_555
Hf0 Ir0 2.923985 1_545
Hf0 Ir1 2.923985 1_554
Hf1 Ni3 2.578705 1_454
Hf1 Ni2 2.578723 1_455
Hf1 Ni0 2.585238 1_554
Hf1 Tc0 2.943691 1_555
Hf1 Ir1 2.949342 1_554
Hf1 Ir2 2.949346 1_555
Hf2 Ni3 2.578704 1_445
Hf2 Ni1 2.578723 1_455
Hf2 Ni0 2.585239 1_545
Hf2 Tc0 2.943691 1_555
Hf2 Ir0 2.949342 1_545
Hf2 Ir2 2.949346 1_555
Hf3 Ni2 2.578705 1_445
Hf3 Ni1 2.578705 1_454
Hf3 Ni0 2.585215 1_544
Hf3 Tc0 2.943713 1_555
Hf3 Ir1 2.949348 1_554
Hf3 Ir0 2.949349 1_545
Hf4 Ir1 2.833330 1_555
Hf4 Ir2 2.833356 1_555
Hf5 Tc0 2.829452 1_655
Hf5 Ir0 2.907477 1_555
Hf5 Ni2 3.091934 1_555
Hf5 Ni3 3.091939 1_554
Hf6 Ir0 2.833330 1_555
Hf6 Ir2 2.833356 1_555
Hf7 Tc0 2.829452 1_655
Hf7 Ir1 2.907477 1_555
Hf7 Ni1 3.091934 1_555
Hf7 Ni3 3.091939 1_545
Hf8 Tc0 2.829447 1_655
Hf8 Ir2 2.907488 1_555
Hf8 Ni2 3.091941 1_545
Hf8 Ni1 3.091941 1_554
Hf9 Ir1 2.833345 1_555
Hf9 Ir0 2.833345 1_555
Hf10 Ni3 2.555836 1_555
Hf10 Ni2 2.555844 1_555
Hf10 Tc0 2.992887 1_665
Hf10 Ir0 2.998256 1_655
Hf11 Ni0 2.534330 1_555
Hf11 Ni1 2.540523 1_555
Hf11 Ir2 3.007574 1_556
Hf11 Ir1 3.007590 1_555
Hf12 Ni3 2.555835 1_555
Hf12 Ni1 2.555844 1_555
Hf12 Tc0 2.992887 1_656
Hf12 Ir1 2.998256 1_655
Hf13 Ni0 2.534330 1_555
Hf13 Ni2 2.540523 1_555
Hf13 Ir2 3.007574 1_565
Hf13 Ir0 3.007591 1_555
Hf14 Ni0 2.534336 1_555
Hf14 Ni3 2.540517 1_555
Hf14 Ir1 3.007561 1_565
Hf14 Ir0 3.007561 1_556
Hf15 Ni2 2.555838 1_555
Hf15 Ni1 2.555838 1_555
Hf15 Tc0 2.992894 1_655
Hf15 Ir2 2.998266 1_655
Ir0 Tc0 2.870112 1_565
Ir0 Ir2 2.905286 1_565
Ir0 Ir1 2.905286 1_564
Ir1 Tc0 2.870112 1_556
Ir1 Ir2 2.905286 1_556
Ir2 Tc0 2.870103 1_555
