# generated using pymatgen
data_K16ZrTiAs8
_symmetry_space_group_name_H-M   'P 1'
_cell_length_a   10.88047482
_cell_length_b   10.88047565
_cell_length_c   10.88047719
_cell_angle_alpha   60.00000419
_cell_angle_beta   60.00000166
_cell_angle_gamma   60.00000193
_symmetry_Int_Tables_number   1
_chemical_formula_structural   K16ZrTiAs8
_chemical_formula_sum   'K16 Zr1 Ti1 As8'
_cell_volume   910.81190876
_cell_formula_units_Z   1
loop_
 _symmetry_equiv_pos_site_id
 _symmetry_equiv_pos_as_xyz
  1  'x, y, z'
loop_
 _atom_site_type_symbol
 _atom_site_label
 _atom_site_symmetry_multiplicity
 _atom_site_fract_x
 _atom_site_fract_y
 _atom_site_fract_z
 _atom_site_occupancy
  K  K0  1  0.62353495  0.62353495  0.12939416  1
  K  K1  1  0.62353495  0.12939416  0.62353495  1
  K  K2  1  0.12939416  0.62353495  0.62353495  1
  K  K3  1  0.62353495  0.62353495  0.62353495  1
  K  K4  1  0.02810579  0.47189421  0.47189421  1
  K  K5  1  0.77818855  0.22181145  0.22181145  1
  K  K6  1  0.47189421  0.02810579  0.47189421  1
  K  K7  1  0.47189421  0.47189421  0.02810579  1
  K  K8  1  0.02810579  0.02810579  0.47189421  1
  K  K9  1  0.02810579  0.47189421  0.02810579  1
  K  K10  1  0.47189421  0.02810579  0.02810579  1
  K  K11  1  0.77818855  0.22181145  0.77818855  1
  K  K12  1  0.22181145  0.77818855  0.22181145  1
  K  K13  1  0.22181145  0.22181145  0.77818855  1
  K  K14  1  0.77818855  0.77818855  0.22181145  1
  K  K15  1  0.22181145  0.77818855  0.77818855  1
  Zr  Zr0  1  0.75000000  0.75000000  0.75000000  1
  Ti  Ti0  1  0.50000000  0.50000000  0.50000000  1
  As  As0  1  0.85008543  0.85008543  0.44974370  1
  As  As1  1  0.85008543  0.44974370  0.85008543  1
  As  As2  1  0.40377201  0.40377201  0.78868497  1
  As  As3  1  0.40377201  0.78868497  0.40377201  1
  As  As4  1  0.78868497  0.40377201  0.40377201  1
  As  As5  1  0.85008543  0.85008543  0.85008543  1
  As  As6  1  0.44974370  0.85008543  0.85008543  1
  As  As7  1  0.40377201  0.40377201  0.40377201  1
loop_
_geom_bond_atom_site_label_1
_geom_bond_atom_site_label_2
_geom_bond_distance
_geom_bond_site_symmetry_2
K0 Ti0 3.292415 1_555
K0 Zr0 3.370489 1_554
K1 Ti0 3.292415 1_555
K1 Zr0 3.370489 1_545
K2 Ti0 3.292414 1_555
K2 Zr0 3.370489 1_455
K3 Ti0 3.292406 1_555
K3 Zr0 3.370498 1_555
As0 Zr0 2.667439 1_555
As0 K12 3.444763 1_655
As0 K14 3.444764 1_555
As0 K5 3.444764 1_565
As0 K6 3.499572 1_565
As0 K8 3.499572 1_665
As0 K4 3.499572 1_655
As0 K2 3.532944 1_655
As0 K1 3.532944 1_565
As0 K3 3.532952 1_555
As1 Zr0 2.667438 1_555
As1 K13 3.444763 1_655
As1 K11 3.444763 1_555
As1 K5 3.444764 1_556
As1 K7 3.499572 1_556
As1 K9 3.499572 1_656
As1 K4 3.499573 1_655
As1 K2 3.532944 1_655
As1 K0 3.532944 1_556
As1 K3 3.532953 1_555
As2 Ti0 2.564641 1_555
As2 K3 3.433373 1_555
As2 K2 3.433390 1_555
As2 K1 3.433390 1_555
As2 K11 3.496315 1_555
As2 K15 3.496316 1_555
As2 K13 3.496325 1_555
As2 K7 3.506553 1_556
As2 K9 3.506560 1_556
As2 K10 3.506560 1_556
As3 Ti0 2.564640 1_555
As3 K3 3.433373 1_555
As3 K2 3.433390 1_555
As3 K0 3.433390 1_555
As3 K14 3.496315 1_555
As3 K15 3.496316 1_555
As3 K12 3.496325 1_555
As3 K6 3.506553 1_565
As3 K8 3.506560 1_565
As3 K10 3.506561 1_565
As4 Ti0 2.564640 1_555
As4 K3 3.433373 1_555
As4 K1 3.433390 1_555
As4 K0 3.433391 1_555
As4 K14 3.496316 1_555
As4 K11 3.496316 1_555
As4 K5 3.496325 1_555
As4 K4 3.506552 1_655
As4 K8 3.506560 1_655
As4 K9 3.506561 1_655
As5 Zr0 2.667438 1_555
As5 K15 3.444763 1_655
As5 K11 3.444763 1_565
As5 K14 3.444764 1_556
As5 K10 3.499572 1_566
As5 K9 3.499572 1_656
As5 K8 3.499573 1_665
As5 K0 3.532951 1_556
As5 K2 3.532951 1_655
As5 K1 3.532951 1_565
As6 Zr0 2.667438 1_555
As6 K15 3.444763 1_555
As6 K13 3.444763 1_565
As6 K12 3.444764 1_556
As6 K10 3.499572 1_566
As6 K7 3.499572 1_556
As6 K6 3.499573 1_565
As6 K1 3.532944 1_565
As6 K0 3.532944 1_556
As6 K3 3.532953 1_555
As7 Ti0 2.564631 1_555
As7 K0 3.433377 1_555
As7 K2 3.433377 1_555
As7 K1 3.433377 1_555
As7 K5 3.496318 1_555
As7 K12 3.496319 1_555
As7 K13 3.496319 1_555
As7 K4 3.506563 1_555
As7 K6 3.506563 1_555
As7 K7 3.506564 1_555
