# generated using pymatgen
data_TaNb3Te8H3
_symmetry_space_group_name_H-M   'P 1'
_cell_length_a   3.63545332
_cell_length_b   3.63545529
_cell_length_c   30.20934186
_cell_angle_alpha   90.00000000
_cell_angle_beta   90.00000000
_cell_angle_gamma   119.99999129
_symmetry_Int_Tables_number   1
_chemical_formula_structural   TaNb3Te8H3
_chemical_formula_sum   'Ta1 Nb3 Te8 H3'
_cell_volume   345.77159523
_cell_formula_units_Z   1
loop_
 _symmetry_equiv_pos_site_id
 _symmetry_equiv_pos_as_xyz
  1  'x, y, z'
loop_
 _atom_site_type_symbol
 _atom_site_label
 _atom_site_symmetry_multiplicity
 _atom_site_fract_x
 _atom_site_fract_y
 _atom_site_fract_z
 _atom_site_occupancy
  Ta  Ta0  1  0.66666700  0.33333300  0.50000000  1
  Nb  Nb0  1  0.66666700  0.33333300  0.00000000  1
  Nb  Nb1  1  0.33333300  0.66666700  0.24946963  1
  Nb  Nb2  1  0.33333300  0.66666700  0.75053037  1
  Te  Te0  1  0.66666700  0.33333300  0.31346560  1
  Te  Te1  1  0.66666700  0.33333300  0.81453282  1
  Te  Te2  1  0.33333300  0.66666700  0.93838510  1
  Te  Te3  1  0.33333300  0.66666700  0.43663498  1
  Te  Te4  1  0.33333300  0.66666700  0.06161490  1
  Te  Te5  1  0.33333300  0.66666700  0.56336502  1
  Te  Te6  1  0.66666700  0.33333300  0.18546718  1
  Te  Te7  1  0.66666700  0.33333300  0.68653440  1
  H  H0  1  0.00000000  0.00000000  0.50000000  1
  H  H1  1  0.00000000  0.00000000  0.24953783  1
  H  H2  1  0.00000000  0.00000000  0.75046217  1
loop_
_geom_bond_atom_site_label_1
_geom_bond_atom_site_label_2
_geom_bond_distance
_geom_bond_site_symmetry_2
Ta0 Te5 2.840725 1_655
Ta0 Te3 2.840725 1_655
Ta0 Te5 2.840726 1_545
Ta0 Te3 2.840726 1_545
Ta0 Te5 2.840730 1_555
Ta0 Te3 2.840730 1_555
Nb0 Te4 2.805371 1_655
Nb0 Te2 2.805371 1_654
Nb0 Te4 2.805372 1_545
Nb0 Te2 2.805372 1_544
Nb0 Te4 2.805376 1_555
Nb0 Te2 2.805376 1_554
Nb1 Te0 2.853604 1_455
Nb1 Te0 2.853605 1_565
Nb1 Te0 2.853609 1_555
Nb1 Te6 2.853736 1_455
Nb1 Te6 2.853737 1_565
Nb1 Te6 2.853741 1_555
Nb2 Te7 2.853604 1_455
Nb2 Te7 2.853605 1_565
Nb2 Te7 2.853609 1_555
Nb2 Te1 2.853736 1_455
Nb2 Te1 2.853737 1_565
Nb2 Te1 2.853741 1_555
H0 Ta0 2.098928 1_455
H0 Ta0 2.098931 1_555
H0 Ta0 2.098932 1_445
H1 Nb1 2.098929 1_545
H1 Nb1 2.098932 1_445
H1 Nb1 2.098933 1_555
H2 Nb2 2.098929 1_545
H2 Nb2 2.098932 1_445
H2 Nb2 2.098933 1_555
