# generated using pymatgen
data_K10SrPb12
_symmetry_space_group_name_H-M   'P 1'
_cell_length_a   10.67071691
_cell_length_b   10.67071749
_cell_length_c   10.67071624
_cell_angle_alpha   109.47122008
_cell_angle_beta   109.47122117
_cell_angle_gamma   109.47121902
_symmetry_Int_Tables_number   1
_chemical_formula_structural   K10SrPb12
_chemical_formula_sum   'K10 Sr1 Pb12'
_cell_volume   935.31717575
_cell_formula_units_Z   1
loop_
 _symmetry_equiv_pos_site_id
 _symmetry_equiv_pos_as_xyz
  1  'x, y, z'
loop_
 _atom_site_type_symbol
 _atom_site_label
 _atom_site_symmetry_multiplicity
 _atom_site_fract_x
 _atom_site_fract_y
 _atom_site_fract_z
 _atom_site_occupancy
  K  K0  1  0.25000000  0.50000000  0.75000000  1
  K  K1  1  0.39681872  0.39681872  0.39681872  1
  K  K2  1  0.00000000  0.60318128  0.00000000  1
  K  K3  1  0.60318128  0.00000000  0.00000000  1
  K  K4  1  1.00000000  1.00000000  0.60318128  1
  K  K5  1  0.75000000  0.50000000  0.25000000  1
  K  K6  1  0.25000000  0.75000000  0.50000000  1
  K  K7  1  0.75000000  0.25000000  0.50000000  1
  K  K8  1  0.50000000  0.25000000  0.75000000  1
  K  K9  1  0.50000000  0.75000000  0.25000000  1
  Sr  Sr0  1  0.00000000  0.00000000  0.00000000  1
  Pb  Pb0  1  0.64309408  0.64309408  0.82420166  1
  Pb  Pb1  1  1.00000000  0.18110658  0.35690592  1
  Pb  Pb2  1  0.18110658  0.00000000  0.35690592  1
  Pb  Pb3  1  0.81889342  0.17579834  0.81889342  1
  Pb  Pb4  1  0.17579834  0.81889342  0.81889342  1
  Pb  Pb5  1  0.82420166  0.64309408  0.64309408  1
  Pb  Pb6  1  1.00000000  0.35690592  0.18110658  1
  Pb  Pb7  1  0.35690592  0.00000000  0.18110658  1
  Pb  Pb8  1  0.64309408  0.82420166  0.64309408  1
  Pb  Pb9  1  0.18110658  0.35690592  1.00000000  1
  Pb  Pb10  1  0.35690592  0.18110658  1.00000000  1
  Pb  Pb11  1  0.81889342  0.81889342  0.17579834  1
loop_
_geom_bond_atom_site_label_1
_geom_bond_atom_site_label_2
_geom_bond_distance
_geom_bond_site_symmetry_2
K0 Pb0 3.641844 1_555
K0 Pb9 3.641847 1_555
K0 Pb1 3.641847 1_455
K0 Pb4 3.641854 1_555
K1 Pb0 3.745199 1_555
K1 Pb5 3.745200 1_555
K1 Pb8 3.745200 1_555
K1 Pb9 3.880175 1_554
K1 Pb10 3.880175 1_554
K1 Pb6 3.880175 1_455
K1 Pb1 3.880175 1_455
K1 Pb7 3.880175 1_555
K1 Pb2 3.880175 1_555
K2 Pb6 3.745192 1_455
K2 Pb9 3.745192 1_554
K2 Pb3 3.745201 1_454
K2 Pb4 3.880170 1_554
K2 Pb11 3.880170 1_455
K2 Pb5 3.880173 1_454
K2 Pb0 3.880173 1_454
K2 Pb2 3.880175 1_565
K2 Pb7 3.880175 1_565
K3 Pb7 3.745192 1_555
K3 Pb10 3.745192 1_554
K3 Pb4 3.745201 1_544
K3 Pb3 3.880170 1_554
K3 Pb11 3.880170 1_545
K3 Pb8 3.880173 1_544
K3 Pb0 3.880173 1_544
K3 Pb1 3.880175 1_555
K3 Pb6 3.880175 1_555
K4 Pb2 3.745192 1_665
K4 Pb1 3.745192 1_565
K4 Pb11 3.745201 1_555
K4 Pb3 3.880170 1_565
K4 Pb4 3.880170 1_655
K4 Pb8 3.880173 1_555
K4 Pb5 3.880173 1_555
K4 Pb10 3.880175 1_665
K4 Pb9 3.880175 1_665
K5 Pb5 3.641844 1_555
K5 Pb6 3.641847 1_555
K5 Pb10 3.641847 1_554
K5 Pb11 3.641854 1_555
K6 Pb8 3.641844 1_555
K6 Pb2 3.641847 1_565
K6 Pb6 3.641847 1_455
K6 Pb4 3.641853 1_555
K7 Pb5 3.641844 1_555
K7 Pb1 3.641847 1_555
K7 Pb7 3.641847 1_555
K7 Pb3 3.641853 1_555
K8 Pb0 3.641844 1_555
K8 Pb10 3.641847 1_555
K8 Pb2 3.641847 1_555
K8 Pb3 3.641854 1_555
K9 Pb8 3.641844 1_555
K9 Pb7 3.641847 1_565
K9 Pb9 3.641847 1_554
K9 Pb11 3.641854 1_555
Pb0 Pb11 3.063322 1_556
Pb0 Pb5 3.155837 1_555
Pb0 Pb8 3.155837 1_555
Pb0 Sr0 3.651343 1_666
Pb1 Pb6 3.063340 1_555
Pb1 Pb2 3.155820 1_655
Pb1 Pb11 3.155820 1_545
Pb1 Sr0 3.651341 1_655
Pb2 Pb7 3.063340 1_555
Pb2 Sr0 3.651341 1_555
Pb3 Pb8 3.063323 1_545
Pb3 Pb6 3.155820 1_556
Pb3 Pb9 3.155820 1_655
Pb3 Sr0 3.651332 1_656
Pb4 Pb5 3.063323 1_455
Pb4 Pb7 3.155820 1_566
Pb4 Sr0 3.651332 1_566
Pb5 Pb8 3.155837 1_555
Pb5 Sr0 3.651343 1_666
Pb6 Pb9 3.155820 1_654
Pb6 Sr0 3.651341 1_655
Pb7 Sr0 3.651341 1_555
Pb8 Sr0 3.651343 1_666
Pb9 Sr0 3.651342 1_556
Pb10 Pb9 3.063340 1_555
Pb10 Pb7 3.155820 1_556
Pb10 Pb4 3.155820 1_545
Pb10 Sr0 3.651341 1_556
Pb11 Pb2 3.155820 1_665
Pb11 Sr0 3.651332 1_665
