# generated using pymatgen
data_Rb8HfSb4
_symmetry_space_group_name_H-M   'P 1'
_cell_length_a   11.98279808
_cell_length_b   11.98278676
_cell_length_c   11.98280179
_cell_angle_alpha   59.99995582
_cell_angle_beta   59.99998707
_cell_angle_gamma   59.99994622
_symmetry_Int_Tables_number   1
_chemical_formula_structural   Rb8HfSb4
_chemical_formula_sum   'Rb16 Hf2 Sb8'
_cell_volume   1216.63158151
_cell_formula_units_Z   2
loop_
 _symmetry_equiv_pos_site_id
 _symmetry_equiv_pos_as_xyz
  1  'x, y, z'
loop_
 _atom_site_type_symbol
 _atom_site_label
 _atom_site_symmetry_multiplicity
 _atom_site_fract_x
 _atom_site_fract_y
 _atom_site_fract_z
 _atom_site_occupancy
  Rb  Rb0  1  0.62500000  0.12500000  0.62500000  1
  Rb  Rb1  1  0.62500000  0.62500000  0.12500000  1
  Rb  Rb2  1  0.12500000  0.62500000  0.62500000  1
  Rb  Rb3  1  0.62500000  0.62500000  0.62500000  1
  Rb  Rb4  1  0.02675495  0.02675495  0.47324505  1
  Rb  Rb5  1  0.77675595  0.22324505  0.22324405  1
  Rb  Rb6  1  0.22324505  0.77675495  0.77675495  1
  Rb  Rb7  1  0.77675595  0.77675495  0.22324505  1
  Rb  Rb8  1  0.77675595  0.22324505  0.77675495  1
  Rb  Rb9  1  0.22324505  0.77675495  0.22324505  1
  Rb  Rb10  1  0.47324405  0.02675495  0.47324505  1
  Rb  Rb11  1  0.47324405  0.02675495  0.02675595  1
  Rb  Rb12  1  0.02675495  0.47324505  0.47324505  1
  Rb  Rb13  1  0.02675495  0.47324505  0.02675495  1
  Rb  Rb14  1  0.22324505  0.22324505  0.77675495  1
  Rb  Rb15  1  0.47324405  0.47324505  0.02675495  1
  Hf  Hf0  1  0.75000000  0.75000000  0.75000000  1
  Hf  Hf1  1  0.50000000  0.50000000  0.50000000  1
  Sb  Sb0  1  0.40224771  0.79325688  0.40224771  1
  Sb  Sb1  1  0.84775229  0.84775229  0.45674412  1
  Sb  Sb2  1  0.45674412  0.84775229  0.84775229  1
  Sb  Sb3  1  0.84775229  0.84775229  0.84775229  1
  Sb  Sb4  1  0.79325588  0.40224771  0.40224771  1
  Sb  Sb5  1  0.40224771  0.40224771  0.40224771  1
  Sb  Sb6  1  0.40224771  0.40224771  0.79325588  1
  Sb  Sb7  1  0.84775229  0.45674312  0.84775229  1
loop_
_geom_bond_atom_site_label_1
_geom_bond_atom_site_label_2
_geom_bond_distance
_geom_bond_site_symmetry_2
Rb0 Sb6 3.830868 1_555
Rb0 Sb1 3.830868 1_545
Rb0 Sb4 3.830868 1_555
Rb0 Sb2 3.830868 1_545
Rb0 Sb3 3.830876 1_545
Rb0 Sb5 3.830876 1_555
Rb1 Sb4 3.830870 1_555
Rb1 Sb2 3.830870 1_554
Rb1 Sb3 3.830877 1_554
Rb1 Sb5 3.830877 1_555
Rb1 Sb0 3.830878 1_555
Rb1 Sb7 3.830878 1_554
Rb2 Sb6 3.830869 1_555
Rb2 Sb1 3.830869 1_455
Rb2 Sb3 3.830876 1_455
Rb2 Sb5 3.830876 1_555
Rb2 Sb0 3.830877 1_555
Rb2 Sb7 3.830877 1_455
Rb3 Sb7 3.830878 1_555
Rb3 Sb0 3.830878 1_555
Rb3 Sb1 3.830879 1_555
Rb3 Sb6 3.830879 1_555
Rb3 Sb2 3.830879 1_555
Rb3 Sb4 3.830879 1_555
Rb4 Sb1 3.832726 1_445
Rb4 Sb3 3.832733 1_445
Rb4 Sb4 3.841950 1_455
Rb4 Sb0 3.841950 1_545
Rb5 Sb4 3.832729 1_555
Rb5 Sb5 3.832742 1_555
Rb5 Sb7 3.841943 1_554
Rb5 Sb1 3.841954 1_545
Rb6 Sb6 3.832731 1_555
Rb6 Sb0 3.832735 1_555
Rb6 Sb3 3.841952 1_455
Rb6 Sb2 3.841965 1_555
Rb7 Sb4 3.832735 1_555
Rb7 Sb0 3.832744 1_555
Rb7 Sb3 3.841957 1_554
Rb7 Sb1 3.841957 1_555
Rb8 Sb4 3.832740 1_555
Rb8 Sb6 3.832745 1_555
Rb8 Sb7 3.841943 1_555
Rb8 Sb3 3.841951 1_545
Rb9 Sb5 3.832728 1_555
Rb9 Sb0 3.832735 1_555
Rb9 Sb1 3.841955 1_455
Rb9 Sb2 3.841956 1_554
Rb10 Sb2 3.832740 1_545
Rb10 Sb1 3.832745 1_545
Rb10 Sb0 3.841943 1_545
Rb10 Sb5 3.841951 1_555
Rb11 Sb2 3.832729 1_544
Rb11 Sb3 3.832742 1_544
Rb11 Sb0 3.841943 1_545
Rb11 Sb6 3.841954 1_554
Rb12 Sb1 3.832731 1_455
Rb12 Sb7 3.832735 1_455
Rb12 Sb5 3.841952 1_555
Rb12 Sb4 3.841965 1_455
Rb13 Sb3 3.832728 1_454
Rb13 Sb7 3.832735 1_454
Rb13 Sb6 3.841955 1_554
Rb13 Sb4 3.841956 1_455
Rb14 Sb6 3.832726 1_555
Rb14 Sb5 3.832733 1_555
Rb14 Sb2 3.841950 1_545
Rb14 Sb7 3.841950 1_455
Rb15 Sb2 3.832735 1_554
Rb15 Sb7 3.832744 1_554
Rb15 Sb5 3.841957 1_555
Rb15 Sb6 3.841957 1_554
Hf0 Sb2 2.869189 1_555
Hf0 Sb1 2.869190 1_555
Hf0 Sb7 2.869195 1_555
Hf0 Sb3 2.869200 1_555
Hf0 Rb0 3.668962 1_565
Hf0 Rb2 3.668966 1_655
Hf0 Rb1 3.668968 1_556
Hf0 Rb3 3.668968 1_555
Hf1 Sb4 2.869189 1_555
Hf1 Sb6 2.869190 1_555
Hf1 Sb0 2.869195 1_555
Hf1 Sb5 2.869200 1_555
Hf1 Rb0 3.668962 1_555
Hf1 Rb2 3.668966 1_555
Hf1 Rb1 3.668968 1_555
Hf1 Rb3 3.668968 1_555
