# generated using pymatgen
data_Li2Zn5Tc
_symmetry_space_group_name_H-M   'P 1'
_cell_length_a   5.33200653
_cell_length_b   5.33200694
_cell_length_c   5.33621414
_cell_angle_alpha   59.97390112
_cell_angle_beta   59.97389858
_cell_angle_gamma   62.74063904
_symmetry_Int_Tables_number   1
_chemical_formula_structural   Li2Zn5Tc
_chemical_formula_sum   'Li2 Zn5 Tc1'
_cell_volume   109.27346987
_cell_formula_units_Z   1
loop_
 _symmetry_equiv_pos_site_id
 _symmetry_equiv_pos_as_xyz
  1  'x, y, z'
loop_
 _atom_site_type_symbol
 _atom_site_label
 _atom_site_symmetry_multiplicity
 _atom_site_fract_x
 _atom_site_fract_y
 _atom_site_fract_z
 _atom_site_occupancy
  Li  Li0  1  0.50000000  0.50000000  0.00000000  1
  Li  Li1  1  0.50000000  0.50000000  0.50000000  1
  Zn  Zn0  1  0.50000000  0.00000000  0.00000000  1
  Zn  Zn1  1  0.00000000  0.50000000  0.50000000  1
  Zn  Zn2  1  0.00000000  0.50000000  0.00000000  1
  Zn  Zn3  1  0.50000000  0.00000000  0.50000000  1
  Zn  Zn4  1  0.00000000  0.00000000  0.50000000  1
  Tc  Tc0  1  0.00000000  0.00000000  0.00000000  1
loop_
_geom_bond_atom_site_label_1
_geom_bond_atom_site_label_2
_geom_bond_distance
_geom_bond_site_symmetry_2
Li0 Zn2 2.666003 1_655
Li0 Zn2 2.666003 1_555
Li0 Zn0 2.666003 1_555
Li0 Zn0 2.666003 1_565
Li0 Zn1 2.666004 1_555
Li0 Zn1 2.666004 1_654
Li0 Zn3 2.666004 1_564
Li0 Zn3 2.666004 1_555
Li0 Li1 2.668107 1_554
Li0 Li1 2.668107 1_555
Li0 Tc0 2.775669 1_565
Li0 Tc0 2.775669 1_655
Li1 Zn1 2.666003 1_555
Li1 Zn1 2.666003 1_655
Li1 Zn3 2.666003 1_555
Li1 Zn3 2.666003 1_565
Li1 Zn2 2.666004 1_556
Li1 Zn2 2.666004 1_655
Li1 Zn0 2.666004 1_556
Li1 Zn0 2.666004 1_565
Li1 Zn4 2.775669 1_565
Li1 Zn4 2.775669 1_655
Zn0 Zn4 2.666004 1_654
Zn0 Zn4 2.666004 1_555
Zn0 Zn3 2.668107 1_555
Zn0 Zn3 2.668107 1_554
Zn0 Zn2 2.775669 1_645
Zn0 Zn2 2.775669 1_555
Zn1 Zn4 2.666003 1_565
Zn1 Zn4 2.666003 1_555
Zn1 Zn2 2.668107 1_556
Zn1 Zn2 2.668107 1_555
Zn1 Zn3 2.775669 1_465
Zn1 Zn3 2.775669 1_555
Zn2 Zn4 2.666004 1_555
Zn2 Zn4 2.666004 1_564
Zn3 Zn4 2.666003 1_555
Zn3 Zn4 2.666003 1_655
Tc0 Zn0 2.666003 1_455
Tc0 Zn0 2.666003 1_555
Tc0 Zn2 2.666003 1_545
Tc0 Zn2 2.666003 1_555
Tc0 Zn3 2.666004 1_455
Tc0 Zn3 2.666004 1_554
Tc0 Zn1 2.666004 1_545
Tc0 Zn1 2.666004 1_554
Tc0 Zn4 2.668107 1_555
Tc0 Zn4 2.668107 1_554
