# generated using pymatgen
data_Hf12Al4MoIr7
_symmetry_space_group_name_H-M   'P 1'
_cell_length_a   8.47149505
_cell_length_b   8.45715683
_cell_length_c   8.45715603
_cell_angle_alpha   59.99999931
_cell_angle_beta   60.05597181
_cell_angle_gamma   60.05597592
_symmetry_Int_Tables_number   1
_chemical_formula_structural   Hf12Al4MoIr7
_chemical_formula_sum   'Hf12 Al4 Mo1 Ir7'
_cell_volume   428.80585216
_cell_formula_units_Z   1
loop_
 _symmetry_equiv_pos_site_id
 _symmetry_equiv_pos_as_xyz
  1  'x, y, z'
loop_
 _atom_site_type_symbol
 _atom_site_label
 _atom_site_symmetry_multiplicity
 _atom_site_fract_x
 _atom_site_fract_y
 _atom_site_fract_z
 _atom_site_occupancy
  Hf  Hf0  1  0.80796995  0.80466535  0.19368235  1
  Hf  Hf1  1  0.19469307  0.19549972  0.80490360  1
  Hf  Hf2  1  0.80796995  0.19368235  0.80466535  1
  Hf  Hf3  1  0.19469307  0.80490360  0.19549972  1
  Hf  Hf4  1  0.19469307  0.80490360  0.80490360  1
  Hf  Hf5  1  0.80796995  0.19368235  0.19368235  1
  Hf  Hf6  1  0.44407911  0.44406326  0.05592882  1
  Hf  Hf7  1  0.04975942  0.06111641  0.44456209  1
  Hf  Hf8  1  0.44407911  0.05592882  0.44406326  1
  Hf  Hf9  1  0.04975942  0.44456209  0.06111641  1
  Hf  Hf10  1  0.04975942  0.44456209  0.44456209  1
  Hf  Hf11  1  0.44407911  0.05592882  0.05592882  1
  Al  Al0  1  0.13000040  0.62333353  0.62333353  1
  Al  Al1  1  0.62626323  0.11796683  0.62788497  1
  Al  Al2  1  0.62626323  0.62788497  0.11796683  1
  Al  Al3  1  0.62626323  0.62788497  0.62788497  1
  Mo  Mo0  1  0.74726747  0.41757751  0.41757751  1
  Ir  Ir0  1  0.41408893  0.76706787  0.40942110  1
  Ir  Ir1  1  0.41408893  0.40942110  0.76706787  1
  Ir  Ir2  1  0.41408893  0.40942110  0.40942110  1
  Ir  Ir3  1  0.48380765  0.83873145  0.83873145  1
  Ir  Ir4  1  0.84278878  0.48448881  0.83636220  1
  Ir  Ir5  1  0.84278878  0.83636220  0.48448881  1
  Ir  Ir6  1  0.84278878  0.83636220  0.83636220  1
loop_
_geom_bond_atom_site_label_1
_geom_bond_atom_site_label_2
_geom_bond_distance
_geom_bond_site_symmetry_2
Hf0 Ir6 2.769445 1_554
Hf0 Ir5 2.769462 1_555
Hf0 Ir0 2.994214 1_555
Hf0 Mo0 3.012724 1_555
Hf0 Hf10 3.101873 1_655
Hf0 Hf9 3.101873 1_655
Hf0 Hf8 3.153710 1_565
Hf0 Hf11 3.153710 1_565
Hf0 Hf4 3.284830 1_654
Hf0 Hf3 3.284830 1_655
Hf0 Hf2 3.289978 1_564
Hf0 Hf5 3.289978 1_565
Hf1 Ir4 2.741548 1_455
Hf1 Ir3 2.764641 1_545
Hf1 Ir1 3.002355 1_555
Hf1 Ir2 3.002359 1_555
Hf1 Hf8 3.137793 1_555
Hf1 Hf11 3.137793 1_556
Hf1 Hf10 3.156862 1_555
Hf1 Hf9 3.156862 1_556
Hf1 Hf5 3.284830 1_456
Hf1 Hf2 3.284830 1_455
Hf1 Hf3 3.303332 1_546
Hf1 Hf4 3.303333 1_545
Hf2 Ir6 2.769446 1_545
Hf2 Ir4 2.769462 1_555
Hf2 Ir1 2.994214 1_555
Hf2 Mo0 3.012724 1_555
Hf2 Hf7 3.101873 1_655
Hf2 Hf6 3.153710 1_556
Hf2 Hf4 3.284831 1_645
Hf2 Hf5 3.289977 1_556
Hf3 Ir5 2.741547 1_455
Hf3 Ir3 2.764641 1_554
Hf3 Ir0 3.002355 1_555
Hf3 Ir2 3.002359 1_555
Hf3 Hf6 3.137793 1_555
Hf3 Hf7 3.156862 1_565
Hf3 Hf5 3.284831 1_465
Hf3 Hf4 3.303332 1_554
Hf4 Ir6 2.741541 1_455
Hf4 Ir3 2.764651 1_555
Hf4 Ir0 3.002362 1_555
Hf4 Ir1 3.002362 1_555
Hf4 Hf8 3.137793 1_565
Hf4 Hf6 3.137793 1_556
Hf4 Hf7 3.156862 1_565
Hf4 Hf9 3.156862 1_556
Hf5 Ir4 2.769452 1_554
Hf5 Ir5 2.769452 1_545
Hf5 Ir2 2.994211 1_555
Hf5 Mo0 3.012724 1_555
Hf5 Hf7 3.101873 1_655
Hf5 Hf9 3.101873 1_655
Hf5 Hf8 3.153710 1_555
Hf5 Hf6 3.153710 1_555
Hf6 Ir2 2.743708 1_555
Hf6 Ir1 2.743717 1_554
Hf6 Ir3 3.000219 1_554
Hf6 Ir4 3.038124 1_554
Hf6 Hf8 3.282514 1_555
Hf6 Hf9 3.316706 1_555
Hf7 Mo0 2.809020 1_455
Hf7 Ir0 2.821265 1_545
Hf7 Ir5 2.982524 1_445
Hf7 Ir6 2.982532 1_445
Hf7 Hf9 3.242860 1_555
Hf7 Hf8 3.316706 1_555
Hf8 Ir2 2.743709 1_555
Hf8 Ir0 2.743717 1_545
Hf8 Ir3 3.000219 1_545
Hf8 Ir5 3.038124 1_545
Hf9 Mo0 2.809019 1_455
Hf9 Ir1 2.821265 1_554
Hf9 Ir4 2.982524 1_454
Hf9 Ir6 2.982532 1_454
Hf10 Mo0 2.809019 1_455
Hf10 Ir2 2.821261 1_555
Hf10 Ir4 2.982538 1_455
Hf10 Ir5 2.982539 1_455
Hf10 Hf2 3.101873 1_455
Hf10 Hf3 3.156862 1_555
Hf10 Hf9 3.242860 1_555
Hf10 Hf7 3.242860 1_555
Hf10 Hf6 3.316706 1_555
Hf10 Hf8 3.316707 1_555
Hf11 Ir0 2.743712 1_545
Hf11 Ir1 2.743712 1_554
Hf11 Ir3 3.000204 1_544
Hf11 Ir6 3.038118 1_544
Hf11 Hf3 3.137793 1_545
Hf11 Hf2 3.153710 1_554
Hf11 Hf8 3.282514 1_555
Hf11 Hf6 3.282514 1_555
Hf11 Hf7 3.316706 1_555
Hf11 Hf9 3.316707 1_555
Al0 Ir4 2.627783 1_455
Al0 Ir5 2.627783 1_455
Al0 Ir6 2.627788 1_455
Al0 Ir0 2.630093 1_555
Al0 Ir1 2.630093 1_555
Al0 Ir2 2.630103 1_555
Al0 Hf4 3.009072 1_555
Al0 Hf3 3.009079 1_555
Al0 Hf1 3.009079 1_555
Al0 Hf9 3.061293 1_556
Al0 Hf7 3.061294 1_565
Al0 Hf10 3.061301 1_555
Al1 Ir3 2.588190 1_545
Al1 Ir5 2.610284 1_545
Al1 Ir6 2.610294 1_545
Al1 Mo0 2.626941 1_555
Al1 Ir1 2.656725 1_555
Al1 Ir2 2.656730 1_555
Al1 Hf7 2.996107 1_655
Al1 Hf11 3.015525 1_556
Al1 Hf8 3.015525 1_555
Al1 Hf1 3.026903 1_555
Al1 Hf5 3.041976 1_555
Al1 Hf2 3.041976 1_555
Al2 Ir3 2.588189 1_554
Al2 Ir4 2.610284 1_554
Al2 Ir6 2.610293 1_554
Al2 Mo0 2.626940 1_555
Al2 Ir0 2.656725 1_555
Al2 Ir2 2.656730 1_555
Al2 Hf9 2.996107 1_655
Al2 Hf6 3.015525 1_555
Al2 Hf11 3.015525 1_565
Al2 Hf3 3.026903 1_555
Al2 Hf0 3.041976 1_555
Al2 Hf5 3.041977 1_555
Al3 Ir3 2.588203 1_555
Al3 Ir4 2.610297 1_555
Al3 Ir5 2.610297 1_555
Al3 Mo0 2.626941 1_555
Al3 Ir0 2.656732 1_555
Al3 Ir1 2.656732 1_555
Al3 Hf10 2.996107 1_655
Al3 Hf6 3.015525 1_556
Al3 Hf8 3.015525 1_565
Al3 Hf4 3.026903 1_555
Al3 Hf0 3.041976 1_555
Al3 Hf2 3.041977 1_555
Ir0 Mo0 2.893027 1_555
Ir0 Ir1 3.024675 1_555
Ir0 Ir2 3.024675 1_555
Ir1 Mo0 2.893027 1_555
Ir1 Ir2 3.024675 1_555
Ir2 Mo0 2.893032 1_555
Ir3 Ir5 3.021237 1_555
Ir3 Ir6 3.021237 1_555
Ir3 Ir4 3.021237 1_555
Ir4 Ir5 2.975848 1_555
Ir4 Ir6 2.975848 1_555
Ir5 Ir6 2.975848 1_555
