# generated using pymatgen
data_Zn2Ga3RhO8
_symmetry_space_group_name_H-M   'P 1'
_cell_length_a   5.96293892
_cell_length_b   5.90182807
_cell_length_c   5.90182869
_cell_angle_alpha   60.00000723
_cell_angle_beta   60.33844790
_cell_angle_gamma   60.33844820
_symmetry_Int_Tables_number   1
_chemical_formula_structural   Zn2Ga3RhO8
_chemical_formula_sum   'Zn2 Ga3 Rh1 O8'
_cell_volume   147.61190821
_cell_formula_units_Z   1
loop_
 _symmetry_equiv_pos_site_id
 _symmetry_equiv_pos_as_xyz
  1  'x, y, z'
loop_
 _atom_site_type_symbol
 _atom_site_label
 _atom_site_symmetry_multiplicity
 _atom_site_fract_x
 _atom_site_fract_y
 _atom_site_fract_z
 _atom_site_occupancy
  Zn  Zn0  1  0.50557171  0.49814243  0.49814243  1
  Zn  Zn1  1  0.74442829  0.75185757  0.75185757  1
  Ga  Ga0  1  0.12500000  0.12500000  0.12500000  1
  Ga  Ga1  1  0.12500000  0.62500000  0.12500000  1
  Ga  Ga2  1  0.12500000  0.12500000  0.62500000  1
  Rh  Rh0  1  0.62500000  0.12500000  0.12500000  1
  O  O0  1  0.35523658  0.36789877  0.36789877  1
  O  O1  1  0.34169118  0.88610294  0.88610294  1
  O  O2  1  0.89476342  0.88210123  0.34103413  1
  O  O3  1  0.89476342  0.34103413  0.88210123  1
  O  O4  1  0.35523658  0.36789877  0.90896587  1
  O  O5  1  0.35523658  0.90896587  0.36789877  1
  O  O6  1  0.89476342  0.88210123  0.88210123  1
  O  O7  1  0.90830882  0.36389706  0.36389706  1
loop_
_geom_bond_atom_site_label_1
_geom_bond_atom_site_label_2
_geom_bond_distance
_geom_bond_site_symmetry_2
Ga0 O4 1.988257 1_554
Ga0 O2 1.988257 1_445
Ga0 O5 1.988257 1_545
Ga0 O3 1.988257 1_454
Ga0 O7 2.006744 1_455
Ga0 O1 2.006744 1_544
Ga1 O2 1.988257 1_455
Ga1 O4 1.988257 1_554
Ga1 O0 1.988257 1_555
Ga1 O6 1.988257 1_454
Ga1 O1 2.006744 1_554
Ga1 O7 2.006744 1_455
Ga2 O0 1.988257 1_555
Ga2 O6 1.988257 1_445
Ga2 O3 1.988257 1_455
Ga2 O5 1.988257 1_545
Ga2 O1 2.006745 1_545
Ga2 O7 2.006745 1_455
O0 Zn0 1.984996 1_555
O0 Rh0 2.046464 1_555
O1 Zn1 1.970785 1_555
O2 Zn1 1.985001 1_555
O2 Rh0 2.046464 1_565
O3 Zn1 1.985001 1_555
O3 Rh0 2.046464 1_556
O4 Zn0 1.985001 1_555
O4 Rh0 2.046464 1_556
O5 Zn0 1.985001 1_555
O5 Rh0 2.046464 1_565
O6 Zn1 1.984996 1_555
O6 Rh0 2.046464 1_566
O7 Zn0 1.970785 1_555
