# generated using pymatgen
data_Hf(NbSe2)4
_symmetry_space_group_name_H-M   'P 1'
_cell_length_a   7.01833916
_cell_length_b   7.01833905
_cell_length_c   13.25160147
_cell_angle_alpha   90.00000000
_cell_angle_beta   90.00000000
_cell_angle_gamma   119.99999577
_symmetry_Int_Tables_number   1
_chemical_formula_structural   Hf(NbSe2)4
_chemical_formula_sum   'Hf2 Nb8 Se16'
_cell_volume   565.28532718
_cell_formula_units_Z   2
loop_
 _symmetry_equiv_pos_site_id
 _symmetry_equiv_pos_as_xyz
  1  'x, y, z'
loop_
 _atom_site_type_symbol
 _atom_site_label
 _atom_site_symmetry_multiplicity
 _atom_site_fract_x
 _atom_site_fract_y
 _atom_site_fract_z
 _atom_site_occupancy
  Hf  Hf0  1  0.00000000  0.00000000  0.50000000  1
  Hf  Hf1  1  0.00000000  0.00000000  0.00000000  1
  Nb  Nb0  1  0.00000000  0.00000000  0.25000000  1
  Nb  Nb1  1  0.00000000  0.00000000  0.75000000  1
  Nb  Nb2  1  0.50730979  0.01461858  0.25000000  1
  Nb  Nb3  1  0.98538142  0.49269021  0.25000000  1
  Nb  Nb4  1  0.50730979  0.49269021  0.25000000  1
  Nb  Nb5  1  0.49269021  0.98538142  0.75000000  1
  Nb  Nb6  1  0.01461858  0.50730979  0.75000000  1
  Nb  Nb7  1  0.49269021  0.50730979  0.75000000  1
  Se  Se0  1  0.33333300  0.66666700  0.87909513  1
  Se  Se1  1  0.66666700  0.33333300  0.12090487  1
  Se  Se2  1  0.66666700  0.33333300  0.37909513  1
  Se  Se3  1  0.33333300  0.66666700  0.62090487  1
  Se  Se4  1  0.16909869  0.83090131  0.37568073  1
  Se  Se5  1  0.16909869  0.33819638  0.37568073  1
  Se  Se6  1  0.66180362  0.83090131  0.37568073  1
  Se  Se7  1  0.83090131  0.16909869  0.62431927  1
  Se  Se8  1  0.83090131  0.66180362  0.62431927  1
  Se  Se9  1  0.33819638  0.16909869  0.62431927  1
  Se  Se10  1  0.83090131  0.16909869  0.87568073  1
  Se  Se11  1  0.83090131  0.66180362  0.87568073  1
  Se  Se12  1  0.33819638  0.16909869  0.87568073  1
  Se  Se13  1  0.16909869  0.83090131  0.12431927  1
  Se  Se14  1  0.16909869  0.33819638  0.12431927  1
  Se  Se15  1  0.66180362  0.83090131  0.12431927  1
loop_
_geom_bond_atom_site_label_1
_geom_bond_atom_site_label_2
_geom_bond_distance
_geom_bond_site_symmetry_2
Hf0 Se8 2.634279 1_445
Hf0 Se5 2.634279 1_555
Hf0 Se9 2.634279 1_555
Hf0 Se6 2.634279 1_445
Hf0 Se7 2.634283 1_455
Hf0 Se4 2.634283 1_545
Hf1 Se11 2.634279 1_444
Hf1 Se14 2.634279 1_555
Hf1 Se12 2.634279 1_554
Hf1 Se15 2.634279 1_445
Hf1 Se10 2.634283 1_454
Hf1 Se13 2.634283 1_545
Nb0 Se14 2.645599 1_555
Nb0 Se5 2.645599 1_555
Nb0 Se15 2.645599 1_445
Nb0 Se6 2.645599 1_445
Nb0 Se13 2.645604 1_545
Nb0 Se4 2.645604 1_545
Nb1 Se11 2.645599 1_445
Nb1 Se8 2.645599 1_445
Nb1 Se12 2.645599 1_555
Nb1 Se9 2.645599 1_555
Nb1 Se10 2.645604 1_455
Nb1 Se7 2.645604 1_455
Nb2 Se2 2.584408 1_555
Nb2 Se1 2.584408 1_555
Nb2 Se15 2.647655 1_545
Nb2 Se6 2.647655 1_545
Nb2 Se13 2.647655 1_545
Nb2 Se4 2.647655 1_545
Nb3 Se2 2.584408 1_555
Nb3 Se1 2.584408 1_555
Nb3 Se14 2.647655 1_655
Nb3 Se5 2.647655 1_655
Nb3 Se13 2.647655 1_655
Nb3 Se4 2.647655 1_655
Nb4 Se2 2.584408 1_555
Nb4 Se1 2.584408 1_555
Nb4 Se15 2.647655 1_555
Nb4 Se6 2.647655 1_555
Nb4 Se14 2.647655 1_555
Nb4 Se5 2.647655 1_555
Nb5 Se0 2.584408 1_555
Nb5 Se3 2.584408 1_555
Nb5 Se12 2.647655 1_565
Nb5 Se9 2.647655 1_565
Nb5 Se10 2.647655 1_565
Nb5 Se7 2.647655 1_565
Nb6 Se0 2.584408 1_555
Nb6 Se3 2.584408 1_555
Nb6 Se11 2.647655 1_455
Nb6 Se8 2.647655 1_455
Nb6 Se10 2.647655 1_455
Nb6 Se7 2.647655 1_455
Nb7 Se0 2.584408 1_555
Nb7 Se3 2.584408 1_555
Nb7 Se12 2.647655 1_555
Nb7 Se9 2.647655 1_555
Nb7 Se11 2.647655 1_555
Nb7 Se8 2.647655 1_555
