# generated using pymatgen
data_K2CrP2Se7
_symmetry_space_group_name_H-M   'P 1'
_cell_length_a   9.26068781
_cell_length_b   9.26068775
_cell_length_c   8.92436009
_cell_angle_alpha   75.30161049
_cell_angle_beta   75.30161160
_cell_angle_gamma   71.31976075
_symmetry_Int_Tables_number   1
_chemical_formula_structural   K2CrP2Se7
_chemical_formula_sum   'K4 Cr2 P4 Se14'
_cell_volume   688.77703366
_cell_formula_units_Z   2
loop_
 _symmetry_equiv_pos_site_id
 _symmetry_equiv_pos_as_xyz
  1  'x, y, z'
loop_
 _atom_site_type_symbol
 _atom_site_label
 _atom_site_symmetry_multiplicity
 _atom_site_fract_x
 _atom_site_fract_y
 _atom_site_fract_z
 _atom_site_occupancy
  K  K0  1  0.60249782  0.05807201  0.16408674  1
  K  K1  1  0.94192799  0.39750218  0.83591326  1
  K  K2  1  0.39750218  0.94192799  0.83591326  1
  K  K3  1  0.05807201  0.60249782  0.16408674  1
  Cr  Cr0  1  0.67666408  0.32333592  0.50000000  1
  Cr  Cr1  1  0.32333592  0.67666408  0.50000000  1
  P  P0  1  0.94410147  0.94410147  0.43970291  1
  P  P1  1  0.05589853  0.05589853  0.56029709  1
  P  P2  1  0.39115383  0.39115383  0.80979507  1
  P  P3  1  0.60884617  0.60884617  0.19020493  1
  Se  Se0  1  0.70638572  0.35694042  0.20306983  1
  Se  Se1  1  0.64305958  0.29361428  0.79693017  1
  Se  Se2  1  0.29361428  0.64305958  0.79693017  1
  Se  Se3  1  0.35694042  0.70638572  0.20306983  1
  Se  Se4  1  0.00089651  0.00089651  0.18748786  1
  Se  Se5  1  0.99910349  0.99910349  0.81251214  1
  Se  Se6  1  0.69429867  0.03477703  0.53212799  1
  Se  Se7  1  0.96522297  0.30570133  0.46787201  1
  Se  Se8  1  0.30570133  0.96522297  0.46787201  1
  Se  Se9  1  0.03477703  0.69429867  0.53212799  1
  Se  Se10  1  0.26262776  0.26262776  0.00377340  1
  Se  Se11  1  0.73737224  0.73737224  0.99622660  1
  Se  Se12  1  0.37567201  0.37567201  0.56241610  1
  Se  Se13  1  0.62432799  0.62432799  0.43758390  1
loop_
_geom_bond_atom_site_label_1
_geom_bond_atom_site_label_2
_geom_bond_distance
_geom_bond_site_symmetry_2
K0 Se0 3.327326 1_555
K0 Se11 3.399489 1_544
K0 Se1 3.450906 1_554
K0 Se8 3.491900 1_545
K0 Se6 3.535162 1_555
K0 Se10 3.554180 1_555
K0 Se4 3.608255 1_655
K1 Se1 3.327326 1_555
K1 Se10 3.399489 1_656
K1 Se0 3.450906 1_556
K1 Se9 3.491900 1_655
K1 Se7 3.535162 1_555
K1 Se11 3.554180 1_555
K1 Se5 3.608255 1_545
K2 Se2 3.327326 1_555
K2 Se10 3.399489 1_566
K2 Se3 3.450906 1_556
K2 Se6 3.491900 1_565
K2 Se8 3.535162 1_555
K2 Se11 3.554180 1_555
K2 Se5 3.608255 1_455
K3 Se3 3.327326 1_555
K3 Se11 3.399489 1_454
K3 Se2 3.450906 1_554
K3 Se7 3.491900 1_455
K3 Se9 3.535162 1_555
K3 Se10 3.554180 1_555
K3 Se4 3.608255 1_565
Cr0 Se0 2.541830 1_555
Cr0 Se1 2.541830 1_555
Cr0 Se6 2.570062 1_555
Cr0 Se7 2.570062 1_555
Cr0 Se13 2.607383 1_555
Cr0 Se12 2.607383 1_555
Cr1 Se2 2.541830 1_555
Cr1 Se3 2.541830 1_555
Cr1 Se8 2.570062 1_555
Cr1 Se9 2.570062 1_555
Cr1 Se12 2.607383 1_555
Cr1 Se13 2.607383 1_555
P0 Se4 2.143666 1_665
P0 Se9 2.208139 1_655
P0 Se6 2.208139 1_565
P0 P1 2.262633 1_665
P1 Se5 2.143666 1_445
P1 Se7 2.208139 1_455
P1 Se8 2.208139 1_545
P2 Se10 2.155558 1_556
P2 Se2 2.199557 1_555
P2 Se1 2.199557 1_555
P2 Se12 2.291170 1_555
P3 Se11 2.155558 1_554
P3 Se0 2.199557 1_555
P3 Se3 2.199557 1_555
P3 Se13 2.291170 1_555
