# generated using pymatgen
data_PIBr6
_symmetry_space_group_name_H-M   'P 1'
_cell_length_a   10.43786743
_cell_length_b   10.43786743
_cell_length_c   5.94702924
_cell_angle_alpha   90.00000000
_cell_angle_beta   90.00000000
_cell_angle_gamma   90.00000000
_symmetry_Int_Tables_number   1
_chemical_formula_structural   PIBr6
_chemical_formula_sum   'P2 I2 Br12'
_cell_volume   647.92334329
_cell_formula_units_Z   2
loop_
 _symmetry_equiv_pos_site_id
 _symmetry_equiv_pos_as_xyz
  1  'x, y, z'
loop_
 _atom_site_type_symbol
 _atom_site_label
 _atom_site_symmetry_multiplicity
 _atom_site_fract_x
 _atom_site_fract_y
 _atom_site_fract_z
 _atom_site_occupancy
  P  P0  1  0.00000000  0.00000000  0.50000000  1
  P  P1  1  0.50000000  0.50000000  0.50000000  1
  I  I0  1  0.00000000  0.50000000  0.12058413  1
  I  I1  1  0.50000000  0.00000000  0.87941587  1
  Br  Br0  1  0.31554361  0.81554361  0.87726994  1
  Br  Br1  1  0.08269883  0.14349216  0.71927108  1
  Br  Br2  1  0.18445639  0.31554361  0.12273006  1
  Br  Br3  1  0.68445639  0.18445639  0.87726994  1
  Br  Br4  1  0.35650784  0.41730117  0.71927108  1
  Br  Br5  1  0.81554361  0.68445639  0.12273006  1
  Br  Br6  1  0.58269883  0.35650784  0.28072892  1
  Br  Br7  1  0.14349216  0.91730117  0.28072892  1
  Br  Br8  1  0.41730117  0.64349216  0.28072892  1
  Br  Br9  1  0.64349216  0.58269883  0.71927108  1
  Br  Br10  1  0.85650784  0.08269883  0.28072892  1
  Br  Br11  1  0.91730117  0.85650784  0.71927108  1
loop_
_geom_bond_atom_site_label_1
_geom_bond_atom_site_label_2
_geom_bond_distance
_geom_bond_site_symmetry_2
Br0 I1 2.722860 1_565
Br1 P0 2.165369 1_555
Br2 I0 2.722860 1_555
Br3 I1 2.722860 1_555
Br4 P1 2.165369 1_555
Br5 I0 2.722860 1_655
Br6 P1 2.165369 1_555
Br7 P0 2.165369 1_565
Br8 P1 2.165369 1_555
Br9 P1 2.165369 1_555
Br10 P0 2.165369 1_655
Br11 P0 2.165369 1_665
