# generated using pymatgen
data_Na4InSbO6
_symmetry_space_group_name_H-M   'P 1'
_cell_length_a   5.55678242
_cell_length_b   5.55678196
_cell_length_c   5.72220433
_cell_angle_alpha   99.57168208
_cell_angle_beta   99.57167395
_cell_angle_gamma   119.85146210
_symmetry_Int_Tables_number   1
_chemical_formula_structural   Na4InSbO6
_chemical_formula_sum   'Na4 In1 Sb1 O6'
_cell_volume   144.56350371
_cell_formula_units_Z   1
loop_
 _symmetry_equiv_pos_site_id
 _symmetry_equiv_pos_as_xyz
  1  'x, y, z'
loop_
 _atom_site_type_symbol
 _atom_site_label
 _atom_site_symmetry_multiplicity
 _atom_site_fract_x
 _atom_site_fract_y
 _atom_site_fract_z
 _atom_site_occupancy
  Na  Na0  1  0.49990002  0.50009798  0.00000000  1
  Na  Na1  1  0.00069553  0.99930347  0.49999800  1
  Na  Na2  1  0.65898999  0.34100701  0.50000000  1
  Na  Na3  1  0.34150778  0.65848922  0.50000000  1
  In  In0  1  0.83254047  0.16745753  0.00000000  1
  Sb  Sb0  1  0.16724357  0.83275443  0.00000000  1
  O  O0  1  0.95086833  0.59680355  0.21060477  1
  O  O1  1  0.54838760  0.92658767  0.21486480  1
  O  O2  1  0.21735244  0.19409851  0.21380541  1
  O  O3  1  0.80590249  0.78264756  0.78619559  1
  O  O4  1  0.07341333  0.45161240  0.78513520  1
  O  O5  1  0.40319645  0.04913267  0.78939623  1
loop_
_geom_bond_atom_site_label_1
_geom_bond_atom_site_label_2
_geom_bond_distance
_geom_bond_site_symmetry_2
Na0 O5 2.336766 1_554
Na0 O0 2.336778 1_555
Na0 O4 2.342187 1_554
Na0 O1 2.342196 1_555
Na0 O2 2.350765 1_555
Na0 O3 2.350773 1_554
Na1 O2 2.291479 1_565
Na1 O3 2.291498 1_455
Na1 O0 2.412591 1_455
Na1 O5 2.412605 1_565
Na1 O1 2.558983 1_455
Na1 O4 2.558992 1_565
Na2 O1 2.313209 1_545
Na2 O4 2.313220 1_655
Na2 O2 2.365452 1_555
Na2 O3 2.365460 1_555
Na2 O5 2.602720 1_555
Na2 O0 2.602731 1_555
Na3 O0 2.333831 1_455
Na3 O5 2.333842 1_565
Na3 O4 2.435204 1_555
Na3 O1 2.435219 1_555
Na3 O2 2.502702 1_555
Na3 O3 2.502716 1_555
In0 O5 2.189804 1_554
In0 O0 2.189810 1_555
In0 O3 2.201300 1_544
In0 O2 2.201303 1_655
In0 O1 2.210274 1_545
In0 O4 2.210285 1_654
O0 Sb0 2.013709 1_655
O1 Sb0 2.022534 1_555
O2 Sb0 2.029583 1_545
O3 Sb0 2.029573 1_656
O4 Sb0 2.022531 1_556
O5 Sb0 2.013715 1_546
