# generated using pymatgen
data_Sr4CrH12Au
_symmetry_space_group_name_H-M   'P 1'
_cell_length_a   7.40763625
_cell_length_b   7.40763620
_cell_length_c   5.72402062
_cell_angle_alpha   89.99697429
_cell_angle_beta   89.99696471
_cell_angle_gamma   134.56479183
_symmetry_Int_Tables_number   1
_chemical_formula_structural   Sr4CrH12Au
_chemical_formula_sum   'Sr4 Cr1 H12 Au1'
_cell_volume   223.77902176
_cell_formula_units_Z   1
loop_
 _symmetry_equiv_pos_site_id
 _symmetry_equiv_pos_as_xyz
  1  'x, y, z'
loop_
 _atom_site_type_symbol
 _atom_site_label
 _atom_site_symmetry_multiplicity
 _atom_site_fract_x
 _atom_site_fract_y
 _atom_site_fract_z
 _atom_site_occupancy
  Sr  Sr0  1  0.64679738  0.35320262  0.00000000  1
  Sr  Sr1  1  0.35320262  0.64679738  1.00000000  1
  Sr  Sr2  1  0.84955902  0.15044098  0.50000000  1
  Sr  Sr3  1  0.15044098  0.84955902  0.50000000  1
  Cr  Cr0  1  0.50000000  0.50000000  0.50000000  1
  H  H0  1  0.87794273  0.12205727  1.00000000  1
  H  H1  1  0.12205727  0.87794273  0.00000000  1
  H  H2  1  0.62577446  0.37422554  0.50000000  1
  H  H3  1  0.37422554  0.62577446  0.50000000  1
  H  H4  1  0.00017743  0.50015045  0.24433237  1
  H  H5  1  0.99982257  0.49984955  0.75566763  1
  H  H6  1  0.49984955  0.99982257  0.75566763  1
  H  H7  1  0.50015045  0.00017743  0.24433237  1
  H  H8  1  0.28287034  0.28287034  0.29004434  1
  H  H9  1  0.71712966  0.71712966  0.70995566  1
  H  H10  1  0.29069112  0.29069112  0.71776076  1
  H  H11  1  0.70930888  0.70930888  0.28223924  1
  Au  Au0  1  0.00000000  0.00000000  0.00000000  1
loop_
_geom_bond_atom_site_label_1
_geom_bond_atom_site_label_2
_geom_bond_distance
_geom_bond_site_symmetry_2
Cr0 H3 1.718821 1_555
Cr0 H2 1.718821 1_555
Cr0 H10 1.728417 1_555
Cr0 H11 1.728417 1_555
Cr0 H9 1.728594 1_555
Cr0 H8 1.728594 1_555
H0 Sr1 2.880661 1_655
H0 Sr1 2.880661 1_545
H1 Sr0 2.880661 1_455
H1 Sr0 2.880661 1_565
H2 Sr0 2.876394 1_555
H2 Sr0 2.876394 1_556
H3 Sr1 2.876394 1_555
H3 Sr1 2.876394 1_554
H4 Sr1 2.446898 1_554
H4 Sr0 2.448430 1_455
H4 Sr3 2.457066 1_555
H4 Sr2 2.457721 1_455
H5 Sr0 2.446898 1_556
H5 Sr1 2.448430 1_655
H5 Sr2 2.457066 1_555
H5 Sr3 2.457721 1_655
H6 Sr1 2.446898 1_555
H6 Sr0 2.448430 1_566
H6 Sr3 2.457067 1_555
H6 Sr2 2.457721 1_565
H7 Sr0 2.446898 1_555
H7 Sr1 2.448430 1_544
H7 Sr2 2.457067 1_555
H7 Sr3 2.457721 1_545
H8 Sr0 2.885065 1_555
H8 Sr1 2.885065 1_554
H9 Sr1 2.885065 1_555
H9 Sr0 2.885065 1_556
H10 Sr1 2.840629 1_555
H10 Sr0 2.840629 1_556
H11 Sr0 2.840629 1_555
H11 Sr1 2.840629 1_554
Au0 H0 1.668022 1_454
Au0 H1 1.668022 1_545
