# generated using pymatgen
data_Y4Sn3Ge3Rh7
_symmetry_space_group_name_H-M   'P 1'
_cell_length_a   7.38874220
_cell_length_b   7.38874373
_cell_length_c   7.44469187
_cell_angle_alpha   109.62467927
_cell_angle_beta   109.62468350
_cell_angle_gamma   109.31732238
_symmetry_Int_Tables_number   1
_chemical_formula_structural   Y4Sn3Ge3Rh7
_chemical_formula_sum   'Y4 Sn3 Ge3 Rh7'
_cell_volume   312.27696166
_cell_formula_units_Z   1
loop_
 _symmetry_equiv_pos_site_id
 _symmetry_equiv_pos_as_xyz
  1  'x, y, z'
loop_
 _atom_site_type_symbol
 _atom_site_label
 _atom_site_symmetry_multiplicity
 _atom_site_fract_x
 _atom_site_fract_y
 _atom_site_fract_z
 _atom_site_occupancy
  Y  Y0  1  1.00000000  1.00000000  0.55269136  1
  Y  Y1  1  0.00000000  0.47605986  0.98811007  1
  Y  Y2  1  0.47605986  1.00000000  0.98811007  1
  Y  Y3  1  0.52394014  0.52394014  0.51204921  1
  Sn  Sn0  1  0.70471135  0.70471135  0.01667829  1
  Sn  Sn1  1  0.29528865  0.00000000  0.31196694  1
  Sn  Sn2  1  1.00000000  0.29528865  0.31196694  1
  Ge  Ge0  1  0.34338956  0.34338956  0.01101516  1
  Ge  Ge1  1  0.65661044  1.00000000  0.66762459  1
  Ge  Ge2  1  0.00000000  0.65661044  0.66762459  1
  Rh  Rh0  1  0.74419281  0.24524264  0.49826980  1
  Rh  Rh1  1  0.75475736  0.49895017  0.25302816  1
  Rh  Rh2  1  0.50104983  0.25580719  0.75407699  1
  Rh  Rh3  1  0.25580719  0.50104983  0.75407699  1
  Rh  Rh4  1  0.24524264  0.74419281  0.49826980  1
  Rh  Rh5  1  0.49895017  0.75475736  0.25302816  1
  Rh  Rh6  1  1.00000000  1.00000000  0.96141186  1
loop_
_geom_bond_atom_site_label_1
_geom_bond_atom_site_label_2
_geom_bond_distance
_geom_bond_site_symmetry_2
Sn0 Y3 3.124131 1_554
Sn0 Y1 3.188856 1_654
Sn0 Y2 3.188856 1_554
Sn0 Y0 3.255525 1_555
Sn1 Y2 3.124124 1_544
Sn1 Y1 3.188856 1_544
Sn1 Y3 3.188857 1_555
Sn1 Y0 3.255525 1_445
Sn2 Y1 3.124124 1_654
Sn2 Y2 3.188856 1_544
Sn2 Y3 3.188856 1_655
Sn2 Y0 3.255525 1_545
Ge0 Rh1 2.534736 1_555
Ge0 Rh5 2.534737 1_555
Ge0 Rh2 2.568797 1_554
Ge0 Rh3 2.568798 1_554
Ge0 Rh6 2.737437 1_444
Ge0 Y0 2.937326 1_444
Ge0 Y1 2.982387 1_554
Ge0 Y2 2.982387 1_544
Ge0 Y3 3.100030 1_555
Ge1 Rh4 2.534736 1_555
Ge1 Rh2 2.534736 1_565
Ge1 Rh5 2.568786 1_555
Ge1 Rh0 2.568792 1_565
Ge1 Rh6 2.737441 1_555
Ge1 Y0 2.937321 1_555
Ge1 Y3 2.982388 1_555
Ge1 Y1 2.982388 1_665
Ge1 Y2 3.100043 1_555
Ge2 Rh3 2.534736 1_555
Ge2 Rh0 2.534736 1_455
Ge2 Rh1 2.568786 1_455
Ge2 Rh4 2.568791 1_555
Ge2 Rh6 2.737441 1_455
Ge2 Y0 2.937321 1_455
Ge2 Y3 2.982387 1_455
Ge2 Y2 2.982388 1_555
Ge2 Y1 3.100043 1_555
Rh0 Sn2 2.697381 1_555
Rh0 Sn1 2.730183 1_555
Rh0 Y1 2.973114 1_655
Rh0 Y3 3.014415 1_555
Rh0 Y0 3.043805 1_545
Rh0 Y2 3.095317 1_544
Rh1 Sn0 2.697388 1_555
Rh1 Sn2 2.730183 1_555
Rh1 Y3 2.973102 1_555
Rh1 Y2 3.014415 1_544
Rh1 Y0 3.043805 1_555
Rh1 Y1 3.095323 1_654
Rh2 Sn1 2.697382 1_555
Rh2 Sn0 2.730184 1_556
Rh2 Y2 2.973114 1_545
Rh2 Y1 3.014415 1_655
Rh2 Y0 3.043805 1_445
Rh2 Y3 3.095323 1_555
Rh3 Sn2 2.697382 1_455
Rh3 Sn0 2.730183 1_556
Rh3 Y1 2.973114 1_555
Rh3 Y2 3.014415 1_555
Rh3 Y0 3.043806 1_445
Rh3 Y3 3.095323 1_555
Rh4 Sn1 2.697382 1_565
Rh4 Sn2 2.730184 1_455
Rh4 Y2 2.973114 1_555
Rh4 Y3 3.014415 1_555
Rh4 Y0 3.043805 1_455
Rh4 Y1 3.095317 1_554
Rh5 Sn0 2.697387 1_555
Rh5 Sn1 2.730183 1_565
Rh5 Y3 2.973102 1_555
Rh5 Y1 3.014415 1_554
Rh5 Y0 3.043804 1_555
Rh5 Y2 3.095323 1_554
Rh6 Sn1 2.783246 1_666
Rh6 Sn0 2.783246 1_556
Rh6 Sn2 2.783246 1_566
Rh6 Y0 3.042798 1_555
