# generated using pymatgen
data_Ti9NbSn6P
_symmetry_space_group_name_H-M   'P 1'
_cell_length_a   8.11597684
_cell_length_b   8.11597715
_cell_length_c   5.50112508
_cell_angle_alpha   90.00000000
_cell_angle_beta   90.00000000
_cell_angle_gamma   120.00000277
_symmetry_Int_Tables_number   1
_chemical_formula_structural   Ti9NbSn6P
_chemical_formula_sum   'Ti9 Nb1 Sn6 P1'
_cell_volume   313.80781480
_cell_formula_units_Z   1
loop_
 _symmetry_equiv_pos_site_id
 _symmetry_equiv_pos_as_xyz
  1  'x, y, z'
loop_
 _atom_site_type_symbol
 _atom_site_label
 _atom_site_symmetry_multiplicity
 _atom_site_fract_x
 _atom_site_fract_y
 _atom_site_fract_z
 _atom_site_occupancy
  Ti  Ti0  1  0.33333300  0.66666700  0.50000000  1
  Ti  Ti1  1  0.33333300  0.66666700  0.00000000  1
  Ti  Ti2  1  0.66666700  0.33333300  0.00000000  1
  Ti  Ti3  1  0.75114461  0.74938662  0.24742529  1
  Ti  Ti4  1  0.25061338  0.00175799  0.24742529  1
  Ti  Ti5  1  0.99824201  0.24885539  0.24742529  1
  Ti  Ti6  1  0.25061338  0.24885539  0.75257471  1
  Ti  Ti7  1  0.75114461  0.00175799  0.75257471  1
  Ti  Ti8  1  0.99824201  0.74938662  0.75257471  1
  Nb  Nb0  1  0.66666700  0.33333300  0.50000000  1
  Sn  Sn0  1  0.39144105  0.39433400  0.24603158  1
  Sn  Sn1  1  0.60566600  0.99710705  0.24603158  1
  Sn  Sn2  1  0.00289295  0.60855895  0.24603158  1
  Sn  Sn3  1  0.60566600  0.60855895  0.75396842  1
  Sn  Sn4  1  0.39144105  0.99710705  0.75396842  1
  Sn  Sn5  1  0.00289295  0.39433400  0.75396842  1
  P  P0  1  0.00000000  0.00000000  0.50000000  1
loop_
_geom_bond_atom_site_label_1
_geom_bond_atom_site_label_2
_geom_bond_distance
_geom_bond_site_symmetry_2
Ti0 Ti1 2.750563 1_555
Ti0 Ti1 2.750563 1_556
Nb0 Ti2 2.750563 1_555
Nb0 Ti2 2.750563 1_556
Nb0 Sn5 2.879654 1_655
Nb0 Sn1 2.879654 1_545
Nb0 Sn2 2.879656 1_655
Nb0 Sn4 2.879656 1_545
Nb0 Sn0 2.879661 1_555
Nb0 Sn3 2.879661 1_555
Sn0 Ti5 2.794636 1_455
Sn0 Ti4 2.795759 1_555
Sn0 Ti1 2.825207 1_555
Sn0 Ti0 2.846382 1_555
Sn0 Ti2 2.858733 1_555
Sn0 Ti3 2.900667 1_555
Sn0 Ti6 2.952929 1_554
Sn0 Ti6 3.019240 1_555
Sn1 Ti3 2.794636 1_555
Sn1 Ti5 2.795759 1_565
Sn1 Ti1 2.825203 1_555
Sn1 Ti0 2.846377 1_555
Sn1 Ti2 2.858726 1_565
Sn1 Ti4 2.900667 1_565
Sn1 Ti7 2.952929 1_564
Sn1 Ti7 3.019240 1_565
Sn2 Ti4 2.794636 1_565
Sn2 Ti3 2.795759 1_455
Sn2 Ti1 2.825200 1_555
Sn2 Ti0 2.846375 1_555
Sn2 Ti2 2.858728 1_455
Sn2 Ti5 2.900667 1_455
Sn2 Ti8 2.952929 1_454
Sn2 Ti8 3.019240 1_455
Sn3 Ti7 2.794636 1_565
Sn3 Ti8 2.795759 1_555
Sn3 Ti1 2.825207 1_556
Sn3 Ti0 2.846382 1_555
Sn3 Ti2 2.858733 1_556
Sn3 Ti6 2.900667 1_555
Sn3 Ti3 2.952929 1_556
Sn3 Ti3 3.019240 1_555
Sn4 Ti8 2.794636 1_455
Sn4 Ti6 2.795759 1_565
Sn4 Ti1 2.825200 1_556
Sn4 Ti0 2.846375 1_555
Sn4 Ti2 2.858728 1_566
Sn4 Ti7 2.900667 1_565
Sn4 Ti4 2.952929 1_566
Sn4 Ti4 3.019240 1_565
Sn5 Ti6 2.794636 1_555
Sn5 Ti7 2.795759 1_455
Sn5 Ti1 2.825203 1_556
Sn5 Ti0 2.846377 1_555
Sn5 Ti2 2.858726 1_456
Sn5 Ti8 2.900667 1_455
Sn5 Ti5 2.952929 1_456
Sn5 Ti5 3.019240 1_455
P0 Ti6 2.457394 1_555
P0 Ti3 2.457394 1_445
P0 Ti4 2.457394 1_555
P0 Ti7 2.457394 1_455
P0 Ti8 2.457394 1_445
P0 Ti5 2.457394 1_455
