# generated using pymatgen
data_Zr3Al2AuC
_symmetry_space_group_name_H-M   'P 1'
_cell_length_a   8.72070501
_cell_length_b   8.72070593
_cell_length_c   8.72070503
_cell_angle_alpha   59.99999968
_cell_angle_beta   59.99999618
_cell_angle_gamma   59.99999665
_symmetry_Int_Tables_number   1
_chemical_formula_structural   Zr3Al2AuC
_chemical_formula_sum   'Zr12 Al8 Au4 C4'
_cell_volume   468.96433212
_cell_formula_units_Z   4
loop_
 _symmetry_equiv_pos_site_id
 _symmetry_equiv_pos_as_xyz
  1  'x, y, z'
loop_
 _atom_site_type_symbol
 _atom_site_label
 _atom_site_symmetry_multiplicity
 _atom_site_fract_x
 _atom_site_fract_y
 _atom_site_fract_z
 _atom_site_occupancy
  Zr  Zr0  1  0.93700151  0.93700151  0.56299849  1
  Zr  Zr1  1  0.68700151  0.31299849  0.31299849  1
  Zr  Zr2  1  0.31299849  0.68700151  0.68700151  1
  Zr  Zr3  1  0.68700151  0.68700151  0.31299849  1
  Zr  Zr4  1  0.68700151  0.31299849  0.68700151  1
  Zr  Zr5  1  0.31299849  0.68700151  0.31299849  1
  Zr  Zr6  1  0.56299849  0.93700151  0.56299849  1
  Zr  Zr7  1  0.56299849  0.93700151  0.93700151  1
  Zr  Zr8  1  0.93700151  0.56299849  0.56299849  1
  Zr  Zr9  1  0.93700151  0.56299849  0.93700151  1
  Zr  Zr10  1  0.31299849  0.31299849  0.68700151  1
  Zr  Zr11  1  0.56299849  0.56299849  0.93700151  1
  Al  Al0  1  0.91816850  0.24549449  0.91816850  1
  Al  Al1  1  0.33183150  0.33183150  0.00450551  1
  Al  Al2  1  0.00450551  0.33183150  0.33183150  1
  Al  Al3  1  0.33183150  0.33183150  0.33183150  1
  Al  Al4  1  0.24549449  0.91816850  0.91816850  1
  Al  Al5  1  0.91816850  0.91816850  0.91816850  1
  Al  Al6  1  0.91816850  0.91816850  0.24549449  1
  Al  Al7  1  0.33183150  0.00450551  0.33183150  1
  Au  Au0  1  0.12500000  0.62500000  0.12500000  1
  Au  Au1  1  0.12500000  0.12500000  0.62500000  1
  Au  Au2  1  0.62500000  0.12500000  0.12500000  1
  Au  Au3  1  0.12500000  0.12500000  0.12500000  1
  C  C0  1  0.62500000  0.12500000  0.62500000  1
  C  C1  1  0.62500000  0.62500000  0.12500000  1
  C  C2  1  0.12500000  0.62500000  0.62500000  1
  C  C3  1  0.62500000  0.62500000  0.62500000  1
loop_
_geom_bond_atom_site_label_1
_geom_bond_atom_site_label_2
_geom_bond_distance
_geom_bond_site_symmetry_2
Al0 Au1 2.659638 1_655
Al0 Au3 2.659638 1_656
Al0 Au2 2.659638 1_556
Al1 Au2 2.659638 1_555
Al1 Au0 2.659638 1_555
Al1 Au3 2.659638 1_555
Al2 Au1 2.659638 1_555
Al2 Au3 2.659638 1_555
Al2 Au0 2.659638 1_555
Al3 Au2 2.659638 1_555
Al3 Au0 2.659638 1_555
Al3 Au1 2.659638 1_555
Al4 Au1 2.659638 1_565
Al4 Au3 2.659638 1_566
Al4 Au0 2.659638 1_556
Al5 Au2 2.659638 1_566
Al5 Au0 2.659638 1_656
Al5 Au1 2.659638 1_665
Al6 Au2 2.659638 1_565
Al6 Au0 2.659638 1_655
Al6 Au3 2.659638 1_665
Al7 Au1 2.659638 1_555
Al7 Au3 2.659638 1_555
Al7 Au2 2.659638 1_555
Au0 Zr11 3.182602 1_554
Au0 Zr3 3.182602 1_455
Au0 Zr8 3.182602 1_455
Au0 Zr2 3.182602 1_554
Au0 Zr5 3.182602 1_555
Au0 Zr9 3.182602 1_454
Au1 Zr6 3.182602 1_545
Au1 Zr4 3.182602 1_455
Au1 Zr10 3.182602 1_555
Au1 Zr0 3.182602 1_445
Au1 Zr8 3.182602 1_455
Au1 Zr2 3.182602 1_545
Au2 Zr6 3.182602 1_545
Au2 Zr4 3.182602 1_554
Au2 Zr1 3.182602 1_555
Au2 Zr7 3.182602 1_544
Au2 Zr11 3.182602 1_554
Au2 Zr3 3.182602 1_545
Au3 Zr7 3.182602 1_544
Au3 Zr1 3.182602 1_455
Au3 Zr0 3.182602 1_445
Au3 Zr10 3.182602 1_554
Au3 Zr5 3.182602 1_545
Au3 Zr9 3.182602 1_454
C0 Zr0 2.310384 1_545
C0 Zr10 2.310384 1_555
C0 Zr7 2.310384 1_545
C0 Zr1 2.310384 1_555
C0 Zr4 2.310384 1_555
C0 Zr6 2.310384 1_545
C1 Zr9 2.310384 1_554
C1 Zr5 2.310384 1_555
C1 Zr3 2.310384 1_555
C1 Zr11 2.310384 1_554
C1 Zr7 2.310384 1_554
C1 Zr1 2.310384 1_555
C2 Zr9 2.310384 1_455
C2 Zr5 2.310384 1_555
C2 Zr2 2.310384 1_555
C2 Zr8 2.310384 1_455
C2 Zr0 2.310384 1_455
C2 Zr10 2.310384 1_555
C3 Zr8 2.310384 1_555
C3 Zr2 2.310384 1_555
C3 Zr11 2.310384 1_555
C3 Zr3 2.310384 1_555
C3 Zr6 2.310384 1_555
C3 Zr4 2.310384 1_555
