# generated using pymatgen
data_Pd7PtW
_symmetry_space_group_name_H-M   'P 1'
_cell_length_a   6.18626393
_cell_length_b   6.18626353
_cell_length_c   6.19987572
_cell_angle_alpha   95.70434197
_cell_angle_beta   95.70433615
_cell_angle_gamma   143.20390655
_symmetry_Int_Tables_number   1
_chemical_formula_structural   Pd7PtW
_chemical_formula_sum   'Pd7 Pt1 W1'
_cell_volume   134.88509868
_cell_formula_units_Z   1
loop_
 _symmetry_equiv_pos_site_id
 _symmetry_equiv_pos_as_xyz
  1  'x, y, z'
loop_
 _atom_site_type_symbol
 _atom_site_label
 _atom_site_symmetry_multiplicity
 _atom_site_fract_x
 _atom_site_fract_y
 _atom_site_fract_z
 _atom_site_occupancy
  Pd  Pd0  1  0.33622225  0.66155277  0.99777502  1
  Pd  Pd1  1  0.66155277  0.33622225  0.99777502  1
  Pd  Pd2  1  0.33838558  0.33838558  0.67677116  1
  Pd  Pd3  1  0.67304346  0.99890450  0.67194796  1
  Pd  Pd4  1  0.99890450  0.67304346  0.67194796  1
  Pd  Pd5  1  0.00027034  0.32956582  0.32983716  1
  Pd  Pd6  1  0.32956582  0.00027034  0.32983716  1
  Pt  Pt0  1  0.65940456  0.65940456  0.31880912  1
  W  W0  1  0.00264973  0.00264973  0.00530046  1
loop_
_geom_bond_atom_site_label_1
_geom_bond_atom_site_label_2
_geom_bond_distance
_geom_bond_site_symmetry_2
Pd0 Pd2 2.686076 1_555
Pd0 Pt0 2.686202 1_556
Pd0 W0 2.731512 1_666
Pd0 W0 2.731515 1_556
Pd0 Pd3 2.736467 1_555
Pd0 Pd3 2.736468 1_445
Pd0 Pd5 2.762394 1_666
Pd0 Pd5 2.762396 1_556
Pd0 Pd4 2.805068 1_455
Pd0 Pd6 2.815722 1_566
Pd0 Pd1 2.831491 1_565
Pd0 Pd1 2.831491 1_455
Pd1 Pd2 2.686076 1_555
Pd1 Pt0 2.686201 1_556
Pd1 W0 2.731512 1_666
Pd1 W0 2.731515 1_556
Pd1 Pd4 2.736467 1_555
Pd1 Pd4 2.736468 1_445
Pd1 Pd6 2.762394 1_666
Pd1 Pd6 2.762396 1_556
Pd1 Pd3 2.805068 1_545
Pd1 Pd5 2.815722 1_656
Pd2 Pd3 2.733480 1_555
Pd2 Pd4 2.733480 1_445
Pd2 Pd4 2.733481 1_555
Pd2 Pd3 2.733481 1_445
Pd2 W0 2.747630 1_666
Pd2 W0 2.747632 1_556
Pd2 Pd6 2.811434 1_555
Pd2 Pd5 2.811434 1_555
Pd2 Pt0 2.872126 1_555
Pd2 Pt0 2.872126 1_445
Pd3 W0 2.739837 1_666
Pd3 Pd5 2.804506 1_665
Pd3 Pd5 2.804510 1_555
Pd3 Pt0 2.824365 1_555
Pd3 Pd4 2.826984 1_565
Pd3 Pd4 2.826984 1_455
Pd3 Pd6 2.854865 1_565
Pd4 W0 2.739836 1_666
Pd4 Pd6 2.804506 1_665
Pd4 Pd6 2.804510 1_555
Pd4 Pt0 2.824365 1_555
Pd4 Pd5 2.854864 1_655
Pd5 W0 2.717243 1_555
Pd5 Pt0 2.748244 1_445
Pd5 Pt0 2.748247 1_555
Pd5 Pd6 2.797963 1_565
Pd5 Pd6 2.797963 1_455
Pd6 W0 2.717243 1_555
Pd6 Pt0 2.748244 1_445
Pd6 Pt0 2.748247 1_555
Pt0 W0 2.686175 1_665
Pt0 W0 2.686178 1_555
