# generated using pymatgen
data_HfZr5(AsN)2
_symmetry_space_group_name_H-M   'P 1'
_cell_length_a   5.87180125
_cell_length_b   5.87180147
_cell_length_c   8.48442762
_cell_angle_alpha   90.00000000
_cell_angle_beta   90.00000000
_cell_angle_gamma   145.44220427
_symmetry_Int_Tables_number   1
_chemical_formula_structural   HfZr5(AsN)2
_chemical_formula_sum   'Hf1 Zr5 As2 N2'
_cell_volume   165.93194909
_cell_formula_units_Z   1
loop_
 _symmetry_equiv_pos_site_id
 _symmetry_equiv_pos_as_xyz
  1  'x, y, z'
loop_
 _atom_site_type_symbol
 _atom_site_label
 _atom_site_symmetry_multiplicity
 _atom_site_fract_x
 _atom_site_fract_y
 _atom_site_fract_z
 _atom_site_occupancy
  Hf  Hf0  1  0.05857634  0.94142366  0.25000000  1
  Zr  Zr0  1  0.63201623  0.36798377  0.94567318  1
  Zr  Zr1  1  0.36863396  0.63136604  0.44390255  1
  Zr  Zr2  1  0.36863396  0.63136604  0.05609745  1
  Zr  Zr3  1  0.63201623  0.36798377  0.55432682  1
  Zr  Zr4  1  0.94181683  0.05818317  0.75000000  1
  As  As0  1  0.25533573  0.74466427  0.75000000  1
  As  As1  1  0.74213774  0.25786226  0.25000000  1
  N  N0  1  0.00041648  0.99958352  0.00348954  1
  N  N1  1  0.00041648  0.99958352  0.49651046  1
loop_
_geom_bond_atom_site_label_1
_geom_bond_atom_site_label_2
_geom_bond_distance
_geom_bond_site_symmetry_2
Hf0 N1 2.190825 1_555
Hf0 N0 2.190825 1_555
As0 Zr4 2.722970 1_565
As0 Zr4 2.722970 1_455
As0 Zr0 2.776729 1_455
As0 Zr3 2.776729 1_455
As0 Zr0 2.776729 1_565
As0 Zr3 2.776729 1_565
As0 Zr2 2.891169 1_556
As0 Zr1 2.891169 1_555
As1 Hf0 2.697908 1_545
As1 Hf0 2.697908 1_655
As1 Zr1 2.785743 1_655
As1 Zr2 2.785743 1_655
As1 Zr1 2.785743 1_545
As1 Zr2 2.785743 1_545
As1 Zr3 2.862133 1_555
As1 Zr0 2.862133 1_554
N0 Zr4 2.248859 1_464
N0 Zr2 2.329109 1_455
N0 Zr2 2.329109 1_565
N0 Zr0 2.336685 1_564
N0 Zr0 2.336685 1_454
N1 Zr4 2.248859 1_465
N1 Zr1 2.329109 1_455
N1 Zr1 2.329109 1_565
N1 Zr3 2.336685 1_565
N1 Zr3 2.336685 1_455
