# generated using pymatgen
data_ZnHg4(PI2)2
_symmetry_space_group_name_H-M   'P 1'
_cell_length_a   12.94949202
_cell_length_b   7.88845912
_cell_length_c   7.94070747
_cell_angle_alpha   61.42323606
_cell_angle_beta   90.00000000
_cell_angle_gamma   90.00000000
_symmetry_Int_Tables_number   1
_chemical_formula_structural   ZnHg4(PI2)2
_chemical_formula_sum   'Zn2 Hg8 P4 I8'
_cell_volume   712.33811824
_cell_formula_units_Z   2
loop_
 _symmetry_equiv_pos_site_id
 _symmetry_equiv_pos_as_xyz
  1  'x, y, z'
loop_
 _atom_site_type_symbol
 _atom_site_label
 _atom_site_symmetry_multiplicity
 _atom_site_fract_x
 _atom_site_fract_y
 _atom_site_fract_z
 _atom_site_occupancy
  Zn  Zn0  1  0.84368777  0.98617132  0.00804127  1
  Zn  Zn1  1  0.34368777  0.01382868  0.99195873  1
  Hg  Hg0  1  0.78930616  0.67003389  0.66744393  1
  Hg  Hg1  1  0.54345024  0.02020598  0.53268402  1
  Hg  Hg2  1  0.04345024  0.97979402  0.46731598  1
  Hg  Hg3  1  0.54392919  0.51667615  0.02432266  1
  Hg  Hg4  1  0.28930616  0.32996611  0.33255607  1
  Hg  Hg5  1  0.02837449  0.48103462  0.47277734  1
  Hg  Hg6  1  0.52837449  0.51896538  0.52722266  1
  Hg  Hg7  1  0.04392919  0.48332385  0.97567734  1
  P  P0  1  0.47724490  0.34865690  0.35213073  1
  P  P1  1  0.60162659  0.68570930  0.69108585  1
  P  P2  1  0.97724490  0.65134310  0.64786927  1
  P  P3  1  0.10162659  0.31429070  0.30891415  1
  I  I0  1  0.25380640  0.33781490  0.76032367  1
  I  I1  1  0.30783860  0.74761223  0.89577382  1
  I  I2  1  0.04132902  0.90601210  0.05389097  1
  I  I3  1  0.75380640  0.66218510  0.23967633  1
  I  I4  1  0.54132902  0.09398790  0.94610903  1
  I  I5  1  0.80783860  0.25238777  0.10422618  1
  I  I6  1  0.80813663  0.11473574  0.64613025  1
  I  I7  1  0.30813663  0.88526426  0.35386975  1
loop_
_geom_bond_atom_site_label_1
_geom_bond_atom_site_label_2
_geom_bond_distance
_geom_bond_site_symmetry_2
Hg0 P1 2.445275 1_555
Hg0 P2 2.447606 1_555
Hg1 P1 2.436604 1_545
Hg1 P0 2.439246 1_555
Hg2 P3 2.436604 1_565
Hg2 P2 2.439246 1_455
Hg3 P1 2.441874 1_554
Hg3 P0 2.444904 1_555
Hg4 P3 2.445275 1_555
Hg4 P0 2.447606 1_555
Hg5 P3 2.441395 1_555
Hg5 P2 2.441996 1_455
Hg6 P1 2.441395 1_555
Hg6 P0 2.441996 1_555
Hg7 P3 2.441874 1_556
Hg7 P2 2.444904 1_455
I0 Zn1 2.602410 1_555
I1 Zn1 2.596822 1_565
I2 Zn0 2.619627 1_455
I3 Zn0 2.602410 1_555
I4 Zn1 2.619627 1_555
I5 Zn0 2.596822 1_545
I6 Zn0 2.590580 1_546
I7 Zn1 2.590580 1_564
