# generated using pymatgen
data_Pd3Pt(SeO3)8
_symmetry_space_group_name_H-M   'P 1'
_cell_length_a   7.92015175
_cell_length_b   7.92015189
_cell_length_c   7.92015239
_cell_angle_alpha   89.98760271
_cell_angle_beta   90.01239940
_cell_angle_gamma   89.98760790
_symmetry_Int_Tables_number   1
_chemical_formula_structural   Pd3Pt(SeO3)8
_chemical_formula_sum   'Pd3 Pt1 Se8 O24'
_cell_volume   496.82165900
_cell_formula_units_Z   1
loop_
 _symmetry_equiv_pos_site_id
 _symmetry_equiv_pos_as_xyz
  1  'x, y, z'
loop_
 _atom_site_type_symbol
 _atom_site_label
 _atom_site_symmetry_multiplicity
 _atom_site_fract_x
 _atom_site_fract_y
 _atom_site_fract_z
 _atom_site_occupancy
  Pd  Pd0  1  0.50000000  0.50000000  0.00000000  1
  Pd  Pd1  1  0.50000000  0.00000000  0.50000000  1
  Pd  Pd2  1  0.00000000  0.00000000  0.00000000  1
  Pt  Pt0  1  0.00000000  0.50000000  0.50000000  1
  Se  Se0  1  0.83393771  0.16260943  0.66528068  1
  Se  Se1  1  0.16606229  0.83739057  0.33471932  1
  Se  Se2  1  0.66260943  0.66528068  0.66606229  1
  Se  Se3  1  0.16528068  0.66606229  0.83739057  1
  Se  Se4  1  0.33481655  0.16518345  0.83481655  1
  Se  Se5  1  0.83471932  0.33393771  0.16260943  1
  Se  Se6  1  0.66518345  0.83481655  0.16518345  1
  Se  Se7  1  0.33739057  0.33471932  0.33393771  1
  O  O0  1  0.25039473  0.47779065  0.47493423  1
  O  O1  1  0.97576092  0.24878731  0.01938800  1
  O  O2  1  0.02506577  0.75039473  0.47779065  1
  O  O3  1  0.47478929  0.25117088  0.97896863  1
  O  O4  1  0.25121269  0.98061200  0.47576092  1
  O  O5  1  0.51938800  0.52423908  0.75121269  1
  O  O6  1  0.97750852  0.02203951  0.75118198  1
  O  O7  1  0.52521071  0.74882912  0.02103137  1
  O  O8  1  0.52103137  0.97478929  0.25117088  1
  O  O9  1  0.47896863  0.02521071  0.74882912  1
  O  O10  1  0.75117088  0.97896863  0.02521071  1
  O  O11  1  0.25118198  0.52249148  0.97796049  1
  O  O12  1  0.02220935  0.52506577  0.75039473  1
  O  O13  1  0.02249148  0.97796049  0.24881802  1
  O  O14  1  0.24882912  0.02103137  0.97478929  1
  O  O15  1  0.48061200  0.47576092  0.24878731  1
  O  O16  1  0.74960527  0.52220935  0.52506577  1
  O  O17  1  0.97779065  0.47493423  0.24960527  1
  O  O18  1  0.02423908  0.75121269  0.98061200  1
  O  O19  1  0.47796049  0.24881802  0.47750852  1
  O  O20  1  0.52203951  0.75118198  0.52249148  1
  O  O21  1  0.97493423  0.24960527  0.52220935  1
  O  O22  1  0.74878731  0.01938800  0.52423908  1
  O  O23  1  0.74881802  0.47750852  0.02203951  1
loop_
_geom_bond_atom_site_label_1
_geom_bond_atom_site_label_2
_geom_bond_distance
_geom_bond_site_symmetry_2
O0 Se7 1.733887 1_555
O0 Pt0 2.000832 1_555
O1 Se5 1.729144 1_555
O1 Pd2 1.985704 1_655
O2 Se1 1.733887 1_555
O2 Pt0 2.000832 1_555
O3 Se4 1.731017 1_555
O3 Pd0 1.987920 1_556
O4 Se1 1.729144 1_555
O4 Pd1 1.985704 1_565
O5 Se2 1.729144 1_555
O5 Pd0 1.985705 1_556
O6 Se0 1.730371 1_555
O6 Pd2 1.986317 1_656
O7 Se6 1.731017 1_555
O7 Pd0 1.987920 1_555
O8 Se6 1.731018 1_555
O8 Pd1 1.987920 1_565
O9 Se4 1.731018 1_555
O9 Pd1 1.987920 1_555
O10 Se6 1.731017 1_555
O10 Pd2 1.987920 1_665
O11 Se3 1.730371 1_555
O11 Pd0 1.986317 1_556
O12 Se3 1.733887 1_555
O12 Pt0 2.000832 1_555
O13 Se1 1.730371 1_555
O13 Pd2 1.986317 1_565
O14 Se4 1.731017 1_555
O14 Pd2 1.987920 1_556
O15 Se7 1.729144 1_555
O15 Pd0 1.985705 1_555
O16 Se2 1.733887 1_555
O16 Pt0 2.000832 1_655
O17 Se5 1.733887 1_555
O17 Pt0 2.000832 1_655
O18 Se3 1.729144 1_555
O18 Pd2 1.985704 1_566
O19 Se7 1.730371 1_555
O19 Pd1 1.986317 1_555
O20 Se2 1.730371 1_555
O20 Pd1 1.986317 1_565
O21 Se0 1.733887 1_555
O21 Pt0 2.000832 1_655
O22 Se0 1.729144 1_555
O22 Pd1 1.985704 1_555
O23 Se5 1.730371 1_555
O23 Pd0 1.986317 1_555
