# generated using pymatgen
data_Sn2IrRh3Se10
_symmetry_space_group_name_H-M   'P 1'
_cell_length_a   3.76102287
_cell_length_b   7.71654989
_cell_length_c   13.11373369
_cell_angle_alpha   78.34168243
_cell_angle_beta   90.00000000
_cell_angle_gamma   90.00000000
_symmetry_Int_Tables_number   1
_chemical_formula_structural   Sn2IrRh3Se10
_chemical_formula_sum   'Sn2 Ir1 Rh3 Se10'
_cell_volume   372.73685255
_cell_formula_units_Z   1
loop_
 _symmetry_equiv_pos_site_id
 _symmetry_equiv_pos_as_xyz
  1  'x, y, z'
loop_
 _atom_site_type_symbol
 _atom_site_label
 _atom_site_symmetry_multiplicity
 _atom_site_fract_x
 _atom_site_fract_y
 _atom_site_fract_z
 _atom_site_occupancy
  Sn  Sn0  1  0.50000000  0.16538585  0.67276881  1
  Sn  Sn1  1  0.50000000  0.83707545  0.32652144  1
  Ir  Ir0  1  0.00000000  0.74250788  0.85311002  1
  Rh  Rh0  1  0.00000000  0.25773758  0.14734178  1
  Rh  Rh1  1  0.50000000  0.75017009  0.14324926  1
  Rh  Rh2  1  0.50000000  0.24827178  0.85721551  1
  Se  Se0  1  0.00000000  0.95807460  0.10062924  1
  Se  Se1  1  0.00000000  0.04060237  0.89940774  1
  Se  Se2  1  0.00000000  0.45922160  0.78635091  1
  Se  Se3  1  0.00000000  0.54057533  0.21406008  1
  Se  Se4  1  0.50000000  0.66213915  0.97341444  1
  Se  Se5  1  0.50000000  0.33673761  0.02654251  1
  Se  Se6  1  0.50000000  0.18746505  0.27784481  1
  Se  Se7  1  0.50000000  0.81369506  0.72235385  1
  Se  Se8  1  0.00000000  0.24352240  0.54255173  1
  Se  Se9  1  0.00000000  0.75681822  0.45664089  1
loop_
_geom_bond_atom_site_label_1
_geom_bond_atom_site_label_2
_geom_bond_distance
_geom_bond_site_symmetry_2
Ir0 Se4 2.452440 1_455
Ir0 Se4 2.452440 1_555
Ir0 Se1 2.494842 1_565
Ir0 Se2 2.513651 1_555
Ir0 Se7 2.529348 1_455
Ir0 Se7 2.529348 1_555
Rh0 Se5 2.455020 1_555
Rh0 Se5 2.455020 1_455
Rh0 Se0 2.508935 1_545
Rh0 Se3 2.510117 1_555
Rh0 Se6 2.526686 1_455
Rh0 Se6 2.526686 1_555
Rh1 Se4 2.456250 1_554
Rh1 Se0 2.461730 1_655
Rh1 Se0 2.461730 1_555
Rh1 Se3 2.531294 1_555
Rh1 Se3 2.531294 1_655
Rh1 Sn1 2.622469 1_555
Rh2 Se5 2.451387 1_556
Rh2 Se1 2.460101 1_655
Rh2 Se1 2.460101 1_555
Rh2 Se2 2.537381 1_655
Rh2 Se2 2.537381 1_555
Rh2 Sn0 2.623897 1_555
Se0 Se1 2.586403 1_564
Se4 Se5 2.466451 1_556
Se6 Sn1 2.649616 1_545
Se7 Sn0 2.659804 1_565
Se8 Sn0 2.529774 1_555
Se8 Sn0 2.529774 1_455
Se9 Sn1 2.530694 1_455
Se9 Sn1 2.530694 1_555
