# generated using pymatgen
data_Cs3Sc(AsO4)2
_symmetry_space_group_name_H-M   'P 1'
_cell_length_a   5.81511151
_cell_length_b   5.81511162
_cell_length_c   8.61528877
_cell_angle_alpha   90.00000000
_cell_angle_beta   90.00000000
_cell_angle_gamma   119.99999390
_symmetry_Int_Tables_number   1
_chemical_formula_structural   Cs3Sc(AsO4)2
_chemical_formula_sum   'Cs3 Sc1 As2 O8'
_cell_volume   252.29962160
_cell_formula_units_Z   1
loop_
 _symmetry_equiv_pos_site_id
 _symmetry_equiv_pos_as_xyz
  1  'x, y, z'
loop_
 _atom_site_type_symbol
 _atom_site_label
 _atom_site_symmetry_multiplicity
 _atom_site_fract_x
 _atom_site_fract_y
 _atom_site_fract_z
 _atom_site_occupancy
  Cs  Cs0  1  0.33333300  0.66666700  0.76605670  1
  Cs  Cs1  1  0.66666700  0.33333300  0.23394330  1
  Cs  Cs2  1  0.00000000  0.00000000  0.00000000  1
  Sc  Sc0  1  0.00000000  0.00000000  0.50000000  1
  As  As0  1  0.33333300  0.66666700  0.29852855  1
  As  As1  1  0.66666700  0.33333300  0.70147145  1
  O  O0  1  0.33333300  0.66666700  0.10345780  1
  O  O1  1  0.66666700  0.33333300  0.89654220  1
  O  O2  1  0.17261847  0.82738153  0.36048307  1
  O  O3  1  0.82738153  0.17261847  0.63951693  1
  O  O4  1  0.17261847  0.34523695  0.36048307  1
  O  O5  1  0.82738153  0.65476305  0.63951693  1
  O  O6  1  0.65476305  0.82738153  0.36048307  1
  O  O7  1  0.34523695  0.17261847  0.63951693  1
loop_
_geom_bond_atom_site_label_1
_geom_bond_atom_site_label_2
_geom_bond_distance
_geom_bond_site_symmetry_2
Cs0 O0 2.906808 1_556
Cs0 O5 3.105792 1_455
Cs0 O7 3.105792 1_565
Cs0 O3 3.105795 1_455
Cs0 O3 3.105795 1_565
Cs0 O5 3.105797 1_555
Cs0 O7 3.105797 1_555
Cs1 O1 2.906808 1_554
Cs1 O4 3.105792 1_655
Cs1 O6 3.105792 1_545
Cs1 O2 3.105795 1_655
Cs1 O2 3.105795 1_545
Cs1 O4 3.105797 1_555
Cs1 O6 3.105797 1_555
Cs2 O0 3.473653 1_545
Cs2 O1 3.473653 1_454
Cs2 O1 3.473658 1_554
Cs2 O0 3.473658 1_445
Cs2 O0 3.473658 1_555
Cs2 O1 3.473658 1_444
Cs2 O3 3.559210 1_454
Cs2 O2 3.559210 1_545
Cs2 O7 3.559210 1_554
Cs2 O6 3.559210 1_445
Cs2 O4 3.559210 1_555
Cs2 O5 3.559210 1_444
As0 O0 1.680591 1_555
As0 O2 1.704457 1_555
As0 O6 1.704462 1_555
As0 O4 1.704462 1_555
As1 O1 1.680591 1_555
As1 O3 1.704457 1_555
As1 O7 1.704462 1_555
As1 O5 1.704462 1_555
O2 Sc0 2.113663 1_565
O3 Sc0 2.113663 1_655
O4 Sc0 2.113663 1_555
O5 Sc0 2.113663 1_665
O6 Sc0 2.113663 1_665
O7 Sc0 2.113663 1_555
