# generated using pymatgen
data_Mg3MnP7N12
_symmetry_space_group_name_H-M   'P 1'
_cell_length_a   7.19112970
_cell_length_b   7.19112978
_cell_length_c   7.19112935
_cell_angle_alpha   109.60014468
_cell_angle_beta   109.60014100
_cell_angle_gamma   109.60013113
_symmetry_Int_Tables_number   1
_chemical_formula_structural   Mg3MnP7N12
_chemical_formula_sum   'Mg3 Mn1 P7 N12'
_cell_volume   284.89123662
_cell_formula_units_Z   1
loop_
 _symmetry_equiv_pos_site_id
 _symmetry_equiv_pos_as_xyz
  1  'x, y, z'
loop_
 _atom_site_type_symbol
 _atom_site_label
 _atom_site_symmetry_multiplicity
 _atom_site_fract_x
 _atom_site_fract_y
 _atom_site_fract_z
 _atom_site_occupancy
  Mg  Mg0  1  0.00393562  0.65906648  0.00393562  1
  Mg  Mg1  1  0.65906648  0.00393562  0.00393562  1
  Mg  Mg2  1  0.00393562  0.00393562  0.65906648  1
  Mn  Mn0  1  0.34452181  0.34452181  0.34452181  1
  P  P0  1  0.49808575  0.24808152  0.74915956  1
  P  P1  1  0.49808575  0.74915956  0.24808152  1
  P  P2  1  0.74915956  0.24808152  0.49808575  1
  P  P3  1  0.24808152  0.49808575  0.74915956  1
  P  P4  1  0.74915956  0.49808575  0.24808152  1
  P  P5  1  0.24808152  0.74915956  0.49808575  1
  P  P6  1  0.01591188  0.01591188  0.01591188  1
  N  N0  1  0.99875820  0.72348831  0.43745649  1
  N  N1  1  0.27570492  0.71176701  0.27570492  1
  N  N2  1  0.28252529  0.55843340  0.55843340  1
  N  N3  1  0.55843340  0.55843340  0.28252529  1
  N  N4  1  0.55843340  0.28252529  0.55843340  1
  N  N5  1  0.72348831  0.99875820  0.43745649  1
  N  N6  1  0.43745649  0.99875820  0.72348831  1
  N  N7  1  0.72348831  0.43745649  0.99875820  1
  N  N8  1  0.27570492  0.27570492  0.71176701  1
  N  N9  1  0.71176701  0.27570492  0.27570492  1
  N  N10  1  0.99875820  0.43745649  0.72348831  1
  N  N11  1  0.43745649  0.72348831  0.99875820  1
loop_
_geom_bond_atom_site_label_1
_geom_bond_atom_site_label_2
_geom_bond_distance
_geom_bond_site_symmetry_2
Mg0 N1 2.055760 1_555
Mg0 N10 2.088496 1_454
Mg0 N7 2.088497 1_454
Mg0 P6 2.509640 1_565
Mg1 N9 2.055760 1_555
Mg1 N6 2.088496 1_544
Mg1 N11 2.088497 1_544
Mg1 P6 2.509640 1_655
Mg2 N8 2.055760 1_555
Mg2 N0 2.088496 1_445
Mg2 N5 2.088496 1_445
Mg2 P6 2.509640 1_556
Mn0 N2 2.064934 1_555
Mn0 N4 2.064934 1_555
Mn0 N3 2.064935 1_555
Mn0 P6 2.347996 1_555
N0 P4 1.621961 1_555
N0 P5 1.624258 1_655
N1 P5 1.621595 1_555
N1 P1 1.621595 1_555
N2 P3 1.638877 1_555
N2 P5 1.638877 1_555
N3 P4 1.638877 1_555
N3 P1 1.638877 1_555
N4 P2 1.638877 1_555
N4 P0 1.638877 1_555
N5 P1 1.621961 1_555
N5 P2 1.624258 1_565
N6 P5 1.621961 1_555
N6 P0 1.624258 1_565
N7 P0 1.621961 1_555
N7 P4 1.624258 1_556
N8 P3 1.621595 1_555
N8 P0 1.621595 1_555
N9 P2 1.621595 1_555
N9 P4 1.621595 1_555
N10 P2 1.621961 1_555
N10 P3 1.624258 1_655
N11 P3 1.621961 1_555
N11 P1 1.624258 1_556
