# generated using pymatgen
data_LiTaWN3
_symmetry_space_group_name_H-M   'P 1'
_cell_length_a   5.07856938
_cell_length_b   5.07856838
_cell_length_c   10.36494957
_cell_angle_alpha   90.00000000
_cell_angle_beta   90.00000000
_cell_angle_gamma   120.19470854
_symmetry_Int_Tables_number   1
_chemical_formula_structural   LiTaWN3
_chemical_formula_sum   'Li4 Ta4 W4 N12'
_cell_volume   231.06016588
_cell_formula_units_Z   4
loop_
 _symmetry_equiv_pos_site_id
 _symmetry_equiv_pos_as_xyz
  1  'x, y, z'
loop_
 _atom_site_type_symbol
 _atom_site_label
 _atom_site_symmetry_multiplicity
 _atom_site_fract_x
 _atom_site_fract_y
 _atom_site_fract_z
 _atom_site_occupancy
  Li  Li0  1  0.33371846  0.66628154  0.00000000  1
  Li  Li1  1  0.33371846  0.66628154  0.50000000  1
  Li  Li2  1  0.66683008  0.33316992  0.50000000  1
  Li  Li3  1  0.66683008  0.33316992  0.00000000  1
  Ta  Ta0  1  0.00119569  0.99880431  0.50000000  1
  Ta  Ta1  1  0.00119569  0.99880431  0.00000000  1
  Ta  Ta2  1  0.33833103  0.99976328  0.25000000  1
  Ta  Ta3  1  0.00023672  0.66166897  0.75000000  1
  W  W0  1  0.99954336  0.33849691  0.25000000  1
  W  W1  1  0.66150309  0.00045664  0.75000000  1
  W  W2  1  0.33902228  0.33930653  0.75000000  1
  W  W3  1  0.66069347  0.66097772  0.25000000  1
  N  N0  1  0.67028226  0.67385042  0.62336278  1
  N  N1  1  0.67028226  0.67385042  0.87663722  1
  N  N2  1  0.32614958  0.32971774  0.12336278  1
  N  N3  1  0.32614958  0.32971774  0.37663722  1
  N  N4  1  0.33078764  0.00371797  0.87658636  1
  N  N5  1  0.33078764  0.00371797  0.62341364  1
  N  N6  1  0.99628203  0.66921236  0.37658636  1
  N  N7  1  0.99628203  0.66921236  0.12341364  1
  N  N8  1  0.67490708  0.99981828  0.12351577  1
  N  N9  1  0.67490708  0.99981828  0.37648423  1
  N  N10  1  0.00018172  0.32509292  0.87648423  1
  N  N11  1  0.00018172  0.32509292  0.62351577  1
loop_
_geom_bond_atom_site_label_1
_geom_bond_atom_site_label_2
_geom_bond_distance
_geom_bond_site_symmetry_2
Li0 N2 2.119413 1_555
Li0 N1 2.119413 1_554
Li0 N10 2.135027 1_554
Li0 N8 2.135027 1_555
Li0 N4 2.144509 1_564
Li0 N7 2.144509 1_455
Li1 N3 2.119413 1_555
Li1 N0 2.119413 1_555
Li1 N11 2.135027 1_555
Li1 N9 2.135027 1_555
Li1 N5 2.144509 1_565
Li1 N6 2.144509 1_455
Li2 N6 2.115664 1_555
Li2 N5 2.115664 1_555
Li2 N9 2.139302 1_545
Li2 N11 2.139302 1_655
Li2 N0 2.144347 1_555
Li2 N3 2.144347 1_555
Li3 N7 2.115664 1_555
Li3 N4 2.115664 1_554
Li3 N8 2.139302 1_545
Li3 N10 2.139302 1_654
Li3 N1 2.144347 1_554
Li3 N2 2.144347 1_555
N0 Ta0 2.095946 1_655
N0 W1 2.133196 1_565
N0 W2 2.136502 1_555
N0 Ta3 2.153822 1_655
N1 Ta1 2.095946 1_656
N1 W1 2.133196 1_565
N1 W2 2.136502 1_555
N1 Ta3 2.153822 1_655
N2 Ta1 2.095946 1_545
N2 W0 2.133196 1_455
N2 W3 2.136502 1_555
N2 Ta2 2.153822 1_545
N3 Ta0 2.095946 1_545
N3 W0 2.133196 1_455
N3 W3 2.136502 1_555
N3 Ta2 2.153822 1_545
N4 Ta1 2.096829 1_546
N4 W2 2.134533 1_555
N4 W1 2.137917 1_555
N4 Ta3 2.150329 1_545
N5 Ta0 2.096829 1_545
N5 W2 2.134533 1_555
N5 W1 2.137917 1_555
N5 Ta3 2.150329 1_545
N6 Ta0 2.096829 1_655
N6 W3 2.134533 1_555
N6 W0 2.137916 1_555
N6 Ta2 2.150329 1_655
N7 Ta1 2.096829 1_655
N7 W3 2.134533 1_555
N7 W0 2.137916 1_555
N7 Ta2 2.150329 1_655
N8 Ta1 2.096073 1_655
N8 W0 2.131405 1_565
N8 W3 2.135469 1_555
N8 Ta2 2.154075 1_555
N9 Ta0 2.096073 1_655
N9 W0 2.131405 1_565
N9 W3 2.135469 1_555
N9 Ta2 2.154075 1_555
N10 Ta1 2.096073 1_546
N10 W1 2.131405 1_455
N10 W2 2.135470 1_555
N10 Ta3 2.154075 1_555
N11 Ta0 2.096073 1_545
N11 W1 2.131405 1_455
N11 W2 2.135470 1_555
N11 Ta3 2.154075 1_555
