# generated using pymatgen
data_Zr2Ta4TiH16
_symmetry_space_group_name_H-M   'P 1'
_cell_length_a   6.44958471
_cell_length_b   6.33941690
_cell_length_c   6.44958404
_cell_angle_alpha   60.56345307
_cell_angle_beta   58.87309047
_cell_angle_gamma   60.56344790
_symmetry_Int_Tables_number   1
_chemical_formula_structural   Zr2Ta4TiH16
_chemical_formula_sum   'Zr2 Ta4 Ti1 H16'
_cell_volume   186.35818996
_cell_formula_units_Z   1
loop_
 _symmetry_equiv_pos_site_id
 _symmetry_equiv_pos_as_xyz
  1  'x, y, z'
loop_
 _atom_site_type_symbol
 _atom_site_label
 _atom_site_symmetry_multiplicity
 _atom_site_fract_x
 _atom_site_fract_y
 _atom_site_fract_z
 _atom_site_occupancy
  Zr  Zr0  1  0.50000000  0.00000000  0.50000000  1
  Zr  Zr1  1  0.00000000  0.50000000  0.00000000  1
  Ta  Ta0  1  0.00000000  0.00000000  0.50000000  1
  Ta  Ta1  1  0.00000000  0.50000000  0.50000000  1
  Ta  Ta2  1  0.50000000  0.50000000  0.00000000  1
  Ta  Ta3  1  0.50000000  0.00000000  0.00000000  1
  Ti  Ti0  1  0.00000000  0.00000000  0.00000000  1
  H  H0  1  0.89025565  0.87156527  0.36661381  1
  H  H1  1  0.87156527  0.36661381  0.87156527  1
  H  H2  1  0.36661381  0.87156527  0.89025565  1
  H  H3  1  0.87156527  0.89025565  0.87156527  1
  H  H4  1  0.10974435  0.12843473  0.63338619  1
  H  H5  1  0.12843473  0.63338619  0.12843473  1
  H  H6  1  0.63338619  0.12843473  0.10974435  1
  H  H7  1  0.12843473  0.10974435  0.12843473  1
  H  H8  1  0.60544198  0.63038105  0.13379792  1
  H  H9  1  0.63038105  0.13379792  0.63038105  1
  H  H10  1  0.13379792  0.63038105  0.60544198  1
  H  H11  1  0.63038105  0.60544198  0.63038105  1
  H  H12  1  0.39455802  0.36961895  0.86620208  1
  H  H13  1  0.36961895  0.86620208  0.36961895  1
  H  H14  1  0.86620208  0.36961895  0.39455802  1
  H  H15  1  0.36961895  0.39455802  0.36961895  1
loop_
_geom_bond_atom_site_label_1
_geom_bond_atom_site_label_2
_geom_bond_distance
_geom_bond_site_symmetry_2
H0 Ti0 1.923190 1_665
H0 Ta1 1.946401 1_655
H0 Ta0 1.946401 1_665
H0 Zr0 2.042969 1_565
H1 Ti0 1.923190 1_656
H1 Ta1 1.946401 1_655
H1 Ta2 1.946401 1_556
H1 Zr1 2.042969 1_656
H2 Ti0 1.923190 1_566
H2 Ta2 1.946401 1_556
H2 Ta3 1.946401 1_566
H2 Zr0 2.042969 1_565
H3 Ti0 1.923190 1_666
H3 Ta0 1.946401 1_665
H3 Ta3 1.946401 1_566
H3 Zr1 2.042968 1_656
H4 Ti0 1.923190 1_556
H4 Ta1 1.946401 1_555
H4 Ta0 1.946401 1_555
H4 Zr0 2.042969 1_555
H5 Ti0 1.923190 1_565
H5 Ta1 1.946401 1_555
H5 Ta2 1.946401 1_555
H5 Zr1 2.042969 1_555
H6 Ti0 1.923190 1_655
H6 Ta2 1.946401 1_555
H6 Ta3 1.946401 1_555
H6 Zr0 2.042969 1_555
H7 Ti0 1.923190 1_555
H7 Ta0 1.946401 1_555
H7 Ta3 1.946401 1_555
H7 Zr1 2.042968 1_555
H8 Ta3 1.936637 1_565
H8 Ta2 1.936647 1_555
H8 Zr1 2.065636 1_655
H9 Ta3 1.936637 1_556
H9 Ta0 1.936637 1_655
H9 Zr0 2.065647 1_555
H10 Ta0 1.936637 1_565
H10 Ta1 1.936647 1_555
H10 Zr1 2.065636 1_556
H11 Ta2 1.936637 1_556
H11 Ta1 1.936637 1_655
H11 Zr0 2.065636 1_565
H12 Ta3 1.936637 1_556
H12 Ta2 1.936647 1_556
H12 Zr1 2.065636 1_556
H13 Ta3 1.936637 1_565
H13 Ta0 1.936637 1_565
H13 Zr0 2.065647 1_565
H14 Ta0 1.936637 1_655
H14 Ta1 1.936647 1_655
H14 Zr1 2.065636 1_655
H15 Ta2 1.936637 1_555
H15 Ta1 1.936637 1_555
H15 Zr0 2.065636 1_555
