# generated using pymatgen
data_MoPtRh7
_symmetry_space_group_name_H-M   'P 1'
_cell_length_a   6.06384856
_cell_length_b   6.06384931
_cell_length_c   6.06384942
_cell_angle_alpha   95.79666036
_cell_angle_beta   95.63201613
_cell_angle_gamma   143.21256956
_symmetry_Int_Tables_number   1
_chemical_formula_structural   MoPtRh7
_chemical_formula_sum   'Mo1 Pt1 Rh7'
_cell_volume   126.70286801
_cell_formula_units_Z   1
loop_
 _symmetry_equiv_pos_site_id
 _symmetry_equiv_pos_as_xyz
  1  'x, y, z'
loop_
 _atom_site_type_symbol
 _atom_site_label
 _atom_site_symmetry_multiplicity
 _atom_site_fract_x
 _atom_site_fract_y
 _atom_site_fract_z
 _atom_site_occupancy
  Mo  Mo0  1  0.99718297  1.00000000  0.99718297  1
  Pt  Pt0  1  0.33202795  1.00000000  0.33202795  1
  Rh  Rh0  1  0.33706058  0.33885336  0.67591294  1
  Rh  Rh1  1  0.66108578  0.66398389  0.32507067  1
  Rh  Rh2  1  0.66108578  0.33601611  0.99710189  1
  Rh  Rh3  1  0.33706058  0.66114664  0.99820823  1
  Rh  Rh4  1  0.00193700  0.32909316  0.33103017  1
  Rh  Rh5  1  0.00193700  0.67090684  0.67284384  1
  Rh  Rh6  1  0.67062135  0.00000000  0.67062135  1
loop_
_geom_bond_atom_site_label_1
_geom_bond_atom_site_label_2
_geom_bond_distance
_geom_bond_site_symmetry_2
Mo0 Rh6 2.659490 1_565
Mo0 Rh3 2.660540 1_665
Mo0 Rh3 2.660542 1_555
Mo0 Rh0 2.660544 1_555
Mo0 Rh0 2.660547 1_665
Mo0 Rh5 2.676135 1_655
Mo0 Rh4 2.676135 1_666
Mo0 Rh2 2.687138 1_665
Mo0 Rh2 2.687138 1_555
Mo0 Rh1 2.687141 1_666
Mo0 Rh1 2.687144 1_556
Mo0 Pt0 2.726949 1_656
Pt0 Rh1 2.716070 1_565
Pt0 Rh2 2.716071 1_454
Pt0 Rh2 2.716071 1_564
Pt0 Rh1 2.716072 1_455
Pt0 Rh4 2.739884 1_665
Pt0 Rh5 2.739884 1_665
Pt0 Rh5 2.739884 1_555
Pt0 Rh4 2.739884 1_555
Pt0 Rh0 2.755515 1_565
Pt0 Rh3 2.755516 1_554
Pt0 Rh6 2.757475 1_565
Rh0 Rh3 2.620573 1_555
Rh0 Rh2 2.638938 1_555
Rh0 Rh6 2.686129 1_565
Rh0 Rh6 2.686131 1_455
Rh0 Rh5 2.707193 1_655
Rh0 Rh5 2.707196 1_545
Rh0 Rh4 2.730367 1_555
Rh0 Rh1 2.781482 1_555
Rh0 Rh1 2.781487 1_445
Rh1 Rh3 2.638934 1_554
Rh1 Rh2 2.666708 1_554
Rh1 Rh4 2.672700 1_555
Rh1 Rh4 2.672704 1_665
Rh1 Rh6 2.733244 1_565
Rh1 Rh5 2.776430 1_655
Rh2 Rh5 2.672702 1_545
Rh2 Rh5 2.672702 1_655
Rh2 Rh6 2.733248 1_555
Rh2 Rh4 2.776434 1_656
Rh2 Rh3 2.781491 1_655
Rh2 Rh3 2.781494 1_545
Rh3 Rh6 2.686133 1_455
Rh3 Rh6 2.686136 1_565
Rh3 Rh4 2.707189 1_556
Rh3 Rh4 2.707191 1_666
Rh3 Rh5 2.730375 1_555
Rh4 Rh6 2.734860 1_565
Rh4 Rh6 2.734861 1_455
Rh4 Rh5 2.779285 1_555
Rh5 Rh6 2.734860 1_565
Rh5 Rh6 2.734861 1_455
